# Generated by pormake.
# Topology xfr, (7)-cn, num edge types: 1
# Building blocks:
#     Node 0, Type 0, BuildingBlock: HICVOG_clean_sbu_0, # of connection points: 7
#     Node 1, Type 0, BuildingBlock: HICVOG_clean_sbu_0, # of connection points: 7
#     Node 2, Type 0, BuildingBlock: HICVOG_clean_sbu_0, # of connection points: 7
#     Node 3, Type 0, BuildingBlock: HICVOG_clean_sbu_0, # of connection points: 7
#     Node 4, Type 0, BuildingBlock: HICVOG_clean_sbu_0, # of connection points: 7
#     Node 5, Type 0, BuildingBlock: HICVOG_clean_sbu_0, # of connection points: 7
#     Node 6, Type 0, BuildingBlock: HICVOG_clean_sbu_0, # of connection points: 7
#     Node 7, Type 0, BuildingBlock: HICVOG_clean_sbu_0, # of connection points: 7
#     Node 8, Type 0, BuildingBlock: HICVOG_clean_sbu_0, # of connection points: 7
#     Node 9, Type 0, BuildingBlock: HICVOG_clean_sbu_0, # of connection points: 7
#     Node 10, Type 0, BuildingBlock: HICVOG_clean_sbu_0, # of connection points: 7
#     Node 11, Type 0, BuildingBlock: HICVOG_clean_sbu_0, # of connection points: 7
#     Node 12, Type 0, BuildingBlock: HICVOG_clean_sbu_0, # of connection points: 7
#     Node 13, Type 0, BuildingBlock: HICVOG_clean_sbu_0, # of connection points: 7
#     Node 14, Type 0, BuildingBlock: HICVOG_clean_sbu_0, # of connection points: 7
#     Node 15, Type 0, BuildingBlock: HICVOG_clean_sbu_0, # of connection points: 7
#     Node 16, Type 0, BuildingBlock: HICVOG_clean_sbu_0, # of connection points: 7
#     Node 17, Type 0, BuildingBlock: HICVOG_clean_sbu_0, # of connection points: 7
#     Node 18, Type 0, BuildingBlock: HICVOG_clean_sbu_0, # of connection points: 7
#     Node 19, Type 0, BuildingBlock: HICVOG_clean_sbu_0, # of connection points: 7
#     Node 20, Type 0, BuildingBlock: HICVOG_clean_sbu_0, # of connection points: 7
#     Node 21, Type 0, BuildingBlock: HICVOG_clean_sbu_0, # of connection points: 7
#     Node 22, Type 0, BuildingBlock: HICVOG_clean_sbu_0, # of connection points: 7
#     Node 23, Type 0, BuildingBlock: HICVOG_clean_sbu_0, # of connection points: 7
#     Node 24, Type 0, BuildingBlock: HICVOG_clean_sbu_0, # of connection points: 7
#     Node 25, Type 0, BuildingBlock: HICVOG_clean_sbu_0, # of connection points: 7
#     Node 26, Type 0, BuildingBlock: HICVOG_clean_sbu_0, # of connection points: 7
#     Node 27, Type 0, BuildingBlock: HICVOG_clean_sbu_0, # of connection points: 7
#     Node 28, Type 0, BuildingBlock: HICVOG_clean_sbu_0, # of connection points: 7
#     Node 29, Type 0, BuildingBlock: HICVOG_clean_sbu_0, # of connection points: 7
#     Node 30, Type 0, BuildingBlock: HICVOG_clean_sbu_0, # of connection points: 7
#     Node 31, Type 0, BuildingBlock: HICVOG_clean_sbu_0, # of connection points: 7
#     Edge 32, Type (0, 0), BuildingBlock: OJICUG_clean_linker_0, # of connection points: 2
#     Edge 33, Type (0, 0), BuildingBlock: OJICUG_clean_linker_0, # of connection points: 2
#     Edge 34, Type (0, 0), BuildingBlock: OJICUG_clean_linker_0, # of connection points: 2
#     Edge 35, Type (0, 0), BuildingBlock: OJICUG_clean_linker_0, # of connection points: 2
#     Edge 36, Type (0, 0), BuildingBlock: OJICUG_clean_linker_0, # of connection points: 2
#     Edge 37, Type (0, 0), BuildingBlock: OJICUG_clean_linker_0, # of connection points: 2
#     Edge 38, Type (0, 0), BuildingBlock: OJICUG_clean_linker_0, # of connection points: 2
#     Edge 39, Type (0, 0), BuildingBlock: OJICUG_clean_linker_0, # of connection points: 2
#     Edge 40, Type (0, 0), BuildingBlock: OJICUG_clean_linker_0, # of connection points: 2
#     Edge 41, Type (0, 0), BuildingBlock: OJICUG_clean_linker_0, # of connection points: 2
#     Edge 42, Type (0, 0), BuildingBlock: OJICUG_clean_linker_0, # of connection points: 2
#     Edge 43, Type (0, 0), BuildingBlock: OJICUG_clean_linker_0, # of connection points: 2
#     Edge 44, Type (0, 0), BuildingBlock: OJICUG_clean_linker_0, # of connection points: 2
#     Edge 45, Type (0, 0), BuildingBlock: OJICUG_clean_linker_0, # of connection points: 2
#     Edge 46, Type (0, 0), BuildingBlock: OJICUG_clean_linker_0, # of connection points: 2
#     Edge 47, Type (0, 0), BuildingBlock: OJICUG_clean_linker_0, # of connection points: 2
#     Edge 48, Type (0, 0), BuildingBlock: OJICUG_clean_linker_0, # of connection points: 2
#     Edge 49, Type (0, 0), BuildingBlock: OJICUG_clean_linker_0, # of connection points: 2
#     Edge 50, Type (0, 0), BuildingBlock: OJICUG_clean_linker_0, # of connection points: 2
#     Edge 51, Type (0, 0), BuildingBlock: OJICUG_clean_linker_0, # of connection points: 2
#     Edge 52, Type (0, 0), BuildingBlock: OJICUG_clean_linker_0, # of connection points: 2
#     Edge 53, Type (0, 0), BuildingBlock: OJICUG_clean_linker_0, # of connection points: 2
#     Edge 54, Type (0, 0), BuildingBlock: OJICUG_clean_linker_0, # of connection points: 2
#     Edge 55, Type (0, 0), BuildingBlock: OJICUG_clean_linker_0, # of connection points: 2
#     Edge 56, Type (0, 0), BuildingBlock: OJICUG_clean_linker_0, # of connection points: 2
#     Edge 57, Type (0, 0), BuildingBlock: OJICUG_clean_linker_0, # of connection points: 2
#     Edge 58, Type (0, 0), BuildingBlock: OJICUG_clean_linker_0, # of connection points: 2
#     Edge 59, Type (0, 0), BuildingBlock: OJICUG_clean_linker_0, # of connection points: 2
#     Edge 60, Type (0, 0), BuildingBlock: OJICUG_clean_linker_0, # of connection points: 2
#     Edge 61, Type (0, 0), BuildingBlock: OJICUG_clean_linker_0, # of connection points: 2
#     Edge 62, Type (0, 0), BuildingBlock: OJICUG_clean_linker_0, # of connection points: 2
#     Edge 63, Type (0, 0), BuildingBlock: OJICUG_clean_linker_0, # of connection points: 2
#     Edge 64, Type (0, 0), BuildingBlock: OJICUG_clean_linker_0, # of connection points: 2
#     Edge 65, Type (0, 0), BuildingBlock: OJICUG_clean_linker_0, # of connection points: 2
#     Edge 66, Type (0, 0), BuildingBlock: OJICUG_clean_linker_0, # of connection points: 2
#     Edge 67, Type (0, 0), BuildingBlock: OJICUG_clean_linker_0, # of connection points: 2
#     Edge 68, Type (0, 0), BuildingBlock: OJICUG_clean_linker_0, # of connection points: 2
#     Edge 69, Type (0, 0), BuildingBlock: OJICUG_clean_linker_0, # of connection points: 2
#     Edge 70, Type (0, 0), BuildingBlock: OJICUG_clean_linker_0, # of connection points: 2
#     Edge 71, Type (0, 0), BuildingBlock: OJICUG_clean_linker_0, # of connection points: 2
#     Edge 72, Type (0, 0), BuildingBlock: OJICUG_clean_linker_0, # of connection points: 2
#     Edge 73, Type (0, 0), BuildingBlock: OJICUG_clean_linker_0, # of connection points: 2
#     Edge 74, Type (0, 0), BuildingBlock: OJICUG_clean_linker_0, # of connection points: 2
#     Edge 75, Type (0, 0), BuildingBlock: OJICUG_clean_linker_0, # of connection points: 2
#     Edge 76, Type (0, 0), BuildingBlock: OJICUG_clean_linker_0, # of connection points: 2
#     Edge 77, Type (0, 0), BuildingBlock: OJICUG_clean_linker_0, # of connection points: 2
#     Edge 78, Type (0, 0), BuildingBlock: OJICUG_clean_linker_0, # of connection points: 2
#     Edge 79, Type (0, 0), BuildingBlock: OJICUG_clean_linker_0, # of connection points: 2
#     Edge 80, Type (0, 0), BuildingBlock: OJICUG_clean_linker_0, # of connection points: 2
#     Edge 81, Type (0, 0), BuildingBlock: OJICUG_clean_linker_0, # of connection points: 2
#     Edge 82, Type (0, 0), BuildingBlock: OJICUG_clean_linker_0, # of connection points: 2
#     Edge 83, Type (0, 0), BuildingBlock: OJICUG_clean_linker_0, # of connection points: 2
#     Edge 84, Type (0, 0), BuildingBlock: OJICUG_clean_linker_0, # of connection points: 2
#     Edge 85, Type (0, 0), BuildingBlock: OJICUG_clean_linker_0, # of connection points: 2
#     Edge 86, Type (0, 0), BuildingBlock: OJICUG_clean_linker_0, # of connection points: 2
#     Edge 87, Type (0, 0), BuildingBlock: OJICUG_clean_linker_0, # of connection points: 2
#     Edge 88, Type (0, 0), BuildingBlock: OJICUG_clean_linker_0, # of connection points: 2
#     Edge 89, Type (0, 0), BuildingBlock: OJICUG_clean_linker_0, # of connection points: 2
#     Edge 90, Type (0, 0), BuildingBlock: OJICUG_clean_linker_0, # of connection points: 2
#     Edge 91, Type (0, 0), BuildingBlock: OJICUG_clean_linker_0, # of connection points: 2
#     Edge 92, Type (0, 0), BuildingBlock: OJICUG_clean_linker_0, # of connection points: 2
#     Edge 93, Type (0, 0), BuildingBlock: OJICUG_clean_linker_0, # of connection points: 2
#     Edge 94, Type (0, 0), BuildingBlock: OJICUG_clean_linker_0, # of connection points: 2
#     Edge 95, Type (0, 0), BuildingBlock: OJICUG_clean_linker_0, # of connection points: 2
#     Edge 96, Type (0, 0), BuildingBlock: OJICUG_clean_linker_0, # of connection points: 2
#     Edge 97, Type (0, 0), BuildingBlock: OJICUG_clean_linker_0, # of connection points: 2
#     Edge 98, Type (0, 0), BuildingBlock: OJICUG_clean_linker_0, # of connection points: 2
#     Edge 99, Type (0, 0), BuildingBlock: OJICUG_clean_linker_0, # of connection points: 2
#     Edge 100, Type (0, 0), BuildingBlock: OJICUG_clean_linker_0, # of connection points: 2
#     Edge 101, Type (0, 0), BuildingBlock: OJICUG_clean_linker_0, # of connection points: 2
#     Edge 102, Type (0, 0), BuildingBlock: OJICUG_clean_linker_0, # of connection points: 2
#     Edge 103, Type (0, 0), BuildingBlock: OJICUG_clean_linker_0, # of connection points: 2
#     Edge 104, Type (0, 0), BuildingBlock: OJICUG_clean_linker_0, # of connection points: 2
#     Edge 105, Type (0, 0), BuildingBlock: OJICUG_clean_linker_0, # of connection points: 2
#     Edge 106, Type (0, 0), BuildingBlock: OJICUG_clean_linker_0, # of connection points: 2
#     Edge 107, Type (0, 0), BuildingBlock: OJICUG_clean_linker_0, # of connection points: 2
#     Edge 108, Type (0, 0), BuildingBlock: OJICUG_clean_linker_0, # of connection points: 2
#     Edge 109, Type (0, 0), BuildingBlock: OJICUG_clean_linker_0, # of connection points: 2
#     Edge 110, Type (0, 0), BuildingBlock: OJICUG_clean_linker_0, # of connection points: 2
#     Edge 111, Type (0, 0), BuildingBlock: OJICUG_clean_linker_0, # of connection points: 2
#     Edge 112, Type (0, 0), BuildingBlock: OJICUG_clean_linker_0, # of connection points: 2
#     Edge 113, Type (0, 0), BuildingBlock: OJICUG_clean_linker_0, # of connection points: 2
#     Edge 114, Type (0, 0), BuildingBlock: OJICUG_clean_linker_0, # of connection points: 2
#     Edge 115, Type (0, 0), BuildingBlock: OJICUG_clean_linker_0, # of connection points: 2
#     Edge 116, Type (0, 0), BuildingBlock: OJICUG_clean_linker_0, # of connection points: 2
#     Edge 117, Type (0, 0), BuildingBlock: OJICUG_clean_linker_0, # of connection points: 2
#     Edge 118, Type (0, 0), BuildingBlock: OJICUG_clean_linker_0, # of connection points: 2
#     Edge 119, Type (0, 0), BuildingBlock: OJICUG_clean_linker_0, # of connection points: 2
#     Edge 120, Type (0, 0), BuildingBlock: OJICUG_clean_linker_0, # of connection points: 2
#     Edge 121, Type (0, 0), BuildingBlock: OJICUG_clean_linker_0, # of connection points: 2
#     Edge 122, Type (0, 0), BuildingBlock: OJICUG_clean_linker_0, # of connection points: 2
#     Edge 123, Type (0, 0), BuildingBlock: OJICUG_clean_linker_0, # of connection points: 2
#     Edge 124, Type (0, 0), BuildingBlock: OJICUG_clean_linker_0, # of connection points: 2
#     Edge 125, Type (0, 0), BuildingBlock: OJICUG_clean_linker_0, # of connection points: 2
#     Edge 126, Type (0, 0), BuildingBlock: OJICUG_clean_linker_0, # of connection points: 2
#     Edge 127, Type (0, 0), BuildingBlock: OJICUG_clean_linker_0, # of connection points: 2
#     Edge 128, Type (0, 0), BuildingBlock: OJICUG_clean_linker_0, # of connection points: 2
#     Edge 129, Type (0, 0), BuildingBlock: OJICUG_clean_linker_0, # of connection points: 2
#     Edge 130, Type (0, 0), BuildingBlock: OJICUG_clean_linker_0, # of connection points: 2
#     Edge 131, Type (0, 0), BuildingBlock: OJICUG_clean_linker_0, # of connection points: 2
#     Edge 132, Type (0, 0), BuildingBlock: OJICUG_clean_linker_0, # of connection points: 2
#     Edge 133, Type (0, 0), BuildingBlock: OJICUG_clean_linker_0, # of connection points: 2
#     Edge 134, Type (0, 0), BuildingBlock: OJICUG_clean_linker_0, # of connection points: 2
#     Edge 135, Type (0, 0), BuildingBlock: OJICUG_clean_linker_0, # of connection points: 2
#     Edge 136, Type (0, 0), BuildingBlock: OJICUG_clean_linker_0, # of connection points: 2
#     Edge 137, Type (0, 0), BuildingBlock: OJICUG_clean_linker_0, # of connection points: 2
#     Edge 138, Type (0, 0), BuildingBlock: OJICUG_clean_linker_0, # of connection points: 2
#     Edge 139, Type (0, 0), BuildingBlock: OJICUG_clean_linker_0, # of connection points: 2
#     Edge 140, Type (0, 0), BuildingBlock: OJICUG_clean_linker_0, # of connection points: 2
#     Edge 141, Type (0, 0), BuildingBlock: OJICUG_clean_linker_0, # of connection points: 2
#     Edge 142, Type (0, 0), BuildingBlock: OJICUG_clean_linker_0, # of connection points: 2
#     Edge 143, Type (0, 0), BuildingBlock: OJICUG_clean_linker_0, # of connection points: 2
# Relax obj value: 0.280
# Max RMSD: 0.225
# Mean RMSD: 0.225
data_MOF--net-xfr--node1-HICVOG_clean_sbu_0--edge1-OJICUG_clean_linker_0
_symmetry_space_group_name_H-M    P1
_symmetry_Int_Tables_number       1
_symmetry_cell_setting            triclinic
loop_
_symmetry_equiv_pos_as_xyz
'x, y, z'
_cell_length_a     21.93505
_cell_length_b     21.948062
_cell_length_c     124.43742
_cell_angle_alpha  89.960508
_cell_angle_beta   90.026488
_cell_angle_gamma 90.012331
loop_
_atom_site_label
_atom_site_type_symbol
_atom_site_fract_x
_atom_site_fract_y
_atom_site_fract_z
_atom_type_partial_charge
Zn0 Zn 0.27292 0.18204 0.2012 0.0
C1 C 0.40228 0.2668 0.21934 0.0
N2 N 0.37856 0.3195 0.21599 0.0
C3 C 0.32849 0.30266 0.21055 0.0
N4 N 0.32214 0.24022 0.2103 0.0
N5 N 0.36773 0.21879 0.21627 0.0
C6 C 0.47488 0.08054 0.21561 0.0
O7 O 0.43978 0.08538 0.2071 0.0
O8 O 0.18594 0.18009 0.20571 0.0
Zn9 Zn 0.37359 0.13951 0.22393 0.0
N10 N 0.27725 0.20415 0.1859 0.0
C11 C 0.32346 0.26286 0.17205 0.0
C12 C 0.31755 0.24785 0.18287 0.0
C13 C 0.24323 0.17367 0.17841 0.0
N14 N 0.28993 0.23252 0.16461 0.0
C15 C 0.2499 0.18763 0.16734 0.0
O16 O 0.33173 0.06492 0.21763 0.0
C17 C 0.30879 0.04795 0.20873 0.0
O18 O 0.29217 0.0874 0.20172 0.0
H19 H 0.34558 0.27031 0.18879 0.0
H20 H 0.21177 0.13912 0.18114 0.0
C21 C 0.35837 0.10693 0.24664 0.0
C22 C 0.33981 0.11761 0.25738 0.0
C23 C 0.30035 0.2138 0.25196 0.0
C24 C 0.31817 0.20271 0.24141 0.0
N25 N 0.34723 0.14991 0.23891 0.0
N26 N 0.31152 0.17133 0.25964 0.0
H27 H 0.38209 0.06562 0.24443 0.0
C28 C 0.17689 0.14973 0.21427 0.0
O29 O 0.22272 0.14175 0.22092 0.0
O30 O 0.45976 0.10836 0.22417 0.0
H31 H 0.30909 0.23622 0.23525 0.0
H32 H 0.35518 0.29785 0.16954 0.0
H33 H 0.27756 0.25587 0.25405 0.0
Zn34 Zn 0.13031 1.0236 0.45055 0.0
C35 C 0.03743 0.14857 0.4685 0.0
N36 N 0.98722 0.11833 0.46562 0.0
C37 C 1.00788 0.07032 0.46016 0.0
N38 N 0.07054 0.07046 0.45959 0.0
N39 N 0.08852 0.11866 0.46532 0.0
C40 C 0.22019 0.232 0.46429 0.0
O41 O 0.21391 0.19763 0.45572 0.0
O42 O 0.13322 0.93656 0.45494 0.0
Zn43 Zn 0.16789 0.12804 0.473 0.0
N44 N 0.10868 1.02845 0.43529 0.0
C45 C 0.05108 0.07553 0.42139 0.0
C46 C 0.06562 0.06934 0.43222 0.0
C47 C 0.13897 0.99412 0.42785 0.0
N48 N 0.08129 0.04168 0.41398 0.0
C49 C 0.12556 1.00107 0.41677 0.0
O50 O 0.24476 0.08913 0.46673 0.0
C51 C 0.26293 0.06378 0.45812 0.0
O52 O 0.22426 0.04397 0.45125 0.0
H53 H 0.04334 0.09756 0.43814 0.0
H54 H 0.17297 0.96217 0.43063 0.0
C55 C 0.20205 0.11132 0.49572 0.0
C56 C 0.1918 0.09155 0.50642 0.0
C57 C 0.09537 0.0526 0.50101 0.0
C58 C 0.10605 0.07149 0.4905 0.0
N59 N 0.15868 0.10101 0.48802 0.0
N60 N 0.13815 0.063 0.50866 0.0
H61 H 0.24338 0.13517 0.49354 0.0
C62 C 0.16319 0.92778 0.46355 0.0
O63 O 0.17136 0.97389 0.47012 0.0
O64 O 0.19581 0.21487 0.47304 0.0
H65 H 0.07237 0.06266 0.48437 0.0
H66 H 1.01659 0.10769 0.41885 0.0
H67 H 0.05342 1.02948 0.50307 0.0
Zn68 Zn 0.28993 0.88363 0.70086 0.0
C69 C 0.16498 0.79045 0.71884 0.0
N70 N 0.1955 0.74035 0.71603 0.0
C71 C 0.24363 0.76104 0.71059 0.0
N72 N 0.2433 0.82367 0.70997 0.0
N73 N 0.19487 0.84155 0.71565 0.0
C74 C 0.08176 0.97325 0.71433 0.0
O75 O 0.11687 0.9671 0.70585 0.0
O76 O 0.3772 0.8863 0.70514 0.0
Zn77 Zn 0.18494 0.92076 0.72333 0.0
N78 N 0.28467 0.86223 0.68557 0.0
C79 C 0.23722 0.80421 0.67177 0.0
C80 C 0.24371 0.81907 0.68258 0.0
C81 C 0.31888 0.89226 0.67805 0.0
N82 N 0.27096 0.83411 0.6643 0.0
C83 C 0.31172 0.87842 0.66699 0.0
O84 O 0.22471 0.99765 0.71721 0.0
C85 C 0.25011 1.01608 0.70861 0.0
O86 O 0.26973 0.97764 0.70168 0.0
H87 H 0.21572 0.79686 0.68855 0.0
H88 H 0.35097 0.92631 0.68076 0.0
C89 C 0.19844 0.95396 0.74619 0.0
C90 C 0.21678 0.94321 0.75697 0.0
C91 C 0.25725 0.84749 0.75156 0.0
C92 C 0.2398 0.85869 0.74098 0.0
N93 N 0.21019 0.91117 0.73846 0.0
N94 N 0.24543 0.88968 0.75923 0.0
H95 H 0.17458 0.99521 0.74398 0.0
C96 C 0.38649 0.91631 0.71372 0.0
O97 O 0.34072 0.92455 0.72037 0.0
O98 O 0.09814 0.94874 0.72311 0.0
H99 H 0.24979 0.82548 0.73484 0.0
H100 H 0.20497 0.76964 0.6693 0.0
H101 H 0.28041 0.80562 0.75365 0.0
Zn102 Zn 0.39016 0.93458 0.97361 0.0
C103 C 0.55305 0.98087 0.96033 0.0
N104 N 0.57035 0.93095 0.96576 0.0
C105 C 0.5178 0.90653 0.96904 0.0
N106 N 0.46942 0.94045 0.96592 0.0
N107 N 0.49045 0.98632 0.95998 0.0
C108 C 0.39879 0.12959 0.96447 0.0
O109 O 0.38909 0.08282 0.97084 0.0
O110 O 0.36011 0.84803 0.97432 0.0
Zn111 Zn 0.43131 0.03483 0.95094 0.0
N112 N 0.4003 0.96415 0.9884 0.0
C113 C 0.46402 1.01431 1.00111 0.0
C114 C 0.45299 0.99404 0.9907 0.0
C115 C 0.35737 0.95453 0.99619 0.0
N116 N 0.42162 1.00459 1.00886 0.0
C117 C 0.36803 0.97549 1.0068 0.0
O118 O 0.33682 1.01312 0.95116 0.0
C119 C 0.29738 0.99552 0.9581 0.0
O120 O 0.3146 0.97364 0.96707 0.0
H121 H 0.48646 1.00195 0.98448 0.0
H122 H 0.31613 0.93012 0.99415 0.0
C123 C 0.42334 0.06633 0.92823 0.0
C124 C 0.43765 0.06062 0.91716 0.0
C125 C 0.51416 0.98822 0.9218 0.0
C126 C 0.49872 0.99309 0.93261 0.0
N127 N 0.45425 0.0324 0.93568 0.0
N128 N 0.48337 1.02164 0.91439 0.0
H129 H 0.38808 0.09687 0.931 0.0
C130 C 0.33261 0.83154 0.9658 0.0
O131 O 0.33794 0.8652 0.95712 0.0
O132 O 0.42808 0.12112 0.95579 0.0
H133 H 0.52138 0.96495 0.93849 0.0
H134 H 0.50598 0.0378 1.00304 0.0
H135 H 0.54977 0.95731 0.91927 0.0
Zn136 Zn 0.38161 0.91783 0.32592 0.0
C137 C 0.32159 0.75812 0.33849 0.0
N138 N 0.36979 0.73713 0.33311 0.0
C139 C 0.40089 0.78703 0.33036 0.0
N140 N 0.37146 0.83835 0.33356 0.0
N141 N 0.32263 0.8208 0.33917 0.0
C142 C 0.18076 0.91448 0.33497 0.0
O143 O 0.22734 0.92505 0.3286 0.0
O144 O 0.46882 0.9449 0.32573 0.0
Zn145 Zn 0.27647 0.88148 0.3482 0.0
N146 N 0.35335 0.90912 0.31098 0.0
C147 C 0.3031 0.84652 0.29811 0.0
C148 C 0.32295 0.85692 0.30857 0.0
C149 C 0.3636 0.95238 0.30326 0.0
N150 N 0.31347 0.88917 0.29044 0.0
C151 C 0.34288 0.94241 0.29261 0.0
O152 O 0.29849 0.97554 0.3477 0.0
C153 C 0.31945 1.01402 0.3409 0.0
O154 O 0.34449 0.99541 0.33228 0.0
H155 H 0.31413 0.82334 0.31471 0.0
H156 H 0.38812 0.99339 0.30538 0.0
C157 C 0.24659 0.88917 0.37097 0.0
C158 C 0.25356 0.87472 0.382 0.0
C159 C 0.32724 0.79998 0.3772 0.0
C160 C 0.32071 0.81509 0.36639 0.0
N161 N 0.2803 0.85887 0.36343 0.0
N162 N 0.29399 0.83014 0.38469 0.0
H163 H 0.21647 0.92531 0.36838 0.0
C164 C 0.48641 0.96869 0.33451 0.0
O165 O 0.45257 0.96152 0.34312 0.0
O166 O 0.18973 0.88497 0.34362 0.0
H167 H 0.3486 0.79293 0.36041 0.0
H168 H 0.27927 0.80491 0.29609 0.0
H169 H 0.35925 0.76513 0.37964 0.0
Zn170 Zn 0.38993 0.12391 0.57511 0.0
C171 C 0.55341 0.07912 0.5885 0.0
N172 N 0.57022 0.1291 0.58304 0.0
C173 C 0.51748 0.15269 0.57966 0.0
N174 N 0.46948 0.11804 0.58273 0.0
N175 N 0.49095 0.07266 0.58874 0.0
C176 C 0.4009 0.92757 0.58501 0.0
O177 O 0.39314 0.97319 0.57831 0.0
O178 O 0.35864 0.21004 0.57491 0.0
Zn179 Zn 0.43291 1.02396 0.59796 0.0
N180 N 0.39995 0.09747 0.56011 0.0
C181 C 0.46382 0.05049 0.54706 0.0
C182 C 0.45283 0.06853 0.55761 0.0
C183 C 0.35678 0.10827 0.55239 0.0
N184 N 0.42118 0.06134 0.5394 0.0
C185 C 0.36737 0.0895 0.54165 0.0
O186 O 0.33826 0.04307 0.59742 0.0
C187 C 0.2987 0.05932 0.5904 0.0
O188 O 0.31551 0.08195 0.58147 0.0
H189 H 0.48648 0.05968 0.56375 0.0
H190 H 0.31539 0.13188 0.5546 0.0
C191 C 0.42448 0.99611 0.62084 0.0
C192 C 0.43854 1.00388 0.63188 0.0
C193 C 0.51365 0.07702 0.62696 0.0
C194 C 0.49893 0.0697 0.61615 0.0
N195 N 0.45515 1.02918 0.61324 0.0
N196 N 0.48315 0.04441 0.63451 0.0
H197 H 0.38837 0.96584 0.61829 0.0
C198 C 0.33096 0.22513 0.58348 0.0
O199 O 0.33591 0.19 0.59199 0.0
O200 O 0.43101 0.93684 0.59358 0.0
H201 H 0.52143 0.09711 0.61015 0.0
H202 H 0.50595 1.02779 0.54497 0.0
H203 H 0.5485 0.10913 0.62936 0.0
Zn204 Zn 0.18092 0.1407 0.8259 0.0
C205 C 0.24118 0.30047 0.83847 0.0
N206 N 0.19341 0.3215 0.83297 0.0
C207 C 0.16221 0.27167 0.83021 0.0
N208 N 0.19132 0.22031 0.8335 0.0
N209 N 0.23986 0.23781 0.83921 0.0
C210 C 0.38128 0.14425 0.83512 0.0
O211 O 0.33471 0.13419 0.82872 0.0
O212 O 0.09368 0.11373 0.8258 0.0
Zn213 Zn 0.28556 0.17711 0.84834 0.0
N214 N 0.20833 0.14921 0.81088 0.0
C215 C 0.25857 0.21162 0.79796 0.0
C216 C 0.23946 0.20098 0.80846 0.0
C217 C 0.19663 0.10658 0.80311 0.0
N218 N 0.24677 0.16961 0.79025 0.0
C219 C 0.2166 0.11677 0.79241 0.0
O220 O 0.2632 0.08316 0.84783 0.0
C221 C 0.2427 0.04464 0.84099 0.0
O222 O 0.21821 0.06315 0.83231 0.0
H223 H 0.24937 0.23407 0.81463 0.0
H224 H 0.17153 0.0659 0.80524 0.0
C225 C 0.31543 0.16996 0.87117 0.0
C226 C 0.30814 0.18451 0.88218 0.0
C227 C 0.23376 0.25839 0.87727 0.0
C228 C 0.24064 0.2432 0.86648 0.0
N229 N 0.28152 0.19978 0.86358 0.0
N230 N 0.26719 0.2287 0.88482 0.0
H231 H 0.34599 0.1341 0.86863 0.0
C232 C 0.07608 0.08976 0.83455 0.0
O233 O 0.10999 0.09657 0.84318 0.0
O234 O 0.37236 0.17326 0.84381 0.0
H235 H 0.21265 0.26502 0.86046 0.0
H236 H 0.28296 0.25292 0.79595 0.0
H237 H 0.20135 0.29295 0.87967 0.0
Zn238 Zn 0.17289 0.9397 0.07553 0.0
C239 C 1.00991 0.98416 0.08897 0.0
N240 N 0.99298 0.9342 0.08352 0.0
C241 C 0.04567 0.9106 0.08015 0.0
N242 N 0.09376 0.94506 0.08323 0.0
N243 N 0.07238 0.99056 0.08921 0.0
C244 C 0.1623 0.13574 0.08534 0.0
O245 O 0.16997 0.09004 0.07866 0.0
O246 O 0.20429 0.85365 0.07516 0.0
Zn247 Zn 0.13057 0.03951 0.09836 0.0
N248 N 0.16203 0.96719 0.06063 0.0
C249 C 0.09756 1.01486 0.04774 0.0
C250 C 0.10897 0.99613 0.05824 0.0
C251 C 0.20498 0.95708 0.05287 0.0
N252 N 0.13999 1.00467 0.04002 0.0
C253 C 0.19396 0.97654 0.04218 0.0
O254 O 0.22535 1.02062 0.0978 0.0
C255 C 0.26465 1.00419 0.09075 0.0
O256 O 0.24748 0.98134 0.08187 0.0
H257 H 0.0755 1.00447 0.06443 0.0
H258 H 0.24653 0.93346 0.055 0.0
C259 C 0.13876 0.06788 0.12124 0.0
C260 C 0.12463 0.06022 0.13228 0.0
C261 C 0.05008 0.98649 0.12738 0.0
C262 C 0.06483 0.99373 0.11658 0.0
N263 N 0.1084 0.03446 0.11365 0.0
N264 N 0.08028 1.01943 0.13492 0.0
H265 H 0.17468 0.09837 0.11869 0.0
C266 C 0.2322 0.83825 0.0837 0.0
O267 O 0.22727 0.87296 0.09225 0.0
O268 O 0.13227 0.12659 0.09392 0.0
H269 H 0.04251 0.96611 0.11058 0.0
H270 H 0.05529 0.03757 0.04573 0.0
H271 H 1.01541 0.95419 0.1298 0.0
Zn272 Zn 0.78739 0.87833 0.84776 0.0
C273 C 0.65831 0.79412 0.8295 0.0
N274 N 0.68192 0.74134 0.83285 0.0
C275 C 0.73194 0.75801 0.83831 0.0
N276 N 0.73841 0.82043 0.83858 0.0
N277 N 0.69301 0.84203 0.83259 0.0
C278 C 0.58606 0.98051 0.83328 0.0
O279 O 0.62101 0.97548 0.8418 0.0
O280 O 0.87444 0.88044 0.8433 0.0
Zn281 Zn 0.68748 0.92161 0.82498 0.0
N282 N 0.78265 0.85572 0.86301 0.0
C283 C 0.73507 0.79732 0.87677 0.0
C284 C 0.74202 0.81212 0.86596 0.0
C285 C 0.81618 0.88613 0.87057 0.0
N286 N 0.76813 0.8276 0.88429 0.0
C287 C 0.80877 0.87202 0.88161 0.0
O288 O 0.72925 0.99602 0.83139 0.0
C289 C 0.75179 1.01264 0.84034 0.0
O290 O 0.76807 0.97293 0.84734 0.0
H291 H 0.7142 0.78987 0.85998 0.0
H292 H 0.8465 0.92213 0.86799 0.0
C293 C 0.7038 0.95491 0.80229 0.0
C294 C 0.72286 0.94444 0.79157 0.0
C295 C 0.76169 0.84795 0.79698 0.0
C296 C 0.74335 0.85883 0.80751 0.0
N297 N 0.71437 0.91168 0.81 0.0
N298 N 0.75107 0.89066 0.78932 0.0
H299 H 0.68014 0.99627 0.8045 0.0
C300 C 0.88352 0.91075 0.83474 0.0
O301 O 0.83773 0.91866 0.82808 0.0
O302 O 0.60132 0.95288 0.82471 0.0
H303 H 0.75199 0.82512 0.81366 0.0
H304 H 0.70287 0.76262 0.87921 0.0
H305 H 0.78443 0.80585 0.79489 0.0
Zn306 Zn 0.89031 0.93769 0.57527 0.0
C307 C 0.05349 0.98196 0.58867 0.0
N308 N 0.0703 0.93181 0.58327 0.0
C309 C 1.01754 0.90817 0.57992 0.0
N310 N 0.96954 0.94284 0.58296 0.0
N311 N 0.99104 0.98847 0.58889 0.0
C312 C 0.90083 0.13382 0.58497 0.0
O313 O 0.89273 0.08809 0.57831 0.0
O314 O 0.8589 0.85164 0.57486 0.0
Zn315 Zn 0.93303 0.03765 0.598 0.0
N316 N 0.90107 0.96551 0.56039 0.0
C317 C 0.96555 1.01316 0.54751 0.0
C318 C 0.95428 0.99417 0.55799 0.0
C319 C 0.85785 0.95595 0.55265 0.0
N320 N 0.92284 1.00352 0.53981 0.0
C321 C 0.86872 0.97569 0.54198 0.0
O322 O 0.83829 1.01865 0.59754 0.0
C323 C 0.79878 1.00211 0.59053 0.0
O324 O 0.81571 0.97923 0.58163 0.0
H325 H 0.98797 1.00207 0.56417 0.0
H326 H 0.81618 0.93256 0.55478 0.0
C327 C 0.92509 0.0665 0.62081 0.0
C328 C 0.93916 0.05912 0.63185 0.0
C329 C 1.01379 0.98534 0.62705 0.0
C330 C 0.99904 0.99227 0.61623 0.0
N331 N 0.95548 0.03291 0.61327 0.0
N332 N 0.98352 1.01846 0.63455 0.0
H333 H 0.88914 0.09685 0.61822 0.0
C334 C 0.83106 0.83627 0.5834 0.0
O335 O 0.83612 0.87097 0.59195 0.0
O336 O 0.93125 0.12467 0.59351 0.0
H337 H 1.02131 0.96443 0.61027 0.0
H338 H 1.00793 0.03565 0.54549 0.0
H339 H 0.04844 0.95313 0.6295 0.0
Zn340 Zn 0.87445 0.13764 0.32523 0.0
C341 C 0.83014 0.30081 0.33869 0.0
N342 N 0.88012 0.31765 0.33324 0.0
C343 C 0.90357 0.26498 0.32983 0.0
N344 N 0.8689 0.21698 0.33288 0.0
N345 N 0.82354 0.23839 0.3389 0.0
C346 C 0.67862 0.14806 0.33489 0.0
O347 O 0.72454 0.14035 0.32826 0.0
O348 O 0.96062 0.10643 0.3249 0.0
Zn349 Zn 0.77442 0.18029 0.34803 0.0
N350 N 0.84749 0.14809 0.31026 0.0
C351 C 0.79994 0.21224 0.2973 0.0
C352 C 0.81815 0.20085 0.30783 0.0
C353 C 0.85855 0.10541 0.30249 0.0
N354 N 0.81105 0.17009 0.28958 0.0
C355 C 0.83963 0.1164 0.29177 0.0
O356 O 0.79388 0.0857 0.34757 0.0
C357 C 0.81027 0.04618 0.34056 0.0
O358 O 0.83281 0.06305 0.33162 0.0
H359 H 0.80916 0.23414 0.31403 0.0
H360 H 0.88252 0.06411 0.30464 0.0
C361 C 0.74401 0.17274 0.37079 0.0
C362 C 0.75078 0.18657 0.38187 0.0
C363 C 0.82569 0.26055 0.37717 0.0
C364 C 0.81963 0.24564 0.36635 0.0
N365 N 0.77865 0.20261 0.36331 0.0
N366 N 0.7916 0.23077 0.3846 0.0
H367 H 0.71216 0.13867 0.36803 0.0
C368 C 0.97607 0.07844 0.33343 0.0
O369 O 0.94132 0.08311 0.34198 0.0
O370 O 0.6875 0.17816 0.34347 0.0
H371 H 0.84812 0.26759 0.36043 0.0
H372 H 0.77692 0.25428 0.29527 0.0
H373 H 0.85798 0.29499 0.37967 0.0
Zn374 Zn 0.63043 1.02568 0.09791 0.0
C375 C 0.5461 0.15445 0.07959 0.0
N376 N 0.49333 0.13092 0.08296 0.0
C377 C 0.51007 0.08102 0.08845 0.0
N378 N 0.57252 0.07455 0.08871 0.0
N379 N 0.59408 0.11983 0.08268 0.0
C380 C 0.73275 0.22666 0.08325 0.0
O381 O 0.72787 0.19191 0.0918 0.0
O382 O 0.63255 0.93865 0.09346 0.0
Zn383 Zn 0.67358 0.12512 0.07504 0.0
N384 N 0.60787 1.0306 0.11317 0.0
C385 C 0.54972 0.07869 0.12689 0.0
C386 C 0.56449 0.0715 0.11609 0.0
C387 C 0.6381 0.99704 0.12076 0.0
N388 N 0.57981 0.0456 0.13443 0.0
C389 C 0.62401 1.0047 0.13178 0.0
O390 O 0.74803 0.08345 0.08149 0.0
C391 C 0.7647 0.06114 0.09046 0.0
O392 O 0.72502 0.04504 0.09747 0.0
H393 H 0.54241 0.09934 0.11009 0.0
H394 H 0.67394 0.96649 0.1182 0.0
C395 C 0.70634 0.10851 0.05233 0.0
C396 C 0.69552 0.08928 0.04162 0.0
C397 C 0.59927 0.05027 0.04713 0.0
C398 C 0.61049 0.06878 0.05765 0.0
N399 N 0.66337 0.09793 0.06008 0.0
N400 N 0.64171 0.0609 0.03943 0.0
H401 H 0.74774 0.13231 0.05448 0.0
C402 C 0.66257 0.92961 0.08488 0.0
O403 O 0.67023 0.97539 0.07821 0.0
O404 O 0.70495 0.21121 0.0747 0.0
H405 H 0.57698 0.06014 0.06383 0.0
H406 H 0.5152 0.11111 0.1293 0.0
H407 H 0.55714 1.02739 0.0451 0.0
Zn408 Zn 0.79044 0.1817 0.70051 0.0
C409 C 0.66541 0.2747 0.71846 0.0
N410 N 0.69569 0.32486 0.71559 0.0
C411 C 0.74377 0.30423 0.71014 0.0
N412 N 0.74361 0.24158 0.70956 0.0
N413 N 0.69533 0.22363 0.71529 0.0
C414 C 0.58193 0.09199 0.71421 0.0
O415 O 0.61649 0.0982 0.70566 0.0
O416 O 0.87758 0.17898 0.70487 0.0
Zn417 Zn 0.68577 0.14434 0.72296 0.0
N418 N 0.78545 0.20324 0.68524 0.0
C419 C 0.73838 0.26105 0.67136 0.0
C420 C 0.74463 0.24641 0.68219 0.0
C421 C 0.81969 0.17296 0.67778 0.0
N422 N 0.77214 0.23087 0.66394 0.0
C423 C 0.8127 0.18651 0.6667 0.0
O424 O 0.72484 0.06749 0.71675 0.0
C425 C 0.75037 0.04915 0.70816 0.0
O426 O 0.77026 0.08767 0.70127 0.0
H427 H 0.71655 0.26874 0.68813 0.0
H428 H 0.85162 0.13889 0.68053 0.0
C429 C 0.70205 0.11014 0.74568 0.0
C430 C 0.72161 0.12029 0.7564 0.0
C431 C 0.76066 0.21673 0.75102 0.0
C432 C 0.74198 0.20613 0.7405 0.0
N433 N 0.71251 0.15355 0.73799 0.0
N434 N 0.75012 0.1739 0.75866 0.0
H435 H 0.67825 0.06885 0.74347 0.0
C436 C 0.88647 0.14898 0.71347 0.0
O437 O 0.84041 0.14082 0.72006 0.0
O438 O 0.59889 0.11647 0.72296 0.0
H439 H 0.75094 0.23985 0.73438 0.0
H440 H 0.70626 0.29562 0.66884 0.0
H441 H 0.78374 0.25864 0.75311 0.0
Zn442 Zn 0.67097 0.93659 0.47352 0.0
C443 C 0.50807 0.98336 0.46032 0.0
N444 N 0.49076 0.93352 0.46578 0.0
C445 C 0.54332 0.90896 0.46902 0.0
N446 N 0.59171 0.94271 0.46585 0.0
N447 N 0.57069 0.98861 0.45992 0.0
C448 C 0.66254 0.13178 0.46435 0.0
O449 O 0.67222 0.08505 0.47072 0.0
O450 O 0.70088 0.85001 0.4742 0.0
Zn451 Zn 0.62988 0.03698 0.45082 0.0
N452 N 0.66108 0.96592 0.48832 0.0
C453 C 0.59787 1.01606 0.5011 0.0
C454 C 0.6086 0.996 0.49066 0.0
C455 C 0.7041 0.95589 0.49609 0.0
N456 N 0.64036 1.00595 0.50881 0.0
C457 C 0.69376 0.97665 0.50671 0.0
O458 O 0.72444 1.01532 0.45107 0.0
C459 C 0.76377 0.99768 0.45804 0.0
O460 O 0.74644 0.97569 0.46699 0.0
H461 H 0.57505 1.00422 0.48446 0.0
H462 H 0.74516 0.93132 0.49401 0.0
C463 C 0.63789 0.06749 0.428 0.0
C464 C 0.62246 0.06185 0.41697 0.0
C465 C 0.54486 0.99118 0.42182 0.0
C466 C 0.56097 0.99633 0.43261 0.0
N467 N 0.60657 0.03468 0.43555 0.0
N468 N 0.57591 1.02359 0.41432 0.0
H469 H 0.67543 0.09589 0.43057 0.0
C470 C 0.72835 0.83355 0.46568 0.0
O471 O 0.72303 0.86725 0.45701 0.0
O472 O 0.63322 0.12327 0.45567 0.0
H473 H 0.53807 0.96892 0.43856 0.0
H474 H 0.55606 0.0397 0.50306 0.0
H475 H 0.50848 0.96087 0.4194 0.0
Zn476 Zn 0.87963 0.91923 0.22295 0.0
C477 C 0.81967 0.75978 0.21023 0.0
N478 N 0.8678 0.73864 0.21562 0.0
C479 C 0.89874 0.78848 0.21845 0.0
N480 N 0.86934 0.8399 0.21528 0.0
N481 N 0.82065 0.82248 0.20961 0.0
C482 C 0.67897 0.91593 0.21389 0.0
O483 O 0.72565 0.92609 0.22026 0.0
O484 O 0.96686 0.94635 0.22312 0.0
Zn485 Zn 0.77441 0.88336 0.2006 0.0
N486 N 0.8517 0.9102 0.23791 0.0
C487 C 0.80175 0.84716 0.25077 0.0
C488 C 0.82128 0.85796 0.2403 0.0
C489 C 0.86226 0.95313 0.24567 0.0
N490 N 0.81244 0.88947 0.25847 0.0
C491 C 0.84187 0.94275 0.25633 0.0
O492 O 0.79644 0.97741 0.20117 0.0
C493 C 0.81736 1.0157 0.20801 0.0
O494 O 0.84237 0.99688 0.21662 0.0
H495 H 0.81222 0.82463 0.23413 0.0
H496 H 0.88679 0.99419 0.24357 0.0
C497 C 0.74368 0.89165 0.17785 0.0
C498 C 0.74995 0.87747 0.16679 0.0
C499 C 0.82354 0.80221 0.17148 0.0
C500 C 0.81802 0.81746 0.1823 0.0
N501 N 0.7779 0.86127 0.18533 0.0
N502 N 0.78981 0.83246 0.16405 0.0
H503 H 0.71237 0.92629 0.18059 0.0
C504 C 0.98442 0.97059 0.21438 0.0
O505 O 0.95053 0.96391 0.20575 0.0
O506 O 0.68775 0.88676 0.20521 0.0
H507 H 0.84618 0.7951 0.18822 0.0
H508 H 0.77792 0.8055 0.25276 0.0
H509 H 0.8551 0.76712 0.16898 0.0
Zn510 Zn 0.89348 0.1258 0.9728 0.0
C511 C 0.05335 0.06808 0.9599 0.0
N512 N 0.0741 0.11616 0.96533 0.0
C513 C 1.02394 0.14625 0.96826 0.0
N514 N 0.9728 0.11622 0.96513 0.0
N515 N 0.99066 0.06806 0.95938 0.0
C516 C 0.8982 0.92541 0.96329 0.0
O517 O 0.8902 0.97148 0.96988 0.0
O518 O 0.86559 0.21263 0.9728 0.0
Zn519 Zn 0.93077 1.02131 0.95031 0.0
N520 N 0.90283 0.09908 0.98783 0.0
C521 C 0.9663 0.05084 1.00083 0.0
C522 C 0.95542 0.06949 0.99031 0.0
C523 C 0.85967 0.1097 0.99556 0.0
N524 N 0.92373 0.06156 1.00849 0.0
C525 C 0.87012 0.09019 1.00627 0.0
O526 O 0.83676 0.04154 0.95107 0.0
C527 C 0.79824 0.0613 0.95796 0.0
O528 O 0.81659 0.08669 0.96656 0.0
H529 H 0.98894 0.06042 0.98417 0.0
H530 H 0.81836 0.1336 0.99338 0.0
C531 C 0.92214 0.9919 0.92757 0.0
C532 C 0.93573 0.99886 0.9165 0.0
C533 C 1.01007 0.07341 0.92117 0.0
C534 C 0.99539 0.06719 0.932 0.0
N535 N 0.9523 1.02627 0.93504 0.0
N536 N 0.98001 0.03952 0.91374 0.0
H537 H 0.88813 0.95989 0.93033 0.0
C538 C 0.84094 0.22966 0.96406 0.0
O539 O 0.84694 0.19517 0.9555 0.0
O540 O 0.92802 0.93424 0.95468 0.0
H541 H 1.01762 0.09537 0.93793 0.0
H542 H 1.00823 1.02767 1.00289 0.0
H543 H 0.04459 0.10561 0.91865 0.0
Zn544 Zn 0.77708 0.68232 0.70109 0.0
C545 C 0.90512 0.76861 0.71927 0.0
N546 N 0.88048 0.82119 0.71606 0.0
C547 C 0.83057 0.80396 0.7106 0.0
N548 N 0.82535 0.74138 0.71019 0.0
N549 N 0.87131 0.72028 0.7161 0.0
C550 C 0.98034 0.5837 0.71592 0.0
O551 O 0.94659 0.58913 0.70725 0.0
O552 O 0.69056 0.67911 0.70584 0.0
Zn553 Zn 0.87728 0.64099 0.72376 0.0
N554 N 0.7803 0.70556 0.68585 0.0
C555 C 0.8263 0.76531 0.67209 0.0
C556 C 0.82001 0.75001 0.6829 0.0
C557 C 0.7471 0.67477 0.67829 0.0
N558 N 0.7936 0.73464 0.66458 0.0
C559 C 0.75391 0.68937 0.66726 0.0
O560 O 0.83821 0.56551 0.71722 0.0
C561 C 0.81623 0.54832 0.70827 0.0
O562 O 0.7986 0.58777 0.70132 0.0
H563 H 0.84767 0.7725 0.68887 0.0
H564 H 0.71757 0.63808 0.68085 0.0
C565 C 0.8575 0.60768 0.7463 0.0
C566 C 0.83652 0.61792 0.75691 0.0
C567 C 0.79749 0.71396 0.75132 0.0
C568 C 0.81776 0.70333 0.74089 0.0
N569 N 0.84777 0.65082 0.73855 0.0
N570 N 0.80731 0.67135 0.75903 0.0
H571 H 0.88199 0.5666 0.74422 0.0
C572 C 0.68191 0.64976 0.71451 0.0
O573 O 0.72857 0.64009 0.72091 0.0
O574 O 0.96391 0.61106 0.72444 0.0
H575 H 0.80977 0.73696 0.7347 0.0
H576 H 0.85777 0.80068 0.66966 0.0
H577 H 0.77392 0.75578 0.75328 0.0
Zn578 Zn 0.63273 0.5222 0.95094 0.0
C579 C 0.53959 0.64684 0.96893 0.0
N580 N 0.48948 0.61613 0.96615 0.0
C581 C 0.51022 0.56802 0.96073 0.0
N582 N 0.57287 0.56854 0.96008 0.0
N583 N 0.59073 0.61708 0.96573 0.0
C584 C 0.72241 0.73017 0.96431 0.0
O585 O 0.71615 0.69491 0.95585 0.0
O586 O 0.6354 0.4348 0.95512 0.0
Zn587 Zn 0.67003 0.62722 0.97339 0.0
N588 N 0.61107 0.52815 0.93566 0.0
C589 C 0.55352 0.57739 0.92197 0.0
C590 C 0.56812 0.5696 0.93277 0.0
C591 C 0.64091 0.49448 0.92805 0.0
N592 N 0.5832 0.54417 0.91441 0.0
C593 C 0.62687 0.5026 0.91703 0.0
O594 O 0.74688 0.58736 0.96729 0.0
C595 C 0.76527 0.56189 0.9587 0.0
O596 O 0.72679 0.54229 0.95178 0.0
H597 H 0.54613 0.59723 0.93881 0.0
H598 H 0.6763 0.46336 0.9306 0.0
C599 C 0.70361 0.61412 0.99623 0.0
C600 C 0.69315 0.5959 1.00701 0.0
C601 C 0.59724 0.55534 1.00168 0.0
C602 C 0.60817 0.57265 0.99109 0.0
N603 N 0.66062 0.60225 0.98852 0.0
N604 N 0.63965 0.56728 1.00932 0.0
H605 H 0.74483 0.63796 0.99397 0.0
C606 C 0.66552 0.42527 0.96368 0.0
O607 O 0.67385 0.47083 0.97037 0.0
O608 O 0.69801 0.71397 0.97311 0.0
H609 H 0.5748 0.56255 0.98497 0.0
H610 H 0.51935 0.61027 0.91958 0.0
H611 H 0.5554 0.5322 1.00381 0.0
Zn612 Zn 0.68111 0.41942 0.22307 0.0
C613 C 0.74077 0.25983 0.21039 0.0
N614 N 0.69275 0.23877 0.21581 0.0
C615 C 0.6618 0.28864 0.21862 0.0
N616 N 0.69116 0.34001 0.21541 0.0
N617 N 0.73977 0.32252 0.20973 0.0
C618 C 0.88139 0.41604 0.21401 0.0
O619 O 0.83471 0.42627 0.22037 0.0
O620 O 0.59389 0.44655 0.22329 0.0
Zn621 Zn 0.78594 0.38334 0.20071 0.0
N622 N 0.70945 0.41051 0.23802 0.0
C623 C 0.75983 0.34755 0.25084 0.0
C624 C 0.73998 0.35831 0.24039 0.0
C625 C 0.69907 0.45344 0.24579 0.0
N626 N 0.74932 0.38985 0.25855 0.0
C627 C 0.71978 0.44309 0.25643 0.0
O628 O 0.76381 0.47734 0.20123 0.0
C629 C 0.743 0.51573 0.20806 0.0
O630 O 0.71819 0.49705 0.21669 0.0
H631 H 0.74889 0.32499 0.23421 0.0
H632 H 0.67446 0.49447 0.2437 0.0
C633 C 0.81662 0.39163 0.17799 0.0
C634 C 0.81032 0.37756 0.16693 0.0
C635 C 0.7368 0.30216 0.17159 0.0
C636 C 0.74233 0.31733 0.18241 0.0
N637 N 0.78244 0.36115 0.18545 0.0
N638 N 0.77049 0.33253 0.16417 0.0
H639 H 0.84789 0.42628 0.18075 0.0
C640 C 0.57613 0.47061 0.21455 0.0
O641 O 0.60981 0.46376 0.2059 0.0
O642 O 0.87258 0.38685 0.20533 0.0
H643 H 0.71418 0.29493 0.18833 0.0
H644 H 0.78375 0.30593 0.25281 0.0
H645 H 0.70525 0.26706 0.16907 0.0
Zn646 Zn 0.92887 0.53682 0.45142 0.0
C647 C 1.0157 0.40827 0.46943 0.0
N648 N 0.0682 0.43318 0.46623 0.0
C649 C 0.05076 0.48333 0.46088 0.0
N650 N 0.98814 0.48843 0.46049 0.0
N651 N 0.96724 0.44215 0.46634 0.0
C652 C 0.83078 0.33311 0.46584 0.0
O653 O 0.83602 0.36777 0.45728 0.0
O654 O 0.92619 0.6233 0.45616 0.0
Zn655 Zn 0.88816 0.43533 0.47405 0.0
N656 N 0.95146 0.53374 0.43612 0.0
C657 C 1.01145 0.48867 0.42233 0.0
C658 C 0.99579 0.49408 0.43313 0.0
C659 C 0.92094 0.56759 0.4286 0.0
N660 N 0.98109 0.52203 0.41487 0.0
C661 C 0.93557 0.56143 0.41754 0.0
O662 O 0.81255 0.47528 0.4677 0.0
C663 C 0.79504 0.4977 0.45879 0.0
O664 O 0.83424 0.5155 0.45181 0.0
H665 H 1.01825 0.46613 0.43907 0.0
H666 H 0.88581 0.59848 0.4313 0.0
C667 C 0.856 0.45147 0.49677 0.0
C668 C 0.86687 0.47083 0.50746 0.0
C669 C 0.9623 0.51137 0.50186 0.0
C670 C 0.95102 0.49274 0.49136 0.0
N671 N 0.89853 0.46275 0.48898 0.0
N672 N 0.92029 0.50003 0.50961 0.0
H673 H 0.81489 0.42703 0.49465 0.0
C674 C 0.89674 0.63233 0.46481 0.0
O675 O 0.88672 0.58592 0.47124 0.0
O676 O 0.85821 0.34872 0.47442 0.0
H677 H 0.98417 0.50196 0.48515 0.0
H678 H 0.04694 0.45745 0.41987 0.0
H679 H 1.00414 0.5349 0.50386 0.0
Zn680 Zn 0.87351 0.42082 0.82543 0.0
C681 C 0.82886 0.25784 0.83887 0.0
N682 N 0.879 0.241 0.83346 0.0
C683 C 0.90264 0.29368 0.83009 0.0
N684 N 0.86803 0.3417 0.83314 0.0
N685 N 0.82237 0.32028 0.83908 0.0
C686 C 0.67696 0.41059 0.83508 0.0
O687 O 0.72276 0.41864 0.82843 0.0
O688 O 0.95963 0.45214 0.82508 0.0
Zn689 Zn 0.77305 0.37852 0.84815 0.0
N690 N 0.8461 0.41006 0.81053 0.0
C691 C 0.79884 0.34571 0.79759 0.0
C692 C 0.81754 0.35688 0.8081 0.0
C693 C 0.85586 0.45333 0.80281 0.0
N694 N 0.80867 0.38848 0.78991 0.0
C695 C 0.83642 0.44256 0.79212 0.0
O696 O 0.79199 0.47327 0.84761 0.0
C697 C 0.80875 0.51261 0.84059 0.0
O698 O 0.8319 0.49548 0.83173 0.0
H699 H 0.80948 0.32315 0.81426 0.0
H700 H 0.87918 0.49497 0.80498 0.0
C701 C 0.74374 0.38743 0.87093 0.0
C702 C 0.7504 0.37362 0.882 0.0
C703 C 0.82341 0.29784 0.87733 0.0
C704 C 0.81751 0.31271 0.8665 0.0
N705 N 0.77748 0.35662 0.86345 0.0
N706 N 0.79014 0.32851 0.88476 0.0
H707 H 0.71248 0.42215 0.86818 0.0
C708 C 0.97487 0.47995 0.83363 0.0
O709 O 0.94 0.4749 0.84216 0.0
O710 O 0.68605 0.38018 0.84363 0.0
H711 H 0.84534 0.28997 0.86059 0.0
H712 H 0.77643 0.30336 0.79554 0.0
H713 H 0.85491 0.26269 0.87985 0.0
Zn714 Zn 0.89244 0.63258 0.07578 0.0
C715 C 0.05231 0.57206 0.0883 0.0
N716 N 0.07338 0.61992 0.08283 0.0
C717 C 1.02352 0.65119 0.0801 0.0
N718 N 0.97213 0.62206 0.08337 0.0
N719 N 0.98963 0.57341 0.08904 0.0
C720 C 0.89603 0.43184 0.08496 0.0
O721 O 0.88567 0.47833 0.07855 0.0
O722 O 0.86543 0.71975 0.07572 0.0
Zn723 Zn 0.92897 0.52765 0.09815 0.0
N724 N 0.90086 0.60532 0.06075 0.0
C725 C 0.96317 0.55539 0.0478 0.0
C726 C 0.95273 0.57446 0.0583 0.0
C727 C 0.85794 0.6168 0.05301 0.0
N728 N 0.92087 0.56695 0.04012 0.0
C729 C 0.86793 0.59685 0.04232 0.0
O730 O 0.83501 0.54989 0.09764 0.0
C731 C 0.79643 0.57052 0.09082 0.0
O732 O 0.81489 0.59517 0.08215 0.0
H733 H 0.98604 0.5647 0.06446 0.0
H734 H 0.81718 0.64166 0.05517 0.0
C735 C 0.92146 0.49813 0.12097 0.0
C736 C 0.93593 0.50543 0.13199 0.0
C737 C 1.01044 0.57923 0.1271 0.0
C738 C 0.99531 0.57237 0.1163 0.0
N739 N 0.95162 0.53176 0.11339 0.0
N740 N 0.9804 0.54607 0.13463 0.0
H741 H 0.88538 0.46782 0.11842 0.0
C742 C 0.84159 0.73715 0.08449 0.0
O743 O 0.84857 0.70308 0.09309 0.0
O744 O 0.92522 0.44089 0.09364 0.0
H745 H 1.01736 0.60018 0.11029 0.0
H746 H 1.00455 0.53121 0.04577 0.0
H747 H 0.0452 0.61141 0.12951 0.0
Zn748 Zn 0.68919 0.63776 0.32536 0.0
C749 C 0.73393 0.8008 0.33882 0.0
N750 N 0.68404 0.81769 0.33334 0.0
C751 C 0.66045 0.76504 0.32995 0.0
N752 N 0.69495 0.717 0.33303 0.0
N753 N 0.74032 0.73835 0.33907 0.0
C754 C 0.88527 0.64815 0.33528 0.0
O755 O 0.83955 0.64082 0.32858 0.0
O756 O 0.603 0.60666 0.32508 0.0
Zn757 Zn 0.78896 0.68007 0.34829 0.0
N758 N 0.71574 0.64829 0.31038 0.0
C759 C 0.76292 0.71248 0.29739 0.0
C760 C 0.74505 0.70105 0.30794 0.0
C761 C 0.70441 0.60565 0.30261 0.0
N762 N 0.75154 0.67037 0.28968 0.0
C763 C 0.723 0.61667 0.29188 0.0
O764 O 0.76963 0.58545 0.34771 0.0
C765 C 0.75342 0.5461 0.34065 0.0
O766 O 0.73093 0.56317 0.33172 0.0
H767 H 0.75426 0.73431 0.31413 0.0
H768 H 0.68048 0.56434 0.30478 0.0
C769 C 0.81694 0.67186 0.37123 0.0
C770 C 0.80897 0.68606 0.38225 0.0
C771 C 0.73543 0.7606 0.37726 0.0
C772 C 0.74297 0.74579 0.36646 0.0
N773 N 0.78375 0.7022 0.36359 0.0
N774 N 0.76814 0.73043 0.38484 0.0
H775 H 0.84748 0.63594 0.36871 0.0
C776 C 0.5876 0.57879 0.33362 0.0
O777 O 0.62247 0.58351 0.34217 0.0
O778 O 0.87616 0.67792 0.34389 0.0
H779 H 0.71552 0.76808 0.36044 0.0
H780 H 0.78589 0.75454 0.29535 0.0
H781 H 0.70309 0.79529 0.37963 0.0
Zn782 Zn 0.67022 0.43096 0.57631 0.0
C783 C 0.51083 0.4911 0.58901 0.0
N784 N 0.48956 0.44288 0.58368 0.0
C785 C 0.53938 0.41193 0.58084 0.0
N786 N 0.5909 0.44135 0.58397 0.0
N787 N 0.57356 0.49015 0.5896 0.0
C788 C 0.66691 0.63183 0.58519 0.0
O789 O 0.6773 0.58511 0.57886 0.0
O790 O 0.69734 0.34378 0.57616 0.0
Zn791 Zn 0.63443 0.53656 0.59856 0.0
N792 N 0.66102 0.45881 0.56134 0.0
C793 C 0.59787 0.50865 0.54849 0.0
C794 C 0.60875 0.48922 0.55896 0.0
C795 C 0.70388 0.44816 0.55358 0.0
N796 N 0.64012 0.49787 0.54078 0.0
C797 C 0.69342 0.46845 0.54291 0.0
O798 O 0.72852 0.51458 0.59801 0.0
C799 C 0.76681 0.49349 0.59119 0.0
O800 O 0.74795 0.46828 0.5826 0.0
H801 H 0.57547 0.49835 0.56514 0.0
H802 H 0.74496 0.42364 0.55568 0.0
C803 C 0.6423 0.56777 0.62128 0.0
C804 C 0.62814 0.5615 0.63234 0.0
C805 C 0.55351 0.48719 0.62769 0.0
C806 C 0.56875 0.49272 0.61687 0.0
N807 N 0.61224 0.53319 0.61382 0.0
N808 N 0.58346 0.52127 0.6351 0.0
H809 H 0.67668 0.59933 0.61851 0.0
C810 C 0.72176 0.32629 0.58489 0.0
O811 O 0.71527 0.36021 0.59351 0.0
O812 O 0.63774 0.62309 0.59388 0.0
H813 H 0.54665 0.46429 0.61096 0.0
H814 H 0.55618 0.53247 0.5465 0.0
H815 H 0.51868 0.45535 0.63021 0.0
Zn816 Zn 0.18182 0.41754 0.32608 0.0
C817 C 0.24237 0.25802 0.33872 0.0
N818 N 0.19413 0.23686 0.33336 0.0
C819 C 0.16304 0.28668 0.33056 0.0
N820 N 0.19246 0.33812 0.33372 0.0
N821 N 0.24132 0.32072 0.33935 0.0
C822 C 0.38327 0.41429 0.33513 0.0
O823 O 0.33673 0.42467 0.32874 0.0
O824 O 0.09461 0.44473 0.32604 0.0
Zn825 Zn 0.28751 0.38162 0.34835 0.0
N826 N 0.20921 0.40871 0.31108 0.0
C827 C 0.25852 0.3459 0.29814 0.0
C828 C 0.23924 0.35638 0.30863 0.0
C829 C 0.19881 0.45203 0.30338 0.0
N830 N 0.24801 0.38862 0.29049 0.0
C831 C 0.21898 0.44199 0.2927 0.0
O832 O 0.26567 0.47568 0.34775 0.0
C833 C 0.24465 0.51398 0.34091 0.0
O834 O 0.21939 0.49516 0.33233 0.0
H835 H 0.24823 0.32276 0.31476 0.0
H836 H 0.17462 0.49316 0.30554 0.0
C837 C 0.31749 0.39041 0.3711 0.0
C838 C 0.31102 0.37633 0.38217 0.0
C839 C 0.23813 0.30043 0.37747 0.0
C840 C 0.24381 0.31558 0.36665 0.0
N841 N 0.2837 0.35966 0.36362 0.0
N842 N 0.27144 0.33105 0.38491 0.0
H843 H 0.34862 0.42526 0.36837 0.0
C844 C 0.07749 0.4688 0.33481 0.0
O845 O 0.11177 0.46188 0.34339 0.0
O846 O 0.37426 0.38492 0.34379 0.0
H847 H 0.21597 0.29294 0.36071 0.0
H848 H 0.28205 0.30418 0.29609 0.0
H849 H 0.20676 0.26513 0.37997 0.0
Zn850 Zn 0.39332 0.4322 0.07631 0.0
C851 C 0.55259 0.49306 0.08896 0.0
N852 N 0.57392 0.44475 0.08367 0.0
C853 C 0.52414 0.41366 0.08085 0.0
N854 N 0.47259 0.44304 0.08396 0.0
N855 N 0.48984 0.49199 0.08956 0.0
C856 C 0.39659 0.63395 0.08535 0.0
O857 O 0.38635 0.58749 0.07894 0.0
O858 O 0.36615 0.34503 0.0763 0.0
Zn859 Zn 0.42889 0.53809 0.09857 0.0
N860 N 0.40254 0.45925 0.06131 0.0
C861 C 0.46555 0.50838 0.04836 0.0
C862 C 0.45482 0.48947 0.05886 0.0
C863 C 0.35951 0.4483 0.05357 0.0
N864 N 0.42312 0.49733 0.04068 0.0
C865 C 0.3698 0.46811 0.04288 0.0
O866 O 0.33473 0.51636 0.0979 0.0
C867 C 0.29658 0.49532 0.09105 0.0
O868 O 0.31561 0.46993 0.08249 0.0
H869 H 0.48822 0.49886 0.06501 0.0
H870 H 0.31842 0.42396 0.05573 0.0
C871 C 0.4207 0.5673 0.12143 0.0
C872 C 0.43514 0.55991 0.13246 0.0
C873 C 0.50979 0.48632 0.12757 0.0
C874 C 0.49476 0.49331 0.11677 0.0
N875 N 0.45099 0.53383 0.11385 0.0
N876 N 0.47967 0.51931 0.1351 0.0
H877 H 0.38464 0.59761 0.11888 0.0
C878 C 0.34167 0.32799 0.08505 0.0
O879 O 0.34814 0.36236 0.09362 0.0
O880 O 0.42572 0.62488 0.09403 0.0
H881 H 0.51703 0.4657 0.11076 0.0
H882 H 0.50725 0.53204 0.04632 0.0
H883 H 0.54462 0.45419 0.12998 0.0
Zn884 Zn 0.38014 0.64161 0.82639 0.0
C885 C 0.31976 0.80078 0.83913 0.0
N886 N 0.36803 0.82207 0.8338 0.0
C887 C 0.39896 0.7723 0.83095 0.0
N888 N 0.36953 0.72079 0.83407 0.0
N889 N 0.32071 0.73805 0.83971 0.0
C890 C 0.1789 0.64473 0.83539 0.0
O891 O 0.22554 0.63467 0.82902 0.0
O892 O 0.46738 0.61449 0.82629 0.0
Zn893 Zn 0.27447 0.67699 0.84869 0.0
N894 N 0.35268 0.65094 0.81141 0.0
C895 C 0.30313 0.7141 0.79852 0.0
C896 C 0.32228 0.70317 0.80901 0.0
C897 C 0.36359 0.60816 0.80364 0.0
N898 N 0.31416 0.67193 0.79081 0.0
C899 C 0.34356 0.61866 0.79296 0.0
O900 O 0.29633 0.58289 0.84805 0.0
C901 C 0.31736 0.54479 0.84119 0.0
O902 O 0.34262 0.56385 0.83262 0.0
H903 H 0.31295 0.73638 0.81519 0.0
H904 H 0.38809 0.56711 0.80576 0.0
C905 C 0.24421 0.66853 0.87149 0.0
C906 C 0.25081 0.68275 0.88255 0.0
C907 C 0.32437 0.75791 0.8778 0.0
C908 C 0.3185 0.74267 0.86699 0.0
N909 N 0.27825 0.69887 0.86399 0.0
N910 N 0.29082 0.72771 0.88525 0.0
H911 H 0.21279 0.6339 0.86878 0.0
C912 C 0.48468 0.58989 0.83502 0.0
O913 O 0.45056 0.59622 0.84362 0.0
O914 O 0.18776 0.67374 0.84409 0.0
H915 H 0.34648 0.76505 0.86104 0.0
H916 H 0.27933 0.75576 0.79652 0.0
H917 H 0.35605 0.79298 0.88027 0.0
Zn918 Zn 0.13457 0.5257 0.59858 0.0
C919 C 0.0397 0.64882 0.58044 0.0
N920 N 0.9899 0.61759 0.58321 0.0
C921 C 1.01106 0.56989 0.58871 0.0
N922 N 0.07375 0.57136 0.58945 0.0
N923 N 0.09116 0.61991 0.58374 0.0
C924 C 0.22188 0.73503 0.58482 0.0
O925 O 0.21524 0.70096 0.59343 0.0
O926 O 0.13833 0.43888 0.5941 0.0
Zn927 Zn 0.17068 0.63046 0.57612 0.0
N928 N 0.11217 0.52999 0.61386 0.0
C929 C 0.05319 0.57766 0.62751 0.0
C930 C 0.06839 0.57056 0.61672 0.0
C931 C 0.14233 0.49658 0.62148 0.0
N932 N 0.0832 0.54473 0.63509 0.0
C933 C 0.12775 0.50409 0.63249 0.0
O934 O 0.24825 0.59294 0.58245 0.0
C935 C 0.26694 0.5684 0.59112 0.0
O936 O 0.22855 0.54794 0.59799 0.0
H937 H 0.04628 0.59814 0.61069 0.0
H938 H 0.17843 0.46623 0.61896 0.0
C939 C 0.20462 0.61541 0.55331 0.0
C940 C 0.19442 0.59571 0.54261 0.0
C941 C 0.09958 0.55352 0.54813 0.0
C942 C 0.11023 0.57234 0.55864 0.0
N943 N 0.162 0.60346 0.56108 0.0
N944 N 0.14158 0.56556 0.54043 0.0
H945 H 0.2453 0.64048 0.55546 0.0
C946 C 0.16721 0.42989 0.58539 0.0
O947 O 0.17711 0.47637 0.57896 0.0
O948 O 0.19773 0.71763 0.57607 0.0
H949 H 0.07717 0.56223 0.56482 0.0
H950 H 1.01835 0.60983 0.62988 0.0
H951 H 0.05827 0.52915 0.54611 0.0
Zn952 Zn 0.28752 0.68209 0.20132 0.0
C953 C 0.15822 0.76669 0.21946 0.0
N954 N 0.18189 0.81941 0.21611 0.0
C955 C 0.23195 0.80263 0.21067 0.0
N956 N 0.23836 0.74019 0.21042 0.0
N957 N 0.19282 0.71871 0.21639 0.0
C958 C 0.08571 0.58043 0.21575 0.0
O959 O 0.1207 0.5853 0.20723 0.0
O960 O 0.37452 0.68 0.20585 0.0
Zn961 Zn 0.18712 0.63937 0.22405 0.0
N962 N 0.28311 0.7043 0.18604 0.0
C963 C 0.23677 0.7629 0.17218 0.0
C964 C 0.24275 0.74794 0.183 0.0
C965 C 0.31708 0.67382 0.17855 0.0
N966 N 0.27026 0.73253 0.16474 0.0
C967 C 0.31032 0.68768 0.16748 0.0
O968 O 0.22885 0.56478 0.21771 0.0
C969 C 0.25162 0.54793 0.2088 0.0
O970 O 0.26815 0.58748 0.2018 0.0
H971 H 0.21471 0.77036 0.18892 0.0
H972 H 0.34857 0.6393 0.18129 0.0
C973 C 0.20274 0.60669 0.24675 0.0
C974 C 0.22154 0.61732 0.25748 0.0
C975 C 0.26101 0.7135 0.25205 0.0
C976 C 0.24295 0.70245 0.2415 0.0
N977 N 0.21377 0.64968 0.23902 0.0
N978 N 0.24995 0.67101 0.25973 0.0
H979 H 0.17891 0.56541 0.24455 0.0
C980 C 0.38359 0.64962 0.2144 0.0
O981 O 0.33778 0.64159 0.22105 0.0
O982 O 0.10095 0.60822 0.22431 0.0
H983 H 0.25193 0.73597 0.23534 0.0
H984 H 0.20501 0.79784 0.16967 0.0
H985 H 0.2839 0.75554 0.25413 0.0
Zn986 Zn 0.17324 0.43307 0.9742 0.0
C987 C 1.01037 0.48095 0.96108 0.0
N988 N 0.993 0.43074 0.96643 0.0
C989 C 0.04553 0.40586 0.96962 0.0
N990 N 0.09394 0.43988 0.96655 0.0
N991 N 0.07298 0.48616 0.9607 0.0
C992 C 0.16453 0.62997 0.96488 0.0
O993 O 0.17454 0.58366 0.97133 0.0
O994 O 0.20318 0.34645 0.97457 0.0
Zn995 Zn 0.13213 0.5342 0.95158 0.0
N996 N 0.16317 0.4607 0.98911 0.0
C997 C 0.09966 0.50947 1.00201 0.0
C998 C 0.11068 0.49063 0.99151 0.0
C999 C 0.20594 0.4497 0.99688 0.0
N1000 N 0.14191 0.49842 1.00973 0.0
C1001 C 0.19533 0.46928 1.00757 0.0
O1002 O 0.22672 0.51281 0.95191 0.0
C1003 C 0.26609 0.49519 0.95887 0.0
O1004 O 0.24877 0.473 0.96781 0.0
H1005 H 0.07734 0.49964 0.98531 0.0
H1006 H 0.24703 0.42531 0.99475 0.0
C1007 C 0.13963 0.56369 0.92871 0.0
C1008 C 0.12496 0.55651 0.91769 0.0
C1009 C 0.04956 0.48371 0.92261 0.0
C1010 C 0.0649 0.4904 0.93341 0.0
N1011 N 0.10911 0.53047 0.93631 0.0
N1012 N 0.07993 0.51644 0.91507 0.0
H1013 H 0.17611 0.59357 0.93124 0.0
C1014 C 0.23053 0.33083 0.96599 0.0
O1015 O 0.22517 0.36544 0.95743 0.0
O1016 O 0.13506 0.62083 0.95623 0.0
H1017 H 0.04257 0.4628 0.93941 0.0
H1018 H 0.05784 0.53295 1.00401 0.0
H1019 H 1.01438 0.45195 0.92022 0.0
Zn1020 Zn 0.37827 0.42396 0.72411 0.0
C1021 C 0.33072 0.26122 0.71092 0.0
N1022 N 0.3809 0.24388 0.71628 0.0
C1023 C 0.40563 0.29637 0.71951 0.0
N1024 N 0.37158 0.34474 0.71644 0.0
N1025 N 0.32539 0.3238 0.71057 0.0
C1026 C 0.18161 0.41536 0.71492 0.0
O1027 O 0.22812 0.42531 0.72133 0.0
O1028 O 0.46493 0.45394 0.7245 0.0
Zn1029 Zn 0.27703 0.38304 0.7015 0.0
N1030 N 0.3506 0.41371 0.73903 0.0
C1031 C 0.30178 0.34995 0.7519 0.0
C1032 C 0.3206 0.36122 0.7414 0.0
C1033 C 0.36169 0.45625 0.74682 0.0
N1034 N 0.31293 0.39196 0.75964 0.0
C1035 C 0.34213 0.44538 0.75751 0.0
O1036 O 0.29854 0.47758 0.70182 0.0
C1037 C 0.31622 0.5169 0.70878 0.0
O1038 O 0.33841 0.49955 0.71771 0.0
H1039 H 0.31154 0.32806 0.73519 0.0
H1040 H 0.38613 0.49735 0.74472 0.0
C1041 C 0.24606 0.39095 0.67873 0.0
C1042 C 0.25214 0.3765 0.66766 0.0
C1043 C 0.32493 0.30055 0.6724 0.0
C1044 C 0.31964 0.31606 0.6832 0.0
N1045 N 0.27998 0.36033 0.68622 0.0
N1046 N 0.2915 0.33102 0.66496 0.0
H1047 H 0.2152 0.42603 0.68145 0.0
C1048 C 0.48065 0.48133 0.71593 0.0
O1049 O 0.44612 0.47601 0.70735 0.0
O1050 O 0.19053 0.38594 0.70626 0.0
H1051 H 0.3477 0.29359 0.68912 0.0
H1052 H 0.27824 0.30811 0.75388 0.0
H1053 H 0.35613 0.2651 0.66991 0.0
Zn1054 Zn 0.39097 0.62915 0.47357 0.0
C1055 C 0.55087 0.57049 0.46089 0.0
N1056 N 0.57157 0.61859 0.46633 0.0
C1057 C 0.52143 0.6492 0.46911 0.0
N1058 N 0.47033 0.6193 0.46592 0.0
N1059 N 0.48821 0.57086 0.46025 0.0
C1060 C 0.39554 0.42774 0.46382 0.0
O1061 O 0.38728 0.47331 0.4705 0.0
O1062 O 0.36297 0.71591 0.47337 0.0
Zn1063 Zn 0.42843 0.52465 0.45108 0.0
N1064 N 0.4004 0.6036 0.48868 0.0
C1065 C 0.46402 0.55622 0.50175 0.0
C1066 C 0.4529 0.57394 0.4912 0.0
C1067 C 0.35753 0.61513 0.49642 0.0
N1068 N 0.42176 0.56784 0.50943 0.0
C1069 C 0.3682 0.59652 0.50718 0.0
O1070 O 0.33442 0.54488 0.45185 0.0
C1071 C 0.29584 0.56429 0.45877 0.0
O1072 O 0.31411 0.58947 0.4674 0.0
H1073 H 0.48618 0.56411 0.48505 0.0
H1074 H 0.31625 0.63902 0.49421 0.0
C1075 C 0.42063 0.49696 0.42821 0.0
C1076 C 0.43467 0.50519 0.4172 0.0
C1077 C 0.50777 0.58022 0.42216 0.0
C1078 C 0.49314 0.57235 0.43296 0.0
N1079 N 0.45032 0.53072 0.43583 0.0
N1080 N 0.47822 0.54692 0.41459 0.0
H1081 H 0.38531 0.46572 0.43074 0.0
C1082 C 0.33873 0.73236 0.46456 0.0
O1083 O 0.34517 0.69734 0.45608 0.0
O1084 O 0.42558 0.43725 0.45525 0.0
H1085 H 0.51494 0.6001 0.43901 0.0
H1086 H 0.5059 0.53303 0.50384 0.0
H1087 H 0.54183 0.61324 0.41978 0.0
C1088 C 0.61672 0.99351 0.22375 0.0
C1089 C 0.62302 0.95271 0.2151 0.0
H1090 H 0.5652 0.06673 0.23066 0.0
C1091 C 0.5793 0.9534 0.20686 0.0
H1092 H 0.64987 0.99434 0.23021 0.0
C1093 C 0.53174 0.99542 0.20703 0.0
C1094 C 0.52637 0.03737 0.21551 0.0
H1095 H 0.58284 0.92282 0.20006 0.0
H1096 H 0.49922 0.99501 0.20048 0.0
C1097 C 0.56865 0.03536 0.22397 0.0
C1098 C 0.34975 0.33432 0.45568 0.0
C1099 C 0.35499 0.37409 0.46447 0.0
H1100 H 0.30217 0.25951 0.44862 0.0
C1101 C 0.31528 0.36677 0.47325 0.0
H1102 H 0.37916 0.33898 0.44873 0.0
C1103 C 0.27067 0.32126 0.47316 0.0
C1104 C 0.26468 0.28247 0.46424 0.0
H1105 H 0.31777 0.39701 0.48012 0.0
H1106 H 0.24068 0.31672 0.48002 0.0
C1107 C 0.30492 0.28927 0.45554 0.0
C1108 C 0.94653 0.06846 0.72301 0.0
C1109 C 0.93997 0.10829 0.71423 0.0
H1110 H 0.99589 0.99368 0.72987 0.0
C1111 C 0.98035 0.10306 0.70551 0.0
H1112 H 0.9158 0.07094 0.72981 0.0
C1113 C 1.0253 0.05813 0.70547 0.0
C1114 C 0.03136 1.01779 0.71417 0.0
H1115 H 0.97628 0.13255 0.69857 0.0
H1116 H 0.05556 0.05539 0.69861 0.0
C1117 C 0.99193 1.02376 0.723 0.0
C1118 C 0.24345 0.69203 0.9745 0.0
C1119 C 0.20223 0.68548 0.9659 0.0
H1120 H 0.31779 0.74309 0.98118 0.0
C1121 C 0.2034 0.72829 0.95751 0.0
H1122 H 0.24393 0.65958 0.98106 0.0
C1123 C 0.24628 0.7751 0.9575 0.0
C1124 C 0.28863 0.7807 0.96591 0.0
H1125 H 0.17253 0.72456 0.95075 0.0
H1126 H 0.24617 0.8069 0.95083 0.0
C1127 C 0.28614 0.73942 0.97453 0.0
C1128 C 0.61912 0.06661 0.32546 0.0
C1129 C 0.62579 0.10636 0.33425 0.0
H1130 H 0.57043 0.99108 0.3187 0.0
C1131 C 0.58637 0.1001 0.34308 0.0
H1132 H 0.64914 0.06987 0.31858 0.0
C1133 C 0.54233 0.05429 0.34324 0.0
C1134 C 0.53613 1.01405 0.33453 0.0
H1135 H 0.59055 0.12948 0.35003 0.0
H1136 H 0.5128 0.05081 0.35019 0.0
C1137 C 0.57455 1.02104 0.32558 0.0
C1138 C 0.28579 0.31901 0.57517 0.0
C1139 C 0.288 0.2768 0.58364 0.0
H1140 H 0.24483 0.40032 0.56897 0.0
C1141 C 0.24649 0.28247 0.59218 0.0
H1142 H 0.31682 0.31536 0.56843 0.0
C1143 C 0.2047 0.33023 0.59241 0.0
C1144 C 0.2038 0.37384 0.58415 0.0
H1145 H 0.24625 0.25004 0.59875 0.0
H1146 H 0.17446 0.33397 0.59926 0.0
C1147 C 0.24416 0.36726 0.57544 0.0
C1148 C 1.01982 1.00414 0.84323 0.0
C1149 C 1.02623 0.04453 0.83454 0.0
H1150 H 0.97133 0.92889 0.84996 0.0
C1151 C 0.98793 0.03782 0.82557 0.0
H1152 H 0.04925 1.00742 0.8502 0.0
C1153 C 0.94328 0.99233 0.8254 0.0
C1154 C 0.9364 0.9524 0.83416 0.0
H1155 H 0.9922 0.06791 0.8187 0.0
H1156 H 0.91337 0.98927 0.81849 0.0
C1157 C 0.97568 0.95841 0.84302 0.0
C1158 C 0.27732 0.74471 0.07529 0.0
C1159 C 0.27539 0.78677 0.08378 0.0
H1160 H 0.31821 0.6636 0.06902 0.0
C1161 C 0.31735 0.78112 0.09225 0.0
H1162 H 0.24594 0.74836 0.0686 0.0
C1163 C 0.3593 0.7335 0.09241 0.0
C1164 C 0.3599 0.68999 0.08415 0.0
H1165 H 0.31781 0.81346 0.09883 0.0
H1166 H 0.38988 0.72975 0.09922 0.0
C1167 C 0.31911 0.69658 0.07549 0.0
C1168 C 0.44393 0.06725 0.82519 0.0
C1169 C 0.43737 0.1077 0.83388 0.0
H1170 H 0.49583 0.99452 0.81821 0.0
C1171 C 0.48103 0.10691 0.84214 0.0
H1172 H 0.41084 0.06651 0.81873 0.0
C1173 C 0.52879 0.06511 0.84193 0.0
C1174 C 0.53442 1.0235 0.83341 0.0
H1175 H 0.4773 0.13723 0.84897 0.0
H1176 H 0.56124 0.06543 0.84849 0.0
C1177 C 0.49219 1.02563 0.82493 0.0
C1178 C 0.70384 0.73179 0.59214 0.0
C1179 C 0.70346 0.68791 0.58394 0.0
H1180 H 0.74511 0.81207 0.59848 0.0
C1181 C 0.74437 0.69422 0.57529 0.0
H1182 H 0.67315 0.72827 0.59893 0.0
C1183 C 0.78608 0.74243 0.57506 0.0
C1184 C 0.78784 0.78482 0.58349 0.0
H1185 H 0.74542 0.66097 0.56887 0.0
H1186 H 0.81759 0.74586 0.56838 0.0
C1187 C 0.74573 0.77947 0.59195 0.0
C1188 C 0.11806 0.99211 0.32517 0.0
C1189 C 0.12466 0.95109 0.3338 0.0
H1190 H 0.06616 0.06535 0.31833 0.0
C1191 C 0.08105 0.95136 0.34205 0.0
H1192 H 0.15111 0.99326 0.31871 0.0
C1193 C 0.03333 0.99321 0.34192 0.0
C1194 C 1.02767 0.03539 0.33348 0.0
H1195 H 0.0848 0.92059 0.34883 0.0
H1196 H 1.00092 0.99248 0.34848 0.0
C1197 C 0.06983 0.03379 0.325 0.0
C1198 C 0.81754 0.28414 0.09182 0.0
C1199 C 0.77568 0.27836 0.08333 0.0
H1200 H 0.88973 0.33585 0.09882 0.0
C1201 C 0.77744 0.32054 0.07485 0.0
H1202 H 0.81814 0.25171 0.09839 0.0
C1203 C 0.81895 0.36893 0.07508 0.0
C1204 C 0.85963 0.37564 0.08375 0.0
H1205 H 0.74613 0.31679 0.06815 0.0
H1206 H 0.81792 0.40198 0.06861 0.0
C1207 C 0.85922 0.33201 0.092 0.0
C1208 C 0.52505 1.007 0.70549 0.0
C1209 C 0.53152 0.04743 0.71416 0.0
H1210 H 0.47568 0.93254 0.6987 0.0
C1211 C 0.49251 0.04154 0.72305 0.0
H1212 H 0.555 1.00968 0.69859 0.0
C1213 C 0.44707 0.99685 0.72315 0.0
C1214 C 0.44008 0.95696 0.71439 0.0
H1215 H 0.49681 0.07168 0.7299 0.0
H1216 H 0.41664 0.99445 0.72999 0.0
C1217 C 0.48008 0.96209 0.70562 0.0
C1218 C 0.85786 0.73065 0.45745 0.0
C1219 C 0.85896 0.68776 0.46583 0.0
H1220 H 0.81506 0.80923 0.45076 0.0
C1221 C 0.81759 0.69414 0.4744 0.0
H1222 H 0.88885 0.72706 0.45071 0.0
C1223 C 0.77481 0.74143 0.47441 0.0
C1224 C 0.77239 0.78278 0.46581 0.0
H1225 H 0.81705 0.66161 0.48095 0.0
H1226 H 0.74304 0.74497 0.48104 0.0
C1227 C 0.81489 0.77737 0.45742 0.0
C1228 C 0.11724 0.06792 0.22358 0.0
C1229 C 0.12401 0.10806 0.21484 0.0
H1230 H 0.06842 0.99215 0.23023 0.0
C1231 C 0.08463 0.10224 0.20599 0.0
H1232 H 0.14723 0.07082 0.23047 0.0
C1233 C 0.04051 0.0565 0.20576 0.0
C1234 C 0.03422 1.01588 0.21443 0.0
H1235 H 0.08888 0.13193 0.19907 0.0
H1236 H 1.01101 0.05337 0.1988 0.0
C1237 C 0.07261 1.02241 0.22339 0.0
C1238 C 0.79069 0.31893 0.97294 0.0
C1239 C 0.79646 0.28012 0.96403 0.0
H1240 H 0.74375 0.39467 0.97993 0.0
C1241 C 0.75599 0.28686 0.95536 0.0
H1242 H 0.82087 0.31445 0.97979 0.0
C1243 C 0.71115 0.33187 0.95552 0.0
C1244 C 0.70612 0.37166 0.96431 0.0
H1245 H 0.75858 0.25708 0.94843 0.0
H1246 H 0.68156 0.33649 0.94859 0.0
C1247 C 0.74607 0.36441 0.97307 0.0
C1248 C 0.03644 0.49727 0.7076 0.0
C1249 C 1.0311 0.53964 0.71601 0.0
H1250 H 0.0867 0.42344 0.70085 0.0
C1251 C 0.07255 0.5371 0.7246 0.0
H1252 H 1.0045 0.4972 0.70096 0.0
C1253 C 0.11986 0.49433 0.72456 0.0
C1254 C 0.12617 0.45311 0.71597 0.0
H1255 H 0.06906 0.56876 0.73125 0.0
H1256 H 0.15246 0.49478 0.7311 0.0
C1257 C 0.08317 0.45432 0.70761 0.0
C1258 C 0.81782 0.86547 0.9729 0.0
C1259 C 0.8575 0.87194 0.96409 0.0
H1260 H 0.74313 0.8162 0.97981 0.0
C1261 C 0.85211 0.83146 0.9554 0.0
H1262 H 0.82043 0.89627 0.97968 0.0
C1263 C 0.80717 0.78652 0.95539 0.0
C1264 C 0.76696 0.78057 0.96411 0.0
H1265 H 0.8815 0.83546 0.94844 0.0
H1266 H 0.8043 0.75619 0.94854 0.0
C1267 C 0.77309 0.82008 0.97292 0.0
C1268 C 0.51991 0.55638 0.2059 0.0
C1269 C 0.52634 0.51589 0.21458 0.0
H1270 H 0.47142 0.63166 0.19919 0.0
C1271 C 0.48806 0.52252 0.22355 0.0
H1272 H 0.54932 0.55317 0.19894 0.0
C1273 C 0.4434 0.56799 0.22373 0.0
C1274 C 0.4365 0.608 0.21497 0.0
H1275 H 0.49235 0.49236 0.23041 0.0
H1276 H 0.41349 0.57097 0.23063 0.0
C1277 C 0.47578 0.60208 0.20612 0.0
C1278 C 0.74141 0.19298 0.47414 0.0
C1279 C 0.70037 0.1871 0.46551 0.0
H1280 H 0.81564 0.24348 0.48099 0.0
C1281 C 0.70181 0.23046 0.45721 0.0
H1282 H 0.7417 0.16008 0.48064 0.0
C1283 C 0.74474 0.27723 0.45732 0.0
C1284 C 0.78687 0.2822 0.46579 0.0
H1285 H 0.67109 0.22724 0.45041 0.0
H1286 H 0.74481 0.30949 0.45073 0.0
C1287 C 0.78416 0.2403 0.4743 0.0
C1288 C 0.07922 0.60722 0.8424 0.0
C1289 C 0.12293 0.60796 0.83416 0.0
H1290 H 0.99916 0.56552 0.84876 0.0
C1291 C 0.11661 0.56721 0.8255 0.0
H1292 H 0.08276 0.63777 0.8492 0.0
C1293 C 0.06854 0.52533 0.82527 0.0
C1294 C 1.02629 0.52324 0.83373 0.0
H1295 H 0.14975 0.56642 0.81905 0.0
H1296 H 0.0651 0.49398 0.81858 0.0
C1297 C 0.03166 0.56516 0.84221 0.0
C1298 C 0.75623 0.79329 0.09326 0.0
C1299 C 0.79635 0.78696 0.08453 0.0
H1300 H 0.68119 0.84171 0.10006 0.0
C1301 C 0.78935 0.82534 0.07557 0.0
H1302 H 0.75973 0.76382 0.10022 0.0
C1303 C 0.74385 0.86996 0.07546 0.0
C1304 C 0.7042 0.87676 0.08426 0.0
H1305 H 0.81922 0.82113 0.06868 0.0
H1306 H 0.74058 0.89992 0.06856 0.0
C1307 C 0.7105 0.83742 0.0931 0.0
C1308 C 0.49398 0.53384 0.32518 0.0
C1309 C 0.53604 0.53567 0.33368 0.0
H1310 H 0.41289 0.49298 0.31886 0.0
C1311 C 0.53038 0.49361 0.34214 0.0
H1312 H 0.49765 0.5653 0.3185 0.0
C1313 C 0.48277 0.45162 0.34226 0.0
C1314 C 0.43928 0.45108 0.33398 0.0
H1315 H 0.56272 0.49308 0.34872 0.0
H1316 H 0.47901 0.42093 0.34905 0.0
C1317 C 0.44586 0.49202 0.32535 0.0
C1318 C 0.80772 0.27013 0.59349 0.0
C1319 C 0.76704 0.2765 0.58484 0.0
H1320 H 0.88317 0.22168 0.60017 0.0
C1321 C 0.77349 0.23818 0.57587 0.0
H1322 H 0.80465 0.29956 0.60046 0.0
C1323 C 0.81899 0.19355 0.57568 0.0
C1324 C 0.85919 0.1867 0.58441 0.0
H1325 H 0.74318 0.24242 0.56904 0.0
H1326 H 0.82183 0.16363 0.56878 0.0
C1327 C 0.85344 0.22601 0.59326 0.0
C1328 C 1.02153 0.55417 0.34361 0.0
C1329 C 1.02774 0.51414 0.33487 0.0
H1330 H 0.97326 0.62919 0.35045 0.0
C1331 C 0.98931 0.52131 0.32592 0.0
H1332 H 0.05104 0.55054 0.35056 0.0
C1333 C 0.94475 0.56688 0.32582 0.0
C1334 C 0.93807 0.60643 0.33464 0.0
H1335 H 0.99342 0.49152 0.31902 0.0
H1336 H 0.91476 0.57029 0.31893 0.0
C1337 C 0.97746 0.59996 0.34347 0.0
C1338 C 0.21006 0.22798 0.09356 0.0
C1339 C 0.20404 0.18855 0.08473 0.0
H1340 H 0.25913 0.30161 0.10069 0.0
C1341 C 0.24406 0.19519 0.07598 0.0
H1342 H 0.18047 0.22382 0.10049 0.0
C1343 C 0.28964 0.23974 0.07613 0.0
C1344 C 0.29635 0.27822 0.08506 0.0
H1345 H 0.24101 0.16515 0.06909 0.0
H1346 H 0.3198 0.24382 0.06927 0.0
C1347 C 0.25586 0.27205 0.09375 0.0
C1348 C 0.5729 0.53822 0.82601 0.0
C1349 C 0.53445 0.54457 0.83497 0.0
H1350 H 0.64749 0.4899 0.81892 0.0
C1351 C 0.54064 0.50376 0.84361 0.0
H1352 H 0.56879 0.56864 0.81919 0.0
C1353 C 0.5847 0.45799 0.84336 0.0
C1354 C 0.62413 0.45233 0.83453 0.0
H1355 H 0.5111 0.50675 0.85056 0.0
H1356 H 0.58888 0.42814 0.85026 0.0
C1357 C 0.61747 0.49267 0.82581 0.0
C1358 C 0.31934 0.86779 0.57567 0.0
C1359 C 0.35925 0.8747 0.58444 0.0
H1360 H 0.24376 0.81887 0.56897 0.0
C1361 C 0.35321 0.83546 0.5933 0.0
H1362 H 0.32241 0.89767 0.56876 0.0
C1363 C 0.30748 0.79132 0.59351 0.0
C1364 C 0.2671 0.78488 0.58481 0.0
H1365 H 0.38272 0.83983 0.60024 0.0
H1366 H 0.30419 0.76191 0.60048 0.0
C1367 C 0.27383 0.82316 0.57584 0.0
C1368 C 0.99191 0.53534 0.22411 0.0
C1369 C 0.03419 0.53728 0.21565 0.0
H1370 H 0.91062 0.49444 0.23033 0.0
C1371 C 1.02875 0.49532 0.20718 0.0
H1372 H 0.9954 0.56673 0.2308 0.0
C1373 C 0.98113 0.45335 0.207 0.0
C1374 C 0.9374 0.45275 0.21524 0.0
H1375 H 0.06127 0.49486 0.20063 0.0
H1376 H 0.97755 0.42276 0.2002 0.0
C1377 C 0.94377 0.49355 0.22389 0.0
C1378 C 0.32008 0.19079 0.97429 0.0
C1379 C 0.36099 0.1849 0.96564 0.0
H1380 H 0.24595 0.24127 0.98115 0.0
C1381 C 0.35942 0.22825 0.95734 0.0
H1382 H 0.3199 0.15791 0.98078 0.0
C1383 C 0.31649 0.27499 0.95746 0.0
C1384 C 0.27447 0.27997 0.96594 0.0
H1385 H 0.39004 0.22503 0.95053 0.0
H1386 H 0.3163 0.30723 0.95087 0.0
C1387 C 0.27732 0.2381 0.97446 0.0
C1388 C 0.5367 0.56725 0.7074 0.0
C1389 C 0.53153 0.52528 0.71589 0.0
H1390 H 0.58681 0.64081 0.70049 0.0
C1391 C 0.57321 0.5282 0.72444 0.0
H1392 H 0.50461 0.56701 0.70078 0.0
C1393 C 0.6205 0.571 0.72429 0.0
C1394 C 0.62658 0.61188 0.71564 0.0
H1395 H 0.56989 0.49686 0.73114 0.0
H1396 H 0.65323 0.57088 0.73082 0.0
C1397 C 0.58343 0.61023 0.70731 0.0
C1398 C 0.25408 0.78885 0.45564 0.0
C1399 C 0.29422 0.78277 0.46438 0.0
H1400 H 0.17986 0.83793 0.44868 0.0
C1401 C 0.28808 0.82221 0.4732 0.0
H1402 H 0.25695 0.75858 0.44879 0.0
C1403 C 0.24342 0.86765 0.47316 0.0
C1404 C 0.20381 0.87425 0.46435 0.0
H1405 H 0.318 0.81822 0.48009 0.0
H1406 H 0.24081 0.8984 0.47995 0.0
C1407 C 0.20919 0.83384 0.45565 0.0
C1408 C 0.31812 0.87476 0.21299 0.0
C1409 C 0.27132 0.8525 0.20633 0.0
H1410 H 0.3661 0.95285 0.21906 0.0
C1411 C 0.24393 0.89452 0.19917 0.0
H1412 H 0.33873 0.84492 0.21891 0.0
C1413 C 0.25871 0.9572 0.19937 0.0
C1414 C 0.30096 0.98025 0.20685 0.0
H1415 H 0.20591 0.88011 0.19423 0.0
H1416 H 0.23342 0.98813 0.19425 0.0
C1417 C 0.33254 0.93745 0.21328 0.0
C1418 C 0.35391 1.01315 0.44893 0.0
C1419 C 0.33086 0.05508 0.45647 0.0
H1420 H 0.43047 0.9597 0.4438 0.0
C1421 C 0.3737 0.08522 0.4631 0.0
H1422 H 0.32301 0.98883 0.44367 0.0
C1423 C 0.43629 0.06986 0.46289 0.0
C1424 C 0.45845 1.02361 0.4561 0.0
H1425 H 0.35838 0.11832 0.46895 0.0
H1426 H 0.46604 0.08939 0.46893 0.0
C1427 C 0.41639 0.99746 0.44881 0.0
C1428 C 0.24441 0.18921 0.71355 0.0
C1429 C 0.29032 0.21167 0.70671 0.0
H1430 H 0.19622 0.1111 0.71962 0.0
C1431 C 0.31615 0.16991 0.69935 0.0
H1432 H 0.22514 0.21872 0.71965 0.0
C1433 C 0.30051 0.10742 0.69944 0.0
C1434 C 0.25891 0.08406 0.70702 0.0
H1435 H 0.35359 0.18427 0.69427 0.0
H1436 H 0.32457 0.07676 0.69411 0.0
C1437 C 0.22907 0.12664 0.71373 0.0
C1438 C 0.12425 0.98179 0.96228 0.0
C1439 C 0.10058 1.02649 0.95532 0.0
H1440 H 0.20366 0.93779 0.96875 0.0
C1441 C 0.1418 0.05244 0.94784 0.0
H1442 H 0.09516 0.96211 0.96841 0.0
C1443 C 0.20503 0.03974 0.94819 0.0
C1444 C 0.22939 1.00058 0.95606 0.0
H1445 H 0.12649 0.08882 0.94262 0.0
H1446 H 0.23522 0.0645 0.94286 0.0
C1447 C 0.18738 0.96931 0.96269 0.0
C1448 C 0.32892 0.18727 0.33602 0.0
C1449 C 0.28498 0.21096 0.34314 0.0
H1450 H 0.3735 0.10805 0.3296 0.0
C1451 C 0.26054 0.16981 0.35078 0.0
H1452 H 0.34726 0.21615 0.32974 0.0
C1453 C 0.27429 0.1068 0.35055 0.0
C1454 C 0.31307 0.08231 0.34263 0.0
H1455 H 0.22461 0.1849 0.35612 0.0
H1456 H 0.25077 0.07674 0.35607 0.0
C1457 C 0.34255 0.12429 0.33574 0.0
C1458 C 0.20821 1.00936 0.59986 0.0
C1459 C 0.23104 0.05142 0.59233 0.0
H1460 H 0.13131 0.95655 0.60509 0.0
C1461 C 0.18804 0.08271 0.58589 0.0
H1462 H 0.23931 0.98429 0.60498 0.0
C1463 C 0.12536 0.06819 0.58623 0.0
C1464 C 0.10334 1.02153 0.59295 0.0
H1465 H 0.20329 0.11613 0.58007 0.0
H1466 H 0.09536 0.08856 0.58032 0.0
C1467 C 0.14555 0.99446 0.6001 0.0
C1468 C 0.30087 0.88897 0.85111 0.0
C1469 C 0.27681 0.84771 0.84346 0.0
H1470 H 0.3105 0.98212 0.85634 0.0
C1471 C 0.23321 0.87131 0.83625 0.0
H1472 H 0.3365 0.87391 0.85652 0.0
C1473 C 0.2197 0.9343 0.83588 0.0
C1474 C 0.24892 0.97638 0.84279 0.0
H1475 H 0.21514 0.84233 0.82996 0.0
H1476 H 0.18908 0.95047 0.82968 0.0
C1477 C 0.28723 0.95199 0.8508 0.0
C1478 C 0.43778 0.99475 0.08638 0.0
C1479 C 0.46018 0.04204 0.0929 0.0
H1480 H 0.3595 0.94623 0.0805 0.0
C1481 C 0.41834 0.0699 0.10002 0.0
H1482 H 0.46746 0.97376 0.08049 0.0
C1483 C 0.35566 0.05498 0.09993 0.0
C1484 C 0.33242 1.01215 0.09258 0.0
H1485 H 0.43286 0.10831 0.10485 0.0
H1486 H 0.32483 0.08061 0.105 0.0
C1487 C 0.37507 0.98021 0.08619 0.0
C1488 C 0.74271 0.18603 0.83631 0.0
C1489 C 0.78909 0.20798 0.84309 0.0
H1490 H 0.69516 0.10821 0.83003 0.0
C1491 C 0.81598 0.16565 0.85025 0.0
H1492 H 0.7225 0.21612 0.83039 0.0
C1493 C 0.80123 0.10298 0.84993 0.0
C1494 C 0.75951 0.08026 0.84233 0.0
H1495 H 0.85366 0.17985 0.85529 0.0
H1496 H 0.82619 0.07182 0.85506 0.0
C1497 C 0.72833 0.12335 0.8359 0.0
C1498 C 0.62548 0.99284 0.58629 0.0
C1499 C 0.6033 0.0399 0.59288 0.0
H1500 H 0.70355 0.94455 0.58029 0.0
C1501 C 0.64539 0.06747 0.6 0.0
H1502 H 0.5956 0.97207 0.5804 0.0
C1503 C 0.70807 0.05257 0.59983 0.0
C1504 C 0.73106 1.01004 0.59241 0.0
H1505 H 0.63104 0.10569 0.60489 0.0
H1506 H 0.73906 0.07801 0.60491 0.0
C1507 C 0.68818 0.97832 0.58602 0.0
C1508 C 0.83429 0.93565 0.33611 0.0
C1509 C 0.80267 0.97849 0.34251 0.0
H1510 H 0.84069 0.84305 0.33056 0.0
C1511 C 0.7606 0.95546 0.35002 0.0
H1512 H 0.86774 0.95103 0.33031 0.0
C1513 C 0.74599 0.89273 0.35027 0.0
C1514 C 0.77338 0.85065 0.34314 0.0
H1515 H 0.73528 0.98643 0.35511 0.0
H1516 H 0.70806 0.87833 0.35523 0.0
C1517 C 0.82008 0.87291 0.33646 0.0
C1518 C 0.87543 0.08473 0.08604 0.0
C1519 C 0.83235 0.05345 0.09246 0.0
H1520 H 0.96821 0.09067 0.08054 0.0
C1521 C 0.8551 1.01162 0.10004 0.0
H1522 H 0.86026 0.11798 0.08019 0.0
C1523 C 0.91779 0.99687 0.10035 0.0
C1524 C 0.9601 1.02387 0.09321 0.0
H1525 H 0.82393 0.98659 0.10515 0.0
H1526 H 0.93199 0.95911 0.10537 0.0
C1527 C 0.93814 0.07037 0.08645 0.0
C1528 C 0.74418 0.876 0.71309 0.0
C1529 C 0.79047 0.85359 0.70633 0.0
H1530 H 0.69569 0.95408 0.71907 0.0
C1531 C 0.81675 0.89539 0.69902 0.0
H1532 H 0.72455 0.84646 0.71915 0.0
C1533 C 0.80112 0.95787 0.69907 0.0
C1534 C 0.7591 0.98119 0.70657 0.0
H1535 H 0.85451 0.88108 0.69401 0.0
H1536 H 0.82552 0.98857 0.69378 0.0
C1537 C 0.72886 0.93857 0.71323 0.0
C1538 C 0.85634 0.04246 0.44828 0.0
C1539 C 0.8318 1.00287 0.45606 0.0
H1540 H 0.93495 0.09196 0.44287 0.0
C1541 C 0.87365 0.97136 0.4627 0.0
H1542 H 0.82626 0.06744 0.44297 0.0
C1543 C 0.93678 0.98397 0.46238 0.0
C1544 C 0.9606 1.029 0.4555 0.0
H1545 H 0.85723 0.93953 0.46869 0.0
H1546 H 0.9657 0.96404 0.46851 0.0
C1547 C 0.91956 0.05527 0.44803 0.0
C1548 C 0.84087 0.1258 0.21319 0.0
C1549 C 0.81099 0.08402 0.20631 0.0
H1550 H 0.84603 0.2175 0.21922 0.0
C1551 C 0.77184 0.10875 0.19846 0.0
H1552 H 0.87211 0.10936 0.21928 0.0
C1553 C 0.75814 0.17177 0.19828 0.0
C1554 C 0.78306 0.21272 0.2059 0.0
H1555 H 0.748 0.07884 0.19296 0.0
H1556 H 0.72195 0.18702 0.19301 0.0
C1557 C 0.82733 0.1888 0.21295 0.0
C1558 C 0.62501 0.06728 0.96286 0.0
C1559 C 0.60263 1.02108 0.95607 0.0
H1560 H 0.70311 0.11572 0.96887 0.0
C1561 C 0.64445 0.99498 0.94875 0.0
H1562 H 0.59544 0.08678 0.96892 0.0
C1563 C 0.70695 1.01067 0.94883 0.0
C1564 C 0.73025 0.05256 0.95635 0.0
H1565 H 0.63014 0.95731 0.94373 0.0
H1566 H 0.73768 0.98639 0.94354 0.0
C1567 C 0.68761 0.08265 0.96302 0.0
C1568 C 0.84256 0.43839 0.71286 0.0
C1569 C 0.81114 0.48035 0.70624 0.0
H1570 H 0.84994 0.34624 0.7186 0.0
C1571 C 0.7718 0.45594 0.69841 0.0
H1572 H 0.87421 0.45469 0.7189 0.0
C1573 C 0.75913 0.39273 0.69808 0.0
C1574 C 0.78529 0.35155 0.70555 0.0
H1575 H 0.7469 0.4861 0.69309 0.0
H1576 H 0.72264 0.3774 0.69288 0.0
C1577 C 0.83011 0.37527 0.71248 0.0
C1578 C 0.919 0.49549 0.94951 0.0
C1579 C 0.96084 0.52135 0.95686 0.0
H1580 H 0.82578 0.48714 0.94426 0.0
C1581 C 0.93849 0.56739 0.96368 0.0
H1582 H 0.93328 0.45795 0.94446 0.0
C1583 C 0.87592 0.58283 0.96383 0.0
C1584 C 0.83326 0.55298 0.95713 0.0
H1585 H 0.96807 0.58669 0.96977 0.0
H1586 H 0.86046 0.61579 0.9697 0.0
C1587 C 0.85652 0.51124 0.94958 0.0
C1588 C 0.78803 0.60863 0.1984 0.0
C1589 C 0.74926 0.58403 0.20631 0.0
H1590 H 0.83763 0.68684 0.19283 0.0
C1591 C 0.71967 0.62591 0.2132 0.0
H1592 H 0.81162 0.57864 0.19288 0.0
C1593 C 0.73318 0.68891 0.21291 0.0
C1594 C 0.77714 0.71272 0.20579 0.0
H1595 H 0.68871 0.60957 0.21933 0.0
H1596 H 0.71475 0.71772 0.21918 0.0
C1597 C 0.80167 0.67167 0.19816 0.0
C1598 C 0.70238 0.5425 0.44904 0.0
C1599 C 0.72697 0.50306 0.45684 0.0
H1600 H 0.62372 0.59182 0.44359 0.0
C1601 C 0.68515 0.47168 0.4635 0.0
H1602 H 0.73242 0.56735 0.4437 0.0
C1603 C 0.62202 0.48426 0.46317 0.0
C1604 C 0.59815 0.52912 0.45626 0.0
H1605 H 0.70159 0.43995 0.46951 0.0
H1606 H 0.59313 0.46443 0.46931 0.0
C1607 C 0.63916 0.55527 0.44877 0.0
C1608 C 0.75798 0.60353 0.84977 0.0
C1609 C 0.80077 0.58034 0.84241 0.0
H1610 H 0.70471 0.68064 0.85471 0.0
C1611 C 0.83269 0.62302 0.836 0.0
H1612 H 0.73238 0.57268 0.85485 0.0
C1613 C 0.81818 0.6857 0.8362 0.0
C1614 C 0.77094 0.70806 0.84274 0.0
H1615 H 0.86664 0.6075 0.83031 0.0
H1616 H 0.83915 0.71539 0.83031 0.0
C1617 C 0.7431 0.66618 0.84987 0.0
C1618 C 0.62299 0.57961 0.08606 0.0
C1619 C 0.59949 0.5361 0.09329 0.0
H1620 H 0.70209 0.62376 0.07947 0.0
C1621 C 0.64083 0.51225 0.10096 0.0
H1622 H 0.59394 0.5975 0.07976 0.0
C1623 C 0.70386 0.52599 0.10064 0.0
C1624 C 0.72816 0.5642 0.09261 0.0
H1625 H 0.62584 0.47671 0.10639 0.0
H1626 H 0.73407 0.50289 0.10619 0.0
C1627 C 0.68599 0.59322 0.08569 0.0
C1628 C 0.8182 0.39257 0.35019 0.0
C1629 C 0.79077 0.35063 0.34304 0.0
H1630 H 0.82878 0.48613 0.35512 0.0
C1631 C 0.74395 0.37296 0.33638 0.0
H1632 H 0.85623 0.37808 0.35513 0.0
C1633 C 0.72958 0.43566 0.3361 0.0
C1634 C 0.76119 0.47839 0.34253 0.0
H1635 H 0.72331 0.3432 0.33047 0.0
H1636 H 0.69601 0.45113 0.33032 0.0
C1637 C 0.80344 0.45525 0.35001 0.0
C1638 C 0.93999 0.48338 0.58624 0.0
C1639 C 0.96397 0.52774 0.59325 0.0
H1640 H 0.86047 0.43853 0.57996 0.0
C1641 C 0.92303 0.55277 0.60086 0.0
H1642 H 0.9687 0.46456 0.57999 0.0
C1643 C 0.85995 0.53911 0.6007 0.0
C1644 C 0.83518 0.49986 0.59287 0.0
H1645 H 0.93833 0.58904 0.60611 0.0
H1646 H 0.83006 0.56304 0.60618 0.0
C1647 C 0.87694 0.46986 0.58602 0.0
C1648 C 0.22139 0.62409 0.33569 0.0
C1649 C 0.25116 0.58229 0.34258 0.0
H1650 H 0.21642 0.71579 0.32963 0.0
C1651 C 0.29031 0.60698 0.35043 0.0
H1652 H 0.19017 0.60768 0.3296 0.0
C1653 C 0.30409 0.66998 0.35059 0.0
C1654 C 0.27927 0.71095 0.34296 0.0
H1655 H 0.31406 0.57706 0.35595 0.0
H1656 H 0.34028 0.68519 0.35587 0.0
C1657 C 0.23503 0.68707 0.33591 0.0
C1658 C 0.12353 0.48557 0.08591 0.0
C1659 C 0.09946 0.53005 0.09288 0.0
H1660 H 0.20311 0.44043 0.07973 0.0
C1661 C 0.14025 0.55519 0.1005 0.0
H1662 H 0.09494 0.46669 0.07963 0.0
C1663 C 0.20329 0.54138 0.10042 0.0
C1664 C 0.22818 0.50192 0.09265 0.0
H1665 H 0.12491 0.5916 0.10571 0.0
H1666 H 0.23309 0.56536 0.10592 0.0
C1667 C 0.18654 0.4719 0.08576 0.0
C1668 C 0.32761 0.37185 0.8361 0.0
C1669 C 0.2831 0.34764 0.84306 0.0
H1670 H 0.3726 0.45152 0.82991 0.0
C1671 C 0.2578 0.38834 0.85068 0.0
H1672 H 0.34661 0.34335 0.82983 0.0
C1673 C 0.27145 0.45139 0.85058 0.0
C1674 C 0.31092 0.4764 0.84281 0.0
H1675 H 0.22139 0.37288 0.85588 0.0
H1676 H 0.24735 0.4811 0.85607 0.0
C1677 C 0.34111 0.43487 0.83594 0.0
C1678 C 0.42281 0.50972 0.60106 0.0
C1679 C 0.46391 0.5339 0.59339 0.0
H1680 H 0.32974 0.50017 0.60636 0.0
C1681 C 0.4402 0.57767 0.58623 0.0
H1682 H 0.43795 0.47395 0.60643 0.0
C1683 C 0.3772 0.59131 0.58593 0.0
C1684 C 0.33525 0.56203 0.59285 0.0
H1685 H 0.46907 0.59582 0.57993 0.0
H1686 H 0.36092 0.62209 0.57976 0.0
C1687 C 0.35978 0.5235 0.60082 0.0
C1688 C 0.24236 0.37465 0.21297 0.0
C1689 C 0.28894 0.35251 0.20626 0.0
H1690 H 0.19463 0.45264 0.21912 0.0
C1691 C 0.3161 0.39466 0.1991 0.0
H1692 H 0.22194 0.34472 0.21889 0.0
C1693 C 0.30136 0.45733 0.19934 0.0
C1694 C 0.25938 0.48026 0.20687 0.0
H1695 H 0.35395 0.38033 0.19412 0.0
H1696 H 0.32649 0.48836 0.19422 0.0
C1697 C 0.22799 0.43734 0.2133 0.0
C1698 C 0.43923 0.48181 0.96314 0.0
C1699 C 0.46296 0.52639 0.95616 0.0
H1700 H 0.3598 0.43784 0.9696 0.0
C1701 C 0.42176 0.55223 0.94867 0.0
H1702 H 0.46829 0.46223 0.96928 0.0
C1703 C 0.35853 0.53953 0.949 0.0
C1704 C 0.33411 0.50045 0.95687 0.0
H1705 H 0.43712 0.58853 0.94342 0.0
H1706 H 0.32836 0.56418 0.94365 0.0
C1707 C 0.37609 0.4693 0.96354 0.0
C1708 C 0.34227 0.62684 0.71342 0.0
C1709 C 0.31102 0.58491 0.70677 0.0
H1710 H 0.34952 0.71896 0.71915 0.0
C1711 C 0.2719 0.60936 0.6989 0.0
H1712 H 0.37376 0.61051 0.71948 0.0
C1713 C 0.25927 0.67258 0.69856 0.0
C1714 C 0.28525 0.71374 0.70604 0.0
H1715 H 0.24717 0.57924 0.69356 0.0
H1716 H 0.22295 0.68795 0.69332 0.0
C1717 C 0.32985 0.68996 0.71301 0.0
C1718 C 0.20468 0.51417 0.4495 0.0
C1719 C 0.22787 0.55549 0.45713 0.0
H1720 H 0.12795 0.46121 0.44423 0.0
C1721 C 0.18511 0.58504 0.46385 0.0
H1722 H 0.23549 0.49034 0.44416 0.0
C1723 C 0.12253 0.56965 0.46362 0.0
C1724 C 0.10025 0.52397 0.45672 0.0
H1725 H 0.2005 0.61769 0.46978 0.0
H1726 H 0.09287 0.58866 0.46972 0.0
C1727 C 0.14217 0.49848 0.44935 0.0
C1728 C 0.35127 0.05084 0.28563 0.0
C1729 C 0.35008 0.98774 0.28369 0.0
H1730 H 0.34943 0.14069 0.27891 0.0
C1731 C 0.35013 0.96773 0.27292 0.0
H1732 H 0.35024 0.0684 0.29375 0.0
C1733 C 0.34943 1.00933 0.26435 0.0
C1734 C 0.3483 0.07243 0.26629 0.0
H1735 H 0.34925 0.91951 0.27107 0.0
H1736 H 0.34702 0.99166 0.25625 0.0
C1737 C 0.35019 0.09247 0.27706 0.0
C1738 C 0.21727 0.09945 0.52611 0.0
C1739 C 0.23725 0.09886 0.51533 0.0
H1740 H 0.24127 0.09705 0.54279 0.0
C1741 C 0.30039 0.09976 0.51339 0.0
H1742 H 0.16904 0.0988 0.52797 0.0
C1743 C 0.34207 0.09898 0.52196 0.0
C1744 C 0.32208 0.09765 0.53273 0.0
H1745 H 0.31797 0.09832 0.50527 0.0
H1746 H 0.3903 0.09802 0.5201 0.0
C1747 C 0.25893 0.09902 0.53468 0.0
C1748 C 0.20775 0.09253 0.77268 0.0
C1749 C 0.20801 0.07202 0.78344 0.0
H1750 H 0.21004 0.0693 0.75597 0.0
C1751 C 0.20591 1.00885 0.78529 0.0
H1752 H 0.20927 0.14082 0.77089 0.0
C1753 C 0.20617 0.96763 0.77667 0.0
C1754 C 0.20814 0.98812 0.76592 0.0
H1755 H 0.20699 0.99086 0.79339 0.0
H1756 H 0.20645 0.91933 0.77846 0.0
C1757 C 0.20761 0.05132 0.76406 0.0
C1758 C 0.34352 0.96839 0.02652 0.0
C1759 C 0.32309 0.96849 1.01577 0.0
H1760 H 0.32008 0.97074 0.04322 0.0
C1761 C 0.25988 0.96694 1.01388 0.0
H1762 H 0.39182 0.96957 0.02832 0.0
C1763 C 0.21854 0.9674 1.02249 0.0
C1764 C 0.23896 0.96902 0.03323 0.0
H1765 H 0.24198 0.96802 1.00578 0.0
H1766 H 0.17023 0.96778 1.02068 0.0
C1767 C 0.30218 0.96846 0.03512 0.0
C1768 C 0.71357 0.05288 0.78462 0.0
C1769 C 0.71496 0.9898 0.78266 0.0
H1770 H 0.71395 0.1428 0.77794 0.0
C1771 C 0.71387 0.96994 0.77187 0.0
H1772 H 0.71537 0.07044 0.79274 0.0
C1773 C 0.71328 1.01169 0.76332 0.0
C1774 C 0.71415 0.07478 0.76529 0.0
H1775 H 0.71485 0.92176 0.77 0.0
H1776 H 0.71489 0.99421 0.7552 0.0
C1777 C 0.71333 0.09462 0.77607 0.0
C1778 C 0.76027 0.96855 0.53498 0.0
C1779 C 0.82344 0.96874 0.53305 0.0
H1780 H 0.67046 0.97039 0.52824 0.0
C1781 C 0.84358 0.96729 0.52229 0.0
H1782 H 0.7426 0.97072 0.54309 0.0
C1783 C 0.80202 0.96732 0.51372 0.0
C1784 C 0.73887 0.9692 0.51565 0.0
H1785 H 0.89185 0.9674 0.52046 0.0
H1786 H 0.81973 0.96851 0.50561 0.0
C1787 C 0.71871 0.96896 0.52641 0.0
C1788 C 0.84935 1.00843 0.28466 0.0
C1789 C 0.84804 0.07162 0.2828 0.0
H1790 H 0.84907 0.91892 0.27784 0.0
C1791 C 0.84958 0.09213 0.27205 0.0
H1792 H 0.84723 0.99041 0.29275 0.0
C1793 C 0.85046 0.05088 0.26343 0.0
C1794 C 0.8494 0.9877 0.2653 0.0
H1795 H 0.84868 0.14043 0.27026 0.0
H1796 H 0.84916 0.0688 0.25533 0.0
C1797 C 0.84984 0.96721 0.27605 0.0
C1798 C 0.84519 0.0988 0.02597 0.0
C1799 C 0.82492 0.09785 1.0152 0.0
H1800 H 0.82163 0.09695 0.04266 0.0
C1801 C 0.76172 0.09868 1.0133 0.0
H1802 H 0.89347 0.09822 0.02779 0.0
C1803 C 0.72028 0.09817 1.0219 0.0
C1804 C 0.74056 0.09719 0.03266 0.0
H1805 H 0.74393 0.09698 1.00519 0.0
H1806 H 0.672 0.09713 1.02007 0.0
C1807 C 0.80376 0.09865 0.03456 0.0
C1808 C 0.84524 0.46795 0.77245 0.0
C1809 C 0.84358 0.48793 0.78322 0.0
H1810 H 0.84444 0.49202 0.75577 0.0
C1811 C 0.8438 0.55104 0.78517 0.0
H1812 H 0.8451 0.41974 0.77059 0.0
C1813 C 0.84366 0.59269 0.77661 0.0
C1814 C 0.84365 0.57269 0.76584 0.0
H1815 H 0.84147 0.5686 0.79328 0.0
H1816 H 0.84226 0.64089 0.77847 0.0
C1817 C 0.84547 0.50961 0.76389 0.0
C1818 C 0.75969 0.60709 0.03528 0.0
C1819 C 0.82284 0.60517 0.03337 0.0
H1820 H 0.6699 0.60625 0.02852 0.0
C1821 C 0.84303 0.6054 1.0226 0.0
H1822 H 0.74194 0.60601 0.04339 0.0
C1823 C 0.80152 0.60535 1.01401 0.0
C1824 C 0.73834 0.60466 1.01592 0.0
H1825 H 0.89128 0.60402 1.02078 0.0
H1826 H 0.81926 0.60291 1.00591 0.0
C1827 C 0.71817 0.60664 0.02669 0.0
C1828 C 0.71133 0.55121 0.26354 0.0
C1829 C 0.71247 0.48802 0.2654 0.0
H1830 H 0.7133 0.64075 0.27037 0.0
C1831 C 0.71233 0.46752 0.27615 0.0
H1832 H 0.7124 0.56914 0.25544 0.0
C1833 C 0.71306 0.50872 0.28477 0.0
C1834 C 0.71432 0.57191 0.28291 0.0
H1835 H 0.71316 0.41922 0.27794 0.0
H1836 H 0.71542 0.49068 0.29285 0.0
C1837 C 0.71246 0.59245 0.27216 0.0
C1838 C 0.75896 0.46062 0.51459 0.0
C1839 C 0.82218 0.46227 0.51644 0.0
H1840 H 0.66942 0.46065 0.52142 0.0
C1841 C 0.84278 0.46101 0.52719 0.0
H1842 H 0.74089 0.46252 0.5065 0.0
C1843 C 0.80156 0.4601 0.53581 0.0
C1844 C 0.73833 0.46087 0.53395 0.0
H1845 H 0.89111 0.46218 0.52897 0.0
H1846 H 0.81951 0.46165 0.54391 0.0
C1847 C 0.71776 0.46011 0.52321 0.0
C1848 C 0.21115 0.46742 0.27302 0.0
C1849 C 0.21165 0.48739 0.28379 0.0
H1850 H 0.21383 0.49138 0.25635 0.0
C1851 C 0.21077 0.55049 0.28574 0.0
H1852 H 0.21179 0.41921 0.27116 0.0
C1853 C 0.21172 0.59215 0.27717 0.0
C1854 C 0.21318 0.57214 0.2664 0.0
H1855 H 0.21213 0.56803 0.29386 0.0
H1856 H 0.21272 0.64035 0.27903 0.0
C1857 C 0.21174 0.50904 0.26446 0.0
C1858 C 0.22 0.46009 0.02727 0.0
C1859 C 0.24029 0.46105 1.01652 0.0
H1860 H 0.24373 0.46128 0.04398 0.0
C1861 C 0.30345 0.45942 1.01461 0.0
H1862 H 0.17172 0.46126 0.02909 0.0
C1863 C 0.3449 0.4592 1.0232 0.0
C1864 C 0.32464 0.46025 0.03396 0.0
H1865 H 0.32128 0.46111 1.00651 0.0
H1866 H 0.39319 0.45973 1.02138 0.0
C1867 C 0.26147 0.45949 0.03587 0.0
C1868 C 0.35208 0.55323 0.76464 0.0
C1869 C 0.35048 0.49004 0.76649 0.0
H1870 H 0.35177 0.6427 0.77148 0.0
C1871 C 0.35156 0.46944 0.77724 0.0
H1872 H 0.35031 0.5713 0.75655 0.0
C1873 C 0.35223 0.51062 0.78586 0.0
C1874 C 0.3514 0.57381 0.784 0.0
H1875 H 0.35043 0.42113 0.77902 0.0
H1876 H 0.35054 0.49265 0.79396 0.0
C1877 C 0.35235 0.59439 0.77326 0.0
C1878 C 0.25999 0.60538 0.51426 0.0
C1879 C 0.32321 0.60492 0.51612 0.0
H1880 H 0.17041 0.60343 0.52109 0.0
C1881 C 0.34367 0.6067 0.52688 0.0
H1882 H 0.24205 0.6031 0.50617 0.0
C1883 C 0.3024 0.60671 0.5355 0.0
C1884 C 0.2392 0.60454 0.53364 0.0
H1885 H 0.392 0.60647 0.52867 0.0
H1886 H 0.32038 0.60549 0.54359 0.0
C1887 C 0.21871 0.60499 0.52288 0.0
C1888 C 0.49744 0.30555 0.22823 0.0
C1889 C 0.4682 0.26353 0.22136 0.0
H1890 H 0.58309 0.34546 0.23316 0.0
C1891 C 0.50313 0.23053 0.21403 0.0
H1892 H 0.47085 0.33315 0.23371 0.0
C1893 C 0.56552 0.23963 0.21337 0.0
C1894 C 0.5952 0.28234 0.22 0.0
H1895 H 0.4816 0.20124 0.20815 0.0
H1896 H 0.59032 0.21449 0.20729 0.0
C1897 C 0.56102 0.3141 0.22769 0.0
C1898 C 0.98076 0.30753 0.46382 0.0
C1899 C 1.01327 0.34217 0.47126 0.0
H1900 H 0.96489 0.22065 0.45697 0.0
C1901 C 0.05507 0.31274 0.47816 0.0
H1902 H 0.95169 0.32922 0.45792 0.0
C1903 C 0.06353 0.24918 0.47759 0.0
C1904 C 0.0319 0.21524 0.46984 0.0
H1905 H 0.08236 0.33913 0.48372 0.0
H1906 H 0.0946 0.22694 0.48309 0.0
C1907 C 0.9898 0.24521 0.46312 0.0
C1908 C 0.06374 0.81648 0.72773 0.0
C1909 C 0.09821 0.78474 0.72007 0.0
H1910 H 0.97335 0.83537 0.73366 0.0
C1911 C 0.06867 0.7425 0.71333 0.0
H1912 H 0.08562 0.8477 0.73324 0.0
C1913 C 1.00627 0.73347 0.71391 0.0
C1914 C 0.97112 0.76609 0.72125 0.0
H1915 H 0.09365 0.71751 0.70725 0.0
H1916 H 0.98495 0.70436 0.70798 0.0
C1917 C 1.00012 0.80798 0.72818 0.0
C1918 C 0.5572 0.81196 0.97806 0.0
C1919 C 0.51517 0.84067 0.97112 0.0
H1920 H 0.59705 0.72672 0.98321 0.0
C1921 C 0.48232 0.80524 0.96384 0.0
H1922 H 0.58475 0.83893 0.9835 0.0
C1923 C 0.4913 0.74284 0.96334 0.0
C1924 C 0.53374 0.7136 0.9701 0.0
H1925 H 0.45311 0.82633 0.95789 0.0
H1926 H 0.46616 0.71763 0.9573 0.0
C1927 C 0.56568 0.74836 0.97769 0.0
C1928 C 0.50207 0.81245 0.3214 0.0
C1929 C 0.46757 0.78073 0.32906 0.0
H1930 H 0.59247 0.83141 0.31548 0.0
C1931 C 0.49696 0.73802 0.33574 0.0
H1932 H 0.48024 0.84382 0.3159 0.0
C1933 C 0.55937 0.72884 0.33515 0.0
C1934 C 0.59461 0.76178 0.32785 0.0
H1935 H 0.4719 0.7129 0.3418 0.0
H1936 H 0.58064 0.69953 0.34106 0.0
C1937 C 0.56566 0.80383 0.32094 0.0
C1938 C 0.55631 0.24824 0.57093 0.0
C1939 C 0.51411 0.21864 0.57773 0.0
H1940 H 0.59645 0.33407 0.56619 0.0
C1941 C 0.48096 0.25317 0.58509 0.0
H1942 H 0.58404 0.22197 0.56543 0.0
C1943 C 0.49011 0.31547 0.58587 0.0
C1944 C 0.53305 0.34546 0.57933 0.0
H1945 H 0.45157 0.23135 0.59092 0.0
H1946 H 0.46483 0.33993 0.59198 0.0
C1947 C 0.56494 0.31174 0.57159 0.0
C1948 C 0.99703 0.25482 0.821 0.0
C1949 C 0.96839 0.29696 0.82792 0.0
H1950 H 0.08221 0.21473 0.81589 0.0
C1951 C 1.00395 0.33011 0.83513 0.0
H1952 H 0.96997 0.22709 0.81561 0.0
C1953 C 0.0664 0.32103 0.83564 0.0
C1954 C 0.0955 0.27818 0.82896 0.0
H1955 H 0.98293 0.35947 0.84105 0.0
H1956 H 0.09172 0.34628 0.84165 0.0
C1957 C 0.06065 0.24625 0.82138 0.0
C1958 C 0.07307 0.7468 0.08557 0.0
C1959 C 1.0301 0.71787 0.07888 0.0
H1960 H 0.1116 0.8301 0.09104 0.0
C1961 C 0.99805 0.75288 0.07134 0.0
H1962 H 0.0984 0.72136 0.09156 0.0
C1963 C 1.00663 0.81647 0.071 0.0
C1964 C 0.04888 0.84494 0.07793 0.0
H1965 H 0.96643 0.73146 0.06584 0.0
H1966 H 0.97882 0.84364 0.06563 0.0
C1967 C 0.08215 0.80923 0.08511 0.0
C1968 C 0.56243 0.75532 0.82087 0.0
C1969 C 0.59226 0.79755 0.82762 0.0
H1970 H 0.47641 0.71513 0.81623 0.0
C1971 C 0.55793 0.83076 0.83501 0.0
H1972 H 0.58855 0.72754 0.81535 0.0
C1973 C 0.49562 0.82164 0.83585 0.0
C1974 C 0.46541 0.77864 0.82936 0.0
H1975 H 0.57993 0.86017 0.84081 0.0
H1976 H 0.47133 0.84696 0.84197 0.0
C1977 C 0.49892 0.74669 0.8216 0.0
C1978 C 0.98081 0.80714 0.58504 0.0
C1979 C 1.01423 0.84239 0.57781 0.0
H1980 H 0.96442 0.71971 0.59167 0.0
C1981 C 0.05663 0.81345 0.57098 0.0
H1982 H 0.95127 0.8284 0.59091 0.0
C1983 C 0.06523 0.7499 0.57147 0.0
C1984 C 0.03305 0.7154 0.57906 0.0
H1985 H 0.08457 0.84026 0.56558 0.0
H1986 H 0.09701 0.72812 0.56604 0.0
C1987 C 0.98988 0.74475 0.58564 0.0
C1988 C 0.06224 0.31241 0.32149 0.0
C1989 C 0.09645 0.28031 0.32915 0.0
H1990 H 0.97204 0.33175 0.3155 0.0
C1991 C 0.06681 0.23728 0.33572 0.0
H1992 H 0.08427 0.34402 0.31607 0.0
C1993 C 1.00441 0.22824 0.33506 0.0
C1994 C 0.96943 0.26158 0.32777 0.0
H1995 H 0.09164 0.21186 0.34178 0.0
H1996 H 0.98292 0.19878 0.34092 0.0
C1997 C 0.99865 0.30387 0.32095 0.0
C1998 C 0.50705 0.25003 0.0709 0.0
C1999 C 0.5495 0.22041 0.07765 0.0
H2000 H 0.46665 0.33585 0.06622 0.0
C2001 C 0.58295 0.25494 0.08498 0.0
H2002 H 0.4791 0.22378 0.06542 0.0
C2003 C 0.57383 0.31724 0.08577 0.0
C2004 C 0.53057 0.34723 0.07929 0.0
H2005 H 0.61253 0.23312 0.09078 0.0
H2006 H 0.59933 0.34168 0.09186 0.0
C2007 C 0.4984 0.31352 0.07159 0.0
C2008 C 0.56488 0.2486 0.7276 0.0
C2009 C 0.59873 0.28025 0.71984 0.0
H2010 H 0.47496 0.22974 0.73377 0.0
C2011 C 0.56867 0.32243 0.71315 0.0
H2012 H 0.5872 0.21746 0.73308 0.0
C2013 C 0.50633 0.3315 0.71389 0.0
C2014 C 0.47176 0.29894 0.72134 0.0
H2015 H 0.59317 0.34738 0.707 0.0
H2016 H 0.48455 0.36058 0.708 0.0
C2017 C 0.50129 0.25709 0.7282 0.0
C2018 C 0.57838 0.80754 0.46383 0.0
C2019 C 0.54582 0.84311 0.47112 0.0
H2020 H 0.59428 0.71979 0.45734 0.0
C2021 C 0.50399 0.81456 0.47812 0.0
H2022 H 0.60745 0.82849 0.45785 0.0
C2023 C 0.49549 0.75094 0.4778 0.0
C2024 C 0.52718 0.71601 0.47021 0.0
H2025 H 0.47664 0.84165 0.48356 0.0
H2026 H 0.46432 0.72941 0.48337 0.0
C2027 C 0.56935 0.74513 0.46339 0.0
C2028 C 0.99927 0.81402 0.22764 0.0
C2029 C 0.96531 0.78219 0.21992 0.0
H2030 H 0.08926 0.83312 0.23375 0.0
C2031 C 0.99516 0.73939 0.21334 0.0
H2032 H 0.97706 0.84544 0.23306 0.0
C2033 C 0.05752 0.73028 0.21407 0.0
C2034 C 0.09226 0.76335 0.22143 0.0
H2035 H 0.97053 0.71418 0.20724 0.0
H2036 H 0.0792 0.70096 0.20822 0.0
C2037 C 0.06282 0.80545 0.22825 0.0
C2038 C 1.00621 0.30988 0.97819 0.0
C2039 C 0.04804 0.33969 0.97136 0.0
H2040 H 0.96663 0.2238 0.98296 0.0
C2041 C 0.08061 0.30545 0.96387 0.0
H2042 H 0.97888 0.33597 0.98378 0.0
C2043 C 0.07156 0.24318 0.96307 0.0
C2044 C 1.0294 0.21284 0.96971 0.0
H2045 H 0.10968 0.32747 0.95801 0.0
H2046 H 0.09652 0.21896 0.95688 0.0
C2047 C 0.99774 0.24635 0.97751 0.0
C2048 C 0.15911 0.06779 0.15156 0.0
C2049 C 0.15712 0.09325 0.14115 0.0
H2050 H 0.18985 0.0753 0.16778 0.0
C2051 C 0.18487 0.15032 0.13956 0.0
H2052 H 0.13867 1.02376 0.15314 0.0
C2053 C 0.21388 0.18062 0.14808 0.0
C2054 C 0.2162 0.15506 0.1585 0.0
H2055 H 0.18347 0.17241 0.13179 0.0
H2056 H 0.23437 0.22457 0.14647 0.0
C2057 C 0.18835 0.09791 0.16007 0.0
C2058 C 0.13278 0.96434 0.39759 0.0
C2059 C 0.15818 0.96705 0.40801 0.0
H2060 H 0.14133 0.93327 0.38135 0.0
C2061 C 0.21532 0.93928 0.40965 0.0
H2062 H 0.08886 0.98479 0.39592 0.0
C2063 C 0.24559 0.90969 0.40121 0.0
C2064 C 0.2203 0.90733 0.3908 0.0
H2065 H 0.23781 0.94116 0.41738 0.0
H2066 H 0.28961 0.88934 0.40284 0.0
C2067 C 0.16325 0.93499 0.38913 0.0
C2068 C 0.37421 0.96733 0.65967 0.0
C2069 C 0.34575 0.91045 0.65814 0.0
H2070 H 0.42476 0.0408 0.6527 0.0
C2071 C 0.34784 0.8847 0.64774 0.0
H2072 H 0.3729 0.99008 0.66736 0.0
C2073 C 0.37727 0.91453 0.63921 0.0
C2074 C 0.40565 0.97132 0.64076 0.0
H2075 H 0.32687 0.84096 0.64615 0.0
H2076 H 0.37847 0.89229 0.63145 0.0
C2077 C 0.40385 0.99697 0.65115 0.0
C2078 C 0.34698 0.12109 0.90994 0.0
C2079 C 0.40454 0.09408 0.90836 0.0
H2080 H 0.27206 0.16984 0.90304 0.0
C2081 C 0.42998 0.09698 0.89794 0.0
H2082 H 0.32444 0.11915 0.91766 0.0
C2083 C 0.39918 0.12566 0.88944 0.0
C2084 C 0.34171 0.15252 0.89105 0.0
H2085 H 0.47422 0.07716 0.8963 0.0
H2086 H 0.42115 0.1275 0.88166 0.0
C2087 C 0.31638 0.15005 0.90145 0.0
C2088 C 0.92898 0.96211 0.8973 0.0
C2089 C 0.90337 0.96473 0.90771 0.0
H2090 H 0.92088 0.93103 0.88105 0.0
C2091 C 0.84629 0.93677 0.9093 0.0
H2092 H 0.97288 0.98271 0.89567 0.0
C2093 C 0.81628 0.90709 0.90083 0.0
C2094 C 0.84177 0.90479 0.89044 0.0
H2095 H 0.82364 0.93855 0.91701 0.0
H2096 H 0.77228 0.88658 0.90243 0.0
C2097 C 0.89878 0.93266 0.88882 0.0
C2098 C 0.87878 0.14928 0.63903 0.0
C2099 C 0.90644 0.09222 0.64067 0.0
H2100 H 0.82897 0.22352 0.64586 0.0
C2101 C 0.90403 0.06676 0.65107 0.0
H2102 H 0.88051 0.17133 0.63126 0.0
C2103 C 0.87443 0.09688 0.65953 0.0
C2104 C 0.84669 0.15402 0.65791 0.0
H2105 H 0.92437 1.02273 0.65268 0.0
H2106 H 0.87255 0.07426 0.66724 0.0
C2107 C 0.84941 0.17958 0.64751 0.0
C2108 C 0.68827 0.14855 0.40983 0.0
C2109 C 0.65578 0.09417 0.4081 0.0
H2110 H 0.74224 0.21998 0.40306 0.0
C2111 C 0.65388 0.07077 0.39754 0.0
H2112 H 0.69011 0.16916 0.41771 0.0
C2113 C 0.68385 0.10018 0.38903 0.0
C2114 C 0.71647 0.15464 0.39073 0.0
H2115 H 0.62968 1.02887 0.39583 0.0
H2116 H 0.68181 0.07908 0.3812 0.0
C2117 C 0.71803 0.17816 0.4013 0.0
C2118 C 0.65907 0.99732 0.15103 0.0
C2119 C 0.65656 0.97166 0.14065 0.0
H2120 H 0.69047 0.99003 0.16721 0.0
C2121 C 0.68396 0.91443 0.13907 0.0
H2122 H 0.63892 0.04148 0.15259 0.0
C2123 C 0.71316 0.88418 0.14758 0.0
C2124 C 0.71603 0.90995 0.15797 0.0
H2125 H 0.68214 0.89222 0.13132 0.0
H2126 H 0.73339 0.84011 0.14598 0.0
C2127 C 0.68853 0.96726 0.15952 0.0
C2128 C 0.74682 0.65428 0.64803 0.0
C2129 C 0.72131 0.65624 0.65842 0.0
H2130 H 0.73977 0.62291 0.63185 0.0
C2131 C 0.66461 0.62779 0.66004 0.0
H2132 H 0.7906 0.67526 0.64644 0.0
C2133 C 0.63468 0.59813 0.65155 0.0
C2134 C 0.66028 0.59583 0.64115 0.0
H2135 H 0.64255 0.62914 0.66781 0.0
H2136 H 0.59099 0.57711 0.65319 0.0
C2137 C 0.7171 0.62436 0.63955 0.0
C2138 C 0.66124 0.49464 0.89775 0.0
C2139 C 0.65876 0.46912 0.90815 0.0
H2140 H 0.69208 0.48677 0.88154 0.0
C2141 C 0.6855 0.41157 0.90973 0.0
H2142 H 0.64155 0.53901 0.89618 0.0
C2143 C 0.71412 0.38091 0.90122 0.0
C2144 C 0.717 0.40655 0.89082 0.0
H2145 H 0.68364 0.38942 0.9175 0.0
H2146 H 0.73387 0.33663 0.90283 0.0
C2147 C 0.69009 0.46414 0.88925 0.0
C2148 C 0.84695 0.38462 0.14772 0.0
C2149 C 0.84416 0.41021 0.15812 0.0
H2150 H 0.87785 0.39296 0.13146 0.0
C2151 C 0.87168 0.46751 0.15971 0.0
H2152 H 0.82672 0.34057 0.1461 0.0
C2153 C 0.90108 0.49773 0.15123 0.0
C2154 C 0.90349 0.47224 0.14084 0.0
H2155 H 0.86979 0.49015 0.16741 0.0
H2156 H 0.92125 0.54186 0.15281 0.0
C2157 C 0.87609 0.41503 0.13923 0.0
C2158 C 0.92893 0.59704 0.39825 0.0
C2159 C 0.90314 0.59494 0.40865 0.0
H2160 H 0.92113 0.62705 0.38192 0.0
C2161 C 0.84594 0.62285 0.41014 0.0
H2162 H 0.97292 0.57651 0.39668 0.0
C2163 C 0.81604 0.65191 0.40157 0.0
C2164 C 0.84174 0.65366 0.39118 0.0
H2165 H 0.82315 0.6216 0.41783 0.0
H2166 H 0.77198 0.67243 0.4031 0.0
C2167 C 0.89884 0.62584 0.38967 0.0
C2168 C 0.37645 0.41396 0.40988 0.0
C2169 C 0.40281 0.47171 0.40831 0.0
H2170 H 0.32832 0.33888 0.40295 0.0
C2171 C 0.3999 0.49748 0.39794 0.0
H2172 H 0.37866 0.39165 0.41762 0.0
C2173 C 0.37098 0.46701 0.38944 0.0
C2174 C 0.34446 0.40922 0.39098 0.0
H2175 H 0.41928 0.54202 0.39639 0.0
H2176 H 0.36862 0.48984 0.38175 0.0
C2177 C 0.34778 0.38333 0.40136 0.0
C2178 C 0.40081 0.56764 0.15173 0.0
C2179 C 0.40277 0.59302 0.14132 0.0
H2180 H 0.37016 0.5753 0.16795 0.0
C2181 C 0.37512 0.65011 0.13972 0.0
H2182 H 0.42119 0.52359 0.15332 0.0
C2183 C 0.34622 0.68051 0.14823 0.0
C2184 C 0.34392 0.65503 0.15865 0.0
H2185 H 0.37652 0.67212 0.13194 0.0
H2186 H 0.32579 0.72447 0.14661 0.0
C2187 C 0.37167 0.59785 0.16023 0.0
C2188 C 0.21512 0.67601 0.90183 0.0
C2189 C 0.21704 0.65043 0.89141 0.0
H2190 H 0.18491 0.66806 0.91814 0.0
C2191 C 0.18866 0.59352 0.88988 0.0
H2192 H 0.23603 0.71977 0.90343 0.0
C2193 C 0.15926 0.5637 0.8984 0.0
C2194 C 0.15767 0.58919 0.9088 0.0
H2195 H 0.18981 0.57088 0.88217 0.0
H2196 H 0.13838 0.51986 0.89684 0.0
C2197 C 0.18598 0.64598 0.91037 0.0
C2198 C 0.16182 0.49652 0.6518 0.0
C2199 C 0.15999 0.47105 0.6414 0.0
H2200 H 0.19223 0.48899 0.66804 0.0
C2201 C 0.18762 0.41393 0.63985 0.0
H2202 H 0.14143 0.54058 0.65335 0.0
C2203 C 0.21639 0.38359 0.64839 0.0
C2204 C 0.21862 0.40916 0.65881 0.0
H2205 H 0.18631 0.39184 0.63208 0.0
H2206 H 0.2368 0.33961 0.6468 0.0
C2207 C 0.19086 0.46637 0.66034 0.0
loop_
_geom_bond_atom_site_label_1
_geom_bond_atom_site_label_2
_geom_bond_distance
_geom_bond_site_symmetry_2
_ccdc_geom_bond_type
Zn0 N4 2.020 . S
Zn0 O8 2.019 . S
Zn0 N10 2.119 . S
Zn0 O18 1.975 1_545 S
C1 N2 1.334 . S
C1 N5 1.336 . S
N2 C1 1.334 . S
N2 C3 1.334 . S
C3 N2 1.334 . S
C3 N4 1.336 . S
N4 Zn0 2.020 . S
N4 C3 1.336 . S
N4 N5 1.354 . S
N5 C1 1.336 . S
N5 N4 1.354 . S
N5 Zn9 2.020 . S
C6 O7 1.244 . S
C6 O30 1.257 . S
O7 C6 1.244 . S
O8 Zn0 2.019 . S
O8 C28 1.257 . S
Zn9 N5 2.020 . S
Zn9 O16 1.975 1_545 S
Zn9 N25 2.119 . S
Zn9 O30 2.019 . S
N10 Zn0 2.119 . S
N10 C12 1.334 . S
N10 C13 1.328 . S
C11 C12 1.391 . S
C11 N14 1.329 . S
C11 H32 0.930 . S
C12 N10 1.334 . S
C12 C11 1.391 . S
C12 H19 0.930 . S
C13 N10 1.328 . S
C13 C15 1.392 . S
C13 H20 0.930 . S
N14 C11 1.329 . S
N14 C15 1.331 . S
C15 C13 1.392 . S
C15 N14 1.331 . S
O16 Zn9 1.975 1_565 S
O16 C17 1.252 . S
C17 O16 1.252 . S
C17 O18 1.252 . S
O18 Zn0 1.975 1_565 S
O18 C17 1.252 . S
H19 C12 0.930 . S
H20 C13 0.930 . S
C21 C22 1.392 . S
C21 N25 1.328 . S
C21 H27 0.930 . S
C22 C21 1.392 . S
C22 N26 1.331 . S
C23 C24 1.391 . S
C23 N26 1.329 . S
C23 H33 0.930 . S
C24 C23 1.391 . S
C24 N25 1.334 . S
C24 H31 0.930 . S
N25 Zn9 2.119 . S
N25 C21 1.328 . S
N25 C24 1.334 . S
N26 C22 1.331 . S
N26 C23 1.329 . S
H27 C21 0.930 . S
C28 O8 1.257 . S
C28 O29 1.244 . S
O29 C28 1.244 . S
O30 C6 1.257 . S
O30 Zn9 2.019 . S
H31 C24 0.930 . S
H32 C11 0.930 . S
H33 C23 0.930 . S
Zn34 N38 2.020 . S
Zn34 O42 2.019 1_545 S
Zn34 N44 2.119 . S
Zn34 O52 1.975 . S
C35 N36 1.334 . S
C35 N39 1.336 . S
N36 C35 1.334 . S
N36 C37 1.334 . S
C37 N36 1.334 . S
C37 N38 1.336 . S
N38 Zn34 2.020 . S
N38 C37 1.336 . S
N38 N39 1.354 . S
N39 C35 1.336 . S
N39 N38 1.354 . S
N39 Zn43 2.020 . S
C40 O41 1.244 . S
C40 O64 1.257 . S
O41 C40 1.244 . S
O42 Zn34 2.019 1_565 S
O42 C62 1.257 . S
Zn43 N39 2.020 . S
Zn43 O50 1.975 . S
Zn43 N59 2.119 . S
Zn43 O64 2.019 . S
N44 Zn34 2.119 . S
N44 C46 1.334 . S
N44 C47 1.328 . S
C45 C46 1.391 . S
C45 N48 1.329 . S
C45 H66 0.930 . S
C46 N44 1.334 . S
C46 C45 1.391 . S
C46 H53 0.930 . S
C47 N44 1.328 . S
C47 C49 1.392 . S
C47 H54 0.930 1_545 S
N48 C45 1.329 . S
N48 C49 1.331 . S
C49 C47 1.392 . S
C49 N48 1.331 . S
O50 Zn43 1.975 . S
O50 C51 1.252 . S
C51 O50 1.252 . S
C51 O52 1.252 . S
O52 Zn34 1.975 . S
O52 C51 1.252 . S
H53 C46 0.930 . S
H54 C47 0.930 1_565 S
C55 C56 1.392 . S
C55 N59 1.328 . S
C55 H61 0.930 . S
C56 C55 1.392 . S
C56 N60 1.331 . S
C57 C58 1.391 . S
C57 N60 1.329 . S
C57 H67 0.930 . S
C58 C57 1.391 . S
C58 N59 1.334 . S
C58 H65 0.930 . S
N59 Zn43 2.119 . S
N59 C55 1.328 . S
N59 C58 1.334 . S
N60 C56 1.331 . S
N60 C57 1.329 . S
H61 C55 0.930 . S
C62 O42 1.257 . S
C62 O63 1.244 . S
O63 C62 1.244 . S
O64 C40 1.257 . S
O64 Zn43 2.019 . S
H65 C58 0.930 . S
H66 C45 0.930 . S
H67 C57 0.930 . S
Zn68 N72 2.020 . S
Zn68 O76 2.019 . S
Zn68 N78 2.119 . S
Zn68 O86 1.975 1_565 S
C69 N70 1.334 . S
C69 N73 1.336 . S
N70 C69 1.334 . S
N70 C71 1.334 . S
C71 N70 1.334 . S
C71 N72 1.336 . S
N72 Zn68 2.020 . S
N72 C71 1.336 . S
N72 N73 1.354 . S
N73 C69 1.336 . S
N73 N72 1.354 . S
N73 Zn77 2.020 . S
C74 O75 1.244 1_655 S
C74 O98 1.257 1_655 S
O75 C74 1.244 1_455 S
O76 Zn68 2.019 . S
O76 C96 1.257 . S
Zn77 N73 2.020 . S
Zn77 O84 1.975 1_565 S
Zn77 N93 2.119 . S
Zn77 O98 2.019 . S
N78 Zn68 2.119 . S
N78 C80 1.334 . S
N78 C81 1.328 . S
C79 C80 1.391 . S
C79 N82 1.329 . S
C79 H100 0.930 . S
C80 N78 1.334 . S
C80 C79 1.391 . S
C80 H87 0.930 . S
C81 N78 1.328 . S
C81 C83 1.392 . S
C81 H88 0.930 . S
N82 C79 1.329 . S
N82 C83 1.331 . S
C83 C81 1.392 . S
C83 N82 1.331 . S
O84 Zn77 1.975 1_545 S
O84 C85 1.252 . S
C85 O84 1.252 . S
C85 O86 1.252 . S
O86 Zn68 1.975 1_545 S
O86 C85 1.252 . S
H87 C80 0.930 . S
H88 C81 0.930 . S
C89 C90 1.392 . S
C89 N93 1.328 . S
C89 H95 0.930 . S
C90 C89 1.392 . S
C90 N94 1.331 . S
C91 C92 1.391 . S
C91 N94 1.329 . S
C91 H101 0.930 . S
C92 C91 1.391 . S
C92 N93 1.334 . S
C92 H99 0.930 . S
N93 Zn77 2.119 . S
N93 C89 1.328 . S
N93 C92 1.334 . S
N94 C90 1.331 . S
N94 C91 1.329 . S
H95 C89 0.930 . S
C96 O76 1.257 . S
C96 O97 1.244 . S
O97 C96 1.244 . S
O98 C74 1.257 1_455 S
O98 Zn77 2.019 . S
H99 C92 0.930 . S
H100 C79 0.930 . S
H101 C91 0.930 . S
Zn102 N106 2.020 . S
Zn102 O110 2.019 . S
Zn102 N112 2.119 . S
Zn102 O120 1.975 . S
C103 N104 1.334 . S
C103 N107 1.336 . S
N104 C103 1.334 . S
N104 C105 1.334 . S
C105 N104 1.334 . S
C105 N106 1.336 . S
N106 Zn102 2.020 . S
N106 C105 1.336 . S
N106 N107 1.354 . S
N107 C103 1.336 . S
N107 N106 1.354 . S
N107 Zn111 2.020 . S
C108 O109 1.244 . S
C108 O132 1.257 . S
O109 C108 1.244 . S
O110 Zn102 2.019 . S
O110 C130 1.257 . S
Zn111 N107 2.020 . S
Zn111 O118 1.975 . S
Zn111 N127 2.119 . S
Zn111 O132 2.019 1_565 S
N112 Zn102 2.119 . S
N112 C114 1.334 . S
N112 C115 1.328 . S
C113 C114 1.391 . S
C113 N116 1.329 . S
C113 H134 0.930 . S
C114 N112 1.334 . S
C114 C113 1.391 . S
C114 H121 0.930 . S
C115 N112 1.328 . S
C115 C117 1.392 . S
C115 H122 0.930 . S
N116 C113 1.329 . S
N116 C117 1.331 . S
C117 C115 1.392 . S
C117 N116 1.331 . S
O118 Zn111 1.975 . S
O118 C119 1.252 . S
C119 O118 1.252 . S
C119 O120 1.252 . S
O120 Zn102 1.975 . S
O120 C119 1.252 . S
H121 C114 0.930 . S
H122 C115 0.930 . S
C123 C124 1.392 . S
C123 N127 1.328 . S
C123 H129 0.930 1_565 S
C124 C123 1.392 . S
C124 N128 1.331 . S
C125 C126 1.391 . S
C125 N128 1.329 . S
C125 H135 0.930 . S
C126 C125 1.391 . S
C126 N127 1.334 . S
C126 H133 0.930 . S
N127 Zn111 2.119 . S
N127 C123 1.328 . S
N127 C126 1.334 . S
N128 C124 1.331 . S
N128 C125 1.329 . S
H129 C123 0.930 1_545 S
C130 O110 1.257 . S
C130 O131 1.244 . S
O131 C130 1.244 . S
O132 C108 1.257 . S
O132 Zn111 2.019 1_545 S
H133 C126 0.930 . S
H134 C113 0.930 . S
H135 C125 0.930 . S
Zn136 N140 2.020 . S
Zn136 O144 2.019 . S
Zn136 N146 2.119 . S
Zn136 O154 1.975 1_565 S
C137 N138 1.334 . S
C137 N141 1.336 . S
N138 C137 1.334 . S
N138 C139 1.334 . S
C139 N138 1.334 . S
C139 N140 1.336 . S
N140 Zn136 2.020 . S
N140 C139 1.336 . S
N140 N141 1.354 . S
N141 C137 1.336 . S
N141 N140 1.354 . S
N141 Zn145 2.020 . S
C142 O143 1.244 . S
C142 O166 1.257 . S
O143 C142 1.244 . S
O144 Zn136 2.019 . S
O144 C164 1.257 . S
Zn145 N141 2.020 . S
Zn145 O152 1.975 1_565 S
Zn145 N161 2.119 . S
Zn145 O166 2.019 . S
N146 Zn136 2.119 . S
N146 C148 1.334 . S
N146 C149 1.328 . S
C147 C148 1.391 . S
C147 N150 1.329 . S
C147 H168 0.930 . S
C148 N146 1.334 . S
C148 C147 1.391 . S
C148 H155 0.930 . S
C149 N146 1.328 . S
C149 C151 1.392 . S
C149 H156 0.930 . S
N150 C147 1.329 . S
N150 C151 1.331 . S
C151 C149 1.392 . S
C151 N150 1.331 . S
O152 Zn145 1.975 1_545 S
O152 C153 1.252 . S
C153 O152 1.252 . S
C153 O154 1.252 . S
O154 Zn136 1.975 1_545 S
O154 C153 1.252 . S
H155 C148 0.930 . S
H156 C149 0.930 . S
C157 C158 1.392 . S
C157 N161 1.328 . S
C157 H163 0.930 . S
C158 C157 1.392 . S
C158 N162 1.331 . S
C159 C160 1.391 . S
C159 N162 1.329 . S
C159 H169 0.930 . S
C160 C159 1.391 . S
C160 N161 1.334 . S
C160 H167 0.930 . S
N161 Zn145 2.119 . S
N161 C157 1.328 . S
N161 C160 1.334 . S
N162 C158 1.331 . S
N162 C159 1.329 . S
H163 C157 0.930 . S
C164 O144 1.257 . S
C164 O165 1.244 . S
O165 C164 1.244 . S
O166 C142 1.257 . S
O166 Zn145 2.019 . S
H167 C160 0.930 . S
H168 C147 0.930 . S
H169 C159 0.930 . S
Zn170 N174 2.020 . S
Zn170 O178 2.019 . S
Zn170 N180 2.119 . S
Zn170 O188 1.975 . S
C171 N172 1.334 . S
C171 N175 1.336 . S
N172 C171 1.334 . S
N172 C173 1.334 . S
C173 N172 1.334 . S
C173 N174 1.336 . S
N174 Zn170 2.020 . S
N174 C173 1.336 . S
N174 N175 1.354 . S
N175 C171 1.336 . S
N175 N174 1.354 . S
N175 Zn179 2.020 . S
C176 O177 1.244 . S
C176 O200 1.257 . S
O177 C176 1.244 . S
O178 Zn170 2.019 . S
O178 C198 1.257 . S
Zn179 N175 2.020 . S
Zn179 O186 1.975 . S
Zn179 N195 2.119 . S
Zn179 O200 2.019 1_545 S
N180 Zn170 2.119 . S
N180 C182 1.334 . S
N180 C183 1.328 . S
C181 C182 1.391 . S
C181 N184 1.329 . S
C181 H202 0.930 . S
C182 N180 1.334 . S
C182 C181 1.391 . S
C182 H189 0.930 . S
C183 N180 1.328 . S
C183 C185 1.392 . S
C183 H190 0.930 . S
N184 C181 1.329 . S
N184 C185 1.331 . S
C185 C183 1.392 . S
C185 N184 1.331 . S
O186 Zn179 1.975 . S
O186 C187 1.252 . S
C187 O186 1.252 . S
C187 O188 1.252 . S
O188 Zn170 1.975 . S
O188 C187 1.252 . S
H189 C182 0.930 . S
H190 C183 0.930 . S
C191 C192 1.392 . S
C191 N195 1.328 . S
C191 H197 0.930 1_545 S
C192 C191 1.392 . S
C192 N196 1.331 . S
C193 C194 1.391 . S
C193 N196 1.329 . S
C193 H203 0.930 . S
C194 C193 1.391 . S
C194 N195 1.334 . S
C194 H201 0.930 . S
N195 Zn179 2.119 . S
N195 C191 1.328 . S
N195 C194 1.334 . S
N196 C192 1.331 . S
N196 C193 1.329 . S
H197 C191 0.930 1_565 S
C198 O178 1.257 . S
C198 O199 1.244 . S
O199 C198 1.244 . S
O200 C176 1.257 . S
O200 Zn179 2.019 1_565 S
H201 C194 0.930 . S
H202 C181 0.930 . S
H203 C193 0.930 . S
Zn204 N208 2.020 . S
Zn204 O212 2.019 . S
Zn204 N214 2.119 . S
Zn204 O222 1.975 1_545 S
C205 N206 1.334 . S
C205 N209 1.336 . S
N206 C205 1.334 . S
N206 C207 1.334 . S
C207 N206 1.334 . S
C207 N208 1.336 . S
N208 Zn204 2.020 . S
N208 C207 1.336 . S
N208 N209 1.354 . S
N209 C205 1.336 . S
N209 N208 1.354 . S
N209 Zn213 2.020 . S
C210 O211 1.244 . S
C210 O234 1.257 . S
O211 C210 1.244 . S
O212 Zn204 2.019 . S
O212 C232 1.257 1_455 S
Zn213 N209 2.020 . S
Zn213 O220 1.975 1_545 S
Zn213 N229 2.119 . S
Zn213 O234 2.019 . S
N214 Zn204 2.119 . S
N214 C216 1.334 . S
N214 C217 1.328 . S
C215 C216 1.391 . S
C215 N218 1.329 . S
C215 H236 0.930 . S
C216 N214 1.334 . S
C216 C215 1.391 . S
C216 H223 0.930 . S
C217 N214 1.328 . S
C217 C219 1.392 . S
C217 H224 0.930 . S
N218 C215 1.329 . S
N218 C219 1.331 . S
C219 C217 1.392 . S
C219 N218 1.331 . S
O220 Zn213 1.975 1_565 S
O220 C221 1.252 . S
C221 O220 1.252 . S
C221 O222 1.252 . S
O222 Zn204 1.975 1_565 S
O222 C221 1.252 . S
H223 C216 0.930 . S
H224 C217 0.930 . S
C225 C226 1.392 . S
C225 N229 1.328 . S
C225 H231 0.930 . S
C226 C225 1.392 . S
C226 N230 1.331 . S
C227 C228 1.391 . S
C227 N230 1.329 . S
C227 H237 0.930 . S
C228 C227 1.391 . S
C228 N229 1.334 . S
C228 H235 0.930 . S
N229 Zn213 2.119 . S
N229 C225 1.328 . S
N229 C228 1.334 . S
N230 C226 1.331 . S
N230 C227 1.329 . S
H231 C225 0.930 . S
C232 O212 1.257 1_655 S
C232 O233 1.244 1_655 S
O233 C232 1.244 1_455 S
O234 C210 1.257 . S
O234 Zn213 2.019 . S
H235 C228 0.930 . S
H236 C215 0.930 . S
H237 C227 0.930 . S
Zn238 N242 2.020 . S
Zn238 O246 2.019 . S
Zn238 N248 2.119 . S
Zn238 O256 1.975 . S
C239 N240 1.334 . S
C239 N243 1.336 . S
N240 C239 1.334 . S
N240 C241 1.334 . S
C241 N240 1.334 . S
C241 N242 1.336 . S
N242 Zn238 2.020 . S
N242 C241 1.336 . S
N242 N243 1.354 . S
N243 C239 1.336 . S
N243 N242 1.354 . S
N243 Zn247 2.020 . S
C244 O245 1.244 . S
C244 O268 1.257 . S
O245 C244 1.244 . S
O246 Zn238 2.019 . S
O246 C266 1.257 . S
Zn247 N243 2.020 . S
Zn247 O254 1.975 . S
Zn247 N263 2.119 . S
Zn247 O268 2.019 1_565 S
N248 Zn238 2.119 . S
N248 C250 1.334 . S
N248 C251 1.328 . S
C249 C250 1.391 . S
C249 N252 1.329 . S
C249 H270 0.930 . S
C250 N248 1.334 . S
C250 C249 1.391 . S
C250 H257 0.930 . S
C251 N248 1.328 . S
C251 C253 1.392 . S
C251 H258 0.930 . S
N252 C249 1.329 . S
N252 C253 1.331 . S
C253 C251 1.392 . S
C253 N252 1.331 . S
O254 Zn247 1.975 . S
O254 C255 1.252 . S
C255 O254 1.252 . S
C255 O256 1.252 . S
O256 Zn238 1.975 . S
O256 C255 1.252 . S
H257 C250 0.930 . S
H258 C251 0.930 . S
C259 C260 1.392 . S
C259 N263 1.328 . S
C259 H265 0.930 1_565 S
C260 C259 1.392 . S
C260 N264 1.331 . S
C261 C262 1.391 . S
C261 N264 1.329 . S
C261 H271 0.930 . S
C262 C261 1.391 . S
C262 N263 1.334 . S
C262 H269 0.930 . S
N263 Zn247 2.119 . S
N263 C259 1.328 . S
N263 C262 1.334 . S
N264 C260 1.331 . S
N264 C261 1.329 . S
H265 C259 0.930 1_545 S
C266 O246 1.257 . S
C266 O267 1.244 . S
O267 C266 1.244 . S
O268 C244 1.257 . S
O268 Zn247 2.019 1_545 S
H269 C262 0.930 . S
H270 C249 0.930 . S
H271 C261 0.930 . S
Zn272 N276 2.020 . S
Zn272 O280 2.019 . S
Zn272 N282 2.119 . S
Zn272 O290 1.975 1_565 S
C273 N274 1.334 . S
C273 N277 1.336 . S
N274 C273 1.334 . S
N274 C275 1.334 . S
C275 N274 1.334 . S
C275 N276 1.336 . S
N276 Zn272 2.020 . S
N276 C275 1.336 . S
N276 N277 1.354 . S
N277 C273 1.336 . S
N277 N276 1.354 . S
N277 Zn281 2.020 . S
C278 O279 1.244 . S
C278 O302 1.257 . S
O279 C278 1.244 . S
O280 Zn272 2.019 . S
O280 C300 1.257 . S
Zn281 N277 2.020 . S
Zn281 O288 1.975 1_565 S
Zn281 N297 2.119 . S
Zn281 O302 2.019 . S
N282 Zn272 2.119 . S
N282 C284 1.334 . S
N282 C285 1.328 . S
C283 C284 1.391 . S
C283 N286 1.329 . S
C283 H304 0.930 . S
C284 N282 1.334 . S
C284 C283 1.391 . S
C284 H291 0.930 . S
C285 N282 1.328 . S
C285 C287 1.392 . S
C285 H292 0.930 . S
N286 C283 1.329 . S
N286 C287 1.331 . S
C287 C285 1.392 . S
C287 N286 1.331 . S
O288 Zn281 1.975 1_545 S
O288 C289 1.252 . S
C289 O288 1.252 . S
C289 O290 1.252 . S
O290 Zn272 1.975 1_545 S
O290 C289 1.252 . S
H291 C284 0.930 . S
H292 C285 0.930 . S
C293 C294 1.392 . S
C293 N297 1.328 . S
C293 H299 0.930 . S
C294 C293 1.392 . S
C294 N298 1.331 . S
C295 C296 1.391 . S
C295 N298 1.329 . S
C295 H305 0.930 . S
C296 C295 1.391 . S
C296 N297 1.334 . S
C296 H303 0.930 . S
N297 Zn281 2.119 . S
N297 C293 1.328 . S
N297 C296 1.334 . S
N298 C294 1.331 . S
N298 C295 1.329 . S
H299 C293 0.930 . S
C300 O280 1.257 . S
C300 O301 1.244 . S
O301 C300 1.244 . S
O302 C278 1.257 . S
O302 Zn281 2.019 . S
H303 C296 0.930 . S
H304 C283 0.930 . S
H305 C295 0.930 . S
Zn306 N310 2.020 . S
Zn306 O314 2.019 . S
Zn306 N316 2.119 . S
Zn306 O324 1.975 . S
C307 N308 1.334 . S
C307 N311 1.336 . S
N308 C307 1.334 . S
N308 C309 1.334 . S
C309 N308 1.334 . S
C309 N310 1.336 . S
N310 Zn306 2.020 . S
N310 C309 1.336 . S
N310 N311 1.354 . S
N311 C307 1.336 . S
N311 N310 1.354 . S
N311 Zn315 2.020 . S
C312 O313 1.244 . S
C312 O336 1.257 . S
O313 C312 1.244 . S
O314 Zn306 2.019 . S
O314 C334 1.257 . S
Zn315 N311 2.020 . S
Zn315 O322 1.975 . S
Zn315 N331 2.119 . S
Zn315 O336 2.019 1_565 S
N316 Zn306 2.119 . S
N316 C318 1.334 . S
N316 C319 1.328 . S
C317 C318 1.391 . S
C317 N320 1.329 . S
C317 H338 0.930 . S
C318 N316 1.334 . S
C318 C317 1.391 . S
C318 H325 0.930 . S
C319 N316 1.328 . S
C319 C321 1.392 . S
C319 H326 0.930 . S
N320 C317 1.329 . S
N320 C321 1.331 . S
C321 C319 1.392 . S
C321 N320 1.331 . S
O322 Zn315 1.975 . S
O322 C323 1.252 . S
C323 O322 1.252 . S
C323 O324 1.252 . S
O324 Zn306 1.975 . S
O324 C323 1.252 . S
H325 C318 0.930 . S
H326 C319 0.930 . S
C327 C328 1.392 . S
C327 N331 1.328 . S
C327 H333 0.930 1_565 S
C328 C327 1.392 . S
C328 N332 1.331 . S
C329 C330 1.391 . S
C329 N332 1.329 . S
C329 H339 0.930 . S
C330 C329 1.391 . S
C330 N331 1.334 . S
C330 H337 0.930 . S
N331 Zn315 2.119 . S
N331 C327 1.328 . S
N331 C330 1.334 . S
N332 C328 1.331 . S
N332 C329 1.329 . S
H333 C327 0.930 1_545 S
C334 O314 1.257 . S
C334 O335 1.244 . S
O335 C334 1.244 . S
O336 C312 1.257 . S
O336 Zn315 2.019 1_545 S
H337 C330 0.930 . S
H338 C317 0.930 . S
H339 C329 0.930 . S
Zn340 N344 2.020 . S
Zn340 O348 2.019 . S
Zn340 N350 2.119 . S
Zn340 O358 1.975 1_545 S
C341 N342 1.334 . S
C341 N345 1.336 . S
N342 C341 1.334 . S
N342 C343 1.334 . S
C343 N342 1.334 . S
C343 N344 1.336 . S
N344 Zn340 2.020 . S
N344 C343 1.336 . S
N344 N345 1.354 . S
N345 C341 1.336 . S
N345 N344 1.354 . S
N345 Zn349 2.020 . S
C346 O347 1.244 . S
C346 O370 1.257 . S
O347 C346 1.244 . S
O348 Zn340 2.019 . S
O348 C368 1.257 1_655 S
Zn349 N345 2.020 . S
Zn349 O356 1.975 1_545 S
Zn349 N365 2.119 . S
Zn349 O370 2.019 . S
N350 Zn340 2.119 . S
N350 C352 1.334 . S
N350 C353 1.328 . S
C351 C352 1.391 . S
C351 N354 1.329 . S
C351 H372 0.930 . S
C352 N350 1.334 . S
C352 C351 1.391 . S
C352 H359 0.930 . S
C353 N350 1.328 . S
C353 C355 1.392 . S
C353 H360 0.930 . S
N354 C351 1.329 . S
N354 C355 1.331 . S
C355 C353 1.392 . S
C355 N354 1.331 . S
O356 Zn349 1.975 1_565 S
O356 C357 1.252 . S
C357 O356 1.252 . S
C357 O358 1.252 . S
O358 Zn340 1.975 1_565 S
O358 C357 1.252 . S
H359 C352 0.930 . S
H360 C353 0.930 . S
C361 C362 1.392 . S
C361 N365 1.328 . S
C361 H367 0.930 . S
C362 C361 1.392 . S
C362 N366 1.331 . S
C363 C364 1.391 . S
C363 N366 1.329 . S
C363 H373 0.930 . S
C364 C363 1.391 . S
C364 N365 1.334 . S
C364 H371 0.930 . S
N365 Zn349 2.119 . S
N365 C361 1.328 . S
N365 C364 1.334 . S
N366 C362 1.331 . S
N366 C363 1.329 . S
H367 C361 0.930 . S
C368 O348 1.257 1_455 S
C368 O369 1.244 1_455 S
O369 C368 1.244 1_655 S
O370 C346 1.257 . S
O370 Zn349 2.019 . S
H371 C364 0.930 . S
H372 C351 0.930 . S
H373 C363 0.930 . S
Zn374 N378 2.020 . S
Zn374 O382 2.019 1_545 S
Zn374 N384 2.119 . S
Zn374 O392 1.975 . S
C375 N376 1.334 . S
C375 N379 1.336 . S
N376 C375 1.334 . S
N376 C377 1.334 . S
C377 N376 1.334 . S
C377 N378 1.336 . S
N378 Zn374 2.020 . S
N378 C377 1.336 . S
N378 N379 1.354 . S
N379 C375 1.336 . S
N379 N378 1.354 . S
N379 Zn383 2.020 . S
C380 O381 1.244 . S
C380 O404 1.257 . S
O381 C380 1.244 . S
O382 Zn374 2.019 1_565 S
O382 C402 1.257 . S
Zn383 N379 2.020 . S
Zn383 O390 1.975 . S
Zn383 N399 2.119 . S
Zn383 O404 2.019 . S
N384 Zn374 2.119 . S
N384 C386 1.334 . S
N384 C387 1.328 . S
C385 C386 1.391 . S
C385 N388 1.329 . S
C385 H406 0.930 . S
C386 N384 1.334 . S
C386 C385 1.391 . S
C386 H393 0.930 . S
C387 N384 1.328 . S
C387 C389 1.392 . S
C387 H394 0.930 1_545 S
N388 C385 1.329 . S
N388 C389 1.331 . S
C389 C387 1.392 . S
C389 N388 1.331 . S
O390 Zn383 1.975 . S
O390 C391 1.252 . S
C391 O390 1.252 . S
C391 O392 1.252 . S
O392 Zn374 1.975 . S
O392 C391 1.252 . S
H393 C386 0.930 . S
H394 C387 0.930 1_565 S
C395 C396 1.392 . S
C395 N399 1.328 . S
C395 H401 0.930 . S
C396 C395 1.392 . S
C396 N400 1.331 . S
C397 C398 1.391 . S
C397 N400 1.329 . S
C397 H407 0.930 . S
C398 C397 1.391 . S
C398 N399 1.334 . S
C398 H405 0.930 . S
N399 Zn383 2.119 . S
N399 C395 1.328 . S
N399 C398 1.334 . S
N400 C396 1.331 . S
N400 C397 1.329 . S
H401 C395 0.930 . S
C402 O382 1.257 . S
C402 O403 1.244 . S
O403 C402 1.244 . S
O404 C380 1.257 . S
O404 Zn383 2.019 . S
H405 C398 0.930 . S
H406 C385 0.930 . S
H407 C397 0.930 . S
Zn408 N412 2.020 . S
Zn408 O416 2.019 . S
Zn408 N418 2.119 . S
Zn408 O426 1.975 1_545 S
C409 N410 1.334 . S
C409 N413 1.336 . S
N410 C409 1.334 . S
N410 C411 1.334 . S
C411 N410 1.334 . S
C411 N412 1.336 . S
N412 Zn408 2.020 . S
N412 C411 1.336 . S
N412 N413 1.354 . S
N413 C409 1.336 . S
N413 N412 1.354 . S
N413 Zn417 2.020 . S
C414 O415 1.244 . S
C414 O438 1.257 . S
O415 C414 1.244 . S
O416 Zn408 2.019 . S
O416 C436 1.257 . S
Zn417 N413 2.020 . S
Zn417 O424 1.975 1_545 S
Zn417 N433 2.119 . S
Zn417 O438 2.019 . S
N418 Zn408 2.119 . S
N418 C420 1.334 . S
N418 C421 1.328 . S
C419 C420 1.391 . S
C419 N422 1.329 . S
C419 H440 0.930 . S
C420 N418 1.334 . S
C420 C419 1.391 . S
C420 H427 0.930 . S
C421 N418 1.328 . S
C421 C423 1.392 . S
C421 H428 0.930 . S
N422 C419 1.329 . S
N422 C423 1.331 . S
C423 C421 1.392 . S
C423 N422 1.331 . S
O424 Zn417 1.975 1_565 S
O424 C425 1.252 . S
C425 O424 1.252 . S
C425 O426 1.252 . S
O426 Zn408 1.975 1_565 S
O426 C425 1.252 . S
H427 C420 0.930 . S
H428 C421 0.930 . S
C429 C430 1.392 . S
C429 N433 1.328 . S
C429 H435 0.930 . S
C430 C429 1.392 . S
C430 N434 1.331 . S
C431 C432 1.391 . S
C431 N434 1.329 . S
C431 H441 0.930 . S
C432 C431 1.391 . S
C432 N433 1.334 . S
C432 H439 0.930 . S
N433 Zn417 2.119 . S
N433 C429 1.328 . S
N433 C432 1.334 . S
N434 C430 1.331 . S
N434 C431 1.329 . S
H435 C429 0.930 . S
C436 O416 1.257 . S
C436 O437 1.244 . S
O437 C436 1.244 . S
O438 C414 1.257 . S
O438 Zn417 2.019 . S
H439 C432 0.930 . S
H440 C419 0.930 . S
H441 C431 0.930 . S
Zn442 N446 2.020 . S
Zn442 O450 2.019 . S
Zn442 N452 2.119 . S
Zn442 O460 1.975 . S
C443 N444 1.334 . S
C443 N447 1.336 . S
N444 C443 1.334 . S
N444 C445 1.334 . S
C445 N444 1.334 . S
C445 N446 1.336 . S
N446 Zn442 2.020 . S
N446 C445 1.336 . S
N446 N447 1.354 . S
N447 C443 1.336 . S
N447 N446 1.354 . S
N447 Zn451 2.020 . S
C448 O449 1.244 . S
C448 O472 1.257 . S
O449 C448 1.244 . S
O450 Zn442 2.019 . S
O450 C470 1.257 . S
Zn451 N447 2.020 . S
Zn451 O458 1.975 . S
Zn451 N467 2.119 . S
Zn451 O472 2.019 1_565 S
N452 Zn442 2.119 . S
N452 C454 1.334 . S
N452 C455 1.328 . S
C453 C454 1.391 . S
C453 N456 1.329 . S
C453 H474 0.930 . S
C454 N452 1.334 . S
C454 C453 1.391 . S
C454 H461 0.930 . S
C455 N452 1.328 . S
C455 C457 1.392 . S
C455 H462 0.930 . S
N456 C453 1.329 . S
N456 C457 1.331 . S
C457 C455 1.392 . S
C457 N456 1.331 . S
O458 Zn451 1.975 . S
O458 C459 1.252 . S
C459 O458 1.252 . S
C459 O460 1.252 . S
O460 Zn442 1.975 . S
O460 C459 1.252 . S
H461 C454 0.930 . S
H462 C455 0.930 . S
C463 C464 1.392 . S
C463 N467 1.328 . S
C463 H469 0.930 1_565 S
C464 C463 1.392 . S
C464 N468 1.331 . S
C465 C466 1.391 . S
C465 N468 1.329 . S
C465 H475 0.930 . S
C466 C465 1.391 . S
C466 N467 1.334 . S
C466 H473 0.930 . S
N467 Zn451 2.119 . S
N467 C463 1.328 . S
N467 C466 1.334 . S
N468 C464 1.331 . S
N468 C465 1.329 . S
H469 C463 0.930 1_545 S
C470 O450 1.257 . S
C470 O471 1.244 . S
O471 C470 1.244 . S
O472 C448 1.257 . S
O472 Zn451 2.019 1_545 S
H473 C466 0.930 . S
H474 C453 0.930 . S
H475 C465 0.930 . S
Zn476 N480 2.020 . S
Zn476 O484 2.019 . S
Zn476 N486 2.119 . S
Zn476 O494 1.975 1_565 S
C477 N478 1.334 . S
C477 N481 1.336 . S
N478 C477 1.334 . S
N478 C479 1.334 . S
C479 N478 1.334 . S
C479 N480 1.336 . S
N480 Zn476 2.020 . S
N480 C479 1.336 . S
N480 N481 1.354 . S
N481 C477 1.336 . S
N481 N480 1.354 . S
N481 Zn485 2.020 . S
C482 O483 1.244 . S
C482 O506 1.257 . S
O483 C482 1.244 . S
O484 Zn476 2.019 . S
O484 C504 1.257 1_655 S
Zn485 N481 2.020 . S
Zn485 O492 1.975 1_565 S
Zn485 N501 2.119 . S
Zn485 O506 2.019 . S
N486 Zn476 2.119 . S
N486 C488 1.334 . S
N486 C489 1.328 . S
C487 C488 1.391 . S
C487 N490 1.329 . S
C487 H508 0.930 . S
C488 N486 1.334 . S
C488 C487 1.391 . S
C488 H495 0.930 . S
C489 N486 1.328 . S
C489 C491 1.392 . S
C489 H496 0.930 . S
N490 C487 1.329 . S
N490 C491 1.331 . S
C491 C489 1.392 . S
C491 N490 1.331 . S
O492 Zn485 1.975 1_545 S
O492 C493 1.252 . S
C493 O492 1.252 . S
C493 O494 1.252 . S
O494 Zn476 1.975 1_545 S
O494 C493 1.252 . S
H495 C488 0.930 . S
H496 C489 0.930 . S
C497 C498 1.392 . S
C497 N501 1.328 . S
C497 H503 0.930 . S
C498 C497 1.392 . S
C498 N502 1.331 . S
C499 C500 1.391 . S
C499 N502 1.329 . S
C499 H509 0.930 . S
C500 C499 1.391 . S
C500 N501 1.334 . S
C500 H507 0.930 . S
N501 Zn485 2.119 . S
N501 C497 1.328 . S
N501 C500 1.334 . S
N502 C498 1.331 . S
N502 C499 1.329 . S
H503 C497 0.930 . S
C504 O484 1.257 1_455 S
C504 O505 1.244 1_455 S
O505 C504 1.244 1_655 S
O506 C482 1.257 . S
O506 Zn485 2.019 . S
H507 C500 0.930 . S
H508 C487 0.930 . S
H509 C499 0.930 . S
Zn510 N514 2.020 . S
Zn510 O518 2.019 . S
Zn510 N520 2.119 . S
Zn510 O528 1.975 . S
C511 N512 1.334 . S
C511 N515 1.336 . S
N512 C511 1.334 . S
N512 C513 1.334 . S
C513 N512 1.334 . S
C513 N514 1.336 . S
N514 Zn510 2.020 . S
N514 C513 1.336 . S
N514 N515 1.354 . S
N515 C511 1.336 . S
N515 N514 1.354 . S
N515 Zn519 2.020 . S
C516 O517 1.244 . S
C516 O540 1.257 . S
O517 C516 1.244 . S
O518 Zn510 2.019 . S
O518 C538 1.257 . S
Zn519 N515 2.020 . S
Zn519 O526 1.975 . S
Zn519 N535 2.119 . S
Zn519 O540 2.019 1_545 S
N520 Zn510 2.119 . S
N520 C522 1.334 . S
N520 C523 1.328 . S
C521 C522 1.391 . S
C521 N524 1.329 . S
C521 H542 0.930 . S
C522 N520 1.334 . S
C522 C521 1.391 . S
C522 H529 0.930 . S
C523 N520 1.328 . S
C523 C525 1.392 . S
C523 H530 0.930 . S
N524 C521 1.329 . S
N524 C525 1.331 . S
C525 C523 1.392 . S
C525 N524 1.331 . S
O526 Zn519 1.975 . S
O526 C527 1.252 . S
C527 O526 1.252 . S
C527 O528 1.252 . S
O528 Zn510 1.975 . S
O528 C527 1.252 . S
H529 C522 0.930 . S
H530 C523 0.930 . S
C531 C532 1.392 . S
C531 N535 1.328 . S
C531 H537 0.930 1_545 S
C532 C531 1.392 . S
C532 N536 1.331 . S
C533 C534 1.391 . S
C533 N536 1.329 . S
C533 H543 0.930 . S
C534 C533 1.391 . S
C534 N535 1.334 . S
C534 H541 0.930 . S
N535 Zn519 2.119 . S
N535 C531 1.328 . S
N535 C534 1.334 . S
N536 C532 1.331 . S
N536 C533 1.329 . S
H537 C531 0.930 1_565 S
C538 O518 1.257 . S
C538 O539 1.244 . S
O539 C538 1.244 . S
O540 C516 1.257 . S
O540 Zn519 2.019 1_565 S
H541 C534 0.930 . S
H542 C521 0.930 . S
H543 C533 0.930 . S
Zn544 N548 2.020 . S
Zn544 O552 2.019 . S
Zn544 N554 2.119 . S
Zn544 O562 1.975 . S
C545 N546 1.334 . S
C545 N549 1.336 . S
N546 C545 1.334 . S
N546 C547 1.334 . S
C547 N546 1.334 . S
C547 N548 1.336 . S
N548 Zn544 2.020 . S
N548 C547 1.336 . S
N548 N549 1.354 . S
N549 C545 1.336 . S
N549 N548 1.354 . S
N549 Zn553 2.020 . S
C550 O551 1.244 1_455 S
C550 O574 1.257 1_455 S
O551 C550 1.244 1_655 S
O552 Zn544 2.019 . S
O552 C572 1.257 . S
Zn553 N549 2.020 . S
Zn553 O560 1.975 . S
Zn553 N569 2.119 . S
Zn553 O574 2.019 . S
N554 Zn544 2.119 . S
N554 C556 1.334 . S
N554 C557 1.328 . S
C555 C556 1.391 . S
C555 N558 1.329 . S
C555 H576 0.930 . S
C556 N554 1.334 . S
C556 C555 1.391 . S
C556 H563 0.930 . S
C557 N554 1.328 . S
C557 C559 1.392 . S
C557 H564 0.930 . S
N558 C555 1.329 . S
N558 C559 1.331 . S
C559 C557 1.392 . S
C559 N558 1.331 . S
O560 Zn553 1.975 . S
O560 C561 1.252 . S
C561 O560 1.252 . S
C561 O562 1.252 . S
O562 Zn544 1.975 . S
O562 C561 1.252 . S
H563 C556 0.930 . S
H564 C557 0.930 . S
C565 C566 1.392 . S
C565 N569 1.328 . S
C565 H571 0.930 . S
C566 C565 1.392 . S
C566 N570 1.331 . S
C567 C568 1.391 . S
C567 N570 1.329 . S
C567 H577 0.930 . S
C568 C567 1.391 . S
C568 N569 1.334 . S
C568 H575 0.930 . S
N569 Zn553 2.119 . S
N569 C565 1.328 . S
N569 C568 1.334 . S
N570 C566 1.331 . S
N570 C567 1.329 . S
H571 C565 0.930 . S
C572 O552 1.257 . S
C572 O573 1.244 . S
O573 C572 1.244 . S
O574 C550 1.257 1_655 S
O574 Zn553 2.019 . S
H575 C568 0.930 . S
H576 C555 0.930 . S
H577 C567 0.930 . S
Zn578 N582 2.020 . S
Zn578 O586 2.019 . S
Zn578 N588 2.119 . S
Zn578 O596 1.975 . S
C579 N580 1.334 . S
C579 N583 1.336 . S
N580 C579 1.334 . S
N580 C581 1.334 . S
C581 N580 1.334 . S
C581 N582 1.336 . S
N582 Zn578 2.020 . S
N582 C581 1.336 . S
N582 N583 1.354 . S
N583 C579 1.336 . S
N583 N582 1.354 . S
N583 Zn587 2.020 . S
C584 O585 1.244 . S
C584 O608 1.257 . S
O585 C584 1.244 . S
O586 Zn578 2.019 . S
O586 C606 1.257 . S
Zn587 N583 2.020 . S
Zn587 O594 1.975 . S
Zn587 N603 2.119 . S
Zn587 O608 2.019 . S
N588 Zn578 2.119 . S
N588 C590 1.334 . S
N588 C591 1.328 . S
C589 C590 1.391 . S
C589 N592 1.329 . S
C589 H610 0.930 . S
C590 N588 1.334 . S
C590 C589 1.391 . S
C590 H597 0.930 . S
C591 N588 1.328 . S
C591 C593 1.392 . S
C591 H598 0.930 . S
N592 C589 1.329 . S
N592 C593 1.331 . S
C593 C591 1.392 . S
C593 N592 1.331 . S
O594 Zn587 1.975 . S
O594 C595 1.252 . S
C595 O594 1.252 . S
C595 O596 1.252 . S
O596 Zn578 1.975 . S
O596 C595 1.252 . S
H597 C590 0.930 . S
H598 C591 0.930 . S
C599 C600 1.392 . S
C599 N603 1.328 . S
C599 H605 0.930 . S
C600 C599 1.392 . S
C600 N604 1.331 . S
C601 C602 1.391 . S
C601 N604 1.329 . S
C601 H611 0.930 . S
C602 C601 1.391 . S
C602 N603 1.334 . S
C602 H609 0.930 . S
N603 Zn587 2.119 . S
N603 C599 1.328 . S
N603 C602 1.334 . S
N604 C600 1.331 . S
N604 C601 1.329 . S
H605 C599 0.930 . S
C606 O586 1.257 . S
C606 O607 1.244 . S
O607 C606 1.244 . S
O608 C584 1.257 . S
O608 Zn587 2.019 . S
H609 C602 0.930 . S
H610 C589 0.930 . S
H611 C601 0.930 . S
Zn612 N616 2.020 . S
Zn612 O620 2.019 . S
Zn612 N622 2.119 . S
Zn612 O630 1.975 . S
C613 N614 1.334 . S
C613 N617 1.336 . S
N614 C613 1.334 . S
N614 C615 1.334 . S
C615 N614 1.334 . S
C615 N616 1.336 . S
N616 Zn612 2.020 . S
N616 C615 1.336 . S
N616 N617 1.354 . S
N617 C613 1.336 . S
N617 N616 1.354 . S
N617 Zn621 2.020 . S
C618 O619 1.244 . S
C618 O642 1.257 . S
O619 C618 1.244 . S
O620 Zn612 2.019 . S
O620 C640 1.257 . S
Zn621 N617 2.020 . S
Zn621 O628 1.975 . S
Zn621 N637 2.119 . S
Zn621 O642 2.019 . S
N622 Zn612 2.119 . S
N622 C624 1.334 . S
N622 C625 1.328 . S
C623 C624 1.391 . S
C623 N626 1.329 . S
C623 H644 0.930 . S
C624 N622 1.334 . S
C624 C623 1.391 . S
C624 H631 0.930 . S
C625 N622 1.328 . S
C625 C627 1.392 . S
C625 H632 0.930 . S
N626 C623 1.329 . S
N626 C627 1.331 . S
C627 C625 1.392 . S
C627 N626 1.331 . S
O628 Zn621 1.975 . S
O628 C629 1.252 . S
C629 O628 1.252 . S
C629 O630 1.252 . S
O630 Zn612 1.975 . S
O630 C629 1.252 . S
H631 C624 0.930 . S
H632 C625 0.930 . S
C633 C634 1.392 . S
C633 N637 1.328 . S
C633 H639 0.930 . S
C634 C633 1.392 . S
C634 N638 1.331 . S
C635 C636 1.391 . S
C635 N638 1.329 . S
C635 H645 0.930 . S
C636 C635 1.391 . S
C636 N637 1.334 . S
C636 H643 0.930 . S
N637 Zn621 2.119 . S
N637 C633 1.328 . S
N637 C636 1.334 . S
N638 C634 1.331 . S
N638 C635 1.329 . S
H639 C633 0.930 . S
C640 O620 1.257 . S
C640 O641 1.244 . S
O641 C640 1.244 . S
O642 C618 1.257 . S
O642 Zn621 2.019 . S
H643 C636 0.930 . S
H644 C623 0.930 . S
H645 C635 0.930 . S
Zn646 N650 2.020 . S
Zn646 O654 2.019 . S
Zn646 N656 2.119 . S
Zn646 O664 1.975 . S
C647 N648 1.334 . S
C647 N651 1.336 . S
N648 C647 1.334 . S
N648 C649 1.334 . S
C649 N648 1.334 . S
C649 N650 1.336 . S
N650 Zn646 2.020 . S
N650 C649 1.336 . S
N650 N651 1.354 . S
N651 C647 1.336 . S
N651 N650 1.354 . S
N651 Zn655 2.020 . S
C652 O653 1.244 . S
C652 O676 1.257 . S
O653 C652 1.244 . S
O654 Zn646 2.019 . S
O654 C674 1.257 . S
Zn655 N651 2.020 . S
Zn655 O662 1.975 . S
Zn655 N671 2.119 . S
Zn655 O676 2.019 . S
N656 Zn646 2.119 . S
N656 C658 1.334 . S
N656 C659 1.328 . S
C657 C658 1.391 . S
C657 N660 1.329 . S
C657 H678 0.930 . S
C658 N656 1.334 . S
C658 C657 1.391 . S
C658 H665 0.930 . S
C659 N656 1.328 . S
C659 C661 1.392 . S
C659 H666 0.930 . S
N660 C657 1.329 . S
N660 C661 1.331 . S
C661 C659 1.392 . S
C661 N660 1.331 . S
O662 Zn655 1.975 . S
O662 C663 1.252 . S
C663 O662 1.252 . S
C663 O664 1.252 . S
O664 Zn646 1.975 . S
O664 C663 1.252 . S
H665 C658 0.930 . S
H666 C659 0.930 . S
C667 C668 1.392 . S
C667 N671 1.328 . S
C667 H673 0.930 . S
C668 C667 1.392 . S
C668 N672 1.331 . S
C669 C670 1.391 . S
C669 N672 1.329 . S
C669 H679 0.930 . S
C670 C669 1.391 . S
C670 N671 1.334 . S
C670 H677 0.930 . S
N671 Zn655 2.119 . S
N671 C667 1.328 . S
N671 C670 1.334 . S
N672 C668 1.331 . S
N672 C669 1.329 . S
H673 C667 0.930 . S
C674 O654 1.257 . S
C674 O675 1.244 . S
O675 C674 1.244 . S
O676 C652 1.257 . S
O676 Zn655 2.019 . S
H677 C670 0.930 . S
H678 C657 0.930 . S
H679 C669 0.930 . S
Zn680 N684 2.020 . S
Zn680 O688 2.019 . S
Zn680 N690 2.119 . S
Zn680 O698 1.975 . S
C681 N682 1.334 . S
C681 N685 1.336 . S
N682 C681 1.334 . S
N682 C683 1.334 . S
C683 N682 1.334 . S
C683 N684 1.336 . S
N684 Zn680 2.020 . S
N684 C683 1.336 . S
N684 N685 1.354 . S
N685 C681 1.336 . S
N685 N684 1.354 . S
N685 Zn689 2.020 . S
C686 O687 1.244 . S
C686 O710 1.257 . S
O687 C686 1.244 . S
O688 Zn680 2.019 . S
O688 C708 1.257 1_655 S
Zn689 N685 2.020 . S
Zn689 O696 1.975 . S
Zn689 N705 2.119 . S
Zn689 O710 2.019 . S
N690 Zn680 2.119 . S
N690 C692 1.334 . S
N690 C693 1.328 . S
C691 C692 1.391 . S
C691 N694 1.329 . S
C691 H712 0.930 . S
C692 N690 1.334 . S
C692 C691 1.391 . S
C692 H699 0.930 . S
C693 N690 1.328 . S
C693 C695 1.392 . S
C693 H700 0.930 . S
N694 C691 1.329 . S
N694 C695 1.331 . S
C695 C693 1.392 . S
C695 N694 1.331 . S
O696 Zn689 1.975 . S
O696 C697 1.252 . S
C697 O696 1.252 . S
C697 O698 1.252 . S
O698 Zn680 1.975 . S
O698 C697 1.252 . S
H699 C692 0.930 . S
H700 C693 0.930 . S
C701 C702 1.392 . S
C701 N705 1.328 . S
C701 H707 0.930 . S
C702 C701 1.392 . S
C702 N706 1.331 . S
C703 C704 1.391 . S
C703 N706 1.329 . S
C703 H713 0.930 . S
C704 C703 1.391 . S
C704 N705 1.334 . S
C704 H711 0.930 . S
N705 Zn689 2.119 . S
N705 C701 1.328 . S
N705 C704 1.334 . S
N706 C702 1.331 . S
N706 C703 1.329 . S
H707 C701 0.930 . S
C708 O688 1.257 1_455 S
C708 O709 1.244 1_455 S
O709 C708 1.244 1_655 S
O710 C686 1.257 . S
O710 Zn689 2.019 . S
H711 C704 0.930 . S
H712 C691 0.930 . S
H713 C703 0.930 . S
Zn714 N718 2.020 . S
Zn714 O722 2.019 . S
Zn714 N724 2.119 . S
Zn714 O732 1.975 . S
C715 N716 1.334 . S
C715 N719 1.336 . S
N716 C715 1.334 . S
N716 C717 1.334 . S
C717 N716 1.334 . S
C717 N718 1.336 . S
N718 Zn714 2.020 . S
N718 C717 1.336 . S
N718 N719 1.354 . S
N719 C715 1.336 . S
N719 N718 1.354 . S
N719 Zn723 2.020 . S
C720 O721 1.244 . S
C720 O744 1.257 . S
O721 C720 1.244 . S
O722 Zn714 2.019 . S
O722 C742 1.257 . S
Zn723 N719 2.020 . S
Zn723 O730 1.975 . S
Zn723 N739 2.119 . S
Zn723 O744 2.019 . S
N724 Zn714 2.119 . S
N724 C726 1.334 . S
N724 C727 1.328 . S
C725 C726 1.391 . S
C725 N728 1.329 . S
C725 H746 0.930 . S
C726 N724 1.334 . S
C726 C725 1.391 . S
C726 H733 0.930 . S
C727 N724 1.328 . S
C727 C729 1.392 . S
C727 H734 0.930 . S
N728 C725 1.329 . S
N728 C729 1.331 . S
C729 C727 1.392 . S
C729 N728 1.331 . S
O730 Zn723 1.975 . S
O730 C731 1.252 . S
C731 O730 1.252 . S
C731 O732 1.252 . S
O732 Zn714 1.975 . S
O732 C731 1.252 . S
H733 C726 0.930 . S
H734 C727 0.930 . S
C735 C736 1.392 . S
C735 N739 1.328 . S
C735 H741 0.930 . S
C736 C735 1.392 . S
C736 N740 1.331 . S
C737 C738 1.391 . S
C737 N740 1.329 . S
C737 H747 0.930 . S
C738 C737 1.391 . S
C738 N739 1.334 . S
C738 H745 0.930 . S
N739 Zn723 2.119 . S
N739 C735 1.328 . S
N739 C738 1.334 . S
N740 C736 1.331 . S
N740 C737 1.329 . S
H741 C735 0.930 . S
C742 O722 1.257 . S
C742 O743 1.244 . S
O743 C742 1.244 . S
O744 C720 1.257 . S
O744 Zn723 2.019 . S
H745 C738 0.930 . S
H746 C725 0.930 . S
H747 C737 0.930 . S
Zn748 N752 2.020 . S
Zn748 O756 2.019 . S
Zn748 N758 2.119 . S
Zn748 O766 1.975 . S
C749 N750 1.334 . S
C749 N753 1.336 . S
N750 C749 1.334 . S
N750 C751 1.334 . S
C751 N750 1.334 . S
C751 N752 1.336 . S
N752 Zn748 2.020 . S
N752 C751 1.336 . S
N752 N753 1.354 . S
N753 C749 1.336 . S
N753 N752 1.354 . S
N753 Zn757 2.020 . S
C754 O755 1.244 . S
C754 O778 1.257 . S
O755 C754 1.244 . S
O756 Zn748 2.019 . S
O756 C776 1.257 . S
Zn757 N753 2.020 . S
Zn757 O764 1.975 . S
Zn757 N773 2.119 . S
Zn757 O778 2.019 . S
N758 Zn748 2.119 . S
N758 C760 1.334 . S
N758 C761 1.328 . S
C759 C760 1.391 . S
C759 N762 1.329 . S
C759 H780 0.930 . S
C760 N758 1.334 . S
C760 C759 1.391 . S
C760 H767 0.930 . S
C761 N758 1.328 . S
C761 C763 1.392 . S
C761 H768 0.930 . S
N762 C759 1.329 . S
N762 C763 1.331 . S
C763 C761 1.392 . S
C763 N762 1.331 . S
O764 Zn757 1.975 . S
O764 C765 1.252 . S
C765 O764 1.252 . S
C765 O766 1.252 . S
O766 Zn748 1.975 . S
O766 C765 1.252 . S
H767 C760 0.930 . S
H768 C761 0.930 . S
C769 C770 1.392 . S
C769 N773 1.328 . S
C769 H775 0.930 . S
C770 C769 1.392 . S
C770 N774 1.331 . S
C771 C772 1.391 . S
C771 N774 1.329 . S
C771 H781 0.930 . S
C772 C771 1.391 . S
C772 N773 1.334 . S
C772 H779 0.930 . S
N773 Zn757 2.119 . S
N773 C769 1.328 . S
N773 C772 1.334 . S
N774 C770 1.331 . S
N774 C771 1.329 . S
H775 C769 0.930 . S
C776 O756 1.257 . S
C776 O777 1.244 . S
O777 C776 1.244 . S
O778 C754 1.257 . S
O778 Zn757 2.019 . S
H779 C772 0.930 . S
H780 C759 0.930 . S
H781 C771 0.930 . S
Zn782 N786 2.020 . S
Zn782 O790 2.019 . S
Zn782 N792 2.119 . S
Zn782 O800 1.975 . S
C783 N784 1.334 . S
C783 N787 1.336 . S
N784 C783 1.334 . S
N784 C785 1.334 . S
C785 N784 1.334 . S
C785 N786 1.336 . S
N786 Zn782 2.020 . S
N786 C785 1.336 . S
N786 N787 1.354 . S
N787 C783 1.336 . S
N787 N786 1.354 . S
N787 Zn791 2.020 . S
C788 O789 1.244 . S
C788 O812 1.257 . S
O789 C788 1.244 . S
O790 Zn782 2.019 . S
O790 C810 1.257 . S
Zn791 N787 2.020 . S
Zn791 O798 1.975 . S
Zn791 N807 2.119 . S
Zn791 O812 2.019 . S
N792 Zn782 2.119 . S
N792 C794 1.334 . S
N792 C795 1.328 . S
C793 C794 1.391 . S
C793 N796 1.329 . S
C793 H814 0.930 . S
C794 N792 1.334 . S
C794 C793 1.391 . S
C794 H801 0.930 . S
C795 N792 1.328 . S
C795 C797 1.392 . S
C795 H802 0.930 . S
N796 C793 1.329 . S
N796 C797 1.331 . S
C797 C795 1.392 . S
C797 N796 1.331 . S
O798 Zn791 1.975 . S
O798 C799 1.252 . S
C799 O798 1.252 . S
C799 O800 1.252 . S
O800 Zn782 1.975 . S
O800 C799 1.252 . S
H801 C794 0.930 . S
H802 C795 0.930 . S
C803 C804 1.392 . S
C803 N807 1.328 . S
C803 H809 0.930 . S
C804 C803 1.392 . S
C804 N808 1.331 . S
C805 C806 1.391 . S
C805 N808 1.329 . S
C805 H815 0.930 . S
C806 C805 1.391 . S
C806 N807 1.334 . S
C806 H813 0.930 . S
N807 Zn791 2.119 . S
N807 C803 1.328 . S
N807 C806 1.334 . S
N808 C804 1.331 . S
N808 C805 1.329 . S
H809 C803 0.930 . S
C810 O790 1.257 . S
C810 O811 1.244 . S
O811 C810 1.244 . S
O812 C788 1.257 . S
O812 Zn791 2.019 . S
H813 C806 0.930 . S
H814 C793 0.930 . S
H815 C805 0.930 . S
Zn816 N820 2.020 . S
Zn816 O824 2.019 . S
Zn816 N826 2.119 . S
Zn816 O834 1.975 . S
C817 N818 1.334 . S
C817 N821 1.336 . S
N818 C817 1.334 . S
N818 C819 1.334 . S
C819 N818 1.334 . S
C819 N820 1.336 . S
N820 Zn816 2.020 . S
N820 C819 1.336 . S
N820 N821 1.354 . S
N821 C817 1.336 . S
N821 N820 1.354 . S
N821 Zn825 2.020 . S
C822 O823 1.244 . S
C822 O846 1.257 . S
O823 C822 1.244 . S
O824 Zn816 2.019 . S
O824 C844 1.257 1_455 S
Zn825 N821 2.020 . S
Zn825 O832 1.975 . S
Zn825 N841 2.119 . S
Zn825 O846 2.019 . S
N826 Zn816 2.119 . S
N826 C828 1.334 . S
N826 C829 1.328 . S
C827 C828 1.391 . S
C827 N830 1.329 . S
C827 H848 0.930 . S
C828 N826 1.334 . S
C828 C827 1.391 . S
C828 H835 0.930 . S
C829 N826 1.328 . S
C829 C831 1.392 . S
C829 H836 0.930 . S
N830 C827 1.329 . S
N830 C831 1.331 . S
C831 C829 1.392 . S
C831 N830 1.331 . S
O832 Zn825 1.975 . S
O832 C833 1.252 . S
C833 O832 1.252 . S
C833 O834 1.252 . S
O834 Zn816 1.975 . S
O834 C833 1.252 . S
H835 C828 0.930 . S
H836 C829 0.930 . S
C837 C838 1.392 . S
C837 N841 1.328 . S
C837 H843 0.930 . S
C838 C837 1.392 . S
C838 N842 1.331 . S
C839 C840 1.391 . S
C839 N842 1.329 . S
C839 H849 0.930 . S
C840 C839 1.391 . S
C840 N841 1.334 . S
C840 H847 0.930 . S
N841 Zn825 2.119 . S
N841 C837 1.328 . S
N841 C840 1.334 . S
N842 C838 1.331 . S
N842 C839 1.329 . S
H843 C837 0.930 . S
C844 O824 1.257 1_655 S
C844 O845 1.244 1_655 S
O845 C844 1.244 1_455 S
O846 C822 1.257 . S
O846 Zn825 2.019 . S
H847 C840 0.930 . S
H848 C827 0.930 . S
H849 C839 0.930 . S
Zn850 N854 2.020 . S
Zn850 O858 2.019 . S
Zn850 N860 2.119 . S
Zn850 O868 1.975 . S
C851 N852 1.334 . S
C851 N855 1.336 . S
N852 C851 1.334 . S
N852 C853 1.334 . S
C853 N852 1.334 . S
C853 N854 1.336 . S
N854 Zn850 2.020 . S
N854 C853 1.336 . S
N854 N855 1.354 . S
N855 C851 1.336 . S
N855 N854 1.354 . S
N855 Zn859 2.020 . S
C856 O857 1.244 . S
C856 O880 1.257 . S
O857 C856 1.244 . S
O858 Zn850 2.019 . S
O858 C878 1.257 . S
Zn859 N855 2.020 . S
Zn859 O866 1.975 . S
Zn859 N875 2.119 . S
Zn859 O880 2.019 . S
N860 Zn850 2.119 . S
N860 C862 1.334 . S
N860 C863 1.328 . S
C861 C862 1.391 . S
C861 N864 1.329 . S
C861 H882 0.930 . S
C862 N860 1.334 . S
C862 C861 1.391 . S
C862 H869 0.930 . S
C863 N860 1.328 . S
C863 C865 1.392 . S
C863 H870 0.930 . S
N864 C861 1.329 . S
N864 C865 1.331 . S
C865 C863 1.392 . S
C865 N864 1.331 . S
O866 Zn859 1.975 . S
O866 C867 1.252 . S
C867 O866 1.252 . S
C867 O868 1.252 . S
O868 Zn850 1.975 . S
O868 C867 1.252 . S
H869 C862 0.930 . S
H870 C863 0.930 . S
C871 C872 1.392 . S
C871 N875 1.328 . S
C871 H877 0.930 . S
C872 C871 1.392 . S
C872 N876 1.331 . S
C873 C874 1.391 . S
C873 N876 1.329 . S
C873 H883 0.930 . S
C874 C873 1.391 . S
C874 N875 1.334 . S
C874 H881 0.930 . S
N875 Zn859 2.119 . S
N875 C871 1.328 . S
N875 C874 1.334 . S
N876 C872 1.331 . S
N876 C873 1.329 . S
H877 C871 0.930 . S
C878 O858 1.257 . S
C878 O879 1.244 . S
O879 C878 1.244 . S
O880 C856 1.257 . S
O880 Zn859 2.019 . S
H881 C874 0.930 . S
H882 C861 0.930 . S
H883 C873 0.930 . S
Zn884 N888 2.020 . S
Zn884 O892 2.019 . S
Zn884 N894 2.119 . S
Zn884 O902 1.975 . S
C885 N886 1.334 . S
C885 N889 1.336 . S
N886 C885 1.334 . S
N886 C887 1.334 . S
C887 N886 1.334 . S
C887 N888 1.336 . S
N888 Zn884 2.020 . S
N888 C887 1.336 . S
N888 N889 1.354 . S
N889 C885 1.336 . S
N889 N888 1.354 . S
N889 Zn893 2.020 . S
C890 O891 1.244 . S
C890 O914 1.257 . S
O891 C890 1.244 . S
O892 Zn884 2.019 . S
O892 C912 1.257 . S
Zn893 N889 2.020 . S
Zn893 O900 1.975 . S
Zn893 N909 2.119 . S
Zn893 O914 2.019 . S
N894 Zn884 2.119 . S
N894 C896 1.334 . S
N894 C897 1.328 . S
C895 C896 1.391 . S
C895 N898 1.329 . S
C895 H916 0.930 . S
C896 N894 1.334 . S
C896 C895 1.391 . S
C896 H903 0.930 . S
C897 N894 1.328 . S
C897 C899 1.392 . S
C897 H904 0.930 . S
N898 C895 1.329 . S
N898 C899 1.331 . S
C899 C897 1.392 . S
C899 N898 1.331 . S
O900 Zn893 1.975 . S
O900 C901 1.252 . S
C901 O900 1.252 . S
C901 O902 1.252 . S
O902 Zn884 1.975 . S
O902 C901 1.252 . S
H903 C896 0.930 . S
H904 C897 0.930 . S
C905 C906 1.392 . S
C905 N909 1.328 . S
C905 H911 0.930 . S
C906 C905 1.392 . S
C906 N910 1.331 . S
C907 C908 1.391 . S
C907 N910 1.329 . S
C907 H917 0.930 . S
C908 C907 1.391 . S
C908 N909 1.334 . S
C908 H915 0.930 . S
N909 Zn893 2.119 . S
N909 C905 1.328 . S
N909 C908 1.334 . S
N910 C906 1.331 . S
N910 C907 1.329 . S
H911 C905 0.930 . S
C912 O892 1.257 . S
C912 O913 1.244 . S
O913 C912 1.244 . S
O914 C890 1.257 . S
O914 Zn893 2.019 . S
H915 C908 0.930 . S
H916 C895 0.930 . S
H917 C907 0.930 . S
Zn918 N922 2.020 . S
Zn918 O926 2.019 . S
Zn918 N928 2.119 . S
Zn918 O936 1.975 . S
C919 N920 1.334 . S
C919 N923 1.336 . S
N920 C919 1.334 . S
N920 C921 1.334 . S
C921 N920 1.334 . S
C921 N922 1.336 . S
N922 Zn918 2.020 . S
N922 C921 1.336 . S
N922 N923 1.354 . S
N923 C919 1.336 . S
N923 N922 1.354 . S
N923 Zn927 2.020 . S
C924 O925 1.244 . S
C924 O948 1.257 . S
O925 C924 1.244 . S
O926 Zn918 2.019 . S
O926 C946 1.257 . S
Zn927 N923 2.020 . S
Zn927 O934 1.975 . S
Zn927 N943 2.119 . S
Zn927 O948 2.019 . S
N928 Zn918 2.119 . S
N928 C930 1.334 . S
N928 C931 1.328 . S
C929 C930 1.391 . S
C929 N932 1.329 . S
C929 H950 0.930 . S
C930 N928 1.334 . S
C930 C929 1.391 . S
C930 H937 0.930 . S
C931 N928 1.328 . S
C931 C933 1.392 . S
C931 H938 0.930 . S
N932 C929 1.329 . S
N932 C933 1.331 . S
C933 C931 1.392 . S
C933 N932 1.331 . S
O934 Zn927 1.975 . S
O934 C935 1.252 . S
C935 O934 1.252 . S
C935 O936 1.252 . S
O936 Zn918 1.975 . S
O936 C935 1.252 . S
H937 C930 0.930 . S
H938 C931 0.930 . S
C939 C940 1.392 . S
C939 N943 1.328 . S
C939 H945 0.930 . S
C940 C939 1.392 . S
C940 N944 1.331 . S
C941 C942 1.391 . S
C941 N944 1.329 . S
C941 H951 0.930 . S
C942 C941 1.391 . S
C942 N943 1.334 . S
C942 H949 0.930 . S
N943 Zn927 2.119 . S
N943 C939 1.328 . S
N943 C942 1.334 . S
N944 C940 1.331 . S
N944 C941 1.329 . S
H945 C939 0.930 . S
C946 O926 1.257 . S
C946 O947 1.244 . S
O947 C946 1.244 . S
O948 C924 1.257 . S
O948 Zn927 2.019 . S
H949 C942 0.930 . S
H950 C929 0.930 . S
H951 C941 0.930 . S
Zn952 N956 2.020 . S
Zn952 O960 2.019 . S
Zn952 N962 2.119 . S
Zn952 O970 1.975 . S
C953 N954 1.334 . S
C953 N957 1.336 . S
N954 C953 1.334 . S
N954 C955 1.334 . S
C955 N954 1.334 . S
C955 N956 1.336 . S
N956 Zn952 2.020 . S
N956 C955 1.336 . S
N956 N957 1.354 . S
N957 C953 1.336 . S
N957 N956 1.354 . S
N957 Zn961 2.020 . S
C958 O959 1.244 1_655 S
C958 O982 1.257 1_655 S
O959 C958 1.244 1_455 S
O960 Zn952 2.019 . S
O960 C980 1.257 . S
Zn961 N957 2.020 . S
Zn961 O968 1.975 . S
Zn961 N977 2.119 . S
Zn961 O982 2.019 . S
N962 Zn952 2.119 . S
N962 C964 1.334 . S
N962 C965 1.328 . S
C963 C964 1.391 . S
C963 N966 1.329 . S
C963 H984 0.930 . S
C964 N962 1.334 . S
C964 C963 1.391 . S
C964 H971 0.930 . S
C965 N962 1.328 . S
C965 C967 1.392 . S
C965 H972 0.930 . S
N966 C963 1.329 . S
N966 C967 1.331 . S
C967 C965 1.392 . S
C967 N966 1.331 . S
O968 Zn961 1.975 . S
O968 C969 1.252 . S
C969 O968 1.252 . S
C969 O970 1.252 . S
O970 Zn952 1.975 . S
O970 C969 1.252 . S
H971 C964 0.930 . S
H972 C965 0.930 . S
C973 C974 1.392 . S
C973 N977 1.328 . S
C973 H979 0.930 . S
C974 C973 1.392 . S
C974 N978 1.331 . S
C975 C976 1.391 . S
C975 N978 1.329 . S
C975 H985 0.930 . S
C976 C975 1.391 . S
C976 N977 1.334 . S
C976 H983 0.930 . S
N977 Zn961 2.119 . S
N977 C973 1.328 . S
N977 C976 1.334 . S
N978 C974 1.331 . S
N978 C975 1.329 . S
H979 C973 0.930 . S
C980 O960 1.257 . S
C980 O981 1.244 . S
O981 C980 1.244 . S
O982 C958 1.257 1_455 S
O982 Zn961 2.019 . S
H983 C976 0.930 . S
H984 C963 0.930 . S
H985 C975 0.930 . S
Zn986 N990 2.020 . S
Zn986 O994 2.019 . S
Zn986 N996 2.119 . S
Zn986 O1004 1.975 . S
C987 N988 1.334 . S
C987 N991 1.336 . S
N988 C987 1.334 . S
N988 C989 1.334 . S
C989 N988 1.334 . S
C989 N990 1.336 . S
N990 Zn986 2.020 . S
N990 C989 1.336 . S
N990 N991 1.354 . S
N991 C987 1.336 . S
N991 N990 1.354 . S
N991 Zn995 2.020 . S
C992 O993 1.244 . S
C992 O1016 1.257 . S
O993 C992 1.244 . S
O994 Zn986 2.019 . S
O994 C1014 1.257 . S
Zn995 N991 2.020 . S
Zn995 O1002 1.975 . S
Zn995 N1011 2.119 . S
Zn995 O1016 2.019 . S
N996 Zn986 2.119 . S
N996 C998 1.334 . S
N996 C999 1.328 . S
C997 C998 1.391 . S
C997 N1000 1.329 . S
C997 H1018 0.930 . S
C998 N996 1.334 . S
C998 C997 1.391 . S
C998 H1005 0.930 . S
C999 N996 1.328 . S
C999 C1001 1.392 . S
C999 H1006 0.930 . S
N1000 C997 1.329 . S
N1000 C1001 1.331 . S
C1001 C999 1.392 . S
C1001 N1000 1.331 . S
O1002 Zn995 1.975 . S
O1002 C1003 1.252 . S
C1003 O1002 1.252 . S
C1003 O1004 1.252 . S
O1004 Zn986 1.975 . S
O1004 C1003 1.252 . S
H1005 C998 0.930 . S
H1006 C999 0.930 . S
C1007 C1008 1.392 . S
C1007 N1011 1.328 . S
C1007 H1013 0.930 . S
C1008 C1007 1.392 . S
C1008 N1012 1.331 . S
C1009 C1010 1.391 . S
C1009 N1012 1.329 . S
C1009 H1019 0.930 . S
C1010 C1009 1.391 . S
C1010 N1011 1.334 . S
C1010 H1017 0.930 . S
N1011 Zn995 2.119 . S
N1011 C1007 1.328 . S
N1011 C1010 1.334 . S
N1012 C1008 1.331 . S
N1012 C1009 1.329 . S
H1013 C1007 0.930 . S
C1014 O994 1.257 . S
C1014 O1015 1.244 . S
O1015 C1014 1.244 . S
O1016 C992 1.257 . S
O1016 Zn995 2.019 . S
H1017 C1010 0.930 . S
H1018 C997 0.930 . S
H1019 C1009 0.930 . S
Zn1020 N1024 2.020 . S
Zn1020 O1028 2.019 . S
Zn1020 N1030 2.119 . S
Zn1020 O1038 1.975 . S
C1021 N1022 1.334 . S
C1021 N1025 1.336 . S
N1022 C1021 1.334 . S
N1022 C1023 1.334 . S
C1023 N1022 1.334 . S
C1023 N1024 1.336 . S
N1024 Zn1020 2.020 . S
N1024 C1023 1.336 . S
N1024 N1025 1.354 . S
N1025 C1021 1.336 . S
N1025 N1024 1.354 . S
N1025 Zn1029 2.020 . S
C1026 O1027 1.244 . S
C1026 O1050 1.257 . S
O1027 C1026 1.244 . S
O1028 Zn1020 2.019 . S
O1028 C1048 1.257 . S
Zn1029 N1025 2.020 . S
Zn1029 O1036 1.975 . S
Zn1029 N1045 2.119 . S
Zn1029 O1050 2.019 . S
N1030 Zn1020 2.119 . S
N1030 C1032 1.334 . S
N1030 C1033 1.328 . S
C1031 C1032 1.391 . S
C1031 N1034 1.329 . S
C1031 H1052 0.930 . S
C1032 N1030 1.334 . S
C1032 C1031 1.391 . S
C1032 H1039 0.930 . S
C1033 N1030 1.328 . S
C1033 C1035 1.392 . S
C1033 H1040 0.930 . S
N1034 C1031 1.329 . S
N1034 C1035 1.331 . S
C1035 C1033 1.392 . S
C1035 N1034 1.331 . S
O1036 Zn1029 1.975 . S
O1036 C1037 1.252 . S
C1037 O1036 1.252 . S
C1037 O1038 1.252 . S
O1038 Zn1020 1.975 . S
O1038 C1037 1.252 . S
H1039 C1032 0.930 . S
H1040 C1033 0.930 . S
C1041 C1042 1.392 . S
C1041 N1045 1.328 . S
C1041 H1047 0.930 . S
C1042 C1041 1.392 . S
C1042 N1046 1.331 . S
C1043 C1044 1.391 . S
C1043 N1046 1.329 . S
C1043 H1053 0.930 . S
C1044 C1043 1.391 . S
C1044 N1045 1.334 . S
C1044 H1051 0.930 . S
N1045 Zn1029 2.119 . S
N1045 C1041 1.328 . S
N1045 C1044 1.334 . S
N1046 C1042 1.331 . S
N1046 C1043 1.329 . S
H1047 C1041 0.930 . S
C1048 O1028 1.257 . S
C1048 O1049 1.244 . S
O1049 C1048 1.244 . S
O1050 C1026 1.257 . S
O1050 Zn1029 2.019 . S
H1051 C1044 0.930 . S
H1052 C1031 0.930 . S
H1053 C1043 0.930 . S
Zn1054 N1058 2.020 . S
Zn1054 O1062 2.019 . S
Zn1054 N1064 2.119 . S
Zn1054 O1072 1.975 . S
C1055 N1056 1.334 . S
C1055 N1059 1.336 . S
N1056 C1055 1.334 . S
N1056 C1057 1.334 . S
C1057 N1056 1.334 . S
C1057 N1058 1.336 . S
N1058 Zn1054 2.020 . S
N1058 C1057 1.336 . S
N1058 N1059 1.354 . S
N1059 C1055 1.336 . S
N1059 N1058 1.354 . S
N1059 Zn1063 2.020 . S
C1060 O1061 1.244 . S
C1060 O1084 1.257 . S
O1061 C1060 1.244 . S
O1062 Zn1054 2.019 . S
O1062 C1082 1.257 . S
Zn1063 N1059 2.020 . S
Zn1063 O1070 1.975 . S
Zn1063 N1079 2.119 . S
Zn1063 O1084 2.019 . S
N1064 Zn1054 2.119 . S
N1064 C1066 1.334 . S
N1064 C1067 1.328 . S
C1065 C1066 1.391 . S
C1065 N1068 1.329 . S
C1065 H1086 0.930 . S
C1066 N1064 1.334 . S
C1066 C1065 1.391 . S
C1066 H1073 0.930 . S
C1067 N1064 1.328 . S
C1067 C1069 1.392 . S
C1067 H1074 0.930 . S
N1068 C1065 1.329 . S
N1068 C1069 1.331 . S
C1069 C1067 1.392 . S
C1069 N1068 1.331 . S
O1070 Zn1063 1.975 . S
O1070 C1071 1.252 . S
C1071 O1070 1.252 . S
C1071 O1072 1.252 . S
O1072 Zn1054 1.975 . S
O1072 C1071 1.252 . S
H1073 C1066 0.930 . S
H1074 C1067 0.930 . S
C1075 C1076 1.392 . S
C1075 N1079 1.328 . S
C1075 H1081 0.930 . S
C1076 C1075 1.392 . S
C1076 N1080 1.331 . S
C1077 C1078 1.391 . S
C1077 N1080 1.329 . S
C1077 H1087 0.930 . S
C1078 C1077 1.391 . S
C1078 N1079 1.334 . S
C1078 H1085 0.930 . S
N1079 Zn1063 2.119 . S
N1079 C1075 1.328 . S
N1079 C1078 1.334 . S
N1080 C1076 1.331 . S
N1080 C1077 1.329 . S
H1081 C1075 0.930 . S
C1082 O1062 1.257 . S
C1082 O1083 1.244 . S
O1083 C1082 1.244 . S
O1084 C1060 1.257 . S
O1084 Zn1063 2.019 . S
H1085 C1078 0.930 . S
H1086 C1065 0.930 . S
H1087 C1077 0.930 . S
C1088 C1089 1.387 . S
C1088 H1092 0.950 . S
C1088 C1097 1.390 . S
C1089 C1088 1.387 . S
C1089 C1091 1.387 . S
H1090 C1097 0.950 . S
C1091 C1089 1.387 . S
C1091 C1093 1.390 1_565 S
C1091 H1095 0.950 . S
H1092 C1088 0.950 . S
C1093 C1091 1.390 1_545 S
C1093 C1094 1.387 . S
C1093 H1096 0.950 . S
C1094 C1093 1.387 . S
C1094 C1097 1.387 1_545 S
H1095 C1091 0.950 . S
H1096 C1093 0.950 . S
C1097 C1088 1.390 . S
C1097 H1090 0.950 . S
C1097 C1094 1.387 1_565 S
C1098 C1099 1.387 . S
C1098 H1102 0.950 . S
C1098 C1107 1.390 . S
C1099 C1098 1.387 . S
C1099 C1101 1.387 . S
H1100 C1107 0.950 . S
C1101 C1099 1.387 . S
C1101 C1103 1.390 . S
C1101 H1105 0.950 . S
H1102 C1098 0.950 . S
C1103 C1101 1.390 . S
C1103 C1104 1.387 . S
C1103 H1106 0.950 . S
C1104 C1103 1.387 . S
C1104 C1107 1.387 . S
H1105 C1101 0.950 . S
H1106 C1103 0.950 . S
C1107 C1098 1.390 . S
C1107 H1100 0.950 . S
C1107 C1104 1.387 . S
C1108 C1109 1.387 . S
C1108 H1112 0.950 . S
C1108 C1117 1.390 . S
C1109 C1108 1.387 . S
C1109 C1111 1.387 . S
H1110 C1117 0.950 . S
C1111 C1109 1.387 . S
C1111 C1113 1.390 . S
C1111 H1115 0.950 . S
H1112 C1108 0.950 . S
C1113 C1111 1.390 . S
C1113 C1114 1.387 1_545 S
C1113 H1116 0.950 1_545 S
C1114 C1113 1.387 1_565 S
C1114 C1117 1.387 1_565 S
H1115 C1111 0.950 . S
H1116 C1113 0.950 1_565 S
C1117 C1108 1.390 . S
C1117 H1110 0.950 . S
C1117 C1114 1.387 1_545 S
C1118 C1119 1.387 . S
C1118 H1122 0.950 . S
C1118 C1127 1.390 . S
C1119 C1118 1.387 . S
C1119 C1121 1.387 . S
H1120 C1127 0.950 . S
C1121 C1119 1.387 . S
C1121 C1123 1.390 . S
C1121 H1125 0.950 . S
H1122 C1118 0.950 . S
C1123 C1121 1.390 . S
C1123 C1124 1.387 . S
C1123 H1126 0.950 . S
C1124 C1123 1.387 . S
C1124 C1127 1.387 . S
H1125 C1121 0.950 . S
H1126 C1123 0.950 . S
C1127 C1118 1.390 . S
C1127 H1120 0.950 . S
C1127 C1124 1.387 . S
C1128 C1129 1.387 . S
C1128 H1132 0.950 . S
C1128 C1137 1.390 . S
C1129 C1128 1.387 . S
C1129 C1131 1.387 . S
H1130 C1137 0.950 . S
C1131 C1129 1.387 . S
C1131 C1133 1.390 1_545 S
C1131 H1135 0.950 . S
H1132 C1128 0.950 . S
C1133 C1131 1.390 1_565 S
C1133 C1134 1.387 . S
C1133 H1136 0.950 . S
C1134 C1133 1.387 . S
C1134 C1137 1.387 1_565 S
H1135 C1131 0.950 . S
H1136 C1133 0.950 . S
C1137 C1128 1.390 . S
C1137 H1130 0.950 . S
C1137 C1134 1.387 1_545 S
C1138 C1139 1.387 . S
C1138 H1142 0.950 . S
C1138 C1147 1.390 . S
C1139 C1138 1.387 . S
C1139 C1141 1.387 . S
H1140 C1147 0.950 . S
C1141 C1139 1.387 . S
C1141 C1143 1.390 . S
C1141 H1145 0.950 . S
H1142 C1138 0.950 . S
C1143 C1141 1.390 . S
C1143 C1144 1.387 . S
C1143 H1146 0.950 . S
C1144 C1143 1.387 . S
C1144 C1147 1.387 . S
H1145 C1141 0.950 . S
H1146 C1143 0.950 . S
C1147 C1138 1.390 . S
C1147 H1140 0.950 . S
C1147 C1144 1.387 . S
C1148 C1149 1.387 . S
C1148 H1152 0.950 . S
C1148 C1157 1.390 1_545 S
C1149 C1148 1.387 . S
C1149 C1151 1.387 1_545 S
H1150 C1157 0.950 . S
C1151 C1149 1.387 1_565 S
C1151 C1153 1.390 . S
C1151 H1155 0.950 . S
H1152 C1148 0.950 . S
C1153 C1151 1.390 . S
C1153 C1154 1.387 . S
C1153 H1156 0.950 . S
C1154 C1153 1.387 . S
C1154 C1157 1.387 . S
H1155 C1151 0.950 . S
H1156 C1153 0.950 . S
C1157 C1148 1.390 1_565 S
C1157 H1150 0.950 . S
C1157 C1154 1.387 . S
C1158 C1159 1.387 . S
C1158 H1162 0.950 . S
C1158 C1167 1.390 . S
C1159 C1158 1.387 . S
C1159 C1161 1.387 . S
H1160 C1167 0.950 . S
C1161 C1159 1.387 . S
C1161 C1163 1.390 . S
C1161 H1165 0.950 . S
H1162 C1158 0.950 . S
C1163 C1161 1.390 . S
C1163 C1164 1.387 . S
C1163 H1166 0.950 . S
C1164 C1163 1.387 . S
C1164 C1167 1.387 . S
H1165 C1161 0.950 . S
H1166 C1163 0.950 . S
C1167 C1158 1.390 . S
C1167 H1160 0.950 . S
C1167 C1164 1.387 . S
C1168 C1169 1.387 . S
C1168 H1172 0.950 . S
C1168 C1177 1.390 . S
C1169 C1168 1.387 . S
C1169 C1171 1.387 . S
H1170 C1177 0.950 . S
C1171 C1169 1.387 . S
C1171 C1173 1.390 1_545 S
C1171 H1175 0.952 . S
H1172 C1168 0.950 . S
C1173 C1171 1.390 1_565 S
C1173 C1174 1.387 . S
C1173 H1176 0.950 . S
C1174 C1173 1.387 . S
C1174 C1177 1.387 1_565 S
H1175 C1171 0.952 . S
H1176 C1173 0.950 . S
C1177 C1168 1.390 . S
C1177 H1170 0.950 . S
C1177 C1174 1.387 1_545 S
C1178 C1179 1.387 . S
C1178 H1182 0.950 . S
C1178 C1187 1.390 . S
C1179 C1178 1.387 . S
C1179 C1181 1.387 . S
H1180 C1187 0.950 . S
C1181 C1179 1.387 . S
C1181 C1183 1.390 . S
C1181 H1185 0.950 . S
H1182 C1178 0.950 . S
C1183 C1181 1.390 . S
C1183 C1184 1.387 . S
C1183 H1186 0.950 . S
C1184 C1183 1.387 . S
C1184 C1187 1.387 . S
H1185 C1181 0.950 . S
H1186 C1183 0.950 . S
C1187 C1178 1.390 . S
C1187 H1180 0.950 . S
C1187 C1184 1.387 . S
C1188 C1189 1.387 . S
C1188 H1192 0.950 . S
C1188 C1197 1.390 . S
C1189 C1188 1.387 . S
C1189 C1191 1.387 . S
H1190 C1197 0.950 . S
C1191 C1189 1.387 . S
C1191 C1193 1.390 1_565 S
C1191 H1195 0.950 . S
H1192 C1188 0.950 . S
C1193 C1191 1.390 1_545 S
C1193 C1194 1.387 . S
C1193 H1196 0.950 . S
C1194 C1193 1.387 . S
C1194 C1197 1.387 1_545 S
H1195 C1191 0.950 . S
H1196 C1193 0.950 . S
C1197 C1188 1.390 . S
C1197 H1190 0.950 . S
C1197 C1194 1.387 1_565 S
C1198 C1199 1.387 . S
C1198 H1202 0.950 . S
C1198 C1207 1.390 . S
C1199 C1198 1.387 . S
C1199 C1201 1.387 . S
H1200 C1207 0.950 . S
C1201 C1199 1.387 . S
C1201 C1203 1.390 . S
C1201 H1205 0.950 . S
H1202 C1198 0.950 . S
C1203 C1201 1.390 . S
C1203 C1204 1.387 . S
C1203 H1206 0.950 . S
C1204 C1203 1.387 . S
C1204 C1207 1.387 . S
H1205 C1201 0.950 . S
H1206 C1203 0.950 . S
C1207 C1198 1.390 . S
C1207 H1200 0.950 . S
C1207 C1204 1.387 . S
C1208 C1209 1.387 . S
C1208 H1212 0.950 . S
C1208 C1217 1.390 1_545 S
C1209 C1208 1.387 . S
C1209 C1211 1.387 1_545 S
H1210 C1217 0.950 . S
C1211 C1209 1.387 1_565 S
C1211 C1213 1.390 . S
C1211 H1215 0.950 . S
H1212 C1208 0.950 . S
C1213 C1211 1.390 . S
C1213 C1214 1.387 . S
C1213 H1216 0.950 . S
C1214 C1213 1.387 . S
C1214 C1217 1.387 . S
H1215 C1211 0.950 . S
H1216 C1213 0.950 . S
C1217 C1208 1.390 1_565 S
C1217 H1210 0.950 . S
C1217 C1214 1.387 . S
C1218 C1219 1.387 . S
C1218 H1222 0.950 . S
C1218 C1227 1.390 . S
C1219 C1218 1.387 . S
C1219 C1221 1.387 . S
H1220 C1227 0.950 . S
C1221 C1219 1.387 . S
C1221 C1223 1.390 . S
C1221 H1225 0.950 . S
H1222 C1218 0.950 . S
C1223 C1221 1.390 . S
C1223 C1224 1.387 . S
C1223 H1226 0.950 . S
C1224 C1223 1.387 . S
C1224 C1227 1.387 . S
H1225 C1221 0.950 . S
H1226 C1223 0.950 . S
C1227 C1218 1.390 . S
C1227 H1220 0.950 . S
C1227 C1224 1.387 . S
C1228 C1229 1.387 . S
C1228 H1232 0.950 . S
C1228 C1237 1.390 . S
C1229 C1228 1.387 . S
C1229 C1231 1.387 . S
H1230 C1237 0.950 . S
C1231 C1229 1.387 . S
C1231 C1233 1.390 1_545 S
C1231 H1235 0.950 . S
H1232 C1228 0.950 . S
C1233 C1231 1.390 1_565 S
C1233 C1234 1.387 . S
C1233 H1236 0.950 . S
C1234 C1233 1.387 . S
C1234 C1237 1.387 1_565 S
H1235 C1231 0.950 . S
H1236 C1233 0.950 . S
C1237 C1228 1.390 . S
C1237 H1230 0.950 . S
C1237 C1234 1.387 1_545 S
C1238 C1239 1.387 . S
C1238 H1242 0.950 . S
C1238 C1247 1.390 . S
C1239 C1238 1.387 . S
C1239 C1241 1.387 . S
H1240 C1247 0.950 . S
C1241 C1239 1.387 . S
C1241 C1243 1.390 . S
C1241 H1245 0.950 . S
H1242 C1238 0.950 . S
C1243 C1241 1.390 . S
C1243 C1244 1.387 . S
C1243 H1246 0.950 . S
C1244 C1243 1.387 . S
C1244 C1247 1.387 . S
H1245 C1241 0.950 . S
H1246 C1243 0.950 . S
C1247 C1238 1.390 . S
C1247 H1240 0.950 . S
C1247 C1244 1.387 . S
C1248 C1249 1.387 . S
C1248 H1252 0.950 . S
C1248 C1257 1.390 . S
C1249 C1248 1.387 . S
C1249 C1251 1.387 . S
H1250 C1257 0.950 . S
C1251 C1249 1.387 . S
C1251 C1253 1.390 . S
C1251 H1255 0.950 . S
H1252 C1248 0.950 . S
C1253 C1251 1.390 . S
C1253 C1254 1.387 . S
C1253 H1256 0.950 . S
C1254 C1253 1.387 . S
C1254 C1257 1.387 . S
H1255 C1251 0.950 . S
H1256 C1253 0.950 . S
C1257 C1248 1.390 . S
C1257 H1250 0.950 . S
C1257 C1254 1.387 . S
C1258 C1259 1.387 . S
C1258 H1262 0.950 . S
C1258 C1267 1.390 . S
C1259 C1258 1.387 . S
C1259 C1261 1.387 . S
H1260 C1267 0.950 . S
C1261 C1259 1.387 . S
C1261 C1263 1.390 . S
C1261 H1265 0.950 . S
H1262 C1258 0.950 . S
C1263 C1261 1.390 . S
C1263 C1264 1.387 . S
C1263 H1266 0.950 . S
C1264 C1263 1.387 . S
C1264 C1267 1.387 . S
H1265 C1261 0.950 . S
H1266 C1263 0.950 . S
C1267 C1258 1.390 . S
C1267 H1260 0.950 . S
C1267 C1264 1.387 . S
C1268 C1269 1.387 . S
C1268 H1272 0.950 . S
C1268 C1277 1.390 . S
C1269 C1268 1.387 . S
C1269 C1271 1.387 . S
H1270 C1277 0.950 . S
C1271 C1269 1.387 . S
C1271 C1273 1.390 . S
C1271 H1275 0.950 . S
H1272 C1268 0.950 . S
C1273 C1271 1.390 . S
C1273 C1274 1.387 . S
C1273 H1276 0.950 . S
C1274 C1273 1.387 . S
C1274 C1277 1.387 . S
H1275 C1271 0.950 . S
H1276 C1273 0.950 . S
C1277 C1268 1.390 . S
C1277 H1270 0.950 . S
C1277 C1274 1.387 . S
C1278 C1279 1.387 . S
C1278 H1282 0.950 . S
C1278 C1287 1.390 . S
C1279 C1278 1.387 . S
C1279 C1281 1.387 . S
H1280 C1287 0.950 . S
C1281 C1279 1.387 . S
C1281 C1283 1.390 . S
C1281 H1285 0.950 . S
H1282 C1278 0.950 . S
C1283 C1281 1.390 . S
C1283 C1284 1.387 . S
C1283 H1286 0.950 . S
C1284 C1283 1.387 . S
C1284 C1287 1.387 . S
H1285 C1281 0.950 . S
H1286 C1283 0.950 . S
C1287 C1278 1.390 . S
C1287 H1280 0.950 . S
C1287 C1284 1.387 . S
C1288 C1289 1.387 . S
C1288 H1292 0.950 . S
C1288 C1297 1.390 . S
C1289 C1288 1.387 . S
C1289 C1291 1.387 . S
H1290 C1297 0.950 . S
C1291 C1289 1.387 . S
C1291 C1293 1.390 . S
C1291 H1295 0.950 . S
H1292 C1288 0.950 . S
C1293 C1291 1.390 . S
C1293 C1294 1.387 . S
C1293 H1296 0.950 . S
C1294 C1293 1.387 . S
C1294 C1297 1.387 . S
H1295 C1291 0.950 . S
H1296 C1293 0.950 . S
C1297 C1288 1.390 . S
C1297 H1290 0.950 . S
C1297 C1294 1.387 . S
C1298 C1299 1.387 . S
C1298 H1302 0.950 . S
C1298 C1307 1.390 . S
C1299 C1298 1.387 . S
C1299 C1301 1.387 . S
H1300 C1307 0.950 . S
C1301 C1299 1.387 . S
C1301 C1303 1.390 . S
C1301 H1305 0.950 . S
H1302 C1298 0.950 . S
C1303 C1301 1.390 . S
C1303 C1304 1.387 . S
C1303 H1306 0.950 . S
C1304 C1303 1.387 . S
C1304 C1307 1.387 . S
H1305 C1301 0.950 . S
H1306 C1303 0.950 . S
C1307 C1298 1.390 . S
C1307 H1300 0.950 . S
C1307 C1304 1.387 . S
C1308 C1309 1.387 . S
C1308 H1312 0.950 . S
C1308 C1317 1.390 . S
C1309 C1308 1.387 . S
C1309 C1311 1.387 . S
H1310 C1317 0.950 . S
C1311 C1309 1.387 . S
C1311 C1313 1.390 . S
C1311 H1315 0.950 . S
H1312 C1308 0.950 . S
C1313 C1311 1.390 . S
C1313 C1314 1.387 . S
C1313 H1316 0.950 . S
C1314 C1313 1.387 . S
C1314 C1317 1.387 . S
H1315 C1311 0.950 . S
H1316 C1313 0.950 . S
C1317 C1308 1.390 . S
C1317 H1310 0.950 . S
C1317 C1314 1.387 . S
C1318 C1319 1.387 . S
C1318 H1322 0.950 . S
C1318 C1327 1.390 . S
C1319 C1318 1.387 . S
C1319 C1321 1.387 . S
H1320 C1327 0.950 . S
C1321 C1319 1.387 . S
C1321 C1323 1.390 . S
C1321 H1325 0.950 . S
H1322 C1318 0.950 . S
C1323 C1321 1.390 . S
C1323 C1324 1.387 . S
C1323 H1326 0.950 . S
C1324 C1323 1.387 . S
C1324 C1327 1.387 . S
H1325 C1321 0.950 . S
H1326 C1323 0.950 . S
C1327 C1318 1.390 . S
C1327 H1320 0.950 . S
C1327 C1324 1.387 . S
C1328 C1329 1.387 . S
C1328 H1332 0.950 . S
C1328 C1337 1.390 . S
C1329 C1328 1.387 . S
C1329 C1331 1.387 . S
H1330 C1337 0.950 . S
C1331 C1329 1.387 . S
C1331 C1333 1.390 . S
C1331 H1335 0.950 . S
H1332 C1328 0.950 . S
C1333 C1331 1.390 . S
C1333 C1334 1.387 . S
C1333 H1336 0.950 . S
C1334 C1333 1.387 . S
C1334 C1337 1.387 . S
H1335 C1331 0.950 . S
H1336 C1333 0.950 . S
C1337 C1328 1.390 . S
C1337 H1330 0.950 . S
C1337 C1334 1.387 . S
C1338 C1339 1.387 . S
C1338 H1342 0.950 . S
C1338 C1347 1.390 . S
C1339 C1338 1.387 . S
C1339 C1341 1.387 . S
H1340 C1347 0.950 . S
C1341 C1339 1.387 . S
C1341 C1343 1.390 . S
C1341 H1345 0.950 . S
H1342 C1338 0.950 . S
C1343 C1341 1.390 . S
C1343 C1344 1.387 . S
C1343 H1346 0.950 . S
C1344 C1343 1.387 . S
C1344 C1347 1.387 . S
H1345 C1341 0.950 . S
H1346 C1343 0.950 . S
C1347 C1338 1.390 . S
C1347 H1340 0.950 . S
C1347 C1344 1.387 . S
C1348 C1349 1.387 . S
C1348 H1352 0.950 . S
C1348 C1357 1.390 . S
C1349 C1348 1.387 . S
C1349 C1351 1.387 . S
H1350 C1357 0.950 . S
C1351 C1349 1.387 . S
C1351 C1353 1.390 . S
C1351 H1355 0.950 . S
H1352 C1348 0.950 . S
C1353 C1351 1.390 . S
C1353 C1354 1.387 . S
C1353 H1356 0.950 . S
C1354 C1353 1.387 . S
C1354 C1357 1.387 . S
H1355 C1351 0.950 . S
H1356 C1353 0.950 . S
C1357 C1348 1.390 . S
C1357 H1350 0.950 . S
C1357 C1354 1.387 . S
C1358 C1359 1.387 . S
C1358 H1362 0.950 . S
C1358 C1367 1.390 . S
C1359 C1358 1.387 . S
C1359 C1361 1.387 . S
H1360 C1367 0.950 . S
C1361 C1359 1.387 . S
C1361 C1363 1.390 . S
C1361 H1365 0.950 . S
H1362 C1358 0.950 . S
C1363 C1361 1.390 . S
C1363 C1364 1.387 . S
C1363 H1366 0.950 . S
C1364 C1363 1.387 . S
C1364 C1367 1.387 . S
H1365 C1361 0.950 . S
H1366 C1363 0.950 . S
C1367 C1358 1.390 . S
C1367 H1360 0.950 . S
C1367 C1364 1.387 . S
C1368 C1369 1.387 . S
C1368 H1372 0.950 . S
C1368 C1377 1.390 . S
C1369 C1368 1.387 . S
C1369 C1371 1.387 . S
H1370 C1377 0.950 . S
C1371 C1369 1.387 . S
C1371 C1373 1.390 . S
C1371 H1375 0.950 . S
H1372 C1368 0.950 . S
C1373 C1371 1.390 . S
C1373 C1374 1.387 . S
C1373 H1376 0.950 . S
C1374 C1373 1.387 . S
C1374 C1377 1.387 . S
H1375 C1371 0.950 . S
H1376 C1373 0.950 . S
C1377 C1368 1.390 . S
C1377 H1370 0.950 . S
C1377 C1374 1.387 . S
C1378 C1379 1.387 . S
C1378 H1382 0.950 . S
C1378 C1387 1.390 . S
C1379 C1378 1.387 . S
C1379 C1381 1.387 . S
H1380 C1387 0.950 . S
C1381 C1379 1.387 . S
C1381 C1383 1.390 . S
C1381 H1385 0.950 . S
H1382 C1378 0.950 . S
C1383 C1381 1.390 . S
C1383 C1384 1.387 . S
C1383 H1386 0.950 . S
C1384 C1383 1.387 . S
C1384 C1387 1.387 . S
H1385 C1381 0.950 . S
H1386 C1383 0.950 . S
C1387 C1378 1.390 . S
C1387 H1380 0.950 . S
C1387 C1384 1.387 . S
C1388 C1389 1.387 . S
C1388 H1392 0.950 . S
C1388 C1397 1.390 . S
C1389 C1388 1.387 . S
C1389 C1391 1.387 . S
H1390 C1397 0.950 . S
C1391 C1389 1.387 . S
C1391 C1393 1.390 . S
C1391 H1395 0.950 . S
H1392 C1388 0.950 . S
C1393 C1391 1.390 . S
C1393 C1394 1.387 . S
C1393 H1396 0.950 . S
C1394 C1393 1.387 . S
C1394 C1397 1.387 . S
H1395 C1391 0.950 . S
H1396 C1393 0.950 . S
C1397 C1388 1.390 . S
C1397 H1390 0.950 . S
C1397 C1394 1.387 . S
C1398 C1399 1.387 . S
C1398 H1402 0.950 . S
C1398 C1407 1.390 . S
C1399 C1398 1.387 . S
C1399 C1401 1.387 . S
H1400 C1407 0.950 . S
C1401 C1399 1.387 . S
C1401 C1403 1.390 . S
C1401 H1405 0.950 . S
H1402 C1398 0.950 . S
C1403 C1401 1.390 . S
C1403 C1404 1.387 . S
C1403 H1406 0.950 . S
C1404 C1403 1.387 . S
C1404 C1407 1.387 . S
H1405 C1401 0.950 . S
H1406 C1403 0.950 . S
C1407 C1398 1.390 . S
C1407 H1400 0.950 . S
C1407 C1404 1.387 . S
C1408 C1409 1.387 . S
C1408 H1412 0.950 . S
C1408 C1417 1.390 . S
C1409 C1408 1.387 . S
C1409 C1411 1.387 . S
H1410 C1417 0.950 . S
C1411 C1409 1.387 . S
C1411 C1413 1.390 . S
C1411 H1415 0.950 . S
H1412 C1408 0.950 . S
C1413 C1411 1.390 . S
C1413 C1414 1.387 . S
C1413 H1416 0.950 . S
C1414 C1413 1.387 . S
C1414 C1417 1.387 . S
H1415 C1411 0.950 . S
H1416 C1413 0.950 . S
C1417 C1408 1.390 . S
C1417 H1410 0.950 . S
C1417 C1414 1.387 . S
C1418 C1419 1.387 . S
C1418 H1422 0.950 . S
C1418 C1427 1.390 . S
C1419 C1418 1.387 . S
C1419 C1421 1.387 . S
H1420 C1427 0.950 . S
C1421 C1419 1.387 . S
C1421 C1423 1.390 1_545 S
C1421 H1425 0.950 . S
H1422 C1418 0.950 . S
C1423 C1421 1.390 1_565 S
C1423 C1424 1.387 . S
C1423 H1426 0.950 . S
C1424 C1423 1.387 . S
C1424 C1427 1.387 1_565 S
H1425 C1421 0.950 . S
H1426 C1423 0.950 . S
C1427 C1418 1.390 . S
C1427 H1420 0.950 . S
C1427 C1424 1.387 1_545 S
C1428 C1429 1.387 . S
C1428 H1432 0.950 . S
C1428 C1437 1.390 . S
C1429 C1428 1.387 . S
C1429 C1431 1.387 . S
H1430 C1437 0.950 . S
C1431 C1429 1.387 . S
C1431 C1433 1.390 . S
C1431 H1435 0.950 . S
H1432 C1428 0.950 . S
C1433 C1431 1.390 . S
C1433 C1434 1.387 . S
C1433 H1436 0.950 . S
C1434 C1433 1.387 . S
C1434 C1437 1.387 . S
H1435 C1431 0.950 . S
H1436 C1433 0.950 . S
C1437 C1428 1.390 . S
C1437 H1430 0.950 . S
C1437 C1434 1.387 . S
C1438 C1439 1.387 . S
C1438 H1442 0.950 . S
C1438 C1447 1.390 1_545 S
C1439 C1438 1.387 . S
C1439 C1441 1.387 1_545 S
H1440 C1447 0.950 1_545 S
C1441 C1439 1.387 1_565 S
C1441 C1443 1.390 . S
C1441 H1445 0.950 . S
H1442 C1438 0.950 . S
C1443 C1441 1.390 . S
C1443 C1444 1.387 . S
C1443 H1446 0.950 . S
C1444 C1443 1.387 . S
C1444 C1447 1.387 . S
H1445 C1441 0.950 . S
H1446 C1443 0.950 . S
C1447 C1438 1.390 1_565 S
C1447 H1440 0.950 1_565 S
C1447 C1444 1.387 . S
C1448 C1449 1.387 . S
C1448 H1452 0.950 . S
C1448 C1457 1.390 . S
C1449 C1448 1.387 . S
C1449 C1451 1.387 . S
H1450 C1457 0.950 . S
C1451 C1449 1.387 . S
C1451 C1453 1.390 . S
C1451 H1455 0.950 . S
H1452 C1448 0.950 . S
C1453 C1451 1.390 . S
C1453 C1454 1.387 . S
C1453 H1456 0.950 . S
C1454 C1453 1.387 . S
C1454 C1457 1.387 . S
H1455 C1451 0.950 . S
H1456 C1453 0.950 . S
C1457 C1448 1.390 . S
C1457 H1450 0.950 . S
C1457 C1454 1.387 . S
C1458 C1459 1.387 . S
C1458 H1462 0.950 . S
C1458 C1467 1.390 . S
C1459 C1458 1.387 . S
C1459 C1461 1.387 . S
H1460 C1467 0.950 . S
C1461 C1459 1.387 . S
C1461 C1463 1.390 1_545 S
C1461 H1465 0.950 . S
H1462 C1458 0.950 . S
C1463 C1461 1.390 1_565 S
C1463 C1464 1.387 . S
C1463 H1466 0.950 . S
C1464 C1463 1.387 . S
C1464 C1467 1.387 1_565 S
H1465 C1461 0.950 . S
H1466 C1463 0.950 . S
C1467 C1458 1.390 . S
C1467 H1460 0.950 . S
C1467 C1464 1.387 1_545 S
C1468 C1469 1.387 . S
C1468 H1472 0.950 . S
C1468 C1477 1.390 . S
C1469 C1468 1.387 . S
C1469 C1471 1.387 . S
H1470 C1477 0.950 . S
C1471 C1469 1.387 . S
C1471 C1473 1.390 . S
C1471 H1475 0.950 . S
H1472 C1468 0.950 . S
C1473 C1471 1.390 . S
C1473 C1474 1.387 . S
C1473 H1476 0.950 . S
C1474 C1473 1.387 . S
C1474 C1477 1.387 . S
H1475 C1471 0.950 . S
H1476 C1473 0.950 . S
C1477 C1468 1.390 . S
C1477 H1470 0.950 . S
C1477 C1474 1.387 . S
C1478 C1479 1.387 . S
C1478 H1482 0.950 . S
C1478 C1487 1.390 . S
C1479 C1478 1.387 . S
C1479 C1481 1.387 1_545 S
H1480 C1487 0.950 . S
C1481 C1479 1.387 1_565 S
C1481 C1483 1.390 . S
C1481 H1485 0.950 . S
H1482 C1478 0.950 . S
C1483 C1481 1.390 . S
C1483 C1484 1.387 . S
C1483 H1486 0.950 . S
C1484 C1483 1.387 . S
C1484 C1487 1.387 1_565 S
H1485 C1481 0.950 . S
H1486 C1483 0.950 . S
C1487 C1478 1.390 . S
C1487 H1480 0.950 . S
C1487 C1484 1.387 1_545 S
C1488 C1489 1.387 . S
C1488 H1492 0.950 . S
C1488 C1497 1.390 . S
C1489 C1488 1.387 . S
C1489 C1491 1.387 . S
H1490 C1497 0.950 . S
C1491 C1489 1.387 . S
C1491 C1493 1.390 . S
C1491 H1495 0.950 . S
H1492 C1488 0.950 . S
C1493 C1491 1.390 . S
C1493 C1494 1.387 . S
C1493 H1496 0.950 . S
C1494 C1493 1.387 . S
C1494 C1497 1.387 . S
H1495 C1491 0.950 . S
H1496 C1493 0.950 . S
C1497 C1488 1.390 . S
C1497 H1490 0.950 . S
C1497 C1494 1.387 . S
C1498 C1499 1.387 . S
C1498 H1502 0.950 . S
C1498 C1507 1.390 1_545 S
C1499 C1498 1.387 . S
C1499 C1501 1.387 1_545 S
H1500 C1507 0.950 . S
C1501 C1499 1.387 1_565 S
C1501 C1503 1.390 . S
C1501 H1505 0.950 . S
H1502 C1498 0.950 . S
C1503 C1501 1.390 . S
C1503 C1504 1.387 . S
C1503 H1506 0.950 . S
C1504 C1503 1.387 . S
C1504 C1507 1.387 . S
H1505 C1501 0.950 . S
H1506 C1503 0.950 . S
C1507 C1498 1.390 1_565 S
C1507 H1500 0.950 . S
C1507 C1504 1.387 . S
C1508 C1509 1.387 . S
C1508 H1512 0.950 . S
C1508 C1517 1.390 . S
C1509 C1508 1.387 . S
C1509 C1511 1.387 . S
H1510 C1517 0.950 . S
C1511 C1509 1.387 . S
C1511 C1513 1.390 . S
C1511 H1515 0.950 . S
H1512 C1508 0.950 . S
C1513 C1511 1.390 . S
C1513 C1514 1.387 . S
C1513 H1516 0.950 . S
C1514 C1513 1.387 . S
C1514 C1517 1.387 . S
H1515 C1511 0.950 . S
H1516 C1513 0.950 . S
C1517 C1508 1.390 . S
C1517 H1510 0.950 . S
C1517 C1514 1.387 . S
C1518 C1519 1.387 . S
C1518 H1522 0.950 . S
C1518 C1527 1.390 1_545 S
C1519 C1518 1.387 . S
C1519 C1521 1.387 . S
H1520 C1527 0.950 . S
C1521 C1519 1.387 . S
C1521 C1523 1.390 . S
C1521 H1525 0.950 . S
H1522 C1518 0.950 . S
C1523 C1521 1.390 . S
C1523 C1524 1.387 1_545 S
C1523 H1526 0.950 . S
C1524 C1523 1.387 1_565 S
C1524 C1527 1.387 . S
H1525 C1521 0.950 . S
H1526 C1523 0.950 . S
C1527 C1518 1.390 1_565 S
C1527 H1520 0.950 . S
C1527 C1524 1.387 . S
C1528 C1529 1.387 . S
C1528 H1532 0.950 . S
C1528 C1537 1.390 . S
C1529 C1528 1.387 . S
C1529 C1531 1.387 . S
H1530 C1537 0.950 . S
C1531 C1529 1.387 . S
C1531 C1533 1.390 . S
C1531 H1535 0.950 . S
H1532 C1528 0.950 . S
C1533 C1531 1.390 . S
C1533 C1534 1.387 . S
C1533 H1536 0.950 . S
C1534 C1533 1.387 . S
C1534 C1537 1.387 . S
H1535 C1531 0.950 . S
H1536 C1533 0.950 . S
C1537 C1528 1.390 . S
C1537 H1530 0.950 . S
C1537 C1534 1.387 . S
C1538 C1539 1.387 . S
C1538 H1542 0.950 . S
C1538 C1547 1.390 . S
C1539 C1538 1.387 . S
C1539 C1541 1.387 . S
H1540 C1547 0.950 . S
C1541 C1539 1.387 . S
C1541 C1543 1.390 1_565 S
C1541 H1545 0.950 . S
H1542 C1538 0.950 . S
C1543 C1541 1.390 1_545 S
C1543 C1544 1.387 . S
C1543 H1546 0.950 . S
C1544 C1543 1.387 . S
C1544 C1547 1.387 1_545 S
H1545 C1541 0.950 . S
H1546 C1543 0.950 . S
C1547 C1538 1.390 . S
C1547 H1540 0.950 . S
C1547 C1544 1.387 1_565 S
C1548 C1549 1.387 . S
C1548 H1552 0.950 . S
C1548 C1557 1.390 . S
C1549 C1548 1.387 . S
C1549 C1551 1.387 . S
H1550 C1557 0.950 . S
C1551 C1549 1.387 . S
C1551 C1553 1.390 . S
C1551 H1555 0.950 . S
H1552 C1548 0.950 . S
C1553 C1551 1.390 . S
C1553 C1554 1.387 . S
C1553 H1556 0.950 . S
C1554 C1553 1.387 . S
C1554 C1557 1.387 . S
H1555 C1551 0.950 . S
H1556 C1553 0.950 . S
C1557 C1548 1.390 . S
C1557 H1550 0.950 . S
C1557 C1554 1.387 . S
C1558 C1559 1.387 . S
C1558 H1562 0.950 . S
C1558 C1567 1.390 . S
C1559 C1558 1.387 . S
C1559 C1561 1.387 1_565 S
H1560 C1567 0.950 . S
C1561 C1559 1.387 1_545 S
C1561 C1563 1.390 . S
C1561 H1565 0.950 . S
H1562 C1558 0.950 . S
C1563 C1561 1.390 . S
C1563 C1564 1.387 . S
C1563 H1566 0.950 . S
C1564 C1563 1.387 . S
C1564 C1567 1.387 1_545 S
H1565 C1561 0.950 . S
H1566 C1563 0.950 . S
C1567 C1558 1.390 . S
C1567 H1560 0.950 . S
C1567 C1564 1.387 1_565 S
C1568 C1569 1.387 . S
C1568 H1572 0.950 . S
C1568 C1577 1.390 . S
C1569 C1568 1.387 . S
C1569 C1571 1.387 . S
H1570 C1577 0.950 . S
C1571 C1569 1.387 . S
C1571 C1573 1.390 . S
C1571 H1575 0.950 . S
H1572 C1568 0.950 . S
C1573 C1571 1.390 . S
C1573 C1574 1.387 . S
C1573 H1576 0.950 . S
C1574 C1573 1.387 . S
C1574 C1577 1.387 . S
H1575 C1571 0.950 . S
H1576 C1573 0.950 . S
C1577 C1568 1.390 . S
C1577 H1570 0.950 . S
C1577 C1574 1.387 . S
C1578 C1579 1.387 . S
C1578 H1582 0.950 . S
C1578 C1587 1.390 . S
C1579 C1578 1.387 . S
C1579 C1581 1.387 . S
H1580 C1587 0.950 . S
C1581 C1579 1.387 . S
C1581 C1583 1.390 . S
C1581 H1585 0.950 . S
H1582 C1578 0.950 . S
C1583 C1581 1.390 . S
C1583 C1584 1.387 . S
C1583 H1586 0.950 . S
C1584 C1583 1.387 . S
C1584 C1587 1.387 . S
H1585 C1581 0.950 . S
H1586 C1583 0.950 . S
C1587 C1578 1.390 . S
C1587 H1580 0.950 . S
C1587 C1584 1.387 . S
C1588 C1589 1.387 . S
C1588 H1592 0.950 . S
C1588 C1597 1.390 . S
C1589 C1588 1.387 . S
C1589 C1591 1.387 . S
H1590 C1597 0.950 . S
C1591 C1589 1.387 . S
C1591 C1593 1.390 . S
C1591 H1595 0.950 . S
H1592 C1588 0.950 . S
C1593 C1591 1.390 . S
C1593 C1594 1.387 . S
C1593 H1596 0.950 . S
C1594 C1593 1.387 . S
C1594 C1597 1.387 . S
H1595 C1591 0.950 . S
H1596 C1593 0.950 . S
C1597 C1588 1.390 . S
C1597 H1590 0.950 . S
C1597 C1594 1.387 . S
C1598 C1599 1.387 . S
C1598 H1602 0.950 . S
C1598 C1607 1.390 . S
C1599 C1598 1.387 . S
C1599 C1601 1.387 . S
H1600 C1607 0.950 . S
C1601 C1599 1.387 . S
C1601 C1603 1.390 . S
C1601 H1605 0.950 . S
H1602 C1598 0.950 . S
C1603 C1601 1.390 . S
C1603 C1604 1.387 . S
C1603 H1606 0.950 . S
C1604 C1603 1.387 . S
C1604 C1607 1.387 . S
H1605 C1601 0.950 . S
H1606 C1603 0.950 . S
C1607 C1598 1.390 . S
C1607 H1600 0.950 . S
C1607 C1604 1.387 . S
C1608 C1609 1.387 . S
C1608 H1612 0.950 . S
C1608 C1617 1.390 . S
C1609 C1608 1.387 . S
C1609 C1611 1.387 . S
H1610 C1617 0.950 . S
C1611 C1609 1.387 . S
C1611 C1613 1.390 . S
C1611 H1615 0.950 . S
H1612 C1608 0.950 . S
C1613 C1611 1.390 . S
C1613 C1614 1.387 . S
C1613 H1616 0.950 . S
C1614 C1613 1.387 . S
C1614 C1617 1.387 . S
H1615 C1611 0.950 . S
H1616 C1613 0.950 . S
C1617 C1608 1.390 . S
C1617 H1610 0.950 . S
C1617 C1614 1.387 . S
C1618 C1619 1.387 . S
C1618 H1622 0.950 . S
C1618 C1627 1.390 . S
C1619 C1618 1.387 . S
C1619 C1621 1.387 . S
H1620 C1627 0.950 . S
C1621 C1619 1.387 . S
C1621 C1623 1.390 . S
C1621 H1625 0.950 . S
H1622 C1618 0.950 . S
C1623 C1621 1.390 . S
C1623 C1624 1.387 . S
C1623 H1626 0.950 . S
C1624 C1623 1.387 . S
C1624 C1627 1.387 . S
H1625 C1621 0.950 . S
H1626 C1623 0.950 . S
C1627 C1618 1.390 . S
C1627 H1620 0.950 . S
C1627 C1624 1.387 . S
C1628 C1629 1.387 . S
C1628 H1632 0.950 . S
C1628 C1637 1.390 . S
C1629 C1628 1.387 . S
C1629 C1631 1.387 . S
H1630 C1637 0.950 . S
C1631 C1629 1.387 . S
C1631 C1633 1.390 . S
C1631 H1635 0.950 . S
H1632 C1628 0.950 . S
C1633 C1631 1.390 . S
C1633 C1634 1.387 . S
C1633 H1636 0.950 . S
C1634 C1633 1.387 . S
C1634 C1637 1.387 . S
H1635 C1631 0.950 . S
H1636 C1633 0.950 . S
C1637 C1628 1.390 . S
C1637 H1630 0.950 . S
C1637 C1634 1.387 . S
C1638 C1639 1.387 . S
C1638 H1642 0.950 . S
C1638 C1647 1.390 . S
C1639 C1638 1.387 . S
C1639 C1641 1.387 . S
H1640 C1647 0.950 . S
C1641 C1639 1.387 . S
C1641 C1643 1.390 . S
C1641 H1645 0.950 . S
H1642 C1638 0.950 . S
C1643 C1641 1.390 . S
C1643 C1644 1.387 . S
C1643 H1646 0.950 . S
C1644 C1643 1.387 . S
C1644 C1647 1.387 . S
H1645 C1641 0.950 . S
H1646 C1643 0.950 . S
C1647 C1638 1.390 . S
C1647 H1640 0.950 . S
C1647 C1644 1.387 . S
C1648 C1649 1.387 . S
C1648 H1652 0.950 . S
C1648 C1657 1.390 . S
C1649 C1648 1.387 . S
C1649 C1651 1.387 . S
H1650 C1657 0.950 . S
C1651 C1649 1.387 . S
C1651 C1653 1.390 . S
C1651 H1655 0.950 . S
H1652 C1648 0.950 . S
C1653 C1651 1.390 . S
C1653 C1654 1.387 . S
C1653 H1656 0.950 . S
C1654 C1653 1.387 . S
C1654 C1657 1.387 . S
H1655 C1651 0.950 . S
H1656 C1653 0.950 . S
C1657 C1648 1.390 . S
C1657 H1650 0.950 . S
C1657 C1654 1.387 . S
C1658 C1659 1.387 . S
C1658 H1662 0.950 1_455 S
C1658 C1667 1.390 . S
C1659 C1658 1.387 . S
C1659 C1661 1.387 . S
H1660 C1667 0.950 . S
C1661 C1659 1.387 . S
C1661 C1663 1.390 . S
C1661 H1665 0.950 . S
H1662 C1658 0.950 1_655 S
C1663 C1661 1.390 . S
C1663 C1664 1.387 . S
C1663 H1666 0.950 . S
C1664 C1663 1.387 . S
C1664 C1667 1.387 . S
H1665 C1661 0.950 . S
H1666 C1663 0.950 . S
C1667 C1658 1.390 . S
C1667 H1660 0.950 . S
C1667 C1664 1.387 . S
C1668 C1669 1.387 . S
C1668 H1672 0.950 . S
C1668 C1677 1.390 . S
C1669 C1668 1.387 . S
C1669 C1671 1.387 . S
H1670 C1677 0.950 . S
C1671 C1669 1.387 . S
C1671 C1673 1.390 . S
C1671 H1675 0.950 . S
H1672 C1668 0.950 . S
C1673 C1671 1.390 . S
C1673 C1674 1.387 . S
C1673 H1676 0.950 . S
C1674 C1673 1.387 . S
C1674 C1677 1.387 . S
H1675 C1671 0.950 . S
H1676 C1673 0.950 . S
C1677 C1668 1.390 . S
C1677 H1670 0.950 . S
C1677 C1674 1.387 . S
C1678 C1679 1.387 . S
C1678 H1682 0.950 . S
C1678 C1687 1.390 . S
C1679 C1678 1.387 . S
C1679 C1681 1.387 . S
H1680 C1687 0.950 . S
C1681 C1679 1.387 . S
C1681 C1683 1.390 . S
C1681 H1685 0.950 . S
H1682 C1678 0.950 . S
C1683 C1681 1.390 . S
C1683 C1684 1.387 . S
C1683 H1686 0.950 . S
C1684 C1683 1.387 . S
C1684 C1687 1.387 . S
H1685 C1681 0.950 . S
H1686 C1683 0.950 . S
C1687 C1678 1.390 . S
C1687 H1680 0.950 . S
C1687 C1684 1.387 . S
C1688 C1689 1.387 . S
C1688 H1692 0.950 . S
C1688 C1697 1.390 . S
C1689 C1688 1.387 . S
C1689 C1691 1.387 . S
H1690 C1697 0.950 . S
C1691 C1689 1.387 . S
C1691 C1693 1.390 . S
C1691 H1695 0.950 . S
H1692 C1688 0.950 . S
C1693 C1691 1.390 . S
C1693 C1694 1.387 . S
C1693 H1696 0.950 . S
C1694 C1693 1.387 . S
C1694 C1697 1.387 . S
H1695 C1691 0.950 . S
H1696 C1693 0.950 . S
C1697 C1688 1.390 . S
C1697 H1690 0.950 . S
C1697 C1694 1.387 . S
C1698 C1699 1.387 . S
C1698 H1702 0.950 . S
C1698 C1707 1.390 . S
C1699 C1698 1.387 . S
C1699 C1701 1.387 . S
H1700 C1707 0.950 . S
C1701 C1699 1.387 . S
C1701 C1703 1.390 . S
C1701 H1705 0.950 . S
H1702 C1698 0.950 . S
C1703 C1701 1.390 . S
C1703 C1704 1.387 . S
C1703 H1706 0.950 . S
C1704 C1703 1.387 . S
C1704 C1707 1.387 . S
H1705 C1701 0.950 . S
H1706 C1703 0.950 . S
C1707 C1698 1.390 . S
C1707 H1700 0.950 . S
C1707 C1704 1.387 . S
C1708 C1709 1.387 . S
C1708 H1712 0.950 . S
C1708 C1717 1.390 . S
C1709 C1708 1.387 . S
C1709 C1711 1.387 . S
H1710 C1717 0.950 . S
C1711 C1709 1.387 . S
C1711 C1713 1.390 . S
C1711 H1715 0.950 . S
H1712 C1708 0.950 . S
C1713 C1711 1.390 . S
C1713 C1714 1.387 . S
C1713 H1716 0.950 . S
C1714 C1713 1.387 . S
C1714 C1717 1.387 . S
H1715 C1711 0.950 . S
H1716 C1713 0.950 . S
C1717 C1708 1.390 . S
C1717 H1710 0.950 . S
C1717 C1714 1.387 . S
C1718 C1719 1.387 . S
C1718 H1722 0.950 . S
C1718 C1727 1.390 . S
C1719 C1718 1.387 . S
C1719 C1721 1.387 . S
H1720 C1727 0.950 . S
C1721 C1719 1.387 . S
C1721 C1723 1.390 . S
C1721 H1725 0.950 . S
H1722 C1718 0.950 . S
C1723 C1721 1.390 . S
C1723 C1724 1.387 . S
C1723 H1726 0.950 . S
C1724 C1723 1.387 . S
C1724 C1727 1.387 . S
H1725 C1721 0.950 . S
H1726 C1723 0.950 . S
C1727 C1718 1.390 . S
C1727 H1720 0.950 . S
C1727 C1724 1.387 . S
C1728 C1729 1.387 . S
C1728 H1732 0.950 . S
C1728 C1737 1.390 1_565 S
C1729 C1728 1.387 . S
C1729 C1731 1.387 . S
H1730 C1737 0.950 . S
C1731 C1729 1.387 . S
C1731 C1733 1.390 1_565 S
C1731 H1735 0.950 . S
H1732 C1728 0.950 . S
C1733 C1731 1.390 1_545 S
C1733 C1734 1.387 . S
C1733 H1736 0.950 . S
C1734 C1733 1.387 . S
C1734 C1737 1.387 . S
H1735 C1731 0.950 . S
H1736 C1733 0.950 . S
C1737 C1728 1.390 1_545 S
C1737 H1730 0.950 . S
C1737 C1734 1.387 . S
C1738 C1739 1.387 . S
C1738 H1742 0.950 . S
C1738 C1747 1.390 . S
C1739 C1738 1.387 . S
C1739 C1741 1.387 . S
H1740 C1747 0.950 . S
C1741 C1739 1.387 . S
C1741 C1743 1.390 . S
C1741 H1745 0.950 . S
H1742 C1738 0.950 . S
C1743 C1741 1.390 . S
C1743 C1744 1.387 . S
C1743 H1746 0.950 . S
C1744 C1743 1.387 . S
C1744 C1747 1.387 . S
H1745 C1741 0.950 . S
H1746 C1743 0.950 . S
C1747 C1738 1.390 . S
C1747 H1740 0.950 . S
C1747 C1744 1.387 . S
C1748 C1749 1.387 . S
C1748 H1752 0.952 1_455 S
C1748 C1757 1.390 1_545 S
C1749 C1748 1.387 . S
C1749 C1751 1.387 . S
H1750 C1757 0.952 1_655 S
C1751 C1749 1.387 . S
C1751 C1753 1.390 1_545 S
C1751 H1755 0.950 . S
H1752 C1748 0.952 1_655 S
C1753 C1751 1.390 1_565 S
C1753 C1754 1.387 . S
C1753 H1756 0.950 . S
C1754 C1753 1.387 . S
C1754 C1757 1.387 . S
H1755 C1751 0.950 . S
H1756 C1753 0.950 . S
C1757 C1748 1.390 1_565 S
C1757 H1750 0.952 1_455 S
C1757 C1754 1.387 . S
C1758 C1759 1.387 . S
C1758 H1762 0.950 . S
C1758 C1767 1.390 1_556 S
C1759 C1758 1.387 . S
C1759 C1761 1.387 . S
H1760 C1767 0.950 . S
C1761 C1759 1.387 . S
C1761 C1763 1.390 1_556 S
C1761 H1765 0.950 . S
H1762 C1758 0.950 . S
C1763 C1761 1.390 1_554 S
C1763 C1764 1.387 . S
C1763 H1766 0.950 . S
C1764 C1763 1.387 . S
C1764 C1767 1.387 . S
H1765 C1761 0.950 . S
H1766 C1763 0.950 . S
C1767 C1758 1.390 1_554 S
C1767 H1760 0.950 . S
C1767 C1764 1.387 . S
C1768 C1769 1.387 . S
C1768 H1772 0.950 . S
C1768 C1777 1.390 1_565 S
C1769 C1768 1.387 . S
C1769 C1771 1.387 . S
H1770 C1777 0.950 . S
C1771 C1769 1.387 . S
C1771 C1773 1.390 1_565 S
C1771 H1775 0.950 . S
H1772 C1768 0.950 . S
C1773 C1771 1.390 1_545 S
C1773 C1774 1.387 . S
C1773 H1776 0.950 . S
C1774 C1773 1.387 . S
C1774 C1777 1.387 . S
H1775 C1771 0.950 . S
H1776 C1773 0.950 . S
C1777 C1768 1.390 1_545 S
C1777 H1770 0.950 . S
C1777 C1774 1.387 . S
C1778 C1779 1.387 . S
C1778 H1782 0.950 . S
C1778 C1787 1.390 . S
C1779 C1778 1.387 . S
C1779 C1781 1.387 . S
H1780 C1787 0.950 . S
C1781 C1779 1.387 . S
C1781 C1783 1.390 . S
C1781 H1785 0.950 . S
H1782 C1778 0.950 . S
C1783 C1781 1.390 . S
C1783 C1784 1.387 . S
C1783 H1786 0.950 . S
C1784 C1783 1.387 . S
C1784 C1787 1.387 . S
H1785 C1781 0.950 . S
H1786 C1783 0.950 . S
C1787 C1778 1.390 . S
C1787 H1780 0.950 . S
C1787 C1784 1.387 . S
C1788 C1789 1.387 . S
C1788 H1792 0.952 1_655 S
C1788 C1797 1.390 1_545 S
C1789 C1788 1.387 . S
C1789 C1791 1.387 . S
H1790 C1797 0.952 1_455 S
C1791 C1789 1.387 . S
C1791 C1793 1.390 1_545 S
C1791 H1795 0.950 . S
H1792 C1788 0.952 1_455 S
C1793 C1791 1.390 1_565 S
C1793 C1794 1.387 . S
C1793 H1796 0.950 . S
C1794 C1793 1.387 . S
C1794 C1797 1.387 . S
H1795 C1791 0.950 . S
H1796 C1793 0.950 . S
C1797 C1788 1.390 1_565 S
C1797 H1790 0.952 1_655 S
C1797 C1794 1.387 . S
C1798 C1799 1.387 . S
C1798 H1802 0.950 . S
C1798 C1807 1.390 1_556 S
C1799 C1798 1.387 . S
C1799 C1801 1.387 . S
H1800 C1807 0.950 . S
C1801 C1799 1.387 . S
C1801 C1803 1.390 1_556 S
C1801 H1805 0.950 . S
H1802 C1798 0.950 . S
C1803 C1801 1.390 1_554 S
C1803 C1804 1.387 . S
C1803 H1806 0.950 . S
C1804 C1803 1.387 . S
C1804 C1807 1.387 . S
H1805 C1801 0.950 . S
H1806 C1803 0.950 . S
C1807 C1798 1.390 1_554 S
C1807 H1800 0.950 . S
C1807 C1804 1.387 . S
C1808 C1809 1.387 . S
C1808 H1812 0.952 1_655 S
C1808 C1817 1.390 . S
C1809 C1808 1.387 . S
C1809 C1811 1.387 . S
H1810 C1817 0.952 1_455 S
C1811 C1809 1.387 . S
C1811 C1813 1.390 . S
C1811 H1815 0.950 . S
H1812 C1808 0.952 1_455 S
C1813 C1811 1.390 . S
C1813 C1814 1.387 . S
C1813 H1816 0.950 . S
C1814 C1813 1.387 . S
C1814 C1817 1.387 . S
H1815 C1811 0.950 . S
H1816 C1813 0.950 . S
C1817 C1808 1.390 . S
C1817 H1810 0.952 1_655 S
C1817 C1814 1.387 . S
C1818 C1819 1.387 . S
C1818 H1822 0.950 . S
C1818 C1827 1.390 1_554 S
C1819 C1818 1.387 . S
C1819 C1821 1.387 . S
H1820 C1827 0.950 . S
C1821 C1819 1.387 . S
C1821 C1823 1.390 1_554 S
C1821 H1825 0.950 . S
H1822 C1818 0.950 . S
C1823 C1821 1.390 1_556 S
C1823 C1824 1.387 . S
C1823 H1826 0.950 . S
C1824 C1823 1.387 . S
C1824 C1827 1.387 . S
H1825 C1821 0.950 . S
H1826 C1823 0.950 . S
C1827 C1818 1.390 1_556 S
C1827 H1820 0.950 . S
C1827 C1824 1.387 . S
C1828 C1829 1.387 . S
C1828 H1832 0.950 . S
C1828 C1837 1.390 . S
C1829 C1828 1.387 . S
C1829 C1831 1.387 . S
H1830 C1837 0.950 . S
C1831 C1829 1.387 . S
C1831 C1833 1.390 . S
C1831 H1835 0.950 . S
H1832 C1828 0.950 . S
C1833 C1831 1.390 . S
C1833 C1834 1.387 . S
C1833 H1836 0.950 . S
C1834 C1833 1.387 . S
C1834 C1837 1.387 . S
H1835 C1831 0.950 . S
H1836 C1833 0.950 . S
C1837 C1828 1.390 . S
C1837 H1830 0.950 . S
C1837 C1834 1.387 . S
C1838 C1839 1.387 . S
C1838 H1842 0.950 . S
C1838 C1847 1.390 . S
C1839 C1838 1.387 . S
C1839 C1841 1.387 . S
H1840 C1847 0.950 . S
C1841 C1839 1.387 . S
C1841 C1843 1.390 . S
C1841 H1845 0.950 . S
H1842 C1838 0.950 . S
C1843 C1841 1.390 . S
C1843 C1844 1.387 . S
C1843 H1846 0.950 . S
C1844 C1843 1.387 . S
C1844 C1847 1.387 . S
H1845 C1841 0.950 . S
H1846 C1843 0.950 . S
C1847 C1838 1.390 . S
C1847 H1840 0.950 . S
C1847 C1844 1.387 . S
C1848 C1849 1.387 . S
C1848 H1852 0.952 1_455 S
C1848 C1857 1.390 . S
C1849 C1848 1.387 . S
C1849 C1851 1.387 . S
H1850 C1857 0.952 1_655 S
C1851 C1849 1.387 . S
C1851 C1853 1.390 . S
C1851 H1855 0.950 . S
H1852 C1848 0.952 1_655 S
C1853 C1851 1.390 . S
C1853 C1854 1.387 . S
C1853 H1856 0.950 . S
C1854 C1853 1.387 . S
C1854 C1857 1.387 . S
H1855 C1851 0.950 . S
H1856 C1853 0.950 . S
C1857 C1848 1.390 . S
C1857 H1850 0.952 1_455 S
C1857 C1854 1.387 . S
C1858 C1859 1.387 . S
C1858 H1862 0.950 . S
C1858 C1867 1.390 1_556 S
C1859 C1858 1.387 . S
C1859 C1861 1.387 . S
H1860 C1867 0.950 . S
C1861 C1859 1.387 . S
C1861 C1863 1.390 1_556 S
C1861 H1865 0.950 . S
H1862 C1858 0.950 . S
C1863 C1861 1.390 1_554 S
C1863 C1864 1.387 . S
C1863 H1866 0.950 . S
C1864 C1863 1.387 . S
C1864 C1867 1.387 . S
H1865 C1861 0.950 . S
H1866 C1863 0.950 . S
C1867 C1858 1.390 1_554 S
C1867 H1860 0.950 . S
C1867 C1864 1.387 . S
C1868 C1869 1.387 . S
C1868 H1872 0.950 . S
C1868 C1877 1.390 . S
C1869 C1868 1.387 . S
C1869 C1871 1.387 . S
H1870 C1877 0.950 . S
C1871 C1869 1.387 . S
C1871 C1873 1.390 . S
C1871 H1875 0.950 . S
H1872 C1868 0.950 . S
C1873 C1871 1.390 . S
C1873 C1874 1.387 . S
C1873 H1876 0.950 . S
C1874 C1873 1.387 . S
C1874 C1877 1.387 . S
H1875 C1871 0.950 . S
H1876 C1873 0.950 . S
C1877 C1868 1.390 . S
C1877 H1870 0.950 . S
C1877 C1874 1.387 . S
C1878 C1879 1.387 . S
C1878 H1882 0.950 . S
C1878 C1887 1.390 . S
C1879 C1878 1.387 . S
C1879 C1881 1.387 . S
H1880 C1887 0.950 . S
C1881 C1879 1.387 . S
C1881 C1883 1.390 . S
C1881 H1885 0.950 . S
H1882 C1878 0.950 . S
C1883 C1881 1.390 . S
C1883 C1884 1.387 . S
C1883 H1886 0.950 . S
C1884 C1883 1.387 . S
C1884 C1887 1.387 . S
H1885 C1881 0.950 . S
H1886 C1883 0.950 . S
C1887 C1878 1.390 . S
C1887 H1880 0.950 . S
C1887 C1884 1.387 . S
C1888 C1889 1.387 . S
C1888 H1892 0.950 . S
C1888 C1897 1.390 . S
C1889 C1888 1.387 . S
C1889 C1891 1.387 . S
H1890 C1897 0.950 . S
C1891 C1889 1.387 . S
C1891 C1893 1.390 . S
C1891 H1895 0.950 . S
H1892 C1888 0.950 . S
C1893 C1891 1.390 . S
C1893 C1894 1.387 . S
C1893 H1896 0.950 . S
C1894 C1893 1.387 . S
C1894 C1897 1.387 . S
H1895 C1891 0.950 . S
H1896 C1893 0.950 . S
C1897 C1888 1.390 . S
C1897 H1890 0.950 . S
C1897 C1894 1.387 . S
C1898 C1899 1.387 . S
C1898 H1902 0.950 . S
C1898 C1907 1.390 1_655 S
C1899 C1898 1.387 . S
C1899 C1901 1.387 . S
H1900 C1907 0.950 . S
C1901 C1899 1.387 . S
C1901 C1903 1.390 1_655 S
C1901 H1905 0.950 . S
H1902 C1898 0.950 . S
C1903 C1901 1.390 1_455 S
C1903 C1904 1.387 . S
C1903 H1906 0.950 . S
C1904 C1903 1.387 . S
C1904 C1907 1.387 . S
H1905 C1901 0.950 . S
H1906 C1903 0.950 . S
C1907 C1898 1.390 1_455 S
C1907 H1900 0.950 . S
C1907 C1904 1.387 . S
C1908 C1909 1.387 . S
C1908 H1912 0.950 . S
C1908 C1917 1.390 1_455 S
C1909 C1908 1.387 . S
C1909 C1911 1.387 . S
H1910 C1917 0.950 . S
C1911 C1909 1.387 . S
C1911 C1913 1.390 1_455 S
C1911 H1915 0.950 . S
H1912 C1908 0.950 . S
C1913 C1911 1.390 1_655 S
C1913 C1914 1.387 . S
C1913 H1916 0.950 . S
C1914 C1913 1.387 . S
C1914 C1917 1.387 . S
H1915 C1911 0.950 . S
H1916 C1913 0.950 . S
C1917 C1908 1.390 1_655 S
C1917 H1910 0.950 . S
C1917 C1914 1.387 . S
C1918 C1919 1.387 . S
C1918 H1922 0.950 . S
C1918 C1927 1.390 . S
C1919 C1918 1.387 . S
C1919 C1921 1.387 . S
H1920 C1927 0.950 . S
C1921 C1919 1.387 . S
C1921 C1923 1.390 . S
C1921 H1925 0.950 . S
H1922 C1918 0.950 . S
C1923 C1921 1.390 . S
C1923 C1924 1.387 . S
C1923 H1926 0.950 . S
C1924 C1923 1.387 . S
C1924 C1927 1.387 . S
H1925 C1921 0.950 . S
H1926 C1923 0.950 . S
C1927 C1918 1.390 . S
C1927 H1920 0.950 . S
C1927 C1924 1.387 . S
C1928 C1929 1.387 . S
C1928 H1932 0.950 . S
C1928 C1937 1.390 . S
C1929 C1928 1.387 . S
C1929 C1931 1.387 . S
H1930 C1937 0.950 . S
C1931 C1929 1.387 . S
C1931 C1933 1.390 . S
C1931 H1935 0.950 . S
H1932 C1928 0.950 . S
C1933 C1931 1.390 . S
C1933 C1934 1.387 . S
C1933 H1936 0.950 . S
C1934 C1933 1.387 . S
C1934 C1937 1.387 . S
H1935 C1931 0.950 . S
H1936 C1933 0.950 . S
C1937 C1928 1.390 . S
C1937 H1930 0.950 . S
C1937 C1934 1.387 . S
C1938 C1939 1.387 . S
C1938 H1942 0.950 . S
C1938 C1947 1.390 . S
C1939 C1938 1.387 . S
C1939 C1941 1.387 . S
H1940 C1947 0.950 . S
C1941 C1939 1.387 . S
C1941 C1943 1.390 . S
C1941 H1945 0.950 . S
H1942 C1938 0.950 . S
C1943 C1941 1.390 . S
C1943 C1944 1.387 . S
C1943 H1946 0.950 . S
C1944 C1943 1.387 . S
C1944 C1947 1.387 . S
H1945 C1941 0.950 . S
H1946 C1943 0.950 . S
C1947 C1938 1.390 . S
C1947 H1940 0.950 . S
C1947 C1944 1.387 . S
C1948 C1949 1.387 . S
C1948 H1952 0.950 . S
C1948 C1957 1.390 1_655 S
C1949 C1948 1.387 . S
C1949 C1951 1.387 . S
H1950 C1957 0.950 . S
C1951 C1949 1.387 . S
C1951 C1953 1.390 1_655 S
C1951 H1955 0.950 . S
H1952 C1948 0.950 . S
C1953 C1951 1.390 1_455 S
C1953 C1954 1.387 . S
C1953 H1956 0.950 . S
C1954 C1953 1.387 . S
C1954 C1957 1.387 . S
H1955 C1951 0.950 . S
H1956 C1953 0.950 . S
C1957 C1948 1.390 1_455 S
C1957 H1950 0.950 . S
C1957 C1954 1.387 . S
C1958 C1959 1.387 . S
C1958 H1962 0.950 . S
C1958 C1967 1.390 1_655 S
C1959 C1958 1.387 . S
C1959 C1961 1.387 . S
H1960 C1967 0.950 . S
C1961 C1959 1.387 . S
C1961 C1963 1.390 1_655 S
C1961 H1965 0.950 . S
H1962 C1958 0.950 . S
C1963 C1961 1.390 1_455 S
C1963 C1964 1.387 . S
C1963 H1966 0.950 . S
C1964 C1963 1.387 . S
C1964 C1967 1.387 . S
H1965 C1961 0.950 . S
H1966 C1963 0.950 . S
C1967 C1958 1.390 1_455 S
C1967 H1960 0.950 . S
C1967 C1964 1.387 . S
C1968 C1969 1.387 . S
C1968 H1972 0.950 . S
C1968 C1977 1.390 . S
C1969 C1968 1.387 . S
C1969 C1971 1.387 . S
H1970 C1977 0.950 . S
C1971 C1969 1.387 . S
C1971 C1973 1.390 . S
C1971 H1975 0.950 . S
H1972 C1968 0.950 . S
C1973 C1971 1.390 . S
C1973 C1974 1.387 . S
C1973 H1976 0.950 . S
C1974 C1973 1.387 . S
C1974 C1977 1.387 . S
H1975 C1971 0.950 . S
H1976 C1973 0.950 . S
C1977 C1968 1.390 . S
C1977 H1970 0.950 . S
C1977 C1974 1.387 . S
C1978 C1979 1.387 . S
C1978 H1982 0.950 . S
C1978 C1987 1.390 1_655 S
C1979 C1978 1.387 . S
C1979 C1981 1.387 . S
H1980 C1987 0.950 . S
C1981 C1979 1.387 . S
C1981 C1983 1.390 1_655 S
C1981 H1985 0.950 . S
H1982 C1978 0.950 . S
C1983 C1981 1.390 1_455 S
C1983 C1984 1.387 . S
C1983 H1986 0.950 . S
C1984 C1983 1.387 . S
C1984 C1987 1.387 . S
H1985 C1981 0.950 . S
H1986 C1983 0.950 . S
C1987 C1978 1.390 1_455 S
C1987 H1980 0.950 . S
C1987 C1984 1.387 . S
C1988 C1989 1.387 . S
C1988 H1992 0.950 . S
C1988 C1997 1.390 1_455 S
C1989 C1988 1.387 . S
C1989 C1991 1.387 . S
H1990 C1997 0.950 . S
C1991 C1989 1.387 . S
C1991 C1993 1.390 1_455 S
C1991 H1995 0.950 . S
H1992 C1988 0.950 . S
C1993 C1991 1.390 1_655 S
C1993 C1994 1.387 . S
C1993 H1996 0.950 . S
C1994 C1993 1.387 . S
C1994 C1997 1.387 . S
H1995 C1991 0.950 . S
H1996 C1993 0.950 . S
C1997 C1988 1.390 1_655 S
C1997 H1990 0.950 . S
C1997 C1994 1.387 . S
C1998 C1999 1.387 . S
C1998 H2002 0.950 . S
C1998 C2007 1.390 . S
C1999 C1998 1.387 . S
C1999 C2001 1.387 . S
H2000 C2007 0.950 . S
C2001 C1999 1.387 . S
C2001 C2003 1.390 . S
C2001 H2005 0.950 . S
H2002 C1998 0.950 . S
C2003 C2001 1.390 . S
C2003 C2004 1.387 . S
C2003 H2006 0.950 . S
C2004 C2003 1.387 . S
C2004 C2007 1.387 . S
H2005 C2001 0.950 . S
H2006 C2003 0.950 . S
C2007 C1998 1.390 . S
C2007 H2000 0.950 . S
C2007 C2004 1.387 . S
C2008 C2009 1.387 . S
C2008 H2012 0.950 . S
C2008 C2017 1.390 . S
C2009 C2008 1.387 . S
C2009 C2011 1.387 . S
H2010 C2017 0.950 . S
C2011 C2009 1.387 . S
C2011 C2013 1.390 . S
C2011 H2015 0.950 . S
H2012 C2008 0.950 . S
C2013 C2011 1.390 . S
C2013 C2014 1.387 . S
C2013 H2016 0.950 . S
C2014 C2013 1.387 . S
C2014 C2017 1.387 . S
H2015 C2011 0.950 . S
H2016 C2013 0.950 . S
C2017 C2008 1.390 . S
C2017 H2010 0.950 . S
C2017 C2014 1.387 . S
C2018 C2019 1.387 . S
C2018 H2022 0.950 . S
C2018 C2027 1.390 . S
C2019 C2018 1.387 . S
C2019 C2021 1.387 . S
H2020 C2027 0.950 . S
C2021 C2019 1.387 . S
C2021 C2023 1.390 . S
C2021 H2025 0.950 . S
H2022 C2018 0.950 . S
C2023 C2021 1.390 . S
C2023 C2024 1.387 . S
C2023 H2026 0.950 . S
C2024 C2023 1.387 . S
C2024 C2027 1.387 . S
H2025 C2021 0.950 . S
H2026 C2023 0.950 . S
C2027 C2018 1.390 . S
C2027 H2020 0.950 . S
C2027 C2024 1.387 . S
C2028 C2029 1.387 . S
C2028 H2032 0.950 . S
C2028 C2037 1.390 1_655 S
C2029 C2028 1.387 . S
C2029 C2031 1.387 . S
H2030 C2037 0.950 . S
C2031 C2029 1.387 . S
C2031 C2033 1.390 1_655 S
C2031 H2035 0.950 . S
H2032 C2028 0.950 . S
C2033 C2031 1.390 1_455 S
C2033 C2034 1.387 . S
C2033 H2036 0.950 . S
C2034 C2033 1.387 . S
C2034 C2037 1.387 . S
H2035 C2031 0.950 . S
H2036 C2033 0.950 . S
C2037 C2028 1.390 1_455 S
C2037 H2030 0.950 . S
C2037 C2034 1.387 . S
C2038 C2039 1.387 . S
C2038 H2042 0.950 . S
C2038 C2047 1.390 1_455 S
C2039 C2038 1.387 . S
C2039 C2041 1.387 . S
H2040 C2047 0.950 . S
C2041 C2039 1.387 . S
C2041 C2043 1.390 1_455 S
C2041 H2045 0.950 . S
H2042 C2038 0.950 . S
C2043 C2041 1.390 1_655 S
C2043 C2044 1.387 . S
C2043 H2046 0.950 . S
C2044 C2043 1.387 . S
C2044 C2047 1.387 . S
H2045 C2041 0.950 . S
H2046 C2043 0.950 . S
C2047 C2038 1.390 1_655 S
C2047 H2040 0.950 . S
C2047 C2044 1.387 . S
C2048 C2049 1.387 1_565 S
C2048 H2052 0.950 . S
C2048 C2057 1.390 . S
C2049 C2048 1.387 1_545 S
C2049 C2051 1.387 . S
H2050 C2057 0.950 . S
C2051 C2049 1.387 . S
C2051 C2053 1.390 . S
C2051 H2055 0.950 . S
H2052 C2048 0.950 . S
C2053 C2051 1.390 . S
C2053 C2054 1.387 . S
C2053 H2056 0.950 . S
C2054 C2053 1.387 . S
C2054 C2057 1.387 1_545 S
H2055 C2051 0.950 . S
H2056 C2053 0.950 . S
C2057 C2048 1.390 . S
C2057 H2050 0.950 . S
C2057 C2054 1.387 1_565 S
C2058 C2059 1.387 1_545 S
C2058 H2062 0.950 . S
C2058 C2067 1.390 . S
C2059 C2058 1.387 1_565 S
C2059 C2061 1.387 . S
H2060 C2067 0.950 . S
C2061 C2059 1.387 . S
C2061 C2063 1.390 . S
C2061 H2065 0.950 . S
H2062 C2058 0.950 . S
C2063 C2061 1.390 . S
C2063 C2064 1.387 . S
C2063 H2066 0.950 . S
C2064 C2063 1.387 . S
C2064 C2067 1.387 1_565 S
H2065 C2061 0.950 . S
H2066 C2063 0.950 . S
C2067 C2058 1.390 . S
C2067 H2060 0.950 . S
C2067 C2064 1.387 1_545 S
C2068 C2069 1.387 1_545 S
C2068 H2072 0.950 . S
C2068 C2077 1.390 . S
C2069 C2068 1.387 1_565 S
C2069 C2071 1.387 . S
H2070 C2077 0.950 . S
C2071 C2069 1.387 . S
C2071 C2073 1.390 . S
C2071 H2075 0.950 . S
H2072 C2068 0.950 . S
C2073 C2071 1.390 . S
C2073 C2074 1.387 . S
C2073 H2076 0.950 . S
C2074 C2073 1.387 . S
C2074 C2077 1.387 1_565 S
H2075 C2071 0.950 . S
H2076 C2073 0.950 . S
C2077 C2068 1.390 . S
C2077 H2070 0.950 . S
C2077 C2074 1.387 1_545 S
C2078 C2079 1.387 1_565 S
C2078 H2082 0.950 . S
C2078 C2087 1.390 . S
C2079 C2078 1.387 1_545 S
C2079 C2081 1.387 . S
H2080 C2087 0.950 . S
C2081 C2079 1.387 . S
C2081 C2083 1.390 . S
C2081 H2085 0.950 . S
H2082 C2078 0.950 . S
C2083 C2081 1.390 . S
C2083 C2084 1.387 . S
C2083 H2086 0.950 . S
C2084 C2083 1.387 . S
C2084 C2087 1.387 1_545 S
H2085 C2081 0.950 . S
H2086 C2083 0.950 . S
C2087 C2078 1.390 . S
C2087 H2080 0.950 . S
C2087 C2084 1.387 1_565 S
C2088 C2089 1.387 . S
C2088 H2092 0.950 . S
C2088 C2097 1.390 . S
C2089 C2088 1.387 . S
C2089 C2091 1.387 1_565 S
H2090 C2097 0.950 . S
C2091 C2089 1.387 1_545 S
C2091 C2093 1.390 1_545 S
C2091 H2095 0.950 . S
H2092 C2088 0.950 . S
C2093 C2091 1.390 1_565 S
C2093 C2094 1.387 . S
C2093 H2096 0.950 1_565 S
C2094 C2093 1.387 . S
C2094 C2097 1.387 . S
H2095 C2091 0.950 . S
H2096 C2093 0.950 1_545 S
C2097 C2088 1.390 . S
C2097 H2090 0.950 . S
C2097 C2094 1.387 . S
C2098 C2099 1.387 . S
C2098 H2102 0.950 . S
C2098 C2107 1.390 . S
C2099 C2098 1.387 . S
C2099 C2101 1.387 1_545 S
H2100 C2107 0.950 . S
C2101 C2099 1.387 1_565 S
C2101 C2103 1.390 . S
C2101 H2105 0.950 . S
H2102 C2098 0.950 . S
C2103 C2101 1.390 . S
C2103 C2104 1.387 1_565 S
C2103 H2106 0.950 . S
C2104 C2103 1.387 1_545 S
C2104 C2107 1.387 . S
H2105 C2101 0.950 . S
H2106 C2103 0.950 . S
C2107 C2098 1.390 . S
C2107 H2100 0.950 . S
C2107 C2104 1.387 . S
C2108 C2109 1.387 . S
C2108 H2112 0.950 . S
C2108 C2117 1.390 . S
C2109 C2108 1.387 . S
C2109 C2111 1.387 1_545 S
H2110 C2117 0.950 . S
C2111 C2109 1.387 1_565 S
C2111 C2113 1.390 . S
C2111 H2115 0.950 . S
H2112 C2108 0.950 . S
C2113 C2111 1.390 . S
C2113 C2114 1.387 1_565 S
C2113 H2116 0.950 . S
C2114 C2113 1.387 1_545 S
C2114 C2117 1.387 . S
H2115 C2111 0.950 . S
H2116 C2113 0.950 . S
C2117 C2108 1.390 . S
C2117 H2110 0.950 . S
C2117 C2114 1.387 . S
C2118 C2119 1.387 1_545 S
C2118 H2122 0.950 . S
C2118 C2127 1.390 . S
C2119 C2118 1.387 1_565 S
C2119 C2121 1.387 . S
H2120 C2127 0.950 . S
C2121 C2119 1.387 . S
C2121 C2123 1.390 . S
C2121 H2125 0.950 . S
H2122 C2118 0.950 . S
C2123 C2121 1.390 . S
C2123 C2124 1.387 . S
C2123 H2126 0.950 . S
C2124 C2123 1.387 . S
C2124 C2127 1.387 1_565 S
H2125 C2121 0.950 . S
H2126 C2123 0.950 . S
C2127 C2118 1.390 . S
C2127 H2120 0.950 . S
C2127 C2124 1.387 1_545 S
C2128 C2129 1.387 . S
C2128 H2132 0.950 . S
C2128 C2137 1.390 . S
C2129 C2128 1.387 . S
C2129 C2131 1.387 . S
H2130 C2137 0.950 . S
C2131 C2129 1.387 . S
C2131 C2133 1.390 . S
C2131 H2135 0.950 . S
H2132 C2128 0.950 . S
C2133 C2131 1.390 . S
C2133 C2134 1.387 . S
C2133 H2136 0.950 . S
C2134 C2133 1.387 . S
C2134 C2137 1.387 . S
H2135 C2131 0.950 . S
H2136 C2133 0.950 . S
C2137 C2128 1.390 . S
C2137 H2130 0.950 . S
C2137 C2134 1.387 . S
C2138 C2139 1.387 . S
C2138 H2142 0.950 . S
C2138 C2147 1.390 . S
C2139 C2138 1.387 . S
C2139 C2141 1.387 . S
H2140 C2147 0.950 . S
C2141 C2139 1.387 . S
C2141 C2143 1.390 . S
C2141 H2145 0.950 . S
H2142 C2138 0.950 . S
C2143 C2141 1.390 . S
C2143 C2144 1.387 . S
C2143 H2146 0.950 . S
C2144 C2143 1.387 . S
C2144 C2147 1.387 . S
H2145 C2141 0.950 . S
H2146 C2143 0.950 . S
C2147 C2138 1.390 . S
C2147 H2140 0.950 . S
C2147 C2144 1.387 . S
C2148 C2149 1.387 . S
C2148 H2152 0.950 . S
C2148 C2157 1.390 . S
C2149 C2148 1.387 . S
C2149 C2151 1.387 . S
H2150 C2157 0.950 . S
C2151 C2149 1.387 . S
C2151 C2153 1.390 . S
C2151 H2155 0.950 . S
H2152 C2148 0.950 . S
C2153 C2151 1.390 . S
C2153 C2154 1.387 . S
C2153 H2156 0.950 . S
C2154 C2153 1.387 . S
C2154 C2157 1.387 . S
H2155 C2151 0.950 . S
H2156 C2153 0.950 . S
C2157 C2148 1.390 . S
C2157 H2150 0.950 . S
C2157 C2154 1.387 . S
C2158 C2159 1.387 . S
C2158 H2162 0.950 . S
C2158 C2167 1.390 . S
C2159 C2158 1.387 . S
C2159 C2161 1.387 . S
H2160 C2167 0.950 . S
C2161 C2159 1.387 . S
C2161 C2163 1.390 . S
C2161 H2165 0.950 . S
H2162 C2158 0.950 . S
C2163 C2161 1.390 . S
C2163 C2164 1.387 . S
C2163 H2166 0.950 . S
C2164 C2163 1.387 . S
C2164 C2167 1.387 . S
H2165 C2161 0.950 . S
H2166 C2163 0.950 . S
C2167 C2158 1.390 . S
C2167 H2160 0.950 . S
C2167 C2164 1.387 . S
C2168 C2169 1.387 . S
C2168 H2172 0.950 . S
C2168 C2177 1.390 . S
C2169 C2168 1.387 . S
C2169 C2171 1.387 . S
H2170 C2177 0.950 . S
C2171 C2169 1.387 . S
C2171 C2173 1.390 . S
C2171 H2175 0.950 . S
H2172 C2168 0.950 . S
C2173 C2171 1.390 . S
C2173 C2174 1.387 . S
C2173 H2176 0.950 . S
C2174 C2173 1.387 . S
C2174 C2177 1.387 . S
H2175 C2171 0.950 . S
H2176 C2173 0.950 . S
C2177 C2168 1.390 . S
C2177 H2170 0.950 . S
C2177 C2174 1.387 . S
C2178 C2179 1.387 . S
C2178 H2182 0.950 . S
C2178 C2187 1.390 . S
C2179 C2178 1.387 . S
C2179 C2181 1.387 . S
H2180 C2187 0.950 . S
C2181 C2179 1.387 . S
C2181 C2183 1.390 . S
C2181 H2185 0.950 . S
H2182 C2178 0.950 . S
C2183 C2181 1.390 . S
C2183 C2184 1.387 . S
C2183 H2186 0.950 . S
C2184 C2183 1.387 . S
C2184 C2187 1.387 . S
H2185 C2181 0.950 . S
H2186 C2183 0.950 . S
C2187 C2178 1.390 . S
C2187 H2180 0.950 . S
C2187 C2184 1.387 . S
C2188 C2189 1.387 . S
C2188 H2192 0.950 . S
C2188 C2197 1.390 . S
C2189 C2188 1.387 . S
C2189 C2191 1.387 . S
H2190 C2197 0.950 . S
C2191 C2189 1.387 . S
C2191 C2193 1.390 . S
C2191 H2195 0.950 . S
H2192 C2188 0.950 . S
C2193 C2191 1.390 . S
C2193 C2194 1.387 . S
C2193 H2196 0.950 . S
C2194 C2193 1.387 . S
C2194 C2197 1.387 . S
H2195 C2191 0.950 . S
H2196 C2193 0.950 . S
C2197 C2188 1.390 . S
C2197 H2190 0.950 . S
C2197 C2194 1.387 . S
C2198 C2199 1.387 . S
C2198 H2202 0.950 . S
C2198 C2207 1.390 . S
C2199 C2198 1.387 . S
C2199 C2201 1.387 . S
H2200 C2207 0.950 . S
C2201 C2199 1.387 . S
C2201 C2203 1.390 . S
C2201 H2205 0.950 . S
H2202 C2198 0.950 . S
C2203 C2201 1.390 . S
C2203 C2204 1.387 . S
C2203 H2206 0.950 . S
C2204 C2203 1.387 . S
C2204 C2207 1.387 . S
H2205 C2201 0.950 . S
H2206 C2203 0.950 . S
C2207 C2198 1.390 . S
C2207 H2200 0.950 . S
C2207 C2204 1.387 . S
C1089 C482 0.771 . S
C1094 C6 0.775 . S
C1099 C1060 0.763 . S
C1104 C40 0.769 . S
C1109 C436 0.771 . S
C1114 C74 0.774 . S
C1119 C992 0.772 . S
C1124 C130 0.775 . S
C1129 C346 0.771 . S
C1134 C164 0.775 . S
C1139 C198 0.774 . S
C1144 C946 0.771 . S
C1149 C232 0.768 . S
C1154 C300 0.762 . S
C1159 C266 0.774 . S
C1164 C856 0.771 . S
C1169 C210 0.764 . S
C1174 C278 0.769 . S
C1179 C788 0.770 . S
C1184 C334 0.773 . S
C1189 C142 0.763 . S
C1194 C368 0.768 . S
C1199 C380 0.774 . S
C1204 C720 0.771 . S
C1209 C414 0.775 . S
C1214 C96 0.771 . S
C1219 C674 0.770 . S
C1224 C470 0.774 . S
C1229 C28 0.762 . S
C1234 C504 0.768 . S
C1239 C538 0.770 . S
C1244 C606 0.764 . S
C1249 C550 0.768 . S
C1254 C1026 0.763 . S
C1259 C516 0.771 . S
C1264 C584 0.774 . S
C1269 C640 0.768 . S
C1274 C980 0.762 . S
C1279 C448 0.771 . S
C1284 C652 0.774 . S
C1289 C890 0.763 . S
C1294 C708 0.769 . S
C1299 C742 0.769 . S
C1304 C402 0.763 . S
C1309 C776 0.770 . S
C1314 C822 0.767 . S
C1319 C810 0.769 . S
C1324 C312 0.763 . S
C1329 C844 0.775 . S
C1334 C754 0.772 . S
C1339 C244 0.771 . S
C1344 C878 0.774 . S
C1349 C912 0.769 . S
C1354 C686 0.763 . S
C1359 C176 0.766 . S
C1364 C924 0.771 . S
C1369 C958 0.769 . S
C1374 C618 0.763 . S
C1379 C108 0.764 . S
C1384 C1014 0.770 . S
C1389 C1048 0.775 . S
C1394 C572 0.772 . S
C1399 C1082 0.774 . S
C1404 C62 0.771 . S
C1409 C955 2.177 . S
C1414 C17 2.370 . S
C1419 C51 2.369 . S
C1424 C443 2.179 . S
C1429 C1021 2.177 . S
C1434 C85 2.370 . S
C1439 C511 2.178 1_455 S
C1444 C119 2.370 . S
C1449 C817 2.177 . S
C1454 C153 2.370 . S
C1459 C187 2.369 . S
C1464 C307 2.179 1_455 S
C1469 C885 2.179 . S
C1474 C221 2.369 . S
C1479 C377 2.178 . S
C1484 C255 2.370 . S
C1489 C681 2.180 . S
C1494 C289 2.369 . S
C1499 C171 2.179 . S
C1504 C323 2.369 . S
C1509 C357 2.369 . S
C1514 C749 2.179 . S
C1519 C391 2.369 . S
C1524 C239 2.179 1_655 S
C1529 C547 2.180 . S
C1534 C425 2.369 . S
C1539 C459 2.370 . S
C1544 C37 2.177 1_655 S
C1549 C493 2.369 . S
C1554 C613 2.179 . S
C1559 C103 2.179 . S
C1564 C527 2.369 . S
C1569 C561 2.370 . S
C1574 C411 2.177 . S
C1579 C987 2.179 1_655 S
C1584 C595 2.369 . S
C1589 C629 2.369 . S
C1594 C477 2.180 . S
C1599 C663 2.369 . S
C1604 C1055 2.179 . S
C1609 C697 2.369 . S
C1614 C275 2.180 . S
C1619 C851 2.178 . S
C1624 C731 2.370 . S
C1629 C341 2.180 . S
C1634 C765 2.369 . S
C1639 C921 2.178 1_655 S
C1644 C799 2.370 . S
C1649 C833 2.369 . S
C1654 C137 2.180 . S
C1659 C715 2.180 1_455 S
C1664 C867 2.370 . S
C1669 C205 2.180 . S
C1674 C901 2.370 . S
C1679 C783 2.178 . S
C1684 C935 2.370 . S
C1689 C3 2.179 . S
C1694 C969 2.369 . S
C1699 C581 2.179 . S
C1704 C1003 2.369 . S
C1709 C1037 2.369 . S
C1714 C71 2.179 . S
C1719 C1071 2.370 . S
C1724 C649 2.177 1_455 S
C1729 C151 1.759 . S
C1734 C22 1.759 . S
C1739 C56 1.758 . S
C1744 C185 1.758 . S
C1749 C219 1.758 . S
C1754 C90 1.758 . S
C1759 C117 1.758 . S
C1764 C253 1.758 . S
C1769 C294 1.758 . S
C1774 C430 1.758 . S
C1779 C321 1.759 . S
C1784 C457 1.759 . S
C1789 C355 1.759 . S
C1794 C491 1.759 . S
C1799 C525 1.758 . S
C1804 C396 1.758 . S
C1809 C695 1.758 . S
C1814 C566 1.758 . S
C1819 C729 1.758 . S
C1824 C600 1.758 . S
C1829 C627 1.759 . S
C1834 C763 1.759 . S
C1839 C668 1.758 . S
C1844 C797 1.758 . S
C1849 C831 1.758 . S
C1854 C974 1.758 . S
C1859 C1001 1.758 . S
C1864 C865 1.758 . S
C1869 C1035 1.759 . S
C1874 C899 1.759 . S
C1879 C1069 1.758 . S
C1884 C940 1.758 . S
C1889 C1 1.808 . S
C1894 C615 1.808 . S
C1899 C647 1.811 . S
C1904 C35 1.811 . S
C1909 C69 1.808 . S
C1914 C545 1.808 . S
C1919 C105 1.808 . S
C1924 C579 1.808 . S
C1929 C139 1.808 . S
C1934 C751 1.808 . S
C1939 C173 1.808 . S
C1944 C785 1.808 . S
C1949 C683 1.808 . S
C1954 C207 1.808 . S
C1959 C717 1.811 . S
C1964 C241 1.811 . S
C1969 C273 1.811 . S
C1974 C887 1.811 . S
C1979 C309 1.808 . S
C1984 C919 1.808 . S
C1989 C819 1.811 . S
C1994 C343 1.811 . S
C1999 C375 1.811 . S
C2004 C853 1.811 . S
C2009 C409 1.811 . S
C2014 C1023 1.811 . S
C2019 C445 1.808 . S
C2024 C1057 1.808 . S
C2029 C479 1.811 . S
C2034 C953 1.811 . S
C2039 C989 1.811 . S
C2044 C513 1.811 . S
C2049 C260 1.620 1_545 S
C2054 C15 1.619 . S
C2059 C49 1.621 1_565 S
C2064 C158 1.619 . S
C2069 C83 1.619 . S
C2074 C192 1.621 1_565 S
C2079 C124 1.619 1_545 S
C2084 C226 1.620 . S
C2089 C532 1.619 1_565 S
C2094 C287 1.620 . S
C2099 C328 1.621 1_545 S
C2104 C423 1.619 . S
C2109 C464 1.622 1_545 S
C2114 C362 1.619 . S
C2119 C389 1.619 1_565 S
C2124 C498 1.622 . S
C2129 C559 1.620 . S
C2134 C804 1.619 . S
C2139 C593 1.620 . S
C2144 C702 1.619 . S
C2149 C634 1.622 . S
C2154 C736 1.619 . S
C2159 C661 1.621 . S
C2164 C770 1.620 . S
C2169 C1076 1.620 . S
C2174 C838 1.619 . S
C2179 C872 1.620 . S
C2184 C967 1.621 . S
C2189 C906 1.619 . S
C2194 C1008 1.620 . S
C2199 C933 1.619 . S
C2204 C1042 1.622 . S
