# Generated by pormake.
# Topology lvt, (4)-cn, num edge types: 1
# Building blocks:
#     Node 0, Type 0, BuildingBlock: ESEHIV_clean_sbu_0, # of connection points: 4
#     Node 1, Type 0, BuildingBlock: ESEHIV_clean_sbu_0, # of connection points: 4
#     Node 2, Type 0, BuildingBlock: ESEHIV_clean_sbu_0, # of connection points: 4
#     Node 3, Type 0, BuildingBlock: ESEHIV_clean_sbu_0, # of connection points: 4
#     Node 4, Type 0, BuildingBlock: ESEHIV_clean_sbu_0, # of connection points: 4
#     Node 5, Type 0, BuildingBlock: ESEHIV_clean_sbu_0, # of connection points: 4
#     Node 6, Type 0, BuildingBlock: ESEHIV_clean_sbu_0, # of connection points: 4
#     Node 7, Type 0, BuildingBlock: ESEHIV_clean_sbu_0, # of connection points: 4
#     Edge 8, Type (0, 0), BuildingBlock: FUNLAD_clean_linker_0, # of connection points: 2
#     Edge 9, Type (0, 0), BuildingBlock: FUNLAD_clean_linker_0, # of connection points: 2
#     Edge 10, Type (0, 0), BuildingBlock: FUNLAD_clean_linker_0, # of connection points: 2
#     Edge 11, Type (0, 0), BuildingBlock: FUNLAD_clean_linker_0, # of connection points: 2
#     Edge 12, Type (0, 0), BuildingBlock: FUNLAD_clean_linker_0, # of connection points: 2
#     Edge 13, Type (0, 0), BuildingBlock: FUNLAD_clean_linker_0, # of connection points: 2
#     Edge 14, Type (0, 0), BuildingBlock: FUNLAD_clean_linker_0, # of connection points: 2
#     Edge 15, Type (0, 0), BuildingBlock: FUNLAD_clean_linker_0, # of connection points: 2
#     Edge 16, Type (0, 0), BuildingBlock: FUNLAD_clean_linker_0, # of connection points: 2
#     Edge 17, Type (0, 0), BuildingBlock: FUNLAD_clean_linker_0, # of connection points: 2
#     Edge 18, Type (0, 0), BuildingBlock: FUNLAD_clean_linker_0, # of connection points: 2
#     Edge 19, Type (0, 0), BuildingBlock: FUNLAD_clean_linker_0, # of connection points: 2
#     Edge 20, Type (0, 0), BuildingBlock: FUNLAD_clean_linker_0, # of connection points: 2
#     Edge 21, Type (0, 0), BuildingBlock: FUNLAD_clean_linker_0, # of connection points: 2
#     Edge 22, Type (0, 0), BuildingBlock: FUNLAD_clean_linker_0, # of connection points: 2
#     Edge 23, Type (0, 0), BuildingBlock: FUNLAD_clean_linker_0, # of connection points: 2
# Relax obj value: 0.002
# Max RMSD: 0.098
# Mean RMSD: 0.094
data_MOF--net-lvt--node1-ESEHIV_clean_sbu_0--edge1-FUNLAD_clean_linker_0
_symmetry_space_group_name_H-M    P1
_symmetry_Int_Tables_number       1
_symmetry_cell_setting            triclinic
loop_
_symmetry_equiv_pos_as_xyz
'x, y, z'
_cell_length_a     44.597333
_cell_length_b     44.804672
_cell_length_c     37.645541
_cell_angle_alpha  94.864206
_cell_angle_beta   89.947946
_cell_angle_gamma 94.392918
loop_
_atom_site_label
_atom_site_type_symbol
_atom_site_fract_x
_atom_site_fract_y
_atom_site_fract_z
_atom_type_partial_charge
Cu0 Cu 0.04827 1.00367 0.50452 0.0
N1 N 0.06611 0.96736 0.50868 0.0
N2 N 0.09012 0.93294 0.53527 0.0
C3 C 0.07967 0.96059 0.53869 0.0
C4 C 0.08274 0.9219 0.50163 0.0
C5 C 0.06786 0.94307 0.48539 0.0
O6 O 0.0226 1.00806 0.5463 0.0
C7 C 0.09772 0.0297 0.47265 0.0
O8 O 0.09618 1.00216 0.45736 0.0
H9 H 0.082 0.9759 0.56252 0.0
H10 H 0.05897 0.94073 0.45857 0.0
N11 N 0.02192 1.0047 0.4659 0.0
N12 N 0.98535 0.02349 0.43588 0.0
C13 C 1.00227 0.02603 0.46581 0.0
C14 C 1.01748 0.98791 0.43469 0.0
C15 C 0.99476 0.99939 0.41617 0.0
C16 C 1.00026 0.98838 0.54396 0.0
O17 O 0.998 0.96868 0.51602 0.0
H18 H 1.00028 0.04293 0.4878 0.0
H19 H 0.0299 0.96895 0.42575 0.0
O20 O 0.07923 0.03598 0.49758 0.0
H21 H 0.08731 0.8999 0.48967 0.0
H22 H 0.98629 0.99098 0.39 0.0
Cu23 Cu 0.28893 0.77112 0.79933 0.0
N24 N 0.25405 0.79199 0.79951 0.0
N25 N 0.21828 0.81739 0.77647 0.0
C26 C 0.24321 0.80249 0.76996 0.0
C27 C 0.21324 0.81607 0.81176 0.0
C28 C 0.23538 0.80047 0.82591 0.0
O29 O 0.28592 0.74441 0.7556 0.0
C30 C 0.32585 0.81463 0.83558 0.0
O31 O 0.30453 0.80913 0.85879 0.0
H32 H 0.25348 0.79896 0.74405 0.0
H33 H 0.23784 0.796 0.85349 0.0
N34 N 0.29275 0.74593 0.83613 0.0
N35 N 0.31458 0.71165 0.86512 0.0
C36 C 0.31713 0.73036 0.83885 0.0
C37 C 0.27388 0.73692 0.86174 0.0
C38 C 0.28731 0.71563 0.87965 0.0
C39 C 0.26504 0.72341 0.75715 0.0
O40 O 0.2491 0.72237 0.78642 0.0
H41 H 0.33596 0.73199 0.82079 0.0
H42 H 0.25168 0.74454 0.86639 0.0
O43 O 0.32371 0.80048 0.80467 0.0
H44 H 0.19524 0.82616 0.82655 0.0
H45 H 0.27767 0.70393 0.90146 0.0
Cu46 Cu 0.56357 0.04615 0.99473 0.0
N47 N 0.58697 0.04456 0.95341 0.0
N48 N 0.62212 0.02761 0.91607 0.0
C49 C 0.60952 0.02636 0.94855 0.0
C50 C 0.60673 0.04747 0.89976 0.0
C51 C 0.58504 0.05792 0.92289 0.0
O52 O 0.53524 1.01057 0.98906 0.0
C53 C 0.61292 0.06991 0.03228 0.0
O54 O 0.61288 0.08633 0.00497 0.0
H55 H 0.6158 1.01166 0.96821 0.0
H56 H 0.56863 0.07352 0.91747 0.0
N57 N 0.54161 0.08014 1.00226 0.0
N58 N 0.51153 0.11168 0.03149 0.0
C59 C 0.52165 0.0839 0.02884 0.0
C60 C 0.54442 0.1065 0.98746 0.0
C61 C 0.52581 0.12596 0.00534 0.0
C62 C 0.51768 1.01025 0.96224 0.0
O63 O 0.51926 0.03378 0.94354 0.0
H64 H 0.51578 0.06685 0.0469 0.0
H65 H 0.55966 0.11163 0.9661 0.0
O66 O 0.59205 0.04896 0.03437 0.0
H67 H 0.61062 0.05382 0.87294 0.0
H68 H 0.52331 0.14892 0.99968 0.0
Cu69 Cu 0.28501 0.27486 0.25077 0.0
N70 N 0.2534 0.24515 0.25533 0.0
N71 N 0.22175 0.21264 0.28157 0.0
C72 C 0.2461 0.23252 0.28574 0.0
C73 C 0.21348 0.21274 0.24707 0.0
C74 C 0.23293 0.23296 0.23102 0.0
O75 O 0.28172 0.30605 0.28998 0.0
C76 C 0.32209 0.23412 0.22079 0.0
O77 O 0.29665 0.22689 0.20352 0.0
H78 H 0.25844 0.23791 0.31049 0.0
H79 H 0.23204 0.23861 0.20368 0.0
N80 N 0.28303 0.2953 0.20973 0.0
N81 N 0.30267 0.327 0.17156 0.0
C82 C 0.30809 0.3058 0.19355 0.0
C83 C 0.2607 0.31024 0.19731 0.0
C84 C 0.27281 0.32991 0.17371 0.0
C85 C 0.25492 0.31353 0.29533 0.0
O86 O 0.23297 0.29915 0.27612 0.0
H87 H 0.33039 0.30017 0.20055 0.0
H88 H 0.23779 0.30876 0.20678 0.0
O89 O 0.32277 0.25521 0.2459 0.0
H90 H 0.19435 0.19967 0.23453 0.0
H91 H 0.2609 0.34613 0.16065 0.0
Cu92 Cu 0.78567 0.27059 0.30269 0.0
N93 N 0.75198 0.29336 0.30288 0.0
N94 N 0.71789 0.32003 0.27891 0.0
C95 C 0.73663 0.29789 0.27317 0.0
C96 C 0.72143 0.32986 0.31361 0.0
C97 C 0.74237 0.31327 0.32841 0.0
O98 O 0.78208 0.24352 0.25918 0.0
C99 C 0.82578 0.3107 0.34036 0.0
O100 O 0.80614 0.30349 0.36481 0.0
H101 H 0.74075 0.28671 0.24719 0.0
H102 H 0.75111 0.31671 0.35533 0.0
N103 N 0.78768 0.24511 0.33947 0.0
N104 N 0.80818 0.21102 0.37001 0.0
C105 C 0.81207 0.22997 0.34414 0.0
C106 C 0.76743 0.23557 0.36339 0.0
C107 C 0.78004 0.21432 0.38221 0.0
C108 C 0.75935 0.22446 0.26016 0.0
O109 O 0.74201 0.22595 0.28838 0.0
H110 H 0.83201 0.23216 0.32786 0.0
H111 H 0.74495 0.24293 0.36628 0.0
O112 O 0.82165 0.29864 0.30856 0.0
H113 H 0.71044 0.34838 0.32696 0.0
H114 H 0.76933 0.20223 0.4031 0.0
Cu115 Cu 0.79185 0.78212 0.75871 0.0
N116 N 0.75732 0.75686 0.76634 0.0
N117 N 0.72531 0.72666 0.79552 0.0
C118 C 0.75352 0.73994 0.79419 0.0
C119 C 0.71084 0.73562 0.76722 0.0
C120 C 0.7306 0.75429 0.74936 0.0
O121 O 0.79304 0.81413 0.79735 0.0
C122 C 0.82349 0.73691 0.72782 0.0
O123 O 0.79657 0.73039 0.71379 0.0
H124 H 0.77086 0.73846 0.81391 0.0
H125 H 0.72552 0.76588 0.72632 0.0
N126 N 0.79108 0.8021 0.71719 0.0
N127 N 0.80815 0.83586 0.67999 0.0
C128 C 0.80908 0.82707 0.71333 0.0
C129 C 0.77805 0.79459 0.68514 0.0
C130 C 0.78843 0.81554 0.66214 0.0
C131 C 0.77161 0.83115 0.79467 0.0
O132 O 0.7521 0.82499 0.76849 0.0
H133 H 0.82322 0.83805 0.73465 0.0
H134 H 0.76325 0.77465 0.67849 0.0
O135 O 0.82693 0.75864 0.75206 0.0
H136 H 0.68759 0.72936 0.76001 0.0
H137 H 0.78302 0.81489 0.63406 0.0
Cu138 Cu 0.54991 0.5094 0.01164 0.0
N139 N 0.52483 0.50672 0.97168 0.0
N140 N 0.48916 0.52291 0.93786 0.0
C141 C 0.50906 0.52997 0.96477 0.0
C142 C 0.49263 0.49377 0.92729 0.0
C143 C 0.51473 0.48381 0.94827 0.0
O144 O 0.57497 0.54692 0.00802 0.0
C145 C 0.50883 0.4808 0.05195 0.0
O146 O 0.51562 0.45979 0.02745 0.0
H147 H 0.51106 0.55124 0.98082 0.0
H148 H 0.52196 0.46126 0.94747 0.0
N149 N 0.57498 0.47767 0.01455 0.0
N150 N 0.60305 0.44609 0.04031 0.0
C151 C 0.58491 0.46879 0.04553 0.0
C152 C 0.58708 0.45967 0.98878 0.0
C153 C 0.6047 0.44037 1.00463 0.0
C154 C 0.59241 0.54591 0.98107 0.0
O155 O 0.59274 0.52049 0.96105 0.0
H156 H 0.57924 0.47912 0.07147 0.0
H157 H 0.58348 0.46057 0.9605 0.0
O158 O 0.52194 0.50711 0.05144 0.0
H159 H 0.47973 0.48042 0.90648 0.0
H160 H 0.61746 0.42327 0.99106 0.0
Cu161 Cu 0.05519 0.5523 0.49569 0.0
N162 N 0.03295 0.58615 0.4957 0.0
N163 N 1.00248 0.62062 0.51776 0.0
C164 C 1.01836 0.59727 0.52465 0.0
C165 C 1.00739 0.62434 0.4829 0.0
C166 C 0.02625 0.60308 0.46938 0.0
O167 O 0.08118 0.55922 0.53758 0.0
C168 C 1.01257 0.51335 0.4623 0.0
O169 O 1.01745 0.53405 0.43981 0.0
H170 H 1.01859 0.58759 0.55002 0.0
H171 H 0.03391 0.59982 0.44218 0.0
N172 N 0.0816 0.54576 0.45767 0.0
N173 N 0.11551 0.51994 0.42676 0.0
C174 C 0.09638 0.52067 0.45453 0.0
C175 C 0.09174 0.56193 0.43097 0.0
C176 C 0.11278 0.54599 0.41181 0.0
C177 C 0.0998 0.58207 0.53524 0.0
O178 O 0.09832 0.59727 0.50701 0.0
H179 H 0.09353 0.50358 0.47316 0.0
H180 H 0.08479 0.58381 0.42609 0.0
O181 O 0.02682 0.51671 0.49197 0.0
H182 H 0.99785 0.64104 0.46809 0.0
H183 H 0.12493 0.553 0.38866 0.0
C184 C 0.11137 0.08343 0.45929 0.0
C185 C 0.11761 0.05301 0.45662 0.0
C186 C 0.12711 0.10386 0.43824 0.0
C187 C 0.14949 0.09417 0.41433 0.0
C188 C 0.15662 0.06415 0.41332 0.0
C189 C 0.141 0.04391 0.43415 0.0
C190 C 0.1642 0.11337 0.38774 0.0
C191 C 0.16529 0.14363 0.38963 0.0
C192 C 0.17969 0.1612 0.36133 0.0
C193 C 0.19386 0.18988 0.37057 0.0
C194 C 0.2078 0.20666 0.34453 0.0
C195 C 0.20736 0.19538 0.30846 0.0
H196 H 0.16747 0.12844 0.31681 0.0
C197 C 0.19253 0.16699 0.29909 0.0
C198 C 0.17892 0.15007 0.32517 0.0
H199 H 0.19177 0.15766 0.27161 0.0
H200 H 0.09327 0.09107 0.47608 0.0
H201 H 0.12061 0.12669 0.43954 0.0
H202 H 0.17377 0.05598 0.39539 0.0
H203 H 0.14653 0.0207 0.43155 0.0
H204 H 0.17531 0.10171 0.36554 0.0
H205 H 0.15679 0.15601 0.41305 0.0
H206 H 0.19448 0.19919 0.3981 0.0
H207 H 0.21858 0.22866 0.35257 0.0
C208 C 0.10244 0.92646 0.59848 0.0
C209 C 0.10592 0.91839 0.5618 0.0
C210 C 0.11803 0.91257 0.6241 0.0
C211 C 0.13752 0.89012 0.6137 0.0
C212 C 0.14104 0.88221 0.57707 0.0
C213 C 0.1254 0.89599 0.55151 0.0
C214 C 0.15555 0.87528 0.63975 0.0
C215 C 0.14923 0.87466 0.67485 0.0
C216 C 0.16758 0.85968 0.70046 0.0
C217 C 0.15445 0.85132 0.73249 0.0
C218 C 0.17095 0.83753 0.75736 0.0
C219 C 0.20118 0.83189 0.75101 0.0
H220 H 0.20944 0.86147 0.67076 0.0
C221 C 0.21445 0.84071 0.71918 0.0
C222 C 0.19797 0.85446 0.69433 0.0
H223 H 0.23784 0.8375 0.71361 0.0
H224 H 0.08752 0.94344 0.6075 0.0
H225 H 0.11508 0.91997 0.65189 0.0
H226 H 0.15607 0.86526 0.56809 0.0
H227 H 0.12906 0.88944 0.52362 0.0
H228 H 0.17424 0.86335 0.62891 0.0
H229 H 0.12911 0.88434 0.68526 0.0
H230 H 0.13119 0.85523 0.73821 0.0
H231 H 0.15982 0.83097 0.78135 0.0
C232 C 0.4802 0.98403 0.91859 0.0
C233 C 0.49675 0.98384 0.95039 0.0
C234 C 0.46055 0.95954 0.90642 0.0
C235 C 0.45689 0.93397 0.92567 0.0
C236 C 0.47321 0.9338 0.95766 0.0
C237 C 0.49311 0.95837 0.9698 0.0
C238 C 0.43472 0.90824 0.91435 0.0
C239 C 0.42506 0.90154 0.88032 0.0
C240 C 0.40045 0.87802 0.86955 0.0
C241 C 0.39814 0.86581 0.83383 0.0
C242 C 0.37421 0.84497 0.8225 0.0
C243 C 0.35182 0.83622 0.84663 0.0
H244 H 0.37827 0.87857 0.92101 0.0
C245 C 0.35416 0.84851 0.88229 0.0
C246 C 0.37804 0.86911 0.8936 0.0
H247 H 0.33732 0.84243 0.90169 0.0
H248 H 0.48226 1.00327 0.90293 0.0
H249 H 0.44775 0.96116 0.88236 0.0
H250 H 0.47056 0.91459 0.97333 0.0
H251 H 0.50544 0.95749 0.9944 0.0
H252 H 0.42634 0.89428 0.93495 0.0
H253 H 0.4356 0.91362 0.85921 0.0
H254 H 0.41487 0.87251 0.81457 0.0
H255 H 0.37308 0.836 0.79486 0.0
C256 C 0.34589 0.19322 0.18482 0.0
C257 C 0.3494 0.21992 0.20737 0.0
C258 C 0.37042 0.18151 0.16706 0.0
C259 C 0.39945 0.19602 0.17151 0.0
C260 C 0.40319 0.22229 0.19498 0.0
C261 C 0.37844 0.23405 0.21293 0.0
C262 C 0.42548 0.18567 0.14985 0.0
C263 C 0.42627 0.15734 0.13442 0.0
C264 C 0.44984 0.14667 0.10914 0.0
C265 C 0.4504 0.1156 0.10037 0.0
C266 C 0.47055 0.10425 0.07514 0.0
C267 C 0.49081 0.12365 0.05772 0.0
H268 H 0.47021 0.19032 0.09708 0.0
C269 C 0.4904 0.15482 0.06651 0.0
C270 C 0.47016 0.16622 0.09184 0.0
H271 H 0.50578 0.17049 0.05393 0.0
H272 H 0.32382 0.18178 0.17978 0.0
H273 H 0.36602 0.16183 0.14859 0.0
H274 H 0.42519 0.23415 0.19878 0.0
H275 H 0.38185 0.25485 0.2298 0.0
H276 H 0.44425 0.20205 0.14651 0.0
H277 H 0.4086 0.14058 0.14057 0.0
H278 H 0.43487 0.09991 0.11282 0.0
H279 H 0.46976 0.0802 0.06884 0.0
C280 C 0.94662 0.98427 0.55994 0.0
C281 C 0.97674 0.98627 0.57117 0.0
C282 C 0.92381 0.97289 0.58156 0.0
C283 C 0.93082 0.96248 0.61456 0.0
C284 C 0.96068 0.96716 0.62716 0.0
C285 C 0.98356 0.97892 0.60555 0.0
C286 C 0.90822 0.9446 0.63497 0.0
C287 C 0.8847 0.92774 0.61911 0.0
C288 C 0.86435 0.90583 0.63715 0.0
C289 C 0.83689 0.89512 0.62061 0.0
C290 C 0.81824 0.87259 0.63485 0.0
C291 C 0.82669 0.86002 0.66594 0.0
H292 H 0.89397 0.90024 0.68158 0.0
C293 C 0.85407 0.87096 0.68268 0.0
C294 C 0.87266 0.89351 0.6685 0.0
H295 H 0.86181 0.86149 0.70618 0.0
H296 H 0.94091 0.98987 0.53345 0.0
H297 H 0.90096 0.97114 0.57154 0.0
H298 H 0.96667 0.95977 0.6527 0.0
H299 H 1.00672 0.97987 0.6145 0.0
H300 H 0.91266 0.9435 0.66313 0.0
H301 H 0.88061 0.92877 0.59085 0.0
H302 H 0.82995 0.904 0.59628 0.0
H303 H 0.79727 0.86498 0.6214 0.0
C304 C 0.96342 0.07276 0.44253 0.0
C305 C 0.96242 0.04292 0.42728 0.0
C306 C 0.94094 0.0915 0.4353 0.0
C307 C 0.91685 0.08102 0.41227 0.0
C308 C 0.91571 0.05115 0.39716 0.0
C309 C 0.93832 0.03236 0.40437 0.0
C310 C 0.89233 0.10043 0.40426 0.0
C311 C 0.89629 0.1307 0.40612 0.0
C312 C 0.87264 0.15075 0.39742 0.0
C313 C 0.88179 0.17946 0.38727 0.0
C314 C 0.86065 0.19921 0.3788 0.0
C315 C 0.8297 0.19097 0.38072 0.0
H316 H 0.83363 0.12097 0.4087 0.0
C317 C 0.82036 0.16257 0.39188 0.0
C318 C 0.8416 0.14257 0.40004 0.0
H319 H 0.79666 0.15559 0.39357 0.0
H320 H 0.98171 0.08182 0.46006 0.0
H321 H 0.94235 0.114 0.44842 0.0
H322 H 0.8973 0.04233 0.3796 0.0
H323 H 0.93661 1.00942 0.39253 0.0
H324 H 0.87098 0.08929 0.39485 0.0
H325 H 0.9185 0.14154 0.4123 0.0
H326 H 0.90548 0.18658 0.38547 0.0
H327 H 0.86858 0.22109 0.37085 0.0
C328 C 0.72932 0.17801 0.23648 0.0
C329 C 0.75077 0.20167 0.23036 0.0
C330 C 0.71789 0.15804 0.20849 0.0
C331 C 0.72774 0.16103 0.17339 0.0
C332 C 0.75002 0.18409 0.1674 0.0
C333 C 0.76159 0.20414 0.19564 0.0
C334 C 0.71313 0.14271 0.14227 0.0
C335 C 0.69591 0.11672 0.14465 0.0
C336 C 0.67695 0.10159 0.11477 0.0
C337 C 0.65149 0.08274 0.12263 0.0
C338 C 0.63118 0.0709 0.09568 0.0
C339 C 0.63604 0.07776 0.06036 0.0
H340 H 0.70274 0.11966 0.0713 0.0
C341 C 0.66248 0.09493 0.05219 0.0
C342 C 0.6828 0.10652 0.07895 0.0
H343 H 0.6672 0.10005 0.02504 0.0
H344 H 0.72055 0.17535 0.26297 0.0
H345 H 0.70033 0.14131 0.2146 0.0
H346 H 0.75793 0.18711 0.14063 0.0
H347 H 0.77803 0.22219 0.19007 0.0
H348 H 0.71541 0.15229 0.11682 0.0
H349 H 0.69373 0.10704 0.17005 0.0
H350 H 0.6466 0.07818 0.14993 0.0
H351 H 0.61106 0.05764 0.10274 0.0
C352 C 0.66627 0.99832 0.92399 0.0
C353 C 0.64551 1.00966 0.90144 0.0
C354 C 0.68778 0.97937 0.9101 0.0
C355 C 0.6889 0.97113 0.87321 0.0
C356 C 0.66873 0.98326 0.85068 0.0
C357 C 0.64732 1.00223 0.86455 0.0
C358 C 0.71022 0.94986 0.85682 0.0
C359 C 0.72614 0.93146 0.87489 0.0
C360 C 0.74386 0.9078 0.85649 0.0
C361 C 0.74754 0.88122 0.87294 0.0
C362 C 0.75967 0.85665 0.85398 0.0
C363 C 0.76843 0.85849 0.81841 0.0
H364 H 0.75441 0.93084 0.80891 0.0
C365 C 0.76717 0.8858 0.80303 0.0
C366 C 0.75543 0.91036 0.82199 0.0
H367 H 0.77379 0.88763 0.77554 0.0
H368 H 0.66598 1.00413 0.95247 0.0
H369 H 0.70334 0.9714 0.92846 0.0
H370 H 0.66909 0.97755 0.82213 0.0
H371 H 0.63164 1.01035 0.8464 0.0
H372 H 0.71095 0.9478 0.82791 0.0
H373 H 0.72388 0.93146 0.90357 0.0
H374 H 0.73926 0.87875 0.89967 0.0
H375 H 0.76 0.83562 0.86614 0.0
C376 C 0.63414 0.56843 0.94577 0.0
C377 C 0.60995 0.57271 0.96913 0.0
C378 C 0.64814 0.59235 0.92903 0.0
C379 C 0.63845 0.62148 0.93527 0.0
C380 C 0.61487 0.62602 0.95962 0.0
C381 C 0.60088 0.60192 0.97664 0.0
C382 C 0.65065 0.64661 0.91433 0.0
C383 C 0.67796 0.64713 0.89865 0.0
C384 C 0.68947 0.66955 0.87371 0.0
C385 C 0.72044 0.67219 0.8665 0.0
C386 C 0.73215 0.69106 0.84126 0.0
C387 C 0.71315 0.70768 0.82218 0.0
H388 H 0.64632 0.68456 0.85892 0.0
C389 C 0.68212 0.70521 0.82947 0.0
C390 C 0.67039 0.68639 0.8549 0.0
H391 H 0.66682 0.71783 0.81554 0.0
H392 H 0.64163 0.54619 0.93927 0.0
H393 H 0.66553 0.58741 0.90986 0.0
H394 H 0.60672 0.64813 0.96478 0.0
H395 H 0.58206 0.60588 0.99417 0.0
H396 H 0.63648 0.66493 0.91162 0.0
H397 H 0.69306 0.63021 0.90427 0.0
H398 H 0.7357 0.65927 0.88016 0.0
H399 H 0.75606 0.69202 0.83612 0.0
C400 C 0.70234 0.36414 0.25031 0.0
C401 C 0.70094 0.33287 0.25222 0.0
C402 C 0.68711 0.37649 0.22317 0.0
C403 C 0.66959 0.35781 0.19793 0.0
C404 C 0.66759 0.32663 0.20046 0.0
C405 C 0.68356 0.31423 0.22693 0.0
C406 C 0.65249 0.37046 0.16953 0.0
C407 C 0.66444 0.39262 0.15057 0.0
C408 C 0.64777 0.405 0.1216 0.0
C409 C 0.66313 0.41279 0.09071 0.0
C410 C 0.64824 0.42548 0.06359 0.0
C411 C 0.61793 0.43159 0.06736 0.0
H412 H 0.60492 0.40532 0.14885 0.0
C413 C 0.60259 0.42409 0.0984 0.0
C414 C 0.61724 0.41059 0.12508 0.0
H415 H 0.5792 0.42857 0.10188 0.0
H416 H 0.71575 0.37893 0.26939 0.0
H417 H 0.68868 0.40066 0.22223 0.0
H418 H 0.65407 0.31178 0.18151 0.0
H419 H 0.68214 0.29008 0.22795 0.0
H420 H 0.63024 0.35998 0.16256 0.0
H421 H 0.68781 0.40085 0.15508 0.0
H422 H 0.68671 0.40894 0.0875 0.0
H423 H 0.6606 0.43131 0.04007 0.0
C424 C 0.85482 0.34409 0.38678 0.0
C425 C 0.85159 0.33267 0.35086 0.0
C426 C 0.87806 0.36554 0.39764 0.0
C427 C 0.89907 0.37615 0.37291 0.0
C428 C 0.89602 0.36464 0.33696 0.0
C429 C 0.8726 0.34303 0.32603 0.0
C430 C 0.92289 0.40067 0.38324 0.0
C431 C 0.93233 0.40846 0.41719 0.0
C432 C 0.95354 0.43512 0.42803 0.0
C433 C 0.96859 0.43683 0.46112 0.0
C434 C 0.98769 0.46217 0.47272 0.0
C435 C 0.99194 0.48647 0.45152 0.0
H436 H 0.94572 0.45999 0.38217 0.0
C437 C 0.97658 0.48485 0.41867 0.0
C438 C 0.9576 0.45966 0.40714 0.0
H439 H 0.97904 0.50321 0.40168 0.0
H440 H 0.83902 0.33681 0.40675 0.0
H441 H 0.87872 0.3743 0.4253 0.0
H442 H 0.91165 0.37259 0.31718 0.0
H443 H 0.87074 0.33478 0.29817 0.0
H444 H 0.93291 0.41266 0.36177 0.0
H445 H 0.92448 0.39475 0.43824 0.0
H446 H 0.9656 0.41847 0.47806 0.0
H447 H 0.99914 0.46268 0.49814 0.0
C448 C 0.84373 0.69785 0.68498 0.0
C449 C 0.84934 0.72204 0.71109 0.0
C450 C 0.86716 0.68602 0.66508 0.0
C451 C 0.89699 0.69808 0.6706 0.0
C452 C 0.90292 0.7211 0.69807 0.0
C453 C 0.87932 0.73313 0.718 0.0
C454 C 0.92203 0.68673 0.64811 0.0
C455 C 0.91796 0.67657 0.61345 0.0
C456 C 0.94163 0.66414 0.58963 0.0
C457 C 0.93715 0.66263 0.55253 0.0
C458 C 0.95745 0.64915 0.52901 0.0
C459 C 0.98267 0.63643 0.54196 0.0
H460 H 0.97131 0.65217 0.63102 0.0
C461 C 0.98747 0.63831 0.5791 0.0
C462 C 0.96724 0.65201 0.60268 0.0
H463 H 1.00679 0.62898 0.59002 0.0
H464 H 0.82101 0.68838 0.6792 0.0
H465 H 0.86176 0.66747 0.64523 0.0
H466 H 0.92575 0.73049 0.70333 0.0
H467 H 0.88445 0.75171 0.73792 0.0
H468 H 0.94433 0.68817 0.65994 0.0
H469 H 0.8961 0.67805 0.60129 0.0
H470 H 0.91755 0.67155 0.54162 0.0
H471 H 0.95279 0.64785 0.5007 0.0
C472 C 0.48645 0.44508 0.09264 0.0
C473 C 0.48557 0.47275 0.07799 0.0
C474 C 0.46124 0.43232 0.10922 0.0
C475 C 0.43423 0.44665 0.11078 0.0
C476 C 0.43414 0.47561 0.09895 0.0
C477 C 0.45968 0.4886 0.08251 0.0
C478 C 0.40589 0.43101 0.12319 0.0
C479 C 0.40026 0.40096 0.11683 0.0
C480 C 0.37355 0.38281 0.12944 0.0
C481 C 0.37537 0.35164 0.1294 0.0
C482 C 0.35172 0.33336 0.14212 0.0
C483 C 0.32538 0.34566 0.15485 0.0
H484 H 0.34416 0.41893 0.14097 0.0
C485 C 0.32286 0.37668 0.15366 0.0
C486 C 0.34678 0.39516 0.14121 0.0
H487 H 0.30286 0.38679 0.16352 0.0
H488 H 0.50628 0.43254 0.08965 0.0
H489 H 0.46269 0.41068 0.11962 0.0
H490 H 0.41378 0.48738 0.10044 0.0
H491 H 0.4584 0.50984 0.07104 0.0
H492 H 0.38946 0.44454 0.13668 0.0
H493 H 0.41677 0.38836 0.10204 0.0
H494 H 0.39551 0.34136 0.1202 0.0
H495 H 0.35417 0.30952 0.14245 0.0
C496 C 0.32734 0.66394 0.88869 0.0
C497 C 0.33631 0.69111 0.87412 0.0
C498 C 0.34856 0.64356 0.89569 0.0
C499 C 0.37927 0.64999 0.88828 0.0
C500 C 0.38814 0.67743 0.87448 0.0
C501 C 0.36702 0.69763 0.8674 0.0
C502 C 0.40311 0.62964 0.89566 0.0
C503 C 0.39815 0.60013 0.90051 0.0
C504 C 0.42266 0.58061 0.90841 0.0
C505 C 0.41747 0.54919 0.90264 0.0
C506 C 0.43951 0.53018 0.91119 0.0
C507 C 0.46723 0.54217 0.92604 0.0
H508 H 0.45553 0.61642 0.92883 0.0
C509 C 0.47256 0.57359 0.93127 0.0
C510 C 0.4506 0.59252 0.92289 0.0
H511 H 0.49371 0.58371 0.94229 0.0
H512 H 0.30387 0.6582 0.89413 0.0
H513 H 0.34077 0.62308 0.90722 0.0
H514 H 0.4116 0.68329 0.86894 0.0
H515 H 0.37485 0.71854 0.85684 0.0
H516 H 0.42608 0.63954 0.8956 0.0
H517 H 0.37551 0.58946 0.89761 0.0
H518 H 0.39615 0.53927 0.89178 0.0
H519 H 0.43444 0.50613 0.90715 0.0
C520 C 0.24064 0.67422 0.73307 0.0
C521 C 0.2563 0.70163 0.72656 0.0
C522 C 0.22729 0.65534 0.70519 0.0
C523 C 0.22889 0.66368 0.67004 0.0
C524 C 0.24645 0.69006 0.66321 0.0
C525 C 0.26007 0.70892 0.69125 0.0
C526 C 0.21151 0.64634 0.64027 0.0
C527 C 0.18604 0.62872 0.64517 0.0
C528 C 0.16575 0.61518 0.61567 0.0
C529 C 0.14443 0.59141 0.62213 0.0
C530 C 0.12325 0.57992 0.59594 0.0
C531 C 0.12282 0.59226 0.56291 0.0
H532 H 0.18066 0.64595 0.57635 0.0
C533 C 0.1444 0.61571 0.55637 0.0
C534 C 0.16548 0.62708 0.58233 0.0
H535 H 0.14477 0.62584 0.53123 0.0
H536 H 0.2379 0.66771 0.76003 0.0
H537 H 0.21531 0.63459 0.71158 0.0
H538 H 0.24846 0.69683 0.63631 0.0
H539 H 0.27204 0.7299 0.68548 0.0
H540 H 0.21899 0.65 0.61347 0.0
H541 H 0.17861 0.62499 0.67198 0.0
H542 H 0.14389 0.58198 0.6477 0.0
H543 H 0.1069 0.56189 0.60182 0.0
C544 C 0.21857 0.33936 0.33426 0.0
C545 C 0.24755 0.33954 0.31971 0.0
C546 C 0.20802 0.36544 0.35089 0.0
C547 C 0.22629 0.3926 0.35372 0.0
C548 C 0.25583 0.39253 0.34047 0.0
C549 C 0.26652 0.36613 0.32384 0.0
C550 C 0.21375 0.42148 0.36692 0.0
C551 C 0.1902 0.42236 0.38946 0.0
C552 C 0.1723 0.44876 0.39859 0.0
C553 C 0.14556 0.44372 0.41759 0.0
C554 C 0.12695 0.46684 0.42613 0.0
C555 C 0.13457 0.49602 0.41631 0.0
H556 H 0.20039 0.48295 0.3737 0.0
C557 C 0.1613 0.50128 0.3971 0.0
C558 C 0.18001 0.4779 0.38829 0.0
H559 H 0.168 0.52352 0.38935 0.0
H560 H 0.20336 0.31924 0.33122 0.0
H561 H 0.18485 0.36439 0.35947 0.0
H562 H 0.27032 0.41314 0.34195 0.0
H563 H 0.2888 0.367 0.31232 0.0
H564 H 0.22333 0.44185 0.35636 0.0
H565 H 0.18239 0.40182 0.40109 0.0
H566 H 0.1387 0.42156 0.42561 0.0
H567 H 0.10631 0.4616 0.44019 0.0
loop_
_geom_bond_atom_site_label_1
_geom_bond_atom_site_label_2
_geom_bond_distance
_geom_bond_site_symmetry_2
_ccdc_geom_bond_type
Cu0 N1 1.999 1_545 S
Cu0 O6 1.974 1_445 S
Cu0 N11 1.985 1_455 S
Cu0 O20 1.959 . S
N1 Cu0 1.999 1_565 S
N1 C3 1.263 . S
N1 C5 1.389 1_565 S
N2 C3 1.358 . S
N2 C4 1.400 . S
C3 N1 1.263 . S
C3 N2 1.358 . S
C3 H9 0.930 . S
C4 N2 1.400 . S
C4 C5 1.351 1_565 S
C4 H21 0.930 . S
C5 N1 1.389 1_545 S
C5 C4 1.351 1_545 S
C5 H10 0.930 . S
O6 Cu0 1.974 1_665 S
O6 C16 1.282 . S
C7 O8 1.261 . S
C7 O20 1.251 . S
O8 C7 1.261 . S
H9 C3 0.930 . S
H10 C5 0.930 . S
N11 Cu0 1.985 1_655 S
N11 C13 1.335 . S
N11 C14 1.390 . S
N12 C13 1.345 . S
N12 C15 1.336 . S
C13 N11 1.335 . S
C13 N12 1.345 . S
C13 H18 0.930 1_655 S
C14 N11 1.390 . S
C14 C15 1.346 . S
C14 H19 0.930 1_545 S
C15 N12 1.336 . S
C15 C14 1.346 . S
C15 H22 0.929 . S
C16 O6 1.282 . S
C16 O17 1.216 . S
O17 C16 1.216 . S
H18 C13 0.930 1_455 S
H19 C14 0.930 1_565 S
O20 Cu0 1.959 . S
O20 C7 1.251 . S
H21 C4 0.930 . S
H22 C15 0.929 . S
Cu23 N24 1.999 . S
Cu23 O29 1.974 . S
Cu23 N34 1.985 . S
Cu23 O43 1.959 . S
N24 Cu23 1.999 . S
N24 C26 1.263 . S
N24 C28 1.389 . S
N25 C26 1.358 . S
N25 C27 1.400 . S
C26 N24 1.263 . S
C26 N25 1.358 . S
C26 H32 0.930 . S
C27 N25 1.400 . S
C27 C28 1.351 . S
C27 H44 0.930 . S
C28 N24 1.389 . S
C28 C27 1.351 . S
C28 H33 0.930 . S
O29 Cu23 1.974 . S
O29 C39 1.282 . S
C30 O31 1.261 . S
C30 O43 1.251 . S
O31 C30 1.261 . S
H32 C26 0.930 . S
H33 C28 0.930 . S
N34 Cu23 1.985 . S
N34 C36 1.335 . S
N34 C37 1.390 . S
N35 C36 1.345 . S
N35 C38 1.336 . S
C36 N34 1.335 . S
C36 N35 1.345 . S
C36 H41 0.930 . S
C37 N34 1.390 . S
C37 C38 1.346 . S
C37 H42 0.930 . S
C38 N35 1.336 . S
C38 C37 1.346 . S
C38 H45 0.929 . S
C39 O29 1.282 . S
C39 O40 1.216 . S
O40 C39 1.216 . S
H41 C36 0.930 . S
H42 C37 0.930 . S
O43 Cu23 1.959 . S
O43 C30 1.251 . S
H44 C27 0.930 . S
H45 C38 0.929 . S
Cu46 N47 1.999 1_544 S
Cu46 O52 1.974 1_544 S
Cu46 N57 1.985 . S
Cu46 O66 1.959 . S
N47 Cu46 1.999 1_566 S
N47 C49 1.263 . S
N47 C51 1.389 1_556 S
N48 C49 1.358 . S
N48 C50 1.400 . S
C49 N47 1.263 . S
C49 N48 1.358 . S
C49 H55 0.930 . S
C50 N48 1.400 . S
C50 C51 1.351 1_556 S
C50 H67 0.930 1_556 S
C51 N47 1.389 1_554 S
C51 C50 1.351 1_554 S
C51 H56 0.930 . S
O52 Cu46 1.974 1_566 S
O52 C62 1.282 . S
C53 O54 1.290 . S
C53 O66 1.251 . S
O54 C53 1.290 . S
H55 C49 0.930 . S
H56 C51 0.930 . S
N57 Cu46 1.985 . S
N57 C59 1.335 . S
N57 C60 1.390 . S
N58 C59 1.345 . S
N58 C61 1.336 . S
C59 N57 1.335 . S
C59 N58 1.345 . S
C59 H64 0.930 . S
C60 N57 1.390 . S
C60 C61 1.346 . S
C60 H65 0.930 1_554 S
C61 N58 1.336 . S
C61 C60 1.346 . S
C61 H68 0.929 . S
C62 O52 1.282 . S
C62 O63 1.225 . S
O63 C62 1.225 . S
H64 C59 0.930 . S
H65 C60 0.930 1_556 S
O66 Cu46 1.959 . S
O66 C53 1.251 . S
H67 C50 0.930 1_554 S
H68 C61 0.929 . S
Cu69 N70 1.999 . S
Cu69 O75 1.974 . S
Cu69 N80 1.985 . S
Cu69 O89 1.959 . S
N70 Cu69 1.999 . S
N70 C72 1.263 . S
N70 C74 1.389 . S
N71 C72 1.358 . S
N71 C73 1.400 . S
C72 N70 1.263 . S
C72 N71 1.358 . S
C72 H78 0.930 . S
C73 N71 1.400 . S
C73 C74 1.351 . S
C73 H90 0.930 . S
C74 N70 1.389 . S
C74 C73 1.351 . S
C74 H79 0.930 . S
O75 Cu69 1.974 . S
O75 C85 1.282 . S
C76 O77 1.261 . S
C76 O89 1.251 . S
O77 C76 1.261 . S
H78 C72 0.930 . S
H79 C74 0.930 . S
N80 Cu69 1.985 . S
N80 C82 1.335 . S
N80 C83 1.390 . S
N81 C82 1.345 . S
N81 C84 1.336 . S
C82 N80 1.335 . S
C82 N81 1.345 . S
C82 H87 0.930 . S
C83 N80 1.390 . S
C83 C84 1.346 . S
C83 H88 0.930 . S
C84 N81 1.336 . S
C84 C83 1.346 . S
C84 H91 0.929 . S
C85 O75 1.282 . S
C85 O86 1.216 . S
O86 C85 1.216 . S
H87 C82 0.930 . S
H88 C83 0.930 . S
O89 Cu69 1.959 . S
O89 C76 1.251 . S
H90 C73 0.930 . S
H91 C84 0.929 . S
Cu92 N93 1.999 . S
Cu92 O98 1.974 . S
Cu92 N103 1.985 . S
Cu92 O112 1.959 . S
N93 Cu92 1.999 . S
N93 C95 1.263 . S
N93 C97 1.389 . S
N94 C95 1.358 . S
N94 C96 1.400 . S
C95 N93 1.263 . S
C95 N94 1.358 . S
C95 H101 0.930 . S
C96 N94 1.400 . S
C96 C97 1.351 . S
C96 H113 0.930 . S
C97 N93 1.389 . S
C97 C96 1.351 . S
C97 H102 0.930 . S
O98 Cu92 1.974 . S
O98 C108 1.282 . S
C99 O100 1.261 . S
C99 O112 1.251 . S
O100 C99 1.261 . S
H101 C95 0.930 . S
H102 C97 0.930 . S
N103 Cu92 1.985 . S
N103 C105 1.335 . S
N103 C106 1.390 . S
N104 C105 1.345 . S
N104 C107 1.336 . S
C105 N103 1.335 . S
C105 N104 1.345 . S
C105 H110 0.930 . S
C106 N103 1.390 . S
C106 C107 1.346 . S
C106 H111 0.930 . S
C107 N104 1.336 . S
C107 C106 1.346 . S
C107 H114 0.929 . S
C108 O98 1.282 . S
C108 O109 1.216 . S
O109 C108 1.216 . S
H110 C105 0.930 . S
H111 C106 0.930 . S
O112 Cu92 1.959 . S
O112 C99 1.251 . S
H113 C96 0.930 . S
H114 C107 0.929 . S
Cu115 N116 1.999 . S
Cu115 O121 1.974 . S
Cu115 N126 1.985 . S
Cu115 O135 1.959 . S
N116 Cu115 1.999 . S
N116 C118 1.263 . S
N116 C120 1.389 . S
N117 C118 1.358 . S
N117 C119 1.400 . S
C118 N116 1.263 . S
C118 N117 1.358 . S
C118 H124 0.930 . S
C119 N117 1.400 . S
C119 C120 1.351 . S
C119 H136 0.930 . S
C120 N116 1.389 . S
C120 C119 1.351 . S
C120 H125 0.930 . S
O121 Cu115 1.974 . S
O121 C131 1.282 . S
C122 O123 1.261 . S
C122 O135 1.251 . S
O123 C122 1.261 . S
H124 C118 0.930 . S
H125 C120 0.930 . S
N126 Cu115 1.985 . S
N126 C128 1.335 . S
N126 C129 1.390 . S
N127 C128 1.345 . S
N127 C130 1.336 . S
C128 N126 1.335 . S
C128 N127 1.345 . S
C128 H133 0.930 . S
C129 N126 1.390 . S
C129 C130 1.346 . S
C129 H134 0.930 . S
C130 N127 1.336 . S
C130 C129 1.346 . S
C130 H137 0.929 . S
C131 O121 1.282 . S
C131 O132 1.216 . S
O132 C131 1.216 . S
H133 C128 0.930 . S
H134 C129 0.930 . S
O135 Cu115 1.959 . S
O135 C122 1.251 . S
H136 C119 0.930 . S
H137 C130 0.929 . S
Cu138 N139 1.999 . S
Cu138 O144 1.974 1_554 S
Cu138 N149 1.985 . S
Cu138 O158 1.959 . S
N139 Cu138 1.999 . S
N139 C141 1.263 1_554 S
N139 C143 1.389 . S
N140 C141 1.358 . S
N140 C142 1.400 1_556 S
C141 N139 1.263 1_556 S
C141 N140 1.358 . S
C141 H147 0.930 . S
C142 N140 1.400 1_554 S
C142 C143 1.351 . S
C142 H159 0.930 . S
C143 N139 1.389 . S
C143 C142 1.351 . S
C143 H148 0.930 . S
O144 Cu138 1.974 1_556 S
O144 C154 1.282 . S
C145 O146 1.261 . S
C145 O158 1.251 . S
O146 C145 1.261 . S
H147 C141 0.930 . S
H148 C143 0.930 . S
N149 Cu138 1.985 . S
N149 C151 1.335 . S
N149 C152 1.390 . S
N150 C151 1.345 . S
N150 C153 1.336 . S
C151 N149 1.335 . S
C151 N150 1.345 . S
C151 H156 0.930 . S
C152 N149 1.390 . S
C152 C153 1.346 . S
C152 H157 0.930 . S
C153 N150 1.336 . S
C153 C152 1.346 . S
C153 H160 0.929 . S
C154 O144 1.282 . S
C154 O155 1.216 . S
O155 C154 1.216 . S
H156 C151 0.930 . S
H157 C152 0.930 . S
O158 Cu138 1.959 . S
O158 C145 1.251 . S
H159 C142 0.930 . S
H160 C153 0.929 . S
Cu161 N162 1.999 1_455 S
Cu161 O167 1.974 . S
Cu161 N172 1.985 . S
Cu161 O181 1.959 1_455 S
N162 Cu161 1.999 1_655 S
N162 C164 1.263 . S
N162 C166 1.389 . S
N163 C164 1.358 . S
N163 C165 1.400 . S
C164 N162 1.263 . S
C164 N163 1.358 . S
C164 H170 0.930 1_655 S
C165 N163 1.400 . S
C165 C166 1.351 . S
C165 H182 0.930 . S
C166 N162 1.389 . S
C166 C165 1.351 . S
C166 H171 0.930 . S
O167 Cu161 1.974 . S
O167 C177 1.282 . S
C168 O169 1.261 . S
C168 O181 1.251 . S
O169 C168 1.261 . S
H170 C164 0.930 1_455 S
H171 C166 0.930 . S
N172 Cu161 1.985 . S
N172 C174 1.335 . S
N172 C175 1.390 . S
N173 C174 1.345 . S
N173 C176 1.336 . S
C174 N172 1.335 . S
C174 N173 1.345 . S
C174 H179 0.930 . S
C175 N172 1.390 . S
C175 C176 1.346 . S
C175 H180 0.930 . S
C176 N173 1.336 . S
C176 C175 1.346 . S
C176 H183 0.929 . S
C177 O167 1.282 . S
C177 O178 1.216 . S
O178 C177 1.216 . S
H179 C174 0.930 . S
H180 C175 0.930 . S
O181 Cu161 1.959 1_655 S
O181 C168 1.251 . S
H182 C165 0.930 . S
H183 C176 0.929 . S
C184 C185 1.386 . S
C184 C186 1.383 . S
C184 H200 0.951 . S
C185 C184 1.386 . S
C185 C189 1.383 . S
C186 C184 1.383 . S
C186 C187 1.402 . S
C186 H201 0.951 . S
C187 C186 1.402 . S
C187 C188 1.375 . S
C187 C190 1.481 . S
C188 C187 1.375 . S
C188 C189 1.367 . S
C188 H202 0.951 . S
C189 C185 1.383 . S
C189 C188 1.367 . S
C189 H203 0.950 . S
C190 C187 1.481 . S
C190 C191 1.297 . S
C190 H204 0.950 . S
C191 C190 1.297 . S
C191 C192 1.479 . S
C191 H205 0.950 . S
C192 C191 1.479 . S
C192 C193 1.375 . S
C192 C198 1.404 . S
C193 C192 1.375 . S
C193 C194 1.369 . S
C193 H206 0.950 . S
C194 C193 1.369 . S
C194 C195 1.392 . S
C194 H207 0.951 . S
C195 C194 1.392 . S
C195 C197 1.384 . S
H196 C198 0.949 . S
C197 C195 1.384 . S
C197 C198 1.385 . S
C197 H199 0.950 . S
C198 C192 1.404 . S
C198 H196 0.949 . S
C198 C197 1.385 . S
H199 C197 0.950 . S
H200 C184 0.951 . S
H201 C186 0.951 . S
H202 C188 0.951 . S
H203 C189 0.950 . S
H204 C190 0.950 . S
H205 C191 0.950 . S
H206 C193 0.950 . S
H207 C194 0.951 . S
C208 C209 1.386 . S
C208 C210 1.383 . S
C208 H224 0.951 . S
C209 C208 1.386 . S
C209 C213 1.383 . S
C210 C208 1.383 . S
C210 C211 1.402 . S
C210 H225 0.951 . S
C211 C210 1.402 . S
C211 C212 1.375 . S
C211 C214 1.481 . S
C212 C211 1.375 . S
C212 C213 1.367 . S
C212 H226 0.951 . S
C213 C209 1.383 . S
C213 C212 1.367 . S
C213 H227 0.950 . S
C214 C211 1.481 . S
C214 C215 1.297 . S
C214 H228 0.950 . S
C215 C214 1.297 . S
C215 C216 1.479 . S
C215 H229 0.950 . S
C216 C215 1.479 . S
C216 C217 1.375 . S
C216 C222 1.404 . S
C217 C216 1.375 . S
C217 C218 1.369 . S
C217 H230 0.950 . S
C218 C217 1.369 . S
C218 C219 1.392 . S
C218 H231 0.951 . S
C219 C218 1.392 . S
C219 C221 1.384 . S
H220 C222 0.949 . S
C221 C219 1.384 . S
C221 C222 1.385 . S
C221 H223 0.950 . S
C222 C216 1.404 . S
C222 H220 0.949 . S
C222 C221 1.385 . S
H223 C221 0.950 . S
H224 C208 0.951 . S
H225 C210 0.951 . S
H226 C212 0.951 . S
H227 C213 0.950 . S
H228 C214 0.950 . S
H229 C215 0.950 . S
H230 C217 0.950 . S
H231 C218 0.951 . S
C232 C233 1.386 . S
C232 C234 1.383 . S
C232 H248 0.951 . S
C233 C232 1.386 . S
C233 C237 1.383 . S
C234 C232 1.383 . S
C234 C235 1.402 . S
C234 H249 0.951 . S
C235 C234 1.402 . S
C235 C236 1.375 . S
C235 C238 1.481 . S
C236 C235 1.375 . S
C236 C237 1.367 . S
C236 H250 0.951 . S
C237 C233 1.383 . S
C237 C236 1.367 . S
C237 H251 0.950 . S
C238 C235 1.481 . S
C238 C239 1.297 . S
C238 H252 0.950 . S
C239 C238 1.297 . S
C239 C240 1.479 . S
C239 H253 0.950 . S
C240 C239 1.479 . S
C240 C241 1.375 . S
C240 C246 1.404 . S
C241 C240 1.375 . S
C241 C242 1.369 . S
C241 H254 0.950 . S
C242 C241 1.369 . S
C242 C243 1.392 . S
C242 H255 0.951 . S
C243 C242 1.392 . S
C243 C245 1.384 . S
H244 C246 0.949 . S
C245 C243 1.384 . S
C245 C246 1.385 . S
C245 H247 0.950 . S
C246 C240 1.404 . S
C246 H244 0.949 . S
C246 C245 1.385 . S
H247 C245 0.950 . S
H248 C232 0.951 . S
H249 C234 0.951 . S
H250 C236 0.951 . S
H251 C237 0.950 . S
H252 C238 0.950 . S
H253 C239 0.950 . S
H254 C241 0.950 . S
H255 C242 0.951 . S
C256 C257 1.386 . S
C256 C258 1.383 . S
C256 H272 0.951 . S
C257 C256 1.386 . S
C257 C261 1.383 . S
C258 C256 1.383 . S
C258 C259 1.402 . S
C258 H273 0.951 . S
C259 C258 1.402 . S
C259 C260 1.375 . S
C259 C262 1.481 . S
C260 C259 1.375 . S
C260 C261 1.367 . S
C260 H274 0.951 . S
C261 C257 1.383 . S
C261 C260 1.367 . S
C261 H275 0.950 . S
C262 C259 1.481 . S
C262 C263 1.297 . S
C262 H276 0.950 . S
C263 C262 1.297 . S
C263 C264 1.479 . S
C263 H277 0.950 . S
C264 C263 1.479 . S
C264 C265 1.375 . S
C264 C270 1.404 . S
C265 C264 1.375 . S
C265 C266 1.369 . S
C265 H278 0.950 . S
C266 C265 1.369 . S
C266 C267 1.392 . S
C266 H279 0.951 . S
C267 C266 1.392 . S
C267 C269 1.384 . S
H268 C270 0.949 . S
C269 C267 1.384 . S
C269 C270 1.385 . S
C269 H271 0.950 . S
C270 C264 1.404 . S
C270 H268 0.949 . S
C270 C269 1.385 . S
H271 C269 0.950 . S
H272 C256 0.951 . S
H273 C258 0.951 . S
H274 C260 0.951 . S
H275 C261 0.950 . S
H276 C262 0.950 . S
H277 C263 0.950 . S
H278 C265 0.950 . S
H279 C266 0.951 . S
C280 C281 1.386 . S
C280 C282 1.383 . S
C280 H296 0.951 . S
C281 C280 1.386 . S
C281 C285 1.383 . S
C282 C280 1.383 . S
C282 C283 1.402 . S
C282 H297 0.951 . S
C283 C282 1.402 . S
C283 C284 1.375 . S
C283 C286 1.481 . S
C284 C283 1.375 . S
C284 C285 1.367 . S
C284 H298 0.951 . S
C285 C281 1.383 . S
C285 C284 1.367 . S
C285 H299 0.950 . S
C286 C283 1.481 . S
C286 C287 1.297 . S
C286 H300 0.950 . S
C287 C286 1.297 . S
C287 C288 1.479 . S
C287 H301 0.950 . S
C288 C287 1.479 . S
C288 C289 1.375 . S
C288 C294 1.404 . S
C289 C288 1.375 . S
C289 C290 1.369 . S
C289 H302 0.950 . S
C290 C289 1.369 . S
C290 C291 1.392 . S
C290 H303 0.951 . S
C291 C290 1.392 . S
C291 C293 1.384 . S
H292 C294 0.949 . S
C293 C291 1.384 . S
C293 C294 1.385 . S
C293 H295 0.950 . S
C294 C288 1.404 . S
C294 H292 0.949 . S
C294 C293 1.385 . S
H295 C293 0.950 . S
H296 C280 0.951 . S
H297 C282 0.951 . S
H298 C284 0.951 . S
H299 C285 0.950 . S
H300 C286 0.950 . S
H301 C287 0.950 . S
H302 C289 0.950 . S
H303 C290 0.951 . S
C304 C305 1.386 . S
C304 C306 1.383 . S
C304 H320 0.951 . S
C305 C304 1.386 . S
C305 C309 1.383 . S
C306 C304 1.383 . S
C306 C307 1.402 . S
C306 H321 0.951 . S
C307 C306 1.402 . S
C307 C308 1.375 . S
C307 C310 1.481 . S
C308 C307 1.375 . S
C308 C309 1.367 . S
C308 H322 0.951 . S
C309 C305 1.383 . S
C309 C308 1.367 . S
C309 H323 0.950 . S
C310 C307 1.481 . S
C310 C311 1.297 . S
C310 H324 0.950 . S
C311 C310 1.297 . S
C311 C312 1.479 . S
C311 H325 0.950 . S
C312 C311 1.479 . S
C312 C313 1.375 . S
C312 C318 1.404 . S
C313 C312 1.375 . S
C313 C314 1.369 . S
C313 H326 0.950 . S
C314 C313 1.369 . S
C314 C315 1.392 . S
C314 H327 0.951 . S
C315 C314 1.392 . S
C315 C317 1.384 . S
H316 C318 0.949 . S
C317 C315 1.384 . S
C317 C318 1.385 . S
C317 H319 0.950 . S
C318 C312 1.404 . S
C318 H316 0.949 . S
C318 C317 1.385 . S
H319 C317 0.950 . S
H320 C304 0.951 . S
H321 C306 0.951 . S
H322 C308 0.951 . S
H323 C309 0.950 . S
H324 C310 0.950 . S
H325 C311 0.950 . S
H326 C313 0.950 . S
H327 C314 0.951 . S
C328 C329 1.386 . S
C328 C330 1.383 . S
C328 H344 0.951 . S
C329 C328 1.386 . S
C329 C333 1.383 . S
C330 C328 1.383 . S
C330 C331 1.402 . S
C330 H345 0.951 . S
C331 C330 1.402 . S
C331 C332 1.375 . S
C331 C334 1.481 . S
C332 C331 1.375 . S
C332 C333 1.367 . S
C332 H346 0.951 . S
C333 C329 1.383 . S
C333 C332 1.367 . S
C333 H347 0.950 . S
C334 C331 1.481 . S
C334 C335 1.297 . S
C334 H348 0.950 . S
C335 C334 1.297 . S
C335 C336 1.479 . S
C335 H349 0.950 . S
C336 C335 1.479 . S
C336 C337 1.375 . S
C336 C342 1.404 . S
C337 C336 1.375 . S
C337 C338 1.369 . S
C337 H350 0.950 . S
C338 C337 1.369 . S
C338 C339 1.392 . S
C338 H351 0.951 . S
C339 C338 1.392 . S
C339 C341 1.384 . S
H340 C342 0.949 . S
C341 C339 1.384 . S
C341 C342 1.385 . S
C341 H343 0.950 . S
C342 C336 1.404 . S
C342 H340 0.949 . S
C342 C341 1.385 . S
H343 C341 0.950 . S
H344 C328 0.951 . S
H345 C330 0.951 . S
H346 C332 0.951 . S
H347 C333 0.950 . S
H348 C334 0.950 . S
H349 C335 0.950 . S
H350 C337 0.950 . S
H351 C338 0.951 . S
C352 C353 1.386 . S
C352 C354 1.383 . S
C352 H368 0.951 . S
C353 C352 1.386 . S
C353 C357 1.383 . S
C354 C352 1.383 . S
C354 C355 1.402 . S
C354 H369 0.951 . S
C355 C354 1.402 . S
C355 C356 1.375 . S
C355 C358 1.481 . S
C356 C355 1.375 . S
C356 C357 1.367 . S
C356 H370 0.951 . S
C357 C353 1.383 . S
C357 C356 1.367 . S
C357 H371 0.950 . S
C358 C355 1.481 . S
C358 C359 1.297 . S
C358 H372 0.950 . S
C359 C358 1.297 . S
C359 C360 1.479 . S
C359 H373 0.950 . S
C360 C359 1.479 . S
C360 C361 1.375 . S
C360 C366 1.404 . S
C361 C360 1.375 . S
C361 C362 1.369 . S
C361 H374 0.950 . S
C362 C361 1.369 . S
C362 C363 1.392 . S
C362 H375 0.951 . S
C363 C362 1.392 . S
C363 C365 1.384 . S
H364 C366 0.949 . S
C365 C363 1.384 . S
C365 C366 1.385 . S
C365 H367 0.950 . S
C366 C360 1.404 . S
C366 H364 0.949 . S
C366 C365 1.385 . S
H367 C365 0.950 . S
H368 C352 0.951 . S
H369 C354 0.951 . S
H370 C356 0.951 . S
H371 C357 0.950 . S
H372 C358 0.950 . S
H373 C359 0.950 . S
H374 C361 0.950 . S
H375 C362 0.951 . S
C376 C377 1.386 . S
C376 C378 1.383 . S
C376 H392 0.951 . S
C377 C376 1.386 . S
C377 C381 1.383 . S
C378 C376 1.383 . S
C378 C379 1.402 . S
C378 H393 0.951 . S
C379 C378 1.402 . S
C379 C380 1.375 . S
C379 C382 1.481 . S
C380 C379 1.375 . S
C380 C381 1.367 . S
C380 H394 0.951 . S
C381 C377 1.383 . S
C381 C380 1.367 . S
C381 H395 0.950 . S
C382 C379 1.481 . S
C382 C383 1.297 . S
C382 H396 0.950 . S
C383 C382 1.297 . S
C383 C384 1.479 . S
C383 H397 0.950 . S
C384 C383 1.479 . S
C384 C385 1.375 . S
C384 C390 1.404 . S
C385 C384 1.375 . S
C385 C386 1.369 . S
C385 H398 0.950 . S
C386 C385 1.369 . S
C386 C387 1.392 . S
C386 H399 0.951 . S
C387 C386 1.392 . S
C387 C389 1.384 . S
H388 C390 0.949 . S
C389 C387 1.384 . S
C389 C390 1.385 . S
C389 H391 0.950 . S
C390 C384 1.404 . S
C390 H388 0.949 . S
C390 C389 1.385 . S
H391 C389 0.950 . S
H392 C376 0.951 . S
H393 C378 0.951 . S
H394 C380 0.951 . S
H395 C381 0.950 . S
H396 C382 0.950 . S
H397 C383 0.950 . S
H398 C385 0.950 . S
H399 C386 0.951 . S
C400 C401 1.386 . S
C400 C402 1.383 . S
C400 H416 0.951 . S
C401 C400 1.386 . S
C401 C405 1.383 . S
C402 C400 1.383 . S
C402 C403 1.402 . S
C402 H417 0.951 . S
C403 C402 1.402 . S
C403 C404 1.375 . S
C403 C406 1.481 . S
C404 C403 1.375 . S
C404 C405 1.367 . S
C404 H418 0.951 . S
C405 C401 1.383 . S
C405 C404 1.367 . S
C405 H419 0.950 . S
C406 C403 1.481 . S
C406 C407 1.297 . S
C406 H420 0.950 . S
C407 C406 1.297 . S
C407 C408 1.479 . S
C407 H421 0.950 . S
C408 C407 1.479 . S
C408 C409 1.375 . S
C408 C414 1.404 . S
C409 C408 1.375 . S
C409 C410 1.369 . S
C409 H422 0.950 . S
C410 C409 1.369 . S
C410 C411 1.392 . S
C410 H423 0.951 . S
C411 C410 1.392 . S
C411 C413 1.384 . S
H412 C414 0.949 . S
C413 C411 1.384 . S
C413 C414 1.385 . S
C413 H415 0.950 . S
C414 C408 1.404 . S
C414 H412 0.949 . S
C414 C413 1.385 . S
H415 C413 0.950 . S
H416 C400 0.951 . S
H417 C402 0.951 . S
H418 C404 0.951 . S
H419 C405 0.950 . S
H420 C406 0.950 . S
H421 C407 0.950 . S
H422 C409 0.950 . S
H423 C410 0.951 . S
C424 C425 1.386 . S
C424 C426 1.383 . S
C424 H440 0.951 . S
C425 C424 1.386 . S
C425 C429 1.383 . S
C426 C424 1.383 . S
C426 C427 1.402 . S
C426 H441 0.951 . S
C427 C426 1.402 . S
C427 C428 1.375 . S
C427 C430 1.481 . S
C428 C427 1.375 . S
C428 C429 1.367 . S
C428 H442 0.951 . S
C429 C425 1.383 . S
C429 C428 1.367 . S
C429 H443 0.950 . S
C430 C427 1.481 . S
C430 C431 1.297 . S
C430 H444 0.950 . S
C431 C430 1.297 . S
C431 C432 1.479 . S
C431 H445 0.950 . S
C432 C431 1.479 . S
C432 C433 1.375 . S
C432 C438 1.404 . S
C433 C432 1.375 . S
C433 C434 1.369 . S
C433 H446 0.950 . S
C434 C433 1.369 . S
C434 C435 1.392 . S
C434 H447 0.951 . S
C435 C434 1.392 . S
C435 C437 1.384 . S
H436 C438 0.949 . S
C437 C435 1.384 . S
C437 C438 1.385 . S
C437 H439 0.950 . S
C438 C432 1.404 . S
C438 H436 0.949 . S
C438 C437 1.385 . S
H439 C437 0.950 . S
H440 C424 0.951 . S
H441 C426 0.951 . S
H442 C428 0.951 . S
H443 C429 0.950 . S
H444 C430 0.950 . S
H445 C431 0.950 . S
H446 C433 0.950 . S
H447 C434 0.951 . S
C448 C449 1.386 . S
C448 C450 1.383 . S
C448 H464 0.951 . S
C449 C448 1.386 . S
C449 C453 1.383 . S
C450 C448 1.383 . S
C450 C451 1.402 . S
C450 H465 0.951 . S
C451 C450 1.402 . S
C451 C452 1.375 . S
C451 C454 1.481 . S
C452 C451 1.375 . S
C452 C453 1.367 . S
C452 H466 0.951 . S
C453 C449 1.383 . S
C453 C452 1.367 . S
C453 H467 0.950 . S
C454 C451 1.481 . S
C454 C455 1.297 . S
C454 H468 0.950 . S
C455 C454 1.297 . S
C455 C456 1.479 . S
C455 H469 0.950 . S
C456 C455 1.479 . S
C456 C457 1.375 . S
C456 C462 1.404 . S
C457 C456 1.375 . S
C457 C458 1.369 . S
C457 H470 0.950 . S
C458 C457 1.369 . S
C458 C459 1.392 . S
C458 H471 0.951 . S
C459 C458 1.392 . S
C459 C461 1.384 . S
H460 C462 0.949 . S
C461 C459 1.384 . S
C461 C462 1.385 . S
C461 H463 0.950 . S
C462 C456 1.404 . S
C462 H460 0.949 . S
C462 C461 1.385 . S
H463 C461 0.950 . S
H464 C448 0.951 . S
H465 C450 0.951 . S
H466 C452 0.951 . S
H467 C453 0.950 . S
H468 C454 0.950 . S
H469 C455 0.950 . S
H470 C457 0.950 . S
H471 C458 0.951 . S
C472 C473 1.386 . S
C472 C474 1.383 . S
C472 H488 0.951 . S
C473 C472 1.386 . S
C473 C477 1.383 . S
C474 C472 1.383 . S
C474 C475 1.402 . S
C474 H489 0.951 . S
C475 C474 1.402 . S
C475 C476 1.375 . S
C475 C478 1.481 . S
C476 C475 1.375 . S
C476 C477 1.367 . S
C476 H490 0.951 . S
C477 C473 1.383 . S
C477 C476 1.367 . S
C477 H491 0.950 . S
C478 C475 1.481 . S
C478 C479 1.297 . S
C478 H492 0.950 . S
C479 C478 1.297 . S
C479 C480 1.479 . S
C479 H493 0.950 . S
C480 C479 1.479 . S
C480 C481 1.375 . S
C480 C486 1.404 . S
C481 C480 1.375 . S
C481 C482 1.369 . S
C481 H494 0.950 . S
C482 C481 1.369 . S
C482 C483 1.392 . S
C482 H495 0.951 . S
C483 C482 1.392 . S
C483 C485 1.384 . S
H484 C486 0.949 . S
C485 C483 1.384 . S
C485 C486 1.385 . S
C485 H487 0.950 . S
C486 C480 1.404 . S
C486 H484 0.949 . S
C486 C485 1.385 . S
H487 C485 0.950 . S
H488 C472 0.951 . S
H489 C474 0.951 . S
H490 C476 0.951 . S
H491 C477 0.950 . S
H492 C478 0.950 . S
H493 C479 0.950 . S
H494 C481 0.950 . S
H495 C482 0.951 . S
C496 C497 1.386 . S
C496 C498 1.383 . S
C496 H512 0.951 . S
C497 C496 1.386 . S
C497 C501 1.383 . S
C498 C496 1.383 . S
C498 C499 1.402 . S
C498 H513 0.951 . S
C499 C498 1.402 . S
C499 C500 1.375 . S
C499 C502 1.481 . S
C500 C499 1.375 . S
C500 C501 1.367 . S
C500 H514 0.951 . S
C501 C497 1.383 . S
C501 C500 1.367 . S
C501 H515 0.950 . S
C502 C499 1.481 . S
C502 C503 1.297 . S
C502 H516 0.950 . S
C503 C502 1.297 . S
C503 C504 1.479 . S
C503 H517 0.950 . S
C504 C503 1.479 . S
C504 C505 1.375 . S
C504 C510 1.404 . S
C505 C504 1.375 . S
C505 C506 1.369 . S
C505 H518 0.950 . S
C506 C505 1.369 . S
C506 C507 1.392 . S
C506 H519 0.951 . S
C507 C506 1.392 . S
C507 C509 1.384 . S
H508 C510 0.949 . S
C509 C507 1.384 . S
C509 C510 1.385 . S
C509 H511 0.950 . S
C510 C504 1.404 . S
C510 H508 0.949 . S
C510 C509 1.385 . S
H511 C509 0.950 . S
H512 C496 0.951 . S
H513 C498 0.951 . S
H514 C500 0.951 . S
H515 C501 0.950 . S
H516 C502 0.950 . S
H517 C503 0.950 . S
H518 C505 0.950 . S
H519 C506 0.951 . S
C520 C521 1.386 . S
C520 C522 1.383 . S
C520 H536 0.951 . S
C521 C520 1.386 . S
C521 C525 1.383 . S
C522 C520 1.383 . S
C522 C523 1.402 . S
C522 H537 0.951 . S
C523 C522 1.402 . S
C523 C524 1.375 . S
C523 C526 1.481 . S
C524 C523 1.375 . S
C524 C525 1.367 . S
C524 H538 0.951 . S
C525 C521 1.383 . S
C525 C524 1.367 . S
C525 H539 0.950 . S
C526 C523 1.481 . S
C526 C527 1.297 . S
C526 H540 0.950 . S
C527 C526 1.297 . S
C527 C528 1.479 . S
C527 H541 0.950 . S
C528 C527 1.479 . S
C528 C529 1.375 . S
C528 C534 1.404 . S
C529 C528 1.375 . S
C529 C530 1.369 . S
C529 H542 0.950 . S
C530 C529 1.369 . S
C530 C531 1.392 . S
C530 H543 0.951 . S
C531 C530 1.392 . S
C531 C533 1.384 . S
H532 C534 0.949 . S
C533 C531 1.384 . S
C533 C534 1.385 . S
C533 H535 0.950 . S
C534 C528 1.404 . S
C534 H532 0.949 . S
C534 C533 1.385 . S
H535 C533 0.950 . S
H536 C520 0.951 . S
H537 C522 0.951 . S
H538 C524 0.951 . S
H539 C525 0.950 . S
H540 C526 0.950 . S
H541 C527 0.950 . S
H542 C529 0.950 . S
H543 C530 0.951 . S
C544 C545 1.386 . S
C544 C546 1.383 . S
C544 H560 0.951 . S
C545 C544 1.386 . S
C545 C549 1.383 . S
C546 C544 1.383 . S
C546 C547 1.402 . S
C546 H561 0.951 . S
C547 C546 1.402 . S
C547 C548 1.375 . S
C547 C550 1.481 . S
C548 C547 1.375 . S
C548 C549 1.367 . S
C548 H562 0.951 . S
C549 C545 1.383 . S
C549 C548 1.367 . S
C549 H563 0.950 . S
C550 C547 1.481 . S
C550 C551 1.297 . S
C550 H564 0.950 . S
C551 C550 1.297 . S
C551 C552 1.479 . S
C551 H565 0.950 . S
C552 C551 1.479 . S
C552 C553 1.375 . S
C552 C558 1.404 . S
C553 C552 1.375 . S
C553 C554 1.369 . S
C553 H566 0.950 . S
C554 C553 1.369 . S
C554 C555 1.392 . S
C554 H567 0.951 . S
C555 C554 1.392 . S
C555 C557 1.384 . S
H556 C558 0.949 . S
C557 C555 1.384 . S
C557 C558 1.385 . S
C557 H559 0.950 . S
C558 C552 1.404 . S
C558 H556 0.949 . S
C558 C557 1.385 . S
H559 C557 0.950 . S
H560 C544 0.951 . S
H561 C546 0.951 . S
H562 C548 0.951 . S
H563 C549 0.950 . S
H564 C550 0.950 . S
H565 C551 0.950 . S
H566 C553 0.950 . S
H567 C554 0.951 . S
C185 C7 1.447 . S
C195 N71 1.401 . S
C209 N2 1.422 . S
C219 N25 1.431 . S
C233 C62 1.532 . S
C243 C30 1.546 . S
C257 C76 1.549 . S
C267 N58 1.489 . S
C281 C16 1.410 . S
C291 N127 1.353 . S
C305 N12 1.373 . S
C315 N104 1.389 . S
C329 C108 1.578 . S
C339 C53 1.573 . S
C353 N48 1.563 . S
C363 C131 1.557 . S
C377 C154 1.394 . S
C387 N117 1.331 . S
C401 N94 1.405 . S
C411 N150 1.345 . S
C425 C99 1.568 . S
C435 C168 1.575 . S
C449 C122 1.592 . S
C459 N163 1.574 . S
C473 C145 1.452 . S
C483 N81 1.414 . S
C497 N35 1.420 . S
C507 N140 1.431 . S
C521 C39 1.528 . S
C531 C177 1.537 . S
C545 C85 1.552 . S
C555 N173 1.540 . S
