# Generated by pormake.
# Topology una, (4)-cn, num edge types: 1
# Building blocks:
#     Node 0, Type 0, BuildingBlock: QUQFOY_clean_sbu_3, # of connection points: 4
#     Node 1, Type 0, BuildingBlock: QUQFOY_clean_sbu_3, # of connection points: 4
#     Node 2, Type 0, BuildingBlock: QUQFOY_clean_sbu_3, # of connection points: 4
#     Node 3, Type 0, BuildingBlock: QUQFOY_clean_sbu_3, # of connection points: 4
#     Node 4, Type 0, BuildingBlock: QUQFOY_clean_sbu_3, # of connection points: 4
#     Node 5, Type 0, BuildingBlock: QUQFOY_clean_sbu_3, # of connection points: 4
#     Node 6, Type 0, BuildingBlock: QUQFOY_clean_sbu_3, # of connection points: 4
#     Node 7, Type 0, BuildingBlock: QUQFOY_clean_sbu_3, # of connection points: 4
#     Node 8, Type 0, BuildingBlock: QUQFOY_clean_sbu_3, # of connection points: 4
#     Node 9, Type 0, BuildingBlock: QUQFOY_clean_sbu_3, # of connection points: 4
#     Node 10, Type 0, BuildingBlock: QUQFOY_clean_sbu_3, # of connection points: 4
#     Node 11, Type 0, BuildingBlock: QUQFOY_clean_sbu_3, # of connection points: 4
#     Edge 12, Type (0, 0), BuildingBlock: MIFKUJ_clean_linker_0, # of connection points: 2
#     Edge 13, Type (0, 0), BuildingBlock: MIFKUJ_clean_linker_0, # of connection points: 2
#     Edge 14, Type (0, 0), BuildingBlock: MIFKUJ_clean_linker_0, # of connection points: 2
#     Edge 15, Type (0, 0), BuildingBlock: MIFKUJ_clean_linker_0, # of connection points: 2
#     Edge 16, Type (0, 0), BuildingBlock: MIFKUJ_clean_linker_0, # of connection points: 2
#     Edge 17, Type (0, 0), BuildingBlock: MIFKUJ_clean_linker_0, # of connection points: 2
#     Edge 18, Type (0, 0), BuildingBlock: MIFKUJ_clean_linker_0, # of connection points: 2
#     Edge 19, Type (0, 0), BuildingBlock: MIFKUJ_clean_linker_0, # of connection points: 2
#     Edge 20, Type (0, 0), BuildingBlock: MIFKUJ_clean_linker_0, # of connection points: 2
#     Edge 21, Type (0, 0), BuildingBlock: MIFKUJ_clean_linker_0, # of connection points: 2
#     Edge 22, Type (0, 0), BuildingBlock: MIFKUJ_clean_linker_0, # of connection points: 2
#     Edge 23, Type (0, 0), BuildingBlock: MIFKUJ_clean_linker_0, # of connection points: 2
#     Edge 24, Type (0, 0), BuildingBlock: MIFKUJ_clean_linker_0, # of connection points: 2
#     Edge 25, Type (0, 0), BuildingBlock: MIFKUJ_clean_linker_0, # of connection points: 2
#     Edge 26, Type (0, 0), BuildingBlock: MIFKUJ_clean_linker_0, # of connection points: 2
#     Edge 27, Type (0, 0), BuildingBlock: MIFKUJ_clean_linker_0, # of connection points: 2
#     Edge 28, Type (0, 0), BuildingBlock: MIFKUJ_clean_linker_0, # of connection points: 2
#     Edge 29, Type (0, 0), BuildingBlock: MIFKUJ_clean_linker_0, # of connection points: 2
#     Edge 30, Type (0, 0), BuildingBlock: MIFKUJ_clean_linker_0, # of connection points: 2
#     Edge 31, Type (0, 0), BuildingBlock: MIFKUJ_clean_linker_0, # of connection points: 2
#     Edge 32, Type (0, 0), BuildingBlock: MIFKUJ_clean_linker_0, # of connection points: 2
#     Edge 33, Type (0, 0), BuildingBlock: MIFKUJ_clean_linker_0, # of connection points: 2
#     Edge 34, Type (0, 0), BuildingBlock: MIFKUJ_clean_linker_0, # of connection points: 2
#     Edge 35, Type (0, 0), BuildingBlock: MIFKUJ_clean_linker_0, # of connection points: 2
# Relax obj value: 0.027
# Max RMSD: 0.045
# Mean RMSD: 0.045
data_MOF--net-una--node1-QUQFOY_clean_sbu_3--edge1-MIFKUJ_clean_linker_0
_symmetry_space_group_name_H-M    P1
_symmetry_Int_Tables_number       1
_symmetry_cell_setting            triclinic
loop_
_symmetry_equiv_pos_as_xyz
'x, y, z'
_cell_length_a     76.216298
_cell_length_b     76.164328
_cell_length_c     29.002415
_cell_angle_alpha  90.001912
_cell_angle_beta   89.999621
_cell_angle_gamma 119.92075
loop_
_atom_site_label
_atom_site_type_symbol
_atom_site_fract_x
_atom_site_fract_y
_atom_site_fract_z
_atom_type_partial_charge
C0 C 0.16712 0.46029 0.98789 0.0
O1 O 0.17427 0.4761 0.01274 0.0
Cd2 Cd 0.15556 0.47928 0.0751 0.0
O3 O 0.14945 0.44538 0.99541 0.0
Cd4 Cd 0.12029 0.43485 0.04839 0.0
C5 C 0.14995 0.43866 0.13896 0.0
O6 O 0.12242 0.46766 0.04425 0.0
O7 O 0.10051 0.4469 0.09269 0.0
O8 O 0.10274 0.41717 0.97869 0.0
C9 C 0.10841 0.46396 0.0727 0.0
O10 O 0.15782 0.45773 0.13399 0.0
C11 C 0.0888 0.40174 -0.00107 0.0
O12 O 0.13628 0.42648 0.11139 0.0
O13 O 0.08953 0.40148 0.04267 0.0
C14 C 0.70662 0.16703 0.15222 0.0
O15 O 0.69595 0.17319 0.17261 0.0
Cd16 Cd 0.67195 0.15406 0.23104 0.0
O17 O 0.70464 0.1498 0.1619 0.0
Cd18 Cd 0.68413 0.12068 0.21391 0.0
C19 C 0.70506 0.15073 0.30635 0.0
O20 O 0.65263 0.12045 0.2008 0.0
O21 O 0.65229 0.10253 0.25856 0.0
O22 O 0.68418 0.10058 0.1491 0.0
C23 C 0.64249 0.10765 0.23169 0.0
O24 O 0.69303 0.15737 0.29756 0.0
C25 C 0.6869 0.08812 0.17272 0.0
O26 O 0.706 0.13792 0.27978 0.0
O27 O 0.68887 0.09105 0.216 0.0
C28 C 0.53757 0.70972 0.32675 0.0
O29 O 0.52216 0.70238 0.35295 0.0
Cd30 Cd 0.51664 0.67901 0.41413 0.0
O31 O 0.55156 0.7054 0.33272 0.0
Cd32 Cd 0.56059 0.68556 0.38557 0.0
C33 C 0.55782 0.71076 0.47981 0.0
O34 O 0.5268 0.65665 0.38183 0.0
O35 O 0.54697 0.65273 0.427 0.0
O36 O 0.57749 0.6831 0.31683 0.0
C37 C 0.52959 0.64521 0.40872 0.0
O38 O 0.53868 0.70037 0.47535 0.0
C39 C 0.59338 0.68584 0.33727 0.0
O40 O 0.56949 0.70929 0.45053 0.0
O41 O 0.59418 0.68865 0.38059 0.0
C42 C 0.83071 0.53959 0.47247 0.0
O43 O 0.82478 0.52219 0.48968 0.0
Cd44 Cd 0.84182 0.51637 0.55135 0.0
O45 O 0.847 0.55497 0.48648 0.0
Cd46 Cd 0.87525 0.56356 0.54151 0.0
C47 C 0.84156 0.55104 0.62829 0.0
O48 O 0.87615 0.53291 0.52661 0.0
O49 O 0.89401 0.54982 0.5848 0.0
O50 O 0.89527 0.58484 0.4782 0.0
C51 C 0.88855 0.53487 0.55785 0.0
O52 O 0.83545 0.53279 0.61631 0.0
C53 C 0.90752 0.59975 0.50271 0.0
O54 O 0.85559 0.56575 0.60593 0.0
O55 O 0.9045 0.59817 0.54601 0.0
C56 C 0.29083 0.82641 0.64575 0.0
O57 O 0.30163 0.82036 0.66603 0.0
Cd58 Cd 0.32279 0.83822 0.72996 0.0
O59 O 0.29193 0.8431 0.65713 0.0
Cd60 Cd 0.31055 0.87268 0.70905 0.0
C61 C 0.2864 0.84082 0.79737 0.0
O62 O 0.34185 0.87219 0.70314 0.0
O63 O 0.3422 0.89296 0.75387 0.0
O64 O 0.3109 0.89008 0.63916 0.0
C65 C 0.35178 0.88574 0.7328 0.0
O66 O 0.29809 0.83373 0.78902 0.0
C67 C 0.30789 0.90333 0.65819 0.0
O68 O 0.28712 0.85503 0.77276 0.0
O69 O 0.30562 0.90222 0.70175 0.0
C70 C 0.4606 0.29468 0.81947 0.0
O71 O 0.47755 0.30582 0.83886 0.0
Cd72 Cd 0.48177 0.32731 0.90244 0.0
O73 O 0.4449 0.29541 0.83182 0.0
Cd74 Cd 0.43484 0.31426 0.886 0.0
C75 C 0.44472 0.29115 0.9733 0.0
O76 O 0.46604 0.34589 0.8769 0.0
O77 O 0.44685 0.34596 0.93108 0.0
O78 O 0.4151 0.31423 0.82045 0.0
C79 C 0.46291 0.35578 0.9076 0.0
O80 O 0.4633 0.30284 0.96336 0.0
C81 C 0.39958 0.31095 0.8434 0.0
O82 O 0.43079 0.29166 0.95013 0.0
O83 O 0.40016 0.30863 0.88667 0.0
C84 C 0.53541 0.82771 0.94248 0.0
O85 O 0.5197 0.82051 0.9173 0.0
Cd86 Cd 0.51602 0.8395 0.85607 0.0
O87 O 0.55014 0.84555 0.93563 0.0
Cd88 Cd 0.56034 0.87488 0.88349 0.0
C89 C 0.55646 0.84638 0.79021 0.0
O90 O 0.52741 0.87233 0.8885 0.0
O91 O 0.54803 0.89491 0.84104 0.0
O92 O 0.57809 0.89247 0.95311 0.0
C93 C 0.53093 0.88656 0.86086 0.0
O94 O 0.53739 0.83847 0.79496 0.0
C95 C 0.59359 0.90629 0.9328 0.0
O96 O 0.56856 0.85939 0.81907 0.0
O97 O 0.59383 0.90545 0.88907 0.0
C98 C 0.70232 0.54067 0.11332 0.0
O99 O 0.69027 0.52328 0.09687 0.0
Cd100 Cd 0.66808 0.51858 0.0348 0.0
O101 O 0.70215 0.55635 0.09846 0.0
Cd102 Cd 0.68322 0.56599 0.04344 0.0
C103 C 0.70365 0.55255 0.95739 0.0
O104 O 0.65126 0.53612 0.06006 0.0
O105 O 0.65063 0.55276 0.00094 0.0
O106 O 0.68782 0.58836 0.1073 0.0
C107 C 0.64092 0.53824 0.02882 0.0
O108 O 0.69136 0.53449 0.97027 0.0
C109 C 0.68841 0.60254 0.08329 0.0
O110 O 0.70459 0.56761 0.97876 0.0
O111 O 0.68718 0.60014 0.03981 0.0
C112 C 0.16445 0.70339 0.27552 0.0
O113 O 0.17032 0.69254 0.2548 0.0
Cd114 Cd 0.152 0.67037 0.19273 0.0
O115 O 0.14769 0.70233 0.26495 0.0
Cd116 Cd 0.118 0.68349 0.21318 0.0
C117 C 0.14866 0.7052 0.12136 0.0
O118 O 0.11858 0.65237 0.22291 0.0
O119 O 0.09691 0.65053 0.17302 0.0
O120 O 0.10125 0.68639 0.28149 0.0
C121 C 0.10462 0.64161 0.19487 0.0
O122 O 0.15562 0.69344 0.13021 0.0
C123 C 0.08758 0.688 0.26024 0.0
O124 O 0.13523 0.70545 0.14707 0.0
O125 O 0.08816 0.68793 0.21644 0.0
C126 C 0.46218 0.16598 0.46049 0.0
O127 O 0.47926 0.17201 0.4416 0.0
Cd128 Cd 0.48245 0.15697 0.37266 0.0
O129 O 0.44642 0.15031 0.44549 0.0
Cd130 Cd 0.4367 0.1229 0.38732 0.0
C131 C 0.44459 0.1581 0.30815 0.0
O132 O 0.46783 0.12171 0.38948 0.0
O133 O 0.44866 0.1069 0.3309 0.0
O134 O 0.42002 0.10004 0.45064 0.0
C135 C 0.46422 0.11064 0.35421 0.0
O136 O 0.46326 0.16504 0.31724 0.0
C137 C 0.4033 0.08905 0.43033 0.0
O138 O 0.43093 0.14259 0.3291 0.0
O139 O 0.40171 0.09404 0.38935 0.0
C140 C 0.28533 0.45668 0.60577 0.0
O141 O 0.29328 0.47231 0.58028 0.0
Cd142 Cd 0.31656 0.477 0.51978 0.0
O143 O 0.28907 0.44232 0.59923 0.0
Cd144 Cd 0.30865 0.43287 0.54645 0.0
C145 C 0.28425 0.43641 0.45258 0.0
O146 O 0.33847 0.46623 0.55237 0.0
O147 O 0.34081 0.44629 0.50331 0.0
O148 O 0.30879 0.41513 0.61588 0.0
C149 C 0.34932 0.46316 0.52415 0.0
O150 O 0.29516 0.4555 0.45768 0.0
C151 C 0.3081 0.40008 0.59544 0.0
O152 O 0.28501 0.42429 0.48172 0.0
O153 O 0.3074 0.40002 0.55167 0.0
C154 C 0.83089 0.29448 0.78567 0.0
O155 O 0.82418 0.3047 0.76536 0.0
Cd156 Cd 0.84047 0.32569 0.70032 0.0
O157 O 0.84743 0.29559 0.77284 0.0
Cd158 Cd 0.87494 0.31345 0.71523 0.0
C159 C 0.8405 0.28856 0.63155 0.0
O160 O 0.87515 0.34511 0.72255 0.0
O161 O 0.89321 0.34424 0.66665 0.0
O162 O 0.89585 0.31458 0.7793 0.0
C163 C 0.88742 0.35444 0.69018 0.0
O164 O 0.83388 0.30058 0.64067 0.0
C165 C 0.90779 0.31108 0.75571 0.0
O166 O 0.85516 0.28935 0.65436 0.0
O167 O 0.90424 0.30819 0.71273 0.0
H168 H 0.18101 0.4609 0.19806 0.0
H169 H 0.1985 0.44897 0.24802 0.0
H170 H 0.15629 0.3872 0.21052 0.0
H171 H 0.13864 0.39902 0.15912 0.0
H172 H 0.17301 0.40457 0.31999 0.0
H173 H 0.18879 0.39118 0.16643 0.0
H174 H 0.19667 0.39954 0.08411 0.0
H175 H 0.2497 0.45549 0.12066 0.0
H176 H 0.24193 0.4476 0.20322 0.0
H177 H 0.25139 0.3982 0.44182 0.0
H178 H 0.22436 0.38746 0.38419 0.0
H179 H 0.25645 0.44646 0.32053 0.0
H180 H 0.2834 0.45713 0.37711 0.0
H181 H 0.23885 0.41749 0.25632 0.0
H182 H 0.2201 0.43528 0.40351 0.0
H183 H 0.21273 0.4308 0.48689 0.0
H184 H 0.16592 0.36932 0.46361 0.0
H185 H 0.1732 0.3734 0.38009 0.0
C186 C 0.17517 0.44474 0.20068 0.0
C187 C 0.15849 0.43093 0.17417 0.0
C188 C 0.18522 0.43797 0.22933 0.0
C189 C 0.17874 0.41728 0.23251 0.0
C190 C 0.16148 0.40325 0.20825 0.0
C191 C 0.15145 0.41005 0.179 0.0
C192 C 0.19127 0.41107 0.25897 0.0
C193 C 0.18708 0.40659 0.30589 0.0
C194 C 0.20975 0.41417 0.24052 0.0
C195 C 0.21469 0.41885 0.19097 0.0
C196 C 0.20204 0.40533 0.15689 0.0
C197 C 0.2065 0.40997 0.1102 0.0
C198 C 0.22366 0.42805 0.09716 0.0
C199 C 0.23641 0.4415 0.13081 0.0
C200 C 0.232 0.43693 0.17756 0.0
C201 C 0.25286 0.40871 0.41492 0.0
C202 C 0.26942 0.42861 0.41436 0.0
C203 C 0.23737 0.40257 0.38215 0.0
C204 C 0.23828 0.41624 0.34841 0.0
C205 C 0.25541 0.43564 0.3462 0.0
C206 C 0.27078 0.44178 0.37883 0.0
C207 C 0.22087 0.41147 0.31783 0.0
C208 C 0.22432 0.41426 0.27016 0.0
C209 C 0.20177 0.40695 0.33572 0.0
C210 C 0.19737 0.40455 0.38577 0.0
C211 C 0.20834 0.42077 0.41626 0.0
C212 C 0.20416 0.41831 0.46351 0.0
C213 C 0.18892 0.39976 0.48056 0.0
C214 C 0.17776 0.38366 0.45037 0.0
C215 C 0.18191 0.38603 0.40309 0.0
H216 H 0.1857 0.39789 0.51715 0.0
H217 H 0.22708 0.43162 0.06099 0.0
H218 H 0.80527 0.2791 0.5878 0.0
H219 H 0.78531 0.25057 0.53696 0.0
H220 H 0.83058 0.23253 0.54543 0.0
H221 H 0.85081 0.26116 0.5974 0.0
H222 H 0.81361 0.23241 0.45163 0.0
H223 H 0.79327 0.20511 0.60271 0.0
H224 H 0.78315 0.20484 0.68356 0.0
H225 H 0.73031 0.20649 0.63868 0.0
H226 H 0.74027 0.20711 0.55753 0.0
H227 H 0.7381 0.14672 0.32671 0.0
H228 H 0.76354 0.16473 0.38667 0.0
H229 H 0.72954 0.19263 0.43406 0.0
H230 H 0.70409 0.17466 0.37499 0.0
H231 H 0.74476 0.18187 0.50553 0.0
H232 H 0.76874 0.21667 0.3583 0.0
H233 H 0.77885 0.21898 0.27673 0.0
H234 H 0.82465 0.20444 0.31405 0.0
H235 H 0.81462 0.20179 0.39583 0.0
C236 C 0.81119 0.26925 0.5787 0.0
C237 C 0.82963 0.27238 0.59694 0.0
C238 C 0.79968 0.25289 0.54972 0.0
C239 C 0.80639 0.23937 0.53802 0.0
C240 C 0.82516 0.24281 0.55439 0.0
C241 C 0.83666 0.25913 0.58401 0.0
C242 C 0.79321 0.2215 0.50946 0.0
C243 C 0.79876 0.22097 0.46364 0.0
C244 C 0.77379 0.20682 0.52521 0.0
C245 C 0.76759 0.20626 0.57399 0.0
C246 C 0.77957 0.20557 0.61007 0.0
C247 C 0.77385 0.20533 0.65596 0.0
C248 C 0.75611 0.20567 0.66625 0.0
C249 C 0.74404 0.20621 0.63065 0.0
C250 C 0.7497 0.20648 0.58469 0.0
C251 C 0.73588 0.15643 0.35041 0.0
C252 C 0.71916 0.15941 0.34579 0.0
C253 C 0.75048 0.16676 0.3845 0.0
C254 C 0.74854 0.18019 0.41443 0.0
C255 C 0.73134 0.18235 0.41132 0.0
C256 C 0.71684 0.17212 0.37733 0.0
C257 C 0.76485 0.19317 0.44715 0.0
C258 C 0.75985 0.19283 0.49381 0.0
C259 C 0.78471 0.20712 0.43207 0.0
C260 C 0.79076 0.20876 0.38301 0.0
C261 C 0.78086 0.2138 0.34903 0.0
C262 C 0.78659 0.2152 0.30279 0.0
C263 C 0.80233 0.21179 0.29019 0.0
C264 C 0.81242 0.20703 0.32384 0.0
C265 C 0.80672 0.20557 0.37013 0.0
H266 H 0.80676 0.21289 0.25437 0.0
H267 H 0.75171 0.20549 0.70181 0.0
H268 H 0.53796 0.71374 0.55468 0.0
H269 H 0.54948 0.7424 0.60709 0.0
H270 H 0.60803 0.77167 0.54159 0.0
H271 H 0.59656 0.74297 0.48816 0.0
H272 H 0.59195 0.76751 0.66565 0.0
H273 H 0.60426 0.80091 0.50893 0.0
H274 H 0.59421 0.7979 0.42707 0.0
H275 H 0.53285 0.77791 0.46733 0.0
H276 H 0.54258 0.78063 0.5494 0.0
H277 H 0.595 0.85259 0.77928 0.0
H278 H 0.60604 0.83575 0.7238 0.0
H279 H 0.54644 0.80583 0.66294 0.0
H280 H 0.53545 0.82268 0.71734 0.0
H281 H 0.5746 0.81675 0.59771 0.0
H282 H 0.55992 0.78325 0.74802 0.0
H283 H 0.56535 0.78216 0.83161 0.0
H284 H 0.62731 0.79882 0.80695 0.0
H285 H 0.62227 0.80022 0.7232 0.0
C286 C 0.55343 0.72605 0.55184 0.0
C287 C 0.56625 0.7262 0.51679 0.0
C288 C 0.56001 0.74236 0.58204 0.0
C289 C 0.57951 0.75911 0.57787 0.0
C290 C 0.5929 0.75881 0.54515 0.0
C291 C 0.58632 0.74241 0.51476 0.0
C292 C 0.58431 0.7777 0.60361 0.0
C293 C 0.58896 0.77881 0.65063 0.0
C294 C 0.57986 0.79201 0.58411 0.0
C295 C 0.57411 0.79088 0.53504 0.0
C296 C 0.58863 0.79582 0.50021 0.0
C297 C 0.583 0.79417 0.45383 0.0
C298 C 0.5629 0.78769 0.442 0.0
C299 C 0.54841 0.78292 0.47653 0.0
C300 C 0.55398 0.78453 0.52295 0.0
C301 C 0.58439 0.84273 0.75346 0.0
C302 C 0.56427 0.8388 0.75305 0.0
C303 C 0.5907 0.83307 0.72193 0.0
C304 C 0.57699 0.81935 0.68961 0.0
C305 C 0.55729 0.81636 0.68754 0.0
C306 C 0.55099 0.82594 0.71891 0.0
C307 C 0.5822 0.80668 0.66019 0.0
C308 C 0.57892 0.80637 0.61252 0.0
C309 C 0.58783 0.79307 0.67931 0.0
C310 C 0.5908 0.7921 0.72952 0.0
C311 C 0.57473 0.78681 0.76049 0.0
C312 C 0.57773 0.78612 0.80787 0.0
C313 C 0.59668 0.79049 0.8246 0.0
C314 C 0.61265 0.79549 0.79396 0.0
C315 C 0.60973 0.79624 0.74655 0.0
H316 H 0.59898 0.78996 0.86128 0.0
H317 H 0.55855 0.78639 0.40609 0.0
H318 H 0.8459 0.5875 0.65668 0.0
H319 H 0.8243 0.59263 0.71139 0.0
H320 H 0.79087 0.52841 0.73837 0.0
H321 H 0.81218 0.52312 0.68426 0.0
H322 H 0.76645 0.54414 0.71365 0.0
H323 H 0.82269 0.56035 0.81725 0.0
H324 H 0.85839 0.57977 0.84177 0.0
H325 H 0.85558 0.63469 0.84025 0.0
H326 H 0.81991 0.61561 0.81512 0.0
H327 H 0.70714 0.52373 0.90931 0.0
H328 H 0.732 0.52859 0.85099 0.0
H329 H 0.75755 0.59336 0.85991 0.0
H330 H 0.73281 0.58864 0.91979 0.0
H331 H 0.78685 0.58369 0.85907 0.0
H332 H 0.72966 0.56734 0.76535 0.0
H333 H 0.69397 0.54842 0.74063 0.0
H334 H 0.69852 0.49496 0.72098 0.0
H335 H 0.73415 0.51346 0.74621 0.0
C336 C 0.83416 0.57452 0.67486 0.0
C337 C 0.83067 0.55487 0.66575 0.0
C338 C 0.82184 0.57749 0.70605 0.0
C339 C 0.80591 0.56087 0.7286 0.0
C340 C 0.80298 0.54142 0.721 0.0
C341 C 0.81525 0.53844 0.69009 0.0
C342 C 0.79137 0.56325 0.75814 0.0
C343 C 0.77087 0.5527 0.74559 0.0
C344 C 0.79731 0.57517 0.79865 0.0
C345 C 0.81873 0.5866 0.81374 0.0
C346 C 0.82974 0.57659 0.82171 0.0
C347 C 0.84996 0.58753 0.83582 0.0
C348 C 0.85927 0.60846 0.8424 0.0
C349 C 0.84836 0.61849 0.83503 0.0
C350 C 0.82815 0.60762 0.82089 0.0
C351 C 0.71787 0.53904 0.89873 0.0
C352 C 0.71789 0.55579 0.91921 0.0
C353 C 0.73207 0.5418 0.86512 0.0
C354 C 0.74647 0.56133 0.85051 0.0
C355 C 0.74652 0.57815 0.87054 0.0
C356 C 0.73231 0.5754 0.90457 0.0
C357 C 0.76177 0.56387 0.81551 0.0
C358 C 0.78241 0.57541 0.82677 0.0
C359 C 0.756 0.55299 0.77346 0.0
C360 C 0.73458 0.54179 0.7579 0.0
C361 C 0.72302 0.55152 0.75602 0.0
C362 C 0.7028 0.54087 0.74188 0.0
C363 C 0.69398 0.5205 0.72929 0.0
C364 C 0.70537 0.51074 0.73073 0.0
C365 C 0.7256 0.52132 0.74487 0.0
H366 H 0.67832 0.51228 0.71838 0.0
H367 H 0.87492 0.6169 0.85334 0.0
H368 H 0.27936 0.80853 0.85066 0.0
H369 H 0.25094 0.78909 0.90208 0.0
H370 H 0.22886 0.83048 0.87752 0.0
H371 H 0.25736 0.85016 0.82485 0.0
H372 H 0.22885 0.81563 0.97766 0.0
H373 H 0.204 0.79278 0.82485 0.0
H374 H 0.20611 0.78236 0.7455 0.0
H375 H 0.21113 0.73231 0.7978 0.0
H376 H 0.20939 0.74263 0.87752 0.0
H377 H 0.14344 0.73752 0.09998 0.0
H378 H 0.16147 0.7634 0.04078 0.0
H379 H 0.19239 0.73177 0.99725 0.0
H380 H 0.17438 0.70589 0.0553 0.0
H381 H 0.18164 0.74557 0.9245 0.0
H382 H 0.21385 0.77189 0.07347 0.0
H383 H 0.21448 0.78242 0.15418 0.0
H384 H 0.19736 0.82565 0.11042 0.0
H385 H 0.1964 0.81518 0.02945 0.0
C386 C 0.26867 0.81376 0.85639 0.0
C387 C 0.27058 0.83084 0.8332 0.0
C388 C 0.25241 0.80257 0.88584 0.0
C389 C 0.23777 0.80826 0.89309 0.0
C390 C 0.24005 0.82588 0.87212 0.0
C391 C 0.25631 0.83706 0.84208 0.0
C392 C 0.21966 0.79482 0.92065 0.0
C393 C 0.2181 0.8005 0.96575 0.0
C394 C 0.20592 0.77503 0.9051 0.0
C395 C 0.20666 0.76855 0.85719 0.0
C396 C 0.20569 0.77963 0.81945 0.0
C397 C 0.20681 0.77373 0.7744 0.0
C398 C 0.20878 0.7567 0.76662 0.0
C399 C 0.2096 0.7455 0.80388 0.0
C400 C 0.20852 0.75135 0.84901 0.0
C401 C 0.15385 0.73593 0.0773 0.0
C402 C 0.15759 0.71971 0.08265 0.0
C403 C 0.16421 0.75078 0.04365 0.0
C404 C 0.17845 0.74963 0.01495 0.0
C405 C 0.18147 0.73298 0.01897 0.0
C406 C 0.1712 0.71822 0.05241 0.0
C407 C 0.1912 0.76609 0.98223 0.0
C408 C 0.19183 0.76093 0.93607 0.0
C409 C 0.20417 0.78628 0.997 0.0
C410 C 0.20478 0.79257 0.04557 0.0
C411 C 0.21007 0.78353 0.08113 0.0
C412 C 0.21051 0.7895 0.1269 0.0
C413 C 0.20589 0.80464 0.13744 0.0
C414 C 0.20088 0.81389 0.10222 0.0
C415 C 0.20038 0.80794 0.0564 0.0
H416 H 0.20625 0.80926 0.17289 0.0
H417 H 0.20965 0.75216 0.73171 0.0
H418 H 0.46678 0.1976 0.28305 0.0
H419 H 0.45776 0.21603 0.22798 0.0
H420 H 0.40085 0.16185 0.20125 0.0
H421 H 0.40957 0.14325 0.2576 0.0
H422 H 0.42696 0.18493 0.12 0.0
H423 H 0.39456 0.19266 0.25275 0.0
H424 H 0.39185 0.19984 0.33451 0.0
H425 H 0.44114 0.26063 0.31773 0.0
H426 H 0.44437 0.25372 0.23603 0.0
H427 H 0.40803 0.26799 0.01638 0.0
H428 H 0.39953 0.24123 0.07402 0.0
H429 H 0.46082 0.25251 0.06901 0.0
H430 H 0.46956 0.27931 0.01256 0.0
H431 H 0.42103 0.24471 0.16459 0.0
H432 H 0.4549 0.20452 0.05837 0.0
H433 H 0.45902 0.19816 0.97679 0.0
H434 H 0.4064 0.20203 0.94075 0.0
H435 H 0.40178 0.20809 0.0222 0.0
C436 C 0.45232 0.18956 0.26556 0.0
C437 C 0.4389 0.16895 0.27448 0.0
C438 C 0.44715 0.20015 0.23435 0.0
C439 C 0.42861 0.19029 0.21095 0.0
C440 C 0.41518 0.16968 0.21931 0.0
C441 C 0.42018 0.15912 0.2514 0.0
C442 C 0.42403 0.20167 0.17636 0.0
C443 C 0.42526 0.19777 0.12962 0.0
C444 C 0.42169 0.2183 0.18919 0.0
C445 C 0.41976 0.22262 0.23827 0.0
C446 C 0.40492 0.20751 0.26657 0.0
C447 C 0.40328 0.21155 0.3129 0.0
C448 C 0.41633 0.23068 0.33132 0.0
C449 C 0.43103 0.24582 0.30341 0.0
C450 C 0.43276 0.24186 0.25706 0.0
C451 C 0.41971 0.26485 0.02787 0.0
C452 C 0.43948 0.27578 0.00992 0.0
C453 C 0.41483 0.2496 0.06073 0.0
C454 C 0.42952 0.24485 0.07523 0.0
C455 C 0.44926 0.2559 0.05787 0.0
C456 C 0.45423 0.27128 0.02575 0.0
C457 C 0.42464 0.22833 0.10841 0.0
C458 C 0.42195 0.23144 0.15488 0.0
C459 C 0.42566 0.21096 0.09536 0.0
C460 C 0.42807 0.20688 0.0464 0.0
C461 C 0.44413 0.20388 0.0331 0.0
C462 C 0.44657 0.20036 0.98686 0.0
C463 C 0.43301 0.19973 0.95359 0.0
C464 C 0.41694 0.20257 0.96653 0.0
C465 C 0.41442 0.20608 0.01272 0.0
H466 H 0.43494 0.19703 0.91781 0.0
H467 H 0.41503 0.23377 0.3672 0.0
H468 H 0.07745 0.45985 0.12819 0.0
H469 H 0.0689 0.48601 0.14795 0.0
H470 H 0.11861 0.52914 0.06421 0.0
H471 H 0.12681 0.50309 0.04345 0.0
H472 H 0.08883 0.51961 0.19307 0.0
H473 H 0.10989 0.56362 0.01788 0.0
H474 H 0.1072 0.55584 0.93479 0.0
H475 H 0.05813 0.49577 0.96121 0.0
H476 H 0.06031 0.50327 0.04438 0.0
H477 H 0.12453 0.62239 0.22411 0.0
H478 H 0.11764 0.58851 0.20426 0.0
H479 H 0.06618 0.57905 0.12305 0.0
H480 H 0.0735 0.61348 0.14165 0.0
H481 H 0.08643 0.56627 0.07714 0.0
H482 H 0.06026 0.55407 0.22829 0.0
H483 H 0.05911 0.55983 0.31161 0.0
H484 H 0.11066 0.55226 0.33357 0.0
H485 H 0.11232 0.54674 0.25029 0.0
C486 C 0.08642 0.47488 0.11372 0.0
C487 C 0.10276 0.47941 0.08418 0.0
C488 C 0.08153 0.4898 0.12505 0.0
C489 C 0.09291 0.50947 0.10701 0.0
C490 C 0.10927 0.51396 0.07764 0.0
C491 C 0.11404 0.49907 0.06605 0.0
C492 C 0.0886 0.52575 0.12064 0.0
C493 C 0.0881 0.5297 0.16773 0.0
C494 C 0.08692 0.53853 0.08761 0.0
C495 C 0.08536 0.534 0.03747 0.0
C496 C 0.09844 0.54879 0.00597 0.0
C497 C 0.09702 0.54442 0.95884 0.0
C498 C 0.08253 0.52531 0.94274 0.0
C499 C 0.06939 0.51055 0.97373 0.0
C500 C 0.07073 0.51485 0.02088 0.0
C501 C 0.11163 0.61307 0.20232 0.0
C502 C 0.09953 0.6206 0.18446 0.0
C503 C 0.10761 0.5936 0.19126 0.0
C504 C 0.09115 0.58102 0.16285 0.0
C505 C 0.0789 0.58843 0.14522 0.0
C506 C 0.08308 0.60808 0.15589 0.0
C507 C 0.08771 0.5607 0.14956 0.0
C508 C 0.08674 0.55597 0.10251 0.0
C509 C 0.08742 0.54688 0.18267 0.0
C510 C 0.08645 0.55007 0.23293 0.0
C511 C 0.07143 0.55375 0.25083 0.0
C512 C 0.07068 0.55696 0.29808 0.0
C513 C 0.08482 0.55643 0.32786 0.0
C514 C 0.09971 0.55265 0.31046 0.0
C515 C 0.10054 0.54944 0.26324 0.0
H516 H 0.08422 0.55893 0.36442 0.0
H517 H 0.08147 0.52195 0.90625 0.0
H518 H 0.6154 0.10667 0.16957 0.0
H519 H 0.58141 0.10091 0.1848 0.0
H520 H 0.58805 0.09108 0.32881 0.0
H521 H 0.62171 0.09579 0.31312 0.0
H522 H 0.55052 0.06745 0.30501 0.0
H523 H 0.59806 0.13821 0.28543 0.0
H524 H 0.62446 0.16857 0.24569 0.0
H525 H 0.58392 0.1578 0.13265 0.0
H526 H 0.55736 0.12719 0.17148 0.0
H527 H 0.49233 0.10771 0.40595 0.0
H528 H 0.51874 0.1008 0.37921 0.0
H529 H 0.49629 0.09402 0.24009 0.0
H530 H 0.46944 0.10048 0.26681 0.0
H531 H 0.53926 0.1234 0.2552 0.0
H532 H 0.48996 0.05406 0.28546 0.0
H533 H 0.46449 0.02585 0.33241 0.0
H534 H 0.50969 0.03664 0.43421 0.0
H535 H 0.53537 0.06515 0.38825 0.0
C536 C 0.60946 0.10298 0.20434 0.0
C537 C 0.62123 0.10192 0.2403 0.0
C538 C 0.59008 0.09977 0.21306 0.0
C539 C 0.58237 0.09612 0.25818 0.0
C540 C 0.5937 0.09399 0.29374 0.0
C541 C 0.61295 0.09673 0.28481 0.0
C542 C 0.5632 0.09592 0.2688 0.0
C543 C 0.54812 0.07974 0.29432 0.0
C544 C 0.55991 0.11185 0.25444 0.0
C545 C 0.57581 0.13029 0.23111 0.0
C546 C 0.59483 0.14224 0.25195 0.0
C547 C 0.60981 0.1595 0.22961 0.0
C548 C 0.60589 0.16507 0.18661 0.0
C549 C 0.58695 0.15344 0.16592 0.0
C550 C 0.57192 0.13614 0.18807 0.0
C551 C 0.49285 0.10447 0.36976 0.0
C552 C 0.47892 0.10471 0.33838 0.0
C553 C 0.50786 0.10044 0.35462 0.0
C554 C 0.50936 0.09684 0.30778 0.0
C555 C 0.49525 0.09668 0.27642 0.0
C556 C 0.47996 0.10033 0.29172 0.0
C557 C 0.52674 0.09503 0.29141 0.0
C558 C 0.54155 0.11095 0.26511 0.0
C559 C 0.52994 0.07914 0.30601 0.0
C560 C 0.51457 0.06186 0.33354 0.0
C561 C 0.49444 0.05054 0.31804 0.0
C562 C 0.47997 0.03447 0.34445 0.0
C563 C 0.48546 0.02948 0.38631 0.0
C564 C 0.50545 0.04052 0.40179 0.0
C565 C 0.51998 0.05663 0.37554 0.0
H566 H 0.47423 0.01704 0.40672 0.0
H567 H 0.61751 0.17844 0.16937 0.0
H568 H 0.37504 0.46264 0.45876 0.0
H569 H 0.40888 0.49031 0.43853 0.0
H570 H 0.4041 0.52781 0.5436 0.0
H571 H 0.37056 0.50031 0.56424 0.0
H572 H 0.41961 0.52679 0.40537 0.0
H573 H 0.44961 0.5595 0.58898 0.0
H574 H 0.44767 0.54674 0.66805 0.0
H575 H 0.43535 0.48914 0.61446 0.0
H576 H 0.43752 0.50163 0.53508 0.0
H577 H 0.4894 0.63012 0.39402 0.0
H578 H 0.46166 0.59642 0.41239 0.0
H579 H 0.50428 0.57983 0.46575 0.0
H580 H 0.53219 0.61406 0.4491 0.0
H581 H 0.47354 0.56583 0.52015 0.0
H582 H 0.48026 0.56247 0.35794 0.0
H583 H 0.48353 0.57363 0.27702 0.0
H584 H 0.42512 0.56908 0.28394 0.0
H585 H 0.42161 0.55815 0.36509 0.0
C586 C 0.38131 0.47673 0.47781 0.0
C587 C 0.37013 0.47931 0.51305 0.0
C588 C 0.40061 0.49251 0.46617 0.0
C589 C 0.4091 0.51105 0.48987 0.0
C590 C 0.39803 0.51353 0.52539 0.0
C591 C 0.37878 0.49782 0.53697 0.0
C592 C 0.42899 0.52832 0.47598 0.0
C593 C 0.43149 0.53524 0.43034 0.0
C594 C 0.4447 0.53903 0.5083 0.0
C595 C 0.44359 0.53148 0.55603 0.0
C596 C 0.4466 0.54415 0.59404 0.0
C597 C 0.44543 0.53695 0.63893 0.0
C598 C 0.44134 0.51713 0.64628 0.0
C599 C 0.43845 0.50447 0.60874 0.0
C600 C 0.43962 0.51159 0.56378 0.0
C601 C 0.4929 0.61929 0.40954 0.0
C602 C 0.51297 0.62467 0.4199 0.0
C603 C 0.47702 0.59996 0.41976 0.0
C604 C 0.48088 0.58538 0.43947 0.0
C605 C 0.50093 0.59077 0.45028 0.0
C606 C 0.51685 0.6103 0.44074 0.0
C607 C 0.46383 0.56478 0.44992 0.0
C608 C 0.46184 0.55723 0.49494 0.0
C609 C 0.44879 0.55322 0.41672 0.0
C610 C 0.45073 0.55958 0.36771 0.0
C611 C 0.46816 0.56394 0.34228 0.0
C612 C 0.47005 0.57023 0.29636 0.0
C613 C 0.45456 0.57209 0.27538 0.0
C614 C 0.43711 0.56763 0.30024 0.0
C615 C 0.43515 0.56135 0.34618 0.0
H616 H 0.45606 0.57697 0.23983 0.0
H617 H 0.44043 0.51158 0.68106 0.0
H618 H 0.90956 0.53124 0.63064 0.0
H619 H 0.9141 0.50227 0.64824 0.0
H620 H 0.88317 0.47311 0.52227 0.0
H621 H 0.87841 0.50176 0.50475 0.0
H622 H 0.86702 0.44861 0.59388 0.0
H623 H 0.93347 0.49099 0.53362 0.0
H624 H 0.96676 0.52198 0.52648 0.0
H625 H 0.98051 0.51571 0.667 0.0
H626 H 0.94717 0.48481 0.67521 0.0
H627 H 0.91064 0.37739 0.61762 0.0
H628 H 0.91538 0.41017 0.59181 0.0
H629 H 0.8797 0.41071 0.70664 0.0
H630 H 0.87483 0.3781 0.73248 0.0
H631 H 0.93065 0.44912 0.63335 0.0
H632 H 0.84648 0.42396 0.66412 0.0
H633 H 0.81343 0.3924 0.66685 0.0
H634 H 0.83566 0.36375 0.57487 0.0
H635 H 0.86872 0.39521 0.57102 0.0
C636 C 0.90399 0.51877 0.60643 0.0
C637 C 0.89345 0.51868 0.56656 0.0
C638 C 0.90667 0.50228 0.61641 0.0
C639 C 0.89897 0.48554 0.58653 0.0
C640 C 0.88916 0.48583 0.54587 0.0
C641 C 0.88646 0.50223 0.53593 0.0
C642 C 0.89947 0.46697 0.59936 0.0
C643 C 0.88097 0.44876 0.60235 0.0
C644 C 0.91768 0.4671 0.60994 0.0
C645 C 0.93774 0.48568 0.60515 0.0
C646 C 0.94352 0.49631 0.56313 0.0
C647 C 0.96242 0.51384 0.55886 0.0
C648 C 0.97573 0.52084 0.59629 0.0
C649 C 0.97018 0.51028 0.63805 0.0
C650 C 0.95129 0.49275 0.64251 0.0
C651 C 0.90402 0.38463 0.63762 0.0
C652 C 0.89215 0.37506 0.67673 0.0
C653 C 0.90683 0.40337 0.62298 0.0
C654 C 0.89771 0.4127 0.64709 0.0
C655 C 0.88669 0.40363 0.68734 0.0
C656 C 0.88391 0.38498 0.702 0.0
C657 C 0.8982 0.43102 0.62851 0.0
C658 C 0.91679 0.44908 0.62463 0.0
C659 C 0.88011 0.43077 0.61637 0.0
C660 C 0.86013 0.41189 0.61766 0.0
C661 C 0.84427 0.41095 0.6443 0.0
C662 C 0.82554 0.39308 0.64607 0.0
C663 C 0.82246 0.37606 0.62116 0.0
C664 C 0.83808 0.37691 0.59427 0.0
C665 C 0.85682 0.39476 0.59233 0.0
H666 H 0.80796 0.36223 0.62263 0.0
H667 H 0.99035 0.53441 0.59292 0.0
H668 H 0.37819 0.91618 0.79003 0.0
H669 H 0.41266 0.9244 0.81088 0.0
H670 H 0.40658 0.87532 0.7252 0.0
H671 H 0.37264 0.86753 0.70328 0.0
H672 H 0.42585 0.90409 0.85563 0.0
H673 H 0.44977 0.88368 0.6808 0.0
H674 H 0.44546 0.88704 0.5976 0.0
H675 H 0.43498 0.93649 0.62458 0.0
H676 H 0.43951 0.93363 0.70787 0.0
H677 H 0.4915 0.86661 0.88778 0.0
H678 H 0.46498 0.87411 0.8672 0.0
H679 H 0.50806 0.9261 0.78904 0.0
H680 H 0.5347 0.91823 0.80848 0.0
H681 H 0.47543 0.90645 0.74135 0.0
H682 H 0.48846 0.93162 0.89325 0.0
H683 H 0.49467 0.93222 0.9768 0.0
H684 H 0.43514 0.88111 0.99617 0.0
H685 H 0.42866 0.88 0.91263 0.0
C686 C 0.38433 0.90731 0.77535 0.0
C687 C 0.37274 0.89126 0.74492 0.0
C688 C 0.404 0.912 0.78729 0.0
C689 C 0.41237 0.9007 0.76904 0.0
C690 C 0.40072 0.88464 0.73879 0.0
C691 C 0.38122 0.88009 0.72653 0.0
C692 C 0.43275 0.90471 0.78341 0.0
C693 C 0.43678 0.90481 0.83065 0.0
C694 C 0.44737 0.90638 0.75089 0.0
C695 C 0.44488 0.90835 0.70068 0.0
C696 C 0.44668 0.89536 0.66899 0.0
C697 C 0.44416 0.89715 0.6218 0.0
C698 C 0.43991 0.91194 0.60583 0.0
C699 C 0.43821 0.925 0.63701 0.0
C700 C 0.44073 0.92328 0.68422 0.0
C701 C 0.4954 0.87974 0.86649 0.0
C702 C 0.5152 0.89184 0.84975 0.0
C703 C 0.48023 0.88411 0.85501 0.0
C704 C 0.48456 0.9009 0.82724 0.0
C705 C 0.50437 0.91313 0.8107 0.0
C706 C 0.51958 0.90863 0.82183 0.0
C707 C 0.46801 0.90475 0.81349 0.0
C708 C 0.4647 0.90614 0.76636 0.0
C709 C 0.45436 0.90508 0.84617 0.0
C710 C 0.45811 0.90568 0.89656 0.0
C711 C 0.47673 0.92043 0.91527 0.0
C712 C 0.48029 0.92087 0.96265 0.0
C713 C 0.46532 0.9067 0.99177 0.0
C714 C 0.44673 0.89208 0.97357 0.0
C715 C 0.44308 0.89156 0.9262 0.0
H716 H 0.46811 0.90706 0.02844 0.0
H717 H 0.43795 0.9133 0.56928 0.0
H718 H 0.49991 0.37815 0.86781 0.0
H719 H 0.52716 0.4114 0.89142 0.0
H720 H 0.48891 0.41415 0.99737 0.0
H721 H 0.46137 0.38067 0.97393 0.0
H722 H 0.5139 0.45209 0.94897 0.0
H723 H 0.51928 0.4001 0.03103 0.0
H724 H 0.52025 0.36832 0.03772 0.0
H725 H 0.57299 0.39295 0.95129 0.0
H726 H 0.57214 0.42478 0.94349 0.0
H727 H 0.6166 0.50771 0.08679 0.0
H728 H 0.58303 0.47912 0.07078 0.0
H729 H 0.58376 0.50391 0.93655 0.0
H730 H 0.61734 0.53288 0.95276 0.0
H731 H 0.57521 0.45202 0.00642 0.0
H732 H 0.53449 0.48585 0.90077 0.0
H733 H 0.53275 0.5173 0.89715 0.0
H734 H 0.54973 0.52908 0.0398 0.0
H735 H 0.5513 0.49757 0.04445 0.0
C736 C 0.49716 0.38588 0.89581 0.0
C737 C 0.47857 0.37669 0.9194 0.0
C738 C 0.51274 0.4049 0.90917 0.0
C739 C 0.51005 0.41509 0.94632 0.0
C740 C 0.49122 0.40647 0.96857 0.0
C741 C 0.47558 0.38733 0.95532 0.0
C742 C 0.52753 0.43388 0.96406 0.0
C743 C 0.52733 0.45217 0.96168 0.0
C744 C 0.54483 0.43379 0.9813 0.0
C745 C 0.54554 0.41476 0.98637 0.0
C746 C 0.531 0.39869 0.01317 0.0
C747 C 0.53153 0.38067 0.01721 0.0
C748 C 0.54665 0.3786 0.99487 0.0
C749 C 0.56128 0.39457 0.96854 0.0
C750 C 0.56079 0.41261 0.96434 0.0
C751 C 0.6095 0.50725 0.05411 0.0
C752 C 0.61967 0.52243 0.02083 0.0
C753 C 0.59031 0.4909 0.04503 0.0
C754 C 0.58089 0.48935 0.00249 0.0
C755 C 0.59064 0.50491 0.96985 0.0
C756 C 0.60986 0.5214 0.97906 0.0
C757 C 0.56187 0.47052 0.99085 0.0
C758 C 0.5618 0.4521 0.99411 0.0
C759 C 0.5443 0.47055 0.97506 0.0
C760 C 0.54319 0.48943 0.9728 0.0
C761 C 0.53777 0.49511 0.93141 0.0
C762 C 0.53683 0.51296 0.92917 0.0
C763 C 0.54119 0.52522 0.96818 0.0
C764 C 0.54644 0.51962 0.00956 0.0
C765 C 0.54739 0.50178 0.01199 0.0
H766 H 0.54046 0.53903 0.96637 0.0
H767 H 0.54704 0.36464 -0.00198 0.0
H768 H 0.26289 0.47538 0.61322 0.0
H769 H 0.24234 0.47454 0.67876 0.0
H770 H 0.25851 0.43529 0.75205 0.0
H771 H 0.27816 0.43521 0.68552 0.0
H772 H 0.22188 0.42355 0.76998 0.0
H773 H 0.28183 0.48817 0.77309 0.0
H774 H 0.30821 0.52113 0.74281 0.0
H775 H 0.2636 0.53889 0.71946 0.0
H776 H 0.23689 0.50592 0.74906 0.0
H777 H 0.20817 0.4819 0.97832 0.0
H778 H 0.22849 0.47983 0.9157 0.0
H779 H 0.17402 0.43486 0.84789 0.0
H780 H 0.15374 0.43618 0.91156 0.0
H781 H 0.23168 0.48866 0.83124 0.0
H782 H 0.1823 0.40328 0.78353 0.0
H783 H 0.16004 0.37075 0.8223 0.0
H784 H 0.19092 0.39519 0.95042 0.0
H785 H 0.21353 0.42776 0.91231 0.0
C786 C 0.26195 0.46649 0.64324 0.0
C787 C 0.27221 0.45548 0.64446 0.0
C788 C 0.2503 0.4661 0.68079 0.0
C789 C 0.24924 0.45524 0.72086 0.0
C790 C 0.25911 0.44383 0.72163 0.0
C791 C 0.27037 0.44382 0.68363 0.0
C792 C 0.23813 0.45603 0.76218 0.0
C793 C 0.22404 0.4378 0.78339 0.0
C794 C 0.24132 0.47462 0.78062 0.0
C795 C 0.25734 0.4945 0.7629 0.0
C796 C 0.27763 0.49905 0.76121 0.0
C797 C 0.29264 0.51775 0.74421 0.0
C798 C 0.28758 0.53208 0.72911 0.0
C799 C 0.26749 0.52777 0.73111 0.0
C800 C 0.25241 0.50909 0.74804 0.0
C801 C 0.20055 0.47151 0.95014 0.0
C802 C 0.17939 0.45915 0.94988 0.0
C803 C 0.21217 0.47035 0.91433 0.0
C804 C 0.20284 0.45701 0.87725 0.0
C805 C 0.18164 0.4449 0.87661 0.0
C806 C 0.17005 0.44575 0.91289 0.0
C807 C 0.21525 0.45618 0.83875 0.0
C808 C 0.22955 0.47441 0.81796 0.0
C809 C 0.21287 0.43764 0.822 0.0
C810 C 0.19947 0.41802 0.84511 0.0
C811 C 0.18439 0.40168 0.81993 0.0
C812 C 0.1717 0.38324 0.8418 0.0
C813 C 0.17402 0.38093 0.88882 0.0
C814 C 0.18908 0.39703 0.91404 0.0
C815 C 0.20183 0.41548 0.89233 0.0
H816 H 0.16417 0.36665 0.90569 0.0
H817 H 0.29922 0.54654 0.71596 0.0
H818 H 0.71999 0.20692 0.13458 0.0
H819 H 0.74307 0.22788 0.07364 0.0
H820 H 0.74944 0.17743 0.02818 0.0
H821 H 0.72639 0.15628 0.08929 0.0
H822 H 0.78318 0.23859 0.05331 0.0
H823 H 0.74961 0.17971 0.90792 0.0
H824 H 0.7175 0.14905 0.88744 0.0
H825 H 0.68433 0.1708 0.96552 0.0
H826 H 0.7162 0.20169 0.98589 0.0
H827 H 0.84326 0.27567 0.84752 0.0
H828 H 0.82363 0.25326 0.9111 0.0
H829 H 0.7726 0.26016 0.87394 0.0
H830 H 0.79203 0.28258 0.81062 0.0
H831 H 0.76223 0.21997 0.89034 0.0
H832 H 0.80031 0.28602 0.96138 0.0
H833 H 0.83149 0.3176 0.9818 0.0
H834 H 0.854 0.28335 0.05267 0.0
H835 H 0.82304 0.25153 0.03211 0.0
C836 C 0.72636 0.20028 0.11179 0.0
C837 C 0.72126 0.1799 0.11656 0.0
C838 C 0.73963 0.21231 0.07719 0.0
C839 C 0.74784 0.20414 0.04642 0.0
C840 C 0.74314 0.18394 0.05155 0.0
C841 C 0.73 0.17192 0.08647 0.0
C842 C 0.76058 0.2166 0.00774 0.0
C843 C 0.77871 0.23446 0.01765 0.0
C844 C 0.75459 0.21124 0.96134 0.0
C845 C 0.7353 0.19287 0.94886 0.0
C846 C 0.73545 0.17796 0.9206 0.0
C847 C 0.7173 0.16055 0.90902 0.0
C848 C 0.6989 0.15794 0.92532 0.0
C849 C 0.6986 0.17279 0.95308 0.0
C850 C 0.7167 0.19024 0.96471 0.0
C851 C 0.82785 0.2724 0.85287 0.0
C852 C 0.81921 0.28095 0.82414 0.0
C853 C 0.8167 0.25964 0.88921 0.0
C854 C 0.79672 0.25514 0.89713 0.0
C855 C 0.788 0.26344 0.86823 0.0
C856 C 0.79917 0.27633 0.83224 0.0
C857 C 0.78486 0.24196 0.93587 0.0
C858 C 0.76688 0.22395 0.92596 0.0
C859 C 0.79091 0.24728 0.98225 0.0
C860 C 0.80947 0.26639 0.99476 0.0
C861 C 0.81198 0.28521 0.98097 0.0
C862 C 0.8296 0.30316 0.99264 0.0
C863 C 0.84474 0.30248 0.01839 0.0
C864 C 0.84227 0.28385 0.03265 0.0
C865 C 0.82469 0.26586 0.02103 0.0
H866 H 0.85837 0.31639 0.0274 0.0
H867 H 0.68486 0.14445 0.91635 0.0
H868 H 0.52041 0.73362 0.32016 0.0
H869 H 0.52154 0.75422 0.25439 0.0
H870 H 0.55806 0.73514 0.17917 0.0
H871 H 0.55788 0.71544 0.24583 0.0
H872 H 0.57116 0.77203 0.16043 0.0
H873 H 0.50509 0.71371 0.16165 0.0
H874 H 0.47205 0.68874 0.19444 0.0
H875 H 0.45758 0.73577 0.21753 0.0
H876 H 0.49064 0.76107 0.18539 0.0
H877 H 0.513 0.7867 0.95337 0.0
H878 H 0.51478 0.76643 0.01655 0.0
H879 H 0.56131 0.82077 0.08176 0.0
H880 H 0.5602 0.84099 0.01771 0.0
H881 H 0.5066 0.76451 0.10187 0.0
H882 H 0.59255 0.81151 0.1451 0.0
H883 H 0.62493 0.83251 0.10464 0.0
H884 H 0.59855 0.80088 0.97829 0.0
H885 H 0.56612 0.77953 0.01811 0.0
C886 C 0.52876 0.73393 0.28964 0.0
C887 C 0.53893 0.72283 0.2879 0.0
C888 C 0.52932 0.74561 0.25198 0.0
C889 C 0.53949 0.74588 0.21133 0.0
C890 C 0.55007 0.73517 0.21004 0.0
C891 C 0.54992 0.72387 0.24811 0.0
C892 C 0.53882 0.757 0.16993 0.0
C893 C 0.55703 0.77037 0.14763 0.0
C894 C 0.52036 0.75448 0.15234 0.0
C895 C 0.50041 0.7393 0.17149 0.0
C896 C 0.49491 0.71874 0.17399 0.0
C897 C 0.47617 0.70453 0.19242 0.0
C898 C 0.46275 0.71068 0.20816 0.0
C899 C 0.468 0.73104 0.20537 0.0
C900 C 0.48673 0.74532 0.18701 0.0
C901 C 0.52369 0.7943 0.98106 0.0
C902 C 0.53652 0.81541 0.9805 0.0
C903 C 0.52467 0.78271 0.0172 0.0
C904 C 0.53833 0.79202 0.05372 0.0
C905 C 0.55098 0.81316 0.05348 0.0
C906 C 0.55026 0.82472 0.01694 0.0
C907 C 0.53896 0.77968 0.09262 0.0
C908 C 0.52073 0.76614 0.11457 0.0
C909 C 0.55731 0.78143 0.10868 0.0
C910 C 0.57685 0.79407 0.08454 0.0
C911 C 0.59369 0.80899 0.10873 0.0
C912 C 0.61205 0.82096 0.0859 0.0
C913 C 0.61378 0.81807 0.0389 0.0
C914 C 0.59717 0.80316 0.01466 0.0
C915 C 0.57879 0.79113 0.03734 0.0
H916 H 0.628 0.82737 0.02128 0.0
H917 H 0.44825 0.69965 0.22243 0.0
H918 H 0.79675 0.50976 0.43099 0.0
H919 H 0.77721 0.51328 0.36885 0.0
H920 H 0.81759 0.57792 0.36754 0.0
H921 H 0.83733 0.57461 0.43019 0.0
H922 H 0.77658 0.56679 0.36274 0.0
H923 H 0.82269 0.55122 0.28568 0.0
H924 H 0.84044 0.53211 0.27152 0.0
H925 H 0.78369 0.47835 0.24419 0.0
H926 H 0.76556 0.49706 0.25884 0.0
H927 H 0.73343 0.57551 0.15009 0.0
H928 H 0.7573 0.57832 0.21005 0.0
H929 H 0.72708 0.51315 0.22018 0.0
H930 H 0.70355 0.51019 0.1598 0.0
H931 H 0.76665 0.52854 0.21742 0.0
H932 H 0.72027 0.54273 0.30084 0.0
H933 H 0.70184 0.56105 0.31657 0.0
H934 H 0.75821 0.61655 0.33308 0.0
H935 H 0.77698 0.5986 0.31683 0.0
C936 C 0.80152 0.52476 0.41766 0.0
C937 C 0.81869 0.5419 0.4354 0.0
C938 C 0.79035 0.52672 0.38204 0.0
C939 C 0.79613 0.54583 0.36334 0.0
C940 C 0.81297 0.56305 0.38151 0.0
C941 C 0.82424 0.5611 0.41715 0.0
C942 C 0.78457 0.54757 0.32444 0.0
C943 C 0.77467 0.55875 0.33058 0.0
C944 C 0.78189 0.53679 0.28291 0.0
C945 C 0.79276 0.52552 0.27369 0.0
C946 C 0.81398 0.53529 0.27697 0.0
C947 C 0.82411 0.52453 0.26881 0.0
C948 C 0.8132 0.50402 0.25705 0.0
C949 C 0.79212 0.49423 0.25332 0.0
C950 C 0.78192 0.50492 0.26149 0.0
C951 C 0.73185 0.56178 0.16517 0.0
C952 C 0.7166 0.54262 0.15014 0.0
C953 C 0.74546 0.56343 0.19953 0.0
C954 C 0.74386 0.54594 0.21979 0.0
C955 C 0.72862 0.52684 0.2049 0.0
C956 C 0.71515 0.52518 0.17042 0.0
C957 C 0.75817 0.54733 0.25606 0.0
C958 C 0.76869 0.53678 0.24934 0.0
C959 C 0.76129 0.55859 0.29709 0.0
C960 C 0.75002 0.56937 0.30709 0.0
C961 C 0.72873 0.55887 0.30746 0.0
C962 C 0.71822 0.56918 0.31654 0.0
C963 C 0.72884 0.58997 0.32567 0.0
C964 C 0.75 0.60047 0.32591 0.0
C965 C 0.76058 0.59023 0.3168 0.0
H966 H 0.72068 0.59792 0.33268 0.0
H967 H 0.82107 0.49572 0.25075 0.0
H968 H 0.1963 0.70372 0.31928 0.0
H969 H 0.21619 0.72529 0.38332 0.0
H970 H 0.18091 0.7553 0.38125 0.0
H971 H 0.16073 0.73364 0.3172 0.0
H972 H 0.22366 0.7819 0.38748 0.0
H973 H 0.17081 0.72311 0.46184 0.0
H974 H 0.14903 0.68653 0.4762 0.0
H975 H 0.20118 0.68191 0.51274 0.0
H976 H 0.22332 0.71844 0.49791 0.0
H977 H 0.26261 0.83241 0.60115 0.0
H978 H 0.23983 0.81202 0.53919 0.0
H979 H 0.26511 0.77241 0.5431 0.0
H980 H 0.28759 0.79241 0.60577 0.0
H981 H 0.22521 0.75103 0.53705 0.0
H982 H 0.2783 0.80895 0.45882 0.0
H983 H 0.3006 0.84537 0.44328 0.0
H984 H 0.2488 0.85154 0.41282 0.0
H985 H 0.22616 0.81519 0.42879 0.0
C986 C 0.19278 0.71494 0.33226 0.0
C987 C 0.17689 0.71693 0.31325 0.0
C988 C 0.20412 0.72719 0.36895 0.0
C989 C 0.19987 0.74173 0.3871 0.0
C990 C 0.18434 0.74411 0.36765 0.0
C991 C 0.17282 0.73169 0.33122 0.0
C992 C 0.21164 0.75428 0.42669 0.0
C993 C 0.22379 0.77525 0.42049 0.0
C994 C 0.21202 0.74545 0.46926 0.0
C995 C 0.19875 0.72348 0.47834 0.0
C996 C 0.17766 0.71427 0.47255 0.0
C997 C 0.16524 0.69355 0.48085 0.0
C998 C 0.17372 0.68189 0.49527 0.0
C999 C 0.19464 0.69095 0.50152 0.0
C1000 C 0.20712 0.71167 0.49321 0.0
C1001 C 0.26334 0.81936 0.58884 0.0
C1002 C 0.27698 0.81408 0.6083 0.0
C1003 C 0.25035 0.80777 0.5533 0.0
C1004 C 0.25096 0.79085 0.53614 0.0
C1005 C 0.2644 0.78542 0.55582 0.0
C1006 C 0.27728 0.79691 0.59157 0.0
C1007 C 0.23756 0.7787 0.49777 0.0
C1008 C 0.22504 0.75776 0.5042 0.0
C1009 C 0.23695 0.78757 0.45532 0.0
C1010 C 0.25053 0.8094 0.44549 0.0
C1011 C 0.27166 0.81811 0.44915 0.0
C1012 C 0.28436 0.83873 0.44021 0.0
C1013 C 0.27612 0.85077 0.42721 0.0
C1014 C 0.25516 0.8422 0.42298 0.0
C1015 C 0.24239 0.82159 0.43193 0.0
H1016 H 0.28598 0.86673 0.4203 0.0
H1017 H 0.16408 0.66586 0.50169 0.0
H1018 H 0.49142 0.29144 0.78031 0.0
H1019 H 0.4892 0.26858 0.71887 0.0
H1020 H 0.4245 0.24348 0.71255 0.0
H1021 H 0.42651 0.26631 0.77444 0.0
H1022 H 0.43605 0.21406 0.71141 0.0
H1023 H 0.45244 0.27532 0.6312 0.0
H1024 H 0.47163 0.31205 0.6159 0.0
H1025 H 0.52571 0.30887 0.59425 0.0
H1026 H 0.5069 0.27216 0.61008 0.0
H1027 H 0.42769 0.16208 0.49959 0.0
H1028 H 0.4253 0.18294 0.56065 0.0
H1029 H 0.49047 0.21688 0.57053 0.0
H1030 H 0.493 0.19649 0.50889 0.0
H1031 H 0.47579 0.24161 0.56766 0.0
H1032 H 0.46038 0.18114 0.65231 0.0
H1033 H 0.44175 0.1445 0.66898 0.0
H1034 H 0.38652 0.14616 0.6833 0.0
H1035 H 0.40479 0.18278 0.66611 0.0
C1036 C 0.47669 0.28109 0.76594 0.0
C1037 C 0.45914 0.28077 0.78218 0.0
C1038 C 0.47547 0.26807 0.73072 0.0
C1039 C 0.45671 0.25452 0.71093 0.0
C1040 C 0.43911 0.2539 0.72739 0.0
C1041 C 0.44031 0.26699 0.76259 0.0
C1042 C 0.45567 0.24106 0.673 0.0
C1043 C 0.44445 0.22003 0.67959 0.0
C1044 C 0.46695 0.24894 0.632 0.0
C1045 C 0.47829 0.27101 0.62219 0.0
C1046 C 0.46846 0.28248 0.62352 0.0
C1047 C 0.47926 0.30329 0.61469 0.0
C1048 C 0.49989 0.3128 0.60421 0.0
C1049 C 0.50974 0.30149 0.60241 0.0
C1050 C 0.49901 0.28068 0.61126 0.0
C1051 C 0.4415 0.17389 0.51501 0.0
C1052 C 0.46054 0.17766 0.49933 0.0
C1053 C 0.44011 0.18575 0.55 0.0
C1054 C 0.45771 0.20138 0.57034 0.0
C1055 C 0.47669 0.20494 0.55519 0.0
C1056 C 0.47811 0.19323 0.52002 0.0
C1057 C 0.45652 0.21455 0.60635 0.0
C1058 C 0.46728 0.23558 0.59931 0.0
C1059 C 0.44489 0.20664 0.64698 0.0
C1060 C 0.43391 0.18465 0.65742 0.0
C1061 C 0.44423 0.17366 0.65864 0.0
C1062 C 0.43375 0.1529 0.66826 0.0
C1063 C 0.41296 0.143 0.67705 0.0
C1064 C 0.40262 0.15385 0.6764 0.0
C1065 C 0.41303 0.1746 0.66676 0.0
H1066 H 0.40487 0.12693 0.68449 0.0
H1067 H 0.50822 0.32891 0.59738 0.0
H1068 H 0.0884 0.39224 0.90833 0.0
H1069 H 0.05901 0.36912 0.86216 0.0
H1070 H 0.02127 0.35285 0.98347 0.0
H1071 H 0.05084 0.37522 0.03015 0.0
H1072 H 0.00778 0.32121 0.92891 0.0
H1073 H 0.02738 0.39161 0.90888 0.0
H1074 H 0.05076 0.42747 0.88981 0.0
H1075 H 0.05806 0.41053 0.75296 0.0
H1076 H 0.03489 0.37452 0.77146 0.0
H1077 H 0.91539 0.31062 0.84725 0.0
H1078 H 0.94735 0.31804 0.88295 0.0
H1079 H 0.97327 0.32186 0.74854 0.0
H1080 H 0.94118 0.31434 0.71241 0.0
H1081 H 0.99463 0.35623 0.80068 0.0
H1082 H 0.96807 0.28532 0.82042 0.0
H1083 H 0.94284 0.25045 0.8427 0.0
H1084 H 0.94633 0.26919 0.98363 0.0
H1085 H 0.97138 0.30426 0.96212 0.0
C1086 C 0.07389 0.38342 0.92525 0.0
C1087 C 0.07179 0.38571 0.97264 0.0
C1088 C 0.05711 0.37026 0.89885 0.0
C1089 C 0.03783 0.35966 0.91911 0.0
C1090 C 0.03597 0.36093 0.96701 0.0
C1091 C 0.05285 0.37377 0.99365 0.0
C1092 C 0.01941 0.34891 0.89006 0.0
C1093 C 0.00486 0.32885 0.90092 0.0
C1094 C 0.01575 0.35876 0.85294 0.0
C1095 C 0.02962 0.38039 0.84172 0.0
C1096 C 0.03408 0.39554 0.87483 0.0
C1097 C 0.04728 0.41588 0.86412 0.0
C1098 C 0.05594 0.42127 0.82025 0.0
C1099 C 0.05137 0.40633 0.78696 0.0
C1100 C 0.03821 0.38595 0.79753 0.0
C1101 C 0.92774 0.31259 0.82529 0.0
C1102 C 0.92587 0.3121 0.77703 0.0
C1103 C 0.94596 0.31669 0.84577 0.0
C1104 C 0.96264 0.32042 0.81838 0.0
C1105 C 0.96051 0.31893 0.77023 0.0
C1106 C 0.94219 0.31462 0.74968 0.0
C1107 C 0.98284 0.32864 0.83994 0.0
C1108 C -0.00228 0.34835 0.82786 0.0
C1109 C 0.98656 0.31858 0.8764 0.0
C1110 C 0.97154 0.29747 0.88957 0.0
C1111 C 0.96336 0.28205 0.85611 0.0
C1112 C 0.9491 0.26223 0.86862 0.0
C1113 C 0.94296 0.25761 0.91454 0.0
C1114 C 0.9511 0.27279 0.94807 0.0
C1115 C 0.96536 0.29264 0.93575 0.0
H1116 H 0.93192 0.24226 0.92415 0.0
H1117 H 0.06615 0.43703 0.81201 0.0
H1118 H 0.6216 0.94355 0.90049 0.0
H1119 H 0.64475 0.97306 0.94613 0.0
H1120 H 0.62568 0.9366 0.06972 0.0
H1121 H 0.60185 0.90729 0.02437 0.0
H1122 H 0.62291 0.968 0.08317 0.0
H1123 H 0.67554 0.95831 0.02381 0.0
H1124 H 0.6955 0.9525 0.96513 0.0
H1125 H 0.71025 0.00873 0.89941 0.0
H1126 H 0.69014 0.01475 0.95731 0.0
H1127 H 0.68404 0.05476 0.2154 0.0
H1128 H 0.67593 0.02256 0.17898 0.0
H1129 H 0.67891 0.04843 0.04495 0.0
H1130 H 0.68702 0.08059 0.08093 0.0
H1131 H 0.69337 0.02057 0.04545 0.0
H1132 H 0.63521 0.02578 0.097 0.0
H1133 H 0.61517 0.03151 0.1557 0.0
H1134 H 0.61134 0.98257 0.23689 0.0
H1135 H 0.63162 0.97674 0.1789 0.0
C1136 C 0.62265 0.94176 0.93726 0.0
C1137 C 0.60981 0.92321 0.95898 0.0
C1138 C 0.63601 0.95862 0.96334 0.0
C1139 C 0.63711 0.95708 0.01145 0.0
C1140 C 0.62508 0.93821 0.03272 0.0
C1141 C 0.61147 0.92147 0.00679 0.0
C1142 C 0.6488 0.97555 0.04 0.0
C1143 C 0.63852 0.97918 0.07559 0.0
C1144 C 0.66904 0.99044 0.02971 0.0
C1145 C 0.68121 0.98692 0.9948 0.0
C1146 C 0.68292 0.96937 0.99666 0.0
C1147 C 0.69428 0.96605 0.96356 0.0
C1148 C 0.70411 0.98022 0.92853 0.0
C1149 C 0.70263 0.99777 0.92657 0.0
C1150 C 0.69127 0.00116 0.95958 0.0
C1151 C 0.68347 0.05373 0.17813 0.0
C1152 C 0.68584 0.07008 0.15102 0.0
C1153 C 0.67885 0.03535 0.15741 0.0
C1154 C 0.6766 0.0331 0.10935 0.0
C1155 C 0.68059 0.04988 0.08208 0.0
C1156 C 0.68508 0.0682 0.10274 0.0
C1157 C 0.66734 0.01279 0.08788 0.0
C1158 C 0.67798 0.00898 0.05356 0.0
C1159 C 0.64745 0.99761 0.09935 0.0
C1160 C 0.63512 0.001 0.13396 0.0
C1161 C 0.63022 0.01635 0.12755 0.0
C1162 C 0.61881 0.0196 0.16065 0.0
C1163 C 0.61204 0.00746 0.20007 0.0
C1164 C 0.61663 0.99199 0.20639 0.0
C1165 C 0.62808 0.98871 0.17343 0.0
H1166 H 0.60321 0.00999 0.22566 0.0
H1167 H 0.7129 0.97762 0.90293 0.0
H1168 H 0.70336 0.61852 0.16771 0.0
H1169 H 0.6961 0.64151 0.21185 0.0
H1170 H 0.66403 0.64701 0.09514 0.0
H1171 H 0.67217 0.62482 0.05013 0.0
H1172 H 0.68055 0.68113 0.14371 0.0
H1173 H 0.63962 0.60964 0.17822 0.0
H1174 H 0.63409 0.57609 0.20145 0.0
H1175 H 0.66355 0.60069 0.33087 0.0
H1176 H 0.66947 0.63445 0.30812 0.0
H1177 H 0.59676 0.68314 0.24429 0.0
H1178 H 0.62132 0.67736 0.20297 0.0
H1179 H 0.65117 0.67995 0.33125 0.0
H1180 H 0.62653 0.68568 0.37302 0.0
H1181 H 0.64086 0.64576 0.28314 0.0
H1182 H 0.67535 0.71655 0.25111 0.0
H1183 H 0.67882 0.74902 0.2257 0.0
H1184 H 0.65906 0.72487 0.08975 0.0
H1185 H 0.65519 0.69214 0.11449 0.0
C1186 C 0.69528 0.62514 0.15108 0.0
C1187 C 0.68805 0.6197 0.1058 0.0
C1188 C 0.69108 0.6382 0.17635 0.0
C1189 C 0.67898 0.64547 0.15727 0.0
C1190 C 0.67328 0.64148 0.11069 0.0
C1191 C 0.6779 0.62877 0.085 0.0
C1192 C 0.67008 0.65484 0.18714 0.0
C1193 C 0.67183 0.67341 0.17416 0.0
C1194 C 0.65896 0.64492 0.22732 0.0
C1195 C 0.65518 0.62459 0.24128 0.0
C1196 C 0.64501 0.6079 0.21153 0.0
C1197 C 0.6418 0.58886 0.22461 0.0
C1198 C 0.64852 0.58627 0.26755 0.0
C1199 C 0.65839 0.60272 0.29758 0.0
C1200 C 0.66167 0.62181 0.28463 0.0
C1201 C 0.60874 0.6828 0.26368 0.0
C1202 C 0.60962 0.6847 0.31196 0.0
C1203 C 0.62286 0.67965 0.23994 0.0
C1204 C 0.63816 0.67837 0.26399 0.0
C1205 C 0.63952 0.68098 0.31204 0.0
C1206 C 0.62544 0.68424 0.33583 0.0
C1207 C 0.65112 0.67197 0.23955 0.0
C1208 C 0.64997 0.65379 0.25337 0.0
C1209 C 0.66249 0.68214 0.19989 0.0
C1210 C 0.66486 0.70183 0.18478 0.0
C1211 C 0.6716 0.7181 0.21589 0.0
C1212 C 0.67366 0.73657 0.20158 0.0
C1213 C 0.66913 0.739 0.15616 0.0
C1214 C 0.66256 0.72297 0.12493 0.0
C1215 C 0.66046 0.70446 0.13906 0.0
H1216 H 0.67074 0.75331 0.14516 0.0
H1217 H 0.64604 0.57152 0.27761 0.0
H1218 H 0.08766 0.69895 0.3496 0.0
H1219 H 0.05848 0.69363 0.3954 0.0
H1220 H 0.02039 0.67079 0.27492 0.0
H1221 H 0.04974 0.67698 0.22853 0.0
H1222 H 0.00708 0.68975 0.32894 0.0
H1223 H 0.02675 0.63895 0.35049 0.0
H1224 H 0.05033 0.62672 0.36997 0.0
H1225 H 0.05807 0.65194 0.50587 0.0
H1226 H 0.03471 0.66454 0.48694 0.0
H1227 H 0.91473 0.60884 0.41144 0.0
H1228 H 0.94658 0.63351 0.37583 0.0
H1229 H 0.97297 0.65437 0.51039 0.0
H1230 H 0.94102 0.62954 0.54644 0.0
H1231 H 0.99426 0.64217 0.45824 0.0
H1232 H 0.96761 0.68637 0.43791 0.0
H1233 H 0.94242 0.69612 0.41566 0.0
H1234 H 0.94571 0.68065 0.2748 0.0
H1235 H 0.97071 0.67052 0.29627 0.0
C1236 C 0.07314 0.69322 0.3327 0.0
C1237 C 0.07086 0.68808 0.2857 0.0
C1238 C 0.05648 0.69014 0.35891 0.0
C1239 C 0.03714 0.6813 0.33887 0.0
C1240 C 0.03513 0.67755 0.29119 0.0
C1241 C 0.0519 0.68102 0.26472 0.0
C1242 C 0.01881 0.67385 0.36816 0.0
C1243 C 0.00423 0.67932 0.35718 0.0
C1244 C 0.01525 0.66054 0.40563 0.0
C1245 C 0.0292 0.65289 0.41713 0.0
C1246 C 0.03359 0.64199 0.38442 0.0
C1247 C 0.0469 0.63499 0.39537 0.0
C1248 C 0.05574 0.63861 0.43908 0.0
C1249 C 0.05125 0.64919 0.47199 0.0
C1250 C 0.03797 0.65626 0.46118 0.0
C1251 C 0.92715 0.61899 0.43351 0.0
C1252 C 0.92545 0.61712 0.48175 0.0
C1253 C 0.94532 0.63321 0.41307 0.0
C1254 C 0.96214 0.64584 0.44044 0.0
C1255 C 0.96014 0.6448 0.48866 0.0
C1256 C 0.94188 0.63063 0.50919 0.0
C1257 C 0.98233 0.65779 0.41868 0.0
C1258 C -0.00273 0.65303 0.43086 0.0
C1259 C 0.98598 0.67143 0.38195 0.0
C1260 C 0.97098 0.67758 0.36879 0.0
C1261 C 0.96286 0.68491 0.40224 0.0
C1262 C 0.94863 0.69053 0.38975 0.0
C1263 C 0.94245 0.68898 0.34386 0.0
C1264 C 0.95051 0.68184 0.31034 0.0
C1265 C 0.96475 0.67619 0.32264 0.0
H1266 H 0.93142 0.69333 0.33426 0.0
H1267 H 0.06604 0.63317 0.4475 0.0
H1268 H 0.40482 0.07416 0.51443 0.0
H1269 H 0.38076 0.04133 0.54701 0.0
H1270 H 0.34136 0.02888 0.43009 0.0
H1271 H 0.36565 0.06185 0.39645 0.0
H1272 H 0.32317 0.01646 0.53278 0.0
H1273 H 0.36315 0.00804 0.41323 0.0
H1274 H 0.39526 0.01781 0.37304 0.0
H1275 H 0.42046 0.00967 0.49821 0.0
H1276 H 0.38858 0.00017 0.53931 0.0
H1277 H 0.3072 0.90607 0.56479 0.0
H1278 H 0.31479 0.93596 0.51925 0.0
H1279 H 0.31913 0.96883 0.64389 0.0
H1280 H 0.31118 0.93877 0.68975 0.0
H1281 H 0.3502 0.96922 0.52483 0.0
H1282 H 0.31173 0.00871 0.61846 0.0
H1283 H 0.27973 -0.00068 0.65869 0.0
H1284 H 0.24969 0.94366 0.58231 0.0
H1285 H 0.28142 0.95284 0.54114 0.0
C1286 C 0.3909 0.06466 0.49586 0.0
C1287 C 0.38724 0.0705 0.45257 0.0
C1288 C 0.37714 0.04594 0.51469 0.0
C1289 C 0.35939 0.03278 0.49084 0.0
C1290 C 0.35499 0.03897 0.44899 0.0
C1291 C 0.3689 0.05772 0.42978 0.0
C1292 C 0.34703 0.01176 0.50736 0.0
C1293 C 0.32885 0.00596 0.53079 0.0
C1294 C 0.35447 -0.00185 0.50414 0.0
C1295 C 0.37356 0.00357 0.4794 0.0
C1296 C 0.3756 0.0085 0.43225 0.0
C1297 C 0.39375 0.01396 0.4093 0.0
C1298 C 0.40991 0.0144 0.43308 0.0
C1299 C 0.40793 0.00933 0.47984 0.0
C1300 C 0.38983 0.0039 0.50297 0.0
C1301 C 0.30932 0.91951 0.58249 0.0
C1302 C 0.30885 0.92017 0.63089 0.0
C1303 C 0.31363 0.93658 0.55638 0.0
C1304 C 0.31758 0.95464 0.57811 0.0
C1305 C 0.31589 0.95498 0.62631 0.0
C1306 C 0.31144 0.93782 0.65252 0.0
C1307 C 0.32622 0.97369 0.55109 0.0
C1308 C 0.34403 0.97933 0.52609 0.0
C1309 C 0.31826 0.98698 0.5527 0.0
C1310 C 0.29903 0.98141 0.57696 0.0
C1311 C 0.29828 0.99451 0.61007 0.0
C1312 C 0.28019 0.98922 0.63308 0.0
C1313 C 0.2627 0.97088 0.62315 0.0
C1314 C 0.26326 0.95783 0.5901 0.0
C1315 C 0.28131 0.96305 0.56697 0.0
H1316 H 0.24872 0.96681 0.64102 0.0
H1317 H 0.42395 0.01863 0.41525 0.0
H1318 H 0.29902 0.39029 0.68591 0.0
H1319 H 0.30594 0.36755 0.73197 0.0
H1320 H 0.32841 0.35228 0.61076 0.0
H1321 H 0.32062 0.37431 0.56415 0.0
H1322 H 0.3105 0.32036 0.66519 0.0
H1323 H 0.36029 0.39092 0.68559 0.0
H1324 H 0.37221 0.4267 0.70457 0.0
H1325 H 0.34788 0.40956 0.84125 0.0
H1326 H 0.33559 0.37363 0.82284 0.0
H1327 H 0.39206 0.31007 0.75139 0.0
H1328 H 0.3677 0.31732 0.71397 0.0
H1329 H 0.34465 0.32146 0.84693 0.0
H1330 H 0.36903 0.31413 0.88476 0.0
H1331 H 0.35784 0.35566 0.79442 0.0
H1332 H 0.31406 0.28468 0.77448 0.0
H1333 H 0.30476 0.24982 0.7526 0.0
H1334 H 0.32077 0.26855 0.61191 0.0
H1335 H 0.33044 0.30359 0.63303 0.0
C1336 C 0.30508 0.38178 0.66897 0.0
C1337 C 0.30956 0.38425 0.62163 0.0
C1338 C 0.30907 0.36884 0.69532 0.0
C1339 C 0.31818 0.35862 0.67506 0.0
C1340 C 0.32146 0.36008 0.6272 0.0
C1341 C 0.31707 0.37272 0.60061 0.0
C1342 C 0.32609 0.34807 0.70416 0.0
C1343 C 0.32089 0.32807 0.69337 0.0
C1344 C 0.33939 0.358 0.7415 0.0
C1345 C 0.34682 0.37959 0.75267 0.0
C1346 C 0.35737 0.39478 0.71958 0.0
C1347 C 0.3642 0.41508 0.73025 0.0
C1348 C 0.36074 0.42039 0.77404 0.0
C1349 C 0.3505 0.40542 0.80731 0.0
C1350 C 0.34361 0.38509 0.79679 0.0
C1351 C 0.3815 0.31206 0.77267 0.0
C1352 C 0.38257 0.31173 0.82102 0.0
C1353 C 0.36748 0.31606 0.7512 0.0
C1354 C 0.35433 0.31986 0.77768 0.0
C1355 C 0.35464 0.31848 0.82592 0.0
C1356 C 0.36855 0.31428 0.84745 0.0
C1357 C 0.34246 0.32803 0.75517 0.0
C1358 C 0.34706 0.34772 0.76699 0.0
C1359 C 0.32896 0.31791 0.71837 0.0
C1360 C 0.3231 0.29682 0.70544 0.0
C1361 C 0.31575 0.28141 0.73893 0.0
C1362 C 0.31038 0.2616 0.72665 0.0
C1363 C 0.3122 0.25698 0.68091 0.0
C1364 C 0.31936 0.27215 0.64733 0.0
C1365 C 0.32476 0.29199 0.65944 0.0
H1366 H 0.30804 0.24164 0.67147 0.0
H1367 H 0.36605 0.43612 0.78224 0.0
loop_
_geom_bond_atom_site_label_1
_geom_bond_atom_site_label_2
_geom_bond_distance
_geom_bond_site_symmetry_2
_ccdc_geom_bond_type
C0 O1 1.306 . S
C0 O3 1.160 . S
O1 C0 1.306 . S
O1 Cd2 2.228 1_556 S
Cd2 O1 2.228 1_554 S
Cd2 O6 2.273 . S
Cd2 O10 2.277 . S
O3 C0 1.160 . S
O3 Cd4 2.203 1_556 S
Cd4 O3 2.203 1_554 S
Cd4 O6 2.411 . S
Cd4 O7 2.333 . S
Cd4 O8 2.352 1_554 S
Cd4 O12 2.277 . S
Cd4 O13 2.356 . S
C5 O10 1.209 . S
C5 O12 1.226 . S
O6 Cd2 2.273 . S
O6 Cd4 2.411 . S
O6 C9 1.320 . S
O7 Cd4 2.333 . S
O7 C9 1.214 . S
O8 Cd4 2.352 1_556 S
O8 C11 1.258 1_556 S
C9 O6 1.320 . S
C9 O7 1.214 . S
O10 Cd2 2.277 . S
O10 C5 1.209 . S
C11 O8 1.258 1_554 S
C11 O13 1.282 . S
O12 Cd4 2.277 . S
O12 C5 1.226 . S
O13 Cd4 2.356 . S
O13 C11 1.282 . S
C14 O15 1.306 . S
C14 O17 1.160 . S
O15 C14 1.306 . S
O15 Cd16 2.228 . S
Cd16 O15 2.228 . S
Cd16 O20 2.273 . S
Cd16 O24 2.277 . S
O17 C14 1.160 . S
O17 Cd18 2.203 . S
Cd18 O17 2.203 . S
Cd18 O20 2.411 . S
Cd18 O21 2.333 . S
Cd18 O22 2.352 . S
Cd18 O26 2.277 . S
Cd18 O27 2.356 . S
C19 O24 1.209 . S
C19 O26 1.226 . S
O20 Cd16 2.273 . S
O20 Cd18 2.411 . S
O20 C23 1.320 . S
O21 Cd18 2.333 . S
O21 C23 1.214 . S
O22 Cd18 2.352 . S
O22 C25 1.258 . S
C23 O20 1.320 . S
C23 O21 1.214 . S
O24 Cd16 2.277 . S
O24 C19 1.209 . S
C25 O22 1.258 . S
C25 O27 1.282 . S
O26 Cd18 2.277 . S
O26 C19 1.226 . S
O27 Cd18 2.356 . S
O27 C25 1.282 . S
C28 O29 1.306 . S
C28 O31 1.160 . S
O29 C28 1.306 . S
O29 Cd30 2.228 . S
Cd30 O29 2.228 . S
Cd30 O34 2.273 . S
Cd30 O38 2.277 . S
O31 C28 1.160 . S
O31 Cd32 2.203 . S
Cd32 O31 2.203 . S
Cd32 O34 2.411 . S
Cd32 O35 2.333 . S
Cd32 O36 2.352 . S
Cd32 O40 2.277 . S
Cd32 O41 2.356 . S
C33 O38 1.209 . S
C33 O40 1.226 . S
O34 Cd30 2.273 . S
O34 Cd32 2.411 . S
O34 C37 1.320 . S
O35 Cd32 2.333 . S
O35 C37 1.214 . S
O36 Cd32 2.352 . S
O36 C39 1.258 . S
C37 O34 1.320 . S
C37 O35 1.214 . S
O38 Cd30 2.277 . S
O38 C33 1.209 . S
C39 O36 1.258 . S
C39 O41 1.282 . S
O40 Cd32 2.277 . S
O40 C33 1.226 . S
O41 Cd32 2.356 . S
O41 C39 1.282 . S
C42 O43 1.306 . S
C42 O45 1.160 . S
O43 C42 1.306 . S
O43 Cd44 2.228 . S
Cd44 O43 2.228 . S
Cd44 O48 2.273 . S
Cd44 O52 2.277 . S
O45 C42 1.160 . S
O45 Cd46 2.203 . S
Cd46 O45 2.203 . S
Cd46 O48 2.411 . S
Cd46 O49 2.333 . S
Cd46 O50 2.352 . S
Cd46 O54 2.277 . S
Cd46 O55 2.356 . S
C47 O52 1.209 . S
C47 O54 1.226 . S
O48 Cd44 2.273 . S
O48 Cd46 2.411 . S
O48 C51 1.320 . S
O49 Cd46 2.333 . S
O49 C51 1.214 . S
O50 Cd46 2.352 . S
O50 C53 1.258 . S
C51 O48 1.320 . S
C51 O49 1.214 . S
O52 Cd44 2.277 . S
O52 C47 1.209 . S
C53 O50 1.258 . S
C53 O55 1.282 . S
O54 Cd46 2.277 . S
O54 C47 1.226 . S
O55 Cd46 2.356 . S
O55 C53 1.282 . S
C56 O57 1.306 . S
C56 O59 1.160 . S
O57 C56 1.306 . S
O57 Cd58 2.228 . S
Cd58 O57 2.228 . S
Cd58 O62 2.273 . S
Cd58 O66 2.277 . S
O59 C56 1.160 . S
O59 Cd60 2.203 . S
Cd60 O59 2.203 . S
Cd60 O62 2.411 . S
Cd60 O63 2.333 . S
Cd60 O64 2.352 . S
Cd60 O68 2.277 . S
Cd60 O69 2.356 . S
C61 O66 1.209 . S
C61 O68 1.226 . S
O62 Cd58 2.273 . S
O62 Cd60 2.411 . S
O62 C65 1.320 . S
O63 Cd60 2.333 . S
O63 C65 1.214 . S
O64 Cd60 2.352 . S
O64 C67 1.258 . S
C65 O62 1.320 . S
C65 O63 1.214 . S
O66 Cd58 2.277 . S
O66 C61 1.209 . S
C67 O64 1.258 . S
C67 O69 1.282 . S
O68 Cd60 2.277 . S
O68 C61 1.226 . S
O69 Cd60 2.356 . S
O69 C67 1.282 . S
C70 O71 1.306 . S
C70 O73 1.160 . S
O71 C70 1.306 . S
O71 Cd72 2.228 . S
Cd72 O71 2.228 . S
Cd72 O76 2.273 . S
Cd72 O80 2.277 . S
O73 C70 1.160 . S
O73 Cd74 2.203 . S
Cd74 O73 2.203 . S
Cd74 O76 2.411 . S
Cd74 O77 2.333 . S
Cd74 O78 2.352 . S
Cd74 O82 2.277 . S
Cd74 O83 2.356 . S
C75 O80 1.209 . S
C75 O82 1.226 . S
O76 Cd72 2.273 . S
O76 Cd74 2.411 . S
O76 C79 1.320 . S
O77 Cd74 2.333 . S
O77 C79 1.214 . S
O78 Cd74 2.352 . S
O78 C81 1.258 . S
C79 O76 1.320 . S
C79 O77 1.214 . S
O80 Cd72 2.277 . S
O80 C75 1.209 . S
C81 O78 1.258 . S
C81 O83 1.282 . S
O82 Cd74 2.277 . S
O82 C75 1.226 . S
O83 Cd74 2.356 . S
O83 C81 1.282 . S
C84 O85 1.306 . S
C84 O87 1.160 . S
O85 C84 1.306 . S
O85 Cd86 2.228 . S
Cd86 O85 2.228 . S
Cd86 O90 2.273 . S
Cd86 O94 2.277 . S
O87 C84 1.160 . S
O87 Cd88 2.203 . S
Cd88 O87 2.203 . S
Cd88 O90 2.411 . S
Cd88 O91 2.333 . S
Cd88 O92 2.352 . S
Cd88 O96 2.277 . S
Cd88 O97 2.356 . S
C89 O94 1.209 . S
C89 O96 1.226 . S
O90 Cd86 2.273 . S
O90 Cd88 2.411 . S
O90 C93 1.320 . S
O91 Cd88 2.333 . S
O91 C93 1.214 . S
O92 Cd88 2.352 . S
O92 C95 1.258 . S
C93 O90 1.320 . S
C93 O91 1.214 . S
O94 Cd86 2.277 . S
O94 C89 1.209 . S
C95 O92 1.258 . S
C95 O97 1.282 . S
O96 Cd88 2.277 . S
O96 C89 1.226 . S
O97 Cd88 2.356 . S
O97 C95 1.282 . S
C98 O99 1.306 . S
C98 O101 1.160 . S
O99 C98 1.306 . S
O99 Cd100 2.228 . S
Cd100 O99 2.228 . S
Cd100 O104 2.273 . S
Cd100 O108 2.277 . S
O101 C98 1.160 . S
O101 Cd102 2.203 . S
Cd102 O101 2.203 . S
Cd102 O104 2.411 . S
Cd102 O105 2.333 . S
Cd102 O106 2.352 . S
Cd102 O110 2.277 1_554 S
Cd102 O111 2.356 . S
C103 O108 1.209 1_556 S
C103 O110 1.226 . S
O104 Cd100 2.273 . S
O104 Cd102 2.411 . S
O104 C107 1.320 . S
O105 Cd102 2.333 . S
O105 C107 1.214 . S
O106 Cd102 2.352 . S
O106 C109 1.258 . S
C107 O104 1.320 . S
C107 O105 1.214 . S
O108 Cd100 2.277 . S
O108 C103 1.209 1_554 S
C109 O106 1.258 . S
C109 O111 1.282 . S
O110 Cd102 2.277 1_556 S
O110 C103 1.226 . S
O111 Cd102 2.356 . S
O111 C109 1.282 . S
C112 O113 1.306 . S
C112 O115 1.160 . S
O113 C112 1.306 . S
O113 Cd114 2.228 . S
Cd114 O113 2.228 . S
Cd114 O118 2.273 . S
Cd114 O122 2.277 . S
O115 C112 1.160 . S
O115 Cd116 2.203 . S
Cd116 O115 2.203 . S
Cd116 O118 2.411 . S
Cd116 O119 2.333 . S
Cd116 O120 2.352 . S
Cd116 O124 2.277 . S
Cd116 O125 2.356 . S
C117 O122 1.209 . S
C117 O124 1.226 . S
O118 Cd114 2.273 . S
O118 Cd116 2.411 . S
O118 C121 1.320 . S
O119 Cd116 2.333 . S
O119 C121 1.214 . S
O120 Cd116 2.352 . S
O120 C123 1.258 . S
C121 O118 1.320 . S
C121 O119 1.214 . S
O122 Cd114 2.277 . S
O122 C117 1.209 . S
C123 O120 1.258 . S
C123 O125 1.282 . S
O124 Cd116 2.277 . S
O124 C117 1.226 . S
O125 Cd116 2.356 . S
O125 C123 1.282 . S
C126 O127 1.306 . S
C126 O129 1.160 . S
O127 C126 1.306 . S
O127 Cd128 2.228 . S
Cd128 O127 2.228 . S
Cd128 O132 2.273 . S
Cd128 O136 2.277 . S
O129 C126 1.160 . S
O129 Cd130 2.203 . S
Cd130 O129 2.203 . S
Cd130 O132 2.411 . S
Cd130 O133 2.333 . S
Cd130 O134 2.352 . S
Cd130 O138 2.277 . S
Cd130 O139 2.356 . S
C131 O136 1.209 . S
C131 O138 1.226 . S
O132 Cd128 2.273 . S
O132 Cd130 2.411 . S
O132 C135 1.320 . S
O133 Cd130 2.333 . S
O133 C135 1.214 . S
O134 Cd130 2.352 . S
O134 C137 1.258 . S
C135 O132 1.320 . S
C135 O133 1.214 . S
O136 Cd128 2.277 . S
O136 C131 1.209 . S
C137 O134 1.258 . S
C137 O139 1.282 . S
O138 Cd130 2.277 . S
O138 C131 1.226 . S
O139 Cd130 2.356 . S
O139 C137 1.282 . S
C140 O141 1.306 . S
C140 O143 1.160 . S
O141 C140 1.306 . S
O141 Cd142 2.228 . S
Cd142 O141 2.228 . S
Cd142 O146 2.273 . S
Cd142 O150 2.277 . S
O143 C140 1.160 . S
O143 Cd144 2.203 . S
Cd144 O143 2.203 . S
Cd144 O146 2.411 . S
Cd144 O147 2.333 . S
Cd144 O148 2.352 . S
Cd144 O152 2.277 . S
Cd144 O153 2.356 . S
C145 O150 1.209 . S
C145 O152 1.226 . S
O146 Cd142 2.273 . S
O146 Cd144 2.411 . S
O146 C149 1.320 . S
O147 Cd144 2.333 . S
O147 C149 1.214 . S
O148 Cd144 2.352 . S
O148 C151 1.258 . S
C149 O146 1.320 . S
C149 O147 1.214 . S
O150 Cd142 2.277 . S
O150 C145 1.209 . S
C151 O148 1.258 . S
C151 O153 1.282 . S
O152 Cd144 2.277 . S
O152 C145 1.226 . S
O153 Cd144 2.356 . S
O153 C151 1.282 . S
C154 O155 1.306 . S
C154 O157 1.160 . S
O155 C154 1.306 . S
O155 Cd156 2.228 . S
Cd156 O155 2.228 . S
Cd156 O160 2.273 . S
Cd156 O164 2.277 . S
O157 C154 1.160 . S
O157 Cd158 2.203 . S
Cd158 O157 2.203 . S
Cd158 O160 2.411 . S
Cd158 O161 2.333 . S
Cd158 O162 2.352 . S
Cd158 O166 2.277 . S
Cd158 O167 2.356 . S
C159 O164 1.209 . S
C159 O166 1.226 . S
O160 Cd156 2.273 . S
O160 Cd158 2.411 . S
O160 C163 1.320 . S
O161 Cd158 2.333 . S
O161 C163 1.214 . S
O162 Cd158 2.352 . S
O162 C165 1.258 . S
C163 O160 1.320 . S
C163 O161 1.214 . S
O164 Cd156 2.277 . S
O164 C159 1.209 . S
C165 O162 1.258 . S
C165 O167 1.282 . S
O166 Cd158 2.277 . S
O166 C159 1.226 . S
O167 Cd158 2.356 . S
O167 C165 1.282 . S
H168 C186 0.951 . S
H169 C188 0.951 . S
H170 C190 0.950 . S
H171 C191 0.950 . S
H172 C193 0.950 . S
H173 C196 0.950 . S
H174 C197 0.950 . S
H175 C199 0.950 . S
H176 C200 0.950 . S
H177 C201 0.951 . S
H178 C203 0.951 . S
H179 C205 0.950 . S
H180 C206 0.950 . S
H181 C208 0.950 . S
H182 C211 0.950 . S
H183 C212 0.950 . S
H184 C214 0.950 . S
H185 C215 0.950 . S
C186 H168 0.951 . S
C186 C187 1.366 . S
C186 C188 1.388 . S
C187 C186 1.366 . S
C187 C191 1.385 . S
C188 H169 0.951 . S
C188 C186 1.388 . S
C188 C189 1.366 . S
C189 C188 1.366 . S
C189 C190 1.414 . S
C189 C192 1.499 . S
C190 H170 0.950 . S
C190 C189 1.414 . S
C190 C191 1.374 . S
C191 H171 0.950 . S
C191 C187 1.385 . S
C191 C190 1.374 . S
C192 C189 1.499 . S
C192 C193 1.373 . S
C192 C194 1.389 . S
C193 H172 0.950 . S
C193 C192 1.373 . S
C193 C209 1.377 . S
C194 C192 1.389 . S
C194 C195 1.524 . S
C194 C208 1.377 . S
C195 C194 1.524 . S
C195 C196 1.397 . S
C195 C200 1.363 . S
C196 H173 0.950 . S
C196 C195 1.397 . S
C196 C197 1.334 . S
C197 H174 0.950 . S
C197 C196 1.334 . S
C197 C198 1.287 . S
C198 C197 1.287 . S
C198 C199 1.524 . S
C198 H217 0.913 . S
C199 H175 0.950 . S
C199 C198 1.524 . S
C199 C200 1.415 . S
C200 H176 0.950 . S
C200 C195 1.363 . S
C200 C199 1.415 . S
C201 H177 0.951 . S
C201 C202 1.366 . S
C201 C203 1.388 . S
C202 C201 1.366 . S
C202 C206 1.385 . S
C203 H178 0.951 . S
C203 C201 1.388 . S
C203 C204 1.366 . S
C204 C203 1.366 . S
C204 C205 1.414 . S
C204 C207 1.499 . S
C205 H179 0.950 . S
C205 C204 1.414 . S
C205 C206 1.374 . S
C206 H180 0.950 . S
C206 C202 1.385 . S
C206 C205 1.374 . S
C207 C204 1.499 . S
C207 C208 1.373 . S
C207 C209 1.389 . S
C208 H181 0.950 . S
C208 C194 1.377 . S
C208 C207 1.373 . S
C209 C193 1.377 . S
C209 C207 1.389 . S
C209 C210 1.524 . S
C210 C209 1.524 . S
C210 C211 1.397 . S
C210 C215 1.363 . S
C211 H182 0.950 . S
C211 C210 1.397 . S
C211 C212 1.334 . S
C212 H183 0.950 . S
C212 C211 1.334 . S
C212 C213 1.287 . S
C213 C212 1.287 . S
C213 C214 1.524 . S
C213 H216 0.999 . S
C214 H184 0.950 . S
C214 C213 1.524 . S
C214 C215 1.415 . S
C215 H185 0.950 . S
C215 C210 1.363 . S
C215 C214 1.415 . S
H216 C213 0.999 . S
H217 C198 0.913 . S
H218 C236 0.951 . S
H219 C238 0.951 . S
H220 C240 0.950 . S
H221 C241 0.950 . S
H222 C243 0.950 . S
H223 C246 0.950 . S
H224 C247 0.950 . S
H225 C249 0.950 . S
H226 C250 0.950 . S
H227 C251 0.951 . S
H228 C253 0.951 . S
H229 C255 0.950 . S
H230 C256 0.950 . S
H231 C258 0.950 . S
H232 C261 0.950 . S
H233 C262 0.950 . S
H234 C264 0.950 . S
H235 C265 0.950 . S
C236 H218 0.951 . S
C236 C237 1.366 . S
C236 C238 1.388 . S
C237 C236 1.366 . S
C237 C241 1.385 . S
C238 H219 0.951 . S
C238 C236 1.388 . S
C238 C239 1.366 . S
C239 C238 1.366 . S
C239 C240 1.414 . S
C239 C242 1.499 . S
C240 H220 0.950 . S
C240 C239 1.414 . S
C240 C241 1.374 . S
C241 H221 0.950 . S
C241 C237 1.385 . S
C241 C240 1.374 . S
C242 C239 1.499 . S
C242 C243 1.373 . S
C242 C244 1.389 . S
C243 H222 0.950 . S
C243 C242 1.373 . S
C243 C259 1.377 . S
C244 C242 1.389 . S
C244 C245 1.524 . S
C244 C258 1.377 . S
C245 C244 1.524 . S
C245 C246 1.397 . S
C245 C250 1.363 . S
C246 H223 0.950 . S
C246 C245 1.397 . S
C246 C247 1.334 . S
C247 H224 0.950 . S
C247 C246 1.334 . S
C247 C248 1.287 . S
C248 C247 1.287 . S
C248 C249 1.524 . S
C248 H267 0.913 . S
C249 H225 0.950 . S
C249 C248 1.524 . S
C249 C250 1.415 . S
C250 H226 0.950 . S
C250 C245 1.363 . S
C250 C249 1.415 . S
C251 H227 0.951 . S
C251 C252 1.366 . S
C251 C253 1.388 . S
C252 C251 1.366 . S
C252 C256 1.385 . S
C253 H228 0.951 . S
C253 C251 1.388 . S
C253 C254 1.366 . S
C254 C253 1.366 . S
C254 C255 1.414 . S
C254 C257 1.499 . S
C255 H229 0.950 . S
C255 C254 1.414 . S
C255 C256 1.374 . S
C256 H230 0.950 . S
C256 C252 1.385 . S
C256 C255 1.374 . S
C257 C254 1.499 . S
C257 C258 1.373 . S
C257 C259 1.389 . S
C258 H231 0.950 . S
C258 C244 1.377 . S
C258 C257 1.373 . S
C259 C243 1.377 . S
C259 C257 1.389 . S
C259 C260 1.524 . S
C260 C259 1.524 . S
C260 C261 1.397 . S
C260 C265 1.363 . S
C261 H232 0.950 . S
C261 C260 1.397 . S
C261 C262 1.334 . S
C262 H233 0.950 . S
C262 C261 1.334 . S
C262 C263 1.287 . S
C263 C262 1.287 . S
C263 C264 1.524 . S
C263 H266 0.999 . S
C264 H234 0.950 . S
C264 C263 1.524 . S
C264 C265 1.415 . S
C265 H235 0.950 . S
C265 C260 1.363 . S
C265 C264 1.415 . S
H266 C263 0.999 . S
H267 C248 0.913 . S
H268 C286 0.951 . S
H269 C288 0.951 . S
H270 C290 0.950 . S
H271 C291 0.950 . S
H272 C293 0.950 . S
H273 C296 0.950 . S
H274 C297 0.950 . S
H275 C299 0.950 . S
H276 C300 0.950 . S
H277 C301 0.951 . S
H278 C303 0.951 . S
H279 C305 0.950 . S
H280 C306 0.950 . S
H281 C308 0.950 . S
H282 C311 0.950 . S
H283 C312 0.950 . S
H284 C314 0.950 . S
H285 C315 0.950 . S
C286 H268 0.951 . S
C286 C287 1.366 . S
C286 C288 1.388 . S
C287 C286 1.366 . S
C287 C291 1.385 . S
C288 H269 0.951 . S
C288 C286 1.388 . S
C288 C289 1.366 . S
C289 C288 1.366 . S
C289 C290 1.414 . S
C289 C292 1.499 . S
C290 H270 0.950 . S
C290 C289 1.414 . S
C290 C291 1.374 . S
C291 H271 0.950 . S
C291 C287 1.385 . S
C291 C290 1.374 . S
C292 C289 1.499 . S
C292 C293 1.373 . S
C292 C294 1.389 . S
C293 H272 0.950 . S
C293 C292 1.373 . S
C293 C309 1.377 . S
C294 C292 1.389 . S
C294 C295 1.524 . S
C294 C308 1.377 . S
C295 C294 1.524 . S
C295 C296 1.397 . S
C295 C300 1.363 . S
C296 H273 0.950 . S
C296 C295 1.397 . S
C296 C297 1.334 . S
C297 H274 0.950 . S
C297 C296 1.334 . S
C297 C298 1.287 . S
C298 C297 1.287 . S
C298 C299 1.524 . S
C298 H317 0.913 . S
C299 H275 0.950 . S
C299 C298 1.524 . S
C299 C300 1.415 . S
C300 H276 0.950 . S
C300 C295 1.363 . S
C300 C299 1.415 . S
C301 H277 0.951 . S
C301 C302 1.366 . S
C301 C303 1.388 . S
C302 C301 1.366 . S
C302 C306 1.385 . S
C303 H278 0.951 . S
C303 C301 1.388 . S
C303 C304 1.366 . S
C304 C303 1.366 . S
C304 C305 1.414 . S
C304 C307 1.499 . S
C305 H279 0.950 . S
C305 C304 1.414 . S
C305 C306 1.374 . S
C306 H280 0.950 . S
C306 C302 1.385 . S
C306 C305 1.374 . S
C307 C304 1.499 . S
C307 C308 1.373 . S
C307 C309 1.389 . S
C308 H281 0.950 . S
C308 C294 1.377 . S
C308 C307 1.373 . S
C309 C293 1.377 . S
C309 C307 1.389 . S
C309 C310 1.524 . S
C310 C309 1.524 . S
C310 C311 1.397 . S
C310 C315 1.363 . S
C311 H282 0.950 . S
C311 C310 1.397 . S
C311 C312 1.334 . S
C312 H283 0.950 . S
C312 C311 1.334 . S
C312 C313 1.287 . S
C313 C312 1.287 . S
C313 C314 1.524 . S
C313 H316 0.999 . S
C314 H284 0.950 . S
C314 C313 1.524 . S
C314 C315 1.415 . S
C315 H285 0.950 . S
C315 C310 1.363 . S
C315 C314 1.415 . S
H316 C313 0.999 . S
H317 C298 0.913 . S
H318 C336 0.951 . S
H319 C338 0.951 . S
H320 C340 0.950 . S
H321 C341 0.950 . S
H322 C343 0.950 . S
H323 C346 0.950 . S
H324 C347 0.950 . S
H325 C349 0.950 . S
H326 C350 0.950 . S
H327 C351 0.951 . S
H328 C353 0.951 . S
H329 C355 0.950 . S
H330 C356 0.950 . S
H331 C358 0.950 . S
H332 C361 0.950 . S
H333 C362 0.950 . S
H334 C364 0.950 . S
H335 C365 0.950 . S
C336 H318 0.951 . S
C336 C337 1.366 . S
C336 C338 1.388 . S
C337 C336 1.366 . S
C337 C341 1.385 . S
C338 H319 0.951 . S
C338 C336 1.388 . S
C338 C339 1.366 . S
C339 C338 1.366 . S
C339 C340 1.414 . S
C339 C342 1.499 . S
C340 H320 0.950 . S
C340 C339 1.414 . S
C340 C341 1.374 . S
C341 H321 0.950 . S
C341 C337 1.385 . S
C341 C340 1.374 . S
C342 C339 1.499 . S
C342 C343 1.373 . S
C342 C344 1.389 . S
C343 H322 0.950 . S
C343 C342 1.373 . S
C343 C359 1.377 . S
C344 C342 1.389 . S
C344 C345 1.524 . S
C344 C358 1.377 . S
C345 C344 1.524 . S
C345 C346 1.397 . S
C345 C350 1.363 . S
C346 H323 0.950 . S
C346 C345 1.397 . S
C346 C347 1.334 . S
C347 H324 0.950 . S
C347 C346 1.334 . S
C347 C348 1.287 . S
C348 C347 1.287 . S
C348 C349 1.524 . S
C348 H367 0.913 . S
C349 H325 0.950 . S
C349 C348 1.524 . S
C349 C350 1.415 . S
C350 H326 0.950 . S
C350 C345 1.363 . S
C350 C349 1.415 . S
C351 H327 0.951 . S
C351 C352 1.366 . S
C351 C353 1.388 . S
C352 C351 1.366 . S
C352 C356 1.385 . S
C353 H328 0.951 . S
C353 C351 1.388 . S
C353 C354 1.366 . S
C354 C353 1.366 . S
C354 C355 1.414 . S
C354 C357 1.499 . S
C355 H329 0.950 . S
C355 C354 1.414 . S
C355 C356 1.374 . S
C356 H330 0.950 . S
C356 C352 1.385 . S
C356 C355 1.374 . S
C357 C354 1.499 . S
C357 C358 1.373 . S
C357 C359 1.389 . S
C358 H331 0.950 . S
C358 C344 1.377 . S
C358 C357 1.373 . S
C359 C343 1.377 . S
C359 C357 1.389 . S
C359 C360 1.524 . S
C360 C359 1.524 . S
C360 C361 1.397 . S
C360 C365 1.363 . S
C361 H332 0.950 . S
C361 C360 1.397 . S
C361 C362 1.334 . S
C362 H333 0.950 . S
C362 C361 1.334 . S
C362 C363 1.287 . S
C363 C362 1.287 . S
C363 C364 1.524 . S
C363 H366 0.999 . S
C364 H334 0.950 . S
C364 C363 1.524 . S
C364 C365 1.415 . S
C365 H335 0.950 . S
C365 C360 1.363 . S
C365 C364 1.415 . S
H366 C363 0.999 . S
H367 C348 0.913 . S
H368 C386 0.951 . S
H369 C388 0.951 . S
H370 C390 0.950 . S
H371 C391 0.950 . S
H372 C393 0.950 . S
H373 C396 0.950 . S
H374 C397 0.950 . S
H375 C399 0.950 . S
H376 C400 0.950 . S
H377 C401 0.951 . S
H378 C403 0.951 . S
H379 C405 0.950 . S
H380 C406 0.950 . S
H381 C408 0.950 . S
H382 C411 0.950 . S
H383 C412 0.950 . S
H384 C414 0.950 . S
H385 C415 0.950 . S
C386 H368 0.951 . S
C386 C387 1.366 . S
C386 C388 1.388 . S
C387 C386 1.366 . S
C387 C391 1.385 . S
C388 H369 0.951 . S
C388 C386 1.388 . S
C388 C389 1.366 . S
C389 C388 1.366 . S
C389 C390 1.414 . S
C389 C392 1.499 . S
C390 H370 0.950 . S
C390 C389 1.414 . S
C390 C391 1.374 . S
C391 H371 0.950 . S
C391 C387 1.385 . S
C391 C390 1.374 . S
C392 C389 1.499 . S
C392 C393 1.373 . S
C392 C394 1.389 . S
C393 H372 0.950 . S
C393 C392 1.373 . S
C393 C409 1.377 1_556 S
C394 C392 1.389 . S
C394 C395 1.524 . S
C394 C408 1.377 . S
C395 C394 1.524 . S
C395 C396 1.397 . S
C395 C400 1.363 . S
C396 H373 0.950 . S
C396 C395 1.397 . S
C396 C397 1.334 . S
C397 H374 0.950 . S
C397 C396 1.334 . S
C397 C398 1.287 . S
C398 C397 1.287 . S
C398 C399 1.524 . S
C398 H417 0.913 . S
C399 H375 0.950 . S
C399 C398 1.524 . S
C399 C400 1.415 . S
C400 H376 0.950 . S
C400 C395 1.363 . S
C400 C399 1.415 . S
C401 H377 0.951 . S
C401 C402 1.366 . S
C401 C403 1.388 . S
C402 C401 1.366 . S
C402 C406 1.385 . S
C403 H378 0.951 . S
C403 C401 1.388 . S
C403 C404 1.366 . S
C404 C403 1.366 . S
C404 C405 1.414 . S
C404 C407 1.499 . S
C405 H379 0.950 . S
C405 C404 1.414 . S
C405 C406 1.374 . S
C406 H380 0.950 . S
C406 C402 1.385 . S
C406 C405 1.374 . S
C407 C404 1.499 . S
C407 C408 1.373 1_554 S
C407 C409 1.389 . S
C408 H381 0.950 . S
C408 C394 1.377 . S
C408 C407 1.373 1_556 S
C409 C393 1.377 1_554 S
C409 C407 1.389 . S
C409 C410 1.524 . S
C410 C409 1.524 . S
C410 C411 1.397 . S
C410 C415 1.363 . S
C411 H382 0.950 . S
C411 C410 1.397 . S
C411 C412 1.334 . S
C412 H383 0.950 . S
C412 C411 1.334 . S
C412 C413 1.287 . S
C413 C412 1.287 . S
C413 C414 1.524 . S
C413 H416 0.999 . S
C414 H384 0.950 . S
C414 C413 1.524 . S
C414 C415 1.415 . S
C415 H385 0.950 . S
C415 C410 1.363 . S
C415 C414 1.415 . S
H416 C413 0.999 . S
H417 C398 0.913 . S
H418 C436 0.951 . S
H419 C438 0.951 . S
H420 C440 0.950 . S
H421 C441 0.950 . S
H422 C443 0.950 . S
H423 C446 0.950 . S
H424 C447 0.950 . S
H425 C449 0.950 . S
H426 C450 0.950 . S
H427 C451 0.951 . S
H428 C453 0.951 . S
H429 C455 0.950 . S
H430 C456 0.950 . S
H431 C458 0.950 . S
H432 C461 0.950 . S
H433 C462 0.950 . S
H434 C464 0.950 . S
H435 C465 0.950 . S
C436 H418 0.951 . S
C436 C437 1.366 . S
C436 C438 1.388 . S
C437 C436 1.366 . S
C437 C441 1.385 . S
C438 H419 0.951 . S
C438 C436 1.388 . S
C438 C439 1.366 . S
C439 C438 1.366 . S
C439 C440 1.414 . S
C439 C442 1.499 . S
C440 H420 0.950 . S
C440 C439 1.414 . S
C440 C441 1.374 . S
C441 H421 0.950 . S
C441 C437 1.385 . S
C441 C440 1.374 . S
C442 C439 1.499 . S
C442 C443 1.373 . S
C442 C444 1.389 . S
C443 H422 0.950 . S
C443 C442 1.373 . S
C443 C459 1.377 . S
C444 C442 1.389 . S
C444 C445 1.524 . S
C444 C458 1.377 . S
C445 C444 1.524 . S
C445 C446 1.397 . S
C445 C450 1.363 . S
C446 H423 0.950 . S
C446 C445 1.397 . S
C446 C447 1.334 . S
C447 H424 0.950 . S
C447 C446 1.334 . S
C447 C448 1.287 . S
C448 C447 1.287 . S
C448 C449 1.524 . S
C448 H467 0.913 . S
C449 H425 0.950 . S
C449 C448 1.524 . S
C449 C450 1.415 . S
C450 H426 0.950 . S
C450 C445 1.363 . S
C450 C449 1.415 . S
C451 H427 0.951 . S
C451 C452 1.366 . S
C451 C453 1.388 1_556 S
C452 C451 1.366 . S
C452 C456 1.385 1_556 S
C453 H428 0.951 . S
C453 C451 1.388 1_554 S
C453 C454 1.366 . S
C454 C453 1.366 . S
C454 C455 1.414 . S
C454 C457 1.499 . S
C455 H429 0.950 . S
C455 C454 1.414 . S
C455 C456 1.374 . S
C456 H430 0.950 . S
C456 C452 1.385 1_554 S
C456 C455 1.374 . S
C457 C454 1.499 . S
C457 C458 1.373 . S
C457 C459 1.389 . S
C458 H431 0.950 . S
C458 C444 1.377 . S
C458 C457 1.373 . S
C459 C443 1.377 . S
C459 C457 1.389 . S
C459 C460 1.524 . S
C460 C459 1.524 . S
C460 C461 1.397 . S
C460 C465 1.363 . S
C461 H432 0.950 . S
C461 C460 1.397 . S
C461 C462 1.334 . S
C462 H433 0.950 . S
C462 C461 1.334 . S
C462 C463 1.287 . S
C463 C462 1.287 . S
C463 C464 1.524 . S
C463 H466 0.999 . S
C464 H434 0.950 . S
C464 C463 1.524 . S
C464 C465 1.415 . S
C465 H435 0.950 . S
C465 C460 1.363 . S
C465 C464 1.415 . S
H466 C463 0.999 . S
H467 C448 0.913 . S
H468 C486 0.951 . S
H469 C488 0.951 . S
H470 C490 0.950 . S
H471 C491 0.950 . S
H472 C493 0.950 . S
H473 C496 0.950 . S
H474 C497 0.950 . S
H475 C499 0.950 1_556 S
H476 C500 0.950 . S
H477 C501 0.951 . S
H478 C503 0.951 . S
H479 C505 0.950 . S
H480 C506 0.950 . S
H481 C508 0.950 . S
H482 C511 0.950 . S
H483 C512 0.950 . S
H484 C514 0.950 . S
H485 C515 0.950 . S
C486 H468 0.951 . S
C486 C487 1.366 . S
C486 C488 1.388 . S
C487 C486 1.366 . S
C487 C491 1.385 . S
C488 H469 0.951 . S
C488 C486 1.388 . S
C488 C489 1.366 . S
C489 C488 1.366 . S
C489 C490 1.414 . S
C489 C492 1.499 . S
C490 H470 0.950 . S
C490 C489 1.414 . S
C490 C491 1.374 . S
C491 H471 0.950 . S
C491 C487 1.385 . S
C491 C490 1.374 . S
C492 C489 1.499 . S
C492 C493 1.373 . S
C492 C494 1.389 . S
C493 H472 0.950 . S
C493 C492 1.373 . S
C493 C509 1.377 . S
C494 C492 1.389 . S
C494 C495 1.524 . S
C494 C508 1.377 . S
C495 C494 1.524 . S
C495 C496 1.397 . S
C495 C500 1.363 . S
C496 H473 0.950 . S
C496 C495 1.397 . S
C496 C497 1.334 1_554 S
C497 H474 0.950 . S
C497 C496 1.334 1_556 S
C497 C498 1.287 . S
C498 C497 1.287 . S
C498 C499 1.524 1_556 S
C498 H517 0.913 . S
C499 H475 0.950 1_554 S
C499 C498 1.524 1_554 S
C499 C500 1.415 . S
C500 H476 0.950 . S
C500 C495 1.363 . S
C500 C499 1.415 . S
C501 H477 0.951 . S
C501 C502 1.366 . S
C501 C503 1.388 . S
C502 C501 1.366 . S
C502 C506 1.385 . S
C503 H478 0.951 . S
C503 C501 1.388 . S
C503 C504 1.366 . S
C504 C503 1.366 . S
C504 C505 1.414 . S
C504 C507 1.499 . S
C505 H479 0.950 . S
C505 C504 1.414 . S
C505 C506 1.374 . S
C506 H480 0.950 . S
C506 C502 1.385 . S
C506 C505 1.374 . S
C507 C504 1.499 . S
C507 C508 1.373 . S
C507 C509 1.389 . S
C508 H481 0.950 . S
C508 C494 1.377 . S
C508 C507 1.373 . S
C509 C493 1.377 . S
C509 C507 1.389 . S
C509 C510 1.524 . S
C510 C509 1.524 . S
C510 C511 1.397 . S
C510 C515 1.363 . S
C511 H482 0.950 . S
C511 C510 1.397 . S
C511 C512 1.334 . S
C512 H483 0.950 . S
C512 C511 1.334 . S
C512 C513 1.287 . S
C513 C512 1.287 . S
C513 C514 1.524 . S
C513 H516 0.999 . S
C514 H484 0.950 . S
C514 C513 1.524 . S
C514 C515 1.415 . S
C515 H485 0.950 . S
C515 C510 1.363 . S
C515 C514 1.415 . S
H516 C513 0.999 . S
H517 C498 0.913 . S
H518 C536 0.951 . S
H519 C538 0.951 . S
H520 C540 0.950 . S
H521 C541 0.950 . S
H522 C543 0.950 . S
H523 C546 0.950 . S
H524 C547 0.950 . S
H525 C549 0.950 . S
H526 C550 0.950 . S
H527 C551 0.951 . S
H528 C553 0.951 . S
H529 C555 0.950 . S
H530 C556 0.950 . S
H531 C558 0.950 . S
H532 C561 0.950 . S
H533 C562 0.950 . S
H534 C564 0.950 . S
H535 C565 0.950 . S
C536 H518 0.951 . S
C536 C537 1.366 . S
C536 C538 1.388 . S
C537 C536 1.366 . S
C537 C541 1.385 . S
C538 H519 0.951 . S
C538 C536 1.388 . S
C538 C539 1.366 . S
C539 C538 1.366 . S
C539 C540 1.414 . S
C539 C542 1.499 . S
C540 H520 0.950 . S
C540 C539 1.414 . S
C540 C541 1.374 . S
C541 H521 0.950 . S
C541 C537 1.385 . S
C541 C540 1.374 . S
C542 C539 1.499 . S
C542 C543 1.373 . S
C542 C544 1.389 . S
C543 H522 0.950 . S
C543 C542 1.373 . S
C543 C559 1.377 . S
C544 C542 1.389 . S
C544 C545 1.524 . S
C544 C558 1.377 . S
C545 C544 1.524 . S
C545 C546 1.397 . S
C545 C550 1.363 . S
C546 H523 0.950 . S
C546 C545 1.397 . S
C546 C547 1.334 . S
C547 H524 0.950 . S
C547 C546 1.334 . S
C547 C548 1.287 . S
C548 C547 1.287 . S
C548 C549 1.524 . S
C548 H567 0.913 . S
C549 H525 0.950 . S
C549 C548 1.524 . S
C549 C550 1.415 . S
C550 H526 0.950 . S
C550 C545 1.363 . S
C550 C549 1.415 . S
C551 H527 0.951 . S
C551 C552 1.366 . S
C551 C553 1.388 . S
C552 C551 1.366 . S
C552 C556 1.385 . S
C553 H528 0.951 . S
C553 C551 1.388 . S
C553 C554 1.366 . S
C554 C553 1.366 . S
C554 C555 1.414 . S
C554 C557 1.499 . S
C555 H529 0.950 . S
C555 C554 1.414 . S
C555 C556 1.374 . S
C556 H530 0.950 . S
C556 C552 1.385 . S
C556 C555 1.374 . S
C557 C554 1.499 . S
C557 C558 1.373 . S
C557 C559 1.389 . S
C558 H531 0.950 . S
C558 C544 1.377 . S
C558 C557 1.373 . S
C559 C543 1.377 . S
C559 C557 1.389 . S
C559 C560 1.524 . S
C560 C559 1.524 . S
C560 C561 1.397 . S
C560 C565 1.363 . S
C561 H532 0.950 . S
C561 C560 1.397 . S
C561 C562 1.334 . S
C562 H533 0.950 . S
C562 C561 1.334 . S
C562 C563 1.287 . S
C563 C562 1.287 . S
C563 C564 1.524 . S
C563 H566 0.999 . S
C564 H534 0.950 . S
C564 C563 1.524 . S
C564 C565 1.415 . S
C565 H535 0.950 . S
C565 C560 1.363 . S
C565 C564 1.415 . S
H566 C563 0.999 . S
H567 C548 0.913 . S
H568 C586 0.951 . S
H569 C588 0.951 . S
H570 C590 0.950 . S
H571 C591 0.950 . S
H572 C593 0.950 . S
H573 C596 0.950 . S
H574 C597 0.950 . S
H575 C599 0.950 . S
H576 C600 0.950 . S
H577 C601 0.951 . S
H578 C603 0.951 . S
H579 C605 0.950 . S
H580 C606 0.950 . S
H581 C608 0.950 . S
H582 C611 0.950 . S
H583 C612 0.950 . S
H584 C614 0.950 . S
H585 C615 0.950 . S
C586 H568 0.951 . S
C586 C587 1.366 . S
C586 C588 1.388 . S
C587 C586 1.366 . S
C587 C591 1.385 . S
C588 H569 0.951 . S
C588 C586 1.388 . S
C588 C589 1.366 . S
C589 C588 1.366 . S
C589 C590 1.414 . S
C589 C592 1.499 . S
C590 H570 0.950 . S
C590 C589 1.414 . S
C590 C591 1.374 . S
C591 H571 0.950 . S
C591 C587 1.385 . S
C591 C590 1.374 . S
C592 C589 1.499 . S
C592 C593 1.373 . S
C592 C594 1.389 . S
C593 H572 0.950 . S
C593 C592 1.373 . S
C593 C609 1.377 . S
C594 C592 1.389 . S
C594 C595 1.524 . S
C594 C608 1.377 . S
C595 C594 1.524 . S
C595 C596 1.397 . S
C595 C600 1.363 . S
C596 H573 0.950 . S
C596 C595 1.397 . S
C596 C597 1.334 . S
C597 H574 0.950 . S
C597 C596 1.334 . S
C597 C598 1.287 . S
C598 C597 1.287 . S
C598 C599 1.524 . S
C598 H617 0.913 . S
C599 H575 0.950 . S
C599 C598 1.524 . S
C599 C600 1.415 . S
C600 H576 0.950 . S
C600 C595 1.363 . S
C600 C599 1.415 . S
C601 H577 0.951 . S
C601 C602 1.366 . S
C601 C603 1.388 . S
C602 C601 1.366 . S
C602 C606 1.385 . S
C603 H578 0.951 . S
C603 C601 1.388 . S
C603 C604 1.366 . S
C604 C603 1.366 . S
C604 C605 1.414 . S
C604 C607 1.499 . S
C605 H579 0.950 . S
C605 C604 1.414 . S
C605 C606 1.374 . S
C606 H580 0.950 . S
C606 C602 1.385 . S
C606 C605 1.374 . S
C607 C604 1.499 . S
C607 C608 1.373 . S
C607 C609 1.389 . S
C608 H581 0.950 . S
C608 C594 1.377 . S
C608 C607 1.373 . S
C609 C593 1.377 . S
C609 C607 1.389 . S
C609 C610 1.524 . S
C610 C609 1.524 . S
C610 C611 1.397 . S
C610 C615 1.363 . S
C611 H582 0.950 . S
C611 C610 1.397 . S
C611 C612 1.334 . S
C612 H583 0.950 . S
C612 C611 1.334 . S
C612 C613 1.287 . S
C613 C612 1.287 . S
C613 C614 1.524 . S
C613 H616 0.999 . S
C614 H584 0.950 . S
C614 C613 1.524 . S
C614 C615 1.415 . S
C615 H585 0.950 . S
C615 C610 1.363 . S
C615 C614 1.415 . S
H616 C613 0.999 . S
H617 C598 0.913 . S
H618 C636 0.951 . S
H619 C638 0.951 . S
H620 C640 0.950 . S
H621 C641 0.950 . S
H622 C643 0.950 . S
H623 C646 0.950 . S
H624 C647 0.950 . S
H625 C649 0.950 . S
H626 C650 0.950 . S
H627 C651 0.951 . S
H628 C653 0.951 . S
H629 C655 0.950 . S
H630 C656 0.950 . S
H631 C658 0.950 . S
H632 C661 0.950 . S
H633 C662 0.950 . S
H634 C664 0.950 . S
H635 C665 0.950 . S
C636 H618 0.951 . S
C636 C637 1.366 . S
C636 C638 1.388 . S
C637 C636 1.366 . S
C637 C641 1.385 . S
C638 H619 0.951 . S
C638 C636 1.388 . S
C638 C639 1.366 . S
C639 C638 1.366 . S
C639 C640 1.414 . S
C639 C642 1.499 . S
C640 H620 0.950 . S
C640 C639 1.414 . S
C640 C641 1.374 . S
C641 H621 0.950 . S
C641 C637 1.385 . S
C641 C640 1.374 . S
C642 C639 1.499 . S
C642 C643 1.373 . S
C642 C644 1.389 . S
C643 H622 0.950 . S
C643 C642 1.373 . S
C643 C659 1.377 . S
C644 C642 1.389 . S
C644 C645 1.524 . S
C644 C658 1.377 . S
C645 C644 1.524 . S
C645 C646 1.397 . S
C645 C650 1.363 . S
C646 H623 0.950 . S
C646 C645 1.397 . S
C646 C647 1.334 . S
C647 H624 0.950 . S
C647 C646 1.334 . S
C647 C648 1.287 . S
C648 C647 1.287 . S
C648 C649 1.524 . S
C648 H667 0.913 . S
C649 H625 0.950 . S
C649 C648 1.524 . S
C649 C650 1.415 . S
C650 H626 0.950 . S
C650 C645 1.363 . S
C650 C649 1.415 . S
C651 H627 0.951 . S
C651 C652 1.366 . S
C651 C653 1.388 . S
C652 C651 1.366 . S
C652 C656 1.385 . S
C653 H628 0.951 . S
C653 C651 1.388 . S
C653 C654 1.366 . S
C654 C653 1.366 . S
C654 C655 1.414 . S
C654 C657 1.499 . S
C655 H629 0.950 . S
C655 C654 1.414 . S
C655 C656 1.374 . S
C656 H630 0.950 . S
C656 C652 1.385 . S
C656 C655 1.374 . S
C657 C654 1.499 . S
C657 C658 1.373 . S
C657 C659 1.389 . S
C658 H631 0.950 . S
C658 C644 1.377 . S
C658 C657 1.373 . S
C659 C643 1.377 . S
C659 C657 1.389 . S
C659 C660 1.524 . S
C660 C659 1.524 . S
C660 C661 1.397 . S
C660 C665 1.363 . S
C661 H632 0.950 . S
C661 C660 1.397 . S
C661 C662 1.334 . S
C662 H633 0.950 . S
C662 C661 1.334 . S
C662 C663 1.287 . S
C663 C662 1.287 . S
C663 C664 1.524 . S
C663 H666 0.999 . S
C664 H634 0.950 . S
C664 C663 1.524 . S
C664 C665 1.415 . S
C665 H635 0.950 . S
C665 C660 1.363 . S
C665 C664 1.415 . S
H666 C663 0.999 . S
H667 C648 0.913 . S
H668 C686 0.951 . S
H669 C688 0.951 . S
H670 C690 0.950 . S
H671 C691 0.950 . S
H672 C693 0.950 . S
H673 C696 0.950 . S
H674 C697 0.950 . S
H675 C699 0.950 . S
H676 C700 0.950 . S
H677 C701 0.951 . S
H678 C703 0.951 . S
H679 C705 0.950 . S
H680 C706 0.950 . S
H681 C708 0.950 . S
H682 C711 0.950 . S
H683 C712 0.950 . S
H684 C714 0.950 . S
H685 C715 0.950 . S
C686 H668 0.951 . S
C686 C687 1.366 . S
C686 C688 1.388 . S
C687 C686 1.366 . S
C687 C691 1.385 . S
C688 H669 0.951 . S
C688 C686 1.388 . S
C688 C689 1.366 . S
C689 C688 1.366 . S
C689 C690 1.414 . S
C689 C692 1.499 . S
C690 H670 0.950 . S
C690 C689 1.414 . S
C690 C691 1.374 . S
C691 H671 0.950 . S
C691 C687 1.385 . S
C691 C690 1.374 . S
C692 C689 1.499 . S
C692 C693 1.373 . S
C692 C694 1.389 . S
C693 H672 0.950 . S
C693 C692 1.373 . S
C693 C709 1.377 . S
C694 C692 1.389 . S
C694 C695 1.524 . S
C694 C708 1.377 . S
C695 C694 1.524 . S
C695 C696 1.397 . S
C695 C700 1.363 . S
C696 H673 0.950 . S
C696 C695 1.397 . S
C696 C697 1.334 . S
C697 H674 0.950 . S
C697 C696 1.334 . S
C697 C698 1.287 . S
C698 C697 1.287 . S
C698 C699 1.524 . S
C698 H717 0.913 . S
C699 H675 0.950 . S
C699 C698 1.524 . S
C699 C700 1.415 . S
C700 H676 0.950 . S
C700 C695 1.363 . S
C700 C699 1.415 . S
C701 H677 0.951 . S
C701 C702 1.366 . S
C701 C703 1.388 . S
C702 C701 1.366 . S
C702 C706 1.385 . S
C703 H678 0.951 . S
C703 C701 1.388 . S
C703 C704 1.366 . S
C704 C703 1.366 . S
C704 C705 1.414 . S
C704 C707 1.499 . S
C705 H679 0.950 . S
C705 C704 1.414 . S
C705 C706 1.374 . S
C706 H680 0.950 . S
C706 C702 1.385 . S
C706 C705 1.374 . S
C707 C704 1.499 . S
C707 C708 1.373 . S
C707 C709 1.389 . S
C708 H681 0.950 . S
C708 C694 1.377 . S
C708 C707 1.373 . S
C709 C693 1.377 . S
C709 C707 1.389 . S
C709 C710 1.524 . S
C710 C709 1.524 . S
C710 C711 1.397 . S
C710 C715 1.363 . S
C711 H682 0.950 . S
C711 C710 1.397 . S
C711 C712 1.334 . S
C712 H683 0.950 . S
C712 C711 1.334 . S
C712 C713 1.287 . S
C713 C712 1.287 . S
C713 C714 1.524 . S
C713 H716 0.999 1_556 S
C714 H684 0.950 . S
C714 C713 1.524 . S
C714 C715 1.415 . S
C715 H685 0.950 . S
C715 C710 1.363 . S
C715 C714 1.415 . S
H716 C713 0.999 1_554 S
H717 C698 0.913 . S
H718 C736 0.951 . S
H719 C738 0.951 . S
H720 C740 0.950 . S
H721 C741 0.950 . S
H722 C743 0.950 . S
H723 C746 0.950 . S
H724 C747 0.950 . S
H725 C749 0.950 . S
H726 C750 0.950 . S
H727 C751 0.951 . S
H728 C753 0.951 . S
H729 C755 0.950 . S
H730 C756 0.950 . S
H731 C758 0.950 1_554 S
H732 C761 0.950 . S
H733 C762 0.950 . S
H734 C764 0.950 . S
H735 C765 0.950 . S
C736 H718 0.951 . S
C736 C737 1.366 . S
C736 C738 1.388 . S
C737 C736 1.366 . S
C737 C741 1.385 . S
C738 H719 0.951 . S
C738 C736 1.388 . S
C738 C739 1.366 . S
C739 C738 1.366 . S
C739 C740 1.414 . S
C739 C742 1.499 . S
C740 H720 0.950 . S
C740 C739 1.414 . S
C740 C741 1.374 . S
C741 H721 0.950 . S
C741 C737 1.385 . S
C741 C740 1.374 . S
C742 C739 1.499 . S
C742 C743 1.373 . S
C742 C744 1.389 . S
C743 H722 0.950 . S
C743 C742 1.373 . S
C743 C759 1.377 . S
C744 C742 1.389 . S
C744 C745 1.517 1_556 S
C744 C758 1.377 . S
C745 C744 1.517 1_554 S
C745 C746 1.409 . S
C745 C750 1.360 1_554 S
C746 H723 0.950 . S
C746 C745 1.409 . S
C746 C747 1.334 . S
C747 H724 0.950 . S
C747 C746 1.334 . S
C747 C748 1.287 . S
C748 C747 1.287 . S
C748 C749 1.524 . S
C748 H767 0.913 . S
C749 H725 0.950 . S
C749 C748 1.524 . S
C749 C750 1.415 1_554 S
C750 H726 0.950 . S
C750 C745 1.360 1_556 S
C750 C749 1.415 1_556 S
C751 H727 0.951 . S
C751 C752 1.366 . S
C751 C753 1.388 . S
C752 C751 1.366 . S
C752 C756 1.385 1_554 S
C753 H728 0.951 . S
C753 C751 1.388 . S
C753 C754 1.366 1_554 S
C754 C753 1.366 1_556 S
C754 C755 1.414 . S
C754 C757 1.499 . S
C755 H729 0.950 . S
C755 C754 1.414 . S
C755 C756 1.374 . S
C756 H730 0.950 . S
C756 C752 1.385 1_556 S
C756 C755 1.374 . S
C757 C754 1.499 . S
C757 C758 1.373 . S
C757 C759 1.389 . S
C758 H731 0.950 1_556 S
C758 C744 1.377 . S
C758 C757 1.373 . S
C759 C743 1.377 . S
C759 C757 1.389 . S
C759 C760 1.524 . S
C760 C759 1.524 . S
C760 C761 1.397 . S
C760 C765 1.363 . S
C761 H732 0.950 . S
C761 C760 1.397 . S
C761 C762 1.334 . S
C762 H733 0.950 . S
C762 C761 1.334 . S
C762 C763 1.287 . S
C763 C762 1.287 . S
C763 C764 1.524 . S
C763 H766 0.999 . S
C764 H734 0.950 . S
C764 C763 1.524 . S
C764 C765 1.415 . S
C765 H735 0.950 . S
C765 C760 1.363 . S
C765 C764 1.415 . S
H766 C763 0.999 . S
H767 C748 0.913 . S
H768 C786 0.951 . S
H769 C788 0.951 . S
H770 C790 0.950 . S
H771 C791 0.950 . S
H772 C793 0.950 . S
H773 C796 0.950 . S
H774 C797 0.950 . S
H775 C799 0.950 . S
H776 C800 0.950 . S
H777 C801 0.951 . S
H778 C803 0.951 . S
H779 C805 0.950 . S
H780 C806 0.950 . S
H781 C808 0.950 . S
H782 C811 0.950 . S
H783 C812 0.950 . S
H784 C814 0.950 . S
H785 C815 0.950 . S
C786 H768 0.951 . S
C786 C787 1.366 . S
C786 C788 1.388 . S
C787 C786 1.366 . S
C787 C791 1.385 . S
C788 H769 0.951 . S
C788 C786 1.388 . S
C788 C789 1.366 . S
C789 C788 1.366 . S
C789 C790 1.414 . S
C789 C792 1.499 . S
C790 H770 0.950 . S
C790 C789 1.414 . S
C790 C791 1.374 . S
C791 H771 0.950 . S
C791 C787 1.385 . S
C791 C790 1.374 . S
C792 C789 1.499 . S
C792 C793 1.373 . S
C792 C794 1.389 . S
C793 H772 0.950 . S
C793 C792 1.373 . S
C793 C809 1.377 . S
C794 C792 1.389 . S
C794 C795 1.524 . S
C794 C808 1.377 . S
C795 C794 1.524 . S
C795 C796 1.397 . S
C795 C800 1.363 . S
C796 H773 0.950 . S
C796 C795 1.397 . S
C796 C797 1.334 . S
C797 H774 0.950 . S
C797 C796 1.334 . S
C797 C798 1.287 . S
C798 C797 1.287 . S
C798 C799 1.524 . S
C798 H817 0.913 . S
C799 H775 0.950 . S
C799 C798 1.524 . S
C799 C800 1.415 . S
C800 H776 0.950 . S
C800 C795 1.363 . S
C800 C799 1.415 . S
C801 H777 0.951 . S
C801 C802 1.366 . S
C801 C803 1.388 . S
C802 C801 1.366 . S
C802 C806 1.385 . S
C803 H778 0.951 . S
C803 C801 1.388 . S
C803 C804 1.366 . S
C804 C803 1.366 . S
C804 C805 1.414 . S
C804 C807 1.499 . S
C805 H779 0.950 . S
C805 C804 1.414 . S
C805 C806 1.374 . S
C806 H780 0.950 . S
C806 C802 1.385 . S
C806 C805 1.374 . S
C807 C804 1.499 . S
C807 C808 1.373 . S
C807 C809 1.389 . S
C808 H781 0.950 . S
C808 C794 1.377 . S
C808 C807 1.373 . S
C809 C793 1.377 . S
C809 C807 1.389 . S
C809 C810 1.524 . S
C810 C809 1.524 . S
C810 C811 1.397 . S
C810 C815 1.363 . S
C811 H782 0.950 . S
C811 C810 1.397 . S
C811 C812 1.334 . S
C812 H783 0.950 . S
C812 C811 1.334 . S
C812 C813 1.287 . S
C813 C812 1.287 . S
C813 C814 1.524 . S
C813 H816 0.999 . S
C814 H784 0.950 . S
C814 C813 1.524 . S
C814 C815 1.415 . S
C815 H785 0.950 . S
C815 C810 1.363 . S
C815 C814 1.415 . S
H816 C813 0.999 . S
H817 C798 0.913 . S
H818 C836 0.951 . S
H819 C838 0.951 . S
H820 C840 0.950 . S
H821 C841 0.950 . S
H822 C843 0.950 . S
H823 C846 0.950 . S
H824 C847 0.950 . S
H825 C849 0.950 . S
H826 C850 0.950 . S
H827 C851 0.951 . S
H828 C853 0.951 . S
H829 C855 0.950 . S
H830 C856 0.950 . S
H831 C858 0.950 . S
H832 C861 0.950 . S
H833 C862 0.950 . S
H834 C864 0.950 . S
H835 C865 0.950 . S
C836 H818 0.951 . S
C836 C837 1.366 . S
C836 C838 1.388 . S
C837 C836 1.366 . S
C837 C841 1.385 . S
C838 H819 0.951 . S
C838 C836 1.388 . S
C838 C839 1.366 . S
C839 C838 1.366 . S
C839 C840 1.414 . S
C839 C842 1.499 . S
C840 H820 0.950 . S
C840 C839 1.414 . S
C840 C841 1.374 . S
C841 H821 0.950 . S
C841 C837 1.385 . S
C841 C840 1.374 . S
C842 C839 1.499 . S
C842 C843 1.373 . S
C842 C844 1.389 1_554 S
C843 H822 0.950 . S
C843 C842 1.373 . S
C843 C859 1.377 1_554 S
C844 C842 1.389 1_556 S
C844 C845 1.524 . S
C844 C858 1.377 . S
C845 C844 1.524 . S
C845 C846 1.397 . S
C845 C850 1.363 . S
C846 H823 0.950 . S
C846 C845 1.397 . S
C846 C847 1.334 . S
C847 H824 0.950 . S
C847 C846 1.334 . S
C847 C848 1.287 . S
C848 C847 1.287 . S
C848 C849 1.524 . S
C848 H867 0.913 . S
C849 H825 0.950 . S
C849 C848 1.524 . S
C849 C850 1.415 . S
C850 H826 0.950 . S
C850 C845 1.363 . S
C850 C849 1.415 . S
C851 H827 0.951 . S
C851 C852 1.366 . S
C851 C853 1.388 . S
C852 C851 1.366 . S
C852 C856 1.385 . S
C853 H828 0.951 . S
C853 C851 1.388 . S
C853 C854 1.366 . S
C854 C853 1.366 . S
C854 C855 1.414 . S
C854 C857 1.499 . S
C855 H829 0.950 . S
C855 C854 1.414 . S
C855 C856 1.374 . S
C856 H830 0.950 . S
C856 C852 1.385 . S
C856 C855 1.374 . S
C857 C854 1.499 . S
C857 C858 1.373 . S
C857 C859 1.389 . S
C858 H831 0.950 . S
C858 C844 1.377 . S
C858 C857 1.373 . S
C859 C843 1.377 1_556 S
C859 C857 1.389 . S
C859 C860 1.524 . S
C860 C859 1.524 . S
C860 C861 1.397 . S
C860 C865 1.363 1_556 S
C861 H832 0.950 . S
C861 C860 1.397 . S
C861 C862 1.334 . S
C862 H833 0.950 . S
C862 C861 1.334 . S
C862 C863 1.287 1_556 S
C863 C862 1.287 1_554 S
C863 C864 1.524 . S
C863 H866 0.999 . S
C864 H834 0.950 . S
C864 C863 1.524 . S
C864 C865 1.415 . S
C865 H835 0.950 . S
C865 C860 1.363 1_554 S
C865 C864 1.415 . S
H866 C863 0.999 . S
H867 C848 0.913 . S
H868 C886 0.951 . S
H869 C888 0.951 . S
H870 C890 0.950 . S
H871 C891 0.950 . S
H872 C893 0.950 . S
H873 C896 0.950 . S
H874 C897 0.950 . S
H875 C899 0.950 . S
H876 C900 0.950 . S
H877 C901 0.951 . S
H878 C903 0.951 . S
H879 C905 0.950 . S
H880 C906 0.950 . S
H881 C908 0.950 . S
H882 C911 0.950 . S
H883 C912 0.950 . S
H884 C914 0.950 1_556 S
H885 C915 0.950 . S
C886 H868 0.951 . S
C886 C887 1.366 . S
C886 C888 1.388 . S
C887 C886 1.366 . S
C887 C891 1.385 . S
C888 H869 0.951 . S
C888 C886 1.388 . S
C888 C889 1.366 . S
C889 C888 1.366 . S
C889 C890 1.414 . S
C889 C892 1.499 . S
C890 H870 0.950 . S
C890 C889 1.414 . S
C890 C891 1.374 . S
C891 H871 0.950 . S
C891 C887 1.385 . S
C891 C890 1.374 . S
C892 C889 1.499 . S
C892 C893 1.373 . S
C892 C894 1.389 . S
C893 H872 0.950 . S
C893 C892 1.373 . S
C893 C909 1.377 . S
C894 C892 1.389 . S
C894 C895 1.524 . S
C894 C908 1.377 . S
C895 C894 1.524 . S
C895 C896 1.397 . S
C895 C900 1.363 . S
C896 H873 0.950 . S
C896 C895 1.397 . S
C896 C897 1.334 . S
C897 H874 0.950 . S
C897 C896 1.334 . S
C897 C898 1.287 . S
C898 C897 1.287 . S
C898 C899 1.524 . S
C898 H917 0.913 . S
C899 H875 0.950 . S
C899 C898 1.524 . S
C899 C900 1.415 . S
C900 H876 0.950 . S
C900 C895 1.363 . S
C900 C899 1.415 . S
C901 H877 0.951 . S
C901 C902 1.366 . S
C901 C903 1.388 1_556 S
C902 C901 1.366 . S
C902 C906 1.385 1_556 S
C903 H878 0.951 . S
C903 C901 1.388 1_554 S
C903 C904 1.366 . S
C904 C903 1.366 . S
C904 C905 1.414 . S
C904 C907 1.499 . S
C905 H879 0.950 . S
C905 C904 1.414 . S
C905 C906 1.374 . S
C906 H880 0.950 . S
C906 C902 1.385 1_554 S
C906 C905 1.374 . S
C907 C904 1.499 . S
C907 C908 1.373 . S
C907 C909 1.389 . S
C908 H881 0.950 . S
C908 C894 1.377 . S
C908 C907 1.373 . S
C909 C893 1.377 . S
C909 C907 1.389 . S
C909 C910 1.524 . S
C910 C909 1.524 . S
C910 C911 1.397 . S
C910 C915 1.363 . S
C911 H882 0.950 . S
C911 C910 1.397 . S
C911 C912 1.334 . S
C912 H883 0.950 . S
C912 C911 1.334 . S
C912 C913 1.287 . S
C913 C912 1.287 . S
C913 C914 1.524 . S
C913 H916 0.999 1_554 S
C914 H884 0.950 1_554 S
C914 C913 1.524 . S
C914 C915 1.415 . S
C915 H885 0.950 . S
C915 C910 1.363 . S
C915 C914 1.415 . S
H916 C913 0.999 1_556 S
H917 C898 0.913 . S
H918 C936 0.951 . S
H919 C938 0.951 . S
H920 C940 0.950 . S
H921 C941 0.950 . S
H922 C943 0.950 . S
H923 C946 0.950 . S
H924 C947 0.950 . S
H925 C949 0.950 . S
H926 C950 0.950 . S
H927 C951 0.951 . S
H928 C953 0.951 . S
H929 C955 0.950 . S
H930 C956 0.950 . S
H931 C958 0.950 . S
H932 C961 0.950 . S
H933 C962 0.950 . S
H934 C964 0.950 . S
H935 C965 0.950 . S
C936 H918 0.951 . S
C936 C937 1.366 . S
C936 C938 1.388 . S
C937 C936 1.366 . S
C937 C941 1.385 . S
C938 H919 0.951 . S
C938 C936 1.388 . S
C938 C939 1.366 . S
C939 C938 1.366 . S
C939 C940 1.414 . S
C939 C942 1.499 . S
C940 H920 0.950 . S
C940 C939 1.414 . S
C940 C941 1.374 . S
C941 H921 0.950 . S
C941 C937 1.385 . S
C941 C940 1.374 . S
C942 C939 1.499 . S
C942 C943 1.373 . S
C942 C944 1.389 . S
C943 H922 0.950 . S
C943 C942 1.373 . S
C943 C959 1.377 . S
C944 C942 1.389 . S
C944 C945 1.524 . S
C944 C958 1.377 . S
C945 C944 1.524 . S
C945 C946 1.397 . S
C945 C950 1.363 . S
C946 H923 0.950 . S
C946 C945 1.397 . S
C946 C947 1.334 . S
C947 H924 0.950 . S
C947 C946 1.334 . S
C947 C948 1.287 . S
C948 C947 1.287 . S
C948 C949 1.524 . S
C948 H967 0.913 . S
C949 H925 0.950 . S
C949 C948 1.524 . S
C949 C950 1.415 . S
C950 H926 0.950 . S
C950 C945 1.363 . S
C950 C949 1.415 . S
C951 H927 0.951 . S
C951 C952 1.366 . S
C951 C953 1.388 . S
C952 C951 1.366 . S
C952 C956 1.385 . S
C953 H928 0.951 . S
C953 C951 1.388 . S
C953 C954 1.366 . S
C954 C953 1.366 . S
C954 C955 1.414 . S
C954 C957 1.499 . S
C955 H929 0.950 . S
C955 C954 1.414 . S
C955 C956 1.374 . S
C956 H930 0.950 . S
C956 C952 1.385 . S
C956 C955 1.374 . S
C957 C954 1.499 . S
C957 C958 1.373 . S
C957 C959 1.389 . S
C958 H931 0.950 . S
C958 C944 1.377 . S
C958 C957 1.373 . S
C959 C943 1.377 . S
C959 C957 1.389 . S
C959 C960 1.524 . S
C960 C959 1.524 . S
C960 C961 1.397 . S
C960 C965 1.363 . S
C961 H932 0.950 . S
C961 C960 1.397 . S
C961 C962 1.334 . S
C962 H933 0.950 . S
C962 C961 1.334 . S
C962 C963 1.287 . S
C963 C962 1.287 . S
C963 C964 1.524 . S
C963 H966 0.999 . S
C964 H934 0.950 . S
C964 C963 1.524 . S
C964 C965 1.415 . S
C965 H935 0.950 . S
C965 C960 1.363 . S
C965 C964 1.415 . S
H966 C963 0.999 . S
H967 C948 0.913 . S
H968 C986 0.951 . S
H969 C988 0.951 . S
H970 C990 0.950 . S
H971 C991 0.950 . S
H972 C993 0.950 . S
H973 C996 0.950 . S
H974 C997 0.950 . S
H975 C999 0.950 . S
H976 C1000 0.950 . S
H977 C1001 0.951 . S
H978 C1003 0.951 . S
H979 C1005 0.950 . S
H980 C1006 0.950 . S
H981 C1008 0.950 . S
H982 C1011 0.950 . S
H983 C1012 0.950 . S
H984 C1014 0.950 . S
H985 C1015 0.950 . S
C986 H968 0.951 . S
C986 C987 1.366 . S
C986 C988 1.388 . S
C987 C986 1.366 . S
C987 C991 1.385 . S
C988 H969 0.951 . S
C988 C986 1.388 . S
C988 C989 1.366 . S
C989 C988 1.366 . S
C989 C990 1.414 . S
C989 C992 1.499 . S
C990 H970 0.950 . S
C990 C989 1.414 . S
C990 C991 1.374 . S
C991 H971 0.950 . S
C991 C987 1.385 . S
C991 C990 1.374 . S
C992 C989 1.499 . S
C992 C993 1.373 . S
C992 C994 1.389 . S
C993 H972 0.950 . S
C993 C992 1.373 . S
C993 C1009 1.377 . S
C994 C992 1.389 . S
C994 C995 1.524 . S
C994 C1008 1.377 . S
C995 C994 1.524 . S
C995 C996 1.397 . S
C995 C1000 1.363 . S
C996 H973 0.950 . S
C996 C995 1.397 . S
C996 C997 1.334 . S
C997 H974 0.950 . S
C997 C996 1.334 . S
C997 C998 1.287 . S
C998 C997 1.287 . S
C998 C999 1.524 . S
C998 H1017 0.913 . S
C999 H975 0.950 . S
C999 C998 1.524 . S
C999 C1000 1.415 . S
C1000 H976 0.950 . S
C1000 C995 1.363 . S
C1000 C999 1.415 . S
C1001 H977 0.951 . S
C1001 C1002 1.366 . S
C1001 C1003 1.388 . S
C1002 C1001 1.366 . S
C1002 C1006 1.385 . S
C1003 H978 0.951 . S
C1003 C1001 1.388 . S
C1003 C1004 1.366 . S
C1004 C1003 1.366 . S
C1004 C1005 1.414 . S
C1004 C1007 1.499 . S
C1005 H979 0.950 . S
C1005 C1004 1.414 . S
C1005 C1006 1.374 . S
C1006 H980 0.950 . S
C1006 C1002 1.385 . S
C1006 C1005 1.374 . S
C1007 C1004 1.499 . S
C1007 C1008 1.373 . S
C1007 C1009 1.389 . S
C1008 H981 0.950 . S
C1008 C994 1.377 . S
C1008 C1007 1.373 . S
C1009 C993 1.377 . S
C1009 C1007 1.389 . S
C1009 C1010 1.524 . S
C1010 C1009 1.524 . S
C1010 C1011 1.397 . S
C1010 C1015 1.363 . S
C1011 H982 0.950 . S
C1011 C1010 1.397 . S
C1011 C1012 1.334 . S
C1012 H983 0.950 . S
C1012 C1011 1.334 . S
C1012 C1013 1.287 . S
C1013 C1012 1.287 . S
C1013 C1014 1.524 . S
C1013 H1016 0.999 . S
C1014 H984 0.950 . S
C1014 C1013 1.524 . S
C1014 C1015 1.415 . S
C1015 H985 0.950 . S
C1015 C1010 1.363 . S
C1015 C1014 1.415 . S
H1016 C1013 0.999 . S
H1017 C998 0.913 . S
H1018 C1036 0.951 . S
H1019 C1038 0.951 . S
H1020 C1040 0.950 . S
H1021 C1041 0.950 . S
H1022 C1043 0.950 . S
H1023 C1046 0.950 . S
H1024 C1047 0.950 . S
H1025 C1049 0.950 . S
H1026 C1050 0.950 . S
H1027 C1051 0.951 . S
H1028 C1053 0.951 . S
H1029 C1055 0.950 . S
H1030 C1056 0.950 . S
H1031 C1058 0.950 . S
H1032 C1061 0.950 . S
H1033 C1062 0.950 . S
H1034 C1064 0.950 . S
H1035 C1065 0.950 . S
C1036 H1018 0.951 . S
C1036 C1037 1.366 . S
C1036 C1038 1.388 . S
C1037 C1036 1.366 . S
C1037 C1041 1.385 . S
C1038 H1019 0.951 . S
C1038 C1036 1.388 . S
C1038 C1039 1.366 . S
C1039 C1038 1.366 . S
C1039 C1040 1.414 . S
C1039 C1042 1.499 . S
C1040 H1020 0.950 . S
C1040 C1039 1.414 . S
C1040 C1041 1.374 . S
C1041 H1021 0.950 . S
C1041 C1037 1.385 . S
C1041 C1040 1.374 . S
C1042 C1039 1.499 . S
C1042 C1043 1.373 . S
C1042 C1044 1.389 . S
C1043 H1022 0.950 . S
C1043 C1042 1.373 . S
C1043 C1059 1.377 . S
C1044 C1042 1.389 . S
C1044 C1045 1.524 . S
C1044 C1058 1.377 . S
C1045 C1044 1.524 . S
C1045 C1046 1.397 . S
C1045 C1050 1.363 . S
C1046 H1023 0.950 . S
C1046 C1045 1.397 . S
C1046 C1047 1.334 . S
C1047 H1024 0.950 . S
C1047 C1046 1.334 . S
C1047 C1048 1.287 . S
C1048 C1047 1.287 . S
C1048 C1049 1.524 . S
C1048 H1067 0.913 . S
C1049 H1025 0.950 . S
C1049 C1048 1.524 . S
C1049 C1050 1.415 . S
C1050 H1026 0.950 . S
C1050 C1045 1.363 . S
C1050 C1049 1.415 . S
C1051 H1027 0.951 . S
C1051 C1052 1.366 . S
C1051 C1053 1.388 . S
C1052 C1051 1.366 . S
C1052 C1056 1.385 . S
C1053 H1028 0.951 . S
C1053 C1051 1.388 . S
C1053 C1054 1.366 . S
C1054 C1053 1.366 . S
C1054 C1055 1.414 . S
C1054 C1057 1.499 . S
C1055 H1029 0.950 . S
C1055 C1054 1.414 . S
C1055 C1056 1.374 . S
C1056 H1030 0.950 . S
C1056 C1052 1.385 . S
C1056 C1055 1.374 . S
C1057 C1054 1.499 . S
C1057 C1058 1.373 . S
C1057 C1059 1.389 . S
C1058 H1031 0.950 . S
C1058 C1044 1.377 . S
C1058 C1057 1.373 . S
C1059 C1043 1.377 . S
C1059 C1057 1.389 . S
C1059 C1060 1.524 . S
C1060 C1059 1.524 . S
C1060 C1061 1.397 . S
C1060 C1065 1.363 . S
C1061 H1032 0.950 . S
C1061 C1060 1.397 . S
C1061 C1062 1.334 . S
C1062 H1033 0.950 . S
C1062 C1061 1.334 . S
C1062 C1063 1.287 . S
C1063 C1062 1.287 . S
C1063 C1064 1.524 . S
C1063 H1066 0.999 . S
C1064 H1034 0.950 . S
C1064 C1063 1.524 . S
C1064 C1065 1.415 . S
C1065 H1035 0.950 . S
C1065 C1060 1.363 . S
C1065 C1064 1.415 . S
H1066 C1063 0.999 . S
H1067 C1048 0.913 . S
H1068 C1086 0.951 . S
H1069 C1088 0.951 . S
H1070 C1090 0.950 . S
H1071 C1091 0.950 1_554 S
H1072 C1093 0.946 . S
H1073 C1096 0.950 . S
H1074 C1097 0.950 . S
H1075 C1099 0.950 . S
H1076 C1100 0.950 . S
H1077 C1101 0.951 . S
H1078 C1103 0.951 . S
H1079 C1105 0.950 . S
H1080 C1106 0.950 . S
H1081 C1108 0.946 . S
H1082 C1111 0.950 . S
H1083 C1112 0.950 . S
H1084 C1114 0.950 1_554 S
H1085 C1115 0.950 . S
C1086 H1068 0.951 . S
C1086 C1087 1.366 . S
C1086 C1088 1.388 . S
C1087 C1086 1.366 . S
C1087 C1091 1.385 . S
C1088 H1069 0.951 . S
C1088 C1086 1.388 . S
C1088 C1089 1.366 . S
C1089 C1088 1.366 . S
C1089 C1090 1.414 . S
C1089 C1092 1.499 . S
C1090 H1070 0.950 . S
C1090 C1089 1.414 . S
C1090 C1091 1.374 . S
C1091 H1071 0.950 1_556 S
C1091 C1087 1.385 . S
C1091 C1090 1.374 . S
C1092 C1089 1.499 . S
C1092 C1093 1.414 . S
C1092 C1094 1.389 . S
C1093 H1072 0.946 . S
C1093 C1092 1.414 . S
C1093 C1109 1.342 1_455 S
C1094 C1092 1.389 . S
C1094 C1095 1.524 . S
C1094 C1108 1.342 1_455 S
C1095 C1094 1.524 . S
C1095 C1096 1.397 . S
C1095 C1100 1.363 . S
C1096 H1073 0.950 . S
C1096 C1095 1.397 . S
C1096 C1097 1.334 . S
C1097 H1074 0.950 . S
C1097 C1096 1.334 . S
C1097 C1098 1.287 . S
C1098 C1097 1.287 . S
C1098 C1099 1.524 . S
C1098 H1117 0.913 . S
C1099 H1075 0.950 . S
C1099 C1098 1.524 . S
C1099 C1100 1.415 . S
C1100 H1076 0.950 . S
C1100 C1095 1.363 . S
C1100 C1099 1.415 . S
C1101 H1077 0.951 . S
C1101 C1102 1.366 . S
C1101 C1103 1.388 . S
C1102 C1101 1.366 . S
C1102 C1106 1.385 . S
C1103 H1078 0.951 . S
C1103 C1101 1.388 . S
C1103 C1104 1.366 . S
C1104 C1103 1.366 . S
C1104 C1105 1.414 . S
C1104 C1107 1.499 . S
C1105 H1079 0.950 . S
C1105 C1104 1.414 . S
C1105 C1106 1.374 . S
C1106 H1080 0.950 . S
C1106 C1102 1.385 . S
C1106 C1105 1.374 . S
C1107 C1104 1.499 . S
C1107 C1108 1.414 . S
C1107 C1109 1.389 . S
C1108 H1081 0.946 . S
C1108 C1094 1.342 1_655 S
C1108 C1107 1.414 . S
C1109 C1093 1.342 1_655 S
C1109 C1107 1.389 . S
C1109 C1110 1.524 . S
C1110 C1109 1.524 . S
C1110 C1111 1.397 . S
C1110 C1115 1.363 . S
C1111 H1082 0.950 . S
C1111 C1110 1.397 . S
C1111 C1112 1.334 . S
C1112 H1083 0.950 . S
C1112 C1111 1.334 . S
C1112 C1113 1.287 . S
C1113 C1112 1.287 . S
C1113 C1114 1.524 . S
C1113 H1116 0.999 1_556 S
C1114 H1084 0.950 1_556 S
C1114 C1113 1.524 . S
C1114 C1115 1.415 . S
C1115 H1085 0.950 . S
C1115 C1110 1.363 . S
C1115 C1114 1.415 . S
H1116 C1113 0.999 1_554 S
H1117 C1098 0.913 . S
H1118 C1136 0.951 . S
H1119 C1138 0.951 . S
H1120 C1140 0.950 . S
H1121 C1141 0.943 1_554 S
H1122 C1143 0.950 . S
H1123 C1146 0.950 . S
H1124 C1147 0.950 . S
H1125 C1149 0.950 . S
H1126 C1150 0.950 . S
H1127 C1151 0.951 . S
H1128 C1153 0.951 . S
H1129 C1155 0.950 . S
H1130 C1156 0.950 . S
H1131 C1158 0.950 . S
H1132 C1161 0.950 . S
H1133 C1162 0.950 . S
H1134 C1164 0.950 . S
H1135 C1165 0.950 . S
C1136 H1118 0.951 . S
C1136 C1137 1.366 . S
C1136 C1138 1.388 . S
C1137 C1136 1.366 . S
C1137 C1141 1.385 . S
C1138 H1119 0.951 . S
C1138 C1136 1.388 . S
C1138 C1139 1.366 . S
C1139 C1138 1.366 . S
C1139 C1140 1.414 1_556 S
C1139 C1142 1.499 1_556 S
C1140 H1120 0.950 . S
C1140 C1139 1.414 1_554 S
C1140 C1141 1.374 1_554 S
C1141 H1121 0.943 1_556 S
C1141 C1137 1.385 . S
C1141 C1140 1.374 1_556 S
C1142 C1139 1.499 1_554 S
C1142 C1143 1.373 . S
C1142 C1144 1.363 1_565 S
C1143 H1122 0.950 . S
C1143 C1142 1.373 . S
C1143 C1159 1.406 . S
C1144 C1142 1.363 1_545 S
C1144 C1145 1.522 1_554 S
C1144 C1158 1.406 . S
C1145 C1144 1.522 1_556 S
C1145 C1146 1.397 1_545 S
C1145 C1150 1.363 . S
C1146 H1123 0.950 . S
C1146 C1145 1.397 1_565 S
C1146 C1147 1.334 . S
C1147 H1124 0.950 . S
C1147 C1146 1.334 . S
C1147 C1148 1.287 1_565 S
C1148 C1147 1.287 1_545 S
C1148 C1149 1.524 . S
C1148 H1167 0.913 . S
C1149 H1125 0.950 . S
C1149 C1148 1.524 . S
C1149 C1150 1.415 . S
C1150 H1126 0.950 . S
C1150 C1145 1.363 . S
C1150 C1149 1.415 . S
C1151 H1127 0.951 . S
C1151 C1152 1.366 . S
C1151 C1153 1.388 . S
C1152 C1151 1.366 . S
C1152 C1156 1.385 . S
C1153 H1128 0.951 . S
C1153 C1151 1.388 . S
C1153 C1154 1.366 . S
C1154 C1153 1.366 . S
C1154 C1155 1.414 . S
C1154 C1157 1.499 . S
C1155 H1129 0.950 . S
C1155 C1154 1.414 . S
C1155 C1156 1.374 . S
C1156 H1130 0.950 . S
C1156 C1152 1.385 . S
C1156 C1155 1.374 . S
C1157 C1154 1.499 . S
C1157 C1158 1.373 . S
C1157 C1159 1.364 1_545 S
C1158 H1131 0.950 . S
C1158 C1144 1.406 . S
C1158 C1157 1.373 . S
C1159 C1143 1.406 . S
C1159 C1157 1.364 1_565 S
C1159 C1160 1.522 . S
C1160 C1159 1.522 . S
C1160 C1161 1.397 1_565 S
C1160 C1165 1.363 . S
C1161 H1132 0.950 . S
C1161 C1160 1.397 1_545 S
C1161 C1162 1.334 . S
C1162 H1133 0.950 . S
C1162 C1161 1.334 . S
C1162 C1163 1.287 1_545 S
C1163 C1162 1.287 1_565 S
C1163 C1164 1.524 . S
C1163 H1166 0.999 . S
C1164 H1134 0.950 . S
C1164 C1163 1.524 . S
C1164 C1165 1.415 . S
C1165 H1135 0.950 . S
C1165 C1160 1.363 . S
C1165 C1164 1.415 . S
H1166 C1163 0.999 . S
H1167 C1148 0.913 . S
H1168 C1186 0.951 . S
H1169 C1188 0.951 . S
H1170 C1190 0.950 . S
H1171 C1191 0.950 . S
H1172 C1193 0.950 . S
H1173 C1196 0.950 . S
H1174 C1197 0.950 . S
H1175 C1199 0.950 . S
H1176 C1200 0.950 . S
H1177 C1201 0.951 . S
H1178 C1203 0.951 . S
H1179 C1205 0.950 . S
H1180 C1206 0.950 . S
H1181 C1208 0.950 . S
H1182 C1211 0.950 . S
H1183 C1212 0.950 . S
H1184 C1214 0.950 . S
H1185 C1215 0.950 . S
C1186 H1168 0.951 . S
C1186 C1187 1.366 . S
C1186 C1188 1.388 . S
C1187 C1186 1.366 . S
C1187 C1191 1.385 . S
C1188 H1169 0.951 . S
C1188 C1186 1.388 . S
C1188 C1189 1.366 . S
C1189 C1188 1.366 . S
C1189 C1190 1.414 . S
C1189 C1192 1.499 . S
C1190 H1170 0.950 . S
C1190 C1189 1.414 . S
C1190 C1191 1.374 . S
C1191 H1171 0.950 . S
C1191 C1187 1.385 . S
C1191 C1190 1.374 . S
C1192 C1189 1.499 . S
C1192 C1193 1.373 . S
C1192 C1194 1.389 . S
C1193 H1172 0.950 . S
C1193 C1192 1.373 . S
C1193 C1209 1.377 . S
C1194 C1192 1.389 . S
C1194 C1195 1.524 . S
C1194 C1208 1.377 . S
C1195 C1194 1.524 . S
C1195 C1196 1.397 . S
C1195 C1200 1.363 . S
C1196 H1173 0.950 . S
C1196 C1195 1.397 . S
C1196 C1197 1.334 . S
C1197 H1174 0.950 . S
C1197 C1196 1.334 . S
C1197 C1198 1.287 . S
C1198 C1197 1.287 . S
C1198 C1199 1.524 . S
C1198 H1217 0.913 . S
C1199 H1175 0.950 . S
C1199 C1198 1.524 . S
C1199 C1200 1.415 . S
C1200 H1176 0.950 . S
C1200 C1195 1.363 . S
C1200 C1199 1.415 . S
C1201 H1177 0.951 . S
C1201 C1202 1.366 . S
C1201 C1203 1.388 . S
C1202 C1201 1.366 . S
C1202 C1206 1.385 . S
C1203 H1178 0.951 . S
C1203 C1201 1.388 . S
C1203 C1204 1.366 . S
C1204 C1203 1.366 . S
C1204 C1205 1.414 . S
C1204 C1207 1.499 . S
C1205 H1179 0.950 . S
C1205 C1204 1.414 . S
C1205 C1206 1.374 . S
C1206 H1180 0.950 . S
C1206 C1202 1.385 . S
C1206 C1205 1.374 . S
C1207 C1204 1.499 . S
C1207 C1208 1.373 . S
C1207 C1209 1.389 . S
C1208 H1181 0.950 . S
C1208 C1194 1.377 . S
C1208 C1207 1.373 . S
C1209 C1193 1.377 . S
C1209 C1207 1.389 . S
C1209 C1210 1.524 . S
C1210 C1209 1.524 . S
C1210 C1211 1.397 . S
C1210 C1215 1.363 . S
C1211 H1182 0.950 . S
C1211 C1210 1.397 . S
C1211 C1212 1.334 . S
C1212 H1183 0.950 . S
C1212 C1211 1.334 . S
C1212 C1213 1.287 . S
C1213 C1212 1.287 . S
C1213 C1214 1.524 . S
C1213 H1216 0.999 . S
C1214 H1184 0.950 . S
C1214 C1213 1.524 . S
C1214 C1215 1.415 . S
C1215 H1185 0.950 . S
C1215 C1210 1.363 . S
C1215 C1214 1.415 . S
H1216 C1213 0.999 . S
H1217 C1198 0.913 . S
H1218 C1236 0.951 . S
H1219 C1238 0.951 . S
H1220 C1240 0.950 . S
H1221 C1241 0.950 . S
H1222 C1243 0.965 . S
H1223 C1246 0.950 . S
H1224 C1247 0.950 . S
H1225 C1249 0.950 . S
H1226 C1250 0.950 . S
H1227 C1251 0.951 . S
H1228 C1253 0.951 . S
H1229 C1255 0.950 . S
H1230 C1256 0.950 . S
H1231 C1258 0.965 . S
H1232 C1261 0.950 . S
H1233 C1262 0.950 . S
H1234 C1264 0.950 . S
H1235 C1265 0.950 . S
C1236 H1218 0.951 . S
C1236 C1237 1.366 . S
C1236 C1238 1.388 . S
C1237 C1236 1.366 . S
C1237 C1241 1.385 . S
C1238 H1219 0.951 . S
C1238 C1236 1.388 . S
C1238 C1239 1.366 . S
C1239 C1238 1.366 . S
C1239 C1240 1.414 . S
C1239 C1242 1.499 . S
C1240 H1220 0.950 . S
C1240 C1239 1.414 . S
C1240 C1241 1.374 . S
C1241 H1221 0.950 . S
C1241 C1237 1.385 . S
C1241 C1240 1.374 . S
C1242 C1239 1.499 . S
C1242 C1243 1.415 . S
C1242 C1244 1.389 . S
C1243 H1222 0.965 . S
C1243 C1242 1.415 . S
C1243 C1259 1.325 1_455 S
C1244 C1242 1.389 . S
C1244 C1245 1.524 . S
C1244 C1258 1.325 1_455 S
C1245 C1244 1.524 . S
C1245 C1246 1.397 . S
C1245 C1250 1.363 . S
C1246 H1223 0.950 . S
C1246 C1245 1.397 . S
C1246 C1247 1.334 . S
C1247 H1224 0.950 . S
C1247 C1246 1.334 . S
C1247 C1248 1.287 . S
C1248 C1247 1.287 . S
C1248 C1249 1.524 . S
C1248 H1267 0.913 . S
C1249 H1225 0.950 . S
C1249 C1248 1.524 . S
C1249 C1250 1.415 . S
C1250 H1226 0.950 . S
C1250 C1245 1.363 . S
C1250 C1249 1.415 . S
C1251 H1227 0.951 . S
C1251 C1252 1.366 . S
C1251 C1253 1.388 . S
C1252 C1251 1.366 . S
C1252 C1256 1.385 . S
C1253 H1228 0.951 . S
C1253 C1251 1.388 . S
C1253 C1254 1.366 . S
C1254 C1253 1.366 . S
C1254 C1255 1.414 . S
C1254 C1257 1.499 . S
C1255 H1229 0.950 . S
C1255 C1254 1.414 . S
C1255 C1256 1.374 . S
C1256 H1230 0.950 . S
C1256 C1252 1.385 . S
C1256 C1255 1.374 . S
C1257 C1254 1.499 . S
C1257 C1258 1.415 . S
C1257 C1259 1.389 . S
C1258 H1231 0.965 . S
C1258 C1244 1.325 1_655 S
C1258 C1257 1.415 . S
C1259 C1243 1.325 1_655 S
C1259 C1257 1.389 . S
C1259 C1260 1.524 . S
C1260 C1259 1.524 . S
C1260 C1261 1.397 . S
C1260 C1265 1.363 . S
C1261 H1232 0.950 . S
C1261 C1260 1.397 . S
C1261 C1262 1.334 . S
C1262 H1233 0.950 . S
C1262 C1261 1.334 . S
C1262 C1263 1.287 . S
C1263 C1262 1.287 . S
C1263 C1264 1.524 . S
C1263 H1266 0.999 . S
C1264 H1234 0.950 . S
C1264 C1263 1.524 . S
C1264 C1265 1.415 . S
C1265 H1235 0.950 . S
C1265 C1260 1.363 . S
C1265 C1264 1.415 . S
H1266 C1263 0.999 . S
H1267 C1248 0.913 . S
H1268 C1286 0.951 . S
H1269 C1288 0.951 . S
H1270 C1290 0.950 . S
H1271 C1291 0.950 . S
H1272 C1293 0.950 . S
H1273 C1296 0.950 . S
H1274 C1297 0.950 . S
H1275 C1299 0.950 . S
H1276 C1300 0.952 1_565 S
H1277 C1301 0.951 . S
H1278 C1303 0.951 . S
H1279 C1305 0.950 . S
H1280 C1306 0.950 . S
H1281 C1308 0.950 . S
H1282 C1311 0.950 . S
H1283 C1312 0.950 . S
H1284 C1314 0.950 . S
H1285 C1315 0.952 1_545 S
C1286 H1268 0.951 . S
C1286 C1287 1.366 . S
C1286 C1288 1.388 . S
C1287 C1286 1.366 . S
C1287 C1291 1.385 . S
C1288 H1269 0.951 . S
C1288 C1286 1.388 . S
C1288 C1289 1.366 . S
C1289 C1288 1.366 . S
C1289 C1290 1.414 . S
C1289 C1292 1.499 . S
C1290 H1270 0.950 . S
C1290 C1289 1.414 . S
C1290 C1291 1.374 . S
C1291 H1271 0.950 . S
C1291 C1287 1.385 . S
C1291 C1290 1.374 . S
C1292 C1289 1.499 . S
C1292 C1293 1.373 . S
C1292 C1294 1.389 . S
C1293 H1272 0.950 . S
C1293 C1292 1.373 . S
C1293 C1309 1.377 1_545 S
C1294 C1292 1.389 . S
C1294 C1295 1.524 . S
C1294 C1308 1.377 1_545 S
C1295 C1294 1.524 . S
C1295 C1296 1.397 . S
C1295 C1300 1.363 . S
C1296 H1273 0.950 . S
C1296 C1295 1.397 . S
C1296 C1297 1.334 . S
C1297 H1274 0.950 . S
C1297 C1296 1.334 . S
C1297 C1298 1.287 . S
C1298 C1297 1.287 . S
C1298 C1299 1.524 . S
C1298 H1317 0.913 . S
C1299 H1275 0.950 . S
C1299 C1298 1.524 . S
C1299 C1300 1.415 . S
C1300 H1276 0.952 1_545 S
C1300 C1295 1.363 . S
C1300 C1299 1.415 . S
C1301 H1277 0.951 . S
C1301 C1302 1.366 . S
C1301 C1303 1.388 . S
C1302 C1301 1.366 . S
C1302 C1306 1.385 . S
C1303 H1278 0.951 . S
C1303 C1301 1.388 . S
C1303 C1304 1.366 . S
C1304 C1303 1.366 . S
C1304 C1305 1.414 . S
C1304 C1307 1.499 . S
C1305 H1279 0.950 . S
C1305 C1304 1.414 . S
C1305 C1306 1.374 . S
C1306 H1280 0.950 . S
C1306 C1302 1.385 . S
C1306 C1305 1.374 . S
C1307 C1304 1.499 . S
C1307 C1308 1.373 . S
C1307 C1309 1.389 . S
C1308 H1281 0.950 . S
C1308 C1294 1.377 1_565 S
C1308 C1307 1.373 . S
C1309 C1293 1.377 1_565 S
C1309 C1307 1.389 . S
C1309 C1310 1.524 . S
C1310 C1309 1.524 . S
C1310 C1311 1.397 . S
C1310 C1315 1.363 . S
C1311 H1282 0.950 . S
C1311 C1310 1.397 . S
C1311 C1312 1.334 . S
C1312 H1283 0.950 . S
C1312 C1311 1.334 . S
C1312 C1313 1.287 . S
C1313 C1312 1.287 . S
C1313 C1314 1.524 . S
C1313 H1316 0.999 . S
C1314 H1284 0.950 . S
C1314 C1313 1.524 . S
C1314 C1315 1.415 . S
C1315 H1285 0.952 1_565 S
C1315 C1310 1.363 . S
C1315 C1314 1.415 . S
H1316 C1313 0.999 . S
H1317 C1298 0.913 . S
H1318 C1336 0.951 . S
H1319 C1338 0.951 . S
H1320 C1340 0.950 . S
H1321 C1341 0.950 . S
H1322 C1343 0.950 . S
H1323 C1346 0.950 . S
H1324 C1347 0.950 . S
H1325 C1349 0.950 . S
H1326 C1350 0.950 . S
H1327 C1351 0.951 . S
H1328 C1353 0.951 . S
H1329 C1355 0.950 . S
H1330 C1356 0.950 . S
H1331 C1358 0.950 . S
H1332 C1361 0.950 . S
H1333 C1362 0.950 . S
H1334 C1364 0.950 . S
H1335 C1365 0.950 . S
C1336 H1318 0.951 . S
C1336 C1337 1.366 . S
C1336 C1338 1.388 . S
C1337 C1336 1.366 . S
C1337 C1341 1.385 . S
C1338 H1319 0.951 . S
C1338 C1336 1.388 . S
C1338 C1339 1.366 . S
C1339 C1338 1.366 . S
C1339 C1340 1.414 . S
C1339 C1342 1.499 . S
C1340 H1320 0.950 . S
C1340 C1339 1.414 . S
C1340 C1341 1.374 . S
C1341 H1321 0.950 . S
C1341 C1337 1.385 . S
C1341 C1340 1.374 . S
C1342 C1339 1.499 . S
C1342 C1343 1.373 . S
C1342 C1344 1.389 . S
C1343 H1322 0.950 . S
C1343 C1342 1.373 . S
C1343 C1359 1.377 . S
C1344 C1342 1.389 . S
C1344 C1345 1.524 . S
C1344 C1358 1.377 . S
C1345 C1344 1.524 . S
C1345 C1346 1.397 . S
C1345 C1350 1.363 . S
C1346 H1323 0.950 . S
C1346 C1345 1.397 . S
C1346 C1347 1.334 . S
C1347 H1324 0.950 . S
C1347 C1346 1.334 . S
C1347 C1348 1.287 . S
C1348 C1347 1.287 . S
C1348 C1349 1.524 . S
C1348 H1367 0.913 . S
C1349 H1325 0.950 . S
C1349 C1348 1.524 . S
C1349 C1350 1.415 . S
C1350 H1326 0.950 . S
C1350 C1345 1.363 . S
C1350 C1349 1.415 . S
C1351 H1327 0.951 . S
C1351 C1352 1.366 . S
C1351 C1353 1.388 . S
C1352 C1351 1.366 . S
C1352 C1356 1.385 . S
C1353 H1328 0.951 . S
C1353 C1351 1.388 . S
C1353 C1354 1.366 . S
C1354 C1353 1.366 . S
C1354 C1355 1.414 . S
C1354 C1357 1.499 . S
C1355 H1329 0.950 . S
C1355 C1354 1.414 . S
C1355 C1356 1.374 . S
C1356 H1330 0.950 . S
C1356 C1352 1.385 . S
C1356 C1355 1.374 . S
C1357 C1354 1.499 . S
C1357 C1358 1.373 . S
C1357 C1359 1.389 . S
C1358 H1331 0.950 . S
C1358 C1344 1.377 . S
C1358 C1357 1.373 . S
C1359 C1343 1.377 . S
C1359 C1357 1.389 . S
C1359 C1360 1.524 . S
C1360 C1359 1.524 . S
C1360 C1361 1.397 . S
C1360 C1365 1.363 . S
C1361 H1332 0.950 . S
C1361 C1360 1.397 . S
C1361 C1362 1.334 . S
C1362 H1333 0.950 . S
C1362 C1361 1.334 . S
C1362 C1363 1.287 . S
C1363 C1362 1.287 . S
C1363 C1364 1.524 . S
C1363 H1366 0.999 . S
C1364 H1334 0.950 . S
C1364 C1363 1.524 . S
C1364 C1365 1.415 . S
C1365 H1335 0.950 . S
C1365 C1360 1.363 . S
C1365 C1364 1.415 . S
H1366 C1363 0.999 . S
H1367 C1348 0.913 . S
C187 C5 1.526 . S
C202 C145 1.526 . S
C237 C159 1.526 . S
C252 C19 1.526 . S
C287 C33 1.526 . S
C302 C89 1.526 . S
C337 C47 1.526 . S
C352 C103 1.526 . S
C387 C61 1.526 . S
C402 C117 1.526 . S
C437 C131 1.526 . S
C452 C75 1.526 . S
C487 C9 1.623 . S
C502 C121 1.623 . S
C537 C23 1.623 . S
C552 C135 1.623 . S
C587 C149 1.623 . S
C602 C37 1.623 . S
C637 C51 1.623 . S
C652 C163 1.623 . S
C687 C65 1.623 . S
C702 C93 1.623 . S
C737 C79 1.623 . S
C752 C107 1.623 . S
C787 C140 1.209 . S
C802 C0 1.208 . S
C837 C14 1.208 . S
C852 C154 1.208 . S
C887 C28 1.209 . S
C902 C84 1.208 . S
C937 C42 1.208 . S
C952 C98 1.208 . S
C987 C112 1.208 . S
C1002 C56 1.208 . S
C1037 C70 1.209 . S
C1052 C126 1.208 . S
C1087 C11 1.365 1_556 S
C1102 C165 1.365 . S
C1137 C95 1.365 . S
C1152 C25 1.365 . S
C1187 C109 1.366 . S
C1202 C39 1.366 . S
C1237 C123 1.366 . S
C1252 C53 1.366 . S
C1287 C137 1.366 . S
C1302 C67 1.365 . S
C1337 C151 1.365 . S
C1352 C81 1.365 . S
