# Generated by pormake.
# Topology snp, (6)-cn, num edge types: 1
# Building blocks:
#     Node 0, Type 0, BuildingBlock: BETFAJ_clean_sbu_0, # of connection points: 6
#     Node 1, Type 0, BuildingBlock: BETFAJ_clean_sbu_0, # of connection points: 6
#     Node 2, Type 0, BuildingBlock: BETFAJ_clean_sbu_0, # of connection points: 6
#     Node 3, Type 0, BuildingBlock: BETFAJ_clean_sbu_0, # of connection points: 6
#     Edge 4, Type (0, 0), BuildingBlock: TEMPAE_clean_linker_10, # of connection points: 2
#     Edge 5, Type (0, 0), BuildingBlock: TEMPAE_clean_linker_10, # of connection points: 2
#     Edge 6, Type (0, 0), BuildingBlock: TEMPAE_clean_linker_10, # of connection points: 2
#     Edge 7, Type (0, 0), BuildingBlock: TEMPAE_clean_linker_10, # of connection points: 2
#     Edge 8, Type (0, 0), BuildingBlock: TEMPAE_clean_linker_10, # of connection points: 2
#     Edge 9, Type (0, 0), BuildingBlock: TEMPAE_clean_linker_10, # of connection points: 2
#     Edge 10, Type (0, 0), BuildingBlock: TEMPAE_clean_linker_10, # of connection points: 2
#     Edge 11, Type (0, 0), BuildingBlock: TEMPAE_clean_linker_10, # of connection points: 2
#     Edge 12, Type (0, 0), BuildingBlock: TEMPAE_clean_linker_10, # of connection points: 2
#     Edge 13, Type (0, 0), BuildingBlock: TEMPAE_clean_linker_10, # of connection points: 2
#     Edge 14, Type (0, 0), BuildingBlock: TEMPAE_clean_linker_10, # of connection points: 2
#     Edge 15, Type (0, 0), BuildingBlock: TEMPAE_clean_linker_10, # of connection points: 2
# Relax obj value: 0.209
# Max RMSD: 0.219
# Mean RMSD: 0.213
data_MOF--net-snp--node1-BETFAJ_clean_sbu_0--edge1-TEMPAE_clean_linker_10
_symmetry_space_group_name_H-M    P1
_symmetry_Int_Tables_number       1
_symmetry_cell_setting            triclinic
loop_
_symmetry_equiv_pos_as_xyz
'x, y, z'
_cell_length_a     25.806271
_cell_length_b     25.325443
_cell_length_c     36.497258
_cell_angle_alpha  84.156377
_cell_angle_beta   102.99485
_cell_angle_gamma 97.621287
loop_
_atom_site_label
_atom_site_type_symbol
_atom_site_fract_x
_atom_site_fract_y
_atom_site_fract_z
_atom_type_partial_charge
Sm0 Sm 0.2907 0.12008 0.13517 0.0
Sm1 Sm 0.2562 0.0155 0.09343 0.0
C2 C 0.30651 0.19578 0.183 0.0
C3 C 0.28643 0.20397 0.2167 0.0
C4 C 0.24035 0.17341 0.22497 0.0
C5 C 0.22475 0.178 0.25886 0.0
C6 C 0.25477 0.21359 0.28509 0.0
C7 C 0.30029 0.24488 0.2762 0.0
C8 C 0.316 0.23996 0.24248 0.0
C9 C 0.37147 0.06533 0.12629 0.0
C10 C 0.23381 0.01329 0.17807 0.0
C11 C 0.24409 0.92727 0.05815 0.0
C12 C 0.22356 0.91765 1.01798 0.0
C13 C 0.20608 0.95976 0.99192 0.0
C14 C 0.18547 0.95097 0.9539 0.0
C15 C 0.1822 0.89987 0.94105 0.0
C16 C 0.20025 0.85784 0.96722 0.0
C17 C 0.22061 0.86666 1.00537 0.0
C18 C 0.18196 0.08729 0.07862 0.0
C19 C 0.28482 0.12863 0.04605 0.0
O20 O 0.27268 0.19777 0.15027 0.0
O21 O 0.33658 0.15695 0.18709 0.0
O22 O 0.32919 0.04429 0.13596 0.0
O23 O 0.37282 0.11688 0.12117 0.0
O24 O 0.24694 0.06545 0.17551 0.0
O25 O 0.23872 0.98271 0.1519 0.0
O26 O 0.28993 0.95765 0.066 0.0
O27 O 0.20867 0.93918 0.07582 0.0
O28 O 0.21212 0.07608 0.10979 0.0
O29 O 0.18645 0.05557 0.05411 0.0
O30 O 0.29091 0.07698 0.05113 0.0
O31 O 0.27815 0.15525 0.07376 0.0
H32 H 0.21683 0.14553 0.20544 0.0
H33 H 0.18918 0.15375 0.26452 0.0
H34 H 0.32478 0.27218 0.29586 0.0
H35 H 0.35197 0.26355 0.23687 0.0
H36 H 0.20832 -0.00046 1.00101 0.0
H37 H 0.17266 0.98435 0.93446 0.0
H38 H 0.19789 0.81794 0.95828 0.0
H39 H 0.23381 0.83364 1.02504 0.0
Sm40 Sm 0.9974 0.27051 0.72656 0.0
Sm41 Sm 0.09771 0.26861 0.69122 0.0
C42 C 0.91181 0.25218 0.75735 0.0
C43 C 0.90046 0.2423 0.79592 0.0
C44 C 0.85804 0.20432 0.80243 0.0
C45 C 0.84666 0.1941 0.83854 0.0
C46 C 0.87734 0.22176 0.86931 0.0
C47 C 0.91988 0.25998 0.86257 0.0
C48 C 0.93138 0.26998 0.82644 0.0
C49 C 0.05961 0.36653 0.72043 0.0
C50 C 0.11294 0.25633 0.78345 0.0
C51 C 0.18157 0.27801 0.65959 0.0
C52 C 0.18745 0.27085 0.62083 0.0
C53 C 0.15595 0.29578 0.58886 0.0
C54 C 0.16044 0.28683 0.55245 0.0
C55 C 0.19621 0.25234 0.54695 0.0
C56 C 0.2274 0.22724 0.57911 0.0
C57 C 0.22316 0.23652 0.61551 0.0
C58 C 0.03438 0.17434 0.69657 0.0
C59 C 0.98292 0.27325 0.63276 0.0
O60 O 0.9322 0.21444 0.74513 0.0
O61 O 0.93296 0.30009 0.74779 0.0
O62 O 0.04754 0.33253 0.6961 0.0
O63 O 0.03593 0.35181 0.74826 0.0
O64 O 0.06032 0.24607 0.77838 0.0
O65 O 0.13665 0.27303 0.75496 0.0
O66 O 0.15798 0.319 0.664 0.0
O67 O 0.16686 0.23458 0.67914 0.0
O68 O 0.04712 0.20731 0.72136 0.0
O69 O 0.05706 0.18908 0.66839 0.0
O70 O 0.0353 0.28465 0.63739 0.0
O71 O 0.95914 0.26496 0.66203 0.0
H72 H 0.83373 0.18217 0.77952 0.0
H73 H 0.81432 0.16363 0.84241 0.0
H74 H 0.94422 0.28264 0.88516 0.0
H75 H 0.96452 0.2994 0.82241 0.0
H76 H 0.12759 0.32211 0.59189 0.0
H77 H 0.13621 0.30755 0.52862 0.0
H78 H 0.25467 0.19966 0.57626 0.0
H79 H 0.24742 0.21627 0.6396 0.0
Sm80 Sm 0.81155 0.03458 0.2147 0.0
Sm81 Sm 0.83994 0.94108 0.16995 0.0
C82 C 0.77249 0.09129 0.25749 0.0
C83 C 0.78921 0.10947 0.29667 0.0
C84 C 0.80669 0.16364 0.30226 0.0
C85 C 0.82297 0.18154 0.33873 0.0
C86 C 0.82188 0.14594 0.37096 0.0
C87 C 0.80396 0.09165 0.36529 0.0
C88 C 0.78794 0.07369 0.32876 0.0
C89 C 0.9177 0.03553 0.21742 0.0
C90 C 0.83385 0.91378 0.25778 0.0
C91 C 0.88148 0.8847 0.12798 0.0
C92 C 0.8806 0.87428 0.0881 0.0
C93 C 0.92378 0.89506 0.07129 0.0
C94 C 0.92574 0.88186 0.03512 0.0
C95 C 0.88479 0.84682 1.01468 0.0
C96 C 0.84133 0.82647 0.03151 0.0
C97 C 0.83927 0.83995 0.06755 0.0
C98 C 0.73322 0.94781 0.16626 0.0
C99 C 0.82165 0.06004 0.12494 0.0
O100 O 0.75735 0.04024 0.25358 0.0
O101 O 0.80108 0.11292 0.23319 0.0
O102 O 0.88412 -0.00574 0.21568 0.0
O103 O 0.89763 0.07363 0.22872 0.0
O104 O 0.81081 0.95818 0.25566 0.0
O105 O 0.85446 0.90082 0.23021 0.0
O106 O 0.90425 0.93096 0.14008 0.0
O107 O 0.83936 0.86679 0.14195 0.0
O108 O 0.76934 0.98615 0.16656 0.0
O109 O 0.75143 0.90328 0.16345 0.0
O110 O 0.84251 0.01446 0.12837 0.0
O111 O 0.80143 0.07538 0.15242 0.0
H112 H 0.80814 0.19236 0.2783 0.0
H113 H 0.83726 0.2234 0.34154 0.0
H114 H 0.80167 0.06288 0.38909 0.0
H115 H 0.77455 0.03168 0.32575 0.0
H116 H 0.95675 0.92084 0.08649 0.0
H117 H 0.95959 0.89914 1.02327 0.0
H118 H 0.80935 0.79871 1.01732 0.0
H119 H 0.80568 0.82239 0.07962 0.0
Sm120 Sm 0.95062 0.74563 0.6092 0.0
Sm121 Sm 0.03323 0.83239 0.5797 0.0
C122 C 0.90359 0.67196 0.65016 0.0
C123 C 0.89329 0.68161 0.68763 0.0
C124 C 0.92022 0.65561 0.72108 0.0
C125 C 0.9192 0.67203 0.75662 0.0
C126 C 0.89175 0.71542 0.75974 0.0
C127 C 0.86329 0.74008 0.72631 0.0
C128 C 0.86383 0.72334 0.69091 0.0
C129 C 0.92465 0.84637 0.60734 0.0
C130 C 0.03645 0.82407 0.66723 0.0
C131 C 0.08597 0.90413 0.5386 0.0
C132 C 0.09448 0.91188 0.49945 0.0
C133 C 0.11328 0.96259 0.48516 0.0
C134 C 0.12518 0.96983 0.44918 0.0
C135 C 0.11845 0.92645 0.42658 0.0
C136 C 0.09863 0.87583 0.44079 0.0
C137 C 0.08684 0.86862 0.47681 0.0
C138 C 0.06778 0.73481 0.60687 0.0
C139 C 0.94163 0.76069 0.51853 0.0
O140 O 0.95426 0.67291 0.64916 0.0
O141 O 0.87629 0.69715 0.62012 0.0
O142 O 0.94611 0.83087 0.58306 0.0
O143 O 0.91426 0.80825 0.6316 0.0
O144 O 0.014 0.77474 0.6611 0.0
O145 O 0.04195 0.85973 0.63892 0.0
O146 O 0.03828 0.90908 0.54363 0.0
O147 O 0.10703 0.86414 0.55948 0.0
O148 O 0.0232 0.74278 0.58625 0.0
O149 O 0.09733 0.77973 0.61413 0.0
O150 O 0.98461 0.7959 0.52581 0.0
O151 O 0.91892 0.73447 0.54541 0.0
H152 H 0.94393 0.62393 0.7197 0.0
H153 H 0.94186 0.65215 0.78161 0.0
H154 H 0.84087 0.77291 0.72743 0.0
H155 H 0.84262 0.74469 0.66603 0.0
H156 H 0.11957 -0.00345 0.50209 0.0
H157 H 0.13973 0.00949 0.43905 0.0
H158 H 0.09379 0.84143 0.4245 0.0
H159 H 0.0729 0.82901 0.48735 0.0
C160 C 0.94099 0.09875 0.16643 0.0
C161 C 0.94945 0.05094 0.18889 0.0
C162 C 0.9689 0.11515 0.13813 0.0
C163 C 0.00802 0.08433 0.13342 0.0
C164 C 0.01687 0.03575 0.15591 0.0
C165 C 0.98648 0.01907 0.18319 0.0
C166 C 0.95544 0.16457 0.11277 0.0
C167 C 0.05857 0.00163 0.15154 0.0
C168 C 0.0844 0.08642 0.05823 0.0
C169 C 0.13328 0.11099 0.07753 0.0
C170 C 0.03897 0.0838 0.07347 0.0
C171 C 0.04425 0.10573 0.1084 0.0
C172 C 0.09069 0.13972 0.12328 0.0
C173 C 0.13455 0.14331 0.10657 0.0
C174 C 0.98838 0.05104 0.05515 0.0
C175 C 0.09782 0.16449 0.16035 0.0
H176 H 0.91134 0.12306 0.1703 0.0
H177 H 0.99245 0.98206 0.20052 0.0
H178 H 0.9918 0.19059 0.10813 0.0
H179 H 0.93318 0.15169 0.08496 0.0
H180 H 0.93008 0.1885 0.12387 0.0
H181 H 0.0671 0.97116 0.1756 0.0
H182 H 0.04395 0.98055 0.12535 0.0
H183 H 0.09657 0.02648 0.14904 0.0
H184 H 0.08319 0.06292 0.03475 0.0
H185 H 0.17241 0.16377 0.12037 0.0
H186 H 0.95266 0.06136 0.06387 0.0
H187 H 0.99225 0.00813 0.06314 0.0
H188 H 0.9822 0.05684 1.02396 0.0
H189 H 0.06249 0.18442 0.16125 0.0
H190 H 0.13387 0.19429 0.16554 0.0
H191 H 0.10218 0.13265 0.18372 0.0
C192 C 0.87607 0.90558 0.63261 0.0
C193 C 0.91122 0.8998 0.60941 0.0
C194 C 0.87709 0.95409 0.64768 0.0
C195 C 0.91363 -0.00289 0.63864 0.0
C196 C 0.94197 -0.00612 0.60994 0.0
C197 C 0.94066 0.94447 0.59565 0.0
C198 C 0.84491 0.95653 0.67715 0.0
C199 C 0.97948 0.04029 0.5983 0.0
C200 C 0.94315 0.13395 0.67172 0.0
C201 C 0.99316 0.12932 0.69567 0.0
C202 C 0.91217 0.08926 0.65588 0.0
C203 C 0.93237 0.0395 0.66464 0.0
C204 C 0.97857 0.03346 0.69361 0.0
C205 C 0.00899 0.07909 0.70869 0.0
C206 C 0.86229 0.09693 0.62599 0.0
C207 C -0.00014 0.98008 0.70489 0.0
H208 H 0.85175 0.87088 0.64217 0.0
H209 H 0.96679 0.93984 0.57704 0.0
H210 H 0.86884 0.94431 0.70528 0.0
H211 H 0.83461 -0.00256 0.67811 0.0
H212 H 0.80743 0.92863 0.67185 0.0
H213 H 0.96132 0.07823 0.59525 0.0
H214 H 0.01686 0.0442 0.62041 0.0
H215 H 0.9902 0.03453 0.57126 0.0
H216 H 0.9304 0.17262 0.66215 0.0
H217 H 0.0478 0.07592 0.72737 0.0
H218 H 0.84314 0.13143 0.63118 0.0
H219 H 0.83272 0.06078 0.62453 0.0
H220 H 0.87338 0.10529 0.59815 0.0
H221 H 0.03196 0.98135 0.73087 0.0
H222 H 0.01655 0.96836 0.68179 0.0
H223 H 0.96728 0.94868 0.70968 0.0
C224 C 0.66377 0.00088 0.17477 0.0
C225 C 0.67664 0.95524 0.16184 0.0
C226 C 0.61067 0.01148 0.16898 0.0
C227 C 0.56966 0.97697 0.14788 0.0
C228 C 0.58233 0.93055 0.13473 0.0
C229 C 0.63588 0.91962 0.14255 0.0
C230 C 0.59879 0.06049 0.18463 0.0
C231 C 0.53989 0.89406 0.11088 0.0
C232 C 0.43003 -0.00414 0.15642 0.0
C233 C 0.41788 0.03678 0.12817 0.0
C234 C 0.47852 0.97379 0.16218 0.0
C235 C 0.5143 -0.00814 0.13812 0.0
C236 C 0.49988 0.03011 0.10759 0.0
C237 C 0.45223 0.05307 0.10351 0.0
C238 C 0.49324 0.93452 0.19578 0.0
C239 C 0.53608 0.04889 0.08048 0.0
H240 H 0.69542 0.0288 0.18911 0.0
H241 H 0.64612 0.88469 0.13206 0.0
H242 H 0.58547 0.09043 0.16118 0.0
H243 H 0.56587 0.04999 0.20001 0.0
H244 H 0.63434 0.07935 0.20411 0.0
H245 H 0.55556 0.85752 0.10537 0.0
H246 H 0.50557 0.88204 0.1247 0.0
H247 H 0.52434 0.91578 0.08344 0.0
H248 H 0.40325 0.98358 0.17552 0.0
H249 H 0.44219 0.08436 0.0814 0.0
H250 H 0.52561 0.95418 0.2172 0.0
H251 H 0.50877 0.8997 0.18758 0.0
H252 H 0.45868 0.91993 0.209 0.0
H253 H 0.57112 0.07525 0.09464 0.0
H254 H 0.51521 0.07158 0.05497 0.0
H255 H 0.55141 0.01442 0.07158 0.0
C256 C 0.10643 0.43474 0.68161 0.0
C257 C 0.08083 0.42212 0.71186 0.0
C258 C 0.11773 0.48792 0.66836 0.0
C259 C 0.10111 0.52903 0.68498 0.0
C260 C 0.07921 0.51678 0.71752 0.0
C261 C 0.06997 0.46326 0.73093 0.0
C262 C 0.14267 0.4995 0.63432 0.0
C263 C 0.06006 0.55941 0.73562 0.0
C264 C 0.12684 0.67568 0.65228 0.0
C265 C 0.07964 0.68211 0.62526 0.0
C266 C 0.13558 0.62552 0.67141 0.0
C267 C 0.0955 0.58175 0.66378 0.0
C268 C 0.04831 0.58815 0.63597 0.0
C269 C 0.04153 0.63799 0.61658 0.0
C270 C 0.18703 0.61955 0.70007 0.0
C271 C 0.00408 0.54275 0.62731 0.0
H272 H 0.11505 0.40302 0.66694 0.0
H273 H 0.0504 0.45355 0.7545 0.0
H274 H 0.11095 0.50633 0.60877 0.0
H275 H 0.17163 0.53614 0.63715 0.0
H276 H 0.16353 0.4657 0.63001 0.0
H277 H 0.05091 0.54471 0.76347 0.0
H278 H 0.09038 0.59488 0.73938 0.0
H279 H 0.02314 0.57261 0.71689 0.0
H280 H 0.15653 0.70984 0.65874 0.0
H281 H 0.00528 0.64278 0.59533 0.0
H282 H 0.20514 0.58431 0.69502 0.0
H283 H 0.1786 0.6127 0.72877 0.0
H284 H 0.21662 0.65555 0.69938 0.0
H285 H 0.01938 0.50931 0.61714 0.0
H286 H 0.96933 0.55506 0.60558 0.0
H287 H 0.98983 0.52733 0.65332 0.0
C288 C 0.15655 0.24085 0.47776 0.0
C289 C 0.20138 0.24306 0.50798 0.0
C290 C 0.16135 0.2339 0.44088 0.0
C291 C 0.21212 0.22843 0.43382 0.0
C292 C 0.25724 0.2293 0.46427 0.0
C293 C 0.25143 0.23694 0.50074 0.0
C294 C 0.11215 0.23307 0.40934 0.0
C295 C 0.31202 0.22306 0.45821 0.0
C296 C 0.22459 0.17111 0.34356 0.0
C297 C 0.23987 0.21734 0.32201 0.0
C298 C 0.21412 0.174 0.37954 0.0
C299 C 0.21882 0.22442 0.39445 0.0
C300 C 0.23246 0.2713 0.37228 0.0
C301 C 0.24296 0.26719 0.33654 0.0
C302 C 0.2001 0.12281 0.40206 0.0
C303 C 0.23696 0.32594 0.38663 0.0
H304 H 0.11743 0.24436 0.48289 0.0
H305 H 0.2866 0.23927 0.5235 0.0
H306 H 0.11745 0.26654 0.38791 0.0
H307 H 0.1064 0.19545 0.39503 0.0
H308 H 0.07536 0.23654 0.41952 0.0
H309 H 0.34253 0.22171 0.48505 0.0
H310 H 0.31053 0.18585 0.44418 0.0
H311 H 0.32505 0.2569 0.43931 0.0
H312 H 0.22249 0.13239 0.3328 0.0
H313 H 0.2538 0.30321 0.31991 0.0
H314 H 0.16643 0.12642 0.41558 0.0
H315 H 0.2351 0.11438 0.42487 0.0
H316 H 0.18904 0.08824 0.3843 0.0
H317 H 0.19943 0.33149 0.39506 0.0
H318 H 0.24507 0.35858 0.36521 0.0
H319 H 0.26979 0.32956 0.41206 0.0
C320 C 0.9079 0.20935 0.94039 0.0
C321 C 0.86595 0.20944 0.90826 0.0
C322 C 0.89829 0.19369 0.97671 0.0
C323 C 0.84532 0.17706 0.98152 0.0
C324 C 0.80255 0.17967 0.9495 0.0
C325 C 0.81328 0.1958 0.91349 0.0
C326 C 0.94535 0.19261 1.00972 0.0
C327 C 0.74542 0.16288 0.95296 0.0
C328 C 0.83013 0.06538 0.0578 0.0
C329 C 0.8217 0.09179 0.0878 0.0
C330 C 0.83738 0.09266 1.02361 0.0
C331 C 0.83564 0.14853 1.01817 0.0
C332 C 0.82506 0.17566 0.04758 0.0
C333 C 0.81815 0.147 0.08208 0.0
C334 C 0.84799 0.06136 0.99342 0.0
C335 C 0.82319 0.23521 0.04325 0.0
H336 H 0.94881 0.2194 0.9371 0.0
H337 H 0.78018 0.19692 0.88928 0.0
H338 H 0.9394 0.21676 0.03181 0.0
H339 H 0.94834 0.15103 1.02203 0.0
H340 H 0.98382 0.20843 1.00166 0.0
H341 H 0.71627 0.1735 0.92669 0.0
H342 H 0.73949 0.11898 0.95929 0.0
H343 H 0.73658 0.18184 0.97663 0.0
H344 H 0.83212 0.02263 0.06111 0.0
H345 H 0.81209 0.16808 0.10489 0.0
H346 H 0.88665 0.07769 0.98595 0.0
H347 H 0.81621 0.06525 0.9675 0.0
H348 H 0.84946 0.01823 1.0024 0.0
H349 H 0.86432 0.25564 0.04476 0.0
H350 H 0.80669 0.24917 0.0657 0.0
H351 H 0.79866 0.24739 1.01534 0.0
C352 C 0.86229 0.75686 0.46394 0.0
C353 C 0.91749 0.75657 0.47784 0.0
C354 C 0.84189 0.77207 0.4256 0.0
C355 C 0.8777 0.78819 0.40109 0.0
C356 C 0.93273 0.78248 0.41435 0.0
C357 C 0.95168 0.76613 0.45233 0.0
C358 C 0.78263 0.77524 0.4122 0.0
C359 C 0.97296 0.7996 0.38989 0.0
C360 C 0.83937 0.8246 0.29507 0.0
C361 C 0.84064 0.88028 0.29397 0.0
C362 C 0.84776 0.79342 0.32974 0.0
C363 C 0.85998 0.81878 0.36404 0.0
C364 C 0.86071 0.87502 0.36288 0.0
C365 C 0.85007 0.90482 0.32796 0.0
C366 C 0.84499 0.73355 0.32968 0.0
C367 C 0.87526 0.90422 0.39853 0.0
H368 H 0.83559 0.74965 0.48344 0.0
H369 H 0.99436 0.76528 0.46282 0.0
H370 H 0.77445 0.81735 0.41114 0.0
H371 H 0.76827 0.76156 0.38333 0.0
H372 H 0.7594 0.75084 0.43139 0.0
H373 H 0.011 0.78186 0.40125 0.0
H374 H 0.95725 0.78826 0.36059 0.0
H375 H 0.98192 0.84376 0.38884 0.0
H376 H 0.83158 0.80543 0.26884 0.0
H377 H 0.85143 0.94788 0.32728 0.0
H378 H 0.8205 0.7135 0.3496 0.0
H379 H 0.88576 0.72107 0.33934 0.0
H380 H 0.82768 0.71939 0.30119 0.0
H381 H 0.84831 0.88804 0.41775 0.0
H382 H 0.87277 0.94785 0.39282 0.0
H383 H 0.91671 0.89803 0.41356 0.0
C384 C 0.04068 0.80433 0.73642 0.0
C385 C 0.05648 0.83815 0.70693 0.0
C386 C 0.05985 0.81583 0.77426 0.0
C387 C 0.09591 0.86226 0.78306 0.0
C388 C 0.11127 0.89712 0.75345 0.0
C389 C 0.09134 0.88469 0.71574 0.0
C390 C 0.04181 0.77803 0.80491 0.0
C391 C 0.14928 0.94723 0.76162 0.0
C392 C 0.11339 0.912 0.8808 0.0
C393 C 0.16018 0.89059 0.9005 0.0
C394 C 0.09215 0.90341 0.84258 0.0
C395 C 0.11862 0.87321 0.82336 0.0
C396 C 0.16604 0.85179 0.84304 0.0
C397 C 0.18608 0.86054 0.88133 0.0
C398 C 0.04142 0.92679 0.82278 0.0
C399 C 0.1955 0.81933 0.82366 0.0
H400 H 0.01314 0.76862 0.72999 0.0
H401 H 0.10358 0.91116 0.69319 0.0
H402 H 0.07697 0.76269 0.82451 0.0
H403 H 0.0216 0.79955 0.82169 0.0
H404 H 0.01394 0.74345 0.79344 0.0
H405 H 0.15604 0.971 0.73546 0.0
H406 H 0.13333 0.97263 0.77855 0.0
H407 H 0.18838 0.93661 0.7786 0.0
H408 H 0.09286 0.93485 0.89548 0.0
H409 H 0.22255 0.8444 0.89621 0.0
H410 H 0.01193 0.89576 0.80799 0.0
H411 H 0.05058 0.95852 0.80115 0.0
H412 H 0.02274 0.94444 0.84257 0.0
H413 H 0.16905 0.78324 0.81338 0.0
H414 H 0.23246 0.8065 0.84264 0.0
H415 H 0.20653 0.84303 0.7987 0.0
C416 C 0.84117 0.82122 0.94831 0.0
C417 C 0.88778 0.83047 0.97656 0.0
C418 C 0.84293 0.80373 0.91314 0.0
C419 C 0.89256 0.7954 0.90538 0.0
C420 C 0.93996 0.8058 0.93331 0.0
C421 C 0.937 0.82286 0.96841 0.0
C422 C 0.79136 0.79375 0.88428 0.0
C423 C 0.99389 0.79821 0.92629 0.0
C424 C 0.88936 0.70043 0.82914 0.0
C425 C 0.89355 0.73581 0.79742 0.0
C426 C 0.88959 0.71922 0.86433 0.0
C427 C 0.89453 0.77494 0.86835 0.0
C428 C 0.89988 0.81089 0.83663 0.0
C429 C 0.89922 0.79102 0.80173 0.0
C430 C 0.88365 0.67927 0.89716 0.0
C431 C 0.90589 0.87052 0.83945 0.0
H432 H 0.80297 0.82791 0.95356 0.0
H433 H 0.97339 0.82908 0.98982 0.0
H434 H 0.79374 0.8188 0.85781 0.0
H435 H 0.78502 0.75141 0.87733 0.0
H436 H 0.75609 0.80262 0.89431 0.0
H437 H 0.02724 0.80987 0.95016 0.0
H438 H 0.99479 0.75573 0.92171 0.0
H439 H 0.00087 0.82226 0.90033 0.0
H440 H 0.88465 0.65779 0.82628 0.0
H441 H 0.90373 0.81892 0.77779 0.0
H442 H 0.84678 0.68402 0.90676 0.0
H443 H 0.91795 0.68673 0.92123 0.0
H444 H 0.88144 0.63739 0.88985 0.0
H445 H 0.87023 0.88212 0.84751 0.0
H446 H 0.91073 0.89327 0.81252 0.0
H447 H 0.94113 0.88242 0.86187 0.0
C448 C 0.17614 0.02171 0.22287 0.0
C449 C 0.20975 -0.00878 0.2106 0.0
C450 C 0.15786 0.00684 0.25628 0.0
C451 C 0.17456 0.96077 0.27885 0.0
C452 C 0.20692 0.92855 0.26594 0.0
C453 C 0.22373 0.94388 0.2317 0.0
C454 C 0.12245 0.04187 0.26817 0.0
C455 C 0.22582 0.87926 0.28916 0.0
C456 C 0.18058 0.96542 0.38397 0.0
C457 C 0.13326 0.93381 0.38881 0.0
C458 C 0.19498 0.97333 0.34866 0.0
C459 C 0.16132 0.94913 0.31707 0.0
C460 C 0.11367 0.91682 0.32177 0.0
C461 C 0.10037 0.90935 0.35752 0.0
C462 C 0.24629 0.00786 0.34516 0.0
C463 C 0.07604 0.89115 0.28882 0.0
H464 H 0.16461 0.05803 0.20644 0.0
H465 H 0.24998 0.9204 0.22251 0.0
H466 H 0.08654 0.01745 0.27522 0.0
H467 H 0.14455 0.0614 0.29391 0.0
H468 H 0.10908 0.0734 0.24586 0.0
H469 H 0.24674 0.85602 0.2739 0.0
H470 H 0.25371 0.89106 0.31565 0.0
H471 H 0.1915 0.85308 0.29716 0.0
H472 H 0.20676 0.98377 0.408 0.0
H473 H 0.06351 0.88525 0.36079 0.0
H474 H 0.2381 0.04039 0.32261 0.0
H475 H 0.27397 0.98349 0.33698 0.0
H476 H 0.26671 0.026 0.37186 0.0
H477 H 0.05999 0.92253 0.26735 0.0
H478 H 0.04187 0.86524 0.29738 0.0
H479 H 0.09788 0.86678 0.27511 0.0
C480 C 0.11979 0.22256 0.85104 0.0
C481 C 0.1455 0.24469 0.82198 0.0
C482 C 0.149 0.20756 0.88702 0.0
C483 C 0.20563 0.21523 0.89461 0.0
C484 C 0.23202 0.23887 0.86584 0.0
C485 C 0.20167 0.25312 0.8298 0.0
C486 C 0.11905 0.18223 0.9167 0.0
C487 C 0.2923 0.24822 0.87298 0.0
C488 C 0.26677 0.20807 0.99976 0.0
C489 C 0.27579 0.15415 1.0069 0.0
C490 C 0.24756 0.22969 0.96286 0.0
C491 C 0.23646 0.1965 0.9324 0.0
C492 C 0.24874 0.14302 0.93916 0.0
C493 C 0.26861 0.12267 0.97621 0.0
C494 C 0.23574 0.2871 0.95686 0.0
C495 C 0.23705 0.10591 0.9077 0.0
H496 H 0.07647 0.21584 0.84557 0.0
H497 H 0.22199 0.27027 0.80767 0.0
H498 H 0.1299 0.14117 0.92552 0.0
H499 H 0.13055 0.20534 0.94209 0.0
H500 H 0.07493 0.17998 0.9065 0.0
H501 H 0.30671 0.2699 0.84849 0.0
H502 H 0.3082 0.27151 0.89806 0.0
H503 H 0.3091 0.20937 0.87917 0.0
H504 H 0.27238 0.23288 1.02316 0.0
H505 H 0.27545 0.08099 0.98122 0.0
H506 H 0.1918 0.28838 0.95071 0.0
H507 H 0.25076 0.30753 0.93229 0.0
H508 H 0.25394 0.30966 0.98206 0.0
H509 H 0.19309 0.09656 0.8982 0.0
H510 H 0.2547 0.06774 0.9167 0.0
H511 H 0.25266 0.12528 0.88309 0.0
C512 C 0.86747 0.13356 0.44016 0.0
C513 C 0.83987 0.16538 0.41009 0.0
C514 C 0.88626 0.15215 0.47652 0.0
C515 C 0.87785 0.20418 0.48337 0.0
C516 C 0.84919 0.23612 0.45345 0.0
C517 C 0.83046 0.21639 0.41746 0.0
C518 C 0.91617 0.11637 0.5075 0.0
C519 C 0.83932 0.29182 0.45921 0.0
C520 C 0.89926 0.23788 0.58653 0.0
C521 C 0.95231 0.26245 0.59359 0.0
C522 C 0.87399 0.21981 0.55069 0.0
C523 C 0.90225 0.22636 0.52101 0.0
C524 C 0.95498 0.25296 0.52762 0.0
C525 C 0.97908 0.27069 0.56349 0.0
C526 C 0.81752 0.1923 0.54485 0.0
C527 C 0.98693 0.26114 0.49711 0.0
H528 H 0.87575 0.09441 0.43514 0.0
H529 H 0.80831 0.2412 0.395 0.0
H530 H 0.9576 0.13531 0.51756 0.0
H531 H 0.89647 0.11088 0.53189 0.0
H532 H 0.91812 0.07644 0.49812 0.0
H533 H 0.81386 0.31058 0.43384 0.0
H534 H 0.81971 0.29097 0.4834 0.0
H535 H 0.87808 0.31739 0.46608 0.0
H536 H 0.87801 0.23108 0.60933 0.0
H537 H 0.01997 0.28963 0.56816 0.0
H538 H 0.81685 0.1506 0.53777 0.0
H539 H 0.79148 0.21278 0.52071 0.0
H540 H 0.8003 0.19157 0.57021 0.0
H541 H 0.99375 0.22183 0.48927 0.0
H542 H 0.02644 0.28485 0.50608 0.0
H543 H 0.9643 0.28186 0.47141 0.0
loop_
_geom_bond_atom_site_label_1
_geom_bond_atom_site_label_2
_geom_bond_distance
_geom_bond_site_symmetry_2
_ccdc_geom_bond_type
Sm0 C2 2.846 . S
Sm0 O20 2.543 . S
Sm0 O21 2.450 . S
Sm0 O22 2.681 . S
Sm0 O23 2.464 . S
Sm0 O24 2.396 . S
Sm0 O28 2.386 . S
Sm0 O31 2.408 . S
Sm1 C11 2.825 1_544 S
Sm1 O22 2.386 . S
Sm1 O25 2.408 1_545 S
Sm1 O26 2.539 1_545 S
Sm1 O27 2.450 1_545 S
Sm1 O28 2.681 . S
Sm1 O29 2.464 . S
Sm1 O30 2.396 . S
C2 Sm0 2.846 . S
C2 C3 1.506 . S
C2 O20 1.261 . S
C2 O21 1.242 . S
C3 C2 1.506 . S
C3 C4 1.358 . S
C3 C8 1.382 . S
C4 C3 1.358 . S
C4 C5 1.385 . S
C4 H32 0.930 . S
C5 C4 1.385 . S
C5 C6 1.395 . S
C5 H33 0.929 . S
C6 C5 1.395 . S
C6 C7 1.335 . S
C7 C6 1.335 . S
C7 C8 1.398 . S
C7 H34 0.930 . S
C8 C3 1.382 . S
C8 C7 1.398 . S
C8 H35 0.929 . S
C9 O22 1.271 . S
C9 O23 1.251 . S
C10 O24 1.252 . S
C10 O25 1.272 1_545 S
C11 Sm1 2.825 1_566 S
C11 C12 1.527 . S
C11 O26 1.261 1_556 S
C11 O27 1.229 1_556 S
C12 C11 1.527 . S
C12 C13 1.358 . S
C12 C17 1.382 . S
C13 C12 1.358 . S
C13 C14 1.385 . S
C13 H36 0.930 . S
C14 C13 1.385 . S
C14 C15 1.395 . S
C14 H37 0.929 . S
C15 C14 1.395 . S
C15 C16 1.335 . S
C16 C15 1.335 . S
C16 C17 1.398 . S
C16 H38 0.930 . S
C17 C12 1.382 . S
C17 C16 1.398 . S
C17 H39 0.929 . S
C18 O28 1.271 . S
C18 O29 1.251 . S
C19 O30 1.252 . S
C19 O31 1.272 . S
O20 Sm0 2.543 . S
O20 C2 1.261 . S
O21 Sm0 2.450 . S
O21 C2 1.242 . S
O22 Sm0 2.681 . S
O22 Sm1 2.386 . S
O22 C9 1.271 . S
O23 Sm0 2.464 . S
O23 C9 1.251 . S
O24 Sm0 2.396 . S
O24 C10 1.252 . S
O25 Sm1 2.408 1_565 S
O25 C10 1.272 1_565 S
O26 Sm1 2.539 1_565 S
O26 C11 1.261 1_554 S
O27 Sm1 2.450 1_565 S
O27 C11 1.229 1_554 S
O28 Sm0 2.386 . S
O28 Sm1 2.681 . S
O28 C18 1.271 . S
O29 Sm1 2.464 . S
O29 C18 1.251 . S
O30 Sm1 2.396 . S
O30 C19 1.252 . S
O31 Sm0 2.408 . S
O31 C19 1.272 . S
H32 C4 0.930 . S
H33 C5 0.929 . S
H34 C7 0.930 . S
H35 C8 0.929 . S
H36 C13 0.930 . S
H37 C14 0.929 . S
H38 C16 0.930 . S
H39 C17 0.929 . S
Sm40 C42 2.846 . S
Sm40 O60 2.543 . S
Sm40 O61 2.450 . S
Sm40 O62 2.681 1_655 S
Sm40 O63 2.464 . S
Sm40 O64 2.396 1_655 S
Sm40 O68 2.386 1_655 S
Sm40 O71 2.408 . S
Sm41 C51 2.846 . S
Sm41 O62 2.386 . S
Sm41 O65 2.408 . S
Sm41 O66 2.543 . S
Sm41 O67 2.450 . S
Sm41 O68 2.681 . S
Sm41 O69 2.464 . S
Sm41 O70 2.396 . S
C42 Sm40 2.846 . S
C42 C43 1.506 . S
C42 O60 1.261 . S
C42 O61 1.242 . S
C43 C42 1.506 . S
C43 C44 1.358 . S
C43 C48 1.382 . S
C44 C43 1.358 . S
C44 C45 1.385 . S
C44 H72 0.930 . S
C45 C44 1.385 . S
C45 C46 1.395 . S
C45 H73 0.929 . S
C46 C45 1.395 . S
C46 C47 1.335 . S
C47 C46 1.335 . S
C47 C48 1.398 . S
C47 H74 0.930 . S
C48 C43 1.382 . S
C48 C47 1.398 . S
C48 H75 0.929 . S
C49 O62 1.271 . S
C49 O63 1.251 1_455 S
C50 O64 1.252 . S
C50 O65 1.272 . S
C51 Sm41 2.846 . S
C51 C52 1.506 . S
C51 O66 1.261 . S
C51 O67 1.242 . S
C52 C51 1.506 . S
C52 C53 1.358 . S
C52 C57 1.382 . S
C53 C52 1.358 . S
C53 C54 1.385 . S
C53 H76 0.930 . S
C54 C53 1.385 . S
C54 C55 1.395 . S
C54 H77 0.929 . S
C55 C54 1.395 . S
C55 C56 1.335 . S
C56 C55 1.335 . S
C56 C57 1.398 . S
C56 H78 0.930 . S
C57 C52 1.382 . S
C57 C56 1.398 . S
C57 H79 0.929 . S
C58 O68 1.271 . S
C58 O69 1.251 . S
C59 O70 1.252 1_655 S
C59 O71 1.272 . S
O60 Sm40 2.543 . S
O60 C42 1.261 . S
O61 Sm40 2.450 . S
O61 C42 1.242 . S
O62 Sm40 2.681 1_455 S
O62 Sm41 2.386 . S
O62 C49 1.271 . S
O63 Sm40 2.464 . S
O63 C49 1.251 1_655 S
O64 Sm40 2.396 1_455 S
O64 C50 1.252 . S
O65 Sm41 2.408 . S
O65 C50 1.272 . S
O66 Sm41 2.543 . S
O66 C51 1.261 . S
O67 Sm41 2.450 . S
O67 C51 1.242 . S
O68 Sm40 2.386 1_455 S
O68 Sm41 2.681 . S
O68 C58 1.271 . S
O69 Sm41 2.464 . S
O69 C58 1.251 . S
O70 Sm41 2.396 . S
O70 C59 1.252 1_455 S
O71 Sm40 2.408 . S
O71 C59 1.272 . S
H72 C44 0.930 . S
H73 C45 0.929 . S
H74 C47 0.930 . S
H75 C48 0.929 . S
H76 C53 0.930 . S
H77 C54 0.929 . S
H78 C56 0.930 . S
H79 C57 0.929 . S
Sm80 C82 2.846 . S
Sm80 O100 2.543 . S
Sm80 O101 2.450 . S
Sm80 O102 2.681 1_545 S
Sm80 O103 2.464 . S
Sm80 O104 2.396 1_545 S
Sm80 O108 2.386 . S
Sm80 O111 2.408 . S
Sm81 C91 2.846 . S
Sm81 O102 2.386 . S
Sm81 O105 2.408 . S
Sm81 O106 2.543 . S
Sm81 O107 2.450 . S
Sm81 O108 2.681 1_565 S
Sm81 O109 2.464 . S
Sm81 O110 2.396 1_565 S
C82 Sm80 2.846 . S
C82 C83 1.506 . S
C82 O100 1.261 . S
C82 O101 1.242 . S
C83 C82 1.506 . S
C83 C84 1.358 . S
C83 C88 1.382 . S
C84 C83 1.358 . S
C84 C85 1.385 . S
C84 H112 0.930 . S
C85 C84 1.385 . S
C85 C86 1.395 . S
C85 H113 0.929 . S
C86 C85 1.395 . S
C86 C87 1.335 . S
C87 C86 1.335 . S
C87 C88 1.398 . S
C87 H114 0.930 . S
C88 C83 1.382 . S
C88 C87 1.398 . S
C88 H115 0.929 . S
C89 O102 1.271 1_545 S
C89 O103 1.251 . S
C90 O104 1.252 . S
C90 O105 1.272 . S
C91 Sm81 2.846 . S
C91 C92 1.506 . S
C91 O106 1.261 . S
C91 O107 1.242 . S
C92 C91 1.506 . S
C92 C93 1.358 . S
C92 C97 1.382 . S
C93 C92 1.358 . S
C93 C94 1.385 1_554 S
C93 H116 0.930 . S
C94 C93 1.385 1_556 S
C94 C95 1.395 . S
C94 H117 0.929 . S
C95 C94 1.395 . S
C95 C96 1.335 . S
C96 C95 1.335 . S
C96 C97 1.398 1_556 S
C96 H118 0.930 . S
C97 C92 1.382 . S
C97 C96 1.398 1_554 S
C97 H119 0.929 . S
C98 O108 1.271 1_565 S
C98 O109 1.251 . S
C99 O110 1.252 . S
C99 O111 1.272 . S
O100 Sm80 2.543 . S
O100 C82 1.261 . S
O101 Sm80 2.450 . S
O101 C82 1.242 . S
O102 Sm80 2.681 1_565 S
O102 Sm81 2.386 . S
O102 C89 1.271 1_565 S
O103 Sm80 2.464 . S
O103 C89 1.251 . S
O104 Sm80 2.396 1_565 S
O104 C90 1.252 . S
O105 Sm81 2.408 . S
O105 C90 1.272 . S
O106 Sm81 2.543 . S
O106 C91 1.261 . S
O107 Sm81 2.450 . S
O107 C91 1.242 . S
O108 Sm80 2.386 . S
O108 Sm81 2.681 1_545 S
O108 C98 1.271 1_545 S
O109 Sm81 2.464 . S
O109 C98 1.251 . S
O110 Sm81 2.396 1_545 S
O110 C99 1.252 . S
O111 Sm80 2.408 . S
O111 C99 1.272 . S
H112 C84 0.930 . S
H113 C85 0.929 . S
H114 C87 0.930 . S
H115 C88 0.929 . S
H116 C93 0.930 . S
H117 C94 0.929 . S
H118 C96 0.930 . S
H119 C97 0.929 . S
Sm120 C122 2.846 . S
Sm120 O140 2.543 . S
Sm120 O141 2.450 . S
Sm120 O142 2.681 1_655 S
Sm120 O143 2.464 . S
Sm120 O144 2.396 1_655 S
Sm120 O148 2.386 1_655 S
Sm120 O151 2.408 . S
Sm121 C131 2.846 . S
Sm121 O142 2.386 . S
Sm121 O145 2.408 . S
Sm121 O146 2.543 . S
Sm121 O147 2.450 . S
Sm121 O148 2.681 . S
Sm121 O149 2.464 . S
Sm121 O150 2.396 . S
C122 Sm120 2.846 . S
C122 C123 1.506 . S
C122 O140 1.261 . S
C122 O141 1.242 . S
C123 C122 1.506 . S
C123 C124 1.358 . S
C123 C128 1.382 . S
C124 C123 1.358 . S
C124 C125 1.385 . S
C124 H152 0.930 . S
C125 C124 1.385 . S
C125 C126 1.395 . S
C125 H153 0.929 . S
C126 C125 1.395 . S
C126 C127 1.335 . S
C127 C126 1.335 . S
C127 C128 1.398 . S
C127 H154 0.930 . S
C128 C123 1.382 . S
C128 C127 1.398 . S
C128 H155 0.929 . S
C129 O142 1.271 . S
C129 O143 1.251 1_455 S
C130 O144 1.252 . S
C130 O145 1.272 . S
C131 Sm121 2.846 . S
C131 C132 1.506 . S
C131 O146 1.261 . S
C131 O147 1.242 . S
C132 C131 1.506 . S
C132 C133 1.358 . S
C132 C137 1.382 . S
C133 C132 1.358 . S
C133 C134 1.385 . S
C133 H156 0.930 . S
C134 C133 1.385 . S
C134 C135 1.395 . S
C134 H157 0.929 . S
C135 C134 1.395 . S
C135 C136 1.335 . S
C136 C135 1.335 . S
C136 C137 1.398 . S
C136 H158 0.930 . S
C137 C132 1.382 . S
C137 C136 1.398 . S
C137 H159 0.929 . S
C138 O148 1.271 . S
C138 O149 1.251 . S
C139 O150 1.252 1_655 S
C139 O151 1.272 . S
O140 Sm120 2.543 . S
O140 C122 1.261 . S
O141 Sm120 2.450 . S
O141 C122 1.242 . S
O142 Sm120 2.681 1_455 S
O142 Sm121 2.386 . S
O142 C129 1.271 . S
O143 Sm120 2.464 . S
O143 C129 1.251 1_655 S
O144 Sm120 2.396 1_455 S
O144 C130 1.252 . S
O145 Sm121 2.408 . S
O145 C130 1.272 . S
O146 Sm121 2.543 . S
O146 C131 1.261 . S
O147 Sm121 2.450 . S
O147 C131 1.242 . S
O148 Sm120 2.386 1_455 S
O148 Sm121 2.681 . S
O148 C138 1.271 . S
O149 Sm121 2.464 . S
O149 C138 1.251 . S
O150 Sm121 2.396 . S
O150 C139 1.252 1_455 S
O151 Sm120 2.408 . S
O151 C139 1.272 . S
H152 C124 0.930 . S
H153 C125 0.929 . S
H154 C127 0.930 . S
H155 C128 0.929 . S
H156 C133 0.930 . S
H157 C134 0.929 . S
H158 C136 0.930 . S
H159 C137 0.929 . S
C160 C161 1.391 . S
C160 C162 1.394 . S
C160 H176 0.931 . S
C161 C160 1.391 . S
C161 C165 1.376 1_545 S
C162 C160 1.394 . S
C162 C163 1.369 1_655 S
C162 C166 1.531 . S
C163 C162 1.369 1_455 S
C163 C164 1.410 . S
C163 C171 1.503 . S
C164 C163 1.410 . S
C164 C165 1.392 1_445 S
C164 C167 1.511 . S
C165 C161 1.376 1_565 S
C165 C164 1.392 1_665 S
C165 H177 0.929 . S
C166 C162 1.531 . S
C166 H178 0.960 . S
C166 H179 0.962 . S
C166 H180 0.960 . S
C167 C164 1.511 . S
C167 H181 0.961 1_545 S
C167 H182 0.961 1_545 S
C167 H183 0.961 . S
C168 C169 1.370 . S
C168 C170 1.363 . S
C168 H184 0.931 . S
C169 C168 1.370 . S
C169 C173 1.408 . S
C170 C168 1.363 . S
C170 C171 1.370 . S
C170 C174 1.524 1_545 S
C171 C163 1.503 . S
C171 C170 1.370 . S
C171 C172 1.403 . S
C172 C171 1.403 . S
C172 C173 1.404 . S
C172 C175 1.539 . S
C173 C169 1.408 . S
C173 C172 1.404 . S
C173 H185 0.930 . S
C174 C170 1.524 1_565 S
C174 H186 0.956 1_455 S
C174 H187 0.961 . S
C174 H188 0.961 . S
C175 C172 1.539 . S
C175 H189 0.958 . S
C175 H190 0.961 . S
C175 H191 0.960 . S
H176 C160 0.931 . S
H177 C165 0.929 . S
H178 C166 0.960 . S
H179 C166 0.962 . S
H180 C166 0.960 . S
H181 C167 0.961 1_565 S
H182 C167 0.961 1_565 S
H183 C167 0.961 . S
H184 C168 0.931 . S
H185 C173 0.930 . S
H186 C174 0.956 1_655 S
H187 C174 0.961 . S
H188 C174 0.961 . S
H189 C175 0.958 . S
H190 C175 0.961 . S
H191 C175 0.960 . S
C192 C193 1.391 1_655 S
C192 C194 1.394 . S
C192 H208 0.931 . S
C193 C192 1.391 1_455 S
C193 C197 1.376 . S
C194 C192 1.394 . S
C194 C195 1.369 1_665 S
C194 C198 1.531 . S
C195 C194 1.369 1_445 S
C195 C196 1.410 . S
C195 C203 1.503 . S
C196 C195 1.410 . S
C196 C197 1.392 1_545 S
C196 C199 1.511 . S
C197 C193 1.376 . S
C197 C196 1.392 1_565 S
C197 H209 0.929 . S
C198 C194 1.531 . S
C198 H210 0.960 . S
C198 H211 0.962 1_565 S
C198 H212 0.960 . S
C199 C196 1.511 . S
C199 H213 0.961 . S
C199 H214 0.961 . S
C199 H215 0.961 . S
C200 C201 1.370 . S
C200 C202 1.363 . S
C200 H216 0.931 . S
C201 C200 1.370 . S
C201 C205 1.408 . S
C202 C200 1.363 . S
C202 C203 1.370 . S
C202 C206 1.524 . S
C203 C195 1.503 . S
C203 C202 1.370 . S
C203 C204 1.403 . S
C204 C203 1.403 . S
C204 C205 1.404 . S
C204 C207 1.539 1_545 S
C205 C201 1.408 . S
C205 C204 1.404 . S
C205 H217 0.930 . S
C206 C202 1.524 . S
C206 H218 0.956 1_455 S
C206 H219 0.961 . S
C206 H220 0.962 . S
C207 C204 1.539 1_565 S
C207 H221 0.958 . S
C207 H222 0.961 . S
C207 H223 0.960 . S
H208 C192 0.931 . S
H209 C197 0.929 . S
H210 C198 0.960 . S
H211 C198 0.962 1_545 S
H212 C198 0.960 . S
H213 C199 0.961 . S
H214 C199 0.961 . S
H215 C199 0.961 . S
H216 C200 0.931 . S
H217 C205 0.930 . S
H218 C206 0.956 1_655 S
H219 C206 0.961 . S
H220 C206 0.962 . S
H221 C207 0.958 . S
H222 C207 0.961 . S
H223 C207 0.960 . S
C224 C225 1.391 1_545 S
C224 C226 1.394 . S
C224 H240 0.931 . S
C225 C224 1.391 1_565 S
C225 C229 1.376 . S
C226 C224 1.394 . S
C226 C227 1.369 . S
C226 C230 1.531 . S
C227 C226 1.369 . S
C227 C228 1.410 1_545 S
C227 C235 1.503 . S
C228 C227 1.410 1_565 S
C228 C229 1.392 . S
C228 C231 1.511 . S
C229 C225 1.376 . S
C229 C228 1.392 . S
C229 H241 0.929 . S
C230 C226 1.531 . S
C230 H242 0.960 . S
C230 H243 0.962 . S
C230 H244 0.960 . S
C231 C228 1.511 . S
C231 H245 0.961 . S
C231 H246 0.961 . S
C231 H247 0.961 . S
C232 C233 1.370 . S
C232 C234 1.363 . S
C232 H248 0.931 . S
C233 C232 1.370 . S
C233 C237 1.408 . S
C234 C232 1.363 . S
C234 C235 1.370 . S
C234 C238 1.524 . S
C235 C227 1.503 . S
C235 C234 1.370 . S
C235 C236 1.403 . S
C236 C235 1.403 . S
C236 C237 1.404 . S
C236 C239 1.539 . S
C237 C233 1.408 . S
C237 C236 1.404 . S
C237 H249 0.930 . S
C238 C234 1.524 . S
C238 H250 0.956 . S
C238 H251 0.961 . S
C238 H252 0.961 . S
C239 C236 1.539 . S
C239 H253 0.958 . S
C239 H254 0.961 1_545 S
C239 H255 0.960 1_545 S
H240 C224 0.931 . S
H241 C229 0.929 . S
H242 C230 0.960 . S
H243 C230 0.962 . S
H244 C230 0.960 . S
H245 C231 0.961 . S
H246 C231 0.961 . S
H247 C231 0.961 . S
H248 C232 0.931 . S
H249 C237 0.930 . S
H250 C238 0.956 . S
H251 C238 0.961 . S
H252 C238 0.961 . S
H253 C239 0.958 . S
H254 C239 0.961 1_565 S
H255 C239 0.960 1_565 S
C256 C257 1.391 . S
C256 C258 1.394 . S
C256 H272 0.931 . S
C257 C256 1.391 . S
C257 C261 1.376 1_455 S
C258 C256 1.394 . S
C258 C259 1.369 . S
C258 C262 1.531 . S
C259 C258 1.369 . S
C259 C260 1.410 1_455 S
C259 C267 1.503 . S
C260 C259 1.410 1_655 S
C260 C261 1.392 . S
C260 C263 1.511 . S
C261 C257 1.376 1_655 S
C261 C260 1.392 . S
C261 H273 0.929 . S
C262 C258 1.531 . S
C262 H274 0.960 . S
C262 H275 0.962 . S
C262 H276 0.960 . S
C263 C260 1.511 . S
C263 H277 0.961 . S
C263 H278 0.961 . S
C263 H279 0.961 . S
C264 C265 1.370 . S
C264 C266 1.363 . S
C264 H280 0.931 . S
C265 C264 1.370 . S
C265 C269 1.408 1_455 S
C266 C264 1.363 . S
C266 C267 1.370 . S
C266 C270 1.524 . S
C267 C259 1.503 . S
C267 C266 1.370 . S
C267 C268 1.402 1_455 S
C268 C267 1.402 1_655 S
C268 C269 1.404 . S
C268 C271 1.540 . S
C269 C265 1.408 1_655 S
C269 C268 1.404 . S
C269 H281 0.930 . S
C270 C266 1.524 . S
C270 H282 0.956 . S
C270 H283 0.961 . S
C270 H284 0.961 . S
C271 C268 1.540 . S
C271 H285 0.958 . S
C271 H286 0.961 . S
C271 H287 0.960 . S
H272 C256 0.931 . S
H273 C261 0.929 . S
H274 C262 0.960 . S
H275 C262 0.962 . S
H276 C262 0.960 . S
H277 C263 0.961 . S
H278 C263 0.961 . S
H279 C263 0.961 . S
H280 C264 0.931 . S
H281 C269 0.930 . S
H282 C270 0.956 . S
H283 C270 0.961 . S
H284 C270 0.961 . S
H285 C271 0.958 . S
H286 C271 0.961 . S
H287 C271 0.960 . S
C288 C289 1.391 . S
C288 C290 1.394 . S
C288 H304 0.931 . S
C289 C288 1.391 . S
C289 C293 1.376 . S
C290 C288 1.394 . S
C290 C291 1.369 . S
C290 C294 1.531 . S
C291 C290 1.369 . S
C291 C292 1.410 . S
C291 C299 1.503 . S
C292 C291 1.410 . S
C292 C293 1.392 . S
C292 C295 1.511 . S
C293 C289 1.376 . S
C293 C292 1.392 . S
C293 H305 0.929 . S
C294 C290 1.531 . S
C294 H306 0.960 . S
C294 H307 0.962 . S
C294 H308 0.960 . S
C295 C292 1.511 . S
C295 H309 0.961 . S
C295 H310 0.961 . S
C295 H311 0.961 . S
C296 C297 1.370 . S
C296 C298 1.363 . S
C296 H312 0.931 . S
C297 C296 1.370 . S
C297 C301 1.408 . S
C298 C296 1.363 . S
C298 C299 1.370 . S
C298 C302 1.524 . S
C299 C291 1.503 . S
C299 C298 1.370 . S
C299 C300 1.403 . S
C300 C299 1.403 . S
C300 C301 1.404 . S
C300 C303 1.539 . S
C301 C297 1.408 . S
C301 C300 1.404 . S
C301 H313 0.930 . S
C302 C298 1.524 . S
C302 H314 0.956 . S
C302 H315 0.961 . S
C302 H316 0.961 . S
C303 C300 1.539 . S
C303 H317 0.958 . S
C303 H318 0.961 . S
C303 H319 0.960 . S
H304 C288 0.931 . S
H305 C293 0.929 . S
H306 C294 0.960 . S
H307 C294 0.962 . S
H308 C294 0.960 . S
H309 C295 0.961 . S
H310 C295 0.961 . S
H311 C295 0.961 . S
H312 C296 0.931 . S
H313 C301 0.930 . S
H314 C302 0.956 . S
H315 C302 0.961 . S
H316 C302 0.961 . S
H317 C303 0.958 . S
H318 C303 0.961 . S
H319 C303 0.960 . S
C320 C321 1.391 . S
C320 C322 1.394 . S
C320 H336 0.931 . S
C321 C320 1.391 . S
C321 C325 1.376 . S
C322 C320 1.394 . S
C322 C323 1.369 . S
C322 C326 1.531 . S
C323 C322 1.369 . S
C323 C324 1.410 . S
C323 C331 1.503 . S
C324 C323 1.410 . S
C324 C325 1.392 . S
C324 C327 1.511 . S
C325 C321 1.376 . S
C325 C324 1.392 . S
C325 H337 0.929 . S
C326 C322 1.531 . S
C326 H338 0.960 . S
C326 H339 0.962 . S
C326 H340 0.960 . S
C327 C324 1.511 . S
C327 H341 0.961 . S
C327 H342 0.961 . S
C327 H343 0.961 . S
C328 C329 1.370 . S
C328 C330 1.363 . S
C328 H344 0.931 . S
C329 C328 1.370 . S
C329 C333 1.408 . S
C330 C328 1.363 . S
C330 C331 1.370 1_554 S
C330 C334 1.524 1_554 S
C331 C323 1.503 . S
C331 C330 1.370 1_556 S
C331 C332 1.420 . S
C332 C331 1.420 . S
C332 C333 1.378 1_556 S
C332 C335 1.548 . S
C333 C329 1.408 . S
C333 C332 1.378 1_554 S
C333 H345 0.930 . S
C334 C330 1.524 1_556 S
C334 H346 0.956 . S
C334 H347 0.961 . S
C334 H348 0.961 1_556 S
C335 C332 1.548 . S
C335 H349 0.958 . S
C335 H350 0.961 . S
C335 H351 0.960 . S
H336 C320 0.931 . S
H337 C325 0.929 . S
H338 C326 0.960 . S
H339 C326 0.962 . S
H340 C326 0.960 . S
H341 C327 0.961 . S
H342 C327 0.961 . S
H343 C327 0.961 . S
H344 C328 0.931 . S
H345 C333 0.930 . S
H346 C334 0.956 . S
H347 C334 0.961 . S
H348 C334 0.961 1_554 S
H349 C335 0.958 . S
H350 C335 0.961 . S
H351 C335 0.960 . S
C352 C353 1.391 . S
C352 C354 1.394 . S
C352 H368 0.931 . S
C353 C352 1.391 . S
C353 C357 1.376 . S
C354 C352 1.394 . S
C354 C355 1.369 . S
C354 C358 1.531 . S
C355 C354 1.369 . S
C355 C356 1.410 . S
C355 C363 1.503 . S
C356 C355 1.410 . S
C356 C357 1.392 . S
C356 C359 1.511 . S
C357 C353 1.376 . S
C357 C356 1.392 . S
C357 H369 0.929 . S
C358 C354 1.531 . S
C358 H370 0.960 . S
C358 H371 0.962 . S
C358 H372 0.960 . S
C359 C356 1.511 . S
C359 H373 0.961 . S
C359 H374 0.961 . S
C359 H375 0.961 . S
C360 C361 1.370 . S
C360 C362 1.363 . S
C360 H376 0.931 . S
C361 C360 1.370 . S
C361 C365 1.408 . S
C362 C360 1.363 . S
C362 C363 1.370 . S
C362 C366 1.524 . S
C363 C355 1.503 . S
C363 C362 1.370 . S
C363 C364 1.403 . S
C364 C363 1.403 . S
C364 C365 1.404 . S
C364 C367 1.539 . S
C365 C361 1.408 . S
C365 C364 1.404 . S
C365 H377 0.930 . S
C366 C362 1.524 . S
C366 H378 0.956 . S
C366 H379 0.961 . S
C366 H380 0.961 . S
C367 C364 1.539 . S
C367 H381 0.958 1_565 S
C367 H382 0.961 . S
C367 H383 0.960 . S
H368 C352 0.931 . S
H369 C357 0.929 . S
H370 C358 0.960 . S
H371 C358 0.962 . S
H372 C358 0.960 . S
H373 C359 0.961 . S
H374 C359 0.961 . S
H375 C359 0.961 . S
H376 C360 0.931 . S
H377 C365 0.930 . S
H378 C366 0.956 . S
H379 C366 0.961 . S
H380 C366 0.961 . S
H381 C367 0.958 1_545 S
H382 C367 0.961 . S
H383 C367 0.960 . S
C384 C385 1.391 . S
C384 C386 1.394 . S
C384 H400 0.931 . S
C385 C384 1.391 . S
C385 C389 1.376 . S
C386 C384 1.394 . S
C386 C387 1.369 . S
C386 C390 1.531 . S
C387 C386 1.369 . S
C387 C388 1.410 . S
C387 C395 1.503 . S
C388 C387 1.410 . S
C388 C389 1.392 . S
C388 C391 1.511 . S
C389 C385 1.376 . S
C389 C388 1.392 . S
C389 H401 0.929 . S
C390 C386 1.531 . S
C390 H402 0.960 . S
C390 H403 0.962 . S
C390 H404 0.960 . S
C391 C388 1.511 . S
C391 H405 0.961 . S
C391 H406 0.961 . S
C391 H407 0.961 . S
C392 C393 1.370 . S
C392 C394 1.363 . S
C392 H408 0.931 . S
C393 C392 1.370 . S
C393 C397 1.408 . S
C394 C392 1.363 . S
C394 C395 1.370 . S
C394 C398 1.524 . S
C395 C387 1.503 . S
C395 C394 1.370 . S
C395 C396 1.403 . S
C396 C395 1.403 . S
C396 C397 1.404 . S
C396 C399 1.539 . S
C397 C393 1.408 . S
C397 C396 1.404 . S
C397 H409 0.930 . S
C398 C394 1.524 . S
C398 H410 0.956 . S
C398 H411 0.961 . S
C398 H412 0.961 . S
C399 C396 1.539 . S
C399 H413 0.958 . S
C399 H414 0.961 . S
C399 H415 0.960 . S
H400 C384 0.931 . S
H401 C389 0.929 . S
H402 C390 0.960 . S
H403 C390 0.962 . S
H404 C390 0.960 . S
H405 C391 0.961 . S
H406 C391 0.961 . S
H407 C391 0.961 . S
H408 C392 0.931 . S
H409 C397 0.930 . S
H410 C398 0.956 . S
H411 C398 0.961 . S
H412 C398 0.961 . S
H413 C399 0.958 . S
H414 C399 0.961 . S
H415 C399 0.960 . S
C416 C417 1.391 . S
C416 C418 1.394 . S
C416 H432 0.931 . S
C417 C416 1.391 . S
C417 C421 1.376 . S
C418 C416 1.394 . S
C418 C419 1.369 . S
C418 C422 1.531 . S
C419 C418 1.369 . S
C419 C420 1.410 . S
C419 C427 1.503 . S
C420 C419 1.410 . S
C420 C421 1.392 . S
C420 C423 1.511 . S
C421 C417 1.376 . S
C421 C420 1.392 . S
C421 H433 0.929 . S
C422 C418 1.531 . S
C422 H434 0.960 . S
C422 H435 0.962 . S
C422 H436 0.960 . S
C423 C420 1.511 . S
C423 H437 0.961 . S
C423 H438 0.961 . S
C423 H439 0.961 . S
C424 C425 1.370 . S
C424 C426 1.363 . S
C424 H440 0.931 . S
C425 C424 1.370 . S
C425 C429 1.408 . S
C426 C424 1.363 . S
C426 C427 1.370 . S
C426 C430 1.524 . S
C427 C419 1.503 . S
C427 C426 1.370 . S
C427 C428 1.403 . S
C428 C427 1.403 . S
C428 C429 1.404 . S
C428 C431 1.539 . S
C429 C425 1.408 . S
C429 C428 1.404 . S
C429 H441 0.930 . S
C430 C426 1.524 . S
C430 H442 0.956 . S
C430 H443 0.961 . S
C430 H444 0.961 . S
C431 C428 1.539 . S
C431 H445 0.958 . S
C431 H446 0.961 . S
C431 H447 0.960 . S
H432 C416 0.931 . S
H433 C421 0.929 . S
H434 C422 0.960 . S
H435 C422 0.962 . S
H436 C422 0.960 . S
H437 C423 0.961 . S
H438 C423 0.961 . S
H439 C423 0.961 . S
H440 C424 0.931 . S
H441 C429 0.930 . S
H442 C430 0.956 . S
H443 C430 0.961 . S
H444 C430 0.961 . S
H445 C431 0.958 . S
H446 C431 0.961 . S
H447 C431 0.960 . S
C448 C449 1.391 1_545 S
C448 C450 1.394 1_545 S
C448 H464 0.931 . S
C449 C448 1.391 1_565 S
C449 C453 1.376 . S
C450 C448 1.394 1_565 S
C450 C451 1.369 . S
C450 C454 1.531 1_565 S
C451 C450 1.369 . S
C451 C452 1.410 . S
C451 C459 1.503 . S
C452 C451 1.410 . S
C452 C453 1.392 . S
C452 C455 1.511 . S
C453 C449 1.376 . S
C453 C452 1.392 . S
C453 H465 0.929 . S
C454 C450 1.531 1_545 S
C454 H466 0.960 1_545 S
C454 H467 0.962 . S
C454 H468 0.960 . S
C455 C452 1.511 . S
C455 H469 0.961 . S
C455 H470 0.961 . S
C455 H471 0.961 . S
C456 C457 1.370 . S
C456 C458 1.363 . S
C456 H472 0.931 . S
C457 C456 1.370 . S
C457 C461 1.408 . S
C458 C456 1.363 . S
C458 C459 1.370 . S
C458 C462 1.524 . S
C459 C451 1.503 . S
C459 C458 1.370 . S
C459 C460 1.403 . S
C460 C459 1.403 . S
C460 C461 1.404 . S
C460 C463 1.539 . S
C461 C457 1.408 . S
C461 C460 1.404 . S
C461 H473 0.930 . S
C462 C458 1.524 . S
C462 H474 0.956 1_565 S
C462 H475 0.961 . S
C462 H476 0.961 . S
C463 C460 1.539 . S
C463 H477 0.958 . S
C463 H478 0.961 . S
C463 H479 0.960 . S
H464 C448 0.931 . S
H465 C453 0.929 . S
H466 C454 0.960 1_565 S
H467 C454 0.962 . S
H468 C454 0.960 . S
H469 C455 0.961 . S
H470 C455 0.961 . S
H471 C455 0.961 . S
H472 C456 0.931 . S
H473 C461 0.930 . S
H474 C462 0.956 1_545 S
H475 C462 0.961 . S
H476 C462 0.961 . S
H477 C463 0.958 . S
H478 C463 0.961 . S
H479 C463 0.960 . S
C480 C481 1.391 . S
C480 C482 1.394 . S
C480 H496 0.931 . S
C481 C480 1.391 . S
C481 C485 1.376 . S
C482 C480 1.394 . S
C482 C483 1.369 . S
C482 C486 1.531 . S
C483 C482 1.369 . S
C483 C484 1.410 . S
C483 C491 1.503 . S
C484 C483 1.410 . S
C484 C485 1.392 . S
C484 C487 1.511 . S
C485 C481 1.376 . S
C485 C484 1.392 . S
C485 H497 0.929 . S
C486 C482 1.531 . S
C486 H498 0.960 . S
C486 H499 0.962 . S
C486 H500 0.960 . S
C487 C484 1.511 . S
C487 H501 0.961 . S
C487 H502 0.961 . S
C487 H503 0.961 . S
C488 C489 1.370 . S
C488 C490 1.363 . S
C488 H504 0.931 . S
C489 C488 1.370 . S
C489 C493 1.408 . S
C490 C488 1.363 . S
C490 C491 1.370 . S
C490 C494 1.524 . S
C491 C483 1.503 . S
C491 C490 1.370 . S
C491 C492 1.403 . S
C492 C491 1.403 . S
C492 C493 1.404 . S
C492 C495 1.539 . S
C493 C489 1.408 . S
C493 C492 1.404 . S
C493 H505 0.930 . S
C494 C490 1.524 . S
C494 H506 0.956 . S
C494 H507 0.961 . S
C494 H508 0.961 . S
C495 C492 1.539 . S
C495 H509 0.958 . S
C495 H510 0.961 . S
C495 H511 0.960 . S
H496 C480 0.931 . S
H497 C485 0.929 . S
H498 C486 0.960 . S
H499 C486 0.962 . S
H500 C486 0.960 . S
H501 C487 0.961 . S
H502 C487 0.961 . S
H503 C487 0.961 . S
H504 C488 0.931 . S
H505 C493 0.930 . S
H506 C494 0.956 . S
H507 C494 0.961 . S
H508 C494 0.961 . S
H509 C495 0.958 . S
H510 C495 0.961 . S
H511 C495 0.960 . S
C512 C513 1.391 . S
C512 C514 1.394 . S
C512 H528 0.931 . S
C513 C512 1.391 . S
C513 C517 1.376 . S
C514 C512 1.394 . S
C514 C515 1.369 . S
C514 C518 1.531 . S
C515 C514 1.369 . S
C515 C516 1.410 . S
C515 C523 1.503 . S
C516 C515 1.410 . S
C516 C517 1.392 . S
C516 C519 1.511 . S
C517 C513 1.376 . S
C517 C516 1.392 . S
C517 H529 0.929 . S
C518 C514 1.531 . S
C518 H530 0.960 . S
C518 H531 0.962 1_655 S
C518 H532 0.960 . S
C519 C516 1.511 . S
C519 H533 0.961 . S
C519 H534 0.961 . S
C519 H535 0.961 . S
C520 C521 1.370 . S
C520 C522 1.363 . S
C520 H536 0.931 . S
C521 C520 1.370 . S
C521 C525 1.408 . S
C522 C520 1.363 . S
C522 C523 1.370 . S
C522 C526 1.524 . S
C523 C515 1.503 . S
C523 C522 1.370 . S
C523 C524 1.403 . S
C524 C523 1.403 . S
C524 C525 1.404 . S
C524 C527 1.539 . S
C525 C521 1.408 . S
C525 C524 1.404 . S
C525 H537 0.930 . S
C526 C522 1.524 . S
C526 H538 0.956 . S
C526 H539 0.961 . S
C526 H540 0.961 . S
C527 C524 1.539 . S
C527 H541 0.958 . S
C527 H542 0.961 . S
C527 H543 0.960 . S
H528 C512 0.931 . S
H529 C517 0.929 . S
H530 C518 0.960 . S
H531 C518 0.962 1_455 S
H532 C518 0.960 . S
H533 C519 0.961 . S
H534 C519 0.961 . S
H535 C519 0.961 . S
H536 C520 0.931 . S
H537 C525 0.930 . S
H538 C526 0.956 . S
H539 C526 0.961 . S
H540 C526 0.961 . S
H541 C527 0.958 . S
H542 C527 0.961 . S
H543 C527 0.960 . S
C161 C89 0.465 . S
C169 C18 0.559 . S
C193 C129 0.579 . S
C201 C58 0.693 . S
C225 C98 1.056 . S
C233 C9 1.103 . S
C257 C49 1.017 . S
C265 C138 1.040 . S
C289 C55 1.071 . S
C297 C6 1.054 . S
C321 C46 1.683 . S
C329 C99 1.689 . S
C353 C139 2.136 . S
C361 C90 2.066 . S
C385 C130 1.394 . S
C393 C15 1.397 . S
C417 C95 1.031 . S
C425 C126 1.026 . S
C449 C10 1.684 1_565 S
C457 C135 1.673 . S
C481 C50 2.138 . S
C489 C19 2.081 1_556 S
C513 C86 1.402 . S
C521 C59 1.378 . S
