# Generated by pormake.
# Topology qtz-e, (6)-cn, num edge types: 1
# Building blocks:
#     Node 0, Type 0, BuildingBlock: CUWYAW_clean_sbu_0, # of connection points: 6
#     Node 1, Type 0, BuildingBlock: CUWYAW_clean_sbu_0, # of connection points: 6
#     Node 2, Type 0, BuildingBlock: CUWYAW_clean_sbu_0, # of connection points: 6
#     Node 3, Type 0, BuildingBlock: CUWYAW_clean_sbu_0, # of connection points: 6
#     Node 4, Type 0, BuildingBlock: CUWYAW_clean_sbu_0, # of connection points: 6
#     Node 5, Type 0, BuildingBlock: CUWYAW_clean_sbu_0, # of connection points: 6
#     Edge 6, Type (0, 0), BuildingBlock: AJUNOK_clean_linker_0, # of connection points: 2
#     Edge 7, Type (0, 0), BuildingBlock: AJUNOK_clean_linker_0, # of connection points: 2
#     Edge 8, Type (0, 0), BuildingBlock: AJUNOK_clean_linker_0, # of connection points: 2
#     Edge 9, Type (0, 0), BuildingBlock: AJUNOK_clean_linker_0, # of connection points: 2
#     Edge 10, Type (0, 0), BuildingBlock: AJUNOK_clean_linker_0, # of connection points: 2
#     Edge 11, Type (0, 0), BuildingBlock: AJUNOK_clean_linker_0, # of connection points: 2
#     Edge 12, Type (0, 0), BuildingBlock: AJUNOK_clean_linker_0, # of connection points: 2
#     Edge 13, Type (0, 0), BuildingBlock: AJUNOK_clean_linker_0, # of connection points: 2
#     Edge 14, Type (0, 0), BuildingBlock: AJUNOK_clean_linker_0, # of connection points: 2
#     Edge 15, Type (0, 0), BuildingBlock: AJUNOK_clean_linker_0, # of connection points: 2
#     Edge 16, Type (0, 0), BuildingBlock: AJUNOK_clean_linker_0, # of connection points: 2
#     Edge 17, Type (0, 0), BuildingBlock: AJUNOK_clean_linker_0, # of connection points: 2
#     Edge 18, Type (0, 0), BuildingBlock: AJUNOK_clean_linker_0, # of connection points: 2
#     Edge 19, Type (0, 0), BuildingBlock: AJUNOK_clean_linker_0, # of connection points: 2
#     Edge 20, Type (0, 0), BuildingBlock: AJUNOK_clean_linker_0, # of connection points: 2
#     Edge 21, Type (0, 0), BuildingBlock: AJUNOK_clean_linker_0, # of connection points: 2
#     Edge 22, Type (0, 0), BuildingBlock: AJUNOK_clean_linker_0, # of connection points: 2
#     Edge 23, Type (0, 0), BuildingBlock: AJUNOK_clean_linker_0, # of connection points: 2
# Relax obj value: 0.126
# Max RMSD: 0.209
# Mean RMSD: 0.209
data_MOF--net-qtz-e--node1-CUWYAW_clean_sbu_0--edge1-AJUNOK_clean_linker_0
_symmetry_space_group_name_H-M    P1
_symmetry_Int_Tables_number       1
_symmetry_cell_setting            triclinic
loop_
_symmetry_equiv_pos_as_xyz
'x, y, z'
_cell_length_a     19.118725
_cell_length_b     19.259858
_cell_length_c     41.83016
_cell_angle_alpha  89.788008
_cell_angle_beta   90.315968
_cell_angle_gamma 120.02329
loop_
_atom_site_label
_atom_site_type_symbol
_atom_site_fract_x
_atom_site_fract_y
_atom_site_fract_z
_atom_type_partial_charge
C0 C 0.14632 0.19984 1.01909 0.0
Eu1 Eu 0.15386 0.32006 0.05039 0.0
C2 C 0.17185 0.19459 0.98607 0.0
C3 C 0.11672 0.13699 0.96456 0.0
C4 C 0.13823 0.13607 0.93256 0.0
C5 C 0.21537 0.19295 0.92134 0.0
C6 C 0.2711 0.24901 0.94321 0.0
C7 C 0.24947 0.25032 0.97502 0.0
C8 C 0.03881 0.36456 0.04835 0.0
C9 C 0.2164 0.4767 1.00939 0.0
C10 C 0.2173 0.60165 0.11238 0.0
Eu11 Eu 0.19341 0.47066 0.08539 0.0
C12 C 0.22306 0.62334 0.14639 0.0
C13 C 0.28846 0.63358 0.16549 0.0
C14 C 0.28952 0.64771 0.19826 0.0
C15 C 0.22536 0.65183 0.21232 0.0
C16 C 0.15961 0.64044 0.19333 0.0
C17 C 0.15886 0.62716 0.16063 0.0
C18 C 0.31358 0.4351 0.08675 0.0
C19 C 0.11501 0.31029 0.12688 0.0
O20 O 0.20361 0.24242 0.03983 0.0
O21 O 0.08539 0.21249 1.02121 0.0
O22 O 0.05716 0.33549 1.024 0.0
O23 O 0.07947 0.3652 0.07202 0.0
O24 O 0.22185 0.41175 1.01293 0.0
O25 O 0.19711 0.50754 0.03355 0.0
O26 O 0.14622 0.54527 0.10285 0.0
O27 O 0.27592 0.59309 0.10082 0.0
O28 O 0.28668 0.45439 0.11154 0.0
O29 O 0.27122 0.42925 0.06253 0.0
O30 O 0.12584 0.38332 0.12453 0.0
O31 O 0.13025 0.27546 0.1026 0.0
H32 H 0.05634 0.09363 0.97236 0.0
H33 H 0.09385 0.09203 0.91641 0.0
H34 H 0.33179 0.29227 0.93573 0.0
H35 H 0.29345 0.29583 0.99082 0.0
H36 H 0.33851 0.63004 0.15527 0.0
H37 H 0.34085 0.65657 0.21249 0.0
H38 H 0.10868 0.64195 0.20382 0.0
H39 H 0.10732 0.61845 0.14654 0.0
C40 C 0.94029 0.14471 0.35549 0.0
Eu41 Eu 0.8303 0.16346 0.38426 0.0
C42 C 0.97198 0.16602 0.32236 0.0
C43 C 0.98238 0.11157 0.30349 0.0
C44 C 0.00391 0.12813 0.27108 0.0
C45 C 0.01444 0.19907 0.25685 0.0
C46 C 0.00644 0.25445 0.2761 0.0
C47 C 0.98529 0.23809 0.30835 0.0
C48 C 0.66946 0.06455 0.37464 0.0
C49 C 0.76543 0.25464 0.34179 0.0
C50 C 0.61124 0.23761 0.44049 0.0
Eu51 Eu 0.71991 0.21048 0.41638 0.0
C52 C 0.5981 0.24902 0.47412 0.0
C53 C 0.66314 0.27909 0.49581 0.0
C54 C 0.65003 0.28085 0.52845 0.0
C55 C 0.5716 0.25238 0.53997 0.0
C56 C 0.50668 0.22376 0.51818 0.0
C57 C 0.5199 0.22208 0.48543 0.0
C58 C 0.87821 0.31977 0.42413 0.0
C59 C 0.78675 0.11838 0.45975 0.0
O60 O 0.95749 0.20435 0.37502 0.0
O61 O 0.86495 0.08759 0.35782 0.0
O62 O 0.72238 0.08266 0.35233 0.0
O63 O 0.70332 0.09612 0.40048 0.0
O64 O 0.82873 0.24679 0.34757 0.0
O65 O 0.70867 0.2345 0.36358 0.0
O66 O 0.59699 0.16559 0.43339 0.0
O67 O 0.67851 0.29398 0.42803 0.0
O68 O 0.82584 0.29241 0.44703 0.0
O69 O 0.8456 0.28181 0.39876 0.0
O70 O 0.72951 0.13706 0.45606 0.0
O71 O 0.83858 0.13026 0.43642 0.0
H72 H 0.97201 0.05535 0.31362 0.0
H73 H 0.00992 0.08442 0.25693 0.0
H74 H 0.01596 0.31051 0.26613 0.0
H75 H 0.97785 0.2814 0.32215 0.0
H76 H 0.72388 0.29883 0.48767 0.0
H77 H 0.70076 0.30141 0.54477 0.0
H78 H 0.44555 0.20126 0.52657 0.0
H79 H 0.46894 0.19765 0.46909 0.0
C80 C 0.77312 0.91322 0.68503 0.0
Eu81 Eu 0.64538 0.81612 0.71805 0.0
C82 C 0.78146 0.93723 0.65091 0.0
C83 C 0.71749 0.8939 0.62939 0.0
C84 C 0.72232 0.91948 0.59768 0.0
C85 C 0.79141 -0.01108 0.5866 0.0
C86 C 0.85619 0.03131 0.60803 0.0
C87 C 0.85116 0.00573 0.6399 0.0
C88 C 0.56101 0.65435 0.70879 0.0
C89 C 0.48225 0.76189 0.68136 0.0
C90 C 0.35536 0.64092 0.78529 0.0
Eu91 Eu 0.49263 0.72793 0.75648 0.0
C92 C 0.32655 0.63763 0.81784 0.0
C93 C 0.24395 0.59182 0.82439 0.0
C94 C 0.21752 0.57615 0.85602 0.0
C95 C 0.27377 0.60507 0.88129 0.0
C96 C 0.35588 0.65644 0.87458 0.0
C97 C 0.38213 0.6728 0.843 0.0
C98 C 0.56468 0.89005 0.76095 0.0
C99 C 0.65761 0.77873 0.79338 0.0
O100 O 0.73367 0.93769 0.70287 0.0
O101 O 0.75164 0.83828 0.69069 0.0
O102 O 0.60256 0.70538 0.68668 0.0
O103 O 0.57194 0.6896 0.73517 0.0
O104 O 0.55707 0.82083 0.68433 0.0
O105 O 0.44653 0.71043 0.70495 0.0
O106 O 0.41073 0.62042 0.78269 0.0
O107 O 0.37169 0.70462 0.76854 0.0
O108 O 0.53849 0.84144 0.78508 0.0
O109 O 0.55745 0.85028 0.73608 0.0
O110 O 0.57964 0.72635 0.79222 0.0
O111 O 0.69556 0.82695 0.7689 0.0
H112 H 0.66305 0.84084 0.63724 0.0
H113 H 0.67137 0.88533 0.58186 0.0
H114 H 0.90959 0.08584 0.60051 0.0
H115 H 0.901 0.04044 0.65611 0.0
H116 H 0.20041 0.56485 0.80514 0.0
H117 H 0.15369 0.53765 0.8607 0.0
H118 H 0.40039 0.67931 0.89365 0.0
H119 H 0.44626 0.70879 0.83822 0.0
C120 C 0.85131 0.78389 1.02058 0.0
Eu121 Eu 0.82355 0.65504 0.05138 0.0
C122 C 0.82702 0.79213 0.9875 0.0
C123 C 0.88566 0.84134 0.96505 0.0
C124 C 0.86454 0.84255 0.93289 0.0
C125 C 0.78399 0.79493 0.92242 0.0
C126 C 0.72534 0.74675 0.94513 0.0
C127 C 0.74651 0.74504 0.97711 0.0
C128 C 0.92402 0.59234 0.04888 0.0
C129 C 0.73897 0.50526 1.0067 0.0
C130 C 0.72854 0.35977 0.10822 0.0
Eu131 Eu 0.76443 0.49642 0.08253 0.0
C132 C 0.73603 0.34374 0.14208 0.0
C133 C 0.67664 0.2734 0.15673 0.0
C134 C 0.67903 0.26306 0.18979 0.0
C135 C 0.74026 0.32355 0.20864 0.0
C136 C 0.80012 0.39339 0.19371 0.0
C137 C 0.79814 0.4033 0.16081 0.0
C138 C 0.65726 0.54908 0.08534 0.0
C139 C 0.8508 0.65079 0.12815 0.0
O140 O 0.79363 0.74886 0.04181 0.0
O141 O 0.90404 0.75971 1.02259 0.0
O142 O 0.91033 0.62618 1.02476 0.0
O143 O 0.88545 0.59465 0.07255 0.0
O144 O 0.74364 0.57393 1.01326 0.0
O145 O 0.75247 0.46485 0.02919 0.0
O146 O 0.79633 0.40486 0.09321 0.0
O147 O 0.67455 0.38074 0.10225 0.0
O148 O 0.67928 0.5221 0.10942 0.0
O149 O 0.69838 0.55352 0.06104 0.0
O150 O 0.8325 0.57557 0.12414 0.0
O151 O 0.84705 0.69394 0.10403 0.0
H152 H 0.94838 0.87727 0.97222 0.0
H153 H 0.91181 0.87901 0.91609 0.0
H154 H 0.66264 0.70971 0.93815 0.0
H155 H 0.69979 0.70541 0.99354 0.0
H156 H 0.62791 0.2271 0.14271 0.0
H157 H 0.63342 0.20756 0.20051 0.0
H158 H 0.84816 0.44094 0.20756 0.0
H159 H 0.84456 0.45839 0.15014 0.0
C160 C 0.05832 0.84974 0.35325 0.0
Eu161 Eu 0.15844 0.8209 0.38532 0.0
C162 C 0.02213 0.82182 0.32093 0.0
C163 C 0.01275 0.87348 0.29975 0.0
C164 C 0.98304 0.8484 0.26854 0.0
C165 C 0.96213 0.77105 0.25783 0.0
C166 C 0.97296 0.72017 0.27902 0.0
C167 C 0.00185 0.74491 0.31014 0.0
C168 C 0.32172 0.90218 0.37627 0.0
C169 C 0.20617 0.71445 0.34579 0.0
C170 C 0.3478 0.71488 0.44802 0.0
Eu171 Eu 0.25245 0.75668 0.42049 0.0
C172 C 0.35955 0.70492 0.48214 0.0
C173 C 0.29388 0.674 0.50337 0.0
C174 C 0.30689 0.67687 0.53636 0.0
C175 C 0.38574 0.71141 0.54858 0.0
C176 C 0.45109 0.73997 0.52729 0.0
C177 C 0.43804 0.7366 0.49431 0.0
C178 C 0.0905 0.66327 0.42678 0.0
C179 C 0.2002 0.86538 0.46044 0.0
O180 O 0.03522 0.79506 0.37572 0.0
O181 O 0.1363 0.89919 0.35393 0.0
O182 O 0.27027 0.89308 0.35424 0.0
O183 O 0.28602 0.87498 0.40227 0.0
O184 O 0.14634 0.72719 0.35151 0.0
O185 O 0.26043 0.72725 0.36806 0.0
O186 O 0.37123 0.78863 0.4394 0.0
O187 O 0.2779 0.6631 0.43562 0.0
O188 O 0.14156 0.6867 0.45033 0.0
O189 O 0.12754 0.69818 0.40155 0.0
O190 O 0.25197 0.83922 0.45817 0.0
O191 O 0.1515 0.85854 0.43642 0.0
H192 H 0.02887 0.93346 0.30727 0.0
H193 H 0.97577 0.88927 0.25288 0.0
H194 H 0.9602 0.66126 0.27141 0.0
H195 H 0.0095 0.70399 0.3256 0.0
H196 H 0.23276 0.65055 0.49458 0.0
H197 H 0.25573 0.6555 0.55231 0.0
H198 H 0.51247 0.76673 0.53624 0.0
H199 H 0.48946 0.76169 0.47837 0.0
C200 C 0.20652 0.03905 0.68958 0.0
Eu201 Eu 0.33379 0.15349 0.71745 0.0
C202 C 0.19519 0.00841 0.65618 0.0
C203 C 0.15226 0.02752 0.63372 0.0
C204 C 0.14932 0.00697 0.60138 0.0
C205 C 0.18857 0.96601 0.59077 0.0
C206 C 0.22935 0.94485 0.61347 0.0
C207 C 0.23278 0.96583 0.64566 0.0
C208 C 0.38337 0.30995 0.70573 0.0
C209 C 0.48836 0.22359 0.67423 0.0
C210 C 0.6232 0.38768 0.77161 0.0
Eu211 Eu 0.48974 0.27258 0.74816 0.0
C212 C 0.64935 0.40704 0.80537 0.0
C213 C 0.67832 0.3633 0.82246 0.0
C214 C 0.69407 0.37547 0.85525 0.0
C215 C 0.68114 0.43151 0.87159 0.0
C216 C 0.65414 0.47659 0.85438 0.0
C217 C 0.63875 0.46476 0.82163 0.0
C218 C 0.45197 0.11839 0.75763 0.0
C219 C 0.33242 0.20121 0.79194 0.0
O220 O 0.25386 0.02579 0.70832 0.0
O221 O 0.21852 0.11176 0.69283 0.0
O222 O 0.35406 0.2556 0.68375 0.0
O223 O 0.38475 0.27992 0.73214 0.0
O224 O 0.42038 0.15796 0.68105 0.0
O225 O 0.52261 0.28271 0.69523 0.0
O226 O 0.56305 0.39765 0.76264 0.0
O227 O 0.61648 0.32119 0.76053 0.0
O228 O 0.47712 0.17229 0.77989 0.0
O229 O 0.44278 0.14745 0.73198 0.0
O230 O 0.40576 0.26228 0.78737 0.0
O231 O 0.29506 0.14499 0.76983 0.0
H232 H 0.12297 0.06063 0.641 0.0
H233 H 0.11855 0.02553 0.58457 0.0
H234 H 0.25947 0.91247 0.60627 0.0
H235 H 0.26657 0.95007 0.66211 0.0
H236 H 0.68761 0.3186 0.81067 0.0
H237 H 0.71682 0.34143 0.86775 0.0
H238 H 0.64371 0.52032 0.86638 0.0
H239 H 0.61663 0.49948 0.8092 0.0
C240 C 0.23759 0.64331 0.30293 0.0
C241 C 0.219 0.70214 0.31222 0.0
C242 C 0.24166 0.62804 0.27033 0.0
C243 C 0.22792 0.67181 0.24647 0.0
H244 H 0.24599 0.60723 0.32079 0.0
H245 H 0.25308 0.58027 0.26376 0.0
S246 S 0.19063 0.84094 0.25891 0.0
N247 N 0.19536 0.80977 0.29521 0.0
N248 N 0.20493 0.78227 0.23444 0.0
C249 C 0.21407 0.73371 0.2557 0.0
C250 C 0.20915 0.74859 0.28851 0.0
C251 C 0.47895 0.16605 0.62021 0.0
C252 C 0.51939 0.23161 0.64125 0.0
C253 C 0.49694 0.17352 0.58769 0.0
C254 C 0.55644 0.2466 0.57477 0.0
H255 H 0.43114 0.10857 0.62862 0.0
H256 H 0.46345 0.1216 0.57245 0.0
S257 S 0.68497 0.43479 0.61948 0.0
N258 N 0.62609 0.37071 0.64697 0.0
N259 N 0.65908 0.38489 0.58539 0.0
C260 C 0.60007 0.31179 0.59553 0.0
C261 C 0.58181 0.30421 0.62888 0.0
C262 C 0.26199 0.59259 0.97183 0.0
C263 C 0.22457 0.50956 0.97703 0.0
C264 C 0.27523 0.62364 0.94064 0.0
C265 C 0.24961 0.57235 0.91392 0.0
H266 H 0.28381 0.63372 0.99185 0.0
H267 H 0.30712 0.68809 0.93736 0.0
S268 S 0.14115 0.3498 0.91536 0.0
N269 N 0.15651 0.37643 0.95331 0.0
N270 N 0.18144 0.43445 0.89491 0.0
C271 C 0.20871 0.48906 0.91904 0.0
C272 C 0.19618 0.45773 0.95059 0.0
C273 C 0.8258 0.31498 0.28931 0.0
C274 C 0.75779 0.28138 0.30941 0.0
C275 C 0.81964 0.33021 0.25711 0.0
C276 C 0.74517 0.31246 0.24352 0.0
H277 H 0.88437 0.32786 0.29822 0.0
H278 H 0.87343 0.35371 0.24255 0.0
S279 S 0.55072 0.23383 0.28652 0.0
N280 N 0.61474 0.2374 0.31403 0.0
N281 N 0.60342 0.26732 0.25324 0.0
C282 C 0.67736 0.28292 0.26361 0.0
C283 C 0.68366 0.26739 0.29663 0.0
C284 C 0.47729 0.81272 0.62725 0.0
C285 C 0.44468 0.74892 0.64933 0.0
C286 C 0.45602 0.8001 0.59493 0.0
C287 C 0.40105 0.72326 0.58338 0.0
H288 H 0.52221 0.87261 0.63471 0.0
H289 H 0.48426 0.85067 0.57869 0.0
S290 S 0.2948 0.53665 0.63128 0.0
N291 N 0.35144 0.60654 0.65751 0.0
N292 N 0.31126 0.58298 0.59648 0.0
C293 C 0.36471 0.65954 0.6053 0.0
C294 C 0.38649 0.67236 0.63837 0.0
C295 C 0.75761 0.54269 0.94961 0.0
C296 C 0.7272 0.48133 0.97278 0.0
C297 C 0.74382 0.52549 0.91711 0.0
C298 C 0.69866 0.44613 0.90627 0.0
H299 H 0.79222 0.60517 0.95662 0.0
H300 H 0.76833 0.57503 0.90031 0.0
S301 S 0.60602 0.26335 0.95706 0.0
N302 N 0.65142 0.33802 0.98279 0.0
N303 N 0.62378 0.30498 0.9212 0.0
C304 C 0.6693 0.38372 0.92905 0.0
C305 C 0.68405 0.40148 0.96243 0.0
C306 C 0.44691 0.48575 0.11313 0.0
C307 C 0.40062 0.46158 0.08488 0.0
C308 C 0.53061 0.51875 0.11252 0.0
C309 C 0.5718 0.52846 0.08365 0.0
H310 H 0.41835 0.47958 0.13612 0.0
H311 H 0.56315 0.53504 0.13502 0.0
S312 S 0.47913 0.47512 1.00274 0.0
N313 N 0.40223 0.45038 1.02698 0.0
N314 N 0.56021 0.51185 1.02584 0.0
C315 C 0.5267 0.50546 0.05504 0.0
C316 C 0.44091 0.47169 0.05567 0.0
C317 C 0.0101 0.53128 0.45386 0.0
C318 C 0.02747 0.5777 0.42584 0.0
C319 C 0.96489 0.44754 0.45274 0.0
C320 C 0.9354 0.40688 0.42362 0.0
H321 H 0.03359 0.55961 0.47677 0.0
H322 H 0.95256 0.41429 0.47496 0.0
S323 S 0.95795 0.50072 0.34367 0.0
N324 N 0.00621 0.5769 0.36841 0.0
N325 N 0.92335 0.41963 0.36614 0.0
C326 C 0.95071 0.45255 0.39546 0.0
C327 C -0.00439 0.53791 0.39668 0.0
C328 C 0.49182 0.03073 0.78694 0.0
C329 C 0.48021 0.05969 0.75768 0.0
C330 C 0.52471 0.98009 0.78803 0.0
C331 C 0.54777 0.95699 0.7599 0.0
H332 H 0.4748 0.04687 0.80916 0.0
H333 H 0.52968 0.95688 0.81106 0.0
S334 S 0.5382 0.02363 0.67738 0.0
N335 N 0.49934 0.06575 0.69998 0.0
N336 N 0.56316 0.97271 0.70218 0.0
C337 C 0.54008 -0.01129 0.73061 0.0
C338 C 0.50531 0.03907 0.72943 0.0
C339 C 0.54438 0.52436 0.68972 0.0
C340 C 0.51075 0.56686 0.70395 0.0
C341 C 0.50051 0.44026 0.68805 0.0
C342 C 0.42204 0.39663 0.70057 0.0
H343 H 0.60599 0.55595 0.68108 0.0
H344 H 0.52949 0.40956 0.67815 0.0
S345 S 0.29939 0.47939 0.73234 0.0
N346 N 0.38822 0.55867 0.7246 0.0
N347 N 0.3081 0.40104 0.72288 0.0
C348 C 0.38578 0.43836 0.71248 0.0
C349 C 0.42967 0.52358 0.71383 0.0
C350 C -0.01363 0.44341 0.07522 0.0
C351 C 0.0038 0.41774 0.0465 0.0
C352 C 0.96465 0.50267 0.0755 0.0
C353 C 0.95543 0.53611 0.047 0.0
H354 H -0.0082 0.41912 0.09787 0.0
H355 H 0.95369 0.52155 0.09845 0.0
S356 S -0.00833 0.48811 0.96507 0.0
N357 N 0.01099 0.43053 0.98857 0.0
N358 N 0.96491 0.53888 0.98898 0.0
C359 C 0.97117 0.51013 1.0179 0.0
C360 C -0.00438 0.45093 1.01767 0.0
C361 C 0.455 0.02507 0.3694 0.0
C362 C 0.40993 0.9414 0.37201 0.0
C363 C 0.53958 0.06505 0.36883 0.0
C364 C 0.58161 0.02245 0.37013 0.0
H365 H 0.42485 0.06005 0.36913 0.0
H366 H 0.57145 0.12956 0.36841 0.0
S367 S 0.49244 0.80275 0.37444 0.0
N368 N 0.41436 0.81724 0.37409 0.0
N369 N 0.573 0.893 0.37255 0.0
C370 C 0.53749 0.93899 0.37133 0.0
C371 C 0.45154 0.89819 0.37238 0.0
C372 C 0.24811 0.12478 0.83955 0.0
C373 C 0.29329 0.19763 0.82301 0.0
C374 C 0.22115 0.12326 0.87101 0.0
C375 C 0.2381 0.19449 0.88701 0.0
H376 H 0.23662 0.06906 0.82868 0.0
H377 H 0.18938 0.06617 0.8833 0.0
S378 S 0.34246 0.39926 0.85189 0.0
N379 N 0.34589 0.34157 0.82357 0.0
N380 N 0.2946 0.33869 0.88206 0.0
C381 C 0.27919 0.26703 0.86987 0.0
C382 C 0.30685 0.26858 0.83808 0.0
C383 C 0.09686 0.21104 0.20773 0.0
C384 C 0.03261 0.2158 0.22199 0.0
C385 C 0.12054 0.23643 0.17591 0.0
C386 C 0.08067 0.26733 0.15738 0.0
H387 H 0.13147 0.19122 0.22172 0.0
H388 H 0.17297 0.23609 0.16642 0.0
S389 S 0.90054 0.27918 0.18132 0.0
N390 N 0.92318 0.2437 0.21331 0.0
N391 N 0.96866 0.29268 0.15422 0.0
C392 C 0.01347 0.26755 0.17069 0.0
C393 C -0.01085 0.24144 0.20277 0.0
C394 C 0.72572 0.02562 0.54281 0.0
C395 C 0.79243 0.01988 0.5536 0.0
C396 C 0.72481 0.05652 0.51251 0.0
C397 C 0.79039 0.08287 0.49123 0.0
H398 H 0.67399 0.00746 0.55821 0.0
H399 H 0.67177 0.05992 0.50588 0.0
S400 S 0.97857 0.07679 0.50722 0.0
N401 N 0.925 0.04036 0.54016 0.0
N402 N 0.92349 0.09858 0.48308 0.0
C403 C 0.85713 0.07609 0.50143 0.0
C404 C 0.85821 0.0449 0.5326 0.0
C405 C 0.67559 0.71509 0.84259 0.0
C406 C 0.70041 0.78461 0.824 0.0
C407 C 0.70529 0.71903 0.8737 0.0
C408 C 0.76028 0.79286 0.88798 0.0
H409 H 0.6314 0.65692 0.83323 0.0
H410 H 0.68367 0.66357 0.8869 0.0
S411 S 0.84497 -0.00717 0.84931 0.0
N412 N 0.78514 0.92945 0.82172 0.0
N413 N 0.83933 0.93749 0.88052 0.0
C414 C 0.78754 0.86281 0.86927 0.0
C415 C 0.75798 0.85855 0.83727 0.0
C416 C 0.96572 0.79161 0.1977 0.0
C417 C 0.92927 0.74283 0.22478 0.0
C418 C 0.93857 0.76323 0.16638 0.0
C419 C 0.87442 0.6848 0.16099 0.0
H420 H 0.0172 0.85129 0.20067 0.0
H421 H 0.96987 0.80184 0.14629 0.0
S422 S 0.75064 0.5374 0.22352 0.0
N423 N 0.81937 0.61543 0.24377 0.0
N424 N 0.77023 0.56189 0.18544 0.0
C425 C 0.83552 0.63686 0.18785 0.0
C426 C 0.8624 0.66584 0.21955 0.0
C427 C 0.26302 0.96016 0.54257 0.0
C428 C 0.19027 0.94738 0.55616 0.0
C429 C 0.2659 0.93667 0.51116 0.0
C430 C 0.19642 0.90017 0.49165 0.0
H431 H 0.31829 0.98741 0.55654 0.0
H432 H 0.32309 0.94585 0.50231 0.0
S433 S -0.00867 0.85655 0.51485 0.0
N434 N 0.04711 0.89786 0.54707 0.0
N435 N 0.05319 0.85544 0.4877 0.0
C436 C 0.12395 0.8904 0.50426 0.0
C437 C 0.12073 0.91361 0.53654 0.0
loop_
_geom_bond_atom_site_label_1
_geom_bond_atom_site_label_2
_geom_bond_distance
_geom_bond_site_symmetry_2
_ccdc_geom_bond_type
C0 Eu1 2.835 1_556 S
C0 C2 1.500 . S
C0 O20 1.257 . S
C0 O21 1.260 . S
Eu1 C0 2.835 1_554 S
Eu1 O20 2.473 1_554 S
Eu1 O21 2.480 1_554 S
Eu1 O22 2.430 . S
Eu1 O23 2.670 . S
Eu1 O24 2.394 1_554 S
Eu1 O29 2.355 . S
Eu1 O31 2.374 . S
C2 C0 1.500 . S
C2 C3 1.377 . S
C2 C7 1.377 . S
C3 C2 1.377 . S
C3 C4 1.395 . S
C3 H32 0.931 . S
C4 C3 1.395 . S
C4 C5 1.383 . S
C4 H33 0.931 . S
C5 C4 1.383 . S
C5 C6 1.394 . S
C6 C5 1.394 . S
C6 C7 1.378 . S
C6 H34 0.931 . S
C7 C2 1.377 . S
C7 C6 1.378 . S
C7 H35 0.931 . S
C8 O22 1.259 . S
C8 O23 1.270 . S
C9 O24 1.251 . S
C9 O25 1.251 1_556 S
C10 Eu11 2.835 . S
C10 C12 1.500 . S
C10 O26 1.257 . S
C10 O27 1.260 . S
Eu11 C10 2.835 . S
Eu11 O23 2.355 . S
Eu11 O25 2.374 . S
Eu11 O26 2.473 . S
Eu11 O27 2.480 . S
Eu11 O28 2.430 . S
Eu11 O29 2.670 . S
Eu11 O30 2.394 . S
C12 C10 1.500 . S
C12 C13 1.377 . S
C12 C17 1.377 . S
C13 C12 1.377 . S
C13 C14 1.395 . S
C13 H36 0.931 . S
C14 C13 1.395 . S
C14 C15 1.383 . S
C14 H37 0.931 . S
C15 C14 1.383 . S
C15 C16 1.394 . S
C16 C15 1.394 . S
C16 C17 1.378 . S
C16 H38 0.931 . S
C17 C12 1.377 . S
C17 C16 1.378 . S
C17 H39 0.931 . S
C18 O28 1.259 . S
C18 O29 1.270 . S
C19 O30 1.251 . S
C19 O31 1.251 . S
O20 C0 1.257 . S
O20 Eu1 2.473 1_556 S
O21 C0 1.260 . S
O21 Eu1 2.480 1_556 S
O22 Eu1 2.430 . S
O22 C8 1.259 . S
O23 Eu1 2.670 . S
O23 C8 1.270 . S
O23 Eu11 2.355 . S
O24 Eu1 2.394 1_556 S
O24 C9 1.251 . S
O25 C9 1.251 1_554 S
O25 Eu11 2.374 . S
O26 C10 1.257 . S
O26 Eu11 2.473 . S
O27 C10 1.260 . S
O27 Eu11 2.480 . S
O28 Eu11 2.430 . S
O28 C18 1.259 . S
O29 Eu1 2.355 . S
O29 Eu11 2.670 . S
O29 C18 1.270 . S
O30 Eu11 2.394 . S
O30 C19 1.251 . S
O31 Eu1 2.374 . S
O31 C19 1.251 . S
H32 C3 0.931 . S
H33 C4 0.931 . S
H34 C6 0.931 . S
H35 C7 0.931 . S
H36 C13 0.931 . S
H37 C14 0.931 . S
H38 C16 0.931 . S
H39 C17 0.931 . S
C40 Eu41 2.835 . S
C40 C42 1.500 . S
C40 O60 1.257 . S
C40 O61 1.260 . S
Eu41 C40 2.835 . S
Eu41 O60 2.473 . S
Eu41 O61 2.480 . S
Eu41 O62 2.430 . S
Eu41 O63 2.670 . S
Eu41 O64 2.394 . S
Eu41 O69 2.355 . S
Eu41 O71 2.374 . S
C42 C40 1.500 . S
C42 C43 1.377 . S
C42 C47 1.377 1_655 S
C43 C42 1.377 . S
C43 C44 1.395 . S
C43 H72 0.931 . S
C44 C43 1.395 . S
C44 C45 1.383 1_655 S
C44 H73 0.931 . S
C45 C44 1.383 1_455 S
C45 C46 1.394 . S
C46 C45 1.394 . S
C46 C47 1.378 . S
C46 H74 0.931 . S
C47 C42 1.377 1_455 S
C47 C46 1.378 . S
C47 H75 0.931 . S
C48 O62 1.259 . S
C48 O63 1.270 . S
C49 O64 1.251 . S
C49 O65 1.251 . S
C50 Eu51 2.835 . S
C50 C52 1.500 . S
C50 O66 1.257 . S
C50 O67 1.260 . S
Eu51 C50 2.835 . S
Eu51 O63 2.355 . S
Eu51 O65 2.374 . S
Eu51 O66 2.473 . S
Eu51 O67 2.480 . S
Eu51 O68 2.430 . S
Eu51 O69 2.670 . S
Eu51 O70 2.394 . S
C52 C50 1.500 . S
C52 C53 1.377 . S
C52 C57 1.377 . S
C53 C52 1.377 . S
C53 C54 1.395 . S
C53 H76 0.931 . S
C54 C53 1.395 . S
C54 C55 1.383 . S
C54 H77 0.931 . S
C55 C54 1.383 . S
C55 C56 1.394 . S
C56 C55 1.394 . S
C56 C57 1.378 . S
C56 H78 0.931 . S
C57 C52 1.377 . S
C57 C56 1.378 . S
C57 H79 0.931 . S
C58 O68 1.259 . S
C58 O69 1.270 . S
C59 O70 1.251 . S
C59 O71 1.251 . S
O60 C40 1.257 . S
O60 Eu41 2.473 . S
O61 C40 1.260 . S
O61 Eu41 2.480 . S
O62 Eu41 2.430 . S
O62 C48 1.259 . S
O63 Eu41 2.670 . S
O63 C48 1.270 . S
O63 Eu51 2.355 . S
O64 Eu41 2.394 . S
O64 C49 1.251 . S
O65 C49 1.251 . S
O65 Eu51 2.374 . S
O66 C50 1.257 . S
O66 Eu51 2.473 . S
O67 C50 1.260 . S
O67 Eu51 2.480 . S
O68 Eu51 2.430 . S
O68 C58 1.259 . S
O69 Eu41 2.355 . S
O69 Eu51 2.670 . S
O69 C58 1.270 . S
O70 Eu51 2.394 . S
O70 C59 1.251 . S
O71 Eu41 2.374 . S
O71 C59 1.251 . S
H72 C43 0.931 . S
H73 C44 0.931 . S
H74 C46 0.931 . S
H75 C47 0.931 . S
H76 C53 0.931 . S
H77 C54 0.931 . S
H78 C56 0.931 . S
H79 C57 0.931 . S
C80 Eu81 2.835 . S
C80 C82 1.500 . S
C80 O100 1.257 . S
C80 O101 1.260 . S
Eu81 C80 2.835 . S
Eu81 O100 2.473 . S
Eu81 O101 2.480 . S
Eu81 O102 2.430 . S
Eu81 O103 2.670 . S
Eu81 O104 2.394 . S
Eu81 O109 2.355 . S
Eu81 O111 2.374 . S
C82 C80 1.500 . S
C82 C83 1.377 . S
C82 C87 1.377 1_565 S
C83 C82 1.377 . S
C83 C84 1.395 . S
C83 H112 0.931 . S
C84 C83 1.395 . S
C84 C85 1.383 1_565 S
C84 H113 0.931 . S
C85 C84 1.383 1_545 S
C85 C86 1.394 . S
C86 C85 1.394 . S
C86 C87 1.378 . S
C86 H114 0.931 . S
C87 C82 1.377 1_545 S
C87 C86 1.378 . S
C87 H115 0.931 . S
C88 O102 1.259 . S
C88 O103 1.270 . S
C89 O104 1.251 . S
C89 O105 1.251 . S
C90 Eu91 2.835 . S
C90 C92 1.500 . S
C90 O106 1.257 . S
C90 O107 1.260 . S
Eu91 C90 2.835 . S
Eu91 O103 2.355 . S
Eu91 O105 2.374 . S
Eu91 O106 2.473 . S
Eu91 O107 2.480 . S
Eu91 O108 2.430 . S
Eu91 O109 2.670 . S
Eu91 O110 2.394 . S
C92 C90 1.500 . S
C92 C93 1.377 . S
C92 C97 1.377 . S
C93 C92 1.377 . S
C93 C94 1.395 . S
C93 H116 0.931 . S
C94 C93 1.395 . S
C94 C95 1.383 . S
C94 H117 0.931 . S
C95 C94 1.383 . S
C95 C96 1.394 . S
C96 C95 1.394 . S
C96 C97 1.378 . S
C96 H118 0.931 . S
C97 C92 1.377 . S
C97 C96 1.378 . S
C97 H119 0.931 . S
C98 O108 1.259 . S
C98 O109 1.270 . S
C99 O110 1.251 . S
C99 O111 1.251 . S
O100 C80 1.257 . S
O100 Eu81 2.473 . S
O101 C80 1.260 . S
O101 Eu81 2.480 . S
O102 Eu81 2.430 . S
O102 C88 1.259 . S
O103 Eu81 2.670 . S
O103 C88 1.270 . S
O103 Eu91 2.355 . S
O104 Eu81 2.394 . S
O104 C89 1.251 . S
O105 C89 1.251 . S
O105 Eu91 2.374 . S
O106 C90 1.257 . S
O106 Eu91 2.473 . S
O107 C90 1.260 . S
O107 Eu91 2.480 . S
O108 Eu91 2.430 . S
O108 C98 1.259 . S
O109 Eu81 2.355 . S
O109 Eu91 2.670 . S
O109 C98 1.270 . S
O110 Eu91 2.394 . S
O110 C99 1.251 . S
O111 Eu81 2.374 . S
O111 C99 1.251 . S
H112 C83 0.931 . S
H113 C84 0.931 . S
H114 C86 0.931 . S
H115 C87 0.931 . S
H116 C93 0.931 . S
H117 C94 0.931 . S
H118 C96 0.931 . S
H119 C97 0.931 . S
C120 Eu121 2.835 1_556 S
C120 C122 1.500 . S
C120 O140 1.257 . S
C120 O141 1.260 . S
Eu121 C120 2.835 1_554 S
Eu121 O140 2.473 1_554 S
Eu121 O141 2.480 1_554 S
Eu121 O142 2.430 . S
Eu121 O143 2.670 . S
Eu121 O144 2.394 1_554 S
Eu121 O149 2.355 . S
Eu121 O151 2.374 . S
C122 C120 1.500 . S
C122 C123 1.377 . S
C122 C127 1.377 . S
C123 C122 1.377 . S
C123 C124 1.395 . S
C123 H152 0.931 . S
C124 C123 1.395 . S
C124 C125 1.383 . S
C124 H153 0.931 . S
C125 C124 1.383 . S
C125 C126 1.394 . S
C126 C125 1.394 . S
C126 C127 1.378 . S
C126 H154 0.931 . S
C127 C122 1.377 . S
C127 C126 1.378 . S
C127 H155 0.931 . S
C128 O142 1.259 . S
C128 O143 1.270 . S
C129 O144 1.251 . S
C129 O145 1.251 1_556 S
C130 Eu131 2.835 . S
C130 C132 1.500 . S
C130 O146 1.257 . S
C130 O147 1.260 . S
Eu131 C130 2.835 . S
Eu131 O143 2.355 . S
Eu131 O145 2.374 . S
Eu131 O146 2.473 . S
Eu131 O147 2.480 . S
Eu131 O148 2.430 . S
Eu131 O149 2.670 . S
Eu131 O150 2.394 . S
C132 C130 1.500 . S
C132 C133 1.377 . S
C132 C137 1.377 . S
C133 C132 1.377 . S
C133 C134 1.395 . S
C133 H156 0.931 . S
C134 C133 1.395 . S
C134 C135 1.383 . S
C134 H157 0.931 . S
C135 C134 1.383 . S
C135 C136 1.394 . S
C136 C135 1.394 . S
C136 C137 1.378 . S
C136 H158 0.931 . S
C137 C132 1.377 . S
C137 C136 1.378 . S
C137 H159 0.931 . S
C138 O148 1.259 . S
C138 O149 1.270 . S
C139 O150 1.251 . S
C139 O151 1.251 . S
O140 C120 1.257 . S
O140 Eu121 2.473 1_556 S
O141 C120 1.260 . S
O141 Eu121 2.480 1_556 S
O142 Eu121 2.430 . S
O142 C128 1.259 . S
O143 Eu121 2.670 . S
O143 C128 1.270 . S
O143 Eu131 2.355 . S
O144 Eu121 2.394 1_556 S
O144 C129 1.251 . S
O145 C129 1.251 1_554 S
O145 Eu131 2.374 . S
O146 C130 1.257 . S
O146 Eu131 2.473 . S
O147 C130 1.260 . S
O147 Eu131 2.480 . S
O148 Eu131 2.430 . S
O148 C138 1.259 . S
O149 Eu121 2.355 . S
O149 Eu131 2.670 . S
O149 C138 1.270 . S
O150 Eu131 2.394 . S
O150 C139 1.251 . S
O151 Eu121 2.374 . S
O151 C139 1.251 . S
H152 C123 0.931 . S
H153 C124 0.931 . S
H154 C126 0.931 . S
H155 C127 0.931 . S
H156 C133 0.931 . S
H157 C134 0.931 . S
H158 C136 0.931 . S
H159 C137 0.931 . S
C160 Eu161 2.835 . S
C160 C162 1.500 . S
C160 O180 1.257 . S
C160 O181 1.260 . S
Eu161 C160 2.835 . S
Eu161 O180 2.473 . S
Eu161 O181 2.480 . S
Eu161 O182 2.430 . S
Eu161 O183 2.670 . S
Eu161 O184 2.394 . S
Eu161 O189 2.355 . S
Eu161 O191 2.374 . S
C162 C160 1.500 . S
C162 C163 1.377 . S
C162 C167 1.377 1_455 S
C163 C162 1.377 . S
C163 C164 1.395 . S
C163 H192 0.931 . S
C164 C163 1.395 . S
C164 C165 1.383 1_455 S
C164 H193 0.931 . S
C165 C164 1.383 1_655 S
C165 C166 1.394 . S
C166 C165 1.394 . S
C166 C167 1.378 . S
C166 H194 0.931 . S
C167 C162 1.377 1_655 S
C167 C166 1.378 . S
C167 H195 0.931 . S
C168 O182 1.259 . S
C168 O183 1.270 . S
C169 O184 1.251 . S
C169 O185 1.251 . S
C170 Eu171 2.835 . S
C170 C172 1.500 . S
C170 O186 1.257 . S
C170 O187 1.260 . S
Eu171 C170 2.835 . S
Eu171 O183 2.355 . S
Eu171 O185 2.374 . S
Eu171 O186 2.473 . S
Eu171 O187 2.480 . S
Eu171 O188 2.430 . S
Eu171 O189 2.670 . S
Eu171 O190 2.394 . S
C172 C170 1.500 . S
C172 C173 1.377 . S
C172 C177 1.377 . S
C173 C172 1.377 . S
C173 C174 1.395 . S
C173 H196 0.931 . S
C174 C173 1.395 . S
C174 C175 1.383 . S
C174 H197 0.931 . S
C175 C174 1.383 . S
C175 C176 1.394 . S
C176 C175 1.394 . S
C176 C177 1.378 . S
C176 H198 0.931 . S
C177 C172 1.377 . S
C177 C176 1.378 . S
C177 H199 0.931 . S
C178 O188 1.259 . S
C178 O189 1.270 . S
C179 O190 1.251 . S
C179 O191 1.251 . S
O180 C160 1.257 . S
O180 Eu161 2.473 . S
O181 C160 1.260 . S
O181 Eu161 2.480 . S
O182 Eu161 2.430 . S
O182 C168 1.259 . S
O183 Eu161 2.670 . S
O183 C168 1.270 . S
O183 Eu171 2.355 . S
O184 Eu161 2.394 . S
O184 C169 1.251 . S
O185 C169 1.251 . S
O185 Eu171 2.374 . S
O186 C170 1.257 . S
O186 Eu171 2.473 . S
O187 C170 1.260 . S
O187 Eu171 2.480 . S
O188 Eu171 2.430 . S
O188 C178 1.259 . S
O189 Eu161 2.355 . S
O189 Eu171 2.670 . S
O189 C178 1.270 . S
O190 Eu171 2.394 . S
O190 C179 1.251 . S
O191 Eu161 2.374 . S
O191 C179 1.251 . S
H192 C163 0.931 . S
H193 C164 0.931 . S
H194 C166 0.931 . S
H195 C167 0.931 . S
H196 C173 0.931 . S
H197 C174 0.931 . S
H198 C176 0.931 . S
H199 C177 0.931 . S
C200 Eu201 2.835 . S
C200 C202 1.500 . S
C200 O220 1.257 . S
C200 O221 1.260 . S
Eu201 C200 2.835 . S
Eu201 O220 2.473 . S
Eu201 O221 2.480 . S
Eu201 O222 2.430 . S
Eu201 O223 2.670 . S
Eu201 O224 2.394 . S
Eu201 O229 2.355 . S
Eu201 O231 2.374 . S
C202 C200 1.500 . S
C202 C203 1.377 . S
C202 C207 1.377 1_545 S
C203 C202 1.377 . S
C203 C204 1.395 . S
C203 H232 0.931 . S
C204 C203 1.395 . S
C204 C205 1.383 1_545 S
C204 H233 0.931 . S
C205 C204 1.383 1_565 S
C205 C206 1.394 . S
C206 C205 1.394 . S
C206 C207 1.378 . S
C206 H234 0.931 . S
C207 C202 1.377 1_565 S
C207 C206 1.378 . S
C207 H235 0.931 . S
C208 O222 1.259 . S
C208 O223 1.270 . S
C209 O224 1.251 . S
C209 O225 1.251 . S
C210 Eu211 2.835 . S
C210 C212 1.500 . S
C210 O226 1.257 . S
C210 O227 1.260 . S
Eu211 C210 2.835 . S
Eu211 O223 2.355 . S
Eu211 O225 2.374 . S
Eu211 O226 2.473 . S
Eu211 O227 2.480 . S
Eu211 O228 2.430 . S
Eu211 O229 2.670 . S
Eu211 O230 2.394 . S
C212 C210 1.500 . S
C212 C213 1.377 . S
C212 C217 1.377 . S
C213 C212 1.377 . S
C213 C214 1.395 . S
C213 H236 0.931 . S
C214 C213 1.395 . S
C214 C215 1.383 . S
C214 H237 0.931 . S
C215 C214 1.383 . S
C215 C216 1.394 . S
C216 C215 1.394 . S
C216 C217 1.378 . S
C216 H238 0.931 . S
C217 C212 1.377 . S
C217 C216 1.378 . S
C217 H239 0.931 . S
C218 O228 1.259 . S
C218 O229 1.270 . S
C219 O230 1.251 . S
C219 O231 1.251 . S
O220 C200 1.257 . S
O220 Eu201 2.473 . S
O221 C200 1.260 . S
O221 Eu201 2.480 . S
O222 Eu201 2.430 . S
O222 C208 1.259 . S
O223 Eu201 2.670 . S
O223 C208 1.270 . S
O223 Eu211 2.355 . S
O224 Eu201 2.394 . S
O224 C209 1.251 . S
O225 C209 1.251 . S
O225 Eu211 2.374 . S
O226 C210 1.257 . S
O226 Eu211 2.473 . S
O227 C210 1.260 . S
O227 Eu211 2.480 . S
O228 Eu211 2.430 . S
O228 C218 1.259 . S
O229 Eu201 2.355 . S
O229 Eu211 2.670 . S
O229 C218 1.270 . S
O230 Eu211 2.394 . S
O230 C219 1.251 . S
O231 Eu201 2.374 . S
O231 C219 1.251 . S
H232 C203 0.931 . S
H233 C204 0.931 . S
H234 C206 0.931 . S
H235 C207 0.931 . S
H236 C213 0.931 . S
H237 C214 0.931 . S
H238 C216 0.931 . S
H239 C217 0.931 . S
C240 C241 1.369 . S
C240 C242 1.419 . S
C240 H244 0.930 . S
C241 C240 1.369 . S
C241 C250 1.429 . S
C242 C240 1.419 . S
C242 C243 1.363 . S
C242 H245 0.929 . S
C243 C242 1.363 . S
C243 C249 1.428 . S
H244 C240 0.930 . S
H245 C242 0.929 . S
S246 N247 1.613 . S
S246 N248 1.610 . S
N247 S246 1.613 . S
N247 C250 1.350 . S
N248 S246 1.610 . S
N248 C249 1.351 . S
C249 C243 1.428 . S
C249 N248 1.351 . S
C249 C250 1.434 . S
C250 C241 1.429 . S
C250 N247 1.350 . S
C250 C249 1.434 . S
C251 C252 1.369 . S
C251 C253 1.419 . S
C251 H255 0.930 . S
C252 C251 1.369 . S
C252 C261 1.429 . S
C253 C251 1.419 . S
C253 C254 1.363 . S
C253 H256 0.929 . S
C254 C253 1.363 . S
C254 C260 1.428 . S
H255 C251 0.930 . S
H256 C253 0.929 . S
S257 N258 1.613 . S
S257 N259 1.610 . S
N258 S257 1.613 . S
N258 C261 1.350 . S
N259 S257 1.610 . S
N259 C260 1.351 . S
C260 C254 1.428 . S
C260 N259 1.351 . S
C260 C261 1.434 . S
C261 C252 1.429 . S
C261 N258 1.350 . S
C261 C260 1.434 . S
C262 C263 1.369 . S
C262 C264 1.419 . S
C262 H266 0.930 . S
C263 C262 1.369 . S
C263 C272 1.429 . S
C264 C262 1.419 . S
C264 C265 1.363 . S
C264 H267 0.929 . S
C265 C264 1.363 . S
C265 C271 1.428 . S
H266 C262 0.930 . S
H267 C264 0.929 . S
S268 N269 1.613 . S
S268 N270 1.610 . S
N269 S268 1.613 . S
N269 C272 1.350 . S
N270 S268 1.610 . S
N270 C271 1.351 . S
C271 C265 1.428 . S
C271 N270 1.351 . S
C271 C272 1.434 . S
C272 C263 1.429 . S
C272 N269 1.350 . S
C272 C271 1.434 . S
C273 C274 1.369 . S
C273 C275 1.419 . S
C273 H277 0.930 . S
C274 C273 1.369 . S
C274 C283 1.429 . S
C275 C273 1.419 . S
C275 C276 1.363 . S
C275 H278 0.929 . S
C276 C275 1.363 . S
C276 C282 1.428 . S
H277 C273 0.930 . S
H278 C275 0.929 . S
S279 N280 1.613 . S
S279 N281 1.610 . S
N280 S279 1.613 . S
N280 C283 1.350 . S
N281 S279 1.610 . S
N281 C282 1.351 . S
C282 C276 1.428 . S
C282 N281 1.351 . S
C282 C283 1.434 . S
C283 C274 1.429 . S
C283 N280 1.350 . S
C283 C282 1.434 . S
C284 C285 1.369 . S
C284 C286 1.419 . S
C284 H288 0.930 . S
C285 C284 1.369 . S
C285 C294 1.429 . S
C286 C284 1.419 . S
C286 C287 1.363 . S
C286 H289 0.929 . S
C287 C286 1.363 . S
C287 C293 1.428 . S
H288 C284 0.930 . S
H289 C286 0.929 . S
S290 N291 1.613 . S
S290 N292 1.610 . S
N291 S290 1.613 . S
N291 C294 1.350 . S
N292 S290 1.610 . S
N292 C293 1.351 . S
C293 C287 1.428 . S
C293 N292 1.351 . S
C293 C294 1.434 . S
C294 C285 1.429 . S
C294 N291 1.350 . S
C294 C293 1.434 . S
C295 C296 1.369 . S
C295 C297 1.419 . S
C295 H299 0.930 . S
C296 C295 1.369 . S
C296 C305 1.429 . S
C297 C295 1.419 . S
C297 C298 1.363 . S
C297 H300 0.929 . S
C298 C297 1.363 . S
C298 C304 1.428 . S
H299 C295 0.930 . S
H300 C297 0.929 . S
S301 N302 1.613 . S
S301 N303 1.610 . S
N302 S301 1.613 . S
N302 C305 1.350 . S
N303 S301 1.610 . S
N303 C304 1.351 . S
C304 C298 1.428 . S
C304 N303 1.351 . S
C304 C305 1.434 . S
C305 C296 1.429 . S
C305 N302 1.350 . S
C305 C304 1.434 . S
C306 C307 1.369 . S
C306 C308 1.419 . S
C306 H310 0.930 . S
C307 C306 1.369 . S
C307 C316 1.429 . S
C308 C306 1.419 . S
C308 C309 1.363 . S
C308 H311 0.929 . S
C309 C308 1.363 . S
C309 C315 1.428 . S
H310 C306 0.930 . S
H311 C308 0.929 . S
S312 N313 1.613 . S
S312 N314 1.610 . S
N313 S312 1.613 . S
N313 C316 1.350 . S
N314 S312 1.610 . S
N314 C315 1.351 . S
C315 C309 1.428 . S
C315 N314 1.351 . S
C315 C316 1.434 . S
C316 C307 1.429 . S
C316 N313 1.350 . S
C316 C315 1.434 . S
C317 C318 1.369 . S
C317 C319 1.419 . S
C317 H321 0.930 . S
C318 C317 1.369 . S
C318 C327 1.429 1_455 S
C319 C317 1.419 . S
C319 C320 1.363 1_455 S
C319 H322 0.929 . S
C320 C319 1.363 1_655 S
C320 C326 1.428 . S
H321 C317 0.930 . S
H322 C319 0.929 . S
S323 N324 1.613 . S
S323 N325 1.610 . S
N324 S323 1.613 . S
N324 C327 1.350 . S
N325 S323 1.610 . S
N325 C326 1.351 . S
C326 C320 1.428 . S
C326 N325 1.351 . S
C326 C327 1.434 . S
C327 C318 1.429 1_655 S
C327 N324 1.350 . S
C327 C326 1.434 . S
C328 C329 1.369 1_565 S
C328 C330 1.419 . S
C328 H332 0.930 . S
C329 C328 1.369 1_545 S
C329 C338 1.429 . S
C330 C328 1.419 . S
C330 C331 1.363 . S
C330 H333 0.929 . S
C331 C330 1.363 . S
C331 C337 1.428 1_565 S
H332 C328 0.930 . S
H333 C330 0.929 . S
S334 N335 1.613 . S
S334 N336 1.610 . S
N335 S334 1.613 . S
N335 C338 1.350 . S
N336 S334 1.610 . S
N336 C337 1.351 . S
C337 C331 1.428 1_545 S
C337 N336 1.351 . S
C337 C338 1.434 . S
C338 C329 1.429 . S
C338 N335 1.350 . S
C338 C337 1.434 . S
C339 C340 1.369 . S
C339 C341 1.419 . S
C339 H343 0.930 . S
C340 C339 1.369 . S
C340 C349 1.429 . S
C341 C339 1.419 . S
C341 C342 1.363 . S
C341 H344 0.929 . S
C342 C341 1.363 . S
C342 C348 1.428 . S
H343 C339 0.930 . S
H344 C341 0.929 . S
S345 N346 1.613 . S
S345 N347 1.610 . S
N346 S345 1.613 . S
N346 C349 1.350 . S
N347 S345 1.610 . S
N347 C348 1.351 . S
C348 C342 1.428 . S
C348 N347 1.351 . S
C348 C349 1.434 . S
C349 C340 1.429 . S
C349 N346 1.350 . S
C349 C348 1.434 . S
C350 C351 1.369 1_655 S
C350 C352 1.419 . S
C350 H354 0.930 . S
C351 C350 1.369 1_455 S
C351 C360 1.429 . S
C352 C350 1.419 . S
C352 C353 1.363 . S
C352 H355 0.929 . S
C353 C352 1.363 . S
C353 C359 1.428 1_655 S
H354 C350 0.930 . S
H355 C352 0.929 . S
S356 N357 1.613 . S
S356 N358 1.610 . S
N357 S356 1.613 . S
N357 C360 1.350 . S
N358 S356 1.610 . S
N358 C359 1.351 . S
C359 C353 1.428 1_455 S
C359 N358 1.351 . S
C359 C360 1.434 . S
C360 C351 1.429 . S
C360 N357 1.350 . S
C360 C359 1.434 . S
C361 C362 1.369 1_545 S
C361 C363 1.419 . S
C361 H365 0.930 . S
C362 C361 1.369 1_565 S
C362 C371 1.429 . S
C363 C361 1.419 . S
C363 C364 1.363 . S
C363 H366 0.929 . S
C364 C363 1.363 . S
C364 C370 1.428 1_545 S
H365 C361 0.930 . S
H366 C363 0.929 . S
S367 N368 1.613 . S
S367 N369 1.610 . S
N368 S367 1.613 . S
N368 C371 1.350 . S
N369 S367 1.610 . S
N369 C370 1.351 . S
C370 C364 1.428 1_565 S
C370 N369 1.351 . S
C370 C371 1.434 . S
C371 C362 1.429 . S
C371 N368 1.350 . S
C371 C370 1.434 . S
C372 C373 1.369 . S
C372 C374 1.419 . S
C372 H376 0.930 . S
C373 C372 1.369 . S
C373 C382 1.429 . S
C374 C372 1.419 . S
C374 C375 1.363 . S
C374 H377 0.929 . S
C375 C374 1.363 . S
C375 C381 1.428 . S
H376 C372 0.930 . S
H377 C374 0.929 . S
S378 N379 1.613 . S
S378 N380 1.610 . S
N379 S378 1.613 . S
N379 C382 1.350 . S
N380 S378 1.610 . S
N380 C381 1.351 . S
C381 C375 1.428 . S
C381 N380 1.351 . S
C381 C382 1.434 . S
C382 C373 1.429 . S
C382 N379 1.350 . S
C382 C381 1.434 . S
C383 C384 1.369 . S
C383 C385 1.419 . S
C383 H387 0.930 . S
C384 C383 1.369 . S
C384 C393 1.429 . S
C385 C383 1.419 . S
C385 C386 1.363 . S
C385 H388 0.929 . S
C386 C385 1.363 . S
C386 C392 1.428 . S
H387 C383 0.930 . S
H388 C385 0.929 . S
S389 N390 1.613 . S
S389 N391 1.610 1_655 S
N390 S389 1.613 . S
N390 C393 1.350 1_655 S
N391 S389 1.610 1_455 S
N391 C392 1.351 . S
C392 C386 1.428 . S
C392 N391 1.351 . S
C392 C393 1.434 . S
C393 C384 1.429 . S
C393 N390 1.350 1_455 S
C393 C392 1.434 . S
C394 C395 1.369 . S
C394 C396 1.419 . S
C394 H398 0.930 1_545 S
C395 C394 1.369 . S
C395 C404 1.429 . S
C396 C394 1.419 . S
C396 C397 1.363 . S
C396 H399 0.929 . S
C397 C396 1.363 . S
C397 C403 1.428 . S
H398 C394 0.930 1_565 S
H399 C396 0.929 . S
S400 N401 1.613 1_455 S
S400 N402 1.610 1_455 S
N401 S400 1.613 1_655 S
N401 C404 1.350 . S
N402 S400 1.610 1_655 S
N402 C403 1.351 . S
C403 C397 1.428 . S
C403 N402 1.351 . S
C403 C404 1.434 . S
C404 C395 1.429 . S
C404 N401 1.350 . S
C404 C403 1.434 . S
C405 C406 1.369 . S
C405 C407 1.419 . S
C405 H409 0.930 . S
C406 C405 1.369 . S
C406 C415 1.429 . S
C407 C405 1.419 . S
C407 C408 1.363 . S
C407 H410 0.929 . S
C408 C407 1.363 . S
C408 C414 1.428 . S
H409 C405 0.930 . S
H410 C407 0.929 . S
S411 N412 1.613 1_545 S
S411 N413 1.610 . S
N412 S411 1.613 1_565 S
N412 C415 1.350 . S
N413 S411 1.610 . S
N413 C414 1.351 1_545 S
C414 C408 1.428 . S
C414 N413 1.351 1_565 S
C414 C415 1.434 . S
C415 C406 1.429 . S
C415 N412 1.350 . S
C415 C414 1.434 . S
C416 C417 1.369 . S
C416 C418 1.419 . S
C416 H420 0.930 1_655 S
C417 C416 1.369 . S
C417 C426 1.429 . S
C418 C416 1.419 . S
C418 C419 1.363 . S
C418 H421 0.929 . S
C419 C418 1.363 . S
C419 C425 1.428 . S
H420 C416 0.930 1_455 S
H421 C418 0.929 . S
S422 N423 1.613 . S
S422 N424 1.610 . S
N423 S422 1.613 . S
N423 C426 1.350 . S
N424 S422 1.610 . S
N424 C425 1.351 . S
C425 C419 1.428 . S
C425 N424 1.351 . S
C425 C426 1.434 . S
C426 C417 1.429 . S
C426 N423 1.350 . S
C426 C425 1.434 . S
C427 C428 1.369 . S
C427 C429 1.419 . S
C427 H431 0.930 1_565 S
C428 C427 1.369 . S
C428 C437 1.429 . S
C429 C427 1.419 . S
C429 C430 1.363 . S
C429 H432 0.929 . S
C430 C429 1.363 . S
C430 C436 1.428 . S
H431 C427 0.930 1_545 S
H432 C429 0.929 . S
S433 N434 1.613 . S
S433 N435 1.610 1_655 S
N434 S433 1.613 . S
N434 C437 1.350 1_655 S
N435 S433 1.610 1_455 S
N435 C436 1.351 . S
C436 C430 1.428 . S
C436 N435 1.351 . S
C436 C437 1.434 . S
C437 C428 1.429 . S
C437 N434 1.350 1_455 S
C437 C436 1.434 . S
C241 C169 1.214 . S
C243 C15 1.217 . S
C252 C209 1.214 . S
C254 C55 1.215 . S
C263 C9 1.215 . S
C265 C95 1.216 . S
C274 C49 1.216 . S
C276 C135 1.213 . S
C285 C89 1.213 . S
C287 C175 1.217 . S
C296 C129 1.218 . S
C298 C215 1.212 . S
C307 C18 1.220 . S
C309 C138 1.202 . S
C318 C178 1.220 . S
C320 C58 1.201 . S
C329 C218 1.200 . S
C331 C98 1.216 . S
C340 C88 1.528 . S
C342 C208 1.530 . S
C351 C8 1.528 . S
C353 C128 1.531 . S
C362 C168 1.529 . S
C364 C48 1.532 . S
C373 C219 1.337 . S
C375 C5 1.283 . S
C384 C45 1.283 . S
C386 C19 1.337 . S
C395 C85 1.290 . S
C397 C59 1.332 . S
C406 C99 1.334 . S
C408 C125 1.291 . S
C417 C165 1.285 . S
C419 C139 1.334 . S
C428 C205 1.291 . S
C430 C179 1.332 . S
