# Generated by pormake.
# Topology yfb, (5)-cn, num edge types: 1
# Building blocks:
#     Node 0, Type 0, BuildingBlock: XOMCOT_clean_sbu_1, # of connection points: 5
#     Node 1, Type 0, BuildingBlock: XOMCOT_clean_sbu_1, # of connection points: 5
#     Node 2, Type 0, BuildingBlock: XOMCOT_clean_sbu_1, # of connection points: 5
#     Node 3, Type 0, BuildingBlock: XOMCOT_clean_sbu_1, # of connection points: 5
#     Node 4, Type 0, BuildingBlock: XOMCOT_clean_sbu_1, # of connection points: 5
#     Node 5, Type 0, BuildingBlock: XOMCOT_clean_sbu_1, # of connection points: 5
#     Node 6, Type 0, BuildingBlock: XOMCOT_clean_sbu_1, # of connection points: 5
#     Node 7, Type 0, BuildingBlock: XOMCOT_clean_sbu_1, # of connection points: 5
#     Node 8, Type 0, BuildingBlock: XOMCOT_clean_sbu_1, # of connection points: 5
#     Node 9, Type 0, BuildingBlock: XOMCOT_clean_sbu_1, # of connection points: 5
#     Node 10, Type 0, BuildingBlock: XOMCOT_clean_sbu_1, # of connection points: 5
#     Node 11, Type 0, BuildingBlock: XOMCOT_clean_sbu_1, # of connection points: 5
#     Node 12, Type 0, BuildingBlock: XOMCOT_clean_sbu_1, # of connection points: 5
#     Node 13, Type 0, BuildingBlock: XOMCOT_clean_sbu_1, # of connection points: 5
#     Node 14, Type 0, BuildingBlock: XOMCOT_clean_sbu_1, # of connection points: 5
#     Node 15, Type 0, BuildingBlock: XOMCOT_clean_sbu_1, # of connection points: 5
#     Edge 16, Type (0, 0), BuildingBlock: MIFKUJ_clean_linker_0, # of connection points: 2
#     Edge 17, Type (0, 0), BuildingBlock: MIFKUJ_clean_linker_0, # of connection points: 2
#     Edge 18, Type (0, 0), BuildingBlock: MIFKUJ_clean_linker_0, # of connection points: 2
#     Edge 19, Type (0, 0), BuildingBlock: MIFKUJ_clean_linker_0, # of connection points: 2
#     Edge 20, Type (0, 0), BuildingBlock: MIFKUJ_clean_linker_0, # of connection points: 2
#     Edge 21, Type (0, 0), BuildingBlock: MIFKUJ_clean_linker_0, # of connection points: 2
#     Edge 22, Type (0, 0), BuildingBlock: MIFKUJ_clean_linker_0, # of connection points: 2
#     Edge 23, Type (0, 0), BuildingBlock: MIFKUJ_clean_linker_0, # of connection points: 2
#     Edge 24, Type (0, 0), BuildingBlock: MIFKUJ_clean_linker_0, # of connection points: 2
#     Edge 25, Type (0, 0), BuildingBlock: MIFKUJ_clean_linker_0, # of connection points: 2
#     Edge 26, Type (0, 0), BuildingBlock: MIFKUJ_clean_linker_0, # of connection points: 2
#     Edge 27, Type (0, 0), BuildingBlock: MIFKUJ_clean_linker_0, # of connection points: 2
#     Edge 28, Type (0, 0), BuildingBlock: MIFKUJ_clean_linker_0, # of connection points: 2
#     Edge 29, Type (0, 0), BuildingBlock: MIFKUJ_clean_linker_0, # of connection points: 2
#     Edge 30, Type (0, 0), BuildingBlock: MIFKUJ_clean_linker_0, # of connection points: 2
#     Edge 31, Type (0, 0), BuildingBlock: MIFKUJ_clean_linker_0, # of connection points: 2
#     Edge 32, Type (0, 0), BuildingBlock: MIFKUJ_clean_linker_0, # of connection points: 2
#     Edge 33, Type (0, 0), BuildingBlock: MIFKUJ_clean_linker_0, # of connection points: 2
#     Edge 34, Type (0, 0), BuildingBlock: MIFKUJ_clean_linker_0, # of connection points: 2
#     Edge 35, Type (0, 0), BuildingBlock: MIFKUJ_clean_linker_0, # of connection points: 2
#     Edge 36, Type (0, 0), BuildingBlock: MIFKUJ_clean_linker_0, # of connection points: 2
#     Edge 37, Type (0, 0), BuildingBlock: MIFKUJ_clean_linker_0, # of connection points: 2
#     Edge 38, Type (0, 0), BuildingBlock: MIFKUJ_clean_linker_0, # of connection points: 2
#     Edge 39, Type (0, 0), BuildingBlock: MIFKUJ_clean_linker_0, # of connection points: 2
#     Edge 40, Type (0, 0), BuildingBlock: MIFKUJ_clean_linker_0, # of connection points: 2
#     Edge 41, Type (0, 0), BuildingBlock: MIFKUJ_clean_linker_0, # of connection points: 2
#     Edge 42, Type (0, 0), BuildingBlock: MIFKUJ_clean_linker_0, # of connection points: 2
#     Edge 43, Type (0, 0), BuildingBlock: MIFKUJ_clean_linker_0, # of connection points: 2
#     Edge 44, Type (0, 0), BuildingBlock: MIFKUJ_clean_linker_0, # of connection points: 2
#     Edge 45, Type (0, 0), BuildingBlock: MIFKUJ_clean_linker_0, # of connection points: 2
#     Edge 46, Type (0, 0), BuildingBlock: MIFKUJ_clean_linker_0, # of connection points: 2
#     Edge 47, Type (0, 0), BuildingBlock: MIFKUJ_clean_linker_0, # of connection points: 2
#     Edge 48, Type (0, 0), BuildingBlock: MIFKUJ_clean_linker_0, # of connection points: 2
#     Edge 49, Type (0, 0), BuildingBlock: MIFKUJ_clean_linker_0, # of connection points: 2
#     Edge 50, Type (0, 0), BuildingBlock: MIFKUJ_clean_linker_0, # of connection points: 2
#     Edge 51, Type (0, 0), BuildingBlock: MIFKUJ_clean_linker_0, # of connection points: 2
#     Edge 52, Type (0, 0), BuildingBlock: MIFKUJ_clean_linker_0, # of connection points: 2
#     Edge 53, Type (0, 0), BuildingBlock: MIFKUJ_clean_linker_0, # of connection points: 2
#     Edge 54, Type (0, 0), BuildingBlock: MIFKUJ_clean_linker_0, # of connection points: 2
#     Edge 55, Type (0, 0), BuildingBlock: MIFKUJ_clean_linker_0, # of connection points: 2
# Relax obj value: 0.746
# Max RMSD: 0.274
# Mean RMSD: 0.274
data_MOF--net-yfb--node1-XOMCOT_clean_sbu_1--edge1-MIFKUJ_clean_linker_0
_symmetry_space_group_name_H-M    P1
_symmetry_Int_Tables_number       1
_symmetry_cell_setting            triclinic
loop_
_symmetry_equiv_pos_as_xyz
'x, y, z'
_cell_length_a     52.762818
_cell_length_b     52.73104
_cell_length_c     56.151556
_cell_angle_alpha  89.834655
_cell_angle_beta   90.008125
_cell_angle_gamma 90.092951
loop_
_atom_site_label
_atom_site_type_symbol
_atom_site_fract_x
_atom_site_fract_y
_atom_site_fract_z
_atom_type_partial_charge
C0 C 0.63879 0.02604 0.11035 0.0
C1 C 0.61656 0.01578 0.10167 0.0
N2 N 0.60443 0.03364 0.08875 0.0
N3 N 0.64073 0.05034 0.10314 0.0
C4 C 0.61931 0.0545 0.09037 0.0
H5 H 0.65345 0.01585 0.11983 0.0
Co6 Co 0.67029 0.07025 0.10411 0.0
C7 C 0.65344 0.12293 0.09558 0.0
O8 O 0.67328 0.12682 0.08188 0.0
N9 N 0.70058 0.09012 0.10528 0.0
C10 C 0.73849 0.10714 0.09826 0.0
C11 C 0.72263 0.08708 0.09344 0.0
C12 C 0.7044 0.11134 0.11844 0.0
N13 N 0.72677 0.12281 0.11362 0.0
O14 O 0.67091 0.06957 0.13842 0.0
H15 H 0.72706 0.07168 0.08157 0.0
H16 H 0.69003 0.11931 0.12992 0.0
O17 O 0.64936 0.10104 0.10467 0.0
C18 C 0.68879 0.05497 0.14519 0.0
O19 O 0.69965 0.04051 0.12913 0.0
N20 N 0.67142 0.06892 0.07055 0.0
C21 C 0.68331 0.064 0.02245 0.0
C22 C 0.66414 0.08064 0.02981 0.0
C23 C 0.6583 0.08271 0.05399 0.0
C24 C 0.68731 0.05015 0.06334 0.0
C25 C 0.69404 0.04772 0.03947 0.0
H26 H 0.64357 0.0957 0.05907 0.0
H27 H 0.69624 0.03812 0.07652 0.0
H28 H 0.61526 0.07217 0.0814 0.0
H29 H 0.6108 0.99615 0.10329 0.0
H30 H 0.75694 0.11026 0.09035 0.0
H31 H 0.65438 0.0926 0.0171 0.0
H32 H 0.70878 0.03437 0.03479 0.0
C33 C 0.46532 0.62697 0.11562 0.0
C34 C 0.47945 0.60665 0.10758 0.0
N35 N 0.46586 0.59416 0.09095 0.0
N36 N 0.44284 0.62724 0.10418 0.0
C37 C 0.44376 0.60698 0.08947 0.0
H38 H 0.47182 0.64161 0.12762 0.0
Co39 Co 0.41831 0.65277 0.1009 0.0
C40 C 0.38082 0.6207 0.09364 0.0
O41 O 0.3881 0.62742 0.07214 0.0
N42 N 0.39354 0.67768 0.09655 0.0
C43 C 0.36968 0.70767 0.08013 0.0
C44 C 0.39052 0.6924 0.07707 0.0
C45 C 0.37402 0.6839 0.111 0.0
N46 N 0.35928 0.70221 0.10144 0.0
O47 O 0.42336 0.66535 0.13297 0.0
H48 H 0.40247 0.69177 0.06144 0.0
H49 H 0.37046 0.67489 0.12802 0.0
O50 O 0.39253 0.62988 0.11146 0.0
C51 C 0.42567 0.65666 0.15403 0.0
O52 O 0.42597 0.63205 0.15774 0.0
N53 N 0.44308 0.67503 0.08919 0.0
C54 C 0.46799 0.71143 0.06169 0.0
C55 C 0.4677 0.68584 0.05477 0.0
C56 C 0.45451 0.66811 0.06844 0.0
C57 C 0.44615 0.69896 0.09792 0.0
C58 C 0.45832 0.71751 0.08434 0.0
H59 H 0.45172 0.64926 0.06143 0.0
H60 H 0.43671 0.70468 0.11411 0.0
H61 H 0.42946 0.60316 0.0762 0.0
H62 H 0.49869 0.60221 0.11278 0.0
H63 H 0.36211 0.721 0.06727 0.0
H64 H 0.47564 0.67986 0.03793 0.0
H65 H 0.45769 0.73685 0.09067 0.0
C66 C 0.87032 0.48214 0.11857 0.0
C67 C 0.89226 0.49296 0.10995 0.0
N68 N 0.90327 0.47664 0.09469 0.0
N69 N 0.86731 0.45894 0.10899 0.0
C70 C 0.88798 0.45596 0.09489 0.0
H71 H 0.85671 0.49137 0.12999 0.0
Co72 Co 0.83718 0.43965 0.11033 0.0
C73 C 0.85038 0.38827 0.09395 0.0
O74 O 0.82888 0.38777 0.08213 0.0
N75 N 0.80655 0.42049 0.11223 0.0
C76 C 0.7683 0.40348 0.10699 0.0
C77 C 0.78368 0.42389 0.10189 0.0
C78 C 0.80386 0.39854 0.12464 0.0
N79 N 0.78118 0.38722 0.12102 0.0
O80 O 0.83979 0.43598 0.14444 0.0
H81 H 0.77838 0.43961 0.09066 0.0
H82 H 0.81903 0.39029 0.13503 0.0
O83 O 0.85684 0.4082 0.10548 0.0
C84 C 0.82536 0.45197 0.15477 0.0
O85 O 0.81468 0.46967 0.14168 0.0
N86 N 0.83297 0.44529 0.07724 0.0
C87 C 0.81789 0.45518 0.0305 0.0
C88 C 0.83803 0.43858 0.03525 0.0
C89 C 0.84541 0.43401 0.05873 0.0
C90 C 0.81611 0.46423 0.0727 0.0
C91 C 0.80775 0.46906 0.04954 0.0
H92 H 0.86072 0.42092 0.06168 0.0
H93 H 0.80775 0.47444 0.08741 0.0
H94 H 0.89098 0.4396 0.08376 0.0
H95 H 0.89892 0.51189 0.11396 0.0
H96 H 0.74959 0.40029 0.09969 0.0
H97 H 0.8474 0.42842 0.02102 0.0
H98 H 0.79239 0.48236 0.04692 0.0
C99 C 0.01072 0.87131 0.11383 0.0
C100 C 1.00116 0.89322 0.10383 0.0
N101 N 0.01953 0.90438 0.09078 0.0
N102 N 0.03513 0.86851 0.10735 0.0
C103 C 0.04005 0.88925 0.09369 0.0
H104 H 0.99991 0.85732 0.12361 0.0
Co105 Co 0.05352 0.83791 0.11005 0.0
C106 C 0.10638 0.85027 0.09702 0.0
O107 O 0.10732 0.8289 0.08505 0.0
N108 N 0.07168 0.80679 0.11317 0.0
C109 C 0.08761 0.7679 0.10931 0.0
C110 C 0.06793 0.78377 0.10322 0.0
C111 C 0.09292 0.80368 0.12645 0.0
N112 N 0.10366 0.78065 0.12358 0.0
O113 O 0.05452 0.84015 0.14451 0.0
H114 H 0.0525 0.77868 0.0916 0.0
H115 H 0.10127 0.81877 0.13687 0.0
O116 O 0.0858 0.85689 0.10743 0.0
C117 C 0.03849 0.82466 0.15355 0.0
O118 O 0.02169 0.81446 0.13917 0.0
N119 N 0.05058 0.83405 0.07664 0.0
C120 C 0.0454 0.8192 0.02931 0.0
C121 C 0.06132 0.83947 0.03542 0.0
C122 C 0.06349 0.84677 0.05918 0.0
C123 C 0.03209 0.81725 0.07049 0.0
C124 C 0.0296 0.80898 0.04702 0.0
H125 H 0.07622 0.86211 0.06324 0.0
H126 H 0.0204 0.80885 0.08425 0.0
H127 H 0.05799 0.89261 0.08501 0.0
H128 H 0.98159 0.89929 0.10461 0.0
H129 H 0.09069 0.74903 0.10236 0.0
H130 H 0.07292 0.84887 0.02214 0.0
H131 H 0.01665 0.79356 0.04322 0.0
C132 C 0.6133 0.45836 0.38824 0.0
C133 C 0.59114 0.46975 0.39585 0.0
N134 N 0.59096 0.46964 0.41981 0.0
N135 N 0.62732 0.45148 0.40736 0.0
C136 C 0.61269 0.45805 0.42619 0.0
H137 H 0.61765 0.45362 0.37 0.0
Co138 Co 0.6546 0.42854 0.41077 0.0
C139 C 0.62317 0.39242 0.42395 0.0
O140 O 0.63036 0.40295 0.44404 0.0
N141 N 0.68022 0.40454 0.41561 0.0
C142 C 0.70948 0.3812 0.43375 0.0
C143 C 0.69504 0.40282 0.43512 0.0
C144 C 0.68554 0.38347 0.40287 0.0
N145 N 0.70336 0.36893 0.41353 0.0
O146 O 0.66399 0.43033 0.37678 0.0
H147 H 0.6947 0.41604 0.44982 0.0
H148 H 0.67586 0.37845 0.38655 0.0
O149 O 0.6316 0.40161 0.40454 0.0
C150 C 0.66891 0.44949 0.3635 0.0
O151 O 0.66506 0.47245 0.37178 0.0
N152 N 0.67796 0.45495 0.41856 0.0
C153 C 0.7174 0.47968 0.44226 0.0
C154 C 0.69222 0.48289 0.44952 0.0
C155 C 0.67291 0.46987 0.43781 0.0
C156 C 0.70197 0.45459 0.40928 0.0
C157 C 0.72194 0.46677 0.42088 0.0
H158 H 0.6546 0.46986 0.44601 0.0
H159 H 0.70662 0.44213 0.39469 0.0
H160 H 0.61675 0.45236 0.44431 0.0
H161 H 0.57586 0.4765 0.38464 0.0
H162 H 0.72244 0.37431 0.44723 0.0
H163 H 0.68772 0.49312 0.46567 0.0
H164 H 0.74104 0.46346 0.41459 0.0
C165 C 0.03364 0.62956 0.39916 0.0
C166 C 0.01944 0.60974 0.40843 0.0
N167 N 0.03416 0.59624 0.42348 0.0
N168 N 0.05731 0.62849 0.40819 0.0
C169 C 0.0569 0.60807 0.42288 0.0
H170 H 0.02663 0.64462 0.38785 0.0
Co171 Co 0.084 0.65227 0.40861 0.0
C172 C 0.11887 0.61643 0.40851 0.0
O173 O 0.11552 0.62117 0.43125 0.0
N174 N 0.11105 0.67541 0.41035 0.0
C175 C 0.13852 0.7037 0.4244 0.0
C176 C 0.11709 0.68986 0.42936 0.0
C177 C 0.12957 0.68033 0.39424 0.0
N178 N 0.14634 0.69764 0.40238 0.0
O179 O 0.07495 0.66729 0.37798 0.0
H180 H 0.10696 0.68998 0.44607 0.0
H181 H 0.13093 0.67118 0.37706 0.0
O182 O 0.10588 0.62866 0.39329 0.0
C183 C 0.06941 0.65961 0.35711 0.0
O184 O 0.06726 0.6352 0.35292 0.0
N185 N 0.06324 0.67496 0.42496 0.0
C186 C 0.0459 0.71112 0.457 0.0
C187 C 0.05067 0.68618 0.46452 0.0
C188 C 0.05935 0.66838 0.44815 0.0
C189 C 0.05637 0.69837 0.41677 0.0
C190 C 0.04743 0.7167 0.43256 0.0
H191 H 0.06538 0.64996 0.45446 0.0
H192 H 0.05974 0.70385 0.39851 0.0
H193 H 0.07239 0.60321 0.43455 0.0
H194 H 0.99957 0.60621 0.405 0.0
H195 H 0.14827 0.71644 0.43642 0.0
H196 H 0.0501 0.68103 0.48319 0.0
H197 H 0.0436 0.73563 0.42596 0.0
C198 C 0.87882 0.01834 0.39846 0.0
C199 C 0.90039 0.00843 0.40882 0.0
N200 N 0.90856 0.02452 0.42587 0.0
N201 N 0.87336 0.04068 0.40877 0.0
C202 C 0.89187 0.04398 0.42518 0.0
H203 H 0.86719 0.00919 0.38515 0.0
Co204 Co 0.84388 0.06041 0.40595 0.0
C205 C 0.88435 0.0986 0.39774 0.0
O206 O 0.89627 0.08442 0.38215 0.0
N207 N 0.81454 0.08008 0.40363 0.0
C208 C 0.7745 0.09265 0.40645 0.0
C209 C 0.79085 0.07249 0.40913 0.0
C210 C 0.81214 0.10475 0.39744 0.0
N211 N 0.78799 0.11301 0.39924 0.0
O212 O 0.8455 0.06008 0.37178 0.0
H213 H 0.78595 0.05367 0.41533 0.0
H214 H 0.82784 0.11656 0.3919 0.0
O215 O 0.86406 0.09066 0.4075 0.0
C216 C 0.82866 0.04483 0.36398 0.0
O217 O 0.81803 0.02914 0.37926 0.0
N218 N 0.84019 0.05989 0.43897 0.0
C219 C 0.82315 0.05723 0.48583 0.0
C220 C 0.83099 0.08043 0.47587 0.0
C221 C 0.83934 0.08138 0.45238 0.0
C222 C 0.83421 0.03694 0.44866 0.0
C223 C 0.82586 0.03512 0.4722 0.0
H224 H 0.84316 0.0997 0.44455 0.0
H225 H 0.83456 0.02015 0.43764 0.0
H226 H 0.89233 0.06008 0.43705 0.0
H227 H 0.90853 0.99013 0.4048 0.0
H228 H 0.75443 0.09254 0.41044 0.0
H229 H 0.82867 0.09813 0.48535 0.0
H230 H 0.8202 0.0168 0.47916 0.0
C231 C 0.49832 0.86238 0.39437 0.0
C232 C 0.50855 0.88468 0.40278 0.0
N233 N 0.49079 0.89693 0.41563 0.0
N234 N 0.4741 0.86038 0.4017 0.0
C235 C 0.46992 0.88199 0.41416 0.0
H236 H 0.50849 0.8478 0.38487 0.0
Co237 Co 0.4548 0.83031 0.40056 0.0
C238 C 0.40525 0.84382 0.4205 0.0
O239 O 0.40603 0.82249 0.43268 0.0
N240 N 0.43531 0.79978 0.39884 0.0
C241 C 0.41947 0.76063 0.40108 0.0
C242 C 0.43985 0.7759 0.4065 0.0
C243 C 0.41257 0.79796 0.3877 0.0
N244 N 0.40206 0.77463 0.38946 0.0
O245 O 0.45039 0.83325 0.36653 0.0
H246 H 0.45669 0.76952 0.41553 0.0
H247 H 0.40368 0.81385 0.37883 0.0
O248 O 0.42358 0.84977 0.4066 0.0
C249 C 0.46578 0.81757 0.35701 0.0
O250 O 0.48315 0.80736 0.37081 0.0
N251 N 0.46146 0.82563 0.43346 0.0
C252 C 0.47024 0.80843 0.47974 0.0
C253 C 0.45664 0.83092 0.47566 0.0
C254 C 0.45255 0.83929 0.45235 0.0
C255 C 0.47875 0.80698 0.43738 0.0
C256 C 0.48276 0.79742 0.46024 0.0
H257 H 0.44116 0.85599 0.44979 0.0
H258 H 0.48809 0.79818 0.4224 0.0
H259 H 0.45245 0.88591 0.42344 0.0
H260 H 0.528 0.89072 0.40044 0.0
H261 H 0.41741 0.74093 0.40615 0.0
H262 H 0.44799 0.84125 0.49016 0.0
H263 H 0.49408 0.78045 0.46208 0.0
C264 C 0.36308 0.99054 0.90681 0.0
C265 C 0.38523 1.00112 0.91533 0.0
N266 N 0.39867 0.98291 0.92649 0.0
N267 N 0.36249 0.96565 0.91233 0.0
C268 C 0.38468 0.96155 0.92396 0.0
H269 H 0.34755 1.00087 0.89886 0.0
Co270 Co 0.33344 0.94464 0.91107 0.0
C271 C 0.34901 0.89859 0.93645 0.0
O272 O 0.32712 0.8987 0.94764 0.0
N273 N 0.30419 0.92313 0.90941 0.0
C274 C 0.26579 0.9054 0.91085 0.0
C275 C 0.27955 0.92718 0.91479 0.0
C276 C 0.30439 0.89897 0.90107 0.0
N277 N 0.2815 0.88746 0.90241 0.0
O278 O 0.33891 0.93719 0.87801 0.0
H279 H 0.27154 0.94466 0.92114 0.0
H280 H 0.3213 0.88987 0.89438 0.0
O281 O 0.35404 0.9156 0.92089 0.0
C282 C 0.32597 0.95272 0.86551 0.0
O283 O 0.3155 0.9721 0.87636 0.0
N284 N 0.32649 0.954 0.94293 0.0
C285 C 0.3078 0.96535 0.98806 0.0
C286 C 0.33173 0.95406 0.98537 0.0
C287 C 0.34084 0.94871 0.9626 0.0
C288 C 0.30611 0.96956 0.94514 0.0
C289 C 0.29578 0.97465 0.96746 0.0
H290 H 0.35888 0.93935 0.9611 0.0
H291 H 0.29694 0.97687 0.92934 0.0
H292 H 0.38988 0.94356 0.93181 0.0
H293 H 0.39001 0.02109 0.91501 0.0
H294 H 0.24583 0.90292 0.9146 0.0
H295 H 0.34281 0.94818 1.00063 0.0
H296 H 0.27773 0.9843 0.96819 0.0
C297 C 0.53043 0.37393 0.89204 0.0
C298 C 0.51868 0.39481 0.90173 0.0
N299 N 0.5349 0.40619 0.91692 0.0
N300 N 0.55407 0.37202 0.90091 0.0
C301 C 0.55638 0.39223 0.91566 0.0
H302 H 0.5217 0.36019 0.88037 0.0
Co303 Co 0.57492 0.34334 0.89805 0.0
C304 C 0.62638 0.35955 0.91173 0.0
O305 O 0.62904 0.33804 0.92337 0.0
N306 N 0.59582 0.31409 0.89465 0.0
C307 C 0.61493 0.27654 0.89723 0.0
C308 C 0.59438 0.29068 0.90442 0.0
C309 C 0.61679 0.31309 0.88071 0.0
N310 N 0.62925 0.29083 0.88255 0.0
O311 O 0.57623 0.34689 0.86398 0.0
H312 H 0.57985 0.28419 0.91649 0.0
H313 H 0.62343 0.329 0.87021 0.0
O314 O 0.60531 0.36481 0.90153 0.0
C315 C 0.56222 0.32962 0.85503 0.0
O316 O 0.54691 0.31719 0.86939 0.0
N317 N 0.57149 0.338 0.93108 0.0
C318 C 0.56361 0.32094 0.9775 0.0
C319 C 0.57974 0.34158 0.97294 0.0
C320 C 0.58325 0.35002 0.94959 0.0
C321 C 0.55322 0.32038 0.93559 0.0
C322 C 0.5493 0.31115 0.95858 0.0
H323 H 0.59581 0.36583 0.94667 0.0
H324 H 0.54277 0.31221 0.92091 0.0
H325 H 0.57289 0.39572 0.92651 0.0
H326 H 0.49928 0.40049 0.89849 0.0
H327 H 0.61964 0.25768 0.90345 0.0
H328 H 0.59032 0.35052 0.98717 0.0
H329 H 0.53643 0.29536 0.96109 0.0
C330 C 0.12842 0.52874 0.89501 0.0
C331 C 0.10682 0.51791 0.9044 0.0
N332 N 0.09776 0.53318 0.92163 0.0
N333 N 0.13311 0.55088 0.90612 0.0
C334 C 0.11387 0.5532 0.922 0.0
H335 H 0.14063 0.5202 0.88186 0.0
Co336 Co 0.1633 0.56995 0.90436 0.0
C337 C 0.15002 0.62109 0.92217 0.0
O338 O 0.17168 0.6223 0.9337 0.0
N339 N 0.19377 0.58911 0.90229 0.0
C340 C 0.23181 0.60636 0.90814 0.0
C341 C 0.21664 0.58554 0.91254 0.0
C342 C 0.19613 0.61161 0.89074 0.0
N343 N 0.21865 0.62306 0.89479 0.0
O344 O 0.1592 0.57527 0.87065 0.0
H345 H 0.22179 0.56953 0.92352 0.0
H346 H 0.18077 0.62029 0.88091 0.0
O347 O 0.14399 0.60098 0.91079 0.0
C348 C 0.17253 0.55955 0.8588 0.0
O349 O 0.18352 0.54085 0.87035 0.0
N350 N 0.16898 0.56255 0.93678 0.0
C351 C 0.18549 0.54634 0.98155 0.0
C352 C 0.16827 0.56651 0.97935 0.0
C353 C 0.15977 0.57395 0.95682 0.0
C354 C 0.18348 0.54132 0.93876 0.0
C355 C 0.192 0.53289 0.9609 0.0
H356 H 0.14601 0.58894 0.95583 0.0
H357 H 0.18935 0.53147 0.92281 0.0
H358 H 0.11261 0.56847 0.93473 0.0
H359 H 0.09899 0.4997 0.89945 0.0
H360 H 0.25041 0.60966 0.91565 0.0
H361 H 0.16215 0.57724 0.99471 0.0
H362 H 0.20429 0.51649 0.96167 0.0
C363 C 0.98126 0.13057 0.89012 0.0
C364 C 0.99054 0.1086 0.90023 0.0
N365 N 0.97205 0.09776 0.91336 0.0
N366 N 0.95688 0.13372 0.89657 0.0
C367 C 0.95171 0.11315 0.91039 0.0
H368 H 0.9923 0.14439 0.88036 0.0
Co369 Co 0.93894 0.16458 0.89374 0.0
C370 C 0.8876 0.1538 0.91205 0.0
O371 O 0.88829 0.1753 0.92384 0.0
N372 N 0.92102 0.19586 0.89054 0.0
C373 C 0.90687 0.23564 0.8923 0.0
C374 C 0.92662 0.21963 0.89783 0.0
C375 C 0.89831 0.19848 0.87948 0.0
N376 N 0.8888 0.22221 0.881 0.0
O377 O 0.93413 0.16016 0.85984 0.0
H378 H 0.94367 0.2254 0.90687 0.0
H379 H 0.88852 0.18284 0.87112 0.0
O380 O 0.90685 0.14669 0.89992 0.0
C381 C 0.95016 0.17193 0.84681 0.0
O382 O 0.97051 0.18134 0.85698 0.0
N383 N 0.94528 0.17038 0.92643 0.0
C384 C 0.95409 0.18848 0.97231 0.0
C385 C 0.93884 0.16697 0.9686 0.0
C386 C 0.93467 0.15821 0.94551 0.0
C387 C 0.96376 0.18795 0.93016 0.0
C388 C 0.96787 0.19798 0.95281 0.0
H389 H 0.9221 0.14231 0.94321 0.0
H390 H 0.97406 0.19561 0.91511 0.0
H391 H 0.93377 0.11017 0.91921 0.0
H392 H 0.01003 0.1023 0.89949 0.0
H393 H 0.90566 0.25544 0.89714 0.0
H394 H 0.9291 0.15773 0.98321 0.0
H395 H 0.9804 0.21414 0.95447 0.0
C396 C 0.35398 0.51125 0.60524 0.0
C397 C 0.37469 0.49878 0.59608 0.0
N398 N 0.39166 0.51619 0.58864 0.0
N399 N 0.35767 0.53649 0.60349 0.0
C400 C 0.38113 0.53888 0.59382 0.0
H401 H 0.33625 0.50246 0.61029 0.0
Co402 Co 0.33072 0.55974 0.60388 0.0
C403 C 0.35272 0.60611 0.5831 0.0
O404 O 0.33277 0.60822 0.56922 0.0
N405 N 0.30313 0.58296 0.60475 0.0
C406 C 0.26487 0.60095 0.60458 0.0
C407 C 0.27822 0.579 0.60041 0.0
C408 C 0.30398 0.60716 0.61284 0.0
N409 N 0.28121 0.61878 0.61216 0.0
O410 O 0.33378 0.56461 0.63768 0.0
H411 H 0.26976 0.56129 0.59516 0.0
H412 H 0.32102 0.61611 0.61949 0.0
O413 O 0.3545 0.58773 0.5979 0.0
C414 C 0.31872 0.54988 0.64889 0.0
O415 O 0.30731 0.53185 0.63684 0.0
N416 N 0.32611 0.55324 0.57092 0.0
C417 C 0.3131 0.54287 0.52362 0.0
C418 C 0.33673 0.55357 0.52928 0.0
C419 C 0.34298 0.55833 0.55302 0.0
C420 C 0.30506 0.53928 0.56601 0.0
C421 C 0.29766 0.53471 0.54257 0.0
H422 H 0.36126 0.56652 0.55672 0.0
H423 H 0.29372 0.53184 0.58041 0.0
H424 H 0.38911 0.55673 0.58793 0.0
H425 H 0.37621 0.47855 0.59322 0.0
H426 H 0.24473 0.60359 0.60192 0.0
H427 H 0.3502 0.55871 0.51554 0.0
H428 H 0.27952 0.52568 0.53961 0.0
C429 C 0.97546 0.36845 0.61993 0.0
C430 C 0.98859 0.3882 0.60941 0.0
N431 N 0.97265 0.40098 0.59492 0.0
N432 N 0.95131 0.3686 0.61215 0.0
C433 C 0.95018 0.38875 0.59712 0.0
H434 H 0.9832 0.35437 0.63193 0.0
Co435 Co 0.92697 0.34344 0.61885 0.0
C436 C 0.88408 0.35654 0.58557 0.0
O437 O 0.87865 0.33277 0.58082 0.0
N438 N 0.90246 0.318 0.62599 0.0
C439 C 0.88403 0.28092 0.63387 0.0
C440 C 0.90656 0.29298 0.6294 0.0
C441 C 0.87718 0.32068 0.62981 0.0
N442 N 0.86537 0.29828 0.63391 0.0
O443 O 0.9159 0.36229 0.64618 0.0
H444 H 0.92471 0.28372 0.62927 0.0
H445 H 0.86748 0.33871 0.62888 0.0
O446 O 0.90221 0.36217 0.59968 0.0
C447 C 0.91018 0.35784 0.66793 0.0
O448 O 0.9015 0.37676 0.68071 0.0
N449 N 0.93894 0.32502 0.5922 0.0
C450 C 0.95372 0.29273 0.55548 0.0
C451 C 0.94167 0.31581 0.55045 0.0
C452 C 0.93507 0.33199 0.56903 0.0
C453 C 0.95401 0.30469 0.59709 0.0
C454 C 0.96103 0.28783 0.57908 0.0
H455 H 0.92665 0.34992 0.56451 0.0
H456 H 0.95997 0.30109 0.61521 0.0
H457 H 0.9335 0.39383 0.58714 0.0
H458 H 0.00844 0.39253 0.61204 0.0
H459 H 0.88175 0.26079 0.63675 0.0
H460 H 0.93637 0.32096 0.53244 0.0
H461 H 0.97159 0.27092 0.58366 0.0
C462 C 0.15072 0.99121 0.60716 0.0
C463 C 0.12906 0.00275 0.59872 0.0
N464 N 0.11272 0.98455 0.59196 0.0
N465 N 0.14855 0.96575 0.6052 0.0
C466 C 0.12452 0.96249 0.59711 0.0
H467 H 0.16763 1.00098 0.61299 0.0
Co468 Co 0.17579 0.94228 0.61026 0.0
C469 C 0.14161 0.90712 0.58369 0.0
O470 O 0.14153 0.92215 0.56498 0.0
N471 N 0.20249 0.91983 0.61598 0.0
C472 C 0.24121 0.90403 0.61998 0.0
C473 C 0.2273 0.9258 0.61632 0.0
C474 C 0.20171 0.89454 0.61997 0.0
N475 N 0.22506 0.88429 0.62222 0.0
O476 O 0.16745 0.93952 0.64334 0.0
H477 H 0.23476 0.94469 0.61356 0.0
H478 H 0.18433 0.88369 0.62033 0.0
O479 O 0.1534 0.91336 0.60271 0.0
C480 C 0.18031 0.95521 0.65568 0.0
O481 O 0.19247 0.97342 0.64444 0.0
N482 N 0.18685 0.94559 0.57812 0.0
C483 C 0.20926 0.95107 0.53333 0.0
C484 C 0.20368 0.92701 0.54243 0.0
C485 C 0.19329 0.92465 0.5651 0.0
C486 C 0.19303 0.96917 0.56974 0.0
C487 C 0.20413 0.97236 0.5473 0.0
H488 H 0.19066 0.90581 0.57225 0.0
H489 H 0.19074 0.98561 0.58082 0.0
H490 H 0.11533 0.94446 0.59489 0.0
H491 H 0.12628 0.02293 0.5963 0.0
H492 H 0.26166 0.90294 0.62067 0.0
H493 H 0.20852 0.91005 0.53259 0.0
H494 H 0.20931 0.99118 0.54121 0.0
C495 C 0.52147 0.12877 0.61124 0.0
C496 C 0.51272 0.10632 0.60173 0.0
N497 N 0.52923 0.0985 0.58496 0.0
N498 N 0.54344 0.13521 0.60059 0.0
C499 C 0.54784 0.11619 0.5849 0.0
H500 H 0.51156 0.14042 0.624 0.0
Co501 Co 0.55923 0.16711 0.60217 0.0
C502 C 0.61205 0.15946 0.58572 0.0
O503 O 0.61169 0.18153 0.57478 0.0
N504 N 0.57507 0.19948 0.60402 0.0
C505 C 0.58843 0.23924 0.59891 0.0
C506 C 0.56996 0.22174 0.59308 0.0
C507 C 0.59607 0.20439 0.61711 0.0
N508 N 0.60509 0.22809 0.6138 0.0
O509 O 0.56451 0.16394 0.636 0.0
H510 H 0.55448 0.22499 0.58088 0.0
H511 H 0.60546 0.19018 0.62788 0.0
O512 O 0.59218 0.15103 0.59617 0.0
C513 C 0.54894 0.17853 0.64663 0.0
O514 O 0.52942 0.18691 0.63439 0.0
N515 N 0.55181 0.17172 0.56975 0.0
C516 C 0.53539 0.18713 0.52482 0.0
C517 C 0.55736 0.17234 0.5274 0.0
C518 C 0.56494 0.16431 0.55001 0.0
C519 C 0.52906 0.1836 0.56733 0.0
C520 C 0.52045 0.19148 0.54505 0.0
H521 H 0.58152 0.15255 0.55133 0.0
H522 H 0.51814 0.1881 0.58306 0.0
H523 H 0.56339 0.11629 0.57236 0.0
H524 H 0.49502 0.09705 0.60615 0.0
H525 H 0.5903 0.25813 0.59154 0.0
H526 H 0.56944 0.16809 0.51235 0.0
H527 H 0.50287 0.20198 0.54391 0.0
H528 H 0.73909 0.06041 0.15046 0.0
H529 H 0.76346 0.06385 0.18713 0.0
H530 H 0.69425 0.06195 0.22804 0.0
H531 H 0.66949 0.05962 0.19078 0.0
H532 H 0.72763 0.09307 0.2487 0.0
H533 H 0.73111 0.00793 0.2199 0.0
H534 H 0.73794 0.97401 0.19047 0.0
H535 H 0.81589 0.99627 0.18331 0.0
H536 H 0.80943 0.03057 0.21249 0.0
H537 H 0.78024 0.0333 0.35233 0.0
H538 H 0.75824 0.04084 0.31486 0.0
H539 H 0.8264 0.07257 0.28468 0.0
H540 H 0.84866 0.06584 0.32288 0.0
H541 H 0.79534 0.02863 0.25862 0.0
H542 H 0.79076 0.11262 0.29133 0.0
H543 H 0.78212 0.14424 0.32254 0.0
H544 H 0.70408 0.12121 0.32453 0.0
H545 H 0.71237 0.08899 0.29373 0.0
C546 C 0.72901 0.06085 0.16727 0.0
C547 C 0.70243 0.05924 0.16786 0.0
C548 C 0.74299 0.06278 0.18826 0.0
C549 C 0.73083 0.06237 0.21048 0.0
C550 C 0.70412 0.06205 0.21113 0.0
C551 C 0.68997 0.06066 0.1899 0.0
C552 C 0.74628 0.06102 0.23274 0.0
C553 C 0.74227 0.07885 0.25092 0.0
C554 C 0.76572 0.04268 0.23565 0.0
C555 C 0.76972 0.02197 0.21821 0.0
C556 C 0.74966 0.0057 0.21193 0.0
C557 C 0.75347 0.98639 0.19531 0.0
C558 C 0.77732 0.98303 0.18498 0.0
C559 C 0.79742 0.99892 0.19131 0.0
C560 C 0.79371 0.01828 0.2079 0.0
C561 C 0.79073 0.04181 0.33776 0.0
C562 C 0.81635 0.04874 0.34051 0.0
C563 C 0.77799 0.04628 0.3164 0.0
C564 C 0.79062 0.05738 0.2971 0.0
C565 C 0.81631 0.06408 0.2995 0.0
C566 C 0.829 0.06018 0.32123 0.0
C567 C 0.77683 0.06078 0.27429 0.0
C568 C 0.78095 0.04309 0.25616 0.0
C569 C 0.75729 0.07894 0.27168 0.0
C570 C 0.75226 0.09818 0.29036 0.0
C571 C 0.77183 0.11404 0.29863 0.0
C572 C 0.76698 0.13213 0.31621 0.0
C573 C 0.74257 0.13474 0.32549 0.0
C574 C 0.72298 0.11917 0.31731 0.0
C575 C 0.72775 0.10098 0.29979 0.0
H576 H 0.7388 0.1489 0.33892 0.0
H577 H 0.78023 0.96807 0.17211 0.0
H578 H 0.49299 0.77997 0.33652 0.0
H579 H 0.48392 0.75664 0.30061 0.0
H580 H 0.42006 0.80536 0.28624 0.0
H581 H 0.42827 0.82824 0.32368 0.0
H582 H 0.40669 0.75976 0.27637 0.0
H583 H 0.47819 0.80756 0.25273 0.0
H584 H 0.52083 0.82655 0.25523 0.0
H585 H 0.55418 0.75234 0.25639 0.0
H586 H 0.51172 0.73287 0.25423 0.0
H587 H 0.40835 0.70538 0.15604 0.0
H588 H 0.41278 0.73574 0.1888 0.0
H589 H 0.45319 0.67976 0.22992 0.0
H590 H 0.44814 0.64896 0.1975 0.0
H591 H 0.47632 0.7336 0.22241 0.0
H592 H 0.40043 0.68766 0.24666 0.0
H593 H 0.35683 0.67227 0.24036 0.0
H594 H 0.33051 0.74894 0.23354 0.0
H595 H 0.37413 0.76479 0.23907 0.0
C596 C 0.47712 0.78612 0.32572 0.0
C597 C 0.46148 0.80625 0.33305 0.0
C598 C 0.47205 0.77272 0.3049 0.0
C599 C 0.45165 0.77944 0.29015 0.0
C600 C 0.43606 0.79982 0.29715 0.0
C601 C 0.44089 0.81307 0.31844 0.0
C602 C 0.4464 0.76423 0.26818 0.0
C603 C 0.42188 0.7545 0.26435 0.0
C604 C 0.46607 0.75715 0.25227 0.0
C605 C 0.49172 0.76875 0.25345 0.0
C606 C 0.4946 0.79528 0.25366 0.0
C607 C 0.51875 0.80613 0.255 0.0
C608 C 0.5402 0.79066 0.25601 0.0
C609 C 0.53755 0.7643 0.25561 0.0
C610 C 0.51344 0.75334 0.25429 0.0
C611 C 0.41808 0.69947 0.17212 0.0
C612 C 0.42793 0.67473 0.17418 0.0
C613 C 0.42051 0.71683 0.19082 0.0
C614 C 0.43326 0.70999 0.21179 0.0
C615 C 0.44322 0.68538 0.21389 0.0
C616 C 0.44027 0.66779 0.1954 0.0
C617 C 0.437 0.72875 0.23123 0.0
C618 C 0.4612 0.73916 0.2344 0.0
C619 C 0.4169 0.73699 0.246 0.0
C620 C 0.39066 0.7274 0.24288 0.0
C621 C 0.38544 0.70124 0.24343 0.0
C622 C 0.36071 0.69243 0.24001 0.0
C623 C 0.34093 0.70961 0.23642 0.0
C624 C 0.34586 0.73565 0.23624 0.0
C625 C 0.3706 0.74455 0.23947 0.0
H626 H 0.32178 0.70275 0.23391 0.0
H627 H 0.55888 0.7991 0.25706 0.0
H628 H 0.6866 0.48666 0.33394 0.0
H629 H 0.7138 0.48228 0.29926 0.0
H630 H 0.71159 0.40086 0.30666 0.0
H631 H 0.68479 0.40517 0.34217 0.0
H632 H 0.75848 0.41525 0.29691 0.0
H633 H 0.67853 0.43211 0.26147 0.0
H634 H 0.63784 0.45406 0.25515 0.0
H635 H 0.67748 0.52258 0.2369 0.0
H636 H 0.71842 0.50115 0.24342 0.0
H637 H 0.8172 0.40729 0.1792 0.0
H638 H 0.79141 0.40209 0.21535 0.0
H639 H 0.78555 0.48341 0.22152 0.0
H640 H 0.81055 0.48855 0.1853 0.0
H641 H 0.74015 0.46273 0.22256 0.0
H642 H 0.82058 0.44483 0.26159 0.0
H643 H 0.86047 0.42116 0.26704 0.0
H644 H 0.81849 0.35204 0.27658 0.0
H645 H 0.77836 0.37528 0.27095 0.0
C646 C 0.69159 0.46774 0.32814 0.0
C647 C 0.68325 0.44626 0.34084 0.0
C648 C 0.70717 0.46526 0.30815 0.0
C649 C 0.71456 0.44121 0.29997 0.0
C650 C 0.70614 0.41964 0.3125 0.0
C651 C 0.69063 0.42213 0.33271 0.0
C652 C 0.73145 0.43899 0.27867 0.0
C653 C 0.75425 0.4253 0.28051 0.0
C654 C 0.72615 0.45209 0.25718 0.0
C655 C 0.70155 0.46505 0.2531 0.0
C656 C 0.67857 0.4519 0.25626 0.0
C657 C 0.65546 0.46425 0.25261 0.0
C658 C 0.65507 0.48971 0.24566 0.0
C659 C 0.6778 0.50286 0.24229 0.0
C660 C 0.70097 0.49061 0.24592 0.0
C661 C 0.81106 0.42401 0.18873 0.0
C662 C 0.81593 0.44835 0.17943 0.0
C663 C 0.7962 0.42104 0.20936 0.0
C664 C 0.7863 0.44237 0.22119 0.0
C665 C 0.79267 0.46663 0.21268 0.0
C666 C 0.80717 0.46957 0.19204 0.0
C667 C 0.76765 0.43992 0.24113 0.0
C668 C 0.74434 0.45257 0.23892 0.0
C669 C 0.77241 0.42563 0.26206 0.0
C670 C 0.79651 0.41175 0.26562 0.0
C671 C 0.81988 0.42456 0.2647 0.0
C672 C 0.84252 0.41123 0.26786 0.0
C673 C 0.84202 0.38511 0.2721 0.0
C674 C 0.81886 0.37227 0.27327 0.0
C675 C 0.79616 0.38551 0.27013 0.0
H676 H 0.85957 0.37482 0.27452 0.0
H677 H 0.63716 0.49923 0.24286 0.0
H678 H 0.04214 0.65501 0.31577 0.0
H679 H 0.03835 0.68575 0.2833 0.0
H680 H 0.08845 0.73683 0.32059 0.0
H681 H 0.09083 0.70678 0.35378 0.0
H682 H 0.05654 0.76439 0.30115 0.0
H683 H 0.10663 0.69805 0.26907 0.0
H684 H 0.11879 0.65438 0.25847 0.0
H685 H 0.05266 0.64766 0.21434 0.0
H686 H 0.03995 0.69121 0.22489 0.0
H687 H 0.07758 0.83141 0.18613 0.0
H688 H 0.08495 0.80664 0.22282 0.0
H689 H 0.01498 0.76628 0.21137 0.0
H690 H 0.00712 0.79109 0.17554 0.0
H691 H 0.06212 0.73532 0.21742 0.0
H692 H 0.01371 0.80457 0.2529 0.0
H693 H 0.0068 0.8496 0.26267 0.0
H694 H 0.07817 0.85197 0.29936 0.0
H695 H 0.08566 0.80702 0.28951 0.0
C696 C 0.0523 0.67282 0.31705 0.0
C697 C 0.06685 0.67836 0.33734 0.0
C698 C 0.05034 0.69039 0.29832 0.0
C699 C 0.06366 0.7136 0.29893 0.0
C700 C 0.07798 0.7192 0.31941 0.0
C701 C 0.07938 0.70192 0.33843 0.0
C702 C 0.06244 0.73198 0.2784 0.0
C703 C 0.0582 0.75792 0.2829 0.0
C704 C 0.06469 0.72403 0.25434 0.0
C705 C 0.07223 0.69782 0.24794 0.0
C706 C 0.0946 0.6872 0.25723 0.0
C707 C 0.1016 0.66248 0.25121 0.0
C708 C 0.08648 0.64824 0.23579 0.0
C709 C 0.06434 0.65871 0.2263 0.0
C710 C 0.05725 0.68342 0.23227 0.0
C711 C 0.06348 0.81771 0.19177 0.0
C712 C 0.04176 0.8133 0.17776 0.0
C713 C 0.06779 0.80345 0.21266 0.0
C714 C 0.05059 0.78442 0.21973 0.0
C715 C 0.02858 0.7807 0.20622 0.0
C716 C 0.02411 0.79506 0.18571 0.0
C717 C 0.05574 0.76724 0.24034 0.0
C718 C 0.06076 0.74159 0.23576 0.0
C719 C 0.05499 0.7756 0.26423 0.0
C720 C 0.05038 0.80254 0.27022 0.0
C721 C 0.02804 0.81476 0.26284 0.0
C722 C 0.02399 0.84025 0.26845 0.0
C723 C 0.04207 0.85366 0.28156 0.0
C724 C 0.06421 0.84158 0.28917 0.0
C725 C 0.06835 0.81609 0.28359 0.0
H726 H 0.03891 0.87339 0.28588 0.0
H727 H 0.09193 0.6291 0.23116 0.0
H728 H 0.31378 0.98636 0.8311 0.0
H729 H 0.28798 0.97846 0.79586 0.0
H730 H 0.2905 0.89808 0.80988 0.0
H731 H 0.31668 0.90595 0.84546 0.0
H732 H 0.29066 0.91314 0.75842 0.0
H733 H 0.24251 0.92362 0.82935 0.0
H734 H 0.23155 0.94365 0.86758 0.0
H735 H 0.21433 0.01332 0.83129 0.0
H736 H 0.22573 0.99386 0.79286 0.0
H737 H 0.18556 0.90879 0.6775 0.0
H738 H 0.20825 0.90029 0.71492 0.0
H739 H 0.21617 0.98074 0.72655 0.0
H740 H 0.19358 0.98922 0.68946 0.0
H741 H 0.20747 0.9558 0.76817 0.0
H742 H 0.26316 0.94635 0.69889 0.0
H743 H 0.27495 0.92649 0.66075 0.0
H744 H 0.27646 0.85332 0.69449 0.0
H745 H 0.26457 0.8728 0.73285 0.0
C746 C 0.30959 0.96691 0.82628 0.0
C747 C 0.31722 0.9468 0.84107 0.0
C748 C 0.29473 0.96243 0.80617 0.0
C749 C 0.28693 0.93773 0.80046 0.0
C750 C 0.29629 0.9173 0.81398 0.0
C751 C 0.31137 0.9218 0.83422 0.0
C752 C 0.2667 0.9342 0.78225 0.0
C753 C 0.27226 0.92193 0.76073 0.0
C754 C 0.24264 0.94565 0.78523 0.0
C755 C 0.23513 0.95731 0.80822 0.0
C756 C 0.23654 0.94326 0.82953 0.0
C757 C 0.23025 0.95451 0.85124 0.0
C758 C 0.22226 0.97975 0.85187 0.0
C759 C 0.22051 0.99377 0.83077 0.0
C760 C 0.22688 0.98263 0.80901 0.0
C761 C 0.19136 0.92462 0.6885 0.0
C762 C 0.18771 0.9497 0.68061 0.0
C763 C 0.20461 0.91974 0.70973 0.0
C764 C 0.2143 0.93988 0.72341 0.0
C765 C 0.20897 0.96487 0.71635 0.0
C766 C 0.19599 0.96972 0.69514 0.0
C767 C 0.23166 0.93548 0.74398 0.0
C768 C 0.22559 0.94639 0.76603 0.0
C769 C 0.25508 0.92256 0.74151 0.0
C770 C 0.26278 0.91097 0.71864 0.0
C771 C 0.26594 0.92601 0.69814 0.0
C772 C 0.27264 0.91483 0.6765 0.0
C773 C 0.27637 0.88864 0.67518 0.0
C774 C 0.27353 0.8736 0.69554 0.0
C775 C 0.26687 0.8847 0.71724 0.0
H776 H 0.28154 0.88 0.65842 0.0
H777 H 0.2174 0.98844 0.86869 0.0
H778 H 0.57452 0.28071 0.84913 0.0
H779 H 0.58035 0.25765 0.81196 0.0
H780 H 0.57025 0.32711 0.77233 0.0
H781 H 0.56466 0.35053 0.80999 0.0
H782 H 0.53815 0.28786 0.7582 0.0
H783 H 0.62668 0.29891 0.77205 0.0
H784 H 0.66577 0.29804 0.7961 0.0
H785 H 0.65881 0.21737 0.80431 0.0
H786 H 0.61942 0.21777 0.78064 0.0
H787 H 0.55028 0.22935 0.64853 0.0
H788 H 0.5605 0.25641 0.68221 0.0
H789 H 0.5765 0.1903 0.72506 0.0
H790 H 0.56722 0.16285 0.69051 0.0
H791 H 0.6084 0.22985 0.73644 0.0
H792 H 0.51867 0.21864 0.728 0.0
H793 H 0.47779 0.21821 0.70672 0.0
H794 H 0.48554 0.29767 0.69134 0.0
H795 H 0.52666 0.29849 0.71226 0.0
C796 C 0.57397 0.29117 0.83249 0.0
C797 C 0.569 0.31735 0.83232 0.0
C798 C 0.57748 0.27798 0.81126 0.0
C799 C 0.57589 0.29062 0.78933 0.0
C800 C 0.5717 0.31701 0.78909 0.0
C801 C 0.56857 0.33038 0.81052 0.0
C802 C 0.57589 0.27559 0.76694 0.0
C803 C 0.55377 0.27564 0.75313 0.0
C804 C 0.59587 0.25884 0.76091 0.0
C805 C 0.61994 0.25841 0.77468 0.0
C806 C 0.63337 0.28099 0.77911 0.0
C807 C 0.65561 0.28058 0.79266 0.0
C808 C 0.66474 0.25767 0.80177 0.0
C809 C 0.65171 0.23511 0.79725 0.0
C810 C 0.62944 0.23541 0.78372 0.0
C811 C 0.55614 0.22052 0.66508 0.0
C812 C 0.55741 0.19398 0.66712 0.0
C813 C 0.56203 0.23604 0.68433 0.0
C814 C 0.5686 0.22545 0.70642 0.0
C815 C 0.57127 0.19892 0.70824 0.0
C816 C 0.56586 0.18324 0.68861 0.0
C817 C 0.57062 0.2422 0.72772 0.0
C818 C 0.59296 0.24234 0.74136 0.0
C819 C 0.55068 0.25895 0.73394 0.0
C820 C 0.52586 0.25857 0.7215 0.0
C821 C 0.51174 0.23598 0.71994 0.0
C822 C 0.48851 0.23567 0.70796 0.0
C823 C 0.4791 0.25788 0.69763 0.0
C824 C 0.49287 0.28047 0.69932 0.0
C825 C 0.51612 0.28087 0.71125 0.0
H826 H 0.46112 0.25761 0.68836 0.0
H827 H 0.68193 0.2574 0.81228 0.0
H828 H 0.29853 0.51671 0.68043 0.0
H829 H 0.27339 0.5265 0.71562 0.0
H830 H 0.29071 0.60594 0.70719 0.0
H831 H 0.31622 0.59616 0.67163 0.0
H832 H 0.28747 0.58788 0.75721 0.0
H833 H 0.23867 0.59042 0.68622 0.0
H834 H 0.22438 0.57549 0.6469 0.0
H835 H 0.19496 0.50744 0.6788 0.0
H836 H 0.20957 0.52172 0.71829 0.0
H837 H 0.18252 0.60536 0.83729 0.0
H838 H 0.20616 0.61178 0.8 0.0
H839 H 0.20522 0.53113 0.78757 0.0
H840 H 0.18219 0.52464 0.82485 0.0
H841 H 0.1983 0.56018 0.7456 0.0
H842 H 0.25401 0.55597 0.81503 0.0
H843 H 0.26798 0.57123 0.85439 0.0
H844 H 0.28311 0.64484 0.8248 0.0
H845 H 0.26874 0.63016 0.78528 0.0
C846 C 0.29761 0.53621 0.68639 0.0
C847 C 0.3093 0.55565 0.67318 0.0
C848 C 0.28314 0.5418 0.70649 0.0
C849 C 0.2798 0.56699 0.71383 0.0
C850 C 0.29302 0.58636 0.70183 0.0
C851 C 0.30768 0.58074 0.68159 0.0
C852 C 0.26038 0.57267 0.73233 0.0
C853 C 0.26785 0.58242 0.7545 0.0
C854 C 0.23472 0.56559 0.72885 0.0
C855 C 0.22536 0.55709 0.70523 0.0
C856 C 0.2293 0.57219 0.68485 0.0
C857 C 0.22114 0.56385 0.66252 0.0
C858 C 0.20879 0.54051 0.66035 0.0
C859 C 0.20453 0.52551 0.68052 0.0
C860 C 0.21273 0.53373 0.70289 0.0
C861 C 0.18667 0.58913 0.8262 0.0
C862 C 0.18048 0.56448 0.83393 0.0
C863 C 0.20036 0.59279 0.805 0.0
C864 C 0.20769 0.5719 0.7911 0.0
C865 C 0.19979 0.54753 0.79796 0.0
C866 C 0.18658 0.54384 0.81926 0.0
C867 C 0.22551 0.57466 0.77067 0.0
C868 C 0.21774 0.56634 0.74812 0.0
C869 C 0.25074 0.58337 0.77376 0.0
C870 C 0.26009 0.59203 0.79727 0.0
C871 C 0.26019 0.57546 0.81694 0.0
C872 C 0.26815 0.58401 0.83927 0.0
C873 C 0.27637 0.60902 0.84208 0.0
C874 C 0.27668 0.62551 0.82256 0.0
C875 C 0.26863 0.61708 0.80019 0.0
H876 H 0.2826 0.61557 0.85936 0.0
H877 H 0.20248 0.53407 0.64305 0.0
H878 H 0.9818 0.17837 0.80902 0.0
H879 H 0.97367 0.20285 0.7728 0.0
H880 H 0.89627 0.2143 0.79521 0.0
H881 H 0.90386 0.18779 0.83022 0.0
H882 H 0.89492 0.21503 0.7513 0.0
H883 H 0.94891 0.25896 0.8052 0.0
H884 H 0.98604 0.266 0.83104 0.0
H885 H 0.03546 0.25967 0.7706 0.0
H886 H 0.99861 0.25226 0.74443 0.0
H887 H 0.87697 0.33711 0.69904 0.0
H888 H 0.88213 0.29908 0.72331 0.0
H889 H 0.95282 0.28313 0.68784 0.0
H890 H 0.94778 0.32182 0.66358 0.0
H891 H 0.95824 0.28255 0.73532 0.0
H892 H 0.89755 0.23909 0.68223 0.0
H893 H 0.85685 0.23388 0.66098 0.0
H894 H 0.81612 0.24735 0.72582 0.0
H895 H 0.8565 0.25149 0.74766 0.0
C896 C 0.96283 0.18544 0.80579 0.0
C897 C 0.94353 0.18124 0.82259 0.0
C898 C 0.95827 0.19986 0.78524 0.0
C899 C 0.93461 0.21157 0.78154 0.0
C900 C 0.91481 0.20587 0.79754 0.0
C901 C 0.91915 0.19063 0.81768 0.0
C902 C 0.93093 0.23071 0.76193 0.0
C903 C 0.9088 0.22982 0.74799 0.0
C904 C 0.94883 0.25028 0.75726 0.0
C905 C 0.97103 0.25476 0.77291 0.0
C906 C 0.96771 0.25891 0.79745 0.0
C907 C 0.9887 0.26298 0.81215 0.0
C908 C 0.0131 0.2632 0.80248 0.0
C909 C 0.01655 0.25943 0.77807 0.0
C910 C 0.99562 0.2553 0.76329 0.0
C911 C 0.89339 0.32522 0.69605 0.0
C912 C 0.91193 0.33241 0.67933 0.0
C913 C 0.89621 0.30327 0.70983 0.0
C914 C 0.91771 0.28783 0.70733 0.0
C915 C 0.93595 0.29456 0.69005 0.0
C916 C 0.93306 0.31661 0.67613 0.0
C917 C 0.92242 0.26668 0.72466 0.0
C918 C 0.94468 0.2674 0.73837 0.0
C919 C 0.90417 0.24766 0.72976 0.0
C920 C 0.87999 0.24583 0.71649 0.0
C921 C 0.8799 0.24109 0.69189 0.0
C922 C 0.85691 0.23827 0.67976 0.0
C923 C 0.83395 0.24075 0.69192 0.0
C924 C 0.8339 0.24558 0.71637 0.0
C925 C 0.85681 0.24791 0.72868 0.0
H926 H 0.8162 0.23872 0.68242 0.0
H927 H 0.02933 0.26636 0.81389 0.0
H928 H 0.43559 0.01852 0.92178 0.0
H929 H 0.47069 0.02695 0.94922 0.0
H930 H 0.44648 0.96459 0.99358 0.0
H931 H 0.41117 0.95636 0.96647 0.0
H932 H 0.45674 0.0061 0.02013 0.0
H933 H 0.49904 0.95959 0.95876 0.0
H934 H 0.51213 0.94968 0.91769 0.0
H935 H 0.54874 0.02223 0.91191 0.0
H936 H 0.53556 0.03272 0.95287 0.0
H937 H 0.56674 0.99879 0.09377 0.0
H938 H 0.53195 0.99025 0.06612 0.0
H939 H 0.55773 0.05112 0.02072 0.0
H940 H 0.59292 0.05929 0.04792 0.0
H941 H 0.54663 0.01042 0.99461 0.0
H942 H 0.50439 0.05709 0.0558 0.0
H943 H 0.4912 0.06728 0.09678 0.0
H944 H 0.45434 0.99489 0.10283 0.0
H945 H 0.46761 0.98411 0.06196 0.0
C946 C 0.43779 0.00654 0.93732 0.0
C947 C 0.42054 0.98667 0.94175 0.0
C948 C 0.45798 0.01129 0.95297 0.0
C949 C 0.46143 0.99633 0.97349 0.0
C950 C 0.44433 0.9764 0.97789 0.0
C951 C 0.42424 0.97153 0.96218 0.0
C952 C 0.48245 1.00184 0.99065 0.0
C953 C 0.47643 0.00668 0.0146 0.0
C954 C 0.50815 0.00329 0.98344 0.0
C955 C 0.51608 0.99705 0.9588 0.0
C956 C 0.50969 0.97353 0.94866 0.0
C957 C 0.51717 0.96778 0.92541 0.0
C958 C 0.5312 0.98534 0.91217 0.0
C959 C 0.53784 0.00866 0.92217 0.0
C960 C 0.53038 0.01451 0.94541 0.0
C961 C 0.56503 0.0104 0.07793 0.0
C962 C 0.58272 0.02981 0.07326 0.0
C963 C 0.54496 0.00561 0.06217 0.0
C964 C 0.54196 0.02015 0.04131 0.0
C965 C 0.55951 0.03963 0.03666 0.0
C966 C 0.57955 0.04447 0.05244 0.0
C967 C 0.52094 0.01467 0.02412 0.0
C968 C 0.52695 0.00985 1.00017 0.0
C969 C 0.49521 0.01329 0.03132 0.0
C970 C 0.48722 0.01969 0.0559 0.0
C971 C 0.49366 0.04325 0.06594 0.0
C972 C 0.48613 0.04915 0.08913 0.0
C973 C 0.472 0.03172 0.10243 0.0
C974 C 0.46532 0.00836 0.09252 0.0
C975 C 0.47282 1.00235 0.06934 0.0
H976 H 0.46618 0.03633 0.12038 0.0
H977 H 0.53698 0.98085 0.89418 0.0
H978 H 0.48851 0.41964 0.9339 0.0
H979 H 0.47887 0.45207 0.96323 0.0
H980 H 0.55824 0.47082 0.96845 0.0
H981 H 0.56812 0.43818 0.9389 0.0
H982 H 0.53756 0.46866 0.01185 0.0
H983 H 0.51596 0.50988 0.93875 0.0
H984 H 0.49533 0.51456 0.89958 0.0
H985 H 0.42214 0.50851 0.93255 0.0
H986 H 0.44234 0.50343 0.9719 0.0
H987 H 0.51428 0.58298 0.0776 0.0
H988 H 0.5277 0.55133 0.04848 0.0
H989 H 0.44994 0.52826 0.03882 0.0
H990 H 0.43643 0.55983 0.0679 0.0
H991 H 0.47203 0.53412 0.99688 0.0
H992 H 0.49395 0.49146 0.06988 0.0
H993 H 0.51478 0.48677 0.10896 0.0
H994 H 0.58768 0.49596 0.07604 0.0
H995 H 0.56726 0.50105 0.03678 0.0
C996 C 0.50398 0.43085 0.94088 0.0
C997 C 0.52915 0.42627 0.9337 0.0
C998 C 0.4984 0.44945 0.95782 0.0
C999 C 0.51774 0.46426 0.96794 0.0
C1000 C 0.54292 0.45972 0.96095 0.0
C1001 C 0.54856 0.441 0.94401 0.0
C1002 C 0.51158 0.4841 0.98605 0.0
C1003 C 0.52352 0.48323 0.00842 0.0
C1004 C 0.4929 0.5029 0.98188 0.0
C1005 C 0.48068 0.50606 0.95825 0.0
C1006 C 0.49547 0.50936 0.93763 0.0
C1007 C 0.48385 0.51212 0.9154 0.0
C1008 C 0.45744 0.51178 0.91357 0.0
C1009 C 0.44259 0.50874 0.93399 0.0
C1010 C 0.45411 0.50595 0.95627 0.0
C1011 C 0.50005 0.57092 0.06962 0.0
C1012 C 0.47421 0.5741 0.07517 0.0
C1013 C 0.50777 0.55279 0.05287 0.0
C1014 C 0.48989 0.5372 0.04141 0.0
C1015 C 0.46415 0.54007 0.04723 0.0
C1016 C 0.45642 0.5582 0.0639 0.0
C1017 C 0.49774 0.51849 0.02282 0.0
C1018 C 0.48613 0.51962 1.00031 0.0
C1019 C 0.51675 0.49999 0.02686 0.0
C1020 C 0.52906 0.49691 0.05043 0.0
C1021 C 0.51441 0.49269 0.071 0.0
C1022 C 0.52615 0.48992 0.09318 0.0
C1023 C 0.55253 0.49114 0.09499 0.0
C1024 C 0.56725 0.49506 0.07461 0.0
C1025 C 0.5556 0.49787 0.05239 0.0
H1026 H 0.56159 0.48899 0.11217 0.0
H1027 H 0.44848 0.51391 0.89634 0.0
H1028 H 0.06926 0.56675 0.94681 0.0
H1029 H 0.03651 0.55697 0.97634 0.0
H1030 H 0.04778 0.47702 0.96449 0.0
H1031 H 0.08028 0.48664 0.93495 0.0
H1032 H 0.999 0.48597 0.96838 0.0
H1033 H 0.07249 0.50855 0.01397 0.0
H1034 H 0.10824 0.53586 0.02598 0.0
H1035 H 0.05625 0.59453 0.04621 0.0
H1036 H 0.02018 0.56771 0.03397 0.0
H1037 H 0.93335 0.44243 0.07175 0.0
H1038 H 0.96687 0.45152 0.04283 0.0
H1039 H 0.95461 0.53171 0.05193 0.0
H1040 H 0.92117 0.52288 0.08063 0.0
H1041 H 0.00424 0.52208 0.04971 0.0
H1042 H 0.93076 0.49912 1.00366 0.0
H1043 H 0.89526 0.47132 0.99199 0.0
H1044 H 0.94779 0.41265 0.97296 0.0
H1045 H 0.9836 0.43998 0.9849 0.0
C1046 C 0.06483 0.54709 0.95051 0.0
C1047 C 0.07757 0.52754 0.9384 0.0
C1048 C 0.04606 0.54148 0.96746 0.0
C1049 C 0.03979 0.51618 0.97301 0.0
C1050 C 0.05213 0.49668 0.96061 0.0
C1051 C 0.07076 0.50226 0.94357 0.0
C1052 C 0.02062 0.50995 0.99185 0.0
C1053 C 1.00037 0.49364 0.98624 0.0
C1054 C 0.02201 0.52018 0.01515 0.0
C1055 C 0.04364 0.5362 0.02285 0.0
C1056 C 0.06868 0.52733 0.02085 0.0
C1057 C 0.08901 0.54272 0.0277 0.0
C1058 C 0.08452 0.56693 0.0368 0.0
C1059 C 0.05969 0.57578 0.03913 0.0
C1060 C 0.0393 0.56049 0.03226 0.0
C1061 C 0.9377 0.46201 0.06762 0.0
C1062 C 0.92429 0.48185 0.07866 0.0
C1063 C 0.95695 0.4672 0.05102 0.0
C1064 C 0.96317 0.49235 0.04488 0.0
C1065 C 0.9503 0.51215 0.05632 0.0
C1066 C 0.93111 0.507 0.07291 0.0
C1067 C 0.98262 0.49816 0.02621 0.0
C1068 C 0.00291 0.51439 0.03186 0.0
C1069 C 0.98133 0.48779 1.00297 0.0
C1070 C 0.95984 0.47151 0.99539 0.0
C1071 C 0.93473 0.48024 0.99712 0.0
C1072 C 0.91456 0.46457 0.99045 0.0
C1073 C 0.91927 0.44021 0.98179 0.0
C1074 C 0.94417 0.43151 0.97971 0.0
C1075 C 0.96441 0.44708 0.98641 0.0
H1076 H 0.90362 0.4281 0.97666 0.0
H1077 H 0.10028 0.57882 0.04209 0.0
H1078 H 0.00622 0.05924 0.91145 0.0
H1079 H 0.01408 0.02668 0.94159 0.0
H1080 H 0.95287 0.05618 0.9841 0.0
H1081 H 0.94542 0.0893 0.95435 0.0
H1082 H 0.99266 0.04691 0.01171 0.0
H1083 H 0.94771 0.99945 0.95262 0.0
H1084 H 0.93863 0.98303 0.91244 0.0
H1085 H 0.01141 0.94677 0.91069 0.0
H1086 H 0.02107 0.96326 0.95075 0.0
H1087 H 0.985 0.94258 0.09282 0.0
H1088 H 0.9769 0.97523 0.06278 0.0
H1089 H 0.03834 0.94637 0.02018 0.0
H1090 H 0.04606 0.91321 0.04983 0.0
H1091 H 0.99825 0.95531 0.99268 0.0
H1092 H 0.04322 0.00285 0.05174 0.0
H1093 H 0.05226 0.01923 0.09194 0.0
H1094 H 0.97938 0.05528 0.09377 0.0
H1095 H 0.96975 0.03882 0.05368 0.0
C1096 C 0.99436 0.05883 0.92716 0.0
C1097 C 0.97511 0.07703 0.93027 0.0
C1098 C 0.99876 0.04 0.94439 0.0
C1099 C 0.98397 0.03866 0.9652 0.0
C1100 C 0.96458 0.05665 0.96826 0.0
C1101 C 0.96013 0.0755 0.95102 0.0
C1102 C 0.98917 0.01899 0.98399 0.0
C1103 C 0.99349 0.02685 0.00756 0.0
C1104 C 0.99096 0.99277 0.97868 0.0
C1105 C 0.98521 0.98281 0.9546 0.0
C1106 C 0.96186 0.98814 0.94359 0.0
C1107 C 0.9566 0.97879 0.92085 0.0
C1108 C 0.97446 0.96392 0.90899 0.0
C1109 C 0.99761 0.95832 0.91988 0.0
C1110 C 0.00298 0.96765 0.94262 0.0
C1111 C 0.99686 0.94316 0.07711 0.0
C1112 C 0.01626 0.92514 0.07395 0.0
C1113 C 0.99231 0.96204 0.05995 0.0
C1114 C 0.0071 0.96356 0.03914 0.0
C1115 C 0.02664 0.94575 0.03602 0.0
C1116 C 0.03123 0.92688 0.05321 0.0
C1117 C 1.00175 0.98322 0.02039 0.0
C1118 C 0.99741 0.97537 0.99682 0.0
C1119 C 0.99993 0.00944 0.02571 0.0
C1120 C 0.00567 0.01939 0.0498 0.0
C1121 C 0.02904 0.0141 0.06079 0.0
C1122 C 0.03428 0.02343 0.08354 0.0
C1123 C 0.01638 0.03823 0.09543 0.0
C1124 C 0.99321 0.04378 0.08455 0.0
C1125 C 0.98786 0.03448 0.06181 0.0
H1126 H 0.02048 0.04544 0.11304 0.0
H1127 H 0.97035 0.95669 0.89139 0.0
H1128 H 0.43782 0.53867 0.58905 0.0
H1129 H 0.47263 0.53186 0.56075 0.0
H1130 H 0.42613 0.4785 0.52213 0.0
H1131 H 0.39219 0.48426 0.55117 0.0
H1132 H 0.46987 0.46068 0.52204 0.0
H1133 H 0.4385 0.54374 0.50422 0.0
H1134 H 0.42601 0.58768 0.51348 0.0
H1135 H 0.50241 0.60494 0.53427 0.0
H1136 H 0.51528 0.56097 0.5255 0.0
H1137 H 0.54028 0.46455 0.41289 0.0
H1138 H 0.50648 0.47445 0.44152 0.0
H1139 H 0.56224 0.50203 0.49125 0.0
H1140 H 0.59608 0.49167 0.46288 0.0
H1141 H 0.51471 0.53359 0.48507 0.0
H1142 H 0.54413 0.4481 0.50223 0.0
H1143 H 0.55464 0.40433 0.49047 0.0
H1144 H 0.47812 0.39264 0.46685 0.0
H1145 H 0.46725 0.43652 0.47815 0.0
C1146 C 0.43526 0.52538 0.57459 0.0
C1147 C 0.41244 0.51184 0.57243 0.0
C1148 C 0.45503 0.52162 0.55825 0.0
C1149 C 0.45204 0.50495 0.53884 0.0
C1150 C 0.42917 0.49138 0.53686 0.0
C1151 C 0.40972 0.49465 0.5535 0.0
C1152 C 0.47253 0.50152 0.52059 0.0
C1153 C 0.47934 0.47674 0.51383 0.0
C1154 C 0.48533 0.52231 0.50978 0.0
C1155 C 0.47781 0.54897 0.51441 0.0
C1156 C 0.45262 0.55688 0.51085 0.0
C1157 C 0.44546 0.58179 0.51603 0.0
C1158 C 0.46339 0.59907 0.52451 0.0
C1159 C 0.48854 0.59152 0.52772 0.0
C1160 C 0.49578 0.5666 0.52264 0.0
C1161 C 0.54527 0.47305 0.42979 0.0
C1162 C 0.57083 0.4773 0.43568 0.0
C1163 C 0.52597 0.47863 0.44615 0.0
C1164 C 0.53184 0.48901 0.46852 0.0
C1165 C 0.55726 0.49415 0.47408 0.0
C1166 C 0.57657 0.48808 0.45794 0.0
C1167 C 0.51165 0.49294 0.48671 0.0
C1168 C 0.50502 0.51771 0.49338 0.0
C1169 C 0.4986 0.47223 0.49707 0.0
C1170 C 0.50494 0.44566 0.49083 0.0
C1171 C 0.52959 0.43625 0.49438 0.0
C1172 C 0.53561 0.41142 0.48783 0.0
C1173 C 0.51707 0.39573 0.47788 0.0
C1174 C 0.49246 0.40483 0.47455 0.0
C1175 C 0.48635 0.42967 0.48104 0.0
H1176 H 0.52177 0.37652 0.47281 0.0
H1177 H 0.45781 0.61833 0.52857 0.0
H1178 H 0.94017 0.43611 0.57659 0.0
H1179 H 0.94996 0.46996 0.54826 0.0
H1180 H 0.0285 0.44757 0.54828 0.0
H1181 H 0.01889 0.41373 0.57672 0.0
H1182 H 0.02451 0.49872 0.5482 0.0
H1183 H 0.98956 0.43056 0.50144 0.0
H1184 H 0.95681 0.39776 0.49548 0.0
H1185 H 0.89975 0.45544 0.48976 0.0
H1186 H 0.93221 0.4886 0.49576 0.0
H1187 H 0.06478 0.56032 0.44295 0.0
H1188 H 0.05333 0.52777 0.47201 0.0
H1189 H 0.97546 0.55219 0.4694 0.0
H1190 H 0.98682 0.58498 0.44028 0.0
H1191 H 0.97794 0.50088 0.47139 0.0
H1192 H 0.01422 0.56957 0.5155 0.0
H1193 H 0.04652 0.60169 0.52544 0.0
H1194 H 0.10106 0.54289 0.53836 0.0
H1195 H 0.06917 0.5104 0.52815 0.0
C1196 C 0.95953 0.43826 0.57057 0.0
C1197 C 0.97865 0.42189 0.57896 0.0
C1198 C 0.96514 0.45773 0.55432 0.0
C1199 C 0.98996 0.46122 0.54574 0.0
C1200 C 0.00921 0.44538 0.55456 0.0
C1201 C 0.00365 0.42597 0.57092 0.0
C1202 C 0.99568 0.48075 0.52702 0.0
C1203 C 0.01455 0.49899 0.5313 0.0
C1204 C 0.98238 0.48158 0.50509 0.0
C1205 C 0.96325 0.46201 0.49912 0.0
C1206 C 0.97005 0.43624 0.49871 0.0
C1207 C 0.95155 0.41759 0.49539 0.0
C1208 C 0.92623 0.42451 0.49231 0.0
C1209 C 0.91939 0.45012 0.4921 0.0
C1210 C 0.93785 0.46886 0.49538 0.0
C1211 C 0.04521 0.55892 0.44856 0.0
C1212 C 0.02684 0.57565 0.43934 0.0
C1213 C 0.03865 0.54018 0.46523 0.0
C1214 C 0.01356 0.53768 0.47335 0.0
C1215 C 0.99496 0.5537 0.46355 0.0
C1216 C 1.00151 0.57247 0.44679 0.0
C1217 C 0.00702 0.51883 0.49246 0.0
C1218 C 0.98795 0.50069 0.48826 0.0
C1219 C 0.0202 0.51809 0.5145 0.0
C1220 C 0.03937 0.53756 0.52084 0.0
C1221 C 0.03315 0.56349 0.5203 0.0
C1222 C 0.05138 0.58176 0.526 0.0
C1223 C 0.07584 0.57434 0.53247 0.0
C1224 C 0.08211 0.54861 0.53332 0.0
C1225 C 0.06396 0.53026 0.52759 0.0
H1226 H 0.08992 0.58851 0.53688 0.0
H1227 H 0.91195 0.40998 0.49026 0.0
H1228 H 0.9464 0.98912 0.42404 0.0
H1229 H 0.97973 0.98181 0.4534 0.0
H1230 H 0.95165 0.04381 0.49555 0.0
H1231 H 0.91782 0.05083 0.46695 0.0
H1232 H 0.00425 0.04488 0.48958 0.0
H1233 H 0.93925 0.98493 0.5116 0.0
H1234 H 0.90979 0.94923 0.50537 0.0
H1235 H 0.97241 0.90011 0.48971 0.0
H1236 H 0.00223 0.93564 0.49538 0.0
H1237 H 0.07934 0.02374 0.59288 0.0
H1238 H 0.04333 0.03056 0.56601 0.0
H1239 H 0.06001 0.96002 0.53059 0.0
H1240 H 0.09524 0.9528 0.55776 0.0
H1241 H 0.0123 0.96359 0.53337 0.0
H1242 H 0.07723 0.02172 0.50875 0.0
H1243 H 0.10808 0.05663 0.51273 0.0
H1244 H 0.04796 0.10806 0.53031 0.0
H1245 H 0.01678 0.07337 0.52682 0.0
C1246 C 0.94702 1.00116 0.43957 0.0
C1247 C 0.92905 0.02064 0.44282 0.0
C1248 C 0.96624 0.99693 0.45638 0.0
C1249 C 0.96813 0.01216 0.47678 0.0
C1250 C 0.95062 0.03184 0.47993 0.0
C1251 C 0.93125 0.03591 0.46332 0.0
C1252 C 0.98837 0.00773 0.49485 0.0
C1253 C 0.00581 0.02725 0.49942 0.0
C1254 C 0.99093 0.9844 0.50715 0.0
C1255 C 0.97295 0.96307 0.50358 0.0
C1256 C 0.94673 0.96661 0.50653 0.0
C1257 C 0.92996 0.94637 0.50316 0.0
C1258 C 0.93921 0.92244 0.49705 0.0
C1259 C 0.96525 0.91868 0.49436 0.0
C1260 C 0.9821 0.93886 0.49764 0.0
C1261 C 0.07516 0.00964 0.57946 0.0
C1262 C 0.0902 0.98774 0.57754 0.0
C1263 C 0.05466 0.01361 0.56398 0.0
C1264 C 0.04911 0.99607 0.54583 0.0
C1265 C 0.06374 0.97388 0.54436 0.0
C1266 C 0.08393 0.96972 0.56003 0.0
C1267 C 0.02839 1.00076 0.52814 0.0
C1268 C 0.01081 0.98129 0.52361 0.0
C1269 C 0.02595 0.02401 0.51556 0.0
C1270 C 0.04471 0.04485 0.51787 0.0
C1271 C 0.07062 0.04041 0.51371 0.0
C1272 C 0.08816 0.06017 0.51583 0.0
C1273 C 0.08 0.08452 0.52187 0.0
C1274 C 0.05426 0.08917 0.52572 0.0
C1275 C 0.03665 0.06947 0.52369 0.0
H1276 H 0.09361 0.0998 0.52347 0.0
H1277 H 0.9262 0.9068 0.49448 0.0
H1278 H 0.5355 0.91452 0.43362 0.0
H1279 H 0.54172 0.94928 0.46138 0.0
H1280 H 0.4613 0.96345 0.46195 0.0
H1281 H 0.45489 0.92897 0.43341 0.0
H1282 H 0.48741 0.00763 0.46125 0.0
H1283 H 0.48968 0.93155 0.50756 0.0
H1284 H 0.50366 0.88845 0.51842 0.0
H1285 H 0.57981 0.91548 0.52777 0.0
H1286 H 0.56637 0.95871 0.51659 0.0
H1287 H 0.48465 0.07986 0.56822 0.0
H1288 H 0.47863 0.0462 0.53892 0.0
H1289 H 0.55957 0.03688 0.53361 0.0
H1290 H 0.56575 0.07068 0.5631 0.0
H1291 H 0.53316 0.99045 0.53681 0.0
H1292 H 0.53 0.06704 0.49076 0.0
H1293 H 0.51512 0.11003 0.48062 0.0
H1294 H 0.43936 0.08174 0.47168 0.0
H1295 H 0.45372 0.03862 0.48217 0.0
C1296 C 0.51906 0.92515 0.43922 0.0
C1297 C 0.4946 0.91866 0.43111 0.0
C1298 C 0.52267 0.94498 0.45542 0.0
C1299 C 0.50197 0.95884 0.46417 0.0
C1300 C 0.47761 0.95299 0.45562 0.0
C1301 C 0.47394 0.93309 0.43938 0.0
C1302 C 0.50583 0.97905 0.48252 0.0
C1303 C 0.49711 0.00375 0.47789 0.0
C1304 C 0.51892 0.97427 0.50414 0.0
C1305 C 0.52706 0.94833 0.511 0.0
C1306 C 0.50945 0.92827 0.51175 0.0
C1307 C 0.51727 0.90383 0.51799 0.0
C1308 C 0.54262 0.89922 0.52372 0.0
C1309 C 0.56019 0.91908 0.52329 0.0
C1310 C 0.55248 0.94356 0.51701 0.0
C1311 C 0.50121 0.07051 0.56106 0.0
C1312 C 0.52572 0.07798 0.56814 0.0
C1313 C 0.49773 0.05137 0.54412 0.0
C1314 C 0.51863 0.03906 0.53388 0.0
C1315 C 0.54313 0.0461 0.5412 0.0
C1316 C 0.54665 0.06551 0.55797 0.0
C1317 C 0.5148 0.01897 0.51548 0.0
C1318 C 0.52349 0.9943 0.52013 0.0
C1319 C 0.50156 0.02376 0.49397 0.0
C1320 C 0.49289 0.04963 0.48749 0.0
C1321 C 0.51012 0.07001 0.48683 0.0
C1322 C 0.50179 0.09441 0.48099 0.0
C1323 C 0.4763 0.09862 0.47557 0.0
C1324 C 0.4591 0.07845 0.47592 0.0
C1325 C 0.46732 0.05402 0.4818 0.0
H1326 H 0.46988 0.11752 0.47104 0.0
H1327 H 0.54863 0.88028 0.52856 0.0
H1328 H 0.52465 0.29733 1.0019 0.0
H1329 H 0.5295 0.26541 0.03347 0.0
H1330 H 0.60954 0.28139 0.03671 0.0
H1331 H 0.60521 0.31249 0.00506 0.0
H1332 H 0.59277 0.23052 0.02074 0.0
H1333 H 0.58089 0.29418 0.08221 0.0
H1334 H 0.55648 0.32692 0.10343 0.0
H1335 H 0.49805 0.27255 0.11891 0.0
H1336 H 0.52197 0.23955 0.09746 0.0
H1337 H 0.66457 0.17224 0.10155 0.0
H1338 H 0.63617 0.20782 0.09397 0.0
H1339 H 0.57311 0.15617 0.08765 0.0
H1340 H 0.60166 0.12025 0.09537 0.0
H1341 H 0.57094 0.22081 0.10629 0.0
H1342 H 0.58284 0.15723 0.04182 0.0
H1343 H 0.60944 0.12536 0.02166 0.0
H1344 H 0.66784 0.18101 0.01123 0.0
H1345 H 0.64191 0.21304 0.03205 0.0
C1346 C 0.54318 0.29445 0.00974 0.0
C1347 C 0.56461 0.30719 1.00063 0.0
C1348 C 0.54583 0.2764 0.0279 0.0
C1349 C 0.56988 0.27107 0.0372 0.0
C1350 C 0.5908 0.2854 0.02974 0.0
C1351 C 0.58822 0.30332 0.01167 0.0
C1352 C 0.57448 0.24769 0.05097 0.0
C1353 C 0.58766 0.22829 0.03936 0.0
C1354 C 0.56735 0.24466 0.07507 0.0
C1355 C 0.55304 0.26449 0.08794 0.0
C1356 C 0.5627 0.28927 0.08989 0.0
C1357 C 0.54899 0.30786 0.10203 0.0
C1358 C 0.52568 0.30185 0.11243 0.0
C1359 C 0.51607 0.2772 0.11079 0.0
C1360 C 0.52971 0.25855 0.09866 0.0
C1361 C 0.64447 0.16859 0.09945 0.0
C1362 C 0.63525 0.14367 0.09843 0.0
C1363 C 0.62824 0.18891 0.09543 0.0
C1364 C 0.60268 0.1845 0.09005 0.0
C1365 C 0.59278 0.15985 0.09195 0.0
C1366 C 0.60909 0.13939 0.0962 0.0
C1367 C 0.58938 0.20398 0.076 0.0
C1368 C 0.57498 0.22268 0.08743 0.0
C1369 C 0.59511 0.20647 0.05153 0.0
C1370 C 0.61058 0.18739 0.03874 0.0
C1371 C 0.60148 0.16258 0.03548 0.0
C1372 C 0.61644 0.14451 0.02396 0.0
C1373 C 0.64036 0.15118 0.01527 0.0
C1374 C 0.64937 0.1759 0.01811 0.0
C1375 C 0.63458 0.19399 0.02979 0.0
H1376 H 0.65186 0.13729 0.00618 0.0
H1377 H 0.5151 0.31626 0.12182 0.0
H1378 H 0.23462 0.53165 0.9878 0.0
H1379 H 0.2588 0.53111 0.02423 0.0
H1380 H 0.19194 0.55063 0.06433 0.0
H1381 H 0.16695 0.5504 0.02754 0.0
H1382 H 0.22844 0.58428 0.07068 0.0
H1383 H 0.22486 0.49654 0.08005 0.0
H1384 H 0.2242 0.45143 0.06874 0.0
H1385 H 0.30082 0.45716 0.04358 0.0
H1386 H 0.30188 0.50239 0.05436 0.0
H1387 H 0.34413 0.62114 0.12848 0.0
H1388 H 0.30346 0.59802 0.12747 0.0
H1389 H 0.32709 0.5606 0.06289 0.0
H1390 H 0.36714 0.58329 0.06395 0.0
H1391 H 0.30093 0.52843 0.09043 0.0
H1392 H 0.29311 0.61871 0.06462 0.0
H1393 H 0.28879 0.66509 0.06917 0.0
H1394 H 0.23141 0.65399 0.1224 0.0
H1395 H 0.23561 0.60758 0.11837 0.0
C1396 C 0.22457 0.53472 0.00434 0.0
C1397 C 0.19874 0.54128 0.00452 0.0
C1398 C 0.23857 0.53435 0.02535 0.0
C1399 C 0.2272 0.54059 0.04714 0.0
C1400 C 0.20108 0.54562 0.04773 0.0
C1401 C 0.18691 0.54576 0.02662 0.0
C1402 C 0.24383 0.54664 0.06768 0.0
C1403 C 0.24381 0.57174 0.07582 0.0
C1404 C 0.26375 0.53028 0.07457 0.0
C1405 C 0.26346 0.50294 0.06815 0.0
C1406 C 0.24156 0.48823 0.07203 0.0
C1407 C 0.24111 0.46262 0.0657 0.0
C1408 C 0.26247 0.45143 0.05548 0.0
C1409 C 0.28432 0.46583 0.05157 0.0
C1410 C 0.28488 0.49146 0.05787 0.0
C1411 C 0.34076 0.6074 0.11452 0.0
C1412 C 0.3586 0.60401 0.09621 0.0
C1413 C 0.31754 0.59435 0.11387 0.0
C1414 C 0.31215 0.57767 0.09502 0.0
C1415 C 0.33078 0.57322 0.07769 0.0
C1416 C 0.35365 0.58632 0.07821 0.0
C1417 C 0.2866 0.56663 0.09112 0.0
C1418 C 0.28487 0.54051 0.0864 0.0
C1419 C 0.26511 0.5821 0.08713 0.0
C1420 C 0.26498 0.60974 0.0915 0.0
C1421 C 0.27998 0.62618 0.07765 0.0
C1422 C 0.27741 0.65245 0.08001 0.0
C1423 C 0.2597 0.6624 0.09593 0.0
C1424 C 0.24504 0.6462 0.11003 0.0
C1425 C 0.24757 0.61995 0.10778 0.0
H1426 H 0.25715 0.68266 0.09729 0.0
H1427 H 0.26207 0.4316 0.05057 0.0
H1428 H 0.91336 0.19205 1.0024 0.0
H1429 H 0.90596 0.22418 0.03205 0.0
H1430 H 0.98185 0.25269 0.02265 0.0
H1431 H 0.99039 0.21915 0.99371 0.0
H1432 H 0.95758 0.25987 0.07174 0.0
H1433 H 0.94526 0.27717 0.98802 0.0
H1434 H 0.93058 0.26577 0.94772 0.0
H1435 H 0.85401 0.26066 0.97317 0.0
H1436 H 0.86832 0.27139 0.01375 0.0
H1437 H 0.90254 0.38788 0.09382 0.0
H1438 H 0.92957 0.35238 0.08089 0.0
H1439 H 0.86344 0.30461 0.07508 0.0
H1440 H 0.83664 0.3396 0.08778 0.0
H1441 H 0.8913 0.31189 0.03231 0.0
H1442 H 0.90379 0.29159 0.116 0.0
H1443 H 0.91811 0.30074 0.15688 0.0
H1444 H 0.99406 0.3123 0.13156 0.0
H1445 H 0.98009 0.30356 0.09043 0.0
C1446 C 0.92913 0.20408 0.00729 0.0
C1447 C 0.95236 0.20321 0.99493 0.0
C1448 C 0.92472 0.22265 0.02432 0.0
C1449 C 0.94315 0.2411 0.02906 0.0
C1450 C 0.96733 0.23868 0.01902 0.0
C1451 C 0.97197 0.21972 1.00216 0.0
C1452 C 0.93506 0.26515 0.04012 0.0
C1453 C 0.94347 0.27161 0.06303 0.0
C1454 C 0.91671 0.2804 0.0286 0.0
C1455 C 0.9079 0.27494 0.00398 0.0
C1456 C 0.92531 0.27348 0.98505 0.0
C1457 C 0.91706 0.26712 0.96216 0.0
C1458 C 0.89139 0.26247 0.9579 0.0
C1459 C 0.8739 0.26425 0.9765 0.0
C1460 C 0.88207 0.27048 0.99945 0.0
C1461 C 0.894 0.36955 0.09044 0.0
C1462 C 0.86754 0.36647 0.09142 0.0
C1463 C 0.90939 0.34937 0.08305 0.0
C1464 C 0.89838 0.32603 0.07683 0.0
C1465 C 0.87222 0.32254 0.07964 0.0
C1466 C 0.85696 0.34255 0.08685 0.0
C1467 C 0.91298 0.30617 0.06439 0.0
C1468 C 0.90584 0.30059 0.04094 0.0
C1469 C 0.93248 0.29201 0.07542 0.0
C1470 C 0.94083 0.29727 0.10011 0.0
C1471 C 0.92348 0.29637 0.11911 0.0
C1472 C 0.93155 0.3014 0.14233 0.0
C1473 C 0.95696 0.30719 0.14681 0.0
C1474 C 0.97437 0.30787 0.12806 0.0
C1475 C 0.96639 0.30286 0.10479 0.0
H1476 H 0.96317 0.31108 0.1648 0.0
H1477 H 0.88502 0.25752 0.94019 0.0
H1478 H 0.31256 0.92898 0.02288 0.0
H1479 H 0.28132 0.91804 0.05255 0.0
H1480 H 0.23807 0.98462 0.03466 0.0
H1481 H 0.2705 0.99721 0.00592 0.0
H1482 H 0.23048 0.96433 0.084 0.0
H1483 H 0.22693 0.93842 1.00049 0.0
H1484 H 0.2474 0.92166 0.9643 0.0
H1485 H 0.2667 0.85322 1.00173 0.0
H1486 H 0.24637 0.86962 0.03811 0.0
H1487 H 0.1077 0.90235 0.09685 0.0
H1488 H 0.14464 0.92896 0.08719 0.0
H1489 H 0.19193 0.86223 0.0859 0.0
H1490 H 0.1552 0.83581 0.09419 0.0
H1491 H 0.19622 0.88646 0.04624 0.0
H1492 H 0.19735 0.9101 0.12907 0.0
H1493 H 0.17954 0.92707 0.16635 0.0
H1494 H 0.16633 0.99883 0.13224 0.0
H1495 H 0.18376 0.98217 0.09465 0.0
C1496 C 0.29734 0.94229 0.02593 0.0
C1497 C 0.29372 0.96358 0.01108 0.0
C1498 C 0.27932 0.93583 0.04301 0.0
C1499 C 0.25706 0.95008 0.04517 0.0
C1500 C 0.25501 0.97319 0.03296 0.0
C1501 C 0.2734 0.98006 0.01618 0.0
C1502 C 0.23422 0.93781 0.05516 0.0
C1503 C 0.22272 0.94744 0.07575 0.0
C1504 C 0.22429 0.91576 0.0443 0.0
C1505 C 0.2352 0.90527 0.02202 0.0
C1506 C 0.23547 0.91976 1.00095 0.0
C1507 C 0.24704 0.91032 0.9804 0.0
C1508 C 0.25825 0.88633 0.98066 0.0
C1509 C 0.25783 0.8717 1.00146 0.0
C1510 C 0.24624 0.88104 0.02204 0.0
C1511 C 0.12614 0.89357 0.09505 0.0
C1512 C 0.12865 0.86707 0.09613 0.0
C1513 C 0.14723 0.90874 0.08959 0.0
C1514 C 0.17106 0.89756 0.08571 0.0
C1515 C 0.17373 0.87127 0.0886 0.0
C1516 C 0.15272 0.85618 0.09347 0.0
C1517 C 0.19262 0.9123 0.07581 0.0
C1518 C 0.20378 0.9033 0.05478 0.0
C1519 C 0.20209 0.93477 0.0864 0.0
C1520 C 0.19161 0.9448 0.10897 0.0
C1521 C 0.19044 0.92943 0.12946 0.0
C1522 C 0.18046 0.93901 0.15066 0.0
C1523 C 0.17174 0.96399 0.15165 0.0
C1524 C 0.17305 0.97947 0.13144 0.0
C1525 C 0.183 0.96998 0.11019 0.0
H1526 H 0.16402 0.97137 0.16808 0.0
H1527 H 0.26729 0.87909 0.96476 0.0
H1528 H 0.60726 0.36281 0.38637 0.0
H1529 H 0.58516 0.32166 0.38897 0.0
H1530 H 0.58356 0.32792 0.46549 0.0
H1531 H 0.6049 0.36869 0.46317 0.0
H1532 H 0.60619 0.28136 0.44464 0.0
H1533 H 0.53274 0.33801 0.44421 0.0
H1534 H 0.50551 0.37055 0.4257 0.0
H1535 H 0.49356 0.32223 0.36528 0.0
H1536 H 0.52103 0.28953 0.38336 0.0
H1537 H 0.51689 0.23518 0.5199 0.0
H1538 H 0.52157 0.26248 0.48556 0.0
H1539 H 0.54877 0.19954 0.44408 0.0
H1540 H 0.54345 0.17143 0.47849 0.0
H1541 H 0.51423 0.26663 0.43235 0.0
H1542 H 0.59833 0.21093 0.43809 0.0
H1543 H 0.62253 0.18266 0.46492 0.0
H1544 H 0.61005 0.23385 0.52307 0.0
H1545 H 0.58598 0.26244 0.49648 0.0
C1546 C 0.60187 0.35549 0.40369 0.0
C1547 C 0.60797 0.36889 0.42458 0.0
C1548 C 0.58933 0.33205 0.40511 0.0
C1549 C 0.58302 0.32183 0.42742 0.0
C1550 C 0.58849 0.33551 0.44813 0.0
C1551 C 0.60067 0.35885 0.44674 0.0
C1552 C 0.57165 0.29641 0.43001 0.0
C1553 C 0.58635 0.27765 0.44103 0.0
C1554 C 0.54563 0.29195 0.42576 0.0
C1555 C 0.52921 0.31154 0.41493 0.0
C1556 C 0.52452 0.33447 0.42686 0.0
C1557 C 0.50899 0.3529 0.41649 0.0
C1558 C 0.49789 0.34851 0.39428 0.0
C1559 C 0.50224 0.32564 0.38244 0.0
C1560 C 0.51778 0.30715 0.39274 0.0
C1561 C 0.52256 0.22659 0.50325 0.0
C1562 C 0.53051 0.20114 0.50224 0.0
C1563 C 0.52514 0.24237 0.48348 0.0
C1564 C 0.53591 0.2331 0.46246 0.0
C1565 C 0.54059 0.20704 0.46028 0.0
C1566 C 0.53789 0.1911 0.48009 0.0
C1567 C 0.5489 0.25155 0.44685 0.0
C1568 C 0.53453 0.26933 0.43402 0.0
C1569 C 0.57524 0.25543 0.44973 0.0
C1570 C 0.59058 0.23878 0.46534 0.0
C1571 C 0.60093 0.21616 0.45657 0.0
C1572 C 0.61458 0.2001 0.47172 0.0
C1573 C 0.61784 0.20648 0.49567 0.0
C1574 C 0.60759 0.22899 0.5045 0.0
C1575 C 0.59404 0.24515 0.48939 0.0
H1576 H 0.62826 0.19397 0.50742 0.0
H1577 H 0.48586 0.36279 0.38628 0.0
H1578 H 0.12928 0.56973 0.42515 0.0
H1579 H 0.17122 0.55036 0.42619 0.0
H1580 H 0.19966 0.60902 0.37956 0.0
H1581 H 0.15727 0.62808 0.37799 0.0
H1582 H 0.21377 0.5346 0.39807 0.0
H1583 H 0.25252 0.6339 0.41461 0.0
H1584 H 0.23895 0.67758 0.42279 0.0
H1585 H 0.1701 0.64984 0.4544 0.0
H1586 H 0.184 0.60583 0.44751 0.0
H1587 H 0.32486 0.57557 0.48688 0.0
H1588 H 0.30265 0.58055 0.44946 0.0
H1589 H 0.2553 0.51626 0.46676 0.0
H1590 H 0.27941 0.50922 0.50285 0.0
H1591 H 0.25887 0.59577 0.44992 0.0
H1592 H 0.21903 0.49573 0.4234 0.0
H1593 H 0.2352 0.45237 0.4176 0.0
H1594 H 0.31012 0.48173 0.40588 0.0
H1595 H 0.29437 0.52532 0.41124 0.0
C1596 C 0.14418 0.57765 0.4141 0.0
C1597 C 0.1403 0.60039 0.40165 0.0
C1598 C 0.16812 0.56655 0.41463 0.0
C1599 C 0.1886 0.57849 0.40326 0.0
C1600 C 0.18406 0.59954 0.38844 0.0
C1601 C 0.15988 0.6104 0.38754 0.0
C1602 C 0.21444 0.57261 0.41183 0.0
C1603 C 0.22397 0.54793 0.40921 0.0
C1604 C 0.22798 0.5903 0.42584 0.0
C1605 C 0.21902 0.61659 0.42993 0.0
C1606 C 0.23449 0.63712 0.4233 0.0
C1607 C 0.22682 0.66196 0.42793 0.0
C1608 C 0.20356 0.66657 0.43899 0.0
C1609 C 0.18807 0.64627 0.44573 0.0
C1610 C 0.19589 0.62134 0.44155 0.0
C1611 C 0.31065 0.56159 0.48235 0.0
C1612 C 0.30357 0.54237 0.49854 0.0
C1613 C 0.29771 0.56467 0.46085 0.0
C1614 C 0.27695 0.54908 0.45525 0.0
C1615 C 0.27134 0.52851 0.47032 0.0
C1616 C 0.28482 0.5249 0.49146 0.0
C1617 C 0.25829 0.55729 0.43688 0.0
C1618 C 0.24977 0.58248 0.43792 0.0
C1619 C 0.24595 0.54007 0.42137 0.0
C1620 C 0.25549 0.51386 0.4178 0.0
C1621 C 0.23892 0.49299 0.41939 0.0
C1622 C 0.24803 0.46834 0.41624 0.0
C1623 C 0.27367 0.46429 0.41141 0.0
C1624 C 0.29027 0.48489 0.40968 0.0
C1625 C 0.28126 0.50957 0.41281 0.0
H1626 H 0.28069 0.4452 0.40899 0.0
H1627 H 0.19756 0.68585 0.44235 0.0
H1628 H 0.93392 0.11444 0.39435 0.0
H1629 H 0.95336 0.15044 0.41518 0.0
H1630 H 0.88018 0.1711 0.4434 0.0
H1631 H 0.86073 0.13605 0.42219 0.0
H1632 H 0.90477 0.21192 0.43375 0.0
H1633 H 0.92264 0.13406 0.47555 0.0
H1634 H 0.93954 0.09079 0.4801 0.0
H1635 H 0.01433 0.11771 0.46343 0.0
H1636 H 0.99778 0.16124 0.45868 0.0
H1637 H 0.94637 0.24169 0.55965 0.0
H1638 H 0.94317 0.21076 0.52765 0.0
H1639 H 0.9632 0.26844 0.47636 0.0
H1640 H 0.96675 0.29959 0.50842 0.0
H1641 H 0.97129 0.19067 0.49298 0.0
H1642 H 0.92245 0.2615 0.42857 0.0
H1643 H 0.89693 0.3007 0.42989 0.0
H1644 H 0.87268 0.28243 0.50089 0.0
H1645 H 0.89772 0.24301 0.49985 0.0
C1646 C 0.92196 0.12704 0.40458 0.0
C1647 C 0.89586 0.1222 0.40693 0.0
C1648 C 0.9331 0.14747 0.41661 0.0
C1649 C 0.9183 0.16324 0.4312 0.0
C1650 C 0.89204 0.15923 0.43233 0.0
C1651 C 0.88095 0.139 0.42031 0.0
C1652 C 0.92992 0.18285 0.44672 0.0
C1653 C 0.91967 0.20739 0.44638 0.0
C1654 C 0.94891 0.17684 0.46364 0.0
C1655 C 0.95894 0.15078 0.46641 0.0
C1656 C 0.94266 0.1307 0.47267 0.0
C1657 C 0.95217 0.10614 0.4753 0.0
C1658 C 0.97796 0.10146 0.47186 0.0
C1659 C 0.99434 0.12137 0.46597 0.0
C1660 C 0.98491 0.14599 0.46333 0.0
C1661 C 0.95089 0.2477 0.54169 0.0
C1662 C 0.95653 0.27322 0.5366 0.0
C1663 C 0.94899 0.22995 0.52337 0.0
C1664 C 0.95259 0.23737 0.49959 0.0
C1665 C 0.95998 0.26241 0.49457 0.0
C1666 C 0.9619 0.28019 0.51291 0.0
C1667 C 0.94589 0.21958 0.48014 0.0
C1668 C 0.95706 0.19545 0.47976 0.0
C1669 C 0.92686 0.22556 0.46326 0.0
C1670 C 0.91228 0.24954 0.46424 0.0
C1671 C 0.91173 0.26591 0.44447 0.0
C1672 C 0.89731 0.28813 0.44516 0.0
C1673 C 0.88327 0.29405 0.46549 0.0
C1674 C 0.88366 0.27785 0.4852 0.0
C1675 C 0.89799 0.2556 0.48458 0.0
H1676 H 0.87192 0.31108 0.4659 0.0
H1677 H 0.98526 0.08242 0.47382 0.0
H1678 H 0.37835 0.84793 0.46107 0.0
H1679 H 0.34145 0.87422 0.46854 0.0
H1680 H 0.3468 0.9055 0.39762 0.0
H1681 H 0.38483 0.87951 0.39025 0.0
H1682 H 0.33297 0.94154 0.43049 0.0
H1683 H 0.30403 0.8593 0.40846 0.0
H1684 H 0.3035 0.81264 0.40932 0.0
H1685 H 0.2824 0.81349 0.4831 0.0
H1686 H 0.28328 0.86022 0.4829 0.0
H1687 H 0.1953 0.93347 0.48977 0.0
H1688 H 0.2236 0.92584 0.45602 0.0
H1689 H 0.28437 0.96321 0.49376 0.0
H1690 H 0.25575 0.97184 0.52683 0.0
H1691 H 0.2586 0.8947 0.4621 0.0
H1692 H 0.33426 0.97656 0.46051 0.0
H1693 H 0.33481 0.02328 0.45951 0.0
H1694 H 0.25959 0.02391 0.43035 0.0
H1695 H 0.25869 0.97718 0.43081 0.0
C1696 C 0.37179 0.86045 0.44704 0.0
C1697 C 0.38415 0.86141 0.42493 0.0
C1698 C 0.35066 0.87546 0.45133 0.0
C1699 C 0.34095 0.89126 0.4334 0.0
C1700 C 0.35388 0.8932 0.41159 0.0
C1701 C 0.37549 0.87839 0.4074 0.0
C1702 C 0.31682 0.90483 0.43775 0.0
C1703 C 0.31651 0.93144 0.43715 0.0
C1704 C 0.29505 0.89151 0.4456 0.0
C1705 C 0.2938 0.86333 0.44565 0.0
C1706 C 0.29938 0.84956 0.42491 0.0
C1707 C 0.29908 0.82307 0.4253 0.0
C1708 C 0.29307 0.81008 0.44628 0.0
C1709 C 0.28713 0.82357 0.46688 0.0
C1710 C 0.28749 0.85008 0.46663 0.0
C1711 C 0.2144 0.94103 0.49027 0.0
C1712 C 0.22351 0.95308 0.51081 0.0
C1713 C 0.23057 0.93666 0.47104 0.0
C1714 C 0.25623 0.94377 0.47231 0.0
C1715 C 0.26462 0.95791 0.49201 0.0
C1716 C 0.24829 0.96273 0.51103 0.0
C1717 C 0.27513 0.93166 0.45637 0.0
C1718 C 0.27455 0.9051 0.45477 0.0
C1719 C 0.29582 0.94511 0.44636 0.0
C1720 C 0.29639 0.97328 0.44576 0.0
C1721 C 0.3179 0.98662 0.4537 0.0
C1722 C 0.31825 0.01313 0.45327 0.0
C1723 C 0.29724 0.02655 0.4449 0.0
C1724 C 0.27583 0.01349 0.43689 0.0
C1725 C 0.27538 0.98698 0.43727 0.0
H1726 H 0.29755 0.04707 0.4446 0.0
H1727 H 0.29289 0.78956 0.44656 0.0
H1728 H 0.46046 0.70979 0.0132 0.0
H1729 H 0.45428 0.74573 0.98714 0.0
H1730 H 0.47709 0.7964 0.04319 0.0
H1731 H 0.48565 0.76029 0.06921 0.0
H1732 H 0.41723 0.78402 0.02032 0.0
H1733 H 0.50419 0.81564 0.01054 0.0
H1734 H 0.54869 0.81063 0.99805 0.0
H1735 H 0.52445 0.79323 0.92693 0.0
H1736 H 0.47975 0.79774 0.93914 0.0
H1737 H 0.36211 0.89446 0.98245 0.0
H1738 H 0.39393 0.86657 0.99989 0.0
H1739 H 0.4131 0.8388 0.92991 0.0
H1740 H 0.38207 0.86824 0.91218 0.0
H1741 H 0.45458 0.83948 0.95794 0.0
H1742 H 0.37046 0.80738 0.96393 0.0
H1743 H 0.32476 0.80919 0.97297 0.0
H1744 H 0.3414 0.82097 0.04696 0.0
H1745 H 0.38725 0.81971 0.03831 0.0
C1746 C 0.46582 0.72826 0.01984 0.0
C1747 C 0.47284 0.73195 0.04384 0.0
C1748 C 0.46215 0.74893 0.00471 0.0
C1749 C 0.46512 0.77361 0.01329 0.0
C1750 C 0.4749 0.77739 0.03621 0.0
C1751 C 0.4793 0.75666 0.05121 0.0
C1752 C 0.45121 0.7942 1.00134 0.0
C1753 C 0.42547 0.79651 0.00699 0.0
C1754 C 0.46182 0.80938 0.98316 0.0
C1755 C 0.48864 0.80666 0.97585 0.0
C1756 C 0.50833 0.8104 0.99234 0.0
C1757 C 0.5336 0.80775 0.98528 0.0
C1758 C 0.5394 0.80152 0.96173 0.0
C1759 C 0.51994 0.79801 0.94518 0.0
C1760 C 0.49464 0.80063 0.95215 0.0
C1761 C 0.37336 0.88262 0.97078 0.0
C1762 C 0.36947 0.88294 0.94611 0.0
C1763 C 0.39153 0.86676 0.98072 0.0
C1764 C 0.40536 0.85012 0.96625 0.0
C1765 C 0.4025 0.8514 0.94139 0.0
C1766 C 0.38473 0.86798 0.93131 0.0
C1767 C 0.42069 0.82989 0.97751 0.0
C1768 C 0.44641 0.82725 0.97148 0.0
C1769 C 0.40992 0.81372 0.99499 0.0
C1770 C 0.38232 0.81371 1.00042 0.0
C1771 C 0.36439 0.81048 0.98212 0.0
C1772 C 0.33846 0.81143 0.98717 0.0
C1773 C 0.3302 0.81532 0.01051 0.0
C1774 C 0.34785 0.81804 0.02888 0.0
C1775 C 0.37381 0.8172 0.02392 0.0
H1776 H 0.31012 0.81624 0.01434 0.0
H1777 H 0.55897 0.79949 0.95629 0.0
H1778 H 0.79572 0.49542 0.00671 0.0
H1779 H 0.76682 0.49263 0.97265 0.0
H1780 H 0.78254 0.41264 0.96683 0.0
H1781 H 0.81076 0.41505 1.00073 0.0
H1782 H 0.77363 0.43339 0.92324 0.0
H1783 H 0.73563 0.43392 1.00327 0.0
H1784 H 0.72675 0.45398 0.04203 0.0
H1785 H 0.69284 0.51758 0.00634 0.0
H1786 H 0.70189 0.498 0.96734 0.0
H1787 H 0.67584 0.34839 0.91792 0.0
H1788 H 0.71072 0.37773 0.92383 0.0
H1789 H 0.66056 0.441 0.91167 0.0
H1790 H 0.625 0.41133 0.90598 0.0
H1791 H 0.68589 0.44535 0.95287 0.0
H1792 H 0.71011 0.43035 0.87339 0.0
H1793 H 0.71771 0.40501 0.83729 0.0
H1794 H 0.77698 0.3643 0.87308 0.0
H1795 H 0.7695 0.38902 0.90953 0.0
C1796 C 0.79337 0.47734 0.99789 0.0
C1797 C 0.8053 0.45538 0.00678 0.0
C1798 C 0.777 0.47584 0.97831 0.0
C1799 C 0.77228 0.45236 0.96742 0.0
C1800 C 0.78597 0.431 0.97487 0.0
C1801 C 0.80222 0.43245 0.99436 0.0
C1802 C 0.75041 0.44856 0.95126 0.0
C1803 C 0.75438 0.43627 0.92944 0.0
C1804 C 0.72531 0.45303 0.95909 0.0
C1805 C 0.71974 0.46471 0.98246 0.0
C1806 C 0.72643 0.45226 1.00372 0.0
C1807 C 0.72137 0.46353 0.02571 0.0
C1808 C 0.70931 0.48708 0.02664 0.0
C1809 C 0.70225 0.49938 0.00558 0.0
C1810 C 0.70736 0.48823 0.98353 0.0
C1811 C 0.67223 0.36853 0.91612 0.0
C1812 C 0.64768 0.37764 0.91176 0.0
C1813 C 0.69231 0.3853 0.91919 0.0
C1814 C 0.68838 0.41157 0.91785 0.0
C1815 C 0.66403 0.42078 0.91252 0.0
C1816 C 0.6438 0.40387 0.90928 0.0
C1817 C 0.70909 0.42875 0.92547 0.0
C1818 C 0.70495 0.44357 0.9458 0.0
C1819 C 0.73402 0.42615 0.91643 0.0
C1820 C 0.73919 0.41162 0.89428 0.0
C1821 C 0.72471 0.41594 0.87362 0.0
C1822 C 0.72899 0.40165 0.85308 0.0
C1823 C 0.74778 0.38302 0.85291 0.0
C1824 C 0.76242 0.37872 0.87324 0.0
C1825 C 0.75821 0.39294 0.89384 0.0
H1826 H 0.75103 0.37194 0.837 0.0
H1827 H 0.70538 0.49578 0.04368 0.0
H1828 H 0.00829 0.79702 1.00154 0.0
H1829 H 0.01522 0.76728 0.96872 0.0
H1830 H 0.09556 0.78225 0.97191 0.0
H1831 H 0.08896 0.81147 0.00443 0.0
H1832 H 0.08197 0.77145 0.92718 0.0
H1833 H 0.06803 0.73661 0.0072 0.0
H1834 H 0.04234 0.72964 0.04335 0.0
H1835 H 0.98358 0.69555 1.00121 0.0
H1836 H 0.00884 0.7027 0.96474 0.0
H1837 H 0.16238 0.6693 0.93387 0.0
H1838 H 0.1343 0.70549 0.93773 0.0
H1839 H 0.07084 0.65947 0.91567 0.0
H1840 H 0.09914 0.62268 0.91186 0.0
H1841 H 0.06223 0.68509 0.95731 0.0
H1842 H 0.08963 0.7072 0.87965 0.0
H1843 H 0.12084 0.71263 0.84736 0.0
H1844 H 0.15941 0.76977 0.88789 0.0
H1845 H 0.12878 0.76438 0.92068 0.0
C1846 C 0.02735 0.79437 0.99486 0.0
C1847 C 0.04809 0.80635 0.00592 0.0
C1848 C 0.03125 0.7775 0.97602 0.0
C1849 C 0.05596 0.77223 0.96816 0.0
C1850 C 0.07631 0.78605 0.97761 0.0
C1851 C 0.07245 0.80287 0.9963 0.0
C1852 C 0.06163 0.74966 0.95346 0.0
C1853 C 0.07738 0.75252 0.93348 0.0
C1854 C 0.0552 0.72495 0.96141 0.0
C1855 C 0.04011 0.7205 0.98327 0.0
C1856 C 0.04956 0.72777 0.00566 0.0
C1857 C 0.03509 0.72379 0.02619 0.0
C1858 C 0.0113 0.71223 0.02457 0.0
C1859 C 1.00197 0.70457 1.00242 0.0
C1860 C 0.01633 0.70861 0.98182 0.0
C1861 C 0.1425 0.66684 0.92963 0.0
C1862 C 0.13289 0.64312 0.92275 0.0
C1863 C 0.1265 0.68766 0.93156 0.0
C1864 C 0.10056 0.68528 0.9266 0.0
C1865 C 0.09088 0.66172 0.9193 0.0
C1866 C 0.10702 0.64079 0.91717 0.0
C1867 C 0.08363 0.70691 0.93179 0.0
C1868 C 0.06579 0.70387 0.95008 0.0
C1869 C 0.08866 0.73143 0.9226 0.0
C1870 C 0.1068 0.73538 0.90265 0.0
C1871 C 0.1048 0.72089 0.88173 0.0
C1872 C 0.12243 0.72393 0.86336 0.0
C1873 C 0.14211 0.74151 0.86561 0.0
C1874 C 0.14416 0.75615 0.88621 0.0
C1875 C 0.12661 0.75316 0.90467 0.0
H1876 H 0.15578 0.74379 0.85138 0.0
H1877 H 1.00013 0.70915 0.04048 0.0
H1878 H 0.70182 0.02595 0.99375 0.0
H1879 H 0.73171 0.03151 0.96081 0.0
H1880 H 0.72097 0.11248 0.96392 0.0
H1881 H 0.6917 0.10725 0.99688 0.0
H1882 H 0.73245 0.09624 0.9181 0.0
H1883 H 0.76308 0.08595 0.99991 0.0
H1884 H 0.76668 0.06207 0.0376 0.0
H1885 H 0.80005 0.99949 1.00025 0.0
H1886 H 0.79618 0.02289 0.96224 0.0
H1887 H 0.84016 0.17058 0.92086 0.0
H1888 H 0.80178 0.14552 0.92576 0.0
H1889 H 0.8435 0.07727 0.91005 0.0
H1890 H 0.88241 0.10256 0.90501 0.0
H1891 H 0.81658 0.07446 0.95199 0.0
H1892 H 0.79794 0.09425 0.8719 0.0
H1893 H 0.79475 0.12103 0.83598 0.0
H1894 H 0.74003 0.16831 0.87081 0.0
H1895 H 0.74306 0.14197 0.90708 0.0
C1896 C 0.70533 0.04489 0.987 0.0
C1897 C 0.69482 0.06619 0.99837 0.0
C1898 C 0.72226 0.048 0.96806 0.0
C1899 C 0.7289 0.07244 0.96028 0.0
C1900 C 0.71611 0.09344 0.96965 0.0
C1901 C 0.69928 0.09038 0.98858 0.0
C1902 C 0.75225 0.07684 0.94625 0.0
C1903 C 0.75088 0.09125 0.92526 0.0
C1904 C 0.77627 0.06986 0.95541 0.0
C1905 C 0.77905 0.05599 0.97825 0.0
C1906 C 0.77104 0.06704 0.99974 0.0
C1907 C 0.77313 0.0536 0.02114 0.0
C1908 C 0.78353 0.02924 0.0213 0.0
C1909 C 0.79193 0.01832 1.00007 0.0
C1910 C 0.78977 0.03165 0.9786 0.0
C1911 C 0.84117 0.15026 0.91819 0.0
C1912 C 0.86427 0.13844 0.9128 0.0
C1913 C 0.81914 0.13599 0.92072 0.0
C1914 C 0.81972 0.10956 0.91798 0.0
C1915 C 0.84266 0.09768 0.91201 0.0
C1916 C 0.86479 0.11209 0.90916 0.0
C1917 C 0.79685 0.09465 0.92423 0.0
C1918 C 0.79827 0.07844 0.944 0.0
C1919 C 0.77295 0.10024 0.91405 0.0
C1920 C 0.77073 0.11607 0.89223 0.0
C1921 C 0.78529 0.11041 0.87195 0.0
C1922 C 0.7835 0.1255 0.85153 0.0
C1923 C 0.76717 0.1463 0.85112 0.0
C1924 C 0.75261 0.15211 0.87115 0.0
C1925 C 0.7543 0.13705 0.89163 0.0
H1926 H 0.76575 0.15785 0.83525 0.0
H1927 H 0.78514 0.01886 0.03789 0.0
H1928 H 0.504 0.77486 0.50093 0.0
H1929 H 0.49188 0.74063 0.528 0.0
H1930 H 0.41942 0.77614 0.53924 0.0
H1931 H 0.43016 0.80903 0.51103 0.0
H1932 H 0.46878 0.72757 0.57311 0.0
H1933 H 0.37601 0.73588 0.51976 0.0
H1934 H 0.36103 0.75539 0.48228 0.0
H1935 H 0.43529 0.74736 0.45196 0.0
H1936 H 0.45049 0.72739 0.48896 0.0
H1937 H 0.37085 0.64212 0.61321 0.0
H1938 H 0.40044 0.67645 0.60277 0.0
H1939 H 0.41171 0.64273 0.53357 0.0
H1940 H 0.38147 0.60923 0.54371 0.0
H1941 H 0.39723 0.68887 0.52863 0.0
H1942 H 0.4604 0.64745 0.57472 0.0
H1943 H 0.47886 0.62644 0.60993 0.0
H1944 H 0.46957 0.69463 0.65059 0.0
H1945 H 0.45072 0.71598 0.6157 0.0
C1946 C 0.4856 0.7757 0.50941 0.0
C1947 C 0.46765 0.79417 0.50266 0.0
C1948 C 0.47893 0.7563 0.52528 0.0
C1949 C 0.45447 0.75552 0.53496 0.0
C1950 C 0.43828 0.77625 0.53159 0.0
C1951 C 0.44462 0.79525 0.51535 0.0
C1952 C 0.44364 0.73109 0.54309 0.0
C1953 C 0.45308 0.71904 0.56355 0.0
C1954 C 0.42382 0.71957 0.53 0.0
C1955 C 0.41443 0.73039 0.50721 0.0
C1956 C 0.38905 0.73811 0.50499 0.0
C1957 C 0.38053 0.74927 0.48383 0.0
C1958 C 0.3972 0.75271 0.46474 0.0
C1959 C 0.42237 0.74478 0.46671 0.0
C1960 C 0.43094 0.73351 0.48777 0.0
C1961 C 0.38028 0.64182 0.59607 0.0
C1962 C 0.37407 0.62332 0.57918 0.0
C1963 C 0.3972 0.66131 0.59013 0.0
C1964 C 0.40827 0.66219 0.56735 0.0
C1965 C 0.4033 0.64253 0.55118 0.0
C1966 C 0.38612 0.6234 0.55696 0.0
C1967 C 0.42194 0.68518 0.55907 0.0
C1968 C 0.41295 0.69713 0.53839 0.0
C1969 C 0.44258 0.69598 0.57162 0.0
C1970 C 0.45393 0.68325 0.59264 0.0
C1971 C 0.46209 0.65791 0.59122 0.0
C1972 C 0.47267 0.64595 0.61111 0.0
C1973 C 0.47533 0.65917 0.6325 0.0
C1974 C 0.46748 0.68441 0.63402 0.0
C1975 C 0.45687 0.69646 0.61418 0.0
H1976 H 0.48353 0.64988 0.64788 0.0
H1977 H 0.3906 0.76148 0.44844 0.0
H1978 H 0.71648 0.47163 0.49018 0.0
H1979 H 0.75237 0.46543 0.51598 0.0
H1980 H 0.80291 0.48883 0.45963 0.0
H1981 H 0.7665 0.49531 0.43324 0.0
H1982 H 0.81381 0.44338 0.47328 0.0
H1983 H 0.80295 0.5194 0.51532 0.0
H1984 H 0.78062 0.55406 0.53583 0.0
H1985 H 0.75492 0.50198 0.58959 0.0
H1986 H 0.77675 0.46691 0.56924 0.0
H1987 H 0.9055 0.39105 0.55558 0.0
H1988 H 0.88382 0.42386 0.53226 0.0
H1989 H 0.8122 0.39996 0.56189 0.0
H1990 H 0.83387 0.36683 0.58503 0.0
H1991 H 0.82189 0.45528 0.5605 0.0
H1992 H 0.82854 0.37866 0.51311 0.0
H1993 H 0.85044 0.34497 0.49102 0.0
H1994 H 0.8839 0.4006 0.44467 0.0
H1995 H 0.86295 0.43476 0.46709 0.0
C1996 C 0.735 0.47678 0.48341 0.0
C1997 C 0.73851 0.48375 0.45941 0.0
C1998 C 0.75571 0.47318 0.49837 0.0
C1999 C 0.78044 0.47663 0.48982 0.0
C2000 C 0.78397 0.48598 0.46659 0.0
C2001 C 0.76315 0.48959 0.45151 0.0
C2002 C 0.80183 0.46551 0.50344 0.0
C2003 C 0.81623 0.44665 0.49221 0.0
C2004 C 0.80468 0.46943 0.52823 0.0
C2005 C 0.7915 0.49047 0.54068 0.0
C2006 C 0.79241 0.51528 0.53144 0.0
C2007 C 0.77985 0.53502 0.54306 0.0
C2008 C 0.76636 0.53022 0.564 0.0
C2009 C 0.76542 0.50568 0.57338 0.0
C2010 C 0.77794 0.48586 0.56184 0.0
C2011 C 0.88521 0.39313 0.55743 0.0
C2012 C 0.87126 0.37677 0.57227 0.0
C2013 C 0.87288 0.41174 0.54401 0.0
C2014 C 0.84649 0.41434 0.5455 0.0
C2015 C 0.83262 0.3983 0.5607 0.0
C2016 C 0.84491 0.37938 0.57375 0.0
C2017 C 0.83295 0.4328 0.53035 0.0
C2018 C 0.82008 0.45282 0.5414 0.0
C2019 C 0.83166 0.4301 0.50531 0.0
C2020 C 0.84478 0.40941 0.49232 0.0
C2021 C 0.84108 0.38382 0.49863 0.0
C2022 C 0.85323 0.36459 0.48593 0.0
C2023 C 0.86873 0.37065 0.46655 0.0
C2024 C 0.872 0.39593 0.45976 0.0
C2025 C 0.8601 0.41524 0.47255 0.0
H2026 H 0.8781 0.35579 0.45667 0.0
H2027 H 0.75664 0.54553 0.57296 0.0
H2028 H 0.06902 0.75719 0.45496 0.0
H2029 H 0.0745 0.78733 0.48718 0.0
H2030 H 0.02648 0.74196 0.53249 0.0
H2031 H 0.02053 0.7114 0.49998 0.0
H2032 H 0.03186 0.81163 0.52451 0.0
H2033 H 0.06395 0.72962 0.55848 0.0
H2034 H 0.08503 0.68836 0.55249 0.0
H2035 H 0.14844 0.72594 0.51982 0.0
H2036 H 0.12746 0.76733 0.52522 0.0
H2037 H 0.09953 0.8904 0.60718 0.0
H2038 H 0.07419 0.85266 0.5968 0.0
H2039 H 0.13026 0.83199 0.54437 0.0
H2040 H 0.15515 0.86951 0.55452 0.0
H2041 H 0.11093 0.79027 0.56801 0.0
H2042 H 0.08244 0.86767 0.52851 0.0
H2043 H 0.0651 0.91106 0.52776 0.0
H2044 H 0.99844 0.88532 0.56451 0.0
H2045 H 0.01565 0.8418 0.56584 0.0
C2046 C 0.05876 0.75396 0.47139 0.0
C2047 C 0.04435 0.73179 0.47486 0.0
C2048 C 0.06208 0.77118 0.48986 0.0
C2049 C 0.05107 0.76667 0.51216 0.0
C2050 C 0.03521 0.7456 0.51536 0.0
C2051 C 0.0319 0.72819 0.49682 0.0
C2052 C 0.0592 0.78254 0.53235 0.0
C2053 C 0.04853 0.80671 0.53485 0.0
C2054 C 0.08138 0.77626 0.54514 0.0
C2055 C 0.09407 0.75146 0.54209 0.0
C2056 C 0.08228 0.72902 0.54985 0.0
C2057 C 0.09422 0.70563 0.54658 0.0
C2058 C 0.11804 0.70452 0.53573 0.0
C2059 C 0.12999 0.72681 0.52818 0.0
C2060 C 0.11808 0.75022 0.53134 0.0
C2061 C 0.10665 0.87724 0.59401 0.0
C2062 C 0.12915 0.88248 0.58163 0.0
C2063 C 0.09221 0.85587 0.58804 0.0
C2064 C 0.10038 0.83961 0.56981 0.0
C2065 C 0.12375 0.84414 0.55864 0.0
C2066 C 0.1379 0.86556 0.56435 0.0
C2067 C 0.08379 0.81955 0.56006 0.0
C2068 C 0.09326 0.79477 0.55906 0.0
C2069 C 0.06077 0.82547 0.54833 0.0
C2070 C 0.0505 0.8516 0.54764 0.0
C2071 C 0.06421 0.87132 0.53667 0.0
C2072 C 0.05439 0.89593 0.53609 0.0
C2073 C 0.03073 0.90097 0.54618 0.0
C2074 C 0.01681 0.8814 0.5568 0.0
C2075 C 0.0266 0.85677 0.55749 0.0
H2076 H 0.02314 0.92 0.5457 0.0
H2077 H 0.12725 0.6864 0.53322 0.0
H2078 H 0.65983 0.17752 0.58639 0.0
H2079 H 0.69894 0.15398 0.58064 0.0
H2080 H 0.65626 0.0843 0.5753 0.0
H2081 H 0.61689 0.10783 0.58299 0.0
H2082 H 0.7017 0.07477 0.59424 0.0
H2083 H 0.67174 0.11774 0.52509 0.0
H2084 H 0.65559 0.15357 0.50125 0.0
H2085 H 0.72428 0.19507 0.51427 0.0
H2086 H 0.74078 0.15951 0.53836 0.0
H2087 H 0.78084 0.02911 0.49598 0.0
H2088 H 0.74887 0.03931 0.52563 0.0
H2089 H 0.79772 0.09687 0.55487 0.0
H2090 H 0.83055 0.086 0.52597 0.0
H2091 H 0.75014 0.11078 0.52632 0.0
H2092 H 0.78076 0.06085 0.59227 0.0
H2093 H 0.79445 0.02132 0.61193 0.0
H2094 H 0.72135 0.98815 0.59914 0.0
H2095 H 0.70733 0.02735 0.57906 0.0
C2096 C 0.65883 0.1571 0.58465 0.0
C2097 C 0.63543 0.14445 0.58494 0.0
C2098 C 0.68117 0.14367 0.58124 0.0
C2099 C 0.68044 0.1175 0.57685 0.0
C2100 C 0.65722 0.10452 0.57854 0.0
C2101 C 0.63479 0.11794 0.5828 0.0
C2102 C 0.70348 0.10461 0.56795 0.0
C2103 C 0.71223 0.0825 0.5793 0.0
C2104 C 0.71713 0.11465 0.54835 0.0
C2105 C 0.70739 0.13605 0.53371 0.0
C2106 C 0.68334 0.13457 0.52298 0.0
C2107 C 0.67413 0.15482 0.50941 0.0
C2108 C 0.68886 0.17663 0.50631 0.0
C2109 C 0.71288 0.17817 0.51671 0.0
C2110 C 0.72219 0.15796 0.53029 0.0
C2111 C 0.78551 0.04295 0.5095 0.0
C2112 C 0.80807 0.05722 0.50818 0.0
C2113 C 0.7671 0.04877 0.52646 0.0
C2114 C 0.77093 0.06895 0.5422 0.0
C2115 C 0.79452 0.08119 0.5428 0.0
C2116 C 0.81312 0.07512 0.52611 0.0
C2117 C 0.74873 0.08136 0.55295 0.0
C2118 C 0.73986 0.10326 0.54154 0.0
C2119 C 0.7347 0.07056 0.57184 0.0
C2120 C 0.74308 0.04698 0.58395 0.0
C2121 C 0.76768 0.04504 0.59342 0.0
C2122 C 0.77548 0.02271 0.6047 0.0
C2123 C 0.7588 1.00221 0.60673 0.0
C2124 C 0.73426 0.00403 0.59754 0.0
C2125 C 0.72637 0.02632 0.58623 0.0
H2126 H 0.76487 0.98494 0.61547 0.0
H2127 H 0.68168 0.1923 0.49581 0.0
H2128 H 0.73369 0.36703 0.12222 0.0
H2129 H 0.72245 0.32226 0.12635 0.0
H2130 H 0.8011 0.30346 0.137 0.0
H2131 H 0.81266 0.3479 0.13228 0.0
H2132 H 0.73858 0.28429 0.09678 0.0
H2133 H 0.80336 0.25035 0.17387 0.0
H2134 H 0.82149 0.2672 0.21112 0.0
H2135 H 0.76002 0.32009 0.21676 0.0
H2136 H 0.74131 0.3033 0.17978 0.0
H2137 H 0.75892 0.15352 0.08887 0.0
H2138 H 0.76678 0.19838 0.09538 0.0
H2139 H 0.71769 0.19703 0.15671 0.0
H2140 H 0.71022 0.15161 0.15077 0.0
H2141 H 0.76036 0.227 0.16397 0.0
H2142 H 0.69514 0.21763 0.10428 0.0
H2143 H 0.67655 0.20192 0.06676 0.0
H2144 H 0.73653 0.2371 0.02696 0.0
H2145 H 0.75576 0.25267 0.06418 0.0
C2146 C 0.74864 0.35347 0.12554 0.0
C2147 C 0.77414 0.36132 0.12672 0.0
C2148 C 0.74214 0.32785 0.12799 0.0
C2149 C 0.76091 0.3095 0.13203 0.0
C2150 C 0.78624 0.31731 0.13419 0.0
C2151 C 0.7928 0.34289 0.13156 0.0
C2152 C 0.75431 0.28205 0.13208 0.0
C2153 C 0.74323 0.2718 0.11153 0.0
C2154 C 0.76021 0.26576 0.15139 0.0
C2155 C 0.77106 0.27569 0.17391 0.0
C2156 C 0.79364 0.26548 0.18312 0.0
C2157 C 0.80403 0.27504 0.20418 0.0
C2158 C 0.79196 0.29476 0.21626 0.0
C2159 C 0.76941 0.30489 0.20735 0.0
C2160 C 0.75892 0.29537 0.18631 0.0
C2161 C 0.75017 0.16241 0.1041 0.0
C2162 C 0.73375 0.14872 0.1192 0.0
C2163 C 0.75451 0.18828 0.10765 0.0
C2164 C 0.74248 0.20121 0.12627 0.0
C2165 C 0.72705 0.18748 0.1421 0.0
C2166 C 0.72267 0.16151 0.13858 0.0
C2167 C 0.74519 0.22922 0.12841 0.0
C2168 C 0.75555 0.23954 0.14931 0.0
C2169 C 0.73858 0.24568 0.10942 0.0
C2170 C 0.72699 0.23619 0.08705 0.0
C2171 C 0.70448 0.22185 0.08755 0.0
C2172 C 0.69381 0.21299 0.06634 0.0
C2173 C 0.70535 0.21851 0.04454 0.0
C2174 C 0.72761 0.23285 0.04387 0.0
C2175 C 0.7384 0.24171 0.065 0.0
H2176 H 0.69705 0.21174 0.02813 0.0
H2177 H 0.80005 0.30216 0.23254 0.0
H2178 H 0.1225 0.73306 0.12926 0.0
H2179 H 0.16736 0.72119 0.13186 0.0
H2180 H 0.1884 0.8002 0.13211 0.0
H2181 H 0.14387 0.81217 0.12987 0.0
H2182 H 0.21188 0.76991 0.09584 0.0
H2183 H 0.19692 0.76907 0.18059 0.0
H2184 H 0.17446 0.75583 0.21708 0.0
H2185 H 0.1931 0.67805 0.20306 0.0
H2186 H 0.21536 0.6908 0.16627 0.0
H2187 H 0.34274 0.75045 0.09843 0.0
H2188 H 0.30076 0.76621 0.1092 0.0
H2189 H 0.28039 0.6917 0.13502 0.0
H2190 H 0.32271 0.67629 0.12497 0.0
H2191 H 0.25582 0.72106 0.1591 0.0
H2192 H 0.26697 0.71862 0.07399 0.0
H2193 H 0.2862 0.7286 0.03512 0.0
H2194 H 0.27161 0.80781 0.04598 0.0
H2195 H 0.25257 0.7983 0.08515 0.0
C2196 C 0.13666 0.7479 0.13023 0.0
C2197 C 0.1295 0.77358 0.12906 0.0
C2198 C 0.16227 0.74109 0.13181 0.0
C2199 C 0.1812 0.75983 0.13206 0.0
C2200 C 0.17409 0.78544 0.1319 0.0
C2201 C 0.14853 0.79225 0.13072 0.0
C2202 C 0.20839 0.75282 0.13048 0.0
C2203 C 0.22169 0.75955 0.10979 0.0
C2204 C 0.22077 0.73852 0.14832 0.0
C2205 C 0.20761 0.73088 0.17056 0.0
C2206 C 0.19605 0.74912 0.18518 0.0
C2207 C 0.18339 0.74171 0.20594 0.0
C2208 C 0.18229 0.71611 0.21235 0.0
C2209 C 0.19394 0.69788 0.19806 0.0
C2210 C 0.2066 0.70519 0.17726 0.0
C2211 C 0.32926 0.73755 0.10654 0.0
C2212 C 0.33574 0.71207 0.11045 0.0
C2213 C 0.30517 0.74648 0.11253 0.0
C2214 C 0.28667 0.72985 0.12168 0.0
C2215 C 0.29389 0.70485 0.12732 0.0
C2216 C 0.31816 0.69601 0.1217 0.0
C2217 C 0.25967 0.73805 0.12425 0.0
C2218 C 0.24626 0.73149 0.14507 0.0
C2219 C 0.24688 0.75196 0.10615 0.0
C2220 C 0.25856 0.75773 0.08266 0.0
C2221 C 0.26801 0.73817 0.06821 0.0
C2222 C 0.27887 0.74375 0.0461 0.0
C2223 C 0.28018 0.76883 0.0381 0.0
C2224 C 0.27063 0.78839 0.05222 0.0
C2225 C 0.2598 0.78291 0.07438 0.0
H2226 H 0.28851 0.77307 0.02094 0.0
H2227 H 0.17246 0.7104 0.22842 0.0
H2228 H 0.676 0.33216 0.39164 0.0
H2229 H 0.68945 0.28842 0.384 0.0
H2230 H 0.76322 0.3053 0.413 0.0
H2231 H 0.74989 0.34903 0.42059 0.0
H2232 H 0.76475 0.27504 0.37096 0.0
H2233 H 0.72359 0.27435 0.44945 0.0
H2234 H 0.68787 0.28377 0.47642 0.0
H2235 H 0.63736 0.24263 0.43059 0.0
H2236 H 0.67284 0.23253 0.40375 0.0
H2237 H 0.81487 0.15647 0.40507 0.0
H2238 H 0.79914 0.19978 0.4022 0.0
H2239 H 0.72476 0.17157 0.38433 0.0
H2240 H 0.74044 0.12801 0.38728 0.0
H2241 H 0.72076 0.20724 0.41653 0.0
H2242 H 0.76312 0.2006 0.34222 0.0
H2243 H 0.79809 0.19082 0.31465 0.0
H2244 H 0.84504 0.24642 0.3489 0.0
H2245 H 0.81044 0.25636 0.37688 0.0
C2246 C 0.69522 0.32666 0.39596 0.0
C2247 C 0.71188 0.34399 0.40678 0.0
C2248 C 0.70282 0.30163 0.39175 0.0
C2249 C 0.72728 0.29356 0.3981 0.0
C2250 C 0.74427 0.31111 0.40798 0.0
C2251 C 0.7366 0.33602 0.41242 0.0
C2252 C 0.73479 0.26654 0.39573 0.0
C2253 C 0.75529 0.26019 0.381 0.0
C2254 C 0.72198 0.2471 0.40828 0.0
C2255 C 0.70077 0.25275 0.42463 0.0
C2256 C 0.70484 0.26727 0.44523 0.0
C2257 C 0.68467 0.27263 0.46055 0.0
C2258 C 0.66036 0.26363 0.45537 0.0
C2259 C 0.6562 0.24929 0.43483 0.0
C2260 C 0.67635 0.24365 0.4196 0.0
C2261 C 0.79527 0.1594 0.40012 0.0
C2262 C 0.77895 0.13868 0.39632 0.0
C2263 C 0.78627 0.18426 0.39849 0.0
C2264 C 0.7608 0.18905 0.39274 0.0
C2265 C 0.74448 0.16841 0.38881 0.0
C2266 C 0.75345 0.1435 0.39055 0.0
C2267 C 0.75108 0.21556 0.39194 0.0
C2268 C 0.73015 0.22189 0.40616 0.0
C2269 C 0.76338 0.2349 0.37866 0.0
C2270 C 0.78422 0.22911 0.36177 0.0
C2271 C 0.78095 0.21064 0.34399 0.0
C2272 C 0.8007 0.20508 0.32827 0.0
C2273 C 0.82379 0.21794 0.33006 0.0
C2274 C 0.82715 0.23646 0.34754 0.0
C2275 C 0.80745 0.24211 0.36331 0.0
H2276 H 0.83906 0.2136 0.31788 0.0
H2277 H 0.64478 0.26781 0.46724 0.0
H2278 H 0.38334 0.72663 0.38467 0.0
H2279 H 0.33906 0.71443 0.37928 0.0
H2280 H 0.31811 0.79314 0.37351 0.0
H2281 H 0.36188 0.80567 0.38023 0.0
H2282 H 0.29062 0.76775 0.40721 0.0
H2283 H 0.31496 0.75483 0.32562 0.0
H2284 H 0.34154 0.73684 0.29373 0.0
H2285 H 0.3208 0.66154 0.31562 0.0
H2286 H 0.29439 0.67904 0.34785 0.0
H2287 H 0.16119 0.7459 0.39629 0.0
H2288 H 0.20363 0.76055 0.38526 0.0
H2289 H 0.22716 0.68284 0.37566 0.0
H2290 H 0.18401 0.66853 0.38497 0.0
H2291 H 0.25373 0.70889 0.34788 0.0
H2292 H 0.23429 0.72066 0.43158 0.0
H2293 H 0.21084 0.73702 0.46623 0.0
H2294 H 0.22502 0.81341 0.44298 0.0
H2295 H 0.24807 0.79737 0.4079 0.0
C2296 C 0.36941 0.74143 0.38227 0.0
C2297 C 0.37645 0.76721 0.38321 0.0
C2298 C 0.34406 0.73436 0.3789 0.0
C2299 C 0.32521 0.75289 0.37612 0.0
C2300 C 0.33229 0.77854 0.3759 0.0
C2301 C 0.35754 0.78565 0.37949 0.0
C2302 C 0.2979 0.74579 0.37581 0.0
C2303 C 0.2824 0.75536 0.39392 0.0
C2304 C 0.28745 0.72876 0.35903 0.0
C2305 C 0.30286 0.71825 0.3393 0.0
C2306 C 0.31618 0.73443 0.32372 0.0
C2307 C 0.3312 0.72432 0.30557 0.0
C2308 C 0.33292 0.69807 0.30273 0.0
C2309 C 0.31948 0.68187 0.31789 0.0
C2310 C 0.30445 0.69187 0.33608 0.0
C2311 C 0.17536 0.73211 0.39119 0.0
C2312 C 0.16957 0.70615 0.39164 0.0
C2313 C 0.1997 0.7404 0.3852 0.0
C2314 C 0.21913 0.72279 0.38075 0.0
C2315 C 0.21275 0.69689 0.37935 0.0
C2316 C 0.18809 0.68866 0.3846 0.0
C2317 C 0.2462 0.73115 0.37927 0.0
C2318 C 0.26176 0.72166 0.36098 0.0
C2319 C 0.25693 0.74813 0.39611 0.0
C2320 C 0.24268 0.75776 0.417 0.0
C2321 C 0.23219 0.74089 0.43374 0.0
C2322 C 0.21898 0.75013 0.45347 0.0
C2323 C 0.21637 0.77625 0.45678 0.0
C2324 C 0.22695 0.79317 0.44035 0.0
C2325 C 0.24005 0.78401 0.42053 0.0
H2326 H 0.20621 0.78337 0.4721 0.0
H2327 H 0.34469 0.69025 0.28882 0.0
H2328 H 0.235 0.86684 0.89393 0.0
H2329 H 0.22456 0.82198 0.88973 0.0
H2330 H 0.30361 0.8027 0.8961 0.0
H2331 H 0.31426 0.84747 0.90092 0.0
H2332 H 0.27936 0.77506 0.86051 0.0
H2333 H 0.2668 0.79484 0.94286 0.0
H2334 H 0.24988 0.81867 0.97698 0.0
H2335 H 0.17388 0.80099 0.95519 0.0
H2336 H 0.19039 0.7771 0.92082 0.0
H2337 H 0.26564 0.64392 0.89142 0.0
H2338 H 0.27617 0.68906 0.88899 0.0
H2339 H 0.1966 0.70751 0.88685 0.0
H2340 H 0.18596 0.66262 0.88968 0.0
H2341 H 0.2208 0.73584 0.91917 0.0
H2342 H 0.23398 0.71385 0.8376 0.0
H2343 H 0.25156 0.68951 0.80403 0.0
H2344 H 0.32696 0.71088 0.82467 0.0
H2345 H 0.30987 0.73501 0.85863 0.0
C2346 C 0.25024 0.85317 0.89454 0.0
C2347 C 0.27551 0.86103 0.89795 0.0
C2348 C 0.2442 0.82744 0.89203 0.0
C2349 C 0.26326 0.8089 0.8928 0.0
C2350 C 0.28858 0.81665 0.89538 0.0
C2351 C 0.29464 0.84238 0.89805 0.0
C2352 C 0.25663 0.78142 0.89176 0.0
C2353 C 0.26679 0.7664 0.87349 0.0
C2354 C 0.23983 0.77018 0.9084 0.0
C2355 C 0.22982 0.78449 0.92906 0.0
C2356 C 0.24647 0.79624 0.94521 0.0
C2357 C 0.23696 0.80972 0.96463 0.0
C2358 C 0.21081 0.81152 0.96818 0.0
C2359 C 0.19413 0.79968 0.95238 0.0
C2360 C 0.20355 0.78612 0.93294 0.0
C2361 C 0.25039 0.65754 0.89017 0.0
C2362 C 0.22496 0.64945 0.89064 0.0
C2363 C 0.25643 0.68339 0.88866 0.0
C2364 C 0.23719 0.70177 0.88761 0.0
C2365 C 0.21181 0.69374 0.88759 0.0
C2366 C 0.20576 0.66792 0.88897 0.0
C2367 C 0.24347 0.72938 0.88787 0.0
C2368 C 0.23327 0.74446 0.90608 0.0
C2369 C 0.26029 0.74059 0.87121 0.0
C2370 C 0.27064 0.72608 0.8508 0.0
C2371 C 0.25433 0.7132 0.83511 0.0
C2372 C 0.2642 0.69949 0.81597 0.0
C2373 C 0.29036 0.69867 0.81221 0.0
C2374 C 0.3067 0.71155 0.8276 0.0
C2375 C 0.29693 0.72526 0.84678 0.0
H2376 H 0.29796 0.68802 0.7974 0.0
H2377 H 0.2035 0.82199 0.98323 0.0
H2378 H 0.84693 0.19275 0.87358 0.0
H2379 H 0.8037 0.20704 0.86679 0.0
H2380 H 0.82879 0.28484 0.86877 0.0
H2381 H 0.87236 0.27077 0.87497 0.0
H2382 H 0.78876 0.27708 0.89779 0.0
H2383 H 0.80998 0.2599 0.81794 0.0
H2384 H 0.82589 0.23611 0.78335 0.0
H2385 H 0.76724 0.18048 0.79285 0.0
H2386 H 0.75124 0.20367 0.82784 0.0
H2387 H 0.66697 0.32476 0.87357 0.0
H2388 H 0.71143 0.31532 0.86603 0.0
H2389 H 0.69472 0.23526 0.86708 0.0
H2390 H 0.64986 0.2446 0.87396 0.0
H2391 H 0.73145 0.24772 0.8334 0.0
H2392 H 0.71365 0.26527 0.91652 0.0
H2393 H 0.69777 0.29173 0.94941 0.0
H2394 H 0.75144 0.34998 0.93142 0.0
H2395 H 0.7672 0.32413 0.89799 0.0
C2396 C 0.84357 0.2129 0.87203 0.0
C2397 C 0.86344 0.23055 0.8749 0.0
C2398 C 0.81866 0.22105 0.8682 0.0
C2399 C 0.81295 0.24703 0.86719 0.0
C2400 C 0.83272 0.2647 0.86955 0.0
C2401 C 0.85767 0.25657 0.8732 0.0
C2402 C 0.78617 0.25568 0.86526 0.0
C2403 C 0.77638 0.271 0.88346 0.0
C2404 C 0.7699 0.24758 0.84669 0.0
C2405 C 0.77962 0.23336 0.82579 0.0
C2406 C 0.80066 0.24241 0.81289 0.0
C2407 C 0.80966 0.22907 0.79315 0.0
C2408 C 0.79765 0.20674 0.78597 0.0
C2409 C 0.77657 0.19775 0.79848 0.0
C2410 C 0.76753 0.21098 0.81828 0.0
C2411 C 0.67249 0.30515 0.87156 0.0
C2412 C 0.65477 0.2854 0.87468 0.0
C2413 C 0.69806 0.29978 0.86741 0.0
C2414 C 0.70652 0.27457 0.86644 0.0
C2415 C 0.68866 0.25485 0.86794 0.0
C2416 C 0.66305 0.26021 0.87208 0.0
C2417 C 0.7341 0.26871 0.86611 0.0
C2418 C 0.74399 0.2539 0.84756 0.0
C2419 C 0.75061 0.27754 0.8842 0.0
C2420 C 0.74138 0.2929 0.90454 0.0
C2421 C 0.72191 0.28382 0.91943 0.0
C2422 C 0.71292 0.29871 0.93816 0.0
C2423 C 0.72351 0.32258 0.94242 0.0
C2424 C 0.74317 0.33155 0.928 0.0
C2425 C 0.75211 0.31681 0.90914 0.0
H2426 H 0.71652 0.3341 0.95692 0.0
H2427 H 0.80462 0.19646 0.77066 0.0
H2428 H 0.31344 0.65849 0.60693 0.0
H2429 H 0.30365 0.70341 0.61161 0.0
H2430 H 0.22701 0.68433 0.63164 0.0
H2431 H 0.2367 0.63925 0.62687 0.0
H2432 H 0.22697 0.72167 0.59993 0.0
H2433 H 0.27094 0.70551 0.67301 0.0
H2434 H 0.30603 0.69009 0.69815 0.0
H2435 H 0.35714 0.74204 0.66384 0.0
H2436 H 0.32242 0.75754 0.63825 0.0
H2437 H 0.19432 0.84606 0.63771 0.0
H2438 H 0.2037 0.8008 0.63814 0.0
H2439 H 0.27928 0.81616 0.61276 0.0
H2440 H 0.26996 0.86143 0.61167 0.0
H2441 H 0.27884 0.78059 0.64856 0.0
H2442 H 0.23493 0.79633 0.57527 0.0
H2443 H 0.20012 0.81119 0.54952 0.0
H2444 H 0.14881 0.75944 0.5838 0.0
H2445 H 0.1832 0.74465 0.61018 0.0
C2446 C 0.29462 0.66378 0.61275 0.0
C2447 C 0.27587 0.64521 0.61659 0.0
C2448 C 0.28902 0.68954 0.61538 0.0
C2449 C 0.26463 0.69733 0.6222 0.0
C2450 C 0.24595 0.67882 0.62631 0.0
C2451 C 0.2515 0.65304 0.62356 0.0
C2452 C 0.25842 0.7248 0.62422 0.0
C2453 C 0.23803 0.73446 0.61092 0.0
C2454 C 0.27322 0.74167 0.63807 0.0
C2455 C 0.29411 0.73254 0.65357 0.0
C2456 C 0.2897 0.71353 0.67071 0.0
C2457 C 0.30951 0.70479 0.68506 0.0
C2458 C 0.33381 0.71504 0.68256 0.0
C2459 C 0.33832 0.7341 0.66574 0.0
C2460 C 0.31857 0.74289 0.65133 0.0
C2461 C 0.2129 0.83994 0.63203 0.0
C2462 C 0.23123 0.85763 0.62434 0.0
C2463 C 0.21826 0.81397 0.63239 0.0
C2464 C 0.24208 0.80505 0.62518 0.0
C2465 C 0.26074 0.82262 0.61836 0.0
C2466 C 0.25536 0.84859 0.61784 0.0
C2467 C 0.24741 0.77738 0.62429 0.0
C2468 C 0.26766 0.76773 0.63775 0.0
C2469 C 0.23244 0.76052 0.6106 0.0
C2470 C 0.21161 0.76961 0.59495 0.0
C2471 C 0.21616 0.78834 0.57755 0.0
C2472 C 0.19651 0.79672 0.56281 0.0
C2473 C 0.17226 0.78633 0.56509 0.0
C2474 C 0.16759 0.76753 0.58212 0.0
C2475 C 0.18716 0.75916 0.59699 0.0
H2476 H 0.15713 0.79277 0.55358 0.0
H2477 H 0.34913 0.70824 0.69368 0.0
H2478 H 0.84121 0.25439 0.62305 0.0
H2479 H 0.79596 0.24616 0.62356 0.0
H2480 H 0.78206 0.32273 0.64681 0.0
H2481 H 0.82792 0.33086 0.64747 0.0
H2482 H 0.74997 0.28893 0.66906 0.0
H2483 H 0.77446 0.30789 0.58942 0.0
H2484 H 0.79992 0.30494 0.55273 0.0
H2485 H 0.77879 0.2267 0.54514 0.0
H2486 H 0.75357 0.22903 0.58204 0.0
H2487 H 0.61939 0.27711 0.62087 0.0
H2488 H 0.6627 0.29271 0.62818 0.0
H2489 H 0.6903 0.21585 0.62811 0.0
H2490 H 0.64742 0.2002 0.62154 0.0
H2491 H 0.71365 0.25537 0.59391 0.0
H2492 H 0.69175 0.23679 0.67609 0.0
H2493 H 0.66542 0.24108 0.71214 0.0
H2494 H 0.68034 0.32112 0.71352 0.0
H2495 H 0.7064 0.31738 0.67718 0.0
C2496 C 0.82874 0.26941 0.62882 0.0
C2497 C 0.83841 0.29332 0.63528 0.0
C2498 C 0.80271 0.26473 0.62883 0.0
C2499 C 0.7855 0.28393 0.63483 0.0
C2500 C 0.79496 0.30764 0.64199 0.0
C2501 C 0.82118 0.31233 0.64214 0.0
C2502 C 0.75775 0.27922 0.63251 0.0
C2503 C 0.74196 0.28201 0.65251 0.0
C2504 C 0.7472 0.27008 0.61094 0.0
C2505 C 0.76228 0.26859 0.58864 0.0
C2506 C 0.7754 0.28999 0.58004 0.0
C2507 C 0.78977 0.28843 0.55919 0.0
C2508 C 0.79102 0.26563 0.54664 0.0
C2509 C 0.77784 0.24434 0.55489 0.0
C2510 C 0.76349 0.24578 0.57578 0.0
C2511 C 0.63467 0.26356 0.62269 0.0
C2512 C 0.62989 0.2374 0.62045 0.0
C2513 C 0.65934 0.27248 0.62695 0.0
C2514 C 0.67964 0.2554 0.62865 0.0
C2515 C 0.67486 0.22933 0.62691 0.0
C2516 C 0.65025 0.22041 0.62319 0.0
C2517 C 0.70617 0.26449 0.63053 0.0
C2518 C 0.72167 0.26257 0.61036 0.0
C2519 C 0.71628 0.27463 0.65181 0.0
C2520 C 0.70071 0.27687 0.67369 0.0
C2521 C 0.68916 0.25536 0.68389 0.0
C2522 C 0.67435 0.25767 0.70442 0.0
C2523 C 0.67113 0.28137 0.71505 0.0
C2524 C 0.6828 0.30279 0.70522 0.0
C2525 C 0.69759 0.30058 0.68466 0.0
H2526 H 0.65966 0.28312 0.73094 0.0
H2527 H 0.80215 0.26447 0.53049 0.0
loop_
_geom_bond_atom_site_label_1
_geom_bond_atom_site_label_2
_geom_bond_distance
_geom_bond_site_symmetry_2
_ccdc_geom_bond_type
C0 C1 1.351 . S
C0 N3 1.368 . S
C0 H5 0.931 . S
C1 C0 1.351 . S
C1 N2 1.373 . S
C1 H29 0.960 . S
N2 C1 1.373 . S
N2 C4 1.340 . S
N3 C0 1.368 . S
N3 C4 1.321 . S
N3 Co6 2.135 . S
C4 N2 1.340 . S
C4 N3 1.321 . S
C4 H28 0.930 . S
H5 C0 0.931 . S
Co6 N3 2.135 . S
Co6 N9 2.121 . S
Co6 O14 2.055 . S
Co6 O17 2.039 . S
Co6 N20 2.140 . S
C7 O8 1.227 . S
C7 O17 1.265 . S
O8 C7 1.227 . S
N9 Co6 2.121 . S
N9 C11 1.375 . S
N9 C12 1.313 . S
C10 C11 1.338 . S
C10 N13 1.377 . S
C10 H30 0.930 . S
C11 N9 1.375 . S
C11 C10 1.338 . S
C11 H15 0.931 . S
C12 N9 1.313 . S
C12 N13 1.344 . S
C12 H16 0.930 . S
N13 C10 1.377 . S
N13 C12 1.344 . S
O14 Co6 2.055 . S
O14 C18 1.253 . S
H15 C11 0.931 . S
H16 C12 0.930 . S
O17 Co6 2.039 . S
O17 C7 1.265 . S
C18 O14 1.253 . S
C18 O19 1.227 . S
O19 C18 1.227 . S
N20 Co6 2.140 . S
N20 C23 1.346 . S
N20 C24 1.345 . S
C21 C22 1.387 . S
C21 C25 1.391 . S
C22 C21 1.387 . S
C22 C23 1.369 . S
C22 H31 0.929 . S
C23 N20 1.346 . S
C23 C22 1.369 . S
C23 H26 0.928 . S
C24 N20 1.345 . S
C24 C25 1.371 . S
C24 H27 0.931 . S
C25 C21 1.391 . S
C25 C24 1.371 . S
C25 H32 0.930 . S
H26 C23 0.928 . S
H27 C24 0.931 . S
H28 C4 0.930 . S
H29 C1 0.960 . S
H30 C10 0.930 . S
H31 C22 0.929 . S
H32 C25 0.930 . S
C33 C34 1.351 . S
C33 N36 1.368 . S
C33 H38 0.931 . S
C34 C33 1.351 . S
C34 N35 1.373 . S
C34 H62 0.930 . S
N35 C34 1.373 . S
N35 C37 1.340 . S
N36 C33 1.368 . S
N36 C37 1.321 . S
N36 Co39 2.135 . S
C37 N35 1.340 . S
C37 N36 1.321 . S
C37 H61 0.930 . S
H38 C33 0.931 . S
Co39 N36 2.135 . S
Co39 N42 2.121 . S
Co39 O47 2.055 . S
Co39 O50 2.039 . S
Co39 N53 2.140 . S
C40 O41 1.227 . S
C40 O50 1.265 . S
O41 C40 1.227 . S
N42 Co39 2.121 . S
N42 C44 1.375 . S
N42 C45 1.313 . S
C43 C44 1.338 . S
C43 N46 1.377 . S
C43 H63 0.930 . S
C44 N42 1.375 . S
C44 C43 1.338 . S
C44 H48 0.931 . S
C45 N42 1.313 . S
C45 N46 1.344 . S
C45 H49 0.930 . S
N46 C43 1.377 . S
N46 C45 1.344 . S
O47 Co39 2.055 . S
O47 C51 1.253 . S
H48 C44 0.931 . S
H49 C45 0.930 . S
O50 Co39 2.039 . S
O50 C40 1.265 . S
C51 O47 1.253 . S
C51 O52 1.227 . S
O52 C51 1.227 . S
N53 Co39 2.140 . S
N53 C56 1.346 . S
N53 C57 1.345 . S
C54 C55 1.387 . S
C54 C58 1.391 . S
C55 C54 1.387 . S
C55 C56 1.369 . S
C55 H64 0.929 . S
C56 N53 1.346 . S
C56 C55 1.369 . S
C56 H59 0.928 . S
C57 N53 1.345 . S
C57 C58 1.371 . S
C57 H60 0.931 . S
C58 C54 1.391 . S
C58 C57 1.371 . S
C58 H65 0.930 . S
H59 C56 0.928 . S
H60 C57 0.931 . S
H61 C37 0.930 . S
H62 C34 0.930 . S
H63 C43 0.930 . S
H64 C55 0.929 . S
H65 C58 0.930 . S
C66 C67 1.351 . S
C66 N69 1.368 . S
C66 H71 0.931 . S
C67 C66 1.351 . S
C67 N68 1.373 . S
C67 H95 0.930 . S
N68 C67 1.373 . S
N68 C70 1.340 . S
N69 C66 1.368 . S
N69 C70 1.321 . S
N69 Co72 2.135 . S
C70 N68 1.340 . S
C70 N69 1.321 . S
C70 H94 0.930 . S
H71 C66 0.931 . S
Co72 N69 2.135 . S
Co72 N75 2.121 . S
Co72 O80 2.055 . S
Co72 O83 2.039 . S
Co72 N86 2.140 . S
C73 O74 1.227 . S
C73 O83 1.265 . S
O74 C73 1.227 . S
N75 Co72 2.121 . S
N75 C77 1.375 . S
N75 C78 1.313 . S
C76 C77 1.338 . S
C76 N79 1.377 . S
C76 H96 0.930 . S
C77 N75 1.375 . S
C77 C76 1.338 . S
C77 H81 0.931 . S
C78 N75 1.313 . S
C78 N79 1.344 . S
C78 H82 0.930 . S
N79 C76 1.377 . S
N79 C78 1.344 . S
O80 Co72 2.055 . S
O80 C84 1.253 . S
H81 C77 0.931 . S
H82 C78 0.930 . S
O83 Co72 2.039 . S
O83 C73 1.265 . S
C84 O80 1.253 . S
C84 O85 1.227 . S
O85 C84 1.227 . S
N86 Co72 2.140 . S
N86 C89 1.346 . S
N86 C90 1.345 . S
C87 C88 1.387 . S
C87 C91 1.391 . S
C88 C87 1.387 . S
C88 C89 1.369 . S
C88 H97 0.929 . S
C89 N86 1.346 . S
C89 C88 1.369 . S
C89 H92 0.928 . S
C90 N86 1.345 . S
C90 C91 1.371 . S
C90 H93 0.931 . S
C91 C87 1.391 . S
C91 C90 1.371 . S
C91 H98 0.930 . S
H92 C89 0.928 . S
H93 C90 0.931 . S
H94 C70 0.930 . S
H95 C67 0.930 . S
H96 C76 0.930 . S
H97 C88 0.929 . S
H98 C91 0.930 . S
C99 C100 1.351 . S
C99 N102 1.368 . S
C99 H104 0.931 . S
C100 C99 1.351 . S
C100 N101 1.373 . S
C100 H128 0.960 . S
N101 C100 1.373 . S
N101 C103 1.340 . S
N102 C99 1.368 . S
N102 C103 1.321 . S
N102 Co105 2.135 . S
C103 N101 1.340 . S
C103 N102 1.321 . S
C103 H127 0.930 . S
H104 C99 0.931 . S
Co105 N102 2.135 . S
Co105 N108 2.121 . S
Co105 O113 2.055 . S
Co105 O116 2.039 . S
Co105 N119 2.140 . S
C106 O107 1.227 . S
C106 O116 1.265 . S
O107 C106 1.227 . S
N108 Co105 2.121 . S
N108 C110 1.375 . S
N108 C111 1.313 . S
C109 C110 1.338 . S
C109 N112 1.377 . S
C109 H129 0.930 . S
C110 N108 1.375 . S
C110 C109 1.338 . S
C110 H114 0.931 . S
C111 N108 1.313 . S
C111 N112 1.344 . S
C111 H115 0.930 . S
N112 C109 1.377 . S
N112 C111 1.344 . S
O113 Co105 2.055 . S
O113 C117 1.253 . S
H114 C110 0.931 . S
H115 C111 0.930 . S
O116 Co105 2.039 . S
O116 C106 1.265 . S
C117 O113 1.253 . S
C117 O118 1.227 . S
O118 C117 1.227 . S
N119 Co105 2.140 . S
N119 C122 1.346 . S
N119 C123 1.345 . S
C120 C121 1.387 . S
C120 C124 1.391 . S
C121 C120 1.387 . S
C121 C122 1.369 . S
C121 H130 0.929 . S
C122 N119 1.346 . S
C122 C121 1.369 . S
C122 H125 0.928 . S
C123 N119 1.345 . S
C123 C124 1.371 . S
C123 H126 0.931 . S
C124 C120 1.391 . S
C124 C123 1.371 . S
C124 H131 0.930 . S
H125 C122 0.928 . S
H126 C123 0.931 . S
H127 C103 0.930 . S
H128 C100 0.960 . S
H129 C109 0.930 . S
H130 C121 0.929 . S
H131 C124 0.930 . S
C132 C133 1.351 . S
C132 N135 1.368 . S
C132 H137 0.931 . S
C133 C132 1.351 . S
C133 N134 1.373 . S
C133 H161 0.930 . S
N134 C133 1.373 . S
N134 C136 1.340 . S
N135 C132 1.368 . S
N135 C136 1.321 . S
N135 Co138 2.135 . S
C136 N134 1.340 . S
C136 N135 1.321 . S
C136 H160 0.930 . S
H137 C132 0.931 . S
Co138 N135 2.135 . S
Co138 N141 2.121 . S
Co138 O146 2.055 . S
Co138 O149 2.039 . S
Co138 N152 2.140 . S
C139 O140 1.227 . S
C139 O149 1.265 . S
O140 C139 1.227 . S
N141 Co138 2.121 . S
N141 C143 1.375 . S
N141 C144 1.313 . S
C142 C143 1.338 . S
C142 N145 1.377 . S
C142 H162 0.930 . S
C143 N141 1.375 . S
C143 C142 1.338 . S
C143 H147 0.931 . S
C144 N141 1.313 . S
C144 N145 1.344 . S
C144 H148 0.930 . S
N145 C142 1.377 . S
N145 C144 1.344 . S
O146 Co138 2.055 . S
O146 C150 1.253 . S
H147 C143 0.931 . S
H148 C144 0.930 . S
O149 Co138 2.039 . S
O149 C139 1.265 . S
C150 O146 1.253 . S
C150 O151 1.227 . S
O151 C150 1.227 . S
N152 Co138 2.140 . S
N152 C155 1.346 . S
N152 C156 1.345 . S
C153 C154 1.387 . S
C153 C157 1.391 . S
C154 C153 1.387 . S
C154 C155 1.369 . S
C154 H163 0.929 . S
C155 N152 1.346 . S
C155 C154 1.369 . S
C155 H158 0.928 . S
C156 N152 1.345 . S
C156 C157 1.371 . S
C156 H159 0.931 . S
C157 C153 1.391 . S
C157 C156 1.371 . S
C157 H164 0.930 . S
H158 C155 0.928 . S
H159 C156 0.931 . S
H160 C136 0.930 . S
H161 C133 0.930 . S
H162 C142 0.930 . S
H163 C154 0.929 . S
H164 C157 0.930 . S
C165 C166 1.351 . S
C165 N168 1.368 . S
C165 H170 0.931 . S
C166 C165 1.351 . S
C166 N167 1.373 . S
C166 H194 0.960 . S
N167 C166 1.373 . S
N167 C169 1.340 . S
N168 C165 1.368 . S
N168 C169 1.321 . S
N168 Co171 2.135 . S
C169 N167 1.340 . S
C169 N168 1.321 . S
C169 H193 0.930 . S
H170 C165 0.931 . S
Co171 N168 2.135 . S
Co171 N174 2.121 . S
Co171 O179 2.055 . S
Co171 O182 2.039 . S
Co171 N185 2.140 . S
C172 O173 1.227 . S
C172 O182 1.265 . S
O173 C172 1.227 . S
N174 Co171 2.121 . S
N174 C176 1.375 . S
N174 C177 1.313 . S
C175 C176 1.338 . S
C175 N178 1.377 . S
C175 H195 0.930 . S
C176 N174 1.375 . S
C176 C175 1.338 . S
C176 H180 0.931 . S
C177 N174 1.313 . S
C177 N178 1.344 . S
C177 H181 0.930 . S
N178 C175 1.377 . S
N178 C177 1.344 . S
O179 Co171 2.055 . S
O179 C183 1.253 . S
H180 C176 0.931 . S
H181 C177 0.930 . S
O182 Co171 2.039 . S
O182 C172 1.265 . S
C183 O179 1.253 . S
C183 O184 1.227 . S
O184 C183 1.227 . S
N185 Co171 2.140 . S
N185 C188 1.346 . S
N185 C189 1.345 . S
C186 C187 1.387 . S
C186 C190 1.391 . S
C187 C186 1.387 . S
C187 C188 1.369 . S
C187 H196 0.929 . S
C188 N185 1.346 . S
C188 C187 1.369 . S
C188 H191 0.928 . S
C189 N185 1.345 . S
C189 C190 1.371 . S
C189 H192 0.931 . S
C190 C186 1.391 . S
C190 C189 1.371 . S
C190 H197 0.930 . S
H191 C188 0.928 . S
H192 C189 0.931 . S
H193 C169 0.930 . S
H194 C166 0.960 . S
H195 C175 0.930 . S
H196 C187 0.929 . S
H197 C190 0.930 . S
C198 C199 1.351 . S
C198 N201 1.368 . S
C198 H203 0.931 . S
C199 C198 1.351 . S
C199 N200 1.373 . S
C199 H227 0.960 . S
N200 C199 1.373 . S
N200 C202 1.340 . S
N201 C198 1.368 . S
N201 C202 1.321 . S
N201 Co204 2.135 . S
C202 N200 1.340 . S
C202 N201 1.321 . S
C202 H226 0.930 . S
H203 C198 0.931 . S
Co204 N201 2.135 . S
Co204 N207 2.121 . S
Co204 O212 2.055 . S
Co204 O215 2.039 . S
Co204 N218 2.140 . S
C205 O206 1.227 . S
C205 O215 1.265 . S
O206 C205 1.227 . S
N207 Co204 2.121 . S
N207 C209 1.375 . S
N207 C210 1.313 . S
C208 C209 1.338 . S
C208 N211 1.377 . S
C208 H228 0.930 . S
C209 N207 1.375 . S
C209 C208 1.338 . S
C209 H213 0.931 . S
C210 N207 1.313 . S
C210 N211 1.344 . S
C210 H214 0.930 . S
N211 C208 1.377 . S
N211 C210 1.344 . S
O212 Co204 2.055 . S
O212 C216 1.253 . S
H213 C209 0.931 . S
H214 C210 0.930 . S
O215 Co204 2.039 . S
O215 C205 1.265 . S
C216 O212 1.253 . S
C216 O217 1.227 . S
O217 C216 1.227 . S
N218 Co204 2.140 . S
N218 C221 1.346 . S
N218 C222 1.345 . S
C219 C220 1.387 . S
C219 C223 1.391 . S
C220 C219 1.387 . S
C220 C221 1.369 . S
C220 H229 0.929 . S
C221 N218 1.346 . S
C221 C220 1.369 . S
C221 H224 0.928 . S
C222 N218 1.345 . S
C222 C223 1.371 . S
C222 H225 0.931 . S
C223 C219 1.391 . S
C223 C222 1.371 . S
C223 H230 0.930 . S
H224 C221 0.928 . S
H225 C222 0.931 . S
H226 C202 0.930 . S
H227 C199 0.960 . S
H228 C208 0.930 . S
H229 C220 0.929 . S
H230 C223 0.930 . S
C231 C232 1.351 . S
C231 N234 1.368 . S
C231 H236 0.931 . S
C232 C231 1.351 . S
C232 N233 1.373 . S
C232 H260 0.930 . S
N233 C232 1.373 . S
N233 C235 1.340 . S
N234 C231 1.368 . S
N234 C235 1.321 . S
N234 Co237 2.135 . S
C235 N233 1.340 . S
C235 N234 1.321 . S
C235 H259 0.930 . S
H236 C231 0.931 . S
Co237 N234 2.135 . S
Co237 N240 2.121 . S
Co237 O245 2.055 . S
Co237 O248 2.039 . S
Co237 N251 2.140 . S
C238 O239 1.227 . S
C238 O248 1.265 . S
O239 C238 1.227 . S
N240 Co237 2.121 . S
N240 C242 1.375 . S
N240 C243 1.313 . S
C241 C242 1.338 . S
C241 N244 1.377 . S
C241 H261 0.930 . S
C242 N240 1.375 . S
C242 C241 1.338 . S
C242 H246 0.931 . S
C243 N240 1.313 . S
C243 N244 1.344 . S
C243 H247 0.930 . S
N244 C241 1.377 . S
N244 C243 1.344 . S
O245 Co237 2.055 . S
O245 C249 1.253 . S
H246 C242 0.931 . S
H247 C243 0.930 . S
O248 Co237 2.039 . S
O248 C238 1.265 . S
C249 O245 1.253 . S
C249 O250 1.227 . S
O250 C249 1.227 . S
N251 Co237 2.140 . S
N251 C254 1.346 . S
N251 C255 1.345 . S
C252 C253 1.387 . S
C252 C256 1.391 . S
C253 C252 1.387 . S
C253 C254 1.369 . S
C253 H262 0.929 . S
C254 N251 1.346 . S
C254 C253 1.369 . S
C254 H257 0.928 . S
C255 N251 1.345 . S
C255 C256 1.371 . S
C255 H258 0.931 . S
C256 C252 1.391 . S
C256 C255 1.371 . S
C256 H263 0.930 . S
H257 C254 0.928 . S
H258 C255 0.931 . S
H259 C235 0.930 . S
H260 C232 0.930 . S
H261 C241 0.930 . S
H262 C253 0.929 . S
H263 C256 0.930 . S
C264 C265 1.351 . S
C264 N267 1.368 . S
C264 H269 0.931 . S
C265 C264 1.351 . S
C265 N266 1.373 . S
C265 H293 0.960 . S
N266 C265 1.373 . S
N266 C268 1.340 . S
N267 C264 1.368 . S
N267 C268 1.321 . S
N267 Co270 2.135 . S
C268 N266 1.340 . S
C268 N267 1.321 . S
C268 H292 0.930 . S
H269 C264 0.931 . S
Co270 N267 2.135 . S
Co270 N273 2.121 . S
Co270 O278 2.055 . S
Co270 O281 2.039 . S
Co270 N284 2.140 . S
C271 O272 1.227 . S
C271 O281 1.265 . S
O272 C271 1.227 . S
N273 Co270 2.121 . S
N273 C275 1.375 . S
N273 C276 1.313 . S
C274 C275 1.338 . S
C274 N277 1.377 . S
C274 H294 0.930 . S
C275 N273 1.375 . S
C275 C274 1.338 . S
C275 H279 0.931 . S
C276 N273 1.313 . S
C276 N277 1.344 . S
C276 H280 0.930 . S
N277 C274 1.377 . S
N277 C276 1.344 . S
O278 Co270 2.055 . S
O278 C282 1.253 . S
H279 C275 0.931 . S
H280 C276 0.930 . S
O281 Co270 2.039 . S
O281 C271 1.265 . S
C282 O278 1.253 . S
C282 O283 1.227 . S
O283 C282 1.227 . S
N284 Co270 2.140 . S
N284 C287 1.346 . S
N284 C288 1.345 . S
C285 C286 1.387 . S
C285 C289 1.391 . S
C286 C285 1.387 . S
C286 C287 1.369 . S
C286 H295 0.929 . S
C287 N284 1.346 . S
C287 C286 1.369 . S
C287 H290 0.928 . S
C288 N284 1.345 . S
C288 C289 1.371 . S
C288 H291 0.931 . S
C289 C285 1.391 . S
C289 C288 1.371 . S
C289 H296 0.930 . S
H290 C287 0.928 . S
H291 C288 0.931 . S
H292 C268 0.930 . S
H293 C265 0.960 . S
H294 C274 0.930 . S
H295 C286 0.929 . S
H296 C289 0.930 . S
C297 C298 1.351 . S
C297 N300 1.368 . S
C297 H302 0.931 . S
C298 C297 1.351 . S
C298 N299 1.373 . S
C298 H326 0.930 . S
N299 C298 1.373 . S
N299 C301 1.340 . S
N300 C297 1.368 . S
N300 C301 1.321 . S
N300 Co303 2.135 . S
C301 N299 1.340 . S
C301 N300 1.321 . S
C301 H325 0.930 . S
H302 C297 0.931 . S
Co303 N300 2.135 . S
Co303 N306 2.121 . S
Co303 O311 2.055 . S
Co303 O314 2.039 . S
Co303 N317 2.140 . S
C304 O305 1.227 . S
C304 O314 1.265 . S
O305 C304 1.227 . S
N306 Co303 2.121 . S
N306 C308 1.375 . S
N306 C309 1.313 . S
C307 C308 1.338 . S
C307 N310 1.377 . S
C307 H327 0.930 . S
C308 N306 1.375 . S
C308 C307 1.338 . S
C308 H312 0.931 . S
C309 N306 1.313 . S
C309 N310 1.344 . S
C309 H313 0.930 . S
N310 C307 1.377 . S
N310 C309 1.344 . S
O311 Co303 2.055 . S
O311 C315 1.253 . S
H312 C308 0.931 . S
H313 C309 0.930 . S
O314 Co303 2.039 . S
O314 C304 1.265 . S
C315 O311 1.253 . S
C315 O316 1.227 . S
O316 C315 1.227 . S
N317 Co303 2.140 . S
N317 C320 1.346 . S
N317 C321 1.345 . S
C318 C319 1.387 . S
C318 C322 1.391 . S
C319 C318 1.387 . S
C319 C320 1.369 . S
C319 H328 0.929 . S
C320 N317 1.346 . S
C320 C319 1.369 . S
C320 H323 0.928 . S
C321 N317 1.345 . S
C321 C322 1.371 . S
C321 H324 0.931 . S
C322 C318 1.391 . S
C322 C321 1.371 . S
C322 H329 0.930 . S
H323 C320 0.928 . S
H324 C321 0.931 . S
H325 C301 0.930 . S
H326 C298 0.930 . S
H327 C307 0.930 . S
H328 C319 0.929 . S
H329 C322 0.930 . S
C330 C331 1.351 . S
C330 N333 1.368 . S
C330 H335 0.931 . S
C331 C330 1.351 . S
C331 N332 1.373 . S
C331 H359 0.930 . S
N332 C331 1.373 . S
N332 C334 1.340 . S
N333 C330 1.368 . S
N333 C334 1.321 . S
N333 Co336 2.135 . S
C334 N332 1.340 . S
C334 N333 1.321 . S
C334 H358 0.930 . S
H335 C330 0.931 . S
Co336 N333 2.135 . S
Co336 N339 2.121 . S
Co336 O344 2.055 . S
Co336 O347 2.039 . S
Co336 N350 2.140 . S
C337 O338 1.227 . S
C337 O347 1.265 . S
O338 C337 1.227 . S
N339 Co336 2.121 . S
N339 C341 1.375 . S
N339 C342 1.313 . S
C340 C341 1.338 . S
C340 N343 1.377 . S
C340 H360 0.930 . S
C341 N339 1.375 . S
C341 C340 1.338 . S
C341 H345 0.931 . S
C342 N339 1.313 . S
C342 N343 1.344 . S
C342 H346 0.930 . S
N343 C340 1.377 . S
N343 C342 1.344 . S
O344 Co336 2.055 . S
O344 C348 1.253 . S
H345 C341 0.931 . S
H346 C342 0.930 . S
O347 Co336 2.039 . S
O347 C337 1.265 . S
C348 O344 1.253 . S
C348 O349 1.227 . S
O349 C348 1.227 . S
N350 Co336 2.140 . S
N350 C353 1.346 . S
N350 C354 1.345 . S
C351 C352 1.387 . S
C351 C355 1.391 . S
C352 C351 1.387 . S
C352 C353 1.369 . S
C352 H361 0.929 . S
C353 N350 1.346 . S
C353 C352 1.369 . S
C353 H356 0.928 . S
C354 N350 1.345 . S
C354 C355 1.371 . S
C354 H357 0.931 . S
C355 C351 1.391 . S
C355 C354 1.371 . S
C355 H362 0.930 . S
H356 C353 0.928 . S
H357 C354 0.931 . S
H358 C334 0.930 . S
H359 C331 0.930 . S
H360 C340 0.930 . S
H361 C352 0.929 . S
H362 C355 0.930 . S
C363 C364 1.351 . S
C363 N366 1.368 . S
C363 H368 0.931 . S
C364 C363 1.351 . S
C364 N365 1.373 . S
C364 H392 0.960 . S
N365 C364 1.373 . S
N365 C367 1.340 . S
N366 C363 1.368 . S
N366 C367 1.321 . S
N366 Co369 2.135 . S
C367 N365 1.340 . S
C367 N366 1.321 . S
C367 H391 0.930 . S
H368 C363 0.931 . S
Co369 N366 2.135 . S
Co369 N372 2.121 . S
Co369 O377 2.055 . S
Co369 O380 2.039 . S
Co369 N383 2.140 . S
C370 O371 1.227 . S
C370 O380 1.265 . S
O371 C370 1.227 . S
N372 Co369 2.121 . S
N372 C374 1.375 . S
N372 C375 1.313 . S
C373 C374 1.338 . S
C373 N376 1.377 . S
C373 H393 0.930 . S
C374 N372 1.375 . S
C374 C373 1.338 . S
C374 H378 0.931 . S
C375 N372 1.313 . S
C375 N376 1.344 . S
C375 H379 0.930 . S
N376 C373 1.377 . S
N376 C375 1.344 . S
O377 Co369 2.055 . S
O377 C381 1.253 . S
H378 C374 0.931 . S
H379 C375 0.930 . S
O380 Co369 2.039 . S
O380 C370 1.265 . S
C381 O377 1.253 . S
C381 O382 1.227 . S
O382 C381 1.227 . S
N383 Co369 2.140 . S
N383 C386 1.346 . S
N383 C387 1.345 . S
C384 C385 1.387 . S
C384 C388 1.391 . S
C385 C384 1.387 . S
C385 C386 1.369 . S
C385 H394 0.929 . S
C386 N383 1.346 . S
C386 C385 1.369 . S
C386 H389 0.928 . S
C387 N383 1.345 . S
C387 C388 1.371 . S
C387 H390 0.931 . S
C388 C384 1.391 . S
C388 C387 1.371 . S
C388 H395 0.930 . S
H389 C386 0.928 . S
H390 C387 0.931 . S
H391 C367 0.930 . S
H392 C364 0.960 . S
H393 C373 0.930 . S
H394 C385 0.929 . S
H395 C388 0.930 . S
C396 C397 1.351 . S
C396 N399 1.368 . S
C396 H401 0.931 . S
C397 C396 1.351 . S
C397 N398 1.373 . S
C397 H425 0.930 . S
N398 C397 1.373 . S
N398 C400 1.340 . S
N399 C396 1.368 . S
N399 C400 1.321 . S
N399 Co402 2.135 . S
C400 N398 1.340 . S
C400 N399 1.321 . S
C400 H424 0.930 . S
H401 C396 0.931 . S
Co402 N399 2.135 . S
Co402 N405 2.121 . S
Co402 O410 2.055 . S
Co402 O413 2.039 . S
Co402 N416 2.140 . S
C403 O404 1.227 . S
C403 O413 1.265 . S
O404 C403 1.227 . S
N405 Co402 2.121 . S
N405 C407 1.375 . S
N405 C408 1.313 . S
C406 C407 1.338 . S
C406 N409 1.377 . S
C406 H426 0.930 . S
C407 N405 1.375 . S
C407 C406 1.338 . S
C407 H411 0.931 . S
C408 N405 1.313 . S
C408 N409 1.344 . S
C408 H412 0.930 . S
N409 C406 1.377 . S
N409 C408 1.344 . S
O410 Co402 2.055 . S
O410 C414 1.253 . S
H411 C407 0.931 . S
H412 C408 0.930 . S
O413 Co402 2.039 . S
O413 C403 1.265 . S
C414 O410 1.253 . S
C414 O415 1.227 . S
O415 C414 1.227 . S
N416 Co402 2.140 . S
N416 C419 1.346 . S
N416 C420 1.345 . S
C417 C418 1.387 . S
C417 C421 1.391 . S
C418 C417 1.387 . S
C418 C419 1.369 . S
C418 H427 0.929 . S
C419 N416 1.346 . S
C419 C418 1.369 . S
C419 H422 0.928 . S
C420 N416 1.345 . S
C420 C421 1.371 . S
C420 H423 0.931 . S
C421 C417 1.391 . S
C421 C420 1.371 . S
C421 H428 0.930 . S
H422 C419 0.928 . S
H423 C420 0.931 . S
H424 C400 0.930 . S
H425 C397 0.930 . S
H426 C406 0.930 . S
H427 C418 0.929 . S
H428 C421 0.930 . S
C429 C430 1.351 . S
C429 N432 1.368 . S
C429 H434 0.931 . S
C430 C429 1.351 . S
C430 N431 1.373 . S
C430 H458 0.960 . S
N431 C430 1.373 . S
N431 C433 1.340 . S
N432 C429 1.368 . S
N432 C433 1.321 . S
N432 Co435 2.135 . S
C433 N431 1.340 . S
C433 N432 1.321 . S
C433 H457 0.930 . S
H434 C429 0.931 . S
Co435 N432 2.135 . S
Co435 N438 2.121 . S
Co435 O443 2.055 . S
Co435 O446 2.039 . S
Co435 N449 2.140 . S
C436 O437 1.227 . S
C436 O446 1.265 . S
O437 C436 1.227 . S
N438 Co435 2.121 . S
N438 C440 1.375 . S
N438 C441 1.313 . S
C439 C440 1.338 . S
C439 N442 1.377 . S
C439 H459 0.930 . S
C440 N438 1.375 . S
C440 C439 1.338 . S
C440 H444 0.931 . S
C441 N438 1.313 . S
C441 N442 1.344 . S
C441 H445 0.930 . S
N442 C439 1.377 . S
N442 C441 1.344 . S
O443 Co435 2.055 . S
O443 C447 1.253 . S
H444 C440 0.931 . S
H445 C441 0.930 . S
O446 Co435 2.039 . S
O446 C436 1.265 . S
C447 O443 1.253 . S
C447 O448 1.227 . S
O448 C447 1.227 . S
N449 Co435 2.140 . S
N449 C452 1.346 . S
N449 C453 1.345 . S
C450 C451 1.387 . S
C450 C454 1.391 . S
C451 C450 1.387 . S
C451 C452 1.369 . S
C451 H460 0.929 . S
C452 N449 1.346 . S
C452 C451 1.369 . S
C452 H455 0.928 . S
C453 N449 1.345 . S
C453 C454 1.371 . S
C453 H456 0.931 . S
C454 C450 1.391 . S
C454 C453 1.371 . S
C454 H461 0.930 . S
H455 C452 0.928 . S
H456 C453 0.931 . S
H457 C433 0.930 . S
H458 C430 0.960 . S
H459 C439 0.930 . S
H460 C451 0.929 . S
H461 C454 0.930 . S
C462 C463 1.351 . S
C462 N465 1.368 . S
C462 H467 0.931 . S
C463 C462 1.351 . S
C463 N464 1.373 . S
C463 H491 0.960 . S
N464 C463 1.373 . S
N464 C466 1.340 . S
N465 C462 1.368 . S
N465 C466 1.321 . S
N465 Co468 2.135 . S
C466 N464 1.340 . S
C466 N465 1.321 . S
C466 H490 0.930 . S
H467 C462 0.931 . S
Co468 N465 2.135 . S
Co468 N471 2.121 . S
Co468 O476 2.055 . S
Co468 O479 2.039 . S
Co468 N482 2.140 . S
C469 O470 1.227 . S
C469 O479 1.265 . S
O470 C469 1.227 . S
N471 Co468 2.121 . S
N471 C473 1.375 . S
N471 C474 1.313 . S
C472 C473 1.338 . S
C472 N475 1.377 . S
C472 H492 0.930 . S
C473 N471 1.375 . S
C473 C472 1.338 . S
C473 H477 0.931 . S
C474 N471 1.313 . S
C474 N475 1.344 . S
C474 H478 0.930 . S
N475 C472 1.377 . S
N475 C474 1.344 . S
O476 Co468 2.055 . S
O476 C480 1.253 . S
H477 C473 0.931 . S
H478 C474 0.930 . S
O479 Co468 2.039 . S
O479 C469 1.265 . S
C480 O476 1.253 . S
C480 O481 1.227 . S
O481 C480 1.227 . S
N482 Co468 2.140 . S
N482 C485 1.346 . S
N482 C486 1.345 . S
C483 C484 1.387 . S
C483 C487 1.391 . S
C484 C483 1.387 . S
C484 C485 1.369 . S
C484 H493 0.929 . S
C485 N482 1.346 . S
C485 C484 1.369 . S
C485 H488 0.928 . S
C486 N482 1.345 . S
C486 C487 1.371 . S
C486 H489 0.931 . S
C487 C483 1.391 . S
C487 C486 1.371 . S
C487 H494 0.930 . S
H488 C485 0.928 . S
H489 C486 0.931 . S
H490 C466 0.930 . S
H491 C463 0.960 . S
H492 C472 0.930 . S
H493 C484 0.929 . S
H494 C487 0.930 . S
C495 C496 1.351 . S
C495 N498 1.368 . S
C495 H500 0.931 . S
C496 C495 1.351 . S
C496 N497 1.373 . S
C496 H524 0.930 . S
N497 C496 1.373 . S
N497 C499 1.340 . S
N498 C495 1.368 . S
N498 C499 1.321 . S
N498 Co501 2.135 . S
C499 N497 1.340 . S
C499 N498 1.321 . S
C499 H523 0.930 . S
H500 C495 0.931 . S
Co501 N498 2.135 . S
Co501 N504 2.121 . S
Co501 O509 2.055 . S
Co501 O512 2.039 . S
Co501 N515 2.140 . S
C502 O503 1.227 . S
C502 O512 1.265 . S
O503 C502 1.227 . S
N504 Co501 2.121 . S
N504 C506 1.375 . S
N504 C507 1.313 . S
C505 C506 1.338 . S
C505 N508 1.377 . S
C505 H525 0.930 . S
C506 N504 1.375 . S
C506 C505 1.338 . S
C506 H510 0.931 . S
C507 N504 1.313 . S
C507 N508 1.344 . S
C507 H511 0.930 . S
N508 C505 1.377 . S
N508 C507 1.344 . S
O509 Co501 2.055 . S
O509 C513 1.253 . S
H510 C506 0.931 . S
H511 C507 0.930 . S
O512 Co501 2.039 . S
O512 C502 1.265 . S
C513 O509 1.253 . S
C513 O514 1.227 . S
O514 C513 1.227 . S
N515 Co501 2.140 . S
N515 C518 1.346 . S
N515 C519 1.345 . S
C516 C517 1.387 . S
C516 C520 1.391 . S
C517 C516 1.387 . S
C517 C518 1.369 . S
C517 H526 0.929 . S
C518 N515 1.346 . S
C518 C517 1.369 . S
C518 H521 0.928 . S
C519 N515 1.345 . S
C519 C520 1.371 . S
C519 H522 0.931 . S
C520 C516 1.391 . S
C520 C519 1.371 . S
C520 H527 0.930 . S
H521 C518 0.928 . S
H522 C519 0.931 . S
H523 C499 0.930 . S
H524 C496 0.930 . S
H525 C505 0.930 . S
H526 C517 0.929 . S
H527 C520 0.930 . S
H528 C546 0.951 . S
H529 C548 0.951 . S
H530 C550 0.950 . S
H531 C551 0.950 . S
H532 C553 0.950 . S
H533 C556 0.950 . S
H534 C557 0.950 . S
H535 C559 0.950 . S
H536 C560 0.950 . S
H537 C561 0.951 . S
H538 C563 0.951 . S
H539 C565 0.950 . S
H540 C566 0.950 . S
H541 C568 0.950 . S
H542 C571 0.950 . S
H543 C572 0.950 . S
H544 C574 0.950 . S
H545 C575 0.950 . S
C546 H528 0.951 . S
C546 C547 1.366 . S
C546 C548 1.388 . S
C547 C546 1.366 . S
C547 C551 1.385 . S
C548 H529 0.951 . S
C548 C546 1.388 . S
C548 C549 1.366 . S
C549 C548 1.366 . S
C549 C550 1.414 . S
C549 C552 1.499 . S
C550 H530 0.950 . S
C550 C549 1.414 . S
C550 C551 1.374 . S
C551 H531 0.950 . S
C551 C547 1.385 . S
C551 C550 1.374 . S
C552 C549 1.499 . S
C552 C553 1.373 . S
C552 C554 1.389 . S
C553 H532 0.950 . S
C553 C552 1.373 . S
C553 C569 1.377 . S
C554 C552 1.389 . S
C554 C555 1.524 . S
C554 C568 1.377 . S
C555 C554 1.524 . S
C555 C556 1.397 . S
C555 C560 1.363 . S
C556 H533 0.950 . S
C556 C555 1.397 . S
C556 C557 1.334 1_545 S
C557 H534 0.950 . S
C557 C556 1.334 1_565 S
C557 C558 1.287 . S
C558 C557 1.287 . S
C558 C559 1.524 1_565 S
C558 H577 0.913 . S
C559 H535 0.950 . S
C559 C558 1.524 1_545 S
C559 C560 1.415 . S
C560 H536 0.950 . S
C560 C555 1.363 . S
C560 C559 1.415 . S
C561 H537 0.951 . S
C561 C562 1.366 . S
C561 C563 1.388 . S
C562 C561 1.366 . S
C562 C566 1.385 . S
C563 H538 0.951 . S
C563 C561 1.388 . S
C563 C564 1.366 . S
C564 C563 1.366 . S
C564 C565 1.414 . S
C564 C567 1.499 . S
C565 H539 0.950 . S
C565 C564 1.414 . S
C565 C566 1.374 . S
C566 H540 0.950 . S
C566 C562 1.385 . S
C566 C565 1.374 . S
C567 C564 1.499 . S
C567 C568 1.373 . S
C567 C569 1.389 . S
C568 H541 0.950 . S
C568 C554 1.377 . S
C568 C567 1.373 . S
C569 C553 1.377 . S
C569 C567 1.389 . S
C569 C570 1.524 . S
C570 C569 1.524 . S
C570 C571 1.397 . S
C570 C575 1.363 . S
C571 H542 0.950 . S
C571 C570 1.397 . S
C571 C572 1.334 . S
C572 H543 0.950 . S
C572 C571 1.334 . S
C572 C573 1.287 . S
C573 C572 1.287 . S
C573 C574 1.524 . S
C573 H576 0.999 . S
C574 H544 0.950 . S
C574 C573 1.524 . S
C574 C575 1.415 . S
C575 H545 0.950 . S
C575 C570 1.363 . S
C575 C574 1.415 . S
H576 C573 0.999 . S
H577 C558 0.913 . S
H578 C596 0.951 . S
H579 C598 0.951 . S
H580 C600 0.950 . S
H581 C601 0.950 . S
H582 C603 0.950 . S
H583 C606 0.950 . S
H584 C607 0.950 . S
H585 C609 0.950 . S
H586 C610 0.950 . S
H587 C611 0.951 . S
H588 C613 0.951 . S
H589 C615 0.950 . S
H590 C616 0.950 . S
H591 C618 0.950 . S
H592 C621 0.950 . S
H593 C622 0.950 . S
H594 C624 0.950 . S
H595 C625 0.950 . S
C596 H578 0.951 . S
C596 C597 1.366 . S
C596 C598 1.388 . S
C597 C596 1.366 . S
C597 C601 1.385 . S
C598 H579 0.951 . S
C598 C596 1.388 . S
C598 C599 1.366 . S
C599 C598 1.366 . S
C599 C600 1.414 . S
C599 C602 1.499 . S
C600 H580 0.950 . S
C600 C599 1.414 . S
C600 C601 1.374 . S
C601 H581 0.950 . S
C601 C597 1.385 . S
C601 C600 1.374 . S
C602 C599 1.499 . S
C602 C603 1.373 . S
C602 C604 1.389 . S
C603 H582 0.950 . S
C603 C602 1.373 . S
C603 C619 1.377 . S
C604 C602 1.389 . S
C604 C605 1.524 . S
C604 C618 1.377 . S
C605 C604 1.524 . S
C605 C606 1.397 . S
C605 C610 1.363 . S
C606 H583 0.950 . S
C606 C605 1.397 . S
C606 C607 1.334 . S
C607 H584 0.950 . S
C607 C606 1.334 . S
C607 C608 1.287 . S
C608 C607 1.287 . S
C608 C609 1.524 . S
C608 H627 0.913 . S
C609 H585 0.950 . S
C609 C608 1.524 . S
C609 C610 1.415 . S
C610 H586 0.950 . S
C610 C605 1.363 . S
C610 C609 1.415 . S
C611 H587 0.951 . S
C611 C612 1.366 . S
C611 C613 1.388 . S
C612 C611 1.366 . S
C612 C616 1.385 . S
C613 H588 0.951 . S
C613 C611 1.388 . S
C613 C614 1.366 . S
C614 C613 1.366 . S
C614 C615 1.414 . S
C614 C617 1.499 . S
C615 H589 0.950 . S
C615 C614 1.414 . S
C615 C616 1.374 . S
C616 H590 0.950 . S
C616 C612 1.385 . S
C616 C615 1.374 . S
C617 C614 1.499 . S
C617 C618 1.373 . S
C617 C619 1.389 . S
C618 H591 0.950 . S
C618 C604 1.377 . S
C618 C617 1.373 . S
C619 C603 1.377 . S
C619 C617 1.389 . S
C619 C620 1.524 . S
C620 C619 1.524 . S
C620 C621 1.397 . S
C620 C625 1.363 . S
C621 H592 0.950 . S
C621 C620 1.397 . S
C621 C622 1.334 . S
C622 H593 0.950 . S
C622 C621 1.334 . S
C622 C623 1.287 . S
C623 C622 1.287 . S
C623 C624 1.524 . S
C623 H626 0.999 . S
C624 H594 0.950 . S
C624 C623 1.524 . S
C624 C625 1.415 . S
C625 H595 0.950 . S
C625 C620 1.363 . S
C625 C624 1.415 . S
H626 C623 0.999 . S
H627 C608 0.913 . S
H628 C646 0.951 . S
H629 C648 0.951 . S
H630 C650 0.950 . S
H631 C651 0.950 . S
H632 C653 0.950 . S
H633 C656 0.950 . S
H634 C657 0.950 . S
H635 C659 0.950 . S
H636 C660 0.950 . S
H637 C661 0.951 . S
H638 C663 0.951 . S
H639 C665 0.950 . S
H640 C666 0.950 . S
H641 C668 0.950 . S
H642 C671 0.950 . S
H643 C672 0.950 . S
H644 C674 0.950 . S
H645 C675 0.950 . S
C646 H628 0.951 . S
C646 C647 1.366 . S
C646 C648 1.388 . S
C647 C646 1.366 . S
C647 C651 1.385 . S
C648 H629 0.951 . S
C648 C646 1.388 . S
C648 C649 1.366 . S
C649 C648 1.366 . S
C649 C650 1.414 . S
C649 C652 1.499 . S
C650 H630 0.950 . S
C650 C649 1.414 . S
C650 C651 1.374 . S
C651 H631 0.950 . S
C651 C647 1.385 . S
C651 C650 1.374 . S
C652 C649 1.499 . S
C652 C653 1.373 . S
C652 C654 1.389 . S
C653 H632 0.950 . S
C653 C652 1.373 . S
C653 C669 1.377 . S
C654 C652 1.389 . S
C654 C655 1.524 . S
C654 C668 1.377 . S
C655 C654 1.524 . S
C655 C656 1.397 . S
C655 C660 1.363 . S
C656 H633 0.950 . S
C656 C655 1.397 . S
C656 C657 1.334 . S
C657 H634 0.950 . S
C657 C656 1.334 . S
C657 C658 1.287 . S
C658 C657 1.287 . S
C658 C659 1.524 . S
C658 H677 0.913 . S
C659 H635 0.950 . S
C659 C658 1.524 . S
C659 C660 1.415 . S
C660 H636 0.950 . S
C660 C655 1.363 . S
C660 C659 1.415 . S
C661 H637 0.951 . S
C661 C662 1.366 . S
C661 C663 1.388 . S
C662 C661 1.366 . S
C662 C666 1.385 . S
C663 H638 0.951 . S
C663 C661 1.388 . S
C663 C664 1.366 . S
C664 C663 1.366 . S
C664 C665 1.414 . S
C664 C667 1.499 . S
C665 H639 0.950 . S
C665 C664 1.414 . S
C665 C666 1.374 . S
C666 H640 0.950 . S
C666 C662 1.385 . S
C666 C665 1.374 . S
C667 C664 1.499 . S
C667 C668 1.373 . S
C667 C669 1.389 . S
C668 H641 0.950 . S
C668 C654 1.377 . S
C668 C667 1.373 . S
C669 C653 1.377 . S
C669 C667 1.389 . S
C669 C670 1.524 . S
C670 C669 1.524 . S
C670 C671 1.397 . S
C670 C675 1.363 . S
C671 H642 0.950 . S
C671 C670 1.397 . S
C671 C672 1.334 . S
C672 H643 0.950 . S
C672 C671 1.334 . S
C672 C673 1.287 . S
C673 C672 1.287 . S
C673 C674 1.524 . S
C673 H676 0.999 . S
C674 H644 0.950 . S
C674 C673 1.524 . S
C674 C675 1.415 . S
C675 H645 0.950 . S
C675 C670 1.363 . S
C675 C674 1.415 . S
H676 C673 0.999 . S
H677 C658 0.913 . S
H678 C696 0.951 . S
H679 C698 0.951 . S
H680 C700 0.950 . S
H681 C701 0.950 . S
H682 C703 0.950 . S
H683 C706 0.950 . S
H684 C707 0.950 . S
H685 C709 0.950 1_655 S
H686 C710 0.950 . S
H687 C711 0.951 . S
H688 C713 0.951 . S
H689 C715 0.950 . S
H690 C716 0.950 . S
H691 C718 0.950 . S
H692 C721 0.950 . S
H693 C722 0.950 . S
H694 C724 0.950 . S
H695 C725 0.950 . S
C696 H678 0.951 . S
C696 C697 1.366 . S
C696 C698 1.388 . S
C697 C696 1.366 . S
C697 C701 1.385 . S
C698 H679 0.951 . S
C698 C696 1.388 . S
C698 C699 1.366 . S
C699 C698 1.366 . S
C699 C700 1.414 . S
C699 C702 1.499 . S
C700 H680 0.950 . S
C700 C699 1.414 . S
C700 C701 1.374 . S
C701 H681 0.950 . S
C701 C697 1.385 . S
C701 C700 1.374 . S
C702 C699 1.499 . S
C702 C703 1.373 . S
C702 C704 1.389 . S
C703 H682 0.950 . S
C703 C702 1.373 . S
C703 C719 1.377 . S
C704 C702 1.389 . S
C704 C705 1.524 . S
C704 C718 1.377 . S
C705 C704 1.524 . S
C705 C706 1.397 . S
C705 C710 1.363 . S
C706 H683 0.950 . S
C706 C705 1.397 . S
C706 C707 1.334 . S
C707 H684 0.950 . S
C707 C706 1.334 . S
C707 C708 1.287 . S
C708 C707 1.287 . S
C708 C709 1.524 . S
C708 H727 0.913 . S
C709 H685 0.950 1_455 S
C709 C708 1.524 . S
C709 C710 1.415 . S
C710 H686 0.950 . S
C710 C705 1.363 . S
C710 C709 1.415 . S
C711 H687 0.951 . S
C711 C712 1.366 . S
C711 C713 1.388 . S
C712 C711 1.366 . S
C712 C716 1.385 . S
C713 H688 0.951 . S
C713 C711 1.388 . S
C713 C714 1.366 . S
C714 C713 1.366 . S
C714 C715 1.414 . S
C714 C717 1.499 . S
C715 H689 0.950 . S
C715 C714 1.414 . S
C715 C716 1.374 . S
C716 H690 0.950 . S
C716 C712 1.385 . S
C716 C715 1.374 . S
C717 C714 1.499 . S
C717 C718 1.373 . S
C717 C719 1.389 . S
C718 H691 0.950 . S
C718 C704 1.377 . S
C718 C717 1.373 . S
C719 C703 1.377 . S
C719 C717 1.389 . S
C719 C720 1.524 . S
C720 C719 1.524 . S
C720 C721 1.397 . S
C720 C725 1.363 . S
C721 H692 0.950 . S
C721 C720 1.397 . S
C721 C722 1.334 . S
C722 H693 0.950 . S
C722 C721 1.334 . S
C722 C723 1.287 . S
C723 C722 1.287 . S
C723 C724 1.524 . S
C723 H726 0.999 . S
C724 H694 0.950 . S
C724 C723 1.524 . S
C724 C725 1.415 . S
C725 H695 0.950 . S
C725 C720 1.363 . S
C725 C724 1.415 . S
H726 C723 0.999 . S
H727 C708 0.913 . S
H728 C746 0.951 . S
H729 C748 0.951 . S
H730 C750 0.950 . S
H731 C751 0.950 . S
H732 C753 0.950 . S
H733 C756 0.950 . S
H734 C757 0.950 . S
H735 C759 0.950 . S
H736 C760 0.950 . S
H737 C761 0.951 . S
H738 C763 0.951 . S
H739 C765 0.950 . S
H740 C766 0.950 . S
H741 C768 0.950 . S
H742 C771 0.950 . S
H743 C772 0.950 . S
H744 C774 0.950 . S
H745 C775 0.950 . S
C746 H728 0.951 . S
C746 C747 1.366 . S
C746 C748 1.388 . S
C747 C746 1.366 . S
C747 C751 1.385 . S
C748 H729 0.951 . S
C748 C746 1.388 . S
C748 C749 1.366 . S
C749 C748 1.366 . S
C749 C750 1.414 . S
C749 C752 1.499 . S
C750 H730 0.950 . S
C750 C749 1.414 . S
C750 C751 1.374 . S
C751 H731 0.950 . S
C751 C747 1.385 . S
C751 C750 1.374 . S
C752 C749 1.499 . S
C752 C753 1.373 . S
C752 C754 1.389 . S
C753 H732 0.950 . S
C753 C752 1.373 . S
C753 C769 1.377 . S
C754 C752 1.389 . S
C754 C755 1.524 . S
C754 C768 1.377 . S
C755 C754 1.524 . S
C755 C756 1.397 . S
C755 C760 1.363 . S
C756 H733 0.950 . S
C756 C755 1.397 . S
C756 C757 1.334 1_565 S
C757 H734 0.950 . S
C757 C756 1.334 1_545 S
C757 C758 1.287 . S
C758 C757 1.287 . S
C758 C759 1.524 . S
C758 H777 0.913 . S
C759 H735 0.950 . S
C759 C758 1.524 . S
C759 C760 1.415 1_545 S
C760 H736 0.950 . S
C760 C755 1.363 . S
C760 C759 1.415 1_565 S
C761 H737 0.951 . S
C761 C762 1.366 . S
C761 C763 1.388 . S
C762 C761 1.366 . S
C762 C766 1.385 . S
C763 H738 0.951 . S
C763 C761 1.388 . S
C763 C764 1.366 . S
C764 C763 1.366 . S
C764 C765 1.414 . S
C764 C767 1.499 . S
C765 H739 0.950 . S
C765 C764 1.414 . S
C765 C766 1.374 . S
C766 H740 0.950 . S
C766 C762 1.385 . S
C766 C765 1.374 . S
C767 C764 1.499 . S
C767 C768 1.373 . S
C767 C769 1.389 . S
C768 H741 0.950 . S
C768 C754 1.377 . S
C768 C767 1.373 . S
C769 C753 1.377 . S
C769 C767 1.389 . S
C769 C770 1.524 . S
C770 C769 1.524 . S
C770 C771 1.397 . S
C770 C775 1.363 . S
C771 H742 0.950 . S
C771 C770 1.397 . S
C771 C772 1.334 . S
C772 H743 0.950 . S
C772 C771 1.334 . S
C772 C773 1.287 . S
C773 C772 1.287 . S
C773 C774 1.524 . S
C773 H776 0.999 . S
C774 H744 0.950 . S
C774 C773 1.524 . S
C774 C775 1.415 . S
C775 H745 0.950 . S
C775 C770 1.363 . S
C775 C774 1.415 . S
H776 C773 0.999 . S
H777 C758 0.913 . S
H778 C796 0.951 . S
H779 C798 0.951 . S
H780 C800 0.950 . S
H781 C801 0.950 . S
H782 C803 0.950 . S
H783 C806 0.950 . S
H784 C807 0.950 . S
H785 C809 0.950 . S
H786 C810 0.950 . S
H787 C811 0.951 . S
H788 C813 0.951 . S
H789 C815 0.950 . S
H790 C816 0.950 . S
H791 C818 0.950 . S
H792 C821 0.950 . S
H793 C822 0.950 . S
H794 C824 0.950 . S
H795 C825 0.950 . S
C796 H778 0.951 . S
C796 C797 1.366 . S
C796 C798 1.388 . S
C797 C796 1.366 . S
C797 C801 1.385 . S
C798 H779 0.951 . S
C798 C796 1.388 . S
C798 C799 1.366 . S
C799 C798 1.366 . S
C799 C800 1.414 . S
C799 C802 1.499 . S
C800 H780 0.950 . S
C800 C799 1.414 . S
C800 C801 1.374 . S
C801 H781 0.950 . S
C801 C797 1.385 . S
C801 C800 1.374 . S
C802 C799 1.499 . S
C802 C803 1.373 . S
C802 C804 1.389 . S
C803 H782 0.950 . S
C803 C802 1.373 . S
C803 C819 1.377 . S
C804 C802 1.389 . S
C804 C805 1.524 . S
C804 C818 1.377 . S
C805 C804 1.524 . S
C805 C806 1.397 . S
C805 C810 1.363 . S
C806 H783 0.950 . S
C806 C805 1.397 . S
C806 C807 1.334 . S
C807 H784 0.950 . S
C807 C806 1.334 . S
C807 C808 1.287 . S
C808 C807 1.287 . S
C808 C809 1.524 . S
C808 H827 0.913 . S
C809 H785 0.950 . S
C809 C808 1.524 . S
C809 C810 1.415 . S
C810 H786 0.950 . S
C810 C805 1.363 . S
C810 C809 1.415 . S
C811 H787 0.951 . S
C811 C812 1.366 . S
C811 C813 1.388 . S
C812 C811 1.366 . S
C812 C816 1.385 . S
C813 H788 0.951 . S
C813 C811 1.388 . S
C813 C814 1.366 . S
C814 C813 1.366 . S
C814 C815 1.414 . S
C814 C817 1.499 . S
C815 H789 0.950 . S
C815 C814 1.414 . S
C815 C816 1.374 . S
C816 H790 0.950 . S
C816 C812 1.385 . S
C816 C815 1.374 . S
C817 C814 1.499 . S
C817 C818 1.373 . S
C817 C819 1.389 . S
C818 H791 0.950 . S
C818 C804 1.377 . S
C818 C817 1.373 . S
C819 C803 1.377 . S
C819 C817 1.389 . S
C819 C820 1.524 . S
C820 C819 1.524 . S
C820 C821 1.397 . S
C820 C825 1.363 . S
C821 H792 0.950 . S
C821 C820 1.397 . S
C821 C822 1.334 . S
C822 H793 0.950 . S
C822 C821 1.334 . S
C822 C823 1.287 . S
C823 C822 1.287 . S
C823 C824 1.524 . S
C823 H826 0.999 . S
C824 H794 0.950 . S
C824 C823 1.524 . S
C824 C825 1.415 . S
C825 H795 0.950 . S
C825 C820 1.363 . S
C825 C824 1.415 . S
H826 C823 0.999 . S
H827 C808 0.913 . S
H828 C846 0.951 . S
H829 C848 0.951 . S
H830 C850 0.950 . S
H831 C851 0.950 . S
H832 C853 0.950 . S
H833 C856 0.950 . S
H834 C857 0.950 . S
H835 C859 0.950 . S
H836 C860 0.950 . S
H837 C861 0.951 . S
H838 C863 0.951 . S
H839 C865 0.950 . S
H840 C866 0.950 . S
H841 C868 0.950 . S
H842 C871 0.950 . S
H843 C872 0.950 . S
H844 C874 0.950 . S
H845 C875 0.950 . S
C846 H828 0.951 . S
C846 C847 1.366 . S
C846 C848 1.388 . S
C847 C846 1.366 . S
C847 C851 1.385 . S
C848 H829 0.951 . S
C848 C846 1.388 . S
C848 C849 1.366 . S
C849 C848 1.366 . S
C849 C850 1.414 . S
C849 C852 1.499 . S
C850 H830 0.950 . S
C850 C849 1.414 . S
C850 C851 1.374 . S
C851 H831 0.950 . S
C851 C847 1.385 . S
C851 C850 1.374 . S
C852 C849 1.499 . S
C852 C853 1.373 . S
C852 C854 1.389 . S
C853 H832 0.950 . S
C853 C852 1.373 . S
C853 C869 1.377 . S
C854 C852 1.389 . S
C854 C855 1.524 . S
C854 C868 1.377 . S
C855 C854 1.524 . S
C855 C856 1.397 . S
C855 C860 1.363 . S
C856 H833 0.950 . S
C856 C855 1.397 . S
C856 C857 1.334 . S
C857 H834 0.950 . S
C857 C856 1.334 . S
C857 C858 1.287 . S
C858 C857 1.287 . S
C858 C859 1.524 . S
C858 H877 0.913 . S
C859 H835 0.950 . S
C859 C858 1.524 . S
C859 C860 1.415 . S
C860 H836 0.950 . S
C860 C855 1.363 . S
C860 C859 1.415 . S
C861 H837 0.951 . S
C861 C862 1.366 . S
C861 C863 1.388 . S
C862 C861 1.366 . S
C862 C866 1.385 . S
C863 H838 0.951 . S
C863 C861 1.388 . S
C863 C864 1.366 . S
C864 C863 1.366 . S
C864 C865 1.414 . S
C864 C867 1.499 . S
C865 H839 0.950 . S
C865 C864 1.414 . S
C865 C866 1.374 . S
C866 H840 0.950 . S
C866 C862 1.385 . S
C866 C865 1.374 . S
C867 C864 1.499 . S
C867 C868 1.373 . S
C867 C869 1.389 . S
C868 H841 0.950 . S
C868 C854 1.377 . S
C868 C867 1.373 . S
C869 C853 1.377 . S
C869 C867 1.389 . S
C869 C870 1.524 . S
C870 C869 1.524 . S
C870 C871 1.397 . S
C870 C875 1.363 . S
C871 H842 0.950 . S
C871 C870 1.397 . S
C871 C872 1.334 . S
C872 H843 0.950 . S
C872 C871 1.334 . S
C872 C873 1.287 . S
C873 C872 1.287 . S
C873 C874 1.524 . S
C873 H876 0.999 . S
C874 H844 0.950 . S
C874 C873 1.524 . S
C874 C875 1.415 . S
C875 H845 0.950 . S
C875 C870 1.363 . S
C875 C874 1.415 . S
H876 C873 0.999 . S
H877 C858 0.913 . S
H878 C896 0.951 . S
H879 C898 0.951 . S
H880 C900 0.950 . S
H881 C901 0.950 . S
H882 C903 0.950 . S
H883 C906 0.950 . S
H884 C907 0.950 . S
H885 C909 0.950 . S
H886 C910 0.950 . S
H887 C911 0.951 . S
H888 C913 0.951 . S
H889 C915 0.950 . S
H890 C916 0.950 . S
H891 C918 0.950 . S
H892 C921 0.950 . S
H893 C922 0.950 . S
H894 C924 0.950 . S
H895 C925 0.950 . S
C896 H878 0.951 . S
C896 C897 1.366 . S
C896 C898 1.388 . S
C897 C896 1.366 . S
C897 C901 1.385 . S
C898 H879 0.951 . S
C898 C896 1.388 . S
C898 C899 1.366 . S
C899 C898 1.366 . S
C899 C900 1.414 . S
C899 C902 1.499 . S
C900 H880 0.950 . S
C900 C899 1.414 . S
C900 C901 1.374 . S
C901 H881 0.950 . S
C901 C897 1.385 . S
C901 C900 1.374 . S
C902 C899 1.499 . S
C902 C903 1.373 . S
C902 C904 1.389 . S
C903 H882 0.950 . S
C903 C902 1.373 . S
C903 C919 1.377 . S
C904 C902 1.389 . S
C904 C905 1.524 . S
C904 C918 1.377 . S
C905 C904 1.524 . S
C905 C906 1.397 . S
C905 C910 1.363 . S
C906 H883 0.950 . S
C906 C905 1.397 . S
C906 C907 1.334 . S
C907 H884 0.950 . S
C907 C906 1.334 . S
C907 C908 1.287 1_655 S
C908 C907 1.287 1_455 S
C908 C909 1.524 . S
C908 H927 0.913 . S
C909 H885 0.950 . S
C909 C908 1.524 . S
C909 C910 1.415 1_455 S
C910 H886 0.950 . S
C910 C905 1.363 . S
C910 C909 1.415 1_655 S
C911 H887 0.951 . S
C911 C912 1.366 . S
C911 C913 1.388 . S
C912 C911 1.366 . S
C912 C916 1.385 . S
C913 H888 0.951 . S
C913 C911 1.388 . S
C913 C914 1.366 . S
C914 C913 1.366 . S
C914 C915 1.414 . S
C914 C917 1.499 . S
C915 H889 0.950 . S
C915 C914 1.414 . S
C915 C916 1.374 . S
C916 H890 0.950 . S
C916 C912 1.385 . S
C916 C915 1.374 . S
C917 C914 1.499 . S
C917 C918 1.373 . S
C917 C919 1.389 . S
C918 H891 0.950 . S
C918 C904 1.377 . S
C918 C917 1.373 . S
C919 C903 1.377 . S
C919 C917 1.389 . S
C919 C920 1.524 . S
C920 C919 1.524 . S
C920 C921 1.397 . S
C920 C925 1.363 . S
C921 H892 0.950 . S
C921 C920 1.397 . S
C921 C922 1.334 . S
C922 H893 0.950 . S
C922 C921 1.334 . S
C922 C923 1.287 . S
C923 C922 1.287 . S
C923 C924 1.524 . S
C923 H926 0.999 . S
C924 H894 0.950 . S
C924 C923 1.524 . S
C924 C925 1.415 . S
C925 H895 0.950 . S
C925 C920 1.363 . S
C925 C924 1.415 . S
H926 C923 0.999 . S
H927 C908 0.913 . S
H928 C946 0.951 . S
H929 C948 0.951 . S
H930 C950 0.950 . S
H931 C951 0.950 . S
H932 C953 0.950 . S
H933 C956 0.950 . S
H934 C957 0.950 . S
H935 C959 0.950 . S
H936 C960 0.950 . S
H937 C961 0.951 . S
H938 C963 0.951 . S
H939 C965 0.950 . S
H940 C966 0.950 . S
H941 C968 0.950 . S
H942 C971 0.950 . S
H943 C972 0.950 . S
H944 C974 0.950 . S
H945 C975 0.950 . S
C946 H928 0.951 . S
C946 C947 1.366 . S
C946 C948 1.388 . S
C947 C946 1.366 . S
C947 C951 1.385 . S
C948 H929 0.951 . S
C948 C946 1.388 . S
C948 C949 1.366 . S
C949 C948 1.366 . S
C949 C950 1.414 . S
C949 C952 1.499 . S
C950 H930 0.950 . S
C950 C949 1.414 . S
C950 C951 1.374 . S
C951 H931 0.950 . S
C951 C947 1.385 . S
C951 C950 1.374 . S
C952 C949 1.499 . S
C952 C953 1.373 1_566 S
C952 C954 1.389 . S
C953 H932 0.950 . S
C953 C952 1.373 1_544 S
C953 C969 1.377 . S
C954 C952 1.389 . S
C954 C955 1.524 . S
C954 C968 1.377 . S
C955 C954 1.524 . S
C955 C956 1.397 . S
C955 C960 1.363 . S
C956 H933 0.950 . S
C956 C955 1.397 . S
C956 C957 1.334 . S
C957 H934 0.950 . S
C957 C956 1.334 . S
C957 C958 1.287 . S
C958 C957 1.287 . S
C958 C959 1.524 . S
C958 H977 0.913 . S
C959 H935 0.950 . S
C959 C958 1.524 . S
C959 C960 1.415 . S
C960 H936 0.950 . S
C960 C955 1.363 . S
C960 C959 1.415 . S
C961 H937 0.951 . S
C961 C962 1.366 . S
C961 C963 1.388 . S
C962 C961 1.366 . S
C962 C966 1.385 . S
C963 H938 0.951 . S
C963 C961 1.388 . S
C963 C964 1.366 . S
C964 C963 1.366 . S
C964 C965 1.414 . S
C964 C967 1.499 . S
C965 H939 0.950 . S
C965 C964 1.414 . S
C965 C966 1.374 . S
C966 H940 0.950 . S
C966 C962 1.385 . S
C966 C965 1.374 . S
C967 C964 1.499 . S
C967 C968 1.373 1_544 S
C967 C969 1.389 . S
C968 H941 0.950 . S
C968 C954 1.377 . S
C968 C967 1.373 1_566 S
C969 C953 1.377 . S
C969 C967 1.389 . S
C969 C970 1.524 . S
C970 C969 1.524 . S
C970 C971 1.397 . S
C970 C975 1.363 . S
C971 H942 0.950 . S
C971 C970 1.397 . S
C971 C972 1.334 . S
C972 H943 0.950 . S
C972 C971 1.334 . S
C972 C973 1.287 . S
C973 C972 1.287 . S
C973 C974 1.524 . S
C973 H976 0.999 . S
C974 H944 0.950 . S
C974 C973 1.524 . S
C974 C975 1.415 . S
C975 H945 0.950 . S
C975 C970 1.363 . S
C975 C974 1.415 . S
H976 C973 0.999 . S
H977 C958 0.913 . S
H978 C996 0.951 . S
H979 C998 0.951 . S
H980 C1000 0.950 . S
H981 C1001 0.950 . S
H982 C1003 0.950 . S
H983 C1006 0.950 . S
H984 C1007 0.950 . S
H985 C1009 0.950 1_554 S
H986 C1010 0.950 . S
H987 C1011 0.951 . S
H988 C1013 0.951 . S
H989 C1015 0.950 . S
H990 C1016 0.950 . S
H991 C1018 0.950 . S
H992 C1021 0.950 . S
H993 C1022 0.950 . S
H994 C1024 0.950 1_556 S
H995 C1025 0.950 . S
C996 H978 0.951 . S
C996 C997 1.366 . S
C996 C998 1.388 . S
C997 C996 1.366 . S
C997 C1001 1.385 . S
C998 H979 0.951 . S
C998 C996 1.388 . S
C998 C999 1.366 . S
C999 C998 1.366 . S
C999 C1000 1.414 . S
C999 C1002 1.499 . S
C1000 H980 0.950 . S
C1000 C999 1.414 . S
C1000 C1001 1.374 . S
C1001 H981 0.950 . S
C1001 C997 1.385 . S
C1001 C1000 1.374 . S
C1002 C999 1.499 . S
C1002 C1003 1.373 . S
C1002 C1004 1.389 . S
C1003 H982 0.950 . S
C1003 C1002 1.373 . S
C1003 C1019 1.377 1_556 S
C1004 C1002 1.389 . S
C1004 C1005 1.524 . S
C1004 C1018 1.377 1_556 S
C1005 C1004 1.524 . S
C1005 C1006 1.397 . S
C1005 C1010 1.363 1_556 S
C1006 H983 0.950 . S
C1006 C1005 1.397 . S
C1006 C1007 1.334 . S
C1007 H984 0.950 . S
C1007 C1006 1.334 . S
C1007 C1008 1.287 . S
C1008 C1007 1.287 . S
C1008 C1009 1.524 . S
C1008 H1027 0.913 . S
C1009 H985 0.950 1_556 S
C1009 C1008 1.524 . S
C1009 C1010 1.415 1_556 S
C1010 H986 0.950 . S
C1010 C1005 1.363 1_554 S
C1010 C1009 1.415 1_554 S
C1011 H987 0.951 . S
C1011 C1012 1.366 . S
C1011 C1013 1.388 . S
C1012 C1011 1.366 . S
C1012 C1016 1.385 . S
C1013 H988 0.951 . S
C1013 C1011 1.388 . S
C1013 C1014 1.366 . S
C1014 C1013 1.366 . S
C1014 C1015 1.414 . S
C1014 C1017 1.499 . S
C1015 H989 0.950 . S
C1015 C1014 1.414 . S
C1015 C1016 1.374 . S
C1016 H990 0.950 . S
C1016 C1012 1.385 . S
C1016 C1015 1.374 . S
C1017 C1014 1.499 . S
C1017 C1018 1.373 . S
C1017 C1019 1.389 . S
C1018 H991 0.950 . S
C1018 C1004 1.377 1_554 S
C1018 C1017 1.373 . S
C1019 C1003 1.377 1_554 S
C1019 C1017 1.389 . S
C1019 C1020 1.524 . S
C1020 C1019 1.524 . S
C1020 C1021 1.397 . S
C1020 C1025 1.363 1_554 S
C1021 H992 0.950 . S
C1021 C1020 1.397 . S
C1021 C1022 1.334 . S
C1022 H993 0.950 . S
C1022 C1021 1.334 . S
C1022 C1023 1.287 . S
C1023 C1022 1.287 . S
C1023 C1024 1.524 . S
C1023 H1026 0.999 . S
C1024 H994 0.950 1_554 S
C1024 C1023 1.524 . S
C1024 C1025 1.415 1_554 S
C1025 H995 0.950 . S
C1025 C1020 1.363 1_556 S
C1025 C1024 1.415 1_556 S
H1026 C1023 0.999 . S
H1027 C1008 0.913 . S
H1028 C1046 0.951 . S
H1029 C1048 0.951 . S
H1030 C1050 0.950 . S
H1031 C1051 0.950 . S
H1032 C1053 0.950 . S
H1033 C1056 0.950 . S
H1034 C1057 0.950 . S
H1035 C1059 0.950 . S
H1036 C1060 0.950 . S
H1037 C1061 0.951 . S
H1038 C1063 0.951 . S
H1039 C1065 0.950 . S
H1040 C1066 0.950 . S
H1041 C1068 0.950 . S
H1042 C1071 0.950 . S
H1043 C1072 0.950 . S
H1044 C1074 0.950 . S
H1045 C1075 0.950 . S
C1046 H1028 0.951 . S
C1046 C1047 1.366 . S
C1046 C1048 1.388 . S
C1047 C1046 1.366 . S
C1047 C1051 1.385 . S
C1048 H1029 0.951 . S
C1048 C1046 1.388 . S
C1048 C1049 1.366 . S
C1049 C1048 1.366 . S
C1049 C1050 1.414 . S
C1049 C1052 1.499 . S
C1050 H1030 0.950 . S
C1050 C1049 1.414 . S
C1050 C1051 1.374 . S
C1051 H1031 0.950 . S
C1051 C1047 1.385 . S
C1051 C1050 1.374 . S
C1052 C1049 1.499 . S
C1052 C1053 1.373 . S
C1052 C1054 1.389 . S
C1053 H1032 0.950 . S
C1053 C1052 1.373 . S
C1053 C1069 1.377 1_456 S
C1054 C1052 1.389 . S
C1054 C1055 1.524 . S
C1054 C1068 1.377 1_456 S
C1055 C1054 1.524 . S
C1055 C1056 1.397 . S
C1055 C1060 1.363 1_455 S
C1056 H1033 0.950 . S
C1056 C1055 1.397 . S
C1056 C1057 1.334 . S
C1057 H1034 0.950 . S
C1057 C1056 1.334 . S
C1057 C1058 1.287 . S
C1058 C1057 1.287 . S
C1058 C1059 1.524 1_455 S
C1058 H1077 0.913 . S
C1059 H1035 0.950 . S
C1059 C1058 1.524 1_655 S
C1059 C1060 1.415 . S
C1060 H1036 0.950 . S
C1060 C1055 1.363 1_655 S
C1060 C1059 1.415 . S
C1061 H1037 0.951 . S
C1061 C1062 1.366 . S
C1061 C1063 1.388 . S
C1062 C1061 1.366 . S
C1062 C1066 1.385 . S
C1063 H1038 0.951 . S
C1063 C1061 1.388 . S
C1063 C1064 1.366 . S
C1064 C1063 1.366 . S
C1064 C1065 1.414 . S
C1064 C1067 1.499 . S
C1065 H1039 0.950 . S
C1065 C1064 1.414 . S
C1065 C1066 1.374 . S
C1066 H1040 0.950 . S
C1066 C1062 1.385 . S
C1066 C1065 1.374 . S
C1067 C1064 1.499 . S
C1067 C1068 1.373 . S
C1067 C1069 1.389 . S
C1068 H1041 0.950 . S
C1068 C1054 1.377 1_654 S
C1068 C1067 1.373 . S
C1069 C1053 1.377 1_654 S
C1069 C1067 1.389 . S
C1069 C1070 1.524 . S
C1070 C1069 1.524 . S
C1070 C1071 1.397 . S
C1070 C1075 1.363 1_655 S
C1071 H1042 0.950 . S
C1071 C1070 1.397 . S
C1071 C1072 1.334 . S
C1072 H1043 0.950 . S
C1072 C1071 1.334 . S
C1072 C1073 1.287 . S
C1073 C1072 1.287 . S
C1073 C1074 1.524 1_655 S
C1073 H1076 0.999 . S
C1074 H1044 0.950 . S
C1074 C1073 1.524 1_455 S
C1074 C1075 1.415 . S
C1075 H1045 0.950 . S
C1075 C1070 1.363 1_455 S
C1075 C1074 1.415 . S
H1076 C1073 0.999 . S
H1077 C1058 0.913 . S
H1078 C1096 0.951 1_455 S
H1079 C1098 0.951 . S
H1080 C1100 0.950 . S
H1081 C1101 0.950 . S
H1082 C1103 0.952 . S
H1083 C1106 0.950 1_545 S
H1084 C1107 0.950 . S
H1085 C1109 0.950 1_455 S
H1086 C1110 0.950 . S
H1087 C1111 0.951 1_655 S
H1088 C1113 0.951 . S
H1089 C1115 0.950 . S
H1090 C1116 0.950 . S
H1091 C1118 0.952 . S
H1092 C1121 0.950 1_565 S
H1093 C1122 0.950 . S
H1094 C1124 0.950 1_655 S
H1095 C1125 0.950 . S
C1096 H1078 0.951 1_655 S
C1096 C1097 1.366 . S
C1096 C1098 1.388 1_655 S
C1097 C1096 1.366 . S
C1097 C1101 1.385 . S
C1098 H1079 0.951 . S
C1098 C1096 1.388 1_455 S
C1098 C1099 1.366 1_455 S
C1099 C1098 1.366 1_655 S
C1099 C1100 1.414 . S
C1099 C1102 1.499 . S
C1100 H1080 0.950 . S
C1100 C1099 1.414 . S
C1100 C1101 1.374 . S
C1101 H1081 0.950 . S
C1101 C1097 1.385 . S
C1101 C1100 1.374 . S
C1102 C1099 1.499 . S
C1102 C1103 1.381 1_556 S
C1102 C1104 1.389 1_545 S
C1103 H1082 0.952 . S
C1103 C1102 1.381 1_554 S
C1103 C1119 1.368 1_655 S
C1104 C1102 1.389 1_565 S
C1104 C1105 1.524 . S
C1104 C1118 1.368 1_655 S
C1105 C1104 1.524 . S
C1105 C1106 1.397 . S
C1105 C1110 1.363 1_655 S
C1106 H1083 0.950 1_565 S
C1106 C1105 1.397 . S
C1106 C1107 1.334 . S
C1107 H1084 0.950 . S
C1107 C1106 1.334 . S
C1107 C1108 1.287 . S
C1108 C1107 1.287 . S
C1108 C1109 1.524 . S
C1108 H1127 0.913 . S
C1109 H1085 0.950 1_655 S
C1109 C1108 1.524 . S
C1109 C1110 1.415 1_655 S
C1110 H1086 0.950 . S
C1110 C1105 1.363 1_455 S
C1110 C1109 1.415 1_455 S
C1111 H1087 0.951 1_455 S
C1111 C1112 1.366 . S
C1111 C1113 1.388 1_455 S
C1112 C1111 1.366 . S
C1112 C1116 1.385 . S
C1113 H1088 0.951 . S
C1113 C1111 1.388 1_655 S
C1113 C1114 1.366 1_655 S
C1114 C1113 1.366 1_455 S
C1114 C1115 1.414 . S
C1114 C1117 1.499 . S
C1115 H1089 0.950 . S
C1115 C1114 1.414 . S
C1115 C1116 1.374 . S
C1116 H1090 0.950 . S
C1116 C1112 1.385 . S
C1116 C1115 1.374 . S
C1117 C1114 1.499 . S
C1117 C1118 1.381 1_554 S
C1117 C1119 1.389 1_565 S
C1118 H1091 0.952 . S
C1118 C1104 1.368 1_455 S
C1118 C1117 1.381 1_556 S
C1119 C1103 1.368 1_455 S
C1119 C1117 1.389 1_545 S
C1119 C1120 1.524 . S
C1120 C1119 1.524 . S
C1120 C1121 1.397 . S
C1120 C1125 1.363 1_455 S
C1121 H1092 0.950 1_545 S
C1121 C1120 1.397 . S
C1121 C1122 1.334 . S
C1122 H1093 0.950 . S
C1122 C1121 1.334 . S
C1122 C1123 1.287 . S
C1123 C1122 1.287 . S
C1123 C1124 1.524 . S
C1123 H1126 0.999 . S
C1124 H1094 0.950 1_455 S
C1124 C1123 1.524 . S
C1124 C1125 1.415 1_455 S
C1125 H1095 0.950 . S
C1125 C1120 1.363 1_655 S
C1125 C1124 1.415 1_655 S
H1126 C1123 0.999 . S
H1127 C1108 0.913 . S
H1128 C1146 0.951 . S
H1129 C1148 0.951 . S
H1130 C1150 0.950 . S
H1131 C1151 0.950 . S
H1132 C1153 0.950 . S
H1133 C1156 0.950 . S
H1134 C1157 0.950 . S
H1135 C1159 0.950 . S
H1136 C1160 0.950 . S
H1137 C1161 0.951 . S
H1138 C1163 0.951 . S
H1139 C1165 0.950 . S
H1140 C1166 0.950 . S
H1141 C1168 0.950 . S
H1142 C1171 0.950 . S
H1143 C1172 0.950 . S
H1144 C1174 0.950 . S
H1145 C1175 0.950 . S
C1146 H1128 0.951 . S
C1146 C1147 1.366 . S
C1146 C1148 1.388 . S
C1147 C1146 1.366 . S
C1147 C1151 1.385 . S
C1148 H1129 0.951 . S
C1148 C1146 1.388 . S
C1148 C1149 1.366 . S
C1149 C1148 1.366 . S
C1149 C1150 1.414 . S
C1149 C1152 1.499 . S
C1150 H1130 0.950 . S
C1150 C1149 1.414 . S
C1150 C1151 1.374 . S
C1151 H1131 0.950 . S
C1151 C1147 1.385 . S
C1151 C1150 1.374 . S
C1152 C1149 1.499 . S
C1152 C1153 1.373 . S
C1152 C1154 1.389 . S
C1153 H1132 0.950 . S
C1153 C1152 1.373 . S
C1153 C1169 1.377 . S
C1154 C1152 1.389 . S
C1154 C1155 1.524 . S
C1154 C1168 1.377 . S
C1155 C1154 1.524 . S
C1155 C1156 1.397 . S
C1155 C1160 1.363 . S
C1156 H1133 0.950 . S
C1156 C1155 1.397 . S
C1156 C1157 1.334 . S
C1157 H1134 0.950 . S
C1157 C1156 1.334 . S
C1157 C1158 1.287 . S
C1158 C1157 1.287 . S
C1158 C1159 1.524 . S
C1158 H1177 0.913 . S
C1159 H1135 0.950 . S
C1159 C1158 1.524 . S
C1159 C1160 1.415 . S
C1160 H1136 0.950 . S
C1160 C1155 1.363 . S
C1160 C1159 1.415 . S
C1161 H1137 0.951 . S
C1161 C1162 1.366 . S
C1161 C1163 1.388 . S
C1162 C1161 1.366 . S
C1162 C1166 1.385 . S
C1163 H1138 0.951 . S
C1163 C1161 1.388 . S
C1163 C1164 1.366 . S
C1164 C1163 1.366 . S
C1164 C1165 1.414 . S
C1164 C1167 1.499 . S
C1165 H1139 0.950 . S
C1165 C1164 1.414 . S
C1165 C1166 1.374 . S
C1166 H1140 0.950 . S
C1166 C1162 1.385 . S
C1166 C1165 1.374 . S
C1167 C1164 1.499 . S
C1167 C1168 1.373 . S
C1167 C1169 1.389 . S
C1168 H1141 0.950 . S
C1168 C1154 1.377 . S
C1168 C1167 1.373 . S
C1169 C1153 1.377 . S
C1169 C1167 1.389 . S
C1169 C1170 1.524 . S
C1170 C1169 1.524 . S
C1170 C1171 1.397 . S
C1170 C1175 1.363 . S
C1171 H1142 0.950 . S
C1171 C1170 1.397 . S
C1171 C1172 1.334 . S
C1172 H1143 0.950 . S
C1172 C1171 1.334 . S
C1172 C1173 1.287 . S
C1173 C1172 1.287 . S
C1173 C1174 1.524 . S
C1173 H1176 0.999 . S
C1174 H1144 0.950 . S
C1174 C1173 1.524 . S
C1174 C1175 1.415 . S
C1175 H1145 0.950 . S
C1175 C1170 1.363 . S
C1175 C1174 1.415 . S
H1176 C1173 0.999 . S
H1177 C1158 0.913 . S
H1178 C1196 0.951 . S
H1179 C1198 0.951 . S
H1180 C1200 0.950 . S
H1181 C1201 0.950 . S
H1182 C1203 0.950 . S
H1183 C1206 0.950 . S
H1184 C1207 0.950 . S
H1185 C1209 0.950 . S
H1186 C1210 0.950 . S
H1187 C1211 0.951 . S
H1188 C1213 0.951 . S
H1189 C1215 0.950 . S
H1190 C1216 0.950 . S
H1191 C1218 0.950 . S
H1192 C1221 0.950 . S
H1193 C1222 0.950 . S
H1194 C1224 0.950 . S
H1195 C1225 0.950 . S
C1196 H1178 0.951 . S
C1196 C1197 1.366 . S
C1196 C1198 1.388 . S
C1197 C1196 1.366 . S
C1197 C1201 1.385 1_655 S
C1198 H1179 0.951 . S
C1198 C1196 1.388 . S
C1198 C1199 1.366 . S
C1199 C1198 1.366 . S
C1199 C1200 1.414 1_655 S
C1199 C1202 1.499 . S
C1200 H1180 0.950 . S
C1200 C1199 1.414 1_455 S
C1200 C1201 1.374 . S
C1201 H1181 0.950 . S
C1201 C1197 1.385 1_455 S
C1201 C1200 1.374 . S
C1202 C1199 1.499 . S
C1202 C1203 1.373 1_655 S
C1202 C1204 1.389 . S
C1203 H1182 0.950 . S
C1203 C1202 1.373 1_455 S
C1203 C1219 1.377 . S
C1204 C1202 1.389 . S
C1204 C1205 1.524 . S
C1204 C1218 1.377 . S
C1205 C1204 1.524 . S
C1205 C1206 1.397 . S
C1205 C1210 1.363 . S
C1206 H1183 0.950 . S
C1206 C1205 1.397 . S
C1206 C1207 1.334 . S
C1207 H1184 0.950 . S
C1207 C1206 1.334 . S
C1207 C1208 1.287 . S
C1208 C1207 1.287 . S
C1208 C1209 1.524 . S
C1208 H1227 0.913 . S
C1209 H1185 0.950 . S
C1209 C1208 1.524 . S
C1209 C1210 1.415 . S
C1210 H1186 0.950 . S
C1210 C1205 1.363 . S
C1210 C1209 1.415 . S
C1211 H1187 0.951 . S
C1211 C1212 1.366 . S
C1211 C1213 1.388 . S
C1212 C1211 1.366 . S
C1212 C1216 1.385 1_455 S
C1213 H1188 0.951 . S
C1213 C1211 1.388 . S
C1213 C1214 1.366 . S
C1214 C1213 1.366 . S
C1214 C1215 1.414 1_455 S
C1214 C1217 1.499 . S
C1215 H1189 0.950 . S
C1215 C1214 1.414 1_655 S
C1215 C1216 1.374 . S
C1216 H1190 0.950 . S
C1216 C1212 1.385 1_655 S
C1216 C1215 1.374 . S
C1217 C1214 1.499 . S
C1217 C1218 1.373 1_455 S
C1217 C1219 1.389 . S
C1218 H1191 0.950 . S
C1218 C1204 1.377 . S
C1218 C1217 1.373 1_655 S
C1219 C1203 1.377 . S
C1219 C1217 1.389 . S
C1219 C1220 1.524 . S
C1220 C1219 1.524 . S
C1220 C1221 1.397 . S
C1220 C1225 1.363 . S
C1221 H1192 0.950 . S
C1221 C1220 1.397 . S
C1221 C1222 1.334 . S
C1222 H1193 0.950 . S
C1222 C1221 1.334 . S
C1222 C1223 1.287 . S
C1223 C1222 1.287 . S
C1223 C1224 1.524 . S
C1223 H1226 0.999 . S
C1224 H1194 0.950 . S
C1224 C1223 1.524 . S
C1224 C1225 1.415 . S
C1225 H1195 0.950 . S
C1225 C1220 1.363 . S
C1225 C1224 1.415 . S
H1226 C1223 0.999 . S
H1227 C1208 0.913 . S
H1228 C1246 0.951 . S
H1229 C1248 0.951 . S
H1230 C1250 0.950 . S
H1231 C1251 0.950 . S
H1232 C1253 0.950 . S
H1233 C1256 0.950 . S
H1234 C1257 0.950 . S
H1235 C1259 0.950 . S
H1236 C1260 0.950 . S
H1237 C1261 0.951 . S
H1238 C1263 0.951 . S
H1239 C1265 0.950 . S
H1240 C1266 0.950 . S
H1241 C1268 0.950 . S
H1242 C1271 0.950 . S
H1243 C1272 0.950 . S
H1244 C1274 0.950 . S
H1245 C1275 0.950 . S
C1246 H1228 0.951 . S
C1246 C1247 1.366 . S
C1246 C1248 1.388 . S
C1247 C1246 1.366 . S
C1247 C1251 1.385 . S
C1248 H1229 0.951 . S
C1248 C1246 1.388 . S
C1248 C1249 1.366 . S
C1249 C1248 1.366 . S
C1249 C1250 1.414 . S
C1249 C1252 1.499 . S
C1250 H1230 0.950 . S
C1250 C1249 1.414 . S
C1250 C1251 1.374 . S
C1251 H1231 0.950 . S
C1251 C1247 1.385 . S
C1251 C1250 1.374 . S
C1252 C1249 1.499 . S
C1252 C1253 1.373 . S
C1252 C1254 1.389 1_545 S
C1253 H1232 0.950 . S
C1253 C1252 1.373 . S
C1253 C1269 1.377 1_655 S
C1254 C1252 1.389 1_565 S
C1254 C1255 1.524 . S
C1254 C1268 1.377 1_655 S
C1255 C1254 1.524 . S
C1255 C1256 1.397 . S
C1255 C1260 1.363 1_655 S
C1256 H1233 0.950 . S
C1256 C1255 1.397 . S
C1256 C1257 1.334 . S
C1257 H1234 0.950 . S
C1257 C1256 1.334 . S
C1257 C1258 1.287 . S
C1258 C1257 1.287 . S
C1258 C1259 1.524 1_655 S
C1258 H1277 0.913 . S
C1259 H1235 0.950 . S
C1259 C1258 1.524 1_455 S
C1259 C1260 1.415 . S
C1260 H1236 0.950 . S
C1260 C1255 1.363 1_455 S
C1260 C1259 1.415 . S
C1261 H1237 0.951 . S
C1261 C1262 1.366 . S
C1261 C1263 1.388 . S
C1262 C1261 1.366 . S
C1262 C1266 1.385 . S
C1263 H1238 0.951 . S
C1263 C1261 1.388 . S
C1263 C1264 1.366 . S
C1264 C1263 1.366 . S
C1264 C1265 1.414 . S
C1264 C1267 1.499 . S
C1265 H1239 0.950 . S
C1265 C1264 1.414 . S
C1265 C1266 1.374 . S
C1266 H1240 0.950 . S
C1266 C1262 1.385 . S
C1266 C1265 1.374 . S
C1267 C1264 1.499 . S
C1267 C1268 1.373 . S
C1267 C1269 1.389 1_565 S
C1268 H1241 0.950 . S
C1268 C1254 1.377 1_455 S
C1268 C1267 1.373 . S
C1269 C1253 1.377 1_455 S
C1269 C1267 1.389 1_545 S
C1269 C1270 1.524 . S
C1270 C1269 1.524 . S
C1270 C1271 1.397 . S
C1270 C1275 1.363 1_455 S
C1271 H1242 0.950 . S
C1271 C1270 1.397 . S
C1271 C1272 1.334 . S
C1272 H1243 0.950 . S
C1272 C1271 1.334 . S
C1272 C1273 1.287 . S
C1273 C1272 1.287 . S
C1273 C1274 1.524 1_455 S
C1273 H1276 0.999 . S
C1274 H1244 0.950 . S
C1274 C1273 1.524 1_655 S
C1274 C1275 1.415 . S
C1275 H1245 0.950 . S
C1275 C1270 1.363 1_655 S
C1275 C1274 1.415 . S
H1276 C1273 0.999 . S
H1277 C1258 0.913 . S
H1278 C1296 0.951 . S
H1279 C1298 0.951 . S
H1280 C1300 0.950 . S
H1281 C1301 0.950 . S
H1282 C1303 0.952 . S
H1283 C1306 0.950 . S
H1284 C1307 0.950 . S
H1285 C1309 0.950 . S
H1286 C1310 0.950 . S
H1287 C1311 0.951 . S
H1288 C1313 0.951 . S
H1289 C1315 0.950 . S
H1290 C1316 0.950 . S
H1291 C1318 0.952 . S
H1292 C1321 0.950 . S
H1293 C1322 0.950 . S
H1294 C1324 0.950 . S
H1295 C1325 0.950 . S
C1296 H1278 0.951 . S
C1296 C1297 1.366 . S
C1296 C1298 1.388 . S
C1297 C1296 1.366 . S
C1297 C1301 1.385 . S
C1298 H1279 0.951 . S
C1298 C1296 1.388 . S
C1298 C1299 1.366 . S
C1299 C1298 1.366 . S
C1299 C1300 1.414 . S
C1299 C1302 1.499 . S
C1300 H1280 0.950 . S
C1300 C1299 1.414 . S
C1300 C1301 1.374 . S
C1301 H1281 0.950 . S
C1301 C1297 1.385 . S
C1301 C1300 1.374 . S
C1302 C1299 1.499 . S
C1302 C1303 1.352 1_565 S
C1302 C1304 1.389 . S
C1303 H1282 0.952 . S
C1303 C1302 1.352 1_545 S
C1303 C1319 1.397 . S
C1304 C1302 1.389 . S
C1304 C1305 1.524 . S
C1304 C1318 1.397 . S
C1305 C1304 1.524 . S
C1305 C1306 1.397 . S
C1305 C1310 1.363 . S
C1306 H1283 0.950 . S
C1306 C1305 1.397 . S
C1306 C1307 1.334 . S
C1307 H1284 0.950 . S
C1307 C1306 1.334 . S
C1307 C1308 1.287 . S
C1308 C1307 1.287 . S
C1308 C1309 1.524 . S
C1308 H1327 0.913 . S
C1309 H1285 0.950 . S
C1309 C1308 1.524 . S
C1309 C1310 1.415 . S
C1310 H1286 0.950 . S
C1310 C1305 1.363 . S
C1310 C1309 1.415 . S
C1311 H1287 0.951 . S
C1311 C1312 1.366 . S
C1311 C1313 1.388 . S
C1312 C1311 1.366 . S
C1312 C1316 1.385 . S
C1313 H1288 0.951 . S
C1313 C1311 1.388 . S
C1313 C1314 1.366 . S
C1314 C1313 1.366 . S
C1314 C1315 1.414 . S
C1314 C1317 1.499 . S
C1315 H1289 0.950 . S
C1315 C1314 1.414 . S
C1315 C1316 1.374 . S
C1316 H1290 0.950 . S
C1316 C1312 1.385 . S
C1316 C1315 1.374 . S
C1317 C1314 1.499 . S
C1317 C1318 1.352 1_545 S
C1317 C1319 1.389 . S
C1318 H1291 0.952 . S
C1318 C1304 1.397 . S
C1318 C1317 1.352 1_565 S
C1319 C1303 1.397 . S
C1319 C1317 1.389 . S
C1319 C1320 1.524 . S
C1320 C1319 1.524 . S
C1320 C1321 1.397 . S
C1320 C1325 1.363 . S
C1321 H1292 0.950 . S
C1321 C1320 1.397 . S
C1321 C1322 1.334 . S
C1322 H1293 0.950 . S
C1322 C1321 1.334 . S
C1322 C1323 1.287 . S
C1323 C1322 1.287 . S
C1323 C1324 1.524 . S
C1323 H1326 0.999 . S
C1324 H1294 0.950 . S
C1324 C1323 1.524 . S
C1324 C1325 1.415 . S
C1325 H1295 0.950 . S
C1325 C1320 1.363 . S
C1325 C1324 1.415 . S
H1326 C1323 0.999 . S
H1327 C1308 0.913 . S
H1328 C1346 0.951 . S
H1329 C1348 0.951 . S
H1330 C1350 0.950 . S
H1331 C1351 0.950 . S
H1332 C1353 0.950 . S
H1333 C1356 0.950 . S
H1334 C1357 0.950 . S
H1335 C1359 0.950 . S
H1336 C1360 0.950 . S
H1337 C1361 0.951 . S
H1338 C1363 0.951 . S
H1339 C1365 0.950 . S
H1340 C1366 0.950 . S
H1341 C1368 0.950 . S
H1342 C1371 0.949 . S
H1343 C1372 0.950 . S
H1344 C1374 0.950 . S
H1345 C1375 0.950 . S
C1346 H1328 0.951 . S
C1346 C1347 1.366 . S
C1346 C1348 1.388 . S
C1347 C1346 1.366 . S
C1347 C1351 1.385 . S
C1348 H1329 0.951 . S
C1348 C1346 1.388 . S
C1348 C1349 1.366 . S
C1349 C1348 1.366 . S
C1349 C1350 1.414 . S
C1349 C1352 1.520 . S
C1350 H1330 0.950 . S
C1350 C1349 1.414 . S
C1350 C1351 1.374 . S
C1351 H1331 0.950 . S
C1351 C1347 1.385 . S
C1351 C1350 1.374 . S
C1352 C1349 1.520 . S
C1352 C1353 1.377 . S
C1352 C1354 1.366 1_556 S
C1353 H1332 0.950 . S
C1353 C1352 1.377 . S
C1353 C1369 1.377 1_556 S
C1354 C1352 1.366 1_554 S
C1354 C1355 1.524 . S
C1354 C1368 1.377 . S
C1355 C1354 1.524 . S
C1355 C1356 1.397 . S
C1355 C1360 1.363 . S
C1356 H1333 0.950 . S
C1356 C1355 1.397 . S
C1356 C1357 1.334 . S
C1357 H1334 0.950 . S
C1357 C1356 1.334 . S
C1357 C1358 1.287 . S
C1358 C1357 1.287 . S
C1358 C1359 1.524 . S
C1358 H1377 0.913 . S
C1359 H1335 0.950 . S
C1359 C1358 1.524 . S
C1359 C1360 1.415 . S
C1360 H1336 0.950 . S
C1360 C1355 1.363 . S
C1360 C1359 1.415 . S
C1361 H1337 0.951 . S
C1361 C1362 1.366 . S
C1361 C1363 1.388 . S
C1362 C1361 1.366 . S
C1362 C1366 1.385 . S
C1363 H1338 0.951 . S
C1363 C1361 1.388 . S
C1363 C1364 1.366 . S
C1364 C1363 1.366 . S
C1364 C1365 1.414 . S
C1364 C1367 1.499 . S
C1365 H1339 0.950 . S
C1365 C1364 1.414 . S
C1365 C1366 1.374 . S
C1366 H1340 0.950 . S
C1366 C1362 1.385 . S
C1366 C1365 1.374 . S
C1367 C1364 1.499 . S
C1367 C1368 1.373 . S
C1367 C1369 1.389 . S
C1368 H1341 0.950 . S
C1368 C1354 1.377 . S
C1368 C1367 1.373 . S
C1369 C1353 1.377 1_554 S
C1369 C1367 1.389 . S
C1369 C1370 1.524 . S
C1370 C1369 1.524 . S
C1370 C1371 1.398 . S
C1370 C1375 1.363 . S
C1371 H1342 0.949 . S
C1371 C1370 1.398 . S
C1371 C1372 1.333 1_554 S
C1372 H1343 0.950 . S
C1372 C1371 1.333 1_556 S
C1372 C1373 1.287 . S
C1373 C1372 1.287 . S
C1373 C1374 1.524 . S
C1373 H1376 0.999 . S
C1374 H1344 0.950 . S
C1374 C1373 1.524 . S
C1374 C1375 1.415 1_556 S
C1375 H1345 0.950 . S
C1375 C1370 1.363 . S
C1375 C1374 1.415 1_554 S
H1376 C1373 0.999 . S
H1377 C1358 0.913 . S
H1378 C1396 0.951 . S
H1379 C1398 0.951 . S
H1380 C1400 0.950 1_554 S
H1381 C1401 0.950 . S
H1382 C1403 0.950 . S
H1383 C1406 0.950 . S
H1384 C1407 0.950 . S
H1385 C1409 0.950 . S
H1386 C1410 0.950 . S
H1387 C1411 0.951 . S
H1388 C1413 0.951 . S
H1389 C1415 0.950 . S
H1390 C1416 0.950 . S
H1391 C1418 0.950 . S
H1392 C1421 0.950 . S
H1393 C1422 0.950 . S
H1394 C1424 0.950 . S
H1395 C1425 0.950 . S
C1396 H1378 0.951 . S
C1396 C1397 1.366 . S
C1396 C1398 1.388 . S
C1397 C1396 1.366 . S
C1397 C1401 1.385 . S
C1398 H1379 0.951 . S
C1398 C1396 1.388 . S
C1398 C1399 1.366 . S
C1399 C1398 1.366 . S
C1399 C1400 1.414 . S
C1399 C1402 1.499 . S
C1400 H1380 0.950 1_556 S
C1400 C1399 1.414 . S
C1400 C1401 1.374 . S
C1401 H1381 0.950 . S
C1401 C1397 1.385 . S
C1401 C1400 1.374 . S
C1402 C1399 1.499 . S
C1402 C1403 1.373 1_556 S
C1402 C1404 1.389 . S
C1403 H1382 0.950 . S
C1403 C1402 1.373 1_554 S
C1403 C1419 1.377 . S
C1404 C1402 1.389 . S
C1404 C1405 1.524 . S
C1404 C1418 1.377 1_556 S
C1405 C1404 1.524 . S
C1405 C1406 1.397 . S
C1405 C1410 1.363 . S
C1406 H1383 0.950 . S
C1406 C1405 1.397 . S
C1406 C1407 1.334 . S
C1407 H1384 0.950 . S
C1407 C1406 1.334 . S
C1407 C1408 1.287 . S
C1408 C1407 1.287 . S
C1408 C1409 1.524 . S
C1408 H1427 0.913 . S
C1409 H1385 0.950 . S
C1409 C1408 1.524 . S
C1409 C1410 1.415 . S
C1410 H1386 0.950 . S
C1410 C1405 1.363 . S
C1410 C1409 1.415 . S
C1411 H1387 0.951 . S
C1411 C1412 1.366 . S
C1411 C1413 1.388 . S
C1412 C1411 1.366 . S
C1412 C1416 1.385 . S
C1413 H1388 0.951 . S
C1413 C1411 1.388 . S
C1413 C1414 1.366 . S
C1414 C1413 1.366 . S
C1414 C1415 1.414 . S
C1414 C1417 1.499 . S
C1415 H1389 0.950 . S
C1415 C1414 1.414 . S
C1415 C1416 1.374 . S
C1416 H1390 0.950 . S
C1416 C1412 1.385 . S
C1416 C1415 1.374 . S
C1417 C1414 1.499 . S
C1417 C1418 1.373 . S
C1417 C1419 1.389 . S
C1418 H1391 0.950 . S
C1418 C1404 1.377 1_554 S
C1418 C1417 1.373 . S
C1419 C1403 1.377 . S
C1419 C1417 1.389 . S
C1419 C1420 1.524 . S
C1420 C1419 1.524 . S
C1420 C1421 1.397 . S
C1420 C1425 1.363 . S
C1421 H1392 0.950 . S
C1421 C1420 1.397 . S
C1421 C1422 1.334 . S
C1422 H1393 0.950 . S
C1422 C1421 1.334 . S
C1422 C1423 1.287 . S
C1423 C1422 1.287 . S
C1423 C1424 1.524 . S
C1423 H1426 0.999 . S
C1424 H1394 0.950 . S
C1424 C1423 1.524 . S
C1424 C1425 1.415 . S
C1425 H1395 0.950 . S
C1425 C1420 1.363 . S
C1425 C1424 1.415 . S
H1426 C1423 0.999 . S
H1427 C1408 0.913 . S
H1428 C1446 0.951 . S
H1429 C1448 0.951 . S
H1430 C1450 0.950 . S
H1431 C1451 0.950 . S
H1432 C1453 0.950 . S
H1433 C1456 0.950 . S
H1434 C1457 0.950 . S
H1435 C1459 0.950 . S
H1436 C1460 0.914 1_554 S
H1437 C1461 0.951 . S
H1438 C1463 0.951 . S
H1439 C1465 0.950 . S
H1440 C1466 0.950 . S
H1441 C1468 0.950 . S
H1442 C1471 0.950 . S
H1443 C1472 0.950 . S
H1444 C1474 0.950 1_455 S
H1445 C1475 0.950 . S
C1446 H1428 0.951 . S
C1446 C1447 1.366 . S
C1446 C1448 1.388 . S
C1447 C1446 1.366 . S
C1447 C1451 1.385 . S
C1448 H1429 0.951 . S
C1448 C1446 1.388 . S
C1448 C1449 1.366 . S
C1449 C1448 1.366 . S
C1449 C1450 1.414 . S
C1449 C1452 1.499 . S
C1450 H1430 0.950 . S
C1450 C1449 1.414 . S
C1450 C1451 1.374 . S
C1451 H1431 0.950 . S
C1451 C1447 1.385 . S
C1451 C1450 1.374 . S
C1452 C1449 1.499 . S
C1452 C1453 1.373 1_556 S
C1452 C1454 1.389 . S
C1453 H1432 0.950 . S
C1453 C1452 1.373 1_554 S
C1453 C1469 1.377 . S
C1454 C1452 1.389 . S
C1454 C1455 1.524 . S
C1454 C1468 1.377 1_556 S
C1455 C1454 1.524 . S
C1455 C1456 1.397 . S
C1455 C1460 1.363 . S
C1456 H1433 0.950 . S
C1456 C1455 1.397 . S
C1456 C1457 1.334 . S
C1457 H1434 0.950 . S
C1457 C1456 1.334 . S
C1457 C1458 1.287 . S
C1458 C1457 1.287 . S
C1458 C1459 1.524 . S
C1458 H1477 0.913 . S
C1459 H1435 0.950 . S
C1459 C1458 1.524 . S
C1459 C1460 1.415 . S
C1460 H1436 0.914 1_556 S
C1460 C1455 1.363 . S
C1460 C1459 1.415 . S
C1461 H1437 0.951 . S
C1461 C1462 1.366 . S
C1461 C1463 1.388 . S
C1462 C1461 1.366 . S
C1462 C1466 1.385 . S
C1463 H1438 0.951 . S
C1463 C1461 1.388 . S
C1463 C1464 1.366 . S
C1464 C1463 1.366 . S
C1464 C1465 1.414 . S
C1464 C1467 1.499 . S
C1465 H1439 0.950 . S
C1465 C1464 1.414 . S
C1465 C1466 1.374 . S
C1466 H1440 0.950 . S
C1466 C1462 1.385 . S
C1466 C1465 1.374 . S
C1467 C1464 1.499 . S
C1467 C1468 1.373 . S
C1467 C1469 1.389 . S
C1468 H1441 0.950 . S
C1468 C1454 1.377 1_554 S
C1468 C1467 1.373 . S
C1469 C1453 1.377 . S
C1469 C1467 1.389 . S
C1469 C1470 1.524 . S
C1470 C1469 1.524 . S
C1470 C1471 1.397 . S
C1470 C1475 1.363 . S
C1471 H1442 0.950 . S
C1471 C1470 1.397 . S
C1471 C1472 1.334 . S
C1472 H1443 0.950 . S
C1472 C1471 1.334 . S
C1472 C1473 1.287 . S
C1473 C1472 1.287 . S
C1473 C1474 1.524 . S
C1473 H1476 0.999 . S
C1474 H1444 0.950 1_655 S
C1474 C1473 1.524 . S
C1474 C1475 1.415 . S
C1475 H1445 0.950 . S
C1475 C1470 1.363 . S
C1475 C1474 1.415 . S
H1476 C1473 0.999 . S
H1477 C1458 0.913 . S
H1478 C1496 0.951 . S
H1479 C1498 0.951 . S
H1480 C1500 0.950 . S
H1481 C1501 0.950 . S
H1482 C1503 0.950 . S
H1483 C1506 0.950 . S
H1484 C1507 0.950 . S
H1485 C1509 0.950 . S
H1486 C1510 0.950 . S
H1487 C1511 0.951 . S
H1488 C1513 0.951 . S
H1489 C1515 0.950 . S
H1490 C1516 0.950 . S
H1491 C1518 0.950 . S
H1492 C1521 0.950 . S
H1493 C1522 0.950 . S
H1494 C1524 0.950 . S
H1495 C1525 0.950 . S
C1496 H1478 0.951 . S
C1496 C1497 1.366 . S
C1496 C1498 1.388 . S
C1497 C1496 1.366 . S
C1497 C1501 1.385 . S
C1498 H1479 0.951 . S
C1498 C1496 1.388 . S
C1498 C1499 1.366 . S
C1499 C1498 1.366 . S
C1499 C1500 1.414 . S
C1499 C1502 1.499 . S
C1500 H1480 0.950 . S
C1500 C1499 1.414 . S
C1500 C1501 1.374 . S
C1501 H1481 0.950 . S
C1501 C1497 1.385 . S
C1501 C1500 1.374 . S
C1502 C1499 1.499 . S
C1502 C1503 1.373 1_556 S
C1502 C1504 1.389 . S
C1503 H1482 0.950 . S
C1503 C1502 1.373 1_554 S
C1503 C1519 1.377 . S
C1504 C1502 1.389 . S
C1504 C1505 1.524 . S
C1504 C1518 1.377 1_556 S
C1505 C1504 1.524 . S
C1505 C1506 1.397 . S
C1505 C1510 1.363 . S
C1506 H1483 0.950 . S
C1506 C1505 1.397 . S
C1506 C1507 1.334 . S
C1507 H1484 0.950 . S
C1507 C1506 1.334 . S
C1507 C1508 1.287 . S
C1508 C1507 1.287 . S
C1508 C1509 1.524 . S
C1508 H1527 0.913 . S
C1509 H1485 0.950 . S
C1509 C1508 1.524 . S
C1509 C1510 1.415 . S
C1510 H1486 0.950 . S
C1510 C1505 1.363 . S
C1510 C1509 1.415 . S
C1511 H1487 0.951 . S
C1511 C1512 1.366 . S
C1511 C1513 1.388 . S
C1512 C1511 1.366 . S
C1512 C1516 1.385 . S
C1513 H1488 0.951 . S
C1513 C1511 1.388 . S
C1513 C1514 1.366 . S
C1514 C1513 1.366 . S
C1514 C1515 1.414 . S
C1514 C1517 1.499 . S
C1515 H1489 0.950 . S
C1515 C1514 1.414 . S
C1515 C1516 1.374 . S
C1516 H1490 0.950 . S
C1516 C1512 1.385 . S
C1516 C1515 1.374 . S
C1517 C1514 1.499 . S
C1517 C1518 1.373 . S
C1517 C1519 1.389 . S
C1518 H1491 0.950 . S
C1518 C1504 1.377 1_554 S
C1518 C1517 1.373 . S
C1519 C1503 1.377 . S
C1519 C1517 1.389 . S
C1519 C1520 1.524 . S
C1520 C1519 1.524 . S
C1520 C1521 1.397 . S
C1520 C1525 1.363 . S
C1521 H1492 0.950 . S
C1521 C1520 1.397 . S
C1521 C1522 1.334 . S
C1522 H1493 0.950 . S
C1522 C1521 1.334 . S
C1522 C1523 1.287 . S
C1523 C1522 1.287 . S
C1523 C1524 1.524 . S
C1523 H1526 0.999 . S
C1524 H1494 0.950 . S
C1524 C1523 1.524 . S
C1524 C1525 1.415 . S
C1525 H1495 0.950 . S
C1525 C1520 1.363 . S
C1525 C1524 1.415 . S
H1526 C1523 0.999 . S
H1527 C1508 0.913 . S
H1528 C1546 0.951 . S
H1529 C1548 0.951 . S
H1530 C1550 0.950 . S
H1531 C1551 0.950 . S
H1532 C1553 0.950 . S
H1533 C1556 0.950 . S
H1534 C1557 0.950 . S
H1535 C1559 0.950 . S
H1536 C1560 0.950 . S
H1537 C1561 0.951 . S
H1538 C1563 0.951 . S
H1539 C1565 0.950 . S
H1540 C1566 0.950 . S
H1541 C1568 0.950 . S
H1542 C1571 0.950 . S
H1543 C1572 0.950 . S
H1544 C1574 0.950 . S
H1545 C1575 0.950 . S
C1546 H1528 0.951 . S
C1546 C1547 1.366 . S
C1546 C1548 1.388 . S
C1547 C1546 1.366 . S
C1547 C1551 1.385 . S
C1548 H1529 0.951 . S
C1548 C1546 1.388 . S
C1548 C1549 1.366 . S
C1549 C1548 1.366 . S
C1549 C1550 1.414 . S
C1549 C1552 1.499 . S
C1550 H1530 0.950 . S
C1550 C1549 1.414 . S
C1550 C1551 1.374 . S
C1551 H1531 0.950 . S
C1551 C1547 1.385 . S
C1551 C1550 1.374 . S
C1552 C1549 1.499 . S
C1552 C1553 1.373 . S
C1552 C1554 1.389 . S
C1553 H1532 0.950 . S
C1553 C1552 1.373 . S
C1553 C1569 1.377 . S
C1554 C1552 1.389 . S
C1554 C1555 1.524 . S
C1554 C1568 1.377 . S
C1555 C1554 1.524 . S
C1555 C1556 1.397 . S
C1555 C1560 1.363 . S
C1556 H1533 0.950 . S
C1556 C1555 1.397 . S
C1556 C1557 1.334 . S
C1557 H1534 0.950 . S
C1557 C1556 1.334 . S
C1557 C1558 1.287 . S
C1558 C1557 1.287 . S
C1558 C1559 1.524 . S
C1558 H1577 0.913 . S
C1559 H1535 0.950 . S
C1559 C1558 1.524 . S
C1559 C1560 1.415 . S
C1560 H1536 0.950 . S
C1560 C1555 1.363 . S
C1560 C1559 1.415 . S
C1561 H1537 0.951 . S
C1561 C1562 1.366 . S
C1561 C1563 1.388 . S
C1562 C1561 1.366 . S
C1562 C1566 1.385 . S
C1563 H1538 0.951 . S
C1563 C1561 1.388 . S
C1563 C1564 1.366 . S
C1564 C1563 1.366 . S
C1564 C1565 1.414 . S
C1564 C1567 1.499 . S
C1565 H1539 0.950 . S
C1565 C1564 1.414 . S
C1565 C1566 1.374 . S
C1566 H1540 0.950 . S
C1566 C1562 1.385 . S
C1566 C1565 1.374 . S
C1567 C1564 1.499 . S
C1567 C1568 1.373 . S
C1567 C1569 1.389 . S
C1568 H1541 0.950 . S
C1568 C1554 1.377 . S
C1568 C1567 1.373 . S
C1569 C1553 1.377 . S
C1569 C1567 1.389 . S
C1569 C1570 1.524 . S
C1570 C1569 1.524 . S
C1570 C1571 1.397 . S
C1570 C1575 1.363 . S
C1571 H1542 0.950 . S
C1571 C1570 1.397 . S
C1571 C1572 1.334 . S
C1572 H1543 0.950 . S
C1572 C1571 1.334 . S
C1572 C1573 1.287 . S
C1573 C1572 1.287 . S
C1573 C1574 1.524 . S
C1573 H1576 0.999 . S
C1574 H1544 0.950 . S
C1574 C1573 1.524 . S
C1574 C1575 1.415 . S
C1575 H1545 0.950 . S
C1575 C1570 1.363 . S
C1575 C1574 1.415 . S
H1576 C1573 0.999 . S
H1577 C1558 0.913 . S
H1578 C1596 0.951 . S
H1579 C1598 0.951 . S
H1580 C1600 0.950 . S
H1581 C1601 0.950 . S
H1582 C1603 0.950 . S
H1583 C1606 0.950 . S
H1584 C1607 0.950 . S
H1585 C1609 0.950 . S
H1586 C1610 0.950 . S
H1587 C1611 0.951 . S
H1588 C1613 0.951 . S
H1589 C1615 0.950 . S
H1590 C1616 0.950 . S
H1591 C1618 0.950 . S
H1592 C1621 0.950 . S
H1593 C1622 0.950 . S
H1594 C1624 0.950 . S
H1595 C1625 0.950 . S
C1596 H1578 0.951 . S
C1596 C1597 1.366 . S
C1596 C1598 1.388 . S
C1597 C1596 1.366 . S
C1597 C1601 1.385 . S
C1598 H1579 0.951 . S
C1598 C1596 1.388 . S
C1598 C1599 1.366 . S
C1599 C1598 1.366 . S
C1599 C1600 1.414 . S
C1599 C1602 1.499 . S
C1600 H1580 0.950 . S
C1600 C1599 1.414 . S
C1600 C1601 1.374 . S
C1601 H1581 0.950 . S
C1601 C1597 1.385 . S
C1601 C1600 1.374 . S
C1602 C1599 1.499 . S
C1602 C1603 1.373 . S
C1602 C1604 1.389 . S
C1603 H1582 0.950 . S
C1603 C1602 1.373 . S
C1603 C1619 1.377 . S
C1604 C1602 1.389 . S
C1604 C1605 1.524 . S
C1604 C1618 1.377 . S
C1605 C1604 1.524 . S
C1605 C1606 1.397 . S
C1605 C1610 1.363 . S
C1606 H1583 0.950 . S
C1606 C1605 1.397 . S
C1606 C1607 1.334 . S
C1607 H1584 0.950 . S
C1607 C1606 1.334 . S
C1607 C1608 1.287 . S
C1608 C1607 1.287 . S
C1608 C1609 1.524 . S
C1608 H1627 0.913 . S
C1609 H1585 0.950 . S
C1609 C1608 1.524 . S
C1609 C1610 1.415 . S
C1610 H1586 0.950 . S
C1610 C1605 1.363 . S
C1610 C1609 1.415 . S
C1611 H1587 0.951 . S
C1611 C1612 1.366 . S
C1611 C1613 1.388 . S
C1612 C1611 1.366 . S
C1612 C1616 1.385 . S
C1613 H1588 0.951 . S
C1613 C1611 1.388 . S
C1613 C1614 1.366 . S
C1614 C1613 1.366 . S
C1614 C1615 1.414 . S
C1614 C1617 1.499 . S
C1615 H1589 0.950 . S
C1615 C1614 1.414 . S
C1615 C1616 1.374 . S
C1616 H1590 0.950 . S
C1616 C1612 1.385 . S
C1616 C1615 1.374 . S
C1617 C1614 1.499 . S
C1617 C1618 1.373 . S
C1617 C1619 1.389 . S
C1618 H1591 0.950 . S
C1618 C1604 1.377 . S
C1618 C1617 1.373 . S
C1619 C1603 1.377 . S
C1619 C1617 1.389 . S
C1619 C1620 1.524 . S
C1620 C1619 1.524 . S
C1620 C1621 1.397 . S
C1620 C1625 1.363 . S
C1621 H1592 0.950 . S
C1621 C1620 1.397 . S
C1621 C1622 1.334 . S
C1622 H1593 0.950 . S
C1622 C1621 1.334 . S
C1622 C1623 1.287 . S
C1623 C1622 1.287 . S
C1623 C1624 1.524 . S
C1623 H1626 0.999 . S
C1624 H1594 0.950 . S
C1624 C1623 1.524 . S
C1624 C1625 1.415 . S
C1625 H1595 0.950 . S
C1625 C1620 1.363 . S
C1625 C1624 1.415 . S
H1626 C1623 0.999 . S
H1627 C1608 0.913 . S
H1628 C1646 0.951 . S
H1629 C1648 0.951 . S
H1630 C1650 0.950 . S
H1631 C1651 0.950 . S
H1632 C1653 0.950 . S
H1633 C1656 0.950 . S
H1634 C1657 0.950 . S
H1635 C1659 0.956 . S
H1636 C1660 0.950 . S
H1637 C1661 0.951 . S
H1638 C1663 0.951 . S
H1639 C1665 0.950 . S
H1640 C1666 0.950 . S
H1641 C1668 0.950 . S
H1642 C1671 0.950 . S
H1643 C1672 0.950 . S
H1644 C1674 0.950 . S
H1645 C1675 0.950 . S
C1646 H1628 0.951 . S
C1646 C1647 1.366 . S
C1646 C1648 1.388 . S
C1647 C1646 1.366 . S
C1647 C1651 1.385 . S
C1648 H1629 0.951 . S
C1648 C1646 1.388 . S
C1648 C1649 1.366 . S
C1649 C1648 1.366 . S
C1649 C1650 1.414 . S
C1649 C1652 1.499 . S
C1650 H1630 0.950 . S
C1650 C1649 1.414 . S
C1650 C1651 1.374 . S
C1651 H1631 0.950 . S
C1651 C1647 1.385 . S
C1651 C1650 1.374 . S
C1652 C1649 1.499 . S
C1652 C1653 1.373 . S
C1652 C1654 1.389 . S
C1653 H1632 0.950 . S
C1653 C1652 1.373 . S
C1653 C1669 1.377 . S
C1654 C1652 1.389 . S
C1654 C1655 1.524 . S
C1654 C1668 1.377 . S
C1655 C1654 1.524 . S
C1655 C1656 1.397 . S
C1655 C1660 1.363 . S
C1656 H1633 0.950 . S
C1656 C1655 1.397 . S
C1656 C1657 1.334 . S
C1657 H1634 0.950 . S
C1657 C1656 1.334 . S
C1657 C1658 1.287 . S
C1658 C1657 1.287 . S
C1658 C1659 1.524 . S
C1658 H1677 0.913 . S
C1659 H1635 0.956 . S
C1659 C1658 1.524 . S
C1659 C1660 1.415 . S
C1660 H1636 0.950 . S
C1660 C1655 1.363 . S
C1660 C1659 1.415 . S
C1661 H1637 0.951 . S
C1661 C1662 1.366 . S
C1661 C1663 1.388 . S
C1662 C1661 1.366 . S
C1662 C1666 1.385 . S
C1663 H1638 0.951 . S
C1663 C1661 1.388 . S
C1663 C1664 1.366 . S
C1664 C1663 1.366 . S
C1664 C1665 1.414 . S
C1664 C1667 1.499 . S
C1665 H1639 0.950 . S
C1665 C1664 1.414 . S
C1665 C1666 1.374 . S
C1666 H1640 0.950 . S
C1666 C1662 1.385 . S
C1666 C1665 1.374 . S
C1667 C1664 1.499 . S
C1667 C1668 1.373 . S
C1667 C1669 1.389 . S
C1668 H1641 0.950 . S
C1668 C1654 1.377 . S
C1668 C1667 1.373 . S
C1669 C1653 1.377 . S
C1669 C1667 1.389 . S
C1669 C1670 1.524 . S
C1670 C1669 1.524 . S
C1670 C1671 1.397 . S
C1670 C1675 1.363 . S
C1671 H1642 0.950 . S
C1671 C1670 1.397 . S
C1671 C1672 1.334 . S
C1672 H1643 0.950 . S
C1672 C1671 1.334 . S
C1672 C1673 1.287 . S
C1673 C1672 1.287 . S
C1673 C1674 1.524 . S
C1673 H1676 0.999 . S
C1674 H1644 0.950 . S
C1674 C1673 1.524 . S
C1674 C1675 1.415 . S
C1675 H1645 0.950 . S
C1675 C1670 1.363 . S
C1675 C1674 1.415 . S
H1676 C1673 0.999 . S
H1677 C1658 0.913 . S
H1678 C1696 0.951 . S
H1679 C1698 0.951 . S
H1680 C1700 0.950 . S
H1681 C1701 0.950 . S
H1682 C1703 0.950 . S
H1683 C1706 0.950 . S
H1684 C1707 0.950 . S
H1685 C1709 0.950 . S
H1686 C1710 0.950 . S
H1687 C1711 0.951 . S
H1688 C1713 0.951 . S
H1689 C1715 0.950 . S
H1690 C1716 0.950 . S
H1691 C1718 0.950 . S
H1692 C1721 0.950 . S
H1693 C1722 0.950 . S
H1694 C1724 0.951 1_545 S
H1695 C1725 0.950 . S
C1696 H1678 0.951 . S
C1696 C1697 1.366 . S
C1696 C1698 1.388 . S
C1697 C1696 1.366 . S
C1697 C1701 1.385 . S
C1698 H1679 0.951 . S
C1698 C1696 1.388 . S
C1698 C1699 1.366 . S
C1699 C1698 1.366 . S
C1699 C1700 1.414 . S
C1699 C1702 1.499 . S
C1700 H1680 0.950 . S
C1700 C1699 1.414 . S
C1700 C1701 1.374 . S
C1701 H1681 0.950 . S
C1701 C1697 1.385 . S
C1701 C1700 1.374 . S
C1702 C1699 1.499 . S
C1702 C1703 1.373 . S
C1702 C1704 1.389 . S
C1703 H1682 0.950 . S
C1703 C1702 1.373 . S
C1703 C1719 1.377 . S
C1704 C1702 1.389 . S
C1704 C1705 1.524 . S
C1704 C1718 1.377 . S
C1705 C1704 1.524 . S
C1705 C1706 1.397 . S
C1705 C1710 1.363 . S
C1706 H1683 0.950 . S
C1706 C1705 1.397 . S
C1706 C1707 1.334 . S
C1707 H1684 0.950 . S
C1707 C1706 1.334 . S
C1707 C1708 1.287 . S
C1708 C1707 1.287 . S
C1708 C1709 1.524 . S
C1708 H1727 0.913 . S
C1709 H1685 0.950 . S
C1709 C1708 1.524 . S
C1709 C1710 1.415 . S
C1710 H1686 0.950 . S
C1710 C1705 1.363 . S
C1710 C1709 1.415 . S
C1711 H1687 0.951 . S
C1711 C1712 1.366 . S
C1711 C1713 1.388 . S
C1712 C1711 1.366 . S
C1712 C1716 1.385 . S
C1713 H1688 0.951 . S
C1713 C1711 1.388 . S
C1713 C1714 1.366 . S
C1714 C1713 1.366 . S
C1714 C1715 1.414 . S
C1714 C1717 1.499 . S
C1715 H1689 0.950 . S
C1715 C1714 1.414 . S
C1715 C1716 1.374 . S
C1716 H1690 0.950 . S
C1716 C1712 1.385 . S
C1716 C1715 1.374 . S
C1717 C1714 1.499 . S
C1717 C1718 1.373 . S
C1717 C1719 1.389 . S
C1718 H1691 0.950 . S
C1718 C1704 1.377 . S
C1718 C1717 1.373 . S
C1719 C1703 1.377 . S
C1719 C1717 1.389 . S
C1719 C1720 1.524 . S
C1720 C1719 1.524 . S
C1720 C1721 1.397 . S
C1720 C1725 1.363 . S
C1721 H1692 0.950 . S
C1721 C1720 1.397 . S
C1721 C1722 1.334 1_565 S
C1722 H1693 0.950 . S
C1722 C1721 1.334 1_545 S
C1722 C1723 1.287 . S
C1723 C1722 1.287 . S
C1723 C1724 1.524 1_545 S
C1723 H1726 0.999 . S
C1724 H1694 0.951 1_565 S
C1724 C1723 1.524 1_565 S
C1724 C1725 1.415 . S
C1725 H1695 0.950 . S
C1725 C1720 1.363 . S
C1725 C1724 1.415 . S
H1726 C1723 0.999 . S
H1727 C1708 0.913 . S
H1728 C1746 0.951 . S
H1729 C1748 0.951 1_556 S
H1730 C1750 0.950 . S
H1731 C1751 0.950 . S
H1732 C1753 0.950 . S
H1733 C1756 0.950 1_554 S
H1734 C1757 0.951 . S
H1735 C1759 0.950 . S
H1736 C1760 0.950 . S
H1737 C1761 0.951 . S
H1738 C1763 0.951 . S
H1739 C1765 0.950 . S
H1740 C1766 0.950 . S
H1741 C1768 0.950 . S
H1742 C1771 0.950 . S
H1743 C1772 0.950 . S
H1744 C1774 0.950 . S
H1745 C1775 0.950 . S
C1746 H1728 0.951 . S
C1746 C1747 1.366 . S
C1746 C1748 1.388 . S
C1747 C1746 1.366 . S
C1747 C1751 1.385 . S
C1748 H1729 0.951 1_554 S
C1748 C1746 1.388 . S
C1748 C1749 1.366 . S
C1749 C1748 1.366 . S
C1749 C1750 1.414 . S
C1749 C1752 1.499 . S
C1750 H1730 0.950 . S
C1750 C1749 1.414 . S
C1750 C1751 1.374 . S
C1751 H1731 0.950 . S
C1751 C1747 1.385 . S
C1751 C1750 1.374 . S
C1752 C1749 1.499 . S
C1752 C1753 1.373 . S
C1752 C1754 1.389 1_554 S
C1753 H1732 0.950 . S
C1753 C1752 1.373 . S
C1753 C1769 1.377 1_554 S
C1754 C1752 1.389 1_556 S
C1754 C1755 1.524 . S
C1754 C1768 1.377 . S
C1755 C1754 1.524 . S
C1755 C1756 1.397 . S
C1755 C1760 1.363 . S
C1756 H1733 0.950 1_556 S
C1756 C1755 1.397 . S
C1756 C1757 1.334 . S
C1757 H1734 0.951 . S
C1757 C1756 1.334 . S
C1757 C1758 1.287 . S
C1758 C1757 1.287 . S
C1758 C1759 1.524 . S
C1758 H1777 0.913 . S
C1759 H1735 0.950 . S
C1759 C1758 1.524 . S
C1759 C1760 1.415 . S
C1760 H1736 0.950 . S
C1760 C1755 1.363 . S
C1760 C1759 1.415 . S
C1761 H1737 0.951 . S
C1761 C1762 1.366 . S
C1761 C1763 1.388 . S
C1762 C1761 1.366 . S
C1762 C1766 1.385 . S
C1763 H1738 0.951 . S
C1763 C1761 1.388 . S
C1763 C1764 1.366 . S
C1764 C1763 1.366 . S
C1764 C1765 1.414 . S
C1764 C1767 1.499 . S
C1765 H1739 0.950 . S
C1765 C1764 1.414 . S
C1765 C1766 1.374 . S
C1766 H1740 0.950 . S
C1766 C1762 1.385 . S
C1766 C1765 1.374 . S
C1767 C1764 1.499 . S
C1767 C1768 1.373 . S
C1767 C1769 1.389 . S
C1768 H1741 0.950 . S
C1768 C1754 1.377 . S
C1768 C1767 1.373 . S
C1769 C1753 1.377 1_556 S
C1769 C1767 1.389 . S
C1769 C1770 1.524 . S
C1770 C1769 1.524 . S
C1770 C1771 1.397 . S
C1770 C1775 1.363 1_556 S
C1771 H1742 0.950 . S
C1771 C1770 1.397 . S
C1771 C1772 1.334 . S
C1772 H1743 0.950 . S
C1772 C1771 1.334 . S
C1772 C1773 1.287 1_556 S
C1773 C1772 1.287 1_554 S
C1773 C1774 1.524 . S
C1773 H1776 0.999 . S
C1774 H1744 0.950 . S
C1774 C1773 1.524 . S
C1774 C1775 1.415 . S
C1775 H1745 0.950 . S
C1775 C1770 1.363 1_554 S
C1775 C1774 1.415 . S
H1776 C1773 0.999 . S
H1777 C1758 0.913 . S
H1778 C1796 0.951 . S
H1779 C1798 0.951 . S
H1780 C1800 0.950 . S
H1781 C1801 0.950 . S
H1782 C1803 0.950 . S
H1783 C1806 0.950 . S
H1784 C1807 0.950 . S
H1785 C1809 0.950 . S
H1786 C1810 0.950 . S
H1787 C1811 0.951 . S
H1788 C1813 0.951 . S
H1789 C1815 0.950 . S
H1790 C1816 0.950 . S
H1791 C1818 0.961 . S
H1792 C1821 0.950 . S
H1793 C1822 0.950 . S
H1794 C1824 0.950 . S
H1795 C1825 0.950 . S
C1796 H1778 0.951 . S
C1796 C1797 1.366 . S
C1796 C1798 1.388 . S
C1797 C1796 1.366 . S
C1797 C1801 1.385 . S
C1798 H1779 0.951 . S
C1798 C1796 1.388 . S
C1798 C1799 1.366 . S
C1799 C1798 1.366 . S
C1799 C1800 1.414 . S
C1799 C1802 1.499 . S
C1800 H1780 0.950 . S
C1800 C1799 1.414 . S
C1800 C1801 1.374 . S
C1801 H1781 0.950 . S
C1801 C1797 1.385 . S
C1801 C1800 1.374 . S
C1802 C1799 1.499 . S
C1802 C1803 1.373 1_554 S
C1802 C1804 1.389 . S
C1803 H1782 0.950 . S
C1803 C1802 1.373 1_556 S
C1803 C1819 1.377 . S
C1804 C1802 1.389 . S
C1804 C1805 1.524 . S
C1804 C1818 1.377 1_554 S
C1805 C1804 1.524 . S
C1805 C1806 1.397 . S
C1805 C1810 1.363 . S
C1806 H1783 0.950 . S
C1806 C1805 1.397 . S
C1806 C1807 1.334 . S
C1807 H1784 0.950 . S
C1807 C1806 1.334 . S
C1807 C1808 1.287 . S
C1808 C1807 1.287 . S
C1808 C1809 1.524 . S
C1808 H1827 0.913 . S
C1809 H1785 0.950 . S
C1809 C1808 1.524 . S
C1809 C1810 1.415 . S
C1810 H1786 0.950 . S
C1810 C1805 1.363 . S
C1810 C1809 1.415 . S
C1811 H1787 0.951 . S
C1811 C1812 1.366 . S
C1811 C1813 1.388 . S
C1812 C1811 1.366 . S
C1812 C1816 1.385 . S
C1813 H1788 0.951 . S
C1813 C1811 1.388 . S
C1813 C1814 1.366 . S
C1814 C1813 1.366 . S
C1814 C1815 1.414 . S
C1814 C1817 1.499 . S
C1815 H1789 0.950 . S
C1815 C1814 1.414 . S
C1815 C1816 1.374 . S
C1816 H1790 0.950 . S
C1816 C1812 1.385 . S
C1816 C1815 1.374 . S
C1817 C1814 1.499 . S
C1817 C1818 1.373 . S
C1817 C1819 1.389 . S
C1818 H1791 0.961 . S
C1818 C1804 1.377 1_556 S
C1818 C1817 1.373 . S
C1819 C1803 1.377 . S
C1819 C1817 1.389 . S
C1819 C1820 1.524 . S
C1820 C1819 1.524 . S
C1820 C1821 1.397 . S
C1820 C1825 1.363 . S
C1821 H1792 0.950 . S
C1821 C1820 1.397 . S
C1821 C1822 1.334 . S
C1822 H1793 0.950 . S
C1822 C1821 1.334 . S
C1822 C1823 1.287 . S
C1823 C1822 1.287 . S
C1823 C1824 1.524 . S
C1823 H1826 0.999 . S
C1824 H1794 0.950 . S
C1824 C1823 1.524 . S
C1824 C1825 1.415 . S
C1825 H1795 0.950 . S
C1825 C1820 1.363 . S
C1825 C1824 1.415 . S
H1826 C1823 0.999 . S
H1827 C1808 0.913 . S
H1828 C1846 0.951 . S
H1829 C1848 0.951 . S
H1830 C1850 0.950 . S
H1831 C1851 0.950 . S
H1832 C1853 0.950 . S
H1833 C1856 0.950 . S
H1834 C1857 0.950 . S
H1835 C1859 0.950 . S
H1836 C1860 0.950 . S
H1837 C1861 0.951 . S
H1838 C1863 0.951 . S
H1839 C1865 0.950 . S
H1840 C1866 0.950 . S
H1841 C1868 0.950 . S
H1842 C1871 0.950 . S
H1843 C1872 0.950 . S
H1844 C1874 0.950 . S
H1845 C1875 0.950 . S
C1846 H1828 0.951 . S
C1846 C1847 1.366 . S
C1846 C1848 1.388 . S
C1847 C1846 1.366 . S
C1847 C1851 1.385 . S
C1848 H1829 0.951 . S
C1848 C1846 1.388 . S
C1848 C1849 1.366 . S
C1849 C1848 1.366 . S
C1849 C1850 1.414 . S
C1849 C1852 1.499 . S
C1850 H1830 0.950 . S
C1850 C1849 1.414 . S
C1850 C1851 1.374 . S
C1851 H1831 0.950 . S
C1851 C1847 1.385 . S
C1851 C1850 1.374 . S
C1852 C1849 1.499 . S
C1852 C1853 1.373 1_554 S
C1852 C1854 1.389 . S
C1853 H1832 0.950 . S
C1853 C1852 1.373 1_556 S
C1853 C1869 1.377 . S
C1854 C1852 1.389 . S
C1854 C1855 1.524 . S
C1854 C1868 1.377 1_554 S
C1855 C1854 1.524 . S
C1855 C1856 1.397 . S
C1855 C1860 1.363 . S
C1856 H1833 0.950 . S
C1856 C1855 1.397 . S
C1856 C1857 1.334 . S
C1857 H1834 0.950 . S
C1857 C1856 1.334 . S
C1857 C1858 1.287 . S
C1858 C1857 1.287 . S
C1858 C1859 1.524 . S
C1858 H1877 0.913 . S
C1859 H1835 0.950 . S
C1859 C1858 1.524 . S
C1859 C1860 1.415 . S
C1860 H1836 0.950 . S
C1860 C1855 1.363 . S
C1860 C1859 1.415 . S
C1861 H1837 0.951 . S
C1861 C1862 1.366 . S
C1861 C1863 1.388 . S
C1862 C1861 1.366 . S
C1862 C1866 1.385 . S
C1863 H1838 0.951 . S
C1863 C1861 1.388 . S
C1863 C1864 1.366 . S
C1864 C1863 1.366 . S
C1864 C1865 1.414 . S
C1864 C1867 1.499 . S
C1865 H1839 0.950 . S
C1865 C1864 1.414 . S
C1865 C1866 1.374 . S
C1866 H1840 0.950 . S
C1866 C1862 1.385 . S
C1866 C1865 1.374 . S
C1867 C1864 1.499 . S
C1867 C1868 1.373 . S
C1867 C1869 1.389 . S
C1868 H1841 0.950 . S
C1868 C1854 1.377 1_556 S
C1868 C1867 1.373 . S
C1869 C1853 1.377 . S
C1869 C1867 1.389 . S
C1869 C1870 1.524 . S
C1870 C1869 1.524 . S
C1870 C1871 1.397 . S
C1870 C1875 1.363 . S
C1871 H1842 0.950 . S
C1871 C1870 1.397 . S
C1871 C1872 1.334 . S
C1872 H1843 0.950 . S
C1872 C1871 1.334 . S
C1872 C1873 1.287 . S
C1873 C1872 1.287 . S
C1873 C1874 1.524 . S
C1873 H1876 0.999 . S
C1874 H1844 0.950 . S
C1874 C1873 1.524 . S
C1874 C1875 1.415 . S
C1875 H1845 0.950 . S
C1875 C1870 1.363 . S
C1875 C1874 1.415 . S
H1876 C1873 0.999 . S
H1877 C1858 0.913 . S
H1878 C1896 0.951 . S
H1879 C1898 0.951 . S
H1880 C1900 0.950 . S
H1881 C1901 0.950 . S
H1882 C1903 0.950 . S
H1883 C1906 0.950 . S
H1884 C1907 0.950 . S
H1885 C1909 0.950 . S
H1886 C1910 0.950 . S
H1887 C1911 0.951 . S
H1888 C1913 0.951 . S
H1889 C1915 0.950 . S
H1890 C1916 0.950 . S
H1891 C1918 0.947 1_554 S
H1892 C1921 0.950 . S
H1893 C1922 0.950 . S
H1894 C1924 0.950 . S
H1895 C1925 0.950 . S
C1896 H1878 0.951 . S
C1896 C1897 1.366 . S
C1896 C1898 1.388 . S
C1897 C1896 1.366 . S
C1897 C1901 1.385 . S
C1898 H1879 0.951 . S
C1898 C1896 1.388 . S
C1898 C1899 1.366 . S
C1899 C1898 1.366 . S
C1899 C1900 1.414 . S
C1899 C1902 1.499 . S
C1900 H1880 0.950 . S
C1900 C1899 1.414 . S
C1900 C1901 1.374 . S
C1901 H1881 0.950 . S
C1901 C1897 1.385 . S
C1901 C1900 1.374 . S
C1902 C1899 1.499 . S
C1902 C1903 1.373 1_554 S
C1902 C1904 1.389 . S
C1903 H1882 0.950 . S
C1903 C1902 1.373 1_556 S
C1903 C1919 1.377 . S
C1904 C1902 1.389 . S
C1904 C1905 1.524 . S
C1904 C1918 1.377 1_554 S
C1905 C1904 1.524 . S
C1905 C1906 1.397 . S
C1905 C1910 1.363 . S
C1906 H1883 0.950 . S
C1906 C1905 1.397 . S
C1906 C1907 1.334 . S
C1907 H1884 0.950 . S
C1907 C1906 1.334 . S
C1907 C1908 1.287 . S
C1908 C1907 1.287 . S
C1908 C1909 1.524 . S
C1908 H1927 0.913 . S
C1909 H1885 0.950 . S
C1909 C1908 1.524 . S
C1909 C1910 1.415 . S
C1910 H1886 0.950 . S
C1910 C1905 1.363 . S
C1910 C1909 1.415 . S
C1911 H1887 0.951 . S
C1911 C1912 1.366 . S
C1911 C1913 1.388 . S
C1912 C1911 1.366 . S
C1912 C1916 1.385 . S
C1913 H1888 0.951 . S
C1913 C1911 1.388 . S
C1913 C1914 1.366 . S
C1914 C1913 1.366 . S
C1914 C1915 1.414 . S
C1914 C1917 1.499 . S
C1915 H1889 0.950 . S
C1915 C1914 1.414 . S
C1915 C1916 1.374 . S
C1916 H1890 0.950 . S
C1916 C1912 1.385 . S
C1916 C1915 1.374 . S
C1917 C1914 1.499 . S
C1917 C1918 1.373 . S
C1917 C1919 1.389 . S
C1918 H1891 0.947 1_556 S
C1918 C1904 1.377 1_556 S
C1918 C1917 1.373 . S
C1919 C1903 1.377 . S
C1919 C1917 1.389 . S
C1919 C1920 1.524 . S
C1920 C1919 1.524 . S
C1920 C1921 1.397 . S
C1920 C1925 1.363 . S
C1921 H1892 0.950 . S
C1921 C1920 1.397 . S
C1921 C1922 1.334 . S
C1922 H1893 0.950 . S
C1922 C1921 1.334 . S
C1922 C1923 1.287 . S
C1923 C1922 1.287 . S
C1923 C1924 1.524 . S
C1923 H1926 0.999 . S
C1924 H1894 0.950 . S
C1924 C1923 1.524 . S
C1924 C1925 1.415 . S
C1925 H1895 0.950 . S
C1925 C1920 1.363 . S
C1925 C1924 1.415 . S
H1926 C1923 0.999 . S
H1927 C1908 0.913 . S
H1928 C1946 0.951 . S
H1929 C1948 0.951 . S
H1930 C1950 0.950 . S
H1931 C1951 0.950 . S
H1932 C1953 0.950 . S
H1933 C1956 0.950 . S
H1934 C1957 0.950 . S
H1935 C1959 0.950 . S
H1936 C1960 0.950 . S
H1937 C1961 0.951 . S
H1938 C1963 0.951 . S
H1939 C1965 0.950 . S
H1940 C1966 0.950 . S
H1941 C1968 0.950 . S
H1942 C1971 0.950 . S
H1943 C1972 0.950 . S
H1944 C1974 0.950 . S
H1945 C1975 0.950 . S
C1946 H1928 0.951 . S
C1946 C1947 1.366 . S
C1946 C1948 1.388 . S
C1947 C1946 1.366 . S
C1947 C1951 1.385 . S
C1948 H1929 0.951 . S
C1948 C1946 1.388 . S
C1948 C1949 1.366 . S
C1949 C1948 1.366 . S
C1949 C1950 1.414 . S
C1949 C1952 1.499 . S
C1950 H1930 0.950 . S
C1950 C1949 1.414 . S
C1950 C1951 1.374 . S
C1951 H1931 0.950 . S
C1951 C1947 1.385 . S
C1951 C1950 1.374 . S
C1952 C1949 1.499 . S
C1952 C1953 1.373 . S
C1952 C1954 1.389 . S
C1953 H1932 0.950 . S
C1953 C1952 1.373 . S
C1953 C1969 1.377 . S
C1954 C1952 1.389 . S
C1954 C1955 1.524 . S
C1954 C1968 1.377 . S
C1955 C1954 1.524 . S
C1955 C1956 1.397 . S
C1955 C1960 1.363 . S
C1956 H1933 0.950 . S
C1956 C1955 1.397 . S
C1956 C1957 1.334 . S
C1957 H1934 0.950 . S
C1957 C1956 1.334 . S
C1957 C1958 1.287 . S
C1958 C1957 1.287 . S
C1958 C1959 1.524 . S
C1958 H1977 0.913 . S
C1959 H1935 0.950 . S
C1959 C1958 1.524 . S
C1959 C1960 1.415 . S
C1960 H1936 0.950 . S
C1960 C1955 1.363 . S
C1960 C1959 1.415 . S
C1961 H1937 0.951 . S
C1961 C1962 1.366 . S
C1961 C1963 1.388 . S
C1962 C1961 1.366 . S
C1962 C1966 1.385 . S
C1963 H1938 0.951 . S
C1963 C1961 1.388 . S
C1963 C1964 1.366 . S
C1964 C1963 1.366 . S
C1964 C1965 1.414 . S
C1964 C1967 1.499 . S
C1965 H1939 0.950 . S
C1965 C1964 1.414 . S
C1965 C1966 1.374 . S
C1966 H1940 0.950 . S
C1966 C1962 1.385 . S
C1966 C1965 1.374 . S
C1967 C1964 1.499 . S
C1967 C1968 1.373 . S
C1967 C1969 1.389 . S
C1968 H1941 0.950 . S
C1968 C1954 1.377 . S
C1968 C1967 1.373 . S
C1969 C1953 1.377 . S
C1969 C1967 1.389 . S
C1969 C1970 1.524 . S
C1970 C1969 1.524 . S
C1970 C1971 1.397 . S
C1970 C1975 1.363 . S
C1971 H1942 0.950 . S
C1971 C1970 1.397 . S
C1971 C1972 1.334 . S
C1972 H1943 0.950 . S
C1972 C1971 1.334 . S
C1972 C1973 1.287 . S
C1973 C1972 1.287 . S
C1973 C1974 1.524 . S
C1973 H1976 0.999 . S
C1974 H1944 0.950 . S
C1974 C1973 1.524 . S
C1974 C1975 1.415 . S
C1975 H1945 0.950 . S
C1975 C1970 1.363 . S
C1975 C1974 1.415 . S
H1976 C1973 0.999 . S
H1977 C1958 0.913 . S
H1978 C1996 0.951 . S
H1979 C1998 0.951 . S
H1980 C2000 0.950 . S
H1981 C2001 0.950 . S
H1982 C2003 0.950 . S
H1983 C2006 0.950 . S
H1984 C2007 0.950 . S
H1985 C2009 0.950 . S
H1986 C2010 0.950 . S
H1987 C2011 0.951 . S
H1988 C2013 0.951 . S
H1989 C2015 0.950 . S
H1990 C2016 0.950 . S
H1991 C2018 0.950 . S
H1992 C2021 0.950 . S
H1993 C2022 0.950 . S
H1994 C2024 0.950 . S
H1995 C2025 0.950 . S
C1996 H1978 0.951 . S
C1996 C1997 1.366 . S
C1996 C1998 1.388 . S
C1997 C1996 1.366 . S
C1997 C2001 1.385 . S
C1998 H1979 0.951 . S
C1998 C1996 1.388 . S
C1998 C1999 1.366 . S
C1999 C1998 1.366 . S
C1999 C2000 1.414 . S
C1999 C2002 1.499 . S
C2000 H1980 0.950 . S
C2000 C1999 1.414 . S
C2000 C2001 1.374 . S
C2001 H1981 0.950 . S
C2001 C1997 1.385 . S
C2001 C2000 1.374 . S
C2002 C1999 1.499 . S
C2002 C2003 1.373 . S
C2002 C2004 1.389 . S
C2003 H1982 0.950 . S
C2003 C2002 1.373 . S
C2003 C2019 1.377 . S
C2004 C2002 1.389 . S
C2004 C2005 1.524 . S
C2004 C2018 1.377 . S
C2005 C2004 1.524 . S
C2005 C2006 1.397 . S
C2005 C2010 1.363 . S
C2006 H1983 0.950 . S
C2006 C2005 1.397 . S
C2006 C2007 1.334 . S
C2007 H1984 0.950 . S
C2007 C2006 1.334 . S
C2007 C2008 1.287 . S
C2008 C2007 1.287 . S
C2008 C2009 1.524 . S
C2008 H2027 0.913 . S
C2009 H1985 0.950 . S
C2009 C2008 1.524 . S
C2009 C2010 1.415 . S
C2010 H1986 0.950 . S
C2010 C2005 1.363 . S
C2010 C2009 1.415 . S
C2011 H1987 0.951 . S
C2011 C2012 1.366 . S
C2011 C2013 1.388 . S
C2012 C2011 1.366 . S
C2012 C2016 1.385 . S
C2013 H1988 0.951 . S
C2013 C2011 1.388 . S
C2013 C2014 1.366 . S
C2014 C2013 1.366 . S
C2014 C2015 1.414 . S
C2014 C2017 1.499 . S
C2015 H1989 0.950 . S
C2015 C2014 1.414 . S
C2015 C2016 1.374 . S
C2016 H1990 0.950 . S
C2016 C2012 1.385 . S
C2016 C2015 1.374 . S
C2017 C2014 1.499 . S
C2017 C2018 1.373 . S
C2017 C2019 1.389 . S
C2018 H1991 0.950 . S
C2018 C2004 1.377 . S
C2018 C2017 1.373 . S
C2019 C2003 1.377 . S
C2019 C2017 1.389 . S
C2019 C2020 1.524 . S
C2020 C2019 1.524 . S
C2020 C2021 1.397 . S
C2020 C2025 1.363 . S
C2021 H1992 0.950 . S
C2021 C2020 1.397 . S
C2021 C2022 1.334 . S
C2022 H1993 0.950 . S
C2022 C2021 1.334 . S
C2022 C2023 1.287 . S
C2023 C2022 1.287 . S
C2023 C2024 1.524 . S
C2023 H2026 0.999 . S
C2024 H1994 0.950 . S
C2024 C2023 1.524 . S
C2024 C2025 1.415 . S
C2025 H1995 0.950 . S
C2025 C2020 1.363 . S
C2025 C2024 1.415 . S
H2026 C2023 0.999 . S
H2027 C2008 0.913 . S
H2028 C2046 0.951 . S
H2029 C2048 0.951 . S
H2030 C2050 0.950 . S
H2031 C2051 0.950 . S
H2032 C2053 0.950 . S
H2033 C2056 0.950 . S
H2034 C2057 0.950 . S
H2035 C2059 0.950 . S
H2036 C2060 0.950 . S
H2037 C2061 0.951 . S
H2038 C2063 0.951 . S
H2039 C2065 0.950 . S
H2040 C2066 0.950 . S
H2041 C2068 0.950 . S
H2042 C2071 0.950 . S
H2043 C2072 0.950 . S
H2044 C2074 0.950 1_655 S
H2045 C2075 0.950 . S
C2046 H2028 0.951 . S
C2046 C2047 1.366 . S
C2046 C2048 1.388 . S
C2047 C2046 1.366 . S
C2047 C2051 1.385 . S
C2048 H2029 0.951 . S
C2048 C2046 1.388 . S
C2048 C2049 1.366 . S
C2049 C2048 1.366 . S
C2049 C2050 1.414 . S
C2049 C2052 1.499 . S
C2050 H2030 0.950 . S
C2050 C2049 1.414 . S
C2050 C2051 1.374 . S
C2051 H2031 0.950 . S
C2051 C2047 1.385 . S
C2051 C2050 1.374 . S
C2052 C2049 1.499 . S
C2052 C2053 1.373 . S
C2052 C2054 1.389 . S
C2053 H2032 0.950 . S
C2053 C2052 1.373 . S
C2053 C2069 1.377 . S
C2054 C2052 1.389 . S
C2054 C2055 1.524 . S
C2054 C2068 1.377 . S
C2055 C2054 1.524 . S
C2055 C2056 1.397 . S
C2055 C2060 1.363 . S
C2056 H2033 0.950 . S
C2056 C2055 1.397 . S
C2056 C2057 1.334 . S
C2057 H2034 0.950 . S
C2057 C2056 1.334 . S
C2057 C2058 1.287 . S
C2058 C2057 1.287 . S
C2058 C2059 1.524 . S
C2058 H2077 0.913 . S
C2059 H2035 0.950 . S
C2059 C2058 1.524 . S
C2059 C2060 1.415 . S
C2060 H2036 0.950 . S
C2060 C2055 1.363 . S
C2060 C2059 1.415 . S
C2061 H2037 0.951 . S
C2061 C2062 1.366 . S
C2061 C2063 1.388 . S
C2062 C2061 1.366 . S
C2062 C2066 1.385 . S
C2063 H2038 0.951 . S
C2063 C2061 1.388 . S
C2063 C2064 1.366 . S
C2064 C2063 1.366 . S
C2064 C2065 1.414 . S
C2064 C2067 1.499 . S
C2065 H2039 0.950 . S
C2065 C2064 1.414 . S
C2065 C2066 1.374 . S
C2066 H2040 0.950 . S
C2066 C2062 1.385 . S
C2066 C2065 1.374 . S
C2067 C2064 1.499 . S
C2067 C2068 1.373 . S
C2067 C2069 1.389 . S
C2068 H2041 0.950 . S
C2068 C2054 1.377 . S
C2068 C2067 1.373 . S
C2069 C2053 1.377 . S
C2069 C2067 1.389 . S
C2069 C2070 1.524 . S
C2070 C2069 1.524 . S
C2070 C2071 1.397 . S
C2070 C2075 1.363 . S
C2071 H2042 0.950 . S
C2071 C2070 1.397 . S
C2071 C2072 1.334 . S
C2072 H2043 0.950 . S
C2072 C2071 1.334 . S
C2072 C2073 1.287 . S
C2073 C2072 1.287 . S
C2073 C2074 1.524 . S
C2073 H2076 0.999 . S
C2074 H2044 0.950 1_455 S
C2074 C2073 1.524 . S
C2074 C2075 1.415 . S
C2075 H2045 0.950 . S
C2075 C2070 1.363 . S
C2075 C2074 1.415 . S
H2076 C2073 0.999 . S
H2077 C2058 0.913 . S
H2078 C2096 0.951 . S
H2079 C2098 0.951 . S
H2080 C2100 0.950 . S
H2081 C2101 0.950 . S
H2082 C2103 0.950 . S
H2083 C2106 0.950 . S
H2084 C2107 0.950 . S
H2085 C2109 0.950 . S
H2086 C2110 0.950 . S
H2087 C2111 0.951 . S
H2088 C2113 0.951 . S
H2089 C2115 0.950 . S
H2090 C2116 0.950 . S
H2091 C2118 0.950 . S
H2092 C2121 0.950 . S
H2093 C2122 0.950 1_565 S
H2094 C2124 0.950 . S
H2095 C2125 0.950 . S
C2096 H2078 0.951 . S
C2096 C2097 1.366 . S
C2096 C2098 1.388 . S
C2097 C2096 1.366 . S
C2097 C2101 1.385 . S
C2098 H2079 0.951 . S
C2098 C2096 1.388 . S
C2098 C2099 1.366 . S
C2099 C2098 1.366 . S
C2099 C2100 1.414 . S
C2099 C2102 1.499 . S
C2100 H2080 0.950 . S
C2100 C2099 1.414 . S
C2100 C2101 1.374 . S
C2101 H2081 0.950 . S
C2101 C2097 1.385 . S
C2101 C2100 1.374 . S
C2102 C2099 1.499 . S
C2102 C2103 1.373 . S
C2102 C2104 1.389 . S
C2103 H2082 0.950 . S
C2103 C2102 1.373 . S
C2103 C2119 1.377 . S
C2104 C2102 1.389 . S
C2104 C2105 1.524 . S
C2104 C2118 1.377 . S
C2105 C2104 1.524 . S
C2105 C2106 1.397 . S
C2105 C2110 1.363 . S
C2106 H2083 0.950 . S
C2106 C2105 1.397 . S
C2106 C2107 1.334 . S
C2107 H2084 0.950 . S
C2107 C2106 1.334 . S
C2107 C2108 1.287 . S
C2108 C2107 1.287 . S
C2108 C2109 1.524 . S
C2108 H2127 0.913 . S
C2109 H2085 0.950 . S
C2109 C2108 1.524 . S
C2109 C2110 1.415 . S
C2110 H2086 0.950 . S
C2110 C2105 1.363 . S
C2110 C2109 1.415 . S
C2111 H2087 0.951 . S
C2111 C2112 1.366 . S
C2111 C2113 1.388 . S
C2112 C2111 1.366 . S
C2112 C2116 1.385 . S
C2113 H2088 0.951 . S
C2113 C2111 1.388 . S
C2113 C2114 1.366 . S
C2114 C2113 1.366 . S
C2114 C2115 1.414 . S
C2114 C2117 1.499 . S
C2115 H2089 0.950 . S
C2115 C2114 1.414 . S
C2115 C2116 1.374 . S
C2116 H2090 0.950 . S
C2116 C2112 1.385 . S
C2116 C2115 1.374 . S
C2117 C2114 1.499 . S
C2117 C2118 1.373 . S
C2117 C2119 1.389 . S
C2118 H2091 0.950 . S
C2118 C2104 1.377 . S
C2118 C2117 1.373 . S
C2119 C2103 1.377 . S
C2119 C2117 1.389 . S
C2119 C2120 1.524 . S
C2120 C2119 1.524 . S
C2120 C2121 1.397 . S
C2120 C2125 1.363 . S
C2121 H2092 0.950 . S
C2121 C2120 1.397 . S
C2121 C2122 1.334 . S
C2122 H2093 0.950 1_545 S
C2122 C2121 1.334 . S
C2122 C2123 1.287 1_545 S
C2123 C2122 1.287 1_565 S
C2123 C2124 1.524 . S
C2123 H2126 0.999 . S
C2124 H2094 0.950 . S
C2124 C2123 1.524 . S
C2124 C2125 1.415 1_565 S
C2125 H2095 0.950 . S
C2125 C2120 1.363 . S
C2125 C2124 1.415 1_545 S
H2126 C2123 0.999 . S
H2127 C2108 0.913 . S
H2128 C2146 0.951 . S
H2129 C2148 0.951 . S
H2130 C2150 0.950 . S
H2131 C2151 0.950 . S
H2132 C2153 0.950 . S
H2133 C2156 0.950 . S
H2134 C2157 0.950 . S
H2135 C2159 0.950 . S
H2136 C2160 0.950 . S
H2137 C2161 0.951 . S
H2138 C2163 0.951 . S
H2139 C2165 0.950 . S
H2140 C2166 0.950 . S
H2141 C2168 0.950 . S
H2142 C2171 0.950 . S
H2143 C2172 0.950 . S
H2144 C2174 0.950 . S
H2145 C2175 0.950 . S
C2146 H2128 0.951 . S
C2146 C2147 1.366 . S
C2146 C2148 1.388 . S
C2147 C2146 1.366 . S
C2147 C2151 1.385 . S
C2148 H2129 0.951 . S
C2148 C2146 1.388 . S
C2148 C2149 1.366 . S
C2149 C2148 1.366 . S
C2149 C2150 1.414 . S
C2149 C2152 1.499 . S
C2150 H2130 0.950 . S
C2150 C2149 1.414 . S
C2150 C2151 1.374 . S
C2151 H2131 0.950 . S
C2151 C2147 1.385 . S
C2151 C2150 1.374 . S
C2152 C2149 1.499 . S
C2152 C2153 1.373 . S
C2152 C2154 1.389 . S
C2153 H2132 0.950 . S
C2153 C2152 1.373 . S
C2153 C2169 1.377 . S
C2154 C2152 1.389 . S
C2154 C2155 1.524 . S
C2154 C2168 1.377 . S
C2155 C2154 1.524 . S
C2155 C2156 1.397 . S
C2155 C2160 1.363 . S
C2156 H2133 0.950 . S
C2156 C2155 1.397 . S
C2156 C2157 1.334 . S
C2157 H2134 0.950 . S
C2157 C2156 1.334 . S
C2157 C2158 1.287 . S
C2158 C2157 1.287 . S
C2158 C2159 1.524 . S
C2158 H2177 0.913 . S
C2159 H2135 0.950 . S
C2159 C2158 1.524 . S
C2159 C2160 1.415 . S
C2160 H2136 0.950 . S
C2160 C2155 1.363 . S
C2160 C2159 1.415 . S
C2161 H2137 0.951 . S
C2161 C2162 1.366 . S
C2161 C2163 1.388 . S
C2162 C2161 1.366 . S
C2162 C2166 1.385 . S
C2163 H2138 0.951 . S
C2163 C2161 1.388 . S
C2163 C2164 1.366 . S
C2164 C2163 1.366 . S
C2164 C2165 1.414 . S
C2164 C2167 1.499 . S
C2165 H2139 0.950 . S
C2165 C2164 1.414 . S
C2165 C2166 1.374 . S
C2166 H2140 0.950 . S
C2166 C2162 1.385 . S
C2166 C2165 1.374 . S
C2167 C2164 1.499 . S
C2167 C2168 1.373 . S
C2167 C2169 1.389 . S
C2168 H2141 0.950 . S
C2168 C2154 1.377 . S
C2168 C2167 1.373 . S
C2169 C2153 1.377 . S
C2169 C2167 1.389 . S
C2169 C2170 1.524 . S
C2170 C2169 1.524 . S
C2170 C2171 1.397 . S
C2170 C2175 1.363 . S
C2171 H2142 0.950 . S
C2171 C2170 1.397 . S
C2171 C2172 1.334 . S
C2172 H2143 0.950 . S
C2172 C2171 1.334 . S
C2172 C2173 1.287 . S
C2173 C2172 1.287 . S
C2173 C2174 1.524 . S
C2173 H2176 0.999 . S
C2174 H2144 0.950 . S
C2174 C2173 1.524 . S
C2174 C2175 1.415 . S
C2175 H2145 0.950 . S
C2175 C2170 1.363 . S
C2175 C2174 1.415 . S
H2176 C2173 0.999 . S
H2177 C2158 0.913 . S
H2178 C2196 0.951 . S
H2179 C2198 0.951 . S
H2180 C2200 0.950 . S
H2181 C2201 0.950 . S
H2182 C2203 0.950 . S
H2183 C2206 0.950 . S
H2184 C2207 0.950 . S
H2185 C2209 0.950 . S
H2186 C2210 0.950 . S
H2187 C2211 0.951 . S
H2188 C2213 0.951 . S
H2189 C2215 0.950 . S
H2190 C2216 0.950 . S
H2191 C2218 0.950 . S
H2192 C2221 0.950 . S
H2193 C2222 0.950 . S
H2194 C2224 0.950 . S
H2195 C2225 0.950 . S
C2196 H2178 0.951 . S
C2196 C2197 1.366 . S
C2196 C2198 1.388 . S
C2197 C2196 1.366 . S
C2197 C2201 1.385 . S
C2198 H2179 0.951 . S
C2198 C2196 1.388 . S
C2198 C2199 1.366 . S
C2199 C2198 1.366 . S
C2199 C2200 1.414 . S
C2199 C2202 1.499 . S
C2200 H2180 0.950 . S
C2200 C2199 1.414 . S
C2200 C2201 1.374 . S
C2201 H2181 0.950 . S
C2201 C2197 1.385 . S
C2201 C2200 1.374 . S
C2202 C2199 1.499 . S
C2202 C2203 1.373 . S
C2202 C2204 1.389 . S
C2203 H2182 0.950 . S
C2203 C2202 1.373 . S
C2203 C2219 1.377 . S
C2204 C2202 1.389 . S
C2204 C2205 1.524 . S
C2204 C2218 1.377 . S
C2205 C2204 1.524 . S
C2205 C2206 1.397 . S
C2205 C2210 1.363 . S
C2206 H2183 0.950 . S
C2206 C2205 1.397 . S
C2206 C2207 1.334 . S
C2207 H2184 0.950 . S
C2207 C2206 1.334 . S
C2207 C2208 1.287 . S
C2208 C2207 1.287 . S
C2208 C2209 1.524 . S
C2208 H2227 0.913 . S
C2209 H2185 0.950 . S
C2209 C2208 1.524 . S
C2209 C2210 1.415 . S
C2210 H2186 0.950 . S
C2210 C2205 1.363 . S
C2210 C2209 1.415 . S
C2211 H2187 0.951 . S
C2211 C2212 1.366 . S
C2211 C2213 1.388 . S
C2212 C2211 1.366 . S
C2212 C2216 1.385 . S
C2213 H2188 0.951 . S
C2213 C2211 1.388 . S
C2213 C2214 1.366 . S
C2214 C2213 1.366 . S
C2214 C2215 1.414 . S
C2214 C2217 1.499 . S
C2215 H2189 0.950 . S
C2215 C2214 1.414 . S
C2215 C2216 1.374 . S
C2216 H2190 0.950 . S
C2216 C2212 1.385 . S
C2216 C2215 1.374 . S
C2217 C2214 1.499 . S
C2217 C2218 1.373 . S
C2217 C2219 1.389 . S
C2218 H2191 0.950 . S
C2218 C2204 1.377 . S
C2218 C2217 1.373 . S
C2219 C2203 1.377 . S
C2219 C2217 1.389 . S
C2219 C2220 1.524 . S
C2220 C2219 1.524 . S
C2220 C2221 1.397 . S
C2220 C2225 1.363 . S
C2221 H2192 0.950 . S
C2221 C2220 1.397 . S
C2221 C2222 1.334 . S
C2222 H2193 0.950 . S
C2222 C2221 1.334 . S
C2222 C2223 1.287 . S
C2223 C2222 1.287 . S
C2223 C2224 1.524 . S
C2223 H2226 0.999 . S
C2224 H2194 0.950 . S
C2224 C2223 1.524 . S
C2224 C2225 1.415 . S
C2225 H2195 0.950 . S
C2225 C2220 1.363 . S
C2225 C2224 1.415 . S
H2226 C2223 0.999 . S
H2227 C2208 0.913 . S
H2228 C2246 0.951 . S
H2229 C2248 0.951 . S
H2230 C2250 0.950 . S
H2231 C2251 0.950 . S
H2232 C2253 0.950 . S
H2233 C2256 0.950 . S
H2234 C2257 0.950 . S
H2235 C2259 0.950 . S
H2236 C2260 0.950 . S
H2237 C2261 0.951 . S
H2238 C2263 0.951 . S
H2239 C2265 0.950 . S
H2240 C2266 0.950 . S
H2241 C2268 0.950 . S
H2242 C2271 0.950 . S
H2243 C2272 0.950 . S
H2244 C2274 0.950 . S
H2245 C2275 0.950 . S
C2246 H2228 0.951 . S
C2246 C2247 1.366 . S
C2246 C2248 1.388 . S
C2247 C2246 1.366 . S
C2247 C2251 1.385 . S
C2248 H2229 0.951 . S
C2248 C2246 1.388 . S
C2248 C2249 1.366 . S
C2249 C2248 1.366 . S
C2249 C2250 1.414 . S
C2249 C2252 1.499 . S
C2250 H2230 0.950 . S
C2250 C2249 1.414 . S
C2250 C2251 1.374 . S
C2251 H2231 0.950 . S
C2251 C2247 1.385 . S
C2251 C2250 1.374 . S
C2252 C2249 1.499 . S
C2252 C2253 1.373 . S
C2252 C2254 1.389 . S
C2253 H2232 0.950 . S
C2253 C2252 1.373 . S
C2253 C2269 1.377 . S
C2254 C2252 1.389 . S
C2254 C2255 1.524 . S
C2254 C2268 1.377 . S
C2255 C2254 1.524 . S
C2255 C2256 1.397 . S
C2255 C2260 1.363 . S
C2256 H2233 0.950 . S
C2256 C2255 1.397 . S
C2256 C2257 1.334 . S
C2257 H2234 0.950 . S
C2257 C2256 1.334 . S
C2257 C2258 1.287 . S
C2258 C2257 1.287 . S
C2258 C2259 1.524 . S
C2258 H2277 0.913 . S
C2259 H2235 0.950 . S
C2259 C2258 1.524 . S
C2259 C2260 1.415 . S
C2260 H2236 0.950 . S
C2260 C2255 1.363 . S
C2260 C2259 1.415 . S
C2261 H2237 0.951 . S
C2261 C2262 1.366 . S
C2261 C2263 1.388 . S
C2262 C2261 1.366 . S
C2262 C2266 1.385 . S
C2263 H2238 0.951 . S
C2263 C2261 1.388 . S
C2263 C2264 1.366 . S
C2264 C2263 1.366 . S
C2264 C2265 1.414 . S
C2264 C2267 1.499 . S
C2265 H2239 0.950 . S
C2265 C2264 1.414 . S
C2265 C2266 1.374 . S
C2266 H2240 0.950 . S
C2266 C2262 1.385 . S
C2266 C2265 1.374 . S
C2267 C2264 1.499 . S
C2267 C2268 1.373 . S
C2267 C2269 1.389 . S
C2268 H2241 0.950 . S
C2268 C2254 1.377 . S
C2268 C2267 1.373 . S
C2269 C2253 1.377 . S
C2269 C2267 1.389 . S
C2269 C2270 1.524 . S
C2270 C2269 1.524 . S
C2270 C2271 1.397 . S
C2270 C2275 1.363 . S
C2271 H2242 0.950 . S
C2271 C2270 1.397 . S
C2271 C2272 1.334 . S
C2272 H2243 0.950 . S
C2272 C2271 1.334 . S
C2272 C2273 1.287 . S
C2273 C2272 1.287 . S
C2273 C2274 1.524 . S
C2273 H2276 0.999 . S
C2274 H2244 0.950 . S
C2274 C2273 1.524 . S
C2274 C2275 1.415 . S
C2275 H2245 0.950 . S
C2275 C2270 1.363 . S
C2275 C2274 1.415 . S
H2276 C2273 0.999 . S
H2277 C2258 0.913 . S
H2278 C2296 0.951 . S
H2279 C2298 0.951 . S
H2280 C2300 0.950 . S
H2281 C2301 0.950 . S
H2282 C2303 0.950 . S
H2283 C2306 0.950 . S
H2284 C2307 0.950 . S
H2285 C2309 0.950 . S
H2286 C2310 0.950 . S
H2287 C2311 0.951 . S
H2288 C2313 0.951 . S
H2289 C2315 0.950 . S
H2290 C2316 0.950 . S
H2291 C2318 0.950 . S
H2292 C2321 0.950 . S
H2293 C2322 0.950 . S
H2294 C2324 0.950 . S
H2295 C2325 0.950 . S
C2296 H2278 0.951 . S
C2296 C2297 1.366 . S
C2296 C2298 1.388 . S
C2297 C2296 1.366 . S
C2297 C2301 1.385 . S
C2298 H2279 0.951 . S
C2298 C2296 1.388 . S
C2298 C2299 1.366 . S
C2299 C2298 1.366 . S
C2299 C2300 1.414 . S
C2299 C2302 1.499 . S
C2300 H2280 0.950 . S
C2300 C2299 1.414 . S
C2300 C2301 1.374 . S
C2301 H2281 0.950 . S
C2301 C2297 1.385 . S
C2301 C2300 1.374 . S
C2302 C2299 1.499 . S
C2302 C2303 1.373 . S
C2302 C2304 1.389 . S
C2303 H2282 0.950 . S
C2303 C2302 1.373 . S
C2303 C2319 1.377 . S
C2304 C2302 1.389 . S
C2304 C2305 1.524 . S
C2304 C2318 1.377 . S
C2305 C2304 1.524 . S
C2305 C2306 1.397 . S
C2305 C2310 1.363 . S
C2306 H2283 0.950 . S
C2306 C2305 1.397 . S
C2306 C2307 1.334 . S
C2307 H2284 0.950 . S
C2307 C2306 1.334 . S
C2307 C2308 1.287 . S
C2308 C2307 1.287 . S
C2308 C2309 1.524 . S
C2308 H2327 0.913 . S
C2309 H2285 0.950 . S
C2309 C2308 1.524 . S
C2309 C2310 1.415 . S
C2310 H2286 0.950 . S
C2310 C2305 1.363 . S
C2310 C2309 1.415 . S
C2311 H2287 0.951 . S
C2311 C2312 1.366 . S
C2311 C2313 1.388 . S
C2312 C2311 1.366 . S
C2312 C2316 1.385 . S
C2313 H2288 0.951 . S
C2313 C2311 1.388 . S
C2313 C2314 1.366 . S
C2314 C2313 1.366 . S
C2314 C2315 1.414 . S
C2314 C2317 1.499 . S
C2315 H2289 0.950 . S
C2315 C2314 1.414 . S
C2315 C2316 1.374 . S
C2316 H2290 0.950 . S
C2316 C2312 1.385 . S
C2316 C2315 1.374 . S
C2317 C2314 1.499 . S
C2317 C2318 1.373 . S
C2317 C2319 1.389 . S
C2318 H2291 0.950 . S
C2318 C2304 1.377 . S
C2318 C2317 1.373 . S
C2319 C2303 1.377 . S
C2319 C2317 1.389 . S
C2319 C2320 1.524 . S
C2320 C2319 1.524 . S
C2320 C2321 1.397 . S
C2320 C2325 1.363 . S
C2321 H2292 0.950 . S
C2321 C2320 1.397 . S
C2321 C2322 1.334 . S
C2322 H2293 0.950 . S
C2322 C2321 1.334 . S
C2322 C2323 1.287 . S
C2323 C2322 1.287 . S
C2323 C2324 1.524 . S
C2323 H2326 0.999 . S
C2324 H2294 0.950 . S
C2324 C2323 1.524 . S
C2324 C2325 1.415 . S
C2325 H2295 0.950 . S
C2325 C2320 1.363 . S
C2325 C2324 1.415 . S
H2326 C2323 0.999 . S
H2327 C2308 0.913 . S
H2328 C2346 0.951 . S
H2329 C2348 0.951 . S
H2330 C2350 0.950 . S
H2331 C2351 0.950 . S
H2332 C2353 0.950 . S
H2333 C2356 0.950 . S
H2334 C2357 0.950 . S
H2335 C2359 0.950 . S
H2336 C2360 0.950 . S
H2337 C2361 0.951 . S
H2338 C2363 0.951 . S
H2339 C2365 0.950 . S
H2340 C2366 0.950 . S
H2341 C2368 0.950 . S
H2342 C2371 0.950 . S
H2343 C2372 0.950 . S
H2344 C2374 0.950 . S
H2345 C2375 0.950 . S
C2346 H2328 0.951 . S
C2346 C2347 1.366 . S
C2346 C2348 1.388 . S
C2347 C2346 1.366 . S
C2347 C2351 1.385 . S
C2348 H2329 0.951 . S
C2348 C2346 1.388 . S
C2348 C2349 1.366 . S
C2349 C2348 1.366 . S
C2349 C2350 1.414 . S
C2349 C2352 1.499 . S
C2350 H2330 0.950 . S
C2350 C2349 1.414 . S
C2350 C2351 1.374 . S
C2351 H2331 0.950 . S
C2351 C2347 1.385 . S
C2351 C2350 1.374 . S
C2352 C2349 1.499 . S
C2352 C2353 1.373 . S
C2352 C2354 1.389 . S
C2353 H2332 0.950 . S
C2353 C2352 1.373 . S
C2353 C2369 1.377 . S
C2354 C2352 1.389 . S
C2354 C2355 1.524 . S
C2354 C2368 1.377 . S
C2355 C2354 1.524 . S
C2355 C2356 1.397 . S
C2355 C2360 1.363 . S
C2356 H2333 0.950 . S
C2356 C2355 1.397 . S
C2356 C2357 1.334 . S
C2357 H2334 0.950 . S
C2357 C2356 1.334 . S
C2357 C2358 1.287 . S
C2358 C2357 1.287 . S
C2358 C2359 1.524 . S
C2358 H2377 0.913 . S
C2359 H2335 0.950 . S
C2359 C2358 1.524 . S
C2359 C2360 1.415 . S
C2360 H2336 0.950 . S
C2360 C2355 1.363 . S
C2360 C2359 1.415 . S
C2361 H2337 0.951 . S
C2361 C2362 1.366 . S
C2361 C2363 1.388 . S
C2362 C2361 1.366 . S
C2362 C2366 1.385 . S
C2363 H2338 0.951 . S
C2363 C2361 1.388 . S
C2363 C2364 1.366 . S
C2364 C2363 1.366 . S
C2364 C2365 1.414 . S
C2364 C2367 1.499 . S
C2365 H2339 0.950 . S
C2365 C2364 1.414 . S
C2365 C2366 1.374 . S
C2366 H2340 0.950 . S
C2366 C2362 1.385 . S
C2366 C2365 1.374 . S
C2367 C2364 1.499 . S
C2367 C2368 1.373 . S
C2367 C2369 1.389 . S
C2368 H2341 0.950 . S
C2368 C2354 1.377 . S
C2368 C2367 1.373 . S
C2369 C2353 1.377 . S
C2369 C2367 1.389 . S
C2369 C2370 1.524 . S
C2370 C2369 1.524 . S
C2370 C2371 1.397 . S
C2370 C2375 1.363 . S
C2371 H2342 0.950 . S
C2371 C2370 1.397 . S
C2371 C2372 1.334 . S
C2372 H2343 0.950 . S
C2372 C2371 1.334 . S
C2372 C2373 1.287 . S
C2373 C2372 1.287 . S
C2373 C2374 1.524 . S
C2373 H2376 0.999 . S
C2374 H2344 0.950 . S
C2374 C2373 1.524 . S
C2374 C2375 1.415 . S
C2375 H2345 0.950 . S
C2375 C2370 1.363 . S
C2375 C2374 1.415 . S
H2376 C2373 0.999 . S
H2377 C2358 0.913 . S
H2378 C2396 0.951 . S
H2379 C2398 0.951 . S
H2380 C2400 0.950 . S
H2381 C2401 0.950 . S
H2382 C2403 0.950 . S
H2383 C2406 0.950 . S
H2384 C2407 0.950 . S
H2385 C2409 0.950 . S
H2386 C2410 0.950 . S
H2387 C2411 0.951 . S
H2388 C2413 0.951 . S
H2389 C2415 0.950 . S
H2390 C2416 0.950 . S
H2391 C2418 0.950 . S
H2392 C2421 0.950 . S
H2393 C2422 0.950 . S
H2394 C2424 0.950 . S
H2395 C2425 0.950 . S
C2396 H2378 0.951 . S
C2396 C2397 1.366 . S
C2396 C2398 1.388 . S
C2397 C2396 1.366 . S
C2397 C2401 1.385 . S
C2398 H2379 0.951 . S
C2398 C2396 1.388 . S
C2398 C2399 1.366 . S
C2399 C2398 1.366 . S
C2399 C2400 1.414 . S
C2399 C2402 1.499 . S
C2400 H2380 0.950 . S
C2400 C2399 1.414 . S
C2400 C2401 1.374 . S
C2401 H2381 0.950 . S
C2401 C2397 1.385 . S
C2401 C2400 1.374 . S
C2402 C2399 1.499 . S
C2402 C2403 1.373 . S
C2402 C2404 1.389 . S
C2403 H2382 0.950 . S
C2403 C2402 1.373 . S
C2403 C2419 1.377 . S
C2404 C2402 1.389 . S
C2404 C2405 1.524 . S
C2404 C2418 1.377 . S
C2405 C2404 1.524 . S
C2405 C2406 1.397 . S
C2405 C2410 1.363 . S
C2406 H2383 0.950 . S
C2406 C2405 1.397 . S
C2406 C2407 1.334 . S
C2407 H2384 0.950 . S
C2407 C2406 1.334 . S
C2407 C2408 1.287 . S
C2408 C2407 1.287 . S
C2408 C2409 1.524 . S
C2408 H2427 0.913 . S
C2409 H2385 0.950 . S
C2409 C2408 1.524 . S
C2409 C2410 1.415 . S
C2410 H2386 0.950 . S
C2410 C2405 1.363 . S
C2410 C2409 1.415 . S
C2411 H2387 0.951 . S
C2411 C2412 1.366 . S
C2411 C2413 1.388 . S
C2412 C2411 1.366 . S
C2412 C2416 1.385 . S
C2413 H2388 0.951 . S
C2413 C2411 1.388 . S
C2413 C2414 1.366 . S
C2414 C2413 1.366 . S
C2414 C2415 1.414 . S
C2414 C2417 1.499 . S
C2415 H2389 0.950 . S
C2415 C2414 1.414 . S
C2415 C2416 1.374 . S
C2416 H2390 0.950 . S
C2416 C2412 1.385 . S
C2416 C2415 1.374 . S
C2417 C2414 1.499 . S
C2417 C2418 1.373 . S
C2417 C2419 1.389 . S
C2418 H2391 0.950 . S
C2418 C2404 1.377 . S
C2418 C2417 1.373 . S
C2419 C2403 1.377 . S
C2419 C2417 1.389 . S
C2419 C2420 1.524 . S
C2420 C2419 1.524 . S
C2420 C2421 1.397 . S
C2420 C2425 1.363 . S
C2421 H2392 0.950 . S
C2421 C2420 1.397 . S
C2421 C2422 1.334 . S
C2422 H2393 0.950 . S
C2422 C2421 1.334 . S
C2422 C2423 1.287 . S
C2423 C2422 1.287 . S
C2423 C2424 1.524 . S
C2423 H2426 0.999 . S
C2424 H2394 0.950 . S
C2424 C2423 1.524 . S
C2424 C2425 1.415 . S
C2425 H2395 0.950 . S
C2425 C2420 1.363 . S
C2425 C2424 1.415 . S
H2426 C2423 0.999 . S
H2427 C2408 0.913 . S
H2428 C2446 0.951 . S
H2429 C2448 0.951 . S
H2430 C2450 0.950 . S
H2431 C2451 0.950 . S
H2432 C2453 0.950 . S
H2433 C2456 0.950 . S
H2434 C2457 0.950 . S
H2435 C2459 0.950 . S
H2436 C2460 0.950 . S
H2437 C2461 0.951 . S
H2438 C2463 0.951 . S
H2439 C2465 0.950 . S
H2440 C2466 0.950 . S
H2441 C2468 0.950 . S
H2442 C2471 0.950 . S
H2443 C2472 0.950 . S
H2444 C2474 0.950 . S
H2445 C2475 0.950 . S
C2446 H2428 0.951 . S
C2446 C2447 1.366 . S
C2446 C2448 1.388 . S
C2447 C2446 1.366 . S
C2447 C2451 1.385 . S
C2448 H2429 0.951 . S
C2448 C2446 1.388 . S
C2448 C2449 1.366 . S
C2449 C2448 1.366 . S
C2449 C2450 1.414 . S
C2449 C2452 1.499 . S
C2450 H2430 0.950 . S
C2450 C2449 1.414 . S
C2450 C2451 1.374 . S
C2451 H2431 0.950 . S
C2451 C2447 1.385 . S
C2451 C2450 1.374 . S
C2452 C2449 1.499 . S
C2452 C2453 1.373 . S
C2452 C2454 1.389 . S
C2453 H2432 0.950 . S
C2453 C2452 1.373 . S
C2453 C2469 1.377 . S
C2454 C2452 1.389 . S
C2454 C2455 1.524 . S
C2454 C2468 1.377 . S
C2455 C2454 1.524 . S
C2455 C2456 1.397 . S
C2455 C2460 1.363 . S
C2456 H2433 0.950 . S
C2456 C2455 1.397 . S
C2456 C2457 1.334 . S
C2457 H2434 0.950 . S
C2457 C2456 1.334 . S
C2457 C2458 1.287 . S
C2458 C2457 1.287 . S
C2458 C2459 1.524 . S
C2458 H2477 0.913 . S
C2459 H2435 0.950 . S
C2459 C2458 1.524 . S
C2459 C2460 1.415 . S
C2460 H2436 0.950 . S
C2460 C2455 1.363 . S
C2460 C2459 1.415 . S
C2461 H2437 0.951 . S
C2461 C2462 1.366 . S
C2461 C2463 1.388 . S
C2462 C2461 1.366 . S
C2462 C2466 1.385 . S
C2463 H2438 0.951 . S
C2463 C2461 1.388 . S
C2463 C2464 1.366 . S
C2464 C2463 1.366 . S
C2464 C2465 1.414 . S
C2464 C2467 1.499 . S
C2465 H2439 0.950 . S
C2465 C2464 1.414 . S
C2465 C2466 1.374 . S
C2466 H2440 0.950 . S
C2466 C2462 1.385 . S
C2466 C2465 1.374 . S
C2467 C2464 1.499 . S
C2467 C2468 1.373 . S
C2467 C2469 1.389 . S
C2468 H2441 0.950 . S
C2468 C2454 1.377 . S
C2468 C2467 1.373 . S
C2469 C2453 1.377 . S
C2469 C2467 1.389 . S
C2469 C2470 1.524 . S
C2470 C2469 1.524 . S
C2470 C2471 1.397 . S
C2470 C2475 1.363 . S
C2471 H2442 0.950 . S
C2471 C2470 1.397 . S
C2471 C2472 1.334 . S
C2472 H2443 0.950 . S
C2472 C2471 1.334 . S
C2472 C2473 1.287 . S
C2473 C2472 1.287 . S
C2473 C2474 1.524 . S
C2473 H2476 0.999 . S
C2474 H2444 0.950 . S
C2474 C2473 1.524 . S
C2474 C2475 1.415 . S
C2475 H2445 0.950 . S
C2475 C2470 1.363 . S
C2475 C2474 1.415 . S
H2476 C2473 0.999 . S
H2477 C2458 0.913 . S
H2478 C2496 0.951 . S
H2479 C2498 0.951 . S
H2480 C2500 0.950 . S
H2481 C2501 0.950 . S
H2482 C2503 0.950 . S
H2483 C2506 0.950 . S
H2484 C2507 0.950 . S
H2485 C2509 0.950 . S
H2486 C2510 0.950 . S
H2487 C2511 0.951 . S
H2488 C2513 0.951 . S
H2489 C2515 0.950 . S
H2490 C2516 0.950 . S
H2491 C2518 0.950 . S
H2492 C2521 0.950 . S
H2493 C2522 0.950 . S
H2494 C2524 0.950 . S
H2495 C2525 0.950 . S
C2496 H2478 0.951 . S
C2496 C2497 1.366 . S
C2496 C2498 1.388 . S
C2497 C2496 1.366 . S
C2497 C2501 1.385 . S
C2498 H2479 0.951 . S
C2498 C2496 1.388 . S
C2498 C2499 1.366 . S
C2499 C2498 1.366 . S
C2499 C2500 1.414 . S
C2499 C2502 1.499 . S
C2500 H2480 0.950 . S
C2500 C2499 1.414 . S
C2500 C2501 1.374 . S
C2501 H2481 0.950 . S
C2501 C2497 1.385 . S
C2501 C2500 1.374 . S
C2502 C2499 1.499 . S
C2502 C2503 1.373 . S
C2502 C2504 1.389 . S
C2503 H2482 0.950 . S
C2503 C2502 1.373 . S
C2503 C2519 1.377 . S
C2504 C2502 1.389 . S
C2504 C2505 1.524 . S
C2504 C2518 1.377 . S
C2505 C2504 1.524 . S
C2505 C2506 1.397 . S
C2505 C2510 1.363 . S
C2506 H2483 0.950 . S
C2506 C2505 1.397 . S
C2506 C2507 1.334 . S
C2507 H2484 0.950 . S
C2507 C2506 1.334 . S
C2507 C2508 1.287 . S
C2508 C2507 1.287 . S
C2508 C2509 1.524 . S
C2508 H2527 0.913 . S
C2509 H2485 0.950 . S
C2509 C2508 1.524 . S
C2509 C2510 1.415 . S
C2510 H2486 0.950 . S
C2510 C2505 1.363 . S
C2510 C2509 1.415 . S
C2511 H2487 0.951 . S
C2511 C2512 1.366 . S
C2511 C2513 1.388 . S
C2512 C2511 1.366 . S
C2512 C2516 1.385 . S
C2513 H2488 0.951 . S
C2513 C2511 1.388 . S
C2513 C2514 1.366 . S
C2514 C2513 1.366 . S
C2514 C2515 1.414 . S
C2514 C2517 1.499 . S
C2515 H2489 0.950 . S
C2515 C2514 1.414 . S
C2515 C2516 1.374 . S
C2516 H2490 0.950 . S
C2516 C2512 1.385 . S
C2516 C2515 1.374 . S
C2517 C2514 1.499 . S
C2517 C2518 1.373 . S
C2517 C2519 1.389 . S
C2518 H2491 0.950 . S
C2518 C2504 1.377 . S
C2518 C2517 1.373 . S
C2519 C2503 1.377 . S
C2519 C2517 1.389 . S
C2519 C2520 1.524 . S
C2520 C2519 1.524 . S
C2520 C2521 1.397 . S
C2520 C2525 1.363 . S
C2521 H2492 0.950 . S
C2521 C2520 1.397 . S
C2521 C2522 1.334 . S
C2522 H2493 0.950 . S
C2522 C2521 1.334 . S
C2522 C2523 1.287 . S
C2523 C2522 1.287 . S
C2523 C2524 1.524 . S
C2523 H2526 0.999 . S
C2524 H2494 0.950 . S
C2524 C2523 1.524 . S
C2524 C2525 1.415 . S
C2525 H2495 0.950 . S
C2525 C2520 1.363 . S
C2525 C2524 1.415 . S
H2526 C2523 0.999 . S
H2527 C2508 0.913 . S
C547 C18 1.481 . S
C562 C216 1.482 . S
C597 C249 1.481 . S
C612 C51 1.482 . S
C647 C150 1.481 . S
C662 C84 1.481 . S
C697 C183 1.481 . S
C712 C117 1.481 . S
C747 C282 1.482 . S
C762 C480 1.482 . S
C797 C315 1.482 . S
C812 C513 1.481 . S
C847 C414 1.482 . S
C862 C348 1.482 . S
C897 C381 1.482 . S
C912 C447 1.482 . S
C947 N266 2.202 . S
C962 N2 2.202 . S
C997 N299 2.201 . S
C1012 N35 2.201 . S
C1047 N332 2.202 . S
C1062 N68 2.202 . S
C1097 N365 2.202 . S
C1112 N101 2.202 . S
C1147 N398 2.202 . S
C1162 N134 2.202 . S
C1197 N431 2.202 . S
C1212 N167 2.202 . S
C1247 N200 2.201 . S
C1262 N464 2.201 . S
C1297 N233 2.202 . S
C1312 N497 2.202 . S
C1347 C318 0.463 . S
C1362 C7 0.346 . S
C1397 C351 0.463 . S
C1412 C40 0.344 . S
C1447 C384 0.466 . S
C1462 C73 0.341 . S
C1497 C285 0.465 . S
C1512 C106 0.342 . S
C1547 C139 0.342 . S
C1562 C516 0.466 . S
C1597 C172 0.345 . S
C1612 C417 0.462 . S
C1647 C205 0.343 . S
C1662 C450 0.466 . S
C1697 C238 0.345 . S
C1712 C483 0.462 . S
C1747 C54 0.462 . S
C1762 C271 0.345 . S
C1797 C87 0.465 . S
C1812 C304 0.342 . S
C1847 C120 0.465 . S
C1862 C337 0.342 . S
C1897 C21 0.466 . S
C1912 C370 0.341 . S
C1947 C252 0.466 . S
C1962 C403 0.341 . S
C1997 C153 0.462 . S
C2012 C436 0.346 . S
C2047 C186 0.466 . S
C2062 C469 0.343 . S
C2097 C502 0.346 . S
C2112 C219 0.462 . S
C2147 N79 0.590 . S
C2162 N13 0.593 . S
C2197 N112 0.589 . S
C2212 N46 0.592 . S
C2247 N145 0.593 . S
C2262 N211 0.590 . S
C2297 N244 0.588 . S
C2312 N178 0.592 . S
C2347 N277 0.591 . S
C2362 N343 0.588 . S
C2397 N376 0.589 . S
C2412 N310 0.593 . S
C2447 N409 0.589 . S
C2462 N475 0.593 . S
C2497 N442 0.593 . S
C2512 N508 0.590 . S
