# Generated by pormake.
# Topology uov, (4)-cn, num edge types: 1
# Building blocks:
#     Node 0, Type 0, BuildingBlock: UXUYUI_clean_sbu_0, # of connection points: 4
#     Node 1, Type 0, BuildingBlock: UXUYUI_clean_sbu_0, # of connection points: 4
#     Node 2, Type 0, BuildingBlock: UXUYUI_clean_sbu_0, # of connection points: 4
#     Node 3, Type 0, BuildingBlock: UXUYUI_clean_sbu_0, # of connection points: 4
#     Node 4, Type 0, BuildingBlock: UXUYUI_clean_sbu_0, # of connection points: 4
#     Node 5, Type 0, BuildingBlock: UXUYUI_clean_sbu_0, # of connection points: 4
#     Node 6, Type 0, BuildingBlock: UXUYUI_clean_sbu_0, # of connection points: 4
#     Node 7, Type 0, BuildingBlock: UXUYUI_clean_sbu_0, # of connection points: 4
#     Edge 8, Type (0, 0), BuildingBlock: MIFKUJ_clean_linker_0, # of connection points: 2
#     Edge 9, Type (0, 0), BuildingBlock: MIFKUJ_clean_linker_0, # of connection points: 2
#     Edge 10, Type (0, 0), BuildingBlock: MIFKUJ_clean_linker_0, # of connection points: 2
#     Edge 11, Type (0, 0), BuildingBlock: MIFKUJ_clean_linker_0, # of connection points: 2
#     Edge 12, Type (0, 0), BuildingBlock: MIFKUJ_clean_linker_0, # of connection points: 2
#     Edge 13, Type (0, 0), BuildingBlock: MIFKUJ_clean_linker_0, # of connection points: 2
#     Edge 14, Type (0, 0), BuildingBlock: MIFKUJ_clean_linker_0, # of connection points: 2
#     Edge 15, Type (0, 0), BuildingBlock: MIFKUJ_clean_linker_0, # of connection points: 2
#     Edge 16, Type (0, 0), BuildingBlock: MIFKUJ_clean_linker_0, # of connection points: 2
#     Edge 17, Type (0, 0), BuildingBlock: MIFKUJ_clean_linker_0, # of connection points: 2
#     Edge 18, Type (0, 0), BuildingBlock: MIFKUJ_clean_linker_0, # of connection points: 2
#     Edge 19, Type (0, 0), BuildingBlock: MIFKUJ_clean_linker_0, # of connection points: 2
#     Edge 20, Type (0, 0), BuildingBlock: MIFKUJ_clean_linker_0, # of connection points: 2
#     Edge 21, Type (0, 0), BuildingBlock: MIFKUJ_clean_linker_0, # of connection points: 2
#     Edge 22, Type (0, 0), BuildingBlock: MIFKUJ_clean_linker_0, # of connection points: 2
#     Edge 23, Type (0, 0), BuildingBlock: MIFKUJ_clean_linker_0, # of connection points: 2
# Relax obj value: 0.339
# Max RMSD: 0.266
# Mean RMSD: 0.265
data_MOF--net-uov--node1-UXUYUI_clean_sbu_0--edge1-MIFKUJ_clean_linker_0
_symmetry_space_group_name_H-M    P1
_symmetry_Int_Tables_number       1
_symmetry_cell_setting            triclinic
loop_
_symmetry_equiv_pos_as_xyz
'x, y, z'
_cell_length_a     52.103404
_cell_length_b     52.106947
_cell_length_c     74.414544
_cell_angle_alpha  89.9877
_cell_angle_beta   89.984551
_cell_angle_gamma 90.234713
loop_
_atom_site_label
_atom_site_type_symbol
_atom_site_fract_x
_atom_site_fract_y
_atom_site_fract_z
_atom_type_partial_charge
Li0 Li 0.0246 0.23637 0.62391 0.0
Li1 Li 0.01212 0.27912 0.61271 0.0
Li2 Li 0.98647 0.24222 0.60634 0.0
Li3 Li 0.0274 0.24747 0.59165 0.0
C4 C 0.96995 0.25868 0.63737 0.0
N5 N 0.9204 0.26161 0.65042 0.0
C6 C 0.9567 0.28193 0.63682 0.0
C7 C 0.95808 0.23697 0.6447 0.0
C8 C 0.93165 0.28301 0.64346 0.0
C9 C 0.93299 0.23882 0.65118 0.0
C10 C 0.06484 0.27955 0.60564 0.0
C11 C 0.07762 0.31364 0.58559 0.0
N12 N 0.1016 0.31321 0.5928 0.0
C13 C 0.08959 0.27942 0.61285 0.0
C14 C 0.05877 0.29677 0.59189 0.0
C15 C 0.10792 0.2966 0.60617 0.0
C16 C 0.06481 0.20831 0.63863 0.0
N17 N 0.04136 0.21828 0.64234 0.0
C18 C 0.04252 0.20144 0.67213 0.0
C19 C 0.03012 0.21533 0.65869 0.0
C20 C 0.06679 0.19089 0.66871 0.0
C21 C 0.07802 0.19453 0.65174 0.0
H22 H 0.07316 0.21103 0.62545 0.0
H23 H 0.01149 0.22365 0.66122 0.0
C24 C 0.00114 0.33129 0.60746 0.0
N25 N 0.01259 0.3142 0.6186 0.0
C26 C 0.00091 0.3573 0.61182 0.0
C27 C 0.02442 0.34754 0.639 0.0
C28 C 0.0242 0.3217 0.63409 0.0
C29 C 0.01253 0.36569 0.62783 0.0
H30 H 0.99214 0.32468 0.59523 0.0
H31 H 0.0331 0.30752 0.64266 0.0
C32 C 0.00969 0.19045 0.60424 0.0
N33 N 0.0021 0.13804 0.60663 0.0
C34 C 0.0134 0.17487 0.58918 0.0
C35 C 0.00213 0.17936 0.62052 0.0
C36 C 0.00944 0.14842 0.59066 0.0
C37 C 0.9984 0.15283 0.62146 0.0
C38 C 0.98556 0.26537 0.57281 0.0
C39 C 0.98387 0.24037 0.56604 0.0
C40 C 0.97517 0.28564 0.56292 0.0
C41 C 0.97177 0.23608 0.54955 0.0
C42 C 0.96327 0.28057 0.54647 0.0
N43 N 0.96181 0.2561 0.54019 0.0
C44 C 0.93485 0.25103 0.59857 0.0
C45 C 0.94489 0.20679 0.59993 0.0
C46 C 0.91037 0.24548 0.59203 0.0
N47 N 0.95175 0.23181 0.60195 0.0
C48 C 0.92069 0.20036 0.59331 0.0
C49 C 0.90333 0.21987 0.58872 0.0
H50 H 0.94089 0.2708 0.60007 0.0
H51 H 0.95851 0.19177 0.60245 0.0
C52 C 0.0619 0.21945 0.57155 0.0
N53 N 0.04709 0.24078 0.5708 0.0
C54 C 0.07524 0.21127 0.5564 0.0
C55 C 0.05892 0.24797 0.54017 0.0
C56 C 0.04578 0.25541 0.55568 0.0
C57 C 0.07341 0.22529 0.54033 0.0
H58 H 0.06279 0.20843 0.58386 0.0
H59 H 0.03405 0.27247 0.55551 0.0
O60 O 0.99434 0.25714 0.63065 0.0
O61 O 0.04675 0.26279 0.61205 0.0
O62 O 0.01376 0.21636 0.60302 0.0
O63 O 0.99664 0.27011 0.5892 0.0
H64 H 0.96554 0.29892 0.63118 0.0
H65 H 0.96801 0.21882 0.64525 0.0
H66 H 0.92112 0.30085 0.64303 0.0
H67 H 0.92351 0.22214 0.65678 0.0
H68 H 0.07319 0.32707 0.57495 0.0
H69 H 0.09457 0.26617 0.62349 0.0
H70 H 0.03972 0.29714 0.58614 0.0
H71 H 0.12716 0.29672 0.61162 0.0
H72 H 0.0334 0.19926 0.68513 0.0
H73 H 0.09664 0.18652 0.64859 0.0
H74 H 0.99188 0.3707 0.60269 0.0
H75 H 0.03338 0.35318 0.65153 0.0
H76 H 0.01916 0.18312 0.57645 0.0
H77 H -0.00109 0.19109 0.63224 0.0
H78 H 0.01221 0.13614 0.5791 0.0
H79 H 0.9925 0.14402 0.63396 0.0
H80 H 0.99162 0.22436 0.57341 0.0
H81 H 0.97617 0.3051 0.56793 0.0
H82 H 0.97026 0.21681 0.54423 0.0
H83 H 0.95513 0.2961 0.53871 0.0
H84 H 0.89754 0.26113 0.58884 0.0
H85 H 0.91637 0.18037 0.5907 0.0
H86 H 0.08661 0.19395 0.55717 0.0
H87 H 0.05701 0.25927 0.52804 0.0
Li88 Li 0.24773 0.00587 0.39003 0.0
Li89 Li 0.28328 0.98262 0.3794 0.0
Li90 Li 0.24185 0.97277 0.36598 0.0
Li91 Li 0.25338 0.96028 0.3973 0.0
C92 C 0.27767 0.02168 0.35666 0.0
N93 N 0.31366 0.05238 0.33972 0.0
C94 C 0.28469 0.0453 0.36413 0.0
C95 C 0.28883 0.01375 0.34051 0.0
C96 C 0.30292 0.06054 0.35536 0.0
C97 C 0.30705 0.0295 0.33219 0.0
C98 C 0.29706 0.99658 0.41252 0.0
C99 C 0.33929 0.98555 0.42324 0.0
N100 N 0.34347 0.01054 0.42767 0.0
C101 C 0.30172 0.02213 0.41727 0.0
C102 C 0.31592 0.97809 0.41563 0.0
C103 C 0.32532 0.02881 0.42489 0.0
C104 C 0.23197 0.03779 0.41764 0.0
N105 N 0.23389 0.03657 0.39947 0.0
C106 C 0.21126 0.07609 0.39628 0.0
C107 C 0.22413 0.05523 0.38871 0.0
C108 C 0.20818 0.07729 0.41501 0.0
C109 C 0.21906 0.05805 0.42574 0.0
H110 H 0.2397 0.02246 0.42579 0.0
H111 H 0.2256 0.05346 0.37426 0.0
C112 C 0.32907 0.96503 0.36373 0.0
N113 N 0.31869 0.985 0.37292 0.0
C114 C 0.35469 0.96591 0.35828 0.0
C115 C 0.35837 0.00799 0.37171 0.0
C116 C 0.33271 0.00634 0.37681 0.0
C117 C 0.36971 0.9876 0.36232 0.0
H118 H 0.3174 0.94847 0.36051 0.0
H119 H 0.32401 0.02217 0.38384 0.0
C120 C 0.20083 0.98794 0.39602 0.0
N121 N 0.15971 0.01237 0.41194 0.0
C122 C 0.19604 0.98476 0.41437 0.0
C123 C 0.18469 0.00351 0.38576 0.0
C124 C 0.17513 0.99726 0.42217 0.0
C125 C 0.16401 0.01571 0.39406 0.0
C126 C 0.2687 0.92283 0.37697 0.0
C127 C 0.24838 0.90773 0.37067 0.0
C128 C 0.28861 0.91143 0.38664 0.0
C129 C 0.24822 0.88142 0.37431 0.0
C130 C 0.28775 0.88507 0.39001 0.0
N131 N 0.26773 0.87074 0.38384 0.0
C132 C 0.23779 0.95581 0.33053 0.0
C133 C 0.198 0.95873 0.34586 0.0
C134 C 0.22565 0.94569 0.3154 0.0
N135 N 0.22387 0.96206 0.34531 0.0
C136 C 0.18506 0.94864 0.33102 0.0
C137 C 0.19896 0.94173 0.31559 0.0
H138 H 0.25841 0.95804 0.33069 0.0
H139 H 0.18754 0.96315 0.358 0.0
C140 C 0.26065 0.93281 0.43009 0.0
N141 N 0.24612 0.9351 0.415 0.0
C142 C 0.25273 0.91662 0.44401 0.0
C143 C 0.21547 0.90505 0.42635 0.0
C144 C 0.22419 0.92127 0.41275 0.0
C145 C 0.22949 0.90308 0.4424 0.0
H146 H 0.27776 0.94435 0.43165 0.0
H147 H 0.21291 0.92373 0.40068 0.0
O148 O 0.26006 0.00637 0.36515 0.0
O149 O 0.27404 0.98968 0.40509 0.0
O150 O 0.22174 0.97662 0.38827 0.0
O151 O 0.26891 0.94871 0.37394 0.0
H152 H 0.27652 0.05161 0.37672 0.0
H153 H 0.28372 0.99551 0.33459 0.0
H154 H 0.30866 0.07878 0.36105 0.0
H155 H 0.31597 0.02352 0.31976 0.0
H156 H 0.35412 0.97148 0.42559 0.0
H157 H 0.28739 0.03671 0.41491 0.0
H158 H 0.31267 0.95826 0.41199 0.0
H159 H 0.32925 0.04854 0.42853 0.0
H160 H 0.20289 0.0905 0.38761 0.0
H161 H 0.2172 0.05844 0.44024 0.0
H162 H 0.36256 0.9499 0.35085 0.0
H163 H 0.36929 0.02494 0.37536 0.0
H164 H 0.20855 0.97312 0.42259 0.0
H165 H 0.18839 0.00653 0.3716 0.0
H166 H 0.17128 0.99509 0.43637 0.0
H167 H 0.15149 0.02797 0.38631 0.0
H168 H 0.23273 0.91625 0.36325 0.0
H169 H 0.30451 0.92285 0.39155 0.0
H170 H 0.23255 0.86951 0.36961 0.0
H171 H 0.30297 0.876 0.39755 0.0
H172 H 0.23708 0.94077 0.30375 0.0
H173 H 0.16454 0.94544 0.33187 0.0
H174 H 0.26388 0.91581 0.45628 0.0
H175 H 0.19753 0.89479 0.42459 0.0
Li176 Li 0.96979 0.76655 0.62674 0.0
Li177 Li 0.98258 0.72251 0.61956 0.0
Li178 Li 0.0026 0.75881 0.60571 0.0
Li179 Li 0.95944 0.74923 0.59761 0.0
C180 C 0.02592 0.75988 0.63645 0.0
N181 N 0.07307 0.78124 0.64476 0.0
C182 C 0.04795 0.74469 0.63642 0.0
C183 C 0.02784 0.78593 0.64078 0.0
C184 C 0.07162 0.75585 0.64063 0.0
C185 C 0.05186 0.79636 0.64494 0.0
C186 C 0.93188 0.7364 0.63619 0.0
C187 C 0.89165 0.7451 0.65101 0.0
N188 N 0.90224 0.73822 0.66699 0.0
C189 C 0.94233 0.72936 0.65278 0.0
C190 C 0.9063 0.74428 0.63529 0.0
C191 C 0.92705 0.7304 0.66818 0.0
C192 C 0.93859 0.80534 0.64097 0.0
N193 N 0.95732 0.78828 0.64509 0.0
C194 C 0.95592 0.80032 0.676 0.0
C195 C 0.96626 0.78565 0.66213 0.0
C196 C 0.93627 0.81793 0.67225 0.0
C197 C 0.92775 0.8205 0.65441 0.0
H198 H 0.93181 0.80683 0.62727 0.0
H199 H 0.98099 0.77167 0.66501 0.0
C200 C 0.01055 0.67745 0.62547 0.0
N201 N 0.98706 0.68829 0.62747 0.0
C202 C 0.01426 0.65169 0.62983 0.0
C203 C 0.9695 0.6488 0.63822 0.0
C204 C 0.96663 0.67453 0.63357 0.0
C205 C 0.99351 0.63696 0.63621 0.0
H206 H 0.02618 0.68861 0.61993 0.0
H207 H 0.94794 0.6833 0.63441 0.0
C208 C 0.9754 0.79749 0.58793 0.0
N209 N 0.97791 0.82605 0.55667 0.0
C210 C 0.98627 0.78701 0.5724 0.0
C211 C 0.9658 0.82248 0.58754 0.0
C212 C 0.98737 0.80176 0.55675 0.0
C213 C 0.96725 0.83661 0.57161 0.0
C214 C 0.984 0.70539 0.58465 0.0
C215 C 0.00098 0.69478 0.57218 0.0
C216 C 0.96047 0.69325 0.58796 0.0
C217 C 0.99415 0.6722 0.56322 0.0
C218 C 0.95436 0.6707 0.57874 0.0
N219 N 0.97119 0.66072 0.56667 0.0
C220 C 0.05054 0.75521 0.58808 0.0
C221 C 0.03906 0.79715 0.59737 0.0
C222 C 0.07233 0.76471 0.57936 0.0
N223 N 0.03422 0.77154 0.5965 0.0
C224 C 0.06059 0.80746 0.58888 0.0
C225 C 0.07721 0.79126 0.57933 0.0
H226 H 0.04615 0.73492 0.58764 0.0
H227 H 0.02573 0.80967 0.6042 0.0
C228 C 0.91203 0.76104 0.58164 0.0
N229 N 0.93532 0.75042 0.57836 0.0
C230 C 0.89482 0.76521 0.56758 0.0
C231 C 0.92592 0.74749 0.54699 0.0
C232 C 0.9424 0.74342 0.56147 0.0
C233 C 0.9019 0.75894 0.54989 0.0
H234 H 0.90724 0.76721 0.59506 0.0
H235 H 0.96133 0.7358 0.55905 0.0
O236 O 0.00265 0.74946 0.63197 0.0
O237 O 0.94686 0.73623 0.62107 0.0
O238 O 0.97385 0.78346 0.60345 0.0
O239 O 0.99071 0.72734 0.59363 0.0
H240 H 0.04685 0.72454 0.63307 0.0
H241 H 0.01107 0.79808 0.64061 0.0
H242 H 0.08885 0.74434 0.64058 0.0
H243 H 0.05365 0.81652 0.6482 0.0
H244 H 0.87185 0.75123 0.6505 0.0
H245 H 0.9622 0.72356 0.65379 0.0
H246 H 0.89779 0.74972 0.62263 0.0
H247 H 0.93497 0.72517 0.6811 0.0
H248 H 0.96275 0.79736 0.68958 0.0
H249 H 0.91283 0.834 0.65089 0.0
H250 H 0.03294 0.6432 0.62763 0.0
H251 H 0.953 0.63822 0.64313 0.0
H252 H 0.99377 0.76771 0.57239 0.0
H253 H 0.95729 0.83085 0.59944 0.0
H254 H 0.99572 0.79388 0.54465 0.0
H255 H 0.95988 0.85598 0.57112 0.0
H256 H 0.01927 0.70391 0.56945 0.0
H257 H 0.947 0.70108 0.59751 0.0
H258 H 0.00713 0.6638 0.55354 0.0
H259 H 0.93624 0.66111 0.58119 0.0
H260 H 0.08453 0.75158 0.57203 0.0
H261 H 0.06385 0.82799 0.58941 0.0
H262 H 0.87645 0.77391 0.57051 0.0
H263 H 0.93253 0.74289 0.53358 0.0
Li264 Li 0.77005 0.0242 0.37626 0.0
Li265 Li 0.75447 0.03121 0.40672 0.0
Li266 Li 0.763 0.98941 0.39664 0.0
Li267 Li 0.7256 0.01015 0.38546 0.0
C268 C 0.80348 0.01379 0.41371 0.0
N269 N 0.8341 0.00642 0.44357 0.0
C270 C 0.79287 0.00419 0.42963 0.0
C271 C 0.82965 0.01965 0.413 0.0
C272 C 0.80867 0.0006 0.44457 0.0
C273 C 0.84481 0.01579 0.42823 0.0
C274 C 0.7401 0.0716 0.38444 0.0
C275 C 0.71716 0.11159 0.38682 0.0
N276 N 0.73969 0.12465 0.38515 0.0
C277 C 0.76298 0.08544 0.38254 0.0
C278 C 0.71695 0.08478 0.38641 0.0
C279 C 0.7624 0.11223 0.38303 0.0
C280 C 0.77504 0.04973 0.34382 0.0
N281 N 0.78879 0.03796 0.35691 0.0
C282 C 0.82819 0.04857 0.34228 0.0
C283 C 0.81483 0.03695 0.35641 0.0
C284 C 0.8145 0.06141 0.32874 0.0
C285 C 0.78757 0.0617 0.32955 0.0
H286 H 0.75431 0.05013 0.34466 0.0
H287 H 0.82517 0.02742 0.36708 0.0
C288 C 0.74351 0.05569 0.44122 0.0
N289 N 0.75839 0.05538 0.42617 0.0
C290 C 0.7485 0.0732 0.455 0.0
C291 C 0.78425 0.08961 0.43779 0.0
C292 C 0.77863 0.07174 0.4244 0.0
C293 C 0.76912 0.09045 0.45337 0.0
H294 H 0.72809 0.04215 0.4429 0.0
H295 H 0.79088 0.07051 0.41272 0.0
C296 C 0.75787 0.96776 0.36552 0.0
N297 N 0.77123 0.91863 0.35541 0.0
C298 C 0.74056 0.9475 0.36795 0.0
C299 C 0.78187 0.96314 0.35782 0.0
C300 C 0.74772 0.92276 0.36279 0.0
C301 C 0.78828 0.93813 0.35282 0.0
C302 C 0.71178 0.00518 0.42123 0.0
C303 C 0.70634 0.98974 0.43612 0.0
C304 C 0.69562 0.02568 0.41708 0.0
C305 C 0.68483 0.99515 0.44666 0.0
C306 C 0.67427 0.03044 0.42791 0.0
N307 N 0.66936 0.0152 0.44236 0.0
C308 C 0.80046 0.95042 0.40086 0.0
C309 C 0.75915 0.94084 0.4125 0.0
C310 C 0.80996 0.92719 0.40733 0.0
N311 N 0.77556 0.95686 0.40377 0.0
C312 C 0.76783 0.91748 0.41925 0.0
C313 C 0.79367 0.91056 0.41696 0.0
H314 H 0.81302 0.96357 0.39379 0.0
H315 H 0.73943 0.94651 0.41456 0.0
C316 C 0.68329 0.02316 0.36421 0.0
N317 N 0.69184 0.00642 0.37683 0.0
C318 C 0.65806 0.02159 0.35805 0.0
C319 C 0.65114 0.98541 0.37788 0.0
C320 C 0.67657 0.98753 0.38352 0.0
C321 C 0.6415 0.00271 0.36506 0.0
H322 H 0.69606 0.03786 0.35908 0.0
H323 H 0.68401 0.97447 0.39352 0.0
O324 O 0.78848 0.01759 0.39884 0.0
O325 O 0.74025 0.04533 0.38395 0.0
O326 O 0.75152 0.99196 0.37094 0.0
O327 O 0.73254 -0.00027 0.41065 0.0
H328 H 0.77268 -0.00044 0.43051 0.0
H329 H 0.83815 0.02715 0.4008 0.0
H330 H 0.80071 0.99319 0.45697 0.0
H331 H 0.8651 0.02026 0.42787 0.0
H332 H 0.69939 0.12202 0.3884 0.0
H333 H 0.78108 0.07564 0.38091 0.0
H334 H 0.69895 0.07448 0.3875 0.0
H335 H 0.78 0.12315 0.38172 0.0
H336 H 0.84897 0.04807 0.34217 0.0
H337 H 0.77631 0.07106 0.31924 0.0
H338 H 0.7364 0.07315 0.46684 0.0
H339 H 0.80076 0.10209 0.43618 0.0
H340 H 0.72195 0.95082 0.37396 0.0
H341 H 0.79548 0.97865 0.35592 0.0
H342 H 0.73461 0.90684 0.3647 0.0
H343 H 0.80684 0.9342 0.34694 0.0
H344 H 0.71863 0.97377 0.43952 0.0
H345 H 0.69956 0.03784 0.40568 0.0
H346 H 0.68041 0.98338 0.45824 0.0
H347 H 0.66162 0.04626 0.42484 0.0
H348 H 0.82992 0.92248 0.40506 0.0
H349 H 0.75467 0.90548 0.42679 0.0
H350 H 0.65159 0.03508 0.34796 0.0
H351 H 0.63902 0.97082 0.38388 0.0
Li352 Li 0.94334 0.24813 0.09532 0.0
Li353 Li 0.95512 0.2365 0.12762 0.0
Li354 Li 0.96484 0.27837 0.11494 0.0
Li355 Li 0.98748 0.24213 0.10477 0.0
C356 C 0.91632 0.28429 0.12128 0.0
N357 N 0.89025 0.32954 0.12723 0.0
C358 C 0.91231 0.293 0.13881 0.0
C359 C 0.90699 0.29851 0.10677 0.0
C360 C 0.8991 0.31596 0.14154 0.0
C361 C 0.89387 0.32135 0.11006 0.0
C362 C 0.97002 0.19508 0.09741 0.0
C363 C -0.00132 0.1589 0.09891 0.0
N364 N 0.99306 0.15312 0.08153 0.0
C365 C 0.96432 0.18861 0.07962 0.0
C366 C 0.98712 0.17995 0.1072 0.0
C367 C 0.97623 0.16738 0.07181 0.0
C368 C 0.92712 0.2457 0.05945 0.0
N369 N 0.91925 0.24311 0.07676 0.0
C370 C 0.87766 0.22939 0.06728 0.0
C371 C 0.895 0.23555 0.08093 0.0
C372 C 0.8855 0.23093 0.04922 0.0
C373 C 0.91046 0.23969 0.04538 0.0
H374 H 0.94666 0.25147 0.05662 0.0
H375 H 0.88936 0.23369 0.09486 0.0
C376 C 0.94307 0.23127 0.16409 0.0
N377 N 0.94428 0.21852 0.1482 0.0
C378 C 0.93452 0.21865 0.17952 0.0
C379 C 0.92937 0.17988 0.16196 0.0
C380 C 0.9378 0.19332 0.14683 0.0
C381 C 0.92744 0.19266 0.17852 0.0
H382 H 0.94871 0.25124 0.16473 0.0
H383 H 0.93902 0.18374 0.13397 0.0
C384 C 0.99204 0.28569 0.08315 0.0
N385 N 0.03027 0.31751 0.07006 0.0
C386 C 0.01335 0.29163 0.09379 0.0
C387 C 0.99017 0.29595 0.06585 0.0
C388 C 0.03247 0.30774 0.08694 0.0
C389 C 0.00969 0.312 0.05948 0.0
C390 C 0.00671 0.2507 0.14078 0.0
C391 C 0.02485 0.26956 0.14512 0.0
C392 C 0.00878 0.22624 0.14835 0.0
C393 C 0.04498 0.26349 0.15675 0.0
C394 C 0.02917 0.22093 0.15993 0.0
N395 N 0.04672 0.2395 0.16384 0.0
C396 C 0.97393 0.31936 0.13838 0.0
C397 C 0.96476 0.33186 0.10841 0.0
C398 C 0.97844 0.34482 0.14328 0.0
N399 N 0.96771 0.31343 0.12115 0.0
C400 C 0.96927 0.35752 0.11267 0.0
C401 C 0.97664 0.36416 0.13022 0.0
H402 H 0.97592 0.30422 0.14822 0.0
H403 H 0.95939 0.32656 0.09487 0.0
C404 C 0.0182 0.22527 0.07709 0.0
N405 N 0.01932 0.2303 0.095 0.0
C406 C 0.03989 0.21692 0.06791 0.0
C407 C 0.06404 0.22012 0.09555 0.0
C408 C 0.04167 0.22796 0.10431 0.0
C409 C 0.06316 0.21436 0.07715 0.0
H410 H 0.00036 0.22793 0.06991 0.0
H411 H 0.04241 0.23235 0.11843 0.0
O412 O 0.92992 0.26233 0.11828 0.0
O413 O 0.95889 0.21611 0.10516 0.0
O414 O 0.97298 0.26999 0.08955 0.0
O415 O 0.98678 0.25647 0.12954 0.0
H416 H 0.91952 0.28228 0.15017 0.0
H417 H 0.91016 0.29214 0.09311 0.0
H418 H 0.89596 0.32301 0.15503 0.0
H419 H 0.88666 0.33263 0.09896 0.0
H420 H 0.01211 0.14716 0.1063 0.0
H421 H 0.951 0.19994 0.07186 0.0
H422 H 0.99161 0.18448 0.12101 0.0
H423 H 0.97213 0.16228 0.05801 0.0
H424 H 0.85852 0.22299 0.07082 0.0
H425 H 0.91746 0.24076 0.0317 0.0
H426 H 0.93358 0.22905 0.1921 0.0
H427 H 0.92387 0.1599 0.16063 0.0
H428 H 0.01515 0.28388 0.10717 0.0
H429 H 0.97376 0.29162 0.05746 0.0
H430 H 0.04907 0.31247 0.09504 0.0
H431 H 0.00848 0.32009 0.04612 0.0
H432 H 0.02344 0.28869 0.13955 0.0
H433 H 0.99482 0.2115 0.14537 0.0
H434 H 0.0592 0.27787 0.16015 0.0
H435 H 0.03103 0.20205 0.16582 0.0
H436 H 0.98417 0.3492 0.15693 0.0
H437 H 0.9673 0.37199 0.10231 0.0
H438 H 0.03862 0.213 0.05363 0.0
H439 H 0.08175 0.21838 0.10306 0.0
Li440 Li 0.24426 0.05759 0.90019 0.0
Li441 Li 0.23519 0.01244 0.89325 0.0
Li442 Li 0.27498 0.03289 0.88348 0.0
Li443 Li 0.23414 0.04347 0.8696 0.0
C444 C 0.2838 0.01858 0.91729 0.0
N445 N 0.32755 0.00105 0.9342 0.0
C446 C 0.28645 0.9925 0.92125 0.0
C447 C 0.30327 0.03578 0.92209 0.0
C448 C 0.30874 0.98401 0.92978 0.0
C449 C 0.32529 0.02653 0.93057 0.0
C450 C 0.18999 0.0333 0.89857 0.0
C451 C 0.1529 0.00548 0.8978 0.0
N452 N 0.14671 0.01299 0.91475 0.0
C453 C 0.18319 0.04085 0.91595 0.0
C454 C 0.17465 0.01559 0.88936 0.0
C455 C 0.16125 0.03034 0.9239 0.0
C456 C 0.22496 0.10443 0.91381 0.0
N457 N 0.23904 0.08332 0.91784 0.0
C458 C 0.24089 0.09545 0.94875 0.0
C459 C 0.2473 0.07871 0.93484 0.0
C460 C 0.2259 0.11722 0.94512 0.0
C461 C 0.21848 0.12192 0.92724 0.0
H462 H 0.21799 0.10724 0.90028 0.0
H463 H 0.25787 0.06141 0.93777 0.0
C464 C 0.21845 0.9604 0.89263 0.0
N465 N 0.22098 0.9819 0.90282 0.0
C466 C 0.208 0.93806 0.90008 0.0
C467 C 0.20316 0.96057 0.9283 0.0
C468 C 0.21395 0.98229 0.92039 0.0
C469 C 0.2 0.93813 0.91809 0.0
H470 H 0.22458 0.96058 0.87875 0.0
H471 H 0.21674 -0.00045 0.92823 0.0
C472 C 0.26494 0.09293 0.87879 0.0
N473 N 0.27015 0.14545 0.88242 0.0
C474 C 0.24881 0.10942 0.86925 0.0
C475 C 0.28385 0.10314 0.89005 0.0
C476 C 0.25173 0.13592 0.87129 0.0
C477 C 0.28613 0.12975 0.89176 0.0
C478 C 0.25026 0.00266 0.85223 0.0
C479 C 0.27139 0.00554 0.84082 0.0
C480 C 0.22709 0.9932 0.8454 0.0
C481 C 0.26889 -0.00088 0.82267 0.0
C482 C 0.22536 0.98706 0.82717 0.0
N483 N 0.24612 0.99012 0.81627 0.0
C484 C 0.31965 0.00336 0.8818 0.0
C485 C 0.32517 0.04677 0.87305 0.0
C486 C 0.34563 -0.00147 0.87908 0.0
N487 N 0.31014 0.02727 0.87911 0.0
C488 C 0.3512 0.04269 0.86979 0.0
C489 C 0.36185 0.01834 0.87298 0.0
H490 H 0.30704 0.98809 0.88621 0.0
H491 H 0.31691 0.06545 0.87064 0.0
C492 C 0.19236 0.05549 0.8471 0.0
N493 N 0.2183 0.05343 0.84784 0.0
C494 C 0.18046 0.06365 0.83133 0.0
C495 C 0.22226 0.06725 0.81738 0.0
C496 C 0.23334 0.05922 0.83347 0.0
C497 C 0.19546 0.06971 0.81619 0.0
H498 H 0.18093 0.05124 0.85885 0.0
H499 H 0.25398 0.05778 0.83459 0.0
O500 O 0.26228 0.02722 0.90874 0.0
O501 O 0.21167 0.04299 0.89068 0.0
O502 O 0.26229 0.06693 0.87707 0.0
O503 O 0.25219 0.00922 0.86996 0.0
H504 H 0.27158 0.97891 0.9176 0.0
H505 H 0.30146 0.05603 0.91918 0.0
H506 H 0.31113 0.96386 0.93283 0.0
H507 H 0.34059 0.0396 0.93426 0.0
H508 H 0.14098 0.9916 0.89088 0.0
H509 H 0.19483 0.05451 0.92329 0.0
H510 H 0.1797 0.00946 0.87594 0.0
H511 H 0.15582 0.03591 0.93738 0.0
H512 H 0.2466 0.09061 0.96232 0.0
H513 H 0.20718 0.13856 0.92371 0.0
H514 H 0.20584 0.92109 0.89181 0.0
H515 H 0.19763 0.96121 0.94233 0.0
H516 H 0.23404 0.10186 0.86049 0.0
H517 H 0.29653 0.09064 0.89748 0.0
H518 H 0.23931 0.14891 0.86407 0.0
H519 H 0.30059 0.13792 0.9005 0.0
H520 H 0.28945 0.01287 0.84587 0.0
H521 H 0.21054 0.99094 0.85404 0.0
H522 H 0.28504 0.00137 0.81366 0.0
H523 H 0.2075 0.9799 0.82167 0.0
H524 H 0.3529 0.97955 0.88199 0.0
H525 H 0.36275 0.0584 0.8647 0.0
H526 H 0.1598 0.0658 0.83117 0.0
H527 H 0.23456 0.07149 0.80602 0.0
Li528 Li 0.00081 0.7497 0.10723 0.0
Li529 Li 0.02931 0.71477 0.11567 0.0
Li530 Li 0.03765 0.75811 0.12559 0.0
Li531 Li 0.04372 0.74582 0.0942 0.0
C532 C 0.98361 0.73448 0.13826 0.0
N533 N 0.93356 0.73088 0.15031 0.0
C534 C 0.97161 0.71051 0.13962 0.0
C535 C 0.97018 0.75661 0.14308 0.0
C536 C 0.94629 0.7091 0.14574 0.0
C537 C 0.94487 0.75439 0.1491 0.0
C538 C 0.01445 0.71629 0.07405 0.0
C539 C 0.03448 0.69683 0.04821 0.0
N540 N 0.01601 0.70703 0.03749 0.0
C541 C 0.99562 0.72651 0.06277 0.0
C542 C 0.03398 0.70123 0.06673 0.0
C543 C 0.99676 0.72162 0.04433 0.0
C544 C 0.96408 0.78326 0.09398 0.0
N545 N 0.96701 0.75917 0.10062 0.0
C546 C 0.92489 0.74736 0.09085 0.0
C547 C 0.94787 0.74139 0.09956 0.0
C548 C 0.92207 0.7716 0.08291 0.0
C549 C 0.94162 0.78992 0.08502 0.0
H550 H 0.97981 0.79678 0.09458 0.0
H551 H 0.95108 0.7221 0.10439 0.0
C552 C 0.03358 0.67395 0.14032 0.0
N553 N 0.03061 0.67991 0.12266 0.0
C554 C 0.03387 0.64833 0.14581 0.0
C555 C 0.02805 0.63564 0.11481 0.0
C556 C 0.02783 0.66144 0.10995 0.0
C557 C 0.031 0.62881 0.13295 0.0
H558 H 0.03546 0.68913 0.15015 0.0
H559 H 0.025 0.66674 0.09607 0.0
C560 C 0.03476 0.80086 0.10774 0.0
N561 N 0.05257 0.849 0.1172 0.0
C562 C 0.05848 0.80958 0.10137 0.0
C563 C 0.02004 0.81665 0.11884 0.0
C564 C 0.06715 0.83398 0.10631 0.0
C565 C 0.02941 0.84091 0.1235 0.0
C566 C 0.07858 0.71542 0.12202 0.0
C567 C 0.08424 0.71514 0.14038 0.0
C568 C 0.08857 0.69637 0.11084 0.0
C569 C 0.09969 0.69563 0.14728 0.0
C570 C 0.1039 0.67716 0.11826 0.0
N571 N 0.10909 0.67719 0.13617 0.0
C572 C 0.03752 0.78509 0.15878 0.0
C573 C 0.07661 0.78596 0.14244 0.0
C574 C 0.04838 0.79997 0.17242 0.0
N575 N 0.05173 0.77847 0.14421 0.0
C576 C 0.08825 0.80077 0.15576 0.0
C577 C 0.07412 0.80786 0.17103 0.0
H578 H 0.01785 0.77865 0.15988 0.0
H579 H 0.0874 0.78033 0.13067 0.0
C580 C 0.04843 0.76674 0.06047 0.0
N581 N 0.06204 0.75343 0.07289 0.0
C582 C 0.06008 0.77502 0.04469 0.0
C583 C 0.09982 0.756 0.05476 0.0
C584 C 0.08722 0.74773 0.07035 0.0
C585 C 0.08627 0.77022 0.04182 0.0
H586 H 0.02854 0.77132 0.06303 0.0
H587 H 0.09766 0.73746 0.08062 0.0
O588 O 0.00832 0.7363 0.13218 0.0
O589 O 0.01392 0.72119 0.09213 0.0
O590 O 0.02624 0.77676 0.10346 0.0
O591 O 0.06305 0.73403 0.11508 0.0
H592 H 0.98162 0.69319 0.13585 0.0
H593 H 0.97907 0.77533 0.14193 0.0
H594 H 0.93674 0.69069 0.14681 0.0
H595 H 0.9342 0.77136 0.15278 0.0
H596 H 0.0496 0.68537 0.04236 0.0
H597 H 0.98041 0.73829 0.06812 0.0
H598 H 0.04886 0.69336 0.0752 0.0
H599 H 0.98237 0.7295 0.03544 0.0
H600 H 0.9103 0.73267 0.08921 0.0
H601 H 0.94005 0.80879 0.07901 0.0
H602 H 0.03627 0.64386 0.15992 0.0
H603 H 0.02522 0.62121 0.10451 0.0
H604 H 0.07023 0.79754 0.09289 0.0
H605 H 0.00171 0.81011 0.12398 0.0
H606 H 0.08553 0.84094 0.10156 0.0
H607 H 0.0183 0.85327 0.13218 0.0
H608 H 0.07652 0.72963 0.14925 0.0
H609 H 0.08433 0.69628 0.09661 0.0
H610 H 0.10412 0.69509 0.16147 0.0
H611 H 0.11163 0.6622 0.10979 0.0
H612 H 0.03694 0.80476 0.18409 0.0
H613 H 0.10806 0.80669 0.15408 0.0
H614 H 0.04873 0.78549 0.03497 0.0
H615 H 0.1201 0.75213 0.0532 0.0
Li616 Li 0.75632 0.98394 0.89795 0.0
Li617 Li 0.75143 0.93948 0.90441 0.0
Li618 Li 0.76368 0.95398 0.87501 0.0
Li619 Li 0.7199 0.96236 0.88548 0.0
C620 C 0.79903 0.95914 0.91205 0.0
N621 N 0.83066 0.96194 0.9418 0.0
C622 C 0.7892 0.96705 0.92863 0.0
C623 C 0.82494 0.95265 0.91061 0.0
C624 C 0.8055 0.96834 0.9435 0.0
C625 C 0.84063 0.9542 0.9258 0.0
C626 C 0.70776 0.95917 0.92144 0.0
C627 C 0.67556 0.92703 0.92783 0.0
N628 N 0.66712 0.94138 0.94188 0.0
C629 C 0.69872 0.97361 0.93593 0.0
C630 C 0.69607 0.93568 0.91733 0.0
C631 C 0.67818 0.96428 0.94611 0.0
C632 C 0.74907 0.03034 0.91644 0.0
N633 N 0.76679 0.01604 0.90761 0.0
C634 C 0.79936 0.04729 0.91336 0.0
C635 C 0.79149 0.02408 0.90579 0.0
C636 C 0.78164 0.06227 0.92295 0.0
C637 C 0.75611 0.05366 0.92426 0.0
H638 H 0.72953 0.02346 0.91755 0.0
H639 H 0.8051 0.01237 0.89854 0.0
C640 C 0.77059 0.89256 0.91686 0.0
N641 N 0.7571 0.91356 0.92204 0.0
C642 C 0.77731 0.87385 0.92941 0.0
C643 C 0.75636 0.89884 0.95246 0.0
C644 C 0.75002 0.91703 0.93946 0.0
C645 C 0.77041 0.877 0.94753 0.0
H646 H 0.77686 0.89079 0.90309 0.0
H647 H 0.74033 0.93436 0.94349 0.0
C648 C 0.74996 0.01031 0.8687 0.0
N649 N 0.76358 0.06066 0.86185 0.0
C650 C 0.73194 0.02987 0.87076 0.0
C651 C 0.77486 0.01631 0.86305 0.0
C652 C 0.73922 0.05523 0.86727 0.0
C653 C 0.78137 0.0419 0.85967 0.0
C654 C 0.73615 0.91377 0.86597 0.0
C655 C 0.7277 0.92447 0.8498 0.0
C656 C 0.74525 0.88858 0.8662 0.0
C657 C 0.72874 0.90986 0.83408 0.0
C658 C 0.74599 0.87459 0.85019 0.0
N659 N 0.73782 0.88544 0.83459 0.0
C660 C 0.80234 0.92744 0.85662 0.0
C661 C 0.77863 0.95643 0.83856 0.0
C662 C 0.81646 0.91945 0.84171 0.0
N663 N 0.78377 0.94545 0.85472 0.0
C664 C 0.79214 0.9489 0.82329 0.0
C665 C 0.81121 0.93005 0.82475 0.0
H666 H 0.80579 0.91894 0.86966 0.0
H667 H 0.76361 0.97062 0.83749 0.0
C668 C 0.67305 0.987 0.88695 0.0
N669 N 0.68469 0.96591 0.88008 0.0
C670 C 0.64689 0.99087 0.88427 0.0
C671 C 0.64519 0.9512 0.86745 0.0
C672 C 0.67134 0.94793 0.87069 0.0
C673 C 0.63258 0.97291 0.87431 0.0
H674 H 0.68406 0.00058 0.89482 0.0
H675 H 0.68084 0.9309 0.86586 0.0
O676 O 0.78352 0.95742 0.89724 0.0
O677 O 0.72773 0.96833 0.91131 0.0
O678 O 0.74342 0.98545 0.87249 0.0
O679 O 0.73592 0.92809 0.88141 0.0
H680 H 0.76923 0.97214 0.93006 0.0
H681 H 0.83283 0.94644 0.89788 0.0
H682 H 0.79813 0.97441 0.9564 0.0
H683 H 0.86072 0.94922 0.92488 0.0
H684 H 0.66636 0.90889 0.9248 0.0
H685 H 0.70753 0.99184 0.93929 0.0
H686 H 0.70269 0.92418 0.9062 0.0
H687 H 0.67102 0.97526 0.95737 0.0
H688 H 0.81913 0.05338 0.91179 0.0
H689 H 0.7419 0.06442 0.9317 0.0
H690 H 0.78821 0.85734 0.92503 0.0
H691 H 0.75128 0.90243 0.96635 0.0
H692 H 0.71261 0.02557 0.87512 0.0
H693 H 0.78913 0.00143 0.86159 0.0
H694 H 0.72551 0.07059 0.8689 0.0
H695 H 0.80062 0.04685 0.85541 0.0
H696 H 0.72085 0.94404 0.84934 0.0
H697 H 0.75161 0.87985 0.87857 0.0
H698 H 0.72248 0.918 0.82145 0.0
H699 H 0.75305 0.8551 0.85016 0.0
H700 H 0.83081 0.90466 0.84334 0.0
H701 H 0.78769 0.95767 0.81047 0.0
H702 H 0.63794 0.00752 0.89026 0.0
H703 H 0.63502 0.9369 0.85963 0.0
H704 H 0.03421 0.61238 0.65196 0.0
H705 H 0.04005 0.56606 0.65571 0.0
H706 H 0.9655 0.55243 0.63233 0.0
H707 H 0.95971 0.59843 0.62818 0.0
H708 H 0.97467 0.52198 0.66223 0.0
H709 H 0.01755 0.54746 0.60696 0.0
H710 H 0.04881 0.57263 0.58928 0.0
H711 H 0.11045 0.5427 0.62123 0.0
H712 H 0.07947 0.51762 0.63926 0.0
H713 H 0.97249 0.39897 0.62464 0.0
H714 H 0.97216 0.44474 0.63136 0.0
H715 H 0.05063 0.44045 0.64962 0.0
H716 H 0.05141 0.39464 0.64226 0.0
H717 H 0.04423 0.48004 0.62756 0.0
H718 H 0.00189 0.44896 0.67971 0.0
H719 H 0.97068 0.4236 0.69727 0.0
H720 H 0.90848 0.46356 0.67199 0.0
H721 H 0.93929 0.48892 0.65408 0.0
C722 C 0.01908 0.5995 0.64761 0.0
C723 C 0.99653 0.6091 0.63972 0.0
C724 C 0.02239 0.5731 0.64985 0.0
C725 C 0.00323 0.5559 0.64422 0.0
C726 C 0.98042 0.56544 0.63687 0.0
C727 C 0.97713 0.59176 0.63456 0.0
C728 C 0.00731 0.52787 0.64496 0.0
C729 C 0.98982 0.51273 0.65464 0.0
C730 C 0.02758 0.51599 0.63549 0.0
C731 C 0.04619 0.53093 0.62459 0.0
C732 C 0.03775 0.54642 0.6103 0.0
C733 C 0.05541 0.56063 0.6002 0.0
C734 C 0.08159 0.55933 0.60416 0.0
C735 C 0.09016 0.54374 0.6182 0.0
C736 C 0.07256 0.52951 0.62836 0.0
C737 C 0.98972 0.40776 0.63003 0.0
C738 C 0.01202 0.39322 0.63284 0.0
C739 C 0.9894 0.43386 0.63409 0.0
C740 C 0.01126 0.44592 0.64123 0.0
C741 C 0.0335 0.43145 0.64423 0.0
C742 C 0.03386 0.40528 0.64013 0.0
C743 C 0.01115 0.47396 0.64447 0.0
C744 C 0.02938 0.48917 0.63551 0.0
C745 C 0.9916 0.48588 0.65466 0.0
C746 C 0.97294 0.47075 0.66547 0.0
C747 C 0.98155 0.45223 0.6778 0.0
C748 C 0.96393 0.43786 0.68783 0.0
C749 C 0.93761 0.44194 0.68573 0.0
C750 C 0.92887 0.46043 0.67361 0.0
C751 C 0.94641 0.47483 0.66353 0.0
H752 H 0.924 0.4308 0.6935 0.0
H753 H 0.09524 0.57035 0.59633 0.0
H754 H 0.61131 0.96015 0.3597 0.0
H755 H 0.56519 0.95886 0.35425 0.0
H756 H 0.56356 0.0416 0.35201 0.0
H757 H 0.60937 0.04312 0.35856 0.0
H758 H 0.52778 0.02536 0.37315 0.0
H759 H 0.55425 0.00318 0.31392 0.0
H760 H 0.57798 0.97955 0.29056 0.0
H761 H 0.54085 0.90943 0.30648 0.0
H762 H 0.51715 0.93257 0.33012 0.0
H763 H 0.3967 0.02901 0.34967 0.0
H764 H 0.44304 0.03224 0.34502 0.0
H765 H 0.45127 0.9522 0.35846 0.0
H766 H 0.40505 0.9489 0.36365 0.0
H767 H 0.48311 0.96948 0.32902 0.0
H768 H 0.46041 0.9922 0.39018 0.0
H769 H 0.43627 0.01655 0.41297 0.0
H770 H 0.46679 0.08721 0.39212 0.0
H771 H 0.4908 0.06327 0.369 0.0
C772 C 0.60115 0.97809 0.35807 0.0
C773 C 0.61405 0.00174 0.35971 0.0
C774 C 0.57482 0.97731 0.35467 0.0
C775 C 0.56094 0.00013 0.35253 0.0
C776 C 0.5739 0.02374 0.35355 0.0
C777 C 0.60018 0.02456 0.35714 0.0
C778 C 0.5326 -0.00057 0.35081 0.0
C779 C 0.51809 0.01355 0.36322 0.0
C780 C 0.51988 0.9836 0.33812 0.0
C781 C 0.53407 0.9696 0.32389 0.0
C782 C 0.55129 0.98269 0.31254 0.0
C783 C 0.56471 0.96939 0.29922 0.0
C784 C 0.56096 0.943 0.29706 0.0
C785 C 0.54374 0.92987 0.30818 0.0
C786 C 0.53028 0.94308 0.32152 0.0
C787 C 0.40834 0.01207 0.3516 0.0
C788 C 0.39724 0.98879 0.3573 0.0
C789 C 0.43475 0.01391 0.34878 0.0
C790 C 0.45047 0.9925 0.35154 0.0
C791 C 0.43935 0.96888 0.3562 0.0
C792 C 0.41294 0.96705 0.35914 0.0
C793 C 0.47866 0.99534 0.35133 0.0
C794 C 0.49301 0.98155 0.33869 0.0
C795 C 0.49132 0.0116 0.3637 0.0
C796 C 0.47716 0.02598 0.37774 0.0
C797 C 0.46181 0.01295 0.39036 0.0
C798 C 0.44817 0.02667 0.40335 0.0
C799 C 0.44994 0.05342 0.40396 0.0
C800 C 0.46541 0.06649 0.39161 0.0
C801 C 0.47903 0.05286 0.37857 0.0
H802 H 0.43937 0.06401 0.41403 0.0
H803 H 0.57137 0.93274 0.28675 0.0
H804 H 0.9622 0.39231 0.15957 0.0
H805 H 0.97408 0.43686 0.16651 0.0
H806 H 0.01884 0.4406 0.11779 0.0
H807 H 0.00729 0.3962 0.11089 0.0
H808 H 0.04396 0.46187 0.14744 0.0
H809 H 0.96036 0.46477 0.11823 0.0
H810 H 0.91445 0.4538 0.11538 0.0
H811 H 0.89972 0.48664 0.16728 0.0
H812 H 0.94565 0.4975 0.17052 0.0
H813 H 0.05357 0.58808 0.11631 0.0
H814 H 0.0471 0.54266 0.12276 0.0
H815 H -9e-05 0.56212 0.1684 0.0
H816 H 0.00556 0.60776 0.16159 0.0
H817 H 0.97627 0.52856 0.14774 0.0
H818 H 0.0586 0.53327 0.17433 0.0
H819 H 0.10439 0.54467 0.1771 0.0
H820 H 0.12201 0.498 0.13122 0.0
H821 H 0.07627 0.48661 0.12798 0.0
C822 C 0.9747 0.40264 0.15044 0.0
C823 C 0.98365 0.39095 0.13462 0.0
C824 C 0.98141 0.42802 0.15439 0.0
C825 C 0.99727 0.44194 0.14263 0.0
C826 C 0.00663 0.43011 0.12704 0.0
C827 C -0.00021 0.40488 0.12302 0.0
C828 C 0.00339 0.46923 0.14597 0.0
C829 C 0.02924 0.47654 0.1475 0.0
C830 C 0.98404 0.48812 0.14669 0.0
C831 C 0.95646 0.48163 0.14472 0.0
C832 C 0.94737 0.46944 0.1291 0.0
C833 C 0.92134 0.46328 0.1274 0.0
C834 C 0.90419 0.46943 0.14117 0.0
C835 C 0.91303 0.48182 0.15664 0.0
C836 C 0.93905 0.48799 0.15842 0.0
C837 C 0.04196 0.5827 0.1278 0.0
C838 C 0.02989 0.60147 0.13835 0.0
C839 C 0.03854 0.55672 0.13162 0.0
C840 C 0.02321 0.54899 0.14618 0.0
C841 C 0.01191 0.5677 0.15716 0.0
C842 C 0.01529 0.59374 0.15331 0.0
C843 C 0.017 0.52145 0.14864 0.0
C844 C 0.99109 0.514 0.14818 0.0
C845 C 0.03632 0.50245 0.14898 0.0
C846 C 0.06393 0.50918 0.15087 0.0
C847 C 0.0722 0.52557 0.16474 0.0
C848 C 0.09816 0.53201 0.16641 0.0
C849 C 0.11609 0.52209 0.15433 0.0
C850 C 0.1081 0.50567 0.14057 0.0
C851 C 0.08215 0.49918 0.13883 0.0
H852 H 0.13618 0.5271 0.15565 0.0
H853 H 0.88405 0.46466 0.13983 0.0
H854 H 0.38518 0.97443 0.86083 0.0
H855 H 0.43113 0.96587 0.8588 0.0
H856 H 0.44773 0.04319 0.87586 0.0
H857 H 0.40191 0.05163 0.87906 0.0
H858 H 0.47692 0.02079 0.84335 0.0
H859 H 0.45356 0.00655 0.90608 0.0
H860 H 0.42714 0.98681 0.9299 0.0
H861 H 0.44814 0.91175 0.91133 0.0
H862 H 0.47436 0.93109 0.88719 0.0
H863 H 0.607 0.01803 0.86855 0.0
H864 H 0.56092 0.02434 0.8659 0.0
H865 H 0.54869 0.94255 0.86976 0.0
H866 H 0.59466 0.9362 0.87379 0.0
H867 H 0.51608 0.96506 0.88988 0.0
H868 H 0.54205 0.97682 0.82918 0.0
H869 H 0.56734 0.99426 0.80394 0.0
H870 H 0.54079 0.0702 0.81609 0.0
H871 H 0.51561 0.05328 0.84158 0.0
C872 C 0.39852 0.9896 0.86435 0.0
C873 C 0.38972 0.01368 0.87029 0.0
C874 C 0.42475 0.98472 0.86297 0.0
C875 C 0.44261 0.00393 0.86719 0.0
C876 C 0.43407 0.02823 0.87244 0.0
C877 C 0.40786 0.03302 0.87417 0.0
C878 C 0.47025 0.99821 0.8671 0.0
C879 C 0.48566 0.00882 0.85356 0.0
C880 C 0.4812 0.98188 0.88011 0.0
C881 C 0.46565 0.97026 0.89471 0.0
C882 C 0.45233 0.98584 0.90696 0.0
C883 C 0.43744 0.97472 0.92054 0.0
C884 C 0.43589 0.94803 0.92209 0.0
C885 C 0.44931 0.93241 0.91009 0.0
C886 C 0.46419 0.94344 0.89646 0.0
C887 C 0.59454 0.00136 0.86901 0.0
C888 C 0.60462 0.9766 0.87146 0.0
C889 C 0.56817 0.00498 0.86718 0.0
C890 C 0.55133 0.98388 0.86733 0.0
C891 C 0.56133 0.95911 0.86951 0.0
C892 C 0.58768 0.9555 0.87162 0.0
C893 C 0.52322 0.98784 0.86615 0.0
C894 C 0.50756 0.97688 0.87949 0.0
C895 C 0.51201 0.00351 0.85273 0.0
C896 C 0.5271 0.01379 0.83739 0.0
C897 C 0.54175 0.99727 0.82656 0.0
C898 C 0.55604 0.00706 0.81219 0.0
C899 C 0.55572 0.03333 0.80844 0.0
C900 C 0.54104 0.04986 0.81902 0.0
C901 C 0.52673 0.04017 0.83342 0.0
H902 H 0.5668 0.04087 0.79731 0.0
H903 H 0.42436 0.93946 0.93261 0.0
H904 H 0.16982 0.07083 0.43917 0.0
H905 H 0.14511 0.10394 0.45449 0.0
H906 H 0.18616 0.16264 0.42521 0.0
H907 H 0.2112 0.12928 0.40976 0.0
H908 H 0.18412 0.17137 0.4623 0.0
H909 H 0.12563 0.15439 0.4151 0.0
H910 H 0.10022 0.12798 0.39411 0.0
H911 H 0.05849 0.09527 0.43835 0.0
H912 H 0.08391 0.12119 0.45965 0.0
H913 H 0.1011 0.25211 0.51507 0.0
H914 H 0.12209 0.23481 0.48812 0.0
H915 H 0.09405 0.15912 0.50143 0.0
H916 H 0.07276 0.17626 0.52797 0.0
H917 H 0.08903 0.16919 0.46582 0.0
H918 H 0.15465 0.17796 0.5123 0.0
H919 H 0.18101 0.20256 0.53383 0.0
H920 H 0.20961 0.24972 0.49088 0.0
H921 H 0.18313 0.22557 0.46912 0.0
C922 C 0.17354 0.09079 0.43596 0.0
C923 C 0.1925 0.09758 0.42341 0.0
C924 C 0.15927 0.10967 0.44459 0.0
C925 C 0.16365 0.13571 0.44084 0.0
C926 C 0.18243 0.14262 0.42818 0.0
C927 C 0.19661 0.12362 0.41936 0.0
C928 C 0.14945 0.15535 0.45113 0.0
C929 C 0.1633 0.17149 0.46272 0.0
C930 C 0.12232 0.15525 0.45175 0.0
C931 C 0.10677 0.13972 0.43899 0.0
C932 C 0.11115 0.14146 0.42038 0.0
C933 C 0.09672 0.12658 0.40841 0.0
C934 C 0.07777 0.10995 0.41489 0.0
C935 C 0.07317 0.10819 0.43335 0.0
C936 C 0.08755 0.12301 0.44537 0.0
C937 C 0.09924 0.23184 0.5121 0.0
C938 C 0.08556 0.21546 0.52372 0.0
C939 C 0.11129 0.22199 0.49677 0.0
C940 C 0.10973 0.19566 0.49286 0.0
C941 C 0.09548 0.1795 0.50419 0.0
C942 C 0.08356 0.18926 0.51946 0.0
C943 C 0.12374 0.18428 0.47751 0.0
C944 C 0.10982 0.16971 0.46498 0.0
C945 C 0.15079 0.18574 0.47607 0.0
C946 C 0.16666 0.20023 0.48914 0.0
C947 C 0.16639 0.19373 0.50748 0.0
C948 C 0.18138 0.20755 0.51972 0.0
C949 C 0.1969 0.22776 0.51374 0.0
C950 C 0.19752 0.23412 0.4955 0.0
C951 C 0.18253 0.22038 0.48321 0.0
H952 H 0.20851 0.23843 0.52323 0.0
H953 H 0.06662 0.09844 0.40561 0.0
H954 H 0.18101 0.9065 0.45537 0.0
H955 H 0.16294 0.88539 0.4818 0.0
H956 H 0.23503 0.84738 0.49134 0.0
H957 H 0.25344 0.8687 0.46472 0.0
H958 H 0.18801 0.81517 0.49371 0.0
H959 H 0.22461 0.89186 0.51783 0.0
H960 H 0.23408 0.93823 0.51885 0.0
H961 H 0.15369 0.95454 0.52391 0.0
H962 H 0.14369 0.90827 0.52263 0.0
H963 H 0.12652 0.77358 0.57524 0.0
H964 H 0.15983 0.79073 0.55519 0.0
H965 H 0.10809 0.85037 0.53804 0.0
H966 H 0.07499 0.83349 0.55791 0.0
H967 H 0.1548 0.86947 0.54325 0.0
H968 H 0.11774 0.79516 0.5133 0.0
H969 H 0.10642 0.7493 0.51066 0.0
H970 H 0.18593 0.729 0.51544 0.0
H971 H 0.19766 0.77477 0.51834 0.0
C972 C 0.19296 0.89342 0.46295 0.0
C973 C 0.21858 0.8891 0.45796 0.0
C974 C 0.18267 0.88154 0.4781 0.0
C975 C 0.19774 0.86502 0.48853 0.0
C976 C 0.22318 0.86015 0.48344 0.0
C977 C 0.23365 0.87236 0.46833 0.0
C978 C 0.18649 0.85327 0.50481 0.0
C979 C 0.1813 0.82686 0.50481 0.0
C980 C 0.17749 0.8687 0.51909 0.0
C981 C 0.1834 0.89657 0.52004 0.0
C982 C 0.20893 0.90533 0.51903 0.0
C983 C 0.21439 0.9316 0.51967 0.0
C984 C 0.1945 0.94932 0.52142 0.0
C985 C 0.16909 0.94079 0.52256 0.0
C986 C 0.16351 0.91454 0.5219 0.0
C987 C 0.12235 0.79039 0.56721 0.0
C988 C 0.09816 0.80223 0.56819 0.0
C989 C 0.14137 0.80017 0.55579 0.0
C990 C 0.13639 0.82174 0.54504 0.0
C991 C 0.11245 0.83383 0.54631 0.0
C992 C 0.09355 0.82419 0.55773 0.0
C993 C 0.15545 0.83147 0.53188 0.0
C994 C 0.1621 0.85758 0.53245 0.0
C995 C 0.16558 0.81578 0.51806 0.0
C996 C 0.15853 0.78832 0.51627 0.0
C997 C 0.13277 0.78089 0.51393 0.0
C998 C 0.12629 0.75493 0.51236 0.0
C999 C 0.14543 0.73624 0.51295 0.0
C1000 C 0.17111 0.74349 0.51504 0.0
C1001 C 0.17769 0.76944 0.51664 0.0
H1002 H 0.14038 0.71615 0.51173 0.0
H1003 H 0.19877 0.96965 0.52192 0.0
H1004 H 0.83946 0.90529 0.43432 0.0
H1005 H 0.85429 0.86879 0.45181 0.0
H1006 H 0.78567 0.82665 0.43791 0.0
H1007 H 0.77075 0.86318 0.42007 0.0
H1008 H 0.79339 0.82621 0.47323 0.0
H1009 H 0.84318 0.80623 0.42223 0.0
H1010 H 0.87206 0.81404 0.39654 0.0
H1011 H 0.93221 0.837 0.43262 0.0
H1012 H 0.90358 0.82971 0.45852 0.0
H1013 H 0.89368 0.73265 0.5183 0.0
H1014 H 0.87058 0.74776 0.49167 0.0
H1015 H 0.84996 0.81699 0.51983 0.0
H1016 H 0.87345 0.80258 0.54614 0.0
H1017 H 0.8816 0.7907 0.47228 0.0
H1018 H 0.79209 0.837 0.50657 0.0
H1019 H 0.76239 0.8273 0.53148 0.0
H1020 H 0.77969 0.74707 0.52689 0.0
H1021 H 0.8092 0.75621 0.50177 0.0
C1022 C 0.82781 0.88803 0.43452 0.0
C1023 C 0.8039 0.88718 0.4258 0.0
C1024 C 0.83632 0.86714 0.44456 0.0
C1025 C 0.82118 0.8449 0.44604 0.0
C1026 C 0.79765 0.84363 0.43692 0.0
C1027 C 0.78912 0.86455 0.42681 0.0
C1028 C 0.829 0.82426 0.45857 0.0
C1029 C 0.81255 0.81815 0.4729 0.0
C1030 C 0.85373 0.81318 0.45786 0.0
C1031 C 0.87116 0.81748 0.44233 0.0
C1032 C 0.86251 0.81309 0.42469 0.0
C1033 C 0.87885 0.81741 0.41008 0.0
C1034 C 0.90395 0.82603 0.41294 0.0
C1035 C 0.91277 0.8303 0.43042 0.0
C1036 C 0.8965 0.82603 0.44508 0.0
C1037 C 0.88413 0.75105 0.51885 0.0
C1038 C 0.88547 0.76638 0.53441 0.0
C1039 C 0.87084 0.75956 0.50365 0.0
C1040 C 0.85837 0.78335 0.50385 0.0
C1041 C 0.85902 0.79832 0.51951 0.0
C1042 C 0.87242 0.78996 0.53461 0.0
C1043 C 0.84649 0.79392 0.48737 0.0
C1044 C 0.8622 0.79818 0.47234 0.0
C1045 C 0.82095 0.80299 0.48731 0.0
C1046 C 0.80298 0.79733 0.50231 0.0
C1047 C 0.78945 0.81726 0.51078 0.0
C1048 C 0.77267 0.81187 0.52497 0.0
C1049 C 0.76919 0.78659 0.53078 0.0
C1050 C 0.78245 0.76665 0.5224 0.0
C1051 C 0.79924 0.77194 0.50821 0.0
H1052 H 0.7562 0.78246 0.54177 0.0
H1053 H 0.91656 0.82937 0.40162 0.0
H1054 H 0.7702 0.08029 0.48938 0.0
H1055 H 0.78481 0.10857 0.51348 0.0
H1056 H 0.79793 0.16916 0.47499 0.0
H1057 H 0.78337 0.14089 0.45077 0.0
H1058 H 0.83877 0.16227 0.4954 0.0
H1059 H 0.74919 0.17296 0.5062 0.0
H1060 H 0.70441 0.15932 0.51129 0.0
H1061 H 0.72687 0.12026 0.55956 0.0
H1062 H 0.77187 0.13336 0.55464 0.0
H1063 H 0.88321 0.24619 0.56027 0.0
H1064 H 0.85103 0.23088 0.53909 0.0
H1065 H 0.83923 0.1631 0.57135 0.0
H1066 H 0.8706 0.17888 0.59319 0.0
H1067 H 0.79469 0.17824 0.55346 0.0
H1068 H 0.88432 0.16245 0.54024 0.0
H1069 H 0.92919 0.17643 0.53596 0.0
H1070 H 0.9062 0.22471 0.4921 0.0
H1071 H 0.86108 0.21137 0.49637 0.0
C1072 C 0.77566 0.09981 0.4861 0.0
C1073 C 0.77571 0.10835 0.46817 0.0
C1074 C 0.78398 0.11598 0.4999 0.0
C1075 C 0.79225 0.14107 0.49607 0.0
C1076 C 0.79163 0.14987 0.47824 0.0
C1077 C 0.78342 0.13368 0.46443 0.0
C1078 C 0.80369 0.15723 0.5104 0.0
C1079 C 0.82886 0.16624 0.50792 0.0
C1080 C 0.79102 0.16187 0.52692 0.0
C1081 C 0.76396 0.15399 0.52997 0.0
C1082 C 0.74462 0.1613 0.51783 0.0
C1083 C 0.71919 0.15369 0.5207 0.0
C1084 C 0.71281 0.13889 0.53572 0.0
C1085 C 0.73185 0.13171 0.54793 0.0
C1086 C 0.75732 0.13925 0.54511 0.0
C1087 C 0.87306 0.22856 0.56334 0.0
C1088 C 0.87984 0.21352 0.5783 0.0
C1089 C 0.85476 0.21975 0.55111 0.0
C1090 C 0.84325 0.1956 0.55346 0.0
C1091 C 0.84807 0.18171 0.56924 0.0
C1092 C 0.86621 0.19062 0.58159 0.0
C1093 C 0.82959 0.18312 0.53836 0.0
C1094 C 0.80425 0.17464 0.54076 0.0
C1095 C 0.84207 0.17881 0.52174 0.0
C1096 C 0.86931 0.18611 0.51874 0.0
C1097 C 0.88882 0.17613 0.52973 0.0
C1098 C 0.91429 0.18395 0.52732 0.0
C1099 C 0.92053 0.20149 0.51379 0.0
C1100 C 0.90133 0.21115 0.50259 0.0
C1101 C 0.8758 0.20347 0.505 0.0
H1102 H 0.94025 0.20757 0.51197 0.0
H1103 H 0.69311 0.13302 0.53792 0.0
H1104 H 0.75604 0.10808 0.92577 0.0
H1105 H 0.76906 0.14606 0.94299 0.0
H1106 H 0.8389 0.10787 0.95859 0.0
H1107 H 0.826 0.06997 0.94167 0.0
H1108 H 0.77705 0.15058 0.9782 0.0
H1109 H 0.8871 0.14926 0.96276 0.0
H1110 H 0.91551 0.14034 0.93703 0.0
H1111 H 0.8542 0.15745 0.90045 0.0
H1112 H 0.82552 0.16684 0.92594 0.0
H1113 H 0.85528 0.18809 0.04945 0.0
H1114 H 0.83165 0.1694 0.02446 0.0
H1115 H 0.85447 0.23267 0.99053 0.0
H1116 H 0.87823 0.25166 0.01567 0.0
H1117 H 0.86419 0.189 0.97454 0.0
H1118 H 0.79118 0.22458 0.00204 0.0
H1119 H 0.7614 0.23607 0.02647 0.0
H1120 H 0.74593 0.15629 0.03625 0.0
H1121 H 0.77591 0.14428 0.01207 0.0
C1122 C 0.7742 0.10784 0.93284 0.0
C1123 C 0.79003 0.08602 0.93231 0.0
C1124 C 0.78164 0.12958 0.9426 0.0
C1125 C 0.80508 0.12992 0.95187 0.0
C1126 C 0.821 0.10827 0.95119 0.0
C1127 C 0.8136 0.0866 0.94148 0.0
C1128 C 0.81246 0.15204 0.96329 0.0
C1129 C 0.79598 0.15923 0.97731 0.0
C1130 C 0.83681 0.16393 0.96173 0.0
C1131 C 0.85411 0.15864 0.9463 0.0
C1132 C 0.87971 0.15129 0.94923 0.0
C1133 C 0.89586 0.14611 0.93468 0.0
C1134 C 0.88665 0.14828 0.91712 0.0
C1135 C 0.86129 0.1557 0.91406 0.0
C1136 C 0.84507 0.16093 0.92856 0.0
C1137 C 0.85472 0.19845 0.03684 0.0
C1138 C 0.86865 0.22138 0.03457 0.0
C1139 C 0.84117 0.18772 0.02253 0.0
C1140 C 0.84106 0.19975 0.00565 0.0
C1141 C 0.85427 0.22308 0.00345 0.0
C1142 C 0.8679 0.23384 0.01779 0.0
C1143 C 0.82934 0.18644 0.99005 0.0
C1144 C 0.84501 0.18087 0.97523 0.0
C1145 C 0.80404 0.17647 0.99068 0.0
C1146 C 0.7859 0.18353 0.00525 0.0
C1147 C 0.78156 0.20947 0.00947 0.0
C1148 C 0.76462 0.21608 0.02327 0.0
C1149 C 0.7518 0.19693 0.03291 0.0
C1150 C 0.75587 0.17111 0.02876 0.0
C1151 C 0.7728 0.16439 0.01498 0.0
H1152 H 0.73869 0.20208 0.04359 0.0
H1153 H 0.89918 0.14424 0.90587 0.0
H1154 H 0.17883 0.14009 0.94787 0.0
H1155 H 0.1611 0.16297 0.97344 0.0
H1156 H 0.23185 0.15277 0.00253 0.0
H1157 H 0.25041 0.13069 0.97658 0.0
H1158 H 0.18812 0.13594 0.02117 0.0
H1159 H 0.21752 0.21114 0.99157 0.0
H1160 H 0.22443 0.24063 0.9661 0.0
H1161 H 0.14301 0.25002 0.96038 0.0
H1162 H 0.13557 0.22029 0.98565 0.0
H1163 H 0.10986 0.23821 0.07602 0.0
H1164 H 0.14706 0.22628 0.0575 0.0
H1165 H 0.10557 0.16017 0.03789 0.0
H1166 H 0.06841 0.17217 0.05613 0.0
H1167 H 0.14601 0.22117 0.01935 0.0
H1168 H 0.14897 0.11153 0.03375 0.0
H1169 H 0.14212 0.08218 0.05932 0.0
H1170 H 0.16086 0.14276 0.09622 0.0
H1171 H 0.16822 0.17237 0.07088 0.0
C1172 C 0.19105 0.14336 0.95941 0.0
C1173 C 0.21613 0.13347 0.96008 0.0
C1174 C 0.18077 0.15636 0.9741 0.0
C1175 C 0.19522 0.15964 0.98982 0.0
C1176 C 0.22043 0.15041 0.99048 0.0
C1177 C 0.2309 0.13765 0.97567 0.0
C1178 C 0.18288 0.17068 0.00594 0.0
C1179 C 0.17921 0.15472 0.02092 0.0
C1180 C 0.17167 0.19535 0.00566 0.0
C1181 C 0.176 0.21337 0.99048 0.0
C1182 C 0.20107 0.21935 0.98481 0.0
C1183 C 0.20509 0.23614 0.97042 0.0
C1184 C 0.18418 0.24718 0.96162 0.0
C1185 C 0.1592 0.24147 0.96722 0.0
C1186 C 0.15507 0.22468 0.9816 0.0
C1187 C 0.10893 0.22095 0.06794 0.0
C1188 C 0.08638 0.20608 0.06741 0.0
C1189 C 0.13006 0.21424 0.05735 0.0
C1190 C 0.12904 0.19229 0.04646 0.0
C1191 C 0.10678 0.17704 0.04636 0.0
C1192 C 0.08558 0.18394 0.05669 0.0
C1193 C 0.15035 0.18595 0.03415 0.0
C1194 C 0.15553 0.2027 0.01984 0.0
C1195 C 0.16303 0.16205 0.03506 0.0
C1196 C 0.15902 0.14422 0.05039 0.0
C1197 C 0.1518 0.11856 0.04731 0.0
C1198 C 0.14778 0.10187 0.06177 0.0
C1199 C 0.151 0.11061 0.07938 0.0
C1200 C 0.1583 0.13603 0.08257 0.0
C1201 C 0.16236 0.15278 0.06816 0.0
H1202 H 0.14786 0.09767 0.09055 0.0
H1203 H 0.18733 0.26017 0.95048 0.0
H1204 H 0.07887 0.8176 0.0273 0.0
H1205 H 0.09956 0.83638 0.00116 0.0
H1206 H 0.14533 0.76828 0.99451 0.0
H1207 H 0.12398 0.74875 0.02065 0.0
H1208 H 0.17354 0.81467 0.99253 0.0
H1209 H 0.10094 0.77727 0.96466 0.0
H1210 H 0.05541 0.76539 0.96101 0.0
H1211 H 0.03513 0.84497 0.95704 0.0
H1212 H 0.0805 0.85738 0.96096 0.0
H1213 H 0.21728 0.88861 0.91662 0.0
H1214 H 0.19954 0.85118 0.93249 0.0
H1215 H 0.13917 0.89848 0.95413 0.0
H1216 H 0.15662 0.93568 0.93826 0.0
H1217 H 0.12157 0.851 0.94284 0.0
H1218 H 0.19206 0.88705 0.97828 0.0
H1219 H 0.23726 0.89959 0.98301 0.0
H1220 H 0.26106 0.82212 0.97287 0.0
H1221 H 0.21598 0.80921 0.96785 0.0
C1222 C 0.09294 0.80629 0.02014 0.0
C1223 C 0.09944 0.78146 0.02593 0.0
C1224 C 0.10483 0.81713 0.00521 0.0
C1225 C 0.12361 0.80352 0.99573 0.0
C1226 C 0.13069 0.77896 0.00161 0.0
C1227 C 0.11859 0.76793 0.01656 0.0
C1228 C 0.1362 0.8159 0.98015 0.0
C1229 C 0.16239 0.82198 0.98135 0.0
C1230 C 0.12154 0.82555 0.96566 0.0
C1231 C 0.09418 0.81825 0.96316 0.0
C1232 C 0.08677 0.79226 0.96312 0.0
C1233 C 0.06098 0.78543 0.96099 0.0
C1234 C 0.04239 0.80442 0.9588 0.0
C1235 C 0.04956 0.83028 0.95872 0.0
C1236 C 0.07533 0.83722 0.96086 0.0
C1237 C 0.20001 0.89084 0.92456 0.0
C1238 C 0.18841 0.91503 0.92637 0.0
C1239 C 0.18998 0.86953 0.93364 0.0
C1240 C 0.16816 0.87215 0.94455 0.0
C1241 C 0.15602 0.89606 0.94576 0.0
C1242 C 0.1661 0.91733 0.93682 0.0
C1243 C 0.15856 0.85066 0.9557 0.0
C1244 C 0.13292 0.84292 0.95365 0.0
C1245 C 0.17371 0.83949 0.96939 0.0
C1246 C 0.20074 0.84725 0.97246 0.0
C1247 C 0.20697 0.87275 0.97691 0.0
C1248 C 0.23255 0.87991 0.97967 0.0
C1249 C 0.25203 0.86168 0.97817 0.0
C1250 C 0.24596 0.83623 0.97398 0.0
C1251 C 0.2204 0.82898 0.97118 0.0
H1252 H 0.27183 0.86726 0.98032 0.0
H1253 H 0.02243 0.79909 0.95716 0.0
H1254 H 0.74421 0.85848 0.97685 0.0
H1255 H 0.76138 0.83239 0.00145 0.0
H1256 H 0.8345 0.82883 0.97436 0.0
H1257 H 0.81765 0.85489 0.94993 0.0
H1258 H 0.82264 0.78336 0.98968 0.0
H1259 H 0.82263 0.87361 0.00664 0.0
H1260 H 0.80208 0.91531 0.0126 0.0
H1261 H 0.75446 0.88039 0.05296 0.0
H1262 H 0.77453 0.83838 0.04704 0.0
H1263 H 0.9259 0.78716 0.04845 0.0
H1264 H 0.89125 0.7963 0.02737 0.0
H1265 H 0.83531 0.77686 0.06795 0.0
H1266 H 0.87031 0.76725 0.08923 0.0
H1267 H 0.82803 0.8259 0.04924 0.0
H1268 H 0.83789 0.73733 0.03637 0.0
H1269 H 0.86152 0.69735 0.0304 0.0
H1270 H 0.89315 0.7302 0.9823 0.0
H1271 H 0.87004 0.77055 0.98811 0.0
C1272 C 0.7639 0.85197 0.97611 0.0
C1273 C 0.77961 0.85887 0.96148 0.0
C1274 C 0.77362 0.83701 0.99012 0.0
C1275 C 0.79927 0.82887 0.98979 0.0
C1276 C 0.8146 0.83478 0.97484 0.0
C1277 C 0.80491 0.84966 0.96085 0.0
C1278 C 0.81104 0.81594 0.00547 0.0
C1279 C 0.82372 0.79256 0.00274 0.0
C1280 C 0.8118 0.82761 0.02265 0.0
C1281 C 0.7998 0.85283 0.02623 0.0
C1282 C 0.80762 0.8748 0.01668 0.0
C1283 C 0.79609 0.89848 0.02006 0.0
C1284 C 0.77691 0.90048 0.03311 0.0
C1285 C 0.76927 0.8788 0.04283 0.0
C1286 C 0.78071 0.85505 0.03946 0.0
C1287 C 0.90621 0.78485 0.05289 0.0
C1288 C 0.90066 0.77676 0.07046 0.0
C1289 C 0.88648 0.78986 0.04082 0.0
C1290 C 0.8608 0.78704 0.0461 0.0
C1291 C 0.85507 0.77898 0.06366 0.0
C1292 C 0.87495 0.77352 0.07574 0.0
C1293 C 0.84038 0.79387 0.03321 0.0
C1294 C 0.82616 0.81617 0.03641 0.0
C1295 C 0.83843 0.78135 0.01641 0.0
C1296 C 0.85227 0.75704 0.01273 0.0
C1297 C 0.85001 0.73611 0.02458 0.0
C1298 C 0.8633 0.71336 0.02121 0.0
C1299 C 0.87884 0.71124 0.00599 0.0
C1300 C 0.88109 0.73186 0.99408 0.0
C1301 C 0.86786 0.75467 0.99739 0.0
H1302 H 0.88912 0.69361 0.00341 0.0
H1303 H 0.76801 0.91884 0.03572 0.0
H1304 H 0.11679 0.19581 0.679 0.0
H1305 H 0.13896 0.17243 0.70284 0.0
H1306 H 0.06973 0.1294 0.71385 0.0
H1307 H 0.04735 0.15321 0.69027 0.0
H1308 H 0.09 0.14487 0.74389 0.0
H1309 H 0.12223 0.10256 0.69162 0.0
H1310 H 0.14232 0.09922 0.66171 0.0
H1311 H 0.21141 0.13357 0.68219 0.0
H1312 H 0.19161 0.13745 0.71218 0.0
H1313 H 0.15027 0.05386 0.80085 0.0
H1314 H 0.12877 0.07212 0.77463 0.0
H1315 H 0.19154 0.12529 0.76732 0.0
H1316 H 0.21288 0.10772 0.7938 0.0
H1317 H 0.17417 0.10246 0.73505 0.0
H1318 H 0.14017 0.14613 0.78706 0.0
H1319 H 0.11974 0.14833 0.81691 0.0
H1320 H 0.05313 0.10944 0.79635 0.0
H1321 H 0.07334 0.10668 0.76642 0.0
C1322 C 0.10641 0.18119 0.68642 0.0
C1323 C 0.08039 0.17627 0.68281 0.0
C1324 C 0.11909 0.16779 0.69999 0.0
C1325 C 0.10611 0.14889 0.70997 0.0
C1326 C 0.08013 0.14389 0.70632 0.0
C1327 C 0.06736 0.15751 0.69289 0.0
C1328 C 0.11935 0.13504 0.72468 0.0
C1329 C 0.10818 0.13521 0.74184 0.0
C1330 C 0.14334 0.12286 0.72213 0.0
C1331 C 0.15534 0.1205 0.70411 0.0
C1332 C 0.14164 0.10958 0.68972 0.0
C1333 C 0.15299 0.10756 0.67275 0.0
C1334 C 0.1781 0.11623 0.67004 0.0
C1335 C 0.19195 0.12689 0.6843 0.0
C1336 C 0.18068 0.12897 0.70129 0.0
C1337 C 0.15947 0.06952 0.79373 0.0
C1338 C 0.18322 0.07945 0.79952 0.0
C1339 C 0.14723 0.0798 0.7787 0.0
C1340 C 0.15853 0.10013 0.76917 0.0
C1341 C 0.1826 0.10952 0.7745 0.0
C1342 C 0.19478 0.09938 0.7896 0.0
C1343 C 0.14476 0.11239 0.7541 0.0
C1344 C 0.15587 0.11195 0.73695 0.0
C1345 C 0.12062 0.12415 0.7566 0.0
C1346 C 0.10838 0.12596 0.77456 0.0
C1347 C 0.12126 0.13786 0.78894 0.0
C1348 C 0.1097 0.13924 0.80587 0.0
C1349 C 0.08518 0.12897 0.80854 0.0
C1350 C 0.07214 0.11735 0.79427 0.0
C1351 C 0.08363 0.11589 0.77732 0.0
H1352 H 0.07627 0.13006 0.82165 0.0
H1353 H 0.18685 0.11465 0.6569 0.0
H1354 H 0.12173 0.80094 0.18542 0.0
H1355 H 0.14186 0.82515 0.20978 0.0
H1356 H 0.07435 0.87236 0.2143 0.0
H1357 H 0.05424 0.84853 0.1896 0.0
H1358 H 0.11926 0.90062 0.21554 0.0
H1359 H 0.08369 0.82608 0.24414 0.0
H1360 H 0.07593 0.77975 0.24836 0.0
H1361 H 0.1566 0.76758 0.25625 0.0
H1362 H 0.1649 0.81381 0.25182 0.0
H1363 H 0.15252 0.95413 0.30072 0.0
H1364 H 0.13042 0.93242 0.27597 0.0
H1365 H 0.19392 0.88008 0.27061 0.0
H1366 H 0.21569 0.90107 0.29569 0.0
H1367 H 0.14914 0.85498 0.27015 0.0
H1368 H 0.18516 0.92886 0.24075 0.0
H1369 H 0.1935 0.97501 0.23614 0.0
H1370 H 0.11279 0.98835 0.22947 0.0
H1371 H 0.10393 0.9423 0.23429 0.0
C1372 C 0.11127 0.81665 0.19147 0.0
C1373 C 0.08639 0.82283 0.18563 0.0
C1374 C 0.12271 0.83031 0.20547 0.0
C1375 C 0.10946 0.85033 0.21394 0.0
C1376 C 0.08482 0.85689 0.20795 0.0
C1377 C 0.07331 0.84316 0.19396 0.0
C1378 C 0.12136 0.86423 0.22916 0.0
C1379 C 0.12546 0.89076 0.22761 0.0
C1380 C 0.12988 0.85117 0.24471 0.0
C1381 C 0.12493 0.82338 0.24749 0.0
C1382 C 0.0998 0.8135 0.24664 0.0
C1383 C 0.0953 0.78726 0.24909 0.0
C1384 C 0.11577 0.77073 0.25253 0.0
C1385 C 0.14077 0.78041 0.25357 0.0
C1386 C 0.14538 0.80663 0.2511 0.0
C1387 C 0.16171 0.93794 0.2943 0.0
C1388 C 0.18589 0.92938 0.30012 0.0
C1389 C 0.14918 0.9257 0.28007 0.0
C1390 C 0.16065 0.9048 0.27135 0.0
C1391 C 0.18477 0.89623 0.27712 0.0
C1392 C 0.19729 0.90842 0.29135 0.0
C1393 C 0.14733 0.89138 0.25648 0.0
C1394 C 0.14289 0.86491 0.25811 0.0
C1395 C 0.13859 0.90449 0.241 0.0
C1396 C 0.14386 0.93217 0.23807 0.0
C1397 C 0.16917 0.94166 0.23845 0.0
C1398 C 0.17399 0.9678 0.23577 0.0
C1399 C 0.15368 0.98461 0.23257 0.0
C1400 C 0.1285 0.97531 0.23199 0.0
C1401 C 0.12357 0.94919 0.23467 0.0
H1402 H 0.15745 0.00484 0.23049 0.0
H1403 H 0.11225 0.75042 0.25442 0.0
H1404 H 0.95984 0.8404 0.70116 0.0
H1405 H 0.93948 0.86205 0.72654 0.0
H1406 H 0.86526 0.85119 0.702 0.0
H1407 H 0.88535 0.82901 0.67673 0.0
H1408 H 0.87191 0.90013 0.71674 0.0
H1409 H 0.88268 0.81167 0.73388 0.0
H1410 H 0.90723 0.77188 0.7386 0.0
H1411 H 0.95586 0.81064 0.77655 0.0
H1412 H 0.93182 0.8508 0.77185 0.0
H1413 H 0.79085 0.91767 0.79213 0.0
H1414 H 0.8134 0.90156 0.76567 0.0
H1415 H 0.88524 0.90576 0.79441 0.0
H1416 H 0.86266 0.92162 0.82102 0.0
H1417 H 0.88124 0.86159 0.77737 0.0
H1418 H 0.86954 0.94972 0.7614 0.0
H1419 H 0.84537 0.98972 0.75661 0.0
H1420 H 0.7991 0.9524 0.71658 0.0
H1421 H 0.82277 0.91205 0.72131 0.0
C1422 C 0.93917 0.84253 0.70118 0.0
C1423 C 0.9242 0.8328 0.68698 0.0
C1424 C 0.9276 0.85502 0.71564 0.0
C1425 C 0.90087 0.85798 0.71618 0.0
C1426 C 0.88594 0.84912 0.70177 0.0
C1427 C 0.89747 0.83654 0.68733 0.0
C1428 C 0.88838 0.86934 0.73213 0.0
C1429 C 0.8737 0.89162 0.72999 0.0
C1430 C 0.89128 0.85848 0.74943 0.0
C1431 C 0.90563 0.8343 0.75237 0.0
C1432 C 0.89874 0.81177 0.74312 0.0
C1433 C 0.91254 0.78914 0.74581 0.0
C1434 C 0.93314 0.78875 0.75783 0.0
C1435 C 0.93993 0.81098 0.76722 0.0
C1436 C 0.92621 0.83367 0.76456 0.0
C1437 C 0.81149 0.91545 0.79272 0.0
C1438 C 0.82504 0.92099 0.80859 0.0
C1439 C 0.82436 0.90627 0.7776 0.0
C1440 C 0.85106 0.90279 0.77798 0.0
C1441 C 0.86463 0.90833 0.79382 0.0
C1442 C 0.85173 0.91733 0.809 0.0
C1443 C 0.86467 0.89249 0.76206 0.0
C1444 C 0.87954 0.8703 0.76418 0.0
C1445 C 0.862 0.90352 0.74477 0.0
C1446 C 0.84779 0.9278 0.74183 0.0
C1447 C 0.85409 0.94999 0.75167 0.0
C1448 C 0.84049 0.97273 0.74895 0.0
C1449 C 0.82067 0.97358 0.73633 0.0
C1450 C 0.81444 0.9517 0.72636 0.0
C1451 C 0.82796 0.9289 0.72904 0.0
H1452 H 0.81017 0.99121 0.73424 0.0
H1453 H 0.94379 0.77121 0.75989 0.0
H1454 H 0.8045 0.10896 0.31532 0.0
H1455 H 0.82542 0.13044 0.29007 0.0
H1456 H 0.87605 0.0658 0.2835 0.0
H1457 H 0.85521 0.04419 0.30891 0.0
H1458 H 0.90169 0.11063 0.27996 0.0
H1459 H 0.82521 0.07326 0.2558 0.0
H1460 H 0.77888 0.06372 0.25417 0.0
H1461 H 0.76269 0.14391 0.24765 0.0
H1462 H 0.80893 0.15399 0.2495 0.0
H1463 H 0.94046 0.14495 0.19067 0.0
H1464 H 0.92285 0.12219 0.21677 0.0
H1465 H 0.87439 0.18698 0.22852 0.0
H1466 H 0.89175 0.20974 0.2024 0.0
H1467 H 0.84835 0.14035 0.22884 0.0
H1468 H 0.9254 0.17732 0.25356 0.0
H1469 H 0.97188 0.18619 0.25486 0.0
H1470 H 0.98712 0.10555 0.25963 0.0
H1471 H 0.94071 0.09616 0.25809 0.0
C1472 C 0.82002 0.09927 0.30844 0.0
C1473 C 0.82805 0.07478 0.31394 0.0
C1474 C 0.83197 0.11157 0.29404 0.0
C1475 C 0.85198 0.09951 0.28472 0.0
C1476 C 0.86058 0.07538 0.29049 0.0
C1477 C 0.8487 0.0631 0.305 0.0
C1478 C 0.86358 0.11203 0.26879 0.0
C1479 C 0.8901 0.11679 0.26865 0.0
C1480 C 0.84835 0.12039 0.25417 0.0
C1481 C 0.82053 0.1144 0.25295 0.0
C1482 C 0.81176 0.08888 0.25415 0.0
C1483 C 0.78552 0.08337 0.25317 0.0
C1484 C 0.76785 0.1032 0.25085 0.0
C1485 C 0.7764 0.12858 0.24946 0.0
C1486 C 0.80263 0.1342 0.25046 0.0
C1487 C 0.92604 0.1543 0.19883 0.0
C1488 C 0.91748 0.17911 0.19456 0.0
C1489 C 0.91614 0.14137 0.21376 0.0
C1490 C 0.89745 0.15301 0.22458 0.0
C1491 C 0.88885 0.17774 0.22033 0.0
C1492 C 0.89889 0.19076 0.20551 0.0
C1493 C 0.88637 0.13918 0.24012 0.0
C1494 C 0.85993 0.13411 0.24013 0.0
C1495 C 0.9017 0.13042 0.25453 0.0
C1496 C 0.9296 0.13602 0.25551 0.0
C1497 C 0.93867 0.16145 0.25472 0.0
C1498 C 0.965 0.16658 0.25554 0.0
C1499 C 0.98245 0.14644 0.25728 0.0
C1500 C 0.97358 0.12113 0.25825 0.0
C1501 C 0.94727 0.1159 0.25742 0.0
H1502 H 0.00282 0.15045 0.25791 0.0
H1503 H 0.74754 0.0989 0.25009 0.0
loop_
_geom_bond_atom_site_label_1
_geom_bond_atom_site_label_2
_geom_bond_distance
_geom_bond_site_symmetry_2
_ccdc_geom_bond_type
Li0 N17 1.990 . S
Li0 O60 1.956 . S
Li0 O61 1.970 . S
Li0 O62 1.961 . S
Li1 N25 1.990 . S
Li1 O60 1.970 . S
Li1 O61 1.956 . S
Li1 O63 1.961 . S
Li2 N47 1.990 1_455 S
Li2 O60 1.961 . S
Li2 O62 1.956 . S
Li2 O63 1.970 . S
Li3 N53 1.990 . S
Li3 O61 1.961 . S
Li3 O62 1.970 . S
Li3 O63 1.956 . S
C4 C6 1.350 . S
C4 C7 1.383 . S
C4 O60 1.297 1_655 S
N5 C8 1.314 . S
N5 C9 1.279 . S
C6 C4 1.350 . S
C6 C8 1.353 . S
C6 H64 0.929 1_655 S
C7 C4 1.383 . S
C7 C9 1.358 . S
C7 H65 0.930 . S
C8 N5 1.314 . S
C8 C6 1.353 . S
C8 H66 0.930 . S
C9 N5 1.279 . S
C9 C7 1.358 . S
C9 H67 0.930 . S
C10 C13 1.348 . S
C10 C14 1.356 . S
C10 O61 1.325 . S
C11 N12 1.279 . S
C11 C14 1.358 . S
C11 H68 0.930 . S
N12 C11 1.279 . S
N12 C15 1.314 . S
C13 C10 1.348 . S
C13 C15 1.353 . S
C13 H69 0.929 . S
C14 C10 1.356 . S
C14 C11 1.358 . S
C14 H70 0.930 . S
C15 N12 1.314 . S
C15 C13 1.353 . S
C15 H71 0.930 . S
C16 N17 1.314 . S
C16 C21 1.353 . S
C16 H22 0.930 . S
N17 Li0 1.990 . S
N17 C16 1.314 . S
N17 C19 1.279 . S
C18 C19 1.358 . S
C18 C20 1.356 . S
C18 H72 0.930 . S
C19 N17 1.279 . S
C19 C18 1.358 . S
C19 H23 0.930 . S
C20 C18 1.356 . S
C20 C21 1.348 . S
C21 C16 1.353 . S
C21 C20 1.348 . S
C21 H73 0.929 . S
H22 C16 0.930 . S
H23 C19 0.930 . S
C24 N25 1.314 . S
C24 C26 1.353 . S
C24 H30 0.930 . S
N25 Li1 1.990 . S
N25 C24 1.314 . S
N25 C28 1.279 . S
C26 C24 1.353 . S
C26 C29 1.348 . S
C26 H74 0.929 . S
C27 C28 1.358 . S
C27 C29 1.356 . S
C27 H75 0.930 . S
C28 N25 1.279 . S
C28 C27 1.358 . S
C28 H31 0.930 . S
C29 C26 1.348 . S
C29 C27 1.356 . S
H30 C24 0.930 . S
H31 C28 0.930 . S
C32 C34 1.348 . S
C32 C35 1.356 . S
C32 O62 1.325 . S
N33 C36 1.314 . S
N33 C37 1.279 . S
C34 C32 1.348 . S
C34 C36 1.353 . S
C34 H76 0.929 . S
C35 C32 1.356 . S
C35 C37 1.358 . S
C35 H77 0.930 . S
C36 N33 1.314 . S
C36 C34 1.353 . S
C36 H78 0.930 . S
C37 N33 1.279 . S
C37 C35 1.358 . S
C37 H79 0.930 . S
C38 C39 1.348 . S
C38 C40 1.356 . S
C38 O63 1.325 . S
C39 C38 1.348 . S
C39 C41 1.353 . S
C39 H80 0.929 . S
C40 C38 1.356 . S
C40 C42 1.358 . S
C40 H81 0.930 . S
C41 C39 1.353 . S
C41 N43 1.314 . S
C41 H82 0.930 1_455 S
C42 C40 1.358 . S
C42 N43 1.279 . S
C42 H83 0.930 . S
N43 C41 1.314 . S
N43 C42 1.279 . S
C44 C46 1.353 . S
C44 N47 1.314 . S
C44 H50 0.930 . S
C45 N47 1.279 . S
C45 C48 1.358 . S
C45 H51 0.930 . S
C46 C44 1.353 . S
C46 C49 1.348 . S
C46 H84 0.929 . S
N47 Li2 1.990 1_655 S
N47 C44 1.314 . S
N47 C45 1.279 . S
C48 C45 1.358 . S
C48 C49 1.356 . S
C48 H85 0.930 . S
C49 C46 1.348 . S
C49 C48 1.356 . S
H50 C44 0.930 . S
H51 C45 0.930 . S
C52 N53 1.314 . S
C52 C54 1.353 . S
C52 H58 0.930 . S
N53 Li3 1.990 . S
N53 C52 1.314 . S
N53 C56 1.279 . S
C54 C52 1.353 . S
C54 C57 1.348 . S
C54 H86 0.929 . S
C55 C56 1.358 . S
C55 C57 1.356 . S
C55 H87 0.930 . S
C56 N53 1.279 . S
C56 C55 1.358 . S
C56 H59 0.930 . S
C57 C54 1.348 . S
C57 C55 1.356 . S
H58 C52 0.930 . S
H59 C56 0.930 . S
O60 Li0 1.956 . S
O60 Li1 1.970 . S
O60 Li2 1.961 . S
O60 C4 1.297 1_455 S
O61 Li0 1.970 . S
O61 Li1 1.956 . S
O61 Li3 1.961 . S
O61 C10 1.325 . S
O62 Li0 1.961 . S
O62 Li2 1.956 . S
O62 Li3 1.970 . S
O62 C32 1.325 . S
O63 Li1 1.961 . S
O63 Li2 1.970 . S
O63 Li3 1.956 . S
O63 C38 1.325 . S
H64 C6 0.929 1_455 S
H65 C7 0.930 . S
H66 C8 0.930 . S
H67 C9 0.930 . S
H68 C11 0.930 . S
H69 C13 0.929 . S
H70 C14 0.930 . S
H71 C15 0.930 . S
H72 C18 0.930 . S
H73 C21 0.929 . S
H74 C26 0.929 . S
H75 C27 0.930 . S
H76 C34 0.929 . S
H77 C35 0.930 . S
H78 C36 0.930 . S
H79 C37 0.930 . S
H80 C39 0.929 . S
H81 C40 0.930 . S
H82 C41 0.930 1_655 S
H83 C42 0.930 . S
H84 C46 0.929 . S
H85 C48 0.930 . S
H86 C54 0.929 . S
H87 C55 0.930 . S
Li88 N105 1.990 1_565 S
Li88 O148 1.956 . S
Li88 O149 1.970 . S
Li88 O150 1.961 . S
Li89 N113 1.990 . S
Li89 O148 1.970 . S
Li89 O149 1.956 . S
Li89 O151 1.961 . S
Li90 N135 1.990 . S
Li90 O148 1.961 . S
Li90 O150 1.956 . S
Li90 O151 1.970 . S
Li91 N141 1.990 . S
Li91 O149 1.961 . S
Li91 O150 1.970 . S
Li91 O151 1.956 . S
C92 C94 1.348 . S
C92 C95 1.356 . S
C92 O148 1.325 1_545 S
N93 C96 1.314 . S
N93 C97 1.279 . S
C94 C92 1.348 . S
C94 C96 1.353 . S
C94 H152 0.929 . S
C95 C92 1.356 . S
C95 C97 1.358 . S
C95 H153 0.930 . S
C96 N93 1.314 . S
C96 C94 1.353 . S
C96 H154 0.930 . S
C97 N93 1.279 . S
C97 C95 1.358 . S
C97 H155 0.930 . S
C98 C101 1.348 . S
C98 C102 1.356 . S
C98 O149 1.325 . S
C99 N100 1.279 . S
C99 C102 1.358 . S
C99 H156 0.930 . S
N100 C99 1.279 . S
N100 C103 1.314 . S
C101 C98 1.348 . S
C101 C103 1.353 . S
C101 H157 0.929 1_565 S
C102 C98 1.356 . S
C102 C99 1.358 . S
C102 H158 0.930 . S
C103 N100 1.314 . S
C103 C101 1.353 . S
C103 H159 0.930 1_565 S
C104 N105 1.314 . S
C104 C109 1.353 . S
C104 H110 0.930 . S
N105 Li88 1.990 1_545 S
N105 C104 1.314 . S
N105 C107 1.279 . S
C106 C107 1.358 . S
C106 C108 1.356 . S
C106 H160 0.930 . S
C107 N105 1.279 . S
C107 C106 1.358 . S
C107 H111 0.930 . S
C108 C106 1.356 . S
C108 C109 1.348 . S
C109 C104 1.353 . S
C109 C108 1.348 . S
C109 H161 0.929 . S
H110 C104 0.930 . S
H111 C107 0.930 . S
C112 N113 1.314 . S
C112 C114 1.353 . S
C112 H118 0.930 . S
N113 Li89 1.990 . S
N113 C112 1.314 . S
N113 C116 1.279 . S
C114 C112 1.353 . S
C114 C117 1.348 . S
C114 H162 0.929 . S
C115 C116 1.358 . S
C115 C117 1.356 . S
C115 H163 0.930 . S
C116 N113 1.279 . S
C116 C115 1.358 . S
C116 H119 0.930 . S
C117 C114 1.348 . S
C117 C115 1.356 . S
H118 C112 0.930 . S
H119 C116 0.930 . S
C120 C122 1.348 . S
C120 C123 1.356 . S
C120 O150 1.325 . S
N121 C124 1.314 . S
N121 C125 1.279 . S
C122 C120 1.348 . S
C122 C124 1.353 . S
C122 H164 0.929 . S
C123 C120 1.356 . S
C123 C125 1.358 . S
C123 H165 0.930 . S
C124 N121 1.314 . S
C124 C122 1.353 . S
C124 H166 0.930 . S
C125 N121 1.279 . S
C125 C123 1.358 . S
C125 H167 0.930 . S
C126 C127 1.348 . S
C126 C128 1.356 . S
C126 O151 1.325 . S
C127 C126 1.348 . S
C127 C129 1.353 . S
C127 H168 0.929 . S
C128 C126 1.356 . S
C128 C130 1.358 . S
C128 H169 0.930 . S
C129 C127 1.353 . S
C129 N131 1.314 . S
C129 H170 0.930 . S
C130 C128 1.358 . S
C130 N131 1.279 . S
C130 H171 0.930 . S
N131 C129 1.314 . S
N131 C130 1.279 . S
C132 C134 1.353 . S
C132 N135 1.314 . S
C132 H138 0.930 . S
C133 N135 1.279 . S
C133 C136 1.358 . S
C133 H139 0.930 . S
C134 C132 1.353 . S
C134 C137 1.348 . S
C134 H172 0.929 . S
N135 Li90 1.990 . S
N135 C132 1.314 . S
N135 C133 1.279 . S
C136 C133 1.358 . S
C136 C137 1.356 . S
C136 H173 0.930 . S
C137 C134 1.348 . S
C137 C136 1.356 . S
H138 C132 0.930 . S
H139 C133 0.930 . S
C140 N141 1.314 . S
C140 C142 1.353 . S
C140 H146 0.930 . S
N141 Li91 1.990 . S
N141 C140 1.314 . S
N141 C144 1.279 . S
C142 C140 1.353 . S
C142 C145 1.348 . S
C142 H174 0.929 . S
C143 C144 1.358 . S
C143 C145 1.356 . S
C143 H175 0.930 . S
C144 N141 1.279 . S
C144 C143 1.358 . S
C144 H147 0.930 . S
C145 C142 1.348 . S
C145 C143 1.356 . S
H146 C140 0.930 . S
H147 C144 0.930 . S
O148 Li88 1.956 . S
O148 Li89 1.970 . S
O148 Li90 1.961 . S
O148 C92 1.325 1_565 S
O149 Li88 1.970 . S
O149 Li89 1.956 . S
O149 Li91 1.961 . S
O149 C98 1.325 . S
O150 Li88 1.961 . S
O150 Li90 1.956 . S
O150 Li91 1.970 . S
O150 C120 1.325 . S
O151 Li89 1.961 . S
O151 Li90 1.970 . S
O151 Li91 1.956 . S
O151 C126 1.325 . S
H152 C94 0.929 . S
H153 C95 0.930 . S
H154 C96 0.930 . S
H155 C97 0.930 . S
H156 C99 0.930 . S
H157 C101 0.929 1_545 S
H158 C102 0.930 . S
H159 C103 0.930 1_545 S
H160 C106 0.930 . S
H161 C109 0.929 . S
H162 C114 0.929 . S
H163 C115 0.930 . S
H164 C122 0.929 . S
H165 C123 0.930 . S
H166 C124 0.930 . S
H167 C125 0.930 . S
H168 C127 0.929 . S
H169 C128 0.930 . S
H170 C129 0.930 . S
H171 C130 0.930 . S
H172 C134 0.929 . S
H173 C136 0.930 . S
H174 C142 0.929 . S
H175 C143 0.930 . S
Li176 N193 1.990 . S
Li176 O236 1.956 . S
Li176 O237 1.970 . S
Li176 O238 1.961 . S
Li177 N201 1.990 . S
Li177 O236 1.970 . S
Li177 O237 1.956 . S
Li177 O239 1.961 . S
Li178 N223 1.990 1_655 S
Li178 O236 1.961 . S
Li178 O238 1.956 . S
Li178 O239 1.970 . S
Li179 N229 1.990 . S
Li179 O237 1.961 . S
Li179 O238 1.970 . S
Li179 O239 1.956 . S
C180 C182 1.350 . S
C180 C183 1.383 . S
C180 O236 1.297 1_455 S
N181 C184 1.314 . S
N181 C185 1.279 . S
C182 C180 1.350 . S
C182 C184 1.353 . S
C182 H240 0.929 1_455 S
C183 C180 1.383 . S
C183 C185 1.358 . S
C183 H241 0.930 . S
C184 N181 1.314 . S
C184 C182 1.353 . S
C184 H242 0.930 . S
C185 N181 1.279 . S
C185 C183 1.358 . S
C185 H243 0.930 . S
C186 C189 1.348 . S
C186 C190 1.356 . S
C186 O237 1.325 . S
C187 N188 1.279 . S
C187 C190 1.358 . S
C187 H244 0.930 . S
N188 C187 1.279 . S
N188 C191 1.314 . S
C189 C186 1.348 . S
C189 C191 1.353 . S
C189 H245 0.929 . S
C190 C186 1.356 . S
C190 C187 1.358 . S
C190 H246 0.930 . S
C191 N188 1.314 . S
C191 C189 1.353 . S
C191 H247 0.930 . S
C192 N193 1.314 . S
C192 C197 1.353 . S
C192 H198 0.930 . S
N193 Li176 1.990 . S
N193 C192 1.314 . S
N193 C195 1.279 . S
C194 C195 1.358 . S
C194 C196 1.356 . S
C194 H248 0.930 . S
C195 N193 1.279 . S
C195 C194 1.358 . S
C195 H199 0.930 . S
C196 C194 1.356 . S
C196 C197 1.348 . S
C197 C192 1.353 . S
C197 C196 1.348 . S
C197 H249 0.929 . S
H198 C192 0.930 . S
H199 C195 0.930 . S
C200 N201 1.314 . S
C200 C202 1.353 . S
C200 H206 0.930 . S
N201 Li177 1.990 . S
N201 C200 1.314 . S
N201 C204 1.279 . S
C202 C200 1.353 . S
C202 C205 1.348 . S
C202 H250 0.929 . S
C203 C204 1.358 . S
C203 C205 1.356 . S
C203 H251 0.930 . S
C204 N201 1.279 . S
C204 C203 1.358 . S
C204 H207 0.930 . S
C205 C202 1.348 . S
C205 C203 1.356 . S
H206 C200 0.930 . S
H207 C204 0.930 . S
C208 C210 1.348 . S
C208 C211 1.356 . S
C208 O238 1.325 . S
N209 C212 1.314 . S
N209 C213 1.279 . S
C210 C208 1.348 . S
C210 C212 1.353 . S
C210 H252 0.929 . S
C211 C208 1.356 . S
C211 C213 1.358 . S
C211 H253 0.930 . S
C212 N209 1.314 . S
C212 C210 1.353 . S
C212 H254 0.930 . S
C213 N209 1.279 . S
C213 C211 1.358 . S
C213 H255 0.930 . S
C214 C215 1.348 . S
C214 C216 1.356 . S
C214 O239 1.325 . S
C215 C214 1.348 . S
C215 C217 1.353 . S
C215 H256 0.929 . S
C216 C214 1.356 . S
C216 C218 1.358 . S
C216 H257 0.930 . S
C217 C215 1.353 . S
C217 N219 1.314 . S
C217 H258 0.930 1_655 S
C218 C216 1.358 . S
C218 N219 1.279 . S
C218 H259 0.930 . S
N219 C217 1.314 . S
N219 C218 1.279 . S
C220 C222 1.353 . S
C220 N223 1.314 . S
C220 H226 0.930 . S
C221 N223 1.279 . S
C221 C224 1.358 . S
C221 H227 0.930 . S
C222 C220 1.353 . S
C222 C225 1.348 . S
C222 H260 0.929 . S
N223 Li178 1.990 1_455 S
N223 C220 1.314 . S
N223 C221 1.279 . S
C224 C221 1.358 . S
C224 C225 1.356 . S
C224 H261 0.930 . S
C225 C222 1.348 . S
C225 C224 1.356 . S
H226 C220 0.930 . S
H227 C221 0.930 . S
C228 N229 1.314 . S
C228 C230 1.353 . S
C228 H234 0.930 . S
N229 Li179 1.990 . S
N229 C228 1.314 . S
N229 C232 1.279 . S
C230 C228 1.353 . S
C230 C233 1.348 . S
C230 H262 0.929 . S
C231 C232 1.358 . S
C231 C233 1.356 . S
C231 H263 0.930 . S
C232 N229 1.279 . S
C232 C231 1.358 . S
C232 H235 0.930 . S
C233 C230 1.348 . S
C233 C231 1.356 . S
H234 C228 0.930 . S
H235 C232 0.930 . S
O236 Li176 1.956 . S
O236 Li177 1.970 . S
O236 Li178 1.961 . S
O236 C180 1.297 1_655 S
O237 Li176 1.970 . S
O237 Li177 1.956 . S
O237 Li179 1.961 . S
O237 C186 1.325 . S
O238 Li176 1.961 . S
O238 Li178 1.956 . S
O238 Li179 1.970 . S
O238 C208 1.325 . S
O239 Li177 1.961 . S
O239 Li178 1.970 . S
O239 Li179 1.956 . S
O239 C214 1.325 . S
H240 C182 0.929 1_655 S
H241 C183 0.930 . S
H242 C184 0.930 . S
H243 C185 0.930 . S
H244 C187 0.930 . S
H245 C189 0.929 . S
H246 C190 0.930 . S
H247 C191 0.930 . S
H248 C194 0.930 . S
H249 C197 0.929 . S
H250 C202 0.929 . S
H251 C203 0.930 . S
H252 C210 0.929 . S
H253 C211 0.930 . S
H254 C212 0.930 . S
H255 C213 0.930 . S
H256 C215 0.929 . S
H257 C216 0.930 . S
H258 C217 0.930 1_455 S
H259 C218 0.930 . S
H260 C222 0.929 . S
H261 C224 0.930 . S
H262 C230 0.929 . S
H263 C231 0.930 . S
Li264 N281 1.990 . S
Li264 O324 1.956 . S
Li264 O325 1.970 . S
Li264 O326 1.961 . S
Li265 N289 1.990 . S
Li265 O324 1.970 . S
Li265 O325 1.956 . S
Li265 O327 1.961 . S
Li266 N311 1.990 1_545 S
Li266 O324 1.961 . S
Li266 O326 1.956 . S
Li266 O327 1.970 . S
Li267 N317 1.990 . S
Li267 O325 1.961 . S
Li267 O326 1.970 . S
Li267 O327 1.956 . S
C268 C270 1.348 . S
C268 C271 1.356 . S
C268 O324 1.325 . S
N269 C272 1.314 . S
N269 C273 1.279 . S
C270 C268 1.348 . S
C270 C272 1.353 . S
C270 H328 0.929 . S
C271 C268 1.356 . S
C271 C273 1.358 . S
C271 H329 0.930 . S
C272 N269 1.314 . S
C272 C270 1.353 . S
C272 H330 0.930 . S
C273 N269 1.279 . S
C273 C271 1.358 . S
C273 H331 0.930 . S
C274 C277 1.348 . S
C274 C278 1.356 . S
C274 O325 1.325 . S
C275 N276 1.279 . S
C275 C278 1.358 . S
C275 H332 0.930 . S
N276 C275 1.279 . S
N276 C279 1.314 . S
C277 C274 1.348 . S
C277 C279 1.353 . S
C277 H333 0.929 . S
C278 C274 1.356 . S
C278 C275 1.358 . S
C278 H334 0.930 . S
C279 N276 1.314 . S
C279 C277 1.353 . S
C279 H335 0.930 . S
C280 N281 1.314 . S
C280 C285 1.353 . S
C280 H286 0.930 . S
N281 Li264 1.990 . S
N281 C280 1.314 . S
N281 C283 1.279 . S
C282 C283 1.358 . S
C282 C284 1.356 . S
C282 H336 0.930 . S
C283 N281 1.279 . S
C283 C282 1.358 . S
C283 H287 0.930 . S
C284 C282 1.356 . S
C284 C285 1.348 . S
C285 C280 1.353 . S
C285 C284 1.348 . S
C285 H337 0.929 . S
H286 C280 0.930 . S
H287 C283 0.930 . S
C288 N289 1.314 . S
C288 C290 1.353 . S
C288 H294 0.930 . S
N289 Li265 1.990 . S
N289 C288 1.314 . S
N289 C292 1.279 . S
C290 C288 1.353 . S
C290 C293 1.348 . S
C290 H338 0.929 . S
C291 C292 1.358 . S
C291 C293 1.356 . S
C291 H339 0.930 . S
C292 N289 1.279 . S
C292 C291 1.358 . S
C292 H295 0.930 . S
C293 C290 1.348 . S
C293 C291 1.356 . S
H294 C288 0.930 . S
H295 C292 0.930 . S
C296 C298 1.348 . S
C296 C299 1.356 . S
C296 O326 1.325 1_565 S
N297 C300 1.314 . S
N297 C301 1.279 . S
C298 C296 1.348 . S
C298 C300 1.353 . S
C298 H340 0.929 . S
C299 C296 1.356 . S
C299 C301 1.358 . S
C299 H341 0.930 . S
C300 N297 1.314 . S
C300 C298 1.353 . S
C300 H342 0.930 . S
C301 N297 1.279 . S
C301 C299 1.358 . S
C301 H343 0.930 . S
C302 C303 1.348 . S
C302 C304 1.356 . S
C302 O327 1.325 . S
C303 C302 1.348 . S
C303 C305 1.353 . S
C303 H344 0.929 1_545 S
C304 C302 1.356 . S
C304 C306 1.358 . S
C304 H345 0.930 . S
C305 C303 1.353 . S
C305 N307 1.314 . S
C305 H346 0.930 1_545 S
C306 C304 1.358 . S
C306 N307 1.279 . S
C306 H347 0.930 . S
N307 C305 1.314 . S
N307 C306 1.279 . S
C308 C310 1.353 . S
C308 N311 1.314 . S
C308 H314 0.930 . S
C309 N311 1.279 . S
C309 C312 1.358 . S
C309 H315 0.930 . S
C310 C308 1.353 . S
C310 C313 1.348 . S
C310 H348 0.929 . S
N311 Li266 1.990 1_565 S
N311 C308 1.314 . S
N311 C309 1.279 . S
C312 C309 1.358 . S
C312 C313 1.356 . S
C312 H349 0.930 . S
C313 C310 1.348 . S
C313 C312 1.356 . S
H314 C308 0.930 . S
H315 C309 0.930 . S
C316 N317 1.314 . S
C316 C318 1.353 . S
C316 H322 0.930 . S
N317 Li267 1.990 . S
N317 C316 1.314 . S
N317 C320 1.279 . S
C318 C316 1.353 . S
C318 C321 1.348 . S
C318 H350 0.929 . S
C319 C320 1.358 . S
C319 C321 1.356 . S
C319 H351 0.930 . S
C320 N317 1.279 . S
C320 C319 1.358 . S
C320 H323 0.930 . S
C321 C318 1.348 . S
C321 C319 1.356 . S
H322 C316 0.930 . S
H323 C320 0.930 . S
O324 Li264 1.956 . S
O324 Li265 1.970 . S
O324 Li266 1.961 . S
O324 C268 1.325 . S
O325 Li264 1.970 . S
O325 Li265 1.956 . S
O325 Li267 1.961 . S
O325 C274 1.325 . S
O326 Li264 1.961 . S
O326 Li266 1.956 . S
O326 Li267 1.970 . S
O326 C296 1.325 1_545 S
O327 Li265 1.961 . S
O327 Li266 1.970 . S
O327 Li267 1.956 . S
O327 C302 1.325 . S
H328 C270 0.929 . S
H329 C271 0.930 . S
H330 C272 0.930 . S
H331 C273 0.930 . S
H332 C275 0.930 . S
H333 C277 0.929 . S
H334 C278 0.930 . S
H335 C279 0.930 . S
H336 C282 0.930 . S
H337 C285 0.929 . S
H338 C290 0.929 . S
H339 C291 0.930 . S
H340 C298 0.929 . S
H341 C299 0.930 . S
H342 C300 0.930 . S
H343 C301 0.930 . S
H344 C303 0.929 1_565 S
H345 C304 0.930 . S
H346 C305 0.930 1_565 S
H347 C306 0.930 . S
H348 C310 0.929 . S
H349 C312 0.930 . S
H350 C318 0.929 . S
H351 C319 0.930 . S
Li352 N369 1.990 . S
Li352 O412 1.956 . S
Li352 O413 1.970 . S
Li352 O414 1.961 . S
Li353 N377 1.990 . S
Li353 O412 1.970 . S
Li353 O413 1.956 . S
Li353 O415 1.961 . S
Li354 N399 1.990 . S
Li354 O412 1.961 . S
Li354 O414 1.956 . S
Li354 O415 1.970 . S
Li355 N405 1.990 1_655 S
Li355 O413 1.961 . S
Li355 O414 1.970 . S
Li355 O415 1.956 . S
C356 C358 1.348 . S
C356 C359 1.356 . S
C356 O412 1.325 . S
N357 C360 1.314 . S
N357 C361 1.279 . S
C358 C356 1.348 . S
C358 C360 1.353 . S
C358 H416 0.929 . S
C359 C356 1.356 . S
C359 C361 1.358 . S
C359 H417 0.930 . S
C360 N357 1.314 . S
C360 C358 1.353 . S
C360 H418 0.930 . S
C361 N357 1.279 . S
C361 C359 1.358 . S
C361 H419 0.930 . S
C362 C365 1.348 . S
C362 C366 1.356 . S
C362 O413 1.325 . S
C363 N364 1.279 . S
C363 C366 1.358 . S
C363 H420 0.930 . S
N364 C363 1.279 . S
N364 C367 1.314 . S
C365 C362 1.348 . S
C365 C367 1.353 . S
C365 H421 0.929 . S
C366 C362 1.356 . S
C366 C363 1.358 . S
C366 H422 0.930 . S
C367 N364 1.314 . S
C367 C365 1.353 . S
C367 H423 0.930 . S
C368 N369 1.314 . S
C368 C373 1.353 . S
C368 H374 0.930 . S
N369 Li352 1.990 . S
N369 C368 1.314 . S
N369 C371 1.279 . S
C370 C371 1.358 . S
C370 C372 1.356 . S
C370 H424 0.930 . S
C371 N369 1.279 . S
C371 C370 1.358 . S
C371 H375 0.930 . S
C372 C370 1.356 . S
C372 C373 1.348 . S
C373 C368 1.353 . S
C373 C372 1.348 . S
C373 H425 0.929 . S
H374 C368 0.930 . S
H375 C371 0.930 . S
C376 N377 1.314 . S
C376 C378 1.353 . S
C376 H382 0.930 . S
N377 Li353 1.990 . S
N377 C376 1.314 . S
N377 C380 1.279 . S
C378 C376 1.353 . S
C378 C381 1.348 . S
C378 H426 0.929 . S
C379 C380 1.358 . S
C379 C381 1.356 . S
C379 H427 0.930 . S
C380 N377 1.279 . S
C380 C379 1.358 . S
C380 H383 0.930 . S
C381 C378 1.348 . S
C381 C379 1.356 . S
H382 C376 0.930 . S
H383 C380 0.930 . S
C384 C386 1.348 . S
C384 C387 1.356 . S
C384 O414 1.325 . S
N385 C388 1.314 . S
N385 C389 1.279 . S
C386 C384 1.348 . S
C386 C388 1.353 . S
C386 H428 0.929 1_655 S
C387 C384 1.356 . S
C387 C389 1.358 . S
C387 H429 0.930 . S
C388 N385 1.314 . S
C388 C386 1.353 . S
C388 H430 0.930 1_655 S
C389 N385 1.279 . S
C389 C387 1.358 . S
C389 H431 0.930 . S
C390 C391 1.348 . S
C390 C392 1.356 . S
C390 O415 1.325 1_455 S
C391 C390 1.348 . S
C391 C393 1.353 . S
C391 H432 0.929 . S
C392 C390 1.356 . S
C392 C394 1.358 . S
C392 H433 0.930 . S
C393 C391 1.353 . S
C393 N395 1.314 . S
C393 H434 0.930 . S
C394 C392 1.358 . S
C394 N395 1.279 . S
C394 H435 0.930 . S
N395 C393 1.314 . S
N395 C394 1.279 . S
C396 C398 1.353 . S
C396 N399 1.314 . S
C396 H402 0.930 . S
C397 N399 1.279 . S
C397 C400 1.358 . S
C397 H403 0.930 . S
C398 C396 1.353 . S
C398 C401 1.348 . S
C398 H436 0.929 . S
N399 Li354 1.990 . S
N399 C396 1.314 . S
N399 C397 1.279 . S
C400 C397 1.358 . S
C400 C401 1.356 . S
C400 H437 0.930 . S
C401 C398 1.348 . S
C401 C400 1.356 . S
H402 C396 0.930 . S
H403 C397 0.930 . S
C404 N405 1.314 . S
C404 C406 1.353 . S
C404 H410 0.930 . S
N405 Li355 1.990 1_455 S
N405 C404 1.314 . S
N405 C408 1.279 . S
C406 C404 1.353 . S
C406 C409 1.348 . S
C406 H438 0.929 . S
C407 C408 1.358 . S
C407 C409 1.356 . S
C407 H439 0.930 . S
C408 N405 1.279 . S
C408 C407 1.358 . S
C408 H411 0.930 . S
C409 C406 1.348 . S
C409 C407 1.356 . S
H410 C404 0.930 . S
H411 C408 0.930 . S
O412 Li352 1.956 . S
O412 Li353 1.970 . S
O412 Li354 1.961 . S
O412 C356 1.325 . S
O413 Li352 1.970 . S
O413 Li353 1.956 . S
O413 Li355 1.961 . S
O413 C362 1.325 . S
O414 Li352 1.961 . S
O414 Li354 1.956 . S
O414 Li355 1.970 . S
O414 C384 1.325 . S
O415 Li353 1.961 . S
O415 Li354 1.970 . S
O415 Li355 1.956 . S
O415 C390 1.325 1_655 S
H416 C358 0.929 . S
H417 C359 0.930 . S
H418 C360 0.930 . S
H419 C361 0.930 . S
H420 C363 0.930 . S
H421 C365 0.929 . S
H422 C366 0.930 . S
H423 C367 0.930 . S
H424 C370 0.930 . S
H425 C373 0.929 . S
H426 C378 0.929 . S
H427 C379 0.930 . S
H428 C386 0.929 1_455 S
H429 C387 0.930 . S
H430 C388 0.930 1_455 S
H431 C389 0.930 . S
H432 C391 0.929 . S
H433 C392 0.930 . S
H434 C393 0.930 . S
H435 C394 0.930 . S
H436 C398 0.929 . S
H437 C400 0.930 . S
H438 C406 0.929 . S
H439 C407 0.930 . S
Li440 N457 1.990 . S
Li440 O500 1.956 . S
Li440 O501 1.970 . S
Li440 O502 1.961 . S
Li441 N465 1.990 1_545 S
Li441 O500 1.970 . S
Li441 O501 1.956 . S
Li441 O503 1.961 . S
Li442 N487 1.990 . S
Li442 O500 1.961 . S
Li442 O502 1.956 . S
Li442 O503 1.970 . S
Li443 N493 1.990 . S
Li443 O501 1.961 . S
Li443 O502 1.970 . S
Li443 O503 1.956 . S
C444 C446 1.348 . S
C444 C447 1.356 . S
C444 O500 1.325 . S
N445 C448 1.314 . S
N445 C449 1.279 . S
C446 C444 1.348 . S
C446 C448 1.353 . S
C446 H504 0.929 . S
C447 C444 1.356 . S
C447 C449 1.358 . S
C447 H505 0.930 . S
C448 N445 1.314 . S
C448 C446 1.353 . S
C448 H506 0.930 1_545 S
C449 N445 1.279 . S
C449 C447 1.358 . S
C449 H507 0.930 . S
C450 C453 1.348 . S
C450 C454 1.356 . S
C450 O501 1.325 . S
C451 N452 1.279 . S
C451 C454 1.358 . S
C451 H508 0.930 . S
N452 C451 1.279 . S
N452 C455 1.314 . S
C453 C450 1.348 . S
C453 C455 1.353 . S
C453 H509 0.929 . S
C454 C450 1.356 . S
C454 C451 1.358 . S
C454 H510 0.930 . S
C455 N452 1.314 . S
C455 C453 1.353 . S
C455 H511 0.930 . S
C456 N457 1.314 . S
C456 C461 1.353 . S
C456 H462 0.930 . S
N457 Li440 1.990 . S
N457 C456 1.314 . S
N457 C459 1.279 . S
C458 C459 1.358 . S
C458 C460 1.356 . S
C458 H512 0.930 . S
C459 N457 1.279 . S
C459 C458 1.358 . S
C459 H463 0.930 . S
C460 C458 1.356 . S
C460 C461 1.348 . S
C461 C456 1.353 . S
C461 C460 1.348 . S
C461 H513 0.929 . S
H462 C456 0.930 . S
H463 C459 0.930 . S
C464 N465 1.314 . S
C464 C466 1.353 . S
C464 H470 0.930 . S
N465 Li441 1.990 1_565 S
N465 C464 1.314 . S
N465 C468 1.279 . S
C466 C464 1.353 . S
C466 C469 1.348 . S
C466 H514 0.929 . S
C467 C468 1.358 . S
C467 C469 1.356 . S
C467 H515 0.930 . S
C468 N465 1.279 . S
C468 C467 1.358 . S
C468 H471 0.930 . S
C469 C466 1.348 . S
C469 C467 1.356 . S
H470 C464 0.930 . S
H471 C468 0.930 . S
C472 C474 1.348 . S
C472 C475 1.356 . S
C472 O502 1.325 . S
N473 C476 1.314 . S
N473 C477 1.279 . S
C474 C472 1.348 . S
C474 C476 1.353 . S
C474 H516 0.929 . S
C475 C472 1.356 . S
C475 C477 1.358 . S
C475 H517 0.930 . S
C476 N473 1.314 . S
C476 C474 1.353 . S
C476 H518 0.930 . S
C477 N473 1.279 . S
C477 C475 1.358 . S
C477 H519 0.930 . S
C478 C479 1.350 . S
C478 C480 1.383 . S
C478 O503 1.297 1_565 S
C479 C478 1.350 . S
C479 C481 1.353 . S
C479 H520 0.929 1_565 S
C480 C478 1.383 . S
C480 C482 1.358 . S
C480 H521 0.930 . S
C481 C479 1.353 . S
C481 N483 1.314 . S
C481 H522 0.930 . S
C482 C480 1.358 . S
C482 N483 1.279 . S
C482 H523 0.930 . S
N483 C481 1.314 . S
N483 C482 1.279 . S
C484 C486 1.353 . S
C484 N487 1.314 . S
C484 H490 0.930 . S
C485 N487 1.279 . S
C485 C488 1.358 . S
C485 H491 0.930 . S
C486 C484 1.353 . S
C486 C489 1.348 . S
C486 H524 0.929 . S
N487 Li442 1.990 . S
N487 C484 1.314 . S
N487 C485 1.279 . S
C488 C485 1.358 . S
C488 C489 1.356 . S
C488 H525 0.930 . S
C489 C486 1.348 . S
C489 C488 1.356 . S
H490 C484 0.930 . S
H491 C485 0.930 . S
C492 N493 1.314 . S
C492 C494 1.353 . S
C492 H498 0.930 . S
N493 Li443 1.990 . S
N493 C492 1.314 . S
N493 C496 1.279 . S
C494 C492 1.353 . S
C494 C497 1.348 . S
C494 H526 0.929 . S
C495 C496 1.358 . S
C495 C497 1.356 . S
C495 H527 0.930 . S
C496 N493 1.279 . S
C496 C495 1.358 . S
C496 H499 0.930 . S
C497 C494 1.348 . S
C497 C495 1.356 . S
H498 C492 0.930 . S
H499 C496 0.930 . S
O500 Li440 1.956 . S
O500 Li441 1.970 . S
O500 Li442 1.961 . S
O500 C444 1.325 . S
O501 Li440 1.970 . S
O501 Li441 1.956 . S
O501 Li443 1.961 . S
O501 C450 1.325 . S
O502 Li440 1.961 . S
O502 Li442 1.956 . S
O502 Li443 1.970 . S
O502 C472 1.325 . S
O503 Li441 1.961 . S
O503 Li442 1.970 . S
O503 Li443 1.956 . S
O503 C478 1.297 1_545 S
H504 C446 0.929 . S
H505 C447 0.930 . S
H506 C448 0.930 1_565 S
H507 C449 0.930 . S
H508 C451 0.930 . S
H509 C453 0.929 . S
H510 C454 0.930 . S
H511 C455 0.930 . S
H512 C458 0.930 . S
H513 C461 0.929 . S
H514 C466 0.929 . S
H515 C467 0.930 . S
H516 C474 0.929 . S
H517 C475 0.930 . S
H518 C476 0.930 . S
H519 C477 0.930 . S
H520 C479 0.929 1_545 S
H521 C480 0.930 . S
H522 C481 0.930 . S
H523 C482 0.930 . S
H524 C486 0.929 . S
H525 C488 0.930 . S
H526 C494 0.929 . S
H527 C495 0.930 . S
Li528 N545 1.990 1_455 S
Li528 O588 1.956 . S
Li528 O589 1.970 . S
Li528 O590 1.961 . S
Li529 N553 1.990 . S
Li529 O588 1.970 . S
Li529 O589 1.956 . S
Li529 O591 1.961 . S
Li530 N575 1.990 . S
Li530 O588 1.961 . S
Li530 O590 1.956 . S
Li530 O591 1.970 . S
Li531 N581 1.990 . S
Li531 O589 1.961 . S
Li531 O590 1.970 . S
Li531 O591 1.956 . S
C532 C534 1.348 . S
C532 C535 1.356 . S
C532 O588 1.325 1_655 S
N533 C536 1.314 . S
N533 C537 1.279 . S
C534 C532 1.348 . S
C534 C536 1.353 . S
C534 H592 0.929 . S
C535 C532 1.356 . S
C535 C537 1.358 . S
C535 H593 0.930 . S
C536 N533 1.314 . S
C536 C534 1.353 . S
C536 H594 0.930 . S
C537 N533 1.279 . S
C537 C535 1.358 . S
C537 H595 0.930 . S
C538 C541 1.348 . S
C538 C542 1.356 . S
C538 O589 1.325 . S
C539 N540 1.279 . S
C539 C542 1.358 . S
C539 H596 0.930 . S
N540 C539 1.279 . S
N540 C543 1.314 . S
C541 C538 1.348 . S
C541 C543 1.353 . S
C541 H597 0.929 1_455 S
C542 C538 1.356 . S
C542 C539 1.358 . S
C542 H598 0.930 . S
C543 N540 1.314 . S
C543 C541 1.353 . S
C543 H599 0.930 1_455 S
C544 N545 1.314 . S
C544 C549 1.353 . S
C544 H550 0.930 . S
N545 Li528 1.990 1_655 S
N545 C544 1.314 . S
N545 C547 1.279 . S
C546 C547 1.358 . S
C546 C548 1.356 . S
C546 H600 0.930 . S
C547 N545 1.279 . S
C547 C546 1.358 . S
C547 H551 0.930 . S
C548 C546 1.356 . S
C548 C549 1.348 . S
C549 C544 1.353 . S
C549 C548 1.348 . S
C549 H601 0.929 . S
H550 C544 0.930 . S
H551 C547 0.930 . S
C552 N553 1.314 . S
C552 C554 1.353 . S
C552 H558 0.930 . S
N553 Li529 1.990 . S
N553 C552 1.314 . S
N553 C556 1.279 . S
C554 C552 1.353 . S
C554 C557 1.348 . S
C554 H602 0.929 . S
C555 C556 1.358 . S
C555 C557 1.356 . S
C555 H603 0.930 . S
C556 N553 1.279 . S
C556 C555 1.358 . S
C556 H559 0.930 . S
C557 C554 1.348 . S
C557 C555 1.356 . S
H558 C552 0.930 . S
H559 C556 0.930 . S
C560 C562 1.348 . S
C560 C563 1.356 . S
C560 O590 1.325 . S
N561 C564 1.314 . S
N561 C565 1.279 . S
C562 C560 1.348 . S
C562 C564 1.353 . S
C562 H604 0.929 . S
C563 C560 1.356 . S
C563 C565 1.358 . S
C563 H605 0.930 . S
C564 N561 1.314 . S
C564 C562 1.353 . S
C564 H606 0.930 . S
C565 N561 1.279 . S
C565 C563 1.358 . S
C565 H607 0.930 . S
C566 C567 1.348 . S
C566 C568 1.356 . S
C566 O591 1.325 . S
C567 C566 1.348 . S
C567 C569 1.353 . S
C567 H608 0.929 . S
C568 C566 1.356 . S
C568 C570 1.358 . S
C568 H609 0.930 . S
C569 C567 1.353 . S
C569 N571 1.314 . S
C569 H610 0.930 . S
C570 C568 1.358 . S
C570 N571 1.279 . S
C570 H611 0.930 . S
N571 C569 1.314 . S
N571 C570 1.279 . S
C572 C574 1.353 . S
C572 N575 1.314 . S
C572 H578 0.930 . S
C573 N575 1.279 . S
C573 C576 1.358 . S
C573 H579 0.930 . S
C574 C572 1.353 . S
C574 C577 1.348 . S
C574 H612 0.929 . S
N575 Li530 1.990 . S
N575 C572 1.314 . S
N575 C573 1.279 . S
C576 C573 1.358 . S
C576 C577 1.356 . S
C576 H613 0.930 . S
C577 C574 1.348 . S
C577 C576 1.356 . S
H578 C572 0.930 . S
H579 C573 0.930 . S
C580 N581 1.314 . S
C580 C582 1.353 . S
C580 H586 0.930 . S
N581 Li531 1.990 . S
N581 C580 1.314 . S
N581 C584 1.279 . S
C582 C580 1.353 . S
C582 C585 1.348 . S
C582 H614 0.929 . S
C583 C584 1.358 . S
C583 C585 1.356 . S
C583 H615 0.930 . S
C584 N581 1.279 . S
C584 C583 1.358 . S
C584 H587 0.930 . S
C585 C582 1.348 . S
C585 C583 1.356 . S
H586 C580 0.930 . S
H587 C584 0.930 . S
O588 Li528 1.956 . S
O588 Li529 1.970 . S
O588 Li530 1.961 . S
O588 C532 1.325 1_455 S
O589 Li528 1.970 . S
O589 Li529 1.956 . S
O589 Li531 1.961 . S
O589 C538 1.325 . S
O590 Li528 1.961 . S
O590 Li530 1.956 . S
O590 Li531 1.970 . S
O590 C560 1.325 . S
O591 Li529 1.961 . S
O591 Li530 1.970 . S
O591 Li531 1.956 . S
O591 C566 1.325 . S
H592 C534 0.929 . S
H593 C535 0.930 . S
H594 C536 0.930 . S
H595 C537 0.930 . S
H596 C539 0.930 . S
H597 C541 0.929 1_655 S
H598 C542 0.930 . S
H599 C543 0.930 1_655 S
H600 C546 0.930 . S
H601 C549 0.929 . S
H602 C554 0.929 . S
H603 C555 0.930 . S
H604 C562 0.929 . S
H605 C563 0.930 . S
H606 C564 0.930 . S
H607 C565 0.930 . S
H608 C567 0.929 . S
H609 C568 0.930 . S
H610 C569 0.930 . S
H611 C570 0.930 . S
H612 C574 0.929 . S
H613 C576 0.930 . S
H614 C582 0.929 . S
H615 C583 0.930 . S
Li616 N633 1.990 1_565 S
Li616 O676 1.956 . S
Li616 O677 1.970 . S
Li616 O678 1.961 . S
Li617 N641 1.990 . S
Li617 O676 1.970 . S
Li617 O677 1.956 . S
Li617 O679 1.961 . S
Li618 N663 1.990 . S
Li618 O676 1.961 . S
Li618 O678 1.956 . S
Li618 O679 1.970 . S
Li619 N669 1.990 . S
Li619 O677 1.961 . S
Li619 O678 1.970 . S
Li619 O679 1.956 . S
C620 C622 1.348 . S
C620 C623 1.356 . S
C620 O676 1.325 . S
N621 C624 1.314 . S
N621 C625 1.279 . S
C622 C620 1.348 . S
C622 C624 1.353 . S
C622 H680 0.929 . S
C623 C620 1.356 . S
C623 C625 1.358 . S
C623 H681 0.930 . S
C624 N621 1.314 . S
C624 C622 1.353 . S
C624 H682 0.930 . S
C625 N621 1.279 . S
C625 C623 1.358 . S
C625 H683 0.930 . S
C626 C629 1.348 . S
C626 C630 1.356 . S
C626 O677 1.325 . S
C627 N628 1.279 . S
C627 C630 1.358 . S
C627 H684 0.930 . S
N628 C627 1.279 . S
N628 C631 1.314 . S
C629 C626 1.348 . S
C629 C631 1.353 . S
C629 H685 0.929 . S
C630 C626 1.356 . S
C630 C627 1.358 . S
C630 H686 0.930 . S
C631 N628 1.314 . S
C631 C629 1.353 . S
C631 H687 0.930 1_565 S
C632 N633 1.314 . S
C632 C637 1.353 . S
C632 H638 0.930 . S
N633 Li616 1.990 1_545 S
N633 C632 1.314 . S
N633 C635 1.279 . S
C634 C635 1.358 . S
C634 C636 1.356 . S
C634 H688 0.930 . S
C635 N633 1.279 . S
C635 C634 1.358 . S
C635 H639 0.930 . S
C636 C634 1.356 . S
C636 C637 1.348 . S
C637 C632 1.353 . S
C637 C636 1.348 . S
C637 H689 0.929 . S
H638 C632 0.930 . S
H639 C635 0.930 . S
C640 N641 1.314 . S
C640 C642 1.353 . S
C640 H646 0.930 . S
N641 Li617 1.990 . S
N641 C640 1.314 . S
N641 C644 1.279 . S
C642 C640 1.353 . S
C642 C645 1.348 . S
C642 H690 0.929 . S
C643 C644 1.358 . S
C643 C645 1.356 . S
C643 H691 0.930 . S
C644 N641 1.279 . S
C644 C643 1.358 . S
C644 H647 0.930 . S
C645 C642 1.348 . S
C645 C643 1.356 . S
H646 C640 0.930 . S
H647 C644 0.930 . S
C648 C650 1.350 . S
C648 C651 1.383 . S
C648 O678 1.297 1_545 S
N649 C652 1.314 . S
N649 C653 1.279 . S
C650 C648 1.350 . S
C650 C652 1.353 . S
C650 H692 0.929 1_545 S
C651 C648 1.383 . S
C651 C653 1.358 . S
C651 H693 0.930 . S
C652 N649 1.314 . S
C652 C650 1.353 . S
C652 H694 0.930 . S
C653 N649 1.279 . S
C653 C651 1.358 . S
C653 H695 0.930 . S
C654 C655 1.348 . S
C654 C656 1.356 . S
C654 O679 1.325 . S
C655 C654 1.348 . S
C655 C657 1.353 . S
C655 H696 0.929 . S
C656 C654 1.356 . S
C656 C658 1.358 . S
C656 H697 0.930 . S
C657 C655 1.353 . S
C657 N659 1.314 . S
C657 H698 0.930 . S
C658 C656 1.358 . S
C658 N659 1.279 . S
C658 H699 0.930 . S
N659 C657 1.314 . S
N659 C658 1.279 . S
C660 C662 1.353 . S
C660 N663 1.314 . S
C660 H666 0.930 . S
C661 N663 1.279 . S
C661 C664 1.358 . S
C661 H667 0.930 . S
C662 C660 1.353 . S
C662 C665 1.348 . S
C662 H700 0.929 . S
N663 Li618 1.990 . S
N663 C660 1.314 . S
N663 C661 1.279 . S
C664 C661 1.358 . S
C664 C665 1.356 . S
C664 H701 0.930 . S
C665 C662 1.348 . S
C665 C664 1.356 . S
H666 C660 0.930 . S
H667 C661 0.930 . S
C668 N669 1.314 . S
C668 C670 1.353 . S
C668 H674 0.930 . S
N669 Li619 1.990 . S
N669 C668 1.314 . S
N669 C672 1.279 . S
C670 C668 1.353 . S
C670 C673 1.348 . S
C670 H702 0.929 . S
C671 C672 1.358 . S
C671 C673 1.356 . S
C671 H703 0.930 . S
C672 N669 1.279 . S
C672 C671 1.358 . S
C672 H675 0.930 . S
C673 C670 1.348 . S
C673 C671 1.356 . S
H674 C668 0.930 . S
H675 C672 0.930 . S
O676 Li616 1.956 . S
O676 Li617 1.970 . S
O676 Li618 1.961 . S
O676 C620 1.325 . S
O677 Li616 1.970 . S
O677 Li617 1.956 . S
O677 Li619 1.961 . S
O677 C626 1.325 . S
O678 Li616 1.961 . S
O678 Li618 1.956 . S
O678 Li619 1.970 . S
O678 C648 1.297 1_565 S
O679 Li617 1.961 . S
O679 Li618 1.970 . S
O679 Li619 1.956 . S
O679 C654 1.325 . S
H680 C622 0.929 . S
H681 C623 0.930 . S
H682 C624 0.930 . S
H683 C625 0.930 . S
H684 C627 0.930 . S
H685 C629 0.929 . S
H686 C630 0.930 . S
H687 C631 0.930 1_545 S
H688 C634 0.930 . S
H689 C637 0.929 . S
H690 C642 0.929 . S
H691 C643 0.930 . S
H692 C650 0.929 1_565 S
H693 C651 0.930 . S
H694 C652 0.930 . S
H695 C653 0.930 . S
H696 C655 0.929 . S
H697 C656 0.930 . S
H698 C657 0.930 . S
H699 C658 0.930 . S
H700 C662 0.929 . S
H701 C664 0.930 . S
H702 C670 0.929 . S
H703 C671 0.930 . S
H704 C722 0.951 . S
H705 C724 0.951 1_455 S
H706 C726 0.950 . S
H707 C727 0.950 . S
H708 C729 0.950 . S
H709 C732 0.950 . S
H710 C733 0.950 . S
H711 C735 0.950 . S
H712 C736 0.950 . S
H713 C737 0.951 . S
H714 C739 0.951 1_655 S
H715 C741 0.950 . S
H716 C742 0.950 . S
H717 C744 0.950 . S
H718 C747 0.950 . S
H719 C748 0.950 . S
H720 C750 0.950 . S
H721 C751 0.950 . S
C722 H704 0.951 . S
C722 C723 1.366 . S
C722 C724 1.388 . S
C723 C722 1.366 . S
C723 C727 1.385 . S
C724 H705 0.951 1_655 S
C724 C722 1.388 . S
C724 C725 1.366 . S
C725 C724 1.366 . S
C725 C726 1.414 . S
C725 C728 1.499 . S
C726 H706 0.950 . S
C726 C725 1.414 . S
C726 C727 1.374 . S
C727 H707 0.950 . S
C727 C723 1.385 . S
C727 C726 1.374 . S
C728 C725 1.499 . S
C728 C729 1.373 . S
C728 C730 1.389 1_655 S
C729 H708 0.950 . S
C729 C728 1.373 . S
C729 C745 1.377 . S
C730 C728 1.389 1_455 S
C730 C731 1.524 . S
C730 C744 1.377 . S
C731 C730 1.524 . S
C731 C732 1.397 . S
C731 C736 1.363 . S
C732 H709 0.950 . S
C732 C731 1.397 . S
C732 C733 1.334 . S
C733 H710 0.950 . S
C733 C732 1.334 . S
C733 C734 1.287 . S
C734 C733 1.287 . S
C734 C735 1.524 . S
C734 H753 0.913 . S
C735 H711 0.950 . S
C735 C734 1.524 . S
C735 C736 1.415 . S
C736 H712 0.950 . S
C736 C731 1.363 . S
C736 C735 1.415 . S
C737 H713 0.951 . S
C737 C738 1.366 . S
C737 C739 1.388 . S
C738 C737 1.366 . S
C738 C742 1.385 . S
C739 H714 0.951 1_455 S
C739 C737 1.388 . S
C739 C740 1.366 . S
C740 C739 1.366 . S
C740 C741 1.414 . S
C740 C743 1.499 . S
C741 H715 0.950 . S
C741 C740 1.414 . S
C741 C742 1.374 . S
C742 H716 0.950 . S
C742 C738 1.385 . S
C742 C741 1.374 . S
C743 C740 1.499 . S
C743 C744 1.373 . S
C743 C745 1.389 1_455 S
C744 H717 0.950 . S
C744 C730 1.377 . S
C744 C743 1.373 . S
C745 C729 1.377 . S
C745 C743 1.389 1_655 S
C745 C746 1.524 . S
C746 C745 1.524 . S
C746 C747 1.397 . S
C746 C751 1.363 . S
C747 H718 0.950 . S
C747 C746 1.397 . S
C747 C748 1.334 . S
C748 H719 0.950 . S
C748 C747 1.334 . S
C748 C749 1.287 . S
C749 C748 1.287 . S
C749 C750 1.524 . S
C749 H752 0.999 . S
C750 H720 0.950 . S
C750 C749 1.524 . S
C750 C751 1.415 . S
C751 H721 0.950 . S
C751 C746 1.363 . S
C751 C750 1.415 . S
H752 C749 0.999 . S
H753 C734 0.913 . S
H754 C772 0.951 1_565 S
H755 C774 0.917 1_565 S
H756 C776 0.950 . S
H757 C777 0.950 . S
H758 C779 0.950 . S
H759 C782 0.950 1_545 S
H760 C783 0.950 1_545 S
H761 C785 0.950 . S
H762 C786 0.950 . S
H763 C787 0.951 1_545 S
H764 C789 0.917 1_545 S
H765 C791 0.950 . S
H766 C792 0.950 . S
H767 C794 0.950 . S
H768 C797 0.950 1_565 S
H769 C798 0.950 1_565 S
H770 C800 0.950 . S
H771 C801 0.950 . S
C772 H754 0.951 1_545 S
C772 C773 1.366 . S
C772 C774 1.399 . S
C773 C772 1.366 . S
C773 C777 1.385 . S
C774 H755 0.917 1_545 S
C774 C772 1.399 . S
C774 C775 1.388 . S
C775 C774 1.388 . S
C775 C776 1.414 . S
C775 C778 1.499 . S
C776 H756 0.950 . S
C776 C775 1.414 . S
C776 C777 1.374 . S
C777 H757 0.950 . S
C777 C773 1.385 . S
C777 C776 1.374 . S
C778 C775 1.499 . S
C778 C779 1.373 . S
C778 C780 1.389 1_545 S
C779 H758 0.950 . S
C779 C778 1.373 . S
C779 C795 1.377 . S
C780 C778 1.389 1_565 S
C780 C781 1.524 . S
C780 C794 1.377 . S
C781 C780 1.524 . S
C781 C782 1.397 . S
C781 C786 1.363 . S
C782 H759 0.950 1_565 S
C782 C781 1.397 . S
C782 C783 1.334 . S
C783 H760 0.950 1_565 S
C783 C782 1.334 . S
C783 C784 1.287 . S
C784 C783 1.287 . S
C784 C785 1.524 . S
C784 H803 0.913 . S
C785 H761 0.950 . S
C785 C784 1.524 . S
C785 C786 1.415 . S
C786 H762 0.950 . S
C786 C781 1.363 . S
C786 C785 1.415 . S
C787 H763 0.951 1_565 S
C787 C788 1.366 . S
C787 C789 1.399 . S
C788 C787 1.366 . S
C788 C792 1.385 . S
C789 H764 0.917 1_565 S
C789 C787 1.399 . S
C789 C790 1.388 . S
C790 C789 1.388 . S
C790 C791 1.414 . S
C790 C793 1.499 . S
C791 H765 0.950 . S
C791 C790 1.414 . S
C791 C792 1.374 . S
C792 H766 0.950 . S
C792 C788 1.385 . S
C792 C791 1.374 . S
C793 C790 1.499 . S
C793 C794 1.373 . S
C793 C795 1.389 1_565 S
C794 H767 0.950 . S
C794 C780 1.377 . S
C794 C793 1.373 . S
C795 C779 1.377 . S
C795 C793 1.389 1_545 S
C795 C796 1.524 . S
C796 C795 1.524 . S
C796 C797 1.397 . S
C796 C801 1.363 . S
C797 H768 0.950 1_545 S
C797 C796 1.397 . S
C797 C798 1.334 . S
C798 H769 0.950 1_545 S
C798 C797 1.334 . S
C798 C799 1.287 . S
C799 C798 1.287 . S
C799 C800 1.524 . S
C799 H802 0.999 . S
C800 H770 0.950 . S
C800 C799 1.524 . S
C800 C801 1.415 . S
C801 H771 0.950 . S
C801 C796 1.363 . S
C801 C800 1.415 . S
H802 C799 0.999 . S
H803 C784 0.913 . S
H804 C822 0.951 . S
H805 C824 0.951 . S
H806 C826 0.950 1_455 S
H807 C827 0.950 . S
H808 C829 0.950 . S
H809 C832 0.950 . S
H810 C833 0.950 . S
H811 C835 0.950 . S
H812 C836 0.950 . S
H813 C837 0.951 . S
H814 C839 0.951 . S
H815 C841 0.950 1_655 S
H816 C842 0.950 . S
H817 C844 0.950 . S
H818 C847 0.950 . S
H819 C848 0.950 . S
H820 C850 0.950 . S
H821 C851 0.950 . S
C822 H804 0.951 . S
C822 C823 1.366 . S
C822 C824 1.388 . S
C823 C822 1.366 . S
C823 C827 1.385 . S
C824 H805 0.951 . S
C824 C822 1.388 . S
C824 C825 1.366 . S
C825 C824 1.366 . S
C825 C826 1.414 . S
C825 C828 1.499 . S
C826 H806 0.950 1_655 S
C826 C825 1.414 . S
C826 C827 1.374 . S
C827 H807 0.950 . S
C827 C823 1.385 . S
C827 C826 1.374 . S
C828 C825 1.499 . S
C828 C829 1.373 1_655 S
C828 C830 1.389 . S
C829 H808 0.950 . S
C829 C828 1.373 1_455 S
C829 C845 1.377 . S
C830 C828 1.389 . S
C830 C831 1.524 . S
C830 C844 1.377 . S
C831 C830 1.524 . S
C831 C832 1.397 . S
C831 C836 1.363 . S
C832 H809 0.950 . S
C832 C831 1.397 . S
C832 C833 1.334 . S
C833 H810 0.950 . S
C833 C832 1.334 . S
C833 C834 1.287 . S
C834 C833 1.287 . S
C834 C835 1.524 . S
C834 H853 0.913 . S
C835 H811 0.950 . S
C835 C834 1.524 . S
C835 C836 1.415 . S
C836 H812 0.950 . S
C836 C831 1.363 . S
C836 C835 1.415 . S
C837 H813 0.951 . S
C837 C838 1.366 . S
C837 C839 1.388 . S
C838 C837 1.366 . S
C838 C842 1.385 . S
C839 H814 0.951 . S
C839 C837 1.388 . S
C839 C840 1.366 . S
C840 C839 1.366 . S
C840 C841 1.414 . S
C840 C843 1.499 . S
C841 H815 0.950 1_455 S
C841 C840 1.414 . S
C841 C842 1.374 . S
C842 H816 0.950 . S
C842 C838 1.385 . S
C842 C841 1.374 . S
C843 C840 1.499 . S
C843 C844 1.373 1_455 S
C843 C845 1.389 . S
C844 H817 0.950 . S
C844 C830 1.377 . S
C844 C843 1.373 1_655 S
C845 C829 1.377 . S
C845 C843 1.389 . S
C845 C846 1.524 . S
C846 C845 1.524 . S
C846 C847 1.397 . S
C846 C851 1.363 . S
C847 H818 0.950 . S
C847 C846 1.397 . S
C847 C848 1.334 . S
C848 H819 0.950 . S
C848 C847 1.334 . S
C848 C849 1.287 . S
C849 C848 1.287 . S
C849 C850 1.524 . S
C849 H852 0.999 . S
C850 H820 0.950 . S
C850 C849 1.524 . S
C850 C851 1.415 . S
C851 H821 0.950 . S
C851 C846 1.363 . S
C851 C850 1.415 . S
H852 C849 0.999 . S
H853 C834 0.913 . S
H854 C872 0.951 1_565 S
H855 C874 0.951 1_565 S
H856 C876 0.950 . S
H857 C877 0.950 . S
H858 C879 0.950 . S
H859 C882 0.950 1_545 S
H860 C883 0.972 . S
H861 C885 0.950 . S
H862 C886 0.950 . S
H863 C887 0.951 1_545 S
H864 C889 0.951 1_545 S
H865 C891 0.950 . S
H866 C892 0.950 . S
H867 C894 0.950 . S
H868 C897 0.950 1_565 S
H869 C898 0.972 . S
H870 C900 0.950 . S
H871 C901 0.950 . S
C872 H854 0.951 1_545 S
C872 C873 1.366 . S
C872 C874 1.388 . S
C873 C872 1.366 . S
C873 C877 1.385 . S
C874 H855 0.951 1_545 S
C874 C872 1.388 . S
C874 C875 1.366 . S
C875 C874 1.366 . S
C875 C876 1.414 . S
C875 C878 1.499 . S
C876 H856 0.950 . S
C876 C875 1.414 . S
C876 C877 1.374 . S
C877 H857 0.950 . S
C877 C873 1.385 . S
C877 C876 1.374 . S
C878 C875 1.499 . S
C878 C879 1.373 . S
C878 C880 1.389 1_545 S
C879 H858 0.950 . S
C879 C878 1.373 . S
C879 C895 1.377 . S
C880 C878 1.389 1_565 S
C880 C881 1.524 . S
C880 C894 1.377 . S
C881 C880 1.524 . S
C881 C882 1.397 . S
C881 C886 1.363 . S
C882 H859 0.950 1_565 S
C882 C881 1.397 . S
C882 C883 1.334 . S
C883 H860 0.972 . S
C883 C882 1.334 . S
C883 C884 1.287 . S
C884 C883 1.287 . S
C884 C885 1.524 . S
C884 H903 0.913 . S
C885 H861 0.950 . S
C885 C884 1.524 . S
C885 C886 1.415 . S
C886 H862 0.950 . S
C886 C881 1.363 . S
C886 C885 1.415 . S
C887 H863 0.951 1_565 S
C887 C888 1.366 . S
C887 C889 1.388 . S
C888 C887 1.366 . S
C888 C892 1.385 . S
C889 H864 0.951 1_565 S
C889 C887 1.388 . S
C889 C890 1.366 . S
C890 C889 1.366 . S
C890 C891 1.414 . S
C890 C893 1.499 . S
C891 H865 0.950 . S
C891 C890 1.414 . S
C891 C892 1.374 . S
C892 H866 0.950 . S
C892 C888 1.385 . S
C892 C891 1.374 . S
C893 C890 1.499 . S
C893 C894 1.373 . S
C893 C895 1.389 1_565 S
C894 H867 0.950 . S
C894 C880 1.377 . S
C894 C893 1.373 . S
C895 C879 1.377 . S
C895 C893 1.389 1_545 S
C895 C896 1.524 . S
C896 C895 1.524 . S
C896 C897 1.397 . S
C896 C901 1.363 . S
C897 H868 0.950 1_545 S
C897 C896 1.397 . S
C897 C898 1.334 . S
C898 H869 0.972 . S
C898 C897 1.334 . S
C898 C899 1.287 . S
C899 C898 1.287 . S
C899 C900 1.524 . S
C899 H902 0.999 . S
C900 H870 0.950 . S
C900 C899 1.524 . S
C900 C901 1.415 . S
C901 H871 0.950 . S
C901 C896 1.363 . S
C901 C900 1.415 . S
H902 C899 0.999 . S
H903 C884 0.913 . S
H904 C922 0.951 . S
H905 C924 0.951 . S
H906 C926 0.950 . S
H907 C927 0.950 . S
H908 C929 0.950 . S
H909 C932 0.950 . S
H910 C933 0.950 . S
H911 C935 0.950 . S
H912 C936 0.950 . S
H913 C937 0.951 . S
H914 C939 0.951 . S
H915 C941 0.950 . S
H916 C942 0.950 . S
H917 C944 0.950 . S
H918 C947 0.950 . S
H919 C948 0.950 . S
H920 C950 0.950 . S
H921 C951 0.950 . S
C922 H904 0.951 . S
C922 C923 1.366 . S
C922 C924 1.388 . S
C923 C922 1.366 . S
C923 C927 1.385 . S
C924 H905 0.951 . S
C924 C922 1.388 . S
C924 C925 1.366 . S
C925 C924 1.366 . S
C925 C926 1.414 . S
C925 C928 1.499 . S
C926 H906 0.950 . S
C926 C925 1.414 . S
C926 C927 1.374 . S
C927 H907 0.950 . S
C927 C923 1.385 . S
C927 C926 1.374 . S
C928 C925 1.499 . S
C928 C929 1.373 . S
C928 C930 1.389 . S
C929 H908 0.950 . S
C929 C928 1.373 . S
C929 C945 1.377 . S
C930 C928 1.389 . S
C930 C931 1.524 . S
C930 C944 1.377 . S
C931 C930 1.524 . S
C931 C932 1.397 . S
C931 C936 1.363 . S
C932 H909 0.950 . S
C932 C931 1.397 . S
C932 C933 1.334 . S
C933 H910 0.950 . S
C933 C932 1.334 . S
C933 C934 1.287 . S
C934 C933 1.287 . S
C934 C935 1.524 . S
C934 H953 0.913 . S
C935 H911 0.950 . S
C935 C934 1.524 . S
C935 C936 1.415 . S
C936 H912 0.950 . S
C936 C931 1.363 . S
C936 C935 1.415 . S
C937 H913 0.951 . S
C937 C938 1.366 . S
C937 C939 1.388 . S
C938 C937 1.366 . S
C938 C942 1.385 . S
C939 H914 0.951 . S
C939 C937 1.388 . S
C939 C940 1.366 . S
C940 C939 1.366 . S
C940 C941 1.414 . S
C940 C943 1.499 . S
C941 H915 0.950 . S
C941 C940 1.414 . S
C941 C942 1.374 . S
C942 H916 0.950 . S
C942 C938 1.385 . S
C942 C941 1.374 . S
C943 C940 1.499 . S
C943 C944 1.373 . S
C943 C945 1.389 . S
C944 H917 0.950 . S
C944 C930 1.377 . S
C944 C943 1.373 . S
C945 C929 1.377 . S
C945 C943 1.389 . S
C945 C946 1.524 . S
C946 C945 1.524 . S
C946 C947 1.397 . S
C946 C951 1.363 . S
C947 H918 0.950 . S
C947 C946 1.397 . S
C947 C948 1.334 . S
C948 H919 0.950 . S
C948 C947 1.334 . S
C948 C949 1.287 . S
C949 C948 1.287 . S
C949 C950 1.524 . S
C949 H952 0.999 . S
C950 H920 0.950 . S
C950 C949 1.524 . S
C950 C951 1.415 . S
C951 H921 0.950 . S
C951 C946 1.363 . S
C951 C950 1.415 . S
H952 C949 0.999 . S
H953 C934 0.913 . S
H954 C972 0.951 . S
H955 C974 0.951 . S
H956 C976 0.950 . S
H957 C977 0.950 . S
H958 C979 0.950 . S
H959 C982 0.950 . S
H960 C983 0.950 . S
H961 C985 0.950 . S
H962 C986 0.950 . S
H963 C987 0.951 . S
H964 C989 0.951 . S
H965 C991 0.950 . S
H966 C992 0.950 . S
H967 C994 0.950 . S
H968 C997 0.950 . S
H969 C998 0.950 . S
H970 C1000 0.950 . S
H971 C1001 0.950 . S
C972 H954 0.951 . S
C972 C973 1.366 . S
C972 C974 1.388 . S
C973 C972 1.366 . S
C973 C977 1.385 . S
C974 H955 0.951 . S
C974 C972 1.388 . S
C974 C975 1.366 . S
C975 C974 1.366 . S
C975 C976 1.414 . S
C975 C978 1.499 . S
C976 H956 0.950 . S
C976 C975 1.414 . S
C976 C977 1.374 . S
C977 H957 0.950 . S
C977 C973 1.385 . S
C977 C976 1.374 . S
C978 C975 1.499 . S
C978 C979 1.373 . S
C978 C980 1.389 . S
C979 H958 0.950 . S
C979 C978 1.373 . S
C979 C995 1.377 . S
C980 C978 1.389 . S
C980 C981 1.524 . S
C980 C994 1.377 . S
C981 C980 1.524 . S
C981 C982 1.397 . S
C981 C986 1.363 . S
C982 H959 0.950 . S
C982 C981 1.397 . S
C982 C983 1.334 . S
C983 H960 0.950 . S
C983 C982 1.334 . S
C983 C984 1.287 . S
C984 C983 1.287 . S
C984 C985 1.524 . S
C984 H1003 0.913 . S
C985 H961 0.950 . S
C985 C984 1.524 . S
C985 C986 1.415 . S
C986 H962 0.950 . S
C986 C981 1.363 . S
C986 C985 1.415 . S
C987 H963 0.951 . S
C987 C988 1.366 . S
C987 C989 1.388 . S
C988 C987 1.366 . S
C988 C992 1.385 . S
C989 H964 0.951 . S
C989 C987 1.388 . S
C989 C990 1.366 . S
C990 C989 1.366 . S
C990 C991 1.414 . S
C990 C993 1.499 . S
C991 H965 0.950 . S
C991 C990 1.414 . S
C991 C992 1.374 . S
C992 H966 0.950 . S
C992 C988 1.385 . S
C992 C991 1.374 . S
C993 C990 1.499 . S
C993 C994 1.373 . S
C993 C995 1.389 . S
C994 H967 0.950 . S
C994 C980 1.377 . S
C994 C993 1.373 . S
C995 C979 1.377 . S
C995 C993 1.389 . S
C995 C996 1.524 . S
C996 C995 1.524 . S
C996 C997 1.397 . S
C996 C1001 1.363 . S
C997 H968 0.950 . S
C997 C996 1.397 . S
C997 C998 1.334 . S
C998 H969 0.950 . S
C998 C997 1.334 . S
C998 C999 1.287 . S
C999 C998 1.287 . S
C999 C1000 1.524 . S
C999 H1002 0.999 . S
C1000 H970 0.950 . S
C1000 C999 1.524 . S
C1000 C1001 1.415 . S
C1001 H971 0.950 . S
C1001 C996 1.363 . S
C1001 C1000 1.415 . S
H1002 C999 0.999 . S
H1003 C984 0.913 . S
H1004 C1022 0.951 . S
H1005 C1024 0.951 . S
H1006 C1026 0.950 . S
H1007 C1027 0.950 . S
H1008 C1029 0.950 . S
H1009 C1032 0.950 . S
H1010 C1033 0.950 . S
H1011 C1035 0.950 . S
H1012 C1036 0.950 . S
H1013 C1037 0.951 . S
H1014 C1039 0.951 . S
H1015 C1041 0.950 . S
H1016 C1042 0.950 . S
H1017 C1044 0.950 . S
H1018 C1047 0.950 . S
H1019 C1048 0.950 . S
H1020 C1050 0.950 . S
H1021 C1051 0.950 . S
C1022 H1004 0.951 . S
C1022 C1023 1.366 . S
C1022 C1024 1.388 . S
C1023 C1022 1.366 . S
C1023 C1027 1.385 . S
C1024 H1005 0.951 . S
C1024 C1022 1.388 . S
C1024 C1025 1.366 . S
C1025 C1024 1.366 . S
C1025 C1026 1.414 . S
C1025 C1028 1.499 . S
C1026 H1006 0.950 . S
C1026 C1025 1.414 . S
C1026 C1027 1.374 . S
C1027 H1007 0.950 . S
C1027 C1023 1.385 . S
C1027 C1026 1.374 . S
C1028 C1025 1.499 . S
C1028 C1029 1.373 . S
C1028 C1030 1.389 . S
C1029 H1008 0.950 . S
C1029 C1028 1.373 . S
C1029 C1045 1.377 . S
C1030 C1028 1.389 . S
C1030 C1031 1.524 . S
C1030 C1044 1.377 . S
C1031 C1030 1.524 . S
C1031 C1032 1.397 . S
C1031 C1036 1.363 . S
C1032 H1009 0.950 . S
C1032 C1031 1.397 . S
C1032 C1033 1.334 . S
C1033 H1010 0.950 . S
C1033 C1032 1.334 . S
C1033 C1034 1.287 . S
C1034 C1033 1.287 . S
C1034 C1035 1.524 . S
C1034 H1053 0.913 . S
C1035 H1011 0.950 . S
C1035 C1034 1.524 . S
C1035 C1036 1.415 . S
C1036 H1012 0.950 . S
C1036 C1031 1.363 . S
C1036 C1035 1.415 . S
C1037 H1013 0.951 . S
C1037 C1038 1.366 . S
C1037 C1039 1.388 . S
C1038 C1037 1.366 . S
C1038 C1042 1.385 . S
C1039 H1014 0.951 . S
C1039 C1037 1.388 . S
C1039 C1040 1.366 . S
C1040 C1039 1.366 . S
C1040 C1041 1.414 . S
C1040 C1043 1.499 . S
C1041 H1015 0.950 . S
C1041 C1040 1.414 . S
C1041 C1042 1.374 . S
C1042 H1016 0.950 . S
C1042 C1038 1.385 . S
C1042 C1041 1.374 . S
C1043 C1040 1.499 . S
C1043 C1044 1.373 . S
C1043 C1045 1.389 . S
C1044 H1017 0.950 . S
C1044 C1030 1.377 . S
C1044 C1043 1.373 . S
C1045 C1029 1.377 . S
C1045 C1043 1.389 . S
C1045 C1046 1.524 . S
C1046 C1045 1.524 . S
C1046 C1047 1.397 . S
C1046 C1051 1.363 . S
C1047 H1018 0.950 . S
C1047 C1046 1.397 . S
C1047 C1048 1.334 . S
C1048 H1019 0.950 . S
C1048 C1047 1.334 . S
C1048 C1049 1.287 . S
C1049 C1048 1.287 . S
C1049 C1050 1.524 . S
C1049 H1052 0.999 . S
C1050 H1020 0.950 . S
C1050 C1049 1.524 . S
C1050 C1051 1.415 . S
C1051 H1021 0.950 . S
C1051 C1046 1.363 . S
C1051 C1050 1.415 . S
H1052 C1049 0.999 . S
H1053 C1034 0.913 . S
H1054 C1072 0.951 . S
H1055 C1074 0.951 . S
H1056 C1076 0.950 . S
H1057 C1077 0.950 . S
H1058 C1079 0.950 . S
H1059 C1082 0.950 . S
H1060 C1083 0.950 . S
H1061 C1085 0.950 . S
H1062 C1086 0.950 . S
H1063 C1087 0.951 . S
H1064 C1089 0.951 . S
H1065 C1091 0.950 . S
H1066 C1092 0.950 . S
H1067 C1094 0.950 . S
H1068 C1097 0.950 . S
H1069 C1098 0.950 . S
H1070 C1100 0.950 . S
H1071 C1101 0.950 . S
C1072 H1054 0.951 . S
C1072 C1073 1.366 . S
C1072 C1074 1.388 . S
C1073 C1072 1.366 . S
C1073 C1077 1.385 . S
C1074 H1055 0.951 . S
C1074 C1072 1.388 . S
C1074 C1075 1.366 . S
C1075 C1074 1.366 . S
C1075 C1076 1.414 . S
C1075 C1078 1.499 . S
C1076 H1056 0.950 . S
C1076 C1075 1.414 . S
C1076 C1077 1.374 . S
C1077 H1057 0.950 . S
C1077 C1073 1.385 . S
C1077 C1076 1.374 . S
C1078 C1075 1.499 . S
C1078 C1079 1.373 . S
C1078 C1080 1.389 . S
C1079 H1058 0.950 . S
C1079 C1078 1.373 . S
C1079 C1095 1.377 . S
C1080 C1078 1.389 . S
C1080 C1081 1.524 . S
C1080 C1094 1.377 . S
C1081 C1080 1.524 . S
C1081 C1082 1.397 . S
C1081 C1086 1.363 . S
C1082 H1059 0.950 . S
C1082 C1081 1.397 . S
C1082 C1083 1.334 . S
C1083 H1060 0.950 . S
C1083 C1082 1.334 . S
C1083 C1084 1.287 . S
C1084 C1083 1.287 . S
C1084 C1085 1.524 . S
C1084 H1103 0.913 . S
C1085 H1061 0.950 . S
C1085 C1084 1.524 . S
C1085 C1086 1.415 . S
C1086 H1062 0.950 . S
C1086 C1081 1.363 . S
C1086 C1085 1.415 . S
C1087 H1063 0.951 . S
C1087 C1088 1.366 . S
C1087 C1089 1.388 . S
C1088 C1087 1.366 . S
C1088 C1092 1.385 . S
C1089 H1064 0.951 . S
C1089 C1087 1.388 . S
C1089 C1090 1.366 . S
C1090 C1089 1.366 . S
C1090 C1091 1.414 . S
C1090 C1093 1.499 . S
C1091 H1065 0.950 . S
C1091 C1090 1.414 . S
C1091 C1092 1.374 . S
C1092 H1066 0.950 . S
C1092 C1088 1.385 . S
C1092 C1091 1.374 . S
C1093 C1090 1.499 . S
C1093 C1094 1.373 . S
C1093 C1095 1.389 . S
C1094 H1067 0.950 . S
C1094 C1080 1.377 . S
C1094 C1093 1.373 . S
C1095 C1079 1.377 . S
C1095 C1093 1.389 . S
C1095 C1096 1.524 . S
C1096 C1095 1.524 . S
C1096 C1097 1.397 . S
C1096 C1101 1.363 . S
C1097 H1068 0.950 . S
C1097 C1096 1.397 . S
C1097 C1098 1.334 . S
C1098 H1069 0.950 . S
C1098 C1097 1.334 . S
C1098 C1099 1.287 . S
C1099 C1098 1.287 . S
C1099 C1100 1.524 . S
C1099 H1102 0.999 . S
C1100 H1070 0.950 . S
C1100 C1099 1.524 . S
C1100 C1101 1.415 . S
C1101 H1071 0.950 . S
C1101 C1096 1.363 . S
C1101 C1100 1.415 . S
H1102 C1099 0.999 . S
H1103 C1084 0.913 . S
H1104 C1122 0.951 . S
H1105 C1124 0.951 . S
H1106 C1126 0.950 . S
H1107 C1127 0.950 . S
H1108 C1129 0.950 . S
H1109 C1132 0.950 . S
H1110 C1133 0.950 . S
H1111 C1135 0.950 . S
H1112 C1136 0.950 . S
H1113 C1137 0.951 . S
H1114 C1139 0.951 . S
H1115 C1141 0.950 1_556 S
H1116 C1142 0.950 . S
H1117 C1144 0.950 . S
H1118 C1147 0.950 . S
H1119 C1148 0.950 . S
H1120 C1150 0.950 . S
H1121 C1151 0.950 . S
C1122 H1104 0.951 . S
C1122 C1123 1.366 . S
C1122 C1124 1.388 . S
C1123 C1122 1.366 . S
C1123 C1127 1.385 . S
C1124 H1105 0.951 . S
C1124 C1122 1.388 . S
C1124 C1125 1.366 . S
C1125 C1124 1.366 . S
C1125 C1126 1.414 . S
C1125 C1128 1.499 . S
C1126 H1106 0.950 . S
C1126 C1125 1.414 . S
C1126 C1127 1.374 . S
C1127 H1107 0.950 . S
C1127 C1123 1.385 . S
C1127 C1126 1.374 . S
C1128 C1125 1.499 . S
C1128 C1129 1.373 . S
C1128 C1130 1.389 . S
C1129 H1108 0.950 . S
C1129 C1128 1.373 . S
C1129 C1145 1.342 1_556 S
C1130 C1128 1.389 . S
C1130 C1131 1.524 . S
C1130 C1144 1.377 . S
C1131 C1130 1.524 . S
C1131 C1132 1.397 . S
C1131 C1136 1.363 . S
C1132 H1109 0.950 . S
C1132 C1131 1.397 . S
C1132 C1133 1.334 . S
C1133 H1110 0.950 . S
C1133 C1132 1.334 . S
C1133 C1134 1.287 . S
C1134 C1133 1.287 . S
C1134 C1135 1.524 . S
C1134 H1153 0.913 . S
C1135 H1111 0.950 . S
C1135 C1134 1.524 . S
C1135 C1136 1.415 . S
C1136 H1112 0.950 . S
C1136 C1131 1.363 . S
C1136 C1135 1.415 . S
C1137 H1113 0.951 . S
C1137 C1138 1.366 . S
C1137 C1139 1.388 . S
C1138 C1137 1.366 . S
C1138 C1142 1.385 . S
C1139 H1114 0.951 . S
C1139 C1137 1.388 . S
C1139 C1140 1.366 . S
C1140 C1139 1.366 . S
C1140 C1141 1.414 . S
C1140 C1143 1.499 1_554 S
C1141 H1115 0.950 1_554 S
C1141 C1140 1.414 . S
C1141 C1142 1.374 . S
C1142 H1116 0.950 . S
C1142 C1138 1.385 . S
C1142 C1141 1.374 . S
C1143 C1140 1.499 1_556 S
C1143 C1144 1.373 . S
C1143 C1145 1.382 1_556 S
C1144 H1117 0.950 . S
C1144 C1130 1.377 . S
C1144 C1143 1.373 . S
C1145 C1129 1.342 1_554 S
C1145 C1143 1.382 1_554 S
C1145 C1146 1.567 . S
C1146 C1145 1.567 . S
C1146 C1147 1.397 . S
C1146 C1151 1.363 . S
C1147 H1118 0.950 . S
C1147 C1146 1.397 . S
C1147 C1148 1.334 . S
C1148 H1119 0.950 . S
C1148 C1147 1.334 . S
C1148 C1149 1.287 . S
C1149 C1148 1.287 . S
C1149 C1150 1.524 . S
C1149 H1152 0.999 . S
C1150 H1120 0.950 . S
C1150 C1149 1.524 . S
C1150 C1151 1.415 . S
C1151 H1121 0.950 . S
C1151 C1146 1.363 . S
C1151 C1150 1.415 . S
H1152 C1149 0.999 . S
H1153 C1134 0.913 . S
H1154 C1172 0.951 . S
H1155 C1174 0.951 . S
H1156 C1176 0.950 . S
H1157 C1177 0.950 . S
H1158 C1179 0.950 . S
H1159 C1182 0.950 . S
H1160 C1183 0.950 . S
H1161 C1185 0.950 . S
H1162 C1186 0.950 . S
H1163 C1187 0.951 . S
H1164 C1189 0.951 . S
H1165 C1191 0.950 . S
H1166 C1192 0.950 . S
H1167 C1194 0.950 . S
H1168 C1197 0.950 . S
H1169 C1198 0.950 . S
H1170 C1200 0.950 . S
H1171 C1201 0.950 . S
C1172 H1154 0.951 . S
C1172 C1173 1.366 . S
C1172 C1174 1.388 . S
C1173 C1172 1.366 . S
C1173 C1177 1.385 . S
C1174 H1155 0.951 . S
C1174 C1172 1.388 . S
C1174 C1175 1.366 . S
C1175 C1174 1.366 . S
C1175 C1176 1.414 . S
C1175 C1178 1.499 1_556 S
C1176 H1156 0.950 . S
C1176 C1175 1.414 . S
C1176 C1177 1.374 . S
C1177 H1157 0.950 . S
C1177 C1173 1.385 . S
C1177 C1176 1.374 . S
C1178 C1175 1.499 1_554 S
C1178 C1179 1.373 . S
C1178 C1180 1.389 1_554 S
C1179 H1158 0.950 . S
C1179 C1178 1.373 . S
C1179 C1195 1.377 . S
C1180 C1178 1.389 1_556 S
C1180 C1181 1.524 . S
C1180 C1194 1.377 1_556 S
C1181 C1180 1.524 . S
C1181 C1182 1.397 . S
C1181 C1186 1.363 . S
C1182 H1159 0.950 . S
C1182 C1181 1.397 . S
C1182 C1183 1.334 . S
C1183 H1160 0.950 . S
C1183 C1182 1.334 . S
C1183 C1184 1.287 . S
C1184 C1183 1.287 . S
C1184 C1185 1.524 . S
C1184 H1203 0.913 . S
C1185 H1161 0.950 . S
C1185 C1184 1.524 . S
C1185 C1186 1.415 . S
C1186 H1162 0.950 . S
C1186 C1181 1.363 . S
C1186 C1185 1.415 . S
C1187 H1163 0.951 . S
C1187 C1188 1.366 . S
C1187 C1189 1.388 . S
C1188 C1187 1.366 . S
C1188 C1192 1.385 . S
C1189 H1164 0.951 . S
C1189 C1187 1.388 . S
C1189 C1190 1.366 . S
C1190 C1189 1.366 . S
C1190 C1191 1.414 . S
C1190 C1193 1.499 . S
C1191 H1165 0.950 . S
C1191 C1190 1.414 . S
C1191 C1192 1.374 . S
C1192 H1166 0.950 . S
C1192 C1188 1.385 . S
C1192 C1191 1.374 . S
C1193 C1190 1.499 . S
C1193 C1194 1.373 . S
C1193 C1195 1.389 . S
C1194 H1167 0.950 . S
C1194 C1180 1.377 1_554 S
C1194 C1193 1.373 . S
C1195 C1179 1.377 . S
C1195 C1193 1.389 . S
C1195 C1196 1.524 . S
C1196 C1195 1.524 . S
C1196 C1197 1.397 . S
C1196 C1201 1.363 . S
C1197 H1168 0.950 . S
C1197 C1196 1.397 . S
C1197 C1198 1.334 . S
C1198 H1169 0.950 . S
C1198 C1197 1.334 . S
C1198 C1199 1.287 . S
C1199 C1198 1.287 . S
C1199 C1200 1.524 . S
C1199 H1202 0.999 . S
C1200 H1170 0.950 . S
C1200 C1199 1.524 . S
C1200 C1201 1.415 . S
C1201 H1171 0.950 . S
C1201 C1196 1.363 . S
C1201 C1200 1.415 . S
H1202 C1199 0.999 . S
H1203 C1184 0.913 . S
H1204 C1222 0.951 . S
H1205 C1224 0.951 . S
H1206 C1226 0.950 . S
H1207 C1227 0.950 . S
H1208 C1229 0.950 1_554 S
H1209 C1232 0.950 . S
H1210 C1233 0.950 . S
H1211 C1235 0.950 . S
H1212 C1236 0.950 . S
H1213 C1237 0.951 . S
H1214 C1239 0.951 . S
H1215 C1241 0.950 . S
H1216 C1242 0.950 . S
H1217 C1244 0.950 . S
H1218 C1247 0.950 . S
H1219 C1248 0.950 . S
H1220 C1250 0.949 1_554 S
H1221 C1251 0.950 . S
C1222 H1204 0.951 . S
C1222 C1223 1.366 . S
C1222 C1224 1.388 . S
C1223 C1222 1.366 . S
C1223 C1227 1.385 . S
C1224 H1205 0.951 . S
C1224 C1222 1.388 . S
C1224 C1225 1.366 . S
C1225 C1224 1.366 . S
C1225 C1226 1.414 . S
C1225 C1228 1.499 1_554 S
C1226 H1206 0.950 . S
C1226 C1225 1.414 . S
C1226 C1227 1.374 . S
C1227 H1207 0.950 . S
C1227 C1223 1.385 . S
C1227 C1226 1.374 . S
C1228 C1225 1.499 1_556 S
C1228 C1229 1.373 . S
C1228 C1230 1.389 . S
C1229 H1208 0.950 1_556 S
C1229 C1228 1.373 . S
C1229 C1245 1.377 . S
C1230 C1228 1.389 . S
C1230 C1231 1.524 . S
C1230 C1244 1.377 . S
C1231 C1230 1.524 . S
C1231 C1232 1.397 . S
C1231 C1236 1.363 . S
C1232 H1209 0.950 . S
C1232 C1231 1.397 . S
C1232 C1233 1.334 . S
C1233 H1210 0.950 . S
C1233 C1232 1.334 . S
C1233 C1234 1.287 . S
C1234 C1233 1.287 . S
C1234 C1235 1.524 . S
C1234 H1253 0.913 . S
C1235 H1211 0.950 . S
C1235 C1234 1.524 . S
C1235 C1236 1.415 . S
C1236 H1212 0.950 . S
C1236 C1231 1.363 . S
C1236 C1235 1.415 . S
C1237 H1213 0.951 . S
C1237 C1238 1.366 . S
C1237 C1239 1.388 . S
C1238 C1237 1.366 . S
C1238 C1242 1.385 . S
C1239 H1214 0.951 . S
C1239 C1237 1.388 . S
C1239 C1240 1.366 . S
C1240 C1239 1.366 . S
C1240 C1241 1.414 . S
C1240 C1243 1.499 . S
C1241 H1215 0.950 . S
C1241 C1240 1.414 . S
C1241 C1242 1.374 . S
C1242 H1216 0.950 . S
C1242 C1238 1.385 . S
C1242 C1241 1.374 . S
C1243 C1240 1.499 . S
C1243 C1244 1.373 . S
C1243 C1245 1.389 . S
C1244 H1217 0.950 . S
C1244 C1230 1.377 . S
C1244 C1243 1.373 . S
C1245 C1229 1.377 . S
C1245 C1243 1.389 . S
C1245 C1246 1.524 . S
C1246 C1245 1.524 . S
C1246 C1247 1.397 . S
C1246 C1251 1.363 . S
C1247 H1218 0.950 . S
C1247 C1246 1.397 . S
C1247 C1248 1.334 . S
C1248 H1219 0.950 . S
C1248 C1247 1.334 . S
C1248 C1249 1.287 . S
C1249 C1248 1.287 . S
C1249 C1250 1.524 . S
C1249 H1252 0.999 1_556 S
C1250 H1220 0.949 1_556 S
C1250 C1249 1.524 . S
C1250 C1251 1.415 . S
C1251 H1221 0.950 . S
C1251 C1246 1.363 . S
C1251 C1250 1.415 . S
H1252 C1249 0.999 1_554 S
H1253 C1234 0.913 . S
H1254 C1272 0.951 . S
H1255 C1274 0.951 1_554 S
H1256 C1276 0.950 . S
H1257 C1277 0.950 . S
H1258 C1279 0.950 . S
H1259 C1282 0.950 . S
H1260 C1283 0.950 . S
H1261 C1285 0.950 . S
H1262 C1286 0.950 . S
H1263 C1287 0.951 . S
H1264 C1289 0.951 . S
H1265 C1291 0.950 . S
H1266 C1292 0.950 . S
H1267 C1294 0.950 . S
H1268 C1297 0.950 . S
H1269 C1298 0.950 . S
H1270 C1300 0.950 . S
H1271 C1301 0.950 . S
C1272 H1254 0.951 . S
C1272 C1273 1.366 . S
C1272 C1274 1.388 . S
C1273 C1272 1.366 . S
C1273 C1277 1.385 . S
C1274 H1255 0.951 1_556 S
C1274 C1272 1.388 . S
C1274 C1275 1.366 . S
C1275 C1274 1.366 . S
C1275 C1276 1.414 . S
C1275 C1278 1.499 1_556 S
C1276 H1256 0.950 . S
C1276 C1275 1.414 . S
C1276 C1277 1.374 . S
C1277 H1257 0.950 . S
C1277 C1273 1.385 . S
C1277 C1276 1.374 . S
C1278 C1275 1.499 1_554 S
C1278 C1279 1.373 1_554 S
C1278 C1280 1.389 . S
C1279 H1258 0.950 . S
C1279 C1278 1.373 1_556 S
C1279 C1295 1.377 1_556 S
C1280 C1278 1.389 . S
C1280 C1281 1.524 . S
C1280 C1294 1.377 . S
C1281 C1280 1.524 . S
C1281 C1282 1.397 . S
C1281 C1286 1.363 . S
C1282 H1259 0.950 . S
C1282 C1281 1.397 . S
C1282 C1283 1.334 . S
C1283 H1260 0.950 . S
C1283 C1282 1.334 . S
C1283 C1284 1.287 . S
C1284 C1283 1.287 . S
C1284 C1285 1.524 . S
C1284 H1303 0.913 . S
C1285 H1261 0.950 . S
C1285 C1284 1.524 . S
C1285 C1286 1.415 . S
C1286 H1262 0.950 . S
C1286 C1281 1.363 . S
C1286 C1285 1.415 . S
C1287 H1263 0.951 . S
C1287 C1288 1.366 . S
C1287 C1289 1.388 . S
C1288 C1287 1.366 . S
C1288 C1292 1.385 . S
C1289 H1264 0.951 . S
C1289 C1287 1.388 . S
C1289 C1290 1.366 . S
C1290 C1289 1.366 . S
C1290 C1291 1.414 . S
C1290 C1293 1.499 . S
C1291 H1265 0.950 . S
C1291 C1290 1.414 . S
C1291 C1292 1.374 . S
C1292 H1266 0.950 . S
C1292 C1288 1.385 . S
C1292 C1291 1.374 . S
C1293 C1290 1.499 . S
C1293 C1294 1.373 . S
C1293 C1295 1.389 . S
C1294 H1267 0.950 . S
C1294 C1280 1.377 . S
C1294 C1293 1.373 . S
C1295 C1279 1.377 1_554 S
C1295 C1293 1.389 . S
C1295 C1296 1.524 . S
C1296 C1295 1.524 . S
C1296 C1297 1.397 . S
C1296 C1301 1.363 1_554 S
C1297 H1268 0.950 . S
C1297 C1296 1.397 . S
C1297 C1298 1.334 . S
C1298 H1269 0.950 . S
C1298 C1297 1.334 . S
C1298 C1299 1.316 . S
C1299 C1298 1.316 . S
C1299 C1300 1.501 1_554 S
C1299 H1302 0.991 1_554 S
C1300 H1270 0.950 . S
C1300 C1299 1.501 1_556 S
C1300 C1301 1.415 . S
C1301 H1271 0.950 . S
C1301 C1296 1.363 1_556 S
C1301 C1300 1.415 . S
H1302 C1299 0.991 1_556 S
H1303 C1284 0.913 . S
H1304 C1322 0.951 . S
H1305 C1324 0.951 . S
H1306 C1326 0.950 . S
H1307 C1327 0.950 . S
H1308 C1329 0.950 . S
H1309 C1332 0.950 . S
H1310 C1333 0.950 . S
H1311 C1335 0.950 . S
H1312 C1336 0.950 . S
H1313 C1337 0.951 . S
H1314 C1339 0.951 . S
H1315 C1341 0.950 . S
H1316 C1342 0.950 . S
H1317 C1344 0.950 . S
H1318 C1347 0.950 . S
H1319 C1348 0.950 . S
H1320 C1350 0.950 . S
H1321 C1351 0.950 . S
C1322 H1304 0.951 . S
C1322 C1323 1.366 . S
C1322 C1324 1.388 . S
C1323 C1322 1.366 . S
C1323 C1327 1.385 . S
C1324 H1305 0.951 . S
C1324 C1322 1.388 . S
C1324 C1325 1.366 . S
C1325 C1324 1.366 . S
C1325 C1326 1.414 . S
C1325 C1328 1.499 . S
C1326 H1306 0.950 . S
C1326 C1325 1.414 . S
C1326 C1327 1.374 . S
C1327 H1307 0.950 . S
C1327 C1323 1.385 . S
C1327 C1326 1.374 . S
C1328 C1325 1.499 . S
C1328 C1329 1.373 . S
C1328 C1330 1.389 . S
C1329 H1308 0.950 . S
C1329 C1328 1.373 . S
C1329 C1345 1.377 . S
C1330 C1328 1.389 . S
C1330 C1331 1.524 . S
C1330 C1344 1.377 . S
C1331 C1330 1.524 . S
C1331 C1332 1.397 . S
C1331 C1336 1.363 . S
C1332 H1309 0.950 . S
C1332 C1331 1.397 . S
C1332 C1333 1.334 . S
C1333 H1310 0.950 . S
C1333 C1332 1.334 . S
C1333 C1334 1.287 . S
C1334 C1333 1.287 . S
C1334 C1335 1.524 . S
C1334 H1353 0.913 . S
C1335 H1311 0.950 . S
C1335 C1334 1.524 . S
C1335 C1336 1.415 . S
C1336 H1312 0.950 . S
C1336 C1331 1.363 . S
C1336 C1335 1.415 . S
C1337 H1313 0.951 . S
C1337 C1338 1.366 . S
C1337 C1339 1.388 . S
C1338 C1337 1.366 . S
C1338 C1342 1.385 . S
C1339 H1314 0.951 . S
C1339 C1337 1.388 . S
C1339 C1340 1.366 . S
C1340 C1339 1.366 . S
C1340 C1341 1.414 . S
C1340 C1343 1.499 . S
C1341 H1315 0.950 . S
C1341 C1340 1.414 . S
C1341 C1342 1.374 . S
C1342 H1316 0.950 . S
C1342 C1338 1.385 . S
C1342 C1341 1.374 . S
C1343 C1340 1.499 . S
C1343 C1344 1.373 . S
C1343 C1345 1.389 . S
C1344 H1317 0.950 . S
C1344 C1330 1.377 . S
C1344 C1343 1.373 . S
C1345 C1329 1.377 . S
C1345 C1343 1.389 . S
C1345 C1346 1.524 . S
C1346 C1345 1.524 . S
C1346 C1347 1.397 . S
C1346 C1351 1.363 . S
C1347 H1318 0.950 . S
C1347 C1346 1.397 . S
C1347 C1348 1.334 . S
C1348 H1319 0.950 . S
C1348 C1347 1.334 . S
C1348 C1349 1.287 . S
C1349 C1348 1.287 . S
C1349 C1350 1.524 . S
C1349 H1352 0.999 . S
C1350 H1320 0.950 . S
C1350 C1349 1.524 . S
C1350 C1351 1.415 . S
C1351 H1321 0.950 . S
C1351 C1346 1.363 . S
C1351 C1350 1.415 . S
H1352 C1349 0.999 . S
H1353 C1334 0.913 . S
H1354 C1372 0.951 . S
H1355 C1374 0.951 . S
H1356 C1376 0.950 . S
H1357 C1377 0.950 . S
H1358 C1379 0.950 . S
H1359 C1382 0.950 . S
H1360 C1383 0.950 . S
H1361 C1385 0.950 . S
H1362 C1386 0.950 . S
H1363 C1387 0.951 . S
H1364 C1389 0.951 . S
H1365 C1391 0.950 . S
H1366 C1392 0.950 . S
H1367 C1394 0.950 . S
H1368 C1397 0.950 . S
H1369 C1398 0.950 . S
H1370 C1400 0.950 . S
H1371 C1401 0.950 . S
C1372 H1354 0.951 . S
C1372 C1373 1.366 . S
C1372 C1374 1.388 . S
C1373 C1372 1.366 . S
C1373 C1377 1.385 . S
C1374 H1355 0.951 . S
C1374 C1372 1.388 . S
C1374 C1375 1.366 . S
C1375 C1374 1.366 . S
C1375 C1376 1.414 . S
C1375 C1378 1.499 . S
C1376 H1356 0.950 . S
C1376 C1375 1.414 . S
C1376 C1377 1.374 . S
C1377 H1357 0.950 . S
C1377 C1373 1.385 . S
C1377 C1376 1.374 . S
C1378 C1375 1.499 . S
C1378 C1379 1.373 . S
C1378 C1380 1.389 . S
C1379 H1358 0.950 . S
C1379 C1378 1.373 . S
C1379 C1395 1.377 . S
C1380 C1378 1.389 . S
C1380 C1381 1.524 . S
C1380 C1394 1.377 . S
C1381 C1380 1.524 . S
C1381 C1382 1.397 . S
C1381 C1386 1.363 . S
C1382 H1359 0.950 . S
C1382 C1381 1.397 . S
C1382 C1383 1.334 . S
C1383 H1360 0.950 . S
C1383 C1382 1.334 . S
C1383 C1384 1.287 . S
C1384 C1383 1.287 . S
C1384 C1385 1.524 . S
C1384 H1403 0.913 . S
C1385 H1361 0.950 . S
C1385 C1384 1.524 . S
C1385 C1386 1.415 . S
C1386 H1362 0.950 . S
C1386 C1381 1.363 . S
C1386 C1385 1.415 . S
C1387 H1363 0.951 . S
C1387 C1388 1.366 . S
C1387 C1389 1.388 . S
C1388 C1387 1.366 . S
C1388 C1392 1.385 . S
C1389 H1364 0.951 . S
C1389 C1387 1.388 . S
C1389 C1390 1.366 . S
C1390 C1389 1.366 . S
C1390 C1391 1.414 . S
C1390 C1393 1.499 . S
C1391 H1365 0.950 . S
C1391 C1390 1.414 . S
C1391 C1392 1.374 . S
C1392 H1366 0.950 . S
C1392 C1388 1.385 . S
C1392 C1391 1.374 . S
C1393 C1390 1.499 . S
C1393 C1394 1.373 . S
C1393 C1395 1.389 . S
C1394 H1367 0.950 . S
C1394 C1380 1.377 . S
C1394 C1393 1.373 . S
C1395 C1379 1.377 . S
C1395 C1393 1.389 . S
C1395 C1396 1.524 . S
C1396 C1395 1.524 . S
C1396 C1397 1.397 . S
C1396 C1401 1.363 . S
C1397 H1368 0.950 . S
C1397 C1396 1.397 . S
C1397 C1398 1.334 . S
C1398 H1369 0.950 . S
C1398 C1397 1.334 . S
C1398 C1399 1.287 . S
C1399 C1398 1.287 . S
C1399 C1400 1.524 . S
C1399 H1402 0.999 . S
C1400 H1370 0.950 . S
C1400 C1399 1.524 . S
C1400 C1401 1.415 . S
C1401 H1371 0.950 . S
C1401 C1396 1.363 . S
C1401 C1400 1.415 . S
H1402 C1399 0.999 . S
H1403 C1384 0.913 . S
H1404 C1422 0.951 . S
H1405 C1424 0.951 . S
H1406 C1426 0.950 . S
H1407 C1427 0.950 . S
H1408 C1429 0.950 . S
H1409 C1432 0.950 . S
H1410 C1433 0.950 . S
H1411 C1435 0.950 . S
H1412 C1436 0.950 . S
H1413 C1437 0.951 . S
H1414 C1439 0.951 . S
H1415 C1441 0.950 . S
H1416 C1442 0.950 . S
H1417 C1444 0.950 . S
H1418 C1447 0.950 . S
H1419 C1448 0.950 . S
H1420 C1450 0.950 . S
H1421 C1451 0.950 . S
C1422 H1404 0.951 . S
C1422 C1423 1.366 . S
C1422 C1424 1.388 . S
C1423 C1422 1.366 . S
C1423 C1427 1.385 . S
C1424 H1405 0.951 . S
C1424 C1422 1.388 . S
C1424 C1425 1.366 . S
C1425 C1424 1.366 . S
C1425 C1426 1.414 . S
C1425 C1428 1.499 . S
C1426 H1406 0.950 . S
C1426 C1425 1.414 . S
C1426 C1427 1.374 . S
C1427 H1407 0.950 . S
C1427 C1423 1.385 . S
C1427 C1426 1.374 . S
C1428 C1425 1.499 . S
C1428 C1429 1.373 . S
C1428 C1430 1.389 . S
C1429 H1408 0.950 . S
C1429 C1428 1.373 . S
C1429 C1445 1.377 . S
C1430 C1428 1.389 . S
C1430 C1431 1.524 . S
C1430 C1444 1.377 . S
C1431 C1430 1.524 . S
C1431 C1432 1.397 . S
C1431 C1436 1.363 . S
C1432 H1409 0.950 . S
C1432 C1431 1.397 . S
C1432 C1433 1.334 . S
C1433 H1410 0.950 . S
C1433 C1432 1.334 . S
C1433 C1434 1.287 . S
C1434 C1433 1.287 . S
C1434 C1435 1.524 . S
C1434 H1453 0.913 . S
C1435 H1411 0.950 . S
C1435 C1434 1.524 . S
C1435 C1436 1.415 . S
C1436 H1412 0.950 . S
C1436 C1431 1.363 . S
C1436 C1435 1.415 . S
C1437 H1413 0.951 . S
C1437 C1438 1.366 . S
C1437 C1439 1.388 . S
C1438 C1437 1.366 . S
C1438 C1442 1.385 . S
C1439 H1414 0.951 . S
C1439 C1437 1.388 . S
C1439 C1440 1.366 . S
C1440 C1439 1.366 . S
C1440 C1441 1.414 . S
C1440 C1443 1.499 . S
C1441 H1415 0.950 . S
C1441 C1440 1.414 . S
C1441 C1442 1.374 . S
C1442 H1416 0.950 . S
C1442 C1438 1.385 . S
C1442 C1441 1.374 . S
C1443 C1440 1.499 . S
C1443 C1444 1.373 . S
C1443 C1445 1.389 . S
C1444 H1417 0.950 . S
C1444 C1430 1.377 . S
C1444 C1443 1.373 . S
C1445 C1429 1.377 . S
C1445 C1443 1.389 . S
C1445 C1446 1.524 . S
C1446 C1445 1.524 . S
C1446 C1447 1.397 . S
C1446 C1451 1.363 . S
C1447 H1418 0.950 . S
C1447 C1446 1.397 . S
C1447 C1448 1.334 . S
C1448 H1419 0.950 . S
C1448 C1447 1.334 . S
C1448 C1449 1.287 . S
C1449 C1448 1.287 . S
C1449 C1450 1.524 . S
C1449 H1452 0.999 . S
C1450 H1420 0.950 . S
C1450 C1449 1.524 . S
C1450 C1451 1.415 . S
C1451 H1421 0.950 . S
C1451 C1446 1.363 . S
C1451 C1450 1.415 . S
H1452 C1449 0.999 . S
H1453 C1434 0.913 . S
H1454 C1472 0.951 . S
H1455 C1474 0.951 . S
H1456 C1476 0.950 . S
H1457 C1477 0.950 . S
H1458 C1479 0.950 . S
H1459 C1482 0.950 . S
H1460 C1483 0.950 . S
H1461 C1485 0.950 . S
H1462 C1486 0.950 . S
H1463 C1487 0.951 . S
H1464 C1489 0.951 . S
H1465 C1491 0.950 . S
H1466 C1492 0.950 . S
H1467 C1494 0.950 . S
H1468 C1497 0.950 . S
H1469 C1498 0.950 . S
H1470 C1500 0.950 . S
H1471 C1501 0.950 . S
C1472 H1454 0.951 . S
C1472 C1473 1.366 . S
C1472 C1474 1.388 . S
C1473 C1472 1.366 . S
C1473 C1477 1.385 . S
C1474 H1455 0.951 . S
C1474 C1472 1.388 . S
C1474 C1475 1.366 . S
C1475 C1474 1.366 . S
C1475 C1476 1.414 . S
C1475 C1478 1.499 . S
C1476 H1456 0.950 . S
C1476 C1475 1.414 . S
C1476 C1477 1.374 . S
C1477 H1457 0.950 . S
C1477 C1473 1.385 . S
C1477 C1476 1.374 . S
C1478 C1475 1.499 . S
C1478 C1479 1.373 . S
C1478 C1480 1.389 . S
C1479 H1458 0.950 . S
C1479 C1478 1.373 . S
C1479 C1495 1.377 . S
C1480 C1478 1.389 . S
C1480 C1481 1.524 . S
C1480 C1494 1.377 . S
C1481 C1480 1.524 . S
C1481 C1482 1.397 . S
C1481 C1486 1.363 . S
C1482 H1459 0.950 . S
C1482 C1481 1.397 . S
C1482 C1483 1.334 . S
C1483 H1460 0.950 . S
C1483 C1482 1.334 . S
C1483 C1484 1.287 . S
C1484 C1483 1.287 . S
C1484 C1485 1.524 . S
C1484 H1503 0.913 . S
C1485 H1461 0.950 . S
C1485 C1484 1.524 . S
C1485 C1486 1.415 . S
C1486 H1462 0.950 . S
C1486 C1481 1.363 . S
C1486 C1485 1.415 . S
C1487 H1463 0.951 . S
C1487 C1488 1.366 . S
C1487 C1489 1.388 . S
C1488 C1487 1.366 . S
C1488 C1492 1.385 . S
C1489 H1464 0.951 . S
C1489 C1487 1.388 . S
C1489 C1490 1.366 . S
C1490 C1489 1.366 . S
C1490 C1491 1.414 . S
C1490 C1493 1.499 . S
C1491 H1465 0.950 . S
C1491 C1490 1.414 . S
C1491 C1492 1.374 . S
C1492 H1466 0.950 . S
C1492 C1488 1.385 . S
C1492 C1491 1.374 . S
C1493 C1490 1.499 . S
C1493 C1494 1.373 . S
C1493 C1495 1.389 . S
C1494 H1467 0.950 . S
C1494 C1480 1.377 . S
C1494 C1493 1.373 . S
C1495 C1479 1.377 . S
C1495 C1493 1.389 . S
C1495 C1496 1.524 . S
C1496 C1495 1.524 . S
C1496 C1497 1.397 . S
C1496 C1501 1.363 . S
C1497 H1468 0.950 . S
C1497 C1496 1.397 . S
C1497 C1498 1.334 . S
C1498 H1469 0.950 . S
C1498 C1497 1.334 . S
C1498 C1499 1.287 . S
C1499 C1498 1.287 . S
C1499 C1500 1.524 . S
C1499 H1502 0.999 . S
C1500 H1470 0.950 . S
C1500 C1499 1.524 . S
C1500 C1501 1.415 . S
C1501 H1471 0.950 . S
C1501 C1496 1.363 . S
C1501 C1500 1.415 . S
H1502 C1499 0.999 . S
H1503 C1484 0.913 . S
C723 C205 1.002 . S
C738 C29 1.002 . S
C773 C321 0.992 . S
C788 C117 0.992 . S
C823 C401 0.991 . S
C838 C557 0.991 . S
C873 C489 1.002 . S
C888 C673 1.002 . S
C923 C108 0.442 . S
C938 C57 0.450 . S
C973 C145 0.439 . S
C988 C225 0.443 . S
C1023 C313 0.443 . S
C1038 C233 0.449 . S
C1073 C293 0.437 . S
C1088 C49 0.445 . S
C1123 C636 0.442 . S
C1138 C372 0.436 . S
C1173 C460 0.450 . S
C1188 C409 0.442 . S
C1223 C585 0.438 . S
C1238 C469 0.444 . S
C1273 C645 0.452 . S
C1288 C548 0.444 . S
C1323 C20 2.096 . S
C1338 C497 2.096 . S
C1373 C577 2.097 . S
C1388 C137 2.097 . S
C1423 C196 2.096 . S
C1438 C665 2.096 . S
C1473 C284 2.097 . S
C1488 C381 2.097 . S
