# Generated by pormake.
# Topology ulh, (4)-cn, num edge types: 1
# Building blocks:
#     Node 0, Type 0, BuildingBlock: CEKHIL_clean_sbu_0, # of connection points: 4
#     Node 1, Type 0, BuildingBlock: CEKHIL_clean_sbu_0, # of connection points: 4
#     Node 2, Type 0, BuildingBlock: CEKHIL_clean_sbu_0, # of connection points: 4
#     Node 3, Type 0, BuildingBlock: CEKHIL_clean_sbu_0, # of connection points: 4
#     Node 4, Type 0, BuildingBlock: CEKHIL_clean_sbu_0, # of connection points: 4
#     Node 5, Type 0, BuildingBlock: CEKHIL_clean_sbu_0, # of connection points: 4
#     Node 6, Type 0, BuildingBlock: CEKHIL_clean_sbu_0, # of connection points: 4
#     Node 7, Type 0, BuildingBlock: CEKHIL_clean_sbu_0, # of connection points: 4
#     Node 8, Type 0, BuildingBlock: CEKHIL_clean_sbu_0, # of connection points: 4
#     Node 9, Type 0, BuildingBlock: CEKHIL_clean_sbu_0, # of connection points: 4
#     Node 10, Type 0, BuildingBlock: CEKHIL_clean_sbu_0, # of connection points: 4
#     Node 11, Type 0, BuildingBlock: CEKHIL_clean_sbu_0, # of connection points: 4
#     Node 12, Type 0, BuildingBlock: CEKHIL_clean_sbu_0, # of connection points: 4
#     Node 13, Type 0, BuildingBlock: CEKHIL_clean_sbu_0, # of connection points: 4
#     Node 14, Type 0, BuildingBlock: CEKHIL_clean_sbu_0, # of connection points: 4
#     Node 15, Type 0, BuildingBlock: CEKHIL_clean_sbu_0, # of connection points: 4
#     Node 16, Type 0, BuildingBlock: CEKHIL_clean_sbu_0, # of connection points: 4
#     Node 17, Type 0, BuildingBlock: CEKHIL_clean_sbu_0, # of connection points: 4
#     Node 18, Type 0, BuildingBlock: CEKHIL_clean_sbu_0, # of connection points: 4
#     Node 19, Type 0, BuildingBlock: CEKHIL_clean_sbu_0, # of connection points: 4
#     Node 20, Type 0, BuildingBlock: CEKHIL_clean_sbu_0, # of connection points: 4
#     Node 21, Type 0, BuildingBlock: CEKHIL_clean_sbu_0, # of connection points: 4
#     Node 22, Type 0, BuildingBlock: CEKHIL_clean_sbu_0, # of connection points: 4
#     Node 23, Type 0, BuildingBlock: CEKHIL_clean_sbu_0, # of connection points: 4
#     Node 24, Type 0, BuildingBlock: CEKHIL_clean_sbu_0, # of connection points: 4
#     Node 25, Type 0, BuildingBlock: CEKHIL_clean_sbu_0, # of connection points: 4
#     Node 26, Type 0, BuildingBlock: CEKHIL_clean_sbu_0, # of connection points: 4
#     Node 27, Type 0, BuildingBlock: CEKHIL_clean_sbu_0, # of connection points: 4
#     Node 28, Type 0, BuildingBlock: CEKHIL_clean_sbu_0, # of connection points: 4
#     Node 29, Type 0, BuildingBlock: CEKHIL_clean_sbu_0, # of connection points: 4
#     Node 30, Type 0, BuildingBlock: CEKHIL_clean_sbu_0, # of connection points: 4
#     Node 31, Type 0, BuildingBlock: CEKHIL_clean_sbu_0, # of connection points: 4
#     Node 32, Type 0, BuildingBlock: CEKHIL_clean_sbu_0, # of connection points: 4
#     Node 33, Type 0, BuildingBlock: CEKHIL_clean_sbu_0, # of connection points: 4
#     Node 34, Type 0, BuildingBlock: CEKHIL_clean_sbu_0, # of connection points: 4
#     Node 35, Type 0, BuildingBlock: CEKHIL_clean_sbu_0, # of connection points: 4
#     Node 36, Type 0, BuildingBlock: CEKHIL_clean_sbu_0, # of connection points: 4
#     Node 37, Type 0, BuildingBlock: CEKHIL_clean_sbu_0, # of connection points: 4
#     Node 38, Type 0, BuildingBlock: CEKHIL_clean_sbu_0, # of connection points: 4
#     Node 39, Type 0, BuildingBlock: CEKHIL_clean_sbu_0, # of connection points: 4
#     Node 40, Type 0, BuildingBlock: CEKHIL_clean_sbu_0, # of connection points: 4
#     Node 41, Type 0, BuildingBlock: CEKHIL_clean_sbu_0, # of connection points: 4
#     Node 42, Type 0, BuildingBlock: CEKHIL_clean_sbu_0, # of connection points: 4
#     Node 43, Type 0, BuildingBlock: CEKHIL_clean_sbu_0, # of connection points: 4
#     Node 44, Type 0, BuildingBlock: CEKHIL_clean_sbu_0, # of connection points: 4
#     Node 45, Type 0, BuildingBlock: CEKHIL_clean_sbu_0, # of connection points: 4
#     Node 46, Type 0, BuildingBlock: CEKHIL_clean_sbu_0, # of connection points: 4
#     Node 47, Type 0, BuildingBlock: CEKHIL_clean_sbu_0, # of connection points: 4
#     Node 48, Type 0, BuildingBlock: CEKHIL_clean_sbu_0, # of connection points: 4
#     Node 49, Type 0, BuildingBlock: CEKHIL_clean_sbu_0, # of connection points: 4
#     Node 50, Type 0, BuildingBlock: CEKHIL_clean_sbu_0, # of connection points: 4
#     Node 51, Type 0, BuildingBlock: CEKHIL_clean_sbu_0, # of connection points: 4
#     Node 52, Type 0, BuildingBlock: CEKHIL_clean_sbu_0, # of connection points: 4
#     Node 53, Type 0, BuildingBlock: CEKHIL_clean_sbu_0, # of connection points: 4
#     Node 54, Type 0, BuildingBlock: CEKHIL_clean_sbu_0, # of connection points: 4
#     Node 55, Type 0, BuildingBlock: CEKHIL_clean_sbu_0, # of connection points: 4
#     Node 56, Type 0, BuildingBlock: CEKHIL_clean_sbu_0, # of connection points: 4
#     Node 57, Type 0, BuildingBlock: CEKHIL_clean_sbu_0, # of connection points: 4
#     Node 58, Type 0, BuildingBlock: CEKHIL_clean_sbu_0, # of connection points: 4
#     Node 59, Type 0, BuildingBlock: CEKHIL_clean_sbu_0, # of connection points: 4
#     Node 60, Type 0, BuildingBlock: CEKHIL_clean_sbu_0, # of connection points: 4
#     Node 61, Type 0, BuildingBlock: CEKHIL_clean_sbu_0, # of connection points: 4
#     Node 62, Type 0, BuildingBlock: CEKHIL_clean_sbu_0, # of connection points: 4
#     Node 63, Type 0, BuildingBlock: CEKHIL_clean_sbu_0, # of connection points: 4
#     Node 64, Type 0, BuildingBlock: CEKHIL_clean_sbu_0, # of connection points: 4
#     Node 65, Type 0, BuildingBlock: CEKHIL_clean_sbu_0, # of connection points: 4
#     Node 66, Type 0, BuildingBlock: CEKHIL_clean_sbu_0, # of connection points: 4
#     Node 67, Type 0, BuildingBlock: CEKHIL_clean_sbu_0, # of connection points: 4
#     Node 68, Type 0, BuildingBlock: CEKHIL_clean_sbu_0, # of connection points: 4
#     Node 69, Type 0, BuildingBlock: CEKHIL_clean_sbu_0, # of connection points: 4
#     Node 70, Type 0, BuildingBlock: CEKHIL_clean_sbu_0, # of connection points: 4
#     Node 71, Type 0, BuildingBlock: CEKHIL_clean_sbu_0, # of connection points: 4
#     Node 72, Type 0, BuildingBlock: CEKHIL_clean_sbu_0, # of connection points: 4
#     Node 73, Type 0, BuildingBlock: CEKHIL_clean_sbu_0, # of connection points: 4
#     Node 74, Type 0, BuildingBlock: CEKHIL_clean_sbu_0, # of connection points: 4
#     Node 75, Type 0, BuildingBlock: CEKHIL_clean_sbu_0, # of connection points: 4
#     Node 76, Type 0, BuildingBlock: CEKHIL_clean_sbu_0, # of connection points: 4
#     Node 77, Type 0, BuildingBlock: CEKHIL_clean_sbu_0, # of connection points: 4
#     Node 78, Type 0, BuildingBlock: CEKHIL_clean_sbu_0, # of connection points: 4
#     Node 79, Type 0, BuildingBlock: CEKHIL_clean_sbu_0, # of connection points: 4
#     Node 80, Type 0, BuildingBlock: CEKHIL_clean_sbu_0, # of connection points: 4
#     Node 81, Type 0, BuildingBlock: CEKHIL_clean_sbu_0, # of connection points: 4
#     Node 82, Type 0, BuildingBlock: CEKHIL_clean_sbu_0, # of connection points: 4
#     Node 83, Type 0, BuildingBlock: CEKHIL_clean_sbu_0, # of connection points: 4
#     Node 84, Type 0, BuildingBlock: CEKHIL_clean_sbu_0, # of connection points: 4
#     Node 85, Type 0, BuildingBlock: CEKHIL_clean_sbu_0, # of connection points: 4
#     Node 86, Type 0, BuildingBlock: CEKHIL_clean_sbu_0, # of connection points: 4
#     Node 87, Type 0, BuildingBlock: CEKHIL_clean_sbu_0, # of connection points: 4
#     Node 88, Type 0, BuildingBlock: CEKHIL_clean_sbu_0, # of connection points: 4
#     Node 89, Type 0, BuildingBlock: CEKHIL_clean_sbu_0, # of connection points: 4
#     Node 90, Type 0, BuildingBlock: CEKHIL_clean_sbu_0, # of connection points: 4
#     Node 91, Type 0, BuildingBlock: CEKHIL_clean_sbu_0, # of connection points: 4
#     Node 92, Type 0, BuildingBlock: CEKHIL_clean_sbu_0, # of connection points: 4
#     Node 93, Type 0, BuildingBlock: CEKHIL_clean_sbu_0, # of connection points: 4
#     Node 94, Type 0, BuildingBlock: CEKHIL_clean_sbu_0, # of connection points: 4
#     Node 95, Type 0, BuildingBlock: CEKHIL_clean_sbu_0, # of connection points: 4
#     Edge 96, Type (0, 0), BuildingBlock: AJUNOK_clean_linker_0, # of connection points: 2
#     Edge 97, Type (0, 0), BuildingBlock: AJUNOK_clean_linker_0, # of connection points: 2
#     Edge 98, Type (0, 0), BuildingBlock: AJUNOK_clean_linker_0, # of connection points: 2
#     Edge 99, Type (0, 0), BuildingBlock: AJUNOK_clean_linker_0, # of connection points: 2
#     Edge 100, Type (0, 0), BuildingBlock: AJUNOK_clean_linker_0, # of connection points: 2
#     Edge 101, Type (0, 0), BuildingBlock: AJUNOK_clean_linker_0, # of connection points: 2
#     Edge 102, Type (0, 0), BuildingBlock: AJUNOK_clean_linker_0, # of connection points: 2
#     Edge 103, Type (0, 0), BuildingBlock: AJUNOK_clean_linker_0, # of connection points: 2
#     Edge 104, Type (0, 0), BuildingBlock: AJUNOK_clean_linker_0, # of connection points: 2
#     Edge 105, Type (0, 0), BuildingBlock: AJUNOK_clean_linker_0, # of connection points: 2
#     Edge 106, Type (0, 0), BuildingBlock: AJUNOK_clean_linker_0, # of connection points: 2
#     Edge 107, Type (0, 0), BuildingBlock: AJUNOK_clean_linker_0, # of connection points: 2
#     Edge 108, Type (0, 0), BuildingBlock: AJUNOK_clean_linker_0, # of connection points: 2
#     Edge 109, Type (0, 0), BuildingBlock: AJUNOK_clean_linker_0, # of connection points: 2
#     Edge 110, Type (0, 0), BuildingBlock: AJUNOK_clean_linker_0, # of connection points: 2
#     Edge 111, Type (0, 0), BuildingBlock: AJUNOK_clean_linker_0, # of connection points: 2
#     Edge 112, Type (0, 0), BuildingBlock: AJUNOK_clean_linker_0, # of connection points: 2
#     Edge 113, Type (0, 0), BuildingBlock: AJUNOK_clean_linker_0, # of connection points: 2
#     Edge 114, Type (0, 0), BuildingBlock: AJUNOK_clean_linker_0, # of connection points: 2
#     Edge 115, Type (0, 0), BuildingBlock: AJUNOK_clean_linker_0, # of connection points: 2
#     Edge 116, Type (0, 0), BuildingBlock: AJUNOK_clean_linker_0, # of connection points: 2
#     Edge 117, Type (0, 0), BuildingBlock: AJUNOK_clean_linker_0, # of connection points: 2
#     Edge 118, Type (0, 0), BuildingBlock: AJUNOK_clean_linker_0, # of connection points: 2
#     Edge 119, Type (0, 0), BuildingBlock: AJUNOK_clean_linker_0, # of connection points: 2
#     Edge 120, Type (0, 0), BuildingBlock: AJUNOK_clean_linker_0, # of connection points: 2
#     Edge 121, Type (0, 0), BuildingBlock: AJUNOK_clean_linker_0, # of connection points: 2
#     Edge 122, Type (0, 0), BuildingBlock: AJUNOK_clean_linker_0, # of connection points: 2
#     Edge 123, Type (0, 0), BuildingBlock: AJUNOK_clean_linker_0, # of connection points: 2
#     Edge 124, Type (0, 0), BuildingBlock: AJUNOK_clean_linker_0, # of connection points: 2
#     Edge 125, Type (0, 0), BuildingBlock: AJUNOK_clean_linker_0, # of connection points: 2
#     Edge 126, Type (0, 0), BuildingBlock: AJUNOK_clean_linker_0, # of connection points: 2
#     Edge 127, Type (0, 0), BuildingBlock: AJUNOK_clean_linker_0, # of connection points: 2
#     Edge 128, Type (0, 0), BuildingBlock: AJUNOK_clean_linker_0, # of connection points: 2
#     Edge 129, Type (0, 0), BuildingBlock: AJUNOK_clean_linker_0, # of connection points: 2
#     Edge 130, Type (0, 0), BuildingBlock: AJUNOK_clean_linker_0, # of connection points: 2
#     Edge 131, Type (0, 0), BuildingBlock: AJUNOK_clean_linker_0, # of connection points: 2
#     Edge 132, Type (0, 0), BuildingBlock: AJUNOK_clean_linker_0, # of connection points: 2
#     Edge 133, Type (0, 0), BuildingBlock: AJUNOK_clean_linker_0, # of connection points: 2
#     Edge 134, Type (0, 0), BuildingBlock: AJUNOK_clean_linker_0, # of connection points: 2
#     Edge 135, Type (0, 0), BuildingBlock: AJUNOK_clean_linker_0, # of connection points: 2
#     Edge 136, Type (0, 0), BuildingBlock: AJUNOK_clean_linker_0, # of connection points: 2
#     Edge 137, Type (0, 0), BuildingBlock: AJUNOK_clean_linker_0, # of connection points: 2
#     Edge 138, Type (0, 0), BuildingBlock: AJUNOK_clean_linker_0, # of connection points: 2
#     Edge 139, Type (0, 0), BuildingBlock: AJUNOK_clean_linker_0, # of connection points: 2
#     Edge 140, Type (0, 0), BuildingBlock: AJUNOK_clean_linker_0, # of connection points: 2
#     Edge 141, Type (0, 0), BuildingBlock: AJUNOK_clean_linker_0, # of connection points: 2
#     Edge 142, Type (0, 0), BuildingBlock: AJUNOK_clean_linker_0, # of connection points: 2
#     Edge 143, Type (0, 0), BuildingBlock: AJUNOK_clean_linker_0, # of connection points: 2
#     Edge 144, Type (0, 0), BuildingBlock: AJUNOK_clean_linker_0, # of connection points: 2
#     Edge 145, Type (0, 0), BuildingBlock: AJUNOK_clean_linker_0, # of connection points: 2
#     Edge 146, Type (0, 0), BuildingBlock: AJUNOK_clean_linker_0, # of connection points: 2
#     Edge 147, Type (0, 0), BuildingBlock: AJUNOK_clean_linker_0, # of connection points: 2
#     Edge 148, Type (0, 0), BuildingBlock: AJUNOK_clean_linker_0, # of connection points: 2
#     Edge 149, Type (0, 0), BuildingBlock: AJUNOK_clean_linker_0, # of connection points: 2
#     Edge 150, Type (0, 0), BuildingBlock: AJUNOK_clean_linker_0, # of connection points: 2
#     Edge 151, Type (0, 0), BuildingBlock: AJUNOK_clean_linker_0, # of connection points: 2
#     Edge 152, Type (0, 0), BuildingBlock: AJUNOK_clean_linker_0, # of connection points: 2
#     Edge 153, Type (0, 0), BuildingBlock: AJUNOK_clean_linker_0, # of connection points: 2
#     Edge 154, Type (0, 0), BuildingBlock: AJUNOK_clean_linker_0, # of connection points: 2
#     Edge 155, Type (0, 0), BuildingBlock: AJUNOK_clean_linker_0, # of connection points: 2
#     Edge 156, Type (0, 0), BuildingBlock: AJUNOK_clean_linker_0, # of connection points: 2
#     Edge 157, Type (0, 0), BuildingBlock: AJUNOK_clean_linker_0, # of connection points: 2
#     Edge 158, Type (0, 0), BuildingBlock: AJUNOK_clean_linker_0, # of connection points: 2
#     Edge 159, Type (0, 0), BuildingBlock: AJUNOK_clean_linker_0, # of connection points: 2
#     Edge 160, Type (0, 0), BuildingBlock: AJUNOK_clean_linker_0, # of connection points: 2
#     Edge 161, Type (0, 0), BuildingBlock: AJUNOK_clean_linker_0, # of connection points: 2
#     Edge 162, Type (0, 0), BuildingBlock: AJUNOK_clean_linker_0, # of connection points: 2
#     Edge 163, Type (0, 0), BuildingBlock: AJUNOK_clean_linker_0, # of connection points: 2
#     Edge 164, Type (0, 0), BuildingBlock: AJUNOK_clean_linker_0, # of connection points: 2
#     Edge 165, Type (0, 0), BuildingBlock: AJUNOK_clean_linker_0, # of connection points: 2
#     Edge 166, Type (0, 0), BuildingBlock: AJUNOK_clean_linker_0, # of connection points: 2
#     Edge 167, Type (0, 0), BuildingBlock: AJUNOK_clean_linker_0, # of connection points: 2
#     Edge 168, Type (0, 0), BuildingBlock: AJUNOK_clean_linker_0, # of connection points: 2
#     Edge 169, Type (0, 0), BuildingBlock: AJUNOK_clean_linker_0, # of connection points: 2
#     Edge 170, Type (0, 0), BuildingBlock: AJUNOK_clean_linker_0, # of connection points: 2
#     Edge 171, Type (0, 0), BuildingBlock: AJUNOK_clean_linker_0, # of connection points: 2
#     Edge 172, Type (0, 0), BuildingBlock: AJUNOK_clean_linker_0, # of connection points: 2
#     Edge 173, Type (0, 0), BuildingBlock: AJUNOK_clean_linker_0, # of connection points: 2
#     Edge 174, Type (0, 0), BuildingBlock: AJUNOK_clean_linker_0, # of connection points: 2
#     Edge 175, Type (0, 0), BuildingBlock: AJUNOK_clean_linker_0, # of connection points: 2
#     Edge 176, Type (0, 0), BuildingBlock: AJUNOK_clean_linker_0, # of connection points: 2
#     Edge 177, Type (0, 0), BuildingBlock: AJUNOK_clean_linker_0, # of connection points: 2
#     Edge 178, Type (0, 0), BuildingBlock: AJUNOK_clean_linker_0, # of connection points: 2
#     Edge 179, Type (0, 0), BuildingBlock: AJUNOK_clean_linker_0, # of connection points: 2
#     Edge 180, Type (0, 0), BuildingBlock: AJUNOK_clean_linker_0, # of connection points: 2
#     Edge 181, Type (0, 0), BuildingBlock: AJUNOK_clean_linker_0, # of connection points: 2
#     Edge 182, Type (0, 0), BuildingBlock: AJUNOK_clean_linker_0, # of connection points: 2
#     Edge 183, Type (0, 0), BuildingBlock: AJUNOK_clean_linker_0, # of connection points: 2
#     Edge 184, Type (0, 0), BuildingBlock: AJUNOK_clean_linker_0, # of connection points: 2
#     Edge 185, Type (0, 0), BuildingBlock: AJUNOK_clean_linker_0, # of connection points: 2
#     Edge 186, Type (0, 0), BuildingBlock: AJUNOK_clean_linker_0, # of connection points: 2
#     Edge 187, Type (0, 0), BuildingBlock: AJUNOK_clean_linker_0, # of connection points: 2
#     Edge 188, Type (0, 0), BuildingBlock: AJUNOK_clean_linker_0, # of connection points: 2
#     Edge 189, Type (0, 0), BuildingBlock: AJUNOK_clean_linker_0, # of connection points: 2
#     Edge 190, Type (0, 0), BuildingBlock: AJUNOK_clean_linker_0, # of connection points: 2
#     Edge 191, Type (0, 0), BuildingBlock: AJUNOK_clean_linker_0, # of connection points: 2
#     Edge 192, Type (0, 0), BuildingBlock: AJUNOK_clean_linker_0, # of connection points: 2
#     Edge 193, Type (0, 0), BuildingBlock: AJUNOK_clean_linker_0, # of connection points: 2
#     Edge 194, Type (0, 0), BuildingBlock: AJUNOK_clean_linker_0, # of connection points: 2
#     Edge 195, Type (0, 0), BuildingBlock: AJUNOK_clean_linker_0, # of connection points: 2
#     Edge 196, Type (0, 0), BuildingBlock: AJUNOK_clean_linker_0, # of connection points: 2
#     Edge 197, Type (0, 0), BuildingBlock: AJUNOK_clean_linker_0, # of connection points: 2
#     Edge 198, Type (0, 0), BuildingBlock: AJUNOK_clean_linker_0, # of connection points: 2
#     Edge 199, Type (0, 0), BuildingBlock: AJUNOK_clean_linker_0, # of connection points: 2
#     Edge 200, Type (0, 0), BuildingBlock: AJUNOK_clean_linker_0, # of connection points: 2
#     Edge 201, Type (0, 0), BuildingBlock: AJUNOK_clean_linker_0, # of connection points: 2
#     Edge 202, Type (0, 0), BuildingBlock: AJUNOK_clean_linker_0, # of connection points: 2
#     Edge 203, Type (0, 0), BuildingBlock: AJUNOK_clean_linker_0, # of connection points: 2
#     Edge 204, Type (0, 0), BuildingBlock: AJUNOK_clean_linker_0, # of connection points: 2
#     Edge 205, Type (0, 0), BuildingBlock: AJUNOK_clean_linker_0, # of connection points: 2
#     Edge 206, Type (0, 0), BuildingBlock: AJUNOK_clean_linker_0, # of connection points: 2
#     Edge 207, Type (0, 0), BuildingBlock: AJUNOK_clean_linker_0, # of connection points: 2
#     Edge 208, Type (0, 0), BuildingBlock: AJUNOK_clean_linker_0, # of connection points: 2
#     Edge 209, Type (0, 0), BuildingBlock: AJUNOK_clean_linker_0, # of connection points: 2
#     Edge 210, Type (0, 0), BuildingBlock: AJUNOK_clean_linker_0, # of connection points: 2
#     Edge 211, Type (0, 0), BuildingBlock: AJUNOK_clean_linker_0, # of connection points: 2
#     Edge 212, Type (0, 0), BuildingBlock: AJUNOK_clean_linker_0, # of connection points: 2
#     Edge 213, Type (0, 0), BuildingBlock: AJUNOK_clean_linker_0, # of connection points: 2
#     Edge 214, Type (0, 0), BuildingBlock: AJUNOK_clean_linker_0, # of connection points: 2
#     Edge 215, Type (0, 0), BuildingBlock: AJUNOK_clean_linker_0, # of connection points: 2
#     Edge 216, Type (0, 0), BuildingBlock: AJUNOK_clean_linker_0, # of connection points: 2
#     Edge 217, Type (0, 0), BuildingBlock: AJUNOK_clean_linker_0, # of connection points: 2
#     Edge 218, Type (0, 0), BuildingBlock: AJUNOK_clean_linker_0, # of connection points: 2
#     Edge 219, Type (0, 0), BuildingBlock: AJUNOK_clean_linker_0, # of connection points: 2
#     Edge 220, Type (0, 0), BuildingBlock: AJUNOK_clean_linker_0, # of connection points: 2
#     Edge 221, Type (0, 0), BuildingBlock: AJUNOK_clean_linker_0, # of connection points: 2
#     Edge 222, Type (0, 0), BuildingBlock: AJUNOK_clean_linker_0, # of connection points: 2
#     Edge 223, Type (0, 0), BuildingBlock: AJUNOK_clean_linker_0, # of connection points: 2
#     Edge 224, Type (0, 0), BuildingBlock: AJUNOK_clean_linker_0, # of connection points: 2
#     Edge 225, Type (0, 0), BuildingBlock: AJUNOK_clean_linker_0, # of connection points: 2
#     Edge 226, Type (0, 0), BuildingBlock: AJUNOK_clean_linker_0, # of connection points: 2
#     Edge 227, Type (0, 0), BuildingBlock: AJUNOK_clean_linker_0, # of connection points: 2
#     Edge 228, Type (0, 0), BuildingBlock: AJUNOK_clean_linker_0, # of connection points: 2
#     Edge 229, Type (0, 0), BuildingBlock: AJUNOK_clean_linker_0, # of connection points: 2
#     Edge 230, Type (0, 0), BuildingBlock: AJUNOK_clean_linker_0, # of connection points: 2
#     Edge 231, Type (0, 0), BuildingBlock: AJUNOK_clean_linker_0, # of connection points: 2
#     Edge 232, Type (0, 0), BuildingBlock: AJUNOK_clean_linker_0, # of connection points: 2
#     Edge 233, Type (0, 0), BuildingBlock: AJUNOK_clean_linker_0, # of connection points: 2
#     Edge 234, Type (0, 0), BuildingBlock: AJUNOK_clean_linker_0, # of connection points: 2
#     Edge 235, Type (0, 0), BuildingBlock: AJUNOK_clean_linker_0, # of connection points: 2
#     Edge 236, Type (0, 0), BuildingBlock: AJUNOK_clean_linker_0, # of connection points: 2
#     Edge 237, Type (0, 0), BuildingBlock: AJUNOK_clean_linker_0, # of connection points: 2
#     Edge 238, Type (0, 0), BuildingBlock: AJUNOK_clean_linker_0, # of connection points: 2
#     Edge 239, Type (0, 0), BuildingBlock: AJUNOK_clean_linker_0, # of connection points: 2
#     Edge 240, Type (0, 0), BuildingBlock: AJUNOK_clean_linker_0, # of connection points: 2
#     Edge 241, Type (0, 0), BuildingBlock: AJUNOK_clean_linker_0, # of connection points: 2
#     Edge 242, Type (0, 0), BuildingBlock: AJUNOK_clean_linker_0, # of connection points: 2
#     Edge 243, Type (0, 0), BuildingBlock: AJUNOK_clean_linker_0, # of connection points: 2
#     Edge 244, Type (0, 0), BuildingBlock: AJUNOK_clean_linker_0, # of connection points: 2
#     Edge 245, Type (0, 0), BuildingBlock: AJUNOK_clean_linker_0, # of connection points: 2
#     Edge 246, Type (0, 0), BuildingBlock: AJUNOK_clean_linker_0, # of connection points: 2
#     Edge 247, Type (0, 0), BuildingBlock: AJUNOK_clean_linker_0, # of connection points: 2
#     Edge 248, Type (0, 0), BuildingBlock: AJUNOK_clean_linker_0, # of connection points: 2
#     Edge 249, Type (0, 0), BuildingBlock: AJUNOK_clean_linker_0, # of connection points: 2
#     Edge 250, Type (0, 0), BuildingBlock: AJUNOK_clean_linker_0, # of connection points: 2
#     Edge 251, Type (0, 0), BuildingBlock: AJUNOK_clean_linker_0, # of connection points: 2
#     Edge 252, Type (0, 0), BuildingBlock: AJUNOK_clean_linker_0, # of connection points: 2
#     Edge 253, Type (0, 0), BuildingBlock: AJUNOK_clean_linker_0, # of connection points: 2
#     Edge 254, Type (0, 0), BuildingBlock: AJUNOK_clean_linker_0, # of connection points: 2
#     Edge 255, Type (0, 0), BuildingBlock: AJUNOK_clean_linker_0, # of connection points: 2
#     Edge 256, Type (0, 0), BuildingBlock: AJUNOK_clean_linker_0, # of connection points: 2
#     Edge 257, Type (0, 0), BuildingBlock: AJUNOK_clean_linker_0, # of connection points: 2
#     Edge 258, Type (0, 0), BuildingBlock: AJUNOK_clean_linker_0, # of connection points: 2
#     Edge 259, Type (0, 0), BuildingBlock: AJUNOK_clean_linker_0, # of connection points: 2
#     Edge 260, Type (0, 0), BuildingBlock: AJUNOK_clean_linker_0, # of connection points: 2
#     Edge 261, Type (0, 0), BuildingBlock: AJUNOK_clean_linker_0, # of connection points: 2
#     Edge 262, Type (0, 0), BuildingBlock: AJUNOK_clean_linker_0, # of connection points: 2
#     Edge 263, Type (0, 0), BuildingBlock: AJUNOK_clean_linker_0, # of connection points: 2
#     Edge 264, Type (0, 0), BuildingBlock: AJUNOK_clean_linker_0, # of connection points: 2
#     Edge 265, Type (0, 0), BuildingBlock: AJUNOK_clean_linker_0, # of connection points: 2
#     Edge 266, Type (0, 0), BuildingBlock: AJUNOK_clean_linker_0, # of connection points: 2
#     Edge 267, Type (0, 0), BuildingBlock: AJUNOK_clean_linker_0, # of connection points: 2
#     Edge 268, Type (0, 0), BuildingBlock: AJUNOK_clean_linker_0, # of connection points: 2
#     Edge 269, Type (0, 0), BuildingBlock: AJUNOK_clean_linker_0, # of connection points: 2
#     Edge 270, Type (0, 0), BuildingBlock: AJUNOK_clean_linker_0, # of connection points: 2
#     Edge 271, Type (0, 0), BuildingBlock: AJUNOK_clean_linker_0, # of connection points: 2
#     Edge 272, Type (0, 0), BuildingBlock: AJUNOK_clean_linker_0, # of connection points: 2
#     Edge 273, Type (0, 0), BuildingBlock: AJUNOK_clean_linker_0, # of connection points: 2
#     Edge 274, Type (0, 0), BuildingBlock: AJUNOK_clean_linker_0, # of connection points: 2
#     Edge 275, Type (0, 0), BuildingBlock: AJUNOK_clean_linker_0, # of connection points: 2
#     Edge 276, Type (0, 0), BuildingBlock: AJUNOK_clean_linker_0, # of connection points: 2
#     Edge 277, Type (0, 0), BuildingBlock: AJUNOK_clean_linker_0, # of connection points: 2
#     Edge 278, Type (0, 0), BuildingBlock: AJUNOK_clean_linker_0, # of connection points: 2
#     Edge 279, Type (0, 0), BuildingBlock: AJUNOK_clean_linker_0, # of connection points: 2
#     Edge 280, Type (0, 0), BuildingBlock: AJUNOK_clean_linker_0, # of connection points: 2
#     Edge 281, Type (0, 0), BuildingBlock: AJUNOK_clean_linker_0, # of connection points: 2
#     Edge 282, Type (0, 0), BuildingBlock: AJUNOK_clean_linker_0, # of connection points: 2
#     Edge 283, Type (0, 0), BuildingBlock: AJUNOK_clean_linker_0, # of connection points: 2
#     Edge 284, Type (0, 0), BuildingBlock: AJUNOK_clean_linker_0, # of connection points: 2
#     Edge 285, Type (0, 0), BuildingBlock: AJUNOK_clean_linker_0, # of connection points: 2
#     Edge 286, Type (0, 0), BuildingBlock: AJUNOK_clean_linker_0, # of connection points: 2
#     Edge 287, Type (0, 0), BuildingBlock: AJUNOK_clean_linker_0, # of connection points: 2
# Relax obj value: 0.197
# Max RMSD: 0.230
# Mean RMSD: 0.230
data_MOF--net-ulh--node1-CEKHIL_clean_sbu_0--edge1-AJUNOK_clean_linker_0
_symmetry_space_group_name_H-M    P1
_symmetry_Int_Tables_number       1
_symmetry_cell_setting            triclinic
loop_
_symmetry_equiv_pos_as_xyz
'x, y, z'
_cell_length_a     59.147366
_cell_length_b     59.156218
_cell_length_c     59.15802
_cell_angle_alpha  89.999849
_cell_angle_beta   90.003484
_cell_angle_gamma 89.999259
loop_
_atom_site_label
_atom_site_type_symbol
_atom_site_fract_x
_atom_site_fract_y
_atom_site_fract_z
_atom_type_partial_charge
Co0 Co 0.03745 0.31678 0.09231 0.0
O1 O 0.01469 0.29911 0.10696 0.0
O2 O 0.04713 0.28525 0.09439 0.0
C3 C 0.03766 0.34552 0.11765 0.0
O4 O 0.06478 0.33138 0.077 0.0
Co5 Co 0.02168 0.36405 0.07443 0.0
O6 O 0.05437 0.36698 0.06761 0.0
C7 C 0.01133 0.32338 0.04791 0.0
C8 C 0.02801 0.28194 0.10483 0.0
C9 C 0.06896 0.35112 0.06865 0.0
O10 O 0.02342 0.31122 0.06138 0.0
O11 O 0.00664 0.34417 0.05154 0.0
O12 O 0.04896 0.32715 0.12165 0.0
O13 O 0.02455 0.3445 0.10025 0.0
Co14 Co 0.93629 0.28763 0.34421 0.0
O15 O 0.95304 0.26466 0.35959 0.0
O16 O 0.96814 0.29625 0.3463 0.0
C17 C 0.9073 0.28952 0.36912 0.0
O18 O 0.92266 0.31512 0.32832 0.0
Co19 Co 0.88882 0.27293 0.32601 0.0
O20 O 0.88677 0.30565 0.31901 0.0
C21 C 0.92944 0.26037 0.30053 0.0
C22 C 0.97068 0.27733 0.35731 0.0
C23 C 0.90297 0.31986 0.32014 0.0
O24 O 0.9417 0.27273 0.31365 0.0
O25 O 0.90853 0.25624 0.30415 0.0
O26 O 0.92607 0.30011 0.37317 0.0
O27 O 0.90805 0.27589 0.3521 0.0
Co28 Co 0.96497 0.18536 0.59243 0.0
O29 O 0.98765 0.20255 0.60776 0.0
O30 O 0.95601 0.21712 0.59397 0.0
C31 C 0.96326 0.15676 0.61785 0.0
O32 O 0.93783 0.17138 0.57626 0.0
Co33 Co 0.98023 0.13767 0.57521 0.0
O34 O 0.94787 0.13575 0.5666 0.0
C35 C 0.99219 0.17795 0.54883 0.0
C36 C 0.97483 0.22002 0.60505 0.0
C37 C 0.93359 0.15191 0.56736 0.0
O38 O 0.98006 0.19043 0.56195 0.0
O39 O 0.99638 0.1571 0.5527 0.0
O40 O 0.95231 0.17541 0.62144 0.0
O41 O 0.97695 0.15738 0.60088 0.0
Co42 Co 0.067 0.21492 0.84251 0.0
O43 O 0.04939 0.23762 0.85733 0.0
O44 O 0.03552 0.20513 0.84491 0.0
C45 C 0.09602 0.21495 0.86755 0.0
O46 O 0.08152 0.18768 0.827 0.0
Co47 Co 0.11397 0.23093 0.82405 0.0
O48 O 0.11675 0.19837 0.8166 0.0
C49 C 0.07296 0.24074 0.79787 0.0
C50 C 0.03225 0.22424 0.85536 0.0
C51 C 0.10101 0.18369 0.81798 0.0
O52 O 0.06101 0.22878 0.81163 0.0
O53 O 0.09375 0.24562 0.80124 0.0
O54 O 0.07776 0.20355 0.87177 0.0
O55 O 0.09475 0.22798 0.85011 0.0
Co56 Co 0.04004 0.68388 0.91079 0.0
O57 O 0.01732 0.70107 0.89554 0.0
O58 O 0.04927 0.71554 0.90871 0.0
C59 C 0.04131 0.65488 0.88583 0.0
O60 O 0.06729 0.66975 0.92661 0.0
Co61 Co 0.02441 0.63677 0.92907 0.0
O62 O 0.05711 0.63408 0.93594 0.0
C63 C 0.01337 0.67758 0.95495 0.0
C64 C 0.03033 0.71846 0.89781 0.0
C65 C 0.07166 0.64999 0.93485 0.0
O66 O 0.02549 0.68961 0.94142 0.0
O67 O 0.00885 0.65671 0.95155 0.0
O68 O 0.05219 0.67349 0.88177 0.0
O69 O 0.02775 0.65585 0.90291 0.0
Co70 Co 0.56849 0.28738 0.15877 0.0
O71 O 0.55068 0.26538 0.14322 0.0
O72 O 0.53682 0.2968 0.15821 0.0
C73 C 0.59652 0.28955 0.13284 0.0
O74 O 0.58329 0.31394 0.17516 0.0
Co75 Co 0.61625 0.27114 0.17464 0.0
O76 O 0.61936 0.30356 0.18253 0.0
C77 C 0.57632 0.25871 0.20135 0.0
C78 C 0.53344 0.27835 0.14664 0.0
C79 C 0.60339 0.31808 0.18265 0.0
O80 O 0.5638 0.27149 0.1889 0.0
O81 O 0.59703 0.25435 0.19686 0.0
O82 O 0.57786 0.3007 0.12993 0.0
O83 O 0.59614 0.27533 0.14939 0.0
Co84 Co 0.96594 0.81885 0.41087 0.0
O85 O 0.9886 0.80138 0.39584 0.0
O86 O 0.95643 0.78725 0.40883 0.0
C87 C 0.96527 0.84759 0.38559 0.0
O88 O 0.93872 0.83334 0.4265 0.0
Co89 Co 0.98173 0.86598 0.42885 0.0
O90 O 0.94899 0.86908 0.43537 0.0
C91 C 0.99286 0.82521 0.45482 0.0
C92 C 0.9754 0.78413 0.39805 0.0
C93 C 0.93438 0.85323 0.43444 0.0
O94 O 0.98042 0.81319 0.44156 0.0
O95 O 0.99749 0.84602 0.4512 0.0
O96 O 0.95402 0.82917 0.38173 0.0
O97 O 0.97861 0.84666 0.40284 0.0
Co98 Co 0.43406 0.21555 0.66255 0.0
O99 O 0.4516 0.23824 0.64764 0.0
O100 O 0.46565 0.206 0.66052 0.0
C101 C 0.40534 0.21488 0.63722 0.0
O102 O 0.41952 0.18829 0.67807 0.0
Co103 Co 0.38689 0.23131 0.68047 0.0
O104 O 0.38375 0.19855 0.68681 0.0
C105 C 0.4276 0.24224 0.70665 0.0
C106 C 0.46883 0.22501 0.64984 0.0
C107 C 0.3996 0.18393 0.68591 0.0
O108 O 0.43966 0.22992 0.69331 0.0
O109 O 0.40678 0.24684 0.70305 0.0
O110 O 0.4238 0.20371 0.63335 0.0
O111 O 0.40623 0.22822 0.65447 0.0
Co112 Co 0.09362 0.03727 0.31728 0.0
O113 O 0.10909 0.01463 0.30015 0.0
O114 O 0.09556 0.04633 0.28553 0.0
C115 C 0.11883 0.03882 0.34608 0.0
O116 O 0.07748 0.06441 0.33138 0.0
Co117 Co 0.07597 0.02161 0.36467 0.0
O118 O 0.0683 0.05415 0.36708 0.0
C119 C 0.04998 0.00987 0.32408 0.0
C120 C 0.10672 0.02753 0.2827 0.0
C121 C 0.069 0.06859 0.35107 0.0
O122 O 0.06311 0.02227 0.31185 0.0
O123 O 0.05374 0.00547 0.34491 0.0
O124 O 0.12259 0.04979 0.32748 0.0
O125 O 0.10184 0.02516 0.34528 0.0
Co126 Co 0.21562 0.34065 0.56791 0.0
O127 O 0.23783 0.3561 0.55022 0.0
O128 O 0.20564 0.34272 0.53648 0.0
C129 C 0.21512 0.36562 0.59696 0.0
O130 O 0.18879 0.32456 0.58254 0.0
Co131 Co 0.23217 0.32245 0.61474 0.0
O132 O 0.19965 0.31497 0.61794 0.0
C133 C 0.2433 0.29713 0.5736 0.0
C134 C 0.22445 0.35371 0.53313 0.0
C135 C 0.1849 0.31594 0.60221 0.0
O136 O 0.23039 0.31018 0.56185 0.0
O137 O 0.24824 0.30077 0.59433 0.0
O138 O 0.20354 0.3696 0.57876 0.0
O139 O 0.22857 0.34851 0.59561 0.0
Co140 Co 0.91174 0.46434 0.81582 0.0
O141 O 0.89703 0.48716 0.79831 0.0
O142 O 0.90984 0.45492 0.78418 0.0
C143 C 0.8863 0.46364 0.84442 0.0
O144 O 0.92717 0.43702 0.83034 0.0
Co145 Co 0.92933 0.48018 0.8632 0.0
O146 O 0.93672 0.4476 0.86586 0.0
C147 C 0.95621 0.49029 0.82273 0.0
C148 C 0.89925 0.47399 0.78104 0.0
C149 C 0.93573 0.43298 0.85002 0.0
O150 O 0.94264 0.47843 0.81048 0.0
O151 O 0.95253 0.49498 0.84351 0.0
O152 O 0.88241 0.45262 0.82587 0.0
O153 O 0.90357 0.47694 0.84361 0.0
Co154 Co 0.7884 0.16205 0.06897 0.0
O155 O 0.76596 0.14673 0.05147 0.0
O156 O 0.79826 0.15956 0.0375 0.0
C157 C 0.78878 0.13721 0.09812 0.0
O158 O 0.8154 0.178 0.08352 0.0
Co159 Co 0.77187 0.18068 0.11562 0.0
O160 O 0.80445 0.18783 0.11883 0.0
C161 C 0.76168 0.20626 0.07434 0.0
C162 C 0.77932 0.14875 0.03432 0.0
C163 C 0.81926 0.18671 0.10317 0.0
O164 O 0.77403 0.19264 0.06264 0.0
O165 O 0.75683 0.20308 0.09516 0.0
O166 O 0.80023 0.13308 0.07988 0.0
O167 O 0.77542 0.15441 0.09676 0.0
Co168 Co 0.09201 0.96376 0.68642 0.0
O169 O 0.10651 0.98659 0.70409 0.0
O170 O 0.09358 0.95433 0.71806 0.0
C171 C 0.11778 0.96337 0.65806 0.0
O172 O 0.07671 0.93644 0.67178 0.0
Co173 Co 0.07489 0.97939 0.63878 0.0
O174 O 0.06764 0.9468 0.63608 0.0
C175 C 0.04745 0.98936 0.679 0.0
C176 C 0.10404 0.97345 0.72135 0.0
C177 C 0.06838 0.93229 0.65203 0.0
O178 O 0.06105 0.97783 0.69153 0.0
O179 O 0.05118 0.99376 0.65817 0.0
O180 O 0.12147 0.95211 0.67651 0.0
O181 O 0.10038 0.9765 0.65875 0.0
Co182 Co 0.28906 0.34264 0.9368 0.0
O183 O 0.26602 0.35697 0.95439 0.0
O184 O 0.29838 0.34439 0.96846 0.0
C185 C 0.28943 0.3683 0.90835 0.0
O186 O 0.31663 0.32763 0.92233 0.0
Co187 Co 0.27395 0.32512 0.88921 0.0
O188 O 0.30669 0.31848 0.88656 0.0
C189 C 0.2635 0.29802 0.92947 0.0
C190 C 0.27915 0.35467 0.97169 0.0
C191 C 0.32115 0.31956 0.90254 0.0
O192 O 0.27518 0.31159 0.94191 0.0
O193 O 0.25909 0.30173 0.90863 0.0
O194 O 0.30051 0.37216 0.92688 0.0
O195 O 0.27641 0.35081 0.90902 0.0
Co196 Co 0.90973 0.53876 0.18483 0.0
O197 O 0.89399 0.5164 0.20206 0.0
O198 O 0.90838 0.54779 0.21659 0.0
C199 C 0.88437 0.54088 0.15619 0.0
O200 O 0.92631 0.56558 0.17071 0.0
Co201 Co 0.92679 0.52291 0.13732 0.0
O202 O 0.93527 0.55526 0.13497 0.0
C203 C 0.95262 0.5103 0.17773 0.0
C204 C 0.89696 0.52917 0.21952 0.0
C205 C 0.93487 0.56966 0.15104 0.0
O206 O 0.93993 0.52309 0.19 0.0
O207 O 0.94861 0.506 0.15692 0.0
O208 O 0.88094 0.5519 0.17483 0.0
O209 O 0.90109 0.52688 0.15688 0.0
Co210 Co 0.71433 0.16072 0.43429 0.0
O211 O 0.73708 0.14615 0.45199 0.0
O212 O 0.7047 0.15894 0.46585 0.0
C213 C 0.71407 0.13517 0.40576 0.0
O214 O 0.68704 0.17596 0.41961 0.0
Co215 Co 0.73015 0.17841 0.38704 0.0
O216 O 0.69747 0.18519 0.38399 0.0
C217 C 0.74025 0.20522 0.42754 0.0
C218 C 0.72381 0.14848 0.46917 0.0
C219 C 0.6828 0.18412 0.39979 0.0
O220 O 0.72833 0.19164 0.43972 0.0
O221 O 0.74493 0.20163 0.40674 0.0
O222 O 0.7028 0.13133 0.42417 0.0
O223 O 0.7272 0.15258 0.4066 0.0
Co224 Co 0.31729 0.09202 0.03751 0.0
O225 O 0.29994 0.1068 0.01459 0.0
O226 O 0.28553 0.09345 0.0465 0.0
C227 C 0.34563 0.11768 0.03902 0.0
O228 O 0.33154 0.07661 0.06496 0.0
Co229 Co 0.36506 0.07491 0.02259 0.0
O230 O 0.36758 0.06816 0.05533 0.0
C231 C 0.32495 0.04847 0.01031 0.0
C232 C 0.28252 0.1042 0.02751 0.0
C233 C 0.35145 0.06893 0.06964 0.0
O234 O 0.31249 0.0613 0.02278 0.0
O235 O 0.34575 0.05258 0.00604 0.0
O236 O 0.32685 0.12128 0.04974 0.0
O237 O 0.34522 0.10057 0.02547 0.0
Co238 Co 0.81808 0.91202 0.4637 0.0
O239 O 0.80066 0.89744 0.48672 0.0
O240 O 0.78642 0.90987 0.45439 0.0
C241 C 0.84689 0.8868 0.46304 0.0
O242 O 0.83247 0.92725 0.43619 0.0
Co243 Co 0.86531 0.93015 0.47924 0.0
O244 O 0.86806 0.93675 0.44649 0.0
C245 C 0.8247 0.95675 0.48932 0.0
C246 C 0.78334 0.8995 0.47359 0.0
C247 C 0.85223 0.93551 0.43187 0.0
O248 O 0.81255 0.94301 0.47754 0.0
O249 O 0.84551 0.95327 0.49401 0.0
O250 O 0.82829 0.88266 0.45219 0.0
O251 O 0.846 0.90414 0.47626 0.0
Co252 Co 0.34109 0.06738 0.71542 0.0
O253 O 0.35616 0.05022 0.73831 0.0
O254 O 0.34342 0.03572 0.70621 0.0
C255 C 0.3661 0.09638 0.71438 0.0
O256 O 0.32541 0.08143 0.68803 0.0
Co257 Co 0.32279 0.1146 0.73083 0.0
O258 O 0.31564 0.11701 0.69818 0.0
C259 C 0.29684 0.0738 0.74189 0.0
C260 C 0.35413 0.03283 0.72525 0.0
C261 C 0.31678 0.10103 0.68373 0.0
O262 O 0.31033 0.06169 0.72978 0.0
O263 O 0.3003 0.09466 0.74638 0.0
O264 O 0.37023 0.0778 0.7035 0.0
O265 O 0.34888 0.09541 0.72775 0.0
Co266 Co 0.1876 0.59043 0.9638 0.0
O267 O 0.20513 0.60555 0.98631 0.0
O268 O 0.2192 0.59211 0.95428 0.0
C269 C 0.15898 0.61585 0.96271 0.0
O270 O 0.17313 0.57454 0.93677 0.0
Co271 Co 0.14023 0.57304 0.97984 0.0
O272 O 0.13761 0.56506 0.94739 0.0
C273 C 0.18073 0.54642 0.99052 0.0
C274 C 0.22237 0.60307 0.97313 0.0
C275 C 0.15349 0.56588 0.9328 0.0
O276 O 0.19299 0.55979 0.97844 0.0
O277 O 0.15993 0.55014 0.9951 0.0
O278 O 0.1775 0.61953 0.95158 0.0
O279 O 0.15979 0.59878 0.97628 0.0
Co280 Co 0.16322 0.93505 0.21356 0.0
O281 O 0.14867 0.95238 0.23667 0.0
O282 O 0.16164 0.96687 0.20468 0.0
C283 C 0.13739 0.90676 0.21235 0.0
O284 O 0.17854 0.92081 0.186 0.0
Co285 Co 0.18014 0.88709 0.22842 0.0
O286 O 0.18706 0.8848 0.19575 0.0
C287 C 0.20804 0.92697 0.23868 0.0
C288 C 0.15108 0.96984 0.22379 0.0
C289 C 0.18655 0.90099 0.1815 0.0
O290 O 0.19418 0.93985 0.22784 0.0
O291 O 0.20447 0.90598 0.24241 0.0
O292 O 0.13379 0.92552 0.20162 0.0
O293 O 0.15466 0.90712 0.2257 0.0
Co294 Co 0.68546 0.91009 0.04079 0.0
O295 O 0.70322 0.89447 0.01873 0.0
O296 O 0.71685 0.90783 0.05094 0.0
C297 C 0.65643 0.88514 0.04147 0.0
O298 O 0.67059 0.92621 0.06753 0.0
Co299 Co 0.63872 0.92823 0.02393 0.0
O300 O 0.63504 0.93503 0.05654 0.0
C301 C 0.67987 0.95371 0.01311 0.0
C302 C 0.72021 0.89657 0.0323 0.0
C303 C 0.65063 0.9342 0.07145 0.0
O304 O 0.6916 0.94057 0.02596 0.0
O305 O 0.65913 0.95012 0.00814 0.0
O306 O 0.67469 0.88122 0.05294 0.0
O307 O 0.65776 0.90212 0.02781 0.0
Co308 Co 0.34335 0.43607 0.79024 0.0
O309 O 0.35846 0.45305 0.76725 0.0
O310 O 0.34497 0.46794 0.79886 0.0
C311 C 0.36874 0.40744 0.79201 0.0
O312 O 0.32748 0.42225 0.81764 0.0
Co313 Co 0.32592 0.38836 0.77527 0.0
O314 O 0.31807 0.38648 0.8078 0.0
C315 C 0.29933 0.42859 0.76363 0.0
C316 C 0.35585 0.47066 0.7799 0.0
C317 C 0.31887 0.40266 0.82205 0.0
O318 O 0.3127 0.44109 0.77546 0.0
O319 O 0.30304 0.40769 0.75952 0.0
O320 O 0.37249 0.42622 0.80269 0.0
O321 O 0.35167 0.40799 0.77843 0.0
Co322 Co 0.66069 0.06497 0.289 0.0
O323 O 0.64517 0.04755 0.26663 0.0
O324 O 0.65921 0.03325 0.29827 0.0
C325 C 0.63521 0.09349 0.29073 0.0
O326 O 0.67698 0.07942 0.31584 0.0
Co327 Co 0.67757 0.11245 0.27278 0.0
O328 O 0.68566 0.11515 0.3052 0.0
C329 C 0.70382 0.07208 0.2609 0.0
C330 C 0.6479 0.0302 0.2796 0.0
C331 C 0.6853 0.09923 0.31977 0.0
O332 O 0.69107 0.05981 0.27364 0.0
O333 O 0.69969 0.09281 0.25634 0.0
O334 O 0.63176 0.07492 0.30185 0.0
O335 O 0.65201 0.09276 0.27683 0.0
Co336 Co 0.03779 0.81726 0.59274 0.0
O337 O 0.01468 0.79985 0.60716 0.0
O338 O 0.04711 0.78561 0.59496 0.0
C339 C 0.03814 0.84595 0.61808 0.0
O340 O 0.06541 0.83165 0.57774 0.0
Co341 Co 0.02254 0.86459 0.57468 0.0
O342 O 0.05538 0.8674 0.56858 0.0
C343 C 0.01222 0.82404 0.54803 0.0
C344 C 0.02785 0.78254 0.60523 0.0
C345 C 0.06991 0.85149 0.56977 0.0
O346 O 0.02404 0.81182 0.56168 0.0
O347 O 0.00761 0.84486 0.5516 0.0
O348 O 0.04914 0.82743 0.62219 0.0
O349 O 0.02512 0.8451 0.60059 0.0
Co350 Co 0.93666 0.78812 0.84433 0.0
O351 O 0.95423 0.76487 0.85831 0.0
O352 O 0.96842 0.79712 0.84556 0.0
C353 C 0.90863 0.78884 0.87051 0.0
O354 O 0.92228 0.81588 0.82961 0.0
Co355 Co 0.88869 0.77342 0.82754 0.0
O356 O 0.88642 0.80612 0.82055 0.0
C357 C 0.92838 0.76282 0.79968 0.0
C358 C 0.97161 0.77786 0.85577 0.0
C359 C 0.90251 0.82046 0.82155 0.0
O360 O 0.94112 0.77429 0.81314 0.0
O361 O 0.90756 0.75857 0.80367 0.0
O362 O 0.92742 0.79957 0.87405 0.0
O363 O 0.90882 0.77581 0.85299 0.0
Co364 Co 0.96614 0.68463 0.09175 0.0
O365 O 0.98866 0.70224 0.10685 0.0
O366 O 0.95656 0.71621 0.09352 0.0
C367 C 0.96534 0.65592 0.11709 0.0
O368 O 0.93903 0.6701 0.07602 0.0
Co369 Co 0.98194 0.63738 0.07404 0.0
O370 O 0.94924 0.6343 0.06732 0.0
C371 C 0.99316 0.67803 0.04791 0.0
C372 C 0.97546 0.71946 0.10439 0.0
C373 C 0.93468 0.65021 0.06811 0.0
O374 O 0.98076 0.69016 0.0611 0.0
O375 O 0.99772 0.65722 0.05162 0.0
O376 O 0.95408 0.67436 0.12088 0.0
O377 O 0.97877 0.65685 0.09992 0.0
Co378 Co 0.06816 0.71597 0.34112 0.0
O379 O 0.05087 0.73885 0.35606 0.0
O380 O 0.03647 0.7068 0.34308 0.0
C381 C 0.09694 0.71478 0.36634 0.0
O382 O 0.08231 0.68855 0.32559 0.0
Co383 Co 0.11558 0.73112 0.32322 0.0
O384 O 0.11816 0.69836 0.31659 0.0
C385 C 0.07503 0.74272 0.29715 0.0
C386 C 0.03349 0.72582 0.35378 0.0
C387 C 0.10212 0.68396 0.3176 0.0
O388 O 0.06279 0.73044 0.31037 0.0
O389 O 0.09587 0.74713 0.30085 0.0
O390 O 0.07828 0.70397 0.37031 0.0
O391 O 0.09616 0.72822 0.34916 0.0
Co392 Co 0.03972 0.18345 0.41171 0.0
O393 O 0.01676 0.20104 0.39725 0.0
O394 O 0.0491 0.21509 0.40992 0.0
C395 C 0.0401 0.1549 0.38619 0.0
O396 O 0.06721 0.16893 0.42682 0.0
Co397 Co 0.02439 0.13607 0.42948 0.0
O398 O 0.05718 0.13314 0.43579 0.0
C399 C 0.01332 0.17656 0.45588 0.0
C400 C 0.0299 0.21833 0.39961 0.0
C401 C 0.07171 0.14907 0.43471 0.0
O402 O 0.02562 0.18875 0.44264 0.0
O403 O 0.00876 0.15576 0.45214 0.0
O404 O 0.05124 0.17338 0.38228 0.0
O405 O 0.02702 0.15568 0.40364 0.0
Co406 Co 0.56621 0.78816 0.65769 0.0
O407 O 0.54901 0.76476 0.64347 0.0
O408 O 0.53451 0.79713 0.65557 0.0
C409 C 0.59497 0.78852 0.63233 0.0
O410 O 0.58005 0.81609 0.67249 0.0
Co411 Co 0.61402 0.77414 0.67574 0.0
O412 O 0.61606 0.80703 0.68176 0.0
C413 C 0.57367 0.76386 0.70301 0.0
C414 C 0.53156 0.77776 0.64552 0.0
C415 C 0.59971 0.82105 0.68052 0.0
O416 O 0.56095 0.77455 0.68888 0.0
O417 O 0.59473 0.76018 0.69977 0.0
O418 O 0.57637 0.79936 0.62812 0.0
O419 O 0.59424 0.77574 0.64998 0.0
Co420 Co 0.96473 0.31797 0.91074 0.0
O421 O 0.98724 0.30019 0.89586 0.0
O422 O 0.95495 0.28645 0.90896 0.0
C423 C 0.96429 0.34661 0.88531 0.0
O424 O 0.93762 0.33276 0.92626 0.0
Co425 Co 0.98087 0.36505 0.92851 0.0
O426 O 0.94817 0.36842 0.93512 0.0
C427 C 0.99152 0.32436 0.95477 0.0
C428 C 0.97393 0.28305 0.89828 0.0
C429 C 0.93343 0.35268 0.93419 0.0
O430 O 0.9791 0.31237 0.94147 0.0
O431 O 0.99636 0.34511 0.95106 0.0
O432 O 0.95292 0.32824 0.88151 0.0
O433 O 0.97762 0.34564 0.90257 0.0
Co434 Co 0.43493 0.71512 0.16166 0.0
O435 O 0.45216 0.73739 0.14583 0.0
O436 O 0.46678 0.70634 0.16086 0.0
C437 C 0.40682 0.7124 0.13585 0.0
O438 O 0.42079 0.68828 0.17822 0.0
Co439 Co 0.38675 0.73014 0.1776 0.0
O440 O 0.38441 0.69766 0.18541 0.0
C441 C 0.42663 0.74456 0.20348 0.0
C442 C 0.46967 0.72476 0.14911 0.0
C443 C 0.40076 0.68359 0.18558 0.0
O444 O 0.43943 0.7315 0.19161 0.0
O445 O 0.4058 0.7482 0.19891 0.0
O446 O 0.4256 0.70146 0.13293 0.0
O447 O 0.40702 0.72659 0.15241 0.0
Co448 Co 0.0935 0.53586 0.8179 0.0
O449 O 0.10835 0.51323 0.80025 0.0
O450 O 0.09533 0.54548 0.78633 0.0
C451 C 0.1189 0.53637 0.84653 0.0
O452 O 0.07802 0.56306 0.83256 0.0
Co453 Co 0.07571 0.51999 0.86508 0.0
O454 O 0.06922 0.55272 0.8683 0.0
C455 C 0.04962 0.50891 0.82438 0.0
C456 C 0.10599 0.52647 0.78305 0.0
C457 C 0.07015 0.56737 0.85248 0.0
O458 O 0.06276 0.52147 0.81236 0.0
O459 O 0.05339 0.50416 0.84514 0.0
O460 O 0.12274 0.54766 0.82812 0.0
O461 O 0.10162 0.52308 0.84562 0.0
Co462 Co 0.21576 0.8416 0.06598 0.0
O463 O 0.23847 0.85641 0.04837 0.0
O464 O 0.20607 0.84379 0.03445 0.0
C465 C 0.21551 0.86682 0.09482 0.0
O466 O 0.18847 0.82622 0.08057 0.0
Co467 Co 0.23164 0.82339 0.11301 0.0
O468 O 0.19891 0.81689 0.11616 0.0
C469 C 0.24192 0.79714 0.0722 0.0
C470 C 0.22514 0.85434 0.0312 0.0
C471 C 0.18421 0.81808 0.10039 0.0
O472 O 0.2298 0.81073 0.0602 0.0
O473 O 0.2467 0.80063 0.09299 0.0
O474 O 0.20422 0.87088 0.07646 0.0
O475 O 0.22866 0.84944 0.09373 0.0
Co476 Co 0.91203 0.96498 0.31621 0.0
O477 O 0.89728 0.98774 0.29864 0.0
O478 O 0.91032 0.95557 0.28456 0.0
C479 C 0.88647 0.96401 0.34473 0.0
O480 O 0.92757 0.93776 0.33075 0.0
Co481 Co 0.92936 0.98094 0.36362 0.0
O482 O 0.93699 0.94842 0.36628 0.0
C483 C 0.95647 0.99103 0.3233 0.0
C484 C 0.89967 0.97459 0.28137 0.0
C485 C 0.93613 0.93379 0.35044 0.0
O486 O 0.94289 0.97925 0.31098 0.0
O487 O 0.95277 0.99566 0.34409 0.0
O488 O 0.88274 0.95304 0.32613 0.0
O489 O 0.90364 0.97747 0.34401 0.0
Co490 Co 0.78787 0.66123 0.56732 0.0
O491 O 0.76543 0.64577 0.54994 0.0
O492 O 0.79716 0.65957 0.53562 0.0
C493 C 0.7895 0.63593 0.59599 0.0
O494 O 0.81484 0.67735 0.58178 0.0
Co495 Co 0.77175 0.67867 0.61456 0.0
O496 O 0.80435 0.68589 0.61757 0.0
C497 C 0.75991 0.70451 0.57395 0.0
C498 C 0.77842 0.64838 0.53259 0.0
C499 C 0.819 0.68527 0.60172 0.0
O500 O 0.7727 0.69163 0.56189 0.0
O501 O 0.75533 0.70065 0.59473 0.0
O502 O 0.80052 0.63232 0.57739 0.0
O503 O 0.77565 0.65279 0.59521 0.0
Co504 Co 0.09046 0.46427 0.18507 0.0
O505 O 0.10506 0.48724 0.20253 0.0
O506 O 0.09268 0.45484 0.21667 0.0
C507 C 0.11573 0.464 0.15625 0.0
O508 O 0.07519 0.43676 0.17078 0.0
Co509 Co 0.07233 0.47958 0.13774 0.0
O510 O 0.06528 0.44692 0.13525 0.0
C511 C 0.04567 0.48973 0.17839 0.0
C512 C 0.10303 0.47403 0.21981 0.0
C513 C 0.06652 0.43246 0.15121 0.0
O514 O 0.05945 0.47812 0.19065 0.0
O515 O 0.0491 0.49421 0.15752 0.0
O516 O 0.11985 0.45286 0.17468 0.0
O517 O 0.09824 0.477 0.15722 0.0
Co518 Co 0.28976 0.84237 0.43713 0.0
O519 O 0.2666 0.85618 0.45496 0.0
O520 O 0.2991 0.84367 0.46879 0.0
C521 C 0.28997 0.8686 0.40919 0.0
O522 O 0.31749 0.82789 0.42242 0.0
Co523 Co 0.27479 0.82558 0.38926 0.0
O524 O 0.30758 0.81917 0.38653 0.0
C525 C 0.26438 0.79777 0.42903 0.0
C526 C 0.27982 0.85378 0.47219 0.0
C527 C 0.32205 0.82017 0.40251 0.0
O528 O 0.2761 0.81112 0.44168 0.0
O529 O 0.25992 0.80185 0.40828 0.0
O530 O 0.30091 0.87217 0.42785 0.0
O531 O 0.27708 0.85099 0.40946 0.0
Co532 Co 0.91049 0.0361 0.68226 0.0
O533 O 0.89444 0.01268 0.69755 0.0
O534 O 0.90705 0.04371 0.71427 0.0
C535 C 0.88654 0.03887 0.65256 0.0
O536 O 0.9269 0.06394 0.67001 0.0
Co537 Co 0.93028 0.0225 0.6351 0.0
O538 O 0.93717 0.05529 0.63418 0.0
C539 C 0.95451 0.00921 0.67626 0.0
C540 C 0.89575 0.02483 0.71564 0.0
C541 C 0.93565 0.06912 0.65067 0.0
O542 O 0.94079 0.02104 0.68838 0.0
O543 O 0.95167 0.00559 0.65513 0.0
O544 O 0.88193 0.04892 0.67147 0.0
O545 O 0.90356 0.02522 0.65344 0.0
Co546 Co 0.71486 0.66322 0.93279 0.0
O547 O 0.73849 0.64989 0.9504 0.0
O548 O 0.70584 0.6616 0.96454 0.0
C549 C 0.71502 0.63699 0.90482 0.0
O550 O 0.68664 0.67715 0.91836 0.0
Co551 Co 0.72843 0.67997 0.88438 0.0
O552 O 0.69545 0.68489 0.88196 0.0
C553 C 0.73661 0.70953 0.92381 0.0
C554 C 0.72539 0.65195 0.96775 0.0
C555 C 0.68144 0.68416 0.89834 0.0
O556 O 0.72787 0.69482 0.93734 0.0
O557 O 0.73949 0.70614 0.90265 0.0
O558 O 0.70422 0.63321 0.92352 0.0
O559 O 0.72752 0.65487 0.90499 0.0
Co560 Co 0.3164 0.59059 0.53728 0.0
O561 O 0.2992 0.60531 0.51422 0.0
O562 O 0.28474 0.59295 0.54649 0.0
C563 C 0.34534 0.61565 0.53799 0.0
O564 O 0.33051 0.5752 0.56483 0.0
Co565 Co 0.36368 0.57225 0.52197 0.0
O566 O 0.36599 0.56508 0.55463 0.0
C567 C 0.32292 0.5459 0.51162 0.0
C568 C 0.28183 0.60339 0.5273 0.0
C569 C 0.35005 0.56641 0.5691 0.0
O570 O 0.31076 0.55966 0.52336 0.0
O571 O 0.34379 0.54929 0.50708 0.0
O572 O 0.32677 0.61987 0.54884 0.0
O573 O 0.34439 0.59828 0.52481 0.0
Co574 Co 0.81723 0.41215 0.96285 0.0
O575 O 0.79949 0.39719 0.98532 0.0
O576 O 0.78576 0.41024 0.95299 0.0
C577 C 0.84599 0.38686 0.96218 0.0
O578 O 0.83195 0.42772 0.93578 0.0
Co579 Co 0.86429 0.43002 0.97906 0.0
O580 O 0.86756 0.43675 0.94638 0.0
C581 C 0.82355 0.45629 0.98952 0.0
C582 C 0.7824 0.39947 0.97191 0.0
C583 C 0.85182 0.43576 0.93164 0.0
O584 O 0.81156 0.4429 0.97719 0.0
O585 O 0.84431 0.45266 0.99435 0.0
O586 O 0.82753 0.38298 0.95101 0.0
O587 O 0.84499 0.40403 0.97564 0.0
Co588 Co 0.34116 0.56783 0.21472 0.0
O589 O 0.35593 0.55062 0.23775 0.0
O590 O 0.34311 0.5361 0.20569 0.0
C591 C 0.36651 0.5965 0.21373 0.0
O592 O 0.32583 0.58198 0.18715 0.0
Co593 Co 0.32324 0.61528 0.22967 0.0
O594 O 0.31676 0.61784 0.19688 0.0
C595 C 0.29711 0.57477 0.24129 0.0
C596 C 0.3537 0.53318 0.2248 0.0
C597 C 0.31787 0.60179 0.1825 0.0
O598 O 0.31034 0.56253 0.22904 0.0
O599 O 0.30082 0.59561 0.24568 0.0
O600 O 0.37046 0.57785 0.20291 0.0
O601 O 0.34919 0.59582 0.22699 0.0
Co602 Co 0.18778 0.09031 0.46473 0.0
O603 O 0.20536 0.10534 0.48731 0.0
O604 O 0.21941 0.09189 0.4553 0.0
C605 C 0.15918 0.11574 0.46347 0.0
O606 O 0.17325 0.07461 0.4376 0.0
Co607 Co 0.14038 0.07295 0.48054 0.0
O608 O 0.13742 0.06605 0.44787 0.0
C609 C 0.18081 0.04666 0.49203 0.0
C610 C 0.22263 0.10276 0.47419 0.0
C611 C 0.15331 0.06678 0.43329 0.0
O612 O 0.19302 0.05967 0.4795 0.0
O613 O 0.16005 0.05062 0.49664 0.0
O614 O 0.17779 0.11945 0.45248 0.0
O615 O 0.15995 0.09872 0.47711 0.0
Co616 Co 0.16265 0.43328 0.71554 0.0
O617 O 0.14735 0.45068 0.73809 0.0
O618 O 0.16044 0.46484 0.70597 0.0
C619 C 0.13763 0.40428 0.7148 0.0
O620 O 0.17856 0.419 0.6884 0.0
Co621 Co 0.18089 0.38619 0.73132 0.0
O622 O 0.18812 0.38343 0.69871 0.0
C623 C 0.20639 0.42716 0.74281 0.0
C624 C 0.14955 0.46793 0.72488 0.0
C625 C 0.1871 0.39935 0.68419 0.0
O626 O 0.19323 0.43914 0.73022 0.0
O627 O 0.20281 0.40634 0.74741 0.0
O628 O 0.13362 0.42264 0.70349 0.0
O629 O 0.15483 0.40542 0.72817 0.0
Co630 Co 0.68401 0.41082 0.53834 0.0
O631 O 0.70108 0.3955 0.51559 0.0
O632 O 0.71575 0.40884 0.54736 0.0
C633 C 0.65514 0.38574 0.53994 0.0
O634 O 0.66999 0.42673 0.56563 0.0
Co635 Co 0.63672 0.42883 0.52299 0.0
O636 O 0.63415 0.43566 0.5557 0.0
C637 C 0.67739 0.4546 0.51116 0.0
C638 C 0.71855 0.39784 0.52848 0.0
C639 C 0.65018 0.43476 0.57013 0.0
O640 O 0.68953 0.44137 0.52351 0.0
O641 O 0.65651 0.45102 0.50681 0.0
O642 O 0.67382 0.38184 0.55073 0.0
O643 O 0.65594 0.40276 0.52629 0.0
Co644 Co 0.34189 0.94015 0.29232 0.0
O645 O 0.35756 0.95747 0.27005 0.0
O646 O 0.34065 0.97232 0.29998 0.0
C647 C 0.36916 0.9139 0.29698 0.0
O648 O 0.32502 0.92575 0.31885 0.0
Co649 Co 0.32922 0.89114 0.27739 0.0
O650 O 0.3197 0.88906 0.30944 0.0
C651 C 0.30093 0.92895 0.26229 0.0
C652 C 0.35286 0.9752 0.28184 0.0
C653 C 0.31818 0.90549 0.32334 0.0
O654 O 0.31231 0.94257 0.27493 0.0
O655 O 0.30647 0.90829 0.25908 0.0
O656 O 0.37035 0.93303 0.30758 0.0
O657 O 0.35337 0.91253 0.28198 0.0
Co658 Co 0.66047 0.5666 0.78849 0.0
O659 O 0.64522 0.54905 0.76603 0.0
O660 O 0.65868 0.53499 0.79802 0.0
C661 C 0.63509 0.5953 0.78952 0.0
O662 O 0.67649 0.58115 0.81546 0.0
Co663 Co 0.67792 0.61384 0.77218 0.0
O664 O 0.68578 0.61667 0.80465 0.0
C665 C 0.70413 0.5732 0.76112 0.0
C666 C 0.6477 0.5318 0.77918 0.0
C667 C 0.68507 0.60087 0.81932 0.0
O668 O 0.69103 0.5611 0.77366 0.0
O669 O 0.70032 0.59395 0.75641 0.0
O670 O 0.6314 0.57684 0.80076 0.0
O671 O 0.65214 0.59437 0.77594 0.0
Co672 Co 0.53625 0.3178 0.59248 0.0
O673 O 0.51347 0.30023 0.60722 0.0
O674 O 0.5459 0.28626 0.59471 0.0
C675 C 0.53656 0.34663 0.61769 0.0
O676 O 0.56359 0.33236 0.57716 0.0
Co677 Co 0.52044 0.36484 0.57423 0.0
O678 O 0.55318 0.36793 0.56775 0.0
C679 C 0.51051 0.32406 0.54777 0.0
C680 C 0.5268 0.28304 0.60522 0.0
C681 C 0.56786 0.35216 0.56898 0.0
O682 O 0.52235 0.31202 0.56155 0.0
O683 O 0.50578 0.34488 0.55114 0.0
O684 O 0.54774 0.32822 0.62176 0.0
O685 O 0.52339 0.34561 0.60032 0.0
Co686 Co 0.43685 0.2884 0.8441 0.0
O687 O 0.45427 0.26541 0.85875 0.0
O688 O 0.4686 0.29744 0.84567 0.0
C689 C 0.40836 0.28966 0.86966 0.0
O690 O 0.42255 0.31587 0.82879 0.0
Co691 Co 0.3892 0.27321 0.82678 0.0
O692 O 0.38667 0.30593 0.81997 0.0
C693 C 0.42933 0.26214 0.79986 0.0
C694 C 0.47167 0.27837 0.85625 0.0
C695 C 0.40269 0.32036 0.82085 0.0
O696 O 0.44178 0.27407 0.8132 0.0
O697 O 0.40852 0.25772 0.80373 0.0
O698 O 0.42711 0.30037 0.87344 0.0
O699 O 0.40892 0.27621 0.85248 0.0
Co700 Co 0.46417 0.18584 0.092 0.0
O701 O 0.48698 0.20333 0.10673 0.0
O702 O 0.45485 0.21749 0.09362 0.0
C703 C 0.46314 0.15736 0.11753 0.0
O704 O 0.43682 0.17143 0.07659 0.0
Co705 Co 0.47961 0.13833 0.07457 0.0
O706 O 0.44695 0.13567 0.06751 0.0
C707 C 0.49041 0.17864 0.04775 0.0
C708 C 0.47387 0.22063 0.1043 0.0
C709 C 0.43245 0.15163 0.06848 0.0
O710 O 0.4785 0.191 0.06118 0.0
O711 O 0.49483 0.15781 0.05146 0.0
O712 O 0.45225 0.17601 0.12128 0.0
O713 O 0.47656 0.15798 0.10033 0.0
Co714 Co 0.56765 0.21419 0.34005 0.0
O715 O 0.55034 0.23784 0.35369 0.0
O716 O 0.53586 0.20539 0.34185 0.0
C717 C 0.59596 0.21371 0.36583 0.0
O718 O 0.58183 0.18605 0.32583 0.0
Co719 Co 0.61569 0.22818 0.32262 0.0
O720 O 0.61797 0.19522 0.31722 0.0
C721 C 0.57582 0.23777 0.29447 0.0
C722 C 0.53287 0.22489 0.35164 0.0
C723 C 0.60174 0.18105 0.31833 0.0
O724 O 0.5629 0.22741 0.30863 0.0
O725 O 0.59684 0.24149 0.29792 0.0
O726 O 0.57712 0.20326 0.36986 0.0
O727 O 0.59563 0.22653 0.34816 0.0
Co728 Co 0.53907 0.68533 0.40988 0.0
O729 O 0.51648 0.70213 0.39408 0.0
O730 O 0.54782 0.71716 0.40804 0.0
C731 C 0.54126 0.65652 0.38481 0.0
O732 O 0.5661 0.67154 0.42643 0.0
Co733 Co 0.52357 0.63784 0.4274 0.0
O734 O 0.55602 0.63578 0.43559 0.0
C735 C 0.51109 0.67841 0.45305 0.0
C736 C 0.52914 0.71973 0.39661 0.0
C737 C 0.57033 0.65192 0.43503 0.0
O738 O 0.52361 0.69069 0.44011 0.0
O739 O 0.50689 0.65753 0.44929 0.0
O740 O 0.55212 0.67521 0.38114 0.0
O741 O 0.52733 0.65724 0.40159 0.0
Co742 Co 0.06875 0.28695 0.66115 0.0
O743 O 0.05115 0.26472 0.64564 0.0
O744 O 0.03729 0.29686 0.659 0.0
C745 C 0.09786 0.28754 0.63627 0.0
O746 O 0.08333 0.31378 0.67733 0.0
Co747 Co 0.1155 0.2703 0.67947 0.0
O748 O 0.11869 0.30281 0.687 0.0
C749 C 0.07427 0.25924 0.70467 0.0
C750 C 0.03401 0.27805 0.64799 0.0
C751 C 0.103 0.3176 0.68602 0.0
O752 O 0.0626 0.27217 0.69158 0.0
O753 O 0.09501 0.25425 0.7011 0.0
O754 O 0.07963 0.29908 0.63225 0.0
O755 O 0.09648 0.27405 0.65334 0.0
Co756 Co 0.46494 0.81745 0.91004 0.0
O757 O 0.48746 0.79992 0.89485 0.0
O758 O 0.45505 0.78602 0.90748 0.0
C759 C 0.46474 0.84661 0.88519 0.0
O760 O 0.43783 0.83191 0.92581 0.0
Co761 Co 0.48116 0.86427 0.92866 0.0
O762 O 0.4486 0.86715 0.93609 0.0
C763 C 0.49107 0.82312 0.95458 0.0
C764 C 0.47402 0.78281 0.89673 0.0
C765 C 0.43389 0.85143 0.93477 0.0
O766 O 0.47906 0.81124 0.94079 0.0
O767 O 0.49591 0.84393 0.95133 0.0
O768 O 0.45331 0.82838 0.88097 0.0
O769 O 0.47796 0.84524 0.90248 0.0
Co770 Co 0.93529 0.21495 0.16283 0.0
O771 O 0.9528 0.23753 0.14772 0.0
O772 O 0.96678 0.20514 0.16029 0.0
C773 C 0.90616 0.21475 0.13793 0.0
O774 O 0.92077 0.18781 0.17855 0.0
Co775 Co 0.88849 0.23124 0.18143 0.0
O776 O 0.88552 0.19868 0.18874 0.0
C777 C 0.92963 0.24098 0.20743 0.0
C778 C 0.96996 0.22415 0.14961 0.0
C779 C 0.90121 0.18391 0.18745 0.0
O780 O 0.94148 0.229 0.1936 0.0
O781 O 0.90881 0.24585 0.20421 0.0
O782 O 0.92442 0.20336 0.13372 0.0
O783 O 0.9075 0.22795 0.15524 0.0
Co784 Co 0.5944 0.0369 0.81923 0.0
O785 O 0.60966 0.01415 0.80209 0.0
O786 O 0.59646 0.04606 0.78755 0.0
C787 C 0.61943 0.03831 0.84814 0.0
O788 O 0.57861 0.0642 0.83331 0.0
Co789 Co 0.57629 0.02149 0.86647 0.0
O790 O 0.56962 0.05424 0.86912 0.0
C791 C 0.55055 0.00977 0.82575 0.0
C792 C 0.60743 0.02716 0.78469 0.0
C793 C 0.57062 0.06869 0.85313 0.0
O794 O 0.56378 0.02218 0.81365 0.0
O795 O 0.55417 0.00533 0.8466 0.0
O796 O 0.62342 0.04914 0.8295 0.0
O797 O 0.60237 0.02472 0.84727 0.0
Co798 Co 0.7146 0.34296 0.06442 0.0
O799 O 0.7372 0.35797 0.0469 0.0
O800 O 0.7053 0.34432 0.03276 0.0
C801 C 0.71318 0.36854 0.09281 0.0
O802 O 0.68747 0.32726 0.07886 0.0
Co803 Co 0.73019 0.32597 0.11205 0.0
O804 O 0.6976 0.31851 0.11469 0.0
C805 C 0.74172 0.2993 0.07187 0.0
C806 C 0.72414 0.3553 0.0296 0.0
C807 C 0.68313 0.31925 0.09869 0.0
O808 O 0.72943 0.31232 0.05945 0.0
O809 O 0.7462 0.30336 0.09263 0.0
O810 O 0.7022 0.37209 0.07418 0.0
O811 O 0.72688 0.35156 0.09223 0.0
Co812 Co 0.41001 0.46615 0.3188 0.0
O813 O 0.3949 0.4887 0.30123 0.0
O814 O 0.40821 0.45662 0.28721 0.0
C815 C 0.38465 0.46521 0.34748 0.0
O816 O 0.42576 0.43904 0.33331 0.0
Co817 Co 0.4276 0.48193 0.36611 0.0
O818 O 0.43428 0.44923 0.36916 0.0
C819 C 0.45373 0.49336 0.32554 0.0
C820 C 0.39732 0.4755 0.284 0.0
C821 C 0.43358 0.43468 0.35323 0.0
O822 O 0.44066 0.48084 0.31337 0.0
O823 O 0.44988 0.49796 0.34631 0.0
O824 O 0.38088 0.45401 0.32901 0.0
O825 O 0.40177 0.4787 0.34659 0.0
Co826 Co 0.2891 0.15985 0.5674 0.0
O827 O 0.26691 0.14453 0.5496 0.0
O828 O 0.29928 0.15759 0.53602 0.0
C829 C 0.28927 0.13489 0.59645 0.0
O830 O 0.31585 0.17591 0.58227 0.0
Co831 Co 0.27196 0.17811 0.61403 0.0
O832 O 0.30437 0.18603 0.61734 0.0
C833 C 0.26231 0.20401 0.57284 0.0
C834 C 0.28043 0.1467 0.53259 0.0
C835 C 0.31935 0.18493 0.60185 0.0
O836 O 0.27473 0.19044 0.56115 0.0
O837 O 0.25713 0.2006 0.59355 0.0
O838 O 0.30094 0.13086 0.57832 0.0
O839 O 0.27587 0.15204 0.59499 0.0
Co840 Co 0.58973 0.96336 0.18706 0.0
O841 O 0.60496 0.98585 0.20459 0.0
O842 O 0.59159 0.95382 0.21866 0.0
C843 C 0.61512 0.96222 0.15837 0.0
O844 O 0.57379 0.93634 0.17253 0.0
Co845 Co 0.57221 0.97955 0.13982 0.0
O846 O 0.56468 0.94703 0.13693 0.0
C847 C 0.54577 0.99036 0.18042 0.0
C848 C 0.60259 0.97265 0.22182 0.0
C849 C 0.56538 0.93239 0.15277 0.0
O850 O 0.55911 0.97813 0.19258 0.0
O851 O 0.54941 0.99489 0.15959 0.0
O852 O 0.61879 0.9511 0.1769 0.0
O853 O 0.59808 0.97584 0.15922 0.0
Co854 Co 0.78746 0.34204 0.43536 0.0
O855 O 0.76446 0.35688 0.45258 0.0
O856 O 0.79629 0.34353 0.46716 0.0
C857 C 0.78908 0.36761 0.40694 0.0
O858 O 0.81496 0.32656 0.42132 0.0
Co859 Co 0.77275 0.32481 0.38757 0.0
O860 O 0.80549 0.31794 0.38528 0.0
C861 C 0.76039 0.29841 0.42767 0.0
C862 C 0.77729 0.3543 0.47007 0.0
C863 C 0.81972 0.31875 0.40149 0.0
O864 O 0.77272 0.31132 0.44018 0.0
O865 O 0.75622 0.30243 0.40684 0.0
O866 O 0.79973 0.37129 0.42576 0.0
O867 O 0.77555 0.3505 0.40735 0.0
Co868 Co 0.41 0.53715 0.68438 0.0
O869 O 0.39466 0.51506 0.70233 0.0
O870 O 0.40853 0.54712 0.71586 0.0
C871 C 0.3845 0.53792 0.65579 0.0
O872 O 0.42612 0.5638 0.66943 0.0
Co873 Co 0.4272 0.52029 0.63729 0.0
O874 O 0.43507 0.5527 0.63393 0.0
C875 C 0.45338 0.50932 0.67797 0.0
C876 C 0.39744 0.5284 0.71939 0.0
C877 C 0.43454 0.56751 0.64962 0.0
O878 O 0.44045 0.52215 0.68994 0.0
O879 O 0.44944 0.50441 0.65728 0.0
O880 O 0.38099 0.54952 0.67407 0.0
O881 O 0.40148 0.52426 0.65682 0.0
Co882 Co 0.21459 0.16188 0.93469 0.0
O883 O 0.23718 0.14604 0.95152 0.0
O884 O 0.20575 0.15988 0.96647 0.0
C885 C 0.21249 0.13693 0.90571 0.0
O886 O 0.18749 0.17837 0.92097 0.0
Co887 Co 0.22994 0.17981 0.88734 0.0
O888 O 0.19743 0.18769 0.88522 0.0
C889 C 0.24263 0.2051 0.92805 0.0
C890 C 0.22444 0.1485 0.96908 0.0
C891 C 0.18314 0.18697 0.90138 0.0
O892 O 0.23003 0.19213 0.94023 0.0
O893 O 0.24681 0.20145 0.90716 0.0
O894 O 0.20166 0.13315 0.9244 0.0
O895 O 0.22635 0.15377 0.90651 0.0
Co896 Co 0.81865 0.09381 0.53511 0.0
O897 O 0.80054 0.109 0.51308 0.0
O898 O 0.78724 0.09517 0.54526 0.0
C899 C 0.84717 0.11934 0.53591 0.0
O900 O 0.83375 0.07789 0.56173 0.0
Co901 Co 0.86574 0.07666 0.51828 0.0
O902 O 0.86945 0.06963 0.55085 0.0
C903 C 0.82514 0.05025 0.50758 0.0
C904 C 0.78357 0.10623 0.52657 0.0
C905 C 0.85377 0.07012 0.56567 0.0
O906 O 0.81314 0.06328 0.52026 0.0
O907 O 0.84584 0.05416 0.50267 0.0
O908 O 0.82882 0.12285 0.5474 0.0
O909 O 0.84619 0.1024 0.52218 0.0
Co910 Co 0.31837 0.91091 0.96404 0.0
O911 O 0.30061 0.89596 0.98653 0.0
O912 O 0.28687 0.90892 0.95419 0.0
C913 C 0.34714 0.88561 0.96367 0.0
O914 O 0.33309 0.92662 0.93701 0.0
Co915 Co 0.36548 0.9287 0.98039 0.0
O916 O 0.36847 0.93632 0.9479 0.0
C917 C 0.32473 0.95528 0.99029 0.0
C918 C 0.28349 0.89823 0.97316 0.0
C919 C 0.35273 0.93534 0.93316 0.0
O920 O 0.31265 0.94167 0.97829 0.0
O921 O 0.34552 0.95175 0.99508 0.0
O922 O 0.32882 0.88172 0.95226 0.0
O923 O 0.34605 0.90284 0.97699 0.0
Co924 Co 0.84166 0.06788 0.2155 0.0
O925 O 0.85687 0.05013 0.23782 0.0
O926 O 0.84409 0.03651 0.20536 0.0
C927 C 0.8666 0.09697 0.21539 0.0
O928 O 0.82582 0.08266 0.18858 0.0
Co929 Co 0.82314 0.1145 0.23229 0.0
O930 O 0.81572 0.11782 0.19977 0.0
C931 C 0.79712 0.07331 0.24172 0.0
C932 C 0.85488 0.03312 0.22427 0.0
C933 C 0.81695 0.10226 0.18487 0.0
O934 O 0.81095 0.06157 0.22964 0.0
O935 O 0.80031 0.0941 0.24673 0.0
O936 O 0.87071 0.0788 0.20384 0.0
O937 O 0.84936 0.09557 0.22871 0.0
Co938 Co 0.68529 0.59198 0.46493 0.0
O939 O 0.70299 0.60681 0.48756 0.0
O940 O 0.71685 0.59388 0.45526 0.0
C941 C 0.65667 0.61745 0.46448 0.0
O942 O 0.6706 0.57643 0.43777 0.0
Co943 Co 0.63803 0.57435 0.48088 0.0
O944 O 0.63498 0.5673 0.44826 0.0
C945 C 0.67859 0.54771 0.49124 0.0
C946 C 0.72017 0.60452 0.47427 0.0
C947 C 0.65079 0.5682 0.43359 0.0
O948 O 0.69078 0.56117 0.47918 0.0
O949 O 0.65781 0.5514 0.49594 0.0
O950 O 0.67506 0.62125 0.45316 0.0
O951 O 0.65758 0.60016 0.47775 0.0
Co952 Co 0.66117 0.93326 0.71546 0.0
O953 O 0.64547 0.95049 0.73785 0.0
O954 O 0.66157 0.96532 0.70744 0.0
C955 C 0.63443 0.9061 0.71199 0.0
O956 O 0.67779 0.91932 0.68853 0.0
Co957 Co 0.67519 0.88409 0.7291 0.0
O958 O 0.68335 0.88238 0.69668 0.0
C959 C 0.70197 0.92271 0.74553 0.0
C960 C 0.64962 0.96818 0.72573 0.0
C961 C 0.68445 0.8992 0.68322 0.0
O962 O 0.6909 0.93638 0.73262 0.0
O963 O 0.6966 0.90192 0.7482 0.0
O964 O 0.63236 0.92504 0.7011 0.0
O965 O 0.6509 0.90549 0.72623 0.0
Co966 Co 0.18665 0.90993 0.54051 0.0
O967 O 0.20376 0.89447 0.51788 0.0
O968 O 0.21833 0.90783 0.5497 0.0
C969 C 0.15762 0.88495 0.5419 0.0
O970 O 0.1726 0.92605 0.56766 0.0
Co971 Co 0.13945 0.92803 0.52479 0.0
O972 O 0.137 0.93558 0.55735 0.0
C973 C 0.18027 0.95391 0.51357 0.0
C974 C 0.22118 0.89678 0.53085 0.0
C975 C 0.15298 0.93468 0.57182 0.0
O976 O 0.19239 0.94044 0.52568 0.0
O977 O 0.15936 0.95054 0.50924 0.0
O978 O 0.17618 0.881 0.55288 0.0
O979 O 0.15861 0.90198 0.52828 0.0
Co980 Co 0.84341 0.43504 0.28869 0.0
O981 O 0.85895 0.45227 0.26619 0.0
O982 O 0.84426 0.4669 0.2974 0.0
C983 C 0.8691 0.40679 0.29121 0.0
O984 O 0.82709 0.42095 0.31567 0.0
Co985 Co 0.827 0.38711 0.27349 0.0
O986 O 0.81914 0.3848 0.306 0.0
C987 C 0.80074 0.42701 0.26017 0.0
C988 C 0.8557 0.46982 0.27879 0.0
C989 C 0.81934 0.40104 0.32021 0.0
O990 O 0.81317 0.43962 0.27289 0.0
O991 O 0.80506 0.4062 0.25618 0.0
O992 O 0.87228 0.42562 0.302 0.0
O993 O 0.85244 0.40708 0.27712 0.0
Co994 Co 0.15945 0.06798 0.78778 0.0
O995 O 0.14434 0.05012 0.76547 0.0
O996 O 0.15746 0.03656 0.79783 0.0
C997 C 0.13426 0.09683 0.7882 0.0
O998 O 0.17517 0.08285 0.8147 0.0
Co999 Co 0.17744 0.11486 0.77121 0.0
O1000 O 0.18412 0.1184 0.80386 0.0
C1001 C 0.20361 0.07398 0.76105 0.0
C1002 C 0.14663 0.03309 0.77896 0.0
C1003 C 0.1832 0.10276 0.81871 0.0
O1004 O 0.19014 0.06209 0.77341 0.0
O1005 O 0.20004 0.09472 0.75609 0.0
O1006 O 0.13035 0.07853 0.79963 0.0
O1007 O 0.15141 0.09563 0.77475 0.0
Co1008 Co 0.53673 0.8174 0.09184 0.0
O1009 O 0.51412 0.79968 0.10662 0.0
O1010 O 0.54658 0.78593 0.09389 0.0
C1011 C 0.53696 0.84608 0.1172 0.0
O1012 O 0.56398 0.83209 0.07651 0.0
Co1013 Co 0.52097 0.86454 0.07387 0.0
O1014 O 0.55375 0.86784 0.06768 0.0
C1015 C 0.50995 0.82377 0.04783 0.0
C1016 C 0.52756 0.78259 0.10451 0.0
C1017 C 0.56838 0.85201 0.06872 0.0
O1018 O 0.5225 0.81176 0.06101 0.0
O1019 O 0.50521 0.84454 0.05157 0.0
O1020 O 0.54833 0.82774 0.12112 0.0
O1021 O 0.5238 0.8451 0.09983 0.0
Co1022 Co 0.43694 0.79162 0.34174 0.0
O1023 O 0.45361 0.76685 0.35424 0.0
O1024 O 0.46891 0.79943 0.34381 0.0
C1025 C 0.40883 0.79153 0.36778 0.0
O1026 O 0.42395 0.82104 0.32906 0.0
Co1027 Co 0.38794 0.7823 0.32422 0.0
O1028 O 0.38623 0.81572 0.32622 0.0
C1029 C 0.42704 0.77128 0.29508 0.0
C1030 C 0.4714 0.77949 0.3528 0.0
C1031 C 0.40365 0.8284 0.32601 0.0
O1032 O 0.44096 0.77944 0.30977 0.0
O1033 O 0.4057 0.76974 0.29829 0.0
O1034 O 0.42795 0.80136 0.37213 0.0
O1035 O 0.40852 0.77989 0.34931 0.0
Co1036 Co 0.46436 0.68317 0.59027 0.0
O1037 O 0.48692 0.70069 0.60537 0.0
O1038 O 0.45458 0.71464 0.59256 0.0
C1039 C 0.46398 0.65409 0.61517 0.0
O1040 O 0.43719 0.6687 0.5746 0.0
Co1041 Co 0.48036 0.63635 0.57164 0.0
O1042 O 0.44763 0.63317 0.56516 0.0
C1043 C 0.49069 0.67744 0.54589 0.0
C1044 C 0.47357 0.71785 0.60326 0.0
C1045 C 0.43294 0.64893 0.56636 0.0
O1046 O 0.47854 0.68928 0.55956 0.0
O1047 O 0.49545 0.65661 0.54913 0.0
O1048 O 0.45268 0.67241 0.61936 0.0
O1049 O 0.47725 0.65535 0.59789 0.0
Co1050 Co 0.56595 0.71461 0.83926 0.0
O1051 O 0.54857 0.73737 0.85422 0.0
O1052 O 0.53419 0.70557 0.84062 0.0
C1053 C 0.59425 0.71297 0.86496 0.0
O1054 O 0.5803 0.68732 0.82363 0.0
Co1055 Co 0.61372 0.72985 0.82242 0.0
O1056 O 0.61639 0.69714 0.81562 0.0
C1057 C 0.57366 0.74218 0.79591 0.0
C1058 C 0.53116 0.72446 0.85155 0.0
C1059 C 0.6003 0.68276 0.81613 0.0
O1060 O 0.56116 0.72964 0.80865 0.0
O1061 O 0.59442 0.74649 0.80016 0.0
O1062 O 0.57552 0.70212 0.86844 0.0
O1063 O 0.59381 0.72664 0.84796 0.0
Co1064 Co 0.54027 0.18482 0.91206 0.0
O1065 O 0.51785 0.20183 0.89617 0.0
O1066 O 0.54916 0.21664 0.91041 0.0
C1067 C 0.54242 0.15603 0.88691 0.0
O1068 O 0.56715 0.1708 0.92875 0.0
Co1069 Co 0.52442 0.13739 0.92941 0.0
O1070 O 0.55681 0.13507 0.93775 0.0
C1071 C 0.51181 0.17797 0.95494 0.0
C1072 C 0.53053 0.21938 0.89893 0.0
C1073 C 0.57123 0.15112 0.93733 0.0
O1074 O 0.5246 0.19017 0.9422 0.0
O1075 O 0.5075 0.15714 0.95107 0.0
O1076 O 0.55342 0.17467 0.88335 0.0
O1077 O 0.52843 0.15681 0.90363 0.0
Co1078 Co 0.06819 0.78862 0.15963 0.0
O1079 O 0.05074 0.76579 0.14484 0.0
O1080 O 0.03653 0.79794 0.15778 0.0
C1081 C 0.09687 0.78958 0.13429 0.0
O1082 O 0.08265 0.81593 0.17512 0.0
Co1083 Co 0.11547 0.77282 0.17738 0.0
O1084 O 0.11829 0.80549 0.18432 0.0
C1085 C 0.07495 0.76232 0.20394 0.0
C1086 C 0.03342 0.77887 0.14718 0.0
C1087 C 0.10246 0.82014 0.18331 0.0
O1088 O 0.0628 0.77436 0.19045 0.0
O1089 O 0.09575 0.75766 0.20033 0.0
O1090 O 0.07826 0.80049 0.13038 0.0
O1091 O 0.09606 0.77615 0.15148 0.0
Co1092 Co 0.46503 0.31786 0.41041 0.0
O1093 O 0.48806 0.30138 0.3948 0.0
O1094 O 0.45639 0.28607 0.40763 0.0
C1095 C 0.46329 0.3472 0.38584 0.0
O1096 O 0.43751 0.33116 0.42651 0.0
Co1097 Co 0.47971 0.36512 0.42924 0.0
O1098 O 0.44705 0.36684 0.43655 0.0
C1099 C 0.49181 0.32417 0.45449 0.0
C1100 C 0.47529 0.28375 0.39655 0.0
C1101 C 0.43289 0.3506 0.43532 0.0
O1102 O 0.47978 0.312 0.44097 0.0
O1103 O 0.49591 0.34515 0.45121 0.0
O1104 O 0.45267 0.32851 0.38154 0.0
O1105 O 0.4768 0.34621 0.40295 0.0
Co1106 Co 0.93421 0.7155 0.66262 0.0
O1107 O 0.95149 0.73823 0.64745 0.0
O1108 O 0.96596 0.70645 0.66097 0.0
C1109 C 0.90566 0.71392 0.63711 0.0
O1110 O 0.92001 0.68821 0.67836 0.0
Co1111 Co 0.88664 0.7307 0.67999 0.0
O1112 O 0.88402 0.69799 0.68683 0.0
C1113 C 0.92695 0.74271 0.7063 0.0
C1114 C 0.96891 0.72529 0.64993 0.0
C1115 C 0.90012 0.68363 0.68613 0.0
O1116 O 0.93932 0.7304 0.69323 0.0
O1117 O 0.90609 0.74695 0.70244 0.0
O1118 O 0.92438 0.70309 0.63351 0.0
O1119 O 0.90621 0.72755 0.65416 0.0
Co1120 Co 0.59242 0.53648 0.31802 0.0
O1121 O 0.60648 0.51306 0.30075 0.0
O1122 O 0.59445 0.54549 0.28632 0.0
C1123 C 0.61779 0.53724 0.34669 0.0
O1124 O 0.57773 0.56435 0.33211 0.0
Co1125 Co 0.57432 0.52182 0.36553 0.0
O1126 O 0.56807 0.55466 0.36783 0.0
C1127 C 0.54726 0.51172 0.32522 0.0
C1128 C 0.60444 0.52608 0.28333 0.0
C1129 C 0.56955 0.56903 0.3518 0.0
O1130 O 0.56117 0.52304 0.31284 0.0
O1131 O 0.5507 0.50733 0.3461 0.0
O1132 O 0.62199 0.54769 0.32789 0.0
O1133 O 0.6003 0.52418 0.34607 0.0
Co1134 Co 0.71431 0.84232 0.56636 0.0
O1135 O 0.73755 0.85723 0.54949 0.0
O1136 O 0.70546 0.84493 0.53461 0.0
C1137 C 0.71348 0.86717 0.59555 0.0
O1138 O 0.68656 0.82683 0.58 0.0
Co1139 Co 0.7289 0.82359 0.61371 0.0
O1140 O 0.69618 0.8166 0.6156 0.0
C1141 C 0.73973 0.79749 0.57289 0.0
C1142 C 0.72465 0.85543 0.53195 0.0
C1143 C 0.68195 0.81799 0.59943 0.0
O1144 O 0.72828 0.8114 0.56061 0.0
O1145 O 0.74391 0.80069 0.59386 0.0
O1146 O 0.70273 0.87157 0.57695 0.0
O1147 O 0.72654 0.84973 0.59454 0.0
Co1148 Co 0.41241 0.96553 0.81791 0.0
O1149 O 0.39761 0.98843 0.80054 0.0
O1150 O 0.41013 0.95612 0.78631 0.0
C1151 C 0.38722 0.96503 0.84678 0.0
O1152 O 0.42783 0.9381 0.83218 0.0
Co1153 Co 0.43058 0.98098 0.86518 0.0
O1154 O 0.43772 0.94833 0.86769 0.0
C1155 C 0.4572 0.99105 0.82449 0.0
C1156 C 0.39958 0.97523 0.78325 0.0
C1157 C 0.43652 0.93384 0.85175 0.0
O1158 O 0.44335 0.97948 0.81226 0.0
O1159 O 0.45381 0.99556 0.84536 0.0
O1160 O 0.38313 0.95394 0.82832 0.0
O1161 O 0.4046 0.97818 0.84582 0.0
Co1162 Co 0.28905 0.66022 0.06603 0.0
O1163 O 0.26656 0.64525 0.04831 0.0
O1164 O 0.29883 0.65843 0.03454 0.0
C1165 C 0.28992 0.63492 0.09474 0.0
O1166 O 0.31615 0.67576 0.08069 0.0
Co1167 Co 0.27294 0.67794 0.11318 0.0
O1168 O 0.30563 0.6847 0.11637 0.0
C1169 C 0.26189 0.70404 0.07251 0.0
C1170 C 0.27993 0.64762 0.0312 0.0
C1171 C 0.32033 0.68369 0.10059 0.0
O1172 O 0.27451 0.69094 0.0605 0.0
O1173 O 0.25711 0.70025 0.09325 0.0
O1174 O 0.30103 0.63107 0.07624 0.0
O1175 O 0.27637 0.65201 0.0938 0.0
Co1176 Co 0.59104 0.46396 0.68622 0.0
O1177 O 0.60615 0.48659 0.70368 0.0
O1178 O 0.59282 0.45461 0.71789 0.0
C1179 C 0.61641 0.46284 0.65754 0.0
O1180 O 0.57514 0.43687 0.67179 0.0
Co1181 Co 0.57358 0.48 0.63886 0.0
O1182 O 0.56562 0.44754 0.63629 0.0
C1183 C 0.54682 0.4904 0.67933 0.0
C1184 C 0.60372 0.4735 0.72099 0.0
C1185 C 0.56642 0.43294 0.65215 0.0
O1186 O 0.56034 0.47851 0.6916 0.0
O1187 O 0.55048 0.49499 0.65852 0.0
O1188 O 0.62017 0.45178 0.67609 0.0
O1189 O 0.59933 0.4764 0.65838 0.0
Co1190 Co 0.79158 0.84243 0.94097 0.0
O1191 O 0.76936 0.85841 0.95809 0.0
O1192 O 0.79843 0.84039 0.97331 0.0
C1193 C 0.79743 0.87016 0.91541 0.0
O1194 O 0.81804 0.82514 0.92684 0.0
Co1195 Co 0.7779 0.83141 0.89115 0.0
O1196 O 0.80978 0.8213 0.88968 0.0
C1197 C 0.76111 0.80241 0.9279 0.0
C1198 C 0.78061 0.85311 0.976 0.0
C1199 C 0.82306 0.81886 0.90651 0.0
O1200 O 0.77327 0.8133 0.94236 0.0
O1201 O 0.75888 0.80858 0.90728 0.0
O1202 O 0.80775 0.87063 0.93472 0.0
O1203 O 0.78212 0.85475 0.91341 0.0
Co1204 Co 0.40954 0.03982 0.18643 0.0
O1205 O 0.39363 0.01784 0.20401 0.0
O1206 O 0.40766 0.04966 0.21793 0.0
C1207 C 0.38453 0.04125 0.15748 0.0
O1208 O 0.42601 0.06647 0.17191 0.0
Co1209 Co 0.42731 0.02334 0.13943 0.0
O1210 O 0.43481 0.05586 0.13625 0.0
C1211 C 0.45296 0.01189 0.18031 0.0
C1212 C 0.39609 0.03118 0.22114 0.0
C1213 C 0.43415 0.07054 0.15206 0.0
O1214 O 0.43982 0.0245 0.19231 0.0
O1215 O 0.44931 0.00727 0.1595 0.0
O1216 O 0.38084 0.05256 0.17589 0.0
O1217 O 0.4013 0.02731 0.15859 0.0
Co1218 Co 0.21572 0.66126 0.43355 0.0
O1219 O 0.23814 0.64584 0.451 0.0
O1220 O 0.20622 0.65942 0.46515 0.0
C1221 C 0.21456 0.63597 0.40481 0.0
O1222 O 0.18868 0.67728 0.41919 0.0
Co1223 Co 0.23145 0.67898 0.38632 0.0
O1224 O 0.1988 0.68599 0.38337 0.0
C1225 C 0.24336 0.70473 0.42701 0.0
C1226 C 0.22499 0.64829 0.46827 0.0
C1227 C 0.18429 0.68525 0.39933 0.0
O1228 O 0.23074 0.69172 0.43913 0.0
O1229 O 0.24778 0.70101 0.40618 0.0
O1230 O 0.2033 0.6323 0.42326 0.0
O1231 O 0.22816 0.65302 0.40568 0.0
Co1232 Co 0.81782 0.59341 0.03639 0.0
O1233 O 0.80133 0.60886 0.01327 0.0
O1234 O 0.78602 0.59628 0.04503 0.0
C1235 C 0.84717 0.61795 0.03803 0.0
O1236 O 0.83126 0.57753 0.06402 0.0
Co1237 Co 0.86499 0.57442 0.02172 0.0
O1238 O 0.86704 0.56788 0.05452 0.0
C1239 C 0.82399 0.54919 0.00981 0.0
C1240 C 0.7837 0.60721 0.02604 0.0
C1241 C 0.85089 0.5692 0.06878 0.0
O1242 O 0.81189 0.56278 0.02183 0.0
O1243 O 0.84498 0.55236 0.00569 0.0
O1244 O 0.82846 0.62233 0.04857 0.0
O1245 O 0.84618 0.6008 0.02456 0.0
Co1246 Co 0.31708 0.40932 0.46464 0.0
O1247 O 0.29958 0.39395 0.48704 0.0
O1248 O 0.28548 0.40751 0.45509 0.0
C1249 C 0.34588 0.38408 0.46371 0.0
O1250 O 0.33149 0.4255 0.43773 0.0
Co1251 Co 0.36429 0.42697 0.48079 0.0
O1252 O 0.36699 0.43503 0.44836 0.0
C1253 C 0.32349 0.45271 0.49237 0.0
C1254 C 0.28231 0.39652 0.47392 0.0
C1255 C 0.35111 0.43424 0.43378 0.0
O1256 O 0.31145 0.43976 0.47961 0.0
O1257 O 0.34425 0.44888 0.49705 0.0
O1258 O 0.32753 0.38034 0.45228 0.0
O1259 O 0.34484 0.40115 0.47723 0.0
Co1260 Co 0.8415 0.56715 0.71456 0.0
O1261 O 0.85641 0.54948 0.73716 0.0
O1262 O 0.8436 0.53565 0.7048 0.0
C1263 C 0.8667 0.59596 0.71396 0.0
O1264 O 0.82602 0.58179 0.68736 0.0
Co1265 Co 0.82345 0.61421 0.73056 0.0
O1266 O 0.81672 0.61736 0.69787 0.0
C1267 C 0.79724 0.57344 0.74104 0.0
C1268 C 0.85429 0.53235 0.72378 0.0
C1269 C 0.81788 0.60161 0.68316 0.0
O1270 O 0.8107 0.56144 0.72878 0.0
O1271 O 0.80082 0.59421 0.74584 0.0
O1272 O 0.8707 0.5775 0.70284 0.0
O1273 O 0.84948 0.59494 0.72734 0.0
Co1274 Co 0.68649 0.09132 0.96723 0.0
O1275 O 0.70414 0.10607 0.98995 0.0
O1276 O 0.71798 0.09353 0.95748 0.0
C1277 C 0.65762 0.11654 0.96696 0.0
O1278 O 0.67194 0.07598 0.93992 0.0
Co1279 Co 0.63944 0.07306 0.98297 0.0
O1280 O 0.63636 0.0665 0.95024 0.0
C1281 C 0.68024 0.04675 0.99321 0.0
C1282 C 0.72129 0.10402 0.97658 0.0
C1283 C 0.65217 0.06775 0.9356 0.0
O1284 O 0.69227 0.06041 0.98121 0.0
O1285 O 0.65942 0.05019 0.99792 0.0
O1286 O 0.67601 0.12061 0.95573 0.0
O1287 O 0.65868 0.09916 0.98011 0.0
Co1288 Co 0.66265 0.43368 0.21413 0.0
O1289 O 0.64793 0.45003 0.2378 0.0
O1290 O 0.65993 0.46557 0.20591 0.0
C1291 C 0.63774 0.40464 0.21271 0.0
O1292 O 0.67768 0.42058 0.18593 0.0
Co1293 Co 0.68148 0.386 0.22735 0.0
O1294 O 0.68768 0.38465 0.19446 0.0
C1295 C 0.70791 0.42652 0.23863 0.0
C1296 C 0.64943 0.46777 0.22515 0.0
C1297 C 0.686 0.40111 0.18062 0.0
O1298 O 0.6937 0.43912 0.22793 0.0
O1299 O 0.70492 0.40539 0.2421 0.0
O1300 O 0.63333 0.42355 0.20254 0.0
O1301 O 0.65524 0.4052 0.22575 0.0
Co1302 Co 0.18495 0.41023 0.03911 0.0
O1303 O 0.20236 0.39449 0.01688 0.0
O1304 O 0.21655 0.40822 0.0487 0.0
C1305 C 0.15591 0.38527 0.0402 0.0
O1306 O 0.17054 0.42666 0.0659 0.0
Co1307 Co 0.138 0.42823 0.02264 0.0
O1308 O 0.13503 0.43597 0.05511 0.0
C1309 C 0.17906 0.45348 0.011 0.0
C1310 C 0.21964 0.39699 0.02999 0.0
C1311 C 0.15084 0.43525 0.06979 0.0
O1312 O 0.1909 0.44052 0.02393 0.0
O1313 O 0.15828 0.44982 0.00627 0.0
O1314 O 0.17423 0.38143 0.05165 0.0
O1315 O 0.15714 0.40221 0.02653 0.0
Co1316 Co 0.8411 0.93381 0.79062 0.0
O1317 O 0.85219 0.94946 0.76458 0.0
O1318 O 0.84295 0.96612 0.79686 0.0
C1319 C 0.86763 0.90618 0.79074 0.0
O1320 O 0.82978 0.92215 0.82112 0.0
Co1321 Co 0.82438 0.88397 0.78496 0.0
O1322 O 0.82801 0.88413 0.81826 0.0
C1323 C 0.79363 0.92192 0.77365 0.0
C1324 C 0.85094 0.9678 0.77642 0.0
C1325 C 0.82766 0.90229 0.82985 0.0
O1326 O 0.8086 0.93668 0.77952 0.0
O1327 O 0.79716 0.90057 0.77361 0.0
O1328 O 0.87202 0.92577 0.79954 0.0
O1329 O 0.84869 0.90498 0.77995 0.0
Co1330 Co 0.15984 0.56732 0.28763 0.0
O1331 O 0.14447 0.55009 0.26501 0.0
O1332 O 0.15784 0.53564 0.29687 0.0
C1333 C 0.13478 0.59625 0.28899 0.0
O1334 O 0.17594 0.58151 0.31472 0.0
Co1335 Co 0.17771 0.61455 0.27168 0.0
O1336 O 0.18568 0.61699 0.30414 0.0
C1337 C 0.20391 0.57385 0.26087 0.0
C1338 C 0.14682 0.5327 0.27801 0.0
C1339 C 0.18476 0.60109 0.31871 0.0
O1340 O 0.19041 0.5617 0.27293 0.0
O1341 O 0.20038 0.59468 0.25632 0.0
O1342 O 0.13086 0.57769 0.29997 0.0
O1343 O 0.15178 0.59528 0.27534 0.0
C1344 C 0.02402 0.31597 0.00881 0.0
C1345 C 0.00649 0.31514 0.02489 0.0
C1346 C 0.01927 0.31664 0.98554 0.0
C1347 C 0.99689 0.31583 0.97761 0.0
H1348 H 0.04134 0.31839 0.01428 0.0
H1349 H 0.03304 0.31948 0.97381 0.0
S1350 S 0.94522 0.31128 0.01276 0.0
N1351 N 0.96613 0.31209 0.03128 0.0
N1352 N 0.95722 0.31222 0.98755 0.0
C1353 C 0.97941 0.31292 0.99346 0.0
C1354 C 0.9842 0.31289 0.01714 0.0
C1355 C 0.9412 0.26699 0.23861 0.0
C1356 C 0.93809 0.24487 0.23056 0.0
C1357 C 0.94152 0.27154 0.26196 0.0
C1358 C 0.93794 0.2542 0.27788 0.0
H1359 H 0.94169 0.28102 0.22684 0.0
H1360 H 0.9422 0.289 0.26745 0.0
S1361 S 0.9305 0.19333 0.26534 0.0
N1362 N 0.93333 0.20529 0.24026 0.0
N1363 N 0.93278 0.214 0.284 0.0
C1364 C 0.93629 0.23189 0.27003 0.0
C1365 C 0.93664 0.22719 0.24636 0.0
C1366 C 0.01985 0.18651 0.51815 0.0
C1367 C 0.99736 0.18587 0.52576 0.0
C1368 C 0.02488 0.18647 0.49491 0.0
C1369 C 0.00758 0.18504 0.47862 0.0
H1370 H 0.03361 0.18538 0.53018 0.0
H1371 H 0.04242 0.1853 0.48975 0.0
S1372 S 0.94602 0.18419 0.48989 0.0
N1373 N 0.95768 0.18552 0.51523 0.0
N1374 N 0.96719 0.18431 0.47166 0.0
C1375 C 0.98506 0.18573 0.48601 0.0
C1376 C 0.97994 0.18645 0.5096 0.0
C1377 C 0.06215 0.26668 0.7664 0.0
C1378 C 0.06469 0.24456 0.77468 0.0
C1379 C 0.06213 0.27101 0.74302 0.0
C1380 C 0.06546 0.25345 0.72729 0.0
H1381 H 0.0619 0.28082 0.77803 0.0
H1382 H 0.0619 0.28844 0.73736 0.0
S1383 S 0.07137 0.19254 0.74043 0.0
N1384 N 0.0686 0.20479 0.76538 0.0
N1385 N 0.06973 0.21308 0.72157 0.0
C1386 C 0.06652 0.23118 0.73535 0.0
C1387 C 0.06585 0.2267 0.75905 0.0
C1388 C 0.98125 0.68751 0.00894 0.0
C1389 C 0.9987 0.68641 0.02509 0.0
C1390 C 0.98605 0.68699 0.98567 0.0
C1391 C 0.00847 0.68612 0.97786 0.0
H1392 H 0.96376 0.68642 0.01429 0.0
H1393 H 0.97217 0.68558 0.9738 0.0
S1394 S 0.06015 0.68546 0.01327 0.0
N1395 N 0.03915 0.68594 0.03169 0.0
N1396 N 0.04824 0.68615 0.98801 0.0
C1397 C 0.02604 0.68716 0.99383 0.0
C1398 C 0.02114 0.687 0.01748 0.0
C1399 C 0.57366 0.22985 0.23182 0.0
C1400 C 0.56828 0.25161 0.22395 0.0
C1401 C 0.57335 0.2248 0.25498 0.0
C1402 C 0.56799 0.24142 0.2711 0.0
H1403 H 0.57979 0.21713 0.22015 0.0
H1404 H 0.57928 0.20834 0.26043 0.0
S1405 S 0.55071 0.30035 0.25927 0.0
N1406 N 0.55538 0.28932 0.23403 0.0
N1407 N 0.55552 0.27988 0.27768 0.0
C1408 C 0.56099 0.26272 0.26345 0.0
C1409 C 0.56088 0.26778 0.23979 0.0
C1410 C 0.98555 0.81434 0.51682 0.0
C1411 C 0.00784 0.81588 0.52488 0.0
C1412 C 0.98097 0.81431 0.49349 0.0
C1413 C 0.9985 0.81659 0.47755 0.0
H1414 H 0.97152 0.81485 0.52859 0.0
H1415 H 0.96349 0.81481 0.488 0.0
S1416 S 0.05976 0.81968 0.49003 0.0
N1417 N 0.04766 0.81778 0.51514 0.0
N1418 N 0.03896 0.81888 0.47139 0.0
C1419 C 0.02088 0.81671 0.48538 0.0
C1420 C 0.02557 0.81605 0.50906 0.0
C1421 C 0.43799 0.23032 0.74545 0.0
C1422 C 0.43621 0.24781 0.7294 0.0
C1423 C 0.43812 0.23503 0.76875 0.0
C1424 C 0.43722 0.25741 0.77667 0.0
H1425 H 0.43703 0.21283 0.74006 0.0
H1426 H 0.43725 0.2211 0.7806 0.0
S1427 S 0.43474 0.30919 0.7415 0.0
N1428 N 0.43497 0.28827 0.72299 0.0
N1429 N 0.43635 0.2972 0.76668 0.0
C1430 C 0.43748 0.27504 0.76074 0.0
C1431 C 0.43668 0.27022 0.73709 0.0
C1432 C 0.98798 0.01719 0.3129 0.0
C1433 C 0.97978 0.99504 0.31536 0.0
C1434 C 0.01136 0.0216 0.31268 0.0
C1435 C 0.02719 0.00406 0.3157 0.0
H1436 H 0.9763 0.0313 0.31276 0.0
H1437 H 0.01698 0.03903 0.31245 0.0
S1438 S 0.01425 0.9431 0.32156 0.0
N1439 N 0.98924 0.95528 0.31908 0.0
N1440 N 0.03304 0.9637 0.31983 0.0
C1441 C 0.01919 0.98177 0.31682 0.0
C1442 C 0.99548 0.97723 0.31637 0.0
C1443 C 0.23168 0.25864 0.56173 0.0
C1444 C 0.24917 0.2745 0.56487 0.0
C1445 C 0.23615 0.23529 0.56192 0.0
C1446 C 0.25832 0.22714 0.56445 0.0
H1447 H 0.21422 0.26421 0.56152 0.0
H1448 H 0.22206 0.22357 0.56181 0.0
S1449 S 0.31017 0.26172 0.57074 0.0
N1450 N 0.28952 0.28046 0.569 0.0
N1451 N 0.29806 0.23669 0.56819 0.0
C1452 C 0.27609 0.24288 0.56543 0.0
C1453 C 0.27149 0.26656 0.56593 0.0
C1454 C 0.98779 0.5163 0.81232 0.0
C1455 C 0.97952 0.49418 0.81482 0.0
C1456 C 0.01117 0.52067 0.81241 0.0
C1457 C 0.02691 0.50312 0.8158 0.0
H1458 H 0.97614 0.53043 0.81196 0.0
H1459 H 0.01683 0.53809 0.81213 0.0
S1460 S 0.01381 0.4422 0.82172 0.0
N1461 N 0.98885 0.45442 0.81884 0.0
N1462 N 0.03265 0.46277 0.82017 0.0
C1463 C 0.01887 0.48085 0.8169 0.0
C1464 C 0.99517 0.47634 0.81612 0.0
C1465 C 0.77423 0.24509 0.06526 0.0
C1466 C 0.7567 0.22899 0.06538 0.0
C1467 C 0.76947 0.26836 0.06491 0.0
C1468 C 0.74707 0.27624 0.06399 0.0
H1469 H 0.79158 0.23974 0.0677 0.0
H1470 H 0.78325 0.28023 0.0671 0.0
S1471 S 0.69539 0.24089 0.0616 0.0
N1472 N 0.71632 0.22244 0.06303 0.0
N1473 N 0.70737 0.26612 0.06126 0.0
C1474 C 0.72957 0.26026 0.06199 0.0
C1475 C 0.73439 0.23661 0.06301 0.0
C1476 C 0.0082 0.97614 0.68366 0.0
C1477 C 0.02416 0.99349 0.68682 0.0
C1478 C 0.98497 0.9809 0.68267 0.0
C1479 C 0.97692 0.00308 0.68539 0.0
H1480 H 0.01382 0.95914 0.67972 0.0
H1481 H 0.9734 0.96747 0.67803 0.0
S1482 S 0.01171 0.05402 0.69643 0.0
N1483 N 0.03033 0.03331 0.6942 0.0
N1484 N 0.98658 0.0422 0.69336 0.0
C1485 C 0.99259 0.02019 0.69065 0.0
C1486 C 0.01628 0.01542 0.69107 0.0
C1487 C 0.23194 0.2438 0.94016 0.0
C1488 C 0.24907 0.22763 0.93665 0.0
C1489 C 0.23686 0.26707 0.94015 0.0
C1490 C 0.25916 0.2748 0.93741 0.0
H1491 H 0.21438 0.23857 0.94059 0.0
H1492 H 0.22302 0.27905 0.94062 0.0
S1493 S 0.31023 0.23927 0.93013 0.0
N1494 N 0.28924 0.22092 0.93193 0.0
N1495 N 0.29864 0.26452 0.93304 0.0
C1496 C 0.27659 0.25873 0.93598 0.0
C1497 C 0.27152 0.23514 0.93533 0.0
C1498 C 0.01466 0.51602 0.18981 0.0
C1499 C 0.02246 0.49382 0.18654 0.0
C1500 C 0.99136 0.52086 0.18995 0.0
C1501 C 0.97524 0.50376 0.18606 0.0
H1502 H 0.0266 0.52988 0.19058 0.0
H1503 H 0.98608 0.53838 0.19081 0.0
S1504 S 0.9871 0.44281 0.17811 0.0
N1505 N 0.01231 0.45442 0.18126 0.0
N1506 N 0.96868 0.46369 0.18041 0.0
C1507 C 0.98284 0.48138 0.18419 0.0
C1508 C 0.00645 0.47637 0.1847 0.0
C1509 C 0.76674 0.23624 0.43846 0.0
C1510 C 0.7445 0.22839 0.43571 0.0
C1511 C 0.77148 0.25955 0.43888 0.0
C1512 C 0.7542 0.27564 0.43579 0.0
H1513 H 0.78068 0.22435 0.43866 0.0
H1514 H 0.789 0.26491 0.43933 0.0
S1515 S 0.6931 0.26363 0.42938 0.0
N1516 N 0.7049 0.23843 0.43175 0.0
N1517 N 0.71396 0.28211 0.4314 0.0
C1518 C 0.7318 0.26797 0.43443 0.0
C1519 C 0.72692 0.24434 0.43467 0.0
C1520 C 0.31337 0.98639 0.01649 0.0
C1521 C 0.31659 0.97848 0.99433 0.0
C1522 C 0.31309 0.00971 0.02119 0.0
C1523 C 0.3168 0.02574 0.00398 0.0
H1524 H 0.31272 0.97453 0.03042 0.0
H1525 H 0.31225 0.0151 0.03868 0.0
S1526 S 0.32463 0.01358 0.94308 0.0
N1527 N 0.32167 0.98843 0.95485 0.0
N1528 N 0.32228 0.03211 0.96385 0.0
C1529 C 0.31863 0.01803 0.98163 0.0
C1530 C 0.31825 0.9944 0.97677 0.0
C1531 C 0.81422 0.01165 0.51975 0.0
C1532 C 0.81677 0.02739 0.50206 0.0
C1533 C 0.81447 0.98826 0.51547 0.0
C1534 C 0.81648 0.97995 0.49332 0.0
H1535 H 0.81434 0.01737 0.53716 0.0
H1536 H 0.81475 0.97667 0.52965 0.0
S1537 S 0.82113 0.01415 0.44105 0.0
N1538 N 0.81983 0.03305 0.46158 0.0
N1539 N 0.81912 0.9892 0.45343 0.0
C1540 C 0.81693 0.99555 0.4754 0.0
C1541 C 0.81737 0.01928 0.4798 0.0
C1542 C 0.25797 0.06482 0.72933 0.0
C1543 C 0.27394 0.06533 0.74698 0.0
C1544 C 0.23465 0.06525 0.73389 0.0
C1545 C 0.22657 0.06548 0.75622 0.0
H1546 H 0.26352 0.06643 0.71195 0.0
H1547 H 0.22295 0.06712 0.71991 0.0
S1548 S 0.26142 0.06456 0.80828 0.0
N1549 N 0.28008 0.06463 0.78749 0.0
N1550 N 0.23629 0.06427 0.79609 0.0
C1551 C 0.24235 0.06388 0.77393 0.0
C1552 C 0.26606 0.06412 0.7693 0.0
C1553 C 0.19105 0.49211 0.02205 0.0
C1554 C 0.18781 0.47601 0.0048 0.0
C1555 C 0.1911 0.5154 0.01722 0.0
C1556 C 0.18871 0.52321 0.99492 0.0
H1557 H 0.1912 0.48681 0.03959 0.0
H1558 H 0.19133 0.52733 0.03111 0.0
S1559 S 0.18222 0.48788 0.9436 0.0
N1560 N 0.18371 0.46946 0.96455 0.0
N1561 N 0.18496 0.51308 0.95533 0.0
C1562 C 0.18758 0.50721 0.97739 0.0
C1563 C 0.18685 0.48361 0.98236 0.0
C1564 C 0.26153 0.94143 0.27035 0.0
C1565 C 0.27821 0.93568 0.25432 0.0
C1566 C 0.23838 0.94068 0.2648 0.0
C1567 C 0.23132 0.93484 0.2429 0.0
H1568 H 0.26627 0.94445 0.28778 0.0
H1569 H 0.22599 0.94316 0.27805 0.0
S1570 S 0.26831 0.92104 0.19426 0.0
N1571 N 0.28605 0.92567 0.21534 0.0
N1572 N 0.24273 0.92522 0.20469 0.0
C1573 C 0.24789 0.93097 0.22633 0.0
C1574 C 0.27132 0.93118 0.23208 0.0
C1575 C 0.69065 0.99248 0.0248 0.0
C1576 C 0.68857 0.9764 0.00736 0.0
C1577 C 0.69032 0.01579 0.02008 0.0
C1578 C 0.68867 0.0237 0.99774 0.0
H1579 H 0.69016 0.98709 0.0423 0.0
H1580 H 0.68964 0.02763 0.03403 0.0
S1581 S 0.68534 0.98851 0.94604 0.0
N1582 N 0.68638 0.97 0.96694 0.0
N1583 N 0.68693 0.0137 0.95799 0.0
C1584 C 0.68874 0.00778 0.98011 0.0
C1585 C 0.6884 0.98412 0.98494 0.0
C1586 C 0.26847 0.4383 0.7365 0.0
C1587 C 0.27618 0.43655 0.75889 0.0
C1588 C 0.2452 0.43833 0.73157 0.0
C1589 C 0.229 0.43585 0.74884 0.0
H1590 H 0.28046 0.43798 0.72266 0.0
H1591 H 0.23997 0.43798 0.71401 0.0
S1592 S 0.24057 0.43198 0.81023 0.0
N1593 N 0.26585 0.43411 0.79853 0.0
N1594 N 0.22224 0.43302 0.78917 0.0
C1595 C 0.2365 0.43548 0.77133 0.0
C1596 C 0.26009 0.43611 0.77637 0.0
C1597 C 0.74262 0.06094 0.27228 0.0
C1598 C 0.72667 0.06401 0.25486 0.0
C1599 C 0.76597 0.06167 0.26779 0.0
C1600 C 0.77404 0.0647 0.24566 0.0
H1601 H 0.73709 0.06032 0.28973 0.0
H1602 H 0.77771 0.06152 0.28185 0.0
S1603 S 0.73926 0.07116 0.19396 0.0
N1604 N 0.72058 0.0687 0.21459 0.0
N1605 N 0.76436 0.06893 0.20601 0.0
C1606 C 0.75825 0.0657 0.22793 0.0
C1607 C 0.73456 0.06563 0.23256 0.0
C1608 C 0.93847 0.73626 0.76839 0.0
C1609 C 0.93599 0.75852 0.77631 0.0
C1610 C 0.93849 0.73154 0.74507 0.0
C1611 C 0.93529 0.74884 0.72903 0.0
H1612 H 0.93879 0.72232 0.78026 0.0
H1613 H 0.93879 0.71403 0.73969 0.0
S1614 S 0.92939 0.80996 0.74119 0.0
N1615 N 0.93208 0.79813 0.76635 0.0
N1616 N 0.93101 0.78911 0.72267 0.0
C1617 C 0.93414 0.77123 0.73674 0.0
C1618 C 0.93476 0.7761 0.76038 0.0
C1619 C 0.06478 0.73085 0.25832 0.0
C1620 C 0.06666 0.74836 0.27434 0.0
C1621 C 0.06518 0.73548 0.23501 0.0
C1622 C 0.06671 0.7578 0.22704 0.0
H1623 H 0.06532 0.71337 0.26379 0.0
H1624 H 0.06595 0.72149 0.22321 0.0
S1625 S 0.06964 0.80965 0.26205 0.0
N1626 N 0.06864 0.78881 0.28063 0.0
N1627 N 0.06822 0.79761 0.23689 0.0
C1628 C 0.06651 0.77549 0.24289 0.0
C1629 C 0.06679 0.77075 0.26656 0.0
C1630 C 0.56925 0.77638 0.74253 0.0
C1631 C 0.56548 0.75956 0.72616 0.0
C1632 C 0.5695 0.77114 0.76566 0.0
C1633 C 0.56554 0.74897 0.77325 0.0
H1634 H 0.57409 0.79328 0.73733 0.0
H1635 H 0.57449 0.78414 0.77757 0.0
S1636 S 0.55265 0.69934 0.73721 0.0
N1637 N 0.55625 0.72028 0.71906 0.0
N1638 N 0.55585 0.71049 0.76262 0.0
C1639 C 0.55976 0.73244 0.75713 0.0
C1640 C 0.56001 0.7377 0.73352 0.0
C1641 C 0.44178 0.73839 0.24241 0.0
C1642 C 0.43469 0.7535 0.22539 0.0
C1643 C 0.44159 0.74483 0.26536 0.0
C1644 C 0.43476 0.76666 0.27181 0.0
H1645 H 0.4453 0.72091 0.23822 0.0
H1646 H 0.44505 0.73219 0.27815 0.0
S1647 S 0.41769 0.81316 0.23351 0.0
N1648 N 0.42293 0.79172 0.21643 0.0
N1649 N 0.42299 0.80388 0.25931 0.0
C1650 C 0.42969 0.78239 0.25478 0.0
C1651 C 0.42961 0.7758 0.2316 0.0
C1652 C 0.27358 0.7429 0.062 0.0
C1653 C 0.25614 0.72681 0.06403 0.0
C1654 C 0.26885 0.7662 0.06228 0.0
C1655 C 0.24649 0.7741 0.06381 0.0
H1656 H 0.29109 0.73752 0.06254 0.0
H1657 H 0.28279 0.77805 0.06299 0.0
S1658 S 0.19479 0.73886 0.06698 0.0
N1659 N 0.21571 0.72037 0.06606 0.0
N1660 N 0.20673 0.76407 0.06541 0.0
C1661 C 0.22887 0.75816 0.06371 0.0
C1662 C 0.23371 0.7345 0.06412 0.0
C1663 C 0.77089 0.74316 0.56186 0.0
C1664 C 0.75365 0.72712 0.56539 0.0
C1665 C 0.76613 0.76647 0.56185 0.0
C1666 C 0.74389 0.77436 0.5646 0.0
H1667 H 0.78841 0.73781 0.56142 0.0
H1668 H 0.78005 0.77835 0.56142 0.0
S1669 S 0.69255 0.73918 0.57177 0.0
N1670 N 0.71342 0.72069 0.57003 0.0
N1671 N 0.70432 0.76434 0.56889 0.0
C1672 C 0.72634 0.7584 0.56599 0.0
C1673 C 0.73124 0.73478 0.56667 0.0
C1674 C 0.23251 0.7435 0.4388 0.0
C1675 C 0.24967 0.7273 0.43562 0.0
C1676 C 0.23748 0.76677 0.43894 0.0
C1677 C 0.25985 0.77447 0.43667 0.0
H1678 H 0.21494 0.73831 0.43891 0.0
H1679 H 0.22366 0.77878 0.43919 0.0
S1680 S 0.31097 0.73884 0.43035 0.0
N1681 N 0.28991 0.72053 0.43168 0.0
N1682 N 0.29938 0.7641 0.43306 0.0
C1683 C 0.27727 0.75836 0.43553 0.0
C1684 C 0.27216 0.73478 0.43473 0.0
C1685 C 0.72604 0.74977 0.92169 0.0
C1686 C 0.73987 0.73308 0.93142 0.0
C1687 C 0.73181 0.77269 0.92283 0.0
C1688 C 0.75169 0.77986 0.93372 0.0
H1689 H 0.71144 0.74492 0.91173 0.0
H1690 H 0.72147 0.78472 0.91367 0.0
S1691 S 0.79218 0.74289 0.96429 0.0
N1692 N 0.77303 0.72522 0.9542 0.0
N1693 N 0.78403 0.76847 0.9565 0.0
C1694 C 0.76461 0.76349 0.9453 0.0
C1695 C 0.7587 0.74 0.94404 0.0
C1696 C 0.31207 0.51465 0.48541 0.0
C1697 C 0.31469 0.52273 0.50759 0.0
C1698 C 0.31185 0.49131 0.48089 0.0
C1699 C 0.31502 0.47541 0.49833 0.0
H1700 H 0.31188 0.5264 0.47137 0.0
H1701 H 0.31154 0.48578 0.46343 0.0
S1702 S 0.32114 0.48802 0.55933 0.0
N1703 N 0.31859 0.51309 0.54728 0.0
N1704 N 0.31933 0.46934 0.53864 0.0
C1705 C 0.31622 0.48329 0.52066 0.0
C1706 C 0.31577 0.50696 0.52532 0.0
C1707 C 0.81457 0.48705 0.01692 0.0
C1708 C 0.81513 0.47925 0.99449 0.0
C1709 C 0.81427 0.51031 0.02176 0.0
C1710 C 0.81525 0.52648 0.00432 0.0
H1711 H 0.81609 0.47516 0.03077 0.0
H1712 H 0.81563 0.51563 0.03924 0.0
S1713 S 0.81538 0.51472 0.94287 0.0
N1714 N 0.81467 0.48945 0.95474 0.0
N1715 N 0.81527 0.53312 0.96389 0.0
C1716 C 0.81433 0.51889 0.98188 0.0
C1717 C 0.81396 0.49525 0.97696 0.0
C1718 C 0.25841 0.56356 0.22968 0.0
C1719 C 0.27438 0.56629 0.24713 0.0
C1720 C 0.23508 0.56365 0.23429 0.0
C1721 C 0.22708 0.5657 0.25656 0.0
H1722 H 0.26388 0.56365 0.2122 0.0
H1723 H 0.22328 0.5638 0.22029 0.0
S1724 S 0.262 0.57092 0.3083 0.0
N1725 N 0.28061 0.56962 0.28751 0.0
N1726 N 0.23688 0.56863 0.2963 0.0
C1727 C 0.24293 0.56635 0.27425 0.0
C1728 C 0.26659 0.56694 0.26951 0.0
C1729 C 0.1879 0.99316 0.52559 0.0
C1730 C 0.18881 0.97676 0.50839 0.0
C1731 C 0.18772 0.01634 0.52042 0.0
C1732 C 0.18908 0.02386 0.49793 0.0
H1733 H 0.18507 0.98805 0.54296 0.0
H1734 H 0.18479 0.02837 0.53392 0.0
S1735 S 0.19413 0.98768 0.44702 0.0
N1736 N 0.1926 0.96956 0.46823 0.0
N1737 N 0.19334 0.01312 0.45853 0.0
C1738 C 0.19209 0.00764 0.4808 0.0
C1739 C 0.19164 0.98405 0.48602 0.0
C1740 C 0.68835 0.51663 0.51805 0.0
C1741 C 0.6867 0.52456 0.49572 0.0
C1742 C 0.68838 0.49332 0.52276 0.0
C1743 C 0.68598 0.47729 0.50533 0.0
H1744 H 0.68794 0.52848 0.53201 0.0
H1745 H 0.68797 0.48793 0.54026 0.0
S1746 S 0.68253 0.48943 0.44403 0.0
N1747 N 0.68454 0.51459 0.45597 0.0
N1748 N 0.68343 0.4709 0.46492 0.0
C1749 C 0.68574 0.48499 0.48291 0.0
C1750 C 0.6864 0.50864 0.47809 0.0
C1751 C 0.74314 0.56395 0.77313 0.0
C1752 C 0.72701 0.56488 0.75565 0.0
C1753 C 0.76642 0.56438 0.76836 0.0
C1754 C 0.77428 0.56501 0.74595 0.0
H1755 H 0.73777 0.56521 0.7906 0.0
H1756 H 0.77827 0.56591 0.78224 0.0
S1757 S 0.73893 0.56528 0.69423 0.0
N1758 N 0.72047 0.56502 0.71519 0.0
N1759 N 0.76418 0.56465 0.70617 0.0
C1760 C 0.75832 0.56386 0.72837 0.0
C1761 C 0.73466 0.5641 0.73323 0.0
C1762 C 0.4841 0.31385 0.51646 0.0
C1763 C 0.50632 0.31564 0.52466 0.0
C1764 C 0.4797 0.31343 0.49309 0.0
C1765 C 0.49735 0.31555 0.47724 0.0
H1766 H 0.46998 0.31446 0.52811 0.0
H1767 H 0.46227 0.31382 0.48747 0.0
S1768 S 0.55848 0.31931 0.49015 0.0
N1769 N 0.5462 0.31767 0.51519 0.0
N1770 N 0.53783 0.31806 0.47137 0.0
C1771 C 0.51966 0.31593 0.48525 0.0
C1772 C 0.52417 0.31567 0.50897 0.0
C1773 C 0.52247 0.18935 0.99383 0.0
C1774 C 0.50537 0.18637 0.97753 0.0
C1775 C 0.51742 0.18912 0.01706 0.0
C1776 C 0.49504 0.18669 0.02463 0.0
H1777 H 0.54006 0.18953 0.98871 0.0
H1778 H 0.5312 0.1892 0.02913 0.0
S1779 S 0.44404 0.18081 0.98873 0.0
N1780 N 0.46517 0.18246 0.97053 0.0
N1781 N 0.45553 0.18318 0.01408 0.0
C1782 C 0.47766 0.18579 0.00845 0.0
C1783 C 0.48286 0.18535 0.98489 0.0
C1784 C 0.52253 0.68853 0.49199 0.0
C1785 C 0.50517 0.68669 0.47581 0.0
C1786 C 0.51771 0.68789 0.51525 0.0
C1787 C 0.49532 0.68615 0.523 0.0
H1788 H 0.54007 0.6881 0.48668 0.0
H1789 H 0.5316 0.68704 0.52716 0.0
S1790 S 0.44378 0.68337 0.48751 0.0
N1791 N 0.46478 0.68462 0.46912 0.0
N1792 N 0.4556 0.68459 0.51279 0.0
C1793 C 0.47776 0.68645 0.507 0.0
C1794 C 0.48271 0.68642 0.48337 0.0
C1795 C 0.51713 0.81207 0.98592 0.0
C1796 C 0.49498 0.81472 0.97773 0.0
C1797 C 0.52157 0.81191 0.00929 0.0
C1798 C 0.50409 0.8152 0.02512 0.0
H1799 H 0.53122 0.81183 0.97422 0.0
H1800 H 0.53902 0.81157 0.01488 0.0
S1801 S 0.44314 0.82145 0.01224 0.0
N1802 N 0.45527 0.81877 0.98723 0.0
N1803 N 0.46375 0.81963 0.03101 0.0
C1804 C 0.48178 0.81641 0.01714 0.0
C1805 C 0.4772 0.81589 0.99345 0.0
C1806 C 0.48872 0.01692 0.81349 0.0
C1807 C 0.48047 0.99483 0.81637 0.0
C1808 C 0.51211 0.0213 0.81348 0.0
C1809 C 0.52788 0.00383 0.81713 0.0
H1810 H 0.47706 0.03103 0.81293 0.0
H1811 H 0.51775 0.03873 0.81293 0.0
S1812 S 0.5148 0.94301 0.82405 0.0
N1813 N 0.48984 0.95516 0.82101 0.0
N1814 N 0.53364 0.96355 0.82213 0.0
C1815 C 0.51984 0.98157 0.81858 0.0
C1816 C 0.49614 0.97704 0.81792 0.0
C1817 C 0.51568 0.48591 0.31418 0.0
C1818 C 0.52398 0.50797 0.31711 0.0
C1819 C 0.49228 0.48163 0.31383 0.0
C1820 C 0.47653 0.49918 0.31719 0.0
H1821 H 0.52729 0.47176 0.31379 0.0
H1822 H 0.48658 0.46423 0.31326 0.0
S1823 S 0.48977 0.55997 0.32411 0.0
N1824 N 0.51472 0.5477 0.3215 0.0
N1825 N 0.47087 0.5395 0.32198 0.0
C1826 C 0.48464 0.52141 0.3187 0.0
C1827 C 0.50837 0.52583 0.3184 0.0
C1828 C 0.50646 0.9784 0.18814 0.0
C1829 C 0.52286 0.99563 0.18879 0.0
C1830 C 0.48326 0.98356 0.18784 0.0
C1831 C 0.47572 0.00608 0.18883 0.0
H1832 H 0.51158 0.96099 0.18561 0.0
H1833 H 0.47124 0.97002 0.18509 0.0
S1834 S 0.51188 0.05708 0.19302 0.0
N1835 N 0.53001 0.03585 0.19188 0.0
N1836 N 0.48644 0.04554 0.19241 0.0
C1837 C 0.49194 0.02325 0.19156 0.0
C1838 C 0.51554 0.01804 0.19122 0.0
C1839 C 0.51532 0.51654 0.68974 0.0
C1840 C 0.52352 0.49439 0.68725 0.0
C1841 C 0.49194 0.52097 0.68974 0.0
C1842 C 0.47613 0.50347 0.68643 0.0
H1843 H 0.52701 0.53063 0.69005 0.0
H1844 H 0.48634 0.53841 0.69001 0.0
S1845 S 0.48906 0.44251 0.68046 0.0
N1846 N 0.51406 0.45466 0.68326 0.0
N1847 N 0.47027 0.46313 0.68208 0.0
C1848 C 0.48412 0.48117 0.6853 0.0
C1849 C 0.50781 0.4766 0.686 0.0
C1850 C 0.7407 0.93969 0.74225 0.0
C1851 C 0.72374 0.92973 0.75574 0.0
C1852 C 0.7636 0.93922 0.74898 0.0
C1853 C 0.77003 0.92893 0.76943 0.0
H1854 H 0.73658 0.94595 0.72554 0.0
H1855 H 0.77641 0.94525 0.73737 0.0
S1856 S 0.73176 0.90388 0.81222 0.0
N1857 N 0.71476 0.91203 0.79164 0.0
N1858 N 0.75749 0.91108 0.80414 0.0
C1859 C 0.75299 0.92089 0.78386 0.0
C1860 C 0.7299 0.92136 0.77708 0.0
C1861 C 0.76186 0.43968 0.26984 0.0
C1862 C 0.77816 0.43502 0.25311 0.0
C1863 C 0.7386 0.43924 0.26478 0.0
C1864 C 0.73105 0.43485 0.24269 0.0
H1865 H 0.76697 0.4414 0.28735 0.0
H1866 H 0.72651 0.44065 0.27846 0.0
S1867 S 0.76694 0.42427 0.19247 0.0
N1868 N 0.78514 0.42762 0.21339 0.0
N1869 N 0.74161 0.4278 0.20369 0.0
C1870 C 0.74724 0.43226 0.22552 0.0
C1871 C 0.77079 0.43211 0.23076 0.0
C1872 C 0.00648 0.24615 0.1033 0.0
C1873 C 0.02128 0.26035 0.11524 0.0
C1874 C 0.99172 0.23153 0.11481 0.0
C1875 C 0.99131 0.23067 0.13859 0.0
H1876 H 0.00456 0.2481 0.08519 0.0
H1877 H 0.97894 0.22264 0.10515 0.0
S1878 S 0.02848 0.26265 0.1774 0.0
N1879 N 0.03619 0.27109 0.15191 0.0
N1880 N 0.00841 0.2436 0.17349 0.0
C1881 C 0.00751 0.24314 0.15055 0.0
C1882 C 0.02253 0.25803 0.13885 0.0
C1883 C 0.99213 0.26798 0.39184 0.0
C1884 C 0.99193 0.27017 0.36815 0.0
C1885 C 0.00724 0.25323 0.40268 0.0
C1886 C 0.02257 0.24015 0.39016 0.0
H1887 H 0.97907 0.27602 0.40186 0.0
H1888 H 0.00525 0.25028 0.42066 0.0
S1889 S 0.03035 0.24145 0.32804 0.0
N1890 N 0.00971 0.25969 0.33276 0.0
N1891 N 0.03806 0.23182 0.35311 0.0
C1892 C 0.02392 0.24375 0.36671 0.0
C1893 C 0.00858 0.25884 0.35568 0.0
C1894 C 0.99601 0.25602 0.60289 0.0
C1895 C 0.98186 0.24157 0.61531 0.0
C1896 C 0.01107 0.27071 0.61392 0.0
C1897 C 0.01236 0.27143 0.63767 0.0
H1898 H 0.99721 0.25422 0.5847 0.0
H1899 H 0.02338 0.27979 0.60384 0.0
S1900 S 0.97708 0.23881 0.67768 0.0
N1901 N 0.96851 0.23043 0.65245 0.0
N1902 N 0.99675 0.25812 0.67312 0.0
C1903 C 0.99676 0.25872 0.65017 0.0
C1904 C 0.9815 0.24373 0.63896 0.0
C1905 C 0.98104 0.25969 0.86446 0.0
C1906 C 0.98066 0.26132 0.88819 0.0
C1907 C 0.99583 0.24472 0.85342 0.0
C1908 C 0.01069 0.23099 0.86582 0.0
H1909 H 0.97162 0.27172 0.85434 0.0
H1910 H 0.99736 0.24572 0.83519 0.0
S1911 S 0.01444 0.22716 0.92821 0.0
N1912 N 0.99475 0.24645 0.92366 0.0
N1913 N 0.02258 0.21834 0.90298 0.0
C1914 C 0.00888 0.23093 0.88951 0.0
C1915 C 0.99381 0.24612 0.90071 0.0
C1916 C 0.02164 0.74054 0.86353 0.0
C1917 C 0.02342 0.7399 0.88725 0.0
C1918 C 0.00686 0.75566 0.85273 0.0
C1919 C 0.99338 0.77056 0.86535 0.0
H1920 H 0.02998 0.72775 0.85341 0.0
H1921 H 0.00422 0.75399 0.83468 0.0
S1922 S 0.99352 0.77712 0.92762 0.0
N1923 N 0.01211 0.75683 0.9228 0.0
N1924 N 0.98424 0.78522 0.90255 0.0
C1925 C 0.99659 0.77151 0.88887 0.0
C1926 C 0.01168 0.75616 0.89985 0.0
C1927 C 0.50999 0.27132 0.1129 0.0
C1928 C 0.5116 0.27189 0.13664 0.0
C1929 C 0.49477 0.25672 0.10199 0.0
C1930 C 0.48079 0.24222 0.11451 0.0
H1931 H 0.52219 0.28042 0.10271 0.0
H1932 H 0.49578 0.25498 0.08378 0.0
S1933 S 0.47672 0.2392 0.17692 0.0
N1934 N 0.49638 0.25849 0.17222 0.0
N1935 N 0.46782 0.23096 0.15176 0.0
C1936 C 0.48069 0.24429 0.13818 0.0
C1937 C 0.49611 0.2592 0.14927 0.0
C1938 C 0.98271 0.76176 0.36362 0.0
C1939 C 0.98212 0.76266 0.3874 0.0
C1940 C 0.99743 0.74699 0.35225 0.0
C1941 C 0.01202 0.73271 0.36434 0.0
H1942 H 0.97348 0.77417 0.3538 0.0
H1943 H 0.9991 0.7485 0.33407 0.0
S1944 S 0.01523 0.72694 0.42661 0.0
N1945 N 0.99579 0.74658 0.4225 0.0
N1946 N 0.02348 0.71881 0.40119 0.0
C1947 C 0.01003 0.73196 0.388 0.0
C1948 C 0.99503 0.74696 0.39955 0.0
C1949 C 0.51982 0.26052 0.63963 0.0
C1950 C 0.52009 0.26156 0.61586 0.0
C1951 C 0.50514 0.24577 0.65111 0.0
C1952 C 0.4903 0.23165 0.63913 0.0
H1953 H 0.52925 0.27281 0.6494 0.0
H1954 H 0.50369 0.2472 0.66931 0.0
S1955 S 0.48625 0.22629 0.57687 0.0
N1956 N 0.50587 0.24578 0.58084 0.0
N1957 N 0.47829 0.21805 0.60235 0.0
C1958 C 0.49199 0.23103 0.61544 0.0
C1959 C 0.50693 0.24601 0.60378 0.0
C1960 C 0.14153 0.0196 0.2611 0.0
C1961 C 0.11776 0.02081 0.2614 0.0
C1962 C 0.15292 0.00512 0.24612 0.0
C1963 C 0.14087 0.99137 0.23099 0.0
H1964 H 0.15126 0.02818 0.27404 0.0
H1965 H 0.171 0.00292 0.24805 0.0
S1966 S 0.07869 0.98999 0.22354 0.0
N1967 N 0.08275 0.00864 0.24394 0.0
N1968 N 0.10411 0.98135 0.21579 0.0
C1969 C 0.11728 0.994 0.22973 0.0
C1970 C 0.1057 0.00877 0.24495 0.0
C1971 C 0.23175 0.3878 0.51022 0.0
C1972 C 0.23095 0.36405 0.51145 0.0
C1973 C 0.24636 0.39881 0.49507 0.0
C1974 C 0.26065 0.38637 0.48078 0.0
H1975 H 0.22282 0.39788 0.52264 0.0
H1976 H 0.24827 0.41698 0.49635 0.0
S1977 S 0.26307 0.324 0.47576 0.0
N1978 N 0.24394 0.32859 0.4956 0.0
N1979 N 0.2715 0.34923 0.4672 0.0
C1980 C 0.25837 0.36273 0.48035 0.0
C1981 C 0.24345 0.35155 0.4957 0.0
C1982 C 0.85335 0.49562 0.74383 0.0
C1983 C 0.86524 0.51093 0.73014 0.0
C1984 C 0.86493 0.48077 0.75833 0.0
C1985 C 0.8887 0.48081 0.75956 0.0
H1986 H 0.83512 0.49679 0.74515 0.0
H1987 H 0.85519 0.47097 0.77036 0.0
S1988 S 0.92748 0.5159 0.72529 0.0
N1989 N 0.90195 0.5237 0.71704 0.0
N1990 N 0.92363 0.49583 0.74433 0.0
C1991 C 0.9007 0.49446 0.74438 0.0
C1992 C 0.88895 0.50955 0.72964 0.0
C1993 C 0.77221 0.11416 0.01215 0.0
C1994 C 0.77274 0.13794 0.01289 0.0
C1995 C 0.75747 0.10266 0.9975 0.0
C1996 C 0.74281 0.11462 0.98317 0.0
H1997 H 0.78147 0.10445 0.02463 0.0
H1998 H 0.75582 0.08449 0.99917 0.0
S1999 S 0.73949 0.17684 0.97696 0.0
N2000 N 0.75898 0.17291 0.99658 0.0
N2001 N 0.73127 0.15134 0.96903 0.0
C2002 C 0.74478 0.13827 0.98223 0.0
C2003 C 0.75979 0.14996 0.99712 0.0
C2004 C 0.14837 0.99577 0.76001 0.0
C2005 C 0.13593 0.01151 0.7727 0.0
C2006 C 0.13739 0.98056 0.7454 0.0
C2007 C 0.1137 0.98062 0.74313 0.0
H2008 H 0.16665 0.99687 0.75947 0.0
H2009 H 0.14761 0.97043 0.73407 0.0
S2010 S 0.07355 0.01673 0.77464 0.0
N2011 N 0.09871 0.02471 0.78378 0.0
N2012 N 0.07818 0.99612 0.75637 0.0
C2013 C 0.10108 0.9947 0.75738 0.0
C2014 C 0.11221 0.01019 0.77218 0.0
C2015 C 0.24198 0.36274 0.02177 0.0
C2016 C 0.2412 0.38647 0.0233 0.0
C2017 C 0.25714 0.35187 0.00708 0.0
C2018 C 0.27194 0.36443 0.99342 0.0
H2019 H 0.22925 0.35263 0.03023 0.0
H2020 H 0.25556 0.33379 0.00462 0.0
S2021 S 0.27815 0.42673 0.99292 0.0
N2022 N 0.25792 0.42199 0.01159 0.0
N2023 N 0.28637 0.40161 0.98387 0.0
C2024 C 0.27276 0.38798 0.99639 0.0
C2025 C 0.25738 0.39903 0.01141 0.0
C2026 C 0.89975 0.50859 0.25582 0.0
C2027 C 0.88692 0.52214 0.24118 0.0
C2028 C 0.88916 0.49345 0.27076 0.0
C2029 C 0.86545 0.49155 0.27159 0.0
H2030 H 0.91797 0.50786 0.254 0.0
H2031 H 0.89959 0.48158 0.28002 0.0
S2032 S 0.82441 0.52524 0.23856 0.0
N2033 N 0.84939 0.53432 0.22994 0.0
N2034 N 0.82955 0.50601 0.25817 0.0
C2035 C 0.8525 0.5066 0.25867 0.0
C2036 C 0.86326 0.52189 0.24339 0.0
C2037 C 0.74652 0.10396 0.50727 0.0
C2038 C 0.76176 0.1165 0.52044 0.0
C2039 C 0.73127 0.11486 0.49267 0.0
C2040 C 0.73079 0.13858 0.49089 0.0
H2041 H 0.7481 0.08573 0.50633 0.0
H2042 H 0.72157 0.10464 0.48096 0.0
S2043 S 0.76532 0.17892 0.52391 0.0
N2044 N 0.77382 0.15376 0.5326 0.0
N2045 N 0.74512 0.17418 0.5052 0.0
C2046 C 0.74428 0.15124 0.50568 0.0
C2047 C 0.75983 0.14017 0.52047 0.0
C2048 C 0.2325 0.11369 0.99057 0.0
C2049 C 0.23127 0.13745 0.99031 0.0
C2050 C 0.24709 0.10231 0.00545 0.0
C2051 C 0.26093 0.11438 0.02047 0.0
H2052 H 0.22385 0.10396 0.97768 0.0
H2053 H 0.2493 0.08423 0.00349 0.0
S2054 S 0.26227 0.17653 0.028 0.0
N2055 N 0.24348 0.17246 0.00772 0.0
N2056 N 0.27101 0.15112 0.03566 0.0
C2057 C 0.25828 0.13795 0.0218 0.0
C2058 C 0.24338 0.14952 0.00669 0.0
C2059 C 0.73282 0.89 0.51002 0.0
C2060 C 0.73187 0.86624 0.51071 0.0
C2061 C 0.74756 0.90129 0.49519 0.0
C2062 C 0.76182 0.88913 0.48063 0.0
H2063 H 0.72379 0.89986 0.52255 0.0
H2064 H 0.74948 0.91943 0.49681 0.0
S2065 S 0.76417 0.82685 0.47443 0.0
N2066 N 0.74495 0.83107 0.49427 0.0
N2067 N 0.77269 0.85222 0.46642 0.0
C2068 C 0.75954 0.86549 0.47977 0.0
C2069 C 0.74452 0.85403 0.49483 0.0
C2070 C 0.35331 0.99664 0.74624 0.0
C2071 C 0.36511 0.01155 0.73205 0.0
C2072 C 0.36498 0.98207 0.76095 0.0
C2073 C 0.38877 0.98199 0.76188 0.0
H2074 H 0.3351 0.99792 0.74773 0.0
H2075 H 0.35534 0.97256 0.77328 0.0
S2076 S 0.42732 0.01614 0.72642 0.0
N2077 N 0.40173 0.02388 0.71829 0.0
N2078 N 0.4236 0.99651 0.74595 0.0
C2079 C 0.40066 0.99526 0.74629 0.0
C2080 C 0.38881 0.01008 0.73134 0.0
C2081 C 0.24489 0.63745 0.97998 0.0
C2082 C 0.24389 0.61368 0.97971 0.0
C2083 C 0.25953 0.64894 0.99473 0.0
C2084 C 0.27356 0.63696 0.00965 0.0
H2085 H 0.2326 0.64721 0.97052 0.0
H2086 H 0.25804 0.66714 0.99621 0.0
S2087 S 0.27915 0.57472 0.01359 0.0
N2088 N 0.25972 0.57867 0.99389 0.0
N2089 N 0.28726 0.60021 0.02164 0.0
C2090 C 0.27431 0.61328 0.0079 0.0
C2091 C 0.25943 0.60161 0.99288 0.0
C2092 C 0.75837 0.89723 0.01489 0.0
C2093 C 0.74157 0.88514 0.02647 0.0
C2094 C 0.77381 0.886 1.00072 0.0
C2095 C 0.77295 0.86237 0.9978 0.0
H2096 H 0.75803 0.91554 0.0148 0.0
H2097 H 0.78485 0.89608 0.99014 0.0
S2098 S 0.73393 0.82297 0.02666 0.0
N2099 N 0.72647 0.84821 0.03601 0.0
N2100 N 0.75554 0.82719 0.00947 0.0
C2101 C 0.75777 0.84999 0.01109 0.0
C2102 C 0.74201 0.86139 0.02541 0.0
C2103 C 0.38947 0.49392 0.77145 0.0
C2104 C 0.36575 0.49222 0.77236 0.0
C2105 C 0.40015 0.50862 0.75615 0.0
C2106 C 0.3874 0.52196 0.74123 0.0
H2107 H 0.39982 0.48216 0.78095 0.0
H2108 H 0.41836 0.50769 0.7543 0.0
S2109 S 0.32492 0.52546 0.73862 0.0
N2110 N 0.32994 0.50664 0.75865 0.0
N2111 N 0.34995 0.53417 0.72978 0.0
C2112 C 0.36375 0.52194 0.74349 0.0
C2113 C 0.3529 0.50707 0.75912 0.0
C2114 C 0.6017 0.99315 0.25829 0.0
C2115 C 0.6135 0.97909 0.24325 0.0
C2116 C 0.61337 0.00776 0.27294 0.0
C2117 C 0.63716 0.00873 0.27301 0.0
H2118 H 0.58349 0.99467 0.257 0.0
H2119 H 0.60372 0.02005 0.28251 0.0
S2120 S 0.67571 0.97346 0.23867 0.0
N2121 N 0.65013 0.96538 0.23087 0.0
N2122 N 0.67199 0.99286 0.25843 0.0
C2123 C 0.64906 0.99319 0.25968 0.0
C2124 C 0.63721 0.97834 0.24476 0.0
C2125 C 0.00587 0.74704 0.60374 0.0
C2126 C 0.02079 0.76109 0.6157 0.0
C2127 C 0.99084 0.73269 0.61522 0.0
C2128 C 0.99028 0.73192 0.63899 0.0
H2129 H 0.0041 0.74892 0.5856 0.0
H2130 H 0.97804 0.72388 0.60551 0.0
S2131 S 0.02759 0.76361 0.6779 0.0
N2132 N 0.03557 0.77183 0.65242 0.0
N2133 N 0.00731 0.7448 0.67395 0.0
C2134 C 0.00655 0.74425 0.65101 0.0
C2135 C 0.02184 0.75888 0.63934 0.0
C2136 C 0.99754 0.75756 0.14944 0.0
C2137 C 0.01183 0.77184 0.13699 0.0
C2138 C 0.98293 0.74239 0.13844 0.0
C2139 C 0.98214 0.74111 0.11469 0.0
H2140 H 0.99942 0.75633 0.16762 0.0
H2141 H 0.97397 0.73001 0.14854 0.0
S2142 S 0.01437 0.77666 0.07461 0.0
N2143 N 0.02275 0.7853 0.09982 0.0
N2144 N 0.99523 0.75684 0.07921 0.0
C2145 C 0.9947 0.7568 0.10217 0.0
C2146 C 0.0096 0.77219 0.11334 0.0
C2147 C 0.48184 0.74009 0.63753 0.0
C2148 C 0.48022 0.73938 0.61381 0.0
C2149 C 0.49648 0.75531 0.64837 0.0
C2150 C 0.50995 0.77025 0.63578 0.0
H2151 H 0.47351 0.72727 0.64763 0.0
H2152 H 0.49902 0.75371 0.66644 0.0
S2153 S 0.51014 0.77666 0.57351 0.0
N2154 N 0.49164 0.75627 0.57828 0.0
N2155 N 0.51923 0.78487 0.59861 0.0
C2156 C 0.50688 0.77112 0.61225 0.0
C2157 C 0.49195 0.75566 0.60123 0.0
C2158 C 0.49223 0.73163 0.11475 0.0
C2159 C 0.49118 0.7314 0.13852 0.0
C2160 C 0.50699 0.74625 0.10325 0.0
C2161 C 0.52111 0.76109 0.11522 0.0
H2162 H 0.47991 0.72222 0.10499 0.0
H2163 H 0.50553 0.7477 0.08505 0.0
S2164 S 0.52659 0.76513 0.17747 0.0
N2165 N 0.50706 0.74555 0.17353 0.0
N2166 N 0.53481 0.77308 0.15197 0.0
C2167 C 0.52179 0.75939 0.13891 0.0
C2168 C 0.5068 0.74448 0.15059 0.0
C2169 C 0.13981 0.51958 0.7596 0.0
C2170 C 0.11607 0.5196 0.76137 0.0
C2171 C 0.15101 0.50471 0.74484 0.0
C2172 C 0.13878 0.48937 0.73148 0.0
H2173 H 0.14983 0.5294 0.77139 0.0
H2174 H 0.16927 0.50351 0.74573 0.0
S2175 S 0.07643 0.4845 0.72811 0.0
N2176 N 0.08076 0.50462 0.747 0.0
N2177 N 0.10175 0.47662 0.7193 0.0
C2178 C 0.11506 0.49078 0.73155 0.0
C2179 C 0.10369 0.50594 0.74651 0.0
C2180 C 0.23241 0.88865 0.00862 0.0
C2181 C 0.23185 0.86489 0.00968 0.0
C2182 C 0.24719 0.89994 0.99385 0.0
C2183 C 0.26187 0.88778 0.97972 0.0
H2184 H 0.22313 0.89854 0.02094 0.0
H2185 H 0.24887 0.91813 0.99529 0.0
S2186 S 0.26509 0.82548 0.9743 0.0
N2187 N 0.24557 0.8297 0.99383 0.0
N2188 N 0.27338 0.85086 0.96607 0.0
C2189 C 0.25987 0.86412 0.97907 0.0
C2190 C 0.24481 0.85265 0.99408 0.0
C2191 C 0.90117 0.99623 0.24565 0.0
C2192 C 0.88924 0.98139 0.25982 0.0
C2193 C 0.88963 0.01115 0.23122 0.0
C2194 C 0.86585 0.01167 0.23051 0.0
H2195 H 0.9193 0.99806 0.24752 0.0
H2196 H 0.8993 0.02396 0.22237 0.0
S2197 S 0.82706 0.97443 0.26242 0.0
N2198 N 0.85257 0.96655 0.27064 0.0
N2199 N 0.83094 0.99462 0.2435 0.0
C2200 C 0.85389 0.99542 0.24291 0.0
C2201 C 0.86561 0.98024 0.2576 0.0
C2202 C 0.77097 0.614 0.51017 0.0
C2203 C 0.7717 0.63777 0.51108 0.0
C2204 C 0.75625 0.60272 0.49532 0.0
C2205 C 0.74179 0.61489 0.48097 0.0
H2206 H 0.78007 0.60412 0.52262 0.0
H2207 H 0.75444 0.58456 0.49685 0.0
S2208 S 0.73903 0.67719 0.47518 0.0
N2209 N 0.75836 0.67296 0.49491 0.0
N2210 N 0.73065 0.65182 0.46702 0.0
C2211 C 0.74396 0.63854 0.48022 0.0
C2212 C 0.75897 0.65001 0.4953 0.0
C2213 C 0.1011 0.49566 0.25552 0.0
C2214 C 0.11331 0.48105 0.24137 0.0
C2215 C 0.11234 0.51057 0.2702 0.0
C2216 C 0.1361 0.51128 0.2712 0.0
H2217 H 0.08296 0.4973 0.25351 0.0
H2218 H 0.10245 0.52318 0.27909 0.0
S2219 S 0.17559 0.47474 0.23934 0.0
N2220 N 0.15025 0.4667 0.23076 0.0
N2221 N 0.17131 0.4947 0.25841 0.0
C2222 C 0.14836 0.49529 0.25875 0.0
C2223 C 0.13694 0.48015 0.24378 0.0
C2224 C 0.24315 0.86232 0.52255 0.0
C2225 C 0.24257 0.88607 0.52397 0.0
C2226 C 0.25807 0.85127 0.50776 0.0
C2227 C 0.27284 0.86365 0.49393 0.0
H2228 H 0.23042 0.85236 0.53118 0.0
H2229 H 0.25632 0.83319 0.5054 0.0
S2230 S 0.27952 0.92591 0.49304 0.0
N2231 N 0.25943 0.92141 0.51192 0.0
N2232 N 0.28748 0.90067 0.48407 0.0
C2233 C 0.27389 0.88721 0.49678 0.0
C2234 C 0.25873 0.89845 0.51187 0.0
C2235 C 0.84857 0.99787 0.74773 0.0
C2236 C 0.85966 0.98895 0.76668 0.0
C2237 C 0.85996 0.012 0.73254 0.0
C2238 C 0.88287 0.01757 0.73569 0.0
H2239 H 0.83162 0.9923 0.74355 0.0
H2240 H 0.85133 0.017 0.71716 0.0
S2241 S 0.9189 1.0001 0.78372 0.0
N2242 N 0.8942 0.98805 0.78885 0.0
N2243 N 0.9157 0.01465 0.76008 0.0
C2244 C 0.8936 0.01037 0.75555 0.0
C2245 C 0.88194 0.99597 0.77112 0.0
C2246 C 0.74596 0.60744 0.00746 0.0
C2247 C 0.76294 0.61918 0.01918 0.0
C2248 C 0.73116 0.61892 0.99279 0.0
C2249 C 0.7329 0.64244 0.98949 0.0
H2250 H 0.74563 0.58913 0.00779 0.0
H2251 H 0.71988 0.60906 0.98224 0.0
S2252 S 0.77292 0.68101 0.01815 0.0
N2253 N 0.77925 0.65573 0.0282 0.0
N2254 N 0.7515 0.67718 1.00064 0.0
C2255 C 0.74841 0.65451 0.00269 0.0
C2256 C 0.76344 0.64288 0.01756 0.0
C2257 C 0.23194 0.61364 0.4904 0.0
C2258 C 0.23142 0.63741 0.48971 0.0
C2259 C 0.24623 0.6021 0.50545 0.0
C2260 C 0.26047 0.61401 0.52023 0.0
H2261 H 0.22299 0.60395 0.47768 0.0
H2262 H 0.24792 0.58393 0.50379 0.0
S2263 S 0.26366 0.67622 0.52664 0.0
N2264 N 0.24472 0.67235 0.50647 0.0
N2265 N 0.27164 0.65071 0.53475 0.0
C2266 C 0.2585 0.63767 0.52115 0.0
C2267 C 0.24393 0.6494 0.50586 0.0
C2268 C 0.74576 0.40083 0.99201 0.0
C2269 C 0.76087 0.38876 0.97826 0.0
C2270 C 0.73097 0.38944 0.00669 0.0
C2271 C 0.73085 0.36568 0.00802 0.0
H2272 H 0.74711 0.41906 0.99327 0.0
H2273 H 0.72136 0.3993 0.01878 0.0
S2274 S 0.76523 0.32647 0.97354 0.0
N2275 N 0.77319 0.3519 0.96514 0.0
N2276 N 0.74537 0.33056 0.99275 0.0
C2277 C 0.74421 0.35349 0.99274 0.0
C2278 C 0.75927 0.36506 0.97782 0.0
C2279 C 0.38774 0.51022 0.2323 0.0
C2280 C 0.36398 0.51169 0.23199 0.0
C2281 C 0.39894 0.49559 0.2473 0.0
C2282 C 0.38669 0.48205 0.26246 0.0
H2283 H 0.39773 0.52212 0.2226 0.0
H2284 H 0.41718 0.4967 0.24871 0.0
S2285 S 0.32433 0.47794 0.2666 0.0
N2286 N 0.32867 0.49689 0.24655 0.0
N2287 N 0.34966 0.46943 0.27477 0.0
C2288 C 0.36299 0.48185 0.26079 0.0
C2289 C 0.35162 0.49669 0.2455 0.0
C2290 C 0.25866 0.10095 0.49533 0.0
C2291 C 0.24425 0.11309 0.4809 0.0
C2292 C 0.27334 0.11226 0.51019 0.0
C2293 C 0.27407 0.13603 0.51102 0.0
H2294 H 0.2568 0.08279 0.49693 0.0
H2295 H 0.28235 0.10242 0.52274 0.0
S2296 S 0.24165 0.17536 0.4748 0.0
N2297 N 0.23325 0.14997 0.46672 0.0
N2298 N 0.26088 0.17118 0.49463 0.0
C2299 C 0.26144 0.14822 0.49512 0.0
C2300 C 0.24648 0.13673 0.48004 0.0
C2301 C 0.75553 0.3522 0.50571 0.0
C2302 C 0.77015 0.36448 0.49162 0.0
C2303 C 0.74062 0.36337 0.52043 0.0
C2304 C 0.73992 0.38713 0.52154 0.0
H2305 H 0.7539 0.33407 0.50361 0.0
H2306 H 0.728 0.35345 0.52927 0.0
S2307 S 0.77647 0.42675 0.48987 0.0
N2308 N 0.78451 0.40145 0.48117 0.0
N2309 N 0.75651 0.42239 0.50892 0.0
C2310 C 0.75592 0.39944 0.50915 0.0
C2311 C 0.77105 0.38808 0.49413 0.0
C2312 C 0.36111 0.02323 0.24247 0.0
C2313 C 0.38483 0.02526 0.24254 0.0
C2314 C 0.34991 0.00939 0.25816 0.0
C2315 C 0.36212 0.99703 0.27432 0.0
H2316 H 0.35137 0.03058 0.2288 0.0
H2317 H 0.33198 0.00633 0.25595 0.0
S2318 S 0.42411 0.99859 0.2832 0.0
N2319 N 0.41984 0.01571 0.26154 0.0
N2320 N 0.39886 0.98949 0.29095 0.0
C2321 C 0.38556 1.0007 0.27595 0.0
C2322 C 0.39694 0.01489 0.26004 0.0
C2323 C 0.63799 0.48073 0.74369 0.0
C2324 C 0.61422 0.48029 0.74252 0.0
C2325 C 0.6493 0.49547 0.75851 0.0
C2326 C 0.63715 0.51025 0.77255 0.0
H2327 H 0.64789 0.47136 0.73145 0.0
H2328 H 0.6675 0.49703 0.75716 0.0
S2329 S 0.57483 0.51386 0.77762 0.0
N2330 N 0.57902 0.49426 0.75815 0.0
N2331 N 0.60022 0.52201 0.78596 0.0
C2332 C 0.61346 0.50839 0.77305 0.0
C2333 C 0.60198 0.49336 0.75802 0.0
C2334 C 0.50727 0.25658 0.8537 0.0
C2335 C 0.49335 0.27118 0.86618 0.0
C2336 C 0.5221 0.24161 0.86464 0.0
C2337 C 0.52352 0.24083 0.88839 0.0
H2338 H 0.50496 0.25501 0.83559 0.0
H2339 H 0.5308 0.22901 0.85457 0.0
S2340 S 0.49239 0.27732 0.9285 0.0
N2341 N 0.48338 0.28544 0.90333 0.0
N2342 N 0.51136 0.25735 0.92385 0.0
C2343 C 0.51131 0.25682 0.90089 0.0
C2344 C 0.49615 0.272 0.88976 0.0
C2345 C 0.50782 0.23078 0.38463 0.0
C2346 C 0.51122 0.23263 0.36113 0.0
C2347 C 0.49337 0.24576 0.39616 0.0
C2348 C 0.48199 0.26301 0.38448 0.0
H2349 H 0.51815 0.21926 0.39444 0.0
H2350 H 0.49296 0.2453 0.41447 0.0
S2351 S 0.48338 0.27337 0.32273 0.0
N2352 N 0.5005 0.25162 0.32648 0.0
N2353 N 0.47337 0.27971 0.34802 0.0
C2354 C 0.48369 0.26364 0.3608 0.0
C2355 C 0.49832 0.24844 0.34912 0.0
C2356 C 0.50575 0.75579 0.35058 0.0
C2357 C 0.49269 0.77138 0.36277 0.0
C2358 C 0.52034 0.7408 0.36178 0.0
C2359 C 0.52228 0.7409 0.38549 0.0
H2360 H 0.50304 0.75366 0.33259 0.0
H2361 H 0.52845 0.72758 0.35201 0.0
S2362 S 0.49319 0.77985 0.42482 0.0
N2363 N 0.48395 0.78735 0.39954 0.0
N2364 N 0.51139 0.75908 0.42056 0.0
C2365 C 0.51085 0.75771 0.39764 0.0
C2366 C 0.49598 0.77299 0.38625 0.0
C2367 C 0.49547 0.74619 0.85022 0.0
C2368 C 0.50966 0.7313 0.86205 0.0
C2369 C 0.48106 0.76106 0.86184 0.0
C2370 C 0.48039 0.76146 0.88563 0.0
H2371 H 0.4973 0.74809 0.83209 0.0
H2372 H 0.47218 0.7739 0.85225 0.0
S2373 S 0.5124 0.72408 0.92419 0.0
N2374 N 0.52057 0.71631 0.89863 0.0
N2375 N 0.49346 0.74427 0.92043 0.0
C2376 C 0.49283 0.74518 0.89749 0.0
C2377 C 0.50751 0.73006 0.88568 0.0
C2378 C 0.61647 0.9925 0.73289 0.0
C2379 C 0.64014 0.99 0.73302 0.0
C2380 C 0.60562 0.0075 0.74779 0.0
C2381 C 0.61817 0.02031 0.76332 0.0
H2382 H 0.60615 0.98115 0.72287 0.0
H2383 H 0.58733 0.0072 0.74882 0.0
S2384 S 0.68056 0.02169 0.76867 0.0
N2385 N 0.67579 0.00313 0.74834 0.0
N2386 N 0.65547 0.0312 0.77646 0.0
C2387 C 0.64188 0.0195 0.7621 0.0
C2388 C 0.6529 0.00434 0.74687 0.0
C2389 C 0.61391 0.48725 0.23485 0.0
C2390 C 0.63753 0.48845 0.23227 0.0
C2391 C 0.60239 0.50206 0.24933 0.0
C2392 C 0.61412 0.51855 0.2617 0.0
H2393 H 0.60459 0.47339 0.2273 0.0
H2394 H 0.58461 0.49908 0.25262 0.0
S2395 S 0.67562 0.53012 0.25914 0.0
N2396 N 0.67193 0.50866 0.24163 0.0
N2397 N 0.65026 0.53658 0.26895 0.0
C2398 C 0.63739 0.52124 0.25769 0.0
C2399 C 0.64914 0.50614 0.24291 0.0
C2400 C 0.11123 0.35142 0.07171 0.0
C2401 C 0.09154 0.35632 0.0594 0.0
C2402 C 0.1323 0.36004 0.06483 0.0
C2403 C 0.13429 0.37371 0.04539 0.0
H2404 H 0.11018 0.34195 0.08735 0.0
H2405 H 0.14691 0.35675 0.07537 0.0
S2406 S 0.08809 0.38817 0.00549 0.0
N2407 N 0.07561 0.37342 0.02562 0.0
N2408 N 0.11506 0.38934 0.01257 0.0
C2409 C 0.11489 0.37736 0.03218 0.0
C2410 C 0.09354 0.36873 0.03923 0.0
C2411 C 0.88481 0.34485 0.29181 0.0
C2412 C 0.89811 0.34271 0.3114 0.0
C2413 C 0.87646 0.36585 0.28487 0.0
C2414 C 0.88089 0.38556 0.29737 0.0
H2415 H 0.88023 0.33001 0.28209 0.0
H2416 H 0.8658 0.36645 0.26999 0.0
S2417 S 0.91556 0.38908 0.34964 0.0
N2418 N 0.9161 0.36202 0.3428 0.0
N2419 N 0.90032 0.4017 0.32993 0.0
C2420 C 0.89499 0.38382 0.31653 0.0
C2421 C 0.90364 0.36233 0.3235 0.0
C2422 C 0.87035 0.14389 0.56156 0.0
C2423 C 0.86871 0.13078 0.54169 0.0
C2424 C 0.8913 0.1521 0.56921 0.0
C2425 C 0.91124 0.14735 0.55727 0.0
H2426 H 0.85553 0.14698 0.57187 0.0
H2427 H 0.89204 0.16107 0.58516 0.0
S2428 S 0.91574 0.11715 0.50251 0.0
N2429 N 0.88859 0.116 0.50889 0.0
N2430 N 0.92786 0.13115 0.52339 0.0
C2431 C 0.90964 0.1356 0.53668 0.0
C2432 C 0.88839 0.12738 0.52884 0.0
C2433 C 0.10943 0.12035 0.81326 0.0
C2434 C 0.12286 0.11847 0.79364 0.0
C2435 C 0.10108 0.14139 0.8205 0.0
C2436 C 0.10603 0.1612 0.8084 0.0
H2437 H 0.10613 0.10566 0.82367 0.0
H2438 H 0.09179 0.14232 0.83625 0.0
S2439 S 0.13718 0.165 0.7541 0.0
N2440 N 0.13824 0.13794 0.76086 0.0
N2441 N 0.12282 0.17737 0.77457 0.0
C2442 C 0.11816 0.15933 0.78804 0.0
C2443 C 0.12652 0.13799 0.78062 0.0
C2444 C 0.09652 0.62937 0.96169 0.0
C2445 C 0.09446 0.64468 0.94358 0.0
C2446 C 0.11759 0.62105 0.96843 0.0
C2447 C 0.13749 0.62753 0.95722 0.0
H2448 H 0.0816 0.62325 0.97038 0.0
H2449 H 0.11811 0.60882 0.98204 0.0
S2450 S 0.14148 0.66856 0.90981 0.0
N2451 N 0.11417 0.66713 0.91544 0.0
N2452 N 0.15398 0.65145 0.928 0.0
C2453 C 0.13584 0.64373 0.93979 0.0
C2454 C 0.11427 0.65234 0.93302 0.0
C2455 C 0.6248 0.3421 0.20965 0.0
C2456 C 0.60901 0.34058 0.19192 0.0
C2457 C 0.63316 0.36298 0.21692 0.0
C2458 C 0.62624 0.38322 0.20662 0.0
H2459 H 0.63122 0.32692 0.21766 0.0
H2460 H 0.64571 0.36313 0.23026 0.0
S2461 S 0.58433 0.38853 0.1601 0.0
N2462 N 0.58596 0.36107 0.16485 0.0
N2463 N 0.60172 0.40051 0.17837 0.0
C2464 C 0.60972 0.38205 0.18945 0.0
C2465 C 0.60107 0.36068 0.18215 0.0
C2466 C 0.88853 0.88261 0.46789 0.0
C2467 C 0.8685 0.87541 0.45735 0.0
C2468 C 0.90961 0.87451 0.46091 0.0
C2469 C 0.91159 0.85869 0.44323 0.0
H2470 H 0.88806 0.8952 0.48118 0.0
H2471 H 0.92457 0.88114 0.46913 0.0
S2472 S 0.8643 0.833 0.41119 0.0
N2473 N 0.85187 0.8504 0.42915 0.0
N2474 N 0.89169 0.8351 0.41618 0.0
C2475 C 0.8917 0.85039 0.43331 0.0
C2476 C 0.87011 0.85879 0.44032 0.0
C2477 C 0.36999 0.13805 0.71909 0.0
C2478 C 0.37742 0.11803 0.70871 0.0
C2479 C 0.37807 0.15913 0.71214 0.0
C2480 C 0.39411 0.16114 0.69466 0.0
H2481 H 0.35724 0.13757 0.73221 0.0
H2482 H 0.37126 0.17409 0.72024 0.0
S2483 S 0.42055 0.11386 0.66322 0.0
N2484 N 0.40294 0.10142 0.68096 0.0
N2485 N 0.41821 0.14127 0.66804 0.0
C2486 C 0.40265 0.14126 0.68493 0.0
C2487 C 0.39426 0.11966 0.6919 0.0
C2488 C 0.06455 0.13181 0.3603 0.0
C2489 C 0.04523 0.13351 0.37419 0.0
C2490 C 0.07151 0.11089 0.35139 0.0
C2491 C 0.05939 0.09105 0.35617 0.0
H2492 H 0.07498 0.14652 0.35713 0.0
H2493 H 0.08712 0.11005 0.34184 0.0
S2494 S 0.00579 0.08687 0.38846 0.0
N2495 N 0.01269 0.11388 0.38988 0.0
N2496 N 0.02586 0.07471 0.37337 0.0
C2497 C 0.03929 0.09279 0.36874 0.0
C2498 C 0.03217 0.11398 0.37769 0.0
C2499 C 0.14262 0.31855 0.60211 0.0
C2500 C 0.16238 0.30659 0.60756 0.0
C2501 C 0.12153 0.3117 0.61068 0.0
C2502 C 0.11956 0.2926 0.62482 0.0
H2503 H 0.1436 0.33393 0.59223 0.0
H2504 H 0.10686 0.322 0.60694 0.0
S2505 S 0.16599 0.25355 0.64083 0.0
N2506 N 0.17844 0.27343 0.62572 0.0
N2507 N 0.13894 0.26038 0.6415 0.0
C2508 C 0.13905 0.27968 0.62903 0.0
C2509 C 0.16044 0.28673 0.62048 0.0
C2510 C 0.93283 0.39073 0.85073 0.0
C2511 C 0.94515 0.41049 0.85529 0.0
C2512 C 0.93972 0.36981 0.85968 0.0
C2513 C 0.95919 0.36803 0.87337 0.0
H2514 H 0.91714 0.39164 0.84133 0.0
H2515 H 0.92915 0.35517 0.85667 0.0
S2516 S 0.99916 0.41442 0.88694 0.0
N2517 N 0.979 0.42666 0.87203 0.0
N2518 N 0.99206 0.38748 0.8886 0.0
C2519 C 0.97243 0.38747 0.87665 0.0
C2520 C 0.96537 0.40867 0.86766 0.0
C2521 C 0.86156 0.18404 0.10327 0.0
C2522 C 0.84178 0.19602 0.10863 0.0
C2523 C 0.88259 0.1908 0.11203 0.0
C2524 C 0.8845 0.2098 0.12633 0.0
H2525 H 0.86061 0.16871 0.09329 0.0
H2526 H 0.89727 0.18049 0.10833 0.0
S2527 S 0.83808 0.24887 0.14222 0.0
N2528 N 0.82569 0.22914 0.12686 0.0
N2529 N 0.8651 0.24194 0.14309 0.0
C2530 C 0.86502 0.22273 0.13047 0.0
C2531 C 0.84369 0.2158 0.12168 0.0
C2532 C 0.06309 0.86904 0.64345 0.0
C2533 C 0.04365 0.86744 0.62971 0.0
C2534 C 0.07044 0.88996 0.65199 0.0
C2535 C 0.05862 0.90991 0.64695 0.0
H2536 H 0.0733 0.85421 0.64681 0.0
H2537 H 0.08609 0.8907 0.66149 0.0
S2538 S 0.00484 0.91444 0.61497 0.0
N2539 N 0.01132 0.88732 0.61391 0.0
N2540 N 0.02522 0.92652 0.62973 0.0
C2541 C 0.03841 0.90831 0.63452 0.0
C2542 C 0.0309 0.8871 0.62595 0.0
C2543 C 0.34582 0.29201 0.88266 0.0
C2544 C 0.34391 0.31055 0.89744 0.0
C2545 C 0.36685 0.28471 0.87472 0.0
C2546 C 0.38688 0.29578 0.88107 0.0
H2547 H 0.33081 0.28334 0.87669 0.0
H2548 H 0.36726 0.27074 0.86289 0.0
S2549 S 0.39122 0.34435 0.92068 0.0
N2550 N 0.36384 0.33905 0.91921 0.0
N2551 N 0.40359 0.32549 0.90421 0.0
C2552 C 0.38535 0.31371 0.89672 0.0
C2553 C 0.36381 0.32105 0.90495 0.0
C2554 C 0.94052 0.63288 0.14263 0.0
C2555 C 0.95985 0.63442 0.12874 0.0
C2556 C 0.93316 0.61197 0.15121 0.0
C2557 C 0.94485 0.59198 0.14605 0.0
H2558 H 0.9304 0.64774 0.1461 0.0
H2559 H 0.91758 0.61131 0.16082 0.0
S2560 S 0.99828 0.58722 0.11356 0.0
N2561 N 0.99195 0.61439 0.11265 0.0
N2562 N 0.97797 0.57522 0.12847 0.0
C2563 C 0.96494 0.5935 0.13345 0.0
C2564 C 0.97249 0.61469 0.12486 0.0
C2565 C 0.65837 0.21149 0.37938 0.0
C2566 C 0.66012 0.19313 0.39442 0.0
C2567 C 0.63741 0.21871 0.37118 0.0
C2568 C 0.61731 0.20777 0.37753 0.0
H2569 H 0.67343 0.22004 0.37341 0.0
H2570 H 0.63711 0.23252 0.35916 0.0
S2571 S 0.61256 0.15973 0.41773 0.0
N2572 N 0.63996 0.16496 0.41641 0.0
N2573 N 0.60036 0.17841 0.40094 0.0
C2574 C 0.61868 0.19005 0.39344 0.0
C2575 C 0.64014 0.18278 0.40192 0.0
C2576 C 0.37161 0.04208 0.09486 0.0
C2577 C 0.35661 0.0604 0.09254 0.0
C2578 C 0.37966 0.03538 0.11605 0.0
C2579 C 0.37324 0.04688 0.13582 0.0
H2580 H 0.37766 0.03315 0.08005 0.0
H2581 H 0.39161 0.02152 0.11679 0.0
S2582 S 0.3334 0.09537 0.139 0.0
N2583 N 0.33478 0.08933 0.11178 0.0
N2584 N 0.35 0.07691 0.15181 0.0
C2585 C 0.35748 0.06468 0.13386 0.0
C2586 C 0.34913 0.07139 0.11218 0.0
C2587 C 0.88125 0.96938 0.38617 0.0
C2588 C 0.87476 0.95836 0.36617 0.0
C2589 C 0.87292 0.96246 0.40718 0.0
C2590 C 0.85762 0.94433 0.4091 0.0
H2591 H 0.89348 0.983 0.38576 0.0
H2592 H 0.87903 0.97106 0.42216 0.0
S2593 S 0.8337 0.911 0.3618 0.0
N2594 N 0.85082 0.92928 0.34946 0.0
N2595 N 0.83515 0.91638 0.38916 0.0
C2596 C 0.84995 0.93394 0.3892 0.0
C2597 C 0.85856 0.94091 0.36769 0.0
C2598 C 0.31996 0.10085 0.6415 0.0
C2599 C 0.30759 0.10602 0.66108 0.0
C2600 C 0.31333 0.10942 0.62035 0.0
C2601 C 0.29407 0.12333 0.61814 0.0
H2602 H 0.3355 0.09123 0.64271 0.0
H2603 H 0.32394 0.10593 0.60584 0.0
S2604 S 0.25402 0.13851 0.66396 0.0
N2605 N 0.27389 0.1236 0.67666 0.0
N2606 N 0.2613 0.13945 0.63704 0.0
C2607 C 0.28076 0.12723 0.63742 0.0
C2608 C 0.28756 0.11863 0.65886 0.0
C2609 C 0.14438 0.56114 0.86965 0.0
C2610 C 0.13071 0.54166 0.86797 0.0
C2611 C 0.15311 0.56828 0.89056 0.0
C2612 C 0.14835 0.5562 0.91041 0.0
H2613 H 0.14753 0.57154 0.85491 0.0
H2614 H 0.16252 0.58397 0.89136 0.0
S2615 S 0.11671 0.50223 0.91468 0.0
N2616 N 0.11531 0.50901 0.88765 0.0
N2617 N 0.13148 0.52255 0.92684 0.0
C2618 C 0.13601 0.53596 0.90873 0.0
C2619 C 0.12725 0.52865 0.88752 0.0
C2620 C 0.18422 0.90128 0.13918 0.0
C2621 C 0.19614 0.89601 0.15901 0.0
C2622 C 0.19121 0.89262 0.11817 0.0
C2623 C 0.21039 0.87853 0.11637 0.0
H2624 H 0.16873 0.91103 0.14007 0.0
H2625 H 0.18092 0.89616 0.10345 0.0
S2626 S 0.2493 0.86296 0.16304 0.0
N2627 N 0.2293 0.87806 0.17531 0.0
N2628 N 0.24261 0.86214 0.13596 0.0
C2629 C 0.22327 0.87455 0.13592 0.0
C2630 C 0.21609 0.88321 0.15721 0.0
C2631 C 0.61987 0.96715 0.11679 0.0
C2632 C 0.62689 0.9567 0.13692 0.0
C2633 C 0.62849 0.96035 0.09586 0.0
C2634 C 0.64467 0.94296 0.09414 0.0
H2635 H 0.60703 0.98019 0.11704 0.0
H2636 H 0.62197 0.96847 0.08078 0.0
S2637 S 0.67013 0.91138 0.14186 0.0
N2638 N 0.65216 0.92899 0.15397 0.0
N2639 N 0.66841 0.91633 0.11444 0.0
C2640 C 0.65279 0.93316 0.11417 0.0
C2641 C 0.64386 0.93999 0.13559 0.0
C2642 C 0.3144 0.39365 0.88524 0.0
C2643 C 0.29471 0.38029 0.887 0.0
C2644 C 0.32152 0.40237 0.86431 0.0
C2645 C 0.30918 0.39793 0.84453 0.0
H2646 H 0.325 0.39648 0.8999 0.0
H2647 H 0.3374 0.41145 0.8634 0.0
S2648 S 0.25463 0.36727 0.84055 0.0
N2649 N 0.26161 0.3656 0.86752 0.0
N2650 N 0.27509 0.38176 0.82831 0.0
C2651 C 0.28872 0.38597 0.84633 0.0
C2652 C 0.28145 0.37721 0.86754 0.0
C2653 C 0.68994 0.10885 0.38287 0.0
C2654 C 0.70904 0.12307 0.38441 0.0
C2655 C 0.68303 0.09973 0.36204 0.0
C2656 C 0.69496 0.10463 0.34212 0.0
H2657 H 0.67964 0.10555 0.39764 0.0
H2658 H 0.66758 0.08991 0.36133 0.0
S2659 S 0.74798 0.13781 0.33751 0.0
N2660 N 0.7412 0.13922 0.36454 0.0
N2661 N 0.72809 0.12233 0.32551 0.0
C2662 C 0.71485 0.11755 0.34369 0.0
C2663 C 0.72193 0.12671 0.3648 0.0
C2664 C 0.1161 0.88047 0.53652 0.0
C2665 C 0.13599 0.87357 0.5475 0.0
C2666 C 0.09496 0.87234 0.54328 0.0
C2667 C 0.0928 0.85683 0.5612 0.0
H2668 H 0.1167 0.89283 0.52303 0.0
H2669 H 0.08009 0.87874 0.53471 0.0
S2670 S 0.13971 0.83187 0.59434 0.0
N2671 N 0.15233 0.84908 0.57632 0.0
N2672 N 0.11238 0.83375 0.58891 0.0
C2673 C 0.11257 0.84879 0.57156 0.0
C2674 C 0.13422 0.8572 0.56476 0.0
C2675 C 0.88409 0.8446 0.7927 0.0
C2676 C 0.89758 0.84308 0.81222 0.0
C2677 C 0.87564 0.86534 0.7852 0.0
C2678 C 0.88024 0.88545 0.79696 0.0
H2679 H 0.87938 0.82945 0.78352 0.0
H2680 H 0.86468 0.86545 0.77052 0.0
S2681 S 0.91584 0.89077 0.84841 0.0
N2682 N 0.91621 0.86347 0.84255 0.0
N2683 N 0.90027 0.90272 0.82853 0.0
C2684 C 0.89473 0.88438 0.81587 0.0
C2685 C 0.90343 0.86312 0.82348 0.0
C2686 C 0.88897 0.62127 0.03408 0.0
C2687 C 0.86888 0.62887 0.04419 0.0
C2688 C 0.91005 0.62902 0.04144 0.0
C2689 C 0.91196 0.64489 0.05908 0.0
H2690 H 0.88854 0.60867 0.0208 0.0
H2691 H 0.92504 0.62214 0.0335 0.0
S2692 S 0.86452 0.67146 0.09017 0.0
N2693 N 0.85214 0.65421 0.07202 0.0
N2694 N 0.89196 0.66888 0.08571 0.0
C2695 C 0.89203 0.65353 0.06863 0.0
C2696 C 0.87044 0.64548 0.06124 0.0
C2697 C 0.12256 0.65895 0.29077 0.0
C2698 C 0.10724 0.66112 0.30885 0.0
C2699 C 0.13045 0.6378 0.2838 0.0
C2700 C 0.12355 0.6179 0.29477 0.0
H2701 H 0.12897 0.67383 0.28222 0.0
H2702 H 0.14267 0.63719 0.27018 0.0
S2703 S 0.08246 0.61423 0.34215 0.0
N2704 N 0.08441 0.64157 0.33679 0.0
N2705 N 0.09934 0.60159 0.32385 0.0
C2706 C 0.10741 0.6197 0.31224 0.0
C2707 C 0.09921 0.64136 0.31923 0.0
C2708 C 0.11769 0.12061 0.4687 0.0
C2709 C 0.13764 0.12715 0.4576 0.0
C2710 C 0.0966 0.12865 0.46169 0.0
C2711 C 0.09455 0.14376 0.44342 0.0
H2712 H 0.1182 0.10857 0.48249 0.0
H2713 H 0.08167 0.12253 0.47036 0.0
S2714 S 0.14161 0.1675 0.40961 0.0
N2715 N 0.15412 0.15073 0.42811 0.0
N2716 N 0.11427 0.16596 0.4151 0.0
C2717 C 0.11437 0.15141 0.43287 0.0
C2718 C 0.13596 0.14306 0.43991 0.0
C2719 C 0.61115 0.88381 0.68439 0.0
C2720 C 0.6218 0.88548 0.70566 0.0
C2721 C 0.60235 0.8631 0.6767 0.0
C2722 C 0.60397 0.84358 0.6901 0.0
H2723 H 0.6107 0.89823 0.67312 0.0
H2724 H 0.59552 0.86206 0.65974 0.0
S2725 S 0.62686 0.83975 0.74828 0.0
N2726 N 0.63086 0.86637 0.74093 0.0
N2727 N 0.61456 0.82761 0.72637 0.0
C2728 C 0.61313 0.84541 0.7119 0.0
C2729 C 0.62198 0.86635 0.71973 0.0
C2730 C 0.90867 0.37426 0.96045 0.0
C2731 C 0.91064 0.35833 0.94287 0.0
C2732 C 0.8876 0.38251 0.96728 0.0
C2733 C 0.86759 0.37537 0.95668 0.0
H2734 H 0.92363 0.38085 0.96871 0.0
H2735 H 0.88713 0.39519 0.98049 0.0
S2736 S 0.86336 0.33267 0.91079 0.0
N2737 N 0.89075 0.33466 0.91588 0.0
N2738 N 0.85095 0.35025 0.92858 0.0
C2739 C 0.86919 0.35863 0.93976 0.0
C2740 C 0.89076 0.35008 0.93291 0.0
C2741 C 0.38018 0.65893 0.2126 0.0
C2742 C 0.3956 0.66088 0.1946 0.0
C2743 C 0.37178 0.6379 0.21936 0.0
C2744 C 0.37826 0.61794 0.20823 0.0
H2745 H 0.374 0.67391 0.22114 0.0
H2746 H 0.35947 0.63744 0.2329 0.0
S2747 S 0.41928 0.61378 0.16082 0.0
N2748 N 0.41798 0.64109 0.16648 0.0
N2749 N 0.40213 0.60136 0.17902 0.0
C2750 C 0.39452 0.61952 0.19084 0.0
C2751 C 0.40322 0.64104 0.18407 0.0
C2752 C 0.04365 0.59214 0.87373 0.0
C2753 C 0.06139 0.59015 0.85799 0.0
C2754 C 0.03661 0.61322 0.88177 0.0
C2755 C 0.04717 0.63324 0.8746 0.0
H2756 H 0.03539 0.57717 0.88031 0.0
H2757 H 0.02325 0.61369 0.89427 0.0
S2758 S 0.09363 0.63742 0.83251 0.0
N2759 N 0.08862 0.61003 0.83458 0.0
N2760 N 0.07556 0.64985 0.84979 0.0
C2761 C 0.06434 0.63162 0.85811 0.0
C2762 C 0.07139 0.61004 0.84976 0.0
C2763 C 0.15945 0.7913 0.12126 0.0
C2764 C 0.16142 0.80935 0.10586 0.0
C2765 C 0.13839 0.78436 0.12946 0.0
C2766 C 0.1184 0.7953 0.12278 0.0
H2767 H 0.17441 0.78275 0.12748 0.0
H2768 H 0.13793 0.77078 0.14173 0.0
S2769 S 0.11419 0.84256 0.08159 0.0
N2770 N 0.14155 0.83721 0.08321 0.0
N2771 N 0.10178 0.8243 0.09869 0.0
C2772 C 0.11999 0.81272 0.10656 0.0
C2773 C 0.14155 0.81969 0.09806 0.0
C2774 C 0.94057 0.87067 0.36 0.0
C2775 C 0.96002 0.86901 0.37371 0.0
C2776 C 0.93354 0.89154 0.35109 0.0
C2777 C 0.9457 0.91138 0.35571 0.0
H2778 H 0.93012 0.85595 0.35693 0.0
H2779 H 0.91786 0.89235 0.34165 0.0
S2780 S 0.99964 0.91565 0.38744 0.0
N2781 N 0.99273 0.88866 0.38904 0.0
N2782 N 0.9794 0.92778 0.37253 0.0
C2783 C 0.96592 0.9097 0.36811 0.0
C2784 C 0.97312 0.88853 0.37706 0.0
C2785 C 0.84335 0.71227 0.62277 0.0
C2786 C 0.84167 0.69419 0.60738 0.0
C2787 C 0.86424 0.71917 0.63143 0.0
C2788 C 0.88434 0.70814 0.62523 0.0
H2789 H 0.82827 0.72082 0.62868 0.0
H2790 H 0.86448 0.73278 0.64367 0.0
S2791 S 0.88927 0.6606 0.58444 0.0
N2792 N 0.86191 0.6661 0.58538 0.0
N2793 N 0.90138 0.67892 0.6017 0.0
C2794 C 0.88305 0.69065 0.60905 0.0
C2795 C 0.86167 0.68373 0.60009 0.0
C2796 C 0.0624 0.36909 0.14279 0.0
C2797 C 0.04283 0.36708 0.12929 0.0
C2798 C 0.06941 0.39018 0.15123 0.0
C2799 C 0.05711 0.40988 0.14633 0.0
H2800 H 0.07296 0.35449 0.146 0.0
H2801 H 0.08516 0.39125 0.16052 0.0
S2802 S 0.00281 0.41325 0.11512 0.0
N2803 N 0.00985 0.38627 0.11398 0.0
N2804 N 0.02314 0.42577 0.12956 0.0
C2805 C 0.03677 0.40785 0.13418 0.0
C2806 C 0.02959 0.38647 0.12573 0.0
C2807 C 0.34675 0.79262 0.38275 0.0
C2808 C 0.34485 0.81139 0.39724 0.0
C2809 C 0.36771 0.78565 0.37436 0.0
C2810 C 0.38767 0.79725 0.37996 0.0
H2811 H 0.33177 0.78358 0.3773 0.0
H2812 H 0.36811 0.77152 0.36271 0.0
S2813 S 0.39199 0.84673 0.4184 0.0
N2814 N 0.36471 0.84077 0.41786 0.0
N2815 N 0.40435 0.82779 0.40201 0.0
C2816 C 0.38619 0.81541 0.39535 0.0
C2817 C 0.36471 0.82244 0.40403 0.0
C2818 C 0.97014 0.11578 0.6244 0.0
C2819 C 0.95773 0.13535 0.62964 0.0
C2820 C 0.96355 0.09461 0.63256 0.0
C2821 C 0.94439 0.09211 0.64643 0.0
H2822 H 0.9846 0.11663 0.6132 0.0
H2823 H 0.97313 0.07991 0.62728 0.0
S2824 S 0.90709 0.13812 0.66671 0.0
N2825 N 0.92614 0.15107 0.6509 0.0
N2826 N 0.91385 0.11103 0.66624 0.0
C2827 C 0.93257 0.11161 0.65295 0.0
C2828 C 0.93921 0.1333 0.64453 0.0
C2829 C 0.63545 0.71881 0.87108 0.0
C2830 C 0.61561 0.70702 0.87665 0.0
C2831 C 0.65649 0.71182 0.87922 0.0
C2832 C 0.65858 0.69288 0.89345 0.0
H2833 H 0.6349 0.73312 0.85967 0.0
H2834 H 0.67139 0.72099 0.87379 0.0
S2835 S 0.61181 0.65705 0.91454 0.0
N2836 N 0.59924 0.67611 0.89845 0.0
N2837 N 0.63906 0.66314 0.91386 0.0
C2838 C 0.63885 0.68162 0.90023 0.0
C2839 C 0.61729 0.68864 0.89178 0.0
C2840 C 0.35062 0.56966 0.61133 0.0
C2841 C 0.35498 0.55707 0.5917 0.0
C2842 C 0.35935 0.56277 0.63234 0.0
C2843 C 0.37263 0.54305 0.63433 0.0
H2844 H 0.34156 0.58554 0.61024 0.0
H2845 H 0.35654 0.57354 0.64687 0.0
S2846 S 0.38544 0.50236 0.58835 0.0
N2847 N 0.37102 0.52273 0.57588 0.0
N2848 N 0.38717 0.50967 0.61523 0.0
C2849 C 0.37565 0.52955 0.61503 0.0
C2850 C 0.36689 0.5366 0.59373 0.0
C2851 C 0.87322 0.46217 0.90695 0.0
C2852 C 0.85744 0.44446 0.90889 0.0
C2853 C 0.88156 0.46896 0.88591 0.0
C2854 C 0.87463 0.45819 0.86591 0.0
H2855 H 0.87966 0.47054 0.92192 0.0
H2856 H 0.89413 0.48226 0.88547 0.0
S2857 S 0.83229 0.41197 0.86162 0.0
N2858 N 0.83409 0.4172 0.88898 0.0
N2859 N 0.84982 0.42984 0.84924 0.0
C2860 C 0.85799 0.44117 0.86747 0.0
C2861 C 0.84936 0.43435 0.889 0.0
C2862 C 0.28412 0.62991 0.13615 0.0
C2863 C 0.29557 0.62353 0.11635 0.0
C2864 C 0.29091 0.62186 0.15732 0.0
C2865 C 0.30929 0.60693 0.15959 0.0
H2866 H 0.27024 0.64183 0.13546 0.0
H2867 H 0.28199 0.62788 0.17214 0.0
S2868 S 0.34414 0.5838 0.11299 0.0
N2869 N 0.3256 0.60035 0.10025 0.0
N2870 N 0.3382 0.58516 0.14024 0.0
C2871 C 0.32022 0.59946 0.13991 0.0
C2872 C 0.31342 0.6078 0.11824 0.0
C2873 C 0.13221 0.04019 0.40857 0.0
C2874 C 0.14779 0.05807 0.41053 0.0
C2875 C 0.12381 0.03343 0.38755 0.0
C2876 C 0.13047 0.04441 0.36757 0.0
H2877 H 0.12596 0.03167 0.42354 0.0
H2878 H 0.11141 0.01997 0.3871 0.0
S2879 S 0.1721 0.09128 0.36333 0.0
N2880 N 0.17059 0.08581 0.39067 0.0
N2881 N 0.15475 0.07324 0.35093 0.0
C2882 C 0.14688 0.06166 0.36914 0.0
C2883 C 0.15557 0.06844 0.39066 0.0
C2884 C 0.19091 0.39105 0.62079 0.0
C2885 C 0.21015 0.37711 0.61866 0.0
C2886 C 0.18415 0.39956 0.64193 0.0
C2887 C 0.19636 0.39427 0.66159 0.0
H2888 H 0.18042 0.39463 0.60621 0.0
H2889 H 0.16864 0.40924 0.64306 0.0
S2890 S 0.24982 0.36162 0.66473 0.0
N2891 N 0.24274 0.36084 0.63776 0.0
N2892 N 0.22988 0.37652 0.67735 0.0
C2893 C 0.21636 0.3816 0.65947 0.0
C2894 C 0.2233 0.3731 0.63803 0.0
C2895 C 0.6296 0.46159 0.59502 0.0
C2896 C 0.64494 0.44353 0.59294 0.0
C2897 C 0.62138 0.46839 0.61611 0.0
C2898 C 0.62799 0.45727 0.63602 0.0
H2899 H 0.62337 0.47022 0.58011 0.0
H2900 H 0.60913 0.48199 0.61664 0.0
S2901 S 0.66906 0.40988 0.63992 0.0
N2902 N 0.6675 0.41545 0.61261 0.0
N2903 N 0.652 0.42809 0.65246 0.0
C2904 C 0.64419 0.43984 0.63433 0.0
C2905 C 0.65271 0.43302 0.61274 0.0
C2906 C 0.28466 0.87447 0.36781 0.0
C2907 C 0.29504 0.88117 0.3881 0.0
C2908 C 0.29139 0.88358 0.34707 0.0
C2909 C 0.30859 0.89997 0.34574 0.0
H2910 H 0.27185 0.86138 0.36777 0.0
H2911 H 0.28358 0.87711 0.33181 0.0
S2912 S 0.33968 0.92499 0.39398 0.0
N2913 N 0.3223 0.90655 0.40572 0.0
N2914 N 0.33477 0.92376 0.36652 0.0
C2915 C 0.31813 0.90794 0.36593 0.0
C2916 C 0.31141 0.89849 0.38716 0.0
C2917 C 0.68299 0.60171 0.86165 0.0
C2918 C 0.69492 0.6062 0.84163 0.0
C2919 C 0.69025 0.61081 0.88239 0.0
C2920 C 0.70967 0.62461 0.88371 0.0
H2921 H 0.66731 0.59227 0.86109 0.0
H2922 H 0.67994 0.60791 0.89724 0.0
S2923 S 0.74872 0.63803 0.83651 0.0
N2924 N 0.72841 0.62294 0.82474 0.0
N2925 N 0.74211 0.63982 0.86356 0.0
C2926 C 0.72254 0.62778 0.86401 0.0
C2927 C 0.71514 0.61863 0.843 0.0
C2928 C 0.6136 0.38092 0.53491 0.0
C2929 C 0.63361 0.37437 0.54589 0.0
C2930 C 0.59256 0.37278 0.54197 0.0
C2931 C 0.59063 0.35759 0.56018 0.0
H2932 H 0.61404 0.39302 0.52118 0.0
H2933 H 0.57758 0.37888 0.53337 0.0
S2934 S 0.6379 0.33378 0.59366 0.0
N2935 N 0.65028 0.35066 0.57518 0.0
N2936 N 0.61053 0.3353 0.58831 0.0
C2937 C 0.61051 0.34994 0.57061 0.0
C2938 C 0.63205 0.35836 0.56351 0.0
C2939 C 0.38251 0.34506 0.79358 0.0
C2940 C 0.39745 0.34313 0.81199 0.0
C2941 C 0.37423 0.36606 0.78662 0.0
C2942 C 0.38039 0.38604 0.79789 0.0
H2943 H 0.37664 0.33008 0.78481 0.0
H2944 H 0.36229 0.36649 0.77274 0.0
S2945 S 0.4203 0.39031 0.84622 0.0
N2946 N 0.41916 0.36299 0.8406 0.0
N2947 N 0.40354 0.4027 0.82762 0.0
C2948 C 0.39621 0.3845 0.81568 0.0
C2949 C 0.40478 0.36299 0.82269 0.0
C2950 C 0.40791 0.13189 0.04075 0.0
C2951 C 0.40974 0.14641 0.0595 0.0
C2952 C 0.38695 0.12362 0.03361 0.0
C2953 C 0.36695 0.12938 0.04504 0.0
H2954 H 0.42293 0.12634 0.03184 0.0
H2955 H 0.38658 0.112 0.01947 0.0
S2956 S 0.36246 0.16799 0.09441 0.0
N2957 N 0.38978 0.16722 0.08868 0.0
N2958 N 0.35017 0.15163 0.0754 0.0
C2959 C 0.36839 0.14477 0.06321 0.0
C2960 C 0.38984 0.15332 0.0704 0.0
C2961 C 0.62109 0.15577 0.2911 0.0
C2962 C 0.60672 0.1581 0.30991 0.0
C2963 C 0.62926 0.13465 0.28442 0.0
C2964 C 0.62358 0.11495 0.29641 0.0
H2965 H 0.6266 0.17055 0.28178 0.0
H2966 H 0.64076 0.13392 0.27019 0.0
S2967 S 0.58532 0.11177 0.34614 0.0
N2968 N 0.58609 0.13894 0.33974 0.0
N2969 N 0.60153 0.09897 0.32734 0.0
C2970 C 0.60834 0.11687 0.31466 0.0
C2971 C 0.59986 0.13851 0.32136 0.0
C2972 C 0.61262 0.65193 0.43283 0.0
C2973 C 0.59275 0.64703 0.44483 0.0
C2974 C 0.63355 0.64318 0.43992 0.0
C2975 C 0.63523 0.62932 0.45927 0.0
H2976 H 0.61181 0.66143 0.41719 0.0
H2977 H 0.64829 0.64643 0.42956 0.0
S2978 S 0.58846 0.61484 0.49847 0.0
N2979 N 0.57631 0.62979 0.47829 0.0
N2980 N 0.61552 0.61359 0.49174 0.0
C2981 C 0.61566 0.62573 0.47223 0.0
C2982 C 0.59444 0.63452 0.46497 0.0
C2983 C 0.11187 0.3809 0.6905 0.0
C2984 C 0.126 0.38269 0.70964 0.0
C2985 C 0.10315 0.3599 0.68356 0.0
C2986 C 0.1084 0.34006 0.69548 0.0
H2987 H 0.10829 0.39563 0.68024 0.0
H2988 H 0.09331 0.35904 0.66814 0.0
S2989 S 0.14151 0.33604 0.7486 0.0
N2990 N 0.14244 0.36309 0.74184 0.0
N2991 N 0.12634 0.32377 0.72866 0.0
C2992 C 0.12128 0.34185 0.71538 0.0
C2993 C 0.13 0.36313 0.72251 0.0
C2994 C 0.3706 0.86035 0.93897 0.0
C2995 C 0.3687 0.87394 0.95848 0.0
C2996 C 0.39162 0.85175 0.93197 0.0
C2997 C 0.41137 0.85657 0.94422 0.0
H2998 H 0.35596 0.85715 0.92846 0.0
H2999 H 0.39259 0.84237 0.91627 0.0
S3000 S 0.41503 0.88798 0.99837 0.0
N3001 N 0.38804 0.88929 0.99136 0.0
N3002 N 0.42743 0.87337 0.97809 0.0
C3003 C 0.40945 0.86883 0.96449 0.0
C3004 C 0.38814 0.87745 0.97166 0.0
C3005 C 0.90096 0.14166 0.18452 0.0
C3006 C 0.89589 0.16136 0.19673 0.0
C3007 C 0.89221 0.12063 0.19126 0.0
C3008 C 0.87821 0.11863 0.21047 0.0
H3009 H 0.91066 0.14269 0.16902 0.0
H3010 H 0.89567 0.10603 0.18077 0.0
S3011 S 0.86329 0.16479 0.25022 0.0
N3012 N 0.87835 0.17727 0.23031 0.0
N3013 N 0.86213 0.13784 0.24307 0.0
C3014 C 0.8744 0.13802 0.22364 0.0
C3015 C 0.88319 0.15936 0.21674 0.0
C3016 C 0.53679 0.11467 0.8816 0.0
C3017 C 0.5482 0.13455 0.87538 0.0
C3018 C 0.54359 0.0936 0.87336 0.0
C3019 C 0.56195 0.09152 0.85838 0.0
H3020 H 0.52292 0.11522 0.89354 0.0
H3021 H 0.53473 0.0787 0.87928 0.0
S3022 S 0.59654 0.1384 0.83545 0.0
N3023 N 0.57805 0.15095 0.8522 0.0
N3024 N 0.5907 0.11112 0.83663 0.0
C3025 C 0.5728 0.11128 0.85103 0.0
C3026 C 0.56598 0.13286 0.85957 0.0
C3027 C 0.63774 0.28396 0.12628 0.0
C3028 C 0.61777 0.29572 0.12107 0.0
C3029 C 0.65867 0.29115 0.11797 0.0
C3030 C 0.66046 0.31024 0.10391 0.0
H3031 H 0.63739 0.26952 0.13753 0.0
H3032 H 0.67369 0.28202 0.12311 0.0
S3033 S 0.61328 0.34621 0.08394 0.0
N3034 N 0.601 0.32686 0.0999 0.0
N3035 N 0.64054 0.34019 0.08419 0.0
C3036 C 0.6406 0.32151 0.09755 0.0
C3037 C 0.61919 0.3143 0.10618 0.0
C3038 C 0.46725 0.38898 0.38257 0.0
C3039 C 0.45726 0.36888 0.37481 0.0
C3040 C 0.45999 0.41005 0.37472 0.0
C3041 C 0.44258 0.41196 0.35861 0.0
H3042 H 0.48033 0.38856 0.39537 0.0
H3043 H 0.46782 0.42504 0.38175 0.0
S3044 S 0.41208 0.3645 0.33138 0.0
N3045 N 0.42993 0.35213 0.34894 0.0
N3046 N 0.41642 0.39195 0.3341 0.0
C3047 C 0.43321 0.39202 0.34977 0.0
C3048 C 0.4405 0.37044 0.35792 0.0
C3049 C 0.36166 0.18281 0.60265 0.0
C3050 C 0.34166 0.19467 0.60739 0.0
C3051 C 0.38246 0.19006 0.61156 0.0
C3052 C 0.38392 0.20943 0.6254 0.0
H3053 H 0.36105 0.16722 0.59306 0.0
H3054 H 0.39731 0.17983 0.60836 0.0
S3055 S 0.33679 0.24836 0.63946 0.0
N3056 N 0.32488 0.22808 0.62445 0.0
N3057 N 0.36387 0.24176 0.64098 0.0
C3058 C 0.36422 0.22223 0.62889 0.0
C3059 C 0.34312 0.21482 0.61994 0.0
C3060 C 0.56108 0.86921 0.14333 0.0
C3061 C 0.54196 0.86752 0.12917 0.0
C3062 C 0.56792 0.89011 0.15234 0.0
C3063 C 0.55589 0.90995 0.14736 0.0
H3064 H 0.57144 0.85449 0.14669 0.0
H3065 H 0.58338 0.89093 0.16214 0.0
S3066 S 0.50276 0.91417 0.11429 0.0
N3067 N 0.50967 0.88716 0.11298 0.0
N3068 N 0.52263 0.92632 0.12966 0.0
C3069 C 0.53598 0.90824 0.13449 0.0
C3070 C 0.52897 0.88704 0.12544 0.0
C3071 C 0.84471 0.29126 0.38199 0.0
C3072 C 0.84256 0.30994 0.39654 0.0
C3073 C 0.86585 0.28418 0.37413 0.0
C3074 C 0.88572 0.29564 0.3803 0.0
H3075 H 0.82982 0.28231 0.37615 0.0
H3076 H 0.86647 0.27003 0.36252 0.0
S3077 S 0.88931 0.34512 0.41884 0.0
N3078 N 0.86203 0.33926 0.41762 0.0
N3079 N 0.90197 0.32614 0.40274 0.0
C3080 C 0.88392 0.31385 0.3956 0.0
C3081 C 0.86229 0.32095 0.40377 0.0
C3082 C 0.43984 0.63079 0.64112 0.0
C3083 C 0.45872 0.63243 0.62663 0.0
C3084 C 0.43273 0.60983 0.64977 0.0
C3085 C 0.4442 0.58985 0.64407 0.0
H3086 H 0.4299 0.64565 0.64509 0.0
H3087 H 0.41752 0.60914 0.65995 0.0
S3088 S 0.49653 0.58529 0.60978 0.0
N3089 N 0.49021 0.61246 0.60929 0.0
N3090 N 0.4767 0.5732 0.62525 0.0
C3091 C 0.46384 0.59144 0.63078 0.0
C3092 C 0.47116 0.6127 0.62213 0.0
C3093 C 0.11974 0.1911 0.8934 0.0
C3094 C 0.11768 0.21015 0.87919 0.0
C3095 C 0.14087 0.18437 0.90198 0.0
C3096 C 0.16057 0.19644 0.89651 0.0
H3097 H 0.10514 0.1807 0.8971 0.0
H3098 H 0.14195 0.16895 0.9118 0.0
S3099 S 0.16387 0.24947 0.8632 0.0
N3100 N 0.13686 0.24247 0.86251 0.0
N3101 N 0.17643 0.22969 0.87836 0.0
C3102 C 0.1585 0.2163 0.88363 0.0
C3103 C 0.13708 0.2232 0.87503 0.0
C3104 C 0.8835 0.03585 0.61068 0.0
C3105 C 0.87576 0.04548 0.63095 0.0
C3106 C 0.87562 0.04349 0.58976 0.0
C3107 C 0.8595 0.06093 0.5882 0.0
H3108 H 0.89626 0.02272 0.61086 0.0
H3109 H 0.88256 0.03589 0.5746 0.0
S3110 S 0.83266 0.0909 0.63621 0.0
N3111 N 0.85014 0.07274 0.64822 0.0
N3112 N 0.83524 0.08695 0.60869 0.0
C3113 C 0.8508 0.07006 0.6083 0.0
C3114 C 0.85898 0.06239 0.62972 0.0
C3115 C 0.35301 0.93312 0.89085 0.0
C3116 C 0.35802 0.94501 0.91077 0.0
C3117 C 0.36168 0.94032 0.86993 0.0
C3118 C 0.37554 0.95967 0.86829 0.0
H3119 H 0.3434 0.91754 0.8916 0.0
H3120 H 0.35831 0.93006 0.85514 0.0
S3121 S 0.39021 0.99866 0.91517 0.0
N3122 N 0.37532 0.97841 0.92729 0.0
N3123 N 0.39139 0.99202 0.88809 0.0
C3124 C 0.37927 0.9725 0.88792 0.0
C3125 C 0.37057 0.96514 0.90913 0.0
C3126 C 0.81974 0.10269 0.14262 0.0
C3127 C 0.80763 0.10777 0.16239 0.0
C3128 C 0.81295 0.11151 0.12164 0.0
C3129 C 0.79378 0.12559 0.11975 0.0
H3130 H 0.83519 0.0929 0.14356 0.0
H3131 H 0.82336 0.10803 0.10698 0.0
S3132 S 0.7543 0.1406 0.16611 0.0
N3133 N 0.77419 0.12542 0.17847 0.0
N3134 N 0.76134 0.14179 0.13914 0.0
C3135 C 0.78072 0.12944 0.1392 0.0
C3136 C 0.78768 0.12058 0.1605 0.0
C3137 C 0.62183 0.53341 0.38845 0.0
C3138 C 0.62909 0.54346 0.3682 0.0
C3139 C 0.62976 0.54101 0.40938 0.0
C3140 C 0.64543 0.55886 0.411 0.0
H3141 H 0.60934 0.52003 0.38826 0.0
H3142 H 0.62312 0.53311 0.42452 0.0
S3143 S 0.67126 0.58976 0.36304 0.0
N3144 N 0.65405 0.57136 0.35099 0.0
N3145 N 0.669 0.58551 0.39054 0.0
C3146 C 0.6538 0.56829 0.3909 0.0
C3147 C 0.6456 0.56064 0.36946 0.0
C3148 C 0.71115 0.87838 0.65843 0.0
C3149 C 0.69385 0.89456 0.66054 0.0
C3150 C 0.71817 0.87058 0.63725 0.0
C3151 C 0.70798 0.87841 0.61728 0.0
H3152 H 0.71893 0.87114 0.67336 0.0
H3153 H 0.73113 0.85766 0.63668 0.0
S3154 S 0.66305 0.92216 0.61351 0.0
N3155 N 0.66767 0.91933 0.64091 0.0
N3156 N 0.68068 0.90455 0.60089 0.0
C3157 C 0.69142 0.89548 0.61905 0.0
C3158 C 0.68441 0.9036 0.64074 0.0
C3159 C 0.14357 0.93882 0.63499 0.0
C3160 C 0.1299 0.9583 0.63674 0.0
C3161 C 0.15249 0.9319 0.61407 0.0
C3162 C 0.14793 0.94421 0.5943 0.0
H3163 H 0.14653 0.92825 0.64964 0.0
H3164 H 0.16183 0.91617 0.61317 0.0
S3165 S 0.11641 0.99827 0.59034 0.0
N3166 N 0.11477 0.9912 0.61728 0.0
N3167 N 0.13129 0.97808 0.5781 0.0
C3168 C 0.13564 0.96447 0.59611 0.0
C3169 C 0.12668 0.97155 0.6173 0.0
C3170 C 0.78419 0.37303 0.36548 0.0
C3171 C 0.79523 0.3792 0.38559 0.0
C3172 C 0.79152 0.38116 0.34454 0.0
C3173 C 0.81004 0.39599 0.34282 0.0
H3174 H 0.77024 0.36118 0.36577 0.0
H3175 H 0.78297 0.37526 0.32945 0.0
S3176 S 0.84393 0.41862 0.39035 0.0
N3177 N 0.825 0.4021 0.40255 0.0
N3178 N 0.83861 0.41747 0.36297 0.0
C3179 C 0.82053 0.40329 0.36279 0.0
C3180 C 0.81318 0.39486 0.38423 0.0
C3181 C 0.20974 0.12438 0.8431 0.0
C3182 C 0.19209 0.10849 0.84137 0.0
C3183 C 0.21686 0.13264 0.86406 0.0
C3184 C 0.20651 0.12553 0.88421 0.0
H3185 H 0.21784 0.13091 0.82802 0.0
H3186 H 0.23013 0.14524 0.86432 0.0
S3187 S 0.16059 0.08294 0.88909 0.0
N3188 N 0.16531 0.08491 0.86164 0.0
N3189 N 0.17857 0.10051 0.90124 0.0
C3190 C 0.18951 0.10886 0.88285 0.0
C3191 C 0.18235 0.1003 0.86139 0.0
C3192 C 0.59358 0.87346 0.0428 0.0
C3193 C 0.59129 0.85749 0.0603 0.0
C3194 C 0.61481 0.88142 0.03612 0.0
C3195 C 0.63465 0.87396 0.04682 0.0
H3196 H 0.57877 0.88028 0.03447 0.0
H3197 H 0.61553 0.89412 0.02295 0.0
S3198 S 0.638 0.83105 0.09259 0.0
N3199 N 0.61068 0.83345 0.08734 0.0
N3200 N 0.65077 0.84853 0.07494 0.0
C3201 C 0.63272 0.8572 0.06369 0.0
C3202 C 0.61099 0.84893 0.07037 0.0
C3203 C 0.37654 0.88576 0.32715 0.0
C3204 C 0.38116 0.89386 0.30531 0.0
C3205 C 0.38532 0.86503 0.33447 0.0
C3206 C 0.39966 0.85225 0.32049 0.0
H3207 H 0.36511 0.89489 0.33816 0.0
H3208 H 0.38013 0.85848 0.35078 0.0
S3209 S 0.41905 0.86771 0.26302 0.0
N3210 N 0.40204 0.88858 0.27044 0.0
N3211 N 0.41956 0.85003 0.28466 0.0
C3212 C 0.40565 0.86098 0.29926 0.0
C3213 C 0.39611 0.88174 0.29153 0.0
C3214 C 0.38697 0.61961 0.53307 0.0
C3215 C 0.36699 0.62698 0.54356 0.0
C3216 C 0.40809 0.62763 0.54001 0.0
C3217 C 0.41014 0.64352 0.55761 0.0
H3218 H 0.38645 0.60693 0.51986 0.0
H3219 H 0.42301 0.62087 0.53182 0.0
S3220 S 0.36296 0.66987 0.58929 0.0
N3221 N 0.35046 0.65237 0.57147 0.0
N3222 N 0.39035 0.66751 0.5844 0.0
C3223 C 0.39029 0.65204 0.56742 0.0
C3224 C 0.36866 0.64374 0.56045 0.0
C3225 C 0.6213 0.65772 0.78977 0.0
C3226 C 0.60574 0.6599 0.80763 0.0
C3227 C 0.62981 0.63662 0.78337 0.0
C3228 C 0.62329 0.6168 0.79471 0.0
H3229 H 0.62749 0.67258 0.78102 0.0
H3230 H 0.64221 0.63601 0.76992 0.0
S3231 S 0.58175 0.61316 0.84171 0.0
N3232 N 0.58309 0.64041 0.83575 0.0
N3233 N 0.59913 0.60054 0.82386 0.0
C3234 C 0.60687 0.61857 0.81193 0.0
C3235 C 0.59806 0.64017 0.81834 0.0
C3236 C 0.61358 0.15134 0.93555 0.0
C3237 C 0.5936 0.14603 0.94721 0.0
C3238 C 0.6345 0.14256 0.94267 0.0
C3239 C 0.63609 0.12829 0.96173 0.0
H3240 H 0.61288 0.16122 0.92014 0.0
H3241 H 0.64933 0.14619 0.93257 0.0
S3242 S 0.58899 0.11252 1.00003 0.0
N3243 N 0.57695 0.12787 0.98008 0.0
N3244 N 0.61613 0.11163 0.99357 0.0
C3245 C 0.61639 0.12423 0.97436 0.0
C3246 C 0.59518 0.13304 0.96706 0.0
C3247 C 0.13157 0.8654 0.21763 0.0
C3248 C 0.12545 0.8855 0.20656 0.0
C3249 C 0.12306 0.84451 0.21059 0.0
C3250 C 0.10793 0.84281 0.1923 0.0
H3251 H 0.14366 0.86564 0.23137 0.0
H3252 H 0.12891 0.82943 0.21921 0.0
S3253 S 0.08497 0.89043 0.15875 0.0
N3254 N 0.10204 0.90255 0.17724 0.0
N3255 N 0.08601 0.86305 0.16413 0.0
C3256 C 0.10061 0.86281 0.18186 0.0
C3257 C 0.1094 0.88421 0.18895 0.0
C3258 C 0.36955 0.35909 0.4389 0.0
C3259 C 0.3674 0.37233 0.45862 0.0
C3260 C 0.39066 0.35057 0.43205 0.0
C3261 C 0.41023 0.35511 0.4447 0.0
H3262 H 0.35506 0.35618 0.42809 0.0
H3263 H 0.39188 0.34157 0.41615 0.0
S3264 S 0.41318 0.38557 0.49942 0.0
N3265 N 0.38629 0.38703 0.49206 0.0
N3266 N 0.42583 0.37126 0.47908 0.0
C3267 C 0.40803 0.36696 0.46518 0.0
C3268 C 0.38665 0.37551 0.47218 0.0
C3269 C 0.87127 0.63746 0.71952 0.0
C3270 C 0.87813 0.61759 0.70848 0.0
C3271 C 0.87938 0.65861 0.71276 0.0
C3272 C 0.89488 0.66078 0.69483 0.0
H3273 H 0.85891 0.63683 0.73301 0.0
H3274 H 0.87298 0.67348 0.72132 0.0
S3275 S 0.91954 0.61396 0.66136 0.0
N3276 N 0.90245 0.60132 0.67947 0.0
N3277 N 0.91776 0.64126 0.66692 0.0
C3278 C 0.90285 0.64104 0.68439 0.0
C3279 C 0.89444 0.61939 0.69116 0.0
C3280 C 0.53517 0.61532 0.37895 0.0
C3281 C 0.54717 0.63504 0.37338 0.0
C3282 C 0.542 0.5942 0.37089 0.0
C3283 C 0.56101 0.59193 0.35677 0.0
H3284 H 0.52078 0.61604 0.39025 0.0
H3285 H 0.53264 0.5794 0.37626 0.0
S3286 S 0.5974 0.63834 0.3358 0.0
N3287 N 0.57834 0.6511 0.35173 0.0
N3288 N 0.59107 0.61116 0.33652 0.0
C3289 C 0.5725 0.61154 0.35004 0.0
C3290 C 0.56562 0.63317 0.35838 0.0
C3291 C 0.63962 0.82083 0.59919 0.0
C3292 C 0.65932 0.80845 0.60391 0.0
C3293 C 0.6185 0.81367 0.60748 0.0
C3294 C 0.61649 0.79389 0.62066 0.0
H3295 H 0.64071 0.83676 0.59021 0.0
H3296 H 0.6039 0.82429 0.60447 0.0
S3297 S 0.66266 0.75366 0.63423 0.0
N3298 N 0.67519 0.77421 0.62013 0.0
N3299 N 0.63567 0.76067 0.63546 0.0
C3300 C 0.63588 0.7806 0.62401 0.0
C3301 C 0.65726 0.78791 0.61569 0.0
C3302 C 0.43354 0.8916 0.85153 0.0
C3303 C 0.44582 0.91124 0.85671 0.0
C3304 C 0.44037 0.87046 0.85997 0.0
C3305 C 0.45973 0.86832 0.87374 0.0
H3306 H 0.41793 0.89274 0.84201 0.0
H3307 H 0.42983 0.8559 0.85649 0.0
S3308 S 0.49966 0.91431 0.88873 0.0
N3309 N 0.47957 0.92696 0.87405 0.0
N3310 N 0.49253 0.88735 0.88965 0.0
C3311 C 0.47296 0.88766 0.87761 0.0
C3312 C 0.46596 0.9091 0.86915 0.0
C3313 C 0.34488 0.71138 0.12026 0.0
C3314 C 0.34305 0.69234 0.10616 0.0
C3315 C 0.36577 0.7183 0.12885 0.0
C3316 C 0.38567 0.70632 0.1239 0.0
H3317 H 0.32991 0.7207 0.12521 0.0
H3318 H 0.36613 0.73276 0.14009 0.0
S3319 S 0.39006 0.65577 0.08687 0.0
N3320 N 0.36287 0.66212 0.08672 0.0
N3321 N 0.40235 0.67496 0.10301 0.0
C3322 C 0.38423 0.68774 0.10901 0.0
C3323 C 0.36286 0.6808 0.10009 0.0
C3324 C 0.56125 0.36974 0.64329 0.0
C3325 C 0.54192 0.36814 0.62938 0.0
C3326 C 0.56846 0.39063 0.652 0.0
C3327 C 0.55663 0.41057 0.64698 0.0
H3328 H 0.57147 0.35493 0.64667 0.0
H3329 H 0.58404 0.39135 0.66161 0.0
S3330 S 0.50309 0.41512 0.61461 0.0
N3331 N 0.50965 0.38802 0.61344 0.0
N3332 N 0.52332 0.42718 0.62958 0.0
C3333 C 0.53652 0.40898 0.63438 0.0
C3334 C 0.52913 0.38779 0.62563 0.0
C3335 C 0.84642 0.79139 0.8851 0.0
C3336 C 0.84529 0.80867 0.90141 0.0
C3337 C 0.86712 0.78423 0.87617 0.0
C3338 C 0.88754 0.79428 0.88296 0.0
H3339 H 0.83105 0.78389 0.87852 0.0
H3340 H 0.86693 0.7714 0.86312 0.0
S3341 S 0.89389 0.83897 0.92667 0.0
N3342 N 0.86635 0.83454 0.92526 0.0
N3343 N 0.90546 0.82131 0.90838 0.0
C3344 C 0.88677 0.81072 0.90023 0.0
C3345 C 0.86559 0.81785 0.9095 0.0
C3346 C 0.46117 0.09491 0.13106 0.0
C3347 C 0.44317 0.09318 0.14652 0.0
C3348 C 0.46821 0.11586 0.12267 0.0
C3349 C 0.4574 0.13596 0.12924 0.0
H3350 H 0.46956 0.07984 0.12488 0.0
H3351 H 0.48174 0.11615 0.11034 0.0
S3352 S 0.41025 0.14075 0.1705 0.0
N3353 N 0.41546 0.11336 0.16909 0.0
N3354 N 0.42855 0.15293 0.15328 0.0
C3355 C 0.44003 0.1346 0.14554 0.0
C3356 C 0.43297 0.11316 0.15421 0.0
C3357 C 0.15965 0.7122 0.37854 0.0
C3358 C 0.16156 0.69428 0.39407 0.0
C3359 C 0.13859 0.71941 0.37059 0.0
C3360 C 0.11853 0.70884 0.37764 0.0
H3361 H 0.17465 0.72044 0.37201 0.0
H3362 H 0.13817 0.7329 0.35822 0.0
S3363 S 0.11417 0.662 0.41928 0.0
N3364 N 0.14159 0.66692 0.41724 0.0
N3365 N 0.1018 0.6803 0.4022 0.0
C3366 C 0.12008 0.69153 0.39398 0.0
C3367 C 0.14164 0.6843 0.40224 0.0
C3368 C 0.87859 0.53496 0.11493 0.0
C3369 C 0.87274 0.54667 0.13475 0.0
C3370 C 0.87038 0.54177 0.09385 0.0
C3371 C 0.8558 0.56045 0.09167 0.0
H3372 H 0.89026 0.52087 0.11552 0.0
H3373 H 0.87606 0.53268 0.07899 0.0
S3374 S 0.8338 0.59583 0.1384 0.0
N3375 N 0.85023 0.5771 0.15102 0.0
N3376 N 0.83473 0.58977 0.11116 0.0
C3377 C 0.84875 0.57158 0.11139 0.0
C3378 C 0.85726 0.56473 0.13299 0.0
C3379 C 0.35108 0.43247 0.39144 0.0
C3380 C 0.35614 0.44419 0.41145 0.0
C3381 C 0.3595 0.43999 0.37053 0.0
C3382 C 0.37313 0.45951 0.36899 0.0
H3383 H 0.34164 0.41679 0.3921 0.0
H3384 H 0.35613 0.42986 0.35566 0.0
S3385 S 0.38787 0.49807 0.4162 0.0
N3386 N 0.37329 0.47753 0.42821 0.0
N3387 N 0.38882 0.49179 0.38903 0.0
C3388 C 0.37689 0.47216 0.38873 0.0
C3389 C 0.36847 0.46445 0.40994 0.0
C3390 C 0.79081 0.62209 0.65841 0.0
C3391 C 0.80923 0.60715 0.66038 0.0
C3392 C 0.78394 0.63045 0.63739 0.0
C3393 C 0.79533 0.62436 0.61746 0.0
H3394 H 0.78193 0.62786 0.67336 0.0
H3395 H 0.77003 0.64235 0.63691 0.0
S3396 S 0.84392 0.58473 0.61333 0.0
N3397 N 0.83808 0.5857 0.64061 0.0
N3398 N 0.82532 0.60146 0.60091 0.0
C3399 C 0.8132 0.60864 0.61905 0.0
C3400 C 0.8201 0.59999 0.64056 0.0
C3401 C 0.63163 0.04073 0.91083 0.0
C3402 C 0.64688 0.0589 0.91283 0.0
C3403 C 0.62375 0.03354 0.88975 0.0
C3404 C 0.63061 0.04433 0.86975 0.0
H3405 H 0.6253 0.03226 0.92579 0.0
H3406 H 0.6116 0.01985 0.88926 0.0
S3407 S 0.6715 0.09186 0.86561 0.0
N3408 N 0.66958 0.08675 0.89299 0.0
N3409 N 0.65468 0.07337 0.85316 0.0
C3410 C 0.64667 0.0619 0.87138 0.0
C3411 C 0.65485 0.06913 0.89296 0.0
C3412 C 0.71431 0.38436 0.15469 0.0
C3413 C 0.69427 0.39683 0.15751 0.0
C3414 C 0.72082 0.37627 0.13346 0.0
C3415 C 0.70746 0.3802 0.11422 0.0
H3416 H 0.72469 0.38016 0.16919 0.0
H3417 H 0.73606 0.36617 0.1323 0.0
S3418 S 0.65371 0.41269 0.11257 0.0
N3419 N 0.6615 0.41353 0.13937 0.0
N3420 N 0.67359 0.39829 0.09924 0.0
C3421 C 0.68784 0.39355 0.11663 0.0
C3422 C 0.68128 0.4019 0.13835 0.0
C3423 C 0.14191 0.43995 0.13306 0.0
C3424 C 0.12757 0.45895 0.13474 0.0
C3425 C 0.15077 0.43303 0.11211 0.0
C3426 C 0.14547 0.44483 0.09221 0.0
H3427 H 0.14552 0.42976 0.14783 0.0
H3428 H 0.16073 0.41768 0.11133 0.0
S3429 S 0.11186 0.49762 0.08793 0.0
N3430 N 0.11091 0.49092 0.115 0.0
N3431 N 0.12729 0.4778 0.07577 0.0
C3432 C 0.13242 0.46463 0.09391 0.0
C3433 C 0.12354 0.47173 0.11514 0.0
C3434 C 0.8286 0.87877 0.88871 0.0
C3435 C 0.80619 0.88241 0.89572 0.0
C3436 C 0.83623 0.88695 0.86783 0.0
C3437 C 0.82191 0.89972 0.85381 0.0
H3438 H 0.8398 0.86827 0.8987 0.0
H3439 H 0.853 0.88231 0.86208 0.0
S3440 S 0.76272 0.9161 0.86594 0.0
N3441 N 0.77033 0.90072 0.88798 0.0
N3442 N 0.78505 0.91716 0.84917 0.0
C3443 C 0.80006 0.90486 0.86145 0.0
C3444 C 0.79207 0.89591 0.88234 0.0
C3445 C 0.1895 0.61062 0.38182 0.0
C3446 C 0.20912 0.62411 0.38342 0.0
C3447 C 0.18232 0.60176 0.36097 0.0
C3448 C 0.1945 0.60619 0.3411 0.0
H3449 H 0.17904 0.60772 0.39656 0.0
H3450 H 0.16652 0.59253 0.36021 0.0
S3451 S 0.24879 0.63726 0.33666 0.0
N3452 N 0.24196 0.639 0.36366 0.0
N3453 N 0.22836 0.62257 0.3246 0.0
C3454 C 0.21487 0.61834 0.34272 0.0
C3455 C 0.22221 0.62725 0.36386 0.0
loop_
_geom_bond_atom_site_label_1
_geom_bond_atom_site_label_2
_geom_bond_distance
_geom_bond_site_symmetry_2
_ccdc_geom_bond_type
Co0 O1 2.216 . S
Co0 O2 2.091 . S
Co0 O4 2.004 . S
Co0 O10 2.021 . S
Co0 O12 2.137 . S
Co0 O13 2.244 . S
O1 Co0 2.216 . S
O1 C8 1.247 . S
O2 Co0 2.091 . S
O2 C8 1.261 . S
C3 O12 1.247 . S
C3 O13 1.272 . S
O4 Co0 2.004 . S
O4 C9 1.259 . S
Co5 O6 2.061 . S
Co5 O11 2.052 . S
Co5 O13 2.135 . S
O6 Co5 2.061 . S
O6 C9 1.235 . S
C7 O10 1.238 . S
C7 O11 1.241 . S
C8 O1 1.247 . S
C8 O2 1.261 . S
C9 O4 1.259 . S
C9 O6 1.235 . S
O10 Co0 2.021 . S
O10 C7 1.238 . S
O11 Co5 2.052 . S
O11 C7 1.241 . S
O12 Co0 2.137 . S
O12 C3 1.247 . S
O13 Co0 2.244 . S
O13 C3 1.272 . S
O13 Co5 2.135 . S
Co14 O15 2.216 . S
Co14 O16 2.091 . S
Co14 O18 2.004 . S
Co14 O24 2.021 . S
Co14 O26 2.137 . S
Co14 O27 2.244 . S
O15 Co14 2.216 . S
O15 C22 1.247 . S
O16 Co14 2.091 . S
O16 C22 1.261 . S
C17 O26 1.247 . S
C17 O27 1.272 . S
O18 Co14 2.004 . S
O18 C23 1.259 . S
Co19 O20 2.061 . S
Co19 O25 2.052 . S
Co19 O27 2.135 . S
O20 Co19 2.061 . S
O20 C23 1.235 . S
C21 O24 1.238 . S
C21 O25 1.241 . S
C22 O15 1.247 . S
C22 O16 1.261 . S
C23 O18 1.259 . S
C23 O20 1.235 . S
O24 Co14 2.021 . S
O24 C21 1.238 . S
O25 Co19 2.052 . S
O25 C21 1.241 . S
O26 Co14 2.137 . S
O26 C17 1.247 . S
O27 Co14 2.244 . S
O27 C17 1.272 . S
O27 Co19 2.135 . S
Co28 O29 2.216 . S
Co28 O30 2.091 . S
Co28 O32 2.004 . S
Co28 O38 2.021 . S
Co28 O40 2.137 . S
Co28 O41 2.244 . S
O29 Co28 2.216 . S
O29 C36 1.247 . S
O30 Co28 2.091 . S
O30 C36 1.261 . S
C31 O40 1.247 . S
C31 O41 1.272 . S
O32 Co28 2.004 . S
O32 C37 1.259 . S
Co33 O34 2.061 . S
Co33 O39 2.052 . S
Co33 O41 2.135 . S
O34 Co33 2.061 . S
O34 C37 1.235 . S
C35 O38 1.238 . S
C35 O39 1.241 . S
C36 O29 1.247 . S
C36 O30 1.261 . S
C37 O32 1.259 . S
C37 O34 1.235 . S
O38 Co28 2.021 . S
O38 C35 1.238 . S
O39 Co33 2.052 . S
O39 C35 1.241 . S
O40 Co28 2.137 . S
O40 C31 1.247 . S
O41 Co28 2.244 . S
O41 C31 1.272 . S
O41 Co33 2.135 . S
Co42 O43 2.216 . S
Co42 O44 2.091 . S
Co42 O46 2.004 . S
Co42 O52 2.021 . S
Co42 O54 2.137 . S
Co42 O55 2.244 . S
O43 Co42 2.216 . S
O43 C50 1.247 . S
O44 Co42 2.091 . S
O44 C50 1.261 . S
C45 O54 1.247 . S
C45 O55 1.272 . S
O46 Co42 2.004 . S
O46 C51 1.259 . S
Co47 O48 2.061 . S
Co47 O53 2.052 . S
Co47 O55 2.135 . S
O48 Co47 2.061 . S
O48 C51 1.235 . S
C49 O52 1.238 . S
C49 O53 1.241 . S
C50 O43 1.247 . S
C50 O44 1.261 . S
C51 O46 1.259 . S
C51 O48 1.235 . S
O52 Co42 2.021 . S
O52 C49 1.238 . S
O53 Co47 2.052 . S
O53 C49 1.241 . S
O54 Co42 2.137 . S
O54 C45 1.247 . S
O55 Co42 2.244 . S
O55 C45 1.272 . S
O55 Co47 2.135 . S
Co56 O57 2.216 . S
Co56 O58 2.091 . S
Co56 O60 2.004 . S
Co56 O66 2.021 . S
Co56 O68 2.137 . S
Co56 O69 2.244 . S
O57 Co56 2.216 . S
O57 C64 1.247 . S
O58 Co56 2.091 . S
O58 C64 1.261 . S
C59 O68 1.247 . S
C59 O69 1.272 . S
O60 Co56 2.004 . S
O60 C65 1.259 . S
Co61 O62 2.061 . S
Co61 O67 2.052 . S
Co61 O69 2.135 . S
O62 Co61 2.061 . S
O62 C65 1.235 . S
C63 O66 1.238 . S
C63 O67 1.241 . S
C64 O57 1.247 . S
C64 O58 1.261 . S
C65 O60 1.259 . S
C65 O62 1.235 . S
O66 Co56 2.021 . S
O66 C63 1.238 . S
O67 Co61 2.052 . S
O67 C63 1.241 . S
O68 Co56 2.137 . S
O68 C59 1.247 . S
O69 Co56 2.244 . S
O69 C59 1.272 . S
O69 Co61 2.135 . S
Co70 O71 2.216 . S
Co70 O72 2.091 . S
Co70 O74 2.004 . S
Co70 O80 2.021 . S
Co70 O82 2.137 . S
Co70 O83 2.244 . S
O71 Co70 2.216 . S
O71 C78 1.247 . S
O72 Co70 2.091 . S
O72 C78 1.261 . S
C73 O82 1.247 . S
C73 O83 1.272 . S
O74 Co70 2.004 . S
O74 C79 1.259 . S
Co75 O76 2.061 . S
Co75 O81 2.052 . S
Co75 O83 2.135 . S
O76 Co75 2.061 . S
O76 C79 1.235 . S
C77 O80 1.238 . S
C77 O81 1.241 . S
C78 O71 1.247 . S
C78 O72 1.261 . S
C79 O74 1.259 . S
C79 O76 1.235 . S
O80 Co70 2.021 . S
O80 C77 1.238 . S
O81 Co75 2.052 . S
O81 C77 1.241 . S
O82 Co70 2.137 . S
O82 C73 1.247 . S
O83 Co70 2.244 . S
O83 C73 1.272 . S
O83 Co75 2.135 . S
Co84 O85 2.216 . S
Co84 O86 2.091 . S
Co84 O88 2.004 . S
Co84 O94 2.021 . S
Co84 O96 2.137 . S
Co84 O97 2.244 . S
O85 Co84 2.216 . S
O85 C92 1.247 . S
O86 Co84 2.091 . S
O86 C92 1.261 . S
C87 O96 1.247 . S
C87 O97 1.272 . S
O88 Co84 2.004 . S
O88 C93 1.259 . S
Co89 O90 2.061 . S
Co89 O95 2.052 . S
Co89 O97 2.135 . S
O90 Co89 2.061 . S
O90 C93 1.235 . S
C91 O94 1.238 . S
C91 O95 1.241 . S
C92 O85 1.247 . S
C92 O86 1.261 . S
C93 O88 1.259 . S
C93 O90 1.235 . S
O94 Co84 2.021 . S
O94 C91 1.238 . S
O95 Co89 2.052 . S
O95 C91 1.241 . S
O96 Co84 2.137 . S
O96 C87 1.247 . S
O97 Co84 2.244 . S
O97 C87 1.272 . S
O97 Co89 2.135 . S
Co98 O99 2.216 . S
Co98 O100 2.091 . S
Co98 O102 2.004 . S
Co98 O108 2.021 . S
Co98 O110 2.137 . S
Co98 O111 2.244 . S
O99 Co98 2.216 . S
O99 C106 1.247 . S
O100 Co98 2.091 . S
O100 C106 1.261 . S
C101 O110 1.247 . S
C101 O111 1.272 . S
O102 Co98 2.004 . S
O102 C107 1.259 . S
Co103 O104 2.061 . S
Co103 O109 2.052 . S
Co103 O111 2.135 . S
O104 Co103 2.061 . S
O104 C107 1.235 . S
C105 O108 1.238 . S
C105 O109 1.241 . S
C106 O99 1.247 . S
C106 O100 1.261 . S
C107 O102 1.259 . S
C107 O104 1.235 . S
O108 Co98 2.021 . S
O108 C105 1.238 . S
O109 Co103 2.052 . S
O109 C105 1.241 . S
O110 Co98 2.137 . S
O110 C101 1.247 . S
O111 Co98 2.244 . S
O111 C101 1.272 . S
O111 Co103 2.135 . S
Co112 O113 2.216 . S
Co112 O114 2.091 . S
Co112 O116 2.004 . S
Co112 O122 2.021 . S
Co112 O124 2.137 . S
Co112 O125 2.244 . S
O113 Co112 2.216 . S
O113 C120 1.247 . S
O114 Co112 2.091 . S
O114 C120 1.261 . S
C115 O124 1.247 . S
C115 O125 1.272 . S
O116 Co112 2.004 . S
O116 C121 1.259 . S
Co117 O118 2.061 . S
Co117 O123 2.052 . S
Co117 O125 2.135 . S
O118 Co117 2.061 . S
O118 C121 1.235 . S
C119 O122 1.238 . S
C119 O123 1.241 . S
C120 O113 1.247 . S
C120 O114 1.261 . S
C121 O116 1.259 . S
C121 O118 1.235 . S
O122 Co112 2.021 . S
O122 C119 1.238 . S
O123 Co117 2.052 . S
O123 C119 1.241 . S
O124 Co112 2.137 . S
O124 C115 1.247 . S
O125 Co112 2.244 . S
O125 C115 1.272 . S
O125 Co117 2.135 . S
Co126 O127 2.216 . S
Co126 O128 2.091 . S
Co126 O130 2.004 . S
Co126 O136 2.021 . S
Co126 O138 2.137 . S
Co126 O139 2.244 . S
O127 Co126 2.216 . S
O127 C134 1.247 . S
O128 Co126 2.091 . S
O128 C134 1.261 . S
C129 O138 1.247 . S
C129 O139 1.272 . S
O130 Co126 2.004 . S
O130 C135 1.259 . S
Co131 O132 2.061 . S
Co131 O137 2.052 . S
Co131 O139 2.135 . S
O132 Co131 2.061 . S
O132 C135 1.235 . S
C133 O136 1.238 . S
C133 O137 1.241 . S
C134 O127 1.247 . S
C134 O128 1.261 . S
C135 O130 1.259 . S
C135 O132 1.235 . S
O136 Co126 2.021 . S
O136 C133 1.238 . S
O137 Co131 2.052 . S
O137 C133 1.241 . S
O138 Co126 2.137 . S
O138 C129 1.247 . S
O139 Co126 2.244 . S
O139 C129 1.272 . S
O139 Co131 2.135 . S
Co140 O141 2.216 . S
Co140 O142 2.091 . S
Co140 O144 2.004 . S
Co140 O150 2.021 . S
Co140 O152 2.137 . S
Co140 O153 2.244 . S
O141 Co140 2.216 . S
O141 C148 1.247 . S
O142 Co140 2.091 . S
O142 C148 1.261 . S
C143 O152 1.247 . S
C143 O153 1.272 . S
O144 Co140 2.004 . S
O144 C149 1.259 . S
Co145 O146 2.061 . S
Co145 O151 2.052 . S
Co145 O153 2.135 . S
O146 Co145 2.061 . S
O146 C149 1.235 . S
C147 O150 1.238 . S
C147 O151 1.241 . S
C148 O141 1.247 . S
C148 O142 1.261 . S
C149 O144 1.259 . S
C149 O146 1.235 . S
O150 Co140 2.021 . S
O150 C147 1.238 . S
O151 Co145 2.052 . S
O151 C147 1.241 . S
O152 Co140 2.137 . S
O152 C143 1.247 . S
O153 Co140 2.244 . S
O153 C143 1.272 . S
O153 Co145 2.135 . S
Co154 O155 2.216 . S
Co154 O156 2.091 . S
Co154 O158 2.004 . S
Co154 O164 2.021 . S
Co154 O166 2.137 . S
Co154 O167 2.244 . S
O155 Co154 2.216 . S
O155 C162 1.247 . S
O156 Co154 2.091 . S
O156 C162 1.261 . S
C157 O166 1.247 . S
C157 O167 1.272 . S
O158 Co154 2.004 . S
O158 C163 1.259 . S
Co159 O160 2.061 . S
Co159 O165 2.052 . S
Co159 O167 2.135 . S
O160 Co159 2.061 . S
O160 C163 1.235 . S
C161 O164 1.238 . S
C161 O165 1.241 . S
C162 O155 1.247 . S
C162 O156 1.261 . S
C163 O158 1.259 . S
C163 O160 1.235 . S
O164 Co154 2.021 . S
O164 C161 1.238 . S
O165 Co159 2.052 . S
O165 C161 1.241 . S
O166 Co154 2.137 . S
O166 C157 1.247 . S
O167 Co154 2.244 . S
O167 C157 1.272 . S
O167 Co159 2.135 . S
Co168 O169 2.216 . S
Co168 O170 2.091 . S
Co168 O172 2.004 . S
Co168 O178 2.021 . S
Co168 O180 2.137 . S
Co168 O181 2.244 . S
O169 Co168 2.216 . S
O169 C176 1.247 . S
O170 Co168 2.091 . S
O170 C176 1.261 . S
C171 O180 1.247 . S
C171 O181 1.272 . S
O172 Co168 2.004 . S
O172 C177 1.259 . S
Co173 O174 2.061 . S
Co173 O179 2.052 . S
Co173 O181 2.135 . S
O174 Co173 2.061 . S
O174 C177 1.235 . S
C175 O178 1.238 . S
C175 O179 1.241 . S
C176 O169 1.247 . S
C176 O170 1.261 . S
C177 O172 1.259 . S
C177 O174 1.235 . S
O178 Co168 2.021 . S
O178 C175 1.238 . S
O179 Co173 2.052 . S
O179 C175 1.241 . S
O180 Co168 2.137 . S
O180 C171 1.247 . S
O181 Co168 2.244 . S
O181 C171 1.272 . S
O181 Co173 2.135 . S
Co182 O183 2.216 . S
Co182 O184 2.091 . S
Co182 O186 2.004 . S
Co182 O192 2.021 . S
Co182 O194 2.137 . S
Co182 O195 2.244 . S
O183 Co182 2.216 . S
O183 C190 1.247 . S
O184 Co182 2.091 . S
O184 C190 1.261 . S
C185 O194 1.247 . S
C185 O195 1.272 . S
O186 Co182 2.004 . S
O186 C191 1.259 . S
Co187 O188 2.061 . S
Co187 O193 2.052 . S
Co187 O195 2.135 . S
O188 Co187 2.061 . S
O188 C191 1.235 . S
C189 O192 1.238 . S
C189 O193 1.241 . S
C190 O183 1.247 . S
C190 O184 1.261 . S
C191 O186 1.259 . S
C191 O188 1.235 . S
O192 Co182 2.021 . S
O192 C189 1.238 . S
O193 Co187 2.052 . S
O193 C189 1.241 . S
O194 Co182 2.137 . S
O194 C185 1.247 . S
O195 Co182 2.244 . S
O195 C185 1.272 . S
O195 Co187 2.135 . S
Co196 O197 2.216 . S
Co196 O198 2.091 . S
Co196 O200 2.004 . S
Co196 O206 2.021 . S
Co196 O208 2.137 . S
Co196 O209 2.244 . S
O197 Co196 2.216 . S
O197 C204 1.247 . S
O198 Co196 2.091 . S
O198 C204 1.261 . S
C199 O208 1.247 . S
C199 O209 1.272 . S
O200 Co196 2.004 . S
O200 C205 1.259 . S
Co201 O202 2.061 . S
Co201 O207 2.052 . S
Co201 O209 2.135 . S
O202 Co201 2.061 . S
O202 C205 1.235 . S
C203 O206 1.238 . S
C203 O207 1.241 . S
C204 O197 1.247 . S
C204 O198 1.261 . S
C205 O200 1.259 . S
C205 O202 1.235 . S
O206 Co196 2.021 . S
O206 C203 1.238 . S
O207 Co201 2.052 . S
O207 C203 1.241 . S
O208 Co196 2.137 . S
O208 C199 1.247 . S
O209 Co196 2.244 . S
O209 C199 1.272 . S
O209 Co201 2.135 . S
Co210 O211 2.216 . S
Co210 O212 2.091 . S
Co210 O214 2.004 . S
Co210 O220 2.021 . S
Co210 O222 2.137 . S
Co210 O223 2.244 . S
O211 Co210 2.216 . S
O211 C218 1.247 . S
O212 Co210 2.091 . S
O212 C218 1.261 . S
C213 O222 1.247 . S
C213 O223 1.272 . S
O214 Co210 2.004 . S
O214 C219 1.259 . S
Co215 O216 2.061 . S
Co215 O221 2.052 . S
Co215 O223 2.135 . S
O216 Co215 2.061 . S
O216 C219 1.235 . S
C217 O220 1.238 . S
C217 O221 1.241 . S
C218 O211 1.247 . S
C218 O212 1.261 . S
C219 O214 1.259 . S
C219 O216 1.235 . S
O220 Co210 2.021 . S
O220 C217 1.238 . S
O221 Co215 2.052 . S
O221 C217 1.241 . S
O222 Co210 2.137 . S
O222 C213 1.247 . S
O223 Co210 2.244 . S
O223 C213 1.272 . S
O223 Co215 2.135 . S
Co224 O225 2.216 . S
Co224 O226 2.091 . S
Co224 O228 2.004 . S
Co224 O234 2.021 . S
Co224 O236 2.137 . S
Co224 O237 2.244 . S
O225 Co224 2.216 . S
O225 C232 1.247 . S
O226 Co224 2.091 . S
O226 C232 1.261 . S
C227 O236 1.247 . S
C227 O237 1.272 . S
O228 Co224 2.004 . S
O228 C233 1.259 . S
Co229 O230 2.061 . S
Co229 O235 2.052 . S
Co229 O237 2.135 . S
O230 Co229 2.061 . S
O230 C233 1.235 . S
C231 O234 1.238 . S
C231 O235 1.241 . S
C232 O225 1.247 . S
C232 O226 1.261 . S
C233 O228 1.259 . S
C233 O230 1.235 . S
O234 Co224 2.021 . S
O234 C231 1.238 . S
O235 Co229 2.052 . S
O235 C231 1.241 . S
O236 Co224 2.137 . S
O236 C227 1.247 . S
O237 Co224 2.244 . S
O237 C227 1.272 . S
O237 Co229 2.135 . S
Co238 O239 2.216 . S
Co238 O240 2.091 . S
Co238 O242 2.004 . S
Co238 O248 2.021 . S
Co238 O250 2.137 . S
Co238 O251 2.244 . S
O239 Co238 2.216 . S
O239 C246 1.247 . S
O240 Co238 2.091 . S
O240 C246 1.261 . S
C241 O250 1.247 . S
C241 O251 1.272 . S
O242 Co238 2.004 . S
O242 C247 1.259 . S
Co243 O244 2.061 . S
Co243 O249 2.052 . S
Co243 O251 2.135 . S
O244 Co243 2.061 . S
O244 C247 1.235 . S
C245 O248 1.238 . S
C245 O249 1.241 . S
C246 O239 1.247 . S
C246 O240 1.261 . S
C247 O242 1.259 . S
C247 O244 1.235 . S
O248 Co238 2.021 . S
O248 C245 1.238 . S
O249 Co243 2.052 . S
O249 C245 1.241 . S
O250 Co238 2.137 . S
O250 C241 1.247 . S
O251 Co238 2.244 . S
O251 C241 1.272 . S
O251 Co243 2.135 . S
Co252 O253 2.216 . S
Co252 O254 2.091 . S
Co252 O256 2.004 . S
Co252 O262 2.021 . S
Co252 O264 2.137 . S
Co252 O265 2.244 . S
O253 Co252 2.216 . S
O253 C260 1.247 . S
O254 Co252 2.091 . S
O254 C260 1.261 . S
C255 O264 1.247 . S
C255 O265 1.272 . S
O256 Co252 2.004 . S
O256 C261 1.259 . S
Co257 O258 2.061 . S
Co257 O263 2.052 . S
Co257 O265 2.135 . S
O258 Co257 2.061 . S
O258 C261 1.235 . S
C259 O262 1.238 . S
C259 O263 1.241 . S
C260 O253 1.247 . S
C260 O254 1.261 . S
C261 O256 1.259 . S
C261 O258 1.235 . S
O262 Co252 2.021 . S
O262 C259 1.238 . S
O263 Co257 2.052 . S
O263 C259 1.241 . S
O264 Co252 2.137 . S
O264 C255 1.247 . S
O265 Co252 2.244 . S
O265 C255 1.272 . S
O265 Co257 2.135 . S
Co266 O267 2.216 . S
Co266 O268 2.091 . S
Co266 O270 2.004 . S
Co266 O276 2.021 . S
Co266 O278 2.137 . S
Co266 O279 2.244 . S
O267 Co266 2.216 . S
O267 C274 1.247 . S
O268 Co266 2.091 . S
O268 C274 1.261 . S
C269 O278 1.247 . S
C269 O279 1.272 . S
O270 Co266 2.004 . S
O270 C275 1.259 . S
Co271 O272 2.061 . S
Co271 O277 2.052 . S
Co271 O279 2.135 . S
O272 Co271 2.061 . S
O272 C275 1.235 . S
C273 O276 1.238 . S
C273 O277 1.241 . S
C274 O267 1.247 . S
C274 O268 1.261 . S
C275 O270 1.259 . S
C275 O272 1.235 . S
O276 Co266 2.021 . S
O276 C273 1.238 . S
O277 Co271 2.052 . S
O277 C273 1.241 . S
O278 Co266 2.137 . S
O278 C269 1.247 . S
O279 Co266 2.244 . S
O279 C269 1.272 . S
O279 Co271 2.135 . S
Co280 O281 2.216 . S
Co280 O282 2.091 . S
Co280 O284 2.004 . S
Co280 O290 2.021 . S
Co280 O292 2.137 . S
Co280 O293 2.244 . S
O281 Co280 2.216 . S
O281 C288 1.247 . S
O282 Co280 2.091 . S
O282 C288 1.261 . S
C283 O292 1.247 . S
C283 O293 1.272 . S
O284 Co280 2.004 . S
O284 C289 1.259 . S
Co285 O286 2.061 . S
Co285 O291 2.052 . S
Co285 O293 2.135 . S
O286 Co285 2.061 . S
O286 C289 1.235 . S
C287 O290 1.238 . S
C287 O291 1.241 . S
C288 O281 1.247 . S
C288 O282 1.261 . S
C289 O284 1.259 . S
C289 O286 1.235 . S
O290 Co280 2.021 . S
O290 C287 1.238 . S
O291 Co285 2.052 . S
O291 C287 1.241 . S
O292 Co280 2.137 . S
O292 C283 1.247 . S
O293 Co280 2.244 . S
O293 C283 1.272 . S
O293 Co285 2.135 . S
Co294 O295 2.216 . S
Co294 O296 2.091 . S
Co294 O298 2.004 . S
Co294 O304 2.021 . S
Co294 O306 2.137 . S
Co294 O307 2.244 . S
O295 Co294 2.216 . S
O295 C302 1.247 . S
O296 Co294 2.091 . S
O296 C302 1.261 . S
C297 O306 1.247 . S
C297 O307 1.272 . S
O298 Co294 2.004 . S
O298 C303 1.259 . S
Co299 O300 2.061 . S
Co299 O305 2.052 . S
Co299 O307 2.135 . S
O300 Co299 2.061 . S
O300 C303 1.235 . S
C301 O304 1.238 . S
C301 O305 1.241 . S
C302 O295 1.247 . S
C302 O296 1.261 . S
C303 O298 1.259 . S
C303 O300 1.235 . S
O304 Co294 2.021 . S
O304 C301 1.238 . S
O305 Co299 2.052 . S
O305 C301 1.241 . S
O306 Co294 2.137 . S
O306 C297 1.247 . S
O307 Co294 2.244 . S
O307 C297 1.272 . S
O307 Co299 2.135 . S
Co308 O309 2.216 . S
Co308 O310 2.091 . S
Co308 O312 2.004 . S
Co308 O318 2.021 . S
Co308 O320 2.137 . S
Co308 O321 2.244 . S
O309 Co308 2.216 . S
O309 C316 1.247 . S
O310 Co308 2.091 . S
O310 C316 1.261 . S
C311 O320 1.247 . S
C311 O321 1.272 . S
O312 Co308 2.004 . S
O312 C317 1.259 . S
Co313 O314 2.061 . S
Co313 O319 2.052 . S
Co313 O321 2.135 . S
O314 Co313 2.061 . S
O314 C317 1.235 . S
C315 O318 1.238 . S
C315 O319 1.241 . S
C316 O309 1.247 . S
C316 O310 1.261 . S
C317 O312 1.259 . S
C317 O314 1.235 . S
O318 Co308 2.021 . S
O318 C315 1.238 . S
O319 Co313 2.052 . S
O319 C315 1.241 . S
O320 Co308 2.137 . S
O320 C311 1.247 . S
O321 Co308 2.244 . S
O321 C311 1.272 . S
O321 Co313 2.135 . S
Co322 O323 2.216 . S
Co322 O324 2.091 . S
Co322 O326 2.004 . S
Co322 O332 2.021 . S
Co322 O334 2.137 . S
Co322 O335 2.244 . S
O323 Co322 2.216 . S
O323 C330 1.247 . S
O324 Co322 2.091 . S
O324 C330 1.261 . S
C325 O334 1.247 . S
C325 O335 1.272 . S
O326 Co322 2.004 . S
O326 C331 1.259 . S
Co327 O328 2.061 . S
Co327 O333 2.052 . S
Co327 O335 2.135 . S
O328 Co327 2.061 . S
O328 C331 1.235 . S
C329 O332 1.238 . S
C329 O333 1.241 . S
C330 O323 1.247 . S
C330 O324 1.261 . S
C331 O326 1.259 . S
C331 O328 1.235 . S
O332 Co322 2.021 . S
O332 C329 1.238 . S
O333 Co327 2.052 . S
O333 C329 1.241 . S
O334 Co322 2.137 . S
O334 C325 1.247 . S
O335 Co322 2.244 . S
O335 C325 1.272 . S
O335 Co327 2.135 . S
Co336 O337 2.216 . S
Co336 O338 2.091 . S
Co336 O340 2.004 . S
Co336 O346 2.021 . S
Co336 O348 2.137 . S
Co336 O349 2.244 . S
O337 Co336 2.216 . S
O337 C344 1.247 . S
O338 Co336 2.091 . S
O338 C344 1.261 . S
C339 O348 1.247 . S
C339 O349 1.272 . S
O340 Co336 2.004 . S
O340 C345 1.259 . S
Co341 O342 2.061 . S
Co341 O347 2.052 . S
Co341 O349 2.135 . S
O342 Co341 2.061 . S
O342 C345 1.235 . S
C343 O346 1.238 . S
C343 O347 1.241 . S
C344 O337 1.247 . S
C344 O338 1.261 . S
C345 O340 1.259 . S
C345 O342 1.235 . S
O346 Co336 2.021 . S
O346 C343 1.238 . S
O347 Co341 2.052 . S
O347 C343 1.241 . S
O348 Co336 2.137 . S
O348 C339 1.247 . S
O349 Co336 2.244 . S
O349 C339 1.272 . S
O349 Co341 2.135 . S
Co350 O351 2.216 . S
Co350 O352 2.091 . S
Co350 O354 2.004 . S
Co350 O360 2.021 . S
Co350 O362 2.137 . S
Co350 O363 2.244 . S
O351 Co350 2.216 . S
O351 C358 1.247 . S
O352 Co350 2.091 . S
O352 C358 1.261 . S
C353 O362 1.247 . S
C353 O363 1.272 . S
O354 Co350 2.004 . S
O354 C359 1.259 . S
Co355 O356 2.061 . S
Co355 O361 2.052 . S
Co355 O363 2.135 . S
O356 Co355 2.061 . S
O356 C359 1.235 . S
C357 O360 1.238 . S
C357 O361 1.241 . S
C358 O351 1.247 . S
C358 O352 1.261 . S
C359 O354 1.259 . S
C359 O356 1.235 . S
O360 Co350 2.021 . S
O360 C357 1.238 . S
O361 Co355 2.052 . S
O361 C357 1.241 . S
O362 Co350 2.137 . S
O362 C353 1.247 . S
O363 Co350 2.244 . S
O363 C353 1.272 . S
O363 Co355 2.135 . S
Co364 O365 2.216 . S
Co364 O366 2.091 . S
Co364 O368 2.004 . S
Co364 O374 2.021 . S
Co364 O376 2.137 . S
Co364 O377 2.244 . S
O365 Co364 2.216 . S
O365 C372 1.247 . S
O366 Co364 2.091 . S
O366 C372 1.261 . S
C367 O376 1.247 . S
C367 O377 1.272 . S
O368 Co364 2.004 . S
O368 C373 1.259 . S
Co369 O370 2.061 . S
Co369 O375 2.052 . S
Co369 O377 2.135 . S
O370 Co369 2.061 . S
O370 C373 1.235 . S
C371 O374 1.238 . S
C371 O375 1.241 . S
C372 O365 1.247 . S
C372 O366 1.261 . S
C373 O368 1.259 . S
C373 O370 1.235 . S
O374 Co364 2.021 . S
O374 C371 1.238 . S
O375 Co369 2.052 . S
O375 C371 1.241 . S
O376 Co364 2.137 . S
O376 C367 1.247 . S
O377 Co364 2.244 . S
O377 C367 1.272 . S
O377 Co369 2.135 . S
Co378 O379 2.216 . S
Co378 O380 2.091 . S
Co378 O382 2.004 . S
Co378 O388 2.021 . S
Co378 O390 2.137 . S
Co378 O391 2.244 . S
O379 Co378 2.216 . S
O379 C386 1.247 . S
O380 Co378 2.091 . S
O380 C386 1.261 . S
C381 O390 1.247 . S
C381 O391 1.272 . S
O382 Co378 2.004 . S
O382 C387 1.259 . S
Co383 O384 2.061 . S
Co383 O389 2.052 . S
Co383 O391 2.135 . S
O384 Co383 2.061 . S
O384 C387 1.235 . S
C385 O388 1.238 . S
C385 O389 1.241 . S
C386 O379 1.247 . S
C386 O380 1.261 . S
C387 O382 1.259 . S
C387 O384 1.235 . S
O388 Co378 2.021 . S
O388 C385 1.238 . S
O389 Co383 2.052 . S
O389 C385 1.241 . S
O390 Co378 2.137 . S
O390 C381 1.247 . S
O391 Co378 2.244 . S
O391 C381 1.272 . S
O391 Co383 2.135 . S
Co392 O393 2.216 . S
Co392 O394 2.091 . S
Co392 O396 2.004 . S
Co392 O402 2.021 . S
Co392 O404 2.137 . S
Co392 O405 2.244 . S
O393 Co392 2.216 . S
O393 C400 1.247 . S
O394 Co392 2.091 . S
O394 C400 1.261 . S
C395 O404 1.247 . S
C395 O405 1.272 . S
O396 Co392 2.004 . S
O396 C401 1.259 . S
Co397 O398 2.061 . S
Co397 O403 2.052 . S
Co397 O405 2.135 . S
O398 Co397 2.061 . S
O398 C401 1.235 . S
C399 O402 1.238 . S
C399 O403 1.241 . S
C400 O393 1.247 . S
C400 O394 1.261 . S
C401 O396 1.259 . S
C401 O398 1.235 . S
O402 Co392 2.021 . S
O402 C399 1.238 . S
O403 Co397 2.052 . S
O403 C399 1.241 . S
O404 Co392 2.137 . S
O404 C395 1.247 . S
O405 Co392 2.244 . S
O405 C395 1.272 . S
O405 Co397 2.135 . S
Co406 O407 2.216 . S
Co406 O408 2.091 . S
Co406 O410 2.004 . S
Co406 O416 2.021 . S
Co406 O418 2.137 . S
Co406 O419 2.244 . S
O407 Co406 2.216 . S
O407 C414 1.247 . S
O408 Co406 2.091 . S
O408 C414 1.261 . S
C409 O418 1.247 . S
C409 O419 1.272 . S
O410 Co406 2.004 . S
O410 C415 1.259 . S
Co411 O412 2.061 . S
Co411 O417 2.052 . S
Co411 O419 2.135 . S
O412 Co411 2.061 . S
O412 C415 1.235 . S
C413 O416 1.238 . S
C413 O417 1.241 . S
C414 O407 1.247 . S
C414 O408 1.261 . S
C415 O410 1.259 . S
C415 O412 1.235 . S
O416 Co406 2.021 . S
O416 C413 1.238 . S
O417 Co411 2.052 . S
O417 C413 1.241 . S
O418 Co406 2.137 . S
O418 C409 1.247 . S
O419 Co406 2.244 . S
O419 C409 1.272 . S
O419 Co411 2.135 . S
Co420 O421 2.216 . S
Co420 O422 2.091 . S
Co420 O424 2.004 . S
Co420 O430 2.021 . S
Co420 O432 2.137 . S
Co420 O433 2.244 . S
O421 Co420 2.216 . S
O421 C428 1.247 . S
O422 Co420 2.091 . S
O422 C428 1.261 . S
C423 O432 1.247 . S
C423 O433 1.272 . S
O424 Co420 2.004 . S
O424 C429 1.259 . S
Co425 O426 2.061 . S
Co425 O431 2.052 . S
Co425 O433 2.135 . S
O426 Co425 2.061 . S
O426 C429 1.235 . S
C427 O430 1.238 . S
C427 O431 1.241 . S
C428 O421 1.247 . S
C428 O422 1.261 . S
C429 O424 1.259 . S
C429 O426 1.235 . S
O430 Co420 2.021 . S
O430 C427 1.238 . S
O431 Co425 2.052 . S
O431 C427 1.241 . S
O432 Co420 2.137 . S
O432 C423 1.247 . S
O433 Co420 2.244 . S
O433 C423 1.272 . S
O433 Co425 2.135 . S
Co434 O435 2.216 . S
Co434 O436 2.091 . S
Co434 O438 2.004 . S
Co434 O444 2.021 . S
Co434 O446 2.137 . S
Co434 O447 2.244 . S
O435 Co434 2.216 . S
O435 C442 1.247 . S
O436 Co434 2.091 . S
O436 C442 1.261 . S
C437 O446 1.247 . S
C437 O447 1.272 . S
O438 Co434 2.004 . S
O438 C443 1.259 . S
Co439 O440 2.061 . S
Co439 O445 2.052 . S
Co439 O447 2.135 . S
O440 Co439 2.061 . S
O440 C443 1.235 . S
C441 O444 1.238 . S
C441 O445 1.241 . S
C442 O435 1.247 . S
C442 O436 1.261 . S
C443 O438 1.259 . S
C443 O440 1.235 . S
O444 Co434 2.021 . S
O444 C441 1.238 . S
O445 Co439 2.052 . S
O445 C441 1.241 . S
O446 Co434 2.137 . S
O446 C437 1.247 . S
O447 Co434 2.244 . S
O447 C437 1.272 . S
O447 Co439 2.135 . S
Co448 O449 2.216 . S
Co448 O450 2.091 . S
Co448 O452 2.004 . S
Co448 O458 2.021 . S
Co448 O460 2.137 . S
Co448 O461 2.244 . S
O449 Co448 2.216 . S
O449 C456 1.247 . S
O450 Co448 2.091 . S
O450 C456 1.261 . S
C451 O460 1.247 . S
C451 O461 1.272 . S
O452 Co448 2.004 . S
O452 C457 1.259 . S
Co453 O454 2.061 . S
Co453 O459 2.052 . S
Co453 O461 2.135 . S
O454 Co453 2.061 . S
O454 C457 1.235 . S
C455 O458 1.238 . S
C455 O459 1.241 . S
C456 O449 1.247 . S
C456 O450 1.261 . S
C457 O452 1.259 . S
C457 O454 1.235 . S
O458 Co448 2.021 . S
O458 C455 1.238 . S
O459 Co453 2.052 . S
O459 C455 1.241 . S
O460 Co448 2.137 . S
O460 C451 1.247 . S
O461 Co448 2.244 . S
O461 C451 1.272 . S
O461 Co453 2.135 . S
Co462 O463 2.216 . S
Co462 O464 2.091 . S
Co462 O466 2.004 . S
Co462 O472 2.021 . S
Co462 O474 2.137 . S
Co462 O475 2.244 . S
O463 Co462 2.216 . S
O463 C470 1.247 . S
O464 Co462 2.091 . S
O464 C470 1.261 . S
C465 O474 1.247 . S
C465 O475 1.272 . S
O466 Co462 2.004 . S
O466 C471 1.259 . S
Co467 O468 2.061 . S
Co467 O473 2.052 . S
Co467 O475 2.135 . S
O468 Co467 2.061 . S
O468 C471 1.235 . S
C469 O472 1.238 . S
C469 O473 1.241 . S
C470 O463 1.247 . S
C470 O464 1.261 . S
C471 O466 1.259 . S
C471 O468 1.235 . S
O472 Co462 2.021 . S
O472 C469 1.238 . S
O473 Co467 2.052 . S
O473 C469 1.241 . S
O474 Co462 2.137 . S
O474 C465 1.247 . S
O475 Co462 2.244 . S
O475 C465 1.272 . S
O475 Co467 2.135 . S
Co476 O477 2.216 . S
Co476 O478 2.091 . S
Co476 O480 2.004 . S
Co476 O486 2.021 . S
Co476 O488 2.137 . S
Co476 O489 2.244 . S
O477 Co476 2.216 . S
O477 C484 1.247 . S
O478 Co476 2.091 . S
O478 C484 1.261 . S
C479 O488 1.247 . S
C479 O489 1.272 . S
O480 Co476 2.004 . S
O480 C485 1.259 . S
Co481 O482 2.061 . S
Co481 O487 2.052 . S
Co481 O489 2.135 . S
O482 Co481 2.061 . S
O482 C485 1.235 . S
C483 O486 1.238 . S
C483 O487 1.241 . S
C484 O477 1.247 . S
C484 O478 1.261 . S
C485 O480 1.259 . S
C485 O482 1.235 . S
O486 Co476 2.021 . S
O486 C483 1.238 . S
O487 Co481 2.052 . S
O487 C483 1.241 . S
O488 Co476 2.137 . S
O488 C479 1.247 . S
O489 Co476 2.244 . S
O489 C479 1.272 . S
O489 Co481 2.135 . S
Co490 O491 2.216 . S
Co490 O492 2.091 . S
Co490 O494 2.004 . S
Co490 O500 2.021 . S
Co490 O502 2.137 . S
Co490 O503 2.244 . S
O491 Co490 2.216 . S
O491 C498 1.247 . S
O492 Co490 2.091 . S
O492 C498 1.261 . S
C493 O502 1.247 . S
C493 O503 1.272 . S
O494 Co490 2.004 . S
O494 C499 1.259 . S
Co495 O496 2.061 . S
Co495 O501 2.052 . S
Co495 O503 2.135 . S
O496 Co495 2.061 . S
O496 C499 1.235 . S
C497 O500 1.238 . S
C497 O501 1.241 . S
C498 O491 1.247 . S
C498 O492 1.261 . S
C499 O494 1.259 . S
C499 O496 1.235 . S
O500 Co490 2.021 . S
O500 C497 1.238 . S
O501 Co495 2.052 . S
O501 C497 1.241 . S
O502 Co490 2.137 . S
O502 C493 1.247 . S
O503 Co490 2.244 . S
O503 C493 1.272 . S
O503 Co495 2.135 . S
Co504 O505 2.216 . S
Co504 O506 2.091 . S
Co504 O508 2.004 . S
Co504 O514 2.021 . S
Co504 O516 2.137 . S
Co504 O517 2.244 . S
O505 Co504 2.216 . S
O505 C512 1.247 . S
O506 Co504 2.091 . S
O506 C512 1.261 . S
C507 O516 1.247 . S
C507 O517 1.272 . S
O508 Co504 2.004 . S
O508 C513 1.259 . S
Co509 O510 2.061 . S
Co509 O515 2.052 . S
Co509 O517 2.135 . S
O510 Co509 2.061 . S
O510 C513 1.235 . S
C511 O514 1.238 . S
C511 O515 1.241 . S
C512 O505 1.247 . S
C512 O506 1.261 . S
C513 O508 1.259 . S
C513 O510 1.235 . S
O514 Co504 2.021 . S
O514 C511 1.238 . S
O515 Co509 2.052 . S
O515 C511 1.241 . S
O516 Co504 2.137 . S
O516 C507 1.247 . S
O517 Co504 2.244 . S
O517 C507 1.272 . S
O517 Co509 2.135 . S
Co518 O519 2.216 . S
Co518 O520 2.091 . S
Co518 O522 2.004 . S
Co518 O528 2.021 . S
Co518 O530 2.137 . S
Co518 O531 2.244 . S
O519 Co518 2.216 . S
O519 C526 1.247 . S
O520 Co518 2.091 . S
O520 C526 1.261 . S
C521 O530 1.247 . S
C521 O531 1.272 . S
O522 Co518 2.004 . S
O522 C527 1.259 . S
Co523 O524 2.061 . S
Co523 O529 2.052 . S
Co523 O531 2.135 . S
O524 Co523 2.061 . S
O524 C527 1.235 . S
C525 O528 1.238 . S
C525 O529 1.241 . S
C526 O519 1.247 . S
C526 O520 1.261 . S
C527 O522 1.259 . S
C527 O524 1.235 . S
O528 Co518 2.021 . S
O528 C525 1.238 . S
O529 Co523 2.052 . S
O529 C525 1.241 . S
O530 Co518 2.137 . S
O530 C521 1.247 . S
O531 Co518 2.244 . S
O531 C521 1.272 . S
O531 Co523 2.135 . S
Co532 O533 2.216 . S
Co532 O534 2.091 . S
Co532 O536 2.004 . S
Co532 O542 2.021 . S
Co532 O544 2.137 . S
Co532 O545 2.244 . S
O533 Co532 2.216 . S
O533 C540 1.247 . S
O534 Co532 2.091 . S
O534 C540 1.261 . S
C535 O544 1.247 . S
C535 O545 1.272 . S
O536 Co532 2.004 . S
O536 C541 1.259 . S
Co537 O538 2.061 . S
Co537 O543 2.052 . S
Co537 O545 2.135 . S
O538 Co537 2.061 . S
O538 C541 1.235 . S
C539 O542 1.238 . S
C539 O543 1.241 . S
C540 O533 1.247 . S
C540 O534 1.261 . S
C541 O536 1.259 . S
C541 O538 1.235 . S
O542 Co532 2.021 . S
O542 C539 1.238 . S
O543 Co537 2.052 . S
O543 C539 1.241 . S
O544 Co532 2.137 . S
O544 C535 1.247 . S
O545 Co532 2.244 . S
O545 C535 1.272 . S
O545 Co537 2.135 . S
Co546 O547 2.216 . S
Co546 O548 2.091 . S
Co546 O550 2.004 . S
Co546 O556 2.021 . S
Co546 O558 2.137 . S
Co546 O559 2.244 . S
O547 Co546 2.216 . S
O547 C554 1.247 . S
O548 Co546 2.091 . S
O548 C554 1.261 . S
C549 O558 1.247 . S
C549 O559 1.272 . S
O550 Co546 2.004 . S
O550 C555 1.259 . S
Co551 O552 2.061 . S
Co551 O557 2.052 . S
Co551 O559 2.135 . S
O552 Co551 2.061 . S
O552 C555 1.235 . S
C553 O556 1.238 . S
C553 O557 1.241 . S
C554 O547 1.247 . S
C554 O548 1.261 . S
C555 O550 1.259 . S
C555 O552 1.235 . S
O556 Co546 2.021 . S
O556 C553 1.238 . S
O557 Co551 2.052 . S
O557 C553 1.241 . S
O558 Co546 2.137 . S
O558 C549 1.247 . S
O559 Co546 2.244 . S
O559 C549 1.272 . S
O559 Co551 2.135 . S
Co560 O561 2.216 . S
Co560 O562 2.091 . S
Co560 O564 2.004 . S
Co560 O570 2.021 . S
Co560 O572 2.137 . S
Co560 O573 2.244 . S
O561 Co560 2.216 . S
O561 C568 1.247 . S
O562 Co560 2.091 . S
O562 C568 1.261 . S
C563 O572 1.247 . S
C563 O573 1.272 . S
O564 Co560 2.004 . S
O564 C569 1.259 . S
Co565 O566 2.061 . S
Co565 O571 2.052 . S
Co565 O573 2.135 . S
O566 Co565 2.061 . S
O566 C569 1.235 . S
C567 O570 1.238 . S
C567 O571 1.241 . S
C568 O561 1.247 . S
C568 O562 1.261 . S
C569 O564 1.259 . S
C569 O566 1.235 . S
O570 Co560 2.021 . S
O570 C567 1.238 . S
O571 Co565 2.052 . S
O571 C567 1.241 . S
O572 Co560 2.137 . S
O572 C563 1.247 . S
O573 Co560 2.244 . S
O573 C563 1.272 . S
O573 Co565 2.135 . S
Co574 O575 2.216 . S
Co574 O576 2.091 . S
Co574 O578 2.004 . S
Co574 O584 2.021 . S
Co574 O586 2.137 . S
Co574 O587 2.244 . S
O575 Co574 2.216 . S
O575 C582 1.247 . S
O576 Co574 2.091 . S
O576 C582 1.261 . S
C577 O586 1.247 . S
C577 O587 1.272 . S
O578 Co574 2.004 . S
O578 C583 1.259 . S
Co579 O580 2.061 . S
Co579 O585 2.052 . S
Co579 O587 2.135 . S
O580 Co579 2.061 . S
O580 C583 1.235 . S
C581 O584 1.238 . S
C581 O585 1.241 . S
C582 O575 1.247 . S
C582 O576 1.261 . S
C583 O578 1.259 . S
C583 O580 1.235 . S
O584 Co574 2.021 . S
O584 C581 1.238 . S
O585 Co579 2.052 . S
O585 C581 1.241 . S
O586 Co574 2.137 . S
O586 C577 1.247 . S
O587 Co574 2.244 . S
O587 C577 1.272 . S
O587 Co579 2.135 . S
Co588 O589 2.216 . S
Co588 O590 2.091 . S
Co588 O592 2.004 . S
Co588 O598 2.021 . S
Co588 O600 2.137 . S
Co588 O601 2.244 . S
O589 Co588 2.216 . S
O589 C596 1.247 . S
O590 Co588 2.091 . S
O590 C596 1.261 . S
C591 O600 1.247 . S
C591 O601 1.272 . S
O592 Co588 2.004 . S
O592 C597 1.259 . S
Co593 O594 2.061 . S
Co593 O599 2.052 . S
Co593 O601 2.135 . S
O594 Co593 2.061 . S
O594 C597 1.235 . S
C595 O598 1.238 . S
C595 O599 1.241 . S
C596 O589 1.247 . S
C596 O590 1.261 . S
C597 O592 1.259 . S
C597 O594 1.235 . S
O598 Co588 2.021 . S
O598 C595 1.238 . S
O599 Co593 2.052 . S
O599 C595 1.241 . S
O600 Co588 2.137 . S
O600 C591 1.247 . S
O601 Co588 2.244 . S
O601 C591 1.272 . S
O601 Co593 2.135 . S
Co602 O603 2.216 . S
Co602 O604 2.091 . S
Co602 O606 2.004 . S
Co602 O612 2.021 . S
Co602 O614 2.137 . S
Co602 O615 2.244 . S
O603 Co602 2.216 . S
O603 C610 1.247 . S
O604 Co602 2.091 . S
O604 C610 1.261 . S
C605 O614 1.247 . S
C605 O615 1.272 . S
O606 Co602 2.004 . S
O606 C611 1.259 . S
Co607 O608 2.061 . S
Co607 O613 2.052 . S
Co607 O615 2.135 . S
O608 Co607 2.061 . S
O608 C611 1.235 . S
C609 O612 1.238 . S
C609 O613 1.241 . S
C610 O603 1.247 . S
C610 O604 1.261 . S
C611 O606 1.259 . S
C611 O608 1.235 . S
O612 Co602 2.021 . S
O612 C609 1.238 . S
O613 Co607 2.052 . S
O613 C609 1.241 . S
O614 Co602 2.137 . S
O614 C605 1.247 . S
O615 Co602 2.244 . S
O615 C605 1.272 . S
O615 Co607 2.135 . S
Co616 O617 2.216 . S
Co616 O618 2.091 . S
Co616 O620 2.004 . S
Co616 O626 2.021 . S
Co616 O628 2.137 . S
Co616 O629 2.244 . S
O617 Co616 2.216 . S
O617 C624 1.247 . S
O618 Co616 2.091 . S
O618 C624 1.261 . S
C619 O628 1.247 . S
C619 O629 1.272 . S
O620 Co616 2.004 . S
O620 C625 1.259 . S
Co621 O622 2.061 . S
Co621 O627 2.052 . S
Co621 O629 2.135 . S
O622 Co621 2.061 . S
O622 C625 1.235 . S
C623 O626 1.238 . S
C623 O627 1.241 . S
C624 O617 1.247 . S
C624 O618 1.261 . S
C625 O620 1.259 . S
C625 O622 1.235 . S
O626 Co616 2.021 . S
O626 C623 1.238 . S
O627 Co621 2.052 . S
O627 C623 1.241 . S
O628 Co616 2.137 . S
O628 C619 1.247 . S
O629 Co616 2.244 . S
O629 C619 1.272 . S
O629 Co621 2.135 . S
Co630 O631 2.216 . S
Co630 O632 2.091 . S
Co630 O634 2.004 . S
Co630 O640 2.021 . S
Co630 O642 2.137 . S
Co630 O643 2.244 . S
O631 Co630 2.216 . S
O631 C638 1.247 . S
O632 Co630 2.091 . S
O632 C638 1.261 . S
C633 O642 1.247 . S
C633 O643 1.272 . S
O634 Co630 2.004 . S
O634 C639 1.259 . S
Co635 O636 2.061 . S
Co635 O641 2.052 . S
Co635 O643 2.135 . S
O636 Co635 2.061 . S
O636 C639 1.235 . S
C637 O640 1.238 . S
C637 O641 1.241 . S
C638 O631 1.247 . S
C638 O632 1.261 . S
C639 O634 1.259 . S
C639 O636 1.235 . S
O640 Co630 2.021 . S
O640 C637 1.238 . S
O641 Co635 2.052 . S
O641 C637 1.241 . S
O642 Co630 2.137 . S
O642 C633 1.247 . S
O643 Co630 2.244 . S
O643 C633 1.272 . S
O643 Co635 2.135 . S
Co644 O645 2.216 . S
Co644 O646 2.091 . S
Co644 O648 2.004 . S
Co644 O654 2.021 . S
Co644 O656 2.137 . S
Co644 O657 2.244 . S
O645 Co644 2.216 . S
O645 C652 1.247 . S
O646 Co644 2.091 . S
O646 C652 1.261 . S
C647 O656 1.247 . S
C647 O657 1.272 . S
O648 Co644 2.004 . S
O648 C653 1.259 . S
Co649 O650 2.061 . S
Co649 O655 2.052 . S
Co649 O657 2.135 . S
O650 Co649 2.061 . S
O650 C653 1.235 . S
C651 O654 1.238 . S
C651 O655 1.241 . S
C652 O645 1.247 . S
C652 O646 1.261 . S
C653 O648 1.259 . S
C653 O650 1.235 . S
O654 Co644 2.021 . S
O654 C651 1.238 . S
O655 Co649 2.052 . S
O655 C651 1.241 . S
O656 Co644 2.137 . S
O656 C647 1.247 . S
O657 Co644 2.244 . S
O657 C647 1.272 . S
O657 Co649 2.135 . S
Co658 O659 2.216 . S
Co658 O660 2.091 . S
Co658 O662 2.004 . S
Co658 O668 2.021 . S
Co658 O670 2.137 . S
Co658 O671 2.244 . S
O659 Co658 2.216 . S
O659 C666 1.247 . S
O660 Co658 2.091 . S
O660 C666 1.261 . S
C661 O670 1.247 . S
C661 O671 1.272 . S
O662 Co658 2.004 . S
O662 C667 1.259 . S
Co663 O664 2.061 . S
Co663 O669 2.052 . S
Co663 O671 2.135 . S
O664 Co663 2.061 . S
O664 C667 1.235 . S
C665 O668 1.238 . S
C665 O669 1.241 . S
C666 O659 1.247 . S
C666 O660 1.261 . S
C667 O662 1.259 . S
C667 O664 1.235 . S
O668 Co658 2.021 . S
O668 C665 1.238 . S
O669 Co663 2.052 . S
O669 C665 1.241 . S
O670 Co658 2.137 . S
O670 C661 1.247 . S
O671 Co658 2.244 . S
O671 C661 1.272 . S
O671 Co663 2.135 . S
Co672 O673 2.216 . S
Co672 O674 2.091 . S
Co672 O676 2.004 . S
Co672 O682 2.021 . S
Co672 O684 2.137 . S
Co672 O685 2.244 . S
O673 Co672 2.216 . S
O673 C680 1.247 . S
O674 Co672 2.091 . S
O674 C680 1.261 . S
C675 O684 1.247 . S
C675 O685 1.272 . S
O676 Co672 2.004 . S
O676 C681 1.259 . S
Co677 O678 2.061 . S
Co677 O683 2.052 . S
Co677 O685 2.135 . S
O678 Co677 2.061 . S
O678 C681 1.235 . S
C679 O682 1.238 . S
C679 O683 1.241 . S
C680 O673 1.247 . S
C680 O674 1.261 . S
C681 O676 1.259 . S
C681 O678 1.235 . S
O682 Co672 2.021 . S
O682 C679 1.238 . S
O683 Co677 2.052 . S
O683 C679 1.241 . S
O684 Co672 2.137 . S
O684 C675 1.247 . S
O685 Co672 2.244 . S
O685 C675 1.272 . S
O685 Co677 2.135 . S
Co686 O687 2.216 . S
Co686 O688 2.091 . S
Co686 O690 2.004 . S
Co686 O696 2.021 . S
Co686 O698 2.137 . S
Co686 O699 2.244 . S
O687 Co686 2.216 . S
O687 C694 1.247 . S
O688 Co686 2.091 . S
O688 C694 1.261 . S
C689 O698 1.247 . S
C689 O699 1.272 . S
O690 Co686 2.004 . S
O690 C695 1.259 . S
Co691 O692 2.061 . S
Co691 O697 2.052 . S
Co691 O699 2.135 . S
O692 Co691 2.061 . S
O692 C695 1.235 . S
C693 O696 1.238 . S
C693 O697 1.241 . S
C694 O687 1.247 . S
C694 O688 1.261 . S
C695 O690 1.259 . S
C695 O692 1.235 . S
O696 Co686 2.021 . S
O696 C693 1.238 . S
O697 Co691 2.052 . S
O697 C693 1.241 . S
O698 Co686 2.137 . S
O698 C689 1.247 . S
O699 Co686 2.244 . S
O699 C689 1.272 . S
O699 Co691 2.135 . S
Co700 O701 2.216 . S
Co700 O702 2.091 . S
Co700 O704 2.004 . S
Co700 O710 2.021 . S
Co700 O712 2.137 . S
Co700 O713 2.244 . S
O701 Co700 2.216 . S
O701 C708 1.247 . S
O702 Co700 2.091 . S
O702 C708 1.261 . S
C703 O712 1.247 . S
C703 O713 1.272 . S
O704 Co700 2.004 . S
O704 C709 1.259 . S
Co705 O706 2.061 . S
Co705 O711 2.052 . S
Co705 O713 2.135 . S
O706 Co705 2.061 . S
O706 C709 1.235 . S
C707 O710 1.238 . S
C707 O711 1.241 . S
C708 O701 1.247 . S
C708 O702 1.261 . S
C709 O704 1.259 . S
C709 O706 1.235 . S
O710 Co700 2.021 . S
O710 C707 1.238 . S
O711 Co705 2.052 . S
O711 C707 1.241 . S
O712 Co700 2.137 . S
O712 C703 1.247 . S
O713 Co700 2.244 . S
O713 C703 1.272 . S
O713 Co705 2.135 . S
Co714 O715 2.216 . S
Co714 O716 2.091 . S
Co714 O718 2.004 . S
Co714 O724 2.021 . S
Co714 O726 2.137 . S
Co714 O727 2.244 . S
O715 Co714 2.216 . S
O715 C722 1.247 . S
O716 Co714 2.091 . S
O716 C722 1.261 . S
C717 O726 1.247 . S
C717 O727 1.272 . S
O718 Co714 2.004 . S
O718 C723 1.259 . S
Co719 O720 2.061 . S
Co719 O725 2.052 . S
Co719 O727 2.135 . S
O720 Co719 2.061 . S
O720 C723 1.235 . S
C721 O724 1.238 . S
C721 O725 1.241 . S
C722 O715 1.247 . S
C722 O716 1.261 . S
C723 O718 1.259 . S
C723 O720 1.235 . S
O724 Co714 2.021 . S
O724 C721 1.238 . S
O725 Co719 2.052 . S
O725 C721 1.241 . S
O726 Co714 2.137 . S
O726 C717 1.247 . S
O727 Co714 2.244 . S
O727 C717 1.272 . S
O727 Co719 2.135 . S
Co728 O729 2.216 . S
Co728 O730 2.091 . S
Co728 O732 2.004 . S
Co728 O738 2.021 . S
Co728 O740 2.137 . S
Co728 O741 2.244 . S
O729 Co728 2.216 . S
O729 C736 1.247 . S
O730 Co728 2.091 . S
O730 C736 1.261 . S
C731 O740 1.247 . S
C731 O741 1.272 . S
O732 Co728 2.004 . S
O732 C737 1.259 . S
Co733 O734 2.061 . S
Co733 O739 2.052 . S
Co733 O741 2.135 . S
O734 Co733 2.061 . S
O734 C737 1.235 . S
C735 O738 1.238 . S
C735 O739 1.241 . S
C736 O729 1.247 . S
C736 O730 1.261 . S
C737 O732 1.259 . S
C737 O734 1.235 . S
O738 Co728 2.021 . S
O738 C735 1.238 . S
O739 Co733 2.052 . S
O739 C735 1.241 . S
O740 Co728 2.137 . S
O740 C731 1.247 . S
O741 Co728 2.244 . S
O741 C731 1.272 . S
O741 Co733 2.135 . S
Co742 O743 2.216 . S
Co742 O744 2.091 . S
Co742 O746 2.004 . S
Co742 O752 2.021 . S
Co742 O754 2.137 . S
Co742 O755 2.244 . S
O743 Co742 2.216 . S
O743 C750 1.247 . S
O744 Co742 2.091 . S
O744 C750 1.261 . S
C745 O754 1.247 . S
C745 O755 1.272 . S
O746 Co742 2.004 . S
O746 C751 1.259 . S
Co747 O748 2.061 . S
Co747 O753 2.052 . S
Co747 O755 2.135 . S
O748 Co747 2.061 . S
O748 C751 1.235 . S
C749 O752 1.238 . S
C749 O753 1.241 . S
C750 O743 1.247 . S
C750 O744 1.261 . S
C751 O746 1.259 . S
C751 O748 1.235 . S
O752 Co742 2.021 . S
O752 C749 1.238 . S
O753 Co747 2.052 . S
O753 C749 1.241 . S
O754 Co742 2.137 . S
O754 C745 1.247 . S
O755 Co742 2.244 . S
O755 C745 1.272 . S
O755 Co747 2.135 . S
Co756 O757 2.216 . S
Co756 O758 2.091 . S
Co756 O760 2.004 . S
Co756 O766 2.021 . S
Co756 O768 2.137 . S
Co756 O769 2.244 . S
O757 Co756 2.216 . S
O757 C764 1.247 . S
O758 Co756 2.091 . S
O758 C764 1.261 . S
C759 O768 1.247 . S
C759 O769 1.272 . S
O760 Co756 2.004 . S
O760 C765 1.259 . S
Co761 O762 2.061 . S
Co761 O767 2.052 . S
Co761 O769 2.135 . S
O762 Co761 2.061 . S
O762 C765 1.235 . S
C763 O766 1.238 . S
C763 O767 1.241 . S
C764 O757 1.247 . S
C764 O758 1.261 . S
C765 O760 1.259 . S
C765 O762 1.235 . S
O766 Co756 2.021 . S
O766 C763 1.238 . S
O767 Co761 2.052 . S
O767 C763 1.241 . S
O768 Co756 2.137 . S
O768 C759 1.247 . S
O769 Co756 2.244 . S
O769 C759 1.272 . S
O769 Co761 2.135 . S
Co770 O771 2.216 . S
Co770 O772 2.091 . S
Co770 O774 2.004 . S
Co770 O780 2.021 . S
Co770 O782 2.137 . S
Co770 O783 2.244 . S
O771 Co770 2.216 . S
O771 C778 1.247 . S
O772 Co770 2.091 . S
O772 C778 1.261 . S
C773 O782 1.247 . S
C773 O783 1.272 . S
O774 Co770 2.004 . S
O774 C779 1.259 . S
Co775 O776 2.061 . S
Co775 O781 2.052 . S
Co775 O783 2.135 . S
O776 Co775 2.061 . S
O776 C779 1.235 . S
C777 O780 1.238 . S
C777 O781 1.241 . S
C778 O771 1.247 . S
C778 O772 1.261 . S
C779 O774 1.259 . S
C779 O776 1.235 . S
O780 Co770 2.021 . S
O780 C777 1.238 . S
O781 Co775 2.052 . S
O781 C777 1.241 . S
O782 Co770 2.137 . S
O782 C773 1.247 . S
O783 Co770 2.244 . S
O783 C773 1.272 . S
O783 Co775 2.135 . S
Co784 O785 2.216 . S
Co784 O786 2.091 . S
Co784 O788 2.004 . S
Co784 O794 2.021 . S
Co784 O796 2.137 . S
Co784 O797 2.244 . S
O785 Co784 2.216 . S
O785 C792 1.247 . S
O786 Co784 2.091 . S
O786 C792 1.261 . S
C787 O796 1.247 . S
C787 O797 1.272 . S
O788 Co784 2.004 . S
O788 C793 1.259 . S
Co789 O790 2.061 . S
Co789 O795 2.052 . S
Co789 O797 2.135 . S
O790 Co789 2.061 . S
O790 C793 1.235 . S
C791 O794 1.238 . S
C791 O795 1.241 . S
C792 O785 1.247 . S
C792 O786 1.261 . S
C793 O788 1.259 . S
C793 O790 1.235 . S
O794 Co784 2.021 . S
O794 C791 1.238 . S
O795 Co789 2.052 . S
O795 C791 1.241 . S
O796 Co784 2.137 . S
O796 C787 1.247 . S
O797 Co784 2.244 . S
O797 C787 1.272 . S
O797 Co789 2.135 . S
Co798 O799 2.216 . S
Co798 O800 2.091 . S
Co798 O802 2.004 . S
Co798 O808 2.021 . S
Co798 O810 2.137 . S
Co798 O811 2.244 . S
O799 Co798 2.216 . S
O799 C806 1.247 . S
O800 Co798 2.091 . S
O800 C806 1.261 . S
C801 O810 1.247 . S
C801 O811 1.272 . S
O802 Co798 2.004 . S
O802 C807 1.259 . S
Co803 O804 2.061 . S
Co803 O809 2.052 . S
Co803 O811 2.135 . S
O804 Co803 2.061 . S
O804 C807 1.235 . S
C805 O808 1.238 . S
C805 O809 1.241 . S
C806 O799 1.247 . S
C806 O800 1.261 . S
C807 O802 1.259 . S
C807 O804 1.235 . S
O808 Co798 2.021 . S
O808 C805 1.238 . S
O809 Co803 2.052 . S
O809 C805 1.241 . S
O810 Co798 2.137 . S
O810 C801 1.247 . S
O811 Co798 2.244 . S
O811 C801 1.272 . S
O811 Co803 2.135 . S
Co812 O813 2.216 . S
Co812 O814 2.091 . S
Co812 O816 2.004 . S
Co812 O822 2.021 . S
Co812 O824 2.137 . S
Co812 O825 2.244 . S
O813 Co812 2.216 . S
O813 C820 1.247 . S
O814 Co812 2.091 . S
O814 C820 1.261 . S
C815 O824 1.247 . S
C815 O825 1.272 . S
O816 Co812 2.004 . S
O816 C821 1.259 . S
Co817 O818 2.061 . S
Co817 O823 2.052 . S
Co817 O825 2.135 . S
O818 Co817 2.061 . S
O818 C821 1.235 . S
C819 O822 1.238 . S
C819 O823 1.241 . S
C820 O813 1.247 . S
C820 O814 1.261 . S
C821 O816 1.259 . S
C821 O818 1.235 . S
O822 Co812 2.021 . S
O822 C819 1.238 . S
O823 Co817 2.052 . S
O823 C819 1.241 . S
O824 Co812 2.137 . S
O824 C815 1.247 . S
O825 Co812 2.244 . S
O825 C815 1.272 . S
O825 Co817 2.135 . S
Co826 O827 2.216 . S
Co826 O828 2.091 . S
Co826 O830 2.004 . S
Co826 O836 2.021 . S
Co826 O838 2.137 . S
Co826 O839 2.244 . S
O827 Co826 2.216 . S
O827 C834 1.247 . S
O828 Co826 2.091 . S
O828 C834 1.261 . S
C829 O838 1.247 . S
C829 O839 1.272 . S
O830 Co826 2.004 . S
O830 C835 1.259 . S
Co831 O832 2.061 . S
Co831 O837 2.052 . S
Co831 O839 2.135 . S
O832 Co831 2.061 . S
O832 C835 1.235 . S
C833 O836 1.238 . S
C833 O837 1.241 . S
C834 O827 1.247 . S
C834 O828 1.261 . S
C835 O830 1.259 . S
C835 O832 1.235 . S
O836 Co826 2.021 . S
O836 C833 1.238 . S
O837 Co831 2.052 . S
O837 C833 1.241 . S
O838 Co826 2.137 . S
O838 C829 1.247 . S
O839 Co826 2.244 . S
O839 C829 1.272 . S
O839 Co831 2.135 . S
Co840 O841 2.216 . S
Co840 O842 2.091 . S
Co840 O844 2.004 . S
Co840 O850 2.021 . S
Co840 O852 2.137 . S
Co840 O853 2.244 . S
O841 Co840 2.216 . S
O841 C848 1.247 . S
O842 Co840 2.091 . S
O842 C848 1.261 . S
C843 O852 1.247 . S
C843 O853 1.272 . S
O844 Co840 2.004 . S
O844 C849 1.259 . S
Co845 O846 2.061 . S
Co845 O851 2.052 . S
Co845 O853 2.135 . S
O846 Co845 2.061 . S
O846 C849 1.235 . S
C847 O850 1.238 . S
C847 O851 1.241 . S
C848 O841 1.247 . S
C848 O842 1.261 . S
C849 O844 1.259 . S
C849 O846 1.235 . S
O850 Co840 2.021 . S
O850 C847 1.238 . S
O851 Co845 2.052 . S
O851 C847 1.241 . S
O852 Co840 2.137 . S
O852 C843 1.247 . S
O853 Co840 2.244 . S
O853 C843 1.272 . S
O853 Co845 2.135 . S
Co854 O855 2.216 . S
Co854 O856 2.091 . S
Co854 O858 2.004 . S
Co854 O864 2.021 . S
Co854 O866 2.137 . S
Co854 O867 2.244 . S
O855 Co854 2.216 . S
O855 C862 1.247 . S
O856 Co854 2.091 . S
O856 C862 1.261 . S
C857 O866 1.247 . S
C857 O867 1.272 . S
O858 Co854 2.004 . S
O858 C863 1.259 . S
Co859 O860 2.061 . S
Co859 O865 2.052 . S
Co859 O867 2.135 . S
O860 Co859 2.061 . S
O860 C863 1.235 . S
C861 O864 1.238 . S
C861 O865 1.241 . S
C862 O855 1.247 . S
C862 O856 1.261 . S
C863 O858 1.259 . S
C863 O860 1.235 . S
O864 Co854 2.021 . S
O864 C861 1.238 . S
O865 Co859 2.052 . S
O865 C861 1.241 . S
O866 Co854 2.137 . S
O866 C857 1.247 . S
O867 Co854 2.244 . S
O867 C857 1.272 . S
O867 Co859 2.135 . S
Co868 O869 2.216 . S
Co868 O870 2.091 . S
Co868 O872 2.004 . S
Co868 O878 2.021 . S
Co868 O880 2.137 . S
Co868 O881 2.244 . S
O869 Co868 2.216 . S
O869 C876 1.247 . S
O870 Co868 2.091 . S
O870 C876 1.261 . S
C871 O880 1.247 . S
C871 O881 1.272 . S
O872 Co868 2.004 . S
O872 C877 1.259 . S
Co873 O874 2.061 . S
Co873 O879 2.052 . S
Co873 O881 2.135 . S
O874 Co873 2.061 . S
O874 C877 1.235 . S
C875 O878 1.238 . S
C875 O879 1.241 . S
C876 O869 1.247 . S
C876 O870 1.261 . S
C877 O872 1.259 . S
C877 O874 1.235 . S
O878 Co868 2.021 . S
O878 C875 1.238 . S
O879 Co873 2.052 . S
O879 C875 1.241 . S
O880 Co868 2.137 . S
O880 C871 1.247 . S
O881 Co868 2.244 . S
O881 C871 1.272 . S
O881 Co873 2.135 . S
Co882 O883 2.216 . S
Co882 O884 2.091 . S
Co882 O886 2.004 . S
Co882 O892 2.021 . S
Co882 O894 2.137 . S
Co882 O895 2.244 . S
O883 Co882 2.216 . S
O883 C890 1.247 . S
O884 Co882 2.091 . S
O884 C890 1.261 . S
C885 O894 1.247 . S
C885 O895 1.272 . S
O886 Co882 2.004 . S
O886 C891 1.259 . S
Co887 O888 2.061 . S
Co887 O893 2.052 . S
Co887 O895 2.135 . S
O888 Co887 2.061 . S
O888 C891 1.235 . S
C889 O892 1.238 . S
C889 O893 1.241 . S
C890 O883 1.247 . S
C890 O884 1.261 . S
C891 O886 1.259 . S
C891 O888 1.235 . S
O892 Co882 2.021 . S
O892 C889 1.238 . S
O893 Co887 2.052 . S
O893 C889 1.241 . S
O894 Co882 2.137 . S
O894 C885 1.247 . S
O895 Co882 2.244 . S
O895 C885 1.272 . S
O895 Co887 2.135 . S
Co896 O897 2.216 . S
Co896 O898 2.091 . S
Co896 O900 2.004 . S
Co896 O906 2.021 . S
Co896 O908 2.137 . S
Co896 O909 2.244 . S
O897 Co896 2.216 . S
O897 C904 1.247 . S
O898 Co896 2.091 . S
O898 C904 1.261 . S
C899 O908 1.247 . S
C899 O909 1.272 . S
O900 Co896 2.004 . S
O900 C905 1.259 . S
Co901 O902 2.061 . S
Co901 O907 2.052 . S
Co901 O909 2.135 . S
O902 Co901 2.061 . S
O902 C905 1.235 . S
C903 O906 1.238 . S
C903 O907 1.241 . S
C904 O897 1.247 . S
C904 O898 1.261 . S
C905 O900 1.259 . S
C905 O902 1.235 . S
O906 Co896 2.021 . S
O906 C903 1.238 . S
O907 Co901 2.052 . S
O907 C903 1.241 . S
O908 Co896 2.137 . S
O908 C899 1.247 . S
O909 Co896 2.244 . S
O909 C899 1.272 . S
O909 Co901 2.135 . S
Co910 O911 2.216 . S
Co910 O912 2.091 . S
Co910 O914 2.004 . S
Co910 O920 2.021 . S
Co910 O922 2.137 . S
Co910 O923 2.244 . S
O911 Co910 2.216 . S
O911 C918 1.247 . S
O912 Co910 2.091 . S
O912 C918 1.261 . S
C913 O922 1.247 . S
C913 O923 1.272 . S
O914 Co910 2.004 . S
O914 C919 1.259 . S
Co915 O916 2.061 . S
Co915 O921 2.052 . S
Co915 O923 2.135 . S
O916 Co915 2.061 . S
O916 C919 1.235 . S
C917 O920 1.238 . S
C917 O921 1.241 . S
C918 O911 1.247 . S
C918 O912 1.261 . S
C919 O914 1.259 . S
C919 O916 1.235 . S
O920 Co910 2.021 . S
O920 C917 1.238 . S
O921 Co915 2.052 . S
O921 C917 1.241 . S
O922 Co910 2.137 . S
O922 C913 1.247 . S
O923 Co910 2.244 . S
O923 C913 1.272 . S
O923 Co915 2.135 . S
Co924 O925 2.216 . S
Co924 O926 2.091 . S
Co924 O928 2.004 . S
Co924 O934 2.021 . S
Co924 O936 2.137 . S
Co924 O937 2.244 . S
O925 Co924 2.216 . S
O925 C932 1.247 . S
O926 Co924 2.091 . S
O926 C932 1.261 . S
C927 O936 1.247 . S
C927 O937 1.272 . S
O928 Co924 2.004 . S
O928 C933 1.259 . S
Co929 O930 2.061 . S
Co929 O935 2.052 . S
Co929 O937 2.135 . S
O930 Co929 2.061 . S
O930 C933 1.235 . S
C931 O934 1.238 . S
C931 O935 1.241 . S
C932 O925 1.247 . S
C932 O926 1.261 . S
C933 O928 1.259 . S
C933 O930 1.235 . S
O934 Co924 2.021 . S
O934 C931 1.238 . S
O935 Co929 2.052 . S
O935 C931 1.241 . S
O936 Co924 2.137 . S
O936 C927 1.247 . S
O937 Co924 2.244 . S
O937 C927 1.272 . S
O937 Co929 2.135 . S
Co938 O939 2.216 . S
Co938 O940 2.091 . S
Co938 O942 2.004 . S
Co938 O948 2.021 . S
Co938 O950 2.137 . S
Co938 O951 2.244 . S
O939 Co938 2.216 . S
O939 C946 1.247 . S
O940 Co938 2.091 . S
O940 C946 1.261 . S
C941 O950 1.247 . S
C941 O951 1.272 . S
O942 Co938 2.004 . S
O942 C947 1.259 . S
Co943 O944 2.061 . S
Co943 O949 2.052 . S
Co943 O951 2.135 . S
O944 Co943 2.061 . S
O944 C947 1.235 . S
C945 O948 1.238 . S
C945 O949 1.241 . S
C946 O939 1.247 . S
C946 O940 1.261 . S
C947 O942 1.259 . S
C947 O944 1.235 . S
O948 Co938 2.021 . S
O948 C945 1.238 . S
O949 Co943 2.052 . S
O949 C945 1.241 . S
O950 Co938 2.137 . S
O950 C941 1.247 . S
O951 Co938 2.244 . S
O951 C941 1.272 . S
O951 Co943 2.135 . S
Co952 O953 2.216 . S
Co952 O954 2.091 . S
Co952 O956 2.004 . S
Co952 O962 2.021 . S
Co952 O964 2.137 . S
Co952 O965 2.244 . S
O953 Co952 2.216 . S
O953 C960 1.247 . S
O954 Co952 2.091 . S
O954 C960 1.261 . S
C955 O964 1.247 . S
C955 O965 1.272 . S
O956 Co952 2.004 . S
O956 C961 1.259 . S
Co957 O958 2.061 . S
Co957 O963 2.052 . S
Co957 O965 2.135 . S
O958 Co957 2.061 . S
O958 C961 1.235 . S
C959 O962 1.238 . S
C959 O963 1.241 . S
C960 O953 1.247 . S
C960 O954 1.261 . S
C961 O956 1.259 . S
C961 O958 1.235 . S
O962 Co952 2.021 . S
O962 C959 1.238 . S
O963 Co957 2.052 . S
O963 C959 1.241 . S
O964 Co952 2.137 . S
O964 C955 1.247 . S
O965 Co952 2.244 . S
O965 C955 1.272 . S
O965 Co957 2.135 . S
Co966 O967 2.216 . S
Co966 O968 2.091 . S
Co966 O970 2.004 . S
Co966 O976 2.021 . S
Co966 O978 2.137 . S
Co966 O979 2.244 . S
O967 Co966 2.216 . S
O967 C974 1.247 . S
O968 Co966 2.091 . S
O968 C974 1.261 . S
C969 O978 1.247 . S
C969 O979 1.272 . S
O970 Co966 2.004 . S
O970 C975 1.259 . S
Co971 O972 2.061 . S
Co971 O977 2.052 . S
Co971 O979 2.135 . S
O972 Co971 2.061 . S
O972 C975 1.235 . S
C973 O976 1.238 . S
C973 O977 1.241 . S
C974 O967 1.247 . S
C974 O968 1.261 . S
C975 O970 1.259 . S
C975 O972 1.235 . S
O976 Co966 2.021 . S
O976 C973 1.238 . S
O977 Co971 2.052 . S
O977 C973 1.241 . S
O978 Co966 2.137 . S
O978 C969 1.247 . S
O979 Co966 2.244 . S
O979 C969 1.272 . S
O979 Co971 2.135 . S
Co980 O981 2.216 . S
Co980 O982 2.091 . S
Co980 O984 2.004 . S
Co980 O990 2.021 . S
Co980 O992 2.137 . S
Co980 O993 2.244 . S
O981 Co980 2.216 . S
O981 C988 1.247 . S
O982 Co980 2.091 . S
O982 C988 1.261 . S
C983 O992 1.247 . S
C983 O993 1.272 . S
O984 Co980 2.004 . S
O984 C989 1.259 . S
Co985 O986 2.061 . S
Co985 O991 2.052 . S
Co985 O993 2.135 . S
O986 Co985 2.061 . S
O986 C989 1.235 . S
C987 O990 1.238 . S
C987 O991 1.241 . S
C988 O981 1.247 . S
C988 O982 1.261 . S
C989 O984 1.259 . S
C989 O986 1.235 . S
O990 Co980 2.021 . S
O990 C987 1.238 . S
O991 Co985 2.052 . S
O991 C987 1.241 . S
O992 Co980 2.137 . S
O992 C983 1.247 . S
O993 Co980 2.244 . S
O993 C983 1.272 . S
O993 Co985 2.135 . S
Co994 O995 2.216 . S
Co994 O996 2.091 . S
Co994 O998 2.004 . S
Co994 O1004 2.021 . S
Co994 O1006 2.137 . S
Co994 O1007 2.244 . S
O995 Co994 2.216 . S
O995 C1002 1.247 . S
O996 Co994 2.091 . S
O996 C1002 1.261 . S
C997 O1006 1.247 . S
C997 O1007 1.272 . S
O998 Co994 2.004 . S
O998 C1003 1.259 . S
Co999 O1000 2.061 . S
Co999 O1005 2.052 . S
Co999 O1007 2.135 . S
O1000 Co999 2.061 . S
O1000 C1003 1.235 . S
C1001 O1004 1.238 . S
C1001 O1005 1.241 . S
C1002 O995 1.247 . S
C1002 O996 1.261 . S
C1003 O998 1.259 . S
C1003 O1000 1.235 . S
O1004 Co994 2.021 . S
O1004 C1001 1.238 . S
O1005 Co999 2.052 . S
O1005 C1001 1.241 . S
O1006 Co994 2.137 . S
O1006 C997 1.247 . S
O1007 Co994 2.244 . S
O1007 C997 1.272 . S
O1007 Co999 2.135 . S
Co1008 O1009 2.216 . S
Co1008 O1010 2.091 . S
Co1008 O1012 2.004 . S
Co1008 O1018 2.021 . S
Co1008 O1020 2.137 . S
Co1008 O1021 2.244 . S
O1009 Co1008 2.216 . S
O1009 C1016 1.247 . S
O1010 Co1008 2.091 . S
O1010 C1016 1.261 . S
C1011 O1020 1.247 . S
C1011 O1021 1.272 . S
O1012 Co1008 2.004 . S
O1012 C1017 1.259 . S
Co1013 O1014 2.061 . S
Co1013 O1019 2.052 . S
Co1013 O1021 2.135 . S
O1014 Co1013 2.061 . S
O1014 C1017 1.235 . S
C1015 O1018 1.238 . S
C1015 O1019 1.241 . S
C1016 O1009 1.247 . S
C1016 O1010 1.261 . S
C1017 O1012 1.259 . S
C1017 O1014 1.235 . S
O1018 Co1008 2.021 . S
O1018 C1015 1.238 . S
O1019 Co1013 2.052 . S
O1019 C1015 1.241 . S
O1020 Co1008 2.137 . S
O1020 C1011 1.247 . S
O1021 Co1008 2.244 . S
O1021 C1011 1.272 . S
O1021 Co1013 2.135 . S
Co1022 O1023 2.216 . S
Co1022 O1024 2.091 . S
Co1022 O1026 2.004 . S
Co1022 O1032 2.021 . S
Co1022 O1034 2.137 . S
Co1022 O1035 2.244 . S
O1023 Co1022 2.216 . S
O1023 C1030 1.247 . S
O1024 Co1022 2.091 . S
O1024 C1030 1.261 . S
C1025 O1034 1.247 . S
C1025 O1035 1.272 . S
O1026 Co1022 2.004 . S
O1026 C1031 1.259 . S
Co1027 O1028 2.061 . S
Co1027 O1033 2.052 . S
Co1027 O1035 2.135 . S
O1028 Co1027 2.061 . S
O1028 C1031 1.235 . S
C1029 O1032 1.238 . S
C1029 O1033 1.241 . S
C1030 O1023 1.247 . S
C1030 O1024 1.261 . S
C1031 O1026 1.259 . S
C1031 O1028 1.235 . S
O1032 Co1022 2.021 . S
O1032 C1029 1.238 . S
O1033 Co1027 2.052 . S
O1033 C1029 1.241 . S
O1034 Co1022 2.137 . S
O1034 C1025 1.247 . S
O1035 Co1022 2.244 . S
O1035 C1025 1.272 . S
O1035 Co1027 2.135 . S
Co1036 O1037 2.216 . S
Co1036 O1038 2.091 . S
Co1036 O1040 2.004 . S
Co1036 O1046 2.021 . S
Co1036 O1048 2.137 . S
Co1036 O1049 2.244 . S
O1037 Co1036 2.216 . S
O1037 C1044 1.247 . S
O1038 Co1036 2.091 . S
O1038 C1044 1.261 . S
C1039 O1048 1.247 . S
C1039 O1049 1.272 . S
O1040 Co1036 2.004 . S
O1040 C1045 1.259 . S
Co1041 O1042 2.061 . S
Co1041 O1047 2.052 . S
Co1041 O1049 2.135 . S
O1042 Co1041 2.061 . S
O1042 C1045 1.235 . S
C1043 O1046 1.238 . S
C1043 O1047 1.241 . S
C1044 O1037 1.247 . S
C1044 O1038 1.261 . S
C1045 O1040 1.259 . S
C1045 O1042 1.235 . S
O1046 Co1036 2.021 . S
O1046 C1043 1.238 . S
O1047 Co1041 2.052 . S
O1047 C1043 1.241 . S
O1048 Co1036 2.137 . S
O1048 C1039 1.247 . S
O1049 Co1036 2.244 . S
O1049 C1039 1.272 . S
O1049 Co1041 2.135 . S
Co1050 O1051 2.216 . S
Co1050 O1052 2.091 . S
Co1050 O1054 2.004 . S
Co1050 O1060 2.021 . S
Co1050 O1062 2.137 . S
Co1050 O1063 2.244 . S
O1051 Co1050 2.216 . S
O1051 C1058 1.247 . S
O1052 Co1050 2.091 . S
O1052 C1058 1.261 . S
C1053 O1062 1.247 . S
C1053 O1063 1.272 . S
O1054 Co1050 2.004 . S
O1054 C1059 1.259 . S
Co1055 O1056 2.061 . S
Co1055 O1061 2.052 . S
Co1055 O1063 2.135 . S
O1056 Co1055 2.061 . S
O1056 C1059 1.235 . S
C1057 O1060 1.238 . S
C1057 O1061 1.241 . S
C1058 O1051 1.247 . S
C1058 O1052 1.261 . S
C1059 O1054 1.259 . S
C1059 O1056 1.235 . S
O1060 Co1050 2.021 . S
O1060 C1057 1.238 . S
O1061 Co1055 2.052 . S
O1061 C1057 1.241 . S
O1062 Co1050 2.137 . S
O1062 C1053 1.247 . S
O1063 Co1050 2.244 . S
O1063 C1053 1.272 . S
O1063 Co1055 2.135 . S
Co1064 O1065 2.216 . S
Co1064 O1066 2.091 . S
Co1064 O1068 2.004 . S
Co1064 O1074 2.021 . S
Co1064 O1076 2.137 . S
Co1064 O1077 2.244 . S
O1065 Co1064 2.216 . S
O1065 C1072 1.247 . S
O1066 Co1064 2.091 . S
O1066 C1072 1.261 . S
C1067 O1076 1.247 . S
C1067 O1077 1.272 . S
O1068 Co1064 2.004 . S
O1068 C1073 1.259 . S
Co1069 O1070 2.061 . S
Co1069 O1075 2.052 . S
Co1069 O1077 2.135 . S
O1070 Co1069 2.061 . S
O1070 C1073 1.235 . S
C1071 O1074 1.238 . S
C1071 O1075 1.241 . S
C1072 O1065 1.247 . S
C1072 O1066 1.261 . S
C1073 O1068 1.259 . S
C1073 O1070 1.235 . S
O1074 Co1064 2.021 . S
O1074 C1071 1.238 . S
O1075 Co1069 2.052 . S
O1075 C1071 1.241 . S
O1076 Co1064 2.137 . S
O1076 C1067 1.247 . S
O1077 Co1064 2.244 . S
O1077 C1067 1.272 . S
O1077 Co1069 2.135 . S
Co1078 O1079 2.216 . S
Co1078 O1080 2.091 . S
Co1078 O1082 2.004 . S
Co1078 O1088 2.021 . S
Co1078 O1090 2.137 . S
Co1078 O1091 2.244 . S
O1079 Co1078 2.216 . S
O1079 C1086 1.247 . S
O1080 Co1078 2.091 . S
O1080 C1086 1.261 . S
C1081 O1090 1.247 . S
C1081 O1091 1.272 . S
O1082 Co1078 2.004 . S
O1082 C1087 1.259 . S
Co1083 O1084 2.061 . S
Co1083 O1089 2.052 . S
Co1083 O1091 2.135 . S
O1084 Co1083 2.061 . S
O1084 C1087 1.235 . S
C1085 O1088 1.238 . S
C1085 O1089 1.241 . S
C1086 O1079 1.247 . S
C1086 O1080 1.261 . S
C1087 O1082 1.259 . S
C1087 O1084 1.235 . S
O1088 Co1078 2.021 . S
O1088 C1085 1.238 . S
O1089 Co1083 2.052 . S
O1089 C1085 1.241 . S
O1090 Co1078 2.137 . S
O1090 C1081 1.247 . S
O1091 Co1078 2.244 . S
O1091 C1081 1.272 . S
O1091 Co1083 2.135 . S
Co1092 O1093 2.216 . S
Co1092 O1094 2.091 . S
Co1092 O1096 2.004 . S
Co1092 O1102 2.021 . S
Co1092 O1104 2.137 . S
Co1092 O1105 2.244 . S
O1093 Co1092 2.216 . S
O1093 C1100 1.247 . S
O1094 Co1092 2.091 . S
O1094 C1100 1.261 . S
C1095 O1104 1.247 . S
C1095 O1105 1.272 . S
O1096 Co1092 2.004 . S
O1096 C1101 1.259 . S
Co1097 O1098 2.061 . S
Co1097 O1103 2.052 . S
Co1097 O1105 2.135 . S
O1098 Co1097 2.061 . S
O1098 C1101 1.235 . S
C1099 O1102 1.238 . S
C1099 O1103 1.241 . S
C1100 O1093 1.247 . S
C1100 O1094 1.261 . S
C1101 O1096 1.259 . S
C1101 O1098 1.235 . S
O1102 Co1092 2.021 . S
O1102 C1099 1.238 . S
O1103 Co1097 2.052 . S
O1103 C1099 1.241 . S
O1104 Co1092 2.137 . S
O1104 C1095 1.247 . S
O1105 Co1092 2.244 . S
O1105 C1095 1.272 . S
O1105 Co1097 2.135 . S
Co1106 O1107 2.216 . S
Co1106 O1108 2.091 . S
Co1106 O1110 2.004 . S
Co1106 O1116 2.021 . S
Co1106 O1118 2.137 . S
Co1106 O1119 2.244 . S
O1107 Co1106 2.216 . S
O1107 C1114 1.247 . S
O1108 Co1106 2.091 . S
O1108 C1114 1.261 . S
C1109 O1118 1.247 . S
C1109 O1119 1.272 . S
O1110 Co1106 2.004 . S
O1110 C1115 1.259 . S
Co1111 O1112 2.061 . S
Co1111 O1117 2.052 . S
Co1111 O1119 2.135 . S
O1112 Co1111 2.061 . S
O1112 C1115 1.235 . S
C1113 O1116 1.238 . S
C1113 O1117 1.241 . S
C1114 O1107 1.247 . S
C1114 O1108 1.261 . S
C1115 O1110 1.259 . S
C1115 O1112 1.235 . S
O1116 Co1106 2.021 . S
O1116 C1113 1.238 . S
O1117 Co1111 2.052 . S
O1117 C1113 1.241 . S
O1118 Co1106 2.137 . S
O1118 C1109 1.247 . S
O1119 Co1106 2.244 . S
O1119 C1109 1.272 . S
O1119 Co1111 2.135 . S
Co1120 O1121 2.216 . S
Co1120 O1122 2.091 . S
Co1120 O1124 2.004 . S
Co1120 O1130 2.021 . S
Co1120 O1132 2.137 . S
Co1120 O1133 2.244 . S
O1121 Co1120 2.216 . S
O1121 C1128 1.247 . S
O1122 Co1120 2.091 . S
O1122 C1128 1.261 . S
C1123 O1132 1.247 . S
C1123 O1133 1.272 . S
O1124 Co1120 2.004 . S
O1124 C1129 1.259 . S
Co1125 O1126 2.061 . S
Co1125 O1131 2.052 . S
Co1125 O1133 2.135 . S
O1126 Co1125 2.061 . S
O1126 C1129 1.235 . S
C1127 O1130 1.238 . S
C1127 O1131 1.241 . S
C1128 O1121 1.247 . S
C1128 O1122 1.261 . S
C1129 O1124 1.259 . S
C1129 O1126 1.235 . S
O1130 Co1120 2.021 . S
O1130 C1127 1.238 . S
O1131 Co1125 2.052 . S
O1131 C1127 1.241 . S
O1132 Co1120 2.137 . S
O1132 C1123 1.247 . S
O1133 Co1120 2.244 . S
O1133 C1123 1.272 . S
O1133 Co1125 2.135 . S
Co1134 O1135 2.216 . S
Co1134 O1136 2.091 . S
Co1134 O1138 2.004 . S
Co1134 O1144 2.021 . S
Co1134 O1146 2.137 . S
Co1134 O1147 2.244 . S
O1135 Co1134 2.216 . S
O1135 C1142 1.247 . S
O1136 Co1134 2.091 . S
O1136 C1142 1.261 . S
C1137 O1146 1.247 . S
C1137 O1147 1.272 . S
O1138 Co1134 2.004 . S
O1138 C1143 1.259 . S
Co1139 O1140 2.061 . S
Co1139 O1145 2.052 . S
Co1139 O1147 2.135 . S
O1140 Co1139 2.061 . S
O1140 C1143 1.235 . S
C1141 O1144 1.238 . S
C1141 O1145 1.241 . S
C1142 O1135 1.247 . S
C1142 O1136 1.261 . S
C1143 O1138 1.259 . S
C1143 O1140 1.235 . S
O1144 Co1134 2.021 . S
O1144 C1141 1.238 . S
O1145 Co1139 2.052 . S
O1145 C1141 1.241 . S
O1146 Co1134 2.137 . S
O1146 C1137 1.247 . S
O1147 Co1134 2.244 . S
O1147 C1137 1.272 . S
O1147 Co1139 2.135 . S
Co1148 O1149 2.216 . S
Co1148 O1150 2.091 . S
Co1148 O1152 2.004 . S
Co1148 O1158 2.021 . S
Co1148 O1160 2.137 . S
Co1148 O1161 2.244 . S
O1149 Co1148 2.216 . S
O1149 C1156 1.247 . S
O1150 Co1148 2.091 . S
O1150 C1156 1.261 . S
C1151 O1160 1.247 . S
C1151 O1161 1.272 . S
O1152 Co1148 2.004 . S
O1152 C1157 1.259 . S
Co1153 O1154 2.061 . S
Co1153 O1159 2.052 . S
Co1153 O1161 2.135 . S
O1154 Co1153 2.061 . S
O1154 C1157 1.235 . S
C1155 O1158 1.238 . S
C1155 O1159 1.241 . S
C1156 O1149 1.247 . S
C1156 O1150 1.261 . S
C1157 O1152 1.259 . S
C1157 O1154 1.235 . S
O1158 Co1148 2.021 . S
O1158 C1155 1.238 . S
O1159 Co1153 2.052 . S
O1159 C1155 1.241 . S
O1160 Co1148 2.137 . S
O1160 C1151 1.247 . S
O1161 Co1148 2.244 . S
O1161 C1151 1.272 . S
O1161 Co1153 2.135 . S
Co1162 O1163 2.216 . S
Co1162 O1164 2.091 . S
Co1162 O1166 2.004 . S
Co1162 O1172 2.021 . S
Co1162 O1174 2.137 . S
Co1162 O1175 2.244 . S
O1163 Co1162 2.216 . S
O1163 C1170 1.247 . S
O1164 Co1162 2.091 . S
O1164 C1170 1.261 . S
C1165 O1174 1.247 . S
C1165 O1175 1.272 . S
O1166 Co1162 2.004 . S
O1166 C1171 1.259 . S
Co1167 O1168 2.061 . S
Co1167 O1173 2.052 . S
Co1167 O1175 2.135 . S
O1168 Co1167 2.061 . S
O1168 C1171 1.235 . S
C1169 O1172 1.238 . S
C1169 O1173 1.241 . S
C1170 O1163 1.247 . S
C1170 O1164 1.261 . S
C1171 O1166 1.259 . S
C1171 O1168 1.235 . S
O1172 Co1162 2.021 . S
O1172 C1169 1.238 . S
O1173 Co1167 2.052 . S
O1173 C1169 1.241 . S
O1174 Co1162 2.137 . S
O1174 C1165 1.247 . S
O1175 Co1162 2.244 . S
O1175 C1165 1.272 . S
O1175 Co1167 2.135 . S
Co1176 O1177 2.216 . S
Co1176 O1178 2.091 . S
Co1176 O1180 2.004 . S
Co1176 O1186 2.021 . S
Co1176 O1188 2.137 . S
Co1176 O1189 2.244 . S
O1177 Co1176 2.216 . S
O1177 C1184 1.247 . S
O1178 Co1176 2.091 . S
O1178 C1184 1.261 . S
C1179 O1188 1.247 . S
C1179 O1189 1.272 . S
O1180 Co1176 2.004 . S
O1180 C1185 1.259 . S
Co1181 O1182 2.061 . S
Co1181 O1187 2.052 . S
Co1181 O1189 2.135 . S
O1182 Co1181 2.061 . S
O1182 C1185 1.235 . S
C1183 O1186 1.238 . S
C1183 O1187 1.241 . S
C1184 O1177 1.247 . S
C1184 O1178 1.261 . S
C1185 O1180 1.259 . S
C1185 O1182 1.235 . S
O1186 Co1176 2.021 . S
O1186 C1183 1.238 . S
O1187 Co1181 2.052 . S
O1187 C1183 1.241 . S
O1188 Co1176 2.137 . S
O1188 C1179 1.247 . S
O1189 Co1176 2.244 . S
O1189 C1179 1.272 . S
O1189 Co1181 2.135 . S
Co1190 O1191 2.216 . S
Co1190 O1192 2.091 . S
Co1190 O1194 2.004 . S
Co1190 O1200 2.021 . S
Co1190 O1202 2.137 . S
Co1190 O1203 2.244 . S
O1191 Co1190 2.216 . S
O1191 C1198 1.247 . S
O1192 Co1190 2.091 . S
O1192 C1198 1.261 . S
C1193 O1202 1.247 . S
C1193 O1203 1.272 . S
O1194 Co1190 2.004 . S
O1194 C1199 1.259 . S
Co1195 O1196 2.061 . S
Co1195 O1201 2.052 . S
Co1195 O1203 2.135 . S
O1196 Co1195 2.061 . S
O1196 C1199 1.235 . S
C1197 O1200 1.238 . S
C1197 O1201 1.241 . S
C1198 O1191 1.247 . S
C1198 O1192 1.261 . S
C1199 O1194 1.259 . S
C1199 O1196 1.235 . S
O1200 Co1190 2.021 . S
O1200 C1197 1.238 . S
O1201 Co1195 2.052 . S
O1201 C1197 1.241 . S
O1202 Co1190 2.137 . S
O1202 C1193 1.247 . S
O1203 Co1190 2.244 . S
O1203 C1193 1.272 . S
O1203 Co1195 2.135 . S
Co1204 O1205 2.216 . S
Co1204 O1206 2.091 . S
Co1204 O1208 2.004 . S
Co1204 O1214 2.021 . S
Co1204 O1216 2.137 . S
Co1204 O1217 2.244 . S
O1205 Co1204 2.216 . S
O1205 C1212 1.247 . S
O1206 Co1204 2.091 . S
O1206 C1212 1.261 . S
C1207 O1216 1.247 . S
C1207 O1217 1.272 . S
O1208 Co1204 2.004 . S
O1208 C1213 1.259 . S
Co1209 O1210 2.061 . S
Co1209 O1215 2.052 . S
Co1209 O1217 2.135 . S
O1210 Co1209 2.061 . S
O1210 C1213 1.235 . S
C1211 O1214 1.238 . S
C1211 O1215 1.241 . S
C1212 O1205 1.247 . S
C1212 O1206 1.261 . S
C1213 O1208 1.259 . S
C1213 O1210 1.235 . S
O1214 Co1204 2.021 . S
O1214 C1211 1.238 . S
O1215 Co1209 2.052 . S
O1215 C1211 1.241 . S
O1216 Co1204 2.137 . S
O1216 C1207 1.247 . S
O1217 Co1204 2.244 . S
O1217 C1207 1.272 . S
O1217 Co1209 2.135 . S
Co1218 O1219 2.216 . S
Co1218 O1220 2.091 . S
Co1218 O1222 2.004 . S
Co1218 O1228 2.021 . S
Co1218 O1230 2.137 . S
Co1218 O1231 2.244 . S
O1219 Co1218 2.216 . S
O1219 C1226 1.247 . S
O1220 Co1218 2.091 . S
O1220 C1226 1.261 . S
C1221 O1230 1.247 . S
C1221 O1231 1.272 . S
O1222 Co1218 2.004 . S
O1222 C1227 1.259 . S
Co1223 O1224 2.061 . S
Co1223 O1229 2.052 . S
Co1223 O1231 2.135 . S
O1224 Co1223 2.061 . S
O1224 C1227 1.235 . S
C1225 O1228 1.238 . S
C1225 O1229 1.241 . S
C1226 O1219 1.247 . S
C1226 O1220 1.261 . S
C1227 O1222 1.259 . S
C1227 O1224 1.235 . S
O1228 Co1218 2.021 . S
O1228 C1225 1.238 . S
O1229 Co1223 2.052 . S
O1229 C1225 1.241 . S
O1230 Co1218 2.137 . S
O1230 C1221 1.247 . S
O1231 Co1218 2.244 . S
O1231 C1221 1.272 . S
O1231 Co1223 2.135 . S
Co1232 O1233 2.216 . S
Co1232 O1234 2.091 . S
Co1232 O1236 2.004 . S
Co1232 O1242 2.021 . S
Co1232 O1244 2.137 . S
Co1232 O1245 2.244 . S
O1233 Co1232 2.216 . S
O1233 C1240 1.247 . S
O1234 Co1232 2.091 . S
O1234 C1240 1.261 . S
C1235 O1244 1.247 . S
C1235 O1245 1.272 . S
O1236 Co1232 2.004 . S
O1236 C1241 1.259 . S
Co1237 O1238 2.061 . S
Co1237 O1243 2.052 . S
Co1237 O1245 2.135 . S
O1238 Co1237 2.061 . S
O1238 C1241 1.235 . S
C1239 O1242 1.238 . S
C1239 O1243 1.241 . S
C1240 O1233 1.247 . S
C1240 O1234 1.261 . S
C1241 O1236 1.259 . S
C1241 O1238 1.235 . S
O1242 Co1232 2.021 . S
O1242 C1239 1.238 . S
O1243 Co1237 2.052 . S
O1243 C1239 1.241 . S
O1244 Co1232 2.137 . S
O1244 C1235 1.247 . S
O1245 Co1232 2.244 . S
O1245 C1235 1.272 . S
O1245 Co1237 2.135 . S
Co1246 O1247 2.216 . S
Co1246 O1248 2.091 . S
Co1246 O1250 2.004 . S
Co1246 O1256 2.021 . S
Co1246 O1258 2.137 . S
Co1246 O1259 2.244 . S
O1247 Co1246 2.216 . S
O1247 C1254 1.247 . S
O1248 Co1246 2.091 . S
O1248 C1254 1.261 . S
C1249 O1258 1.247 . S
C1249 O1259 1.272 . S
O1250 Co1246 2.004 . S
O1250 C1255 1.259 . S
Co1251 O1252 2.061 . S
Co1251 O1257 2.052 . S
Co1251 O1259 2.135 . S
O1252 Co1251 2.061 . S
O1252 C1255 1.235 . S
C1253 O1256 1.238 . S
C1253 O1257 1.241 . S
C1254 O1247 1.247 . S
C1254 O1248 1.261 . S
C1255 O1250 1.259 . S
C1255 O1252 1.235 . S
O1256 Co1246 2.021 . S
O1256 C1253 1.238 . S
O1257 Co1251 2.052 . S
O1257 C1253 1.241 . S
O1258 Co1246 2.137 . S
O1258 C1249 1.247 . S
O1259 Co1246 2.244 . S
O1259 C1249 1.272 . S
O1259 Co1251 2.135 . S
Co1260 O1261 2.216 . S
Co1260 O1262 2.091 . S
Co1260 O1264 2.004 . S
Co1260 O1270 2.021 . S
Co1260 O1272 2.137 . S
Co1260 O1273 2.244 . S
O1261 Co1260 2.216 . S
O1261 C1268 1.247 . S
O1262 Co1260 2.091 . S
O1262 C1268 1.261 . S
C1263 O1272 1.247 . S
C1263 O1273 1.272 . S
O1264 Co1260 2.004 . S
O1264 C1269 1.259 . S
Co1265 O1266 2.061 . S
Co1265 O1271 2.052 . S
Co1265 O1273 2.135 . S
O1266 Co1265 2.061 . S
O1266 C1269 1.235 . S
C1267 O1270 1.238 . S
C1267 O1271 1.241 . S
C1268 O1261 1.247 . S
C1268 O1262 1.261 . S
C1269 O1264 1.259 . S
C1269 O1266 1.235 . S
O1270 Co1260 2.021 . S
O1270 C1267 1.238 . S
O1271 Co1265 2.052 . S
O1271 C1267 1.241 . S
O1272 Co1260 2.137 . S
O1272 C1263 1.247 . S
O1273 Co1260 2.244 . S
O1273 C1263 1.272 . S
O1273 Co1265 2.135 . S
Co1274 O1275 2.216 . S
Co1274 O1276 2.091 . S
Co1274 O1278 2.004 . S
Co1274 O1284 2.021 . S
Co1274 O1286 2.137 . S
Co1274 O1287 2.244 . S
O1275 Co1274 2.216 . S
O1275 C1282 1.247 . S
O1276 Co1274 2.091 . S
O1276 C1282 1.261 . S
C1277 O1286 1.247 . S
C1277 O1287 1.272 . S
O1278 Co1274 2.004 . S
O1278 C1283 1.259 . S
Co1279 O1280 2.061 . S
Co1279 O1285 2.052 . S
Co1279 O1287 2.135 . S
O1280 Co1279 2.061 . S
O1280 C1283 1.235 . S
C1281 O1284 1.238 . S
C1281 O1285 1.241 . S
C1282 O1275 1.247 . S
C1282 O1276 1.261 . S
C1283 O1278 1.259 . S
C1283 O1280 1.235 . S
O1284 Co1274 2.021 . S
O1284 C1281 1.238 . S
O1285 Co1279 2.052 . S
O1285 C1281 1.241 . S
O1286 Co1274 2.137 . S
O1286 C1277 1.247 . S
O1287 Co1274 2.244 . S
O1287 C1277 1.272 . S
O1287 Co1279 2.135 . S
Co1288 O1289 2.216 . S
Co1288 O1290 2.091 . S
Co1288 O1292 2.004 . S
Co1288 O1298 2.021 . S
Co1288 O1300 2.137 . S
Co1288 O1301 2.244 . S
O1289 Co1288 2.216 . S
O1289 C1296 1.247 . S
O1290 Co1288 2.091 . S
O1290 C1296 1.261 . S
C1291 O1300 1.247 . S
C1291 O1301 1.272 . S
O1292 Co1288 2.004 . S
O1292 C1297 1.259 . S
Co1293 O1294 2.061 . S
Co1293 O1299 2.052 . S
Co1293 O1301 2.135 . S
O1294 Co1293 2.061 . S
O1294 C1297 1.235 . S
C1295 O1298 1.238 . S
C1295 O1299 1.241 . S
C1296 O1289 1.247 . S
C1296 O1290 1.261 . S
C1297 O1292 1.259 . S
C1297 O1294 1.235 . S
O1298 Co1288 2.021 . S
O1298 C1295 1.238 . S
O1299 Co1293 2.052 . S
O1299 C1295 1.241 . S
O1300 Co1288 2.137 . S
O1300 C1291 1.247 . S
O1301 Co1288 2.244 . S
O1301 C1291 1.272 . S
O1301 Co1293 2.135 . S
Co1302 O1303 2.216 . S
Co1302 O1304 2.091 . S
Co1302 O1306 2.004 . S
Co1302 O1312 2.021 . S
Co1302 O1314 2.137 . S
Co1302 O1315 2.244 . S
O1303 Co1302 2.216 . S
O1303 C1310 1.247 . S
O1304 Co1302 2.091 . S
O1304 C1310 1.261 . S
C1305 O1314 1.247 . S
C1305 O1315 1.272 . S
O1306 Co1302 2.004 . S
O1306 C1311 1.259 . S
Co1307 O1308 2.061 . S
Co1307 O1313 2.052 . S
Co1307 O1315 2.135 . S
O1308 Co1307 2.061 . S
O1308 C1311 1.235 . S
C1309 O1312 1.238 . S
C1309 O1313 1.241 . S
C1310 O1303 1.247 . S
C1310 O1304 1.261 . S
C1311 O1306 1.259 . S
C1311 O1308 1.235 . S
O1312 Co1302 2.021 . S
O1312 C1309 1.238 . S
O1313 Co1307 2.052 . S
O1313 C1309 1.241 . S
O1314 Co1302 2.137 . S
O1314 C1305 1.247 . S
O1315 Co1302 2.244 . S
O1315 C1305 1.272 . S
O1315 Co1307 2.135 . S
Co1316 O1317 2.216 . S
Co1316 O1318 2.091 . S
Co1316 O1320 2.004 . S
Co1316 O1326 2.021 . S
Co1316 O1328 2.137 . S
Co1316 O1329 2.244 . S
O1317 Co1316 2.216 . S
O1317 C1324 1.247 . S
O1318 Co1316 2.091 . S
O1318 C1324 1.261 . S
C1319 O1328 1.247 . S
C1319 O1329 1.272 . S
O1320 Co1316 2.004 . S
O1320 C1325 1.259 . S
Co1321 O1322 2.061 . S
Co1321 O1327 2.052 . S
Co1321 O1329 2.135 . S
O1322 Co1321 2.061 . S
O1322 C1325 1.235 . S
C1323 O1326 1.238 . S
C1323 O1327 1.241 . S
C1324 O1317 1.247 . S
C1324 O1318 1.261 . S
C1325 O1320 1.259 . S
C1325 O1322 1.235 . S
O1326 Co1316 2.021 . S
O1326 C1323 1.238 . S
O1327 Co1321 2.052 . S
O1327 C1323 1.241 . S
O1328 Co1316 2.137 . S
O1328 C1319 1.247 . S
O1329 Co1316 2.244 . S
O1329 C1319 1.272 . S
O1329 Co1321 2.135 . S
Co1330 O1331 2.216 . S
Co1330 O1332 2.091 . S
Co1330 O1334 2.004 . S
Co1330 O1340 2.021 . S
Co1330 O1342 2.137 . S
Co1330 O1343 2.244 . S
O1331 Co1330 2.216 . S
O1331 C1338 1.247 . S
O1332 Co1330 2.091 . S
O1332 C1338 1.261 . S
C1333 O1342 1.247 . S
C1333 O1343 1.272 . S
O1334 Co1330 2.004 . S
O1334 C1339 1.259 . S
Co1335 O1336 2.061 . S
Co1335 O1341 2.052 . S
Co1335 O1343 2.135 . S
O1336 Co1335 2.061 . S
O1336 C1339 1.235 . S
C1337 O1340 1.238 . S
C1337 O1341 1.241 . S
C1338 O1331 1.247 . S
C1338 O1332 1.261 . S
C1339 O1334 1.259 . S
C1339 O1336 1.235 . S
O1340 Co1330 2.021 . S
O1340 C1337 1.238 . S
O1341 Co1335 2.052 . S
O1341 C1337 1.241 . S
O1342 Co1330 2.137 . S
O1342 C1333 1.247 . S
O1343 Co1330 2.244 . S
O1343 C1333 1.272 . S
O1343 Co1335 2.135 . S
C1344 C1345 1.383 . S
C1344 C1346 1.406 1_554 S
C1344 H1348 0.929 1_554 S
C1345 C1344 1.383 . S
C1345 C1354 1.429 1_455 S
C1346 C1344 1.406 1_556 S
C1346 C1347 1.363 1_455 S
C1346 H1349 0.929 . S
C1347 C1346 1.363 1_655 S
C1347 C1353 1.415 1_556 S
H1348 C1344 0.929 1_556 S
H1349 C1346 0.929 . S
S1350 N1351 1.613 . S
S1350 N1352 1.610 . S
N1351 S1350 1.613 . S
N1351 C1354 1.350 . S
N1352 S1350 1.610 . S
N1352 C1353 1.353 . S
C1353 C1347 1.415 1_554 S
C1353 N1352 1.353 . S
C1353 C1354 1.447 . S
C1354 C1345 1.429 1_655 S
C1354 N1351 1.350 . S
C1354 C1353 1.447 . S
C1355 C1356 1.369 . S
C1355 C1357 1.419 . S
C1355 H1359 0.930 . S
C1356 C1355 1.369 . S
C1356 C1365 1.429 . S
C1357 C1355 1.419 . S
C1357 C1358 1.363 . S
C1357 H1360 0.929 . S
C1358 C1357 1.363 . S
C1358 C1364 1.428 . S
H1359 C1355 0.930 . S
H1360 C1357 0.929 . S
S1361 N1362 1.613 . S
S1361 N1363 1.610 . S
N1362 S1361 1.613 . S
N1362 C1365 1.350 . S
N1363 S1361 1.610 . S
N1363 C1364 1.351 . S
C1364 C1358 1.428 . S
C1364 N1363 1.351 . S
C1364 C1365 1.434 . S
C1365 C1356 1.429 . S
C1365 N1362 1.350 . S
C1365 C1364 1.434 . S
C1366 C1367 1.369 . S
C1366 C1368 1.419 1_655 S
C1366 H1370 0.930 . S
C1367 C1366 1.369 . S
C1367 C1376 1.429 . S
C1368 C1366 1.419 1_455 S
C1368 C1369 1.363 . S
C1368 H1371 0.929 . S
C1369 C1368 1.363 . S
C1369 C1375 1.428 . S
H1370 C1366 0.930 . S
H1371 C1368 0.929 . S
S1372 N1373 1.613 . S
S1372 N1374 1.614 . S
N1373 S1372 1.613 . S
N1373 C1376 1.350 . S
N1374 S1372 1.614 . S
N1374 C1375 1.351 1_655 S
C1375 C1369 1.428 . S
C1375 N1374 1.351 1_455 S
C1375 C1376 1.434 1_455 S
C1376 C1367 1.429 . S
C1376 N1373 1.350 . S
C1376 C1375 1.434 1_655 S
C1377 C1378 1.369 . S
C1377 C1379 1.419 . S
C1377 H1381 0.930 . S
C1378 C1377 1.369 . S
C1378 C1387 1.429 . S
C1379 C1377 1.419 . S
C1379 C1380 1.363 . S
C1379 H1382 0.929 . S
C1380 C1379 1.363 . S
C1380 C1386 1.428 . S
H1381 C1377 0.930 . S
H1382 C1379 0.929 . S
S1383 N1384 1.613 . S
S1383 N1385 1.610 . S
N1384 S1383 1.613 . S
N1384 C1387 1.350 . S
N1385 S1383 1.610 . S
N1385 C1386 1.351 . S
C1386 C1380 1.428 . S
C1386 N1385 1.351 . S
C1386 C1387 1.434 . S
C1387 C1378 1.429 . S
C1387 N1384 1.350 . S
C1387 C1386 1.434 . S
C1388 C1389 1.369 . S
C1388 C1390 1.419 1_554 S
C1388 H1392 0.930 . S
C1389 C1388 1.369 . S
C1389 C1398 1.429 1_655 S
C1390 C1388 1.419 1_556 S
C1390 C1391 1.363 1_655 S
C1390 H1393 0.929 . S
C1391 C1390 1.363 1_455 S
C1391 C1397 1.428 . S
H1392 C1388 0.930 . S
H1393 C1390 0.929 . S
S1394 N1395 1.613 . S
S1394 N1396 1.610 1_554 S
N1395 S1394 1.613 . S
N1395 C1398 1.350 . S
N1396 S1394 1.610 1_556 S
N1396 C1397 1.351 . S
C1397 C1391 1.428 . S
C1397 N1396 1.351 . S
C1397 C1398 1.434 1_556 S
C1398 C1389 1.429 1_455 S
C1398 N1395 1.350 . S
C1398 C1397 1.434 1_554 S
C1399 C1400 1.369 . S
C1399 C1401 1.419 . S
C1399 H1403 0.930 . S
C1400 C1399 1.369 . S
C1400 C1409 1.429 . S
C1401 C1399 1.419 . S
C1401 C1402 1.363 . S
C1401 H1404 0.929 . S
C1402 C1401 1.363 . S
C1402 C1408 1.428 . S
H1403 C1399 0.930 . S
H1404 C1401 0.929 . S
S1405 N1406 1.613 . S
S1405 N1407 1.610 . S
N1406 S1405 1.613 . S
N1406 C1409 1.350 . S
N1407 S1405 1.610 . S
N1407 C1408 1.351 . S
C1408 C1402 1.428 . S
C1408 N1407 1.351 . S
C1408 C1409 1.434 . S
C1409 C1400 1.429 . S
C1409 N1406 1.350 . S
C1409 C1408 1.434 . S
C1410 C1411 1.366 1_655 S
C1410 C1412 1.421 . S
C1410 H1414 0.930 . S
C1411 C1410 1.366 1_455 S
C1411 C1420 1.429 . S
C1412 C1410 1.421 . S
C1412 C1413 1.363 . S
C1412 H1415 0.929 . S
C1413 C1412 1.363 . S
C1413 C1419 1.428 1_655 S
H1414 C1410 0.930 . S
H1415 C1412 0.929 . S
S1416 N1417 1.613 . S
S1416 N1418 1.610 . S
N1417 S1416 1.613 . S
N1417 C1420 1.350 . S
N1418 S1416 1.610 . S
N1418 C1419 1.351 . S
C1419 C1413 1.428 1_455 S
C1419 N1418 1.351 . S
C1419 C1420 1.434 . S
C1420 C1411 1.429 . S
C1420 N1417 1.350 . S
C1420 C1419 1.434 . S
C1421 C1422 1.369 . S
C1421 C1423 1.419 . S
C1421 H1425 0.930 . S
C1422 C1421 1.369 . S
C1422 C1431 1.429 . S
C1423 C1421 1.419 . S
C1423 C1424 1.363 . S
C1423 H1426 0.929 . S
C1424 C1423 1.363 . S
C1424 C1430 1.428 . S
H1425 C1421 0.930 . S
H1426 C1423 0.929 . S
S1427 N1428 1.613 . S
S1427 N1429 1.610 . S
N1428 S1427 1.613 . S
N1428 C1431 1.350 . S
N1429 S1427 1.610 . S
N1429 C1430 1.351 . S
C1430 C1424 1.428 . S
C1430 N1429 1.351 . S
C1430 C1431 1.434 . S
C1431 C1422 1.429 . S
C1431 N1428 1.350 . S
C1431 C1430 1.434 . S
C1432 C1433 1.369 1_545 S
C1432 C1434 1.416 1_655 S
C1432 H1436 0.930 . S
C1433 C1432 1.369 1_565 S
C1433 C1442 1.392 1_655 S
C1434 C1432 1.416 1_455 S
C1434 C1435 1.365 . S
C1434 H1437 0.928 1_455 S
C1435 C1434 1.365 . S
C1435 C1441 1.428 1_545 S
H1436 C1432 0.930 . S
H1437 C1434 0.928 1_655 S
S1438 N1439 1.613 . S
S1438 N1440 1.610 . S
N1439 S1438 1.613 . S
N1439 C1442 1.357 . S
N1440 S1438 1.610 . S
N1440 C1441 1.351 . S
C1441 C1435 1.428 1_565 S
C1441 N1440 1.351 . S
C1441 C1442 1.469 . S
C1442 C1433 1.392 1_455 S
C1442 N1439 1.357 . S
C1442 C1441 1.469 . S
C1443 C1444 1.369 . S
C1443 C1445 1.419 . S
C1443 H1447 0.930 . S
C1444 C1443 1.369 . S
C1444 C1453 1.429 . S
C1445 C1443 1.419 . S
C1445 C1446 1.363 . S
C1445 H1448 0.929 . S
C1446 C1445 1.363 . S
C1446 C1452 1.428 . S
H1447 C1443 0.930 . S
H1448 C1445 0.929 . S
S1449 N1450 1.613 . S
S1449 N1451 1.610 . S
N1450 S1449 1.613 . S
N1450 C1453 1.350 . S
N1451 S1449 1.610 . S
N1451 C1452 1.351 . S
C1452 C1446 1.428 . S
C1452 N1451 1.351 . S
C1452 C1453 1.434 . S
C1453 C1444 1.429 . S
C1453 N1450 1.350 . S
C1453 C1452 1.434 . S
C1454 C1455 1.369 . S
C1454 C1456 1.419 1_655 S
C1454 H1458 0.930 . S
C1455 C1454 1.369 . S
C1455 C1464 1.429 . S
C1456 C1454 1.419 1_455 S
C1456 C1457 1.363 . S
C1456 H1459 0.929 . S
C1457 C1456 1.363 . S
C1457 C1463 1.428 . S
H1458 C1454 0.930 . S
H1459 C1456 0.929 . S
S1460 N1461 1.613 1_455 S
S1460 N1462 1.610 . S
N1461 S1460 1.613 1_655 S
N1461 C1464 1.350 . S
N1462 S1460 1.610 . S
N1462 C1463 1.351 . S
C1463 C1457 1.428 . S
C1463 N1462 1.351 . S
C1463 C1464 1.434 1_455 S
C1464 C1455 1.429 . S
C1464 N1461 1.350 . S
C1464 C1463 1.434 1_655 S
C1465 C1466 1.369 . S
C1465 C1467 1.419 . S
C1465 H1469 0.930 . S
C1466 C1465 1.369 . S
C1466 C1475 1.429 . S
C1467 C1465 1.419 . S
C1467 C1468 1.363 . S
C1467 H1470 0.929 . S
C1468 C1467 1.363 . S
C1468 C1474 1.428 . S
H1469 C1465 0.930 . S
H1470 C1467 0.929 . S
S1471 N1472 1.613 . S
S1471 N1473 1.610 . S
N1472 S1471 1.613 . S
N1472 C1475 1.350 . S
N1473 S1471 1.610 . S
N1473 C1474 1.351 . S
C1474 C1468 1.428 . S
C1474 N1473 1.351 . S
C1474 C1475 1.434 . S
C1475 C1466 1.429 . S
C1475 N1472 1.350 . S
C1475 C1474 1.434 . S
C1476 C1477 1.369 . S
C1476 C1478 1.419 1_455 S
C1476 H1480 0.930 . S
C1477 C1476 1.369 . S
C1477 C1486 1.429 1_565 S
C1478 C1476 1.419 1_655 S
C1478 C1479 1.363 1_565 S
C1478 H1481 0.929 . S
C1479 C1478 1.363 1_545 S
C1479 C1485 1.465 . S
H1480 C1476 0.930 . S
H1481 C1478 0.929 . S
S1482 N1483 1.613 . S
S1482 N1484 1.653 . S
N1483 S1482 1.613 . S
N1483 C1486 1.350 . S
N1484 S1482 1.653 . S
N1484 C1485 1.347 1_455 S
C1485 C1479 1.465 . S
C1485 N1484 1.347 1_655 S
C1485 C1486 1.397 1_655 S
C1486 C1477 1.429 1_545 S
C1486 N1483 1.350 . S
C1486 C1485 1.397 1_455 S
C1487 C1488 1.369 . S
C1487 C1489 1.419 . S
C1487 H1491 0.930 . S
C1488 C1487 1.369 . S
C1488 C1497 1.429 . S
C1489 C1487 1.419 . S
C1489 C1490 1.363 . S
C1489 H1492 0.929 . S
C1490 C1489 1.363 . S
C1490 C1496 1.428 . S
H1491 C1487 0.930 . S
H1492 C1489 0.929 . S
S1493 N1494 1.613 . S
S1493 N1495 1.610 . S
N1494 S1493 1.613 . S
N1494 C1497 1.350 . S
N1495 S1493 1.610 . S
N1495 C1496 1.351 . S
C1496 C1490 1.428 . S
C1496 N1495 1.351 . S
C1496 C1497 1.434 . S
C1497 C1488 1.429 . S
C1497 N1494 1.350 . S
C1497 C1496 1.434 . S
C1498 C1499 1.369 . S
C1498 C1500 1.420 1_455 S
C1498 H1502 0.930 . S
C1499 C1498 1.369 . S
C1499 C1508 1.391 1_455 S
C1500 C1498 1.420 1_655 S
C1500 C1501 1.362 . S
C1500 H1503 0.928 1_655 S
C1501 C1500 1.362 . S
C1501 C1507 1.428 . S
H1502 C1498 0.930 . S
H1503 C1500 0.928 1_455 S
S1504 N1505 1.613 . S
S1504 N1506 1.610 . S
N1505 S1504 1.613 . S
N1505 C1508 1.357 . S
N1506 S1504 1.610 . S
N1506 C1507 1.351 . S
C1507 C1501 1.428 . S
C1507 N1506 1.351 . S
C1507 C1508 1.470 . S
C1508 C1499 1.391 1_655 S
C1508 N1505 1.357 . S
C1508 C1507 1.470 . S
C1509 C1510 1.369 . S
C1509 C1511 1.419 . S
C1509 H1513 0.930 . S
C1510 C1509 1.369 . S
C1510 C1519 1.429 . S
C1511 C1509 1.419 . S
C1511 C1512 1.363 . S
C1511 H1514 0.929 . S
C1512 C1511 1.363 . S
C1512 C1518 1.428 . S
H1513 C1509 0.930 . S
H1514 C1511 0.929 . S
S1515 N1516 1.613 . S
S1515 N1517 1.610 . S
N1516 S1515 1.613 . S
N1516 C1519 1.350 . S
N1517 S1515 1.610 . S
N1517 C1518 1.351 . S
C1518 C1512 1.428 . S
C1518 N1517 1.351 . S
C1518 C1519 1.434 . S
C1519 C1510 1.429 . S
C1519 N1516 1.350 . S
C1519 C1518 1.434 . S
C1520 C1521 1.369 1_554 S
C1520 C1522 1.397 1_565 S
C1520 H1524 0.930 . S
C1521 C1520 1.369 1_556 S
C1521 C1530 1.411 1_565 S
C1522 C1520 1.397 1_545 S
C1522 C1523 1.385 . S
C1522 H1525 0.929 1_545 S
C1523 C1522 1.385 . S
C1523 C1529 1.428 1_554 S
H1524 C1520 0.930 . S
H1525 C1522 0.929 1_565 S
S1526 N1527 1.613 . S
S1526 N1528 1.610 . S
N1527 S1526 1.613 . S
N1527 C1530 1.353 . S
N1528 S1526 1.610 . S
N1528 C1529 1.351 . S
C1529 C1523 1.428 1_556 S
C1529 N1528 1.351 . S
C1529 C1530 1.451 . S
C1530 C1521 1.411 1_545 S
C1530 N1527 1.353 . S
C1530 C1529 1.451 . S
C1531 C1532 1.369 . S
C1531 C1533 1.419 1_545 S
C1531 H1535 0.930 . S
C1532 C1531 1.369 . S
C1532 C1541 1.429 . S
C1533 C1531 1.419 1_565 S
C1533 C1534 1.363 . S
C1533 H1536 0.929 . S
C1534 C1533 1.363 . S
C1534 C1540 1.428 . S
H1535 C1531 0.930 . S
H1536 C1533 0.929 . S
S1537 N1538 1.613 . S
S1537 N1539 1.610 1_545 S
N1538 S1537 1.613 . S
N1538 C1541 1.350 . S
N1539 S1537 1.610 1_565 S
N1539 C1540 1.351 . S
C1540 C1534 1.428 . S
C1540 N1539 1.351 . S
C1540 C1541 1.434 1_565 S
C1541 C1532 1.429 . S
C1541 N1538 1.350 . S
C1541 C1540 1.434 1_545 S
C1542 C1543 1.369 . S
C1542 C1544 1.419 . S
C1542 H1546 0.930 . S
C1543 C1542 1.369 . S
C1543 C1552 1.429 . S
C1544 C1542 1.419 . S
C1544 C1545 1.363 . S
C1544 H1547 0.929 . S
C1545 C1544 1.363 . S
C1545 C1551 1.428 . S
H1546 C1542 0.930 . S
H1547 C1544 0.929 . S
S1548 N1549 1.613 . S
S1548 N1550 1.610 . S
N1549 S1548 1.613 . S
N1549 C1552 1.350 . S
N1550 S1548 1.610 . S
N1550 C1551 1.351 . S
C1551 C1545 1.428 . S
C1551 N1550 1.351 . S
C1551 C1552 1.434 . S
C1552 C1543 1.429 . S
C1552 N1549 1.350 . S
C1552 C1551 1.434 . S
C1553 C1554 1.369 . S
C1553 C1555 1.419 . S
C1553 H1557 0.930 . S
C1554 C1553 1.369 . S
C1554 C1563 1.429 1_554 S
C1555 C1553 1.419 . S
C1555 C1556 1.363 1_554 S
C1555 H1558 0.929 . S
C1556 C1555 1.363 1_556 S
C1556 C1562 1.428 . S
H1557 C1553 0.930 . S
H1558 C1555 0.929 . S
S1559 N1560 1.613 . S
S1559 N1561 1.610 . S
N1560 S1559 1.613 . S
N1560 C1563 1.350 . S
N1561 S1559 1.610 . S
N1561 C1562 1.351 . S
C1562 C1556 1.428 . S
C1562 N1561 1.351 . S
C1562 C1563 1.434 . S
C1563 C1554 1.429 1_556 S
C1563 N1560 1.350 . S
C1563 C1562 1.434 . S
C1564 C1565 1.369 . S
C1564 C1566 1.419 . S
C1564 H1568 0.930 . S
C1565 C1564 1.369 . S
C1565 C1574 1.429 . S
C1566 C1564 1.419 . S
C1566 C1567 1.363 . S
C1566 H1569 0.929 . S
C1567 C1566 1.363 . S
C1567 C1573 1.428 . S
H1568 C1564 0.930 . S
H1569 C1566 0.929 . S
S1570 N1571 1.613 . S
S1570 N1572 1.610 . S
N1571 S1570 1.613 . S
N1571 C1574 1.350 . S
N1572 S1570 1.610 . S
N1572 C1573 1.351 . S
C1573 C1567 1.428 . S
C1573 N1572 1.351 . S
C1573 C1574 1.434 . S
C1574 C1565 1.429 . S
C1574 N1571 1.350 . S
C1574 C1573 1.434 . S
C1575 C1576 1.369 . S
C1575 C1577 1.419 1_565 S
C1575 H1579 0.930 . S
C1576 C1575 1.369 . S
C1576 C1585 1.429 1_554 S
C1577 C1575 1.419 1_545 S
C1577 C1578 1.363 1_554 S
C1577 H1580 0.929 . S
C1578 C1577 1.363 1_556 S
C1578 C1584 1.428 . S
H1579 C1575 0.930 . S
H1580 C1577 0.929 . S
S1581 N1582 1.613 . S
S1581 N1583 1.610 1_565 S
N1582 S1581 1.613 . S
N1582 C1585 1.350 . S
N1583 S1581 1.610 1_545 S
N1583 C1584 1.351 . S
C1584 C1578 1.428 . S
C1584 N1583 1.351 . S
C1584 C1585 1.434 1_545 S
C1585 C1576 1.429 1_556 S
C1585 N1582 1.350 . S
C1585 C1584 1.434 1_565 S
C1586 C1587 1.369 . S
C1586 C1588 1.419 . S
C1586 H1590 0.930 . S
C1587 C1586 1.369 . S
C1587 C1596 1.429 . S
C1588 C1586 1.419 . S
C1588 C1589 1.363 . S
C1588 H1591 0.929 . S
C1589 C1588 1.363 . S
C1589 C1595 1.428 . S
H1590 C1586 0.930 . S
H1591 C1588 0.929 . S
S1592 N1593 1.613 . S
S1592 N1594 1.610 . S
N1593 S1592 1.613 . S
N1593 C1596 1.350 . S
N1594 S1592 1.610 . S
N1594 C1595 1.351 . S
C1595 C1589 1.428 . S
C1595 N1594 1.351 . S
C1595 C1596 1.434 . S
C1596 C1587 1.429 . S
C1596 N1593 1.350 . S
C1596 C1595 1.434 . S
C1597 C1598 1.369 . S
C1597 C1599 1.419 . S
C1597 H1601 0.930 . S
C1598 C1597 1.369 . S
C1598 C1607 1.429 . S
C1599 C1597 1.419 . S
C1599 C1600 1.363 . S
C1599 H1602 0.929 . S
C1600 C1599 1.363 . S
C1600 C1606 1.428 . S
H1601 C1597 0.930 . S
H1602 C1599 0.929 . S
S1603 N1604 1.613 . S
S1603 N1605 1.610 . S
N1604 S1603 1.613 . S
N1604 C1607 1.350 . S
N1605 S1603 1.610 . S
N1605 C1606 1.351 . S
C1606 C1600 1.428 . S
C1606 N1605 1.351 . S
C1606 C1607 1.434 . S
C1607 C1598 1.429 . S
C1607 N1604 1.350 . S
C1607 C1606 1.434 . S
C1608 C1609 1.369 . S
C1608 C1610 1.419 . S
C1608 H1612 0.930 . S
C1609 C1608 1.369 . S
C1609 C1618 1.429 . S
C1610 C1608 1.419 . S
C1610 C1611 1.363 . S
C1610 H1613 0.929 . S
C1611 C1610 1.363 . S
C1611 C1617 1.428 . S
H1612 C1608 0.930 . S
H1613 C1610 0.929 . S
S1614 N1615 1.613 . S
S1614 N1616 1.610 . S
N1615 S1614 1.613 . S
N1615 C1618 1.350 . S
N1616 S1614 1.610 . S
N1616 C1617 1.351 . S
C1617 C1611 1.428 . S
C1617 N1616 1.351 . S
C1617 C1618 1.434 . S
C1618 C1609 1.429 . S
C1618 N1615 1.350 . S
C1618 C1617 1.434 . S
C1619 C1620 1.369 . S
C1619 C1621 1.419 . S
C1619 H1623 0.930 . S
C1620 C1619 1.369 . S
C1620 C1629 1.429 . S
C1621 C1619 1.419 . S
C1621 C1622 1.363 . S
C1621 H1624 0.929 . S
C1622 C1621 1.363 . S
C1622 C1628 1.428 . S
H1623 C1619 0.930 . S
H1624 C1621 0.929 . S
S1625 N1626 1.613 . S
S1625 N1627 1.610 . S
N1626 S1625 1.613 . S
N1626 C1629 1.350 . S
N1627 S1625 1.610 . S
N1627 C1628 1.351 . S
C1628 C1622 1.428 . S
C1628 N1627 1.351 . S
C1628 C1629 1.434 . S
C1629 C1620 1.429 . S
C1629 N1626 1.350 . S
C1629 C1628 1.434 . S
C1630 C1631 1.369 . S
C1630 C1632 1.419 . S
C1630 H1634 0.930 . S
C1631 C1630 1.369 . S
C1631 C1640 1.429 . S
C1632 C1630 1.419 . S
C1632 C1633 1.363 . S
C1632 H1635 0.929 . S
C1633 C1632 1.363 . S
C1633 C1639 1.428 . S
H1634 C1630 0.930 . S
H1635 C1632 0.929 . S
S1636 N1637 1.613 . S
S1636 N1638 1.610 . S
N1637 S1636 1.613 . S
N1637 C1640 1.350 . S
N1638 S1636 1.610 . S
N1638 C1639 1.351 . S
C1639 C1633 1.428 . S
C1639 N1638 1.351 . S
C1639 C1640 1.434 . S
C1640 C1631 1.429 . S
C1640 N1637 1.350 . S
C1640 C1639 1.434 . S
C1641 C1642 1.369 . S
C1641 C1643 1.419 . S
C1641 H1645 0.930 . S
C1642 C1641 1.369 . S
C1642 C1651 1.429 . S
C1643 C1641 1.419 . S
C1643 C1644 1.363 . S
C1643 H1646 0.929 . S
C1644 C1643 1.363 . S
C1644 C1650 1.428 . S
H1645 C1641 0.930 . S
H1646 C1643 0.929 . S
S1647 N1648 1.613 . S
S1647 N1649 1.610 . S
N1648 S1647 1.613 . S
N1648 C1651 1.350 . S
N1649 S1647 1.610 . S
N1649 C1650 1.351 . S
C1650 C1644 1.428 . S
C1650 N1649 1.351 . S
C1650 C1651 1.434 . S
C1651 C1642 1.429 . S
C1651 N1648 1.350 . S
C1651 C1650 1.434 . S
C1652 C1653 1.369 . S
C1652 C1654 1.419 . S
C1652 H1656 0.930 . S
C1653 C1652 1.369 . S
C1653 C1662 1.429 . S
C1654 C1652 1.419 . S
C1654 C1655 1.363 . S
C1654 H1657 0.929 . S
C1655 C1654 1.363 . S
C1655 C1661 1.428 . S
H1656 C1652 0.930 . S
H1657 C1654 0.929 . S
S1658 N1659 1.613 . S
S1658 N1660 1.610 . S
N1659 S1658 1.613 . S
N1659 C1662 1.350 . S
N1660 S1658 1.610 . S
N1660 C1661 1.351 . S
C1661 C1655 1.428 . S
C1661 N1660 1.351 . S
C1661 C1662 1.434 . S
C1662 C1653 1.429 . S
C1662 N1659 1.350 . S
C1662 C1661 1.434 . S
C1663 C1664 1.369 . S
C1663 C1665 1.419 . S
C1663 H1667 0.930 . S
C1664 C1663 1.369 . S
C1664 C1673 1.429 . S
C1665 C1663 1.419 . S
C1665 C1666 1.363 . S
C1665 H1668 0.929 . S
C1666 C1665 1.363 . S
C1666 C1672 1.428 . S
H1667 C1663 0.930 . S
H1668 C1665 0.929 . S
S1669 N1670 1.613 . S
S1669 N1671 1.610 . S
N1670 S1669 1.613 . S
N1670 C1673 1.350 . S
N1671 S1669 1.610 . S
N1671 C1672 1.351 . S
C1672 C1666 1.428 . S
C1672 N1671 1.351 . S
C1672 C1673 1.434 . S
C1673 C1664 1.429 . S
C1673 N1670 1.350 . S
C1673 C1672 1.434 . S
C1674 C1675 1.369 . S
C1674 C1676 1.419 . S
C1674 H1678 0.930 . S
C1675 C1674 1.369 . S
C1675 C1684 1.429 . S
C1676 C1674 1.419 . S
C1676 C1677 1.363 . S
C1676 H1679 0.929 . S
C1677 C1676 1.363 . S
C1677 C1683 1.428 . S
H1678 C1674 0.930 . S
H1679 C1676 0.929 . S
S1680 N1681 1.613 . S
S1680 N1682 1.610 . S
N1681 S1680 1.613 . S
N1681 C1684 1.350 . S
N1682 S1680 1.610 . S
N1682 C1683 1.351 . S
C1683 C1677 1.428 . S
C1683 N1682 1.351 . S
C1683 C1684 1.434 . S
C1684 C1675 1.429 . S
C1684 N1681 1.350 . S
C1684 C1683 1.434 . S
C1685 C1686 1.369 . S
C1685 C1687 1.419 . S
C1685 H1689 0.930 . S
C1686 C1685 1.369 . S
C1686 C1695 1.429 . S
C1687 C1685 1.419 . S
C1687 C1688 1.363 . S
C1687 H1690 0.929 . S
C1688 C1687 1.363 . S
C1688 C1694 1.428 . S
H1689 C1685 0.930 . S
H1690 C1687 0.929 . S
S1691 N1692 1.613 . S
S1691 N1693 1.610 . S
N1692 S1691 1.613 . S
N1692 C1695 1.350 . S
N1693 S1691 1.610 . S
N1693 C1694 1.351 . S
C1694 C1688 1.428 . S
C1694 N1693 1.351 . S
C1694 C1695 1.434 . S
C1695 C1686 1.429 . S
C1695 N1692 1.350 . S
C1695 C1694 1.434 . S
C1696 C1697 1.369 . S
C1696 C1698 1.419 . S
C1696 H1700 0.930 . S
C1697 C1696 1.369 . S
C1697 C1706 1.429 . S
C1698 C1696 1.419 . S
C1698 C1699 1.363 . S
C1698 H1701 0.929 . S
C1699 C1698 1.363 . S
C1699 C1705 1.428 . S
H1700 C1696 0.930 . S
H1701 C1698 0.929 . S
S1702 N1703 1.613 . S
S1702 N1704 1.610 . S
N1703 S1702 1.613 . S
N1703 C1706 1.350 . S
N1704 S1702 1.610 . S
N1704 C1705 1.351 . S
C1705 C1699 1.428 . S
C1705 N1704 1.351 . S
C1705 C1706 1.434 . S
C1706 C1697 1.429 . S
C1706 N1703 1.350 . S
C1706 C1705 1.434 . S
C1707 C1708 1.369 1_554 S
C1707 C1709 1.419 . S
C1707 H1711 0.930 . S
C1708 C1707 1.369 1_556 S
C1708 C1717 1.429 . S
C1709 C1707 1.419 . S
C1709 C1710 1.363 . S
C1709 H1712 0.929 . S
C1710 C1709 1.363 . S
C1710 C1716 1.428 1_554 S
H1711 C1707 0.930 . S
H1712 C1709 0.929 . S
S1713 N1714 1.613 . S
S1713 N1715 1.610 . S
N1714 S1713 1.613 . S
N1714 C1717 1.350 . S
N1715 S1713 1.610 . S
N1715 C1716 1.351 . S
C1716 C1710 1.428 1_556 S
C1716 N1715 1.351 . S
C1716 C1717 1.434 . S
C1717 C1708 1.429 . S
C1717 N1714 1.350 . S
C1717 C1716 1.434 . S
C1718 C1719 1.369 . S
C1718 C1720 1.419 . S
C1718 H1722 0.930 . S
C1719 C1718 1.369 . S
C1719 C1728 1.429 . S
C1720 C1718 1.419 . S
C1720 C1721 1.363 . S
C1720 H1723 0.929 . S
C1721 C1720 1.363 . S
C1721 C1727 1.428 . S
H1722 C1718 0.930 . S
H1723 C1720 0.929 . S
S1724 N1725 1.613 . S
S1724 N1726 1.610 . S
N1725 S1724 1.613 . S
N1725 C1728 1.350 . S
N1726 S1724 1.610 . S
N1726 C1727 1.351 . S
C1727 C1721 1.428 . S
C1727 N1726 1.351 . S
C1727 C1728 1.434 . S
C1728 C1719 1.429 . S
C1728 N1725 1.350 . S
C1728 C1727 1.434 . S
C1729 C1730 1.369 . S
C1729 C1731 1.419 1_565 S
C1729 H1733 0.930 . S
C1730 C1729 1.369 . S
C1730 C1739 1.429 . S
C1731 C1729 1.419 1_545 S
C1731 C1732 1.363 . S
C1731 H1734 0.929 . S
C1732 C1731 1.363 . S
C1732 C1738 1.428 . S
H1733 C1729 0.930 . S
H1734 C1731 0.929 . S
S1735 N1736 1.613 . S
S1735 N1737 1.610 1_565 S
N1736 S1735 1.613 . S
N1736 C1739 1.350 . S
N1737 S1735 1.610 1_545 S
N1737 C1738 1.351 . S
C1738 C1732 1.428 . S
C1738 N1737 1.351 . S
C1738 C1739 1.434 1_545 S
C1739 C1730 1.429 . S
C1739 N1736 1.350 . S
C1739 C1738 1.434 1_565 S
C1740 C1741 1.369 . S
C1740 C1742 1.419 . S
C1740 H1744 0.930 . S
C1741 C1740 1.369 . S
C1741 C1750 1.429 . S
C1742 C1740 1.419 . S
C1742 C1743 1.363 . S
C1742 H1745 0.929 . S
C1743 C1742 1.363 . S
C1743 C1749 1.428 . S
H1744 C1740 0.930 . S
H1745 C1742 0.929 . S
S1746 N1747 1.613 . S
S1746 N1748 1.610 . S
N1747 S1746 1.613 . S
N1747 C1750 1.350 . S
N1748 S1746 1.610 . S
N1748 C1749 1.351 . S
C1749 C1743 1.428 . S
C1749 N1748 1.351 . S
C1749 C1750 1.434 . S
C1750 C1741 1.429 . S
C1750 N1747 1.350 . S
C1750 C1749 1.434 . S
C1751 C1752 1.369 . S
C1751 C1753 1.419 . S
C1751 H1755 0.930 . S
C1752 C1751 1.369 . S
C1752 C1761 1.429 . S
C1753 C1751 1.419 . S
C1753 C1754 1.363 . S
C1753 H1756 0.929 . S
C1754 C1753 1.363 . S
C1754 C1760 1.428 . S
H1755 C1751 0.930 . S
H1756 C1753 0.929 . S
S1757 N1758 1.613 . S
S1757 N1759 1.610 . S
N1758 S1757 1.613 . S
N1758 C1761 1.350 . S
N1759 S1757 1.610 . S
N1759 C1760 1.351 . S
C1760 C1754 1.428 . S
C1760 N1759 1.351 . S
C1760 C1761 1.434 . S
C1761 C1752 1.429 . S
C1761 N1758 1.350 . S
C1761 C1760 1.434 . S
C1762 C1763 1.369 . S
C1762 C1764 1.419 . S
C1762 H1766 0.930 . S
C1763 C1762 1.369 . S
C1763 C1772 1.429 . S
C1764 C1762 1.419 . S
C1764 C1765 1.363 . S
C1764 H1767 0.929 . S
C1765 C1764 1.363 . S
C1765 C1771 1.428 . S
H1766 C1762 0.930 . S
H1767 C1764 0.929 . S
S1768 N1769 1.613 . S
S1768 N1770 1.610 . S
N1769 S1768 1.613 . S
N1769 C1772 1.350 . S
N1770 S1768 1.610 . S
N1770 C1771 1.351 . S
C1771 C1765 1.428 . S
C1771 N1770 1.351 . S
C1771 C1772 1.434 . S
C1772 C1763 1.429 . S
C1772 N1769 1.350 . S
C1772 C1771 1.434 . S
C1773 C1774 1.364 . S
C1773 C1775 1.423 1_556 S
C1773 H1777 0.928 1_556 S
C1774 C1773 1.364 . S
C1774 C1783 1.429 . S
C1775 C1773 1.423 1_554 S
C1775 C1776 1.363 . S
C1775 H1778 0.929 . S
C1776 C1775 1.363 . S
C1776 C1782 1.393 1_554 S
H1777 C1773 0.928 1_554 S
H1778 C1775 0.929 . S
S1779 N1780 1.613 . S
S1779 N1781 1.610 . S
N1780 S1779 1.613 . S
N1780 C1783 1.350 . S
N1781 S1779 1.610 . S
N1781 C1782 1.358 . S
C1782 C1776 1.393 1_556 S
C1782 N1781 1.358 . S
C1782 C1783 1.468 . S
C1783 C1774 1.429 . S
C1783 N1780 1.350 . S
C1783 C1782 1.468 . S
C1784 C1785 1.369 . S
C1784 C1786 1.419 . S
C1784 H1788 0.930 . S
C1785 C1784 1.369 . S
C1785 C1794 1.429 . S
C1786 C1784 1.419 . S
C1786 C1787 1.363 . S
C1786 H1789 0.929 . S
C1787 C1786 1.363 . S
C1787 C1793 1.428 . S
H1788 C1784 0.930 . S
H1789 C1786 0.929 . S
S1790 N1791 1.613 . S
S1790 N1792 1.610 . S
N1791 S1790 1.613 . S
N1791 C1794 1.350 . S
N1792 S1790 1.610 . S
N1792 C1793 1.351 . S
C1793 C1787 1.428 . S
C1793 N1792 1.351 . S
C1793 C1794 1.434 . S
C1794 C1785 1.429 . S
C1794 N1791 1.350 . S
C1794 C1793 1.434 . S
C1795 C1796 1.369 . S
C1795 C1797 1.419 1_556 S
C1795 H1799 0.930 . S
C1796 C1795 1.369 . S
C1796 C1805 1.429 . S
C1797 C1795 1.419 1_554 S
C1797 C1798 1.363 . S
C1797 H1800 0.929 . S
C1798 C1797 1.363 . S
C1798 C1804 1.428 . S
H1799 C1795 0.930 . S
H1800 C1797 0.929 . S
S1801 N1802 1.613 1_554 S
S1801 N1803 1.610 . S
N1802 S1801 1.613 1_556 S
N1802 C1805 1.350 . S
N1803 S1801 1.610 . S
N1803 C1804 1.351 . S
C1804 C1798 1.428 . S
C1804 N1803 1.351 . S
C1804 C1805 1.434 1_554 S
C1805 C1796 1.429 . S
C1805 N1802 1.350 . S
C1805 C1804 1.434 1_556 S
C1806 C1807 1.369 1_545 S
C1806 C1808 1.419 . S
C1806 H1810 0.930 . S
C1807 C1806 1.369 1_565 S
C1807 C1816 1.429 . S
C1808 C1806 1.419 . S
C1808 C1809 1.363 . S
C1808 H1811 0.929 . S
C1809 C1808 1.363 . S
C1809 C1815 1.428 1_545 S
H1810 C1806 0.930 . S
H1811 C1808 0.929 . S
S1812 N1813 1.613 . S
S1812 N1814 1.610 . S
N1813 S1812 1.613 . S
N1813 C1816 1.350 . S
N1814 S1812 1.610 . S
N1814 C1815 1.351 . S
C1815 C1809 1.428 1_565 S
C1815 N1814 1.351 . S
C1815 C1816 1.434 . S
C1816 C1807 1.429 . S
C1816 N1813 1.350 . S
C1816 C1815 1.434 . S
C1817 C1818 1.369 . S
C1817 C1819 1.419 . S
C1817 H1821 0.930 . S
C1818 C1817 1.369 . S
C1818 C1827 1.429 . S
C1819 C1817 1.419 . S
C1819 C1820 1.363 . S
C1819 H1822 0.929 . S
C1820 C1819 1.363 . S
C1820 C1826 1.428 . S
H1821 C1817 0.930 . S
H1822 C1819 0.929 . S
S1823 N1824 1.613 . S
S1823 N1825 1.610 . S
N1824 S1823 1.613 . S
N1824 C1827 1.350 . S
N1825 S1823 1.610 . S
N1825 C1826 1.351 . S
C1826 C1820 1.428 . S
C1826 N1825 1.351 . S
C1826 C1827 1.434 . S
C1827 C1818 1.429 . S
C1827 N1824 1.350 . S
C1827 C1826 1.434 . S
C1828 C1829 1.369 . S
C1828 C1830 1.419 . S
C1828 H1832 0.930 . S
C1829 C1828 1.369 . S
C1829 C1838 1.429 1_565 S
C1830 C1828 1.419 . S
C1830 C1831 1.363 1_565 S
C1830 H1833 0.929 . S
C1831 C1830 1.363 1_545 S
C1831 C1837 1.428 . S
H1832 C1828 0.930 . S
H1833 C1830 0.929 . S
S1834 N1835 1.613 . S
S1834 N1836 1.610 . S
N1835 S1834 1.613 . S
N1835 C1838 1.350 . S
N1836 S1834 1.610 . S
N1836 C1837 1.351 . S
C1837 C1831 1.428 . S
C1837 N1836 1.351 . S
C1837 C1838 1.434 . S
C1838 C1829 1.429 1_545 S
C1838 N1835 1.350 . S
C1838 C1837 1.434 . S
C1839 C1840 1.369 . S
C1839 C1841 1.419 . S
C1839 H1843 0.930 . S
C1840 C1839 1.369 . S
C1840 C1849 1.429 . S
C1841 C1839 1.419 . S
C1841 C1842 1.363 . S
C1841 H1844 0.929 . S
C1842 C1841 1.363 . S
C1842 C1848 1.428 . S
H1843 C1839 0.930 . S
H1844 C1841 0.929 . S
S1845 N1846 1.613 . S
S1845 N1847 1.610 . S
N1846 S1845 1.613 . S
N1846 C1849 1.350 . S
N1847 S1845 1.610 . S
N1847 C1848 1.351 . S
C1848 C1842 1.428 . S
C1848 N1847 1.351 . S
C1848 C1849 1.434 . S
C1849 C1840 1.429 . S
C1849 N1846 1.350 . S
C1849 C1848 1.434 . S
C1850 C1851 1.369 . S
C1850 C1852 1.419 . S
C1850 H1854 0.930 . S
C1851 C1850 1.369 . S
C1851 C1860 1.429 . S
C1852 C1850 1.419 . S
C1852 C1853 1.363 . S
C1852 H1855 0.929 . S
C1853 C1852 1.363 . S
C1853 C1859 1.428 . S
H1854 C1850 0.930 . S
H1855 C1852 0.929 . S
S1856 N1857 1.613 . S
S1856 N1858 1.610 . S
N1857 S1856 1.613 . S
N1857 C1860 1.350 . S
N1858 S1856 1.610 . S
N1858 C1859 1.351 . S
C1859 C1853 1.428 . S
C1859 N1858 1.351 . S
C1859 C1860 1.434 . S
C1860 C1851 1.429 . S
C1860 N1857 1.350 . S
C1860 C1859 1.434 . S
C1861 C1862 1.369 . S
C1861 C1863 1.419 . S
C1861 H1865 0.930 . S
C1862 C1861 1.369 . S
C1862 C1871 1.429 . S
C1863 C1861 1.419 . S
C1863 C1864 1.363 . S
C1863 H1866 0.929 . S
C1864 C1863 1.363 . S
C1864 C1870 1.428 . S
H1865 C1861 0.930 . S
H1866 C1863 0.929 . S
S1867 N1868 1.613 . S
S1867 N1869 1.610 . S
N1868 S1867 1.613 . S
N1868 C1871 1.350 . S
N1869 S1867 1.610 . S
N1869 C1870 1.351 . S
C1870 C1864 1.428 . S
C1870 N1869 1.351 . S
C1870 C1871 1.434 . S
C1871 C1862 1.429 . S
C1871 N1868 1.350 . S
C1871 C1870 1.434 . S
C1872 C1873 1.369 1_655 S
C1872 C1874 1.419 . S
C1872 H1876 0.930 . S
C1873 C1872 1.369 1_455 S
C1873 C1882 1.429 . S
C1874 C1872 1.419 . S
C1874 C1875 1.363 . S
C1874 H1877 0.929 . S
C1875 C1874 1.363 . S
C1875 C1881 1.428 1_655 S
H1876 C1872 0.930 . S
H1877 C1874 0.929 . S
S1878 N1879 1.613 . S
S1878 N1880 1.610 . S
N1879 S1878 1.613 . S
N1879 C1882 1.350 . S
N1880 S1878 1.610 . S
N1880 C1881 1.351 . S
C1881 C1875 1.428 1_455 S
C1881 N1880 1.351 . S
C1881 C1882 1.434 . S
C1882 C1873 1.429 . S
C1882 N1879 1.350 . S
C1882 C1881 1.434 . S
C1883 C1884 1.369 . S
C1883 C1885 1.419 . S
C1883 H1887 0.930 . S
C1884 C1883 1.369 . S
C1884 C1893 1.429 1_655 S
C1885 C1883 1.419 . S
C1885 C1886 1.363 1_655 S
C1885 H1888 0.929 . S
C1886 C1885 1.363 1_455 S
C1886 C1892 1.428 . S
H1887 C1883 0.930 . S
H1888 C1885 0.929 . S
S1889 N1890 1.613 . S
S1889 N1891 1.610 . S
N1890 S1889 1.613 . S
N1890 C1893 1.350 . S
N1891 S1889 1.610 . S
N1891 C1892 1.351 . S
C1892 C1886 1.428 . S
C1892 N1891 1.351 . S
C1892 C1893 1.434 . S
C1893 C1884 1.429 1_455 S
C1893 N1890 1.350 . S
C1893 C1892 1.434 . S
C1894 C1895 1.369 . S
C1894 C1896 1.419 . S
C1894 H1898 0.930 . S
C1895 C1894 1.369 . S
C1895 C1904 1.429 1_655 S
C1896 C1894 1.419 . S
C1896 C1897 1.363 1_655 S
C1896 H1899 0.929 . S
C1897 C1896 1.363 1_455 S
C1897 C1903 1.428 . S
H1898 C1894 0.930 . S
H1899 C1896 0.929 . S
S1900 N1901 1.613 . S
S1900 N1902 1.610 . S
N1901 S1900 1.613 . S
N1901 C1904 1.350 . S
N1902 S1900 1.610 . S
N1902 C1903 1.351 . S
C1903 C1897 1.428 . S
C1903 N1902 1.351 . S
C1903 C1904 1.434 . S
C1904 C1895 1.429 1_455 S
C1904 N1901 1.350 . S
C1904 C1903 1.434 . S
C1905 C1906 1.369 . S
C1905 C1907 1.419 . S
C1905 H1909 0.930 . S
C1906 C1905 1.369 . S
C1906 C1915 1.429 1_655 S
C1907 C1905 1.419 . S
C1907 C1908 1.363 1_655 S
C1907 H1910 0.929 . S
C1908 C1907 1.363 1_455 S
C1908 C1914 1.428 . S
H1909 C1905 0.930 . S
H1910 C1907 0.929 . S
S1911 N1912 1.613 . S
S1911 N1913 1.610 . S
N1912 S1911 1.613 . S
N1912 C1915 1.350 . S
N1913 S1911 1.610 . S
N1913 C1914 1.351 . S
C1914 C1908 1.428 . S
C1914 N1913 1.351 . S
C1914 C1915 1.434 . S
C1915 C1906 1.429 1_455 S
C1915 N1912 1.350 . S
C1915 C1914 1.434 . S
C1916 C1917 1.369 . S
C1916 C1918 1.411 1_455 S
C1916 H1920 0.930 . S
C1917 C1916 1.369 . S
C1917 C1926 1.429 1_455 S
C1918 C1916 1.411 1_655 S
C1918 C1919 1.371 . S
C1918 H1921 0.927 1_655 S
C1919 C1918 1.371 . S
C1919 C1925 1.428 . S
H1920 C1916 0.930 . S
H1921 C1918 0.927 1_455 S
S1922 N1923 1.613 . S
S1922 N1924 1.610 . S
N1923 S1922 1.613 . S
N1923 C1926 1.350 . S
N1924 S1922 1.610 . S
N1924 C1925 1.351 . S
C1925 C1919 1.428 . S
C1925 N1924 1.351 . S
C1925 C1926 1.434 . S
C1926 C1917 1.429 1_655 S
C1926 N1923 1.350 . S
C1926 C1925 1.434 . S
C1927 C1928 1.369 . S
C1927 C1929 1.419 . S
C1927 H1931 0.930 . S
C1928 C1927 1.369 . S
C1928 C1937 1.429 . S
C1929 C1927 1.419 . S
C1929 C1930 1.363 . S
C1929 H1932 0.929 . S
C1930 C1929 1.363 . S
C1930 C1936 1.428 . S
H1931 C1927 0.930 . S
H1932 C1929 0.929 . S
S1933 N1934 1.613 . S
S1933 N1935 1.610 . S
N1934 S1933 1.613 . S
N1934 C1937 1.350 . S
N1935 S1933 1.610 . S
N1935 C1936 1.351 . S
C1936 C1930 1.428 . S
C1936 N1935 1.351 . S
C1936 C1937 1.434 . S
C1937 C1928 1.429 . S
C1937 N1934 1.350 . S
C1937 C1936 1.434 . S
C1938 C1939 1.369 1_455 S
C1938 C1940 1.419 . S
C1938 H1942 0.930 . S
C1939 C1938 1.369 1_655 S
C1939 C1948 1.429 . S
C1940 C1938 1.419 . S
C1940 C1941 1.363 . S
C1940 H1943 0.929 . S
C1941 C1940 1.363 . S
C1941 C1947 1.428 1_455 S
H1942 C1938 0.930 . S
H1943 C1940 0.929 . S
S1944 N1945 1.613 . S
S1944 N1946 1.610 . S
N1945 S1944 1.613 . S
N1945 C1948 1.350 . S
N1946 S1944 1.610 . S
N1946 C1947 1.351 . S
C1947 C1941 1.428 1_655 S
C1947 N1946 1.351 . S
C1947 C1948 1.434 . S
C1948 C1939 1.429 . S
C1948 N1945 1.350 . S
C1948 C1947 1.434 . S
C1949 C1950 1.369 . S
C1949 C1951 1.419 . S
C1949 H1953 0.930 . S
C1950 C1949 1.369 . S
C1950 C1959 1.429 . S
C1951 C1949 1.419 . S
C1951 C1952 1.363 . S
C1951 H1954 0.929 . S
C1952 C1951 1.363 . S
C1952 C1958 1.428 . S
H1953 C1949 0.930 . S
H1954 C1951 0.929 . S
S1955 N1956 1.613 . S
S1955 N1957 1.610 . S
N1956 S1955 1.613 . S
N1956 C1959 1.350 . S
N1957 S1955 1.610 . S
N1957 C1958 1.351 . S
C1958 C1952 1.428 . S
C1958 N1957 1.351 . S
C1958 C1959 1.434 . S
C1959 C1950 1.429 . S
C1959 N1956 1.350 . S
C1959 C1958 1.434 . S
C1960 C1961 1.369 . S
C1960 C1962 1.419 1_545 S
C1960 H1964 0.930 . S
C1961 C1960 1.369 . S
C1961 C1970 1.429 . S
C1962 C1960 1.419 1_565 S
C1962 C1963 1.363 . S
C1962 H1965 0.929 . S
C1963 C1962 1.363 . S
C1963 C1969 1.428 . S
H1964 C1960 0.930 . S
H1965 C1962 0.929 . S
S1966 N1967 1.613 1_565 S
S1966 N1968 1.610 . S
N1967 S1966 1.613 1_545 S
N1967 C1970 1.350 . S
N1968 S1966 1.610 . S
N1968 C1969 1.351 . S
C1969 C1963 1.428 . S
C1969 N1968 1.351 . S
C1969 C1970 1.434 1_565 S
C1970 C1961 1.429 . S
C1970 N1967 1.350 . S
C1970 C1969 1.434 1_545 S
C1971 C1972 1.369 . S
C1971 C1973 1.419 . S
C1971 H1975 0.930 . S
C1972 C1971 1.369 . S
C1972 C1981 1.429 . S
C1973 C1971 1.419 . S
C1973 C1974 1.363 . S
C1973 H1976 0.929 . S
C1974 C1973 1.363 . S
C1974 C1980 1.428 . S
H1975 C1971 0.930 . S
H1976 C1973 0.929 . S
S1977 N1978 1.613 . S
S1977 N1979 1.610 . S
N1978 S1977 1.613 . S
N1978 C1981 1.350 . S
N1979 S1977 1.610 . S
N1979 C1980 1.351 . S
C1980 C1974 1.428 . S
C1980 N1979 1.351 . S
C1980 C1981 1.434 . S
C1981 C1972 1.429 . S
C1981 N1978 1.350 . S
C1981 C1980 1.434 . S
C1982 C1983 1.369 . S
C1982 C1984 1.419 . S
C1982 H1986 0.930 . S
C1983 C1982 1.369 . S
C1983 C1992 1.429 . S
C1984 C1982 1.419 . S
C1984 C1985 1.363 . S
C1984 H1987 0.929 . S
C1985 C1984 1.363 . S
C1985 C1991 1.428 . S
H1986 C1982 0.930 . S
H1987 C1984 0.929 . S
S1988 N1989 1.613 . S
S1988 N1990 1.610 . S
N1989 S1988 1.613 . S
N1989 C1992 1.350 . S
N1990 S1988 1.610 . S
N1990 C1991 1.351 . S
C1991 C1985 1.428 . S
C1991 N1990 1.351 . S
C1991 C1992 1.434 . S
C1992 C1983 1.429 . S
C1992 N1989 1.350 . S
C1992 C1991 1.434 . S
C1993 C1994 1.369 . S
C1993 C1995 1.419 . S
C1993 H1997 0.930 . S
C1994 C1993 1.369 . S
C1994 C2003 1.429 1_554 S
C1995 C1993 1.419 . S
C1995 C1996 1.363 1_554 S
C1995 H1998 0.929 . S
C1996 C1995 1.363 1_556 S
C1996 C2002 1.428 . S
H1997 C1993 0.930 . S
H1998 C1995 0.929 . S
S1999 N2000 1.613 . S
S1999 N2001 1.610 . S
N2000 S1999 1.613 . S
N2000 C2003 1.350 . S
N2001 S1999 1.610 . S
N2001 C2002 1.351 . S
C2002 C1996 1.428 . S
C2002 N2001 1.351 . S
C2002 C2003 1.434 . S
C2003 C1994 1.429 1_556 S
C2003 N2000 1.350 . S
C2003 C2002 1.434 . S
C2004 C2005 1.363 1_565 S
C2004 C2006 1.424 . S
C2004 H2008 0.931 . S
C2005 C2004 1.363 1_545 S
C2005 C2014 1.429 . S
C2006 C2004 1.424 . S
C2006 C2007 1.363 . S
C2006 H2009 0.929 . S
C2007 C2006 1.363 . S
C2007 C2013 1.428 1_565 S
H2008 C2004 0.931 . S
H2009 C2006 0.929 . S
S2010 N2011 1.613 . S
S2010 N2012 1.610 . S
N2011 S2010 1.613 . S
N2011 C2014 1.350 . S
N2012 S2010 1.610 . S
N2012 C2013 1.351 . S
C2013 C2007 1.428 1_545 S
C2013 N2012 1.351 . S
C2013 C2014 1.434 . S
C2014 C2005 1.429 . S
C2014 N2011 1.350 . S
C2014 C2013 1.434 . S
C2015 C2016 1.369 . S
C2015 C2017 1.419 . S
C2015 H2019 0.930 . S
C2016 C2015 1.369 . S
C2016 C2025 1.429 1_554 S
C2017 C2015 1.419 . S
C2017 C2018 1.363 1_554 S
C2017 H2020 0.929 . S
C2018 C2017 1.363 1_556 S
C2018 C2024 1.428 . S
H2019 C2015 0.930 . S
H2020 C2017 0.929 . S
S2021 N2022 1.613 . S
S2021 N2023 1.610 . S
N2022 S2021 1.613 . S
N2022 C2025 1.350 . S
N2023 S2021 1.610 . S
N2023 C2024 1.351 . S
C2024 C2018 1.428 . S
C2024 N2023 1.351 . S
C2024 C2025 1.434 . S
C2025 C2016 1.429 1_556 S
C2025 N2022 1.350 . S
C2025 C2024 1.434 . S
C2026 C2027 1.369 . S
C2026 C2028 1.419 . S
C2026 H2030 0.930 . S
C2027 C2026 1.369 . S
C2027 C2036 1.429 . S
C2028 C2026 1.419 . S
C2028 C2029 1.363 . S
C2028 H2031 0.929 . S
C2029 C2028 1.363 . S
C2029 C2035 1.428 . S
H2030 C2026 0.930 . S
H2031 C2028 0.929 . S
S2032 N2033 1.613 . S
S2032 N2034 1.610 . S
N2033 S2032 1.613 . S
N2033 C2036 1.350 . S
N2034 S2032 1.610 . S
N2034 C2035 1.351 . S
C2035 C2029 1.428 . S
C2035 N2034 1.351 . S
C2035 C2036 1.434 . S
C2036 C2027 1.429 . S
C2036 N2033 1.350 . S
C2036 C2035 1.434 . S
C2037 C2038 1.369 . S
C2037 C2039 1.419 . S
C2037 H2041 0.930 . S
C2038 C2037 1.369 . S
C2038 C2047 1.429 . S
C2039 C2037 1.419 . S
C2039 C2040 1.363 . S
C2039 H2042 0.929 . S
C2040 C2039 1.363 . S
C2040 C2046 1.428 . S
H2041 C2037 0.930 . S
H2042 C2039 0.929 . S
S2043 N2044 1.613 . S
S2043 N2045 1.610 . S
N2044 S2043 1.613 . S
N2044 C2047 1.350 . S
N2045 S2043 1.610 . S
N2045 C2046 1.351 . S
C2046 C2040 1.428 . S
C2046 N2045 1.351 . S
C2046 C2047 1.434 . S
C2047 C2038 1.429 . S
C2047 N2044 1.350 . S
C2047 C2046 1.434 . S
C2048 C2049 1.369 . S
C2048 C2050 1.411 1_556 S
C2048 H2052 0.930 . S
C2049 C2048 1.369 . S
C2049 C2058 1.429 . S
C2050 C2048 1.411 1_554 S
C2050 C2051 1.370 . S
C2050 H2053 0.929 . S
C2051 C2050 1.370 . S
C2051 C2057 1.428 . S
H2052 C2048 0.930 . S
H2053 C2050 0.929 . S
S2054 N2055 1.613 1_554 S
S2054 N2056 1.610 . S
N2055 S2054 1.613 1_556 S
N2055 C2058 1.350 . S
N2056 S2054 1.610 . S
N2056 C2057 1.351 . S
C2057 C2051 1.428 . S
C2057 N2056 1.351 . S
C2057 C2058 1.434 1_554 S
C2058 C2049 1.429 . S
C2058 N2055 1.350 . S
C2058 C2057 1.434 1_556 S
C2059 C2060 1.369 . S
C2059 C2061 1.419 . S
C2059 H2063 0.930 . S
C2060 C2059 1.369 . S
C2060 C2069 1.429 . S
C2061 C2059 1.419 . S
C2061 C2062 1.363 . S
C2061 H2064 0.929 . S
C2062 C2061 1.363 . S
C2062 C2068 1.428 . S
H2063 C2059 0.930 . S
H2064 C2061 0.929 . S
S2065 N2066 1.613 . S
S2065 N2067 1.610 . S
N2066 S2065 1.613 . S
N2066 C2069 1.350 . S
N2067 S2065 1.610 . S
N2067 C2068 1.351 . S
C2068 C2062 1.428 . S
C2068 N2067 1.351 . S
C2068 C2069 1.434 . S
C2069 C2060 1.429 . S
C2069 N2066 1.350 . S
C2069 C2068 1.434 . S
C2070 C2071 1.369 1_565 S
C2070 C2072 1.419 . S
C2070 H2074 0.930 . S
C2071 C2070 1.369 1_545 S
C2071 C2080 1.429 . S
C2072 C2070 1.419 . S
C2072 C2073 1.363 . S
C2072 H2075 0.929 . S
C2073 C2072 1.363 . S
C2073 C2079 1.428 1_565 S
H2074 C2070 0.930 . S
H2075 C2072 0.929 . S
S2076 N2077 1.613 . S
S2076 N2078 1.610 . S
N2077 S2076 1.613 . S
N2077 C2080 1.350 . S
N2078 S2076 1.610 . S
N2078 C2079 1.351 . S
C2079 C2073 1.428 1_545 S
C2079 N2078 1.351 . S
C2079 C2080 1.434 . S
C2080 C2071 1.429 . S
C2080 N2077 1.350 . S
C2080 C2079 1.434 . S
C2081 C2082 1.369 . S
C2081 C2083 1.419 . S
C2081 H2085 0.930 . S
C2082 C2081 1.369 . S
C2082 C2091 1.429 1_556 S
C2083 C2081 1.419 . S
C2083 C2084 1.363 1_556 S
C2083 H2086 0.929 . S
C2084 C2083 1.363 1_554 S
C2084 C2090 1.428 . S
H2085 C2081 0.930 . S
H2086 C2083 0.929 . S
S2087 N2088 1.613 . S
S2087 N2089 1.610 . S
N2088 S2087 1.613 . S
N2088 C2091 1.350 . S
N2089 S2087 1.610 . S
N2089 C2090 1.351 . S
C2090 C2084 1.428 . S
C2090 N2089 1.351 . S
C2090 C2091 1.434 . S
C2091 C2082 1.429 1_554 S
C2091 N2088 1.350 . S
C2091 C2090 1.434 . S
C2092 C2093 1.369 1_556 S
C2092 C2094 1.419 . S
C2092 H2096 0.930 . S
C2093 C2092 1.369 1_554 S
C2093 C2102 1.429 . S
C2094 C2092 1.419 . S
C2094 C2095 1.363 . S
C2094 H2097 0.929 . S
C2095 C2094 1.363 . S
C2095 C2101 1.428 1_556 S
H2096 C2092 0.930 . S
H2097 C2094 0.929 . S
S2098 N2099 1.613 . S
S2098 N2100 1.610 . S
N2099 S2098 1.613 . S
N2099 C2102 1.350 . S
N2100 S2098 1.610 . S
N2100 C2101 1.351 . S
C2101 C2095 1.428 1_554 S
C2101 N2100 1.351 . S
C2101 C2102 1.434 . S
C2102 C2093 1.429 . S
C2102 N2099 1.350 . S
C2102 C2101 1.434 . S
C2103 C2104 1.369 . S
C2103 C2105 1.419 . S
C2103 H2107 0.930 . S
C2104 C2103 1.369 . S
C2104 C2113 1.429 . S
C2105 C2103 1.419 . S
C2105 C2106 1.363 . S
C2105 H2108 0.929 . S
C2106 C2105 1.363 . S
C2106 C2112 1.428 . S
H2107 C2103 0.930 . S
H2108 C2105 0.929 . S
S2109 N2110 1.613 . S
S2109 N2111 1.610 . S
N2110 S2109 1.613 . S
N2110 C2113 1.350 . S
N2111 S2109 1.610 . S
N2111 C2112 1.351 . S
C2112 C2106 1.428 . S
C2112 N2111 1.351 . S
C2112 C2113 1.434 . S
C2113 C2104 1.429 . S
C2113 N2110 1.350 . S
C2113 C2112 1.434 . S
C2114 C2115 1.369 1_545 S
C2114 C2116 1.419 . S
C2114 H2118 0.930 . S
C2115 C2114 1.369 1_565 S
C2115 C2124 1.429 . S
C2116 C2114 1.419 . S
C2116 C2117 1.363 . S
C2116 H2119 0.929 . S
C2117 C2116 1.363 . S
C2117 C2123 1.428 1_545 S
H2118 C2114 0.930 . S
H2119 C2116 0.929 . S
S2120 N2121 1.613 . S
S2120 N2122 1.610 . S
N2121 S2120 1.613 . S
N2121 C2124 1.350 . S
N2122 S2120 1.610 . S
N2122 C2123 1.351 . S
C2123 C2117 1.428 1_565 S
C2123 N2122 1.351 . S
C2123 C2124 1.434 . S
C2124 C2115 1.429 . S
C2124 N2121 1.350 . S
C2124 C2123 1.434 . S
C2125 C2126 1.369 1_655 S
C2125 C2127 1.419 . S
C2125 H2129 0.930 . S
C2126 C2125 1.369 1_455 S
C2126 C2135 1.429 . S
C2127 C2125 1.419 . S
C2127 C2128 1.363 . S
C2127 H2130 0.929 . S
C2128 C2127 1.363 . S
C2128 C2134 1.428 1_655 S
H2129 C2125 0.930 . S
H2130 C2127 0.929 . S
S2131 N2132 1.613 . S
S2131 N2133 1.610 . S
N2132 S2131 1.613 . S
N2132 C2135 1.350 . S
N2133 S2131 1.610 . S
N2133 C2134 1.351 . S
C2134 C2128 1.428 1_455 S
C2134 N2133 1.351 . S
C2134 C2135 1.434 . S
C2135 C2126 1.429 . S
C2135 N2132 1.350 . S
C2135 C2134 1.434 . S
C2136 C2137 1.369 1_655 S
C2136 C2138 1.419 . S
C2136 H2140 0.930 . S
C2137 C2136 1.369 1_455 S
C2137 C2146 1.429 . S
C2138 C2136 1.419 . S
C2138 C2139 1.363 . S
C2138 H2141 0.929 . S
C2139 C2138 1.363 . S
C2139 C2145 1.428 1_655 S
H2140 C2136 0.930 . S
H2141 C2138 0.929 . S
S2142 N2143 1.613 . S
S2142 N2144 1.610 . S
N2143 S2142 1.613 . S
N2143 C2146 1.350 . S
N2144 S2142 1.610 . S
N2144 C2145 1.351 . S
C2145 C2139 1.428 1_455 S
C2145 N2144 1.351 . S
C2145 C2146 1.434 . S
C2146 C2137 1.429 . S
C2146 N2143 1.350 . S
C2146 C2145 1.434 . S
C2147 C2148 1.369 . S
C2147 C2149 1.419 . S
C2147 H2151 0.930 . S
C2148 C2147 1.369 . S
C2148 C2157 1.429 . S
C2149 C2147 1.419 . S
C2149 C2150 1.363 . S
C2149 H2152 0.929 . S
C2150 C2149 1.363 . S
C2150 C2156 1.428 . S
H2151 C2147 0.930 . S
H2152 C2149 0.929 . S
S2153 N2154 1.613 . S
S2153 N2155 1.610 . S
N2154 S2153 1.613 . S
N2154 C2157 1.350 . S
N2155 S2153 1.610 . S
N2155 C2156 1.351 . S
C2156 C2150 1.428 . S
C2156 N2155 1.351 . S
C2156 C2157 1.434 . S
C2157 C2148 1.429 . S
C2157 N2154 1.350 . S
C2157 C2156 1.434 . S
C2158 C2159 1.369 . S
C2158 C2160 1.419 . S
C2158 H2162 0.930 . S
C2159 C2158 1.369 . S
C2159 C2168 1.429 . S
C2160 C2158 1.419 . S
C2160 C2161 1.363 . S
C2160 H2163 0.929 . S
C2161 C2160 1.363 . S
C2161 C2167 1.428 . S
H2162 C2158 0.930 . S
H2163 C2160 0.929 . S
S2164 N2165 1.613 . S
S2164 N2166 1.610 . S
N2165 S2164 1.613 . S
N2165 C2168 1.350 . S
N2166 S2164 1.610 . S
N2166 C2167 1.351 . S
C2167 C2161 1.428 . S
C2167 N2166 1.351 . S
C2167 C2168 1.434 . S
C2168 C2159 1.429 . S
C2168 N2165 1.350 . S
C2168 C2167 1.434 . S
C2169 C2170 1.369 . S
C2169 C2171 1.419 . S
C2169 H2173 0.930 . S
C2170 C2169 1.369 . S
C2170 C2179 1.429 . S
C2171 C2169 1.419 . S
C2171 C2172 1.363 . S
C2171 H2174 0.929 . S
C2172 C2171 1.363 . S
C2172 C2178 1.428 . S
H2173 C2169 0.930 . S
H2174 C2171 0.929 . S
S2175 N2176 1.613 . S
S2175 N2177 1.610 . S
N2176 S2175 1.613 . S
N2176 C2179 1.350 . S
N2177 S2175 1.610 . S
N2177 C2178 1.351 . S
C2178 C2172 1.428 . S
C2178 N2177 1.351 . S
C2178 C2179 1.434 . S
C2179 C2170 1.429 . S
C2179 N2176 1.350 . S
C2179 C2178 1.434 . S
C2180 C2181 1.369 . S
C2180 C2182 1.419 . S
C2180 H2184 0.930 . S
C2181 C2180 1.369 . S
C2181 C2190 1.429 1_554 S
C2182 C2180 1.419 . S
C2182 C2183 1.363 1_554 S
C2182 H2185 0.929 . S
C2183 C2182 1.363 1_556 S
C2183 C2189 1.428 . S
H2184 C2180 0.930 . S
H2185 C2182 0.929 . S
S2186 N2187 1.613 . S
S2186 N2188 1.610 . S
N2187 S2186 1.613 . S
N2187 C2190 1.350 . S
N2188 S2186 1.610 . S
N2188 C2189 1.351 . S
C2189 C2183 1.428 . S
C2189 N2188 1.351 . S
C2189 C2190 1.434 . S
C2190 C2181 1.429 1_556 S
C2190 N2187 1.350 . S
C2190 C2189 1.434 . S
C2191 C2192 1.369 . S
C2191 C2193 1.419 1_565 S
C2191 H2195 0.930 . S
C2192 C2191 1.369 . S
C2192 C2201 1.429 . S
C2193 C2191 1.419 1_545 S
C2193 C2194 1.363 . S
C2193 H2196 0.929 . S
C2194 C2193 1.363 . S
C2194 C2200 1.428 . S
H2195 C2191 0.930 . S
H2196 C2193 0.929 . S
S2197 N2198 1.613 . S
S2197 N2199 1.610 1_565 S
N2198 S2197 1.613 . S
N2198 C2201 1.350 . S
N2199 S2197 1.610 1_545 S
N2199 C2200 1.351 . S
C2200 C2194 1.428 . S
C2200 N2199 1.351 . S
C2200 C2201 1.434 1_545 S
C2201 C2192 1.429 . S
C2201 N2198 1.350 . S
C2201 C2200 1.434 1_565 S
C2202 C2203 1.369 . S
C2202 C2204 1.419 . S
C2202 H2206 0.930 . S
C2203 C2202 1.369 . S
C2203 C2212 1.429 . S
C2204 C2202 1.419 . S
C2204 C2205 1.363 . S
C2204 H2207 0.929 . S
C2205 C2204 1.363 . S
C2205 C2211 1.428 . S
H2206 C2202 0.930 . S
H2207 C2204 0.929 . S
S2208 N2209 1.613 . S
S2208 N2210 1.610 . S
N2209 S2208 1.613 . S
N2209 C2212 1.350 . S
N2210 S2208 1.610 . S
N2210 C2211 1.351 . S
C2211 C2205 1.428 . S
C2211 N2210 1.351 . S
C2211 C2212 1.434 . S
C2212 C2203 1.429 . S
C2212 N2209 1.350 . S
C2212 C2211 1.434 . S
C2213 C2214 1.369 . S
C2213 C2215 1.419 . S
C2213 H2217 0.930 . S
C2214 C2213 1.369 . S
C2214 C2223 1.429 . S
C2215 C2213 1.419 . S
C2215 C2216 1.363 . S
C2215 H2218 0.929 . S
C2216 C2215 1.363 . S
C2216 C2222 1.428 . S
H2217 C2213 0.930 . S
H2218 C2215 0.929 . S
S2219 N2220 1.613 . S
S2219 N2221 1.610 . S
N2220 S2219 1.613 . S
N2220 C2223 1.350 . S
N2221 S2219 1.610 . S
N2221 C2222 1.351 . S
C2222 C2216 1.428 . S
C2222 N2221 1.351 . S
C2222 C2223 1.434 . S
C2223 C2214 1.429 . S
C2223 N2220 1.350 . S
C2223 C2222 1.434 . S
C2224 C2225 1.369 . S
C2224 C2226 1.419 . S
C2224 H2228 0.930 . S
C2225 C2224 1.369 . S
C2225 C2234 1.429 . S
C2226 C2224 1.419 . S
C2226 C2227 1.363 . S
C2226 H2229 0.929 . S
C2227 C2226 1.363 . S
C2227 C2233 1.428 . S
H2228 C2224 0.930 . S
H2229 C2226 0.929 . S
S2230 N2231 1.613 . S
S2230 N2232 1.610 . S
N2231 S2230 1.613 . S
N2231 C2234 1.350 . S
N2232 S2230 1.610 . S
N2232 C2233 1.351 . S
C2233 C2227 1.428 . S
C2233 N2232 1.351 . S
C2233 C2234 1.434 . S
C2234 C2225 1.429 . S
C2234 N2231 1.350 . S
C2234 C2233 1.434 . S
C2235 C2236 1.369 1_545 S
C2235 C2237 1.419 . S
C2235 H2239 0.930 . S
C2236 C2235 1.369 1_565 S
C2236 C2245 1.429 . S
C2237 C2235 1.419 . S
C2237 C2238 1.363 . S
C2237 H2240 0.929 . S
C2238 C2237 1.363 . S
C2238 C2244 1.428 1_545 S
H2239 C2235 0.930 . S
H2240 C2237 0.929 . S
S2241 N2242 1.613 . S
S2241 N2243 1.610 . S
N2242 S2241 1.613 . S
N2242 C2245 1.350 . S
N2243 S2241 1.610 . S
N2243 C2244 1.351 . S
C2244 C2238 1.428 1_565 S
C2244 N2243 1.351 . S
C2244 C2245 1.434 . S
C2245 C2236 1.429 . S
C2245 N2242 1.350 . S
C2245 C2244 1.434 . S
C2246 C2247 1.369 . S
C2246 C2248 1.417 1_554 S
C2246 H2250 0.930 . S
C2247 C2246 1.369 . S
C2247 C2256 1.429 1_554 S
C2248 C2246 1.417 1_556 S
C2248 C2249 1.365 . S
C2248 H2251 0.929 1_556 S
C2249 C2248 1.365 . S
C2249 C2255 1.428 . S
H2250 C2246 0.930 . S
H2251 C2248 0.929 1_554 S
S2252 N2253 1.613 . S
S2252 N2254 1.610 . S
N2253 S2252 1.613 . S
N2253 C2256 1.350 . S
N2254 S2252 1.610 . S
N2254 C2255 1.351 . S
C2255 C2249 1.428 . S
C2255 N2254 1.351 . S
C2255 C2256 1.434 . S
C2256 C2247 1.429 1_556 S
C2256 N2253 1.350 . S
C2256 C2255 1.434 . S
C2257 C2258 1.369 . S
C2257 C2259 1.419 . S
C2257 H2261 0.930 . S
C2258 C2257 1.369 . S
C2258 C2267 1.429 . S
C2259 C2257 1.419 . S
C2259 C2260 1.363 . S
C2259 H2262 0.929 . S
C2260 C2259 1.363 . S
C2260 C2266 1.428 . S
H2261 C2257 0.930 . S
H2262 C2259 0.929 . S
S2263 N2264 1.613 . S
S2263 N2265 1.610 . S
N2264 S2263 1.613 . S
N2264 C2267 1.350 . S
N2265 S2263 1.610 . S
N2265 C2266 1.351 . S
C2266 C2260 1.428 . S
C2266 N2265 1.351 . S
C2266 C2267 1.434 . S
C2267 C2258 1.429 . S
C2267 N2264 1.350 . S
C2267 C2266 1.434 . S
C2268 C2269 1.369 . S
C2268 C2270 1.419 1_556 S
C2268 H2272 0.930 . S
C2269 C2268 1.369 . S
C2269 C2278 1.429 . S
C2270 C2268 1.419 1_554 S
C2270 C2271 1.363 . S
C2270 H2273 0.929 . S
C2271 C2270 1.363 . S
C2271 C2277 1.428 . S
H2272 C2268 0.930 . S
H2273 C2270 0.929 . S
S2274 N2275 1.613 . S
S2274 N2276 1.610 1_556 S
N2275 S2274 1.613 . S
N2275 C2278 1.350 . S
N2276 S2274 1.610 1_554 S
N2276 C2277 1.351 . S
C2277 C2271 1.428 . S
C2277 N2276 1.351 . S
C2277 C2278 1.434 1_554 S
C2278 C2269 1.429 . S
C2278 N2275 1.350 . S
C2278 C2277 1.434 1_556 S
C2279 C2280 1.369 . S
C2279 C2281 1.419 . S
C2279 H2283 0.930 . S
C2280 C2279 1.369 . S
C2280 C2289 1.429 . S
C2281 C2279 1.419 . S
C2281 C2282 1.363 . S
C2281 H2284 0.929 . S
C2282 C2281 1.363 . S
C2282 C2288 1.428 . S
H2283 C2279 0.930 . S
H2284 C2281 0.929 . S
S2285 N2286 1.613 . S
S2285 N2287 1.610 . S
N2286 S2285 1.613 . S
N2286 C2289 1.350 . S
N2287 S2285 1.610 . S
N2287 C2288 1.351 . S
C2288 C2282 1.428 . S
C2288 N2287 1.351 . S
C2288 C2289 1.434 . S
C2289 C2280 1.429 . S
C2289 N2286 1.350 . S
C2289 C2288 1.434 . S
C2290 C2291 1.369 . S
C2290 C2292 1.419 . S
C2290 H2294 0.930 . S
C2291 C2290 1.369 . S
C2291 C2300 1.429 . S
C2292 C2290 1.419 . S
C2292 C2293 1.363 . S
C2292 H2295 0.929 . S
C2293 C2292 1.363 . S
C2293 C2299 1.428 . S
H2294 C2290 0.930 . S
H2295 C2292 0.929 . S
S2296 N2297 1.613 . S
S2296 N2298 1.610 . S
N2297 S2296 1.613 . S
N2297 C2300 1.350 . S
N2298 S2296 1.610 . S
N2298 C2299 1.351 . S
C2299 C2293 1.428 . S
C2299 N2298 1.351 . S
C2299 C2300 1.434 . S
C2300 C2291 1.429 . S
C2300 N2297 1.350 . S
C2300 C2299 1.434 . S
C2301 C2302 1.369 . S
C2301 C2303 1.419 . S
C2301 H2305 0.930 . S
C2302 C2301 1.369 . S
C2302 C2311 1.429 . S
C2303 C2301 1.419 . S
C2303 C2304 1.363 . S
C2303 H2306 0.929 . S
C2304 C2303 1.363 . S
C2304 C2310 1.428 . S
H2305 C2301 0.930 . S
H2306 C2303 0.929 . S
S2307 N2308 1.613 . S
S2307 N2309 1.610 . S
N2308 S2307 1.613 . S
N2308 C2311 1.350 . S
N2309 S2307 1.610 . S
N2309 C2310 1.351 . S
C2310 C2304 1.428 . S
C2310 N2309 1.351 . S
C2310 C2311 1.434 . S
C2311 C2302 1.429 . S
C2311 N2308 1.350 . S
C2311 C2310 1.434 . S
C2312 C2313 1.369 1_565 S
C2312 C2314 1.419 . S
C2312 H2316 0.930 . S
C2313 C2312 1.369 1_545 S
C2313 C2322 1.429 . S
C2314 C2312 1.419 . S
C2314 C2315 1.363 . S
C2314 H2317 0.929 . S
C2315 C2314 1.363 . S
C2315 C2321 1.428 1_565 S
H2316 C2312 0.930 . S
H2317 C2314 0.929 . S
S2318 N2319 1.613 . S
S2318 N2320 1.610 . S
N2319 S2318 1.613 . S
N2319 C2322 1.350 . S
N2320 S2318 1.610 . S
N2320 C2321 1.351 . S
C2321 C2315 1.428 1_545 S
C2321 N2320 1.351 . S
C2321 C2322 1.434 . S
C2322 C2313 1.429 . S
C2322 N2319 1.350 . S
C2322 C2321 1.434 . S
C2323 C2324 1.369 . S
C2323 C2325 1.419 . S
C2323 H2327 0.930 . S
C2324 C2323 1.369 . S
C2324 C2333 1.429 . S
C2325 C2323 1.419 . S
C2325 C2326 1.363 . S
C2325 H2328 0.929 . S
C2326 C2325 1.363 . S
C2326 C2332 1.428 . S
H2327 C2323 0.930 . S
H2328 C2325 0.929 . S
S2329 N2330 1.613 . S
S2329 N2331 1.610 . S
N2330 S2329 1.613 . S
N2330 C2333 1.350 . S
N2331 S2329 1.610 . S
N2331 C2332 1.351 . S
C2332 C2326 1.428 . S
C2332 N2331 1.351 . S
C2332 C2333 1.434 . S
C2333 C2324 1.429 . S
C2333 N2330 1.350 . S
C2333 C2332 1.434 . S
C2334 C2335 1.369 . S
C2334 C2336 1.419 . S
C2334 H2338 0.930 . S
C2335 C2334 1.369 . S
C2335 C2344 1.429 . S
C2336 C2334 1.419 . S
C2336 C2337 1.363 . S
C2336 H2339 0.929 . S
C2337 C2336 1.363 . S
C2337 C2343 1.428 . S
H2338 C2334 0.930 . S
H2339 C2336 0.929 . S
S2340 N2341 1.613 . S
S2340 N2342 1.610 . S
N2341 S2340 1.613 . S
N2341 C2344 1.350 . S
N2342 S2340 1.610 . S
N2342 C2343 1.351 . S
C2343 C2337 1.428 . S
C2343 N2342 1.351 . S
C2343 C2344 1.434 . S
C2344 C2335 1.429 . S
C2344 N2341 1.350 . S
C2344 C2343 1.434 . S
C2345 C2346 1.369 . S
C2345 C2347 1.419 . S
C2345 H2349 0.930 . S
C2346 C2345 1.369 . S
C2346 C2355 1.429 . S
C2347 C2345 1.419 . S
C2347 C2348 1.363 . S
C2347 H2350 0.929 . S
C2348 C2347 1.363 . S
C2348 C2354 1.428 . S
H2349 C2345 0.930 . S
H2350 C2347 0.929 . S
S2351 N2352 1.613 . S
S2351 N2353 1.610 . S
N2352 S2351 1.613 . S
N2352 C2355 1.350 . S
N2353 S2351 1.610 . S
N2353 C2354 1.351 . S
C2354 C2348 1.428 . S
C2354 N2353 1.351 . S
C2354 C2355 1.434 . S
C2355 C2346 1.429 . S
C2355 N2352 1.350 . S
C2355 C2354 1.434 . S
C2356 C2357 1.369 . S
C2356 C2358 1.419 . S
C2356 H2360 0.930 . S
C2357 C2356 1.369 . S
C2357 C2366 1.429 . S
C2358 C2356 1.419 . S
C2358 C2359 1.363 . S
C2358 H2361 0.929 . S
C2359 C2358 1.363 . S
C2359 C2365 1.428 . S
H2360 C2356 0.930 . S
H2361 C2358 0.929 . S
S2362 N2363 1.613 . S
S2362 N2364 1.610 . S
N2363 S2362 1.613 . S
N2363 C2366 1.350 . S
N2364 S2362 1.610 . S
N2364 C2365 1.351 . S
C2365 C2359 1.428 . S
C2365 N2364 1.351 . S
C2365 C2366 1.434 . S
C2366 C2357 1.429 . S
C2366 N2363 1.350 . S
C2366 C2365 1.434 . S
C2367 C2368 1.369 . S
C2367 C2369 1.419 . S
C2367 H2371 0.930 . S
C2368 C2367 1.369 . S
C2368 C2377 1.429 . S
C2369 C2367 1.419 . S
C2369 C2370 1.363 . S
C2369 H2372 0.929 . S
C2370 C2369 1.363 . S
C2370 C2376 1.428 . S
H2371 C2367 0.930 . S
H2372 C2369 0.929 . S
S2373 N2374 1.613 . S
S2373 N2375 1.610 . S
N2374 S2373 1.613 . S
N2374 C2377 1.350 . S
N2375 S2373 1.610 . S
N2375 C2376 1.351 . S
C2376 C2370 1.428 . S
C2376 N2375 1.351 . S
C2376 C2377 1.434 . S
C2377 C2368 1.429 . S
C2377 N2374 1.350 . S
C2377 C2376 1.434 . S
C2378 C2379 1.369 1_545 S
C2378 C2380 1.419 . S
C2378 H2382 0.930 . S
C2379 C2378 1.369 1_565 S
C2379 C2388 1.429 . S
C2380 C2378 1.419 . S
C2380 C2381 1.363 . S
C2380 H2383 0.929 . S
C2381 C2380 1.363 . S
C2381 C2387 1.428 1_545 S
H2382 C2378 0.930 . S
H2383 C2380 0.929 . S
S2384 N2385 1.613 . S
S2384 N2386 1.610 . S
N2385 S2384 1.613 . S
N2385 C2388 1.350 . S
N2386 S2384 1.610 . S
N2386 C2387 1.351 . S
C2387 C2381 1.428 1_565 S
C2387 N2386 1.351 . S
C2387 C2388 1.434 . S
C2388 C2379 1.429 . S
C2388 N2385 1.350 . S
C2388 C2387 1.434 . S
C2389 C2390 1.369 . S
C2389 C2391 1.419 . S
C2389 H2393 0.930 . S
C2390 C2389 1.369 . S
C2390 C2399 1.429 . S
C2391 C2389 1.419 . S
C2391 C2392 1.363 . S
C2391 H2394 0.929 . S
C2392 C2391 1.363 . S
C2392 C2398 1.428 . S
H2393 C2389 0.930 . S
H2394 C2391 0.929 . S
S2395 N2396 1.613 . S
S2395 N2397 1.610 . S
N2396 S2395 1.613 . S
N2396 C2399 1.350 . S
N2397 S2395 1.610 . S
N2397 C2398 1.351 . S
C2398 C2392 1.428 . S
C2398 N2397 1.351 . S
C2398 C2399 1.434 . S
C2399 C2390 1.429 . S
C2399 N2396 1.350 . S
C2399 C2398 1.434 . S
C2400 C2401 1.369 . S
C2400 C2402 1.419 . S
C2400 H2404 0.930 . S
C2401 C2400 1.369 . S
C2401 C2410 1.429 . S
C2402 C2400 1.419 . S
C2402 C2403 1.363 . S
C2402 H2405 0.929 . S
C2403 C2402 1.363 . S
C2403 C2409 1.428 . S
H2404 C2400 0.930 . S
H2405 C2402 0.929 . S
S2406 N2407 1.613 1_556 S
S2406 N2408 1.610 1_556 S
N2407 S2406 1.613 1_554 S
N2407 C2410 1.350 . S
N2408 S2406 1.610 1_554 S
N2408 C2409 1.351 . S
C2409 C2403 1.428 . S
C2409 N2408 1.351 . S
C2409 C2410 1.434 . S
C2410 C2401 1.429 . S
C2410 N2407 1.350 . S
C2410 C2409 1.434 . S
C2411 C2412 1.369 . S
C2411 C2413 1.419 . S
C2411 H2415 0.930 . S
C2412 C2411 1.369 . S
C2412 C2421 1.429 . S
C2413 C2411 1.419 . S
C2413 C2414 1.363 . S
C2413 H2416 0.929 . S
C2414 C2413 1.363 . S
C2414 C2420 1.428 . S
H2415 C2411 0.930 . S
H2416 C2413 0.929 . S
S2417 N2418 1.613 . S
S2417 N2419 1.610 . S
N2418 S2417 1.613 . S
N2418 C2421 1.350 . S
N2419 S2417 1.610 . S
N2419 C2420 1.351 . S
C2420 C2414 1.428 . S
C2420 N2419 1.351 . S
C2420 C2421 1.434 . S
C2421 C2412 1.429 . S
C2421 N2418 1.350 . S
C2421 C2420 1.434 . S
C2422 C2423 1.369 . S
C2422 C2424 1.419 . S
C2422 H2426 0.930 . S
C2423 C2422 1.369 . S
C2423 C2432 1.429 . S
C2424 C2422 1.419 . S
C2424 C2425 1.363 . S
C2424 H2427 0.929 . S
C2425 C2424 1.363 . S
C2425 C2431 1.428 . S
H2426 C2422 0.930 . S
H2427 C2424 0.929 . S
S2428 N2429 1.613 . S
S2428 N2430 1.610 . S
N2429 S2428 1.613 . S
N2429 C2432 1.350 . S
N2430 S2428 1.610 . S
N2430 C2431 1.351 . S
C2431 C2425 1.428 . S
C2431 N2430 1.351 . S
C2431 C2432 1.434 . S
C2432 C2423 1.429 . S
C2432 N2429 1.350 . S
C2432 C2431 1.434 . S
C2433 C2434 1.369 . S
C2433 C2435 1.419 . S
C2433 H2437 0.930 . S
C2434 C2433 1.369 . S
C2434 C2443 1.429 . S
C2435 C2433 1.419 . S
C2435 C2436 1.363 . S
C2435 H2438 0.929 . S
C2436 C2435 1.363 . S
C2436 C2442 1.428 . S
H2437 C2433 0.930 . S
H2438 C2435 0.929 . S
S2439 N2440 1.613 . S
S2439 N2441 1.610 . S
N2440 S2439 1.613 . S
N2440 C2443 1.350 . S
N2441 S2439 1.610 . S
N2441 C2442 1.351 . S
C2442 C2436 1.428 . S
C2442 N2441 1.351 . S
C2442 C2443 1.434 . S
C2443 C2434 1.429 . S
C2443 N2440 1.350 . S
C2443 C2442 1.434 . S
C2444 C2445 1.369 . S
C2444 C2446 1.419 . S
C2444 H2448 0.930 . S
C2445 C2444 1.369 . S
C2445 C2454 1.429 . S
C2446 C2444 1.419 . S
C2446 C2447 1.363 . S
C2446 H2449 0.929 . S
C2447 C2446 1.363 . S
C2447 C2453 1.428 . S
H2448 C2444 0.930 . S
H2449 C2446 0.929 . S
S2450 N2451 1.613 . S
S2450 N2452 1.610 . S
N2451 S2450 1.613 . S
N2451 C2454 1.350 . S
N2452 S2450 1.610 . S
N2452 C2453 1.351 . S
C2453 C2447 1.428 . S
C2453 N2452 1.351 . S
C2453 C2454 1.434 . S
C2454 C2445 1.429 . S
C2454 N2451 1.350 . S
C2454 C2453 1.434 . S
C2455 C2456 1.369 . S
C2455 C2457 1.419 . S
C2455 H2459 0.930 . S
C2456 C2455 1.369 . S
C2456 C2465 1.429 . S
C2457 C2455 1.419 . S
C2457 C2458 1.363 . S
C2457 H2460 0.929 . S
C2458 C2457 1.363 . S
C2458 C2464 1.428 . S
H2459 C2455 0.930 . S
H2460 C2457 0.929 . S
S2461 N2462 1.613 . S
S2461 N2463 1.610 . S
N2462 S2461 1.613 . S
N2462 C2465 1.350 . S
N2463 S2461 1.610 . S
N2463 C2464 1.351 . S
C2464 C2458 1.428 . S
C2464 N2463 1.351 . S
C2464 C2465 1.434 . S
C2465 C2456 1.429 . S
C2465 N2462 1.350 . S
C2465 C2464 1.434 . S
C2466 C2467 1.369 . S
C2466 C2468 1.419 . S
C2466 H2470 0.930 . S
C2467 C2466 1.369 . S
C2467 C2476 1.429 . S
C2468 C2466 1.419 . S
C2468 C2469 1.363 . S
C2468 H2471 0.929 . S
C2469 C2468 1.363 . S
C2469 C2475 1.428 . S
H2470 C2466 0.930 . S
H2471 C2468 0.929 . S
S2472 N2473 1.613 . S
S2472 N2474 1.610 . S
N2473 S2472 1.613 . S
N2473 C2476 1.350 . S
N2474 S2472 1.610 . S
N2474 C2475 1.351 . S
C2475 C2469 1.428 . S
C2475 N2474 1.351 . S
C2475 C2476 1.434 . S
C2476 C2467 1.429 . S
C2476 N2473 1.350 . S
C2476 C2475 1.434 . S
C2477 C2478 1.369 . S
C2477 C2479 1.419 . S
C2477 H2481 0.930 . S
C2478 C2477 1.369 . S
C2478 C2487 1.429 . S
C2479 C2477 1.419 . S
C2479 C2480 1.363 . S
C2479 H2482 0.929 . S
C2480 C2479 1.363 . S
C2480 C2486 1.428 . S
H2481 C2477 0.930 . S
H2482 C2479 0.929 . S
S2483 N2484 1.613 . S
S2483 N2485 1.610 . S
N2484 S2483 1.613 . S
N2484 C2487 1.350 . S
N2485 S2483 1.610 . S
N2485 C2486 1.351 . S
C2486 C2480 1.428 . S
C2486 N2485 1.351 . S
C2486 C2487 1.434 . S
C2487 C2478 1.429 . S
C2487 N2484 1.350 . S
C2487 C2486 1.434 . S
C2488 C2489 1.369 . S
C2488 C2490 1.419 . S
C2488 H2492 0.930 . S
C2489 C2488 1.369 . S
C2489 C2498 1.429 . S
C2490 C2488 1.419 . S
C2490 C2491 1.363 . S
C2490 H2493 0.929 . S
C2491 C2490 1.363 . S
C2491 C2497 1.428 . S
H2492 C2488 0.930 . S
H2493 C2490 0.929 . S
S2494 N2495 1.613 1_655 S
S2494 N2496 1.610 1_655 S
N2495 S2494 1.613 1_455 S
N2495 C2498 1.350 . S
N2496 S2494 1.610 1_455 S
N2496 C2497 1.351 . S
C2497 C2491 1.428 . S
C2497 N2496 1.351 . S
C2497 C2498 1.434 . S
C2498 C2489 1.429 . S
C2498 N2495 1.350 . S
C2498 C2497 1.434 . S
C2499 C2500 1.369 . S
C2499 C2501 1.419 . S
C2499 H2503 0.930 . S
C2500 C2499 1.369 . S
C2500 C2509 1.429 . S
C2501 C2499 1.419 . S
C2501 C2502 1.363 . S
C2501 H2504 0.929 . S
C2502 C2501 1.363 . S
C2502 C2508 1.428 . S
H2503 C2499 0.930 . S
H2504 C2501 0.929 . S
S2505 N2506 1.613 . S
S2505 N2507 1.610 . S
N2506 S2505 1.613 . S
N2506 C2509 1.350 . S
N2507 S2505 1.610 . S
N2507 C2508 1.351 . S
C2508 C2502 1.428 . S
C2508 N2507 1.351 . S
C2508 C2509 1.434 . S
C2509 C2500 1.429 . S
C2509 N2506 1.350 . S
C2509 C2508 1.434 . S
C2510 C2511 1.369 . S
C2510 C2512 1.419 . S
C2510 H2514 0.930 . S
C2511 C2510 1.369 . S
C2511 C2520 1.429 . S
C2512 C2510 1.419 . S
C2512 C2513 1.363 . S
C2512 H2515 0.929 . S
C2513 C2512 1.363 . S
C2513 C2519 1.428 . S
H2514 C2510 0.930 . S
H2515 C2512 0.929 . S
S2516 N2517 1.613 . S
S2516 N2518 1.610 . S
N2517 S2516 1.613 . S
N2517 C2520 1.350 . S
N2518 S2516 1.610 . S
N2518 C2519 1.351 . S
C2519 C2513 1.428 . S
C2519 N2518 1.351 . S
C2519 C2520 1.434 . S
C2520 C2511 1.429 . S
C2520 N2517 1.350 . S
C2520 C2519 1.434 . S
C2521 C2522 1.369 . S
C2521 C2523 1.419 . S
C2521 H2525 0.930 . S
C2522 C2521 1.369 . S
C2522 C2531 1.429 . S
C2523 C2521 1.419 . S
C2523 C2524 1.363 . S
C2523 H2526 0.929 . S
C2524 C2523 1.363 . S
C2524 C2530 1.428 . S
H2525 C2521 0.930 . S
H2526 C2523 0.929 . S
S2527 N2528 1.613 . S
S2527 N2529 1.610 . S
N2528 S2527 1.613 . S
N2528 C2531 1.350 . S
N2529 S2527 1.610 . S
N2529 C2530 1.351 . S
C2530 C2524 1.428 . S
C2530 N2529 1.351 . S
C2530 C2531 1.434 . S
C2531 C2522 1.429 . S
C2531 N2528 1.350 . S
C2531 C2530 1.434 . S
C2532 C2533 1.369 . S
C2532 C2534 1.419 . S
C2532 H2536 0.930 . S
C2533 C2532 1.369 . S
C2533 C2542 1.429 . S
C2534 C2532 1.419 . S
C2534 C2535 1.363 . S
C2534 H2537 0.929 . S
C2535 C2534 1.363 . S
C2535 C2541 1.428 . S
H2536 C2532 0.930 . S
H2537 C2534 0.929 . S
S2538 N2539 1.613 . S
S2538 N2540 1.610 . S
N2539 S2538 1.613 . S
N2539 C2542 1.350 . S
N2540 S2538 1.610 . S
N2540 C2541 1.351 . S
C2541 C2535 1.428 . S
C2541 N2540 1.351 . S
C2541 C2542 1.434 . S
C2542 C2533 1.429 . S
C2542 N2539 1.350 . S
C2542 C2541 1.434 . S
C2543 C2544 1.369 . S
C2543 C2545 1.419 . S
C2543 H2547 0.930 . S
C2544 C2543 1.369 . S
C2544 C2553 1.429 . S
C2545 C2543 1.419 . S
C2545 C2546 1.363 . S
C2545 H2548 0.929 . S
C2546 C2545 1.363 . S
C2546 C2552 1.428 . S
H2547 C2543 0.930 . S
H2548 C2545 0.929 . S
S2549 N2550 1.613 . S
S2549 N2551 1.610 . S
N2550 S2549 1.613 . S
N2550 C2553 1.350 . S
N2551 S2549 1.610 . S
N2551 C2552 1.351 . S
C2552 C2546 1.428 . S
C2552 N2551 1.351 . S
C2552 C2553 1.434 . S
C2553 C2544 1.429 . S
C2553 N2550 1.350 . S
C2553 C2552 1.434 . S
C2554 C2555 1.369 . S
C2554 C2556 1.419 . S
C2554 H2558 0.930 . S
C2555 C2554 1.369 . S
C2555 C2564 1.429 . S
C2556 C2554 1.419 . S
C2556 C2557 1.363 . S
C2556 H2559 0.929 . S
C2557 C2556 1.363 . S
C2557 C2563 1.428 . S
H2558 C2554 0.930 . S
H2559 C2556 0.929 . S
S2560 N2561 1.613 . S
S2560 N2562 1.610 . S
N2561 S2560 1.613 . S
N2561 C2564 1.350 . S
N2562 S2560 1.610 . S
N2562 C2563 1.351 . S
C2563 C2557 1.428 . S
C2563 N2562 1.351 . S
C2563 C2564 1.434 . S
C2564 C2555 1.429 . S
C2564 N2561 1.350 . S
C2564 C2563 1.434 . S
C2565 C2566 1.369 . S
C2565 C2567 1.419 . S
C2565 H2569 0.930 . S
C2566 C2565 1.369 . S
C2566 C2575 1.429 . S
C2567 C2565 1.419 . S
C2567 C2568 1.363 . S
C2567 H2570 0.929 . S
C2568 C2567 1.363 . S
C2568 C2574 1.428 . S
H2569 C2565 0.930 . S
H2570 C2567 0.929 . S
S2571 N2572 1.613 . S
S2571 N2573 1.610 . S
N2572 S2571 1.613 . S
N2572 C2575 1.350 . S
N2573 S2571 1.610 . S
N2573 C2574 1.351 . S
C2574 C2568 1.428 . S
C2574 N2573 1.351 . S
C2574 C2575 1.434 . S
C2575 C2566 1.429 . S
C2575 N2572 1.350 . S
C2575 C2574 1.434 . S
C2576 C2577 1.369 . S
C2576 C2578 1.419 . S
C2576 H2580 0.930 . S
C2577 C2576 1.369 . S
C2577 C2586 1.429 . S
C2578 C2576 1.419 . S
C2578 C2579 1.363 . S
C2578 H2581 0.929 . S
C2579 C2578 1.363 . S
C2579 C2585 1.428 . S
H2580 C2576 0.930 . S
H2581 C2578 0.929 . S
S2582 N2583 1.613 . S
S2582 N2584 1.610 . S
N2583 S2582 1.613 . S
N2583 C2586 1.350 . S
N2584 S2582 1.610 . S
N2584 C2585 1.351 . S
C2585 C2579 1.428 . S
C2585 N2584 1.351 . S
C2585 C2586 1.434 . S
C2586 C2577 1.429 . S
C2586 N2583 1.350 . S
C2586 C2585 1.434 . S
C2587 C2588 1.369 . S
C2587 C2589 1.419 . S
C2587 H2591 0.930 . S
C2588 C2587 1.369 . S
C2588 C2597 1.429 . S
C2589 C2587 1.419 . S
C2589 C2590 1.363 . S
C2589 H2592 0.929 . S
C2590 C2589 1.363 . S
C2590 C2596 1.428 . S
H2591 C2587 0.930 . S
H2592 C2589 0.929 . S
S2593 N2594 1.613 . S
S2593 N2595 1.610 . S
N2594 S2593 1.613 . S
N2594 C2597 1.350 . S
N2595 S2593 1.610 . S
N2595 C2596 1.351 . S
C2596 C2590 1.428 . S
C2596 N2595 1.351 . S
C2596 C2597 1.434 . S
C2597 C2588 1.429 . S
C2597 N2594 1.350 . S
C2597 C2596 1.434 . S
C2598 C2599 1.369 . S
C2598 C2600 1.419 . S
C2598 H2602 0.930 . S
C2599 C2598 1.369 . S
C2599 C2608 1.429 . S
C2600 C2598 1.419 . S
C2600 C2601 1.363 . S
C2600 H2603 0.929 . S
C2601 C2600 1.363 . S
C2601 C2607 1.428 . S
H2602 C2598 0.930 . S
H2603 C2600 0.929 . S
S2604 N2605 1.613 . S
S2604 N2606 1.610 . S
N2605 S2604 1.613 . S
N2605 C2608 1.350 . S
N2606 S2604 1.610 . S
N2606 C2607 1.351 . S
C2607 C2601 1.428 . S
C2607 N2606 1.351 . S
C2607 C2608 1.434 . S
C2608 C2599 1.429 . S
C2608 N2605 1.350 . S
C2608 C2607 1.434 . S
C2609 C2610 1.369 . S
C2609 C2611 1.419 . S
C2609 H2613 0.930 . S
C2610 C2609 1.369 . S
C2610 C2619 1.429 . S
C2611 C2609 1.419 . S
C2611 C2612 1.363 . S
C2611 H2614 0.929 . S
C2612 C2611 1.363 . S
C2612 C2618 1.428 . S
H2613 C2609 0.930 . S
H2614 C2611 0.929 . S
S2615 N2616 1.613 . S
S2615 N2617 1.610 . S
N2616 S2615 1.613 . S
N2616 C2619 1.350 . S
N2617 S2615 1.610 . S
N2617 C2618 1.351 . S
C2618 C2612 1.428 . S
C2618 N2617 1.351 . S
C2618 C2619 1.434 . S
C2619 C2610 1.429 . S
C2619 N2616 1.350 . S
C2619 C2618 1.434 . S
C2620 C2621 1.369 . S
C2620 C2622 1.419 . S
C2620 H2624 0.930 . S
C2621 C2620 1.369 . S
C2621 C2630 1.429 . S
C2622 C2620 1.419 . S
C2622 C2623 1.363 . S
C2622 H2625 0.929 . S
C2623 C2622 1.363 . S
C2623 C2629 1.428 . S
H2624 C2620 0.930 . S
H2625 C2622 0.929 . S
S2626 N2627 1.613 . S
S2626 N2628 1.610 . S
N2627 S2626 1.613 . S
N2627 C2630 1.350 . S
N2628 S2626 1.610 . S
N2628 C2629 1.351 . S
C2629 C2623 1.428 . S
C2629 N2628 1.351 . S
C2629 C2630 1.434 . S
C2630 C2621 1.429 . S
C2630 N2627 1.350 . S
C2630 C2629 1.434 . S
C2631 C2632 1.369 . S
C2631 C2633 1.419 . S
C2631 H2635 0.930 . S
C2632 C2631 1.369 . S
C2632 C2641 1.429 . S
C2633 C2631 1.419 . S
C2633 C2634 1.363 . S
C2633 H2636 0.929 . S
C2634 C2633 1.363 . S
C2634 C2640 1.428 . S
H2635 C2631 0.930 . S
H2636 C2633 0.929 . S
S2637 N2638 1.613 . S
S2637 N2639 1.610 . S
N2638 S2637 1.613 . S
N2638 C2641 1.350 . S
N2639 S2637 1.610 . S
N2639 C2640 1.351 . S
C2640 C2634 1.428 . S
C2640 N2639 1.351 . S
C2640 C2641 1.434 . S
C2641 C2632 1.429 . S
C2641 N2638 1.350 . S
C2641 C2640 1.434 . S
C2642 C2643 1.369 . S
C2642 C2644 1.419 . S
C2642 H2646 0.930 . S
C2643 C2642 1.369 . S
C2643 C2652 1.429 . S
C2644 C2642 1.419 . S
C2644 C2645 1.363 . S
C2644 H2647 0.929 . S
C2645 C2644 1.363 . S
C2645 C2651 1.428 . S
H2646 C2642 0.930 . S
H2647 C2644 0.929 . S
S2648 N2649 1.613 . S
S2648 N2650 1.610 . S
N2649 S2648 1.613 . S
N2649 C2652 1.350 . S
N2650 S2648 1.610 . S
N2650 C2651 1.351 . S
C2651 C2645 1.428 . S
C2651 N2650 1.351 . S
C2651 C2652 1.434 . S
C2652 C2643 1.429 . S
C2652 N2649 1.350 . S
C2652 C2651 1.434 . S
C2653 C2654 1.369 . S
C2653 C2655 1.419 . S
C2653 H2657 0.930 . S
C2654 C2653 1.369 . S
C2654 C2663 1.429 . S
C2655 C2653 1.419 . S
C2655 C2656 1.363 . S
C2655 H2658 0.929 . S
C2656 C2655 1.363 . S
C2656 C2662 1.428 . S
H2657 C2653 0.930 . S
H2658 C2655 0.929 . S
S2659 N2660 1.613 . S
S2659 N2661 1.610 . S
N2660 S2659 1.613 . S
N2660 C2663 1.350 . S
N2661 S2659 1.610 . S
N2661 C2662 1.351 . S
C2662 C2656 1.428 . S
C2662 N2661 1.351 . S
C2662 C2663 1.434 . S
C2663 C2654 1.429 . S
C2663 N2660 1.350 . S
C2663 C2662 1.434 . S
C2664 C2665 1.369 . S
C2664 C2666 1.419 . S
C2664 H2668 0.930 . S
C2665 C2664 1.369 . S
C2665 C2674 1.429 . S
C2666 C2664 1.419 . S
C2666 C2667 1.363 . S
C2666 H2669 0.929 . S
C2667 C2666 1.363 . S
C2667 C2673 1.428 . S
H2668 C2664 0.930 . S
H2669 C2666 0.929 . S
S2670 N2671 1.613 . S
S2670 N2672 1.610 . S
N2671 S2670 1.613 . S
N2671 C2674 1.350 . S
N2672 S2670 1.610 . S
N2672 C2673 1.351 . S
C2673 C2667 1.428 . S
C2673 N2672 1.351 . S
C2673 C2674 1.434 . S
C2674 C2665 1.429 . S
C2674 N2671 1.350 . S
C2674 C2673 1.434 . S
C2675 C2676 1.369 . S
C2675 C2677 1.419 . S
C2675 H2679 0.930 . S
C2676 C2675 1.369 . S
C2676 C2685 1.429 . S
C2677 C2675 1.419 . S
C2677 C2678 1.363 . S
C2677 H2680 0.929 . S
C2678 C2677 1.363 . S
C2678 C2684 1.428 . S
H2679 C2675 0.930 . S
H2680 C2677 0.929 . S
S2681 N2682 1.613 . S
S2681 N2683 1.610 . S
N2682 S2681 1.613 . S
N2682 C2685 1.350 . S
N2683 S2681 1.610 . S
N2683 C2684 1.351 . S
C2684 C2678 1.428 . S
C2684 N2683 1.351 . S
C2684 C2685 1.434 . S
C2685 C2676 1.429 . S
C2685 N2682 1.350 . S
C2685 C2684 1.434 . S
C2686 C2687 1.369 . S
C2686 C2688 1.419 . S
C2686 H2690 0.930 . S
C2687 C2686 1.369 . S
C2687 C2696 1.429 . S
C2688 C2686 1.419 . S
C2688 C2689 1.363 . S
C2688 H2691 0.929 . S
C2689 C2688 1.363 . S
C2689 C2695 1.428 . S
H2690 C2686 0.930 . S
H2691 C2688 0.929 . S
S2692 N2693 1.613 . S
S2692 N2694 1.610 . S
N2693 S2692 1.613 . S
N2693 C2696 1.350 . S
N2694 S2692 1.610 . S
N2694 C2695 1.351 . S
C2695 C2689 1.428 . S
C2695 N2694 1.351 . S
C2695 C2696 1.434 . S
C2696 C2687 1.429 . S
C2696 N2693 1.350 . S
C2696 C2695 1.434 . S
C2697 C2698 1.369 . S
C2697 C2699 1.419 . S
C2697 H2701 0.930 . S
C2698 C2697 1.369 . S
C2698 C2707 1.429 . S
C2699 C2697 1.419 . S
C2699 C2700 1.363 . S
C2699 H2702 0.929 . S
C2700 C2699 1.363 . S
C2700 C2706 1.428 . S
H2701 C2697 0.930 . S
H2702 C2699 0.929 . S
S2703 N2704 1.613 . S
S2703 N2705 1.610 . S
N2704 S2703 1.613 . S
N2704 C2707 1.350 . S
N2705 S2703 1.610 . S
N2705 C2706 1.351 . S
C2706 C2700 1.428 . S
C2706 N2705 1.351 . S
C2706 C2707 1.434 . S
C2707 C2698 1.429 . S
C2707 N2704 1.350 . S
C2707 C2706 1.434 . S
C2708 C2709 1.369 . S
C2708 C2710 1.419 . S
C2708 H2712 0.930 . S
C2709 C2708 1.369 . S
C2709 C2718 1.429 . S
C2710 C2708 1.419 . S
C2710 C2711 1.363 . S
C2710 H2713 0.929 . S
C2711 C2710 1.363 . S
C2711 C2717 1.428 . S
H2712 C2708 0.930 . S
H2713 C2710 0.929 . S
S2714 N2715 1.613 . S
S2714 N2716 1.610 . S
N2715 S2714 1.613 . S
N2715 C2718 1.350 . S
N2716 S2714 1.610 . S
N2716 C2717 1.351 . S
C2717 C2711 1.428 . S
C2717 N2716 1.351 . S
C2717 C2718 1.434 . S
C2718 C2709 1.429 . S
C2718 N2715 1.350 . S
C2718 C2717 1.434 . S
C2719 C2720 1.369 . S
C2719 C2721 1.419 . S
C2719 H2723 0.930 . S
C2720 C2719 1.369 . S
C2720 C2729 1.429 . S
C2721 C2719 1.419 . S
C2721 C2722 1.363 . S
C2721 H2724 0.929 . S
C2722 C2721 1.363 . S
C2722 C2728 1.428 . S
H2723 C2719 0.930 . S
H2724 C2721 0.929 . S
S2725 N2726 1.613 . S
S2725 N2727 1.610 . S
N2726 S2725 1.613 . S
N2726 C2729 1.350 . S
N2727 S2725 1.610 . S
N2727 C2728 1.351 . S
C2728 C2722 1.428 . S
C2728 N2727 1.351 . S
C2728 C2729 1.434 . S
C2729 C2720 1.429 . S
C2729 N2726 1.350 . S
C2729 C2728 1.434 . S
C2730 C2731 1.369 . S
C2730 C2732 1.419 . S
C2730 H2734 0.930 . S
C2731 C2730 1.369 . S
C2731 C2740 1.429 . S
C2732 C2730 1.419 . S
C2732 C2733 1.363 . S
C2732 H2735 0.929 . S
C2733 C2732 1.363 . S
C2733 C2739 1.428 . S
H2734 C2730 0.930 . S
H2735 C2732 0.929 . S
S2736 N2737 1.613 . S
S2736 N2738 1.610 . S
N2737 S2736 1.613 . S
N2737 C2740 1.350 . S
N2738 S2736 1.610 . S
N2738 C2739 1.351 . S
C2739 C2733 1.428 . S
C2739 N2738 1.351 . S
C2739 C2740 1.434 . S
C2740 C2731 1.429 . S
C2740 N2737 1.350 . S
C2740 C2739 1.434 . S
C2741 C2742 1.369 . S
C2741 C2743 1.419 . S
C2741 H2745 0.930 . S
C2742 C2741 1.369 . S
C2742 C2751 1.429 . S
C2743 C2741 1.419 . S
C2743 C2744 1.363 . S
C2743 H2746 0.929 . S
C2744 C2743 1.363 . S
C2744 C2750 1.428 . S
H2745 C2741 0.930 . S
H2746 C2743 0.929 . S
S2747 N2748 1.613 . S
S2747 N2749 1.610 . S
N2748 S2747 1.613 . S
N2748 C2751 1.350 . S
N2749 S2747 1.610 . S
N2749 C2750 1.351 . S
C2750 C2744 1.428 . S
C2750 N2749 1.351 . S
C2750 C2751 1.434 . S
C2751 C2742 1.429 . S
C2751 N2748 1.350 . S
C2751 C2750 1.434 . S
C2752 C2753 1.369 . S
C2752 C2754 1.419 . S
C2752 H2756 0.930 . S
C2753 C2752 1.369 . S
C2753 C2762 1.429 . S
C2754 C2752 1.419 . S
C2754 C2755 1.363 . S
C2754 H2757 0.929 . S
C2755 C2754 1.363 . S
C2755 C2761 1.428 . S
H2756 C2752 0.930 . S
H2757 C2754 0.929 . S
S2758 N2759 1.613 . S
S2758 N2760 1.610 . S
N2759 S2758 1.613 . S
N2759 C2762 1.350 . S
N2760 S2758 1.610 . S
N2760 C2761 1.351 . S
C2761 C2755 1.428 . S
C2761 N2760 1.351 . S
C2761 C2762 1.434 . S
C2762 C2753 1.429 . S
C2762 N2759 1.350 . S
C2762 C2761 1.434 . S
C2763 C2764 1.369 . S
C2763 C2765 1.419 . S
C2763 H2767 0.930 . S
C2764 C2763 1.369 . S
C2764 C2773 1.429 . S
C2765 C2763 1.419 . S
C2765 C2766 1.363 . S
C2765 H2768 0.929 . S
C2766 C2765 1.363 . S
C2766 C2772 1.428 . S
H2767 C2763 0.930 . S
H2768 C2765 0.929 . S
S2769 N2770 1.613 . S
S2769 N2771 1.610 . S
N2770 S2769 1.613 . S
N2770 C2773 1.350 . S
N2771 S2769 1.610 . S
N2771 C2772 1.351 . S
C2772 C2766 1.428 . S
C2772 N2771 1.351 . S
C2772 C2773 1.434 . S
C2773 C2764 1.429 . S
C2773 N2770 1.350 . S
C2773 C2772 1.434 . S
C2774 C2775 1.369 . S
C2774 C2776 1.419 . S
C2774 H2778 0.930 . S
C2775 C2774 1.369 . S
C2775 C2784 1.429 . S
C2776 C2774 1.419 . S
C2776 C2777 1.363 . S
C2776 H2779 0.929 . S
C2777 C2776 1.363 . S
C2777 C2783 1.428 . S
H2778 C2774 0.930 . S
H2779 C2776 0.929 . S
S2780 N2781 1.613 . S
S2780 N2782 1.610 . S
N2781 S2780 1.613 . S
N2781 C2784 1.350 . S
N2782 S2780 1.610 . S
N2782 C2783 1.351 . S
C2783 C2777 1.428 . S
C2783 N2782 1.351 . S
C2783 C2784 1.434 . S
C2784 C2775 1.429 . S
C2784 N2781 1.350 . S
C2784 C2783 1.434 . S
C2785 C2786 1.369 . S
C2785 C2787 1.419 . S
C2785 H2789 0.930 . S
C2786 C2785 1.369 . S
C2786 C2795 1.429 . S
C2787 C2785 1.419 . S
C2787 C2788 1.363 . S
C2787 H2790 0.929 . S
C2788 C2787 1.363 . S
C2788 C2794 1.428 . S
H2789 C2785 0.930 . S
H2790 C2787 0.929 . S
S2791 N2792 1.613 . S
S2791 N2793 1.610 . S
N2792 S2791 1.613 . S
N2792 C2795 1.350 . S
N2793 S2791 1.610 . S
N2793 C2794 1.351 . S
C2794 C2788 1.428 . S
C2794 N2793 1.351 . S
C2794 C2795 1.434 . S
C2795 C2786 1.429 . S
C2795 N2792 1.350 . S
C2795 C2794 1.434 . S
C2796 C2797 1.369 . S
C2796 C2798 1.419 . S
C2796 H2800 0.930 . S
C2797 C2796 1.369 . S
C2797 C2806 1.429 . S
C2798 C2796 1.419 . S
C2798 C2799 1.363 . S
C2798 H2801 0.929 . S
C2799 C2798 1.363 . S
C2799 C2805 1.428 . S
H2800 C2796 0.930 . S
H2801 C2798 0.929 . S
S2802 N2803 1.613 1_655 S
S2802 N2804 1.610 1_655 S
N2803 S2802 1.613 1_455 S
N2803 C2806 1.350 . S
N2804 S2802 1.610 1_455 S
N2804 C2805 1.351 . S
C2805 C2799 1.428 . S
C2805 N2804 1.351 . S
C2805 C2806 1.434 . S
C2806 C2797 1.429 . S
C2806 N2803 1.350 . S
C2806 C2805 1.434 . S
C2807 C2808 1.369 . S
C2807 C2809 1.419 . S
C2807 H2811 0.930 . S
C2808 C2807 1.369 . S
C2808 C2817 1.429 . S
C2809 C2807 1.419 . S
C2809 C2810 1.363 . S
C2809 H2812 0.929 . S
C2810 C2809 1.363 . S
C2810 C2816 1.428 . S
H2811 C2807 0.930 . S
H2812 C2809 0.929 . S
S2813 N2814 1.613 . S
S2813 N2815 1.610 . S
N2814 S2813 1.613 . S
N2814 C2817 1.350 . S
N2815 S2813 1.610 . S
N2815 C2816 1.351 . S
C2816 C2810 1.428 . S
C2816 N2815 1.351 . S
C2816 C2817 1.434 . S
C2817 C2808 1.429 . S
C2817 N2814 1.350 . S
C2817 C2816 1.434 . S
C2818 C2819 1.369 . S
C2818 C2820 1.419 . S
C2818 H2822 0.930 . S
C2819 C2818 1.369 . S
C2819 C2828 1.429 . S
C2820 C2818 1.419 . S
C2820 C2821 1.363 . S
C2820 H2823 0.929 . S
C2821 C2820 1.363 . S
C2821 C2827 1.428 . S
H2822 C2818 0.930 . S
H2823 C2820 0.929 . S
S2824 N2825 1.613 . S
S2824 N2826 1.610 . S
N2825 S2824 1.613 . S
N2825 C2828 1.350 . S
N2826 S2824 1.610 . S
N2826 C2827 1.351 . S
C2827 C2821 1.428 . S
C2827 N2826 1.351 . S
C2827 C2828 1.434 . S
C2828 C2819 1.429 . S
C2828 N2825 1.350 . S
C2828 C2827 1.434 . S
C2829 C2830 1.369 . S
C2829 C2831 1.419 . S
C2829 H2833 0.930 . S
C2830 C2829 1.369 . S
C2830 C2839 1.429 . S
C2831 C2829 1.419 . S
C2831 C2832 1.363 . S
C2831 H2834 0.929 . S
C2832 C2831 1.363 . S
C2832 C2838 1.428 . S
H2833 C2829 0.930 . S
H2834 C2831 0.929 . S
S2835 N2836 1.613 . S
S2835 N2837 1.610 . S
N2836 S2835 1.613 . S
N2836 C2839 1.350 . S
N2837 S2835 1.610 . S
N2837 C2838 1.351 . S
C2838 C2832 1.428 . S
C2838 N2837 1.351 . S
C2838 C2839 1.434 . S
C2839 C2830 1.429 . S
C2839 N2836 1.350 . S
C2839 C2838 1.434 . S
C2840 C2841 1.369 . S
C2840 C2842 1.419 . S
C2840 H2844 0.930 . S
C2841 C2840 1.369 . S
C2841 C2850 1.429 . S
C2842 C2840 1.419 . S
C2842 C2843 1.363 . S
C2842 H2845 0.929 . S
C2843 C2842 1.363 . S
C2843 C2849 1.428 . S
H2844 C2840 0.930 . S
H2845 C2842 0.929 . S
S2846 N2847 1.613 . S
S2846 N2848 1.610 . S
N2847 S2846 1.613 . S
N2847 C2850 1.350 . S
N2848 S2846 1.610 . S
N2848 C2849 1.351 . S
C2849 C2843 1.428 . S
C2849 N2848 1.351 . S
C2849 C2850 1.434 . S
C2850 C2841 1.429 . S
C2850 N2847 1.350 . S
C2850 C2849 1.434 . S
C2851 C2852 1.369 . S
C2851 C2853 1.419 . S
C2851 H2855 0.930 . S
C2852 C2851 1.369 . S
C2852 C2861 1.429 . S
C2853 C2851 1.419 . S
C2853 C2854 1.363 . S
C2853 H2856 0.929 . S
C2854 C2853 1.363 . S
C2854 C2860 1.428 . S
H2855 C2851 0.930 . S
H2856 C2853 0.929 . S
S2857 N2858 1.613 . S
S2857 N2859 1.610 . S
N2858 S2857 1.613 . S
N2858 C2861 1.350 . S
N2859 S2857 1.610 . S
N2859 C2860 1.351 . S
C2860 C2854 1.428 . S
C2860 N2859 1.351 . S
C2860 C2861 1.434 . S
C2861 C2852 1.429 . S
C2861 N2858 1.350 . S
C2861 C2860 1.434 . S
C2862 C2863 1.369 . S
C2862 C2864 1.419 . S
C2862 H2866 0.930 . S
C2863 C2862 1.369 . S
C2863 C2872 1.429 . S
C2864 C2862 1.419 . S
C2864 C2865 1.363 . S
C2864 H2867 0.929 . S
C2865 C2864 1.363 . S
C2865 C2871 1.428 . S
H2866 C2862 0.930 . S
H2867 C2864 0.929 . S
S2868 N2869 1.613 . S
S2868 N2870 1.610 . S
N2869 S2868 1.613 . S
N2869 C2872 1.350 . S
N2870 S2868 1.610 . S
N2870 C2871 1.351 . S
C2871 C2865 1.428 . S
C2871 N2870 1.351 . S
C2871 C2872 1.434 . S
C2872 C2863 1.429 . S
C2872 N2869 1.350 . S
C2872 C2871 1.434 . S
C2873 C2874 1.369 . S
C2873 C2875 1.419 . S
C2873 H2877 0.930 . S
C2874 C2873 1.369 . S
C2874 C2883 1.429 . S
C2875 C2873 1.419 . S
C2875 C2876 1.363 . S
C2875 H2878 0.929 . S
C2876 C2875 1.363 . S
C2876 C2882 1.428 . S
H2877 C2873 0.930 . S
H2878 C2875 0.929 . S
S2879 N2880 1.613 . S
S2879 N2881 1.610 . S
N2880 S2879 1.613 . S
N2880 C2883 1.350 . S
N2881 S2879 1.610 . S
N2881 C2882 1.351 . S
C2882 C2876 1.428 . S
C2882 N2881 1.351 . S
C2882 C2883 1.434 . S
C2883 C2874 1.429 . S
C2883 N2880 1.350 . S
C2883 C2882 1.434 . S
C2884 C2885 1.369 . S
C2884 C2886 1.419 . S
C2884 H2888 0.930 . S
C2885 C2884 1.369 . S
C2885 C2894 1.429 . S
C2886 C2884 1.419 . S
C2886 C2887 1.363 . S
C2886 H2889 0.929 . S
C2887 C2886 1.363 . S
C2887 C2893 1.428 . S
H2888 C2884 0.930 . S
H2889 C2886 0.929 . S
S2890 N2891 1.613 . S
S2890 N2892 1.610 . S
N2891 S2890 1.613 . S
N2891 C2894 1.350 . S
N2892 S2890 1.610 . S
N2892 C2893 1.351 . S
C2893 C2887 1.428 . S
C2893 N2892 1.351 . S
C2893 C2894 1.434 . S
C2894 C2885 1.429 . S
C2894 N2891 1.350 . S
C2894 C2893 1.434 . S
C2895 C2896 1.369 . S
C2895 C2897 1.419 . S
C2895 H2899 0.930 . S
C2896 C2895 1.369 . S
C2896 C2905 1.429 . S
C2897 C2895 1.419 . S
C2897 C2898 1.363 . S
C2897 H2900 0.929 . S
C2898 C2897 1.363 . S
C2898 C2904 1.428 . S
H2899 C2895 0.930 . S
H2900 C2897 0.929 . S
S2901 N2902 1.613 . S
S2901 N2903 1.610 . S
N2902 S2901 1.613 . S
N2902 C2905 1.350 . S
N2903 S2901 1.610 . S
N2903 C2904 1.351 . S
C2904 C2898 1.428 . S
C2904 N2903 1.351 . S
C2904 C2905 1.434 . S
C2905 C2896 1.429 . S
C2905 N2902 1.350 . S
C2905 C2904 1.434 . S
C2906 C2907 1.369 . S
C2906 C2908 1.419 . S
C2906 H2910 0.930 . S
C2907 C2906 1.369 . S
C2907 C2916 1.429 . S
C2908 C2906 1.419 . S
C2908 C2909 1.363 . S
C2908 H2911 0.929 . S
C2909 C2908 1.363 . S
C2909 C2915 1.428 . S
H2910 C2906 0.930 . S
H2911 C2908 0.929 . S
S2912 N2913 1.613 . S
S2912 N2914 1.610 . S
N2913 S2912 1.613 . S
N2913 C2916 1.350 . S
N2914 S2912 1.610 . S
N2914 C2915 1.351 . S
C2915 C2909 1.428 . S
C2915 N2914 1.351 . S
C2915 C2916 1.434 . S
C2916 C2907 1.429 . S
C2916 N2913 1.350 . S
C2916 C2915 1.434 . S
C2917 C2918 1.369 . S
C2917 C2919 1.419 . S
C2917 H2921 0.930 . S
C2918 C2917 1.369 . S
C2918 C2927 1.429 . S
C2919 C2917 1.419 . S
C2919 C2920 1.363 . S
C2919 H2922 0.929 . S
C2920 C2919 1.363 . S
C2920 C2926 1.428 . S
H2921 C2917 0.930 . S
H2922 C2919 0.929 . S
S2923 N2924 1.613 . S
S2923 N2925 1.610 . S
N2924 S2923 1.613 . S
N2924 C2927 1.350 . S
N2925 S2923 1.610 . S
N2925 C2926 1.351 . S
C2926 C2920 1.428 . S
C2926 N2925 1.351 . S
C2926 C2927 1.434 . S
C2927 C2918 1.429 . S
C2927 N2924 1.350 . S
C2927 C2926 1.434 . S
C2928 C2929 1.369 . S
C2928 C2930 1.419 . S
C2928 H2932 0.930 . S
C2929 C2928 1.369 . S
C2929 C2938 1.429 . S
C2930 C2928 1.419 . S
C2930 C2931 1.363 . S
C2930 H2933 0.929 . S
C2931 C2930 1.363 . S
C2931 C2937 1.428 . S
H2932 C2928 0.930 . S
H2933 C2930 0.929 . S
S2934 N2935 1.613 . S
S2934 N2936 1.610 . S
N2935 S2934 1.613 . S
N2935 C2938 1.350 . S
N2936 S2934 1.610 . S
N2936 C2937 1.351 . S
C2937 C2931 1.428 . S
C2937 N2936 1.351 . S
C2937 C2938 1.434 . S
C2938 C2929 1.429 . S
C2938 N2935 1.350 . S
C2938 C2937 1.434 . S
C2939 C2940 1.369 . S
C2939 C2941 1.419 . S
C2939 H2943 0.930 . S
C2940 C2939 1.369 . S
C2940 C2949 1.429 . S
C2941 C2939 1.419 . S
C2941 C2942 1.363 . S
C2941 H2944 0.929 . S
C2942 C2941 1.363 . S
C2942 C2948 1.428 . S
H2943 C2939 0.930 . S
H2944 C2941 0.929 . S
S2945 N2946 1.613 . S
S2945 N2947 1.610 . S
N2946 S2945 1.613 . S
N2946 C2949 1.350 . S
N2947 S2945 1.610 . S
N2947 C2948 1.351 . S
C2948 C2942 1.428 . S
C2948 N2947 1.351 . S
C2948 C2949 1.434 . S
C2949 C2940 1.429 . S
C2949 N2946 1.350 . S
C2949 C2948 1.434 . S
C2950 C2951 1.369 . S
C2950 C2952 1.419 . S
C2950 H2954 0.930 . S
C2951 C2950 1.369 . S
C2951 C2960 1.429 . S
C2952 C2950 1.419 . S
C2952 C2953 1.363 . S
C2952 H2955 0.929 . S
C2953 C2952 1.363 . S
C2953 C2959 1.428 . S
H2954 C2950 0.930 . S
H2955 C2952 0.929 . S
S2956 N2957 1.613 . S
S2956 N2958 1.610 . S
N2957 S2956 1.613 . S
N2957 C2960 1.350 . S
N2958 S2956 1.610 . S
N2958 C2959 1.351 . S
C2959 C2953 1.428 . S
C2959 N2958 1.351 . S
C2959 C2960 1.434 . S
C2960 C2951 1.429 . S
C2960 N2957 1.350 . S
C2960 C2959 1.434 . S
C2961 C2962 1.369 . S
C2961 C2963 1.419 . S
C2961 H2965 0.930 . S
C2962 C2961 1.369 . S
C2962 C2971 1.429 . S
C2963 C2961 1.419 . S
C2963 C2964 1.363 . S
C2963 H2966 0.929 . S
C2964 C2963 1.363 . S
C2964 C2970 1.428 . S
H2965 C2961 0.930 . S
H2966 C2963 0.929 . S
S2967 N2968 1.613 . S
S2967 N2969 1.610 . S
N2968 S2967 1.613 . S
N2968 C2971 1.350 . S
N2969 S2967 1.610 . S
N2969 C2970 1.351 . S
C2970 C2964 1.428 . S
C2970 N2969 1.351 . S
C2970 C2971 1.434 . S
C2971 C2962 1.429 . S
C2971 N2968 1.350 . S
C2971 C2970 1.434 . S
C2972 C2973 1.369 . S
C2972 C2974 1.419 . S
C2972 H2976 0.930 . S
C2973 C2972 1.369 . S
C2973 C2982 1.429 . S
C2974 C2972 1.419 . S
C2974 C2975 1.363 . S
C2974 H2977 0.929 . S
C2975 C2974 1.363 . S
C2975 C2981 1.428 . S
H2976 C2972 0.930 . S
H2977 C2974 0.929 . S
S2978 N2979 1.613 . S
S2978 N2980 1.610 . S
N2979 S2978 1.613 . S
N2979 C2982 1.350 . S
N2980 S2978 1.610 . S
N2980 C2981 1.351 . S
C2981 C2975 1.428 . S
C2981 N2980 1.351 . S
C2981 C2982 1.434 . S
C2982 C2973 1.429 . S
C2982 N2979 1.350 . S
C2982 C2981 1.434 . S
C2983 C2984 1.369 . S
C2983 C2985 1.419 . S
C2983 H2987 0.930 . S
C2984 C2983 1.369 . S
C2984 C2993 1.429 . S
C2985 C2983 1.419 . S
C2985 C2986 1.363 . S
C2985 H2988 0.929 . S
C2986 C2985 1.363 . S
C2986 C2992 1.428 . S
H2987 C2983 0.930 . S
H2988 C2985 0.929 . S
S2989 N2990 1.613 . S
S2989 N2991 1.610 . S
N2990 S2989 1.613 . S
N2990 C2993 1.350 . S
N2991 S2989 1.610 . S
N2991 C2992 1.351 . S
C2992 C2986 1.428 . S
C2992 N2991 1.351 . S
C2992 C2993 1.434 . S
C2993 C2984 1.429 . S
C2993 N2990 1.350 . S
C2993 C2992 1.434 . S
C2994 C2995 1.369 . S
C2994 C2996 1.419 . S
C2994 H2998 0.930 . S
C2995 C2994 1.369 . S
C2995 C3004 1.429 . S
C2996 C2994 1.419 . S
C2996 C2997 1.363 . S
C2996 H2999 0.929 . S
C2997 C2996 1.363 . S
C2997 C3003 1.428 . S
H2998 C2994 0.930 . S
H2999 C2996 0.929 . S
S3000 N3001 1.613 . S
S3000 N3002 1.610 . S
N3001 S3000 1.613 . S
N3001 C3004 1.350 . S
N3002 S3000 1.610 . S
N3002 C3003 1.351 . S
C3003 C2997 1.428 . S
C3003 N3002 1.351 . S
C3003 C3004 1.434 . S
C3004 C2995 1.429 . S
C3004 N3001 1.350 . S
C3004 C3003 1.434 . S
C3005 C3006 1.369 . S
C3005 C3007 1.419 . S
C3005 H3009 0.930 . S
C3006 C3005 1.369 . S
C3006 C3015 1.429 . S
C3007 C3005 1.419 . S
C3007 C3008 1.363 . S
C3007 H3010 0.929 . S
C3008 C3007 1.363 . S
C3008 C3014 1.428 . S
H3009 C3005 0.930 . S
H3010 C3007 0.929 . S
S3011 N3012 1.613 . S
S3011 N3013 1.610 . S
N3012 S3011 1.613 . S
N3012 C3015 1.350 . S
N3013 S3011 1.610 . S
N3013 C3014 1.351 . S
C3014 C3008 1.428 . S
C3014 N3013 1.351 . S
C3014 C3015 1.434 . S
C3015 C3006 1.429 . S
C3015 N3012 1.350 . S
C3015 C3014 1.434 . S
C3016 C3017 1.369 . S
C3016 C3018 1.419 . S
C3016 H3020 0.930 . S
C3017 C3016 1.369 . S
C3017 C3026 1.429 . S
C3018 C3016 1.419 . S
C3018 C3019 1.363 . S
C3018 H3021 0.929 . S
C3019 C3018 1.363 . S
C3019 C3025 1.428 . S
H3020 C3016 0.930 . S
H3021 C3018 0.929 . S
S3022 N3023 1.613 . S
S3022 N3024 1.610 . S
N3023 S3022 1.613 . S
N3023 C3026 1.350 . S
N3024 S3022 1.610 . S
N3024 C3025 1.351 . S
C3025 C3019 1.428 . S
C3025 N3024 1.351 . S
C3025 C3026 1.434 . S
C3026 C3017 1.429 . S
C3026 N3023 1.350 . S
C3026 C3025 1.434 . S
C3027 C3028 1.369 . S
C3027 C3029 1.419 . S
C3027 H3031 0.930 . S
C3028 C3027 1.369 . S
C3028 C3037 1.429 . S
C3029 C3027 1.419 . S
C3029 C3030 1.363 . S
C3029 H3032 0.929 . S
C3030 C3029 1.363 . S
C3030 C3036 1.428 . S
H3031 C3027 0.930 . S
H3032 C3029 0.929 . S
S3033 N3034 1.613 . S
S3033 N3035 1.610 . S
N3034 S3033 1.613 . S
N3034 C3037 1.350 . S
N3035 S3033 1.610 . S
N3035 C3036 1.351 . S
C3036 C3030 1.428 . S
C3036 N3035 1.351 . S
C3036 C3037 1.434 . S
C3037 C3028 1.429 . S
C3037 N3034 1.350 . S
C3037 C3036 1.434 . S
C3038 C3039 1.369 . S
C3038 C3040 1.419 . S
C3038 H3042 0.930 . S
C3039 C3038 1.369 . S
C3039 C3048 1.429 . S
C3040 C3038 1.419 . S
C3040 C3041 1.363 . S
C3040 H3043 0.929 . S
C3041 C3040 1.363 . S
C3041 C3047 1.428 . S
H3042 C3038 0.930 . S
H3043 C3040 0.929 . S
S3044 N3045 1.613 . S
S3044 N3046 1.610 . S
N3045 S3044 1.613 . S
N3045 C3048 1.350 . S
N3046 S3044 1.610 . S
N3046 C3047 1.351 . S
C3047 C3041 1.428 . S
C3047 N3046 1.351 . S
C3047 C3048 1.434 . S
C3048 C3039 1.429 . S
C3048 N3045 1.350 . S
C3048 C3047 1.434 . S
C3049 C3050 1.369 . S
C3049 C3051 1.419 . S
C3049 H3053 0.930 . S
C3050 C3049 1.369 . S
C3050 C3059 1.429 . S
C3051 C3049 1.419 . S
C3051 C3052 1.363 . S
C3051 H3054 0.929 . S
C3052 C3051 1.363 . S
C3052 C3058 1.428 . S
H3053 C3049 0.930 . S
H3054 C3051 0.929 . S
S3055 N3056 1.613 . S
S3055 N3057 1.610 . S
N3056 S3055 1.613 . S
N3056 C3059 1.350 . S
N3057 S3055 1.610 . S
N3057 C3058 1.351 . S
C3058 C3052 1.428 . S
C3058 N3057 1.351 . S
C3058 C3059 1.434 . S
C3059 C3050 1.429 . S
C3059 N3056 1.350 . S
C3059 C3058 1.434 . S
C3060 C3061 1.369 . S
C3060 C3062 1.419 . S
C3060 H3064 0.930 . S
C3061 C3060 1.369 . S
C3061 C3070 1.429 . S
C3062 C3060 1.419 . S
C3062 C3063 1.363 . S
C3062 H3065 0.929 . S
C3063 C3062 1.363 . S
C3063 C3069 1.428 . S
H3064 C3060 0.930 . S
H3065 C3062 0.929 . S
S3066 N3067 1.613 . S
S3066 N3068 1.610 . S
N3067 S3066 1.613 . S
N3067 C3070 1.350 . S
N3068 S3066 1.610 . S
N3068 C3069 1.351 . S
C3069 C3063 1.428 . S
C3069 N3068 1.351 . S
C3069 C3070 1.434 . S
C3070 C3061 1.429 . S
C3070 N3067 1.350 . S
C3070 C3069 1.434 . S
C3071 C3072 1.369 . S
C3071 C3073 1.419 . S
C3071 H3075 0.930 . S
C3072 C3071 1.369 . S
C3072 C3081 1.429 . S
C3073 C3071 1.419 . S
C3073 C3074 1.363 . S
C3073 H3076 0.929 . S
C3074 C3073 1.363 . S
C3074 C3080 1.428 . S
H3075 C3071 0.930 . S
H3076 C3073 0.929 . S
S3077 N3078 1.613 . S
S3077 N3079 1.610 . S
N3078 S3077 1.613 . S
N3078 C3081 1.350 . S
N3079 S3077 1.610 . S
N3079 C3080 1.351 . S
C3080 C3074 1.428 . S
C3080 N3079 1.351 . S
C3080 C3081 1.434 . S
C3081 C3072 1.429 . S
C3081 N3078 1.350 . S
C3081 C3080 1.434 . S
C3082 C3083 1.369 . S
C3082 C3084 1.419 . S
C3082 H3086 0.930 . S
C3083 C3082 1.369 . S
C3083 C3092 1.429 . S
C3084 C3082 1.419 . S
C3084 C3085 1.363 . S
C3084 H3087 0.929 . S
C3085 C3084 1.363 . S
C3085 C3091 1.428 . S
H3086 C3082 0.930 . S
H3087 C3084 0.929 . S
S3088 N3089 1.613 . S
S3088 N3090 1.610 . S
N3089 S3088 1.613 . S
N3089 C3092 1.350 . S
N3090 S3088 1.610 . S
N3090 C3091 1.351 . S
C3091 C3085 1.428 . S
C3091 N3090 1.351 . S
C3091 C3092 1.434 . S
C3092 C3083 1.429 . S
C3092 N3089 1.350 . S
C3092 C3091 1.434 . S
C3093 C3094 1.369 . S
C3093 C3095 1.419 . S
C3093 H3097 0.930 . S
C3094 C3093 1.369 . S
C3094 C3103 1.429 . S
C3095 C3093 1.419 . S
C3095 C3096 1.363 . S
C3095 H3098 0.929 . S
C3096 C3095 1.363 . S
C3096 C3102 1.428 . S
H3097 C3093 0.930 . S
H3098 C3095 0.929 . S
S3099 N3100 1.613 . S
S3099 N3101 1.610 . S
N3100 S3099 1.613 . S
N3100 C3103 1.350 . S
N3101 S3099 1.610 . S
N3101 C3102 1.351 . S
C3102 C3096 1.428 . S
C3102 N3101 1.351 . S
C3102 C3103 1.434 . S
C3103 C3094 1.429 . S
C3103 N3100 1.350 . S
C3103 C3102 1.434 . S
C3104 C3105 1.369 . S
C3104 C3106 1.419 . S
C3104 H3108 0.930 . S
C3105 C3104 1.369 . S
C3105 C3114 1.429 . S
C3106 C3104 1.419 . S
C3106 C3107 1.363 . S
C3106 H3109 0.929 . S
C3107 C3106 1.363 . S
C3107 C3113 1.428 . S
H3108 C3104 0.930 . S
H3109 C3106 0.929 . S
S3110 N3111 1.613 . S
S3110 N3112 1.610 . S
N3111 S3110 1.613 . S
N3111 C3114 1.350 . S
N3112 S3110 1.610 . S
N3112 C3113 1.351 . S
C3113 C3107 1.428 . S
C3113 N3112 1.351 . S
C3113 C3114 1.434 . S
C3114 C3105 1.429 . S
C3114 N3111 1.350 . S
C3114 C3113 1.434 . S
C3115 C3116 1.369 . S
C3115 C3117 1.419 . S
C3115 H3119 0.930 . S
C3116 C3115 1.369 . S
C3116 C3125 1.429 . S
C3117 C3115 1.419 . S
C3117 C3118 1.363 . S
C3117 H3120 0.929 . S
C3118 C3117 1.363 . S
C3118 C3124 1.428 . S
H3119 C3115 0.930 . S
H3120 C3117 0.929 . S
S3121 N3122 1.613 . S
S3121 N3123 1.610 . S
N3122 S3121 1.613 . S
N3122 C3125 1.350 . S
N3123 S3121 1.610 . S
N3123 C3124 1.351 . S
C3124 C3118 1.428 . S
C3124 N3123 1.351 . S
C3124 C3125 1.434 . S
C3125 C3116 1.429 . S
C3125 N3122 1.350 . S
C3125 C3124 1.434 . S
C3126 C3127 1.369 . S
C3126 C3128 1.419 . S
C3126 H3130 0.930 . S
C3127 C3126 1.369 . S
C3127 C3136 1.429 . S
C3128 C3126 1.419 . S
C3128 C3129 1.363 . S
C3128 H3131 0.929 . S
C3129 C3128 1.363 . S
C3129 C3135 1.428 . S
H3130 C3126 0.930 . S
H3131 C3128 0.929 . S
S3132 N3133 1.613 . S
S3132 N3134 1.610 . S
N3133 S3132 1.613 . S
N3133 C3136 1.350 . S
N3134 S3132 1.610 . S
N3134 C3135 1.351 . S
C3135 C3129 1.428 . S
C3135 N3134 1.351 . S
C3135 C3136 1.434 . S
C3136 C3127 1.429 . S
C3136 N3133 1.350 . S
C3136 C3135 1.434 . S
C3137 C3138 1.369 . S
C3137 C3139 1.419 . S
C3137 H3141 0.930 . S
C3138 C3137 1.369 . S
C3138 C3147 1.429 . S
C3139 C3137 1.419 . S
C3139 C3140 1.363 . S
C3139 H3142 0.929 . S
C3140 C3139 1.363 . S
C3140 C3146 1.428 . S
H3141 C3137 0.930 . S
H3142 C3139 0.929 . S
S3143 N3144 1.613 . S
S3143 N3145 1.610 . S
N3144 S3143 1.613 . S
N3144 C3147 1.350 . S
N3145 S3143 1.610 . S
N3145 C3146 1.351 . S
C3146 C3140 1.428 . S
C3146 N3145 1.351 . S
C3146 C3147 1.434 . S
C3147 C3138 1.429 . S
C3147 N3144 1.350 . S
C3147 C3146 1.434 . S
C3148 C3149 1.369 . S
C3148 C3150 1.419 . S
C3148 H3152 0.930 . S
C3149 C3148 1.369 . S
C3149 C3158 1.429 . S
C3150 C3148 1.419 . S
C3150 C3151 1.363 . S
C3150 H3153 0.929 . S
C3151 C3150 1.363 . S
C3151 C3157 1.428 . S
H3152 C3148 0.930 . S
H3153 C3150 0.929 . S
S3154 N3155 1.613 . S
S3154 N3156 1.610 . S
N3155 S3154 1.613 . S
N3155 C3158 1.350 . S
N3156 S3154 1.610 . S
N3156 C3157 1.351 . S
C3157 C3151 1.428 . S
C3157 N3156 1.351 . S
C3157 C3158 1.434 . S
C3158 C3149 1.429 . S
C3158 N3155 1.350 . S
C3158 C3157 1.434 . S
C3159 C3160 1.369 . S
C3159 C3161 1.419 . S
C3159 H3163 0.930 . S
C3160 C3159 1.369 . S
C3160 C3169 1.429 . S
C3161 C3159 1.419 . S
C3161 C3162 1.363 . S
C3161 H3164 0.929 . S
C3162 C3161 1.363 . S
C3162 C3168 1.428 . S
H3163 C3159 0.930 . S
H3164 C3161 0.929 . S
S3165 N3166 1.613 1_545 S
S3165 N3167 1.610 1_545 S
N3166 S3165 1.613 1_565 S
N3166 C3169 1.350 . S
N3167 S3165 1.610 1_565 S
N3167 C3168 1.351 . S
C3168 C3162 1.428 . S
C3168 N3167 1.351 . S
C3168 C3169 1.434 . S
C3169 C3160 1.429 . S
C3169 N3166 1.350 . S
C3169 C3168 1.434 . S
C3170 C3171 1.369 . S
C3170 C3172 1.419 . S
C3170 H3174 0.930 . S
C3171 C3170 1.369 . S
C3171 C3180 1.429 . S
C3172 C3170 1.419 . S
C3172 C3173 1.363 . S
C3172 H3175 0.929 . S
C3173 C3172 1.363 . S
C3173 C3179 1.428 . S
H3174 C3170 0.930 . S
H3175 C3172 0.929 . S
S3176 N3177 1.613 . S
S3176 N3178 1.610 . S
N3177 S3176 1.613 . S
N3177 C3180 1.350 . S
N3178 S3176 1.610 . S
N3178 C3179 1.351 . S
C3179 C3173 1.428 . S
C3179 N3178 1.351 . S
C3179 C3180 1.434 . S
C3180 C3171 1.429 . S
C3180 N3177 1.350 . S
C3180 C3179 1.434 . S
C3181 C3182 1.369 . S
C3181 C3183 1.419 . S
C3181 H3185 0.930 . S
C3182 C3181 1.369 . S
C3182 C3191 1.429 . S
C3183 C3181 1.419 . S
C3183 C3184 1.363 . S
C3183 H3186 0.929 . S
C3184 C3183 1.363 . S
C3184 C3190 1.428 . S
H3185 C3181 0.930 . S
H3186 C3183 0.929 . S
S3187 N3188 1.613 . S
S3187 N3189 1.610 . S
N3188 S3187 1.613 . S
N3188 C3191 1.350 . S
N3189 S3187 1.610 . S
N3189 C3190 1.351 . S
C3190 C3184 1.428 . S
C3190 N3189 1.351 . S
C3190 C3191 1.434 . S
C3191 C3182 1.429 . S
C3191 N3188 1.350 . S
C3191 C3190 1.434 . S
C3192 C3193 1.369 . S
C3192 C3194 1.419 . S
C3192 H3196 0.930 . S
C3193 C3192 1.369 . S
C3193 C3202 1.429 . S
C3194 C3192 1.419 . S
C3194 C3195 1.363 . S
C3194 H3197 0.929 . S
C3195 C3194 1.363 . S
C3195 C3201 1.428 . S
H3196 C3192 0.930 . S
H3197 C3194 0.929 . S
S3198 N3199 1.613 . S
S3198 N3200 1.610 . S
N3199 S3198 1.613 . S
N3199 C3202 1.350 . S
N3200 S3198 1.610 . S
N3200 C3201 1.351 . S
C3201 C3195 1.428 . S
C3201 N3200 1.351 . S
C3201 C3202 1.434 . S
C3202 C3193 1.429 . S
C3202 N3199 1.350 . S
C3202 C3201 1.434 . S
C3203 C3204 1.369 . S
C3203 C3205 1.419 . S
C3203 H3207 0.930 . S
C3204 C3203 1.369 . S
C3204 C3213 1.429 . S
C3205 C3203 1.419 . S
C3205 C3206 1.363 . S
C3205 H3208 0.929 . S
C3206 C3205 1.363 . S
C3206 C3212 1.428 . S
H3207 C3203 0.930 . S
H3208 C3205 0.929 . S
S3209 N3210 1.613 . S
S3209 N3211 1.610 . S
N3210 S3209 1.613 . S
N3210 C3213 1.350 . S
N3211 S3209 1.610 . S
N3211 C3212 1.351 . S
C3212 C3206 1.428 . S
C3212 N3211 1.351 . S
C3212 C3213 1.434 . S
C3213 C3204 1.429 . S
C3213 N3210 1.350 . S
C3213 C3212 1.434 . S
C3214 C3215 1.369 . S
C3214 C3216 1.419 . S
C3214 H3218 0.930 . S
C3215 C3214 1.369 . S
C3215 C3224 1.429 . S
C3216 C3214 1.419 . S
C3216 C3217 1.363 . S
C3216 H3219 0.929 . S
C3217 C3216 1.363 . S
C3217 C3223 1.428 . S
H3218 C3214 0.930 . S
H3219 C3216 0.929 . S
S3220 N3221 1.613 . S
S3220 N3222 1.610 . S
N3221 S3220 1.613 . S
N3221 C3224 1.350 . S
N3222 S3220 1.610 . S
N3222 C3223 1.351 . S
C3223 C3217 1.428 . S
C3223 N3222 1.351 . S
C3223 C3224 1.434 . S
C3224 C3215 1.429 . S
C3224 N3221 1.350 . S
C3224 C3223 1.434 . S
C3225 C3226 1.369 . S
C3225 C3227 1.419 . S
C3225 H3229 0.930 . S
C3226 C3225 1.369 . S
C3226 C3235 1.429 . S
C3227 C3225 1.419 . S
C3227 C3228 1.363 . S
C3227 H3230 0.929 . S
C3228 C3227 1.363 . S
C3228 C3234 1.428 . S
H3229 C3225 0.930 . S
H3230 C3227 0.929 . S
S3231 N3232 1.613 . S
S3231 N3233 1.610 . S
N3232 S3231 1.613 . S
N3232 C3235 1.350 . S
N3233 S3231 1.610 . S
N3233 C3234 1.351 . S
C3234 C3228 1.428 . S
C3234 N3233 1.351 . S
C3234 C3235 1.434 . S
C3235 C3226 1.429 . S
C3235 N3232 1.350 . S
C3235 C3234 1.434 . S
C3236 C3237 1.369 . S
C3236 C3238 1.419 . S
C3236 H3240 0.930 . S
C3237 C3236 1.369 . S
C3237 C3246 1.429 . S
C3238 C3236 1.419 . S
C3238 C3239 1.363 . S
C3238 H3241 0.929 . S
C3239 C3238 1.363 . S
C3239 C3245 1.428 . S
H3240 C3236 0.930 . S
H3241 C3238 0.929 . S
S3242 N3243 1.613 . S
S3242 N3244 1.610 . S
N3243 S3242 1.613 . S
N3243 C3246 1.350 . S
N3244 S3242 1.610 . S
N3244 C3245 1.351 . S
C3245 C3239 1.428 . S
C3245 N3244 1.351 . S
C3245 C3246 1.434 . S
C3246 C3237 1.429 . S
C3246 N3243 1.350 . S
C3246 C3245 1.434 . S
C3247 C3248 1.369 . S
C3247 C3249 1.419 . S
C3247 H3251 0.930 . S
C3248 C3247 1.369 . S
C3248 C3257 1.429 . S
C3249 C3247 1.419 . S
C3249 C3250 1.363 . S
C3249 H3252 0.929 . S
C3250 C3249 1.363 . S
C3250 C3256 1.428 . S
H3251 C3247 0.930 . S
H3252 C3249 0.929 . S
S3253 N3254 1.613 . S
S3253 N3255 1.610 . S
N3254 S3253 1.613 . S
N3254 C3257 1.350 . S
N3255 S3253 1.610 . S
N3255 C3256 1.351 . S
C3256 C3250 1.428 . S
C3256 N3255 1.351 . S
C3256 C3257 1.434 . S
C3257 C3248 1.429 . S
C3257 N3254 1.350 . S
C3257 C3256 1.434 . S
C3258 C3259 1.369 . S
C3258 C3260 1.419 . S
C3258 H3262 0.930 . S
C3259 C3258 1.369 . S
C3259 C3268 1.429 . S
C3260 C3258 1.419 . S
C3260 C3261 1.363 . S
C3260 H3263 0.929 . S
C3261 C3260 1.363 . S
C3261 C3267 1.428 . S
H3262 C3258 0.930 . S
H3263 C3260 0.929 . S
S3264 N3265 1.613 . S
S3264 N3266 1.610 . S
N3265 S3264 1.613 . S
N3265 C3268 1.350 . S
N3266 S3264 1.610 . S
N3266 C3267 1.351 . S
C3267 C3261 1.428 . S
C3267 N3266 1.351 . S
C3267 C3268 1.434 . S
C3268 C3259 1.429 . S
C3268 N3265 1.350 . S
C3268 C3267 1.434 . S
C3269 C3270 1.369 . S
C3269 C3271 1.419 . S
C3269 H3273 0.930 . S
C3270 C3269 1.369 . S
C3270 C3279 1.429 . S
C3271 C3269 1.419 . S
C3271 C3272 1.363 . S
C3271 H3274 0.929 . S
C3272 C3271 1.363 . S
C3272 C3278 1.428 . S
H3273 C3269 0.930 . S
H3274 C3271 0.929 . S
S3275 N3276 1.613 . S
S3275 N3277 1.610 . S
N3276 S3275 1.613 . S
N3276 C3279 1.350 . S
N3277 S3275 1.610 . S
N3277 C3278 1.351 . S
C3278 C3272 1.428 . S
C3278 N3277 1.351 . S
C3278 C3279 1.434 . S
C3279 C3270 1.429 . S
C3279 N3276 1.350 . S
C3279 C3278 1.434 . S
C3280 C3281 1.369 . S
C3280 C3282 1.419 . S
C3280 H3284 0.930 . S
C3281 C3280 1.369 . S
C3281 C3290 1.429 . S
C3282 C3280 1.419 . S
C3282 C3283 1.363 . S
C3282 H3285 0.929 . S
C3283 C3282 1.363 . S
C3283 C3289 1.428 . S
H3284 C3280 0.930 . S
H3285 C3282 0.929 . S
S3286 N3287 1.613 . S
S3286 N3288 1.610 . S
N3287 S3286 1.613 . S
N3287 C3290 1.350 . S
N3288 S3286 1.610 . S
N3288 C3289 1.351 . S
C3289 C3283 1.428 . S
C3289 N3288 1.351 . S
C3289 C3290 1.434 . S
C3290 C3281 1.429 . S
C3290 N3287 1.350 . S
C3290 C3289 1.434 . S
C3291 C3292 1.369 . S
C3291 C3293 1.419 . S
C3291 H3295 0.930 . S
C3292 C3291 1.369 . S
C3292 C3301 1.429 . S
C3293 C3291 1.419 . S
C3293 C3294 1.363 . S
C3293 H3296 0.929 . S
C3294 C3293 1.363 . S
C3294 C3300 1.428 . S
H3295 C3291 0.930 . S
H3296 C3293 0.929 . S
S3297 N3298 1.613 . S
S3297 N3299 1.610 . S
N3298 S3297 1.613 . S
N3298 C3301 1.350 . S
N3299 S3297 1.610 . S
N3299 C3300 1.351 . S
C3300 C3294 1.428 . S
C3300 N3299 1.351 . S
C3300 C3301 1.434 . S
C3301 C3292 1.429 . S
C3301 N3298 1.350 . S
C3301 C3300 1.434 . S
C3302 C3303 1.369 . S
C3302 C3304 1.419 . S
C3302 H3306 0.930 . S
C3303 C3302 1.369 . S
C3303 C3312 1.429 . S
C3304 C3302 1.419 . S
C3304 C3305 1.363 . S
C3304 H3307 0.929 . S
C3305 C3304 1.363 . S
C3305 C3311 1.428 . S
H3306 C3302 0.930 . S
H3307 C3304 0.929 . S
S3308 N3309 1.613 . S
S3308 N3310 1.610 . S
N3309 S3308 1.613 . S
N3309 C3312 1.350 . S
N3310 S3308 1.610 . S
N3310 C3311 1.351 . S
C3311 C3305 1.428 . S
C3311 N3310 1.351 . S
C3311 C3312 1.434 . S
C3312 C3303 1.429 . S
C3312 N3309 1.350 . S
C3312 C3311 1.434 . S
C3313 C3314 1.369 . S
C3313 C3315 1.419 . S
C3313 H3317 0.930 . S
C3314 C3313 1.369 . S
C3314 C3323 1.429 . S
C3315 C3313 1.419 . S
C3315 C3316 1.363 . S
C3315 H3318 0.929 . S
C3316 C3315 1.363 . S
C3316 C3322 1.428 . S
H3317 C3313 0.930 . S
H3318 C3315 0.929 . S
S3319 N3320 1.613 . S
S3319 N3321 1.610 . S
N3320 S3319 1.613 . S
N3320 C3323 1.350 . S
N3321 S3319 1.610 . S
N3321 C3322 1.351 . S
C3322 C3316 1.428 . S
C3322 N3321 1.351 . S
C3322 C3323 1.434 . S
C3323 C3314 1.429 . S
C3323 N3320 1.350 . S
C3323 C3322 1.434 . S
C3324 C3325 1.369 . S
C3324 C3326 1.419 . S
C3324 H3328 0.930 . S
C3325 C3324 1.369 . S
C3325 C3334 1.429 . S
C3326 C3324 1.419 . S
C3326 C3327 1.363 . S
C3326 H3329 0.929 . S
C3327 C3326 1.363 . S
C3327 C3333 1.428 . S
H3328 C3324 0.930 . S
H3329 C3326 0.929 . S
S3330 N3331 1.613 . S
S3330 N3332 1.610 . S
N3331 S3330 1.613 . S
N3331 C3334 1.350 . S
N3332 S3330 1.610 . S
N3332 C3333 1.351 . S
C3333 C3327 1.428 . S
C3333 N3332 1.351 . S
C3333 C3334 1.434 . S
C3334 C3325 1.429 . S
C3334 N3331 1.350 . S
C3334 C3333 1.434 . S
C3335 C3336 1.369 . S
C3335 C3337 1.419 . S
C3335 H3339 0.930 . S
C3336 C3335 1.369 . S
C3336 C3345 1.429 . S
C3337 C3335 1.419 . S
C3337 C3338 1.363 . S
C3337 H3340 0.929 . S
C3338 C3337 1.363 . S
C3338 C3344 1.428 . S
H3339 C3335 0.930 . S
H3340 C3337 0.929 . S
S3341 N3342 1.613 . S
S3341 N3343 1.610 . S
N3342 S3341 1.613 . S
N3342 C3345 1.350 . S
N3343 S3341 1.610 . S
N3343 C3344 1.351 . S
C3344 C3338 1.428 . S
C3344 N3343 1.351 . S
C3344 C3345 1.434 . S
C3345 C3336 1.429 . S
C3345 N3342 1.350 . S
C3345 C3344 1.434 . S
C3346 C3347 1.369 . S
C3346 C3348 1.419 . S
C3346 H3350 0.930 . S
C3347 C3346 1.369 . S
C3347 C3356 1.429 . S
C3348 C3346 1.419 . S
C3348 C3349 1.363 . S
C3348 H3351 0.929 . S
C3349 C3348 1.363 . S
C3349 C3355 1.428 . S
H3350 C3346 0.930 . S
H3351 C3348 0.929 . S
S3352 N3353 1.613 . S
S3352 N3354 1.610 . S
N3353 S3352 1.613 . S
N3353 C3356 1.350 . S
N3354 S3352 1.610 . S
N3354 C3355 1.351 . S
C3355 C3349 1.428 . S
C3355 N3354 1.351 . S
C3355 C3356 1.434 . S
C3356 C3347 1.429 . S
C3356 N3353 1.350 . S
C3356 C3355 1.434 . S
C3357 C3358 1.369 . S
C3357 C3359 1.419 . S
C3357 H3361 0.930 . S
C3358 C3357 1.369 . S
C3358 C3367 1.429 . S
C3359 C3357 1.419 . S
C3359 C3360 1.363 . S
C3359 H3362 0.929 . S
C3360 C3359 1.363 . S
C3360 C3366 1.428 . S
H3361 C3357 0.930 . S
H3362 C3359 0.929 . S
S3363 N3364 1.613 . S
S3363 N3365 1.610 . S
N3364 S3363 1.613 . S
N3364 C3367 1.350 . S
N3365 S3363 1.610 . S
N3365 C3366 1.351 . S
C3366 C3360 1.428 . S
C3366 N3365 1.351 . S
C3366 C3367 1.434 . S
C3367 C3358 1.429 . S
C3367 N3364 1.350 . S
C3367 C3366 1.434 . S
C3368 C3369 1.369 . S
C3368 C3370 1.419 . S
C3368 H3372 0.930 . S
C3369 C3368 1.369 . S
C3369 C3378 1.429 . S
C3370 C3368 1.419 . S
C3370 C3371 1.363 . S
C3370 H3373 0.929 . S
C3371 C3370 1.363 . S
C3371 C3377 1.428 . S
H3372 C3368 0.930 . S
H3373 C3370 0.929 . S
S3374 N3375 1.613 . S
S3374 N3376 1.610 . S
N3375 S3374 1.613 . S
N3375 C3378 1.350 . S
N3376 S3374 1.610 . S
N3376 C3377 1.351 . S
C3377 C3371 1.428 . S
C3377 N3376 1.351 . S
C3377 C3378 1.434 . S
C3378 C3369 1.429 . S
C3378 N3375 1.350 . S
C3378 C3377 1.434 . S
C3379 C3380 1.369 . S
C3379 C3381 1.419 . S
C3379 H3383 0.930 . S
C3380 C3379 1.369 . S
C3380 C3389 1.429 . S
C3381 C3379 1.419 . S
C3381 C3382 1.363 . S
C3381 H3384 0.929 . S
C3382 C3381 1.363 . S
C3382 C3388 1.428 . S
H3383 C3379 0.930 . S
H3384 C3381 0.929 . S
S3385 N3386 1.613 . S
S3385 N3387 1.610 . S
N3386 S3385 1.613 . S
N3386 C3389 1.350 . S
N3387 S3385 1.610 . S
N3387 C3388 1.351 . S
C3388 C3382 1.428 . S
C3388 N3387 1.351 . S
C3388 C3389 1.434 . S
C3389 C3380 1.429 . S
C3389 N3386 1.350 . S
C3389 C3388 1.434 . S
C3390 C3391 1.369 . S
C3390 C3392 1.419 . S
C3390 H3394 0.930 . S
C3391 C3390 1.369 . S
C3391 C3400 1.429 . S
C3392 C3390 1.419 . S
C3392 C3393 1.363 . S
C3392 H3395 0.929 . S
C3393 C3392 1.363 . S
C3393 C3399 1.428 . S
H3394 C3390 0.930 . S
H3395 C3392 0.929 . S
S3396 N3397 1.613 . S
S3396 N3398 1.610 . S
N3397 S3396 1.613 . S
N3397 C3400 1.350 . S
N3398 S3396 1.610 . S
N3398 C3399 1.351 . S
C3399 C3393 1.428 . S
C3399 N3398 1.351 . S
C3399 C3400 1.434 . S
C3400 C3391 1.429 . S
C3400 N3397 1.350 . S
C3400 C3399 1.434 . S
C3401 C3402 1.369 . S
C3401 C3403 1.419 . S
C3401 H3405 0.930 . S
C3402 C3401 1.369 . S
C3402 C3411 1.429 . S
C3403 C3401 1.419 . S
C3403 C3404 1.363 . S
C3403 H3406 0.929 . S
C3404 C3403 1.363 . S
C3404 C3410 1.428 . S
H3405 C3401 0.930 . S
H3406 C3403 0.929 . S
S3407 N3408 1.613 . S
S3407 N3409 1.610 . S
N3408 S3407 1.613 . S
N3408 C3411 1.350 . S
N3409 S3407 1.610 . S
N3409 C3410 1.351 . S
C3410 C3404 1.428 . S
C3410 N3409 1.351 . S
C3410 C3411 1.434 . S
C3411 C3402 1.429 . S
C3411 N3408 1.350 . S
C3411 C3410 1.434 . S
C3412 C3413 1.369 . S
C3412 C3414 1.419 . S
C3412 H3416 0.930 . S
C3413 C3412 1.369 . S
C3413 C3422 1.429 . S
C3414 C3412 1.419 . S
C3414 C3415 1.363 . S
C3414 H3417 0.929 . S
C3415 C3414 1.363 . S
C3415 C3421 1.428 . S
H3416 C3412 0.930 . S
H3417 C3414 0.929 . S
S3418 N3419 1.613 . S
S3418 N3420 1.610 . S
N3419 S3418 1.613 . S
N3419 C3422 1.350 . S
N3420 S3418 1.610 . S
N3420 C3421 1.351 . S
C3421 C3415 1.428 . S
C3421 N3420 1.351 . S
C3421 C3422 1.434 . S
C3422 C3413 1.429 . S
C3422 N3419 1.350 . S
C3422 C3421 1.434 . S
C3423 C3424 1.369 . S
C3423 C3425 1.419 . S
C3423 H3427 0.930 . S
C3424 C3423 1.369 . S
C3424 C3433 1.429 . S
C3425 C3423 1.419 . S
C3425 C3426 1.363 . S
C3425 H3428 0.929 . S
C3426 C3425 1.363 . S
C3426 C3432 1.428 . S
H3427 C3423 0.930 . S
H3428 C3425 0.929 . S
S3429 N3430 1.613 . S
S3429 N3431 1.610 . S
N3430 S3429 1.613 . S
N3430 C3433 1.350 . S
N3431 S3429 1.610 . S
N3431 C3432 1.351 . S
C3432 C3426 1.428 . S
C3432 N3431 1.351 . S
C3432 C3433 1.434 . S
C3433 C3424 1.429 . S
C3433 N3430 1.350 . S
C3433 C3432 1.434 . S
C3434 C3435 1.369 . S
C3434 C3436 1.419 . S
C3434 H3438 0.930 . S
C3435 C3434 1.369 . S
C3435 C3444 1.429 . S
C3436 C3434 1.419 . S
C3436 C3437 1.363 . S
C3436 H3439 0.929 . S
C3437 C3436 1.363 . S
C3437 C3443 1.428 . S
H3438 C3434 0.930 . S
H3439 C3436 0.929 . S
S3440 N3441 1.613 . S
S3440 N3442 1.610 . S
N3441 S3440 1.613 . S
N3441 C3444 1.350 . S
N3442 S3440 1.610 . S
N3442 C3443 1.351 . S
C3443 C3437 1.428 . S
C3443 N3442 1.351 . S
C3443 C3444 1.434 . S
C3444 C3435 1.429 . S
C3444 N3441 1.350 . S
C3444 C3443 1.434 . S
C3445 C3446 1.369 . S
C3445 C3447 1.419 . S
C3445 H3449 0.930 . S
C3446 C3445 1.369 . S
C3446 C3455 1.429 . S
C3447 C3445 1.419 . S
C3447 C3448 1.363 . S
C3447 H3450 0.929 . S
C3448 C3447 1.363 . S
C3448 C3454 1.428 . S
H3449 C3445 0.930 . S
H3450 C3447 0.929 . S
S3451 N3452 1.613 . S
S3451 N3453 1.610 . S
N3452 S3451 1.613 . S
N3452 C3455 1.350 . S
N3453 S3451 1.610 . S
N3453 C3454 1.351 . S
C3454 C3448 1.428 . S
C3454 N3453 1.351 . S
C3454 C3455 1.434 . S
C3455 C3446 1.429 . S
C3455 N3452 1.350 . S
C3455 C3454 1.434 . S
C1345 C7 1.393 . S
C1347 C427 1.391 . S
C1356 C777 1.390 . S
C1358 C21 1.392 . S
C1367 C35 1.392 . S
C1369 C399 1.393 . S
C1378 C49 1.387 . S
C1380 C749 1.389 . S
C1389 C371 1.389 . S
C1391 C63 1.388 . S
C1400 C77 1.392 . S
C1402 C721 1.393 . S
C1411 C343 1.391 . S
C1413 C91 1.392 . S
C1422 C105 1.393 . S
C1424 C693 1.390 . S
C1433 C483 1.388 . S
C1435 C119 1.390 . S
C1444 C133 1.393 . S
C1446 C833 1.391 . S
C1455 C147 1.386 . S
C1457 C455 1.388 . S
C1466 C161 1.393 . S
C1468 C805 1.391 . S
C1477 C175 1.393 . S
C1479 C539 1.392 . S
C1488 C889 1.391 . S
C1490 C189 1.389 . S
C1499 C511 1.387 . S
C1501 C203 1.390 . S
C1510 C217 1.387 . S
C1512 C861 1.387 . S
C1521 C917 1.388 . S
C1523 C231 1.391 . S
C1532 C903 1.387 . S
C1534 C245 1.387 . S
C1543 C259 1.393 . S
C1545 C1001 1.391 . S
C1554 C1309 1.391 . S
C1556 C273 1.389 . S
C1565 C651 1.390 . S
C1567 C287 1.389 . S
C1576 C301 1.389 . S
C1578 C1281 1.388 . S
C1587 C315 1.389 . S
C1589 C623 1.391 . S
C1598 C329 1.394 . S
C1600 C931 1.392 . S
C1609 C357 1.388 . S
C1611 C1113 1.390 . S
C1620 C385 1.389 . S
C1622 C1085 1.387 . S
C1631 C413 1.393 . S
C1633 C1057 1.390 . S
C1642 C441 1.391 . S
C1644 C1029 1.389 . S
C1653 C1169 1.390 . S
C1655 C469 1.389 . S
C1664 C497 1.390 . S
C1666 C1141 1.388 . S
C1675 C1225 1.390 . S
C1677 C525 1.388 . S
C1686 C553 1.394 . S
C1688 C1197 1.392 . S
C1697 C567 1.387 . S
C1699 C1253 1.389 . S
C1708 C581 1.391 . S
C1710 C1239 1.392 . S
C1719 C595 1.393 . S
C1721 C1337 1.393 . S
C1730 C973 1.393 . S
C1732 C609 1.393 . S
C1741 C945 1.390 . S
C1743 C637 1.392 . S
C1752 C665 1.394 . S
C1754 C1267 1.392 . S
C1763 C679 1.386 . S
C1765 C1099 1.387 . S
C1774 C1071 1.392 . S
C1776 C707 1.390 . S
C1785 C735 1.391 . S
C1787 C1043 1.389 . S
C1796 C763 1.386 . S
C1798 C1015 1.388 . S
C1807 C1155 1.387 . S
C1809 C791 1.389 . S
C1818 C1127 1.387 . S
C1820 C819 1.390 . S
C1829 C847 1.394 . S
C1831 C1211 1.392 . S
C1840 C1183 1.387 . S
C1842 C875 1.390 . S
C1851 C959 1.390 . S
C1853 C1323 1.388 . S
C1862 C987 1.387 . S
C1864 C1295 1.387 . S
C1873 C8 1.434 . S
C1875 C778 1.434 . S
C1884 C22 1.434 . S
C1886 C400 1.432 . S
C1895 C36 1.430 . S
C1897 C750 1.431 . S
C1906 C428 1.430 . S
C1908 C50 1.431 . S
C1917 C64 1.432 . S
C1919 C358 1.431 . S
C1928 C78 1.430 . S
C1930 C708 1.431 . S
C1939 C92 1.434 . S
C1941 C386 1.433 . S
C1950 C680 1.432 . S
C1952 C106 1.431 . S
C1961 C120 1.433 . S
C1963 C288 1.431 . S
C1972 C134 1.434 . S
C1974 C1254 1.432 . S
C1983 C1268 1.430 . S
C1985 C148 1.431 . S
C1994 C162 1.434 . S
C1996 C1282 1.433 . S
C2005 C1002 1.432 . S
C2007 C176 1.433 . S
C2016 C1310 1.430 . S
C2018 C190 1.431 . S
C2027 C204 1.434 . S
C2029 C988 1.434 . S
C2038 C904 1.430 . S
C2040 C218 1.431 . S
C2049 C890 1.432 . S
C2051 C232 1.431 . S
C2060 C1142 1.430 . S
C2062 C246 1.431 . S
C2071 C260 1.430 . S
C2073 C1156 1.432 . S
C2082 C274 1.432 . S
C2084 C1170 1.431 . S
C2093 C302 1.434 . S
C2095 C1198 1.434 . S
C2104 C316 1.430 . S
C2106 C876 1.431 . S
C2115 C848 1.433 . S
C2117 C330 1.434 . S
C2126 C344 1.434 . S
C2128 C1114 1.433 . S
C2137 C1086 1.430 . S
C2139 C372 1.432 . S
C2148 C1044 1.430 . S
C2150 C414 1.431 . S
C2159 C442 1.430 . S
C2161 C1016 1.431 . S
C2170 C456 1.430 . S
C2172 C624 1.431 . S
C2181 C470 1.434 . S
C2183 C918 1.433 . S
C2192 C484 1.431 . S
C2194 C932 1.433 . S
C2203 C498 1.434 . S
C2205 C946 1.432 . S
C2214 C512 1.434 . S
C2216 C1338 1.434 . S
C2225 C974 1.432 . S
C2227 C526 1.431 . S
C2236 C1324 1.430 . S
C2238 C540 1.431 . S
C2247 C1240 1.430 . S
C2249 C554 1.432 . S
C2258 C1226 1.434 . S
C2260 C568 1.433 . S
C2269 C582 1.431 . S
C2271 C806 1.433 . S
C2280 C596 1.431 . S
C2282 C820 1.431 . S
C2291 C610 1.431 . S
C2293 C834 1.433 . S
C2302 C862 1.433 . S
C2304 C638 1.434 . S
C2313 C1212 1.434 . S
C2315 C652 1.433 . S
C2324 C1184 1.431 . S
C2326 C666 1.431 . S
C2335 C694 1.433 . S
C2337 C1072 1.434 . S
C2346 C722 1.430 . S
C2348 C1100 1.431 . S
C2357 C1030 1.430 . S
C2359 C736 1.431 . S
C2368 C1058 1.430 . S
C2370 C764 1.431 . S
C2379 C960 1.430 . S
C2381 C792 1.431 . S
C2390 C1296 1.434 . S
C2392 C1128 1.433 . S
C2401 C9 1.215 . S
C2403 C1305 1.358 . S
C2412 C23 1.201 . S
C2414 C983 1.358 . S
C2423 C899 1.358 . S
C2425 C37 1.214 . S
C2434 C997 1.360 . S
C2436 C51 1.209 . S
C2445 C65 1.215 . S
C2447 C269 1.354 . S
C2456 C79 1.214 . S
C2458 C1291 1.354 . S
C2467 C241 1.353 . S
C2469 C93 1.212 . S
C2478 C255 1.356 . S
C2480 C107 1.205 . S
C2489 C395 1.359 . S
C2491 C121 1.212 . S
C2500 C135 1.210 . S
C2502 C745 1.359 . S
C2511 C149 1.207 . S
C2513 C423 1.359 . S
C2522 C163 1.211 . S
C2524 C773 1.359 . S
C2533 C339 1.359 . S
C2535 C177 1.204 . S
C2544 C191 1.204 . S
C2546 C689 1.356 . S
C2555 C367 1.359 . S
C2557 C205 1.203 . S
C2566 C219 1.217 . S
C2568 C717 1.354 . S
C2577 C233 1.201 . S
C2579 C1207 1.358 . S
C2588 C479 1.353 . S
C2590 C247 1.216 . S
C2599 C261 1.214 . S
C2601 C829 1.358 . S
C2610 C451 1.360 . S
C2612 C275 1.206 . S
C2621 C289 1.218 . S
C2623 C465 1.356 . S
C2632 C843 1.355 . S
C2634 C303 1.217 . S
C2643 C185 1.357 . S
C2645 C317 1.215 . S
C2654 C213 1.359 . S
C2656 C331 1.213 . S
C2665 C969 1.353 . S
C2667 C345 1.210 . S
C2676 C359 1.206 . S
C2678 C1319 1.355 . S
C2687 C1235 1.354 . S
C2689 C373 1.217 . S
C2698 C387 1.218 . S
C2700 C1333 1.354 . S
C2709 C605 1.353 . S
C2711 C401 1.216 . S
C2720 C955 1.356 . S
C2722 C415 1.217 . S
C2731 C429 1.201 . S
C2733 C577 1.357 . S
C2742 C443 1.218 . S
C2744 C591 1.354 . S
C2753 C457 1.201 . S
C2755 C59 1.358 . S
C2764 C471 1.201 . S
C2766 C1081 1.358 . S
C2775 C87 1.358 . S
C2777 C485 1.203 . S
C2786 C499 1.202 . S
C2788 C1109 1.357 . S
C2797 C3 1.359 . S
C2799 C513 1.212 . S
C2808 C527 1.213 . S
C2810 C1025 1.354 . S
C2819 C31 1.353 . S
C2821 C541 1.211 . S
C2830 C1053 1.354 . S
C2832 C555 1.217 . S
C2841 C569 1.212 . S
C2843 C871 1.358 . S
C2852 C583 1.210 . S
C2854 C143 1.354 . S
C2863 C1165 1.353 . S
C2865 C597 1.216 . S
C2874 C611 1.208 . S
C2876 C115 1.354 . S
C2885 C129 1.359 . S
C2887 C625 1.204 . S
C2896 C639 1.213 . S
C2898 C1179 1.354 . S
C2907 C521 1.354 . S
C2909 C653 1.208 . S
C2918 C667 1.214 . S
C2920 C549 1.358 . S
C2929 C633 1.357 . S
C2931 C681 1.203 . S
C2940 C695 1.218 . S
C2942 C311 1.354 . S
C2951 C709 1.209 . S
C2953 C227 1.354 . S
C2962 C723 1.204 . S
C2964 C325 1.356 . S
C2973 C737 1.213 . S
C2975 C941 1.358 . S
C2984 C619 1.359 . S
C2986 C751 1.203 . S
C2995 C913 1.358 . S
C2997 C765 1.203 . S
C3006 C779 1.201 . S
C3008 C927 1.358 . S
C3017 C1067 1.357 . S
C3019 C793 1.203 . S
C3028 C73 1.356 . S
C3030 C807 1.217 . S
C3039 C1095 1.353 . S
C3041 C821 1.216 . S
C3050 C835 1.203 . S
C3052 C101 1.359 . S
C3061 C1011 1.357 . S
C3063 C849 1.203 . S
C3072 C863 1.217 . S
C3074 C17 1.354 . S
C3083 C1039 1.360 . S
C3085 C877 1.206 . S
C3094 C45 1.360 . S
C3096 C891 1.206 . S
C3105 C535 1.353 . S
C3107 C905 1.215 . S
C3116 C919 1.203 . S
C3118 C1151 1.359 . S
C3127 C933 1.201 . S
C3129 C157 1.358 . S
C3138 C1123 1.357 . S
C3140 C947 1.215 . S
C3149 C961 1.207 . S
C3151 C1137 1.355 . S
C3160 C171 1.360 . S
C3162 C975 1.207 . S
C3171 C857 1.354 . S
C3173 C989 1.208 . S
C3182 C1003 1.205 . S
C3184 C885 1.355 . S
C3193 C1017 1.218 . S
C3195 C297 1.354 . S
C3204 C647 1.357 . S
C3206 C1031 1.215 . S
C3215 C563 1.356 . S
C3217 C1045 1.217 . S
C3226 C1059 1.214 . S
C3228 C661 1.354 . S
C3237 C1073 1.208 . S
C3239 C1277 1.359 . S
C3248 C283 1.354 . S
C3250 C1087 1.217 . S
C3259 C1249 1.360 . S
C3261 C1101 1.209 . S
C3270 C1263 1.355 . S
C3272 C1115 1.217 . S
C3281 C731 1.354 . S
C3283 C1129 1.208 . S
C3292 C1143 1.206 . S
C3294 C409 1.359 . S
C3303 C1157 1.218 . S
C3305 C759 1.357 . S
C3314 C1171 1.203 . S
C3316 C437 1.356 . S
C3325 C675 1.358 . S
C3327 C1185 1.203 . S
C3336 C1199 1.206 . S
C3338 C353 1.355 . S
C3347 C1213 1.211 . S
C3349 C703 1.354 . S
C3358 C1227 1.201 . S
C3360 C381 1.358 . S
C3369 C199 1.355 . S
C3371 C1241 1.217 . S
C3380 C1255 1.216 . S
C3382 C815 1.357 . S
C3391 C1269 1.201 . S
C3393 C493 1.358 . S
C3402 C1283 1.213 . S
C3404 C787 1.354 . S
C3413 C1297 1.201 . S
C3415 C801 1.357 . S
C3424 C507 1.358 . S
C3426 C1311 1.203 . S
C3435 C1193 1.357 . S
C3437 C1325 1.215 . S
C3446 C1221 1.358 . S
C3448 C1339 1.203 . S
