# Generated by pormake.
# Topology mer, (4)-cn, num edge types: 1
# Building blocks:
#     Node 0, Type 0, BuildingBlock: AZAVOO_clean_sbu_0, # of connection points: 4
#     Node 1, Type 0, BuildingBlock: AZAVOO_clean_sbu_0, # of connection points: 4
#     Node 2, Type 0, BuildingBlock: AZAVOO_clean_sbu_0, # of connection points: 4
#     Node 3, Type 0, BuildingBlock: AZAVOO_clean_sbu_0, # of connection points: 4
#     Node 4, Type 0, BuildingBlock: AZAVOO_clean_sbu_0, # of connection points: 4
#     Node 5, Type 0, BuildingBlock: AZAVOO_clean_sbu_0, # of connection points: 4
#     Node 6, Type 0, BuildingBlock: AZAVOO_clean_sbu_0, # of connection points: 4
#     Node 7, Type 0, BuildingBlock: AZAVOO_clean_sbu_0, # of connection points: 4
#     Node 8, Type 0, BuildingBlock: AZAVOO_clean_sbu_0, # of connection points: 4
#     Node 9, Type 0, BuildingBlock: AZAVOO_clean_sbu_0, # of connection points: 4
#     Node 10, Type 0, BuildingBlock: AZAVOO_clean_sbu_0, # of connection points: 4
#     Node 11, Type 0, BuildingBlock: AZAVOO_clean_sbu_0, # of connection points: 4
#     Node 12, Type 0, BuildingBlock: AZAVOO_clean_sbu_0, # of connection points: 4
#     Node 13, Type 0, BuildingBlock: AZAVOO_clean_sbu_0, # of connection points: 4
#     Node 14, Type 0, BuildingBlock: AZAVOO_clean_sbu_0, # of connection points: 4
#     Node 15, Type 0, BuildingBlock: AZAVOO_clean_sbu_0, # of connection points: 4
#     Node 16, Type 0, BuildingBlock: AZAVOO_clean_sbu_0, # of connection points: 4
#     Node 17, Type 0, BuildingBlock: AZAVOO_clean_sbu_0, # of connection points: 4
#     Node 18, Type 0, BuildingBlock: AZAVOO_clean_sbu_0, # of connection points: 4
#     Node 19, Type 0, BuildingBlock: AZAVOO_clean_sbu_0, # of connection points: 4
#     Node 20, Type 0, BuildingBlock: AZAVOO_clean_sbu_0, # of connection points: 4
#     Node 21, Type 0, BuildingBlock: AZAVOO_clean_sbu_0, # of connection points: 4
#     Node 22, Type 0, BuildingBlock: AZAVOO_clean_sbu_0, # of connection points: 4
#     Node 23, Type 0, BuildingBlock: AZAVOO_clean_sbu_0, # of connection points: 4
#     Node 24, Type 0, BuildingBlock: AZAVOO_clean_sbu_0, # of connection points: 4
#     Node 25, Type 0, BuildingBlock: AZAVOO_clean_sbu_0, # of connection points: 4
#     Node 26, Type 0, BuildingBlock: AZAVOO_clean_sbu_0, # of connection points: 4
#     Node 27, Type 0, BuildingBlock: AZAVOO_clean_sbu_0, # of connection points: 4
#     Node 28, Type 0, BuildingBlock: AZAVOO_clean_sbu_0, # of connection points: 4
#     Node 29, Type 0, BuildingBlock: AZAVOO_clean_sbu_0, # of connection points: 4
#     Node 30, Type 0, BuildingBlock: AZAVOO_clean_sbu_0, # of connection points: 4
#     Node 31, Type 0, BuildingBlock: AZAVOO_clean_sbu_0, # of connection points: 4
#     Edge 32, Type (0, 0), BuildingBlock: KIFKEQ_clean_linker_1, # of connection points: 2
#     Edge 33, Type (0, 0), BuildingBlock: KIFKEQ_clean_linker_1, # of connection points: 2
#     Edge 34, Type (0, 0), BuildingBlock: KIFKEQ_clean_linker_1, # of connection points: 2
#     Edge 35, Type (0, 0), BuildingBlock: KIFKEQ_clean_linker_1, # of connection points: 2
#     Edge 36, Type (0, 0), BuildingBlock: KIFKEQ_clean_linker_1, # of connection points: 2
#     Edge 37, Type (0, 0), BuildingBlock: KIFKEQ_clean_linker_1, # of connection points: 2
#     Edge 38, Type (0, 0), BuildingBlock: KIFKEQ_clean_linker_1, # of connection points: 2
#     Edge 39, Type (0, 0), BuildingBlock: KIFKEQ_clean_linker_1, # of connection points: 2
#     Edge 40, Type (0, 0), BuildingBlock: KIFKEQ_clean_linker_1, # of connection points: 2
#     Edge 41, Type (0, 0), BuildingBlock: KIFKEQ_clean_linker_1, # of connection points: 2
#     Edge 42, Type (0, 0), BuildingBlock: KIFKEQ_clean_linker_1, # of connection points: 2
#     Edge 43, Type (0, 0), BuildingBlock: KIFKEQ_clean_linker_1, # of connection points: 2
#     Edge 44, Type (0, 0), BuildingBlock: KIFKEQ_clean_linker_1, # of connection points: 2
#     Edge 45, Type (0, 0), BuildingBlock: KIFKEQ_clean_linker_1, # of connection points: 2
#     Edge 46, Type (0, 0), BuildingBlock: KIFKEQ_clean_linker_1, # of connection points: 2
#     Edge 47, Type (0, 0), BuildingBlock: KIFKEQ_clean_linker_1, # of connection points: 2
#     Edge 48, Type (0, 0), BuildingBlock: KIFKEQ_clean_linker_1, # of connection points: 2
#     Edge 49, Type (0, 0), BuildingBlock: KIFKEQ_clean_linker_1, # of connection points: 2
#     Edge 50, Type (0, 0), BuildingBlock: KIFKEQ_clean_linker_1, # of connection points: 2
#     Edge 51, Type (0, 0), BuildingBlock: KIFKEQ_clean_linker_1, # of connection points: 2
#     Edge 52, Type (0, 0), BuildingBlock: KIFKEQ_clean_linker_1, # of connection points: 2
#     Edge 53, Type (0, 0), BuildingBlock: KIFKEQ_clean_linker_1, # of connection points: 2
#     Edge 54, Type (0, 0), BuildingBlock: KIFKEQ_clean_linker_1, # of connection points: 2
#     Edge 55, Type (0, 0), BuildingBlock: KIFKEQ_clean_linker_1, # of connection points: 2
#     Edge 56, Type (0, 0), BuildingBlock: KIFKEQ_clean_linker_1, # of connection points: 2
#     Edge 57, Type (0, 0), BuildingBlock: KIFKEQ_clean_linker_1, # of connection points: 2
#     Edge 58, Type (0, 0), BuildingBlock: KIFKEQ_clean_linker_1, # of connection points: 2
#     Edge 59, Type (0, 0), BuildingBlock: KIFKEQ_clean_linker_1, # of connection points: 2
#     Edge 60, Type (0, 0), BuildingBlock: KIFKEQ_clean_linker_1, # of connection points: 2
#     Edge 61, Type (0, 0), BuildingBlock: KIFKEQ_clean_linker_1, # of connection points: 2
#     Edge 62, Type (0, 0), BuildingBlock: KIFKEQ_clean_linker_1, # of connection points: 2
#     Edge 63, Type (0, 0), BuildingBlock: KIFKEQ_clean_linker_1, # of connection points: 2
#     Edge 64, Type (0, 0), BuildingBlock: KIFKEQ_clean_linker_1, # of connection points: 2
#     Edge 65, Type (0, 0), BuildingBlock: KIFKEQ_clean_linker_1, # of connection points: 2
#     Edge 66, Type (0, 0), BuildingBlock: KIFKEQ_clean_linker_1, # of connection points: 2
#     Edge 67, Type (0, 0), BuildingBlock: KIFKEQ_clean_linker_1, # of connection points: 2
#     Edge 68, Type (0, 0), BuildingBlock: KIFKEQ_clean_linker_1, # of connection points: 2
#     Edge 69, Type (0, 0), BuildingBlock: KIFKEQ_clean_linker_1, # of connection points: 2
#     Edge 70, Type (0, 0), BuildingBlock: KIFKEQ_clean_linker_1, # of connection points: 2
#     Edge 71, Type (0, 0), BuildingBlock: KIFKEQ_clean_linker_1, # of connection points: 2
#     Edge 72, Type (0, 0), BuildingBlock: KIFKEQ_clean_linker_1, # of connection points: 2
#     Edge 73, Type (0, 0), BuildingBlock: KIFKEQ_clean_linker_1, # of connection points: 2
#     Edge 74, Type (0, 0), BuildingBlock: KIFKEQ_clean_linker_1, # of connection points: 2
#     Edge 75, Type (0, 0), BuildingBlock: KIFKEQ_clean_linker_1, # of connection points: 2
#     Edge 76, Type (0, 0), BuildingBlock: KIFKEQ_clean_linker_1, # of connection points: 2
#     Edge 77, Type (0, 0), BuildingBlock: KIFKEQ_clean_linker_1, # of connection points: 2
#     Edge 78, Type (0, 0), BuildingBlock: KIFKEQ_clean_linker_1, # of connection points: 2
#     Edge 79, Type (0, 0), BuildingBlock: KIFKEQ_clean_linker_1, # of connection points: 2
#     Edge 80, Type (0, 0), BuildingBlock: KIFKEQ_clean_linker_1, # of connection points: 2
#     Edge 81, Type (0, 0), BuildingBlock: KIFKEQ_clean_linker_1, # of connection points: 2
#     Edge 82, Type (0, 0), BuildingBlock: KIFKEQ_clean_linker_1, # of connection points: 2
#     Edge 83, Type (0, 0), BuildingBlock: KIFKEQ_clean_linker_1, # of connection points: 2
#     Edge 84, Type (0, 0), BuildingBlock: KIFKEQ_clean_linker_1, # of connection points: 2
#     Edge 85, Type (0, 0), BuildingBlock: KIFKEQ_clean_linker_1, # of connection points: 2
#     Edge 86, Type (0, 0), BuildingBlock: KIFKEQ_clean_linker_1, # of connection points: 2
#     Edge 87, Type (0, 0), BuildingBlock: KIFKEQ_clean_linker_1, # of connection points: 2
#     Edge 88, Type (0, 0), BuildingBlock: KIFKEQ_clean_linker_1, # of connection points: 2
#     Edge 89, Type (0, 0), BuildingBlock: KIFKEQ_clean_linker_1, # of connection points: 2
#     Edge 90, Type (0, 0), BuildingBlock: KIFKEQ_clean_linker_1, # of connection points: 2
#     Edge 91, Type (0, 0), BuildingBlock: KIFKEQ_clean_linker_1, # of connection points: 2
#     Edge 92, Type (0, 0), BuildingBlock: KIFKEQ_clean_linker_1, # of connection points: 2
#     Edge 93, Type (0, 0), BuildingBlock: KIFKEQ_clean_linker_1, # of connection points: 2
#     Edge 94, Type (0, 0), BuildingBlock: KIFKEQ_clean_linker_1, # of connection points: 2
#     Edge 95, Type (0, 0), BuildingBlock: KIFKEQ_clean_linker_1, # of connection points: 2
# Relax obj value: 0.175
# Max RMSD: 0.166
# Mean RMSD: 0.163
data_MOF--net-mer--node1-AZAVOO_clean_sbu_0--edge1-KIFKEQ_clean_linker_1
_symmetry_space_group_name_H-M    P1
_symmetry_Int_Tables_number       1
_symmetry_cell_setting            triclinic
loop_
_symmetry_equiv_pos_as_xyz
'x, y, z'
_cell_length_a     70.392639
_cell_length_b     70.48973
_cell_length_c     41.792511
_cell_angle_alpha  89.997704
_cell_angle_beta   90.041756
_cell_angle_gamma 89.986718
loop_
_atom_site_label
_atom_site_type_symbol
_atom_site_fract_x
_atom_site_fract_y
_atom_site_fract_z
_atom_type_partial_charge
Mg0 Mg 0.10924 0.23964 0.29399 0.0
O1 O 0.11802 0.23986 0.34706 0.0
O2 O 0.14965 0.23771 0.34902 0.0
Mg3 Mg 0.16123 0.23683 0.29818 0.0
C4 C 0.13354 0.2389 0.36284 0.0
C5 C 0.06894 0.2593 0.2927 0.0
O6 O 0.07658 0.26845 0.26852 0.0
O7 O 0.11875 0.27065 0.28782 0.0
O8 O 0.15033 0.26696 0.28929 0.0
O9 O 0.10924 0.20767 0.29348 0.0
O10 O 0.13399 0.22543 0.28145 0.0
C11 C 0.1356 0.27739 0.28626 0.0
C12 C 0.12695 0.20878 0.28538 0.0
O13 O 0.07898 0.24748 0.30823 0.0
Mg14 Mg 0.71917 0.10414 0.39726 0.0
O15 O 0.74875 0.11637 0.38627 0.0
O16 O 0.77044 0.09877 0.41173 0.0
Mg17 Mg 0.75478 0.07603 0.44051 0.0
C18 C 0.766 0.11255 0.39335 0.0
C19 C 0.68913 0.11951 0.34807 0.0
O20 O 0.67926 0.10552 0.3605 0.0
O21 O 0.72475 0.07894 0.36377 0.0
O22 O 0.74489 0.06213 0.39391 0.0
O23 O 0.71703 0.12259 0.44081 0.0
O24 O 0.7291 0.09372 0.44088 0.0
C25 C 0.73482 0.06412 0.36869 0.0
C26 C 0.7254 0.10906 0.45633 0.0
O27 O 0.70617 0.12207 0.35731 0.0
Mg28 Mg 0.89522 0.75654 0.28125 0.0
O29 O 0.8869 0.75707 0.33452 0.0
O30 O 0.85523 0.75829 0.33687 0.0
Mg31 Mg 0.8432 0.75913 0.28634 0.0
C32 C 0.87145 0.75759 0.35048 0.0
C33 C 0.93812 0.74891 0.27335 0.0
O34 O 0.93282 0.75272 0.24388 0.0
O35 O 0.8857 0.72535 0.27637 0.0
O36 O 0.85411 0.72902 0.27838 0.0
O37 O 0.89493 0.78859 0.27936 0.0
O38 O 0.87027 0.77043 0.26871 0.0
C39 C 0.86883 0.71857 0.27552 0.0
C40 C 0.87716 0.7872 0.27168 0.0
O41 O 0.92559 0.74866 0.29522 0.0
Mg42 Mg 0.28699 0.8936 0.4177 0.0
O43 O 0.25786 0.88016 0.40626 0.0
O44 O 0.2356 0.89679 0.43226 0.0
Mg45 Mg 0.25019 0.9204 0.46054 0.0
C46 C 0.24049 0.88331 0.41359 0.0
C47 C 0.30792 0.88266 0.35163 0.0
O48 O 0.30565 0.90066 0.34452 0.0
O49 O 0.28004 0.91837 0.38437 0.0
O50 O 0.25802 0.93407 0.41248 0.0
O51 O 0.28946 0.87522 0.46118 0.0
O52 O 0.27657 0.9038 0.46105 0.0
C53 C 0.26844 0.93217 0.38765 0.0
C54 C 0.28062 0.88853 0.47648 0.0
O55 O 0.30148 0.87626 0.37798 0.0
Mg56 Mg 0.10613 0.7509 0.71518 0.0
O57 O 0.11471 0.75233 0.66206 0.0
O58 O 0.14641 0.75312 0.66013 0.0
Mg59 Mg 0.15819 0.75293 0.7108 0.0
C60 C 0.13025 0.75291 0.64632 0.0
C61 C 0.06403 0.7377 0.72096 0.0
O62 O 0.07017 0.73388 0.74995 0.0
O63 O 0.11516 0.71953 0.71865 0.0
O64 O 0.14679 0.72291 0.71736 0.0
O65 O 0.10661 0.78277 0.71873 0.0
O66 O 0.13119 0.76432 0.72873 0.0
C67 C 0.13195 0.71258 0.71952 0.0
C68 C 0.12434 0.78116 0.72649 0.0
O69 O 0.07572 0.74399 0.70038 0.0
Mg70 Mg 0.28532 0.10229 0.60381 0.0
O71 O 0.25673 0.11741 0.61363 0.0
O72 O 0.23424 0.1029 0.58477 0.0
Mg73 Mg 0.24763 0.07767 0.55938 0.0
C74 C 0.23949 0.11582 0.60424 0.0
C75 C 0.3169 0.1241 0.63864 0.0
O76 O 0.32508 0.11883 0.61182 0.0
O77 O 0.27669 0.07833 0.63772 0.0
O78 O 0.25384 0.0646 0.60845 0.0
O79 O 0.28981 0.11986 0.55965 0.0
O80 O 0.27508 0.09225 0.56021 0.0
C81 C 0.26393 0.06565 0.6338 0.0
C82 C 0.28046 0.10691 0.54432 0.0
O83 O 0.29978 0.11916 0.64369 0.0
Mg84 Mg 0.89382 0.24039 0.70215 0.0
O85 O 0.88518 0.2421 0.64906 0.0
O86 O 0.85346 0.24138 0.6471 0.0
Mg87 Mg 0.84181 0.2378 0.6976 0.0
C88 C 0.8696 0.2425 0.63335 0.0
C89 C 0.93469 0.25735 0.70922 0.0
O90 O 0.92726 0.26302 0.73643 0.0
O91 O 0.88424 0.27123 0.71137 0.0
O92 O 0.85271 0.26723 0.71082 0.0
O93 O 0.89392 0.20842 0.70018 0.0
O94 O 0.86905 0.22579 0.71308 0.0
C95 C 0.86734 0.27769 0.7147 0.0
C96 C 0.87618 0.20926 0.7082 0.0
O97 O 0.92422 0.24862 0.68929 0.0
Mg98 Mg 0.71702 0.89188 0.58763 0.0
O99 O 0.74623 0.87931 0.60048 0.0
O100 O 0.76832 0.89498 0.57255 0.0
Mg101 Mg 0.75347 0.91776 0.54268 0.0
C102 C 0.76354 0.88217 0.5926 0.0
C103 C 0.68656 0.86988 0.62648 0.0
O104 O 0.67793 0.87174 0.59876 0.0
O105 O 0.72345 0.91756 0.61891 0.0
O106 O 0.74444 0.93317 0.58861 0.0
O107 O 0.71448 0.87222 0.54535 0.0
O108 O 0.72741 0.90068 0.54347 0.0
C109 C 0.73416 0.93184 0.61372 0.0
C110 C 0.72329 0.88512 0.52901 0.0
O111 O 0.70324 0.87652 0.62974 0.0
Mg112 Mg 0.88276 0.75911 0.66575 0.0
O113 O 0.87948 0.75918 0.61047 0.0
O114 O 0.84816 0.75986 0.60101 0.0
Mg115 Mg 0.83185 0.7572 0.64745 0.0
C116 C 0.86534 0.76006 0.59126 0.0
C117 C 0.92315 0.75474 0.68908 0.0
O118 O 0.91326 0.75979 0.71435 0.0
O119 O 0.87615 0.72736 0.66719 0.0
O120 O 0.84524 0.7279 0.65481 0.0
O121 O 0.87995 0.79087 0.66575 0.0
O122 O 0.85586 0.77112 0.67083 0.0
C123 C 0.86048 0.7189 0.66146 0.0
C124 C 0.86177 0.78826 0.66743 0.0
O125 O 0.91456 0.75309 0.66245 0.0
Mg126 Mg 0.24608 0.90398 0.7786 0.0
O127 O 0.24912 0.89349 0.72694 0.0
O128 O 0.24823 0.86179 0.72586 0.0
Mg129 Mg 0.24391 0.85196 0.77772 0.0
C130 C 0.24971 0.87779 0.71177 0.0
C131 C 0.24489 0.94058 0.74014 0.0
O132 O 0.23114 0.93031 0.7278 0.0
O133 O 0.27701 0.8952 0.78812 0.0
O134 O 0.2734 0.8636 0.7894 0.0
O135 O 0.21442 0.90365 0.77246 0.0
O136 O 0.23126 0.8794 0.79023 0.0
C137 C 0.28361 0.87847 0.79207 0.0
C138 C 0.21516 0.88602 0.78095 0.0
O139 O 0.25477 0.93363 0.76272 0.0
Mg140 Mg 0.118 0.23799 0.6765 0.0
O141 O 0.12331 0.24033 0.62203 0.0
O142 O 0.15481 0.24263 0.6157 0.0
Mg143 Mg 0.16946 0.24205 0.66419 0.0
C144 C 0.13801 0.24195 0.60422 0.0
C145 C 0.07701 0.24498 0.6961 0.0
O146 O 0.08622 0.2431 0.72327 0.0
O147 O 0.1236 0.26986 0.68197 0.0
O148 O 0.15516 0.27037 0.67514 0.0
O149 O 0.12167 0.20638 0.67308 0.0
O150 O 0.14504 0.22638 0.68275 0.0
C151 C 0.1394 0.27869 0.68059 0.0
C152 C 0.1397 0.20931 0.67674 0.0
O153 O 0.08626 0.24355 0.67009 0.0
Mg154 Mg 0.75419 0.08955 0.76009 0.0
O155 O 0.75113 0.10083 0.70899 0.0
O156 O 0.75761 0.13177 0.70658 0.0
Mg157 Mg 0.76185 0.1409 0.75859 0.0
C158 C 0.75313 0.11616 0.69311 0.0
C159 C 0.74533 0.04586 0.75529 0.0
O160 O 0.75577 0.04521 0.78134 0.0
O161 O 0.72472 0.10124 0.77206 0.0
O162 O 0.73098 0.13232 0.76818 0.0
O163 O 0.78554 0.08689 0.75158 0.0
O164 O 0.77154 0.11229 0.77187 0.0
C165 C 0.71945 0.11857 0.77256 0.0
C166 C 0.7867 0.10429 0.7613 0.0
O167 O 0.74182 0.06181 0.74245 0.0
Mg168 Mg 0.88741 0.2336 0.3217 0.0
O169 O 0.88021 0.23704 0.37516 0.0
O170 O 0.84855 0.23567 0.37948 0.0
Mg171 Mg 0.83554 0.23348 0.32954 0.0
C172 C 0.86505 0.2371 0.39201 0.0
C173 C 0.92703 0.24754 0.30559 0.0
O174 O 0.91764 0.24853 0.27845 0.0
O175 O 0.87941 0.26466 0.31348 0.0
O176 O 0.84774 0.26283 0.31794 0.0
O177 O 0.88602 0.20195 0.32803 0.0
O178 O 0.8617 0.2198 0.31371 0.0
C179 C 0.86296 0.27224 0.31305 0.0
C180 C 0.86803 0.20345 0.32203 0.0
O181 O 0.91832 0.2418 0.33041 0.0
Mg182 Mg 0.75058 0.90454 0.22654 0.0
O183 O 0.74798 0.89251 0.27694 0.0
O184 O 0.75355 0.86135 0.2776 0.0
Mg185 Mg 0.75855 0.85313 0.22496 0.0
C186 C 0.74949 0.87682 0.29194 0.0
C187 C 0.74059 0.94804 0.23083 0.0
O188 O 0.74932 0.94835 0.20306 0.0
O189 O 0.72093 0.8927 0.21568 0.0
O190 O 0.72784 0.86166 0.2139 0.0
O191 O 0.78211 0.90722 0.23414 0.0
O192 O 0.76803 0.88201 0.21355 0.0
C193 C 0.71612 0.87541 0.21145 0.0
C194 C 0.78328 0.88994 0.22389 0.0
O195 O 0.73842 0.93229 0.24517 0.0
Mg196 Mg 0.1181 0.76505 0.33243 0.0
O197 O 0.12247 0.76293 0.38725 0.0
O198 O 0.1539 0.76399 0.39556 0.0
Mg199 Mg 0.16937 0.76329 0.34797 0.0
C200 C 0.13686 0.76337 0.40598 0.0
C201 C 0.07906 0.74879 0.31464 0.0
O202 O 0.09023 0.74228 0.29198 0.0
O203 O 0.12513 0.73347 0.32755 0.0
O204 O 0.15619 0.73404 0.33901 0.0
O205 O 0.1207 0.79672 0.33662 0.0
O206 O 0.14478 0.77747 0.32712 0.0
C207 C 0.14096 0.72505 0.33215 0.0
C208 C 0.13883 0.79428 0.33342 0.0
O209 O 0.08632 0.7587 0.33695 0.0
Mg210 Mg 0.25093 0.08877 0.23957 0.0
O211 O 0.25436 0.0991 0.29129 0.0
O212 O 0.24865 0.1302 0.29438 0.0
Mg213 Mg 0.24422 0.14029 0.243 0.0
C214 C 0.25278 0.11438 0.30749 0.0
C215 C 0.25261 0.0455 0.24714 0.0
O216 O 0.23725 0.04786 0.2297 0.0
O217 O 0.28068 0.10007 0.22792 0.0
O218 O 0.27479 0.1312 0.2325 0.0
O219 O 0.21941 0.08673 0.24771 0.0
O220 O 0.23409 0.1121 0.22885 0.0
C221 C 0.28614 0.11736 0.22768 0.0
C222 C 0.21866 0.10426 0.23858 0.0
O223 O 0.26237 0.05998 0.25471 0.0
Mg224 Mg 0.60789 0.74068 0.79724 0.0
O225 O 0.61704 0.74353 0.85008 0.0
O226 O 0.64849 0.7391 0.85152 0.0
Mg227 Mg 0.65953 0.73351 0.80112 0.0
C228 C 0.6327 0.74239 0.8655 0.0
C229 C 0.56685 0.75296 0.78529 0.0
O230 O 0.57298 0.74835 0.75663 0.0
O231 O 0.62015 0.77011 0.78508 0.0
O232 O 0.65119 0.76343 0.78569 0.0
O233 O 0.60451 0.70901 0.80263 0.0
O234 O 0.63113 0.72334 0.78868 0.0
C235 C 0.6375 0.77499 0.78107 0.0
C236 C 0.6224 0.70791 0.79586 0.0
O237 O 0.57844 0.75233 0.80859 0.0
Mg238 Mg 0.22038 0.60091 0.89948 0.0
O239 O 0.24927 0.61472 0.88803 0.0
O240 O 0.27149 0.5994 0.91624 0.0
Mg241 Mg 0.25717 0.57567 0.94471 0.0
C242 C 0.26656 0.61236 0.89657 0.0
C243 C 0.18924 0.61266 0.85058 0.0
O244 O 0.18019 0.59952 0.86683 0.0
O245 O 0.22782 0.57581 0.8675 0.0
O246 O 0.24882 0.56045 0.89818 0.0
O247 O 0.21682 0.61997 0.94211 0.0
O248 O 0.23059 0.59188 0.94367 0.0
C249 C 0.23877 0.56172 0.87279 0.0
C250 C 0.22589 0.6072 0.95836 0.0
O251 O 0.20636 0.6165 0.85793 0.0
Mg252 Mg 0.40754 0.26397 0.77282 0.0
O253 O 0.39592 0.26357 0.82422 0.0
O254 O 0.36554 0.27268 0.82225 0.0
Mg255 Mg 0.35734 0.27787 0.77014 0.0
C256 C 0.38018 0.26741 0.83797 0.0
C257 C 0.44788 0.24773 0.76931 0.0
O258 O 0.4444 0.25264 0.73954 0.0
O259 O 0.39212 0.23587 0.76172 0.0
O260 O 0.36215 0.24637 0.75944 0.0
O261 O 0.41413 0.29502 0.7783 0.0
O262 O 0.38711 0.28364 0.75928 0.0
C263 C 0.37435 0.233 0.75722 0.0
C264 C 0.39703 0.29799 0.76812 0.0
O265 O 0.4347 0.24949 0.78987 0.0
Mg266 Mg 0.79065 0.3979 0.90331 0.0
O267 O 0.76217 0.38243 0.89414 0.0
O268 O 0.73984 0.39711 0.92304 0.0
Mg269 Mg 0.75329 0.42239 0.94834 0.0
C270 C 0.74499 0.38403 0.90379 0.0
C271 C 0.82095 0.37468 0.86612 0.0
O272 O 0.82891 0.37583 0.8945 0.0
O273 O 0.78145 0.42182 0.87016 0.0
O274 O 0.75893 0.43602 0.8993 0.0
O275 O 0.79557 0.37988 0.94673 0.0
O276 O 0.78063 0.40741 0.94732 0.0
C277 C 0.76893 0.43473 0.87389 0.0
C278 C 0.78602 0.39248 0.96254 0.0
O279 O 0.80472 0.38219 0.86181 0.0
Mg280 Mg 0.59578 0.2616 0.22586 0.0
O281 O 0.60687 0.26221 0.17405 0.0
O282 O 0.63736 0.27096 0.17566 0.0
Mg283 Mg 0.64627 0.27438 0.22777 0.0
C284 C 0.62249 0.26626 0.16007 0.0
C285 C 0.55497 0.24671 0.22912 0.0
O286 O 0.55853 0.25162 0.25886 0.0
O287 O 0.6107 0.233 0.23466 0.0
O288 O 0.64103 0.24259 0.2355 0.0
O289 O 0.58973 0.29283 0.22269 0.0
O290 O 0.61674 0.28053 0.24015 0.0
C291 C 0.62848 0.22955 0.23745 0.0
C292 C 0.60697 0.29525 0.23261 0.0
O293 O 0.56822 0.24801 0.20862 0.0
Mg294 Mg 0.78274 0.59919 0.10291 0.0
O295 O 0.7537 0.61301 0.11302 0.0
O296 O 0.73155 0.5961 0.08737 0.0
Mg297 Mg 0.74638 0.57265 0.05883 0.0
C298 C 0.73637 0.60981 0.10561 0.0
C299 C 0.81381 0.61349 0.15038 0.0
O300 O 0.82357 0.60078 0.13431 0.0
O301 O 0.77553 0.57445 0.13619 0.0
O302 O 0.75529 0.55809 0.1055 0.0
O303 O 0.78631 0.61744 0.05942 0.0
O304 O 0.77276 0.58923 0.05908 0.0
C305 C 0.76513 0.55992 0.13102 0.0
C306 C 0.77742 0.60433 0.0437 0.0
O307 O 0.79635 0.61597 0.1436 0.0
Mg308 Mg 0.39092 0.74382 0.20786 0.0
O309 O 0.38266 0.74521 0.1545 0.0
O310 O 0.35104 0.74302 0.1519 0.0
Mg311 Mg 0.339 0.7406 0.20227 0.0
C312 C 0.36722 0.7446 0.13841 0.0
C313 C 0.43318 0.75149 0.21856 0.0
O314 O 0.42697 0.74671 0.2471 0.0
O315 O 0.3809 0.77449 0.21633 0.0
O316 O 0.34935 0.77058 0.21402 0.0
O317 O 0.39133 0.71182 0.20653 0.0
O318 O 0.36625 0.72906 0.21871 0.0
C319 C 0.36396 0.78102 0.21822 0.0
C320 C 0.37355 0.71256 0.2143 0.0
O321 O 0.42131 0.75254 0.1957 0.0
Mg322 Mg 0.21131 0.3953 0.09671 0.0
O323 O 0.24077 0.38223 0.10565 0.0
O324 O 0.26208 0.39801 0.07633 0.0
Mg325 Mg 0.24645 0.42164 0.04958 0.0
C326 C 0.2578 0.38486 0.09607 0.0
C327 C 0.18261 0.38153 0.14931 0.0
O328 O 0.17212 0.39471 0.13579 0.0
O329 O 0.21885 0.42047 0.12875 0.0
O330 O 0.23898 0.4362 0.09702 0.0
O331 O 0.20747 0.3764 0.05389 0.0
O332 O 0.22015 0.40498 0.05203 0.0
C333 C 0.22953 0.43472 0.123 0.0
C334 C 0.21579 0.38954 0.0374 0.0
O335 O 0.19935 0.37864 0.13892 0.0
Mg336 Mg 0.37767 0.25723 0.15239 0.0
O337 O 0.37577 0.25655 0.09704 0.0
O338 O 0.34482 0.25439 0.08527 0.0
Mg339 Mg 0.32731 0.25335 0.13076 0.0
C340 C 0.36219 0.25547 0.07671 0.0
C341 C 0.41639 0.24142 0.17351 0.0
O342 O 0.40456 0.23382 0.19417 0.0
O343 O 0.37172 0.22535 0.15457 0.0
O344 O 0.34089 0.22452 0.14173 0.0
O345 O 0.37413 0.28886 0.15154 0.0
O346 O 0.35036 0.26859 0.15491 0.0
C347 C 0.35636 0.21622 0.14943 0.0
C348 C 0.35598 0.28587 0.15203 0.0
O349 O 0.40973 0.25197 0.1515 0.0
Mg350 Mg 0.74328 0.40046 0.26384 0.0
O351 O 0.74888 0.39193 0.21192 0.0
O352 O 0.74418 0.36079 0.20581 0.0
Mg353 Mg 0.73488 0.34934 0.25484 0.0
C354 C 0.74875 0.37701 0.19458 0.0
C355 C 0.75183 0.44429 0.26627 0.0
O356 O 0.73855 0.44388 0.28832 0.0
O357 O 0.7718 0.38717 0.27745 0.0
O358 O 0.76447 0.35629 0.27446 0.0
O359 O 0.71242 0.40523 0.25277 0.0
O360 O 0.72458 0.37771 0.26775 0.0
C361 C 0.77607 0.36969 0.2808 0.0
C362 C 0.71023 0.38723 0.25741 0.0
O363 O 0.75719 0.42884 0.25349 0.0
Mg364 Mg 0.61455 0.73259 0.17649 0.0
O365 O 0.62116 0.7378 0.12334 0.0
O366 O 0.6528 0.7398 0.11923 0.0
Mg367 Mg 0.66637 0.73518 0.16844 0.0
C368 C 0.63622 0.74023 0.10676 0.0
C369 C 0.57516 0.74889 0.1918 0.0
O370 O 0.58555 0.75426 0.2163 0.0
O371 O 0.62148 0.76378 0.18694 0.0
O372 O 0.65329 0.76325 0.18514 0.0
O373 O 0.61719 0.70119 0.16784 0.0
O374 O 0.64092 0.71964 0.18262 0.0
C375 C 0.6376 0.77185 0.19009 0.0
C376 C 0.63517 0.70323 0.17343 0.0
O377 O 0.58306 0.73961 0.16934 0.0
Mg378 Mg 0.25061 0.59412 0.26385 0.0
O379 O 0.24898 0.60423 0.2119 0.0
O380 O 0.25616 0.63496 0.20784 0.0
Mg381 Mg 0.25952 0.64524 0.25942 0.0
C382 C 0.25163 0.61914 0.19515 0.0
C383 C 0.24189 0.55036 0.2607 0.0
O384 O 0.25263 0.55015 0.28643 0.0
O385 O 0.2211 0.60678 0.27282 0.0
O386 O 0.22828 0.63758 0.26728 0.0
O387 O 0.28213 0.59067 0.25771 0.0
O388 O 0.26816 0.61678 0.27528 0.0
C389 C 0.21628 0.62424 0.27172 0.0
C390 C 0.2834 0.60825 0.26641 0.0
O391 O 0.23811 0.56611 0.24738 0.0
Mg392 Mg 0.38527 0.73833 0.8259 0.0
O393 O 0.37961 0.74235 0.8798 0.0
O394 O 0.3481 0.74546 0.88492 0.0
Mg395 Mg 0.33369 0.7422 0.83626 0.0
C396 C 0.3648 0.745 0.89694 0.0
C397 C 0.42495 0.75426 0.81043 0.0
O398 O 0.41458 0.76065 0.7866 0.0
O399 O 0.37903 0.7699 0.81766 0.0
O400 O 0.34726 0.77013 0.82027 0.0
O401 O 0.38224 0.70679 0.83184 0.0
O402 O 0.35847 0.72598 0.82042 0.0
C403 C 0.3631 0.77841 0.81532 0.0
C404 C 0.36416 0.70918 0.82772 0.0
O405 O 0.41696 0.74449 0.83218 0.0
Mg406 Mg 0.26015 0.40226 0.73803 0.0
O407 O 0.25372 0.39236 0.78892 0.0
O408 O 0.25843 0.36111 0.79313 0.0
Mg409 Mg 0.26841 0.35099 0.74362 0.0
C410 C 0.25361 0.37704 0.80522 0.0
C411 C 0.25108 0.4459 0.73693 0.0
O412 O 0.2637 0.44569 0.71379 0.0
O413 O 0.23184 0.38946 0.72231 0.0
O414 O 0.23912 0.35852 0.72316 0.0
O415 O 0.29075 0.40682 0.75076 0.0
O416 O 0.27896 0.37965 0.73332 0.0
C417 C 0.22761 0.37211 0.71739 0.0
C418 C 0.29311 0.38896 0.74495 0.0
O419 O 0.24619 0.43036 0.7499 0.0
Mg420 Mg 0.62538 0.2564 0.8454 0.0
O421 O 0.62703 0.2561 0.90081 0.0
O422 O 0.65789 0.25371 0.91297 0.0
Mg423 Mg 0.67562 0.25207 0.86779 0.0
C424 C 0.64051 0.25505 0.92131 0.0
C425 C 0.58643 0.24086 0.82447 0.0
O426 O 0.59815 0.23282 0.80411 0.0
O427 O 0.63093 0.22444 0.84393 0.0
O428 O 0.66169 0.22338 0.85726 0.0
O429 O 0.62939 0.28798 0.84562 0.0
O430 O 0.65288 0.26736 0.84292 0.0
C431 C 0.64617 0.21519 0.84953 0.0
C432 C 0.6475 0.28473 0.84538 0.0
O433 O 0.59323 0.25159 0.84612 0.0
Mg434 Mg 0.74759 0.59353 0.73677 0.0
O435 O 0.75097 0.60166 0.78983 0.0
O436 O 0.74553 0.63268 0.79587 0.0
Mg437 Mg 0.7414 0.64485 0.74589 0.0
C438 C 0.74942 0.61639 0.80747 0.0
C439 C 0.74878 0.55003 0.74046 0.0
O440 O 0.73292 0.553 0.72463 0.0
O441 O 0.77742 0.60501 0.7267 0.0
O442 O 0.77197 0.63595 0.73475 0.0
O443 O 0.71617 0.59105 0.74447 0.0
O444 O 0.73071 0.61731 0.72926 0.0
C445 C 0.78314 0.62217 0.72848 0.0
C446 C 0.71534 0.60902 0.73834 0.0
O447 O 0.75895 0.56417 0.74829 0.0
H448 H 0.20791 0.13352 0.20151 0.0
H449 H 0.19135 0.10188 0.28538 0.0
H450 H 0.1835 0.15696 0.21263 0.0
H451 H 0.16707 0.12594 0.29737 0.0
H452 H 0.11731 0.1711 0.2929 0.0
H453 H 0.13711 0.14336 0.28024 0.0
H454 H 0.18327 0.18072 0.25453 0.0
H455 H 0.16367 0.20795 0.26585 0.0
C456 C 0.19883 0.13149 0.22216 0.0
C457 C 0.2016 0.11607 0.24279 0.0
C458 C 0.18493 0.14497 0.22866 0.0
C459 C 0.17371 0.14356 0.25635 0.0
C460 C 0.17554 0.1274 0.2759 0.0
C461 C 0.1894 0.11366 0.26906 0.0
C462 C 0.13173 0.17329 0.28467 0.0
C463 C 0.1389 0.19176 0.28043 0.0
C464 C 0.14304 0.15744 0.27751 0.0
C465 C 0.16163 0.15987 0.26585 0.0
C466 C 0.16887 0.17833 0.26269 0.0
C467 C 0.15765 0.19402 0.26966 0.0
H468 H 0.8039 0.10429 0.38864 0.0
H469 H 0.76289 0.1484 0.36914 0.0
H470 H 0.82922 0.12456 0.36836 0.0
H471 H 0.78819 0.16899 0.35038 0.0
H472 H 0.83356 0.19797 0.29473 0.0
H473 H 0.80956 0.1747 0.30915 0.0
H474 H 0.8475 0.15145 0.38058 0.0
H475 H 0.87188 0.17422 0.36471 0.0
C476 C 0.80031 0.11836 0.38016 0.0
C477 C 0.78136 0.12472 0.38045 0.0
C478 C 0.81485 0.13005 0.36869 0.0
C479 C 0.81086 0.14848 0.35764 0.0
C480 C 0.79186 0.15477 0.35797 0.0
C481 C 0.7773 0.14299 0.36896 0.0
C482 C 0.83684 0.18769 0.31321 0.0
C483 C 0.85454 0.18791 0.32867 0.0
C484 C 0.823 0.17445 0.32174 0.0
C485 C 0.82637 0.16132 0.34647 0.0
C486 C 0.84439 0.16117 0.36122 0.0
C487 C 0.85839 0.17424 0.35221 0.0
H488 H 0.84047 0.78724 0.25192 0.0
H489 H 0.88613 0.82516 0.27818 0.0
H490 H 0.82031 0.81399 0.24011 0.0
H491 H 0.86576 0.85242 0.26504 0.0
H492 H 0.81088 0.89291 0.2702 0.0
H493 H 0.83564 0.86935 0.28212 0.0
H494 H 0.81915 0.83758 0.19816 0.0
H495 H 0.79427 0.86056 0.18708 0.0
C496 C 0.84622 0.80131 0.25544 0.0
C497 C 0.86493 0.804 0.2662 0.0
C498 C 0.83469 0.81672 0.24818 0.0
C499 C 0.84154 0.83535 0.25103 0.0
C500 C 0.8601 0.83821 0.26256 0.0
C501 C 0.87175 0.82263 0.26999 0.0
C502 C 0.8129 0.88107 0.25402 0.0
C503 C 0.80055 0.87835 0.22798 0.0
C504 C 0.82704 0.86761 0.26082 0.0
C505 C 0.82904 0.85138 0.24149 0.0
C506 C 0.81762 0.84963 0.21405 0.0
C507 C 0.80345 0.86285 0.20756 0.0
H508 H 0.1747 0.798 0.31075 0.0
H509 H 0.1343 0.82405 0.3747 0.0
H510 H 0.19889 0.82052 0.32758 0.0
H511 H 0.15876 0.84598 0.39318 0.0
H512 H 0.20301 0.89193 0.40531 0.0
H513 H 0.17813 0.87197 0.38295 0.0
H514 H 0.21891 0.82666 0.37025 0.0
H515 H 0.24391 0.84708 0.39094 0.0
C516 C 0.17102 0.80862 0.32843 0.0
C517 C 0.15265 0.80931 0.34141 0.0
C518 C 0.18495 0.82143 0.33839 0.0
C519 C 0.18099 0.83499 0.36219 0.0
C520 C 0.16237 0.83596 0.37454 0.0
C521 C 0.14831 0.82335 0.36403 0.0
C522 C 0.20664 0.87771 0.39762 0.0
C523 C 0.22543 0.87108 0.39991 0.0
C524 C 0.19233 0.86618 0.38494 0.0
C525 C 0.19636 0.84759 0.37473 0.0
C526 C 0.21522 0.841 0.37714 0.0
C527 C 0.2296 0.85266 0.38926 0.0
H528 H 0.16167 0.7811 0.74311 0.0
H529 H 0.11456 0.81899 0.72532 0.0
H530 H 0.18164 0.80774 0.75638 0.0
H531 H 0.13463 0.84602 0.74034 0.0
H532 H 0.1859 0.88933 0.73794 0.0
H533 H 0.16248 0.86488 0.72432 0.0
H534 H 0.1847 0.82928 0.7998 0.0
H535 H 0.20837 0.85323 0.81234 0.0
C536 C 0.15555 0.79514 0.74179 0.0
C537 C 0.13651 0.79786 0.7329 0.0
C538 C 0.16698 0.81048 0.74996 0.0
C539 C 0.15966 0.82901 0.75006 0.0
C540 C 0.14071 0.8319 0.74047 0.0
C541 C 0.12921 0.81644 0.73196 0.0
C542 C 0.18551 0.87637 0.75184 0.0
C543 C 0.19906 0.873 0.77589 0.0
C544 C 0.17211 0.86239 0.74409 0.0
C545 C 0.17199 0.84496 0.76051 0.0
C546 C 0.18477 0.84229 0.786 0.0
C547 C 0.19825 0.85606 0.79338 0.0
H548 H 0.20468 0.12341 0.57858 0.0
H549 H 0.2412 0.13814 0.65788 0.0
H550 H 0.18052 0.14497 0.59851 0.0
H551 H 0.21664 0.15913 0.67878 0.0
H552 H 0.17804 0.21102 0.68603 0.0
H553 H 0.20187 0.18828 0.66942 0.0
H554 H 0.15753 0.15002 0.63834 0.0
H555 H 0.13364 0.17351 0.65314 0.0
C556 C 0.20748 0.13114 0.60048 0.0
C557 C 0.22492 0.12911 0.61656 0.0
C558 C 0.19352 0.1434 0.61212 0.0
C559 C 0.19649 0.15379 0.64042 0.0
C560 C 0.21391 0.15162 0.65665 0.0
C561 C 0.22801 0.13953 0.64473 0.0
C562 C 0.17334 0.19785 0.67539 0.0
C563 C 0.15393 0.19431 0.67018 0.0
C564 C 0.18706 0.18461 0.66627 0.0
C565 C 0.18174 0.1673 0.65218 0.0
C566 C 0.16223 0.16338 0.64838 0.0
C567 C 0.14849 0.17676 0.65717 0.0
H568 H 0.81315 0.10143 0.7132 0.0
H569 H 0.79821 0.13384 0.79713 0.0
H570 H 0.83693 0.12554 0.69894 0.0
H571 H 0.82205 0.15742 0.78356 0.0
H572 H 0.83924 0.20788 0.72651 0.0
H573 H 0.82033 0.18037 0.73919 0.0
H574 H 0.86739 0.14374 0.71516 0.0
H575 H 0.88654 0.17174 0.70134 0.0
C576 C 0.81538 0.11338 0.72906 0.0
C577 C 0.80374 0.11598 0.75601 0.0
C578 C 0.82893 0.12715 0.7209 0.0
C579 C 0.83099 0.14355 0.73975 0.0
C580 C 0.82042 0.14518 0.76812 0.0
C581 C 0.80686 0.13163 0.77601 0.0
C582 C 0.8456 0.19405 0.7233 0.0
C583 C 0.86444 0.19207 0.71285 0.0
C584 C 0.83478 0.17822 0.731 0.0
C585 C 0.84252 0.15992 0.72884 0.0
C586 C 0.86111 0.15772 0.71717 0.0
C587 C 0.87204 0.17372 0.70931 0.0
H588 H 0.82334 0.78718 0.67454 0.0
H589 H 0.86911 0.82457 0.64712 0.0
H590 H 0.80033 0.81084 0.65843 0.0
H591 H 0.84597 0.84896 0.63272 0.0
H592 H 0.79961 0.87651 0.57042 0.0
H593 H 0.82375 0.85534 0.5918 0.0
H594 H 0.78599 0.83997 0.66916 0.0
H595 H 0.76154 0.8605 0.64681 0.0
C596 C 0.82852 0.80055 0.66528 0.0
C597 C 0.84807 0.8038 0.66142 0.0
C598 C 0.81527 0.8143 0.65646 0.0
C599 C 0.8212 0.83186 0.64401 0.0
C600 C 0.84083 0.83547 0.64157 0.0
C601 C 0.85413 0.82156 0.65012 0.0
C602 C 0.79649 0.86867 0.59208 0.0
C603 C 0.77857 0.87006 0.60673 0.0
C604 C 0.81042 0.85662 0.60453 0.0
C605 C 0.80688 0.84582 0.63222 0.0
C606 C 0.78914 0.84772 0.64743 0.0
C607 C 0.7751 0.85956 0.63469 0.0
H608 H 0.65791 0.70127 0.81822 0.0
H609 H 0.61026 0.67371 0.77282 0.0
H610 H 0.67808 0.67429 0.80517 0.0
H611 H 0.63059 0.64625 0.76025 0.0
H612 H 0.68412 0.5989 0.77422 0.0
H613 H 0.65859 0.62013 0.79274 0.0
H614 H 0.68325 0.66607 0.73876 0.0
H615 H 0.70826 0.64514 0.71979 0.0
C616 C 0.65169 0.68931 0.80587 0.0
C617 C 0.63273 0.68976 0.79564 0.0
C618 C 0.66318 0.67382 0.79872 0.0
C619 C 0.65586 0.65845 0.78137 0.0
C620 C 0.63645 0.65801 0.77371 0.0
C621 C 0.62488 0.67364 0.78091 0.0
C622 C 0.68383 0.61344 0.76586 0.0
C623 C 0.69839 0.62048 0.74606 0.0
C624 C 0.66928 0.62551 0.77647 0.0
C625 C 0.66927 0.64468 0.76746 0.0
C626 C 0.68319 0.65136 0.74632 0.0
C627 C 0.69752 0.63938 0.73558 0.0
H628 H 0.30194 0.61887 0.92107 0.0
H629 H 0.26468 0.63525 0.84368 0.0
H630 H 0.32568 0.64127 0.90232 0.0
H631 H 0.28881 0.65704 0.82388 0.0
H632 H 0.32559 0.71011 0.82023 0.0
H633 H 0.30262 0.68624 0.83564 0.0
H634 H 0.34836 0.64866 0.86323 0.0
H635 H 0.37138 0.67324 0.84968 0.0
C636 C 0.29892 0.62707 0.89973 0.0
C637 C 0.28135 0.62535 0.88399 0.0
C638 C 0.31263 0.63985 0.8888 0.0
C639 C 0.30926 0.65108 0.86153 0.0
C640 C 0.29183 0.64897 0.84533 0.0
C641 C 0.27799 0.63638 0.85657 0.0
C642 C 0.3308 0.69686 0.82989 0.0
C643 C 0.35034 0.69379 0.83439 0.0
C644 C 0.31757 0.68297 0.8383 0.0
C645 C 0.32352 0.66545 0.85091 0.0
C646 C 0.34316 0.66211 0.85427 0.0
C647 C 0.35641 0.67615 0.84623 0.0
H648 H 0.37865 0.31203 0.81953 0.0
H649 H 0.39343 0.32445 0.72169 0.0
H650 H 0.35559 0.33806 0.81912 0.0
H651 H 0.37047 0.35057 0.72112 0.0
H652 H 0.3296 0.40049 0.7346 0.0
H653 H 0.35878 0.38232 0.74529 0.0
H654 H 0.3251 0.33747 0.78697 0.0
H655 H 0.29633 0.35547 0.77633 0.0
C656 C 0.37747 0.32087 0.7984 0.0
C657 C 0.38782 0.31652 0.77074 0.0
C658 C 0.36423 0.33563 0.79806 0.0
C659 C 0.36117 0.34623 0.77001 0.0
C660 C 0.37268 0.34278 0.74315 0.0
C661 C 0.3858 0.32788 0.74344 0.0
C662 C 0.32858 0.38684 0.74639 0.0
C663 C 0.31076 0.37913 0.75402 0.0
C664 C 0.3452 0.37648 0.75245 0.0
C665 C 0.34418 0.35851 0.76699 0.0
C666 C 0.32636 0.35134 0.77601 0.0
C667 C 0.30983 0.3615 0.76944 0.0
H668 H 0.68618 0.28215 0.84313 0.0
H669 H 0.64066 0.32215 0.859 0.0
H670 H 0.70935 0.3065 0.85572 0.0
H671 H 0.66396 0.34692 0.87006 0.0
H672 H 0.70917 0.37892 0.92733 0.0
H673 H 0.68565 0.35571 0.91095 0.0
H674 H 0.72403 0.33489 0.83828 0.0
H675 H 0.74792 0.35776 0.85553 0.0
C676 C 0.68109 0.29617 0.84922 0.0
C677 C 0.66153 0.30008 0.85069 0.0
C678 C 0.69444 0.31026 0.85602 0.0
C679 C 0.68859 0.32872 0.86411 0.0
C680 C 0.669 0.33278 0.86454 0.0
C681 C 0.65562 0.31862 0.85797 0.0
C682 C 0.71262 0.36944 0.90777 0.0
C683 C 0.73051 0.37017 0.89285 0.0
C684 C 0.69902 0.35619 0.89819 0.0
C685 C 0.70286 0.34339 0.87322 0.0
C686 C 0.72066 0.34431 0.85793 0.0
C687 C 0.73435 0.35749 0.86772 0.0
H688 H 0.62428 0.31103 0.18152 0.0
H689 H 0.61194 0.31993 0.28138 0.0
H690 H 0.64699 0.33737 0.18273 0.0
H691 H 0.63455 0.34633 0.28279 0.0
H692 H 0.6738 0.39752 0.27152 0.0
H693 H 0.64479 0.37902 0.26113 0.0
H694 H 0.67832 0.33676 0.21201 0.0
H695 H 0.70691 0.3551 0.22235 0.0
C696 C 0.62595 0.31914 0.20337 0.0
C697 C 0.61637 0.31375 0.23128 0.0
C698 C 0.63898 0.33408 0.20415 0.0
C699 C 0.64259 0.34382 0.2329 0.0
C700 C 0.6319 0.33924 0.26024 0.0
C701 C 0.619 0.32417 0.25948 0.0
C702 C 0.6748 0.3844 0.25813 0.0
C703 C 0.69255 0.37747 0.2483 0.0
C704 C 0.65829 0.37383 0.25226 0.0
C705 C 0.65932 0.35647 0.23576 0.0
C706 C 0.67703 0.35016 0.22452 0.0
C707 C 0.69346 0.36051 0.23089 0.0
H708 H 0.69837 0.60256 0.1115 0.0
H709 H 0.74039 0.64622 0.12702 0.0
H710 H 0.67359 0.6239 0.13036 0.0
H711 H 0.7156 0.66793 0.14422 0.0
H712 H 0.67054 0.69917 0.19839 0.0
H713 H 0.6945 0.67572 0.18456 0.0
H714 H 0.65561 0.65043 0.11664 0.0
H715 H 0.63131 0.67337 0.13203 0.0
C716 C 0.7023 0.61678 0.11877 0.0
C717 C 0.72136 0.62268 0.1178 0.0
C718 C 0.68805 0.6291 0.1294 0.0
C719 C 0.69245 0.64776 0.13883 0.0
C720 C 0.71159 0.65359 0.13786 0.0
C721 C 0.72587 0.64116 0.12777 0.0
C722 C 0.66708 0.68847 0.18071 0.0
C723 C 0.64908 0.68811 0.16623 0.0
C724 C 0.68089 0.67509 0.17252 0.0
C725 C 0.6772 0.66121 0.14911 0.0
C726 C 0.65898 0.66068 0.13507 0.0
C727 C 0.64503 0.67388 0.14376 0.0
H728 H 0.29528 0.63729 0.30294 0.0
H729 H 0.31018 0.60497 0.21892 0.0
H730 H 0.31953 0.66059 0.28995 0.0
H731 H 0.33436 0.62881 0.2052 0.0
H732 H 0.38409 0.67503 0.20789 0.0
H733 H 0.36498 0.64699 0.22179 0.0
H734 H 0.3178 0.68354 0.24542 0.0
H735 H 0.33663 0.71108 0.23263 0.0
C736 C 0.30404 0.63502 0.28197 0.0
C737 C 0.30079 0.6195 0.26176 0.0
C738 C 0.31784 0.6484 0.2744 0.0
C739 C 0.32848 0.64676 0.24612 0.0
C740 C 0.32631 0.63043 0.22711 0.0
C741 C 0.31254 0.61681 0.23496 0.0
C742 C 0.36957 0.67697 0.21581 0.0
C743 C 0.36191 0.69532 0.21915 0.0
C744 C 0.35867 0.66096 0.22372 0.0
C745 C 0.34005 0.66312 0.23529 0.0
C746 C 0.33226 0.68142 0.23732 0.0
C747 C 0.34304 0.69726 0.22954 0.0
H748 H 0.25625 0.35941 0.1455 0.0
H749 H 0.29368 0.3807 0.07188 0.0
H750 H 0.28058 0.33689 0.16204 0.0
H751 H 0.31773 0.35773 0.08761 0.0
H752 H 0.36322 0.32315 0.13769 0.0
H753 H 0.34013 0.34828 0.12731 0.0
H754 H 0.29438 0.30849 0.14322 0.0
H755 H 0.31732 0.28383 0.15507 0.0
C756 C 0.26966 0.35928 0.1328 0.0
C757 C 0.27295 0.37181 0.10724 0.0
C758 C 0.2836 0.34628 0.14218 0.0
C759 C 0.30111 0.34533 0.12601 0.0
C760 C 0.30454 0.35818 0.10091 0.0
C761 C 0.29067 0.3713 0.09174 0.0
C762 C 0.34822 0.31984 0.1392 0.0
C763 C 0.34213 0.3014 0.14679 0.0
C764 C 0.33497 0.33422 0.13303 0.0
C765 C 0.31534 0.33044 0.13425 0.0
C766 C 0.30934 0.31205 0.14243 0.0
C767 C 0.32255 0.29777 0.1488 0.0
H768 H 0.9509 0.24798 0.35759 0.0
H769 H 0.9497 0.25722 0.2554 0.0
H770 H 0.98512 0.25382 0.35786 0.0
H771 H 0.98376 0.26246 0.2555 0.0
H772 H 0.04326 0.28336 0.26488 0.0
H773 H 0.00883 0.28326 0.27113 0.0
H774 H 0.01348 0.23803 0.34053 0.0
H775 H 0.04786 0.23856 0.33504 0.0
C776 C 0.95792 0.2513 0.33522 0.0
C777 C 0.94758 0.25204 0.30646 0.0
C778 C 0.97754 0.25457 0.33535 0.0
C779 C 0.98725 0.25859 0.30669 0.0
C780 C 0.97677 0.25973 0.27811 0.0
C781 C 0.9572 0.25656 0.27801 0.0
C782 C 0.03695 0.27359 0.28181 0.0
C783 C 0.04831 0.26084 0.2992 0.0
C784 C 0.01719 0.27344 0.28526 0.0
C785 C 0.00832 0.26047 0.30604 0.0
C786 C 0.01978 0.24834 0.32452 0.0
C787 C 0.03954 0.24856 0.32121 0.0
H788 H 0.71908 0.06296 0.30811 0.0
H789 H 0.74934 0.02878 0.37741 0.0
H790 H 0.71767 0.03548 0.27194 0.0
H791 H 0.74778 0.0018 0.34172 0.0
H792 H 0.74573 0.98458 0.20976 0.0
H793 H 0.74214 0.01374 0.24105 0.0
H794 H 0.72094 0.98103 0.32067 0.0
H795 H 0.72449 0.952 0.28976 0.0
C796 C 0.72543 0.04968 0.31562 0.0
C797 C 0.73429 0.0481 0.34571 0.0
C798 C 0.72463 0.03402 0.29493 0.0
C799 C 0.73239 0.01649 0.30429 0.0
C800 C 0.74138 0.01504 0.33414 0.0
C801 C 0.74239 0.03061 0.35449 0.0
C802 C 0.73999 0.98366 0.23374 0.0
C803 C 0.7357 0.96593 0.24745 0.0
C804 C 0.73786 0.00036 0.25155 0.0
C805 C 0.73152 -0.00044 0.28337 0.0
C806 C 0.72612 0.98199 0.29631 0.0
C807 C 0.72814 0.96537 0.27855 0.0
H808 H 0.05989 0.72682 0.27174 0.0
H809 H 0.05103 0.76464 0.35172 0.0
H810 H 0.02573 0.72461 0.26382 0.0
H811 H 0.01672 0.76271 0.34335 0.0
H812 H 0.95462 0.74445 0.33245 0.0
H813 H 0.98851 0.74224 0.34482 0.0
H814 H 0.00156 0.74599 0.24402 0.0
H815 H 0.96787 0.74786 0.23167 0.0
C816 C 0.05065 0.7346 0.28778 0.0
C817 C 0.05822 0.74606 0.31218 0.0
C818 C 0.03104 0.7334 0.28312 0.0
C819 C 0.01848 0.74367 0.30268 0.0
C820 C 0.02599 0.75451 0.32797 0.0
C821 C 0.04566 0.75569 0.33269 0.0
C822 C 0.96473 0.74461 0.31293 0.0
C823 C 0.95853 0.74636 0.28106 0.0
C824 C 0.98415 0.74347 0.32005 0.0
C825 C 0.99776 0.74394 0.29543 0.0
C826 C 0.99148 0.74531 0.26356 0.0
C827 C 0.97213 0.7465 0.25648 0.0
H828 H 0.23787 0.95428 0.37444 0.0
H829 H 0.2953 0.94278 0.34355 0.0
H830 H 0.23543 0.97967 0.33521 0.0
H831 H 0.29287 0.96859 0.30426 0.0
H832 H 0.23089 0.01349 0.24474 0.0
H833 H 0.23575 0.98402 0.27416 0.0
H834 H 0.2889 0.00543 0.3109 0.0
H835 H 0.28406 0.03508 0.28162 0.0
C836 C 0.24995 0.95712 0.35912 0.0
C837 C 0.26681 0.94662 0.36217 0.0
C838 C 0.24849 0.97156 0.33649 0.0
C839 C 0.26395 0.97604 0.3167 0.0
C840 C 0.28077 0.96539 0.31932 0.0
C841 C 0.28212 0.95063 0.34166 0.0
C842 C 0.24378 0.01184 0.25865 0.0
C843 C 0.25697 0.02673 0.26118 0.0
C844 C 0.24652 0.99497 0.27551 0.0
C845 C 0.26262 0.99254 0.29494 0.0
C846 C 0.27641 0.00692 0.29594 0.0
C847 C 0.27357 0.02392 0.27933 0.0
H848 H 0.04595 0.7494 0.6663 0.0
H849 H 0.03541 0.72476 0.75928 0.0
H850 H 0.01183 0.75212 0.65733 0.0
H851 H 0.00134 0.72705 0.74999 0.0
H852 H 0.94508 0.75878 0.74229 0.0
H853 H 0.97883 0.75271 0.74814 0.0
H854 H 0.98188 0.73551 0.64904 0.0
H855 H 0.94792 0.74204 0.64295 0.0
C856 C 0.03637 0.74427 0.68461 0.0
C857 C 0.04342 0.73706 0.71368 0.0
C858 C 0.01678 0.74576 0.6794 0.0
C859 C 0.00382 0.74003 0.7031 0.0
C860 C 0.01092 0.73198 0.7315 0.0
C861 C 0.03047 0.73055 0.73675 0.0
C862 C 0.95289 0.75367 0.7217 0.0
C863 C 0.94377 0.7509 0.69214 0.0
C864 C 0.97226 0.75003 0.72514 0.0
C865 C 0.98308 0.74345 0.69915 0.0
C866 C 0.974 0.74069 0.66949 0.0
C867 C 0.95453 0.74437 0.66602 0.0
H868 H 0.22847 0.95733 0.68864 0.0
H869 H 0.26899 0.96773 0.76438 0.0
H870 H 0.23322 0.98922 0.66874 0.0
H871 H 0.27344 0.00018 0.74472 0.0
H872 H 0.29101 0.04731 0.66919 0.0
H873 H 0.28662 0.01775 0.69916 0.0
H874 H 0.22606 0.02125 0.68299 0.0
H875 H 0.23061 0.05013 0.6521 0.0
C876 C 0.23831 0.96649 0.70123 0.0
C877 C 0.24829 0.96001 0.72817 0.0
C878 C 0.24092 0.98489 0.68997 0.0
C879 C 0.25347 0.99739 0.70548 0.0
C880 C 0.26368 0.99088 0.73225 0.0
C881 C 0.26111 0.97233 0.74352 0.0
C882 C 0.27676 0.04193 0.6728 0.0
C883 C 0.26117 0.05075 0.65801 0.0
C884 C 0.27422 0.02502 0.68992 0.0
C885 C 0.25603 0.0169 0.69273 0.0
C886 C 0.24032 0.0268 0.68039 0.0
C887 C 0.24289 0.04342 0.66292 0.0
H888 H 0.05349 0.25167 0.64479 0.0
H889 H 0.05351 0.24629 0.74778 0.0
H890 H 0.01921 0.25726 0.64573 0.0
H891 H 0.01941 0.25134 0.74865 0.0
H892 H 0.96095 0.27581 0.74601 0.0
H893 H 0.9954 0.2749 0.74081 0.0
H894 H 0.98997 0.24042 0.6558 0.0
H895 H 0.9555 0.2418 0.66047 0.0
C896 C 0.04619 0.25166 0.6676 0.0
C897 C 0.05625 0.24853 0.6962 0.0
C898 C 0.02654 0.25479 0.66813 0.0
C899 C 0.01652 0.25485 0.69728 0.0
C900 C 0.02666 0.25179 0.72582 0.0
C901 C 0.04625 0.24873 0.72529 0.0
C902 C 0.96709 0.26825 0.72596 0.0
C903 C 0.95546 0.25873 0.70384 0.0
C904 C 0.98687 0.26761 0.7231 0.0
C905 C 0.99551 0.25735 0.69815 0.0
C906 C 0.98384 0.24856 0.67519 0.0
C907 C 0.96404 0.24929 0.67796 0.0
H908 H 0.75221 0.00903 0.77326 0.0
H909 H 0.72645 0.04287 0.69858 0.0
H910 H 0.74747 0.98049 0.74079 0.0
H911 H 0.72183 0.01446 0.66647 0.0
H912 H 0.74762 0.96748 0.60355 0.0
H913 H 0.74765 0.99414 0.6403 0.0
H914 H 0.72133 0.95941 0.71287 0.0
H915 H 0.72114 0.93241 0.67578 0.0
C916 C 0.74526 0.01035 0.75023 0.0
C917 C 0.73996 0.02825 0.7383 0.0
C918 C 0.74249 0.99402 0.73176 0.0
C919 C 0.73453 0.99538 0.70103 0.0
C920 C 0.72826 0.0131 0.68993 0.0
C921 C 0.73087 0.02935 0.70839 0.0
C922 C 0.74184 0.96542 0.62731 0.0
C923 C 0.73436 0.9478 0.63671 0.0
C924 C 0.74173 0.98076 0.64827 0.0
C925 C 0.73433 0.97885 0.67926 0.0
C926 C 0.7271 0.96121 0.68904 0.0
C927 C 0.72695 0.94582 0.66781 0.0
H928 H 0.53896 0.75555 0.74026 0.0
H929 H 0.5483 0.75836 0.84236 0.0
H930 H 0.50494 0.7581 0.74875 0.0
H931 H 0.51406 0.76131 0.85086 0.0
H932 H 0.4516 0.73862 0.85049 0.0
H933 H 0.48611 0.74092 0.8461 0.0
H934 H 0.4799 0.77907 0.76586 0.0
H935 H 0.44552 0.77644 0.76976 0.0
C936 C 0.53378 0.75699 0.76454 0.0
C937 C 0.54637 0.75664 0.79063 0.0
C938 C 0.51423 0.75858 0.76941 0.0
C939 C 0.50673 0.75988 0.80051 0.0
C940 C 0.51935 0.7601 0.82662 0.0
C941 C 0.53898 0.75855 0.82173 0.0
C942 C 0.45761 0.74766 0.83214 0.0
C943 C 0.4458 0.75716 0.81024 0.0
C944 C 0.4774 0.74906 0.82973 0.0
C945 C 0.48579 0.76004 0.80542 0.0
C946 C 0.47392 0.7702 0.78447 0.0
C947 C 0.45419 0.76875 0.78681 0.0
H948 H 0.26017 0.48209 0.71813 0.0
H949 H 0.22876 0.45072 0.78959 0.0
H950 H 0.25498 0.51136 0.74851 0.0
H951 H 0.22381 0.47985 0.81972 0.0
H952 H 0.25113 0.52586 0.8842 0.0
H953 H 0.25106 0.49895 0.84792 0.0
H954 H 0.22751 0.53401 0.77312 0.0
H955 H 0.22728 0.56127 0.80982 0.0
C956 C 0.25186 0.48148 0.7399 0.0
C957 C 0.24515 0.46403 0.75171 0.0
C958 C 0.24884 0.49823 0.75717 0.0
C959 C 0.23923 0.49772 0.78657 0.0
C960 C 0.23147 0.48052 0.79726 0.0
C961 C 0.23429 0.46387 0.77993 0.0
C962 C 0.24597 0.52795 0.86004 0.0
C963 C 0.23921 0.54572 0.8499 0.0
C964 C 0.24579 0.51248 0.83936 0.0
C965 C 0.2391 0.51442 0.80792 0.0
C966 C 0.23268 0.53222 0.79735 0.0
C967 C 0.23253 0.54773 0.81832 0.0
H968 H 0.47856 0.24179 0.73088 0.0
H969 H 0.46167 0.24292 0.83025 0.0
H970 H 0.5115 0.23774 0.74686 0.0
H971 H 0.49479 0.23852 0.84629 0.0
H972 H 0.5578 0.25904 0.85682 0.0
H973 H 0.5238 0.25782 0.84541 0.0
H974 H 0.53403 0.21627 0.77142 0.0
H975 H 0.56797 0.21776 0.78234 0.0
C976 C 0.48183 0.24087 0.75616 0.0
C977 C 0.46748 0.2428 0.77927 0.0
C978 C 0.50075 0.23843 0.76534 0.0
C979 C 0.50582 0.23788 0.79788 0.0
C980 C 0.49138 0.23913 0.82104 0.0
C981 C 0.47239 0.24151 0.81183 0.0
C982 C 0.55277 0.24949 0.83837 0.0
C983 C 0.56563 0.23868 0.82024 0.0
C984 C 0.53326 0.2487 0.83194 0.0
C985 C 0.5262 0.23707 0.80729 0.0
C986 C 0.53902 0.22563 0.79018 0.0
C987 C 0.55849 0.22644 0.79655 0.0
H988 H 0.73746 0.45621 0.86342 0.0
H989 H 0.79412 0.44593 0.8276 0.0
H990 H 0.73358 0.48201 0.82527 0.0
H991 H 0.79021 0.47204 0.78937 0.0
H992 H 0.78122 0.53846 0.77085 0.0
H993 H 0.78665 0.50819 0.79781 0.0
H994 H 0.73199 0.4882 0.76528 0.0
H995 H 0.72651 0.51837 0.73822 0.0
C996 C 0.74903 0.45936 0.84718 0.0
C997 C 0.76614 0.44914 0.84864 0.0
C998 C 0.74674 0.47403 0.82517 0.0
C999 C 0.7616 0.47899 0.80439 0.0
C1000 C 0.77857 0.4685 0.80523 0.0
C1001 C 0.78076 0.45356 0.82698 0.0
C1002 C 0.77051 0.52749 0.76897 0.0
C1003 C 0.75334 0.53089 0.75275 0.0
C1004 C 0.77368 0.51013 0.78424 0.0
C1005 C 0.75966 0.49595 0.7838 0.0
C1006 C 0.74294 0.49899 0.7662 0.0
C1007 C 0.73985 0.51625 0.75066 0.0
H1008 H 0.43451 0.21849 0.21633 0.0
H1009 H 0.44527 0.25888 0.1407 0.0
H1010 H 0.4684 0.21669 0.22743 0.0
H1011 H 0.47924 0.25735 0.15228 0.0
H1012 H 0.54119 0.24167 0.16823 0.0
H1013 H 0.50803 0.23768 0.15212 0.0
H1014 H 0.49112 0.23816 0.25147 0.0
H1015 H 0.5241 0.24181 0.26752 0.0
C1016 C 0.44411 0.22691 0.20191 0.0
C1017 C 0.43715 0.23899 0.17784 0.0
C1018 C 0.46356 0.22593 0.20838 0.0
C1019 C 0.47653 0.23703 0.191 0.0
C1020 C 0.46966 0.2485 0.16597 0.0
C1021 C 0.45016 0.24946 0.15944 0.0
C1022 C 0.5304 0.24064 0.18662 0.0
C1023 C 0.53528 0.24215 0.21917 0.0
C1024 C 0.5114 0.23849 0.17737 0.0
C1025 C 0.4969 0.23768 0.20048 0.0
C1026 C 0.50192 0.2385 0.23303 0.0
C1027 C 0.52085 0.24071 0.24225 0.0
H1028 H 0.77505 0.56029 0.19486 0.0
H1029 H 0.75518 0.52345 0.11919 0.0
H1030 H 0.77488 0.53321 0.23204 0.0
H1031 H 0.75532 0.49677 0.15586 0.0
H1032 H 0.7764 0.44957 0.21664 0.0
H1033 H 0.78207 0.47878 0.18715 0.0
H1034 H 0.74727 0.50968 0.25423 0.0
H1035 H 0.74138 0.48032 0.28398 0.0
C1036 C 0.77072 0.54648 0.18617 0.0
C1037 C 0.76507 0.54402 0.15413 0.0
C1038 C 0.77061 0.53106 0.2074 0.0
C1039 C 0.76529 0.51294 0.19661 0.0
C1040 C 0.75974 0.51055 0.16464 0.0
C1041 C 0.75951 0.52589 0.14373 0.0
C1042 C 0.77022 0.4626 0.22558 0.0
C1043 C 0.75814 0.46255 0.25235 0.0
C1044 C 0.77349 0.47932 0.20864 0.0
C1045 C 0.76491 0.49636 0.21826 0.0
C1046 C 0.75406 0.49669 0.24642 0.0
C1047 C 0.75064 0.47988 0.26331 0.0
H1048 H 0.46147 0.75118 0.26303 0.0
H1049 H 0.45167 0.75705 0.16142 0.0
H1050 H 0.49551 0.75256 0.25409 0.0
H1051 H 0.48599 0.75878 0.1525 0.0
H1052 H 0.54817 0.73475 0.1507 0.0
H1053 H 0.51368 0.73759 0.15546 0.0
H1054 H 0.52076 0.77369 0.23814 0.0
H1055 H 0.55506 0.77054 0.23383 0.0
C1056 C 0.46657 0.753 0.23877 0.0
C1057 C 0.45382 0.75395 0.21294 0.0
C1058 C 0.48614 0.75391 0.23366 0.0
C1059 C 0.49351 0.75581 0.20257 0.0
C1060 C 0.48077 0.75713 0.17671 0.0
C1061 C 0.46112 0.75627 0.18185 0.0
C1062 C 0.54235 0.74346 0.16966 0.0
C1063 C 0.55436 0.75222 0.19212 0.0
C1064 C 0.52258 0.74516 0.17231 0.0
C1065 C 0.51444 0.75569 0.19742 0.0
C1066 C 0.52653 0.76515 0.21892 0.0
C1067 C 0.54623 0.76341 0.21634 0.0
H1068 H 0.21712 0.43576 0.18554 0.0
H1069 H 0.24374 0.46999 0.1123 0.0
H1070 H 0.21777 0.4631 0.22203 0.0
H1071 H 0.24417 0.49692 0.14837 0.0
H1072 H 0.22262 0.54636 0.20452 0.0
H1073 H 0.21795 0.51742 0.17378 0.0
H1074 H 0.2443 0.48476 0.24904 0.0
H1075 H 0.24911 0.51384 0.28013 0.0
C1076 C 0.22311 0.44903 0.17725 0.0
C1077 C 0.23036 0.45069 0.14599 0.0
C1078 C 0.22349 0.46461 0.19812 0.0
C1079 C 0.23081 0.48212 0.1878 0.0
C1080 C 0.23818 0.48366 0.15675 0.0
C1081 C 0.23805 0.46815 0.13617 0.0
C1082 C 0.22719 0.53302 0.21485 0.0
C1083 C 0.23651 0.53245 0.24459 0.0
C1084 C 0.22454 0.51646 0.19717 0.0
C1085 C 0.23099 0.49895 0.20892 0.0
C1086 C 0.23918 0.49812 0.23953 0.0
C1087 C 0.24199 0.51476 0.2572 0.0
H1088 H 0.10354 0.24787 0.40217 0.0
H1089 H 0.16241 0.23042 0.40387 0.0
H1090 H 0.10353 0.24944 0.46063 0.0
H1091 H 0.16221 0.23142 0.46183 0.0
H1092 H 0.16386 0.25473 0.56102 0.0
H1093 H 0.16161 0.25456 0.50315 0.0
H1094 H 0.10526 0.23051 0.50924 0.0
H1095 H 0.10729 0.23126 0.5677 0.0
C1096 C 0.11642 0.24423 0.41498 0.0
C1097 C 0.13303 0.2392 0.3983 0.0
C1098 C 0.11638 0.24505 0.44848 0.0
C1099 C 0.13293 0.24077 0.46595 0.0
C1100 C 0.14934 0.23529 0.44918 0.0
C1101 C 0.14942 0.23461 0.41585 0.0
C1102 C 0.15093 0.24945 0.55011 0.0
C1103 C 0.13582 0.24282 0.56901 0.0
C1104 C 0.14969 0.24925 0.51685 0.0
C1105 C 0.13339 0.2422 0.50147 0.0
C1106 C 0.11799 0.2361 0.52032 0.0
C1107 C 0.11917 0.23647 0.5538 0.0
H1108 H 0.75896 0.14467 0.64936 0.0
H1109 H 0.73954 0.08668 0.65749 0.0
H1110 H 0.75328 0.14364 0.59173 0.0
H1111 H 0.73342 0.08587 0.60039 0.0
H1112 H 0.74226 0.0826 0.49455 0.0
H1113 H 0.75016 0.08515 0.55082 0.0
H1114 H 0.72774 0.14222 0.55252 0.0
H1115 H 0.72051 0.13992 0.49543 0.0
C1116 C 0.75344 0.13174 0.63892 0.0
C1117 C 0.7498 0.11573 0.65808 0.0
C1118 C 0.75008 0.13119 0.60591 0.0
C1119 C 0.74299 0.11465 0.59138 0.0
C1120 C 0.73925 0.09872 0.61064 0.0
C1121 C 0.74267 0.09923 0.6435 0.0
C1122 C 0.73927 0.09582 0.50666 0.0
C1123 C 0.73083 0.11109 0.49038 0.0
C1124 C 0.7436 0.0972 0.53914 0.0
C1125 C 0.73943 0.11382 0.55632 0.0
C1126 C 0.7313 0.12927 0.53994 0.0
C1127 C 0.72706 0.12792 0.50728 0.0
H1128 H 0.84224 0.75063 0.3914 0.0
H1129 H 0.90214 0.76408 0.38984 0.0
H1130 H 0.84252 0.75151 0.44933 0.0
H1131 H 0.90228 0.76554 0.44839 0.0
H1132 H 0.89607 0.74764 0.55628 0.0
H1133 H 0.89889 0.7469 0.49776 0.0
H1134 H 0.84467 0.77529 0.48964 0.0
H1135 H 0.84163 0.77544 0.54737 0.0
C1136 C 0.85548 0.7539 0.40342 0.0
C1137 C 0.87212 0.75749 0.38592 0.0
C1138 C 0.85562 0.75451 0.43673 0.0
C1139 C 0.87235 0.75894 0.45354 0.0
C1140 C 0.88917 0.76204 0.43616 0.0
C1141 C 0.88907 0.76128 0.40264 0.0
C1142 C 0.88488 0.75384 0.54186 0.0
C1143 C 0.86849 0.7613 0.55635 0.0
C1144 C 0.8865 0.75345 0.5084 0.0
C1145 C 0.87181 0.76068 0.489 0.0
C1146 C 0.85597 0.76905 0.50377 0.0
C1147 C 0.85427 0.76923 0.53693 0.0
H1148 H 0.26842 0.85197 0.67468 0.0
H1149 H 0.23763 0.90483 0.67003 0.0
H1150 H 0.27536 0.85417 0.61772 0.0
H1151 H 0.24326 0.90648 0.61274 0.0
H1152 H 0.27396 0.91647 0.51961 0.0
H1153 H 0.26606 0.91329 0.57582 0.0
H1154 H 0.26526 0.85218 0.56548 0.0
H1155 H 0.27457 0.85556 0.50955 0.0
C1156 C 0.26283 0.86388 0.66126 0.0
C1157 C 0.25262 0.8783 0.67677 0.0
C1158 C 0.26669 0.86512 0.62848 0.0
C1159 C 0.26002 0.88059 0.61027 0.0
C1160 C 0.24916 0.89462 0.62585 0.0
C1161 C 0.24576 0.89363 0.65873 0.0
C1162 C 0.27206 0.90237 0.5294 0.0
C1163 C 0.27492 0.88627 0.51027 0.0
C1164 C 0.26734 0.9005 0.56168 0.0
C1165 C 0.26485 0.88245 0.57556 0.0
C1166 C 0.26739 0.86632 0.55605 0.0
C1167 C 0.27259 0.86822 0.52387 0.0
H1168 H 0.16169 0.77519 0.45145 0.0
H1169 H 0.10581 0.75078 0.43986 0.0
H1170 H 0.15871 0.77279 0.50905 0.0
H1171 H 0.10303 0.74777 0.4981 0.0
H1172 H 0.10009 0.76172 0.60715 0.0
H1173 H 0.10037 0.76481 0.54881 0.0
H1174 H 0.15939 0.74795 0.54748 0.0
H1175 H 0.15929 0.74548 0.60531 0.0
C1176 C 0.14876 0.76922 0.46123 0.0
C1177 C 0.13408 0.76296 0.44106 0.0
C1178 C 0.14709 0.76774 0.49433 0.0
C1179 C 0.13079 0.75972 0.50823 0.0
C1180 C 0.11576 0.75405 0.48816 0.0
C1181 C 0.11737 0.75572 0.45483 0.0
C1182 C 0.11308 0.75862 0.5943 0.0
C1183 C 0.12974 0.7536 0.61091 0.0
C1184 C 0.11322 0.76032 0.56088 0.0
C1185 C 0.12998 0.75692 0.54348 0.0
C1186 C 0.14637 0.75121 0.56013 0.0
C1187 C 0.14629 0.74969 0.59336 0.0
H1188 H 0.24833 0.14304 0.35132 0.0
H1189 H 0.26536 0.08431 0.34291 0.0
H1190 H 0.25442 0.14185 0.40877 0.0
H1191 H 0.27189 0.08331 0.39993 0.0
H1192 H 0.26292 0.08091 0.50623 0.0
H1193 H 0.25533 0.08345 0.44985 0.0
H1194 H 0.28027 0.13944 0.44738 0.0
H1195 H 0.28723 0.13718 0.50461 0.0
C1196 C 0.25341 0.1299 0.36166 0.0
C1197 C 0.25627 0.11374 0.34246 0.0
C1198 C 0.25702 0.12926 0.39457 0.0
C1199 C 0.26359 0.11248 0.40899 0.0
C1200 C 0.26651 0.09638 0.38974 0.0
C1201 C 0.26285 0.09698 0.35693 0.0
C1202 C 0.26656 0.0939 0.49391 0.0
C1203 C 0.27556 0.1089 0.51005 0.0
C1204 C 0.2624 0.09526 0.46138 0.0
C1205 C 0.26731 0.11159 0.44398 0.0
C1206 C 0.27613 0.12673 0.46015 0.0
C1207 C 0.28023 0.1254 0.49288 0.0
H1208 H 0.83755 0.2294 0.43598 0.0
H1209 H 0.8958 0.24815 0.42798 0.0
H1210 H 0.83958 0.2316 0.49375 0.0
H1211 H 0.89763 0.25107 0.48615 0.0
H1212 H 0.89914 0.2339 0.5931 0.0
H1213 H 0.89866 0.23321 0.53469 0.0
H1214 H 0.84084 0.2539 0.53551 0.0
H1215 H 0.8411 0.25382 0.59361 0.0
C1216 C 0.85076 0.2342 0.44655 0.0
C1217 C 0.8665 0.23865 0.4273 0.0
C1218 C 0.85189 0.23559 0.47978 0.0
C1219 C 0.86871 0.24171 0.49475 0.0
C1220 C 0.88451 0.24613 0.4755 0.0
C1221 C 0.88344 0.24454 0.44214 0.0
C1222 C 0.88638 0.23841 0.58073 0.0
C1223 C 0.87008 0.2437 0.59799 0.0
C1224 C 0.88612 0.2381 0.54722 0.0
C1225 C 0.86962 0.24327 0.53028 0.0
C1226 C 0.85363 0.24932 0.54767 0.0
C1227 C 0.85381 0.24939 0.58105 0.0
H1228 H 0.71716 0.85383 0.49099 0.0
H1229 H 0.74119 0.91023 0.48979 0.0
H1230 H 0.72395 0.8507 0.43373 0.0
H1231 H 0.74863 0.90681 0.43364 0.0
H1232 H 0.7546 0.84761 0.33498 0.0
H1233 H 0.74919 0.84838 0.39285 0.0
H1234 H 0.73049 0.90659 0.38536 0.0
H1235 H 0.73628 0.90603 0.3283 0.0
C1236 C 0.72413 0.86543 0.4787 0.0
C1237 C 0.72862 0.88228 0.49505 0.0
C1238 C 0.72811 0.86359 0.44596 0.0
C1239 C 0.73665 0.87859 0.42901 0.0
C1240 C 0.74169 0.89512 0.44574 0.0
C1241 C 0.73762 0.89699 0.47819 0.0
C1242 C 0.74937 0.86056 0.34576 0.0
C1243 C 0.74606 0.87681 0.32697 0.0
C1244 C 0.74618 0.86097 0.37888 0.0
C1245 C 0.7396 0.87761 0.3938 0.0
C1246 C 0.73598 0.89367 0.37483 0.0
C1247 C 0.73923 0.8933 0.34196 0.0
H1248 H 0.60582 0.73231 0.06794 0.0
H1249 H 0.66298 0.7546 0.06631 0.0
H1250 H 0.60441 0.73441 0.00971 0.0
H1251 H 0.66134 0.75738 0.00843 0.0
H1252 H 0.66211 0.73552 0.90638 0.0
H1253 H 0.66205 0.73655 0.96426 0.0
H1254 H 0.60333 0.7545 0.96336 0.0
H1255 H 0.6032 0.75283 0.90495 0.0
C1256 C 0.61797 0.73793 0.0552 0.0
C1257 C 0.6346 0.74306 0.07174 0.0
C1258 C 0.61713 0.73924 0.0218 0.0
C1259 C 0.63284 0.74587 0.00426 0.0
C1260 C 0.64914 0.75176 0.02103 0.0
C1261 C 0.65005 0.75025 0.05429 0.0
C1262 C 0.64918 0.73981 0.91838 0.0
C1263 C 0.63265 0.74409 0.90089 0.0
C1264 C 0.64918 0.74053 0.95172 0.0
C1265 C 0.63272 0.74573 0.96861 0.0
C1266 C 0.61621 0.75024 0.95116 0.0
C1267 C 0.61616 0.74939 0.91766 0.0
H1268 H 0.2435 0.58207 0.99804 0.0
H1269 H 0.21964 0.63855 0.99591 0.0
H1270 H 0.25103 0.58584 0.05424 0.0
H1271 H 0.22656 0.64205 0.05298 0.0
H1272 H 0.25735 0.647 0.15015 0.0
H1273 H 0.25213 0.64489 0.09245 0.0
H1274 H 0.23366 0.5868 0.10341 0.0
H1275 H 0.23927 0.5887 0.16057 0.0
C1276 C 0.23997 0.59538 0.00947 0.0
C1277 C 0.23104 0.61005 0.99236 0.0
C1278 C 0.2441 0.59745 0.0419 0.0
C1279 C 0.23924 0.61417 0.05823 0.0
C1280 C 0.23064 0.62904 0.04104 0.0
C1281 C 0.22657 0.62699 0.0084 0.0
C1282 C 0.25225 0.63375 0.1402 0.0
C1283 C 0.24881 0.61799 0.16004 0.0
C1284 C 0.24915 0.63259 0.10716 0.0
C1285 C 0.24256 0.61566 0.09328 0.0
C1286 C 0.23908 0.59996 0.11318 0.0
C1287 C 0.24222 0.60109 0.14607 0.0
H1288 H 0.3956 0.26508 0.04644 0.0
H1289 H 0.33804 0.24662 0.02814 0.0
H1290 H 0.40096 0.26792 0.98871 0.0
H1291 H 0.34351 0.24906 0.97108 0.0
H1292 H 0.35038 0.27783 0.87581 0.0
H1293 H 0.3474 0.27462 0.93336 0.0
H1294 H 0.40345 0.24983 0.93816 0.0
H1295 H 0.40668 0.2534 0.88021 0.0
C1296 C 0.38419 0.26144 0.03017 0.0
C1297 C 0.36633 0.25586 0.04195 0.0
C1298 C 0.38727 0.26301 0.99713 0.0
C1299 C 0.37256 0.25899 0.97533 0.0
C1300 C 0.35499 0.25274 0.9872 0.0
C1301 C 0.3519 0.25125 0.02001 0.0
C1302 C 0.36212 0.27168 0.889 0.0
C1303 C 0.37872 0.26573 0.87326 0.0
C1304 C 0.36036 0.26976 0.92207 0.0
C1305 C 0.3751 0.26175 0.94033 0.0
C1306 C 0.39188 0.25614 0.92478 0.0
C1307 C 0.39368 0.2581 0.89156 0.0
H1308 H 0.76366 0.40797 0.16442 0.0
H1309 H 0.74681 0.34984 0.14756 0.0
H1310 H 0.77306 0.41095 0.1088 0.0
H1311 H 0.75579 0.35304 0.09139 0.0
H1312 H 0.79179 0.36098 -9e-05 0.0
H1313 H 0.78305 0.35672 0.05609 0.0
H1314 H 0.75868 0.41299 0.0572 0.0
H1315 H 0.76803 0.41749 0.00192 0.0
C1316 C 0.76182 0.39584 0.14882 0.0
C1317 C 0.75438 0.37868 0.1605 0.0
C1318 C 0.76715 0.39759 0.11681 0.0
C1319 C 0.76506 0.38228 0.09552 0.0
C1320 C 0.75777 0.36505 0.10721 0.0
C1321 C 0.75251 0.36326 0.13937 0.0
C1322 C 0.78458 0.37242 0.01223 0.0
C1323 C 0.78053 0.38953 0.99636 0.0
C1324 C 0.77946 0.36994 0.04434 0.0
C1325 C 0.7702 0.38454 0.06121 0.0
C1326 C 0.76605 0.40156 0.04515 0.0
C1327 C 0.77123 0.40405 0.01323 0.0
H1328 H 0.59596 0.25231 0.11777 0.0
H1329 H 0.65159 0.2782 0.12208 0.0
H1330 H 0.59905 0.24928 0.05967 0.0
H1331 H 0.65443 0.27552 0.06443 0.0
H1332 H 0.66463 0.24697 0.97028 0.0
H1333 H 0.65895 0.24967 0.02721 0.0
H1334 H 0.60126 0.26752 0.0088 0.0
H1335 H 0.60685 0.26445 0.95113 0.0
C1336 C 0.60876 0.25749 0.10636 0.0
C1337 C 0.62363 0.26528 0.12468 0.0
C1338 C 0.61048 0.25583 0.07307 0.0
C1339 C 0.62709 0.26193 0.0575 0.0
C1340 C 0.64163 0.27027 0.07576 0.0
C1341 C 0.63996 0.27187 0.10887 0.0
C1342 C 0.65068 0.25145 0.97819 0.0
C1343 C 0.63625 0.2557 0.95603 0.0
C1344 C 0.64746 0.25309 0.01093 0.0
C1345 C 0.62976 0.25913 0.02255 0.0
C1346 C 0.61506 0.26281 0.00056 0.0
C1347 C 0.61827 0.2611 0.96756 0.0
H1348 H 0.78355 0.63518 0.00521 0.0
H1349 H 0.76018 0.57851 0.00467 0.0
H1350 H 0.77643 0.63819 0.94824 0.0
H1351 H 0.75246 0.58175 0.94833 0.0
H1352 H 0.76193 0.58531 0.84066 0.0
H1353 H 0.76838 0.58287 0.89771 0.0
H1354 H 0.75045 0.64099 0.91067 0.0
H1355 H 0.74445 0.64363 0.85346 0.0
C1356 C 0.77671 0.62345 0.99305 0.0
C1357 C 0.77236 0.60664 0.00955 0.0
C1358 C 0.77253 0.62521 0.96044 0.0
C1359 C 0.7639 0.61019 0.94367 0.0
C1360 C 0.75935 0.59349 0.96035 0.0
C1361 C 0.7636 0.59172 0.99283 0.0
C1362 C 0.7593 0.59757 0.85565 0.0
C1363 C 0.75269 0.61467 0.8424 0.0
C1364 C 0.76292 0.59614 0.88843 0.0
C1365 C 0.75992 0.61174 0.90881 0.0
C1366 C 0.75317 0.62879 0.89561 0.0
C1367 C 0.74962 0.63025 0.86279 0.0
H1368 H 0.39485 0.73459 0.93505 0.0
H1369 H 0.33904 0.76004 0.93834 0.0
H1370 H 0.39633 0.73527 0.99349 0.0
H1371 H 0.34077 0.76133 0.9963 0.0
H1372 H 0.3382 0.73805 0.09667 0.0
H1373 H 0.33886 0.73915 0.03878 0.0
H1374 H 0.39825 0.75461 0.04128 0.0
H1375 H 0.39775 0.75292 0.09973 0.0
C1376 C 0.38304 0.74059 0.94821 0.0
C1377 C 0.36672 0.74702 0.93207 0.0
C1378 C 0.38391 0.74105 0.9817 0.0
C1379 C 0.36855 0.7481 0.99967 0.0
C1380 C 0.35265 0.75532 0.98333 0.0
C1381 C 0.3517 0.75468 0.95002 0.0
C1382 C 0.35143 0.74174 0.08501 0.0
C1383 C 0.36791 0.74548 0.10296 0.0
C1384 C 0.35178 0.7425 0.05169 0.0
C1385 C 0.36856 0.74719 0.03527 0.0
C1386 C 0.38512 0.75082 0.05314 0.0
C1387 C 0.38481 0.74994 0.08664 0.0
H1388 H 0.25713 0.34968 0.85172 0.0
H1389 H 0.23589 0.4064 0.83535 0.0
H1390 H 0.24772 0.35194 0.90787 0.0
H1391 H 0.22601 0.4084 0.89082 0.0
H1392 H 0.23122 0.41564 0.99714 0.0
H1393 H 0.24044 0.41163 0.94181 0.0
H1394 H 0.22072 0.35359 0.94417 0.0
H1395 H 0.2122 0.3574 0.00061 0.0
C1396 C 0.25034 0.36256 0.86001 0.0
C1397 C 0.24746 0.37793 0.83909 0.0
C1398 C 0.24483 0.3638 0.89214 0.0
C1399 C 0.23625 0.38041 0.90396 0.0
C1400 C 0.23297 0.39556 0.88277 0.0
C1401 C 0.23858 0.39438 0.85084 0.0
C1402 C 0.22903 0.40192 0.98613 0.0
C1403 C 0.22112 0.38679 0.00346 0.0
C1404 C 0.23411 0.39969 0.95414 0.0
C1405 C 0.2312 0.38233 0.93838 0.0
C1406 C 0.22332 0.36711 0.95567 0.0
C1407 C 0.21832 0.36932 0.98792 0.0
H1408 H 0.20064 0.35332 0.18208 0.0
H1409 H 0.14663 0.38213 0.17457 0.0
H1410 H 0.18723 0.3317 0.22114 0.0
H1411 H 0.13321 0.36057 0.21444 0.0
H1412 H 0.11375 0.29888 0.24598 0.0
H1413 H 0.12416 0.32722 0.21724 0.0
H1414 H 0.17523 0.32885 0.2746 0.0
H1415 H 0.16511 0.30025 0.30243 0.0
C1416 C 0.18595 0.35521 0.18909 0.0
C1417 C 0.1747 0.36939 0.17501 0.0
C1418 C 0.17827 0.3429 0.21178 0.0
C1419 C 0.15912 0.34443 0.22112 0.0
C1420 C 0.14795 0.35892 0.20763 0.0
C1421 C 0.15568 0.3713 0.18487 0.0
C1422 C 0.12689 0.30568 0.25312 0.0
C1423 C 0.13876 0.29722 0.27607 0.0
C1424 C 0.13289 0.32191 0.23662 0.0
C1425 C 0.15078 0.33002 0.24305 0.0
C1426 C 0.16165 0.32264 0.26839 0.0
C1427 C 0.15577 0.30635 0.28455 0.0
H1428 H 0.66198 0.21336 0.22064 0.0
H1429 H 0.61044 0.20245 0.27338 0.0
H1430 H 0.67596 0.18443 0.24189 0.0
H1431 H 0.62471 0.17378 0.2959 0.0
H1432 H 0.65315 0.11826 0.3229 0.0
H1433 H 0.63737 0.14235 0.29032 0.0
H1434 H 0.68846 0.17635 0.29244 0.0
H1435 H 0.70428 0.15214 0.3239 0.0
C1436 C 0.65356 0.20462 0.23655 0.0
C1437 C 0.6352 0.21026 0.24564 0.0
C1438 C 0.66163 0.1881 0.24896 0.0
C1439 C 0.65168 0.17696 0.27127 0.0
C1440 C 0.6328 0.18195 0.27872 0.0
C1441 C 0.62459 0.19839 0.26585 0.0
C1442 C 0.66106 0.13078 0.31603 0.0
C1443 C 0.67998 0.13328 0.3261 0.0
C1444 C 0.65197 0.14465 0.2975 0.0
C1445 C 0.66158 0.16135 0.28869 0.0
C1446 C 0.68065 0.16356 0.29817 0.0
C1447 C 0.68974 0.14969 0.31649 0.0
H1448 H 0.79788 0.64143 0.18676 0.0
H1449 H 0.8513 0.61328 0.16832 0.0
H1450 H 0.81379 0.66325 0.2228 0.0
H1451 H 0.86726 0.635 0.20515 0.0
H1452 H 0.88816 0.69702 0.23198 0.0
H1453 H 0.87613 0.66836 0.206 0.0
H1454 H 0.82955 0.66654 0.27323 0.0
H1455 H 0.84123 0.69548 0.29825 0.0
C1456 C 0.81299 0.63971 0.19076 0.0
C1457 C 0.82331 0.62567 0.17447 0.0
C1458 C 0.82213 0.65214 0.21171 0.0
C1459 C 0.84184 0.65086 0.21705 0.0
C1460 C 0.8521 0.63648 0.20141 0.0
C1461 C 0.84293 0.624 0.18039 0.0
C1462 C 0.87575 0.69008 0.24185 0.0
C1463 C 0.86548 0.69856 0.26683 0.0
C1464 C 0.86879 0.67367 0.22692 0.0
C1465 C 0.85157 0.66543 0.237 0.0
C1466 C 0.84252 0.67285 0.26425 0.0
C1467 C 0.84932 0.68931 0.27882 0.0
H1468 H 0.33544 0.80503 0.20153 0.0
H1469 H 0.38402 0.79998 0.26404 0.0
H1470 H 0.32444 0.83251 0.2319 0.0
H1471 H 0.37278 0.82735 0.29487 0.0
H1472 H 0.3246 0.84875 0.36582 0.0
H1473 H 0.34191 0.8277 0.32979 0.0
H1474 H 0.33259 0.86674 0.2518 0.0
H1475 H 0.31548 0.88809 0.28803 0.0
C1476 C 0.34407 0.8102 0.22115 0.0
C1477 C 0.36055 0.80037 0.23049 0.0
C1478 C 0.33777 0.82591 0.23853 0.0
C1479 C 0.34764 0.83187 0.26594 0.0
C1480 C 0.36486 0.82291 0.27394 0.0
C1481 C 0.37138 0.8074 0.25612 0.0
C1482 C 0.32632 0.85292 0.34104 0.0
C1483 C 0.31857 0.87003 0.32973 0.0
C1484 C 0.33641 0.84096 0.32051 0.0
C1485 C 0.33872 0.84568 0.28809 0.0
C1486 C 0.33107 0.86282 0.27673 0.0
C1487 C 0.32127 0.87499 0.29744 0.0
H1488 H 0.15184 0.6103 0.83258 0.0
H1489 H 0.20408 0.64 0.81174 0.0
H1490 H 0.13508 0.63014 0.79375 0.0
H1491 H 0.18738 0.6599 0.77361 0.0
H1492 H 0.15914 0.68913 0.69637 0.0
H1493 H 0.17133 0.6608 0.72273 0.0
H1494 H 0.12519 0.6634 0.79073 0.0
H1495 H 0.11267 0.69142 0.76351 0.0
C1496 C 0.15979 0.62094 0.81954 0.0
C1497 C 0.17929 0.62365 0.8254 0.0
C1498 C 0.15015 0.63233 0.79736 0.0
C1499 C 0.15986 0.64657 0.78045 0.0
C1500 C 0.17949 0.64884 0.7857 0.0
C1501 C 0.18907 0.63753 0.80786 0.0
C1502 C 0.1512 0.68318 0.71618 0.0
C1503 C 0.13509 0.69253 0.72814 0.0
C1504 C 0.15829 0.66708 0.73151 0.0
C1505 C 0.14958 0.66019 0.75943 0.0
C1506 C 0.13228 0.66835 0.76931 0.0
C1507 C 0.12503 0.68438 0.75365 0.0
H1508 H 0.30537 0.13606 0.69796 0.0
H1509 H 0.3514 0.14104 0.63016 0.0
H1510 H 0.32086 0.15928 0.73251 0.0
H1511 H 0.36651 0.16468 0.66401 0.0
H1512 H 0.39498 0.20207 0.73647 0.0
H1513 H 0.38246 0.17283 0.71292 0.0
H1514 H 0.32523 0.19256 0.73012 0.0
H1515 H 0.3376 0.22114 0.7543 0.0
C1516 C 0.31884 0.14203 0.6905 0.0
C1517 C 0.32702 0.13686 0.66112 0.0
C1518 C 0.3277 0.1554 0.71025 0.0
C1519 C 0.34487 0.16405 0.70095 0.0
C1520 C 0.35344 0.15821 0.6722 0.0
C1521 C 0.34466 0.14474 0.6526 0.0
C1522 C 0.37975 0.19995 0.73577 0.0
C1523 C 0.36732 0.21408 0.74695 0.0
C1524 C 0.37256 0.18326 0.72205 0.0
C1525 C 0.35281 0.18036 0.71933 0.0
C1526 C 0.3405 0.1941 0.73206 0.0
C1527 C 0.34764 0.21067 0.74572 0.0
H1528 H 0.8349 0.29839 0.71101 0.0
H1529 H 0.89197 0.30027 0.74889 0.0
H1530 H 0.82607 0.32505 0.74412 0.0
H1531 H 0.88331 0.32778 0.78144 0.0
H1532 H 0.85104 0.35041 0.8708 0.0
H1533 H 0.865 0.3311 0.82875 0.0
H1534 H 0.82719 0.35684 0.75964 0.0
H1535 H 0.81265 0.37551 0.80217 0.0
C1536 C 0.84576 0.3049 0.72574 0.0
C1537 C 0.86405 0.29695 0.72776 0.0
C1538 C 0.84071 0.32037 0.74468 0.0
C1539 C 0.85386 0.32846 0.76603 0.0
C1540 C 0.87269 0.32162 0.76585 0.0
C1541 C 0.87775 0.30601 0.74687 0.0
C1542 C 0.84581 0.35206 0.84658 0.0
C1543 C 0.83052 0.36425 0.83992 0.0
C1544 C 0.85397 0.34111 0.82231 0.0
C1545 C 0.8472 0.34226 0.79067 0.0
C1546 C 0.83255 0.35525 0.78379 0.0
C1547 C 0.8242 0.366 0.80816 0.0
H1548 H 0.69719 0.86878 0.68944 0.0
H1549 H 0.65467 0.8479 0.62376 0.0
H1550 H 0.68288 0.85034 0.73245 0.0
H1551 H 0.64083 0.82884 0.66628 0.0
H1552 H 0.61402 0.79976 0.74886 0.0
H1553 H 0.62396 0.8265 0.71554 0.0
H1554 H 0.68204 0.81808 0.74612 0.0
H1555 H 0.67207 0.79215 0.77998 0.0
C1556 C 0.68477 0.86026 0.68419 0.0
C1557 C 0.67722 0.85962 0.65309 0.0
C1558 C 0.67657 0.84964 0.70884 0.0
C1559 C 0.66076 0.83792 0.70289 0.0
C1560 C 0.6528 0.83788 0.67199 0.0
C1561 C 0.66087 0.84867 0.64745 0.0
C1562 C 0.6288 0.80403 0.74916 0.0
C1563 C 0.64228 0.79363 0.76671 0.0
C1564 C 0.63455 0.81922 0.72977 0.0
C1565 C 0.65388 0.82429 0.72761 0.0
C1566 C 0.66704 0.81477 0.74718 0.0
C1567 C 0.66131 0.79972 0.76652 0.0
H1568 H 0.87747 0.69661 0.70677 0.0
H1569 H 0.83943 0.69475 0.62583 0.0
H1570 H 0.86669 0.665 0.72305 0.0
H1571 H 0.82878 0.6634 0.64174 0.0
H1572 H 0.80414 0.6121 0.67631 0.0
H1573 H 0.83212 0.6293 0.65677 0.0
H1574 H 0.834 0.66107 0.74514 0.0
H1575 H 0.8062 0.6441 0.76416 0.0
C1576 C 0.86744 0.6891 0.69171 0.0
C1577 C 0.85895 0.69819 0.66546 0.0
C1578 C 0.86125 0.67104 0.70105 0.0
C1579 C 0.84668 0.66182 0.68396 0.0
C1580 C 0.84007 0.67001 0.65538 0.0
C1581 C 0.84603 0.68808 0.64639 0.0
C1582 C 0.81115 0.62213 0.692 0.0
C1583 C 0.803 0.62704 0.72147 0.0
C1584 C 0.82709 0.63201 0.68083 0.0
C1585 C 0.8351 0.64673 0.69922 0.0
C1586 C 0.8283 0.64977 0.73041 0.0
C1587 C 0.81228 0.64015 0.74128 0.0
H1588 H 0.37424 0.80807 0.85246 0.0
H1589 H 0.34893 0.79395 0.76162 0.0
H1590 H 0.36303 0.84088 0.84679 0.0
H1591 H 0.3379 0.82644 0.7556 0.0
H1592 H 0.31217 0.88023 0.74888 0.0
H1593 H 0.34132 0.86139 0.75242 0.0
H1594 H 0.32869 0.84889 0.85136 0.0
H1595 H 0.29978 0.86765 0.84755 0.0
C1596 C 0.36709 0.81227 0.83061 0.0
C1597 C 0.36238 0.79867 0.80742 0.0
C1598 C 0.3606 0.83097 0.82741 0.0
C1599 C 0.34945 0.83625 0.80088 0.0
C1600 C 0.34663 0.82299 0.77615 0.0
C1601 C 0.35286 0.80432 0.77959 0.0
C1602 C 0.31631 0.87438 0.77183 0.0
C1603 C 0.30389 0.87534 0.79799 0.0
C1604 C 0.33288 0.86345 0.77381 0.0
C1605 C 0.33713 0.85336 0.80198 0.0
C1606 C 0.32595 0.85654 0.82935 0.0
C1607 C 0.30935 0.86731 0.82725 0.0
H1608 H 0.1401 0.30506 0.63396 0.0
H1609 H 0.14256 0.29792 0.73625 0.0
H1610 H 0.1554 0.33604 0.63893 0.0
H1611 H 0.1581 0.3287 0.74144 0.0
H1612 H 0.19341 0.38024 0.74474 0.0
H1613 H 0.16325 0.36397 0.73334 0.0
H1614 H 0.18971 0.33558 0.65326 0.0
H1615 H 0.21952 0.35145 0.66509 0.0
C1616 C 0.14296 0.31065 0.65763 0.0
C1617 C 0.14019 0.29929 0.68475 0.0
C1618 C 0.15183 0.32829 0.66049 0.0
C1619 C 0.15829 0.33461 0.6905 0.0
C1620 C 0.15321 0.32429 0.71801 0.0
C1621 C 0.14429 0.30666 0.71511 0.0
C1622 C 0.19241 0.37107 0.724 0.0
C1623 C 0.20863 0.36697 0.70574 0.0
C1624 C 0.17525 0.36173 0.71756 0.0
C1625 C 0.1741 0.34849 0.69243 0.0
C1626 C 0.18997 0.34588 0.67248 0.0
C1627 C 0.20711 0.35487 0.67931 0.0
H1628 H 0.69673 0.14212 0.7393 0.0
H1629 H 0.6985 0.10723 0.82398 0.0
H1630 H 0.66953 0.15917 0.76046 0.0
H1631 H 0.67115 0.12452 0.84571 0.0
H1632 H 0.66669 0.18924 0.88244 0.0
H1633 H 0.67592 0.15801 0.86361 0.0
H1634 H 0.63715 0.1634 0.78393 0.0
H1635 H 0.62778 0.19488 0.80316 0.0
C1636 C 0.69068 0.13757 0.76187 0.0
C1637 C 0.69973 0.1236 0.78025 0.0
C1638 C 0.675 0.14725 0.77398 0.0
C1639 C 0.66836 0.14339 0.80501 0.0
C1640 C 0.67606 0.12786 0.82181 0.0
C1641 C 0.69164 0.11793 0.80938 0.0
C1642 C 0.65959 0.18344 0.86161 0.0
C1643 C 0.64687 0.19457 0.84384 0.0
C1644 C 0.66473 0.16543 0.85095 0.0
C1645 C 0.65747 0.15835 0.82198 0.0
C1646 C 0.64307 0.16859 0.80621 0.0
C1647 C 0.6377 0.18657 0.81722 0.0
H1648 H 0.7853 0.35095 0.33463 0.0
H1649 H 0.80924 0.37474 0.24865 0.0
H1650 H 0.81443 0.33325 0.3441 0.0
H1651 H 0.83863 0.35671 0.25773 0.0
H1652 H 0.85515 0.28994 0.25732 0.0
H1653 H 0.84027 0.32106 0.2523 0.0
H1654 H 0.84944 0.33107 0.35313 0.0
H1655 H 0.86429 0.29976 0.35791 0.0
C1656 C 0.79719 0.35297 0.31853 0.0
C1657 C 0.7952 0.36416 0.29106 0.0
C1658 C 0.81393 0.3429 0.32394 0.0
C1659 C 0.82882 0.34352 0.30154 0.0
C1660 C 0.82737 0.35598 0.27535 0.0
C1661 C 0.81066 0.36635 0.27024 0.0
C1662 C 0.85484 0.29924 0.27796 0.0
C1663 C 0.86086 0.29267 0.30792 0.0
C1664 C 0.84636 0.31708 0.27515 0.0
C1665 C 0.8435 0.32843 0.30243 0.0
C1666 C 0.85137 0.32257 0.33177 0.0
C1667 C 0.85995 0.30476 0.3345 0.0
H1668 H 0.65317 0.7872 0.24295 0.0
H1669 H 0.62601 0.80164 0.15376 0.0
H1670 H 0.66435 0.81971 0.24857 0.0
H1671 H 0.63755 0.83437 0.1589 0.0
H1672 H 0.68754 0.87562 0.25468 0.0
H1673 H 0.65936 0.85528 0.25185 0.0
H1674 H 0.67281 0.84183 0.15363 0.0
H1675 H 0.70092 0.86189 0.1568 0.0
C1676 C 0.64891 0.79762 0.22528 0.0
C1677 C 0.63874 0.79208 0.19803 0.0
C1678 C 0.65524 0.81627 0.22849 0.0
C1679 C 0.6519 0.82959 0.20406 0.0
C1680 C 0.64029 0.8244 0.17808 0.0
C1681 C 0.63363 0.80575 0.17519 0.0
C1682 C 0.6838 0.86911 0.23204 0.0
C1683 C 0.69621 0.87029 0.20588 0.0
C1684 C 0.66779 0.85738 0.23047 0.0
C1685 C 0.66399 0.84681 0.20264 0.0
C1686 C 0.67521 0.84991 0.1753 0.0
C1687 C 0.69133 0.86139 0.17705 0.0
H1688 H 0.12458 0.70307 0.28576 0.0
H1689 H 0.16138 0.70072 0.36825 0.0
H1690 H 0.13475 0.67102 0.27048 0.0
H1691 H 0.17134 0.66893 0.35346 0.0
H1692 H 0.1937 0.61585 0.32278 0.0
H1693 H 0.16625 0.63473 0.3399 0.0
H1694 H 0.16777 0.66518 0.25021 0.0
H1695 H 0.19507 0.64654 0.23358 0.0
C1696 C 0.13422 0.69539 0.30128 0.0
C1697 C 0.14251 0.70438 0.32781 0.0
C1698 C 0.14005 0.6771 0.29255 0.0
C1699 C 0.15398 0.66752 0.31059 0.0
C1700 C 0.16049 0.67579 0.33915 0.0
C1701 C 0.15494 0.6941 0.34749 0.0
C1702 C 0.18751 0.62595 0.30624 0.0
C1703 C 0.19649 0.62998 0.27708 0.0
C1704 C 0.17188 0.6368 0.31604 0.0
C1705 C 0.16503 0.65163 0.29659 0.0
C1706 C 0.17258 0.65383 0.2657 0.0
C1707 C 0.1883 0.64323 0.25619 0.0
H1708 H 0.30596 0.10713 0.17445 0.0
H1709 H 0.3097 0.13984 0.26137 0.0
H1710 H 0.33237 0.12539 0.15182 0.0
H1711 H 0.33595 0.15791 0.23924 0.0
H1712 H 0.37574 0.19562 0.19438 0.0
H1713 H 0.36724 0.16381 0.21325 0.0
H1714 H 0.32636 0.15896 0.13651 0.0
H1715 H 0.33475 0.19048 0.11802 0.0
C1716 C 0.31312 0.11751 0.18929 0.0
C1717 C 0.30579 0.12231 0.21942 0.0
C1718 C 0.32814 0.12803 0.17633 0.0
C1719 C 0.33602 0.14332 0.19351 0.0
C1720 C 0.33031 0.14622 0.22536 0.0
C1721 C 0.3152 0.13592 0.23807 0.0
C1722 C 0.36548 0.1874 0.18091 0.0
C1723 C 0.35557 0.1956 0.1552 0.0
C1724 C 0.36061 0.16923 0.19171 0.0
C1725 C 0.34597 0.15896 0.17663 0.0
C1726 C 0.33777 0.16637 0.1486 0.0
C1727 C 0.34242 0.18455 0.13816 0.0
loop_
_geom_bond_atom_site_label_1
_geom_bond_atom_site_label_2
_geom_bond_distance
_geom_bond_site_symmetry_2
_ccdc_geom_bond_type
Mg0 O1 2.028 . S
Mg0 O7 1.986 . S
Mg0 O9 2.114 . S
Mg0 O10 2.251 . S
Mg0 O13 2.010 . S
O1 Mg0 2.028 . S
O1 C4 1.250 . S
O2 Mg3 2.028 . S
O2 C4 1.248 . S
Mg3 O2 2.028 . S
Mg3 O8 2.032 . S
Mg3 O10 2.079 . S
C4 O1 1.250 . S
C4 O2 1.248 . S
C5 O6 1.264 . S
C5 O13 1.249 . S
O6 C5 1.264 . S
O7 Mg0 1.986 . S
O7 C11 1.246 . S
O8 Mg3 2.032 . S
O8 C11 1.259 . S
O9 Mg0 2.114 . S
O9 C12 1.252 . S
O10 Mg0 2.251 . S
O10 Mg3 2.079 . S
O10 C12 1.273 . S
C11 O7 1.246 . S
C11 O8 1.259 . S
C12 O9 1.252 . S
C12 O10 1.273 . S
O13 Mg0 2.010 . S
O13 C5 1.249 . S
Mg14 O15 2.028 . S
Mg14 O21 1.986 . S
Mg14 O23 2.114 . S
Mg14 O24 2.251 . S
Mg14 O27 2.010 . S
O15 Mg14 2.028 . S
O15 C18 1.250 . S
O16 Mg17 2.028 . S
O16 C18 1.248 . S
Mg17 O16 2.028 . S
Mg17 O22 2.032 . S
Mg17 O24 2.079 . S
C18 O15 1.250 . S
C18 O16 1.248 . S
C19 O20 1.264 . S
C19 O27 1.249 . S
O20 C19 1.264 . S
O21 Mg14 1.986 . S
O21 C25 1.246 . S
O22 Mg17 2.032 . S
O22 C25 1.259 . S
O23 Mg14 2.114 . S
O23 C26 1.252 . S
O24 Mg14 2.251 . S
O24 Mg17 2.079 . S
O24 C26 1.273 . S
C25 O21 1.246 . S
C25 O22 1.259 . S
C26 O23 1.252 . S
C26 O24 1.273 . S
O27 Mg14 2.010 . S
O27 C19 1.249 . S
Mg28 O29 2.028 . S
Mg28 O35 1.986 . S
Mg28 O37 2.114 . S
Mg28 O38 2.251 . S
Mg28 O41 2.010 . S
O29 Mg28 2.028 . S
O29 C32 1.250 . S
O30 Mg31 2.028 . S
O30 C32 1.248 . S
Mg31 O30 2.028 . S
Mg31 O36 2.032 . S
Mg31 O38 2.079 . S
C32 O29 1.250 . S
C32 O30 1.248 . S
C33 O34 1.264 . S
C33 O41 1.249 . S
O34 C33 1.264 . S
O35 Mg28 1.986 . S
O35 C39 1.246 . S
O36 Mg31 2.032 . S
O36 C39 1.259 . S
O37 Mg28 2.114 . S
O37 C40 1.252 . S
O38 Mg28 2.251 . S
O38 Mg31 2.079 . S
O38 C40 1.273 . S
C39 O35 1.246 . S
C39 O36 1.259 . S
C40 O37 1.252 . S
C40 O38 1.273 . S
O41 Mg28 2.010 . S
O41 C33 1.249 . S
Mg42 O43 2.028 . S
Mg42 O49 1.986 . S
Mg42 O51 2.114 . S
Mg42 O52 2.251 . S
Mg42 O55 2.010 . S
O43 Mg42 2.028 . S
O43 C46 1.250 . S
O44 Mg45 2.028 . S
O44 C46 1.248 . S
Mg45 O44 2.028 . S
Mg45 O50 2.032 . S
Mg45 O52 2.079 . S
C46 O43 1.250 . S
C46 O44 1.248 . S
C47 O48 1.264 . S
C47 O55 1.249 . S
O48 C47 1.264 . S
O49 Mg42 1.986 . S
O49 C53 1.246 . S
O50 Mg45 2.032 . S
O50 C53 1.259 . S
O51 Mg42 2.114 . S
O51 C54 1.252 . S
O52 Mg42 2.251 . S
O52 Mg45 2.079 . S
O52 C54 1.273 . S
C53 O49 1.246 . S
C53 O50 1.259 . S
C54 O51 1.252 . S
C54 O52 1.273 . S
O55 Mg42 2.010 . S
O55 C47 1.249 . S
Mg56 O57 2.028 . S
Mg56 O63 1.986 . S
Mg56 O65 2.114 . S
Mg56 O66 2.251 . S
Mg56 O69 2.010 . S
O57 Mg56 2.028 . S
O57 C60 1.250 . S
O58 Mg59 2.028 . S
O58 C60 1.248 . S
Mg59 O58 2.028 . S
Mg59 O64 2.032 . S
Mg59 O66 2.079 . S
C60 O57 1.250 . S
C60 O58 1.248 . S
C61 O62 1.264 . S
C61 O69 1.249 . S
O62 C61 1.264 . S
O63 Mg56 1.986 . S
O63 C67 1.246 . S
O64 Mg59 2.032 . S
O64 C67 1.259 . S
O65 Mg56 2.114 . S
O65 C68 1.252 . S
O66 Mg56 2.251 . S
O66 Mg59 2.079 . S
O66 C68 1.273 . S
C67 O63 1.246 . S
C67 O64 1.259 . S
C68 O65 1.252 . S
C68 O66 1.273 . S
O69 Mg56 2.010 . S
O69 C61 1.249 . S
Mg70 O71 2.028 . S
Mg70 O77 1.986 . S
Mg70 O79 2.114 . S
Mg70 O80 2.251 . S
Mg70 O83 2.010 . S
O71 Mg70 2.028 . S
O71 C74 1.250 . S
O72 Mg73 2.028 . S
O72 C74 1.248 . S
Mg73 O72 2.028 . S
Mg73 O78 2.032 . S
Mg73 O80 2.079 . S
C74 O71 1.250 . S
C74 O72 1.248 . S
C75 O76 1.264 . S
C75 O83 1.249 . S
O76 C75 1.264 . S
O77 Mg70 1.986 . S
O77 C81 1.246 . S
O78 Mg73 2.032 . S
O78 C81 1.259 . S
O79 Mg70 2.114 . S
O79 C82 1.252 . S
O80 Mg70 2.251 . S
O80 Mg73 2.079 . S
O80 C82 1.273 . S
C81 O77 1.246 . S
C81 O78 1.259 . S
C82 O79 1.252 . S
C82 O80 1.273 . S
O83 Mg70 2.010 . S
O83 C75 1.249 . S
Mg84 O85 2.028 . S
Mg84 O91 1.986 . S
Mg84 O93 2.114 . S
Mg84 O94 2.251 . S
Mg84 O97 2.010 . S
O85 Mg84 2.028 . S
O85 C88 1.250 . S
O86 Mg87 2.028 . S
O86 C88 1.248 . S
Mg87 O86 2.028 . S
Mg87 O92 2.032 . S
Mg87 O94 2.079 . S
C88 O85 1.250 . S
C88 O86 1.248 . S
C89 O90 1.264 . S
C89 O97 1.249 . S
O90 C89 1.264 . S
O91 Mg84 1.986 . S
O91 C95 1.246 . S
O92 Mg87 2.032 . S
O92 C95 1.259 . S
O93 Mg84 2.114 . S
O93 C96 1.252 . S
O94 Mg84 2.251 . S
O94 Mg87 2.079 . S
O94 C96 1.273 . S
C95 O91 1.246 . S
C95 O92 1.259 . S
C96 O93 1.252 . S
C96 O94 1.273 . S
O97 Mg84 2.010 . S
O97 C89 1.249 . S
Mg98 O99 2.028 . S
Mg98 O105 1.986 . S
Mg98 O107 2.114 . S
Mg98 O108 2.251 . S
Mg98 O111 2.010 . S
O99 Mg98 2.028 . S
O99 C102 1.250 . S
O100 Mg101 2.028 . S
O100 C102 1.248 . S
Mg101 O100 2.028 . S
Mg101 O106 2.032 . S
Mg101 O108 2.079 . S
C102 O99 1.250 . S
C102 O100 1.248 . S
C103 O104 1.264 . S
C103 O111 1.249 . S
O104 C103 1.264 . S
O105 Mg98 1.986 . S
O105 C109 1.246 . S
O106 Mg101 2.032 . S
O106 C109 1.259 . S
O107 Mg98 2.114 . S
O107 C110 1.252 . S
O108 Mg98 2.251 . S
O108 Mg101 2.079 . S
O108 C110 1.273 . S
C109 O105 1.246 . S
C109 O106 1.259 . S
C110 O107 1.252 . S
C110 O108 1.273 . S
O111 Mg98 2.010 . S
O111 C103 1.249 . S
Mg112 O113 2.028 . S
Mg112 O119 1.986 . S
Mg112 O121 2.114 . S
Mg112 O122 2.251 . S
Mg112 O125 2.010 . S
O113 Mg112 2.028 . S
O113 C116 1.250 . S
O114 Mg115 2.028 . S
O114 C116 1.248 . S
Mg115 O114 2.028 . S
Mg115 O120 2.032 . S
Mg115 O122 2.079 . S
C116 O113 1.250 . S
C116 O114 1.248 . S
C117 O118 1.264 . S
C117 O125 1.249 . S
O118 C117 1.264 . S
O119 Mg112 1.986 . S
O119 C123 1.246 . S
O120 Mg115 2.032 . S
O120 C123 1.259 . S
O121 Mg112 2.114 . S
O121 C124 1.252 . S
O122 Mg112 2.251 . S
O122 Mg115 2.079 . S
O122 C124 1.273 . S
C123 O119 1.246 . S
C123 O120 1.259 . S
C124 O121 1.252 . S
C124 O122 1.273 . S
O125 Mg112 2.010 . S
O125 C117 1.249 . S
Mg126 O127 2.028 . S
Mg126 O133 1.986 . S
Mg126 O135 2.114 . S
Mg126 O136 2.251 . S
Mg126 O139 2.010 . S
O127 Mg126 2.028 . S
O127 C130 1.250 . S
O128 Mg129 2.028 . S
O128 C130 1.248 . S
Mg129 O128 2.028 . S
Mg129 O134 2.032 . S
Mg129 O136 2.079 . S
C130 O127 1.250 . S
C130 O128 1.248 . S
C131 O132 1.264 . S
C131 O139 1.249 . S
O132 C131 1.264 . S
O133 Mg126 1.986 . S
O133 C137 1.246 . S
O134 Mg129 2.032 . S
O134 C137 1.259 . S
O135 Mg126 2.114 . S
O135 C138 1.252 . S
O136 Mg126 2.251 . S
O136 Mg129 2.079 . S
O136 C138 1.273 . S
C137 O133 1.246 . S
C137 O134 1.259 . S
C138 O135 1.252 . S
C138 O136 1.273 . S
O139 Mg126 2.010 . S
O139 C131 1.249 . S
Mg140 O141 2.028 . S
Mg140 O147 1.986 . S
Mg140 O149 2.114 . S
Mg140 O150 2.251 . S
Mg140 O153 2.010 . S
O141 Mg140 2.028 . S
O141 C144 1.250 . S
O142 Mg143 2.028 . S
O142 C144 1.248 . S
Mg143 O142 2.028 . S
Mg143 O148 2.032 . S
Mg143 O150 2.079 . S
C144 O141 1.250 . S
C144 O142 1.248 . S
C145 O146 1.264 . S
C145 O153 1.249 . S
O146 C145 1.264 . S
O147 Mg140 1.986 . S
O147 C151 1.246 . S
O148 Mg143 2.032 . S
O148 C151 1.259 . S
O149 Mg140 2.114 . S
O149 C152 1.252 . S
O150 Mg140 2.251 . S
O150 Mg143 2.079 . S
O150 C152 1.273 . S
C151 O147 1.246 . S
C151 O148 1.259 . S
C152 O149 1.252 . S
C152 O150 1.273 . S
O153 Mg140 2.010 . S
O153 C145 1.249 . S
Mg154 O155 2.028 . S
Mg154 O161 1.986 . S
Mg154 O163 2.114 . S
Mg154 O164 2.251 . S
Mg154 O167 2.010 . S
O155 Mg154 2.028 . S
O155 C158 1.250 . S
O156 Mg157 2.028 . S
O156 C158 1.248 . S
Mg157 O156 2.028 . S
Mg157 O162 2.032 . S
Mg157 O164 2.079 . S
C158 O155 1.250 . S
C158 O156 1.248 . S
C159 O160 1.264 . S
C159 O167 1.249 . S
O160 C159 1.264 . S
O161 Mg154 1.986 . S
O161 C165 1.246 . S
O162 Mg157 2.032 . S
O162 C165 1.259 . S
O163 Mg154 2.114 . S
O163 C166 1.252 . S
O164 Mg154 2.251 . S
O164 Mg157 2.079 . S
O164 C166 1.273 . S
C165 O161 1.246 . S
C165 O162 1.259 . S
C166 O163 1.252 . S
C166 O164 1.273 . S
O167 Mg154 2.010 . S
O167 C159 1.249 . S
Mg168 O169 2.028 . S
Mg168 O175 1.986 . S
Mg168 O177 2.114 . S
Mg168 O178 2.251 . S
Mg168 O181 2.010 . S
O169 Mg168 2.028 . S
O169 C172 1.250 . S
O170 Mg171 2.028 . S
O170 C172 1.248 . S
Mg171 O170 2.028 . S
Mg171 O176 2.032 . S
Mg171 O178 2.079 . S
C172 O169 1.250 . S
C172 O170 1.248 . S
C173 O174 1.264 . S
C173 O181 1.249 . S
O174 C173 1.264 . S
O175 Mg168 1.986 . S
O175 C179 1.246 . S
O176 Mg171 2.032 . S
O176 C179 1.259 . S
O177 Mg168 2.114 . S
O177 C180 1.252 . S
O178 Mg168 2.251 . S
O178 Mg171 2.079 . S
O178 C180 1.273 . S
C179 O175 1.246 . S
C179 O176 1.259 . S
C180 O177 1.252 . S
C180 O178 1.273 . S
O181 Mg168 2.010 . S
O181 C173 1.249 . S
Mg182 O183 2.028 . S
Mg182 O189 1.986 . S
Mg182 O191 2.114 . S
Mg182 O192 2.251 . S
Mg182 O195 2.010 . S
O183 Mg182 2.028 . S
O183 C186 1.250 . S
O184 Mg185 2.028 . S
O184 C186 1.248 . S
Mg185 O184 2.028 . S
Mg185 O190 2.032 . S
Mg185 O192 2.079 . S
C186 O183 1.250 . S
C186 O184 1.248 . S
C187 O188 1.264 . S
C187 O195 1.249 . S
O188 C187 1.264 . S
O189 Mg182 1.986 . S
O189 C193 1.246 . S
O190 Mg185 2.032 . S
O190 C193 1.259 . S
O191 Mg182 2.114 . S
O191 C194 1.252 . S
O192 Mg182 2.251 . S
O192 Mg185 2.079 . S
O192 C194 1.273 . S
C193 O189 1.246 . S
C193 O190 1.259 . S
C194 O191 1.252 . S
C194 O192 1.273 . S
O195 Mg182 2.010 . S
O195 C187 1.249 . S
Mg196 O197 2.028 . S
Mg196 O203 1.986 . S
Mg196 O205 2.114 . S
Mg196 O206 2.251 . S
Mg196 O209 2.010 . S
O197 Mg196 2.028 . S
O197 C200 1.250 . S
O198 Mg199 2.028 . S
O198 C200 1.248 . S
Mg199 O198 2.028 . S
Mg199 O204 2.032 . S
Mg199 O206 2.079 . S
C200 O197 1.250 . S
C200 O198 1.248 . S
C201 O202 1.264 . S
C201 O209 1.249 . S
O202 C201 1.264 . S
O203 Mg196 1.986 . S
O203 C207 1.246 . S
O204 Mg199 2.032 . S
O204 C207 1.259 . S
O205 Mg196 2.114 . S
O205 C208 1.252 . S
O206 Mg196 2.251 . S
O206 Mg199 2.079 . S
O206 C208 1.273 . S
C207 O203 1.246 . S
C207 O204 1.259 . S
C208 O205 1.252 . S
C208 O206 1.273 . S
O209 Mg196 2.010 . S
O209 C201 1.249 . S
Mg210 O211 2.028 . S
Mg210 O217 1.986 . S
Mg210 O219 2.114 . S
Mg210 O220 2.251 . S
Mg210 O223 2.010 . S
O211 Mg210 2.028 . S
O211 C214 1.250 . S
O212 Mg213 2.028 . S
O212 C214 1.248 . S
Mg213 O212 2.028 . S
Mg213 O218 2.032 . S
Mg213 O220 2.079 . S
C214 O211 1.250 . S
C214 O212 1.248 . S
C215 O216 1.264 . S
C215 O223 1.249 . S
O216 C215 1.264 . S
O217 Mg210 1.986 . S
O217 C221 1.246 . S
O218 Mg213 2.032 . S
O218 C221 1.259 . S
O219 Mg210 2.114 . S
O219 C222 1.252 . S
O220 Mg210 2.251 . S
O220 Mg213 2.079 . S
O220 C222 1.273 . S
C221 O217 1.246 . S
C221 O218 1.259 . S
C222 O219 1.252 . S
C222 O220 1.273 . S
O223 Mg210 2.010 . S
O223 C215 1.249 . S
Mg224 O225 2.028 . S
Mg224 O231 1.986 . S
Mg224 O233 2.114 . S
Mg224 O234 2.251 . S
Mg224 O237 2.010 . S
O225 Mg224 2.028 . S
O225 C228 1.250 . S
O226 Mg227 2.028 . S
O226 C228 1.248 . S
Mg227 O226 2.028 . S
Mg227 O232 2.032 . S
Mg227 O234 2.079 . S
C228 O225 1.250 . S
C228 O226 1.248 . S
C229 O230 1.264 . S
C229 O237 1.249 . S
O230 C229 1.264 . S
O231 Mg224 1.986 . S
O231 C235 1.246 . S
O232 Mg227 2.032 . S
O232 C235 1.259 . S
O233 Mg224 2.114 . S
O233 C236 1.252 . S
O234 Mg224 2.251 . S
O234 Mg227 2.079 . S
O234 C236 1.273 . S
C235 O231 1.246 . S
C235 O232 1.259 . S
C236 O233 1.252 . S
C236 O234 1.273 . S
O237 Mg224 2.010 . S
O237 C229 1.249 . S
Mg238 O239 2.028 . S
Mg238 O245 1.986 . S
Mg238 O247 2.114 . S
Mg238 O248 2.251 . S
Mg238 O251 2.010 . S
O239 Mg238 2.028 . S
O239 C242 1.250 . S
O240 Mg241 2.028 . S
O240 C242 1.248 . S
Mg241 O240 2.028 . S
Mg241 O246 2.032 . S
Mg241 O248 2.079 . S
C242 O239 1.250 . S
C242 O240 1.248 . S
C243 O244 1.264 . S
C243 O251 1.249 . S
O244 C243 1.264 . S
O245 Mg238 1.986 . S
O245 C249 1.246 . S
O246 Mg241 2.032 . S
O246 C249 1.259 . S
O247 Mg238 2.114 . S
O247 C250 1.252 . S
O248 Mg238 2.251 . S
O248 Mg241 2.079 . S
O248 C250 1.273 . S
C249 O245 1.246 . S
C249 O246 1.259 . S
C250 O247 1.252 . S
C250 O248 1.273 . S
O251 Mg238 2.010 . S
O251 C243 1.249 . S
Mg252 O253 2.028 . S
Mg252 O259 1.986 . S
Mg252 O261 2.114 . S
Mg252 O262 2.251 . S
Mg252 O265 2.010 . S
O253 Mg252 2.028 . S
O253 C256 1.250 . S
O254 Mg255 2.028 . S
O254 C256 1.248 . S
Mg255 O254 2.028 . S
Mg255 O260 2.032 . S
Mg255 O262 2.079 . S
C256 O253 1.250 . S
C256 O254 1.248 . S
C257 O258 1.264 . S
C257 O265 1.249 . S
O258 C257 1.264 . S
O259 Mg252 1.986 . S
O259 C263 1.246 . S
O260 Mg255 2.032 . S
O260 C263 1.259 . S
O261 Mg252 2.114 . S
O261 C264 1.252 . S
O262 Mg252 2.251 . S
O262 Mg255 2.079 . S
O262 C264 1.273 . S
C263 O259 1.246 . S
C263 O260 1.259 . S
C264 O261 1.252 . S
C264 O262 1.273 . S
O265 Mg252 2.010 . S
O265 C257 1.249 . S
Mg266 O267 2.028 . S
Mg266 O273 1.986 . S
Mg266 O275 2.114 . S
Mg266 O276 2.251 . S
Mg266 O279 2.010 . S
O267 Mg266 2.028 . S
O267 C270 1.250 . S
O268 Mg269 2.028 . S
O268 C270 1.248 . S
Mg269 O268 2.028 . S
Mg269 O274 2.032 . S
Mg269 O276 2.079 . S
C270 O267 1.250 . S
C270 O268 1.248 . S
C271 O272 1.264 . S
C271 O279 1.249 . S
O272 C271 1.264 . S
O273 Mg266 1.986 . S
O273 C277 1.246 . S
O274 Mg269 2.032 . S
O274 C277 1.259 . S
O275 Mg266 2.114 . S
O275 C278 1.252 . S
O276 Mg266 2.251 . S
O276 Mg269 2.079 . S
O276 C278 1.273 . S
C277 O273 1.246 . S
C277 O274 1.259 . S
C278 O275 1.252 . S
C278 O276 1.273 . S
O279 Mg266 2.010 . S
O279 C271 1.249 . S
Mg280 O281 2.028 . S
Mg280 O287 1.986 . S
Mg280 O289 2.114 . S
Mg280 O290 2.251 . S
Mg280 O293 2.010 . S
O281 Mg280 2.028 . S
O281 C284 1.250 . S
O282 Mg283 2.028 . S
O282 C284 1.248 . S
Mg283 O282 2.028 . S
Mg283 O288 2.032 . S
Mg283 O290 2.079 . S
C284 O281 1.250 . S
C284 O282 1.248 . S
C285 O286 1.264 . S
C285 O293 1.249 . S
O286 C285 1.264 . S
O287 Mg280 1.986 . S
O287 C291 1.246 . S
O288 Mg283 2.032 . S
O288 C291 1.259 . S
O289 Mg280 2.114 . S
O289 C292 1.252 . S
O290 Mg280 2.251 . S
O290 Mg283 2.079 . S
O290 C292 1.273 . S
C291 O287 1.246 . S
C291 O288 1.259 . S
C292 O289 1.252 . S
C292 O290 1.273 . S
O293 Mg280 2.010 . S
O293 C285 1.249 . S
Mg294 O295 2.028 . S
Mg294 O301 1.986 . S
Mg294 O303 2.114 . S
Mg294 O304 2.251 . S
Mg294 O307 2.010 . S
O295 Mg294 2.028 . S
O295 C298 1.250 . S
O296 Mg297 2.028 . S
O296 C298 1.248 . S
Mg297 O296 2.028 . S
Mg297 O302 2.032 . S
Mg297 O304 2.079 . S
C298 O295 1.250 . S
C298 O296 1.248 . S
C299 O300 1.264 . S
C299 O307 1.249 . S
O300 C299 1.264 . S
O301 Mg294 1.986 . S
O301 C305 1.246 . S
O302 Mg297 2.032 . S
O302 C305 1.259 . S
O303 Mg294 2.114 . S
O303 C306 1.252 . S
O304 Mg294 2.251 . S
O304 Mg297 2.079 . S
O304 C306 1.273 . S
C305 O301 1.246 . S
C305 O302 1.259 . S
C306 O303 1.252 . S
C306 O304 1.273 . S
O307 Mg294 2.010 . S
O307 C299 1.249 . S
Mg308 O309 2.028 . S
Mg308 O315 1.986 . S
Mg308 O317 2.114 . S
Mg308 O318 2.251 . S
Mg308 O321 2.010 . S
O309 Mg308 2.028 . S
O309 C312 1.250 . S
O310 Mg311 2.028 . S
O310 C312 1.248 . S
Mg311 O310 2.028 . S
Mg311 O316 2.032 . S
Mg311 O318 2.079 . S
C312 O309 1.250 . S
C312 O310 1.248 . S
C313 O314 1.264 . S
C313 O321 1.249 . S
O314 C313 1.264 . S
O315 Mg308 1.986 . S
O315 C319 1.246 . S
O316 Mg311 2.032 . S
O316 C319 1.259 . S
O317 Mg308 2.114 . S
O317 C320 1.252 . S
O318 Mg308 2.251 . S
O318 Mg311 2.079 . S
O318 C320 1.273 . S
C319 O315 1.246 . S
C319 O316 1.259 . S
C320 O317 1.252 . S
C320 O318 1.273 . S
O321 Mg308 2.010 . S
O321 C313 1.249 . S
Mg322 O323 2.028 . S
Mg322 O329 1.986 . S
Mg322 O331 2.114 . S
Mg322 O332 2.251 . S
Mg322 O335 2.010 . S
O323 Mg322 2.028 . S
O323 C326 1.250 . S
O324 Mg325 2.028 . S
O324 C326 1.248 . S
Mg325 O324 2.028 . S
Mg325 O330 2.032 . S
Mg325 O332 2.079 . S
C326 O323 1.250 . S
C326 O324 1.248 . S
C327 O328 1.264 . S
C327 O335 1.249 . S
O328 C327 1.264 . S
O329 Mg322 1.986 . S
O329 C333 1.246 . S
O330 Mg325 2.032 . S
O330 C333 1.259 . S
O331 Mg322 2.114 . S
O331 C334 1.252 . S
O332 Mg322 2.251 . S
O332 Mg325 2.079 . S
O332 C334 1.273 . S
C333 O329 1.246 . S
C333 O330 1.259 . S
C334 O331 1.252 . S
C334 O332 1.273 . S
O335 Mg322 2.010 . S
O335 C327 1.249 . S
Mg336 O337 2.028 . S
Mg336 O343 1.986 . S
Mg336 O345 2.114 . S
Mg336 O346 2.251 . S
Mg336 O349 2.010 . S
O337 Mg336 2.028 . S
O337 C340 1.250 . S
O338 Mg339 2.028 . S
O338 C340 1.248 . S
Mg339 O338 2.028 . S
Mg339 O344 2.032 . S
Mg339 O346 2.079 . S
C340 O337 1.250 . S
C340 O338 1.248 . S
C341 O342 1.264 . S
C341 O349 1.249 . S
O342 C341 1.264 . S
O343 Mg336 1.986 . S
O343 C347 1.246 . S
O344 Mg339 2.032 . S
O344 C347 1.259 . S
O345 Mg336 2.114 . S
O345 C348 1.252 . S
O346 Mg336 2.251 . S
O346 Mg339 2.079 . S
O346 C348 1.273 . S
C347 O343 1.246 . S
C347 O344 1.259 . S
C348 O345 1.252 . S
C348 O346 1.273 . S
O349 Mg336 2.010 . S
O349 C341 1.249 . S
Mg350 O351 2.028 . S
Mg350 O357 1.986 . S
Mg350 O359 2.114 . S
Mg350 O360 2.251 . S
Mg350 O363 2.010 . S
O351 Mg350 2.028 . S
O351 C354 1.250 . S
O352 Mg353 2.028 . S
O352 C354 1.248 . S
Mg353 O352 2.028 . S
Mg353 O358 2.032 . S
Mg353 O360 2.079 . S
C354 O351 1.250 . S
C354 O352 1.248 . S
C355 O356 1.264 . S
C355 O363 1.249 . S
O356 C355 1.264 . S
O357 Mg350 1.986 . S
O357 C361 1.246 . S
O358 Mg353 2.032 . S
O358 C361 1.259 . S
O359 Mg350 2.114 . S
O359 C362 1.252 . S
O360 Mg350 2.251 . S
O360 Mg353 2.079 . S
O360 C362 1.273 . S
C361 O357 1.246 . S
C361 O358 1.259 . S
C362 O359 1.252 . S
C362 O360 1.273 . S
O363 Mg350 2.010 . S
O363 C355 1.249 . S
Mg364 O365 2.028 . S
Mg364 O371 1.986 . S
Mg364 O373 2.114 . S
Mg364 O374 2.251 . S
Mg364 O377 2.010 . S
O365 Mg364 2.028 . S
O365 C368 1.250 . S
O366 Mg367 2.028 . S
O366 C368 1.248 . S
Mg367 O366 2.028 . S
Mg367 O372 2.032 . S
Mg367 O374 2.079 . S
C368 O365 1.250 . S
C368 O366 1.248 . S
C369 O370 1.264 . S
C369 O377 1.249 . S
O370 C369 1.264 . S
O371 Mg364 1.986 . S
O371 C375 1.246 . S
O372 Mg367 2.032 . S
O372 C375 1.259 . S
O373 Mg364 2.114 . S
O373 C376 1.252 . S
O374 Mg364 2.251 . S
O374 Mg367 2.079 . S
O374 C376 1.273 . S
C375 O371 1.246 . S
C375 O372 1.259 . S
C376 O373 1.252 . S
C376 O374 1.273 . S
O377 Mg364 2.010 . S
O377 C369 1.249 . S
Mg378 O379 2.028 . S
Mg378 O385 1.986 . S
Mg378 O387 2.114 . S
Mg378 O388 2.251 . S
Mg378 O391 2.010 . S
O379 Mg378 2.028 . S
O379 C382 1.250 . S
O380 Mg381 2.028 . S
O380 C382 1.248 . S
Mg381 O380 2.028 . S
Mg381 O386 2.032 . S
Mg381 O388 2.079 . S
C382 O379 1.250 . S
C382 O380 1.248 . S
C383 O384 1.264 . S
C383 O391 1.249 . S
O384 C383 1.264 . S
O385 Mg378 1.986 . S
O385 C389 1.246 . S
O386 Mg381 2.032 . S
O386 C389 1.259 . S
O387 Mg378 2.114 . S
O387 C390 1.252 . S
O388 Mg378 2.251 . S
O388 Mg381 2.079 . S
O388 C390 1.273 . S
C389 O385 1.246 . S
C389 O386 1.259 . S
C390 O387 1.252 . S
C390 O388 1.273 . S
O391 Mg378 2.010 . S
O391 C383 1.249 . S
Mg392 O393 2.028 . S
Mg392 O399 1.986 . S
Mg392 O401 2.114 . S
Mg392 O402 2.251 . S
Mg392 O405 2.010 . S
O393 Mg392 2.028 . S
O393 C396 1.250 . S
O394 Mg395 2.028 . S
O394 C396 1.248 . S
Mg395 O394 2.028 . S
Mg395 O400 2.032 . S
Mg395 O402 2.079 . S
C396 O393 1.250 . S
C396 O394 1.248 . S
C397 O398 1.264 . S
C397 O405 1.249 . S
O398 C397 1.264 . S
O399 Mg392 1.986 . S
O399 C403 1.246 . S
O400 Mg395 2.032 . S
O400 C403 1.259 . S
O401 Mg392 2.114 . S
O401 C404 1.252 . S
O402 Mg392 2.251 . S
O402 Mg395 2.079 . S
O402 C404 1.273 . S
C403 O399 1.246 . S
C403 O400 1.259 . S
C404 O401 1.252 . S
C404 O402 1.273 . S
O405 Mg392 2.010 . S
O405 C397 1.249 . S
Mg406 O407 2.028 . S
Mg406 O413 1.986 . S
Mg406 O415 2.114 . S
Mg406 O416 2.251 . S
Mg406 O419 2.010 . S
O407 Mg406 2.028 . S
O407 C410 1.250 . S
O408 Mg409 2.028 . S
O408 C410 1.248 . S
Mg409 O408 2.028 . S
Mg409 O414 2.032 . S
Mg409 O416 2.079 . S
C410 O407 1.250 . S
C410 O408 1.248 . S
C411 O412 1.264 . S
C411 O419 1.249 . S
O412 C411 1.264 . S
O413 Mg406 1.986 . S
O413 C417 1.246 . S
O414 Mg409 2.032 . S
O414 C417 1.259 . S
O415 Mg406 2.114 . S
O415 C418 1.252 . S
O416 Mg406 2.251 . S
O416 Mg409 2.079 . S
O416 C418 1.273 . S
C417 O413 1.246 . S
C417 O414 1.259 . S
C418 O415 1.252 . S
C418 O416 1.273 . S
O419 Mg406 2.010 . S
O419 C411 1.249 . S
Mg420 O421 2.028 . S
Mg420 O427 1.986 . S
Mg420 O429 2.114 . S
Mg420 O430 2.251 . S
Mg420 O433 2.010 . S
O421 Mg420 2.028 . S
O421 C424 1.250 . S
O422 Mg423 2.028 . S
O422 C424 1.248 . S
Mg423 O422 2.028 . S
Mg423 O428 2.032 . S
Mg423 O430 2.079 . S
C424 O421 1.250 . S
C424 O422 1.248 . S
C425 O426 1.264 . S
C425 O433 1.249 . S
O426 C425 1.264 . S
O427 Mg420 1.986 . S
O427 C431 1.246 . S
O428 Mg423 2.032 . S
O428 C431 1.259 . S
O429 Mg420 2.114 . S
O429 C432 1.252 . S
O430 Mg420 2.251 . S
O430 Mg423 2.079 . S
O430 C432 1.273 . S
C431 O427 1.246 . S
C431 O428 1.259 . S
C432 O429 1.252 . S
C432 O430 1.273 . S
O433 Mg420 2.010 . S
O433 C425 1.249 . S
Mg434 O435 2.028 . S
Mg434 O441 1.986 . S
Mg434 O443 2.114 . S
Mg434 O444 2.251 . S
Mg434 O447 2.010 . S
O435 Mg434 2.028 . S
O435 C438 1.250 . S
O436 Mg437 2.028 . S
O436 C438 1.248 . S
Mg437 O436 2.028 . S
Mg437 O442 2.032 . S
Mg437 O444 2.079 . S
C438 O435 1.250 . S
C438 O436 1.248 . S
C439 O440 1.264 . S
C439 O447 1.249 . S
O440 C439 1.264 . S
O441 Mg434 1.986 . S
O441 C445 1.246 . S
O442 Mg437 2.032 . S
O442 C445 1.259 . S
O443 Mg434 2.114 . S
O443 C446 1.252 . S
O444 Mg434 2.251 . S
O444 Mg437 2.079 . S
O444 C446 1.273 . S
C445 O441 1.246 . S
C445 O442 1.259 . S
C446 O443 1.252 . S
C446 O444 1.273 . S
O447 Mg434 2.010 . S
O447 C439 1.249 . S
H448 C456 0.950 . S
H449 C461 0.950 . S
H450 C458 0.950 . S
H451 C460 0.950 . S
H452 C462 0.950 . S
H453 C464 0.950 . S
H454 C466 0.950 . S
H455 C467 0.950 . S
C456 H448 0.950 . S
C456 C457 1.386 . S
C456 C458 1.391 . S
C457 C456 1.386 . S
C457 C461 1.393 . S
C458 H450 0.950 . S
C458 C456 1.391 . S
C458 C459 1.400 . S
C459 C458 1.400 . S
C459 C460 1.398 . S
C459 C465 1.491 . S
C460 H451 0.950 . S
C460 C459 1.398 . S
C460 C461 1.391 . S
C461 H449 0.950 . S
C461 C457 1.393 . S
C461 C460 1.391 . S
C462 H452 0.950 . S
C462 C463 1.386 . S
C462 C464 1.391 . S
C463 C462 1.386 . S
C463 C467 1.393 . S
C464 H453 0.950 . S
C464 C462 1.391 . S
C464 C465 1.400 . S
C465 C459 1.491 . S
C465 C464 1.400 . S
C465 C466 1.398 . S
C466 H454 0.950 . S
C466 C465 1.398 . S
C466 C467 1.391 . S
C467 H455 0.950 . S
C467 C463 1.393 . S
C467 C466 1.391 . S
H468 C476 0.950 . S
H469 C481 0.950 . S
H470 C478 0.950 . S
H471 C480 0.950 . S
H472 C482 0.950 . S
H473 C484 0.950 . S
H474 C486 0.950 . S
H475 C487 0.950 . S
C476 H468 0.950 . S
C476 C477 1.386 . S
C476 C478 1.391 . S
C477 C476 1.386 . S
C477 C481 1.393 . S
C478 H470 0.950 . S
C478 C476 1.391 . S
C478 C479 1.400 . S
C479 C478 1.400 . S
C479 C480 1.398 . S
C479 C485 1.491 . S
C480 H471 0.950 . S
C480 C479 1.398 . S
C480 C481 1.391 . S
C481 H469 0.950 . S
C481 C477 1.393 . S
C481 C480 1.391 . S
C482 H472 0.950 . S
C482 C483 1.386 . S
C482 C484 1.391 . S
C483 C482 1.386 . S
C483 C487 1.393 . S
C484 H473 0.950 . S
C484 C482 1.391 . S
C484 C485 1.400 . S
C485 C479 1.491 . S
C485 C484 1.400 . S
C485 C486 1.398 . S
C486 H474 0.950 . S
C486 C485 1.398 . S
C486 C487 1.391 . S
C487 H475 0.950 . S
C487 C483 1.393 . S
C487 C486 1.391 . S
H488 C496 0.950 . S
H489 C501 0.950 . S
H490 C498 0.950 . S
H491 C500 0.950 . S
H492 C502 0.950 . S
H493 C504 0.950 . S
H494 C506 0.950 . S
H495 C507 0.950 . S
C496 H488 0.950 . S
C496 C497 1.386 . S
C496 C498 1.391 . S
C497 C496 1.386 . S
C497 C501 1.393 . S
C498 H490 0.950 . S
C498 C496 1.391 . S
C498 C499 1.400 . S
C499 C498 1.400 . S
C499 C500 1.398 . S
C499 C505 1.491 . S
C500 H491 0.950 . S
C500 C499 1.398 . S
C500 C501 1.391 . S
C501 H489 0.950 . S
C501 C497 1.393 . S
C501 C500 1.391 . S
C502 H492 0.950 . S
C502 C503 1.386 . S
C502 C504 1.391 . S
C503 C502 1.386 . S
C503 C507 1.393 . S
C504 H493 0.950 . S
C504 C502 1.391 . S
C504 C505 1.400 . S
C505 C499 1.491 . S
C505 C504 1.400 . S
C505 C506 1.398 . S
C506 H494 0.950 . S
C506 C505 1.398 . S
C506 C507 1.391 . S
C507 H495 0.950 . S
C507 C503 1.393 . S
C507 C506 1.391 . S
H508 C516 0.950 . S
H509 C521 0.950 . S
H510 C518 0.950 . S
H511 C520 0.950 . S
H512 C522 0.950 . S
H513 C524 0.950 . S
H514 C526 0.950 . S
H515 C527 0.950 . S
C516 H508 0.950 . S
C516 C517 1.386 . S
C516 C518 1.391 . S
C517 C516 1.386 . S
C517 C521 1.393 . S
C518 H510 0.950 . S
C518 C516 1.391 . S
C518 C519 1.400 . S
C519 C518 1.400 . S
C519 C520 1.398 . S
C519 C525 1.491 . S
C520 H511 0.950 . S
C520 C519 1.398 . S
C520 C521 1.391 . S
C521 H509 0.950 . S
C521 C517 1.393 . S
C521 C520 1.391 . S
C522 H512 0.950 . S
C522 C523 1.386 . S
C522 C524 1.391 . S
C523 C522 1.386 . S
C523 C527 1.393 . S
C524 H513 0.950 . S
C524 C522 1.391 . S
C524 C525 1.400 . S
C525 C519 1.491 . S
C525 C524 1.400 . S
C525 C526 1.398 . S
C526 H514 0.950 . S
C526 C525 1.398 . S
C526 C527 1.391 . S
C527 H515 0.950 . S
C527 C523 1.393 . S
C527 C526 1.391 . S
H528 C536 0.950 . S
H529 C541 0.950 . S
H530 C538 0.950 . S
H531 C540 0.950 . S
H532 C542 0.950 . S
H533 C544 0.950 . S
H534 C546 0.950 . S
H535 C547 0.950 . S
C536 H528 0.950 . S
C536 C537 1.386 . S
C536 C538 1.391 . S
C537 C536 1.386 . S
C537 C541 1.393 . S
C538 H530 0.950 . S
C538 C536 1.391 . S
C538 C539 1.400 . S
C539 C538 1.400 . S
C539 C540 1.398 . S
C539 C545 1.491 . S
C540 H531 0.950 . S
C540 C539 1.398 . S
C540 C541 1.391 . S
C541 H529 0.950 . S
C541 C537 1.393 . S
C541 C540 1.391 . S
C542 H532 0.950 . S
C542 C543 1.386 . S
C542 C544 1.391 . S
C543 C542 1.386 . S
C543 C547 1.393 . S
C544 H533 0.950 . S
C544 C542 1.391 . S
C544 C545 1.400 . S
C545 C539 1.491 . S
C545 C544 1.400 . S
C545 C546 1.398 . S
C546 H534 0.950 . S
C546 C545 1.398 . S
C546 C547 1.391 . S
C547 H535 0.950 . S
C547 C543 1.393 . S
C547 C546 1.391 . S
H548 C556 0.950 . S
H549 C561 0.950 . S
H550 C558 0.950 . S
H551 C560 0.950 . S
H552 C562 0.950 . S
H553 C564 0.950 . S
H554 C566 0.950 . S
H555 C567 0.950 . S
C556 H548 0.950 . S
C556 C557 1.386 . S
C556 C558 1.391 . S
C557 C556 1.386 . S
C557 C561 1.393 . S
C558 H550 0.950 . S
C558 C556 1.391 . S
C558 C559 1.400 . S
C559 C558 1.400 . S
C559 C560 1.398 . S
C559 C565 1.491 . S
C560 H551 0.950 . S
C560 C559 1.398 . S
C560 C561 1.391 . S
C561 H549 0.950 . S
C561 C557 1.393 . S
C561 C560 1.391 . S
C562 H552 0.950 . S
C562 C563 1.386 . S
C562 C564 1.391 . S
C563 C562 1.386 . S
C563 C567 1.393 . S
C564 H553 0.950 . S
C564 C562 1.391 . S
C564 C565 1.400 . S
C565 C559 1.491 . S
C565 C564 1.400 . S
C565 C566 1.398 . S
C566 H554 0.950 . S
C566 C565 1.398 . S
C566 C567 1.391 . S
C567 H555 0.950 . S
C567 C563 1.393 . S
C567 C566 1.391 . S
H568 C576 0.950 . S
H569 C581 0.950 . S
H570 C578 0.950 . S
H571 C580 0.950 . S
H572 C582 0.950 . S
H573 C584 0.950 . S
H574 C586 0.950 . S
H575 C587 0.950 . S
C576 H568 0.950 . S
C576 C577 1.386 . S
C576 C578 1.391 . S
C577 C576 1.386 . S
C577 C581 1.393 . S
C578 H570 0.950 . S
C578 C576 1.391 . S
C578 C579 1.400 . S
C579 C578 1.400 . S
C579 C580 1.398 . S
C579 C585 1.491 . S
C580 H571 0.950 . S
C580 C579 1.398 . S
C580 C581 1.391 . S
C581 H569 0.950 . S
C581 C577 1.393 . S
C581 C580 1.391 . S
C582 H572 0.950 . S
C582 C583 1.386 . S
C582 C584 1.391 . S
C583 C582 1.386 . S
C583 C587 1.393 . S
C584 H573 0.950 . S
C584 C582 1.391 . S
C584 C585 1.400 . S
C585 C579 1.491 . S
C585 C584 1.400 . S
C585 C586 1.398 . S
C586 H574 0.950 . S
C586 C585 1.398 . S
C586 C587 1.391 . S
C587 H575 0.950 . S
C587 C583 1.393 . S
C587 C586 1.391 . S
H588 C596 0.950 . S
H589 C601 0.950 . S
H590 C598 0.950 . S
H591 C600 0.950 . S
H592 C602 0.950 . S
H593 C604 0.950 . S
H594 C606 0.950 . S
H595 C607 0.950 . S
C596 H588 0.950 . S
C596 C597 1.386 . S
C596 C598 1.391 . S
C597 C596 1.386 . S
C597 C601 1.393 . S
C598 H590 0.950 . S
C598 C596 1.391 . S
C598 C599 1.400 . S
C599 C598 1.400 . S
C599 C600 1.398 . S
C599 C605 1.491 . S
C600 H591 0.950 . S
C600 C599 1.398 . S
C600 C601 1.391 . S
C601 H589 0.950 . S
C601 C597 1.393 . S
C601 C600 1.391 . S
C602 H592 0.950 . S
C602 C603 1.386 . S
C602 C604 1.391 . S
C603 C602 1.386 . S
C603 C607 1.393 . S
C604 H593 0.950 . S
C604 C602 1.391 . S
C604 C605 1.400 . S
C605 C599 1.491 . S
C605 C604 1.400 . S
C605 C606 1.398 . S
C606 H594 0.950 . S
C606 C605 1.398 . S
C606 C607 1.391 . S
C607 H595 0.950 . S
C607 C603 1.393 . S
C607 C606 1.391 . S
H608 C616 0.950 . S
H609 C621 0.950 . S
H610 C618 0.950 . S
H611 C620 0.950 . S
H612 C622 0.950 . S
H613 C624 0.950 . S
H614 C626 0.950 . S
H615 C627 0.950 . S
C616 H608 0.950 . S
C616 C617 1.386 . S
C616 C618 1.391 . S
C617 C616 1.386 . S
C617 C621 1.393 . S
C618 H610 0.950 . S
C618 C616 1.391 . S
C618 C619 1.400 . S
C619 C618 1.400 . S
C619 C620 1.398 . S
C619 C625 1.491 . S
C620 H611 0.950 . S
C620 C619 1.398 . S
C620 C621 1.391 . S
C621 H609 0.950 . S
C621 C617 1.393 . S
C621 C620 1.391 . S
C622 H612 0.950 . S
C622 C623 1.386 . S
C622 C624 1.391 . S
C623 C622 1.386 . S
C623 C627 1.393 . S
C624 H613 0.950 . S
C624 C622 1.391 . S
C624 C625 1.400 . S
C625 C619 1.491 . S
C625 C624 1.400 . S
C625 C626 1.398 . S
C626 H614 0.950 . S
C626 C625 1.398 . S
C626 C627 1.391 . S
C627 H615 0.950 . S
C627 C623 1.393 . S
C627 C626 1.391 . S
H628 C636 0.950 . S
H629 C641 0.950 . S
H630 C638 0.950 . S
H631 C640 0.950 . S
H632 C642 0.950 . S
H633 C644 0.950 . S
H634 C646 0.950 . S
H635 C647 0.950 . S
C636 H628 0.950 . S
C636 C637 1.386 . S
C636 C638 1.391 . S
C637 C636 1.386 . S
C637 C641 1.393 . S
C638 H630 0.950 . S
C638 C636 1.391 . S
C638 C639 1.400 . S
C639 C638 1.400 . S
C639 C640 1.398 . S
C639 C645 1.491 . S
C640 H631 0.950 . S
C640 C639 1.398 . S
C640 C641 1.391 . S
C641 H629 0.950 . S
C641 C637 1.393 . S
C641 C640 1.391 . S
C642 H632 0.950 . S
C642 C643 1.386 . S
C642 C644 1.391 . S
C643 C642 1.386 . S
C643 C647 1.393 . S
C644 H633 0.950 . S
C644 C642 1.391 . S
C644 C645 1.400 . S
C645 C639 1.491 . S
C645 C644 1.400 . S
C645 C646 1.398 . S
C646 H634 0.950 . S
C646 C645 1.398 . S
C646 C647 1.391 . S
C647 H635 0.950 . S
C647 C643 1.393 . S
C647 C646 1.391 . S
H648 C656 0.950 . S
H649 C661 0.950 . S
H650 C658 0.950 . S
H651 C660 0.950 . S
H652 C662 0.950 . S
H653 C664 0.950 . S
H654 C666 0.950 . S
H655 C667 0.950 . S
C656 H648 0.950 . S
C656 C657 1.386 . S
C656 C658 1.391 . S
C657 C656 1.386 . S
C657 C661 1.393 . S
C658 H650 0.950 . S
C658 C656 1.391 . S
C658 C659 1.400 . S
C659 C658 1.400 . S
C659 C660 1.398 . S
C659 C665 1.491 . S
C660 H651 0.950 . S
C660 C659 1.398 . S
C660 C661 1.391 . S
C661 H649 0.950 . S
C661 C657 1.393 . S
C661 C660 1.391 . S
C662 H652 0.950 . S
C662 C663 1.386 . S
C662 C664 1.391 . S
C663 C662 1.386 . S
C663 C667 1.393 . S
C664 H653 0.950 . S
C664 C662 1.391 . S
C664 C665 1.400 . S
C665 C659 1.491 . S
C665 C664 1.400 . S
C665 C666 1.398 . S
C666 H654 0.950 . S
C666 C665 1.398 . S
C666 C667 1.391 . S
C667 H655 0.950 . S
C667 C663 1.393 . S
C667 C666 1.391 . S
H668 C676 0.950 . S
H669 C681 0.950 . S
H670 C678 0.950 . S
H671 C680 0.950 . S
H672 C682 0.950 . S
H673 C684 0.950 . S
H674 C686 0.950 . S
H675 C687 0.950 . S
C676 H668 0.950 . S
C676 C677 1.386 . S
C676 C678 1.391 . S
C677 C676 1.386 . S
C677 C681 1.393 . S
C678 H670 0.950 . S
C678 C676 1.391 . S
C678 C679 1.400 . S
C679 C678 1.400 . S
C679 C680 1.398 . S
C679 C685 1.491 . S
C680 H671 0.950 . S
C680 C679 1.398 . S
C680 C681 1.391 . S
C681 H669 0.950 . S
C681 C677 1.393 . S
C681 C680 1.391 . S
C682 H672 0.950 . S
C682 C683 1.386 . S
C682 C684 1.391 . S
C683 C682 1.386 . S
C683 C687 1.393 . S
C684 H673 0.950 . S
C684 C682 1.391 . S
C684 C685 1.400 . S
C685 C679 1.491 . S
C685 C684 1.400 . S
C685 C686 1.398 . S
C686 H674 0.950 . S
C686 C685 1.398 . S
C686 C687 1.391 . S
C687 H675 0.950 . S
C687 C683 1.393 . S
C687 C686 1.391 . S
H688 C696 0.950 . S
H689 C701 0.950 . S
H690 C698 0.950 . S
H691 C700 0.950 . S
H692 C702 0.950 . S
H693 C704 0.950 . S
H694 C706 0.950 . S
H695 C707 0.950 . S
C696 H688 0.950 . S
C696 C697 1.386 . S
C696 C698 1.391 . S
C697 C696 1.386 . S
C697 C701 1.393 . S
C698 H690 0.950 . S
C698 C696 1.391 . S
C698 C699 1.400 . S
C699 C698 1.400 . S
C699 C700 1.398 . S
C699 C705 1.491 . S
C700 H691 0.950 . S
C700 C699 1.398 . S
C700 C701 1.391 . S
C701 H689 0.950 . S
C701 C697 1.393 . S
C701 C700 1.391 . S
C702 H692 0.950 . S
C702 C703 1.386 . S
C702 C704 1.391 . S
C703 C702 1.386 . S
C703 C707 1.393 . S
C704 H693 0.950 . S
C704 C702 1.391 . S
C704 C705 1.400 . S
C705 C699 1.491 . S
C705 C704 1.400 . S
C705 C706 1.398 . S
C706 H694 0.950 . S
C706 C705 1.398 . S
C706 C707 1.391 . S
C707 H695 0.950 . S
C707 C703 1.393 . S
C707 C706 1.391 . S
H708 C716 0.950 . S
H709 C721 0.950 . S
H710 C718 0.950 . S
H711 C720 0.950 . S
H712 C722 0.950 . S
H713 C724 0.950 . S
H714 C726 0.950 . S
H715 C727 0.950 . S
C716 H708 0.950 . S
C716 C717 1.386 . S
C716 C718 1.391 . S
C717 C716 1.386 . S
C717 C721 1.393 . S
C718 H710 0.950 . S
C718 C716 1.391 . S
C718 C719 1.400 . S
C719 C718 1.400 . S
C719 C720 1.398 . S
C719 C725 1.491 . S
C720 H711 0.950 . S
C720 C719 1.398 . S
C720 C721 1.391 . S
C721 H709 0.950 . S
C721 C717 1.393 . S
C721 C720 1.391 . S
C722 H712 0.950 . S
C722 C723 1.386 . S
C722 C724 1.391 . S
C723 C722 1.386 . S
C723 C727 1.393 . S
C724 H713 0.950 . S
C724 C722 1.391 . S
C724 C725 1.400 . S
C725 C719 1.491 . S
C725 C724 1.400 . S
C725 C726 1.398 . S
C726 H714 0.950 . S
C726 C725 1.398 . S
C726 C727 1.391 . S
C727 H715 0.950 . S
C727 C723 1.393 . S
C727 C726 1.391 . S
H728 C736 0.950 . S
H729 C741 0.950 . S
H730 C738 0.950 . S
H731 C740 0.950 . S
H732 C742 0.950 . S
H733 C744 0.950 . S
H734 C746 0.950 . S
H735 C747 0.950 . S
C736 H728 0.950 . S
C736 C737 1.386 . S
C736 C738 1.391 . S
C737 C736 1.386 . S
C737 C741 1.393 . S
C738 H730 0.950 . S
C738 C736 1.391 . S
C738 C739 1.400 . S
C739 C738 1.400 . S
C739 C740 1.398 . S
C739 C745 1.491 . S
C740 H731 0.950 . S
C740 C739 1.398 . S
C740 C741 1.391 . S
C741 H729 0.950 . S
C741 C737 1.393 . S
C741 C740 1.391 . S
C742 H732 0.950 . S
C742 C743 1.386 . S
C742 C744 1.391 . S
C743 C742 1.386 . S
C743 C747 1.393 . S
C744 H733 0.950 . S
C744 C742 1.391 . S
C744 C745 1.400 . S
C745 C739 1.491 . S
C745 C744 1.400 . S
C745 C746 1.398 . S
C746 H734 0.950 . S
C746 C745 1.398 . S
C746 C747 1.391 . S
C747 H735 0.950 . S
C747 C743 1.393 . S
C747 C746 1.391 . S
H748 C756 0.950 . S
H749 C761 0.950 . S
H750 C758 0.950 . S
H751 C760 0.950 . S
H752 C762 0.950 . S
H753 C764 0.950 . S
H754 C766 0.950 . S
H755 C767 0.950 . S
C756 H748 0.950 . S
C756 C757 1.386 . S
C756 C758 1.391 . S
C757 C756 1.386 . S
C757 C761 1.393 . S
C758 H750 0.950 . S
C758 C756 1.391 . S
C758 C759 1.400 . S
C759 C758 1.400 . S
C759 C760 1.398 . S
C759 C765 1.491 . S
C760 H751 0.950 . S
C760 C759 1.398 . S
C760 C761 1.391 . S
C761 H749 0.950 . S
C761 C757 1.393 . S
C761 C760 1.391 . S
C762 H752 0.950 . S
C762 C763 1.386 . S
C762 C764 1.391 . S
C763 C762 1.386 . S
C763 C767 1.393 . S
C764 H753 0.950 . S
C764 C762 1.391 . S
C764 C765 1.400 . S
C765 C759 1.491 . S
C765 C764 1.400 . S
C765 C766 1.398 . S
C766 H754 0.950 . S
C766 C765 1.398 . S
C766 C767 1.391 . S
C767 H755 0.950 . S
C767 C763 1.393 . S
C767 C766 1.391 . S
H768 C776 0.950 . S
H769 C781 0.950 . S
H770 C778 0.950 . S
H771 C780 0.950 . S
H772 C782 0.950 . S
H773 C784 0.950 . S
H774 C786 0.950 . S
H775 C787 0.950 . S
C776 H768 0.950 . S
C776 C777 1.386 . S
C776 C778 1.391 . S
C777 C776 1.386 . S
C777 C781 1.393 . S
C778 H770 0.950 . S
C778 C776 1.391 . S
C778 C779 1.400 . S
C779 C778 1.400 . S
C779 C780 1.398 . S
C779 C785 1.491 1_655 S
C780 H771 0.950 . S
C780 C779 1.398 . S
C780 C781 1.391 . S
C781 H769 0.950 . S
C781 C777 1.393 . S
C781 C780 1.391 . S
C782 H772 0.950 . S
C782 C783 1.386 . S
C782 C784 1.391 . S
C783 C782 1.386 . S
C783 C787 1.393 . S
C784 H773 0.950 . S
C784 C782 1.391 . S
C784 C785 1.400 . S
C785 C779 1.491 1_455 S
C785 C784 1.400 . S
C785 C786 1.398 . S
C786 H774 0.950 . S
C786 C785 1.398 . S
C786 C787 1.391 . S
C787 H775 0.950 . S
C787 C783 1.393 . S
C787 C786 1.391 . S
H788 C796 0.950 . S
H789 C801 0.950 . S
H790 C798 0.950 . S
H791 C800 0.950 . S
H792 C802 0.950 . S
H793 C804 0.950 . S
H794 C806 0.950 . S
H795 C807 0.950 . S
C796 H788 0.950 . S
C796 C797 1.386 . S
C796 C798 1.391 . S
C797 C796 1.386 . S
C797 C801 1.393 . S
C798 H790 0.950 . S
C798 C796 1.391 . S
C798 C799 1.400 . S
C799 C798 1.400 . S
C799 C800 1.398 . S
C799 C805 1.491 1_545 S
C800 H791 0.950 . S
C800 C799 1.398 . S
C800 C801 1.391 . S
C801 H789 0.950 . S
C801 C797 1.393 . S
C801 C800 1.391 . S
C802 H792 0.950 . S
C802 C803 1.386 . S
C802 C804 1.391 . S
C803 C802 1.386 . S
C803 C807 1.393 . S
C804 H793 0.950 . S
C804 C802 1.391 . S
C804 C805 1.400 . S
C805 C799 1.491 1_565 S
C805 C804 1.400 . S
C805 C806 1.398 . S
C806 H794 0.950 . S
C806 C805 1.398 . S
C806 C807 1.391 . S
C807 H795 0.950 . S
C807 C803 1.393 . S
C807 C806 1.391 . S
H808 C816 0.950 . S
H809 C821 0.950 . S
H810 C818 0.950 . S
H811 C820 0.950 . S
H812 C822 0.950 . S
H813 C824 0.950 . S
H814 C826 0.950 . S
H815 C827 0.950 . S
C816 H808 0.950 . S
C816 C817 1.386 . S
C816 C818 1.391 . S
C817 C816 1.386 . S
C817 C821 1.393 . S
C818 H810 0.950 . S
C818 C816 1.391 . S
C818 C819 1.400 . S
C819 C818 1.400 . S
C819 C820 1.398 . S
C819 C825 1.491 1_455 S
C820 H811 0.950 . S
C820 C819 1.398 . S
C820 C821 1.391 . S
C821 H809 0.950 . S
C821 C817 1.393 . S
C821 C820 1.391 . S
C822 H812 0.950 . S
C822 C823 1.386 . S
C822 C824 1.391 . S
C823 C822 1.386 . S
C823 C827 1.393 . S
C824 H813 0.950 . S
C824 C822 1.391 . S
C824 C825 1.400 . S
C825 C819 1.491 1_655 S
C825 C824 1.400 . S
C825 C826 1.398 . S
C826 H814 0.950 . S
C826 C825 1.398 . S
C826 C827 1.391 . S
C827 H815 0.950 . S
C827 C823 1.393 . S
C827 C826 1.391 . S
H828 C836 0.950 . S
H829 C841 0.950 . S
H830 C838 0.950 . S
H831 C840 0.950 . S
H832 C842 0.950 . S
H833 C844 0.950 . S
H834 C846 0.950 . S
H835 C847 0.950 . S
C836 H828 0.950 . S
C836 C837 1.386 . S
C836 C838 1.391 . S
C837 C836 1.386 . S
C837 C841 1.393 . S
C838 H830 0.950 . S
C838 C836 1.391 . S
C838 C839 1.400 . S
C839 C838 1.400 . S
C839 C840 1.398 . S
C839 C845 1.491 1_565 S
C840 H831 0.950 . S
C840 C839 1.398 . S
C840 C841 1.391 . S
C841 H829 0.950 . S
C841 C837 1.393 . S
C841 C840 1.391 . S
C842 H832 0.950 . S
C842 C843 1.386 . S
C842 C844 1.391 . S
C843 C842 1.386 . S
C843 C847 1.393 . S
C844 H833 0.950 . S
C844 C842 1.391 . S
C844 C845 1.400 . S
C845 C839 1.491 1_545 S
C845 C844 1.400 . S
C845 C846 1.398 . S
C846 H834 0.950 . S
C846 C845 1.398 . S
C846 C847 1.391 . S
C847 H835 0.950 . S
C847 C843 1.393 . S
C847 C846 1.391 . S
H848 C856 0.950 . S
H849 C861 0.950 . S
H850 C858 0.950 . S
H851 C860 0.950 . S
H852 C862 0.950 . S
H853 C864 0.950 . S
H854 C866 0.950 . S
H855 C867 0.950 . S
C856 H848 0.950 . S
C856 C857 1.386 . S
C856 C858 1.391 . S
C857 C856 1.386 . S
C857 C861 1.393 . S
C858 H850 0.950 . S
C858 C856 1.391 . S
C858 C859 1.400 . S
C859 C858 1.400 . S
C859 C860 1.398 . S
C859 C865 1.491 1_455 S
C860 H851 0.950 . S
C860 C859 1.398 . S
C860 C861 1.391 . S
C861 H849 0.950 . S
C861 C857 1.393 . S
C861 C860 1.391 . S
C862 H852 0.950 . S
C862 C863 1.386 . S
C862 C864 1.391 . S
C863 C862 1.386 . S
C863 C867 1.393 . S
C864 H853 0.950 . S
C864 C862 1.391 . S
C864 C865 1.400 . S
C865 C859 1.491 1_655 S
C865 C864 1.400 . S
C865 C866 1.398 . S
C866 H854 0.950 . S
C866 C865 1.398 . S
C866 C867 1.391 . S
C867 H855 0.950 . S
C867 C863 1.393 . S
C867 C866 1.391 . S
H868 C876 0.950 . S
H869 C881 0.950 . S
H870 C878 0.950 . S
H871 C880 0.950 . S
H872 C882 0.950 . S
H873 C884 0.950 . S
H874 C886 0.950 . S
H875 C887 0.950 . S
C876 H868 0.950 . S
C876 C877 1.386 . S
C876 C878 1.391 . S
C877 C876 1.386 . S
C877 C881 1.393 . S
C878 H870 0.950 . S
C878 C876 1.391 . S
C878 C879 1.400 . S
C879 C878 1.400 . S
C879 C880 1.398 . S
C879 C885 1.491 1_565 S
C880 H871 0.950 . S
C880 C879 1.398 . S
C880 C881 1.391 . S
C881 H869 0.950 . S
C881 C877 1.393 . S
C881 C880 1.391 . S
C882 H872 0.950 . S
C882 C883 1.386 . S
C882 C884 1.391 . S
C883 C882 1.386 . S
C883 C887 1.393 . S
C884 H873 0.950 . S
C884 C882 1.391 . S
C884 C885 1.400 . S
C885 C879 1.491 1_545 S
C885 C884 1.400 . S
C885 C886 1.398 . S
C886 H874 0.950 . S
C886 C885 1.398 . S
C886 C887 1.391 . S
C887 H875 0.950 . S
C887 C883 1.393 . S
C887 C886 1.391 . S
H888 C896 0.950 . S
H889 C901 0.950 . S
H890 C898 0.950 . S
H891 C900 0.950 . S
H892 C902 0.950 . S
H893 C904 0.950 . S
H894 C906 0.950 . S
H895 C907 0.950 . S
C896 H888 0.950 . S
C896 C897 1.386 . S
C896 C898 1.391 . S
C897 C896 1.386 . S
C897 C901 1.393 . S
C898 H890 0.950 . S
C898 C896 1.391 . S
C898 C899 1.400 . S
C899 C898 1.400 . S
C899 C900 1.398 . S
C899 C905 1.491 1_455 S
C900 H891 0.950 . S
C900 C899 1.398 . S
C900 C901 1.391 . S
C901 H889 0.950 . S
C901 C897 1.393 . S
C901 C900 1.391 . S
C902 H892 0.950 . S
C902 C903 1.386 . S
C902 C904 1.391 . S
C903 C902 1.386 . S
C903 C907 1.393 . S
C904 H893 0.950 . S
C904 C902 1.391 . S
C904 C905 1.400 . S
C905 C899 1.491 1_655 S
C905 C904 1.400 . S
C905 C906 1.398 . S
C906 H894 0.950 . S
C906 C905 1.398 . S
C906 C907 1.391 . S
C907 H895 0.950 . S
C907 C903 1.393 . S
C907 C906 1.391 . S
H908 C916 0.950 . S
H909 C921 0.950 . S
H910 C918 0.950 . S
H911 C920 0.950 . S
H912 C922 0.950 . S
H913 C924 0.950 . S
H914 C926 0.950 . S
H915 C927 0.950 . S
C916 H908 0.950 . S
C916 C917 1.386 . S
C916 C918 1.391 . S
C917 C916 1.386 . S
C917 C921 1.393 . S
C918 H910 0.950 . S
C918 C916 1.391 . S
C918 C919 1.400 . S
C919 C918 1.400 . S
C919 C920 1.398 . S
C919 C925 1.491 1_545 S
C920 H911 0.950 . S
C920 C919 1.398 . S
C920 C921 1.391 . S
C921 H909 0.950 . S
C921 C917 1.393 . S
C921 C920 1.391 . S
C922 H912 0.950 . S
C922 C923 1.386 . S
C922 C924 1.391 . S
C923 C922 1.386 . S
C923 C927 1.393 . S
C924 H913 0.950 . S
C924 C922 1.391 . S
C924 C925 1.400 . S
C925 C919 1.491 1_565 S
C925 C924 1.400 . S
C925 C926 1.398 . S
C926 H914 0.950 . S
C926 C925 1.398 . S
C926 C927 1.391 . S
C927 H915 0.950 . S
C927 C923 1.393 . S
C927 C926 1.391 . S
H928 C936 0.950 . S
H929 C941 0.950 . S
H930 C938 0.950 . S
H931 C940 0.950 . S
H932 C942 0.950 . S
H933 C944 0.950 . S
H934 C946 0.950 . S
H935 C947 0.950 . S
C936 H928 0.950 . S
C936 C937 1.386 . S
C936 C938 1.391 . S
C937 C936 1.386 . S
C937 C941 1.393 . S
C938 H930 0.950 . S
C938 C936 1.391 . S
C938 C939 1.400 . S
C939 C938 1.400 . S
C939 C940 1.398 . S
C939 C945 1.491 . S
C940 H931 0.950 . S
C940 C939 1.398 . S
C940 C941 1.391 . S
C941 H929 0.950 . S
C941 C937 1.393 . S
C941 C940 1.391 . S
C942 H932 0.950 . S
C942 C943 1.386 . S
C942 C944 1.391 . S
C943 C942 1.386 . S
C943 C947 1.393 . S
C944 H933 0.950 . S
C944 C942 1.391 . S
C944 C945 1.400 . S
C945 C939 1.491 . S
C945 C944 1.400 . S
C945 C946 1.398 . S
C946 H934 0.950 . S
C946 C945 1.398 . S
C946 C947 1.391 . S
C947 H935 0.950 . S
C947 C943 1.393 . S
C947 C946 1.391 . S
H948 C956 0.950 . S
H949 C961 0.950 . S
H950 C958 0.950 . S
H951 C960 0.950 . S
H952 C962 0.950 . S
H953 C964 0.950 . S
H954 C966 0.950 . S
H955 C967 0.950 . S
C956 H948 0.950 . S
C956 C957 1.386 . S
C956 C958 1.391 . S
C957 C956 1.386 . S
C957 C961 1.393 . S
C958 H950 0.950 . S
C958 C956 1.391 . S
C958 C959 1.400 . S
C959 C958 1.400 . S
C959 C960 1.398 . S
C959 C965 1.491 . S
C960 H951 0.950 . S
C960 C959 1.398 . S
C960 C961 1.391 . S
C961 H949 0.950 . S
C961 C957 1.393 . S
C961 C960 1.391 . S
C962 H952 0.950 . S
C962 C963 1.386 . S
C962 C964 1.391 . S
C963 C962 1.386 . S
C963 C967 1.393 . S
C964 H953 0.950 . S
C964 C962 1.391 . S
C964 C965 1.400 . S
C965 C959 1.491 . S
C965 C964 1.400 . S
C965 C966 1.398 . S
C966 H954 0.950 . S
C966 C965 1.398 . S
C966 C967 1.391 . S
C967 H955 0.950 . S
C967 C963 1.393 . S
C967 C966 1.391 . S
H968 C976 0.950 . S
H969 C981 0.950 . S
H970 C978 0.950 . S
H971 C980 0.950 . S
H972 C982 0.950 . S
H973 C984 0.950 . S
H974 C986 0.950 . S
H975 C987 0.950 . S
C976 H968 0.950 . S
C976 C977 1.386 . S
C976 C978 1.391 . S
C977 C976 1.386 . S
C977 C981 1.393 . S
C978 H970 0.950 . S
C978 C976 1.391 . S
C978 C979 1.400 . S
C979 C978 1.400 . S
C979 C980 1.398 . S
C979 C985 1.491 . S
C980 H971 0.950 . S
C980 C979 1.398 . S
C980 C981 1.391 . S
C981 H969 0.950 . S
C981 C977 1.393 . S
C981 C980 1.391 . S
C982 H972 0.950 . S
C982 C983 1.386 . S
C982 C984 1.391 . S
C983 C982 1.386 . S
C983 C987 1.393 . S
C984 H973 0.950 . S
C984 C982 1.391 . S
C984 C985 1.400 . S
C985 C979 1.491 . S
C985 C984 1.400 . S
C985 C986 1.398 . S
C986 H974 0.950 . S
C986 C985 1.398 . S
C986 C987 1.391 . S
C987 H975 0.950 . S
C987 C983 1.393 . S
C987 C986 1.391 . S
H988 C996 0.950 . S
H989 C1001 0.950 . S
H990 C998 0.950 . S
H991 C1000 0.950 . S
H992 C1002 0.950 . S
H993 C1004 0.950 . S
H994 C1006 0.950 . S
H995 C1007 0.950 . S
C996 H988 0.950 . S
C996 C997 1.386 . S
C996 C998 1.391 . S
C997 C996 1.386 . S
C997 C1001 1.393 . S
C998 H990 0.950 . S
C998 C996 1.391 . S
C998 C999 1.400 . S
C999 C998 1.400 . S
C999 C1000 1.398 . S
C999 C1005 1.491 . S
C1000 H991 0.950 . S
C1000 C999 1.398 . S
C1000 C1001 1.391 . S
C1001 H989 0.950 . S
C1001 C997 1.393 . S
C1001 C1000 1.391 . S
C1002 H992 0.950 . S
C1002 C1003 1.386 . S
C1002 C1004 1.391 . S
C1003 C1002 1.386 . S
C1003 C1007 1.393 . S
C1004 H993 0.950 . S
C1004 C1002 1.391 . S
C1004 C1005 1.400 . S
C1005 C999 1.491 . S
C1005 C1004 1.400 . S
C1005 C1006 1.398 . S
C1006 H994 0.950 . S
C1006 C1005 1.398 . S
C1006 C1007 1.391 . S
C1007 H995 0.950 . S
C1007 C1003 1.393 . S
C1007 C1006 1.391 . S
H1008 C1016 0.950 . S
H1009 C1021 0.950 . S
H1010 C1018 0.950 . S
H1011 C1020 0.950 . S
H1012 C1022 0.950 . S
H1013 C1024 0.950 . S
H1014 C1026 0.950 . S
H1015 C1027 0.950 . S
C1016 H1008 0.950 . S
C1016 C1017 1.386 . S
C1016 C1018 1.391 . S
C1017 C1016 1.386 . S
C1017 C1021 1.393 . S
C1018 H1010 0.950 . S
C1018 C1016 1.391 . S
C1018 C1019 1.400 . S
C1019 C1018 1.400 . S
C1019 C1020 1.398 . S
C1019 C1025 1.491 . S
C1020 H1011 0.950 . S
C1020 C1019 1.398 . S
C1020 C1021 1.391 . S
C1021 H1009 0.950 . S
C1021 C1017 1.393 . S
C1021 C1020 1.391 . S
C1022 H1012 0.950 . S
C1022 C1023 1.386 . S
C1022 C1024 1.391 . S
C1023 C1022 1.386 . S
C1023 C1027 1.393 . S
C1024 H1013 0.950 . S
C1024 C1022 1.391 . S
C1024 C1025 1.400 . S
C1025 C1019 1.491 . S
C1025 C1024 1.400 . S
C1025 C1026 1.398 . S
C1026 H1014 0.950 . S
C1026 C1025 1.398 . S
C1026 C1027 1.391 . S
C1027 H1015 0.950 . S
C1027 C1023 1.393 . S
C1027 C1026 1.391 . S
H1028 C1036 0.950 . S
H1029 C1041 0.950 . S
H1030 C1038 0.950 . S
H1031 C1040 0.950 . S
H1032 C1042 0.950 . S
H1033 C1044 0.950 . S
H1034 C1046 0.950 . S
H1035 C1047 0.950 . S
C1036 H1028 0.950 . S
C1036 C1037 1.386 . S
C1036 C1038 1.391 . S
C1037 C1036 1.386 . S
C1037 C1041 1.393 . S
C1038 H1030 0.950 . S
C1038 C1036 1.391 . S
C1038 C1039 1.400 . S
C1039 C1038 1.400 . S
C1039 C1040 1.398 . S
C1039 C1045 1.491 . S
C1040 H1031 0.950 . S
C1040 C1039 1.398 . S
C1040 C1041 1.391 . S
C1041 H1029 0.950 . S
C1041 C1037 1.393 . S
C1041 C1040 1.391 . S
C1042 H1032 0.950 . S
C1042 C1043 1.386 . S
C1042 C1044 1.391 . S
C1043 C1042 1.386 . S
C1043 C1047 1.393 . S
C1044 H1033 0.950 . S
C1044 C1042 1.391 . S
C1044 C1045 1.400 . S
C1045 C1039 1.491 . S
C1045 C1044 1.400 . S
C1045 C1046 1.398 . S
C1046 H1034 0.950 . S
C1046 C1045 1.398 . S
C1046 C1047 1.391 . S
C1047 H1035 0.950 . S
C1047 C1043 1.393 . S
C1047 C1046 1.391 . S
H1048 C1056 0.950 . S
H1049 C1061 0.950 . S
H1050 C1058 0.950 . S
H1051 C1060 0.950 . S
H1052 C1062 0.950 . S
H1053 C1064 0.950 . S
H1054 C1066 0.950 . S
H1055 C1067 0.950 . S
C1056 H1048 0.950 . S
C1056 C1057 1.386 . S
C1056 C1058 1.391 . S
C1057 C1056 1.386 . S
C1057 C1061 1.393 . S
C1058 H1050 0.950 . S
C1058 C1056 1.391 . S
C1058 C1059 1.400 . S
C1059 C1058 1.400 . S
C1059 C1060 1.398 . S
C1059 C1065 1.491 . S
C1060 H1051 0.950 . S
C1060 C1059 1.398 . S
C1060 C1061 1.391 . S
C1061 H1049 0.950 . S
C1061 C1057 1.393 . S
C1061 C1060 1.391 . S
C1062 H1052 0.950 . S
C1062 C1063 1.386 . S
C1062 C1064 1.391 . S
C1063 C1062 1.386 . S
C1063 C1067 1.393 . S
C1064 H1053 0.950 . S
C1064 C1062 1.391 . S
C1064 C1065 1.400 . S
C1065 C1059 1.491 . S
C1065 C1064 1.400 . S
C1065 C1066 1.398 . S
C1066 H1054 0.950 . S
C1066 C1065 1.398 . S
C1066 C1067 1.391 . S
C1067 H1055 0.950 . S
C1067 C1063 1.393 . S
C1067 C1066 1.391 . S
H1068 C1076 0.950 . S
H1069 C1081 0.950 . S
H1070 C1078 0.950 . S
H1071 C1080 0.950 . S
H1072 C1082 0.950 . S
H1073 C1084 0.950 . S
H1074 C1086 0.950 . S
H1075 C1087 0.950 . S
C1076 H1068 0.950 . S
C1076 C1077 1.386 . S
C1076 C1078 1.391 . S
C1077 C1076 1.386 . S
C1077 C1081 1.393 . S
C1078 H1070 0.950 . S
C1078 C1076 1.391 . S
C1078 C1079 1.400 . S
C1079 C1078 1.400 . S
C1079 C1080 1.398 . S
C1079 C1085 1.491 . S
C1080 H1071 0.950 . S
C1080 C1079 1.398 . S
C1080 C1081 1.391 . S
C1081 H1069 0.950 . S
C1081 C1077 1.393 . S
C1081 C1080 1.391 . S
C1082 H1072 0.950 . S
C1082 C1083 1.386 . S
C1082 C1084 1.391 . S
C1083 C1082 1.386 . S
C1083 C1087 1.393 . S
C1084 H1073 0.950 . S
C1084 C1082 1.391 . S
C1084 C1085 1.400 . S
C1085 C1079 1.491 . S
C1085 C1084 1.400 . S
C1085 C1086 1.398 . S
C1086 H1074 0.950 . S
C1086 C1085 1.398 . S
C1086 C1087 1.391 . S
C1087 H1075 0.950 . S
C1087 C1083 1.393 . S
C1087 C1086 1.391 . S
H1088 C1096 0.950 . S
H1089 C1101 0.950 . S
H1090 C1098 0.950 . S
H1091 C1100 0.950 . S
H1092 C1102 0.950 . S
H1093 C1104 0.950 . S
H1094 C1106 0.950 . S
H1095 C1107 0.950 . S
C1096 H1088 0.950 . S
C1096 C1097 1.386 . S
C1096 C1098 1.391 . S
C1097 C1096 1.386 . S
C1097 C1101 1.393 . S
C1098 H1090 0.950 . S
C1098 C1096 1.391 . S
C1098 C1099 1.400 . S
C1099 C1098 1.400 . S
C1099 C1100 1.398 . S
C1099 C1105 1.491 . S
C1100 H1091 0.950 . S
C1100 C1099 1.398 . S
C1100 C1101 1.391 . S
C1101 H1089 0.950 . S
C1101 C1097 1.393 . S
C1101 C1100 1.391 . S
C1102 H1092 0.950 . S
C1102 C1103 1.386 . S
C1102 C1104 1.391 . S
C1103 C1102 1.386 . S
C1103 C1107 1.393 . S
C1104 H1093 0.950 . S
C1104 C1102 1.391 . S
C1104 C1105 1.400 . S
C1105 C1099 1.491 . S
C1105 C1104 1.400 . S
C1105 C1106 1.398 . S
C1106 H1094 0.950 . S
C1106 C1105 1.398 . S
C1106 C1107 1.391 . S
C1107 H1095 0.950 . S
C1107 C1103 1.393 . S
C1107 C1106 1.391 . S
H1108 C1116 0.950 . S
H1109 C1121 0.950 . S
H1110 C1118 0.950 . S
H1111 C1120 0.950 . S
H1112 C1122 0.950 . S
H1113 C1124 0.950 . S
H1114 C1126 0.950 . S
H1115 C1127 0.950 . S
C1116 H1108 0.950 . S
C1116 C1117 1.386 . S
C1116 C1118 1.391 . S
C1117 C1116 1.386 . S
C1117 C1121 1.393 . S
C1118 H1110 0.950 . S
C1118 C1116 1.391 . S
C1118 C1119 1.400 . S
C1119 C1118 1.400 . S
C1119 C1120 1.398 . S
C1119 C1125 1.491 . S
C1120 H1111 0.950 . S
C1120 C1119 1.398 . S
C1120 C1121 1.391 . S
C1121 H1109 0.950 . S
C1121 C1117 1.393 . S
C1121 C1120 1.391 . S
C1122 H1112 0.950 . S
C1122 C1123 1.386 . S
C1122 C1124 1.391 . S
C1123 C1122 1.386 . S
C1123 C1127 1.393 . S
C1124 H1113 0.950 . S
C1124 C1122 1.391 . S
C1124 C1125 1.400 . S
C1125 C1119 1.491 . S
C1125 C1124 1.400 . S
C1125 C1126 1.398 . S
C1126 H1114 0.950 . S
C1126 C1125 1.398 . S
C1126 C1127 1.391 . S
C1127 H1115 0.950 . S
C1127 C1123 1.393 . S
C1127 C1126 1.391 . S
H1128 C1136 0.950 . S
H1129 C1141 0.950 . S
H1130 C1138 0.950 . S
H1131 C1140 0.950 . S
H1132 C1142 0.950 . S
H1133 C1144 0.950 . S
H1134 C1146 0.950 . S
H1135 C1147 0.950 . S
C1136 H1128 0.950 . S
C1136 C1137 1.386 . S
C1136 C1138 1.391 . S
C1137 C1136 1.386 . S
C1137 C1141 1.393 . S
C1138 H1130 0.950 . S
C1138 C1136 1.391 . S
C1138 C1139 1.400 . S
C1139 C1138 1.400 . S
C1139 C1140 1.398 . S
C1139 C1145 1.491 . S
C1140 H1131 0.950 . S
C1140 C1139 1.398 . S
C1140 C1141 1.391 . S
C1141 H1129 0.950 . S
C1141 C1137 1.393 . S
C1141 C1140 1.391 . S
C1142 H1132 0.950 . S
C1142 C1143 1.386 . S
C1142 C1144 1.391 . S
C1143 C1142 1.386 . S
C1143 C1147 1.393 . S
C1144 H1133 0.950 . S
C1144 C1142 1.391 . S
C1144 C1145 1.400 . S
C1145 C1139 1.491 . S
C1145 C1144 1.400 . S
C1145 C1146 1.398 . S
C1146 H1134 0.950 . S
C1146 C1145 1.398 . S
C1146 C1147 1.391 . S
C1147 H1135 0.950 . S
C1147 C1143 1.393 . S
C1147 C1146 1.391 . S
H1148 C1156 0.950 . S
H1149 C1161 0.950 . S
H1150 C1158 0.950 . S
H1151 C1160 0.950 . S
H1152 C1162 0.950 . S
H1153 C1164 0.950 . S
H1154 C1166 0.950 . S
H1155 C1167 0.950 . S
C1156 H1148 0.950 . S
C1156 C1157 1.386 . S
C1156 C1158 1.391 . S
C1157 C1156 1.386 . S
C1157 C1161 1.393 . S
C1158 H1150 0.950 . S
C1158 C1156 1.391 . S
C1158 C1159 1.400 . S
C1159 C1158 1.400 . S
C1159 C1160 1.398 . S
C1159 C1165 1.491 . S
C1160 H1151 0.950 . S
C1160 C1159 1.398 . S
C1160 C1161 1.391 . S
C1161 H1149 0.950 . S
C1161 C1157 1.393 . S
C1161 C1160 1.391 . S
C1162 H1152 0.950 . S
C1162 C1163 1.386 . S
C1162 C1164 1.391 . S
C1163 C1162 1.386 . S
C1163 C1167 1.393 . S
C1164 H1153 0.950 . S
C1164 C1162 1.391 . S
C1164 C1165 1.400 . S
C1165 C1159 1.491 . S
C1165 C1164 1.400 . S
C1165 C1166 1.398 . S
C1166 H1154 0.950 . S
C1166 C1165 1.398 . S
C1166 C1167 1.391 . S
C1167 H1155 0.950 . S
C1167 C1163 1.393 . S
C1167 C1166 1.391 . S
H1168 C1176 0.950 . S
H1169 C1181 0.950 . S
H1170 C1178 0.950 . S
H1171 C1180 0.950 . S
H1172 C1182 0.950 . S
H1173 C1184 0.950 . S
H1174 C1186 0.950 . S
H1175 C1187 0.950 . S
C1176 H1168 0.950 . S
C1176 C1177 1.386 . S
C1176 C1178 1.391 . S
C1177 C1176 1.386 . S
C1177 C1181 1.393 . S
C1178 H1170 0.950 . S
C1178 C1176 1.391 . S
C1178 C1179 1.400 . S
C1179 C1178 1.400 . S
C1179 C1180 1.398 . S
C1179 C1185 1.491 . S
C1180 H1171 0.950 . S
C1180 C1179 1.398 . S
C1180 C1181 1.391 . S
C1181 H1169 0.950 . S
C1181 C1177 1.393 . S
C1181 C1180 1.391 . S
C1182 H1172 0.950 . S
C1182 C1183 1.386 . S
C1182 C1184 1.391 . S
C1183 C1182 1.386 . S
C1183 C1187 1.393 . S
C1184 H1173 0.950 . S
C1184 C1182 1.391 . S
C1184 C1185 1.400 . S
C1185 C1179 1.491 . S
C1185 C1184 1.400 . S
C1185 C1186 1.398 . S
C1186 H1174 0.950 . S
C1186 C1185 1.398 . S
C1186 C1187 1.391 . S
C1187 H1175 0.950 . S
C1187 C1183 1.393 . S
C1187 C1186 1.391 . S
H1188 C1196 0.950 . S
H1189 C1201 0.950 . S
H1190 C1198 0.950 . S
H1191 C1200 0.950 . S
H1192 C1202 0.950 . S
H1193 C1204 0.950 . S
H1194 C1206 0.950 . S
H1195 C1207 0.950 . S
C1196 H1188 0.950 . S
C1196 C1197 1.386 . S
C1196 C1198 1.391 . S
C1197 C1196 1.386 . S
C1197 C1201 1.393 . S
C1198 H1190 0.950 . S
C1198 C1196 1.391 . S
C1198 C1199 1.400 . S
C1199 C1198 1.400 . S
C1199 C1200 1.398 . S
C1199 C1205 1.491 . S
C1200 H1191 0.950 . S
C1200 C1199 1.398 . S
C1200 C1201 1.391 . S
C1201 H1189 0.950 . S
C1201 C1197 1.393 . S
C1201 C1200 1.391 . S
C1202 H1192 0.950 . S
C1202 C1203 1.386 . S
C1202 C1204 1.391 . S
C1203 C1202 1.386 . S
C1203 C1207 1.393 . S
C1204 H1193 0.950 . S
C1204 C1202 1.391 . S
C1204 C1205 1.400 . S
C1205 C1199 1.491 . S
C1205 C1204 1.400 . S
C1205 C1206 1.398 . S
C1206 H1194 0.950 . S
C1206 C1205 1.398 . S
C1206 C1207 1.391 . S
C1207 H1195 0.950 . S
C1207 C1203 1.393 . S
C1207 C1206 1.391 . S
H1208 C1216 0.950 . S
H1209 C1221 0.950 . S
H1210 C1218 0.950 . S
H1211 C1220 0.950 . S
H1212 C1222 0.950 . S
H1213 C1224 0.950 . S
H1214 C1226 0.950 . S
H1215 C1227 0.950 . S
C1216 H1208 0.950 . S
C1216 C1217 1.386 . S
C1216 C1218 1.391 . S
C1217 C1216 1.386 . S
C1217 C1221 1.393 . S
C1218 H1210 0.950 . S
C1218 C1216 1.391 . S
C1218 C1219 1.400 . S
C1219 C1218 1.400 . S
C1219 C1220 1.398 . S
C1219 C1225 1.491 . S
C1220 H1211 0.950 . S
C1220 C1219 1.398 . S
C1220 C1221 1.391 . S
C1221 H1209 0.950 . S
C1221 C1217 1.393 . S
C1221 C1220 1.391 . S
C1222 H1212 0.950 . S
C1222 C1223 1.386 . S
C1222 C1224 1.391 . S
C1223 C1222 1.386 . S
C1223 C1227 1.393 . S
C1224 H1213 0.950 . S
C1224 C1222 1.391 . S
C1224 C1225 1.400 . S
C1225 C1219 1.491 . S
C1225 C1224 1.400 . S
C1225 C1226 1.398 . S
C1226 H1214 0.950 . S
C1226 C1225 1.398 . S
C1226 C1227 1.391 . S
C1227 H1215 0.950 . S
C1227 C1223 1.393 . S
C1227 C1226 1.391 . S
H1228 C1236 0.950 . S
H1229 C1241 0.950 . S
H1230 C1238 0.950 . S
H1231 C1240 0.950 . S
H1232 C1242 0.950 . S
H1233 C1244 0.950 . S
H1234 C1246 0.950 . S
H1235 C1247 0.950 . S
C1236 H1228 0.950 . S
C1236 C1237 1.386 . S
C1236 C1238 1.391 . S
C1237 C1236 1.386 . S
C1237 C1241 1.393 . S
C1238 H1230 0.950 . S
C1238 C1236 1.391 . S
C1238 C1239 1.400 . S
C1239 C1238 1.400 . S
C1239 C1240 1.398 . S
C1239 C1245 1.491 . S
C1240 H1231 0.950 . S
C1240 C1239 1.398 . S
C1240 C1241 1.391 . S
C1241 H1229 0.950 . S
C1241 C1237 1.393 . S
C1241 C1240 1.391 . S
C1242 H1232 0.950 . S
C1242 C1243 1.386 . S
C1242 C1244 1.391 . S
C1243 C1242 1.386 . S
C1243 C1247 1.393 . S
C1244 H1233 0.950 . S
C1244 C1242 1.391 . S
C1244 C1245 1.400 . S
C1245 C1239 1.491 . S
C1245 C1244 1.400 . S
C1245 C1246 1.398 . S
C1246 H1234 0.950 . S
C1246 C1245 1.398 . S
C1246 C1247 1.391 . S
C1247 H1235 0.950 . S
C1247 C1243 1.393 . S
C1247 C1246 1.391 . S
H1248 C1256 0.950 . S
H1249 C1261 0.950 . S
H1250 C1258 0.950 . S
H1251 C1260 0.950 . S
H1252 C1262 0.950 . S
H1253 C1264 0.950 . S
H1254 C1266 0.950 . S
H1255 C1267 0.950 . S
C1256 H1248 0.950 . S
C1256 C1257 1.386 . S
C1256 C1258 1.391 . S
C1257 C1256 1.386 . S
C1257 C1261 1.393 . S
C1258 H1250 0.950 . S
C1258 C1256 1.391 . S
C1258 C1259 1.400 . S
C1259 C1258 1.400 . S
C1259 C1260 1.398 . S
C1259 C1265 1.491 1_554 S
C1260 H1251 0.950 . S
C1260 C1259 1.398 . S
C1260 C1261 1.391 . S
C1261 H1249 0.950 . S
C1261 C1257 1.393 . S
C1261 C1260 1.391 . S
C1262 H1252 0.950 . S
C1262 C1263 1.386 . S
C1262 C1264 1.391 . S
C1263 C1262 1.386 . S
C1263 C1267 1.393 . S
C1264 H1253 0.950 . S
C1264 C1262 1.391 . S
C1264 C1265 1.400 . S
C1265 C1259 1.491 1_556 S
C1265 C1264 1.400 . S
C1265 C1266 1.398 . S
C1266 H1254 0.950 . S
C1266 C1265 1.398 . S
C1266 C1267 1.391 . S
C1267 H1255 0.950 . S
C1267 C1263 1.393 . S
C1267 C1266 1.391 . S
H1268 C1276 0.950 . S
H1269 C1281 0.950 . S
H1270 C1278 0.950 1_554 S
H1271 C1280 0.959 . S
H1272 C1282 0.950 . S
H1273 C1284 0.950 . S
H1274 C1286 0.950 . S
H1275 C1287 0.950 . S
C1276 H1268 0.950 . S
C1276 C1277 1.386 . S
C1276 C1278 1.391 . S
C1277 C1276 1.386 . S
C1277 C1281 1.393 . S
C1278 H1270 0.950 1_556 S
C1278 C1276 1.391 . S
C1278 C1279 1.400 1_556 S
C1279 C1278 1.400 1_554 S
C1279 C1280 1.398 1_554 S
C1279 C1285 1.491 . S
C1280 H1271 0.959 . S
C1280 C1279 1.398 1_556 S
C1280 C1281 1.391 . S
C1281 H1269 0.950 . S
C1281 C1277 1.393 . S
C1281 C1280 1.391 . S
C1282 H1272 0.950 . S
C1282 C1283 1.386 . S
C1282 C1284 1.391 . S
C1283 C1282 1.386 . S
C1283 C1287 1.393 . S
C1284 H1273 0.950 . S
C1284 C1282 1.391 . S
C1284 C1285 1.400 . S
C1285 C1279 1.491 . S
C1285 C1284 1.400 . S
C1285 C1286 1.398 . S
C1286 H1274 0.950 . S
C1286 C1285 1.398 . S
C1286 C1287 1.391 . S
C1287 H1275 0.950 . S
C1287 C1283 1.393 . S
C1287 C1286 1.391 . S
H1288 C1296 0.950 . S
H1289 C1301 0.950 . S
H1290 C1298 0.950 . S
H1291 C1300 0.950 . S
H1292 C1302 0.950 . S
H1293 C1304 0.950 . S
H1294 C1306 0.950 . S
H1295 C1307 0.950 . S
C1296 H1288 0.950 . S
C1296 C1297 1.386 . S
C1296 C1298 1.391 . S
C1297 C1296 1.386 . S
C1297 C1301 1.393 . S
C1298 H1290 0.950 . S
C1298 C1296 1.391 . S
C1298 C1299 1.400 . S
C1299 C1298 1.400 . S
C1299 C1300 1.398 . S
C1299 C1305 1.491 1_554 S
C1300 H1291 0.950 . S
C1300 C1299 1.398 . S
C1300 C1301 1.391 . S
C1301 H1289 0.950 . S
C1301 C1297 1.393 . S
C1301 C1300 1.391 . S
C1302 H1292 0.950 . S
C1302 C1303 1.386 . S
C1302 C1304 1.391 . S
C1303 C1302 1.386 . S
C1303 C1307 1.393 . S
C1304 H1293 0.950 . S
C1304 C1302 1.391 . S
C1304 C1305 1.400 . S
C1305 C1299 1.491 1_556 S
C1305 C1304 1.400 . S
C1305 C1306 1.398 . S
C1306 H1294 0.950 . S
C1306 C1305 1.398 . S
C1306 C1307 1.391 . S
C1307 H1295 0.950 . S
C1307 C1303 1.393 . S
C1307 C1306 1.391 . S
H1308 C1316 0.950 . S
H1309 C1321 0.950 . S
H1310 C1318 0.950 . S
H1311 C1320 0.950 . S
H1312 C1322 0.950 . S
H1313 C1324 0.950 1_554 S
H1314 C1326 0.950 . S
H1315 C1327 0.950 . S
C1316 H1308 0.950 . S
C1316 C1317 1.386 . S
C1316 C1318 1.391 . S
C1317 C1316 1.386 . S
C1317 C1321 1.393 . S
C1318 H1310 0.950 . S
C1318 C1316 1.391 . S
C1318 C1319 1.400 . S
C1319 C1318 1.400 . S
C1319 C1320 1.398 . S
C1319 C1325 1.491 . S
C1320 H1311 0.950 . S
C1320 C1319 1.398 . S
C1320 C1321 1.391 . S
C1321 H1309 0.950 . S
C1321 C1317 1.393 . S
C1321 C1320 1.391 . S
C1322 H1312 0.950 . S
C1322 C1323 1.386 . S
C1322 C1324 1.391 . S
C1323 C1322 1.386 . S
C1323 C1327 1.393 . S
C1324 H1313 0.950 1_556 S
C1324 C1322 1.391 . S
C1324 C1325 1.400 1_556 S
C1325 C1319 1.491 . S
C1325 C1324 1.400 1_554 S
C1325 C1326 1.398 1_554 S
C1326 H1314 0.950 . S
C1326 C1325 1.398 1_556 S
C1326 C1327 1.391 . S
C1327 H1315 0.950 . S
C1327 C1323 1.393 . S
C1327 C1326 1.391 . S
H1328 C1336 0.950 . S
H1329 C1341 0.950 . S
H1330 C1338 0.950 . S
H1331 C1340 0.950 . S
H1332 C1342 0.950 . S
H1333 C1344 0.950 . S
H1334 C1346 0.950 . S
H1335 C1347 0.950 . S
C1336 H1328 0.950 . S
C1336 C1337 1.386 . S
C1336 C1338 1.391 . S
C1337 C1336 1.386 . S
C1337 C1341 1.393 . S
C1338 H1330 0.950 . S
C1338 C1336 1.391 . S
C1338 C1339 1.400 . S
C1339 C1338 1.400 . S
C1339 C1340 1.398 . S
C1339 C1345 1.491 1_554 S
C1340 H1331 0.950 . S
C1340 C1339 1.398 . S
C1340 C1341 1.391 . S
C1341 H1329 0.950 . S
C1341 C1337 1.393 . S
C1341 C1340 1.391 . S
C1342 H1332 0.950 . S
C1342 C1343 1.386 . S
C1342 C1344 1.391 . S
C1343 C1342 1.386 . S
C1343 C1347 1.393 . S
C1344 H1333 0.950 . S
C1344 C1342 1.391 . S
C1344 C1345 1.400 . S
C1345 C1339 1.491 1_556 S
C1345 C1344 1.400 . S
C1345 C1346 1.398 . S
C1346 H1334 0.950 . S
C1346 C1345 1.398 . S
C1346 C1347 1.391 . S
C1347 H1335 0.950 . S
C1347 C1343 1.393 . S
C1347 C1346 1.391 . S
H1348 C1356 0.950 . S
H1349 C1361 0.950 . S
H1350 C1358 0.950 1_556 S
H1351 C1360 0.950 . S
H1352 C1362 0.950 . S
H1353 C1364 0.950 . S
H1354 C1366 0.950 . S
H1355 C1367 0.950 . S
C1356 H1348 0.950 . S
C1356 C1357 1.386 . S
C1356 C1358 1.391 . S
C1357 C1356 1.386 . S
C1357 C1361 1.393 . S
C1358 H1350 0.950 1_554 S
C1358 C1356 1.391 . S
C1358 C1359 1.400 1_554 S
C1359 C1358 1.400 1_556 S
C1359 C1360 1.398 1_556 S
C1359 C1365 1.491 . S
C1360 H1351 0.950 . S
C1360 C1359 1.398 1_554 S
C1360 C1361 1.391 . S
C1361 H1349 0.950 . S
C1361 C1357 1.393 . S
C1361 C1360 1.391 . S
C1362 H1352 0.950 . S
C1362 C1363 1.386 . S
C1362 C1364 1.391 . S
C1363 C1362 1.386 . S
C1363 C1367 1.393 . S
C1364 H1353 0.950 . S
C1364 C1362 1.391 . S
C1364 C1365 1.400 . S
C1365 C1359 1.491 . S
C1365 C1364 1.400 . S
C1365 C1366 1.398 . S
C1366 H1354 0.950 . S
C1366 C1365 1.398 . S
C1366 C1367 1.391 . S
C1367 H1355 0.950 . S
C1367 C1363 1.393 . S
C1367 C1366 1.391 . S
H1368 C1376 0.950 . S
H1369 C1381 0.950 . S
H1370 C1378 0.950 . S
H1371 C1380 0.950 . S
H1372 C1382 0.950 . S
H1373 C1384 0.950 . S
H1374 C1386 0.950 . S
H1375 C1387 0.950 . S
C1376 H1368 0.950 . S
C1376 C1377 1.386 . S
C1376 C1378 1.391 . S
C1377 C1376 1.386 . S
C1377 C1381 1.393 . S
C1378 H1370 0.950 . S
C1378 C1376 1.391 . S
C1378 C1379 1.400 . S
C1379 C1378 1.400 . S
C1379 C1380 1.398 . S
C1379 C1385 1.491 1_556 S
C1380 H1371 0.950 . S
C1380 C1379 1.398 . S
C1380 C1381 1.391 . S
C1381 H1369 0.950 . S
C1381 C1377 1.393 . S
C1381 C1380 1.391 . S
C1382 H1372 0.950 . S
C1382 C1383 1.386 . S
C1382 C1384 1.391 . S
C1383 C1382 1.386 . S
C1383 C1387 1.393 . S
C1384 H1373 0.950 . S
C1384 C1382 1.391 . S
C1384 C1385 1.400 . S
C1385 C1379 1.491 1_554 S
C1385 C1384 1.400 . S
C1385 C1386 1.398 . S
C1386 H1374 0.950 . S
C1386 C1385 1.398 . S
C1386 C1387 1.391 . S
C1387 H1375 0.950 . S
C1387 C1383 1.393 . S
C1387 C1386 1.391 . S
H1388 C1396 0.950 . S
H1389 C1401 0.950 . S
H1390 C1398 0.950 . S
H1391 C1400 0.950 . S
H1392 C1402 0.950 . S
H1393 C1404 0.950 1_556 S
H1394 C1406 0.953 . S
H1395 C1407 0.950 . S
C1396 H1388 0.950 . S
C1396 C1397 1.386 . S
C1396 C1398 1.391 . S
C1397 C1396 1.386 . S
C1397 C1401 1.393 . S
C1398 H1390 0.950 . S
C1398 C1396 1.391 . S
C1398 C1399 1.400 . S
C1399 C1398 1.400 . S
C1399 C1400 1.398 . S
C1399 C1405 1.491 . S
C1400 H1391 0.950 . S
C1400 C1399 1.398 . S
C1400 C1401 1.391 . S
C1401 H1389 0.950 . S
C1401 C1397 1.393 . S
C1401 C1400 1.391 . S
C1402 H1392 0.950 . S
C1402 C1403 1.386 . S
C1402 C1404 1.391 . S
C1403 C1402 1.386 . S
C1403 C1407 1.393 . S
C1404 H1393 0.950 1_554 S
C1404 C1402 1.391 . S
C1404 C1405 1.400 1_554 S
C1405 C1399 1.491 . S
C1405 C1404 1.400 1_556 S
C1405 C1406 1.398 1_556 S
C1406 H1394 0.953 . S
C1406 C1405 1.398 1_554 S
C1406 C1407 1.391 . S
C1407 H1395 0.950 . S
C1407 C1403 1.393 . S
C1407 C1406 1.391 . S
H1408 C1416 0.950 . S
H1409 C1421 0.950 . S
H1410 C1418 0.950 . S
H1411 C1420 0.950 . S
H1412 C1422 0.950 . S
H1413 C1424 0.950 . S
H1414 C1426 0.950 . S
H1415 C1427 0.950 . S
C1416 H1408 0.950 . S
C1416 C1417 1.386 . S
C1416 C1418 1.391 . S
C1417 C1416 1.386 . S
C1417 C1421 1.393 . S
C1418 H1410 0.950 . S
C1418 C1416 1.391 . S
C1418 C1419 1.400 . S
C1419 C1418 1.400 . S
C1419 C1420 1.398 . S
C1419 C1425 1.491 . S
C1420 H1411 0.950 . S
C1420 C1419 1.398 . S
C1420 C1421 1.391 . S
C1421 H1409 0.950 . S
C1421 C1417 1.393 . S
C1421 C1420 1.391 . S
C1422 H1412 0.950 . S
C1422 C1423 1.386 . S
C1422 C1424 1.391 . S
C1423 C1422 1.386 . S
C1423 C1427 1.393 . S
C1424 H1413 0.950 . S
C1424 C1422 1.391 . S
C1424 C1425 1.400 . S
C1425 C1419 1.491 . S
C1425 C1424 1.400 . S
C1425 C1426 1.398 . S
C1426 H1414 0.950 . S
C1426 C1425 1.398 . S
C1426 C1427 1.391 . S
C1427 H1415 0.950 . S
C1427 C1423 1.393 . S
C1427 C1426 1.391 . S
H1428 C1436 0.950 . S
H1429 C1441 0.950 . S
H1430 C1438 0.950 . S
H1431 C1440 0.950 . S
H1432 C1442 0.950 . S
H1433 C1444 0.950 . S
H1434 C1446 0.950 . S
H1435 C1447 0.950 . S
C1436 H1428 0.950 . S
C1436 C1437 1.386 . S
C1436 C1438 1.391 . S
C1437 C1436 1.386 . S
C1437 C1441 1.393 . S
C1438 H1430 0.950 . S
C1438 C1436 1.391 . S
C1438 C1439 1.400 . S
C1439 C1438 1.400 . S
C1439 C1440 1.398 . S
C1439 C1445 1.491 . S
C1440 H1431 0.950 . S
C1440 C1439 1.398 . S
C1440 C1441 1.391 . S
C1441 H1429 0.950 . S
C1441 C1437 1.393 . S
C1441 C1440 1.391 . S
C1442 H1432 0.950 . S
C1442 C1443 1.386 . S
C1442 C1444 1.391 . S
C1443 C1442 1.386 . S
C1443 C1447 1.393 . S
C1444 H1433 0.950 . S
C1444 C1442 1.391 . S
C1444 C1445 1.400 . S
C1445 C1439 1.491 . S
C1445 C1444 1.400 . S
C1445 C1446 1.398 . S
C1446 H1434 0.950 . S
C1446 C1445 1.398 . S
C1446 C1447 1.391 . S
C1447 H1435 0.950 . S
C1447 C1443 1.393 . S
C1447 C1446 1.391 . S
H1448 C1456 0.950 . S
H1449 C1461 0.950 . S
H1450 C1458 0.950 . S
H1451 C1460 0.950 . S
H1452 C1462 0.950 . S
H1453 C1464 0.950 . S
H1454 C1466 0.950 . S
H1455 C1467 0.950 . S
C1456 H1448 0.950 . S
C1456 C1457 1.386 . S
C1456 C1458 1.391 . S
C1457 C1456 1.386 . S
C1457 C1461 1.393 . S
C1458 H1450 0.950 . S
C1458 C1456 1.391 . S
C1458 C1459 1.400 . S
C1459 C1458 1.400 . S
C1459 C1460 1.398 . S
C1459 C1465 1.491 . S
C1460 H1451 0.950 . S
C1460 C1459 1.398 . S
C1460 C1461 1.391 . S
C1461 H1449 0.950 . S
C1461 C1457 1.393 . S
C1461 C1460 1.391 . S
C1462 H1452 0.950 . S
C1462 C1463 1.386 . S
C1462 C1464 1.391 . S
C1463 C1462 1.386 . S
C1463 C1467 1.393 . S
C1464 H1453 0.950 . S
C1464 C1462 1.391 . S
C1464 C1465 1.400 . S
C1465 C1459 1.491 . S
C1465 C1464 1.400 . S
C1465 C1466 1.398 . S
C1466 H1454 0.950 . S
C1466 C1465 1.398 . S
C1466 C1467 1.391 . S
C1467 H1455 0.950 . S
C1467 C1463 1.393 . S
C1467 C1466 1.391 . S
H1468 C1476 0.950 . S
H1469 C1481 0.950 . S
H1470 C1478 0.950 . S
H1471 C1480 0.950 . S
H1472 C1482 0.950 . S
H1473 C1484 0.950 . S
H1474 C1486 0.950 . S
H1475 C1487 0.950 . S
C1476 H1468 0.950 . S
C1476 C1477 1.386 . S
C1476 C1478 1.391 . S
C1477 C1476 1.386 . S
C1477 C1481 1.393 . S
C1478 H1470 0.950 . S
C1478 C1476 1.391 . S
C1478 C1479 1.400 . S
C1479 C1478 1.400 . S
C1479 C1480 1.398 . S
C1479 C1485 1.491 . S
C1480 H1471 0.950 . S
C1480 C1479 1.398 . S
C1480 C1481 1.391 . S
C1481 H1469 0.950 . S
C1481 C1477 1.393 . S
C1481 C1480 1.391 . S
C1482 H1472 0.950 . S
C1482 C1483 1.386 . S
C1482 C1484 1.391 . S
C1483 C1482 1.386 . S
C1483 C1487 1.393 . S
C1484 H1473 0.950 . S
C1484 C1482 1.391 . S
C1484 C1485 1.400 . S
C1485 C1479 1.491 . S
C1485 C1484 1.400 . S
C1485 C1486 1.398 . S
C1486 H1474 0.950 . S
C1486 C1485 1.398 . S
C1486 C1487 1.391 . S
C1487 H1475 0.950 . S
C1487 C1483 1.393 . S
C1487 C1486 1.391 . S
H1488 C1496 0.950 . S
H1489 C1501 0.950 . S
H1490 C1498 0.950 . S
H1491 C1500 0.950 . S
H1492 C1502 0.950 . S
H1493 C1504 0.950 . S
H1494 C1506 0.950 . S
H1495 C1507 0.950 . S
C1496 H1488 0.950 . S
C1496 C1497 1.386 . S
C1496 C1498 1.391 . S
C1497 C1496 1.386 . S
C1497 C1501 1.393 . S
C1498 H1490 0.950 . S
C1498 C1496 1.391 . S
C1498 C1499 1.400 . S
C1499 C1498 1.400 . S
C1499 C1500 1.398 . S
C1499 C1505 1.491 . S
C1500 H1491 0.950 . S
C1500 C1499 1.398 . S
C1500 C1501 1.391 . S
C1501 H1489 0.950 . S
C1501 C1497 1.393 . S
C1501 C1500 1.391 . S
C1502 H1492 0.950 . S
C1502 C1503 1.386 . S
C1502 C1504 1.391 . S
C1503 C1502 1.386 . S
C1503 C1507 1.393 . S
C1504 H1493 0.950 . S
C1504 C1502 1.391 . S
C1504 C1505 1.400 . S
C1505 C1499 1.491 . S
C1505 C1504 1.400 . S
C1505 C1506 1.398 . S
C1506 H1494 0.950 . S
C1506 C1505 1.398 . S
C1506 C1507 1.391 . S
C1507 H1495 0.950 . S
C1507 C1503 1.393 . S
C1507 C1506 1.391 . S
H1508 C1516 0.950 . S
H1509 C1521 0.950 . S
H1510 C1518 0.950 . S
H1511 C1520 0.950 . S
H1512 C1522 0.950 . S
H1513 C1524 0.950 . S
H1514 C1526 0.950 . S
H1515 C1527 0.950 . S
C1516 H1508 0.950 . S
C1516 C1517 1.386 . S
C1516 C1518 1.391 . S
C1517 C1516 1.386 . S
C1517 C1521 1.393 . S
C1518 H1510 0.950 . S
C1518 C1516 1.391 . S
C1518 C1519 1.400 . S
C1519 C1518 1.400 . S
C1519 C1520 1.398 . S
C1519 C1525 1.491 . S
C1520 H1511 0.950 . S
C1520 C1519 1.398 . S
C1520 C1521 1.391 . S
C1521 H1509 0.950 . S
C1521 C1517 1.393 . S
C1521 C1520 1.391 . S
C1522 H1512 0.950 . S
C1522 C1523 1.386 . S
C1522 C1524 1.391 . S
C1523 C1522 1.386 . S
C1523 C1527 1.393 . S
C1524 H1513 0.950 . S
C1524 C1522 1.391 . S
C1524 C1525 1.400 . S
C1525 C1519 1.491 . S
C1525 C1524 1.400 . S
C1525 C1526 1.398 . S
C1526 H1514 0.950 . S
C1526 C1525 1.398 . S
C1526 C1527 1.391 . S
C1527 H1515 0.950 . S
C1527 C1523 1.393 . S
C1527 C1526 1.391 . S
H1528 C1536 0.950 . S
H1529 C1541 0.950 . S
H1530 C1538 0.950 . S
H1531 C1540 0.950 . S
H1532 C1542 0.950 . S
H1533 C1544 0.950 . S
H1534 C1546 0.950 . S
H1535 C1547 0.950 . S
C1536 H1528 0.950 . S
C1536 C1537 1.386 . S
C1536 C1538 1.391 . S
C1537 C1536 1.386 . S
C1537 C1541 1.393 . S
C1538 H1530 0.950 . S
C1538 C1536 1.391 . S
C1538 C1539 1.400 . S
C1539 C1538 1.400 . S
C1539 C1540 1.398 . S
C1539 C1545 1.491 . S
C1540 H1531 0.950 . S
C1540 C1539 1.398 . S
C1540 C1541 1.391 . S
C1541 H1529 0.950 . S
C1541 C1537 1.393 . S
C1541 C1540 1.391 . S
C1542 H1532 0.950 . S
C1542 C1543 1.386 . S
C1542 C1544 1.391 . S
C1543 C1542 1.386 . S
C1543 C1547 1.393 . S
C1544 H1533 0.950 . S
C1544 C1542 1.391 . S
C1544 C1545 1.400 . S
C1545 C1539 1.491 . S
C1545 C1544 1.400 . S
C1545 C1546 1.398 . S
C1546 H1534 0.950 . S
C1546 C1545 1.398 . S
C1546 C1547 1.391 . S
C1547 H1535 0.950 . S
C1547 C1543 1.393 . S
C1547 C1546 1.391 . S
H1548 C1556 0.950 . S
H1549 C1561 0.950 . S
H1550 C1558 0.950 . S
H1551 C1560 0.950 . S
H1552 C1562 0.950 . S
H1553 C1564 0.950 . S
H1554 C1566 0.950 . S
H1555 C1567 0.950 . S
C1556 H1548 0.950 . S
C1556 C1557 1.386 . S
C1556 C1558 1.391 . S
C1557 C1556 1.386 . S
C1557 C1561 1.393 . S
C1558 H1550 0.950 . S
C1558 C1556 1.391 . S
C1558 C1559 1.400 . S
C1559 C1558 1.400 . S
C1559 C1560 1.398 . S
C1559 C1565 1.491 . S
C1560 H1551 0.950 . S
C1560 C1559 1.398 . S
C1560 C1561 1.391 . S
C1561 H1549 0.950 . S
C1561 C1557 1.393 . S
C1561 C1560 1.391 . S
C1562 H1552 0.950 . S
C1562 C1563 1.386 . S
C1562 C1564 1.391 . S
C1563 C1562 1.386 . S
C1563 C1567 1.393 . S
C1564 H1553 0.950 . S
C1564 C1562 1.391 . S
C1564 C1565 1.400 . S
C1565 C1559 1.491 . S
C1565 C1564 1.400 . S
C1565 C1566 1.398 . S
C1566 H1554 0.950 . S
C1566 C1565 1.398 . S
C1566 C1567 1.391 . S
C1567 H1555 0.950 . S
C1567 C1563 1.393 . S
C1567 C1566 1.391 . S
H1568 C1576 0.950 . S
H1569 C1581 0.950 . S
H1570 C1578 0.950 . S
H1571 C1580 0.950 . S
H1572 C1582 0.950 . S
H1573 C1584 0.950 . S
H1574 C1586 0.950 . S
H1575 C1587 0.950 . S
C1576 H1568 0.950 . S
C1576 C1577 1.386 . S
C1576 C1578 1.391 . S
C1577 C1576 1.386 . S
C1577 C1581 1.393 . S
C1578 H1570 0.950 . S
C1578 C1576 1.391 . S
C1578 C1579 1.400 . S
C1579 C1578 1.400 . S
C1579 C1580 1.398 . S
C1579 C1585 1.491 . S
C1580 H1571 0.950 . S
C1580 C1579 1.398 . S
C1580 C1581 1.391 . S
C1581 H1569 0.950 . S
C1581 C1577 1.393 . S
C1581 C1580 1.391 . S
C1582 H1572 0.950 . S
C1582 C1583 1.386 . S
C1582 C1584 1.391 . S
C1583 C1582 1.386 . S
C1583 C1587 1.393 . S
C1584 H1573 0.950 . S
C1584 C1582 1.391 . S
C1584 C1585 1.400 . S
C1585 C1579 1.491 . S
C1585 C1584 1.400 . S
C1585 C1586 1.398 . S
C1586 H1574 0.950 . S
C1586 C1585 1.398 . S
C1586 C1587 1.391 . S
C1587 H1575 0.950 . S
C1587 C1583 1.393 . S
C1587 C1586 1.391 . S
H1588 C1596 0.950 . S
H1589 C1601 0.950 . S
H1590 C1598 0.950 . S
H1591 C1600 0.950 . S
H1592 C1602 0.950 . S
H1593 C1604 0.950 . S
H1594 C1606 0.950 . S
H1595 C1607 0.950 . S
C1596 H1588 0.950 . S
C1596 C1597 1.386 . S
C1596 C1598 1.391 . S
C1597 C1596 1.386 . S
C1597 C1601 1.393 . S
C1598 H1590 0.950 . S
C1598 C1596 1.391 . S
C1598 C1599 1.400 . S
C1599 C1598 1.400 . S
C1599 C1600 1.398 . S
C1599 C1605 1.491 . S
C1600 H1591 0.950 . S
C1600 C1599 1.398 . S
C1600 C1601 1.391 . S
C1601 H1589 0.950 . S
C1601 C1597 1.393 . S
C1601 C1600 1.391 . S
C1602 H1592 0.950 . S
C1602 C1603 1.386 . S
C1602 C1604 1.391 . S
C1603 C1602 1.386 . S
C1603 C1607 1.393 . S
C1604 H1593 0.950 . S
C1604 C1602 1.391 . S
C1604 C1605 1.400 . S
C1605 C1599 1.491 . S
C1605 C1604 1.400 . S
C1605 C1606 1.398 . S
C1606 H1594 0.950 . S
C1606 C1605 1.398 . S
C1606 C1607 1.391 . S
C1607 H1595 0.950 . S
C1607 C1603 1.393 . S
C1607 C1606 1.391 . S
H1608 C1616 0.950 . S
H1609 C1621 0.950 . S
H1610 C1618 0.950 . S
H1611 C1620 0.950 . S
H1612 C1622 0.950 . S
H1613 C1624 0.950 . S
H1614 C1626 0.950 . S
H1615 C1627 0.950 . S
C1616 H1608 0.950 . S
C1616 C1617 1.386 . S
C1616 C1618 1.391 . S
C1617 C1616 1.386 . S
C1617 C1621 1.393 . S
C1618 H1610 0.950 . S
C1618 C1616 1.391 . S
C1618 C1619 1.400 . S
C1619 C1618 1.400 . S
C1619 C1620 1.398 . S
C1619 C1625 1.491 . S
C1620 H1611 0.950 . S
C1620 C1619 1.398 . S
C1620 C1621 1.391 . S
C1621 H1609 0.950 . S
C1621 C1617 1.393 . S
C1621 C1620 1.391 . S
C1622 H1612 0.950 . S
C1622 C1623 1.386 . S
C1622 C1624 1.391 . S
C1623 C1622 1.386 . S
C1623 C1627 1.393 . S
C1624 H1613 0.950 . S
C1624 C1622 1.391 . S
C1624 C1625 1.400 . S
C1625 C1619 1.491 . S
C1625 C1624 1.400 . S
C1625 C1626 1.398 . S
C1626 H1614 0.950 . S
C1626 C1625 1.398 . S
C1626 C1627 1.391 . S
C1627 H1615 0.950 . S
C1627 C1623 1.393 . S
C1627 C1626 1.391 . S
H1628 C1636 0.950 . S
H1629 C1641 0.950 . S
H1630 C1638 0.950 . S
H1631 C1640 0.950 . S
H1632 C1642 0.950 . S
H1633 C1644 0.950 . S
H1634 C1646 0.950 . S
H1635 C1647 0.950 . S
C1636 H1628 0.950 . S
C1636 C1637 1.386 . S
C1636 C1638 1.391 . S
C1637 C1636 1.386 . S
C1637 C1641 1.393 . S
C1638 H1630 0.950 . S
C1638 C1636 1.391 . S
C1638 C1639 1.400 . S
C1639 C1638 1.400 . S
C1639 C1640 1.398 . S
C1639 C1645 1.491 . S
C1640 H1631 0.950 . S
C1640 C1639 1.398 . S
C1640 C1641 1.391 . S
C1641 H1629 0.950 . S
C1641 C1637 1.393 . S
C1641 C1640 1.391 . S
C1642 H1632 0.950 . S
C1642 C1643 1.386 . S
C1642 C1644 1.391 . S
C1643 C1642 1.386 . S
C1643 C1647 1.393 . S
C1644 H1633 0.950 . S
C1644 C1642 1.391 . S
C1644 C1645 1.400 . S
C1645 C1639 1.491 . S
C1645 C1644 1.400 . S
C1645 C1646 1.398 . S
C1646 H1634 0.950 . S
C1646 C1645 1.398 . S
C1646 C1647 1.391 . S
C1647 H1635 0.950 . S
C1647 C1643 1.393 . S
C1647 C1646 1.391 . S
H1648 C1656 0.950 . S
H1649 C1661 0.950 . S
H1650 C1658 0.950 . S
H1651 C1660 0.950 . S
H1652 C1662 0.950 . S
H1653 C1664 0.950 . S
H1654 C1666 0.950 . S
H1655 C1667 0.950 . S
C1656 H1648 0.950 . S
C1656 C1657 1.386 . S
C1656 C1658 1.391 . S
C1657 C1656 1.386 . S
C1657 C1661 1.393 . S
C1658 H1650 0.950 . S
C1658 C1656 1.391 . S
C1658 C1659 1.400 . S
C1659 C1658 1.400 . S
C1659 C1660 1.398 . S
C1659 C1665 1.491 . S
C1660 H1651 0.950 . S
C1660 C1659 1.398 . S
C1660 C1661 1.391 . S
C1661 H1649 0.950 . S
C1661 C1657 1.393 . S
C1661 C1660 1.391 . S
C1662 H1652 0.950 . S
C1662 C1663 1.386 . S
C1662 C1664 1.391 . S
C1663 C1662 1.386 . S
C1663 C1667 1.393 . S
C1664 H1653 0.950 . S
C1664 C1662 1.391 . S
C1664 C1665 1.400 . S
C1665 C1659 1.491 . S
C1665 C1664 1.400 . S
C1665 C1666 1.398 . S
C1666 H1654 0.950 . S
C1666 C1665 1.398 . S
C1666 C1667 1.391 . S
C1667 H1655 0.950 . S
C1667 C1663 1.393 . S
C1667 C1666 1.391 . S
H1668 C1676 0.950 . S
H1669 C1681 0.950 . S
H1670 C1678 0.950 . S
H1671 C1680 0.950 . S
H1672 C1682 0.950 . S
H1673 C1684 0.950 . S
H1674 C1686 0.950 . S
H1675 C1687 0.950 . S
C1676 H1668 0.950 . S
C1676 C1677 1.386 . S
C1676 C1678 1.391 . S
C1677 C1676 1.386 . S
C1677 C1681 1.393 . S
C1678 H1670 0.950 . S
C1678 C1676 1.391 . S
C1678 C1679 1.400 . S
C1679 C1678 1.400 . S
C1679 C1680 1.398 . S
C1679 C1685 1.491 . S
C1680 H1671 0.950 . S
C1680 C1679 1.398 . S
C1680 C1681 1.391 . S
C1681 H1669 0.950 . S
C1681 C1677 1.393 . S
C1681 C1680 1.391 . S
C1682 H1672 0.950 . S
C1682 C1683 1.386 . S
C1682 C1684 1.391 . S
C1683 C1682 1.386 . S
C1683 C1687 1.393 . S
C1684 H1673 0.950 . S
C1684 C1682 1.391 . S
C1684 C1685 1.400 . S
C1685 C1679 1.491 . S
C1685 C1684 1.400 . S
C1685 C1686 1.398 . S
C1686 H1674 0.950 . S
C1686 C1685 1.398 . S
C1686 C1687 1.391 . S
C1687 H1675 0.950 . S
C1687 C1683 1.393 . S
C1687 C1686 1.391 . S
H1688 C1696 0.950 . S
H1689 C1701 0.950 . S
H1690 C1698 0.950 . S
H1691 C1700 0.950 . S
H1692 C1702 0.950 . S
H1693 C1704 0.950 . S
H1694 C1706 0.950 . S
H1695 C1707 0.950 . S
C1696 H1688 0.950 . S
C1696 C1697 1.386 . S
C1696 C1698 1.391 . S
C1697 C1696 1.386 . S
C1697 C1701 1.393 . S
C1698 H1690 0.950 . S
C1698 C1696 1.391 . S
C1698 C1699 1.400 . S
C1699 C1698 1.400 . S
C1699 C1700 1.398 . S
C1699 C1705 1.491 . S
C1700 H1691 0.950 . S
C1700 C1699 1.398 . S
C1700 C1701 1.391 . S
C1701 H1689 0.950 . S
C1701 C1697 1.393 . S
C1701 C1700 1.391 . S
C1702 H1692 0.950 . S
C1702 C1703 1.386 . S
C1702 C1704 1.391 . S
C1703 C1702 1.386 . S
C1703 C1707 1.393 . S
C1704 H1693 0.950 . S
C1704 C1702 1.391 . S
C1704 C1705 1.400 . S
C1705 C1699 1.491 . S
C1705 C1704 1.400 . S
C1705 C1706 1.398 . S
C1706 H1694 0.950 . S
C1706 C1705 1.398 . S
C1706 C1707 1.391 . S
C1707 H1695 0.950 . S
C1707 C1703 1.393 . S
C1707 C1706 1.391 . S
H1708 C1716 0.950 . S
H1709 C1721 0.950 . S
H1710 C1718 0.950 . S
H1711 C1720 0.950 . S
H1712 C1722 0.950 . S
H1713 C1724 0.950 . S
H1714 C1726 0.950 . S
H1715 C1727 0.950 . S
C1716 H1708 0.950 . S
C1716 C1717 1.386 . S
C1716 C1718 1.391 . S
C1717 C1716 1.386 . S
C1717 C1721 1.393 . S
C1718 H1710 0.950 . S
C1718 C1716 1.391 . S
C1718 C1719 1.400 . S
C1719 C1718 1.400 . S
C1719 C1720 1.398 . S
C1719 C1725 1.491 . S
C1720 H1711 0.950 . S
C1720 C1719 1.398 . S
C1720 C1721 1.391 . S
C1721 H1709 0.950 . S
C1721 C1717 1.393 . S
C1721 C1720 1.391 . S
C1722 H1712 0.950 . S
C1722 C1723 1.386 . S
C1722 C1724 1.391 . S
C1723 C1722 1.386 . S
C1723 C1727 1.393 . S
C1724 H1713 0.950 . S
C1724 C1722 1.391 . S
C1724 C1725 1.400 . S
C1725 C1719 1.491 . S
C1725 C1724 1.400 . S
C1725 C1726 1.398 . S
C1726 H1714 0.950 . S
C1726 C1725 1.398 . S
C1726 C1727 1.391 . S
C1727 H1715 0.950 . S
C1727 C1723 1.393 . S
C1727 C1726 1.391 . S
C457 C222 1.222 . S
C463 C12 1.210 . S
C477 C18 1.325 . S
C483 C180 1.332 . S
C497 C40 1.212 . S
C503 C194 1.221 . S
C517 C208 1.345 . S
C523 C46 1.314 . S
C537 C68 1.218 . S
C543 C138 1.213 . S
C557 C74 1.327 . S
C563 C152 1.341 . S
C577 C166 1.211 . S
C583 C96 1.217 . S
C597 C124 1.343 . S
C603 C102 1.325 . S
C617 C236 1.221 . S
C623 C446 1.211 . S
C637 C242 1.318 . S
C643 C404 1.331 . S
C657 C264 1.224 . S
C663 C418 1.205 . S
C677 C432 1.343 . S
C683 C270 1.325 . S
C697 C292 1.225 . S
C703 C362 1.204 . S
C717 C298 1.321 . S
C723 C376 1.331 . S
C737 C390 1.214 . S
C743 C320 1.218 . S
C757 C326 1.305 . S
C763 C348 1.338 . S
C777 C173 1.023 . S
C783 C5 1.022 . S
C797 C25 1.065 . S
C803 C187 1.012 . S
C817 C201 1.022 . S
C823 C33 1.022 . S
C837 C53 1.052 . S
C843 C215 0.993 . S
C857 C61 0.995 . S
C863 C117 1.049 . S
C877 C131 0.989 . S
C883 C81 1.045 . S
C897 C145 1.025 . S
C903 C89 1.020 . S
C917 C159 1.039 . S
C923 C109 1.065 . S
C937 C229 1.031 . S
C943 C397 1.013 . S
C957 C411 0.992 . S
C963 C249 1.040 . S
C977 C257 1.039 . S
C983 C425 1.005 . S
C997 C277 1.044 . S
C1003 C439 1.011 . S
C1017 C341 1.030 . S
C1023 C285 1.014 . S
C1037 C305 1.042 . S
C1043 C355 0.990 . S
C1057 C313 1.045 . S
C1063 C369 0.999 . S
C1077 C333 1.046 . S
C1083 C383 0.989 . S
C1097 C4 1.451 . S
C1103 C144 1.466 . S
C1117 C158 1.412 . S
C1123 C26 1.444 . S
C1137 C32 1.451 . S
C1143 C116 1.465 . S
C1157 C130 1.398 . S
C1163 C54 1.443 . S
C1177 C200 1.458 . S
C1183 C60 1.458 . S
C1197 C214 1.411 . S
C1203 C82 1.444 . S
C1217 C172 1.449 . S
C1223 C88 1.468 . S
C1237 C110 1.442 . S
C1243 C186 1.396 . S
C1257 C368 1.469 . S
C1263 C228 1.448 . S
C1277 C250 1.439 . S
C1283 C382 1.404 . S
C1297 C340 1.461 . S
C1303 C256 1.456 . S
C1317 C354 1.418 . S
C1323 C278 1.440 . S
C1337 C284 1.457 . S
C1343 C424 1.460 . S
C1357 C306 1.442 . S
C1363 C438 1.396 . S
C1377 C396 1.461 . S
C1383 C312 1.456 . S
C1397 C410 1.414 . S
C1403 C334 1.444 . S
C1417 C327 1.120 . S
C1423 C11 1.240 . S
C1437 C291 1.251 . S
C1443 C19 1.138 . S
C1457 C299 1.119 . S
C1463 C39 1.240 . S
C1477 C319 1.238 . S
C1483 C47 1.116 . S
C1497 C243 1.169 . S
C1503 C67 1.267 . S
C1517 C75 1.162 . S
C1523 C263 1.264 . S
C1537 C95 1.254 . S
C1543 C271 1.143 . S
C1557 C103 1.117 . S
C1563 C235 1.238 . S
C1577 C123 1.299 . S
C1583 C445 1.305 . S
C1597 C403 1.315 . S
C1603 C137 1.275 . S
C1617 C151 1.315 . S
C1623 C417 1.275 . S
C1637 C165 1.301 . S
C1643 C431 1.309 . S
C1657 C361 1.278 . S
C1663 C179 1.317 . S
C1677 C375 1.297 . S
C1683 C193 1.278 . S
C1697 C207 1.299 . S
C1703 C389 1.305 . S
C1717 C221 1.294 . S
C1723 C347 1.315 . S
