# Generated by pormake.
# Topology ecv, (8)-cn, num edge types: 1
# Building blocks:
#     Node 0, Type 0, BuildingBlock: VETTIZ_charged_sbu_0, # of connection points: 8
#     Node 1, Type 0, BuildingBlock: VETTIZ_charged_sbu_0, # of connection points: 8
#     Node 2, Type 0, BuildingBlock: VETTIZ_charged_sbu_0, # of connection points: 8
#     Node 3, Type 0, BuildingBlock: VETTIZ_charged_sbu_0, # of connection points: 8
#     Node 4, Type 0, BuildingBlock: VETTIZ_charged_sbu_0, # of connection points: 8
#     Node 5, Type 0, BuildingBlock: VETTIZ_charged_sbu_0, # of connection points: 8
#     Node 6, Type 0, BuildingBlock: VETTIZ_charged_sbu_0, # of connection points: 8
#     Node 7, Type 0, BuildingBlock: VETTIZ_charged_sbu_0, # of connection points: 8
#     Node 8, Type 0, BuildingBlock: VETTIZ_charged_sbu_0, # of connection points: 8
#     Node 9, Type 0, BuildingBlock: VETTIZ_charged_sbu_0, # of connection points: 8
#     Node 10, Type 0, BuildingBlock: VETTIZ_charged_sbu_0, # of connection points: 8
#     Node 11, Type 0, BuildingBlock: VETTIZ_charged_sbu_0, # of connection points: 8
#     Node 12, Type 0, BuildingBlock: VETTIZ_charged_sbu_0, # of connection points: 8
#     Node 13, Type 0, BuildingBlock: VETTIZ_charged_sbu_0, # of connection points: 8
#     Node 14, Type 0, BuildingBlock: VETTIZ_charged_sbu_0, # of connection points: 8
#     Node 15, Type 0, BuildingBlock: VETTIZ_charged_sbu_0, # of connection points: 8
#     Edge 16, Type (0, 0), BuildingBlock: XIVTED_clean_linker_0, # of connection points: 2
#     Edge 17, Type (0, 0), BuildingBlock: XIVTED_clean_linker_0, # of connection points: 2
#     Edge 18, Type (0, 0), BuildingBlock: XIVTED_clean_linker_0, # of connection points: 2
#     Edge 19, Type (0, 0), BuildingBlock: XIVTED_clean_linker_0, # of connection points: 2
#     Edge 20, Type (0, 0), BuildingBlock: XIVTED_clean_linker_0, # of connection points: 2
#     Edge 21, Type (0, 0), BuildingBlock: XIVTED_clean_linker_0, # of connection points: 2
#     Edge 22, Type (0, 0), BuildingBlock: XIVTED_clean_linker_0, # of connection points: 2
#     Edge 23, Type (0, 0), BuildingBlock: XIVTED_clean_linker_0, # of connection points: 2
#     Edge 24, Type (0, 0), BuildingBlock: XIVTED_clean_linker_0, # of connection points: 2
#     Edge 25, Type (0, 0), BuildingBlock: XIVTED_clean_linker_0, # of connection points: 2
#     Edge 26, Type (0, 0), BuildingBlock: XIVTED_clean_linker_0, # of connection points: 2
#     Edge 27, Type (0, 0), BuildingBlock: XIVTED_clean_linker_0, # of connection points: 2
#     Edge 28, Type (0, 0), BuildingBlock: XIVTED_clean_linker_0, # of connection points: 2
#     Edge 29, Type (0, 0), BuildingBlock: XIVTED_clean_linker_0, # of connection points: 2
#     Edge 30, Type (0, 0), BuildingBlock: XIVTED_clean_linker_0, # of connection points: 2
#     Edge 31, Type (0, 0), BuildingBlock: XIVTED_clean_linker_0, # of connection points: 2
#     Edge 32, Type (0, 0), BuildingBlock: XIVTED_clean_linker_0, # of connection points: 2
#     Edge 33, Type (0, 0), BuildingBlock: XIVTED_clean_linker_0, # of connection points: 2
#     Edge 34, Type (0, 0), BuildingBlock: XIVTED_clean_linker_0, # of connection points: 2
#     Edge 35, Type (0, 0), BuildingBlock: XIVTED_clean_linker_0, # of connection points: 2
#     Edge 36, Type (0, 0), BuildingBlock: XIVTED_clean_linker_0, # of connection points: 2
#     Edge 37, Type (0, 0), BuildingBlock: XIVTED_clean_linker_0, # of connection points: 2
#     Edge 38, Type (0, 0), BuildingBlock: XIVTED_clean_linker_0, # of connection points: 2
#     Edge 39, Type (0, 0), BuildingBlock: XIVTED_clean_linker_0, # of connection points: 2
#     Edge 40, Type (0, 0), BuildingBlock: XIVTED_clean_linker_0, # of connection points: 2
#     Edge 41, Type (0, 0), BuildingBlock: XIVTED_clean_linker_0, # of connection points: 2
#     Edge 42, Type (0, 0), BuildingBlock: XIVTED_clean_linker_0, # of connection points: 2
#     Edge 43, Type (0, 0), BuildingBlock: XIVTED_clean_linker_0, # of connection points: 2
#     Edge 44, Type (0, 0), BuildingBlock: XIVTED_clean_linker_0, # of connection points: 2
#     Edge 45, Type (0, 0), BuildingBlock: XIVTED_clean_linker_0, # of connection points: 2
#     Edge 46, Type (0, 0), BuildingBlock: XIVTED_clean_linker_0, # of connection points: 2
#     Edge 47, Type (0, 0), BuildingBlock: XIVTED_clean_linker_0, # of connection points: 2
#     Edge 48, Type (0, 0), BuildingBlock: XIVTED_clean_linker_0, # of connection points: 2
#     Edge 49, Type (0, 0), BuildingBlock: XIVTED_clean_linker_0, # of connection points: 2
#     Edge 50, Type (0, 0), BuildingBlock: XIVTED_clean_linker_0, # of connection points: 2
#     Edge 51, Type (0, 0), BuildingBlock: XIVTED_clean_linker_0, # of connection points: 2
#     Edge 52, Type (0, 0), BuildingBlock: XIVTED_clean_linker_0, # of connection points: 2
#     Edge 53, Type (0, 0), BuildingBlock: XIVTED_clean_linker_0, # of connection points: 2
#     Edge 54, Type (0, 0), BuildingBlock: XIVTED_clean_linker_0, # of connection points: 2
#     Edge 55, Type (0, 0), BuildingBlock: XIVTED_clean_linker_0, # of connection points: 2
#     Edge 56, Type (0, 0), BuildingBlock: XIVTED_clean_linker_0, # of connection points: 2
#     Edge 57, Type (0, 0), BuildingBlock: XIVTED_clean_linker_0, # of connection points: 2
#     Edge 58, Type (0, 0), BuildingBlock: XIVTED_clean_linker_0, # of connection points: 2
#     Edge 59, Type (0, 0), BuildingBlock: XIVTED_clean_linker_0, # of connection points: 2
#     Edge 60, Type (0, 0), BuildingBlock: XIVTED_clean_linker_0, # of connection points: 2
#     Edge 61, Type (0, 0), BuildingBlock: XIVTED_clean_linker_0, # of connection points: 2
#     Edge 62, Type (0, 0), BuildingBlock: XIVTED_clean_linker_0, # of connection points: 2
#     Edge 63, Type (0, 0), BuildingBlock: XIVTED_clean_linker_0, # of connection points: 2
#     Edge 64, Type (0, 0), BuildingBlock: XIVTED_clean_linker_0, # of connection points: 2
#     Edge 65, Type (0, 0), BuildingBlock: XIVTED_clean_linker_0, # of connection points: 2
#     Edge 66, Type (0, 0), BuildingBlock: XIVTED_clean_linker_0, # of connection points: 2
#     Edge 67, Type (0, 0), BuildingBlock: XIVTED_clean_linker_0, # of connection points: 2
#     Edge 68, Type (0, 0), BuildingBlock: XIVTED_clean_linker_0, # of connection points: 2
#     Edge 69, Type (0, 0), BuildingBlock: XIVTED_clean_linker_0, # of connection points: 2
#     Edge 70, Type (0, 0), BuildingBlock: XIVTED_clean_linker_0, # of connection points: 2
#     Edge 71, Type (0, 0), BuildingBlock: XIVTED_clean_linker_0, # of connection points: 2
#     Edge 72, Type (0, 0), BuildingBlock: XIVTED_clean_linker_0, # of connection points: 2
#     Edge 73, Type (0, 0), BuildingBlock: XIVTED_clean_linker_0, # of connection points: 2
#     Edge 74, Type (0, 0), BuildingBlock: XIVTED_clean_linker_0, # of connection points: 2
#     Edge 75, Type (0, 0), BuildingBlock: XIVTED_clean_linker_0, # of connection points: 2
#     Edge 76, Type (0, 0), BuildingBlock: XIVTED_clean_linker_0, # of connection points: 2
#     Edge 77, Type (0, 0), BuildingBlock: XIVTED_clean_linker_0, # of connection points: 2
#     Edge 78, Type (0, 0), BuildingBlock: XIVTED_clean_linker_0, # of connection points: 2
#     Edge 79, Type (0, 0), BuildingBlock: XIVTED_clean_linker_0, # of connection points: 2
# Relax obj value: 0.130
# Max RMSD: 0.230
# Mean RMSD: 0.230
data_MOF--net-ecv--node1-VETTIZ_charged_sbu_0--edge1-XIVTED_clean_linker_0
_symmetry_space_group_name_H-M    P1
_symmetry_Int_Tables_number       1
_symmetry_cell_setting            triclinic
loop_
_symmetry_equiv_pos_as_xyz
'x, y, z'
_cell_length_a     21.674868
_cell_length_b     25.490095
_cell_length_c     107.34823
_cell_angle_alpha  89.959535
_cell_angle_beta   90.308382
_cell_angle_gamma 89.906464
loop_
_atom_site_label
_atom_site_type_symbol
_atom_site_fract_x
_atom_site_fract_y
_atom_site_fract_z
_atom_type_partial_charge
Fe0 Fe 0.16883 0.22847 0.45384 0.0
O1 O 0.18491 0.18296 0.46834 0.0
Fe2 Fe 0.16557 0.10238 0.46618 0.0
Fe3 Fe 0.14859 0.19523 0.48527 0.0
O4 O 0.18564 0.17866 0.46738 0.0
O5 O 0.1304 0.11431 0.48319 0.0
O6 O 0.12841 0.11886 0.48406 0.0
Fe7 Fe 0.14974 0.07054 0.49784 0.0
C8 C 0.21912 0.29287 0.4754 0.0
O9 O 0.09736 0.26682 0.46209 0.0
O10 O 0.06463 0.21632 0.47766 0.0
O11 O 0.10353 0.01554 0.48756 0.0
O12 O 0.13719 0.02392 0.46729 0.0
O13 O 0.08045 0.11782 0.45822 0.0
O14 O 0.10573 0.18104 0.4448 0.0
O15 O 0.10354 0.19355 0.50326 0.0
O16 O 0.07455 0.10645 0.50471 0.0
C17 C 0.06914 0.14551 0.4486 0.0
O18 O 0.22845 0.03949 0.49058 0.0
O19 O 0.25121 0.08356 0.47327 0.0
O20 O 0.22429 0.27678 0.464 0.0
O21 O 0.1822 0.27326 0.48386 0.0
C22 C 0.05654 0.25361 0.46992 0.0
C23 C 0.07155 0.15484 0.50821 0.0
C24 C 0.23193 0.16505 0.50492 0.0
O25 O 0.23172 0.1785 0.49355 0.0
O26 O 0.19981 0.12571 0.50822 0.0
C27 C 0.1074 1.00003 0.47613 0.0
O28 O 0.20785 0.10014 0.4485 0.0
O29 O 0.23701 0.18611 0.44535 0.0
C30 C 0.26475 0.05041 0.48172 0.0
C31 C 0.24086 0.13632 0.44315 0.0
Fe32 Fe 0.11373 0.24445 0.87078 0.0
O33 O 0.08205 0.20021 0.85741 0.0
Fe34 Fe 0.08654 0.11545 0.86011 0.0
Fe35 Fe 0.08201 0.21237 0.83891 0.0
O36 O 0.10486 0.19186 0.85803 0.0
O37 O 0.05775 0.13019 0.84278 0.0
O38 O 0.08283 0.13415 0.84041 0.0
Fe39 Fe 0.04923 0.08082 0.82922 0.0
C40 C 0.04528 0.31537 0.85109 0.0
O41 O 0.18444 0.27045 0.86002 0.0
O42 O 0.17691 0.22874 0.84121 0.0
O43 O 0.126 0.03851 0.83526 0.0
O44 O 0.1658 0.08583 0.85144 0.0
O45 O 0.13161 0.10777 0.87707 0.0
O46 O 0.17148 0.18956 0.8788 0.0
O47 O 0.09774 0.20934 0.81948 0.0
O48 O 0.10226 0.12023 0.81698 0.0
C49 C 0.17165 0.14036 0.88131 0.0
O50 O -0.00291 0.04088 0.84213 0.0
O51 O 0.05226 0.03983 0.86023 0.0
O52 O 0.05739 0.29826 0.86212 0.0
O53 O 0.06354 0.29262 0.84093 0.0
C54 C 0.20546 0.25789 0.84926 0.0
C55 C 0.11271 0.16718 0.81336 0.0
C56 C 0.96587 0.17886 0.8257 0.0
O57 O 0.98768 0.20078 0.83559 0.0
O58 O 0.97776 0.13037 0.823 0.0
C59 C 0.17021 0.05038 0.84288 0.0
O60 O 0.00805 0.14113 0.8699 0.0
O61 O 0.04068 0.21381 0.88056 0.0
C62 C 0.01194 0.02046 0.85269 0.0
C63 C 0.00221 0.17614 0.87857 0.0
Fe64 Fe 0.86351 0.99123 0.61023 0.0
O65 O 0.83665 0.91666 0.60847 0.0
Fe66 Fe 0.89349 0.02183 0.57886 0.0
Fe67 Fe 0.84268 0.86609 0.62215 0.0
O68 O 0.90395 0.97726 0.59381 0.0
O69 O 0.90469 0.97282 0.59289 0.0
O70 O 0.83723 0.91225 0.6075 0.0
Fe71 Fe 0.87966 0.89772 0.59128 0.0
C72 C 0.94502 0.94238 0.62975 0.0
O73 O 0.8138 0.99592 0.62705 0.0
O74 O 0.77331 0.91269 0.62916 0.0
O75 O 0.80137 0.91812 0.58165 0.0
O76 O 0.84261 0.96952 0.56765 0.0
O77 O 0.81493 0.05837 0.58487 0.0
O78 O 0.78304 0.01585 0.60179 0.0
O79 O 0.78994 0.82027 0.61091 0.0
O80 O 0.84163 0.82126 0.59202 0.0
C81 C 0.77517 0.05002 0.59329 0.0
O82 O 0.93121 0.89649 0.57404 0.0
O83 O 0.96829 0.98121 0.57328 0.0
O84 O 0.94326 0.96972 0.6198 0.0
O85 O 0.90221 0.91061 0.63259 0.0
C86 C 0.77356 0.96273 0.6314 0.0
C87 C 0.80052 0.80296 0.59978 0.0
C88 C 0.96038 0.8344 0.6079 0.0
O89 O 0.91637 0.82396 0.61531 0.0
O90 O 0.95815 0.8731 0.60039 0.0
C91 C 0.80636 0.93193 0.57036 0.0
O92 O 0.94034 0.07385 0.58987 0.0
O93 O 0.89998 0.06759 0.60972 0.0
C94 C 0.96768 0.93314 0.56953 0.0
C95 C 0.93427 0.08951 0.60125 0.0
Fe96 Fe 0.89304 0.87306 0.23027 0.0
O97 O 0.92308 0.79965 0.22837 0.0
Fe98 Fe 0.85378 0.9052 0.19942 0.0
Fe99 Fe 0.91925 0.74976 0.24219 0.0
O100 O 0.85042 0.85879 0.21402 0.0
O101 O 0.84952 0.85446 0.21318 0.0
O102 O 0.92318 0.79584 0.22753 0.0
Fe103 Fe 0.88169 0.78148 0.21125 0.0
C104 C 0.98575 0.84229 0.25177 0.0
O105 O 0.8162 0.84732 0.23935 0.0
O106 O 0.86308 0.79758 0.25327 0.0
O107 O 0.83066 0.7762 0.19455 0.0
O108 O 0.78411 0.85772 0.19282 0.0
O109 O 0.8028 0.95273 0.21089 0.0
O110 O 0.85279 0.94918 0.22999 0.0
O111 O 0.84401 0.70941 0.23627 0.0
O112 O 0.80453 0.75162 0.21981 0.0
C113 C 0.81422 0.9704 0.22201 0.0
O114 O 0.95876 0.80804 0.20198 0.0
O115 O 0.91087 0.85994 0.18847 0.0
O116 O 0.94487 0.87614 0.24751 0.0
O117 O 0.99058 0.79464 0.24787 0.0
C118 C 0.82071 0.8304 0.2504 0.0
C119 C 0.80116 0.71732 0.2284 0.0
C120 C 0.96244 0.6871 0.21931 0.0
O121 O 0.96966 0.70194 0.23076 0.0
O122 O 0.92406 0.70733 0.21125 0.0
C123 C 0.78755 0.80773 0.19048 0.0
O124 O 0.93014 0.94624 0.20572 0.0
O125 O 0.96981 0.89923 0.22141 0.0
C126 C 0.95634 0.83102 0.19148 0.0
C127 C 0.97456 0.93405 0.21301 0.0
Fe128 Fe 0.0887 0.65106 0.96377 0.0
O129 O 0.12444 0.6473 0.98104 0.0
Fe130 Fe 0.05855 0.5205 0.95689 0.0
Fe131 Fe 0.11486 0.70284 0.9937 0.0
O132 O 0.05477 0.58079 0.96816 0.0
O133 O 0.05501 0.57714 0.96932 0.0
O134 O 0.12618 0.64317 0.98206 0.0
Fe135 Fe 0.0936 0.57205 0.98641 0.0
C136 C 0.16595 0.7514 0.96934 0.0
O137 O 0.00866 0.68514 0.96982 0.0
O138 O 0.03965 0.73732 0.98527 0.0
O139 O 0.04659 0.49909 0.98827 0.0
O140 O -0.00343 0.48877 0.9692 0.0
O141 O -0.00203 0.56502 0.94644 0.0
O142 O 0.04417 0.64633 0.94623 0.0
O143 O 0.05949 0.66135 1.00656 0.0
O144 O 0.01648 0.60505 0.99407 0.0
C145 C 0.00492 0.61189 0.94198 0.0
O146 O 0.17075 0.53478 0.97951 0.0
O147 O 0.12325 0.47928 0.9666 0.0
O148 O 0.13174 0.72487 0.96155 0.0
O149 O 0.16802 0.74439 0.98127 0.0
C150 C 0.00124 0.72479 0.97678 0.0
C151 C 0.02172 0.62362 1.00496 0.0
C152 C 0.18292 0.619 1.00714 0.0
O153 O 0.18549 0.66439 1.00182 0.0
O154 O 0.14409 0.58124 1.00393 0.0
C155 C 0.00288 0.4799 0.98107 0.0
O156 O 0.12822 0.55154 0.94581 0.0
O157 O 0.16805 0.61804 0.95666 0.0
C158 C 0.16888 0.49191 0.97342 0.0
C159 C 0.17154 0.58431 0.94793 0.0
Fe160 Fe 0.15989 0.64484 0.36124 0.0
O161 O 0.1316 0.6466 0.34341 0.0
Fe162 Fe 0.1779 0.511 0.36689 0.0
Fe163 Fe 0.15003 0.70363 0.33151 0.0
O164 O 0.19225 0.57391 0.3567 0.0
O165 O 0.19246 0.57063 0.35557 0.0
O166 O 0.13158 0.64343 0.34238 0.0
Fe167 Fe 0.16092 0.57167 0.33795 0.0
C168 C 0.0899 0.74915 0.35542 0.0
O169 O 0.24407 0.67728 0.35702 0.0
O170 O 0.22191 0.73335 0.34167 0.0
O171 O 0.20141 0.49572 0.33588 0.0
O172 O 0.24245 0.4775 0.35543 0.0
O173 O 0.23659 0.54983 0.37895 0.0
O174 O 0.1967 0.63392 0.37929 0.0
O175 O 0.20918 0.66134 0.31938 0.0
O176 O 0.24316 0.60144 0.33214 0.0
C177 C 0.23219 0.59667 0.38365 0.0
O178 O 0.07872 0.54112 0.34341 0.0
O179 O 0.11437 0.47608 0.35524 0.0
O180 O 0.11938 0.71979 0.36346 0.0
O181 O 0.09329 0.74505 0.34341 0.0
C182 C 0.25554 0.71827 0.35072 0.0
C183 C 0.24393 0.62166 0.32139 0.0
C184 C 0.08358 0.62464 0.31619 0.0
O185 O 0.0817 0.66981 0.32162 0.0
O186 O 0.11888 0.58513 0.31979 0.0
C187 C 0.23924 0.47083 0.34345 0.0
O188 O 0.10689 0.54359 0.37719 0.0
O189 O 0.07577 0.61418 0.36665 0.0
C190 C 0.07416 0.49538 0.34788 0.0
C191 C 0.06703 0.57922 0.37496 0.0
Fe192 Fe 0.84167 0.41731 0.12249 0.0
O193 O 0.85233 0.3672 0.10942 0.0
Fe194 Fe 0.87108 0.39053 0.09019 0.0
Fe195 Fe 0.87408 0.29123 0.1108 0.0
O196 O 0.87376 0.37598 0.10866 0.0
O197 O 0.87426 0.31233 0.09139 0.0
O198 O 0.89905 0.30872 0.09346 0.0
Fe199 Fe 0.89871 0.2631 0.07884 0.0
C200 C 0.95842 0.35186 0.12963 0.0
O201 O 0.78836 0.35919 0.13044 0.0
O202 O 0.83307 0.27947 0.12798 0.0
O203 O 0.83491 0.30496 0.06895 0.0
O204 O 0.85795 0.391 0.07052 0.0
O205 O 0.7761 0.40276 0.09283 0.0
O206 O 0.76795 0.44145 0.11201 0.0
O207 O 0.79304 0.26164 0.10262 0.0
O208 O 0.82679 0.21738 0.0856 0.0
C209 C 0.74677 0.42971 0.10114 0.0
O210 O 0.96705 0.31609 0.07212 0.0
O211 O 0.96498 0.38199 0.08624 0.0
O212 O 0.91823 0.38817 0.13185 0.0
O213 O 0.95348 0.31783 0.12064 0.0
C214 C 0.79231 0.30992 0.13277 0.0
C215 C 0.78576 0.22714 0.09394 0.0
C216 C 0.94949 0.19951 0.10109 0.0
O217 O 0.91226 0.21703 0.1095 0.0
O218 O 0.95751 0.22033 0.09022 0.0
C219 C 0.84049 0.35034 0.06415 0.0
O220 O 0.88481 0.47084 0.09277 0.0
O221 O 0.89337 0.47447 0.11398 0.0
C222 C 0.98378 0.36267 0.07579 0.0
C223 C 0.90263 0.49332 0.10302 0.0
Fe224 Fe 0.83351 0.53642 0.74717 0.0
O225 O 0.82093 0.48585 0.7335 0.0
Fe226 Fe 0.86252 0.50134 0.71602 0.0
Fe227 Fe 0.84386 0.41043 0.73565 0.0
O228 O 0.82258 0.49023 0.73262 0.0
O229 O 0.8878 0.4265 0.71829 0.0
O230 O 0.88686 0.42211 0.71931 0.0
Fe231 Fe 0.87911 0.374 0.70503 0.0
C232 C 0.9171 0.44554 0.75649 0.0
O233 O 0.75719 0.49846 0.75294 0.0
O234 O 0.79157 0.41266 0.75281 0.0
O235 O 0.81823 0.41729 0.69455 0.0
O236 O 0.78122 0.48006 0.7069 0.0
O237 O 0.82866 0.57819 0.71591 0.0
O238 O 0.789 0.58838 0.7357 0.0
O239 O 0.76447 0.38594 0.72677 0.0
O240 O 0.80631 0.33369 0.7125 0.0
C241 C 0.79584 0.60243 0.72422 0.0
O242 O 0.94718 0.41851 0.69689 0.0
O243 O 0.90996 0.50294 0.69899 0.0
O244 O 0.88191 0.48432 0.75884 0.0
O245 O 0.92238 0.43048 0.74528 0.0
C246 C 0.75574 0.45068 0.75694 0.0
C247 C 0.76172 0.34647 0.71953 0.0
C248 C 0.92152 0.31356 0.72777 0.0
O249 O 0.88055 0.33324 0.7354 0.0
O250 O 0.93239 0.32938 0.71651 0.0
C251 C 0.77681 0.45048 0.69735 0.0
O252 O 0.94417 0.52631 0.72408 0.0
O253 O 0.91357 0.5697 0.74101 0.0
C254 C 0.9459 0.46793 0.69399 0.0
C255 C 0.95303 0.56039 0.73259 0.0
Fe256 Fe 0.56935 0.21822 0.95474 0.0
O257 O 0.59127 0.16214 0.96568 0.0
Fe258 Fe 0.5991 0.082 0.95983 0.0
Fe259 Fe 0.58978 0.16024 0.9843 0.0
O260 O 0.57148 0.15398 0.96459 0.0
O261 O 0.61713 0.08423 0.97799 0.0
O262 O 0.59321 0.08484 0.97991 0.0
Fe263 Fe 0.63149 0.02778 0.98931 0.0
C264 C 0.62719 0.26975 0.97872 0.0
O265 O 0.49264 0.23234 0.96558 0.0
O266 O 0.49524 0.17468 0.98216 0.0
O267 O 0.56124 0.98424 0.98032 0.0
O268 O 0.52108 0.04002 0.96553 0.0
O269 O 0.56174 0.08817 0.94216 0.0
O270 O 0.51957 0.17073 0.94255 0.0
O271 O 0.57698 0.14205 1.00333 0.0
O272 O 0.57034 0.0528 1.00239 0.0
C273 C 0.52506 0.12409 0.93796 0.0
O274 O 0.6922 1.00423 0.97569 0.0
O275 O 0.64192 1.0102 0.95708 0.0
O276 O 0.62316 0.26316 0.96687 0.0
O277 O 0.60016 0.23997 0.98661 0.0
C278 C 0.46862 0.20986 0.97523 0.0
C279 C 0.56469 0.09659 1.00812 0.0
C280 C 0.70922 0.12827 0.99564 0.0
O281 O 0.68435 0.15184 0.9864 0.0
O282 O 0.69652 0.07956 0.99813 0.0
C283 C 0.51881 0.99792 0.9723 0.0
O284 O 0.67919 0.11898 0.95318 0.0
O285 O 0.6475 0.19754 0.9451 0.0
C286 C 0.68459 0.99152 0.9642 0.0
C287 C 0.68665 0.15969 0.94615 0.0
Fe288 Fe 0.67615 0.213 0.36867 0.0
O289 O 0.67789 0.1494 0.35912 0.0
Fe290 Fe 0.65102 0.07663 0.3654 0.0
Fe291 Fe 0.68363 0.13641 0.34079 0.0
O292 O 0.68709 0.1452 0.36006 0.0
O293 O 0.62461 0.07524 0.34761 0.0
O294 O 0.63291 0.07576 0.34625 0.0
Fe295 Fe 0.61449 0.01357 0.33727 0.0
C296 C 0.59236 0.23107 0.34535 0.0
O297 O 0.74747 0.23885 0.35755 0.0
O298 O 0.73275 0.20446 0.33791 0.0
O299 O 0.68151 0.9725 0.34773 0.0
O300 O 0.72744 0.03382 0.36003 0.0
O301 O 0.69143 0.09008 0.38318 0.0
O302 O 0.72995 0.17481 0.3818 0.0
O303 O 0.69721 0.1148 0.32229 0.0
O304 O 0.68197 0.02834 0.32461 0.0
C305 C 0.72527 0.12923 0.38718 0.0
O306 O 0.55088 0.99547 0.35081 0.0
O307 O 0.60485 1.00653 0.36908 0.0
O308 O 0.61667 0.24522 0.3557 0.0
O309 O 0.60809 0.18927 0.33916 0.0
C310 C 0.75694 0.23727 0.34566 0.0
C311 C 0.70209 0.06734 0.31852 0.0
C312 C 0.55864 0.11728 0.32589 0.0
O313 O 0.59646 0.14816 0.33208 0.0
O314 O 0.55753 0.06577 0.32661 0.0
C315 C 0.72724 0.98907 0.35447 0.0
O316 O 0.57069 0.11355 0.37051 0.0
O317 O 0.60208 0.1884 0.37922 0.0
C318 C 0.56043 0.98651 0.36252 0.0
C319 C 0.563 0.15138 0.37803 0.0
Fe320 Fe 0.39657 0.9016 0.12197 0.0
O321 O 0.40263 0.854 0.10762 0.0
Fe322 Fe 0.36099 0.87754 0.09064 0.0
Fe323 Fe 0.36971 0.78081 0.10825 0.0
O324 O 0.40118 0.85877 0.10688 0.0
O325 O 0.33211 0.80347 0.09107 0.0
O326 O 0.33236 0.79938 0.09179 0.0
Fe327 Fe 0.3419 0.75855 0.07634 0.0
C328 C 0.45835 0.80098 0.13035 0.0
O329 O 0.33654 0.8547 0.1317 0.0
O330 O 0.29066 0.80592 0.11724 0.0
O331 O 0.26881 0.80225 0.07122 0.0
O332 O 0.31188 0.88384 0.07295 0.0
O333 O 0.28249 0.90155 0.09942 0.0
O334 O 0.32229 0.94515 0.11563 0.0
O335 O 0.32689 0.70699 0.10666 0.0
O336 O 0.29141 0.70555 0.08631 0.0
C337 C 0.27765 0.93439 0.10828 0.0
O338 O 0.3975 0.81257 0.06652 0.0
O339 O 0.43996 0.85489 0.08201 0.0
O340 O 0.46377 0.85129 0.1286 0.0
O341 O 0.41643 0.77099 0.12531 0.0
C342 C 0.29142 0.82692 0.128 0.0
C343 C 0.29272 0.68829 0.09765 0.0
C344 C 0.45688 0.72252 0.09088 0.0
O345 O 0.44911 0.75249 0.10021 0.0
O346 O 0.41801 0.71856 0.08207 0.0
C347 C 0.2743 0.85006 0.06762 0.0
O348 O 0.40131 0.95306 0.09231 0.0
O349 O 0.45066 0.95105 0.1115 0.0
C350 C 0.43752 0.84526 0.07053 0.0
C351 C 0.44081 0.97102 0.10053 0.0
Fe352 Fe 0.3347 0.03314 0.74618 0.0
O353 O 0.32061 0.98406 0.73224 0.0
Fe354 Fe 0.35829 1.00268 0.71458 0.0
Fe355 Fe 0.34674 0.90907 0.7336 0.0
O356 O 0.32183 0.98854 0.73138 0.0
O357 O 0.38661 0.92827 0.71608 0.0
O358 O 0.38598 0.92381 0.71704 0.0
Fe359 Fe 0.3775 0.87714 0.70253 0.0
C360 C 0.42332 0.94358 0.75396 0.0
O361 O 0.2616 0.99266 0.75247 0.0
O362 O 0.2979 0.90745 0.75115 0.0
O363 O 0.31346 0.92021 0.69282 0.0
O364 O 0.27651 0.9804 0.70591 0.0
O365 O 0.32139 0.07872 0.71534 0.0
O366 O 0.28577 0.08524 0.73554 0.0
O367 O 0.2667 0.88361 0.72517 0.0
O368 O 0.30731 0.83378 0.71029 0.0
C369 C 0.28942 0.1009 0.72412 0.0
O370 O 0.44303 0.92454 0.69433 0.0
O371 O 0.40297 1.00764 0.69727 0.0
O372 O 0.38739 0.98097 0.75697 0.0
O373 O 0.42645 0.93001 0.74263 0.0
C374 C 0.26204 0.94409 0.7559 0.0
C375 C 0.26418 0.84415 0.71791 0.0
C376 C 0.42627 0.81538 0.72452 0.0
O377 O 0.38594 0.83303 0.73254 0.0
O378 O 0.43442 0.83257 0.71328 0.0
C379 C 0.27166 0.95215 0.69615 0.0
O380 O 0.44044 0.02852 0.72215 0.0
O381 O 0.41193 0.06926 0.73958 0.0
C382 C 0.4405 0.97448 0.69203 0.0
C383 C 0.44997 0.06166 0.73081 0.0
Fe384 Fe 0.67834 0.73159 0.45127 0.0
O385 O 0.68966 0.68364 0.46556 0.0
Fe386 Fe 0.66229 0.6048 0.46293 0.0
Fe387 Fe 0.65196 0.69718 0.48238 0.0
O388 O 0.69073 0.6791 0.46455 0.0
O389 O 0.62744 0.61807 0.47993 0.0
O390 O 0.62608 0.6224 0.48082 0.0
Fe391 Fe 0.63998 0.57274 0.4946 0.0
C392 C 0.73129 0.79086 0.47319 0.0
O393 O 0.61033 0.77431 0.45973 0.0
O394 O 0.57097 0.72268 0.47436 0.0
O395 O 0.59024 0.52135 0.48391 0.0
O396 O 0.62432 0.52889 0.46361 0.0
O397 O 0.57968 0.62808 0.45497 0.0
O398 O 0.61168 0.68993 0.44184 0.0
O399 O 0.60476 0.69739 0.50024 0.0
O400 O 0.56659 0.61303 0.50094 0.0
C401 C 0.57145 0.65712 0.44545 0.0
O402 O 0.717 0.53744 0.48779 0.0
O403 O 0.74467 0.57774 0.47018 0.0
O404 O 0.73746 0.77492 0.46179 0.0
O405 O 0.69123 0.77319 0.48128 0.0
C406 C 0.56747 0.76251 0.46725 0.0
C407 C 0.5689 0.66064 0.50496 0.0
C408 C 0.72956 0.66175 0.50251 0.0
O409 O 0.73233 0.67574 0.49118 0.0
O410 O 0.69358 0.6243 0.50547 0.0
C411 C 0.59239 0.50661 0.4724 0.0
O412 O 0.70547 0.60126 0.44519 0.0
O413 O 0.74191 0.68531 0.44225 0.0
C414 C 0.75472 0.54519 0.47897 0.0
C415 C 0.73986 0.63581 0.43948 0.0
Fe416 Fe 0.56304 0.73833 0.87279 0.0
O417 O 0.55374 0.69194 0.85824 0.0
Fe418 Fe 0.58207 0.61259 0.86069 0.0
Fe419 Fe 0.59562 0.70701 0.84194 0.0
O420 O 0.55172 0.68677 0.85917 0.0
O421 O 0.61828 0.62754 0.84393 0.0
O422 O 0.61857 0.63155 0.84307 0.0
Fe423 Fe 0.60862 0.58481 0.82879 0.0
C424 C 0.52016 0.80373 0.85082 0.0
O425 O 0.6364 0.77899 0.86544 0.0
O426 O 0.67597 0.72692 0.85093 0.0
O427 O 0.65656 0.53189 0.83942 0.0
O428 O 0.62334 0.53725 0.85982 0.0
O429 O 0.66341 0.63744 0.86907 0.0
O430 O 0.6249 0.69342 0.88281 0.0
O431 O 0.64509 0.70976 0.82449 0.0
O432 O 0.68358 0.62588 0.82351 0.0
C433 C 0.66856 0.66434 0.87902 0.0
O434 O 0.53041 0.54893 0.83464 0.0
O435 O 0.50148 0.58321 0.85296 0.0
O436 O 0.50846 0.78597 0.86189 0.0
O437 O 0.56104 0.78444 0.84315 0.0
C438 C 0.68192 0.76262 0.8591 0.0
C439 C 0.68115 0.67367 0.81963 0.0
C440 C 0.51969 0.6753 0.82111 0.0
O441 O 0.51619 0.68937 0.83243 0.0
O442 O 0.55628 0.63818 0.81811 0.0
C443 C 0.65537 0.51588 0.85085 0.0
O444 O 0.53603 0.60847 0.87821 0.0
O445 O 0.4963 0.69213 0.88082 0.0
C446 C 0.49221 0.55385 0.84349 0.0
C447 C 0.49934 0.6425 0.8836 0.0
Fe448 Fe 0.36558 0.49156 0.61159 0.0
O449 O 0.3413 0.41668 0.60923 0.0
Fe450 Fe 0.39187 0.52801 0.58046 0.0
Fe451 Fe 0.34933 0.36387 0.62236 0.0
O452 O 0.40537 0.48103 0.59492 0.0
O453 O 0.40663 0.47647 0.59393 0.0
O454 O 0.34198 0.41255 0.60824 0.0
Fe455 Fe 0.38152 0.40168 0.59156 0.0
C456 C 0.45051 0.44138 0.63045 0.0
O457 O 0.31698 0.49277 0.62853 0.0
O458 O 0.28013 0.40821 0.6301 0.0
O459 O 0.30152 0.42474 0.5829 0.0
O460 O 0.3408 0.47711 0.56896 0.0
O461 O 0.31325 0.56177 0.58717 0.0
O462 O 0.28345 0.51535 0.60363 0.0
O463 O 0.29528 0.31975 0.61094 0.0
O464 O 0.34289 0.3251 0.59165 0.0
C465 C 0.27407 0.55083 0.59551 0.0
O466 O 0.43056 0.40495 0.57392 0.0
O467 O 0.4668 0.49003 0.57406 0.0
O468 O 0.44667 0.47078 0.62084 0.0
O469 O 0.40988 0.40705 0.63295 0.0
C470 C 0.27821 0.45792 0.63266 0.0
C471 C 0.30321 0.30514 0.59952 0.0
C472 C 0.46517 0.33527 0.60711 0.0
O473 O 0.42245 0.32396 0.61475 0.0
O474 O 0.4616 0.37437 0.59971 0.0
C475 C 0.30461 0.43954 0.57166 0.0
O476 O 0.43827 0.57883 0.5918 0.0
O477 O 0.39908 0.56879 0.61165 0.0
C478 C 0.46629 0.4429 0.5697 0.0
C479 C 0.43214 0.59275 0.6033 0.0
Fe480 Fe 0.38826 0.38621 0.23441 0.0
O481 O 0.38537 0.30826 0.23374 0.0
Fe482 Fe 0.40363 0.41362 0.20174 0.0
Fe483 Fe 0.35791 0.25865 0.2463 0.0
O484 O 0.3788 0.37132 0.21602 0.0
O485 O 0.40044 0.3628 0.21505 0.0
O486 O 0.35929 0.30498 0.2319 0.0
Fe487 Fe 0.37862 0.28698 0.21422 0.0
C488 C 0.42709 0.34641 0.26032 0.0
O489 O 0.29616 0.37798 0.23959 0.0
O490 O 0.29184 0.31225 0.25356 0.0
O491 O 0.2958 0.31292 0.20531 0.0
O492 O 0.32407 0.38453 0.19377 0.0
O493 O 0.35374 0.46959 0.21111 0.0
O494 O 0.37286 0.46595 0.23201 0.0
O495 O 0.29737 0.21753 0.23489 0.0
O496 O 0.34191 0.21314 0.21569 0.0
C497 C 0.3481 0.48724 0.22224 0.0
O498 O 0.41461 0.27523 0.19664 0.0
O499 O 0.45283 0.35625 0.19237 0.0
O500 O 0.41066 0.38689 0.2537 0.0
O501 O 0.41981 0.29866 0.25697 0.0
C502 C 0.28061 0.36055 0.25038 0.0
C503 C 0.30385 0.19686 0.22399 0.0
C504 C 0.46999 0.22318 0.23066 0.0
O505 O 0.42978 0.21311 0.23919 0.0
O506 O 0.46116 0.25685 0.22178 0.0
C507 C 0.28614 0.34749 0.19659 0.0
O508 O 0.48126 0.43793 0.21095 0.0
O509 O 0.48173 0.39871 0.23018 0.0
C510 C 0.44885 0.30667 0.19037 0.0
C511 C 0.50711 0.42606 0.22142 0.0
H512 H 0.22275 0.39686 0.4701 0.0
H513 H 0.58907 0.40502 0.47983 0.0
H514 H 0.32758 0.27022 0.48629 0.0
H515 H 0.48648 0.52326 0.45997 0.0
H516 H 0.49409 0.35426 0.48229 0.0
H517 H 0.31835 0.44711 0.46773 0.0
C518 C 0.26551 0.3809 0.47377 0.0
C519 C 0.26703 0.33043 0.47892 0.0
C520 C 0.49254 0.39061 0.47707 0.0
C521 C 0.37684 0.38571 0.4755 0.0
C522 C 0.54699 0.41888 0.47542 0.0
C523 C 0.5458 0.46729 0.46924 0.0
C524 C 0.4364 0.41164 0.47273 0.0
C525 C 0.48971 0.48494 0.46423 0.0
C526 C 0.32024 0.40891 0.47214 0.0
C527 C 0.32401 0.31012 0.48289 0.0
N528 N 0.43701 0.45749 0.46621 0.0
N529 N 0.37671 0.33762 0.48101 0.0
H530 H 0.02225 1.00045 0.45769 0.0
H531 H 0.82997 0.76662 0.48737 0.0
H532 H 0.09091 0.908 0.48835 0.0
H533 H 0.74776 0.89119 0.4658 0.0
H534 H 0.92827 0.81286 0.48706 0.0
H535 H 0.92609 0.95034 0.45807 0.0
C536 C 0.01812 0.9679 0.46408 0.0
C537 C 0.06438 0.95792 0.47291 0.0
C538 C 0.88834 0.83093 0.48271 0.0
C539 C 0.95414 0.90232 0.47387 0.0
C540 C 0.8317 0.80537 0.48325 0.0
C541 C 0.78002 0.82662 0.47717 0.0
C542 C 0.89361 0.87708 0.47567 0.0
C543 C 0.7862 0.87466 0.47097 0.0
C544 C 0.96272 0.94026 0.46454 0.0
C545 C 0.0562 0.91648 0.48134 0.0
N546 N 0.84227 0.8981 0.47025 0.0
N547 N 0.00169 0.89048 0.48171 0.0
H548 H 0.19856 0.97153 0.82651 0.0
H549 H 0.525 0.9058 0.85809 0.0
H550 H 0.27573 0.06063 0.85707 0.0
H551 H 0.42148 0.79773 0.83538 0.0
H552 H 0.4452 0.97284 0.85438 0.0
H553 H 0.29154 0.91771 0.82621 0.0
C554 C 0.23509 0.98009 0.83312 0.0
C555 C 0.22866 0.0203 0.84197 0.0
C556 C 0.44087 0.9349 0.84993 0.0
C557 C 0.33561 0.95861 0.8416 0.0
C558 C 0.48652 0.89697 0.85196 0.0
C559 C 0.48072 0.84712 0.8466 0.0
C560 C 0.38896 0.92239 0.84262 0.0
C561 C 0.42909 0.83657 0.83913 0.0
C562 C 0.28825 0.94926 0.83293 0.0
C563 C 0.27819 0.02974 0.85017 0.0
N564 N 0.3851 0.87385 0.83738 0.0
N565 N 0.32939 0.99885 0.84985 0.0
H566 H 0.0045 0.37598 0.87043 0.0
H567 H 0.6861 0.43341 0.83624 0.0
H568 H 0.97682 0.35252 0.83103 0.0
H569 H 0.7347 0.50862 0.87086 0.0
H570 H 0.78719 0.39131 0.83585 0.0
H571 H 0.90554 0.42055 0.87156 0.0
C572 C 0.97794 0.38054 0.86192 0.0
C573 C -0.00241 0.35745 0.85068 0.0
C574 C 0.77561 0.41653 0.84362 0.0
C575 C 0.8831 0.40805 0.85208 0.0
C576 C 0.71743 0.43971 0.844 0.0
C577 C 0.70224 0.47519 0.85354 0.0
C578 C 0.81894 0.42825 0.85293 0.0
C579 C 0.74459 0.48182 0.86332 0.0
C580 C 0.92102 0.40578 0.86265 0.0
C581 C 0.96188 0.36677 0.83999 0.0
N582 N 0.8015 0.4591 0.8627 0.0
N583 N 0.90552 0.39017 0.84099 0.0
H584 H 0.52878 0.58225 0.61898 0.0
H585 H 0.69984 0.82046 0.58572 0.0
H586 H 0.43763 0.69185 0.5945 0.0
H587 H 0.79473 0.70156 0.60697 0.0
H588 H 0.6037 0.77279 0.58829 0.0
H589 H 0.62525 0.63053 0.61634 0.0
C590 C 0.5284 0.61826 0.61363 0.0
C591 C 0.47536 0.63363 0.60707 0.0
C592 C 0.64576 0.75613 0.59209 0.0
C593 C 0.58569 0.68693 0.60333 0.0
C594 C 0.70119 0.78243 0.59022 0.0
C595 C 0.75567 0.76386 0.59575 0.0
C596 C 0.64478 0.71156 0.59977 0.0
C597 C 0.75383 0.71627 0.60228 0.0
C598 C 0.58382 0.64485 0.61179 0.0
C599 C 0.47762 0.67933 0.59983 0.0
N600 N 0.69899 0.69211 0.60431 0.0
N601 N 0.53223 0.70393 0.59797 0.0
H602 H 0.93618 0.18939 0.59287 0.0
H603 H 0.30066 0.20047 0.60381 0.0
H604 H 0.0355 0.07865 0.61571 0.0
H605 H 0.19571 0.32859 0.58831 0.0
H606 H 0.20496 0.15021 0.60603 0.0
H607 H 0.03064 0.24066 0.59052 0.0
C608 C 0.97734 0.17742 0.5979 0.0
C609 C 0.97802 0.13057 0.60472 0.0
C610 C 0.20316 0.18875 0.60179 0.0
C611 C 0.08702 0.18665 0.6014 0.0
C612 C 0.25792 0.21674 0.6002 0.0
C613 C 0.2564 0.26776 0.59534 0.0
C614 C 0.1466 0.21237 0.5986 0.0
C615 C 0.19942 0.28835 0.59146 0.0
C616 C 0.03157 0.2059 0.59632 0.0
C617 C 0.03293 0.1154 0.61066 0.0
N618 N 0.14674 0.26078 0.59326 0.0
N619 N 0.08568 0.14287 0.60869 0.0
H620 H 0.77045 1.00163 0.24502 0.0
H621 H 0.56732 0.23198 0.21459 0.0
H622 H 0.77774 0.04865 0.20653 0.0
H623 H 0.50963 0.14829 0.24751 0.0
H624 H 0.66121 0.17934 0.21417 0.0
H625 H 0.69156 0.06987 0.24869 0.0
C626 C 0.75593 0.02654 0.23742 0.0
C627 C 0.77877 0.0181 0.2254 0.0
C628 C 0.62815 0.17268 0.22153 0.0
C629 C 0.69082 0.09686 0.22949 0.0
C630 C 0.57425 0.20261 0.22175 0.0
C631 C 0.52947 0.19388 0.23092 0.0
C632 C 0.63805 0.13379 0.2306 0.0
C633 C 0.54225 0.15595 0.24013 0.0
C634 C 0.71111 0.0654 0.23949 0.0
C635 C 0.76017 0.05276 0.2159 0.0
N636 N 0.59514 0.12702 0.23969 0.0
N637 N 0.71714 0.0902 0.21813 0.0
H638 H 0.05642 0.70333 0.2033 0.0
H639 H 0.23908 0.45848 0.23148 0.0
H640 H 0.9759 0.58772 0.22751 0.0
H641 H 0.33115 0.58759 0.2137 0.0
H642 H 0.14117 0.50239 0.22871 0.0
H643 H 0.15463 0.6552 0.20412 0.0
C644 C 0.05872 0.66637 0.20827 0.0
C645 C 0.00818 0.6488 0.21521 0.0
C646 C 0.18272 0.52214 0.22571 0.0
C647 C 0.12016 0.59525 0.21668 0.0
C648 C 0.23918 0.49778 0.22772 0.0
C649 C 0.29401 0.52126 0.22373 0.0
C650 C 0.18038 0.56981 0.21922 0.0
C651 C 0.29014 0.56955 0.21749 0.0
C652 C 0.11501 0.63966 0.20899 0.0
C653 C 0.01373 0.60188 0.22188 0.0
N654 N 0.23412 0.59239 0.21541 0.0
N655 N 0.06897 0.57702 0.22257 0.0
H656 H 0.40356 0.02367 0.96346 0.0
H657 H 0.28198 0.72775 0.96256 0.0
H658 H 0.51106 0.89187 0.97655 0.0
H659 H 0.15811 0.85824 0.96732 0.0
H660 H 0.36909 0.78886 0.96189 0.0
H661 H 0.31582 0.96466 0.95993 0.0
C662 C 0.40881 0.98235 0.96559 0.0
C663 C 0.46477 0.9628 0.97043 0.0
C664 C 0.32272 0.80428 0.96275 0.0
C665 C 0.36488 0.89502 0.96609 0.0
C666 C 0.27294 0.76953 0.96287 0.0
C667 C 0.21272 0.78817 0.96462 0.0
C668 C 0.31227 0.85819 0.9644 0.0
C669 C 0.20373 0.84253 0.96561 0.0
C670 C 0.35869 0.94878 0.96355 0.0
C671 C 0.46873 0.90884 0.97296 0.0
N672 N 0.25303 0.87574 0.96553 0.0
N673 N 0.41966 0.87685 0.97069 0.0
H674 H 0.62981 0.37495 0.98468 0.0
H675 H -0.00032 0.37607 0.98776 0.0
H676 H 0.74405 0.23709 0.9822 0.0
H677 H 0.88861 0.51599 0.98568 0.0
H678 H 0.90538 0.32415 0.99079 0.0
H679 H 0.72259 0.42714 0.98953 0.0
C680 C 0.67421 0.35562 0.98543 0.0
C681 C 0.67945 0.30169 0.98322 0.0
C682 C 0.90168 0.36639 0.98997 0.0
C683 C 0.78541 0.36058 0.98859 0.0
C684 C 0.95559 0.39593 0.9884 0.0
C685 C 0.95163 0.45022 0.98662 0.0
C686 C 0.84363 0.39141 0.98955 0.0
C687 C 0.89333 0.47412 0.98716 0.0
C688 C 0.72712 0.38523 0.98818 0.0
C689 C 0.738 0.27841 0.98408 0.0
N690 N 0.84158 0.44459 0.98843 0.0
N691 N 0.78861 0.30791 0.98664 0.0
H692 H 0.59572 0.33047 0.33622 0.0
H693 H 0.22788 0.36615 0.33813 0.0
H694 H 0.47072 0.20508 0.34511 0.0
H695 H 0.35832 0.49329 0.33879 0.0
H696 H 0.31399 0.304 0.33532 0.0
H697 H 0.50713 0.3878 0.33182 0.0
C698 C 0.54943 0.31483 0.33697 0.0
C699 C 0.54011 0.26299 0.34081 0.0
C700 C 0.32353 0.34565 0.33573 0.0
C701 C 0.43861 0.32833 0.33611 0.0
C702 C 0.27441 0.38103 0.33719 0.0
C703 C 0.28611 0.43488 0.33835 0.0
C704 C 0.38456 0.36446 0.33554 0.0
C705 C 0.34734 0.45217 0.33758 0.0
C706 C 0.49891 0.34748 0.33451 0.0
C707 C 0.47945 0.24465 0.3419 0.0
N708 N 0.39419 0.41716 0.33627 0.0
N709 N 0.43088 0.27736 0.33964 0.0
H710 H 0.84391 0.01638 0.3622 0.0
H711 H 0.97325 0.72213 0.36065 0.0
H712 H 0.7356 0.88244 0.35094 0.0
H713 H 0.09285 0.85617 0.35816 0.0
H714 H 0.88409 0.78077 0.36204 0.0
H715 H 0.93361 0.9587 0.36494 0.0
C716 C 0.83881 0.97484 0.36034 0.0
C717 C 0.78195 0.95436 0.35625 0.0
C718 C 0.92988 0.79753 0.36151 0.0
C719 C 0.88452 0.88805 0.35958 0.0
C720 C 0.98087 0.76404 0.36101 0.0
C721 C 0.04055 0.78439 0.35979 0.0
C722 C 0.93848 0.85199 0.36067 0.0
C723 C 0.04765 0.83907 0.35946 0.0
C724 C 0.89013 0.94201 0.3619 0.0
C725 C 0.77843 0.90016 0.354 0.0
N726 N -0.00284 0.87107 0.35987 0.0
N727 N 0.82883 0.86897 0.35573 0.0
H728 H 0.50527 0.99146 0.07907 0.0
H729 H 0.69056 0.22909 0.11076 0.0
H730 H 0.46643 0.05387 0.11547 0.0
H731 H 0.74772 0.15411 0.07663 0.0
H732 H 0.59865 0.17402 0.11092 0.0
H733 H 0.58335 0.06014 0.07616 0.0
C734 C 0.51178 0.0206 0.08626 0.0
C735 C 0.47904 0.01728 0.09746 0.0
C736 C 0.63109 0.16979 0.10334 0.0
C737 C 0.56929 0.09492 0.09443 0.0
C738 C 0.68375 0.20133 0.10324 0.0
C739 C 0.72761 0.19607 0.09373 0.0
C740 C 0.62179 0.13252 0.09387 0.0
C741 C 0.71567 0.15936 0.08423 0.0
C742 C 0.55697 0.05934 0.0847 0.0
C743 C 0.49076 0.05503 0.10669 0.0
N744 N 0.66417 0.12885 0.08458 0.0
N745 N 0.53503 0.09198 0.105 0.0
H746 H 0.95551 0.54531 0.1227 0.0
H747 H 0.24742 0.61243 0.0825 0.0
H748 H 0.95207 0.54382 0.08251 0.0
H749 H 0.22128 0.68312 0.11861 0.0
H750 H 0.14419 0.5749 0.08368 0.0
H751 H 0.05287 0.59214 0.12225 0.0
C752 C 0.9747 0.55526 0.11371 0.0
C753 C 0.94747 0.53724 0.10255 0.0
C754 C 0.16128 0.59816 0.0914 0.0
C755 C 0.05983 0.59031 0.10211 0.0
C756 C 0.22059 0.61868 0.09086 0.0
C757 C 0.2429 0.65099 0.10048 0.0
C758 C 0.12415 0.60935 0.1017 0.0
C759 C 0.20617 0.65794 0.11107 0.0
C760 C 0.0307 0.58183 0.11352 0.0
C761 C 0.97353 0.55373 0.09131 0.0
N762 N 0.14816 0.63756 0.11136 0.0
N763 N 0.02945 0.57793 0.09134 0.0
H764 H 0.43176 0.71276 0.71837 0.0
H765 H 0.7924 0.70142 0.73303 0.0
H766 H 0.53032 0.83642 0.73713 0.0
H767 H 0.70043 0.59423 0.70815 0.0
H768 H 0.69738 0.75244 0.73464 0.0
H769 H 0.52874 0.66413 0.71624 0.0
C770 C 0.47333 0.72819 0.72264 0.0
C771 C 0.4729 0.7775 0.72838 0.0
C772 C 0.69824 0.71856 0.72856 0.0
C773 C 0.58404 0.72436 0.72527 0.0
C774 C 0.75283 0.69026 0.72742 0.0
C775 C 0.75398 0.64416 0.72035 0.0
C776 C 0.64445 0.69989 0.72274 0.0
C777 C 0.70133 0.63018 0.71352 0.0
C778 C 0.52884 0.70127 0.72113 0.0
C779 C 0.52828 0.79733 0.73321 0.0
N780 N 0.64802 0.65737 0.71509 0.0
N781 N 0.58181 0.77089 0.73145 0.0
H782 H 0.92273 0.21083 0.72172 0.0
H783 H 0.28624 0.19878 0.73359 0.0
H784 H 0.02405 0.33052 0.74131 0.0
H785 H 0.18915 0.09261 0.70926 0.0
H786 H 0.19076 0.24785 0.73674 0.0
H787 H 0.01858 0.16122 0.71911 0.0
C788 C 0.96461 0.22507 0.72611 0.0
C789 C 0.96534 0.27397 0.73205 0.0
C790 C 0.19046 0.2146 0.73046 0.0
C791 C 0.07539 0.21965 0.72842 0.0
C792 C 0.24526 0.18748 0.72843 0.0
C793 C 0.24537 0.14225 0.72103 0.0
C794 C 0.1354 0.19573 0.72519 0.0
C795 C 0.19091 0.12798 0.71484 0.0
C796 C 0.01955 0.1976 0.72431 0.0
C797 C 0.02111 0.292 0.73711 0.0
N798 N 0.1376 0.15409 0.71725 0.0
N799 N 0.07415 0.26521 0.73502 0.0
H800 H 0.33764 0.03853 0.46103 0.0
H801 H 0.49198 0.77523 0.48748 0.0
H802 H 0.31421 0.9823 0.49869 0.0
H803 H 0.53241 0.84015 0.45127 0.0
H804 H 0.42317 0.84949 0.49143 0.0
H805 H 0.4109 0.9673 0.45732 0.0
C806 C 0.34883 1.01197 0.4686 0.0
C807 C 0.31918 0.01611 0.48015 0.0
C808 C 0.44695 0.84733 0.4826 0.0
C809 C 0.40165 0.93382 0.47587 0.0
C810 C 0.48561 0.80461 0.48029 0.0
C811 C 0.51813 0.80165 0.46906 0.0
C812 C 0.44065 0.88712 0.47359 0.0
C813 C 0.50856 0.84111 0.46011 0.0
C814 C 0.39015 0.97094 0.46644 0.0
C815 C 0.33537 0.98033 0.48959 0.0
N816 N 0.4709 0.88229 0.46258 0.0
N817 N 0.37493 0.94038 0.48719 0.0
H818 H 0.98774 0.27467 0.49074 0.0
H819 H 0.82602 0.52352 0.45857 0.0
H820 H 0.00682 0.31542 0.45192 0.0
H821 H 0.80077 0.48109 0.49717 0.0
H822 H 0.89593 0.44902 0.45622 0.0
H823 H 0.91661 0.34871 0.49328 0.0
C824 C 0.97583 0.29842 0.48271 0.0
C825 C 0.00344 0.28925 0.47113 0.0
C826 C 0.87541 0.45626 0.46523 0.0
C827 C 0.92388 0.37447 0.47401 0.0
C828 C 0.83611 0.49923 0.46661 0.0
C829 C 0.80706 0.50832 0.47805 0.0
C830 C 0.88575 0.42229 0.47536 0.0
C831 C 0.82165 0.47527 0.48814 0.0
C832 C 0.93596 0.34107 0.48418 0.0
C833 C 0.98697 0.32151 0.46104 0.0
N834 N 0.85956 0.43347 0.48653 0.0
N835 N 0.94873 0.36294 0.46274 0.0
H836 H 0.30716 0.2734 0.86343 0.0
H837 H 0.42972 0.51425 0.8235 0.0
H838 H 0.22759 0.31085 0.82762 0.0
H839 H 0.44246 0.50424 0.86355 0.0
H840 H 0.36671 0.43445 0.82334 0.0
H841 H 0.37617 0.34846 0.86148 0.0
C842 C 0.30599 0.29636 0.85492 0.0
C843 C 0.26155 0.28627 0.84569 0.0
C844 C 0.38263 0.4502 0.83215 0.0
C845 C 0.33855 0.37314 0.84361 0.0
C846 C 0.41791 0.49593 0.83228 0.0
C847 C 0.44103 0.51592 0.84357 0.0
C848 C 0.37162 0.42381 0.84337 0.0
C849 C 0.42497 0.49053 0.85467 0.0
C850 C 0.34445 0.33973 0.85393 0.0
C851 C 0.26156 0.31724 0.83489 0.0
N852 N 0.39199 0.44529 0.85427 0.0
N853 N 0.29888 0.36005 0.83422 0.0
H854 H 0.71745 0.83059 0.87749 0.0
H855 H 0.99611 0.93623 0.83795 0.0
H856 H 0.78316 0.75581 0.84399 0.0
H857 H 0.95479 0.99483 0.87462 0.0
H858 H 0.92751 0.86221 0.84151 0.0
H859 H 0.81124 0.8834 0.87817 0.0
C860 C 0.75184 0.82496 0.87032 0.0
C861 C 0.74174 0.78968 0.86047 0.0
C862 C 0.93401 0.89059 0.8489 0.0
C863 C 0.84918 0.84994 0.86123 0.0
C864 C 0.97312 0.93282 0.84685 0.0
C865 C 0.9802 0.97165 0.85596 0.0
C866 C 0.90046 0.8879 0.86002 0.0
C867 C 0.95014 0.96553 0.86738 0.0
C868 C 0.80556 0.85493 0.87077 0.0
C869 C 0.78849 0.78313 0.85163 0.0
N870 N 0.91035 0.92487 0.86901 0.0
N871 N 0.83972 0.81362 0.85212 0.0
H872 H 0.49834 0.25726 0.62324 0.0
H873 H 0.7399 0.12591 0.57661 0.0
H874 H 0.54582 0.32395 0.58757 0.0
H875 H 0.69229 0.06043 0.61242 0.0
H876 H 0.66647 0.19687 0.58009 0.0
H877 H 0.56989 0.18536 0.61943 0.0
C878 C 0.52434 0.25713 0.61465 0.0
C879 C 0.5158 0.29672 0.60569 0.0
C880 C 0.67174 0.16678 0.58715 0.0
C881 C 0.59743 0.21374 0.60119 0.0
C882 C 0.71339 0.12593 0.58513 0.0
C883 C 0.72271 0.08712 0.59426 0.0
C884 C 0.63911 0.16907 0.59839 0.0
C885 C 0.68679 0.08936 0.6051 0.0
C886 C 0.56499 0.21581 0.61246 0.0
C887 C 0.55105 0.29447 0.59477 0.0
N888 N 0.64698 0.12989 0.6069 0.0
N889 N 0.59003 0.25345 0.59279 0.0
H890 H 0.19181 0.55781 0.61492 0.0
H891 H 0.0481 0.82753 0.58961 0.0
H892 H 0.23497 0.62631 0.5792 0.0
H893 H 0.98604 0.75104 0.6232 0.0
H894 H 0.12062 0.75562 0.58627 0.0
H895 H 0.11613 0.6277 0.61829 0.0
C896 C 0.18468 0.5869 0.60769 0.0
C897 C 0.22022 0.58627 0.59679 0.0
C898 C 0.09129 0.75466 0.5944 0.0
C899 C 0.13471 0.66695 0.60072 0.0
C900 C 0.05025 0.79604 0.59638 0.0
C901 C 0.01068 0.79536 0.60669 0.0
C902 C 0.09304 0.71231 0.6028 0.0
C903 C 0.01542 0.75317 0.61509 0.0
C904 C 0.14184 0.62708 0.60967 0.0
C905 C 0.2091 0.62529 0.58779 0.0
N906 N 0.05564 0.71329 0.61294 0.0
N907 N 0.16781 0.66419 0.59001 0.0
H908 H 0.54865 0.46328 0.24384 0.0
H909 H 0.73436 0.68431 0.20829 0.0
H910 H 0.59412 0.45569 0.20479 0.0
H911 H 0.75688 0.66051 0.24788 0.0
H912 H 0.67034 0.60558 0.20734 0.0
H913 H 0.62093 0.53651 0.24623 0.0
C914 C 0.57552 0.47569 0.23589 0.0
C915 C 0.56483 0.45411 0.22406 0.0
C916 C 0.68907 0.61783 0.21625 0.0
C917 C 0.64484 0.53859 0.2266 0.0
C918 C 0.72459 0.66323 0.21682 0.0
C919 C 0.75106 0.67862 0.22816 0.0
C920 C 0.67953 0.58817 0.22711 0.0
C921 C 0.73751 0.64958 0.23894 0.0
C922 C 0.61591 0.51797 0.23721 0.0
C923 C 0.60037 0.47193 0.21403 0.0
N924 N 0.70276 0.6055 0.23815 0.0
N925 N 0.63783 0.51393 0.21547 0.0
H926 H 0.25527 0.17117 0.20122 0.0
H927 H 0.07474 0.92452 0.22836 0.0
H928 H 0.26187 0.1217 0.23967 0.0
H929 H 0.0064 0.01308 0.1968 0.0
H930 H 0.1635 0.98249 0.22952 0.0
H931 H 0.18216 0.09982 0.19677 0.0
C932 C 0.24191 0.14486 0.20866 0.0
C933 C 0.2639 0.15234 0.22085 0.0
C934 C 0.12931 0.98888 0.22227 0.0
C935 C 0.1819 0.0711 0.21581 0.0
C936 C 0.07859 0.95579 0.22157 0.0
C937 C 0.03225 0.96464 0.21262 0.0
C938 C 0.13408 0.03095 0.21394 0.0
C939 C 0.04051 1.00538 0.20398 0.0
C940 C 0.20025 0.10449 0.20613 0.0
C941 C 0.24525 0.11755 0.23019 0.0
N942 N 0.09031 0.0375 0.20492 0.0
N943 N 0.20528 0.07837 0.22747 0.0
H944 H 0.24353 0.47262 0.99391 0.0
H945 H 0.3596 0.20498 0.9631 0.0
H946 H 0.19968 0.41698 0.95694 0.0
H947 H 0.4488 0.2704 0.99548 0.0
H948 H 0.28013 0.27248 0.96445 0.0
H949 H 0.30679 0.39316 0.99726 0.0
C950 C 0.24806 0.44425 0.98647 0.0
C951 C 0.21633 0.45117 0.97515 0.0
C952 C 0.31617 0.2715 0.97148 0.0
C953 C 0.28571 0.36027 0.97906 0.0
C954 C 0.36067 0.23231 0.97083 0.0
C955 C 0.41012 0.23236 0.97922 0.0
C956 C 0.32238 0.31167 0.98037 0.0
C957 C 0.41061 0.26912 0.98893 0.0
C958 C 0.28318 0.39871 0.98844 0.0
C959 C 0.2229 0.41301 0.96585 0.0
N960 N 0.36807 0.30839 0.98909 0.0
N961 N 0.2564 0.36923 0.96805 0.0
H962 H 0.99126 0.82666 0.98405 0.0
H963 H 0.66379 0.88962 0.95773 0.0
H964 H 0.89821 0.70859 0.96207 0.0
H965 H 0.80634 1.00612 0.96148 0.0
H966 H 0.74306 0.82043 0.9589 0.0
H967 H 0.91607 0.89107 0.97702 0.0
C968 C 0.95452 0.81401 0.97787 0.0
C969 C 0.95092 0.76196 0.97371 0.0
C970 C 0.75703 0.8612 0.95901 0.0
C971 C 0.86484 0.83612 0.96547 0.0
C972 C 0.71204 0.90056 0.95816 0.0
C973 C 0.72905 0.95332 0.95945 0.0
C974 C 0.81858 0.8753 0.96142 0.0
C975 C 0.79175 0.96574 0.96039 0.0
C976 C 0.9121 0.85108 0.9737 0.0
C977 C 0.90251 0.74828 0.96555 0.0
N978 N 0.83419 0.92699 0.96163 0.0
N979 N 0.86087 0.78514 0.96175 0.0
H980 H 0.35889 0.69707 0.36515 0.0
H981 H 0.44062 1.00167 0.3678 0.0
H982 H 0.25935 0.8231 0.34709 0.0
H983 H 0.58441 0.88493 0.36858 0.0
H984 H 0.36353 0.9321 0.36869 0.0
H985 H 0.43371 0.76204 0.37317 0.0
C986 C 0.35292 0.73815 0.36285 0.0
C987 C 0.30367 0.75461 0.35521 0.0
C988 C 0.41199 0.92167 0.36907 0.0
C989 C 0.38642 0.82841 0.36478 0.0
C990 C 0.45583 0.96137 0.36876 0.0
C991 C 0.51849 0.94868 0.36818 0.0
C992 C 0.43114 0.86908 0.3685 0.0
C993 C 0.5362 0.89589 0.36913 0.0
C994 C 0.39514 0.775 0.36749 0.0
C995 C 0.29732 0.80834 0.35268 0.0
N996 N 0.49252 0.85758 0.36895 0.0
N997 N 0.33798 0.84315 0.35748 0.0
H998 H 0.95681 0.52298 0.3413 0.0
H999 H 0.85883 0.22491 0.33123 0.0
H1000 H 0.0816 0.39112 0.34349 0.0
H1001 H 0.74405 0.3413 0.34881 0.0
H1002 H 0.935 0.29362 0.32661 0.0
H1003 H 0.87352 0.46277 0.33519 0.0
C1004 C 0.96665 0.4815 0.34033 0.0
C1005 C 0.02508 0.46135 0.34325 0.0
C1006 C 0.89226 0.30411 0.33117 0.0
C1007 C 0.93188 0.39352 0.33597 0.0
C1008 C 0.8492 0.26519 0.3338 0.0
C1009 C 0.79666 0.27794 0.34066 0.0
C1010 C 0.88149 0.35556 0.33531 0.0
C1011 C 0.78521 0.33031 0.34376 0.0
C1012 C 0.91955 0.44746 0.33678 0.0
C1013 C 0.03636 0.40767 0.34168 0.0
N1014 N 0.82783 0.3674 0.34118 0.0
N1015 N 0.98987 0.37537 0.33823 0.0
H1016 H 0.50929 0.67118 0.07125 0.0
H1017 H 0.64973 0.45261 0.11598 0.0
H1018 H 0.51449 0.68215 0.11138 0.0
H1019 H 0.71719 0.47283 0.07855 0.0
H1020 H 0.57851 0.52551 0.1127 0.0
H1021 H 0.57227 0.59135 0.07246 0.0
C1022 C 0.52472 0.65736 0.08029 0.0
C1023 C 0.50662 0.6832 0.09124 0.0
C1024 C 0.60817 0.51343 0.10513 0.0
C1025 C 0.5762 0.59138 0.09266 0.0
C1026 C 0.64803 0.47137 0.10692 0.0
C1027 C 0.68986 0.45734 0.09757 0.0
C1028 C 0.61002 0.54144 0.0939 0.0
C1029 C 0.68562 0.48257 0.08598 0.0
C1030 C 0.56006 0.61168 0.08096 0.0
C1031 C 0.52766 0.66367 0.10271 0.0
N1032 N 0.64702 0.52427 0.08452 0.0
N1033 N 0.56063 0.61844 0.10312 0.0
H1034 H 0.24617 1.00651 0.12615 0.0
H1035 H 0.97559 0.12088 0.08514 0.0
H1036 H 0.17662 0.93073 0.09294 0.0
H1037 H 0.00544 0.171 0.12306 0.0
H1038 H 0.04545 0.04745 0.08859 0.0
H1039 H 0.15529 0.06341 0.12616 0.0
C1040 C 0.21158 1.00144 0.11893 0.0
C1041 C 0.21974 0.96455 0.10936 0.0
C1042 C 0.03628 0.07396 0.09624 0.0
C1043 C 0.11595 0.02944 0.10935 0.0
C1044 C -0.00333 0.116 0.09425 0.0
C1045 C 0.98565 0.15214 0.1038 0.0
C1046 C 0.06625 0.06865 0.10779 0.0
C1047 C 0.01317 0.14384 0.11547 0.0
C1048 C 0.1596 0.03378 0.11899 0.0
C1049 C 0.17292 0.95916 0.10038 0.0
N1050 N 0.05333 0.10331 0.1171 0.0
N1051 N 0.12351 0.99179 0.1005 0.0
H1052 H 0.49334 0.12936 0.74858 0.0
H1053 H 0.72564 0.27409 0.70235 0.0
H1054 H 0.52426 0.08014 0.71065 0.0
H1055 H 0.68189 0.33185 0.73905 0.0
H1056 H 0.65295 0.20234 0.70529 0.0
H1057 H 0.56641 0.20085 0.74563 0.0
C1058 C 0.51618 0.13303 0.73967 0.0
C1059 C 0.50248 0.09854 0.72983 0.0
C1060 C 0.65881 0.23086 0.71268 0.0
C1061 C 0.58565 0.18113 0.72635 0.0
C1062 C 0.70011 0.27204 0.71098 0.0
C1063 C 0.71003 0.30895 0.72049 0.0
C1064 C 0.62734 0.22617 0.72401 0.0
C1065 C 0.67546 0.30445 0.73145 0.0
C1066 C 0.55759 0.17419 0.73797 0.0
C1067 C 0.53369 0.10538 0.71852 0.0
N1068 N 0.63602 0.26347 0.73295 0.0
N1069 N 0.57348 0.14608 0.71707 0.0
H1070 H 0.98619 0.63891 0.74872 0.0
H1071 H 0.23694 0.76125 0.70271 0.0
H1072 H 0.04083 0.56598 0.71423 0.0
H1073 H 0.18072 0.83494 0.73704 0.0
H1074 H 0.16609 0.68923 0.70685 0.0
H1075 H 0.06092 0.70843 0.74511 0.0
C1076 C 0.01446 0.63699 0.74044 0.0
C1077 C 0.00648 0.59658 0.73166 0.0
C1078 C 0.16901 0.72121 0.71346 0.0
C1079 C 0.09187 0.67706 0.72739 0.0
C1080 C 0.20927 0.7626 0.71108 0.0
C1081 C 0.21502 0.80435 0.71955 0.0
C1082 C 0.13408 0.72123 0.72443 0.0
C1083 C 0.17773 0.80382 0.73021 0.0
C1084 C 0.05691 0.67708 0.73835 0.0
C1085 C 0.04489 0.59642 0.72118 0.0
N1086 N 0.13911 0.76278 0.73237 0.0
N1087 N 0.08547 0.63628 0.71927 0.0
H1088 H 0.36167 0.1532 0.44632 0.0
H1089 H 0.45848 0.09079 0.37628 0.0
H1090 H 0.23028 0.0907 0.42002 0.0
H1091 H 0.54983 0.20301 0.40014 0.0
H1092 H 0.3805 0.07726 0.39249 0.0
H1093 H 0.44004 0.1538 0.43011 0.0
C1094 C 0.35002 0.13814 0.43716 0.0
C1095 C 0.2899 0.12157 0.43446 0.0
C1096 C 0.41747 0.10502 0.39409 0.0
C1097 C 0.3785 0.12389 0.41573 0.0
C1098 C 0.46184 0.11292 0.38486 0.0
C1099 C 0.51083 0.14813 0.38685 0.0
C1100 C 0.42284 0.13188 0.40545 0.0
C1101 C 0.51283 0.17577 0.39813 0.0
C1102 C 0.39441 0.13918 0.42788 0.0
C1103 C 0.27656 0.10309 0.42245 0.0
N1104 N 0.46986 0.16669 0.40702 0.0
N1105 N 0.32056 0.1052 0.41342 0.0
H1106 H 0.74286 0.20256 0.40499 0.0
H1107 H 0.01912 0.05304 0.44004 0.0
H1108 H 0.79437 0.04424 0.39544 0.0
H1109 H 0.98917 0.22006 0.44054 0.0
H1110 H 0.92627 0.04286 0.42689 0.0
H1111 H 0.81995 0.20236 0.42154 0.0
C1112 C 0.76989 0.16731 0.40652 0.0
C1113 C 0.76254 0.12352 0.39874 0.0
C1114 C 0.93967 0.08159 0.43002 0.0
C1115 C 0.85235 0.12336 0.41765 0.0
C1116 C 0.99214 0.08732 0.43763 0.0
C1117 C 0.01124 0.13737 0.44149 0.0
C1118 C 0.90595 0.12628 0.42639 0.0
C1119 C 0.97602 0.18079 0.43776 0.0
C1120 C 0.81422 0.16733 0.41595 0.0
C1121 C 0.79848 0.07877 0.40125 0.0
N1122 N 0.92522 0.17423 0.43046 0.0
N1123 N 0.84257 0.08004 0.4104 0.0
H1124 H 0.44396 0.04229 0.93643 0.0
H1125 H 0.28801 0.16349 0.87525 0.0
H1126 H 0.50857 0.17828 0.91655 0.0
H1127 H 0.18258 0.07376 0.90169 0.0
H1128 H 0.38121 0.14616 0.88729 0.0
H1129 H 0.3598 0.0328 0.92101 0.0
C1130 C 0.4414 0.06909 0.9286 0.0
C1131 C 0.48305 0.11101 0.92764 0.0
C1132 C 0.33795 0.1297 0.89044 0.0
C1133 C 0.38793 0.1005 0.91018 0.0
C1134 C 0.28476 0.13953 0.88357 0.0
C1135 C 0.22755 0.12087 0.88766 0.0
C1136 C 0.33417 0.1014 0.9016 0.0
C1137 C 0.22593 0.08914 0.89833 0.0
C1138 C 0.39326 0.06396 0.91992 0.0
C1139 C 0.47736 0.14542 0.91755 0.0
N1140 N 0.27861 0.08105 0.90511 0.0
N1141 N 0.43064 0.13944 0.90923 0.0
H1142 H 0.742 0.24634 0.93651 0.0
H1143 H 0.93951 0.08779 0.88612 0.0
H1144 H 0.75126 0.07722 0.93607 0.0
H1145 H 0.94905 0.25527 0.89166 0.0
H1146 H 0.86574 0.08208 0.90341 0.0
H1147 H 0.81661 0.24932 0.91968 0.0
C1148 C 0.76047 0.20977 0.93298 0.0
C1149 C 0.7403 0.16148 0.9377 0.0
C1150 C 0.88387 0.12003 0.90077 0.0
C1151 C 0.82509 0.1645 0.91814 0.0
C1152 C 0.9253 0.12338 0.89082 0.0
C1153 C 0.95054 0.17206 0.88747 0.0
C1154 C 0.86739 0.16574 0.9073 0.0
C1155 C 0.93114 0.21686 0.89397 0.0
C1156 C 0.80291 0.21146 0.9233 0.0
C1157 C 0.76592 0.11533 0.93276 0.0
N1158 N 0.89098 0.21257 0.90355 0.0
N1159 N 0.80656 0.11793 0.92313 0.0
H1160 H 0.42214 0.97346 0.6671 0.0
H1161 H 0.77794 0.02826 0.65179 0.0
H1162 H 0.55583 0.01433 0.69525 0.0
H1163 H 0.65296 0.94039 0.62848 0.0
H1164 H 0.69182 0.047 0.66608 0.0
H1165 H 0.50097 0.98602 0.65108 0.0
C1166 C 0.46775 0.98666 0.66983 0.0
C1167 C 0.48271 0.99359 0.6824 0.0
C1168 C 0.68325 0.02439 0.65772 0.0
C1169 C 0.57338 1.0066 0.66429 0.0
C1170 C 0.73215 0.01398 0.64957 0.0
C1171 C 0.72232 0.9823 0.63908 0.0
C1172 C 0.62439 1.00363 0.65515 0.0
C1173 C 0.6624 0.96442 0.63658 0.0
C1174 C 0.51281 0.99344 0.66073 0.0
C1175 C 0.5426 1.00957 0.68558 0.0
N1176 N 0.61585 0.97511 0.64458 0.0
N1177 N 0.58613 0.01509 0.67658 0.0
H1178 H 0.01606 0.02944 0.63581 0.0
H1179 H 0.20558 0.87006 0.68789 0.0
H1180 H 0.98979 0.86602 0.64473 0.0
H1181 H 0.21476 0.03861 0.68554 0.0
H1182 H 0.12728 0.86967 0.67159 0.0
H1183 H 0.09246 0.03539 0.65293 0.0
C1184 C 0.027 0.99477 0.64122 0.0
C1185 C 0.99656 0.94716 0.63884 0.0
C1186 C 0.1456 0.90701 0.67466 0.0
C1187 C 0.08263 0.95378 0.65844 0.0
C1188 C 0.19009 0.90718 0.68405 0.0
C1189 C 0.2162 0.95441 0.68811 0.0
C1190 C 0.12738 0.95443 0.66905 0.0
C1191 C 0.19498 1.00143 0.68275 0.0
C1192 C 0.06993 0.99831 0.65107 0.0
C1193 C 0.01173 0.90363 0.64626 0.0
N1194 N 0.15212 1.00027 0.67336 0.0
N1195 N 0.0534 0.90803 0.65566 0.0
H1196 H 0.79821 0.7482 0.16938 0.0
H1197 H 0.43785 0.77706 0.15454 0.0
H1198 H 0.66517 0.81894 0.19392 0.0
H1199 H 0.57758 0.77506 0.12617 0.0
H1200 H 0.51765 0.75906 0.17032 0.0
H1201 H 0.71386 0.72615 0.15481 0.0
C1202 C 0.75107 0.75784 0.1718 0.0
C1203 C 0.73815 0.78595 0.18268 0.0
C1204 C 0.53056 0.76116 0.1606 0.0
C1205 C 0.6425 0.76054 0.16636 0.0
C1206 C 0.48516 0.77108 0.15164 0.0
C1207 C 0.50184 0.7775 0.13917 0.0
C1208 C 0.59266 0.75784 0.15697 0.0
C1209 C 0.56351 0.77028 0.13577 0.0
C1210 C 0.70323 0.74545 0.16352 0.0
C1211 C 0.6767 0.79786 0.18548 0.0
N1212 N 0.60709 0.76135 0.14466 0.0
N1213 N 0.63109 0.78536 0.17733 0.0
H1214 H 0.07611 0.79916 0.19542 0.0
H1215 H 0.16837 0.80841 0.12314 0.0
H1216 H 0.94816 0.84304 0.16626 0.0
H1217 H 0.29972 0.82453 0.15323 0.0
H1218 H 0.08512 0.80216 0.13859 0.0
H1219 H 0.15717 0.78964 0.17969 0.0
C1220 C 0.06495 0.80633 0.18572 0.0
C1221 C 0.00549 0.82239 0.18216 0.0
C1222 C 0.13232 0.80667 0.14177 0.0
C1223 C 0.09758 0.8112 0.16415 0.0
C1224 C 0.1797 0.80995 0.13297 0.0
C1225 C 0.24079 0.81761 0.13691 0.0
C1226 C 0.14654 0.81009 0.15455 0.0
C1227 C 0.25308 0.81941 0.14978 0.0
C1228 C 0.11118 0.80107 0.17676 0.0
C1229 C 0.9936 0.83125 0.16944 0.0
N1230 N 0.20646 0.81575 0.15812 0.0
N1231 N 0.03918 0.82556 0.1609 0.0
H1232 H 0.47694 0.69753 0.90461 0.0
H1233 H 0.19829 0.5188 0.92816 0.0
H1234 H 0.43077 0.55132 0.88672 0.0
H1235 H 0.2687 0.65337 0.94799 0.0
H1236 H 0.28359 0.52671 0.91333 0.0
H1237 H 0.40286 0.67862 0.92093 0.0
C1238 C 0.45142 0.66104 0.90418 0.0
C1239 C 0.45995 0.62609 0.89422 0.0
C1240 C 0.2806 0.55418 0.92099 0.0
C1241 C 0.37346 0.60429 0.91296 0.0
C1242 C 0.2318 0.54979 0.92948 0.0
C1243 C 0.22571 0.58572 0.93937 0.0
C1244 C 0.32364 0.595 0.92232 0.0
C1245 C 0.27095 0.62484 0.94055 0.0
C1246 C 0.40897 0.65023 0.91353 0.0
C1247 C 0.42584 0.57925 0.89424 0.0
N1248 N 0.31741 0.62859 0.93212 0.0
N1249 N 0.38344 0.56999 0.90338 0.0
H1250 H 0.95072 0.70698 0.93631 0.0
H1251 H 0.76467 0.59381 0.87727 0.0
H1252 H 0.96677 0.54753 0.9233 0.0
H1253 H 0.70317 0.72758 0.89846 0.0
H1254 H 0.85334 0.58508 0.89141 0.0
H1255 H 0.87419 0.72399 0.91973 0.0
C1256 C 0.93897 0.67591 0.92984 0.0
C1257 C 0.96479 0.6257 0.93122 0.0
C1258 C 0.82046 0.61644 0.89292 0.0
C1259 C 0.87783 0.64479 0.91228 0.0
C1260 C 0.76976 0.62134 0.88486 0.0
C1261 C 0.72542 0.66062 0.88682 0.0
C1262 C 0.82762 0.65167 0.9029 0.0
C1263 C 0.7354 0.69601 0.8967 0.0
C1264 C 0.89507 0.68547 0.92045 0.0
C1265 C 0.94752 0.58667 0.92265 0.0
N1266 N 0.78521 0.69061 0.90437 0.0
N1267 N 0.90522 0.59699 0.91358 0.0
H1268 H 0.27949 0.52695 0.40046 0.0
H1269 H 0.5139 0.73158 0.43115 0.0
H1270 H 0.27854 0.69193 0.3914 0.0
H1271 H 0.50132 0.56918 0.44197 0.0
H1272 H 0.42443 0.71968 0.4174 0.0
H1273 H 0.35597 0.54351 0.41667 0.0
C1274 C 0.29501 0.56684 0.40195 0.0
C1275 C 0.27272 0.60808 0.39449 0.0
C1276 C 0.4407 0.68679 0.4229 0.0
C1277 C 0.3613 0.62731 0.41306 0.0
C1278 C 0.49187 0.69349 0.43073 0.0
C1279 C 0.5147 0.6513 0.43782 0.0
C1280 C 0.41248 0.63734 0.42205 0.0
C1281 C 0.48434 0.60295 0.43693 0.0
C1282 C 0.33877 0.57628 0.41124 0.0
C1283 C 0.29423 0.659 0.39696 0.0
N1284 N 0.43516 0.59719 0.42913 0.0
N1285 N 0.33787 0.6671 0.40594 0.0
H1286 H 0.79938 0.54086 0.43513 0.0
H1287 H 0.97707 0.65522 0.37536 0.0
H1288 H 0.77089 0.69492 0.41945 0.0
H1289 H 0.02977 0.51036 0.39328 0.0
H1290 H 0.89154 0.66373 0.3899 0.0
H1291 H 0.87413 0.5223 0.41842 0.0
C1292 C 0.8081 0.57042 0.42811 0.0
C1293 C 0.77925 0.61972 0.4288 0.0
C1294 C 0.9215 0.62982 0.39063 0.0
C1295 C 0.86439 0.59889 0.40969 0.0
C1296 C 0.97039 0.62489 0.38225 0.0
C1297 C 0.01124 0.58225 0.38306 0.0
C1298 C 0.9129 0.59182 0.39997 0.0
C1299 C -0.00013 0.54417 0.3923 0.0
C1300 C 0.851 0.55997 0.41862 0.0
C1301 C 0.79255 0.65662 0.41944 0.0
N1302 N 0.95212 0.54999 0.40042 0.0
N1303 N 0.83401 0.64554 0.41038 0.0
H1304 H 0.44435 0.33164 0.16594 0.0
H1305 H 0.79369 0.25489 0.15501 0.0
H1306 H 0.54576 0.23833 0.1925 0.0
H1307 H 0.67268 0.31686 0.12662 0.0
H1308 H 0.70286 0.23761 0.16818 0.0
H1309 H 0.5247 0.31584 0.15056 0.0
C1310 C 0.48298 0.30656 0.16839 0.0
C1311 C 0.48846 0.28592 0.18042 0.0
C1312 C 0.69618 0.25381 0.15894 0.0
C1313 C 0.58246 0.26948 0.16309 0.0
C1314 C 0.74792 0.26338 0.15144 0.0
C1315 C 0.74032 0.28761 0.1398 0.0
C1316 C 0.63706 0.26894 0.15472 0.0
C1317 C 0.68033 0.29851 0.1356 0.0
C1318 C 0.52918 0.29774 0.15965 0.0
C1319 C 0.53984 0.25444 0.18325 0.0
N1320 N 0.63125 0.28969 0.14309 0.0
N1321 N 0.58565 0.24798 0.17472 0.0
H1322 H 0.21636 0.42899 0.18843 0.0
H1323 H 0.0292 0.26548 0.13657 0.0
H1324 H 0.23042 0.26071 0.18586 0.0
H1325 H 0.00655 0.43091 0.1437 0.0
H1326 H 0.105 0.26121 0.15379 0.0
H1327 H 0.13866 0.42841 0.17197 0.0
C1328 C 0.20212 0.39167 0.18454 0.0
C1329 C 0.22972 0.34483 0.18863 0.0
C1330 C 0.08353 0.2984 0.15152 0.0
C1331 C 0.14128 0.34383 0.16929 0.0
C1332 C 0.04079 0.301 0.14159 0.0
C1333 C 0.01123 0.34866 0.13862 0.0
C1334 C 0.09709 0.34384 0.15848 0.0
C1335 C 0.02764 0.3932 0.14562 0.0
C1336 C 0.15795 0.39134 0.17504 0.0
C1337 C 0.2097 0.29767 0.18313 0.0
N1338 N 0.06903 0.38962 0.15514 0.0
N1339 N 0.16718 0.29839 0.17365 0.0
H1340 H 0.51487 0.53036 0.63787 0.0
H1341 H 0.71574 0.36791 0.68777 0.0
H1342 H 0.50232 0.36365 0.64412 0.0
H1343 H 0.71637 0.53696 0.68727 0.0
H1344 H 0.63823 0.3678 0.67134 0.0
H1345 H 0.59168 0.5359 0.65492 0.0
C1346 C 0.52902 0.49492 0.64266 0.0
C1347 C 0.50231 0.44644 0.63952 0.0
C1348 C 0.65458 0.40516 0.67482 0.0
C1349 C 0.58885 0.45254 0.65911 0.0
C1350 C 0.69877 0.40519 0.68428 0.0
C1351 C 0.72236 0.45248 0.68893 0.0
C1352 C 0.63383 0.45286 0.66973 0.0
C1353 C 0.69878 0.49964 0.68403 0.0
C1354 C 0.57218 0.49818 0.65248 0.0
C1355 C 0.52136 0.40191 0.64622 0.0
N1356 N 0.65613 0.49869 0.67458 0.0
N1357 N 0.56312 0.40609 0.65562 0.0
H1358 H 0.27353 0.53139 0.65163 0.0
H1359 H 0.93917 0.42984 0.67073 0.0
H1360 H 0.1617 0.42317 0.63052 0.0
H1361 H 0.04176 0.53846 0.69345 0.0
H1362 H 0.01418 0.44084 0.65415 0.0
H1363 H 0.18481 0.54756 0.66546 0.0
C1364 C 0.2301 0.51181 0.64981 0.0
C1365 C 0.22504 0.47507 0.64014 0.0
C1366 C 0.0203 0.46299 0.66267 0.0
C1367 C 0.12419 0.49338 0.65568 0.0
C1368 C 0.97724 0.45678 0.6721 0.0
C1369 C 0.98476 0.48311 0.68342 0.0
C1370 C 0.07241 0.49474 0.66468 0.0
C1371 C 0.03466 0.51758 0.68481 0.0
C1372 C 0.17966 0.52091 0.65768 0.0
C1373 C 0.16792 0.45087 0.63807 0.0
N1374 N 0.07749 0.52176 0.67561 0.0
N1375 N 0.12011 0.46014 0.64581 0.0
H1376 H 0.29396 0.45677 0.54619 0.0
H1377 H 0.24773 0.15011 0.53021 0.0
H1378 H 0.27306 0.33588 0.57375 0.0
H1379 H 0.25426 0.27073 0.50222 0.0
H1380 H 0.26094 0.21758 0.54628 0.0
H1381 H 0.28008 0.3902 0.52981 0.0
C1382 C 0.28567 0.41643 0.54886 0.0
C1383 C 0.28536 0.40212 0.56153 0.0
C1384 C 0.26007 0.22934 0.53658 0.0
C1385 C 0.26991 0.3252 0.54276 0.0
C1386 C 0.25296 0.19063 0.52737 0.0
C1387 C 0.25016 0.20436 0.51469 0.0
C1388 C 0.26466 0.28257 0.53317 0.0
C1389 C 0.25701 0.25783 0.51172 0.0
C1390 C 0.2781 0.37828 0.5395 0.0
C1391 C 0.27393 0.34909 0.56428 0.0
N1392 N 0.26361 0.29479 0.52081 0.0
N1393 N 0.26727 0.31277 0.55509 0.0
H1394 H 0.90986 0.92237 0.54705 0.0
H1395 H 0.12933 0.16476 0.53066 0.0
H1396 H 0.08948 0.94387 0.5631 0.0
H1397 H 0.94986 0.14328 0.51446 0.0
H1398 H 0.11218 0.08854 0.54401 0.0
H1399 H 0.92665 0.9987 0.53368 0.0
C1400 C 0.95421 0.94156 0.54737 0.0
C1401 C 0.99574 0.92991 0.55707 0.0
C1402 C 0.07594 0.10081 0.53766 0.0
C1403 C 0.0162 0.01715 0.54178 0.0
C1404 C 0.08479 0.14579 0.53034 0.0
C1405 C 0.04327 0.15765 0.52064 0.0
C1406 C 0.02282 0.07004 0.53583 0.0
C1407 C 0.98485 0.13367 0.52133 0.0
C1408 C 0.96297 0.98646 0.54001 0.0
C1409 C 0.05435 0.95352 0.55626 0.0
N1410 N 0.97745 0.08917 0.52823 0.0
N1411 N 0.06173 0.99794 0.54933 0.0
H1412 H 0.13834 0.9416 0.76064 0.0
H1413 H 0.23635 0.16169 0.80999 0.0
H1414 H 0.31462 0.94329 0.77901 0.0
H1415 H 0.06499 0.1632 0.78972 0.0
H1416 H 0.26903 0.08499 0.79806 0.0
H1417 H 0.10604 0.01648 0.77322 0.0
C1418 C 0.16928 0.95566 0.76786 0.0
C1419 C 0.23121 0.93897 0.76801 0.0
C1420 C 0.22457 0.10255 0.79604 0.0
C1421 C 0.19515 0.02531 0.78237 0.0
C1422 C 0.20679 0.14794 0.8025 0.0
C1423 C 0.146 0.16705 0.80146 0.0
C1424 C 0.18232 0.07805 0.78795 0.0
C1425 C 0.11105 0.14824 0.79133 0.0
C1426 C 0.15163 1.00008 0.77468 0.0
C1427 C 0.26762 0.95707 0.778 0.0
N1428 N 0.12821 0.10331 0.78538 0.0
N1429 N 0.25062 1.0012 0.78432 0.0
H1430 H 0.96646 0.1603 0.80039 0.0
H1431 H 0.92434 0.46445 0.78187 0.0
H1432 H 0.91873 0.27888 0.82713 0.0
H1433 H 0.94157 0.33969 0.75514 0.0
H1434 H 0.92907 0.399 0.7987 0.0
H1435 H 0.95862 0.22566 0.78376 0.0
C1436 C 0.95361 0.20006 0.80279 0.0
C1437 C 0.94532 0.21446 0.81532 0.0
C1438 C 0.93226 0.38598 0.78913 0.0
C1439 C 0.93712 0.29044 0.79617 0.0
C1440 C 0.93021 0.42347 0.77949 0.0
C1441 C 0.93211 0.40791 0.76691 0.0
C1442 C 0.93709 0.33224 0.78625 0.0
C1443 C 0.9399 0.35402 0.76454 0.0
C1444 C 0.9497 0.23767 0.79326 0.0
C1445 C 0.92804 0.26667 0.8177 0.0
N1446 N 0.94172 0.31841 0.77403 0.0
N1447 N 0.9253 0.30284 0.8083 0.0
H1448 H 0.75219 0.64328 0.52759 0.0
H1449 H 0.7911 0.94972 0.54507 0.0
H1450 H 0.74686 0.76824 0.50071 0.0
H1451 H 0.78349 0.8262 0.57232 0.0
H1452 H 0.77646 0.88388 0.52859 0.0
H1453 H 0.76778 0.70892 0.54411 0.0
C1454 C 0.75555 0.68432 0.52506 0.0
C1455 C 0.74894 0.69979 0.51254 0.0
C1456 C 0.77737 0.87119 0.53822 0.0
C1457 C 0.76595 0.77577 0.53152 0.0
C1458 C 0.78529 0.90896 0.54766 0.0
C1459 C 0.78808 0.89394 0.56026 0.0
C1460 C 0.77232 0.81761 0.54133 0.0
C1461 C 0.78077 0.84018 0.56291 0.0
C1462 C 0.76396 0.72194 0.53453 0.0
C1463 C 0.75303 0.75385 0.51 0.0
N1464 N 0.77367 0.80421 0.55361 0.0
N1465 N 0.76094 0.78959 0.51931 0.0
H1466 H 0.73552 0.90984 0.24793 0.0
H1467 H 0.81304 0.02196 0.31542 0.0
H1468 H 0.83655 0.82282 0.27583 0.0
H1469 H 0.65079 0.07143 0.29529 0.0
H1470 H 0.83695 0.9607 0.29857 0.0
H1471 H 0.71014 0.97596 0.26367 0.0
C1472 C 0.7523 0.90444 0.25736 0.0
C1473 C 0.79105 0.86194 0.2604 0.0
C1474 C 0.797 0.98603 0.29768 0.0
C1475 C 0.76397 0.93858 0.27826 0.0
C1476 C 0.7843 0.02203 0.30713 0.0
C1477 C 0.73082 0.05306 0.30661 0.0
C1478 C 0.75593 0.98103 0.2876 0.0
C1479 C 0.6936 0.0498 0.29589 0.0
C1480 C 0.7382 0.94251 0.2663 0.0
C1481 C 0.8092 0.8562 0.2729 0.0
N1482 N 0.70655 0.01407 0.28684 0.0
N1483 N 0.79699 0.89478 0.28129 0.0
H1484 H 0.13814 0.61386 0.29333 0.0
H1485 H 0.93246 0.86334 0.27436 0.0
H1486 H 0.96453 0.64967 0.31021 0.0
H1487 H 0.10774 0.8288 0.25818 0.0
H1488 H 0.94654 0.78986 0.28894 0.0
H1489 H 0.12493 0.6889 0.27928 0.0
C1490 C 0.09634 0.63651 0.29382 0.0
C1491 C 0.05529 0.62827 0.30366 0.0
C1492 C 0.9824 0.79848 0.28226 0.0
C1493 C 0.03847 0.71391 0.2876 0.0
C1494 C 0.97488 0.84123 0.27414 0.0
C1495 C 0.01531 0.84772 0.26413 0.0
C1496 C 0.03383 0.7652 0.28088 0.0
C1497 C 0.07307 0.82262 0.26526 0.0
C1498 C 0.08924 0.68016 0.28598 0.0
C1499 C -0.00107 0.65592 0.30308 0.0
N1500 N 0.07931 0.78026 0.27292 0.0
N1501 N 0.99332 0.69904 0.29564 0.0
H1502 H 0.3463 0.85841 0.0467 0.0
H1503 H 0.13454 0.61049 1.03072 0.0
H1504 H 0.15723 0.84434 0.05779 0.0
H1505 H 0.30518 0.63904 1.01217 0.0
H1506 H 0.14948 0.6906 0.04304 0.0
H1507 H 0.33435 0.78059 1.03356 0.0
C1508 C 0.30118 0.84048 0.04598 0.0
C1509 C 0.25464 0.85431 0.05446 0.0
C1510 C 0.18403 0.67934 1.0363 0.0
C1511 C 0.24 0.76573 0.03932 0.0
C1512 C 0.17589 0.63296 1.02944 0.0
C1513 C 0.21459 0.62161 1.0194 0.0
C1514 C 0.23472 0.71199 1.03374 0.0
C1515 C 0.27179 0.64811 1.01932 0.0
C1516 C 0.29504 0.79481 0.03875 0.0
C1517 C 0.19594 0.83268 0.05208 0.0
N1518 N 0.27885 0.6937 1.02584 0.0
N1519 N 0.19105 0.78734 0.0454 0.0
H1520 H 0.97442 0.52324 1.00504 0.0
H1521 H 0.00601 0.46823 0.07828 0.0
H1522 H 0.02933 0.64467 1.03044 0.0
H1523 H 0.01504 0.3465 0.0508 0.0
H1524 H 0.00932 0.53449 0.06158 0.0
H1525 H 0.97572 0.45984 1.0221 0.0
C1526 C 0.98755 0.5366 1.01416 0.0
C1527 C 0.00603 0.58892 1.01597 0.0
C1528 C 0.00981 0.49326 0.05917 0.0
C1529 C 0.00498 0.51629 1.03605 0.0
C1530 C 0.00791 0.45541 0.06872 0.0
C1531 C 0.00524 0.40143 0.06602 0.0
C1532 C 0.0092 0.47727 0.04664 0.0
C1533 C 0.01204 0.38731 0.05342 0.0
C1534 C 0.98805 0.50023 1.02399 0.0
C1535 C 0.01711 0.60443 1.02838 0.0
N1536 N 0.01223 0.42466 0.04424 0.0
N1537 N 0.01717 0.56837 0.03788 0.0
H1538 H 0.28824 0.5209 0.32198 0.0
H1539 H 0.29394 0.46792 0.24929 0.0
H1540 H 0.24417 0.64289 0.29584 0.0
H1541 H 0.24626 0.3458 0.2752 0.0
H1542 H 0.28791 0.53216 0.26584 0.0
H1543 H 0.29055 0.45699 0.30501 0.0
C1544 C 0.27846 0.53424 0.31269 0.0
C1545 C 0.26196 0.58691 0.3106 0.0
C1546 C 0.2778 0.49149 0.26791 0.0
C1547 C 0.26752 0.51397 0.29072 0.0
C1548 C 0.27998 0.45439 0.25831 0.0
C1549 C 0.26868 0.40068 0.2605 0.0
C1550 C 0.26611 0.4753 0.28013 0.0
C1551 C 0.25465 0.38646 0.27286 0.0
C1552 C 0.27996 0.49764 0.30295 0.0
C1553 C 0.25484 0.60246 0.29809 0.0
N1554 N 0.25454 0.42324 0.28218 0.0
N1555 N 0.25713 0.56624 0.28867 0.0
H1556 H 0.64918 0.21067 1.00572 0.0
H1557 H 0.92302 0.3126 0.04817 0.0
H1558 H 0.82493 0.13209 1.00753 0.0
H1559 H 0.73798 0.37207 0.05006 0.0
H1560 H 0.89593 0.26131 1.02999 0.0
H1561 H 0.68657 0.27812 1.01928 0.0
C1562 C 0.69556 0.20672 1.00911 0.0
C1563 C 0.7331 0.16436 1.00551 0.0
C1564 C 0.86172 0.28716 1.03401 0.0
C1565 C 0.77784 0.24423 1.02127 0.0
C1566 C 0.87807 0.31877 0.04412 0.0
C1567 C 0.83384 0.34908 0.05046 0.0
C1568 C 0.80009 0.28526 1.03016 0.0
C1569 C 0.7742 0.35066 0.04535 0.0
C1570 C 0.71724 0.24616 1.01687 0.0
C1571 C 0.79369 0.16322 1.0102 0.0
N1572 N 0.7588 0.31841 1.03569 0.0
N1573 N 0.81425 0.20263 1.01787 0.0
H1574 H 0.79926 0.66109 0.81117 0.0
H1575 H 0.63427 0.46827 0.76276 0.0
H1576 H 0.61434 0.68551 0.79805 0.0
H1577 H 0.80938 0.4366 0.77982 0.0
H1578 H 0.62177 0.5446 0.77629 0.0
H1579 H 0.80857 0.58532 0.79738 0.0
C1580 C 0.76141 0.65238 0.80487 0.0
C1581 C 0.70359 0.67641 0.80669 0.0
C1582 C 0.66291 0.52073 0.77721 0.0
C1583 C 0.71342 0.58941 0.79094 0.0
C1584 C 0.669 0.47557 0.76984 0.0
C1585 C 0.72616 0.4492 0.76928 0.0
C1586 C 0.71277 0.53691 0.7847 0.0
C1587 C 0.7672 0.45882 0.77916 0.0
C1588 C 0.76589 0.60746 0.79739 0.0
C1589 C 0.658 0.66517 0.79774 0.0
N1590 N 0.76182 0.50369 0.78599 0.0
N1591 N 0.66225 0.62066 0.79073 0.0
H1592 H 0.45185 0.10284 1.01908 0.0
H1593 H 0.53555 0.84546 0.05421 0.0
H1594 H 0.6426 0.06549 1.02612 0.0
H1595 H 0.39042 0.94407 0.06842 0.0
H1596 H 0.57133 0.92045 0.04152 0.0
H1597 H 0.42232 0.04295 1.03595 0.0
C1598 C 0.48765 0.08443 1.02466 0.0
C1599 C 0.54976 0.08967 1.02133 0.0
C1600 C 0.53134 0.9251 0.04742 0.0
C1601 C 0.51631 0.01804 0.03981 0.0
C1602 C 0.51067 0.88231 0.05453 0.0
C1603 C 0.45875 0.8878 0.06214 0.0
C1604 C 0.4989 0.97302 0.04778 0.0
C1605 C 0.42888 0.93685 0.06239 0.0
C1606 C 0.47079 0.04923 1.03406 0.0
C1607 C 0.59423 0.06308 1.02855 0.0
N1608 N 0.44871 0.97717 0.05521 0.0
N1609 N 0.57667 0.02696 0.03716 0.0
H1610 H 0.44138 0.16147 0.32486 0.0
H1611 H 0.54711 0.34162 0.26736 0.0
H1612 H 0.61048 0.14499 0.30449 0.0
H1613 H 0.36328 0.34837 0.28205 0.0
H1614 H 0.57649 0.28238 0.28424 0.0
H1615 H 0.41275 0.23595 0.31121 0.0
C1616 C 0.47123 0.17202 0.31721 0.0
C1617 C 0.52748 0.14556 0.31554 0.0
C1618 C 0.52995 0.29786 0.28402 0.0
C1619 C 0.49703 0.23237 0.30036 0.0
C1620 C 0.51373 0.33337 0.27458 0.0
C1621 C 0.45224 0.34971 0.2731 0.0
C1622 C 0.48449 0.27891 0.29218 0.0
C1623 C 0.41105 0.33667 0.28273 0.0
C1624 C 0.45554 0.21516 0.30958 0.0
C1625 C 0.5655 0.16237 0.30577 0.0
N1626 N 0.42711 0.3007 0.29161 0.0
N1627 N 0.54997 0.20459 0.29868 0.0
H1628 H 0.49067 0.65582 0.79635 0.0
H1629 H 0.43787 0.96088 0.77921 0.0
H1630 H 0.50627 0.78149 0.82286 0.0
H1631 H 0.45116 0.83878 0.75171 0.0
H1632 H 0.45772 0.89531 0.79552 0.0
H1633 H 0.46953 0.72115 0.77994 0.0
C1634 C 0.48825 0.69697 0.79882 0.0
C1635 C 0.49859 0.71286 0.81119 0.0
C1636 C 0.45696 0.8829 0.78587 0.0
C1637 C 0.47539 0.78824 0.79239 0.0
C1638 C 0.44596 0.9205 0.77653 0.0
C1639 C 0.44373 0.90579 0.76391 0.0
C1640 C 0.46526 0.82977 0.78266 0.0
C1641 C 0.4538 0.85249 0.76115 0.0
C1642 C 0.47666 0.73436 0.78942 0.0
C1643 C 0.49613 0.76698 0.81369 0.0
N1644 N 0.46372 0.81659 0.77037 0.0
N1645 N 0.48492 0.80246 0.80446 0.0
H1646 H 0.40709 0.43546 0.54734 0.0
H1647 H 0.63257 0.66836 0.52684 0.0
H1648 H 0.58682 0.45849 0.56328 0.0
H1649 H 0.44916 0.64904 0.51239 0.0
H1650 H 0.61512 0.59567 0.54126 0.0
H1651 H 0.42535 0.50856 0.53306 0.0
C1652 C 0.45169 0.45413 0.54745 0.0
C1653 C 0.49357 0.44291 0.55711 0.0
C1654 C 0.57811 0.60776 0.53508 0.0
C1655 C 0.51533 0.52742 0.54089 0.0
C1656 C 0.5874 0.65068 0.5271 0.0
C1657 C 0.54404 0.66254 0.51774 0.0
C1658 C 0.52328 0.57852 0.53414 0.0
C1659 C 0.48512 0.63991 0.51909 0.0
C1660 C 0.46142 0.49722 0.53955 0.0
C1661 C 0.55201 0.4669 0.55628 0.0
N1662 N 0.47734 0.59732 0.52663 0.0
N1663 N 0.56022 0.50955 0.54878 0.0
loop_
_geom_bond_atom_site_label_1
_geom_bond_atom_site_label_2
_geom_bond_distance
_geom_bond_site_symmetry_2
_ccdc_geom_bond_type
Fe0 O1 1.886 . S
Fe0 O4 1.715 . S
Fe0 O9 2.077 . S
Fe0 O14 1.935 . S
Fe0 O20 2.077 . S
Fe0 O29 1.935 . S
O1 Fe0 1.886 . S
O1 Fe3 1.715 . S
Fe2 O4 1.886 . S
Fe2 O5 1.715 . S
Fe2 O12 1.935 . S
Fe2 O13 2.077 . S
Fe2 O19 1.935 . S
Fe2 O28 2.077 . S
Fe3 O1 1.715 . S
Fe3 O6 1.886 . S
Fe3 O10 1.935 . S
Fe3 O15 2.077 . S
Fe3 O21 1.935 . S
Fe3 O25 2.077 . S
O4 Fe0 1.715 . S
O4 Fe2 1.886 . S
O5 Fe2 1.715 . S
O5 Fe7 1.886 . S
O6 Fe3 1.886 . S
O6 Fe7 1.715 . S
Fe7 O5 1.886 . S
Fe7 O6 1.715 . S
Fe7 O11 2.077 1_545 S
Fe7 O16 1.935 . S
Fe7 O18 2.077 . S
Fe7 O26 1.935 . S
C8 O20 1.381 . S
C8 O21 1.421 . S
O9 Fe0 2.077 . S
O9 C22 1.381 . S
O10 Fe3 1.935 . S
O10 C22 1.421 . S
O11 Fe7 2.077 1_565 S
O11 C27 1.381 . S
O12 Fe2 1.935 . S
O12 C27 1.421 1_545 S
O13 Fe2 2.077 . S
O13 C17 1.381 . S
O14 Fe0 1.935 . S
O14 C17 1.421 . S
O15 Fe3 2.077 . S
O15 C23 1.381 . S
O16 Fe7 1.935 . S
O16 C23 1.421 . S
C17 O13 1.381 . S
C17 O14 1.421 . S
O18 Fe7 2.077 . S
O18 C30 1.381 . S
O19 Fe2 1.935 . S
O19 C30 1.421 . S
O20 Fe0 2.077 . S
O20 C8 1.381 . S
O21 Fe3 1.935 . S
O21 C8 1.421 . S
C22 O9 1.381 . S
C22 O10 1.421 . S
C23 O15 1.381 . S
C23 O16 1.421 . S
C24 O25 1.381 . S
C24 O26 1.421 . S
O25 Fe3 2.077 . S
O25 C24 1.381 . S
O26 Fe7 1.935 . S
O26 C24 1.421 . S
C27 O11 1.381 . S
C27 O12 1.421 1_565 S
O28 Fe2 2.077 . S
O28 C31 1.381 . S
O29 Fe0 1.935 . S
O29 C31 1.421 . S
C30 O18 1.381 . S
C30 O19 1.421 . S
C31 O28 1.381 . S
C31 O29 1.421 . S
Fe32 O33 1.886 . S
Fe32 O36 1.715 . S
Fe32 O41 2.077 . S
Fe32 O46 1.935 . S
Fe32 O52 2.077 . S
Fe32 O61 1.935 . S
O33 Fe32 1.886 . S
O33 Fe35 1.715 . S
Fe34 O36 1.886 . S
Fe34 O37 1.715 . S
Fe34 O44 1.935 . S
Fe34 O45 2.077 . S
Fe34 O51 1.935 . S
Fe34 O60 2.077 . S
Fe35 O33 1.715 . S
Fe35 O38 1.886 . S
Fe35 O42 1.935 . S
Fe35 O47 2.077 . S
Fe35 O53 1.935 . S
Fe35 O57 2.077 . S
O36 Fe32 1.715 . S
O36 Fe34 1.886 . S
O37 Fe34 1.715 . S
O37 Fe39 1.886 . S
O38 Fe35 1.886 . S
O38 Fe39 1.715 . S
Fe39 O37 1.886 . S
Fe39 O38 1.715 . S
Fe39 O43 2.077 1_545 S
Fe39 O48 1.935 . S
Fe39 O50 2.077 . S
Fe39 O58 1.935 . S
C40 O52 1.381 . S
C40 O53 1.421 . S
O41 Fe32 2.077 . S
O41 C54 1.381 . S
O42 Fe35 1.935 . S
O42 C54 1.421 . S
O43 Fe39 2.077 1_565 S
O43 C59 1.381 . S
O44 Fe34 1.935 . S
O44 C59 1.421 1_545 S
O45 Fe34 2.077 . S
O45 C49 1.381 . S
O46 Fe32 1.935 . S
O46 C49 1.421 . S
O47 Fe35 2.077 . S
O47 C55 1.381 . S
O48 Fe39 1.935 . S
O48 C55 1.421 . S
C49 O45 1.381 . S
C49 O46 1.421 . S
O50 Fe39 2.077 . S
O50 C62 1.381 . S
O51 Fe34 1.935 . S
O51 C62 1.421 . S
O52 Fe32 2.077 . S
O52 C40 1.381 . S
O53 Fe35 1.935 . S
O53 C40 1.421 . S
C54 O41 1.381 . S
C54 O42 1.421 . S
C55 O47 1.381 . S
C55 O48 1.421 . S
C56 O57 1.381 . S
C56 O58 1.421 . S
O57 Fe35 2.077 . S
O57 C56 1.381 . S
O58 Fe39 1.935 . S
O58 C56 1.421 . S
C59 O43 1.381 . S
C59 O44 1.421 1_565 S
O60 Fe34 2.077 . S
O60 C63 1.381 . S
O61 Fe32 1.935 . S
O61 C63 1.421 . S
C62 O50 1.381 . S
C62 O51 1.421 . S
C63 O60 1.381 . S
C63 O61 1.421 . S
Fe64 O65 1.886 . S
Fe64 O68 1.715 . S
Fe64 O73 2.077 . S
Fe64 O78 1.935 . S
Fe64 O84 2.077 . S
Fe64 O93 1.935 . S
O65 Fe64 1.886 . S
O65 Fe67 1.715 . S
Fe66 O68 1.886 . S
Fe66 O69 1.715 . S
Fe66 O76 1.935 . S
Fe66 O77 2.077 . S
Fe66 O83 1.935 . S
Fe66 O92 2.077 1_565 S
Fe67 O65 1.715 . S
Fe67 O70 1.886 . S
Fe67 O74 1.935 . S
Fe67 O79 2.077 . S
Fe67 O85 1.935 . S
Fe67 O89 2.077 . S
O68 Fe64 1.715 . S
O68 Fe66 1.886 . S
O69 Fe66 1.715 . S
O69 Fe71 1.886 . S
O70 Fe67 1.886 . S
O70 Fe71 1.715 . S
Fe71 O69 1.886 . S
Fe71 O70 1.715 . S
Fe71 O75 2.077 . S
Fe71 O80 1.935 . S
Fe71 O82 2.077 . S
Fe71 O90 1.935 . S
C72 O84 1.381 . S
C72 O85 1.421 . S
O73 Fe64 2.077 . S
O73 C86 1.381 . S
O74 Fe67 1.935 . S
O74 C86 1.421 . S
O75 Fe71 2.077 . S
O75 C91 1.381 . S
O76 Fe66 1.935 . S
O76 C91 1.421 . S
O77 Fe66 2.077 . S
O77 C81 1.381 . S
O78 Fe64 1.935 . S
O78 C81 1.421 . S
O79 Fe67 2.077 . S
O79 C87 1.381 . S
O80 Fe71 1.935 . S
O80 C87 1.421 . S
C81 O77 1.381 . S
C81 O78 1.421 . S
O82 Fe71 2.077 . S
O82 C94 1.381 . S
O83 Fe66 1.935 . S
O83 C94 1.421 . S
O84 Fe64 2.077 . S
O84 C72 1.381 . S
O85 Fe67 1.935 . S
O85 C72 1.421 . S
C86 O73 1.381 . S
C86 O74 1.421 . S
C87 O79 1.381 . S
C87 O80 1.421 . S
C88 O89 1.381 . S
C88 O90 1.421 . S
O89 Fe67 2.077 . S
O89 C88 1.381 . S
O90 Fe71 1.935 . S
O90 C88 1.421 . S
C91 O75 1.381 . S
C91 O76 1.421 . S
O92 Fe66 2.077 1_545 S
O92 C95 1.381 . S
O93 Fe64 1.935 . S
O93 C95 1.421 1_565 S
C94 O82 1.381 . S
C94 O83 1.421 . S
C95 O92 1.381 . S
C95 O93 1.421 1_545 S
Fe96 O97 1.886 . S
Fe96 O100 1.715 . S
Fe96 O105 2.077 . S
Fe96 O110 1.935 . S
Fe96 O116 2.077 . S
Fe96 O125 1.935 . S
O97 Fe96 1.886 . S
O97 Fe99 1.715 . S
Fe98 O100 1.886 . S
Fe98 O101 1.715 . S
Fe98 O108 1.935 . S
Fe98 O109 2.077 1_565 S
Fe98 O115 1.935 . S
Fe98 O124 2.077 . S
Fe99 O97 1.715 . S
Fe99 O102 1.886 . S
Fe99 O106 1.935 . S
Fe99 O111 2.077 . S
Fe99 O117 1.935 . S
Fe99 O121 2.077 . S
O100 Fe96 1.715 . S
O100 Fe98 1.886 . S
O101 Fe98 1.715 . S
O101 Fe103 1.886 . S
O102 Fe99 1.886 . S
O102 Fe103 1.715 . S
Fe103 O101 1.886 . S
Fe103 O102 1.715 . S
Fe103 O107 2.077 . S
Fe103 O112 1.935 . S
Fe103 O114 2.077 . S
Fe103 O122 1.935 . S
C104 O116 1.381 . S
C104 O117 1.421 . S
O105 Fe96 2.077 . S
O105 C118 1.381 . S
O106 Fe99 1.935 . S
O106 C118 1.421 . S
O107 Fe103 2.077 . S
O107 C123 1.381 . S
O108 Fe98 1.935 . S
O108 C123 1.421 . S
O109 Fe98 2.077 1_545 S
O109 C113 1.381 . S
O110 Fe96 1.935 . S
O110 C113 1.421 1_565 S
O111 Fe99 2.077 . S
O111 C119 1.381 . S
O112 Fe103 1.935 . S
O112 C119 1.421 . S
C113 O109 1.381 . S
C113 O110 1.421 1_545 S
O114 Fe103 2.077 . S
O114 C126 1.381 . S
O115 Fe98 1.935 . S
O115 C126 1.421 . S
O116 Fe96 2.077 . S
O116 C104 1.381 . S
O117 Fe99 1.935 . S
O117 C104 1.421 . S
C118 O105 1.381 . S
C118 O106 1.421 . S
C119 O111 1.381 . S
C119 O112 1.421 . S
C120 O121 1.381 . S
C120 O122 1.421 . S
O121 Fe99 2.077 . S
O121 C120 1.381 . S
O122 Fe103 1.935 . S
O122 C120 1.421 . S
C123 O107 1.381 . S
C123 O108 1.421 . S
O124 Fe98 2.077 . S
O124 C127 1.381 . S
O125 Fe96 1.935 . S
O125 C127 1.421 . S
C126 O114 1.381 . S
C126 O115 1.421 . S
C127 O124 1.381 . S
C127 O125 1.421 . S
Fe128 O129 1.886 . S
Fe128 O132 1.715 . S
Fe128 O137 2.077 . S
Fe128 O142 1.935 . S
Fe128 O148 2.077 . S
Fe128 O157 1.935 . S
O129 Fe128 1.886 . S
O129 Fe131 1.715 . S
Fe130 O132 1.886 . S
Fe130 O133 1.715 . S
Fe130 O140 1.935 . S
Fe130 O141 2.077 . S
Fe130 O147 1.935 . S
Fe130 O156 2.077 . S
Fe131 O129 1.715 . S
Fe131 O134 1.886 . S
Fe131 O138 1.935 . S
Fe131 O143 2.077 . S
Fe131 O149 1.935 . S
Fe131 O153 2.077 . S
O132 Fe128 1.715 . S
O132 Fe130 1.886 . S
O133 Fe130 1.715 . S
O133 Fe135 1.886 . S
O134 Fe131 1.886 . S
O134 Fe135 1.715 . S
Fe135 O133 1.886 . S
Fe135 O134 1.715 . S
Fe135 O139 2.077 . S
Fe135 O144 1.935 . S
Fe135 O146 2.077 . S
Fe135 O154 1.935 . S
C136 O148 1.381 . S
C136 O149 1.421 . S
O137 Fe128 2.077 . S
O137 C150 1.381 . S
O138 Fe131 1.935 . S
O138 C150 1.421 . S
O139 Fe135 2.077 . S
O139 C155 1.381 . S
O140 Fe130 1.935 . S
O140 C155 1.421 . S
O141 Fe130 2.077 . S
O141 C145 1.381 . S
O142 Fe128 1.935 . S
O142 C145 1.421 . S
O143 Fe131 2.077 . S
O143 C151 1.381 . S
O144 Fe135 1.935 . S
O144 C151 1.421 . S
C145 O141 1.381 . S
C145 O142 1.421 . S
O146 Fe135 2.077 . S
O146 C158 1.381 . S
O147 Fe130 1.935 . S
O147 C158 1.421 . S
O148 Fe128 2.077 . S
O148 C136 1.381 . S
O149 Fe131 1.935 . S
O149 C136 1.421 . S
C150 O137 1.381 . S
C150 O138 1.421 . S
C151 O143 1.381 . S
C151 O144 1.421 . S
C152 O153 1.381 . S
C152 O154 1.421 . S
O153 Fe131 2.077 . S
O153 C152 1.381 . S
O154 Fe135 1.935 . S
O154 C152 1.421 . S
C155 O139 1.381 . S
C155 O140 1.421 . S
O156 Fe130 2.077 . S
O156 C159 1.381 . S
O157 Fe128 1.935 . S
O157 C159 1.421 . S
C158 O146 1.381 . S
C158 O147 1.421 . S
C159 O156 1.381 . S
C159 O157 1.421 . S
Fe160 O161 1.886 . S
Fe160 O164 1.715 . S
Fe160 O169 2.077 . S
Fe160 O174 1.935 . S
Fe160 O180 2.077 . S
Fe160 O189 1.935 . S
O161 Fe160 1.886 . S
O161 Fe163 1.715 . S
Fe162 O164 1.886 . S
Fe162 O165 1.715 . S
Fe162 O172 1.935 . S
Fe162 O173 2.077 . S
Fe162 O179 1.935 . S
Fe162 O188 2.077 . S
Fe163 O161 1.715 . S
Fe163 O166 1.886 . S
Fe163 O170 1.935 . S
Fe163 O175 2.077 . S
Fe163 O181 1.935 . S
Fe163 O185 2.077 . S
O164 Fe160 1.715 . S
O164 Fe162 1.886 . S
O165 Fe162 1.715 . S
O165 Fe167 1.886 . S
O166 Fe163 1.886 . S
O166 Fe167 1.715 . S
Fe167 O165 1.886 . S
Fe167 O166 1.715 . S
Fe167 O171 2.077 . S
Fe167 O176 1.935 . S
Fe167 O178 2.077 . S
Fe167 O186 1.935 . S
C168 O180 1.381 . S
C168 O181 1.421 . S
O169 Fe160 2.077 . S
O169 C182 1.381 . S
O170 Fe163 1.935 . S
O170 C182 1.421 . S
O171 Fe167 2.077 . S
O171 C187 1.381 . S
O172 Fe162 1.935 . S
O172 C187 1.421 . S
O173 Fe162 2.077 . S
O173 C177 1.381 . S
O174 Fe160 1.935 . S
O174 C177 1.421 . S
O175 Fe163 2.077 . S
O175 C183 1.381 . S
O176 Fe167 1.935 . S
O176 C183 1.421 . S
C177 O173 1.381 . S
C177 O174 1.421 . S
O178 Fe167 2.077 . S
O178 C190 1.381 . S
O179 Fe162 1.935 . S
O179 C190 1.421 . S
O180 Fe160 2.077 . S
O180 C168 1.381 . S
O181 Fe163 1.935 . S
O181 C168 1.421 . S
C182 O169 1.381 . S
C182 O170 1.421 . S
C183 O175 1.381 . S
C183 O176 1.421 . S
C184 O185 1.381 . S
C184 O186 1.421 . S
O185 Fe163 2.077 . S
O185 C184 1.381 . S
O186 Fe167 1.935 . S
O186 C184 1.421 . S
C187 O171 1.381 . S
C187 O172 1.421 . S
O188 Fe162 2.077 . S
O188 C191 1.381 . S
O189 Fe160 1.935 . S
O189 C191 1.421 . S
C190 O178 1.381 . S
C190 O179 1.421 . S
C191 O188 1.381 . S
C191 O189 1.421 . S
Fe192 O193 1.886 . S
Fe192 O196 1.715 . S
Fe192 O201 2.077 . S
Fe192 O206 1.935 . S
Fe192 O212 2.077 . S
Fe192 O221 1.935 . S
O193 Fe192 1.886 . S
O193 Fe195 1.715 . S
Fe194 O196 1.886 . S
Fe194 O197 1.715 . S
Fe194 O204 1.935 . S
Fe194 O205 2.077 . S
Fe194 O211 1.935 . S
Fe194 O220 2.077 . S
Fe195 O193 1.715 . S
Fe195 O198 1.886 . S
Fe195 O202 1.935 . S
Fe195 O207 2.077 . S
Fe195 O213 1.935 . S
Fe195 O217 2.077 . S
O196 Fe192 1.715 . S
O196 Fe194 1.886 . S
O197 Fe194 1.715 . S
O197 Fe199 1.886 . S
O198 Fe195 1.886 . S
O198 Fe199 1.715 . S
Fe199 O197 1.886 . S
Fe199 O198 1.715 . S
Fe199 O203 2.077 . S
Fe199 O208 1.935 . S
Fe199 O210 2.077 . S
Fe199 O218 1.935 . S
C200 O212 1.381 . S
C200 O213 1.421 . S
O201 Fe192 2.077 . S
O201 C214 1.381 . S
O202 Fe195 1.935 . S
O202 C214 1.421 . S
O203 Fe199 2.077 . S
O203 C219 1.381 . S
O204 Fe194 1.935 . S
O204 C219 1.421 . S
O205 Fe194 2.077 . S
O205 C209 1.381 . S
O206 Fe192 1.935 . S
O206 C209 1.421 . S
O207 Fe195 2.077 . S
O207 C215 1.381 . S
O208 Fe199 1.935 . S
O208 C215 1.421 . S
C209 O205 1.381 . S
C209 O206 1.421 . S
O210 Fe199 2.077 . S
O210 C222 1.381 . S
O211 Fe194 1.935 . S
O211 C222 1.421 . S
O212 Fe192 2.077 . S
O212 C200 1.381 . S
O213 Fe195 1.935 . S
O213 C200 1.421 . S
C214 O201 1.381 . S
C214 O202 1.421 . S
C215 O207 1.381 . S
C215 O208 1.421 . S
C216 O217 1.381 . S
C216 O218 1.421 . S
O217 Fe195 2.077 . S
O217 C216 1.381 . S
O218 Fe199 1.935 . S
O218 C216 1.421 . S
C219 O203 1.381 . S
C219 O204 1.421 . S
O220 Fe194 2.077 . S
O220 C223 1.381 . S
O221 Fe192 1.935 . S
O221 C223 1.421 . S
C222 O210 1.381 . S
C222 O211 1.421 . S
C223 O220 1.381 . S
C223 O221 1.421 . S
Fe224 O225 1.886 . S
Fe224 O228 1.715 . S
Fe224 O233 2.077 . S
Fe224 O238 1.935 . S
Fe224 O244 2.077 . S
Fe224 O253 1.935 . S
O225 Fe224 1.886 . S
O225 Fe227 1.715 . S
Fe226 O228 1.886 . S
Fe226 O229 1.715 . S
Fe226 O236 1.935 . S
Fe226 O237 2.077 . S
Fe226 O243 1.935 . S
Fe226 O252 2.077 . S
Fe227 O225 1.715 . S
Fe227 O230 1.886 . S
Fe227 O234 1.935 . S
Fe227 O239 2.077 . S
Fe227 O245 1.935 . S
Fe227 O249 2.077 . S
O228 Fe224 1.715 . S
O228 Fe226 1.886 . S
O229 Fe226 1.715 . S
O229 Fe231 1.886 . S
O230 Fe227 1.886 . S
O230 Fe231 1.715 . S
Fe231 O229 1.886 . S
Fe231 O230 1.715 . S
Fe231 O235 2.077 . S
Fe231 O240 1.935 . S
Fe231 O242 2.077 . S
Fe231 O250 1.935 . S
C232 O244 1.381 . S
C232 O245 1.421 . S
O233 Fe224 2.077 . S
O233 C246 1.381 . S
O234 Fe227 1.935 . S
O234 C246 1.421 . S
O235 Fe231 2.077 . S
O235 C251 1.381 . S
O236 Fe226 1.935 . S
O236 C251 1.421 . S
O237 Fe226 2.077 . S
O237 C241 1.381 . S
O238 Fe224 1.935 . S
O238 C241 1.421 . S
O239 Fe227 2.077 . S
O239 C247 1.381 . S
O240 Fe231 1.935 . S
O240 C247 1.421 . S
C241 O237 1.381 . S
C241 O238 1.421 . S
O242 Fe231 2.077 . S
O242 C254 1.381 . S
O243 Fe226 1.935 . S
O243 C254 1.421 . S
O244 Fe224 2.077 . S
O244 C232 1.381 . S
O245 Fe227 1.935 . S
O245 C232 1.421 . S
C246 O233 1.381 . S
C246 O234 1.421 . S
C247 O239 1.381 . S
C247 O240 1.421 . S
C248 O249 1.381 . S
C248 O250 1.421 . S
O249 Fe227 2.077 . S
O249 C248 1.381 . S
O250 Fe231 1.935 . S
O250 C248 1.421 . S
C251 O235 1.381 . S
C251 O236 1.421 . S
O252 Fe226 2.077 . S
O252 C255 1.381 . S
O253 Fe224 1.935 . S
O253 C255 1.421 . S
C254 O242 1.381 . S
C254 O243 1.421 . S
C255 O252 1.381 . S
C255 O253 1.421 . S
Fe256 O257 1.886 . S
Fe256 O260 1.715 . S
Fe256 O265 2.077 . S
Fe256 O270 1.935 . S
Fe256 O276 2.077 . S
Fe256 O285 1.935 . S
O257 Fe256 1.886 . S
O257 Fe259 1.715 . S
Fe258 O260 1.886 . S
Fe258 O261 1.715 . S
Fe258 O268 1.935 . S
Fe258 O269 2.077 . S
Fe258 O275 1.935 . S
Fe258 O284 2.077 . S
Fe259 O257 1.715 . S
Fe259 O262 1.886 . S
Fe259 O266 1.935 . S
Fe259 O271 2.077 . S
Fe259 O277 1.935 . S
Fe259 O281 2.077 . S
O260 Fe256 1.715 . S
O260 Fe258 1.886 . S
O261 Fe258 1.715 . S
O261 Fe263 1.886 . S
O262 Fe259 1.886 . S
O262 Fe263 1.715 . S
Fe263 O261 1.886 . S
Fe263 O262 1.715 . S
Fe263 O267 2.077 1_545 S
Fe263 O272 1.935 . S
Fe263 O274 2.077 . S
Fe263 O282 1.935 . S
C264 O276 1.381 . S
C264 O277 1.421 . S
O265 Fe256 2.077 . S
O265 C278 1.381 . S
O266 Fe259 1.935 . S
O266 C278 1.421 . S
O267 Fe263 2.077 1_565 S
O267 C283 1.381 . S
O268 Fe258 1.935 . S
O268 C283 1.421 1_545 S
O269 Fe258 2.077 . S
O269 C273 1.381 . S
O270 Fe256 1.935 . S
O270 C273 1.421 . S
O271 Fe259 2.077 . S
O271 C279 1.381 . S
O272 Fe263 1.935 . S
O272 C279 1.421 . S
C273 O269 1.381 . S
C273 O270 1.421 . S
O274 Fe263 2.077 . S
O274 C286 1.381 . S
O275 Fe258 1.935 . S
O275 C286 1.421 . S
O276 Fe256 2.077 . S
O276 C264 1.381 . S
O277 Fe259 1.935 . S
O277 C264 1.421 . S
C278 O265 1.381 . S
C278 O266 1.421 . S
C279 O271 1.381 . S
C279 O272 1.421 . S
C280 O281 1.381 . S
C280 O282 1.421 . S
O281 Fe259 2.077 . S
O281 C280 1.381 . S
O282 Fe263 1.935 . S
O282 C280 1.421 . S
C283 O267 1.381 . S
C283 O268 1.421 1_565 S
O284 Fe258 2.077 . S
O284 C287 1.381 . S
O285 Fe256 1.935 . S
O285 C287 1.421 . S
C286 O274 1.381 . S
C286 O275 1.421 . S
C287 O284 1.381 . S
C287 O285 1.421 . S
Fe288 O289 1.886 . S
Fe288 O292 1.715 . S
Fe288 O297 2.077 . S
Fe288 O302 1.935 . S
Fe288 O308 2.077 . S
Fe288 O317 1.935 . S
O289 Fe288 1.886 . S
O289 Fe291 1.715 . S
Fe290 O292 1.886 . S
Fe290 O293 1.715 . S
Fe290 O300 1.935 . S
Fe290 O301 2.077 . S
Fe290 O307 1.935 . S
Fe290 O316 2.077 . S
Fe291 O289 1.715 . S
Fe291 O294 1.886 . S
Fe291 O298 1.935 . S
Fe291 O303 2.077 . S
Fe291 O309 1.935 . S
Fe291 O313 2.077 . S
O292 Fe288 1.715 . S
O292 Fe290 1.886 . S
O293 Fe290 1.715 . S
O293 Fe295 1.886 . S
O294 Fe291 1.886 . S
O294 Fe295 1.715 . S
Fe295 O293 1.886 . S
Fe295 O294 1.715 . S
Fe295 O299 2.077 1_545 S
Fe295 O304 1.935 . S
Fe295 O306 2.077 . S
Fe295 O314 1.935 . S
C296 O308 1.381 . S
C296 O309 1.421 . S
O297 Fe288 2.077 . S
O297 C310 1.381 . S
O298 Fe291 1.935 . S
O298 C310 1.421 . S
O299 Fe295 2.077 1_565 S
O299 C315 1.381 . S
O300 Fe290 1.935 . S
O300 C315 1.421 1_545 S
O301 Fe290 2.077 . S
O301 C305 1.381 . S
O302 Fe288 1.935 . S
O302 C305 1.421 . S
O303 Fe291 2.077 . S
O303 C311 1.381 . S
O304 Fe295 1.935 . S
O304 C311 1.421 . S
C305 O301 1.381 . S
C305 O302 1.421 . S
O306 Fe295 2.077 . S
O306 C318 1.381 . S
O307 Fe290 1.935 . S
O307 C318 1.421 . S
O308 Fe288 2.077 . S
O308 C296 1.381 . S
O309 Fe291 1.935 . S
O309 C296 1.421 . S
C310 O297 1.381 . S
C310 O298 1.421 . S
C311 O303 1.381 . S
C311 O304 1.421 . S
C312 O313 1.381 . S
C312 O314 1.421 . S
O313 Fe291 2.077 . S
O313 C312 1.381 . S
O314 Fe295 1.935 . S
O314 C312 1.421 . S
C315 O299 1.381 . S
C315 O300 1.421 1_565 S
O316 Fe290 2.077 . S
O316 C319 1.381 . S
O317 Fe288 1.935 . S
O317 C319 1.421 . S
C318 O306 1.381 . S
C318 O307 1.421 . S
C319 O316 1.381 . S
C319 O317 1.421 . S
Fe320 O321 1.886 . S
Fe320 O324 1.715 . S
Fe320 O329 2.077 . S
Fe320 O334 1.935 . S
Fe320 O340 2.077 . S
Fe320 O349 1.935 . S
O321 Fe320 1.886 . S
O321 Fe323 1.715 . S
Fe322 O324 1.886 . S
Fe322 O325 1.715 . S
Fe322 O332 1.935 . S
Fe322 O333 2.077 . S
Fe322 O339 1.935 . S
Fe322 O348 2.077 1_565 S
Fe323 O321 1.715 . S
Fe323 O326 1.886 . S
Fe323 O330 1.935 . S
Fe323 O335 2.077 . S
Fe323 O341 1.935 . S
Fe323 O345 2.077 . S
O324 Fe320 1.715 . S
O324 Fe322 1.886 . S
O325 Fe322 1.715 . S
O325 Fe327 1.886 . S
O326 Fe323 1.886 . S
O326 Fe327 1.715 . S
Fe327 O325 1.886 . S
Fe327 O326 1.715 . S
Fe327 O331 2.077 . S
Fe327 O336 1.935 . S
Fe327 O338 2.077 . S
Fe327 O346 1.935 . S
C328 O340 1.381 . S
C328 O341 1.421 . S
O329 Fe320 2.077 . S
O329 C342 1.381 . S
O330 Fe323 1.935 . S
O330 C342 1.421 . S
O331 Fe327 2.077 . S
O331 C347 1.381 . S
O332 Fe322 1.935 . S
O332 C347 1.421 . S
O333 Fe322 2.077 . S
O333 C337 1.381 . S
O334 Fe320 1.935 . S
O334 C337 1.421 . S
O335 Fe323 2.077 . S
O335 C343 1.381 . S
O336 Fe327 1.935 . S
O336 C343 1.421 . S
C337 O333 1.381 . S
C337 O334 1.421 . S
O338 Fe327 2.077 . S
O338 C350 1.381 . S
O339 Fe322 1.935 . S
O339 C350 1.421 . S
O340 Fe320 2.077 . S
O340 C328 1.381 . S
O341 Fe323 1.935 . S
O341 C328 1.421 . S
C342 O329 1.381 . S
C342 O330 1.421 . S
C343 O335 1.381 . S
C343 O336 1.421 . S
C344 O345 1.381 . S
C344 O346 1.421 . S
O345 Fe323 2.077 . S
O345 C344 1.381 . S
O346 Fe327 1.935 . S
O346 C344 1.421 . S
C347 O331 1.381 . S
C347 O332 1.421 . S
O348 Fe322 2.077 1_545 S
O348 C351 1.381 . S
O349 Fe320 1.935 . S
O349 C351 1.421 1_565 S
C350 O338 1.381 . S
C350 O339 1.421 . S
C351 O348 1.381 . S
C351 O349 1.421 1_545 S
Fe352 O353 1.886 . S
Fe352 O356 1.715 . S
Fe352 O361 2.077 . S
Fe352 O366 1.935 . S
Fe352 O372 2.077 . S
Fe352 O381 1.935 . S
O353 Fe352 1.886 . S
O353 Fe355 1.715 . S
Fe354 O356 1.886 . S
Fe354 O357 1.715 . S
Fe354 O364 1.935 . S
Fe354 O365 2.077 1_565 S
Fe354 O371 1.935 . S
Fe354 O380 2.077 . S
Fe355 O353 1.715 . S
Fe355 O358 1.886 . S
Fe355 O362 1.935 . S
Fe355 O367 2.077 . S
Fe355 O373 1.935 . S
Fe355 O377 2.077 . S
O356 Fe352 1.715 . S
O356 Fe354 1.886 . S
O357 Fe354 1.715 . S
O357 Fe359 1.886 . S
O358 Fe355 1.886 . S
O358 Fe359 1.715 . S
Fe359 O357 1.886 . S
Fe359 O358 1.715 . S
Fe359 O363 2.077 . S
Fe359 O368 1.935 . S
Fe359 O370 2.077 . S
Fe359 O378 1.935 . S
C360 O372 1.381 . S
C360 O373 1.421 . S
O361 Fe352 2.077 . S
O361 C374 1.381 . S
O362 Fe355 1.935 . S
O362 C374 1.421 . S
O363 Fe359 2.077 . S
O363 C379 1.381 . S
O364 Fe354 1.935 . S
O364 C379 1.421 . S
O365 Fe354 2.077 1_545 S
O365 C369 1.381 . S
O366 Fe352 1.935 . S
O366 C369 1.421 1_565 S
O367 Fe355 2.077 . S
O367 C375 1.381 . S
O368 Fe359 1.935 . S
O368 C375 1.421 . S
C369 O365 1.381 . S
C369 O366 1.421 1_545 S
O370 Fe359 2.077 . S
O370 C382 1.381 . S
O371 Fe354 1.935 . S
O371 C382 1.421 . S
O372 Fe352 2.077 . S
O372 C360 1.381 . S
O373 Fe355 1.935 . S
O373 C360 1.421 . S
C374 O361 1.381 . S
C374 O362 1.421 . S
C375 O367 1.381 . S
C375 O368 1.421 . S
C376 O377 1.381 . S
C376 O378 1.421 . S
O377 Fe355 2.077 . S
O377 C376 1.381 . S
O378 Fe359 1.935 . S
O378 C376 1.421 . S
C379 O363 1.381 . S
C379 O364 1.421 . S
O380 Fe354 2.077 . S
O380 C383 1.381 . S
O381 Fe352 1.935 . S
O381 C383 1.421 . S
C382 O370 1.381 . S
C382 O371 1.421 . S
C383 O380 1.381 . S
C383 O381 1.421 . S
Fe384 O385 1.886 . S
Fe384 O388 1.715 . S
Fe384 O393 2.077 . S
Fe384 O398 1.935 . S
Fe384 O404 2.077 . S
Fe384 O413 1.935 . S
O385 Fe384 1.886 . S
O385 Fe387 1.715 . S
Fe386 O388 1.886 . S
Fe386 O389 1.715 . S
Fe386 O396 1.935 . S
Fe386 O397 2.077 . S
Fe386 O403 1.935 . S
Fe386 O412 2.077 . S
Fe387 O385 1.715 . S
Fe387 O390 1.886 . S
Fe387 O394 1.935 . S
Fe387 O399 2.077 . S
Fe387 O405 1.935 . S
Fe387 O409 2.077 . S
O388 Fe384 1.715 . S
O388 Fe386 1.886 . S
O389 Fe386 1.715 . S
O389 Fe391 1.886 . S
O390 Fe387 1.886 . S
O390 Fe391 1.715 . S
Fe391 O389 1.886 . S
Fe391 O390 1.715 . S
Fe391 O395 2.077 . S
Fe391 O400 1.935 . S
Fe391 O402 2.077 . S
Fe391 O410 1.935 . S
C392 O404 1.381 . S
C392 O405 1.421 . S
O393 Fe384 2.077 . S
O393 C406 1.381 . S
O394 Fe387 1.935 . S
O394 C406 1.421 . S
O395 Fe391 2.077 . S
O395 C411 1.381 . S
O396 Fe386 1.935 . S
O396 C411 1.421 . S
O397 Fe386 2.077 . S
O397 C401 1.381 . S
O398 Fe384 1.935 . S
O398 C401 1.421 . S
O399 Fe387 2.077 . S
O399 C407 1.381 . S
O400 Fe391 1.935 . S
O400 C407 1.421 . S
C401 O397 1.381 . S
C401 O398 1.421 . S
O402 Fe391 2.077 . S
O402 C414 1.381 . S
O403 Fe386 1.935 . S
O403 C414 1.421 . S
O404 Fe384 2.077 . S
O404 C392 1.381 . S
O405 Fe387 1.935 . S
O405 C392 1.421 . S
C406 O393 1.381 . S
C406 O394 1.421 . S
C407 O399 1.381 . S
C407 O400 1.421 . S
C408 O409 1.381 . S
C408 O410 1.421 . S
O409 Fe387 2.077 . S
O409 C408 1.381 . S
O410 Fe391 1.935 . S
O410 C408 1.421 . S
C411 O395 1.381 . S
C411 O396 1.421 . S
O412 Fe386 2.077 . S
O412 C415 1.381 . S
O413 Fe384 1.935 . S
O413 C415 1.421 . S
C414 O402 1.381 . S
C414 O403 1.421 . S
C415 O412 1.381 . S
C415 O413 1.421 . S
Fe416 O417 1.886 . S
Fe416 O420 1.715 . S
Fe416 O425 2.077 . S
Fe416 O430 1.935 . S
Fe416 O436 2.077 . S
Fe416 O445 1.935 . S
O417 Fe416 1.886 . S
O417 Fe419 1.715 . S
Fe418 O420 1.886 . S
Fe418 O421 1.715 . S
Fe418 O428 1.935 . S
Fe418 O429 2.077 . S
Fe418 O435 1.935 . S
Fe418 O444 2.077 . S
Fe419 O417 1.715 . S
Fe419 O422 1.886 . S
Fe419 O426 1.935 . S
Fe419 O431 2.077 . S
Fe419 O437 1.935 . S
Fe419 O441 2.077 . S
O420 Fe416 1.715 . S
O420 Fe418 1.886 . S
O421 Fe418 1.715 . S
O421 Fe423 1.886 . S
O422 Fe419 1.886 . S
O422 Fe423 1.715 . S
Fe423 O421 1.886 . S
Fe423 O422 1.715 . S
Fe423 O427 2.077 . S
Fe423 O432 1.935 . S
Fe423 O434 2.077 . S
Fe423 O442 1.935 . S
C424 O436 1.381 . S
C424 O437 1.421 . S
O425 Fe416 2.077 . S
O425 C438 1.381 . S
O426 Fe419 1.935 . S
O426 C438 1.421 . S
O427 Fe423 2.077 . S
O427 C443 1.381 . S
O428 Fe418 1.935 . S
O428 C443 1.421 . S
O429 Fe418 2.077 . S
O429 C433 1.381 . S
O430 Fe416 1.935 . S
O430 C433 1.421 . S
O431 Fe419 2.077 . S
O431 C439 1.381 . S
O432 Fe423 1.935 . S
O432 C439 1.421 . S
C433 O429 1.381 . S
C433 O430 1.421 . S
O434 Fe423 2.077 . S
O434 C446 1.381 . S
O435 Fe418 1.935 . S
O435 C446 1.421 . S
O436 Fe416 2.077 . S
O436 C424 1.381 . S
O437 Fe419 1.935 . S
O437 C424 1.421 . S
C438 O425 1.381 . S
C438 O426 1.421 . S
C439 O431 1.381 . S
C439 O432 1.421 . S
C440 O441 1.381 . S
C440 O442 1.421 . S
O441 Fe419 2.077 . S
O441 C440 1.381 . S
O442 Fe423 1.935 . S
O442 C440 1.421 . S
C443 O427 1.381 . S
C443 O428 1.421 . S
O444 Fe418 2.077 . S
O444 C447 1.381 . S
O445 Fe416 1.935 . S
O445 C447 1.421 . S
C446 O434 1.381 . S
C446 O435 1.421 . S
C447 O444 1.381 . S
C447 O445 1.421 . S
Fe448 O449 1.886 . S
Fe448 O452 1.715 . S
Fe448 O457 2.077 . S
Fe448 O462 1.935 . S
Fe448 O468 2.077 . S
Fe448 O477 1.935 . S
O449 Fe448 1.886 . S
O449 Fe451 1.715 . S
Fe450 O452 1.886 . S
Fe450 O453 1.715 . S
Fe450 O460 1.935 . S
Fe450 O461 2.077 . S
Fe450 O467 1.935 . S
Fe450 O476 2.077 . S
Fe451 O449 1.715 . S
Fe451 O454 1.886 . S
Fe451 O458 1.935 . S
Fe451 O463 2.077 . S
Fe451 O469 1.935 . S
Fe451 O473 2.077 . S
O452 Fe448 1.715 . S
O452 Fe450 1.886 . S
O453 Fe450 1.715 . S
O453 Fe455 1.886 . S
O454 Fe451 1.886 . S
O454 Fe455 1.715 . S
Fe455 O453 1.886 . S
Fe455 O454 1.715 . S
Fe455 O459 2.077 . S
Fe455 O464 1.935 . S
Fe455 O466 2.077 . S
Fe455 O474 1.935 . S
C456 O468 1.381 . S
C456 O469 1.421 . S
O457 Fe448 2.077 . S
O457 C470 1.381 . S
O458 Fe451 1.935 . S
O458 C470 1.421 . S
O459 Fe455 2.077 . S
O459 C475 1.381 . S
O460 Fe450 1.935 . S
O460 C475 1.421 . S
O461 Fe450 2.077 . S
O461 C465 1.381 . S
O462 Fe448 1.935 . S
O462 C465 1.421 . S
O463 Fe451 2.077 . S
O463 C471 1.381 . S
O464 Fe455 1.935 . S
O464 C471 1.421 . S
C465 O461 1.381 . S
C465 O462 1.421 . S
O466 Fe455 2.077 . S
O466 C478 1.381 . S
O467 Fe450 1.935 . S
O467 C478 1.421 . S
O468 Fe448 2.077 . S
O468 C456 1.381 . S
O469 Fe451 1.935 . S
O469 C456 1.421 . S
C470 O457 1.381 . S
C470 O458 1.421 . S
C471 O463 1.381 . S
C471 O464 1.421 . S
C472 O473 1.381 . S
C472 O474 1.421 . S
O473 Fe451 2.077 . S
O473 C472 1.381 . S
O474 Fe455 1.935 . S
O474 C472 1.421 . S
C475 O459 1.381 . S
C475 O460 1.421 . S
O476 Fe450 2.077 . S
O476 C479 1.381 . S
O477 Fe448 1.935 . S
O477 C479 1.421 . S
C478 O466 1.381 . S
C478 O467 1.421 . S
C479 O476 1.381 . S
C479 O477 1.421 . S
Fe480 O481 1.886 . S
Fe480 O484 1.715 . S
Fe480 O489 2.077 . S
Fe480 O494 1.935 . S
Fe480 O500 2.077 . S
Fe480 O509 1.935 . S
O481 Fe480 1.886 . S
O481 Fe483 1.715 . S
Fe482 O484 1.886 . S
Fe482 O485 1.715 . S
Fe482 O492 1.935 . S
Fe482 O493 2.077 . S
Fe482 O499 1.935 . S
Fe482 O508 2.077 . S
Fe483 O481 1.715 . S
Fe483 O486 1.886 . S
Fe483 O490 1.935 . S
Fe483 O495 2.077 . S
Fe483 O501 1.935 . S
Fe483 O505 2.077 . S
O484 Fe480 1.715 . S
O484 Fe482 1.886 . S
O485 Fe482 1.715 . S
O485 Fe487 1.886 . S
O486 Fe483 1.886 . S
O486 Fe487 1.715 . S
Fe487 O485 1.886 . S
Fe487 O486 1.715 . S
Fe487 O491 2.077 . S
Fe487 O496 1.935 . S
Fe487 O498 2.077 . S
Fe487 O506 1.935 . S
C488 O500 1.381 . S
C488 O501 1.421 . S
O489 Fe480 2.077 . S
O489 C502 1.381 . S
O490 Fe483 1.935 . S
O490 C502 1.421 . S
O491 Fe487 2.077 . S
O491 C507 1.381 . S
O492 Fe482 1.935 . S
O492 C507 1.421 . S
O493 Fe482 2.077 . S
O493 C497 1.381 . S
O494 Fe480 1.935 . S
O494 C497 1.421 . S
O495 Fe483 2.077 . S
O495 C503 1.381 . S
O496 Fe487 1.935 . S
O496 C503 1.421 . S
C497 O493 1.381 . S
C497 O494 1.421 . S
O498 Fe487 2.077 . S
O498 C510 1.381 . S
O499 Fe482 1.935 . S
O499 C510 1.421 . S
O500 Fe480 2.077 . S
O500 C488 1.381 . S
O501 Fe483 1.935 . S
O501 C488 1.421 . S
C502 O489 1.381 . S
C502 O490 1.421 . S
C503 O495 1.381 . S
C503 O496 1.421 . S
C504 O505 1.381 . S
C504 O506 1.421 . S
O505 Fe483 2.077 . S
O505 C504 1.381 . S
O506 Fe487 1.935 . S
O506 C504 1.421 . S
C507 O491 1.381 . S
C507 O492 1.421 . S
O508 Fe482 2.077 . S
O508 C511 1.381 . S
O509 Fe480 1.935 . S
O509 C511 1.421 . S
C510 O498 1.381 . S
C510 O499 1.421 . S
C511 O508 1.381 . S
C511 O509 1.421 . S
H512 C518 0.930 . S
H513 C522 0.930 . S
H514 C527 0.929 . S
H515 C525 0.929 . S
H516 C520 0.929 . S
H517 C526 0.929 . S
C518 H512 0.930 . S
C518 C519 1.367 . S
C518 C526 1.378 . S
C519 C518 1.367 . S
C519 C527 1.433 . S
C520 H516 0.929 . S
C520 C522 1.378 . S
C520 C524 1.350 . S
C521 C524 1.463 . S
C521 C526 1.350 . S
C521 N529 1.427 . S
C522 H513 0.930 . S
C522 C520 1.378 . S
C522 C523 1.367 . S
C523 C522 1.367 . S
C523 C525 1.433 . S
C524 C520 1.350 . S
C524 C521 1.463 . S
C524 N528 1.427 . S
C525 H515 0.929 . S
C525 C523 1.433 . S
C525 N528 1.384 . S
C526 H517 0.929 . S
C526 C518 1.378 . S
C526 C521 1.350 . S
C527 H514 0.929 . S
C527 C519 1.433 . S
C527 N529 1.384 . S
N528 C524 1.427 . S
N528 C525 1.384 . S
N529 C521 1.427 . S
N529 C527 1.384 . S
H530 C536 0.930 . S
H531 C540 0.930 . S
H532 C545 0.929 1_455 S
H533 C543 0.929 . S
H534 C538 0.929 . S
H535 C544 0.929 . S
C536 H530 0.930 . S
C536 C537 1.367 . S
C536 C544 1.378 . S
C537 C536 1.367 . S
C537 C545 1.433 . S
C538 H534 0.929 . S
C538 C540 1.378 . S
C538 C542 1.350 . S
C539 C542 1.463 . S
C539 C544 1.350 . S
C539 N547 1.427 . S
C540 H531 0.930 . S
C540 C538 1.378 . S
C540 C541 1.367 . S
C541 C540 1.367 . S
C541 C543 1.433 . S
C542 C538 1.350 . S
C542 C539 1.463 . S
C542 N546 1.427 . S
C543 H533 0.929 . S
C543 C541 1.433 . S
C543 N546 1.384 . S
C544 H535 0.929 . S
C544 C536 1.378 . S
C544 C539 1.350 . S
C545 H532 0.929 1_655 S
C545 C537 1.433 . S
C545 N547 1.384 . S
N546 C542 1.427 . S
N546 C543 1.384 . S
N547 C539 1.427 . S
N547 C545 1.384 . S
H548 C554 0.930 . S
H549 C558 0.930 . S
H550 C563 0.929 1_545 S
H551 C561 0.929 . S
H552 C556 0.929 . S
H553 C562 0.929 . S
C554 H548 0.930 . S
C554 C555 1.367 . S
C554 C562 1.378 . S
C555 C554 1.367 . S
C555 C563 1.433 . S
C556 H552 0.929 . S
C556 C558 1.378 . S
C556 C560 1.350 . S
C557 C560 1.463 . S
C557 C562 1.350 . S
C557 N565 1.427 . S
C558 H549 0.930 . S
C558 C556 1.378 . S
C558 C559 1.367 . S
C559 C558 1.367 . S
C559 C561 1.433 . S
C560 C556 1.350 . S
C560 C557 1.463 . S
C560 N564 1.427 . S
C561 H551 0.929 . S
C561 C559 1.433 . S
C561 N564 1.384 . S
C562 H553 0.929 . S
C562 C554 1.378 . S
C562 C557 1.350 . S
C563 H550 0.929 1_565 S
C563 C555 1.433 . S
C563 N565 1.384 . S
N564 C560 1.427 . S
N564 C561 1.384 . S
N565 C557 1.427 . S
N565 C563 1.384 . S
H566 C572 0.930 1_455 S
H567 C576 0.930 . S
H568 C581 0.929 . S
H569 C579 0.929 . S
H570 C574 0.929 . S
H571 C580 0.929 . S
C572 H566 0.930 1_655 S
C572 C573 1.367 . S
C572 C580 1.378 . S
C573 C572 1.367 . S
C573 C581 1.433 . S
C574 H570 0.929 . S
C574 C576 1.378 . S
C574 C578 1.350 . S
C575 C578 1.463 . S
C575 C580 1.350 . S
C575 N583 1.427 . S
C576 H567 0.930 . S
C576 C574 1.378 . S
C576 C577 1.367 . S
C577 C576 1.367 . S
C577 C579 1.433 . S
C578 C574 1.350 . S
C578 C575 1.463 . S
C578 N582 1.427 . S
C579 H569 0.929 . S
C579 C577 1.433 . S
C579 N582 1.384 . S
C580 H571 0.929 . S
C580 C572 1.378 . S
C580 C575 1.350 . S
C581 H568 0.929 . S
C581 C573 1.433 . S
C581 N583 1.384 . S
N582 C578 1.427 . S
N582 C579 1.384 . S
N583 C575 1.427 . S
N583 C581 1.384 . S
H584 C590 0.930 . S
H585 C594 0.930 . S
H586 C599 0.929 . S
H587 C597 0.929 . S
H588 C592 0.929 . S
H589 C598 0.929 . S
C590 H584 0.930 . S
C590 C591 1.367 . S
C590 C598 1.378 . S
C591 C590 1.367 . S
C591 C599 1.433 . S
C592 H588 0.929 . S
C592 C594 1.378 . S
C592 C596 1.350 . S
C593 C596 1.463 . S
C593 C598 1.350 . S
C593 N601 1.427 . S
C594 H585 0.930 . S
C594 C592 1.378 . S
C594 C595 1.367 . S
C595 C594 1.367 . S
C595 C597 1.433 . S
C596 C592 1.350 . S
C596 C593 1.463 . S
C596 N600 1.427 . S
C597 H587 0.929 . S
C597 C595 1.433 . S
C597 N600 1.384 . S
C598 H589 0.929 . S
C598 C590 1.378 . S
C598 C593 1.350 . S
C599 H586 0.929 . S
C599 C591 1.433 . S
C599 N601 1.384 . S
N600 C596 1.427 . S
N600 C597 1.384 . S
N601 C593 1.427 . S
N601 C599 1.384 . S
H602 C608 0.930 . S
H603 C612 0.930 . S
H604 C617 0.929 1_565 S
H605 C615 0.929 . S
H606 C610 0.929 . S
H607 C616 0.929 . S
C608 H602 0.930 . S
C608 C609 1.365 1_655 S
C608 C616 1.378 1_655 S
C609 C608 1.365 1_455 S
C609 C617 1.447 . S
C610 H606 0.929 . S
C610 C612 1.378 . S
C610 C614 1.350 . S
C611 C614 1.463 . S
C611 C616 1.350 . S
C611 N619 1.427 . S
C612 H603 0.930 . S
C612 C610 1.378 . S
C612 C613 1.367 . S
C613 C612 1.367 . S
C613 C615 1.433 . S
C614 C610 1.350 . S
C614 C611 1.463 . S
C614 N618 1.427 . S
C615 H605 0.929 . S
C615 C613 1.433 . S
C615 N618 1.384 . S
C616 H607 0.929 . S
C616 C608 1.378 1_455 S
C616 C611 1.350 . S
C617 H604 0.929 1_545 S
C617 C609 1.447 . S
C617 N619 1.384 . S
N618 C614 1.427 . S
N618 C615 1.384 . S
N619 C611 1.427 . S
N619 C617 1.384 . S
H620 C626 0.930 . S
H621 C630 0.930 . S
H622 C635 0.929 . S
H623 C633 0.929 . S
H624 C628 0.929 . S
H625 C634 0.929 . S
C626 H620 0.930 . S
C626 C627 1.367 . S
C626 C634 1.378 . S
C627 C626 1.367 . S
C627 C635 1.433 . S
C628 H624 0.929 . S
C628 C630 1.378 . S
C628 C632 1.350 . S
C629 C632 1.463 . S
C629 C634 1.350 . S
C629 N637 1.427 . S
C630 H621 0.930 . S
C630 C628 1.378 . S
C630 C631 1.367 . S
C631 C630 1.367 . S
C631 C633 1.433 . S
C632 C628 1.350 . S
C632 C629 1.463 . S
C632 N636 1.427 . S
C633 H623 0.929 . S
C633 C631 1.433 . S
C633 N636 1.384 . S
C634 H625 0.929 . S
C634 C626 1.378 . S
C634 C629 1.350 . S
C635 H622 0.929 . S
C635 C627 1.433 . S
C635 N637 1.384 . S
N636 C632 1.427 . S
N636 C633 1.384 . S
N637 C629 1.427 . S
N637 C635 1.384 . S
H638 C644 0.930 1_655 S
H639 C648 0.930 . S
H640 C653 0.929 . S
H641 C651 0.929 . S
H642 C646 0.929 . S
H643 C652 0.929 . S
C644 H638 0.930 1_455 S
C644 C645 1.367 . S
C644 C652 1.378 . S
C645 C644 1.367 . S
C645 C653 1.433 . S
C646 H642 0.929 . S
C646 C648 1.378 . S
C646 C650 1.350 . S
C647 C650 1.463 . S
C647 C652 1.350 . S
C647 N655 1.427 . S
C648 H639 0.930 . S
C648 C646 1.378 . S
C648 C649 1.367 . S
C649 C648 1.367 . S
C649 C651 1.433 . S
C650 C646 1.350 . S
C650 C647 1.463 . S
C650 N654 1.427 . S
C651 H641 0.929 . S
C651 C649 1.433 . S
C651 N654 1.384 . S
C652 H643 0.929 . S
C652 C644 1.378 . S
C652 C647 1.350 . S
C653 H640 0.929 . S
C653 C645 1.433 . S
C653 N655 1.384 . S
N654 C650 1.427 . S
N654 C651 1.384 . S
N655 C647 1.427 . S
N655 C653 1.384 . S
H656 C662 0.930 . S
H657 C666 0.930 . S
H658 C671 0.929 . S
H659 C669 0.929 . S
H660 C664 0.929 . S
H661 C670 0.929 . S
C662 H656 0.930 . S
C662 C663 1.367 . S
C662 C670 1.378 . S
C663 C662 1.367 . S
C663 C671 1.433 . S
C664 H660 0.929 . S
C664 C666 1.378 . S
C664 C668 1.350 . S
C665 C668 1.463 . S
C665 C670 1.350 . S
C665 N673 1.427 . S
C666 H657 0.930 . S
C666 C664 1.378 . S
C666 C667 1.367 . S
C667 C666 1.367 . S
C667 C669 1.433 . S
C668 C664 1.350 . S
C668 C665 1.463 . S
C668 N672 1.427 . S
C669 H659 0.929 . S
C669 C667 1.433 . S
C669 N672 1.384 . S
C670 H661 0.929 . S
C670 C662 1.378 . S
C670 C665 1.350 . S
C671 H658 0.929 . S
C671 C663 1.433 . S
C671 N673 1.384 . S
N672 C668 1.427 . S
N672 C669 1.384 . S
N673 C665 1.427 . S
N673 C671 1.384 . S
H674 C680 0.930 . S
H675 C684 0.930 . S
H676 C689 0.929 . S
H677 C687 0.929 . S
H678 C682 0.929 . S
H679 C688 0.929 . S
C680 H674 0.930 . S
C680 C681 1.367 . S
C680 C688 1.378 . S
C681 C680 1.367 . S
C681 C689 1.433 . S
C682 H678 0.929 . S
C682 C684 1.378 1_655 S
C682 C686 1.350 . S
C683 C686 1.463 . S
C683 C688 1.350 . S
C683 N691 1.427 . S
C684 H675 0.930 . S
C684 C682 1.378 1_455 S
C684 C685 1.366 1_455 S
C685 C684 1.366 1_655 S
C685 C687 1.448 . S
C686 C682 1.350 . S
C686 C683 1.463 . S
C686 N690 1.427 . S
C687 H677 0.929 . S
C687 C685 1.448 . S
C687 N690 1.384 . S
C688 H679 0.929 . S
C688 C680 1.378 . S
C688 C683 1.350 . S
C689 H676 0.929 . S
C689 C681 1.433 . S
C689 N691 1.384 . S
N690 C686 1.427 . S
N690 C687 1.384 . S
N691 C683 1.427 . S
N691 C689 1.384 . S
H692 C698 0.930 . S
H693 C702 0.930 . S
H694 C707 0.929 . S
H695 C705 0.929 . S
H696 C700 0.929 . S
H697 C706 0.929 . S
C698 H692 0.930 . S
C698 C699 1.367 . S
C698 C706 1.378 . S
C699 C698 1.367 . S
C699 C707 1.433 . S
C700 H696 0.929 . S
C700 C702 1.378 . S
C700 C704 1.350 . S
C701 C704 1.463 . S
C701 C706 1.350 . S
C701 N709 1.427 . S
C702 H693 0.930 . S
C702 C700 1.378 . S
C702 C703 1.367 . S
C703 C702 1.367 . S
C703 C705 1.433 . S
C704 C700 1.350 . S
C704 C701 1.463 . S
C704 N708 1.427 . S
C705 H695 0.929 . S
C705 C703 1.433 . S
C705 N708 1.384 . S
C706 H697 0.929 . S
C706 C698 1.378 . S
C706 C701 1.350 . S
C707 H694 0.929 . S
C707 C699 1.433 . S
C707 N709 1.384 . S
N708 C704 1.427 . S
N708 C705 1.384 . S
N709 C701 1.427 . S
N709 C707 1.384 . S
H710 C716 0.930 1_545 S
H711 C720 0.930 . S
H712 C725 0.929 . S
H713 C723 0.929 . S
H714 C718 0.929 . S
H715 C724 0.929 . S
C716 H710 0.930 1_565 S
C716 C717 1.367 . S
C716 C724 1.378 . S
C717 C716 1.367 . S
C717 C725 1.433 . S
C718 H714 0.929 . S
C718 C720 1.378 . S
C718 C722 1.350 . S
C719 C722 1.463 . S
C719 C724 1.350 . S
C719 N727 1.427 . S
C720 H711 0.930 . S
C720 C718 1.378 . S
C720 C721 1.367 . S
C721 C720 1.367 . S
C721 C723 1.433 1_655 S
C722 C718 1.350 . S
C722 C719 1.463 . S
C722 N726 1.427 . S
C723 H713 0.929 . S
C723 C721 1.433 1_455 S
C723 N726 1.384 1_455 S
C724 H715 0.929 . S
C724 C716 1.378 . S
C724 C719 1.350 . S
C725 H712 0.929 . S
C725 C717 1.433 . S
C725 N727 1.384 . S
N726 C722 1.427 . S
N726 C723 1.384 1_655 S
N727 C719 1.427 . S
N727 C725 1.384 . S
H728 C734 0.930 . S
H729 C738 0.930 . S
H730 C743 0.929 . S
H731 C741 0.929 . S
H732 C736 0.929 . S
H733 C742 0.929 . S
C734 H728 0.930 . S
C734 C735 1.367 . S
C734 C742 1.378 . S
C735 C734 1.367 . S
C735 C743 1.433 . S
C736 H732 0.929 . S
C736 C738 1.378 . S
C736 C740 1.350 . S
C737 C740 1.463 . S
C737 C742 1.350 . S
C737 N745 1.427 . S
C738 H729 0.930 . S
C738 C736 1.378 . S
C738 C739 1.367 . S
C739 C738 1.367 . S
C739 C741 1.433 . S
C740 C736 1.350 . S
C740 C737 1.463 . S
C740 N744 1.427 . S
C741 H731 0.929 . S
C741 C739 1.433 . S
C741 N744 1.384 . S
C742 H733 0.929 . S
C742 C734 1.378 . S
C742 C737 1.350 . S
C743 H730 0.929 . S
C743 C735 1.433 . S
C743 N745 1.384 . S
N744 C740 1.427 . S
N744 C741 1.384 . S
N745 C737 1.427 . S
N745 C743 1.384 . S
H746 C752 0.930 . S
H747 C756 0.930 . S
H748 C761 0.929 1_655 S
H749 C759 0.929 . S
H750 C754 0.929 . S
H751 C760 0.929 . S
C752 H746 0.930 . S
C752 C753 1.367 . S
C752 C760 1.378 . S
C753 C752 1.367 . S
C753 C761 1.433 . S
C754 H750 0.929 . S
C754 C756 1.378 . S
C754 C758 1.350 . S
C755 C758 1.463 . S
C755 C760 1.350 . S
C755 N763 1.427 . S
C756 H747 0.930 . S
C756 C754 1.378 . S
C756 C757 1.367 . S
C757 C756 1.367 . S
C757 C759 1.433 . S
C758 C754 1.350 . S
C758 C755 1.463 . S
C758 N762 1.427 . S
C759 H749 0.929 . S
C759 C757 1.433 . S
C759 N762 1.384 . S
C760 H751 0.929 . S
C760 C752 1.378 . S
C760 C755 1.350 . S
C761 H748 0.929 1_455 S
C761 C753 1.433 . S
C761 N763 1.384 . S
N762 C758 1.427 . S
N762 C759 1.384 . S
N763 C755 1.427 . S
N763 C761 1.384 . S
H764 C770 0.930 . S
H765 C774 0.930 . S
H766 C779 0.929 . S
H767 C777 0.929 . S
H768 C772 0.929 . S
H769 C778 0.929 . S
C770 H764 0.930 . S
C770 C771 1.367 . S
C770 C778 1.378 . S
C771 C770 1.367 . S
C771 C779 1.433 . S
C772 H768 0.929 . S
C772 C774 1.378 . S
C772 C776 1.350 . S
C773 C776 1.463 . S
C773 C778 1.350 . S
C773 N781 1.427 . S
C774 H765 0.930 . S
C774 C772 1.378 . S
C774 C775 1.367 . S
C775 C774 1.367 . S
C775 C777 1.433 . S
C776 C772 1.350 . S
C776 C773 1.463 . S
C776 N780 1.427 . S
C777 H767 0.929 . S
C777 C775 1.433 . S
C777 N780 1.384 . S
C778 H769 0.929 . S
C778 C770 1.378 . S
C778 C773 1.350 . S
C779 H766 0.929 . S
C779 C771 1.433 . S
C779 N781 1.384 . S
N780 C776 1.427 . S
N780 C777 1.384 . S
N781 C773 1.427 . S
N781 C779 1.384 . S
H782 C788 0.930 1_655 S
H783 C792 0.930 . S
H784 C797 0.929 . S
H785 C795 0.929 . S
H786 C790 0.929 . S
H787 C796 0.929 . S
C788 H782 0.930 1_455 S
C788 C789 1.367 . S
C788 C796 1.378 . S
C789 C788 1.367 . S
C789 C797 1.433 . S
C790 H786 0.929 . S
C790 C792 1.378 . S
C790 C794 1.350 . S
C791 C794 1.463 . S
C791 C796 1.350 . S
C791 N799 1.427 . S
C792 H783 0.930 . S
C792 C790 1.378 . S
C792 C793 1.367 . S
C793 C792 1.367 . S
C793 C795 1.433 . S
C794 C790 1.350 . S
C794 C791 1.463 . S
C794 N798 1.427 . S
C795 H785 0.929 . S
C795 C793 1.433 . S
C795 N798 1.384 . S
C796 H787 0.929 . S
C796 C788 1.378 . S
C796 C791 1.350 . S
C797 H784 0.929 . S
C797 C789 1.433 . S
C797 N799 1.384 . S
N798 C794 1.427 . S
N798 C795 1.384 . S
N799 C791 1.427 . S
N799 C797 1.384 . S
H800 C806 0.946 . S
H801 C810 0.930 . S
H802 C815 0.929 . S
H803 C813 0.929 . S
H804 C808 0.929 . S
H805 C814 0.929 . S
C806 H800 0.946 . S
C806 C807 1.367 . S
C806 C814 1.378 . S
C807 C806 1.367 . S
C807 C815 1.433 . S
C808 H804 0.929 . S
C808 C810 1.378 . S
C808 C812 1.350 . S
C809 C812 1.463 . S
C809 C814 1.350 . S
C809 N817 1.427 . S
C810 H801 0.930 . S
C810 C808 1.378 . S
C810 C811 1.367 . S
C811 C810 1.367 . S
C811 C813 1.433 . S
C812 C808 1.350 . S
C812 C809 1.463 . S
C812 N816 1.427 . S
C813 H803 0.929 . S
C813 C811 1.433 . S
C813 N816 1.384 . S
C814 H805 0.929 . S
C814 C806 1.378 . S
C814 C809 1.350 . S
C815 H802 0.929 . S
C815 C807 1.433 . S
C815 N817 1.384 . S
N816 C812 1.427 . S
N816 C813 1.384 . S
N817 C809 1.427 . S
N817 C815 1.384 . S
H818 C824 0.930 1_455 S
H819 C828 0.930 . S
H820 C833 0.929 . S
H821 C831 0.929 . S
H822 C826 0.929 . S
H823 C832 0.929 . S
C824 H818 0.930 1_655 S
C824 C825 1.367 . S
C824 C832 1.378 . S
C825 C824 1.367 . S
C825 C833 1.433 . S
C826 H822 0.929 . S
C826 C828 1.378 . S
C826 C830 1.350 . S
C827 C830 1.463 . S
C827 C832 1.350 . S
C827 N835 1.427 . S
C828 H819 0.930 . S
C828 C826 1.378 . S
C828 C829 1.367 . S
C829 C828 1.367 . S
C829 C831 1.433 . S
C830 C826 1.350 . S
C830 C827 1.463 . S
C830 N834 1.427 . S
C831 H821 0.929 . S
C831 C829 1.433 . S
C831 N834 1.384 . S
C832 H823 0.929 . S
C832 C824 1.378 . S
C832 C827 1.350 . S
C833 H820 0.929 . S
C833 C825 1.433 . S
C833 N835 1.384 . S
N834 C830 1.427 . S
N834 C831 1.384 . S
N835 C827 1.427 . S
N835 C833 1.384 . S
H836 C842 0.930 . S
H837 C846 0.930 . S
H838 C851 0.929 . S
H839 C849 0.929 . S
H840 C844 0.929 . S
H841 C850 0.929 . S
C842 H836 0.930 . S
C842 C843 1.367 . S
C842 C850 1.378 . S
C843 C842 1.367 . S
C843 C851 1.433 . S
C844 H840 0.929 . S
C844 C846 1.378 . S
C844 C848 1.350 . S
C845 C848 1.463 . S
C845 C850 1.350 . S
C845 N853 1.427 . S
C846 H837 0.930 . S
C846 C844 1.378 . S
C846 C847 1.367 . S
C847 C846 1.367 . S
C847 C849 1.433 . S
C848 C844 1.350 . S
C848 C845 1.463 . S
C848 N852 1.427 . S
C849 H839 0.929 . S
C849 C847 1.433 . S
C849 N852 1.384 . S
C850 H841 0.929 . S
C850 C842 1.378 . S
C850 C845 1.350 . S
C851 H838 0.929 . S
C851 C843 1.433 . S
C851 N853 1.384 . S
N852 C848 1.427 . S
N852 C849 1.384 . S
N853 C845 1.427 . S
N853 C851 1.384 . S
H854 C860 0.930 . S
H855 C864 0.930 . S
H856 C869 0.929 . S
H857 C867 0.929 1_455 S
H858 C862 0.929 . S
H859 C868 0.929 . S
C860 H854 0.930 . S
C860 C861 1.367 . S
C860 C868 1.378 . S
C861 C860 1.367 . S
C861 C869 1.433 . S
C862 H858 0.929 . S
C862 C864 1.378 . S
C862 C866 1.350 . S
C863 C866 1.463 . S
C863 C868 1.350 . S
C863 N871 1.427 . S
C864 H855 0.930 . S
C864 C862 1.378 . S
C864 C865 1.367 . S
C865 C864 1.367 . S
C865 C867 1.433 . S
C866 C862 1.350 . S
C866 C863 1.463 . S
C866 N870 1.427 . S
C867 H857 0.929 1_655 S
C867 C865 1.433 . S
C867 N870 1.384 . S
C868 H859 0.929 . S
C868 C860 1.378 . S
C868 C863 1.350 . S
C869 H856 0.929 . S
C869 C861 1.433 . S
C869 N871 1.384 . S
N870 C866 1.427 . S
N870 C867 1.384 . S
N871 C863 1.427 . S
N871 C869 1.384 . S
H872 C878 0.930 . S
H873 C882 0.930 . S
H874 C887 0.929 . S
H875 C885 0.929 . S
H876 C880 0.929 . S
H877 C886 0.929 . S
C878 H872 0.930 . S
C878 C879 1.367 . S
C878 C886 1.378 . S
C879 C878 1.367 . S
C879 C887 1.433 . S
C880 H876 0.929 . S
C880 C882 1.378 . S
C880 C884 1.350 . S
C881 C884 1.463 . S
C881 C886 1.350 . S
C881 N889 1.427 . S
C882 H873 0.930 . S
C882 C880 1.378 . S
C882 C883 1.367 . S
C883 C882 1.367 . S
C883 C885 1.433 . S
C884 C880 1.350 . S
C884 C881 1.463 . S
C884 N888 1.427 . S
C885 H875 0.929 . S
C885 C883 1.433 . S
C885 N888 1.384 . S
C886 H877 0.929 . S
C886 C878 1.378 . S
C886 C881 1.350 . S
C887 H874 0.929 . S
C887 C879 1.433 . S
C887 N889 1.384 . S
N888 C884 1.427 . S
N888 C885 1.384 . S
N889 C881 1.427 . S
N889 C887 1.384 . S
H890 C896 0.930 . S
H891 C900 0.930 1_655 S
H892 C905 0.929 . S
H893 C903 0.929 . S
H894 C898 0.929 . S
H895 C904 0.929 . S
C896 H890 0.930 . S
C896 C897 1.367 . S
C896 C904 1.378 . S
C897 C896 1.367 . S
C897 C905 1.433 . S
C898 H894 0.929 . S
C898 C900 1.378 . S
C898 C902 1.350 . S
C899 C902 1.463 . S
C899 C904 1.350 . S
C899 N907 1.427 . S
C900 H891 0.930 1_455 S
C900 C898 1.378 . S
C900 C901 1.367 . S
C901 C900 1.367 . S
C901 C903 1.433 . S
C902 C898 1.350 . S
C902 C899 1.463 . S
C902 N906 1.427 . S
C903 H893 0.929 . S
C903 C901 1.433 . S
C903 N906 1.384 . S
C904 H895 0.929 . S
C904 C896 1.378 . S
C904 C899 1.350 . S
C905 H892 0.929 . S
C905 C897 1.433 . S
C905 N907 1.384 . S
N906 C902 1.427 . S
N906 C903 1.384 . S
N907 C899 1.427 . S
N907 C905 1.384 . S
H908 C914 0.930 . S
H909 C918 0.930 . S
H910 C923 0.929 . S
H911 C921 0.929 . S
H912 C916 0.929 . S
H913 C922 0.929 . S
C914 H908 0.930 . S
C914 C915 1.367 . S
C914 C922 1.378 . S
C915 C914 1.367 . S
C915 C923 1.433 . S
C916 H912 0.929 . S
C916 C918 1.378 . S
C916 C920 1.350 . S
C917 C920 1.463 . S
C917 C922 1.350 . S
C917 N925 1.427 . S
C918 H909 0.930 . S
C918 C916 1.378 . S
C918 C919 1.367 . S
C919 C918 1.367 . S
C919 C921 1.433 . S
C920 C916 1.350 . S
C920 C917 1.463 . S
C920 N924 1.427 . S
C921 H911 0.929 . S
C921 C919 1.433 . S
C921 N924 1.384 . S
C922 H913 0.929 . S
C922 C914 1.378 . S
C922 C917 1.350 . S
C923 H910 0.929 . S
C923 C915 1.433 . S
C923 N925 1.384 . S
N924 C920 1.427 . S
N924 C921 1.384 . S
N925 C917 1.427 . S
N925 C923 1.384 . S
H926 C932 0.930 . S
H927 C936 0.930 . S
H928 C941 0.929 . S
H929 C939 0.929 . S
H930 C934 0.929 . S
H931 C940 0.929 . S
C932 H926 0.930 . S
C932 C933 1.367 . S
C932 C940 1.378 . S
C933 C932 1.367 . S
C933 C941 1.433 . S
C934 H930 0.929 . S
C934 C936 1.378 . S
C934 C938 1.350 . S
C935 C938 1.463 . S
C935 C940 1.350 . S
C935 N943 1.427 . S
C936 H927 0.930 . S
C936 C934 1.378 . S
C936 C937 1.367 . S
C937 C936 1.367 . S
C937 C939 1.433 . S
C938 C934 1.350 . S
C938 C935 1.463 . S
C938 N942 1.427 . S
C939 H929 0.929 . S
C939 C937 1.433 . S
C939 N942 1.384 . S
C940 H931 0.929 . S
C940 C932 1.378 . S
C940 C935 1.350 . S
C941 H928 0.929 . S
C941 C933 1.433 . S
C941 N943 1.384 . S
N942 C938 1.427 . S
N942 C939 1.384 . S
N943 C935 1.427 . S
N943 C941 1.384 . S
H944 C950 0.930 . S
H945 C954 0.930 . S
H946 C959 0.929 . S
H947 C957 0.929 . S
H948 C952 0.929 . S
H949 C958 0.929 . S
C950 H944 0.930 . S
C950 C951 1.367 . S
C950 C958 1.378 . S
C951 C950 1.367 . S
C951 C959 1.433 . S
C952 H948 0.929 . S
C952 C954 1.378 . S
C952 C956 1.350 . S
C953 C956 1.463 . S
C953 C958 1.350 . S
C953 N961 1.427 . S
C954 H945 0.930 . S
C954 C952 1.378 . S
C954 C955 1.367 . S
C955 C954 1.367 . S
C955 C957 1.433 . S
C956 C952 1.350 . S
C956 C953 1.463 . S
C956 N960 1.427 . S
C957 H947 0.929 . S
C957 C955 1.433 . S
C957 N960 1.384 . S
C958 H949 0.929 . S
C958 C950 1.378 . S
C958 C953 1.350 . S
C959 H946 0.929 . S
C959 C951 1.433 . S
C959 N961 1.384 . S
N960 C956 1.427 . S
N960 C957 1.384 . S
N961 C953 1.427 . S
N961 C959 1.384 . S
H962 C968 0.917 1_455 S
H963 C972 0.930 . S
H964 C977 0.929 . S
H965 C975 0.929 1_545 S
H966 C970 0.929 . S
H967 C976 0.929 . S
C968 H962 0.917 1_655 S
C968 C969 1.372 . S
C968 C976 1.386 . S
C969 C968 1.372 . S
C969 C977 1.433 . S
C970 H966 0.929 . S
C970 C972 1.378 . S
C970 C974 1.350 . S
C971 C974 1.463 . S
C971 C976 1.350 . S
C971 N979 1.427 . S
C972 H963 0.930 . S
C972 C970 1.378 . S
C972 C973 1.367 . S
C973 C972 1.367 . S
C973 C975 1.433 . S
C974 C970 1.350 . S
C974 C971 1.463 . S
C974 N978 1.427 . S
C975 H965 0.929 1_565 S
C975 C973 1.433 . S
C975 N978 1.384 . S
C976 H967 0.929 . S
C976 C968 1.386 . S
C976 C971 1.350 . S
C977 H964 0.929 . S
C977 C969 1.433 . S
C977 N979 1.384 . S
N978 C974 1.427 . S
N978 C975 1.384 . S
N979 C971 1.427 . S
N979 C977 1.384 . S
H980 C986 0.930 . S
H981 C990 0.928 1_545 S
H982 C995 0.929 . S
H983 C993 0.929 . S
H984 C988 0.929 . S
H985 C994 0.929 . S
C986 H980 0.930 . S
C986 C987 1.367 . S
C986 C994 1.378 . S
C987 C986 1.367 . S
C987 C995 1.433 . S
C988 H984 0.929 . S
C988 C990 1.378 . S
C988 C992 1.350 . S
C989 C992 1.463 . S
C989 C994 1.350 . S
C989 N997 1.427 . S
C990 H981 0.928 1_565 S
C990 C988 1.378 . S
C990 C991 1.367 . S
C991 C990 1.367 . S
C991 C993 1.433 . S
C992 C988 1.350 . S
C992 C989 1.463 . S
C992 N996 1.427 . S
C993 H983 0.929 . S
C993 C991 1.433 . S
C993 N996 1.384 . S
C994 H985 0.929 . S
C994 C986 1.378 . S
C994 C989 1.350 . S
C995 H982 0.929 . S
C995 C987 1.433 . S
C995 N997 1.384 . S
N996 C992 1.427 . S
N996 C993 1.384 . S
N997 C989 1.427 . S
N997 C995 1.384 . S
H998 C1004 0.930 . S
H999 C1008 0.930 . S
H1000 C1013 0.929 1_455 S
H1001 C1011 0.929 . S
H1002 C1006 0.929 . S
H1003 C1012 0.929 . S
C1004 H998 0.930 . S
C1004 C1005 1.367 . S
C1004 C1012 1.378 . S
C1005 C1004 1.367 . S
C1005 C1013 1.433 . S
C1006 H1002 0.929 . S
C1006 C1008 1.378 . S
C1006 C1010 1.350 . S
C1007 C1010 1.463 . S
C1007 C1012 1.350 . S
C1007 N1015 1.427 . S
C1008 H999 0.930 . S
C1008 C1006 1.378 . S
C1008 C1009 1.367 . S
C1009 C1008 1.367 . S
C1009 C1011 1.433 . S
C1010 C1006 1.350 . S
C1010 C1007 1.463 . S
C1010 N1014 1.427 . S
C1011 H1001 0.929 . S
C1011 C1009 1.433 . S
C1011 N1014 1.384 . S
C1012 H1003 0.929 . S
C1012 C1004 1.378 . S
C1012 C1007 1.350 . S
C1013 H1000 0.929 1_655 S
C1013 C1005 1.433 . S
C1013 N1015 1.384 . S
N1014 C1010 1.427 . S
N1014 C1011 1.384 . S
N1015 C1007 1.427 . S
N1015 C1013 1.384 . S
H1016 C1022 0.930 . S
H1017 C1026 0.930 . S
H1018 C1031 0.929 . S
H1019 C1029 0.929 . S
H1020 C1024 0.929 . S
H1021 C1030 0.929 . S
C1022 H1016 0.930 . S
C1022 C1023 1.367 . S
C1022 C1030 1.378 . S
C1023 C1022 1.367 . S
C1023 C1031 1.433 . S
C1024 H1020 0.929 . S
C1024 C1026 1.378 . S
C1024 C1028 1.350 . S
C1025 C1028 1.463 . S
C1025 C1030 1.350 . S
C1025 N1033 1.427 . S
C1026 H1017 0.930 . S
C1026 C1024 1.378 . S
C1026 C1027 1.367 . S
C1027 C1026 1.367 . S
C1027 C1029 1.433 . S
C1028 C1024 1.350 . S
C1028 C1025 1.463 . S
C1028 N1032 1.427 . S
C1029 H1019 0.929 . S
C1029 C1027 1.433 . S
C1029 N1032 1.384 . S
C1030 H1021 0.929 . S
C1030 C1022 1.378 . S
C1030 C1025 1.350 . S
C1031 H1018 0.929 . S
C1031 C1023 1.433 . S
C1031 N1033 1.384 . S
N1032 C1028 1.427 . S
N1032 C1029 1.384 . S
N1033 C1025 1.427 . S
N1033 C1031 1.384 . S
H1034 C1040 0.930 1_565 S
H1035 C1044 0.930 . S
H1036 C1049 0.929 . S
H1037 C1047 0.929 1_655 S
H1038 C1042 0.929 . S
H1039 C1048 0.929 . S
C1040 H1034 0.930 1_545 S
C1040 C1041 1.367 . S
C1040 C1048 1.378 . S
C1041 C1040 1.367 . S
C1041 C1049 1.433 . S
C1042 H1038 0.929 . S
C1042 C1044 1.378 . S
C1042 C1046 1.350 . S
C1043 C1046 1.463 . S
C1043 C1048 1.350 . S
C1043 N1051 1.427 . S
C1044 H1035 0.930 . S
C1044 C1042 1.378 . S
C1044 C1045 1.367 . S
C1045 C1044 1.367 . S
C1045 C1047 1.433 . S
C1046 C1042 1.350 . S
C1046 C1043 1.463 . S
C1046 N1050 1.427 . S
C1047 H1037 0.929 1_455 S
C1047 C1045 1.433 . S
C1047 N1050 1.384 . S
C1048 H1039 0.929 . S
C1048 C1040 1.378 . S
C1048 C1043 1.350 . S
C1049 H1036 0.929 . S
C1049 C1041 1.433 . S
C1049 N1051 1.384 . S
N1050 C1046 1.427 . S
N1050 C1047 1.384 . S
N1051 C1043 1.427 . S
N1051 C1049 1.384 . S
H1052 C1058 0.930 . S
H1053 C1062 0.930 . S
H1054 C1067 0.929 1_565 S
H1055 C1065 0.929 . S
H1056 C1060 0.929 . S
H1057 C1066 0.929 . S
C1058 H1052 0.930 . S
C1058 C1059 1.367 . S
C1058 C1066 1.378 . S
C1059 C1058 1.367 . S
C1059 C1067 1.433 . S
C1060 H1056 0.929 . S
C1060 C1062 1.378 . S
C1060 C1064 1.350 . S
C1061 C1064 1.463 . S
C1061 C1066 1.350 . S
C1061 N1069 1.427 . S
C1062 H1053 0.930 . S
C1062 C1060 1.378 . S
C1062 C1063 1.367 . S
C1063 C1062 1.367 . S
C1063 C1065 1.433 . S
C1064 C1060 1.350 . S
C1064 C1061 1.463 . S
C1064 N1068 1.427 . S
C1065 H1055 0.929 . S
C1065 C1063 1.433 . S
C1065 N1068 1.384 . S
C1066 H1057 0.929 . S
C1066 C1058 1.378 . S
C1066 C1061 1.350 . S
C1067 H1054 0.929 1_545 S
C1067 C1059 1.433 . S
C1067 N1069 1.384 . S
N1068 C1064 1.427 . S
N1068 C1065 1.384 . S
N1069 C1061 1.427 . S
N1069 C1067 1.384 . S
H1070 C1076 0.930 . S
H1071 C1080 0.930 . S
H1072 C1085 0.929 . S
H1073 C1083 0.929 . S
H1074 C1078 0.929 . S
H1075 C1084 0.929 . S
C1076 H1070 0.930 . S
C1076 C1077 1.367 . S
C1076 C1084 1.378 . S
C1077 C1076 1.367 . S
C1077 C1085 1.433 . S
C1078 H1074 0.929 . S
C1078 C1080 1.378 . S
C1078 C1082 1.350 . S
C1079 C1082 1.463 . S
C1079 C1084 1.350 . S
C1079 N1087 1.427 . S
C1080 H1071 0.930 . S
C1080 C1078 1.378 . S
C1080 C1081 1.367 . S
C1081 C1080 1.367 . S
C1081 C1083 1.433 . S
C1082 C1078 1.350 . S
C1082 C1079 1.463 . S
C1082 N1086 1.427 . S
C1083 H1073 0.929 . S
C1083 C1081 1.433 . S
C1083 N1086 1.384 . S
C1084 H1075 0.929 . S
C1084 C1076 1.378 . S
C1084 C1079 1.350 . S
C1085 H1072 0.929 . S
C1085 C1077 1.433 . S
C1085 N1087 1.384 . S
N1086 C1082 1.427 . S
N1086 C1083 1.384 . S
N1087 C1079 1.427 . S
N1087 C1085 1.384 . S
H1088 C1094 0.930 . S
H1089 C1098 0.930 . S
H1090 C1103 0.929 . S
H1091 C1101 0.929 . S
H1092 C1096 0.929 . S
H1093 C1102 0.929 . S
C1094 H1088 0.930 . S
C1094 C1095 1.367 . S
C1094 C1102 1.378 . S
C1095 C1094 1.367 . S
C1095 C1103 1.433 . S
C1096 H1092 0.929 . S
C1096 C1098 1.378 . S
C1096 C1100 1.350 . S
C1097 C1100 1.463 . S
C1097 C1102 1.350 . S
C1097 N1105 1.427 . S
C1098 H1089 0.930 . S
C1098 C1096 1.378 . S
C1098 C1099 1.367 . S
C1099 C1098 1.367 . S
C1099 C1101 1.433 . S
C1100 C1096 1.350 . S
C1100 C1097 1.463 . S
C1100 N1104 1.427 . S
C1101 H1091 0.929 . S
C1101 C1099 1.433 . S
C1101 N1104 1.384 . S
C1102 H1093 0.929 . S
C1102 C1094 1.378 . S
C1102 C1097 1.350 . S
C1103 H1090 0.929 . S
C1103 C1095 1.433 . S
C1103 N1105 1.384 . S
N1104 C1100 1.427 . S
N1104 C1101 1.384 . S
N1105 C1097 1.427 . S
N1105 C1103 1.384 . S
H1106 C1112 0.930 . S
H1107 C1116 0.930 1_455 S
H1108 C1121 0.929 . S
H1109 C1119 0.929 . S
H1110 C1114 0.929 . S
H1111 C1120 0.929 . S
C1112 H1106 0.930 . S
C1112 C1113 1.367 . S
C1112 C1120 1.378 . S
C1113 C1112 1.367 . S
C1113 C1121 1.433 . S
C1114 H1110 0.929 . S
C1114 C1116 1.378 . S
C1114 C1118 1.350 . S
C1115 C1118 1.463 . S
C1115 C1120 1.350 . S
C1115 N1123 1.427 . S
C1116 H1107 0.930 1_655 S
C1116 C1114 1.378 . S
C1116 C1117 1.367 . S
C1117 C1116 1.367 . S
C1117 C1119 1.433 . S
C1118 C1114 1.350 . S
C1118 C1115 1.463 . S
C1118 N1122 1.427 . S
C1119 H1109 0.929 . S
C1119 C1117 1.433 . S
C1119 N1122 1.384 . S
C1120 H1111 0.929 . S
C1120 C1112 1.378 . S
C1120 C1115 1.350 . S
C1121 H1108 0.929 . S
C1121 C1113 1.433 . S
C1121 N1123 1.384 . S
N1122 C1118 1.427 . S
N1122 C1119 1.384 . S
N1123 C1115 1.427 . S
N1123 C1121 1.384 . S
H1124 C1130 0.930 . S
H1125 C1134 0.930 . S
H1126 C1139 0.929 . S
H1127 C1137 0.929 . S
H1128 C1132 0.929 . S
H1129 C1138 0.929 . S
C1130 H1124 0.930 . S
C1130 C1131 1.367 . S
C1130 C1138 1.378 . S
C1131 C1130 1.367 . S
C1131 C1139 1.433 . S
C1132 H1128 0.929 . S
C1132 C1134 1.378 . S
C1132 C1136 1.350 . S
C1133 C1136 1.463 . S
C1133 C1138 1.350 . S
C1133 N1141 1.427 . S
C1134 H1125 0.930 . S
C1134 C1132 1.378 . S
C1134 C1135 1.367 . S
C1135 C1134 1.367 . S
C1135 C1137 1.433 . S
C1136 C1132 1.350 . S
C1136 C1133 1.463 . S
C1136 N1140 1.427 . S
C1137 H1127 0.929 . S
C1137 C1135 1.433 . S
C1137 N1140 1.384 . S
C1138 H1129 0.929 . S
C1138 C1130 1.378 . S
C1138 C1133 1.350 . S
C1139 H1126 0.929 . S
C1139 C1131 1.433 . S
C1139 N1141 1.384 . S
N1140 C1136 1.427 . S
N1140 C1137 1.384 . S
N1141 C1133 1.427 . S
N1141 C1139 1.384 . S
H1142 C1148 0.930 . S
H1143 C1152 0.930 . S
H1144 C1157 0.929 . S
H1145 C1155 0.929 1_455 S
H1146 C1150 0.929 . S
H1147 C1156 0.929 . S
C1148 H1142 0.930 . S
C1148 C1149 1.367 . S
C1148 C1156 1.378 . S
C1149 C1148 1.367 . S
C1149 C1157 1.433 . S
C1150 H1146 0.929 . S
C1150 C1152 1.378 . S
C1150 C1154 1.350 . S
C1151 C1154 1.463 . S
C1151 C1156 1.350 . S
C1151 N1159 1.427 . S
C1152 H1143 0.930 . S
C1152 C1150 1.378 . S
C1152 C1153 1.367 . S
C1153 C1152 1.367 . S
C1153 C1155 1.433 . S
C1154 C1150 1.350 . S
C1154 C1151 1.463 . S
C1154 N1158 1.427 . S
C1155 H1145 0.929 1_655 S
C1155 C1153 1.433 . S
C1155 N1158 1.384 . S
C1156 H1147 0.929 . S
C1156 C1148 1.378 . S
C1156 C1151 1.350 . S
C1157 H1144 0.929 . S
C1157 C1149 1.433 . S
C1157 N1159 1.384 . S
N1158 C1154 1.427 . S
N1158 C1155 1.384 . S
N1159 C1151 1.427 . S
N1159 C1157 1.384 . S
H1160 C1166 0.930 . S
H1161 C1170 0.930 . S
H1162 C1175 0.929 . S
H1163 C1173 0.929 . S
H1164 C1168 0.929 . S
H1165 C1174 0.929 . S
C1166 H1160 0.930 . S
C1166 C1167 1.367 . S
C1166 C1174 1.378 . S
C1167 C1166 1.367 . S
C1167 C1175 1.433 . S
C1168 H1164 0.929 . S
C1168 C1170 1.378 . S
C1168 C1172 1.350 . S
C1169 C1172 1.463 . S
C1169 C1174 1.350 . S
C1169 N1177 1.427 . S
C1170 H1161 0.930 . S
C1170 C1168 1.378 . S
C1170 C1171 1.367 . S
C1171 C1170 1.367 . S
C1171 C1173 1.433 . S
C1172 C1168 1.350 . S
C1172 C1169 1.463 . S
C1172 N1176 1.427 . S
C1173 H1163 0.929 . S
C1173 C1171 1.433 . S
C1173 N1176 1.384 . S
C1174 H1165 0.929 . S
C1174 C1166 1.378 . S
C1174 C1169 1.350 . S
C1175 H1162 0.929 . S
C1175 C1167 1.433 . S
C1175 N1177 1.384 . S
N1176 C1172 1.427 . S
N1176 C1173 1.384 . S
N1177 C1169 1.427 . S
N1177 C1175 1.384 . S
H1178 C1184 0.930 . S
H1179 C1188 0.930 . S
H1180 C1193 0.929 . S
H1181 C1191 0.929 . S
H1182 C1186 0.929 . S
H1183 C1192 0.929 . S
C1184 H1178 0.930 . S
C1184 C1185 1.367 . S
C1184 C1192 1.378 . S
C1185 C1184 1.367 . S
C1185 C1193 1.433 . S
C1186 H1182 0.929 . S
C1186 C1188 1.378 . S
C1186 C1190 1.350 . S
C1187 C1190 1.463 . S
C1187 C1192 1.350 . S
C1187 N1195 1.427 . S
C1188 H1179 0.930 . S
C1188 C1186 1.378 . S
C1188 C1189 1.367 . S
C1189 C1188 1.367 . S
C1189 C1191 1.433 . S
C1190 C1186 1.350 . S
C1190 C1187 1.463 . S
C1190 N1194 1.427 . S
C1191 H1181 0.929 . S
C1191 C1189 1.433 . S
C1191 N1194 1.384 . S
C1192 H1183 0.929 . S
C1192 C1184 1.378 . S
C1192 C1187 1.350 . S
C1193 H1180 0.929 . S
C1193 C1185 1.433 . S
C1193 N1195 1.384 . S
N1194 C1190 1.427 . S
N1194 C1191 1.384 . S
N1195 C1187 1.427 . S
N1195 C1193 1.384 . S
H1196 C1202 0.930 . S
H1197 C1206 0.930 . S
H1198 C1211 0.929 . S
H1199 C1209 0.929 . S
H1200 C1204 0.929 . S
H1201 C1210 0.929 . S
C1202 H1196 0.930 . S
C1202 C1203 1.367 . S
C1202 C1210 1.378 . S
C1203 C1202 1.367 . S
C1203 C1211 1.433 . S
C1204 H1200 0.929 . S
C1204 C1206 1.378 . S
C1204 C1208 1.350 . S
C1205 C1208 1.463 . S
C1205 C1210 1.350 . S
C1205 N1213 1.427 . S
C1206 H1197 0.930 . S
C1206 C1204 1.378 . S
C1206 C1207 1.367 . S
C1207 C1206 1.367 . S
C1207 C1209 1.433 . S
C1208 C1204 1.350 . S
C1208 C1205 1.463 . S
C1208 N1212 1.427 . S
C1209 H1199 0.929 . S
C1209 C1207 1.433 . S
C1209 N1212 1.384 . S
C1210 H1201 0.929 . S
C1210 C1202 1.378 . S
C1210 C1205 1.350 . S
C1211 H1198 0.929 . S
C1211 C1203 1.433 . S
C1211 N1213 1.384 . S
N1212 C1208 1.427 . S
N1212 C1209 1.384 . S
N1213 C1205 1.427 . S
N1213 C1211 1.384 . S
H1214 C1220 0.930 . S
H1215 C1224 0.930 . S
H1216 C1229 0.945 . S
H1217 C1227 0.929 . S
H1218 C1222 0.929 . S
H1219 C1228 0.929 . S
C1220 H1214 0.930 . S
C1220 C1221 1.367 . S
C1220 C1228 1.378 . S
C1221 C1220 1.367 . S
C1221 C1229 1.428 1_455 S
C1222 H1218 0.929 . S
C1222 C1224 1.378 . S
C1222 C1226 1.350 . S
C1223 C1226 1.463 . S
C1223 C1228 1.350 . S
C1223 N1231 1.427 . S
C1224 H1215 0.930 . S
C1224 C1222 1.378 . S
C1224 C1225 1.367 . S
C1225 C1224 1.367 . S
C1225 C1227 1.433 . S
C1226 C1222 1.350 . S
C1226 C1223 1.463 . S
C1226 N1230 1.427 . S
C1227 H1217 0.929 . S
C1227 C1225 1.433 . S
C1227 N1230 1.384 . S
C1228 H1219 0.929 . S
C1228 C1220 1.378 . S
C1228 C1223 1.350 . S
C1229 H1216 0.945 . S
C1229 C1221 1.428 1_655 S
C1229 N1231 1.373 1_655 S
N1230 C1226 1.427 . S
N1230 C1227 1.384 . S
N1231 C1223 1.427 . S
N1231 C1229 1.373 1_455 S
H1232 C1238 0.930 . S
H1233 C1242 0.930 . S
H1234 C1247 0.929 . S
H1235 C1245 0.929 . S
H1236 C1240 0.929 . S
H1237 C1246 0.929 . S
C1238 H1232 0.930 . S
C1238 C1239 1.367 . S
C1238 C1246 1.378 . S
C1239 C1238 1.367 . S
C1239 C1247 1.433 . S
C1240 H1236 0.929 . S
C1240 C1242 1.378 . S
C1240 C1244 1.350 . S
C1241 C1244 1.463 . S
C1241 C1246 1.350 . S
C1241 N1249 1.427 . S
C1242 H1233 0.930 . S
C1242 C1240 1.378 . S
C1242 C1243 1.367 . S
C1243 C1242 1.367 . S
C1243 C1245 1.433 . S
C1244 C1240 1.350 . S
C1244 C1241 1.463 . S
C1244 N1248 1.427 . S
C1245 H1235 0.929 . S
C1245 C1243 1.433 . S
C1245 N1248 1.384 . S
C1246 H1237 0.929 . S
C1246 C1238 1.378 . S
C1246 C1241 1.350 . S
C1247 H1234 0.929 . S
C1247 C1239 1.433 . S
C1247 N1249 1.384 . S
N1248 C1244 1.427 . S
N1248 C1245 1.384 . S
N1249 C1241 1.427 . S
N1249 C1247 1.384 . S
H1250 C1256 0.930 . S
H1251 C1260 0.930 . S
H1252 C1265 0.929 1_455 S
H1253 C1263 0.929 . S
H1254 C1258 0.929 . S
H1255 C1264 0.929 . S
C1256 H1250 0.930 . S
C1256 C1257 1.367 . S
C1256 C1264 1.378 . S
C1257 C1256 1.367 . S
C1257 C1265 1.433 . S
C1258 H1254 0.929 . S
C1258 C1260 1.378 . S
C1258 C1262 1.350 . S
C1259 C1262 1.463 . S
C1259 C1264 1.350 . S
C1259 N1267 1.427 . S
C1260 H1251 0.930 . S
C1260 C1258 1.378 . S
C1260 C1261 1.367 . S
C1261 C1260 1.367 . S
C1261 C1263 1.433 . S
C1262 C1258 1.350 . S
C1262 C1259 1.463 . S
C1262 N1266 1.427 . S
C1263 H1253 0.929 . S
C1263 C1261 1.433 . S
C1263 N1266 1.384 . S
C1264 H1255 0.929 . S
C1264 C1256 1.378 . S
C1264 C1259 1.350 . S
C1265 H1252 0.929 1_655 S
C1265 C1257 1.433 . S
C1265 N1267 1.384 . S
N1266 C1262 1.427 . S
N1266 C1263 1.384 . S
N1267 C1259 1.427 . S
N1267 C1265 1.384 . S
H1268 C1274 0.930 . S
H1269 C1278 0.930 . S
H1270 C1283 0.929 . S
H1271 C1281 0.929 . S
H1272 C1276 0.929 . S
H1273 C1282 0.929 . S
C1274 H1268 0.930 . S
C1274 C1275 1.367 . S
C1274 C1282 1.378 . S
C1275 C1274 1.367 . S
C1275 C1283 1.433 . S
C1276 H1272 0.929 . S
C1276 C1278 1.378 . S
C1276 C1280 1.350 . S
C1277 C1280 1.463 . S
C1277 C1282 1.350 . S
C1277 N1285 1.427 . S
C1278 H1269 0.930 . S
C1278 C1276 1.378 . S
C1278 C1279 1.367 . S
C1279 C1278 1.367 . S
C1279 C1281 1.433 . S
C1280 C1276 1.350 . S
C1280 C1277 1.463 . S
C1280 N1284 1.427 . S
C1281 H1271 0.929 . S
C1281 C1279 1.433 . S
C1281 N1284 1.384 . S
C1282 H1273 0.929 . S
C1282 C1274 1.378 . S
C1282 C1277 1.350 . S
C1283 H1270 0.929 . S
C1283 C1275 1.433 . S
C1283 N1285 1.384 . S
N1284 C1280 1.427 . S
N1284 C1281 1.384 . S
N1285 C1277 1.427 . S
N1285 C1283 1.384 . S
H1286 C1292 0.930 . S
H1287 C1296 0.930 1_455 S
H1288 C1301 0.929 . S
H1289 C1299 0.929 . S
H1290 C1294 0.929 . S
H1291 C1300 0.929 . S
C1292 H1286 0.930 . S
C1292 C1293 1.367 . S
C1292 C1300 1.378 . S
C1293 C1292 1.367 . S
C1293 C1301 1.433 . S
C1294 H1290 0.929 . S
C1294 C1296 1.378 . S
C1294 C1298 1.350 . S
C1295 C1298 1.463 . S
C1295 C1300 1.350 . S
C1295 N1303 1.427 . S
C1296 H1287 0.930 1_655 S
C1296 C1294 1.378 . S
C1296 C1297 1.367 . S
C1297 C1296 1.367 . S
C1297 C1299 1.433 . S
C1298 C1294 1.350 . S
C1298 C1295 1.463 . S
C1298 N1302 1.427 . S
C1299 H1289 0.929 . S
C1299 C1297 1.433 . S
C1299 N1302 1.384 . S
C1300 H1291 0.929 . S
C1300 C1292 1.378 . S
C1300 C1295 1.350 . S
C1301 H1288 0.929 . S
C1301 C1293 1.433 . S
C1301 N1303 1.384 . S
N1302 C1298 1.427 . S
N1302 C1299 1.384 . S
N1303 C1295 1.427 . S
N1303 C1301 1.384 . S
H1304 C1310 0.930 . S
H1305 C1314 0.930 . S
H1306 C1319 0.929 . S
H1307 C1317 0.929 . S
H1308 C1312 0.929 . S
H1309 C1318 0.929 . S
C1310 H1304 0.930 . S
C1310 C1311 1.367 . S
C1310 C1318 1.378 . S
C1311 C1310 1.367 . S
C1311 C1319 1.433 . S
C1312 H1308 0.929 . S
C1312 C1314 1.378 . S
C1312 C1316 1.350 . S
C1313 C1316 1.463 . S
C1313 C1318 1.350 . S
C1313 N1321 1.427 . S
C1314 H1305 0.930 . S
C1314 C1312 1.378 . S
C1314 C1315 1.367 . S
C1315 C1314 1.367 . S
C1315 C1317 1.433 . S
C1316 C1312 1.350 . S
C1316 C1313 1.463 . S
C1316 N1320 1.427 . S
C1317 H1307 0.929 . S
C1317 C1315 1.433 . S
C1317 N1320 1.384 . S
C1318 H1309 0.929 . S
C1318 C1310 1.378 . S
C1318 C1313 1.350 . S
C1319 H1306 0.929 . S
C1319 C1311 1.433 . S
C1319 N1321 1.384 . S
N1320 C1316 1.427 . S
N1320 C1317 1.384 . S
N1321 C1313 1.427 . S
N1321 C1319 1.384 . S
H1322 C1328 0.930 . S
H1323 C1332 0.930 . S
H1324 C1337 0.929 . S
H1325 C1335 0.929 . S
H1326 C1330 0.929 . S
H1327 C1336 0.929 . S
C1328 H1322 0.930 . S
C1328 C1329 1.367 . S
C1328 C1336 1.378 . S
C1329 C1328 1.367 . S
C1329 C1337 1.433 . S
C1330 H1326 0.929 . S
C1330 C1332 1.378 . S
C1330 C1334 1.350 . S
C1331 C1334 1.463 . S
C1331 C1336 1.350 . S
C1331 N1339 1.427 . S
C1332 H1323 0.930 . S
C1332 C1330 1.378 . S
C1332 C1333 1.367 . S
C1333 C1332 1.367 . S
C1333 C1335 1.433 . S
C1334 C1330 1.350 . S
C1334 C1331 1.463 . S
C1334 N1338 1.427 . S
C1335 H1325 0.929 . S
C1335 C1333 1.433 . S
C1335 N1338 1.384 . S
C1336 H1327 0.929 . S
C1336 C1328 1.378 . S
C1336 C1331 1.350 . S
C1337 H1324 0.929 . S
C1337 C1329 1.433 . S
C1337 N1339 1.384 . S
N1338 C1334 1.427 . S
N1338 C1335 1.384 . S
N1339 C1331 1.427 . S
N1339 C1337 1.384 . S
H1340 C1346 0.930 . S
H1341 C1350 0.930 . S
H1342 C1355 0.929 . S
H1343 C1353 0.929 . S
H1344 C1348 0.929 . S
H1345 C1354 0.929 . S
C1346 H1340 0.930 . S
C1346 C1347 1.367 . S
C1346 C1354 1.378 . S
C1347 C1346 1.367 . S
C1347 C1355 1.433 . S
C1348 H1344 0.929 . S
C1348 C1350 1.378 . S
C1348 C1352 1.350 . S
C1349 C1352 1.463 . S
C1349 C1354 1.350 . S
C1349 N1357 1.427 . S
C1350 H1341 0.930 . S
C1350 C1348 1.378 . S
C1350 C1351 1.367 . S
C1351 C1350 1.367 . S
C1351 C1353 1.433 . S
C1352 C1348 1.350 . S
C1352 C1349 1.463 . S
C1352 N1356 1.427 . S
C1353 H1343 0.929 . S
C1353 C1351 1.433 . S
C1353 N1356 1.384 . S
C1354 H1345 0.929 . S
C1354 C1346 1.378 . S
C1354 C1349 1.350 . S
C1355 H1342 0.929 . S
C1355 C1347 1.433 . S
C1355 N1357 1.384 . S
N1356 C1352 1.427 . S
N1356 C1353 1.384 . S
N1357 C1349 1.427 . S
N1357 C1355 1.384 . S
H1358 C1364 0.930 . S
H1359 C1368 0.930 1_655 S
H1360 C1373 0.929 . S
H1361 C1371 0.929 . S
H1362 C1366 0.929 . S
H1363 C1372 0.929 . S
C1364 H1358 0.930 . S
C1364 C1365 1.367 . S
C1364 C1372 1.378 . S
C1365 C1364 1.367 . S
C1365 C1373 1.433 . S
C1366 H1362 0.929 . S
C1366 C1368 1.378 . S
C1366 C1370 1.350 . S
C1367 C1370 1.463 . S
C1367 C1372 1.350 . S
C1367 N1375 1.427 . S
C1368 H1359 0.930 1_455 S
C1368 C1366 1.378 . S
C1368 C1369 1.367 . S
C1369 C1368 1.367 . S
C1369 C1371 1.433 . S
C1370 C1366 1.350 . S
C1370 C1367 1.463 . S
C1370 N1374 1.427 . S
C1371 H1361 0.929 . S
C1371 C1369 1.433 . S
C1371 N1374 1.384 . S
C1372 H1363 0.929 . S
C1372 C1364 1.378 . S
C1372 C1367 1.350 . S
C1373 H1360 0.929 . S
C1373 C1365 1.433 . S
C1373 N1375 1.384 . S
N1374 C1370 1.427 . S
N1374 C1371 1.384 . S
N1375 C1367 1.427 . S
N1375 C1373 1.384 . S
H1376 C1382 0.930 . S
H1377 C1386 0.930 . S
H1378 C1391 0.929 . S
H1379 C1389 0.929 . S
H1380 C1384 0.929 . S
H1381 C1390 0.929 . S
C1382 H1376 0.930 . S
C1382 C1383 1.367 . S
C1382 C1390 1.378 . S
C1383 C1382 1.367 . S
C1383 C1391 1.433 . S
C1384 H1380 0.929 . S
C1384 C1386 1.378 . S
C1384 C1388 1.350 . S
C1385 C1388 1.463 . S
C1385 C1390 1.350 . S
C1385 N1393 1.427 . S
C1386 H1377 0.930 . S
C1386 C1384 1.378 . S
C1386 C1387 1.367 . S
C1387 C1386 1.367 . S
C1387 C1389 1.433 . S
C1388 C1384 1.350 . S
C1388 C1385 1.463 . S
C1388 N1392 1.427 . S
C1389 H1379 0.929 . S
C1389 C1387 1.433 . S
C1389 N1392 1.384 . S
C1390 H1381 0.929 . S
C1390 C1382 1.378 . S
C1390 C1385 1.350 . S
C1391 H1378 0.929 . S
C1391 C1383 1.433 . S
C1391 N1393 1.384 . S
N1392 C1388 1.427 . S
N1392 C1389 1.384 . S
N1393 C1385 1.427 . S
N1393 C1391 1.384 . S
H1394 C1400 0.930 . S
H1395 C1404 0.930 . S
H1396 C1409 0.929 . S
H1397 C1407 0.929 . S
H1398 C1402 0.929 . S
H1399 C1408 0.929 . S
C1400 H1394 0.930 . S
C1400 C1401 1.367 . S
C1400 C1408 1.378 . S
C1401 C1400 1.367 . S
C1401 C1409 1.433 1_655 S
C1402 H1398 0.929 . S
C1402 C1404 1.378 . S
C1402 C1406 1.350 . S
C1403 C1406 1.463 1_665 S
C1403 C1408 1.350 . S
C1403 N1411 1.427 1_655 S
C1404 H1395 0.930 . S
C1404 C1402 1.378 . S
C1404 C1405 1.367 . S
C1405 C1404 1.367 . S
C1405 C1407 1.433 1_455 S
C1406 C1402 1.350 . S
C1406 C1403 1.463 1_445 S
C1406 N1410 1.427 1_455 S
C1407 H1397 0.929 . S
C1407 C1405 1.433 1_655 S
C1407 N1410 1.384 . S
C1408 H1399 0.929 . S
C1408 C1400 1.378 . S
C1408 C1403 1.350 . S
C1409 H1396 0.929 . S
C1409 C1401 1.433 1_455 S
C1409 N1411 1.384 . S
N1410 C1406 1.427 1_655 S
N1410 C1407 1.384 . S
N1411 C1403 1.427 1_455 S
N1411 C1409 1.384 . S
H1412 C1418 0.930 . S
H1413 C1422 0.930 . S
H1414 C1427 0.929 . S
H1415 C1425 0.929 . S
H1416 C1420 0.929 1_565 S
H1417 C1426 0.929 1_545 S
C1418 H1412 0.930 . S
C1418 C1419 1.367 . S
C1418 C1426 1.378 . S
C1419 C1418 1.367 . S
C1419 C1427 1.433 . S
C1420 H1416 0.929 1_545 S
C1420 C1422 1.378 . S
C1420 C1424 1.350 . S
C1421 C1424 1.463 1_565 S
C1421 C1426 1.350 . S
C1421 N1429 1.427 . S
C1422 H1413 0.930 . S
C1422 C1420 1.378 . S
C1422 C1423 1.367 . S
C1423 C1422 1.367 . S
C1423 C1425 1.433 . S
C1424 C1420 1.350 . S
C1424 C1421 1.463 1_545 S
C1424 N1428 1.427 . S
C1425 H1415 0.929 . S
C1425 C1423 1.433 . S
C1425 N1428 1.384 . S
C1426 H1417 0.929 1_565 S
C1426 C1418 1.378 . S
C1426 C1421 1.350 . S
C1427 H1414 0.929 . S
C1427 C1419 1.433 . S
C1427 N1429 1.384 . S
N1428 C1424 1.427 . S
N1428 C1425 1.384 . S
N1429 C1421 1.427 . S
N1429 C1427 1.384 . S
H1430 C1436 0.930 . S
H1431 C1440 0.930 . S
H1432 C1445 0.929 . S
H1433 C1443 0.929 . S
H1434 C1438 0.929 . S
H1435 C1444 0.929 . S
C1436 H1430 0.930 . S
C1436 C1437 1.367 . S
C1436 C1444 1.378 . S
C1437 C1436 1.367 . S
C1437 C1445 1.433 1_455 S
C1438 H1434 0.929 . S
C1438 C1440 1.378 . S
C1438 C1442 1.350 . S
C1439 C1442 1.463 1_455 S
C1439 C1444 1.350 . S
C1439 N1447 1.427 1_455 S
C1440 H1431 0.930 . S
C1440 C1438 1.378 . S
C1440 C1441 1.367 . S
C1441 C1440 1.367 . S
C1441 C1443 1.433 1_655 S
C1442 C1438 1.350 . S
C1442 C1439 1.463 1_655 S
C1442 N1446 1.427 1_655 S
C1443 H1433 0.929 . S
C1443 C1441 1.433 1_455 S
C1443 N1446 1.384 . S
C1444 H1435 0.929 . S
C1444 C1436 1.378 . S
C1444 C1439 1.350 . S
C1445 H1432 0.929 . S
C1445 C1437 1.433 1_655 S
C1445 N1447 1.384 . S
N1446 C1442 1.427 1_455 S
N1446 C1443 1.384 . S
N1447 C1439 1.427 1_655 S
N1447 C1445 1.384 . S
H1448 C1454 0.930 . S
H1449 C1458 0.930 . S
H1450 C1463 0.929 . S
H1451 C1461 0.929 . S
H1452 C1456 0.929 . S
H1453 C1462 0.929 . S
C1454 H1448 0.930 . S
C1454 C1455 1.367 . S
C1454 C1462 1.378 . S
C1455 C1454 1.367 . S
C1455 C1463 1.433 . S
C1456 H1452 0.929 . S
C1456 C1458 1.378 . S
C1456 C1460 1.350 . S
C1457 C1460 1.463 . S
C1457 C1462 1.350 . S
C1457 N1465 1.427 . S
C1458 H1449 0.930 . S
C1458 C1456 1.378 . S
C1458 C1459 1.367 . S
C1459 C1458 1.367 . S
C1459 C1461 1.433 . S
C1460 C1456 1.350 . S
C1460 C1457 1.463 . S
C1460 N1464 1.427 . S
C1461 H1451 0.929 . S
C1461 C1459 1.433 . S
C1461 N1464 1.384 . S
C1462 H1453 0.929 . S
C1462 C1454 1.378 . S
C1462 C1457 1.350 . S
C1463 H1450 0.929 . S
C1463 C1455 1.433 . S
C1463 N1465 1.384 . S
N1464 C1460 1.427 . S
N1464 C1461 1.384 . S
N1465 C1457 1.427 . S
N1465 C1463 1.384 . S
H1466 C1472 0.930 . S
H1467 C1476 0.930 . S
H1468 C1481 0.929 . S
H1469 C1479 0.929 . S
H1470 C1474 0.946 . S
H1471 C1480 0.946 . S
C1472 H1466 0.930 . S
C1472 C1473 1.367 . S
C1472 C1480 1.366 1_565 S
C1473 C1472 1.367 . S
C1473 C1481 1.433 . S
C1474 H1470 0.946 . S
C1474 C1476 1.366 1_565 S
C1474 C1478 1.344 1_565 S
C1475 C1478 1.463 1_565 S
C1475 C1480 1.344 1_565 S
C1475 N1483 1.427 . S
C1476 H1467 0.930 . S
C1476 C1474 1.366 1_545 S
C1476 C1477 1.367 . S
C1477 C1476 1.367 . S
C1477 C1479 1.433 . S
C1478 C1474 1.344 1_545 S
C1478 C1475 1.463 1_545 S
C1478 N1482 1.427 . S
C1479 H1469 0.929 . S
C1479 C1477 1.433 . S
C1479 N1482 1.384 . S
C1480 H1471 0.946 . S
C1480 C1472 1.366 1_545 S
C1480 C1475 1.344 1_545 S
C1481 H1468 0.929 . S
C1481 C1473 1.433 . S
C1481 N1483 1.384 . S
N1482 C1478 1.427 . S
N1482 C1479 1.384 . S
N1483 C1475 1.427 . S
N1483 C1481 1.384 . S
H1484 C1490 0.930 . S
H1485 C1494 0.930 . S
H1486 C1499 0.929 . S
H1487 C1497 0.929 . S
H1488 C1492 0.929 . S
H1489 C1498 0.929 . S
C1490 H1484 0.930 . S
C1490 C1491 1.367 . S
C1490 C1498 1.378 . S
C1491 C1490 1.367 . S
C1491 C1499 1.433 1_455 S
C1492 H1488 0.929 . S
C1492 C1494 1.378 . S
C1492 C1496 1.350 . S
C1493 C1496 1.463 1_455 S
C1493 C1498 1.350 . S
C1493 N1501 1.427 1_455 S
C1494 H1485 0.930 . S
C1494 C1492 1.378 . S
C1494 C1495 1.367 . S
C1495 C1494 1.367 . S
C1495 C1497 1.433 1_655 S
C1496 C1492 1.350 . S
C1496 C1493 1.463 1_655 S
C1496 N1500 1.427 1_655 S
C1497 H1487 0.929 . S
C1497 C1495 1.433 1_455 S
C1497 N1500 1.384 . S
C1498 H1489 0.929 . S
C1498 C1490 1.378 . S
C1498 C1493 1.350 . S
C1499 H1486 0.929 . S
C1499 C1491 1.433 1_655 S
C1499 N1501 1.384 . S
N1500 C1496 1.427 1_455 S
N1500 C1497 1.384 . S
N1501 C1493 1.427 1_655 S
N1501 C1499 1.384 . S
H1502 C1508 0.930 . S
H1503 C1512 0.930 . S
H1504 C1517 0.929 . S
H1505 C1515 0.929 . S
H1506 C1510 0.929 1_554 S
H1507 C1516 0.929 1_556 S
C1508 H1502 0.930 . S
C1508 C1509 1.367 . S
C1508 C1516 1.378 . S
C1509 C1508 1.367 . S
C1509 C1517 1.433 . S
C1510 H1506 0.929 1_556 S
C1510 C1512 1.378 . S
C1510 C1514 1.350 . S
C1511 C1514 1.463 1_554 S
C1511 C1516 1.350 . S
C1511 N1519 1.427 . S
C1512 H1503 0.930 . S
C1512 C1510 1.378 . S
C1512 C1513 1.367 . S
C1513 C1512 1.367 . S
C1513 C1515 1.433 . S
C1514 C1510 1.350 . S
C1514 C1511 1.463 1_556 S
C1514 N1518 1.427 . S
C1515 H1505 0.929 . S
C1515 C1513 1.433 . S
C1515 N1518 1.384 . S
C1516 H1507 0.929 1_554 S
C1516 C1508 1.378 . S
C1516 C1511 1.350 . S
C1517 H1504 0.929 . S
C1517 C1509 1.433 . S
C1517 N1519 1.384 . S
N1518 C1514 1.427 . S
N1518 C1515 1.384 . S
N1519 C1511 1.427 . S
N1519 C1517 1.384 . S
H1520 C1526 0.930 . S
H1521 C1530 0.930 . S
H1522 C1535 0.929 . S
H1523 C1533 0.929 . S
H1524 C1528 0.929 . S
H1525 C1534 0.929 . S
C1526 H1520 0.930 . S
C1526 C1527 1.367 . S
C1526 C1534 1.378 . S
C1527 C1526 1.367 . S
C1527 C1535 1.433 1_455 S
C1528 H1524 0.929 . S
C1528 C1530 1.378 . S
C1528 C1532 1.350 . S
C1529 C1532 1.463 1_456 S
C1529 C1534 1.350 . S
C1529 N1537 1.427 1_455 S
C1530 H1521 0.930 . S
C1530 C1528 1.378 . S
C1530 C1531 1.367 . S
C1531 C1530 1.367 . S
C1531 C1533 1.433 1_655 S
C1532 C1528 1.350 . S
C1532 C1529 1.463 1_654 S
C1532 N1536 1.427 1_655 S
C1533 H1523 0.929 . S
C1533 C1531 1.433 1_455 S
C1533 N1536 1.384 . S
C1534 H1525 0.929 . S
C1534 C1526 1.378 . S
C1534 C1529 1.350 . S
C1535 H1522 0.929 . S
C1535 C1527 1.433 1_655 S
C1535 N1537 1.384 . S
N1536 C1532 1.427 1_455 S
N1536 C1533 1.384 . S
N1537 C1529 1.427 1_655 S
N1537 C1535 1.384 . S
H1538 C1544 0.930 . S
H1539 C1548 0.930 . S
H1540 C1553 0.929 . S
H1541 C1551 0.929 . S
H1542 C1546 0.929 . S
H1543 C1552 0.929 . S
C1544 H1538 0.930 . S
C1544 C1545 1.367 . S
C1544 C1552 1.378 . S
C1545 C1544 1.367 . S
C1545 C1553 1.433 . S
C1546 H1542 0.929 . S
C1546 C1548 1.378 . S
C1546 C1550 1.350 . S
C1547 C1550 1.463 . S
C1547 C1552 1.350 . S
C1547 N1555 1.427 . S
C1548 H1539 0.930 . S
C1548 C1546 1.378 . S
C1548 C1549 1.367 . S
C1549 C1548 1.367 . S
C1549 C1551 1.433 . S
C1550 C1546 1.350 . S
C1550 C1547 1.463 . S
C1550 N1554 1.427 . S
C1551 H1541 0.929 . S
C1551 C1549 1.433 . S
C1551 N1554 1.384 . S
C1552 H1543 0.929 . S
C1552 C1544 1.378 . S
C1552 C1547 1.350 . S
C1553 H1540 0.929 . S
C1553 C1545 1.433 . S
C1553 N1555 1.384 . S
N1554 C1550 1.427 . S
N1554 C1551 1.384 . S
N1555 C1547 1.427 . S
N1555 C1553 1.384 . S
H1556 C1562 0.930 . S
H1557 C1566 0.930 . S
H1558 C1571 0.929 . S
H1559 C1569 0.929 . S
H1560 C1564 0.929 . S
H1561 C1570 0.929 . S
C1562 H1556 0.930 . S
C1562 C1563 1.367 . S
C1562 C1570 1.378 . S
C1563 C1562 1.367 . S
C1563 C1571 1.433 . S
C1564 H1560 0.929 . S
C1564 C1566 1.378 . S
C1564 C1568 1.350 . S
C1565 C1568 1.463 1_556 S
C1565 C1570 1.350 . S
C1565 N1573 1.427 . S
C1566 H1557 0.930 . S
C1566 C1564 1.378 . S
C1566 C1567 1.367 . S
C1567 C1566 1.367 . S
C1567 C1569 1.433 . S
C1568 C1564 1.350 . S
C1568 C1565 1.463 1_554 S
C1568 N1572 1.427 . S
C1569 H1559 0.929 . S
C1569 C1567 1.433 . S
C1569 N1572 1.384 . S
C1570 H1561 0.929 . S
C1570 C1562 1.378 . S
C1570 C1565 1.350 . S
C1571 H1558 0.929 . S
C1571 C1563 1.433 . S
C1571 N1573 1.384 . S
N1572 C1568 1.427 . S
N1572 C1569 1.384 . S
N1573 C1565 1.427 . S
N1573 C1571 1.384 . S
H1574 C1580 0.930 . S
H1575 C1584 0.930 . S
H1576 C1589 0.929 . S
H1577 C1587 0.929 . S
H1578 C1582 0.929 . S
H1579 C1588 0.929 . S
C1580 H1574 0.930 . S
C1580 C1581 1.367 . S
C1580 C1588 1.378 . S
C1581 C1580 1.367 . S
C1581 C1589 1.433 . S
C1582 H1578 0.929 . S
C1582 C1584 1.378 . S
C1582 C1586 1.350 . S
C1583 C1586 1.463 . S
C1583 C1588 1.350 . S
C1583 N1591 1.427 . S
C1584 H1575 0.930 . S
C1584 C1582 1.378 . S
C1584 C1585 1.367 . S
C1585 C1584 1.367 . S
C1585 C1587 1.433 . S
C1586 C1582 1.350 . S
C1586 C1583 1.463 . S
C1586 N1590 1.427 . S
C1587 H1577 0.929 . S
C1587 C1585 1.433 . S
C1587 N1590 1.384 . S
C1588 H1579 0.929 . S
C1588 C1580 1.378 . S
C1588 C1583 1.350 . S
C1589 H1576 0.929 . S
C1589 C1581 1.433 . S
C1589 N1591 1.384 . S
N1590 C1586 1.427 . S
N1590 C1587 1.384 . S
N1591 C1583 1.427 . S
N1591 C1589 1.384 . S
H1592 C1598 0.930 . S
H1593 C1602 0.930 . S
H1594 C1607 0.929 . S
H1595 C1605 0.929 . S
H1596 C1600 0.929 1_556 S
H1597 C1606 0.929 1_554 S
C1598 H1592 0.930 . S
C1598 C1599 1.367 . S
C1598 C1606 1.378 . S
C1599 C1598 1.367 . S
C1599 C1607 1.433 . S
C1600 H1596 0.929 1_554 S
C1600 C1602 1.378 . S
C1600 C1604 1.350 . S
C1601 C1604 1.463 1_546 S
C1601 C1606 1.350 . S
C1601 N1609 1.427 . S
C1602 H1593 0.930 . S
C1602 C1600 1.378 . S
C1602 C1603 1.367 . S
C1603 C1602 1.367 . S
C1603 C1605 1.433 . S
C1604 C1600 1.350 . S
C1604 C1601 1.463 1_564 S
C1604 N1608 1.427 . S
C1605 H1595 0.929 . S
C1605 C1603 1.433 . S
C1605 N1608 1.384 . S
C1606 H1597 0.929 1_556 S
C1606 C1598 1.378 . S
C1606 C1601 1.350 . S
C1607 H1594 0.929 . S
C1607 C1599 1.433 . S
C1607 N1609 1.384 . S
N1608 C1604 1.427 . S
N1608 C1605 1.384 . S
N1609 C1601 1.427 . S
N1609 C1607 1.384 . S
H1610 C1616 0.930 . S
H1611 C1620 0.930 . S
H1612 C1625 0.929 . S
H1613 C1623 0.929 . S
H1614 C1618 0.929 . S
H1615 C1624 0.929 . S
C1616 H1610 0.930 . S
C1616 C1617 1.367 . S
C1616 C1624 1.378 . S
C1617 C1616 1.367 . S
C1617 C1625 1.433 . S
C1618 H1614 0.929 . S
C1618 C1620 1.378 . S
C1618 C1622 1.350 . S
C1619 C1622 1.463 . S
C1619 C1624 1.350 . S
C1619 N1627 1.427 . S
C1620 H1611 0.930 . S
C1620 C1618 1.378 . S
C1620 C1621 1.367 . S
C1621 C1620 1.367 . S
C1621 C1623 1.433 . S
C1622 C1618 1.350 . S
C1622 C1619 1.463 . S
C1622 N1626 1.427 . S
C1623 H1613 0.929 . S
C1623 C1621 1.433 . S
C1623 N1626 1.384 . S
C1624 H1615 0.929 . S
C1624 C1616 1.378 . S
C1624 C1619 1.350 . S
C1625 H1612 0.929 . S
C1625 C1617 1.433 . S
C1625 N1627 1.384 . S
N1626 C1622 1.427 . S
N1626 C1623 1.384 . S
N1627 C1619 1.427 . S
N1627 C1625 1.384 . S
H1628 C1634 0.930 . S
H1629 C1638 0.930 . S
H1630 C1643 0.929 . S
H1631 C1641 0.929 . S
H1632 C1636 0.929 . S
H1633 C1642 0.929 . S
C1634 H1628 0.930 . S
C1634 C1635 1.367 . S
C1634 C1642 1.378 . S
C1635 C1634 1.367 . S
C1635 C1643 1.433 . S
C1636 H1632 0.929 . S
C1636 C1638 1.378 . S
C1636 C1640 1.350 . S
C1637 C1640 1.463 . S
C1637 C1642 1.350 . S
C1637 N1645 1.427 . S
C1638 H1629 0.930 . S
C1638 C1636 1.378 . S
C1638 C1639 1.367 . S
C1639 C1638 1.367 . S
C1639 C1641 1.433 . S
C1640 C1636 1.350 . S
C1640 C1637 1.463 . S
C1640 N1644 1.427 . S
C1641 H1631 0.929 . S
C1641 C1639 1.433 . S
C1641 N1644 1.384 . S
C1642 H1633 0.929 . S
C1642 C1634 1.378 . S
C1642 C1637 1.350 . S
C1643 H1630 0.929 . S
C1643 C1635 1.433 . S
C1643 N1645 1.384 . S
N1644 C1640 1.427 . S
N1644 C1641 1.384 . S
N1645 C1637 1.427 . S
N1645 C1643 1.384 . S
H1646 C1652 0.930 . S
H1647 C1656 0.930 . S
H1648 C1661 0.929 . S
H1649 C1659 0.929 . S
H1650 C1654 0.929 . S
H1651 C1660 0.929 . S
C1652 H1646 0.930 . S
C1652 C1653 1.367 . S
C1652 C1660 1.378 . S
C1653 C1652 1.367 . S
C1653 C1661 1.433 . S
C1654 H1650 0.929 . S
C1654 C1656 1.378 . S
C1654 C1658 1.350 . S
C1655 C1658 1.463 . S
C1655 C1660 1.350 . S
C1655 N1663 1.427 . S
C1656 H1647 0.930 . S
C1656 C1654 1.378 . S
C1656 C1657 1.367 . S
C1657 C1656 1.367 . S
C1657 C1659 1.433 . S
C1658 C1654 1.350 . S
C1658 C1655 1.463 . S
C1658 N1662 1.427 . S
C1659 H1649 0.929 . S
C1659 C1657 1.433 . S
C1659 N1662 1.384 . S
C1660 H1651 0.929 . S
C1660 C1652 1.378 . S
C1660 C1655 1.350 . S
C1661 H1648 0.929 . S
C1661 C1653 1.433 . S
C1661 N1663 1.384 . S
N1662 C1658 1.427 . S
N1662 C1659 1.384 . S
N1663 C1655 1.427 . S
N1663 C1661 1.384 . S
C519 C8 1.351 . S
C523 C411 1.351 . S
C537 C27 1.356 1_655 S
C541 C392 1.356 . S
C555 C59 1.351 . S
C559 C424 1.351 . S
C573 C40 1.355 1_655 S
C577 C443 1.355 . S
C591 C479 1.354 . S
C595 C87 1.354 . S
C609 C95 1.337 1_455 S
C613 C471 1.351 . S
C627 C113 1.351 . S
C631 C504 1.351 . S
C645 C120 1.352 1_455 S
C649 C497 1.352 . S
C663 C283 1.353 . S
C667 C136 1.353 . S
C681 C264 1.353 . S
C685 C155 1.338 1_655 S
C699 C296 1.354 . S
C703 C187 1.354 . S
C717 C315 1.355 . S
C721 C168 1.355 1_655 S
C735 C351 1.353 . S
C739 C215 1.353 . S
C753 C223 1.353 1_455 S
C757 C343 1.353 . S
C771 C376 1.351 . S
C775 C241 1.351 . S
C789 C248 1.351 1_455 S
C793 C369 1.351 . S
C807 C30 1.184 1_565 S
C811 C406 1.184 . S
C825 C22 1.174 1_655 S
C829 C414 1.174 . S
C843 C54 1.186 . S
C847 C446 1.186 . S
C861 C438 1.185 . S
C865 C62 1.185 1_665 S
C879 C472 1.181 . S
C883 C81 1.181 1_545 S
C897 C465 1.172 . S
C901 C88 1.172 1_455 S
C915 C511 1.173 . S
C919 C119 1.173 . S
C933 C503 1.178 . S
C937 C127 1.178 1_445 S
C951 C158 1.188 . S
C955 C278 1.188 . S
C969 C150 1.171 1_655 S
C973 C286 1.171 1_565 S
C987 C182 1.187 . S
C991 C318 1.187 1_565 S
C1005 C190 1.187 1_655 S
C1009 C310 1.187 . S
C1023 C344 1.183 . S
C1027 C209 1.183 . S
C1041 C337 1.185 1_545 S
C1045 C216 1.185 1_455 S
C1059 C383 1.171 1_545 S
C1063 C247 1.171 . S
C1077 C255 1.180 1_455 S
C1081 C375 1.180 . S
C1095 C31 1.624 . S
C1099 C319 1.624 . S
C1113 C305 1.615 . S
C1117 C17 1.619 1_655 S
C1131 C273 1.625 . S
C1135 C49 1.622 . S
C1149 C287 1.626 . S
C1153 C63 1.626 1_655 S
C1167 C382 1.621 . S
C1171 C86 1.624 . S
C1185 C72 1.620 1_455 S
C1189 C379 1.622 . S
C1203 C123 1.618 . S
C1207 C328 1.613 . S
C1221 C126 1.625 1_455 S
C1225 C342 1.629 . S
C1239 C447 1.623 . S
C1243 C159 1.623 . S
C1257 C145 1.624 1_655 S
C1261 C433 1.622 . S
C1275 C177 1.623 . S
C1279 C401 1.619 . S
C1293 C415 1.620 . S
C1297 C191 1.620 1_655 S
C1311 C510 1.615 . S
C1315 C214 1.621 . S
C1329 C507 1.622 . S
C1333 C200 1.616 1_455 S
C1347 C456 1.624 . S
C1351 C251 1.627 . S
C1365 C470 1.619 . S
C1369 C254 1.615 1_455 S
C1383 C475 1.756 . S
C1387 C24 1.756 . S
C1401 C94 1.671 . S
C1405 C23 1.671 . S
C1419 C374 1.749 . S
C1423 C55 1.681 . S
C1437 C56 1.747 . S
C1441 C232 1.682 . S
C1455 C408 1.756 . S
C1459 C91 1.756 . S
C1473 C118 1.744 . S
C1477 C311 1.675 . S
C1491 C184 1.738 . S
C1495 C104 1.671 . S
C1509 C347 1.744 . S
C1513 C152 1.744 . S
C1527 C151 1.672 . S
C1531 C222 1.672 . S
C1545 C183 1.670 . S
C1549 C502 1.739 . S
C1563 C280 1.738 . S
C1567 C219 1.738 . S
C1581 C439 1.683 . S
C1585 C246 1.751 . S
C1599 C279 1.690 . S
C1603 C350 1.690 . S
C1617 C312 1.756 . S
C1621 C488 1.691 . S
C1635 C440 1.756 . S
C1639 C360 1.691 . S
C1653 C478 1.678 . S
C1657 C407 1.678 . S
