# Generated by pormake.
# Topology lta, (4)-cn, num edge types: 1
# Building blocks:
#     Node 0, Type 0, BuildingBlock: KUFVIS_clean_sbu_0, # of connection points: 4
#     Node 1, Type 0, BuildingBlock: KUFVIS_clean_sbu_0, # of connection points: 4
#     Node 2, Type 0, BuildingBlock: KUFVIS_clean_sbu_0, # of connection points: 4
#     Node 3, Type 0, BuildingBlock: KUFVIS_clean_sbu_0, # of connection points: 4
#     Node 4, Type 0, BuildingBlock: KUFVIS_clean_sbu_0, # of connection points: 4
#     Node 5, Type 0, BuildingBlock: KUFVIS_clean_sbu_0, # of connection points: 4
#     Node 6, Type 0, BuildingBlock: KUFVIS_clean_sbu_0, # of connection points: 4
#     Node 7, Type 0, BuildingBlock: KUFVIS_clean_sbu_0, # of connection points: 4
#     Node 8, Type 0, BuildingBlock: KUFVIS_clean_sbu_0, # of connection points: 4
#     Node 9, Type 0, BuildingBlock: KUFVIS_clean_sbu_0, # of connection points: 4
#     Node 10, Type 0, BuildingBlock: KUFVIS_clean_sbu_0, # of connection points: 4
#     Node 11, Type 0, BuildingBlock: KUFVIS_clean_sbu_0, # of connection points: 4
#     Node 12, Type 0, BuildingBlock: KUFVIS_clean_sbu_0, # of connection points: 4
#     Node 13, Type 0, BuildingBlock: KUFVIS_clean_sbu_0, # of connection points: 4
#     Node 14, Type 0, BuildingBlock: KUFVIS_clean_sbu_0, # of connection points: 4
#     Node 15, Type 0, BuildingBlock: KUFVIS_clean_sbu_0, # of connection points: 4
#     Node 16, Type 0, BuildingBlock: KUFVIS_clean_sbu_0, # of connection points: 4
#     Node 17, Type 0, BuildingBlock: KUFVIS_clean_sbu_0, # of connection points: 4
#     Node 18, Type 0, BuildingBlock: KUFVIS_clean_sbu_0, # of connection points: 4
#     Node 19, Type 0, BuildingBlock: KUFVIS_clean_sbu_0, # of connection points: 4
#     Node 20, Type 0, BuildingBlock: KUFVIS_clean_sbu_0, # of connection points: 4
#     Node 21, Type 0, BuildingBlock: KUFVIS_clean_sbu_0, # of connection points: 4
#     Node 22, Type 0, BuildingBlock: KUFVIS_clean_sbu_0, # of connection points: 4
#     Node 23, Type 0, BuildingBlock: KUFVIS_clean_sbu_0, # of connection points: 4
#     Edge 24, Type (0, 0), BuildingBlock: KIFKEQ_clean_linker_1, # of connection points: 2
#     Edge 25, Type (0, 0), BuildingBlock: KIFKEQ_clean_linker_1, # of connection points: 2
#     Edge 26, Type (0, 0), BuildingBlock: KIFKEQ_clean_linker_1, # of connection points: 2
#     Edge 27, Type (0, 0), BuildingBlock: KIFKEQ_clean_linker_1, # of connection points: 2
#     Edge 28, Type (0, 0), BuildingBlock: KIFKEQ_clean_linker_1, # of connection points: 2
#     Edge 29, Type (0, 0), BuildingBlock: KIFKEQ_clean_linker_1, # of connection points: 2
#     Edge 30, Type (0, 0), BuildingBlock: KIFKEQ_clean_linker_1, # of connection points: 2
#     Edge 31, Type (0, 0), BuildingBlock: KIFKEQ_clean_linker_1, # of connection points: 2
#     Edge 32, Type (0, 0), BuildingBlock: KIFKEQ_clean_linker_1, # of connection points: 2
#     Edge 33, Type (0, 0), BuildingBlock: KIFKEQ_clean_linker_1, # of connection points: 2
#     Edge 34, Type (0, 0), BuildingBlock: KIFKEQ_clean_linker_1, # of connection points: 2
#     Edge 35, Type (0, 0), BuildingBlock: KIFKEQ_clean_linker_1, # of connection points: 2
#     Edge 36, Type (0, 0), BuildingBlock: KIFKEQ_clean_linker_1, # of connection points: 2
#     Edge 37, Type (0, 0), BuildingBlock: KIFKEQ_clean_linker_1, # of connection points: 2
#     Edge 38, Type (0, 0), BuildingBlock: KIFKEQ_clean_linker_1, # of connection points: 2
#     Edge 39, Type (0, 0), BuildingBlock: KIFKEQ_clean_linker_1, # of connection points: 2
#     Edge 40, Type (0, 0), BuildingBlock: KIFKEQ_clean_linker_1, # of connection points: 2
#     Edge 41, Type (0, 0), BuildingBlock: KIFKEQ_clean_linker_1, # of connection points: 2
#     Edge 42, Type (0, 0), BuildingBlock: KIFKEQ_clean_linker_1, # of connection points: 2
#     Edge 43, Type (0, 0), BuildingBlock: KIFKEQ_clean_linker_1, # of connection points: 2
#     Edge 44, Type (0, 0), BuildingBlock: KIFKEQ_clean_linker_1, # of connection points: 2
#     Edge 45, Type (0, 0), BuildingBlock: KIFKEQ_clean_linker_1, # of connection points: 2
#     Edge 46, Type (0, 0), BuildingBlock: KIFKEQ_clean_linker_1, # of connection points: 2
#     Edge 47, Type (0, 0), BuildingBlock: KIFKEQ_clean_linker_1, # of connection points: 2
#     Edge 48, Type (0, 0), BuildingBlock: KIFKEQ_clean_linker_1, # of connection points: 2
#     Edge 49, Type (0, 0), BuildingBlock: KIFKEQ_clean_linker_1, # of connection points: 2
#     Edge 50, Type (0, 0), BuildingBlock: KIFKEQ_clean_linker_1, # of connection points: 2
#     Edge 51, Type (0, 0), BuildingBlock: KIFKEQ_clean_linker_1, # of connection points: 2
#     Edge 52, Type (0, 0), BuildingBlock: KIFKEQ_clean_linker_1, # of connection points: 2
#     Edge 53, Type (0, 0), BuildingBlock: KIFKEQ_clean_linker_1, # of connection points: 2
#     Edge 54, Type (0, 0), BuildingBlock: KIFKEQ_clean_linker_1, # of connection points: 2
#     Edge 55, Type (0, 0), BuildingBlock: KIFKEQ_clean_linker_1, # of connection points: 2
#     Edge 56, Type (0, 0), BuildingBlock: KIFKEQ_clean_linker_1, # of connection points: 2
#     Edge 57, Type (0, 0), BuildingBlock: KIFKEQ_clean_linker_1, # of connection points: 2
#     Edge 58, Type (0, 0), BuildingBlock: KIFKEQ_clean_linker_1, # of connection points: 2
#     Edge 59, Type (0, 0), BuildingBlock: KIFKEQ_clean_linker_1, # of connection points: 2
#     Edge 60, Type (0, 0), BuildingBlock: KIFKEQ_clean_linker_1, # of connection points: 2
#     Edge 61, Type (0, 0), BuildingBlock: KIFKEQ_clean_linker_1, # of connection points: 2
#     Edge 62, Type (0, 0), BuildingBlock: KIFKEQ_clean_linker_1, # of connection points: 2
#     Edge 63, Type (0, 0), BuildingBlock: KIFKEQ_clean_linker_1, # of connection points: 2
#     Edge 64, Type (0, 0), BuildingBlock: KIFKEQ_clean_linker_1, # of connection points: 2
#     Edge 65, Type (0, 0), BuildingBlock: KIFKEQ_clean_linker_1, # of connection points: 2
#     Edge 66, Type (0, 0), BuildingBlock: KIFKEQ_clean_linker_1, # of connection points: 2
#     Edge 67, Type (0, 0), BuildingBlock: KIFKEQ_clean_linker_1, # of connection points: 2
#     Edge 68, Type (0, 0), BuildingBlock: KIFKEQ_clean_linker_1, # of connection points: 2
#     Edge 69, Type (0, 0), BuildingBlock: KIFKEQ_clean_linker_1, # of connection points: 2
#     Edge 70, Type (0, 0), BuildingBlock: KIFKEQ_clean_linker_1, # of connection points: 2
#     Edge 71, Type (0, 0), BuildingBlock: KIFKEQ_clean_linker_1, # of connection points: 2
# Relax obj value: 0.252
# Max RMSD: 0.133
# Mean RMSD: 0.133
data_MOF--net-lta--node1-KUFVIS_clean_sbu_0--edge1-KIFKEQ_clean_linker_1
_symmetry_space_group_name_H-M    P1
_symmetry_Int_Tables_number       1
_symmetry_cell_setting            triclinic
loop_
_symmetry_equiv_pos_as_xyz
'x, y, z'
_cell_length_a     57.309646
_cell_length_b     57.311244
_cell_length_c     57.303943
_cell_angle_alpha  90.005167
_cell_angle_beta   89.99869
_cell_angle_gamma 89.985891
loop_
_atom_site_label
_atom_site_type_symbol
_atom_site_fract_x
_atom_site_fract_y
_atom_site_fract_z
_atom_type_partial_charge
Mn0 Mn 0.13064 0.32397 0.51201 0.0
Mn1 Mn 0.17811 0.35876 0.51255 0.0
C2 C 0.14316 0.34102 0.5465 0.0
C3 C 0.09018 0.32025 0.50787 0.0
C4 C 0.18095 0.30592 0.50932 0.0
O5 O 0.13458 0.33253 0.47766 0.0
O6 O 0.1658 0.35641 0.48027 0.0
C7 C 0.15541 0.40351 0.50016 0.0
N8 N 0.16829 0.39053 0.51535 0.0
C9 C 0.17223 0.42308 0.54159 0.0
C10 C 0.15904 0.4368 0.52621 0.0
C11 C 0.15059 0.42696 0.5054 0.0
C12 C 0.17651 0.39983 0.5354 0.0
H13 H 0.14888 0.39604 0.48414 0.0
C14 C 0.14972 0.34618 0.46861 0.0
O15 O 0.10391 0.30245 0.50478 0.0
O16 O 0.10002 0.33996 0.51281 0.0
N17 N 0.19146 0.3628 0.5429 0.0
C18 C 0.20338 0.34705 0.55613 0.0
C19 C 0.21281 0.35408 0.57764 0.0
C20 C 0.21005 0.37724 0.58521 0.0
C21 C 0.19787 0.39318 0.5712 0.0
C22 C 0.1889 0.38519 0.54993 0.0
H23 H 0.20562 0.32926 0.55033 0.0
O24 O 0.13029 0.3224 0.54703 0.0
O25 O 0.14847 0.34867 0.52588 0.0
O26 O 0.15902 0.30188 0.51033 0.0
O27 O 0.18967 0.32645 0.51003 0.0
C28 C 0.19413 0.41664 0.57758 0.0
C29 C 0.1812 0.43154 0.56286 0.0
H30 H 0.15525 0.45488 0.53022 0.0
H31 H 0.14041 0.43743 0.49342 0.0
H32 H 0.22218 0.34168 0.58836 0.0
H33 H 0.21726 0.38255 0.60185 0.0
H34 H 0.20102 0.42338 0.59383 0.0
H35 H 0.17821 0.44946 0.5681 0.0
Mn36 Mn 0.68236 0.13129 0.50897 0.0
Mn37 Mn 0.64642 0.17788 0.5108 0.0
C38 C 0.66481 0.14219 0.54374 0.0
C39 C 0.68715 0.09125 0.50314 0.0
C40 C 0.69923 0.18197 0.50782 0.0
O41 O 0.67405 0.13633 0.4747 0.0
O42 O 0.64877 0.16636 0.47824 0.0
C43 C 0.602 0.15469 0.49816 0.0
N44 N 0.61484 0.16744 0.51357 0.0
C45 C 0.58237 0.17031 0.54004 0.0
C46 C 0.56879 0.15723 0.52444 0.0
C47 C 0.57866 0.14939 0.50341 0.0
C48 C 0.60552 0.17509 0.53384 0.0
H49 H 0.6095 0.14863 0.48196 0.0
C50 C 0.65967 0.15106 0.46612 0.0
O51 O 0.7047 0.10548 0.50121 0.0
O52 O 0.66706 0.10031 0.50812 0.0
N53 N 0.64234 0.19043 0.54149 0.0
C54 C 0.65796 0.20231 0.55491 0.0
C55 C 0.6509 0.21116 0.57665 0.0
C56 C 0.62782 0.20788 0.58427 0.0
C57 C 0.61201 0.19575 0.57007 0.0
C58 C 0.62003 0.18738 0.54856 0.0
H59 H 0.67569 0.20495 0.54909 0.0
O60 O 0.68364 0.12962 0.54394 0.0
O61 O 0.65712 0.14806 0.52327 0.0
O62 O 0.7038 0.16014 0.50864 0.0
O63 O 0.67848 0.19017 0.50835 0.0
C64 C 0.58865 0.19149 0.57649 0.0
C65 C 0.57388 0.17866 0.56156 0.0
H66 H 0.55079 0.15308 0.52845 0.0
H67 H 0.56829 0.13931 0.49126 0.0
H68 H 0.6632 0.22049 0.58751 0.0
H69 H 0.62247 0.21466 0.60108 0.0
H70 H 0.58189 0.19788 0.59294 0.0
H71 H 0.55604 0.17527 0.56682 0.0
Mn72 Mn 0.87473 0.68252 0.50954 0.0
Mn73 Mn 0.82801 0.64674 0.51091 0.0
C74 C 0.86337 0.66513 0.54423 0.0
C75 C 0.91482 0.68719 0.50408 0.0
C76 C 0.82414 0.69956 0.50772 0.0
O77 O 0.87005 0.67414 0.47524 0.0
O78 O 0.83995 0.64892 0.47849 0.0
C79 C 0.85124 0.6022 0.49877 0.0
N80 N 0.83831 0.61515 0.51395 0.0
C81 C 0.83499 0.58279 0.54051 0.0
C82 C 0.84824 0.5691 0.52514 0.0
C83 C 0.8564 0.57886 0.50419 0.0
C84 C 0.83036 0.60593 0.53415 0.0
H85 H 0.85755 0.60961 0.48263 0.0
C86 C 0.85541 0.65976 0.46653 0.0
O87 O 0.90065 0.70477 0.50197 0.0
O88 O 0.90568 0.66713 0.50905 0.0
N89 N 0.81506 0.64285 0.54146 0.0
C90 C 0.80307 0.65857 0.55466 0.0
C91 C 0.7939 0.65163 0.5763 0.0
C92 C 0.79699 0.62857 0.58405 0.0
C93 C 0.80924 0.61265 0.57008 0.0
C94 C 0.81793 0.62056 0.54865 0.0
H95 H 0.80057 0.67628 0.54873 0.0
O96 O 0.87602 0.6839 0.54452 0.0
O97 O 0.85772 0.65739 0.52372 0.0
O98 O 0.84596 0.70404 0.50884 0.0
O99 O 0.81585 0.67885 0.50817 0.0
C100 C 0.81333 0.5893 0.57664 0.0
C101 C 0.82631 0.57442 0.56194 0.0
H102 H 0.85229 0.55111 0.52928 0.0
H103 H 0.86662 0.56841 0.49222 0.0
H104 H 0.78447 0.66402 0.58699 0.0
H105 H 0.78996 0.62332 0.60079 0.0
H106 H 0.80668 0.58263 0.59302 0.0
H107 H 0.82957 0.55659 0.56731 0.0
Mn108 Mn 0.3249 0.87329 0.51138 0.0
Mn109 Mn 0.36002 0.82604 0.51149 0.0
C110 C 0.3419 0.86047 0.54577 0.0
C111 C 0.32077 0.91375 0.50781 0.0
C112 C 0.30723 0.82289 0.5081 0.0
O113 O 0.33362 0.86984 0.47701 0.0
O114 O 0.35759 0.83865 0.47933 0.0
C115 C 0.4046 0.8492 0.49937 0.0
N116 N 0.39171 0.83607 0.51443 0.0
C117 C 0.42425 0.83215 0.54067 0.0
C118 C 0.43788 0.8456 0.52544 0.0
C119 C 0.42799 0.85416 0.5047 0.0
C120 C 0.40105 0.82773 0.53441 0.0
H121 H 0.3971 0.85582 0.4834 0.0
C122 C 0.34731 0.85482 0.46783 0.0
O123 O 0.30313 0.89988 0.50443 0.0
O124 O 0.34058 0.90404 0.51266 0.0
N125 N 0.36414 0.81241 0.54171 0.0
C126 C 0.34848 0.80023 0.55479 0.0
C127 C 0.35555 0.79065 0.57621 0.0
C128 C 0.37867 0.79353 0.58385 0.0
C129 C 0.39453 0.80598 0.56999 0.0
C130 C 0.38649 0.81508 0.54879 0.0
H131 H 0.33071 0.7979 0.54895 0.0
O132 O 0.32317 0.87319 0.54639 0.0
O133 O 0.34969 0.85547 0.52512 0.0
O134 O 0.30306 0.84479 0.50928 0.0
O135 O 0.3278 0.81426 0.50883 0.0
C136 C 0.41794 0.80986 0.57645 0.0
C137 C 0.43275 0.82305 0.56188 0.0
H138 H 0.45592 0.8495 0.52951 0.0
H139 H 0.4384 0.86454 0.49283 0.0
H140 H 0.34322 0.78107 0.58682 0.0
H141 H 0.38403 0.7862 0.60043 0.0
H142 H 0.42472 0.80288 0.59264 0.0
H143 H 0.45063 0.82614 0.56717 0.0
Mn144 Mn 0.13074 0.68269 0.49572 0.0
Mn145 Mn 0.17727 0.64663 0.4951 0.0
C146 C 0.14211 0.66467 0.46135 0.0
C147 C 0.09065 0.68752 0.50103 0.0
C148 C 0.18142 0.69948 0.4974 0.0
O149 O 0.1353 0.67493 0.53016 0.0
O150 O 0.16524 0.64944 0.52745 0.0
C151 C 0.15383 0.60242 0.50796 0.0
N152 N 0.16682 0.61505 0.49257 0.0
C153 C 0.17 0.58224 0.46655 0.0
C154 C 0.15669 0.56888 0.48213 0.0
C155 C 0.14857 0.57902 0.50293 0.0
C156 C 0.17475 0.60545 0.47253 0.0
H157 H 0.14756 0.61012 0.52397 0.0
C158 C 0.14983 0.66061 0.53917 0.0
O159 O 0.10483 0.70513 0.50284 0.0
O160 O 0.09978 0.66739 0.4964 0.0
N161 N 0.19029 0.64215 0.46466 0.0
C162 C 0.20241 0.65757 0.45124 0.0
C163 C 0.21156 0.65022 0.42972 0.0
C164 C 0.20832 0.62707 0.42233 0.0
C165 C 0.19595 0.61146 0.43653 0.0
C166 C 0.18729 0.61976 0.45782 0.0
H167 H 0.20501 0.67536 0.45689 0.0
O168 O 0.12954 0.68348 0.46072 0.0
O169 O 0.14768 0.65724 0.482 0.0
O170 O 0.15962 0.70411 0.49612 0.0
O171 O 0.18957 0.67871 0.49733 0.0
C172 C 0.19171 0.58804 0.43032 0.0
C173 C 0.17863 0.57348 0.44525 0.0
H174 H 0.15255 0.55084 0.47828 0.0
H175 H 0.13831 0.56882 0.51506 0.0
H176 H 0.22109 0.66237 0.41885 0.0
H177 H 0.21534 0.6215 0.40568 0.0
H178 H 0.1983 0.58108 0.41404 0.0
H179 H 0.17527 0.55559 0.44015 0.0
Mn180 Mn 0.32278 0.13035 0.49525 0.0
Mn181 Mn 0.35766 0.17771 0.49403 0.0
C182 C 0.33923 0.14277 0.46045 0.0
C183 C 0.31922 0.08988 0.49937 0.0
C184 C 0.30489 0.18068 0.4983 0.0
O185 O 0.33197 0.13431 0.52944 0.0
O186 O 0.35597 0.16541 0.52636 0.0
C187 C 0.40262 0.15492 0.50546 0.0
N188 N 0.38934 0.16783 0.49054 0.0
C189 C 0.42131 0.17163 0.46358 0.0
C190 C 0.43533 0.15841 0.47866 0.0
C191 C 0.42593 0.15002 0.49969 0.0
C192 C 0.39821 0.176 0.47028 0.0
H193 H 0.39549 0.14842 0.52164 0.0
C194 C 0.34587 0.14938 0.53821 0.0
O195 O 0.30143 0.10356 0.50282 0.0
O196 O 0.33881 0.0998 0.49415 0.0
N197 N 0.36106 0.19101 0.46358 0.0
C198 C 0.34503 0.20289 0.45064 0.0
C199 C 0.35159 0.21222 0.42895 0.0
C200 C 0.37457 0.2094 0.42087 0.0
C201 C 0.3908 0.19726 0.43457 0.0
C202 C 0.38328 0.18839 0.45606 0.0
H203 H 0.32737 0.20516 0.45682 0.0
O204 O 0.32056 0.12996 0.46026 0.0
O205 O 0.34722 0.14812 0.48093 0.0
O206 O 0.30074 0.15876 0.4973 0.0
O207 O 0.32543 0.18933 0.49723 0.0
C208 C 0.4141 0.19345 0.42768 0.0
C209 C 0.4293 0.18052 0.44209 0.0
H210 H 0.4533 0.15456 0.47425 0.0
H211 H 0.43663 0.13982 0.51144 0.0
H212 H 0.33895 0.22155 0.41847 0.0
H213 H 0.37952 0.21653 0.40408 0.0
H214 H 0.4205 0.20028 0.41126 0.0
H215 H 0.44709 0.17747 0.43645 0.0
Mn216 Mn 0.87371 0.3247 0.49257 0.0
Mn217 Mn 0.82646 0.35981 0.49152 0.0
C218 C 0.86116 0.34113 0.45779 0.0
C219 C 0.91415 0.32077 0.49665 0.0
C220 C 0.82329 0.30708 0.49583 0.0
O221 O 0.86992 0.33395 0.52677 0.0
O222 O 0.83886 0.35802 0.52379 0.0
C223 C 0.8496 0.4046 0.50284 0.0
N224 N 0.8365 0.39144 0.48801 0.0
C225 C 0.83266 0.42347 0.46113 0.0
C226 C 0.84607 0.43738 0.47614 0.0
C227 C 0.85459 0.42789 0.49708 0.0
C228 C 0.82823 0.40039 0.46782 0.0
H229 H 0.85619 0.3974 0.51896 0.0
C230 C 0.8549 0.34787 0.5356 0.0
O231 O 0.9003 0.30313 0.50013 0.0
O232 O 0.90442 0.34045 0.49135 0.0
N233 N 0.81301 0.36332 0.46114 0.0
C234 C 0.80091 0.3474 0.4483 0.0
C235 C 0.79141 0.35406 0.42671 0.0
C236 C 0.79427 0.37704 0.41866 0.0
C237 C 0.80663 0.39317 0.43228 0.0
C238 C 0.81567 0.38555 0.45366 0.0
H239 H 0.79859 0.32974 0.45446 0.0
O240 O 0.87392 0.32243 0.45758 0.0
O241 O 0.85597 0.34922 0.47828 0.0
O242 O 0.84519 0.30286 0.49476 0.0
O243 O 0.81467 0.32764 0.49476 0.0
C244 C 0.81047 0.41648 0.42543 0.0
C245 C 0.82361 0.43157 0.43975 0.0
H246 H 0.84999 0.45534 0.47173 0.0
H247 H 0.86495 0.43851 0.50876 0.0
H248 H 0.7819 0.34151 0.41629 0.0
H249 H 0.78699 0.38208 0.40196 0.0
H250 H 0.8035 0.42295 0.4091 0.0
H251 H 0.82669 0.44935 0.43414 0.0
Mn252 Mn 0.68289 0.87526 0.495 0.0
Mn253 Mn 0.647 0.82861 0.49416 0.0
C254 C 0.66506 0.86385 0.46054 0.0
C255 C 0.68759 0.91538 0.50031 0.0
C256 C 0.69984 0.82461 0.49668 0.0
O257 O 0.67498 0.87065 0.52941 0.0
O258 O 0.64969 0.84057 0.52654 0.0
C259 C 0.60268 0.85192 0.50694 0.0
N260 N 0.61539 0.83898 0.49156 0.0
C261 C 0.58266 0.83573 0.46546 0.0
C262 C 0.56922 0.849 0.48103 0.0
C263 C 0.57928 0.85712 0.50185 0.0
C264 C 0.60587 0.83105 0.4715 0.0
H265 H 0.61033 0.8582 0.52297 0.0
C266 C 0.66074 0.85601 0.53834 0.0
O267 O 0.70523 0.90123 0.50221 0.0
O268 O 0.6675 0.9062 0.49561 0.0
N269 N 0.64264 0.81562 0.46369 0.0
C270 C 0.65814 0.80355 0.4503 0.0
C271 C 0.65086 0.79438 0.42876 0.0
C272 C 0.62772 0.79755 0.42132 0.0
C273 C 0.61204 0.80989 0.43549 0.0
C274 C 0.62026 0.81856 0.4568 0.0
H275 H 0.67592 0.80099 0.45599 0.0
O276 O 0.68384 0.87648 0.46 0.0
O277 O 0.65756 0.85825 0.48116 0.0
O278 O 0.70439 0.84643 0.49549 0.0
O279 O 0.6791 0.81639 0.49646 0.0
C280 C 0.58862 0.81406 0.42924 0.0
C281 C 0.57398 0.82709 0.44414 0.0
H282 H 0.55117 0.85308 0.47714 0.0
H283 H 0.56902 0.86735 0.51397 0.0
H284 H 0.66307 0.78489 0.41792 0.0
H285 H 0.62221 0.79053 0.40466 0.0
H286 H 0.58171 0.80745 0.41294 0.0
H287 H 0.55608 0.8304 0.43901 0.0
Mn288 Mn 0.51045 0.13082 0.32391 0.0
Mn289 Mn 0.51191 0.17798 0.35908 0.0
C290 C 0.54542 0.1434 0.33981 0.0
C291 C 0.50653 0.09039 0.31998 0.0
C292 C 0.507 0.18126 0.30641 0.0
O293 O 0.47639 0.13449 0.33365 0.0
O294 O 0.47961 0.16558 0.35764 0.0
C295 C 0.5011 0.15468 0.40393 0.0
N296 N 0.51578 0.16783 0.39064 0.0
C297 C 0.54307 0.17146 0.42235 0.0
C298 C 0.52823 0.158 0.43639 0.0
C299 C 0.50715 0.14957 0.42713 0.0
C300 C 0.53609 0.17602 0.39938 0.0
H301 H 0.48489 0.14814 0.39691 0.0
C302 C 0.46771 0.1495 0.34767 0.0
O303 O 0.50271 0.10423 0.3024 0.0
O304 O 0.512 0.10012 0.33961 0.0
N305 N 0.54231 0.19142 0.3623 0.0
C306 C 0.55497 0.20359 0.34628 0.0
C307 C 0.57665 0.21304 0.35271 0.0
C308 C 0.58499 0.21004 0.37558 0.0
C309 C 0.57156 0.1976 0.39182 0.0
C310 C 0.55008 0.18864 0.38442 0.0
H311 H 0.54859 0.20601 0.32871 0.0
O312 O 0.54537 0.13068 0.32108 0.0
O313 O 0.52506 0.14852 0.34826 0.0
O314 O 0.50792 0.15936 0.30216 0.0
O315 O 0.50833 0.18985 0.32697 0.0
C316 C 0.57873 0.1936 0.41501 0.0
C317 C 0.56457 0.18041 0.43022 0.0
H318 H 0.53286 0.15398 0.45428 0.0
H319 H 0.4956 0.13917 0.43784 0.0
H320 H 0.58691 0.22261 0.34008 0.0
H321 H 0.60176 0.21727 0.38044 0.0
H322 H 0.59516 0.20048 0.4213 0.0
H323 H 0.57042 0.17722 0.44791 0.0
Mn324 Mn 0.87469 0.5119 0.32231 0.0
Mn325 Mn 0.82718 0.51411 0.35698 0.0
C326 C 0.86288 0.5469 0.33876 0.0
C327 C 0.91508 0.50716 0.31872 0.0
C328 C 0.82426 0.51104 0.30417 0.0
O329 O 0.87017 0.47784 0.33141 0.0
O330 O 0.83834 0.48136 0.35433 0.0
C331 C 0.84961 0.50041 0.40151 0.0
N332 N 0.83721 0.51619 0.38875 0.0
C333 C 0.83437 0.54221 0.42161 0.0
C334 C 0.84707 0.52622 0.43509 0.0
C335 C 0.85472 0.50523 0.42499 0.0
C336 C 0.82976 0.53643 0.39831 0.0
H337 H 0.85554 0.48425 0.39386 0.0
C338 C 0.85446 0.46923 0.34467 0.0
O339 O 0.90135 0.50394 0.30093 0.0
O340 O 0.90525 0.51248 0.33833 0.0
N341 N 0.81488 0.54485 0.36145 0.0
C342 C 0.80326 0.55863 0.34595 0.0
C343 C 0.79449 0.5803 0.3533 0.0
C344 C 0.79762 0.5875 0.37653 0.0
C345 C 0.80954 0.57297 0.3922 0.0
C346 C 0.81778 0.55152 0.3839 0.0
H347 H 0.8008 0.55318 0.32809 0.0
O348 O 0.87566 0.54684 0.32007 0.0
O349 O 0.85718 0.52654 0.34685 0.0
O350 O 0.84624 0.51034 0.30025 0.0
O351 O 0.8155 0.51257 0.32464 0.0
C352 C 0.81367 0.57899 0.41569 0.0
C353 C 0.8262 0.56369 0.43034 0.0
H354 H 0.85109 0.5299 0.4532 0.0
H355 H 0.86451 0.49279 0.43528 0.0
H356 H 0.78536 0.59144 0.34109 0.0
H357 H 0.79088 0.60426 0.3821 0.0
H358 H 0.8074 0.5954 0.42265 0.0
H359 H 0.82947 0.56863 0.4483 0.0
Mn360 Mn 0.4942 0.87386 0.32321 0.0
Mn361 Mn 0.49272 0.82662 0.35824 0.0
C362 C 0.45925 0.86136 0.33926 0.0
C363 C 0.49815 0.91431 0.31947 0.0
C364 C 0.49771 0.8235 0.30553 0.0
O365 O 0.52826 0.87013 0.33294 0.0
O366 O 0.525 0.8391 0.35703 0.0
C367 C 0.50331 0.84964 0.40329 0.0
N368 N 0.48869 0.83658 0.38984 0.0
C369 C 0.46125 0.83275 0.4214 0.0
C370 C 0.47604 0.84611 0.43559 0.0
C371 C 0.49715 0.8546 0.42649 0.0
C372 C 0.46834 0.82833 0.39842 0.0
H373 H 0.51956 0.85621 0.39639 0.0
C374 C 0.5369 0.8552 0.34709 0.0
O375 O 0.50192 0.90055 0.30181 0.0
O376 O 0.49272 0.90449 0.33906 0.0
N377 N 0.46229 0.81319 0.36121 0.0
C378 C 0.44964 0.80124 0.34501 0.0
C379 C 0.42789 0.79184 0.35125 0.0
C380 C 0.41946 0.79467 0.37411 0.0
C381 C 0.43286 0.80689 0.39052 0.0
C382 C 0.45441 0.81584 0.38331 0.0
H383 H 0.45609 0.79897 0.32745 0.0
O384 O 0.45924 0.87407 0.32052 0.0
O385 O 0.47965 0.85613 0.34753 0.0
O386 O 0.49666 0.8454 0.30132 0.0
O387 O 0.49648 0.81489 0.32608 0.0
C388 C 0.4256 0.81071 0.41371 0.0
C389 C 0.4397 0.82376 0.42909 0.0
H390 H 0.47132 0.85001 0.45348 0.0
H391 H 0.50866 0.86492 0.43733 0.0
H392 H 0.41763 0.78245 0.33848 0.0
H393 H 0.40262 0.78748 0.37882 0.0
H394 H 0.40913 0.80381 0.41988 0.0
H395 H 0.43378 0.82684 0.44678 0.0
Mn396 Mn 0.13152 0.49346 0.32427 0.0
Mn397 Mn 0.17852 0.49181 0.35965 0.0
C398 C 0.14383 0.45847 0.34038 0.0
C399 C 0.09112 0.49749 0.32011 0.0
C400 C 0.18206 0.4967 0.30697 0.0
O401 O 0.13526 0.52751 0.33407 0.0
O402 O 0.1662 0.52414 0.35824 0.0
C403 C 0.15517 0.50265 0.40447 0.0
N404 N 0.16828 0.48793 0.39118 0.0
C405 C 0.17176 0.46058 0.42286 0.0
C406 C 0.15834 0.47547 0.4369 0.0
C407 C 0.15001 0.49659 0.42765 0.0
C408 C 0.17638 0.46757 0.39989 0.0
H409 H 0.14871 0.5189 0.39746 0.0
C410 C 0.15018 0.5361 0.34824 0.0
O411 O 0.10507 0.50127 0.30261 0.0
O412 O 0.10072 0.49204 0.33981 0.0
N413 N 0.19181 0.46133 0.36283 0.0
C414 C 0.20388 0.4486 0.34678 0.0
C415 C 0.21317 0.42684 0.35318 0.0
C416 C 0.21012 0.4185 0.37604 0.0
C417 C 0.19778 0.43199 0.3923 0.0
C418 C 0.18896 0.45354 0.38493 0.0
H419 H 0.20633 0.45498 0.32922 0.0
O420 O 0.13127 0.45851 0.32154 0.0
O421 O 0.14903 0.47884 0.34873 0.0
O422 O 0.16018 0.49584 0.30263 0.0
O423 O 0.19054 0.4954 0.32757 0.0
C424 C 0.19375 0.42482 0.41548 0.0
C425 C 0.18061 0.43903 0.4307 0.0
H426 H 0.15429 0.47083 0.45477 0.0
H427 H 0.13964 0.50818 0.43837 0.0
H428 H 0.22266 0.41652 0.34053 0.0
H429 H 0.21724 0.40166 0.38087 0.0
H430 H 0.20055 0.40835 0.42176 0.0
H431 H 0.17738 0.43318 0.44839 0.0
Mn432 Mn 0.51296 0.87352 0.68188 0.0
Mn433 Mn 0.51591 0.82626 0.64696 0.0
C434 C 0.54827 0.86192 0.66596 0.0
C435 C 0.50807 0.91387 0.68566 0.0
C436 C 0.51177 0.82299 0.69968 0.0
O437 O 0.47908 0.86899 0.67212 0.0
O438 O 0.4831 0.83734 0.64902 0.0
C439 C 0.50315 0.84904 0.60233 0.0
N440 N 0.51865 0.83651 0.61531 0.0
C441 C 0.54534 0.83394 0.58298 0.0
C442 C 0.52965 0.84677 0.56927 0.0
C443 C 0.50846 0.85436 0.57901 0.0
C444 C 0.53908 0.82915 0.60612 0.0
H445 H 0.48684 0.85493 0.6097 0.0
C446 C 0.47076 0.85336 0.65858 0.0
O447 O 0.50456 0.90001 0.70329 0.0
O448 O 0.51376 0.90419 0.66608 0.0
N449 N 0.54677 0.81405 0.64305 0.0
C450 C 0.56027 0.80239 0.65876 0.0
C451 C 0.58211 0.79372 0.65181 0.0
C452 C 0.58978 0.797 0.62875 0.0
C453 C 0.57553 0.80895 0.61285 0.0
C454 C 0.5539 0.81711 0.62075 0.0
H455 H 0.55445 0.79979 0.67649 0.0
O456 O 0.54787 0.87457 0.68473 0.0
O457 O 0.52807 0.85621 0.65752 0.0
O458 O 0.51104 0.84495 0.7037 0.0
O459 O 0.51371 0.81435 0.67919 0.0
C460 C 0.582 0.8132 0.5895 0.0
C461 C 0.567 0.82583 0.57462 0.0
H462 H 0.5337 0.85093 0.55128 0.0
H463 H 0.49625 0.86426 0.56854 0.0
H464 H 0.59303 0.78455 0.66419 0.0
H465 H 0.60667 0.79035 0.62348 0.0
H466 H 0.59854 0.80696 0.58282 0.0
H467 H 0.5723 0.82923 0.5568 0.0
Mn468 Mn 0.12992 0.51261 0.68222 0.0
Mn469 Mn 0.17729 0.51528 0.64741 0.0
C470 C 0.14176 0.54786 0.66635 0.0
C471 C 0.08954 0.50792 0.68597 0.0
C472 C 0.1804 0.51119 0.70013 0.0
O473 O 0.1343 0.4787 0.67248 0.0
O474 O 0.16601 0.48253 0.64944 0.0
C475 C 0.15451 0.50267 0.60273 0.0
N476 N 0.16713 0.51808 0.61573 0.0
C477 C 0.17002 0.54471 0.58338 0.0
C478 C 0.15711 0.52911 0.56965 0.0
C479 C 0.14931 0.50801 0.57938 0.0
C480 C 0.17468 0.53844 0.60654 0.0
H481 H 0.14847 0.48642 0.61009 0.0
C482 C 0.14991 0.47029 0.65897 0.0
O483 O 0.10337 0.50434 0.70361 0.0
O484 O 0.09927 0.51357 0.66639 0.0
N485 N 0.18971 0.54604 0.64352 0.0
C486 C 0.20146 0.55945 0.65925 0.0
C487 C 0.21036 0.58119 0.65229 0.0
C488 C 0.20723 0.58885 0.62922 0.0
C489 C 0.19518 0.57471 0.61329 0.0
C490 C 0.18679 0.55317 0.6212 0.0
H491 H 0.20394 0.55363 0.67699 0.0
O492 O 0.12905 0.54753 0.68508 0.0
O493 O 0.14737 0.52763 0.6579 0.0
O494 O 0.15844 0.51057 0.70411 0.0
O495 O 0.1891 0.51303 0.67966 0.0
C496 C 0.19106 0.58118 0.58993 0.0
C497 C 0.17835 0.56628 0.57503 0.0
H498 H 0.15304 0.53318 0.55164 0.0
H499 H 0.13934 0.49587 0.5689 0.0
H500 H 0.2196 0.59203 0.66469 0.0
H501 H 0.21407 0.60566 0.62394 0.0
H502 H 0.19748 0.59765 0.58325 0.0
H503 H 0.17506 0.57158 0.55718 0.0
Mn504 Mn 0.49434 0.1303 0.68154 0.0
Mn505 Mn 0.49278 0.17748 0.6464 0.0
C506 C 0.45935 0.14284 0.66562 0.0
C507 C 0.49825 0.08987 0.68546 0.0
C508 C 0.49792 0.18072 0.69907 0.0
O509 O 0.52838 0.13396 0.67166 0.0
O510 O 0.52506 0.16501 0.64762 0.0
C511 C 0.50332 0.15432 0.60141 0.0
N512 N 0.48871 0.16742 0.61484 0.0
C513 C 0.46123 0.17117 0.5833 0.0
C514 C 0.476 0.15776 0.56913 0.0
C515 C 0.49713 0.1493 0.57823 0.0
C516 C 0.46834 0.17565 0.60625 0.0
H517 H 0.51957 0.14776 0.60831 0.0
C518 C 0.53699 0.14891 0.65753 0.0
O519 O 0.50213 0.10371 0.70302 0.0
O520 O 0.49275 0.0996 0.66584 0.0
N521 N 0.46234 0.19092 0.64342 0.0
C522 C 0.44973 0.20296 0.65959 0.0
C523 C 0.42798 0.21237 0.65334 0.0
C524 C 0.41952 0.20947 0.63051 0.0
C525 C 0.43288 0.19716 0.61412 0.0
C526 C 0.45444 0.18821 0.62135 0.0
H527 H 0.4562 0.2053 0.67714 0.0
O528 O 0.45941 0.13017 0.68439 0.0
O529 O 0.47971 0.148 0.65722 0.0
O530 O 0.49693 0.15883 0.70331 0.0
O531 O 0.49657 0.18931 0.67851 0.0
C532 C 0.42559 0.19326 0.59096 0.0
C533 C 0.43967 0.18015 0.5756 0.0
H534 H 0.47126 0.15381 0.55126 0.0
H535 H 0.50863 0.13894 0.56741 0.0
H536 H 0.41775 0.22183 0.66609 0.0
H537 H 0.40269 0.21666 0.62579 0.0
H538 H 0.40911 0.20015 0.58479 0.0
H539 H 0.43373 0.17702 0.55793 0.0
Mn540 Mn 0.87311 0.49442 0.68124 0.0
Mn541 Mn 0.82619 0.49341 0.64575 0.0
C542 C 0.8607 0.45968 0.66468 0.0
C543 C 0.91353 0.49825 0.68542 0.0
C544 C 0.82256 0.49774 0.69847 0.0
O545 O 0.86953 0.52859 0.67186 0.0
O546 O 0.83866 0.52566 0.64754 0.0
C547 C 0.84962 0.50465 0.60107 0.0
N548 N 0.83646 0.48983 0.61419 0.0
C549 C 0.83295 0.46283 0.58221 0.0
C550 C 0.84642 0.47783 0.56835 0.0
C551 C 0.85479 0.49883 0.57783 0.0
C552 C 0.82831 0.46959 0.60524 0.0
H553 H 0.8561 0.52082 0.60826 0.0
C554 C 0.8547 0.53742 0.65773 0.0
O555 O 0.89961 0.50186 0.70298 0.0
O556 O 0.90389 0.49305 0.66568 0.0
N557 N 0.81278 0.46302 0.64221 0.0
C558 C 0.80065 0.45017 0.6581 0.0
C559 C 0.79132 0.4285 0.65145 0.0
C560 C 0.79439 0.42038 0.62852 0.0
C561 C 0.8068 0.434 0.61242 0.0
C562 C 0.81566 0.45546 0.62003 0.0
H563 H 0.79819 0.45637 0.67572 0.0
O564 O 0.87323 0.45944 0.68355 0.0
O565 O 0.85559 0.48017 0.65658 0.0
O566 O 0.84442 0.49669 0.70287 0.0
O567 O 0.81414 0.49671 0.67783 0.0
C568 C 0.81087 0.42706 0.58918 0.0
C569 C 0.82406 0.44138 0.57413 0.0
H570 H 0.85049 0.47337 0.55043 0.0
H571 H 0.86519 0.51051 0.56725 0.0
H572 H 0.78178 0.41808 0.66398 0.0
H573 H 0.78725 0.40362 0.6235 0.0
H574 H 0.80405 0.41067 0.58272 0.0
H575 H 0.82732 0.43571 0.55639 0.0
Mn576 Mn 0.32377 0.51146 0.13165 0.0
Mn577 Mn 0.3593 0.51285 0.17854 0.0
C578 C 0.34019 0.54633 0.14387 0.0
C579 C 0.31946 0.50734 0.09128 0.0
C580 C 0.30661 0.50841 0.18225 0.0
O581 O 0.33329 0.47735 0.13539 0.0
O582 O 0.3576 0.48052 0.16625 0.0
C583 C 0.40396 0.5016 0.15506 0.0
N584 N 0.39083 0.51645 0.16819 0.0
C585 C 0.42275 0.54352 0.17155 0.0
C586 C 0.43662 0.5285 0.1581 0.0
C587 C 0.42717 0.50746 0.14982 0.0
C588 C 0.39974 0.53674 0.17625 0.0
H589 H 0.3968 0.4854 0.14864 0.0
C590 C 0.34744 0.46864 0.15026 0.0
O591 O 0.30197 0.50377 0.10529 0.0
O592 O 0.33922 0.5127 0.1008 0.0
N593 N 0.36279 0.54331 0.1918 0.0
C594 C 0.34689 0.55618 0.20392 0.0
C595 C 0.35351 0.57788 0.21318 0.0
C596 C 0.37642 0.58603 0.21004 0.0
C597 C 0.39252 0.5724 0.19765 0.0
C598 C 0.38494 0.5509 0.18886 0.0
H599 H 0.32929 0.54995 0.20644 0.0
O600 O 0.32132 0.54643 0.13135 0.0
O601 O 0.3484 0.5259 0.14907 0.0
O602 O 0.30221 0.50929 0.16038 0.0
O603 O 0.32724 0.50954 0.19066 0.0
C604 C 0.41574 0.57937 0.19352 0.0
C605 C 0.4308 0.56502 0.18035 0.0
H606 H 0.45452 0.53298 0.15398 0.0
H607 H 0.43776 0.49576 0.13943 0.0
H608 H 0.34098 0.58832 0.22271 0.0
H609 H 0.38142 0.60283 0.21712 0.0
H610 H 0.42218 0.59579 0.20027 0.0
H611 H 0.44852 0.57072 0.17704 0.0
Mn612 Mn 0.32209 0.49113 0.87501 0.0
Mn613 Mn 0.35703 0.48906 0.8277 0.0
C614 C 0.3385 0.45613 0.86313 0.0
C615 C 0.31828 0.49579 0.91538 0.0
C616 C 0.30426 0.49237 0.82449 0.0
O617 O 0.33131 0.52517 0.8707 0.0
O618 O 0.35447 0.52176 0.83904 0.0
C619 C 0.40148 0.50234 0.85052 0.0
N620 N 0.38873 0.48673 0.83791 0.0
C621 C 0.42148 0.46059 0.83506 0.0
C622 C 0.43495 0.4764 0.84798 0.0
C623 C 0.4249 0.49736 0.85575 0.0
C624 C 0.39823 0.46651 0.83036 0.0
H625 H 0.39387 0.51849 0.85654 0.0
C626 C 0.34471 0.53382 0.85514 0.0
O627 O 0.30058 0.49909 0.90156 0.0
O628 O 0.33793 0.49038 0.90566 0.0
N629 N 0.36142 0.45837 0.81523 0.0
C630 C 0.34592 0.44475 0.80344 0.0
C631 C 0.35322 0.42311 0.79455 0.0
C632 C 0.3764 0.41578 0.79774 0.0
C633 C 0.39207 0.43015 0.80983 0.0
C634 C 0.38383 0.45157 0.8182 0.0
H635 H 0.3281 0.4503 0.80092 0.0
O636 O 0.31976 0.45618 0.87583 0.0
O637 O 0.34667 0.47649 0.85757 0.0
O638 O 0.30022 0.4929 0.84645 0.0
O639 O 0.32477 0.49084 0.81583 0.0
C640 C 0.41552 0.424 0.81402 0.0
C641 C 0.43017 0.43913 0.82676 0.0
H642 H 0.45302 0.4726 0.85208 0.0
H643 H 0.43519 0.50967 0.86572 0.0
H644 H 0.34101 0.41209 0.78527 0.0
H645 H 0.38193 0.39905 0.7909 0.0
H646 H 0.42244 0.40762 0.80764 0.0
H647 H 0.44808 0.43409 0.83009 0.0
Mn648 Mn 0.51005 0.32211 0.87464 0.0
Mn649 Mn 0.51081 0.35797 0.82795 0.0
C650 C 0.54442 0.34014 0.86334 0.0
C651 C 0.50458 0.31739 0.91473 0.0
C652 C 0.50867 0.30509 0.824 0.0
O653 O 0.47561 0.32983 0.86991 0.0
O654 O 0.47842 0.35515 0.83985 0.0
C655 C 0.49773 0.40224 0.85119 0.0
N656 N 0.5132 0.3896 0.8383 0.0
C657 C 0.53912 0.42248 0.83506 0.0
C658 C 0.52345 0.43585 0.84828 0.0
C659 C 0.50267 0.42568 0.85638 0.0
C660 C 0.53323 0.39922 0.8304 0.0
H661 H 0.48173 0.39452 0.85745 0.0
C662 C 0.46664 0.34407 0.85528 0.0
O663 O 0.50285 0.29974 0.90058 0.0
O664 O 0.50922 0.3375 0.90557 0.0
N665 N 0.54128 0.36248 0.81504 0.0
C666 C 0.55479 0.34704 0.80303 0.0
C667 C 0.57631 0.35442 0.7939 0.0
C668 C 0.5836 0.37761 0.79705 0.0
C669 C 0.56931 0.39323 0.80933 0.0
C670 C 0.54804 0.3849 0.81797 0.0
H671 H 0.54922 0.32923 0.80048 0.0
O672 O 0.54504 0.32138 0.87598 0.0
O673 O 0.52378 0.34752 0.85766 0.0
O674 O 0.5098 0.30058 0.84583 0.0
O675 O 0.50873 0.32583 0.81576 0.0
C676 C 0.57541 0.4167 0.81347 0.0
C677 C 0.5604 0.43127 0.82645 0.0
H678 H 0.52723 0.45392 0.85235 0.0
H679 H 0.49048 0.43589 0.86657 0.0
H680 H 0.58724 0.34227 0.78445 0.0
H681 H 0.60024 0.38321 0.79005 0.0
H682 H 0.59168 0.42369 0.80688 0.0
H683 H 0.56542 0.44919 0.82974 0.0
Mn684 Mn 0.67976 0.51244 0.87292 0.0
Mn685 Mn 0.64447 0.51315 0.82581 0.0
C686 C 0.66312 0.54708 0.8603 0.0
C687 C 0.68395 0.5086 0.91334 0.0
C688 C 0.69722 0.50909 0.82244 0.0
O689 O 0.67053 0.47821 0.8694 0.0
O690 O 0.64637 0.48095 0.83839 0.0
C691 C 0.59978 0.50177 0.84915 0.0
N692 N 0.61286 0.5166 0.83595 0.0
C693 C 0.58072 0.54336 0.83214 0.0
C694 C 0.5669 0.52836 0.84565 0.0
C695 C 0.57649 0.50748 0.8542 0.0
C696 C 0.60381 0.53673 0.82765 0.0
H697 H 0.60705 0.48569 0.85577 0.0
C698 C 0.65653 0.46927 0.85452 0.0
O699 O 0.70151 0.50508 0.8994 0.0
O700 O 0.66418 0.51378 0.90372 0.0
N701 N 0.6408 0.54346 0.81226 0.0
C702 C 0.65665 0.55634 0.80009 0.0
C703 C 0.64989 0.57789 0.79057 0.0
C704 C 0.62689 0.58587 0.79349 0.0
C705 C 0.61084 0.57222 0.80593 0.0
C706 C 0.61856 0.55089 0.81499 0.0
H707 H 0.67432 0.55023 0.79773 0.0
O708 O 0.68191 0.54743 0.87294 0.0
O709 O 0.6551 0.52654 0.85524 0.0
O710 O 0.70148 0.51019 0.84432 0.0
O711 O 0.67662 0.51 0.81389 0.0
C712 C 0.58752 0.57903 0.80984 0.0
C713 C 0.57252 0.56469 0.82307 0.0
H714 H 0.54894 0.53272 0.84962 0.0
H715 H 0.56594 0.49579 0.86463 0.0
H716 H 0.66238 0.58832 0.781 0.0
H717 H 0.62177 0.60254 0.78619 0.0
H718 H 0.58097 0.59531 0.80286 0.0
H719 H 0.55473 0.57026 0.8262 0.0
Mn720 Mn 0.49082 0.6806 0.87382 0.0
Mn721 Mn 0.48938 0.64585 0.82631 0.0
C722 C 0.45613 0.66358 0.86183 0.0
C723 C 0.49541 0.68451 0.91422 0.0
C724 C 0.49189 0.69867 0.82335 0.0
O725 O 0.52503 0.67193 0.8695 0.0
O726 O 0.52201 0.64891 0.83769 0.0
C727 C 0.50344 0.60151 0.84887 0.0
N728 N 0.4876 0.61407 0.83634 0.0
C729 C 0.46206 0.58089 0.83324 0.0
C730 C 0.4781 0.5676 0.84608 0.0
C731 C 0.49888 0.57797 0.85392 0.0
C732 C 0.46756 0.60426 0.82871 0.0
H733 H 0.51944 0.60936 0.85494 0.0
C734 C 0.5339 0.65877 0.85385 0.0
O735 O 0.49842 0.70222 0.90037 0.0
O736 O 0.49031 0.66476 0.90452 0.0
N737 N 0.45878 0.64102 0.8138 0.0
C738 C 0.4449 0.65636 0.80208 0.0
C739 C 0.4234 0.64874 0.79313 0.0
C740 C 0.41648 0.62543 0.79617 0.0
C741 C 0.43112 0.60992 0.80817 0.0
C742 C 0.45238 0.61849 0.81662 0.0
H743 H 0.45015 0.67428 0.79967 0.0
O744 O 0.45581 0.68229 0.87459 0.0
O745 O 0.47664 0.65583 0.85626 0.0
O746 O 0.49229 0.70259 0.84534 0.0
O747 O 0.49064 0.67818 0.81459 0.0
C748 C 0.4254 0.58634 0.81218 0.0
C749 C 0.44078 0.57188 0.82484 0.0
H750 H 0.47463 0.54945 0.85003 0.0
H751 H 0.51137 0.56783 0.86382 0.0
H752 H 0.41218 0.66082 0.78392 0.0
H753 H 0.39985 0.61965 0.7893 0.0
H754 H 0.40916 0.57917 0.80572 0.0
H755 H 0.43605 0.55385 0.82804 0.0
Mn756 Mn 0.68181 0.49249 0.12969 0.0
Mn757 Mn 0.64715 0.4902 0.1772 0.0
C758 C 0.66565 0.4574 0.14161 0.0
C759 C 0.68539 0.49725 0.0893 0.0
C760 C 0.69993 0.49372 0.18011 0.0
O761 O 0.67245 0.5265 0.13413 0.0
O762 O 0.64944 0.52291 0.16588 0.0
C763 C 0.60249 0.50325 0.15464 0.0
N764 N 0.6154 0.48771 0.16718 0.0
C765 C 0.58282 0.4614 0.17024 0.0
C766 C 0.56918 0.47714 0.1574 0.0
C767 C 0.57907 0.49815 0.14956 0.0
C768 C 0.60606 0.46744 0.17479 0.0
H769 H 0.60999 0.51943 0.14857 0.0
C770 C 0.65906 0.53505 0.14976 0.0
O771 O 0.70314 0.5006 0.10304 0.0
O772 O 0.66582 0.49174 0.09911 0.0
N773 N 0.64302 0.45948 0.18968 0.0
C774 C 0.65867 0.44594 0.20138 0.0
C775 C 0.65153 0.42427 0.21033 0.0
C776 C 0.62838 0.41684 0.2073 0.0
C777 C 0.61255 0.43112 0.1953 0.0
C778 C 0.62063 0.45258 0.18686 0.0
H779 H 0.67647 0.45159 0.20379 0.0
O780 O 0.68431 0.45755 0.12879 0.0
O781 O 0.65741 0.47772 0.14725 0.0
O782 O 0.70385 0.49428 0.15813 0.0
O783 O 0.67947 0.49213 0.18887 0.0
C784 C 0.5891 0.42487 0.19127 0.0
C785 C 0.5743 0.43992 0.17862 0.0
H786 H 0.55111 0.47325 0.15343 0.0
H787 H 0.56865 0.5104 0.13965 0.0
H788 H 0.66386 0.41333 0.21954 0.0
H789 H 0.62297 0.40009 0.21419 0.0
H790 H 0.5823 0.40846 0.19771 0.0
H791 H 0.55639 0.43478 0.17541 0.0
Mn792 Mn 0.51202 0.68098 0.13065 0.0
Mn793 Mn 0.51287 0.64592 0.17792 0.0
C794 C 0.54665 0.6641 0.14303 0.0
C795 C 0.50778 0.68486 0.0902 0.0
C796 C 0.50934 0.69872 0.18109 0.0
O797 O 0.47773 0.67218 0.1346 0.0
O798 O 0.48056 0.64815 0.1657 0.0
C799 C 0.50073 0.60126 0.15493 0.0
N800 N 0.51586 0.61423 0.1679 0.0
C801 C 0.54227 0.58179 0.17162 0.0
C802 C 0.52697 0.56808 0.15833 0.0
C803 C 0.50611 0.57787 0.14995 0.0
C804 C 0.53596 0.60499 0.17605 0.0
H805 H 0.48467 0.60868 0.14844 0.0
C806 C 0.4688 0.6584 0.14969 0.0
O807 O 0.50459 0.70258 0.10402 0.0
O808 O 0.51288 0.66514 0.09996 0.0
N809 N 0.54327 0.64197 0.19121 0.0
C810 C 0.55641 0.65771 0.20322 0.0
C811 C 0.57796 0.65073 0.21261 0.0
C812 C 0.58565 0.62763 0.20971 0.0
C813 C 0.57172 0.61169 0.19744 0.0
C814 C 0.55041 0.61963 0.18852 0.0
H815 H 0.55052 0.67545 0.20557 0.0
O816 O 0.54703 0.68279 0.13024 0.0
O817 O 0.52609 0.65628 0.14833 0.0
O818 O 0.51026 0.7029 0.15917 0.0
O819 O 0.51019 0.67815 0.18969 0.0
C820 C 0.57822 0.58829 0.19357 0.0
C821 C 0.56359 0.57339 0.18054 0.0
H822 H 0.53108 0.55005 0.15442 0.0
H823 H 0.4942 0.5674 0.13969 0.0
H824 H 0.58861 0.66314 0.22205 0.0
H825 H 0.60232 0.62235 0.2169 0.0
H826 H 0.5945 0.58158 0.20043 0.0
H827 H 0.56892 0.55552 0.17744 0.0
Mn828 Mn 0.49497 0.32237 0.13068 0.0
Mn829 Mn 0.49396 0.35829 0.17731 0.0
C830 C 0.46048 0.34023 0.14193 0.0
C831 C 0.50051 0.31759 0.0906 0.0
C832 C 0.49641 0.30545 0.18133 0.0
O833 O 0.52935 0.33028 0.13543 0.0
O834 O 0.52638 0.35566 0.16543 0.0
C835 C 0.50675 0.40262 0.15403 0.0
N836 N 0.49136 0.3899 0.16693 0.0
C837 C 0.46522 0.42262 0.17013 0.0
C838 C 0.4808 0.43607 0.1569 0.0
C839 C 0.50165 0.42602 0.14882 0.0
C840 C 0.47127 0.3994 0.17481 0.0
H841 H 0.52281 0.39499 0.14778 0.0
C842 C 0.53823 0.34461 0.15002 0.0
O843 O 0.50232 0.29998 0.10479 0.0
O844 O 0.49574 0.3377 0.09972 0.0
N845 N 0.46346 0.36263 0.19021 0.0
C846 C 0.45004 0.34712 0.20223 0.0
C847 C 0.42848 0.35438 0.21135 0.0
C848 C 0.42103 0.37752 0.20817 0.0
C849 C 0.43522 0.39322 0.19588 0.0
C850 C 0.45655 0.38501 0.18726 0.0
H851 H 0.45574 0.32935 0.2048 0.0
O852 O 0.45998 0.32144 0.1293 0.0
O853 O 0.48107 0.34773 0.14761 0.0
O854 O 0.49529 0.3009 0.15951 0.0
O855 O 0.49625 0.32619 0.18955 0.0
C856 C 0.42896 0.41664 0.19172 0.0
C857 C 0.44388 0.43129 0.17873 0.0
H858 H 0.47691 0.45411 0.15281 0.0
H859 H 0.51378 0.43629 0.13862 0.0
H860 H 0.41762 0.34217 0.2208 0.0
H861 H 0.40435 0.38302 0.21516 0.0
H862 H 0.41265 0.42354 0.1983 0.0
H863 H 0.43874 0.44918 0.17542 0.0
H864 H 0.16118 0.4147 0.33137 0.0
H865 H 0.12512 0.4558 0.3831 0.0
H866 H 0.16078 0.38093 0.35813 0.0
H867 H 0.12417 0.42236 0.40933 0.0
H868 H 0.10947 0.35667 0.4459 0.0
H869 H 0.10619 0.37993 0.41023 0.0
H870 H 0.18071 0.37568 0.40046 0.0
H871 H 0.18414 0.35333 0.43669 0.0
C872 C 0.15305 0.41636 0.34835 0.0
C873 C 0.14369 0.43781 0.35555 0.0
C874 C 0.15272 0.39715 0.36353 0.0
C875 C 0.14217 0.39902 0.38562 0.0
C876 C 0.13204 0.42031 0.39226 0.0
C877 C 0.13285 0.4395 0.37741 0.0
C878 C 0.12502 0.36 0.43569 0.0
C879 C 0.14707 0.35342 0.44408 0.0
C880 C 0.12317 0.37338 0.41537 0.0
C881 C 0.14327 0.37987 0.40289 0.0
C882 C 0.165 0.37103 0.40986 0.0
C883 C 0.16694 0.35824 0.43054 0.0
H884 H 0.65007 0.11085 0.44305 0.0
H885 H 0.65106 0.18569 0.43478 0.0
H886 H 0.62618 0.10736 0.40782 0.0
H887 H 0.62812 0.18207 0.39892 0.0
H888 H 0.58874 0.16127 0.32992 0.0
H889 H 0.62297 0.16162 0.3561 0.0
H890 H 0.58296 0.12501 0.40839 0.0
H891 H 0.54903 0.12527 0.38274 0.0
C892 C 0.64612 0.12643 0.43309 0.0
C893 C 0.65223 0.14854 0.44164 0.0
C894 C 0.63238 0.12444 0.41304 0.0
C895 C 0.62508 0.1445 0.40095 0.0
C896 C 0.63343 0.16639 0.40802 0.0
C897 C 0.64657 0.16844 0.42847 0.0
C898 C 0.58748 0.15333 0.34703 0.0
C899 C 0.56628 0.14377 0.3547 0.0
C900 C 0.60695 0.15342 0.36187 0.0
C901 C 0.60561 0.14307 0.38408 0.0
C902 C 0.58458 0.13275 0.39121 0.0
C903 C 0.56512 0.13315 0.37669 0.0
H904 H 0.89579 0.6497 0.44396 0.0
H905 H 0.82107 0.65166 0.43476 0.0
H906 H 0.89946 0.62609 0.40853 0.0
H907 H 0.8249 0.62902 0.39873 0.0
H908 H 0.88032 0.5494 0.38208 0.0
H909 H 0.88084 0.58292 0.40829 0.0
H910 H 0.84632 0.62463 0.35592 0.0
H911 H 0.84642 0.59084 0.32918 0.0
C912 C 0.8803 0.64602 0.43376 0.0
C913 C 0.85815 0.65234 0.44208 0.0
C914 C 0.88238 0.63245 0.4136 0.0
C915 C 0.8624 0.62556 0.40116 0.0
C916 C 0.84052 0.63406 0.40807 0.0
C917 C 0.83835 0.64701 0.42863 0.0
C918 C 0.87296 0.56578 0.37613 0.0
C919 C 0.86283 0.56755 0.35394 0.0
C920 C 0.87352 0.58499 0.39098 0.0
C921 C 0.86383 0.60636 0.38399 0.0
C922 C 0.85402 0.60833 0.36158 0.0
C923 C 0.85398 0.5891 0.34642 0.0
H924 H 0.35426 0.82066 0.43559 0.0
H925 H 0.35793 0.89523 0.44546 0.0
H926 H 0.37651 0.8243 0.39932 0.0
H927 H 0.3811 0.89871 0.40974 0.0
H928 H 0.45674 0.87987 0.38207 0.0
H929 H 0.4234 0.88073 0.40844 0.0
H930 H 0.38177 0.84438 0.35722 0.0
H931 H 0.41545 0.84406 0.33034 0.0
C932 C 0.35922 0.83789 0.42958 0.0
C933 C 0.35452 0.85766 0.44331 0.0
C934 C 0.37195 0.83995 0.40888 0.0
C935 C 0.38087 0.8617 0.40208 0.0
C936 C 0.3745 0.88172 0.41476 0.0
C937 C 0.36117 0.87975 0.43509 0.0
C938 C 0.44041 0.87218 0.37641 0.0
C939 C 0.43865 0.86143 0.35451 0.0
C940 C 0.42128 0.87293 0.39134 0.0
C941 C 0.39996 0.86286 0.38473 0.0
C942 C 0.39801 0.8524 0.3626 0.0
C943 C 0.41717 0.85211 0.34735 0.0
H944 H 0.12396 0.55098 0.62325 0.0
H945 H 0.15845 0.59163 0.67636 0.0
H946 H 0.12346 0.58476 0.59741 0.0
H947 H 0.15857 0.62571 0.64999 0.0
H948 H 0.10927 0.6511 0.56162 0.0
H949 H 0.1053 0.6278 0.59719 0.0
H950 H 0.1798 0.63057 0.60749 0.0
H951 H 0.18393 0.65288 0.5713 0.0
C952 C 0.13143 0.56725 0.62933 0.0
C953 C 0.14173 0.56872 0.65146 0.0
C954 C 0.13088 0.58662 0.6147 0.0
C955 C 0.14075 0.60786 0.62185 0.0
C956 C 0.15071 0.60953 0.64422 0.0
C957 C 0.15075 0.59014 0.65917 0.0
C958 C 0.12468 0.64747 0.57196 0.0
C959 C 0.14691 0.6536 0.56372 0.0
C960 C 0.12242 0.63407 0.59221 0.0
C961 C 0.1423 0.62716 0.6048 0.0
C962 C 0.16425 0.63559 0.59801 0.0
C963 C 0.1666 0.64836 0.57736 0.0
H964 H 0.35659 0.10911 0.56078 0.0
H965 H 0.35369 0.1838 0.56998 0.0
H966 H 0.38025 0.10576 0.59618 0.0
H967 H 0.37643 0.1803 0.60597 0.0
H968 H 0.4157 0.16034 0.67491 0.0
H969 H 0.38179 0.16019 0.64832 0.0
H970 H 0.42282 0.12366 0.59674 0.0
H971 H 0.4564 0.12437 0.62281 0.0
C972 C 0.36011 0.12466 0.57094 0.0
C973 C 0.35352 0.14673 0.56262 0.0
C974 C 0.37372 0.12276 0.5911 0.0
C975 C 0.38042 0.14283 0.60351 0.0
C976 C 0.37161 0.1646 0.59661 0.0
C977 C 0.3586 0.16659 0.57608 0.0
C978 C 0.41725 0.15229 0.65788 0.0
C979 C 0.43863 0.14288 0.65053 0.0
C980 C 0.39796 0.15211 0.64279 0.0
C981 C 0.39968 0.14164 0.62065 0.0
C982 C 0.4209 0.13147 0.61385 0.0
C983 C 0.44016 0.13214 0.62861 0.0
H984 H 0.84323 0.41587 0.67314 0.0
H985 H 0.87949 0.45746 0.62196 0.0
H986 H 0.84363 0.3824 0.64599 0.0
H987 H 0.88042 0.42431 0.59534 0.0
H988 H 0.89511 0.35863 0.55827 0.0
H989 H 0.89832 0.38188 0.59397 0.0
H990 H 0.82378 0.3776 0.60363 0.0
H991 H 0.82043 0.35526 0.56739 0.0
C992 C 0.85139 0.41771 0.65619 0.0
C993 C 0.86081 0.43921 0.64926 0.0
C994 C 0.85172 0.39866 0.64079 0.0
C995 C 0.86232 0.40076 0.61874 0.0
C996 C 0.8725 0.42209 0.61237 0.0
C997 C 0.87171 0.44111 0.62745 0.0
C998 C 0.87953 0.36197 0.56846 0.0
C999 C 0.85751 0.35536 0.56005 0.0
C1000 C 0.88135 0.37535 0.58878 0.0
C1001 C 0.86123 0.38179 0.60127 0.0
C1002 C 0.83951 0.37298 0.59423 0.0
C1003 C 0.83761 0.3602 0.57355 0.0
H1004 H 0.59228 0.84564 0.67567 0.0
H1005 H 0.551 0.88002 0.62296 0.0
H1006 H 0.62626 0.84611 0.64917 0.0
H1007 H 0.58467 0.88109 0.59699 0.0
H1008 H 0.65069 0.89632 0.56102 0.0
H1009 H 0.62743 0.89977 0.59669 0.0
H1010 H 0.63128 0.82526 0.60655 0.0
H1011 H 0.65356 0.82164 0.57028 0.0
C1012 C 0.59063 0.85344 0.65854 0.0
C1013 C 0.56907 0.86226 0.65098 0.0
C1014 C 0.60996 0.85381 0.64351 0.0
C1015 C 0.60808 0.86391 0.62122 0.0
C1016 C 0.5867 0.87357 0.61422 0.0
C1017 C 0.56739 0.8727 0.62893 0.0
C1018 C 0.64731 0.8808 0.57128 0.0
C1019 C 0.65373 0.8587 0.56291 0.0
C1020 C 0.63393 0.88276 0.59159 0.0
C1021 C 0.62734 0.86272 0.60408 0.0
C1022 C 0.63606 0.84093 0.59715 0.0
C1023 C 0.64881 0.83887 0.57645 0.0
H1024 H 0.33044 0.16002 0.41661 0.0
H1025 H 0.38224 0.12464 0.4582 0.0
H1026 H 0.35751 0.15994 0.38308 0.0
H1027 H 0.40879 0.12399 0.42497 0.0
H1028 H 0.44536 0.10922 0.35877 0.0
H1029 H 0.40992 0.10585 0.3824 0.0
H1030 H 0.39986 0.18033 0.37822 0.0
H1031 H 0.43587 0.18386 0.35552 0.0
C1032 C 0.34752 0.15213 0.41844 0.0
C1033 C 0.35463 0.14286 0.43996 0.0
C1034 C 0.36288 0.15198 0.39936 0.0
C1035 C 0.38507 0.1417 0.40143 0.0
C1036 C 0.39165 0.13167 0.42278 0.0
C1037 C 0.37661 0.1323 0.44184 0.0
C1038 C 0.43514 0.12475 0.36224 0.0
C1039 C 0.44337 0.14681 0.35551 0.0
C1040 C 0.41497 0.12284 0.37583 0.0
C1041 C 0.40244 0.14289 0.38237 0.0
C1042 C 0.4093 0.16465 0.37351 0.0
C1043 C 0.42985 0.16665 0.36052 0.0
H1044 H 0.87929 0.3841 0.45502 0.0
H1045 H 0.84328 0.33211 0.41424 0.0
H1046 H 0.87954 0.41043 0.42161 0.0
H1047 H 0.84293 0.35898 0.38054 0.0
H1048 H 0.81944 0.4382 0.3533 0.0
H1049 H 0.82264 0.40213 0.376 0.0
H1050 H 0.89741 0.41035 0.37842 0.0
H1051 H 0.89437 0.44576 0.35477 0.0
C1052 C 0.8714 0.37838 0.43881 0.0
C1053 C 0.86081 0.3564 0.4372 0.0
C1054 C 0.87178 0.3933 0.41965 0.0
C1055 C 0.86146 0.3866 0.39848 0.0
C1056 C 0.85111 0.36443 0.39668 0.0
C1057 C 0.85122 0.34918 0.41585 0.0
C1058 C 0.83661 0.43175 0.3579 0.0
C1059 C 0.85666 0.44478 0.35241 0.0
C1060 C 0.83842 0.41118 0.3709 0.0
C1061 C 0.86021 0.40382 0.37928 0.0
C1062 C 0.8804 0.4158 0.37221 0.0
C1063 C 0.87866 0.43597 0.35861 0.0
H1064 H 0.55879 0.89574 0.3582 0.0
H1065 H 0.56885 0.82114 0.3557 0.0
H1066 H 0.59388 0.89957 0.38227 0.0
H1067 H 0.6045 0.82513 0.37888 0.0
H1068 H 0.67379 0.84639 0.41687 0.0
H1069 H 0.64667 0.84599 0.38342 0.0
H1070 H 0.59516 0.88182 0.42514 0.0
H1071 H 0.62181 0.88163 0.45835 0.0
C1072 C 0.56907 0.88031 0.36193 0.0
C1073 C 0.56111 0.85814 0.35524 0.0
C1074 C 0.58903 0.88249 0.37579 0.0
C1075 C 0.60164 0.86259 0.38264 0.0
C1076 C 0.59503 0.8407 0.3739 0.0
C1077 C 0.57469 0.83844 0.36063 0.0
C1078 C 0.65665 0.85415 0.41869 0.0
C1079 C 0.6495 0.86348 0.44017 0.0
C1080 C 0.64126 0.85402 0.39966 0.0
C1081 C 0.61898 0.8641 0.4017 0.0
C1082 C 0.61236 0.87425 0.42299 0.0
C1083 C 0.62745 0.8739 0.44204 0.0
H1084 H 0.1596 0.67314 0.41765 0.0
H1085 H 0.12419 0.62147 0.45934 0.0
H1086 H 0.15988 0.64589 0.3843 0.0
H1087 H 0.12389 0.59469 0.42623 0.0
H1088 H 0.10974 0.55819 0.35937 0.0
H1089 H 0.10608 0.59335 0.38339 0.0
H1090 H 0.18057 0.60362 0.37987 0.0
H1091 H 0.18437 0.56792 0.35674 0.0
C1092 C 0.15179 0.65604 0.41954 0.0
C1093 C 0.14244 0.64901 0.44105 0.0
C1094 C 0.15185 0.64057 0.40056 0.0
C1095 C 0.14168 0.61835 0.40269 0.0
C1096 C 0.13152 0.61185 0.42401 0.0
C1097 C 0.13195 0.62701 0.443 0.0
C1098 C 0.12521 0.56841 0.36306 0.0
C1099 C 0.14734 0.56035 0.35634 0.0
C1100 C 0.12314 0.5884 0.37689 0.0
C1101 C 0.1431 0.60093 0.38368 0.0
C1102 C 0.16495 0.59421 0.37493 0.0
C1103 C 0.16711 0.57384 0.36169 0.0
H1104 H 0.38498 0.87846 0.5481 0.0
H1105 H 0.3334 0.84235 0.58931 0.0
H1106 H 0.41171 0.87848 0.58122 0.0
H1107 H 0.36067 0.84175 0.62268 0.0
H1108 H 0.44719 0.89321 0.64842 0.0
H1109 H 0.41183 0.89621 0.62468 0.0
H1110 H 0.40405 0.82138 0.62648 0.0
H1111 H 0.44006 0.81822 0.6493 0.0
C1112 C 0.37944 0.87049 0.56433 0.0
C1113 C 0.35746 0.85994 0.56615 0.0
C1114 C 0.39459 0.87073 0.58332 0.0
C1115 C 0.38812 0.86031 0.60451 0.0
C1116 C 0.36594 0.85 0.60651 0.0
C1117 C 0.35047 0.85025 0.58753 0.0
C1118 C 0.43751 0.87747 0.64441 0.0
C1119 C 0.4464 0.85547 0.65052 0.0
C1120 C 0.41737 0.87919 0.63075 0.0
C1121 C 0.4055 0.85899 0.62354 0.0
C1122 C 0.413 0.83717 0.63173 0.0
C1123 C 0.43354 0.83539 0.64478 0.0
H1124 H 0.18492 0.43929 0.65017 0.0
H1125 H 0.11002 0.44702 0.64835 0.0
H1126 H 0.18177 0.40324 0.62742 0.0
H1127 H 0.10703 0.41162 0.62467 0.0
H1128 H 0.16076 0.3326 0.59027 0.0
H1129 H 0.16118 0.36003 0.62352 0.0
H1130 H 0.12522 0.41112 0.58144 0.0
H1131 H 0.12541 0.38423 0.54845 0.0
C1132 C 0.16777 0.4329 0.64545 0.0
C1133 C 0.14771 0.44594 0.65092 0.0
C1134 C 0.16598 0.41233 0.63244 0.0
C1135 C 0.14422 0.40498 0.62401 0.0
C1136 C 0.12402 0.41705 0.63093 0.0
C1137 C 0.12573 0.43721 0.64456 0.0
C1138 C 0.15299 0.34972 0.58833 0.0
C1139 C 0.14357 0.35666 0.56682 0.0
C1140 C 0.15314 0.36528 0.60725 0.0
C1141 C 0.14299 0.38752 0.60503 0.0
C1142 C 0.13284 0.39396 0.5837 0.0
C1143 C 0.13318 0.37871 0.56479 0.0
H1144 H 0.56899 0.18303 0.64958 0.0
H1145 H 0.55883 0.10852 0.6458 0.0
H1146 H 0.60466 0.17939 0.62637 0.0
H1147 H 0.59394 0.10503 0.62168 0.0
H1148 H 0.62167 0.1242 0.54587 0.0
H1149 H 0.59517 0.1234 0.57919 0.0
H1150 H 0.64674 0.15872 0.62125 0.0
H1151 H 0.6737 0.15895 0.58767 0.0
C1152 C 0.57482 0.16582 0.64436 0.0
C1153 C 0.56121 0.14605 0.6494 0.0
C1154 C 0.59516 0.16375 0.63107 0.0
C1155 C 0.60174 0.142 0.62195 0.0
C1156 C 0.58911 0.12201 0.62845 0.0
C1157 C 0.56914 0.12398 0.64234 0.0
C1158 C 0.62736 0.13169 0.56228 0.0
C1159 C 0.64938 0.14215 0.56421 0.0
C1160 C 0.61235 0.13097 0.58139 0.0
C1161 C 0.61903 0.14081 0.60281 0.0
C1162 C 0.64129 0.15093 0.60491 0.0
C1163 C 0.65659 0.15116 0.5858 0.0
H1164 H 0.89532 0.5592 0.64679 0.0
H1165 H 0.82078 0.56964 0.64955 0.0
H1166 H 0.89926 0.59436 0.62285 0.0
H1167 H 0.82488 0.60537 0.62652 0.0
H1168 H 0.84607 0.67423 0.5879 0.0
H1169 H 0.84576 0.64737 0.62156 0.0
H1170 H 0.88147 0.59554 0.58013 0.0
H1171 H 0.88119 0.62193 0.54673 0.0
C1172 C 0.87994 0.56959 0.64317 0.0
C1173 C 0.85774 0.56171 0.64986 0.0
C1174 C 0.88217 0.58959 0.62938 0.0
C1175 C 0.86231 0.6023 0.62261 0.0
C1176 C 0.84042 0.5958 0.63142 0.0
C1177 C 0.83809 0.57542 0.64461 0.0
C1178 C 0.85382 0.65708 0.58619 0.0
C1179 C 0.8631 0.64976 0.56474 0.0
C1180 C 0.85375 0.64184 0.60535 0.0
C1181 C 0.86383 0.61954 0.60344 0.0
C1182 C 0.87392 0.61276 0.58218 0.0
C1183 C 0.87351 0.6277 0.56302 0.0
H1184 H 0.35576 0.43665 0.18435 0.0
H1185 H 0.35841 0.44664 0.10975 0.0
H1186 H 0.37877 0.40088 0.18041 0.0
H1187 H 0.38233 0.41143 0.10596 0.0
H1188 H 0.45835 0.38346 0.12413 0.0
H1189 H 0.42515 0.41013 0.12384 0.0
H1190 H 0.38331 0.35867 0.15956 0.0
H1191 H 0.41675 0.33153 0.15926 0.0
C1192 C 0.36068 0.43077 0.16706 0.0
C1193 C 0.35539 0.44435 0.14735 0.0
C1194 C 0.37385 0.41036 0.16483 0.0
C1195 C 0.3826 0.4037 0.14296 0.0
C1196 C 0.37583 0.41632 0.12304 0.0
C1197 C 0.36206 0.43634 0.12518 0.0
C1198 C 0.44201 0.37783 0.13182 0.0
C1199 C 0.44011 0.35579 0.14223 0.0
C1200 C 0.42297 0.39294 0.1314 0.0
C1201 C 0.40165 0.38634 0.14149 0.0
C1202 C 0.39957 0.36406 0.15157 0.0
C1203 C 0.4186 0.34866 0.15151 0.0
H1204 H 0.41207 0.67216 0.84501 0.0
H1205 H 0.45438 0.62032 0.87946 0.0
H1206 H 0.37887 0.64469 0.84475 0.0
H1207 H 0.42144 0.59339 0.87984 0.0
H1208 H 0.35489 0.55706 0.89516 0.0
H1209 H 0.37813 0.59274 0.89836 0.0
H1210 H 0.37539 0.6014 0.82365 0.0
H1211 H 0.35311 0.56509 0.82028 0.0
C1212 C 0.41412 0.655 0.85266 0.0
C1213 C 0.43576 0.648 0.86174 0.0
C1214 C 0.39524 0.63941 0.85259 0.0
C1215 C 0.39762 0.61709 0.86251 0.0
C1216 C 0.41906 0.61061 0.8724 0.0
C1217 C 0.43794 0.62589 0.87196 0.0
C1218 C 0.35858 0.567 0.8795 0.0
C1219 C 0.35239 0.55828 0.85746 0.0
C1220 C 0.37194 0.58732 0.88133 0.0
C1221 C 0.37875 0.59955 0.8612 0.0
C1222 C 0.37044 0.59219 0.83938 0.0
C1223 C 0.3577 0.57147 0.83748 0.0
H1224 H 0.44399 0.35359 0.89574 0.0
H1225 H 0.4347 0.35187 0.82102 0.0
H1226 H 0.40835 0.37684 0.89956 0.0
H1227 H 0.39846 0.37413 0.82499 0.0
H1228 H 0.32901 0.41229 0.84635 0.0
H1229 H 0.35576 0.3785 0.84619 0.0
H1230 H 0.40788 0.41997 0.88136 0.0
H1231 H 0.38167 0.45349 0.88089 0.0
C1232 C 0.43373 0.35723 0.88028 0.0
C1233 C 0.44209 0.35111 0.85808 0.0
C1234 C 0.41344 0.3706 0.88245 0.0
C1235 C 0.40093 0.37749 0.86251 0.0
C1236 C 0.40787 0.36911 0.84058 0.0
C1237 C 0.42854 0.35636 0.83833 0.0
C1238 C 0.3462 0.41397 0.85404 0.0
C1239 C 0.35366 0.43546 0.86309 0.0
C1240 C 0.36136 0.39474 0.85405 0.0
C1241 C 0.38371 0.39664 0.86402 0.0
C1242 C 0.39062 0.41794 0.87392 0.0
C1243 C 0.37577 0.43716 0.8734 0.0
H1244 H 0.64852 0.43701 0.82062 0.0
H1245 H 0.64566 0.44744 0.89515 0.0
H1246 H 0.62577 0.40112 0.82473 0.0
H1247 H 0.62201 0.41209 0.89911 0.0
H1248 H 0.54627 0.38341 0.88109 0.0
H1249 H 0.57927 0.4103 0.88132 0.0
H1250 H 0.62145 0.35905 0.84567 0.0
H1251 H 0.58821 0.3317 0.84602 0.0
C1252 C 0.64361 0.4312 0.83793 0.0
C1253 C 0.64877 0.44495 0.85758 0.0
C1254 C 0.63059 0.41072 0.84027 0.0
C1255 C 0.62185 0.40414 0.86216 0.0
C1256 C 0.62849 0.41692 0.88202 0.0
C1257 C 0.64212 0.43703 0.87977 0.0
C1258 C 0.56264 0.37788 0.87341 0.0
C1259 C 0.56469 0.35583 0.86302 0.0
C1260 C 0.58157 0.39311 0.87379 0.0
C1261 C 0.60293 0.38664 0.8637 0.0
C1262 C 0.60517 0.36436 0.85365 0.0
C1263 C 0.58624 0.34883 0.85375 0.0
H1264 H 0.67168 0.59071 0.84239 0.0
H1265 H 0.62026 0.54951 0.87873 0.0
H1266 H 0.64452 0.62419 0.84222 0.0
H1267 H 0.59364 0.58269 0.87914 0.0
H1268 H 0.55735 0.64886 0.89382 0.0
H1269 H 0.59306 0.62567 0.89689 0.0
H1270 H 0.60155 0.62851 0.82216 0.0
H1271 H 0.56521 0.65077 0.81892 0.0
C1272 C 0.65468 0.58896 0.85045 0.0
C1273 C 0.64769 0.56756 0.86007 0.0
C1274 C 0.63927 0.60801 0.85044 0.0
C1275 C 0.61717 0.60602 0.86093 0.0
C1276 C 0.61071 0.5848 0.87129 0.0
C1277 C 0.6258 0.56577 0.87081 0.0
C1278 C 0.56726 0.64523 0.87813 0.0
C1279 C 0.55846 0.6514 0.85612 0.0
C1280 C 0.58761 0.63188 0.87989 0.0
C1281 C 0.59975 0.62504 0.85971 0.0
C1282 C 0.59238 0.63344 0.83793 0.0
C1283 C 0.57165 0.64618 0.8361 0.0
H1284 H 0.64866 0.55831 0.1098 0.0
H1285 H 0.65047 0.5662 0.1847 0.0
H1286 H 0.6251 0.59379 0.10672 0.0
H1287 H 0.62787 0.60233 0.18145 0.0
H1288 H 0.54886 0.62103 0.12501 0.0
H1289 H 0.58197 0.5943 0.12473 0.0
H1290 H 0.62375 0.64541 0.16099 0.0
H1291 H 0.59037 0.67268 0.16067 0.0
C1292 C 0.6449 0.56818 0.12549 0.0
C1293 C 0.6512 0.55946 0.1475 0.0
C1294 C 0.63135 0.58839 0.12373 0.0
C1295 C 0.62444 0.60051 0.1439 0.0
C1296 C 0.63287 0.59319 0.16569 0.0
C1297 C 0.6458 0.57257 0.16753 0.0
C1298 C 0.56516 0.62659 0.13281 0.0
C1299 C 0.56706 0.64859 0.14333 0.0
C1300 C 0.58415 0.61144 0.13242 0.0
C1301 C 0.60543 0.61793 0.14264 0.0
C1302 C 0.60752 0.64013 0.1529 0.0
C1303 C 0.58853 0.6556 0.1528 0.0
H1304 H 0.33144 0.59012 0.16127 0.0
H1305 H 0.38291 0.54878 0.12512 0.0
H1306 H 0.35838 0.62375 0.16088 0.0
H1307 H 0.40933 0.58208 0.12418 0.0
H1308 H 0.44606 0.64784 0.10947 0.0
H1309 H 0.4104 0.62456 0.10624 0.0
H1310 H 0.40077 0.62873 0.18079 0.0
H1311 H 0.43699 0.65108 0.18417 0.0
C1312 C 0.34841 0.58837 0.15313 0.0
C1313 C 0.35548 0.5669 0.14374 0.0
C1314 C 0.36369 0.6075 0.15281 0.0
C1315 C 0.38576 0.60552 0.14223 0.0
C1316 C 0.39228 0.58421 0.13207 0.0
C1317 C 0.37732 0.56511 0.13287 0.0
C1318 C 0.43588 0.64448 0.12505 0.0
C1319 C 0.4443 0.65105 0.14708 0.0
C1320 C 0.41558 0.63109 0.12322 0.0
C1321 C 0.40312 0.62459 0.14333 0.0
C1322 C 0.41014 0.6334 0.16507 0.0
C1323 C 0.43082 0.64619 0.16698 0.0
H1324 H 0.6755 0.41363 0.15838 0.0
H1325 H 0.62239 0.4545 0.12413 0.0
H1326 H 0.64897 0.37968 0.15873 0.0
H1327 H 0.59638 0.42083 0.12385 0.0
H1328 H 0.57014 0.35273 0.18424 0.0
H1329 H 0.60624 0.37518 0.18017 0.0
H1330 H 0.59628 0.37757 0.10561 0.0
H1331 H 0.5608 0.35412 0.10952 0.0
C1332 C 0.65827 0.4152 0.15079 0.0
C1333 C 0.65062 0.43664 0.14176 0.0
C1334 C 0.64322 0.39589 0.15089 0.0
C1335 C 0.62081 0.39765 0.14106 0.0
C1336 C 0.6137 0.41891 0.13119 0.0
C1337 C 0.62843 0.43821 0.1316 0.0
C1338 C 0.57626 0.3572 0.16692 0.0
C1339 C 0.56274 0.35179 0.14719 0.0
C1340 C 0.59685 0.37006 0.1646 0.0
C1341 C 0.60372 0.37839 0.14264 0.0
C1342 C 0.59124 0.37136 0.12274 0.0
C1343 C 0.57104 0.35788 0.12497 0.0
H1344 H 0.05885 0.35392 0.51887 0.0
H1345 H 0.06315 0.28286 0.49408 0.0
H1346 H 0.0167 0.35234 0.51668 0.0
H1347 H 0.02041 0.28147 0.49123 0.0
H1348 H 0.94095 0.28354 0.51133 0.0
H1349 H 0.98369 0.28192 0.51412 0.0
H1350 H 0.98783 0.35203 0.48674 0.0
H1351 H 0.94568 0.35386 0.48461 0.0
C1352 C 0.05079 0.33795 0.51277 0.0
C1353 C 0.06441 0.31858 0.50643 0.0
C1354 C 0.02653 0.33708 0.51142 0.0
C1355 C 0.0151 0.3169 0.50347 0.0
C1356 C 0.02865 0.29727 0.49752 0.0
C1357 C 0.05311 0.2981 0.499 0.0
C1358 C 0.95108 0.29856 0.50596 0.0
C1359 C 0.93991 0.31892 0.49802 0.0
C1360 C 0.97554 0.29759 0.50742 0.0
C1361 C 0.98921 0.31695 0.50092 0.0
C1362 C 0.97791 0.33699 0.49244 0.0
C1363 C 0.95365 0.338 0.49111 0.0
H1364 H 0.65377 0.06088 0.48947 0.0
H1365 H 0.72573 0.06403 0.51135 0.0
H1366 H 0.65568 0.01862 0.48859 0.0
H1367 H 0.72744 0.02131 0.51183 0.0
H1368 H 0.72596 0.94275 0.49163 0.0
H1369 H 0.72745 0.98549 0.49101 0.0
H1370 H 0.65584 0.98791 0.51478 0.0
H1371 H 0.65416 0.94565 0.51405 0.0
C1372 C 0.67003 0.05244 0.49417 0.0
C1373 C 0.68955 0.0657 0.50063 0.0
C1374 C 0.67109 0.02814 0.49392 0.0
C1375 C 0.69154 0.01635 0.50072 0.0
C1376 C 0.7114 0.0297 0.50642 0.0
C1377 C 0.71045 0.05418 0.5062 0.0
C1378 C 0.71067 0.95256 0.49686 0.0
C1379 C 0.68987 0.94095 0.50263 0.0
C1380 C 0.71149 0.97704 0.49655 0.0
C1381 C 0.69161 0.99032 0.50237 0.0
C1382 C 0.67127 0.97845 0.50934 0.0
C1383 C 0.67033 0.95414 0.50919 0.0
H1384 H 0.94203 0.72581 0.51199 0.0
H1385 H 0.94521 0.65361 0.4909 0.0
H1386 H 0.98475 0.72752 0.51247 0.0
H1387 H 0.98747 0.6555 0.49003 0.0
H1388 H 0.06046 0.65428 0.51534 0.0
H1389 H 0.0182 0.65599 0.5162 0.0
H1390 H 0.02052 0.72729 0.49154 0.0
H1391 H 0.06326 0.7258 0.49203 0.0
C1392 C 0.95189 0.71047 0.50703 0.0
C1393 C 0.94037 0.68951 0.50167 0.0
C1394 C 0.97636 0.71142 0.50725 0.0
C1395 C 0.98972 0.6915 0.50176 0.0
C1396 C 0.97794 0.67097 0.4952 0.0
C1397 C 0.95364 0.66992 0.49544 0.0
C1398 C 0.05194 0.6704 0.51031 0.0
C1399 C 0.0651 0.68985 0.50346 0.0
C1400 C 0.02764 0.67134 0.51055 0.0
C1401 C 0.01575 0.6916 0.50335 0.0
C1402 C 0.02899 0.7114 0.49725 0.0
C1403 C 0.05348 0.71058 0.49748 0.0
H1404 H 0.3528 0.05886 0.48745 0.0
H1405 H 0.28215 0.06252 0.51347 0.0
H1406 H 0.35144 0.01669 0.48904 0.0
H1407 H 0.28099 0.01972 0.51572 0.0
H1408 H 0.28318 0.94057 0.49415 0.0
H1409 H 0.28125 0.98334 0.49217 0.0
H1410 H 0.35175 0.98742 0.51857 0.0
H1411 H 0.35387 0.94525 0.51989 0.0
C1412 C 0.33697 0.05065 0.4937 0.0
C1413 C 0.31765 0.0641 0.50056 0.0
C1414 C 0.33623 0.02638 0.49471 0.0
C1415 C 0.31623 0.01475 0.50283 0.0
C1416 C 0.29664 0.02813 0.5093 0.0
C1417 C 0.29735 0.05261 0.50816 0.0
C1418 C 0.29822 0.9507 0.49947 0.0
C1419 C 0.31877 0.93951 0.50689 0.0
C1420 C 0.29707 0.97517 0.49849 0.0
C1421 C 0.31645 0.98883 0.50495 0.0
C1422 C 0.33669 0.9775 0.51292 0.0
C1423 C 0.33787 0.95324 0.51377 0.0
H1424 H 0.48603 0.94551 0.35283 0.0
H1425 H 0.5122 0.94147 0.28224 0.0
H1426 H 0.48749 0.98767 0.35118 0.0
H1427 H 0.51427 0.98427 0.28079 0.0
H1428 H 0.51872 0.05901 0.35315 0.0
H1429 H 0.51729 0.01685 0.35124 0.0
H1430 H 0.49039 0.02065 0.28092 0.0
H1431 H 0.49244 0.06343 0.28262 0.0
C1432 C 0.49228 0.95363 0.33695 0.0
C1433 C 0.49923 0.94008 0.31774 0.0
C1434 C 0.4932 0.97789 0.33604 0.0
C1435 C 0.5013 0.98941 0.31597 0.0
C1436 C 0.50786 0.97593 0.29648 0.0
C1437 C 0.50683 0.95145 0.29736 0.0
C1438 C 0.51246 0.05097 0.33722 0.0
C1439 C 0.50546 0.06463 0.31811 0.0
C1440 C 0.51155 0.02671 0.33617 0.0
C1441 C 0.50342 0.01531 0.31604 0.0
C1442 C 0.49682 0.02889 0.29665 0.0
C1443 C 0.49784 0.05337 0.29767 0.0
H1444 H 0.9423 0.49351 0.28134 0.0
H1445 H 0.94622 0.51797 0.35255 0.0
H1446 H 0.98509 0.49095 0.28008 0.0
H1447 H 0.98836 0.51606 0.3511 0.0
H1448 H 0.05951 0.48463 0.35279 0.0
H1449 H 0.01736 0.48616 0.35065 0.0
H1450 H 0.02165 0.51446 0.2809 0.0
H1451 H 0.06442 0.51227 0.28283 0.0
C1452 C 0.95225 0.49839 0.29665 0.0
C1453 C 0.94085 0.50567 0.31712 0.0
C1454 C 0.97673 0.49708 0.29588 0.0
C1455 C 0.99016 0.50304 0.31559 0.0
C1456 C 0.97862 0.5108 0.33578 0.0
C1457 C 0.95436 0.51199 0.33657 0.0
C1458 C 0.05158 0.49122 0.33695 0.0
C1459 C 0.06537 0.49857 0.31807 0.0
C1460 C 0.02733 0.49218 0.33576 0.0
C1461 C 0.01606 0.50075 0.31573 0.0
C1462 C 0.02978 0.50768 0.29655 0.0
C1463 C 0.05425 0.50658 0.29771 0.0
H1464 H 0.51903 0.94528 0.65211 0.0
H1465 H 0.49407 0.94079 0.72312 0.0
H1466 H 0.51704 0.9874 0.65387 0.0
H1467 H 0.49145 0.98356 0.72468 0.0
H1468 H 0.48543 0.05849 0.65254 0.0
H1469 H 0.48697 0.01633 0.65439 0.0
H1470 H 0.51509 0.02014 0.72424 0.0
H1471 H 0.51292 0.06292 0.7226 0.0
C1472 C 0.51292 0.95329 0.66811 0.0
C1473 C 0.50649 0.93962 0.68741 0.0
C1474 C 0.51169 0.97753 0.66907 0.0
C1475 C 0.50378 0.98891 0.6893 0.0
C1476 C 0.4977 0.97533 0.70886 0.0
C1477 C 0.49905 0.95086 0.70792 0.0
C1478 C 0.49197 0.05046 0.66834 0.0
C1479 C 0.49929 0.06411 0.68734 0.0
C1480 C 0.49294 0.0262 0.66937 0.0
C1481 C 0.50146 0.0148 0.68934 0.0
C1482 C 0.50835 0.02838 0.70863 0.0
C1483 C 0.50726 0.05286 0.70764 0.0
H1484 H 0.94038 0.51251 0.72281 0.0
H1485 H 0.945 0.4858 0.65246 0.0
H1486 H 0.98317 0.51471 0.72456 0.0
H1487 H 0.98715 0.48737 0.65441 0.0
H1488 H 0.05817 0.51938 0.65254 0.0
H1489 H 0.01604 0.51745 0.65425 0.0
H1490 H 0.0198 0.49113 0.72479 0.0
H1491 H 0.06258 0.49368 0.72328 0.0
C1492 C 0.95049 0.50703 0.70781 0.0
C1493 C 0.93929 0.49928 0.6874 0.0
C1494 C 0.97496 0.50814 0.70886 0.0
C1495 C 0.98859 0.50149 0.68951 0.0
C1496 C 0.97725 0.49316 0.66944 0.0
C1497 C 0.953 0.49218 0.66835 0.0
C1498 C 0.05014 0.51313 0.66847 0.0
C1499 C 0.06379 0.50645 0.68771 0.0
C1500 C 0.02589 0.51193 0.66941 0.0
C1501 C 0.01449 0.50383 0.68954 0.0
C1502 C 0.02805 0.49753 0.70905 0.0
C1503 C 0.05252 0.49884 0.70814 0.0
H1504 H 0.35183 0.48472 0.94675 0.0
H1505 H 0.28094 0.51002 0.94234 0.0
H1506 H 0.35027 0.48712 0.98887 0.0
H1507 H 0.27958 0.51304 0.9851 0.0
H1508 H 0.28206 0.49258 0.06476 0.0
H1509 H 0.28012 0.48987 0.02201 0.0
H1510 H 0.35006 0.51761 0.01738 0.0
H1511 H 0.3522 0.51968 0.05952 0.0
C1512 C 0.3359 0.49098 0.95478 0.0
C1513 C 0.31657 0.49741 0.94114 0.0
C1514 C 0.33504 0.49244 0.97902 0.0
C1515 C 0.31492 0.50059 0.99041 0.0
C1516 C 0.29532 0.50662 0.97686 0.0
C1517 C 0.29614 0.50504 0.9524 0.0
C1518 C 0.29697 0.49805 0.05452 0.0
C1519 C 0.31738 0.50605 0.06554 0.0
C1520 C 0.29581 0.49665 0.03006 0.0
C1521 C 0.31505 0.50325 0.01627 0.0
C1522 C 0.33512 0.51184 0.02742 0.0
C1523 C 0.33631 0.51311 0.05166 0.0
H1524 H 0.51304 0.27899 0.94215 0.0
H1525 H 0.49063 0.35081 0.94492 0.0
H1526 H 0.51327 0.27746 0.98489 0.0
H1527 H 0.48953 0.34908 0.98718 0.0
H1528 H 0.51435 0.351 0.06036 0.0
H1529 H 0.5155 0.34916 0.0181 0.0
H1530 H 0.49208 0.27746 0.02053 0.0
H1531 H 0.49227 0.2791 0.06326 0.0
C1532 C 0.50774 0.29428 0.95192 0.0
C1533 C 0.50208 0.3151 0.94029 0.0
C1534 C 0.50782 0.29343 0.97641 0.0
C1535 C 0.50189 0.3133 0.98965 0.0
C1536 C 0.49504 0.33366 0.97774 0.0
C1537 C 0.49542 0.33463 0.95344 0.0
C1538 C 0.50965 0.33477 0.05187 0.0
C1539 C 0.50306 0.31525 0.06506 0.0
C1540 C 0.51006 0.33375 0.02757 0.0
C1541 C 0.5033 0.31333 0.0157 0.0
C1542 C 0.49745 0.29347 0.02898 0.0
C1543 C 0.4975 0.29438 0.05346 0.0
H1544 H 0.72143 0.49421 0.93994 0.0
H1545 H 0.65103 0.5207 0.94504 0.0
H1546 H 0.72334 0.49159 0.98268 0.0
H1547 H 0.65314 0.51872 0.98719 0.0
H1548 H 0.65174 0.48613 0.05803 0.0
H1549 H 0.65316 0.48851 0.0159 0.0
H1550 H 0.72376 0.51467 0.01946 0.0
H1551 H 0.72255 0.51165 0.06222 0.0
C1552 C 0.70645 0.49957 0.95015 0.0
C1553 C 0.68598 0.50738 0.93909 0.0
C1554 C 0.70759 0.49821 0.9746 0.0
C1555 C 0.68828 0.50468 0.98837 0.0
C1556 C 0.66814 0.51306 0.97718 0.0
C1557 C 0.66697 0.51429 0.95293 0.0
C1558 C 0.66762 0.49244 0.04995 0.0
C1559 C 0.68697 0.49892 0.06354 0.0
C1560 C 0.66839 0.4939 0.02571 0.0
C1561 C 0.68845 0.5021 0.01425 0.0
C1562 C 0.70806 0.5082 0.02775 0.0
C1563 C 0.70733 0.50662 0.05221 0.0
H1564 H 0.48437 0.65113 0.94583 0.0
H1565 H 0.50966 0.72196 0.94095 0.0
H1566 H 0.48684 0.65294 0.98796 0.0
H1567 H 0.51281 0.72358 0.98366 0.0
H1568 H 0.49327 0.72211 0.06332 0.0
H1569 H 0.49021 0.72354 0.02058 0.0
H1570 H 0.51697 0.65317 0.01659 0.0
H1571 H 0.51936 0.65153 0.05873 0.0
C1572 C 0.49064 0.6671 0.95375 0.0
C1573 C 0.49704 0.68633 0.93998 0.0
C1574 C 0.49216 0.6681 0.978 0.0
C1575 C 0.50034 0.68829 0.98926 0.0
C1576 C 0.50635 0.70779 0.97555 0.0
C1577 C 0.50469 0.70682 0.9511 0.0
C1578 C 0.49845 0.70699 0.05322 0.0
C1579 C 0.50629 0.68662 0.06444 0.0
C1580 C 0.49684 0.70785 0.02876 0.0
C1581 C 0.50307 0.68837 0.01514 0.0
C1582 C 0.51147 0.66831 0.02649 0.0
C1583 C 0.51294 0.66741 0.05074 0.0
H1584 H 0.1737 0.25914 0.51853 0.0
H1585 H 0.2259 0.30788 0.49439 0.0
H1586 H 0.20252 0.22754 0.51646 0.0
H1587 H 0.25408 0.2766 0.49161 0.0
H1588 H 0.30717 0.22508 0.51462 0.0
H1589 H 0.27621 0.25361 0.51768 0.0
H1590 H 0.22686 0.20333 0.49085 0.0
H1591 H 0.25813 0.17415 0.48851 0.0
C1592 C 0.1912 0.26308 0.5126 0.0
C1593 C 0.19755 0.28613 0.50697 0.0
C1594 C 0.20769 0.24497 0.51131 0.0
C1595 C 0.23078 0.24955 0.50424 0.0
C1596 C 0.23671 0.27247 0.49781 0.0
C1597 C 0.22044 0.29047 0.4993 0.0
C1598 C 0.28975 0.21998 0.50936 0.0
C1599 C 0.28524 0.19736 0.50102 0.0
C1600 C 0.27194 0.23645 0.51101 0.0
C1601 C 0.24906 0.23099 0.50406 0.0
C1602 C 0.24427 0.20813 0.49639 0.0
C1603 C 0.26219 0.19144 0.49496 0.0
H1604 H 0.74618 0.17538 0.51657 0.0
H1605 H 0.69631 0.22727 0.49404 0.0
H1606 H 0.77732 0.20462 0.51441 0.0
H1607 H 0.72716 0.25588 0.4911 0.0
H1608 H 0.77901 0.30937 0.51255 0.0
H1609 H 0.75064 0.27832 0.51615 0.0
H1610 H 0.80075 0.22905 0.48878 0.0
H1611 H 0.82977 0.26037 0.48598 0.0
C1612 C 0.74188 0.19292 0.511 0.0
C1613 C 0.71866 0.19902 0.50579 0.0
C1614 C 0.75974 0.20966 0.50965 0.0
C1615 C 0.75475 0.23277 0.50291 0.0
C1616 C 0.73163 0.23851 0.49703 0.0
C1617 C 0.71387 0.22198 0.4986 0.0
C1618 C 0.78409 0.29194 0.50728 0.0
C1619 C 0.80662 0.28745 0.4987 0.0
C1620 C 0.76771 0.27408 0.50924 0.0
C1621 C 0.77317 0.25118 0.50233 0.0
C1622 C 0.79594 0.24645 0.49434 0.0
C1623 C 0.81254 0.26441 0.49263 0.0
H1624 H 0.83074 0.74637 0.51697 0.0
H1625 H 0.77913 0.69694 0.49292 0.0
H1626 H 0.80165 0.77764 0.51461 0.0
H1627 H 0.75066 0.72795 0.48978 0.0
H1628 H 0.69712 0.77979 0.51189 0.0
H1629 H 0.72794 0.75112 0.51489 0.0
H1630 H 0.77768 0.80151 0.48897 0.0
H1631 H 0.74659 0.83081 0.48675 0.0
C1632 C 0.81329 0.7422 0.51101 0.0
C1633 C 0.80721 0.71907 0.50546 0.0
C1634 C 0.79665 0.76014 0.50954 0.0
C1635 C 0.77366 0.75531 0.50232 0.0
C1636 C 0.76795 0.73229 0.49606 0.0
C1637 C 0.78439 0.71444 0.49776 0.0
C1638 C 0.71459 0.78487 0.50677 0.0
C1639 C 0.71928 0.80759 0.49882 0.0
C1640 C 0.73233 0.76831 0.50839 0.0
C1641 C 0.75531 0.77379 0.50179 0.0
C1642 C 0.76021 0.79669 0.4943 0.0
C1643 C 0.74238 0.81346 0.49291 0.0
H1644 H 0.22637 0.69662 0.51225 0.0
H1645 H 0.17527 0.74626 0.48752 0.0
H1646 H 0.25515 0.72733 0.51496 0.0
H1647 H 0.2047 0.77725 0.48949 0.0
H1648 H 0.2605 0.8299 0.51751 0.0
H1649 H 0.22898 0.80109 0.51511 0.0
H1650 H 0.27808 0.74995 0.48939 0.0
H1651 H 0.30932 0.77814 0.49254 0.0
C1652 C 0.22129 0.7141 0.50717 0.0
C1653 C 0.19851 0.71887 0.49941 0.0
C1654 C 0.23791 0.73177 0.50862 0.0
C1655 C 0.23245 0.75477 0.50204 0.0
C1656 C 0.20951 0.75976 0.49477 0.0
C1657 C 0.19267 0.74199 0.49354 0.0
C1658 C 0.26447 0.81249 0.51131 0.0
C1659 C 0.28752 0.80626 0.50555 0.0
C1660 C 0.2464 0.79601 0.50983 0.0
C1661 C 0.25101 0.77303 0.50241 0.0
C1662 C 0.27392 0.76722 0.49585 0.0
C1663 C 0.2919 0.7835 0.49755 0.0
H1664 H 0.5164 0.17461 0.25965 0.0
H1665 H 0.49089 0.22578 0.30879 0.0
H1666 H 0.51391 0.20365 0.22834 0.0
H1667 H 0.48762 0.25422 0.27774 0.0
H1668 H 0.51058 0.30812 0.22654 0.0
H1669 H 0.51306 0.27723 0.25517 0.0
H1670 H 0.48853 0.22752 0.20405 0.0
H1671 H 0.48681 0.25868 0.1748 0.0
C1672 C 0.51003 0.19193 0.26372 0.0
C1673 C 0.50417 0.19795 0.2868 0.0
C1674 C 0.50851 0.20855 0.24577 0.0
C1675 C 0.50092 0.23145 0.25053 0.0
C1676 C 0.49421 0.23703 0.27347 0.0
C1677 C 0.49597 0.22062 0.29133 0.0
C1678 C 0.50566 0.29064 0.22128 0.0
C1679 C 0.49826 0.28598 0.19836 0.0
C1680 C 0.50697 0.27287 0.23782 0.0
C1681 C 0.50061 0.24987 0.23212 0.0
C1682 C 0.49366 0.245 0.20905 0.0
C1683 C 0.49257 0.26287 0.19231 0.0
H1684 H 0.83245 0.49682 0.25882 0.0
H1685 H 0.77823 0.52268 0.30442 0.0
H1686 H 0.80363 0.49217 0.22752 0.0
H1687 H 0.74998 0.51874 0.27332 0.0
H1688 H 0.69958 0.48296 0.22637 0.0
H1689 H 0.73073 0.48707 0.25453 0.0
H1690 H 0.77674 0.51231 0.20042 0.0
H1691 H 0.74537 0.5075 0.1717 0.0
C1692 C 0.81451 0.50176 0.2621 0.0
C1693 C 0.80765 0.50983 0.28428 0.0
C1694 C 0.79801 0.49917 0.24414 0.0
C1695 C 0.77438 0.50468 0.24801 0.0
C1696 C 0.76786 0.51367 0.26988 0.0
C1697 C 0.78417 0.51607 0.28775 0.0
C1698 C 0.71631 0.48933 0.22031 0.0
C1699 C 0.71982 0.49514 0.19673 0.0
C1700 C 0.73421 0.49183 0.23657 0.0
C1701 C 0.75616 0.50047 0.22989 0.0
C1702 C 0.76005 0.50558 0.20617 0.0
C1703 C 0.74205 0.5029 0.18972 0.0
H1704 H 0.51847 0.74556 0.17413 0.0
H1705 H 0.49445 0.69645 0.22605 0.0
H1706 H 0.51635 0.77697 0.20314 0.0
H1707 H 0.4916 0.72755 0.25442 0.0
H1708 H 0.51395 0.77903 0.30788 0.0
H1709 H 0.51723 0.75056 0.27687 0.0
H1710 H 0.49084 0.80101 0.22742 0.0
H1711 H 0.48831 0.8301 0.25872 0.0
C1712 C 0.51255 0.74149 0.19161 0.0
C1713 C 0.50696 0.7184 0.19782 0.0
C1714 C 0.51125 0.7595 0.20822 0.0
C1715 C 0.50418 0.75477 0.23129 0.0
C1716 C 0.4978 0.7318 0.23708 0.0
C1717 C 0.49932 0.71391 0.22069 0.0
C1718 C 0.50884 0.78417 0.29042 0.0
C1719 C 0.50059 0.80682 0.28589 0.0
C1720 C 0.51061 0.76774 0.27258 0.0
C1721 C 0.50386 0.77326 0.24965 0.0
C1722 C 0.49625 0.79615 0.24486 0.0
C1723 C 0.49471 0.8128 0.2628 0.0
H1724 H 0.2268 0.51222 0.30953 0.0
H1725 H 0.17546 0.48758 0.26014 0.0
H1726 H 0.25532 0.51537 0.27855 0.0
H1727 H 0.20458 0.48994 0.2289 0.0
H1728 H 0.25976 0.51748 0.17565 0.0
H1729 H 0.22855 0.51524 0.20482 0.0
H1730 H 0.27829 0.49024 0.25569 0.0
H1731 H 0.30924 0.49327 0.22713 0.0
C1732 C 0.22161 0.50729 0.29203 0.0
C1733 C 0.19886 0.49939 0.28741 0.0
C1734 C 0.23808 0.50898 0.27421 0.0
C1735 C 0.23248 0.50249 0.25121 0.0
C1736 C 0.20951 0.49517 0.24637 0.0
C1737 C 0.19284 0.49372 0.26429 0.0
C1738 C 0.26394 0.51147 0.19308 0.0
C1739 C 0.28707 0.50587 0.19911 0.0
C1740 C 0.24604 0.51009 0.20978 0.0
C1741 C 0.25091 0.50291 0.23278 0.0
C1742 C 0.27392 0.49652 0.23841 0.0
C1743 C 0.29173 0.49814 0.22192 0.0
H1744 H 0.50577 0.74402 0.83185 0.0
H1745 H 0.48114 0.69841 0.77707 0.0
H1746 H 0.51105 0.77531 0.80316 0.0
H1747 H 0.48574 0.72952 0.7489 0.0
H1748 H 0.52261 0.77673 0.69936 0.0
H1749 H 0.51776 0.74843 0.7303 0.0
H1750 H 0.49153 0.80238 0.77596 0.0
H1751 H 0.49706 0.83121 0.74484 0.0
C1752 C 0.50121 0.74074 0.81381 0.0
C1753 C 0.49332 0.71857 0.80677 0.0
C1754 C 0.50418 0.75869 0.79738 0.0
C1755 C 0.49921 0.75483 0.77362 0.0
C1756 C 0.49038 0.73296 0.76689 0.0
C1757 C 0.4876 0.71509 0.78316 0.0
C1758 C 0.51587 0.78272 0.71597 0.0
C1759 C 0.51 0.80629 0.71945 0.0
C1760 C 0.51294 0.76638 0.73374 0.0
C1761 C 0.50381 0.77299 0.75553 0.0
C1762 C 0.49864 0.7967 0.7594 0.0
C1763 C 0.50174 0.8132 0.74154 0.0
H1764 H 0.30473 0.48137 0.77828 0.0
H1765 H 0.25891 0.50652 0.83265 0.0
H1766 H 0.27374 0.48568 0.74995 0.0
H1767 H 0.22773 0.51154 0.80378 0.0
H1768 H 0.17204 0.49691 0.74541 0.0
H1769 H 0.20076 0.49175 0.7767 0.0
H1770 H 0.25487 0.5174 0.73093 0.0
H1771 H 0.22669 0.52187 0.69982 0.0
C1772 C 0.28803 0.4879 0.78424 0.0
C1773 C 0.28446 0.49383 0.80779 0.0
C1774 C 0.27023 0.49052 0.76788 0.0
C1775 C 0.24832 0.4994 0.77444 0.0
C1776 C 0.24438 0.50462 0.79813 0.0
C1777 C 0.26227 0.50181 0.81466 0.0
C1778 C 0.19006 0.50153 0.74212 0.0
C1779 C 0.19706 0.50952 0.71996 0.0
C1780 C 0.20651 0.49864 0.76008 0.0
C1781 C 0.23023 0.50377 0.75624 0.0
C1782 C 0.23691 0.51263 0.73436 0.0
C1783 C 0.22064 0.51533 0.71649 0.0
H1784 H 0.48847 0.17417 0.74584 0.0
H1785 H 0.51428 0.22514 0.69667 0.0
H1786 H 0.49106 0.20325 0.77712 0.0
H1787 H 0.51764 0.25361 0.72769 0.0
H1788 H 0.51817 0.2583 0.83063 0.0
H1789 H 0.51646 0.22708 0.80144 0.0
H1790 H 0.49224 0.27677 0.75015 0.0
H1791 H 0.4947 0.30771 0.77872 0.0
C1792 C 0.49493 0.19145 0.74175 0.0
C1793 C 0.50083 0.19741 0.71868 0.0
C1794 C 0.49651 0.2081 0.75969 0.0
C1795 C 0.5042 0.23095 0.75491 0.0
C1796 C 0.51097 0.23645 0.73197 0.0
C1797 C 0.50915 0.22002 0.71413 0.0
C1798 C 0.5125 0.26248 0.8131 0.0
C1799 C 0.50688 0.2856 0.80699 0.0
C1800 C 0.51141 0.24458 0.79639 0.0
C1801 C 0.50454 0.24942 0.77328 0.0
C1802 C 0.49827 0.27242 0.76752 0.0
C1803 C 0.49957 0.29023 0.78403 0.0
H1804 H 0.69495 0.49402 0.7775 0.0
H1805 H 0.74403 0.51816 0.82939 0.0
H1806 H 0.72611 0.49104 0.74917 0.0
H1807 H 0.77546 0.51593 0.80046 0.0
H1808 H 0.8289 0.48828 0.7453 0.0
H1809 H 0.79959 0.49055 0.7764 0.0
H1810 H 0.74921 0.51645 0.72663 0.0
H1811 H 0.77789 0.51343 0.69581 0.0
C1812 C 0.71241 0.49888 0.78286 0.0
C1813 C 0.71688 0.50658 0.80571 0.0
C1814 C 0.73034 0.49729 0.76649 0.0
C1815 C 0.75331 0.50366 0.77231 0.0
C1816 C 0.758 0.5108 0.79537 0.0
C1817 C 0.73998 0.51217 0.81193 0.0
C1818 C 0.81155 0.49451 0.7411 0.0
C1819 C 0.80568 0.50035 0.71798 0.0
C1820 C 0.79478 0.49589 0.75893 0.0
C1821 C 0.77186 0.50332 0.75401 0.0
C1822 C 0.76641 0.50998 0.73103 0.0
C1823 C 0.78297 0.50836 0.7133 0.0
loop_
_geom_bond_atom_site_label_1
_geom_bond_atom_site_label_2
_geom_bond_distance
_geom_bond_site_symmetry_2
_ccdc_geom_bond_type
Mn0 O5 2.095 . S
Mn0 O15 2.162 . S
Mn0 O16 2.297 . S
Mn0 O24 2.385 . S
Mn0 O25 2.209 . S
Mn0 O26 2.094 . S
Mn1 O6 2.121 . S
Mn1 N8 2.257 . S
Mn1 N17 2.282 . S
Mn1 O25 2.215 . S
Mn1 O27 2.117 . S
C2 O24 1.234 . S
C2 O25 1.283 . S
C3 O15 1.281 . S
C3 O16 1.236 . S
C4 O26 1.240 . S
C4 O27 1.264 . S
O5 Mn0 2.095 . S
O5 C14 1.250 . S
O6 Mn1 2.121 . S
O6 C14 1.258 . S
C7 N8 1.326 . S
C7 C11 1.460 . S
C7 H13 0.929 . S
N8 Mn1 2.257 . S
N8 C7 1.326 . S
N8 C12 1.362 . S
C9 C10 1.258 . S
C9 C12 1.431 . S
C9 C29 1.449 . S
C10 C9 1.258 . S
C10 C11 1.477 . S
C10 H30 0.931 . S
C11 C7 1.460 . S
C11 C10 1.477 . S
C11 H31 0.930 . S
C12 N8 1.362 . S
C12 C9 1.431 . S
C12 C22 1.476 . S
H13 C7 0.929 . S
C14 O5 1.250 . S
C14 O6 1.258 . S
O15 Mn0 2.162 . S
O15 C3 1.281 . S
O16 Mn0 2.297 . S
O16 C3 1.236 . S
N17 Mn1 2.282 . S
N17 C18 1.328 . S
N17 C22 1.318 . S
C18 N17 1.328 . S
C18 C19 1.457 . S
C18 H23 0.929 . S
C19 C18 1.457 . S
C19 C20 1.291 . S
C19 H32 0.931 . S
C20 C19 1.291 . S
C20 C21 1.373 . S
C20 H33 0.929 . S
C21 C20 1.373 . S
C21 C22 1.396 . S
C21 C28 1.403 . S
C22 C12 1.476 . S
C22 N17 1.318 . S
C22 C21 1.396 . S
H23 C18 0.929 . S
O24 Mn0 2.385 . S
O24 C2 1.234 . S
O25 Mn0 2.209 . S
O25 Mn1 2.215 . S
O25 C2 1.283 . S
O26 Mn0 2.094 . S
O26 C4 1.240 . S
O27 Mn1 2.117 . S
O27 C4 1.264 . S
C28 C21 1.403 . S
C28 C29 1.399 . S
C28 H34 0.929 . S
C29 C9 1.449 . S
C29 C28 1.399 . S
C29 H35 0.930 . S
H30 C10 0.931 . S
H31 C11 0.930 . S
H32 C19 0.931 . S
H33 C20 0.929 . S
H34 C28 0.929 . S
H35 C29 0.930 . S
Mn36 O41 2.095 . S
Mn36 O51 2.162 . S
Mn36 O52 2.297 . S
Mn36 O60 2.385 . S
Mn36 O61 2.209 . S
Mn36 O62 2.094 . S
Mn37 O42 2.121 . S
Mn37 N44 2.257 . S
Mn37 N53 2.282 . S
Mn37 O61 2.215 . S
Mn37 O63 2.117 . S
C38 O60 1.234 . S
C38 O61 1.283 . S
C39 O51 1.281 . S
C39 O52 1.236 . S
C40 O62 1.240 . S
C40 O63 1.264 . S
O41 Mn36 2.095 . S
O41 C50 1.250 . S
O42 Mn37 2.121 . S
O42 C50 1.258 . S
C43 N44 1.326 . S
C43 C47 1.460 . S
C43 H49 0.929 . S
N44 Mn37 2.257 . S
N44 C43 1.326 . S
N44 C48 1.362 . S
C45 C46 1.258 . S
C45 C48 1.431 . S
C45 C65 1.449 . S
C46 C45 1.258 . S
C46 C47 1.477 . S
C46 H66 0.931 . S
C47 C43 1.460 . S
C47 C46 1.477 . S
C47 H67 0.930 . S
C48 N44 1.362 . S
C48 C45 1.431 . S
C48 C58 1.476 . S
H49 C43 0.929 . S
C50 O41 1.250 . S
C50 O42 1.258 . S
O51 Mn36 2.162 . S
O51 C39 1.281 . S
O52 Mn36 2.297 . S
O52 C39 1.236 . S
N53 Mn37 2.282 . S
N53 C54 1.328 . S
N53 C58 1.318 . S
C54 N53 1.328 . S
C54 C55 1.457 . S
C54 H59 0.929 . S
C55 C54 1.457 . S
C55 C56 1.291 . S
C55 H68 0.931 . S
C56 C55 1.291 . S
C56 C57 1.373 . S
C56 H69 0.929 . S
C57 C56 1.373 . S
C57 C58 1.396 . S
C57 C64 1.403 . S
C58 C48 1.476 . S
C58 N53 1.318 . S
C58 C57 1.396 . S
H59 C54 0.929 . S
O60 Mn36 2.385 . S
O60 C38 1.234 . S
O61 Mn36 2.209 . S
O61 Mn37 2.215 . S
O61 C38 1.283 . S
O62 Mn36 2.094 . S
O62 C40 1.240 . S
O63 Mn37 2.117 . S
O63 C40 1.264 . S
C64 C57 1.403 . S
C64 C65 1.399 . S
C64 H70 0.929 . S
C65 C45 1.449 . S
C65 C64 1.399 . S
C65 H71 0.930 . S
H66 C46 0.931 . S
H67 C47 0.930 . S
H68 C55 0.931 . S
H69 C56 0.929 . S
H70 C64 0.929 . S
H71 C65 0.930 . S
Mn72 O77 2.095 . S
Mn72 O87 2.162 . S
Mn72 O88 2.297 . S
Mn72 O96 2.385 . S
Mn72 O97 2.209 . S
Mn72 O98 2.094 . S
Mn73 O78 2.121 . S
Mn73 N80 2.257 . S
Mn73 N89 2.282 . S
Mn73 O97 2.215 . S
Mn73 O99 2.117 . S
C74 O96 1.234 . S
C74 O97 1.283 . S
C75 O87 1.281 . S
C75 O88 1.236 . S
C76 O98 1.240 . S
C76 O99 1.264 . S
O77 Mn72 2.095 . S
O77 C86 1.250 . S
O78 Mn73 2.121 . S
O78 C86 1.258 . S
C79 N80 1.326 . S
C79 C83 1.460 . S
C79 H85 0.929 . S
N80 Mn73 2.257 . S
N80 C79 1.326 . S
N80 C84 1.362 . S
C81 C82 1.258 . S
C81 C84 1.431 . S
C81 C101 1.449 . S
C82 C81 1.258 . S
C82 C83 1.477 . S
C82 H102 0.931 . S
C83 C79 1.460 . S
C83 C82 1.477 . S
C83 H103 0.930 . S
C84 N80 1.362 . S
C84 C81 1.431 . S
C84 C94 1.476 . S
H85 C79 0.929 . S
C86 O77 1.250 . S
C86 O78 1.258 . S
O87 Mn72 2.162 . S
O87 C75 1.281 . S
O88 Mn72 2.297 . S
O88 C75 1.236 . S
N89 Mn73 2.282 . S
N89 C90 1.328 . S
N89 C94 1.318 . S
C90 N89 1.328 . S
C90 C91 1.457 . S
C90 H95 0.929 . S
C91 C90 1.457 . S
C91 C92 1.291 . S
C91 H104 0.931 . S
C92 C91 1.291 . S
C92 C93 1.373 . S
C92 H105 0.929 . S
C93 C92 1.373 . S
C93 C94 1.396 . S
C93 C100 1.403 . S
C94 C84 1.476 . S
C94 N89 1.318 . S
C94 C93 1.396 . S
H95 C90 0.929 . S
O96 Mn72 2.385 . S
O96 C74 1.234 . S
O97 Mn72 2.209 . S
O97 Mn73 2.215 . S
O97 C74 1.283 . S
O98 Mn72 2.094 . S
O98 C76 1.240 . S
O99 Mn73 2.117 . S
O99 C76 1.264 . S
C100 C93 1.403 . S
C100 C101 1.399 . S
C100 H106 0.929 . S
C101 C81 1.449 . S
C101 C100 1.399 . S
C101 H107 0.930 . S
H102 C82 0.931 . S
H103 C83 0.930 . S
H104 C91 0.931 . S
H105 C92 0.929 . S
H106 C100 0.929 . S
H107 C101 0.930 . S
Mn108 O113 2.095 . S
Mn108 O123 2.162 . S
Mn108 O124 2.297 . S
Mn108 O132 2.385 . S
Mn108 O133 2.209 . S
Mn108 O134 2.094 . S
Mn109 O114 2.121 . S
Mn109 N116 2.257 . S
Mn109 N125 2.282 . S
Mn109 O133 2.215 . S
Mn109 O135 2.117 . S
C110 O132 1.234 . S
C110 O133 1.283 . S
C111 O123 1.281 . S
C111 O124 1.236 . S
C112 O134 1.240 . S
C112 O135 1.264 . S
O113 Mn108 2.095 . S
O113 C122 1.250 . S
O114 Mn109 2.121 . S
O114 C122 1.258 . S
C115 N116 1.326 . S
C115 C119 1.460 . S
C115 H121 0.929 . S
N116 Mn109 2.257 . S
N116 C115 1.326 . S
N116 C120 1.362 . S
C117 C118 1.258 . S
C117 C120 1.431 . S
C117 C137 1.449 . S
C118 C117 1.258 . S
C118 C119 1.477 . S
C118 H138 0.931 . S
C119 C115 1.460 . S
C119 C118 1.477 . S
C119 H139 0.930 . S
C120 N116 1.362 . S
C120 C117 1.431 . S
C120 C130 1.476 . S
H121 C115 0.929 . S
C122 O113 1.250 . S
C122 O114 1.258 . S
O123 Mn108 2.162 . S
O123 C111 1.281 . S
O124 Mn108 2.297 . S
O124 C111 1.236 . S
N125 Mn109 2.282 . S
N125 C126 1.328 . S
N125 C130 1.318 . S
C126 N125 1.328 . S
C126 C127 1.457 . S
C126 H131 0.929 . S
C127 C126 1.457 . S
C127 C128 1.291 . S
C127 H140 0.931 . S
C128 C127 1.291 . S
C128 C129 1.373 . S
C128 H141 0.929 . S
C129 C128 1.373 . S
C129 C130 1.396 . S
C129 C136 1.403 . S
C130 C120 1.476 . S
C130 N125 1.318 . S
C130 C129 1.396 . S
H131 C126 0.929 . S
O132 Mn108 2.385 . S
O132 C110 1.234 . S
O133 Mn108 2.209 . S
O133 Mn109 2.215 . S
O133 C110 1.283 . S
O134 Mn108 2.094 . S
O134 C112 1.240 . S
O135 Mn109 2.117 . S
O135 C112 1.264 . S
C136 C129 1.403 . S
C136 C137 1.399 . S
C136 H142 0.929 . S
C137 C117 1.449 . S
C137 C136 1.399 . S
C137 H143 0.930 . S
H138 C118 0.931 . S
H139 C119 0.930 . S
H140 C127 0.931 . S
H141 C128 0.929 . S
H142 C136 0.929 . S
H143 C137 0.930 . S
Mn144 O149 2.095 . S
Mn144 O159 2.162 . S
Mn144 O160 2.297 . S
Mn144 O168 2.385 . S
Mn144 O169 2.209 . S
Mn144 O170 2.094 . S
Mn145 O150 2.121 . S
Mn145 N152 2.257 . S
Mn145 N161 2.282 . S
Mn145 O169 2.215 . S
Mn145 O171 2.117 . S
C146 O168 1.234 . S
C146 O169 1.283 . S
C147 O159 1.281 . S
C147 O160 1.236 . S
C148 O170 1.240 . S
C148 O171 1.264 . S
O149 Mn144 2.095 . S
O149 C158 1.250 . S
O150 Mn145 2.121 . S
O150 C158 1.258 . S
C151 N152 1.326 . S
C151 C155 1.460 . S
C151 H157 0.929 . S
N152 Mn145 2.257 . S
N152 C151 1.326 . S
N152 C156 1.362 . S
C153 C154 1.258 . S
C153 C156 1.431 . S
C153 C173 1.449 . S
C154 C153 1.258 . S
C154 C155 1.477 . S
C154 H174 0.931 . S
C155 C151 1.460 . S
C155 C154 1.477 . S
C155 H175 0.930 . S
C156 N152 1.362 . S
C156 C153 1.431 . S
C156 C166 1.476 . S
H157 C151 0.929 . S
C158 O149 1.250 . S
C158 O150 1.258 . S
O159 Mn144 2.162 . S
O159 C147 1.281 . S
O160 Mn144 2.297 . S
O160 C147 1.236 . S
N161 Mn145 2.282 . S
N161 C162 1.328 . S
N161 C166 1.318 . S
C162 N161 1.328 . S
C162 C163 1.457 . S
C162 H167 0.929 . S
C163 C162 1.457 . S
C163 C164 1.291 . S
C163 H176 0.931 . S
C164 C163 1.291 . S
C164 C165 1.373 . S
C164 H177 0.929 . S
C165 C164 1.373 . S
C165 C166 1.396 . S
C165 C172 1.403 . S
C166 C156 1.476 . S
C166 N161 1.318 . S
C166 C165 1.396 . S
H167 C162 0.929 . S
O168 Mn144 2.385 . S
O168 C146 1.234 . S
O169 Mn144 2.209 . S
O169 Mn145 2.215 . S
O169 C146 1.283 . S
O170 Mn144 2.094 . S
O170 C148 1.240 . S
O171 Mn145 2.117 . S
O171 C148 1.264 . S
C172 C165 1.403 . S
C172 C173 1.399 . S
C172 H178 0.929 . S
C173 C153 1.449 . S
C173 C172 1.399 . S
C173 H179 0.930 . S
H174 C154 0.931 . S
H175 C155 0.930 . S
H176 C163 0.931 . S
H177 C164 0.929 . S
H178 C172 0.929 . S
H179 C173 0.930 . S
Mn180 O185 2.095 . S
Mn180 O195 2.162 . S
Mn180 O196 2.297 . S
Mn180 O204 2.385 . S
Mn180 O205 2.209 . S
Mn180 O206 2.094 . S
Mn181 O186 2.121 . S
Mn181 N188 2.257 . S
Mn181 N197 2.282 . S
Mn181 O205 2.215 . S
Mn181 O207 2.117 . S
C182 O204 1.234 . S
C182 O205 1.283 . S
C183 O195 1.281 . S
C183 O196 1.236 . S
C184 O206 1.240 . S
C184 O207 1.264 . S
O185 Mn180 2.095 . S
O185 C194 1.250 . S
O186 Mn181 2.121 . S
O186 C194 1.258 . S
C187 N188 1.326 . S
C187 C191 1.460 . S
C187 H193 0.929 . S
N188 Mn181 2.257 . S
N188 C187 1.326 . S
N188 C192 1.362 . S
C189 C190 1.258 . S
C189 C192 1.431 . S
C189 C209 1.449 . S
C190 C189 1.258 . S
C190 C191 1.477 . S
C190 H210 0.931 . S
C191 C187 1.460 . S
C191 C190 1.477 . S
C191 H211 0.930 . S
C192 N188 1.362 . S
C192 C189 1.431 . S
C192 C202 1.476 . S
H193 C187 0.929 . S
C194 O185 1.250 . S
C194 O186 1.258 . S
O195 Mn180 2.162 . S
O195 C183 1.281 . S
O196 Mn180 2.297 . S
O196 C183 1.236 . S
N197 Mn181 2.282 . S
N197 C198 1.328 . S
N197 C202 1.318 . S
C198 N197 1.328 . S
C198 C199 1.457 . S
C198 H203 0.929 . S
C199 C198 1.457 . S
C199 C200 1.291 . S
C199 H212 0.931 . S
C200 C199 1.291 . S
C200 C201 1.373 . S
C200 H213 0.929 . S
C201 C200 1.373 . S
C201 C202 1.396 . S
C201 C208 1.403 . S
C202 C192 1.476 . S
C202 N197 1.318 . S
C202 C201 1.396 . S
H203 C198 0.929 . S
O204 Mn180 2.385 . S
O204 C182 1.234 . S
O205 Mn180 2.209 . S
O205 Mn181 2.215 . S
O205 C182 1.283 . S
O206 Mn180 2.094 . S
O206 C184 1.240 . S
O207 Mn181 2.117 . S
O207 C184 1.264 . S
C208 C201 1.403 . S
C208 C209 1.399 . S
C208 H214 0.929 . S
C209 C189 1.449 . S
C209 C208 1.399 . S
C209 H215 0.930 . S
H210 C190 0.931 . S
H211 C191 0.930 . S
H212 C199 0.931 . S
H213 C200 0.929 . S
H214 C208 0.929 . S
H215 C209 0.930 . S
Mn216 O221 2.095 . S
Mn216 O231 2.162 . S
Mn216 O232 2.297 . S
Mn216 O240 2.385 . S
Mn216 O241 2.209 . S
Mn216 O242 2.094 . S
Mn217 O222 2.121 . S
Mn217 N224 2.257 . S
Mn217 N233 2.282 . S
Mn217 O241 2.215 . S
Mn217 O243 2.117 . S
C218 O240 1.234 . S
C218 O241 1.283 . S
C219 O231 1.281 . S
C219 O232 1.236 . S
C220 O242 1.240 . S
C220 O243 1.264 . S
O221 Mn216 2.095 . S
O221 C230 1.250 . S
O222 Mn217 2.121 . S
O222 C230 1.258 . S
C223 N224 1.326 . S
C223 C227 1.460 . S
C223 H229 0.929 . S
N224 Mn217 2.257 . S
N224 C223 1.326 . S
N224 C228 1.362 . S
C225 C226 1.258 . S
C225 C228 1.431 . S
C225 C245 1.449 . S
C226 C225 1.258 . S
C226 C227 1.477 . S
C226 H246 0.931 . S
C227 C223 1.460 . S
C227 C226 1.477 . S
C227 H247 0.930 . S
C228 N224 1.362 . S
C228 C225 1.431 . S
C228 C238 1.476 . S
H229 C223 0.929 . S
C230 O221 1.250 . S
C230 O222 1.258 . S
O231 Mn216 2.162 . S
O231 C219 1.281 . S
O232 Mn216 2.297 . S
O232 C219 1.236 . S
N233 Mn217 2.282 . S
N233 C234 1.328 . S
N233 C238 1.318 . S
C234 N233 1.328 . S
C234 C235 1.457 . S
C234 H239 0.929 . S
C235 C234 1.457 . S
C235 C236 1.291 . S
C235 H248 0.931 . S
C236 C235 1.291 . S
C236 C237 1.373 . S
C236 H249 0.929 . S
C237 C236 1.373 . S
C237 C238 1.396 . S
C237 C244 1.403 . S
C238 C228 1.476 . S
C238 N233 1.318 . S
C238 C237 1.396 . S
H239 C234 0.929 . S
O240 Mn216 2.385 . S
O240 C218 1.234 . S
O241 Mn216 2.209 . S
O241 Mn217 2.215 . S
O241 C218 1.283 . S
O242 Mn216 2.094 . S
O242 C220 1.240 . S
O243 Mn217 2.117 . S
O243 C220 1.264 . S
C244 C237 1.403 . S
C244 C245 1.399 . S
C244 H250 0.929 . S
C245 C225 1.449 . S
C245 C244 1.399 . S
C245 H251 0.930 . S
H246 C226 0.931 . S
H247 C227 0.930 . S
H248 C235 0.931 . S
H249 C236 0.929 . S
H250 C244 0.929 . S
H251 C245 0.930 . S
Mn252 O257 2.095 . S
Mn252 O267 2.162 . S
Mn252 O268 2.297 . S
Mn252 O276 2.385 . S
Mn252 O277 2.209 . S
Mn252 O278 2.094 . S
Mn253 O258 2.121 . S
Mn253 N260 2.257 . S
Mn253 N269 2.282 . S
Mn253 O277 2.215 . S
Mn253 O279 2.117 . S
C254 O276 1.234 . S
C254 O277 1.283 . S
C255 O267 1.281 . S
C255 O268 1.236 . S
C256 O278 1.240 . S
C256 O279 1.264 . S
O257 Mn252 2.095 . S
O257 C266 1.250 . S
O258 Mn253 2.121 . S
O258 C266 1.258 . S
C259 N260 1.326 . S
C259 C263 1.460 . S
C259 H265 0.929 . S
N260 Mn253 2.257 . S
N260 C259 1.326 . S
N260 C264 1.362 . S
C261 C262 1.258 . S
C261 C264 1.431 . S
C261 C281 1.449 . S
C262 C261 1.258 . S
C262 C263 1.477 . S
C262 H282 0.931 . S
C263 C259 1.460 . S
C263 C262 1.477 . S
C263 H283 0.930 . S
C264 N260 1.362 . S
C264 C261 1.431 . S
C264 C274 1.476 . S
H265 C259 0.929 . S
C266 O257 1.250 . S
C266 O258 1.258 . S
O267 Mn252 2.162 . S
O267 C255 1.281 . S
O268 Mn252 2.297 . S
O268 C255 1.236 . S
N269 Mn253 2.282 . S
N269 C270 1.328 . S
N269 C274 1.318 . S
C270 N269 1.328 . S
C270 C271 1.457 . S
C270 H275 0.929 . S
C271 C270 1.457 . S
C271 C272 1.291 . S
C271 H284 0.931 . S
C272 C271 1.291 . S
C272 C273 1.373 . S
C272 H285 0.929 . S
C273 C272 1.373 . S
C273 C274 1.396 . S
C273 C280 1.403 . S
C274 C264 1.476 . S
C274 N269 1.318 . S
C274 C273 1.396 . S
H275 C270 0.929 . S
O276 Mn252 2.385 . S
O276 C254 1.234 . S
O277 Mn252 2.209 . S
O277 Mn253 2.215 . S
O277 C254 1.283 . S
O278 Mn252 2.094 . S
O278 C256 1.240 . S
O279 Mn253 2.117 . S
O279 C256 1.264 . S
C280 C273 1.403 . S
C280 C281 1.399 . S
C280 H286 0.929 . S
C281 C261 1.449 . S
C281 C280 1.399 . S
C281 H287 0.930 . S
H282 C262 0.931 . S
H283 C263 0.930 . S
H284 C271 0.931 . S
H285 C272 0.929 . S
H286 C280 0.929 . S
H287 C281 0.930 . S
Mn288 O293 2.095 . S
Mn288 O303 2.162 . S
Mn288 O304 2.297 . S
Mn288 O312 2.385 . S
Mn288 O313 2.209 . S
Mn288 O314 2.094 . S
Mn289 O294 2.121 . S
Mn289 N296 2.257 . S
Mn289 N305 2.282 . S
Mn289 O313 2.215 . S
Mn289 O315 2.117 . S
C290 O312 1.234 . S
C290 O313 1.283 . S
C291 O303 1.281 . S
C291 O304 1.236 . S
C292 O314 1.240 . S
C292 O315 1.264 . S
O293 Mn288 2.095 . S
O293 C302 1.250 . S
O294 Mn289 2.121 . S
O294 C302 1.258 . S
C295 N296 1.326 . S
C295 C299 1.460 . S
C295 H301 0.929 . S
N296 Mn289 2.257 . S
N296 C295 1.326 . S
N296 C300 1.362 . S
C297 C298 1.258 . S
C297 C300 1.431 . S
C297 C317 1.449 . S
C298 C297 1.258 . S
C298 C299 1.477 . S
C298 H318 0.931 . S
C299 C295 1.460 . S
C299 C298 1.477 . S
C299 H319 0.930 . S
C300 N296 1.362 . S
C300 C297 1.431 . S
C300 C310 1.476 . S
H301 C295 0.929 . S
C302 O293 1.250 . S
C302 O294 1.258 . S
O303 Mn288 2.162 . S
O303 C291 1.281 . S
O304 Mn288 2.297 . S
O304 C291 1.236 . S
N305 Mn289 2.282 . S
N305 C306 1.328 . S
N305 C310 1.318 . S
C306 N305 1.328 . S
C306 C307 1.457 . S
C306 H311 0.929 . S
C307 C306 1.457 . S
C307 C308 1.291 . S
C307 H320 0.931 . S
C308 C307 1.291 . S
C308 C309 1.373 . S
C308 H321 0.929 . S
C309 C308 1.373 . S
C309 C310 1.396 . S
C309 C316 1.403 . S
C310 C300 1.476 . S
C310 N305 1.318 . S
C310 C309 1.396 . S
H311 C306 0.929 . S
O312 Mn288 2.385 . S
O312 C290 1.234 . S
O313 Mn288 2.209 . S
O313 Mn289 2.215 . S
O313 C290 1.283 . S
O314 Mn288 2.094 . S
O314 C292 1.240 . S
O315 Mn289 2.117 . S
O315 C292 1.264 . S
C316 C309 1.403 . S
C316 C317 1.399 . S
C316 H322 0.929 . S
C317 C297 1.449 . S
C317 C316 1.399 . S
C317 H323 0.930 . S
H318 C298 0.931 . S
H319 C299 0.930 . S
H320 C307 0.931 . S
H321 C308 0.929 . S
H322 C316 0.929 . S
H323 C317 0.930 . S
Mn324 O329 2.095 . S
Mn324 O339 2.162 . S
Mn324 O340 2.297 . S
Mn324 O348 2.385 . S
Mn324 O349 2.209 . S
Mn324 O350 2.094 . S
Mn325 O330 2.121 . S
Mn325 N332 2.257 . S
Mn325 N341 2.282 . S
Mn325 O349 2.215 . S
Mn325 O351 2.117 . S
C326 O348 1.234 . S
C326 O349 1.283 . S
C327 O339 1.281 . S
C327 O340 1.236 . S
C328 O350 1.240 . S
C328 O351 1.264 . S
O329 Mn324 2.095 . S
O329 C338 1.250 . S
O330 Mn325 2.121 . S
O330 C338 1.258 . S
C331 N332 1.326 . S
C331 C335 1.460 . S
C331 H337 0.929 . S
N332 Mn325 2.257 . S
N332 C331 1.326 . S
N332 C336 1.362 . S
C333 C334 1.258 . S
C333 C336 1.431 . S
C333 C353 1.449 . S
C334 C333 1.258 . S
C334 C335 1.477 . S
C334 H354 0.931 . S
C335 C331 1.460 . S
C335 C334 1.477 . S
C335 H355 0.930 . S
C336 N332 1.362 . S
C336 C333 1.431 . S
C336 C346 1.476 . S
H337 C331 0.929 . S
C338 O329 1.250 . S
C338 O330 1.258 . S
O339 Mn324 2.162 . S
O339 C327 1.281 . S
O340 Mn324 2.297 . S
O340 C327 1.236 . S
N341 Mn325 2.282 . S
N341 C342 1.328 . S
N341 C346 1.318 . S
C342 N341 1.328 . S
C342 C343 1.457 . S
C342 H347 0.929 . S
C343 C342 1.457 . S
C343 C344 1.291 . S
C343 H356 0.931 . S
C344 C343 1.291 . S
C344 C345 1.373 . S
C344 H357 0.929 . S
C345 C344 1.373 . S
C345 C346 1.396 . S
C345 C352 1.403 . S
C346 C336 1.476 . S
C346 N341 1.318 . S
C346 C345 1.396 . S
H347 C342 0.929 . S
O348 Mn324 2.385 . S
O348 C326 1.234 . S
O349 Mn324 2.209 . S
O349 Mn325 2.215 . S
O349 C326 1.283 . S
O350 Mn324 2.094 . S
O350 C328 1.240 . S
O351 Mn325 2.117 . S
O351 C328 1.264 . S
C352 C345 1.403 . S
C352 C353 1.399 . S
C352 H358 0.929 . S
C353 C333 1.449 . S
C353 C352 1.399 . S
C353 H359 0.930 . S
H354 C334 0.931 . S
H355 C335 0.930 . S
H356 C343 0.931 . S
H357 C344 0.929 . S
H358 C352 0.929 . S
H359 C353 0.930 . S
Mn360 O365 2.095 . S
Mn360 O375 2.162 . S
Mn360 O376 2.297 . S
Mn360 O384 2.385 . S
Mn360 O385 2.209 . S
Mn360 O386 2.094 . S
Mn361 O366 2.121 . S
Mn361 N368 2.257 . S
Mn361 N377 2.282 . S
Mn361 O385 2.215 . S
Mn361 O387 2.117 . S
C362 O384 1.234 . S
C362 O385 1.283 . S
C363 O375 1.281 . S
C363 O376 1.236 . S
C364 O386 1.240 . S
C364 O387 1.264 . S
O365 Mn360 2.095 . S
O365 C374 1.250 . S
O366 Mn361 2.121 . S
O366 C374 1.258 . S
C367 N368 1.326 . S
C367 C371 1.460 . S
C367 H373 0.929 . S
N368 Mn361 2.257 . S
N368 C367 1.326 . S
N368 C372 1.362 . S
C369 C370 1.258 . S
C369 C372 1.431 . S
C369 C389 1.449 . S
C370 C369 1.258 . S
C370 C371 1.477 . S
C370 H390 0.931 . S
C371 C367 1.460 . S
C371 C370 1.477 . S
C371 H391 0.930 . S
C372 N368 1.362 . S
C372 C369 1.431 . S
C372 C382 1.476 . S
H373 C367 0.929 . S
C374 O365 1.250 . S
C374 O366 1.258 . S
O375 Mn360 2.162 . S
O375 C363 1.281 . S
O376 Mn360 2.297 . S
O376 C363 1.236 . S
N377 Mn361 2.282 . S
N377 C378 1.328 . S
N377 C382 1.318 . S
C378 N377 1.328 . S
C378 C379 1.457 . S
C378 H383 0.929 . S
C379 C378 1.457 . S
C379 C380 1.291 . S
C379 H392 0.931 . S
C380 C379 1.291 . S
C380 C381 1.373 . S
C380 H393 0.929 . S
C381 C380 1.373 . S
C381 C382 1.396 . S
C381 C388 1.403 . S
C382 C372 1.476 . S
C382 N377 1.318 . S
C382 C381 1.396 . S
H383 C378 0.929 . S
O384 Mn360 2.385 . S
O384 C362 1.234 . S
O385 Mn360 2.209 . S
O385 Mn361 2.215 . S
O385 C362 1.283 . S
O386 Mn360 2.094 . S
O386 C364 1.240 . S
O387 Mn361 2.117 . S
O387 C364 1.264 . S
C388 C381 1.403 . S
C388 C389 1.399 . S
C388 H394 0.929 . S
C389 C369 1.449 . S
C389 C388 1.399 . S
C389 H395 0.930 . S
H390 C370 0.931 . S
H391 C371 0.930 . S
H392 C379 0.931 . S
H393 C380 0.929 . S
H394 C388 0.929 . S
H395 C389 0.930 . S
Mn396 O401 2.095 . S
Mn396 O411 2.162 . S
Mn396 O412 2.297 . S
Mn396 O420 2.385 . S
Mn396 O421 2.209 . S
Mn396 O422 2.094 . S
Mn397 O402 2.121 . S
Mn397 N404 2.257 . S
Mn397 N413 2.282 . S
Mn397 O421 2.215 . S
Mn397 O423 2.117 . S
C398 O420 1.234 . S
C398 O421 1.283 . S
C399 O411 1.281 . S
C399 O412 1.236 . S
C400 O422 1.240 . S
C400 O423 1.264 . S
O401 Mn396 2.095 . S
O401 C410 1.250 . S
O402 Mn397 2.121 . S
O402 C410 1.258 . S
C403 N404 1.326 . S
C403 C407 1.460 . S
C403 H409 0.929 . S
N404 Mn397 2.257 . S
N404 C403 1.326 . S
N404 C408 1.362 . S
C405 C406 1.258 . S
C405 C408 1.431 . S
C405 C425 1.449 . S
C406 C405 1.258 . S
C406 C407 1.477 . S
C406 H426 0.931 . S
C407 C403 1.460 . S
C407 C406 1.477 . S
C407 H427 0.930 . S
C408 N404 1.362 . S
C408 C405 1.431 . S
C408 C418 1.476 . S
H409 C403 0.929 . S
C410 O401 1.250 . S
C410 O402 1.258 . S
O411 Mn396 2.162 . S
O411 C399 1.281 . S
O412 Mn396 2.297 . S
O412 C399 1.236 . S
N413 Mn397 2.282 . S
N413 C414 1.328 . S
N413 C418 1.318 . S
C414 N413 1.328 . S
C414 C415 1.457 . S
C414 H419 0.929 . S
C415 C414 1.457 . S
C415 C416 1.291 . S
C415 H428 0.931 . S
C416 C415 1.291 . S
C416 C417 1.373 . S
C416 H429 0.929 . S
C417 C416 1.373 . S
C417 C418 1.396 . S
C417 C424 1.403 . S
C418 C408 1.476 . S
C418 N413 1.318 . S
C418 C417 1.396 . S
H419 C414 0.929 . S
O420 Mn396 2.385 . S
O420 C398 1.234 . S
O421 Mn396 2.209 . S
O421 Mn397 2.215 . S
O421 C398 1.283 . S
O422 Mn396 2.094 . S
O422 C400 1.240 . S
O423 Mn397 2.117 . S
O423 C400 1.264 . S
C424 C417 1.403 . S
C424 C425 1.399 . S
C424 H430 0.929 . S
C425 C405 1.449 . S
C425 C424 1.399 . S
C425 H431 0.930 . S
H426 C406 0.931 . S
H427 C407 0.930 . S
H428 C415 0.931 . S
H429 C416 0.929 . S
H430 C424 0.929 . S
H431 C425 0.930 . S
Mn432 O437 2.095 . S
Mn432 O447 2.162 . S
Mn432 O448 2.297 . S
Mn432 O456 2.385 . S
Mn432 O457 2.209 . S
Mn432 O458 2.094 . S
Mn433 O438 2.121 . S
Mn433 N440 2.257 . S
Mn433 N449 2.282 . S
Mn433 O457 2.215 . S
Mn433 O459 2.117 . S
C434 O456 1.234 . S
C434 O457 1.283 . S
C435 O447 1.281 . S
C435 O448 1.236 . S
C436 O458 1.240 . S
C436 O459 1.264 . S
O437 Mn432 2.095 . S
O437 C446 1.250 . S
O438 Mn433 2.121 . S
O438 C446 1.258 . S
C439 N440 1.326 . S
C439 C443 1.460 . S
C439 H445 0.929 . S
N440 Mn433 2.257 . S
N440 C439 1.326 . S
N440 C444 1.362 . S
C441 C442 1.258 . S
C441 C444 1.431 . S
C441 C461 1.449 . S
C442 C441 1.258 . S
C442 C443 1.477 . S
C442 H462 0.931 . S
C443 C439 1.460 . S
C443 C442 1.477 . S
C443 H463 0.930 . S
C444 N440 1.362 . S
C444 C441 1.431 . S
C444 C454 1.476 . S
H445 C439 0.929 . S
C446 O437 1.250 . S
C446 O438 1.258 . S
O447 Mn432 2.162 . S
O447 C435 1.281 . S
O448 Mn432 2.297 . S
O448 C435 1.236 . S
N449 Mn433 2.282 . S
N449 C450 1.328 . S
N449 C454 1.318 . S
C450 N449 1.328 . S
C450 C451 1.457 . S
C450 H455 0.929 . S
C451 C450 1.457 . S
C451 C452 1.291 . S
C451 H464 0.931 . S
C452 C451 1.291 . S
C452 C453 1.373 . S
C452 H465 0.929 . S
C453 C452 1.373 . S
C453 C454 1.396 . S
C453 C460 1.403 . S
C454 C444 1.476 . S
C454 N449 1.318 . S
C454 C453 1.396 . S
H455 C450 0.929 . S
O456 Mn432 2.385 . S
O456 C434 1.234 . S
O457 Mn432 2.209 . S
O457 Mn433 2.215 . S
O457 C434 1.283 . S
O458 Mn432 2.094 . S
O458 C436 1.240 . S
O459 Mn433 2.117 . S
O459 C436 1.264 . S
C460 C453 1.403 . S
C460 C461 1.399 . S
C460 H466 0.929 . S
C461 C441 1.449 . S
C461 C460 1.399 . S
C461 H467 0.930 . S
H462 C442 0.931 . S
H463 C443 0.930 . S
H464 C451 0.931 . S
H465 C452 0.929 . S
H466 C460 0.929 . S
H467 C461 0.930 . S
Mn468 O473 2.095 . S
Mn468 O483 2.162 . S
Mn468 O484 2.297 . S
Mn468 O492 2.385 . S
Mn468 O493 2.209 . S
Mn468 O494 2.094 . S
Mn469 O474 2.121 . S
Mn469 N476 2.257 . S
Mn469 N485 2.282 . S
Mn469 O493 2.215 . S
Mn469 O495 2.117 . S
C470 O492 1.234 . S
C470 O493 1.283 . S
C471 O483 1.281 . S
C471 O484 1.236 . S
C472 O494 1.240 . S
C472 O495 1.264 . S
O473 Mn468 2.095 . S
O473 C482 1.250 . S
O474 Mn469 2.121 . S
O474 C482 1.258 . S
C475 N476 1.326 . S
C475 C479 1.460 . S
C475 H481 0.929 . S
N476 Mn469 2.257 . S
N476 C475 1.326 . S
N476 C480 1.362 . S
C477 C478 1.258 . S
C477 C480 1.431 . S
C477 C497 1.449 . S
C478 C477 1.258 . S
C478 C479 1.477 . S
C478 H498 0.931 . S
C479 C475 1.460 . S
C479 C478 1.477 . S
C479 H499 0.930 . S
C480 N476 1.362 . S
C480 C477 1.431 . S
C480 C490 1.476 . S
H481 C475 0.929 . S
C482 O473 1.250 . S
C482 O474 1.258 . S
O483 Mn468 2.162 . S
O483 C471 1.281 . S
O484 Mn468 2.297 . S
O484 C471 1.236 . S
N485 Mn469 2.282 . S
N485 C486 1.328 . S
N485 C490 1.318 . S
C486 N485 1.328 . S
C486 C487 1.457 . S
C486 H491 0.929 . S
C487 C486 1.457 . S
C487 C488 1.291 . S
C487 H500 0.931 . S
C488 C487 1.291 . S
C488 C489 1.373 . S
C488 H501 0.929 . S
C489 C488 1.373 . S
C489 C490 1.396 . S
C489 C496 1.403 . S
C490 C480 1.476 . S
C490 N485 1.318 . S
C490 C489 1.396 . S
H491 C486 0.929 . S
O492 Mn468 2.385 . S
O492 C470 1.234 . S
O493 Mn468 2.209 . S
O493 Mn469 2.215 . S
O493 C470 1.283 . S
O494 Mn468 2.094 . S
O494 C472 1.240 . S
O495 Mn469 2.117 . S
O495 C472 1.264 . S
C496 C489 1.403 . S
C496 C497 1.399 . S
C496 H502 0.929 . S
C497 C477 1.449 . S
C497 C496 1.399 . S
C497 H503 0.930 . S
H498 C478 0.931 . S
H499 C479 0.930 . S
H500 C487 0.931 . S
H501 C488 0.929 . S
H502 C496 0.929 . S
H503 C497 0.930 . S
Mn504 O509 2.095 . S
Mn504 O519 2.162 . S
Mn504 O520 2.297 . S
Mn504 O528 2.385 . S
Mn504 O529 2.209 . S
Mn504 O530 2.094 . S
Mn505 O510 2.121 . S
Mn505 N512 2.257 . S
Mn505 N521 2.282 . S
Mn505 O529 2.215 . S
Mn505 O531 2.117 . S
C506 O528 1.234 . S
C506 O529 1.283 . S
C507 O519 1.281 . S
C507 O520 1.236 . S
C508 O530 1.240 . S
C508 O531 1.264 . S
O509 Mn504 2.095 . S
O509 C518 1.250 . S
O510 Mn505 2.121 . S
O510 C518 1.258 . S
C511 N512 1.326 . S
C511 C515 1.460 . S
C511 H517 0.929 . S
N512 Mn505 2.257 . S
N512 C511 1.326 . S
N512 C516 1.362 . S
C513 C514 1.258 . S
C513 C516 1.431 . S
C513 C533 1.449 . S
C514 C513 1.258 . S
C514 C515 1.477 . S
C514 H534 0.931 . S
C515 C511 1.460 . S
C515 C514 1.477 . S
C515 H535 0.930 . S
C516 N512 1.362 . S
C516 C513 1.431 . S
C516 C526 1.476 . S
H517 C511 0.929 . S
C518 O509 1.250 . S
C518 O510 1.258 . S
O519 Mn504 2.162 . S
O519 C507 1.281 . S
O520 Mn504 2.297 . S
O520 C507 1.236 . S
N521 Mn505 2.282 . S
N521 C522 1.328 . S
N521 C526 1.318 . S
C522 N521 1.328 . S
C522 C523 1.457 . S
C522 H527 0.929 . S
C523 C522 1.457 . S
C523 C524 1.291 . S
C523 H536 0.931 . S
C524 C523 1.291 . S
C524 C525 1.373 . S
C524 H537 0.929 . S
C525 C524 1.373 . S
C525 C526 1.396 . S
C525 C532 1.403 . S
C526 C516 1.476 . S
C526 N521 1.318 . S
C526 C525 1.396 . S
H527 C522 0.929 . S
O528 Mn504 2.385 . S
O528 C506 1.234 . S
O529 Mn504 2.209 . S
O529 Mn505 2.215 . S
O529 C506 1.283 . S
O530 Mn504 2.094 . S
O530 C508 1.240 . S
O531 Mn505 2.117 . S
O531 C508 1.264 . S
C532 C525 1.403 . S
C532 C533 1.399 . S
C532 H538 0.929 . S
C533 C513 1.449 . S
C533 C532 1.399 . S
C533 H539 0.930 . S
H534 C514 0.931 . S
H535 C515 0.930 . S
H536 C523 0.931 . S
H537 C524 0.929 . S
H538 C532 0.929 . S
H539 C533 0.930 . S
Mn540 O545 2.095 . S
Mn540 O555 2.162 . S
Mn540 O556 2.297 . S
Mn540 O564 2.385 . S
Mn540 O565 2.209 . S
Mn540 O566 2.094 . S
Mn541 O546 2.121 . S
Mn541 N548 2.257 . S
Mn541 N557 2.282 . S
Mn541 O565 2.215 . S
Mn541 O567 2.117 . S
C542 O564 1.234 . S
C542 O565 1.283 . S
C543 O555 1.281 . S
C543 O556 1.236 . S
C544 O566 1.240 . S
C544 O567 1.264 . S
O545 Mn540 2.095 . S
O545 C554 1.250 . S
O546 Mn541 2.121 . S
O546 C554 1.258 . S
C547 N548 1.326 . S
C547 C551 1.460 . S
C547 H553 0.929 . S
N548 Mn541 2.257 . S
N548 C547 1.326 . S
N548 C552 1.362 . S
C549 C550 1.258 . S
C549 C552 1.431 . S
C549 C569 1.449 . S
C550 C549 1.258 . S
C550 C551 1.477 . S
C550 H570 0.931 . S
C551 C547 1.460 . S
C551 C550 1.477 . S
C551 H571 0.930 . S
C552 N548 1.362 . S
C552 C549 1.431 . S
C552 C562 1.476 . S
H553 C547 0.929 . S
C554 O545 1.250 . S
C554 O546 1.258 . S
O555 Mn540 2.162 . S
O555 C543 1.281 . S
O556 Mn540 2.297 . S
O556 C543 1.236 . S
N557 Mn541 2.282 . S
N557 C558 1.328 . S
N557 C562 1.318 . S
C558 N557 1.328 . S
C558 C559 1.457 . S
C558 H563 0.929 . S
C559 C558 1.457 . S
C559 C560 1.291 . S
C559 H572 0.931 . S
C560 C559 1.291 . S
C560 C561 1.373 . S
C560 H573 0.929 . S
C561 C560 1.373 . S
C561 C562 1.396 . S
C561 C568 1.403 . S
C562 C552 1.476 . S
C562 N557 1.318 . S
C562 C561 1.396 . S
H563 C558 0.929 . S
O564 Mn540 2.385 . S
O564 C542 1.234 . S
O565 Mn540 2.209 . S
O565 Mn541 2.215 . S
O565 C542 1.283 . S
O566 Mn540 2.094 . S
O566 C544 1.240 . S
O567 Mn541 2.117 . S
O567 C544 1.264 . S
C568 C561 1.403 . S
C568 C569 1.399 . S
C568 H574 0.929 . S
C569 C549 1.449 . S
C569 C568 1.399 . S
C569 H575 0.930 . S
H570 C550 0.931 . S
H571 C551 0.930 . S
H572 C559 0.931 . S
H573 C560 0.929 . S
H574 C568 0.929 . S
H575 C569 0.930 . S
Mn576 O581 2.095 . S
Mn576 O591 2.162 . S
Mn576 O592 2.297 . S
Mn576 O600 2.385 . S
Mn576 O601 2.209 . S
Mn576 O602 2.094 . S
Mn577 O582 2.121 . S
Mn577 N584 2.257 . S
Mn577 N593 2.282 . S
Mn577 O601 2.215 . S
Mn577 O603 2.117 . S
C578 O600 1.234 . S
C578 O601 1.283 . S
C579 O591 1.281 . S
C579 O592 1.236 . S
C580 O602 1.240 . S
C580 O603 1.264 . S
O581 Mn576 2.095 . S
O581 C590 1.250 . S
O582 Mn577 2.121 . S
O582 C590 1.258 . S
C583 N584 1.326 . S
C583 C587 1.460 . S
C583 H589 0.929 . S
N584 Mn577 2.257 . S
N584 C583 1.326 . S
N584 C588 1.362 . S
C585 C586 1.258 . S
C585 C588 1.431 . S
C585 C605 1.449 . S
C586 C585 1.258 . S
C586 C587 1.477 . S
C586 H606 0.931 . S
C587 C583 1.460 . S
C587 C586 1.477 . S
C587 H607 0.930 . S
C588 N584 1.362 . S
C588 C585 1.431 . S
C588 C598 1.476 . S
H589 C583 0.929 . S
C590 O581 1.250 . S
C590 O582 1.258 . S
O591 Mn576 2.162 . S
O591 C579 1.281 . S
O592 Mn576 2.297 . S
O592 C579 1.236 . S
N593 Mn577 2.282 . S
N593 C594 1.328 . S
N593 C598 1.318 . S
C594 N593 1.328 . S
C594 C595 1.457 . S
C594 H599 0.929 . S
C595 C594 1.457 . S
C595 C596 1.291 . S
C595 H608 0.931 . S
C596 C595 1.291 . S
C596 C597 1.373 . S
C596 H609 0.929 . S
C597 C596 1.373 . S
C597 C598 1.396 . S
C597 C604 1.403 . S
C598 C588 1.476 . S
C598 N593 1.318 . S
C598 C597 1.396 . S
H599 C594 0.929 . S
O600 Mn576 2.385 . S
O600 C578 1.234 . S
O601 Mn576 2.209 . S
O601 Mn577 2.215 . S
O601 C578 1.283 . S
O602 Mn576 2.094 . S
O602 C580 1.240 . S
O603 Mn577 2.117 . S
O603 C580 1.264 . S
C604 C597 1.403 . S
C604 C605 1.399 . S
C604 H610 0.929 . S
C605 C585 1.449 . S
C605 C604 1.399 . S
C605 H611 0.930 . S
H606 C586 0.931 . S
H607 C587 0.930 . S
H608 C595 0.931 . S
H609 C596 0.929 . S
H610 C604 0.929 . S
H611 C605 0.930 . S
Mn612 O617 2.095 . S
Mn612 O627 2.162 . S
Mn612 O628 2.297 . S
Mn612 O636 2.385 . S
Mn612 O637 2.209 . S
Mn612 O638 2.094 . S
Mn613 O618 2.121 . S
Mn613 N620 2.257 . S
Mn613 N629 2.282 . S
Mn613 O637 2.215 . S
Mn613 O639 2.117 . S
C614 O636 1.234 . S
C614 O637 1.283 . S
C615 O627 1.281 . S
C615 O628 1.236 . S
C616 O638 1.240 . S
C616 O639 1.264 . S
O617 Mn612 2.095 . S
O617 C626 1.250 . S
O618 Mn613 2.121 . S
O618 C626 1.258 . S
C619 N620 1.326 . S
C619 C623 1.460 . S
C619 H625 0.929 . S
N620 Mn613 2.257 . S
N620 C619 1.326 . S
N620 C624 1.362 . S
C621 C622 1.258 . S
C621 C624 1.431 . S
C621 C641 1.449 . S
C622 C621 1.258 . S
C622 C623 1.477 . S
C622 H642 0.931 . S
C623 C619 1.460 . S
C623 C622 1.477 . S
C623 H643 0.930 . S
C624 N620 1.362 . S
C624 C621 1.431 . S
C624 C634 1.476 . S
H625 C619 0.929 . S
C626 O617 1.250 . S
C626 O618 1.258 . S
O627 Mn612 2.162 . S
O627 C615 1.281 . S
O628 Mn612 2.297 . S
O628 C615 1.236 . S
N629 Mn613 2.282 . S
N629 C630 1.328 . S
N629 C634 1.318 . S
C630 N629 1.328 . S
C630 C631 1.457 . S
C630 H635 0.929 . S
C631 C630 1.457 . S
C631 C632 1.291 . S
C631 H644 0.931 . S
C632 C631 1.291 . S
C632 C633 1.373 . S
C632 H645 0.929 . S
C633 C632 1.373 . S
C633 C634 1.396 . S
C633 C640 1.403 . S
C634 C624 1.476 . S
C634 N629 1.318 . S
C634 C633 1.396 . S
H635 C630 0.929 . S
O636 Mn612 2.385 . S
O636 C614 1.234 . S
O637 Mn612 2.209 . S
O637 Mn613 2.215 . S
O637 C614 1.283 . S
O638 Mn612 2.094 . S
O638 C616 1.240 . S
O639 Mn613 2.117 . S
O639 C616 1.264 . S
C640 C633 1.403 . S
C640 C641 1.399 . S
C640 H646 0.929 . S
C641 C621 1.449 . S
C641 C640 1.399 . S
C641 H647 0.930 . S
H642 C622 0.931 . S
H643 C623 0.930 . S
H644 C631 0.931 . S
H645 C632 0.929 . S
H646 C640 0.929 . S
H647 C641 0.930 . S
Mn648 O653 2.095 . S
Mn648 O663 2.162 . S
Mn648 O664 2.297 . S
Mn648 O672 2.385 . S
Mn648 O673 2.209 . S
Mn648 O674 2.094 . S
Mn649 O654 2.121 . S
Mn649 N656 2.257 . S
Mn649 N665 2.282 . S
Mn649 O673 2.215 . S
Mn649 O675 2.117 . S
C650 O672 1.234 . S
C650 O673 1.283 . S
C651 O663 1.281 . S
C651 O664 1.236 . S
C652 O674 1.240 . S
C652 O675 1.264 . S
O653 Mn648 2.095 . S
O653 C662 1.250 . S
O654 Mn649 2.121 . S
O654 C662 1.258 . S
C655 N656 1.326 . S
C655 C659 1.460 . S
C655 H661 0.929 . S
N656 Mn649 2.257 . S
N656 C655 1.326 . S
N656 C660 1.362 . S
C657 C658 1.258 . S
C657 C660 1.431 . S
C657 C677 1.449 . S
C658 C657 1.258 . S
C658 C659 1.477 . S
C658 H678 0.931 . S
C659 C655 1.460 . S
C659 C658 1.477 . S
C659 H679 0.930 . S
C660 N656 1.362 . S
C660 C657 1.431 . S
C660 C670 1.476 . S
H661 C655 0.929 . S
C662 O653 1.250 . S
C662 O654 1.258 . S
O663 Mn648 2.162 . S
O663 C651 1.281 . S
O664 Mn648 2.297 . S
O664 C651 1.236 . S
N665 Mn649 2.282 . S
N665 C666 1.328 . S
N665 C670 1.318 . S
C666 N665 1.328 . S
C666 C667 1.457 . S
C666 H671 0.929 . S
C667 C666 1.457 . S
C667 C668 1.291 . S
C667 H680 0.931 . S
C668 C667 1.291 . S
C668 C669 1.373 . S
C668 H681 0.929 . S
C669 C668 1.373 . S
C669 C670 1.396 . S
C669 C676 1.403 . S
C670 C660 1.476 . S
C670 N665 1.318 . S
C670 C669 1.396 . S
H671 C666 0.929 . S
O672 Mn648 2.385 . S
O672 C650 1.234 . S
O673 Mn648 2.209 . S
O673 Mn649 2.215 . S
O673 C650 1.283 . S
O674 Mn648 2.094 . S
O674 C652 1.240 . S
O675 Mn649 2.117 . S
O675 C652 1.264 . S
C676 C669 1.403 . S
C676 C677 1.399 . S
C676 H682 0.929 . S
C677 C657 1.449 . S
C677 C676 1.399 . S
C677 H683 0.930 . S
H678 C658 0.931 . S
H679 C659 0.930 . S
H680 C667 0.931 . S
H681 C668 0.929 . S
H682 C676 0.929 . S
H683 C677 0.930 . S
Mn684 O689 2.095 . S
Mn684 O699 2.162 . S
Mn684 O700 2.297 . S
Mn684 O708 2.385 . S
Mn684 O709 2.209 . S
Mn684 O710 2.094 . S
Mn685 O690 2.121 . S
Mn685 N692 2.257 . S
Mn685 N701 2.282 . S
Mn685 O709 2.215 . S
Mn685 O711 2.117 . S
C686 O708 1.234 . S
C686 O709 1.283 . S
C687 O699 1.281 . S
C687 O700 1.236 . S
C688 O710 1.240 . S
C688 O711 1.264 . S
O689 Mn684 2.095 . S
O689 C698 1.250 . S
O690 Mn685 2.121 . S
O690 C698 1.258 . S
C691 N692 1.326 . S
C691 C695 1.460 . S
C691 H697 0.929 . S
N692 Mn685 2.257 . S
N692 C691 1.326 . S
N692 C696 1.362 . S
C693 C694 1.258 . S
C693 C696 1.431 . S
C693 C713 1.449 . S
C694 C693 1.258 . S
C694 C695 1.477 . S
C694 H714 0.931 . S
C695 C691 1.460 . S
C695 C694 1.477 . S
C695 H715 0.930 . S
C696 N692 1.362 . S
C696 C693 1.431 . S
C696 C706 1.476 . S
H697 C691 0.929 . S
C698 O689 1.250 . S
C698 O690 1.258 . S
O699 Mn684 2.162 . S
O699 C687 1.281 . S
O700 Mn684 2.297 . S
O700 C687 1.236 . S
N701 Mn685 2.282 . S
N701 C702 1.328 . S
N701 C706 1.318 . S
C702 N701 1.328 . S
C702 C703 1.457 . S
C702 H707 0.929 . S
C703 C702 1.457 . S
C703 C704 1.291 . S
C703 H716 0.931 . S
C704 C703 1.291 . S
C704 C705 1.373 . S
C704 H717 0.929 . S
C705 C704 1.373 . S
C705 C706 1.396 . S
C705 C712 1.403 . S
C706 C696 1.476 . S
C706 N701 1.318 . S
C706 C705 1.396 . S
H707 C702 0.929 . S
O708 Mn684 2.385 . S
O708 C686 1.234 . S
O709 Mn684 2.209 . S
O709 Mn685 2.215 . S
O709 C686 1.283 . S
O710 Mn684 2.094 . S
O710 C688 1.240 . S
O711 Mn685 2.117 . S
O711 C688 1.264 . S
C712 C705 1.403 . S
C712 C713 1.399 . S
C712 H718 0.929 . S
C713 C693 1.449 . S
C713 C712 1.399 . S
C713 H719 0.930 . S
H714 C694 0.931 . S
H715 C695 0.930 . S
H716 C703 0.931 . S
H717 C704 0.929 . S
H718 C712 0.929 . S
H719 C713 0.930 . S
Mn720 O725 2.095 . S
Mn720 O735 2.162 . S
Mn720 O736 2.297 . S
Mn720 O744 2.385 . S
Mn720 O745 2.209 . S
Mn720 O746 2.094 . S
Mn721 O726 2.121 . S
Mn721 N728 2.257 . S
Mn721 N737 2.282 . S
Mn721 O745 2.215 . S
Mn721 O747 2.117 . S
C722 O744 1.234 . S
C722 O745 1.283 . S
C723 O735 1.281 . S
C723 O736 1.236 . S
C724 O746 1.240 . S
C724 O747 1.264 . S
O725 Mn720 2.095 . S
O725 C734 1.250 . S
O726 Mn721 2.121 . S
O726 C734 1.258 . S
C727 N728 1.326 . S
C727 C731 1.460 . S
C727 H733 0.929 . S
N728 Mn721 2.257 . S
N728 C727 1.326 . S
N728 C732 1.362 . S
C729 C730 1.258 . S
C729 C732 1.431 . S
C729 C749 1.449 . S
C730 C729 1.258 . S
C730 C731 1.477 . S
C730 H750 0.931 . S
C731 C727 1.460 . S
C731 C730 1.477 . S
C731 H751 0.930 . S
C732 N728 1.362 . S
C732 C729 1.431 . S
C732 C742 1.476 . S
H733 C727 0.929 . S
C734 O725 1.250 . S
C734 O726 1.258 . S
O735 Mn720 2.162 . S
O735 C723 1.281 . S
O736 Mn720 2.297 . S
O736 C723 1.236 . S
N737 Mn721 2.282 . S
N737 C738 1.328 . S
N737 C742 1.318 . S
C738 N737 1.328 . S
C738 C739 1.457 . S
C738 H743 0.929 . S
C739 C738 1.457 . S
C739 C740 1.291 . S
C739 H752 0.931 . S
C740 C739 1.291 . S
C740 C741 1.373 . S
C740 H753 0.929 . S
C741 C740 1.373 . S
C741 C742 1.396 . S
C741 C748 1.403 . S
C742 C732 1.476 . S
C742 N737 1.318 . S
C742 C741 1.396 . S
H743 C738 0.929 . S
O744 Mn720 2.385 . S
O744 C722 1.234 . S
O745 Mn720 2.209 . S
O745 Mn721 2.215 . S
O745 C722 1.283 . S
O746 Mn720 2.094 . S
O746 C724 1.240 . S
O747 Mn721 2.117 . S
O747 C724 1.264 . S
C748 C741 1.403 . S
C748 C749 1.399 . S
C748 H754 0.929 . S
C749 C729 1.449 . S
C749 C748 1.399 . S
C749 H755 0.930 . S
H750 C730 0.931 . S
H751 C731 0.930 . S
H752 C739 0.931 . S
H753 C740 0.929 . S
H754 C748 0.929 . S
H755 C749 0.930 . S
Mn756 O761 2.095 . S
Mn756 O771 2.162 . S
Mn756 O772 2.297 . S
Mn756 O780 2.385 . S
Mn756 O781 2.209 . S
Mn756 O782 2.094 . S
Mn757 O762 2.121 . S
Mn757 N764 2.257 . S
Mn757 N773 2.282 . S
Mn757 O781 2.215 . S
Mn757 O783 2.117 . S
C758 O780 1.234 . S
C758 O781 1.283 . S
C759 O771 1.281 . S
C759 O772 1.236 . S
C760 O782 1.240 . S
C760 O783 1.264 . S
O761 Mn756 2.095 . S
O761 C770 1.250 . S
O762 Mn757 2.121 . S
O762 C770 1.258 . S
C763 N764 1.326 . S
C763 C767 1.460 . S
C763 H769 0.929 . S
N764 Mn757 2.257 . S
N764 C763 1.326 . S
N764 C768 1.362 . S
C765 C766 1.258 . S
C765 C768 1.431 . S
C765 C785 1.449 . S
C766 C765 1.258 . S
C766 C767 1.477 . S
C766 H786 0.931 . S
C767 C763 1.460 . S
C767 C766 1.477 . S
C767 H787 0.930 . S
C768 N764 1.362 . S
C768 C765 1.431 . S
C768 C778 1.476 . S
H769 C763 0.929 . S
C770 O761 1.250 . S
C770 O762 1.258 . S
O771 Mn756 2.162 . S
O771 C759 1.281 . S
O772 Mn756 2.297 . S
O772 C759 1.236 . S
N773 Mn757 2.282 . S
N773 C774 1.328 . S
N773 C778 1.318 . S
C774 N773 1.328 . S
C774 C775 1.457 . S
C774 H779 0.929 . S
C775 C774 1.457 . S
C775 C776 1.291 . S
C775 H788 0.931 . S
C776 C775 1.291 . S
C776 C777 1.373 . S
C776 H789 0.929 . S
C777 C776 1.373 . S
C777 C778 1.396 . S
C777 C784 1.403 . S
C778 C768 1.476 . S
C778 N773 1.318 . S
C778 C777 1.396 . S
H779 C774 0.929 . S
O780 Mn756 2.385 . S
O780 C758 1.234 . S
O781 Mn756 2.209 . S
O781 Mn757 2.215 . S
O781 C758 1.283 . S
O782 Mn756 2.094 . S
O782 C760 1.240 . S
O783 Mn757 2.117 . S
O783 C760 1.264 . S
C784 C777 1.403 . S
C784 C785 1.399 . S
C784 H790 0.929 . S
C785 C765 1.449 . S
C785 C784 1.399 . S
C785 H791 0.930 . S
H786 C766 0.931 . S
H787 C767 0.930 . S
H788 C775 0.931 . S
H789 C776 0.929 . S
H790 C784 0.929 . S
H791 C785 0.930 . S
Mn792 O797 2.095 . S
Mn792 O807 2.162 . S
Mn792 O808 2.297 . S
Mn792 O816 2.385 . S
Mn792 O817 2.209 . S
Mn792 O818 2.094 . S
Mn793 O798 2.121 . S
Mn793 N800 2.257 . S
Mn793 N809 2.282 . S
Mn793 O817 2.215 . S
Mn793 O819 2.117 . S
C794 O816 1.234 . S
C794 O817 1.283 . S
C795 O807 1.281 . S
C795 O808 1.236 . S
C796 O818 1.240 . S
C796 O819 1.264 . S
O797 Mn792 2.095 . S
O797 C806 1.250 . S
O798 Mn793 2.121 . S
O798 C806 1.258 . S
C799 N800 1.326 . S
C799 C803 1.460 . S
C799 H805 0.929 . S
N800 Mn793 2.257 . S
N800 C799 1.326 . S
N800 C804 1.362 . S
C801 C802 1.258 . S
C801 C804 1.431 . S
C801 C821 1.449 . S
C802 C801 1.258 . S
C802 C803 1.477 . S
C802 H822 0.931 . S
C803 C799 1.460 . S
C803 C802 1.477 . S
C803 H823 0.930 . S
C804 N800 1.362 . S
C804 C801 1.431 . S
C804 C814 1.476 . S
H805 C799 0.929 . S
C806 O797 1.250 . S
C806 O798 1.258 . S
O807 Mn792 2.162 . S
O807 C795 1.281 . S
O808 Mn792 2.297 . S
O808 C795 1.236 . S
N809 Mn793 2.282 . S
N809 C810 1.328 . S
N809 C814 1.318 . S
C810 N809 1.328 . S
C810 C811 1.457 . S
C810 H815 0.929 . S
C811 C810 1.457 . S
C811 C812 1.291 . S
C811 H824 0.931 . S
C812 C811 1.291 . S
C812 C813 1.373 . S
C812 H825 0.929 . S
C813 C812 1.373 . S
C813 C814 1.396 . S
C813 C820 1.403 . S
C814 C804 1.476 . S
C814 N809 1.318 . S
C814 C813 1.396 . S
H815 C810 0.929 . S
O816 Mn792 2.385 . S
O816 C794 1.234 . S
O817 Mn792 2.209 . S
O817 Mn793 2.215 . S
O817 C794 1.283 . S
O818 Mn792 2.094 . S
O818 C796 1.240 . S
O819 Mn793 2.117 . S
O819 C796 1.264 . S
C820 C813 1.403 . S
C820 C821 1.399 . S
C820 H826 0.929 . S
C821 C801 1.449 . S
C821 C820 1.399 . S
C821 H827 0.930 . S
H822 C802 0.931 . S
H823 C803 0.930 . S
H824 C811 0.931 . S
H825 C812 0.929 . S
H826 C820 0.929 . S
H827 C821 0.930 . S
Mn828 O833 2.095 . S
Mn828 O843 2.162 . S
Mn828 O844 2.297 . S
Mn828 O852 2.385 . S
Mn828 O853 2.209 . S
Mn828 O854 2.094 . S
Mn829 O834 2.121 . S
Mn829 N836 2.257 . S
Mn829 N845 2.282 . S
Mn829 O853 2.215 . S
Mn829 O855 2.117 . S
C830 O852 1.234 . S
C830 O853 1.283 . S
C831 O843 1.281 . S
C831 O844 1.236 . S
C832 O854 1.240 . S
C832 O855 1.264 . S
O833 Mn828 2.095 . S
O833 C842 1.250 . S
O834 Mn829 2.121 . S
O834 C842 1.258 . S
C835 N836 1.326 . S
C835 C839 1.460 . S
C835 H841 0.929 . S
N836 Mn829 2.257 . S
N836 C835 1.326 . S
N836 C840 1.362 . S
C837 C838 1.258 . S
C837 C840 1.431 . S
C837 C857 1.449 . S
C838 C837 1.258 . S
C838 C839 1.477 . S
C838 H858 0.931 . S
C839 C835 1.460 . S
C839 C838 1.477 . S
C839 H859 0.930 . S
C840 N836 1.362 . S
C840 C837 1.431 . S
C840 C850 1.476 . S
H841 C835 0.929 . S
C842 O833 1.250 . S
C842 O834 1.258 . S
O843 Mn828 2.162 . S
O843 C831 1.281 . S
O844 Mn828 2.297 . S
O844 C831 1.236 . S
N845 Mn829 2.282 . S
N845 C846 1.328 . S
N845 C850 1.318 . S
C846 N845 1.328 . S
C846 C847 1.457 . S
C846 H851 0.929 . S
C847 C846 1.457 . S
C847 C848 1.291 . S
C847 H860 0.931 . S
C848 C847 1.291 . S
C848 C849 1.373 . S
C848 H861 0.929 . S
C849 C848 1.373 . S
C849 C850 1.396 . S
C849 C856 1.403 . S
C850 C840 1.476 . S
C850 N845 1.318 . S
C850 C849 1.396 . S
H851 C846 0.929 . S
O852 Mn828 2.385 . S
O852 C830 1.234 . S
O853 Mn828 2.209 . S
O853 Mn829 2.215 . S
O853 C830 1.283 . S
O854 Mn828 2.094 . S
O854 C832 1.240 . S
O855 Mn829 2.117 . S
O855 C832 1.264 . S
C856 C849 1.403 . S
C856 C857 1.399 . S
C856 H862 0.929 . S
C857 C837 1.449 . S
C857 C856 1.399 . S
C857 H863 0.930 . S
H858 C838 0.931 . S
H859 C839 0.930 . S
H860 C847 0.931 . S
H861 C848 0.929 . S
H862 C856 0.929 . S
H863 C857 0.930 . S
H864 C872 0.950 . S
H865 C877 0.950 . S
H866 C874 0.950 . S
H867 C876 0.950 . S
H868 C878 0.950 . S
H869 C880 0.950 . S
H870 C882 0.950 . S
H871 C883 0.950 . S
C872 H864 0.950 . S
C872 C873 1.386 . S
C872 C874 1.391 . S
C873 C872 1.386 . S
C873 C877 1.393 . S
C874 H866 0.950 . S
C874 C872 1.391 . S
C874 C875 1.400 . S
C875 C874 1.400 . S
C875 C876 1.398 . S
C875 C881 1.491 . S
C876 H867 0.950 . S
C876 C875 1.398 . S
C876 C877 1.391 . S
C877 H865 0.950 . S
C877 C873 1.393 . S
C877 C876 1.391 . S
C878 H868 0.950 . S
C878 C879 1.386 . S
C878 C880 1.391 . S
C879 C878 1.386 . S
C879 C883 1.393 . S
C880 H869 0.950 . S
C880 C878 1.391 . S
C880 C881 1.400 . S
C881 C875 1.491 . S
C881 C880 1.400 . S
C881 C882 1.398 . S
C882 H870 0.950 . S
C882 C881 1.398 . S
C882 C883 1.391 . S
C883 H871 0.950 . S
C883 C879 1.393 . S
C883 C882 1.391 . S
H884 C892 0.950 . S
H885 C897 0.950 . S
H886 C894 0.950 . S
H887 C896 0.950 . S
H888 C898 0.950 . S
H889 C900 0.950 . S
H890 C902 0.950 . S
H891 C903 0.950 . S
C892 H884 0.950 . S
C892 C893 1.386 . S
C892 C894 1.391 . S
C893 C892 1.386 . S
C893 C897 1.393 . S
C894 H886 0.950 . S
C894 C892 1.391 . S
C894 C895 1.400 . S
C895 C894 1.400 . S
C895 C896 1.398 . S
C895 C901 1.491 . S
C896 H887 0.950 . S
C896 C895 1.398 . S
C896 C897 1.391 . S
C897 H885 0.950 . S
C897 C893 1.393 . S
C897 C896 1.391 . S
C898 H888 0.950 . S
C898 C899 1.386 . S
C898 C900 1.391 . S
C899 C898 1.386 . S
C899 C903 1.393 . S
C900 H889 0.950 . S
C900 C898 1.391 . S
C900 C901 1.400 . S
C901 C895 1.491 . S
C901 C900 1.400 . S
C901 C902 1.398 . S
C902 H890 0.950 . S
C902 C901 1.398 . S
C902 C903 1.391 . S
C903 H891 0.950 . S
C903 C899 1.393 . S
C903 C902 1.391 . S
H904 C912 0.950 . S
H905 C917 0.950 . S
H906 C914 0.950 . S
H907 C916 0.950 . S
H908 C918 0.950 . S
H909 C920 0.950 . S
H910 C922 0.950 . S
H911 C923 0.950 . S
C912 H904 0.950 . S
C912 C913 1.386 . S
C912 C914 1.391 . S
C913 C912 1.386 . S
C913 C917 1.393 . S
C914 H906 0.950 . S
C914 C912 1.391 . S
C914 C915 1.400 . S
C915 C914 1.400 . S
C915 C916 1.398 . S
C915 C921 1.491 . S
C916 H907 0.950 . S
C916 C915 1.398 . S
C916 C917 1.391 . S
C917 H905 0.950 . S
C917 C913 1.393 . S
C917 C916 1.391 . S
C918 H908 0.950 . S
C918 C919 1.386 . S
C918 C920 1.391 . S
C919 C918 1.386 . S
C919 C923 1.393 . S
C920 H909 0.950 . S
C920 C918 1.391 . S
C920 C921 1.400 . S
C921 C915 1.491 . S
C921 C920 1.400 . S
C921 C922 1.398 . S
C922 H910 0.950 . S
C922 C921 1.398 . S
C922 C923 1.391 . S
C923 H911 0.950 . S
C923 C919 1.393 . S
C923 C922 1.391 . S
H924 C932 0.950 . S
H925 C937 0.950 . S
H926 C934 0.950 . S
H927 C936 0.950 . S
H928 C938 0.950 . S
H929 C940 0.950 . S
H930 C942 0.950 . S
H931 C943 0.950 . S
C932 H924 0.950 . S
C932 C933 1.386 . S
C932 C934 1.391 . S
C933 C932 1.386 . S
C933 C937 1.393 . S
C934 H926 0.950 . S
C934 C932 1.391 . S
C934 C935 1.400 . S
C935 C934 1.400 . S
C935 C936 1.398 . S
C935 C941 1.491 . S
C936 H927 0.950 . S
C936 C935 1.398 . S
C936 C937 1.391 . S
C937 H925 0.950 . S
C937 C933 1.393 . S
C937 C936 1.391 . S
C938 H928 0.950 . S
C938 C939 1.386 . S
C938 C940 1.391 . S
C939 C938 1.386 . S
C939 C943 1.393 . S
C940 H929 0.950 . S
C940 C938 1.391 . S
C940 C941 1.400 . S
C941 C935 1.491 . S
C941 C940 1.400 . S
C941 C942 1.398 . S
C942 H930 0.950 . S
C942 C941 1.398 . S
C942 C943 1.391 . S
C943 H931 0.950 . S
C943 C939 1.393 . S
C943 C942 1.391 . S
H944 C952 0.950 . S
H945 C957 0.950 . S
H946 C954 0.950 . S
H947 C956 0.950 . S
H948 C958 0.950 . S
H949 C960 0.950 . S
H950 C962 0.950 . S
H951 C963 0.950 . S
C952 H944 0.950 . S
C952 C953 1.386 . S
C952 C954 1.391 . S
C953 C952 1.386 . S
C953 C957 1.393 . S
C954 H946 0.950 . S
C954 C952 1.391 . S
C954 C955 1.400 . S
C955 C954 1.400 . S
C955 C956 1.398 . S
C955 C961 1.491 . S
C956 H947 0.950 . S
C956 C955 1.398 . S
C956 C957 1.391 . S
C957 H945 0.950 . S
C957 C953 1.393 . S
C957 C956 1.391 . S
C958 H948 0.950 . S
C958 C959 1.386 . S
C958 C960 1.391 . S
C959 C958 1.386 . S
C959 C963 1.393 . S
C960 H949 0.950 . S
C960 C958 1.391 . S
C960 C961 1.400 . S
C961 C955 1.491 . S
C961 C960 1.400 . S
C961 C962 1.398 . S
C962 H950 0.950 . S
C962 C961 1.398 . S
C962 C963 1.391 . S
C963 H951 0.950 . S
C963 C959 1.393 . S
C963 C962 1.391 . S
H964 C972 0.950 . S
H965 C977 0.950 . S
H966 C974 0.950 . S
H967 C976 0.950 . S
H968 C978 0.950 . S
H969 C980 0.950 . S
H970 C982 0.950 . S
H971 C983 0.950 . S
C972 H964 0.950 . S
C972 C973 1.386 . S
C972 C974 1.391 . S
C973 C972 1.386 . S
C973 C977 1.393 . S
C974 H966 0.950 . S
C974 C972 1.391 . S
C974 C975 1.400 . S
C975 C974 1.400 . S
C975 C976 1.398 . S
C975 C981 1.491 . S
C976 H967 0.950 . S
C976 C975 1.398 . S
C976 C977 1.391 . S
C977 H965 0.950 . S
C977 C973 1.393 . S
C977 C976 1.391 . S
C978 H968 0.950 . S
C978 C979 1.386 . S
C978 C980 1.391 . S
C979 C978 1.386 . S
C979 C983 1.393 . S
C980 H969 0.950 . S
C980 C978 1.391 . S
C980 C981 1.400 . S
C981 C975 1.491 . S
C981 C980 1.400 . S
C981 C982 1.398 . S
C982 H970 0.950 . S
C982 C981 1.398 . S
C982 C983 1.391 . S
C983 H971 0.950 . S
C983 C979 1.393 . S
C983 C982 1.391 . S
H984 C992 0.950 . S
H985 C997 0.950 . S
H986 C994 0.950 . S
H987 C996 0.950 . S
H988 C998 0.950 . S
H989 C1000 0.950 . S
H990 C1002 0.950 . S
H991 C1003 0.950 . S
C992 H984 0.950 . S
C992 C993 1.386 . S
C992 C994 1.391 . S
C993 C992 1.386 . S
C993 C997 1.393 . S
C994 H986 0.950 . S
C994 C992 1.391 . S
C994 C995 1.400 . S
C995 C994 1.400 . S
C995 C996 1.398 . S
C995 C1001 1.491 . S
C996 H987 0.950 . S
C996 C995 1.398 . S
C996 C997 1.391 . S
C997 H985 0.950 . S
C997 C993 1.393 . S
C997 C996 1.391 . S
C998 H988 0.950 . S
C998 C999 1.386 . S
C998 C1000 1.391 . S
C999 C998 1.386 . S
C999 C1003 1.393 . S
C1000 H989 0.950 . S
C1000 C998 1.391 . S
C1000 C1001 1.400 . S
C1001 C995 1.491 . S
C1001 C1000 1.400 . S
C1001 C1002 1.398 . S
C1002 H990 0.950 . S
C1002 C1001 1.398 . S
C1002 C1003 1.391 . S
C1003 H991 0.950 . S
C1003 C999 1.393 . S
C1003 C1002 1.391 . S
H1004 C1012 0.950 . S
H1005 C1017 0.950 . S
H1006 C1014 0.950 . S
H1007 C1016 0.950 . S
H1008 C1018 0.950 . S
H1009 C1020 0.950 . S
H1010 C1022 0.950 . S
H1011 C1023 0.950 . S
C1012 H1004 0.950 . S
C1012 C1013 1.386 . S
C1012 C1014 1.391 . S
C1013 C1012 1.386 . S
C1013 C1017 1.393 . S
C1014 H1006 0.950 . S
C1014 C1012 1.391 . S
C1014 C1015 1.400 . S
C1015 C1014 1.400 . S
C1015 C1016 1.398 . S
C1015 C1021 1.491 . S
C1016 H1007 0.950 . S
C1016 C1015 1.398 . S
C1016 C1017 1.391 . S
C1017 H1005 0.950 . S
C1017 C1013 1.393 . S
C1017 C1016 1.391 . S
C1018 H1008 0.950 . S
C1018 C1019 1.386 . S
C1018 C1020 1.391 . S
C1019 C1018 1.386 . S
C1019 C1023 1.393 . S
C1020 H1009 0.950 . S
C1020 C1018 1.391 . S
C1020 C1021 1.400 . S
C1021 C1015 1.491 . S
C1021 C1020 1.400 . S
C1021 C1022 1.398 . S
C1022 H1010 0.950 . S
C1022 C1021 1.398 . S
C1022 C1023 1.391 . S
C1023 H1011 0.950 . S
C1023 C1019 1.393 . S
C1023 C1022 1.391 . S
H1024 C1032 0.950 . S
H1025 C1037 0.950 . S
H1026 C1034 0.950 . S
H1027 C1036 0.950 . S
H1028 C1038 0.950 . S
H1029 C1040 0.950 . S
H1030 C1042 0.950 . S
H1031 C1043 0.950 . S
C1032 H1024 0.950 . S
C1032 C1033 1.386 . S
C1032 C1034 1.391 . S
C1033 C1032 1.386 . S
C1033 C1037 1.393 . S
C1034 H1026 0.950 . S
C1034 C1032 1.391 . S
C1034 C1035 1.400 . S
C1035 C1034 1.400 . S
C1035 C1036 1.398 . S
C1035 C1041 1.491 . S
C1036 H1027 0.950 . S
C1036 C1035 1.398 . S
C1036 C1037 1.391 . S
C1037 H1025 0.950 . S
C1037 C1033 1.393 . S
C1037 C1036 1.391 . S
C1038 H1028 0.950 . S
C1038 C1039 1.386 . S
C1038 C1040 1.391 . S
C1039 C1038 1.386 . S
C1039 C1043 1.393 . S
C1040 H1029 0.950 . S
C1040 C1038 1.391 . S
C1040 C1041 1.400 . S
C1041 C1035 1.491 . S
C1041 C1040 1.400 . S
C1041 C1042 1.398 . S
C1042 H1030 0.950 . S
C1042 C1041 1.398 . S
C1042 C1043 1.391 . S
C1043 H1031 0.950 . S
C1043 C1039 1.393 . S
C1043 C1042 1.391 . S
H1044 C1052 0.950 . S
H1045 C1057 0.950 . S
H1046 C1054 0.950 . S
H1047 C1056 0.950 . S
H1048 C1058 0.950 . S
H1049 C1060 0.950 . S
H1050 C1062 0.950 . S
H1051 C1063 0.950 . S
C1052 H1044 0.950 . S
C1052 C1053 1.386 . S
C1052 C1054 1.391 . S
C1053 C1052 1.386 . S
C1053 C1057 1.393 . S
C1054 H1046 0.950 . S
C1054 C1052 1.391 . S
C1054 C1055 1.400 . S
C1055 C1054 1.400 . S
C1055 C1056 1.398 . S
C1055 C1061 1.491 . S
C1056 H1047 0.950 . S
C1056 C1055 1.398 . S
C1056 C1057 1.391 . S
C1057 H1045 0.950 . S
C1057 C1053 1.393 . S
C1057 C1056 1.391 . S
C1058 H1048 0.950 . S
C1058 C1059 1.386 . S
C1058 C1060 1.391 . S
C1059 C1058 1.386 . S
C1059 C1063 1.393 . S
C1060 H1049 0.950 . S
C1060 C1058 1.391 . S
C1060 C1061 1.400 . S
C1061 C1055 1.491 . S
C1061 C1060 1.400 . S
C1061 C1062 1.398 . S
C1062 H1050 0.950 . S
C1062 C1061 1.398 . S
C1062 C1063 1.391 . S
C1063 H1051 0.950 . S
C1063 C1059 1.393 . S
C1063 C1062 1.391 . S
H1064 C1072 0.950 . S
H1065 C1077 0.950 . S
H1066 C1074 0.950 . S
H1067 C1076 0.950 . S
H1068 C1078 0.950 . S
H1069 C1080 0.950 . S
H1070 C1082 0.950 . S
H1071 C1083 0.950 . S
C1072 H1064 0.950 . S
C1072 C1073 1.386 . S
C1072 C1074 1.391 . S
C1073 C1072 1.386 . S
C1073 C1077 1.393 . S
C1074 H1066 0.950 . S
C1074 C1072 1.391 . S
C1074 C1075 1.400 . S
C1075 C1074 1.400 . S
C1075 C1076 1.398 . S
C1075 C1081 1.491 . S
C1076 H1067 0.950 . S
C1076 C1075 1.398 . S
C1076 C1077 1.391 . S
C1077 H1065 0.950 . S
C1077 C1073 1.393 . S
C1077 C1076 1.391 . S
C1078 H1068 0.950 . S
C1078 C1079 1.386 . S
C1078 C1080 1.391 . S
C1079 C1078 1.386 . S
C1079 C1083 1.393 . S
C1080 H1069 0.950 . S
C1080 C1078 1.391 . S
C1080 C1081 1.400 . S
C1081 C1075 1.491 . S
C1081 C1080 1.400 . S
C1081 C1082 1.398 . S
C1082 H1070 0.950 . S
C1082 C1081 1.398 . S
C1082 C1083 1.391 . S
C1083 H1071 0.950 . S
C1083 C1079 1.393 . S
C1083 C1082 1.391 . S
H1084 C1092 0.950 . S
H1085 C1097 0.950 . S
H1086 C1094 0.950 . S
H1087 C1096 0.950 . S
H1088 C1098 0.950 . S
H1089 C1100 0.950 . S
H1090 C1102 0.950 . S
H1091 C1103 0.950 . S
C1092 H1084 0.950 . S
C1092 C1093 1.386 . S
C1092 C1094 1.391 . S
C1093 C1092 1.386 . S
C1093 C1097 1.393 . S
C1094 H1086 0.950 . S
C1094 C1092 1.391 . S
C1094 C1095 1.400 . S
C1095 C1094 1.400 . S
C1095 C1096 1.398 . S
C1095 C1101 1.491 . S
C1096 H1087 0.950 . S
C1096 C1095 1.398 . S
C1096 C1097 1.391 . S
C1097 H1085 0.950 . S
C1097 C1093 1.393 . S
C1097 C1096 1.391 . S
C1098 H1088 0.950 . S
C1098 C1099 1.386 . S
C1098 C1100 1.391 . S
C1099 C1098 1.386 . S
C1099 C1103 1.393 . S
C1100 H1089 0.950 . S
C1100 C1098 1.391 . S
C1100 C1101 1.400 . S
C1101 C1095 1.491 . S
C1101 C1100 1.400 . S
C1101 C1102 1.398 . S
C1102 H1090 0.950 . S
C1102 C1101 1.398 . S
C1102 C1103 1.391 . S
C1103 H1091 0.950 . S
C1103 C1099 1.393 . S
C1103 C1102 1.391 . S
H1104 C1112 0.950 . S
H1105 C1117 0.950 . S
H1106 C1114 0.950 . S
H1107 C1116 0.950 . S
H1108 C1118 0.950 . S
H1109 C1120 0.950 . S
H1110 C1122 0.950 . S
H1111 C1123 0.950 . S
C1112 H1104 0.950 . S
C1112 C1113 1.386 . S
C1112 C1114 1.391 . S
C1113 C1112 1.386 . S
C1113 C1117 1.393 . S
C1114 H1106 0.950 . S
C1114 C1112 1.391 . S
C1114 C1115 1.400 . S
C1115 C1114 1.400 . S
C1115 C1116 1.398 . S
C1115 C1121 1.491 . S
C1116 H1107 0.950 . S
C1116 C1115 1.398 . S
C1116 C1117 1.391 . S
C1117 H1105 0.950 . S
C1117 C1113 1.393 . S
C1117 C1116 1.391 . S
C1118 H1108 0.950 . S
C1118 C1119 1.386 . S
C1118 C1120 1.391 . S
C1119 C1118 1.386 . S
C1119 C1123 1.393 . S
C1120 H1109 0.950 . S
C1120 C1118 1.391 . S
C1120 C1121 1.400 . S
C1121 C1115 1.491 . S
C1121 C1120 1.400 . S
C1121 C1122 1.398 . S
C1122 H1110 0.950 . S
C1122 C1121 1.398 . S
C1122 C1123 1.391 . S
C1123 H1111 0.950 . S
C1123 C1119 1.393 . S
C1123 C1122 1.391 . S
H1124 C1132 0.950 . S
H1125 C1137 0.950 . S
H1126 C1134 0.950 . S
H1127 C1136 0.950 . S
H1128 C1138 0.950 . S
H1129 C1140 0.950 . S
H1130 C1142 0.950 . S
H1131 C1143 0.950 . S
C1132 H1124 0.950 . S
C1132 C1133 1.386 . S
C1132 C1134 1.391 . S
C1133 C1132 1.386 . S
C1133 C1137 1.393 . S
C1134 H1126 0.950 . S
C1134 C1132 1.391 . S
C1134 C1135 1.400 . S
C1135 C1134 1.400 . S
C1135 C1136 1.398 . S
C1135 C1141 1.491 . S
C1136 H1127 0.950 . S
C1136 C1135 1.398 . S
C1136 C1137 1.391 . S
C1137 H1125 0.950 . S
C1137 C1133 1.393 . S
C1137 C1136 1.391 . S
C1138 H1128 0.950 . S
C1138 C1139 1.386 . S
C1138 C1140 1.391 . S
C1139 C1138 1.386 . S
C1139 C1143 1.393 . S
C1140 H1129 0.950 . S
C1140 C1138 1.391 . S
C1140 C1141 1.400 . S
C1141 C1135 1.491 . S
C1141 C1140 1.400 . S
C1141 C1142 1.398 . S
C1142 H1130 0.950 . S
C1142 C1141 1.398 . S
C1142 C1143 1.391 . S
C1143 H1131 0.950 . S
C1143 C1139 1.393 . S
C1143 C1142 1.391 . S
H1144 C1152 0.950 . S
H1145 C1157 0.950 . S
H1146 C1154 0.950 . S
H1147 C1156 0.950 . S
H1148 C1158 0.950 . S
H1149 C1160 0.950 . S
H1150 C1162 0.950 . S
H1151 C1163 0.950 . S
C1152 H1144 0.950 . S
C1152 C1153 1.386 . S
C1152 C1154 1.391 . S
C1153 C1152 1.386 . S
C1153 C1157 1.393 . S
C1154 H1146 0.950 . S
C1154 C1152 1.391 . S
C1154 C1155 1.400 . S
C1155 C1154 1.400 . S
C1155 C1156 1.398 . S
C1155 C1161 1.491 . S
C1156 H1147 0.950 . S
C1156 C1155 1.398 . S
C1156 C1157 1.391 . S
C1157 H1145 0.950 . S
C1157 C1153 1.393 . S
C1157 C1156 1.391 . S
C1158 H1148 0.950 . S
C1158 C1159 1.386 . S
C1158 C1160 1.391 . S
C1159 C1158 1.386 . S
C1159 C1163 1.393 . S
C1160 H1149 0.950 . S
C1160 C1158 1.391 . S
C1160 C1161 1.400 . S
C1161 C1155 1.491 . S
C1161 C1160 1.400 . S
C1161 C1162 1.398 . S
C1162 H1150 0.950 . S
C1162 C1161 1.398 . S
C1162 C1163 1.391 . S
C1163 H1151 0.950 . S
C1163 C1159 1.393 . S
C1163 C1162 1.391 . S
H1164 C1172 0.950 . S
H1165 C1177 0.950 . S
H1166 C1174 0.950 . S
H1167 C1176 0.950 . S
H1168 C1178 0.950 . S
H1169 C1180 0.950 . S
H1170 C1182 0.950 . S
H1171 C1183 0.950 . S
C1172 H1164 0.950 . S
C1172 C1173 1.386 . S
C1172 C1174 1.391 . S
C1173 C1172 1.386 . S
C1173 C1177 1.393 . S
C1174 H1166 0.950 . S
C1174 C1172 1.391 . S
C1174 C1175 1.400 . S
C1175 C1174 1.400 . S
C1175 C1176 1.398 . S
C1175 C1181 1.491 . S
C1176 H1167 0.950 . S
C1176 C1175 1.398 . S
C1176 C1177 1.391 . S
C1177 H1165 0.950 . S
C1177 C1173 1.393 . S
C1177 C1176 1.391 . S
C1178 H1168 0.950 . S
C1178 C1179 1.386 . S
C1178 C1180 1.391 . S
C1179 C1178 1.386 . S
C1179 C1183 1.393 . S
C1180 H1169 0.950 . S
C1180 C1178 1.391 . S
C1180 C1181 1.400 . S
C1181 C1175 1.491 . S
C1181 C1180 1.400 . S
C1181 C1182 1.398 . S
C1182 H1170 0.950 . S
C1182 C1181 1.398 . S
C1182 C1183 1.391 . S
C1183 H1171 0.950 . S
C1183 C1179 1.393 . S
C1183 C1182 1.391 . S
H1184 C1192 0.950 . S
H1185 C1197 0.950 . S
H1186 C1194 0.950 . S
H1187 C1196 0.950 . S
H1188 C1198 0.950 . S
H1189 C1200 0.950 . S
H1190 C1202 0.950 . S
H1191 C1203 0.950 . S
C1192 H1184 0.950 . S
C1192 C1193 1.386 . S
C1192 C1194 1.391 . S
C1193 C1192 1.386 . S
C1193 C1197 1.393 . S
C1194 H1186 0.950 . S
C1194 C1192 1.391 . S
C1194 C1195 1.400 . S
C1195 C1194 1.400 . S
C1195 C1196 1.398 . S
C1195 C1201 1.491 . S
C1196 H1187 0.950 . S
C1196 C1195 1.398 . S
C1196 C1197 1.391 . S
C1197 H1185 0.950 . S
C1197 C1193 1.393 . S
C1197 C1196 1.391 . S
C1198 H1188 0.950 . S
C1198 C1199 1.386 . S
C1198 C1200 1.391 . S
C1199 C1198 1.386 . S
C1199 C1203 1.393 . S
C1200 H1189 0.950 . S
C1200 C1198 1.391 . S
C1200 C1201 1.400 . S
C1201 C1195 1.491 . S
C1201 C1200 1.400 . S
C1201 C1202 1.398 . S
C1202 H1190 0.950 . S
C1202 C1201 1.398 . S
C1202 C1203 1.391 . S
C1203 H1191 0.950 . S
C1203 C1199 1.393 . S
C1203 C1202 1.391 . S
H1204 C1212 0.950 . S
H1205 C1217 0.950 . S
H1206 C1214 0.950 . S
H1207 C1216 0.950 . S
H1208 C1218 0.950 . S
H1209 C1220 0.950 . S
H1210 C1222 0.950 . S
H1211 C1223 0.950 . S
C1212 H1204 0.950 . S
C1212 C1213 1.386 . S
C1212 C1214 1.391 . S
C1213 C1212 1.386 . S
C1213 C1217 1.393 . S
C1214 H1206 0.950 . S
C1214 C1212 1.391 . S
C1214 C1215 1.400 . S
C1215 C1214 1.400 . S
C1215 C1216 1.398 . S
C1215 C1221 1.491 . S
C1216 H1207 0.950 . S
C1216 C1215 1.398 . S
C1216 C1217 1.391 . S
C1217 H1205 0.950 . S
C1217 C1213 1.393 . S
C1217 C1216 1.391 . S
C1218 H1208 0.950 . S
C1218 C1219 1.386 . S
C1218 C1220 1.391 . S
C1219 C1218 1.386 . S
C1219 C1223 1.393 . S
C1220 H1209 0.950 . S
C1220 C1218 1.391 . S
C1220 C1221 1.400 . S
C1221 C1215 1.491 . S
C1221 C1220 1.400 . S
C1221 C1222 1.398 . S
C1222 H1210 0.950 . S
C1222 C1221 1.398 . S
C1222 C1223 1.391 . S
C1223 H1211 0.950 . S
C1223 C1219 1.393 . S
C1223 C1222 1.391 . S
H1224 C1232 0.950 . S
H1225 C1237 0.950 . S
H1226 C1234 0.950 . S
H1227 C1236 0.950 . S
H1228 C1238 0.950 . S
H1229 C1240 0.950 . S
H1230 C1242 0.950 . S
H1231 C1243 0.950 . S
C1232 H1224 0.950 . S
C1232 C1233 1.386 . S
C1232 C1234 1.391 . S
C1233 C1232 1.386 . S
C1233 C1237 1.393 . S
C1234 H1226 0.950 . S
C1234 C1232 1.391 . S
C1234 C1235 1.400 . S
C1235 C1234 1.400 . S
C1235 C1236 1.398 . S
C1235 C1241 1.491 . S
C1236 H1227 0.950 . S
C1236 C1235 1.398 . S
C1236 C1237 1.391 . S
C1237 H1225 0.950 . S
C1237 C1233 1.393 . S
C1237 C1236 1.391 . S
C1238 H1228 0.950 . S
C1238 C1239 1.386 . S
C1238 C1240 1.391 . S
C1239 C1238 1.386 . S
C1239 C1243 1.393 . S
C1240 H1229 0.950 . S
C1240 C1238 1.391 . S
C1240 C1241 1.400 . S
C1241 C1235 1.491 . S
C1241 C1240 1.400 . S
C1241 C1242 1.398 . S
C1242 H1230 0.950 . S
C1242 C1241 1.398 . S
C1242 C1243 1.391 . S
C1243 H1231 0.950 . S
C1243 C1239 1.393 . S
C1243 C1242 1.391 . S
H1244 C1252 0.950 . S
H1245 C1257 0.950 . S
H1246 C1254 0.950 . S
H1247 C1256 0.950 . S
H1248 C1258 0.950 . S
H1249 C1260 0.950 . S
H1250 C1262 0.950 . S
H1251 C1263 0.950 . S
C1252 H1244 0.950 . S
C1252 C1253 1.386 . S
C1252 C1254 1.391 . S
C1253 C1252 1.386 . S
C1253 C1257 1.393 . S
C1254 H1246 0.950 . S
C1254 C1252 1.391 . S
C1254 C1255 1.400 . S
C1255 C1254 1.400 . S
C1255 C1256 1.398 . S
C1255 C1261 1.491 . S
C1256 H1247 0.950 . S
C1256 C1255 1.398 . S
C1256 C1257 1.391 . S
C1257 H1245 0.950 . S
C1257 C1253 1.393 . S
C1257 C1256 1.391 . S
C1258 H1248 0.950 . S
C1258 C1259 1.386 . S
C1258 C1260 1.391 . S
C1259 C1258 1.386 . S
C1259 C1263 1.393 . S
C1260 H1249 0.950 . S
C1260 C1258 1.391 . S
C1260 C1261 1.400 . S
C1261 C1255 1.491 . S
C1261 C1260 1.400 . S
C1261 C1262 1.398 . S
C1262 H1250 0.950 . S
C1262 C1261 1.398 . S
C1262 C1263 1.391 . S
C1263 H1251 0.950 . S
C1263 C1259 1.393 . S
C1263 C1262 1.391 . S
H1264 C1272 0.950 . S
H1265 C1277 0.950 . S
H1266 C1274 0.950 . S
H1267 C1276 0.950 . S
H1268 C1278 0.950 . S
H1269 C1280 0.950 . S
H1270 C1282 0.950 . S
H1271 C1283 0.950 . S
C1272 H1264 0.950 . S
C1272 C1273 1.386 . S
C1272 C1274 1.391 . S
C1273 C1272 1.386 . S
C1273 C1277 1.393 . S
C1274 H1266 0.950 . S
C1274 C1272 1.391 . S
C1274 C1275 1.400 . S
C1275 C1274 1.400 . S
C1275 C1276 1.398 . S
C1275 C1281 1.491 . S
C1276 H1267 0.950 . S
C1276 C1275 1.398 . S
C1276 C1277 1.391 . S
C1277 H1265 0.950 . S
C1277 C1273 1.393 . S
C1277 C1276 1.391 . S
C1278 H1268 0.950 . S
C1278 C1279 1.386 . S
C1278 C1280 1.391 . S
C1279 C1278 1.386 . S
C1279 C1283 1.393 . S
C1280 H1269 0.950 . S
C1280 C1278 1.391 . S
C1280 C1281 1.400 . S
C1281 C1275 1.491 . S
C1281 C1280 1.400 . S
C1281 C1282 1.398 . S
C1282 H1270 0.950 . S
C1282 C1281 1.398 . S
C1282 C1283 1.391 . S
C1283 H1271 0.950 . S
C1283 C1279 1.393 . S
C1283 C1282 1.391 . S
H1284 C1292 0.950 . S
H1285 C1297 0.950 . S
H1286 C1294 0.950 . S
H1287 C1296 0.950 . S
H1288 C1298 0.950 . S
H1289 C1300 0.950 . S
H1290 C1302 0.950 . S
H1291 C1303 0.950 . S
C1292 H1284 0.950 . S
C1292 C1293 1.386 . S
C1292 C1294 1.391 . S
C1293 C1292 1.386 . S
C1293 C1297 1.393 . S
C1294 H1286 0.950 . S
C1294 C1292 1.391 . S
C1294 C1295 1.400 . S
C1295 C1294 1.400 . S
C1295 C1296 1.398 . S
C1295 C1301 1.491 . S
C1296 H1287 0.950 . S
C1296 C1295 1.398 . S
C1296 C1297 1.391 . S
C1297 H1285 0.950 . S
C1297 C1293 1.393 . S
C1297 C1296 1.391 . S
C1298 H1288 0.950 . S
C1298 C1299 1.386 . S
C1298 C1300 1.391 . S
C1299 C1298 1.386 . S
C1299 C1303 1.393 . S
C1300 H1289 0.950 . S
C1300 C1298 1.391 . S
C1300 C1301 1.400 . S
C1301 C1295 1.491 . S
C1301 C1300 1.400 . S
C1301 C1302 1.398 . S
C1302 H1290 0.950 . S
C1302 C1301 1.398 . S
C1302 C1303 1.391 . S
C1303 H1291 0.950 . S
C1303 C1299 1.393 . S
C1303 C1302 1.391 . S
H1304 C1312 0.950 . S
H1305 C1317 0.950 . S
H1306 C1314 0.950 . S
H1307 C1316 0.950 . S
H1308 C1318 0.950 . S
H1309 C1320 0.950 . S
H1310 C1322 0.950 . S
H1311 C1323 0.950 . S
C1312 H1304 0.950 . S
C1312 C1313 1.386 . S
C1312 C1314 1.391 . S
C1313 C1312 1.386 . S
C1313 C1317 1.393 . S
C1314 H1306 0.950 . S
C1314 C1312 1.391 . S
C1314 C1315 1.400 . S
C1315 C1314 1.400 . S
C1315 C1316 1.398 . S
C1315 C1321 1.491 . S
C1316 H1307 0.950 . S
C1316 C1315 1.398 . S
C1316 C1317 1.391 . S
C1317 H1305 0.950 . S
C1317 C1313 1.393 . S
C1317 C1316 1.391 . S
C1318 H1308 0.950 . S
C1318 C1319 1.386 . S
C1318 C1320 1.391 . S
C1319 C1318 1.386 . S
C1319 C1323 1.393 . S
C1320 H1309 0.950 . S
C1320 C1318 1.391 . S
C1320 C1321 1.400 . S
C1321 C1315 1.491 . S
C1321 C1320 1.400 . S
C1321 C1322 1.398 . S
C1322 H1310 0.950 . S
C1322 C1321 1.398 . S
C1322 C1323 1.391 . S
C1323 H1311 0.950 . S
C1323 C1319 1.393 . S
C1323 C1322 1.391 . S
H1324 C1332 0.950 . S
H1325 C1337 0.950 . S
H1326 C1334 0.950 . S
H1327 C1336 0.950 . S
H1328 C1338 0.950 . S
H1329 C1340 0.950 . S
H1330 C1342 0.950 . S
H1331 C1343 0.950 . S
C1332 H1324 0.950 . S
C1332 C1333 1.386 . S
C1332 C1334 1.391 . S
C1333 C1332 1.386 . S
C1333 C1337 1.393 . S
C1334 H1326 0.950 . S
C1334 C1332 1.391 . S
C1334 C1335 1.400 . S
C1335 C1334 1.400 . S
C1335 C1336 1.398 . S
C1335 C1341 1.491 . S
C1336 H1327 0.950 . S
C1336 C1335 1.398 . S
C1336 C1337 1.391 . S
C1337 H1325 0.950 . S
C1337 C1333 1.393 . S
C1337 C1336 1.391 . S
C1338 H1328 0.950 . S
C1338 C1339 1.386 . S
C1338 C1340 1.391 . S
C1339 C1338 1.386 . S
C1339 C1343 1.393 . S
C1340 H1329 0.950 . S
C1340 C1338 1.391 . S
C1340 C1341 1.400 . S
C1341 C1335 1.491 . S
C1341 C1340 1.400 . S
C1341 C1342 1.398 . S
C1342 H1330 0.950 . S
C1342 C1341 1.398 . S
C1342 C1343 1.391 . S
C1343 H1331 0.950 . S
C1343 C1339 1.393 . S
C1343 C1342 1.391 . S
H1344 C1352 0.950 . S
H1345 C1357 0.950 . S
H1346 C1354 0.950 . S
H1347 C1356 0.950 . S
H1348 C1358 0.950 . S
H1349 C1360 0.950 . S
H1350 C1362 0.950 . S
H1351 C1363 0.950 . S
C1352 H1344 0.950 . S
C1352 C1353 1.386 . S
C1352 C1354 1.391 . S
C1353 C1352 1.386 . S
C1353 C1357 1.393 . S
C1354 H1346 0.950 . S
C1354 C1352 1.391 . S
C1354 C1355 1.400 . S
C1355 C1354 1.400 . S
C1355 C1356 1.398 . S
C1355 C1361 1.491 1_455 S
C1356 H1347 0.950 . S
C1356 C1355 1.398 . S
C1356 C1357 1.391 . S
C1357 H1345 0.950 . S
C1357 C1353 1.393 . S
C1357 C1356 1.391 . S
C1358 H1348 0.950 . S
C1358 C1359 1.386 . S
C1358 C1360 1.391 . S
C1359 C1358 1.386 . S
C1359 C1363 1.393 . S
C1360 H1349 0.950 . S
C1360 C1358 1.391 . S
C1360 C1361 1.400 . S
C1361 C1355 1.491 1_655 S
C1361 C1360 1.400 . S
C1361 C1362 1.398 . S
C1362 H1350 0.950 . S
C1362 C1361 1.398 . S
C1362 C1363 1.391 . S
C1363 H1351 0.950 . S
C1363 C1359 1.393 . S
C1363 C1362 1.391 . S
H1364 C1372 0.950 . S
H1365 C1377 0.950 . S
H1366 C1374 0.950 . S
H1367 C1376 0.950 . S
H1368 C1378 0.950 . S
H1369 C1380 0.950 . S
H1370 C1382 0.950 . S
H1371 C1383 0.950 . S
C1372 H1364 0.950 . S
C1372 C1373 1.386 . S
C1372 C1374 1.391 . S
C1373 C1372 1.386 . S
C1373 C1377 1.393 . S
C1374 H1366 0.950 . S
C1374 C1372 1.391 . S
C1374 C1375 1.400 . S
C1375 C1374 1.400 . S
C1375 C1376 1.398 . S
C1375 C1381 1.491 1_545 S
C1376 H1367 0.950 . S
C1376 C1375 1.398 . S
C1376 C1377 1.391 . S
C1377 H1365 0.950 . S
C1377 C1373 1.393 . S
C1377 C1376 1.391 . S
C1378 H1368 0.950 . S
C1378 C1379 1.386 . S
C1378 C1380 1.391 . S
C1379 C1378 1.386 . S
C1379 C1383 1.393 . S
C1380 H1369 0.950 . S
C1380 C1378 1.391 . S
C1380 C1381 1.400 . S
C1381 C1375 1.491 1_565 S
C1381 C1380 1.400 . S
C1381 C1382 1.398 . S
C1382 H1370 0.950 . S
C1382 C1381 1.398 . S
C1382 C1383 1.391 . S
C1383 H1371 0.950 . S
C1383 C1379 1.393 . S
C1383 C1382 1.391 . S
H1384 C1392 0.950 . S
H1385 C1397 0.950 . S
H1386 C1394 0.950 . S
H1387 C1396 0.950 . S
H1388 C1398 0.950 . S
H1389 C1400 0.950 . S
H1390 C1402 0.950 . S
H1391 C1403 0.950 . S
C1392 H1384 0.950 . S
C1392 C1393 1.386 . S
C1392 C1394 1.391 . S
C1393 C1392 1.386 . S
C1393 C1397 1.393 . S
C1394 H1386 0.950 . S
C1394 C1392 1.391 . S
C1394 C1395 1.400 . S
C1395 C1394 1.400 . S
C1395 C1396 1.398 . S
C1395 C1401 1.491 1_655 S
C1396 H1387 0.950 . S
C1396 C1395 1.398 . S
C1396 C1397 1.391 . S
C1397 H1385 0.950 . S
C1397 C1393 1.393 . S
C1397 C1396 1.391 . S
C1398 H1388 0.950 . S
C1398 C1399 1.386 . S
C1398 C1400 1.391 . S
C1399 C1398 1.386 . S
C1399 C1403 1.393 . S
C1400 H1389 0.950 . S
C1400 C1398 1.391 . S
C1400 C1401 1.400 . S
C1401 C1395 1.491 1_455 S
C1401 C1400 1.400 . S
C1401 C1402 1.398 . S
C1402 H1390 0.950 . S
C1402 C1401 1.398 . S
C1402 C1403 1.391 . S
C1403 H1391 0.950 . S
C1403 C1399 1.393 . S
C1403 C1402 1.391 . S
H1404 C1412 0.950 . S
H1405 C1417 0.950 . S
H1406 C1414 0.950 . S
H1407 C1416 0.950 . S
H1408 C1418 0.950 . S
H1409 C1420 0.950 . S
H1410 C1422 0.950 . S
H1411 C1423 0.950 . S
C1412 H1404 0.950 . S
C1412 C1413 1.386 . S
C1412 C1414 1.391 . S
C1413 C1412 1.386 . S
C1413 C1417 1.393 . S
C1414 H1406 0.950 . S
C1414 C1412 1.391 . S
C1414 C1415 1.400 . S
C1415 C1414 1.400 . S
C1415 C1416 1.398 . S
C1415 C1421 1.491 1_545 S
C1416 H1407 0.950 . S
C1416 C1415 1.398 . S
C1416 C1417 1.391 . S
C1417 H1405 0.950 . S
C1417 C1413 1.393 . S
C1417 C1416 1.391 . S
C1418 H1408 0.950 . S
C1418 C1419 1.386 . S
C1418 C1420 1.391 . S
C1419 C1418 1.386 . S
C1419 C1423 1.393 . S
C1420 H1409 0.950 . S
C1420 C1418 1.391 . S
C1420 C1421 1.400 . S
C1421 C1415 1.491 1_565 S
C1421 C1420 1.400 . S
C1421 C1422 1.398 . S
C1422 H1410 0.950 . S
C1422 C1421 1.398 . S
C1422 C1423 1.391 . S
C1423 H1411 0.950 . S
C1423 C1419 1.393 . S
C1423 C1422 1.391 . S
H1424 C1432 0.950 . S
H1425 C1437 0.950 . S
H1426 C1434 0.950 . S
H1427 C1436 0.950 . S
H1428 C1438 0.950 . S
H1429 C1440 0.950 . S
H1430 C1442 0.950 . S
H1431 C1443 0.950 . S
C1432 H1424 0.950 . S
C1432 C1433 1.386 . S
C1432 C1434 1.391 . S
C1433 C1432 1.386 . S
C1433 C1437 1.393 . S
C1434 H1426 0.950 . S
C1434 C1432 1.391 . S
C1434 C1435 1.400 . S
C1435 C1434 1.400 . S
C1435 C1436 1.398 . S
C1435 C1441 1.491 1_565 S
C1436 H1427 0.950 . S
C1436 C1435 1.398 . S
C1436 C1437 1.391 . S
C1437 H1425 0.950 . S
C1437 C1433 1.393 . S
C1437 C1436 1.391 . S
C1438 H1428 0.950 . S
C1438 C1439 1.386 . S
C1438 C1440 1.391 . S
C1439 C1438 1.386 . S
C1439 C1443 1.393 . S
C1440 H1429 0.950 . S
C1440 C1438 1.391 . S
C1440 C1441 1.400 . S
C1441 C1435 1.491 1_545 S
C1441 C1440 1.400 . S
C1441 C1442 1.398 . S
C1442 H1430 0.950 . S
C1442 C1441 1.398 . S
C1442 C1443 1.391 . S
C1443 H1431 0.950 . S
C1443 C1439 1.393 . S
C1443 C1442 1.391 . S
H1444 C1452 0.950 . S
H1445 C1457 0.950 . S
H1446 C1454 0.950 . S
H1447 C1456 0.950 . S
H1448 C1458 0.950 . S
H1449 C1460 0.950 . S
H1450 C1462 0.950 . S
H1451 C1463 0.950 . S
C1452 H1444 0.950 . S
C1452 C1453 1.386 . S
C1452 C1454 1.391 . S
C1453 C1452 1.386 . S
C1453 C1457 1.393 . S
C1454 H1446 0.950 . S
C1454 C1452 1.391 . S
C1454 C1455 1.400 . S
C1455 C1454 1.400 . S
C1455 C1456 1.398 . S
C1455 C1461 1.491 1_655 S
C1456 H1447 0.950 . S
C1456 C1455 1.398 . S
C1456 C1457 1.391 . S
C1457 H1445 0.950 . S
C1457 C1453 1.393 . S
C1457 C1456 1.391 . S
C1458 H1448 0.950 . S
C1458 C1459 1.386 . S
C1458 C1460 1.391 . S
C1459 C1458 1.386 . S
C1459 C1463 1.393 . S
C1460 H1449 0.950 . S
C1460 C1458 1.391 . S
C1460 C1461 1.400 . S
C1461 C1455 1.491 1_455 S
C1461 C1460 1.400 . S
C1461 C1462 1.398 . S
C1462 H1450 0.950 . S
C1462 C1461 1.398 . S
C1462 C1463 1.391 . S
C1463 H1451 0.950 . S
C1463 C1459 1.393 . S
C1463 C1462 1.391 . S
H1464 C1472 0.950 . S
H1465 C1477 0.950 . S
H1466 C1474 0.950 . S
H1467 C1476 0.950 . S
H1468 C1478 0.950 . S
H1469 C1480 0.950 . S
H1470 C1482 0.950 . S
H1471 C1483 0.950 . S
C1472 H1464 0.950 . S
C1472 C1473 1.386 . S
C1472 C1474 1.391 . S
C1473 C1472 1.386 . S
C1473 C1477 1.393 . S
C1474 H1466 0.950 . S
C1474 C1472 1.391 . S
C1474 C1475 1.400 . S
C1475 C1474 1.400 . S
C1475 C1476 1.398 . S
C1475 C1481 1.491 1_565 S
C1476 H1467 0.950 . S
C1476 C1475 1.398 . S
C1476 C1477 1.391 . S
C1477 H1465 0.950 . S
C1477 C1473 1.393 . S
C1477 C1476 1.391 . S
C1478 H1468 0.950 . S
C1478 C1479 1.386 . S
C1478 C1480 1.391 . S
C1479 C1478 1.386 . S
C1479 C1483 1.393 . S
C1480 H1469 0.950 . S
C1480 C1478 1.391 . S
C1480 C1481 1.400 . S
C1481 C1475 1.491 1_545 S
C1481 C1480 1.400 . S
C1481 C1482 1.398 . S
C1482 H1470 0.950 . S
C1482 C1481 1.398 . S
C1482 C1483 1.391 . S
C1483 H1471 0.950 . S
C1483 C1479 1.393 . S
C1483 C1482 1.391 . S
H1484 C1492 0.950 . S
H1485 C1497 0.950 . S
H1486 C1494 0.950 . S
H1487 C1496 0.950 . S
H1488 C1498 0.950 . S
H1489 C1500 0.950 . S
H1490 C1502 0.950 . S
H1491 C1503 0.950 . S
C1492 H1484 0.950 . S
C1492 C1493 1.386 . S
C1492 C1494 1.391 . S
C1493 C1492 1.386 . S
C1493 C1497 1.393 . S
C1494 H1486 0.950 . S
C1494 C1492 1.391 . S
C1494 C1495 1.400 . S
C1495 C1494 1.400 . S
C1495 C1496 1.398 . S
C1495 C1501 1.491 1_655 S
C1496 H1487 0.950 . S
C1496 C1495 1.398 . S
C1496 C1497 1.391 . S
C1497 H1485 0.950 . S
C1497 C1493 1.393 . S
C1497 C1496 1.391 . S
C1498 H1488 0.950 . S
C1498 C1499 1.386 . S
C1498 C1500 1.391 . S
C1499 C1498 1.386 . S
C1499 C1503 1.393 . S
C1500 H1489 0.950 . S
C1500 C1498 1.391 . S
C1500 C1501 1.400 . S
C1501 C1495 1.491 1_455 S
C1501 C1500 1.400 . S
C1501 C1502 1.398 . S
C1502 H1490 0.950 . S
C1502 C1501 1.398 . S
C1502 C1503 1.391 . S
C1503 H1491 0.950 . S
C1503 C1499 1.393 . S
C1503 C1502 1.391 . S
H1504 C1512 0.950 . S
H1505 C1517 0.950 . S
H1506 C1514 0.950 . S
H1507 C1516 0.950 . S
H1508 C1518 0.950 . S
H1509 C1520 0.950 . S
H1510 C1522 0.950 . S
H1511 C1523 0.950 . S
C1512 H1504 0.950 . S
C1512 C1513 1.386 . S
C1512 C1514 1.391 . S
C1513 C1512 1.386 . S
C1513 C1517 1.393 . S
C1514 H1506 0.950 . S
C1514 C1512 1.391 . S
C1514 C1515 1.400 . S
C1515 C1514 1.400 . S
C1515 C1516 1.398 . S
C1515 C1521 1.491 1_556 S
C1516 H1507 0.950 . S
C1516 C1515 1.398 . S
C1516 C1517 1.391 . S
C1517 H1505 0.950 . S
C1517 C1513 1.393 . S
C1517 C1516 1.391 . S
C1518 H1508 0.950 . S
C1518 C1519 1.386 . S
C1518 C1520 1.391 . S
C1519 C1518 1.386 . S
C1519 C1523 1.393 . S
C1520 H1509 0.950 . S
C1520 C1518 1.391 . S
C1520 C1521 1.400 . S
C1521 C1515 1.491 1_554 S
C1521 C1520 1.400 . S
C1521 C1522 1.398 . S
C1522 H1510 0.950 . S
C1522 C1521 1.398 . S
C1522 C1523 1.391 . S
C1523 H1511 0.950 . S
C1523 C1519 1.393 . S
C1523 C1522 1.391 . S
H1524 C1532 0.950 . S
H1525 C1537 0.950 . S
H1526 C1534 0.950 . S
H1527 C1536 0.950 . S
H1528 C1538 0.950 . S
H1529 C1540 0.950 . S
H1530 C1542 0.950 . S
H1531 C1543 0.950 . S
C1532 H1524 0.950 . S
C1532 C1533 1.386 . S
C1532 C1534 1.391 . S
C1533 C1532 1.386 . S
C1533 C1537 1.393 . S
C1534 H1526 0.950 . S
C1534 C1532 1.391 . S
C1534 C1535 1.400 . S
C1535 C1534 1.400 . S
C1535 C1536 1.398 . S
C1535 C1541 1.491 1_556 S
C1536 H1527 0.950 . S
C1536 C1535 1.398 . S
C1536 C1537 1.391 . S
C1537 H1525 0.950 . S
C1537 C1533 1.393 . S
C1537 C1536 1.391 . S
C1538 H1528 0.950 . S
C1538 C1539 1.386 . S
C1538 C1540 1.391 . S
C1539 C1538 1.386 . S
C1539 C1543 1.393 . S
C1540 H1529 0.950 . S
C1540 C1538 1.391 . S
C1540 C1541 1.400 . S
C1541 C1535 1.491 1_554 S
C1541 C1540 1.400 . S
C1541 C1542 1.398 . S
C1542 H1530 0.950 . S
C1542 C1541 1.398 . S
C1542 C1543 1.391 . S
C1543 H1531 0.950 . S
C1543 C1539 1.393 . S
C1543 C1542 1.391 . S
H1544 C1552 0.950 . S
H1545 C1557 0.950 . S
H1546 C1554 0.950 . S
H1547 C1556 0.950 . S
H1548 C1558 0.950 . S
H1549 C1560 0.950 . S
H1550 C1562 0.950 . S
H1551 C1563 0.950 . S
C1552 H1544 0.950 . S
C1552 C1553 1.386 . S
C1552 C1554 1.391 . S
C1553 C1552 1.386 . S
C1553 C1557 1.393 . S
C1554 H1546 0.950 . S
C1554 C1552 1.391 . S
C1554 C1555 1.400 . S
C1555 C1554 1.400 . S
C1555 C1556 1.398 . S
C1555 C1561 1.491 1_556 S
C1556 H1547 0.950 . S
C1556 C1555 1.398 . S
C1556 C1557 1.391 . S
C1557 H1545 0.950 . S
C1557 C1553 1.393 . S
C1557 C1556 1.391 . S
C1558 H1548 0.950 . S
C1558 C1559 1.386 . S
C1558 C1560 1.391 . S
C1559 C1558 1.386 . S
C1559 C1563 1.393 . S
C1560 H1549 0.950 . S
C1560 C1558 1.391 . S
C1560 C1561 1.400 . S
C1561 C1555 1.491 1_554 S
C1561 C1560 1.400 . S
C1561 C1562 1.398 . S
C1562 H1550 0.950 . S
C1562 C1561 1.398 . S
C1562 C1563 1.391 . S
C1563 H1551 0.950 . S
C1563 C1559 1.393 . S
C1563 C1562 1.391 . S
H1564 C1572 0.950 . S
H1565 C1577 0.950 . S
H1566 C1574 0.950 . S
H1567 C1576 0.950 . S
H1568 C1578 0.950 . S
H1569 C1580 0.950 . S
H1570 C1582 0.950 . S
H1571 C1583 0.950 . S
C1572 H1564 0.950 . S
C1572 C1573 1.386 . S
C1572 C1574 1.391 . S
C1573 C1572 1.386 . S
C1573 C1577 1.393 . S
C1574 H1566 0.950 . S
C1574 C1572 1.391 . S
C1574 C1575 1.400 . S
C1575 C1574 1.400 . S
C1575 C1576 1.398 . S
C1575 C1581 1.491 1_556 S
C1576 H1567 0.950 . S
C1576 C1575 1.398 . S
C1576 C1577 1.391 . S
C1577 H1565 0.950 . S
C1577 C1573 1.393 . S
C1577 C1576 1.391 . S
C1578 H1568 0.950 . S
C1578 C1579 1.386 . S
C1578 C1580 1.391 . S
C1579 C1578 1.386 . S
C1579 C1583 1.393 . S
C1580 H1569 0.950 . S
C1580 C1578 1.391 . S
C1580 C1581 1.400 . S
C1581 C1575 1.491 1_554 S
C1581 C1580 1.400 . S
C1581 C1582 1.398 . S
C1582 H1570 0.950 . S
C1582 C1581 1.398 . S
C1582 C1583 1.391 . S
C1583 H1571 0.950 . S
C1583 C1579 1.393 . S
C1583 C1582 1.391 . S
H1584 C1592 0.950 . S
H1585 C1597 0.950 . S
H1586 C1594 0.950 . S
H1587 C1596 0.950 . S
H1588 C1598 0.950 . S
H1589 C1600 0.950 . S
H1590 C1602 0.950 . S
H1591 C1603 0.950 . S
C1592 H1584 0.950 . S
C1592 C1593 1.386 . S
C1592 C1594 1.391 . S
C1593 C1592 1.386 . S
C1593 C1597 1.393 . S
C1594 H1586 0.950 . S
C1594 C1592 1.391 . S
C1594 C1595 1.400 . S
C1595 C1594 1.400 . S
C1595 C1596 1.398 . S
C1595 C1601 1.491 . S
C1596 H1587 0.950 . S
C1596 C1595 1.398 . S
C1596 C1597 1.391 . S
C1597 H1585 0.950 . S
C1597 C1593 1.393 . S
C1597 C1596 1.391 . S
C1598 H1588 0.950 . S
C1598 C1599 1.386 . S
C1598 C1600 1.391 . S
C1599 C1598 1.386 . S
C1599 C1603 1.393 . S
C1600 H1589 0.950 . S
C1600 C1598 1.391 . S
C1600 C1601 1.400 . S
C1601 C1595 1.491 . S
C1601 C1600 1.400 . S
C1601 C1602 1.398 . S
C1602 H1590 0.950 . S
C1602 C1601 1.398 . S
C1602 C1603 1.391 . S
C1603 H1591 0.950 . S
C1603 C1599 1.393 . S
C1603 C1602 1.391 . S
H1604 C1612 0.950 . S
H1605 C1617 0.950 . S
H1606 C1614 0.950 . S
H1607 C1616 0.950 . S
H1608 C1618 0.950 . S
H1609 C1620 0.950 . S
H1610 C1622 0.950 . S
H1611 C1623 0.950 . S
C1612 H1604 0.950 . S
C1612 C1613 1.386 . S
C1612 C1614 1.391 . S
C1613 C1612 1.386 . S
C1613 C1617 1.393 . S
C1614 H1606 0.950 . S
C1614 C1612 1.391 . S
C1614 C1615 1.400 . S
C1615 C1614 1.400 . S
C1615 C1616 1.398 . S
C1615 C1621 1.491 . S
C1616 H1607 0.950 . S
C1616 C1615 1.398 . S
C1616 C1617 1.391 . S
C1617 H1605 0.950 . S
C1617 C1613 1.393 . S
C1617 C1616 1.391 . S
C1618 H1608 0.950 . S
C1618 C1619 1.386 . S
C1618 C1620 1.391 . S
C1619 C1618 1.386 . S
C1619 C1623 1.393 . S
C1620 H1609 0.950 . S
C1620 C1618 1.391 . S
C1620 C1621 1.400 . S
C1621 C1615 1.491 . S
C1621 C1620 1.400 . S
C1621 C1622 1.398 . S
C1622 H1610 0.950 . S
C1622 C1621 1.398 . S
C1622 C1623 1.391 . S
C1623 H1611 0.950 . S
C1623 C1619 1.393 . S
C1623 C1622 1.391 . S
H1624 C1632 0.950 . S
H1625 C1637 0.950 . S
H1626 C1634 0.950 . S
H1627 C1636 0.950 . S
H1628 C1638 0.950 . S
H1629 C1640 0.950 . S
H1630 C1642 0.950 . S
H1631 C1643 0.950 . S
C1632 H1624 0.950 . S
C1632 C1633 1.386 . S
C1632 C1634 1.391 . S
C1633 C1632 1.386 . S
C1633 C1637 1.393 . S
C1634 H1626 0.950 . S
C1634 C1632 1.391 . S
C1634 C1635 1.400 . S
C1635 C1634 1.400 . S
C1635 C1636 1.398 . S
C1635 C1641 1.491 . S
C1636 H1627 0.950 . S
C1636 C1635 1.398 . S
C1636 C1637 1.391 . S
C1637 H1625 0.950 . S
C1637 C1633 1.393 . S
C1637 C1636 1.391 . S
C1638 H1628 0.950 . S
C1638 C1639 1.386 . S
C1638 C1640 1.391 . S
C1639 C1638 1.386 . S
C1639 C1643 1.393 . S
C1640 H1629 0.950 . S
C1640 C1638 1.391 . S
C1640 C1641 1.400 . S
C1641 C1635 1.491 . S
C1641 C1640 1.400 . S
C1641 C1642 1.398 . S
C1642 H1630 0.950 . S
C1642 C1641 1.398 . S
C1642 C1643 1.391 . S
C1643 H1631 0.950 . S
C1643 C1639 1.393 . S
C1643 C1642 1.391 . S
H1644 C1652 0.950 . S
H1645 C1657 0.950 . S
H1646 C1654 0.950 . S
H1647 C1656 0.950 . S
H1648 C1658 0.950 . S
H1649 C1660 0.950 . S
H1650 C1662 0.950 . S
H1651 C1663 0.950 . S
C1652 H1644 0.950 . S
C1652 C1653 1.386 . S
C1652 C1654 1.391 . S
C1653 C1652 1.386 . S
C1653 C1657 1.393 . S
C1654 H1646 0.950 . S
C1654 C1652 1.391 . S
C1654 C1655 1.400 . S
C1655 C1654 1.400 . S
C1655 C1656 1.398 . S
C1655 C1661 1.491 . S
C1656 H1647 0.950 . S
C1656 C1655 1.398 . S
C1656 C1657 1.391 . S
C1657 H1645 0.950 . S
C1657 C1653 1.393 . S
C1657 C1656 1.391 . S
C1658 H1648 0.950 . S
C1658 C1659 1.386 . S
C1658 C1660 1.391 . S
C1659 C1658 1.386 . S
C1659 C1663 1.393 . S
C1660 H1649 0.950 . S
C1660 C1658 1.391 . S
C1660 C1661 1.400 . S
C1661 C1655 1.491 . S
C1661 C1660 1.400 . S
C1661 C1662 1.398 . S
C1662 H1650 0.950 . S
C1662 C1661 1.398 . S
C1662 C1663 1.391 . S
C1663 H1651 0.950 . S
C1663 C1659 1.393 . S
C1663 C1662 1.391 . S
H1664 C1672 0.950 . S
H1665 C1677 0.950 . S
H1666 C1674 0.950 . S
H1667 C1676 0.950 . S
H1668 C1678 0.950 . S
H1669 C1680 0.950 . S
H1670 C1682 0.950 . S
H1671 C1683 0.950 . S
C1672 H1664 0.950 . S
C1672 C1673 1.386 . S
C1672 C1674 1.391 . S
C1673 C1672 1.386 . S
C1673 C1677 1.393 . S
C1674 H1666 0.950 . S
C1674 C1672 1.391 . S
C1674 C1675 1.400 . S
C1675 C1674 1.400 . S
C1675 C1676 1.398 . S
C1675 C1681 1.491 . S
C1676 H1667 0.950 . S
C1676 C1675 1.398 . S
C1676 C1677 1.391 . S
C1677 H1665 0.950 . S
C1677 C1673 1.393 . S
C1677 C1676 1.391 . S
C1678 H1668 0.950 . S
C1678 C1679 1.386 . S
C1678 C1680 1.391 . S
C1679 C1678 1.386 . S
C1679 C1683 1.393 . S
C1680 H1669 0.950 . S
C1680 C1678 1.391 . S
C1680 C1681 1.400 . S
C1681 C1675 1.491 . S
C1681 C1680 1.400 . S
C1681 C1682 1.398 . S
C1682 H1670 0.950 . S
C1682 C1681 1.398 . S
C1682 C1683 1.391 . S
C1683 H1671 0.950 . S
C1683 C1679 1.393 . S
C1683 C1682 1.391 . S
H1684 C1692 0.950 . S
H1685 C1697 0.950 . S
H1686 C1694 0.950 . S
H1687 C1696 0.950 . S
H1688 C1698 0.950 . S
H1689 C1700 0.950 . S
H1690 C1702 0.950 . S
H1691 C1703 0.950 . S
C1692 H1684 0.950 . S
C1692 C1693 1.386 . S
C1692 C1694 1.391 . S
C1693 C1692 1.386 . S
C1693 C1697 1.393 . S
C1694 H1686 0.950 . S
C1694 C1692 1.391 . S
C1694 C1695 1.400 . S
C1695 C1694 1.400 . S
C1695 C1696 1.398 . S
C1695 C1701 1.491 . S
C1696 H1687 0.950 . S
C1696 C1695 1.398 . S
C1696 C1697 1.391 . S
C1697 H1685 0.950 . S
C1697 C1693 1.393 . S
C1697 C1696 1.391 . S
C1698 H1688 0.950 . S
C1698 C1699 1.386 . S
C1698 C1700 1.391 . S
C1699 C1698 1.386 . S
C1699 C1703 1.393 . S
C1700 H1689 0.950 . S
C1700 C1698 1.391 . S
C1700 C1701 1.400 . S
C1701 C1695 1.491 . S
C1701 C1700 1.400 . S
C1701 C1702 1.398 . S
C1702 H1690 0.950 . S
C1702 C1701 1.398 . S
C1702 C1703 1.391 . S
C1703 H1691 0.950 . S
C1703 C1699 1.393 . S
C1703 C1702 1.391 . S
H1704 C1712 0.950 . S
H1705 C1717 0.950 . S
H1706 C1714 0.950 . S
H1707 C1716 0.950 . S
H1708 C1718 0.950 . S
H1709 C1720 0.950 . S
H1710 C1722 0.950 . S
H1711 C1723 0.950 . S
C1712 H1704 0.950 . S
C1712 C1713 1.386 . S
C1712 C1714 1.391 . S
C1713 C1712 1.386 . S
C1713 C1717 1.393 . S
C1714 H1706 0.950 . S
C1714 C1712 1.391 . S
C1714 C1715 1.400 . S
C1715 C1714 1.400 . S
C1715 C1716 1.398 . S
C1715 C1721 1.491 . S
C1716 H1707 0.950 . S
C1716 C1715 1.398 . S
C1716 C1717 1.391 . S
C1717 H1705 0.950 . S
C1717 C1713 1.393 . S
C1717 C1716 1.391 . S
C1718 H1708 0.950 . S
C1718 C1719 1.386 . S
C1718 C1720 1.391 . S
C1719 C1718 1.386 . S
C1719 C1723 1.393 . S
C1720 H1709 0.950 . S
C1720 C1718 1.391 . S
C1720 C1721 1.400 . S
C1721 C1715 1.491 . S
C1721 C1720 1.400 . S
C1721 C1722 1.398 . S
C1722 H1710 0.950 . S
C1722 C1721 1.398 . S
C1722 C1723 1.391 . S
C1723 H1711 0.950 . S
C1723 C1719 1.393 . S
C1723 C1722 1.391 . S
H1724 C1732 0.950 . S
H1725 C1737 0.950 . S
H1726 C1734 0.950 . S
H1727 C1736 0.950 . S
H1728 C1738 0.950 . S
H1729 C1740 0.950 . S
H1730 C1742 0.950 . S
H1731 C1743 0.950 . S
C1732 H1724 0.950 . S
C1732 C1733 1.386 . S
C1732 C1734 1.391 . S
C1733 C1732 1.386 . S
C1733 C1737 1.393 . S
C1734 H1726 0.950 . S
C1734 C1732 1.391 . S
C1734 C1735 1.400 . S
C1735 C1734 1.400 . S
C1735 C1736 1.398 . S
C1735 C1741 1.491 . S
C1736 H1727 0.950 . S
C1736 C1735 1.398 . S
C1736 C1737 1.391 . S
C1737 H1725 0.950 . S
C1737 C1733 1.393 . S
C1737 C1736 1.391 . S
C1738 H1728 0.950 . S
C1738 C1739 1.386 . S
C1738 C1740 1.391 . S
C1739 C1738 1.386 . S
C1739 C1743 1.393 . S
C1740 H1729 0.950 . S
C1740 C1738 1.391 . S
C1740 C1741 1.400 . S
C1741 C1735 1.491 . S
C1741 C1740 1.400 . S
C1741 C1742 1.398 . S
C1742 H1730 0.950 . S
C1742 C1741 1.398 . S
C1742 C1743 1.391 . S
C1743 H1731 0.950 . S
C1743 C1739 1.393 . S
C1743 C1742 1.391 . S
H1744 C1752 0.950 . S
H1745 C1757 0.950 . S
H1746 C1754 0.950 . S
H1747 C1756 0.950 . S
H1748 C1758 0.950 . S
H1749 C1760 0.950 . S
H1750 C1762 0.950 . S
H1751 C1763 0.950 . S
C1752 H1744 0.950 . S
C1752 C1753 1.386 . S
C1752 C1754 1.391 . S
C1753 C1752 1.386 . S
C1753 C1757 1.393 . S
C1754 H1746 0.950 . S
C1754 C1752 1.391 . S
C1754 C1755 1.400 . S
C1755 C1754 1.400 . S
C1755 C1756 1.398 . S
C1755 C1761 1.491 . S
C1756 H1747 0.950 . S
C1756 C1755 1.398 . S
C1756 C1757 1.391 . S
C1757 H1745 0.950 . S
C1757 C1753 1.393 . S
C1757 C1756 1.391 . S
C1758 H1748 0.950 . S
C1758 C1759 1.386 . S
C1758 C1760 1.391 . S
C1759 C1758 1.386 . S
C1759 C1763 1.393 . S
C1760 H1749 0.950 . S
C1760 C1758 1.391 . S
C1760 C1761 1.400 . S
C1761 C1755 1.491 . S
C1761 C1760 1.400 . S
C1761 C1762 1.398 . S
C1762 H1750 0.950 . S
C1762 C1761 1.398 . S
C1762 C1763 1.391 . S
C1763 H1751 0.950 . S
C1763 C1759 1.393 . S
C1763 C1762 1.391 . S
H1764 C1772 0.950 . S
H1765 C1777 0.950 . S
H1766 C1774 0.950 . S
H1767 C1776 0.950 . S
H1768 C1778 0.950 . S
H1769 C1780 0.950 . S
H1770 C1782 0.950 . S
H1771 C1783 0.950 . S
C1772 H1764 0.950 . S
C1772 C1773 1.386 . S
C1772 C1774 1.391 . S
C1773 C1772 1.386 . S
C1773 C1777 1.393 . S
C1774 H1766 0.950 . S
C1774 C1772 1.391 . S
C1774 C1775 1.400 . S
C1775 C1774 1.400 . S
C1775 C1776 1.398 . S
C1775 C1781 1.491 . S
C1776 H1767 0.950 . S
C1776 C1775 1.398 . S
C1776 C1777 1.391 . S
C1777 H1765 0.950 . S
C1777 C1773 1.393 . S
C1777 C1776 1.391 . S
C1778 H1768 0.950 . S
C1778 C1779 1.386 . S
C1778 C1780 1.391 . S
C1779 C1778 1.386 . S
C1779 C1783 1.393 . S
C1780 H1769 0.950 . S
C1780 C1778 1.391 . S
C1780 C1781 1.400 . S
C1781 C1775 1.491 . S
C1781 C1780 1.400 . S
C1781 C1782 1.398 . S
C1782 H1770 0.950 . S
C1782 C1781 1.398 . S
C1782 C1783 1.391 . S
C1783 H1771 0.950 . S
C1783 C1779 1.393 . S
C1783 C1782 1.391 . S
H1784 C1792 0.950 . S
H1785 C1797 0.950 . S
H1786 C1794 0.950 . S
H1787 C1796 0.950 . S
H1788 C1798 0.950 . S
H1789 C1800 0.950 . S
H1790 C1802 0.950 . S
H1791 C1803 0.950 . S
C1792 H1784 0.950 . S
C1792 C1793 1.386 . S
C1792 C1794 1.391 . S
C1793 C1792 1.386 . S
C1793 C1797 1.393 . S
C1794 H1786 0.950 . S
C1794 C1792 1.391 . S
C1794 C1795 1.400 . S
C1795 C1794 1.400 . S
C1795 C1796 1.398 . S
C1795 C1801 1.491 . S
C1796 H1787 0.950 . S
C1796 C1795 1.398 . S
C1796 C1797 1.391 . S
C1797 H1785 0.950 . S
C1797 C1793 1.393 . S
C1797 C1796 1.391 . S
C1798 H1788 0.950 . S
C1798 C1799 1.386 . S
C1798 C1800 1.391 . S
C1799 C1798 1.386 . S
C1799 C1803 1.393 . S
C1800 H1789 0.950 . S
C1800 C1798 1.391 . S
C1800 C1801 1.400 . S
C1801 C1795 1.491 . S
C1801 C1800 1.400 . S
C1801 C1802 1.398 . S
C1802 H1790 0.950 . S
C1802 C1801 1.398 . S
C1802 C1803 1.391 . S
C1803 H1791 0.950 . S
C1803 C1799 1.393 . S
C1803 C1802 1.391 . S
H1804 C1812 0.950 . S
H1805 C1817 0.950 . S
H1806 C1814 0.950 . S
H1807 C1816 0.950 . S
H1808 C1818 0.950 . S
H1809 C1820 0.950 . S
H1810 C1822 0.950 . S
H1811 C1823 0.950 . S
C1812 H1804 0.950 . S
C1812 C1813 1.386 . S
C1812 C1814 1.391 . S
C1813 C1812 1.386 . S
C1813 C1817 1.393 . S
C1814 H1806 0.950 . S
C1814 C1812 1.391 . S
C1814 C1815 1.400 . S
C1815 C1814 1.400 . S
C1815 C1816 1.398 . S
C1815 C1821 1.491 . S
C1816 H1807 0.950 . S
C1816 C1815 1.398 . S
C1816 C1817 1.391 . S
C1817 H1805 0.950 . S
C1817 C1813 1.393 . S
C1817 C1816 1.391 . S
C1818 H1808 0.950 . S
C1818 C1819 1.386 . S
C1818 C1820 1.391 . S
C1819 C1818 1.386 . S
C1819 C1823 1.393 . S
C1820 H1809 0.950 . S
C1820 C1818 1.391 . S
C1820 C1821 1.400 . S
C1821 C1815 1.491 . S
C1821 C1820 1.400 . S
C1821 C1822 1.398 . S
C1822 H1810 0.950 . S
C1822 C1821 1.398 . S
C1822 C1823 1.391 . S
C1823 H1811 0.950 . S
C1823 C1819 1.393 . S
C1823 C1822 1.391 . S
C873 C398 1.420 . S
C879 C14 1.388 . S
C893 C50 1.371 . S
C899 C290 1.415 . S
C913 C86 1.374 . S
C919 C326 1.424 . S
C933 C122 1.388 . S
C939 C362 1.420 . S
C953 C470 1.416 . S
C959 C158 1.380 . S
C973 C194 1.363 . S
C979 C506 1.421 . S
C993 C542 1.424 . S
C999 C230 1.379 . S
C1013 C434 1.424 . S
C1019 C266 1.384 . S
C1033 C182 1.421 . S
C1039 C302 1.388 . S
C1053 C218 1.418 . S
C1059 C338 1.361 . S
C1073 C374 1.372 . S
C1079 C254 1.415 . S
C1093 C146 1.424 . S
C1099 C410 1.383 . S
C1113 C110 1.415 . S
C1119 C446 1.373 . S
C1133 C482 1.382 . S
C1139 C2 1.417 . S
C1153 C518 1.384 . S
C1159 C38 1.424 . S
C1173 C554 1.371 . S
C1179 C74 1.415 . S
C1193 C590 1.388 . S
C1199 C830 1.421 . S
C1213 C722 1.422 . S
C1219 C626 1.388 . S
C1233 C662 1.367 . S
C1239 C614 1.416 . S
C1253 C698 1.378 . S
C1259 C650 1.424 . S
C1273 C686 1.421 . S
C1279 C734 1.388 . S
C1293 C770 1.373 . S
C1299 C794 1.424 . S
C1313 C578 1.422 . S
C1319 C806 1.388 . S
C1333 C758 1.424 . S
C1339 C842 1.378 . S
C1353 C3 1.506 . S
C1359 C219 1.508 . S
C1373 C39 1.506 . S
C1379 C255 1.509 . S
C1393 C75 1.512 . S
C1399 C147 1.507 . S
C1413 C183 1.507 . S
C1419 C111 1.507 . S
C1433 C363 1.506 . S
C1439 C291 1.511 . S
C1453 C327 1.510 . S
C1459 C399 1.511 . S
C1473 C435 1.507 . S
C1479 C507 1.511 . S
C1493 C543 1.511 . S
C1499 C471 1.509 . S
C1513 C615 1.507 . S
C1519 C579 1.507 . S
C1533 C651 1.507 . S
C1539 C831 1.512 . S
C1553 C687 1.508 . S
C1559 C759 1.512 . S
C1573 C723 1.506 . S
C1579 C795 1.508 . S
C1593 C4 0.995 . S
C1599 C184 1.000 . S
C1613 C40 0.995 . S
C1619 C220 1.000 . S
C1633 C76 0.996 . S
C1639 C256 0.999 . S
C1653 C148 0.989 . S
C1659 C112 0.994 . S
C1673 C292 0.996 . S
C1679 C832 0.999 . S
C1693 C328 0.990 . S
C1699 C760 1.000 . S
C1713 C796 0.994 . S
C1719 C364 1.000 . S
C1733 C400 0.991 . S
C1739 C580 0.991 . S
C1753 C724 1.000 . S
C1759 C436 0.992 . S
C1773 C616 0.998 . S
C1779 C472 0.989 . S
C1793 C508 0.998 . S
C1799 C652 0.989 . S
C1813 C688 0.992 . S
C1819 C544 0.990 . S
