# Generated by pormake.
# Topology ume, (4)-cn, num edge types: 1
# Building blocks:
#     Node 0, Type 0, BuildingBlock: QUQFOY_clean_sbu_3, # of connection points: 4
#     Node 1, Type 0, BuildingBlock: QUQFOY_clean_sbu_3, # of connection points: 4
#     Node 2, Type 0, BuildingBlock: QUQFOY_clean_sbu_3, # of connection points: 4
#     Node 3, Type 0, BuildingBlock: QUQFOY_clean_sbu_3, # of connection points: 4
#     Node 4, Type 0, BuildingBlock: QUQFOY_clean_sbu_3, # of connection points: 4
#     Node 5, Type 0, BuildingBlock: QUQFOY_clean_sbu_3, # of connection points: 4
#     Node 6, Type 0, BuildingBlock: QUQFOY_clean_sbu_3, # of connection points: 4
#     Node 7, Type 0, BuildingBlock: QUQFOY_clean_sbu_3, # of connection points: 4
#     Node 8, Type 0, BuildingBlock: QUQFOY_clean_sbu_3, # of connection points: 4
#     Node 9, Type 0, BuildingBlock: QUQFOY_clean_sbu_3, # of connection points: 4
#     Node 10, Type 0, BuildingBlock: QUQFOY_clean_sbu_3, # of connection points: 4
#     Node 11, Type 0, BuildingBlock: QUQFOY_clean_sbu_3, # of connection points: 4
#     Node 12, Type 0, BuildingBlock: QUQFOY_clean_sbu_3, # of connection points: 4
#     Node 13, Type 0, BuildingBlock: QUQFOY_clean_sbu_3, # of connection points: 4
#     Node 14, Type 0, BuildingBlock: QUQFOY_clean_sbu_3, # of connection points: 4
#     Node 15, Type 0, BuildingBlock: QUQFOY_clean_sbu_3, # of connection points: 4
#     Edge 16, Type (0, 0), BuildingBlock: XIVTED_clean_linker_0, # of connection points: 2
#     Edge 17, Type (0, 0), BuildingBlock: XIVTED_clean_linker_0, # of connection points: 2
#     Edge 18, Type (0, 0), BuildingBlock: XIVTED_clean_linker_0, # of connection points: 2
#     Edge 19, Type (0, 0), BuildingBlock: XIVTED_clean_linker_0, # of connection points: 2
#     Edge 20, Type (0, 0), BuildingBlock: XIVTED_clean_linker_0, # of connection points: 2
#     Edge 21, Type (0, 0), BuildingBlock: XIVTED_clean_linker_0, # of connection points: 2
#     Edge 22, Type (0, 0), BuildingBlock: XIVTED_clean_linker_0, # of connection points: 2
#     Edge 23, Type (0, 0), BuildingBlock: XIVTED_clean_linker_0, # of connection points: 2
#     Edge 24, Type (0, 0), BuildingBlock: XIVTED_clean_linker_0, # of connection points: 2
#     Edge 25, Type (0, 0), BuildingBlock: XIVTED_clean_linker_0, # of connection points: 2
#     Edge 26, Type (0, 0), BuildingBlock: XIVTED_clean_linker_0, # of connection points: 2
#     Edge 27, Type (0, 0), BuildingBlock: XIVTED_clean_linker_0, # of connection points: 2
#     Edge 28, Type (0, 0), BuildingBlock: XIVTED_clean_linker_0, # of connection points: 2
#     Edge 29, Type (0, 0), BuildingBlock: XIVTED_clean_linker_0, # of connection points: 2
#     Edge 30, Type (0, 0), BuildingBlock: XIVTED_clean_linker_0, # of connection points: 2
#     Edge 31, Type (0, 0), BuildingBlock: XIVTED_clean_linker_0, # of connection points: 2
#     Edge 32, Type (0, 0), BuildingBlock: XIVTED_clean_linker_0, # of connection points: 2
#     Edge 33, Type (0, 0), BuildingBlock: XIVTED_clean_linker_0, # of connection points: 2
#     Edge 34, Type (0, 0), BuildingBlock: XIVTED_clean_linker_0, # of connection points: 2
#     Edge 35, Type (0, 0), BuildingBlock: XIVTED_clean_linker_0, # of connection points: 2
#     Edge 36, Type (0, 0), BuildingBlock: XIVTED_clean_linker_0, # of connection points: 2
#     Edge 37, Type (0, 0), BuildingBlock: XIVTED_clean_linker_0, # of connection points: 2
#     Edge 38, Type (0, 0), BuildingBlock: XIVTED_clean_linker_0, # of connection points: 2
#     Edge 39, Type (0, 0), BuildingBlock: XIVTED_clean_linker_0, # of connection points: 2
#     Edge 40, Type (0, 0), BuildingBlock: XIVTED_clean_linker_0, # of connection points: 2
#     Edge 41, Type (0, 0), BuildingBlock: XIVTED_clean_linker_0, # of connection points: 2
#     Edge 42, Type (0, 0), BuildingBlock: XIVTED_clean_linker_0, # of connection points: 2
#     Edge 43, Type (0, 0), BuildingBlock: XIVTED_clean_linker_0, # of connection points: 2
#     Edge 44, Type (0, 0), BuildingBlock: XIVTED_clean_linker_0, # of connection points: 2
#     Edge 45, Type (0, 0), BuildingBlock: XIVTED_clean_linker_0, # of connection points: 2
#     Edge 46, Type (0, 0), BuildingBlock: XIVTED_clean_linker_0, # of connection points: 2
#     Edge 47, Type (0, 0), BuildingBlock: XIVTED_clean_linker_0, # of connection points: 2
# Relax obj value: 0.095
# Max RMSD: 0.142
# Mean RMSD: 0.141
data_MOF--net-ume--node1-QUQFOY_clean_sbu_3--edge1-XIVTED_clean_linker_0
_symmetry_space_group_name_H-M    P1
_symmetry_Int_Tables_number       1
_symmetry_cell_setting            triclinic
loop_
_symmetry_equiv_pos_as_xyz
'x, y, z'
_cell_length_a     28.051
_cell_length_b     28.111681
_cell_length_c     115.75333
_cell_angle_alpha  90.039427
_cell_angle_beta   89.969054
_cell_angle_gamma 89.937187
loop_
_atom_site_label
_atom_site_type_symbol
_atom_site_fract_x
_atom_site_fract_y
_atom_site_fract_z
_atom_type_partial_charge
C0 C 0.25419 0.22803 0.27074 0.0
O1 O 0.28445 0.24845 0.27719 0.0
Cd2 Cd 0.31664 0.20438 0.2933 0.0
O3 O 0.24063 0.18597 0.27299 0.0
Cd4 Cd 0.24907 0.12255 0.28718 0.0
C5 C 0.36468 0.10466 0.2806 0.0
O6 O 0.25307 0.17103 0.30489 0.0
O7 O 0.26927 0.09591 0.30626 0.0
O8 O 0.16331 0.11827 0.2854 0.0
C9 C 0.26163 0.13527 0.31127 0.0
O10 O 0.37158 0.14418 0.28573 0.0
C11 C 0.16126 0.07396 0.28342 0.0
O12 O 0.32257 0.08873 0.27923 0.0
O13 O 0.20061 0.0515 0.28314 0.0
C14 C 0.77023 0.74603 0.51871 0.0
O15 O 0.74968 0.77746 0.5248 0.0
Cd16 Cd 0.79217 0.81141 0.54094 0.0
O17 O 0.81169 0.73166 0.52139 0.0
Cd18 Cd 0.87246 0.74134 0.53625 0.0
C19 C 0.89443 0.8545 0.5285 0.0
O20 O 0.82283 0.75058 0.55373 0.0
O21 O 0.89796 0.76751 0.55497 0.0
O22 O 0.87642 0.65527 0.53612 0.0
C23 C 0.85844 0.76098 0.56003 0.0
O24 O 0.85461 0.86356 0.53332 0.0
C25 C 0.92084 0.6525 0.53421 0.0
O26 O 0.90917 0.81178 0.52763 0.0
O27 O 0.94338 0.69149 0.53322 0.0
C28 C 0.24051 0.27932 0.77035 0.0
O29 O 0.2077 0.25708 0.77566 0.0
Cd30 Cd 0.17486 0.27838 0.79435 0.0
O31 O 0.25894 0.31661 0.77466 0.0
Cd32 Cd 0.25373 0.3667 0.79181 0.0
C33 C 0.1317 0.39151 0.79122 0.0
O34 O 0.24008 0.30299 0.80608 0.0
O35 O 0.29926 0.34959 0.80919 0.0
O36 O 0.32381 0.39339 0.78131 0.0
C37 C 0.27428 0.31496 0.81257 0.0
O38 O 0.12308 0.34722 0.79219 0.0
C39 C 0.32987 0.43069 0.78735 0.0
O40 O 0.17455 0.40688 0.79101 0.0
O41 O 0.29854 0.43997 0.79499 0.0
C42 C 0.7287 0.72956 0.02319 0.0
O43 O 0.74708 0.70305 0.03086 0.0
Cd44 Cd 0.70494 0.69118 0.04896 0.0
O45 O 0.6883 0.74873 0.02485 0.0
Cd46 Cd 0.62443 0.7559 0.03883 0.0
C47 C 0.60232 0.638 0.03945 0.0
O48 O 0.67328 0.76486 0.05641 0.0
O49 O 0.59714 0.7551 0.05845 0.0
O50 O 0.62233 0.83839 0.03279 0.0
C51 C 0.6372 0.76367 0.06305 0.0
O52 O 0.64006 0.63544 0.04553 0.0
C53 C 0.57789 0.83994 0.03081 0.0
O54 O 0.5897 0.67707 0.03477 0.0
O55 O 0.55461 0.80167 0.03234 0.0
C56 C 0.25511 0.27498 0.94075 0.0
O57 O 0.28591 0.24879 0.93584 0.0
Cd58 Cd 0.32017 0.27117 0.91754 0.0
O59 O 0.24037 0.31254 0.93582 0.0
Cd60 Cd 0.25017 0.35448 0.91748 0.0
C61 C 0.36482 0.38288 0.9227 0.0
O62 O 0.25875 0.28838 0.90363 0.0
O63 O 0.28143 0.35847 0.89815 0.0
O64 O 0.16399 0.35997 0.91606 0.0
C65 C 0.27304 0.31546 0.89558 0.0
O66 O 0.37352 0.33954 0.92023 0.0
C67 C 0.16196 0.40503 0.91618 0.0
O68 O 0.32196 0.39779 0.92331 0.0
O69 O 0.2014 0.42716 0.91672 0.0
C70 C 0.72823 0.74886 0.18993 0.0
O71 O 0.74902 0.78094 0.18411 0.0
Cd72 Cd 0.7063 0.81804 0.1684 0.0
O73 O 0.68648 0.73564 0.1872 0.0
Cd74 Cd 0.62477 0.7479 0.17271 0.0
C75 C 0.60468 0.86033 0.18146 0.0
O76 O 0.67361 0.75975 0.15522 0.0
O77 O 0.59845 0.7771 0.15432 0.0
O78 O 0.62125 0.66193 0.1722 0.0
C79 C 0.63788 0.77181 0.14913 0.0
O80 O 0.64445 0.86947 0.17663 0.0
C81 C 0.57704 0.65863 0.17433 0.0
O82 O 0.58943 0.81772 0.18203 0.0
O83 O 0.55421 0.69735 0.17565 0.0
C84 C 0.23993 0.23673 0.43803 0.0
O85 O 0.20859 0.25631 0.43173 0.0
Cd86 Cd 0.17776 0.21141 0.41554 0.0
O87 O 0.25463 0.19514 0.43567 0.0
Cd88 Cd 0.24651 0.13179 0.42152 0.0
C89 C 0.13128 0.11121 0.42796 0.0
O90 O 0.24177 0.17961 0.40368 0.0
O91 O 0.22694 0.10413 0.40254 0.0
O92 O 0.33239 0.12676 0.42316 0.0
C93 C 0.23423 0.14325 0.39741 0.0
O94 O 0.12313 0.15038 0.42281 0.0
C95 C 0.3339 0.08269 0.42545 0.0
O96 O 0.17388 0.09678 0.42943 0.0
O97 O 0.29431 0.06085 0.42592 0.0
C98 C 0.76395 0.73727 0.68738 0.0
O99 O 0.74424 0.70762 0.68064 0.0
Cd100 Cd 0.78741 0.68261 0.6636 0.0
O101 O 0.80497 0.75366 0.68503 0.0
Cd102 Cd 0.86747 0.75126 0.67047 0.0
C103 C 0.88932 0.6347 0.67504 0.0
O104 O 0.81837 0.74973 0.65276 0.0
O105 O 0.89429 0.73689 0.65118 0.0
O106 O 0.87091 0.83665 0.67328 0.0
C107 C 0.85457 0.74415 0.64628 0.0
O108 O 0.84973 0.6277 0.66994 0.0
C109 C 0.91524 0.83852 0.67537 0.0
O110 O 0.90387 0.67681 0.67703 0.0
O111 O 0.9379 0.79934 0.67526 0.0
C112 C 0.74783 0.72904 0.77026 0.0
O113 O 0.78125 0.75144 0.77533 0.0
Cd114 Cd 0.81611 0.73387 0.79405 0.0
O115 O 0.7285 0.69287 0.7749 0.0
Cd116 Cd 0.73064 0.64378 0.79231 0.0
C117 C 0.85276 0.61709 0.79097 0.0
O118 O 0.75156 0.70696 0.80525 0.0
O119 O 0.69168 0.6663 0.81086 0.0
O120 O 0.65703 0.62212 0.78269 0.0
C121 C 0.72097 0.69927 0.813 0.0
O122 O 0.86246 0.66129 0.79176 0.0
C123 C 0.6506 0.58416 0.78844 0.0
O124 O 0.80957 0.60236 0.79106 0.0
O125 O 0.68288 0.57245 0.79563 0.0
C126 C 0.26128 0.25881 0.02352 0.0
O127 O 0.24321 0.28649 0.031 0.0
Cd128 Cd 0.28632 0.30094 0.04886 0.0
O129 O 0.302 0.24035 0.02517 0.0
Cd130 Cd 0.36724 0.23612 0.0388 0.0
C131 C 0.38794 0.35437 0.03879 0.0
O132 O 0.3195 0.22843 0.05658 0.0
O133 O 0.39568 0.23874 0.0583 0.0
O134 O 0.36975 0.15328 0.0331 0.0
C135 C 0.35591 0.23055 0.06309 0.0
O136 O 0.35042 0.35703 0.04495 0.0
C137 C 0.41403 0.15193 0.03092 0.0
O138 O 0.40076 0.31505 0.03425 0.0
O139 O 0.43714 0.19045 0.03222 0.0
C140 C 0.74721 0.75884 0.27043 0.0
O141 O 0.71504 0.74044 0.2767 0.0
Cd142 Cd 0.68468 0.78565 0.2929 0.0
O143 O 0.76324 0.79992 0.27278 0.0
Cd144 Cd 0.75621 0.86361 0.2869 0.0
C145 C 0.64157 0.88702 0.28021 0.0
O146 O 0.74867 0.81649 0.30478 0.0
O147 O 0.73516 0.89228 0.30572 0.0
O148 O 0.84243 0.86619 0.28575 0.0
C149 C 0.74087 0.85311 0.31096 0.0
O150 O 0.63238 0.84847 0.28553 0.0
C151 C 0.84531 0.91014 0.2834 0.0
O152 O 0.68457 0.90006 0.27865 0.0
O153 O 0.80633 0.93301 0.28264 0.0
C154 C 0.23111 0.2444 0.51885 0.0
O155 O 0.25274 0.21293 0.52469 0.0
Cd156 Cd 0.21087 0.17668 0.54067 0.0
O157 O 0.18938 0.25726 0.52172 0.0
Cd158 Cd 0.12916 0.24508 0.53655 0.0
C159 C 0.10916 0.1322 0.52829 0.0
O160 O 0.17918 0.23549 0.55394 0.0
O161 O 0.10438 0.21698 0.55513 0.0
O162 O 0.12417 0.33098 0.5368 0.0
C163 C 0.14378 0.22391 0.5602 0.0
O164 O 0.1493 0.12354 0.53299 0.0
C165 C 0.0798 0.33345 0.53482 0.0
O166 O 0.09367 0.17471 0.52763 0.0
O167 O 0.05762 0.29431 0.53369 0.0
C168 C 0.74841 0.76737 0.43788 0.0
O169 O 0.77985 0.74878 0.43142 0.0
Cd170 Cd 0.80925 0.79365 0.41512 0.0
O171 O 0.7323 0.80858 0.43566 0.0
Cd172 Cd 0.73823 0.8723 0.42149 0.0
C173 C 0.85351 0.89487 0.42765 0.0
O174 O 0.74386 0.82448 0.40367 0.0
O175 O 0.75663 0.90027 0.40243 0.0
O176 O 0.65223 0.87637 0.42322 0.0
C177 C 0.75072 0.86078 0.39735 0.0
O178 O 0.86226 0.8559 0.42245 0.0
C179 C 0.65039 0.9204 0.42557 0.0
O180 O 0.81071 0.90859 0.4292 0.0
O181 O 0.68981 0.94253 0.42606 0.0
C182 C 0.23212 0.25542 0.68762 0.0
O183 O 0.25193 0.28449 0.68076 0.0
Cd184 Cd 0.20945 0.30783 0.66351 0.0
O185 O 0.19134 0.23845 0.68527 0.0
Cd186 Cd 0.12963 0.23882 0.67051 0.0
C187 C 0.10682 0.35549 0.67471 0.0
O188 O 0.17963 0.23948 0.65296 0.0
O189 O 0.10373 0.25166 0.65109 0.0
O190 O 0.12655 0.15358 0.67366 0.0
C191 C 0.14377 0.24426 0.64634 0.0
O192 O 0.14649 0.36251 0.66965 0.0
C193 C 0.08207 0.15162 0.67556 0.0
O194 O 0.09245 0.31337 0.67678 0.0
O195 O 0.05924 0.19068 0.67523 0.0
C196 C 0.7471 0.71006 0.93969 0.0
O197 O 0.71837 0.73675 0.93422 0.0
Cd198 Cd 0.68983 0.71848 0.91515 0.0
O199 O 0.76369 0.67257 0.93502 0.0
Cd200 Cd 0.7618 0.63009 0.91647 0.0
C201 C 0.64327 0.6062 0.91932 0.0
O202 O 0.75938 0.70073 0.90402 0.0
O203 O 0.75397 0.63193 0.89567 0.0
O204 O 0.84709 0.62254 0.91924 0.0
C205 C 0.7567 0.67674 0.89478 0.0
O206 O 0.63672 0.65019 0.9172 0.0
C207 C 0.84895 0.5779 0.9177 0.0
O208 O 0.68535 0.58924 0.92007 0.0
O209 O 0.80968 0.55678 0.91577 0.0
C210 C 0.26591 0.24646 0.19003 0.0
O211 O 0.2455 0.21508 0.18391 0.0
Cd212 Cd 0.28904 0.17969 0.1681 0.0
O213 O 0.30765 0.26036 0.18747 0.0
Cd214 Cd 0.36982 0.2508 0.17294 0.0
C215 C 0.39084 0.13808 0.18127 0.0
O216 O 0.3216 0.23947 0.15536 0.0
O217 O 0.39695 0.22298 0.15447 0.0
O218 O 0.37239 0.33692 0.1728 0.0
C219 C 0.35757 0.22811 0.14926 0.0
O220 O 0.35132 0.12884 0.17634 0.0
C221 C 0.41663 0.34046 0.17486 0.0
O222 O 0.40573 0.18078 0.182 0.0
O223 O 0.43979 0.30186 0.17603 0.0
H224 H 0.9332 0.86829 0.28322 0.0
H225 H 0.07346 0.11512 0.28177 0.0
H226 H 0.86391 0.00493 0.28027 0.0
H227 H 0.14347 0.9783 0.28159 0.0
H228 H 0.99655 0.07522 0.28042 0.0
H229 H 0.01051 0.90762 0.28186 0.0
C230 C 0.93424 0.90659 0.28223 0.0
C231 C 0.89205 0.93345 0.28194 0.0
C232 C 0.02869 0.05387 0.28061 0.0
C233 C 0.9805 0.97871 0.28041 0.0
C234 C 0.07267 0.07663 0.2814 0.0
C235 C 0.11493 0.04994 0.28188 0.0
C236 C 0.02685 0.00399 0.28038 0.0
C237 C 0.11174 0.00021 0.28129 0.0
C238 C 0.97843 0.92901 0.28144 0.0
C239 C 0.89555 0.98289 0.28058 0.0
N240 N 0.06839 0.9788 0.28065 0.0
N241 N 0.93904 0.00397 0.27995 0.0
H242 H 0.01647 0.63442 0.53206 0.0
H243 H 0.98416 0.35117 0.53238 0.0
H244 H 0.87989 0.56448 0.53447 0.0
H245 H 0.12037 0.42157 0.53519 0.0
H246 H 0.94522 0.42904 0.5314 0.0
H247 H 0.05527 0.55647 0.53142 0.0
C248 C 0.99465 0.60268 0.53241 0.0
C249 C 0.94493 0.6059 0.53338 0.0
C250 C 0.98364 0.4274 0.53221 0.0
C251 C 0.98898 0.51672 0.53265 0.0
C252 C 0.00585 0.38299 0.53276 0.0
C253 C 0.05552 0.37993 0.53393 0.0
C254 C 0.01135 0.46897 0.53278 0.0
C255 C 0.08194 0.42228 0.53435 0.0
C256 C 0.0168 0.55821 0.53206 0.0
C257 C 0.91837 0.56363 0.53378 0.0
N258 N 0.05953 0.46503 0.53379 0.0
N259 N 0.94073 0.5208 0.53343 0.0
H260 H 0.60813 0.53015 0.80504 0.0
H261 H 0.38862 0.44048 0.76861 0.0
H262 H 0.58945 0.57969 0.77006 0.0
H263 H 0.37357 0.4813 0.80436 0.0
H264 H 0.46805 0.4775 0.76834 0.0
H265 H 0.52813 0.49511 0.80436 0.0
C266 C 0.58751 0.53291 0.79716 0.0
C267 C 0.60529 0.55778 0.78759 0.0
C268 C 0.44699 0.47864 0.77618 0.0
C269 C 0.51429 0.51783 0.78677 0.0
C270 C 0.40181 0.45774 0.77634 0.0
C271 C 0.37449 0.45821 0.7865 0.0
C272 C 0.46536 0.49863 0.78635 0.0
C273 C 0.39329 0.48065 0.79632 0.0
C274 C 0.54182 0.51341 0.79683 0.0
C275 C 0.57689 0.56084 0.77763 0.0
N276 N 0.43793 0.49934 0.79605 0.0
N277 N 0.53277 0.54081 0.77744 0.0
H278 H 0.37217 0.06585 0.02695 0.0
H279 H 0.6198 0.92592 0.02669 0.0
H280 H 0.50955 0.13475 0.02794 0.0
H281 H 0.48236 0.85721 0.02799 0.0
H282 H 0.58005 0.00238 0.02403 0.0
H283 H 0.41189 0.98943 0.02421 0.0
C284 C 0.41073 0.06498 0.02647 0.0
C285 C 0.43765 0.10667 0.02783 0.0
C286 C 0.55856 0.97056 0.02478 0.0
C287 C 0.48337 0.01915 0.02477 0.0
C288 C 0.58123 0.92684 0.02629 0.0
C289 C 0.5543 0.88519 0.02772 0.0
C290 C 0.50857 0.97274 0.02474 0.0
C291 C 0.50449 0.88848 0.02703 0.0
C292 C 0.43338 0.02128 0.02492 0.0
C293 C 0.48744 0.10344 0.02703 0.0
N294 N 0.4832 0.9316 0.02571 0.0
N295 N 0.50874 0.06032 0.02567 0.0
H296 H 0.07306 0.3662 0.91427 0.0
H297 H 0.93765 0.61535 0.92098 0.0
H298 H 0.1453 0.50089 0.91789 0.0
H299 H 0.86533 0.48249 0.91455 0.0
H300 H 0.01385 0.57354 0.92047 0.0
H301 H 0.99662 0.40776 0.91475 0.0
C302 C 0.07286 0.40457 0.91513 0.0
C303 C 0.11565 0.43015 0.91604 0.0
C304 C 0.98136 0.55347 0.91917 0.0
C305 C 0.02816 0.47793 0.91666 0.0
C306 C 0.93777 0.57731 0.9195 0.0
C307 C 0.89503 0.55236 0.9178 0.0
C308 C 0.98233 0.50423 0.91716 0.0
C309 C 0.89741 0.50311 0.9159 0.0
C310 C 0.02916 0.42827 0.91541 0.0
C311 C 0.11319 0.47978 0.91715 0.0
N312 N 0.94036 0.48065 0.91563 0.0
N313 N 0.07017 0.50204 0.91746 0.0
H314 H 0.37393 0.42775 0.17462 0.0
H315 H 0.61941 0.57125 0.17392 0.0
H316 H 0.51194 0.36033 0.17691 0.0
H317 H 0.48172 0.63906 0.17668 0.0
H318 H 0.58063 0.49374 0.17485 0.0
H319 H 0.41264 0.5054 0.17525 0.0
C320 C 0.41242 0.42928 0.17528 0.0
C321 C 0.43981 0.38749 0.17566 0.0
C322 C 0.55887 0.52553 0.1753 0.0
C323 C 0.48435 0.47636 0.17634 0.0
C324 C 0.58097 0.56984 0.17473 0.0
C325 C 0.5537 0.6117 0.17517 0.0
C326 C 0.50906 0.52294 0.17622 0.0
C327 C 0.50408 0.60769 0.17629 0.0
C328 C 0.43447 0.47366 0.17566 0.0
C329 C 0.48948 0.39163 0.17657 0.0
N330 N 0.4833 0.56405 0.17672 0.0
N331 N 0.51019 0.43532 0.17682 0.0
H332 H 0.3499 0.98728 0.42843 0.0
H333 H 0.63403 0.01555 0.42883 0.0
H334 H 0.42256 0.1223 0.42634 0.0
H335 H 0.56175 0.88048 0.42618 0.0
H336 H 0.55663 0.0552 0.43037 0.0
H337 H 0.4272 0.9474 0.43004 0.0
C338 C 0.38208 0.00853 0.42838 0.0
C339 C 0.37986 0.0581 0.42714 0.0
C340 C 0.55774 0.01686 0.42951 0.0
C341 C 0.46825 0.01284 0.42898 0.0
C342 C 0.6019 0.99422 0.42865 0.0
C343 C 0.60427 0.94472 0.42727 0.0
C344 C 0.51572 0.98975 0.42901 0.0
C345 C 0.56154 0.91879 0.42714 0.0
C346 C 0.42617 0.98578 0.42928 0.0
C347 C 0.42265 0.08395 0.42718 0.0
N348 N 0.51901 0.94164 0.42794 0.0
N349 N 0.46509 0.061 0.42803 0.0
H350 H 0.12311 0.06391 0.67765 0.0
H351 H 0.87423 0.92632 0.67719 0.0
H352 H 0.98638 0.13451 0.67792 0.0
H353 H 0.01084 0.85556 0.67804 0.0
H354 H 0.91459 0.00277 0.67901 0.0
H355 H 0.08269 0.98742 0.67935 0.0
C356 C 0.08455 0.06335 0.67814 0.0
C357 C 0.05802 0.10563 0.67753 0.0
C358 C 0.93578 0.97054 0.67887 0.0
C359 C 0.01149 0.01809 0.67944 0.0
C360 C 0.91275 0.92684 0.67782 0.0
C361 C 0.93927 0.88452 0.67735 0.0
C362 C 0.98575 0.97204 0.67939 0.0
C363 C 0.98903 0.88734 0.6783 0.0
C364 C 0.0615 0.01963 0.67912 0.0
C365 C 0.0082 0.10277 0.6783 0.0
N366 N 0.0107 0.93041 0.67918 0.0
N367 N 0.98652 0.05969 0.67912 0.0
H368 H 0.64673 0.97677 0.27089 0.0
H369 H 0.45816 0.13185 0.27935 0.0
H370 H 0.54558 0.87001 0.28171 0.0
H371 H 0.36634 0.0105 0.2743 0.0
H372 H 0.52725 0.08085 0.27647 0.0
H373 H 0.58089 0.03219 0.26782 0.0
C374 C 0.61067 0.96487 0.27257 0.0
C375 C 0.60184 0.9189 0.2768 0.0
C376 C 0.49211 0.06542 0.27564 0.0
C377 C 0.52626 0.98272 0.27362 0.0
C378 C 0.45249 0.09458 0.2774 0.0
C379 C 0.40631 0.07541 0.27716 0.0
C380 C 0.48563 0.01651 0.27367 0.0
C381 C 0.40124 0.02684 0.27459 0.0
C382 C 0.57306 0.99679 0.27094 0.0
C383 C 0.55425 0.90532 0.27863 0.0
N384 N 0.44044 -0.00107 0.27315 0.0
N385 N 0.51834 0.9372 0.27713 0.0
H386 H 0.98897 0.85139 0.5224 0.0
H387 H 0.01488 0.13475 0.522 0.0
H388 H 0.87095 0.94871 0.52644 0.0
H389 H 0.13306 0.03793 0.52644 0.0
H390 H 0.96215 0.06668 0.51897 0.0
H391 H 0.04198 0.91922 0.51926 0.0
C392 C 0.97402 0.88692 0.52245 0.0
C393 C 0.92552 0.89437 0.52487 0.0
C394 C -0.00026 0.06041 0.52047 0.0
C395 C 0.98605 0.9721 0.5213 0.0
C396 C 0.02994 0.09926 0.52216 0.0
C397 C 0.0784 0.09206 0.52466 0.0
C398 C 0.01812 0.01402 0.52124 0.0
C399 C 0.09584 0.04519 0.5247 0.0
C400 C 0.00436 0.92563 0.52069 0.0
C401 C 0.90819 0.94127 0.52478 0.0
N402 N 0.06566 0.00796 0.52313 0.0
N403 N 0.93849 0.97834 0.52313 0.0
H404 H 0.13412 0.48917 0.7897 0.0
H405 H 0.84941 0.51904 0.7905 0.0
H406 H 0.03617 0.37092 0.79114 0.0
H407 H 0.94818 0.63674 0.78978 0.0
H408 H 0.91712 0.46396 0.79001 0.0
H409 H 0.06617 0.54367 0.78903 0.0
C410 C 0.0984 0.4746 0.78984 0.0
C411 C 0.09102 0.42529 0.79051 0.0
C412 C 0.92391 0.50187 0.78993 0.0
C413 C 0.01286 0.48761 0.78975 0.0
C414 C 0.88522 0.53335 0.7902 0.0
C415 C 0.89294 0.5827 0.79022 0.0
C416 C 0.9707 0.5198 0.78968 0.0
C417 C 0.94029 0.59906 0.78982 0.0
C418 C 0.05955 0.50577 0.78947 0.0
C419 C 0.04376 0.40861 0.79066 0.0
N420 N 0.97722 0.56777 0.78959 0.0
N421 N 0.00658 0.43965 0.79031 0.0
H422 H 0.58937 0.57 0.05571 0.0
H423 H 0.44562 0.38121 0.02066 0.0
H424 H 0.54524 0.60977 0.02134 0.0
H425 H 0.40027 0.42369 0.05477 0.0
H426 H 0.49791 0.45185 0.01991 0.0
H427 H 0.53635 0.50106 0.05479 0.0
C428 C 0.56884 0.56394 0.04792 0.0
C429 C 0.57149 0.59562 0.0386 0.0
C430 C 0.47614 0.44552 0.02748 0.0
C431 C 0.51173 0.51652 0.03745 0.0
C432 C 0.44665 0.40536 0.02795 0.0
C433 C 0.41859 0.39683 0.03778 0.0
C434 C 0.47853 0.47599 0.03707 0.0
C435 C 0.42106 0.42915 0.047 0.0
C436 C 0.53857 0.52482 0.04744 0.0
C437 C 0.54386 0.58625 0.02873 0.0
N438 N 0.45105 0.4669 0.04649 0.0
N439 N 0.51525 0.5471 0.02835 0.0
H440 H 0.36073 0.47751 0.92845 0.0
H441 H 0.54911 0.63126 0.91848 0.0
H442 H 0.46056 0.3659 0.9199 0.0
H443 H 0.64094 0.50964 0.92345 0.0
H444 H 0.48013 0.57996 0.92033 0.0
H445 H 0.42632 0.53405 0.92897 0.0
C446 C 0.39646 0.46488 0.92665 0.0
C447 C 0.40491 0.41689 0.92399 0.0
C448 C 0.51513 0.56435 0.92131 0.0
C449 C 0.48053 0.48208 0.92413 0.0
C450 C 0.55483 0.59375 0.92011 0.0
C451 C 0.60112 0.57489 0.92084 0.0
C452 C 0.52147 0.51546 0.92333 0.0
C453 C 0.60601 0.52585 0.92286 0.0
C454 C 0.43403 0.49743 0.9268 0.0
C455 C 0.45219 0.40259 0.9219 0.0
N456 N 0.56669 0.49783 0.92397 0.0
N457 N 0.4881 0.43506 0.92196 0.0
H458 H 0.51039 0.8576 0.18779 0.0
H459 H 0.48503 0.14099 0.18768 0.0
H460 H 0.62876 0.95427 0.18381 0.0
H461 H 0.3669 0.04413 0.18356 0.0
H462 H 0.53772 0.07299 0.19103 0.0
H463 H 0.45769 0.92568 0.19103 0.0
C464 C 0.5255 0.89304 0.18779 0.0
C465 C 0.57398 0.90023 0.18533 0.0
C466 C 0.50014 0.06672 0.18954 0.0
C467 C 0.51377 0.97828 0.18899 0.0
C468 C 0.46998 0.10553 0.18767 0.0
C469 C 0.42157 0.09825 0.18514 0.0
C470 C 0.48175 0.02032 0.18894 0.0
C471 C 0.4041 0.05143 0.18529 0.0
C472 C 0.49532 0.9319 0.18959 0.0
C473 C 0.59151 0.94702 0.1855 0.0
N474 N 0.43424 0.01426 0.18704 0.0
N475 N 0.56135 0.98426 0.18717 0.0
H476 H 0.85009 0.98902 0.43385 0.0
H477 H 0.13386 0.01751 0.43451 0.0
H478 H 0.94838 0.87241 0.42898 0.0
H479 H 0.03633 0.13412 0.42885 0.0
H480 H 0.06579 0.96441 0.43724 0.0
H481 H 0.91784 0.0425 0.43674 0.0
C482 C 0.88585 0.97448 0.43356 0.0
C483 C 0.89358 0.92624 0.43101 0.0
C484 C 0.05936 0.00174 0.43553 0.0
C485 C 0.97113 0.98727 0.43432 0.0
C486 C 0.09818 0.03215 0.43401 0.0
C487 C 0.09081 0.08027 0.43128 0.0
C488 C 0.01284 0.0196 0.43439 0.0
C489 C 0.04372 0.09718 0.43079 0.0
C490 C 0.92448 0.00509 0.43517 0.0
C491 C 0.94074 0.90944 0.43078 0.0
N492 N 0.00652 0.06681 0.43224 0.0
N493 N 0.97772 0.93996 0.43233 0.0
H494 H 0.13168 0.44953 0.67548 0.0
H495 H 0.86425 0.5407 0.67583 0.0
H496 H 0.01164 0.35556 0.68019 0.0
H497 H 0.98451 0.63448 0.68046 0.0
H498 H 0.91731 0.47244 0.67813 0.0
H499 H 0.07864 0.51769 0.67797 0.0
C500 C 0.09422 0.4432 0.67714 0.0
C501 C 0.07601 0.39672 0.67751 0.0
C502 C 0.93202 0.50794 0.67879 0.0
C503 C 0.01496 0.47473 0.68027 0.0
C504 C 0.90176 0.54697 0.67745 0.0
C505 C 0.92003 0.59342 0.67784 0.0
C506 C 0.98109 0.51532 0.68035 0.0
C507 C 0.96888 0.59933 0.68005 0.0
C508 C 0.06397 0.48217 0.6786 0.0
C509 C 0.02722 0.39073 0.67979 0.0
N510 N 0.99782 0.56073 0.68106 0.0
N511 N 0.99827 0.42929 0.68093 0.0
H512 H 0.2703 0.0623 0.32652 0.0
H513 H 0.24512 0.22145 0.38337 0.0
H514 H 0.24875 0.21428 0.32495 0.0
H515 H 0.23052 0.06858 0.38253 0.0
H516 H 0.25303 0.22138 0.36222 0.0
H517 H 0.26383 0.06581 0.34743 0.0
C518 C 0.26436 0.09652 0.33058 0.0
C519 C 0.25984 0.13806 0.32398 0.0
C520 C 0.24793 0.18799 0.36671 0.0
C521 C 0.25223 0.14231 0.348 0.0
C522 C 0.24344 0.18799 0.37875 0.0
C523 C 0.23721 0.14496 0.3847 0.0
C524 C 0.24662 0.14462 0.36068 0.0
C525 C 0.23525 0.10261 0.37831 0.0
C526 C 0.26047 0.09847 0.34254 0.0
C527 C 0.25226 0.1814 0.32974 0.0
N528 N 0.24015 0.10353 0.36668 0.0
N529 N 0.24866 0.18245 0.34146 0.0
H530 H 0.93015 0.78027 0.57507 0.0
H531 H 0.77476 0.74988 0.63248 0.0
H532 H 0.78016 0.74615 0.57394 0.0
H533 H 0.9286 0.74803 0.63122 0.0
H534 H 0.77319 0.75718 0.6113 0.0
H535 H 0.92712 0.77877 0.59602 0.0
C536 C 0.89643 0.77263 0.57923 0.0
C537 C 0.85541 0.76294 0.57274 0.0
C538 C 0.80716 0.75514 0.61571 0.0
C539 C 0.85173 0.76096 0.59683 0.0
C540 C 0.80809 0.75104 0.62776 0.0
C541 C 0.85187 0.74823 0.63359 0.0
C542 C 0.85032 0.75695 0.60956 0.0
C543 C 0.89402 0.74988 0.6271 0.0
C544 C 0.89476 0.77164 0.59122 0.0
C545 C 0.81267 0.75356 0.57864 0.0
N546 N 0.89215 0.75424 0.61546 0.0
N547 N 0.81192 0.75264 0.59039 0.0
H548 H 0.21223 0.26146 0.82551 0.0
H549 H 0.34578 0.34086 0.88165 0.0
H550 H 0.35365 0.32163 0.82585 0.0
H551 H 0.22141 0.25112 0.88295 0.0
H552 H 0.35486 0.32254 0.86123 0.0
H553 H 0.21966 0.24469 0.84622 0.0
C554 C 0.24528 0.26997 0.82988 0.0
C555 C 0.28193 0.29406 0.82408 0.0
C556 C 0.32592 0.30608 0.86596 0.0
C557 C 0.2905 0.27549 0.84764 0.0
C558 C 0.3207 0.31674 0.87761 0.0
C559 C 0.28242 0.29799 0.88386 0.0
C560 C 0.29168 0.27766 0.86041 0.0
C561 C 0.25123 0.26642 0.87833 0.0
C562 C 0.24949 0.26048 0.84169 0.0
C563 C 0.32409 0.30405 0.83008 0.0
N564 N 0.25584 0.25806 0.8668 0.0
N565 N 0.32689 0.29546 0.84157 0.0
H566 H 0.71789 0.76419 0.07656 0.0
H567 H 0.56732 0.80031 0.13463 0.0
H568 H 0.56486 0.77936 0.07814 0.0
H569 H 0.71488 0.75642 0.13485 0.0
H570 H 0.5698 0.80433 0.11368 0.0
H571 H 0.72111 0.77192 0.09771 0.0
C572 C 0.6851 0.76947 0.08134 0.0
C573 C 0.64101 0.77078 0.07563 0.0
C574 C 0.60177 0.79394 0.11828 0.0
C575 C 0.64445 0.77983 0.09964 0.0
C576 C 0.6004 0.79168 0.13026 0.0
C577 C 0.64083 0.77748 0.13649 0.0
C578 C 0.64385 0.78182 0.11241 0.0
C579 C 0.68281 0.76721 0.13036 0.0
C580 C 0.68695 0.77375 0.09338 0.0
C581 C 0.59959 0.7777 0.0822 0.0
N582 N 0.68319 0.76927 0.11861 0.0
N583 N 0.60235 0.78189 0.09383 0.0
H584 H 0.65033 0.70882 0.82901 0.0
H585 H 0.82336 0.66801 0.87808 0.0
H586 H 0.80011 0.73499 0.8235 0.0
H587 H 0.68875 0.73484 0.88576 0.0
H588 H 0.81648 0.69478 0.85801 0.0
H589 H 0.6617 0.72269 0.8497 0.0
C590 C 0.68532 0.71882 0.83213 0.0
C591 C 0.7245 0.72011 0.82462 0.0
C592 C 0.78902 0.70469 0.86415 0.0
C593 C 0.73792 0.7346 0.84818 0.0
C594 C 0.79286 0.68924 0.87553 0.0
C595 C 0.75651 0.69938 0.88342 0.0
C596 C 0.74767 0.72878 0.8606 0.0
C597 C 0.71745 0.72662 0.87982 0.0
C598 C 0.69177 0.72683 0.84391 0.0
C599 C 0.76907 0.73337 0.82905 0.0
N600 N 0.71338 0.73947 0.86854 0.0
N601 N 0.77492 0.73871 0.84062 0.0
H602 H 0.42904 0.20231 0.1347 0.0
H603 H 0.2758 0.22976 0.07682 0.0
H604 H 0.28001 0.24095 0.13505 0.0
H605 H 0.42921 0.21849 0.07809 0.0
H606 H 0.27353 0.22414 0.098 0.0
H607 H 0.42636 0.19758 0.11376 0.0
C608 C 0.39561 0.20966 0.13036 0.0
C609 C 0.35477 0.2225 0.13662 0.0
C610 C 0.30758 0.22273 0.0936 0.0
C611 C 0.3515 0.21729 0.11256 0.0
C612 C 0.30889 0.2258 0.08154 0.0
C613 C 0.35278 0.2249 0.07572 0.0
C614 C 0.35044 0.2183 0.09978 0.0
C615 C 0.3946 0.21973 0.08222 0.0
C616 C 0.39412 0.20699 0.11838 0.0
C617 C 0.31238 0.23121 0.13053 0.0
N618 N 0.39237 0.21669 0.09388 0.0
N619 N 0.31186 0.2287 0.11879 0.0
H620 H 0.7495 0.77501 0.32513 0.0
H621 H 0.75573 0.93454 0.38225 0.0
H622 H 0.732 0.92762 0.32575 0.0
H623 H 0.74374 0.7815 0.3835 0.0
H624 H 0.75258 0.9312 0.36131 0.0
H625 H 0.75186 0.77508 0.34635 0.0
C626 C 0.74602 0.80842 0.32972 0.0
C627 C 0.74067 0.85138 0.32369 0.0
C628 C 0.75056 0.89825 0.36613 0.0
C629 C 0.74363 0.85173 0.3478 0.0
C630 C 0.75253 0.90012 0.37811 0.0
C631 C 0.74991 0.85821 0.38463 0.0
C632 C 0.74619 0.85412 0.36055 0.0
C633 C 0.74577 0.81466 0.37877 0.0
C634 C 0.74734 0.80843 0.3418 0.0
C635 C 0.73625 0.89365 0.33003 0.0
N636 N 0.74409 0.81369 0.36703 0.0
N637 N 0.73803 0.89274 0.34172 0.0
H638 H 0.22441 0.23968 0.63279 0.0
H639 H 0.07282 0.20072 0.57513 0.0
H640 H 0.07066 0.23672 0.63113 0.0
H641 H 0.22109 0.24174 0.57421 0.0
H642 H 0.07519 0.20244 0.59608 0.0
H643 H 0.22727 0.23081 0.61165 0.0
C644 C 0.19137 0.23711 0.62799 0.0
C645 C 0.14723 0.2391 0.6337 0.0
C646 C 0.10731 0.21102 0.59133 0.0
C647 C 0.15027 0.22854 0.60972 0.0
C648 C 0.10604 0.20991 0.57934 0.0
C649 C 0.14672 0.22157 0.57291 0.0
C650 C 0.1496 0.22382 0.597 0.0
C651 C 0.18885 0.2328 0.57886 0.0
C652 C 0.19303 0.23212 0.61597 0.0
C653 C 0.10549 0.23561 0.6271 0.0
N654 N 0.18919 0.23387 0.59062 0.0
N655 N 0.10807 0.2304 0.61549 0.0
H656 H 0.29059 0.30669 0.25977 0.0
H657 H 0.18697 0.21142 0.2012 0.0
H658 H 0.18081 0.19982 0.25692 0.0
H659 H 0.29647 0.31865 0.20394 0.0
H660 H 0.16648 0.22501 0.22143 0.0
H661 H 0.2756 0.32949 0.23973 0.0
C662 C 0.2626 0.28877 0.25502 0.0
C663 C 0.23808 0.25021 0.25987 0.0
C664 C 0.19432 0.24633 0.21754 0.0
C665 C 0.22115 0.2756 0.23695 0.0
C666 C 0.20595 0.23861 0.20597 0.0
C667 C 0.24462 0.26269 0.20101 0.0
C668 C 0.22195 0.2779 0.22418 0.0
C669 C 0.26737 0.29815 0.20754 0.0
C670 C 0.25406 0.30173 0.24357 0.0
C671 C 0.20164 0.22878 0.25339 0.0
N672 N 0.25645 0.3039 0.21887 0.0
N673 N 0.19499 0.24105 0.24219 0.0
H674 H 0.67207 0.78925 0.45149 0.0
H675 H 0.79997 0.67259 0.50502 0.0
H676 H 0.79234 0.69375 0.44927 0.0
H677 H 0.69311 0.7829 0.50717 0.0
H678 H 0.77855 0.65952 0.48487 0.0
H679 H 0.66081 0.76619 0.47159 0.0
C680 C 0.69556 0.76267 0.45516 0.0
C681 C 0.7342 0.74451 0.44882 0.0
C682 C 0.75908 0.6859 0.48981 0.0
C683 C 0.72176 0.71843 0.47185 0.0
C684 C 0.7713 0.69347 0.50132 0.0
C685 C 0.74933 0.73003 0.50767 0.0
C686 C 0.72501 0.71541 0.48459 0.0
C687 C 0.71168 0.75506 0.50252 0.0
C688 C 0.68905 0.7495 0.46665 0.0
C689 C 0.7627 0.70935 0.45392 0.0
N690 N 0.70141 0.74801 0.49118 0.0
N691 N 0.7566 0.69824 0.46525 0.0
H692 H 0.21224 0.18041 0.70165 0.0
H693 H 0.30766 0.32022 0.75636 0.0
H694 H 0.29783 0.30764 0.69975 0.0
H695 H 0.20719 0.20399 0.75763 0.0
H696 H 0.32239 0.30269 0.73604 0.0
H697 H 0.22961 0.17477 0.72222 0.0
C698 C 0.23553 0.20666 0.70553 0.0
C699 C 0.25264 0.24528 0.69907 0.0
C700 C 0.29769 0.28057 0.74081 0.0
C701 C 0.27196 0.23946 0.72264 0.0
C702 C 0.28913 0.29057 0.75242 0.0
C703 C 0.25516 0.26425 0.75864 0.0
C704 C 0.27202 0.24411 0.73537 0.0
C705 C 0.23297 0.22579 0.75312 0.0
C706 C 0.24536 0.20345 0.71728 0.0
C707 C 0.2834 0.27768 0.70446 0.0
N708 N 0.24126 0.21734 0.74174 0.0
N709 N 0.29125 0.27465 0.71602 0.0
H710 H 0.72567 0.79039 0.95204 0.0
H711 H 0.78983 0.66872 0.01194 0.0
H712 H 0.79695 0.65468 0.95496 0.0
H713 H 0.71701 0.80316 0.00834 0.0
H714 H 0.80926 0.67098 -0.00871 0.0
H715 H 0.73784 0.80326 0.97265 0.0
C716 C 0.74426 0.76347 0.95699 0.0
C717 C 0.75938 0.72096 0.95182 0.0
C718 C 0.78988 0.70044 -0.00492 0.0
C719 C 0.77318 0.73528 0.97546 0.0
C720 C 0.77907 0.69926 0.00687 0.0
C721 C 0.7509 0.73527 0.01175 0.0
C722 C 0.77231 0.73788 -0.01177 0.0
C723 C 0.73792 0.77413 0.00483 0.0
C724 C 0.75135 0.77088 0.96877 0.0
C725 C 0.78403 0.6877 0.95863 0.0
N726 N 0.74809 0.77404 -0.00661 0.0
N727 N 0.78949 0.69522 0.97014 0.0
H728 H 0.26823 0.18039 0.01001 0.0
H729 H 0.19547 0.32779 0.95443 0.0
H730 H 0.2039 0.31972 0.01129 0.0
H731 H 0.27684 0.19727 0.95404 0.0
H732 H 0.17837 0.31526 0.97488 0.0
H733 H 0.24968 0.1756 -0.01051 0.0
C734 C 0.24919 0.20958 0.00599 0.0
C735 C 0.23847 0.25097 0.01224 0.0
C736 C 0.19932 0.289 0.97027 0.0
C737 C 0.21821 0.24623 -0.01128 0.0
C738 C 0.20921 0.29611 0.95859 0.0
C739 C 0.23864 0.26405 0.95258 0.0
C740 C 0.219 0.2496 0.97597 0.0
C741 C 0.25478 0.22337 0.95838 0.0
C742 C 0.23874 0.20689 -0.00573 0.0
C743 C 0.21315 0.28739 0.00671 0.0
N744 N 0.24528 0.21765 0.9698 0.0
N745 N 0.20482 0.28468 -0.00484 0.0
H746 H 0.82559 0.77968 0.25746 0.0
H747 H 0.6986 0.67277 0.20268 0.0
H748 H 0.70315 0.6869 0.25847 0.0
H749 H 0.80553 0.78306 0.20186 0.0
H750 H 0.71981 0.65579 0.22266 0.0
H751 H 0.83801 0.75853 0.23726 0.0
C752 C 0.80188 0.75401 0.2535 0.0
C753 C 0.76227 0.73621 0.25952 0.0
C754 C 0.73936 0.683 0.21804 0.0
C755 C 0.77605 0.71237 0.23639 0.0
C756 C 0.72726 0.69281 0.20663 0.0
C757 C 0.74925 0.73054 0.20073 0.0
C758 C 0.77334 0.71143 0.22363 0.0
C759 C 0.78692 0.75439 0.20617 0.0
C760 C 0.80906 0.74195 0.24196 0.0
C761 C 0.73353 0.70221 0.25406 0.0
N762 N 0.79706 0.74517 0.21743 0.0
N763 N 0.7403 0.69224 0.24269 0.0
H764 H 0.19988 0.31197 0.44971 0.0
H765 H 0.31005 0.21264 0.50705 0.0
H766 H 0.31629 0.21162 0.45122 0.0
H767 H 0.19755 0.3174 0.50563 0.0
H768 H 0.3291 0.22985 0.4869 0.0
H769 H 0.21466 0.33263 0.46991 0.0
C770 C 0.22928 0.29516 0.4542 0.0
C771 C 0.25579 0.25884 0.44893 0.0
C772 C 0.30088 0.24983 0.49106 0.0
C773 C 0.27246 0.28165 0.47202 0.0
C774 C 0.29007 0.24002 0.50259 0.0
C775 C 0.25108 0.26238 0.50789 0.0
C776 C 0.2721 0.28175 0.48481 0.0
C777 C 0.22697 0.29817 0.50176 0.0
C778 C 0.23769 0.30685 0.46575 0.0
C779 C 0.29396 0.23876 0.45508 0.0
N780 N 0.23713 0.30596 0.49046 0.0
N781 N 0.30046 0.24963 0.46638 0.0
H782 H 0.78305 0.81452 0.70074 0.0
H783 H 0.68137 0.68606 0.75643 0.0
H784 H 0.69733 0.6872 0.69977 0.0
H785 H 0.7823 0.80199 0.75693 0.0
H786 H 0.66879 0.69955 0.73585 0.0
H787 H 0.76367 0.82415 0.72112 0.0
C788 C 0.75936 0.78905 0.70478 0.0
C789 C 0.74272 0.74931 0.69866 0.0
C790 C 0.6931 0.72251 0.7405 0.0
C791 C 0.72107 0.75971 0.72202 0.0
C792 C 0.7004 0.71484 0.75226 0.0
C793 C 0.73393 0.74219 0.75836 0.0
C794 C 0.71956 0.75769 0.73479 0.0
C795 C 0.75684 0.77943 0.75253 0.0
C796 C 0.74835 0.79455 0.71642 0.0
C797 C 0.7114 0.71799 0.70423 0.0
N798 N 0.74976 0.78561 0.74103 0.0
N799 N 0.70239 0.72327 0.7157 0.0
loop_
_geom_bond_atom_site_label_1
_geom_bond_atom_site_label_2
_geom_bond_distance
_geom_bond_site_symmetry_2
_ccdc_geom_bond_type
C0 O1 1.306 . S
C0 O3 1.160 . S
O1 C0 1.306 . S
O1 Cd2 2.228 . S
Cd2 O1 2.228 . S
Cd2 O6 2.273 . S
Cd2 O10 2.277 . S
O3 C0 1.160 . S
O3 Cd4 2.203 . S
Cd4 O3 2.203 . S
Cd4 O6 2.411 . S
Cd4 O7 2.333 . S
Cd4 O8 2.352 . S
Cd4 O12 2.277 . S
Cd4 O13 2.356 . S
C5 O10 1.209 . S
C5 O12 1.226 . S
O6 Cd2 2.273 . S
O6 Cd4 2.411 . S
O6 C9 1.320 . S
O7 Cd4 2.333 . S
O7 C9 1.214 . S
O8 Cd4 2.352 . S
O8 C11 1.258 . S
C9 O6 1.320 . S
C9 O7 1.214 . S
O10 Cd2 2.277 . S
O10 C5 1.209 . S
C11 O8 1.258 . S
C11 O13 1.282 . S
O12 Cd4 2.277 . S
O12 C5 1.226 . S
O13 Cd4 2.356 . S
O13 C11 1.282 . S
C14 O15 1.306 . S
C14 O17 1.160 . S
O15 C14 1.306 . S
O15 Cd16 2.228 . S
Cd16 O15 2.228 . S
Cd16 O20 2.273 . S
Cd16 O24 2.277 . S
O17 C14 1.160 . S
O17 Cd18 2.203 . S
Cd18 O17 2.203 . S
Cd18 O20 2.411 . S
Cd18 O21 2.333 . S
Cd18 O22 2.352 . S
Cd18 O26 2.277 . S
Cd18 O27 2.356 . S
C19 O24 1.209 . S
C19 O26 1.226 . S
O20 Cd16 2.273 . S
O20 Cd18 2.411 . S
O20 C23 1.320 . S
O21 Cd18 2.333 . S
O21 C23 1.214 . S
O22 Cd18 2.352 . S
O22 C25 1.258 . S
C23 O20 1.320 . S
C23 O21 1.214 . S
O24 Cd16 2.277 . S
O24 C19 1.209 . S
C25 O22 1.258 . S
C25 O27 1.282 . S
O26 Cd18 2.277 . S
O26 C19 1.226 . S
O27 Cd18 2.356 . S
O27 C25 1.282 . S
C28 O29 1.306 . S
C28 O31 1.160 . S
O29 C28 1.306 . S
O29 Cd30 2.228 . S
Cd30 O29 2.228 . S
Cd30 O34 2.273 . S
Cd30 O38 2.277 . S
O31 C28 1.160 . S
O31 Cd32 2.203 . S
Cd32 O31 2.203 . S
Cd32 O34 2.411 . S
Cd32 O35 2.333 . S
Cd32 O36 2.352 . S
Cd32 O40 2.277 . S
Cd32 O41 2.356 . S
C33 O38 1.209 . S
C33 O40 1.226 . S
O34 Cd30 2.273 . S
O34 Cd32 2.411 . S
O34 C37 1.320 . S
O35 Cd32 2.333 . S
O35 C37 1.214 . S
O36 Cd32 2.352 . S
O36 C39 1.258 . S
C37 O34 1.320 . S
C37 O35 1.214 . S
O38 Cd30 2.277 . S
O38 C33 1.209 . S
C39 O36 1.258 . S
C39 O41 1.282 . S
O40 Cd32 2.277 . S
O40 C33 1.226 . S
O41 Cd32 2.356 . S
O41 C39 1.282 . S
C42 O43 1.306 . S
C42 O45 1.160 . S
O43 C42 1.306 . S
O43 Cd44 2.228 . S
Cd44 O43 2.228 . S
Cd44 O48 2.273 . S
Cd44 O52 2.277 . S
O45 C42 1.160 . S
O45 Cd46 2.203 . S
Cd46 O45 2.203 . S
Cd46 O48 2.411 . S
Cd46 O49 2.333 . S
Cd46 O50 2.352 . S
Cd46 O54 2.277 . S
Cd46 O55 2.356 . S
C47 O52 1.209 . S
C47 O54 1.226 . S
O48 Cd44 2.273 . S
O48 Cd46 2.411 . S
O48 C51 1.320 . S
O49 Cd46 2.333 . S
O49 C51 1.214 . S
O50 Cd46 2.352 . S
O50 C53 1.258 . S
C51 O48 1.320 . S
C51 O49 1.214 . S
O52 Cd44 2.277 . S
O52 C47 1.209 . S
C53 O50 1.258 . S
C53 O55 1.282 . S
O54 Cd46 2.277 . S
O54 C47 1.226 . S
O55 Cd46 2.356 . S
O55 C53 1.282 . S
C56 O57 1.306 . S
C56 O59 1.160 . S
O57 C56 1.306 . S
O57 Cd58 2.228 . S
Cd58 O57 2.228 . S
Cd58 O62 2.273 . S
Cd58 O66 2.277 . S
O59 C56 1.160 . S
O59 Cd60 2.203 . S
Cd60 O59 2.203 . S
Cd60 O62 2.411 . S
Cd60 O63 2.333 . S
Cd60 O64 2.352 . S
Cd60 O68 2.277 . S
Cd60 O69 2.356 . S
C61 O66 1.209 . S
C61 O68 1.226 . S
O62 Cd58 2.273 . S
O62 Cd60 2.411 . S
O62 C65 1.320 . S
O63 Cd60 2.333 . S
O63 C65 1.214 . S
O64 Cd60 2.352 . S
O64 C67 1.258 . S
C65 O62 1.320 . S
C65 O63 1.214 . S
O66 Cd58 2.277 . S
O66 C61 1.209 . S
C67 O64 1.258 . S
C67 O69 1.282 . S
O68 Cd60 2.277 . S
O68 C61 1.226 . S
O69 Cd60 2.356 . S
O69 C67 1.282 . S
C70 O71 1.306 . S
C70 O73 1.160 . S
O71 C70 1.306 . S
O71 Cd72 2.228 . S
Cd72 O71 2.228 . S
Cd72 O76 2.273 . S
Cd72 O80 2.277 . S
O73 C70 1.160 . S
O73 Cd74 2.203 . S
Cd74 O73 2.203 . S
Cd74 O76 2.411 . S
Cd74 O77 2.333 . S
Cd74 O78 2.352 . S
Cd74 O82 2.277 . S
Cd74 O83 2.356 . S
C75 O80 1.209 . S
C75 O82 1.226 . S
O76 Cd72 2.273 . S
O76 Cd74 2.411 . S
O76 C79 1.320 . S
O77 Cd74 2.333 . S
O77 C79 1.214 . S
O78 Cd74 2.352 . S
O78 C81 1.258 . S
C79 O76 1.320 . S
C79 O77 1.214 . S
O80 Cd72 2.277 . S
O80 C75 1.209 . S
C81 O78 1.258 . S
C81 O83 1.282 . S
O82 Cd74 2.277 . S
O82 C75 1.226 . S
O83 Cd74 2.356 . S
O83 C81 1.282 . S
C84 O85 1.306 . S
C84 O87 1.160 . S
O85 C84 1.306 . S
O85 Cd86 2.228 . S
Cd86 O85 2.228 . S
Cd86 O90 2.273 . S
Cd86 O94 2.277 . S
O87 C84 1.160 . S
O87 Cd88 2.203 . S
Cd88 O87 2.203 . S
Cd88 O90 2.411 . S
Cd88 O91 2.333 . S
Cd88 O92 2.352 . S
Cd88 O96 2.277 . S
Cd88 O97 2.356 . S
C89 O94 1.209 . S
C89 O96 1.226 . S
O90 Cd86 2.273 . S
O90 Cd88 2.411 . S
O90 C93 1.320 . S
O91 Cd88 2.333 . S
O91 C93 1.214 . S
O92 Cd88 2.352 . S
O92 C95 1.258 . S
C93 O90 1.320 . S
C93 O91 1.214 . S
O94 Cd86 2.277 . S
O94 C89 1.209 . S
C95 O92 1.258 . S
C95 O97 1.282 . S
O96 Cd88 2.277 . S
O96 C89 1.226 . S
O97 Cd88 2.356 . S
O97 C95 1.282 . S
C98 O99 1.306 . S
C98 O101 1.160 . S
O99 C98 1.306 . S
O99 Cd100 2.228 . S
Cd100 O99 2.228 . S
Cd100 O104 2.273 . S
Cd100 O108 2.277 . S
O101 C98 1.160 . S
O101 Cd102 2.203 . S
Cd102 O101 2.203 . S
Cd102 O104 2.411 . S
Cd102 O105 2.333 . S
Cd102 O106 2.352 . S
Cd102 O110 2.277 . S
Cd102 O111 2.356 . S
C103 O108 1.209 . S
C103 O110 1.226 . S
O104 Cd100 2.273 . S
O104 Cd102 2.411 . S
O104 C107 1.320 . S
O105 Cd102 2.333 . S
O105 C107 1.214 . S
O106 Cd102 2.352 . S
O106 C109 1.258 . S
C107 O104 1.320 . S
C107 O105 1.214 . S
O108 Cd100 2.277 . S
O108 C103 1.209 . S
C109 O106 1.258 . S
C109 O111 1.282 . S
O110 Cd102 2.277 . S
O110 C103 1.226 . S
O111 Cd102 2.356 . S
O111 C109 1.282 . S
C112 O113 1.306 . S
C112 O115 1.160 . S
O113 C112 1.306 . S
O113 Cd114 2.228 . S
Cd114 O113 2.228 . S
Cd114 O118 2.273 . S
Cd114 O122 2.277 . S
O115 C112 1.160 . S
O115 Cd116 2.203 . S
Cd116 O115 2.203 . S
Cd116 O118 2.411 . S
Cd116 O119 2.333 . S
Cd116 O120 2.352 . S
Cd116 O124 2.277 . S
Cd116 O125 2.356 . S
C117 O122 1.209 . S
C117 O124 1.226 . S
O118 Cd114 2.273 . S
O118 Cd116 2.411 . S
O118 C121 1.320 . S
O119 Cd116 2.333 . S
O119 C121 1.214 . S
O120 Cd116 2.352 . S
O120 C123 1.258 . S
C121 O118 1.320 . S
C121 O119 1.214 . S
O122 Cd114 2.277 . S
O122 C117 1.209 . S
C123 O120 1.258 . S
C123 O125 1.282 . S
O124 Cd116 2.277 . S
O124 C117 1.226 . S
O125 Cd116 2.356 . S
O125 C123 1.282 . S
C126 O127 1.306 . S
C126 O129 1.160 . S
O127 C126 1.306 . S
O127 Cd128 2.228 . S
Cd128 O127 2.228 . S
Cd128 O132 2.273 . S
Cd128 O136 2.277 . S
O129 C126 1.160 . S
O129 Cd130 2.203 . S
Cd130 O129 2.203 . S
Cd130 O132 2.411 . S
Cd130 O133 2.333 . S
Cd130 O134 2.352 . S
Cd130 O138 2.277 . S
Cd130 O139 2.356 . S
C131 O136 1.209 . S
C131 O138 1.226 . S
O132 Cd128 2.273 . S
O132 Cd130 2.411 . S
O132 C135 1.320 . S
O133 Cd130 2.333 . S
O133 C135 1.214 . S
O134 Cd130 2.352 . S
O134 C137 1.258 . S
C135 O132 1.320 . S
C135 O133 1.214 . S
O136 Cd128 2.277 . S
O136 C131 1.209 . S
C137 O134 1.258 . S
C137 O139 1.282 . S
O138 Cd130 2.277 . S
O138 C131 1.226 . S
O139 Cd130 2.356 . S
O139 C137 1.282 . S
C140 O141 1.306 . S
C140 O143 1.160 . S
O141 C140 1.306 . S
O141 Cd142 2.228 . S
Cd142 O141 2.228 . S
Cd142 O146 2.273 . S
Cd142 O150 2.277 . S
O143 C140 1.160 . S
O143 Cd144 2.203 . S
Cd144 O143 2.203 . S
Cd144 O146 2.411 . S
Cd144 O147 2.333 . S
Cd144 O148 2.352 . S
Cd144 O152 2.277 . S
Cd144 O153 2.356 . S
C145 O150 1.209 . S
C145 O152 1.226 . S
O146 Cd142 2.273 . S
O146 Cd144 2.411 . S
O146 C149 1.320 . S
O147 Cd144 2.333 . S
O147 C149 1.214 . S
O148 Cd144 2.352 . S
O148 C151 1.258 . S
C149 O146 1.320 . S
C149 O147 1.214 . S
O150 Cd142 2.277 . S
O150 C145 1.209 . S
C151 O148 1.258 . S
C151 O153 1.282 . S
O152 Cd144 2.277 . S
O152 C145 1.226 . S
O153 Cd144 2.356 . S
O153 C151 1.282 . S
C154 O155 1.306 . S
C154 O157 1.160 . S
O155 C154 1.306 . S
O155 Cd156 2.228 . S
Cd156 O155 2.228 . S
Cd156 O160 2.273 . S
Cd156 O164 2.277 . S
O157 C154 1.160 . S
O157 Cd158 2.203 . S
Cd158 O157 2.203 . S
Cd158 O160 2.411 . S
Cd158 O161 2.333 . S
Cd158 O162 2.352 . S
Cd158 O166 2.277 . S
Cd158 O167 2.356 . S
C159 O164 1.209 . S
C159 O166 1.226 . S
O160 Cd156 2.273 . S
O160 Cd158 2.411 . S
O160 C163 1.320 . S
O161 Cd158 2.333 . S
O161 C163 1.214 . S
O162 Cd158 2.352 . S
O162 C165 1.258 . S
C163 O160 1.320 . S
C163 O161 1.214 . S
O164 Cd156 2.277 . S
O164 C159 1.209 . S
C165 O162 1.258 . S
C165 O167 1.282 . S
O166 Cd158 2.277 . S
O166 C159 1.226 . S
O167 Cd158 2.356 . S
O167 C165 1.282 . S
C168 O169 1.306 . S
C168 O171 1.160 . S
O169 C168 1.306 . S
O169 Cd170 2.228 . S
Cd170 O169 2.228 . S
Cd170 O174 2.273 . S
Cd170 O178 2.277 . S
O171 C168 1.160 . S
O171 Cd172 2.203 . S
Cd172 O171 2.203 . S
Cd172 O174 2.411 . S
Cd172 O175 2.333 . S
Cd172 O176 2.352 . S
Cd172 O180 2.277 . S
Cd172 O181 2.356 . S
C173 O178 1.209 . S
C173 O180 1.226 . S
O174 Cd170 2.273 . S
O174 Cd172 2.411 . S
O174 C177 1.320 . S
O175 Cd172 2.333 . S
O175 C177 1.214 . S
O176 Cd172 2.352 . S
O176 C179 1.258 . S
C177 O174 1.320 . S
C177 O175 1.214 . S
O178 Cd170 2.277 . S
O178 C173 1.209 . S
C179 O176 1.258 . S
C179 O181 1.282 . S
O180 Cd172 2.277 . S
O180 C173 1.226 . S
O181 Cd172 2.356 . S
O181 C179 1.282 . S
C182 O183 1.306 . S
C182 O185 1.160 . S
O183 C182 1.306 . S
O183 Cd184 2.228 . S
Cd184 O183 2.228 . S
Cd184 O188 2.273 . S
Cd184 O192 2.277 . S
O185 C182 1.160 . S
O185 Cd186 2.203 . S
Cd186 O185 2.203 . S
Cd186 O188 2.411 . S
Cd186 O189 2.333 . S
Cd186 O190 2.352 . S
Cd186 O194 2.277 . S
Cd186 O195 2.356 . S
C187 O192 1.209 . S
C187 O194 1.226 . S
O188 Cd184 2.273 . S
O188 Cd186 2.411 . S
O188 C191 1.320 . S
O189 Cd186 2.333 . S
O189 C191 1.214 . S
O190 Cd186 2.352 . S
O190 C193 1.258 . S
C191 O188 1.320 . S
C191 O189 1.214 . S
O192 Cd184 2.277 . S
O192 C187 1.209 . S
C193 O190 1.258 . S
C193 O195 1.282 . S
O194 Cd186 2.277 . S
O194 C187 1.226 . S
O195 Cd186 2.356 . S
O195 C193 1.282 . S
C196 O197 1.306 . S
C196 O199 1.160 . S
O197 C196 1.306 . S
O197 Cd198 2.228 . S
Cd198 O197 2.228 . S
Cd198 O202 2.273 . S
Cd198 O206 2.277 . S
O199 C196 1.160 . S
O199 Cd200 2.203 . S
Cd200 O199 2.203 . S
Cd200 O202 2.411 . S
Cd200 O203 2.333 . S
Cd200 O204 2.352 . S
Cd200 O208 2.277 . S
Cd200 O209 2.356 . S
C201 O206 1.209 . S
C201 O208 1.226 . S
O202 Cd198 2.273 . S
O202 Cd200 2.411 . S
O202 C205 1.320 . S
O203 Cd200 2.333 . S
O203 C205 1.214 . S
O204 Cd200 2.352 . S
O204 C207 1.258 . S
C205 O202 1.320 . S
C205 O203 1.214 . S
O206 Cd198 2.277 . S
O206 C201 1.209 . S
C207 O204 1.258 . S
C207 O209 1.282 . S
O208 Cd200 2.277 . S
O208 C201 1.226 . S
O209 Cd200 2.356 . S
O209 C207 1.282 . S
C210 O211 1.306 . S
C210 O213 1.160 . S
O211 C210 1.306 . S
O211 Cd212 2.228 . S
Cd212 O211 2.228 . S
Cd212 O216 2.273 . S
Cd212 O220 2.277 . S
O213 C210 1.160 . S
O213 Cd214 2.203 . S
Cd214 O213 2.203 . S
Cd214 O216 2.411 . S
Cd214 O217 2.333 . S
Cd214 O218 2.352 . S
Cd214 O222 2.277 . S
Cd214 O223 2.356 . S
C215 O220 1.209 . S
C215 O222 1.226 . S
O216 Cd212 2.273 . S
O216 Cd214 2.411 . S
O216 C219 1.320 . S
O217 Cd214 2.333 . S
O217 C219 1.214 . S
O218 Cd214 2.352 . S
O218 C221 1.258 . S
C219 O216 1.320 . S
C219 O217 1.214 . S
O220 Cd212 2.277 . S
O220 C215 1.209 . S
C221 O218 1.258 . S
C221 O223 1.282 . S
O222 Cd214 2.277 . S
O222 C215 1.226 . S
O223 Cd214 2.356 . S
O223 C221 1.282 . S
H224 C230 0.930 . S
H225 C234 0.930 . S
H226 C239 0.929 . S
H227 C237 0.929 . S
H228 C232 0.930 . S
H229 C238 0.931 . S
C230 H224 0.930 . S
C230 C231 1.367 . S
C230 C238 1.378 . S
C231 C230 1.367 . S
C231 C239 1.433 . S
C232 H228 0.930 . S
C232 C234 1.378 . S
C232 C236 1.350 . S
C233 C236 1.463 1_665 S
C233 C238 1.350 . S
C233 N241 1.427 1_565 S
C234 H225 0.930 . S
C234 C232 1.378 . S
C234 C235 1.367 . S
C235 C234 1.367 . S
C235 C237 1.433 . S
C236 C232 1.350 . S
C236 C233 1.463 1_445 S
C236 N240 1.427 1_545 S
C237 H227 0.929 . S
C237 C235 1.433 . S
C237 N240 1.384 1_545 S
C238 H229 0.931 . S
C238 C230 1.378 . S
C238 C233 1.350 . S
C239 H226 0.929 . S
C239 C231 1.433 . S
C239 N241 1.384 1_565 S
N240 C236 1.427 1_565 S
N240 C237 1.384 1_565 S
N241 C233 1.427 1_545 S
N241 C239 1.384 1_545 S
H242 C248 0.930 . S
H243 C252 0.930 . S
H244 C257 0.929 . S
H245 C255 0.929 . S
H246 C250 0.929 . S
H247 C256 0.929 . S
C248 H242 0.930 . S
C248 C249 1.367 . S
C248 C256 1.378 . S
C249 C248 1.367 . S
C249 C257 1.433 . S
C250 H246 0.929 . S
C250 C252 1.378 . S
C250 C254 1.350 . S
C251 C254 1.463 1_655 S
C251 C256 1.350 . S
C251 N259 1.427 . S
C252 H243 0.930 . S
C252 C250 1.378 . S
C252 C253 1.367 . S
C253 C252 1.367 . S
C253 C255 1.433 . S
C254 C250 1.350 . S
C254 C251 1.463 1_455 S
C254 N258 1.427 . S
C255 H245 0.929 . S
C255 C253 1.433 . S
C255 N258 1.384 . S
C256 H247 0.929 . S
C256 C248 1.378 . S
C256 C251 1.350 . S
C257 H244 0.929 . S
C257 C249 1.433 . S
C257 N259 1.384 . S
N258 C254 1.427 . S
N258 C255 1.384 . S
N259 C251 1.427 . S
N259 C257 1.384 . S
H260 C266 0.930 . S
H261 C270 0.930 . S
H262 C275 0.929 . S
H263 C273 0.929 . S
H264 C268 0.929 . S
H265 C274 0.929 . S
C266 H260 0.930 . S
C266 C267 1.367 . S
C266 C274 1.378 . S
C267 C266 1.367 . S
C267 C275 1.433 . S
C268 H264 0.929 . S
C268 C270 1.378 . S
C268 C272 1.350 . S
C269 C272 1.463 . S
C269 C274 1.350 . S
C269 N277 1.427 . S
C270 H261 0.930 . S
C270 C268 1.378 . S
C270 C271 1.367 . S
C271 C270 1.367 . S
C271 C273 1.433 . S
C272 C268 1.350 . S
C272 C269 1.463 . S
C272 N276 1.427 . S
C273 H263 0.929 . S
C273 C271 1.433 . S
C273 N276 1.384 . S
C274 H265 0.929 . S
C274 C266 1.378 . S
C274 C269 1.350 . S
C275 H262 0.929 . S
C275 C267 1.433 . S
C275 N277 1.384 . S
N276 C272 1.427 . S
N276 C273 1.384 . S
N277 C269 1.427 . S
N277 C275 1.384 . S
H278 C284 0.930 . S
H279 C288 0.930 . S
H280 C293 0.929 . S
H281 C291 0.929 . S
H282 C286 0.929 . S
H283 C292 0.929 . S
C284 H278 0.930 . S
C284 C285 1.367 . S
C284 C292 1.378 . S
C285 C284 1.367 . S
C285 C293 1.433 . S
C286 H282 0.929 . S
C286 C288 1.378 . S
C286 C290 1.350 . S
C287 C290 1.463 1_545 S
C287 C292 1.350 . S
C287 N295 1.427 . S
C288 H279 0.930 . S
C288 C286 1.378 . S
C288 C289 1.367 . S
C289 C288 1.367 . S
C289 C291 1.433 . S
C290 C286 1.350 . S
C290 C287 1.463 1_565 S
C290 N294 1.427 . S
C291 H281 0.929 . S
C291 C289 1.433 . S
C291 N294 1.384 . S
C292 H283 0.929 . S
C292 C284 1.378 . S
C292 C287 1.350 . S
C293 H280 0.929 . S
C293 C285 1.433 . S
C293 N295 1.384 . S
N294 C290 1.427 . S
N294 C291 1.384 . S
N295 C287 1.427 . S
N295 C293 1.384 . S
H296 C302 0.930 . S
H297 C306 0.930 . S
H298 C311 0.929 . S
H299 C309 0.929 . S
H300 C304 0.929 . S
H301 C310 0.929 . S
C302 H296 0.930 . S
C302 C303 1.367 . S
C302 C310 1.378 . S
C303 C302 1.367 . S
C303 C311 1.433 . S
C304 H300 0.929 . S
C304 C306 1.378 . S
C304 C308 1.350 . S
C305 C308 1.463 1_455 S
C305 C310 1.350 . S
C305 N313 1.427 . S
C306 H297 0.930 . S
C306 C304 1.378 . S
C306 C307 1.367 . S
C307 C306 1.367 . S
C307 C309 1.433 . S
C308 C304 1.350 . S
C308 C305 1.463 1_655 S
C308 N312 1.427 . S
C309 H299 0.929 . S
C309 C307 1.433 . S
C309 N312 1.384 . S
C310 H301 0.929 . S
C310 C302 1.378 . S
C310 C305 1.350 . S
C311 H298 0.929 . S
C311 C303 1.433 . S
C311 N313 1.384 . S
N312 C308 1.427 . S
N312 C309 1.384 . S
N313 C305 1.427 . S
N313 C311 1.384 . S
H314 C320 0.930 . S
H315 C324 0.930 . S
H316 C329 0.929 . S
H317 C327 0.929 . S
H318 C322 0.929 . S
H319 C328 0.929 . S
C320 H314 0.930 . S
C320 C321 1.367 . S
C320 C328 1.378 . S
C321 C320 1.367 . S
C321 C329 1.433 . S
C322 H318 0.929 . S
C322 C324 1.378 . S
C322 C326 1.350 . S
C323 C326 1.463 . S
C323 C328 1.350 . S
C323 N331 1.427 . S
C324 H315 0.930 . S
C324 C322 1.378 . S
C324 C325 1.367 . S
C325 C324 1.367 . S
C325 C327 1.433 . S
C326 C322 1.350 . S
C326 C323 1.463 . S
C326 N330 1.427 . S
C327 H317 0.929 . S
C327 C325 1.433 . S
C327 N330 1.384 . S
C328 H319 0.929 . S
C328 C320 1.378 . S
C328 C323 1.350 . S
C329 H316 0.929 . S
C329 C321 1.433 . S
C329 N331 1.384 . S
N330 C326 1.427 . S
N330 C327 1.384 . S
N331 C323 1.427 . S
N331 C329 1.384 . S
H332 C338 0.930 . S
H333 C342 0.930 . S
H334 C347 0.929 . S
H335 C345 0.929 . S
H336 C340 0.929 . S
H337 C346 0.929 . S
C338 H332 0.930 . S
C338 C339 1.367 . S
C338 C346 1.378 1_545 S
C339 C338 1.367 . S
C339 C347 1.433 . S
C340 H336 0.929 . S
C340 C342 1.378 1_545 S
C340 C344 1.350 1_545 S
C341 C344 1.463 1_545 S
C341 C346 1.350 1_545 S
C341 N349 1.427 . S
C342 H333 0.930 . S
C342 C340 1.378 1_565 S
C342 C343 1.367 . S
C343 C342 1.367 . S
C343 C345 1.433 . S
C344 C340 1.350 1_565 S
C344 C341 1.463 1_565 S
C344 N348 1.427 . S
C345 H335 0.929 . S
C345 C343 1.433 . S
C345 N348 1.384 . S
C346 H337 0.929 . S
C346 C338 1.378 1_565 S
C346 C341 1.350 1_565 S
C347 H334 0.929 . S
C347 C339 1.433 . S
C347 N349 1.384 . S
N348 C344 1.427 . S
N348 C345 1.384 . S
N349 C341 1.427 . S
N349 C347 1.384 . S
H350 C356 0.930 . S
H351 C360 0.930 . S
H352 C365 0.921 1_655 S
H353 C363 0.924 1_455 S
H354 C358 0.929 1_545 S
H355 C364 0.929 1_565 S
C356 H350 0.930 . S
C356 C357 1.367 . S
C356 C364 1.378 . S
C357 C356 1.367 . S
C357 C365 1.433 . S
C358 H354 0.929 1_565 S
C358 C360 1.378 . S
C358 C362 1.350 . S
C359 C362 1.463 1_445 S
C359 C364 1.350 . S
C359 N367 1.427 1_455 S
C360 H351 0.930 . S
C360 C358 1.378 . S
C360 C361 1.367 . S
C361 C360 1.367 . S
C361 C363 1.433 . S
C362 C358 1.350 . S
C362 C359 1.463 1_665 S
C362 N366 1.427 1_655 S
C363 H353 0.924 1_655 S
C363 C361 1.433 . S
C363 N366 1.384 1_655 S
C364 H355 0.929 1_545 S
C364 C356 1.378 . S
C364 C359 1.350 . S
C365 H352 0.921 1_455 S
C365 C357 1.433 . S
C365 N367 1.384 1_455 S
N366 C362 1.427 1_455 S
N366 C363 1.384 1_455 S
N367 C359 1.427 1_655 S
N367 C365 1.384 1_655 S
H368 C374 0.930 . S
H369 C378 0.930 . S
H370 C383 0.929 . S
H371 C381 0.929 . S
H372 C376 0.929 . S
H373 C382 0.929 . S
C374 H368 0.930 . S
C374 C375 1.367 . S
C374 C382 1.378 . S
C375 C374 1.367 . S
C375 C383 1.433 . S
C376 H372 0.929 . S
C376 C378 1.378 . S
C376 C380 1.350 . S
C377 C380 1.463 1_565 S
C377 C382 1.350 . S
C377 N385 1.427 . S
C378 H369 0.930 . S
C378 C376 1.378 . S
C378 C379 1.367 . S
C379 C378 1.367 . S
C379 C381 1.433 . S
C380 C376 1.350 . S
C380 C377 1.463 1_545 S
C380 N384 1.427 . S
C381 H371 0.929 . S
C381 C379 1.433 . S
C381 N384 1.384 . S
C382 H373 0.929 . S
C382 C374 1.378 . S
C382 C377 1.350 . S
C383 H370 0.929 . S
C383 C375 1.433 . S
C383 N385 1.384 . S
N384 C380 1.427 . S
N384 C381 1.384 . S
N385 C377 1.427 . S
N385 C383 1.384 . S
H386 C392 0.930 . S
H387 C396 0.930 . S
H388 C401 0.929 . S
H389 C399 0.929 . S
H390 C394 0.929 . S
H391 C400 0.929 . S
C392 H386 0.930 . S
C392 C393 1.367 . S
C392 C400 1.378 1_655 S
C393 C392 1.367 . S
C393 C401 1.433 . S
C394 H390 0.929 . S
C394 C396 1.378 1_655 S
C394 C398 1.350 1_655 S
C395 C398 1.463 1_665 S
C395 C400 1.350 1_655 S
C395 N403 1.427 . S
C396 H387 0.930 . S
C396 C394 1.378 1_455 S
C396 C397 1.367 . S
C397 C396 1.367 . S
C397 C399 1.433 . S
C398 C394 1.350 1_455 S
C398 C395 1.463 1_445 S
C398 N402 1.427 . S
C399 H389 0.929 . S
C399 C397 1.433 . S
C399 N402 1.384 . S
C400 H391 0.929 . S
C400 C392 1.378 1_455 S
C400 C395 1.350 1_455 S
C401 H388 0.929 . S
C401 C393 1.433 . S
C401 N403 1.384 . S
N402 C398 1.427 . S
N402 C399 1.384 . S
N403 C395 1.427 . S
N403 C401 1.384 . S
H404 C410 0.930 . S
H405 C414 0.930 . S
H406 C419 0.929 . S
H407 C417 0.929 . S
H408 C412 0.929 . S
H409 C418 0.929 . S
C410 H404 0.930 . S
C410 C411 1.367 . S
C410 C418 1.378 . S
C411 C410 1.367 . S
C411 C419 1.433 . S
C412 H408 0.929 . S
C412 C414 1.378 . S
C412 C416 1.350 . S
C413 C416 1.463 1_455 S
C413 C418 1.350 . S
C413 N421 1.427 . S
C414 H405 0.930 . S
C414 C412 1.378 . S
C414 C415 1.367 . S
C415 C414 1.367 . S
C415 C417 1.433 . S
C416 C412 1.350 . S
C416 C413 1.463 1_655 S
C416 N420 1.427 . S
C417 H407 0.929 . S
C417 C415 1.433 . S
C417 N420 1.384 . S
C418 H409 0.929 . S
C418 C410 1.378 . S
C418 C413 1.350 . S
C419 H406 0.929 . S
C419 C411 1.433 . S
C419 N421 1.384 . S
N420 C416 1.427 . S
N420 C417 1.384 . S
N421 C413 1.427 . S
N421 C419 1.384 . S
H422 C428 0.930 . S
H423 C432 0.930 . S
H424 C437 0.929 . S
H425 C435 0.929 . S
H426 C430 0.929 . S
H427 C436 0.929 . S
C428 H422 0.930 . S
C428 C429 1.367 . S
C428 C436 1.378 . S
C429 C428 1.367 . S
C429 C437 1.433 . S
C430 H426 0.929 . S
C430 C432 1.378 . S
C430 C434 1.350 . S
C431 C434 1.463 . S
C431 C436 1.350 . S
C431 N439 1.427 . S
C432 H423 0.930 . S
C432 C430 1.378 . S
C432 C433 1.367 . S
C433 C432 1.367 . S
C433 C435 1.433 . S
C434 C430 1.350 . S
C434 C431 1.463 . S
C434 N438 1.427 . S
C435 H425 0.929 . S
C435 C433 1.433 . S
C435 N438 1.384 . S
C436 H427 0.929 . S
C436 C428 1.378 . S
C436 C431 1.350 . S
C437 H424 0.929 . S
C437 C429 1.433 . S
C437 N439 1.384 . S
N438 C434 1.427 . S
N438 C435 1.384 . S
N439 C431 1.427 . S
N439 C437 1.384 . S
H440 C446 0.930 . S
H441 C450 0.930 . S
H442 C455 0.929 . S
H443 C453 0.929 . S
H444 C448 0.929 . S
H445 C454 0.929 . S
C446 H440 0.930 . S
C446 C447 1.367 . S
C446 C454 1.378 . S
C447 C446 1.367 . S
C447 C455 1.433 . S
C448 H444 0.929 . S
C448 C450 1.378 . S
C448 C452 1.350 . S
C449 C452 1.463 . S
C449 C454 1.350 . S
C449 N457 1.427 . S
C450 H441 0.930 . S
C450 C448 1.378 . S
C450 C451 1.367 . S
C451 C450 1.367 . S
C451 C453 1.433 . S
C452 C448 1.350 . S
C452 C449 1.463 . S
C452 N456 1.427 . S
C453 H443 0.929 . S
C453 C451 1.433 . S
C453 N456 1.384 . S
C454 H445 0.929 . S
C454 C446 1.378 . S
C454 C449 1.350 . S
C455 H442 0.929 . S
C455 C447 1.433 . S
C455 N457 1.384 . S
N456 C452 1.427 . S
N456 C453 1.384 . S
N457 C449 1.427 . S
N457 C455 1.384 . S
H458 C464 0.930 . S
H459 C468 0.930 . S
H460 C473 0.929 . S
H461 C471 0.929 . S
H462 C466 0.929 . S
H463 C472 0.929 . S
C464 H458 0.930 . S
C464 C465 1.367 . S
C464 C472 1.378 . S
C465 C464 1.367 . S
C465 C473 1.433 . S
C466 H462 0.929 . S
C466 C468 1.378 . S
C466 C470 1.350 . S
C467 C470 1.463 1_565 S
C467 C472 1.350 . S
C467 N475 1.427 . S
C468 H459 0.930 . S
C468 C466 1.378 . S
C468 C469 1.367 . S
C469 C468 1.367 . S
C469 C471 1.433 . S
C470 C466 1.350 . S
C470 C467 1.463 1_545 S
C470 N474 1.427 . S
C471 H461 0.929 . S
C471 C469 1.433 . S
C471 N474 1.384 . S
C472 H463 0.929 . S
C472 C464 1.378 . S
C472 C467 1.350 . S
C473 H460 0.929 . S
C473 C465 1.433 . S
C473 N475 1.384 . S
N474 C470 1.427 . S
N474 C471 1.384 . S
N475 C467 1.427 . S
N475 C473 1.384 . S
H476 C482 0.930 . S
H477 C486 0.930 . S
H478 C491 0.929 . S
H479 C489 0.929 . S
H480 C484 0.929 1_565 S
H481 C490 0.929 1_545 S
C482 H476 0.930 . S
C482 C483 1.367 . S
C482 C490 1.378 . S
C483 C482 1.367 . S
C483 C491 1.433 . S
C484 H480 0.929 1_545 S
C484 C486 1.378 . S
C484 C488 1.350 . S
C485 C488 1.463 1_665 S
C485 C490 1.350 . S
C485 N493 1.427 . S
C486 H477 0.930 . S
C486 C484 1.378 . S
C486 C487 1.367 . S
C487 C486 1.367 . S
C487 C489 1.433 . S
C488 C484 1.350 . S
C488 C485 1.463 1_445 S
C488 N492 1.427 . S
C489 H479 0.929 . S
C489 C487 1.433 . S
C489 N492 1.384 . S
C490 H481 0.929 1_565 S
C490 C482 1.378 . S
C490 C485 1.350 . S
C491 H478 0.929 . S
C491 C483 1.433 . S
C491 N493 1.384 . S
N492 C488 1.427 . S
N492 C489 1.384 . S
N493 C485 1.427 . S
N493 C491 1.384 . S
H494 C500 0.930 . S
H495 C504 0.930 . S
H496 C509 0.929 . S
H497 C507 0.929 . S
H498 C502 0.929 . S
H499 C508 0.929 . S
C500 H494 0.930 . S
C500 C501 1.367 . S
C500 C508 1.378 . S
C501 C500 1.367 . S
C501 C509 1.433 . S
C502 H498 0.929 . S
C502 C504 1.378 . S
C502 C506 1.350 . S
C503 C506 1.463 1_455 S
C503 C508 1.350 . S
C503 N511 1.427 1_455 S
C504 H495 0.930 . S
C504 C502 1.378 . S
C504 C505 1.367 . S
C505 C504 1.367 . S
C505 C507 1.433 . S
C506 C502 1.350 . S
C506 C503 1.463 1_655 S
C506 N510 1.427 1_655 S
C507 H497 0.929 . S
C507 C505 1.433 . S
C507 N510 1.384 1_655 S
C508 H499 0.929 . S
C508 C500 1.378 . S
C508 C503 1.350 . S
C509 H496 0.929 . S
C509 C501 1.433 . S
C509 N511 1.384 1_455 S
N510 C506 1.427 1_455 S
N510 C507 1.384 1_455 S
N511 C503 1.427 1_655 S
N511 C509 1.384 1_655 S
H512 C518 0.930 . S
H513 C522 0.930 . S
H514 C527 0.929 . S
H515 C525 0.929 . S
H516 C520 0.929 . S
H517 C526 0.929 . S
C518 H512 0.930 . S
C518 C519 1.367 . S
C518 C526 1.378 . S
C519 C518 1.367 . S
C519 C527 1.433 . S
C520 H516 0.929 . S
C520 C522 1.378 . S
C520 C524 1.350 . S
C521 C524 1.463 . S
C521 C526 1.350 . S
C521 N529 1.427 . S
C522 H513 0.930 . S
C522 C520 1.378 . S
C522 C523 1.367 . S
C523 C522 1.367 . S
C523 C525 1.433 . S
C524 C520 1.350 . S
C524 C521 1.463 . S
C524 N528 1.427 . S
C525 H515 0.929 . S
C525 C523 1.433 . S
C525 N528 1.384 . S
C526 H517 0.929 . S
C526 C518 1.378 . S
C526 C521 1.350 . S
C527 H514 0.929 . S
C527 C519 1.433 . S
C527 N529 1.384 . S
N528 C524 1.427 . S
N528 C525 1.384 . S
N529 C521 1.427 . S
N529 C527 1.384 . S
H530 C536 0.930 . S
H531 C540 0.930 . S
H532 C545 0.929 . S
H533 C543 0.929 . S
H534 C538 0.929 . S
H535 C544 0.929 . S
C536 H530 0.930 . S
C536 C537 1.367 . S
C536 C544 1.378 . S
C537 C536 1.367 . S
C537 C545 1.433 . S
C538 H534 0.929 . S
C538 C540 1.378 . S
C538 C542 1.350 . S
C539 C542 1.463 . S
C539 C544 1.350 . S
C539 N547 1.427 . S
C540 H531 0.930 . S
C540 C538 1.378 . S
C540 C541 1.367 . S
C541 C540 1.367 . S
C541 C543 1.433 . S
C542 C538 1.350 . S
C542 C539 1.463 . S
C542 N546 1.427 . S
C543 H533 0.929 . S
C543 C541 1.433 . S
C543 N546 1.384 . S
C544 H535 0.929 . S
C544 C536 1.378 . S
C544 C539 1.350 . S
C545 H532 0.929 . S
C545 C537 1.433 . S
C545 N547 1.384 . S
N546 C542 1.427 . S
N546 C543 1.384 . S
N547 C539 1.427 . S
N547 C545 1.384 . S
H548 C554 0.930 . S
H549 C558 0.930 . S
H550 C563 0.929 . S
H551 C561 0.929 . S
H552 C556 0.929 . S
H553 C562 0.929 . S
C554 H548 0.930 . S
C554 C555 1.367 . S
C554 C562 1.378 . S
C555 C554 1.367 . S
C555 C563 1.433 . S
C556 H552 0.929 . S
C556 C558 1.378 . S
C556 C560 1.350 . S
C557 C560 1.463 . S
C557 C562 1.350 . S
C557 N565 1.427 . S
C558 H549 0.930 . S
C558 C556 1.378 . S
C558 C559 1.367 . S
C559 C558 1.367 . S
C559 C561 1.433 . S
C560 C556 1.350 . S
C560 C557 1.463 . S
C560 N564 1.427 . S
C561 H551 0.929 . S
C561 C559 1.433 . S
C561 N564 1.384 . S
C562 H553 0.929 . S
C562 C554 1.378 . S
C562 C557 1.350 . S
C563 H550 0.929 . S
C563 C555 1.433 . S
C563 N565 1.384 . S
N564 C560 1.427 . S
N564 C561 1.384 . S
N565 C557 1.427 . S
N565 C563 1.384 . S
H566 C572 0.930 . S
H567 C576 0.930 . S
H568 C581 0.929 . S
H569 C579 0.929 . S
H570 C574 0.929 . S
H571 C580 0.929 . S
C572 H566 0.930 . S
C572 C573 1.367 . S
C572 C580 1.378 . S
C573 C572 1.367 . S
C573 C581 1.433 . S
C574 H570 0.929 . S
C574 C576 1.378 . S
C574 C578 1.350 . S
C575 C578 1.463 . S
C575 C580 1.350 . S
C575 N583 1.427 . S
C576 H567 0.930 . S
C576 C574 1.378 . S
C576 C577 1.367 . S
C577 C576 1.367 . S
C577 C579 1.433 . S
C578 C574 1.350 . S
C578 C575 1.463 . S
C578 N582 1.427 . S
C579 H569 0.929 . S
C579 C577 1.433 . S
C579 N582 1.384 . S
C580 H571 0.929 . S
C580 C572 1.378 . S
C580 C575 1.350 . S
C581 H568 0.929 . S
C581 C573 1.433 . S
C581 N583 1.384 . S
N582 C578 1.427 . S
N582 C579 1.384 . S
N583 C575 1.427 . S
N583 C581 1.384 . S
H584 C590 0.930 . S
H585 C594 0.930 . S
H586 C599 0.929 . S
H587 C597 0.929 . S
H588 C592 0.929 . S
H589 C598 0.929 . S
C590 H584 0.930 . S
C590 C591 1.367 . S
C590 C598 1.378 . S
C591 C590 1.367 . S
C591 C599 1.433 . S
C592 H588 0.929 . S
C592 C594 1.378 . S
C592 C596 1.350 . S
C593 C596 1.463 . S
C593 C598 1.350 . S
C593 N601 1.427 . S
C594 H585 0.930 . S
C594 C592 1.378 . S
C594 C595 1.367 . S
C595 C594 1.367 . S
C595 C597 1.433 . S
C596 C592 1.350 . S
C596 C593 1.463 . S
C596 N600 1.427 . S
C597 H587 0.929 . S
C597 C595 1.433 . S
C597 N600 1.384 . S
C598 H589 0.929 . S
C598 C590 1.378 . S
C598 C593 1.350 . S
C599 H586 0.929 . S
C599 C591 1.433 . S
C599 N601 1.384 . S
N600 C596 1.427 . S
N600 C597 1.384 . S
N601 C593 1.427 . S
N601 C599 1.384 . S
H602 C608 0.930 . S
H603 C612 0.930 . S
H604 C617 0.929 . S
H605 C615 0.929 . S
H606 C610 0.929 . S
H607 C616 0.929 . S
C608 H602 0.930 . S
C608 C609 1.367 . S
C608 C616 1.378 . S
C609 C608 1.367 . S
C609 C617 1.433 . S
C610 H606 0.929 . S
C610 C612 1.378 . S
C610 C614 1.350 . S
C611 C614 1.463 . S
C611 C616 1.350 . S
C611 N619 1.427 . S
C612 H603 0.930 . S
C612 C610 1.378 . S
C612 C613 1.367 . S
C613 C612 1.367 . S
C613 C615 1.433 . S
C614 C610 1.350 . S
C614 C611 1.463 . S
C614 N618 1.427 . S
C615 H605 0.929 . S
C615 C613 1.433 . S
C615 N618 1.384 . S
C616 H607 0.929 . S
C616 C608 1.378 . S
C616 C611 1.350 . S
C617 H604 0.929 . S
C617 C609 1.433 . S
C617 N619 1.384 . S
N618 C614 1.427 . S
N618 C615 1.384 . S
N619 C611 1.427 . S
N619 C617 1.384 . S
H620 C626 0.930 . S
H621 C630 0.930 . S
H622 C635 0.929 . S
H623 C633 0.929 . S
H624 C628 0.929 . S
H625 C634 0.929 . S
C626 H620 0.930 . S
C626 C627 1.367 . S
C626 C634 1.378 . S
C627 C626 1.367 . S
C627 C635 1.433 . S
C628 H624 0.929 . S
C628 C630 1.378 . S
C628 C632 1.350 . S
C629 C632 1.463 . S
C629 C634 1.350 . S
C629 N637 1.427 . S
C630 H621 0.930 . S
C630 C628 1.378 . S
C630 C631 1.367 . S
C631 C630 1.367 . S
C631 C633 1.433 . S
C632 C628 1.350 . S
C632 C629 1.463 . S
C632 N636 1.427 . S
C633 H623 0.929 . S
C633 C631 1.433 . S
C633 N636 1.384 . S
C634 H625 0.929 . S
C634 C626 1.378 . S
C634 C629 1.350 . S
C635 H622 0.929 . S
C635 C627 1.433 . S
C635 N637 1.384 . S
N636 C632 1.427 . S
N636 C633 1.384 . S
N637 C629 1.427 . S
N637 C635 1.384 . S
H638 C644 0.930 . S
H639 C648 0.930 . S
H640 C653 0.929 . S
H641 C651 0.929 . S
H642 C646 0.929 . S
H643 C652 0.929 . S
C644 H638 0.930 . S
C644 C645 1.367 . S
C644 C652 1.378 . S
C645 C644 1.367 . S
C645 C653 1.433 . S
C646 H642 0.929 . S
C646 C648 1.378 . S
C646 C650 1.350 . S
C647 C650 1.463 . S
C647 C652 1.350 . S
C647 N655 1.427 . S
C648 H639 0.930 . S
C648 C646 1.378 . S
C648 C649 1.367 . S
C649 C648 1.367 . S
C649 C651 1.433 . S
C650 C646 1.350 . S
C650 C647 1.463 . S
C650 N654 1.427 . S
C651 H641 0.929 . S
C651 C649 1.433 . S
C651 N654 1.384 . S
C652 H643 0.929 . S
C652 C644 1.378 . S
C652 C647 1.350 . S
C653 H640 0.929 . S
C653 C645 1.433 . S
C653 N655 1.384 . S
N654 C650 1.427 . S
N654 C651 1.384 . S
N655 C647 1.427 . S
N655 C653 1.384 . S
H656 C662 0.930 . S
H657 C666 0.930 . S
H658 C671 0.929 . S
H659 C669 0.929 . S
H660 C664 0.929 . S
H661 C670 0.929 . S
C662 H656 0.930 . S
C662 C663 1.367 . S
C662 C670 1.378 . S
C663 C662 1.367 . S
C663 C671 1.433 . S
C664 H660 0.929 . S
C664 C666 1.378 . S
C664 C668 1.350 . S
C665 C668 1.463 . S
C665 C670 1.350 . S
C665 N673 1.427 . S
C666 H657 0.930 . S
C666 C664 1.378 . S
C666 C667 1.367 . S
C667 C666 1.367 . S
C667 C669 1.433 . S
C668 C664 1.350 . S
C668 C665 1.463 . S
C668 N672 1.427 . S
C669 H659 0.929 . S
C669 C667 1.433 . S
C669 N672 1.384 . S
C670 H661 0.929 . S
C670 C662 1.378 . S
C670 C665 1.350 . S
C671 H658 0.929 . S
C671 C663 1.433 . S
C671 N673 1.384 . S
N672 C668 1.427 . S
N672 C669 1.384 . S
N673 C665 1.427 . S
N673 C671 1.384 . S
H674 C680 0.930 . S
H675 C684 0.930 . S
H676 C689 0.929 . S
H677 C687 0.929 . S
H678 C682 0.929 . S
H679 C688 0.929 . S
C680 H674 0.930 . S
C680 C681 1.367 . S
C680 C688 1.378 . S
C681 C680 1.367 . S
C681 C689 1.433 . S
C682 H678 0.929 . S
C682 C684 1.378 . S
C682 C686 1.350 . S
C683 C686 1.463 . S
C683 C688 1.350 . S
C683 N691 1.427 . S
C684 H675 0.930 . S
C684 C682 1.378 . S
C684 C685 1.367 . S
C685 C684 1.367 . S
C685 C687 1.433 . S
C686 C682 1.350 . S
C686 C683 1.463 . S
C686 N690 1.427 . S
C687 H677 0.929 . S
C687 C685 1.433 . S
C687 N690 1.384 . S
C688 H679 0.929 . S
C688 C680 1.378 . S
C688 C683 1.350 . S
C689 H676 0.929 . S
C689 C681 1.433 . S
C689 N691 1.384 . S
N690 C686 1.427 . S
N690 C687 1.384 . S
N691 C683 1.427 . S
N691 C689 1.384 . S
H692 C698 0.930 . S
H693 C702 0.930 . S
H694 C707 0.929 . S
H695 C705 0.929 . S
H696 C700 0.929 . S
H697 C706 0.929 . S
C698 H692 0.930 . S
C698 C699 1.367 . S
C698 C706 1.378 . S
C699 C698 1.367 . S
C699 C707 1.433 . S
C700 H696 0.929 . S
C700 C702 1.378 . S
C700 C704 1.350 . S
C701 C704 1.463 . S
C701 C706 1.350 . S
C701 N709 1.427 . S
C702 H693 0.930 . S
C702 C700 1.378 . S
C702 C703 1.367 . S
C703 C702 1.367 . S
C703 C705 1.433 . S
C704 C700 1.350 . S
C704 C701 1.463 . S
C704 N708 1.427 . S
C705 H695 0.929 . S
C705 C703 1.433 . S
C705 N708 1.384 . S
C706 H697 0.929 . S
C706 C698 1.378 . S
C706 C701 1.350 . S
C707 H694 0.929 . S
C707 C699 1.433 . S
C707 N709 1.384 . S
N708 C704 1.427 . S
N708 C705 1.384 . S
N709 C701 1.427 . S
N709 C707 1.384 . S
H710 C716 0.930 . S
H711 C720 0.930 . S
H712 C725 0.929 . S
H713 C723 0.929 . S
H714 C718 0.929 . S
H715 C724 0.929 . S
C716 H710 0.930 . S
C716 C717 1.367 . S
C716 C724 1.378 . S
C717 C716 1.367 . S
C717 C725 1.433 . S
C718 H714 0.929 . S
C718 C720 1.378 . S
C718 C722 1.350 . S
C719 C722 1.463 1_556 S
C719 C724 1.350 . S
C719 N727 1.427 . S
C720 H711 0.930 . S
C720 C718 1.378 . S
C720 C721 1.367 . S
C721 C720 1.367 . S
C721 C723 1.433 . S
C722 C718 1.350 . S
C722 C719 1.463 1_554 S
C722 N726 1.427 . S
C723 H713 0.929 . S
C723 C721 1.433 . S
C723 N726 1.384 . S
C724 H715 0.929 . S
C724 C716 1.378 . S
C724 C719 1.350 . S
C725 H712 0.929 . S
C725 C717 1.433 . S
C725 N727 1.384 . S
N726 C722 1.427 . S
N726 C723 1.384 . S
N727 C719 1.427 . S
N727 C725 1.384 . S
H728 C734 0.930 . S
H729 C738 0.930 . S
H730 C743 0.929 . S
H731 C741 0.929 . S
H732 C736 0.929 . S
H733 C742 0.929 . S
C734 H728 0.930 . S
C734 C735 1.367 . S
C734 C742 1.378 . S
C735 C734 1.367 . S
C735 C743 1.433 . S
C736 H732 0.929 . S
C736 C738 1.378 . S
C736 C740 1.350 . S
C737 C740 1.463 1_554 S
C737 C742 1.350 . S
C737 N745 1.427 . S
C738 H729 0.930 . S
C738 C736 1.378 . S
C738 C739 1.367 . S
C739 C738 1.367 . S
C739 C741 1.433 . S
C740 C736 1.350 . S
C740 C737 1.463 1_556 S
C740 N744 1.427 . S
C741 H731 0.929 . S
C741 C739 1.433 . S
C741 N744 1.384 . S
C742 H733 0.929 . S
C742 C734 1.378 . S
C742 C737 1.350 . S
C743 H730 0.929 . S
C743 C735 1.433 . S
C743 N745 1.384 . S
N744 C740 1.427 . S
N744 C741 1.384 . S
N745 C737 1.427 . S
N745 C743 1.384 . S
H746 C752 0.930 . S
H747 C756 0.930 . S
H748 C761 0.929 . S
H749 C759 0.929 . S
H750 C754 0.929 . S
H751 C760 0.929 . S
C752 H746 0.930 . S
C752 C753 1.367 . S
C752 C760 1.378 . S
C753 C752 1.367 . S
C753 C761 1.433 . S
C754 H750 0.929 . S
C754 C756 1.378 . S
C754 C758 1.350 . S
C755 C758 1.463 . S
C755 C760 1.350 . S
C755 N763 1.427 . S
C756 H747 0.930 . S
C756 C754 1.378 . S
C756 C757 1.367 . S
C757 C756 1.367 . S
C757 C759 1.433 . S
C758 C754 1.350 . S
C758 C755 1.463 . S
C758 N762 1.427 . S
C759 H749 0.929 . S
C759 C757 1.433 . S
C759 N762 1.384 . S
C760 H751 0.929 . S
C760 C752 1.378 . S
C760 C755 1.350 . S
C761 H748 0.929 . S
C761 C753 1.433 . S
C761 N763 1.384 . S
N762 C758 1.427 . S
N762 C759 1.384 . S
N763 C755 1.427 . S
N763 C761 1.384 . S
H764 C770 0.930 . S
H765 C774 0.930 . S
H766 C779 0.929 . S
H767 C777 0.929 . S
H768 C772 0.929 . S
H769 C778 0.929 . S
C770 H764 0.930 . S
C770 C771 1.367 . S
C770 C778 1.378 . S
C771 C770 1.367 . S
C771 C779 1.433 . S
C772 H768 0.929 . S
C772 C774 1.378 . S
C772 C776 1.350 . S
C773 C776 1.463 . S
C773 C778 1.350 . S
C773 N781 1.427 . S
C774 H765 0.930 . S
C774 C772 1.378 . S
C774 C775 1.367 . S
C775 C774 1.367 . S
C775 C777 1.433 . S
C776 C772 1.350 . S
C776 C773 1.463 . S
C776 N780 1.427 . S
C777 H767 0.929 . S
C777 C775 1.433 . S
C777 N780 1.384 . S
C778 H769 0.929 . S
C778 C770 1.378 . S
C778 C773 1.350 . S
C779 H766 0.929 . S
C779 C771 1.433 . S
C779 N781 1.384 . S
N780 C776 1.427 . S
N780 C777 1.384 . S
N781 C773 1.427 . S
N781 C779 1.384 . S
H782 C788 0.930 . S
H783 C792 0.930 . S
H784 C797 0.929 . S
H785 C795 0.929 . S
H786 C790 0.929 . S
H787 C796 0.929 . S
C788 H782 0.930 . S
C788 C789 1.367 . S
C788 C796 1.378 . S
C789 C788 1.367 . S
C789 C797 1.433 . S
C790 H786 0.929 . S
C790 C792 1.378 . S
C790 C794 1.350 . S
C791 C794 1.463 . S
C791 C796 1.350 . S
C791 N799 1.427 . S
C792 H783 0.930 . S
C792 C790 1.378 . S
C792 C793 1.367 . S
C793 C792 1.367 . S
C793 C795 1.433 . S
C794 C790 1.350 . S
C794 C791 1.463 . S
C794 N798 1.427 . S
C795 H785 0.929 . S
C795 C793 1.433 . S
C795 N798 1.384 . S
C796 H787 0.929 . S
C796 C788 1.378 . S
C796 C791 1.350 . S
C797 H784 0.929 . S
C797 C789 1.433 . S
C797 N799 1.384 . S
N798 C794 1.427 . S
N798 C795 1.384 . S
N799 C791 1.427 . S
N799 C797 1.384 . S
C231 C151 1.521 . S
C235 C11 1.518 . S
C249 C25 1.514 . S
C253 C165 1.518 . S
C267 C123 1.515 . S
C271 C39 1.519 . S
C285 C137 1.520 . S
C289 C53 1.516 . S
C303 C67 1.518 . S
C307 C207 1.520 . S
C321 C221 1.519 . S
C325 C81 1.521 . S
C339 C95 1.513 . S
C343 C179 1.515 . S
C357 C193 1.519 . S
C361 C109 1.521 . S
C375 C145 1.558 . S
C379 C5 1.558 . S
C393 C19 1.559 . S
C397 C159 1.559 . S
C411 C33 1.558 . S
C415 C117 1.558 . S
C429 C47 1.559 . S
C433 C131 1.559 . S
C447 C61 1.559 . S
C451 C201 1.559 . S
C465 C75 1.558 . S
C469 C215 1.558 . S
C483 C173 1.559 . S
C487 C89 1.559 . S
C501 C187 1.558 . S
C505 C103 1.558 . S
C519 C9 1.239 . S
C523 C93 1.253 . S
C537 C23 1.240 . S
C541 C107 1.248 . S
C555 C37 1.243 . S
C559 C65 1.249 . S
C573 C51 1.250 . S
C577 C79 1.243 . S
C591 C121 1.245 . S
C595 C205 1.243 . S
C609 C219 1.239 . S
C613 C135 1.249 . S
C627 C149 1.249 . S
C631 C177 1.239 . S
C645 C191 1.251 . S
C649 C163 1.242 . S
C663 C0 1.248 . S
C667 C210 1.249 . S
C681 C168 1.246 . S
C685 C14 1.245 . S
C699 C182 1.253 . S
C703 C28 1.241 . S
C717 C196 1.251 . S
C721 C42 1.246 . S
C735 C126 1.253 . S
C739 C56 1.241 . S
C753 C140 1.245 . S
C757 C70 1.247 . S
C771 C84 1.250 . S
C775 C154 1.248 . S
C789 C98 1.244 . S
C793 C112 1.247 . S
