# Generated by pormake.
# Topology wgt, (5)-cn, num edge types: 1
# Building blocks:
#     Node 0, Type 0, BuildingBlock: BEQFEK_clean_sbu_0, # of connection points: 5
#     Node 1, Type 0, BuildingBlock: BEQFEK_clean_sbu_0, # of connection points: 5
#     Node 2, Type 0, BuildingBlock: BEQFEK_clean_sbu_0, # of connection points: 5
#     Node 3, Type 0, BuildingBlock: BEQFEK_clean_sbu_0, # of connection points: 5
#     Node 4, Type 0, BuildingBlock: BEQFEK_clean_sbu_0, # of connection points: 5
#     Node 5, Type 0, BuildingBlock: BEQFEK_clean_sbu_0, # of connection points: 5
#     Node 6, Type 0, BuildingBlock: BEQFEK_clean_sbu_0, # of connection points: 5
#     Node 7, Type 0, BuildingBlock: BEQFEK_clean_sbu_0, # of connection points: 5
#     Node 8, Type 0, BuildingBlock: BEQFEK_clean_sbu_0, # of connection points: 5
#     Node 9, Type 0, BuildingBlock: BEQFEK_clean_sbu_0, # of connection points: 5
#     Node 10, Type 0, BuildingBlock: BEQFEK_clean_sbu_0, # of connection points: 5
#     Node 11, Type 0, BuildingBlock: BEQFEK_clean_sbu_0, # of connection points: 5
#     Node 12, Type 0, BuildingBlock: BEQFEK_clean_sbu_0, # of connection points: 5
#     Node 13, Type 0, BuildingBlock: BEQFEK_clean_sbu_0, # of connection points: 5
#     Node 14, Type 0, BuildingBlock: BEQFEK_clean_sbu_0, # of connection points: 5
#     Node 15, Type 0, BuildingBlock: BEQFEK_clean_sbu_0, # of connection points: 5
#     Edge 16, Type (0, 0), BuildingBlock: UVAHIK_clean_linker_0, # of connection points: 2
#     Edge 17, Type (0, 0), BuildingBlock: UVAHIK_clean_linker_0, # of connection points: 2
#     Edge 18, Type (0, 0), BuildingBlock: UVAHIK_clean_linker_0, # of connection points: 2
#     Edge 19, Type (0, 0), BuildingBlock: UVAHIK_clean_linker_0, # of connection points: 2
#     Edge 20, Type (0, 0), BuildingBlock: UVAHIK_clean_linker_0, # of connection points: 2
#     Edge 21, Type (0, 0), BuildingBlock: UVAHIK_clean_linker_0, # of connection points: 2
#     Edge 22, Type (0, 0), BuildingBlock: UVAHIK_clean_linker_0, # of connection points: 2
#     Edge 23, Type (0, 0), BuildingBlock: UVAHIK_clean_linker_0, # of connection points: 2
#     Edge 24, Type (0, 0), BuildingBlock: UVAHIK_clean_linker_0, # of connection points: 2
#     Edge 25, Type (0, 0), BuildingBlock: UVAHIK_clean_linker_0, # of connection points: 2
#     Edge 26, Type (0, 0), BuildingBlock: UVAHIK_clean_linker_0, # of connection points: 2
#     Edge 27, Type (0, 0), BuildingBlock: UVAHIK_clean_linker_0, # of connection points: 2
#     Edge 28, Type (0, 0), BuildingBlock: UVAHIK_clean_linker_0, # of connection points: 2
#     Edge 29, Type (0, 0), BuildingBlock: UVAHIK_clean_linker_0, # of connection points: 2
#     Edge 30, Type (0, 0), BuildingBlock: UVAHIK_clean_linker_0, # of connection points: 2
#     Edge 31, Type (0, 0), BuildingBlock: UVAHIK_clean_linker_0, # of connection points: 2
#     Edge 32, Type (0, 0), BuildingBlock: UVAHIK_clean_linker_0, # of connection points: 2
#     Edge 33, Type (0, 0), BuildingBlock: UVAHIK_clean_linker_0, # of connection points: 2
#     Edge 34, Type (0, 0), BuildingBlock: UVAHIK_clean_linker_0, # of connection points: 2
#     Edge 35, Type (0, 0), BuildingBlock: UVAHIK_clean_linker_0, # of connection points: 2
#     Edge 36, Type (0, 0), BuildingBlock: UVAHIK_clean_linker_0, # of connection points: 2
#     Edge 37, Type (0, 0), BuildingBlock: UVAHIK_clean_linker_0, # of connection points: 2
#     Edge 38, Type (0, 0), BuildingBlock: UVAHIK_clean_linker_0, # of connection points: 2
#     Edge 39, Type (0, 0), BuildingBlock: UVAHIK_clean_linker_0, # of connection points: 2
#     Edge 40, Type (0, 0), BuildingBlock: UVAHIK_clean_linker_0, # of connection points: 2
#     Edge 41, Type (0, 0), BuildingBlock: UVAHIK_clean_linker_0, # of connection points: 2
#     Edge 42, Type (0, 0), BuildingBlock: UVAHIK_clean_linker_0, # of connection points: 2
#     Edge 43, Type (0, 0), BuildingBlock: UVAHIK_clean_linker_0, # of connection points: 2
#     Edge 44, Type (0, 0), BuildingBlock: UVAHIK_clean_linker_0, # of connection points: 2
#     Edge 45, Type (0, 0), BuildingBlock: UVAHIK_clean_linker_0, # of connection points: 2
#     Edge 46, Type (0, 0), BuildingBlock: UVAHIK_clean_linker_0, # of connection points: 2
#     Edge 47, Type (0, 0), BuildingBlock: UVAHIK_clean_linker_0, # of connection points: 2
#     Edge 48, Type (0, 0), BuildingBlock: UVAHIK_clean_linker_0, # of connection points: 2
#     Edge 49, Type (0, 0), BuildingBlock: UVAHIK_clean_linker_0, # of connection points: 2
#     Edge 50, Type (0, 0), BuildingBlock: UVAHIK_clean_linker_0, # of connection points: 2
#     Edge 51, Type (0, 0), BuildingBlock: UVAHIK_clean_linker_0, # of connection points: 2
#     Edge 52, Type (0, 0), BuildingBlock: UVAHIK_clean_linker_0, # of connection points: 2
#     Edge 53, Type (0, 0), BuildingBlock: UVAHIK_clean_linker_0, # of connection points: 2
#     Edge 54, Type (0, 0), BuildingBlock: UVAHIK_clean_linker_0, # of connection points: 2
#     Edge 55, Type (0, 0), BuildingBlock: UVAHIK_clean_linker_0, # of connection points: 2
# Relax obj value: 0.140
# Max RMSD: 0.186
# Mean RMSD: 0.186
data_MOF--net-wgt--node1-BEQFEK_clean_sbu_0--edge1-UVAHIK_clean_linker_0
_symmetry_space_group_name_H-M    P1
_symmetry_Int_Tables_number       1
_symmetry_cell_setting            triclinic
loop_
_symmetry_equiv_pos_as_xyz
'x, y, z'
_cell_length_a     37.221939
_cell_length_b     37.189665
_cell_length_c     93.582736
_cell_angle_alpha  89.994378
_cell_angle_beta   90.012256
_cell_angle_gamma 89.971024
loop_
_atom_site_label
_atom_site_type_symbol
_atom_site_fract_x
_atom_site_fract_y
_atom_site_fract_z
_atom_type_partial_charge
Co0 Co 0.17598 0.3207 0.02945 0.0
Co1 Co 0.18027 0.31741 0.99596 0.0
C2 C 0.14142 0.26118 0.01196 0.0
O3 O 0.14854 0.27722 0.02365 0.0
O4 O 0.1531 0.27302 8e-05 0.0
C5 C 0.19399 0.28906 0.05574 0.0
O6 O 0.2014 0.26208 0.04716 0.0
C7 C 0.18489 0.29766 0.9654 0.0
C8 C 0.21037 0.34626 0.95633 0.0
C9 C 0.19749 0.31252 0.95273 0.0
N10 N 0.19071 0.32135 0.97601 0.0
N11 N 0.20574 0.35038 0.9705 0.0
C12 C 0.16467 0.26322 0.96729 0.0
H13 H 0.13964 0.26862 0.97334 0.0
H14 H 0.18123 0.24417 0.97362 0.0
H15 H 0.15726 0.2508 0.95694 0.0
C16 C 0.25477 0.32751 0.02592 0.0
N17 N 0.2215 0.32324 0.02053 0.0
N18 N 0.22365 0.31887 0.00662 0.0
C19 C 0.25857 0.3183 0.00279 0.0
C20 C 0.27958 0.32417 0.01488 0.0
C21 C 0.26229 0.33751 0.04113 0.0
H22 H 0.23984 0.35373 0.0455 0.0
H23 H 0.26504 0.31269 0.04761 0.0
H24 H 0.28755 0.35319 0.04199 0.0
O25 O 0.14683 0.36271 0.02444 0.0
O26 O 0.14849 0.35909 0.00075 0.0
H27 H 0.27375 0.33402 0.98167 0.0
H28 H 0.29824 0.29591 0.98848 0.0
C29 C 0.2715 0.30906 0.98809 0.0
H30 H 0.25227 0.29065 0.98277 0.0
H31 H 0.21292 0.37302 0.97643 0.0
O32 O 0.18198 0.31812 0.05043 0.0
C33 C 0.13742 0.37417 0.01217 0.0
Co34 Co 0.68677 0.67713 0.27617 0.0
Co35 Co 0.6842 0.67556 0.24258 0.0
C36 C 0.743 0.63897 0.25861 0.0
O37 O 0.73019 0.64922 0.27057 0.0
O38 O 0.72815 0.64777 0.24685 0.0
C39 C 0.70812 0.67099 0.30595 0.0
O40 O 0.7284 0.64409 0.30173 0.0
C41 C 0.70282 0.6803 0.21192 0.0
C42 C 0.64983 0.69299 0.2025 0.0
C43 C 0.68556 0.68734 0.19904 0.0
N44 N 0.67838 0.68221 0.22248 0.0
N45 N 0.64679 0.68973 0.21676 0.0
C46 C 0.74107 0.66927 0.2142 0.0
H47 H 0.74164 0.6434 0.22006 0.0
H48 H 0.75478 0.68967 0.22092 0.0
H49 H 0.75584 0.66566 0.20403 0.0
C50 C 0.67899 0.75498 0.27062 0.0
N51 N 0.68293 0.72092 0.26603 0.0
N52 N 0.6841 0.72066 0.252 0.0
C53 C 0.68229 0.75479 0.24719 0.0
C54 C 0.67864 0.77777 0.25884 0.0
C55 C 0.6726 0.76481 0.28593 0.0
H56 H 0.65415 0.74501 0.29089 0.0
H57 H 0.69849 0.76394 0.29181 0.0
H58 H 0.66061 0.79198 0.28699 0.0
O59 O 0.64441 0.64668 0.27262 0.0
O60 O 0.64288 0.64576 0.2489 0.0
H61 H 0.66005 0.7617 0.22632 0.0
H62 H 0.69502 0.79351 0.23068 0.0
C63 C 0.68623 0.76516 0.23181 0.0
H64 H 0.70631 0.74757 0.22657 0.0
H65 H 0.62313 0.6926 0.22262 0.0
O66 O 0.68896 0.68766 0.29688 0.0
C67 C 0.63027 0.63612 0.26097 0.0
Co68 Co 0.32337 0.18502 0.52946 0.0
Co69 Co 0.31974 0.18282 0.49586 0.0
C70 C 0.35734 0.24221 0.5109 0.0
O71 O 0.34949 0.22883 0.52304 0.0
O72 O 0.34709 0.22735 0.49934 0.0
C73 C 0.30482 0.2173 0.55591 0.0
O74 O 0.29675 0.24441 0.5475 0.0
C75 C 0.31209 0.20106 0.46524 0.0
C76 C 0.29508 0.14878 0.45626 0.0
C77 C 0.30254 0.18406 0.45257 0.0
N78 N 0.30988 0.17695 0.47592 0.0
N79 N 0.29972 0.14579 0.47047 0.0
C80 C 0.32615 0.23844 0.46714 0.0
H81 H 0.35319 0.237 0.47205 0.0
H82 H 0.30837 0.2534 0.47457 0.0
H83 H 0.32852 0.25317 0.4569 0.0
C84 C 0.24476 0.17609 0.52575 0.0
N85 N 0.2781 0.18036 0.52044 0.0
N86 N 0.27629 0.18227 0.50643 0.0
C87 C 0.24155 0.18102 0.5024 0.0
C88 C 0.22032 0.17667 0.51452 0.0
C89 C 0.2369 0.16861 0.54116 0.0
H90 H 0.25925 0.15319 0.54603 0.0
H91 H 0.23396 0.19445 0.54696 0.0
H92 H 0.21165 0.15304 0.54235 0.0
O93 O 0.35358 0.14299 0.52519 0.0
O94 O 0.35114 0.14183 0.50147 0.0
H95 H 0.22984 0.16087 0.48153 0.0
H96 H 0.2011 0.19736 0.48711 0.0
C97 C 0.22897 0.18681 0.48738 0.0
H98 H 0.2468 0.20623 0.48188 0.0
H99 H 0.29612 0.12242 0.47647 0.0
O100 O 0.3172 0.1886 0.55043 0.0
C101 C 0.3626 0.12912 0.51328 0.0
Co102 Co 0.81327 0.81598 0.77305 0.0
Co103 Co 0.82707 0.81699 0.73999 0.0
C104 C 0.76435 0.85556 0.75342 0.0
O105 O 0.77253 0.84483 0.76593 0.0
O106 O 0.78305 0.84659 0.74258 0.0
C107 C 0.81654 0.8262 0.80363 0.0
O108 O 0.83416 0.85578 0.80052 0.0
C109 C 0.80977 0.8044 0.71 0.0
C110 C 0.86331 0.8043 0.6998 0.0
C111 C 0.82699 0.80033 0.69696 0.0
N112 N 0.83474 0.81052 0.72006 0.0
N113 N 0.86669 0.81069 0.7139 0.0
C114 C 0.77061 0.80006 0.71314 0.0
H115 H 0.75715 0.82656 0.71208 0.0
H116 H 0.76678 0.79043 0.72427 0.0
H117 H 0.75798 0.78094 0.70555 0.0
C118 C 0.81552 0.73752 0.76776 0.0
N119 N 0.81703 0.77177 0.76313 0.0
N120 N 0.82396 0.77198 0.74936 0.0
C121 C 0.82806 0.73782 0.74482 0.0
C122 C 0.82274 0.71475 0.75633 0.0
C123 C 0.80533 0.72711 0.78267 0.0
H124 H 0.78235 0.74377 0.78628 0.0
H125 H 0.79764 0.69837 0.78341 0.0
H126 H 0.82834 0.73237 0.78992 0.0
O127 O 0.85789 0.84519 0.77096 0.0
O128 O 0.86761 0.84491 0.74755 0.0
H129 H 0.84921 0.69957 0.72946 0.0
H130 H 0.81685 0.73143 0.72257 0.0
C131 C 0.83971 0.72779 0.73004 0.0
H132 H 0.86188 0.74564 0.72659 0.0
H133 H 0.89081 0.81466 0.71935 0.0
O134 O 0.80535 0.80615 0.79358 0.0
C135 C 0.87633 0.85466 0.76011 0.0
Co136 Co 0.8157 0.31091 0.529 0.0
Co137 Co 0.81915 0.31284 0.49544 0.0
C138 C 0.85537 0.25473 0.51239 0.0
O139 O 0.84416 0.26784 0.52414 0.0
O140 O 0.84738 0.26926 0.50047 0.0
C141 C 0.81757 0.28907 0.55881 0.0
O142 O 0.84237 0.26594 0.55491 0.0
C143 C 0.80921 0.29122 0.46518 0.0
C144 C 0.81454 0.34388 0.45445 0.0
C145 C 0.80909 0.30764 0.45182 0.0
N146 N 0.81429 0.31675 0.47518 0.0
N147 N 0.8173 0.34813 0.46867 0.0
C148 C 0.80627 0.25188 0.46835 0.0
H149 H 0.81639 0.24564 0.47917 0.0
H150 H 0.77763 0.24375 0.46789 0.0
H151 H 0.82134 0.23598 0.4603 0.0
C152 C 0.73827 0.3157 0.52285 0.0
N153 N 0.77257 0.31308 0.51846 0.0
N154 N 0.77354 0.31394 0.50441 0.0
C155 C 0.73973 0.31742 0.49941 0.0
C156 C 0.71632 0.31856 0.51095 0.0
C157 C 0.72722 0.3179 0.53821 0.0
H158 H 0.74226 0.33994 0.5435 0.0
H159 H 0.73427 0.29237 0.54367 0.0
H160 H 0.69803 0.32307 0.53942 0.0
O161 O 0.84573 0.3537 0.52533 0.0
O162 O 0.84805 0.35472 0.50162 0.0
H163 H 0.74337 0.34262 0.47893 0.0
H164 H 0.70068 0.32085 0.48224 0.0
C165 C 0.73012 0.31902 0.4839 0.0
H166 H 0.74023 0.29452 0.47849 0.0
H167 H 0.82169 0.37245 0.47394 0.0
O168 O 0.80395 0.31008 0.54957 0.0
C169 C 0.85675 0.36775 0.51372 0.0
Co170 Co 0.6731 0.31313 0.77647 0.0
Co171 Co 0.66232 0.31869 0.74333 0.0
C172 C 0.7234 0.35581 0.75876 0.0
O173 O 0.71476 0.34314 0.77092 0.0
O174 O 0.70535 0.34821 0.7476 0.0
C175 C 0.68943 0.32136 0.80639 0.0
O176 O 0.70016 0.3537 0.80269 0.0
C177 C 0.68216 0.30721 0.71333 0.0
C178 C 0.63156 0.32093 0.70223 0.0
C179 C 0.66671 0.31013 0.69986 0.0
N180 N 0.65717 0.31568 0.72314 0.0
N181 N 0.62697 0.32371 0.71645 0.0
C182 C 0.72046 0.29873 0.71688 0.0
H183 H 0.72696 0.30684 0.72796 0.0
H184 H 0.72486 0.26932 0.71601 0.0
H185 H 0.73882 0.31239 0.70927 0.0
C186 C 0.67188 0.23535 0.76924 0.0
N187 N 0.67064 0.27028 0.76545 0.0
N188 N 0.66463 0.27254 0.75163 0.0
C189 C 0.66065 0.23918 0.74625 0.0
C190 C 0.66539 0.2144 0.7572 0.0
C191 C 0.68078 0.22259 0.784 0.0
H192 H 0.70246 0.23947 0.78859 0.0
H193 H 0.68968 0.19412 0.784 0.0
H194 H 0.65666 0.22533 0.79088 0.0
O195 O 0.62872 0.34288 0.77425 0.0
O196 O 0.62072 0.3449 0.75075 0.0
H197 H 0.62953 0.25183 0.7276 0.0
H198 H 0.63657 0.20441 0.73037 0.0
C199 C 0.64914 0.23136 0.73123 0.0
H200 H 0.67291 0.23227 0.72411 0.0
H201 H 0.60336 0.33158 0.72157 0.0
O202 O 0.67716 0.30027 0.79689 0.0
C203 C 0.61099 0.3533 0.76334 0.0
Co204 Co 0.68445 0.18306 0.02833 0.0
Co205 Co 0.68009 0.18673 0.9948 0.0
C206 C 0.64524 0.24266 0.01263 0.0
O207 O 0.65602 0.22682 0.02392 0.0
O208 O 0.65347 0.23083 0.00027 0.0
C209 C 0.67768 0.19835 0.0585 0.0
O210 O 0.64732 0.21402 0.05497 0.0
C211 C 0.6824 0.20757 0.96419 0.0
C212 C 0.69571 0.15529 0.95427 0.0
C213 C 0.68919 0.19109 0.95113 0.0
N214 N 0.68533 0.18263 0.97455 0.0
N215 N 0.69316 0.15147 0.96852 0.0
C216 C 0.67083 0.24553 0.96684 0.0
H217 H 0.64679 0.24553 0.9738 0.0
H218 H 0.69257 0.26008 0.97252 0.0
H219 H 0.664 0.2598 0.9568 0.0
C220 C 0.76143 0.17555 0.02169 0.0
N221 N 0.72717 0.18063 0.01758 0.0
N222 N 0.72594 0.18445 0.00363 0.0
C223 C 0.75971 0.18322 0.99842 0.0
C224 C 0.7834 0.17725 0.0097 0.0
C225 C 0.77218 0.16622 0.03666 0.0
H226 H 0.75213 0.14766 0.04139 0.0
H227 H 0.77279 0.19109 0.0432 0.0
H228 H 0.79894 0.15313 0.03702 0.0
O229 O 0.65378 0.14134 0.02435 0.0
O230 O 0.64976 0.14516 0.00072 0.0
H231 H 0.76574 0.16437 0.977 0.0
H232 H 0.7973 0.19902 0.98196 0.0
C233 C 0.76912 0.18973 0.98309 0.0
H234 H 0.75099 0.21033 0.97849 0.0
H235 H 0.69685 0.12757 0.97417 0.0
O236 O 0.69669 0.1836 0.04887 0.0
C237 C 0.64143 0.13004 0.01249 0.0
Co238 Co 0.82059 0.17599 0.27866 0.0
Co239 Co 0.823 0.17544 0.24505 0.0
C240 C 0.76506 0.13727 0.26133 0.0
O241 O 0.77799 0.14722 0.2733 0.0
O242 O 0.77948 0.14676 0.24958 0.0
C243 C 0.80114 0.16841 0.30857 0.0
O244 O 0.78235 0.14036 0.30447 0.0
C245 C 0.80203 0.18714 0.21478 0.0
C246 C 0.85511 0.18407 0.20429 0.0
C247 C 0.81884 0.18872 0.20152 0.0
N248 N 0.82735 0.18201 0.22487 0.0
N249 N 0.85898 0.18037 0.21849 0.0
C250 C 0.76254 0.18881 0.21777 0.0
H251 H 0.75624 0.1779 0.22845 0.0
H252 H 0.75362 0.21726 0.21753 0.0
H253 H 0.74736 0.17375 0.2095 0.0
C254 C 0.82406 0.25422 0.27347 0.0
N255 N 0.8224 0.22015 0.26867 0.0
N256 N 0.82352 0.22028 0.25462 0.0
C257 C 0.82618 0.25455 0.25003 0.0
C258 C 0.82657 0.27716 0.26183 0.0
C259 C 0.82536 0.26424 0.28896 0.0
H260 H 0.79986 0.25609 0.29417 0.0
H261 H 0.82961 0.29349 0.29051 0.0
H262 H 0.84759 0.2494 0.29421 0.0
O263 O 0.86366 0.1465 0.27472 0.0
O264 O 0.86476 0.14603 0.25099 0.0
H265 H 0.85131 0.2533 0.2295 0.0
H266 H 0.82804 0.29496 0.23331 0.0
C267 C 0.8273 0.26534 0.23463 0.0
H268 H 0.80316 0.25476 0.22914 0.0
H269 H 0.88322 0.17624 0.22384 0.0
O270 O 0.81898 0.18612 0.29938 0.0
C271 C 0.87774 0.13635 0.26299 0.0
Co272 Co 0.6843 0.80753 0.52629 0.0
Co273 Co 0.68557 0.81327 0.49277 0.0
C274 C 0.6467 0.75372 0.50781 0.0
O275 O 0.65661 0.76498 0.52003 0.0
O276 O 0.65603 0.76992 0.49642 0.0
C277 C 0.70249 0.77363 0.5525 0.0
O278 O 0.70934 0.74638 0.54399 0.0
C279 C 0.69891 0.79299 0.46266 0.0
C280 C 0.69294 0.84559 0.45194 0.0
C281 C 0.69915 0.80945 0.44932 0.0
N282 N 0.69294 0.81833 0.47266 0.0
N283 N 0.68971 0.84972 0.46617 0.0
C284 C 0.70214 0.75363 0.46579 0.0
H285 H 0.6942 0.74751 0.4769 0.0
H286 H 0.7305 0.74518 0.46444 0.0
H287 H 0.68543 0.7379 0.4582 0.0
C288 C 0.76307 0.81392 0.52183 0.0
N289 N 0.72924 0.81109 0.51683 0.0
N290 N 0.7299 0.8128 0.50278 0.0
C291 C 0.7642 0.8166 0.4984 0.0
C292 C 0.7863 0.81735 0.51034 0.0
C293 C 0.77281 0.81614 0.53732 0.0
H294 H 0.7525 0.83221 0.54317 0.0
H295 H 0.77348 0.78863 0.54189 0.0
H296 H 0.79962 0.82862 0.53883 0.0
O297 O 0.65482 0.8509 0.5226 0.0
O298 O 0.65645 0.85497 0.49893 0.0
H299 H 0.76322 0.84288 0.47808 0.0
H300 H 0.80507 0.81999 0.4819 0.0
C301 C 0.77546 0.81876 0.48307 0.0
H302 H 0.76547 0.79474 0.47732 0.0
H303 H 0.6844 0.87388 0.47143 0.0
O304 O 0.69125 0.80297 0.54716 0.0
C305 C 0.64586 0.86656 0.51102 0.0
Co306 Co 0.17722 0.19239 0.77813 0.0
Co307 Co 0.17711 0.1903 0.74459 0.0
C308 C 0.2344 0.15351 0.76104 0.0
O309 O 0.22005 0.16346 0.77277 0.0
O310 O 0.22129 0.16291 0.74904 0.0
C311 C 0.18857 0.18062 0.80833 0.0
O312 O 0.19533 0.14719 0.80467 0.0
C313 C 0.19751 0.19676 0.71424 0.0
C314 C 0.14487 0.20798 0.70425 0.0
C315 C 0.18107 0.20391 0.70122 0.0
N316 N 0.17211 0.19657 0.72446 0.0
N317 N 0.1407 0.20305 0.7184 0.0
C318 C 0.23688 0.19344 0.71719 0.0
H319 H 0.24317 0.20419 0.72796 0.0
H320 H 0.2529 0.20806 0.70906 0.0
H321 H 0.2445 0.16459 0.71694 0.0
C322 C 0.16996 0.27009 0.7724 0.0
N323 N 0.17421 0.23601 0.76788 0.0
N324 N 0.17622 0.23565 0.75387 0.0
C325 C 0.17456 0.26976 0.74901 0.0
C326 C 0.17025 0.29281 0.76061 0.0
C327 C 0.16271 0.28004 0.78764 0.0
H328 H 0.14465 0.25985 0.79257 0.0
H329 H 0.18842 0.2801 0.79365 0.0
H330 H 0.14996 0.30691 0.78851 0.0
O331 O 0.13467 0.16247 0.77456 0.0
O332 O 0.13586 0.15994 0.75085 0.0
H333 H 0.15332 0.2756 0.72792 0.0
H334 H 0.18697 0.30865 0.73251 0.0
C335 C 0.17903 0.28006 0.73365 0.0
H336 H 0.19997 0.26306 0.72865 0.0
H337 H 0.1165 0.20472 0.72397 0.0
O338 O 0.18036 0.20335 0.79874 0.0
C339 C 0.12197 0.15098 0.76279 0.0
Co340 Co 0.80242 0.67915 0.02375 0.0
Co341 Co 0.8053 0.67975 0.99024 0.0
C342 C 0.84266 0.73604 0.0075 0.0
O343 O 0.83199 0.72173 0.01911 0.0
O344 O 0.83368 0.72315 0.99539 0.0
C345 C 0.81254 0.69192 0.0539 0.0
O346 O 0.84407 0.70457 0.0501 0.0
C347 C 0.79874 0.70409 0.96047 0.0
C348 C 0.79426 0.65235 0.949 0.0
C349 C 0.79523 0.68924 0.94691 0.0
N350 N 0.79996 0.67716 0.97004 0.0
N351 N 0.79732 0.64633 0.96312 0.0
C352 C 0.79841 0.74301 0.96451 0.0
H353 H 0.7874 0.74639 0.97545 0.0
H354 H 0.78213 0.7589 0.95684 0.0
H355 H 0.82636 0.75337 0.96444 0.0
C356 C 0.72458 0.67836 0.01778 0.0
N357 N 0.75895 0.67886 0.01334 0.0
N358 N 0.75972 0.67925 -0.0007 0.0
C359 C 0.72569 0.67895 0.99432 0.0
C360 C 0.70232 0.67841 0.0059 0.0
C361 C 0.71354 0.67647 0.03314 0.0
H362 H 0.72155 0.70169 0.03862 0.0
H363 H 0.68417 0.67245 0.03434 0.0
H364 H 0.72779 0.65386 0.03841 0.0
O365 O 0.83154 0.63604 0.01961 0.0
O366 O 0.83413 0.63721 0.99592 0.0
H367 H 0.68644 0.6834 0.97727 0.0
H368 H 0.72927 0.70446 0.97391 0.0
C369 C 0.71587 0.68092 0.97884 0.0
H370 H 0.72564 0.65639 0.97333 0.0
H371 H 0.79756 0.62117 0.96805 0.0
O372 O 0.79139 0.67982 0.04439 0.0
C373 C 0.84264 0.62299 0.00783 0.0
Co374 Co 0.323 0.30214 0.27752 0.0
Co375 Co 0.3254 0.30368 0.24397 0.0
C376 C 0.26697 0.34071 0.25996 0.0
O377 O 0.27968 0.33035 0.27192 0.0
O378 O 0.28181 0.33183 0.24822 0.0
C379 C 0.30674 0.31236 0.30752 0.0
O380 O 0.29442 0.34395 0.30357 0.0
C381 C 0.30496 0.29809 0.21368 0.0
C382 C 0.35731 0.28628 0.20357 0.0
C383 C 0.32117 0.2912 0.20061 0.0
N384 N 0.33042 0.29738 0.22387 0.0
N385 N 0.36167 0.29051 0.21774 0.0
C386 C 0.26569 0.30211 0.2167 0.0
H387 H 0.25918 0.29052 0.22732 0.0
H388 H 0.24927 0.28863 0.20839 0.0
H389 H 0.25878 0.33114 0.21688 0.0
C390 C 0.3308 0.22419 0.27191 0.0
N391 N 0.32666 0.25828 0.26736 0.0
N392 N 0.32538 0.25858 0.25333 0.0
C393 C 0.32739 0.22451 0.24848 0.0
C394 C 0.33126 0.20149 0.26011 0.0
C395 C 0.33726 0.21426 0.28721 0.0
H396 H 0.35538 0.23427 0.29223 0.0
H397 H 0.31132 0.21463 0.29305 0.0
H398 H 0.34963 0.18724 0.28821 0.0
O399 O 0.36557 0.33254 0.27399 0.0
O400 O 0.36689 0.3331 0.25026 0.0
H401 H 0.34958 0.21845 0.22756 0.0
H402 H 0.31543 0.18571 0.23189 0.0
C403 C 0.32357 0.21423 0.23309 0.0
H404 H 0.30299 0.23136 0.22792 0.0
H405 H 0.38589 0.28824 0.22328 0.0
O406 O 0.31991 0.29135 0.29818 0.0
C407 C 0.37965 0.34287 0.26228 0.0
Co408 Co 0.30231 0.82886 0.02661 0.0
Co409 Co 0.30163 0.83651 0.99327 0.0
C410 C 0.34066 0.77628 0.0074 0.0
O411 O 0.33073 0.78684 0.01975 0.0
O412 O 0.33093 0.79287 0.99615 0.0
C413 C 0.3131 0.80552 0.05585 0.0
O414 O 0.34297 0.7909 0.05114 0.0
C415 C 0.29385 0.82014 0.9628 0.0
C416 C 0.28148 0.87371 0.95381 0.0
C417 C 0.28608 0.83792 0.95014 0.0
N418 N 0.29396 0.84437 0.97344 0.0
N419 N 0.28675 0.87636 0.968 0.0
C420 C 0.29779 0.78049 0.96506 0.0
H421 H 0.28724 0.77287 0.97573 0.0
H422 H 0.28329 0.76511 0.9567 0.0
H423 H 0.32671 0.77331 0.96465 0.0
C424 C 0.22377 0.83531 0.02197 0.0
N425 N 0.25768 0.83314 0.01703 0.0
N426 N 0.25717 0.83411 0.003 0.0
C427 C 0.2228 0.83574 0.99851 0.0
C428 C 0.20037 0.83693 0.01039 0.0
C429 C 0.21451 0.83854 0.03749 0.0
H430 H 0.2339 0.85674 0.04283 0.0
H431 H 0.21656 0.81167 0.04258 0.0
H432 H 0.187 0.8493 0.03906 0.0
O433 O 0.33194 0.87239 0.02382 0.0
O434 O 0.33065 0.87753 0.00018 0.0
H435 H 0.21541 0.8606 0.97812 0.0
H436 H 0.18332 0.82545 0.98197 0.0
C437 C 0.21175 0.83383 0.98314 0.0
H438 H 0.22883 0.81416 0.97742 0.0
H439 H 0.28494 0.89991 0.97401 0.0
O440 O 0.29301 0.82266 0.04724 0.0
C441 C 0.34118 0.88849 0.01238 0.0
Co442 Co 0.18694 0.80445 0.27771 0.0
Co443 Co 0.18403 0.80481 0.24413 0.0
C444 C 0.24227 0.84303 0.26021 0.0
O445 O 0.22945 0.83306 0.27219 0.0
O446 O 0.2277 0.83358 0.24847 0.0
C447 C 0.2063 0.81328 0.30745 0.0
O448 O 0.2256 0.84067 0.30304 0.0
C449 C 0.2036 0.79381 0.21361 0.0
C450 C 0.14967 0.79478 0.20374 0.0
C451 C 0.18586 0.79163 0.20054 0.0
N452 N 0.17886 0.7979 0.22399 0.0
N453 N 0.14672 0.79824 0.21799 0.0
C454 C 0.24332 0.79365 0.21612 0.0
H455 H 0.25002 0.80473 0.22674 0.0
H456 H 0.25328 0.76556 0.21574 0.0
H457 H 0.25728 0.80934 0.2077 0.0
C458 C 0.18388 0.72621 0.27269 0.0
N459 N 0.18508 0.76024 0.26783 0.0
N460 N 0.18383 0.76 0.25379 0.0
C461 C 0.18161 0.72565 0.24924 0.0
C462 C 0.18159 0.70314 0.26108 0.0
C463 C 0.18309 0.71634 0.28819 0.0
H464 H 0.2087 0.72469 0.29328 0.0
H465 H 0.17905 0.68708 0.28981 0.0
H466 H 0.16095 0.73112 0.29353 0.0
O467 O 0.14384 0.83377 0.27383 0.0
O468 O 0.14231 0.83432 0.25012 0.0
H469 H 0.15622 0.72564 0.22876 0.0
H470 H 0.18129 0.68506 0.23259 0.0
C471 C 0.1808 0.7147 0.23386 0.0
H472 H 0.20439 0.72629 0.2283 0.0
H473 H 0.12275 0.80137 0.22362 0.0
O474 O 0.18838 0.79505 0.29846 0.0
C475 C 0.12953 0.84394 0.26215 0.0
Co476 Co 0.18532 0.68246 0.52836 0.0
Co477 Co 0.18366 0.67656 0.49491 0.0
C478 C 0.14675 0.73674 0.51066 0.0
O479 O 0.15765 0.72578 0.5228 0.0
O480 O 0.15498 0.72011 0.49923 0.0
C481 C 0.17566 0.69953 0.55824 0.0
O482 O 0.14544 0.71461 0.55415 0.0
C483 C 0.19499 0.69738 0.46478 0.0
C484 C 0.18774 0.64508 0.45395 0.0
C485 C 0.19431 0.68118 0.4514 0.0
N486 N 0.18922 0.6719 0.47473 0.0
N487 N 0.18517 0.6407 0.46817 0.0
C488 C 0.19897 0.73661 0.46801 0.0
H489 H 0.19107 0.7427 0.47913 0.0
H490 H 0.22751 0.7445 0.46672 0.0
H491 H 0.18262 0.75282 0.46046 0.0
C492 C 0.2633 0.67696 0.52286 0.0
N493 N 0.22913 0.67891 0.51822 0.0
N494 N 0.22874 0.67649 0.5042 0.0
C495 C 0.26273 0.6727 0.49945 0.0
C496 C 0.28574 0.67292 0.51113 0.0
C497 C 0.27378 0.67666 0.5383 0.0
H498 H 0.26634 0.70276 0.54323 0.0
H499 H 0.30294 0.67182 0.53978 0.0
H500 H 0.25863 0.65519 0.5439 0.0
O501 O 0.1547 0.63968 0.52497 0.0
O502 O 0.15475 0.63518 0.50131 0.0
H503 H 0.25947 0.64622 0.47921 0.0
H504 H 0.30228 0.66781 0.4825 0.0
C505 C 0.27283 0.66998 0.48401 0.0
H506 H 0.26317 0.69424 0.47832 0.0
H507 H 0.17989 0.6165 0.4734 0.0
O508 O 0.19582 0.68474 0.549 0.0
C509 C 0.14475 0.62398 0.51353 0.0
Co510 Co 0.31118 0.69175 0.77947 0.0
Co511 Co 0.31093 0.68955 0.74603 0.0
C512 C 0.2536 0.65324 0.76242 0.0
O513 O 0.26846 0.66277 0.77408 0.0
O514 O 0.26639 0.66283 0.7504 0.0
C515 C 0.2783 0.71431 0.80505 0.0
O516 O 0.25175 0.72135 0.79622 0.0
C517 C 0.29095 0.69311 0.71561 0.0
C518 C 0.34313 0.70601 0.70556 0.0
C519 C 0.30726 0.69977 0.70253 0.0
N520 N 0.31602 0.69579 0.72589 0.0
N521 N 0.34714 0.70347 0.71982 0.0
C522 C 0.25315 0.68125 0.71834 0.0
H523 H 0.24035 0.69977 0.72612 0.0
H524 H 0.23687 0.67989 0.70846 0.0
H525 H 0.25373 0.65405 0.72319 0.0
C526 C 0.31891 0.7698 0.77365 0.0
N527 N 0.31434 0.73559 0.76928 0.0
N528 N 0.31189 0.73495 0.75528 0.0
C529 C 0.31327 0.76894 0.75029 0.0
C530 C 0.31812 0.79225 0.76176 0.0
C531 C 0.32715 0.78027 0.78874 0.0
H532 H 0.34237 0.75855 0.79415 0.0
H533 H 0.30162 0.78471 0.7946 0.0
H534 H 0.34317 0.80541 0.78913 0.0
O535 O 0.35371 0.66196 0.77596 0.0
O536 O 0.35203 0.6588 0.75227 0.0
H537 H 0.33346 0.77567 0.72909 0.0
H538 H 0.29843 0.80707 0.73384 0.0
C539 C 0.30775 0.77887 0.73494 0.0
H540 H 0.28748 0.76087 0.73005 0.0
H541 H 0.37113 0.70687 0.72542 0.0
O542 O 0.30727 0.70116 0.80013 0.0
C543 C 0.36614 0.6501 0.76421 0.0
C544 C 0.19007 0.31904 0.9264 0.0
C545 C 0.1976 0.29701 0.9382 0.0
C546 C 0.19081 0.305 0.91257 0.0
C547 C 0.18534 0.22006 0.89243 0.0
H548 H 0.22615 0.2775 0.8619 0.0
C549 C 0.20029 0.16779 0.83428 0.0
C550 C 0.1909 0.19221 0.82343 0.0
C551 C 0.20276 0.17921 0.8485 0.0
C552 C 0.21439 0.26124 0.87029 0.0
H553 H 0.21391 0.24354 0.94476 0.0
H554 H 0.21477 0.21877 0.92057 0.0
H555 H 0.22749 0.30002 0.88633 0.0
H556 H 0.17641 0.24769 0.81905 0.0
H557 H 0.18041 0.26737 0.84374 0.0
H558 H 0.17196 0.18141 0.87631 0.0
C559 C 0.20737 0.24669 0.92205 0.0
C560 C 0.21515 0.27416 0.88428 0.0
C561 C 0.20667 0.2608 0.9359 0.0
C562 C 0.18389 0.22818 0.82711 0.0
C563 C 0.1864 0.23955 0.84127 0.0
C564 C 0.18456 0.20712 0.8784 0.0
C565 C 0.19946 0.26866 0.91023 0.0
C566 C 0.20023 0.25394 0.89549 0.0
C567 C 0.196 0.21528 0.85213 0.0
C568 C 0.19867 0.22781 0.86715 0.0
H569 H 0.18322 0.34711 0.92788 0.0
H570 H 0.18419 0.32254 0.90371 0.0
H571 H 0.17335 0.20399 0.90082 0.0
H572 H 0.2059 0.13991 0.83179 0.0
H573 H 0.21046 0.15993 0.85662 0.0
C574 C 0.73332 0.70567 0.18158 0.0
C575 C 0.70053 0.68846 0.18444 0.0
C576 C 0.74664 0.70729 0.16762 0.0
C577 C 0.71734 0.7025 0.13009 0.0
H578 H 0.81732 0.68095 0.12214 0.0
C579 C 0.76776 0.67779 0.07299 0.0
C580 C 0.80118 0.69228 0.06905 0.0
C581 C 0.75649 0.67858 0.0872 0.0
C582 C 0.78945 0.68751 0.12421 0.0
H583 H 0.65541 0.66043 0.17499 0.0
H584 H 0.67859 0.66315 0.15063 0.0
H585 H 0.7957 0.6803 0.14679 0.0
H586 H 0.84909 0.71883 0.07697 0.0
H587 H 0.82917 0.72054 0.10183 0.0
H588 H 0.71094 0.70971 0.10758 0.0
C589 C 0.6941 0.67534 0.15914 0.0
C590 C 0.77708 0.6871 0.13832 0.0
C591 C 0.6809 0.67364 0.17308 0.0
C592 C 0.82321 0.70738 0.07967 0.0
C593 C 0.81188 0.70821 0.09392 0.0
C594 C 0.7297 0.70301 0.11602 0.0
C595 C 0.72711 0.69219 0.15625 0.0
C596 C 0.74079 0.69418 0.14138 0.0
C597 C 0.77829 0.69398 0.09782 0.0
C598 C 0.76578 0.6951 0.11289 0.0
H599 H 0.74831 0.71857 0.19007 0.0
H600 H 0.77183 0.72102 0.16568 0.0
H601 H 0.68939 0.70877 0.13214 0.0
H602 H 0.75017 0.66578 0.0651 0.0
H603 H 0.73075 0.66679 0.08988 0.0
C604 C 0.28976 0.32317 0.33315 0.0
C605 C 0.30482 0.30076 0.32263 0.0
C606 C 0.28762 0.31169 0.34737 0.0
C607 C 0.28852 0.22916 0.3694 0.0
H608 H 0.31315 0.29377 0.40041 0.0
C609 C 0.31459 0.17827 0.42649 0.0
C610 C 0.30131 0.19878 0.43791 0.0
C611 C 0.31324 0.19155 0.41255 0.0
C612 C 0.30575 0.27554 0.39188 0.0
H613 H 0.32978 0.24884 0.31887 0.0
H614 H 0.32637 0.2291 0.34358 0.0
H615 H 0.31407 0.31572 0.37581 0.0
H616 H 0.27414 0.24824 0.44365 0.0
H617 H 0.27218 0.27181 0.41925 0.0
H618 H 0.28052 0.18891 0.38541 0.0
C619 C 0.31569 0.25531 0.34083 0.0
C620 C 0.30626 0.28812 0.37779 0.0
C621 C 0.31786 0.26675 0.32666 0.0
C622 C 0.28581 0.23248 0.4351 0.0
C623 C 0.28451 0.24585 0.42114 0.0
C624 C 0.28804 0.21661 0.38346 0.0
C625 C 0.30042 0.27754 0.35134 0.0
C626 C 0.29807 0.26493 0.36638 0.0
C627 C 0.29825 0.22552 0.4097 0.0
C628 C 0.29705 0.23952 0.39484 0.0
H629 H 0.27943 0.34951 0.33039 0.0
H630 H 0.27546 0.32933 0.3552 0.0
H631 H 0.28135 0.2108 0.36088 0.0
H632 H 0.32646 0.15208 0.42837 0.0
H633 H 0.32439 0.17537 0.40401 0.0
C634 C 0.73365 0.74418 0.5731 0.0
C635 C 0.71108 0.77149 0.56789 0.0
C636 C 0.74398 0.74376 0.58746 0.0
C637 C 0.72009 0.77612 0.6232 0.0
H638 H 0.82245 0.77141 0.63065 0.0
C639 C 0.78027 0.81161 0.67825 0.0
C640 C 0.81109 0.79315 0.6828 0.0
C641 C 0.76654 0.80609 0.66453 0.0
C642 C 0.79373 0.77204 0.62884 0.0
H643 H 0.68059 0.81901 0.5737 0.0
H644 H 0.69824 0.81788 0.59885 0.0
H645 H 0.8005 0.76581 0.60626 0.0
H646 H 0.85151 0.75414 0.67678 0.0
H647 H 0.82694 0.7434 0.653 0.0
H648 H 0.71312 0.78191 0.64577 0.0
C649 C 0.70802 0.79694 0.5918 0.0
C650 C 0.78121 0.76896 0.61484 0.0
C651 C 0.6981 0.79768 0.57741 0.0
C652 C 0.82774 0.76878 0.67348 0.0
C653 C 0.81374 0.76283 0.65983 0.0
C654 C 0.73256 0.7787 0.63726 0.0
C655 C 0.7315 0.77031 0.5969 0.0
C656 C 0.74433 0.77135 0.61187 0.0
C657 C 0.7832 0.78174 0.6551 0.0
C658 C 0.7696 0.7771 0.64025 0.0
H659 H 0.74414 0.72366 0.56602 0.0
H660 H 0.76195 0.7228 0.59116 0.0
H661 H 0.69147 0.77773 0.62119 0.0
H662 H 0.76745 0.83123 0.68512 0.0
H663 H 0.74348 0.82173 0.66119 0.0
C664 C 0.78376 0.26166 0.4348 0.0
C665 C 0.80633 0.2912 0.43746 0.0
C666 C 0.78121 0.24707 0.42106 0.0
C667 C 0.79565 0.27046 0.38324 0.0
H668 H 0.79956 0.16737 0.37718 0.0
C669 C 0.82092 0.21054 0.32781 0.0
C670 C 0.80068 0.18043 0.32363 0.0
C671 C 0.81977 0.22291 0.34186 0.0
C672 C 0.79795 0.19618 0.37872 0.0
H673 H 0.84349 0.3289 0.42779 0.0
H674 H 0.8391 0.3035 0.40388 0.0
H675 H 0.80058 0.19127 0.40152 0.0
H676 H 0.7637 0.13937 0.33103 0.0
H677 H 0.76156 0.16123 0.35566 0.0
H678 H 0.79322 0.27554 0.36052 0.0
C679 C 0.82325 0.29166 0.41237 0.0
C680 C 0.79855 0.20986 0.39264 0.0
C681 C 0.82586 0.30613 0.42608 0.0
C682 C 0.77963 0.16264 0.33391 0.0
C683 C 0.7785 0.17506 0.34802 0.0
C684 C 0.795 0.25684 0.36937 0.0
C685 C 0.80085 0.26203 0.40969 0.0
C686 C 0.79796 0.24718 0.39503 0.0
C687 C 0.79833 0.20554 0.3521 0.0
C688 C 0.79672 0.21959 0.36693 0.0
H689 H 0.76731 0.25035 0.44318 0.0
H690 H 0.76326 0.2246 0.41926 0.0
H691 H 0.79437 0.29931 0.38475 0.0
H692 H 0.83762 0.22477 0.32021 0.0
H693 H 0.8359 0.24605 0.34472 0.0
C694 C 0.77726 0.31447 0.57759 0.0
C695 C 0.80416 0.28985 0.57367 0.0
C696 C 0.76335 0.31455 0.59141 0.0
C697 C 0.78215 0.28672 0.62838 0.0
H698 H 0.67916 0.29853 0.63268 0.0
C699 C 0.70952 0.27896 0.68313 0.0
C700 C 0.68352 0.30562 0.68566 0.0
C701 C 0.72484 0.27508 0.66958 0.0
C702 C 0.70799 0.29549 0.63166 0.0
H703 H 0.83798 0.24635 0.58128 0.0
H704 H 0.81342 0.24641 0.60552 0.0
H705 H 0.70519 0.29529 0.60885 0.0
H706 H 0.65272 0.34865 0.67595 0.0
H707 H 0.67943 0.34196 0.65235 0.0
H708 H 0.78483 0.28716 0.65125 0.0
C709 C 0.80332 0.26577 0.59786 0.0
C710 C 0.72291 0.29365 0.61802 0.0
C711 C 0.81727 0.26566 0.58397 0.0
C712 C 0.67271 0.32786 0.67432 0.0
C713 C 0.68792 0.32395 0.6608 0.0
C714 C 0.76718 0.28854 0.64206 0.0
C715 C 0.77596 0.29001 0.60167 0.0
C716 C 0.76019 0.28978 0.61622 0.0
C717 C 0.71414 0.29752 0.65827 0.0
C718 C 0.72999 0.29346 0.64383 0.0
H719 H 0.76669 0.33365 0.56996 0.0
H720 H 0.74277 0.33402 0.59409 0.0
H721 H 0.811 0.284 0.62732 0.0
H722 H 0.71744 0.26047 0.69146 0.0
H723 H 0.74452 0.25405 0.66787 0.0
C724 C 0.67612 0.18681 0.92509 0.0
C725 C 0.68969 0.20677 0.93662 0.0
C726 C 0.67773 0.20041 0.91121 0.0
C727 C 0.6868 0.28417 0.89063 0.0
H728 H 0.7135 0.21934 0.85996 0.0
C729 C 0.70551 0.33194 0.83211 0.0
C730 C 0.69139 0.30937 0.82145 0.0
C731 C 0.70716 0.32036 0.84632 0.0
C732 C 0.70567 0.23772 0.86837 0.0
H733 H 0.71731 0.25583 0.94258 0.0
H734 H 0.71955 0.28003 0.91829 0.0
H735 H 0.71262 0.19753 0.88449 0.0
H736 H 0.66781 0.25698 0.81738 0.0
H737 H 0.67023 0.2371 0.84209 0.0
H738 H 0.67939 0.32425 0.87446 0.0
C739 C 0.7069 0.25419 0.92006 0.0
C740 C 0.70519 0.22522 0.88243 0.0
C741 C 0.70538 0.24047 0.93397 0.0
C742 C 0.67898 0.27502 0.8253 0.0
C743 C 0.68059 0.26351 0.83948 0.0
C744 C 0.68717 0.29668 0.87653 0.0
C745 C 0.69323 0.2342 0.90853 0.0
C746 C 0.69534 0.24817 0.8937 0.0
C747 C 0.69475 0.28598 0.85016 0.0
C748 C 0.6962 0.27345 0.86523 0.0
H749 H 0.66406 0.16066 0.92683 0.0
H750 H 0.66659 0.18454 0.90258 0.0
H751 H 0.67883 0.30241 0.89908 0.0
H752 H 0.71538 0.35852 0.82949 0.0
H753 H 0.71855 0.33818 0.85428 0.0
C754 C 0.81882 0.17384 0.17557 0.0
C755 C 0.80278 0.19192 0.1871 0.0
C756 C 0.80444 0.1766 0.16185 0.0
C757 C 0.72147 0.19756 0.14235 0.0
H758 H 0.7862 0.20914 0.11021 0.0
C759 C 0.67142 0.21721 0.08414 0.0
C760 C 0.69045 0.19864 0.07347 0.0
C761 C 0.6843 0.21814 0.09818 0.0
C762 C 0.76778 0.20555 0.11905 0.0
H763 H 0.76016 0.22882 0.19304 0.0
H764 H 0.73451 0.23295 0.16912 0.0
H765 H 0.81031 0.20775 0.13439 0.0
H766 H 0.73761 0.16596 0.06924 0.0
H767 H 0.75964 0.16712 0.09366 0.0
H768 H 0.67897 0.19482 0.12696 0.0
C769 C 0.75781 0.216 0.17081 0.0
C770 C 0.7816 0.20482 0.1329 0.0
C771 C 0.77234 0.21336 0.18455 0.0
C772 C 0.72237 0.1807 0.07716 0.0
C773 C 0.73516 0.18157 0.09117 0.0
C774 C 0.70762 0.19817 0.12846 0.0
C775 C 0.77375 0.19766 0.15931 0.0
C776 C 0.75866 0.20039 0.14469 0.0
C777 C 0.71645 0.2005 0.10182 0.0
C778 C 0.73069 0.20172 0.11664 0.0
H779 H 0.84234 0.15715 0.17717 0.0
H780 H 0.81711 0.16183 0.15323 0.0
H781 H 0.70319 0.19383 0.15123 0.0
H782 H 0.64677 0.23137 0.08163 0.0
H783 H 0.66941 0.2332 0.10612 0.0
C784 C 0.72946 0.66516 0.33131 0.0
C785 C 0.70758 0.68225 0.32112 0.0
C786 C 0.72893 0.67628 0.3456 0.0
C787 C 0.67297 0.72555 0.37166 0.0
H788 H 0.76237 0.73896 0.39226 0.0
C789 C 0.67981 0.80618 0.42388 0.0
C790 C 0.70125 0.79272 0.435 0.0
C791 C 0.68088 0.79051 0.41034 0.0
C792 C 0.73715 0.73488 0.38672 0.0
H793 H 0.66806 0.72446 0.31793 0.0
H794 H 0.66734 0.74386 0.34272 0.0
H795 H 0.7635 0.71494 0.36796 0.0
H796 H 0.74234 0.75364 0.44039 0.0
H797 H 0.74356 0.72562 0.41683 0.0
H798 H 0.6466 0.74575 0.3903 0.0
C799 C 0.68456 0.72159 0.33975 0.0
C800 C 0.73781 0.72112 0.37281 0.0
C801 C 0.68516 0.71059 0.32551 0.0
C802 C 0.72454 0.76382 0.43221 0.0
C803 C 0.72568 0.74815 0.41863 0.0
C804 C 0.67231 0.73925 0.38553 0.0
C805 C 0.70639 0.70457 0.34996 0.0
C806 C 0.70574 0.71681 0.36506 0.0
C807 C 0.70364 0.76116 0.40757 0.0
C808 C 0.70441 0.74457 0.39315 0.0
H809 H 0.74702 0.64323 0.32828 0.0
H810 H 0.74586 0.66248 0.35326 0.0
H811 H 0.64775 0.72187 0.36607 0.0
H812 H 0.66179 0.82861 0.42568 0.0
H813 H 0.66408 0.80165 0.40199 0.0
C814 C 0.3076 0.19123 0.58059 0.0
C815 C 0.29643 0.21888 0.57135 0.0
C816 C 0.29783 0.1917 0.59501 0.0
C817 C 0.22763 0.22572 0.61868 0.0
H818 H 0.29443 0.20314 0.6492 0.0
C819 C 0.18479 0.23445 0.67758 0.0
C820 C 0.1975 0.20785 0.68693 0.0
C821 C 0.19886 0.23753 0.6638 0.0
C822 C 0.27533 0.20909 0.6408 0.0
H823 H 0.26685 0.26907 0.57007 0.0
H824 H 0.2496 0.26968 0.59522 0.0
H825 H 0.31571 0.20532 0.62452 0.0
H826 H 0.23419 0.16297 0.68914 0.0
H827 H 0.25843 0.16785 0.665 0.0
H828 H 0.18702 0.22854 0.63475 0.0
C829 C 0.26582 0.24762 0.59128 0.0
C830 C 0.28758 0.21045 0.62667 0.0
C831 C 0.27587 0.24735 0.5769 0.0
C832 C 0.22454 0.1843 0.68227 0.0
C833 C 0.2384 0.18713 0.66842 0.0
C834 C 0.21532 0.22404 0.63275 0.0
C835 C 0.27639 0.21963 0.60045 0.0
C836 C 0.26384 0.21883 0.61548 0.0
C837 C 0.22554 0.21364 0.65897 0.0
C838 C 0.23899 0.21575 0.64401 0.0
H839 H 0.32351 0.16895 0.57665 0.0
H840 H 0.30614 0.16964 0.60181 0.0
H841 H 0.20859 0.23164 0.61025 0.0
H842 H 0.16401 0.25302 0.68094 0.0
H843 H 0.18876 0.25871 0.65695 0.0
C844 C 0.77327 0.69161 0.92177 0.0
C845 C 0.79343 0.70726 0.93282 0.0
C846 C 0.77334 0.70659 0.9081 0.0
C847 C 0.79415 0.78891 0.88769 0.0
H848 H 0.80608 0.72217 0.85621 0.0
C849 C 0.82706 0.83448 0.82991 0.0
C850 C 0.81095 0.81529 0.81867 0.0
C851 C 0.82315 0.82289 0.84404 0.0
C852 C 0.8022 0.74118 0.86484 0.0
H853 H 0.83027 0.75048 0.93806 0.0
H854 H 0.82994 0.77698 0.91423 0.0
H855 H 0.80195 0.69934 0.8805 0.0
H856 H 0.7771 0.76959 0.8135 0.0
H857 H 0.76981 0.74985 0.83809 0.0
H858 H 0.79443 0.83079 0.87197 0.0
C859 C 0.81346 0.75353 0.91625 0.0
C860 C 0.79988 0.72807 0.87878 0.0
C861 C 0.81345 0.73846 0.92994 0.0
C862 C 0.79014 0.78483 0.82189 0.0
C863 C 0.78612 0.77337 0.83599 0.0
C864 C 0.79634 0.80206 0.87371 0.0
C865 C 0.79377 0.73746 0.90514 0.0
C866 C 0.79578 0.75175 0.89036 0.0
C867 C 0.80297 0.79195 0.84723 0.0
C868 C 0.80034 0.77831 0.86212 0.0
H869 H 0.75757 0.66755 0.92367 0.0
H870 H 0.75754 0.69384 0.8998 0.0
H871 H 0.79071 0.80778 0.8964 0.0
H872 H 0.84329 0.85804 0.82778 0.0
H873 H 0.83677 0.83762 0.85243 0.0
C874 C 0.27823 0.31338 0.18196 0.0
C875 C 0.30455 0.28868 0.18632 0.0
C876 C 0.26406 0.31184 0.16813 0.0
C877 C 0.28521 0.27645 0.13209 0.0
H878 H 0.18518 0.29843 0.12442 0.0
C879 C 0.22252 0.25745 0.07642 0.0
C880 C 0.20273 0.28675 0.07112 0.0
C881 C 0.23292 0.2563 0.09074 0.0
C882 C 0.21321 0.2924 0.12642 0.0
H883 H 0.33652 0.24287 0.17983 0.0
H884 H 0.31119 0.23942 0.15585 0.0
H885 H 0.2071 0.29853 0.14904 0.0
H886 H 0.17737 0.33731 0.0768 0.0
H887 H 0.19537 0.3351 0.1019 0.0
H888 H 0.29118 0.27 0.1095 0.0
C889 C 0.3019 0.26048 0.16294 0.0
C890 C 0.22582 0.29257 0.1405 0.0
C891 C 0.31629 0.26228 0.17669 0.0
C892 C 0.19267 0.31439 0.08056 0.0
C893 C 0.2028 0.31307 0.09493 0.0
C894 C 0.27252 0.27596 0.11806 0.0
C895 C 0.27588 0.28548 0.15842 0.0
C896 C 0.26204 0.28468 0.1435 0.0
C897 C 0.22348 0.28426 0.10011 0.0
C898 C 0.23644 0.28402 0.11508 0.0
H899 H 0.26938 0.33459 0.18906 0.0
H900 H 0.24459 0.33194 0.16495 0.0
H901 H 0.31342 0.27102 0.13394 0.0
H902 H 0.23066 0.23569 0.06944 0.0
H903 H 0.24853 0.23359 0.09449 0.0
C904 C 0.30237 0.71306 0.82998 0.0
C905 C 0.27552 0.7238 0.82032 0.0
C906 C 0.30059 0.7233 0.84431 0.0
C907 C 0.26425 0.79351 0.86736 0.0
H908 H 0.28585 0.72678 0.89803 0.0
C909 C 0.25544 0.83566 0.92648 0.0
C910 C 0.28241 0.82284 0.93564 0.0
C911 C 0.25218 0.82208 0.91264 0.0
C912 C 0.28011 0.74583 0.88958 0.0
H913 H 0.22547 0.75323 0.81814 0.0
H914 H 0.22254 0.77131 0.8432 0.0
H915 H 0.28437 0.70534 0.87339 0.0
H916 H 0.32809 0.78697 0.93737 0.0
H917 H 0.32277 0.76349 0.91316 0.0
H918 H 0.26091 0.83422 0.88341 0.0
C919 C 0.24497 0.75505 0.83964 0.0
C920 C 0.27916 0.73351 0.87549 0.0
C921 C 0.24659 0.74455 0.82532 0.0
C922 C 0.30639 0.79654 0.93067 0.0
C923 C 0.30332 0.78313 0.91679 0.0
C924 C 0.26545 0.8059 0.88143 0.0
C925 C 0.27208 0.74472 0.84924 0.0
C926 C 0.27142 0.75728 0.86424 0.0
C927 C 0.27619 0.79577 0.9076 0.0
C928 C 0.27361 0.78225 0.8927 0.0
H929 H 0.32499 0.69702 0.82646 0.0
H930 H 0.32203 0.71524 0.85146 0.0
H931 H 0.25871 0.81253 0.85887 0.0
H932 H 0.23663 0.85596 0.93009 0.0
H933 H 0.23071 0.83208 0.90591 0.0
C934 C 0.32311 0.78164 0.08066 0.0
C935 C 0.30208 0.80141 0.07095 0.0
C936 C 0.31193 0.77733 0.09483 0.0
C937 C 0.23053 0.78163 0.11737 0.0
H938 H 0.29744 0.79384 0.14877 0.0
C939 C 0.18307 0.80722 0.1747 0.0
C940 C 0.2009 0.78957 0.18592 0.0
C941 C 0.19642 0.80561 0.1608 0.0
C942 C 0.27856 0.78987 0.1401 0.0
H943 H 0.25307 0.83255 0.06859 0.0
H944 H 0.23392 0.82536 0.09321 0.0
H945 H 0.3193 0.79668 0.12415 0.0
H946 H 0.24576 0.75466 0.19112 0.0
H947 H 0.26958 0.75255 0.16684 0.0
H948 H 0.18972 0.77545 0.13325 0.0
C949 C 0.25872 0.81266 0.08986 0.0
C950 C 0.29106 0.79148 0.12602 0.0
C951 C 0.26986 0.81698 0.07574 0.0
C952 C 0.23213 0.76973 0.18287 0.0
C953 C 0.24562 0.76825 0.16893 0.0
C954 C 0.21807 0.78011 0.13141 0.0
C955 C 0.27947 0.79261 0.09955 0.0
C956 C 0.26704 0.78803 0.1145 0.0
C957 C 0.22784 0.78615 0.15775 0.0
C958 C 0.24181 0.78485 0.14292 0.0
H959 H 0.34806 0.76928 0.07729 0.0
H960 H 0.32839 0.76157 0.10204 0.0
H961 H 0.21148 0.77806 0.10874 0.0
H962 H 0.15894 0.82273 0.17669 0.0
H963 H 0.18235 0.82009 0.15245 0.0
C964 C 0.22 0.72666 0.43433 0.0
C965 C 0.19631 0.69813 0.43713 0.0
C966 C 0.22121 0.74242 0.42078 0.0
C967 C 0.16803 0.75186 0.38763 0.0
H968 H 0.25977 0.77379 0.37003 0.0
C969 C 0.18276 0.7754 0.3274 0.0
C970 C 0.20525 0.8034 0.32275 0.0
C971 C 0.18164 0.76573 0.34178 0.0
C972 C 0.23394 0.76829 0.37489 0.0
H973 H 0.15614 0.66299 0.42787 0.0
H974 H 0.1586 0.69003 0.4042 0.0
H975 H 0.25805 0.75079 0.39448 0.0
H976 H 0.24427 0.84319 0.32956 0.0
H977 H 0.2423 0.82613 0.35479 0.0
H978 H 0.14395 0.7687 0.36799 0.0
C979 C 0.17563 0.70087 0.41253 0.0
C980 C 0.23294 0.75514 0.38888 0.0
C981 C 0.17447 0.68514 0.42605 0.0
C982 C 0.22666 0.8215 0.33281 0.0
C983 C 0.22566 0.81166 0.34724 0.0
C984 C 0.16903 0.76491 0.37367 0.0
C985 C 0.19887 0.72982 0.40975 0.0
C986 C 0.19999 0.74622 0.39531 0.0
C987 C 0.20305 0.78372 0.35186 0.0
C988 C 0.20202 0.77271 0.36707 0.0
H989 H 0.2381 0.73645 0.44248 0.0
H990 H 0.23946 0.76463 0.41896 0.0
H991 H 0.14217 0.74598 0.3924 0.0
H992 H 0.16598 0.76082 0.31993 0.0
H993 H 0.16437 0.74372 0.34498 0.0
C994 C 0.2587 0.71758 0.68541 0.0
C995 C 0.29116 0.69961 0.68814 0.0
C996 C 0.24383 0.71742 0.67169 0.0
C997 C 0.2466 0.66745 0.63764 0.0
H998 H 0.20692 0.75492 0.62147 0.0
C999 C 0.2183 0.68221 0.57768 0.0
C1000 C 0.18645 0.69953 0.57345 0.0
C1001 C 0.22876 0.68197 0.59198 0.0
C1002 C 0.21745 0.73017 0.62592 0.0
H1003 H 0.33436 0.66872 0.67869 0.0
H1004 H 0.30866 0.66866 0.65468 0.0
H1005 H 0.22974 0.75515 0.64595 0.0
H1006 H 0.14064 0.73028 0.58095 0.0
H1007 H 0.15899 0.72975 0.60604 0.0
H1008 H 0.23473 0.64255 0.61759 0.0
C1009 C 0.29417 0.6821 0.66318 0.0
C1010 C 0.23053 0.7303 0.63992 0.0
C1011 C 0.30903 0.68235 0.67687 0.0
C1012 C 0.16533 0.71671 0.58386 0.0
C1013 C 0.1759 0.71656 0.59821 0.0
C1014 C 0.23357 0.66733 0.62366 0.0
C1015 C 0.26131 0.69948 0.66045 0.0
C1016 C 0.24567 0.69904 0.64586 0.0
C1017 C 0.20769 0.69907 0.60242 0.0
C1018 C 0.2193 0.69879 0.61758 0.0
H1019 H 0.24502 0.73209 0.69384 0.0
H1020 H 0.2185 0.73107 0.66993 0.0
H1021 H 0.25743 0.64275 0.64201 0.0
H1022 H 0.23529 0.66881 0.56994 0.0
H1023 H 0.2537 0.66877 0.59484 0.0
C1024 C 0.09677 0.41438 0.99794 0.0
C1025 C 0.11045 0.40336 0.01125 0.0
C1026 C 0.06832 0.43886 0.9972 0.0
C1027 C 0.01799 0.50634 0.01835 0.0
H1028 H 0.94064 0.48456 0.99195 0.0
C1029 C 0.88277 0.58037 0.02108 0.0
C1030 C 0.86907 0.59321 0.00804 0.0
C1031 C 0.91127 0.55596 0.02127 0.0
C1032 C 0.96215 0.49113 -0.0007 0.0
H1033 H 0.10576 0.41056 0.0342 0.0
H1034 H 0.05614 0.45288 0.0329 0.0
H1035 H 0.99412 0.44656 0.99239 0.0
H1036 H 0.87342 0.58895 0.98496 0.0
H1037 H 0.92315 0.54635 0.98534 0.0
H1038 H 0.98595 0.55075 0.02532 0.0
C1039 C 0.06754 0.44286 0.02302 0.0
C1040 C 0.99285 0.46949 -0.00049 0.0
C1041 C 0.09595 0.41844 0.02376 0.0
C1042 C 0.88335 0.57969 0.9952 0.0
C1043 C 0.91181 0.55518 0.9954 0.0
C1044 C 0.98729 0.5279 0.01816 0.0
C1045 C 0.05298 0.45288 0.00975 0.0
C1046 C 0.02106 0.47678 0.00909 0.0
C1047 C 0.92662 0.54373 0.00844 0.0
C1048 C 0.95897 0.52045 0.00868 0.0
H1049 H 0.10737 0.40341 0.98808 0.0
H1050 H 0.05809 0.44653 0.9868 0.0
H1051 H 0.03946 0.51302 0.0257 0.0
H1052 H 0.87233 0.59007 0.03117 0.0
H1053 H 0.9217 0.54708 0.03149 0.0
C1054 C 0.42335 0.38303 0.24971 0.0
C1055 C 0.40907 0.36963 0.26256 0.0
C1056 C 0.44768 0.41156 0.24983 0.0
C1057 C 0.51006 0.46276 0.27268 0.0
H1058 H 0.49214 0.53915 0.24536 0.0
C1059 C 0.5879 0.5965 0.27459 0.0
C1060 C 0.60074 0.60949 0.26143 0.0
C1061 C 0.56304 0.56839 0.27501 0.0
C1062 C 0.49769 0.51793 0.25297 0.0
H1063 H 0.4105 0.37472 0.28567 0.0
H1064 H 0.45301 0.42458 0.28584 0.0
H1065 H 0.45375 0.48609 0.24545 0.0
H1066 H 0.59643 0.60397 0.2384 0.0
H1067 H 0.55337 0.55486 0.23917 0.0
H1068 H 0.55418 0.49449 0.28013 0.0
C1069 C 0.44538 0.4129 0.27568 0.0
C1070 C 0.47577 0.4875 0.25301 0.0
C1071 C 0.42096 0.38437 0.27557 0.0
C1072 C 0.58711 0.59467 0.24872 0.0
C1073 C 0.56229 0.56656 0.24915 0.0
C1074 C 0.53207 0.49318 0.27263 0.0
C1075 C 0.45836 0.4273 0.2628 0.0
C1076 C 0.48182 0.45951 0.26281 0.0
C1077 C 0.55047 0.55268 0.26231 0.0
C1078 C 0.5262 0.52104 0.26273 0.0
H1079 H 0.41499 0.3722 0.23949 0.0
H1080 H 0.45778 0.42164 0.23974 0.0
H1081 H 0.51558 0.44148 0.28028 0.0
H1082 H 0.59769 0.60739 0.28459 0.0
H1083 H 0.55395 0.55871 0.28531 0.0
C1084 C 0.60768 0.9126 0.49875 0.0
C1085 C 0.62015 0.89691 0.51149 0.0
C1086 C 0.58047 0.93842 0.49904 0.0
C1087 C 0.53286 0.0024 0.52242 0.0
H1088 H 0.45547 0.99047 0.49506 0.0
C1089 C 0.40249 0.08524 0.52599 0.0
C1090 C 0.38911 0.09944 0.51312 0.0
C1091 C 0.42998 0.05969 0.52587 0.0
C1092 C 0.47703 0.9944 0.50267 0.0
H1093 H 0.61472 0.8972 0.53459 0.0
H1094 H 0.56719 0.94229 0.53506 0.0
H1095 H 0.50644 0.94932 0.49462 0.0
H1096 H 0.39349 0.09707 0.49 0.0
H1097 H 0.44164 0.05277 0.48983 0.0
H1098 H 0.50356 0.04759 0.53043 0.0
C1099 C 0.57859 0.93463 0.52486 0.0
C1100 C 0.50625 0.97086 0.50241 0.0
C1101 C 0.60576 0.90871 0.52457 0.0
C1102 C 0.40309 0.08666 0.50012 0.0
C1103 C 0.43064 0.06115 0.50001 0.0
C1104 C 0.50368 0.02601 0.52266 0.0
C1105 C 0.56519 0.94923 0.51207 0.0
C1106 C 0.53449 0.97464 0.51227 0.0
C1107 C 0.44475 0.04778 0.51289 0.0
C1108 C 0.47543 0.02227 0.51279 0.0
H1109 H 0.61827 0.90432 0.48848 0.0
H1110 H 0.57112 0.94968 0.48903 0.0
H1111 H 0.55442 0.0062 0.53005 0.0
H1112 H 0.39222 0.09433 0.5362 0.0
H1113 H 0.43983 0.04941 0.53597 0.0
C1114 C 0.07815 0.1122 0.77609 0.0
C1115 C 0.09316 0.12355 0.76304 0.0
C1116 C 0.05465 0.08292 0.77652 0.0
C1117 C 0.03387 0.00071 0.75667 0.0
H1118 H 0.94635 -0.0008 0.77911 0.0
C1119 C 0.92593 0.89183 0.74984 0.0
C1120 C 0.90628 0.88048 0.76185 0.0
C1121 C 0.95083 0.91968 0.75097 0.0
C1122 C 0.97104 -0.00104 0.773 0.0
H1123 H 0.09378 0.11405 0.74015 0.0
H1124 H 0.0527 0.06315 0.74095 0.0
H1125 H 0.98367 0.05318 0.77891 0.0
H1126 H 0.89881 0.88834 0.78464 0.0
H1127 H 0.94287 0.93669 0.78663 0.0
H1128 H 0.02147 0.94661 0.75076 0.0
C1129 C 0.05957 0.07661 0.75085 0.0
C1130 C 0.99228 0.02994 0.77283 0.0
C1131 C 0.08287 0.10597 0.75039 0.0
C1132 C 0.91338 0.89651 0.77517 0.0
C1133 C 0.9384 0.92442 0.77629 0.0
C1134 C 0.01279 0.96971 0.7569 0.0
C1135 C 0.04585 0.0643 0.76395 0.0
C1136 C 0.02364 0.03128 0.7645 0.0
C1137 C 0.95685 0.9368 0.76414 0.0
C1138 C 0.98087 0.96862 0.76491 0.0
H1139 H 0.08544 0.12515 0.78604 0.0
H1140 H 0.04452 0.07398 0.78677 0.0
H1141 H 0.05834 0.00071 0.7504 0.0
H1142 H 0.92121 0.8801 0.73942 0.0
H1143 H 0.96426 0.92875 0.74136 0.0
C1144 C 0.89491 0.41125 0.52747 0.0
C1145 C 0.88268 0.39788 0.51428 0.0
C1146 C 0.92224 0.43696 0.52797 0.0
C1147 C 0.97121 0.50339 0.50585 0.0
H1148 H 0.0477 0.48843 0.5334 0.0
C1149 C 0.10509 0.57863 0.50169 0.0
C1150 C 0.11823 0.59441 0.5143 0.0
C1151 C 0.07681 0.55409 0.50218 0.0
C1152 C 0.02638 0.49312 0.52574 0.0
H1153 H 0.88876 0.40204 0.49126 0.0
H1154 H 0.93652 0.44648 0.49216 0.0
H1155 H 0.99558 0.44859 0.53344 0.0
H1156 H 0.11299 0.59539 0.53741 0.0
H1157 H 0.06356 0.55235 0.53823 0.0
H1158 H 0.0022 0.54761 0.49804 0.0
C1159 C 0.9248 0.43738 0.50212 0.0
C1160 C 0.99647 0.47042 0.52579 0.0
C1161 C 0.89748 0.41175 0.50161 0.0
C1162 C 0.10351 0.58378 0.52749 0.0
C1163 C 0.07524 0.55908 0.52797 0.0
C1164 C 0.00113 0.52596 0.50577 0.0
C1165 C 0.93789 0.44986 0.5153 0.0
C1166 C 0.96868 0.47516 0.51578 0.0
C1167 C 0.06109 0.54464 0.51529 0.0
C1168 C 0.02916 0.52088 0.51563 0.0
H1169 H 0.88401 0.40126 0.53744 0.0
H1170 H 0.93135 0.44649 0.53829 0.0
H1171 H 0.94999 0.50814 0.49816 0.0
H1172 H 0.11592 0.58599 0.49135 0.0
H1173 H 0.0669 0.54283 0.49226 0.0
C1174 C 0.57385 0.39535 0.77827 0.0
C1175 C 0.58073 0.37875 0.76505 0.0
C1176 C 0.54875 0.42325 0.77927 0.0
C1177 C 0.47397 0.46771 0.75978 0.0
H1178 H 0.50448 0.55259 0.78058 0.0
C1179 C 0.40439 0.60394 0.75203 0.0
C1180 C 0.39485 0.62256 0.76454 0.0
C1181 C 0.42755 0.57445 0.75268 0.0
C1182 C 0.49548 0.52897 0.77483 0.0
H1183 H 0.56521 0.37718 0.74269 0.0
H1184 H 0.52198 0.42574 0.74441 0.0
H1185 H 0.54136 0.49831 0.78129 0.0
H1186 H 0.40379 0.62594 0.78744 0.0
H1187 H 0.44439 0.57456 0.7885 0.0
H1188 H 0.42846 0.49858 0.75311 0.0
C1189 C 0.53568 0.41719 0.75404 0.0
C1190 C 0.51646 0.49782 0.7753 0.0
C1191 C 0.56069 0.3894 0.75304 0.0
C1192 C 0.41048 0.61215 0.7776 0.0
C1193 C 0.43382 0.58276 0.77822 0.0
C1194 C 0.45313 0.49887 0.75926 0.0
C1195 C 0.52998 0.43498 0.76708 0.0
C1196 C 0.50613 0.46696 0.76764 0.0
C1197 C 0.44186 0.56309 0.76582 0.0
C1198 C 0.46387 0.52994 0.76664 0.0
H1199 H 0.58878 0.38775 0.78774 0.0
H1200 H 0.54453 0.43609 0.78952 0.0
H1201 H 0.46495 0.44421 0.75396 0.0
H1202 H 0.39297 0.61128 0.74179 0.0
H1203 H 0.43384 0.56016 0.74291 0.0
C1204 C 0.59687 0.09106 -0.00024 0.0
C1205 C 0.61403 0.1012 0.01252 0.0
C1206 C 0.56787 0.06728 -0.0 0.0
C1207 C 0.49679 0.03485 0.02408 0.0
H1208 H 0.48223 0.96313 0.99459 0.0
C1209 C 0.38478 0.92677 0.02602 0.0
C1210 C 0.36794 0.91787 0.01304 0.0
C1211 C 0.4138 0.95059 0.02625 0.0
C1212 C 0.48571 0.98335 0.0028 0.0
H1213 H 0.61521 0.09286 0.03548 0.0
H1214 H 0.56497 0.05093 0.03584 0.0
H1215 H 0.53676 -0.00065 0.99446 0.0
H1216 H 0.36705 0.92877 0.99024 0.0
H1217 H 0.41732 0.97053 0.9907 0.0
H1218 H 0.4457 0.0187 0.03243 0.0
C1219 C 0.57351 0.06199 0.02569 0.0
C1220 C 0.51699 0.00402 0.00275 0.0
C1221 C 0.6025 0.0858 0.02546 0.0
C1222 C 0.37956 0.93476 0.00042 0.0
C1223 C 0.40856 0.9585 0.00065 0.0
C1224 C 0.46551 0.0141 0.02415 0.0
C1225 C 0.55542 0.05304 0.013 0.0
C1226 C 0.52283 0.0301 0.01335 0.0
C1227 C 0.42656 0.96596 0.0135 0.0
C1228 C 0.45956 0.98827 0.01347 0.0
H1229 H 0.605 0.10243 0.9896 0.0
H1230 H 0.55435 0.06115 0.99004 0.0
H1231 H 0.50021 0.05514 0.03227 0.0
H1232 H 0.37653 0.91425 0.03594 0.0
H1233 H 0.42722 0.95574 0.03631 0.0
C1234 C 0.08687 0.88354 0.27565 0.0
C1235 C 0.0997 0.87027 0.26254 0.0
C1236 C 0.06191 0.91158 0.27599 0.0
C1237 C 0.99639 0.96158 0.25382 0.0
H1238 H 0.01456 0.03863 0.28081 0.0
C1239 C 0.92149 0.09629 0.25036 0.0
C1240 C 0.9074 0.10981 0.26322 0.0
C1241 C 0.94598 0.06787 0.25047 0.0
C1242 C 0.00897 0.01719 0.2733 0.0
H1243 H 0.09517 0.87515 0.23948 0.0
H1244 H 0.05192 0.92415 0.2401 0.0
H1245 H 0.05316 0.98559 0.2808 0.0
H1246 H 0.90937 0.10511 0.28634 0.0
H1247 H 0.95214 0.05547 0.2865 0.0
H1248 H 0.95235 0.99328 0.24627 0.0
C1249 C 0.06095 0.91273 0.25012 0.0
C1250 C 0.03097 0.98675 0.27332 0.0
C1251 C 0.08588 0.88468 0.24978 0.0
C1252 C 0.91967 0.09536 0.27623 0.0
C1253 C 0.94424 0.06694 0.27633 0.0
C1254 C 0.97445 0.99204 0.25378 0.0
C1255 C 0.04921 0.92695 0.26323 0.0
C1256 C 0.02498 0.95865 0.26355 0.0
C1257 C 0.95702 0.05238 0.26344 0.0
C1258 C 0.9806 0.02023 0.26348 0.0
H1259 H 0.0968 0.87296 0.28568 0.0
H1260 H 0.05287 0.92152 0.28625 0.0
H1261 H 0.99075 0.94018 0.2463 0.0
H1262 H 0.91283 0.10691 0.24014 0.0
H1263 H 0.95591 0.05766 0.24038 0.0
C1264 C 0.59928 0.28391 0.00178 0.0
C1265 C 0.61681 0.27041 0.01399 0.0
C1266 C 0.5659 0.30096 0.00302 0.0
C1267 C 0.4885 0.2856 0.02369 0.0
H1268 H 0.44652 0.3716 0.00731 0.0
C1269 C 0.33683 0.30843 0.02743 0.0
C1270 C 0.31934 0.32507 0.01592 0.0
C1271 C 0.37423 0.30843 0.02834 0.0
C1272 C 0.4577 0.34722 0.0118 0.0
H1273 H 0.61527 0.26874 0.03719 0.0
H1274 H 0.55687 0.29772 0.03923 0.0
H1275 H 0.51176 0.36299 0.00658 0.0
H1276 H 0.32741 0.35563 0.99647 0.0
H1277 H 0.39271 0.35307 0.99735 0.0
H1278 H 0.43527 0.26804 0.028 0.0
C1279 C 0.56887 0.29483 0.02874 0.0
C1280 C 0.49507 0.34258 0.01149 0.0
C1281 C 0.60233 0.2782 0.02753 0.0
C1282 C 0.34012 0.34196 0.00535 0.0
C1283 C 0.37766 0.34109 0.00602 0.0
C1284 C 0.45133 0.28974 0.0237 0.0
C1285 C 0.54961 0.3046 0.01646 0.0
C1286 C 0.51067 0.31175 0.01749 0.0
C1287 C 0.39529 0.32398 0.01747 0.0
C1288 C 0.43526 0.3206 0.01778 0.0
H1289 H 0.60981 0.27879 0.99119 0.0
H1290 H 0.55147 0.30834 0.9934 0.0
H1291 H 0.4999 0.26117 0.02809 0.0
H1292 H 0.3217 0.29471 0.03566 0.0
H1293 H 0.38652 0.29579 0.03754 0.0
C1294 C 0.69484 0.83817 0.26863 0.0
C1295 C 0.67538 0.81747 0.25876 0.0
C1296 C 0.69209 0.87559 0.26857 0.0
C1297 C 0.68433 0.95003 0.24566 0.0
H1298 H 0.65873 0.00501 0.27936 0.0
C1299 C 0.72039 0.09897 0.24824 0.0
C1300 C 0.73676 0.10932 0.26114 0.0
C1301 C 0.70019 0.06731 0.2475 0.0
C1302 C 0.66612 0.99016 0.26986 0.0
H1303 H 0.63744 0.81963 0.24119 0.0
H1304 H 0.63441 0.88555 0.24055 0.0
H1305 H 0.64949 0.94001 0.27907 0.0
H1306 H 0.74206 0.09622 0.28363 0.0
H1307 H 0.70854 0.04084 0.28227 0.0
H1308 H 0.70406 -0.00102 0.23682 0.0
C1309 C 0.65113 0.87251 0.24849 0.0
C1310 C 0.66052 0.95301 0.26969 0.0
C1311 C 0.65317 0.83496 0.24878 0.0
C1312 C 0.72995 0.08904 0.27351 0.0
C1313 C 0.71036 0.05714 0.27272 0.0
C1314 C 0.69073 0.98703 0.24593 0.0
C1315 C 0.6705 0.89302 0.25842 0.0
C1316 C 0.67049 0.93262 0.25773 0.0
C1317 C 0.69648 0.04501 0.25958 0.0
C1318 C 0.68283 0.00745 0.25822 0.0
H1319 H 0.71269 0.82549 0.27626 0.0
H1320 H 0.70773 0.89101 0.27617 0.0
H1321 H 0.69241 0.93466 0.23636 0.0
H1322 H 0.72467 0.11433 0.23855 0.0
H1323 H 0.68898 0.05949 0.23729 0.0
C1324 C 0.89774 0.21564 0.52608 0.0
C1325 C 0.88365 0.22671 0.51283 0.0
C1326 C 0.93109 0.19864 0.52677 0.0
C1327 C 0.00543 0.1535 0.51069 0.0
H1328 H 0.0641 0.23326 0.52366 0.0
C1329 C 0.16074 0.15504 0.50534 0.0
C1330 C 0.18063 0.17486 0.51537 0.0
C1331 C 0.12317 0.15534 0.50569 0.0
C1332 C 0.04834 0.21027 0.52035 0.0
H1333 H 0.89109 0.22385 0.48984 0.0
H1334 H 0.9494 0.19373 0.49116 0.0
H1335 H -0.00072 0.23924 0.52329 0.0
H1336 H 0.17683 0.20958 0.5339 0.0
H1337 H 0.11189 0.20787 0.53525 0.0
H1338 H 0.05447 0.12408 0.50803 0.0
C1339 C 0.93463 0.19869 0.50094 0.0
C1340 C 0.01116 0.21391 0.52004 0.0
C1341 C 0.90135 0.21608 0.50022 0.0
C1342 C 0.16232 0.19372 0.5261 0.0
C1343 C 0.12492 0.19328 0.52669 0.0
C1344 C 0.04285 0.14948 0.51128 0.0
C1345 C 0.9505 0.19175 0.51424 0.0
C1346 C 0.98949 0.18571 0.51517 0.0
C1347 C 0.10473 0.17489 0.51628 0.0
C1348 C 0.06481 0.17796 0.51607 0.0
H1349 H 0.88466 0.22291 0.536 0.0
H1350 H 0.94302 0.19347 0.53714 0.0
H1351 H 0.98898 0.13154 0.50682 0.0
H1352 H 0.17419 0.13965 0.49711 0.0
H1353 H 0.10872 0.14106 0.49741 0.0
C1354 C 0.75521 0.40412 0.74521 0.0
C1355 C 0.7513 0.38411 0.75786 0.0
C1356 C 0.77519 0.43583 0.74512 0.0
C1357 C 0.80186 0.5066 0.7705 0.0
H1358 H 0.83998 0.55023 0.73606 0.0
C1359 C 0.84286 0.65655 0.76722 0.0
C1360 C 0.82431 0.67499 0.75638 0.0
C1361 C 0.84295 0.61897 0.76758 0.0
C1362 C 0.82966 0.53824 0.74578 0.0
H1363 H 0.76864 0.37965 0.77992 0.0
H1364 H 0.80469 0.43434 0.77961 0.0
H1365 H 0.82751 0.48578 0.73648 0.0
H1366 H 0.79181 0.66879 0.73734 0.0
H1367 H 0.79292 0.60308 0.7377 0.0
H1368 H 0.80385 0.5593 0.7797 0.0
C1369 C 0.7911 0.42628 0.7699 0.0
C1370 C 0.82234 0.5014 0.74603 0.0
C1371 C 0.77067 0.39472 0.77005 0.0
C1372 C 0.80672 0.65522 0.74569 0.0
C1373 C 0.80737 0.6177 0.7459 0.0
C1374 C 0.80979 0.54329 0.77032 0.0
C1375 C 0.79226 0.44811 0.75761 0.0
C1376 C 0.80702 0.48533 0.75822 0.0
C1377 C 0.82511 0.59925 0.75693 0.0
C1378 C 0.82257 0.55963 0.7578 0.0
H1379 H 0.74086 0.39669 0.73558 0.0
H1380 H 0.77508 0.45186 0.73546 0.0
H1381 H 0.78963 0.49553 0.78003 0.0
H1382 H 0.8571 0.6712 0.77546 0.0
H1383 H 0.85686 0.60529 0.77617 0.0
C1384 C 0.65615 0.29508 0.51747 0.0
C1385 C 0.67688 0.32161 0.51081 0.0
C1386 C 0.61889 0.2983 0.518 0.0
C1387 C 0.54198 0.3423 0.50053 0.0
H1388 H 0.49295 0.30396 0.53372 0.0
C1389 C 0.40433 0.2766 0.49769 0.0
C1390 C 0.38416 0.27151 0.51021 0.0
C1391 C 0.43606 0.29652 0.498 0.0
C1392 C 0.50585 0.31573 0.52447 0.0
H1393 H 0.67559 0.37229 0.49947 0.0
H1394 H 0.60996 0.37827 0.50044 0.0
H1395 H 0.55747 0.31134 0.53427 0.0
H1396 H 0.37871 0.28748 0.53239 0.0
H1397 H 0.43339 0.3235 0.5328 0.0
H1398 H 0.4902 0.34671 0.49074 0.0
C1399 C 0.62245 0.35477 0.50514 0.0
C1400 C 0.54311 0.31931 0.52471 0.0
C1401 C 0.65988 0.35139 0.50456 0.0
C1402 C 0.39406 0.29033 0.52262 0.0
C1403 C 0.42557 0.31077 0.52288 0.0
C1404 C 0.50453 0.33912 0.50035 0.0
C1405 C 0.60156 0.32834 0.51197 0.0
C1406 C 0.56176 0.33101 0.51252 0.0
C1407 C 0.4481 0.31224 0.5108 0.0
C1408 C 0.48615 0.32424 0.51209 0.0
H1409 H 0.66885 0.27178 0.52226 0.0
H1410 H 0.60363 0.27694 0.523 0.0
H1411 H 0.55548 0.35164 0.49098 0.0
H1412 H 0.3975 0.2626 0.48793 0.0
H1413 H 0.45256 0.29679 0.48847 0.0
C1414 C 0.64521 0.15427 0.76626 0.0
C1415 C 0.66413 0.17473 0.75615 0.0
C1416 C 0.64509 0.11673 0.76543 0.0
C1417 C 0.66166 0.04037 0.74118 0.0
H1418 H 0.69394 0.99082 0.77527 0.0
C1419 C 0.7359 0.9056 0.73964 0.0
C1420 C 0.73639 0.88358 0.75184 0.0
C1421 C 0.71602 0.93745 0.73954 0.0
C1422 C 0.68391 0.00383 0.76572 0.0
H1423 H 0.6973 0.17224 0.73716 0.0
H1424 H 0.69656 0.10673 0.73554 0.0
H1425 H 0.68011 0.05454 0.77641 0.0
H1426 H 0.71302 0.87545 0.77283 0.0
H1427 H 0.67723 0.9303 0.77243 0.0
H1428 H 0.66599 0.98982 0.73039 0.0
C1429 C 0.68165 0.11965 0.74405 0.0
C1430 C 0.67616 0.04051 0.76639 0.0
C1431 C 0.68215 0.1571 0.74499 0.0
C1432 C 0.71369 0.89217 0.76335 0.0
C1433 C 0.69338 0.92379 0.76317 0.0
C1434 C 0.66897 0.00353 0.74053 0.0
C1435 C 0.66346 0.09908 0.75435 0.0
C1436 C 0.66607 0.05935 0.75403 0.0
C1437 C 0.69575 0.94774 0.75156 0.0
C1438 C 0.68136 0.98502 0.75269 0.0
H1439 H 0.63058 0.16728 0.77482 0.0
H1440 H 0.63073 0.10148 0.77347 0.0
H1441 H 0.65342 0.05424 0.73153 0.0
H1442 H 0.75299 0.89973 0.73057 0.0
H1443 H 0.71875 0.95515 0.73042 0.0
C1444 C 0.10491 0.21424 -0.00072 0.0
C1445 C 0.11407 0.23226 0.01197 0.0
C1446 C 0.07346 0.19375 0.99851 0.0
C1447 C 0.9931 0.18514 0.99633 0.0
H1448 H 0.9445 0.14574 0.02946 0.0
C1449 C 0.84421 0.19123 0.01949 0.0
C1450 C 0.82302 0.17384 0.00919 0.0
C1451 C 0.8815 0.18773 0.01929 0.0
C1452 C 0.95792 0.15626 0.02008 0.0
H1453 H 0.09935 0.23973 0.03422 0.0
H1454 H 0.04447 0.20541 0.03279 0.0
H1455 H 0.00953 0.15421 0.03005 0.0
H1456 H 0.82418 0.1391 0.9906 0.0
H1457 H 0.88997 0.13467 0.98978 0.0
H1458 H 0.94113 0.18746 0.9865 0.0
C1459 C 0.06144 0.20645 0.02341 0.0
C1460 C 0.99509 0.16136 0.02042 0.0
C1461 C 0.09303 0.22649 0.02422 0.0
C1462 C 0.83991 0.15319 0.99855 0.0
C1463 C 0.87739 0.15035 0.99815 0.0
C1464 C 0.95604 0.17935 0.99591 0.0
C1465 C 0.05036 0.19118 0.01037 0.0
C1466 C 0.01293 0.17748 0.0088 0.0
C1467 C 0.89841 0.16743 0.00859 0.0
C1468 C 0.93802 0.16631 0.00799 0.0
H1469 H 0.12093 0.21752 0.98972 0.0
H1470 H 0.06636 0.18148 0.9884 0.0
H1471 H 0.00561 0.19797 0.98722 0.0
H1472 H 0.83199 0.20794 0.02763 0.0
H1473 H 0.89726 0.20173 0.02728 0.0
C1474 C 0.80085 0.33635 0.26872 0.0
C1475 C 0.82827 0.31675 0.26207 0.0
C1476 C 0.80221 0.37381 0.2691 0.0
C1477 C 0.81834 0.45151 0.27488 0.0
H1478 H 0.84632 0.50327 0.24071 0.0
C1479 C 0.78902 0.60126 0.27121 0.0
C1480 C 0.77137 0.61102 0.25851 0.0
C1481 C 0.80852 0.56916 0.27199 0.0
C1482 C 0.83848 0.48927 0.25037 0.0
H1483 H 0.87884 0.32025 0.25078 0.0
H1484 H 0.8817 0.38608 0.25159 0.0
H1485 H 0.85335 0.43823 0.24164 0.0
H1486 H 0.76344 0.59644 0.23628 0.0
H1487 H 0.79618 0.54048 0.2377 0.0
H1488 H 0.80084 0.50183 0.28323 0.0
C1489 C 0.85881 0.37263 0.25632 0.0
C1490 C 0.84289 0.45195 0.25096 0.0
C1491 C 0.85727 0.33505 0.25586 0.0
C1492 C 0.77657 0.5898 0.24626 0.0
C1493 C 0.79562 0.55755 0.24707 0.0
C1494 C 0.81354 0.48867 0.27424 0.0
C1495 C 0.83125 0.39248 0.26295 0.0
C1496 C 0.8317 0.43249 0.26305 0.0
C1497 C 0.81035 0.54593 0.26013 0.0
C1498 C 0.82242 0.50794 0.26179 0.0
H1499 H 0.77812 0.32265 0.27348 0.0
H1500 H 0.78005 0.38813 0.27398 0.0
H1501 H 0.81032 0.43751 0.28452 0.0
H1502 H 0.78603 0.6173 0.2808 0.0
H1503 H 0.82045 0.56163 0.28211 0.0
C1504 C 0.10915 0.78421 0.52243 0.0
C1505 C 0.11907 0.76531 0.51004 0.0
C1506 C 0.07735 0.80422 0.52275 0.0
C1507 C -0.00174 0.83254 0.50031 0.0
H1508 H 0.94562 0.80754 0.53463 0.0
C1509 C 0.84368 0.84919 0.50446 0.0
C1510 C 0.82578 0.82023 0.51089 0.0
C1511 C 0.88114 0.85175 0.50522 0.0
C1512 C 0.95988 0.8147 0.52495 0.0
H1513 H 0.10542 0.75585 0.4878 0.0
H1514 H 0.04973 0.78925 0.48849 0.0
H1515 H 0.00993 0.7983 0.53383 0.0
H1516 H 0.8323 0.77136 0.52314 0.0
H1517 H 0.89755 0.77505 0.5242 0.0
H1518 H 0.94744 0.84613 0.49108 0.0
C1519 C 0.06643 0.78929 0.49796 0.0
C1520 C 0.99704 0.81005 0.52457 0.0
C1521 C 0.09845 0.76979 0.49758 0.0
C1522 C 0.84566 0.79401 0.51816 0.0
C1523 C 0.88298 0.79639 0.51886 0.0
C1524 C 0.96092 0.83677 0.50064 0.0
C1525 C 0.05455 0.80526 0.51075 0.0
C1526 C 0.01662 0.81767 0.51207 0.0
C1527 C 0.90125 0.82531 0.51243 0.0
C1528 C 0.94117 0.8266 0.51279 0.0
H1529 H 0.1248 0.78184 0.53215 0.0
H1530 H 0.06966 0.81714 0.53265 0.0
H1531 H 0.0125 0.83947 0.49061 0.0
H1532 H 0.82866 0.86995 0.49895 0.0
H1533 H 0.89429 0.87453 0.50027 0.0
C1534 C 0.14506 0.35009 0.75048 0.0
C1535 C 0.167 0.33252 0.76053 0.0
C1536 C 0.14273 0.38764 0.75033 0.0
C1537 C 0.15249 0.46764 0.77225 0.0
H1538 H 0.19068 0.5154 0.73874 0.0
C1539 C 0.22076 0.60443 0.7752 0.0
C1540 C 0.2253 0.62528 0.76281 0.0
C1541 C 0.20145 0.57232 0.77471 0.0
C1542 C 0.17884 0.5029 0.74806 0.0
H1543 H 0.20363 0.34038 0.77826 0.0
H1544 H 0.1983 0.40584 0.77838 0.0
H1545 H 0.17997 0.45091 0.73817 0.0
H1546 H 0.20921 0.63115 0.74067 0.0
H1547 H 0.17423 0.57578 0.73994 0.0
H1548 H 0.15137 0.51929 0.78224 0.0
C1549 C 0.18301 0.39053 0.77063 0.0
C1550 C 0.17297 0.46581 0.74772 0.0
C1551 C 0.186 0.35313 0.77057 0.0
C1552 C 0.20684 0.61529 0.75033 0.0
C1553 C 0.187 0.58337 0.74989 0.0
C1554 C 0.15761 0.50486 0.77251 0.0
C1555 C 0.16159 0.40809 0.76045 0.0
C1556 C 0.16108 0.44776 0.75998 0.0
C1557 C 0.18564 0.56051 0.76188 0.0
C1558 C 0.17238 0.52279 0.76062 0.0
H1559 H 0.12966 0.33481 0.74277 0.0
H1560 H 0.12611 0.40072 0.74237 0.0
H1561 H 0.1429 0.4542 0.78178 0.0
H1562 H 0.23448 0.61133 0.78503 0.0
H1563 H 0.20139 0.55559 0.78418 0.0
C1564 C 0.64251 0.65336 0.99881 0.0
C1565 C 0.66273 0.67992 0.00577 0.0
C1566 C 0.60492 0.65445 -0.0008 0.0
C1567 C 0.5264 0.67576 0.99479 0.0
H1568 H 0.48049 0.71452 0.02862 0.0
C1569 C 0.38898 0.74506 0.99362 0.0
C1570 C 0.36896 0.7484 0.00629 0.0
C1571 C 0.42129 0.72599 0.99351 0.0
C1572 C 0.4925 0.70283 0.01916 0.0
H1573 H 0.66022 0.72873 0.01828 0.0
H1574 H 0.59483 0.73141 0.01869 0.0
H1575 H 0.54436 0.70239 0.02891 0.0
H1576 H 0.36489 0.73059 0.0283 0.0
H1577 H 0.42051 0.69604 0.02795 0.0
H1578 H 0.47431 0.67584 0.9851 0.0
C1579 C 0.6076 0.70907 0.01328 0.0
C1580 C 0.52944 0.69651 0.01926 0.0
C1581 C 0.64503 0.70779 0.01296 0.0
C1582 C 0.37999 0.72905 0.01842 0.0
C1583 C 0.41208 0.70949 0.01825 0.0
C1584 C 0.48927 0.68171 0.99475 0.0
C1585 C 0.58701 0.68226 0.00652 0.0
C1586 C 0.54708 0.68413 0.00692 0.0
C1587 C 0.43411 0.70933 0.00602 0.0
C1588 C 0.47201 0.69647 0.00678 0.0
H1589 H 0.6558 0.6315 0.99327 0.0
H1590 H 0.58995 0.63326 0.99397 0.0
H1591 H 0.53905 0.66615 0.9851 0.0
H1592 H 0.38123 0.75947 0.98404 0.0
H1593 H 0.4374 0.72672 0.98389 0.0
C1594 C 0.3572 0.14473 0.2499 0.0
C1595 C 0.33491 0.16183 0.25995 0.0
C1596 C 0.35916 0.1072 0.24935 0.0
C1597 C 0.34942 0.02547 0.26967 0.0
H1598 H 0.30391 0.98232 0.23661 0.0
C1599 C 0.27845 0.89018 0.27255 0.0
C1600 C 0.27075 0.8708 0.26003 0.0
C1601 C 0.29841 0.92185 0.27194 0.0
C1602 C 0.31778 0.99347 0.24576 0.0
H1603 H 0.29769 0.15316 0.27742 0.0
H1604 H 0.30252 0.08761 0.27689 0.0
H1605 H 0.31637 0.04649 0.23677 0.0
H1606 H 0.2816 0.86716 0.23731 0.0
H1607 H 0.31795 0.92161 0.23634 0.0
H1608 H 0.35101 0.97281 0.27876 0.0
C1609 C 0.31821 0.10334 0.26941 0.0
C1610 C 0.32465 0.03039 0.24584 0.0
C1611 C 0.31554 0.14076 0.26972 0.0
C1612 C 0.28657 0.88181 0.24712 0.0
C1613 C 0.30716 0.91325 0.24655 0.0
C1614 C 0.34338 0.9884 0.26947 0.0
C1615 C 0.33967 0.08631 0.25911 0.0
C1616 C 0.33921 0.04679 0.25801 0.0
C1617 C 0.3118 0.93467 0.25883 0.0
C1618 C 0.32594 0.97212 0.25778 0.0
H1619 H 0.37292 0.16034 0.2424 0.0
H1620 H 0.3758 0.09447 0.24131 0.0
H1621 H 0.361 0.0377 0.27912 0.0
H1622 H 0.26683 0.88248 0.2827 0.0
H1623 H 0.30094 0.93748 0.28164 0.0
C1624 C 0.88209 0.78218 0.99575 0.0
C1625 C 0.87064 0.7643 0.00816 0.0
C1626 C 0.91343 0.80296 0.9959 0.0
C1627 C 0.98694 0.83659 0.02024 0.0
H1628 H 0.04646 0.81809 0.98704 0.0
C1629 C 0.14086 0.81671 0.01989 0.0
C1630 C 0.16061 0.83884 0.01061 0.0
C1631 C 0.10335 0.81736 0.0197 0.0
C1632 C 0.02994 0.82394 0.99629 0.0
H1633 H 0.88161 0.75657 0.03074 0.0
H1634 H 0.93646 0.791 0.03088 0.0
H1635 H 0.98291 0.8031 0.9863 0.0
H1636 H 0.15667 0.8798 0.9942 0.0
H1637 H 0.0908 0.87926 0.9933 0.0
H1638 H 0.03531 0.85443 0.03054 0.0
C1639 C 0.92122 0.79001 0.02104 0.0
C1640 C 0.99337 0.81564 0.99587 0.0
C1641 C 0.88963 0.76987 0.02095 0.0
C1642 C 0.14211 0.86198 0.00128 0.0
C1643 C 0.10456 0.86196 0.00084 0.0
C1644 C 0.02371 0.84405 0.02075 0.0
C1645 C 0.93435 0.80574 0.0084 0.0
C1646 C 0.9715 0.82084 0.00799 0.0
C1647 C 0.08497 0.83956 0.01003 0.0
C1648 C 0.04555 0.837 0.00888 0.0
H1649 H 0.86777 0.77884 0.98576 0.0
H1650 H 0.92202 0.81555 0.98604 0.0
H1651 H 0.97093 0.84196 0.02966 0.0
H1652 H 0.15437 0.79821 0.02703 0.0
H1653 H 0.08867 0.7995 0.02674 0.0
C1654 C 0.15184 0.64466 0.25527 0.0
C1655 C 0.1806 0.66353 0.26138 0.0
C1656 C 0.15082 0.60707 0.25589 0.0
C1657 C 0.16724 0.52762 0.25109 0.0
H1658 H 0.21042 0.47967 0.2836 0.0
C1659 C 0.2329 0.3891 0.24733 0.0
C1660 C 0.23874 0.36879 0.25979 0.0
C1661 C 0.21406 0.42151 0.24794 0.0
C1662 C 0.19742 0.49227 0.27454 0.0
H1663 H 0.23098 0.65863 0.27271 0.0
H1664 H 0.23001 0.59316 0.27348 0.0
H1665 H 0.20068 0.54396 0.28438 0.0
H1666 H 0.22529 0.3642 0.28226 0.0
H1667 H 0.19106 0.42 0.2832 0.0
H1668 H 0.16362 0.47574 0.24132 0.0
C1669 C 0.2076 0.60703 0.26857 0.0
C1670 C 0.19247 0.52944 0.27489 0.0
C1671 C 0.20841 0.64449 0.26804 0.0
C1672 C 0.22182 0.37954 0.27252 0.0
C1673 C 0.20246 0.41174 0.27308 0.0
C1674 C 0.17176 0.49028 0.2508 0.0
C1675 C 0.17871 0.58778 0.26258 0.0
C1676 C 0.17867 0.54778 0.26296 0.0
C1677 C 0.20009 0.43414 0.26098 0.0
C1678 C 0.18818 0.47227 0.26231 0.0
H1679 H 0.12999 0.65902 0.25017 0.0
H1680 H 0.12805 0.59319 0.25127 0.0
H1681 H 0.15643 0.54079 0.2417 0.0
H1682 H 0.24534 0.38156 0.2373 0.0
H1683 H 0.21303 0.43787 0.23838 0.0
C1684 C 0.60962 0.70562 0.51931 0.0
C1685 C 0.61888 0.72539 0.50706 0.0
C1686 C 0.57765 0.68599 0.51973 0.0
C1687 C 0.49683 0.6597 0.49807 0.0
H1688 H 0.44673 0.68483 0.53298 0.0
C1689 C 0.34553 0.69777 0.5176 0.0
C1690 C 0.32527 0.67052 0.51116 0.0
C1691 C 0.38293 0.69587 0.51772 0.0
C1692 C 0.46031 0.67757 0.52316 0.0
H1693 H 0.60386 0.73681 0.48511 0.0
H1694 H 0.54782 0.70382 0.48599 0.0
H1695 H 0.51106 0.69369 0.53147 0.0
H1696 H 0.3276 0.61971 0.49993 0.0
H1697 H 0.39342 0.61616 0.50013 0.0
H1698 H 0.44527 0.64607 0.48948 0.0
C1699 C 0.56521 0.70292 0.49526 0.0
C1700 C 0.49743 0.68205 0.52235 0.0
C1701 C 0.59741 0.72211 0.49477 0.0
C1702 C 0.34289 0.64118 0.50486 0.0
C1703 C 0.38043 0.63919 0.50498 0.0
C1704 C 0.45953 0.65546 0.49885 0.0
C1705 C 0.55403 0.68618 0.50799 0.0
C1706 C 0.51606 0.67431 0.50964 0.0
C1707 C 0.40086 0.66654 0.51143 0.0
C1708 C 0.44075 0.66558 0.51125 0.0
H1709 H 0.62595 0.70707 0.52888 0.0
H1710 H 0.57043 0.67246 0.52957 0.0
H1711 H 0.51037 0.65288 0.48819 0.0
H1712 H 0.33238 0.72079 0.52241 0.0
H1713 H 0.39781 0.71781 0.52249 0.0
C1714 C 0.27958 0.11405 0.74877 0.0
C1715 C 0.26251 0.1253 0.7614 0.0
C1716 C 0.2992 0.08195 0.74847 0.0
C1717 C 0.33056 0.00526 0.7717 0.0
H1718 H 0.30566 0.9487 0.73832 0.0
C1719 C 0.30366 0.85298 0.77174 0.0
C1720 C 0.32152 0.83197 0.76149 0.0
C1721 C 0.30643 0.8904 0.77147 0.0
C1722 C 0.31335 0.96432 0.7476 0.0
H1723 H 0.25548 0.11335 0.78392 0.0
H1724 H 0.2881 0.05728 0.78332 0.0
H1725 H 0.29461 0.01313 0.73828 0.0
H1726 H 0.35693 0.83365 0.74311 0.0
H1727 H 0.36002 0.89949 0.74216 0.0
H1728 H 0.34639 0.95537 0.78136 0.0
C1729 C 0.28719 0.07318 0.77364 0.0
C1730 C 0.30728 0.00139 0.74758 0.0
C1731 C 0.26814 0.10548 0.77398 0.0
C1732 C 0.34231 0.84918 0.75098 0.0
C1733 C 0.3444 0.88672 0.75051 0.0
C1734 C 0.33588 0.96806 0.77181 0.0
C1735 C 0.30167 0.06014 0.76074 0.0
C1736 C 0.31475 0.02226 0.7598 0.0
C1737 C 0.3265 0.90758 0.76078 0.0
C1738 C 0.32643 0.94723 0.7599 0.0
H1739 H 0.27621 0.129 0.73892 0.0
H1740 H 0.31093 0.07343 0.73844 0.0
H1741 H 0.33759 0.02044 0.78117 0.0
H1742 H 0.2869 0.84056 0.7798 0.0
H1743 H 0.29189 0.906 0.77936 0.0
loop_
_geom_bond_atom_site_label_1
_geom_bond_atom_site_label_2
_geom_bond_distance
_geom_bond_site_symmetry_2
_ccdc_geom_bond_type
Co0 O3 1.970 . S
Co0 N17 1.989 . S
Co0 O25 1.967 . S
Co0 O32 1.920 . S
Co1 O4 1.966 1_556 S
Co1 N10 2.022 . S
Co1 N18 1.993 1_556 S
Co1 O26 1.941 . S
C2 O3 1.258 . S
C2 O4 1.263 . S
O3 Co0 1.970 . S
O3 C2 1.258 . S
O4 Co1 1.966 1_554 S
O4 C2 1.263 . S
C5 O6 1.235 . S
C5 O32 1.289 . S
O6 C5 1.235 . S
C7 C9 1.400 . S
C7 N10 1.351 . S
C7 C12 1.501 . S
C8 C9 1.387 . S
C8 N11 1.341 . S
C9 C7 1.400 . S
C9 C8 1.387 . S
N10 Co1 2.022 . S
N10 C7 1.351 . S
N10 N11 1.365 . S
N11 C8 1.341 . S
N11 N10 1.365 . S
N11 H31 0.862 . S
C12 C7 1.501 . S
C12 H13 0.961 . S
C12 H14 0.961 . S
C12 H15 0.960 . S
H13 C12 0.961 . S
H14 C12 0.961 . S
H15 C12 0.960 . S
C16 N17 1.342 . S
C16 C20 1.401 . S
C16 C21 1.499 . S
N17 Co0 1.989 . S
N17 C16 1.342 . S
N17 N18 1.388 . S
N18 Co1 1.993 1_554 S
N18 N17 1.388 . S
N18 C19 1.339 1_554 S
C19 N18 1.339 1_556 S
C19 C20 1.380 1_556 S
C19 C29 1.530 . S
C20 C16 1.401 . S
C20 C19 1.380 1_554 S
C21 C16 1.499 . S
C21 H22 0.959 . S
C21 H23 0.960 . S
C21 H24 0.961 . S
H22 C21 0.959 . S
H23 C21 0.960 . S
H24 C21 0.961 . S
O25 Co0 1.967 . S
O25 C33 1.258 . S
O26 Co1 1.941 . S
O26 C33 1.266 1_556 S
H27 C29 0.959 . S
H28 C29 0.961 . S
C29 C19 1.530 . S
C29 H27 0.959 . S
C29 H28 0.961 . S
C29 H30 0.960 . S
H30 C29 0.960 . S
H31 N11 0.862 . S
O32 Co0 1.920 . S
O32 C5 1.289 . S
C33 O25 1.258 . S
C33 O26 1.266 1_554 S
Co34 O37 1.970 . S
Co34 N51 1.989 . S
Co34 O59 1.967 . S
Co34 O66 1.920 . S
Co35 O38 1.966 . S
Co35 N44 2.022 . S
Co35 N52 1.993 . S
Co35 O60 1.941 . S
C36 O37 1.258 . S
C36 O38 1.263 . S
O37 Co34 1.970 . S
O37 C36 1.258 . S
O38 Co35 1.966 . S
O38 C36 1.263 . S
C39 O40 1.235 . S
C39 O66 1.289 . S
O40 C39 1.235 . S
C41 C43 1.400 . S
C41 N44 1.351 . S
C41 C46 1.501 . S
C42 C43 1.387 . S
C42 N45 1.341 . S
C43 C41 1.400 . S
C43 C42 1.387 . S
N44 Co35 2.022 . S
N44 C41 1.351 . S
N44 N45 1.365 . S
N45 C42 1.341 . S
N45 N44 1.365 . S
N45 H65 0.862 . S
C46 C41 1.501 . S
C46 H47 0.961 . S
C46 H48 0.961 . S
C46 H49 0.960 . S
H47 C46 0.961 . S
H48 C46 0.961 . S
H49 C46 0.960 . S
C50 N51 1.342 . S
C50 C54 1.401 . S
C50 C55 1.499 . S
N51 Co34 1.989 . S
N51 C50 1.342 . S
N51 N52 1.388 . S
N52 Co35 1.993 . S
N52 N51 1.388 . S
N52 C53 1.346 . S
C53 N52 1.346 . S
C53 C54 1.396 . S
C53 C63 1.510 . S
C54 C50 1.401 . S
C54 C53 1.396 . S
C55 C50 1.499 . S
C55 H56 0.959 . S
C55 H57 0.960 . S
C55 H58 0.961 . S
H56 C55 0.959 . S
H57 C55 0.960 . S
H58 C55 0.961 . S
O59 Co34 1.967 . S
O59 C67 1.258 . S
O60 Co35 1.941 . S
O60 C67 1.266 . S
H61 C63 0.959 . S
H62 C63 0.961 . S
C63 C53 1.510 . S
C63 H61 0.959 . S
C63 H62 0.961 . S
C63 H64 0.960 . S
H64 C63 0.960 . S
H65 N45 0.862 . S
O66 Co34 1.920 . S
O66 C39 1.289 . S
C67 O59 1.258 . S
C67 O60 1.266 . S
Co68 O71 1.970 . S
Co68 N85 1.989 . S
Co68 O93 1.967 . S
Co68 O100 1.920 . S
Co69 O72 1.966 . S
Co69 N78 2.022 . S
Co69 N86 1.993 . S
Co69 O94 1.941 . S
C70 O71 1.258 . S
C70 O72 1.263 . S
O71 Co68 1.970 . S
O71 C70 1.258 . S
O72 Co69 1.966 . S
O72 C70 1.263 . S
C73 O74 1.235 . S
C73 O100 1.289 . S
O74 C73 1.235 . S
C75 C77 1.400 . S
C75 N78 1.351 . S
C75 C80 1.501 . S
C76 C77 1.387 . S
C76 N79 1.341 . S
C77 C75 1.400 . S
C77 C76 1.387 . S
N78 Co69 2.022 . S
N78 C75 1.351 . S
N78 N79 1.365 . S
N79 C76 1.341 . S
N79 N78 1.365 . S
N79 H99 0.862 . S
C80 C75 1.501 . S
C80 H81 0.961 . S
C80 H82 0.961 . S
C80 H83 0.960 . S
H81 C80 0.961 . S
H82 C80 0.961 . S
H83 C80 0.960 . S
C84 N85 1.342 . S
C84 C88 1.401 . S
C84 C89 1.499 . S
N85 Co68 1.989 . S
N85 C84 1.342 . S
N85 N86 1.388 . S
N86 Co69 1.993 . S
N86 N85 1.388 . S
N86 C87 1.346 . S
C87 N86 1.346 . S
C87 C88 1.396 . S
C87 C97 1.510 . S
C88 C84 1.401 . S
C88 C87 1.396 . S
C89 C84 1.499 . S
C89 H90 0.959 . S
C89 H91 0.960 . S
C89 H92 0.961 . S
H90 C89 0.959 . S
H91 C89 0.960 . S
H92 C89 0.961 . S
O93 Co68 1.967 . S
O93 C101 1.258 . S
O94 Co69 1.941 . S
O94 C101 1.266 . S
H95 C97 0.959 . S
H96 C97 0.961 . S
C97 C87 1.510 . S
C97 H95 0.959 . S
C97 H96 0.961 . S
C97 H98 0.960 . S
H98 C97 0.960 . S
H99 N79 0.862 . S
O100 Co68 1.920 . S
O100 C73 1.289 . S
C101 O93 1.258 . S
C101 O94 1.266 . S
Co102 O105 1.970 . S
Co102 N119 1.989 . S
Co102 O127 1.967 . S
Co102 O134 1.920 . S
Co103 O106 1.966 . S
Co103 N112 2.022 . S
Co103 N120 1.993 . S
Co103 O128 1.941 . S
C104 O105 1.258 . S
C104 O106 1.263 . S
O105 Co102 1.970 . S
O105 C104 1.258 . S
O106 Co103 1.966 . S
O106 C104 1.263 . S
C107 O108 1.235 . S
C107 O134 1.289 . S
O108 C107 1.235 . S
C109 C111 1.400 . S
C109 N112 1.351 . S
C109 C114 1.501 . S
C110 C111 1.387 . S
C110 N113 1.341 . S
C111 C109 1.400 . S
C111 C110 1.387 . S
N112 Co103 2.022 . S
N112 C109 1.351 . S
N112 N113 1.365 . S
N113 C110 1.341 . S
N113 N112 1.365 . S
N113 H133 0.862 . S
C114 C109 1.501 . S
C114 H115 0.961 . S
C114 H116 0.961 . S
C114 H117 0.960 . S
H115 C114 0.961 . S
H116 C114 0.961 . S
H117 C114 0.960 . S
C118 N119 1.342 . S
C118 C122 1.401 . S
C118 C123 1.499 . S
N119 Co102 1.989 . S
N119 C118 1.342 . S
N119 N120 1.388 . S
N120 Co103 1.993 . S
N120 N119 1.388 . S
N120 C121 1.346 . S
C121 N120 1.346 . S
C121 C122 1.396 . S
C121 C131 1.510 . S
C122 C118 1.401 . S
C122 C121 1.396 . S
C123 C118 1.499 . S
C123 H124 0.959 . S
C123 H125 0.960 . S
C123 H126 0.961 . S
H124 C123 0.959 . S
H125 C123 0.960 . S
H126 C123 0.961 . S
O127 Co102 1.967 . S
O127 C135 1.258 . S
O128 Co103 1.941 . S
O128 C135 1.266 . S
H129 C131 0.959 . S
H130 C131 0.961 . S
C131 C121 1.510 . S
C131 H129 0.959 . S
C131 H130 0.961 . S
C131 H132 0.960 . S
H132 C131 0.960 . S
H133 N113 0.862 . S
O134 Co102 1.920 . S
O134 C107 1.289 . S
C135 O127 1.258 . S
C135 O128 1.266 . S
Co136 O139 1.970 . S
Co136 N153 1.989 . S
Co136 O161 1.967 . S
Co136 O168 1.920 . S
Co137 O140 1.966 . S
Co137 N146 2.022 . S
Co137 N154 1.993 . S
Co137 O162 1.941 . S
C138 O139 1.258 . S
C138 O140 1.263 . S
O139 Co136 1.970 . S
O139 C138 1.258 . S
O140 Co137 1.966 . S
O140 C138 1.263 . S
C141 O142 1.235 . S
C141 O168 1.289 . S
O142 C141 1.235 . S
C143 C145 1.400 . S
C143 N146 1.351 . S
C143 C148 1.501 . S
C144 C145 1.387 . S
C144 N147 1.341 . S
C145 C143 1.400 . S
C145 C144 1.387 . S
N146 Co137 2.022 . S
N146 C143 1.351 . S
N146 N147 1.365 . S
N147 C144 1.341 . S
N147 N146 1.365 . S
N147 H167 0.862 . S
C148 C143 1.501 . S
C148 H149 0.961 . S
C148 H150 0.961 . S
C148 H151 0.960 . S
H149 C148 0.961 . S
H150 C148 0.961 . S
H151 C148 0.960 . S
C152 N153 1.342 . S
C152 C156 1.401 . S
C152 C157 1.499 . S
N153 Co136 1.989 . S
N153 C152 1.342 . S
N153 N154 1.388 . S
N154 Co137 1.993 . S
N154 N153 1.388 . S
N154 C155 1.346 . S
C155 N154 1.346 . S
C155 C156 1.396 . S
C155 C165 1.510 . S
C156 C152 1.401 . S
C156 C155 1.396 . S
C157 C152 1.499 . S
C157 H158 0.959 . S
C157 H159 0.960 . S
C157 H160 0.961 . S
H158 C157 0.959 . S
H159 C157 0.960 . S
H160 C157 0.961 . S
O161 Co136 1.967 . S
O161 C169 1.258 . S
O162 Co137 1.941 . S
O162 C169 1.266 . S
H163 C165 0.959 . S
H164 C165 0.961 . S
C165 C155 1.510 . S
C165 H163 0.959 . S
C165 H164 0.961 . S
C165 H166 0.960 . S
H166 C165 0.960 . S
H167 N147 0.862 . S
O168 Co136 1.920 . S
O168 C141 1.289 . S
C169 O161 1.258 . S
C169 O162 1.266 . S
Co170 O173 1.970 . S
Co170 N187 1.989 . S
Co170 O195 1.967 . S
Co170 O202 1.920 . S
Co171 O174 1.966 . S
Co171 N180 2.022 . S
Co171 N188 1.993 . S
Co171 O196 1.941 . S
C172 O173 1.258 . S
C172 O174 1.263 . S
O173 Co170 1.970 . S
O173 C172 1.258 . S
O174 Co171 1.966 . S
O174 C172 1.263 . S
C175 O176 1.235 . S
C175 O202 1.289 . S
O176 C175 1.235 . S
C177 C179 1.400 . S
C177 N180 1.351 . S
C177 C182 1.501 . S
C178 C179 1.387 . S
C178 N181 1.341 . S
C179 C177 1.400 . S
C179 C178 1.387 . S
N180 Co171 2.022 . S
N180 C177 1.351 . S
N180 N181 1.365 . S
N181 C178 1.341 . S
N181 N180 1.365 . S
N181 H201 0.862 . S
C182 C177 1.501 . S
C182 H183 0.961 . S
C182 H184 0.961 . S
C182 H185 0.960 . S
H183 C182 0.961 . S
H184 C182 0.961 . S
H185 C182 0.960 . S
C186 N187 1.342 . S
C186 C190 1.401 . S
C186 C191 1.499 . S
N187 Co170 1.989 . S
N187 C186 1.342 . S
N187 N188 1.388 . S
N188 Co171 1.993 . S
N188 N187 1.388 . S
N188 C189 1.346 . S
C189 N188 1.346 . S
C189 C190 1.396 . S
C189 C199 1.510 . S
C190 C186 1.401 . S
C190 C189 1.396 . S
C191 C186 1.499 . S
C191 H192 0.959 . S
C191 H193 0.960 . S
C191 H194 0.961 . S
H192 C191 0.959 . S
H193 C191 0.960 . S
H194 C191 0.961 . S
O195 Co170 1.967 . S
O195 C203 1.258 . S
O196 Co171 1.941 . S
O196 C203 1.266 . S
H197 C199 0.959 . S
H198 C199 0.961 . S
C199 C189 1.510 . S
C199 H197 0.959 . S
C199 H198 0.961 . S
C199 H200 0.960 . S
H200 C199 0.960 . S
H201 N181 0.862 . S
O202 Co170 1.920 . S
O202 C175 1.289 . S
C203 O195 1.258 . S
C203 O196 1.266 . S
Co204 O207 1.970 . S
Co204 N221 1.989 . S
Co204 O229 1.967 . S
Co204 O236 1.920 . S
Co205 O208 1.966 1_556 S
Co205 N214 2.022 . S
Co205 N222 1.993 1_556 S
Co205 O230 1.941 . S
C206 O207 1.258 . S
C206 O208 1.263 . S
O207 Co204 1.970 . S
O207 C206 1.258 . S
O208 Co205 1.966 1_554 S
O208 C206 1.263 . S
C209 O210 1.235 . S
C209 O236 1.289 . S
O210 C209 1.235 . S
C211 C213 1.400 . S
C211 N214 1.351 . S
C211 C216 1.501 . S
C212 C213 1.387 . S
C212 N215 1.341 . S
C213 C211 1.400 . S
C213 C212 1.387 . S
N214 Co205 2.022 . S
N214 C211 1.351 . S
N214 N215 1.365 . S
N215 C212 1.341 . S
N215 N214 1.365 . S
N215 H235 0.862 . S
C216 C211 1.501 . S
C216 H217 0.961 . S
C216 H218 0.961 . S
C216 H219 0.960 . S
H217 C216 0.961 . S
H218 C216 0.961 . S
H219 C216 0.960 . S
C220 N221 1.342 . S
C220 C224 1.401 . S
C220 C225 1.499 . S
N221 Co204 1.989 . S
N221 C220 1.342 . S
N221 N222 1.388 . S
N222 Co205 1.993 1_554 S
N222 N221 1.388 . S
N222 C223 1.339 1_554 S
C223 N222 1.339 1_556 S
C223 C224 1.380 1_556 S
C223 C233 1.530 . S
C224 C220 1.401 . S
C224 C223 1.380 1_554 S
C225 C220 1.499 . S
C225 H226 0.959 . S
C225 H227 0.960 . S
C225 H228 0.961 . S
H226 C225 0.959 . S
H227 C225 0.960 . S
H228 C225 0.961 . S
O229 Co204 1.967 . S
O229 C237 1.258 . S
O230 Co205 1.941 . S
O230 C237 1.266 1_556 S
H231 C233 0.959 . S
H232 C233 0.961 . S
C233 C223 1.530 . S
C233 H231 0.959 . S
C233 H232 0.961 . S
C233 H234 0.960 . S
H234 C233 0.960 . S
H235 N215 0.862 . S
O236 Co204 1.920 . S
O236 C209 1.289 . S
C237 O229 1.258 . S
C237 O230 1.266 1_554 S
Co238 O241 1.970 . S
Co238 N255 1.989 . S
Co238 O263 1.967 . S
Co238 O270 1.920 . S
Co239 O242 1.966 . S
Co239 N248 2.022 . S
Co239 N256 1.993 . S
Co239 O264 1.941 . S
C240 O241 1.258 . S
C240 O242 1.263 . S
O241 Co238 1.970 . S
O241 C240 1.258 . S
O242 Co239 1.966 . S
O242 C240 1.263 . S
C243 O244 1.235 . S
C243 O270 1.289 . S
O244 C243 1.235 . S
C245 C247 1.400 . S
C245 N248 1.351 . S
C245 C250 1.501 . S
C246 C247 1.387 . S
C246 N249 1.341 . S
C247 C245 1.400 . S
C247 C246 1.387 . S
N248 Co239 2.022 . S
N248 C245 1.351 . S
N248 N249 1.365 . S
N249 C246 1.341 . S
N249 N248 1.365 . S
N249 H269 0.862 . S
C250 C245 1.501 . S
C250 H251 0.961 . S
C250 H252 0.961 . S
C250 H253 0.960 . S
H251 C250 0.961 . S
H252 C250 0.961 . S
H253 C250 0.960 . S
C254 N255 1.342 . S
C254 C258 1.401 . S
C254 C259 1.499 . S
N255 Co238 1.989 . S
N255 C254 1.342 . S
N255 N256 1.388 . S
N256 Co239 1.993 . S
N256 N255 1.388 . S
N256 C257 1.346 . S
C257 N256 1.346 . S
C257 C258 1.396 . S
C257 C267 1.510 . S
C258 C254 1.401 . S
C258 C257 1.396 . S
C259 C254 1.499 . S
C259 H260 0.959 . S
C259 H261 0.960 . S
C259 H262 0.961 . S
H260 C259 0.959 . S
H261 C259 0.960 . S
H262 C259 0.961 . S
O263 Co238 1.967 . S
O263 C271 1.258 . S
O264 Co239 1.941 . S
O264 C271 1.266 . S
H265 C267 0.959 . S
H266 C267 0.961 . S
C267 C257 1.510 . S
C267 H265 0.959 . S
C267 H266 0.961 . S
C267 H268 0.960 . S
H268 C267 0.960 . S
H269 N249 0.862 . S
O270 Co238 1.920 . S
O270 C243 1.289 . S
C271 O263 1.258 . S
C271 O264 1.266 . S
Co272 O275 1.970 . S
Co272 N289 1.989 . S
Co272 O297 1.967 . S
Co272 O304 1.920 . S
Co273 O276 1.966 . S
Co273 N282 2.022 . S
Co273 N290 1.993 . S
Co273 O298 1.941 . S
C274 O275 1.258 . S
C274 O276 1.263 . S
O275 Co272 1.970 . S
O275 C274 1.258 . S
O276 Co273 1.966 . S
O276 C274 1.263 . S
C277 O278 1.235 . S
C277 O304 1.289 . S
O278 C277 1.235 . S
C279 C281 1.400 . S
C279 N282 1.351 . S
C279 C284 1.501 . S
C280 C281 1.387 . S
C280 N283 1.341 . S
C281 C279 1.400 . S
C281 C280 1.387 . S
N282 Co273 2.022 . S
N282 C279 1.351 . S
N282 N283 1.365 . S
N283 C280 1.341 . S
N283 N282 1.365 . S
N283 H303 0.862 . S
C284 C279 1.501 . S
C284 H285 0.961 . S
C284 H286 0.961 . S
C284 H287 0.960 . S
H285 C284 0.961 . S
H286 C284 0.961 . S
H287 C284 0.960 . S
C288 N289 1.342 . S
C288 C292 1.401 . S
C288 C293 1.499 . S
N289 Co272 1.989 . S
N289 C288 1.342 . S
N289 N290 1.388 . S
N290 Co273 1.993 . S
N290 N289 1.388 . S
N290 C291 1.346 . S
C291 N290 1.346 . S
C291 C292 1.396 . S
C291 C301 1.510 . S
C292 C288 1.401 . S
C292 C291 1.396 . S
C293 C288 1.499 . S
C293 H294 0.959 . S
C293 H295 0.960 . S
C293 H296 0.961 . S
H294 C293 0.959 . S
H295 C293 0.960 . S
H296 C293 0.961 . S
O297 Co272 1.967 . S
O297 C305 1.258 . S
O298 Co273 1.941 . S
O298 C305 1.266 . S
H299 C301 0.959 . S
H300 C301 0.961 . S
C301 C291 1.510 . S
C301 H299 0.959 . S
C301 H300 0.961 . S
C301 H302 0.960 . S
H302 C301 0.960 . S
H303 N283 0.862 . S
O304 Co272 1.920 . S
O304 C277 1.289 . S
C305 O297 1.258 . S
C305 O298 1.266 . S
Co306 O309 1.970 . S
Co306 N323 1.989 . S
Co306 O331 1.967 . S
Co306 O338 1.920 . S
Co307 O310 1.966 . S
Co307 N316 2.022 . S
Co307 N324 1.993 . S
Co307 O332 1.941 . S
C308 O309 1.258 . S
C308 O310 1.263 . S
O309 Co306 1.970 . S
O309 C308 1.258 . S
O310 Co307 1.966 . S
O310 C308 1.263 . S
C311 O312 1.235 . S
C311 O338 1.289 . S
O312 C311 1.235 . S
C313 C315 1.400 . S
C313 N316 1.351 . S
C313 C318 1.501 . S
C314 C315 1.387 . S
C314 N317 1.341 . S
C315 C313 1.400 . S
C315 C314 1.387 . S
N316 Co307 2.022 . S
N316 C313 1.351 . S
N316 N317 1.365 . S
N317 C314 1.341 . S
N317 N316 1.365 . S
N317 H337 0.862 . S
C318 C313 1.501 . S
C318 H319 0.961 . S
C318 H320 0.961 . S
C318 H321 0.960 . S
H319 C318 0.961 . S
H320 C318 0.961 . S
H321 C318 0.960 . S
C322 N323 1.342 . S
C322 C326 1.401 . S
C322 C327 1.499 . S
N323 Co306 1.989 . S
N323 C322 1.342 . S
N323 N324 1.388 . S
N324 Co307 1.993 . S
N324 N323 1.388 . S
N324 C325 1.346 . S
C325 N324 1.346 . S
C325 C326 1.396 . S
C325 C335 1.510 . S
C326 C322 1.401 . S
C326 C325 1.396 . S
C327 C322 1.499 . S
C327 H328 0.959 . S
C327 H329 0.960 . S
C327 H330 0.961 . S
H328 C327 0.959 . S
H329 C327 0.960 . S
H330 C327 0.961 . S
O331 Co306 1.967 . S
O331 C339 1.258 . S
O332 Co307 1.941 . S
O332 C339 1.266 . S
H333 C335 0.959 . S
H334 C335 0.961 . S
C335 C325 1.510 . S
C335 H333 0.959 . S
C335 H334 0.961 . S
C335 H336 0.960 . S
H336 C335 0.960 . S
H337 N317 0.862 . S
O338 Co306 1.920 . S
O338 C311 1.289 . S
C339 O331 1.258 . S
C339 O332 1.266 . S
Co340 O343 1.970 . S
Co340 N357 1.989 . S
Co340 O365 1.967 . S
Co340 O372 1.920 . S
Co341 O344 1.966 1_556 S
Co341 N350 2.022 . S
Co341 N358 1.993 1_556 S
Co341 O366 1.941 . S
C342 O343 1.258 . S
C342 O344 1.263 . S
O343 Co340 1.970 . S
O343 C342 1.258 . S
O344 Co341 1.966 1_554 S
O344 C342 1.263 . S
C345 O346 1.235 . S
C345 O372 1.289 . S
O346 C345 1.235 . S
C347 C349 1.400 . S
C347 N350 1.351 . S
C347 C352 1.501 . S
C348 C349 1.387 . S
C348 N351 1.341 . S
C349 C347 1.400 . S
C349 C348 1.387 . S
N350 Co341 2.022 . S
N350 C347 1.351 . S
N350 N351 1.365 . S
N351 C348 1.341 . S
N351 N350 1.365 . S
N351 H371 0.862 . S
C352 C347 1.501 . S
C352 H353 0.961 . S
C352 H354 0.961 . S
C352 H355 0.960 . S
H353 C352 0.961 . S
H354 C352 0.961 . S
H355 C352 0.960 . S
C356 N357 1.342 . S
C356 C360 1.401 . S
C356 C361 1.499 . S
N357 Co340 1.989 . S
N357 C356 1.342 . S
N357 N358 1.388 . S
N358 Co341 1.993 1_554 S
N358 N357 1.388 . S
N358 C359 1.339 1_554 S
C359 N358 1.339 1_556 S
C359 C360 1.380 1_556 S
C359 C369 1.530 . S
C360 C356 1.401 . S
C360 C359 1.380 1_554 S
C361 C356 1.499 . S
C361 H362 0.959 . S
C361 H363 0.960 . S
C361 H364 0.961 . S
H362 C361 0.959 . S
H363 C361 0.960 . S
H364 C361 0.961 . S
O365 Co340 1.967 . S
O365 C373 1.258 . S
O366 Co341 1.941 . S
O366 C373 1.266 1_556 S
H367 C369 0.959 . S
H368 C369 0.961 . S
C369 C359 1.530 . S
C369 H367 0.959 . S
C369 H368 0.961 . S
C369 H370 0.960 . S
H370 C369 0.960 . S
H371 N351 0.862 . S
O372 Co340 1.920 . S
O372 C345 1.289 . S
C373 O365 1.258 . S
C373 O366 1.266 1_554 S
Co374 O377 1.970 . S
Co374 N391 1.989 . S
Co374 O399 1.967 . S
Co374 O406 1.920 . S
Co375 O378 1.966 . S
Co375 N384 2.022 . S
Co375 N392 1.993 . S
Co375 O400 1.941 . S
C376 O377 1.258 . S
C376 O378 1.263 . S
O377 Co374 1.970 . S
O377 C376 1.258 . S
O378 Co375 1.966 . S
O378 C376 1.263 . S
C379 O380 1.235 . S
C379 O406 1.289 . S
O380 C379 1.235 . S
C381 C383 1.400 . S
C381 N384 1.351 . S
C381 C386 1.501 . S
C382 C383 1.387 . S
C382 N385 1.341 . S
C383 C381 1.400 . S
C383 C382 1.387 . S
N384 Co375 2.022 . S
N384 C381 1.351 . S
N384 N385 1.365 . S
N385 C382 1.341 . S
N385 N384 1.365 . S
N385 H405 0.862 . S
C386 C381 1.501 . S
C386 H387 0.961 . S
C386 H388 0.961 . S
C386 H389 0.960 . S
H387 C386 0.961 . S
H388 C386 0.961 . S
H389 C386 0.960 . S
C390 N391 1.342 . S
C390 C394 1.401 . S
C390 C395 1.499 . S
N391 Co374 1.989 . S
N391 C390 1.342 . S
N391 N392 1.388 . S
N392 Co375 1.993 . S
N392 N391 1.388 . S
N392 C393 1.346 . S
C393 N392 1.346 . S
C393 C394 1.396 . S
C393 C403 1.510 . S
C394 C390 1.401 . S
C394 C393 1.396 . S
C395 C390 1.499 . S
C395 H396 0.959 . S
C395 H397 0.960 . S
C395 H398 0.961 . S
H396 C395 0.959 . S
H397 C395 0.960 . S
H398 C395 0.961 . S
O399 Co374 1.967 . S
O399 C407 1.258 . S
O400 Co375 1.941 . S
O400 C407 1.266 . S
H401 C403 0.959 . S
H402 C403 0.961 . S
C403 C393 1.510 . S
C403 H401 0.959 . S
C403 H402 0.961 . S
C403 H404 0.960 . S
H404 C403 0.960 . S
H405 N385 0.862 . S
O406 Co374 1.920 . S
O406 C379 1.289 . S
C407 O399 1.258 . S
C407 O400 1.266 . S
Co408 O411 1.970 . S
Co408 N425 1.989 . S
Co408 O433 1.967 . S
Co408 O440 1.920 . S
Co409 O412 1.966 1_556 S
Co409 N418 2.022 . S
Co409 N426 1.993 1_556 S
Co409 O434 1.941 . S
C410 O411 1.258 . S
C410 O412 1.263 . S
O411 Co408 1.970 . S
O411 C410 1.258 . S
O412 Co409 1.966 1_554 S
O412 C410 1.263 . S
C413 O414 1.235 . S
C413 O440 1.289 . S
O414 C413 1.235 . S
C415 C417 1.400 . S
C415 N418 1.351 . S
C415 C420 1.501 . S
C416 C417 1.387 . S
C416 N419 1.341 . S
C417 C415 1.400 . S
C417 C416 1.387 . S
N418 Co409 2.022 . S
N418 C415 1.351 . S
N418 N419 1.365 . S
N419 C416 1.341 . S
N419 N418 1.365 . S
N419 H439 0.862 . S
C420 C415 1.501 . S
C420 H421 0.961 . S
C420 H422 0.961 . S
C420 H423 0.960 . S
H421 C420 0.961 . S
H422 C420 0.961 . S
H423 C420 0.960 . S
C424 N425 1.342 . S
C424 C428 1.401 . S
C424 C429 1.499 . S
N425 Co408 1.989 . S
N425 C424 1.342 . S
N425 N426 1.388 . S
N426 Co409 1.993 1_554 S
N426 N425 1.388 . S
N426 C427 1.339 1_554 S
C427 N426 1.339 1_556 S
C427 C428 1.380 1_556 S
C427 C437 1.530 . S
C428 C424 1.401 . S
C428 C427 1.380 1_554 S
C429 C424 1.499 . S
C429 H430 0.959 . S
C429 H431 0.960 . S
C429 H432 0.961 . S
H430 C429 0.959 . S
H431 C429 0.960 . S
H432 C429 0.961 . S
O433 Co408 1.967 . S
O433 C441 1.258 . S
O434 Co409 1.941 . S
O434 C441 1.266 1_556 S
H435 C437 0.959 . S
H436 C437 0.961 . S
C437 C427 1.530 . S
C437 H435 0.959 . S
C437 H436 0.961 . S
C437 H438 0.960 . S
H438 C437 0.960 . S
H439 N419 0.862 . S
O440 Co408 1.920 . S
O440 C413 1.289 . S
C441 O433 1.258 . S
C441 O434 1.266 1_554 S
Co442 O445 1.970 . S
Co442 N459 1.989 . S
Co442 O467 1.967 . S
Co442 O474 1.920 . S
Co443 O446 1.966 . S
Co443 N452 2.022 . S
Co443 N460 1.993 . S
Co443 O468 1.941 . S
C444 O445 1.258 . S
C444 O446 1.263 . S
O445 Co442 1.970 . S
O445 C444 1.258 . S
O446 Co443 1.966 . S
O446 C444 1.263 . S
C447 O448 1.235 . S
C447 O474 1.289 . S
O448 C447 1.235 . S
C449 C451 1.400 . S
C449 N452 1.351 . S
C449 C454 1.501 . S
C450 C451 1.387 . S
C450 N453 1.341 . S
C451 C449 1.400 . S
C451 C450 1.387 . S
N452 Co443 2.022 . S
N452 C449 1.351 . S
N452 N453 1.365 . S
N453 C450 1.341 . S
N453 N452 1.365 . S
N453 H473 0.862 . S
C454 C449 1.501 . S
C454 H455 0.961 . S
C454 H456 0.961 . S
C454 H457 0.960 . S
H455 C454 0.961 . S
H456 C454 0.961 . S
H457 C454 0.960 . S
C458 N459 1.342 . S
C458 C462 1.401 . S
C458 C463 1.499 . S
N459 Co442 1.989 . S
N459 C458 1.342 . S
N459 N460 1.388 . S
N460 Co443 1.993 . S
N460 N459 1.388 . S
N460 C461 1.346 . S
C461 N460 1.346 . S
C461 C462 1.396 . S
C461 C471 1.510 . S
C462 C458 1.401 . S
C462 C461 1.396 . S
C463 C458 1.499 . S
C463 H464 0.959 . S
C463 H465 0.960 . S
C463 H466 0.961 . S
H464 C463 0.959 . S
H465 C463 0.960 . S
H466 C463 0.961 . S
O467 Co442 1.967 . S
O467 C475 1.258 . S
O468 Co443 1.941 . S
O468 C475 1.266 . S
H469 C471 0.959 . S
H470 C471 0.961 . S
C471 C461 1.510 . S
C471 H469 0.959 . S
C471 H470 0.961 . S
C471 H472 0.960 . S
H472 C471 0.960 . S
H473 N453 0.862 . S
O474 Co442 1.920 . S
O474 C447 1.289 . S
C475 O467 1.258 . S
C475 O468 1.266 . S
Co476 O479 1.970 . S
Co476 N493 1.989 . S
Co476 O501 1.967 . S
Co476 O508 1.920 . S
Co477 O480 1.966 . S
Co477 N486 2.022 . S
Co477 N494 1.993 . S
Co477 O502 1.941 . S
C478 O479 1.258 . S
C478 O480 1.263 . S
O479 Co476 1.970 . S
O479 C478 1.258 . S
O480 Co477 1.966 . S
O480 C478 1.263 . S
C481 O482 1.235 . S
C481 O508 1.289 . S
O482 C481 1.235 . S
C483 C485 1.400 . S
C483 N486 1.351 . S
C483 C488 1.501 . S
C484 C485 1.387 . S
C484 N487 1.341 . S
C485 C483 1.400 . S
C485 C484 1.387 . S
N486 Co477 2.022 . S
N486 C483 1.351 . S
N486 N487 1.365 . S
N487 C484 1.341 . S
N487 N486 1.365 . S
N487 H507 0.862 . S
C488 C483 1.501 . S
C488 H489 0.961 . S
C488 H490 0.961 . S
C488 H491 0.960 . S
H489 C488 0.961 . S
H490 C488 0.961 . S
H491 C488 0.960 . S
C492 N493 1.342 . S
C492 C496 1.401 . S
C492 C497 1.499 . S
N493 Co476 1.989 . S
N493 C492 1.342 . S
N493 N494 1.388 . S
N494 Co477 1.993 . S
N494 N493 1.388 . S
N494 C495 1.346 . S
C495 N494 1.346 . S
C495 C496 1.396 . S
C495 C505 1.510 . S
C496 C492 1.401 . S
C496 C495 1.396 . S
C497 C492 1.499 . S
C497 H498 0.959 . S
C497 H499 0.960 . S
C497 H500 0.961 . S
H498 C497 0.959 . S
H499 C497 0.960 . S
H500 C497 0.961 . S
O501 Co476 1.967 . S
O501 C509 1.258 . S
O502 Co477 1.941 . S
O502 C509 1.266 . S
H503 C505 0.959 . S
H504 C505 0.961 . S
C505 C495 1.510 . S
C505 H503 0.959 . S
C505 H504 0.961 . S
C505 H506 0.960 . S
H506 C505 0.960 . S
H507 N487 0.862 . S
O508 Co476 1.920 . S
O508 C481 1.289 . S
C509 O501 1.258 . S
C509 O502 1.266 . S
Co510 O513 1.970 . S
Co510 N527 1.989 . S
Co510 O535 1.967 . S
Co510 O542 1.920 . S
Co511 O514 1.966 . S
Co511 N520 2.022 . S
Co511 N528 1.993 . S
Co511 O536 1.941 . S
C512 O513 1.258 . S
C512 O514 1.263 . S
O513 Co510 1.970 . S
O513 C512 1.258 . S
O514 Co511 1.966 . S
O514 C512 1.263 . S
C515 O516 1.235 . S
C515 O542 1.289 . S
O516 C515 1.235 . S
C517 C519 1.400 . S
C517 N520 1.351 . S
C517 C522 1.501 . S
C518 C519 1.387 . S
C518 N521 1.341 . S
C519 C517 1.400 . S
C519 C518 1.387 . S
N520 Co511 2.022 . S
N520 C517 1.351 . S
N520 N521 1.365 . S
N521 C518 1.341 . S
N521 N520 1.365 . S
N521 H541 0.862 . S
C522 C517 1.501 . S
C522 H523 0.961 . S
C522 H524 0.961 . S
C522 H525 0.960 . S
H523 C522 0.961 . S
H524 C522 0.961 . S
H525 C522 0.960 . S
C526 N527 1.342 . S
C526 C530 1.401 . S
C526 C531 1.499 . S
N527 Co510 1.989 . S
N527 C526 1.342 . S
N527 N528 1.388 . S
N528 Co511 1.993 . S
N528 N527 1.388 . S
N528 C529 1.346 . S
C529 N528 1.346 . S
C529 C530 1.396 . S
C529 C539 1.510 . S
C530 C526 1.401 . S
C530 C529 1.396 . S
C531 C526 1.499 . S
C531 H532 0.959 . S
C531 H533 0.960 . S
C531 H534 0.961 . S
H532 C531 0.959 . S
H533 C531 0.960 . S
H534 C531 0.961 . S
O535 Co510 1.967 . S
O535 C543 1.258 . S
O536 Co511 1.941 . S
O536 C543 1.266 . S
H537 C539 0.959 . S
H538 C539 0.961 . S
C539 C529 1.510 . S
C539 H537 0.959 . S
C539 H538 0.961 . S
C539 H540 0.960 . S
H540 C539 0.960 . S
H541 N521 0.862 . S
O542 Co510 1.920 . S
O542 C515 1.289 . S
C543 O535 1.258 . S
C543 O536 1.266 . S
C544 C545 1.349 . S
C544 C546 1.327 . S
C544 H569 0.950 . S
C545 C544 1.349 . S
C545 C561 1.349 . S
C546 C544 1.327 . S
C546 C565 1.429 . S
C546 H570 0.950 . S
C547 C564 1.574 . S
C547 C566 1.368 . S
C547 H571 0.949 . S
H548 C552 0.949 . S
C549 C550 1.349 . S
C549 C551 1.327 . S
C549 H572 0.950 . S
C550 C549 1.349 . S
C550 C562 1.349 . S
C551 C549 1.327 . S
C551 C567 1.429 . S
C551 H573 0.950 . S
C552 H548 0.949 . S
C552 C560 1.574 . S
C552 C568 1.368 . S
H553 C561 0.950 . S
H554 C559 0.950 . S
H555 C560 0.949 . S
H556 C562 0.950 . S
H557 C563 0.950 . S
H558 C564 0.949 . S
C559 H554 0.950 . S
C559 C561 1.327 . S
C559 C565 1.429 . S
C560 C552 1.574 . S
C560 H555 0.949 . S
C560 C566 1.368 . S
C561 C545 1.349 . S
C561 H553 0.950 . S
C561 C559 1.327 . S
C562 C550 1.349 . S
C562 H556 0.950 . S
C562 C563 1.327 . S
C563 H557 0.950 . S
C563 C562 1.327 . S
C563 C567 1.429 . S
C564 C547 1.574 . S
C564 H558 0.949 . S
C564 C568 1.368 . S
C565 C546 1.429 . S
C565 C559 1.429 . S
C565 C566 1.523 . S
C566 C547 1.368 . S
C566 C560 1.368 . S
C566 C565 1.523 . S
C567 C551 1.429 . S
C567 C563 1.429 . S
C567 C568 1.523 . S
C568 C552 1.368 . S
C568 C564 1.368 . S
C568 C567 1.523 . S
H569 C544 0.950 . S
H570 C546 0.950 . S
H571 C547 0.949 . S
H572 C549 0.950 . S
H573 C551 0.950 . S
C574 C575 1.349 . S
C574 C576 1.327 . S
C574 H599 0.950 . S
C575 C574 1.349 . S
C575 C591 1.349 . S
C576 C574 1.327 . S
C576 C595 1.429 . S
C576 H600 0.950 . S
C577 C594 1.574 . S
C577 C596 1.368 . S
C577 H601 0.949 . S
H578 C582 0.949 . S
C579 C580 1.349 . S
C579 C581 1.327 . S
C579 H602 0.950 . S
C580 C579 1.349 . S
C580 C592 1.349 . S
C581 C579 1.327 . S
C581 C597 1.429 . S
C581 H603 0.950 . S
C582 H578 0.949 . S
C582 C590 1.574 . S
C582 C598 1.368 . S
H583 C591 0.950 . S
H584 C589 0.950 . S
H585 C590 0.949 . S
H586 C592 0.950 . S
H587 C593 0.950 . S
H588 C594 0.949 . S
C589 H584 0.950 . S
C589 C591 1.327 . S
C589 C595 1.429 . S
C590 C582 1.574 . S
C590 H585 0.949 . S
C590 C596 1.368 . S
C591 C575 1.349 . S
C591 H583 0.950 . S
C591 C589 1.327 . S
C592 C580 1.349 . S
C592 H586 0.950 . S
C592 C593 1.327 . S
C593 H587 0.950 . S
C593 C592 1.327 . S
C593 C597 1.429 . S
C594 C577 1.574 . S
C594 H588 0.949 . S
C594 C598 1.368 . S
C595 C576 1.429 . S
C595 C589 1.429 . S
C595 C596 1.523 . S
C596 C577 1.368 . S
C596 C590 1.368 . S
C596 C595 1.523 . S
C597 C581 1.429 . S
C597 C593 1.429 . S
C597 C598 1.523 . S
C598 C582 1.368 . S
C598 C594 1.368 . S
C598 C597 1.523 . S
H599 C574 0.950 . S
H600 C576 0.950 . S
H601 C577 0.949 . S
H602 C579 0.950 . S
H603 C581 0.950 . S
C604 C605 1.349 . S
C604 C606 1.327 . S
C604 H629 0.950 . S
C605 C604 1.349 . S
C605 C621 1.349 . S
C606 C604 1.327 . S
C606 C625 1.429 . S
C606 H630 0.950 . S
C607 C624 1.574 . S
C607 C626 1.368 . S
C607 H631 0.949 . S
H608 C612 0.949 . S
C609 C610 1.349 . S
C609 C611 1.327 . S
C609 H632 0.950 . S
C610 C609 1.349 . S
C610 C622 1.349 . S
C611 C609 1.327 . S
C611 C627 1.429 . S
C611 H633 0.950 . S
C612 H608 0.949 . S
C612 C620 1.574 . S
C612 C628 1.368 . S
H613 C621 0.950 . S
H614 C619 0.950 . S
H615 C620 0.949 . S
H616 C622 0.950 . S
H617 C623 0.950 . S
H618 C624 0.949 . S
C619 H614 0.950 . S
C619 C621 1.327 . S
C619 C625 1.429 . S
C620 C612 1.574 . S
C620 H615 0.949 . S
C620 C626 1.368 . S
C621 C605 1.349 . S
C621 H613 0.950 . S
C621 C619 1.327 . S
C622 C610 1.349 . S
C622 H616 0.950 . S
C622 C623 1.327 . S
C623 H617 0.950 . S
C623 C622 1.327 . S
C623 C627 1.429 . S
C624 C607 1.574 . S
C624 H618 0.949 . S
C624 C628 1.368 . S
C625 C606 1.429 . S
C625 C619 1.429 . S
C625 C626 1.523 . S
C626 C607 1.368 . S
C626 C620 1.368 . S
C626 C625 1.523 . S
C627 C611 1.429 . S
C627 C623 1.429 . S
C627 C628 1.523 . S
C628 C612 1.368 . S
C628 C624 1.368 . S
C628 C627 1.523 . S
H629 C604 0.950 . S
H630 C606 0.950 . S
H631 C607 0.949 . S
H632 C609 0.950 . S
H633 C611 0.950 . S
C634 C635 1.349 . S
C634 C636 1.327 . S
C634 H659 0.950 . S
C635 C634 1.349 . S
C635 C651 1.349 . S
C636 C634 1.327 . S
C636 C655 1.429 . S
C636 H660 0.950 . S
C637 C654 1.574 . S
C637 C656 1.368 . S
C637 H661 0.949 . S
H638 C642 0.949 . S
C639 C640 1.349 . S
C639 C641 1.327 . S
C639 H662 0.950 . S
C640 C639 1.349 . S
C640 C652 1.349 . S
C641 C639 1.327 . S
C641 C657 1.429 . S
C641 H663 0.950 . S
C642 H638 0.949 . S
C642 C650 1.574 . S
C642 C658 1.368 . S
H643 C651 0.950 . S
H644 C649 0.950 . S
H645 C650 0.949 . S
H646 C652 0.950 . S
H647 C653 0.950 . S
H648 C654 0.949 . S
C649 H644 0.950 . S
C649 C651 1.327 . S
C649 C655 1.429 . S
C650 C642 1.574 . S
C650 H645 0.949 . S
C650 C656 1.368 . S
C651 C635 1.349 . S
C651 H643 0.950 . S
C651 C649 1.327 . S
C652 C640 1.349 . S
C652 H646 0.950 . S
C652 C653 1.327 . S
C653 H647 0.950 . S
C653 C652 1.327 . S
C653 C657 1.429 . S
C654 C637 1.574 . S
C654 H648 0.949 . S
C654 C658 1.368 . S
C655 C636 1.429 . S
C655 C649 1.429 . S
C655 C656 1.523 . S
C656 C637 1.368 . S
C656 C650 1.368 . S
C656 C655 1.523 . S
C657 C641 1.429 . S
C657 C653 1.429 . S
C657 C658 1.523 . S
C658 C642 1.368 . S
C658 C654 1.368 . S
C658 C657 1.523 . S
H659 C634 0.950 . S
H660 C636 0.950 . S
H661 C637 0.949 . S
H662 C639 0.950 . S
H663 C641 0.950 . S
C664 C665 1.349 . S
C664 C666 1.327 . S
C664 H689 0.950 . S
C665 C664 1.349 . S
C665 C681 1.349 . S
C666 C664 1.327 . S
C666 C685 1.429 . S
C666 H690 0.950 . S
C667 C684 1.574 . S
C667 C686 1.368 . S
C667 H691 0.949 . S
H668 C672 0.949 . S
C669 C670 1.349 . S
C669 C671 1.327 . S
C669 H692 0.950 . S
C670 C669 1.349 . S
C670 C682 1.349 . S
C671 C669 1.327 . S
C671 C687 1.429 . S
C671 H693 0.950 . S
C672 H668 0.949 . S
C672 C680 1.574 . S
C672 C688 1.368 . S
H673 C681 0.950 . S
H674 C679 0.950 . S
H675 C680 0.949 . S
H676 C682 0.950 . S
H677 C683 0.950 . S
H678 C684 0.949 . S
C679 H674 0.950 . S
C679 C681 1.327 . S
C679 C685 1.429 . S
C680 C672 1.574 . S
C680 H675 0.949 . S
C680 C686 1.368 . S
C681 C665 1.349 . S
C681 H673 0.950 . S
C681 C679 1.327 . S
C682 C670 1.349 . S
C682 H676 0.950 . S
C682 C683 1.327 . S
C683 H677 0.950 . S
C683 C682 1.327 . S
C683 C687 1.429 . S
C684 C667 1.574 . S
C684 H678 0.949 . S
C684 C688 1.368 . S
C685 C666 1.429 . S
C685 C679 1.429 . S
C685 C686 1.523 . S
C686 C667 1.368 . S
C686 C680 1.368 . S
C686 C685 1.523 . S
C687 C671 1.429 . S
C687 C683 1.429 . S
C687 C688 1.523 . S
C688 C672 1.368 . S
C688 C684 1.368 . S
C688 C687 1.523 . S
H689 C664 0.950 . S
H690 C666 0.950 . S
H691 C667 0.949 . S
H692 C669 0.950 . S
H693 C671 0.950 . S
C694 C695 1.349 . S
C694 C696 1.327 . S
C694 H719 0.950 . S
C695 C694 1.349 . S
C695 C711 1.349 . S
C696 C694 1.327 . S
C696 C715 1.429 . S
C696 H720 0.950 . S
C697 C714 1.574 . S
C697 C716 1.368 . S
C697 H721 0.949 . S
H698 C702 0.949 . S
C699 C700 1.349 . S
C699 C701 1.327 . S
C699 H722 0.950 . S
C700 C699 1.349 . S
C700 C712 1.349 . S
C701 C699 1.327 . S
C701 C717 1.429 . S
C701 H723 0.950 . S
C702 H698 0.949 . S
C702 C710 1.574 . S
C702 C718 1.368 . S
H703 C711 0.950 . S
H704 C709 0.950 . S
H705 C710 0.949 . S
H706 C712 0.950 . S
H707 C713 0.950 . S
H708 C714 0.949 . S
C709 H704 0.950 . S
C709 C711 1.327 . S
C709 C715 1.429 . S
C710 C702 1.574 . S
C710 H705 0.949 . S
C710 C716 1.368 . S
C711 C695 1.349 . S
C711 H703 0.950 . S
C711 C709 1.327 . S
C712 C700 1.349 . S
C712 H706 0.950 . S
C712 C713 1.327 . S
C713 H707 0.950 . S
C713 C712 1.327 . S
C713 C717 1.429 . S
C714 C697 1.574 . S
C714 H708 0.949 . S
C714 C718 1.368 . S
C715 C696 1.429 . S
C715 C709 1.429 . S
C715 C716 1.523 . S
C716 C697 1.368 . S
C716 C710 1.368 . S
C716 C715 1.523 . S
C717 C701 1.429 . S
C717 C713 1.429 . S
C717 C718 1.523 . S
C718 C702 1.368 . S
C718 C714 1.368 . S
C718 C717 1.523 . S
H719 C694 0.950 . S
H720 C696 0.950 . S
H721 C697 0.949 . S
H722 C699 0.950 . S
H723 C701 0.950 . S
C724 C725 1.349 . S
C724 C726 1.327 . S
C724 H749 0.950 . S
C725 C724 1.349 . S
C725 C741 1.349 . S
C726 C724 1.327 . S
C726 C745 1.429 . S
C726 H750 0.950 . S
C727 C744 1.574 . S
C727 C746 1.368 . S
C727 H751 0.949 . S
H728 C732 0.949 . S
C729 C730 1.349 . S
C729 C731 1.327 . S
C729 H752 0.950 . S
C730 C729 1.349 . S
C730 C742 1.349 . S
C731 C729 1.327 . S
C731 C747 1.429 . S
C731 H753 0.950 . S
C732 H728 0.949 . S
C732 C740 1.574 . S
C732 C748 1.368 . S
H733 C741 0.950 . S
H734 C739 0.950 . S
H735 C740 0.949 . S
H736 C742 0.950 . S
H737 C743 0.950 . S
H738 C744 0.949 . S
C739 H734 0.950 . S
C739 C741 1.327 . S
C739 C745 1.429 . S
C740 C732 1.574 . S
C740 H735 0.949 . S
C740 C746 1.368 . S
C741 C725 1.349 . S
C741 H733 0.950 . S
C741 C739 1.327 . S
C742 C730 1.349 . S
C742 H736 0.950 . S
C742 C743 1.327 . S
C743 H737 0.950 . S
C743 C742 1.327 . S
C743 C747 1.429 . S
C744 C727 1.574 . S
C744 H738 0.949 . S
C744 C748 1.368 . S
C745 C726 1.429 . S
C745 C739 1.429 . S
C745 C746 1.523 . S
C746 C727 1.368 . S
C746 C740 1.368 . S
C746 C745 1.523 . S
C747 C731 1.429 . S
C747 C743 1.429 . S
C747 C748 1.523 . S
C748 C732 1.368 . S
C748 C744 1.368 . S
C748 C747 1.523 . S
H749 C724 0.950 . S
H750 C726 0.950 . S
H751 C727 0.949 . S
H752 C729 0.950 . S
H753 C731 0.950 . S
C754 C755 1.349 . S
C754 C756 1.327 . S
C754 H779 0.950 . S
C755 C754 1.349 . S
C755 C771 1.349 . S
C756 C754 1.327 . S
C756 C775 1.429 . S
C756 H780 0.950 . S
C757 C774 1.574 . S
C757 C776 1.368 . S
C757 H781 0.949 . S
H758 C762 0.949 . S
C759 C760 1.349 . S
C759 C761 1.327 . S
C759 H782 0.950 . S
C760 C759 1.349 . S
C760 C772 1.349 . S
C761 C759 1.327 . S
C761 C777 1.429 . S
C761 H783 0.950 . S
C762 H758 0.949 . S
C762 C770 1.574 . S
C762 C778 1.368 . S
H763 C771 0.950 . S
H764 C769 0.950 . S
H765 C770 0.949 . S
H766 C772 0.950 . S
H767 C773 0.950 . S
H768 C774 0.949 . S
C769 H764 0.950 . S
C769 C771 1.327 . S
C769 C775 1.429 . S
C770 C762 1.574 . S
C770 H765 0.949 . S
C770 C776 1.368 . S
C771 C755 1.349 . S
C771 H763 0.950 . S
C771 C769 1.327 . S
C772 C760 1.349 . S
C772 H766 0.950 . S
C772 C773 1.327 . S
C773 H767 0.950 . S
C773 C772 1.327 . S
C773 C777 1.429 . S
C774 C757 1.574 . S
C774 H768 0.949 . S
C774 C778 1.368 . S
C775 C756 1.429 . S
C775 C769 1.429 . S
C775 C776 1.523 . S
C776 C757 1.368 . S
C776 C770 1.368 . S
C776 C775 1.523 . S
C777 C761 1.429 . S
C777 C773 1.429 . S
C777 C778 1.523 . S
C778 C762 1.368 . S
C778 C774 1.368 . S
C778 C777 1.523 . S
H779 C754 0.950 . S
H780 C756 0.950 . S
H781 C757 0.949 . S
H782 C759 0.950 . S
H783 C761 0.950 . S
C784 C785 1.349 . S
C784 C786 1.327 . S
C784 H809 0.950 . S
C785 C784 1.349 . S
C785 C801 1.349 . S
C786 C784 1.327 . S
C786 C805 1.429 . S
C786 H810 0.950 . S
C787 C804 1.574 . S
C787 C806 1.368 . S
C787 H811 0.949 . S
H788 C792 0.949 . S
C789 C790 1.349 . S
C789 C791 1.327 . S
C789 H812 0.950 . S
C790 C789 1.349 . S
C790 C802 1.349 . S
C791 C789 1.327 . S
C791 C807 1.429 . S
C791 H813 0.950 . S
C792 H788 0.949 . S
C792 C800 1.574 . S
C792 C808 1.368 . S
H793 C801 0.950 . S
H794 C799 0.950 . S
H795 C800 0.949 . S
H796 C802 0.950 . S
H797 C803 0.950 . S
H798 C804 0.949 . S
C799 H794 0.950 . S
C799 C801 1.327 . S
C799 C805 1.429 . S
C800 C792 1.574 . S
C800 H795 0.949 . S
C800 C806 1.368 . S
C801 C785 1.349 . S
C801 H793 0.950 . S
C801 C799 1.327 . S
C802 C790 1.349 . S
C802 H796 0.950 . S
C802 C803 1.327 . S
C803 H797 0.950 . S
C803 C802 1.327 . S
C803 C807 1.429 . S
C804 C787 1.574 . S
C804 H798 0.949 . S
C804 C808 1.368 . S
C805 C786 1.429 . S
C805 C799 1.429 . S
C805 C806 1.523 . S
C806 C787 1.368 . S
C806 C800 1.368 . S
C806 C805 1.523 . S
C807 C791 1.429 . S
C807 C803 1.429 . S
C807 C808 1.523 . S
C808 C792 1.368 . S
C808 C804 1.368 . S
C808 C807 1.523 . S
H809 C784 0.950 . S
H810 C786 0.950 . S
H811 C787 0.949 . S
H812 C789 0.950 . S
H813 C791 0.950 . S
C814 C815 1.349 . S
C814 C816 1.327 . S
C814 H839 0.950 . S
C815 C814 1.349 . S
C815 C831 1.349 . S
C816 C814 1.327 . S
C816 C835 1.429 . S
C816 H840 0.950 . S
C817 C834 1.574 . S
C817 C836 1.368 . S
C817 H841 0.949 . S
H818 C822 0.949 . S
C819 C820 1.349 . S
C819 C821 1.327 . S
C819 H842 0.950 . S
C820 C819 1.349 . S
C820 C832 1.349 . S
C821 C819 1.327 . S
C821 C837 1.429 . S
C821 H843 0.950 . S
C822 H818 0.949 . S
C822 C830 1.574 . S
C822 C838 1.368 . S
H823 C831 0.950 . S
H824 C829 0.950 . S
H825 C830 0.949 . S
H826 C832 0.950 . S
H827 C833 0.950 . S
H828 C834 0.949 . S
C829 H824 0.950 . S
C829 C831 1.327 . S
C829 C835 1.429 . S
C830 C822 1.574 . S
C830 H825 0.949 . S
C830 C836 1.368 . S
C831 C815 1.349 . S
C831 H823 0.950 . S
C831 C829 1.327 . S
C832 C820 1.349 . S
C832 H826 0.950 . S
C832 C833 1.327 . S
C833 H827 0.950 . S
C833 C832 1.327 . S
C833 C837 1.429 . S
C834 C817 1.574 . S
C834 H828 0.949 . S
C834 C838 1.368 . S
C835 C816 1.429 . S
C835 C829 1.429 . S
C835 C836 1.523 . S
C836 C817 1.368 . S
C836 C830 1.368 . S
C836 C835 1.523 . S
C837 C821 1.429 . S
C837 C833 1.429 . S
C837 C838 1.523 . S
C838 C822 1.368 . S
C838 C834 1.368 . S
C838 C837 1.523 . S
H839 C814 0.950 . S
H840 C816 0.950 . S
H841 C817 0.949 . S
H842 C819 0.950 . S
H843 C821 0.950 . S
C844 C845 1.349 . S
C844 C846 1.327 . S
C844 H869 0.950 . S
C845 C844 1.349 . S
C845 C861 1.349 . S
C846 C844 1.327 . S
C846 C865 1.429 . S
C846 H870 0.950 . S
C847 C864 1.574 . S
C847 C866 1.368 . S
C847 H871 0.949 . S
H848 C852 0.949 . S
C849 C850 1.349 . S
C849 C851 1.327 . S
C849 H872 0.950 . S
C850 C849 1.349 . S
C850 C862 1.349 . S
C851 C849 1.327 . S
C851 C867 1.429 . S
C851 H873 0.950 . S
C852 H848 0.949 . S
C852 C860 1.574 . S
C852 C868 1.368 . S
H853 C861 0.950 . S
H854 C859 0.950 . S
H855 C860 0.949 . S
H856 C862 0.950 . S
H857 C863 0.950 . S
H858 C864 0.949 . S
C859 H854 0.950 . S
C859 C861 1.327 . S
C859 C865 1.429 . S
C860 C852 1.574 . S
C860 H855 0.949 . S
C860 C866 1.368 . S
C861 C845 1.349 . S
C861 H853 0.950 . S
C861 C859 1.327 . S
C862 C850 1.349 . S
C862 H856 0.950 . S
C862 C863 1.327 . S
C863 H857 0.950 . S
C863 C862 1.327 . S
C863 C867 1.429 . S
C864 C847 1.574 . S
C864 H858 0.949 . S
C864 C868 1.368 . S
C865 C846 1.429 . S
C865 C859 1.429 . S
C865 C866 1.523 . S
C866 C847 1.368 . S
C866 C860 1.368 . S
C866 C865 1.523 . S
C867 C851 1.429 . S
C867 C863 1.429 . S
C867 C868 1.523 . S
C868 C852 1.368 . S
C868 C864 1.368 . S
C868 C867 1.523 . S
H869 C844 0.950 . S
H870 C846 0.950 . S
H871 C847 0.949 . S
H872 C849 0.950 . S
H873 C851 0.950 . S
C874 C875 1.349 . S
C874 C876 1.327 . S
C874 H899 0.950 . S
C875 C874 1.349 . S
C875 C891 1.349 . S
C876 C874 1.327 . S
C876 C895 1.429 . S
C876 H900 0.950 . S
C877 C894 1.574 . S
C877 C896 1.368 . S
C877 H901 0.949 . S
H878 C882 0.949 . S
C879 C880 1.349 . S
C879 C881 1.327 . S
C879 H902 0.950 . S
C880 C879 1.349 . S
C880 C892 1.349 . S
C881 C879 1.327 . S
C881 C897 1.429 . S
C881 H903 0.950 . S
C882 H878 0.949 . S
C882 C890 1.574 . S
C882 C898 1.368 . S
H883 C891 0.950 . S
H884 C889 0.950 . S
H885 C890 0.949 . S
H886 C892 0.950 . S
H887 C893 0.950 . S
H888 C894 0.949 . S
C889 H884 0.950 . S
C889 C891 1.327 . S
C889 C895 1.429 . S
C890 C882 1.574 . S
C890 H885 0.949 . S
C890 C896 1.368 . S
C891 C875 1.349 . S
C891 H883 0.950 . S
C891 C889 1.327 . S
C892 C880 1.349 . S
C892 H886 0.950 . S
C892 C893 1.327 . S
C893 H887 0.950 . S
C893 C892 1.327 . S
C893 C897 1.429 . S
C894 C877 1.574 . S
C894 H888 0.949 . S
C894 C898 1.368 . S
C895 C876 1.429 . S
C895 C889 1.429 . S
C895 C896 1.523 . S
C896 C877 1.368 . S
C896 C890 1.368 . S
C896 C895 1.523 . S
C897 C881 1.429 . S
C897 C893 1.429 . S
C897 C898 1.523 . S
C898 C882 1.368 . S
C898 C894 1.368 . S
C898 C897 1.523 . S
H899 C874 0.950 . S
H900 C876 0.950 . S
H901 C877 0.949 . S
H902 C879 0.950 . S
H903 C881 0.950 . S
C904 C905 1.349 . S
C904 C906 1.327 . S
C904 H929 0.950 . S
C905 C904 1.349 . S
C905 C921 1.349 . S
C906 C904 1.327 . S
C906 C925 1.429 . S
C906 H930 0.950 . S
C907 C924 1.574 . S
C907 C926 1.368 . S
C907 H931 0.949 . S
H908 C912 0.949 . S
C909 C910 1.349 . S
C909 C911 1.327 . S
C909 H932 0.950 . S
C910 C909 1.349 . S
C910 C922 1.349 . S
C911 C909 1.327 . S
C911 C927 1.429 . S
C911 H933 0.950 . S
C912 H908 0.949 . S
C912 C920 1.574 . S
C912 C928 1.368 . S
H913 C921 0.950 . S
H914 C919 0.950 . S
H915 C920 0.949 . S
H916 C922 0.950 . S
H917 C923 0.950 . S
H918 C924 0.949 . S
C919 H914 0.950 . S
C919 C921 1.327 . S
C919 C925 1.429 . S
C920 C912 1.574 . S
C920 H915 0.949 . S
C920 C926 1.368 . S
C921 C905 1.349 . S
C921 H913 0.950 . S
C921 C919 1.327 . S
C922 C910 1.349 . S
C922 H916 0.950 . S
C922 C923 1.327 . S
C923 H917 0.950 . S
C923 C922 1.327 . S
C923 C927 1.429 . S
C924 C907 1.574 . S
C924 H918 0.949 . S
C924 C928 1.368 . S
C925 C906 1.429 . S
C925 C919 1.429 . S
C925 C926 1.523 . S
C926 C907 1.368 . S
C926 C920 1.368 . S
C926 C925 1.523 . S
C927 C911 1.429 . S
C927 C923 1.429 . S
C927 C928 1.523 . S
C928 C912 1.368 . S
C928 C924 1.368 . S
C928 C927 1.523 . S
H929 C904 0.950 . S
H930 C906 0.950 . S
H931 C907 0.949 . S
H932 C909 0.950 . S
H933 C911 0.950 . S
C934 C935 1.349 . S
C934 C936 1.327 . S
C934 H959 0.950 . S
C935 C934 1.349 . S
C935 C951 1.349 . S
C936 C934 1.327 . S
C936 C955 1.429 . S
C936 H960 0.950 . S
C937 C954 1.574 . S
C937 C956 1.368 . S
C937 H961 0.949 . S
H938 C942 0.949 . S
C939 C940 1.349 . S
C939 C941 1.327 . S
C939 H962 0.950 . S
C940 C939 1.349 . S
C940 C952 1.349 . S
C941 C939 1.327 . S
C941 C957 1.429 . S
C941 H963 0.950 . S
C942 H938 0.949 . S
C942 C950 1.574 . S
C942 C958 1.368 . S
H943 C951 0.950 . S
H944 C949 0.950 . S
H945 C950 0.949 . S
H946 C952 0.950 . S
H947 C953 0.950 . S
H948 C954 0.949 . S
C949 H944 0.950 . S
C949 C951 1.327 . S
C949 C955 1.429 . S
C950 C942 1.574 . S
C950 H945 0.949 . S
C950 C956 1.368 . S
C951 C935 1.349 . S
C951 H943 0.950 . S
C951 C949 1.327 . S
C952 C940 1.349 . S
C952 H946 0.950 . S
C952 C953 1.327 . S
C953 H947 0.950 . S
C953 C952 1.327 . S
C953 C957 1.429 . S
C954 C937 1.574 . S
C954 H948 0.949 . S
C954 C958 1.368 . S
C955 C936 1.429 . S
C955 C949 1.429 . S
C955 C956 1.523 . S
C956 C937 1.368 . S
C956 C950 1.368 . S
C956 C955 1.523 . S
C957 C941 1.429 . S
C957 C953 1.429 . S
C957 C958 1.523 . S
C958 C942 1.368 . S
C958 C954 1.368 . S
C958 C957 1.523 . S
H959 C934 0.950 . S
H960 C936 0.950 . S
H961 C937 0.949 . S
H962 C939 0.950 . S
H963 C941 0.950 . S
C964 C965 1.349 . S
C964 C966 1.327 . S
C964 H989 0.950 . S
C965 C964 1.349 . S
C965 C981 1.349 . S
C966 C964 1.327 . S
C966 C985 1.429 . S
C966 H990 0.950 . S
C967 C984 1.574 . S
C967 C986 1.368 . S
C967 H991 0.949 . S
H968 C972 0.949 . S
C969 C970 1.349 . S
C969 C971 1.327 . S
C969 H992 0.950 . S
C970 C969 1.349 . S
C970 C982 1.349 . S
C971 C969 1.327 . S
C971 C987 1.429 . S
C971 H993 0.950 . S
C972 H968 0.949 . S
C972 C980 1.574 . S
C972 C988 1.368 . S
H973 C981 0.950 . S
H974 C979 0.950 . S
H975 C980 0.949 . S
H976 C982 0.950 . S
H977 C983 0.950 . S
H978 C984 0.949 . S
C979 H974 0.950 . S
C979 C981 1.327 . S
C979 C985 1.429 . S
C980 C972 1.574 . S
C980 H975 0.949 . S
C980 C986 1.368 . S
C981 C965 1.349 . S
C981 H973 0.950 . S
C981 C979 1.327 . S
C982 C970 1.349 . S
C982 H976 0.950 . S
C982 C983 1.327 . S
C983 H977 0.950 . S
C983 C982 1.327 . S
C983 C987 1.429 . S
C984 C967 1.574 . S
C984 H978 0.949 . S
C984 C988 1.368 . S
C985 C966 1.429 . S
C985 C979 1.429 . S
C985 C986 1.523 . S
C986 C967 1.368 . S
C986 C980 1.368 . S
C986 C985 1.523 . S
C987 C971 1.429 . S
C987 C983 1.429 . S
C987 C988 1.523 . S
C988 C972 1.368 . S
C988 C984 1.368 . S
C988 C987 1.523 . S
H989 C964 0.950 . S
H990 C966 0.950 . S
H991 C967 0.949 . S
H992 C969 0.950 . S
H993 C971 0.950 . S
C994 C995 1.349 . S
C994 C996 1.327 . S
C994 H1019 0.950 . S
C995 C994 1.349 . S
C995 C1011 1.349 . S
C996 C994 1.327 . S
C996 C1015 1.429 . S
C996 H1020 0.950 . S
C997 C1014 1.574 . S
C997 C1016 1.368 . S
C997 H1021 0.949 . S
H998 C1002 0.949 . S
C999 C1000 1.349 . S
C999 C1001 1.327 . S
C999 H1022 0.950 . S
C1000 C999 1.349 . S
C1000 C1012 1.349 . S
C1001 C999 1.327 . S
C1001 C1017 1.429 . S
C1001 H1023 0.950 . S
C1002 H998 0.949 . S
C1002 C1010 1.574 . S
C1002 C1018 1.368 . S
H1003 C1011 0.950 . S
H1004 C1009 0.950 . S
H1005 C1010 0.949 . S
H1006 C1012 0.950 . S
H1007 C1013 0.950 . S
H1008 C1014 0.949 . S
C1009 H1004 0.950 . S
C1009 C1011 1.327 . S
C1009 C1015 1.429 . S
C1010 C1002 1.574 . S
C1010 H1005 0.949 . S
C1010 C1016 1.368 . S
C1011 C995 1.349 . S
C1011 H1003 0.950 . S
C1011 C1009 1.327 . S
C1012 C1000 1.349 . S
C1012 H1006 0.950 . S
C1012 C1013 1.327 . S
C1013 H1007 0.950 . S
C1013 C1012 1.327 . S
C1013 C1017 1.429 . S
C1014 C997 1.574 . S
C1014 H1008 0.949 . S
C1014 C1018 1.368 . S
C1015 C996 1.429 . S
C1015 C1009 1.429 . S
C1015 C1016 1.523 . S
C1016 C997 1.368 . S
C1016 C1010 1.368 . S
C1016 C1015 1.523 . S
C1017 C1001 1.429 . S
C1017 C1013 1.429 . S
C1017 C1018 1.523 . S
C1018 C1002 1.368 . S
C1018 C1014 1.368 . S
C1018 C1017 1.523 . S
H1019 C994 0.950 . S
H1020 C996 0.950 . S
H1021 C997 0.949 . S
H1022 C999 0.950 . S
H1023 C1001 0.950 . S
C1024 C1025 1.295 1_556 S
C1024 C1026 1.331 . S
C1024 H1049 1.006 . S
C1025 C1024 1.295 1_554 S
C1025 C1041 1.349 . S
C1026 C1024 1.331 . S
C1026 C1045 1.429 1_556 S
C1026 H1050 0.950 . S
C1027 C1044 1.574 . S
C1027 C1046 1.368 . S
C1027 H1051 0.949 . S
H1028 C1032 0.949 . S
C1029 C1030 1.349 . S
C1029 C1031 1.327 . S
C1029 H1052 0.950 . S
C1030 C1029 1.349 . S
C1030 C1042 1.295 1_554 S
C1031 C1029 1.327 . S
C1031 C1047 1.429 . S
C1031 H1053 0.950 . S
C1032 H1028 0.949 . S
C1032 C1040 1.574 . S
C1032 C1048 1.368 1_556 S
H1033 C1041 0.950 . S
H1034 C1039 0.950 . S
H1035 C1040 0.949 . S
H1036 C1042 1.006 . S
H1037 C1043 0.950 . S
H1038 C1044 0.949 . S
C1039 H1034 0.950 . S
C1039 C1041 1.327 . S
C1039 C1045 1.429 . S
C1040 C1032 1.574 . S
C1040 H1035 0.949 . S
C1040 C1046 1.368 1_656 S
C1041 C1025 1.349 . S
C1041 H1033 0.950 . S
C1041 C1039 1.327 . S
C1042 C1030 1.295 1_556 S
C1042 H1036 1.006 . S
C1042 C1043 1.331 . S
C1043 H1037 0.950 . S
C1043 C1042 1.331 . S
C1043 C1047 1.429 1_556 S
C1044 C1027 1.574 . S
C1044 H1038 0.949 . S
C1044 C1048 1.368 1_455 S
C1045 C1026 1.429 1_554 S
C1045 C1039 1.429 . S
C1045 C1046 1.523 . S
C1046 C1027 1.368 . S
C1046 C1040 1.368 1_454 S
C1046 C1045 1.523 . S
C1047 C1031 1.429 . S
C1047 C1043 1.429 1_554 S
C1047 C1048 1.523 . S
C1048 C1032 1.368 1_554 S
C1048 C1044 1.368 1_655 S
C1048 C1047 1.523 . S
H1049 C1024 1.006 . S
H1050 C1026 0.950 . S
H1051 C1027 0.949 . S
H1052 C1029 0.950 . S
H1053 C1031 0.950 . S
C1054 C1055 1.349 . S
C1054 C1056 1.327 . S
C1054 H1079 0.950 . S
C1055 C1054 1.349 . S
C1055 C1071 1.349 . S
C1056 C1054 1.327 . S
C1056 C1075 1.429 . S
C1056 H1080 0.950 . S
C1057 C1074 1.574 . S
C1057 C1076 1.368 . S
C1057 H1081 0.949 . S
H1058 C1062 0.949 . S
C1059 C1060 1.349 . S
C1059 C1061 1.327 . S
C1059 H1082 0.950 . S
C1060 C1059 1.349 . S
C1060 C1072 1.349 . S
C1061 C1059 1.327 . S
C1061 C1077 1.429 . S
C1061 H1083 0.950 . S
C1062 H1058 0.949 . S
C1062 C1070 1.574 . S
C1062 C1078 1.368 . S
H1063 C1071 0.950 . S
H1064 C1069 0.950 . S
H1065 C1070 0.949 . S
H1066 C1072 0.950 . S
H1067 C1073 0.950 . S
H1068 C1074 0.949 . S
C1069 H1064 0.950 . S
C1069 C1071 1.327 . S
C1069 C1075 1.429 . S
C1070 C1062 1.574 . S
C1070 H1065 0.949 . S
C1070 C1076 1.368 . S
C1071 C1055 1.349 . S
C1071 H1063 0.950 . S
C1071 C1069 1.327 . S
C1072 C1060 1.349 . S
C1072 H1066 0.950 . S
C1072 C1073 1.327 . S
C1073 H1067 0.950 . S
C1073 C1072 1.327 . S
C1073 C1077 1.429 . S
C1074 C1057 1.574 . S
C1074 H1068 0.949 . S
C1074 C1078 1.368 . S
C1075 C1056 1.429 . S
C1075 C1069 1.429 . S
C1075 C1076 1.523 . S
C1076 C1057 1.368 . S
C1076 C1070 1.368 . S
C1076 C1075 1.523 . S
C1077 C1061 1.429 . S
C1077 C1073 1.429 . S
C1077 C1078 1.523 . S
C1078 C1062 1.368 . S
C1078 C1074 1.368 . S
C1078 C1077 1.523 . S
H1079 C1054 0.950 . S
H1080 C1056 0.950 . S
H1081 C1057 0.949 . S
H1082 C1059 0.950 . S
H1083 C1061 0.950 . S
C1084 C1085 1.349 . S
C1084 C1086 1.327 . S
C1084 H1109 0.950 . S
C1085 C1084 1.349 . S
C1085 C1101 1.349 . S
C1086 C1084 1.327 . S
C1086 C1105 1.429 . S
C1086 H1110 0.950 . S
C1087 C1104 1.574 1_565 S
C1087 C1106 1.368 . S
C1087 H1111 0.949 . S
H1088 C1092 0.949 . S
C1089 C1090 1.349 . S
C1089 C1091 1.327 . S
C1089 H1112 0.950 . S
C1090 C1089 1.349 . S
C1090 C1102 1.349 . S
C1091 C1089 1.327 . S
C1091 C1107 1.429 . S
C1091 H1113 0.950 . S
C1092 H1088 0.949 . S
C1092 C1100 1.574 1_545 S
C1092 C1108 1.368 . S
H1093 C1101 0.950 . S
H1094 C1099 0.950 . S
H1095 C1100 0.949 . S
H1096 C1102 0.950 . S
H1097 C1103 0.950 . S
H1098 C1104 0.949 . S
C1099 H1094 0.950 . S
C1099 C1101 1.327 . S
C1099 C1105 1.429 . S
C1100 C1092 1.574 1_565 S
C1100 H1095 0.949 . S
C1100 C1106 1.368 . S
C1101 C1085 1.349 . S
C1101 H1093 0.950 . S
C1101 C1099 1.327 . S
C1102 C1090 1.349 . S
C1102 H1096 0.950 . S
C1102 C1103 1.327 . S
C1103 H1097 0.950 . S
C1103 C1102 1.327 . S
C1103 C1107 1.429 . S
C1104 C1087 1.574 1_545 S
C1104 H1098 0.949 . S
C1104 C1108 1.368 . S
C1105 C1086 1.429 . S
C1105 C1099 1.429 . S
C1105 C1106 1.523 . S
C1106 C1087 1.368 . S
C1106 C1100 1.368 . S
C1106 C1105 1.523 . S
C1107 C1091 1.429 . S
C1107 C1103 1.429 . S
C1107 C1108 1.523 . S
C1108 C1092 1.368 . S
C1108 C1104 1.368 . S
C1108 C1107 1.523 . S
H1109 C1084 0.950 . S
H1110 C1086 0.950 . S
H1111 C1087 0.949 . S
H1112 C1089 0.950 . S
H1113 C1091 0.950 . S
C1114 C1115 1.349 . S
C1114 C1116 1.327 . S
C1114 H1139 0.950 . S
C1115 C1114 1.349 . S
C1115 C1131 1.349 . S
C1116 C1114 1.327 . S
C1116 C1135 1.429 . S
C1116 H1140 0.950 . S
C1117 C1134 1.574 1_455 S
C1117 C1136 1.368 1_565 S
C1117 H1141 0.949 . S
H1118 C1122 0.949 . S
C1119 C1120 1.349 . S
C1119 C1121 1.327 . S
C1119 H1142 0.950 . S
C1120 C1119 1.349 . S
C1120 C1132 1.349 . S
C1121 C1119 1.327 . S
C1121 C1137 1.429 . S
C1121 H1143 0.950 . S
C1122 H1118 0.949 . S
C1122 C1130 1.574 1_655 S
C1122 C1138 1.368 1_545 S
H1123 C1131 0.950 . S
H1124 C1129 0.950 . S
H1125 C1130 0.949 . S
H1126 C1132 0.950 . S
H1127 C1133 0.950 . S
H1128 C1134 0.949 . S
C1129 H1124 0.950 . S
C1129 C1131 1.327 . S
C1129 C1135 1.429 . S
C1130 C1122 1.574 1_455 S
C1130 H1125 0.949 . S
C1130 C1136 1.368 . S
C1131 C1115 1.349 . S
C1131 H1123 0.950 . S
C1131 C1129 1.327 . S
C1132 C1120 1.349 . S
C1132 H1126 0.950 . S
C1132 C1133 1.327 . S
C1133 H1127 0.950 . S
C1133 C1132 1.327 . S
C1133 C1137 1.429 . S
C1134 C1117 1.574 1_655 S
C1134 H1128 0.949 . S
C1134 C1138 1.368 . S
C1135 C1116 1.429 . S
C1135 C1129 1.429 . S
C1135 C1136 1.523 . S
C1136 C1117 1.368 1_545 S
C1136 C1130 1.368 . S
C1136 C1135 1.523 . S
C1137 C1121 1.429 . S
C1137 C1133 1.429 . S
C1137 C1138 1.523 . S
C1138 C1122 1.368 1_565 S
C1138 C1134 1.368 . S
C1138 C1137 1.523 . S
H1139 C1114 0.950 . S
H1140 C1116 0.950 . S
H1141 C1117 0.949 . S
H1142 C1119 0.950 . S
H1143 C1121 0.950 . S
C1144 C1145 1.349 . S
C1144 C1146 1.327 . S
C1144 H1169 0.950 . S
C1145 C1144 1.349 . S
C1145 C1161 1.349 . S
C1146 C1144 1.327 . S
C1146 C1165 1.429 . S
C1146 H1170 0.950 . S
C1147 C1164 1.574 . S
C1147 C1166 1.368 . S
C1147 H1171 0.949 . S
H1148 C1152 0.949 . S
C1149 C1150 1.349 . S
C1149 C1151 1.327 . S
C1149 H1172 0.950 . S
C1150 C1149 1.349 . S
C1150 C1162 1.349 . S
C1151 C1149 1.327 . S
C1151 C1167 1.429 . S
C1151 H1173 0.950 . S
C1152 H1148 0.949 . S
C1152 C1160 1.574 . S
C1152 C1168 1.368 . S
H1153 C1161 0.950 . S
H1154 C1159 0.950 . S
H1155 C1160 0.949 . S
H1156 C1162 0.950 . S
H1157 C1163 0.950 . S
H1158 C1164 0.949 . S
C1159 H1154 0.950 . S
C1159 C1161 1.327 . S
C1159 C1165 1.429 . S
C1160 C1152 1.574 . S
C1160 H1155 0.949 . S
C1160 C1166 1.368 1_455 S
C1161 C1145 1.349 . S
C1161 H1153 0.950 . S
C1161 C1159 1.327 . S
C1162 C1150 1.349 . S
C1162 H1156 0.950 . S
C1162 C1163 1.327 . S
C1163 H1157 0.950 . S
C1163 C1162 1.327 . S
C1163 C1167 1.429 . S
C1164 C1147 1.574 . S
C1164 H1158 0.949 . S
C1164 C1168 1.368 1_655 S
C1165 C1146 1.429 . S
C1165 C1159 1.429 . S
C1165 C1166 1.523 . S
C1166 C1147 1.368 . S
C1166 C1160 1.368 1_655 S
C1166 C1165 1.523 . S
C1167 C1151 1.429 . S
C1167 C1163 1.429 . S
C1167 C1168 1.523 . S
C1168 C1152 1.368 . S
C1168 C1164 1.368 1_455 S
C1168 C1167 1.523 . S
H1169 C1144 0.950 . S
H1170 C1146 0.950 . S
H1171 C1147 0.949 . S
H1172 C1149 0.950 . S
H1173 C1151 0.950 . S
C1174 C1175 1.349 . S
C1174 C1176 1.327 . S
C1174 H1199 0.950 . S
C1175 C1174 1.349 . S
C1175 C1191 1.349 . S
C1176 C1174 1.327 . S
C1176 C1195 1.429 . S
C1176 H1200 0.950 . S
C1177 C1194 1.574 . S
C1177 C1196 1.368 . S
C1177 H1201 0.949 . S
H1178 C1182 0.949 . S
C1179 C1180 1.349 . S
C1179 C1181 1.327 . S
C1179 H1202 0.950 . S
C1180 C1179 1.349 . S
C1180 C1192 1.349 . S
C1181 C1179 1.327 . S
C1181 C1197 1.429 . S
C1181 H1203 0.950 . S
C1182 H1178 0.949 . S
C1182 C1190 1.574 . S
C1182 C1198 1.368 . S
H1183 C1191 0.950 . S
H1184 C1189 0.950 . S
H1185 C1190 0.949 . S
H1186 C1192 0.950 . S
H1187 C1193 0.950 . S
H1188 C1194 0.949 . S
C1189 H1184 0.950 . S
C1189 C1191 1.327 . S
C1189 C1195 1.429 . S
C1190 C1182 1.574 . S
C1190 H1185 0.949 . S
C1190 C1196 1.368 . S
C1191 C1175 1.349 . S
C1191 H1183 0.950 . S
C1191 C1189 1.327 . S
C1192 C1180 1.349 . S
C1192 H1186 0.950 . S
C1192 C1193 1.327 . S
C1193 H1187 0.950 . S
C1193 C1192 1.327 . S
C1193 C1197 1.429 . S
C1194 C1177 1.574 . S
C1194 H1188 0.949 . S
C1194 C1198 1.368 . S
C1195 C1176 1.429 . S
C1195 C1189 1.429 . S
C1195 C1196 1.523 . S
C1196 C1177 1.368 . S
C1196 C1190 1.368 . S
C1196 C1195 1.523 . S
C1197 C1181 1.429 . S
C1197 C1193 1.429 . S
C1197 C1198 1.523 . S
C1198 C1182 1.368 . S
C1198 C1194 1.368 . S
C1198 C1197 1.523 . S
H1199 C1174 0.950 . S
H1200 C1176 0.950 . S
H1201 C1177 0.949 . S
H1202 C1179 0.950 . S
H1203 C1181 0.950 . S
C1204 C1205 1.295 1_556 S
C1204 C1206 1.331 . S
C1204 H1229 1.006 . S
C1205 C1204 1.295 1_554 S
C1205 C1221 1.349 . S
C1206 C1204 1.331 . S
C1206 C1225 1.429 1_556 S
C1206 H1230 0.950 . S
C1207 C1224 1.574 1_545 S
C1207 C1226 1.368 . S
C1207 H1231 0.949 . S
H1208 C1212 0.949 . S
C1209 C1210 1.349 . S
C1209 C1211 1.327 . S
C1209 H1232 0.950 . S
C1210 C1209 1.349 . S
C1210 C1222 1.295 1_554 S
C1211 C1209 1.327 . S
C1211 C1227 1.429 . S
C1211 H1233 0.950 . S
C1212 H1208 0.949 . S
C1212 C1220 1.574 1_565 S
C1212 C1228 1.368 1_556 S
H1213 C1221 0.950 . S
H1214 C1219 0.950 . S
H1215 C1220 0.949 . S
H1216 C1222 1.006 . S
H1217 C1223 0.950 . S
H1218 C1224 0.949 . S
C1219 H1214 0.950 . S
C1219 C1221 1.327 . S
C1219 C1225 1.429 . S
C1220 C1212 1.574 1_545 S
C1220 H1215 0.949 . S
C1220 C1226 1.368 1_556 S
C1221 C1205 1.349 . S
C1221 H1213 0.950 . S
C1221 C1219 1.327 . S
C1222 C1210 1.295 1_556 S
C1222 H1216 1.006 . S
C1222 C1223 1.331 . S
C1223 H1217 0.950 . S
C1223 C1222 1.331 . S
C1223 C1227 1.429 1_556 S
C1224 C1207 1.574 1_565 S
C1224 H1218 0.949 . S
C1224 C1228 1.368 . S
C1225 C1206 1.429 1_554 S
C1225 C1219 1.429 . S
C1225 C1226 1.523 . S
C1226 C1207 1.368 . S
C1226 C1220 1.368 1_554 S
C1226 C1225 1.523 . S
C1227 C1211 1.429 . S
C1227 C1223 1.429 1_554 S
C1227 C1228 1.523 . S
C1228 C1212 1.368 1_554 S
C1228 C1224 1.368 . S
C1228 C1227 1.523 . S
H1229 C1204 1.006 . S
H1230 C1206 0.950 . S
H1231 C1207 0.949 . S
H1232 C1209 0.950 . S
H1233 C1211 0.950 . S
C1234 C1235 1.349 . S
C1234 C1236 1.327 . S
C1234 H1259 0.950 . S
C1235 C1234 1.349 . S
C1235 C1251 1.349 . S
C1236 C1234 1.327 . S
C1236 C1255 1.429 . S
C1236 H1260 0.950 . S
C1237 C1254 1.574 1_455 S
C1237 C1256 1.368 . S
C1237 H1261 0.949 . S
H1238 C1242 0.949 . S
C1239 C1240 1.349 . S
C1239 C1241 1.327 . S
C1239 H1262 0.950 . S
C1240 C1239 1.349 . S
C1240 C1252 1.349 . S
C1241 C1239 1.327 . S
C1241 C1257 1.429 . S
C1241 H1263 0.950 . S
C1242 H1238 0.949 . S
C1242 C1250 1.574 1_655 S
C1242 C1258 1.368 . S
H1243 C1251 0.950 . S
H1244 C1249 0.950 . S
H1245 C1250 0.949 . S
H1246 C1252 0.950 . S
H1247 C1253 0.950 . S
H1248 C1254 0.949 . S
C1249 H1244 0.950 . S
C1249 C1251 1.327 . S
C1249 C1255 1.429 . S
C1250 C1242 1.574 1_455 S
C1250 H1245 0.949 . S
C1250 C1256 1.368 1_545 S
C1251 C1235 1.349 . S
C1251 H1243 0.950 . S
C1251 C1249 1.327 . S
C1252 C1240 1.349 . S
C1252 H1246 0.950 . S
C1252 C1253 1.327 . S
C1253 H1247 0.950 . S
C1253 C1252 1.327 . S
C1253 C1257 1.429 . S
C1254 C1237 1.574 1_655 S
C1254 H1248 0.949 . S
C1254 C1258 1.368 1_565 S
C1255 C1236 1.429 . S
C1255 C1249 1.429 . S
C1255 C1256 1.523 . S
C1256 C1237 1.368 . S
C1256 C1250 1.368 1_565 S
C1256 C1255 1.523 . S
C1257 C1241 1.429 . S
C1257 C1253 1.429 . S
C1257 C1258 1.523 . S
C1258 C1242 1.368 . S
C1258 C1254 1.368 1_545 S
C1258 C1257 1.523 . S
H1259 C1234 0.950 . S
H1260 C1236 0.950 . S
H1261 C1237 0.949 . S
H1262 C1239 0.950 . S
H1263 C1241 0.950 . S
C1264 C1265 1.349 . S
C1264 C1266 1.327 . S
C1264 H1289 0.950 . S
C1265 C1264 1.349 . S
C1265 C1281 1.349 . S
C1266 C1264 1.327 . S
C1266 C1285 1.429 . S
C1266 H1290 0.950 . S
C1267 C1284 1.574 . S
C1267 C1286 1.368 . S
C1267 H1291 0.949 . S
H1268 C1272 0.949 . S
C1269 C1270 1.349 . S
C1269 C1271 1.327 . S
C1269 H1292 0.950 . S
C1270 C1269 1.349 . S
C1270 C1282 1.349 . S
C1271 C1269 1.327 . S
C1271 C1287 1.429 . S
C1271 H1293 0.950 . S
C1272 H1268 0.949 . S
C1272 C1280 1.574 . S
C1272 C1288 1.368 . S
H1273 C1281 0.950 . S
H1274 C1279 0.950 . S
H1275 C1280 0.949 . S
H1276 C1282 0.950 . S
H1277 C1283 0.950 . S
H1278 C1284 0.949 . S
C1279 H1274 0.950 . S
C1279 C1281 1.327 . S
C1279 C1285 1.429 . S
C1280 C1272 1.574 . S
C1280 H1275 0.949 . S
C1280 C1286 1.368 . S
C1281 C1265 1.349 . S
C1281 H1273 0.950 . S
C1281 C1279 1.327 . S
C1282 C1270 1.349 . S
C1282 H1276 0.950 . S
C1282 C1283 1.327 . S
C1283 H1277 0.950 . S
C1283 C1282 1.327 . S
C1283 C1287 1.429 . S
C1284 C1267 1.574 . S
C1284 H1278 0.949 . S
C1284 C1288 1.368 . S
C1285 C1266 1.429 . S
C1285 C1279 1.429 . S
C1285 C1286 1.523 . S
C1286 C1267 1.368 . S
C1286 C1280 1.368 . S
C1286 C1285 1.523 . S
C1287 C1271 1.429 . S
C1287 C1283 1.429 . S
C1287 C1288 1.523 . S
C1288 C1272 1.368 . S
C1288 C1284 1.368 . S
C1288 C1287 1.523 . S
H1289 C1264 0.950 . S
H1290 C1266 0.950 . S
H1291 C1267 0.949 . S
H1292 C1269 0.950 . S
H1293 C1271 0.950 . S
C1294 C1295 1.349 . S
C1294 C1296 1.327 . S
C1294 H1319 0.950 . S
C1295 C1294 1.349 . S
C1295 C1311 1.349 . S
C1296 C1294 1.327 . S
C1296 C1315 1.429 . S
C1296 H1320 0.950 . S
C1297 C1314 1.574 . S
C1297 C1316 1.368 . S
C1297 H1321 0.949 . S
H1298 C1302 0.949 . S
C1299 C1300 1.349 . S
C1299 C1301 1.327 . S
C1299 H1322 0.950 . S
C1300 C1299 1.349 . S
C1300 C1312 1.349 . S
C1301 C1299 1.327 . S
C1301 C1317 1.428 1_545 S
C1301 H1323 0.949 1_545 S
C1302 H1298 0.949 . S
C1302 C1310 1.574 . S
C1302 C1318 1.368 . S
H1303 C1311 0.950 . S
H1304 C1309 0.950 . S
H1305 C1310 0.949 . S
H1306 C1312 0.950 . S
H1307 C1313 0.950 . S
H1308 C1314 0.949 . S
C1309 H1304 0.950 . S
C1309 C1311 1.327 . S
C1309 C1315 1.429 . S
C1310 C1302 1.574 . S
C1310 H1305 0.949 . S
C1310 C1316 1.368 . S
C1311 C1295 1.349 . S
C1311 H1303 0.950 . S
C1311 C1309 1.327 . S
C1312 C1300 1.349 . S
C1312 H1306 0.950 . S
C1312 C1313 1.327 1_545 S
C1313 H1307 0.950 . S
C1313 C1312 1.327 1_565 S
C1313 C1317 1.429 . S
C1314 C1297 1.574 . S
C1314 H1308 0.949 . S
C1314 C1318 1.368 . S
C1315 C1296 1.429 . S
C1315 C1309 1.429 . S
C1315 C1316 1.523 . S
C1316 C1297 1.368 . S
C1316 C1310 1.368 . S
C1316 C1315 1.523 . S
C1317 C1301 1.428 1_565 S
C1317 C1313 1.429 . S
C1317 C1318 1.523 . S
C1318 C1302 1.368 . S
C1318 C1314 1.368 . S
C1318 C1317 1.523 . S
H1319 C1294 0.950 . S
H1320 C1296 0.950 . S
H1321 C1297 0.949 . S
H1322 C1299 0.950 . S
H1323 C1301 0.949 1_565 S
C1324 C1325 1.349 . S
C1324 C1326 1.327 1_655 S
C1324 H1349 0.950 . S
C1325 C1324 1.349 . S
C1325 C1341 1.349 . S
C1326 C1324 1.327 1_455 S
C1326 C1345 1.429 . S
C1326 H1350 0.950 . S
C1327 C1344 1.574 . S
C1327 C1346 1.368 . S
C1327 H1351 0.949 . S
H1328 C1332 0.949 . S
C1329 C1330 1.349 . S
C1329 C1331 1.327 . S
C1329 H1352 0.950 . S
C1330 C1329 1.349 . S
C1330 C1342 1.349 . S
C1331 C1329 1.327 . S
C1331 C1347 1.429 . S
C1331 H1353 0.950 . S
C1332 H1328 0.949 . S
C1332 C1340 1.574 . S
C1332 C1348 1.368 . S
H1333 C1341 0.950 . S
H1334 C1339 0.951 . S
H1335 C1340 0.949 . S
H1336 C1342 0.950 . S
H1337 C1343 0.950 . S
H1338 C1344 0.949 . S
C1339 H1334 0.951 . S
C1339 C1341 1.324 1_455 S
C1339 C1345 1.430 . S
C1340 C1332 1.574 . S
C1340 H1335 0.949 . S
C1340 C1346 1.368 . S
C1341 C1325 1.349 . S
C1341 H1333 0.950 . S
C1341 C1339 1.324 1_655 S
C1342 C1330 1.349 . S
C1342 H1336 0.950 . S
C1342 C1343 1.327 . S
C1343 H1337 0.950 . S
C1343 C1342 1.327 . S
C1343 C1347 1.429 . S
C1344 C1327 1.574 . S
C1344 H1338 0.949 . S
C1344 C1348 1.368 . S
C1345 C1326 1.429 . S
C1345 C1339 1.430 . S
C1345 C1346 1.523 . S
C1346 C1327 1.368 . S
C1346 C1340 1.368 . S
C1346 C1345 1.523 . S
C1347 C1331 1.429 . S
C1347 C1343 1.429 . S
C1347 C1348 1.523 . S
C1348 C1332 1.368 . S
C1348 C1344 1.368 . S
C1348 C1347 1.523 . S
H1349 C1324 0.950 . S
H1350 C1326 0.950 . S
H1351 C1327 0.949 . S
H1352 C1329 0.950 . S
H1353 C1331 0.950 . S
C1354 C1355 1.349 . S
C1354 C1356 1.327 . S
C1354 H1379 0.950 . S
C1355 C1354 1.349 . S
C1355 C1371 1.349 . S
C1356 C1354 1.327 . S
C1356 C1375 1.429 . S
C1356 H1380 0.950 . S
C1357 C1374 1.574 . S
C1357 C1376 1.368 . S
C1357 H1381 0.949 . S
H1358 C1362 0.949 . S
C1359 C1360 1.349 . S
C1359 C1361 1.327 . S
C1359 H1382 0.950 . S
C1360 C1359 1.349 . S
C1360 C1372 1.349 . S
C1361 C1359 1.327 . S
C1361 C1377 1.429 . S
C1361 H1383 0.950 . S
C1362 H1358 0.949 . S
C1362 C1370 1.574 . S
C1362 C1378 1.368 . S
H1363 C1371 0.950 . S
H1364 C1369 0.950 . S
H1365 C1370 0.949 . S
H1366 C1372 0.950 . S
H1367 C1373 0.950 . S
H1368 C1374 0.949 . S
C1369 H1364 0.950 . S
C1369 C1371 1.327 . S
C1369 C1375 1.429 . S
C1370 C1362 1.574 . S
C1370 H1365 0.949 . S
C1370 C1376 1.368 . S
C1371 C1355 1.349 . S
C1371 H1363 0.950 . S
C1371 C1369 1.327 . S
C1372 C1360 1.349 . S
C1372 H1366 0.950 . S
C1372 C1373 1.327 . S
C1373 H1367 0.950 . S
C1373 C1372 1.327 . S
C1373 C1377 1.429 . S
C1374 C1357 1.574 . S
C1374 H1368 0.949 . S
C1374 C1378 1.368 . S
C1375 C1356 1.429 . S
C1375 C1369 1.429 . S
C1375 C1376 1.523 . S
C1376 C1357 1.368 . S
C1376 C1370 1.368 . S
C1376 C1375 1.523 . S
C1377 C1361 1.429 . S
C1377 C1373 1.429 . S
C1377 C1378 1.523 . S
C1378 C1362 1.368 . S
C1378 C1374 1.368 . S
C1378 C1377 1.523 . S
H1379 C1354 0.950 . S
H1380 C1356 0.950 . S
H1381 C1357 0.949 . S
H1382 C1359 0.950 . S
H1383 C1361 0.950 . S
C1384 C1385 1.349 . S
C1384 C1386 1.327 . S
C1384 H1409 0.950 . S
C1385 C1384 1.349 . S
C1385 C1401 1.349 . S
C1386 C1384 1.327 . S
C1386 C1405 1.429 . S
C1386 H1410 0.950 . S
C1387 C1404 1.574 . S
C1387 C1406 1.368 . S
C1387 H1411 0.949 . S
H1388 C1392 0.949 . S
C1389 C1390 1.349 . S
C1389 C1391 1.327 . S
C1389 H1412 0.950 . S
C1390 C1389 1.349 . S
C1390 C1402 1.349 . S
C1391 C1389 1.327 . S
C1391 C1407 1.429 . S
C1391 H1413 0.950 . S
C1392 H1388 0.949 . S
C1392 C1400 1.574 . S
C1392 C1408 1.368 . S
H1393 C1401 0.950 . S
H1394 C1399 0.950 . S
H1395 C1400 0.949 . S
H1396 C1402 0.950 . S
H1397 C1403 0.950 . S
H1398 C1404 0.949 . S
C1399 H1394 0.950 . S
C1399 C1401 1.327 . S
C1399 C1405 1.429 . S
C1400 C1392 1.574 . S
C1400 H1395 0.949 . S
C1400 C1406 1.368 . S
C1401 C1385 1.349 . S
C1401 H1393 0.950 . S
C1401 C1399 1.327 . S
C1402 C1390 1.349 . S
C1402 H1396 0.950 . S
C1402 C1403 1.327 . S
C1403 H1397 0.950 . S
C1403 C1402 1.327 . S
C1403 C1407 1.429 . S
C1404 C1387 1.574 . S
C1404 H1398 0.949 . S
C1404 C1408 1.368 . S
C1405 C1386 1.429 . S
C1405 C1399 1.429 . S
C1405 C1406 1.523 . S
C1406 C1387 1.368 . S
C1406 C1400 1.368 . S
C1406 C1405 1.523 . S
C1407 C1391 1.429 . S
C1407 C1403 1.429 . S
C1407 C1408 1.523 . S
C1408 C1392 1.368 . S
C1408 C1404 1.368 . S
C1408 C1407 1.523 . S
H1409 C1384 0.950 . S
H1410 C1386 0.950 . S
H1411 C1387 0.949 . S
H1412 C1389 0.950 . S
H1413 C1391 0.950 . S
C1414 C1415 1.349 . S
C1414 C1416 1.327 . S
C1414 H1439 0.950 . S
C1415 C1414 1.349 . S
C1415 C1431 1.349 . S
C1416 C1414 1.327 . S
C1416 C1435 1.429 . S
C1416 H1440 0.950 . S
C1417 C1434 1.574 . S
C1417 C1436 1.368 . S
C1417 H1441 0.949 . S
H1418 C1422 0.949 . S
C1419 C1420 1.349 . S
C1419 C1421 1.318 1_565 S
C1419 H1442 0.950 . S
C1420 C1419 1.349 . S
C1420 C1432 1.349 . S
C1421 C1419 1.318 1_545 S
C1421 C1437 1.434 . S
C1421 H1443 0.954 . S
C1422 H1418 0.949 . S
C1422 C1430 1.574 . S
C1422 C1438 1.368 . S
H1423 C1431 0.950 . S
H1424 C1429 0.950 . S
H1425 C1430 0.949 . S
H1426 C1432 0.950 . S
H1427 C1433 0.950 . S
H1428 C1434 0.949 . S
C1429 H1424 0.950 . S
C1429 C1431 1.327 . S
C1429 C1435 1.429 . S
C1430 C1422 1.574 . S
C1430 H1425 0.949 . S
C1430 C1436 1.368 . S
C1431 C1415 1.349 . S
C1431 H1423 0.950 . S
C1431 C1429 1.327 . S
C1432 C1420 1.349 . S
C1432 H1426 0.950 . S
C1432 C1433 1.327 1_565 S
C1433 H1427 0.950 . S
C1433 C1432 1.327 1_545 S
C1433 C1437 1.429 . S
C1434 C1417 1.574 . S
C1434 H1428 0.949 . S
C1434 C1438 1.368 . S
C1435 C1416 1.429 . S
C1435 C1429 1.429 . S
C1435 C1436 1.523 . S
C1436 C1417 1.368 . S
C1436 C1430 1.368 . S
C1436 C1435 1.523 . S
C1437 C1421 1.434 . S
C1437 C1433 1.429 . S
C1437 C1438 1.523 . S
C1438 C1422 1.368 . S
C1438 C1434 1.368 . S
C1438 C1437 1.523 . S
H1439 C1414 0.950 . S
H1440 C1416 0.950 . S
H1441 C1417 0.949 . S
H1442 C1419 0.950 . S
H1443 C1421 0.954 . S
C1444 C1445 1.349 . S
C1444 C1446 1.325 1_455 S
C1444 H1469 0.950 . S
C1445 C1444 1.349 . S
C1445 C1461 1.349 . S
C1446 C1444 1.325 1_655 S
C1446 C1465 1.430 . S
C1446 H1470 0.951 . S
C1447 C1464 1.574 . S
C1447 C1466 1.368 . S
C1447 H1471 0.949 . S
H1448 C1452 0.949 . S
C1449 C1450 1.349 . S
C1449 C1451 1.327 . S
C1449 H1472 0.950 . S
C1450 C1449 1.349 . S
C1450 C1462 1.349 . S
C1451 C1449 1.327 . S
C1451 C1467 1.429 . S
C1451 H1473 0.950 . S
C1452 H1448 0.949 . S
C1452 C1460 1.574 . S
C1452 C1468 1.368 . S
H1453 C1461 0.950 . S
H1454 C1459 0.950 . S
H1455 C1460 0.949 . S
H1456 C1462 0.950 . S
H1457 C1463 0.950 . S
H1458 C1464 0.949 . S
C1459 H1454 0.950 . S
C1459 C1461 1.327 1_655 S
C1459 C1465 1.429 . S
C1460 C1452 1.574 . S
C1460 H1455 0.949 . S
C1460 C1466 1.368 . S
C1461 C1445 1.349 . S
C1461 H1453 0.950 . S
C1461 C1459 1.327 1_455 S
C1462 C1450 1.349 . S
C1462 H1456 0.950 . S
C1462 C1463 1.327 . S
C1463 H1457 0.950 . S
C1463 C1462 1.327 . S
C1463 C1467 1.429 . S
C1464 C1447 1.574 . S
C1464 H1458 0.949 . S
C1464 C1468 1.368 . S
C1465 C1446 1.430 . S
C1465 C1459 1.429 . S
C1465 C1466 1.523 . S
C1466 C1447 1.368 . S
C1466 C1460 1.368 . S
C1466 C1465 1.523 . S
C1467 C1451 1.429 . S
C1467 C1463 1.429 . S
C1467 C1468 1.523 . S
C1468 C1452 1.368 . S
C1468 C1464 1.368 . S
C1468 C1467 1.523 . S
H1469 C1444 0.950 . S
H1470 C1446 0.951 . S
H1471 C1447 0.949 . S
H1472 C1449 0.950 . S
H1473 C1451 0.950 . S
C1474 C1475 1.349 . S
C1474 C1476 1.327 . S
C1474 H1499 0.950 . S
C1475 C1474 1.349 . S
C1475 C1491 1.349 . S
C1476 C1474 1.327 . S
C1476 C1495 1.429 . S
C1476 H1500 0.950 . S
C1477 C1494 1.574 . S
C1477 C1496 1.368 . S
C1477 H1501 0.949 . S
H1478 C1482 0.949 . S
C1479 C1480 1.349 . S
C1479 C1481 1.327 . S
C1479 H1502 0.950 . S
C1480 C1479 1.349 . S
C1480 C1492 1.349 . S
C1481 C1479 1.327 . S
C1481 C1497 1.429 . S
C1481 H1503 0.950 . S
C1482 H1478 0.949 . S
C1482 C1490 1.574 . S
C1482 C1498 1.368 . S
H1483 C1491 0.950 . S
H1484 C1489 0.950 . S
H1485 C1490 0.949 . S
H1486 C1492 0.950 . S
H1487 C1493 0.950 . S
H1488 C1494 0.949 . S
C1489 H1484 0.950 . S
C1489 C1491 1.327 . S
C1489 C1495 1.429 . S
C1490 C1482 1.574 . S
C1490 H1485 0.949 . S
C1490 C1496 1.368 . S
C1491 C1475 1.349 . S
C1491 H1483 0.950 . S
C1491 C1489 1.327 . S
C1492 C1480 1.349 . S
C1492 H1486 0.950 . S
C1492 C1493 1.327 . S
C1493 H1487 0.950 . S
C1493 C1492 1.327 . S
C1493 C1497 1.429 . S
C1494 C1477 1.574 . S
C1494 H1488 0.949 . S
C1494 C1498 1.368 . S
C1495 C1476 1.429 . S
C1495 C1489 1.429 . S
C1495 C1496 1.523 . S
C1496 C1477 1.368 . S
C1496 C1490 1.368 . S
C1496 C1495 1.523 . S
C1497 C1481 1.429 . S
C1497 C1493 1.429 . S
C1497 C1498 1.523 . S
C1498 C1482 1.368 . S
C1498 C1494 1.368 . S
C1498 C1497 1.523 . S
H1499 C1474 0.950 . S
H1500 C1476 0.950 . S
H1501 C1477 0.949 . S
H1502 C1479 0.950 . S
H1503 C1481 0.950 . S
C1504 C1505 1.349 . S
C1504 C1506 1.327 1_455 S
C1504 H1529 0.950 . S
C1505 C1504 1.349 . S
C1505 C1521 1.349 . S
C1506 C1504 1.327 1_655 S
C1506 C1525 1.429 . S
C1506 H1530 0.950 . S
C1507 C1524 1.574 . S
C1507 C1526 1.368 . S
C1507 H1531 0.949 . S
H1508 C1512 0.949 . S
C1509 C1510 1.349 . S
C1509 C1511 1.327 . S
C1509 H1532 0.950 . S
C1510 C1509 1.349 . S
C1510 C1522 1.349 . S
C1511 C1509 1.327 . S
C1511 C1527 1.429 . S
C1511 H1533 0.950 . S
C1512 H1508 0.949 . S
C1512 C1520 1.574 . S
C1512 C1528 1.368 . S
H1513 C1521 0.950 . S
H1514 C1519 0.949 . S
H1515 C1520 0.949 . S
H1516 C1522 0.950 . S
H1517 C1523 0.950 . S
H1518 C1524 0.949 . S
C1519 H1514 0.949 . S
C1519 C1521 1.329 1_655 S
C1519 C1525 1.428 . S
C1520 C1512 1.574 . S
C1520 H1515 0.949 . S
C1520 C1526 1.368 . S
C1521 C1505 1.349 . S
C1521 H1513 0.950 . S
C1521 C1519 1.329 1_455 S
C1522 C1510 1.349 . S
C1522 H1516 0.950 . S
C1522 C1523 1.327 . S
C1523 H1517 0.950 . S
C1523 C1522 1.327 . S
C1523 C1527 1.429 . S
C1524 C1507 1.574 . S
C1524 H1518 0.949 . S
C1524 C1528 1.368 . S
C1525 C1506 1.429 . S
C1525 C1519 1.428 . S
C1525 C1526 1.523 . S
C1526 C1507 1.368 . S
C1526 C1520 1.368 . S
C1526 C1525 1.523 . S
C1527 C1511 1.429 . S
C1527 C1523 1.429 . S
C1527 C1528 1.523 . S
C1528 C1512 1.368 . S
C1528 C1524 1.368 . S
C1528 C1527 1.523 . S
H1529 C1504 0.950 . S
H1530 C1506 0.950 . S
H1531 C1507 0.949 . S
H1532 C1509 0.950 . S
H1533 C1511 0.950 . S
C1534 C1535 1.349 . S
C1534 C1536 1.327 . S
C1534 H1559 0.950 . S
C1535 C1534 1.349 . S
C1535 C1551 1.349 . S
C1536 C1534 1.327 . S
C1536 C1555 1.429 . S
C1536 H1560 0.950 . S
C1537 C1554 1.574 . S
C1537 C1556 1.368 . S
C1537 H1561 0.949 . S
H1538 C1542 0.949 . S
C1539 C1540 1.349 . S
C1539 C1541 1.327 . S
C1539 H1562 0.950 . S
C1540 C1539 1.349 . S
C1540 C1552 1.349 . S
C1541 C1539 1.327 . S
C1541 C1557 1.429 . S
C1541 H1563 0.950 . S
C1542 H1538 0.949 . S
C1542 C1550 1.574 . S
C1542 C1558 1.368 . S
H1543 C1551 0.950 . S
H1544 C1549 0.950 . S
H1545 C1550 0.949 . S
H1546 C1552 0.950 . S
H1547 C1553 0.950 . S
H1548 C1554 0.949 . S
C1549 H1544 0.950 . S
C1549 C1551 1.327 . S
C1549 C1555 1.429 . S
C1550 C1542 1.574 . S
C1550 H1545 0.949 . S
C1550 C1556 1.368 . S
C1551 C1535 1.349 . S
C1551 H1543 0.950 . S
C1551 C1549 1.327 . S
C1552 C1540 1.349 . S
C1552 H1546 0.950 . S
C1552 C1553 1.327 . S
C1553 H1547 0.950 . S
C1553 C1552 1.327 . S
C1553 C1557 1.429 . S
C1554 C1537 1.574 . S
C1554 H1548 0.949 . S
C1554 C1558 1.368 . S
C1555 C1536 1.429 . S
C1555 C1549 1.429 . S
C1555 C1556 1.523 . S
C1556 C1537 1.368 . S
C1556 C1550 1.368 . S
C1556 C1555 1.523 . S
C1557 C1541 1.429 . S
C1557 C1553 1.429 . S
C1557 C1558 1.523 . S
C1558 C1542 1.368 . S
C1558 C1554 1.368 . S
C1558 C1557 1.523 . S
H1559 C1534 0.950 . S
H1560 C1536 0.950 . S
H1561 C1537 0.949 . S
H1562 C1539 0.950 . S
H1563 C1541 0.950 . S
C1564 C1565 1.349 . S
C1564 C1566 1.327 . S
C1564 H1589 0.950 . S
C1565 C1564 1.349 . S
C1565 C1581 1.344 . S
C1566 C1564 1.327 . S
C1566 C1585 1.429 . S
C1566 H1590 0.950 . S
C1567 C1584 1.573 . S
C1567 C1586 1.383 . S
C1567 H1591 0.936 1_554 S
H1568 C1572 0.949 . S
C1569 C1570 1.349 . S
C1569 C1571 1.327 . S
C1569 H1592 0.950 1_554 S
C1570 C1569 1.349 . S
C1570 C1582 1.349 . S
C1571 C1569 1.327 . S
C1571 C1587 1.429 . S
C1571 H1593 0.950 1_554 S
C1572 H1568 0.949 . S
C1572 C1580 1.574 . S
C1572 C1588 1.368 . S
H1573 C1581 0.955 1_556 S
H1574 C1579 0.949 1_556 S
H1575 C1580 0.949 . S
H1576 C1582 0.950 . S
H1577 C1583 0.950 . S
H1578 C1584 0.908 1_556 S
C1579 H1574 0.949 1_554 S
C1579 C1581 1.327 . S
C1579 C1585 1.429 . S
C1580 C1572 1.574 . S
C1580 H1575 0.949 . S
C1580 C1586 1.368 . S
C1581 C1565 1.344 . S
C1581 H1573 0.955 1_554 S
C1581 C1579 1.327 . S
C1582 C1570 1.349 . S
C1582 H1576 0.950 . S
C1582 C1583 1.327 . S
C1583 H1577 0.950 . S
C1583 C1582 1.327 . S
C1583 C1587 1.429 . S
C1584 C1567 1.573 . S
C1584 H1578 0.908 1_554 S
C1584 C1588 1.416 . S
C1585 C1566 1.429 . S
C1585 C1579 1.429 . S
C1585 C1586 1.523 . S
C1586 C1567 1.383 . S
C1586 C1580 1.368 . S
C1586 C1585 1.523 . S
C1587 C1571 1.429 . S
C1587 C1583 1.429 . S
C1587 C1588 1.523 . S
C1588 C1572 1.368 . S
C1588 C1584 1.416 . S
C1588 C1587 1.523 . S
H1589 C1564 0.950 . S
H1590 C1566 0.950 . S
H1591 C1567 0.936 1_556 S
H1592 C1569 0.950 1_556 S
H1593 C1571 0.950 1_556 S
C1594 C1595 1.349 . S
C1594 C1596 1.327 . S
C1594 H1619 0.950 . S
C1595 C1594 1.349 . S
C1595 C1611 1.349 . S
C1596 C1594 1.327 . S
C1596 C1615 1.429 . S
C1596 H1620 0.950 . S
C1597 C1614 1.574 . S
C1597 C1616 1.368 . S
C1597 H1621 0.949 . S
H1598 C1602 0.949 . S
C1599 C1600 1.349 . S
C1599 C1601 1.327 1_565 S
C1599 H1622 0.950 . S
C1600 C1599 1.349 . S
C1600 C1612 1.349 . S
C1601 C1599 1.327 1_545 S
C1601 C1617 1.429 . S
C1601 H1623 0.950 . S
C1602 H1598 0.949 . S
C1602 C1610 1.574 . S
C1602 C1618 1.368 . S
H1603 C1611 0.950 . S
H1604 C1609 0.950 . S
H1605 C1610 0.949 . S
H1606 C1612 0.950 . S
H1607 C1613 0.949 1_545 S
H1608 C1614 0.949 . S
C1609 H1604 0.950 . S
C1609 C1611 1.327 . S
C1609 C1615 1.429 . S
C1610 C1602 1.574 . S
C1610 H1605 0.949 . S
C1610 C1616 1.368 . S
C1611 C1595 1.349 . S
C1611 H1603 0.950 . S
C1611 C1609 1.327 . S
C1612 C1600 1.349 . S
C1612 H1606 0.950 . S
C1612 C1613 1.327 . S
C1613 H1607 0.949 1_565 S
C1613 C1612 1.327 . S
C1613 C1617 1.428 1_565 S
C1614 C1597 1.574 . S
C1614 H1608 0.949 . S
C1614 C1618 1.368 . S
C1615 C1596 1.429 . S
C1615 C1609 1.429 . S
C1615 C1616 1.523 . S
C1616 C1597 1.368 . S
C1616 C1610 1.368 . S
C1616 C1615 1.523 . S
C1617 C1601 1.429 . S
C1617 C1613 1.428 1_545 S
C1617 C1618 1.523 . S
C1618 C1602 1.368 . S
C1618 C1614 1.368 . S
C1618 C1617 1.523 . S
H1619 C1594 0.950 . S
H1620 C1596 0.950 . S
H1621 C1597 0.949 . S
H1622 C1599 0.950 . S
H1623 C1601 0.950 . S
C1624 C1625 1.349 . S
C1624 C1626 1.328 . S
C1624 H1649 0.950 1_554 S
C1625 C1624 1.349 . S
C1625 C1641 1.349 . S
C1626 C1624 1.328 . S
C1626 C1645 1.428 1_655 S
C1626 H1650 0.949 1_654 S
C1627 C1644 1.574 . S
C1627 C1646 1.368 . S
C1627 H1651 0.949 . S
H1628 C1632 0.975 . S
C1629 C1630 1.349 . S
C1629 C1631 1.327 . S
C1629 H1652 0.950 . S
C1630 C1629 1.349 . S
C1630 C1642 1.307 1_554 S
C1631 C1629 1.327 . S
C1631 C1647 1.429 . S
C1631 H1653 0.950 . S
C1632 H1628 0.975 . S
C1632 C1640 1.573 . S
C1632 C1648 1.340 1_556 S
H1633 C1641 0.950 . S
H1634 C1639 0.950 . S
H1635 C1640 0.944 . S
H1636 C1642 0.993 . S
H1637 C1643 0.988 . S
H1638 C1644 0.949 . S
C1639 H1634 0.950 . S
C1639 C1641 1.327 1_455 S
C1639 C1645 1.429 . S
C1640 C1632 1.573 . S
C1640 H1635 0.944 . S
C1640 C1646 1.374 1_556 S
C1641 C1625 1.349 . S
C1641 H1633 0.950 . S
C1641 C1639 1.327 1_655 S
C1642 C1630 1.307 1_556 S
C1642 H1636 0.993 . S
C1642 C1643 1.327 . S
C1643 H1637 0.988 . S
C1643 C1642 1.327 . S
C1643 C1647 1.391 1_556 S
C1644 C1627 1.574 . S
C1644 H1638 0.949 . S
C1644 C1648 1.368 . S
C1645 C1626 1.428 1_455 S
C1645 C1639 1.429 . S
C1645 C1646 1.523 . S
C1646 C1627 1.368 . S
C1646 C1640 1.374 1_554 S
C1646 C1645 1.523 . S
C1647 C1631 1.429 . S
C1647 C1643 1.391 1_554 S
C1647 C1648 1.523 . S
C1648 C1632 1.340 1_554 S
C1648 C1644 1.368 . S
C1648 C1647 1.523 . S
H1649 C1624 0.950 1_556 S
H1650 C1626 0.949 1_456 S
H1651 C1627 0.949 . S
H1652 C1629 0.950 . S
H1653 C1631 0.950 . S
C1654 C1655 1.349 . S
C1654 C1656 1.327 . S
C1654 H1679 0.950 . S
C1655 C1654 1.349 . S
C1655 C1671 1.349 . S
C1656 C1654 1.327 . S
C1656 C1675 1.429 . S
C1656 H1680 0.950 . S
C1657 C1674 1.574 . S
C1657 C1676 1.368 . S
C1657 H1681 0.949 . S
H1658 C1662 0.949 . S
C1659 C1660 1.349 . S
C1659 C1661 1.327 . S
C1659 H1682 0.950 . S
C1660 C1659 1.349 . S
C1660 C1672 1.349 . S
C1661 C1659 1.327 . S
C1661 C1677 1.429 . S
C1661 H1683 0.950 . S
C1662 H1658 0.949 . S
C1662 C1670 1.574 . S
C1662 C1678 1.368 . S
H1663 C1671 0.950 . S
H1664 C1669 0.950 . S
H1665 C1670 0.949 . S
H1666 C1672 0.950 . S
H1667 C1673 0.950 . S
H1668 C1674 0.949 . S
C1669 H1664 0.950 . S
C1669 C1671 1.327 . S
C1669 C1675 1.429 . S
C1670 C1662 1.574 . S
C1670 H1665 0.949 . S
C1670 C1676 1.368 . S
C1671 C1655 1.349 . S
C1671 H1663 0.950 . S
C1671 C1669 1.327 . S
C1672 C1660 1.349 . S
C1672 H1666 0.950 . S
C1672 C1673 1.327 . S
C1673 H1667 0.950 . S
C1673 C1672 1.327 . S
C1673 C1677 1.429 . S
C1674 C1657 1.574 . S
C1674 H1668 0.949 . S
C1674 C1678 1.368 . S
C1675 C1656 1.429 . S
C1675 C1669 1.429 . S
C1675 C1676 1.523 . S
C1676 C1657 1.368 . S
C1676 C1670 1.368 . S
C1676 C1675 1.523 . S
C1677 C1661 1.429 . S
C1677 C1673 1.429 . S
C1677 C1678 1.523 . S
C1678 C1662 1.368 . S
C1678 C1674 1.368 . S
C1678 C1677 1.523 . S
H1679 C1654 0.950 . S
H1680 C1656 0.950 . S
H1681 C1657 0.949 . S
H1682 C1659 0.950 . S
H1683 C1661 0.950 . S
C1684 C1685 1.349 . S
C1684 C1686 1.327 . S
C1684 H1709 0.950 . S
C1685 C1684 1.349 . S
C1685 C1701 1.349 . S
C1686 C1684 1.327 . S
C1686 C1705 1.429 . S
C1686 H1710 0.950 . S
C1687 C1704 1.574 . S
C1687 C1706 1.368 . S
C1687 H1711 0.949 . S
H1688 C1692 0.949 . S
C1689 C1690 1.349 . S
C1689 C1691 1.327 . S
C1689 H1712 0.950 . S
C1690 C1689 1.349 . S
C1690 C1702 1.349 . S
C1691 C1689 1.327 . S
C1691 C1707 1.429 . S
C1691 H1713 0.950 . S
C1692 H1688 0.949 . S
C1692 C1700 1.574 . S
C1692 C1708 1.368 . S
H1693 C1701 0.950 . S
H1694 C1699 0.950 . S
H1695 C1700 0.949 . S
H1696 C1702 0.950 . S
H1697 C1703 0.950 . S
H1698 C1704 0.949 . S
C1699 H1694 0.950 . S
C1699 C1701 1.327 . S
C1699 C1705 1.429 . S
C1700 C1692 1.574 . S
C1700 H1695 0.949 . S
C1700 C1706 1.368 . S
C1701 C1685 1.349 . S
C1701 H1693 0.950 . S
C1701 C1699 1.327 . S
C1702 C1690 1.349 . S
C1702 H1696 0.950 . S
C1702 C1703 1.327 . S
C1703 H1697 0.950 . S
C1703 C1702 1.327 . S
C1703 C1707 1.429 . S
C1704 C1687 1.574 . S
C1704 H1698 0.949 . S
C1704 C1708 1.368 . S
C1705 C1686 1.429 . S
C1705 C1699 1.429 . S
C1705 C1706 1.523 . S
C1706 C1687 1.368 . S
C1706 C1700 1.368 . S
C1706 C1705 1.523 . S
C1707 C1691 1.429 . S
C1707 C1703 1.429 . S
C1707 C1708 1.523 . S
C1708 C1692 1.368 . S
C1708 C1704 1.368 . S
C1708 C1707 1.523 . S
H1709 C1684 0.950 . S
H1710 C1686 0.950 . S
H1711 C1687 0.949 . S
H1712 C1689 0.950 . S
H1713 C1691 0.950 . S
C1714 C1715 1.349 . S
C1714 C1716 1.327 . S
C1714 H1739 0.950 . S
C1715 C1714 1.349 . S
C1715 C1731 1.349 . S
C1716 C1714 1.327 . S
C1716 C1735 1.429 1_545 S
C1716 H1740 0.950 1_545 S
C1717 C1734 1.574 . S
C1717 C1736 1.368 . S
C1717 H1741 0.949 . S
H1718 C1722 0.949 . S
C1719 C1720 1.349 . S
C1719 C1721 1.327 . S
C1719 H1742 0.950 . S
C1720 C1719 1.349 . S
C1720 C1732 1.349 . S
C1721 C1719 1.327 . S
C1721 C1737 1.429 . S
C1721 H1743 0.950 . S
C1722 H1718 0.949 . S
C1722 C1730 1.574 . S
C1722 C1738 1.368 . S
H1723 C1731 0.950 . S
H1724 C1729 0.950 . S
H1725 C1730 0.949 . S
H1726 C1732 0.950 . S
H1727 C1733 0.950 . S
H1728 C1734 0.949 . S
C1729 H1724 0.950 . S
C1729 C1731 1.327 1_565 S
C1729 C1735 1.429 . S
C1730 C1722 1.574 . S
C1730 H1725 0.949 . S
C1730 C1736 1.368 . S
C1731 C1715 1.349 . S
C1731 H1723 0.950 . S
C1731 C1729 1.327 1_545 S
C1732 C1720 1.349 . S
C1732 H1726 0.950 . S
C1732 C1733 1.327 . S
C1733 H1727 0.950 . S
C1733 C1732 1.327 . S
C1733 C1737 1.429 . S
C1734 C1717 1.574 . S
C1734 H1728 0.949 . S
C1734 C1738 1.368 . S
C1735 C1716 1.429 1_565 S
C1735 C1729 1.429 . S
C1735 C1736 1.523 . S
C1736 C1717 1.368 . S
C1736 C1730 1.368 . S
C1736 C1735 1.523 . S
C1737 C1721 1.429 . S
C1737 C1733 1.429 . S
C1737 C1738 1.523 . S
C1738 C1722 1.368 . S
C1738 C1734 1.368 . S
C1738 C1737 1.523 . S
H1739 C1714 0.950 . S
H1740 C1716 0.950 1_565 S
H1741 C1717 0.949 . S
H1742 C1719 0.950 . S
H1743 C1721 0.950 . S
C545 C9 1.618 . S
C550 C311 1.687 . S
C575 C43 1.617 . S
C580 C345 1.687 . S
C605 C379 1.687 . S
C610 C77 1.618 . S
C635 C277 1.687 . S
C640 C111 1.617 . S
C665 C145 1.618 . S
C670 C243 1.687 . S
C695 C141 1.687 . S
C700 C179 1.617 . S
C725 C213 1.618 . S
C730 C175 1.687 . S
C755 C247 1.617 . S
C760 C209 1.687 . S
C785 C39 1.687 . S
C790 C281 1.618 . S
C815 C73 1.687 . S
C820 C315 1.617 . S
C845 C349 1.618 . S
C850 C107 1.687 . S
C875 C383 1.618 . S
C880 C5 1.687 . S
C905 C515 1.687 . S
C910 C417 1.617 . S
C935 C413 1.687 . S
C940 C451 1.618 . S
C965 C485 1.617 . S
C970 C447 1.687 . S
C995 C519 1.618 . S
C1000 C481 1.687 . S
C1025 C33 1.202 . S
C1030 C373 1.202 . S
C1055 C407 1.202 . S
C1060 C67 1.202 . S
C1085 C305 1.202 . S
C1090 C101 1.202 . S
C1115 C339 1.202 . S
C1120 C135 1.202 . S
C1145 C169 1.202 . S
C1150 C509 1.202 . S
C1175 C203 1.202 . S
C1180 C543 1.202 . S
C1205 C237 1.202 . S
C1210 C441 1.202 . S
C1235 C475 1.202 . S
C1240 C271 1.202 . S
C1265 C206 0.787 . S
C1270 C20 0.790 . S
C1295 C54 0.791 . S
C1300 C240 0.787 . S
C1325 C138 0.787 . S
C1330 C88 0.791 . S
C1355 C172 0.787 . S
C1360 C122 0.790 . S
C1385 C156 0.790 . S
C1390 C70 0.786 . S
C1415 C190 0.791 . S
C1420 C104 0.787 . S
C1445 C2 0.786 . S
C1450 C224 0.790 . S
C1475 C258 0.791 . S
C1480 C36 0.787 . S
C1505 C478 0.787 . S
C1510 C292 0.791 . S
C1535 C326 0.790 . S
C1540 C512 0.787 . S
C1565 C360 0.790 . S
C1570 C410 0.787 . S
C1595 C394 0.791 . S
C1600 C444 0.787 . S
C1625 C342 0.786 . S
C1630 C428 0.790 . S
C1655 C462 0.791 . S
C1660 C376 0.787 . S
C1685 C274 0.786 . S
C1690 C496 0.790 . S
C1715 C308 0.787 . S
C1720 C530 0.791 . S
