# Generated by pormake.
# Topology ske, (6)-cn, num edge types: 1
# Building blocks:
#     Node 0, Type 0, BuildingBlock: BETGAK_clean_sbu_0, # of connection points: 6
#     Node 1, Type 0, BuildingBlock: BETGAK_clean_sbu_0, # of connection points: 6
#     Node 2, Type 0, BuildingBlock: BETGAK_clean_sbu_0, # of connection points: 6
#     Node 3, Type 0, BuildingBlock: BETGAK_clean_sbu_0, # of connection points: 6
#     Node 4, Type 0, BuildingBlock: BETGAK_clean_sbu_0, # of connection points: 6
#     Node 5, Type 0, BuildingBlock: BETGAK_clean_sbu_0, # of connection points: 6
#     Node 6, Type 0, BuildingBlock: BETGAK_clean_sbu_0, # of connection points: 6
#     Node 7, Type 0, BuildingBlock: BETGAK_clean_sbu_0, # of connection points: 6
#     Edge 8, Type (0, 0), BuildingBlock: XUDNAN_clean_linker_2, # of connection points: 2
#     Edge 9, Type (0, 0), BuildingBlock: XUDNAN_clean_linker_2, # of connection points: 2
#     Edge 10, Type (0, 0), BuildingBlock: XUDNAN_clean_linker_2, # of connection points: 2
#     Edge 11, Type (0, 0), BuildingBlock: XUDNAN_clean_linker_2, # of connection points: 2
#     Edge 12, Type (0, 0), BuildingBlock: XUDNAN_clean_linker_2, # of connection points: 2
#     Edge 13, Type (0, 0), BuildingBlock: XUDNAN_clean_linker_2, # of connection points: 2
#     Edge 14, Type (0, 0), BuildingBlock: XUDNAN_clean_linker_2, # of connection points: 2
#     Edge 15, Type (0, 0), BuildingBlock: XUDNAN_clean_linker_2, # of connection points: 2
#     Edge 16, Type (0, 0), BuildingBlock: XUDNAN_clean_linker_2, # of connection points: 2
#     Edge 17, Type (0, 0), BuildingBlock: XUDNAN_clean_linker_2, # of connection points: 2
#     Edge 18, Type (0, 0), BuildingBlock: XUDNAN_clean_linker_2, # of connection points: 2
#     Edge 19, Type (0, 0), BuildingBlock: XUDNAN_clean_linker_2, # of connection points: 2
#     Edge 20, Type (0, 0), BuildingBlock: XUDNAN_clean_linker_2, # of connection points: 2
#     Edge 21, Type (0, 0), BuildingBlock: XUDNAN_clean_linker_2, # of connection points: 2
#     Edge 22, Type (0, 0), BuildingBlock: XUDNAN_clean_linker_2, # of connection points: 2
#     Edge 23, Type (0, 0), BuildingBlock: XUDNAN_clean_linker_2, # of connection points: 2
#     Edge 24, Type (0, 0), BuildingBlock: XUDNAN_clean_linker_2, # of connection points: 2
#     Edge 25, Type (0, 0), BuildingBlock: XUDNAN_clean_linker_2, # of connection points: 2
#     Edge 26, Type (0, 0), BuildingBlock: XUDNAN_clean_linker_2, # of connection points: 2
#     Edge 27, Type (0, 0), BuildingBlock: XUDNAN_clean_linker_2, # of connection points: 2
#     Edge 28, Type (0, 0), BuildingBlock: XUDNAN_clean_linker_2, # of connection points: 2
#     Edge 29, Type (0, 0), BuildingBlock: XUDNAN_clean_linker_2, # of connection points: 2
#     Edge 30, Type (0, 0), BuildingBlock: XUDNAN_clean_linker_2, # of connection points: 2
#     Edge 31, Type (0, 0), BuildingBlock: XUDNAN_clean_linker_2, # of connection points: 2
# Relax obj value: 0.199
# Max RMSD: 0.203
# Mean RMSD: 0.196
data_MOF--net-ske--node1-BETGAK_clean_sbu_0--edge1-XUDNAN_clean_linker_2
_symmetry_space_group_name_H-M    P1
_symmetry_Int_Tables_number       1
_symmetry_cell_setting            triclinic
loop_
_symmetry_equiv_pos_as_xyz
'x, y, z'
_cell_length_a     101.34118
_cell_length_b     28.833723
_cell_length_c     15.371051
_cell_angle_alpha  89.59043
_cell_angle_beta   90.151496
_cell_angle_gamma 84.624778
loop_
_atom_site_label
_atom_site_type_symbol
_atom_site_fract_x
_atom_site_fract_y
_atom_site_fract_z
_atom_type_partial_charge
La0 La 0.17415 0.26606 0.53714 0.0
La1 La 0.14343 0.25972 0.53648 0.0
C2 C 0.19721 0.29186 0.55304 0.0
C3 C 0.21023 0.27712 0.59372 0.0
C4 C 0.21744 0.23471 0.57227 0.0
C5 C 0.23028 0.22368 0.60476 0.0
C6 C 0.23624 0.2547 0.65966 0.0
C7 C 0.22886 0.29663 0.68253 0.0
C8 C 0.21604 0.30773 0.6497 0.0
C9 C 0.16698 0.18044 0.51628 0.0
C10 C 0.15867 0.26073 0.71739 0.0
C11 C 0.12073 0.23043 0.53871 0.0
C12 C 0.10666 0.24021 0.5119 0.0
C13 C 0.09701 0.24912 0.57662 0.0
C14 C 0.08351 0.25284 0.55589 0.0
C15 C 0.07925 0.24756 0.46967 0.0
C16 C 0.08893 0.23971 0.40434 0.0
C17 C 0.10249 0.23597 0.42521 0.0
C18 C 0.14996 0.34857 0.52286 0.0
C19 C 0.15831 0.26981 0.36014 0.0
O20 O 0.19342 0.26693 0.48843 0.0
O21 O 0.18737 0.30538 0.60472 0.0
O22 O 0.17808 0.19509 0.4919 0.0
O23 O 0.16092 0.21194 0.56254 0.0
O24 O 0.17002 0.26753 0.67833 0.0
O25 O 0.14797 0.25159 0.67366 0.0
O26 O 0.1251 0.25752 0.59826 0.0
O27 O 0.12971 0.21837 0.47953 0.0
O28 O 0.13784 0.33743 0.52487 0.0
O29 O 0.15683 0.31043 0.52738 0.0
O30 O 0.14874 0.25024 0.4009 0.0
O31 O 0.16824 0.28653 0.40298 0.0
H32 H 0.2133 0.21041 0.52884 0.0
H33 H 0.23568 0.19136 0.58472 0.0
H34 H 0.23299 0.32105 0.72573 0.0
H35 H 0.21072 0.34074 0.66692 0.0
H36 H 0.0999 0.25171 0.64421 0.0
H37 H 0.07642 0.25803 0.60828 0.0
H38 H 0.08603 0.23596 0.33709 0.0
H39 H 0.10966 0.22875 0.37382 0.0
La40 La 0.88857 0.27551 0.55615 0.0
La41 La 0.91775 0.27847 0.56805 0.0
C42 C 0.86477 0.25618 0.56883 0.0
C43 C 0.85282 0.26706 0.62312 0.0
C44 C 0.84785 0.31325 0.64001 0.0
C45 C 0.83584 0.3228 0.68411 0.0
C46 C 0.82852 0.28643 0.71297 0.0
C47 C 0.83369 0.24019 0.69751 0.0
C48 C 0.84568 0.23068 0.65294 0.0
C49 C 0.89666 0.36031 0.54932 0.0
C50 C 0.90282 0.27918 0.74123 0.0
C51 C 0.94148 0.29883 0.56313 0.0
C52 C 0.95461 0.28936 0.52176 0.0
C53 C 0.96024 0.24378 0.50611 0.0
C54 C 0.97354 0.23571 0.48064 0.0
C55 C 0.98147 0.27302 0.47073 0.0
C56 C 0.97558 0.31866 0.4828 0.0
C57 C 0.96232 0.32667 0.50806 0.0
C58 C 0.90953 0.19322 0.57261 0.0
C59 C 0.90421 0.27432 0.38166 0.0
O60 O 0.86862 0.28994 0.52077 0.0
O61 O 0.87481 0.23088 0.60397 0.0
O62 O 0.88636 0.34798 0.50922 0.0
O63 O 0.90123 0.32715 0.59717 0.0
O64 O 0.89256 0.26521 0.6981 0.0
O65 O 0.91243 0.29725 0.69917 0.0
O66 O 0.93732 0.26597 0.61214 0.0
O67 O 0.93186 0.32113 0.51809 0.0
O68 O 0.91986 0.20545 0.61275 0.0
O69 O 0.90507 0.22704 0.52616 0.0
O70 O 0.91427 0.28707 0.42803 0.0
O71 O 0.89354 0.26052 0.42 0.0
H72 H 0.85308 0.34214 0.61751 0.0
H73 H 0.83213 0.35886 0.69348 0.0
H74 H 0.82848 0.21125 0.71981 0.0
H75 H 0.84928 0.19477 0.64047 0.0
H76 H 0.95454 0.21431 0.51667 0.0
H77 H 0.97775 0.2001 0.47245 0.0
H78 H 0.9813 0.34825 0.47428 0.0
H79 H 0.95821 0.3621 0.5201 0.0
La80 La 0.14426 0.75629 0.51751 0.0
La81 La 0.17566 0.76938 0.51721 0.0
C82 C 0.12203 0.72371 0.51273 0.0
C83 C 0.108 0.73453 0.53972 0.0
C84 C 0.09879 0.75868 0.48306 0.0
C85 C 0.08532 0.76481 0.50425 0.0
C86 C 0.08066 0.74672 0.58243 0.0
C87 C 0.0899 0.72317 0.63973 0.0
C88 C 0.10339 0.71698 0.61848 0.0
C89 C 0.14981 0.84614 0.52597 0.0
C90 C 0.1592 0.76369 0.69544 0.0
C91 C 0.19721 0.80662 0.52168 0.0
C92 C 0.21092 0.80325 0.4883 0.0
C93 C 0.21779 0.76069 0.46418 0.0
C94 C 0.23119 0.75886 0.43961 0.0
C95 C 0.23792 0.79948 0.43951 0.0
C96 C 0.2308 0.84208 0.46104 0.0
C97 C 0.21748 0.84389 0.48507 0.0
C98 C 0.17099 0.67923 0.5068 0.0
C99 C 0.16029 0.75974 0.33965 0.0
O100 O 0.12649 0.74964 0.45081 0.0
O101 O 0.13093 0.7132 0.57381 0.0
O102 O 0.13788 0.83314 0.5271 0.0
O103 O 0.15717 0.80891 0.52184 0.0
O104 O 0.14921 0.74746 0.65332 0.0
O105 O 0.16967 0.77873 0.65524 0.0
O106 O 0.19413 0.77432 0.57665 0.0
O107 O 0.18765 0.81865 0.46612 0.0
O108 O 0.18262 0.69487 0.50517 0.0
O109 O 0.16281 0.71486 0.5127 0.0
O110 O 0.17082 0.77523 0.37775 0.0
O111 O 0.1505 0.74324 0.38396 0.0
H112 H 0.10193 0.77217 0.42131 0.0
H113 H 0.07853 0.78364 0.45903 0.0
H114 H 0.08667 0.70821 0.69995 0.0
H115 H 0.11015 0.69746 0.66293 0.0
H116 H 0.2129 0.72887 0.4661 0.0
H117 H 0.23639 0.7255 0.4236 0.0
H118 H 0.23559 0.87413 0.46013 0.0
H119 H 0.21235 0.8771 0.50301 0.0
La120 La 0.91822 0.77792 0.50865 0.0
La121 La 0.88895 0.77581 0.52126 0.0
C122 C 0.94219 0.79606 0.51264 0.0
C123 C 0.95562 0.78331 0.54942 0.0
C124 C 0.96389 0.74586 0.5155 0.0
C125 C 0.97732 0.73936 0.53845 0.0
C126 C 0.98284 0.77019 0.59569 0.0
C127 C 0.97444 0.80646 0.63242 0.0
C128 C 0.96101 0.81305 0.60923 0.0
C129 C 0.90976 0.69318 0.50846 0.0
C130 C 0.90446 0.77986 0.69511 0.0
C131 C 0.86531 0.75452 0.51482 0.0
C132 C 0.8533 0.75346 0.45951 0.0
C133 C 0.84248 0.78706 0.47146 0.0
C134 C 0.83025 0.78228 0.43157 0.0
C135 C 0.82848 0.74354 0.37919 0.0
C136 C 0.83947 0.71094 0.36428 0.0
C137 C 0.85172 0.71575 0.40415 0.0
C138 C 0.8974 0.85986 0.53131 0.0
C139 C 0.90232 0.78611 0.33521 0.0
O140 O 0.93744 0.76719 0.45816 0.0
O141 O 0.93298 0.81604 0.56311 0.0
O142 O 0.92004 0.70468 0.46711 0.0
O143 O 0.90545 0.72738 0.55326 0.0
O144 O 0.91467 0.79051 0.64767 0.0
O145 O 0.89384 0.76473 0.65871 0.0
O146 O 0.86865 0.79523 0.53903 0.0
O147 O 0.87568 0.72528 0.49821 0.0
O148 O 0.88718 0.84714 0.5723 0.0
O149 O 0.90175 0.82739 0.48203 0.0
O150 O 0.89224 0.77047 0.37799 0.0
O151 O 0.91254 0.79977 0.37814 0.0
H152 H 0.96013 0.72249 0.46856 0.0
H153 H 0.98345 0.71068 0.5099 0.0
H154 H 0.97837 0.83117 0.67598 0.0
H155 H 0.95498 0.84272 0.63528 0.0
H156 H 0.84328 0.8161 0.51489 0.0
H157 H 0.822 0.80778 0.44545 0.0
H158 H 0.83853 0.68101 0.32332 0.0
H159 H 0.85978 0.68896 0.39404 0.0
La160 La 0.67364 0.77319 0.03978 0.0
La161 La 0.64388 0.77488 0.04727 0.0
C162 C 0.69767 0.78996 0.05113 0.0
C163 C 0.71029 0.77525 0.09719 0.0
C164 C 0.71766 0.73277 0.07821 0.0
C165 C 0.7303 0.72198 0.11412 0.0
C166 C 0.73592 0.75337 0.16988 0.0
C167 C 0.7284 0.79541 0.19028 0.0
C168 C 0.71577 0.80624 0.15414 0.0
C169 C 0.66464 0.68936 0.03736 0.0
C170 C 0.65928 0.777 0.22262 0.0
C171 C 0.62008 0.7551 0.04263 0.0
C172 C 0.6066 0.76573 1.00504 0.0
C173 C 0.59729 0.79665 0.04829 0.0
C174 C 0.58391 0.80044 1.02437 0.0
C175 C 0.57944 0.77333 0.95668 0.0
C176 C 0.58881 0.74393 0.91065 0.0
C177 C 0.60223 0.73992 0.93498 0.0
C178 C 0.65296 0.859 0.04873 0.0
C179 C 0.65814 0.78067 0.8632 0.0
O180 O 0.69321 0.76087 0.99576 0.0
O181 O 0.68809 0.81196 0.09587 0.0
O182 O 0.6756 0.69947 1.00255 0.0
O183 O 0.65993 0.72417 0.0801 0.0
O184 O 0.66961 0.78742 0.17672 0.0
O185 O 0.64881 0.76165 0.18466 0.0
O186 O 0.6245 0.78612 0.09407 0.0
O187 O 0.62952 0.73413 0.99498 0.0
O188 O 0.64172 0.84985 0.08119 0.0
O189 O 0.65758 0.8234 1.00847 0.0
O190 O 0.64758 0.7679 0.90501 0.0
O191 O 0.66858 0.79258 0.90663 0.0
H192 H 0.71384 0.70827 0.03372 0.0
H193 H 0.73583 0.68958 0.09578 0.0
H194 H 0.7323 0.82016 0.23387 0.0
H195 H 0.7104 0.83946 0.16927 0.0
H196 H 0.60023 0.81662 0.10332 0.0
H197 H 0.577 0.8239 0.06037 0.0
H198 H 0.58567 0.72233 0.85857 0.0
H199 H 0.60907 0.71516 0.90128 0.0
La200 La 0.38902 0.76754 0.05349 0.0
La201 La 0.41817 0.77307 0.06488 0.0
C202 C 0.36551 0.74528 0.06494 0.0
C203 C 0.35368 0.75288 0.12104 0.0
C204 C 0.35013 0.79604 0.16038 0.0
C205 C 0.33828 0.80342 0.20725 0.0
C206 C 0.32975 0.76775 0.21629 0.0
C207 C 0.33353 0.72428 0.1782 0.0
C208 C 0.34535 0.71702 0.13105 0.0
C209 C 0.39657 0.85295 0.0454 0.0
C210 C 0.40246 0.77409 0.23947 0.0
C211 C 0.44178 0.7951 0.05819 0.0
C212 C 0.45509 0.78462 1.01863 0.0
C213 C 0.46442 0.75175 0.05811 0.0
C214 C 0.47767 0.74764 1.03174 0.0
C215 C 0.48199 0.77635 0.96536 0.0
C216 C 0.47257 0.80781 0.92317 0.0
C217 C 0.45928 0.81211 0.94989 0.0
C218 C 0.41064 0.68686 0.06739 0.0
C219 C 0.40376 0.77033 0.87955 0.0
O220 O 0.36892 0.78134 1.0212 0.0
O221 O 0.37581 0.71995 0.09689 0.0
O222 O 0.38643 0.83958 1.0047 0.0
O223 O 0.40136 0.82035 0.09381 0.0
O224 O 0.39251 0.76029 0.19364 0.0
O225 O 0.41297 0.78851 0.20054 0.0
O226 O 0.43766 0.76419 0.1117 0.0
O227 O 0.43209 0.81514 1.01064 0.0
O228 O 0.42104 0.69951 0.10586 0.0
O229 O 0.40587 0.72078 1.02243 0.0
O230 O 0.41404 0.78413 0.92319 0.0
O231 O 0.39411 0.75177 0.92061 0.0
H232 H 0.35637 0.82434 0.15351 0.0
H233 H 0.33567 0.83754 0.23459 0.0
H234 H 0.32738 0.69572 0.18492 0.0
H235 H 0.3479 0.68343 0.10126 0.0
H236 H 0.46162 0.73034 0.11195 0.0
H237 H 0.48462 0.72258 0.0648 0.0
H238 H 0.47558 0.83072 0.87227 0.0
H239 H 0.45243 0.83833 0.9191 0.0
La240 La 0.64524 0.26693 1.03228 0.0
La241 La 0.67543 0.28046 0.03462 0.0
C242 C 0.62195 0.24582 0.04861 0.0
C243 C 0.60789 0.23672 0.0576 0.0
C244 C 0.59801 0.27419 0.06226 0.0
C245 C 0.58461 0.26636 0.06565 0.0
C246 C 0.58071 0.22077 0.06541 0.0
C247 C 0.59068 0.18321 0.06254 0.0
C248 C 0.60411 0.19113 0.05809 0.0
C249 C 0.65187 0.35382 1.01052 0.0
C250 C 0.66112 0.2661 0.21244 0.0
C251 C 0.69674 0.31903 1.03189 0.0
C252 C 0.70996 0.31695 0.99068 0.0
C253 C 0.71818 0.27506 0.9831 0.0
C254 C 0.73127 0.27546 0.95346 0.0
C255 C 0.73639 0.31774 0.93137 0.0
C256 C 0.72791 0.35921 0.93559 0.0
C257 C 0.71488 0.35878 0.96498 0.0
C258 C 0.67172 0.18994 1.0241 0.0
C259 C 0.66067 0.26682 0.85441 0.0
O260 O 0.62609 0.28439 0.07836 0.0
O261 O 0.63114 0.21773 1.01097 0.0
O262 O 0.64179 0.33679 0.97505 0.0
O263 O 0.65736 0.32282 0.0605 0.0
O264 O 0.65062 0.25322 0.17022 0.0
O265 O 0.671 0.28396 0.17208 0.0
O266 O 0.69443 0.28527 0.08588 0.0
O267 O 0.68643 0.33252 0.98301 0.0
O268 O 0.6832 0.20649 1.02266 0.0
O269 O 0.66329 0.22461 1.02968 0.0
O270 O 0.67067 0.28335 0.89631 0.0
O271 O 0.64997 0.2542 0.89474 0.0
H272 H 0.60063 0.30977 0.06104 0.0
H273 H 0.57732 0.29629 0.06593 0.0
H274 H 0.58813 0.14758 0.06369 0.0
H275 H 0.61154 0.16162 0.05481 0.0
H276 H 0.71463 0.24225 1.00243 0.0
H277 H 0.73753 0.24293 0.95127 0.0
H278 H 0.73142 0.39227 0.91753 0.0
H279 H 0.70873 0.39149 0.97006 0.0
La280 La 0.41851 0.26896 0.99921 0.0
La281 La 0.38924 0.27199 1.0146 0.0
C282 C 0.44252 0.28631 0.99975 0.0
C283 C 0.45589 0.27174 0.03448 0.0
C284 C 0.46011 0.22468 0.05079 0.0
C285 C 0.47355 0.21072 0.06576 0.0
C286 C 0.48304 0.2435 0.06448 0.0
C287 C 0.4786 0.2909 0.05333 0.0
C288 C 0.46517 0.30479 0.0384 0.0
C289 C 0.40918 0.18571 0.99542 0.0
C290 C 0.40511 0.26326 0.18842 0.0
C291 C 0.36467 0.26244 1.01033 0.0
C292 C 0.35294 0.25838 0.95418 0.0
C293 C 0.34189 0.29112 0.96369 0.0
C294 C 0.32991 0.28507 0.9218 0.0
C295 C 0.32866 0.24592 0.86944 0.0
C296 C 0.33989 0.21397 0.85729 0.0
C297 C 0.35191 0.22007 0.89931 0.0
C298 C 0.39934 0.35321 1.02585 0.0
C299 C 0.40239 0.26933 0.8285 0.0
O300 O 0.4375 0.25737 0.94673 0.0
O301 O 0.43358 0.30673 0.05171 0.0
O302 O 0.41982 0.19606 0.95656 0.0
O303 O 0.40514 0.21997 0.04109 0.0
O304 O 0.4158 0.27257 0.14349 0.0
O305 O 0.39392 0.25601 0.14884 0.0
O306 O 0.36959 0.30273 1.01204 0.0
O307 O 0.37391 0.22756 1.01412 0.0
O308 O 0.38973 0.34092 0.07331 0.0
O309 O 0.40271 0.32113 0.97322 0.0
O310 O 0.39259 0.25634 0.87678 0.0
O311 O 0.41273 0.28611 0.86501 0.0
H312 H 0.45312 0.19849 0.04802 0.0
H313 H 0.47658 0.17403 0.07564 0.0
H314 H 0.48557 0.31712 0.05102 0.0
H315 H 0.46215 0.34121 1.02515 0.0
H316 H 0.34235 0.32062 1.00651 0.0
H317 H 0.32147 0.31006 0.93383 0.0
H318 H 0.33934 0.18376 0.81646 0.0
H319 H 0.36024 0.19414 0.89079 0.0
H320 H 0.25564 0.31489 0.68091 0.0
H321 H 0.24842 0.16955 0.71105 0.0
H322 H 0.2715 0.151 0.76056 0.0
H323 H 0.28929 0.29564 0.60558 0.0
H324 H 0.29486 0.34393 0.66482 0.0
H325 H 0.27787 0.34571 0.62915 0.0
H326 H 0.26987 0.36008 0.78749 0.0
H327 H 0.28683 0.3586 0.82356 0.0
H328 H 0.2759 0.32001 0.87232 0.0
H329 H 0.29535 0.14839 0.80941 0.0
H330 H 0.31777 0.16245 0.85944 0.0
H331 H 0.30942 0.3096 0.79884 0.0
C332 C 0.25884 0.27919 0.69859 0.0
C333 C 0.25013 0.24368 0.69151 0.0
C334 C 0.25488 0.19732 0.71433 0.0
C335 C 0.26799 0.18644 0.74298 0.0
C336 C 0.27627 0.22224 0.74879 0.0
C337 C 0.27187 0.26772 0.72761 0.0
C338 C 0.2827 0.29988 0.74134 0.0
C339 C 0.28639 0.32262 0.65508 0.0
C340 C 0.27858 0.33682 0.81029 0.0
C341 C 0.29385 0.26543 0.77415 0.0
C342 C 0.28997 0.22079 0.77744 0.0
C343 C 0.29851 0.18318 0.80666 0.0
C344 C 0.31129 0.19149 0.83432 0.0
C345 C 0.31546 0.23711 0.83289 0.0
C346 C 0.30657 0.27436 0.80144 0.0
H347 H 0.75218 0.25836 0.82536 0.0
H348 H 0.75301 0.38061 0.98781 0.0
H349 H 0.77655 0.3848 0.9518 0.0
H350 H 0.78535 0.20715 0.87959 0.0
H351 H 0.78886 0.18612 0.77117 0.0
H352 H 0.77205 0.19203 0.81036 0.0
H353 H 0.76489 0.2449 0.6783 0.0
H354 H 0.78167 0.23906 0.63864 0.0
H355 H 0.77333 0.29613 0.6571 0.0
H356 H 0.79999 0.376 0.89926 0.0
H357 H 0.82167 0.35608 0.8301 0.0
H358 H 0.80578 0.2406 0.69813 0.0
C359 C 0.75734 0.2858 0.8538 0.0
C360 C 0.75067 0.31936 0.90907 0.0
C361 C 0.7578 0.35495 0.94424 0.0
C362 C 0.77122 0.35745 0.92468 0.0
C363 C 0.77746 0.32409 0.86978 0.0
C364 C 0.77079 0.28897 0.83459 0.0
C365 C 0.77984 0.2581 0.77607 0.0
C366 C 0.78163 0.20788 0.81143 0.0
C367 C 0.77462 0.25966 0.68195 0.0
C368 C 0.7926 0.28154 0.78363 0.0
C369 C 0.79101 0.31936 0.83846 0.0
C370 C 0.80135 0.34658 0.85582 0.0
C371 C 0.81362 0.33513 0.81561 0.0
C372 C 0.81551 0.29692 0.7579 0.0
C373 C 0.8048 0.26971 0.74247 0.0
H374 H 0.30556 0.73525 0.1776 0.0
H375 H 0.32482 0.81898 0.36481 0.0
H376 H 0.30362 0.83489 0.44213 0.0
H377 H 0.2747 0.8052 0.1674 0.0
H378 H 0.26475 0.75671 0.16022 0.0
H379 H 0.28148 0.75121 0.1197 0.0
H380 H 0.28713 0.67899 0.21872 0.0
H381 H 0.2704 0.6842 0.25949 0.0
H382 H 0.28417 0.68349 0.33409 0.0
H383 H 0.28031 0.8433 0.4977 0.0
H384 H 0.25648 0.84295 0.529 0.0
H385 H 0.25218 0.7522 0.30867 0.0
C386 C 0.3054 0.75642 0.23553 0.0
C387 C 0.31695 0.77601 0.26459 0.0
C388 C 0.31614 0.80416 0.34003 0.0
C389 C 0.30414 0.81314 0.38492 0.0
C390 C 0.29299 0.79353 0.3542 0.0
C391 C 0.2935 0.76557 0.2815 0.0
C392 C 0.28 0.74913 0.26188 0.0
C393 C 0.27493 0.76662 0.17197 0.0
C394 C 0.28046 0.69578 0.26898 0.0
C395 C 0.27179 0.77258 0.33447 0.0
C396 C 0.27951 0.79798 0.38692 0.0
C397 C 0.27418 0.82348 0.45716 0.0
C398 C 0.2606 0.82327 0.47409 0.0
C399 C 0.25241 0.79775 0.42114 0.0
C400 C 0.25817 0.77173 0.35081 0.0
H401 H 0.75525 0.81376 0.19308 0.0
H402 H 0.74785 0.66872 0.22564 0.0
H403 H 0.77079 0.65031 0.27777 0.0
H404 H 0.78883 0.79362 0.12008 0.0
H405 H 0.79449 0.84209 0.17834 0.0
H406 H 0.7775 0.84406 0.14264 0.0
H407 H 0.7695 0.85947 0.30066 0.0
H408 H 0.78646 0.85782 0.33676 0.0
H409 H 0.77546 0.81978 0.38628 0.0
H410 H 0.79459 0.64745 0.32635 0.0
H411 H 0.81718 0.66088 0.37356 0.0
H412 H 0.80914 0.80797 0.31148 0.0
C413 C 0.75837 0.77819 0.21206 0.0
C414 C 0.74967 0.74267 0.20466 0.0
C415 C 0.75432 0.69647 0.22916 0.0
C416 C 0.76734 0.68567 0.25933 0.0
C417 C 0.77565 0.72141 0.26509 0.0
C418 C 0.77133 0.76679 0.24263 0.0
C419 C 0.78223 0.79878 0.25573 0.0
C420 C 0.78598 0.82093 0.16903 0.0
C421 C 0.77817 0.83617 0.32392 0.0
C422 C 0.79334 0.7643 0.28926 0.0
C423 C 0.78934 0.71983 0.29374 0.0
C424 C 0.79784 0.68211 0.32284 0.0
C425 C 0.81072 0.69006 0.34886 0.0
C426 C 0.81504 0.73544 0.34588 0.0
C427 C 0.80617 0.77291 0.31514 0.0
H428 H 0.13933 0.92771 0.60686 0.0
H429 H 0.16844 0.87471 0.41758 0.0
H430 H 0.17503 0.95395 0.39417 0.0
H431 H 0.12951 0.03795 0.49609 0.0
H432 H 0.12788 0.07203 0.59398 0.0
H433 H 0.12518 1.01112 0.59707 0.0
H434 H 0.14287 0.99667 0.71826 0.0
H435 H 0.14556 0.05758 0.71596 0.0
H436 H 0.1593 1.01402 0.70062 0.0
H437 H 0.17824 0.03743 0.38721 0.0
H438 H 0.17951 0.12117 0.40434 0.0
H439 H 0.14884 0.1257 0.60185 0.0
C440 C 0.14712 0.933 0.56084 0.0
C441 C 0.15366 0.89461 0.51548 0.0
C442 C 0.16371 0.90298 0.45546 0.0
C443 C 0.16736 0.94813 0.44077 0.0
C444 C 0.16088 0.98507 0.4867 0.0
C445 C 0.15105 0.9783 0.54614 0.0
C446 C 0.14604 0.02468 0.58792 0.0
C447 C 0.13127 0.03718 0.56755 0.0
C448 C 0.1486 0.02314 0.68656 0.0
C449 C 0.15461 0.05838 0.5425 0.0
C450 C 0.16296 0.03428 0.48385 0.0
C451 C 0.17181 0.05659 0.43327 0.0
C452 C 0.17244 0.10448 0.4437 0.0
C453 C 0.16437 0.13049 0.50484 0.0
C454 C 0.15514 0.10707 0.55437 0.0
H455 H 0.89733 0.42703 0.42268 0.0
H456 H 0.90241 0.40332 0.69997 0.0
H457 H 0.90577 0.48657 0.72 0.0
H458 H 0.92326 0.50636 0.40593 0.0
H459 H 0.91465 0.5422 0.32327 0.0
H460 H 0.91218 0.48125 0.33147 0.0
H461 H 0.88687 0.5025 0.34491 0.0
H462 H 0.88926 0.56352 0.33736 0.0
H463 H 0.88061 0.54177 0.42915 0.0
H464 H 0.90676 0.57355 0.7107 0.0
H465 H 0.90895 0.65581 0.67072 0.0
H466 H 0.90604 0.62153 0.39771 0.0
C467 C 0.89918 0.43956 0.48744 0.0
C468 C 0.8995 0.40918 0.56005 0.0
C469 C 0.90214 0.42624 0.64372 0.0
C470 C 0.90399 0.47343 0.65567 0.0
C471 C 0.9035 0.50273 0.58289 0.0
C472 C 0.90148 0.48628 0.50011 0.0
C473 C 0.90216 0.52458 0.43245 0.0
C474 C 0.91375 0.51289 0.36958 0.0
C475 C 0.88893 0.53361 0.38307 0.0
C476 C 0.90464 0.56532 0.4902 0.0
C477 C 0.90515 0.5521 0.57691 0.0
C478 C 0.9066 0.58413 0.64298 0.0
C479 C 0.90777 0.63072 0.61979 0.0
C480 C 0.90779 0.64457 0.53132 0.0
C481 C 0.90622 0.61148 0.46577 0.0
H482 H 0.89656 0.92676 0.65715 0.0
H483 H 0.905 0.90279 0.38396 0.0
H484 H 0.90867 0.98586 0.36463 0.0
H485 H 0.8799 0.04113 0.63846 0.0
H486 H 0.88729 0.06334 0.7345 0.0
H487 H 0.88511 1.00222 0.72695 0.0
H488 H 0.91017 0.98155 0.75567 0.0
H489 H 0.91242 0.04262 0.76398 0.0
H490 H 0.92211 1.00675 0.68749 0.0
H491 H 0.90962 0.07261 0.37274 0.0
H492 H 0.9111 0.15513 0.4118 0.0
H493 H 0.90456 0.12181 0.68271 0.0
C494 C 0.89922 0.93918 0.59346 0.0
C495 C 0.9004 0.90872 0.52175 0.0
C496 C 0.90407 0.9257 0.43959 0.0
C497 C 0.90611 0.97282 0.42797 0.0
C498 C 0.90474 1.0022 0.4997 0.0
C499 C 0.90167 0.9859 0.5813 0.0
C500 C 0.90142 0.02443 0.64824 0.0
C501 C 0.8876 0.03329 0.68944 0.0
C502 C 0.91217 1.01316 0.71796 0.0
C503 C 0.90457 0.06512 0.59124 0.0
C504 C 0.90625 0.05161 0.50552 0.0
C505 C 0.90853 0.08344 0.4398 0.0
C506 C 0.90929 0.13017 0.46242 0.0
C507 C 0.90805 0.14439 0.55012 0.0
C508 C 0.90568 0.11148 0.61533 0.0
H509 H 0.1478 0.63181 0.52847 0.0
H510 H 0.1899 0.61083 0.47225 0.0
H511 H 0.18874 0.5265 0.46874 0.0
H512 H 0.14691 0.53082 0.66885 0.0
H513 H 0.13111 0.51499 0.6308 0.0
H514 H 0.13476 0.57495 0.62643 0.0
H515 H 0.12968 0.57793 0.46149 0.0
H516 H 0.12597 0.51801 0.46533 0.0
H517 H 0.13829 0.53567 0.3908 0.0
H518 H 0.18389 0.44455 0.47637 0.0
H519 H 0.17509 0.3681 0.48941 0.0
H520 H 0.13586 0.43633 0.53858 0.0
C521 C 0.1567 0.60938 0.51462 0.0
C522 C 0.16897 0.62848 0.50059 0.0
C523 C 0.18039 0.5976 0.48334 0.0
C524 C 0.17985 0.54932 0.48116 0.0
C525 C 0.16779 0.53146 0.49618 0.0
C526 C 0.15636 0.5602 0.5121 0.0
C527 C 0.14479 0.53062 0.52692 0.0
C528 C 0.13905 0.53831 0.61872 0.0
C529 C 0.13404 0.54119 0.45696 0.0
C530 C 0.15161 0.48125 0.51732 0.0
C531 C 0.1649 0.48302 0.49975 0.0
C532 C 0.17347 0.44267 0.48976 0.0
C533 C 0.16839 0.39923 0.49768 0.0
C534 C 0.15481 0.39587 0.51518 0.0
C535 C 0.14629 0.43766 0.52482 0.0
H536 H 0.67823 0.60786 0.98295 0.0
H537 H 0.64161 0.66204 0.10632 0.0
H538 H 0.63456 0.5821 0.1147 0.0
H539 H 0.66485 0.51976 0.85479 0.0
H540 H 0.67897 0.47755 0.86974 0.0
H541 H 0.68106 0.53885 0.87326 0.0
H542 H 0.69185 0.5279 1.02582 0.0
H543 H 0.68976 0.46656 1.02278 0.0
H544 H 0.68301 0.50147 0.11182 0.0
H545 H 0.63117 0.49608 0.10417 0.0
H546 H 0.63209 0.41088 0.08173 0.0
H547 H 0.67139 0.41166 0.97195 0.0
C548 C 0.66872 0.6029 1.01181 0.0
C549 C 0.66041 0.64133 0.04361 0.0
C550 C 0.6481 0.63326 0.08131 0.0
C551 C 0.64403 0.58792 0.08637 0.0
C552 C 0.65245 0.5508 0.05439 0.0
C553 C 0.6646 0.55777 1.01844 0.0
C554 C 0.67186 0.51187 0.98969 0.0
C555 C 0.67433 0.51204 0.89101 0.0
C556 C 0.68489 0.50134 0.04058 0.0
C557 C 0.66186 0.47795 1.01425 0.0
C558 C 0.65071 0.5012 0.05113 0.0
C559 C 0.63991 0.4776 0.07618 0.0
C560 C 0.64051 0.42922 0.06315 0.0
C561 C 0.65187 0.4046 1.02635 0.0
C562 C 0.6627 0.42936 1.00192 0.0
H563 H 0.3962 0.91939 0.91746 0.0
H564 H 0.40301 0.8967 0.19364 0.0
H565 H 0.40626 0.98016 0.21131 0.0
H566 H 0.42176 0.99928 0.89246 0.0
H567 H 0.41261 0.03473 0.81155 0.0
H568 H 0.41029 0.97373 0.82145 0.0
H569 H 0.38506 0.99459 0.84129 0.0
H570 H 0.38732 0.05566 0.8321 0.0
H571 H 0.37927 0.034 0.92649 0.0
H572 H 0.40719 0.06691 0.20024 0.0
H573 H 0.40927 0.14891 0.15827 0.0
H574 H 0.40449 0.1141 0.88688 0.0
C575 C 0.39838 0.93221 0.98149 0.0
C576 C 0.39923 0.90206 0.05449 0.0
C577 C 0.40232 0.91947 0.13711 0.0
C578 C 0.40411 0.96678 0.14775 0.0
C579 C 0.40311 0.99584 0.07465 0.0
C580 C 0.40062 0.97908 0.99276 0.0
C581 C 0.40082 1.0172 0.9243 0.0
C582 C 0.41204 1.00553 0.85857 0.0
C583 C 0.38731 0.02586 0.87836 0.0
C584 C 0.4036 0.05818 0.98067 0.0
C585 C 0.40465 0.0452 0.0674 0.0
C586 C 0.40657 0.07733 0.13247 0.0
C587 C 0.40767 0.12379 0.10816 0.0
C588 C 0.40711 0.13741 1.01953 0.0
C589 C 0.40505 0.10424 0.95502 0.0
H590 H 0.39907 0.41962 0.15213 0.0
H591 H 0.40682 0.3962 0.87792 0.0
H592 H 0.4103 0.47947 0.85849 0.0
H593 H 0.38204 0.53271 0.13555 0.0
H594 H 0.38954 0.55538 0.23077 0.0
H595 H 0.38766 0.49404 0.2235 0.0
H596 H 0.41286 0.47488 0.2494 0.0
H597 H 0.4148 0.53617 0.25756 0.0
H598 H 0.42447 0.50097 0.17998 0.0
H599 H 0.41086 0.56656 0.86671 0.0
H600 H 0.41195 0.64929 0.90594 0.0
H601 H 0.4063 0.61495 0.17737 0.0
C602 C 0.4016 0.43212 0.08824 0.0
C603 C 0.40259 0.40181 1.01629 0.0
C604 C 0.40604 0.41899 0.93378 0.0
C605 C 0.40796 0.46621 0.9221 0.0
C606 C 0.40671 0.49547 0.99407 0.0
C607 C 0.40392 0.47891 0.07597 0.0
C608 C 0.40363 0.51737 0.14299 0.0
C609 C 0.3899 0.52533 0.18569 0.0
C610 C 0.41459 0.50671 0.21152 0.0
C611 C 0.40642 0.55835 0.08572 0.0
C612 C 0.40797 0.54504 0.9998 0.0
C613 C 0.40988 0.57722 0.93392 0.0
C614 C 0.41041 0.62406 0.95662 0.0
C615 C 0.40931 0.63803 0.04451 0.0
C616 C 0.40731 0.6048 0.10982 0.0
H617 H 0.65066 0.1401 0.07776 0.0
H618 H 0.68878 0.12592 0.94812 0.0
H619 H 0.68774 0.04127 0.93814 0.0
H620 H 0.65652 0.0362 0.20696 0.0
H621 H 0.63983 0.01965 0.19998 0.0
H622 H 0.64282 0.08015 0.19172 0.0
H623 H 0.63062 0.08686 0.04348 0.0
H624 H 0.62749 0.02647 0.0516 0.0
H625 H 0.63583 0.04711 0.95752 0.0
H626 H 0.68336 0.9582 0.94605 0.0
H627 H 0.67563 0.88062 0.9706 0.0
H628 H 0.64053 0.94458 0.09932 0.0
C629 C 0.65863 0.11912 0.04589 0.0
C630 C 0.66977 0.13979 1.01289 0.0
C631 C 0.68014 0.11102 0.97352 0.0
C632 C 0.67965 0.06278 0.96751 0.0
C633 C 0.66874 0.04321 1.00185 0.0
C634 C 0.65838 0.07022 0.04026 0.0
C635 C 0.64814 0.03933 0.07516 0.0
C636 C 0.64675 0.04413 0.17435 0.0
C637 C 0.63473 0.05062 1.02918 0.0
C638 C 0.65445 0.99107 0.05061 0.0
C639 C 0.6663 0.99443 1.008 0.0
C640 C 0.67407 0.95509 0.97913 0.0
C641 C 0.66961 0.91107 0.99354 0.0
C642 C 0.6575 0.90633 0.03687 0.0
C643 C 0.64985 0.94703 0.06608 0.0
H644 H 0.17776 0.26811 0.23058 0.0
H645 H 0.13522 0.28401 0.27332 0.0
H646 H 0.13137 0.28614 0.11597 0.0
H647 H 0.17725 0.34312 1.03154 0.0
H648 H 0.19001 0.30636 0.97749 0.0
H649 H 0.18985 0.30967 0.09459 0.0
H650 H 0.18973 0.22009 0.10443 0.0
H651 H 0.1898 0.21653 0.98745 0.0
H652 H 0.17694 0.19224 0.04897 0.0
H653 H 0.1315 0.28104 0.95946 0.0
H654 H 0.13545 0.27251 0.804 0.0
H655 H 0.17804 0.26012 0.84974 0.0
C656 C 0.16768 0.27296 0.20636 0.0
C657 C 0.15677 0.27585 0.26453 0.0
C658 C 0.14372 0.2814 0.23042 0.0
C659 C 0.14142 0.2828 0.14092 0.0
C660 C 0.15225 0.27863 0.08539 0.0
C661 C 0.16514 0.27415 0.11584 0.0
C662 C 0.17481 0.26848 0.03971 0.0
C663 C 0.1835 0.30935 0.0356 0.0
C664 C 0.18333 0.22154 0.04551 0.0
C665 C 0.16525 0.26972 0.96262 0.0
C666 C 0.15232 0.27575 0.99173 0.0
C667 C 0.14157 0.27662 0.93553 0.0
C668 C 0.14398 0.27136 0.84679 0.0
C669 C 0.15709 0.26529 0.81356 0.0
C670 C 0.16791 0.26477 0.87267 0.0
H671 H 0.88489 0.27305 0.25286 0.0
H672 H 0.92746 0.26744 0.29461 0.0
H673 H 0.93108 0.26319 0.13735 0.0
H674 H 0.88618 0.19479 0.06343 0.0
H675 H 0.87286 0.22802 1.00629 0.0
H676 H 0.87325 0.22754 0.12358 0.0
H677 H 0.8721 0.31761 0.12378 0.0
H678 H 0.87171 0.31835 1.0066 0.0
H679 H 0.88427 0.3465 0.06382 0.0
H680 H 0.93061 0.26263 0.98052 0.0
H681 H 0.92617 0.26833 0.82454 0.0
H682 H 0.88378 0.27558 0.8732 0.0
C683 C 0.89495 0.27042 0.22858 0.0
C684 C 0.9059 0.27058 0.28626 0.0
C685 C 0.91891 0.26768 0.2521 0.0
C686 C 0.92109 0.26497 0.16268 0.0
C687 C 0.91018 0.26535 0.10767 0.0
C688 C 0.89735 0.26813 0.13843 0.0
C689 C 0.8875 0.27024 0.06298 0.0
C690 C 0.87947 0.2276 0.06416 0.0
C691 C 0.87836 0.3159 0.0644 0.0
C692 C 0.89688 0.26889 0.98558 0.0
C693 C 0.90989 0.26564 1.01406 0.0
C694 C 0.92049 0.26511 0.95715 0.0
C695 C 0.91781 0.26866 0.8684 0.0
C696 C 0.90461 0.27289 0.83637 0.0
C697 C 0.89396 0.27222 0.89577 0.0
H698 H 0.17923 0.76625 0.20735 0.0
H699 H 0.13707 0.76033 0.25325 0.0
H700 H 0.13286 0.76423 0.09705 0.0
H701 H 0.17542 0.8459 1.01882 0.0
H702 H 0.18904 0.81702 0.95891 0.0
H703 H 0.18922 0.81563 0.07621 0.0
H704 H 0.19231 0.72554 0.07416 0.0
H705 H 0.19215 0.72666 0.95693 0.0
H706 H 0.18062 0.69412 1.01524 0.0
H707 H 0.13253 0.76712 0.94057 0.0
H708 H 0.13617 0.76623 0.78389 0.0
H709 H 0.17856 0.76918 0.82583 0.0
C710 C 0.16913 0.76601 0.18421 0.0
C711 C 0.15851 0.76264 0.24344 0.0
C712 C 0.14545 0.76226 0.21019 0.0
C713 C 0.14289 0.76477 0.1211 0.0
C714 C 0.15346 0.76761 0.06473 0.0
C715 C 0.16634 0.7681 0.09397 0.0
C716 C 0.17575 0.7698 1.01673 0.0
C717 C 0.18277 0.81477 1.01775 0.0
C718 C 0.1858 0.72644 1.01572 0.0
C719 C 0.16606 0.76975 0.94045 0.0
C720 C 0.15328 0.76881 0.97095 0.0
C721 C 0.14248 0.7678 0.91556 0.0
C722 C 0.14471 0.76709 0.82617 0.0
C723 C 0.15768 0.76721 0.79166 0.0
C724 C 0.16853 0.76921 0.84991 0.0
H725 H 0.89101 0.73693 0.8258 0.0
H726 H 0.91877 0.84034 0.77922 0.0
H727 H 0.91947 0.85623 0.93589 0.0
H728 H 0.87304 0.79679 1.00531 0.0
H729 H 0.87144 0.74431 0.06726 0.0
H730 H 0.8723 0.7421 0.95021 0.0
H731 H 0.89229 0.6794 0.9602 0.0
H732 H 0.89143 0.68119 0.07717 0.0
H733 H 0.90667 0.69105 1.02282 0.0
H734 H 0.91762 0.86132 0.09352 0.0
H735 H 0.9151 0.85054 0.25025 0.0
H736 H 0.88913 0.74144 0.20424 0.0
C737 C 0.89716 0.76305 0.84887 0.0
C738 C 0.90484 0.78747 0.7902 0.0
C739 C 0.91289 0.82098 0.82278 0.0
C740 C 0.91328 0.83054 0.91168 0.0
C741 C 0.90564 0.80606 0.96771 0.0
C742 C 0.89784 0.7726 0.93836 0.0
C743 C 0.89128 0.7497 1.0145 0.0
C744 C 0.87611 0.75878 1.00896 0.0
C745 C 0.89568 0.69722 1.01892 0.0
C746 C 0.89675 0.77533 0.09088 0.0
C747 C 0.90485 0.80807 0.06132 0.0
C748 C 0.91133 0.83578 0.11765 0.0
C749 C 0.90984 0.8292 0.20688 0.0
C750 C 0.90198 0.79488 0.23995 0.0
C751 C 0.89511 0.76816 0.18098 0.0
H752 H 0.64514 0.73614 0.35346 0.0
H753 H 0.67421 0.83513 0.30718 0.0
H754 H 0.67547 0.84956 0.46375 0.0
H755 H 0.62834 0.79779 0.53697 0.0
H756 H 0.62616 0.74538 0.59776 0.0
H757 H 0.62665 0.74405 0.48055 0.0
H758 H 0.64581 0.67806 0.48673 0.0
H759 H 0.64534 0.67908 0.60385 0.0
H760 H 0.6606 0.6866 0.54768 0.0
H761 H 0.6744 0.85288 0.6211 0.0
H762 H 0.67214 0.8416 0.7779 0.0
H763 H 0.64415 0.73886 0.73261 0.0
C764 C 0.65167 0.76108 0.37657 0.0
C765 C 0.65959 0.78451 0.31784 0.0
C766 C 0.66812 0.81649 0.35059 0.0
C767 C 0.66885 0.82523 0.43955 0.0
C768 C 0.66104 0.80158 0.49565 0.0
C769 C 0.65267 0.7699 0.46629 0.0
C770 C 0.64599 0.74768 0.54272 0.0
C771 C 0.63089 0.75943 0.53927 0.0
C772 C 0.64966 0.69471 0.54538 0.0
C773 C 0.65208 0.77156 0.61906 0.0
C774 C 0.66061 0.80283 0.58932 0.0
C775 C 0.66776 0.82855 0.64543 0.0
C776 C 0.66642 0.82165 0.73468 0.0
C777 C 0.65803 0.78907 0.7679 0.0
C778 C 0.65056 0.76422 0.70918 0.0
H779 H 0.42285 0.77182 0.74767 0.0
H780 H 0.38045 0.78537 0.79673 0.0
H781 H 0.37602 0.79184 0.64058 0.0
H782 H 0.42139 0.8526 0.55696 0.0
H783 H 0.43403 0.81792 0.49767 0.0
H784 H 0.4343 0.81775 0.61497 0.0
H785 H 0.43441 0.72793 0.61598 0.0
H786 H 0.43408 0.72784 0.49881 0.0
H787 H 0.4215 0.70133 0.55923 0.0
H788 H 0.37554 0.7904 0.48328 0.0
H789 H 0.37918 0.78454 0.32596 0.0
H790 H 0.42178 0.77371 0.3683 0.0
C791 C 0.41268 0.77687 0.72516 0.0
C792 C 0.402 0.77765 0.7846 0.0
C793 C 0.38881 0.78394 0.7527 0.0
C794 C 0.38615 0.78795 0.66392 0.0
C795 C 0.39676 0.78584 0.60689 0.0
C796 C 0.40978 0.78078 0.63536 0.0
C797 C 0.41916 0.77771 0.55791 0.0
C798 C 0.42773 0.81896 0.55683 0.0
C799 C 0.4278 0.73091 0.55802 0.0
C800 C 0.40931 0.78091 0.48252 0.0
C801 C 0.39647 0.78572 0.51319 0.0
C802 C 0.38554 0.78715 0.45804 0.0
C803 C 0.38773 0.78351 0.36866 0.0
C804 C 0.40075 0.77873 0.33471 0.0
C805 C 0.41171 0.77786 0.39246 0.0
H806 H 0.64173 0.26878 0.34237 0.0
H807 H 0.68418 0.2472 0.29867 0.0
H808 H 0.68804 0.2402 0.45587 0.0
H809 H 0.64372 0.33964 0.53003 0.0
H810 H 0.63041 0.31648 0.5888 0.0
H811 H 0.63049 0.31579 0.47164 0.0
H812 H 0.62897 0.2267 0.4739 0.0
H813 H 0.62884 0.22713 0.59119 0.0
H814 H 0.6411 0.18957 0.53425 0.0
H815 H 0.68795 0.24096 0.61406 0.0
H816 H 0.6839 0.24868 0.77059 0.0
H817 H 0.64148 0.26962 0.72237 0.0
C818 C 0.65179 0.26178 0.36619 0.0
C819 C 0.66266 0.2586 0.30787 0.0
C820 C 0.6757 0.25015 0.34167 0.0
C821 C 0.67801 0.24588 0.43109 0.0
C822 C 0.6672 0.25014 0.48688 0.0
C823 C 0.65433 0.25778 0.45652 0.0
C824 C 0.64469 0.26336 0.53269 0.0
C825 C 0.63687 0.3117 0.53064 0.0
C826 C 0.63535 0.22436 0.53301 0.0
C827 C 0.65424 0.25843 0.60981 0.0
C828 C 0.66715 0.25057 0.58089 0.0
C829 C 0.67789 0.24676 0.63775 0.0
C830 C 0.67546 0.25148 0.72678 0.0
C831 C 0.66238 0.25987 0.75916 0.0
C832 C 0.65158 0.26276 0.69972 0.0
H833 H 0.41845 0.30718 0.31973 0.0
H834 H 0.39242 0.19859 0.27198 0.0
H835 H 0.38967 0.18781 0.42883 0.0
H836 H 0.43418 0.25167 0.52042 0.0
H837 H 0.43493 0.30657 0.57469 0.0
H838 H 0.43596 0.30379 0.45773 0.0
H839 H 0.41617 0.36715 0.44533 0.0
H840 H 0.41498 0.36973 0.56213 0.0
H841 H 0.40076 0.35797 0.49817 0.0
H842 H 0.38746 0.19349 0.58647 0.0
H843 H 0.38792 0.20959 0.74309 0.0
H844 H 0.416 0.31216 0.69819 0.0
C845 C 0.41246 0.28044 0.34273 0.0
C846 C 0.4056 0.25389 0.28341 0.0
C847 C 0.39768 0.21969 0.31593 0.0
C848 C 0.39605 0.21315 0.40511 0.0
C849 C 0.40248 0.24082 0.46189 0.0
C850 C 0.4107 0.27329 0.43281 0.0
C851 C 0.41602 0.29909 0.50959 0.0
C852 C 0.43117 0.28971 0.51598 0.0
C853 C 0.41172 0.3516 0.5034 0.0
C854 C 0.40924 0.27659 0.58526 0.0
C855 C 0.40146 0.2432 0.55546 0.0
C856 C 0.39366 0.21907 0.61104 0.0
C857 C 0.39391 0.22876 0.69998 0.0
C858 C 0.402 0.26203 0.73314 0.0
C859 C 0.4098 0.28624 0.67481 0.0
H860 H 0.05842 0.30361 0.53957 0.0
H861 H 0.06721 0.19135 0.35591 0.0
H862 H 0.04325 0.18789 0.33068 0.0
H863 H 1.03079 0.25718 0.63711 0.0
H864 H 1.02147 0.31294 0.65162 0.0
H865 H 0.0393 0.30888 0.65017 0.0
H866 H 0.03857 0.36991 0.52525 0.0
H867 H 1.02072 0.37419 0.52637 0.0
H868 H 1.02954 0.36003 0.42694 0.0
H869 H 1.01809 0.19355 0.33238 0.0
H870 H 0.994 0.20944 0.35806 0.0
H871 H 1.00183 0.31648 0.5433 0.0
C872 C 0.05535 0.27834 0.49378 0.0
C873 C 0.0648 0.24786 0.44953 0.0
C874 C 0.06025 0.21566 0.38959 0.0
C875 C 0.04663 0.2132 0.37523 0.0
C876 C 0.03761 0.24325 0.42103 0.0
C877 C 0.0418 0.27536 0.47879 0.0
C878 C 1.03013 0.30272 0.5219 0.0
C879 C 1.03044 0.29494 0.62106 0.0
C880 C 1.02972 0.3548 0.4987 0.0
C881 C 1.01871 0.28064 0.48019 0.0
C882 C 1.02321 0.24648 0.42201 0.0
C883 C 1.01447 0.22042 0.37747 0.0
C884 C 1.0008 0.22951 0.39286 0.0
C885 C 0.99596 0.26439 0.45232 0.0
C886 C 1.00513 0.29022 0.49613 0.0
H887 H 1.0031 0.75104 0.47889 0.0
H888 H 0.99559 0.78114 0.75149 0.0
H889 H 1.01973 0.77811 0.77836 0.0
H890 H 0.03235 0.67001 0.5119 0.0
H891 H 0.0406 0.6898 0.41669 0.0
H892 H 1.02277 0.69336 0.41997 0.0
H893 H 1.02169 0.78176 0.38573 0.0
H894 H 0.03952 0.77855 0.38296 0.0
H895 H 1.03043 0.81895 0.45483 0.0
H896 H 0.04486 0.77284 0.7746 0.0
H897 H 0.06879 0.7659 0.74056 0.0
H898 H 0.05973 0.73803 0.47084 0.0
C899 C 1.00651 0.75628 0.5446 0.0
C900 C 0.9974 0.76617 0.61318 0.0
C901 C 1.00234 0.77385 0.69774 0.0
C902 C 1.01604 0.772 0.71371 0.0
C903 C 1.02472 0.76249 0.64446 0.0
C904 C 1.02013 0.75468 0.5616 0.0
C905 C 1.0315 0.74601 0.49808 0.0
C906 C 0.03182 0.69687 0.45941 0.0
C907 C 1.03073 0.78356 0.42617 0.0
C908 C 0.04321 0.75029 0.558 0.0
C909 C 0.03911 0.75969 0.64222 0.0
C910 C 0.04817 0.76528 0.7089 0.0
C911 C 0.06176 0.76105 0.68899 0.0
C912 C 0.0662 0.75143 0.60301 0.0
C913 C 0.05671 0.74601 0.53699 0.0
H914 H 0.55924 0.77132 0.07445 0.0
H915 H 0.5669 0.77579 0.79718 0.0
H916 H 0.54283 0.77643 0.76791 0.0
H917 H 0.53315 0.69558 0.06396 0.0
H918 H 0.52368 0.72456 0.15023 0.0
H919 H 0.54145 0.72475 0.1486 0.0
H920 H 0.53908 0.81498 0.15356 0.0
H921 H 0.52131 0.81507 0.15553 0.0
H922 H 0.52909 0.84748 0.07256 0.0
H923 H 0.51754 0.77843 0.77024 0.0
H924 H 0.49363 0.77882 0.80376 0.0
H925 H 0.50292 0.77238 0.07948 0.0
C926 C 0.55586 0.77289 1.00749 0.0
C927 C 0.56497 0.77388 0.93805 0.0
C928 C 0.56013 0.77485 0.8514 0.0
C929 C 0.54647 0.77539 0.83421 0.0
C930 C 0.53777 0.77456 0.90435 0.0
C931 C 0.54232 0.77311 0.98927 0.0
C932 C 0.53101 0.77183 0.05324 0.0
C933 C 0.53241 0.72648 0.10717 0.0
C934 C 0.53007 0.81491 0.11217 0.0
C935 C 0.51935 0.77307 0.99127 0.0
C936 C 0.5234 0.77477 0.90563 0.0
C937 C 0.51429 0.77694 0.83712 0.0
C938 C 0.50072 0.77734 0.85675 0.0
C939 C 0.49638 0.77527 0.94417 0.0
C940 C 0.5059 0.77312 1.01191 0.0
H941 H 0.50311 0.28546 0.14658 0.0
H942 H 0.49594 0.16779 0.98406 0.0
H943 H 0.52 0.14612 0.97513 0.0
H944 H 0.53096 0.31753 1.03232 0.0
H945 H 0.53986 0.33389 0.12727 0.0
H946 H 0.52203 0.33778 0.12818 0.0
H947 H 0.52261 0.28485 0.26532 0.0
H948 H 0.54047 0.28099 0.26512 0.0
H949 H 0.53204 0.22865 0.26361 0.0
H950 H 0.54492 0.14128 0.97238 0.0
H951 H 0.5687 0.15227 0.97979 0.0
H952 H 0.55985 0.27182 0.14741 0.0
C953 C 0.50658 0.25486 0.10976 0.0
C954 C 0.49754 0.22818 0.06659 0.0
C955 C 0.50257 0.18833 1.01928 0.0
C956 C 0.51626 0.17587 1.01327 0.0
C957 C 0.52487 0.20338 0.05529 0.0
C958 C 0.52023 0.24183 0.10324 0.0
C959 C 0.53161 0.26656 0.13927 0.0
C960 C 0.53108 0.31691 0.10467 0.0
C961 C 0.53168 0.26516 0.23927 0.0
C962 C 0.54336 0.23662 0.10242 0.0
C963 C 0.53925 0.20025 0.05452 0.0
C964 C 0.54826 0.1692 1.01095 0.0
C965 C 0.56181 0.1756 1.0161 0.0
C966 C 0.56631 0.21274 0.06472 0.0
C967 C 0.55685 0.24324 0.10905 0.0
loop_
_geom_bond_atom_site_label_1
_geom_bond_atom_site_label_2
_geom_bond_distance
_geom_bond_site_symmetry_2
_ccdc_geom_bond_type
La0 C2 2.928 . S
La0 O20 2.521 . S
La0 O21 2.628 . S
La0 O22 2.554 . S
La0 O23 2.757 . S
La0 O24 2.470 . S
La0 O29 2.482 . S
La0 O31 2.503 . S
La1 C11 2.928 . S
La1 O23 2.482 . S
La1 O25 2.503 . S
La1 O26 2.521 . S
La1 O27 2.628 . S
La1 O28 2.554 . S
La1 O29 2.757 . S
La1 O30 2.470 . S
C2 La0 2.928 . S
C2 C3 1.503 . S
C2 O20 1.261 . S
C2 O21 1.243 . S
C3 C2 1.503 . S
C3 C4 1.394 . S
C3 C8 1.373 . S
C4 C3 1.394 . S
C4 C5 1.380 . S
C4 H32 0.930 . S
C5 C4 1.380 . S
C5 C6 1.376 . S
C5 H33 0.930 . S
C6 C5 1.376 . S
C6 C7 1.370 . S
C7 C6 1.370 . S
C7 C8 1.396 . S
C7 H34 0.929 . S
C8 C3 1.373 . S
C8 C7 1.396 . S
C8 H35 0.929 . S
C9 O22 1.240 . S
C9 O23 1.289 . S
C10 O24 1.258 . S
C10 O25 1.256 . S
C11 La1 2.928 . S
C11 C12 1.503 . S
C11 O26 1.261 . S
C11 O27 1.243 . S
C12 C11 1.503 . S
C12 C13 1.394 . S
C12 C17 1.373 . S
C13 C12 1.394 . S
C13 C14 1.380 . S
C13 H36 0.930 . S
C14 C13 1.380 . S
C14 C15 1.376 . S
C14 H37 0.930 . S
C15 C14 1.376 . S
C15 C16 1.370 . S
C16 C15 1.370 . S
C16 C17 1.396 . S
C16 H38 0.929 . S
C17 C12 1.373 . S
C17 C16 1.396 . S
C17 H39 0.929 . S
C18 O28 1.240 . S
C18 O29 1.289 . S
C19 O30 1.258 . S
C19 O31 1.256 . S
O20 La0 2.521 . S
O20 C2 1.261 . S
O21 La0 2.628 . S
O21 C2 1.243 . S
O22 La0 2.554 . S
O22 C9 1.240 . S
O23 La0 2.757 . S
O23 La1 2.482 . S
O23 C9 1.289 . S
O24 La0 2.470 . S
O24 C10 1.258 . S
O25 La1 2.503 . S
O25 C10 1.256 . S
O26 La1 2.521 . S
O26 C11 1.261 . S
O27 La1 2.628 . S
O27 C11 1.243 . S
O28 La1 2.554 . S
O28 C18 1.240 . S
O29 La0 2.482 . S
O29 La1 2.757 . S
O29 C18 1.289 . S
O30 La1 2.470 . S
O30 C19 1.258 . S
O31 La0 2.503 . S
O31 C19 1.256 . S
H32 C4 0.930 . S
H33 C5 0.930 . S
H34 C7 0.929 . S
H35 C8 0.929 . S
H36 C13 0.930 . S
H37 C14 0.930 . S
H38 C16 0.929 . S
H39 C17 0.929 . S
La40 C42 2.928 . S
La40 O60 2.521 . S
La40 O61 2.628 . S
La40 O62 2.554 . S
La40 O63 2.757 . S
La40 O64 2.470 . S
La40 O69 2.482 . S
La40 O71 2.503 . S
La41 C51 2.928 . S
La41 O63 2.482 . S
La41 O65 2.503 . S
La41 O66 2.521 . S
La41 O67 2.628 . S
La41 O68 2.554 . S
La41 O69 2.757 . S
La41 O70 2.470 . S
C42 La40 2.928 . S
C42 C43 1.503 . S
C42 O60 1.261 . S
C42 O61 1.243 . S
C43 C42 1.503 . S
C43 C44 1.394 . S
C43 C48 1.373 . S
C44 C43 1.394 . S
C44 C45 1.380 . S
C44 H72 0.930 . S
C45 C44 1.380 . S
C45 C46 1.376 . S
C45 H73 0.930 . S
C46 C45 1.376 . S
C46 C47 1.370 . S
C47 C46 1.370 . S
C47 C48 1.396 . S
C47 H74 0.929 . S
C48 C43 1.373 . S
C48 C47 1.396 . S
C48 H75 0.929 . S
C49 O62 1.240 . S
C49 O63 1.289 . S
C50 O64 1.258 . S
C50 O65 1.256 . S
C51 La41 2.928 . S
C51 C52 1.503 . S
C51 O66 1.261 . S
C51 O67 1.243 . S
C52 C51 1.503 . S
C52 C53 1.394 . S
C52 C57 1.373 . S
C53 C52 1.394 . S
C53 C54 1.380 . S
C53 H76 0.930 . S
C54 C53 1.380 . S
C54 C55 1.376 . S
C54 H77 0.930 . S
C55 C54 1.376 . S
C55 C56 1.370 . S
C56 C55 1.370 . S
C56 C57 1.396 . S
C56 H78 0.929 . S
C57 C52 1.373 . S
C57 C56 1.396 . S
C57 H79 0.929 . S
C58 O68 1.240 . S
C58 O69 1.289 . S
C59 O70 1.258 . S
C59 O71 1.256 . S
O60 La40 2.521 . S
O60 C42 1.261 . S
O61 La40 2.628 . S
O61 C42 1.243 . S
O62 La40 2.554 . S
O62 C49 1.240 . S
O63 La40 2.757 . S
O63 La41 2.482 . S
O63 C49 1.289 . S
O64 La40 2.470 . S
O64 C50 1.258 . S
O65 La41 2.503 . S
O65 C50 1.256 . S
O66 La41 2.521 . S
O66 C51 1.261 . S
O67 La41 2.628 . S
O67 C51 1.243 . S
O68 La41 2.554 . S
O68 C58 1.240 . S
O69 La40 2.482 . S
O69 La41 2.757 . S
O69 C58 1.289 . S
O70 La41 2.470 . S
O70 C59 1.258 . S
O71 La40 2.503 . S
O71 C59 1.256 . S
H72 C44 0.930 . S
H73 C45 0.930 . S
H74 C47 0.929 . S
H75 C48 0.929 . S
H76 C53 0.930 . S
H77 C54 0.930 . S
H78 C56 0.929 . S
H79 C57 0.929 . S
La80 C82 2.928 . S
La80 O100 2.521 . S
La80 O101 2.628 . S
La80 O102 2.554 . S
La80 O103 2.757 . S
La80 O104 2.470 . S
La80 O109 2.482 . S
La80 O111 2.503 . S
La81 C91 2.928 . S
La81 O103 2.482 . S
La81 O105 2.503 . S
La81 O106 2.521 . S
La81 O107 2.628 . S
La81 O108 2.554 . S
La81 O109 2.757 . S
La81 O110 2.470 . S
C82 La80 2.928 . S
C82 C83 1.503 . S
C82 O100 1.261 . S
C82 O101 1.243 . S
C83 C82 1.503 . S
C83 C84 1.394 . S
C83 C88 1.373 . S
C84 C83 1.394 . S
C84 C85 1.380 . S
C84 H112 0.930 . S
C85 C84 1.380 . S
C85 C86 1.376 . S
C85 H113 0.930 . S
C86 C85 1.376 . S
C86 C87 1.370 . S
C87 C86 1.370 . S
C87 C88 1.396 . S
C87 H114 0.929 . S
C88 C83 1.373 . S
C88 C87 1.396 . S
C88 H115 0.929 . S
C89 O102 1.240 . S
C89 O103 1.289 . S
C90 O104 1.258 . S
C90 O105 1.256 . S
C91 La81 2.928 . S
C91 C92 1.503 . S
C91 O106 1.261 . S
C91 O107 1.243 . S
C92 C91 1.503 . S
C92 C93 1.394 . S
C92 C97 1.373 . S
C93 C92 1.394 . S
C93 C94 1.380 . S
C93 H116 0.930 . S
C94 C93 1.380 . S
C94 C95 1.376 . S
C94 H117 0.930 . S
C95 C94 1.376 . S
C95 C96 1.370 . S
C96 C95 1.370 . S
C96 C97 1.396 . S
C96 H118 0.929 . S
C97 C92 1.373 . S
C97 C96 1.396 . S
C97 H119 0.929 . S
C98 O108 1.240 . S
C98 O109 1.289 . S
C99 O110 1.258 . S
C99 O111 1.256 . S
O100 La80 2.521 . S
O100 C82 1.261 . S
O101 La80 2.628 . S
O101 C82 1.243 . S
O102 La80 2.554 . S
O102 C89 1.240 . S
O103 La80 2.757 . S
O103 La81 2.482 . S
O103 C89 1.289 . S
O104 La80 2.470 . S
O104 C90 1.258 . S
O105 La81 2.503 . S
O105 C90 1.256 . S
O106 La81 2.521 . S
O106 C91 1.261 . S
O107 La81 2.628 . S
O107 C91 1.243 . S
O108 La81 2.554 . S
O108 C98 1.240 . S
O109 La80 2.482 . S
O109 La81 2.757 . S
O109 C98 1.289 . S
O110 La81 2.470 . S
O110 C99 1.258 . S
O111 La80 2.503 . S
O111 C99 1.256 . S
H112 C84 0.930 . S
H113 C85 0.930 . S
H114 C87 0.929 . S
H115 C88 0.929 . S
H116 C93 0.930 . S
H117 C94 0.930 . S
H118 C96 0.929 . S
H119 C97 0.929 . S
La120 C122 2.928 . S
La120 O140 2.521 . S
La120 O141 2.628 . S
La120 O142 2.554 . S
La120 O143 2.757 . S
La120 O144 2.470 . S
La120 O149 2.482 . S
La120 O151 2.503 . S
La121 C131 2.928 . S
La121 O143 2.482 . S
La121 O145 2.503 . S
La121 O146 2.521 . S
La121 O147 2.628 . S
La121 O148 2.554 . S
La121 O149 2.757 . S
La121 O150 2.470 . S
C122 La120 2.928 . S
C122 C123 1.503 . S
C122 O140 1.261 . S
C122 O141 1.243 . S
C123 C122 1.503 . S
C123 C124 1.394 . S
C123 C128 1.373 . S
C124 C123 1.394 . S
C124 C125 1.380 . S
C124 H152 0.930 . S
C125 C124 1.380 . S
C125 C126 1.376 . S
C125 H153 0.930 . S
C126 C125 1.376 . S
C126 C127 1.370 . S
C127 C126 1.370 . S
C127 C128 1.396 . S
C127 H154 0.929 . S
C128 C123 1.373 . S
C128 C127 1.396 . S
C128 H155 0.929 . S
C129 O142 1.240 . S
C129 O143 1.289 . S
C130 O144 1.258 . S
C130 O145 1.256 . S
C131 La121 2.928 . S
C131 C132 1.503 . S
C131 O146 1.261 . S
C131 O147 1.243 . S
C132 C131 1.503 . S
C132 C133 1.394 . S
C132 C137 1.373 . S
C133 C132 1.394 . S
C133 C134 1.380 . S
C133 H156 0.930 . S
C134 C133 1.380 . S
C134 C135 1.376 . S
C134 H157 0.930 . S
C135 C134 1.376 . S
C135 C136 1.370 . S
C136 C135 1.370 . S
C136 C137 1.396 . S
C136 H158 0.929 . S
C137 C132 1.373 . S
C137 C136 1.396 . S
C137 H159 0.929 . S
C138 O148 1.240 . S
C138 O149 1.289 . S
C139 O150 1.258 . S
C139 O151 1.256 . S
O140 La120 2.521 . S
O140 C122 1.261 . S
O141 La120 2.628 . S
O141 C122 1.243 . S
O142 La120 2.554 . S
O142 C129 1.240 . S
O143 La120 2.757 . S
O143 La121 2.482 . S
O143 C129 1.289 . S
O144 La120 2.470 . S
O144 C130 1.258 . S
O145 La121 2.503 . S
O145 C130 1.256 . S
O146 La121 2.521 . S
O146 C131 1.261 . S
O147 La121 2.628 . S
O147 C131 1.243 . S
O148 La121 2.554 . S
O148 C138 1.240 . S
O149 La120 2.482 . S
O149 La121 2.757 . S
O149 C138 1.289 . S
O150 La121 2.470 . S
O150 C139 1.258 . S
O151 La120 2.503 . S
O151 C139 1.256 . S
H152 C124 0.930 . S
H153 C125 0.930 . S
H154 C127 0.929 . S
H155 C128 0.929 . S
H156 C133 0.930 . S
H157 C134 0.930 . S
H158 C136 0.929 . S
H159 C137 0.929 . S
La160 C162 2.928 1_556 S
La160 O180 2.521 1_556 S
La160 O181 2.628 1_556 S
La160 O182 2.554 . S
La160 O183 2.757 . S
La160 O184 2.470 1_556 S
La160 O189 2.482 1_556 S
La160 O191 2.503 . S
La161 C171 2.928 1_554 S
La161 O183 2.482 1_554 S
La161 O185 2.503 . S
La161 O186 2.521 1_554 S
La161 O187 2.628 1_554 S
La161 O188 2.554 . S
La161 O189 2.757 . S
La161 O190 2.470 1_554 S
C162 La160 2.928 1_554 S
C162 C163 1.503 . S
C162 O180 1.261 . S
C162 O181 1.243 . S
C163 C162 1.503 . S
C163 C164 1.394 . S
C163 C168 1.373 . S
C164 C163 1.394 . S
C164 C165 1.380 . S
C164 H192 0.930 . S
C165 C164 1.380 . S
C165 C166 1.376 . S
C165 H193 0.930 . S
C166 C165 1.376 . S
C166 C167 1.370 . S
C167 C166 1.370 . S
C167 C168 1.396 . S
C167 H194 0.929 . S
C168 C163 1.373 . S
C168 C167 1.396 . S
C168 H195 0.929 . S
C169 O182 1.240 . S
C169 O183 1.289 . S
C170 O184 1.258 . S
C170 O185 1.256 . S
C171 La161 2.928 1_556 S
C171 C172 1.503 . S
C171 O186 1.261 . S
C171 O187 1.243 . S
C172 C171 1.503 . S
C172 C173 1.394 . S
C172 C177 1.373 . S
C173 C172 1.394 . S
C173 C174 1.380 . S
C173 H196 0.930 . S
C174 C173 1.380 . S
C174 C175 1.376 . S
C174 H197 0.930 . S
C175 C174 1.376 . S
C175 C176 1.370 . S
C176 C175 1.370 . S
C176 C177 1.396 . S
C176 H198 0.929 . S
C177 C172 1.373 . S
C177 C176 1.396 . S
C177 H199 0.929 . S
C178 O188 1.240 . S
C178 O189 1.289 . S
C179 O190 1.258 . S
C179 O191 1.256 . S
O180 La160 2.521 1_554 S
O180 C162 1.261 . S
O181 La160 2.628 1_554 S
O181 C162 1.243 . S
O182 La160 2.554 . S
O182 C169 1.240 . S
O183 La160 2.757 . S
O183 La161 2.482 1_556 S
O183 C169 1.289 . S
O184 La160 2.470 1_554 S
O184 C170 1.258 . S
O185 La161 2.503 . S
O185 C170 1.256 . S
O186 La161 2.521 1_556 S
O186 C171 1.261 . S
O187 La161 2.628 1_556 S
O187 C171 1.243 . S
O188 La161 2.554 . S
O188 C178 1.240 . S
O189 La160 2.482 1_554 S
O189 La161 2.757 . S
O189 C178 1.289 . S
O190 La161 2.470 1_556 S
O190 C179 1.258 . S
O191 La160 2.503 . S
O191 C179 1.256 . S
H192 C164 0.930 . S
H193 C165 0.930 . S
H194 C167 0.929 . S
H195 C168 0.929 . S
H196 C173 0.930 . S
H197 C174 0.930 . S
H198 C176 0.929 . S
H199 C177 0.929 . S
La200 C202 2.928 1_556 S
La200 O220 2.521 1_556 S
La200 O221 2.628 1_556 S
La200 O222 2.554 . S
La200 O223 2.757 . S
La200 O224 2.470 1_556 S
La200 O229 2.482 1_556 S
La200 O231 2.503 . S
La201 C211 2.928 1_554 S
La201 O223 2.482 1_554 S
La201 O225 2.503 . S
La201 O226 2.521 1_554 S
La201 O227 2.628 1_554 S
La201 O228 2.554 . S
La201 O229 2.757 . S
La201 O230 2.470 1_554 S
C202 La200 2.928 1_554 S
C202 C203 1.503 . S
C202 O220 1.261 . S
C202 O221 1.243 . S
C203 C202 1.503 . S
C203 C204 1.394 . S
C203 C208 1.373 . S
C204 C203 1.394 . S
C204 C205 1.380 . S
C204 H232 0.930 . S
C205 C204 1.380 . S
C205 C206 1.376 . S
C205 H233 0.930 . S
C206 C205 1.376 . S
C206 C207 1.370 . S
C207 C206 1.370 . S
C207 C208 1.396 . S
C207 H234 0.929 . S
C208 C203 1.373 . S
C208 C207 1.396 . S
C208 H235 0.929 . S
C209 O222 1.240 . S
C209 O223 1.289 . S
C210 O224 1.258 . S
C210 O225 1.256 . S
C211 La201 2.928 1_556 S
C211 C212 1.503 . S
C211 O226 1.261 . S
C211 O227 1.243 . S
C212 C211 1.503 . S
C212 C213 1.394 . S
C212 C217 1.373 . S
C213 C212 1.394 . S
C213 C214 1.380 . S
C213 H236 0.930 . S
C214 C213 1.380 . S
C214 C215 1.376 . S
C214 H237 0.930 . S
C215 C214 1.376 . S
C215 C216 1.370 . S
C216 C215 1.370 . S
C216 C217 1.396 . S
C216 H238 0.929 . S
C217 C212 1.373 . S
C217 C216 1.396 . S
C217 H239 0.929 . S
C218 O228 1.240 . S
C218 O229 1.289 . S
C219 O230 1.258 . S
C219 O231 1.256 . S
O220 La200 2.521 1_554 S
O220 C202 1.261 . S
O221 La200 2.628 1_554 S
O221 C202 1.243 . S
O222 La200 2.554 . S
O222 C209 1.240 . S
O223 La200 2.757 . S
O223 La201 2.482 1_556 S
O223 C209 1.289 . S
O224 La200 2.470 1_554 S
O224 C210 1.258 . S
O225 La201 2.503 . S
O225 C210 1.256 . S
O226 La201 2.521 1_556 S
O226 C211 1.261 . S
O227 La201 2.628 1_556 S
O227 C211 1.243 . S
O228 La201 2.554 . S
O228 C218 1.240 . S
O229 La200 2.482 1_554 S
O229 La201 2.757 . S
O229 C218 1.289 . S
O230 La201 2.470 1_556 S
O230 C219 1.258 . S
O231 La200 2.503 . S
O231 C219 1.256 . S
H232 C204 0.930 . S
H233 C205 0.930 . S
H234 C207 0.929 . S
H235 C208 0.929 . S
H236 C213 0.930 . S
H237 C214 0.930 . S
H238 C216 0.929 . S
H239 C217 0.929 . S
La240 C242 2.928 1_556 S
La240 O260 2.521 1_556 S
La240 O261 2.628 1_556 S
La240 O262 2.554 . S
La240 O263 2.757 . S
La240 O264 2.470 1_556 S
La240 O269 2.482 1_556 S
La240 O271 2.503 . S
La241 C251 2.928 1_554 S
La241 O263 2.482 1_554 S
La241 O265 2.503 . S
La241 O266 2.521 1_554 S
La241 O267 2.628 1_554 S
La241 O268 2.554 . S
La241 O269 2.757 . S
La241 O270 2.470 1_554 S
C242 La240 2.928 1_554 S
C242 C243 1.503 . S
C242 O260 1.261 . S
C242 O261 1.243 . S
C243 C242 1.503 . S
C243 C244 1.394 . S
C243 C248 1.373 . S
C244 C243 1.394 . S
C244 C245 1.380 . S
C244 H272 0.930 . S
C245 C244 1.380 . S
C245 C246 1.376 . S
C245 H273 0.930 . S
C246 C245 1.376 . S
C246 C247 1.370 . S
C247 C246 1.370 . S
C247 C248 1.396 . S
C247 H274 0.929 . S
C248 C243 1.373 . S
C248 C247 1.396 . S
C248 H275 0.929 . S
C249 O262 1.240 . S
C249 O263 1.289 . S
C250 O264 1.258 . S
C250 O265 1.256 . S
C251 La241 2.928 1_556 S
C251 C252 1.503 . S
C251 O266 1.261 . S
C251 O267 1.243 . S
C252 C251 1.503 . S
C252 C253 1.394 . S
C252 C257 1.373 . S
C253 C252 1.394 . S
C253 C254 1.380 . S
C253 H276 0.930 . S
C254 C253 1.380 . S
C254 C255 1.376 . S
C254 H277 0.930 . S
C255 C254 1.376 . S
C255 C256 1.370 . S
C256 C255 1.370 . S
C256 C257 1.396 . S
C256 H278 0.929 . S
C257 C252 1.373 . S
C257 C256 1.396 . S
C257 H279 0.929 . S
C258 O268 1.240 . S
C258 O269 1.289 . S
C259 O270 1.258 . S
C259 O271 1.256 . S
O260 La240 2.521 1_554 S
O260 C242 1.261 . S
O261 La240 2.628 1_554 S
O261 C242 1.243 . S
O262 La240 2.554 . S
O262 C249 1.240 . S
O263 La240 2.757 . S
O263 La241 2.482 1_556 S
O263 C249 1.289 . S
O264 La240 2.470 1_554 S
O264 C250 1.258 . S
O265 La241 2.503 . S
O265 C250 1.256 . S
O266 La241 2.521 1_556 S
O266 C251 1.261 . S
O267 La241 2.628 1_556 S
O267 C251 1.243 . S
O268 La241 2.554 . S
O268 C258 1.240 . S
O269 La240 2.482 1_554 S
O269 La241 2.757 . S
O269 C258 1.289 . S
O270 La241 2.470 1_556 S
O270 C259 1.258 . S
O271 La240 2.503 . S
O271 C259 1.256 . S
H272 C244 0.930 . S
H273 C245 0.930 . S
H274 C247 0.929 . S
H275 C248 0.929 . S
H276 C253 0.930 . S
H277 C254 0.930 . S
H278 C256 0.929 . S
H279 C257 0.929 . S
La280 C282 2.928 1_556 S
La280 O300 2.521 1_556 S
La280 O301 2.628 1_556 S
La280 O302 2.554 . S
La280 O303 2.757 . S
La280 O304 2.470 1_556 S
La280 O309 2.482 1_556 S
La280 O311 2.503 . S
La281 C291 2.928 1_554 S
La281 O303 2.482 1_554 S
La281 O305 2.503 . S
La281 O306 2.521 1_554 S
La281 O307 2.628 1_554 S
La281 O308 2.554 . S
La281 O309 2.757 . S
La281 O310 2.470 1_554 S
C282 La280 2.928 1_554 S
C282 C283 1.503 . S
C282 O300 1.261 . S
C282 O301 1.243 . S
C283 C282 1.503 . S
C283 C284 1.394 . S
C283 C288 1.373 . S
C284 C283 1.394 . S
C284 C285 1.380 . S
C284 H312 0.930 . S
C285 C284 1.380 . S
C285 C286 1.376 . S
C285 H313 0.930 . S
C286 C285 1.376 . S
C286 C287 1.370 . S
C287 C286 1.370 . S
C287 C288 1.396 . S
C287 H314 0.929 . S
C288 C283 1.373 . S
C288 C287 1.396 . S
C288 H315 0.929 . S
C289 O302 1.240 . S
C289 O303 1.289 . S
C290 O304 1.258 . S
C290 O305 1.256 . S
C291 La281 2.928 1_556 S
C291 C292 1.503 . S
C291 O306 1.261 . S
C291 O307 1.243 . S
C292 C291 1.503 . S
C292 C293 1.394 . S
C292 C297 1.373 . S
C293 C292 1.394 . S
C293 C294 1.380 . S
C293 H316 0.930 . S
C294 C293 1.380 . S
C294 C295 1.376 . S
C294 H317 0.930 . S
C295 C294 1.376 . S
C295 C296 1.370 . S
C296 C295 1.370 . S
C296 C297 1.396 . S
C296 H318 0.929 . S
C297 C292 1.373 . S
C297 C296 1.396 . S
C297 H319 0.929 . S
C298 O308 1.240 . S
C298 O309 1.289 . S
C299 O310 1.258 . S
C299 O311 1.256 . S
O300 La280 2.521 1_554 S
O300 C282 1.261 . S
O301 La280 2.628 1_554 S
O301 C282 1.243 . S
O302 La280 2.554 . S
O302 C289 1.240 . S
O303 La280 2.757 . S
O303 La281 2.482 1_556 S
O303 C289 1.289 . S
O304 La280 2.470 1_554 S
O304 C290 1.258 . S
O305 La281 2.503 . S
O305 C290 1.256 . S
O306 La281 2.521 1_556 S
O306 C291 1.261 . S
O307 La281 2.628 1_556 S
O307 C291 1.243 . S
O308 La281 2.554 . S
O308 C298 1.240 . S
O309 La280 2.482 1_554 S
O309 La281 2.757 . S
O309 C298 1.289 . S
O310 La281 2.470 1_556 S
O310 C299 1.258 . S
O311 La280 2.503 . S
O311 C299 1.256 . S
H312 C284 0.930 . S
H313 C285 0.930 . S
H314 C287 0.929 . S
H315 C288 0.929 . S
H316 C293 0.930 . S
H317 C294 0.930 . S
H318 C296 0.929 . S
H319 C297 0.929 . S
H320 C332 0.930 . S
H321 C334 0.930 . S
H322 C335 0.930 . S
H323 C339 0.959 . S
H324 C339 0.959 . S
H325 C339 0.961 . S
H326 C340 0.960 . S
H327 C340 0.961 . S
H328 C340 0.959 . S
H329 C343 0.929 . S
H330 C344 0.931 . S
H331 C346 0.930 . S
C332 H320 0.930 . S
C332 C333 1.399 . S
C332 C337 1.399 . S
C333 C332 1.399 . S
C333 C334 1.376 . S
C334 H321 0.930 . S
C334 C333 1.376 . S
C334 C335 1.388 . S
C335 H322 0.930 . S
C335 C334 1.388 . S
C335 C336 1.390 . S
C336 C335 1.390 . S
C336 C337 1.394 . S
C336 C342 1.465 . S
C337 C332 1.399 . S
C337 C336 1.394 . S
C337 C338 1.516 . S
C338 C337 1.516 . S
C338 C339 1.502 . S
C338 C340 1.561 . S
C338 C341 1.526 . S
C339 H323 0.959 . S
C339 H324 0.959 . S
C339 H325 0.961 . S
C339 C338 1.502 . S
C340 H326 0.960 . S
C340 H327 0.961 . S
C340 H328 0.959 . S
C340 C338 1.561 . S
C341 C338 1.526 . S
C341 C342 1.396 . S
C341 C346 1.390 . S
C342 C336 1.465 . S
C342 C341 1.396 . S
C342 C343 1.399 . S
C343 H329 0.929 . S
C343 C342 1.399 . S
C343 C344 1.385 . S
C344 H330 0.931 . S
C344 C343 1.385 . S
C344 C345 1.389 . S
C345 C344 1.389 . S
C345 C346 1.387 . S
C346 H331 0.930 . S
C346 C341 1.390 . S
C346 C345 1.387 . S
H347 C359 0.930 . S
H348 C361 0.930 . S
H349 C362 0.930 . S
H350 C366 0.959 . S
H351 C366 0.959 . S
H352 C366 0.961 . S
H353 C367 0.960 . S
H354 C367 0.961 . S
H355 C367 0.959 . S
H356 C370 0.929 . S
H357 C371 0.931 . S
H358 C373 0.930 . S
C359 H347 0.930 . S
C359 C360 1.399 . S
C359 C364 1.399 . S
C360 C359 1.399 . S
C360 C361 1.376 . S
C361 H348 0.930 . S
C361 C360 1.376 . S
C361 C362 1.388 . S
C362 H349 0.930 . S
C362 C361 1.388 . S
C362 C363 1.390 . S
C363 C362 1.390 . S
C363 C364 1.394 . S
C363 C369 1.465 . S
C364 C359 1.399 . S
C364 C363 1.394 . S
C364 C365 1.516 . S
C365 C364 1.516 . S
C365 C366 1.502 . S
C365 C367 1.561 . S
C365 C368 1.526 . S
C366 H350 0.959 . S
C366 H351 0.959 . S
C366 H352 0.961 . S
C366 C365 1.502 . S
C367 H353 0.960 . S
C367 H354 0.961 . S
C367 H355 0.959 . S
C367 C365 1.561 . S
C368 C365 1.526 . S
C368 C369 1.396 . S
C368 C373 1.390 . S
C369 C363 1.465 . S
C369 C368 1.396 . S
C369 C370 1.399 . S
C370 H356 0.929 . S
C370 C369 1.399 . S
C370 C371 1.385 . S
C371 H357 0.931 . S
C371 C370 1.385 . S
C371 C372 1.389 . S
C372 C371 1.389 . S
C372 C373 1.387 . S
C373 H358 0.930 . S
C373 C368 1.390 . S
C373 C372 1.387 . S
H374 C386 0.930 . S
H375 C388 0.930 . S
H376 C389 0.930 . S
H377 C393 0.959 . S
H378 C393 0.959 . S
H379 C393 0.961 . S
H380 C394 0.960 . S
H381 C394 0.961 . S
H382 C394 0.959 . S
H383 C397 0.929 . S
H384 C398 0.931 . S
H385 C400 0.930 . S
C386 H374 0.930 . S
C386 C387 1.399 . S
C386 C391 1.399 . S
C387 C386 1.399 . S
C387 C388 1.376 . S
C388 H375 0.930 . S
C388 C387 1.376 . S
C388 C389 1.388 . S
C389 H376 0.930 . S
C389 C388 1.388 . S
C389 C390 1.390 . S
C390 C389 1.390 . S
C390 C391 1.394 . S
C390 C396 1.465 . S
C391 C386 1.399 . S
C391 C390 1.394 . S
C391 C392 1.516 . S
C392 C391 1.516 . S
C392 C393 1.502 . S
C392 C394 1.561 . S
C392 C395 1.526 . S
C393 H377 0.959 . S
C393 H378 0.959 . S
C393 H379 0.961 . S
C393 C392 1.502 . S
C394 H380 0.960 . S
C394 H381 0.961 . S
C394 H382 0.959 . S
C394 C392 1.561 . S
C395 C392 1.526 . S
C395 C396 1.396 . S
C395 C400 1.390 . S
C396 C390 1.465 . S
C396 C395 1.396 . S
C396 C397 1.399 . S
C397 H383 0.929 . S
C397 C396 1.399 . S
C397 C398 1.385 . S
C398 H384 0.931 . S
C398 C397 1.385 . S
C398 C399 1.389 . S
C399 C398 1.389 . S
C399 C400 1.387 . S
C400 H385 0.930 . S
C400 C395 1.390 . S
C400 C399 1.387 . S
H401 C413 0.930 . S
H402 C415 0.930 . S
H403 C416 0.930 . S
H404 C420 0.959 . S
H405 C420 0.959 . S
H406 C420 0.961 . S
H407 C421 0.960 . S
H408 C421 0.961 . S
H409 C421 0.959 . S
H410 C424 0.929 . S
H411 C425 0.931 . S
H412 C427 0.930 . S
C413 H401 0.930 . S
C413 C414 1.399 . S
C413 C418 1.399 . S
C414 C413 1.399 . S
C414 C415 1.376 . S
C415 H402 0.930 . S
C415 C414 1.376 . S
C415 C416 1.388 . S
C416 H403 0.930 . S
C416 C415 1.388 . S
C416 C417 1.390 . S
C417 C416 1.390 . S
C417 C418 1.394 . S
C417 C423 1.465 . S
C418 C413 1.399 . S
C418 C417 1.394 . S
C418 C419 1.516 . S
C419 C418 1.516 . S
C419 C420 1.502 . S
C419 C421 1.561 . S
C419 C422 1.526 . S
C420 H404 0.959 . S
C420 H405 0.959 . S
C420 H406 0.961 . S
C420 C419 1.502 . S
C421 H407 0.960 . S
C421 H408 0.961 . S
C421 H409 0.959 . S
C421 C419 1.561 . S
C422 C419 1.526 . S
C422 C423 1.396 . S
C422 C427 1.390 . S
C423 C417 1.465 . S
C423 C422 1.396 . S
C423 C424 1.399 . S
C424 H410 0.929 . S
C424 C423 1.399 . S
C424 C425 1.385 . S
C425 H411 0.931 . S
C425 C424 1.385 . S
C425 C426 1.389 . S
C426 C425 1.389 . S
C426 C427 1.387 . S
C427 H412 0.930 . S
C427 C422 1.390 . S
C427 C426 1.387 . S
H428 C440 0.930 . S
H429 C442 0.930 . S
H430 C443 0.930 . S
H431 C447 0.959 . S
H432 C447 0.959 . S
H433 C447 0.966 . S
H434 C448 0.958 1_565 S
H435 C448 0.961 . S
H436 C448 0.959 . S
H437 C451 0.929 . S
H438 C452 0.931 . S
H439 C454 0.930 . S
C440 H428 0.930 . S
C440 C441 1.399 . S
C440 C445 1.399 . S
C441 C440 1.399 . S
C441 C442 1.376 . S
C442 H429 0.930 . S
C442 C441 1.376 . S
C442 C443 1.388 . S
C443 H430 0.930 . S
C443 C442 1.388 . S
C443 C444 1.390 . S
C444 C443 1.390 . S
C444 C445 1.394 . S
C444 C450 1.465 1_565 S
C445 C440 1.399 . S
C445 C444 1.394 . S
C445 C446 1.516 1_565 S
C446 C445 1.516 1_545 S
C446 C447 1.502 . S
C446 C448 1.561 . S
C446 C449 1.526 . S
C447 H431 0.959 . S
C447 H432 0.959 . S
C447 H433 0.966 . S
C447 C446 1.502 . S
C448 H434 0.958 1_545 S
C448 H435 0.961 . S
C448 H436 0.959 . S
C448 C446 1.561 . S
C449 C446 1.526 . S
C449 C450 1.396 . S
C449 C454 1.390 . S
C450 C444 1.465 1_545 S
C450 C449 1.396 . S
C450 C451 1.399 . S
C451 H437 0.929 . S
C451 C450 1.399 . S
C451 C452 1.385 . S
C452 H438 0.931 . S
C452 C451 1.385 . S
C452 C453 1.389 . S
C453 C452 1.389 . S
C453 C454 1.387 . S
C454 H439 0.930 . S
C454 C449 1.390 . S
C454 C453 1.387 . S
H455 C467 0.930 . S
H456 C469 0.930 . S
H457 C470 0.930 . S
H458 C474 0.959 . S
H459 C474 0.959 . S
H460 C474 0.961 . S
H461 C475 0.960 . S
H462 C475 0.961 . S
H463 C475 0.959 . S
H464 C478 0.929 . S
H465 C479 0.931 . S
H466 C481 0.930 . S
C467 H455 0.930 . S
C467 C468 1.399 . S
C467 C472 1.399 . S
C468 C467 1.399 . S
C468 C469 1.376 . S
C469 H456 0.930 . S
C469 C468 1.376 . S
C469 C470 1.388 . S
C470 H457 0.930 . S
C470 C469 1.388 . S
C470 C471 1.390 . S
C471 C470 1.390 . S
C471 C472 1.394 . S
C471 C477 1.465 . S
C472 C467 1.399 . S
C472 C471 1.394 . S
C472 C473 1.516 . S
C473 C472 1.516 . S
C473 C474 1.502 . S
C473 C475 1.561 . S
C473 C476 1.526 . S
C474 H458 0.959 . S
C474 H459 0.959 . S
C474 H460 0.961 . S
C474 C473 1.502 . S
C475 H461 0.960 . S
C475 H462 0.961 . S
C475 H463 0.959 . S
C475 C473 1.561 . S
C476 C473 1.526 . S
C476 C477 1.396 . S
C476 C481 1.390 . S
C477 C471 1.465 . S
C477 C476 1.396 . S
C477 C478 1.399 . S
C478 H464 0.929 . S
C478 C477 1.399 . S
C478 C479 1.385 . S
C479 H465 0.931 . S
C479 C478 1.385 . S
C479 C480 1.389 . S
C480 C479 1.389 . S
C480 C481 1.387 . S
C481 H466 0.930 . S
C481 C476 1.390 . S
C481 C480 1.387 . S
H482 C494 0.930 . S
H483 C496 0.930 . S
H484 C497 0.930 . S
H485 C501 0.959 . S
H486 C501 0.959 . S
H487 C501 0.961 . S
H488 C502 0.952 1_565 S
H489 C502 0.961 . S
H490 C502 0.959 . S
H491 C505 0.929 . S
H492 C506 0.931 . S
H493 C508 0.930 . S
C494 H482 0.930 . S
C494 C495 1.399 . S
C494 C499 1.399 . S
C495 C494 1.399 . S
C495 C496 1.376 . S
C496 H483 0.930 . S
C496 C495 1.376 . S
C496 C497 1.388 . S
C497 H484 0.930 . S
C497 C496 1.388 . S
C497 C498 1.390 . S
C498 C497 1.390 . S
C498 C499 1.394 . S
C498 C504 1.465 1_565 S
C499 C494 1.399 . S
C499 C498 1.394 . S
C499 C500 1.516 1_565 S
C500 C499 1.516 1_545 S
C500 C501 1.502 . S
C500 C502 1.561 . S
C500 C503 1.526 . S
C501 H485 0.959 . S
C501 H486 0.959 . S
C501 H487 0.961 . S
C501 C500 1.502 . S
C502 H488 0.952 1_545 S
C502 H489 0.961 . S
C502 H490 0.959 . S
C502 C500 1.561 . S
C503 C500 1.526 . S
C503 C504 1.396 . S
C503 C508 1.390 . S
C504 C498 1.465 1_545 S
C504 C503 1.396 . S
C504 C505 1.399 . S
C505 H491 0.929 . S
C505 C504 1.399 . S
C505 C506 1.385 . S
C506 H492 0.931 . S
C506 C505 1.385 . S
C506 C507 1.389 . S
C507 C506 1.389 . S
C507 C508 1.387 . S
C508 H493 0.930 . S
C508 C503 1.390 . S
C508 C507 1.387 . S
H509 C521 0.930 . S
H510 C523 0.930 . S
H511 C524 0.930 . S
H512 C528 0.959 . S
H513 C528 0.959 . S
H514 C528 0.961 . S
H515 C529 0.960 . S
H516 C529 0.961 . S
H517 C529 0.959 . S
H518 C532 0.929 . S
H519 C533 0.931 . S
H520 C535 0.930 . S
C521 H509 0.930 . S
C521 C522 1.399 . S
C521 C526 1.399 . S
C522 C521 1.399 . S
C522 C523 1.376 . S
C523 H510 0.930 . S
C523 C522 1.376 . S
C523 C524 1.388 . S
C524 H511 0.930 . S
C524 C523 1.388 . S
C524 C525 1.390 . S
C525 C524 1.390 . S
C525 C526 1.394 . S
C525 C531 1.465 . S
C526 C521 1.399 . S
C526 C525 1.394 . S
C526 C527 1.516 . S
C527 C526 1.516 . S
C527 C528 1.502 . S
C527 C529 1.561 . S
C527 C530 1.526 . S
C528 H512 0.959 . S
C528 H513 0.959 . S
C528 H514 0.961 . S
C528 C527 1.502 . S
C529 H515 0.960 . S
C529 H516 0.961 . S
C529 H517 0.959 . S
C529 C527 1.561 . S
C530 C527 1.526 . S
C530 C531 1.396 . S
C530 C535 1.390 . S
C531 C525 1.465 . S
C531 C530 1.396 . S
C531 C532 1.399 . S
C532 H518 0.929 . S
C532 C531 1.399 . S
C532 C533 1.385 . S
C533 H519 0.931 . S
C533 C532 1.385 . S
C533 C534 1.389 . S
C534 C533 1.389 . S
C534 C535 1.387 . S
C535 H520 0.930 . S
C535 C530 1.390 . S
C535 C534 1.387 . S
H536 C548 0.930 . S
H537 C550 0.930 . S
H538 C551 0.930 . S
H539 C555 0.959 . S
H540 C555 0.959 . S
H541 C555 0.961 . S
H542 C556 0.960 . S
H543 C556 0.961 . S
H544 C556 0.959 . S
H545 C559 0.929 . S
H546 C560 0.931 . S
H547 C562 0.930 . S
C548 H536 0.930 . S
C548 C549 1.399 1_554 S
C548 C553 1.399 . S
C549 C548 1.399 1_556 S
C549 C550 1.376 . S
C550 H537 0.930 . S
C550 C549 1.376 . S
C550 C551 1.388 . S
C551 H538 0.930 . S
C551 C550 1.388 . S
C551 C552 1.390 . S
C552 C551 1.390 . S
C552 C553 1.394 1_556 S
C552 C558 1.465 . S
C553 C548 1.399 . S
C553 C552 1.394 1_554 S
C553 C554 1.516 . S
C554 C553 1.516 . S
C554 C555 1.502 . S
C554 C556 1.561 . S
C554 C557 1.526 . S
C555 H539 0.959 . S
C555 H540 0.959 . S
C555 H541 0.961 . S
C555 C554 1.502 . S
C556 H542 0.960 . S
C556 H543 0.961 . S
C556 H544 0.959 . S
C556 C554 1.561 . S
C557 C554 1.526 . S
C557 C558 1.396 1_554 S
C557 C562 1.390 . S
C558 C552 1.465 . S
C558 C557 1.396 1_556 S
C558 C559 1.399 . S
C559 H545 0.929 . S
C559 C558 1.399 . S
C559 C560 1.385 . S
C560 H546 0.931 . S
C560 C559 1.385 . S
C560 C561 1.389 . S
C561 C560 1.389 . S
C561 C562 1.387 1_556 S
C562 H547 0.930 . S
C562 C557 1.390 . S
C562 C561 1.387 1_554 S
H563 C575 0.930 . S
H564 C577 0.930 . S
H565 C578 0.930 . S
H566 C582 0.959 . S
H567 C582 0.959 1_545 S
H568 C582 0.961 . S
H569 C583 0.960 1_565 S
H570 C583 0.961 . S
H571 C583 0.959 . S
H572 C586 0.929 . S
H573 C587 0.931 . S
H574 C589 0.930 . S
C575 H563 0.930 . S
C575 C576 1.394 1_556 S
C575 C580 1.399 . S
C576 C575 1.394 1_554 S
C576 C577 1.382 . S
C577 H564 0.930 . S
C577 C576 1.382 . S
C577 C578 1.388 . S
C578 H565 0.930 . S
C578 C577 1.388 . S
C578 C579 1.390 . S
C579 C578 1.390 . S
C579 C580 1.394 1_554 S
C579 C585 1.465 1_565 S
C580 C575 1.399 . S
C580 C579 1.394 1_556 S
C580 C581 1.516 . S
C581 C580 1.516 . S
C581 C582 1.502 . S
C581 C583 1.561 1_565 S
C581 C584 1.526 1_565 S
C582 H566 0.959 . S
C582 H567 0.959 1_565 S
C582 H568 0.961 . S
C582 C581 1.502 . S
C583 H569 0.960 1_545 S
C583 H570 0.961 . S
C583 H571 0.959 . S
C583 C581 1.561 1_545 S
C584 C581 1.526 1_545 S
C584 C585 1.396 1_556 S
C584 C589 1.390 . S
C585 C579 1.465 1_545 S
C585 C584 1.396 1_554 S
C585 C586 1.399 . S
C586 H572 0.929 . S
C586 C585 1.399 . S
C586 C587 1.385 . S
C587 H573 0.931 . S
C587 C586 1.385 . S
C587 C588 1.389 . S
C588 C587 1.389 . S
C588 C589 1.387 1_554 S
C589 H574 0.930 . S
C589 C584 1.390 . S
C589 C588 1.387 1_556 S
H590 C602 0.930 . S
H591 C604 0.930 . S
H592 C605 0.930 . S
H593 C609 0.959 . S
H594 C609 0.959 . S
H595 C609 0.961 . S
H596 C610 0.960 . S
H597 C610 0.961 . S
H598 C610 0.959 . S
H599 C613 0.929 . S
H600 C614 0.931 . S
H601 C616 0.930 . S
C602 H590 0.930 . S
C602 C603 1.399 1_554 S
C602 C607 1.399 . S
C603 C602 1.399 1_556 S
C603 C604 1.376 . S
C604 H591 0.930 . S
C604 C603 1.376 . S
C604 C605 1.388 . S
C605 H592 0.930 . S
C605 C604 1.388 . S
C605 C606 1.390 . S
C606 C605 1.390 . S
C606 C607 1.394 1_556 S
C606 C612 1.465 . S
C607 C602 1.399 . S
C607 C606 1.394 1_554 S
C607 C608 1.516 . S
C608 C607 1.516 . S
C608 C609 1.502 . S
C608 C610 1.561 . S
C608 C611 1.526 . S
C609 H593 0.959 . S
C609 H594 0.959 . S
C609 H595 0.961 . S
C609 C608 1.502 . S
C610 H596 0.960 . S
C610 H597 0.961 . S
C610 H598 0.959 . S
C610 C608 1.561 . S
C611 C608 1.526 . S
C611 C612 1.396 1_554 S
C611 C616 1.390 . S
C612 C606 1.465 . S
C612 C611 1.396 1_556 S
C612 C613 1.399 . S
C613 H599 0.929 . S
C613 C612 1.399 . S
C613 C614 1.385 . S
C614 H600 0.931 . S
C614 C613 1.385 . S
C614 C615 1.389 . S
C615 C614 1.389 . S
C615 C616 1.387 1_556 S
C616 H601 0.930 . S
C616 C611 1.390 . S
C616 C615 1.387 1_554 S
H617 C629 0.930 . S
H618 C631 0.930 . S
H619 C632 0.930 . S
H620 C636 0.959 . S
H621 C636 0.959 1_566 S
H622 C636 0.961 1_556 S
H623 C637 0.960 . S
H624 C637 0.961 1_565 S
H625 C637 0.959 1_565 S
H626 C640 0.929 . S
H627 C641 0.931 . S
H628 C643 0.930 . S
C629 H617 0.930 . S
C629 C630 1.399 1_556 S
C629 C634 1.399 . S
C630 C629 1.399 1_554 S
C630 C631 1.376 . S
C631 H618 0.930 . S
C631 C630 1.376 . S
C631 C632 1.388 . S
C632 H619 0.930 . S
C632 C631 1.388 . S
C632 C633 1.390 . S
C633 C632 1.390 . S
C633 C634 1.394 1_554 S
C633 C639 1.465 1_545 S
C634 C629 1.399 . S
C634 C633 1.394 1_556 S
C634 C635 1.516 . S
C635 C634 1.516 . S
C635 C636 1.502 1_556 S
C635 C637 1.561 . S
C635 C638 1.526 1_545 S
C636 H620 0.959 . S
C636 H621 0.959 1_544 S
C636 H622 0.961 1_554 S
C636 C635 1.502 1_554 S
C637 H623 0.960 . S
C637 H624 0.961 1_545 S
C637 H625 0.959 1_545 S
C637 C635 1.561 . S
C638 C635 1.526 1_565 S
C638 C639 1.396 1_556 S
C638 C643 1.390 . S
C639 C633 1.465 1_565 S
C639 C638 1.396 1_554 S
C639 C640 1.399 . S
C640 H626 0.929 . S
C640 C639 1.399 . S
C640 C641 1.385 . S
C641 H627 0.931 . S
C641 C640 1.385 . S
C641 C642 1.389 . S
C642 C641 1.389 . S
C642 C643 1.387 1_554 S
C643 H628 0.930 . S
C643 C638 1.390 . S
C643 C642 1.387 1_556 S
H644 C656 0.930 . S
H645 C658 0.930 . S
H646 C659 0.934 . S
H647 C663 0.959 . S
H648 C663 0.959 . S
H649 C663 0.961 1_554 S
H650 C664 0.960 . S
H651 C664 0.961 . S
H652 C664 0.959 . S
H653 C667 0.929 . S
H654 C668 0.931 . S
H655 C670 0.930 . S
C656 H644 0.930 . S
C656 C657 1.399 . S
C656 C661 1.399 . S
C657 C656 1.399 . S
C657 C658 1.376 . S
C658 H645 0.930 . S
C658 C657 1.376 . S
C658 C659 1.388 . S
C659 H646 0.934 . S
C659 C658 1.388 . S
C659 C660 1.390 1_554 S
C660 C659 1.390 1_556 S
C660 C661 1.394 1_556 S
C660 C666 1.465 . S
C661 C656 1.399 . S
C661 C660 1.394 1_554 S
C661 C662 1.516 1_554 S
C662 C661 1.516 1_556 S
C662 C663 1.502 . S
C662 C664 1.561 . S
C662 C665 1.526 . S
C663 H647 0.959 . S
C663 H648 0.959 . S
C663 H649 0.961 1_556 S
C663 C662 1.502 . S
C664 H650 0.960 . S
C664 H651 0.961 . S
C664 H652 0.959 . S
C664 C662 1.561 . S
C665 C662 1.526 . S
C665 C666 1.396 . S
C665 C670 1.390 . S
C666 C660 1.465 . S
C666 C665 1.396 . S
C666 C667 1.399 . S
C667 H653 0.929 . S
C667 C666 1.399 . S
C667 C668 1.385 . S
C668 H654 0.931 . S
C668 C667 1.385 . S
C668 C669 1.389 . S
C669 C668 1.389 . S
C669 C670 1.387 . S
C670 H655 0.930 . S
C670 C665 1.390 . S
C670 C669 1.387 . S
H671 C683 0.930 . S
H672 C685 0.930 . S
H673 C686 0.930 1_556 S
H674 C690 0.959 . S
H675 C690 0.959 . S
H676 C690 0.961 1_554 S
H677 C691 0.960 . S
H678 C691 0.961 . S
H679 C691 0.959 . S
H680 C694 0.929 . S
H681 C695 0.931 . S
H682 C697 0.930 . S
C683 H671 0.930 . S
C683 C684 1.399 . S
C683 C688 1.399 . S
C684 C683 1.399 . S
C684 C685 1.376 . S
C685 H672 0.930 . S
C685 C684 1.376 . S
C685 C686 1.388 . S
C686 H673 0.930 1_554 S
C686 C685 1.388 . S
C686 C687 1.390 1_554 S
C687 C686 1.390 1_556 S
C687 C688 1.394 1_556 S
C687 C693 1.465 . S
C688 C683 1.399 . S
C688 C687 1.394 1_554 S
C688 C689 1.516 1_554 S
C689 C688 1.516 1_556 S
C689 C690 1.502 . S
C689 C691 1.561 . S
C689 C692 1.526 . S
C690 H674 0.959 . S
C690 H675 0.959 . S
C690 H676 0.961 1_556 S
C690 C689 1.502 . S
C691 H677 0.960 . S
C691 H678 0.961 . S
C691 H679 0.959 . S
C691 C689 1.561 . S
C692 C689 1.526 . S
C692 C693 1.396 . S
C692 C697 1.390 . S
C693 C687 1.465 . S
C693 C692 1.396 . S
C693 C694 1.399 . S
C694 H680 0.929 . S
C694 C693 1.399 . S
C694 C695 1.385 . S
C695 H681 0.931 . S
C695 C694 1.385 . S
C695 C696 1.389 . S
C696 C695 1.389 . S
C696 C697 1.387 . S
C697 H682 0.930 . S
C697 C692 1.390 . S
C697 C696 1.387 . S
H698 C710 0.930 . S
H699 C712 0.930 . S
H700 C713 0.930 . S
H701 C717 0.959 . S
H702 C717 0.959 . S
H703 C717 0.961 . S
H704 C718 0.960 . S
H705 C718 0.961 . S
H706 C718 0.959 . S
H707 C721 0.929 . S
H708 C722 0.931 . S
H709 C724 0.930 . S
C710 H698 0.930 . S
C710 C711 1.399 . S
C710 C715 1.399 . S
C711 C710 1.399 . S
C711 C712 1.376 . S
C712 H699 0.930 . S
C712 C711 1.376 . S
C712 C713 1.388 . S
C713 H700 0.930 . S
C713 C712 1.388 . S
C713 C714 1.390 . S
C714 C713 1.390 . S
C714 C715 1.394 . S
C714 C720 1.465 . S
C715 C710 1.399 . S
C715 C714 1.394 . S
C715 C716 1.516 . S
C716 C715 1.516 . S
C716 C717 1.502 . S
C716 C718 1.561 . S
C716 C719 1.526 1_554 S
C717 H701 0.959 . S
C717 H702 0.959 . S
C717 H703 0.961 . S
C717 C716 1.502 . S
C718 H704 0.960 . S
C718 H705 0.961 . S
C718 H706 0.959 . S
C718 C716 1.561 . S
C719 C716 1.526 1_556 S
C719 C720 1.396 1_556 S
C719 C724 1.390 . S
C720 C714 1.465 . S
C720 C719 1.396 1_554 S
C720 C721 1.399 1_554 S
C721 H707 0.929 . S
C721 C720 1.399 1_556 S
C721 C722 1.385 . S
C722 H708 0.931 . S
C722 C721 1.385 . S
C722 C723 1.389 . S
C723 C722 1.389 . S
C723 C724 1.387 . S
C724 H709 0.930 . S
C724 C719 1.390 . S
C724 C723 1.387 . S
H725 C737 0.930 . S
H726 C739 0.930 . S
H727 C740 0.930 . S
H728 C744 0.959 . S
H729 C744 0.959 . S
H730 C744 0.961 1_556 S
H731 C745 0.960 . S
H732 C745 0.961 . S
H733 C745 0.959 . S
H734 C748 0.929 . S
H735 C749 0.931 . S
H736 C751 0.930 . S
C737 H725 0.930 . S
C737 C738 1.399 . S
C737 C742 1.399 . S
C738 C737 1.399 . S
C738 C739 1.376 . S
C739 H726 0.930 . S
C739 C738 1.376 . S
C739 C740 1.388 . S
C740 H727 0.930 . S
C740 C739 1.388 . S
C740 C741 1.390 1_556 S
C741 C740 1.390 1_554 S
C741 C742 1.394 1_554 S
C741 C747 1.465 . S
C742 C737 1.399 . S
C742 C741 1.394 1_556 S
C742 C743 1.516 1_556 S
C743 C742 1.516 1_554 S
C743 C744 1.502 . S
C743 C745 1.561 . S
C743 C746 1.526 . S
C744 H728 0.959 . S
C744 H729 0.959 . S
C744 H730 0.961 1_554 S
C744 C743 1.502 . S
C745 H731 0.960 . S
C745 H732 0.961 . S
C745 H733 0.959 . S
C745 C743 1.561 . S
C746 C743 1.526 . S
C746 C747 1.396 . S
C746 C751 1.390 . S
C747 C741 1.465 . S
C747 C746 1.396 . S
C747 C748 1.399 . S
C748 H734 0.929 . S
C748 C747 1.399 . S
C748 C749 1.385 . S
C749 H735 0.931 . S
C749 C748 1.385 . S
C749 C750 1.389 . S
C750 C749 1.389 . S
C750 C751 1.387 . S
C751 H736 0.930 . S
C751 C746 1.390 . S
C751 C750 1.387 . S
H752 C764 0.930 . S
H753 C766 0.930 . S
H754 C767 0.930 . S
H755 C771 0.959 . S
H756 C771 0.959 . S
H757 C771 0.961 . S
H758 C772 0.960 . S
H759 C772 0.961 . S
H760 C772 0.959 . S
H761 C775 0.929 . S
H762 C776 0.931 . S
H763 C778 0.930 . S
C764 H752 0.930 . S
C764 C765 1.399 . S
C764 C769 1.399 . S
C765 C764 1.399 . S
C765 C766 1.376 . S
C766 H753 0.930 . S
C766 C765 1.376 . S
C766 C767 1.388 . S
C767 H754 0.930 . S
C767 C766 1.388 . S
C767 C768 1.390 . S
C768 C767 1.390 . S
C768 C769 1.394 . S
C768 C774 1.465 . S
C769 C764 1.399 . S
C769 C768 1.394 . S
C769 C770 1.516 . S
C770 C769 1.516 . S
C770 C771 1.502 . S
C770 C772 1.561 . S
C770 C773 1.526 . S
C771 H755 0.959 . S
C771 H756 0.959 . S
C771 H757 0.961 . S
C771 C770 1.502 . S
C772 H758 0.960 . S
C772 H759 0.961 . S
C772 H760 0.959 . S
C772 C770 1.561 . S
C773 C770 1.526 . S
C773 C774 1.396 . S
C773 C778 1.390 . S
C774 C768 1.465 . S
C774 C773 1.396 . S
C774 C775 1.399 . S
C775 H761 0.929 . S
C775 C774 1.399 . S
C775 C776 1.385 . S
C776 H762 0.931 . S
C776 C775 1.385 . S
C776 C777 1.389 . S
C777 C776 1.389 . S
C777 C778 1.387 . S
C778 H763 0.930 . S
C778 C773 1.390 . S
C778 C777 1.387 . S
H779 C791 0.930 . S
H780 C793 0.930 . S
H781 C794 0.930 . S
H782 C798 0.959 . S
H783 C798 0.959 . S
H784 C798 0.961 . S
H785 C799 0.960 . S
H786 C799 0.961 . S
H787 C799 0.959 . S
H788 C802 0.929 . S
H789 C803 0.931 . S
H790 C805 0.930 . S
C791 H779 0.930 . S
C791 C792 1.399 . S
C791 C796 1.399 . S
C792 C791 1.399 . S
C792 C793 1.376 . S
C793 H780 0.930 . S
C793 C792 1.376 . S
C793 C794 1.388 . S
C794 H781 0.930 . S
C794 C793 1.388 . S
C794 C795 1.390 . S
C795 C794 1.390 . S
C795 C796 1.394 . S
C795 C801 1.465 . S
C796 C791 1.399 . S
C796 C795 1.394 . S
C796 C797 1.516 . S
C797 C796 1.516 . S
C797 C798 1.502 . S
C797 C799 1.561 . S
C797 C800 1.526 . S
C798 H782 0.959 . S
C798 H783 0.959 . S
C798 H784 0.961 . S
C798 C797 1.502 . S
C799 H785 0.960 . S
C799 H786 0.961 . S
C799 H787 0.959 . S
C799 C797 1.561 . S
C800 C797 1.526 . S
C800 C801 1.396 . S
C800 C805 1.390 . S
C801 C795 1.465 . S
C801 C800 1.396 . S
C801 C802 1.399 . S
C802 H788 0.929 . S
C802 C801 1.399 . S
C802 C803 1.385 . S
C803 H789 0.931 . S
C803 C802 1.385 . S
C803 C804 1.389 . S
C804 C803 1.389 . S
C804 C805 1.387 . S
C805 H790 0.930 . S
C805 C800 1.390 . S
C805 C804 1.387 . S
H806 C818 0.930 . S
H807 C820 0.930 . S
H808 C821 0.930 . S
H809 C825 0.959 . S
H810 C825 0.959 . S
H811 C825 0.961 . S
H812 C826 0.960 . S
H813 C826 0.961 . S
H814 C826 0.959 . S
H815 C829 0.929 . S
H816 C830 0.931 . S
H817 C832 0.930 . S
C818 H806 0.930 . S
C818 C819 1.399 . S
C818 C823 1.399 . S
C819 C818 1.399 . S
C819 C820 1.376 . S
C820 H807 0.930 . S
C820 C819 1.376 . S
C820 C821 1.388 . S
C821 H808 0.930 . S
C821 C820 1.388 . S
C821 C822 1.390 . S
C822 C821 1.390 . S
C822 C823 1.394 . S
C822 C828 1.465 . S
C823 C818 1.399 . S
C823 C822 1.394 . S
C823 C824 1.516 . S
C824 C823 1.516 . S
C824 C825 1.502 . S
C824 C826 1.561 . S
C824 C827 1.526 . S
C825 H809 0.959 . S
C825 H810 0.959 . S
C825 H811 0.961 . S
C825 C824 1.502 . S
C826 H812 0.960 . S
C826 H813 0.961 . S
C826 H814 0.959 . S
C826 C824 1.561 . S
C827 C824 1.526 . S
C827 C828 1.396 . S
C827 C832 1.390 . S
C828 C822 1.465 . S
C828 C827 1.396 . S
C828 C829 1.399 . S
C829 H815 0.929 . S
C829 C828 1.399 . S
C829 C830 1.385 . S
C830 H816 0.931 . S
C830 C829 1.385 . S
C830 C831 1.389 . S
C831 C830 1.389 . S
C831 C832 1.387 . S
C832 H817 0.930 . S
C832 C827 1.390 . S
C832 C831 1.387 . S
H833 C845 0.930 . S
H834 C847 0.930 . S
H835 C848 0.930 . S
H836 C852 0.959 . S
H837 C852 0.959 . S
H838 C852 0.961 . S
H839 C853 0.960 . S
H840 C853 0.961 . S
H841 C853 0.959 . S
H842 C856 0.929 . S
H843 C857 0.931 . S
H844 C859 0.930 . S
C845 H833 0.930 . S
C845 C846 1.399 . S
C845 C850 1.399 . S
C846 C845 1.399 . S
C846 C847 1.376 . S
C847 H834 0.930 . S
C847 C846 1.376 . S
C847 C848 1.388 . S
C848 H835 0.930 . S
C848 C847 1.388 . S
C848 C849 1.390 . S
C849 C848 1.390 . S
C849 C850 1.394 . S
C849 C855 1.465 . S
C850 C845 1.399 . S
C850 C849 1.394 . S
C850 C851 1.516 . S
C851 C850 1.516 . S
C851 C852 1.502 . S
C851 C853 1.561 . S
C851 C854 1.526 . S
C852 H836 0.959 . S
C852 H837 0.959 . S
C852 H838 0.961 . S
C852 C851 1.502 . S
C853 H839 0.960 . S
C853 H840 0.961 . S
C853 H841 0.959 . S
C853 C851 1.561 . S
C854 C851 1.526 . S
C854 C855 1.396 . S
C854 C859 1.390 . S
C855 C849 1.465 . S
C855 C854 1.396 . S
C855 C856 1.399 . S
C856 H842 0.929 . S
C856 C855 1.399 . S
C856 C857 1.385 . S
C857 H843 0.931 . S
C857 C856 1.385 . S
C857 C858 1.389 . S
C858 C857 1.389 . S
C858 C859 1.387 . S
C859 H844 0.930 . S
C859 C854 1.390 . S
C859 C858 1.387 . S
H860 C872 0.930 . S
H861 C874 0.930 . S
H862 C875 0.930 . S
H863 C879 0.959 . S
H864 C879 0.959 . S
H865 C879 0.961 1_455 S
H866 C880 0.960 1_455 S
H867 C880 0.961 . S
H868 C880 0.959 . S
H869 C883 0.929 . S
H870 C884 0.931 . S
H871 C886 0.930 . S
C872 H860 0.930 . S
C872 C873 1.399 . S
C872 C877 1.399 . S
C873 C872 1.399 . S
C873 C874 1.376 . S
C874 H861 0.930 . S
C874 C873 1.376 . S
C874 C875 1.388 . S
C875 H862 0.930 . S
C875 C874 1.388 . S
C875 C876 1.390 . S
C876 C875 1.390 . S
C876 C877 1.394 . S
C876 C882 1.465 1_455 S
C877 C872 1.399 . S
C877 C876 1.394 . S
C877 C878 1.516 1_455 S
C878 C877 1.516 1_655 S
C878 C879 1.502 . S
C878 C880 1.561 . S
C878 C881 1.526 . S
C879 H863 0.959 . S
C879 H864 0.959 . S
C879 H865 0.961 1_655 S
C879 C878 1.502 . S
C880 H866 0.960 1_655 S
C880 H867 0.961 . S
C880 H868 0.959 . S
C880 C878 1.561 . S
C881 C878 1.526 . S
C881 C882 1.396 . S
C881 C886 1.390 . S
C882 C876 1.465 1_655 S
C882 C881 1.396 . S
C882 C883 1.399 . S
C883 H869 0.929 . S
C883 C882 1.399 . S
C883 C884 1.385 . S
C884 H870 0.931 . S
C884 C883 1.385 . S
C884 C885 1.389 . S
C885 C884 1.389 . S
C885 C886 1.387 . S
C886 H871 0.930 . S
C886 C881 1.390 . S
C886 C885 1.387 . S
H887 C899 0.930 . S
H888 C901 0.930 . S
H889 C902 0.930 . S
H890 C906 0.959 . S
H891 C906 0.959 . S
H892 C906 0.961 1_655 S
H893 C907 1.001 . S
H894 C907 0.925 1_455 S
H895 C907 0.959 . S
H896 C910 0.929 . S
H897 C911 0.931 . S
H898 C913 0.930 . S
C899 H887 0.930 . S
C899 C900 1.399 . S
C899 C904 1.399 . S
C900 C899 1.399 . S
C900 C901 1.376 . S
C901 H888 0.930 . S
C901 C900 1.376 . S
C901 C902 1.388 . S
C902 H889 0.930 . S
C902 C901 1.388 . S
C902 C903 1.390 . S
C903 C902 1.390 . S
C903 C904 1.394 . S
C903 C909 1.465 1_655 S
C904 C899 1.399 . S
C904 C903 1.394 . S
C904 C905 1.495 1_655 S
C905 C904 1.495 1_455 S
C905 C906 1.502 . S
C905 C907 1.563 1_455 S
C905 C908 1.547 . S
C906 H890 0.959 . S
C906 H891 0.959 . S
C906 H892 0.961 1_455 S
C906 C905 1.502 . S
C907 H893 1.001 . S
C907 H894 0.925 1_655 S
C907 H895 0.959 . S
C907 C905 1.563 1_655 S
C908 C905 1.547 . S
C908 C909 1.396 . S
C908 C913 1.390 . S
C909 C903 1.465 1_455 S
C909 C908 1.396 . S
C909 C910 1.399 . S
C910 H896 0.929 . S
C910 C909 1.399 . S
C910 C911 1.385 . S
C911 H897 0.931 . S
C911 C910 1.385 . S
C911 C912 1.389 . S
C912 C911 1.389 . S
C912 C913 1.387 . S
C913 H898 0.930 . S
C913 C908 1.390 . S
C913 C912 1.387 . S
H914 C926 0.930 . S
H915 C928 0.930 . S
H916 C929 0.930 . S
H917 C933 0.959 . S
H918 C933 0.959 . S
H919 C933 0.961 . S
H920 C934 0.960 . S
H921 C934 0.961 . S
H922 C934 0.959 . S
H923 C937 0.929 . S
H924 C938 0.931 . S
H925 C940 0.930 . S
C926 H914 0.930 . S
C926 C927 1.399 . S
C926 C931 1.399 . S
C927 C926 1.399 . S
C927 C928 1.376 . S
C928 H915 0.930 . S
C928 C927 1.376 . S
C928 C929 1.388 . S
C929 H916 0.930 . S
C929 C928 1.388 . S
C929 C930 1.390 . S
C930 C929 1.390 . S
C930 C931 1.394 . S
C930 C936 1.465 . S
C931 C926 1.399 . S
C931 C930 1.394 . S
C931 C932 1.516 . S
C932 C931 1.516 . S
C932 C933 1.502 . S
C932 C934 1.561 . S
C932 C935 1.526 . S
C933 H917 0.959 . S
C933 H918 0.959 . S
C933 H919 0.961 . S
C933 C932 1.502 . S
C934 H920 0.960 . S
C934 H921 0.961 . S
C934 H922 0.959 . S
C934 C932 1.561 . S
C935 C932 1.526 . S
C935 C936 1.396 . S
C935 C940 1.390 . S
C936 C930 1.465 . S
C936 C935 1.396 . S
C936 C937 1.399 . S
C937 H923 0.929 . S
C937 C936 1.399 . S
C937 C938 1.385 . S
C938 H924 0.931 . S
C938 C937 1.385 . S
C938 C939 1.389 . S
C939 C938 1.389 . S
C939 C940 1.387 . S
C940 H925 0.930 . S
C940 C935 1.390 . S
C940 C939 1.387 . S
H941 C953 0.930 . S
H942 C955 0.930 . S
H943 C956 0.930 . S
H944 C960 0.959 . S
H945 C960 0.959 . S
H946 C960 0.961 . S
H947 C961 0.960 . S
H948 C961 0.961 . S
H949 C961 0.959 . S
H950 C964 0.929 . S
H951 C965 0.931 . S
H952 C967 0.930 . S
C953 H941 0.930 . S
C953 C954 1.399 . S
C953 C958 1.399 . S
C954 C953 1.399 . S
C954 C955 1.376 . S
C955 H942 0.930 . S
C955 C954 1.376 . S
C955 C956 1.388 . S
C956 H943 0.930 . S
C956 C955 1.388 . S
C956 C957 1.390 . S
C957 C956 1.390 . S
C957 C958 1.394 . S
C957 C963 1.465 . S
C958 C953 1.399 . S
C958 C957 1.394 . S
C958 C959 1.516 . S
C959 C958 1.516 . S
C959 C960 1.502 . S
C959 C961 1.561 . S
C959 C962 1.526 . S
C960 H944 0.959 . S
C960 H945 0.959 . S
C960 H946 0.961 . S
C960 C959 1.502 . S
C961 H947 0.960 . S
C961 H948 0.961 . S
C961 H949 0.959 . S
C961 C959 1.561 . S
C962 C959 1.526 . S
C962 C963 1.396 . S
C962 C967 1.390 . S
C963 C957 1.465 . S
C963 C962 1.396 . S
C963 C964 1.399 . S
C964 H950 0.929 . S
C964 C963 1.399 . S
C964 C965 1.385 . S
C965 H951 0.931 . S
C965 C964 1.385 . S
C965 C966 1.389 . S
C966 C965 1.389 . S
C966 C967 1.387 . S
C967 H952 0.930 . S
C967 C962 1.390 . S
C967 C966 1.387 . S
C333 C6 1.674 . S
C345 C295 1.660 . S
C360 C255 1.673 . S
C372 C46 1.661 . S
C387 C206 1.677 . S
C399 C95 1.656 . S
C414 C166 1.673 . S
C426 C135 1.661 . S
C441 C89 1.559 . S
C453 C9 1.550 . S
C468 C49 1.530 . S
C480 C129 1.580 . S
C495 C138 1.580 . S
C507 C58 1.548 . S
C522 C98 1.539 . S
C534 C18 1.550 . S
C549 C169 1.446 . S
C561 C249 1.419 . S
C576 C209 1.405 1_554 S
C588 C289 1.462 1_554 S
C603 C298 1.461 1_556 S
C615 C218 1.427 1_556 S
C630 C258 1.397 . S
C642 C178 1.468 . S
C657 C19 2.047 . S
C669 C10 2.025 . S
C684 C59 2.054 . S
C696 C50 2.017 . S
C711 C99 2.023 . S
C723 C90 2.032 . S
C738 C130 2.062 . S
C750 C139 2.005 . S
C765 C170 2.058 . S
C777 C179 2.010 . S
C792 C219 2.023 . S
C804 C210 2.030 . S
C819 C250 2.052 . S
C831 C259 2.019 . S
C846 C290 2.005 . S
C858 C299 2.061 . S
C873 C15 2.308 . S
C885 C55 2.302 . S
C900 C126 2.306 . S
C912 C86 2.309 . S
C927 C175 2.308 . S
C939 C215 2.312 . S
C954 C286 2.277 . S
C966 C246 2.275 . S
