# Generated by pormake.
# Topology dft, (4)-cn, num edge types: 1
# Building blocks:
#     Node 0, Type 0, BuildingBlock: CEKHIL_clean_sbu_0, # of connection points: 4
#     Node 1, Type 0, BuildingBlock: CEKHIL_clean_sbu_0, # of connection points: 4
#     Node 2, Type 0, BuildingBlock: CEKHIL_clean_sbu_0, # of connection points: 4
#     Node 3, Type 0, BuildingBlock: CEKHIL_clean_sbu_0, # of connection points: 4
#     Node 4, Type 0, BuildingBlock: CEKHIL_clean_sbu_0, # of connection points: 4
#     Node 5, Type 0, BuildingBlock: CEKHIL_clean_sbu_0, # of connection points: 4
#     Node 6, Type 0, BuildingBlock: CEKHIL_clean_sbu_0, # of connection points: 4
#     Node 7, Type 0, BuildingBlock: CEKHIL_clean_sbu_0, # of connection points: 4
#     Edge 8, Type (0, 0), BuildingBlock: TEMPAE_clean_linker_10, # of connection points: 2
#     Edge 9, Type (0, 0), BuildingBlock: TEMPAE_clean_linker_10, # of connection points: 2
#     Edge 10, Type (0, 0), BuildingBlock: TEMPAE_clean_linker_10, # of connection points: 2
#     Edge 11, Type (0, 0), BuildingBlock: TEMPAE_clean_linker_10, # of connection points: 2
#     Edge 12, Type (0, 0), BuildingBlock: TEMPAE_clean_linker_10, # of connection points: 2
#     Edge 13, Type (0, 0), BuildingBlock: TEMPAE_clean_linker_10, # of connection points: 2
#     Edge 14, Type (0, 0), BuildingBlock: TEMPAE_clean_linker_10, # of connection points: 2
#     Edge 15, Type (0, 0), BuildingBlock: TEMPAE_clean_linker_10, # of connection points: 2
#     Edge 16, Type (0, 0), BuildingBlock: TEMPAE_clean_linker_10, # of connection points: 2
#     Edge 17, Type (0, 0), BuildingBlock: TEMPAE_clean_linker_10, # of connection points: 2
#     Edge 18, Type (0, 0), BuildingBlock: TEMPAE_clean_linker_10, # of connection points: 2
#     Edge 19, Type (0, 0), BuildingBlock: TEMPAE_clean_linker_10, # of connection points: 2
#     Edge 20, Type (0, 0), BuildingBlock: TEMPAE_clean_linker_10, # of connection points: 2
#     Edge 21, Type (0, 0), BuildingBlock: TEMPAE_clean_linker_10, # of connection points: 2
#     Edge 22, Type (0, 0), BuildingBlock: TEMPAE_clean_linker_10, # of connection points: 2
#     Edge 23, Type (0, 0), BuildingBlock: TEMPAE_clean_linker_10, # of connection points: 2
# Relax obj value: 0.182
# Max RMSD: 0.171
# Mean RMSD: 0.171
data_MOF--net-dft--node1-CEKHIL_clean_sbu_0--edge1-TEMPAE_clean_linker_10
_symmetry_space_group_name_H-M    P1
_symmetry_Int_Tables_number       1
_symmetry_cell_setting            triclinic
loop_
_symmetry_equiv_pos_as_xyz
'x, y, z'
_cell_length_a     34.334999
_cell_length_b     34.339585
_cell_length_c     41.250735
_cell_angle_alpha  89.904205
_cell_angle_beta   89.994589
_cell_angle_gamma 90.012198
loop_
_atom_site_label
_atom_site_type_symbol
_atom_site_fract_x
_atom_site_fract_y
_atom_site_fract_z
_atom_type_partial_charge
Co0 Co 0.34547 0.03878 0.18321 0.0
O1 O 0.39286 0.00895 0.18384 0.0
O2 O 0.38741 0.07095 0.1987 0.0
C3 C 0.30686 0.99348 0.20533 0.0
O4 O 0.3014 0.07837 0.18763 0.0
Co5 Co 0.27457 0.01239 0.14172 0.0
O6 O 0.24752 0.05721 0.16198 0.0
C7 C 0.34866 0.03426 0.11175 0.0
C8 C 0.40927 0.04051 0.19444 0.0
C9 C 0.26516 0.08172 0.17994 0.0
O10 O 0.35716 0.0543 0.13705 0.0
O11 O 0.31913 0.01165 0.11034 0.0
O12 O 0.32873 0.01479 0.22401 0.0
O13 O 0.31205 0.99764 0.17462 0.0
Co14 Co 0.0688 0.35047 0.68367 0.0
O15 O 0.09614 0.39932 0.68186 0.0
O16 O 0.03294 0.39277 0.69148 0.0
C17 C 0.11262 0.31901 0.71418 0.0
O18 O 0.03063 0.30519 0.68889 0.0
Co19 Co 0.10453 0.27507 0.65468 0.0
O20 O 0.05839 0.24875 0.67368 0.0
C21 C 0.0826 0.34095 0.61296 0.0
C22 C 0.06276 0.41568 0.68761 0.0
C23 C 0.0301 0.26785 0.68583 0.0
O24 O 0.06005 0.35396 0.63539 0.0
O25 O 0.1061 0.31252 0.61738 0.0
O26 O 0.08679 0.34108 0.7281 0.0
O27 O 0.11291 0.31911 0.68302 0.0
Co28 Co 0.7637 0.06245 0.18302 0.0
O29 O 0.71466 0.0893 0.18539 0.0
O30 O 0.72363 0.02672 0.19671 0.0
C31 C 0.79817 0.10952 0.20738 0.0
O32 O 0.80958 0.02491 0.18574 0.0
Co33 Co 0.83513 0.09532 0.14585 0.0
O34 O 0.86458 0.05399 0.16902 0.0
C35 C 0.76397 0.07075 0.11145 0.0
C36 C 0.69998 0.05616 0.1944 0.0
C37 C 0.84691 0.02578 0.18271 0.0
O38 O 0.75333 0.05019 0.136 0.0
O39 O 0.79329 0.09375 0.11193 0.0
O40 O 0.77925 0.08434 0.22502 0.0
O41 O 0.794 0.10643 0.17654 0.0
Co42 Co 0.03672 0.77323 0.67403 0.0
O43 O 0.00901 0.72508 0.66738 0.0
O44 O 0.06822 0.73006 0.68845 0.0
C45 C 0.98687 0.80626 0.69602 0.0
O46 O 0.07436 0.81738 0.68597 0.0
Co47 Co 0.01202 0.85033 0.63973 0.0
O48 O 0.05096 0.87481 0.66844 0.0
C49 C 0.0479 0.78654 0.6024 0.0
C50 C 0.03944 0.70795 0.67951 0.0
C51 C 0.07584 0.85489 0.68425 0.0
O52 O 0.05807 0.76889 0.62861 0.0
O53 O 0.02702 0.81739 0.60194 0.0
O54 O 0.00742 0.78281 0.71394 0.0
O55 O 0.99499 0.80646 0.66554 0.0
Co56 Co 0.33915 0.07124 0.81416 0.0
O57 O 0.38696 0.0999 0.81968 0.0
O58 O 0.38256 0.04108 0.79804 0.0
C59 C 0.30396 0.1212 0.79432 0.0
O60 O 0.29532 0.03292 0.80319 0.0
Co61 Co 0.26302 0.09392 0.85091 0.0
O62 O 0.2382 0.05396 0.8234 0.0
C63 C 0.32881 0.05745 0.88581 0.0
C64 C 0.40444 0.07005 0.80701 0.0
C65 C 0.25808 0.03004 0.8066 0.0
O66 O 0.34613 0.04894 0.85908 0.0
O67 O 0.29754 0.07763 0.88738 0.0
O68 O 0.32629 0.10119 0.77504 0.0
O69 O 0.30583 0.11215 0.82454 0.0
Co70 Co 0.04023 0.33646 0.3093 0.0
O71 O 0.01578 0.38621 0.31609 0.0
O72 O 0.07565 0.37756 0.29709 0.0
C73 C 0.98929 0.30859 0.28471 0.0
O74 O 0.07512 0.29038 0.29755 0.0
Co75 Co 0.00807 0.25952 0.33883 0.0
O76 O 0.04532 0.23384 0.30912 0.0
C77 C 0.04634 0.31837 0.38052 0.0
C78 C 0.04795 0.40135 0.30535 0.0
C79 C 0.07303 0.25295 0.29611 0.0
O80 O 0.05895 0.33726 0.35563 0.0
O81 O 0.02355 0.28895 0.37855 0.0
O82 O 0.0132 0.32999 0.26793 0.0
O83 O 0.9955 0.30667 0.31541 0.0
Co84 Co 0.76344 0.04776 0.80986 0.0
O85 O 0.71498 0.02083 0.81732 0.0
O86 O 0.7202 0.0802 0.79673 0.0
C87 C 0.79505 0.9976 0.78678 0.0
O88 O 0.8082 0.08459 0.79716 0.0
Co89 Co 0.84078 0.02076 0.84261 0.0
O90 O 0.86533 0.05893 0.81321 0.0
C91 C 0.77929 0.05823 0.88139 0.0
C92 C 0.69785 0.05167 0.80595 0.0
C93 C 0.84583 0.08465 0.79798 0.0
O94 O 0.76083 0.06862 0.85561 0.0
O95 O 0.80973 0.03678 0.88114 0.0
O96 O 0.77143 0.01875 0.76951 0.0
O97 O 0.79603 0.00529 0.81731 0.0
Co98 Co 0.06617 0.75838 0.30314 0.0
O99 O 0.09699 0.71174 0.30616 0.0
O100 O 0.03588 0.71429 0.28897 0.0
C101 C 0.11155 0.79638 0.28028 0.0
O102 O 0.02587 0.80123 0.295 0.0
Co103 Co 0.08953 0.83294 0.34144 0.0
O104 O 0.04526 0.85733 0.31824 0.0
C105 C 0.06815 0.76075 0.37469 0.0
C106 C 0.06646 0.69336 0.29561 0.0
C107 C 0.02179 0.83797 0.30056 0.0
O108 O 0.04906 0.74994 0.34945 0.0
O109 O 0.0901 0.79081 0.37502 0.0
O110 O 0.09161 0.77255 0.26223 0.0
O111 O 0.10617 0.79337 0.31105 0.0
C112 C 0.38358 0.00492 0.06569 0.0
C113 C 0.37136 0.03858 0.08188 0.0
C114 C 0.39167 0.00584 0.03244 0.0
C115 C 0.38597 0.04096 0.01519 0.0
C116 C 0.37976 0.07609 0.03248 0.0
C117 C 0.3725 0.07449 0.06595 0.0
C118 C 0.40035 0.96816 0.01516 0.0
C119 C 0.37478 0.11438 0.01503 0.0
C120 C 0.38568 0.04882 0.92308 0.0
C121 C 0.34569 0.04519 0.91693 0.0
C122 C 0.4001 0.0457 0.95493 0.0
C123 C 0.37371 0.0389 0.98074 0.0
C124 C 0.33375 0.03236 0.97401 0.0
C125 C 0.32035 0.0356 0.94222 0.0
C126 C 0.44295 0.05212 0.96089 0.0
C127 C 0.30448 0.02412 0.00059 0.0
H128 H 0.3833 0.97721 0.07837 0.0
H129 H 0.36333 0.10053 0.07868 0.0
H130 H 0.3728 0.9557 0.00566 0.0
H131 H 0.42019 0.97306 0.99431 0.0
H132 H 0.41368 0.94648 0.03181 0.0
H133 H 0.37785 0.13949 0.0318 0.0
H134 H 0.39643 0.11733 0.99523 0.0
H135 H 0.3453 0.11552 0.00401 0.0
H136 H 0.40526 0.05648 0.90345 0.0
H137 H 0.28948 0.03236 0.93726 0.0
H138 H 0.45353 0.0351 0.98201 0.0
H139 H 0.44807 0.08342 0.96597 0.0
H140 H 0.46046 0.04418 0.93923 0.0
H141 H 0.31341 0.9981 0.01469 0.0
H142 H 0.27471 0.01891 0.99095 0.0
H143 H 0.30315 0.04912 0.01756 0.0
C144 C 0.04436 0.36715 0.56622 0.0
C145 C 0.08024 0.35684 0.57984 0.0
C146 C 0.04073 0.37185 0.53251 0.0
C147 C 0.07379 0.36622 0.51246 0.0
C148 C 0.11089 0.36125 0.5267 0.0
C149 C 0.11362 0.35631 0.56028 0.0
C150 C 0.00078 0.37806 0.51821 0.0
C151 C 0.14704 0.3561 0.50631 0.0
C152 C 0.05624 0.3039 0.43871 0.0
C153 C 0.05718 0.33114 0.41343 0.0
C154 C 0.06174 0.31524 0.47084 0.0
C155 C 0.06838 0.35499 0.47804 0.0
C156 C 0.0705 0.38267 0.4526 0.0
C157 C 0.06491 0.37036 0.4204 0.0
C158 C 0.05989 0.2845 0.49712 0.0
C159 C 0.07737 0.42528 0.45939 0.0
H160 H 0.0186 0.36809 0.58141 0.0
H161 H 0.14163 0.34937 0.57099 0.0
H162 H 0.00213 0.39819 0.49719 0.0
H163 H 0.98923 0.34979 0.50944 0.0
H164 H 0.9801 0.38994 0.5364 0.0
H165 H 0.17398 0.36078 0.5207 0.0
H166 H 0.14768 0.32601 0.49654 0.0
H167 H 0.14705 0.37648 0.48542 0.0
H168 H 0.05064 0.27349 0.43339 0.0
H169 H 0.06521 0.39156 0.40089 0.0
H170 H 0.03627 0.29152 0.51451 0.0
H171 H 0.08766 0.2839 0.51086 0.0
H172 H 0.05448 0.2549 0.48728 0.0
H173 H 0.05067 0.43806 0.47014 0.0
H174 H 0.08457 0.44178 0.43699 0.0
H175 H 0.10127 0.42919 0.47718 0.0
C176 C 0.79132 0.07769 0.93796 0.0
C177 C 0.76445 0.06933 0.91349 0.0
C178 C 0.77987 0.07934 0.97039 0.0
C179 C 0.74042 0.0722 0.97862 0.0
C180 C 0.71252 0.06643 0.95378 0.0
C181 C 0.72493 0.0651 0.92127 0.0
C182 C 0.81061 0.08651 -0.00404 0.0
C183 C 0.67019 0.05918 0.96146 0.0
C184 C 0.74345 0.03277 0.06328 0.0
C185 C 0.74318 0.06775 0.08051 0.0
C186 C 0.73703 0.0328 0.02966 0.0
C187 C 0.73012 0.06863 0.01346 0.0
C188 C 0.72399 0.10285 0.03174 0.0
C189 C 0.73119 0.10211 0.06514 0.0
C190 C 0.74294 0.9955 0.01105 0.0
C191 C 0.71512 0.14129 0.0156 0.0
H192 H 0.82184 0.08119 0.93179 0.0
H193 H 0.70421 0.05823 0.90228 0.0
H194 H 0.80207 0.11136 0.01156 0.0
H195 H 0.81344 0.06047 0.01176 0.0
H196 H 0.83961 0.09296 0.98527 0.0
H197 H 0.65126 0.06577 0.9403 0.0
H198 H 0.6662 0.02803 0.96784 0.0
H199 H 0.66041 0.07682 0.98244 0.0
H200 H 0.7527 0.00625 0.07533 0.0
H201 H 0.73063 0.12911 0.07876 0.0
H202 H 0.77233 0.99574 -0.00017 0.0
H203 H 0.72123 0.99288 0.99127 0.0
H204 H 0.74073 0.96953 0.02703 0.0
H205 H 0.74254 0.15406 0.00609 0.0
H206 H 0.70213 0.16232 0.03296 0.0
H207 H 0.69493 0.13737 0.99487 0.0
C208 C 0.02833 0.73839 0.42133 0.0
C209 C 0.06425 0.73971 0.40545 0.0
C210 C 0.02683 0.73283 0.45504 0.0
C211 C 0.06206 0.72868 0.47267 0.0
C212 C 0.0975 0.72355 0.45579 0.0
C213 C 0.09824 0.72965 0.42225 0.0
C214 C 0.98827 0.73713 0.47216 0.0
C215 C 0.13547 0.71754 0.47351 0.0
C216 C 0.06551 0.79567 0.54493 0.0
C217 C 0.05863 0.77014 0.57073 0.0
C218 C 0.06809 0.78205 0.51316 0.0
C219 C 0.06343 0.74172 0.50694 0.0
C220 C 0.05876 0.71537 0.53311 0.0
C221 C 0.05646 0.72997 0.56492 0.0
C222 C 0.07408 0.81128 0.48612 0.0
C223 C 0.05391 0.67223 0.52761 0.0
H224 H 0.00207 0.74598 0.40816 0.0
H225 H 0.12598 0.73017 0.40966 0.0
H226 H 0.98615 0.71652 0.49282 0.0
H227 H 0.98582 0.76712 0.48197 0.0
H228 H 0.96341 0.73206 0.45545 0.0
H229 H 0.15803 0.70487 0.45735 0.0
H230 H 0.14628 0.74606 0.4824 0.0
H231 H 0.13151 0.69819 0.49481 0.0
H232 H 0.06749 0.8267 0.54955 0.0
H233 H 0.05073 0.71025 0.58492 0.0
H234 H 0.04843 0.81125 0.46975 0.0
H235 H 0.09994 0.80326 0.47147 0.0
H236 H 0.07831 0.84136 0.49534 0.0
H237 H 0.02302 0.66607 0.52161 0.0
H238 H 0.06156 0.65525 0.54966 0.0
H239 H 0.07205 0.66194 0.50708 0.0
C240 C 0.46987 0.03123 0.22645 0.0
C241 C 0.45156 0.04284 0.19777 0.0
C242 C 0.51063 0.03249 0.22914 0.0
C243 C 0.53311 0.04521 0.20232 0.0
C244 C 0.51438 0.05687 0.17329 0.0
C245 C 0.47368 0.05568 0.17144 0.0
C246 C 0.52963 0.02028 0.26055 0.0
C247 C 0.53732 0.07028 0.14407 0.0
C248 C 0.63587 0.08405 0.21009 0.0
C249 C 0.65787 0.05195 0.20001 0.0
C250 C 0.59525 0.08153 0.21284 0.0
C251 C 0.57626 0.04643 0.20429 0.0
C252 C 0.5985 0.01359 0.19493 0.0
C253 C 0.63921 0.0166 0.19335 0.0
C254 C 0.57259 0.11684 0.22375 0.0
C255 C 0.57922 0.97594 0.18495 0.0
H256 H 0.45232 0.02119 0.24666 0.0
H257 H 0.45906 0.06437 0.14927 0.0
H258 H 0.54933 0.99522 0.25626 0.0
H259 H 0.54774 0.04444 0.27011 0.0
H260 H 0.50793 0.0119 0.27929 0.0
H261 H 0.51825 0.0776 0.12317 0.0
H262 H 0.55479 0.09638 0.15034 0.0
H263 H 0.55799 0.04718 0.1365 0.0
H264 H 0.65042 0.11129 0.21554 0.0
H265 H 0.65628 0.99185 0.18536 0.0
H266 H 0.55166 0.10873 0.24312 0.0
H267 H 0.55544 0.12857 0.20314 0.0
H268 H 0.59191 0.14029 0.23297 0.0
H269 H 0.55862 0.96602 0.20395 0.0
H270 H 0.60071 0.9524 0.18036 0.0
H271 H 0.56208 0.98076 0.16249 0.0
C272 C 0.08621 0.48166 0.67185 0.0
C273 C 0.05889 0.45849 0.68818 0.0
C274 C 0.08246 0.5223 0.67098 0.0
C275 C 0.0512 0.54028 0.68758 0.0
C276 C 0.02395 0.51706 0.7047 0.0
C277 C 0.02781 0.47632 0.7044 0.0
C278 C 0.11158 0.54594 0.65179 0.0
C279 C 0.99081 0.53526 0.72335 0.0
C280 C 0.06457 0.64778 0.7063 0.0
C281 C 0.04152 0.66518 0.68231 0.0
C282 C 0.06697 0.60708 0.709 0.0
C283 C 0.04681 0.58337 0.68649 0.0
C284 C 0.02361 0.60091 0.66211 0.0
C285 C 0.02079 0.64164 0.66063 0.0
C286 C 0.09119 0.58945 0.73581 0.0
C287 C 0.00258 0.57669 0.63709 0.0
H288 H 0.11009 0.46791 0.65904 0.0
H289 H 0.00678 0.45844 0.71719 0.0
H290 H 0.09626 0.56323 0.63295 0.0
H291 H 0.12671 0.56684 0.66793 0.0
H292 H 0.1338 0.52741 0.63977 0.0
H293 H 0.97319 0.51326 0.73661 0.0
H294 H 0.00236 0.55666 0.74105 0.0
H295 H 0.9714 0.55136 0.70653 0.0
H296 H 0.08038 0.66601 0.72323 0.0
H297 H 0.0032 0.65513 0.64189 0.0
H298 H 0.11596 0.57302 0.72531 0.0
H299 H 0.07343 0.56847 0.74999 0.0
H300 H 0.10295 0.61185 0.75258 0.0
H301 H 0.02391 0.55899 0.62328 0.0
H302 H 0.98577 0.59485 0.61972 0.0
H303 H 0.98229 0.55614 0.64916 0.0
C304 C 0.6318 0.02931 0.82316 0.0
C305 C 0.65487 0.05434 0.80436 0.0
C306 C 0.591 0.032 0.82271 0.0
C307 C 0.57278 0.05988 0.80242 0.0
C308 C 0.59593 0.08478 0.78292 0.0
C309 C 0.63675 0.082 0.78439 0.0
C310 C 0.56743 0.00547 0.84438 0.0
C311 C 0.57758 0.11439 0.76055 0.0
C312 C 0.46569 0.04249 0.7833 0.0
C313 C 0.44741 0.06846 0.80461 0.0
C314 C 0.50653 0.04015 0.78165 0.0
C315 C 0.52953 0.06363 0.8024 0.0
C316 C 0.51113 0.08991 0.82393 0.0
C317 C 0.47033 0.09232 0.8245 0.0
C318 C 0.52506 0.01235 0.75791 0.0
C319 C 0.53453 0.11484 0.84695 0.0
H320 H 0.64568 0.00805 0.83881 0.0
H321 H 0.65447 0.10126 0.76967 0.0
H322 H 0.54959 0.0231 0.86132 0.0
H323 H 0.54704 0.98781 0.82961 0.0
H324 H 0.58606 0.98544 0.85879 0.0
H325 H 0.59957 0.13031 0.74588 0.0
H326 H 0.55685 0.09978 0.74389 0.0
H327 H 0.5607 0.13585 0.77489 0.0
H328 H 0.44805 0.02413 0.76779 0.0
H329 H 0.45632 0.1122 0.84123 0.0
H330 H 0.54161 0.98966 0.77122 0.0
H331 H 0.54611 0.02816 0.74227 0.0
H332 H 0.5032 0.99779 0.74221 0.0
H333 H 0.55203 0.09598 0.86325 0.0
H334 H 0.51579 0.13395 0.86205 0.0
H335 H 0.55522 0.13336 0.83319 0.0
C336 C 0.07142 0.46019 0.27584 0.0
C337 C 0.05259 0.4438 0.30269 0.0
C338 C 0.07428 0.50079 0.27237 0.0
C339 C 0.05924 0.52526 0.29698 0.0
C340 C 0.04109 0.50862 0.32457 0.0
C341 C 0.03732 0.46804 0.32677 0.0
C342 C 0.09277 0.5175 0.24219 0.0
C343 C 0.0258 0.53366 0.35181 0.0
C344 C 0.09713 0.62853 0.30553 0.0
C345 C 0.06585 0.65039 0.29338 0.0
C346 C 0.09574 0.58771 0.30618 0.0
C347 C 0.06243 0.5683 0.29409 0.0
C348 C 0.03133 0.59016 0.28074 0.0
C349 C 0.03332 0.631 0.28071 0.0
C350 C 0.12931 0.56544 0.3209 0.0
C351 C 0.99556 0.57044 0.26719 0.0
H352 H 0.08288 0.44127 0.25711 0.0
H353 H 0.02303 0.45516 0.34764 0.0
H354 H 0.07171 0.53677 0.22956 0.0
H355 H 0.11831 0.53561 0.24877 0.0
H356 H 0.10241 0.49448 0.22508 0.0
H357 H 0.01397 0.51605 0.37217 0.0
H358 H 0.04943 0.55254 0.36127 0.0
H359 H 0.00243 0.55306 0.34267 0.0
H360 H 0.12236 0.64333 0.3154 0.0
H361 H 0.00912 0.64774 0.27118 0.0
H362 H 0.14045 0.54353 0.3035 0.0
H363 H 0.11914 0.54941 0.3427 0.0
H364 H 0.15374 0.58482 0.32806 0.0
H365 H 0.00409 0.54808 0.24915 0.0
H366 H 0.97534 0.59142 0.25545 0.0
H367 H 0.97971 0.55527 0.28695 0.0
C368 C 0.10422 0.19012 0.27942 0.0
C369 C 0.10403 0.231 0.2788 0.0
C370 C 0.13272 0.16874 0.26281 0.0
C371 C 0.16176 0.1886 0.24488 0.0
C372 C 0.16197 0.22983 0.24422 0.0
C373 C 0.13318 0.25055 0.26126 0.0
C374 C 0.13155 0.12479 0.26429 0.0
C375 C 0.19228 0.252 0.22515 0.0
C376 C 0.2516 0.12845 0.22505 0.0
C377 C 0.24187 0.11354 0.19447 0.0
C378 C 0.22649 0.15418 0.24132 0.0
C379 C 0.19122 0.16583 0.22634 0.0
C380 C 0.18248 0.15274 0.19464 0.0
C381 C 0.20769 0.12643 0.17924 0.0
C382 C 0.23662 0.16706 0.27526 0.0
C383 C 0.14558 0.16506 0.17755 0.0
H384 H 0.08198 0.17461 0.2929 0.0
H385 H 0.13331 0.2821 0.2605 0.0
H386 H 0.12723 0.11277 0.2396 0.0
H387 H 0.15972 0.11339 0.27346 0.0
H388 H 0.10782 0.11381 0.28018 0.0
H389 H 0.18887 0.28404 0.22754 0.0
H390 H 0.22189 0.24379 0.23346 0.0
H391 H 0.19023 0.2442 0.19912 0.0
H392 H 0.27782 0.11839 0.23706 0.0
H393 H 0.20018 0.11526 0.15548 0.0
H394 H 0.21581 0.15389 0.29269 0.0
H395 H 0.23397 0.19914 0.27747 0.0
H396 H 0.26661 0.15835 0.28233 0.0
H397 H 0.12004 0.15199 0.18995 0.0
H398 H 0.14519 0.15586 0.15175 0.0
H399 H 0.14215 0.19716 0.17862 0.0
C400 C 0.9875 0.20868 0.68595 0.0
C401 C 0.99623 0.24564 0.69843 0.0
C402 C 0.95847 0.18529 0.70001 0.0
C403 C 0.9382 0.19879 0.72771 0.0
C404 C 0.94566 0.2368 0.73953 0.0
C405 C 0.97433 0.25992 0.72456 0.0
C406 C 0.95102 0.14526 0.68625 0.0
C407 C 0.92517 0.2521 0.76927 0.0
C408 C 0.85067 0.14021 0.75788 0.0
C409 C 0.86822 0.11561 0.78084 0.0
C410 C 0.87283 0.16793 0.74061 0.0
C411 C 0.91335 0.17128 0.74666 0.0
C412 C 0.93092 0.14718 0.77034 0.0
C413 C 0.90827 0.11972 0.78698 0.0
C414 C 0.85313 0.19298 0.7154 0.0
C415 C 0.97395 0.14987 0.77779 0.0
H416 H 0.004 0.19763 0.66553 0.0
H417 H 0.98101 0.28839 0.73442 0.0
H418 H 0.96243 0.12287 0.70319 0.0
H419 H 0.91929 0.1401 0.68353 0.0
H420 H 0.96525 0.14117 0.66231 0.0
H421 H 0.93073 0.28363 0.77311 0.0
H422 H 0.8933 0.24735 0.7674 0.0
H423 H 0.9355 0.23594 0.79095 0.0
H424 H 0.81982 0.13727 0.75288 0.0
H425 H 0.92224 0.10121 0.80483 0.0
H426 H 0.86548 0.18653 0.69114 0.0
H427 H 0.85873 0.22421 0.72038 0.0
H428 H 0.82116 0.18812 0.71458 0.0
H429 H 0.99111 0.14208 0.75595 0.0
H430 H 0.98278 0.13026 0.79793 0.0
H431 H 0.98178 0.18019 0.78439 0.0
C432 C 0.97795 0.84919 0.2529 0.0
C433 C 0.99028 0.85981 0.28406 0.0
C434 C 0.95255 0.87321 0.23507 0.0
C435 C 0.93863 0.90823 0.24902 0.0
C436 C 0.94937 0.91793 0.28116 0.0
C437 C 0.97535 0.89384 0.29813 0.0
C438 C 0.94218 0.8621 0.20075 0.0
C439 C 0.93462 0.95457 0.2972 0.0
C440 C 0.91115 0.99475 0.19619 0.0
C441 C 0.87027 0.99357 0.1971 0.0
C442 C 0.93366 0.96646 0.21214 0.0
C443 C 0.91497 0.93614 0.2295 0.0
C444 C 0.8738 0.934 0.22971 0.0
C445 C 0.85197 0.9627 0.21352 0.0
C446 C 0.97752 0.96976 0.21126 0.0
C447 C 0.85278 0.90218 0.24797 0.0
H448 H 0.98971 0.82313 0.24179 0.0
H449 H 0.98463 0.90206 0.3223 0.0
H450 H 0.91016 0.86302 0.19726 0.0
H451 H 0.95516 0.88344 0.18365 0.0
H452 H 0.95285 0.83256 0.19433 0.0
H453 H 0.94306 0.95622 0.32316 0.0
H454 H 0.94657 0.98045 0.28449 0.0
H455 H 0.90242 0.95616 0.29545 0.0
H456 H 0.92571 0.01834 0.18361 0.0
H457 H 0.82044 0.96136 0.21441 0.0
H458 H 0.99056 0.94194 0.20299 0.0
H459 H 0.98872 0.97551 0.23602 0.0
H460 H 0.9876 0.99352 0.19498 0.0
H461 H 0.86385 0.8732 0.24052 0.0
H462 H 0.8208 0.90304 0.24396 0.0
H463 H 0.8585 0.90521 0.27432 0.0
C464 C 0.13385 0.85734 0.72182 0.0
C465 C 0.10743 0.87644 0.70125 0.0
C466 C 0.16234 0.87836 0.73907 0.0
C467 C 0.16444 0.91938 0.73563 0.0
C468 C 0.13862 0.93859 0.71419 0.0
C469 C 0.11055 0.91699 0.69736 0.0
C470 C 0.18939 0.85686 0.7617 0.0
C471 C 0.1398 0.98228 0.70974 0.0
C472 C 0.20045 0.98602 0.80227 0.0
C473 C 0.23677 0.99802 0.79024 0.0
C474 C 0.17775 0.95856 0.7857 0.0
C475 C 0.19136 0.943 0.75604 0.0
C476 C 0.22876 0.95364 0.74445 0.0
C477 C 0.25118 0.98087 0.76183 0.0
C478 C 0.13829 0.94773 0.79917 0.0
C479 C 0.2442 0.93788 0.71283 0.0
H480 H 0.13184 0.82607 0.72497 0.0
H481 H 0.09061 0.9322 0.6814 0.0
H482 H 0.22009 0.86487 0.75661 0.0
H483 H 0.18314 0.86543 0.7871 0.0
H484 H 0.18628 0.82476 0.75963 0.0
H485 H 0.11935 0.99248 0.69067 0.0
H486 H 0.13206 0.99681 0.73287 0.0
H487 H 0.16966 0.99179 0.70317 0.0
H488 H 0.18934 0.99868 0.82448 0.0
H489 H 0.27921 0.99 0.7524 0.0
H490 H 0.13476 0.91562 0.79968 0.0
H491 H 0.11512 0.95966 0.78324 0.0
H492 H 0.13375 0.95917 0.82406 0.0
H493 H 0.2408 0.90578 0.71191 0.0
H494 H 0.27538 0.94527 0.70909 0.0
H495 H 0.22712 0.95026 0.69244 0.0
C496 C 0.8107 0.94673 0.74561 0.0
C497 C 0.82172 0.96882 0.77256 0.0
C498 C 0.83564 0.91796 0.73316 0.0
C499 C 0.87283 0.91251 0.74735 0.0
C500 C 0.88422 0.93531 0.77422 0.0
C501 C 0.85819 0.96263 0.78687 0.0
C502 C 0.82217 0.89328 0.70508 0.0
C503 C 0.92419 0.93144 0.78925 0.0
C504 C 0.93352 0.8214 0.73497 0.0
C505 C 0.95776 0.83305 0.70948 0.0
C506 C 0.90441 0.84641 0.74668 0.0
C507 C 0.90081 0.88431 0.73337 0.0
C508 C 0.9257 0.89626 0.70792 0.0
C509 C 0.95335 0.87014 0.69585 0.0
C510 C 0.87754 0.83235 0.7732 0.0
C511 C 0.92387 0.93696 0.694 0.0
H512 H 0.78225 0.95126 0.73483 0.0
H513 H 0.86686 0.97969 0.80765 0.0
H514 H 0.84097 0.89859 0.68367 0.0
H515 H 0.82482 0.86195 0.71137 0.0
H516 H 0.79149 0.89945 0.69823 0.0
H517 H 0.92876 0.95217 0.80954 0.0
H518 H 0.9285 0.90144 0.79854 0.0
H519 H 0.94692 0.93676 0.77062 0.0
H520 H 0.9367 0.79244 0.74515 0.0
H521 H 0.97215 0.87918 0.67618 0.0
H522 H 0.84674 0.83674 0.76589 0.0
H523 H 0.8824 0.84957 0.79555 0.0
H524 H 0.88205 0.80106 0.77897 0.0
H525 H 0.89444 0.9428 0.68407 0.0
H526 H 0.94561 0.94166 0.67444 0.0
H527 H 0.9292 0.9586 0.71346 0.0
C528 C 0.24107 0.96459 0.20156 0.0
C529 C 0.27683 0.96707 0.21771 0.0
C530 C 0.2128 0.93766 0.21124 0.0
C531 C 0.2213 0.9116 0.23684 0.0
C532 C 0.25749 0.91397 0.25325 0.0
C533 C 0.28467 0.94233 0.24384 0.0
C534 C 0.17392 0.93712 0.19409 0.0
C535 C 0.2678 0.88597 0.28017 0.0
C536 C 0.13937 0.86274 0.28248 0.0
C537 C 0.1374 0.82648 0.2671 0.0
C538 C 0.16585 0.89112 0.27225 0.0
C539 C 0.19194 0.88236 0.2468 0.0
C540 C 0.18992 0.84581 0.23096 0.0
C541 C 0.16204 0.8184 0.24099 0.0
C542 C 0.16607 0.93032 0.28885 0.0
C543 C 0.21794 0.83527 0.20417 0.0
H544 H 0.23507 0.98388 0.1814 0.0
H545 H 0.31264 0.94411 0.25595 0.0
H546 H 0.1697 0.90877 0.18176 0.0
H547 H 0.14998 0.94035 0.21196 0.0
H548 H 0.17134 0.96073 0.17577 0.0
H549 H 0.29766 0.8909 0.2897 0.0
H550 H 0.24681 0.88894 0.30045 0.0
H551 H 0.26571 0.85557 0.27124 0.0
H552 H 0.12013 0.86903 0.30257 0.0
H553 H 0.16064 0.79012 0.22941 0.0
H554 H 0.16324 0.95395 0.27062 0.0
H555 H 0.19418 0.93471 0.30156 0.0
H556 H 0.14211 0.93324 0.30678 0.0
H557 H 0.21532 0.85631 0.18387 0.0
H558 H 0.21278 0.80547 0.19465 0.0
H559 H 0.2483 0.83704 0.21329 0.0
C560 C 0.17926 0.30049 0.72962 0.0
C561 C 0.13925 0.29355 0.73187 0.0
C562 C 0.20615 0.27295 0.74087 0.0
C563 C 0.19248 0.23722 0.75369 0.0
C564 C 0.15188 0.23042 0.75648 0.0
C565 C 0.1256 0.25896 0.74567 0.0
C566 C 0.24916 0.28164 0.73815 0.0
C567 C 0.13627 0.19242 0.76957 0.0
C568 C 0.26338 0.15226 0.75094 0.0
C569 C 0.27617 0.151 0.78312 0.0
C570 C 0.23547 0.17978 0.74109 0.0
C571 C 0.22081 0.20695 0.76389 0.0
C572 C 0.23408 0.206 0.79629 0.0
C573 C 0.26133 0.17782 0.80557 0.0
C574 C 0.2215 0.17967 0.70639 0.0
C575 C 0.21979 0.23498 0.82111 0.0
H576 H 0.18949 0.32712 0.71829 0.0
H577 H 0.09451 0.25345 0.74645 0.0
H578 H 0.26351 0.27771 0.76203 0.0
H579 H 0.26297 0.26093 0.72104 0.0
H580 H 0.25484 0.31176 0.72947 0.0
H581 H 0.10395 0.1921 0.7708 0.0
H582 H 0.14598 0.16807 0.75386 0.0
H583 H 0.14805 0.18686 0.79418 0.0
H584 H 0.27461 0.13132 0.73366 0.0
H585 H 0.27133 0.17702 0.83049 0.0
H586 H 0.22877 0.20781 0.69461 0.0
H587 H 0.18934 0.17655 0.70571 0.0
H588 H 0.2347 0.15574 0.69201 0.0
H589 H 0.22659 0.26503 0.81296 0.0
H590 H 0.23315 0.2303 0.84533 0.0
H591 H 0.18769 0.2329 0.82359 0.0
C592 C 0.97089 0.25486 0.24775 0.0
C593 C 0.95996 0.28336 0.27009 0.0
C594 C 0.94434 0.22594 0.23833 0.0
C595 C 0.90594 0.22656 0.25098 0.0
C596 C 0.89457 0.25633 0.27266 0.0
C597 C 0.92206 0.28399 0.28246 0.0
C598 C 0.95764 0.19413 0.21567 0.0
C599 C 0.85358 0.25869 0.2858 0.0
C600 C 0.82892 0.17414 0.2025 0.0
C601 C 0.82372 0.13991 0.22054 0.0
C602 C 0.85511 0.20283 0.21248 0.0
C603 C 0.87729 0.19671 0.24087 0.0
C604 C 0.87193 0.16234 0.25946 0.0
C605 C 0.8447 0.13436 0.24922 0.0
C606 C 0.85923 0.23953 0.1925 0.0
C607 C 0.89562 0.15474 0.28964 0.0
H608 H 0.00066 0.25405 0.239 0.0
H609 H 0.91409 0.30598 0.30011 0.0
H610 H 0.95365 0.1653 0.2274 0.0
H611 H 0.93963 0.19429 0.19335 0.0
H612 H 0.98873 0.19736 0.20867 0.0
H613 H 0.84912 0.28468 0.30137 0.0
H614 H 0.83238 0.25979 0.26551 0.0
H615 H 0.84691 0.23225 0.30025 0.0
H616 H 0.81241 0.17849 0.18037 0.0
H617 H 0.84085 0.10767 0.26293 0.0
H618 H 0.8893 0.24179 0.18283 0.0
H619 H 0.85413 0.26549 0.20791 0.0
H620 H 0.83855 0.24039 0.1718 0.0
H621 H 0.92709 0.15464 0.28351 0.0
H622 H 0.8881 0.1265 0.30122 0.0
H623 H 0.8909 0.17839 0.30749 0.0
loop_
_geom_bond_atom_site_label_1
_geom_bond_atom_site_label_2
_geom_bond_distance
_geom_bond_site_symmetry_2
_ccdc_geom_bond_type
Co0 O1 2.216 . S
Co0 O2 2.091 . S
Co0 O4 2.004 . S
Co0 O10 2.021 . S
Co0 O12 2.137 . S
Co0 O13 2.244 1_545 S
O1 Co0 2.216 . S
O1 C8 1.247 . S
O2 Co0 2.091 . S
O2 C8 1.261 . S
C3 O12 1.247 1_565 S
C3 O13 1.272 . S
O4 Co0 2.004 . S
O4 C9 1.259 . S
Co5 O6 2.061 . S
Co5 O11 2.052 . S
Co5 O13 2.135 1_545 S
O6 Co5 2.061 . S
O6 C9 1.235 . S
C7 O10 1.238 . S
C7 O11 1.241 . S
C8 O1 1.247 . S
C8 O2 1.261 . S
C9 O4 1.259 . S
C9 O6 1.235 . S
O10 Co0 2.021 . S
O10 C7 1.238 . S
O11 Co5 2.052 . S
O11 C7 1.241 . S
O12 Co0 2.137 . S
O12 C3 1.247 1_545 S
O13 Co0 2.244 1_565 S
O13 C3 1.272 . S
O13 Co5 2.135 1_565 S
Co14 O15 2.216 . S
Co14 O16 2.091 . S
Co14 O18 2.004 . S
Co14 O24 2.021 . S
Co14 O26 2.137 . S
Co14 O27 2.244 . S
O15 Co14 2.216 . S
O15 C22 1.247 . S
O16 Co14 2.091 . S
O16 C22 1.261 . S
C17 O26 1.247 . S
C17 O27 1.272 . S
O18 Co14 2.004 . S
O18 C23 1.259 . S
Co19 O20 2.061 . S
Co19 O25 2.052 . S
Co19 O27 2.135 . S
O20 Co19 2.061 . S
O20 C23 1.235 . S
C21 O24 1.238 . S
C21 O25 1.241 . S
C22 O15 1.247 . S
C22 O16 1.261 . S
C23 O18 1.259 . S
C23 O20 1.235 . S
O24 Co14 2.021 . S
O24 C21 1.238 . S
O25 Co19 2.052 . S
O25 C21 1.241 . S
O26 Co14 2.137 . S
O26 C17 1.247 . S
O27 Co14 2.244 . S
O27 C17 1.272 . S
O27 Co19 2.135 . S
Co28 O29 2.216 . S
Co28 O30 2.091 . S
Co28 O32 2.004 . S
Co28 O38 2.021 . S
Co28 O40 2.137 . S
Co28 O41 2.244 . S
O29 Co28 2.216 . S
O29 C36 1.247 . S
O30 Co28 2.091 . S
O30 C36 1.261 . S
C31 O40 1.247 . S
C31 O41 1.272 . S
O32 Co28 2.004 . S
O32 C37 1.259 . S
Co33 O34 2.061 . S
Co33 O39 2.052 . S
Co33 O41 2.135 . S
O34 Co33 2.061 . S
O34 C37 1.235 . S
C35 O38 1.238 . S
C35 O39 1.241 . S
C36 O29 1.247 . S
C36 O30 1.261 . S
C37 O32 1.259 . S
C37 O34 1.235 . S
O38 Co28 2.021 . S
O38 C35 1.238 . S
O39 Co33 2.052 . S
O39 C35 1.241 . S
O40 Co28 2.137 . S
O40 C31 1.247 . S
O41 Co28 2.244 . S
O41 C31 1.272 . S
O41 Co33 2.135 . S
Co42 O43 2.216 . S
Co42 O44 2.091 . S
Co42 O46 2.004 . S
Co42 O52 2.021 . S
Co42 O54 2.137 . S
Co42 O55 2.244 1_455 S
O43 Co42 2.216 . S
O43 C50 1.247 . S
O44 Co42 2.091 . S
O44 C50 1.261 . S
C45 O54 1.247 1_655 S
C45 O55 1.272 . S
O46 Co42 2.004 . S
O46 C51 1.259 . S
Co47 O48 2.061 . S
Co47 O53 2.052 . S
Co47 O55 2.135 1_455 S
O48 Co47 2.061 . S
O48 C51 1.235 . S
C49 O52 1.238 . S
C49 O53 1.241 . S
C50 O43 1.247 . S
C50 O44 1.261 . S
C51 O46 1.259 . S
C51 O48 1.235 . S
O52 Co42 2.021 . S
O52 C49 1.238 . S
O53 Co47 2.052 . S
O53 C49 1.241 . S
O54 Co42 2.137 . S
O54 C45 1.247 1_455 S
O55 Co42 2.244 1_655 S
O55 C45 1.272 . S
O55 Co47 2.135 1_655 S
Co56 O57 2.216 . S
Co56 O58 2.091 . S
Co56 O60 2.004 . S
Co56 O66 2.021 . S
Co56 O68 2.137 . S
Co56 O69 2.244 . S
O57 Co56 2.216 . S
O57 C64 1.247 . S
O58 Co56 2.091 . S
O58 C64 1.261 . S
C59 O68 1.247 . S
C59 O69 1.272 . S
O60 Co56 2.004 . S
O60 C65 1.259 . S
Co61 O62 2.061 . S
Co61 O67 2.052 . S
Co61 O69 2.135 . S
O62 Co61 2.061 . S
O62 C65 1.235 . S
C63 O66 1.238 . S
C63 O67 1.241 . S
C64 O57 1.247 . S
C64 O58 1.261 . S
C65 O60 1.259 . S
C65 O62 1.235 . S
O66 Co56 2.021 . S
O66 C63 1.238 . S
O67 Co61 2.052 . S
O67 C63 1.241 . S
O68 Co56 2.137 . S
O68 C59 1.247 . S
O69 Co56 2.244 . S
O69 C59 1.272 . S
O69 Co61 2.135 . S
Co70 O71 2.216 . S
Co70 O72 2.091 . S
Co70 O74 2.004 . S
Co70 O80 2.021 . S
Co70 O82 2.137 . S
Co70 O83 2.244 1_455 S
O71 Co70 2.216 . S
O71 C78 1.247 . S
O72 Co70 2.091 . S
O72 C78 1.261 . S
C73 O82 1.247 1_655 S
C73 O83 1.272 . S
O74 Co70 2.004 . S
O74 C79 1.259 . S
Co75 O76 2.061 . S
Co75 O81 2.052 . S
Co75 O83 2.135 1_455 S
O76 Co75 2.061 . S
O76 C79 1.235 . S
C77 O80 1.238 . S
C77 O81 1.241 . S
C78 O71 1.247 . S
C78 O72 1.261 . S
C79 O74 1.259 . S
C79 O76 1.235 . S
O80 Co70 2.021 . S
O80 C77 1.238 . S
O81 Co75 2.052 . S
O81 C77 1.241 . S
O82 Co70 2.137 . S
O82 C73 1.247 1_455 S
O83 Co70 2.244 1_655 S
O83 C73 1.272 . S
O83 Co75 2.135 1_655 S
Co84 O85 2.216 . S
Co84 O86 2.091 . S
Co84 O88 2.004 . S
Co84 O94 2.021 . S
Co84 O96 2.137 . S
Co84 O97 2.244 1_545 S
O85 Co84 2.216 . S
O85 C92 1.247 . S
O86 Co84 2.091 . S
O86 C92 1.261 . S
C87 O96 1.247 1_565 S
C87 O97 1.272 . S
O88 Co84 2.004 . S
O88 C93 1.259 . S
Co89 O90 2.061 . S
Co89 O95 2.052 . S
Co89 O97 2.135 1_545 S
O90 Co89 2.061 . S
O90 C93 1.235 . S
C91 O94 1.238 . S
C91 O95 1.241 . S
C92 O85 1.247 . S
C92 O86 1.261 . S
C93 O88 1.259 . S
C93 O90 1.235 . S
O94 Co84 2.021 . S
O94 C91 1.238 . S
O95 Co89 2.052 . S
O95 C91 1.241 . S
O96 Co84 2.137 . S
O96 C87 1.247 1_545 S
O97 Co84 2.244 1_565 S
O97 C87 1.272 . S
O97 Co89 2.135 1_565 S
Co98 O99 2.216 . S
Co98 O100 2.091 . S
Co98 O102 2.004 . S
Co98 O108 2.021 . S
Co98 O110 2.137 . S
Co98 O111 2.244 . S
O99 Co98 2.216 . S
O99 C106 1.247 . S
O100 Co98 2.091 . S
O100 C106 1.261 . S
C101 O110 1.247 . S
C101 O111 1.272 . S
O102 Co98 2.004 . S
O102 C107 1.259 . S
Co103 O104 2.061 . S
Co103 O109 2.052 . S
Co103 O111 2.135 . S
O104 Co103 2.061 . S
O104 C107 1.235 . S
C105 O108 1.238 . S
C105 O109 1.241 . S
C106 O99 1.247 . S
C106 O100 1.261 . S
C107 O102 1.259 . S
C107 O104 1.235 . S
O108 Co98 2.021 . S
O108 C105 1.238 . S
O109 Co103 2.052 . S
O109 C105 1.241 . S
O110 Co98 2.137 . S
O110 C101 1.247 . S
O111 Co98 2.244 . S
O111 C101 1.272 . S
O111 Co103 2.135 . S
C112 C113 1.391 . S
C112 C114 1.394 . S
C112 H128 0.931 1_545 S
C113 C112 1.391 . S
C113 C117 1.376 . S
C114 C112 1.394 . S
C114 C115 1.369 . S
C114 C118 1.531 1_545 S
C115 C114 1.369 . S
C115 C116 1.410 . S
C115 C123 1.503 1_554 S
C116 C115 1.410 . S
C116 C117 1.392 . S
C116 C119 1.511 . S
C117 C113 1.376 . S
C117 C116 1.392 . S
C117 H129 0.929 . S
C118 C114 1.531 1_565 S
C118 H130 0.960 1_554 S
C118 H131 0.962 . S
C118 H132 0.960 . S
C119 C116 1.511 . S
C119 H133 0.961 . S
C119 H134 0.961 1_554 S
C119 H135 0.961 . S
C120 C121 1.370 . S
C120 C122 1.363 . S
C120 H136 0.931 . S
C121 C120 1.370 . S
C121 C125 1.408 . S
C122 C120 1.363 . S
C122 C123 1.370 . S
C122 C126 1.524 . S
C123 C115 1.503 1_556 S
C123 C122 1.370 . S
C123 C124 1.403 . S
C124 C123 1.403 . S
C124 C125 1.404 . S
C124 C127 1.539 . S
C125 C121 1.408 . S
C125 C124 1.404 . S
C125 H137 0.930 . S
C126 C122 1.524 . S
C126 H138 0.956 . S
C126 H139 0.961 1_556 S
C126 H140 0.961 . S
C127 C124 1.539 . S
C127 H141 0.958 . S
C127 H142 0.961 . S
C127 H143 0.973 . S
H128 C112 0.931 1_565 S
H129 C117 0.929 . S
H130 C118 0.960 1_556 S
H131 C118 0.962 . S
H132 C118 0.960 . S
H133 C119 0.961 . S
H134 C119 0.961 1_556 S
H135 C119 0.961 . S
H136 C120 0.931 . S
H137 C125 0.930 . S
H138 C126 0.956 . S
H139 C126 0.961 1_554 S
H140 C126 0.961 . S
H141 C127 0.958 . S
H142 C127 0.961 . S
H143 C127 0.973 . S
C144 C145 1.391 . S
C144 C146 1.394 . S
C144 H160 0.931 1_455 S
C145 C144 1.391 . S
C145 C149 1.376 . S
C146 C144 1.394 . S
C146 C147 1.369 . S
C146 C150 1.531 1_455 S
C147 C146 1.369 . S
C147 C148 1.410 . S
C147 C155 1.503 . S
C148 C147 1.410 . S
C148 C149 1.392 . S
C148 C151 1.511 . S
C149 C145 1.376 . S
C149 C148 1.392 . S
C149 H161 0.929 . S
C150 C146 1.531 1_655 S
C150 H162 0.960 . S
C150 H163 0.962 . S
C150 H164 0.960 . S
C151 C148 1.511 . S
C151 H165 0.961 . S
C151 H166 0.961 . S
C151 H167 0.961 . S
C152 C153 1.370 . S
C152 C154 1.363 . S
C152 H168 0.931 . S
C153 C152 1.370 . S
C153 C157 1.408 . S
C154 C152 1.363 . S
C154 C155 1.370 . S
C154 C158 1.524 . S
C155 C147 1.503 . S
C155 C154 1.370 . S
C155 C156 1.403 . S
C156 C155 1.403 . S
C156 C157 1.404 . S
C156 C159 1.539 . S
C157 C153 1.408 . S
C157 C156 1.404 . S
C157 H169 0.930 . S
C158 C154 1.524 . S
C158 H170 0.956 . S
C158 H171 0.961 . S
C158 H172 0.961 . S
C159 C156 1.539 . S
C159 H173 0.958 . S
C159 H174 0.961 . S
C159 H175 0.960 . S
H160 C144 0.931 1_655 S
H161 C149 0.929 . S
H162 C150 0.960 . S
H163 C150 0.962 . S
H164 C150 0.960 . S
H165 C151 0.961 . S
H166 C151 0.961 . S
H167 C151 0.961 . S
H168 C152 0.931 . S
H169 C157 0.930 . S
H170 C158 0.956 . S
H171 C158 0.961 . S
H172 C158 0.961 . S
H173 C159 0.958 . S
H174 C159 0.961 . S
H175 C159 0.960 . S
C176 C177 1.391 . S
C176 C178 1.394 . S
C176 H192 0.931 . S
C177 C176 1.391 . S
C177 C181 1.376 . S
C178 C176 1.394 . S
C178 C179 1.369 . S
C178 C182 1.531 . S
C179 C178 1.369 . S
C179 C180 1.410 . S
C179 C187 1.503 1_556 S
C180 C179 1.410 . S
C180 C181 1.392 . S
C180 C183 1.511 . S
C181 C177 1.376 . S
C181 C180 1.392 . S
C181 H193 0.929 . S
C182 C178 1.531 . S
C182 H194 0.960 1_556 S
C182 H195 0.962 . S
C182 H196 0.960 . S
C183 C180 1.511 . S
C183 H197 0.961 . S
C183 H198 0.961 1_556 S
C183 H199 0.961 . S
C184 C185 1.370 . S
C184 C186 1.363 . S
C184 H200 0.931 . S
C185 C184 1.370 . S
C185 C189 1.408 . S
C186 C184 1.363 . S
C186 C187 1.370 . S
C186 C190 1.524 1_545 S
C187 C179 1.503 1_554 S
C187 C186 1.370 . S
C187 C188 1.403 . S
C188 C187 1.403 . S
C188 C189 1.404 . S
C188 C191 1.539 . S
C189 C185 1.408 . S
C189 C188 1.404 . S
C189 H201 0.930 . S
C190 C186 1.524 1_565 S
C190 H202 0.956 1_565 S
C190 H203 0.961 1_554 S
C190 H204 0.961 . S
C191 C188 1.539 . S
C191 H205 0.958 . S
C191 H206 0.961 . S
C191 H207 0.958 1_554 S
H192 C176 0.931 . S
H193 C181 0.929 . S
H194 C182 0.960 1_554 S
H195 C182 0.962 . S
H196 C182 0.960 . S
H197 C183 0.961 . S
H198 C183 0.961 1_554 S
H199 C183 0.961 . S
H200 C184 0.931 . S
H201 C189 0.930 . S
H202 C190 0.956 1_545 S
H203 C190 0.961 1_556 S
H204 C190 0.961 . S
H205 C191 0.958 . S
H206 C191 0.961 . S
H207 C191 0.958 1_556 S
C208 C209 1.391 . S
C208 C210 1.394 . S
C208 H224 0.931 1_455 S
C209 C208 1.391 . S
C209 C213 1.376 . S
C210 C208 1.394 . S
C210 C211 1.369 . S
C210 C214 1.531 1_455 S
C211 C210 1.369 . S
C211 C212 1.410 . S
C211 C219 1.503 . S
C212 C211 1.410 . S
C212 C213 1.392 . S
C212 C215 1.511 . S
C213 C209 1.376 . S
C213 C212 1.392 . S
C213 H225 0.929 . S
C214 C210 1.531 1_655 S
C214 H226 0.960 . S
C214 H227 0.962 . S
C214 H228 0.960 . S
C215 C212 1.511 . S
C215 H229 0.961 . S
C215 H230 0.961 . S
C215 H231 0.961 . S
C216 C217 1.370 . S
C216 C218 1.363 . S
C216 H232 0.931 . S
C217 C216 1.370 . S
C217 C221 1.408 . S
C218 C216 1.363 . S
C218 C219 1.370 . S
C218 C222 1.524 . S
C219 C211 1.503 . S
C219 C218 1.370 . S
C219 C220 1.403 . S
C220 C219 1.403 . S
C220 C221 1.404 . S
C220 C223 1.539 . S
C221 C217 1.408 . S
C221 C220 1.404 . S
C221 H233 0.930 . S
C222 C218 1.524 . S
C222 H234 0.956 . S
C222 H235 0.961 . S
C222 H236 0.961 . S
C223 C220 1.539 . S
C223 H237 0.958 . S
C223 H238 0.961 . S
C223 H239 0.960 . S
H224 C208 0.931 1_655 S
H225 C213 0.929 . S
H226 C214 0.960 . S
H227 C214 0.962 . S
H228 C214 0.960 . S
H229 C215 0.961 . S
H230 C215 0.961 . S
H231 C215 0.961 . S
H232 C216 0.931 . S
H233 C221 0.930 . S
H234 C222 0.956 . S
H235 C222 0.961 . S
H236 C222 0.961 . S
H237 C223 0.958 . S
H238 C223 0.961 . S
H239 C223 0.960 . S
C240 C241 1.391 . S
C240 C242 1.394 . S
C240 H256 0.931 1_545 S
C241 C240 1.391 . S
C241 C245 1.376 . S
C242 C240 1.394 . S
C242 C243 1.369 . S
C242 C246 1.531 1_545 S
C243 C242 1.369 . S
C243 C244 1.410 . S
C243 C251 1.503 . S
C244 C243 1.410 . S
C244 C245 1.392 . S
C244 C247 1.511 . S
C245 C241 1.376 . S
C245 C244 1.392 . S
C245 H257 0.929 . S
C246 C242 1.531 1_565 S
C246 H258 0.960 . S
C246 H259 0.962 1_565 S
C246 H260 0.960 . S
C247 C244 1.511 . S
C247 H261 0.961 . S
C247 H262 0.961 . S
C247 H263 0.961 . S
C248 C249 1.370 . S
C248 C250 1.363 . S
C248 H264 0.931 . S
C249 C248 1.370 . S
C249 C253 1.408 . S
C250 C248 1.363 . S
C250 C251 1.370 . S
C250 C254 1.524 . S
C251 C243 1.503 . S
C251 C250 1.370 . S
C251 C252 1.403 . S
C252 C251 1.403 . S
C252 C253 1.404 . S
C252 C255 1.539 . S
C253 C249 1.408 . S
C253 C252 1.404 . S
C253 H265 0.930 . S
C254 C250 1.524 . S
C254 H266 0.956 . S
C254 H267 0.961 . S
C254 H268 0.961 . S
C255 C252 1.539 . S
C255 H269 0.958 1_545 S
C255 H270 0.961 . S
C255 H271 0.960 . S
H256 C240 0.931 1_565 S
H257 C245 0.929 . S
H258 C246 0.960 . S
H259 C246 0.962 1_545 S
H260 C246 0.960 . S
H261 C247 0.961 . S
H262 C247 0.961 . S
H263 C247 0.961 . S
H264 C248 0.931 . S
H265 C253 0.930 . S
H266 C254 0.956 . S
H267 C254 0.961 . S
H268 C254 0.961 . S
H269 C255 0.958 1_565 S
H270 C255 0.961 . S
H271 C255 0.960 . S
C272 C273 1.391 . S
C272 C274 1.394 . S
C272 H288 0.931 . S
C273 C272 1.391 . S
C273 C277 1.376 . S
C274 C272 1.394 . S
C274 C275 1.369 . S
C274 C278 1.531 . S
C275 C274 1.369 . S
C275 C276 1.410 . S
C275 C283 1.503 . S
C276 C275 1.410 . S
C276 C277 1.392 . S
C276 C279 1.511 1_455 S
C277 C273 1.376 . S
C277 C276 1.392 . S
C277 H289 0.929 . S
C278 C274 1.531 . S
C278 H290 0.960 . S
C278 H291 0.962 . S
C278 H292 0.960 . S
C279 C276 1.511 1_655 S
C279 H293 0.961 . S
C279 H294 0.961 . S
C279 H295 0.961 . S
C280 C281 1.370 . S
C280 C282 1.363 . S
C280 H296 0.931 . S
C281 C280 1.370 . S
C281 C285 1.408 . S
C282 C280 1.363 . S
C282 C283 1.370 . S
C282 C286 1.524 . S
C283 C275 1.503 . S
C283 C282 1.370 . S
C283 C284 1.403 . S
C284 C283 1.403 . S
C284 C285 1.404 . S
C284 C287 1.539 . S
C285 C281 1.408 . S
C285 C284 1.404 . S
C285 H297 0.930 . S
C286 C282 1.524 . S
C286 H298 0.956 . S
C286 H299 0.961 . S
C286 H300 0.961 . S
C287 C284 1.539 . S
C287 H301 0.958 . S
C287 H302 0.961 . S
C287 H303 0.960 . S
H288 C272 0.931 . S
H289 C277 0.929 . S
H290 C278 0.960 . S
H291 C278 0.962 . S
H292 C278 0.960 . S
H293 C279 0.961 . S
H294 C279 0.961 . S
H295 C279 0.961 . S
H296 C280 0.931 . S
H297 C285 0.930 . S
H298 C286 0.956 . S
H299 C286 0.961 . S
H300 C286 0.961 . S
H301 C287 0.958 . S
H302 C287 0.961 . S
H303 C287 0.960 . S
C304 C305 1.391 . S
C304 C306 1.394 . S
C304 H320 0.931 1_545 S
C305 C304 1.391 . S
C305 C309 1.376 . S
C306 C304 1.394 . S
C306 C307 1.369 . S
C306 C310 1.531 1_545 S
C307 C306 1.369 . S
C307 C308 1.410 . S
C307 C315 1.503 . S
C308 C307 1.410 . S
C308 C309 1.392 . S
C308 C311 1.511 . S
C309 C305 1.376 . S
C309 C308 1.392 . S
C309 H321 0.929 . S
C310 C306 1.531 1_565 S
C310 H322 0.960 . S
C310 H323 0.962 . S
C310 H324 0.960 . S
C311 C308 1.511 . S
C311 H325 0.961 . S
C311 H326 0.961 . S
C311 H327 0.961 . S
C312 C313 1.370 . S
C312 C314 1.363 . S
C312 H328 0.931 . S
C313 C312 1.370 . S
C313 C317 1.408 . S
C314 C312 1.363 . S
C314 C315 1.370 . S
C314 C318 1.524 . S
C315 C307 1.503 . S
C315 C314 1.370 . S
C315 C316 1.403 . S
C316 C315 1.403 . S
C316 C317 1.404 . S
C316 C319 1.539 . S
C317 C313 1.408 . S
C317 C316 1.404 . S
C317 H329 0.930 . S
C318 C314 1.524 . S
C318 H330 0.956 . S
C318 H331 0.961 . S
C318 H332 0.961 . S
C319 C316 1.539 . S
C319 H333 0.958 . S
C319 H334 0.961 . S
C319 H335 0.960 . S
H320 C304 0.931 1_565 S
H321 C309 0.929 . S
H322 C310 0.960 . S
H323 C310 0.962 . S
H324 C310 0.960 . S
H325 C311 0.961 . S
H326 C311 0.961 . S
H327 C311 0.961 . S
H328 C312 0.931 . S
H329 C317 0.930 . S
H330 C318 0.956 . S
H331 C318 0.961 . S
H332 C318 0.961 . S
H333 C319 0.958 . S
H334 C319 0.961 . S
H335 C319 0.960 . S
C336 C337 1.391 . S
C336 C338 1.394 . S
C336 H352 0.931 1_455 S
C337 C336 1.391 . S
C337 C341 1.376 . S
C338 C336 1.394 . S
C338 C339 1.369 . S
C338 C342 1.531 . S
C339 C338 1.369 . S
C339 C340 1.410 . S
C339 C347 1.503 . S
C340 C339 1.410 . S
C340 C341 1.392 . S
C340 C343 1.511 . S
C341 C337 1.376 . S
C341 C340 1.392 . S
C341 H353 0.929 . S
C342 C338 1.531 . S
C342 H354 0.959 1_455 S
C342 H355 0.962 . S
C342 H356 0.960 1_455 S
C343 C340 1.511 . S
C343 H357 0.961 . S
C343 H358 0.961 . S
C343 H359 0.961 . S
C344 C345 1.370 . S
C344 C346 1.363 . S
C344 H360 0.931 . S
C345 C344 1.370 . S
C345 C349 1.408 . S
C346 C344 1.363 . S
C346 C347 1.370 . S
C346 C350 1.524 . S
C347 C339 1.503 . S
C347 C346 1.370 . S
C347 C348 1.403 . S
C348 C347 1.403 . S
C348 C349 1.404 . S
C348 C351 1.539 1_455 S
C349 C345 1.408 . S
C349 C348 1.404 . S
C349 H361 0.930 . S
C350 C346 1.524 . S
C350 H362 0.956 . S
C350 H363 0.961 . S
C350 H364 0.961 . S
C351 C348 1.539 1_655 S
C351 H365 0.958 . S
C351 H366 0.961 . S
C351 H367 0.960 . S
H352 C336 0.931 1_655 S
H353 C341 0.929 . S
H354 C342 0.959 1_655 S
H355 C342 0.962 . S
H356 C342 0.960 1_655 S
H357 C343 0.961 . S
H358 C343 0.961 . S
H359 C343 0.961 . S
H360 C344 0.931 . S
H361 C349 0.930 . S
H362 C350 0.956 . S
H363 C350 0.961 . S
H364 C350 0.961 . S
H365 C351 0.958 . S
H366 C351 0.961 . S
H367 C351 0.960 . S
C368 C369 1.391 . S
C368 C370 1.394 . S
C368 H384 0.931 . S
C369 C368 1.391 . S
C369 C373 1.376 . S
C370 C368 1.394 . S
C370 C371 1.369 . S
C370 C374 1.531 . S
C371 C370 1.369 . S
C371 C372 1.410 . S
C371 C379 1.503 . S
C372 C371 1.410 . S
C372 C373 1.392 . S
C372 C375 1.511 . S
C373 C369 1.376 . S
C373 C372 1.392 . S
C373 H385 0.929 . S
C374 C370 1.531 . S
C374 H386 0.960 . S
C374 H387 0.962 . S
C374 H388 0.960 . S
C375 C372 1.511 . S
C375 H389 0.961 . S
C375 H390 0.961 . S
C375 H391 0.961 . S
C376 C377 1.370 . S
C376 C378 1.363 . S
C376 H392 0.931 . S
C377 C376 1.370 . S
C377 C381 1.408 . S
C378 C376 1.363 . S
C378 C379 1.370 . S
C378 C382 1.524 . S
C379 C371 1.503 . S
C379 C378 1.370 . S
C379 C380 1.403 . S
C380 C379 1.403 . S
C380 C381 1.404 . S
C380 C383 1.539 . S
C381 C377 1.408 . S
C381 C380 1.404 . S
C381 H393 0.930 . S
C382 C378 1.524 . S
C382 H394 0.956 . S
C382 H395 0.961 . S
C382 H396 0.961 . S
C383 C380 1.539 . S
C383 H397 0.958 . S
C383 H398 0.961 . S
C383 H399 0.960 . S
H384 C368 0.931 . S
H385 C373 0.929 . S
H386 C374 0.960 . S
H387 C374 0.962 . S
H388 C374 0.960 . S
H389 C375 0.961 . S
H390 C375 0.961 . S
H391 C375 0.961 . S
H392 C376 0.931 . S
H393 C381 0.930 . S
H394 C382 0.956 . S
H395 C382 0.961 . S
H396 C382 0.961 . S
H397 C383 0.958 . S
H398 C383 0.961 . S
H399 C383 0.960 . S
C400 C401 1.391 . S
C400 C402 1.394 . S
C400 H416 0.931 . S
C401 C400 1.391 . S
C401 C405 1.376 . S
C402 C400 1.394 . S
C402 C403 1.369 . S
C402 C406 1.531 . S
C403 C402 1.369 . S
C403 C404 1.410 . S
C403 C411 1.503 . S
C404 C403 1.410 . S
C404 C405 1.392 . S
C404 C407 1.511 . S
C405 C401 1.376 . S
C405 C404 1.392 . S
C405 H417 0.929 1_655 S
C406 C402 1.531 . S
C406 H418 0.960 . S
C406 H419 0.962 . S
C406 H420 0.960 . S
C407 C404 1.511 . S
C407 H421 0.961 . S
C407 H422 0.961 . S
C407 H423 0.961 . S
C408 C409 1.370 . S
C408 C410 1.363 . S
C408 H424 0.931 . S
C409 C408 1.370 . S
C409 C413 1.408 . S
C410 C408 1.363 . S
C410 C411 1.370 . S
C410 C414 1.524 . S
C411 C403 1.503 . S
C411 C410 1.370 . S
C411 C412 1.403 . S
C412 C411 1.403 . S
C412 C413 1.404 . S
C412 C415 1.539 . S
C413 C409 1.408 . S
C413 C412 1.404 . S
C413 H425 0.930 . S
C414 C410 1.524 . S
C414 H426 0.956 . S
C414 H427 0.961 . S
C414 H428 0.961 . S
C415 C412 1.539 . S
C415 H429 0.958 . S
C415 H430 0.961 . S
C415 H431 0.960 . S
H416 C400 0.931 . S
H417 C405 0.929 1_455 S
H418 C406 0.960 . S
H419 C406 0.962 . S
H420 C406 0.960 . S
H421 C407 0.961 . S
H422 C407 0.961 . S
H423 C407 0.961 . S
H424 C408 0.931 . S
H425 C413 0.930 . S
H426 C414 0.956 . S
H427 C414 0.961 . S
H428 C414 0.961 . S
H429 C415 0.958 . S
H430 C415 0.961 . S
H431 C415 0.960 . S
C432 C433 1.391 . S
C432 C434 1.394 . S
C432 H448 0.931 1_655 S
C433 C432 1.391 . S
C433 C437 1.376 . S
C434 C432 1.394 . S
C434 C435 1.369 . S
C434 C438 1.531 . S
C435 C434 1.369 . S
C435 C436 1.410 . S
C435 C443 1.503 . S
C436 C435 1.410 . S
C436 C437 1.392 . S
C436 C439 1.511 . S
C437 C433 1.376 . S
C437 C436 1.392 . S
C437 H449 0.929 . S
C438 C434 1.531 . S
C438 H450 0.960 . S
C438 H451 0.962 . S
C438 H452 0.960 . S
C439 C436 1.511 . S
C439 H453 0.961 . S
C439 H454 0.961 . S
C439 H455 0.961 . S
C440 C441 1.370 . S
C440 C442 1.363 . S
C440 H456 0.931 1_565 S
C441 C440 1.370 . S
C441 C445 1.408 . S
C442 C440 1.363 . S
C442 C443 1.370 . S
C442 C446 1.524 . S
C443 C435 1.503 . S
C443 C442 1.370 . S
C443 C444 1.403 . S
C444 C443 1.403 . S
C444 C445 1.404 . S
C444 C447 1.539 . S
C445 C441 1.408 . S
C445 C444 1.404 . S
C445 H457 0.930 . S
C446 C442 1.524 . S
C446 H458 0.956 . S
C446 H459 0.961 . S
C446 H460 0.961 1_565 S
C447 C444 1.539 . S
C447 H461 0.958 . S
C447 H462 0.961 . S
C447 H463 0.960 . S
H448 C432 0.931 1_455 S
H449 C437 0.929 . S
H450 C438 0.960 . S
H451 C438 0.962 . S
H452 C438 0.960 . S
H453 C439 0.961 . S
H454 C439 0.961 . S
H455 C439 0.961 . S
H456 C440 0.931 1_545 S
H457 C445 0.930 . S
H458 C446 0.956 . S
H459 C446 0.961 . S
H460 C446 0.961 1_545 S
H461 C447 0.958 . S
H462 C447 0.961 . S
H463 C447 0.960 . S
C464 C465 1.391 . S
C464 C466 1.394 . S
C464 H480 0.931 . S
C465 C464 1.391 . S
C465 C469 1.376 . S
C466 C464 1.394 . S
C466 C467 1.369 . S
C466 C470 1.531 . S
C467 C466 1.369 . S
C467 C468 1.410 . S
C467 C475 1.503 . S
C468 C467 1.410 . S
C468 C469 1.392 . S
C468 C471 1.511 . S
C469 C465 1.376 . S
C469 C468 1.392 . S
C469 H481 0.929 . S
C470 C466 1.531 . S
C470 H482 0.960 . S
C470 H483 0.962 . S
C470 H484 0.960 . S
C471 C468 1.511 . S
C471 H485 0.961 . S
C471 H486 0.961 . S
C471 H487 0.961 . S
C472 C473 1.370 . S
C472 C474 1.363 . S
C472 H488 0.931 . S
C473 C472 1.370 . S
C473 C477 1.408 . S
C474 C472 1.363 . S
C474 C475 1.370 . S
C474 C478 1.524 . S
C475 C467 1.503 . S
C475 C474 1.370 . S
C475 C476 1.403 . S
C476 C475 1.403 . S
C476 C477 1.404 . S
C476 C479 1.539 . S
C477 C473 1.408 . S
C477 C476 1.404 . S
C477 H489 0.930 1_565 S
C478 C474 1.524 . S
C478 H490 0.956 . S
C478 H491 0.961 . S
C478 H492 0.961 . S
C479 C476 1.539 . S
C479 H493 0.958 . S
C479 H494 0.961 . S
C479 H495 0.960 . S
H480 C464 0.931 . S
H481 C469 0.929 . S
H482 C470 0.960 . S
H483 C470 0.962 . S
H484 C470 0.960 . S
H485 C471 0.961 . S
H486 C471 0.961 . S
H487 C471 0.961 . S
H488 C472 0.931 . S
H489 C477 0.930 1_545 S
H490 C478 0.956 . S
H491 C478 0.961 . S
H492 C478 0.961 . S
H493 C479 0.958 . S
H494 C479 0.961 . S
H495 C479 0.960 . S
C496 C497 1.391 . S
C496 C498 1.394 . S
C496 H512 0.931 . S
C497 C496 1.391 . S
C497 C501 1.376 . S
C498 C496 1.394 . S
C498 C499 1.369 . S
C498 C502 1.531 . S
C499 C498 1.369 . S
C499 C500 1.410 . S
C499 C507 1.503 . S
C500 C499 1.410 . S
C500 C501 1.392 . S
C500 C503 1.511 . S
C501 C497 1.376 . S
C501 C500 1.392 . S
C501 H513 0.929 . S
C502 C498 1.531 . S
C502 H514 0.960 . S
C502 H515 0.962 . S
C502 H516 0.960 . S
C503 C500 1.511 . S
C503 H517 0.961 . S
C503 H518 0.961 . S
C503 H519 0.961 . S
C504 C505 1.370 . S
C504 C506 1.363 . S
C504 H520 0.931 . S
C505 C504 1.370 . S
C505 C509 1.408 . S
C506 C504 1.363 . S
C506 C507 1.370 . S
C506 C510 1.524 . S
C507 C499 1.503 . S
C507 C506 1.370 . S
C507 C508 1.403 . S
C508 C507 1.403 . S
C508 C509 1.404 . S
C508 C511 1.539 . S
C509 C505 1.408 . S
C509 C508 1.404 . S
C509 H521 0.930 . S
C510 C506 1.524 . S
C510 H522 0.956 . S
C510 H523 0.961 . S
C510 H524 0.961 . S
C511 C508 1.539 . S
C511 H525 0.958 . S
C511 H526 0.961 . S
C511 H527 0.960 . S
H512 C496 0.931 . S
H513 C501 0.929 . S
H514 C502 0.960 . S
H515 C502 0.962 . S
H516 C502 0.960 . S
H517 C503 0.961 . S
H518 C503 0.961 . S
H519 C503 0.961 . S
H520 C504 0.931 . S
H521 C509 0.930 . S
H522 C510 0.956 . S
H523 C510 0.961 . S
H524 C510 0.961 . S
H525 C511 0.958 . S
H526 C511 0.961 . S
H527 C511 0.960 . S
C528 C529 1.391 . S
C528 C530 1.394 . S
C528 H544 0.931 . S
C529 C528 1.391 . S
C529 C533 1.376 . S
C530 C528 1.394 . S
C530 C531 1.369 . S
C530 C534 1.531 . S
C531 C530 1.369 . S
C531 C532 1.410 . S
C531 C539 1.503 . S
C532 C531 1.410 . S
C532 C533 1.392 . S
C532 C535 1.511 . S
C533 C529 1.376 . S
C533 C532 1.392 . S
C533 H545 0.929 . S
C534 C530 1.531 . S
C534 H546 0.960 . S
C534 H547 0.962 . S
C534 H548 0.960 . S
C535 C532 1.511 . S
C535 H549 0.961 . S
C535 H550 0.961 . S
C535 H551 0.961 . S
C536 C537 1.370 . S
C536 C538 1.363 . S
C536 H552 0.931 . S
C537 C536 1.370 . S
C537 C541 1.408 . S
C538 C536 1.363 . S
C538 C539 1.370 . S
C538 C542 1.524 . S
C539 C531 1.503 . S
C539 C538 1.370 . S
C539 C540 1.403 . S
C540 C539 1.403 . S
C540 C541 1.404 . S
C540 C543 1.539 . S
C541 C537 1.408 . S
C541 C540 1.404 . S
C541 H553 0.930 . S
C542 C538 1.524 . S
C542 H554 0.956 . S
C542 H555 0.961 . S
C542 H556 0.961 . S
C543 C540 1.539 . S
C543 H557 0.958 . S
C543 H558 0.961 . S
C543 H559 0.960 . S
H544 C528 0.931 . S
H545 C533 0.929 . S
H546 C534 0.960 . S
H547 C534 0.962 . S
H548 C534 0.960 . S
H549 C535 0.961 . S
H550 C535 0.961 . S
H551 C535 0.961 . S
H552 C536 0.931 . S
H553 C541 0.930 . S
H554 C542 0.956 . S
H555 C542 0.961 . S
H556 C542 0.961 . S
H557 C543 0.958 . S
H558 C543 0.961 . S
H559 C543 0.960 . S
C560 C561 1.391 . S
C560 C562 1.394 . S
C560 H576 0.931 . S
C561 C560 1.391 . S
C561 C565 1.376 . S
C562 C560 1.394 . S
C562 C563 1.369 . S
C562 C566 1.531 . S
C563 C562 1.369 . S
C563 C564 1.410 . S
C563 C571 1.503 . S
C564 C563 1.410 . S
C564 C565 1.392 . S
C564 C567 1.511 . S
C565 C561 1.376 . S
C565 C564 1.392 . S
C565 H577 0.929 . S
C566 C562 1.531 . S
C566 H578 0.960 . S
C566 H579 0.962 . S
C566 H580 0.960 . S
C567 C564 1.511 . S
C567 H581 0.961 . S
C567 H582 0.961 . S
C567 H583 0.961 . S
C568 C569 1.370 . S
C568 C570 1.363 . S
C568 H584 0.931 . S
C569 C568 1.370 . S
C569 C573 1.408 . S
C570 C568 1.363 . S
C570 C571 1.370 . S
C570 C574 1.524 . S
C571 C563 1.503 . S
C571 C570 1.370 . S
C571 C572 1.403 . S
C572 C571 1.403 . S
C572 C573 1.404 . S
C572 C575 1.539 . S
C573 C569 1.408 . S
C573 C572 1.404 . S
C573 H585 0.930 . S
C574 C570 1.524 . S
C574 H586 0.956 . S
C574 H587 0.961 . S
C574 H588 0.961 . S
C575 C572 1.539 . S
C575 H589 0.958 . S
C575 H590 0.961 . S
C575 H591 0.960 . S
H576 C560 0.931 . S
H577 C565 0.929 . S
H578 C566 0.960 . S
H579 C566 0.962 . S
H580 C566 0.960 . S
H581 C567 0.961 . S
H582 C567 0.961 . S
H583 C567 0.961 . S
H584 C568 0.931 . S
H585 C573 0.930 . S
H586 C574 0.956 . S
H587 C574 0.961 . S
H588 C574 0.961 . S
H589 C575 0.958 . S
H590 C575 0.961 . S
H591 C575 0.960 . S
C592 C593 1.391 . S
C592 C594 1.394 . S
C592 H608 0.931 . S
C593 C592 1.391 . S
C593 C597 1.376 . S
C594 C592 1.394 . S
C594 C595 1.369 . S
C594 C598 1.531 . S
C595 C594 1.369 . S
C595 C596 1.410 . S
C595 C603 1.503 . S
C596 C595 1.410 . S
C596 C597 1.392 . S
C596 C599 1.511 . S
C597 C593 1.376 . S
C597 C596 1.392 . S
C597 H609 0.929 . S
C598 C594 1.531 . S
C598 H610 0.960 . S
C598 H611 0.962 . S
C598 H612 0.960 . S
C599 C596 1.511 . S
C599 H613 0.961 . S
C599 H614 0.961 . S
C599 H615 0.961 . S
C600 C601 1.370 . S
C600 C602 1.363 . S
C600 H616 0.931 . S
C601 C600 1.370 . S
C601 C605 1.408 . S
C602 C600 1.363 . S
C602 C603 1.370 . S
C602 C606 1.524 . S
C603 C595 1.503 . S
C603 C602 1.370 . S
C603 C604 1.403 . S
C604 C603 1.403 . S
C604 C605 1.404 . S
C604 C607 1.539 . S
C605 C601 1.408 . S
C605 C604 1.404 . S
C605 H617 0.930 . S
C606 C602 1.524 . S
C606 H618 0.956 . S
C606 H619 0.961 . S
C606 H620 0.961 . S
C607 C604 1.539 . S
C607 H621 0.958 . S
C607 H622 0.961 . S
C607 H623 0.960 . S
H608 C592 0.931 . S
H609 C597 0.929 . S
H610 C598 0.960 . S
H611 C598 0.962 . S
H612 C598 0.960 . S
H613 C599 0.961 . S
H614 C599 0.961 . S
H615 C599 0.961 . S
H616 C600 0.931 . S
H617 C605 0.930 . S
H618 C606 0.956 . S
H619 C606 0.961 . S
H620 C606 0.961 . S
H621 C607 0.958 . S
H622 C607 0.961 . S
H623 C607 0.960 . S
C113 C7 1.517 . S
C121 C63 1.536 . S
C145 C21 1.564 . S
C153 C77 1.554 . S
C177 C91 1.560 . S
C185 C35 1.546 . S
C209 C105 1.564 . S
C217 C49 1.553 . S
C241 C8 1.313 . S
C249 C36 1.291 . S
C273 C22 1.289 . S
C281 C50 1.300 . S
C305 C92 1.289 . S
C313 C64 1.300 . S
C337 C78 1.315 . S
C345 C106 1.290 . S
C369 C79 1.481 . S
C377 C9 1.481 . S
C401 C23 1.455 1_655 S
C409 C93 1.468 . S
C433 C107 1.486 1_655 S
C441 C37 1.483 1_565 S
C465 C51 1.469 . S
C473 C65 1.473 1_565 S
C497 C87 1.167 . S
C505 C45 1.167 . S
C529 C3 1.174 . S
C537 C101 1.186 . S
C561 C17 1.190 . S
C569 C59 1.171 . S
C593 C73 1.162 . S
C601 C31 1.184 . S
