# Generated by pormake.
# Topology umk, (4)-cn, num edge types: 1
# Building blocks:
#     Node 0, Type 0, BuildingBlock: GALJAG_clean_sbu_0, # of connection points: 4
#     Node 1, Type 0, BuildingBlock: GALJAG_clean_sbu_0, # of connection points: 4
#     Node 2, Type 0, BuildingBlock: GALJAG_clean_sbu_0, # of connection points: 4
#     Node 3, Type 0, BuildingBlock: GALJAG_clean_sbu_0, # of connection points: 4
#     Node 4, Type 0, BuildingBlock: GALJAG_clean_sbu_0, # of connection points: 4
#     Node 5, Type 0, BuildingBlock: GALJAG_clean_sbu_0, # of connection points: 4
#     Node 6, Type 0, BuildingBlock: GALJAG_clean_sbu_0, # of connection points: 4
#     Node 7, Type 0, BuildingBlock: GALJAG_clean_sbu_0, # of connection points: 4
#     Node 8, Type 0, BuildingBlock: GALJAG_clean_sbu_0, # of connection points: 4
#     Node 9, Type 0, BuildingBlock: GALJAG_clean_sbu_0, # of connection points: 4
#     Node 10, Type 0, BuildingBlock: GALJAG_clean_sbu_0, # of connection points: 4
#     Node 11, Type 0, BuildingBlock: GALJAG_clean_sbu_0, # of connection points: 4
#     Node 12, Type 0, BuildingBlock: GALJAG_clean_sbu_0, # of connection points: 4
#     Node 13, Type 0, BuildingBlock: GALJAG_clean_sbu_0, # of connection points: 4
#     Node 14, Type 0, BuildingBlock: GALJAG_clean_sbu_0, # of connection points: 4
#     Node 15, Type 0, BuildingBlock: GALJAG_clean_sbu_0, # of connection points: 4
#     Node 16, Type 0, BuildingBlock: GALJAG_clean_sbu_0, # of connection points: 4
#     Node 17, Type 0, BuildingBlock: GALJAG_clean_sbu_0, # of connection points: 4
#     Node 18, Type 0, BuildingBlock: GALJAG_clean_sbu_0, # of connection points: 4
#     Node 19, Type 0, BuildingBlock: GALJAG_clean_sbu_0, # of connection points: 4
#     Node 20, Type 0, BuildingBlock: GALJAG_clean_sbu_0, # of connection points: 4
#     Node 21, Type 0, BuildingBlock: GALJAG_clean_sbu_0, # of connection points: 4
#     Node 22, Type 0, BuildingBlock: GALJAG_clean_sbu_0, # of connection points: 4
#     Node 23, Type 0, BuildingBlock: GALJAG_clean_sbu_0, # of connection points: 4
#     Edge 24, Type (0, 0), BuildingBlock: UVAHIK_clean_linker_0, # of connection points: 2
#     Edge 25, Type (0, 0), BuildingBlock: UVAHIK_clean_linker_0, # of connection points: 2
#     Edge 26, Type (0, 0), BuildingBlock: UVAHIK_clean_linker_0, # of connection points: 2
#     Edge 27, Type (0, 0), BuildingBlock: UVAHIK_clean_linker_0, # of connection points: 2
#     Edge 28, Type (0, 0), BuildingBlock: UVAHIK_clean_linker_0, # of connection points: 2
#     Edge 29, Type (0, 0), BuildingBlock: UVAHIK_clean_linker_0, # of connection points: 2
#     Edge 30, Type (0, 0), BuildingBlock: UVAHIK_clean_linker_0, # of connection points: 2
#     Edge 31, Type (0, 0), BuildingBlock: UVAHIK_clean_linker_0, # of connection points: 2
#     Edge 32, Type (0, 0), BuildingBlock: UVAHIK_clean_linker_0, # of connection points: 2
#     Edge 33, Type (0, 0), BuildingBlock: UVAHIK_clean_linker_0, # of connection points: 2
#     Edge 34, Type (0, 0), BuildingBlock: UVAHIK_clean_linker_0, # of connection points: 2
#     Edge 35, Type (0, 0), BuildingBlock: UVAHIK_clean_linker_0, # of connection points: 2
#     Edge 36, Type (0, 0), BuildingBlock: UVAHIK_clean_linker_0, # of connection points: 2
#     Edge 37, Type (0, 0), BuildingBlock: UVAHIK_clean_linker_0, # of connection points: 2
#     Edge 38, Type (0, 0), BuildingBlock: UVAHIK_clean_linker_0, # of connection points: 2
#     Edge 39, Type (0, 0), BuildingBlock: UVAHIK_clean_linker_0, # of connection points: 2
#     Edge 40, Type (0, 0), BuildingBlock: UVAHIK_clean_linker_0, # of connection points: 2
#     Edge 41, Type (0, 0), BuildingBlock: UVAHIK_clean_linker_0, # of connection points: 2
#     Edge 42, Type (0, 0), BuildingBlock: UVAHIK_clean_linker_0, # of connection points: 2
#     Edge 43, Type (0, 0), BuildingBlock: UVAHIK_clean_linker_0, # of connection points: 2
#     Edge 44, Type (0, 0), BuildingBlock: UVAHIK_clean_linker_0, # of connection points: 2
#     Edge 45, Type (0, 0), BuildingBlock: UVAHIK_clean_linker_0, # of connection points: 2
#     Edge 46, Type (0, 0), BuildingBlock: UVAHIK_clean_linker_0, # of connection points: 2
#     Edge 47, Type (0, 0), BuildingBlock: UVAHIK_clean_linker_0, # of connection points: 2
#     Edge 48, Type (0, 0), BuildingBlock: UVAHIK_clean_linker_0, # of connection points: 2
#     Edge 49, Type (0, 0), BuildingBlock: UVAHIK_clean_linker_0, # of connection points: 2
#     Edge 50, Type (0, 0), BuildingBlock: UVAHIK_clean_linker_0, # of connection points: 2
#     Edge 51, Type (0, 0), BuildingBlock: UVAHIK_clean_linker_0, # of connection points: 2
#     Edge 52, Type (0, 0), BuildingBlock: UVAHIK_clean_linker_0, # of connection points: 2
#     Edge 53, Type (0, 0), BuildingBlock: UVAHIK_clean_linker_0, # of connection points: 2
#     Edge 54, Type (0, 0), BuildingBlock: UVAHIK_clean_linker_0, # of connection points: 2
#     Edge 55, Type (0, 0), BuildingBlock: UVAHIK_clean_linker_0, # of connection points: 2
#     Edge 56, Type (0, 0), BuildingBlock: UVAHIK_clean_linker_0, # of connection points: 2
#     Edge 57, Type (0, 0), BuildingBlock: UVAHIK_clean_linker_0, # of connection points: 2
#     Edge 58, Type (0, 0), BuildingBlock: UVAHIK_clean_linker_0, # of connection points: 2
#     Edge 59, Type (0, 0), BuildingBlock: UVAHIK_clean_linker_0, # of connection points: 2
#     Edge 60, Type (0, 0), BuildingBlock: UVAHIK_clean_linker_0, # of connection points: 2
#     Edge 61, Type (0, 0), BuildingBlock: UVAHIK_clean_linker_0, # of connection points: 2
#     Edge 62, Type (0, 0), BuildingBlock: UVAHIK_clean_linker_0, # of connection points: 2
#     Edge 63, Type (0, 0), BuildingBlock: UVAHIK_clean_linker_0, # of connection points: 2
#     Edge 64, Type (0, 0), BuildingBlock: UVAHIK_clean_linker_0, # of connection points: 2
#     Edge 65, Type (0, 0), BuildingBlock: UVAHIK_clean_linker_0, # of connection points: 2
#     Edge 66, Type (0, 0), BuildingBlock: UVAHIK_clean_linker_0, # of connection points: 2
#     Edge 67, Type (0, 0), BuildingBlock: UVAHIK_clean_linker_0, # of connection points: 2
#     Edge 68, Type (0, 0), BuildingBlock: UVAHIK_clean_linker_0, # of connection points: 2
#     Edge 69, Type (0, 0), BuildingBlock: UVAHIK_clean_linker_0, # of connection points: 2
#     Edge 70, Type (0, 0), BuildingBlock: UVAHIK_clean_linker_0, # of connection points: 2
#     Edge 71, Type (0, 0), BuildingBlock: UVAHIK_clean_linker_0, # of connection points: 2
# Relax obj value: 0.088
# Max RMSD: 0.064
# Mean RMSD: 0.064
data_MOF--net-umk--node1-GALJAG_clean_sbu_0--edge1-UVAHIK_clean_linker_0
_symmetry_space_group_name_H-M    P1
_symmetry_Int_Tables_number       1
_symmetry_cell_setting            triclinic
loop_
_symmetry_equiv_pos_as_xyz
'x, y, z'
_cell_length_a     82.484907
_cell_length_b     82.459786
_cell_length_c     61.006812
_cell_angle_alpha  90.011989
_cell_angle_beta   89.999885
_cell_angle_gamma 120.02597
loop_
_atom_site_label
_atom_site_type_symbol
_atom_site_fract_x
_atom_site_fract_y
_atom_site_fract_z
_atom_type_partial_charge
In0 In 0.32418 0.46378 0.08617 0.0
O1 O 0.2973 0.445 0.06714 0.0
O2 O 0.30342 0.47256 0.07538 0.0
C3 C 0.33964 0.44169 0.08758 0.0
C4 C 0.35024 0.49223 0.06186 0.0
C5 C 0.31545 0.46517 0.12847 0.0
O6 O 0.32471 0.43706 0.07719 0.0
O7 O 0.34653 0.45724 0.09726 0.0
O8 O 0.32715 0.47949 0.11803 0.0
O9 O 0.30804 0.45018 0.11752 0.0
C10 C 0.29242 0.45726 0.0661 0.0
O11 O 0.34869 0.49361 0.08226 0.0
O12 O 0.33864 0.47656 0.05378 0.0
In13 In 0.85943 0.33013 0.58958 0.0
O14 O 0.8494 0.30208 0.57233 0.0
O15 O 0.83103 0.31315 0.57338 0.0
C16 C 0.89617 0.34142 0.59343 0.0
C17 C 0.86216 0.35877 0.56539 0.0
C18 C 0.84557 0.32142 0.63068 0.0
O19 O 0.88534 0.32802 0.58115 0.0
O20 O 0.88843 0.34894 0.6038 0.0
O21 O 0.84478 0.33377 0.6193 0.0
O22 O 0.85313 0.31328 0.62124 0.0
C23 C 0.83379 0.30022 0.56688 0.0
O24 O 0.8585 0.35721 0.58563 0.0
O25 O 0.8646 0.34602 0.55748 0.0
In26 In 0.52615 0.85938 0.08983 0.0
O27 O 0.54429 0.84999 0.07165 0.0
O28 O 0.5159 0.82968 0.07825 0.0
C29 C 0.5491 0.89685 0.09008 0.0
C30 C 0.49795 0.85759 0.06561 0.0
C31 C 0.52483 0.84989 0.13242 0.0
O32 O 0.55321 0.886 0.08004 0.0
O33 O 0.53364 0.88877 0.10001 0.0
O34 O 0.51064 0.84778 0.12211 0.0
O35 O 0.53963 0.85658 0.12117 0.0
C36 C 0.53125 0.83322 0.06969 0.0
O37 O 0.49649 0.85448 0.08599 0.0
O38 O 0.5136 0.86161 0.05753 0.0
In39 In 0.66428 0.52714 0.58721 0.0
O40 O 0.69173 0.54594 0.56914 0.0
O41 O 0.6837 0.51738 0.57419 0.0
C42 C 0.64944 0.54978 0.58817 0.0
C43 C 0.63749 0.49911 0.56312 0.0
C44 C 0.67257 0.52508 0.62957 0.0
O45 O 0.66449 0.55421 0.57816 0.0
O46 O 0.64212 0.53414 0.59773 0.0
O47 O 0.66161 0.51085 0.61848 0.0
O48 O 0.67959 0.54034 0.6192 0.0
C49 C 0.69542 0.53298 0.5661 0.0
O50 O 0.63924 0.49762 0.58347 0.0
O51 O 0.6492 0.51472 0.55501 0.0
In52 In 0.13336 0.66506 0.08815 0.0
O53 O 0.13939 0.68927 0.06532 0.0
O54 O 0.16262 0.68851 0.07931 0.0
C55 C 0.09619 0.65151 0.09224 0.0
C56 C 0.13456 0.63856 0.06319 0.0
C57 C 0.14562 0.67344 0.12986 0.0
O58 O 0.10699 0.66724 0.08371 0.0
O59 O 0.10413 0.6427 0.09868 0.0
O60 O 0.14914 0.66313 0.11783 0.0
O61 O 0.13612 0.67969 0.12075 0.0
C62 C 0.15696 0.69686 0.06684 0.0
O63 O 0.13601 0.6389 0.08378 0.0
O64 O 0.13261 0.65158 0.05525 0.0
In65 In 0.46451 0.13608 0.58812 0.0
O66 O 0.49471 0.14247 0.58365 0.0
O67 O 0.47733 0.13503 0.55547 0.0
C68 C 0.46643 0.14682 0.63025 0.0
C69 C 0.4556 0.15914 0.56683 0.0
C70 C 0.44285 0.09851 0.59118 0.0
O71 O 0.48073 0.1499 0.61942 0.0
O72 O 0.45123 0.13853 0.61975 0.0
O73 O 0.43695 0.10866 0.58308 0.0
O74 O 0.45956 0.10731 0.5978 0.0
C75 C 0.49319 0.13955 0.56325 0.0
O76 O 0.4458 0.14154 0.56554 0.0
O77 O 0.46978 0.16511 0.57908 0.0
In78 In 0.52466 0.66324 0.90724 0.0
O79 O 0.54321 0.69076 0.92529 0.0
O80 O 0.5148 0.68288 0.91942 0.0
C81 C 0.54771 0.64884 0.90775 0.0
C82 C 0.49649 0.63677 0.93146 0.0
C83 C 0.52234 0.67045 0.86447 0.0
O84 O 0.55237 0.66465 0.9159 0.0
O85 O 0.53163 0.64053 0.89926 0.0
O86 O 0.50822 0.65975 0.87582 0.0
O87 O 0.53765 0.67778 0.87475 0.0
C88 C 0.53029 0.69456 0.92781 0.0
O89 O 0.49534 0.63796 0.91095 0.0
O90 O 0.51186 0.64889 0.93972 0.0
In91 In 0.861 0.52849 0.40586 0.0
O92 O 0.85713 0.49931 0.41083 0.0
O93 O 0.86576 0.51772 0.4382 0.0
C94 C 0.849 0.52487 0.36408 0.0
C95 C 0.83509 0.53346 0.42677 0.0
C96 C 0.89813 0.5525 0.40231 0.0
O97 O 0.84878 0.51157 0.37458 0.0
O98 O 0.85506 0.53991 0.37475 0.0
O99 O 0.88775 0.55591 0.41436 0.0
O100 O 0.88973 0.5372 0.39208 0.0
C101 C 0.8616 0.50181 0.43084 0.0
O102 O 0.8515 0.54681 0.4234 0.0
O103 O 0.8318 0.51782 0.41934 0.0
In104 In 0.32824 0.86127 0.90888 0.0
O105 O 0.35246 0.85545 0.91296 0.0
O106 O 0.34231 0.86235 0.94138 0.0
C107 C 0.31944 0.85079 0.8667 0.0
C108 C 0.29647 0.8375 0.93011 0.0
C109 C 0.3432 0.89873 0.90581 0.0
O110 O 0.33085 0.84787 0.87735 0.0
O111 O 0.31231 0.85875 0.87742 0.0
O112 O 0.3273 0.88824 0.91413 0.0
O113 O 0.35149 0.89033 0.89911 0.0
C114 C 0.35382 0.85815 0.9334 0.0
O115 O 0.30418 0.85505 0.93204 0.0
O116 O 0.30467 0.83194 0.91725 0.0
In117 In 0.46372 0.32909 0.40671 0.0
O118 O 0.44543 0.30542 0.43012 0.0
O119 O 0.46815 0.30462 0.41475 0.0
C120 C 0.44107 0.34385 0.40347 0.0
C121 C 0.49235 0.35477 0.43132 0.0
C122 C 0.46685 0.32095 0.36465 0.0
O123 O 0.43547 0.32761 0.41084 0.0
O124 O 0.45803 0.35259 0.39777 0.0
O125 O 0.4809 0.33064 0.37667 0.0
O126 O 0.45124 0.31515 0.37394 0.0
C127 C 0.45454 0.29698 0.4279 0.0
O128 O 0.49321 0.35428 0.41071 0.0
O129 O 0.47712 0.34233 0.43946 0.0
In130 In 0.1322 0.46748 0.90281 0.0
O131 O 0.136 0.49666 0.90752 0.0
O132 O 0.12645 0.47804 0.9347 0.0
C133 C 0.1463 0.47243 0.86187 0.0
C134 C 0.15622 0.46089 0.92576 0.0
C135 C 0.09511 0.44393 0.89768 0.0
O136 O 0.14755 0.48575 0.87332 0.0
O137 O 0.13825 0.45668 0.87122 0.0
O138 O 0.10495 0.44039 0.91049 0.0
O139 O 0.10399 0.45921 0.88749 0.0
C140 C 0.131 0.49406 0.92736 0.0
O141 O 0.14053 0.44781 0.91935 0.0
O142 O 0.15986 0.47708 0.92011 0.0
In143 In 0.6631 0.13664 0.40588 0.0
O144 O 0.69083 0.14586 0.42346 0.0
O145 O 0.68304 0.1664 0.41706 0.0
C146 C 0.64977 0.09936 0.40521 0.0
C147 C 0.63632 0.13767 0.43028 0.0
C148 C 0.67078 0.14671 0.36339 0.0
O149 O 0.66412 0.11046 0.41607 0.0
O150 O 0.64224 0.10707 0.39481 0.0
O151 O 0.65973 0.14979 0.37456 0.0
O152 O 0.67814 0.13878 0.37373 0.0
C153 C 0.69486 0.16272 0.42531 0.0
O154 O 0.63725 0.13976 0.40975 0.0
O155 O 0.64882 0.13497 0.43845 0.0
In156 In 0.6652 0.52822 0.90617 0.0
O157 O 0.69251 0.54635 0.92484 0.0
O158 O 0.68512 0.51837 0.91695 0.0
C159 C 0.65048 0.55097 0.9064 0.0
C160 C 0.63893 0.5003 0.93084 0.0
C161 C 0.67246 0.5261 0.86343 0.0
O162 O 0.66638 0.55592 0.9145 0.0
O163 O 0.64232 0.53482 0.89806 0.0
O164 O 0.66181 0.51189 0.87472 0.0
O165 O 0.67964 0.5414 0.87375 0.0
C166 C 0.6966 0.53353 0.92615 0.0
O167 O 0.63986 0.49896 0.91032 0.0
O168 O 0.65125 0.51569 0.93887 0.0
In169 In 0.13611 0.66646 0.40361 0.0
O170 O 0.14517 0.69443 0.42063 0.0
O171 O 0.16446 0.68447 0.41953 0.0
C172 C 0.09896 0.65316 0.40031 0.0
C173 C 0.13472 0.63848 0.42793 0.0
C174 C 0.14888 0.67529 0.36211 0.0
O175 O 0.10939 0.66702 0.41226 0.0
O176 O 0.10731 0.64625 0.38999 0.0
O177 O 0.15101 0.66373 0.37351 0.0
O178 O 0.14062 0.68262 0.37177 0.0
C179 C 0.16107 0.697 0.42597 0.0
O180 O 0.13888 0.6404 0.40781 0.0
O181 O 0.13125 0.65061 0.43566 0.0
In182 In 0.46757 0.13655 0.90491 0.0
O183 O 0.44916 0.14498 0.92408 0.0
O184 O 0.47791 0.16531 0.91983 0.0
C185 C 0.44408 0.09926 0.90198 0.0
C186 C 0.49525 0.13669 0.92856 0.0
C187 C 0.46941 0.14834 0.86322 0.0
O188 O 0.44011 0.10982 0.91287 0.0
O189 O 0.45979 0.10752 0.89258 0.0
O190 O 0.48339 0.14949 0.87307 0.0
O191 O 0.45464 0.14154 0.87451 0.0
C192 C 0.46231 0.16137 0.92799 0.0
O193 O 0.49728 0.14147 0.90864 0.0
O194 O 0.4793 0.13178 0.93641 0.0
In195 In 0.32647 0.46693 0.40323 0.0
O196 O 0.3001 0.44895 0.42336 0.0
O197 O 0.30758 0.47719 0.41677 0.0
C198 C 0.34053 0.44369 0.40051 0.0
C199 C 0.35378 0.49479 0.42695 0.0
C200 C 0.31645 0.46821 0.36143 0.0
O201 O 0.32561 0.43934 0.41078 0.0
O202 O 0.3482 0.45963 0.39166 0.0
O203 O 0.3291 0.48241 0.3712 0.0
O204 O 0.3087 0.4535 0.37285 0.0
C205 C 0.29639 0.46193 0.42603 0.0
O206 O 0.35144 0.49657 0.40682 0.0
O207 O 0.34244 0.47899 0.43497 0.0
In208 In 0.85776 0.32887 0.90321 0.0
O209 O 0.84955 0.30088 0.91995 0.0
O210 O 0.83152 0.31213 0.92357 0.0
C211 C 0.89454 0.34179 0.89667 0.0
C212 C 0.8599 0.35739 0.92712 0.0
C213 C 0.84337 0.32008 0.86232 0.0
O214 O 0.88499 0.32892 0.91021 0.0
O215 O 0.88548 0.34794 0.88635 0.0
O216 O 0.84461 0.33378 0.87293 0.0
O217 O 0.84909 0.31058 0.87248 0.0
C218 C 0.83479 0.29918 0.92831 0.0
O219 O 0.84943 0.35087 0.91053 0.0
O220 O 0.86935 0.34961 0.93153 0.0
In221 In 0.52709 0.86195 0.4083 0.0
O222 O 0.49776 0.85798 0.41208 0.0
O223 O 0.51501 0.86524 0.44042 0.0
C224 C 0.52524 0.85139 0.36608 0.0
C225 C 0.53163 0.83566 0.429 0.0
C226 C 0.55109 0.8992 0.40664 0.0
O227 O 0.51128 0.85 0.37625 0.0
O228 O 0.54004 0.85786 0.3773 0.0
O229 O 0.55437 0.88835 0.41797 0.0
O230 O 0.53584 0.89124 0.39627 0.0
C231 C 0.49941 0.86144 0.43238 0.0
O232 O 0.54491 0.85226 0.42663 0.0
O233 O 0.51629 0.83235 0.42061 0.0
In234 In 0.4669 0.33053 0.08919 0.0
O235 O 0.49607 0.35603 0.0849 0.0
O236 O 0.47912 0.34474 0.05652 0.0
C237 C 0.46935 0.32282 0.13163 0.0
C238 C 0.46127 0.29885 0.06962 0.0
C239 C 0.44368 0.34469 0.08989 0.0
O240 O 0.48348 0.3338 0.1204 0.0
O241 O 0.45401 0.31562 0.1214 0.0
O242 O 0.43968 0.3298 0.07973 0.0
O243 O 0.45921 0.35221 0.09971 0.0
C244 C 0.49455 0.35705 0.06443 0.0
O245 O 0.44836 0.30275 0.0716 0.0
O246 O 0.47677 0.31075 0.0778 0.0
In247 In 0.13256 0.46758 0.58841 0.0
O248 O 0.13401 0.49576 0.5837 0.0
O249 O 0.12874 0.47853 0.55566 0.0
C250 C 0.14507 0.4723 0.63009 0.0
C251 C 0.15882 0.46284 0.56799 0.0
C252 C 0.09567 0.44242 0.59156 0.0
O253 O 0.14645 0.48564 0.61856 0.0
O254 O 0.13754 0.45664 0.62053 0.0
O255 O 0.10658 0.43969 0.57962 0.0
O256 O 0.10339 0.45773 0.60183 0.0
C257 C 0.13107 0.49376 0.56332 0.0
O258 O 0.14255 0.44936 0.57163 0.0
O259 O 0.16182 0.47851 0.57492 0.0
In260 In 0.66543 0.13549 0.08711 0.0
O261 O 0.69283 0.14344 0.06942 0.0
O262 O 0.68699 0.16512 0.07729 0.0
C263 C 0.6503 0.09795 0.0878 0.0
C264 C 0.63979 0.13772 0.06172 0.0
C265 C 0.67237 0.1454 0.12972 0.0
O266 O 0.66561 0.10857 0.07827 0.0
O267 O 0.64285 0.10629 0.09699 0.0
O268 O 0.66231 0.14938 0.11788 0.0
O269 O 0.6791 0.13659 0.12001 0.0
C270 C 0.69809 0.16067 0.06857 0.0
O271 O 0.64009 0.13931 0.0823 0.0
O272 O 0.65247 0.13512 0.05394 0.0
In273 In 0.52468 0.66339 0.58755 0.0
O274 O 0.49537 0.6383 0.58241 0.0
O275 O 0.5131 0.64946 0.55459 0.0
C276 C 0.52201 0.67044 0.63022 0.0
C277 C 0.53026 0.69495 0.56775 0.0
C278 C 0.54764 0.64893 0.5882 0.0
O279 O 0.508 0.65929 0.61893 0.0
O280 O 0.53731 0.67826 0.6199 0.0
O281 O 0.55211 0.66424 0.57879 0.0
O282 O 0.5318 0.64116 0.59731 0.0
C283 C 0.49736 0.63735 0.56201 0.0
O284 O 0.5433 0.69131 0.5703 0.0
O285 O 0.5147 0.68297 0.5757 0.0
In286 In 0.85961 0.52587 0.08954 0.0
O287 O 0.85177 0.49558 0.08276 0.0
O288 O 0.86954 0.51642 0.05993 0.0
C289 C 0.84761 0.52229 0.13138 0.0
C290 C 0.83446 0.53053 0.06629 0.0
C291 C 0.89638 0.55075 0.09416 0.0
O292 O 0.84972 0.50989 0.12185 0.0
O293 O 0.85131 0.53635 0.11971 0.0
O294 O 0.88575 0.55404 0.0824 0.0
O295 O 0.88841 0.53503 0.10358 0.0
C296 C 0.86099 0.49932 0.06513 0.0
O297 O 0.85045 0.54406 0.07098 0.0
O298 O 0.83118 0.51487 0.07357 0.0
In299 In 0.32789 0.85983 0.59089 0.0
O300 O 0.35248 0.85475 0.58621 0.0
O301 O 0.34241 0.86248 0.55831 0.0
C302 C 0.31929 0.84965 0.6332 0.0
C303 C 0.29652 0.83442 0.57029 0.0
C304 C 0.34291 0.89731 0.5929 0.0
O305 O 0.33122 0.84735 0.62282 0.0
O306 O 0.31157 0.85685 0.62216 0.0
O307 O 0.32758 0.88688 0.58328 0.0
O308 O 0.35044 0.8888 0.60149 0.0
C309 C 0.35403 0.85825 0.56592 0.0
O310 O 0.30113 0.85149 0.57154 0.0
O311 O 0.30755 0.83024 0.57972 0.0
C312 C 0.2983 0.44939 0.16283 0.0
C313 C 0.31146 0.46573 0.15196 0.0
C314 C 0.29554 0.44959 0.1854 0.0
C315 C 0.30497 0.48111 0.23314 0.0
H316 H 0.30329 0.4399 0.26565 0.0
C317 C 0.32208 0.4847 0.32544 0.0
C318 C 0.31198 0.4684 0.33804 0.0
C319 C 0.31914 0.48433 0.30284 0.0
C320 C 0.3034 0.45136 0.25684 0.0
H321 H 0.33162 0.49526 0.15598 0.0
H322 H 0.32706 0.49557 0.19542 0.0
H323 H 0.30329 0.43928 0.22584 0.0
H324 H 0.29025 0.43916 0.33711 0.0
H325 H 0.285 0.43856 0.2977 0.0
H326 H 0.30558 0.49339 0.26431 0.0
C327 C 0.31867 0.48264 0.18652 0.0
C328 C 0.30339 0.451 0.23398 0.0
C329 C 0.32138 0.48243 0.16394 0.0
C330 C 0.29834 0.45192 0.32779 0.0
C331 C 0.29539 0.45155 0.30521 0.0
C332 C 0.305 0.48148 0.25605 0.0
C333 C 0.30594 0.46614 0.19757 0.0
C334 C 0.30441 0.46597 0.22184 0.0
C335 C 0.30603 0.46765 0.29241 0.0
C336 C 0.30445 0.46671 0.26815 0.0
H337 H 0.29035 0.43633 0.15398 0.0
H338 H 0.28542 0.43672 0.19336 0.0
H339 H 0.30549 0.49274 0.22426 0.0
H340 H 0.33268 0.49761 0.33291 0.0
H341 H 0.32768 0.49693 0.29342 0.0
C342 C 0.832 0.32797 0.66387 0.0
C343 C 0.83935 0.31774 0.65375 0.0
C344 C 0.82789 0.32587 0.68626 0.0
C345 C 0.8213 0.29591 0.7347 0.0
H346 H 0.8414 0.34279 0.76648 0.0
C347 C 0.83915 0.30314 0.82692 0.0
C348 C 0.83724 0.31648 0.83923 0.0
C349 C 0.83549 0.30133 0.80441 0.0
C350 C 0.83533 0.32952 0.7579 0.0
H351 H 0.84738 0.29668 0.65884 0.0
H352 H 0.84039 0.29314 0.69797 0.0
H353 H 0.84187 0.34306 0.72669 0.0
H354 H 0.82895 0.3376 0.83798 0.0
H355 H 0.82222 0.33421 0.79879 0.0
H356 H 0.81517 0.28242 0.76606 0.0
C357 C 0.83763 0.30267 0.68861 0.0
C358 C 0.83562 0.32969 0.73504 0.0
C359 C 0.84175 0.30478 0.66622 0.0
C360 C 0.8307 0.32731 0.82885 0.0
C361 C 0.82695 0.32544 0.80638 0.0
C362 C 0.82096 0.29573 0.75763 0.0
C363 C 0.83103 0.31348 0.69897 0.0
C364 C 0.82889 0.31293 0.72317 0.0
C365 C 0.82977 0.31277 0.79379 0.0
C366 C 0.82827 0.31258 0.76949 0.0
H367 H 0.82988 0.33798 0.65464 0.0
H368 H 0.82256 0.3342 0.69371 0.0
H369 H 0.81579 0.28274 0.726 0.0
H370 H 0.84417 0.2946 0.83448 0.0
H371 H 0.83799 0.29157 0.7952 0.0
C372 C 0.50823 0.84115 0.33031 0.0
C373 C 0.52465 0.84694 0.34255 0.0
C374 C 0.50816 0.83851 0.30767 0.0
C375 C 0.54031 0.85436 0.26076 0.0
H376 H 0.49772 0.81529 0.22947 0.0
C377 C 0.54069 0.84874 0.16682 0.0
C378 C 0.52441 0.84589 0.15606 0.0
C379 C 0.5407 0.84639 0.1895 0.0
C380 C 0.50968 0.82633 0.23798 0.0
H381 H 0.55365 0.85375 0.34089 0.0
H382 H 0.55347 0.84897 0.30141 0.0
H383 H 0.49774 0.81549 0.26951 0.0
H384 H 0.49523 0.83777 0.16045 0.0
H385 H 0.4953 0.8339 0.20006 0.0
H386 H 0.5521 0.86548 0.22935 0.0
C387 C 0.54074 0.84675 0.30923 0.0
C388 C 0.50969 0.82644 0.2609 0.0
C389 C 0.54081 0.8494 0.33186 0.0
C390 C 0.50799 0.84006 0.1683 0.0
C391 C 0.508 0.83773 0.19099 0.0
C392 C 0.5403 0.85426 0.23788 0.0
C393 C 0.52451 0.84161 0.29682 0.0
C394 C 0.52493 0.84058 0.27254 0.0
C395 C 0.52444 0.84117 0.2019 0.0
C396 C 0.5249 0.84037 0.22621 0.0
H397 H 0.49556 0.83916 0.33812 0.0
H398 H 0.49548 0.83473 0.29857 0.0
H399 H 0.55213 0.86564 0.2692 0.0
H400 H 0.55353 0.85314 0.15779 0.0
H401 H 0.55351 0.84885 0.19736 0.0
C402 C 0.68635 0.54134 0.8275 0.0
C403 C 0.67551 0.52498 0.83977 0.0
C404 C 0.68811 0.54035 0.80483 0.0
C405 C 0.66326 0.5101 0.75791 0.0
H406 H 0.70922 0.54258 0.72658 0.0
C407 C 0.66731 0.50677 0.66409 0.0
C408 C 0.67589 0.52409 0.65318 0.0
C409 C 0.66907 0.50596 0.68677 0.0
C410 C 0.69627 0.53349 0.73511 0.0
H411 H 0.65857 0.49471 0.8381 0.0
H412 H 0.66178 0.49297 0.79855 0.0
H413 H 0.70905 0.54282 0.76663 0.0
H414 H 0.69359 0.5541 0.65731 0.0
H415 H 0.6965 0.55272 0.69696 0.0
H416 H 0.65035 0.50103 0.72651 0.0
C417 C 0.66869 0.50658 0.80638 0.0
C418 C 0.69617 0.53363 0.75803 0.0
C419 C 0.66693 0.50757 0.82904 0.0
C420 C 0.68682 0.54054 0.66528 0.0
C421 C 0.68857 0.53974 0.68798 0.0
C422 C 0.66336 0.50997 0.73504 0.0
C423 C 0.67906 0.52298 0.79396 0.0
C424 C 0.67961 0.52207 0.76968 0.0
C425 C 0.67944 0.52246 0.69904 0.0
C426 C 0.67981 0.52178 0.72336 0.0
H427 H 0.69312 0.55496 0.83534 0.0
H428 H 0.69603 0.55326 0.79572 0.0
H429 H 0.65019 0.50126 0.76636 0.0
H430 H 0.65889 0.49385 0.65516 0.0
H431 H 0.66212 0.49242 0.69476 0.0
C432 C 0.16288 0.66985 0.32848 0.0
C433 C 0.1543 0.67886 0.33878 0.0
C434 C 0.16625 0.67174 0.30591 0.0
C435 C 0.16776 0.69945 0.25701 0.0
H436 H 0.1525 0.6529 0.2261 0.0
C437 C 0.14654 0.68829 0.16589 0.0
C438 C 0.15126 0.67709 0.15312 0.0
C439 C 0.15051 0.69053 0.18831 0.0
C440 C 0.15716 0.6661 0.23446 0.0
H441 H 0.1432 0.69749 0.33375 0.0
H442 H 0.1488 0.70057 0.29438 0.0
H443 H 0.15323 0.65333 0.26594 0.0
H444 H 0.16447 0.66002 0.15355 0.0
H445 H 0.17147 0.664 0.19274 0.0
H446 H 0.17111 0.71206 0.2254 0.0
C447 C 0.15316 0.69224 0.3037 0.0
C448 C 0.15759 0.66635 0.25733 0.0
C449 C 0.14984 0.69038 0.32626 0.0
C450 C 0.16058 0.66867 0.16303 0.0
C451 C 0.16452 0.67088 0.18547 0.0
C452 C 0.16729 0.69918 0.2341 0.0
C453 C 0.16107 0.68265 0.29319 0.0
C454 C 0.16258 0.68295 0.2689 0.0
C455 C 0.15925 0.68159 0.19842 0.0
C456 C 0.16166 0.68243 0.22259 0.0
H457 H 0.16657 0.66096 0.33775 0.0
H458 H 0.17262 0.6644 0.29837 0.0
H459 H 0.17196 0.71253 0.26542 0.0
H460 H 0.13935 0.69496 0.1587 0.0
H461 H 0.14607 0.6987 0.19786 0.0
C462 C 0.45357 0.15078 0.82951 0.0
C463 C 0.46985 0.1532 0.83985 0.0
C464 C 0.45338 0.15348 0.80694 0.0
C465 C 0.48354 0.17347 0.75791 0.0
H466 H 0.44103 0.1334 0.7276 0.0
C467 C 0.48402 0.15837 0.66551 0.0
C468 C 0.46724 0.15157 0.6537 0.0
C469 C 0.48438 0.16128 0.68811 0.0
C470 C 0.45284 0.14491 0.73576 0.0
H471 H 0.49892 0.16114 0.8349 0.0
H472 H 0.49855 0.1657 0.7954 0.0
H473 H 0.44163 0.13393 0.7674 0.0
H474 H 0.43789 0.14337 0.65603 0.0
H475 H 0.43857 0.14878 0.6954 0.0
H476 H 0.49487 0.18425 0.72615 0.0
C477 C 0.48598 0.16186 0.80476 0.0
C478 C 0.45319 0.1452 0.75862 0.0
C479 C 0.48617 0.15916 0.82735 0.0
C480 C 0.451 0.14846 0.66475 0.0
C481 C 0.45137 0.15147 0.68732 0.0
C482 C 0.48316 0.17321 0.73499 0.0
C483 C 0.46946 0.15865 0.79424 0.0
C484 C 0.46863 0.15935 0.76997 0.0
C485 C 0.46797 0.15754 0.69935 0.0
C486 C 0.4679 0.15879 0.72365 0.0
H487 H 0.44081 0.14632 0.83876 0.0
H488 H 0.44052 0.15119 0.79936 0.0
H489 H 0.49553 0.18467 0.76621 0.0
H490 H 0.49676 0.16088 0.65741 0.0
H491 H 0.49736 0.16578 0.69689 0.0
C492 C 0.50351 0.66369 0.66486 0.0
C493 C 0.52079 0.67324 0.65394 0.0
C494 C 0.50257 0.66518 0.68758 0.0
C495 C 0.52918 0.69328 0.7359 0.0
H496 H 0.49868 0.64683 0.76733 0.0
C497 C 0.53742 0.68452 0.82852 0.0
C498 C 0.52116 0.67326 0.84074 0.0
C499 C 0.53644 0.68601 0.8058 0.0
C500 C 0.50704 0.65999 0.75882 0.0
H501 H 0.55056 0.69225 0.65812 0.0
H502 H 0.54897 0.69469 0.6978 0.0
H503 H 0.49857 0.64682 0.72746 0.0
H504 H 0.49102 0.65523 0.83892 0.0
H505 H 0.48928 0.65795 0.79928 0.0
H506 H 0.53791 0.70635 0.76737 0.0
C507 C 0.5361 0.68622 0.68882 0.0
C508 C 0.50696 0.65998 0.73594 0.0
C509 C 0.53703 0.68474 0.66609 0.0
C510 C 0.50382 0.66395 0.82991 0.0
C511 C 0.50283 0.66542 0.8072 0.0
C512 C 0.52926 0.69328 0.75882 0.0
C513 C 0.5189 0.67623 0.69987 0.0
C514 C 0.51816 0.67659 0.7242 0.0
C515 C 0.51916 0.67625 0.79484 0.0
C516 C 0.51831 0.67659 0.77053 0.0
H517 H 0.49073 0.65478 0.6559 0.0
H518 H 0.48906 0.65753 0.69556 0.0
H519 H 0.53776 0.70636 0.72734 0.0
H520 H 0.55099 0.69185 0.83643 0.0
H521 H 0.5493 0.69431 0.79673 0.0
C522 C 0.84378 0.53838 0.32994 0.0
C523 C 0.84375 0.52332 0.34073 0.0
C524 C 0.84045 0.53758 0.30741 0.0
C525 C 0.82312 0.50533 0.25948 0.0
H526 H 0.85733 0.55009 0.22722 0.0
C527 C 0.83951 0.50558 0.16739 0.0
C528 C 0.84251 0.52107 0.15475 0.0
C529 C 0.83646 0.50526 0.18996 0.0
C530 C 0.84744 0.53757 0.23596 0.0
H531 H 0.83957 0.49537 0.3366 0.0
H532 H 0.83413 0.4941 0.29722 0.0
H533 H 0.85772 0.55063 0.26704 0.0
H534 H 0.84383 0.548 0.15558 0.0
H535 H 0.83841 0.5474 0.19497 0.0
H536 H 0.81329 0.49215 0.22822 0.0
C537 C 0.83643 0.50642 0.30616 0.0
C538 C 0.84764 0.53788 0.25883 0.0
C539 C 0.83967 0.50719 0.32871 0.0
C540 C 0.84167 0.53591 0.16494 0.0
C541 C 0.83866 0.53561 0.1875 0.0
C542 C 0.82297 0.50501 0.23656 0.0
C543 C 0.83712 0.52175 0.29517 0.0
C544 C 0.83566 0.52171 0.27088 0.0
C545 C 0.83638 0.52045 0.20032 0.0
C546 C 0.83529 0.52107 0.22457 0.0
H547 H 0.84674 0.55094 0.33883 0.0
H548 H 0.84075 0.5495 0.29952 0.0
H549 H 0.81352 0.49272 0.26827 0.0
H550 H 0.84006 0.49393 0.15998 0.0
H551 H 0.83493 0.49346 0.19941 0.0
C552 C 0.32567 0.83903 0.66894 0.0
C553 C 0.31548 0.84537 0.65676 0.0
C554 C 0.3232 0.83659 0.69161 0.0
C555 C 0.30845 0.85403 0.73842 0.0
H556 H 0.31013 0.81419 0.77025 0.0
C557 C 0.30256 0.84966 0.83223 0.0
C558 C 0.31556 0.8463 0.84318 0.0
C559 C 0.30004 0.84697 0.80962 0.0
C560 C 0.30973 0.82545 0.76158 0.0
H561 H 0.29412 0.85333 0.65854 0.0
H562 H 0.28968 0.84889 0.69806 0.0
H563 H 0.31015 0.81401 0.73018 0.0
H564 H 0.33564 0.83684 0.83924 0.0
H565 H 0.33146 0.83242 0.79967 0.0
H566 H 0.30846 0.86574 0.76965 0.0
C567 C 0.2998 0.8461 0.69017 0.0
C568 C 0.30974 0.82534 0.73865 0.0
C569 C 0.30227 0.84855 0.66753 0.0
C570 C 0.32551 0.83955 0.83122 0.0
C571 C 0.32303 0.83691 0.80857 0.0
C572 C 0.30846 0.85415 0.76128 0.0
C573 C 0.31049 0.84044 0.70253 0.0
C574 C 0.30926 0.83973 0.72683 0.0
C575 C 0.31052 0.84093 0.79745 0.0
C576 C 0.30927 0.83997 0.77315 0.0
H577 H 0.33594 0.83646 0.66106 0.0
H578 H 0.33178 0.83238 0.70068 0.0
H579 H 0.30843 0.86552 0.72983 0.0
H580 H 0.29459 0.85474 0.84106 0.0
H581 H 0.29005 0.84988 0.80161 0.0
C582 C 0.48619 0.32557 0.33117 0.0
C583 C 0.46852 0.31761 0.34121 0.0
C584 C 0.48768 0.32379 0.30859 0.0
C585 C 0.46128 0.29736 0.25938 0.0
H586 H 0.49465 0.34349 0.22888 0.0
C587 C 0.4542 0.3084 0.16737 0.0
C588 C 0.47055 0.3194 0.15516 0.0
C589 C 0.4552 0.30628 0.18996 0.0
C590 C 0.48551 0.33039 0.23711 0.0
H591 H 0.43859 0.30095 0.33568 0.0
H592 H 0.44117 0.29796 0.29626 0.0
H593 H 0.49425 0.34298 0.26873 0.0
H594 H 0.50081 0.33623 0.15681 0.0
H595 H 0.5026 0.33235 0.19623 0.0
H596 H 0.45229 0.28487 0.22769 0.0
C597 C 0.45389 0.30544 0.30582 0.0
C598 C 0.48528 0.3301 0.25998 0.0
C599 C 0.4524 0.30725 0.32839 0.0
C600 C 0.48796 0.32776 0.16584 0.0
C601 C 0.48898 0.32561 0.18843 0.0
C602 C 0.46154 0.29763 0.23647 0.0
C603 C 0.47153 0.31398 0.29561 0.0
C604 C 0.47296 0.31367 0.27138 0.0
C605 C 0.47258 0.3151 0.20081 0.0
C606 C 0.47345 0.31424 0.22508 0.0
H607 H 0.49886 0.33356 0.34067 0.0
H608 H 0.50147 0.33032 0.30123 0.0
H609 H 0.45182 0.28442 0.26772 0.0
H610 H 0.44058 0.30179 0.15958 0.0
H611 H 0.44229 0.29828 0.19903 0.0
C612 C 0.15867 0.49225 0.66343 0.0
C613 C 0.15083 0.47462 0.65332 0.0
C614 C 0.16265 0.49414 0.68586 0.0
C615 C 0.16786 0.46977 0.73429 0.0
H616 H 0.15026 0.49864 0.76627 0.0
C617 C 0.14909 0.45921 0.82614 0.0
C618 C 0.15237 0.47481 0.83876 0.0
C619 C 0.15286 0.46108 0.80367 0.0
C620 C 0.1556 0.49082 0.75762 0.0
H621 H 0.14165 0.44526 0.6585 0.0
H622 H 0.14833 0.44848 0.69766 0.0
H623 H 0.14974 0.49854 0.72645 0.0
H624 H 0.1631 0.50477 0.83805 0.0
H625 H 0.16986 0.50808 0.79883 0.0
H626 H 0.17319 0.46163 0.76561 0.0
C627 C 0.15163 0.46091 0.68828 0.0
C628 C 0.1553 0.49076 0.73475 0.0
C629 C 0.14768 0.45903 0.66586 0.0
C630 C 0.16031 0.49247 0.8287 0.0
C631 C 0.16409 0.49435 0.80623 0.0
C632 C 0.16815 0.46983 0.75721 0.0
C633 C 0.15885 0.47843 0.69862 0.0
C634 C 0.1611 0.47997 0.72282 0.0
C635 C 0.16 0.4786 0.79337 0.0
C636 C 0.16171 0.48009 0.76912 0.0
H637 H 0.16136 0.50454 0.65413 0.0
H638 H 0.16845 0.50787 0.69327 0.0
H639 H 0.17269 0.46155 0.72556 0.0
H640 H 0.14299 0.44542 0.83345 0.0
H641 H 0.14937 0.44863 0.79422 0.0
C642 C 0.6852 0.14585 0.32769 0.0
C643 C 0.67401 0.15104 0.33977 0.0
C644 C 0.68705 0.14855 0.30503 0.0
C645 C 0.66206 0.15313 0.25772 0.0
H646 H 0.70815 0.1664 0.22683 0.0
C647 C 0.66661 0.15882 0.16362 0.0
C648 C 0.67522 0.14983 0.15334 0.0
C649 C 0.66816 0.16178 0.18626 0.0
C650 C 0.69516 0.16261 0.23524 0.0
H651 H 0.65658 0.16379 0.33778 0.0
H652 H 0.66 0.16873 0.29821 0.0
H653 H 0.70792 0.16677 0.26686 0.0
H654 H 0.69266 0.13739 0.15856 0.0
H655 H 0.69524 0.14239 0.19811 0.0
H656 H 0.6492 0.14864 0.22618 0.0
C657 C 0.66709 0.16229 0.3062 0.0
C658 C 0.69503 0.16281 0.25815 0.0
C659 C 0.66521 0.15955 0.32887 0.0
C660 C 0.68588 0.14436 0.16603 0.0
C661 C 0.68745 0.14734 0.18867 0.0
C662 C 0.6622 0.15296 0.23484 0.0
C663 C 0.67778 0.15654 0.29396 0.0
C664 C 0.67841 0.15783 0.26965 0.0
C665 C 0.67837 0.15581 0.19908 0.0
C666 C 0.67869 0.15746 0.22334 0.0
H667 H 0.69213 0.13924 0.33566 0.0
H668 H 0.69521 0.14376 0.29609 0.0
H669 H 0.64894 0.14892 0.26604 0.0
H670 H 0.65838 0.16327 0.15423 0.0
H671 H 0.66122 0.16857 0.19376 0.0
C672 C 0.18365 0.47309 0.95078 0.0
C673 C 0.16881 0.4578 0.94008 0.0
C674 C 0.1949 0.4703 0.96557 0.0
C675 C 0.21277 0.4397 0.98018 0.0
H676 H 0.22169 0.46415 0.0368 0.0
C677 C 0.26364 0.43724 0.04381 0.0
C678 C 0.27567 0.4544 0.05408 0.0
C679 C 0.24839 0.43509 0.03144 0.0
C680 C 0.21945 0.45733 0.02102 0.0
H681 H 0.15435 0.42764 0.93595 0.0
H682 H 0.17451 0.42281 0.96159 0.0
H683 H 0.19951 0.46538 0.01142 0.0
H684 H 0.2811 0.48264 0.05974 0.0
H685 H 0.25491 0.47908 0.03794 0.0
H686 H 0.23335 0.43239 0.98931 0.0
C687 C 0.17721 0.4369 0.95861 0.0
C688 C 0.2067 0.45798 0.00656 0.0
C689 C 0.16571 0.43967 0.94401 0.0
C690 C 0.27202 0.46922 0.0521 0.0
C691 C 0.25689 0.46711 0.03971 0.0
C692 C 0.22572 0.43923 0.99458 0.0
C693 C 0.19171 0.4522 0.96975 0.0
C694 C 0.20357 0.44955 0.98584 0.0
C695 C 0.24494 0.45007 0.02911 0.0
C696 C 0.22954 0.44844 0.01495 0.0
H697 H 0.18636 0.48722 0.94811 0.0
H698 H 0.20616 0.48234 0.97375 0.0
H699 H 0.2106 0.43315 0.96423 0.0
H700 H 0.26611 0.42555 0.04512 0.0
H701 H 0.23935 0.42172 0.02367 0.0
C702 C 0.71394 0.19474 0.441 0.0
C703 C 0.71148 0.17685 0.43732 0.0
C704 C 0.72889 0.2078 0.45363 0.0
C705 C 0.76196 0.21103 0.49642 0.0
H706 H 0.7855 0.26406 0.48324 0.0
C707 C 0.82305 0.26992 0.54699 0.0
C708 C 0.82035 0.28493 0.55265 0.0
C709 C 0.81084 0.25615 0.53234 0.0
C710 C 0.77902 0.24929 0.48711 0.0
H711 H 0.72299 0.15871 0.4434 0.0
H712 H 0.74944 0.18172 0.46515 0.0
H713 H 0.76298 0.24131 0.45756 0.0
H714 H 0.80268 0.29717 0.54773 0.0
H715 H 0.78155 0.27327 0.52207 0.0
H716 H 0.77817 0.21921 0.52603 0.0
C717 C 0.73959 0.18553 0.45861 0.0
C718 C 0.76609 0.23625 0.47246 0.0
C719 C 0.72453 0.1724 0.44605 0.0
C720 C 0.80512 0.28577 0.54368 0.0
C721 C 0.7931 0.27218 0.52888 0.0
C722 C 0.77508 0.22411 0.51099 0.0
C723 C 0.74183 0.20332 0.46274 0.0
C724 C 0.75707 0.21699 0.47717 0.0
C725 C 0.79594 0.25735 0.52291 0.0
C726 C 0.78338 0.24336 0.50668 0.0
H727 H 0.70405 0.19854 0.43458 0.0
H728 H 0.72995 0.22122 0.45677 0.0
H729 H 0.75515 0.19632 0.50067 0.0
H730 H 0.8347 0.26895 0.55368 0.0
H731 H 0.81332 0.24484 0.52795 0.0
C732 C 0.55083 0.82289 0.04916 0.0
C733 C 0.53331 0.81904 0.0572 0.0
C734 C 0.55239 0.80969 0.03628 0.0
C735 C 0.52613 0.75936 0.02012 0.0
H736 H 0.55847 0.77653 0.96905 0.0
C737 C 0.51662 0.71126 0.94774 0.0
C738 C 0.53251 0.71042 0.94123 0.0
C739 C 0.5183 0.72508 0.96224 0.0
C740 C 0.54953 0.7716 0.98338 0.0
H741 H 0.50371 0.79842 0.05822 0.0
H742 H 0.50628 0.77573 0.03537 0.0
H743 H 0.55855 0.79942 0.99462 0.0
H744 H 0.56271 0.72379 0.94407 0.0
H745 H 0.56568 0.74839 0.96918 0.0
H746 H 0.51656 0.73158 0.00832 0.0
C747 C 0.51895 0.78865 0.03938 0.0
C748 C 0.54962 0.78466 -0.00191 0.0
C749 C 0.51744 0.80172 0.05239 0.0
C750 C 0.55023 0.72412 0.94885 0.0
C751 C 0.55194 0.73817 0.96315 0.0
C752 C 0.52585 0.74637 0.00529 0.0
C753 C 0.53642 0.79246 0.03107 0.0
C754 C 0.53767 0.77869 0.01646 0.0
C755 C 0.53593 0.7385 0.97029 0.0
C756 C 0.53733 0.75237 0.98663 0.0
H757 H 0.56331 0.83613 0.05268 0.0
H758 H 0.5661 0.81299 0.0304 0.0
H759 H 0.51711 0.75423 0.03437 0.0
H760 H 0.50278 0.70088 0.94215 0.0
H761 H 0.50577 0.7252 0.96733 0.0
C762 C 0.72498 0.5531 0.54511 0.0
C763 C 0.71128 0.53533 0.5526 0.0
C764 C 0.73912 0.55492 0.5309 0.0
C765 C 0.74787 0.52877 0.48914 0.0
H766 H 0.80076 0.56182 0.50039 0.0
C767 C 0.80382 0.51975 0.44459 0.0
C768 C 0.82097 0.53563 0.43923 0.0
C769 C 0.79066 0.52145 0.4572 0.0
C770 C 0.78605 0.55278 0.49677 0.0
H771 H 0.70183 0.50561 0.55152 0.0
H772 H 0.72632 0.50878 0.52657 0.0
H773 H 0.77754 0.56187 0.5253 0.0
H774 H 0.83773 0.5658 0.44253 0.0
H775 H 0.81448 0.56886 0.46427 0.0
H776 H 0.75612 0.51969 0.46064 0.0
C777 C 0.72611 0.52127 0.53164 0.0
C778 C 0.77279 0.55278 0.51109 0.0
C779 C 0.71219 0.51949 0.54602 0.0
C780 C 0.82461 0.55331 0.44647 0.0
C781 C 0.81135 0.55504 0.45902 0.0
C782 C 0.76105 0.52892 0.47473 0.0
C783 C 0.73955 0.53895 0.52374 0.0
C784 C 0.75362 0.54043 0.50765 0.0
C785 C 0.79425 0.5391 0.46462 0.0
C786 C 0.78031 0.54057 0.47865 0.0
H787 H 0.72459 0.56555 0.54995 0.0
H788 H 0.74936 0.56869 0.525 0.0
H789 H 0.73313 0.51936 0.48594 0.0
H790 H 0.80066 0.50591 0.43937 0.0
H791 H 0.77783 0.50882 0.46156 0.0
C792 C 0.27303 0.83119 0.95962 0.0
C793 C 0.27977 0.82446 0.94284 0.0
C794 C 0.25812 0.81871 0.97281 0.0
C795 C 0.21869 0.77027 0.97583 0.0
H796 H 0.22603 0.77688 0.03872 0.0
C797 C 0.16301 0.72051 0.03768 0.0
C798 C 0.16988 0.7136 0.0541 0.0
C799 C 0.17536 0.7355 0.02451 0.0
C800 C 0.22378 0.7749 0.02119 0.0
H801 H 0.27587 0.79953 0.92618 0.0
H802 H 0.24976 0.77775 0.94913 0.0
H803 H 0.24928 0.80021 0.01396 0.0
H804 H 0.19497 0.71728 0.07013 0.0
H805 H 0.21653 0.74354 0.04722 0.0
H806 H 0.19343 0.74471 0.98305 0.0
C807 C 0.25596 0.79264 0.95206 0.0
C808 C 0.23698 0.78832 0.00704 0.0
C809 C 0.27097 0.8051 0.93901 0.0
C810 C 0.18928 0.72231 0.05758 0.0
C811 C 0.20162 0.7374 0.04455 0.0
C812 C 0.20541 0.75693 0.98998 0.0
C813 C 0.24958 0.79931 0.9693 0.0
C814 C 0.23472 0.78597 0.98422 0.0
C815 C 0.19479 0.74397 0.02768 0.0
C816 C 0.20799 0.75897 0.0128 0.0
H817 H 0.27955 0.84606 0.96292 0.0
H818 H 0.25336 0.82423 0.98586 0.0
H819 H 0.21654 0.76819 0.9583 0.0
H820 H 0.14811 0.71406 0.03465 0.0
H821 H 0.16973 0.7404 0.01174 0.0
C822 C 0.46208 0.19123 0.55701 0.0
C823 C 0.45141 0.17176 0.55402 0.0
C824 C 0.45902 0.20327 0.54382 0.0
C825 C 0.44232 0.20586 0.48937 0.0
H826 H 0.44388 0.25051 0.51227 0.0
C827 C 0.46034 0.27078 0.43689 0.0
C828 C 0.45035 0.28017 0.44072 0.0
C829 C 0.45744 0.25577 0.45017 0.0
C830 C 0.44318 0.23798 0.50565 0.0
H831 H 0.42885 0.14956 0.53533 0.0
H832 H 0.42359 0.17066 0.51215 0.0
H833 H 0.44402 0.22764 0.53758 0.0
H834 H 0.42912 0.28093 0.46095 0.0
H835 H 0.42415 0.25473 0.48425 0.0
H836 H 0.44185 0.2164 0.45743 0.0
C837 C 0.43435 0.17658 0.52464 0.0
C838 C 0.44343 0.225 0.52012 0.0
C839 C 0.43731 0.16452 0.53797 0.0
C840 C 0.43704 0.27396 0.45766 0.0
C841 C 0.43425 0.25904 0.47105 0.0
C842 C 0.44221 0.21893 0.4749 0.0
C843 C 0.44532 0.19607 0.52728 0.0
C844 C 0.44329 0.20895 0.51211 0.0
C845 C 0.44461 0.24996 0.46761 0.0
C846 C 0.44292 0.23525 0.48289 0.0
H847 H 0.47304 0.19719 0.56928 0.0
H848 H 0.46782 0.21824 0.54607 0.0
H849 H 0.44233 0.19369 0.48273 0.0
H850 H 0.47067 0.27526 0.42394 0.0
H851 H 0.46576 0.24916 0.44727 0.0
C852 C 0.8238 0.55036 0.0469 0.0
C853 C 0.82078 0.53258 0.05277 0.0
C854 C 0.81082 0.55205 0.03376 0.0
C855 C 0.76161 0.52472 0.01426 0.0
H856 H 0.7786 0.56202 0.96807 0.0
C857 C 0.7142 0.51953 0.94313 0.0
C858 C 0.71258 0.53541 0.93903 0.0
C859 C 0.7281 0.52064 0.95707 0.0
C860 C 0.7737 0.55166 0.98105 0.0
H861 H 0.80201 0.50268 0.04934 0.0
H862 H 0.77973 0.50557 0.02605 0.0
H863 H 0.80146 0.56118 0.99294 0.0
H864 H 0.7247 0.56511 0.94553 0.0
H865 H 0.7494 0.56711 0.96974 0.0
H866 H 0.73396 0.51482 0.00188 0.0
C867 C 0.79178 0.51825 0.032 0.0
C868 C 0.78674 0.55121 0.99534 0.0
C869 C 0.80463 0.51657 0.04525 0.0
C870 C 0.72563 0.55264 0.94845 0.0
C871 C 0.73974 0.55381 0.96223 0.0
C872 C 0.74867 0.52504 -0.00015 0.0
C873 C 0.79466 0.53599 0.02614 0.0
C874 C 0.78085 0.53753 0.01191 0.0
C875 C 0.74081 0.53771 0.967 0.0
C876 C 0.75461 0.53833 0.98294 0.0
H877 H 0.83615 0.56294 0.05252 0.0
H878 H 0.81337 0.56593 0.02975 0.0
H879 H 0.75651 0.51431 0.02717 0.0
H880 H 0.70437 0.50606 0.93608 0.0
H881 H 0.72881 0.50809 0.96028 0.0
C882 C 0.17096 0.72733 0.44542 0.0
C883 C 0.17414 0.71255 0.44018 0.0
C884 C 0.18276 0.74129 0.46017 0.0
C885 C 0.21323 0.74855 0.50671 0.0
H886 H 0.23824 0.80146 0.49254 0.0
C887 C 0.27725 0.80243 0.55466 0.0
C888 C 0.28013 0.82054 0.55773 0.0
C889 C 0.26255 0.78954 0.54163 0.0
C890 C 0.23108 0.78678 0.49696 0.0
H891 H 0.19224 0.70091 0.44591 0.0
H892 H 0.21259 0.72508 0.47182 0.0
H893 H 0.2158 0.77858 0.46667 0.0
H894 H 0.26963 0.83929 0.55008 0.0
H895 H 0.24356 0.81656 0.52762 0.0
H896 H 0.22826 0.75652 0.53695 0.0
C897 C 0.20102 0.72587 0.46455 0.0
C898 C 0.21831 0.77371 0.48209 0.0
C899 C 0.18945 0.71213 0.44962 0.0
C900 C 0.26775 0.82541 0.54793 0.0
C901 C 0.2529 0.81244 0.53496 0.0
C902 C 0.22577 0.76157 0.52165 0.0
C903 C 0.19767 0.74045 0.47014 0.0
C904 C 0.20966 0.75447 0.48664 0.0
C905 C 0.25024 0.79439 0.5315 0.0
C906 C 0.23524 0.78081 0.51673 0.0
H907 H 0.15925 0.72798 0.43835 0.0
H908 H 0.17993 0.75242 0.46425 0.0
H909 H 0.20645 0.73378 0.51072 0.0
H910 H 0.28663 0.7983 0.5619 0.0
H911 H 0.26118 0.77592 0.539 0.0
C912 C 0.47592 0.19049 0.95041 0.0
C913 C 0.46004 0.17448 0.94233 0.0
C914 C 0.47401 0.20225 0.96531 0.0
C915 C 0.44287 0.21831 0.98448 0.0
H916 H 0.47321 0.23179 0.03717 0.0
C917 C 0.44139 0.26891 0.0492 0.0
C918 C 0.45891 0.28228 0.0576 0.0
C919 C 0.4396 0.25385 0.03673 0.0
C920 C 0.46476 0.22831 0.02247 0.0
H921 H 0.42969 0.15847 0.94294 0.0
H922 H 0.42636 0.17945 0.96874 0.0
H923 H 0.47392 0.20957 0.01142 0.0
H924 H 0.48824 0.29034 0.05978 0.0
H925 H 0.48527 0.26453 0.0377 0.0
H926 H 0.43431 0.23764 0.99499 0.0
C927 C 0.44025 0.1827 0.96364 0.0
C928 C 0.46512 0.21554 0.00779 0.0
C929 C 0.44216 0.17073 0.94895 0.0
C930 C 0.47452 0.28019 0.05363 0.0
C931 C 0.47277 0.26528 0.04107 0.0
C932 C 0.44268 0.23131 -0.00094 0.0
C933 C 0.45619 0.19838 0.97219 0.0
C934 C 0.45445 0.21068 0.98849 0.0
C935 C 0.45533 0.25197 0.03234 0.0
C936 C 0.45392 0.23673 0.01802 0.0
H937 H 0.48987 0.19372 0.94562 0.0
H938 H 0.4865 0.2144 0.97148 0.0
H939 H 0.43457 0.21481 0.96965 0.0
H940 H 0.4291 0.27017 0.05208 0.0
H941 H 0.42592 0.24374 0.03047 0.0
C942 C 0.16969 0.44304 0.54897 0.0
C943 C 0.17305 0.46076 0.55565 0.0
C944 C 0.18294 0.44137 0.53635 0.0
C945 C 0.23286 0.46802 0.51902 0.0
H946 H 0.2157 0.43365 0.46975 0.0
C947 C 0.2803 0.47597 0.44651 0.0
C948 C 0.28106 0.45998 0.44023 0.0
C949 C 0.26679 0.47452 0.46134 0.0
C950 C 0.22065 0.44315 0.4836 0.0
H951 H 0.19287 0.49059 0.55455 0.0
H952 H 0.21568 0.48776 0.53222 0.0
H953 H 0.19285 0.4339 0.49508 0.0
H954 H 0.26795 0.42986 0.44396 0.0
H955 H 0.24392 0.42729 0.46968 0.0
H956 H 0.2606 0.47775 0.507 0.0
C957 C 0.20309 0.47508 0.53706 0.0
C958 C 0.2076 0.44326 0.49816 0.0
C959 C 0.18994 0.47673 0.54975 0.0
C960 C 0.26767 0.44241 0.44855 0.0
C961 C 0.25394 0.44093 0.4632 0.0
C962 C 0.24583 0.46806 0.50435 0.0
C963 C 0.19975 0.4574 0.53012 0.0
C964 C 0.21356 0.45594 0.51582 0.0
C965 C 0.25361 0.45703 0.46998 0.0
C966 C 0.23983 0.45585 0.48632 0.0
H967 H 0.15678 0.4305 0.55335 0.0
H968 H 0.18002 0.42753 0.53151 0.0
H969 H 0.23797 0.47764 0.53274 0.0
H970 H 0.29044 0.48969 0.44038 0.0
H971 H 0.26666 0.48711 0.46612 0.0
C972 C 0.80899 0.28519 0.95564 0.0
C973 C 0.82276 0.28393 0.94348 0.0
C974 C 0.79806 0.27136 0.9708 0.0
C975 C 0.77885 0.22234 0.98409 0.0
H976 H 0.77119 0.23772 0.04145 0.0
C977 C 0.72707 0.16903 0.04695 0.0
C978 C 0.71532 0.17449 0.05725 0.0
C979 C 0.74267 0.18202 0.03497 0.0
C980 C 0.77311 0.23319 0.02548 0.0
H981 H 0.83575 0.26711 0.93734 0.0
H982 H 0.81618 0.24253 0.96371 0.0
H983 H 0.79368 0.26107 0.01623 0.0
H984 H 0.71086 0.19785 0.06351 0.0
H985 H 0.73772 0.22034 0.04243 0.0
H986 H 0.75766 0.19458 0.9929 0.0
C987 C 0.81405 0.25437 0.96154 0.0
C988 C 0.78603 0.24655 0.0111 0.0
C989 C 0.82521 0.2684 0.94652 0.0
C990 C 0.71968 0.19324 0.05581 0.0
C991 C 0.73519 0.20617 0.04384 0.0
C992 C 0.76577 0.20896 -0.00157 0.0
C993 C 0.80052 0.25587 0.97398 0.0
C994 C 0.78867 0.24132 0.99008 0.0
C995 C 0.74678 0.2007 0.03309 0.0
C996 C 0.7624 0.21433 0.01907 0.0
H997 H 0.80679 0.29701 0.95367 0.0
H998 H 0.78753 0.27271 0.97995 0.0
H999 H 0.78059 0.21799 0.96792 0.0
H1000 H 0.72405 0.15466 0.04785 0.0
H1001 H 0.75142 0.17741 0.02707 0.0
C1002 C 0.51748 0.80423 0.44655 0.0
C1003 C 0.53348 0.8214 0.44158 0.0
C1004 C 0.51886 0.79101 0.45941 0.0
C1005 C 0.54954 0.7862 0.49996 0.0
H1006 H 0.51617 0.73331 0.4889 0.0
C1007 C 0.55017 0.72492 0.5474 0.0
C1008 C 0.53246 0.71103 0.55479 0.0
C1009 C 0.55184 0.73921 0.53354 0.0
C1010 C 0.52554 0.74804 0.49218 0.0
H1011 H 0.56355 0.83811 0.44578 0.0
H1012 H 0.56609 0.81473 0.46786 0.0
H1013 H 0.51668 0.75636 0.46357 0.0
H1014 H 0.5027 0.70139 0.55397 0.0
H1015 H 0.50563 0.72614 0.5296 0.0
H1016 H 0.55849 0.77762 0.52854 0.0
C1017 C 0.5524 0.81165 0.46218 0.0
C1018 C 0.52579 0.76127 0.47774 0.0
C1019 C 0.55098 0.82498 0.44942 0.0
C1020 C 0.51653 0.7119 0.54853 0.0
C1021 C 0.51818 0.72598 0.53449 0.0
C1022 C 0.54945 0.77291 0.51428 0.0
C1023 C 0.53632 0.79454 0.46744 0.0
C1024 C 0.53748 0.78053 0.4817 0.0
C1025 C 0.53579 0.7396 0.52664 0.0
C1026 C 0.53714 0.75374 0.51073 0.0
H1027 H 0.50377 0.80113 0.44088 0.0
H1028 H 0.50612 0.77818 0.46349 0.0
H1029 H 0.55858 0.80091 0.50364 0.0
H1030 H 0.56267 0.72457 0.552 0.0
H1031 H 0.56557 0.74958 0.52766 0.0
C1032 C 0.34138 0.41337 0.07615 0.0
C1033 C 0.34881 0.43024 0.08794 0.0
C1034 C 0.35069 0.40309 0.0759 0.0
C1035 C 0.39764 0.40915 0.08425 0.0
H1036 H 0.37142 0.35513 0.09083 0.0
C1037 C 0.43706 0.3698 0.10138 0.0
C1038 C 0.43156 0.35312 0.08982 0.0
C1039 C 0.42618 0.37838 0.10067 0.0
C1040 C 0.37889 0.3702 0.08872 0.0
H1041 H 0.37151 0.44935 0.10912 0.0
H1042 H 0.38759 0.43141 0.10885 0.0
H1043 H 0.35368 0.37165 0.0904 0.0
H1044 H 0.41017 0.3321 0.06879 0.0
H1045 H 0.39111 0.34722 0.06746 0.0
H1046 H 0.42282 0.40781 0.08266 0.0
C1047 C 0.37478 0.42624 0.0995 0.0
C1048 C 0.36875 0.37964 0.08847 0.0
C1049 C 0.36549 0.43646 0.09977 0.0
C1050 C 0.41475 0.34497 0.07786 0.0
C1051 C 0.40381 0.35357 0.07717 0.0
C1052 C 0.40774 0.39975 0.0845 0.0
C1053 C 0.36761 0.40956 0.08738 0.0
C1054 C 0.37807 0.39926 0.08654 0.0
C1055 C 0.40955 0.37049 0.08837 0.0
C1056 C 0.39853 0.3802 0.08704 0.0
H1057 H 0.32853 0.40825 0.06688 0.0
H1058 H 0.34489 0.39034 0.06632 0.0
H1059 H 0.40519 0.42423 0.08223 0.0
H1060 H 0.44989 0.37636 0.11085 0.0
H1061 H 0.4308 0.39122 0.10981 0.0
C1062 C 0.06694 0.41275 0.58019 0.0
C1063 C 0.07541 0.429 0.59317 0.0
C1064 C 0.0476 0.4005 0.58125 0.0
C1065 C 0.00597 0.3876 0.6158 0.0
H1066 H 0.97859 0.37123 0.56102 0.0
C1067 C 0.92762 0.36308 0.60929 0.0
C1068 C 0.91644 0.3483 0.595 0.0
C1069 C 0.94695 0.37037 0.61005 0.0
C1070 C 0.98603 0.37539 0.57648 0.0
H1071 H 0.07039 0.44504 0.61768 0.0
H1072 H 0.03673 0.4238 0.61943 0.0
H1073 H 0.01273 0.38863 0.56055 0.0
H1074 H 0.91662 0.32922 0.57067 0.0
H1075 H 0.9505 0.34195 0.57205 0.0
H1076 H 0.97928 0.37475 0.63171 0.0
C1077 C 0.04498 0.42036 0.60861 0.0
C1078 C 0.0056 0.38536 0.5762 0.0
C1079 C 0.06426 0.43261 0.60749 0.0
C1080 C 0.92492 0.34066 0.5818 0.0
C1081 C 0.9443 0.348 0.58252 0.0
C1082 C 0.98643 0.37763 0.61608 0.0
C1083 C 0.03641 0.40424 0.5954 0.0
C1084 C 0.01576 0.39192 0.59583 0.0
C1085 C 0.95554 0.36304 0.59653 0.0
C1086 C 0.97624 0.37177 0.59639 0.0
H1087 H 0.07522 0.4096 0.56904 0.0
H1088 H 0.0414 0.38811 0.571 0.0
H1089 H 0.01343 0.39217 0.63122 0.0
H1090 H 0.92149 0.36927 0.61965 0.0
H1091 H 0.95523 0.38213 0.62079 0.0
C1092 C 0.55515 0.92855 0.10079 0.0
C1093 C 0.561 0.91744 0.08973 0.0
C1094 C 0.56579 0.94803 0.0998 0.0
C1095 C 0.61287 0.98753 0.08849 0.0
H1096 H 0.58591 0.01438 0.07997 0.0
C1097 C 0.64949 0.06829 0.07655 0.0
C1098 C 0.64139 0.07734 0.08781 0.0
C1099 C 0.64048 0.0487 0.07602 0.0
C1100 C 0.59364 0.00711 0.08255 0.0
H1101 H 0.58277 0.91795 0.06931 0.0
H1102 H 0.60144 0.95218 0.06753 0.0
H1103 H 0.56881 0.98031 0.08045 0.0
H1104 H 0.61779 0.07308 0.10773 0.0
H1105 H 0.60224 0.03908 0.10698 0.0
H1106 H 0.63772 0.01447 0.09078 0.0
C1107 C 0.58864 0.94576 0.07704 0.0
C1108 C 0.58384 0.98759 0.08282 0.0
C1109 C 0.57793 0.92619 0.07799 0.0
C1110 C 0.62433 0.06651 0.0988 0.0
C1111 C 0.61535 0.04701 0.09825 0.0
C1112 C 0.62271 0.00714 0.08825 0.0
C1113 C 0.58253 0.95686 0.08772 0.0
C1114 C 0.59329 0.97758 0.08613 0.0
C1115 C 0.62321 0.03788 0.08668 0.0
C1116 C 0.61314 0.01711 0.08562 0.0
H1117 H 0.54222 0.92221 0.11007 0.0
H1118 H 0.56089 0.9562 0.10854 0.0
H1119 H 0.62051 0.98018 0.09119 0.0
H1120 H 0.66264 0.07631 0.06794 0.0
H1121 H 0.64682 0.04205 0.06687 0.0
C1122 C 0.64873 0.57866 0.57686 0.0
C1123 C 0.64059 0.56152 0.58816 0.0
C1124 C 0.63972 0.58922 0.57618 0.0
C1125 C 0.59282 0.58376 0.5818 0.0
H1126 H 0.61927 0.6375 0.59109 0.0
C1127 C 0.55352 0.62315 0.59878 0.0
C1128 C 0.5596 0.64032 0.58811 0.0
C1129 C 0.56425 0.61442 0.59806 0.0
C1130 C 0.61175 0.62253 0.5882 0.0
H1131 H 0.61693 0.54219 0.60802 0.0
H1132 H 0.60134 0.5606 0.60697 0.0
H1133 H 0.63665 0.62061 0.59112 0.0
H1134 H 0.58186 0.66204 0.56864 0.0
H1135 H 0.60069 0.64666 0.56728 0.0
H1136 H 0.56795 0.58555 0.57898 0.0
C1137 C 0.61451 0.56578 0.59835 0.0
C1138 C 0.62169 0.61287 0.58822 0.0
C1139 C 0.6235 0.5553 0.59907 0.0
C1140 C 0.57684 0.64879 0.57701 0.0
C1141 C 0.58764 0.64004 0.57631 0.0
C1142 C 0.58293 0.59337 0.58176 0.0
C1143 C 0.62239 0.58274 0.58671 0.0
C1144 C 0.61225 0.59334 0.58537 0.0
C1145 C 0.58132 0.62264 0.58662 0.0
C1146 C 0.59221 0.61281 0.58532 0.0
H1147 H 0.66191 0.58379 0.5683 0.0
H1148 H 0.64608 0.6022 0.567 0.0
H1149 H 0.58523 0.56876 0.57906 0.0
H1150 H 0.54034 0.61633 0.60758 0.0
H1151 H 0.55917 0.60121 0.60653 0.0
C1152 C 0.92521 0.58112 0.08508 0.0
C1153 C 0.91668 0.56388 0.09616 0.0
C1154 C 0.9446 0.59305 0.08621 0.0
C1155 C 0.98673 0.60199 0.11794 0.0
H1156 H 0.01305 0.62408 0.06366 0.0
C1157 C 0.06482 0.62705 0.10576 0.0
C1158 C 0.07582 0.64384 0.09431 0.0
C1159 C 0.04548 0.61943 0.10731 0.0
C1160 C 0.00589 0.61826 0.07902 0.0
H1161 H 0.92163 0.54572 0.11741 0.0
H1162 H 0.95538 0.56631 0.11913 0.0
H1163 H 0.9789 0.60694 0.06409 0.0
H1164 H 0.07528 0.66596 0.07569 0.0
H1165 H 0.04133 0.65252 0.07828 0.0
H1166 H 0.01375 0.61283 0.13268 0.0
C1167 C 0.94715 0.57082 0.10984 0.0
C1168 C 0.98632 0.60846 0.07928 0.0
C1169 C 0.92781 0.55895 0.10873 0.0
C1170 C 0.06713 0.65298 0.0846 0.0
C1171 C 0.04772 0.64527 0.08601 0.0
C1172 C 0.00627 0.61171 0.11765 0.0
C1173 C 0.95581 0.58794 0.09846 0.0
C1174 C 0.97652 0.59992 0.09866 0.0
C1175 C 0.0367 0.62838 0.09732 0.0
C1176 C 0.01605 0.61965 0.0981 0.0
H1177 H 0.91695 0.5853 0.07532 0.0
H1178 H 0.95083 0.60623 0.07746 0.0
H1179 H 0.9796 0.5959 0.13323 0.0
H1180 H 0.07114 0.6197 0.11341 0.0
H1181 H 0.03733 0.60627 0.11589 0.0
C1182 C 0.41334 0.06845 0.58317 0.0
C1183 C 0.43138 0.07792 0.59233 0.0
C1184 C 0.40289 0.04887 0.58348 0.0
C1185 C 0.40897 0.00764 0.58816 0.0
H1186 H 0.35568 0.9807 0.60043 0.0
C1187 C 0.36916 0.92856 0.60401 0.0
C1188 C 0.35178 0.9179 0.59359 0.0
C1189 C 0.37811 0.94807 0.60397 0.0
C1190 C 0.37052 0.98806 0.59676 0.0
H1191 H 0.45246 0.07444 0.60951 0.0
H1192 H 0.43417 0.04038 0.61036 0.0
H1193 H 0.37277 0.01496 0.60033 0.0
H1194 H 0.32992 0.91921 0.57533 0.0
H1195 H 0.34567 0.95347 0.5752 0.0
H1196 H 0.40681 0.98084 0.58469 0.0
C1197 C 0.4282 0.04799 0.60255 0.0
C1198 C 0.3803 0.00765 0.59669 0.0
C1199 C 0.43864 0.06751 0.60218 0.0
C1200 C 0.34333 0.92711 0.58348 0.0
C1201 C 0.35229 0.94669 0.58349 0.0
C1202 C 0.39923 0.98812 0.58828 0.0
C1203 C 0.41031 0.03843 0.59298 0.0
C1204 C 0.39968 0.01765 0.59257 0.0
C1205 C 0.36989 0.95735 0.59352 0.0
C1206 C 0.37995 0.97811 0.59276 0.0
H1207 H 0.40741 0.07613 0.57544 0.0
H1208 H 0.38921 0.04192 0.57583 0.0
H1209 H 0.4238 0.01491 0.58443 0.0
H1210 H 0.37598 0.92186 0.61204 0.0
H1211 H 0.39152 0.9559 0.61215 0.0
C1212 C 0.57788 0.65013 0.91752 0.0
C1213 C 0.55976 0.64036 0.90857 0.0
C1214 C 0.58893 0.64167 0.91874 0.0
C1215 C 0.5848 0.59509 0.91951 0.0
H1216 H 0.6368 0.62106 0.90117 0.0
C1217 C 0.62328 0.55551 0.89943 0.0
C1218 C 0.64162 0.56269 0.90728 0.0
C1219 C 0.61435 0.56601 0.901 0.0
C1220 C 0.62237 0.61373 0.90664 0.0
H1221 H 0.53909 0.61421 0.89366 0.0
H1222 H 0.55831 0.59953 0.89571 0.0
H1223 H 0.61917 0.63771 0.90148 0.0
H1224 H 0.66514 0.58663 0.92258 0.0
H1225 H 0.64944 0.60514 0.92528 0.0
H1226 H 0.58782 0.57107 0.9244 0.0
C1227 C 0.56394 0.61362 0.90202 0.0
C1228 C 0.61229 0.62325 0.90681 0.0
C1229 C 0.55297 0.62208 0.9007 0.0
C1230 C 0.65099 0.58076 0.91641 0.0
C1231 C 0.64204 0.59136 0.91789 0.0
C1232 C 0.59483 0.58561 0.91934 0.0
C1233 C 0.58197 0.62325 0.91119 0.0
C1234 C 0.59328 0.61388 0.91281 0.0
C1235 C 0.62354 0.58397 0.91043 0.0
C1236 C 0.61359 0.5947 0.91246 0.0
H1237 H 0.58346 0.66426 0.9237 0.0
H1238 H 0.60276 0.64939 0.92596 0.0
H1239 H 0.57029 0.58762 0.92471 0.0
H1240 H 0.61571 0.54165 0.89224 0.0
H1241 H 0.60021 0.56007 0.89475 0.0
C1242 C 0.92794 0.58097 0.41404 0.0
C1243 C 0.9186 0.56489 0.40086 0.0
C1244 C 0.94749 0.59187 0.41353 0.0
C1245 C 0.98879 0.58784 0.40004 0.0
H1246 H 0.01566 0.64216 0.40025 0.0
C1247 C 0.06781 0.6297 0.38531 0.0
C1248 C 0.07847 0.645 0.39917 0.0
C1249 C 0.04834 0.62104 0.38516 0.0
C1250 C 0.00833 0.62699 0.4004 0.0
H1251 H 0.92227 0.548 0.37626 0.0
H1252 H 0.95622 0.56706 0.3752 0.0
H1253 H 0.98137 0.62498 0.40068 0.0
H1254 H 0.07718 0.66363 0.4233 0.0
H1255 H 0.04297 0.64833 0.42318 0.0
H1256 H 0.01556 0.58971 0.39982 0.0
C1257 C 0.94855 0.57109 0.38622 0.0
C1258 C 0.98872 0.61717 0.40065 0.0
C1259 C 0.92908 0.56023 0.38674 0.0
C1260 C 0.06929 0.65184 0.41245 0.0
C1261 C 0.04974 0.64314 0.41232 0.0
C1262 C 0.00829 0.59761 0.39979 0.0
C1263 C 0.958 0.58684 0.39986 0.0
C1264 C 0.97877 0.59748 0.40025 0.0
C1265 C 0.03905 0.62745 0.39892 0.0
C1266 C 0.01829 0.61728 0.39974 0.0
H1267 H 0.92019 0.58489 0.42507 0.0
H1268 H 0.9544 0.60389 0.4243 0.0
H1269 H 0.98153 0.57267 0.40024 0.0
H1270 H 0.0745 0.6242 0.37477 0.0
H1271 H 0.04052 0.60921 0.37434 0.0
C1272 C 0.43727 0.06775 0.88913 0.0
C1273 C 0.43162 0.07878 0.90074 0.0
C1274 C 0.42588 0.04831 0.88851 0.0
C1275 C 0.38796 0.00905 0.91876 0.0
H1276 H 0.38482 0.98126 0.8661 0.0
C1277 C 0.34266 0.92828 0.91346 0.0
C1278 C 0.35156 0.91922 0.9041 0.0
C1279 C 0.35087 0.94775 0.91215 0.0
C1280 C 0.38563 0.98883 0.88095 0.0
H1281 H 0.40948 0.07821 0.92046 0.0
H1282 H 0.38941 0.04418 0.91917 0.0
H1283 H 0.40178 0.0154 0.86524 0.0
H1284 H 0.37589 0.92334 0.88583 0.0
H1285 H 0.39022 0.95728 0.88357 0.0
H1286 H 0.37194 0.98242 0.9345 0.0
C1287 C 0.40278 0.05055 0.9108 0.0
C1288 C 0.39536 0.00838 0.88047 0.0
C1289 C 0.41422 0.07003 0.91145 0.0
C1290 C 0.3687 0.92994 0.89319 0.0
C1291 C 0.37684 0.94936 0.89177 0.0
C1292 C 0.37816 0.98948 0.91921 0.0
C1293 C 0.40855 0.03947 0.89942 0.0
C1294 C 0.39691 0.01872 0.89947 0.0
C1295 C 0.36806 0.95849 0.90131 0.0
C1296 C 0.37716 0.97918 0.9004 0.0
H1297 H 0.45065 0.0741 0.88076 0.0
H1298 H 0.43089 0.04018 0.87989 0.0
H1299 H 0.38908 0.01658 0.93375 0.0
H1300 H 0.32941 0.92035 0.92193 0.0
H1301 H 0.34373 0.95441 0.91951 0.0
C1302 C 0.36572 0.43743 0.38828 0.0
C1303 C 0.34867 0.43135 0.39925 0.0
C1304 C 0.37384 0.42612 0.38754 0.0
C1305 C 0.37446 0.38731 0.41651 0.0
H1306 H 0.4007 0.38611 0.36432 0.0
C1307 C 0.41059 0.34269 0.4103 0.0
C1308 C 0.42886 0.3521 0.40176 0.0
C1309 C 0.39924 0.3508 0.40904 0.0
C1310 C 0.39348 0.38637 0.37904 0.0
H1311 H 0.32658 0.40858 0.41777 0.0
H1312 H 0.3407 0.38866 0.41626 0.0
H1313 H 0.38335 0.40288 0.36366 0.0
H1314 H 0.44952 0.3772 0.38501 0.0
H1315 H 0.42973 0.39132 0.38281 0.0
H1316 H 0.38478 0.37091 0.43191 0.0
C1317 C 0.3479 0.40228 0.40848 0.0
C1318 C 0.38357 0.39599 0.37868 0.0
C1319 C 0.33977 0.41363 0.40925 0.0
C1320 C 0.43549 0.36962 0.39172 0.0
C1321 C 0.42412 0.37765 0.39034 0.0
C1322 C 0.38432 0.37761 0.41683 0.0
C1323 C 0.36508 0.40845 0.39769 0.0
C1324 C 0.37423 0.39686 0.39753 0.0
C1325 C 0.40591 0.36837 0.39907 0.0
C1326 C 0.39419 0.37732 0.39821 0.0
H1327 H 0.37294 0.45105 0.38048 0.0
H1328 H 0.38723 0.43144 0.37941 0.0
H1329 H 0.3676 0.38789 0.43138 0.0
H1330 H 0.40512 0.32915 0.4181 0.0
H1331 H 0.38522 0.34328 0.41577 0.0
C1332 C 0.06471 0.43608 0.88019 0.0
C1333 C 0.0747 0.43156 0.89527 0.0
C1334 C 0.04528 0.42505 0.87863 0.0
C1335 C 0.00489 0.37875 0.89282 0.0
H1336 H 0.97739 0.40544 0.88894 0.0
C1337 C 0.92488 0.34397 0.90733 0.0
C1338 C 0.91493 0.34988 0.894 0.0
C1339 C 0.94439 0.35277 0.90595 0.0
C1340 C 0.98484 0.39774 0.8897 0.0
H1341 H 0.0723 0.41172 0.92017 0.0
H1342 H 0.03823 0.39254 0.91766 0.0
H1343 H 0.01141 0.42292 0.88942 0.0
H1344 H 0.91745 0.36906 0.86814 0.0
H1345 H 0.95143 0.38425 0.86556 0.0
H1346 H 0.97816 0.35354 0.89339 0.0
C1347 C 0.04546 0.40449 0.90687 0.0
C1348 C 0.00436 0.40777 0.88997 0.0
C1349 C 0.06494 0.41553 0.90839 0.0
C1350 C 0.92476 0.36429 0.87875 0.0
C1351 C 0.94423 0.37306 0.87736 0.0
C1352 C 0.9853 0.36868 0.89256 0.0
C1353 C 0.03539 0.40929 0.89217 0.0
C1354 C 0.01462 0.39841 0.89153 0.0
C1355 C 0.9543 0.36763 0.89121 0.0
C1356 C 0.97508 0.37809 0.89099 0.0
H1357 H 0.07188 0.44828 0.86973 0.0
H1358 H 0.03798 0.42893 0.86687 0.0
H1359 H 0.0124 0.37113 0.89381 0.0
H1360 H 0.91765 0.33289 0.91924 0.0
H1361 H 0.95175 0.34836 0.91696 0.0
C1362 C 0.5596 0.93069 0.39203 0.0
C1363 C 0.56386 0.91964 0.4057 0.0
C1364 C 0.57129 0.95007 0.39136 0.0
C1365 C 0.60606 0.98965 0.42382 0.0
H1366 H 0.61524 0.01625 0.36868 0.0
C1367 C 0.65019 0.0706 0.41761 0.0
C1368 C 0.64223 0.07893 0.4047 0.0
C1369 C 0.64269 0.05117 0.4173 0.0
C1370 C 0.61274 0.00902 0.38421 0.0
H1371 H 0.58378 0.92014 0.42926 0.0
H1372 H 0.60433 0.95418 0.42808 0.0
H1373 H 0.59853 0.98211 0.36884 0.0
H1374 H 0.62035 0.07356 0.38124 0.0
H1375 H 0.60725 0.03976 0.38077 0.0
H1376 H 0.61997 0.01662 0.43922 0.0
C1377 C 0.59185 0.9478 0.41798 0.0
C1378 C 0.60318 0.98948 0.38431 0.0
C1379 C 0.58015 0.92834 0.41858 0.0
C1380 C 0.6268 0.06754 0.39134 0.0
C1381 C 0.61938 0.04819 0.39095 0.0
C1382 C 0.61565 0.00923 0.42373 0.0
C1383 C 0.5875 0.95887 0.40438 0.0
C1384 C 0.59938 0.97958 0.40415 0.0
C1385 C 0.62719 0.03977 0.40396 0.0
C1386 C 0.61874 0.01911 0.40395 0.0
H1387 H 0.54712 0.92438 0.38193 0.0
H1388 H 0.56738 0.95822 0.38098 0.0
H1389 H 0.6032 0.98241 0.43939 0.0
H1390 H 0.66212 0.07906 0.42805 0.0
H1391 H 0.64907 0.04508 0.42739 0.0
C1392 C 0.4822 0.62294 0.96776 0.0
C1393 C 0.48108 0.62233 0.94477 0.0
C1394 C 0.46765 0.60923 0.98037 0.0
C1395 C 0.42887 0.56082 0.97791 0.0
H1396 H 0.41021 0.57458 0.02879 0.0
C1397 C 0.36424 0.50613 0.02553 0.0
C1398 C 0.36464 0.50761 0.04847 0.0
C1399 C 0.37807 0.52046 0.01281 0.0
C1400 C 0.41541 0.57047 0.0148 0.0
H1401 H 0.46389 0.60698 0.91692 0.0
H1402 H 0.43852 0.58293 0.93898 0.0
H1403 H 0.43522 0.59898 0.00678 0.0
H1404 H 0.37973 0.52521 0.07614 0.0
H1405 H 0.40417 0.55004 0.05401 0.0
H1406 H 0.40942 0.53235 0.98606 0.0
C1407 C 0.45067 0.59398 0.94722 0.0
C1408 C 0.4297 0.58446 0.00217 0.0
C1409 C 0.46514 0.60778 0.93462 0.0
C1410 C 0.37905 0.52373 0.05847 0.0
C1411 C 0.39298 0.53801 0.04576 0.0
C1412 C 0.4147 0.54683 0.99062 0.0
C1413 C 0.45178 0.59456 0.97022 0.0
C1414 C 0.43655 0.57977 0.98358 0.0
C1415 C 0.39271 0.53651 0.02277 0.0
C1416 C 0.40776 0.55147 0.00922 0.0
H1417 H 0.49432 0.63401 0.97603 0.0
H1418 H 0.46896 0.60993 -0.00194 0.0
H1419 H 0.43407 0.55679 0.96385 0.0
H1420 H 0.35322 0.49391 0.01736 0.0
H1421 H 0.3772 0.51898 0.99515 0.0
C1422 C 0.86234 0.38908 0.56154 0.0
C1423 C 0.86295 0.37396 0.55181 0.0
C1424 C 0.86264 0.40319 0.54855 0.0
C1425 C 0.85123 0.41195 0.49344 0.0
H1426 H 0.88415 0.46435 0.50745 0.0
C1427 C 0.85994 0.47086 0.43519 0.0
C1428 C 0.86191 0.48727 0.44464 0.0
C1429 C 0.86032 0.45715 0.44829 0.0
C1430 C 0.87467 0.44979 0.50346 0.0
H1431 H 0.86441 0.36173 0.52091 0.0
H1432 H 0.86475 0.38629 0.49823 0.0
H1433 H 0.88424 0.44025 0.53053 0.0
H1434 H 0.86561 0.50217 0.47518 0.0
H1435 H 0.86573 0.47807 0.49813 0.0
H1436 H 0.84132 0.42134 0.46667 0.0
C1437 C 0.86402 0.38722 0.51588 0.0
C1438 C 0.87479 0.436 0.51667 0.0
C1439 C 0.86393 0.37323 0.52887 0.0
C1440 C 0.86417 0.48969 0.46743 0.0
C1441 C 0.86437 0.47592 0.48057 0.0
C1442 C 0.85096 0.42571 0.48036 0.0
C1443 C 0.86333 0.40231 0.52558 0.0
C1444 C 0.86312 0.41696 0.51173 0.0
C1445 C 0.86249 0.45948 0.47117 0.0
C1446 C 0.86272 0.44482 0.48516 0.0
H1447 H 0.86157 0.38999 0.57919 0.0
H1448 H 0.86196 0.41461 0.55643 0.0
H1449 H 0.8419 0.39735 0.48944 0.0
H1450 H 0.85829 0.46867 0.41763 0.0
H1451 H 0.85915 0.44484 0.44043 0.0
C1452 C 0.36716 0.85753 0.96991 0.0
C1453 C 0.36793 0.85683 0.94696 0.0
C1454 C 0.38071 0.85675 0.98284 0.0
C1455 C 0.41795 0.84395 0.98125 0.0
H1456 H 0.43572 0.87529 0.03312 0.0
C1457 C 0.48409 0.85775 0.02926 0.0
C1458 C 0.48262 0.85668 0.05222 0.0
C1459 C 0.46967 0.85704 0.01653 0.0
C1460 C 0.43076 0.86633 0.0188 0.0
H1461 H 0.38342 0.85469 0.9195 0.0
H1462 H 0.40741 0.85381 0.94203 0.0
H1463 H 0.41151 0.87555 0.01051 0.0
H1464 H 0.46494 0.85398 0.07989 0.0
H1465 H 0.43979 0.85293 0.05761 0.0
H1466 H 0.4376 0.8351 0.98941 0.0
C1467 C 0.39612 0.85457 0.95011 0.0
C1468 C 0.41684 0.86642 0.00586 0.0
C1469 C 0.38245 0.85519 0.93717 0.0
C1470 C 0.46645 0.85485 0.06222 0.0
C1471 C 0.45211 0.85434 0.04949 0.0
C1472 C 0.432 0.84399 0.99411 0.0
C1473 C 0.39547 0.85542 0.97311 0.0
C1474 C 0.41024 0.85522 0.98692 0.0
C1475 C 0.45359 0.85543 0.02652 0.0
C1476 C 0.43853 0.85518 0.01302 0.0
H1477 H 0.35604 0.85866 0.97792 0.0
H1478 H 0.37954 0.85707 0.0005 0.0
H1479 H 0.413 0.83491 0.96701 0.0
H1480 H 0.49639 0.85915 0.02111 0.0
H1481 H 0.47125 0.85809 -0.00112 0.0
C1482 C 0.50674 0.36765 0.46784 0.0
C1483 C 0.50775 0.36895 0.44488 0.0
C1484 C 0.52108 0.38125 0.48076 0.0
C1485 C 0.57061 0.41957 0.47859 0.0
H1486 H 0.55728 0.4359 0.53181 0.0
C1487 C 0.62292 0.48549 0.52688 0.0
C1488 C 0.6229 0.48383 0.5498 0.0
C1489 C 0.60912 0.47108 0.51422 0.0
C1490 C 0.56123 0.43134 0.51711 0.0
H1491 H 0.52455 0.38544 0.41739 0.0
H1492 H 0.54942 0.40945 0.43992 0.0
H1493 H 0.53275 0.41157 0.50932 0.0
H1494 H 0.60848 0.46583 0.57746 0.0
H1495 H 0.58424 0.44066 0.5553 0.0
H1496 H 0.5991 0.43966 0.48627 0.0
C1497 C 0.53773 0.39774 0.44799 0.0
C1498 C 0.54718 0.41737 0.50423 0.0
C1499 C 0.52344 0.38405 0.43506 0.0
C1500 C 0.60882 0.46749 0.55983 0.0
C1501 C 0.59492 0.45314 0.54717 0.0
C1502 C 0.58464 0.43364 0.4914 0.0
C1503 C 0.5367 0.39654 0.47101 0.0
C1504 C 0.55169 0.4113 0.4848 0.0
C1505 C 0.59493 0.45479 0.52423 0.0
C1506 C 0.58009 0.43967 0.51079 0.0
H1507 H 0.49485 0.35609 0.47586 0.0
H1508 H 0.51996 0.3797 0.49841 0.0
H1509 H 0.57463 0.41503 0.46394 0.0
H1510 H 0.63361 0.49792 0.51871 0.0
H1511 H 0.60937 0.47281 0.4966 0.0
C1512 C 0.13421 0.5257 0.93187 0.0
C1513 C 0.13095 0.50876 0.94115 0.0
C1514 C 0.13454 0.53973 0.94506 0.0
C1515 C 0.12015 0.54773 -0.00014 0.0
H1516 H 0.15634 0.5997 0.98752 0.0
C1517 C 0.13415 0.60816 0.05902 0.0
C1518 C 0.13481 0.62397 0.04942 0.0
C1519 C 0.13384 0.59412 0.04588 0.0
C1520 C 0.14607 0.58525 0.99106 0.0
H1521 H 0.12556 0.49318 0.97148 0.0
H1522 H 0.12658 0.51776 0.99456 0.0
H1523 H 0.15535 0.57509 0.96441 0.0
H1524 H 0.13592 0.63761 0.01863 0.0
H1525 H 0.13555 0.61316 0.9957 0.0
H1526 H 0.11112 0.55798 0.02674 0.0
C1527 C 0.12847 0.52013 0.97706 0.0
C1528 C 0.14544 0.57114 0.97778 0.0
C1529 C 0.12799 0.50607 0.96384 0.0
C1530 C 0.1354 0.62558 0.02648 0.0
C1531 C 0.13529 0.61164 0.01336 0.0
C1532 C 0.1209 0.56184 0.01325 0.0
C1533 C 0.13177 0.53716 0.96784 0.0
C1534 C 0.13244 0.5522 0.98197 0.0
C1535 C 0.13439 0.59572 0.02292 0.0
C1536 C 0.13383 0.58074 0.00894 0.0
H1537 H 0.13646 0.52812 0.9144 0.0
H1538 H 0.1368 0.55252 0.93734 0.0
H1539 H 0.10974 0.53333 0.00337 0.0
H1540 H 0.13368 0.60656 0.07667 0.0
H1541 H 0.13332 0.58207 0.05369 0.0
C1542 C 0.50665 0.13937 0.52666 0.0
C1543 C 0.50852 0.14078 0.54956 0.0
C1544 C 0.52081 0.13985 0.51365 0.0
C1545 C 0.57092 0.15292 0.51443 0.0
H1546 H 0.55642 0.11957 0.46431 0.0
C1547 C 0.62287 0.13836 0.46675 0.0
C1548 C 0.62187 0.13845 0.44376 0.0
C1549 C 0.60927 0.1392 0.47956 0.0
C1550 C 0.56068 0.12909 0.47813 0.0
H1551 H 0.52669 0.14391 0.57684 0.0
H1552 H 0.55127 0.14431 0.5542 0.0
H1553 H 0.53235 0.12004 0.48699 0.0
H1554 H 0.60588 0.13948 0.41614 0.0
H1555 H 0.582 0.1408 0.43855 0.0
H1556 H 0.59929 0.16166 0.5057 0.0
C1557 C 0.53903 0.1432 0.54621 0.0
C1558 C 0.5469 0.12941 0.49111 0.0
C1559 C 0.52491 0.14288 0.55921 0.0
C1560 C 0.60699 0.13936 0.43382 0.0
C1561 C 0.59329 0.14003 0.44663 0.0
C1562 C 0.5847 0.15248 0.50153 0.0
C1563 C 0.5371 0.14158 0.52326 0.0
C1564 C 0.55184 0.14135 0.50941 0.0
C1565 C 0.59431 0.13998 0.46963 0.0
C1566 C 0.57972 0.14057 0.48324 0.0
H1567 H 0.49421 0.13787 0.51875 0.0
H1568 H 0.51899 0.13893 0.49603 0.0
H1569 H 0.57525 0.1625 0.52818 0.0
H1570 H 0.6342 0.13768 0.47486 0.0
H1571 H 0.61031 0.13895 0.49724 0.0
C1572 C 0.52578 0.38611 0.06041 0.0
C1573 C 0.50962 0.37147 0.05074 0.0
C1574 C 0.53994 0.39983 0.04738 0.0
C1575 C 0.54867 0.42055 0.99172 0.0
H1576 H 0.60079 0.44035 0.0074 0.0
C1577 C 0.60962 0.46926 0.93458 0.0
C1578 C 0.62448 0.48516 0.94442 0.0
C1579 C 0.59574 0.45513 0.94748 0.0
C1580 C 0.58629 0.43504 0.00292 0.0
H1581 H 0.49567 0.35954 0.01989 0.0
H1582 H 0.52051 0.3832 -0.00286 0.0
H1583 H 0.5763 0.41607 0.03005 0.0
H1584 H 0.6366 0.49869 0.97542 0.0
H1585 H 0.61239 0.47395 -0.00206 0.0
H1586 H 0.55873 0.43941 0.96445 0.0
C1587 C 0.52213 0.38436 0.01478 0.0
C1588 C 0.57225 0.42117 0.01592 0.0
C1589 C 0.50793 0.37073 0.02781 0.0
C1590 C 0.6253 0.48658 0.96739 0.0
C1591 C 0.61151 0.47239 0.98028 0.0
C1592 C 0.56272 0.43431 0.97865 0.0
C1593 C 0.53828 0.39913 0.0244 0.0
C1594 C 0.55326 0.41379 0.01051 0.0
C1595 C 0.59653 0.45657 0.97046 0.0
C1596 C 0.58166 0.44173 0.98415 0.0
H1597 H 0.52742 0.38706 0.07806 0.0
H1598 H 0.55205 0.41114 0.05537 0.0
H1599 H 0.5342 0.41544 0.98727 0.0
H1600 H 0.60864 0.46779 0.91691 0.0
H1601 H 0.58444 0.44301 0.93948 0.0
C1602 C 0.13579 0.60881 0.43191 0.0
C1603 C 0.13414 0.62339 0.44152 0.0
C1604 C 0.13523 0.59457 0.44491 0.0
C1605 C 0.14332 0.58439 0.50108 0.0
H1606 H 0.11222 0.53237 0.48417 0.0
C1607 C 0.13144 0.52409 0.55882 0.0
C1608 C 0.13081 0.50826 0.54938 0.0
C1609 C 0.13155 0.53797 0.54558 0.0
C1610 C 0.12118 0.54683 0.489 0.0
H1611 H 0.13066 0.63458 0.47222 0.0
H1612 H 0.12983 0.60981 0.4949 0.0
H1613 H 0.11335 0.55699 0.46094 0.0
H1614 H 0.12986 0.49452 0.51872 0.0
H1615 H 0.13052 0.51892 0.49558 0.0
H1616 H 0.15144 0.57438 0.52891 0.0
C1617 C 0.13159 0.6094 0.47735 0.0
C1618 C 0.12178 0.56091 0.47569 0.0
C1619 C 0.13197 0.62352 0.46435 0.0
C1620 C 0.13024 0.50654 0.52646 0.0
C1621 C 0.13051 0.52048 0.5132 0.0
C1622 C 0.14286 0.57033 0.51429 0.0
C1623 C 0.1332 0.59478 0.46777 0.0
C1624 C 0.1328 0.57983 0.48165 0.0
C1625 C 0.1312 0.5364 0.52259 0.0
C1626 C 0.13172 0.55136 0.50846 0.0
H1627 H 0.13748 0.60837 0.41435 0.0
H1628 H 0.13665 0.58354 0.43712 0.0
H1629 H 0.15213 0.59888 0.50592 0.0
H1630 H 0.13179 0.52574 0.57646 0.0
H1631 H 0.13176 0.54987 0.55339 0.0
C1632 C 0.62709 0.13892 0.02491 0.0
C1633 C 0.6255 0.13844 0.04786 0.0
C1634 C 0.61334 0.13917 0.01177 0.0
C1635 C 0.56382 0.12572 0.01195 0.0
H1636 H 0.57717 0.16035 0.96328 0.0
C1637 C 0.50815 0.13415 0.96458 0.0
C1638 C 0.51035 0.13698 0.94183 0.0
C1639 C 0.52241 0.13452 0.97728 0.0
C1640 C 0.57319 0.1504 0.9766 0.0
H1641 H 0.60837 0.13796 0.07509 0.0
H1642 H 0.58424 0.13822 0.05211 0.0
H1643 H 0.60177 0.16071 0.98586 0.0
H1644 H 0.52912 0.14228 0.91447 0.0
H1645 H 0.55387 0.14243 0.93656 0.0
H1646 H 0.5353 0.11512 0.00258 0.0
C1647 C 0.59611 0.13837 0.04431 0.0
C1648 C 0.5873 0.15067 0.98957 0.0
C1649 C 0.60996 0.13832 0.05744 0.0
C1650 C 0.52708 0.14013 0.932 0.0
C1651 C 0.5413 0.14033 0.94469 0.0
C1652 C 0.54972 0.12533 -0.00112 0.0
C1653 C 0.59763 0.13874 0.02135 0.0
C1654 C 0.58273 0.1384 0.00744 0.0
C1655 C 0.53914 0.13753 0.96751 0.0
C1656 C 0.55421 0.13773 0.98111 0.0
H1657 H 0.63894 0.13904 0.01708 0.0
H1658 H 0.61479 0.13932 0.99412 0.0
H1659 H 0.55991 0.11591 0.02542 0.0
H1660 H 0.49546 0.13182 0.97264 0.0
H1661 H 0.52037 0.13266 0.99484 0.0
C1662 C 0.48441 0.6245 0.52496 0.0
C1663 C 0.48247 0.62323 0.54786 0.0
C1664 C 0.47036 0.61116 0.5115 0.0
C1665 C 0.42026 0.57392 0.51183 0.0
H1666 H 0.4342 0.55722 0.45936 0.0
C1667 C 0.3684 0.50824 0.46317 0.0
C1668 C 0.36847 0.50998 0.44026 0.0
C1669 C 0.38217 0.52258 0.47591 0.0
C1670 C 0.43011 0.56189 0.47385 0.0
H1671 H 0.46442 0.60698 0.57469 0.0
H1672 H 0.44011 0.58337 0.55127 0.0
H1673 H 0.45854 0.58107 0.48255 0.0
H1674 H 0.38302 0.52801 0.41268 0.0
H1675 H 0.40733 0.55305 0.43501 0.0
H1676 H 0.39183 0.55434 0.50331 0.0
C1677 C 0.45225 0.5949 0.54362 0.0
C1678 C 0.44404 0.5756 0.48712 0.0
C1679 C 0.46624 0.60835 0.55707 0.0
C1680 C 0.38263 0.52631 0.43031 0.0
C1681 C 0.39656 0.54058 0.44305 0.0
C1682 C 0.40636 0.56009 0.49866 0.0
C1683 C 0.45413 0.59614 0.52065 0.0
C1684 C 0.43929 0.58175 0.50633 0.0
C1685 C 0.39642 0.53887 0.46598 0.0
C1686 C 0.41115 0.55391 0.47959 0.0
H1687 H 0.49673 0.6359 0.5174 0.0
H1688 H 0.47216 0.61275 0.4939 0.0
H1689 H 0.41606 0.57857 0.52623 0.0
H1690 H 0.35764 0.49581 0.4713 0.0
H1691 H 0.38184 0.52081 0.49353 0.0
C1692 C 0.87349 0.38014 0.9581 0.0
C1693 C 0.86064 0.37254 0.94073 0.0
C1694 C 0.87388 0.39412 0.9714 0.0
C1695 C 0.84457 0.41332 0.98996 0.0
H1696 H 0.89185 0.45653 0.00674 0.0
C1697 C 0.85008 0.46575 0.05643 0.0
C1698 C 0.86145 0.48483 0.05138 0.0
C1699 C 0.85017 0.45205 0.04302 0.0
C1700 C 0.87854 0.44458 0.00211 0.0
H1701 H 0.83823 0.37367 0.92354 0.0
H1702 H 0.83888 0.39811 0.94683 0.0
H1703 H 0.89167 0.43284 0.98254 0.0
H1704 H 0.88197 0.50456 0.02852 0.0
H1705 H 0.88217 0.48064 0.00515 0.0
H1706 H 0.83143 0.42512 0.00942 0.0
C1707 C 0.84857 0.39316 0.95022 0.0
C1708 C 0.87845 0.43095 0.98842 0.0
C1709 C 0.84827 0.37927 0.93682 0.0
C1710 C 0.87307 0.48996 0.03283 0.0
C1711 C 0.87325 0.47628 0.01951 0.0
C1712 C 0.84467 0.42688 0.00378 0.0
C1713 C 0.86134 0.40069 0.96769 0.0
C1714 C 0.86146 0.4152 0.98216 0.0
C1715 C 0.86173 0.45718 0.0244 0.0
C1716 C 0.86165 0.44266 0.00997 0.0
H1717 H 0.88319 0.37521 0.96152 0.0
H1718 H 0.88376 0.39954 0.98486 0.0
H1719 H 0.83127 0.40124 0.98557 0.0
H1720 H 0.841 0.46139 0.07065 0.0
H1721 H 0.84129 0.43744 0.04731 0.0
C1722 C 0.46809 0.85914 0.43586 0.0
C1723 C 0.48423 0.86084 0.4458 0.0
C1724 C 0.45375 0.85855 0.44866 0.0
C1725 C 0.43347 0.84717 0.50383 0.0
H1726 H 0.41253 0.87859 0.48871 0.0
C1727 C 0.38306 0.85609 0.56165 0.0
C1728 C 0.36845 0.85772 0.55212 0.0
C1729 C 0.39697 0.85611 0.54854 0.0
C1730 C 0.418 0.8695 0.493 0.0
H1731 H 0.49801 0.86315 0.47686 0.0
H1732 H 0.47287 0.86195 0.49921 0.0
H1733 H 0.43701 0.8791 0.46584 0.0
H1734 H 0.35668 0.86026 0.52142 0.0
H1735 H 0.38058 0.85975 0.49849 0.0
H1736 H 0.41432 0.8373 0.53076 0.0
C1737 C 0.47131 0.86105 0.48155 0.0
C1738 C 0.43207 0.86985 0.47991 0.0
C1739 C 0.48573 0.86185 0.46875 0.0
C1740 C 0.36786 0.85911 0.52923 0.0
C1741 C 0.38164 0.85895 0.5161 0.0
C1742 C 0.41927 0.84666 0.5168 0.0
C1743 C 0.4552 0.85944 0.47163 0.0
C1744 C 0.44 0.85876 0.48526 0.0
C1745 C 0.39646 0.85758 0.52559 0.0
C1746 C 0.4114 0.85789 0.51161 0.0
H1747 H 0.46657 0.85833 0.41819 0.0
H1748 H 0.44141 0.85717 0.44061 0.0
H1749 H 0.43919 0.83829 0.50816 0.0
H1750 H 0.38392 0.85509 0.57927 0.0
H1751 H 0.4083 0.85532 0.55645 0.0
loop_
_geom_bond_atom_site_label_1
_geom_bond_atom_site_label_2
_geom_bond_distance
_geom_bond_site_symmetry_2
_ccdc_geom_bond_type
In0 O1 2.294 . S
In0 O2 2.326 . S
In0 O6 2.266 . S
In0 O7 2.326 . S
In0 O8 2.266 . S
In0 O9 2.326 . S
In0 O11 2.294 . S
In0 O12 2.326 . S
O1 In0 2.294 . S
O1 C10 1.240 . S
O2 In0 2.326 . S
O2 C10 1.252 . S
C3 O6 1.252 . S
C3 O7 1.260 . S
C4 O11 1.240 . S
C4 O12 1.252 . S
C5 O8 1.252 . S
C5 O9 1.260 . S
O6 In0 2.266 . S
O6 C3 1.252 . S
O7 In0 2.326 . S
O7 C3 1.260 . S
O8 In0 2.266 . S
O8 C5 1.252 . S
O9 In0 2.326 . S
O9 C5 1.260 . S
C10 O1 1.240 . S
C10 O2 1.252 . S
O11 In0 2.294 . S
O11 C4 1.240 . S
O12 In0 2.326 . S
O12 C4 1.252 . S
In13 O14 2.294 . S
In13 O15 2.326 . S
In13 O19 2.266 . S
In13 O20 2.326 . S
In13 O21 2.266 . S
In13 O22 2.326 . S
In13 O24 2.294 . S
In13 O25 2.326 . S
O14 In13 2.294 . S
O14 C23 1.240 . S
O15 In13 2.326 . S
O15 C23 1.252 . S
C16 O19 1.252 . S
C16 O20 1.260 . S
C17 O24 1.240 . S
C17 O25 1.252 . S
C18 O21 1.252 . S
C18 O22 1.260 . S
O19 In13 2.266 . S
O19 C16 1.252 . S
O20 In13 2.326 . S
O20 C16 1.260 . S
O21 In13 2.266 . S
O21 C18 1.252 . S
O22 In13 2.326 . S
O22 C18 1.260 . S
C23 O14 1.240 . S
C23 O15 1.252 . S
O24 In13 2.294 . S
O24 C17 1.240 . S
O25 In13 2.326 . S
O25 C17 1.252 . S
In26 O27 2.294 . S
In26 O28 2.326 . S
In26 O32 2.266 . S
In26 O33 2.326 . S
In26 O34 2.266 . S
In26 O35 2.326 . S
In26 O37 2.294 . S
In26 O38 2.326 . S
O27 In26 2.294 . S
O27 C36 1.240 . S
O28 In26 2.326 . S
O28 C36 1.252 . S
C29 O32 1.252 . S
C29 O33 1.260 . S
C30 O37 1.240 . S
C30 O38 1.252 . S
C31 O34 1.252 . S
C31 O35 1.260 . S
O32 In26 2.266 . S
O32 C29 1.252 . S
O33 In26 2.326 . S
O33 C29 1.260 . S
O34 In26 2.266 . S
O34 C31 1.252 . S
O35 In26 2.326 . S
O35 C31 1.260 . S
C36 O27 1.240 . S
C36 O28 1.252 . S
O37 In26 2.294 . S
O37 C30 1.240 . S
O38 In26 2.326 . S
O38 C30 1.252 . S
In39 O40 2.294 . S
In39 O41 2.326 . S
In39 O45 2.266 . S
In39 O46 2.326 . S
In39 O47 2.266 . S
In39 O48 2.326 . S
In39 O50 2.294 . S
In39 O51 2.326 . S
O40 In39 2.294 . S
O40 C49 1.240 . S
O41 In39 2.326 . S
O41 C49 1.252 . S
C42 O45 1.252 . S
C42 O46 1.260 . S
C43 O50 1.240 . S
C43 O51 1.252 . S
C44 O47 1.252 . S
C44 O48 1.260 . S
O45 In39 2.266 . S
O45 C42 1.252 . S
O46 In39 2.326 . S
O46 C42 1.260 . S
O47 In39 2.266 . S
O47 C44 1.252 . S
O48 In39 2.326 . S
O48 C44 1.260 . S
C49 O40 1.240 . S
C49 O41 1.252 . S
O50 In39 2.294 . S
O50 C43 1.240 . S
O51 In39 2.326 . S
O51 C43 1.252 . S
In52 O53 2.294 . S
In52 O54 2.326 . S
In52 O58 2.266 . S
In52 O59 2.326 . S
In52 O60 2.266 . S
In52 O61 2.326 . S
In52 O63 2.294 . S
In52 O64 2.326 . S
O53 In52 2.294 . S
O53 C62 1.240 . S
O54 In52 2.326 . S
O54 C62 1.252 . S
C55 O58 1.252 . S
C55 O59 1.260 . S
C56 O63 1.240 . S
C56 O64 1.252 . S
C57 O60 1.252 . S
C57 O61 1.260 . S
O58 In52 2.266 . S
O58 C55 1.252 . S
O59 In52 2.326 . S
O59 C55 1.260 . S
O60 In52 2.266 . S
O60 C57 1.252 . S
O61 In52 2.326 . S
O61 C57 1.260 . S
C62 O53 1.240 . S
C62 O54 1.252 . S
O63 In52 2.294 . S
O63 C56 1.240 . S
O64 In52 2.326 . S
O64 C56 1.252 . S
In65 O66 2.294 . S
In65 O67 2.326 . S
In65 O71 2.266 . S
In65 O72 2.326 . S
In65 O73 2.266 . S
In65 O74 2.326 . S
In65 O76 2.294 . S
In65 O77 2.326 . S
O66 In65 2.294 . S
O66 C75 1.240 . S
O67 In65 2.326 . S
O67 C75 1.252 . S
C68 O71 1.252 . S
C68 O72 1.260 . S
C69 O76 1.240 . S
C69 O77 1.252 . S
C70 O73 1.252 . S
C70 O74 1.260 . S
O71 In65 2.266 . S
O71 C68 1.252 . S
O72 In65 2.326 . S
O72 C68 1.260 . S
O73 In65 2.266 . S
O73 C70 1.252 . S
O74 In65 2.326 . S
O74 C70 1.260 . S
C75 O66 1.240 . S
C75 O67 1.252 . S
O76 In65 2.294 . S
O76 C69 1.240 . S
O77 In65 2.326 . S
O77 C69 1.252 . S
In78 O79 2.294 . S
In78 O80 2.326 . S
In78 O84 2.266 . S
In78 O85 2.326 . S
In78 O86 2.266 . S
In78 O87 2.326 . S
In78 O89 2.294 . S
In78 O90 2.326 . S
O79 In78 2.294 . S
O79 C88 1.240 . S
O80 In78 2.326 . S
O80 C88 1.252 . S
C81 O84 1.252 . S
C81 O85 1.260 . S
C82 O89 1.240 . S
C82 O90 1.252 . S
C83 O86 1.252 . S
C83 O87 1.260 . S
O84 In78 2.266 . S
O84 C81 1.252 . S
O85 In78 2.326 . S
O85 C81 1.260 . S
O86 In78 2.266 . S
O86 C83 1.252 . S
O87 In78 2.326 . S
O87 C83 1.260 . S
C88 O79 1.240 . S
C88 O80 1.252 . S
O89 In78 2.294 . S
O89 C82 1.240 . S
O90 In78 2.326 . S
O90 C82 1.252 . S
In91 O92 2.294 . S
In91 O93 2.326 . S
In91 O97 2.266 . S
In91 O98 2.326 . S
In91 O99 2.266 . S
In91 O100 2.326 . S
In91 O102 2.294 . S
In91 O103 2.326 . S
O92 In91 2.294 . S
O92 C101 1.240 . S
O93 In91 2.326 . S
O93 C101 1.252 . S
C94 O97 1.252 . S
C94 O98 1.260 . S
C95 O102 1.240 . S
C95 O103 1.252 . S
C96 O99 1.252 . S
C96 O100 1.260 . S
O97 In91 2.266 . S
O97 C94 1.252 . S
O98 In91 2.326 . S
O98 C94 1.260 . S
O99 In91 2.266 . S
O99 C96 1.252 . S
O100 In91 2.326 . S
O100 C96 1.260 . S
C101 O92 1.240 . S
C101 O93 1.252 . S
O102 In91 2.294 . S
O102 C95 1.240 . S
O103 In91 2.326 . S
O103 C95 1.252 . S
In104 O105 2.294 . S
In104 O106 2.326 . S
In104 O110 2.266 . S
In104 O111 2.326 . S
In104 O112 2.266 . S
In104 O113 2.326 . S
In104 O115 2.294 . S
In104 O116 2.326 . S
O105 In104 2.294 . S
O105 C114 1.240 . S
O106 In104 2.326 . S
O106 C114 1.252 . S
C107 O110 1.252 . S
C107 O111 1.260 . S
C108 O115 1.240 . S
C108 O116 1.252 . S
C109 O112 1.252 . S
C109 O113 1.260 . S
O110 In104 2.266 . S
O110 C107 1.252 . S
O111 In104 2.326 . S
O111 C107 1.260 . S
O112 In104 2.266 . S
O112 C109 1.252 . S
O113 In104 2.326 . S
O113 C109 1.260 . S
C114 O105 1.240 . S
C114 O106 1.252 . S
O115 In104 2.294 . S
O115 C108 1.240 . S
O116 In104 2.326 . S
O116 C108 1.252 . S
In117 O118 2.294 . S
In117 O119 2.326 . S
In117 O123 2.266 . S
In117 O124 2.326 . S
In117 O125 2.266 . S
In117 O126 2.326 . S
In117 O128 2.294 . S
In117 O129 2.326 . S
O118 In117 2.294 . S
O118 C127 1.240 . S
O119 In117 2.326 . S
O119 C127 1.252 . S
C120 O123 1.252 . S
C120 O124 1.260 . S
C121 O128 1.240 . S
C121 O129 1.252 . S
C122 O125 1.252 . S
C122 O126 1.260 . S
O123 In117 2.266 . S
O123 C120 1.252 . S
O124 In117 2.326 . S
O124 C120 1.260 . S
O125 In117 2.266 . S
O125 C122 1.252 . S
O126 In117 2.326 . S
O126 C122 1.260 . S
C127 O118 1.240 . S
C127 O119 1.252 . S
O128 In117 2.294 . S
O128 C121 1.240 . S
O129 In117 2.326 . S
O129 C121 1.252 . S
In130 O131 2.294 . S
In130 O132 2.326 . S
In130 O136 2.266 . S
In130 O137 2.326 . S
In130 O138 2.266 . S
In130 O139 2.326 . S
In130 O141 2.294 . S
In130 O142 2.326 . S
O131 In130 2.294 . S
O131 C140 1.240 . S
O132 In130 2.326 . S
O132 C140 1.252 . S
C133 O136 1.252 . S
C133 O137 1.260 . S
C134 O141 1.240 . S
C134 O142 1.252 . S
C135 O138 1.252 . S
C135 O139 1.260 . S
O136 In130 2.266 . S
O136 C133 1.252 . S
O137 In130 2.326 . S
O137 C133 1.260 . S
O138 In130 2.266 . S
O138 C135 1.252 . S
O139 In130 2.326 . S
O139 C135 1.260 . S
C140 O131 1.240 . S
C140 O132 1.252 . S
O141 In130 2.294 . S
O141 C134 1.240 . S
O142 In130 2.326 . S
O142 C134 1.252 . S
In143 O144 2.294 . S
In143 O145 2.326 . S
In143 O149 2.266 . S
In143 O150 2.326 . S
In143 O151 2.266 . S
In143 O152 2.326 . S
In143 O154 2.294 . S
In143 O155 2.326 . S
O144 In143 2.294 . S
O144 C153 1.240 . S
O145 In143 2.326 . S
O145 C153 1.252 . S
C146 O149 1.252 . S
C146 O150 1.260 . S
C147 O154 1.240 . S
C147 O155 1.252 . S
C148 O151 1.252 . S
C148 O152 1.260 . S
O149 In143 2.266 . S
O149 C146 1.252 . S
O150 In143 2.326 . S
O150 C146 1.260 . S
O151 In143 2.266 . S
O151 C148 1.252 . S
O152 In143 2.326 . S
O152 C148 1.260 . S
C153 O144 1.240 . S
C153 O145 1.252 . S
O154 In143 2.294 . S
O154 C147 1.240 . S
O155 In143 2.326 . S
O155 C147 1.252 . S
In156 O157 2.294 . S
In156 O158 2.326 . S
In156 O162 2.266 . S
In156 O163 2.326 . S
In156 O164 2.266 . S
In156 O165 2.326 . S
In156 O167 2.294 . S
In156 O168 2.326 . S
O157 In156 2.294 . S
O157 C166 1.240 . S
O158 In156 2.326 . S
O158 C166 1.252 . S
C159 O162 1.252 . S
C159 O163 1.260 . S
C160 O167 1.240 . S
C160 O168 1.252 . S
C161 O164 1.252 . S
C161 O165 1.260 . S
O162 In156 2.266 . S
O162 C159 1.252 . S
O163 In156 2.326 . S
O163 C159 1.260 . S
O164 In156 2.266 . S
O164 C161 1.252 . S
O165 In156 2.326 . S
O165 C161 1.260 . S
C166 O157 1.240 . S
C166 O158 1.252 . S
O167 In156 2.294 . S
O167 C160 1.240 . S
O168 In156 2.326 . S
O168 C160 1.252 . S
In169 O170 2.294 . S
In169 O171 2.326 . S
In169 O175 2.266 . S
In169 O176 2.326 . S
In169 O177 2.266 . S
In169 O178 2.326 . S
In169 O180 2.294 . S
In169 O181 2.326 . S
O170 In169 2.294 . S
O170 C179 1.240 . S
O171 In169 2.326 . S
O171 C179 1.252 . S
C172 O175 1.252 . S
C172 O176 1.260 . S
C173 O180 1.240 . S
C173 O181 1.252 . S
C174 O177 1.252 . S
C174 O178 1.260 . S
O175 In169 2.266 . S
O175 C172 1.252 . S
O176 In169 2.326 . S
O176 C172 1.260 . S
O177 In169 2.266 . S
O177 C174 1.252 . S
O178 In169 2.326 . S
O178 C174 1.260 . S
C179 O170 1.240 . S
C179 O171 1.252 . S
O180 In169 2.294 . S
O180 C173 1.240 . S
O181 In169 2.326 . S
O181 C173 1.252 . S
In182 O183 2.294 . S
In182 O184 2.326 . S
In182 O188 2.266 . S
In182 O189 2.326 . S
In182 O190 2.266 . S
In182 O191 2.326 . S
In182 O193 2.294 . S
In182 O194 2.326 . S
O183 In182 2.294 . S
O183 C192 1.240 . S
O184 In182 2.326 . S
O184 C192 1.252 . S
C185 O188 1.252 . S
C185 O189 1.260 . S
C186 O193 1.240 . S
C186 O194 1.252 . S
C187 O190 1.252 . S
C187 O191 1.260 . S
O188 In182 2.266 . S
O188 C185 1.252 . S
O189 In182 2.326 . S
O189 C185 1.260 . S
O190 In182 2.266 . S
O190 C187 1.252 . S
O191 In182 2.326 . S
O191 C187 1.260 . S
C192 O183 1.240 . S
C192 O184 1.252 . S
O193 In182 2.294 . S
O193 C186 1.240 . S
O194 In182 2.326 . S
O194 C186 1.252 . S
In195 O196 2.294 . S
In195 O197 2.326 . S
In195 O201 2.266 . S
In195 O202 2.326 . S
In195 O203 2.266 . S
In195 O204 2.326 . S
In195 O206 2.294 . S
In195 O207 2.326 . S
O196 In195 2.294 . S
O196 C205 1.240 . S
O197 In195 2.326 . S
O197 C205 1.252 . S
C198 O201 1.252 . S
C198 O202 1.260 . S
C199 O206 1.240 . S
C199 O207 1.252 . S
C200 O203 1.252 . S
C200 O204 1.260 . S
O201 In195 2.266 . S
O201 C198 1.252 . S
O202 In195 2.326 . S
O202 C198 1.260 . S
O203 In195 2.266 . S
O203 C200 1.252 . S
O204 In195 2.326 . S
O204 C200 1.260 . S
C205 O196 1.240 . S
C205 O197 1.252 . S
O206 In195 2.294 . S
O206 C199 1.240 . S
O207 In195 2.326 . S
O207 C199 1.252 . S
In208 O209 2.294 . S
In208 O210 2.326 . S
In208 O214 2.266 . S
In208 O215 2.326 . S
In208 O216 2.266 . S
In208 O217 2.326 . S
In208 O219 2.294 . S
In208 O220 2.326 . S
O209 In208 2.294 . S
O209 C218 1.240 . S
O210 In208 2.326 . S
O210 C218 1.252 . S
C211 O214 1.252 . S
C211 O215 1.260 . S
C212 O219 1.240 . S
C212 O220 1.252 . S
C213 O216 1.252 . S
C213 O217 1.260 . S
O214 In208 2.266 . S
O214 C211 1.252 . S
O215 In208 2.326 . S
O215 C211 1.260 . S
O216 In208 2.266 . S
O216 C213 1.252 . S
O217 In208 2.326 . S
O217 C213 1.260 . S
C218 O209 1.240 . S
C218 O210 1.252 . S
O219 In208 2.294 . S
O219 C212 1.240 . S
O220 In208 2.326 . S
O220 C212 1.252 . S
In221 O222 2.294 . S
In221 O223 2.326 . S
In221 O227 2.266 . S
In221 O228 2.326 . S
In221 O229 2.266 . S
In221 O230 2.326 . S
In221 O232 2.294 . S
In221 O233 2.326 . S
O222 In221 2.294 . S
O222 C231 1.240 . S
O223 In221 2.326 . S
O223 C231 1.252 . S
C224 O227 1.252 . S
C224 O228 1.260 . S
C225 O232 1.240 . S
C225 O233 1.252 . S
C226 O229 1.252 . S
C226 O230 1.260 . S
O227 In221 2.266 . S
O227 C224 1.252 . S
O228 In221 2.326 . S
O228 C224 1.260 . S
O229 In221 2.266 . S
O229 C226 1.252 . S
O230 In221 2.326 . S
O230 C226 1.260 . S
C231 O222 1.240 . S
C231 O223 1.252 . S
O232 In221 2.294 . S
O232 C225 1.240 . S
O233 In221 2.326 . S
O233 C225 1.252 . S
In234 O235 2.294 . S
In234 O236 2.326 . S
In234 O240 2.266 . S
In234 O241 2.326 . S
In234 O242 2.266 . S
In234 O243 2.326 . S
In234 O245 2.294 . S
In234 O246 2.326 . S
O235 In234 2.294 . S
O235 C244 1.240 . S
O236 In234 2.326 . S
O236 C244 1.252 . S
C237 O240 1.252 . S
C237 O241 1.260 . S
C238 O245 1.240 . S
C238 O246 1.252 . S
C239 O242 1.252 . S
C239 O243 1.260 . S
O240 In234 2.266 . S
O240 C237 1.252 . S
O241 In234 2.326 . S
O241 C237 1.260 . S
O242 In234 2.266 . S
O242 C239 1.252 . S
O243 In234 2.326 . S
O243 C239 1.260 . S
C244 O235 1.240 . S
C244 O236 1.252 . S
O245 In234 2.294 . S
O245 C238 1.240 . S
O246 In234 2.326 . S
O246 C238 1.252 . S
In247 O248 2.294 . S
In247 O249 2.326 . S
In247 O253 2.266 . S
In247 O254 2.326 . S
In247 O255 2.266 . S
In247 O256 2.326 . S
In247 O258 2.294 . S
In247 O259 2.326 . S
O248 In247 2.294 . S
O248 C257 1.240 . S
O249 In247 2.326 . S
O249 C257 1.252 . S
C250 O253 1.252 . S
C250 O254 1.260 . S
C251 O258 1.240 . S
C251 O259 1.252 . S
C252 O255 1.252 . S
C252 O256 1.260 . S
O253 In247 2.266 . S
O253 C250 1.252 . S
O254 In247 2.326 . S
O254 C250 1.260 . S
O255 In247 2.266 . S
O255 C252 1.252 . S
O256 In247 2.326 . S
O256 C252 1.260 . S
C257 O248 1.240 . S
C257 O249 1.252 . S
O258 In247 2.294 . S
O258 C251 1.240 . S
O259 In247 2.326 . S
O259 C251 1.252 . S
In260 O261 2.294 . S
In260 O262 2.326 . S
In260 O266 2.266 . S
In260 O267 2.326 . S
In260 O268 2.266 . S
In260 O269 2.326 . S
In260 O271 2.294 . S
In260 O272 2.326 . S
O261 In260 2.294 . S
O261 C270 1.240 . S
O262 In260 2.326 . S
O262 C270 1.252 . S
C263 O266 1.252 . S
C263 O267 1.260 . S
C264 O271 1.240 . S
C264 O272 1.252 . S
C265 O268 1.252 . S
C265 O269 1.260 . S
O266 In260 2.266 . S
O266 C263 1.252 . S
O267 In260 2.326 . S
O267 C263 1.260 . S
O268 In260 2.266 . S
O268 C265 1.252 . S
O269 In260 2.326 . S
O269 C265 1.260 . S
C270 O261 1.240 . S
C270 O262 1.252 . S
O271 In260 2.294 . S
O271 C264 1.240 . S
O272 In260 2.326 . S
O272 C264 1.252 . S
In273 O274 2.294 . S
In273 O275 2.326 . S
In273 O279 2.266 . S
In273 O280 2.326 . S
In273 O281 2.266 . S
In273 O282 2.326 . S
In273 O284 2.294 . S
In273 O285 2.326 . S
O274 In273 2.294 . S
O274 C283 1.240 . S
O275 In273 2.326 . S
O275 C283 1.252 . S
C276 O279 1.252 . S
C276 O280 1.260 . S
C277 O284 1.240 . S
C277 O285 1.252 . S
C278 O281 1.252 . S
C278 O282 1.260 . S
O279 In273 2.266 . S
O279 C276 1.252 . S
O280 In273 2.326 . S
O280 C276 1.260 . S
O281 In273 2.266 . S
O281 C278 1.252 . S
O282 In273 2.326 . S
O282 C278 1.260 . S
C283 O274 1.240 . S
C283 O275 1.252 . S
O284 In273 2.294 . S
O284 C277 1.240 . S
O285 In273 2.326 . S
O285 C277 1.252 . S
In286 O287 2.294 . S
In286 O288 2.326 . S
In286 O292 2.266 . S
In286 O293 2.326 . S
In286 O294 2.266 . S
In286 O295 2.326 . S
In286 O297 2.294 . S
In286 O298 2.326 . S
O287 In286 2.294 . S
O287 C296 1.240 . S
O288 In286 2.326 . S
O288 C296 1.252 . S
C289 O292 1.252 . S
C289 O293 1.260 . S
C290 O297 1.240 . S
C290 O298 1.252 . S
C291 O294 1.252 . S
C291 O295 1.260 . S
O292 In286 2.266 . S
O292 C289 1.252 . S
O293 In286 2.326 . S
O293 C289 1.260 . S
O294 In286 2.266 . S
O294 C291 1.252 . S
O295 In286 2.326 . S
O295 C291 1.260 . S
C296 O287 1.240 . S
C296 O288 1.252 . S
O297 In286 2.294 . S
O297 C290 1.240 . S
O298 In286 2.326 . S
O298 C290 1.252 . S
In299 O300 2.294 . S
In299 O301 2.326 . S
In299 O305 2.266 . S
In299 O306 2.326 . S
In299 O307 2.266 . S
In299 O308 2.326 . S
In299 O310 2.294 . S
In299 O311 2.326 . S
O300 In299 2.294 . S
O300 C309 1.240 . S
O301 In299 2.326 . S
O301 C309 1.252 . S
C302 O305 1.252 . S
C302 O306 1.260 . S
C303 O310 1.240 . S
C303 O311 1.252 . S
C304 O307 1.252 . S
C304 O308 1.260 . S
O305 In299 2.266 . S
O305 C302 1.252 . S
O306 In299 2.326 . S
O306 C302 1.260 . S
O307 In299 2.266 . S
O307 C304 1.252 . S
O308 In299 2.326 . S
O308 C304 1.260 . S
C309 O300 1.240 . S
C309 O301 1.252 . S
O310 In299 2.294 . S
O310 C303 1.240 . S
O311 In299 2.326 . S
O311 C303 1.252 . S
C312 C313 1.349 . S
C312 C314 1.327 . S
C312 H337 0.950 . S
C313 C312 1.349 . S
C313 C329 1.349 . S
C314 C312 1.327 . S
C314 C333 1.429 . S
C314 H338 0.950 . S
C315 C332 1.574 . S
C315 C334 1.368 . S
C315 H339 0.949 . S
H316 C320 0.949 . S
C317 C318 1.349 . S
C317 C319 1.327 . S
C317 H340 0.950 . S
C318 C317 1.349 . S
C318 C330 1.349 . S
C319 C317 1.327 . S
C319 C335 1.429 . S
C319 H341 0.950 . S
C320 H316 0.949 . S
C320 C328 1.574 . S
C320 C336 1.368 . S
H321 C329 0.950 . S
H322 C327 0.950 . S
H323 C328 0.949 . S
H324 C330 0.950 . S
H325 C331 0.950 . S
H326 C332 0.949 . S
C327 H322 0.950 . S
C327 C329 1.327 . S
C327 C333 1.429 . S
C328 C320 1.574 . S
C328 H323 0.949 . S
C328 C334 1.368 . S
C329 C313 1.349 . S
C329 H321 0.950 . S
C329 C327 1.327 . S
C330 C318 1.349 . S
C330 H324 0.950 . S
C330 C331 1.327 . S
C331 H325 0.950 . S
C331 C330 1.327 . S
C331 C335 1.429 . S
C332 C315 1.574 . S
C332 H326 0.949 . S
C332 C336 1.368 . S
C333 C314 1.429 . S
C333 C327 1.429 . S
C333 C334 1.523 . S
C334 C315 1.368 . S
C334 C328 1.368 . S
C334 C333 1.523 . S
C335 C319 1.429 . S
C335 C331 1.429 . S
C335 C336 1.523 . S
C336 C320 1.368 . S
C336 C332 1.368 . S
C336 C335 1.523 . S
H337 C312 0.950 . S
H338 C314 0.950 . S
H339 C315 0.949 . S
H340 C317 0.950 . S
H341 C319 0.950 . S
C342 C343 1.349 . S
C342 C344 1.327 . S
C342 H367 0.950 . S
C343 C342 1.349 . S
C343 C359 1.349 . S
C344 C342 1.327 . S
C344 C363 1.429 . S
C344 H368 0.950 . S
C345 C362 1.574 . S
C345 C364 1.368 . S
C345 H369 0.949 . S
H346 C350 0.949 . S
C347 C348 1.349 . S
C347 C349 1.327 . S
C347 H370 0.950 . S
C348 C347 1.349 . S
C348 C360 1.349 . S
C349 C347 1.327 . S
C349 C365 1.429 . S
C349 H371 0.950 . S
C350 H346 0.949 . S
C350 C358 1.574 . S
C350 C366 1.368 . S
H351 C359 0.950 . S
H352 C357 0.950 . S
H353 C358 0.949 . S
H354 C360 0.950 . S
H355 C361 0.950 . S
H356 C362 0.949 . S
C357 H352 0.950 . S
C357 C359 1.327 . S
C357 C363 1.429 . S
C358 C350 1.574 . S
C358 H353 0.949 . S
C358 C364 1.368 . S
C359 C343 1.349 . S
C359 H351 0.950 . S
C359 C357 1.327 . S
C360 C348 1.349 . S
C360 H354 0.950 . S
C360 C361 1.327 . S
C361 H355 0.950 . S
C361 C360 1.327 . S
C361 C365 1.429 . S
C362 C345 1.574 . S
C362 H356 0.949 . S
C362 C366 1.368 . S
C363 C344 1.429 . S
C363 C357 1.429 . S
C363 C364 1.523 . S
C364 C345 1.368 . S
C364 C358 1.368 . S
C364 C363 1.523 . S
C365 C349 1.429 . S
C365 C361 1.429 . S
C365 C366 1.523 . S
C366 C350 1.368 . S
C366 C362 1.368 . S
C366 C365 1.523 . S
H367 C342 0.950 . S
H368 C344 0.950 . S
H369 C345 0.949 . S
H370 C347 0.950 . S
H371 C349 0.950 . S
C372 C373 1.349 . S
C372 C374 1.327 . S
C372 H397 0.950 . S
C373 C372 1.349 . S
C373 C389 1.349 . S
C374 C372 1.327 . S
C374 C393 1.429 . S
C374 H398 0.950 . S
C375 C392 1.574 . S
C375 C394 1.368 . S
C375 H399 0.949 . S
H376 C380 0.949 . S
C377 C378 1.349 . S
C377 C379 1.327 . S
C377 H400 0.950 . S
C378 C377 1.349 . S
C378 C390 1.349 . S
C379 C377 1.327 . S
C379 C395 1.429 . S
C379 H401 0.950 . S
C380 H376 0.949 . S
C380 C388 1.574 . S
C380 C396 1.368 . S
H381 C389 0.950 . S
H382 C387 0.950 . S
H383 C388 0.949 . S
H384 C390 0.950 . S
H385 C391 0.950 . S
H386 C392 0.949 . S
C387 H382 0.950 . S
C387 C389 1.327 . S
C387 C393 1.429 . S
C388 C380 1.574 . S
C388 H383 0.949 . S
C388 C394 1.368 . S
C389 C373 1.349 . S
C389 H381 0.950 . S
C389 C387 1.327 . S
C390 C378 1.349 . S
C390 H384 0.950 . S
C390 C391 1.327 . S
C391 H385 0.950 . S
C391 C390 1.327 . S
C391 C395 1.429 . S
C392 C375 1.574 . S
C392 H386 0.949 . S
C392 C396 1.368 . S
C393 C374 1.429 . S
C393 C387 1.429 . S
C393 C394 1.523 . S
C394 C375 1.368 . S
C394 C388 1.368 . S
C394 C393 1.523 . S
C395 C379 1.429 . S
C395 C391 1.429 . S
C395 C396 1.523 . S
C396 C380 1.368 . S
C396 C392 1.368 . S
C396 C395 1.523 . S
H397 C372 0.950 . S
H398 C374 0.950 . S
H399 C375 0.949 . S
H400 C377 0.950 . S
H401 C379 0.950 . S
C402 C403 1.349 . S
C402 C404 1.327 . S
C402 H427 0.950 . S
C403 C402 1.349 . S
C403 C419 1.349 . S
C404 C402 1.327 . S
C404 C423 1.429 . S
C404 H428 0.950 . S
C405 C422 1.574 . S
C405 C424 1.368 . S
C405 H429 0.949 . S
H406 C410 0.949 . S
C407 C408 1.349 . S
C407 C409 1.327 . S
C407 H430 0.950 . S
C408 C407 1.349 . S
C408 C420 1.349 . S
C409 C407 1.327 . S
C409 C425 1.429 . S
C409 H431 0.950 . S
C410 H406 0.949 . S
C410 C418 1.574 . S
C410 C426 1.368 . S
H411 C419 0.950 . S
H412 C417 0.950 . S
H413 C418 0.949 . S
H414 C420 0.950 . S
H415 C421 0.950 . S
H416 C422 0.949 . S
C417 H412 0.950 . S
C417 C419 1.327 . S
C417 C423 1.429 . S
C418 C410 1.574 . S
C418 H413 0.949 . S
C418 C424 1.368 . S
C419 C403 1.349 . S
C419 H411 0.950 . S
C419 C417 1.327 . S
C420 C408 1.349 . S
C420 H414 0.950 . S
C420 C421 1.327 . S
C421 H415 0.950 . S
C421 C420 1.327 . S
C421 C425 1.429 . S
C422 C405 1.574 . S
C422 H416 0.949 . S
C422 C426 1.368 . S
C423 C404 1.429 . S
C423 C417 1.429 . S
C423 C424 1.523 . S
C424 C405 1.368 . S
C424 C418 1.368 . S
C424 C423 1.523 . S
C425 C409 1.429 . S
C425 C421 1.429 . S
C425 C426 1.523 . S
C426 C410 1.368 . S
C426 C422 1.368 . S
C426 C425 1.523 . S
H427 C402 0.950 . S
H428 C404 0.950 . S
H429 C405 0.949 . S
H430 C407 0.950 . S
H431 C409 0.950 . S
C432 C433 1.349 . S
C432 C434 1.327 . S
C432 H457 0.950 . S
C433 C432 1.349 . S
C433 C449 1.349 . S
C434 C432 1.327 . S
C434 C453 1.429 . S
C434 H458 0.950 . S
C435 C452 1.574 . S
C435 C454 1.368 . S
C435 H459 0.949 . S
H436 C440 0.949 . S
C437 C438 1.349 . S
C437 C439 1.327 . S
C437 H460 0.950 . S
C438 C437 1.349 . S
C438 C450 1.349 . S
C439 C437 1.327 . S
C439 C455 1.429 . S
C439 H461 0.950 . S
C440 H436 0.949 . S
C440 C448 1.574 . S
C440 C456 1.368 . S
H441 C449 0.950 . S
H442 C447 0.950 . S
H443 C448 0.949 . S
H444 C450 0.950 . S
H445 C451 0.950 . S
H446 C452 0.949 . S
C447 H442 0.950 . S
C447 C449 1.327 . S
C447 C453 1.429 . S
C448 C440 1.574 . S
C448 H443 0.949 . S
C448 C454 1.368 . S
C449 C433 1.349 . S
C449 H441 0.950 . S
C449 C447 1.327 . S
C450 C438 1.349 . S
C450 H444 0.950 . S
C450 C451 1.327 . S
C451 H445 0.950 . S
C451 C450 1.327 . S
C451 C455 1.429 . S
C452 C435 1.574 . S
C452 H446 0.949 . S
C452 C456 1.368 . S
C453 C434 1.429 . S
C453 C447 1.429 . S
C453 C454 1.523 . S
C454 C435 1.368 . S
C454 C448 1.368 . S
C454 C453 1.523 . S
C455 C439 1.429 . S
C455 C451 1.429 . S
C455 C456 1.523 . S
C456 C440 1.368 . S
C456 C452 1.368 . S
C456 C455 1.523 . S
H457 C432 0.950 . S
H458 C434 0.950 . S
H459 C435 0.949 . S
H460 C437 0.950 . S
H461 C439 0.950 . S
C462 C463 1.349 . S
C462 C464 1.327 . S
C462 H487 0.950 . S
C463 C462 1.349 . S
C463 C479 1.349 . S
C464 C462 1.327 . S
C464 C483 1.429 . S
C464 H488 0.950 . S
C465 C482 1.574 . S
C465 C484 1.368 . S
C465 H489 0.949 . S
H466 C470 0.949 . S
C467 C468 1.349 . S
C467 C469 1.327 . S
C467 H490 0.950 . S
C468 C467 1.349 . S
C468 C480 1.349 . S
C469 C467 1.327 . S
C469 C485 1.429 . S
C469 H491 0.950 . S
C470 H466 0.949 . S
C470 C478 1.574 . S
C470 C486 1.368 . S
H471 C479 0.950 . S
H472 C477 0.950 . S
H473 C478 0.949 . S
H474 C480 0.950 . S
H475 C481 0.950 . S
H476 C482 0.949 . S
C477 H472 0.950 . S
C477 C479 1.327 . S
C477 C483 1.429 . S
C478 C470 1.574 . S
C478 H473 0.949 . S
C478 C484 1.368 . S
C479 C463 1.349 . S
C479 H471 0.950 . S
C479 C477 1.327 . S
C480 C468 1.349 . S
C480 H474 0.950 . S
C480 C481 1.327 . S
C481 H475 0.950 . S
C481 C480 1.327 . S
C481 C485 1.429 . S
C482 C465 1.574 . S
C482 H476 0.949 . S
C482 C486 1.368 . S
C483 C464 1.429 . S
C483 C477 1.429 . S
C483 C484 1.523 . S
C484 C465 1.368 . S
C484 C478 1.368 . S
C484 C483 1.523 . S
C485 C469 1.429 . S
C485 C481 1.429 . S
C485 C486 1.523 . S
C486 C470 1.368 . S
C486 C482 1.368 . S
C486 C485 1.523 . S
H487 C462 0.950 . S
H488 C464 0.950 . S
H489 C465 0.949 . S
H490 C467 0.950 . S
H491 C469 0.950 . S
C492 C493 1.349 . S
C492 C494 1.327 . S
C492 H517 0.950 . S
C493 C492 1.349 . S
C493 C509 1.349 . S
C494 C492 1.327 . S
C494 C513 1.429 . S
C494 H518 0.950 . S
C495 C512 1.574 . S
C495 C514 1.368 . S
C495 H519 0.949 . S
H496 C500 0.949 . S
C497 C498 1.349 . S
C497 C499 1.327 . S
C497 H520 0.950 . S
C498 C497 1.349 . S
C498 C510 1.349 . S
C499 C497 1.327 . S
C499 C515 1.429 . S
C499 H521 0.950 . S
C500 H496 0.949 . S
C500 C508 1.574 . S
C500 C516 1.368 . S
H501 C509 0.950 . S
H502 C507 0.950 . S
H503 C508 0.949 . S
H504 C510 0.950 . S
H505 C511 0.950 . S
H506 C512 0.949 . S
C507 H502 0.950 . S
C507 C509 1.327 . S
C507 C513 1.429 . S
C508 C500 1.574 . S
C508 H503 0.949 . S
C508 C514 1.368 . S
C509 C493 1.349 . S
C509 H501 0.950 . S
C509 C507 1.327 . S
C510 C498 1.349 . S
C510 H504 0.950 . S
C510 C511 1.327 . S
C511 H505 0.950 . S
C511 C510 1.327 . S
C511 C515 1.429 . S
C512 C495 1.574 . S
C512 H506 0.949 . S
C512 C516 1.368 . S
C513 C494 1.429 . S
C513 C507 1.429 . S
C513 C514 1.523 . S
C514 C495 1.368 . S
C514 C508 1.368 . S
C514 C513 1.523 . S
C515 C499 1.429 . S
C515 C511 1.429 . S
C515 C516 1.523 . S
C516 C500 1.368 . S
C516 C512 1.368 . S
C516 C515 1.523 . S
H517 C492 0.950 . S
H518 C494 0.950 . S
H519 C495 0.949 . S
H520 C497 0.950 . S
H521 C499 0.950 . S
C522 C523 1.349 . S
C522 C524 1.327 . S
C522 H547 0.950 . S
C523 C522 1.349 . S
C523 C539 1.349 . S
C524 C522 1.327 . S
C524 C543 1.429 . S
C524 H548 0.950 . S
C525 C542 1.574 . S
C525 C544 1.368 . S
C525 H549 0.949 . S
H526 C530 0.949 . S
C527 C528 1.349 . S
C527 C529 1.327 . S
C527 H550 0.950 . S
C528 C527 1.349 . S
C528 C540 1.349 . S
C529 C527 1.327 . S
C529 C545 1.429 . S
C529 H551 0.950 . S
C530 H526 0.949 . S
C530 C538 1.574 . S
C530 C546 1.368 . S
H531 C539 0.950 . S
H532 C537 0.950 . S
H533 C538 0.949 . S
H534 C540 0.950 . S
H535 C541 0.950 . S
H536 C542 0.949 . S
C537 H532 0.950 . S
C537 C539 1.327 . S
C537 C543 1.429 . S
C538 C530 1.574 . S
C538 H533 0.949 . S
C538 C544 1.368 . S
C539 C523 1.349 . S
C539 H531 0.950 . S
C539 C537 1.327 . S
C540 C528 1.349 . S
C540 H534 0.950 . S
C540 C541 1.327 . S
C541 H535 0.950 . S
C541 C540 1.327 . S
C541 C545 1.429 . S
C542 C525 1.574 . S
C542 H536 0.949 . S
C542 C546 1.368 . S
C543 C524 1.429 . S
C543 C537 1.429 . S
C543 C544 1.523 . S
C544 C525 1.368 . S
C544 C538 1.368 . S
C544 C543 1.523 . S
C545 C529 1.429 . S
C545 C541 1.429 . S
C545 C546 1.523 . S
C546 C530 1.368 . S
C546 C542 1.368 . S
C546 C545 1.523 . S
H547 C522 0.950 . S
H548 C524 0.950 . S
H549 C525 0.949 . S
H550 C527 0.950 . S
H551 C529 0.950 . S
C552 C553 1.349 . S
C552 C554 1.327 . S
C552 H577 0.950 . S
C553 C552 1.349 . S
C553 C569 1.349 . S
C554 C552 1.327 . S
C554 C573 1.429 . S
C554 H578 0.950 . S
C555 C572 1.574 . S
C555 C574 1.368 . S
C555 H579 0.949 . S
H556 C560 0.949 . S
C557 C558 1.349 . S
C557 C559 1.327 . S
C557 H580 0.950 . S
C558 C557 1.349 . S
C558 C570 1.349 . S
C559 C557 1.327 . S
C559 C575 1.429 . S
C559 H581 0.950 . S
C560 H556 0.949 . S
C560 C568 1.574 . S
C560 C576 1.368 . S
H561 C569 0.950 . S
H562 C567 0.950 . S
H563 C568 0.949 . S
H564 C570 0.950 . S
H565 C571 0.950 . S
H566 C572 0.949 . S
C567 H562 0.950 . S
C567 C569 1.327 . S
C567 C573 1.429 . S
C568 C560 1.574 . S
C568 H563 0.949 . S
C568 C574 1.368 . S
C569 C553 1.349 . S
C569 H561 0.950 . S
C569 C567 1.327 . S
C570 C558 1.349 . S
C570 H564 0.950 . S
C570 C571 1.327 . S
C571 H565 0.950 . S
C571 C570 1.327 . S
C571 C575 1.429 . S
C572 C555 1.574 . S
C572 H566 0.949 . S
C572 C576 1.368 . S
C573 C554 1.429 . S
C573 C567 1.429 . S
C573 C574 1.523 . S
C574 C555 1.368 . S
C574 C568 1.368 . S
C574 C573 1.523 . S
C575 C559 1.429 . S
C575 C571 1.429 . S
C575 C576 1.523 . S
C576 C560 1.368 . S
C576 C572 1.368 . S
C576 C575 1.523 . S
H577 C552 0.950 . S
H578 C554 0.950 . S
H579 C555 0.949 . S
H580 C557 0.950 . S
H581 C559 0.950 . S
C582 C583 1.349 . S
C582 C584 1.327 . S
C582 H607 0.950 . S
C583 C582 1.349 . S
C583 C599 1.349 . S
C584 C582 1.327 . S
C584 C603 1.429 . S
C584 H608 0.950 . S
C585 C602 1.574 . S
C585 C604 1.368 . S
C585 H609 0.949 . S
H586 C590 0.949 . S
C587 C588 1.349 . S
C587 C589 1.327 . S
C587 H610 0.950 . S
C588 C587 1.349 . S
C588 C600 1.349 . S
C589 C587 1.327 . S
C589 C605 1.429 . S
C589 H611 0.950 . S
C590 H586 0.949 . S
C590 C598 1.574 . S
C590 C606 1.368 . S
H591 C599 0.950 . S
H592 C597 0.950 . S
H593 C598 0.949 . S
H594 C600 0.950 . S
H595 C601 0.950 . S
H596 C602 0.949 . S
C597 H592 0.950 . S
C597 C599 1.327 . S
C597 C603 1.429 . S
C598 C590 1.574 . S
C598 H593 0.949 . S
C598 C604 1.368 . S
C599 C583 1.349 . S
C599 H591 0.950 . S
C599 C597 1.327 . S
C600 C588 1.349 . S
C600 H594 0.950 . S
C600 C601 1.327 . S
C601 H595 0.950 . S
C601 C600 1.327 . S
C601 C605 1.429 . S
C602 C585 1.574 . S
C602 H596 0.949 . S
C602 C606 1.368 . S
C603 C584 1.429 . S
C603 C597 1.429 . S
C603 C604 1.523 . S
C604 C585 1.368 . S
C604 C598 1.368 . S
C604 C603 1.523 . S
C605 C589 1.429 . S
C605 C601 1.429 . S
C605 C606 1.523 . S
C606 C590 1.368 . S
C606 C602 1.368 . S
C606 C605 1.523 . S
H607 C582 0.950 . S
H608 C584 0.950 . S
H609 C585 0.949 . S
H610 C587 0.950 . S
H611 C589 0.950 . S
C612 C613 1.349 . S
C612 C614 1.327 . S
C612 H637 0.950 . S
C613 C612 1.349 . S
C613 C629 1.349 . S
C614 C612 1.327 . S
C614 C633 1.429 . S
C614 H638 0.950 . S
C615 C632 1.574 . S
C615 C634 1.368 . S
C615 H639 0.949 . S
H616 C620 0.949 . S
C617 C618 1.349 . S
C617 C619 1.327 . S
C617 H640 0.950 . S
C618 C617 1.349 . S
C618 C630 1.349 . S
C619 C617 1.327 . S
C619 C635 1.429 . S
C619 H641 0.950 . S
C620 H616 0.949 . S
C620 C628 1.574 . S
C620 C636 1.368 . S
H621 C629 0.950 . S
H622 C627 0.950 . S
H623 C628 0.949 . S
H624 C630 0.950 . S
H625 C631 0.950 . S
H626 C632 0.949 . S
C627 H622 0.950 . S
C627 C629 1.327 . S
C627 C633 1.429 . S
C628 C620 1.574 . S
C628 H623 0.949 . S
C628 C634 1.368 . S
C629 C613 1.349 . S
C629 H621 0.950 . S
C629 C627 1.327 . S
C630 C618 1.349 . S
C630 H624 0.950 . S
C630 C631 1.327 . S
C631 H625 0.950 . S
C631 C630 1.327 . S
C631 C635 1.429 . S
C632 C615 1.574 . S
C632 H626 0.949 . S
C632 C636 1.368 . S
C633 C614 1.429 . S
C633 C627 1.429 . S
C633 C634 1.523 . S
C634 C615 1.368 . S
C634 C628 1.368 . S
C634 C633 1.523 . S
C635 C619 1.429 . S
C635 C631 1.429 . S
C635 C636 1.523 . S
C636 C620 1.368 . S
C636 C632 1.368 . S
C636 C635 1.523 . S
H637 C612 0.950 . S
H638 C614 0.950 . S
H639 C615 0.949 . S
H640 C617 0.950 . S
H641 C619 0.950 . S
C642 C643 1.349 . S
C642 C644 1.327 . S
C642 H667 0.950 . S
C643 C642 1.349 . S
C643 C659 1.349 . S
C644 C642 1.327 . S
C644 C663 1.429 . S
C644 H668 0.950 . S
C645 C662 1.574 . S
C645 C664 1.368 . S
C645 H669 0.949 . S
H646 C650 0.949 . S
C647 C648 1.349 . S
C647 C649 1.327 . S
C647 H670 0.950 . S
C648 C647 1.349 . S
C648 C660 1.349 . S
C649 C647 1.327 . S
C649 C665 1.429 . S
C649 H671 0.950 . S
C650 H646 0.949 . S
C650 C658 1.574 . S
C650 C666 1.368 . S
H651 C659 0.950 . S
H652 C657 0.950 . S
H653 C658 0.949 . S
H654 C660 0.950 . S
H655 C661 0.950 . S
H656 C662 0.949 . S
C657 H652 0.950 . S
C657 C659 1.327 . S
C657 C663 1.429 . S
C658 C650 1.574 . S
C658 H653 0.949 . S
C658 C664 1.368 . S
C659 C643 1.349 . S
C659 H651 0.950 . S
C659 C657 1.327 . S
C660 C648 1.349 . S
C660 H654 0.950 . S
C660 C661 1.327 . S
C661 H655 0.950 . S
C661 C660 1.327 . S
C661 C665 1.429 . S
C662 C645 1.574 . S
C662 H656 0.949 . S
C662 C666 1.368 . S
C663 C644 1.429 . S
C663 C657 1.429 . S
C663 C664 1.523 . S
C664 C645 1.368 . S
C664 C658 1.368 . S
C664 C663 1.523 . S
C665 C649 1.429 . S
C665 C661 1.429 . S
C665 C666 1.523 . S
C666 C650 1.368 . S
C666 C662 1.368 . S
C666 C665 1.523 . S
H667 C642 0.950 . S
H668 C644 0.950 . S
H669 C645 0.949 . S
H670 C647 0.950 . S
H671 C649 0.950 . S
C672 C673 1.349 . S
C672 C674 1.327 . S
C672 H697 0.950 . S
C673 C672 1.349 . S
C673 C689 1.349 . S
C674 C672 1.327 . S
C674 C693 1.429 . S
C674 H698 0.950 . S
C675 C692 1.574 . S
C675 C694 1.368 . S
C675 H699 0.949 . S
H676 C680 0.949 . S
C677 C678 1.349 . S
C677 C679 1.327 . S
C677 H700 0.950 . S
C678 C677 1.349 . S
C678 C690 1.349 . S
C679 C677 1.327 . S
C679 C695 1.429 . S
C679 H701 0.950 . S
C680 H676 0.949 . S
C680 C688 1.574 . S
C680 C696 1.368 . S
H681 C689 0.950 . S
H682 C687 0.950 . S
H683 C688 0.949 . S
H684 C690 0.950 . S
H685 C691 0.950 . S
H686 C692 0.949 . S
C687 H682 0.950 . S
C687 C689 1.327 . S
C687 C693 1.429 . S
C688 C680 1.574 . S
C688 H683 0.949 . S
C688 C694 1.368 1_554 S
C689 C673 1.349 . S
C689 H681 0.950 . S
C689 C687 1.327 . S
C690 C678 1.349 . S
C690 H684 0.950 . S
C690 C691 1.327 . S
C691 H685 0.950 . S
C691 C690 1.327 . S
C691 C695 1.429 . S
C692 C675 1.574 . S
C692 H686 0.949 . S
C692 C696 1.368 1_556 S
C693 C674 1.429 . S
C693 C687 1.429 . S
C693 C694 1.523 . S
C694 C675 1.368 . S
C694 C688 1.368 1_556 S
C694 C693 1.523 . S
C695 C679 1.429 . S
C695 C691 1.429 . S
C695 C696 1.523 . S
C696 C680 1.368 . S
C696 C692 1.368 1_554 S
C696 C695 1.523 . S
H697 C672 0.950 . S
H698 C674 0.950 . S
H699 C675 0.949 . S
H700 C677 0.950 . S
H701 C679 0.950 . S
C702 C703 1.349 . S
C702 C704 1.327 . S
C702 H727 0.950 . S
C703 C702 1.349 . S
C703 C719 1.349 . S
C704 C702 1.327 . S
C704 C723 1.429 . S
C704 H728 0.950 . S
C705 C722 1.574 . S
C705 C724 1.368 . S
C705 H729 0.949 . S
H706 C710 0.949 . S
C707 C708 1.349 . S
C707 C709 1.327 . S
C707 H730 0.950 . S
C708 C707 1.349 . S
C708 C720 1.349 . S
C709 C707 1.327 . S
C709 C725 1.429 . S
C709 H731 0.950 . S
C710 H706 0.949 . S
C710 C718 1.574 . S
C710 C726 1.368 . S
H711 C719 0.950 . S
H712 C717 0.950 . S
H713 C718 0.949 . S
H714 C720 0.950 . S
H715 C721 0.950 . S
H716 C722 0.949 . S
C717 H712 0.950 . S
C717 C719 1.327 . S
C717 C723 1.429 . S
C718 C710 1.574 . S
C718 H713 0.949 . S
C718 C724 1.368 . S
C719 C703 1.349 . S
C719 H711 0.950 . S
C719 C717 1.327 . S
C720 C708 1.349 . S
C720 H714 0.950 . S
C720 C721 1.327 . S
C721 H715 0.950 . S
C721 C720 1.327 . S
C721 C725 1.429 . S
C722 C705 1.574 . S
C722 H716 0.949 . S
C722 C726 1.368 . S
C723 C704 1.429 . S
C723 C717 1.429 . S
C723 C724 1.523 . S
C724 C705 1.368 . S
C724 C718 1.368 . S
C724 C723 1.523 . S
C725 C709 1.429 . S
C725 C721 1.429 . S
C725 C726 1.523 . S
C726 C710 1.368 . S
C726 C722 1.368 . S
C726 C725 1.523 . S
H727 C702 0.950 . S
H728 C704 0.950 . S
H729 C705 0.949 . S
H730 C707 0.950 . S
H731 C709 0.950 . S
C732 C733 1.349 . S
C732 C734 1.327 . S
C732 H757 0.950 . S
C733 C732 1.349 . S
C733 C749 1.349 . S
C734 C732 1.327 . S
C734 C753 1.429 . S
C734 H758 0.950 . S
C735 C752 1.574 1_554 S
C735 C754 1.368 . S
C735 H759 0.949 . S
H736 C740 0.949 . S
C737 C738 1.349 . S
C737 C739 1.327 . S
C737 H760 0.950 . S
C738 C737 1.349 . S
C738 C750 1.349 . S
C739 C737 1.327 . S
C739 C755 1.429 . S
C739 H761 0.950 . S
C740 H736 0.949 . S
C740 C748 1.574 1_556 S
C740 C756 1.368 . S
H741 C749 0.950 . S
H742 C747 0.950 . S
H743 C748 0.949 . S
H744 C750 0.950 . S
H745 C751 0.950 . S
H746 C752 0.949 . S
C747 H742 0.950 . S
C747 C749 1.327 . S
C747 C753 1.429 . S
C748 C740 1.574 1_554 S
C748 H743 0.949 . S
C748 C754 1.368 . S
C749 C733 1.349 . S
C749 H741 0.950 . S
C749 C747 1.327 . S
C750 C738 1.349 . S
C750 H744 0.950 . S
C750 C751 1.327 . S
C751 H745 0.950 . S
C751 C750 1.327 . S
C751 C755 1.429 . S
C752 C735 1.574 1_556 S
C752 H746 0.949 . S
C752 C756 1.368 . S
C753 C734 1.429 . S
C753 C747 1.429 . S
C753 C754 1.523 . S
C754 C735 1.368 . S
C754 C748 1.368 . S
C754 C753 1.523 . S
C755 C739 1.429 . S
C755 C751 1.429 . S
C755 C756 1.523 . S
C756 C740 1.368 . S
C756 C752 1.368 . S
C756 C755 1.523 . S
H757 C732 0.950 . S
H758 C734 0.950 . S
H759 C735 0.949 . S
H760 C737 0.950 . S
H761 C739 0.950 . S
C762 C763 1.349 . S
C762 C764 1.327 . S
C762 H787 0.950 . S
C763 C762 1.349 . S
C763 C779 1.349 . S
C764 C762 1.327 . S
C764 C783 1.429 . S
C764 H788 0.950 . S
C765 C782 1.574 . S
C765 C784 1.368 . S
C765 H789 0.949 . S
H766 C770 0.949 . S
C767 C768 1.349 . S
C767 C769 1.327 . S
C767 H790 0.950 . S
C768 C767 1.349 . S
C768 C780 1.349 . S
C769 C767 1.327 . S
C769 C785 1.429 . S
C769 H791 0.950 . S
C770 H766 0.949 . S
C770 C778 1.574 . S
C770 C786 1.368 . S
H771 C779 0.950 . S
H772 C777 0.950 . S
H773 C778 0.949 . S
H774 C780 0.950 . S
H775 C781 0.950 . S
H776 C782 0.949 . S
C777 H772 0.950 . S
C777 C779 1.327 . S
C777 C783 1.429 . S
C778 C770 1.574 . S
C778 H773 0.949 . S
C778 C784 1.368 . S
C779 C763 1.349 . S
C779 H771 0.950 . S
C779 C777 1.327 . S
C780 C768 1.349 . S
C780 H774 0.950 . S
C780 C781 1.327 . S
C781 H775 0.950 . S
C781 C780 1.327 . S
C781 C785 1.429 . S
C782 C765 1.574 . S
C782 H776 0.949 . S
C782 C786 1.368 . S
C783 C764 1.429 . S
C783 C777 1.429 . S
C783 C784 1.523 . S
C784 C765 1.368 . S
C784 C778 1.368 . S
C784 C783 1.523 . S
C785 C769 1.429 . S
C785 C781 1.429 . S
C785 C786 1.523 . S
C786 C770 1.368 . S
C786 C782 1.368 . S
C786 C785 1.523 . S
H787 C762 0.950 . S
H788 C764 0.950 . S
H789 C765 0.949 . S
H790 C767 0.950 . S
H791 C769 0.950 . S
C792 C793 1.349 . S
C792 C794 1.327 . S
C792 H817 0.950 . S
C793 C792 1.349 . S
C793 C809 1.349 . S
C794 C792 1.327 . S
C794 C813 1.429 . S
C794 H818 0.950 . S
C795 C812 1.574 . S
C795 C814 1.368 . S
C795 H819 0.949 . S
H796 C800 0.949 . S
C797 C798 1.349 . S
C797 C799 1.327 . S
C797 H820 0.950 . S
C798 C797 1.349 . S
C798 C810 1.349 . S
C799 C797 1.327 . S
C799 C815 1.429 . S
C799 H821 0.950 . S
C800 H796 0.949 . S
C800 C808 1.574 . S
C800 C816 1.368 . S
H801 C809 0.950 . S
H802 C807 0.950 . S
H803 C808 0.949 . S
H804 C810 0.950 . S
H805 C811 0.950 . S
H806 C812 0.949 . S
C807 H802 0.950 . S
C807 C809 1.327 . S
C807 C813 1.429 . S
C808 C800 1.574 . S
C808 H803 0.949 . S
C808 C814 1.368 1_554 S
C809 C793 1.349 . S
C809 H801 0.950 . S
C809 C807 1.327 . S
C810 C798 1.349 . S
C810 H804 0.950 . S
C810 C811 1.327 . S
C811 H805 0.950 . S
C811 C810 1.327 . S
C811 C815 1.429 . S
C812 C795 1.574 . S
C812 H806 0.949 . S
C812 C816 1.368 1_556 S
C813 C794 1.429 . S
C813 C807 1.429 . S
C813 C814 1.523 . S
C814 C795 1.368 . S
C814 C808 1.368 1_556 S
C814 C813 1.523 . S
C815 C799 1.429 . S
C815 C811 1.429 . S
C815 C816 1.523 . S
C816 C800 1.368 . S
C816 C812 1.368 1_554 S
C816 C815 1.523 . S
H817 C792 0.950 . S
H818 C794 0.950 . S
H819 C795 0.949 . S
H820 C797 0.950 . S
H821 C799 0.950 . S
C822 C823 1.349 . S
C822 C824 1.327 . S
C822 H847 0.950 . S
C823 C822 1.349 . S
C823 C839 1.349 . S
C824 C822 1.327 . S
C824 C843 1.429 . S
C824 H848 0.950 . S
C825 C842 1.574 . S
C825 C844 1.368 . S
C825 H849 0.949 . S
H826 C830 0.949 . S
C827 C828 1.349 . S
C827 C829 1.327 . S
C827 H850 0.950 . S
C828 C827 1.349 . S
C828 C840 1.349 . S
C829 C827 1.327 . S
C829 C845 1.429 . S
C829 H851 0.950 . S
C830 H826 0.949 . S
C830 C838 1.574 . S
C830 C846 1.368 . S
H831 C839 0.950 . S
H832 C837 0.950 . S
H833 C838 0.949 . S
H834 C840 0.950 . S
H835 C841 0.950 . S
H836 C842 0.949 . S
C837 H832 0.950 . S
C837 C839 1.327 . S
C837 C843 1.429 . S
C838 C830 1.574 . S
C838 H833 0.949 . S
C838 C844 1.368 . S
C839 C823 1.349 . S
C839 H831 0.950 . S
C839 C837 1.327 . S
C840 C828 1.349 . S
C840 H834 0.950 . S
C840 C841 1.327 . S
C841 H835 0.950 . S
C841 C840 1.327 . S
C841 C845 1.429 . S
C842 C825 1.574 . S
C842 H836 0.949 . S
C842 C846 1.368 . S
C843 C824 1.429 . S
C843 C837 1.429 . S
C843 C844 1.523 . S
C844 C825 1.368 . S
C844 C838 1.368 . S
C844 C843 1.523 . S
C845 C829 1.429 . S
C845 C841 1.429 . S
C845 C846 1.523 . S
C846 C830 1.368 . S
C846 C842 1.368 . S
C846 C845 1.523 . S
H847 C822 0.950 . S
H848 C824 0.950 . S
H849 C825 0.949 . S
H850 C827 0.950 . S
H851 C829 0.950 . S
C852 C853 1.349 . S
C852 C854 1.327 . S
C852 H877 0.950 . S
C853 C852 1.349 . S
C853 C869 1.349 . S
C854 C852 1.327 . S
C854 C873 1.429 . S
C854 H878 0.950 . S
C855 C872 1.574 . S
C855 C874 1.368 . S
C855 H879 0.949 . S
H856 C860 0.949 . S
C857 C858 1.349 . S
C857 C859 1.327 . S
C857 H880 0.950 . S
C858 C857 1.349 . S
C858 C870 1.349 . S
C859 C857 1.327 . S
C859 C875 1.429 . S
C859 H881 0.950 . S
C860 H856 0.949 . S
C860 C868 1.574 . S
C860 C876 1.368 . S
H861 C869 0.950 . S
H862 C867 0.950 . S
H863 C868 0.949 . S
H864 C870 0.950 . S
H865 C871 0.950 . S
H866 C872 0.949 . S
C867 H862 0.950 . S
C867 C869 1.327 . S
C867 C873 1.429 . S
C868 C860 1.574 . S
C868 H863 0.949 . S
C868 C874 1.368 1_556 S
C869 C853 1.349 . S
C869 H861 0.950 . S
C869 C867 1.327 . S
C870 C858 1.349 . S
C870 H864 0.950 . S
C870 C871 1.327 . S
C871 H865 0.950 . S
C871 C870 1.327 . S
C871 C875 1.429 . S
C872 C855 1.574 . S
C872 H866 0.949 . S
C872 C876 1.368 1_554 S
C873 C854 1.429 . S
C873 C867 1.429 . S
C873 C874 1.523 . S
C874 C855 1.368 . S
C874 C868 1.368 1_554 S
C874 C873 1.523 . S
C875 C859 1.429 . S
C875 C871 1.429 . S
C875 C876 1.523 . S
C876 C860 1.368 . S
C876 C872 1.368 1_556 S
C876 C875 1.523 . S
H877 C852 0.950 . S
H878 C854 0.950 . S
H879 C855 0.949 . S
H880 C857 0.950 . S
H881 C859 0.950 . S
C882 C883 1.349 . S
C882 C884 1.327 . S
C882 H907 0.950 . S
C883 C882 1.349 . S
C883 C899 1.349 . S
C884 C882 1.327 . S
C884 C903 1.429 . S
C884 H908 0.950 . S
C885 C902 1.574 . S
C885 C904 1.368 . S
C885 H909 0.949 . S
H886 C890 0.949 . S
C887 C888 1.349 . S
C887 C889 1.327 . S
C887 H910 0.950 . S
C888 C887 1.349 . S
C888 C900 1.349 . S
C889 C887 1.327 . S
C889 C905 1.429 . S
C889 H911 0.950 . S
C890 H886 0.949 . S
C890 C898 1.574 . S
C890 C906 1.368 . S
H891 C899 0.950 . S
H892 C897 0.950 . S
H893 C898 0.949 . S
H894 C900 0.950 . S
H895 C901 0.950 . S
H896 C902 0.949 . S
C897 H892 0.950 . S
C897 C899 1.327 . S
C897 C903 1.429 . S
C898 C890 1.574 . S
C898 H893 0.949 . S
C898 C904 1.368 . S
C899 C883 1.349 . S
C899 H891 0.950 . S
C899 C897 1.327 . S
C900 C888 1.349 . S
C900 H894 0.950 . S
C900 C901 1.327 . S
C901 H895 0.950 . S
C901 C900 1.327 . S
C901 C905 1.429 . S
C902 C885 1.574 . S
C902 H896 0.949 . S
C902 C906 1.368 . S
C903 C884 1.429 . S
C903 C897 1.429 . S
C903 C904 1.523 . S
C904 C885 1.368 . S
C904 C898 1.368 . S
C904 C903 1.523 . S
C905 C889 1.429 . S
C905 C901 1.429 . S
C905 C906 1.523 . S
C906 C890 1.368 . S
C906 C902 1.368 . S
C906 C905 1.523 . S
H907 C882 0.950 . S
H908 C884 0.950 . S
H909 C885 0.949 . S
H910 C887 0.950 . S
H911 C889 0.950 . S
C912 C913 1.349 . S
C912 C914 1.327 . S
C912 H937 0.950 . S
C913 C912 1.349 . S
C913 C929 1.349 . S
C914 C912 1.327 . S
C914 C933 1.429 . S
C914 H938 0.950 . S
C915 C932 1.563 1_556 S
C915 C934 1.368 . S
C915 H939 0.949 . S
H916 C920 0.949 . S
C917 C918 1.349 . S
C917 C919 1.327 . S
C917 H940 0.950 . S
C918 C917 1.349 . S
C918 C930 1.349 . S
C919 C917 1.327 . S
C919 C935 1.429 . S
C919 H941 0.950 . S
C920 H916 0.949 . S
C920 C928 1.563 1_554 S
C920 C936 1.368 . S
H921 C929 0.950 . S
H922 C927 0.950 . S
H923 C928 0.948 . S
H924 C930 0.950 . S
H925 C931 0.950 . S
H926 C932 0.948 . S
C927 H922 0.950 . S
C927 C929 1.327 . S
C927 C933 1.429 . S
C928 C920 1.563 1_556 S
C928 H923 0.948 . S
C928 C934 1.379 . S
C929 C913 1.349 . S
C929 H921 0.950 . S
C929 C927 1.327 . S
C930 C918 1.349 . S
C930 H924 0.950 . S
C930 C931 1.327 . S
C931 H925 0.950 . S
C931 C930 1.327 . S
C931 C935 1.429 . S
C932 C915 1.563 1_554 S
C932 H926 0.948 . S
C932 C936 1.379 . S
C933 C914 1.429 . S
C933 C927 1.429 . S
C933 C934 1.523 . S
C934 C915 1.368 . S
C934 C928 1.379 . S
C934 C933 1.523 . S
C935 C919 1.429 . S
C935 C931 1.429 . S
C935 C936 1.523 . S
C936 C920 1.368 . S
C936 C932 1.379 . S
C936 C935 1.523 . S
H937 C912 0.950 . S
H938 C914 0.950 . S
H939 C915 0.949 . S
H940 C917 0.950 . S
H941 C919 0.950 . S
C942 C943 1.349 . S
C942 C944 1.327 . S
C942 H967 0.950 . S
C943 C942 1.349 . S
C943 C959 1.349 . S
C944 C942 1.327 . S
C944 C963 1.429 . S
C944 H968 0.950 . S
C945 C962 1.574 . S
C945 C964 1.368 . S
C945 H969 0.949 . S
H946 C950 0.949 . S
C947 C948 1.349 . S
C947 C949 1.327 . S
C947 H970 0.950 . S
C948 C947 1.349 . S
C948 C960 1.349 . S
C949 C947 1.327 . S
C949 C965 1.429 . S
C949 H971 0.950 . S
C950 H946 0.949 . S
C950 C958 1.574 . S
C950 C966 1.368 . S
H951 C959 0.950 . S
H952 C957 0.950 . S
H953 C958 0.949 . S
H954 C960 0.950 . S
H955 C961 0.950 . S
H956 C962 0.949 . S
C957 H952 0.950 . S
C957 C959 1.327 . S
C957 C963 1.429 . S
C958 C950 1.574 . S
C958 H953 0.949 . S
C958 C964 1.368 . S
C959 C943 1.349 . S
C959 H951 0.950 . S
C959 C957 1.327 . S
C960 C948 1.349 . S
C960 H954 0.950 . S
C960 C961 1.327 . S
C961 H955 0.950 . S
C961 C960 1.327 . S
C961 C965 1.429 . S
C962 C945 1.574 . S
C962 H956 0.949 . S
C962 C966 1.368 . S
C963 C944 1.429 . S
C963 C957 1.429 . S
C963 C964 1.523 . S
C964 C945 1.368 . S
C964 C958 1.368 . S
C964 C963 1.523 . S
C965 C949 1.429 . S
C965 C961 1.429 . S
C965 C966 1.523 . S
C966 C950 1.368 . S
C966 C962 1.368 . S
C966 C965 1.523 . S
H967 C942 0.950 . S
H968 C944 0.950 . S
H969 C945 0.949 . S
H970 C947 0.950 . S
H971 C949 0.950 . S
C972 C973 1.349 . S
C972 C974 1.327 . S
C972 H997 0.950 . S
C973 C972 1.349 . S
C973 C989 1.349 . S
C974 C972 1.327 . S
C974 C993 1.429 . S
C974 H998 0.950 . S
C975 C992 1.602 . S
C975 C994 1.368 . S
C975 H999 0.949 . S
H976 C980 0.949 . S
C977 C978 1.349 . S
C977 C979 1.327 . S
C977 H1000 0.950 . S
C978 C977 1.349 . S
C978 C990 1.349 . S
C979 C977 1.327 . S
C979 C995 1.429 . S
C979 H1001 0.950 . S
C980 H976 0.949 . S
C980 C988 1.602 . S
C980 C996 1.368 . S
H981 C989 0.950 . S
H982 C987 0.950 . S
H983 C988 0.951 . S
H984 C990 0.950 . S
H985 C991 0.950 . S
H986 C992 0.951 . S
C987 H982 0.950 . S
C987 C989 1.327 . S
C987 C993 1.429 . S
C988 C980 1.602 . S
C988 H983 0.951 . S
C988 C994 1.340 1_554 S
C989 C973 1.349 . S
C989 H981 0.950 . S
C989 C987 1.327 . S
C990 C978 1.349 . S
C990 H984 0.950 . S
C990 C991 1.327 . S
C991 H985 0.950 . S
C991 C990 1.327 . S
C991 C995 1.429 . S
C992 C975 1.602 . S
C992 H986 0.951 . S
C992 C996 1.340 1_556 S
C993 C974 1.429 . S
C993 C987 1.429 . S
C993 C994 1.523 . S
C994 C975 1.368 . S
C994 C988 1.340 1_556 S
C994 C993 1.523 . S
C995 C979 1.429 . S
C995 C991 1.429 . S
C995 C996 1.523 . S
C996 C980 1.368 . S
C996 C992 1.340 1_554 S
C996 C995 1.523 . S
H997 C972 0.950 . S
H998 C974 0.950 . S
H999 C975 0.949 . S
H1000 C977 0.950 . S
H1001 C979 0.950 . S
C1002 C1003 1.349 . S
C1002 C1004 1.327 . S
C1002 H1027 0.950 . S
C1003 C1002 1.349 . S
C1003 C1019 1.349 . S
C1004 C1002 1.327 . S
C1004 C1023 1.429 . S
C1004 H1028 0.950 . S
C1005 C1022 1.574 . S
C1005 C1024 1.368 . S
C1005 H1029 0.949 . S
H1006 C1010 0.949 . S
C1007 C1008 1.349 . S
C1007 C1009 1.327 . S
C1007 H1030 0.950 . S
C1008 C1007 1.349 . S
C1008 C1020 1.349 . S
C1009 C1007 1.327 . S
C1009 C1025 1.429 . S
C1009 H1031 0.950 . S
C1010 H1006 0.949 . S
C1010 C1018 1.574 . S
C1010 C1026 1.368 . S
H1011 C1019 0.950 . S
H1012 C1017 0.950 . S
H1013 C1018 0.949 . S
H1014 C1020 0.950 . S
H1015 C1021 0.950 . S
H1016 C1022 0.949 . S
C1017 H1012 0.950 . S
C1017 C1019 1.327 . S
C1017 C1023 1.429 . S
C1018 C1010 1.574 . S
C1018 H1013 0.949 . S
C1018 C1024 1.368 . S
C1019 C1003 1.349 . S
C1019 H1011 0.950 . S
C1019 C1017 1.327 . S
C1020 C1008 1.349 . S
C1020 H1014 0.950 . S
C1020 C1021 1.327 . S
C1021 H1015 0.950 . S
C1021 C1020 1.327 . S
C1021 C1025 1.429 . S
C1022 C1005 1.574 . S
C1022 H1016 0.949 . S
C1022 C1026 1.368 . S
C1023 C1004 1.429 . S
C1023 C1017 1.429 . S
C1023 C1024 1.523 . S
C1024 C1005 1.368 . S
C1024 C1018 1.368 . S
C1024 C1023 1.523 . S
C1025 C1009 1.429 . S
C1025 C1021 1.429 . S
C1025 C1026 1.523 . S
C1026 C1010 1.368 . S
C1026 C1022 1.368 . S
C1026 C1025 1.523 . S
H1027 C1002 0.950 . S
H1028 C1004 0.950 . S
H1029 C1005 0.949 . S
H1030 C1007 0.950 . S
H1031 C1009 0.950 . S
C1032 C1033 1.349 . S
C1032 C1034 1.327 . S
C1032 H1057 0.950 . S
C1033 C1032 1.349 . S
C1033 C1049 1.349 . S
C1034 C1032 1.327 . S
C1034 C1053 1.429 . S
C1034 H1058 0.950 . S
C1035 C1052 1.574 . S
C1035 C1054 1.368 . S
C1035 H1059 0.949 . S
H1036 C1040 0.949 . S
C1037 C1038 1.349 . S
C1037 C1039 1.327 . S
C1037 H1060 0.950 . S
C1038 C1037 1.349 . S
C1038 C1050 1.349 . S
C1039 C1037 1.327 . S
C1039 C1055 1.429 . S
C1039 H1061 0.950 . S
C1040 H1036 0.949 . S
C1040 C1048 1.574 . S
C1040 C1056 1.368 . S
H1041 C1049 0.950 . S
H1042 C1047 0.950 . S
H1043 C1048 0.949 . S
H1044 C1050 0.950 . S
H1045 C1051 0.950 . S
H1046 C1052 0.949 . S
C1047 H1042 0.950 . S
C1047 C1049 1.327 . S
C1047 C1053 1.429 . S
C1048 C1040 1.574 . S
C1048 H1043 0.949 . S
C1048 C1054 1.368 . S
C1049 C1033 1.349 . S
C1049 H1041 0.950 . S
C1049 C1047 1.327 . S
C1050 C1038 1.349 . S
C1050 H1044 0.950 . S
C1050 C1051 1.327 . S
C1051 H1045 0.950 . S
C1051 C1050 1.327 . S
C1051 C1055 1.429 . S
C1052 C1035 1.574 . S
C1052 H1046 0.949 . S
C1052 C1056 1.368 . S
C1053 C1034 1.429 . S
C1053 C1047 1.429 . S
C1053 C1054 1.523 . S
C1054 C1035 1.368 . S
C1054 C1048 1.368 . S
C1054 C1053 1.523 . S
C1055 C1039 1.429 . S
C1055 C1051 1.429 . S
C1055 C1056 1.523 . S
C1056 C1040 1.368 . S
C1056 C1052 1.368 . S
C1056 C1055 1.523 . S
H1057 C1032 0.950 . S
H1058 C1034 0.950 . S
H1059 C1035 0.949 . S
H1060 C1037 0.950 . S
H1061 C1039 0.950 . S
C1062 C1063 1.349 . S
C1062 C1064 1.327 . S
C1062 H1087 0.950 . S
C1063 C1062 1.349 . S
C1063 C1079 1.349 . S
C1064 C1062 1.327 . S
C1064 C1083 1.429 . S
C1064 H1088 0.950 . S
C1065 C1082 1.574 1_455 S
C1065 C1084 1.368 . S
C1065 H1089 0.949 . S
H1066 C1070 0.949 . S
C1067 C1068 1.349 . S
C1067 C1069 1.327 . S
C1067 H1090 0.950 . S
C1068 C1067 1.349 . S
C1068 C1080 1.349 . S
C1069 C1067 1.327 . S
C1069 C1085 1.429 . S
C1069 H1091 0.950 . S
C1070 H1066 0.949 . S
C1070 C1078 1.574 1_655 S
C1070 C1086 1.368 . S
H1071 C1079 0.950 . S
H1072 C1077 0.950 . S
H1073 C1078 0.949 . S
H1074 C1080 0.950 . S
H1075 C1081 0.950 . S
H1076 C1082 0.949 . S
C1077 H1072 0.950 . S
C1077 C1079 1.327 . S
C1077 C1083 1.429 . S
C1078 C1070 1.574 1_455 S
C1078 H1073 0.949 . S
C1078 C1084 1.368 . S
C1079 C1063 1.349 . S
C1079 H1071 0.950 . S
C1079 C1077 1.327 . S
C1080 C1068 1.349 . S
C1080 H1074 0.950 . S
C1080 C1081 1.327 . S
C1081 H1075 0.950 . S
C1081 C1080 1.327 . S
C1081 C1085 1.429 . S
C1082 C1065 1.574 1_655 S
C1082 H1076 0.949 . S
C1082 C1086 1.368 . S
C1083 C1064 1.429 . S
C1083 C1077 1.429 . S
C1083 C1084 1.523 . S
C1084 C1065 1.368 . S
C1084 C1078 1.368 . S
C1084 C1083 1.523 . S
C1085 C1069 1.429 . S
C1085 C1081 1.429 . S
C1085 C1086 1.523 . S
C1086 C1070 1.368 . S
C1086 C1082 1.368 . S
C1086 C1085 1.523 . S
H1087 C1062 0.950 . S
H1088 C1064 0.950 . S
H1089 C1065 0.949 . S
H1090 C1067 0.950 . S
H1091 C1069 0.950 . S
C1092 C1093 1.349 . S
C1092 C1094 1.327 . S
C1092 H1117 0.950 . S
C1093 C1092 1.349 . S
C1093 C1109 1.349 . S
C1094 C1092 1.327 . S
C1094 C1113 1.429 . S
C1094 H1118 0.950 . S
C1095 C1112 1.574 1_565 S
C1095 C1114 1.368 . S
C1095 H1119 0.949 . S
H1096 C1100 0.949 . S
C1097 C1098 1.349 . S
C1097 C1099 1.327 . S
C1097 H1120 0.950 . S
C1098 C1097 1.349 . S
C1098 C1110 1.349 . S
C1099 C1097 1.327 . S
C1099 C1115 1.429 . S
C1099 H1121 0.950 . S
C1100 H1096 0.949 . S
C1100 C1108 1.574 1_545 S
C1100 C1116 1.368 . S
H1101 C1109 0.950 . S
H1102 C1107 0.950 . S
H1103 C1108 0.949 . S
H1104 C1110 0.950 . S
H1105 C1111 0.950 . S
H1106 C1112 0.949 . S
C1107 H1102 0.950 . S
C1107 C1109 1.327 . S
C1107 C1113 1.429 . S
C1108 C1100 1.574 1_565 S
C1108 H1103 0.949 . S
C1108 C1114 1.368 . S
C1109 C1093 1.349 . S
C1109 H1101 0.950 . S
C1109 C1107 1.327 . S
C1110 C1098 1.349 . S
C1110 H1104 0.950 . S
C1110 C1111 1.327 . S
C1111 H1105 0.950 . S
C1111 C1110 1.327 . S
C1111 C1115 1.429 . S
C1112 C1095 1.574 1_545 S
C1112 H1106 0.949 . S
C1112 C1116 1.368 . S
C1113 C1094 1.429 . S
C1113 C1107 1.429 . S
C1113 C1114 1.523 . S
C1114 C1095 1.368 . S
C1114 C1108 1.368 . S
C1114 C1113 1.523 . S
C1115 C1099 1.429 . S
C1115 C1111 1.429 . S
C1115 C1116 1.523 . S
C1116 C1100 1.368 . S
C1116 C1112 1.368 . S
C1116 C1115 1.523 . S
H1117 C1092 0.950 . S
H1118 C1094 0.950 . S
H1119 C1095 0.949 . S
H1120 C1097 0.950 . S
H1121 C1099 0.950 . S
C1122 C1123 1.349 . S
C1122 C1124 1.327 . S
C1122 H1147 0.950 . S
C1123 C1122 1.349 . S
C1123 C1139 1.349 . S
C1124 C1122 1.327 . S
C1124 C1143 1.429 . S
C1124 H1148 0.950 . S
C1125 C1142 1.574 . S
C1125 C1144 1.368 . S
C1125 H1149 0.949 . S
H1126 C1130 0.949 . S
C1127 C1128 1.349 . S
C1127 C1129 1.327 . S
C1127 H1150 0.950 . S
C1128 C1127 1.349 . S
C1128 C1140 1.349 . S
C1129 C1127 1.327 . S
C1129 C1145 1.429 . S
C1129 H1151 0.950 . S
C1130 H1126 0.949 . S
C1130 C1138 1.574 . S
C1130 C1146 1.368 . S
H1131 C1139 0.950 . S
H1132 C1137 0.950 . S
H1133 C1138 0.949 . S
H1134 C1140 0.950 . S
H1135 C1141 0.950 . S
H1136 C1142 0.949 . S
C1137 H1132 0.950 . S
C1137 C1139 1.327 . S
C1137 C1143 1.429 . S
C1138 C1130 1.574 . S
C1138 H1133 0.949 . S
C1138 C1144 1.368 . S
C1139 C1123 1.349 . S
C1139 H1131 0.950 . S
C1139 C1137 1.327 . S
C1140 C1128 1.349 . S
C1140 H1134 0.950 . S
C1140 C1141 1.327 . S
C1141 H1135 0.950 . S
C1141 C1140 1.327 . S
C1141 C1145 1.429 . S
C1142 C1125 1.574 . S
C1142 H1136 0.949 . S
C1142 C1146 1.368 . S
C1143 C1124 1.429 . S
C1143 C1137 1.429 . S
C1143 C1144 1.523 . S
C1144 C1125 1.368 . S
C1144 C1138 1.368 . S
C1144 C1143 1.523 . S
C1145 C1129 1.429 . S
C1145 C1141 1.429 . S
C1145 C1146 1.523 . S
C1146 C1130 1.368 . S
C1146 C1142 1.368 . S
C1146 C1145 1.523 . S
H1147 C1122 0.950 . S
H1148 C1124 0.950 . S
H1149 C1125 0.949 . S
H1150 C1127 0.950 . S
H1151 C1129 0.950 . S
C1152 C1153 1.349 . S
C1152 C1154 1.327 . S
C1152 H1177 0.950 . S
C1153 C1152 1.349 . S
C1153 C1169 1.349 . S
C1154 C1152 1.327 . S
C1154 C1173 1.429 . S
C1154 H1178 0.950 . S
C1155 C1172 1.574 1_655 S
C1155 C1174 1.368 . S
C1155 H1179 0.949 . S
H1156 C1160 0.949 . S
C1157 C1158 1.349 . S
C1157 C1159 1.327 . S
C1157 H1180 0.950 . S
C1158 C1157 1.349 . S
C1158 C1170 1.349 . S
C1159 C1157 1.327 . S
C1159 C1175 1.429 . S
C1159 H1181 0.950 . S
C1160 H1156 0.949 . S
C1160 C1168 1.574 1_455 S
C1160 C1176 1.368 . S
H1161 C1169 0.950 . S
H1162 C1167 0.950 . S
H1163 C1168 0.949 . S
H1164 C1170 0.950 . S
H1165 C1171 0.950 . S
H1166 C1172 0.949 . S
C1167 H1162 0.950 . S
C1167 C1169 1.327 . S
C1167 C1173 1.429 . S
C1168 C1160 1.574 1_655 S
C1168 H1163 0.949 . S
C1168 C1174 1.368 . S
C1169 C1153 1.349 . S
C1169 H1161 0.950 . S
C1169 C1167 1.327 . S
C1170 C1158 1.349 . S
C1170 H1164 0.950 . S
C1170 C1171 1.327 . S
C1171 H1165 0.950 . S
C1171 C1170 1.327 . S
C1171 C1175 1.429 . S
C1172 C1155 1.574 1_455 S
C1172 H1166 0.949 . S
C1172 C1176 1.368 . S
C1173 C1154 1.429 . S
C1173 C1167 1.429 . S
C1173 C1174 1.523 . S
C1174 C1155 1.368 . S
C1174 C1168 1.368 . S
C1174 C1173 1.523 . S
C1175 C1159 1.429 . S
C1175 C1171 1.429 . S
C1175 C1176 1.523 . S
C1176 C1160 1.368 . S
C1176 C1172 1.368 . S
C1176 C1175 1.523 . S
H1177 C1152 0.950 . S
H1178 C1154 0.950 . S
H1179 C1155 0.949 . S
H1180 C1157 0.950 . S
H1181 C1159 0.950 . S
C1182 C1183 1.349 . S
C1182 C1184 1.327 . S
C1182 H1207 0.950 . S
C1183 C1182 1.349 . S
C1183 C1199 1.349 . S
C1184 C1182 1.327 . S
C1184 C1203 1.429 . S
C1184 H1208 0.950 . S
C1185 C1202 1.574 1_545 S
C1185 C1204 1.368 . S
C1185 H1209 0.949 . S
H1186 C1190 0.949 . S
C1187 C1188 1.349 . S
C1187 C1189 1.327 . S
C1187 H1210 0.950 . S
C1188 C1187 1.349 . S
C1188 C1200 1.349 . S
C1189 C1187 1.327 . S
C1189 C1205 1.429 . S
C1189 H1211 0.950 . S
C1190 H1186 0.949 . S
C1190 C1198 1.574 1_565 S
C1190 C1206 1.368 . S
H1191 C1199 0.950 . S
H1192 C1197 0.950 . S
H1193 C1198 0.949 . S
H1194 C1200 0.950 . S
H1195 C1201 0.950 . S
H1196 C1202 0.949 . S
C1197 H1192 0.950 . S
C1197 C1199 1.327 . S
C1197 C1203 1.429 . S
C1198 C1190 1.574 1_545 S
C1198 H1193 0.949 . S
C1198 C1204 1.368 . S
C1199 C1183 1.349 . S
C1199 H1191 0.950 . S
C1199 C1197 1.327 . S
C1200 C1188 1.349 . S
C1200 H1194 0.950 . S
C1200 C1201 1.327 . S
C1201 H1195 0.950 . S
C1201 C1200 1.327 . S
C1201 C1205 1.429 . S
C1202 C1185 1.574 1_565 S
C1202 H1196 0.949 . S
C1202 C1206 1.368 . S
C1203 C1184 1.429 . S
C1203 C1197 1.429 . S
C1203 C1204 1.523 . S
C1204 C1185 1.368 . S
C1204 C1198 1.368 . S
C1204 C1203 1.523 . S
C1205 C1189 1.429 . S
C1205 C1201 1.429 . S
C1205 C1206 1.523 . S
C1206 C1190 1.368 . S
C1206 C1202 1.368 . S
C1206 C1205 1.523 . S
H1207 C1182 0.950 . S
H1208 C1184 0.950 . S
H1209 C1185 0.949 . S
H1210 C1187 0.950 . S
H1211 C1189 0.950 . S
C1212 C1213 1.349 . S
C1212 C1214 1.327 . S
C1212 H1237 0.950 . S
C1213 C1212 1.349 . S
C1213 C1229 1.349 . S
C1214 C1212 1.327 . S
C1214 C1233 1.429 . S
C1214 H1238 0.950 . S
C1215 C1232 1.574 . S
C1215 C1234 1.368 . S
C1215 H1239 0.949 . S
H1216 C1220 0.949 . S
C1217 C1218 1.349 . S
C1217 C1219 1.327 . S
C1217 H1240 0.950 . S
C1218 C1217 1.349 . S
C1218 C1230 1.349 . S
C1219 C1217 1.327 . S
C1219 C1235 1.429 . S
C1219 H1241 0.950 . S
C1220 H1216 0.949 . S
C1220 C1228 1.574 . S
C1220 C1236 1.368 . S
H1221 C1229 0.950 . S
H1222 C1227 0.950 . S
H1223 C1228 0.949 . S
H1224 C1230 0.950 . S
H1225 C1231 0.950 . S
H1226 C1232 0.949 . S
C1227 H1222 0.950 . S
C1227 C1229 1.327 . S
C1227 C1233 1.429 . S
C1228 C1220 1.574 . S
C1228 H1223 0.949 . S
C1228 C1234 1.368 . S
C1229 C1213 1.349 . S
C1229 H1221 0.950 . S
C1229 C1227 1.327 . S
C1230 C1218 1.349 . S
C1230 H1224 0.950 . S
C1230 C1231 1.327 . S
C1231 H1225 0.950 . S
C1231 C1230 1.327 . S
C1231 C1235 1.429 . S
C1232 C1215 1.574 . S
C1232 H1226 0.949 . S
C1232 C1236 1.368 . S
C1233 C1214 1.429 . S
C1233 C1227 1.429 . S
C1233 C1234 1.523 . S
C1234 C1215 1.368 . S
C1234 C1228 1.368 . S
C1234 C1233 1.523 . S
C1235 C1219 1.429 . S
C1235 C1231 1.429 . S
C1235 C1236 1.523 . S
C1236 C1220 1.368 . S
C1236 C1232 1.368 . S
C1236 C1235 1.523 . S
H1237 C1212 0.950 . S
H1238 C1214 0.950 . S
H1239 C1215 0.949 . S
H1240 C1217 0.950 . S
H1241 C1219 0.950 . S
C1242 C1243 1.349 . S
C1242 C1244 1.327 . S
C1242 H1267 0.950 . S
C1243 C1242 1.349 . S
C1243 C1259 1.349 . S
C1244 C1242 1.327 . S
C1244 C1263 1.429 . S
C1244 H1268 0.950 . S
C1245 C1262 1.574 1_655 S
C1245 C1264 1.368 . S
C1245 H1269 0.949 . S
H1246 C1250 0.949 . S
C1247 C1248 1.349 . S
C1247 C1249 1.327 . S
C1247 H1270 0.950 . S
C1248 C1247 1.349 . S
C1248 C1260 1.349 . S
C1249 C1247 1.327 . S
C1249 C1265 1.429 . S
C1249 H1271 0.950 . S
C1250 H1246 0.949 . S
C1250 C1258 1.574 1_455 S
C1250 C1266 1.368 . S
H1251 C1259 0.950 . S
H1252 C1257 0.950 . S
H1253 C1258 0.949 . S
H1254 C1260 0.950 . S
H1255 C1261 0.950 . S
H1256 C1262 0.949 . S
C1257 H1252 0.950 . S
C1257 C1259 1.327 . S
C1257 C1263 1.429 . S
C1258 C1250 1.574 1_655 S
C1258 H1253 0.949 . S
C1258 C1264 1.368 . S
C1259 C1243 1.349 . S
C1259 H1251 0.950 . S
C1259 C1257 1.327 . S
C1260 C1248 1.349 . S
C1260 H1254 0.950 . S
C1260 C1261 1.327 . S
C1261 H1255 0.950 . S
C1261 C1260 1.327 . S
C1261 C1265 1.429 . S
C1262 C1245 1.574 1_455 S
C1262 H1256 0.949 . S
C1262 C1266 1.368 . S
C1263 C1244 1.429 . S
C1263 C1257 1.429 . S
C1263 C1264 1.523 . S
C1264 C1245 1.368 . S
C1264 C1258 1.368 . S
C1264 C1263 1.523 . S
C1265 C1249 1.429 . S
C1265 C1261 1.429 . S
C1265 C1266 1.523 . S
C1266 C1250 1.368 . S
C1266 C1262 1.368 . S
C1266 C1265 1.523 . S
H1267 C1242 0.950 . S
H1268 C1244 0.950 . S
H1269 C1245 0.949 . S
H1270 C1247 0.950 . S
H1271 C1249 0.950 . S
C1272 C1273 1.349 . S
C1272 C1274 1.327 . S
C1272 H1297 0.950 . S
C1273 C1272 1.349 . S
C1273 C1289 1.349 . S
C1274 C1272 1.327 . S
C1274 C1293 1.429 . S
C1274 H1298 0.950 . S
C1275 C1292 1.574 1_545 S
C1275 C1294 1.368 . S
C1275 H1299 0.949 . S
H1276 C1280 0.949 . S
C1277 C1278 1.349 . S
C1277 C1279 1.327 . S
C1277 H1300 0.950 . S
C1278 C1277 1.349 . S
C1278 C1290 1.349 . S
C1279 C1277 1.327 . S
C1279 C1295 1.429 . S
C1279 H1301 0.950 . S
C1280 H1276 0.949 . S
C1280 C1288 1.574 1_565 S
C1280 C1296 1.368 . S
H1281 C1289 0.950 . S
H1282 C1287 0.950 . S
H1283 C1288 0.949 . S
H1284 C1290 0.950 . S
H1285 C1291 0.950 . S
H1286 C1292 0.949 . S
C1287 H1282 0.950 . S
C1287 C1289 1.327 . S
C1287 C1293 1.429 . S
C1288 C1280 1.574 1_545 S
C1288 H1283 0.949 . S
C1288 C1294 1.368 . S
C1289 C1273 1.349 . S
C1289 H1281 0.950 . S
C1289 C1287 1.327 . S
C1290 C1278 1.349 . S
C1290 H1284 0.950 . S
C1290 C1291 1.327 . S
C1291 H1285 0.950 . S
C1291 C1290 1.327 . S
C1291 C1295 1.429 . S
C1292 C1275 1.574 1_565 S
C1292 H1286 0.949 . S
C1292 C1296 1.368 . S
C1293 C1274 1.429 . S
C1293 C1287 1.429 . S
C1293 C1294 1.523 . S
C1294 C1275 1.368 . S
C1294 C1288 1.368 . S
C1294 C1293 1.523 . S
C1295 C1279 1.429 . S
C1295 C1291 1.429 . S
C1295 C1296 1.523 . S
C1296 C1280 1.368 . S
C1296 C1292 1.368 . S
C1296 C1295 1.523 . S
H1297 C1272 0.950 . S
H1298 C1274 0.950 . S
H1299 C1275 0.949 . S
H1300 C1277 0.950 . S
H1301 C1279 0.950 . S
C1302 C1303 1.349 . S
C1302 C1304 1.327 . S
C1302 H1327 0.950 . S
C1303 C1302 1.349 . S
C1303 C1319 1.349 . S
C1304 C1302 1.327 . S
C1304 C1323 1.429 . S
C1304 H1328 0.950 . S
C1305 C1322 1.574 . S
C1305 C1324 1.368 . S
C1305 H1329 0.949 . S
H1306 C1310 0.949 . S
C1307 C1308 1.349 . S
C1307 C1309 1.327 . S
C1307 H1330 0.950 . S
C1308 C1307 1.349 . S
C1308 C1320 1.349 . S
C1309 C1307 1.327 . S
C1309 C1325 1.429 . S
C1309 H1331 0.950 . S
C1310 H1306 0.949 . S
C1310 C1318 1.574 . S
C1310 C1326 1.368 . S
H1311 C1319 0.950 . S
H1312 C1317 0.950 . S
H1313 C1318 0.949 . S
H1314 C1320 0.950 . S
H1315 C1321 0.950 . S
H1316 C1322 0.949 . S
C1317 H1312 0.950 . S
C1317 C1319 1.327 . S
C1317 C1323 1.429 . S
C1318 C1310 1.574 . S
C1318 H1313 0.949 . S
C1318 C1324 1.368 . S
C1319 C1303 1.349 . S
C1319 H1311 0.950 . S
C1319 C1317 1.327 . S
C1320 C1308 1.349 . S
C1320 H1314 0.950 . S
C1320 C1321 1.327 . S
C1321 H1315 0.950 . S
C1321 C1320 1.327 . S
C1321 C1325 1.429 . S
C1322 C1305 1.574 . S
C1322 H1316 0.949 . S
C1322 C1326 1.368 . S
C1323 C1304 1.429 . S
C1323 C1317 1.429 . S
C1323 C1324 1.523 . S
C1324 C1305 1.368 . S
C1324 C1318 1.368 . S
C1324 C1323 1.523 . S
C1325 C1309 1.429 . S
C1325 C1321 1.429 . S
C1325 C1326 1.523 . S
C1326 C1310 1.368 . S
C1326 C1322 1.368 . S
C1326 C1325 1.523 . S
H1327 C1302 0.950 . S
H1328 C1304 0.950 . S
H1329 C1305 0.949 . S
H1330 C1307 0.950 . S
H1331 C1309 0.950 . S
C1332 C1333 1.349 . S
C1332 C1334 1.327 . S
C1332 H1357 0.950 . S
C1333 C1332 1.349 . S
C1333 C1349 1.349 . S
C1334 C1332 1.327 . S
C1334 C1353 1.429 . S
C1334 H1358 0.950 . S
C1335 C1352 1.574 1_455 S
C1335 C1354 1.368 . S
C1335 H1359 0.949 . S
H1336 C1340 0.949 . S
C1337 C1338 1.349 . S
C1337 C1339 1.327 . S
C1337 H1360 0.950 . S
C1338 C1337 1.349 . S
C1338 C1350 1.349 . S
C1339 C1337 1.327 . S
C1339 C1355 1.429 . S
C1339 H1361 0.950 . S
C1340 H1336 0.949 . S
C1340 C1348 1.574 1_655 S
C1340 C1356 1.368 . S
H1341 C1349 0.950 . S
H1342 C1347 0.950 . S
H1343 C1348 0.949 . S
H1344 C1350 0.950 . S
H1345 C1351 0.950 . S
H1346 C1352 0.949 . S
C1347 H1342 0.950 . S
C1347 C1349 1.327 . S
C1347 C1353 1.429 . S
C1348 C1340 1.574 1_455 S
C1348 H1343 0.949 . S
C1348 C1354 1.368 . S
C1349 C1333 1.349 . S
C1349 H1341 0.950 . S
C1349 C1347 1.327 . S
C1350 C1338 1.349 . S
C1350 H1344 0.950 . S
C1350 C1351 1.327 . S
C1351 H1345 0.950 . S
C1351 C1350 1.327 . S
C1351 C1355 1.429 . S
C1352 C1335 1.574 1_655 S
C1352 H1346 0.949 . S
C1352 C1356 1.368 . S
C1353 C1334 1.429 . S
C1353 C1347 1.429 . S
C1353 C1354 1.523 . S
C1354 C1335 1.368 . S
C1354 C1348 1.368 . S
C1354 C1353 1.523 . S
C1355 C1339 1.429 . S
C1355 C1351 1.429 . S
C1355 C1356 1.523 . S
C1356 C1340 1.368 . S
C1356 C1352 1.368 . S
C1356 C1355 1.523 . S
H1357 C1332 0.950 . S
H1358 C1334 0.950 . S
H1359 C1335 0.949 . S
H1360 C1337 0.950 . S
H1361 C1339 0.950 . S
C1362 C1363 1.349 . S
C1362 C1364 1.327 . S
C1362 H1387 0.950 . S
C1363 C1362 1.349 . S
C1363 C1379 1.349 . S
C1364 C1362 1.327 . S
C1364 C1383 1.429 . S
C1364 H1388 0.950 . S
C1365 C1382 1.574 1_565 S
C1365 C1384 1.368 . S
C1365 H1389 0.949 . S
H1366 C1370 0.949 . S
C1367 C1368 1.349 . S
C1367 C1369 1.327 . S
C1367 H1390 0.950 . S
C1368 C1367 1.349 . S
C1368 C1380 1.349 . S
C1369 C1367 1.327 . S
C1369 C1385 1.429 . S
C1369 H1391 0.950 . S
C1370 H1366 0.949 . S
C1370 C1378 1.574 1_545 S
C1370 C1386 1.368 . S
H1371 C1379 0.950 . S
H1372 C1377 0.950 . S
H1373 C1378 0.949 . S
H1374 C1380 0.950 . S
H1375 C1381 0.950 . S
H1376 C1382 0.949 . S
C1377 H1372 0.950 . S
C1377 C1379 1.327 . S
C1377 C1383 1.429 . S
C1378 C1370 1.574 1_565 S
C1378 H1373 0.949 . S
C1378 C1384 1.368 . S
C1379 C1363 1.349 . S
C1379 H1371 0.950 . S
C1379 C1377 1.327 . S
C1380 C1368 1.349 . S
C1380 H1374 0.950 . S
C1380 C1381 1.327 . S
C1381 H1375 0.950 . S
C1381 C1380 1.327 . S
C1381 C1385 1.429 . S
C1382 C1365 1.574 1_545 S
C1382 H1376 0.949 . S
C1382 C1386 1.368 . S
C1383 C1364 1.429 . S
C1383 C1377 1.429 . S
C1383 C1384 1.523 . S
C1384 C1365 1.368 . S
C1384 C1378 1.368 . S
C1384 C1383 1.523 . S
C1385 C1369 1.429 . S
C1385 C1381 1.429 . S
C1385 C1386 1.523 . S
C1386 C1370 1.368 . S
C1386 C1382 1.368 . S
C1386 C1385 1.523 . S
H1387 C1362 0.950 . S
H1388 C1364 0.950 . S
H1389 C1365 0.949 . S
H1390 C1367 0.950 . S
H1391 C1369 0.950 . S
C1392 C1393 1.349 . S
C1392 C1394 1.327 . S
C1392 H1417 0.950 . S
C1393 C1392 1.349 . S
C1393 C1409 1.349 . S
C1394 C1392 1.327 . S
C1394 C1413 1.429 . S
C1394 H1418 0.950 . S
C1395 C1412 1.574 . S
C1395 C1414 1.368 . S
C1395 H1419 0.949 . S
H1396 C1400 0.949 . S
C1397 C1398 1.349 . S
C1397 C1399 1.327 . S
C1397 H1420 0.950 . S
C1398 C1397 1.349 . S
C1398 C1410 1.349 . S
C1399 C1397 1.327 . S
C1399 C1415 1.429 . S
C1399 H1421 0.950 . S
C1400 H1396 0.949 . S
C1400 C1408 1.574 . S
C1400 C1416 1.368 . S
H1401 C1409 0.950 . S
H1402 C1407 0.950 . S
H1403 C1408 0.949 . S
H1404 C1410 0.950 . S
H1405 C1411 0.950 . S
H1406 C1412 0.949 . S
C1407 H1402 0.950 . S
C1407 C1409 1.327 . S
C1407 C1413 1.429 . S
C1408 C1400 1.574 . S
C1408 H1403 0.949 . S
C1408 C1414 1.368 1_554 S
C1409 C1393 1.349 . S
C1409 H1401 0.950 . S
C1409 C1407 1.327 . S
C1410 C1398 1.349 . S
C1410 H1404 0.950 . S
C1410 C1411 1.327 . S
C1411 H1405 0.950 . S
C1411 C1410 1.327 . S
C1411 C1415 1.429 . S
C1412 C1395 1.574 . S
C1412 H1406 0.949 . S
C1412 C1416 1.368 1_556 S
C1413 C1394 1.429 . S
C1413 C1407 1.429 . S
C1413 C1414 1.523 . S
C1414 C1395 1.368 . S
C1414 C1408 1.368 1_556 S
C1414 C1413 1.523 . S
C1415 C1399 1.429 . S
C1415 C1411 1.429 . S
C1415 C1416 1.523 . S
C1416 C1400 1.368 . S
C1416 C1412 1.368 1_554 S
C1416 C1415 1.523 . S
H1417 C1392 0.950 . S
H1418 C1394 0.950 . S
H1419 C1395 0.949 . S
H1420 C1397 0.950 . S
H1421 C1399 0.950 . S
C1422 C1423 1.349 . S
C1422 C1424 1.327 . S
C1422 H1447 0.950 . S
C1423 C1422 1.349 . S
C1423 C1439 1.349 . S
C1424 C1422 1.327 . S
C1424 C1443 1.429 . S
C1424 H1448 0.950 . S
C1425 C1442 1.574 . S
C1425 C1444 1.368 . S
C1425 H1449 0.949 . S
H1426 C1430 0.949 . S
C1427 C1428 1.349 . S
C1427 C1429 1.327 . S
C1427 H1450 0.950 . S
C1428 C1427 1.349 . S
C1428 C1440 1.349 . S
C1429 C1427 1.327 . S
C1429 C1445 1.429 . S
C1429 H1451 0.950 . S
C1430 H1426 0.949 . S
C1430 C1438 1.574 . S
C1430 C1446 1.368 . S
H1431 C1439 0.950 . S
H1432 C1437 0.950 . S
H1433 C1438 0.949 . S
H1434 C1440 0.950 . S
H1435 C1441 0.950 . S
H1436 C1442 0.949 . S
C1437 H1432 0.950 . S
C1437 C1439 1.327 . S
C1437 C1443 1.429 . S
C1438 C1430 1.574 . S
C1438 H1433 0.949 . S
C1438 C1444 1.368 . S
C1439 C1423 1.349 . S
C1439 H1431 0.950 . S
C1439 C1437 1.327 . S
C1440 C1428 1.349 . S
C1440 H1434 0.950 . S
C1440 C1441 1.327 . S
C1441 H1435 0.950 . S
C1441 C1440 1.327 . S
C1441 C1445 1.429 . S
C1442 C1425 1.574 . S
C1442 H1436 0.949 . S
C1442 C1446 1.368 . S
C1443 C1424 1.429 . S
C1443 C1437 1.429 . S
C1443 C1444 1.523 . S
C1444 C1425 1.368 . S
C1444 C1438 1.368 . S
C1444 C1443 1.523 . S
C1445 C1429 1.429 . S
C1445 C1441 1.429 . S
C1445 C1446 1.523 . S
C1446 C1430 1.368 . S
C1446 C1442 1.368 . S
C1446 C1445 1.523 . S
H1447 C1422 0.950 . S
H1448 C1424 0.950 . S
H1449 C1425 0.949 . S
H1450 C1427 0.950 . S
H1451 C1429 0.950 . S
C1452 C1453 1.349 . S
C1452 C1454 1.327 . S
C1452 H1477 0.950 . S
C1453 C1452 1.349 . S
C1453 C1469 1.349 . S
C1454 C1452 1.327 . S
C1454 C1473 1.429 . S
C1454 H1478 0.950 . S
C1455 C1472 1.574 . S
C1455 C1474 1.368 . S
C1455 H1479 0.949 . S
H1456 C1460 0.949 . S
C1457 C1458 1.349 . S
C1457 C1459 1.327 . S
C1457 H1480 0.950 . S
C1458 C1457 1.349 . S
C1458 C1470 1.349 . S
C1459 C1457 1.327 . S
C1459 C1475 1.429 . S
C1459 H1481 0.950 . S
C1460 H1456 0.949 . S
C1460 C1468 1.574 . S
C1460 C1476 1.368 . S
H1461 C1469 0.950 . S
H1462 C1467 0.950 . S
H1463 C1468 0.949 . S
H1464 C1470 0.950 . S
H1465 C1471 0.950 . S
H1466 C1472 0.949 . S
C1467 H1462 0.950 . S
C1467 C1469 1.327 . S
C1467 C1473 1.429 . S
C1468 C1460 1.574 . S
C1468 H1463 0.949 . S
C1468 C1474 1.368 1_554 S
C1469 C1453 1.349 . S
C1469 H1461 0.950 . S
C1469 C1467 1.327 . S
C1470 C1458 1.349 . S
C1470 H1464 0.950 . S
C1470 C1471 1.327 . S
C1471 H1465 0.950 . S
C1471 C1470 1.327 . S
C1471 C1475 1.429 . S
C1472 C1455 1.574 . S
C1472 H1466 0.949 . S
C1472 C1476 1.368 1_556 S
C1473 C1454 1.429 . S
C1473 C1467 1.429 . S
C1473 C1474 1.523 . S
C1474 C1455 1.368 . S
C1474 C1468 1.368 1_556 S
C1474 C1473 1.523 . S
C1475 C1459 1.429 . S
C1475 C1471 1.429 . S
C1475 C1476 1.523 . S
C1476 C1460 1.368 . S
C1476 C1472 1.368 1_554 S
C1476 C1475 1.523 . S
H1477 C1452 0.950 . S
H1478 C1454 0.950 . S
H1479 C1455 0.949 . S
H1480 C1457 0.950 . S
H1481 C1459 0.950 . S
C1482 C1483 1.349 . S
C1482 C1484 1.327 . S
C1482 H1507 0.950 . S
C1483 C1482 1.349 . S
C1483 C1499 1.349 . S
C1484 C1482 1.327 . S
C1484 C1503 1.429 . S
C1484 H1508 0.950 . S
C1485 C1502 1.574 . S
C1485 C1504 1.368 . S
C1485 H1509 0.949 . S
H1486 C1490 0.949 . S
C1487 C1488 1.349 . S
C1487 C1489 1.327 . S
C1487 H1510 0.950 . S
C1488 C1487 1.349 . S
C1488 C1500 1.349 . S
C1489 C1487 1.327 . S
C1489 C1505 1.429 . S
C1489 H1511 0.950 . S
C1490 H1486 0.949 . S
C1490 C1498 1.574 . S
C1490 C1506 1.368 . S
H1491 C1499 0.950 . S
H1492 C1497 0.950 . S
H1493 C1498 0.949 . S
H1494 C1500 0.950 . S
H1495 C1501 0.950 . S
H1496 C1502 0.949 . S
C1497 H1492 0.950 . S
C1497 C1499 1.327 . S
C1497 C1503 1.429 . S
C1498 C1490 1.574 . S
C1498 H1493 0.949 . S
C1498 C1504 1.368 . S
C1499 C1483 1.349 . S
C1499 H1491 0.950 . S
C1499 C1497 1.327 . S
C1500 C1488 1.349 . S
C1500 H1494 0.950 . S
C1500 C1501 1.327 . S
C1501 H1495 0.950 . S
C1501 C1500 1.327 . S
C1501 C1505 1.429 . S
C1502 C1485 1.574 . S
C1502 H1496 0.949 . S
C1502 C1506 1.368 . S
C1503 C1484 1.429 . S
C1503 C1497 1.429 . S
C1503 C1504 1.523 . S
C1504 C1485 1.368 . S
C1504 C1498 1.368 . S
C1504 C1503 1.523 . S
C1505 C1489 1.429 . S
C1505 C1501 1.429 . S
C1505 C1506 1.523 . S
C1506 C1490 1.368 . S
C1506 C1502 1.368 . S
C1506 C1505 1.523 . S
H1507 C1482 0.950 . S
H1508 C1484 0.950 . S
H1509 C1485 0.949 . S
H1510 C1487 0.950 . S
H1511 C1489 0.950 . S
C1512 C1513 1.349 . S
C1512 C1514 1.327 . S
C1512 H1537 0.950 . S
C1513 C1512 1.349 . S
C1513 C1529 1.349 . S
C1514 C1512 1.327 . S
C1514 C1533 1.429 . S
C1514 H1538 0.950 . S
C1515 C1532 1.574 . S
C1515 C1534 1.368 1_554 S
C1515 H1539 0.949 . S
H1516 C1520 0.949 . S
C1517 C1518 1.349 . S
C1517 C1519 1.327 . S
C1517 H1540 0.950 . S
C1518 C1517 1.349 . S
C1518 C1530 1.349 . S
C1519 C1517 1.327 . S
C1519 C1535 1.429 . S
C1519 H1541 0.950 . S
C1520 H1516 0.949 . S
C1520 C1528 1.574 . S
C1520 C1536 1.368 1_556 S
H1521 C1529 0.950 . S
H1522 C1527 0.950 . S
H1523 C1528 0.949 . S
H1524 C1530 0.950 . S
H1525 C1531 0.950 . S
H1526 C1532 0.949 . S
C1527 H1522 0.950 . S
C1527 C1529 1.327 . S
C1527 C1533 1.429 . S
C1528 C1520 1.574 . S
C1528 H1523 0.949 . S
C1528 C1534 1.368 . S
C1529 C1513 1.349 . S
C1529 H1521 0.950 . S
C1529 C1527 1.327 . S
C1530 C1518 1.349 . S
C1530 H1524 0.950 . S
C1530 C1531 1.327 . S
C1531 H1525 0.950 . S
C1531 C1530 1.327 . S
C1531 C1535 1.429 . S
C1532 C1515 1.574 . S
C1532 H1526 0.949 . S
C1532 C1536 1.368 . S
C1533 C1514 1.429 . S
C1533 C1527 1.429 . S
C1533 C1534 1.523 . S
C1534 C1515 1.368 1_556 S
C1534 C1528 1.368 . S
C1534 C1533 1.523 . S
C1535 C1519 1.429 . S
C1535 C1531 1.429 . S
C1535 C1536 1.523 . S
C1536 C1520 1.368 1_554 S
C1536 C1532 1.368 . S
C1536 C1535 1.523 . S
H1537 C1512 0.950 . S
H1538 C1514 0.950 . S
H1539 C1515 0.949 . S
H1540 C1517 0.950 . S
H1541 C1519 0.950 . S
C1542 C1543 1.349 . S
C1542 C1544 1.327 . S
C1542 H1567 0.950 . S
C1543 C1542 1.349 . S
C1543 C1559 1.349 . S
C1544 C1542 1.327 . S
C1544 C1563 1.429 . S
C1544 H1568 0.950 . S
C1545 C1562 1.574 . S
C1545 C1564 1.368 . S
C1545 H1569 0.949 . S
H1546 C1550 0.949 . S
C1547 C1548 1.349 . S
C1547 C1549 1.327 . S
C1547 H1570 0.950 . S
C1548 C1547 1.349 . S
C1548 C1560 1.349 . S
C1549 C1547 1.327 . S
C1549 C1565 1.429 . S
C1549 H1571 0.950 . S
C1550 H1546 0.949 . S
C1550 C1558 1.574 . S
C1550 C1566 1.368 . S
H1551 C1559 0.950 . S
H1552 C1557 0.950 . S
H1553 C1558 0.949 . S
H1554 C1560 0.950 . S
H1555 C1561 0.950 . S
H1556 C1562 0.949 . S
C1557 H1552 0.950 . S
C1557 C1559 1.327 . S
C1557 C1563 1.429 . S
C1558 C1550 1.574 . S
C1558 H1553 0.949 . S
C1558 C1564 1.368 . S
C1559 C1543 1.349 . S
C1559 H1551 0.950 . S
C1559 C1557 1.327 . S
C1560 C1548 1.349 . S
C1560 H1554 0.950 . S
C1560 C1561 1.327 . S
C1561 H1555 0.950 . S
C1561 C1560 1.327 . S
C1561 C1565 1.429 . S
C1562 C1545 1.574 . S
C1562 H1556 0.949 . S
C1562 C1566 1.368 . S
C1563 C1544 1.429 . S
C1563 C1557 1.429 . S
C1563 C1564 1.523 . S
C1564 C1545 1.368 . S
C1564 C1558 1.368 . S
C1564 C1563 1.523 . S
C1565 C1549 1.429 . S
C1565 C1561 1.429 . S
C1565 C1566 1.523 . S
C1566 C1550 1.368 . S
C1566 C1562 1.368 . S
C1566 C1565 1.523 . S
H1567 C1542 0.950 . S
H1568 C1544 0.950 . S
H1569 C1545 0.949 . S
H1570 C1547 0.950 . S
H1571 C1549 0.950 . S
C1572 C1573 1.349 . S
C1572 C1574 1.327 . S
C1572 H1597 0.950 . S
C1573 C1572 1.349 . S
C1573 C1589 1.349 . S
C1574 C1572 1.327 . S
C1574 C1593 1.429 . S
C1574 H1598 0.950 . S
C1575 C1592 1.574 . S
C1575 C1594 1.368 1_556 S
C1575 H1599 0.949 . S
H1576 C1580 0.949 . S
C1577 C1578 1.349 . S
C1577 C1579 1.327 . S
C1577 H1600 0.950 . S
C1578 C1577 1.349 . S
C1578 C1590 1.349 . S
C1579 C1577 1.327 . S
C1579 C1595 1.429 . S
C1579 H1601 0.950 . S
C1580 H1576 0.949 . S
C1580 C1588 1.574 . S
C1580 C1596 1.368 1_554 S
H1581 C1589 0.950 . S
H1582 C1587 0.950 1_556 S
H1583 C1588 0.949 . S
H1584 C1590 0.950 . S
H1585 C1591 0.950 1_554 S
H1586 C1592 0.949 . S
C1587 H1582 0.950 1_554 S
C1587 C1589 1.327 . S
C1587 C1593 1.429 . S
C1588 C1580 1.574 . S
C1588 H1583 0.949 . S
C1588 C1594 1.368 . S
C1589 C1573 1.349 . S
C1589 H1581 0.950 . S
C1589 C1587 1.327 . S
C1590 C1578 1.349 . S
C1590 H1584 0.950 . S
C1590 C1591 1.327 . S
C1591 H1585 0.950 1_556 S
C1591 C1590 1.327 . S
C1591 C1595 1.429 . S
C1592 C1575 1.574 . S
C1592 H1586 0.949 . S
C1592 C1596 1.368 . S
C1593 C1574 1.429 . S
C1593 C1587 1.429 . S
C1593 C1594 1.523 . S
C1594 C1575 1.368 1_554 S
C1594 C1588 1.368 . S
C1594 C1593 1.523 . S
C1595 C1579 1.429 . S
C1595 C1591 1.429 . S
C1595 C1596 1.523 . S
C1596 C1580 1.368 1_556 S
C1596 C1592 1.368 . S
C1596 C1595 1.523 . S
H1597 C1572 0.950 . S
H1598 C1574 0.950 . S
H1599 C1575 0.949 . S
H1600 C1577 0.950 . S
H1601 C1579 0.950 . S
C1602 C1603 1.349 . S
C1602 C1604 1.327 . S
C1602 H1627 0.950 . S
C1603 C1602 1.349 . S
C1603 C1619 1.349 . S
C1604 C1602 1.327 . S
C1604 C1623 1.429 . S
C1604 H1628 0.950 . S
C1605 C1622 1.574 . S
C1605 C1624 1.368 . S
C1605 H1629 0.949 . S
H1606 C1610 0.949 . S
C1607 C1608 1.349 . S
C1607 C1609 1.327 . S
C1607 H1630 0.950 . S
C1608 C1607 1.349 . S
C1608 C1620 1.349 . S
C1609 C1607 1.327 . S
C1609 C1625 1.429 . S
C1609 H1631 0.950 . S
C1610 H1606 0.949 . S
C1610 C1618 1.574 . S
C1610 C1626 1.368 . S
H1611 C1619 0.950 . S
H1612 C1617 0.950 . S
H1613 C1618 0.949 . S
H1614 C1620 0.950 . S
H1615 C1621 0.950 . S
H1616 C1622 0.949 . S
C1617 H1612 0.950 . S
C1617 C1619 1.327 . S
C1617 C1623 1.429 . S
C1618 C1610 1.574 . S
C1618 H1613 0.949 . S
C1618 C1624 1.368 . S
C1619 C1603 1.349 . S
C1619 H1611 0.950 . S
C1619 C1617 1.327 . S
C1620 C1608 1.349 . S
C1620 H1614 0.950 . S
C1620 C1621 1.327 . S
C1621 H1615 0.950 . S
C1621 C1620 1.327 . S
C1621 C1625 1.429 . S
C1622 C1605 1.574 . S
C1622 H1616 0.949 . S
C1622 C1626 1.368 . S
C1623 C1604 1.429 . S
C1623 C1617 1.429 . S
C1623 C1624 1.523 . S
C1624 C1605 1.368 . S
C1624 C1618 1.368 . S
C1624 C1623 1.523 . S
C1625 C1609 1.429 . S
C1625 C1621 1.429 . S
C1625 C1626 1.523 . S
C1626 C1610 1.368 . S
C1626 C1622 1.368 . S
C1626 C1625 1.523 . S
H1627 C1602 0.950 . S
H1628 C1604 0.950 . S
H1629 C1605 0.949 . S
H1630 C1607 0.950 . S
H1631 C1609 0.950 . S
C1632 C1633 1.349 . S
C1632 C1634 1.327 . S
C1632 H1657 0.950 . S
C1633 C1632 1.349 . S
C1633 C1649 1.349 . S
C1634 C1632 1.327 . S
C1634 C1653 1.429 . S
C1634 H1658 0.950 . S
C1635 C1652 1.574 . S
C1635 C1654 1.368 . S
C1635 H1659 0.949 . S
H1636 C1640 0.949 . S
C1637 C1638 1.349 . S
C1637 C1639 1.327 . S
C1637 H1660 0.950 . S
C1638 C1637 1.349 . S
C1638 C1650 1.349 . S
C1639 C1637 1.327 . S
C1639 C1655 1.429 . S
C1639 H1661 0.950 . S
C1640 H1636 0.949 . S
C1640 C1648 1.574 . S
C1640 C1656 1.368 . S
H1641 C1649 0.950 . S
H1642 C1647 0.950 . S
H1643 C1648 0.949 . S
H1644 C1650 0.950 . S
H1645 C1651 0.950 . S
H1646 C1652 0.949 . S
C1647 H1642 0.950 . S
C1647 C1649 1.327 . S
C1647 C1653 1.429 . S
C1648 C1640 1.574 . S
C1648 H1643 0.949 . S
C1648 C1654 1.368 1_556 S
C1649 C1633 1.349 . S
C1649 H1641 0.950 . S
C1649 C1647 1.327 . S
C1650 C1638 1.349 . S
C1650 H1644 0.950 . S
C1650 C1651 1.327 . S
C1651 H1645 0.950 . S
C1651 C1650 1.327 . S
C1651 C1655 1.429 . S
C1652 C1635 1.574 . S
C1652 H1646 0.949 . S
C1652 C1656 1.368 1_554 S
C1653 C1634 1.429 . S
C1653 C1647 1.429 . S
C1653 C1654 1.523 . S
C1654 C1635 1.368 . S
C1654 C1648 1.368 1_554 S
C1654 C1653 1.523 . S
C1655 C1639 1.429 . S
C1655 C1651 1.429 . S
C1655 C1656 1.523 . S
C1656 C1640 1.368 . S
C1656 C1652 1.368 1_556 S
C1656 C1655 1.523 . S
H1657 C1632 0.950 . S
H1658 C1634 0.950 . S
H1659 C1635 0.949 . S
H1660 C1637 0.950 . S
H1661 C1639 0.950 . S
C1662 C1663 1.349 . S
C1662 C1664 1.327 . S
C1662 H1687 0.950 . S
C1663 C1662 1.349 . S
C1663 C1679 1.349 . S
C1664 C1662 1.327 . S
C1664 C1683 1.429 . S
C1664 H1688 0.950 . S
C1665 C1682 1.574 . S
C1665 C1684 1.368 . S
C1665 H1689 0.949 . S
H1666 C1670 0.949 . S
C1667 C1668 1.349 . S
C1667 C1669 1.327 . S
C1667 H1690 0.950 . S
C1668 C1667 1.349 . S
C1668 C1680 1.349 . S
C1669 C1667 1.327 . S
C1669 C1685 1.429 . S
C1669 H1691 0.950 . S
C1670 H1666 0.949 . S
C1670 C1678 1.574 . S
C1670 C1686 1.368 . S
H1671 C1679 0.950 . S
H1672 C1677 0.950 . S
H1673 C1678 0.949 . S
H1674 C1680 0.950 . S
H1675 C1681 0.950 . S
H1676 C1682 0.949 . S
C1677 H1672 0.950 . S
C1677 C1679 1.327 . S
C1677 C1683 1.429 . S
C1678 C1670 1.574 . S
C1678 H1673 0.949 . S
C1678 C1684 1.368 . S
C1679 C1663 1.349 . S
C1679 H1671 0.950 . S
C1679 C1677 1.327 . S
C1680 C1668 1.349 . S
C1680 H1674 0.950 . S
C1680 C1681 1.327 . S
C1681 H1675 0.950 . S
C1681 C1680 1.327 . S
C1681 C1685 1.429 . S
C1682 C1665 1.574 . S
C1682 H1676 0.949 . S
C1682 C1686 1.368 . S
C1683 C1664 1.429 . S
C1683 C1677 1.429 . S
C1683 C1684 1.523 . S
C1684 C1665 1.368 . S
C1684 C1678 1.368 . S
C1684 C1683 1.523 . S
C1685 C1669 1.429 . S
C1685 C1681 1.429 . S
C1685 C1686 1.523 . S
C1686 C1670 1.368 . S
C1686 C1682 1.368 . S
C1686 C1685 1.523 . S
H1687 C1662 0.950 . S
H1688 C1664 0.950 . S
H1689 C1665 0.949 . S
H1690 C1667 0.950 . S
H1691 C1669 0.950 . S
C1692 C1693 1.349 . S
C1692 C1694 1.327 . S
C1692 H1717 0.950 . S
C1693 C1692 1.349 . S
C1693 C1709 1.349 . S
C1694 C1692 1.327 . S
C1694 C1713 1.429 . S
C1694 H1718 0.950 . S
C1695 C1712 1.563 1_556 S
C1695 C1714 1.378 . S
C1695 H1719 0.949 . S
H1696 C1700 0.949 . S
C1697 C1698 1.349 . S
C1697 C1699 1.327 . S
C1697 H1720 0.950 . S
C1698 C1697 1.349 . S
C1698 C1710 1.349 . S
C1699 C1697 1.327 . S
C1699 C1715 1.429 . S
C1699 H1721 0.950 . S
C1700 H1696 0.949 . S
C1700 C1708 1.563 1_554 S
C1700 C1716 1.378 . S
H1701 C1709 0.950 . S
H1702 C1707 0.950 . S
H1703 C1708 0.949 . S
H1704 C1710 0.950 . S
H1705 C1711 0.950 . S
H1706 C1712 0.949 . S
C1707 H1702 0.950 . S
C1707 C1709 1.327 . S
C1707 C1713 1.429 . S
C1708 C1700 1.563 1_556 S
C1708 H1703 0.949 . S
C1708 C1714 1.368 . S
C1709 C1693 1.349 . S
C1709 H1701 0.950 . S
C1709 C1707 1.327 . S
C1710 C1698 1.349 . S
C1710 H1704 0.950 . S
C1710 C1711 1.327 . S
C1711 H1705 0.950 . S
C1711 C1710 1.327 . S
C1711 C1715 1.429 . S
C1712 C1695 1.563 1_554 S
C1712 H1706 0.949 . S
C1712 C1716 1.368 . S
C1713 C1694 1.429 . S
C1713 C1707 1.429 . S
C1713 C1714 1.523 . S
C1714 C1695 1.378 . S
C1714 C1708 1.368 . S
C1714 C1713 1.523 . S
C1715 C1699 1.429 . S
C1715 C1711 1.429 . S
C1715 C1716 1.523 . S
C1716 C1700 1.378 . S
C1716 C1712 1.368 . S
C1716 C1715 1.523 . S
H1717 C1692 0.950 . S
H1718 C1694 0.950 . S
H1719 C1695 0.949 . S
H1720 C1697 0.950 . S
H1721 C1699 0.950 . S
C1722 C1723 1.349 . S
C1722 C1724 1.327 . S
C1722 H1747 0.950 . S
C1723 C1722 1.349 . S
C1723 C1739 1.349 . S
C1724 C1722 1.327 . S
C1724 C1743 1.429 . S
C1724 H1748 0.950 . S
C1725 C1742 1.574 . S
C1725 C1744 1.368 . S
C1725 H1749 0.949 . S
H1726 C1730 0.949 . S
C1727 C1728 1.349 . S
C1727 C1729 1.327 . S
C1727 H1750 0.950 . S
C1728 C1727 1.349 . S
C1728 C1740 1.349 . S
C1729 C1727 1.327 . S
C1729 C1745 1.429 . S
C1729 H1751 0.950 . S
C1730 H1726 0.949 . S
C1730 C1738 1.574 . S
C1730 C1746 1.368 . S
H1731 C1739 0.950 . S
H1732 C1737 0.950 . S
H1733 C1738 0.949 . S
H1734 C1740 0.950 . S
H1735 C1741 0.950 . S
H1736 C1742 0.949 . S
C1737 H1732 0.950 . S
C1737 C1739 1.327 . S
C1737 C1743 1.429 . S
C1738 C1730 1.574 . S
C1738 H1733 0.949 . S
C1738 C1744 1.368 . S
C1739 C1723 1.349 . S
C1739 H1731 0.950 . S
C1739 C1737 1.327 . S
C1740 C1728 1.349 . S
C1740 H1734 0.950 . S
C1740 C1741 1.327 . S
C1741 H1735 0.950 . S
C1741 C1740 1.327 . S
C1741 C1745 1.429 . S
C1742 C1725 1.574 . S
C1742 H1736 0.949 . S
C1742 C1746 1.368 . S
C1743 C1724 1.429 . S
C1743 C1737 1.429 . S
C1743 C1744 1.523 . S
C1744 C1725 1.368 . S
C1744 C1738 1.368 . S
C1744 C1743 1.523 . S
C1745 C1729 1.429 . S
C1745 C1741 1.429 . S
C1745 C1746 1.523 . S
C1746 C1730 1.368 . S
C1746 C1742 1.368 . S
C1746 C1745 1.523 . S
H1747 C1722 0.950 . S
H1748 C1724 0.950 . S
H1749 C1725 0.949 . S
H1750 C1727 0.950 . S
H1751 C1729 0.950 . S
C313 C5 1.438 . S
C318 C200 1.438 . S
C343 C18 1.438 . S
C348 C213 1.438 . S
C373 C224 1.438 . S
C378 C31 1.438 . S
C403 C161 1.438 . S
C408 C44 1.438 . S
C433 C174 1.438 . S
C438 C57 1.438 . S
C463 C187 1.438 . S
C468 C68 1.438 . S
C493 C276 1.438 . S
C498 C83 1.438 . S
C523 C94 1.438 . S
C528 C289 1.438 . S
C553 C302 1.438 . S
C558 C107 1.438 . S
C583 C122 1.438 . S
C588 C237 1.438 . S
C613 C250 1.438 . S
C618 C133 1.438 . S
C643 C148 1.438 . S
C648 C265 1.438 . S
C673 C134 1.494 . S
C678 C10 1.494 . S
C703 C153 1.494 . S
C708 C23 1.494 . S
C733 C36 1.494 . S
C738 C88 1.494 . S
C763 C49 1.494 . S
C768 C95 1.494 . S
C793 C108 1.494 . S
C798 C62 1.494 . S
C823 C69 1.494 . S
C828 C127 1.494 . S
C853 C290 1.494 . S
C858 C166 1.494 . S
C883 C179 1.494 . S
C888 C303 1.494 . S
C913 C192 1.494 . S
C918 C238 1.494 . S
C943 C251 1.494 . S
C948 C205 1.494 . S
C973 C218 1.494 . S
C978 C270 1.494 . S
C1003 C225 1.494 . S
C1008 C277 1.494 . S
C1033 C3 1.562 . S
C1038 C239 1.562 . S
C1063 C252 1.562 . S
C1068 C16 1.562 . S
C1093 C29 1.562 . S
C1098 C263 1.562 . S
C1123 C42 1.562 . S
C1128 C278 1.562 . S
C1153 C291 1.562 . S
C1158 C55 1.562 . S
C1183 C70 1.562 . S
C1188 C304 1.562 . S
C1213 C81 1.562 . S
C1218 C159 1.562 . S
C1243 C96 1.562 . S
C1248 C172 1.562 . S
C1273 C185 1.562 . S
C1278 C109 1.562 . S
C1303 C198 1.562 . S
C1308 C120 1.562 . S
C1333 C135 1.562 . S
C1338 C211 1.562 . S
C1363 C226 1.562 . S
C1368 C146 1.562 . S
C1393 C82 1.487 . S
C1398 C4 1.487 . S
C1423 C17 1.487 . S
C1428 C101 1.487 . S
C1453 C114 1.487 . S
C1458 C30 1.487 . S
C1483 C121 1.487 . S
C1488 C43 1.487 . S
C1513 C140 1.487 . S
C1518 C56 1.487 . S
C1543 C75 1.487 . S
C1548 C147 1.487 . S
C1573 C244 1.487 . S
C1578 C160 1.487 . S
C1603 C173 1.487 . S
C1608 C257 1.487 . S
C1633 C264 1.487 . S
C1638 C186 1.487 . S
C1663 C283 1.487 . S
C1668 C199 1.487 . S
C1693 C212 1.487 . S
C1698 C296 1.487 . S
C1723 C231 1.487 . S
C1728 C309 1.487 . S
