# Generated by pormake.
# Topology loh, (5)-cn, num edge types: 1
# Building blocks:
#     Node 0, Type 0, BuildingBlock: XOMCOT_clean_sbu_0, # of connection points: 5
#     Node 1, Type 0, BuildingBlock: XOMCOT_clean_sbu_0, # of connection points: 5
#     Node 2, Type 0, BuildingBlock: XOMCOT_clean_sbu_0, # of connection points: 5
#     Node 3, Type 0, BuildingBlock: XOMCOT_clean_sbu_0, # of connection points: 5
#     Node 4, Type 0, BuildingBlock: XOMCOT_clean_sbu_0, # of connection points: 5
#     Node 5, Type 0, BuildingBlock: XOMCOT_clean_sbu_0, # of connection points: 5
#     Node 6, Type 0, BuildingBlock: XOMCOT_clean_sbu_0, # of connection points: 5
#     Node 7, Type 0, BuildingBlock: XOMCOT_clean_sbu_0, # of connection points: 5
#     Edge 8, Type (0, 0), BuildingBlock: KIFKEQ_clean_linker_1, # of connection points: 2
#     Edge 9, Type (0, 0), BuildingBlock: KIFKEQ_clean_linker_1, # of connection points: 2
#     Edge 10, Type (0, 0), BuildingBlock: KIFKEQ_clean_linker_1, # of connection points: 2
#     Edge 11, Type (0, 0), BuildingBlock: KIFKEQ_clean_linker_1, # of connection points: 2
#     Edge 12, Type (0, 0), BuildingBlock: KIFKEQ_clean_linker_1, # of connection points: 2
#     Edge 13, Type (0, 0), BuildingBlock: KIFKEQ_clean_linker_1, # of connection points: 2
#     Edge 14, Type (0, 0), BuildingBlock: KIFKEQ_clean_linker_1, # of connection points: 2
#     Edge 15, Type (0, 0), BuildingBlock: KIFKEQ_clean_linker_1, # of connection points: 2
#     Edge 16, Type (0, 0), BuildingBlock: KIFKEQ_clean_linker_1, # of connection points: 2
#     Edge 17, Type (0, 0), BuildingBlock: KIFKEQ_clean_linker_1, # of connection points: 2
#     Edge 18, Type (0, 0), BuildingBlock: KIFKEQ_clean_linker_1, # of connection points: 2
#     Edge 19, Type (0, 0), BuildingBlock: KIFKEQ_clean_linker_1, # of connection points: 2
#     Edge 20, Type (0, 0), BuildingBlock: KIFKEQ_clean_linker_1, # of connection points: 2
#     Edge 21, Type (0, 0), BuildingBlock: KIFKEQ_clean_linker_1, # of connection points: 2
#     Edge 22, Type (0, 0), BuildingBlock: KIFKEQ_clean_linker_1, # of connection points: 2
#     Edge 23, Type (0, 0), BuildingBlock: KIFKEQ_clean_linker_1, # of connection points: 2
#     Edge 24, Type (0, 0), BuildingBlock: KIFKEQ_clean_linker_1, # of connection points: 2
#     Edge 25, Type (0, 0), BuildingBlock: KIFKEQ_clean_linker_1, # of connection points: 2
#     Edge 26, Type (0, 0), BuildingBlock: KIFKEQ_clean_linker_1, # of connection points: 2
#     Edge 27, Type (0, 0), BuildingBlock: KIFKEQ_clean_linker_1, # of connection points: 2
# Relax obj value: 0.188
# Max RMSD: 0.132
# Mean RMSD: 0.132
data_MOF--net-loh--node1-XOMCOT_clean_sbu_0--edge1-KIFKEQ_clean_linker_1
_symmetry_space_group_name_H-M    P1
_symmetry_Int_Tables_number       1
_symmetry_cell_setting            triclinic
loop_
_symmetry_equiv_pos_as_xyz
'x, y, z'
_cell_length_a     26.922138
_cell_length_b     24.311464
_cell_length_c     42.693162
_cell_angle_alpha  90.133649
_cell_angle_beta   89.586544
_cell_angle_gamma 90.195703
loop_
_atom_site_label
_atom_site_type_symbol
_atom_site_fract_x
_atom_site_fract_y
_atom_site_fract_z
_atom_type_partial_charge
Co0 Co 0.05853 0.26785 0.15887 0.0
C1 C 0.06034 0.15961 0.19303 0.0
C2 C 0.08865 0.15435 0.14605 0.0
C3 C 0.08944 0.10284 0.15898 0.0
N4 N 0.07054 0.19032 0.16724 0.0
N5 N 0.07189 0.1057 0.18863 0.0
H6 H 1.0448 0.17624 0.21445 0.0
H7 H 0.09973 0.16415 0.12236 0.0
C8 C 0.11043 0.28906 0.0962 0.0
O9 O 0.07215 0.31789 0.08675 0.0
N10 N 1.0465 0.34514 0.15083 0.0
C11 C 1.00352 0.37267 0.15461 0.0
C12 C 1.0104 0.42594 0.14492 0.0
C13 C 0.07966 0.38315 0.14102 0.0
N14 N 0.0581 0.43224 0.13566 0.0
C15 C 0.955 0.25269 0.14504 0.0
C16 C 0.96515 0.22834 0.08223 0.0
C17 C 0.91764 0.24218 0.09369 0.0
C18 C 0.91283 0.25074 0.12614 0.0
C19 C 1.00617 0.22905 0.10232 0.0
N20 N 1.00157 0.24696 0.13258 0.0
H21 H 0.94994 0.26178 0.16958 0.0
H22 H 1.04158 0.21689 0.09285 0.0
H23 H 0.96902 0.35548 0.16308 0.0
H24 H 0.11827 0.37426 0.13609 0.0
O25 O 1.02438 0.27781 0.19861 0.0
O26 O 0.10485 0.29043 0.19108 0.0
O27 O 0.10908 0.26495 0.12291 0.0
C28 C 0.06648 0.29563 0.20955 0.0
H29 H 0.10103 0.0659 0.14686 0.0
H30 H 0.98135 0.45624 0.14238 0.0
H31 H 0.97151 0.21912 0.05775 0.0
H32 H 0.87694 0.25752 0.13701 0.0
Co33 Co 0.56506 0.78526 0.65423 0.0
C34 C 0.56593 0.8989 0.68313 0.0
C35 C 0.49325 0.86296 0.67964 0.0
C36 C 0.48866 0.91411 0.69301 0.0
N37 N 0.54144 0.85359 0.67279 0.0
N38 N 0.53424 0.93675 0.69525 0.0
H39 H 0.60569 0.90443 0.68199 0.0
H40 H 0.46331 0.83427 0.67516 0.0
C41 C 0.49175 0.82977 0.60684 0.0
O42 O 0.50679 0.88041 0.61204 0.0
N43 N 0.58772 0.71691 0.63635 0.0
C44 C 0.63458 0.69765 0.63676 0.0
C45 C 0.63782 0.65387 0.6164 0.0
C46 C 0.56282 0.68395 0.61654 0.0
N47 N 0.59271 0.64572 0.6036 0.0
C48 C 0.65908 0.83673 0.64117 0.0
C49 C 0.65453 0.82045 0.57717 0.0
C50 C 0.7009 0.83055 0.59066 0.0
C51 C 0.70251 0.84151 0.62293 0.0
C52 C 0.61225 0.81598 0.5961 0.0
N53 N 0.61483 0.82209 0.62794 0.0
H54 H 0.66237 0.8391 0.66632 0.0
H55 H 0.57911 0.801 0.58501 0.0
H56 H 0.66499 0.71632 0.64938 0.0
H57 H 0.5246 0.6901 0.60997 0.0
O58 O 0.60452 0.76988 0.69116 0.0
O59 O 0.52639 0.74423 0.68428 0.0
O60 O 0.51196 0.78943 0.62096 0.0
C61 C 0.56609 0.74229 0.70136 0.0
H62 H 0.4545 0.93274 0.70125 0.0
H63 H 0.67129 0.63166 0.61024 0.0
H64 H 0.65137 0.81214 0.55232 0.0
H65 H 0.73761 0.84901 0.63444 0.0
Co66 Co 0.06767 0.77788 0.88916 0.0
C67 C 0.05979 0.88754 0.85601 0.0
C68 C 0.13418 0.86381 0.8673 0.0
C69 C 0.13625 0.91192 0.85078 0.0
N70 N 0.08639 0.84862 0.87125 0.0
N71 N 0.08963 0.92691 0.84331 0.0
H72 H 1.02011 0.8858 0.85271 0.0
H73 H 0.16584 0.8403 0.87499 0.0
C74 C 0.13726 0.82558 0.93805 0.0
O75 O 0.11437 0.8732 0.93705 0.0
N76 N 1.0502 0.70704 0.90651 0.0
C77 C 1.00578 0.68175 0.9039 0.0
C78 C 1.00322 0.63996 0.92552 0.0
C79 C 0.07433 0.67972 0.92917 0.0
N80 N 1.04619 0.6393 0.94157 0.0
C81 C 0.97276 0.82523 0.90493 0.0
C82 C 0.9789 0.80293 0.96823 0.0
C83 C 0.93226 0.81586 0.95591 0.0
C84 C 0.93002 0.82913 0.92389 0.0
C85 C 1.02051 0.7998 0.94863 0.0
N86 N 1.01729 0.80955 0.91713 0.0
H87 H 0.96876 0.82997 0.87997 0.0
H88 H 1.05383 0.78327 0.95864 0.0
H89 H 0.97575 0.69553 0.88921 0.0
H90 H 0.1096 0.69235 0.93869 0.0
O91 O 1.02701 0.76068 0.85301 0.0
O92 O 0.10706 0.74162 0.85745 0.0
O93 O 0.12234 0.7855 0.92113 0.0
C94 C 0.06651 0.73724 0.84132 0.0
H95 H 0.16991 0.93365 0.84429 0.0
H96 H 0.97101 0.6146 0.93048 0.0
H97 H 0.9829 0.79064 0.99244 0.0
H98 H 0.89507 0.83974 0.91312 0.0
Co99 Co 0.56102 0.25723 0.38442 0.0
C100 C 0.54693 0.14996 0.34972 0.0
C101 C 0.56675 0.13796 0.39769 0.0
C102 C 0.56145 0.08737 0.38393 0.0
N103 N 0.55697 0.17778 0.37662 0.0
N104 N 0.54911 0.09467 0.35379 0.0
H105 H 0.53881 0.16937 0.32758 0.0
H106 H 0.58033 0.14438 0.42103 0.0
C107 C 0.50104 0.22986 0.44435 0.0
O108 O 0.53716 0.20092 0.45636 0.0
N109 N 0.56548 0.33573 0.39201 0.0
C110 C 0.60374 0.3684 0.38341 0.0
C111 C 0.59782 0.41895 0.39723 0.0
C112 C 0.53648 0.36715 0.41066 0.0
N113 N 0.55593 0.4179 0.41475 0.0
C114 C 0.65681 0.22071 0.40412 0.0
C115 C 0.65702 0.27422 0.46137 0.0
C116 C 0.70035 0.24731 0.45143 0.0
C117 C 0.6997 0.21989 0.42245 0.0
C118 C 0.61508 0.27422 0.4423 0.0
N119 N 0.61492 0.24706 0.41421 0.0
H120 H 0.65749 0.20122 0.38133 0.0
H121 H 0.58309 0.29742 0.44991 0.0
H122 H 0.63577 0.35529 0.36996 0.0
H123 H 0.50386 0.35221 0.42286 0.0
O124 O 0.60089 0.26766 0.34691 0.0
O125 O 0.51891 0.27325 0.34914 0.0
O126 O 0.50581 0.25185 0.41725 0.0
C127 C 0.5597 0.28124 0.33313 0.0
H128 H 0.5688 0.04807 0.39482 0.0
H129 H 0.62489 0.45197 0.39689 0.0
H130 H 0.65604 0.29706 0.48318 0.0
H131 H 0.73226 0.19854 0.41378 0.0
Co132 Co 0.56674 0.75696 0.15002 0.0
C133 C 0.57894 0.64888 0.1837 0.0
C134 C 0.55177 0.63823 0.13706 0.0
C135 C 0.55555 0.5874 0.15061 0.0
N136 N 0.5672 0.67729 0.15739 0.0
N137 N 0.57246 0.59388 0.17992 0.0
H138 H 0.59135 0.66773 0.20526 0.0
H139 H 0.53627 0.64557 0.11424 0.0
C140 C 0.63372 0.72322 0.09415 0.0
O141 O 0.60154 0.68719 0.08366 0.0
N142 N 0.56516 0.83577 0.14274 0.0
C143 C 0.5281 0.8699 0.15151 0.0
C144 C 0.5327 0.91826 0.13521 0.0
C145 C 0.59232 0.86457 0.12175 0.0
N146 N 0.57262 0.91435 0.11613 0.0
C147 C 0.4698 0.73049 0.12745 0.0
C148 C 0.48106 0.77733 0.06886 0.0
C149 C 0.43364 0.7597 0.07833 0.0
C150 C 0.42857 0.73483 0.10782 0.0
C151 C 0.5213 0.77197 0.0891 0.0
N152 N 0.51546 0.74923 0.11816 0.0
H153 H 0.46478 0.71375 0.1507 0.0
H154 H 0.55658 0.78869 0.08174 0.0
H155 H 0.49687 0.85874 0.16624 0.0
H156 H 0.62164 0.84724 0.10755 0.0
O157 O 0.52412 0.76794 0.18626 0.0
O158 O 0.60622 0.77114 0.18682 0.0
O159 O 0.6245 0.75075 0.1191 0.0
C160 C 0.56443 0.78001 0.20154 0.0
H161 H 0.54438 0.54865 0.14021 0.0
H162 H 0.50583 0.95128 0.13491 0.0
H163 H 0.48694 0.79635 0.04622 0.0
H164 H 0.39262 0.72114 0.11633 0.0
Co165 Co 0.05692 0.27264 0.64838 0.0
C166 C 0.06228 0.37769 0.68553 0.0
C167 C 1.03463 0.38974 0.63906 0.0
C168 C 1.03685 0.43992 0.65371 0.0
N169 N 1.05106 0.35046 0.65872 0.0
N170 N 1.05409 0.43241 0.68286 0.0
H171 H 0.07659 0.35836 0.70638 0.0
H172 H 1.0215 0.383 0.61554 0.0
C173 C 1.01008 0.262 0.58466 0.0
O174 O 1.04842 0.23232 0.57576 0.0
N175 N 0.06064 0.19479 0.63822 0.0
C176 C 0.09971 0.16032 0.63708 0.0
C177 C 0.08424 0.11105 0.62446 0.0
C178 C 1.02159 0.16452 0.62856 0.0
N179 N 1.03521 0.11427 0.61831 0.0
C180 C 0.16121 0.27296 0.63336 0.0
C181 C 0.15592 0.32105 0.57505 0.0
C182 C 0.20124 0.29807 0.58434 0.0
C183 C 0.20382 0.27573 0.61453 0.0
C184 C 0.11414 0.31747 0.59479 0.0
N185 N 0.11602 0.28945 0.62254 0.0
H186 H 0.16455 0.25506 0.65632 0.0
H187 H 0.0802 0.33596 0.58694 0.0
H188 H 0.13732 0.17008 0.64347 0.0
H189 H 0.98442 0.18084 0.62657 0.0
O190 O 0.08974 0.25752 0.6875 0.0
O191 O 1.00856 0.25279 0.68058 0.0
O192 O 1.00878 0.28297 0.61226 0.0
C193 C 1.0464 0.24411 0.69876 0.0
H194 H 1.02571 0.47899 0.64391 0.0
H195 H 0.10836 0.07756 0.61751 0.0
H196 H 0.15253 0.34117 0.55257 0.0
H197 H 0.23798 0.25831 0.62324 0.0
Co198 Co 0.56171 0.27927 0.89217 0.0
C199 C 0.58305 0.38443 0.85772 0.0
C200 C 0.55089 0.39952 0.9029 0.0
C201 C 0.55858 0.44913 0.88849 0.0
N202 N 0.56685 0.35842 0.88399 0.0
N203 N 0.57861 0.43978 0.86007 0.0
H204 H 0.59685 0.36361 0.83702 0.0
H205 H 0.53227 0.39456 0.92516 0.0
C206 C 0.62506 0.31361 0.94877 0.0
O207 O 0.59329 0.35154 0.95735 0.0
N208 N 0.55579 0.20144 0.89987 0.0
C209 C 0.51438 0.17094 0.89639 0.0
C210 C 0.52255 0.11991 0.90907 0.0
C211 C 0.58888 0.1684 0.91377 0.0
N212 N 0.56925 0.11861 0.92042 0.0
C213 C 0.4651 0.31372 0.91239 0.0
C214 C 0.46855 0.26896 0.97182 0.0
C215 C 0.42377 0.29231 0.9617 0.0
C216 C 0.42283 0.31557 0.93161 0.0
C217 C 0.51015 0.26826 0.95189 0.0
N218 N 0.50826 0.29088 0.92264 0.0
H219 H 0.46309 0.33008 0.8889 0.0
H220 H 0.54318 0.24719 0.9595 0.0
H221 H 0.47956 0.18607 0.8874 0.0
H222 H 0.62559 0.18142 0.9204 0.0
O223 O 0.52179 0.26882 0.85504 0.0
O224 O 0.6037 0.26214 0.85647 0.0
O225 O 0.61675 0.28355 0.92471 0.0
C226 C 0.56289 0.25535 0.84069 0.0
H227 H 0.54753 0.48897 0.8975 0.0
H228 H 0.49462 0.0883 0.91236 0.0
H229 H 0.47099 0.24923 0.99447 0.0
H230 H 0.3895 0.3346 0.92271 0.0
Co231 Co 0.06335 0.76951 0.39671 0.0
C232 C 0.06982 0.66376 0.35992 0.0
C233 C 1.04245 0.65205 0.40676 0.0
C234 C 1.04599 0.60151 0.39254 0.0
N235 N 0.05786 0.69138 0.3866 0.0
N236 N 0.06309 0.60875 0.36316 0.0
H237 H 0.08384 0.68301 0.33881 0.0
H238 H 1.02938 0.65905 0.43038 0.0
C239 C 1.01439 0.78225 0.46018 0.0
O240 O 1.053 0.81163 0.46891 0.0
N241 N 0.06706 0.84749 0.40658 0.0
C242 C 0.10648 0.8816 0.40856 0.0
C243 C 0.09074 0.93094 0.42094 0.0
C244 C 1.02773 0.87802 0.41553 0.0
N245 N 1.04126 0.92811 0.42614 0.0
C246 C 0.16737 0.76879 0.4113 0.0
C247 C 0.16 0.7271 0.47118 0.0
C248 C 0.20547 0.74951 0.4612 0.0
C249 C 0.20941 0.76797 0.43027 0.0
C250 C 0.11902 0.72781 0.45111 0.0
N251 N 0.12176 0.75342 0.42263 0.0
H252 H 0.17138 0.78504 0.38795 0.0
H253 H 0.08485 0.70973 0.45938 0.0
H254 H 0.14442 0.8714 0.40301 0.0
H255 H 0.99029 0.86186 0.41691 0.0
O256 O 0.09734 0.78455 0.35768 0.0
O257 O 1.016 0.78887 0.36434 0.0
O258 O 1.01384 0.75988 0.43288 0.0
C259 C 1.05445 0.79816 0.34636 0.0
H260 H 1.03599 0.56231 0.40284 0.0
H261 H 0.1148 0.96414 0.42844 0.0
H262 H 0.15591 0.71005 0.49447 0.0
H263 H 0.24408 0.78445 0.42123 0.0
H264 H 0.3273 0.27568 0.94323 0.0
H265 H 0.41572 0.30397 0.02581 0.0
H266 H 0.25246 0.27331 0.97548 0.0
H267 H 0.34058 0.30082 0.05816 0.0
H268 H 0.19918 0.23825 0.10884 0.0
H269 H 0.27476 0.23783 0.07672 0.0
H270 H 0.20088 0.33521 1.00672 0.0
H271 H 0.12547 0.33526 0.03851 0.0
C272 C 0.33088 0.28199 0.96822 0.0
C273 C 0.37786 0.2905 0.98175 0.0
C274 C 0.2878 0.28044 0.98678 0.0
C275 C 0.29031 0.28703 1.01947 0.0
C276 C 0.33725 0.29491 0.03311 0.0
C277 C 0.38042 0.29673 1.01451 0.0
C278 C 0.19896 0.25931 0.08651 0.0
C279 C 0.15601 0.28656 0.07626 0.0
C280 C 0.24246 0.2594 0.06819 0.0
C281 C 0.24403 0.28646 0.03907 0.0
C282 C 0.20092 0.31331 0.02878 0.0
C283 C 0.1576 0.31345 0.04712 0.0
H284 H 0.41624 0.89818 0.58946 0.0
H285 H 0.47558 0.73578 0.57324 0.0
H286 H 0.34687 0.87704 0.5545 0.0
H287 H 0.40656 0.71474 0.5385 0.0
H288 H 0.30383 0.72567 0.45132 0.0
H289 H 0.37372 0.74568 0.48596 0.0
H290 H 0.27227 0.81179 0.55505 0.0
H291 H 0.20241 0.79173 0.52044 0.0
C292 C 0.41465 0.85815 0.57832 0.0
C293 C 0.45121 0.81852 0.58434 0.0
C294 C 0.37476 0.84588 0.55852 0.0
C295 C 0.37111 0.79409 0.54389 0.0
C296 C 0.40836 0.75502 0.54934 0.0
C297 C 0.44774 0.76697 0.56946 0.0
C298 C 0.29648 0.74415 0.47399 0.0
C299 C 0.24761 0.75693 0.4832 0.0
C300 C 0.33644 0.75547 0.49385 0.0
C301 C 0.32851 0.78065 0.52314 0.0
C302 C 0.2796 0.7929 0.53248 0.0
C303 C 0.23957 0.78081 0.51283 0.0
H304 H 0.35489 0.69054 0.06712 0.0
H305 H 0.41207 0.85185 0.04426 0.0
H306 H 0.28231 0.70766 0.03465 0.0
H307 H 0.34029 0.86829 1.01108 0.0
H308 H 0.17975 0.89918 0.97906 0.0
H309 H 0.25025 0.88367 1.01375 0.0
H310 H 0.26248 0.71707 0.97933 0.0
H311 H 0.19238 0.73224 0.945 0.0
C312 C 0.35198 0.72966 0.0552 0.0
C313 C 0.38952 0.76964 0.0582 0.0
C314 C 0.31056 0.73932 0.03636 0.0
C315 C 0.30546 0.78934 1.02016 0.0
C316 C 0.34276 0.82953 0.02341 0.0
C317 C 0.38428 0.81977 0.04212 0.0
C318 C 0.19745 0.85924 0.97894 0.0
C319 C 0.18007 0.81696 0.95929 0.0
C320 C 0.23801 0.85041 0.99873 0.0
C321 C 0.26198 0.79902 0.99943 0.0
C322 C 0.24448 0.75684 0.9798 0.0
C323 C 0.20424 0.76571 0.95998 0.0
H324 H 0.48243 0.19781 0.50469 0.0
H325 H 0.41743 0.28788 0.42817 0.0
H326 H 0.41035 0.21837 0.53726 0.0
H327 H 0.34515 0.30887 0.46109 0.0
H328 H 0.20155 0.27735 0.52104 0.0
H329 H 0.27308 0.26343 0.4865 0.0
H330 H 0.37158 0.2969 0.56363 0.0
H331 H 0.30026 0.31142 0.59807 0.0
C332 C 0.45277 0.22198 0.49473 0.0
C333 C 0.4559 0.24107 0.46369 0.0
C334 C 0.4115 0.23417 0.51357 0.0
C335 C 0.372 0.26564 0.50193 0.0
C336 C 0.37474 0.28425 0.47076 0.0
C337 C 0.41627 0.2723 0.45191 0.0
C338 C 0.23842 0.28282 0.53054 0.0
C339 C 0.24491 0.29512 0.56252 0.0
C340 C 0.27951 0.27466 0.51071 0.0
C341 C 0.32817 0.27838 0.52233 0.0
C342 C 0.33466 0.29251 0.55402 0.0
C343 C 0.29366 0.30087 0.5738 0.0
H344 H 0.66712 0.67211 0.04069 0.0
H345 H 0.70189 0.8061 0.10348 0.0
H346 H 0.7376 0.69722 1.0077 0.0
H347 H 0.77037 0.83346 0.06955 0.0
H348 H 0.92023 0.83665 1.01908 0.0
H349 H 0.84995 0.81335 0.0524 0.0
H350 H 0.7678 0.75997 0.97114 0.0
H351 H 0.83961 0.77905 0.93816 0.0
C352 C 0.68957 0.7072 0.04741 0.0
C353 C 0.67836 0.73716 0.07477 0.0
C354 C 0.72986 0.72212 0.0282 0.0
C355 C 0.7599 0.76793 0.03553 0.0
C356 C 0.74882 0.79757 0.0631 0.0
C357 C 0.709 0.78211 0.08255 0.0
C358 C 0.88736 0.81959 1.00823 0.0
C359 C 0.88629 0.80938 0.97574 0.0
C360 C 0.8465 0.80682 0.02743 0.0
C361 C 0.8028 0.78414 1.01476 0.0
C362 C 0.80096 0.77612 0.98207 0.0
C363 C 0.84209 0.78822 0.96292 0.0
H364 H 1.00015 0.22022 0.52556 0.0
H365 H 0.92032 0.31129 0.59676 0.0
H366 H 0.92591 0.21715 0.49357 0.0
H367 H 0.84616 0.30969 0.5642 0.0
H368 H 0.70896 0.23833 0.51519 0.0
H369 H 0.78404 0.24541 0.54657 0.0
H370 H 0.87105 0.2711 0.4624 0.0
H371 H 0.79603 0.26349 0.43106 0.0
C372 C 0.96698 0.24048 0.5342 0.0
C373 C 0.96627 0.26589 0.56384 0.0
C374 C 0.92431 0.23884 0.51574 0.0
C375 C 0.8798 0.26296 0.52628 0.0
C376 C 0.8795 0.28984 0.55554 0.0
C377 C 0.9222 0.29126 0.5741 0.0
C378 C 0.74409 0.24572 0.50339 0.0
C379 C 0.74641 0.25013 0.47057 0.0
C380 C 0.78719 0.25001 0.52141 0.0
C381 C 0.83375 0.25902 0.50709 0.0
C382 C 0.83602 0.26335 0.47424 0.0
C383 C 0.79296 0.25888 0.45623 0.0
H384 H 0.83633 0.30954 0.10213 0.0
H385 H 0.89934 0.19429 0.03561 0.0
H386 H 0.76685 0.32376 0.06803 0.0
H387 H 0.83255 0.21378 0.99974 0.0
H388 H 0.68386 0.22142 0.95078 0.0
H389 H 0.75193 0.2022 0.98584 0.0
H390 H 0.7387 0.36615 0.02467 0.0
H391 H 0.66766 0.38296 0.99139 0.0
C392 C 0.83566 0.28684 0.08032 0.0
C393 C 0.87414 0.25014 0.0722 0.0
C394 C 0.79588 0.29625 0.06015 0.0
C395 C 0.79359 0.27066 0.03057 0.0
C396 C 0.83205 0.234 0.02233 0.0
C397 C 0.8713 0.22347 0.04291 0.0
C398 C 0.69509 0.25313 0.96699 0.0
C399 C 0.66947 0.30335 0.96853 0.0
C400 C 0.73489 0.24239 0.98703 0.0
C401 C 0.75138 0.28228 1.00865 0.0
C402 C 0.72665 0.33338 1.00928 0.0
C403 C 0.68597 0.34343 0.98984 0.0
H404 H 0.78548 0.8947 0.58972 0.0
H405 H 0.72167 0.74788 0.54939 0.0
H406 H 0.8611 0.88045 0.55865 0.0
H407 H 0.79713 0.73279 0.51906 0.0
H408 H 0.91915 0.75306 0.44453 0.0
H409 H 0.84392 0.76535 0.47589 0.0
H410 H 0.93239 0.82399 0.55325 0.0
H411 H 1.00722 0.81322 0.52156 0.0
C412 C 0.78769 0.8593 0.57433 0.0
C413 C 0.74724 0.82294 0.57175 0.0
C414 C 0.83115 0.85086 0.5566 0.0
C415 C 0.83547 0.80542 0.53615 0.0
C416 C 0.79504 0.76886 0.53393 0.0
C417 C 0.75161 0.77755 0.55139 0.0
C418 C 0.92258 0.76774 0.46839 0.0
C419 C 0.9693 0.78198 0.4805 0.0
C420 C 0.87936 0.77489 0.48646 0.0
C421 C 0.88174 0.79609 0.51719 0.0
C422 C 0.92875 0.80864 0.52955 0.0
C423 C 0.97186 0.80179 0.51145 0.0
H424 H 0.14766 0.33173 0.24247 0.0
H425 H 0.98849 0.3495 0.23639 0.0
H426 H 0.15058 0.40876 0.27975 0.0
H427 H 0.9918 0.42709 0.27273 0.0
H428 H 1.03236 0.60668 0.30296 0.0
H429 H 1.03447 0.52711 0.26722 0.0
H430 H 0.11235 0.43311 0.33686 0.0
H431 H 0.10894 0.51208 0.3727 0.0
C432 C 0.11326 0.35126 0.24955 0.0
C433 C 0.06781 0.33399 0.23669 0.0
C434 C 0.11498 0.39558 0.27069 0.0
C435 C 0.07149 0.42441 0.27872 0.0
C436 C 1.02596 0.40608 0.26664 0.0
C437 C 1.02406 0.36107 0.24615 0.0
C438 C 1.05058 0.56927 0.3103 0.0
C439 C 0.07053 0.56541 0.34049 0.0
C440 C 1.05143 0.52367 0.29006 0.0
C441 C 0.07331 0.47382 0.29939 0.0
C442 C 0.09531 0.47093 0.32904 0.0
C443 C 0.09337 0.51601 0.34951 0.0
H444 H 0.64469 0.72455 0.7408 0.0
H445 H 0.49606 0.66827 0.72017 0.0
H446 H 0.65359 0.64953 0.77867 0.0
H447 H 0.50527 0.59353 0.75749 0.0
H448 H 0.55821 0.43137 0.79825 0.0
H449 H 0.55812 0.50671 0.76015 0.0
H450 H 0.61471 0.61751 0.83065 0.0
H451 H 0.61461 0.5422 0.8686 0.0
C452 C 0.61373 0.69676 0.74465 0.0
C453 C 0.56964 0.70253 0.72752 0.0
C454 C 0.61892 0.65368 0.76619 0.0
C455 C 0.58042 0.61513 0.77062 0.0
C456 C 0.53594 0.62193 0.75412 0.0
C457 C 0.5305 0.66523 0.733 0.0
C458 C 0.57166 0.47151 0.80531 0.0
C459 C 0.58625 0.48108 0.83635 0.0
C460 C 0.57112 0.51475 0.78368 0.0
C461 C 0.5859 0.56815 0.79256 0.0
C462 C 0.60319 0.57687 0.82311 0.0
C463 C 0.603 0.53388 0.84483 0.0
H464 H 0.09445 0.53232 0.67338 0.0
H465 H 1.0267 0.42951 0.74394 0.0
H466 H 0.09756 0.6091 0.71057 0.0
H467 H 1.02881 0.50685 0.78122 0.0
H468 H 0.98558 0.68079 0.82027 0.0
H469 H 0.98471 0.60524 0.78217 0.0
H470 H 0.14119 0.62987 0.76447 0.0
H471 H 0.1424 0.70455 0.80307 0.0
C472 C 0.08057 0.52621 0.69699 0.0
C473 C 0.06047 0.47512 0.70591 0.0
C474 C 0.08235 0.57001 0.71822 0.0
C475 C 0.06303 0.56401 0.74865 0.0
C476 C 1.04354 0.51265 0.75778 0.0
C477 C 1.04279 0.46835 0.73667 0.0
C478 C 1.01955 0.67079 0.80779 0.0
C479 C 0.064 0.69883 0.81445 0.0
C480 C 1.01917 0.62711 0.78633 0.0
C481 C 0.06299 0.61142 0.77065 0.0
C482 C 0.10691 0.64111 0.77626 0.0
C483 C 0.10754 0.68395 0.79821 0.0
H484 H 0.6379 0.30461 0.2938 0.0
H485 H 0.48444 0.34588 0.31183 0.0
H486 H 0.64425 0.38126 0.25685 0.0
H487 H 0.49114 0.42276 0.27536 0.0
H488 H 0.54254 0.5943 0.2407 0.0
H489 H 0.53927 0.51466 0.27606 0.0
H490 H 0.60859 0.41425 0.20473 0.0
H491 H 0.61124 0.49356 0.16953 0.0
C492 C 0.6052 0.32914 0.28934 0.0
C493 C 0.56057 0.31871 0.30565 0.0
C494 C 0.60896 0.37332 0.26835 0.0
C495 C 0.56844 0.40867 0.26361 0.0
C496 C 0.52327 0.39687 0.27892 0.0
C497 C 0.51925 0.3522 0.29947 0.0
C498 C 0.55786 0.55544 0.23292 0.0
C499 C 0.57721 0.55006 0.20244 0.0
C500 C 0.55547 0.50972 0.25293 0.0
C501 C 0.57324 0.45798 0.24304 0.0
C502 C 0.59465 0.45342 0.21306 0.0
C503 C 0.59616 0.49877 0.19292 0.0
H504 H 0.64021 0.84034 0.22657 0.0
H505 H 0.48329 0.8074 0.23738 0.0
H506 H 0.63305 0.91788 0.26271 0.0
H507 H 0.47638 0.88478 0.27391 0.0
H508 H 0.50314 0.9973 0.36201 0.0
H509 H 0.50621 0.91729 0.32719 0.0
H510 H 0.59064 1.01191 0.25981 0.0
H511 H 0.58709 0.09225 0.29482 0.0
C512 C 0.60442 0.84862 0.23729 0.0
C513 C 0.56235 0.81733 0.22914 0.0
C514 C 0.6002 0.89368 0.25763 0.0
C515 C 0.55399 0.9081 0.27073 0.0
C516 C 0.51249 0.87482 0.26413 0.0
C517 C 0.51654 0.8302 0.24339 0.0
C518 C 0.52167 1.00113 0.33952 0.0
C519 C 0.54479 0.05095 0.33105 0.0
C520 C 0.52343 0.95537 0.3196 0.0
C521 C 0.54915 0.95801 0.29091 0.0
C522 C 0.57107 1.00839 0.28198 0.0
C523 C 0.56854 0.05456 0.30175 0.0
H524 H 1.00294 0.98537 0.84336 0.0
H525 H 0.14671 0.97406 0.79836 0.0
H526 H 0.98538 0.0688 0.81271 0.0
H527 H 0.12982 0.05651 0.76882 0.0
H528 H 0.11626 0.23061 0.74373 0.0
H529 H 0.12092 0.15613 0.78161 0.0
H530 H 0.97463 0.10086 0.75505 0.0
H531 H 0.96969 0.17622 0.71709 0.0
C532 C 1.03062 1.00037 0.82694 0.0
C533 C 0.07669 0.97349 0.82391 0.0
C534 C 1.02066 0.0482 0.8095 0.0
C535 C 0.05675 0.07013 0.78893 0.0
C536 C 0.10182 0.04191 0.78519 0.0
C537 C 0.11153 0.9944 0.80225 0.0
C538 C 0.08444 0.20362 0.74654 0.0
C539 C 1.0428 0.20916 0.72719 0.0
C540 C 0.08726 0.16061 0.7681 0.0
C541 C 1.04861 0.12178 0.77084 0.0
C542 C 1.00505 0.13002 0.75348 0.0
C543 C 1.00218 0.17335 0.73181 0.0
H544 H 0.61112 0.9623 0.73341 0.0
H545 H 0.48154 0.03004 0.68945 0.0
H546 H 0.62144 0.04715 0.76367 0.0
H547 H 0.49251 0.11561 0.71843 0.0
H548 H 0.48185 0.21825 0.80889 0.0
H549 H 0.47941 0.1461 0.76962 0.0
H550 H 0.63991 0.14237 0.76725 0.0
H551 H 0.64211 0.21362 0.80765 0.0
C552 C 0.58566 0.99597 0.72965 0.0
C553 C 0.54522 0.98937 0.70938 0.0
C554 C 0.59151 0.0448 0.74691 0.0
C555 C 0.55738 0.08843 0.74397 0.0
C556 C 0.51878 0.08267 0.72212 0.0
C557 C 0.51259 0.03372 0.7053 0.0
C558 C 0.51669 0.2031 0.79947 0.0
C559 C 0.56215 0.22177 0.81155 0.0
C560 C 0.51536 0.16149 0.77678 0.0
C561 C 0.5595 0.13757 0.76525 0.0
C562 C 0.6051 0.15879 0.77594 0.0
C563 C 0.6064 0.20027 0.79885 0.0
H564 H 0.11734 1.00604 0.18467 0.0
H565 H 1.01517 0.09976 0.24209 0.0
H566 H 0.10732 0.92802 0.21881 0.0
H567 H 1.00762 1.02171 0.27781 0.0
H568 H 0.97448 0.85643 0.32447 0.0
H569 H 0.97594 0.92963 0.28517 0.0
H570 H 0.13177 0.89838 0.2682 0.0
H571 H 0.12969 0.82467 0.30628 0.0
C572 C 0.0925 1.01033 0.2045 0.0
C573 C 0.06679 0.05982 0.21019 0.0
C574 C 0.08729 0.96531 0.22452 0.0
C575 C 0.05683 0.96818 0.25133 0.0
C576 C 1.03097 1.01754 0.2572 0.0
C577 C 1.03585 0.06276 0.23688 0.0
C578 C 1.00862 0.86424 0.31164 0.0
C579 C 1.05187 0.83431 0.3184 0.0
C580 C 1.00971 0.90688 0.28947 0.0
C581 C 1.05407 0.92056 0.27353 0.0
C582 C 0.09667 0.88892 0.27952 0.0
C583 C 0.09552 0.84639 0.30149 0.0
H584 H 0.13501 0.60665 0.96395 0.0
H585 H 0.97836 0.61335 0.98602 0.0
H586 H 0.1512 0.56748 1.01574 0.0
H587 H 0.9942 0.57358 0.03709 0.0
H588 H 1.0295 0.53863 0.13361 0.0
H589 H 1.03556 0.59756 0.08752 0.0
H590 H 0.1307 0.47822 0.04238 0.0
H591 H 0.12493 0.41977 0.08817 0.0
C592 C 0.10414 0.59954 0.97983 0.0
C593 C 1.05539 0.61242 0.97087 0.0
C594 C 0.11339 0.57735 1.00939 0.0
C595 C 0.07407 0.56837 0.03056 0.0
C596 C 1.0254 0.58119 0.02151 0.0
C597 C 1.01616 0.60288 0.99199 0.0
C598 C 1.05286 0.52583 0.1142 0.0
C599 C 0.07528 0.47377 0.11416 0.0
C600 C 0.05622 0.5594 0.08783 0.0
C601 C 0.08229 0.54151 0.06109 0.0
C602 C 0.11008 0.49289 0.0626 0.0
C603 C 0.10674 0.45933 0.08899 0.0
H604 H 0.65385 0.62269 0.55513 0.0
H605 H 0.50523 0.596 0.59073 0.0
H606 H 0.63313 0.57233 0.50763 0.0
H607 H 0.48419 0.54545 0.54273 0.0
H608 H 0.51345 0.39489 0.47118 0.0
H609 H 0.5141 0.45445 0.51706 0.0
H610 H 0.57498 0.58651 0.46117 0.0
H611 H 0.57364 0.52718 0.41496 0.0
C612 C 0.61692 0.60544 0.55293 0.0
C613 C 0.58126 0.6127 0.57668 0.0
C614 C 0.60479 0.57747 0.52554 0.0
C615 C 0.55686 0.5558 0.52142 0.0
C616 C 0.52131 0.5621 0.54536 0.0
C617 C 0.53332 0.59082 0.5727 0.0
C618 C 0.52521 0.43718 0.4683 0.0
C619 C 0.54444 0.45611 0.43951 0.0
C620 C 0.52572 0.47122 0.49468 0.0
C621 C 0.54559 0.52451 0.49267 0.0
C622 C 0.56041 0.54509 0.46336 0.0
C623 C 0.55963 0.51124 0.43698 0.0
H624 H 0.63471 0.13864 0.96744 0.0
H625 H 0.54399 1.01125 0.92581 0.0
H626 H 0.64591 0.08212 1.01357 0.0
H627 H 0.55429 0.95534 0.97274 0.0
H628 H 0.50173 0.95041 0.07738 0.0
H629 H 0.51387 0.99095 0.02587 0.0
H630 H 0.67289 0.98373 0.03759 0.0
H631 H 0.66052 0.9421 0.08966 0.0
C632 C 0.61864 0.09786 0.96747 0.0
C633 C 0.58724 0.08005 0.94318 0.0
C634 C 0.6251 0.06552 0.99406 0.0
C635 C 0.60008 1.01517 0.99678 0.0
C636 C 0.57328 0.99462 0.9712 0.0
C637 C 0.56722 0.02668 0.94449 0.0
C638 C 0.53925 0.95839 0.06926 0.0
C639 C 0.58026 0.94427 0.08762 0.0
C640 C 0.54621 0.98049 0.03958 0.0
C641 C 0.59428 0.98941 0.02774 0.0
C642 C 0.63551 0.97666 0.04627 0.0
C643 C 0.62849 0.95347 0.07594 0.0
H644 H 1.05462 0.03594 0.43982 0.0
H645 H 0.96747 0.89326 0.46534 0.0
H646 H 1.02968 0.08047 0.48884 0.0
H647 H 0.9447 0.93671 0.51466 0.0
H648 H 0.96534 0.14989 0.57745 0.0
H649 H 0.94565 0.10631 0.52778 0.0
H650 H 1.02578 0.96149 0.55583 0.0
H651 H 1.04764 1.00609 0.60528 0.0
C652 C 1.02916 1.01469 0.4554 0.0
C653 C 1.01462 0.96027 0.44913 0.0
C654 C 1.01471 0.04019 0.48333 0.0
C655 C 0.98601 1.01136 0.50549 0.0
C656 C 0.96711 0.95942 0.4979 0.0
C657 C 0.98047 0.93456 0.46962 0.0
C658 C 0.97778 0.10829 0.57359 0.0
C659 C 1.00979 0.08224 0.59488 0.0
C660 C 0.9662 0.08337 0.54511 0.0
C661 C 0.98476 0.03111 0.53806 0.0
C662 C 1.0111 1.00202 0.56092 0.0
C663 C 1.0238 0.02755 0.58909 0.0
loop_
_geom_bond_atom_site_label_1
_geom_bond_atom_site_label_2
_geom_bond_distance
_geom_bond_site_symmetry_2
_ccdc_geom_bond_type
Co0 N4 2.148 . S
Co0 N10 2.128 . S
Co0 N20 2.194 1_455 S
Co0 O25 2.351 1_455 S
Co0 O26 2.155 . S
Co0 O27 2.096 . S
C1 N4 1.301 . S
C1 N5 1.328 . S
C1 H6 0.930 1_455 S
C2 C3 1.333 . S
C2 N4 1.317 . S
C2 H7 0.930 . S
C3 C2 1.333 . S
C3 N5 1.350 . S
C3 H29 0.931 . S
N4 Co0 2.148 . S
N4 C1 1.301 . S
N4 C2 1.317 . S
N5 C1 1.328 . S
N5 C3 1.350 . S
H6 C1 0.930 1_655 S
H7 C2 0.930 . S
C8 O9 1.224 . S
C8 O27 1.247 . S
O9 C8 1.224 . S
N10 Co0 2.128 . S
N10 C11 1.355 1_455 S
N10 C13 1.311 . S
C11 N10 1.355 1_655 S
C11 C12 1.363 . S
C11 H23 0.929 . S
C12 C11 1.363 . S
C12 N14 1.375 1_655 S
C12 H30 0.931 . S
C13 N10 1.311 . S
C13 N14 1.347 . S
C13 H24 0.929 . S
N14 C12 1.375 1_455 S
N14 C13 1.347 . S
C15 C18 1.365 . S
C15 N20 1.328 . S
C15 H21 0.929 . S
C16 C17 1.362 . S
C16 C19 1.378 . S
C16 H31 0.929 . S
C17 C16 1.362 . S
C17 C18 1.366 . S
C18 C15 1.365 . S
C18 C17 1.366 . S
C18 H32 0.930 . S
C19 C16 1.378 . S
C19 N20 1.315 . S
C19 H22 0.930 . S
N20 Co0 2.194 1_655 S
N20 C15 1.328 . S
N20 C19 1.315 . S
H21 C15 0.929 . S
H22 C19 0.930 . S
H23 C11 0.929 . S
H24 C13 0.929 . S
O25 Co0 2.351 1_655 S
O25 C28 1.244 1_655 S
O26 Co0 2.155 . S
O26 C28 1.240 . S
O27 Co0 2.096 . S
O27 C8 1.247 . S
C28 O25 1.244 1_455 S
C28 O26 1.240 . S
H29 C3 0.931 . S
H30 C12 0.931 . S
H31 C16 0.929 . S
H32 C18 0.930 . S
Co33 N37 2.148 . S
Co33 N43 2.128 . S
Co33 N53 2.194 . S
Co33 O58 2.351 . S
Co33 O59 2.155 . S
Co33 O60 2.096 . S
C34 N37 1.301 . S
C34 N38 1.328 . S
C34 H39 0.930 . S
C35 C36 1.333 . S
C35 N37 1.317 . S
C35 H40 0.930 . S
C36 C35 1.333 . S
C36 N38 1.350 . S
C36 H62 0.931 . S
N37 Co33 2.148 . S
N37 C34 1.301 . S
N37 C35 1.317 . S
N38 C34 1.328 . S
N38 C36 1.350 . S
H39 C34 0.930 . S
H40 C35 0.930 . S
C41 O42 1.224 . S
C41 O60 1.247 . S
O42 C41 1.224 . S
N43 Co33 2.128 . S
N43 C44 1.355 . S
N43 C46 1.311 . S
C44 N43 1.355 . S
C44 C45 1.363 . S
C44 H56 0.929 . S
C45 C44 1.363 . S
C45 N47 1.375 . S
C45 H63 0.931 . S
C46 N43 1.311 . S
C46 N47 1.347 . S
C46 H57 0.929 . S
N47 C45 1.375 . S
N47 C46 1.347 . S
C48 C51 1.365 . S
C48 N53 1.328 . S
C48 H54 0.929 . S
C49 C50 1.362 . S
C49 C52 1.378 . S
C49 H64 0.929 . S
C50 C49 1.362 . S
C50 C51 1.366 . S
C51 C48 1.365 . S
C51 C50 1.366 . S
C51 H65 0.930 . S
C52 C49 1.378 . S
C52 N53 1.315 . S
C52 H55 0.930 . S
N53 Co33 2.194 . S
N53 C48 1.328 . S
N53 C52 1.315 . S
H54 C48 0.929 . S
H55 C52 0.930 . S
H56 C44 0.929 . S
H57 C46 0.929 . S
O58 Co33 2.351 . S
O58 C61 1.244 . S
O59 Co33 2.155 . S
O59 C61 1.240 . S
O60 Co33 2.096 . S
O60 C41 1.247 . S
C61 O58 1.244 . S
C61 O59 1.240 . S
H62 C36 0.931 . S
H63 C45 0.931 . S
H64 C49 0.929 . S
H65 C51 0.930 . S
Co66 N70 2.148 . S
Co66 N76 2.128 . S
Co66 N86 2.194 1_455 S
Co66 O91 2.351 1_455 S
Co66 O92 2.155 . S
Co66 O93 2.096 . S
C67 N70 1.301 . S
C67 N71 1.328 . S
C67 H72 0.930 1_455 S
C68 C69 1.333 . S
C68 N70 1.317 . S
C68 H73 0.930 . S
C69 C68 1.333 . S
C69 N71 1.350 . S
C69 H95 0.931 . S
N70 Co66 2.148 . S
N70 C67 1.301 . S
N70 C68 1.317 . S
N71 C67 1.328 . S
N71 C69 1.350 . S
H72 C67 0.930 1_655 S
H73 C68 0.930 . S
C74 O75 1.224 . S
C74 O93 1.247 . S
O75 C74 1.224 . S
N76 Co66 2.128 . S
N76 C77 1.355 1_455 S
N76 C79 1.311 . S
C77 N76 1.355 1_655 S
C77 C78 1.363 . S
C77 H89 0.929 . S
C78 C77 1.363 . S
C78 N80 1.375 1_655 S
C78 H96 0.931 . S
C79 N76 1.311 . S
C79 N80 1.347 . S
C79 H90 0.929 . S
N80 C78 1.375 1_455 S
N80 C79 1.347 . S
C81 C84 1.365 . S
C81 N86 1.328 . S
C81 H87 0.929 . S
C82 C83 1.362 . S
C82 C85 1.378 . S
C82 H97 0.929 . S
C83 C82 1.362 . S
C83 C84 1.366 . S
C84 C81 1.365 . S
C84 C83 1.366 . S
C84 H98 0.930 . S
C85 C82 1.378 . S
C85 N86 1.315 . S
C85 H88 0.930 . S
N86 Co66 2.194 1_655 S
N86 C81 1.328 . S
N86 C85 1.315 . S
H87 C81 0.929 . S
H88 C85 0.930 . S
H89 C77 0.929 . S
H90 C79 0.929 . S
O91 Co66 2.351 1_655 S
O91 C94 1.244 1_655 S
O92 Co66 2.155 . S
O92 C94 1.240 . S
O93 Co66 2.096 . S
O93 C74 1.247 . S
C94 O91 1.244 1_455 S
C94 O92 1.240 . S
H95 C69 0.931 . S
H96 C78 0.931 . S
H97 C82 0.929 . S
H98 C84 0.930 . S
Co99 N103 2.148 . S
Co99 N109 2.128 . S
Co99 N119 2.194 . S
Co99 O124 2.351 . S
Co99 O125 2.155 . S
Co99 O126 2.096 . S
C100 N103 1.301 . S
C100 N104 1.328 . S
C100 H105 0.930 . S
C101 C102 1.333 . S
C101 N103 1.317 . S
C101 H106 0.930 . S
C102 C101 1.333 . S
C102 N104 1.350 . S
C102 H128 0.931 . S
N103 Co99 2.148 . S
N103 C100 1.301 . S
N103 C101 1.317 . S
N104 C100 1.328 . S
N104 C102 1.350 . S
H105 C100 0.930 . S
H106 C101 0.930 . S
C107 O108 1.224 . S
C107 O126 1.247 . S
O108 C107 1.224 . S
N109 Co99 2.128 . S
N109 C110 1.355 . S
N109 C112 1.311 . S
C110 N109 1.355 . S
C110 C111 1.363 . S
C110 H122 0.929 . S
C111 C110 1.363 . S
C111 N113 1.375 . S
C111 H129 0.931 . S
C112 N109 1.311 . S
C112 N113 1.347 . S
C112 H123 0.929 . S
N113 C111 1.375 . S
N113 C112 1.347 . S
C114 C117 1.365 . S
C114 N119 1.328 . S
C114 H120 0.929 . S
C115 C116 1.362 . S
C115 C118 1.378 . S
C115 H130 0.929 . S
C116 C115 1.362 . S
C116 C117 1.366 . S
C117 C114 1.365 . S
C117 C116 1.366 . S
C117 H131 0.930 . S
C118 C115 1.378 . S
C118 N119 1.315 . S
C118 H121 0.930 . S
N119 Co99 2.194 . S
N119 C114 1.328 . S
N119 C118 1.315 . S
H120 C114 0.929 . S
H121 C118 0.930 . S
H122 C110 0.929 . S
H123 C112 0.929 . S
O124 Co99 2.351 . S
O124 C127 1.244 . S
O125 Co99 2.155 . S
O125 C127 1.240 . S
O126 Co99 2.096 . S
O126 C107 1.247 . S
C127 O124 1.244 . S
C127 O125 1.240 . S
H128 C102 0.931 . S
H129 C111 0.931 . S
H130 C115 0.929 . S
H131 C117 0.930 . S
Co132 N136 2.148 . S
Co132 N142 2.128 . S
Co132 N152 2.194 . S
Co132 O157 2.351 . S
Co132 O158 2.155 . S
Co132 O159 2.096 . S
C133 N136 1.301 . S
C133 N137 1.328 . S
C133 H138 0.930 . S
C134 C135 1.333 . S
C134 N136 1.317 . S
C134 H139 0.930 . S
C135 C134 1.333 . S
C135 N137 1.350 . S
C135 H161 0.931 . S
N136 Co132 2.148 . S
N136 C133 1.301 . S
N136 C134 1.317 . S
N137 C133 1.328 . S
N137 C135 1.350 . S
H138 C133 0.930 . S
H139 C134 0.930 . S
C140 O141 1.224 . S
C140 O159 1.247 . S
O141 C140 1.224 . S
N142 Co132 2.128 . S
N142 C143 1.355 . S
N142 C145 1.311 . S
C143 N142 1.355 . S
C143 C144 1.363 . S
C143 H155 0.929 . S
C144 C143 1.363 . S
C144 N146 1.375 . S
C144 H162 0.931 . S
C145 N142 1.311 . S
C145 N146 1.347 . S
C145 H156 0.929 . S
N146 C144 1.375 . S
N146 C145 1.347 . S
C147 C150 1.365 . S
C147 N152 1.328 . S
C147 H153 0.929 . S
C148 C149 1.362 . S
C148 C151 1.378 . S
C148 H163 0.929 . S
C149 C148 1.362 . S
C149 C150 1.366 . S
C150 C147 1.365 . S
C150 C149 1.366 . S
C150 H164 0.930 . S
C151 C148 1.378 . S
C151 N152 1.315 . S
C151 H154 0.930 . S
N152 Co132 2.194 . S
N152 C147 1.328 . S
N152 C151 1.315 . S
H153 C147 0.929 . S
H154 C151 0.930 . S
H155 C143 0.929 . S
H156 C145 0.929 . S
O157 Co132 2.351 . S
O157 C160 1.244 . S
O158 Co132 2.155 . S
O158 C160 1.240 . S
O159 Co132 2.096 . S
O159 C140 1.247 . S
C160 O157 1.244 . S
C160 O158 1.240 . S
H161 C135 0.931 . S
H162 C144 0.931 . S
H163 C148 0.929 . S
H164 C150 0.930 . S
Co165 N169 2.148 . S
Co165 N175 2.126 1_655 S
Co165 N185 2.194 1_655 S
Co165 O190 2.351 1_655 S
Co165 O191 2.155 . S
Co165 O192 2.096 . S
C166 N169 1.301 1_455 S
C166 N170 1.328 1_455 S
C166 H171 0.930 . S
C167 C168 1.333 . S
C167 N169 1.317 . S
C167 H172 0.930 . S
C168 C167 1.333 . S
C168 N170 1.350 . S
C168 H194 0.931 . S
N169 Co165 2.148 . S
N169 C166 1.301 1_655 S
N169 C167 1.317 . S
N170 C166 1.328 1_655 S
N170 C168 1.350 . S
H171 C166 0.930 . S
H172 C167 0.930 . S
C173 O174 1.224 . S
C173 O192 1.247 . S
O174 C173 1.224 . S
N175 Co165 2.126 1_455 S
N175 C176 1.371 . S
N175 C178 1.299 1_455 S
C176 N175 1.371 . S
C176 C177 1.363 . S
C176 H188 0.929 . S
C177 C176 1.363 . S
C177 N179 1.375 1_455 S
C177 H195 0.931 . S
C178 N175 1.299 1_655 S
C178 N179 1.347 . S
C178 H189 0.929 . S
N179 C177 1.375 1_655 S
N179 C178 1.347 . S
C180 C183 1.365 . S
C180 N185 1.328 . S
C180 H186 0.929 . S
C181 C182 1.362 . S
C181 C184 1.378 . S
C181 H196 0.929 . S
C182 C181 1.362 . S
C182 C183 1.366 . S
C183 C180 1.365 . S
C183 C182 1.366 . S
C183 H197 0.930 . S
C184 C181 1.378 . S
C184 N185 1.315 . S
C184 H187 0.930 . S
N185 Co165 2.194 1_455 S
N185 C180 1.328 . S
N185 C184 1.315 . S
H186 C180 0.929 . S
H187 C184 0.930 . S
H188 C176 0.929 . S
H189 C178 0.929 . S
O190 Co165 2.351 1_455 S
O190 C193 1.244 . S
O191 Co165 2.155 . S
O191 C193 1.240 1_655 S
O192 Co165 2.096 . S
O192 C173 1.247 . S
C193 O190 1.244 . S
C193 O191 1.240 1_455 S
H194 C168 0.931 . S
H195 C177 0.931 . S
H196 C181 0.929 . S
H197 C183 0.930 . S
Co198 N202 2.148 . S
Co198 N208 2.128 . S
Co198 N218 2.194 . S
Co198 O223 2.351 . S
Co198 O224 2.155 . S
Co198 O225 2.096 . S
C199 N202 1.301 . S
C199 N203 1.328 . S
C199 H204 0.930 . S
C200 C201 1.333 . S
C200 N202 1.317 . S
C200 H205 0.930 . S
C201 C200 1.333 . S
C201 N203 1.350 . S
C201 H227 0.931 . S
N202 Co198 2.148 . S
N202 C199 1.301 . S
N202 C200 1.317 . S
N203 C199 1.328 . S
N203 C201 1.350 . S
H204 C199 0.930 . S
H205 C200 0.930 . S
C206 O207 1.224 . S
C206 O225 1.247 . S
O207 C206 1.224 . S
N208 Co198 2.128 . S
N208 C209 1.355 . S
N208 C211 1.311 . S
C209 N208 1.355 . S
C209 C210 1.363 . S
C209 H221 0.929 . S
C210 C209 1.363 . S
C210 N212 1.375 . S
C210 H228 0.931 . S
C211 N208 1.311 . S
C211 N212 1.347 . S
C211 H222 0.929 . S
N212 C210 1.375 . S
N212 C211 1.347 . S
C213 C216 1.365 . S
C213 N218 1.328 . S
C213 H219 0.929 . S
C214 C215 1.362 . S
C214 C217 1.378 . S
C214 H229 0.929 . S
C215 C214 1.362 . S
C215 C216 1.366 . S
C216 C213 1.365 . S
C216 C215 1.366 . S
C216 H230 0.930 . S
C217 C214 1.378 . S
C217 N218 1.315 . S
C217 H220 0.930 . S
N218 Co198 2.194 . S
N218 C213 1.328 . S
N218 C217 1.315 . S
H219 C213 0.929 . S
H220 C217 0.930 . S
H221 C209 0.929 . S
H222 C211 0.929 . S
O223 Co198 2.351 . S
O223 C226 1.244 . S
O224 Co198 2.155 . S
O224 C226 1.240 . S
O225 Co198 2.096 . S
O225 C206 1.247 . S
C226 O223 1.244 . S
C226 O224 1.240 . S
H227 C201 0.931 . S
H228 C210 0.931 . S
H229 C214 0.929 . S
H230 C216 0.930 . S
Co231 N235 2.148 . S
Co231 N241 2.126 1_655 S
Co231 N251 2.194 1_655 S
Co231 O256 2.351 1_655 S
Co231 O257 2.155 . S
Co231 O258 2.096 . S
C232 N235 1.301 1_455 S
C232 N236 1.328 1_455 S
C232 H237 0.930 . S
C233 C234 1.333 . S
C233 N235 1.317 . S
C233 H238 0.930 . S
C234 C233 1.333 . S
C234 N236 1.350 . S
C234 H260 0.931 . S
N235 Co231 2.148 . S
N235 C232 1.301 1_655 S
N235 C233 1.317 . S
N236 C232 1.328 1_655 S
N236 C234 1.350 . S
H237 C232 0.930 . S
H238 C233 0.930 . S
C239 O240 1.224 . S
C239 O258 1.247 . S
O240 C239 1.224 . S
N241 Co231 2.126 1_455 S
N241 C242 1.371 . S
N241 C244 1.299 1_455 S
C242 N241 1.371 . S
C242 C243 1.363 . S
C242 H254 0.929 . S
C243 C242 1.363 . S
C243 N245 1.375 1_455 S
C243 H261 0.931 . S
C244 N241 1.299 1_655 S
C244 N245 1.347 . S
C244 H255 0.929 . S
N245 C243 1.375 1_655 S
N245 C244 1.347 . S
C246 C249 1.365 . S
C246 N251 1.328 . S
C246 H252 0.929 . S
C247 C248 1.362 . S
C247 C250 1.378 . S
C247 H262 0.929 . S
C248 C247 1.362 . S
C248 C249 1.366 . S
C249 C246 1.365 . S
C249 C248 1.366 . S
C249 H263 0.930 . S
C250 C247 1.378 . S
C250 N251 1.315 . S
C250 H253 0.930 . S
N251 Co231 2.194 1_455 S
N251 C246 1.328 . S
N251 C250 1.315 . S
H252 C246 0.929 . S
H253 C250 0.930 . S
H254 C242 0.929 . S
H255 C244 0.929 . S
O256 Co231 2.351 1_455 S
O256 C259 1.244 . S
O257 Co231 2.155 . S
O257 C259 1.240 1_655 S
O258 Co231 2.096 . S
O258 C239 1.247 . S
C259 O256 1.244 . S
C259 O257 1.240 1_455 S
H260 C234 0.931 . S
H261 C243 0.931 . S
H262 C247 0.929 . S
H263 C249 0.930 . S
H264 C272 0.950 . S
H265 C277 0.950 . S
H266 C274 0.950 . S
H267 C276 0.950 . S
H268 C278 0.950 . S
H269 C280 0.950 . S
H270 C282 0.950 1_556 S
H271 C283 0.950 . S
C272 H264 0.950 . S
C272 C273 1.386 . S
C272 C274 1.391 . S
C273 C272 1.386 . S
C273 C277 1.393 . S
C274 H266 0.950 . S
C274 C272 1.391 . S
C274 C275 1.400 . S
C275 C274 1.400 . S
C275 C276 1.398 1_556 S
C275 C281 1.491 1_556 S
C276 H267 0.950 . S
C276 C275 1.398 1_554 S
C276 C277 1.391 1_554 S
C277 H265 0.950 . S
C277 C273 1.393 . S
C277 C276 1.391 1_556 S
C278 H268 0.950 . S
C278 C279 1.386 . S
C278 C280 1.391 . S
C279 C278 1.386 . S
C279 C283 1.393 . S
C280 H269 0.950 . S
C280 C278 1.391 . S
C280 C281 1.400 . S
C281 C275 1.491 1_554 S
C281 C280 1.400 . S
C281 C282 1.398 . S
C282 H270 0.950 1_554 S
C282 C281 1.398 . S
C282 C283 1.391 . S
C283 H271 0.950 . S
C283 C279 1.393 . S
C283 C282 1.391 . S
H284 C292 0.950 . S
H285 C297 0.950 . S
H286 C294 0.950 . S
H287 C296 0.950 . S
H288 C298 0.950 . S
H289 C300 0.950 . S
H290 C302 0.950 . S
H291 C303 0.950 . S
C292 H284 0.950 . S
C292 C293 1.386 . S
C292 C294 1.391 . S
C293 C292 1.386 . S
C293 C297 1.393 . S
C294 H286 0.950 . S
C294 C292 1.391 . S
C294 C295 1.400 . S
C295 C294 1.400 . S
C295 C296 1.398 . S
C295 C301 1.491 . S
C296 H287 0.950 . S
C296 C295 1.398 . S
C296 C297 1.391 . S
C297 H285 0.950 . S
C297 C293 1.393 . S
C297 C296 1.391 . S
C298 H288 0.950 . S
C298 C299 1.386 . S
C298 C300 1.391 . S
C299 C298 1.386 . S
C299 C303 1.393 . S
C300 H289 0.950 . S
C300 C298 1.391 . S
C300 C301 1.400 . S
C301 C295 1.491 . S
C301 C300 1.400 . S
C301 C302 1.398 . S
C302 H290 0.950 . S
C302 C301 1.398 . S
C302 C303 1.391 . S
C303 H291 0.950 . S
C303 C299 1.393 . S
C303 C302 1.391 . S
H304 C312 0.950 . S
H305 C317 0.950 . S
H306 C314 0.950 . S
H307 C316 0.950 1_556 S
H308 C318 0.950 . S
H309 C320 0.950 . S
H310 C322 0.938 1_554 S
H311 C323 0.950 . S
C312 H304 0.950 . S
C312 C313 1.386 . S
C312 C314 1.391 . S
C313 C312 1.386 . S
C313 C317 1.393 . S
C314 H306 0.950 . S
C314 C312 1.391 . S
C314 C315 1.400 . S
C315 C314 1.400 . S
C315 C316 1.398 . S
C315 C321 1.491 1_554 S
C316 H307 0.950 1_554 S
C316 C315 1.398 . S
C316 C317 1.391 . S
C317 H305 0.950 . S
C317 C313 1.393 . S
C317 C316 1.391 . S
C318 H308 0.950 . S
C318 C319 1.386 . S
C318 C320 1.391 . S
C319 C318 1.386 . S
C319 C323 1.393 . S
C320 H309 0.950 . S
C320 C318 1.391 . S
C320 C321 1.400 . S
C321 C315 1.491 1_556 S
C321 C320 1.400 . S
C321 C322 1.398 . S
C322 H310 0.938 1_556 S
C322 C321 1.398 . S
C322 C323 1.391 . S
C323 H311 0.950 . S
C323 C319 1.393 . S
C323 C322 1.391 . S
H324 C332 0.950 . S
H325 C337 0.950 . S
H326 C334 0.950 . S
H327 C336 0.950 . S
H328 C338 0.950 . S
H329 C340 0.950 . S
H330 C342 0.950 . S
H331 C343 0.950 . S
C332 H324 0.950 . S
C332 C333 1.386 . S
C332 C334 1.391 . S
C333 C332 1.386 . S
C333 C337 1.393 . S
C334 H326 0.950 . S
C334 C332 1.391 . S
C334 C335 1.400 . S
C335 C334 1.400 . S
C335 C336 1.398 . S
C335 C341 1.491 . S
C336 H327 0.950 . S
C336 C335 1.398 . S
C336 C337 1.391 . S
C337 H325 0.950 . S
C337 C333 1.393 . S
C337 C336 1.391 . S
C338 H328 0.950 . S
C338 C339 1.386 . S
C338 C340 1.391 . S
C339 C338 1.386 . S
C339 C343 1.393 . S
C340 H329 0.950 . S
C340 C338 1.391 . S
C340 C341 1.400 . S
C341 C335 1.491 . S
C341 C340 1.400 . S
C341 C342 1.398 . S
C342 H330 0.950 . S
C342 C341 1.398 . S
C342 C343 1.391 . S
C343 H331 0.950 . S
C343 C339 1.393 . S
C343 C342 1.391 . S
H344 C352 0.950 . S
H345 C357 0.950 . S
H346 C354 0.950 1_556 S
H347 C356 0.950 . S
H348 C358 0.950 . S
H349 C360 0.950 . S
H350 C362 0.950 . S
H351 C363 0.950 . S
C352 H344 0.950 . S
C352 C353 1.386 . S
C352 C354 1.391 . S
C353 C352 1.386 . S
C353 C357 1.393 . S
C354 H346 0.950 1_554 S
C354 C352 1.391 . S
C354 C355 1.400 . S
C355 C354 1.400 . S
C355 C356 1.398 . S
C355 C361 1.491 1_554 S
C356 H347 0.950 . S
C356 C355 1.398 . S
C356 C357 1.391 . S
C357 H345 0.950 . S
C357 C353 1.393 . S
C357 C356 1.391 . S
C358 H348 0.950 . S
C358 C359 1.386 . S
C358 C360 1.391 1_556 S
C359 C358 1.386 . S
C359 C363 1.393 . S
C360 H349 0.950 . S
C360 C358 1.391 1_554 S
C360 C361 1.400 1_554 S
C361 C355 1.491 1_556 S
C361 C360 1.400 1_556 S
C361 C362 1.398 . S
C362 H350 0.950 . S
C362 C361 1.398 . S
C362 C363 1.391 . S
C363 H351 0.950 . S
C363 C359 1.393 . S
C363 C362 1.391 . S
H364 C372 0.950 . S
H365 C377 0.950 . S
H366 C374 0.950 . S
H367 C376 0.950 . S
H368 C378 0.950 . S
H369 C380 0.950 . S
H370 C382 0.950 . S
H371 C383 0.950 . S
C372 H364 0.950 . S
C372 C373 1.386 . S
C372 C374 1.391 . S
C373 C372 1.386 . S
C373 C377 1.393 . S
C374 H366 0.950 . S
C374 C372 1.391 . S
C374 C375 1.400 . S
C375 C374 1.400 . S
C375 C376 1.398 . S
C375 C381 1.491 . S
C376 H367 0.950 . S
C376 C375 1.398 . S
C376 C377 1.391 . S
C377 H365 0.950 . S
C377 C373 1.393 . S
C377 C376 1.391 . S
C378 H368 0.950 . S
C378 C379 1.386 . S
C378 C380 1.391 . S
C379 C378 1.386 . S
C379 C383 1.393 . S
C380 H369 0.950 . S
C380 C378 1.391 . S
C380 C381 1.400 . S
C381 C375 1.491 . S
C381 C380 1.400 . S
C381 C382 1.398 . S
C382 H370 0.950 . S
C382 C381 1.398 . S
C382 C383 1.391 . S
C383 H371 0.950 . S
C383 C379 1.393 . S
C383 C382 1.391 . S
H384 C392 0.950 . S
H385 C397 0.950 . S
H386 C394 0.950 . S
H387 C396 0.950 . S
H388 C398 0.950 . S
H389 C400 0.950 . S
H390 C402 0.950 . S
H391 C403 0.950 . S
C392 H384 0.950 . S
C392 C393 1.386 . S
C392 C394 1.391 . S
C393 C392 1.386 . S
C393 C397 1.393 . S
C394 H386 0.950 . S
C394 C392 1.391 . S
C394 C395 1.400 . S
C395 C394 1.400 . S
C395 C396 1.398 . S
C395 C401 1.491 1_554 S
C396 H387 0.950 . S
C396 C395 1.398 . S
C396 C397 1.391 . S
C397 H385 0.950 . S
C397 C393 1.393 . S
C397 C396 1.391 . S
C398 H388 0.950 . S
C398 C399 1.386 . S
C398 C400 1.391 . S
C399 C398 1.386 . S
C399 C403 1.393 . S
C400 H389 0.950 . S
C400 C398 1.391 . S
C400 C401 1.400 . S
C401 C395 1.491 1_556 S
C401 C400 1.400 . S
C401 C402 1.398 . S
C402 H390 0.950 . S
C402 C401 1.398 . S
C402 C403 1.391 . S
C403 H391 0.950 . S
C403 C399 1.393 . S
C403 C402 1.391 . S
H404 C412 0.950 . S
H405 C417 0.950 . S
H406 C414 0.950 . S
H407 C416 0.950 . S
H408 C418 0.950 . S
H409 C420 0.950 . S
H410 C422 0.950 . S
H411 C423 0.950 . S
C412 H404 0.950 . S
C412 C413 1.386 . S
C412 C414 1.391 . S
C413 C412 1.386 . S
C413 C417 1.393 . S
C414 H406 0.950 . S
C414 C412 1.391 . S
C414 C415 1.400 . S
C415 C414 1.400 . S
C415 C416 1.398 . S
C415 C421 1.491 . S
C416 H407 0.950 . S
C416 C415 1.398 . S
C416 C417 1.391 . S
C417 H405 0.950 . S
C417 C413 1.393 . S
C417 C416 1.391 . S
C418 H408 0.950 . S
C418 C419 1.386 . S
C418 C420 1.391 . S
C419 C418 1.386 . S
C419 C423 1.393 . S
C420 H409 0.950 . S
C420 C418 1.391 . S
C420 C421 1.400 . S
C421 C415 1.491 . S
C421 C420 1.400 . S
C421 C422 1.398 . S
C422 H410 0.950 . S
C422 C421 1.398 . S
C422 C423 1.391 . S
C423 H411 0.950 . S
C423 C419 1.393 . S
C423 C422 1.391 . S
H424 C432 0.950 . S
H425 C437 0.952 . S
H426 C434 0.950 . S
H427 C436 0.950 . S
H428 C438 0.950 . S
H429 C440 0.950 . S
H430 C442 0.950 . S
H431 C443 0.950 . S
C432 H424 0.950 . S
C432 C433 1.386 . S
C432 C434 1.391 . S
C433 C432 1.386 . S
C433 C437 1.393 . S
C434 H426 0.950 . S
C434 C432 1.391 . S
C434 C435 1.400 . S
C435 C434 1.400 . S
C435 C436 1.398 . S
C435 C441 1.491 . S
C436 H427 0.950 . S
C436 C435 1.398 . S
C436 C437 1.391 . S
C437 H425 0.952 . S
C437 C433 1.393 . S
C437 C436 1.391 . S
C438 H428 0.950 . S
C438 C439 1.383 1_655 S
C438 C440 1.391 . S
C439 C438 1.383 1_455 S
C439 C443 1.397 . S
C440 H429 0.950 . S
C440 C438 1.391 . S
C440 C441 1.400 1_655 S
C441 C435 1.491 . S
C441 C440 1.400 1_455 S
C441 C442 1.398 . S
C442 H430 0.950 . S
C442 C441 1.398 . S
C442 C443 1.391 . S
C443 H431 0.950 . S
C443 C439 1.397 . S
C443 C442 1.391 . S
H444 C452 0.950 . S
H445 C457 0.950 . S
H446 C454 0.950 . S
H447 C456 0.950 . S
H448 C458 0.950 . S
H449 C460 0.950 . S
H450 C462 0.950 . S
H451 C463 0.950 . S
C452 H444 0.950 . S
C452 C453 1.386 . S
C452 C454 1.391 . S
C453 C452 1.386 . S
C453 C457 1.393 . S
C454 H446 0.950 . S
C454 C452 1.391 . S
C454 C455 1.400 . S
C455 C454 1.400 . S
C455 C456 1.398 . S
C455 C461 1.491 . S
C456 H447 0.950 . S
C456 C455 1.398 . S
C456 C457 1.391 . S
C457 H445 0.950 . S
C457 C453 1.393 . S
C457 C456 1.391 . S
C458 H448 0.950 . S
C458 C459 1.386 . S
C458 C460 1.391 . S
C459 C458 1.386 . S
C459 C463 1.393 . S
C460 H449 0.950 . S
C460 C458 1.391 . S
C460 C461 1.400 . S
C461 C455 1.491 . S
C461 C460 1.400 . S
C461 C462 1.398 . S
C462 H450 0.950 . S
C462 C461 1.398 . S
C462 C463 1.391 . S
C463 H451 0.950 . S
C463 C459 1.393 . S
C463 C462 1.391 . S
H464 C472 0.950 . S
H465 C477 0.950 . S
H466 C474 0.950 . S
H467 C476 0.950 . S
H468 C478 0.950 . S
H469 C480 0.950 . S
H470 C482 0.950 . S
H471 C483 0.950 . S
C472 H464 0.950 . S
C472 C473 1.386 . S
C472 C474 1.391 . S
C473 C472 1.386 . S
C473 C477 1.393 1_455 S
C474 H466 0.950 . S
C474 C472 1.391 . S
C474 C475 1.400 . S
C475 C474 1.400 . S
C475 C476 1.398 1_455 S
C475 C481 1.491 . S
C476 H467 0.950 . S
C476 C475 1.398 1_655 S
C476 C477 1.391 . S
C477 H465 0.950 . S
C477 C473 1.393 1_655 S
C477 C476 1.391 . S
C478 H468 0.950 . S
C478 C479 1.386 1_655 S
C478 C480 1.391 . S
C479 C478 1.386 1_455 S
C479 C483 1.393 . S
C480 H469 0.950 . S
C480 C478 1.391 . S
C480 C481 1.400 1_655 S
C481 C475 1.491 . S
C481 C480 1.400 1_455 S
C481 C482 1.398 . S
C482 H470 0.950 . S
C482 C481 1.398 . S
C482 C483 1.391 . S
C483 H471 0.950 . S
C483 C479 1.393 . S
C483 C482 1.391 . S
H484 C492 0.950 . S
H485 C497 0.950 . S
H486 C494 0.950 . S
H487 C496 0.950 . S
H488 C498 0.950 . S
H489 C500 0.950 . S
H490 C502 0.950 . S
H491 C503 0.950 . S
C492 H484 0.950 . S
C492 C493 1.386 . S
C492 C494 1.391 . S
C493 C492 1.386 . S
C493 C497 1.393 . S
C494 H486 0.950 . S
C494 C492 1.391 . S
C494 C495 1.400 . S
C495 C494 1.400 . S
C495 C496 1.398 . S
C495 C501 1.491 . S
C496 H487 0.950 . S
C496 C495 1.398 . S
C496 C497 1.391 . S
C497 H485 0.950 . S
C497 C493 1.393 . S
C497 C496 1.391 . S
C498 H488 0.950 . S
C498 C499 1.386 . S
C498 C500 1.391 . S
C499 C498 1.386 . S
C499 C503 1.393 . S
C500 H489 0.950 . S
C500 C498 1.391 . S
C500 C501 1.400 . S
C501 C495 1.491 . S
C501 C500 1.400 . S
C501 C502 1.398 . S
C502 H490 0.950 . S
C502 C501 1.398 . S
C502 C503 1.391 . S
C503 H491 0.950 . S
C503 C499 1.393 . S
C503 C502 1.391 . S
H504 C512 0.950 . S
H505 C517 0.950 . S
H506 C514 0.950 . S
H507 C516 0.950 . S
H508 C518 0.950 . S
H509 C520 0.950 . S
H510 C522 0.950 . S
H511 C523 0.950 . S
C512 H504 0.950 . S
C512 C513 1.386 . S
C512 C514 1.391 . S
C513 C512 1.386 . S
C513 C517 1.393 . S
C514 H506 0.950 . S
C514 C512 1.391 . S
C514 C515 1.400 . S
C515 C514 1.400 . S
C515 C516 1.398 . S
C515 C521 1.491 1_565 S
C516 H507 0.950 . S
C516 C515 1.398 . S
C516 C517 1.391 . S
C517 H505 0.950 . S
C517 C513 1.393 . S
C517 C516 1.391 . S
C518 H508 0.950 . S
C518 C519 1.386 . S
C518 C520 1.391 . S
C519 C518 1.386 . S
C519 C523 1.393 . S
C520 H509 0.950 . S
C520 C518 1.391 . S
C520 C521 1.400 . S
C521 C515 1.491 1_545 S
C521 C520 1.400 . S
C521 C522 1.398 . S
C522 H510 0.950 . S
C522 C521 1.398 . S
C522 C523 1.391 . S
C523 H511 0.950 . S
C523 C519 1.393 . S
C523 C522 1.391 . S
H524 C532 0.950 . S
H525 C537 0.950 . S
H526 C534 0.950 . S
H527 C536 0.950 . S
H528 C538 0.950 . S
H529 C540 0.950 . S
H530 C542 0.950 . S
H531 C543 0.950 . S
C532 H524 0.950 . S
C532 C533 1.386 1_655 S
C532 C534 1.391 . S
C533 C532 1.386 1_455 S
C533 C537 1.393 . S
C534 H526 0.950 . S
C534 C532 1.391 . S
C534 C535 1.400 1_655 S
C535 C534 1.400 1_455 S
C535 C536 1.398 . S
C535 C541 1.491 1_565 S
C536 H527 0.950 . S
C536 C535 1.398 . S
C536 C537 1.391 . S
C537 H525 0.950 . S
C537 C533 1.393 . S
C537 C536 1.391 . S
C538 H528 0.950 . S
C538 C539 1.386 . S
C538 C540 1.391 . S
C539 C538 1.386 . S
C539 C543 1.393 1_455 S
C540 H529 0.950 . S
C540 C538 1.391 . S
C540 C541 1.400 . S
C541 C535 1.491 1_545 S
C541 C540 1.400 . S
C541 C542 1.398 1_455 S
C542 H530 0.950 . S
C542 C541 1.398 1_655 S
C542 C543 1.391 . S
C543 H531 0.950 . S
C543 C539 1.393 1_655 S
C543 C542 1.391 . S
H544 C552 0.950 . S
H545 C557 0.950 . S
H546 C554 0.950 . S
H547 C556 0.950 1_545 S
H548 C558 0.950 . S
H549 C560 0.950 . S
H550 C562 0.950 1_565 S
H551 C563 0.950 . S
C552 H544 0.950 . S
C552 C553 1.386 . S
C552 C554 1.391 . S
C553 C552 1.386 . S
C553 C557 1.393 . S
C554 H546 0.950 . S
C554 C552 1.391 . S
C554 C555 1.400 . S
C555 C554 1.400 . S
C555 C556 1.398 . S
C555 C561 1.491 1_565 S
C556 H547 0.950 1_565 S
C556 C555 1.398 . S
C556 C557 1.391 . S
C557 H545 0.950 . S
C557 C553 1.393 . S
C557 C556 1.391 . S
C558 H548 0.950 . S
C558 C559 1.386 . S
C558 C560 1.391 . S
C559 C558 1.386 . S
C559 C563 1.393 . S
C560 H549 0.950 . S
C560 C558 1.391 . S
C560 C561 1.400 . S
C561 C555 1.491 1_545 S
C561 C560 1.400 . S
C561 C562 1.398 . S
C562 H550 0.950 1_545 S
C562 C561 1.398 . S
C562 C563 1.391 . S
C563 H551 0.950 . S
C563 C559 1.393 . S
C563 C562 1.391 . S
H564 C572 0.950 . S
H565 C577 0.950 . S
H566 C574 0.950 1_565 S
H567 C576 0.950 . S
H568 C578 0.950 . S
H569 C580 0.950 1_545 S
H570 C582 0.950 . S
H571 C583 0.950 . S
C572 H564 0.950 . S
C572 C573 1.386 . S
C572 C574 1.391 . S
C573 C572 1.386 . S
C573 C577 1.393 1_455 S
C574 H566 0.950 1_545 S
C574 C572 1.391 . S
C574 C575 1.400 . S
C575 C574 1.400 . S
C575 C576 1.398 1_455 S
C575 C581 1.491 1_545 S
C576 H567 0.950 . S
C576 C575 1.398 1_655 S
C576 C577 1.391 . S
C577 H565 0.950 . S
C577 C573 1.393 1_655 S
C577 C576 1.391 . S
C578 H568 0.950 . S
C578 C579 1.386 1_655 S
C578 C580 1.391 . S
C579 C578 1.386 1_455 S
C579 C583 1.393 . S
C580 H569 0.950 1_565 S
C580 C578 1.391 . S
C580 C581 1.400 1_655 S
C581 C575 1.491 1_565 S
C581 C580 1.400 1_455 S
C581 C582 1.398 . S
C582 H570 0.950 . S
C582 C581 1.398 . S
C582 C583 1.391 . S
C583 H571 0.950 . S
C583 C579 1.393 . S
C583 C582 1.391 . S
H584 C592 0.950 . S
H585 C597 0.950 . S
H586 C594 0.950 . S
H587 C596 0.950 1_554 S
H588 C598 0.950 . S
H589 C600 0.950 . S
H590 C602 0.950 1_556 S
H591 C603 0.950 . S
C592 H584 0.950 . S
C592 C593 1.386 . S
C592 C594 1.391 . S
C593 C592 1.386 . S
C593 C597 1.393 1_455 S
C594 H586 0.950 . S
C594 C592 1.391 . S
C594 C595 1.400 . S
C595 C594 1.400 . S
C595 C596 1.398 1_455 S
C595 C601 1.491 1_556 S
C596 H587 0.950 1_556 S
C596 C595 1.398 1_655 S
C596 C597 1.391 . S
C597 H585 0.950 . S
C597 C593 1.393 1_655 S
C597 C596 1.391 . S
C598 H588 0.950 . S
C598 C599 1.386 1_655 S
C598 C600 1.391 . S
C599 C598 1.386 1_455 S
C599 C603 1.393 . S
C600 H589 0.950 . S
C600 C598 1.391 . S
C600 C601 1.400 1_655 S
C601 C595 1.491 1_554 S
C601 C600 1.400 1_455 S
C601 C602 1.398 . S
C602 H590 0.950 1_554 S
C602 C601 1.398 . S
C602 C603 1.391 . S
C603 H591 0.950 . S
C603 C599 1.393 . S
C603 C602 1.391 . S
H604 C612 0.950 . S
H605 C617 0.950 . S
H606 C614 0.950 . S
H607 C616 0.950 . S
H608 C618 0.950 . S
H609 C620 0.950 . S
H610 C622 0.950 . S
H611 C623 0.950 . S
C612 H604 0.950 . S
C612 C613 1.386 . S
C612 C614 1.391 . S
C613 C612 1.386 . S
C613 C617 1.393 . S
C614 H606 0.950 . S
C614 C612 1.391 . S
C614 C615 1.400 . S
C615 C614 1.400 . S
C615 C616 1.398 . S
C615 C621 1.491 . S
C616 H607 0.950 . S
C616 C615 1.398 . S
C616 C617 1.391 . S
C617 H605 0.950 . S
C617 C613 1.393 . S
C617 C616 1.391 . S
C618 H608 0.950 . S
C618 C619 1.386 . S
C618 C620 1.391 . S
C619 C618 1.386 . S
C619 C623 1.393 . S
C620 H609 0.950 . S
C620 C618 1.391 . S
C620 C621 1.400 . S
C621 C615 1.491 . S
C621 C620 1.400 . S
C621 C622 1.398 . S
C622 H610 0.950 . S
C622 C621 1.398 . S
C622 C623 1.391 . S
C623 H611 0.950 . S
C623 C619 1.393 . S
C623 C622 1.391 . S
H624 C632 0.950 . S
H625 C637 0.950 . S
H626 C634 0.950 1_554 S
H627 C636 0.950 . S
H628 C638 0.950 . S
H629 C640 0.950 1_556 S
H630 C642 0.950 . S
H631 C643 0.950 . S
C632 H624 0.950 . S
C632 C633 1.386 . S
C632 C634 1.391 . S
C633 C632 1.386 . S
C633 C637 1.393 . S
C634 H626 0.950 1_556 S
C634 C632 1.391 . S
C634 C635 1.400 . S
C635 C634 1.400 . S
C635 C636 1.398 . S
C635 C641 1.491 1_546 S
C636 H627 0.950 . S
C636 C635 1.398 . S
C636 C637 1.391 . S
C637 H625 0.950 . S
C637 C633 1.393 . S
C637 C636 1.391 . S
C638 H628 0.950 . S
C638 C639 1.386 . S
C638 C640 1.391 . S
C639 C638 1.386 . S
C639 C643 1.393 . S
C640 H629 0.950 1_554 S
C640 C638 1.391 . S
C640 C641 1.400 . S
C641 C635 1.491 1_564 S
C641 C640 1.400 . S
C641 C642 1.398 . S
C642 H630 0.950 . S
C642 C641 1.398 . S
C642 C643 1.391 . S
C643 H631 0.950 . S
C643 C639 1.393 . S
C643 C642 1.391 . S
H644 C652 0.950 . S
H645 C657 0.950 . S
H646 C654 0.950 . S
H647 C656 0.950 1_545 S
H648 C658 0.950 . S
H649 C660 0.950 . S
H650 C662 0.950 1_565 S
H651 C663 0.950 . S
C652 H644 0.950 . S
C652 C653 1.386 1_455 S
C652 C654 1.391 . S
C653 C652 1.386 1_655 S
C653 C657 1.393 . S
C654 H646 0.950 . S
C654 C652 1.391 . S
C654 C655 1.400 1_455 S
C655 C654 1.400 1_655 S
C655 C656 1.398 . S
C655 C661 1.491 1_565 S
C656 H647 0.950 1_565 S
C656 C655 1.398 . S
C656 C657 1.391 . S
C657 H645 0.950 . S
C657 C653 1.393 . S
C657 C656 1.391 . S
C658 H648 0.950 . S
C658 C659 1.386 . S
C658 C660 1.391 . S
C659 C658 1.386 . S
C659 C663 1.393 1_655 S
C660 H649 0.950 . S
C660 C658 1.391 . S
C660 C661 1.400 . S
C661 C655 1.491 1_545 S
C661 C660 1.400 . S
C661 C662 1.398 1_655 S
C662 H650 0.950 1_545 S
C662 C661 1.398 1_455 S
C662 C663 1.391 . S
C663 H651 0.950 . S
C663 C659 1.393 1_455 S
C663 C662 1.391 . S
C273 C215 1.802 . S
C279 C8 1.804 . S
C293 C41 1.810 . S
C299 C248 1.809 . S
C313 C149 1.807 . S
C319 C74 1.809 . S
C333 C107 1.808 . S
C339 C182 1.805 . S
C353 C140 1.807 . S
C359 C83 1.804 . S
C373 C173 1.813 . S
C379 C116 1.811 . S
C393 C17 1.807 . S
C399 C206 1.808 . S
C413 C50 1.802 . S
C419 C239 1.804 . S
C433 C28 1.948 . S
C439 N236 1.924 1_455 S
C453 C61 1.956 . S
C459 N203 1.942 . S
C473 N170 1.927 1_455 S
C479 C94 1.947 . S
C493 C127 1.956 . S
C499 N137 1.936 . S
C513 C160 1.944 . S
C519 N104 1.930 . S
C533 N71 1.931 . S
C539 C193 1.944 . S
C553 N38 1.935 . S
C559 C226 1.945 . S
C573 N5 1.934 . S
C579 C259 1.954 . S
C593 N80 0.646 . S
C599 N14 0.625 . S
C613 N47 0.593 . S
C619 N113 0.622 . S
C633 N212 0.619 . S
C639 N146 0.648 . S
C653 N245 0.592 . S
C659 N179 0.627 . S
