# Generated by pormake.
# Topology unf, (4)-cn, num edge types: 1
# Building blocks:
#     Node 0, Type 0, BuildingBlock: TATPOV_clean_sbu_0, # of connection points: 4
#     Node 1, Type 0, BuildingBlock: TATPOV_clean_sbu_0, # of connection points: 4
#     Node 2, Type 0, BuildingBlock: TATPOV_clean_sbu_0, # of connection points: 4
#     Node 3, Type 0, BuildingBlock: TATPOV_clean_sbu_0, # of connection points: 4
#     Node 4, Type 0, BuildingBlock: TATPOV_clean_sbu_0, # of connection points: 4
#     Node 5, Type 0, BuildingBlock: TATPOV_clean_sbu_0, # of connection points: 4
#     Node 6, Type 0, BuildingBlock: TATPOV_clean_sbu_0, # of connection points: 4
#     Node 7, Type 0, BuildingBlock: TATPOV_clean_sbu_0, # of connection points: 4
#     Node 8, Type 0, BuildingBlock: TATPOV_clean_sbu_0, # of connection points: 4
#     Node 9, Type 0, BuildingBlock: TATPOV_clean_sbu_0, # of connection points: 4
#     Node 10, Type 0, BuildingBlock: TATPOV_clean_sbu_0, # of connection points: 4
#     Node 11, Type 0, BuildingBlock: TATPOV_clean_sbu_0, # of connection points: 4
#     Edge 12, Type (0, 0), BuildingBlock: KIFKEQ_clean_linker_1, # of connection points: 2
#     Edge 13, Type (0, 0), BuildingBlock: KIFKEQ_clean_linker_1, # of connection points: 2
#     Edge 14, Type (0, 0), BuildingBlock: KIFKEQ_clean_linker_1, # of connection points: 2
#     Edge 15, Type (0, 0), BuildingBlock: KIFKEQ_clean_linker_1, # of connection points: 2
#     Edge 16, Type (0, 0), BuildingBlock: KIFKEQ_clean_linker_1, # of connection points: 2
#     Edge 17, Type (0, 0), BuildingBlock: KIFKEQ_clean_linker_1, # of connection points: 2
#     Edge 18, Type (0, 0), BuildingBlock: KIFKEQ_clean_linker_1, # of connection points: 2
#     Edge 19, Type (0, 0), BuildingBlock: KIFKEQ_clean_linker_1, # of connection points: 2
#     Edge 20, Type (0, 0), BuildingBlock: KIFKEQ_clean_linker_1, # of connection points: 2
#     Edge 21, Type (0, 0), BuildingBlock: KIFKEQ_clean_linker_1, # of connection points: 2
#     Edge 22, Type (0, 0), BuildingBlock: KIFKEQ_clean_linker_1, # of connection points: 2
#     Edge 23, Type (0, 0), BuildingBlock: KIFKEQ_clean_linker_1, # of connection points: 2
#     Edge 24, Type (0, 0), BuildingBlock: KIFKEQ_clean_linker_1, # of connection points: 2
#     Edge 25, Type (0, 0), BuildingBlock: KIFKEQ_clean_linker_1, # of connection points: 2
#     Edge 26, Type (0, 0), BuildingBlock: KIFKEQ_clean_linker_1, # of connection points: 2
#     Edge 27, Type (0, 0), BuildingBlock: KIFKEQ_clean_linker_1, # of connection points: 2
#     Edge 28, Type (0, 0), BuildingBlock: KIFKEQ_clean_linker_1, # of connection points: 2
#     Edge 29, Type (0, 0), BuildingBlock: KIFKEQ_clean_linker_1, # of connection points: 2
#     Edge 30, Type (0, 0), BuildingBlock: KIFKEQ_clean_linker_1, # of connection points: 2
#     Edge 31, Type (0, 0), BuildingBlock: KIFKEQ_clean_linker_1, # of connection points: 2
#     Edge 32, Type (0, 0), BuildingBlock: KIFKEQ_clean_linker_1, # of connection points: 2
#     Edge 33, Type (0, 0), BuildingBlock: KIFKEQ_clean_linker_1, # of connection points: 2
#     Edge 34, Type (0, 0), BuildingBlock: KIFKEQ_clean_linker_1, # of connection points: 2
#     Edge 35, Type (0, 0), BuildingBlock: KIFKEQ_clean_linker_1, # of connection points: 2
# Relax obj value: 0.215
# Max RMSD: 0.179
# Mean RMSD: 0.179
data_MOF--net-unf--node1-TATPOV_clean_sbu_0--edge1-KIFKEQ_clean_linker_1
_symmetry_space_group_name_H-M    P1
_symmetry_Int_Tables_number       1
_symmetry_cell_setting            triclinic
loop_
_symmetry_equiv_pos_as_xyz
'x, y, z'
_cell_length_a     38.466341
_cell_length_b     38.294696
_cell_length_c     39.176073
_cell_angle_alpha  89.541542
_cell_angle_beta   90.098553
_cell_angle_gamma 119.7609
loop_
_atom_site_label
_atom_site_type_symbol
_atom_site_fract_x
_atom_site_fract_y
_atom_site_fract_z
_atom_type_partial_charge
Zn0 Zn 0.03499 0.3184 0.04869 0.0
Zn1 Zn 0.07436 0.36278 0.09659 0.0
O2 O 0.07344 0.40731 0.0667 0.0
O3 O 0.0338 0.36551 0.02746 0.0
O4 O 0.10911 0.38809 0.13912 0.0
O5 O 0.07092 0.3018 0.02972 0.0
O6 O 0.10525 0.33577 0.07445 0.0
C7 C 0.05273 0.4007 0.03947 0.0
C8 C -0.0147 0.29625 0.10305 0.0
O9 O 0.0151 0.32907 0.11315 0.0
O10 O -0.01133 0.27954 0.07663 0.0
C11 C 0.09583 0.38171 0.16966 0.0
O12 O 0.05701 0.36057 0.17481 0.0
C13 C 0.10137 0.31416 0.04842 0.0
Zn14 Zn 0.53688 0.67721 0.98536 0.0
Zn15 Zn 0.5458 0.68697 0.04726 0.0
O16 O 0.49247 0.63511 0.03322 0.0
O17 O 0.47776 0.64272 0.98073 0.0
O18 O 0.53833 0.70005 0.09642 0.0
O19 O 0.56587 0.7328 0.96754 0.0
O20 O 0.57354 0.74346 0.0227 0.0
C21 C 0.46919 0.62128 0.00743 0.0
C22 C 0.58705 0.64816 0.0194 0.0
O23 O 0.58519 0.66611 0.04604 0.0
O24 O 0.56845 0.64802 0.99255 0.0
C25 C 0.56479 0.70989 0.1196 0.0
O26 O 0.59813 0.70985 0.1125 0.0
C27 C 0.58037 0.757 0.99205 0.0
Zn28 Zn 0.28926 0.91557 0.98045 0.0
Zn29 Zn 0.2673 0.88003 0.07848 0.0
O30 O 0.31745 0.87338 0.06828 0.0
O31 O 0.30321 0.89324 0.0221 0.0
O32 O 0.24117 0.85136 0.12357 0.0
O33 O 0.22957 0.87597 0.98223 0.0
O34 O 0.22283 0.85906 0.03837 0.0
C35 C 0.32768 0.88619 0.03797 0.0
C36 C 0.30137 0.95517 0.05333 0.0
O37 O 0.29166 0.94221 0.0837 0.0
O38 O 0.29132 0.92851 0.0308 0.0
C39 C 0.20726 0.84632 0.13295 0.0
O40 O 0.18891 0.85985 0.1131 0.0
C41 C 0.20813 0.85608 0.00804 0.0
Zn42 Zn 0.54062 0.85531 0.51827 0.0
Zn43 Zn 0.55173 0.84144 0.41923 0.0
O44 O 0.51667 0.86965 0.41771 0.0
O45 O 0.52736 0.86185 0.46981 0.0
O46 O 0.5514 0.81568 0.37353 0.0
O47 O 0.52771 0.79722 0.51586 0.0
O48 O 0.53819 0.79783 0.45921 0.0
C49 C 0.51505 0.87818 0.44864 0.0
C50 C 0.60886 0.89957 0.459 0.0
O51 O 0.6082 0.88928 0.42816 0.0
O52 O 0.57848 0.87685 0.47694 0.0
C53 C 0.54486 0.82747 0.34498 0.0
O54 O 0.53763 0.85759 0.34448 0.0
C55 C 0.52986 0.77998 0.48864 0.0
Zn56 Zn 0.06372 0.69886 0.49151 0.0
Zn57 Zn 0.06935 0.69471 0.43078 0.0
O58 O 0.0462 0.63342 0.44486 0.0
O59 O 0.03263 0.64028 0.49803 0.0
O60 O 0.08395 0.70244 0.37983 0.0
O61 O 0.11939 0.72899 0.50725 0.0
O62 O 0.12291 0.74069 0.45218 0.0
C63 C 0.02967 0.61769 0.47359 0.0
C64 C 0.01217 0.71976 0.4605 0.0
O65 O 0.02173 0.70526 0.43532 0.0
O66 O 0.03181 0.72699 0.48795 0.0
C67 C 0.0919 0.73655 0.36749 0.0
O68 O 0.08823 0.76194 0.38749 0.0
C69 C 0.13902 0.7496 0.48176 0.0
Zn70 Zn 0.30162 0.44852 0.51412 0.0
Zn71 Zn 0.28426 0.43555 0.4525 0.0
O72 O 0.34547 0.47701 0.45871 0.0
O73 O 0.35383 0.49958 0.51101 0.0
O74 O 0.26575 0.44009 0.40435 0.0
O75 O 0.25389 0.44623 0.53547 0.0
O76 O 0.23591 0.42745 0.48263 0.0
C77 C 0.36872 0.49922 0.48239 0.0
C78 C 0.29566 0.3739 0.48424 0.0
O79 O 0.28556 0.38375 0.45636 0.0
O80 O 0.30314 0.3957 0.51054 0.0
C81 C 0.26701 0.42146 0.378 0.0
O82 O 0.28426 0.3993 0.38018 0.0
C83 C 0.22687 0.43195 0.51304 0.0
Zn84 Zn 0.86395 0.57758 0.00531 0.0
Zn85 Zn 0.85949 0.57645 0.93972 0.0
O86 O 0.88151 0.53689 0.94981 0.0
O87 O 0.88189 0.53725 0.00603 0.0
O88 O 0.84518 0.57249 0.8888 0.0
O89 O 0.80843 0.56209 0.01745 0.0
O90 O 0.80562 0.56649 0.96172 0.0
C91 C 0.88901 0.52536 0.97827 0.0
C92 C 0.92064 0.65298 0.9746 0.0
O93 O 0.90635 0.634 0.94681 0.0
O94 O 0.906 0.636 1.00298 0.0
C95 C 0.82722 0.59115 0.87867 0.0
O96 O 0.82126 0.61339 0.90066 0.0
C97 C 0.7892 0.56122 0.99106 0.0
Zn98 Zn 0.40844 0.30864 0.01133 0.0
Zn99 Zn 0.38017 0.27314 0.91753 0.0
O100 O 0.40855 0.33598 0.91035 0.0
O101 O 0.41015 0.32271 0.96274 0.0
O102 O 0.37544 0.24511 0.87201 0.0
O103 O 0.42275 0.26478 0.00995 0.0
O104 O 0.4004 0.24813 0.95634 0.0
C105 C 0.41415 0.34843 0.94073 0.0
C106 C 0.3247 0.27235 0.96458 0.0
O107 O 0.32492 0.26075 0.9342 0.0
O108 O 0.35647 0.28609 0.98224 0.0
C109 C 0.40596 0.25371 0.85356 0.0
O110 O 0.44144 0.28139 0.86412 0.0
C111 C 0.41424 0.2416 0.98422 0.0
Zn112 Zn 0.69647 0.0792 1.00274 0.0
Zn113 Zn 0.6984 0.10712 0.94876 0.0
O114 O 0.63595 0.07708 0.95691 0.0
O115 O 0.63926 0.0382 0.99679 0.0
O116 O 0.71118 0.13238 0.90076 0.0
O117 O 0.70982 0.12572 0.03187 0.0
O118 O 0.7338 0.15503 0.9825 0.0
C119 C 0.6185 0.04611 0.97649 0.0
C120 C 0.72989 0.04863 0.96465 0.0
O121 O 0.71316 0.06197 0.94432 0.0
O122 O 0.73687 0.06156 0.99487 0.0
C123 C 0.74726 0.14623 0.89084 0.0
O124 O 0.77291 0.14483 0.91224 0.0
C125 C 0.73188 0.15729 0.015 0.0
Zn126 Zn 0.4004 0.10988 0.49033 0.0
Zn127 Zn 0.39983 0.11197 0.55497 0.0
O128 O 0.44597 0.1005 0.54148 0.0
O129 O 0.45153 0.10916 0.48582 0.0
O130 O 0.40533 0.12544 0.60593 0.0
O131 O 0.396 0.15744 0.47841 0.0
O132 O 0.39292 0.15903 0.53431 0.0
C133 C 0.46244 0.09995 0.51327 0.0
C134 C 0.334 0.03946 0.52174 0.0
O135 O 0.34911 0.05716 0.54982 0.0
O136 O 0.3497 0.05623 0.49354 0.0
C137 C 0.37878 0.13187 0.61918 0.0
O138 O 0.34873 0.12734 0.60007 0.0
C139 C 0.3914 0.1731 0.50499 0.0
Zn140 Zn 0.87575 0.24993 0.51747 0.0
Zn141 Zn 0.85752 0.25337 0.57837 0.0
O142 O 0.8628 0.30657 0.55757 0.0
O143 O 0.88046 0.30232 0.50499 0.0
O144 O 0.83828 0.24826 0.62791 0.0
O145 O 0.82834 0.20034 0.50343 0.0
O146 O 0.81444 0.19713 0.55815 0.0
C147 C 0.87382 0.32167 0.52757 0.0
C148 C 0.93813 0.26019 0.56073 0.0
O149 O 0.91563 0.26391 0.58255 0.0
O150 O 0.92575 0.24956 0.5306 0.0
C151 C 0.83978 0.22108 0.64579 0.0
O152 O 0.85406 0.19982 0.6316 0.0
C153 C 0.80621 0.18143 0.52843 0.0
Zn154 Zn 0.64484 0.52309 0.50785 0.0
Zn155 Zn 0.66535 0.55458 0.58222 0.0
O156 O 0.61991 0.49571 0.5865 0.0
O157 O 0.62646 0.4742 0.5382 0.0
O158 O 0.68852 0.56972 0.63052 0.0
O159 O 0.70344 0.5524 0.49837 0.0
O160 O 0.7158 0.57383 0.55178 0.0
C161 C 0.60308 0.47554 0.56 0.0
C162 C 0.6206 0.58294 0.53814 0.0
O163 O 0.63773 0.58562 0.5668 0.0
O164 O 0.62093 0.56045 0.51449 0.0
C165 C 0.70003 0.54668 0.64388 0.0
O166 O 0.69529 0.51547 0.6264 0.0
C167 C 0.72788 0.57271 0.52164 0.0
H168 H 0.15885 0.31205 0.08866 0.0
H169 H 0.1145 0.29524 0.9853 0.0
H170 H 0.20977 0.29548 0.07071 0.0
H171 H 0.166 0.28071 0.967 0.0
H172 H 0.24614 0.23018 0.94403 0.0
H173 H 0.18981 0.23514 0.96734 0.0
H174 H 0.26948 0.32313 0.04001 0.0
H175 H 0.32455 0.31641 0.01809 0.0
C176 C 0.1602 0.30507 0.06212 0.0
C177 C 0.13275 0.30482 0.03843 0.0
C178 C 0.18939 0.29568 0.05173 0.0
C179 C 0.19213 0.28668 0.01732 0.0
C180 C 0.16444 0.28651 0.9938 0.0
C181 C 0.13503 0.29522 1.00427 0.0
C182 C 0.25129 0.25019 0.9652 0.0
C183 C 0.28968 0.27299 0.97911 0.0
C184 C 0.21916 0.25328 0.97848 0.0
C185 C 0.22504 0.27986 0.00545 0.0
C186 C 0.26343 0.30186 0.01971 0.0
C187 C 0.29522 0.29822 0.00689 0.0
H188 H 0.61499 0.81928 0.0374 0.0
H189 H 0.61001 0.79204 0.93005 0.0
H190 H 0.66273 0.88963 0.02488 0.0
H191 H 0.65862 0.86194 0.91771 0.0
H192 H 0.76018 0.00964 1.00274 0.0
H193 H 0.73028 0.93677 0.00623 0.0
H194 H 0.65988 0.92476 0.91645 0.0
H195 H 0.69048 -0.00277 0.91239 0.0
C196 C 0.62418 0.82825 0.01118 0.0
C197 C 0.60827 0.80011 0.98473 0.0
C198 C 0.65205 0.86848 1.00401 0.0
C199 C 0.66487 0.88143 0.97027 0.0
C200 C 0.64924 0.85312 0.94392 0.0
C201 C 0.62122 0.81302 0.95104 0.0
C202 C 0.73958 -0.00849 0.98291 0.0
C203 C 0.7267 0.00917 0.95796 0.0
C204 C 0.72201 0.9497 0.98521 0.0
C205 C 0.69143 0.92491 0.96251 0.0
C206 C 0.68299 0.94286 0.93464 0.0
C207 C 0.70075 -0.01535 0.93222 0.0
H208 H 0.15107 0.80356 0.05316 0.0
H209 H 0.16616 0.85047 0.95014 0.0
H210 H 0.07954 0.76074 0.04277 0.0
H211 H 0.09486 0.80853 0.94018 0.0
H212 H 0.94896 0.70815 0.02551 0.0
H213 H 0.01777 0.76213 0.03283 0.0
H214 H 0.04747 0.73796 0.9327 0.0
H215 H -0.02159 0.68457 0.92511 0.0
C216 C 0.13917 0.80499 0.02844 0.0
C217 C 0.16451 0.83024 1.00247 0.0
C218 C 0.0981 0.78073 0.02255 0.0
C219 C 0.08146 0.78132 0.99062 0.0
C220 C 0.10673 0.807 0.96489 0.0
C221 C 0.1477 0.8311 0.97071 0.0
C222 C 0.96997 0.71508 0.0047 0.0
C223 C 0.95845 0.69181 0.9749 0.0
C224 C 0.00947 0.74572 0.00906 0.0
C225 C 0.03832 0.75365 0.98374 0.0
C226 C 0.02599 0.73264 0.95273 0.0
C227 C -0.01366 0.70209 0.94829 0.0
H228 H 0.577 0.57913 0.48189 0.0
H229 H 0.61577 0.63801 0.57946 0.0
H230 H 0.54506 0.61875 0.46907 0.0
H231 H 0.58424 0.67827 0.56622 0.0
H232 H 0.50544 0.7299 0.54426 0.0
H233 H 0.51999 0.67601 0.55641 0.0
H234 H 0.56972 0.68962 0.4552 0.0
H235 H 0.55477 0.74319 0.44281 0.0
C236 C 0.57876 0.60055 0.50067 0.0
C237 C 0.5995 0.60581 0.53158 0.0
C238 C 0.56041 0.62327 0.49323 0.0
C239 C 0.56229 0.6518 0.51648 0.0
C240 C 0.58184 0.65615 0.5479 0.0
C241 C 0.60022 0.63335 0.55539 0.0
C242 C 0.51869 0.72084 0.5243 0.0
C243 C 0.52959 0.74137 0.49274 0.0
C244 C 0.52725 0.69012 0.53139 0.0
C245 C 0.54678 0.67917 0.50707 0.0
C246 C 0.5546 0.69733 0.47451 0.0
C247 C 0.54602 0.72809 0.46738 0.0
H248 H 0.18636 0.80708 0.43465 0.0
H249 H 0.17383 0.78104 0.54294 0.0
H250 H 0.23512 0.87704 0.44653 0.0
H251 H 0.22037 0.85094 0.55484 0.0
H252 H 0.32547 0.97924 0.56425 0.0
H253 H 0.28431 0.9072 0.55408 0.0
H254 H 0.23063 0.93228 0.46697 0.0
H255 H 0.27347 0.00408 0.47623 0.0
C256 C 0.19448 0.81608 0.46092 0.0
C257 C 0.17566 0.78861 0.48781 0.0
C258 C 0.22193 0.85635 0.46782 0.0
C259 C 0.23069 0.87004 0.50173 0.0
C260 C 0.21438 0.84174 0.52844 0.0
C261 C 0.1875 0.80146 0.52154 0.0
C262 C 0.30411 0.96914 0.54347 0.0
C263 C 0.30241 -0.00299 0.52108 0.0
C264 C 0.28072 0.92787 0.53743 0.0
C265 C 0.2547 0.91378 0.50921 0.0
C266 C 0.25131 0.94192 0.48821 0.0
C267 C 0.27523 -0.01694 0.49386 0.0
H268 H -0.01134 0.23881 0.53144 0.0
H269 H -0.01443 0.32367 0.60153 0.0
H270 H 0.06042 0.28302 0.52359 0.0
H271 H 0.05742 0.36839 0.59316 0.0
H272 H 0.16074 0.39247 0.47276 0.0
H273 H 0.09231 0.34795 0.49166 0.0
H274 H 0.12797 0.38125 0.59631 0.0
H275 H 0.19664 0.42641 0.57744 0.0
C276 C 0.00362 0.26628 0.54608 0.0
C277 C -0.0185 0.27806 0.56671 0.0
C278 C 0.04456 0.29188 0.5412 0.0
C279 C 0.06413 0.32981 0.55676 0.0
C280 C 0.04301 0.33952 0.58056 0.0
C281 C 0.00192 0.3137 0.5856 0.0
C282 C 0.15397 0.39097 0.49974 0.0
C283 C 0.18432 0.41266 0.52358 0.0
C284 C 0.11485 0.36499 0.51063 0.0
C285 C 0.10511 0.36013 0.54559 0.0
C286 C 0.13471 0.38402 0.56927 0.0
C287 C 0.17399 0.41004 0.55837 0.0
H288 H 0.64621 0.65589 0.06337 0.0
H289 H 0.58034 0.59243 0.97362 0.0
H290 H 0.68883 0.62554 0.05739 0.0
H291 H 0.62217 0.56177 0.96808 0.0
H292 H 0.74597 0.5485 0.0496 0.0
H293 H 0.69134 0.56232 0.05873 0.0
H294 H 0.69182 0.58831 0.95116 0.0
H295 H 0.74606 0.57402 0.94188 0.0
C296 C 0.64046 0.63505 0.04275 0.0
C297 C 0.61048 0.62716 0.01864 0.0
C298 C 0.66465 0.61747 0.0394 0.0
C299 C 0.65906 0.59156 0.01201 0.0
C300 C 0.62771 0.58218 0.98903 0.0
C301 C 0.60377 0.5998 0.99226 0.0
C302 C 0.73387 0.55634 0.02775 0.0
C303 C 0.75075 0.56073 0.99506 0.0
C304 C 0.70277 0.56454 0.03308 0.0
C305 C 0.68777 0.57707 0.00582 0.0
C306 C 0.70264 0.57857 0.97272 0.0
C307 C 0.73378 0.5704 0.96737 0.0
H308 H 0.44033 0.21724 0.03962 0.0
H309 H 0.37929 0.17535 0.94313 0.0
H310 H 0.41857 0.14814 0.05674 0.0
H311 H 0.35738 0.10636 0.96045 0.0
H312 H 0.34 -0.01365 0.99358 0.0
H313 H 0.37628 0.05631 0.97554 0.0
H314 H 0.35208 0.09172 0.07313 0.0
H315 H 0.316 0.02107 0.09155 0.0
C316 C 0.42308 0.19343 0.02169 0.0
C317 C 0.41105 0.20186 0.99016 0.0
C318 C 0.41029 0.15379 0.03171 0.0
C319 C 0.38554 0.12177 0.0103 0.0
C320 C 0.37645 0.13038 0.97758 0.0
C321 C 0.38913 0.17003 0.96757 0.0
C322 C 0.34226 0.00897 0.01125 0.0
C323 C 0.32446 -0.00183 0.04381 0.0
C324 C 0.36319 0.04911 1.00087 0.0
C325 C 0.36682 0.07954 0.02274 0.0
C326 C 0.35013 0.06894 0.05578 0.0
C327 C 0.32921 0.02855 0.06628 0.0
H328 H 0.9237 0.22335 0.12213 0.0
H329 H 0.95468 0.34578 0.09923 0.0
H330 H 0.85387 0.20098 0.10826 0.0
H331 H 0.88515 0.32307 0.08345 0.0
H332 H 0.79987 0.22406 0.99133 0.0
H333 H 0.85724 0.26889 0.02653 0.0
H334 H 0.78809 0.21444 0.11769 0.0
H335 H 0.73028 0.17082 0.08291 0.0
C336 C 0.91509 0.24569 0.11616 0.0
C337 C 0.94436 0.28622 0.11206 0.0
C338 C 0.87525 0.23293 0.10788 0.0
C339 C 0.86446 0.26037 0.09447 0.0
C340 C 0.89283 0.30149 0.09388 0.0
C341 C 0.93246 0.31444 0.10332 0.0
C342 C 0.79622 0.22301 0.0188 0.0
C343 C 0.76088 0.19317 0.03429 0.0
C344 C 0.82905 0.24869 0.03896 0.0
C345 C 0.82698 0.24457 0.07474 0.0
C346 C 0.79033 0.21804 0.09018 0.0
C347 C 0.75736 0.19299 0.07013 0.0
H348 H 0.39395 0.2261 0.55311 0.0
H349 H 0.35956 0.18842 0.44896 0.0
H350 H 0.36908 0.27344 0.54719 0.0
H351 H 0.33256 0.23332 0.44365 0.0
H352 H 0.28803 0.32661 0.53902 0.0
H353 H 0.3106 0.27754 0.54378 0.0
H354 H 0.34805 0.29946 0.43795 0.0
H355 H 0.32311 0.34653 0.43294 0.0
C356 C 0.38109 0.22796 0.529 0.0
C357 C 0.37908 0.20386 0.50145 0.0
C358 C 0.36635 0.2547 0.52567 0.0
C359 C 0.3485 0.2572 0.49494 0.0
C360 C 0.34674 0.23302 0.46746 0.0
C361 C 0.36218 0.20706 0.47056 0.0
C362 C 0.30037 0.32019 0.51666 0.0
C363 C 0.30364 0.34009 0.48557 0.0
C364 C 0.31387 0.29252 0.51947 0.0
C365 C 0.33178 0.28479 0.49142 0.0
C366 C 0.33395 0.30404 0.46003 0.0
C367 C 0.31962 0.33106 0.45706 0.0
H368 H 0.76549 0.15279 0.46964 0.0
H369 H 0.77257 0.11721 0.57315 0.0
H370 H 0.71895 0.08334 0.45532 0.0
H371 H 0.7261 0.04679 0.55853 0.0
H372 H 0.61081 0.93135 0.52134 0.0
H373 H 0.65699 -0.00085 0.54086 0.0
H374 H 0.72432 0.02338 0.44704 0.0
H375 H 0.67746 0.95577 0.42709 0.0
C376 C 0.75679 0.13003 0.48944 0.0
C377 C 0.77289 0.14032 0.52244 0.0
C378 C 0.73045 0.09015 0.48112 0.0
C379 C 0.71969 0.05942 0.50551 0.0
C380 C 0.734 0.06984 0.53913 0.0
C381 C 0.7604 0.11009 0.54757 0.0
C382 C 0.63582 0.95095 0.50505 0.0
C383 C 0.64037 0.93836 0.47252 0.0
C384 C 0.66232 -0.01021 0.51633 0.0
C385 C 0.69393 0.01684 0.49531 0.0
C386 C 0.69966 0.0035 0.46351 0.0
C387 C 0.67307 0.96469 0.45217 0.0
H388 H -0.01944 0.74151 0.51288 0.0
H389 H 0.95278 0.68983 0.41207 0.0
H390 H 0.91016 0.71054 0.5259 0.0
H391 H 0.88166 0.66105 0.42418 0.0
H392 H 0.77161 0.55829 0.47539 0.0
H393 H 0.83924 0.60435 0.45574 0.0
H394 H 0.84486 0.69557 0.52378 0.0
H395 H 0.77811 0.64804 0.545 0.0
C396 C 0.95937 0.72492 0.49288 0.0
C397 C -0.0277 0.71669 0.46195 0.0
C398 C 0.91864 0.70709 0.50037 0.0
C399 C 0.8899 0.68156 0.47667 0.0
C400 C 0.90295 0.67882 0.44371 0.0
C401 C 0.94382 0.69599 0.43647 0.0
C402 C 0.78765 0.58806 0.48638 0.0
C403 C 0.77005 0.59943 0.51209 0.0
C404 C 0.82619 0.61489 0.47466 0.0
C405 C 0.84771 0.65418 0.48773 0.0
C406 C 0.82969 0.66552 0.51336 0.0
C407 C 0.79148 0.63825 0.5257 0.0
H408 H 0.26882 0.39036 0.31572 0.0
H409 H 0.21682 0.45241 0.36803 0.0
H410 H 0.22992 0.38544 0.2649 0.0
H411 H 0.17812 0.44771 0.31706 0.0
H412 H 0.07749 0.38025 0.2372 0.0
H413 H 0.12124 0.39406 0.28631 0.0
H414 H 0.22111 0.42461 0.21881 0.0
H415 H 0.17714 0.41048 0.16947 0.0
C416 C 0.24942 0.40334 0.3163 0.0
C417 C 0.24592 0.42164 0.3461 0.0
C418 C 0.22724 0.40071 0.28704 0.0
C419 C 0.2007 0.41602 0.28687 0.0
C420 C 0.19789 0.43516 0.31641 0.0
C421 C 0.22032 0.43808 0.3456 0.0
C422 C 0.10886 0.39029 0.23273 0.0
C423 C 0.12368 0.39412 0.1993 0.0
C424 C 0.13404 0.39842 0.26097 0.0
C425 C 0.17474 0.41032 0.25659 0.0
C426 C 0.18983 0.41507 0.22313 0.0
C427 C 0.16467 0.40726 0.19482 0.0
H428 H 0.61216 0.72636 0.17613 0.0
H429 H 0.50534 0.72509 0.14012 0.0
H430 H 0.60588 0.75286 0.23072 0.0
H431 H 0.4988 0.75117 0.19497 0.0
H432 H 0.52956 0.84396 0.28041 0.0
H433 H 0.53268 0.81353 0.22699 0.0
H434 H 0.56516 0.73598 0.28231 0.0
H435 H 0.56259 0.76688 0.33587 0.0
C436 C 0.58713 0.73144 0.17992 0.0
C437 C 0.55934 0.72367 0.1536 0.0
C438 C 0.58341 0.74644 0.21136 0.0
C439 C 0.55191 0.75433 0.2173 0.0
C440 C 0.52374 0.74597 0.19116 0.0
C441 C 0.52733 0.73072 0.15976 0.0
C442 C 0.53729 0.82036 0.28128 0.0
C443 C 0.54591 0.808 0.31254 0.0
C444 C 0.53882 0.80269 0.25058 0.0
C445 C 0.54913 0.77222 0.25025 0.0
C446 C 0.55755 0.75966 0.28154 0.0
C447 C 0.55587 0.77726 0.3123 0.0
H448 H 0.23465 0.81156 0.17987 0.0
H449 H 0.13809 0.8362 0.16145 0.0
H450 H 0.20524 0.78189 0.23545 0.0
H451 H 0.10878 0.80639 0.21648 0.0
H452 H 0.099 0.80147 0.33266 0.0
H453 H 0.12603 0.82511 0.27589 0.0
H454 H 0.14583 0.72431 0.2642 0.0
H455 H 0.11876 0.70049 0.32177 0.0
C456 C 0.20709 0.81047 0.18753 0.0
C457 C 0.18896 0.82661 0.1662 0.0
C458 C 0.19009 0.79321 0.2193 0.0
C459 C 0.15476 0.79197 0.23056 0.0
C460 C 0.13631 0.80736 0.20888 0.0
C461 C 0.1531 0.82435 0.17718 0.0
C462 C 0.10889 0.78408 0.31806 0.0
C463 C 0.10658 0.74897 0.33187 0.0
C464 C 0.12424 0.7976 0.28532 0.0
C465 C 0.138 0.77658 0.26534 0.0
C466 C 0.13572 0.74135 0.279 0.0
C467 C 0.11993 0.72754 0.31187 0.0
H468 H 0.77933 0.6191 0.85351 0.0
H469 H 0.8377 0.5524 0.82404 0.0
H470 H 0.74954 0.60927 0.79727 0.0
H471 H 0.80908 0.54384 0.76697 0.0
H472 H 0.71696 0.49687 0.6816 0.0
H473 H 0.74861 0.50864 0.73716 0.0
H474 H 0.76002 0.62674 0.73919 0.0
H475 H 0.72669 0.61411 0.68384 0.0
C476 C 0.78626 0.60271 0.83487 0.0
C477 C 0.81094 0.58647 0.84344 0.0
C478 C 0.7693 0.59729 0.80236 0.0
C479 C 0.77672 0.57573 0.77726 0.0
C480 C 0.802 0.56003 0.78568 0.0
C481 C 0.81873 0.56517 0.81839 0.0
C482 C 0.72613 0.52539 0.69386 0.0
C483 C 0.71914 0.55451 0.67817 0.0
C484 C 0.74471 0.53231 0.72575 0.0
C485 C 0.75729 0.56879 0.74288 0.0
C486 C 0.75034 0.59803 0.72713 0.0
C487 C 0.73134 0.59091 0.69526 0.0
H488 H 0.33765 0.19345 0.82437 0.0
H489 H 0.46485 0.26797 0.80721 0.0
H490 H 0.33103 0.16122 0.76943 0.0
H491 H 0.4581 0.23659 0.75195 0.0
H492 H 0.43889 0.14937 0.66581 0.0
H493 H 0.44506 0.17614 0.72335 0.0
H494 H 0.33326 0.17558 0.71004 0.0
H495 H 0.32666 0.14804 0.65328 0.0
C496 C 0.36421 0.20304 0.80888 0.0
C497 C 0.40176 0.23343 0.82028 0.0
C498 C 0.3604 0.18468 0.77722 0.0
C499 C 0.39401 0.19629 0.75603 0.0
C500 C 0.43162 0.22638 0.76767 0.0
C501 C 0.43544 0.24464 0.79934 0.0
C502 C 0.4155 0.15466 0.67531 0.0
C503 C 0.38228 0.14649 0.65482 0.0
C504 C 0.41915 0.1703 0.70825 0.0
C505 C 0.38967 0.17813 0.72151 0.0
C506 C 0.35627 0.16942 0.70107 0.0
C507 C 0.35262 0.15381 0.66828 0.0
H508 H 0.82122 0.17347 0.86309 0.0
H509 H 0.70315 0.15299 0.83795 0.0
H510 H 0.84273 0.194 0.8046 0.0
H511 H 0.72501 0.17358 0.7787 0.0
H512 H 0.79671 0.24895 0.68172 0.0
H513 H 0.77325 0.23312 0.74115 0.0
H514 H 0.82715 0.15789 0.75018 0.0
H515 H 0.85048 0.17358 0.69159 0.0
C516 C 0.79978 0.17349 0.84515 0.0
C517 C 0.76028 0.16123 0.85533 0.0
C518 C 0.81216 0.18515 0.81146 0.0
C519 C 0.78551 0.18504 0.78685 0.0
C520 C 0.74631 0.17412 0.7971 0.0
C521 C 0.73376 0.16216 0.83099 0.0
C522 C 0.80361 0.22915 0.6965 0.0
C523 C 0.82565 0.21269 0.68186 0.0
C524 C 0.78994 0.21988 0.73043 0.0
C525 C 0.79853 0.19442 0.75047 0.0
C526 C 0.82047 0.17804 0.73569 0.0
C527 C 0.83372 0.18694 0.70192 0.0
H528 H 0.04941 0.46169 0.07237 0.0
H529 H 0.03268 0.40586 0.97386 0.0
H530 H 0.01181 0.49412 0.05291 0.0
H531 H -0.00518 0.43788 0.95458 0.0
H532 H 0.94193 0.52397 0.93164 0.0
H533 H -0.00922 0.50159 0.94296 0.0
H534 H 0.93728 0.45724 0.04203 0.0
H535 H 0.88886 0.47904 0.0308 0.0
C536 C 0.03914 0.45763 0.04618 0.0
C537 C 0.04356 0.43089 0.02479 0.0
C538 C 0.01708 0.47569 0.03516 0.0
C539 C -0.00058 0.46757 1.00252 0.0
C540 C 0.00779 0.4445 0.97989 0.0
C541 C 0.02956 0.42624 0.99097 0.0
C542 C 0.94001 0.50843 0.95539 0.0
C543 C 0.91167 0.50346 0.98039 0.0
C544 C 0.96826 0.49612 0.96205 0.0
C545 C 0.96868 0.47895 0.99387 0.0
C546 C 0.93865 0.47168 0.01778 0.0
C547 C 0.91051 0.48365 0.0111 0.0
H548 H 0.41979 0.57935 0.95421 0.0
H549 H 0.46414 0.56266 0.05081 0.0
H550 H 0.40083 0.51074 0.93836 0.0
H551 H 0.44681 0.49517 0.03458 0.0
H552 H 0.40059 0.36803 1.00377 0.0
H553 H 0.4016 0.42874 0.02177 0.0
H554 H 0.43666 0.47827 0.91993 0.0
H555 H 0.43337 0.41575 0.90137 0.0
C556 C 0.42443 0.56073 0.97253 0.0
C557 C 0.44416 0.57695 1.0036 0.0
C558 C 0.41423 0.52154 0.96314 0.0
C559 C 0.42342 0.49762 0.98462 0.0
C560 C 0.43921 0.51244 0.01718 0.0
C561 C 0.44908 0.55141 0.02666 0.0
C562 C 0.4087 0.39183 0.98511 0.0
C563 C 0.41749 0.38717 0.95115 0.0
C564 C 0.40928 0.42687 0.99553 0.0
C565 C 0.41942 0.45882 0.9725 0.0
C566 C 0.42805 0.45414 0.93837 0.0
C567 C 0.42675 0.41854 0.92774 0.0
H568 H 0.39314 0.89073 0.07049 0.0
H569 H 0.35537 0.91809 0.9749 0.0
H570 H 0.46265 0.92722 0.05079 0.0
H571 H 0.42461 0.95452 0.95536 0.0
H572 H 0.55811 0.06234 0.95912 0.0
H573 H 0.48619 0.01895 0.97066 0.0
H574 H 0.50848 0.92543 0.00786 0.0
H575 H 0.57945 0.96828 0.99667 0.0
C576 C 0.39953 0.90375 0.04505 0.0
C577 C 0.36871 0.90156 0.02437 0.0
C578 C 0.43936 0.92477 0.03374 0.0
C579 C 0.44918 0.94416 1.00159 0.0
C580 C 0.41814 0.94053 0.98043 0.0
C581 C 0.37839 0.9193 0.99159 0.0
C582 C 0.54741 0.03225 0.96912 0.0
C583 C 0.57451 0.01902 0.97745 0.0
C584 C 0.50631 0.0074 0.97579 0.0
C585 C 0.49178 0.96898 0.99079 0.0
C586 C 0.51875 0.95513 0.99712 0.0
C587 C 0.55947 0.97975 0.99052 0.0
H588 H 0.52121 0.90699 0.51285 0.0
H589 H 0.49346 0.92446 0.40944 0.0
H590 H 0.51758 0.96535 0.531 0.0
H591 H 0.48804 -0.01754 0.42801 0.0
H592 H 0.51184 0.10338 0.46173 0.0
H593 H 0.52689 0.05053 0.44699 0.0
H594 H 0.4726 -0.01122 0.54161 0.0
H595 H 0.45888 0.04216 0.55671 0.0
C596 C 0.51359 0.92287 0.49399 0.0
C597 C 0.50743 0.91081 0.45962 0.0
C598 C 0.5115 0.95653 0.5045 0.0
C599 C 0.50277 0.97901 0.48105 0.0
C600 C 0.4957 0.96644 0.44672 0.0
C601 C 0.49817 0.93281 0.4361 0.0
C602 C 0.50446 0.07923 0.47993 0.0
C603 C 0.48396 0.07695 0.51033 0.0
C604 C 0.5124 0.0485 0.47119 0.0
C605 C 0.4999 0.01464 0.49256 0.0
C606 C 0.48271 0.01427 0.5244 0.0
C607 C 0.47509 0.04519 0.53328 0.0
H608 H 0.87878 0.35515 0.465 0.0
H609 H 0.89905 0.38446 0.57201 0.0
H610 H 0.91435 0.42647 0.45016 0.0
H611 H 0.93543 0.45583 0.55724 0.0
H612 H -0.02619 0.58161 0.52293 0.0
H613 H 0.9309 0.5109 0.53462 0.0
H614 H -0.01723 0.48189 0.44929 0.0
H615 H 0.02558 0.554 0.43667 0.0
C616 C 0.89018 0.37692 0.48543 0.0
C617 C 0.88605 0.36414 0.51974 0.0
C618 C 0.91109 0.41781 0.47685 0.0
C619 C 0.92845 0.44701 0.50238 0.0
C620 C 0.92227 0.43425 0.53683 0.0
C621 C 0.90114 0.39328 0.54542 0.0
C622 C -0.02357 0.56037 0.50655 0.0
C623 C 0.00377 0.57366 0.47907 0.0
C624 C 0.95169 0.51959 0.51343 0.0
C625 C 0.95358 0.49051 0.49329 0.0
C626 C -0.0197 0.50353 0.46524 0.0
C627 C 0.00505 0.54478 0.45807 0.0
H628 H 0.43073 0.55608 0.52044 0.0
H629 H 0.40219 0.46321 0.44604 0.0
H630 H 0.49063 0.55339 0.53654 0.0
H631 H 0.45985 0.45839 0.46342 0.0
H632 H 0.5734 0.46127 0.49477 0.0
H633 H 0.52517 0.4771 0.47 0.0
H634 H 0.50396 0.51115 0.56951 0.0
H635 H 0.55475 0.49821 0.59377 0.0
C636 C 0.4379 0.53596 0.50678 0.0
C637 C 0.41139 0.50965 0.48216 0.0
C638 C 0.47179 0.53366 0.51657 0.0
C639 C 0.4796 0.50451 0.50237 0.0
C640 C 0.4553 0.48128 0.47518 0.0
C641 C 0.42201 0.48423 0.46492 0.0
C642 C 0.55853 0.47219 0.51146 0.0
C643 C 0.56887 0.47935 0.54623 0.0
C644 C 0.53051 0.48117 0.49718 0.0
C645 C 0.51066 0.49612 0.51743 0.0
C646 C 0.51941 0.50111 0.55264 0.0
C647 C 0.54816 0.49298 0.5668 0.0
loop_
_geom_bond_atom_site_label_1
_geom_bond_atom_site_label_2
_geom_bond_distance
_geom_bond_site_symmetry_2
_ccdc_geom_bond_type
Zn0 O3 2.031 . S
Zn0 O5 2.049 1_554 S
Zn0 O10 2.067 . S
Zn1 O2 1.962 . S
Zn1 O4 1.986 . S
Zn1 O6 1.996 . S
Zn1 O9 1.943 . S
O2 Zn1 1.962 . S
O2 C7 1.254 . S
O3 Zn0 2.031 . S
O3 C7 1.269 . S
O4 Zn1 1.986 . S
O4 C11 1.262 . S
O5 Zn0 2.049 1_556 S
O5 C13 1.260 1_556 S
O6 Zn1 1.996 . S
O6 C13 1.257 . S
C7 O2 1.254 . S
C7 O3 1.269 . S
C8 O9 1.249 . S
C8 O10 1.270 . S
O9 Zn1 1.943 . S
O9 C8 1.249 . S
O10 Zn0 2.067 . S
O10 C8 1.270 . S
C11 O4 1.262 . S
C11 O12 1.232 . S
O12 C11 1.232 . S
C13 O5 1.260 1_554 S
C13 O6 1.257 . S
Zn14 O17 2.031 . S
Zn14 O19 2.049 1_554 S
Zn14 O24 2.067 . S
Zn15 O16 1.962 . S
Zn15 O18 1.986 . S
Zn15 O20 1.996 . S
Zn15 O23 1.943 . S
O16 Zn15 1.962 . S
O16 C21 1.254 . S
O17 Zn14 2.031 . S
O17 C21 1.269 . S
O18 Zn15 1.986 . S
O18 C25 1.262 . S
O19 Zn14 2.049 1_556 S
O19 C27 1.260 1_556 S
O20 Zn15 1.996 . S
O20 C27 1.257 . S
C21 O16 1.254 . S
C21 O17 1.269 . S
C22 O23 1.249 . S
C22 O24 1.270 . S
O23 Zn15 1.943 . S
O23 C22 1.249 . S
O24 Zn14 2.067 . S
O24 C22 1.270 . S
C25 O18 1.262 . S
C25 O26 1.232 . S
O26 C25 1.232 . S
C27 O19 1.260 1_554 S
C27 O20 1.257 . S
Zn28 O31 2.031 . S
Zn28 O33 2.049 1_554 S
Zn28 O38 2.067 . S
Zn29 O30 1.962 . S
Zn29 O32 1.986 . S
Zn29 O34 1.996 . S
Zn29 O37 1.943 . S
O30 Zn29 1.962 . S
O30 C35 1.254 . S
O31 Zn28 2.031 . S
O31 C35 1.269 . S
O32 Zn29 1.986 . S
O32 C39 1.262 . S
O33 Zn28 2.049 1_556 S
O33 C41 1.260 1_556 S
O34 Zn29 1.996 . S
O34 C41 1.257 . S
C35 O30 1.254 . S
C35 O31 1.269 . S
C36 O37 1.249 . S
C36 O38 1.270 . S
O37 Zn29 1.943 . S
O37 C36 1.249 . S
O38 Zn28 2.067 . S
O38 C36 1.270 . S
C39 O32 1.262 . S
C39 O40 1.232 . S
O40 C39 1.232 . S
C41 O33 1.260 1_554 S
C41 O34 1.257 . S
Zn42 O45 2.031 . S
Zn42 O47 2.049 . S
Zn42 O52 2.067 . S
Zn43 O44 1.962 . S
Zn43 O46 1.986 . S
Zn43 O48 1.996 . S
Zn43 O51 1.943 . S
O44 Zn43 1.962 . S
O44 C49 1.254 . S
O45 Zn42 2.031 . S
O45 C49 1.269 . S
O46 Zn43 1.986 . S
O46 C53 1.262 . S
O47 Zn42 2.049 . S
O47 C55 1.260 . S
O48 Zn43 1.996 . S
O48 C55 1.257 . S
C49 O44 1.254 . S
C49 O45 1.269 . S
C50 O51 1.249 . S
C50 O52 1.270 . S
O51 Zn43 1.943 . S
O51 C50 1.249 . S
O52 Zn42 2.067 . S
O52 C50 1.270 . S
C53 O46 1.262 . S
C53 O54 1.232 . S
O54 C53 1.232 . S
C55 O47 1.260 . S
C55 O48 1.257 . S
Zn56 O59 2.031 . S
Zn56 O61 2.049 . S
Zn56 O66 2.067 . S
Zn57 O58 1.962 . S
Zn57 O60 1.986 . S
Zn57 O62 1.996 . S
Zn57 O65 1.943 . S
O58 Zn57 1.962 . S
O58 C63 1.254 . S
O59 Zn56 2.031 . S
O59 C63 1.269 . S
O60 Zn57 1.986 . S
O60 C67 1.262 . S
O61 Zn56 2.049 . S
O61 C69 1.260 . S
O62 Zn57 1.996 . S
O62 C69 1.257 . S
C63 O58 1.254 . S
C63 O59 1.269 . S
C64 O65 1.249 . S
C64 O66 1.270 . S
O65 Zn57 1.943 . S
O65 C64 1.249 . S
O66 Zn56 2.067 . S
O66 C64 1.270 . S
C67 O60 1.262 . S
C67 O68 1.232 . S
O68 C67 1.232 . S
C69 O61 1.260 . S
C69 O62 1.257 . S
Zn70 O73 2.031 . S
Zn70 O75 2.049 . S
Zn70 O80 2.067 . S
Zn71 O72 1.962 . S
Zn71 O74 1.986 . S
Zn71 O76 1.996 . S
Zn71 O79 1.943 . S
O72 Zn71 1.962 . S
O72 C77 1.254 . S
O73 Zn70 2.031 . S
O73 C77 1.269 . S
O74 Zn71 1.986 . S
O74 C81 1.262 . S
O75 Zn70 2.049 . S
O75 C83 1.260 . S
O76 Zn71 1.996 . S
O76 C83 1.257 . S
C77 O72 1.254 . S
C77 O73 1.269 . S
C78 O79 1.249 . S
C78 O80 1.270 . S
O79 Zn71 1.943 . S
O79 C78 1.249 . S
O80 Zn70 2.067 . S
O80 C78 1.270 . S
C81 O74 1.262 . S
C81 O82 1.232 . S
O82 C81 1.232 . S
C83 O75 1.260 . S
C83 O76 1.257 . S
Zn84 O87 2.031 . S
Zn84 O89 2.049 1_556 S
Zn84 O94 2.067 . S
Zn85 O86 1.962 . S
Zn85 O88 1.986 . S
Zn85 O90 1.996 . S
Zn85 O93 1.943 . S
O86 Zn85 1.962 . S
O86 C91 1.254 . S
O87 Zn84 2.031 . S
O87 C91 1.269 . S
O88 Zn85 1.986 . S
O88 C95 1.262 . S
O89 Zn84 2.049 1_554 S
O89 C97 1.260 1_554 S
O90 Zn85 1.996 . S
O90 C97 1.257 . S
C91 O86 1.254 . S
C91 O87 1.269 . S
C92 O93 1.249 . S
C92 O94 1.270 . S
O93 Zn85 1.943 . S
O93 C92 1.249 . S
O94 Zn84 2.067 . S
O94 C92 1.270 . S
C95 O88 1.262 . S
C95 O96 1.232 . S
O96 C95 1.232 . S
C97 O89 1.260 1_556 S
C97 O90 1.257 . S
Zn98 O101 2.031 . S
Zn98 O103 2.049 1_556 S
Zn98 O108 2.067 . S
Zn99 O100 1.962 . S
Zn99 O102 1.986 . S
Zn99 O104 1.996 . S
Zn99 O107 1.943 . S
O100 Zn99 1.962 . S
O100 C105 1.254 . S
O101 Zn98 2.031 . S
O101 C105 1.269 . S
O102 Zn99 1.986 . S
O102 C109 1.262 . S
O103 Zn98 2.049 1_554 S
O103 C111 1.260 1_554 S
O104 Zn99 1.996 . S
O104 C111 1.257 . S
C105 O100 1.254 . S
C105 O101 1.269 . S
C106 O107 1.249 . S
C106 O108 1.270 . S
O107 Zn99 1.943 . S
O107 C106 1.249 . S
O108 Zn98 2.067 . S
O108 C106 1.270 . S
C109 O102 1.262 . S
C109 O110 1.232 . S
O110 C109 1.232 . S
C111 O103 1.260 1_556 S
C111 O104 1.257 . S
Zn112 O115 2.031 . S
Zn112 O117 2.049 1_556 S
Zn112 O122 2.067 . S
Zn113 O114 1.962 . S
Zn113 O116 1.986 . S
Zn113 O118 1.996 . S
Zn113 O121 1.943 . S
O114 Zn113 1.962 . S
O114 C119 1.254 . S
O115 Zn112 2.031 . S
O115 C119 1.269 . S
O116 Zn113 1.986 . S
O116 C123 1.262 . S
O117 Zn112 2.049 1_554 S
O117 C125 1.260 1_554 S
O118 Zn113 1.996 . S
O118 C125 1.257 . S
C119 O114 1.254 . S
C119 O115 1.269 . S
C120 O121 1.249 . S
C120 O122 1.270 . S
O121 Zn113 1.943 . S
O121 C120 1.249 . S
O122 Zn112 2.067 . S
O122 C120 1.270 . S
C123 O116 1.262 . S
C123 O124 1.232 . S
O124 C123 1.232 . S
C125 O117 1.260 1_556 S
C125 O118 1.257 . S
Zn126 O129 2.031 . S
Zn126 O131 2.049 . S
Zn126 O136 2.067 . S
Zn127 O128 1.962 . S
Zn127 O130 1.986 . S
Zn127 O132 1.996 . S
Zn127 O135 1.943 . S
O128 Zn127 1.962 . S
O128 C133 1.254 . S
O129 Zn126 2.031 . S
O129 C133 1.269 . S
O130 Zn127 1.986 . S
O130 C137 1.262 . S
O131 Zn126 2.049 . S
O131 C139 1.260 . S
O132 Zn127 1.996 . S
O132 C139 1.257 . S
C133 O128 1.254 . S
C133 O129 1.269 . S
C134 O135 1.249 . S
C134 O136 1.270 . S
O135 Zn127 1.943 . S
O135 C134 1.249 . S
O136 Zn126 2.067 . S
O136 C134 1.270 . S
C137 O130 1.262 . S
C137 O138 1.232 . S
O138 C137 1.232 . S
C139 O131 1.260 . S
C139 O132 1.257 . S
Zn140 O143 2.031 . S
Zn140 O145 2.049 . S
Zn140 O150 2.067 . S
Zn141 O142 1.962 . S
Zn141 O144 1.986 . S
Zn141 O146 1.996 . S
Zn141 O149 1.943 . S
O142 Zn141 1.962 . S
O142 C147 1.254 . S
O143 Zn140 2.031 . S
O143 C147 1.269 . S
O144 Zn141 1.986 . S
O144 C151 1.262 . S
O145 Zn140 2.049 . S
O145 C153 1.260 . S
O146 Zn141 1.996 . S
O146 C153 1.257 . S
C147 O142 1.254 . S
C147 O143 1.269 . S
C148 O149 1.249 . S
C148 O150 1.270 . S
O149 Zn141 1.943 . S
O149 C148 1.249 . S
O150 Zn140 2.067 . S
O150 C148 1.270 . S
C151 O144 1.262 . S
C151 O152 1.232 . S
O152 C151 1.232 . S
C153 O145 1.260 . S
C153 O146 1.257 . S
Zn154 O157 2.031 . S
Zn154 O159 2.049 . S
Zn154 O164 2.067 . S
Zn155 O156 1.962 . S
Zn155 O158 1.986 . S
Zn155 O160 1.996 . S
Zn155 O163 1.943 . S
O156 Zn155 1.962 . S
O156 C161 1.254 . S
O157 Zn154 2.031 . S
O157 C161 1.269 . S
O158 Zn155 1.986 . S
O158 C165 1.262 . S
O159 Zn154 2.049 . S
O159 C167 1.260 . S
O160 Zn155 1.996 . S
O160 C167 1.257 . S
C161 O156 1.254 . S
C161 O157 1.269 . S
C162 O163 1.249 . S
C162 O164 1.270 . S
O163 Zn155 1.943 . S
O163 C162 1.249 . S
O164 Zn154 2.067 . S
O164 C162 1.270 . S
C165 O158 1.262 . S
C165 O166 1.232 . S
O166 C165 1.232 . S
C167 O159 1.260 . S
C167 O160 1.257 . S
H168 C176 0.950 . S
H169 C181 0.950 . S
H170 C178 0.950 . S
H171 C180 0.950 . S
H172 C182 0.950 . S
H173 C184 0.950 . S
H174 C186 0.950 1_554 S
H175 C187 0.950 . S
C176 H168 0.950 . S
C176 C177 1.386 . S
C176 C178 1.391 . S
C177 C176 1.386 . S
C177 C181 1.393 1_554 S
C178 H170 0.950 . S
C178 C176 1.391 . S
C178 C179 1.400 1_554 S
C179 C178 1.400 1_556 S
C179 C180 1.398 . S
C179 C185 1.491 . S
C180 H171 0.950 . S
C180 C179 1.398 . S
C180 C181 1.391 . S
C181 H169 0.950 . S
C181 C177 1.393 1_556 S
C181 C180 1.391 . S
C182 H172 0.950 . S
C182 C183 1.386 . S
C182 C184 1.391 . S
C183 C182 1.386 . S
C183 C187 1.393 . S
C184 H173 0.950 . S
C184 C182 1.391 . S
C184 C185 1.400 . S
C185 C179 1.491 . S
C185 C184 1.400 . S
C185 C186 1.398 . S
C186 H174 0.950 1_556 S
C186 C185 1.398 . S
C186 C187 1.391 . S
C187 H175 0.950 . S
C187 C183 1.393 . S
C187 C186 1.391 . S
H188 C196 0.950 . S
H189 C201 0.950 . S
H190 C198 0.950 . S
H191 C200 0.950 . S
H192 C202 0.950 . S
H193 C204 0.950 . S
H194 C206 0.950 . S
H195 C207 0.950 . S
C196 H188 0.950 . S
C196 C197 1.386 . S
C196 C198 1.391 . S
C197 C196 1.386 . S
C197 C201 1.393 . S
C198 H190 0.950 . S
C198 C196 1.391 . S
C198 C199 1.400 1_554 S
C199 C198 1.400 1_556 S
C199 C200 1.398 . S
C199 C205 1.491 . S
C200 H191 0.950 . S
C200 C199 1.398 . S
C200 C201 1.391 1_556 S
C201 H189 0.950 . S
C201 C197 1.393 . S
C201 C200 1.391 1_554 S
C202 H192 0.950 . S
C202 C203 1.386 . S
C202 C204 1.391 . S
C203 C202 1.386 . S
C203 C207 1.393 . S
C204 H193 0.950 . S
C204 C202 1.391 . S
C204 C205 1.400 . S
C205 C199 1.491 . S
C205 C204 1.400 . S
C205 C206 1.398 . S
C206 H194 0.950 . S
C206 C205 1.398 . S
C206 C207 1.391 . S
C207 H195 0.950 . S
C207 C203 1.393 . S
C207 C206 1.391 . S
H208 C216 0.950 . S
H209 C221 0.950 . S
H210 C218 0.950 . S
H211 C220 0.950 . S
H212 C222 0.950 . S
H213 C224 0.950 . S
H214 C226 0.950 . S
H215 C227 0.950 . S
C216 H208 0.950 . S
C216 C217 1.386 . S
C216 C218 1.391 . S
C217 C216 1.386 . S
C217 C221 1.393 . S
C218 H210 0.950 . S
C218 C216 1.391 . S
C218 C219 1.400 1_554 S
C219 C218 1.400 1_556 S
C219 C220 1.398 . S
C219 C225 1.491 . S
C220 H211 0.950 . S
C220 C219 1.398 . S
C220 C221 1.391 1_556 S
C221 H209 0.950 . S
C221 C217 1.393 . S
C221 C220 1.391 1_554 S
C222 H212 0.950 . S
C222 C223 1.386 . S
C222 C224 1.391 . S
C223 C222 1.386 . S
C223 C227 1.393 . S
C224 H213 0.950 . S
C224 C222 1.391 . S
C224 C225 1.400 . S
C225 C219 1.491 . S
C225 C224 1.400 . S
C225 C226 1.398 . S
C226 H214 0.950 . S
C226 C225 1.398 . S
C226 C227 1.391 . S
C227 H215 0.950 . S
C227 C223 1.393 . S
C227 C226 1.391 . S
H228 C236 0.950 . S
H229 C241 0.950 . S
H230 C238 0.950 . S
H231 C240 0.950 . S
H232 C242 0.950 . S
H233 C244 0.950 . S
H234 C246 0.950 . S
H235 C247 0.950 . S
C236 H228 0.950 . S
C236 C237 1.386 . S
C236 C238 1.391 . S
C237 C236 1.386 . S
C237 C241 1.393 . S
C238 H230 0.950 . S
C238 C236 1.391 . S
C238 C239 1.400 . S
C239 C238 1.400 . S
C239 C240 1.398 . S
C239 C245 1.491 . S
C240 H231 0.950 . S
C240 C239 1.398 . S
C240 C241 1.391 . S
C241 H229 0.950 . S
C241 C237 1.393 . S
C241 C240 1.391 . S
C242 H232 0.950 . S
C242 C243 1.386 . S
C242 C244 1.391 . S
C243 C242 1.386 . S
C243 C247 1.393 . S
C244 H233 0.950 . S
C244 C242 1.391 . S
C244 C245 1.400 . S
C245 C239 1.491 . S
C245 C244 1.400 . S
C245 C246 1.398 . S
C246 H234 0.950 . S
C246 C245 1.398 . S
C246 C247 1.391 . S
C247 H235 0.950 . S
C247 C243 1.393 . S
C247 C246 1.391 . S
H248 C256 0.950 . S
H249 C261 0.950 . S
H250 C258 0.950 . S
H251 C260 0.950 . S
H252 C262 0.950 . S
H253 C264 0.950 . S
H254 C266 0.950 . S
H255 C267 0.950 1_545 S
C256 H248 0.950 . S
C256 C257 1.386 . S
C256 C258 1.391 . S
C257 C256 1.386 . S
C257 C261 1.393 . S
C258 H250 0.950 . S
C258 C256 1.391 . S
C258 C259 1.400 . S
C259 C258 1.400 . S
C259 C260 1.398 . S
C259 C265 1.491 . S
C260 H251 0.950 . S
C260 C259 1.398 . S
C260 C261 1.391 . S
C261 H249 0.950 . S
C261 C257 1.393 . S
C261 C260 1.391 . S
C262 H252 0.950 . S
C262 C263 1.386 . S
C262 C264 1.391 . S
C263 C262 1.386 . S
C263 C267 1.393 . S
C264 H253 0.950 . S
C264 C262 1.391 . S
C264 C265 1.400 . S
C265 C259 1.491 . S
C265 C264 1.400 . S
C265 C266 1.398 . S
C266 H254 0.950 . S
C266 C265 1.398 . S
C266 C267 1.391 . S
C267 H255 0.950 1_565 S
C267 C263 1.393 . S
C267 C266 1.391 . S
H268 C276 0.950 . S
H269 C281 0.950 . S
H270 C278 0.950 . S
H271 C280 0.950 . S
H272 C282 0.950 . S
H273 C284 0.950 . S
H274 C286 0.950 . S
H275 C287 0.950 . S
C276 H268 0.950 . S
C276 C277 1.386 . S
C276 C278 1.391 . S
C277 C276 1.386 . S
C277 C281 1.393 . S
C278 H270 0.950 . S
C278 C276 1.391 . S
C278 C279 1.400 . S
C279 C278 1.400 . S
C279 C280 1.398 . S
C279 C285 1.491 . S
C280 H271 0.950 . S
C280 C279 1.398 . S
C280 C281 1.391 . S
C281 H269 0.950 . S
C281 C277 1.393 . S
C281 C280 1.391 . S
C282 H272 0.950 . S
C282 C283 1.386 . S
C282 C284 1.391 . S
C283 C282 1.386 . S
C283 C287 1.393 . S
C284 H273 0.950 . S
C284 C282 1.391 . S
C284 C285 1.400 . S
C285 C279 1.491 . S
C285 C284 1.400 . S
C285 C286 1.398 . S
C286 H274 0.950 . S
C286 C285 1.398 . S
C286 C287 1.391 . S
C287 H275 0.950 . S
C287 C283 1.393 . S
C287 C286 1.391 . S
H288 C296 0.950 . S
H289 C301 0.950 . S
H290 C298 0.950 1_556 S
H291 C300 0.950 . S
H292 C302 0.950 . S
H293 C304 0.950 . S
H294 C306 0.950 . S
H295 C307 0.950 . S
C296 H288 0.950 . S
C296 C297 1.386 . S
C296 C298 1.391 . S
C297 C296 1.386 . S
C297 C301 1.393 . S
C298 H290 0.950 1_554 S
C298 C296 1.391 . S
C298 C299 1.400 . S
C299 C298 1.400 . S
C299 C300 1.398 . S
C299 C305 1.491 . S
C300 H291 0.950 . S
C300 C299 1.398 . S
C300 C301 1.391 . S
C301 H289 0.950 . S
C301 C297 1.393 . S
C301 C300 1.391 . S
C302 H292 0.950 . S
C302 C303 1.386 1_554 S
C302 C304 1.391 . S
C303 C302 1.386 1_556 S
C303 C307 1.393 . S
C304 H293 0.950 . S
C304 C302 1.391 . S
C304 C305 1.400 . S
C305 C299 1.491 . S
C305 C304 1.400 . S
C305 C306 1.398 1_554 S
C306 H294 0.950 . S
C306 C305 1.398 1_556 S
C306 C307 1.391 . S
C307 H295 0.950 . S
C307 C303 1.393 . S
C307 C306 1.391 . S
H308 C316 0.950 . S
H309 C321 0.950 . S
H310 C318 0.950 . S
H311 C320 0.950 . S
H312 C322 0.950 1_565 S
H313 C324 0.950 1_556 S
H314 C326 0.950 . S
H315 C327 0.950 . S
C316 H308 0.950 . S
C316 C317 1.386 1_554 S
C316 C318 1.391 . S
C317 C316 1.386 1_556 S
C317 C321 1.393 . S
C318 H310 0.950 . S
C318 C316 1.391 . S
C318 C319 1.400 . S
C319 C318 1.400 . S
C319 C320 1.398 1_554 S
C319 C325 1.491 . S
C320 H311 0.950 . S
C320 C319 1.398 1_556 S
C320 C321 1.391 . S
C321 H309 0.950 . S
C321 C317 1.393 . S
C321 C320 1.391 . S
C322 H312 0.950 1_545 S
C322 C323 1.386 . S
C322 C324 1.391 . S
C323 C322 1.386 . S
C323 C327 1.393 . S
C324 H313 0.950 1_554 S
C324 C322 1.391 . S
C324 C325 1.400 . S
C325 C319 1.491 . S
C325 C324 1.400 . S
C325 C326 1.398 . S
C326 H314 0.950 . S
C326 C325 1.398 . S
C326 C327 1.391 . S
C327 H315 0.950 . S
C327 C323 1.393 . S
C327 C326 1.391 . S
H328 C336 0.950 . S
H329 C341 0.950 . S
H330 C338 0.950 . S
H331 C340 0.950 . S
H332 C342 0.950 . S
H333 C344 0.950 . S
H334 C346 0.950 . S
H335 C347 0.950 . S
C336 H328 0.950 . S
C336 C337 1.386 . S
C336 C338 1.391 . S
C337 C336 1.386 . S
C337 C341 1.393 . S
C338 H330 0.950 . S
C338 C336 1.391 . S
C338 C339 1.400 . S
C339 C338 1.400 . S
C339 C340 1.398 . S
C339 C345 1.491 . S
C340 H331 0.950 . S
C340 C339 1.398 . S
C340 C341 1.391 . S
C341 H329 0.950 . S
C341 C337 1.393 . S
C341 C340 1.391 . S
C342 H332 0.950 . S
C342 C343 1.386 . S
C342 C344 1.391 . S
C343 C342 1.386 . S
C343 C347 1.393 . S
C344 H333 0.950 . S
C344 C342 1.391 . S
C344 C345 1.400 1_556 S
C345 C339 1.491 . S
C345 C344 1.400 1_554 S
C345 C346 1.398 . S
C346 H334 0.950 . S
C346 C345 1.398 . S
C346 C347 1.391 1_554 S
C347 H335 0.950 . S
C347 C343 1.393 . S
C347 C346 1.391 1_556 S
H348 C356 0.950 . S
H349 C361 0.950 . S
H350 C358 0.950 . S
H351 C360 0.950 . S
H352 C362 0.950 . S
H353 C364 0.950 . S
H354 C366 0.950 . S
H355 C367 0.950 . S
C356 H348 0.950 . S
C356 C357 1.386 . S
C356 C358 1.391 . S
C357 C356 1.386 . S
C357 C361 1.393 . S
C358 H350 0.950 . S
C358 C356 1.391 . S
C358 C359 1.400 . S
C359 C358 1.400 . S
C359 C360 1.398 . S
C359 C365 1.491 . S
C360 H351 0.950 . S
C360 C359 1.398 . S
C360 C361 1.391 . S
C361 H349 0.950 . S
C361 C357 1.393 . S
C361 C360 1.391 . S
C362 H352 0.950 . S
C362 C363 1.386 . S
C362 C364 1.391 . S
C363 C362 1.386 . S
C363 C367 1.393 . S
C364 H353 0.950 . S
C364 C362 1.391 . S
C364 C365 1.400 . S
C365 C359 1.491 . S
C365 C364 1.400 . S
C365 C366 1.398 . S
C366 H354 0.950 . S
C366 C365 1.398 . S
C366 C367 1.391 . S
C367 H355 0.950 . S
C367 C363 1.393 . S
C367 C366 1.391 . S
H368 C376 0.950 . S
H369 C381 0.950 . S
H370 C378 0.950 . S
H371 C380 0.950 . S
H372 C382 0.950 1_565 S
H373 C384 0.950 . S
H374 C386 0.950 . S
H375 C387 0.950 . S
C376 H368 0.950 . S
C376 C377 1.386 . S
C376 C378 1.391 . S
C377 C376 1.386 . S
C377 C381 1.393 . S
C378 H370 0.950 . S
C378 C376 1.391 . S
C378 C379 1.400 . S
C379 C378 1.400 . S
C379 C380 1.398 . S
C379 C385 1.491 . S
C380 H371 0.950 . S
C380 C379 1.398 . S
C380 C381 1.391 . S
C381 H369 0.950 . S
C381 C377 1.393 . S
C381 C380 1.391 . S
C382 H372 0.950 1_545 S
C382 C383 1.386 . S
C382 C384 1.391 . S
C383 C382 1.386 . S
C383 C387 1.393 . S
C384 H373 0.950 . S
C384 C382 1.391 . S
C384 C385 1.400 . S
C385 C379 1.491 . S
C385 C384 1.400 . S
C385 C386 1.398 . S
C386 H374 0.950 . S
C386 C385 1.398 . S
C386 C387 1.391 . S
C387 H375 0.950 . S
C387 C383 1.393 . S
C387 C386 1.391 . S
H388 C396 0.950 1_455 S
H389 C401 0.950 . S
H390 C398 0.950 . S
H391 C400 0.950 . S
H392 C402 0.950 . S
H393 C404 0.950 . S
H394 C406 0.950 . S
H395 C407 0.950 . S
C396 H388 0.950 1_655 S
C396 C397 1.386 . S
C396 C398 1.391 . S
C397 C396 1.386 . S
C397 C401 1.393 . S
C398 H390 0.950 . S
C398 C396 1.391 . S
C398 C399 1.400 . S
C399 C398 1.400 . S
C399 C400 1.398 . S
C399 C405 1.491 . S
C400 H391 0.950 . S
C400 C399 1.398 . S
C400 C401 1.391 . S
C401 H389 0.950 . S
C401 C397 1.393 . S
C401 C400 1.391 . S
C402 H392 0.950 . S
C402 C403 1.386 . S
C402 C404 1.391 . S
C403 C402 1.386 . S
C403 C407 1.393 . S
C404 H393 0.950 . S
C404 C402 1.391 . S
C404 C405 1.400 . S
C405 C399 1.491 . S
C405 C404 1.400 . S
C405 C406 1.398 . S
C406 H394 0.950 . S
C406 C405 1.398 . S
C406 C407 1.391 . S
C407 H395 0.950 . S
C407 C403 1.393 . S
C407 C406 1.391 . S
H408 C416 0.950 . S
H409 C421 0.950 . S
H410 C418 0.950 . S
H411 C420 0.950 . S
H412 C422 0.950 . S
H413 C424 0.950 . S
H414 C426 0.950 . S
H415 C427 0.950 . S
C416 H408 0.950 . S
C416 C417 1.386 . S
C416 C418 1.391 . S
C417 C416 1.386 . S
C417 C421 1.393 . S
C418 H410 0.950 . S
C418 C416 1.391 . S
C418 C419 1.400 . S
C419 C418 1.400 . S
C419 C420 1.398 . S
C419 C425 1.491 . S
C420 H411 0.950 . S
C420 C419 1.398 . S
C420 C421 1.391 . S
C421 H409 0.950 . S
C421 C417 1.393 . S
C421 C420 1.391 . S
C422 H412 0.950 . S
C422 C423 1.386 . S
C422 C424 1.391 . S
C423 C422 1.386 . S
C423 C427 1.393 . S
C424 H413 0.950 . S
C424 C422 1.391 . S
C424 C425 1.400 . S
C425 C419 1.491 . S
C425 C424 1.400 . S
C425 C426 1.398 . S
C426 H414 0.950 . S
C426 C425 1.398 . S
C426 C427 1.391 . S
C427 H415 0.950 . S
C427 C423 1.393 . S
C427 C426 1.391 . S
H428 C436 0.950 . S
H429 C441 0.950 . S
H430 C438 0.950 . S
H431 C440 0.950 . S
H432 C442 0.950 . S
H433 C444 0.950 . S
H434 C446 0.950 . S
H435 C447 0.950 . S
C436 H428 0.950 . S
C436 C437 1.386 . S
C436 C438 1.391 . S
C437 C436 1.386 . S
C437 C441 1.393 . S
C438 H430 0.950 . S
C438 C436 1.391 . S
C438 C439 1.400 . S
C439 C438 1.400 . S
C439 C440 1.398 . S
C439 C445 1.491 . S
C440 H431 0.950 . S
C440 C439 1.398 . S
C440 C441 1.391 . S
C441 H429 0.950 . S
C441 C437 1.393 . S
C441 C440 1.391 . S
C442 H432 0.950 . S
C442 C443 1.386 . S
C442 C444 1.391 . S
C443 C442 1.386 . S
C443 C447 1.393 . S
C444 H433 0.950 . S
C444 C442 1.391 . S
C444 C445 1.400 . S
C445 C439 1.491 . S
C445 C444 1.400 . S
C445 C446 1.398 . S
C446 H434 0.950 . S
C446 C445 1.398 . S
C446 C447 1.391 . S
C447 H435 0.950 . S
C447 C443 1.393 . S
C447 C446 1.391 . S
H448 C456 0.950 . S
H449 C461 0.950 . S
H450 C458 0.950 . S
H451 C460 0.950 . S
H452 C462 0.950 . S
H453 C464 0.950 . S
H454 C466 0.950 . S
H455 C467 0.950 . S
C456 H448 0.950 . S
C456 C457 1.386 . S
C456 C458 1.391 . S
C457 C456 1.386 . S
C457 C461 1.393 . S
C458 H450 0.950 . S
C458 C456 1.391 . S
C458 C459 1.400 . S
C459 C458 1.400 . S
C459 C460 1.398 . S
C459 C465 1.491 . S
C460 H451 0.950 . S
C460 C459 1.398 . S
C460 C461 1.391 . S
C461 H449 0.950 . S
C461 C457 1.393 . S
C461 C460 1.391 . S
C462 H452 0.950 . S
C462 C463 1.386 . S
C462 C464 1.391 . S
C463 C462 1.386 . S
C463 C467 1.393 . S
C464 H453 0.950 . S
C464 C462 1.391 . S
C464 C465 1.400 . S
C465 C459 1.491 . S
C465 C464 1.400 . S
C465 C466 1.398 . S
C466 H454 0.950 . S
C466 C465 1.398 . S
C466 C467 1.391 . S
C467 H455 0.950 . S
C467 C463 1.393 . S
C467 C466 1.391 . S
H468 C476 0.950 . S
H469 C481 0.950 . S
H470 C478 0.950 . S
H471 C480 0.950 . S
H472 C482 0.950 . S
H473 C484 0.950 . S
H474 C486 0.950 . S
H475 C487 0.950 . S
C476 H468 0.950 . S
C476 C477 1.386 . S
C476 C478 1.391 . S
C477 C476 1.386 . S
C477 C481 1.393 . S
C478 H470 0.950 . S
C478 C476 1.391 . S
C478 C479 1.400 . S
C479 C478 1.400 . S
C479 C480 1.398 . S
C479 C485 1.491 . S
C480 H471 0.950 . S
C480 C479 1.398 . S
C480 C481 1.391 . S
C481 H469 0.950 . S
C481 C477 1.393 . S
C481 C480 1.391 . S
C482 H472 0.950 . S
C482 C483 1.386 . S
C482 C484 1.391 . S
C483 C482 1.386 . S
C483 C487 1.393 . S
C484 H473 0.950 . S
C484 C482 1.391 . S
C484 C485 1.400 . S
C485 C479 1.491 . S
C485 C484 1.400 . S
C485 C486 1.398 . S
C486 H474 0.950 . S
C486 C485 1.398 . S
C486 C487 1.391 . S
C487 H475 0.950 . S
C487 C483 1.393 . S
C487 C486 1.391 . S
H488 C496 0.950 . S
H489 C501 0.950 . S
H490 C498 0.950 . S
H491 C500 0.950 . S
H492 C502 0.950 . S
H493 C504 0.950 . S
H494 C506 0.950 . S
H495 C507 0.950 . S
C496 H488 0.950 . S
C496 C497 1.386 . S
C496 C498 1.391 . S
C497 C496 1.386 . S
C497 C501 1.393 . S
C498 H490 0.950 . S
C498 C496 1.391 . S
C498 C499 1.400 . S
C499 C498 1.400 . S
C499 C500 1.398 . S
C499 C505 1.491 . S
C500 H491 0.950 . S
C500 C499 1.398 . S
C500 C501 1.391 . S
C501 H489 0.950 . S
C501 C497 1.393 . S
C501 C500 1.391 . S
C502 H492 0.950 . S
C502 C503 1.386 . S
C502 C504 1.391 . S
C503 C502 1.386 . S
C503 C507 1.393 . S
C504 H493 0.950 . S
C504 C502 1.391 . S
C504 C505 1.400 . S
C505 C499 1.491 . S
C505 C504 1.400 . S
C505 C506 1.398 . S
C506 H494 0.950 . S
C506 C505 1.398 . S
C506 C507 1.391 . S
C507 H495 0.950 . S
C507 C503 1.393 . S
C507 C506 1.391 . S
H508 C516 0.950 . S
H509 C521 0.950 . S
H510 C518 0.950 . S
H511 C520 0.950 . S
H512 C522 0.950 . S
H513 C524 0.950 . S
H514 C526 0.950 . S
H515 C527 0.950 . S
C516 H508 0.950 . S
C516 C517 1.386 . S
C516 C518 1.391 . S
C517 C516 1.386 . S
C517 C521 1.393 . S
C518 H510 0.950 . S
C518 C516 1.391 . S
C518 C519 1.400 . S
C519 C518 1.400 . S
C519 C520 1.398 . S
C519 C525 1.491 . S
C520 H511 0.950 . S
C520 C519 1.398 . S
C520 C521 1.391 . S
C521 H509 0.950 . S
C521 C517 1.393 . S
C521 C520 1.391 . S
C522 H512 0.950 . S
C522 C523 1.386 . S
C522 C524 1.391 . S
C523 C522 1.386 . S
C523 C527 1.393 . S
C524 H513 0.950 . S
C524 C522 1.391 . S
C524 C525 1.400 . S
C525 C519 1.491 . S
C525 C524 1.400 . S
C525 C526 1.398 . S
C526 H514 0.950 . S
C526 C525 1.398 . S
C526 C527 1.391 . S
C527 H515 0.950 . S
C527 C523 1.393 . S
C527 C526 1.391 . S
H528 C536 0.950 . S
H529 C541 0.950 1_655 S
H530 C538 0.950 . S
H531 C540 0.950 . S
H532 C542 0.950 . S
H533 C544 0.950 . S
H534 C546 0.950 . S
H535 C547 0.950 1_455 S
C536 H528 0.950 . S
C536 C537 1.386 . S
C536 C538 1.391 1_554 S
C537 C536 1.386 . S
C537 C541 1.393 . S
C538 H530 0.950 . S
C538 C536 1.391 1_556 S
C538 C539 1.400 1_556 S
C539 C538 1.400 1_554 S
C539 C540 1.398 1_455 S
C539 C545 1.491 1_454 S
C540 H531 0.950 . S
C540 C539 1.398 1_655 S
C540 C541 1.391 1_655 S
C541 H529 0.950 1_455 S
C541 C537 1.393 . S
C541 C540 1.391 1_455 S
C542 H532 0.950 . S
C542 C543 1.386 . S
C542 C544 1.391 1_556 S
C543 C542 1.386 . S
C543 C547 1.393 . S
C544 H533 0.950 . S
C544 C542 1.391 1_554 S
C544 C545 1.400 1_554 S
C545 C539 1.491 1_656 S
C545 C544 1.400 1_556 S
C545 C546 1.398 1_655 S
C546 H534 0.950 . S
C546 C545 1.398 1_455 S
C546 C547 1.391 1_455 S
C547 H535 0.950 1_655 S
C547 C543 1.393 . S
C547 C546 1.391 1_655 S
H548 C556 0.950 . S
H549 C561 0.950 . S
H550 C558 0.950 . S
H551 C560 0.950 . S
H552 C562 0.950 . S
H553 C564 0.950 . S
H554 C566 0.950 . S
H555 C567 0.950 . S
C556 H548 0.950 . S
C556 C557 1.386 . S
C556 C558 1.391 1_554 S
C557 C556 1.386 . S
C557 C561 1.393 . S
C558 H550 0.950 . S
C558 C556 1.391 1_556 S
C558 C559 1.400 1_556 S
C559 C558 1.400 1_554 S
C559 C560 1.398 . S
C559 C565 1.491 1_554 S
C560 H551 0.950 . S
C560 C559 1.398 . S
C560 C561 1.391 . S
C561 H549 0.950 . S
C561 C557 1.393 . S
C561 C560 1.391 . S
C562 H552 0.950 . S
C562 C563 1.386 . S
C562 C564 1.391 1_556 S
C563 C562 1.386 . S
C563 C567 1.393 . S
C564 H553 0.950 . S
C564 C562 1.391 1_554 S
C564 C565 1.400 1_554 S
C565 C559 1.491 1_556 S
C565 C564 1.400 1_556 S
C565 C566 1.398 . S
C566 H554 0.950 . S
C566 C565 1.398 . S
C566 C567 1.391 . S
C567 H555 0.950 . S
C567 C563 1.393 . S
C567 C566 1.391 . S
H568 C576 0.950 . S
H569 C581 0.950 1_545 S
H570 C578 0.950 . S
H571 C580 0.950 . S
H572 C582 0.950 . S
H573 C584 0.950 . S
H574 C586 0.950 . S
H575 C587 0.950 1_565 S
C576 H568 0.950 . S
C576 C577 1.386 . S
C576 C578 1.391 . S
C577 C576 1.386 . S
C577 C581 1.393 . S
C578 H570 0.950 . S
C578 C576 1.391 . S
C578 C579 1.400 . S
C579 C578 1.400 . S
C579 C580 1.398 1_565 S
C579 C585 1.491 1_564 S
C580 H571 0.950 . S
C580 C579 1.398 1_545 S
C580 C581 1.391 1_545 S
C581 H569 0.950 1_565 S
C581 C577 1.393 . S
C581 C580 1.391 1_565 S
C582 H572 0.950 . S
C582 C583 1.386 . S
C582 C584 1.391 . S
C583 C582 1.386 . S
C583 C587 1.393 . S
C584 H573 0.950 . S
C584 C582 1.391 . S
C584 C585 1.400 . S
C585 C579 1.491 1_546 S
C585 C584 1.400 . S
C585 C586 1.398 1_545 S
C586 H574 0.950 . S
C586 C585 1.398 1_565 S
C586 C587 1.391 1_565 S
C587 H575 0.950 1_545 S
C587 C583 1.393 . S
C587 C586 1.391 1_545 S
H588 C596 0.950 . S
H589 C601 0.950 . S
H590 C598 0.950 . S
H591 C600 0.929 1_545 S
H592 C602 0.950 . S
H593 C604 0.950 . S
H594 C606 0.929 1_565 S
H595 C607 0.950 . S
C596 H588 0.950 . S
C596 C597 1.386 . S
C596 C598 1.391 . S
C597 C596 1.386 . S
C597 C601 1.393 . S
C598 H590 0.950 . S
C598 C596 1.391 . S
C598 C599 1.400 . S
C599 C598 1.400 . S
C599 C600 1.400 . S
C599 C605 1.491 1_565 S
C600 H591 0.929 1_565 S
C600 C599 1.400 . S
C600 C601 1.410 . S
C601 H589 0.950 . S
C601 C597 1.393 . S
C601 C600 1.410 . S
C602 H592 0.950 . S
C602 C603 1.386 . S
C602 C604 1.391 . S
C603 C602 1.386 . S
C603 C607 1.393 . S
C604 H593 0.950 . S
C604 C602 1.391 . S
C604 C605 1.400 . S
C605 C599 1.491 1_545 S
C605 C604 1.400 . S
C605 C606 1.400 . S
C606 H594 0.929 1_545 S
C606 C605 1.400 . S
C606 C607 1.410 . S
C607 H595 0.950 . S
C607 C603 1.393 . S
C607 C606 1.410 . S
H608 C616 0.950 1_455 S
H609 C621 0.950 . S
H610 C618 0.950 . S
H611 C620 0.950 . S
H612 C622 0.950 1_655 S
H613 C624 0.950 . S
H614 C626 0.950 . S
H615 C627 0.950 . S
C616 H608 0.950 1_655 S
C616 C617 1.386 . S
C616 C618 1.391 1_655 S
C617 C616 1.386 . S
C617 C621 1.393 . S
C618 H610 0.950 . S
C618 C616 1.391 1_455 S
C618 C619 1.400 1_455 S
C619 C618 1.400 1_655 S
C619 C620 1.398 . S
C619 C625 1.491 1_655 S
C620 H611 0.950 . S
C620 C619 1.398 . S
C620 C621 1.391 . S
C621 H609 0.950 . S
C621 C617 1.393 . S
C621 C620 1.391 . S
C622 H612 0.950 1_455 S
C622 C623 1.386 . S
C622 C624 1.391 1_455 S
C623 C622 1.386 . S
C623 C627 1.393 . S
C624 H613 0.950 . S
C624 C622 1.391 1_655 S
C624 C625 1.400 1_655 S
C625 C619 1.491 1_455 S
C625 C624 1.400 1_455 S
C625 C626 1.398 . S
C626 H614 0.950 . S
C626 C625 1.398 . S
C626 C627 1.391 . S
C627 H615 0.950 . S
C627 C623 1.393 . S
C627 C626 1.391 . S
H628 C636 0.950 . S
H629 C641 0.950 . S
H630 C638 0.950 . S
H631 C640 0.950 . S
H632 C642 0.950 . S
H633 C644 0.950 . S
H634 C646 0.950 . S
H635 C647 0.950 . S
C636 H628 0.950 . S
C636 C637 1.386 . S
C636 C638 1.391 . S
C637 C636 1.386 . S
C637 C641 1.393 . S
C638 H630 0.950 . S
C638 C636 1.391 . S
C638 C639 1.400 . S
C639 C638 1.400 . S
C639 C640 1.398 . S
C639 C645 1.491 . S
C640 H631 0.950 . S
C640 C639 1.398 . S
C640 C641 1.391 . S
C641 H629 0.950 . S
C641 C637 1.393 . S
C641 C640 1.391 . S
C642 H632 0.950 . S
C642 C643 1.386 . S
C642 C644 1.391 . S
C643 C642 1.386 . S
C643 C647 1.393 . S
C644 H633 0.950 . S
C644 C642 1.391 . S
C644 C645 1.400 . S
C645 C639 1.491 . S
C645 C644 1.400 . S
C645 C646 1.398 . S
C646 H634 0.950 . S
C646 C645 1.398 . S
C646 C647 1.391 . S
C647 H635 0.950 . S
C647 C643 1.393 . S
C647 C646 1.391 . S
C177 C13 0.644 . S
C183 C106 0.647 . S
C197 C27 0.699 . S
C203 C120 0.697 1_565 S
C217 C41 0.695 . S
C223 C92 0.694 1_455 S
C237 C162 0.666 . S
C243 C55 0.662 . S
C257 C69 0.673 . S
C263 C134 0.677 1_565 S
C277 C148 0.642 1_455 S
C283 C83 0.647 . S
C297 C22 0.684 . S
C303 C97 0.693 . S
C317 C111 0.663 . S
C323 C36 0.667 1_545 S
C337 C8 0.696 1_655 S
C343 C125 0.698 . S
C357 C139 0.651 . S
C363 C78 0.644 . S
C377 C153 0.652 . S
C383 C50 0.656 1_545 S
C397 C64 0.655 1_655 S
C403 C167 0.664 . S
C417 C81 1.622 . S
C423 C11 1.620 . S
C437 C25 1.628 . S
C443 C53 1.624 . S
C457 C39 1.635 . S
C463 C67 1.635 . S
C477 C95 1.629 . S
C483 C165 1.633 . S
C497 C109 1.629 . S
C503 C137 1.624 . S
C517 C123 1.633 . S
C523 C151 1.635 . S
C537 C7 1.509 . S
C543 C91 1.509 . S
C557 C21 1.523 . S
C563 C105 1.523 . S
C577 C35 1.510 . S
C583 C119 1.510 . S
C597 C49 1.511 . S
C603 C133 1.511 . S
C617 C147 1.509 . S
C623 C63 1.509 . S
C637 C77 1.508 . S
C643 C161 1.508 . S
