# Generated by pormake.
# Topology uov, (4)-cn, num edge types: 1
# Building blocks:
#     Node 0, Type 0, BuildingBlock: ICAMEG_clean_sbu_1, # of connection points: 4
#     Node 1, Type 0, BuildingBlock: ICAMEG_clean_sbu_1, # of connection points: 4
#     Node 2, Type 0, BuildingBlock: ICAMEG_clean_sbu_1, # of connection points: 4
#     Node 3, Type 0, BuildingBlock: ICAMEG_clean_sbu_1, # of connection points: 4
#     Node 4, Type 0, BuildingBlock: ICAMEG_clean_sbu_1, # of connection points: 4
#     Node 5, Type 0, BuildingBlock: ICAMEG_clean_sbu_1, # of connection points: 4
#     Node 6, Type 0, BuildingBlock: ICAMEG_clean_sbu_1, # of connection points: 4
#     Node 7, Type 0, BuildingBlock: ICAMEG_clean_sbu_1, # of connection points: 4
#     Edge 8, Type (0, 0), BuildingBlock: KIFKEQ_clean_linker_1, # of connection points: 2
#     Edge 9, Type (0, 0), BuildingBlock: KIFKEQ_clean_linker_1, # of connection points: 2
#     Edge 10, Type (0, 0), BuildingBlock: KIFKEQ_clean_linker_1, # of connection points: 2
#     Edge 11, Type (0, 0), BuildingBlock: KIFKEQ_clean_linker_1, # of connection points: 2
#     Edge 12, Type (0, 0), BuildingBlock: KIFKEQ_clean_linker_1, # of connection points: 2
#     Edge 13, Type (0, 0), BuildingBlock: KIFKEQ_clean_linker_1, # of connection points: 2
#     Edge 14, Type (0, 0), BuildingBlock: KIFKEQ_clean_linker_1, # of connection points: 2
#     Edge 15, Type (0, 0), BuildingBlock: KIFKEQ_clean_linker_1, # of connection points: 2
#     Edge 16, Type (0, 0), BuildingBlock: KIFKEQ_clean_linker_1, # of connection points: 2
#     Edge 17, Type (0, 0), BuildingBlock: KIFKEQ_clean_linker_1, # of connection points: 2
#     Edge 18, Type (0, 0), BuildingBlock: KIFKEQ_clean_linker_1, # of connection points: 2
#     Edge 19, Type (0, 0), BuildingBlock: KIFKEQ_clean_linker_1, # of connection points: 2
#     Edge 20, Type (0, 0), BuildingBlock: KIFKEQ_clean_linker_1, # of connection points: 2
#     Edge 21, Type (0, 0), BuildingBlock: KIFKEQ_clean_linker_1, # of connection points: 2
#     Edge 22, Type (0, 0), BuildingBlock: KIFKEQ_clean_linker_1, # of connection points: 2
#     Edge 23, Type (0, 0), BuildingBlock: KIFKEQ_clean_linker_1, # of connection points: 2
# Relax obj value: 0.050
# Max RMSD: 0.045
# Mean RMSD: 0.045
data_MOF--net-uov--node1-ICAMEG_clean_sbu_1--edge1-KIFKEQ_clean_linker_1
_symmetry_space_group_name_H-M    P1
_symmetry_Int_Tables_number       1
_symmetry_cell_setting            triclinic
loop_
_symmetry_equiv_pos_as_xyz
'x, y, z'
_cell_length_a     32.329308
_cell_length_b     32.352104
_cell_length_c     48.008577
_cell_angle_alpha  89.978874
_cell_angle_beta   89.977508
_cell_angle_gamma 89.966199
loop_
_atom_site_label
_atom_site_type_symbol
_atom_site_fract_x
_atom_site_fract_y
_atom_site_fract_z
_atom_type_partial_charge
Co0 Co 0.07099 0.21734 0.61218 0.0
Co1 Co 0.1088 0.2913 0.56643 0.0
O2 O 0.09419 0.27209 0.604 0.0
C3 C 0.1376 0.23074 0.6557 0.0
O4 O 0.15127 0.264 0.64313 0.0
C5 C 0.04909 0.35459 0.58565 0.0
O6 O 0.02492 0.32414 0.59354 0.0
O7 O 0.05474 0.27267 0.55091 0.0
O8 O 0.03421 0.22113 0.57895 0.0
H9 H 0.12245 0.27896 0.4625 0.0
H10 H 0.07077 0.28369 0.65514 0.0
O11 O 0.10697 0.21056 0.64602 0.0
H12 H 0.92464 0.24415 0.64332 0.0
H13 H 0.01531 0.10458 0.67416 0.0
H14 H 0.04984 0.14433 0.57775 0.0
H15 H 0.97932 0.20922 0.61638 0.0
H16 H 0.04342 0.17378 0.66386 0.0
O17 O 0.08412 0.34684 0.57467 0.0
H18 H 0.10469 0.25499 0.50979 0.0
H19 H 0.14358 0.36979 0.54373 0.0
H20 H 0.02145 0.07495 0.5871 0.0
H21 H 0.0172 0.31908 0.68272 0.0
H22 H 0.00402 0.05467 0.63561 0.0
H23 H 0.94346 0.29946 0.67687 0.0
O24 O 0.11457 0.1897 0.58948 0.0
H25 H 0.20116 0.36775 0.63302 0.0
H26 H 0.19681 0.27883 0.54967 0.0
H27 H 0.26417 0.30181 0.56802 0.0
H28 H 0.26665 0.34674 0.60993 0.0
H29 H 0.13447 0.34344 0.61427 0.0
H30 H 0.16147 0.39512 0.49678 0.0
H31 H 0.15105 0.34951 0.45577 0.0
O32 O 0.13351 0.23642 0.55728 0.0
C33 C 0.02993 0.24358 0.55733 0.0
C34 C 0.12726 0.29908 0.48021 0.0
C35 C 0.1491 0.36429 0.49945 0.0
N36 N 0.12339 0.31084 0.52951 0.0
C37 C 0.11737 0.28563 0.50705 0.0
C38 C 0.13885 0.3498 0.52598 0.0
C39 C 0.14326 0.33868 0.47645 0.0
C40 C 0.03891 0.27452 0.6527 0.0
N41 N 0.02835 0.24403 0.63435 0.0
C42 C 0.00862 0.29488 0.66828 0.0
C43 C 0.96725 0.28392 0.66495 0.0
C44 C 0.95667 0.25291 0.64612 0.0
C45 C 0.98779 0.23328 0.63087 0.0
C46 C 0.02271 0.11308 0.65293 0.0
C47 C 0.04205 0.13584 0.59889 0.0
C48 C 0.03873 0.15219 0.64698 0.0
N49 N 0.04798 0.1632 0.62019 0.0
C50 C 0.0261 0.09647 0.60406 0.0
C51 C 0.01637 0.0851 0.63129 0.0
C52 C 0.13482 0.20022 0.56779 0.0
C53 C 0.20048 0.34821 0.61473 0.0
C54 C 0.1976 0.29796 0.56811 0.0
C55 C 0.23585 0.31108 0.57831 0.0
C56 C 0.23722 0.33635 0.6018 0.0
N57 N 0.1617 0.30964 0.58095 0.0
C58 C 0.16279 0.33452 0.60393 0.0
Co59 Co 0.21433 0.93402 0.38954 0.0
Co60 Co 0.28878 0.89449 0.43418 0.0
O61 O 0.26906 0.91021 0.39696 0.0
C62 C 0.22184 0.86417 0.34858 0.0
O63 O 0.24667 0.84399 0.36537 0.0
C64 C 0.35276 0.95341 0.41469 0.0
O65 O 0.32258 0.97815 0.40712 0.0
O66 O 0.27095 0.94842 0.45051 0.0
O67 O 0.21867 0.9696 0.42327 0.0
H68 H 0.27812 0.87825 0.53803 0.0
H69 H 0.27889 0.93406 0.34573 0.0
O70 O 0.20755 0.89948 0.35524 0.0
H71 H 0.24309 0.08069 0.36005 0.0
H72 H 0.10128 0.99249 0.32894 0.0
H73 H 0.14173 0.95458 0.42463 0.0
H74 H 0.20757 0.02601 0.38665 0.0
H75 H 0.17043 0.96353 0.33848 0.0
O76 O 0.34458 0.91852 0.42569 0.0
H77 H 0.25348 0.89749 0.49117 0.0
H78 H 0.36734 0.8582 0.45577 0.0
H79 H 0.0724 0.98377 0.41604 0.0
H80 H 0.31492 0.98768 0.31844 0.0
H81 H 0.05176 0.0029 0.3679 0.0
H82 H 0.29717 0.06163 0.3256 0.0
O83 O 0.18665 0.88998 0.41181 0.0
H84 H 0.36097 0.80313 0.36483 0.0
H85 H 0.27645 0.80629 0.45033 0.0
H86 H 0.29781 0.7392 0.43067 0.0
H87 H 0.3405 0.73733 0.38766 0.0
H88 H 0.33839 0.86955 0.38497 0.0
H89 H 0.39333 0.83882 0.50228 0.0
H90 H 0.34854 0.84869 0.5438 0.0
O91 O 0.23375 0.87022 0.44354 0.0
C92 C 0.2416 0.97333 0.4447 0.0
C93 C 0.29789 0.87368 0.52009 0.0
C94 C 0.36257 0.85161 0.50003 0.0
N95 N 0.30883 0.87872 0.47074 0.0
C96 C 0.28407 0.88442 0.49349 0.0
C97 C 0.34772 0.86272 0.47375 0.0
C98 C 0.33742 0.85714 0.52332 0.0
C99 C 0.27076 0.96614 0.3488 0.0
N100 N 0.24113 0.97688 0.36777 0.0
C101 C 0.29137 0.99638 0.33336 0.0
C102 C 0.28144 0.03787 0.33741 0.0
C103 C 0.25113 0.04858 0.35676 0.0
C104 C 0.23122 0.0175 0.37186 0.0
C105 C 0.10993 0.98434 0.35001 0.0
C106 C 0.1331 0.96311 0.40365 0.0
C107 C 0.14902 0.96785 0.35554 0.0
N108 N 0.16023 0.95765 0.38213 0.0
C109 C 0.09375 0.9795 0.3989 0.0
C110 C 0.08217 0.99019 0.37188 0.0
C111 C 0.19737 0.86931 0.43327 0.0
C112 C 0.34244 0.80354 0.38362 0.0
C113 C 0.29472 0.80575 0.43149 0.0
C114 C 0.30689 0.76766 0.42052 0.0
C115 C 0.33089 0.76664 0.39641 0.0
N116 N 0.30617 0.84182 0.41882 0.0
C117 C 0.32974 0.84107 0.39519 0.0
Co118 Co 0.93801 0.78588 0.61534 0.0
Co119 Co 0.89302 0.71635 0.56947 0.0
O120 O 0.91131 0.7331 0.60677 0.0
C121 C 0.86755 0.78015 0.65595 0.0
O122 O 0.84645 0.75699 0.63863 0.0
C123 C 0.95293 0.65166 0.58569 0.0
O124 O 0.9775 0.68169 0.59368 0.0
O125 O 0.9459 0.73508 0.5519 0.0
O126 O 0.97327 0.78118 0.58153 0.0
H127 H 0.8692 0.73476 0.46679 0.0
H128 H 0.93446 0.71967 0.65792 0.0
O129 O 0.90362 0.79296 0.64973 0.0
H130 H 0.08295 0.74734 0.64379 0.0
H131 H 0.00215 0.8925 0.67841 0.0
H132 H 0.96296 0.8587 0.58181 0.0
H133 H 0.03028 0.78707 0.61802 0.0
H134 H 0.96951 0.82561 0.66733 0.0
O135 O 0.91756 0.66002 0.57543 0.0
H136 H 0.89181 0.75589 0.51374 0.0
H137 H 0.85529 0.63951 0.54648 0.0
H138 H 0.99585 0.9258 0.59194 0.0
H139 H 0.98605 0.67944 0.68435 0.0
H140 H 0.01563 0.94309 0.64055 0.0
H141 H 0.06092 0.69309 0.67727 0.0
O142 O 0.89567 0.81691 0.59366 0.0
H143 H 0.80621 0.63993 0.63943 0.0
H144 H 0.80383 0.72981 0.55647 0.0
H145 H 0.73802 0.70734 0.57756 0.0
H146 H 0.73895 0.66195 0.6193 0.0
H147 H 0.87131 0.66361 0.6179 0.0
H148 H 0.83257 0.61699 0.49984 0.0
H149 H 0.83935 0.66483 0.45962 0.0
O150 O 0.86842 0.77217 0.56284 0.0
C151 C 0.97365 0.76123 0.55867 0.0
C152 C 0.86596 0.71368 0.48417 0.0
C153 C 0.84547 0.64755 0.50271 0.0
N154 N 0.8746 0.69907 0.53285 0.0
C155 C 0.8786 0.72551 0.51081 0.0
C156 C 0.85846 0.66044 0.52905 0.0
C157 C 0.84926 0.67442 0.48015 0.0
C158 C 0.96696 0.72605 0.65492 0.0
N159 N 0.97933 0.75578 0.63651 0.0
C160 C 0.99604 0.70306 0.66986 0.0
C161 C 0.03804 0.71069 0.66585 0.0
C162 C 0.05042 0.7411 0.64705 0.0
C163 C 0.02047 0.76343 0.63245 0.0
C164 C 0.99373 0.8853 0.65714 0.0
C165 C 0.97175 0.86587 0.60299 0.0
C166 C 0.97515 0.84751 0.65075 0.0
N167 N 0.96456 0.83814 0.62391 0.0
C168 C 0.99025 0.90396 0.60861 0.0
C169 C 1.0013 0.91366 0.63589 0.0
C170 C 0.87159 0.80823 0.57342 0.0
C171 C 0.8054 0.65964 0.62122 0.0
C172 C 0.8045 0.71035 0.57476 0.0
C173 C 0.76713 0.69757 0.58654 0.0
C174 C 0.76767 0.67206 0.60994 0.0
N175 N 0.84138 0.69803 0.58594 0.0
C176 C 0.84216 0.67299 0.60886 0.0
Co177 Co 0.79299 0.06887 0.3928 0.0
Co178 Co 0.71412 0.10542 0.43408 0.0
O179 O 0.73619 0.08873 0.39775 0.0
C180 C 0.78402 0.13309 0.34872 0.0
O181 O 0.76231 0.15583 0.36599 0.0
C182 C 0.65123 0.04545 0.4144 0.0
O183 O 0.68167 0.01986 0.40884 0.0
O184 O 0.73107 0.05174 0.45099 0.0
O185 O 0.79144 0.03948 0.42942 0.0
H186 H 0.71758 0.1228 0.53806 0.0
H187 H 0.73147 0.05452 0.34819 0.0
O188 O 0.79718 0.09761 0.356 0.0
H189 H 0.77809 0.91573 0.37688 0.0
H190 H 0.91227 0.01033 0.33794 0.0
H191 H 0.86678 0.0631 0.42931 0.0
H192 H 0.80717 0.9781 0.39896 0.0
H193 H 0.84047 0.03402 0.34489 0.0
O194 O 0.65896 0.08123 0.42416 0.0
H195 H 0.74538 0.10291 0.49213 0.0
H196 H 0.63425 0.14217 0.45302 0.0
H197 H 0.93876 0.03943 0.42334 0.0
H198 H 0.70181 0.99297 0.32537 0.0
H199 H 0.96194 0.01281 0.37738 0.0
H200 H 0.72507 0.92296 0.33976 0.0
O201 O 0.81529 0.11889 0.4114 0.0
H202 H 0.64741 0.19551 0.3616 0.0
H203 H 0.72488 0.19392 0.45006 0.0
H204 H 0.70501 0.26065 0.42913 0.0
H205 H 0.66588 0.26172 0.38461 0.0
H206 H 0.66838 0.12946 0.38308 0.0
H207 H 0.60512 0.16216 0.49856 0.0
H208 H 0.64696 0.15265 0.54148 0.0
O209 O 0.76859 0.13019 0.44512 0.0
C210 C 0.76528 0.03241 0.44872 0.0
C211 C 0.6991 0.12722 0.5195 0.0
C212 C 0.63596 0.14926 0.49733 0.0
N213 N 0.6916 0.12168 0.4699 0.0
C214 C 0.71472 0.11612 0.49342 0.0
C215 C 0.65259 0.13781 0.47161 0.0
C216 C 0.65946 0.14393 0.5214 0.0
C217 C 0.74199 0.02416 0.35437 0.0
N218 N 0.77114 0.01991 0.37476 0.0
C219 C 0.72498 0.98942 0.34146 0.0
C220 C 0.738 0.95015 0.34957 0.0
C221 C 0.76773 0.94607 0.37041 0.0
C222 C 0.78401 0.9815 0.38288 0.0
C223 C 0.90251 0.02173 0.3581 0.0
C224 C 0.87652 0.05122 0.40932 0.0
C225 C 0.8619 0.03521 0.36215 0.0
N226 N 0.8493 0.04948 0.38758 0.0
C227 C 0.91737 0.03801 0.40603 0.0
C228 C 0.93036 0.02312 0.38023 0.0
C229 C 0.80397 0.13621 0.434 0.0
C230 C 0.66437 0.19544 0.38103 0.0
C231 C 0.70811 0.19412 0.43059 0.0
C232 C 0.6968 0.23201 0.41889 0.0
C233 C 0.6748 0.23258 0.39393 0.0
N234 N 0.69774 0.15782 0.41781 0.0
C235 C 0.67615 0.15814 0.39335 0.0
Co236 Co 0.9351 0.20997 0.11081 0.0
Co237 Co 0.89784 0.28855 0.06963 0.0
O238 O 0.91531 0.26677 0.10586 0.0
C239 C 0.87164 0.21933 0.1553 0.0
O240 O 0.84845 0.24036 0.13792 0.0
C241 C 0.95819 0.35173 0.0885 0.0
O242 O 0.98409 0.3215 0.09394 0.0
O243 O 0.9512 0.27136 0.05227 0.0
O244 O 0.96365 0.21108 0.07386 0.0
H245 H 0.87817 0.28414 0.96586 0.0
H246 H 0.95072 0.27182 0.15501 0.0
O247 O 0.90715 0.20631 0.14793 0.0
H248 H 0.08874 0.22445 0.12502 0.0
H249 H 0.9945 0.09111 0.16559 0.0
H250 H 0.93987 0.13588 0.07456 0.0
H251 H 0.02571 0.19542 0.10375 0.0
H252 H 0.97085 0.16287 0.15857 0.0
O253 O 0.92225 0.34374 0.07909 0.0
H254 H 0.89905 0.25678 0.0117 0.0
H255 H 0.86071 0.36822 0.05072 0.0
H256 H 0.96347 0.06394 0.0806 0.0
H257 H 0.01296 0.30145 0.17703 0.0
H258 H 0.99102 0.04112 0.12639 0.0
H259 H 0.08258 0.27782 0.16199 0.0
O260 O 0.88453 0.18765 0.09283 0.0
H261 H 0.80941 0.35569 0.14286 0.0
H262 H 0.80891 0.27791 0.05454 0.0
H263 H 0.74264 0.29795 0.07611 0.0
H264 H 0.74262 0.33723 0.12055 0.0
H265 H 0.87499 0.33456 0.12074 0.0
H266 H 0.83974 0.39692 0.00526 0.0
H267 H 0.84828 0.35471 0.96243 0.0
O268 O 0.87272 0.2341 0.05906 0.0
C269 C 0.97042 0.23708 0.05442 0.0
C270 C 0.87417 0.30279 0.98438 0.0
C271 C 0.85265 0.36611 0.00649 0.0
N272 N 0.88082 0.31074 0.03388 0.0
C273 C 0.88584 0.28742 0.0104 0.0
C274 C 0.86467 0.34972 0.03216 0.0
C275 C 0.85744 0.3424 0.98247 0.0
C276 C 0.98092 0.26113 0.14855 0.0
N277 N 0.98458 0.2318 0.12824 0.0
C278 C 0.01604 0.27813 0.16101 0.0
C279 C 0.0551 0.2649 0.15252 0.0
C280 C 0.05858 0.23498 0.13177 0.0
C281 C 0.02278 0.21872 0.11976 0.0
C282 C 0.98268 0.10071 0.14551 0.0
C283 C 0.95215 0.1263 0.09448 0.0
C284 C 0.96921 0.14129 0.14141 0.0
N285 N 0.95443 0.15369 0.11608 0.0
C286 C 0.96532 0.08547 0.0978 0.0
C287 C 0.98073 0.07268 0.12351 0.0
C288 C 0.86673 0.19888 0.07038 0.0
C289 C 0.80902 0.33867 0.12346 0.0
C290 C 0.80917 0.29475 0.07397 0.0
C291 C 0.77154 0.30616 0.08603 0.0
C292 C 0.77155 0.32824 0.11095 0.0
N293 N 0.84579 0.30511 0.08636 0.0
C294 C 0.84605 0.32679 0.11078 0.0
Co295 Co 0.21549 0.06218 0.8876 0.0
Co296 Co 0.28521 0.10857 0.9326 0.0
O297 O 0.26821 0.08923 0.89566 0.0
C298 C 0.21822 0.13279 0.84761 0.0
O299 O 0.2361 0.15573 0.86665 0.0
C300 C 0.35065 0.04929 0.91658 0.0
O301 O 0.32085 0.02405 0.90916 0.0
O302 O 0.26742 0.05583 0.95078 0.0
O303 O 0.22023 0.02819 0.92198 0.0
H304 H 0.2681 0.13436 0.03517 0.0
H305 H 0.28168 0.06437 0.84496 0.0
O306 O 0.20887 0.09533 0.8527 0.0
H307 H 0.25423 0.91645 0.86141 0.0
H308 H 0.10893 0.99599 0.82543 0.0
H309 H 0.14262 0.03825 0.92146 0.0
H310 H 0.21434 0.96991 0.8863 0.0
H311 H 0.17584 0.02898 0.83608 0.0
O312 O 0.34189 0.08479 0.92646 0.0
H313 H 0.24654 0.11039 0.98862 0.0
H314 H 0.36187 0.14796 0.95463 0.0
H315 H 0.07549 0.00505 0.91177 0.0
H316 H 0.32209 0.01196 0.81938 0.0
H317 H 0.05825 0.98373 0.86346 0.0
H318 H 0.30855 0.93739 0.82763 0.0
O319 O 0.18434 0.10517 0.90866 0.0
H320 H 0.35753 0.19475 0.86038 0.0
H321 H 0.27114 0.1978 0.94503 0.0
H322 H 0.29162 0.26338 0.92277 0.0
H323 H 0.33519 0.26211 0.88015 0.0
H324 H 0.33599 0.12989 0.88317 0.0
H325 H 0.38482 0.17204 1.00086 0.0
H326 H 0.33771 0.16543 0.04151 0.0
O327 O 0.22911 0.13252 0.93942 0.0
C328 C 0.24085 0.02815 0.94459 0.0
C329 C 0.28886 0.13753 0.0176 0.0
C330 C 0.35439 0.15862 0.99835 0.0
N331 N 0.30281 0.12803 0.96891 0.0
C332 C 0.27678 0.12412 0.99118 0.0
C333 C 0.34127 0.14484 0.97225 0.0
C334 C 0.32794 0.15491 0.02115 0.0
C335 C 0.2754 0.03198 0.84848 0.0
N336 N 0.24567 0.0202 0.8671 0.0
C337 C 0.29847 0.00245 0.83402 0.0
C338 C 0.2909 0.96061 0.83868 0.0
C339 C 0.26045 0.94884 0.85765 0.0
C340 C 0.23805 0.97924 0.87177 0.0
C341 C 0.1161 0.0051 0.84658 0.0
C342 C 0.13547 0.0288 0.90041 0.0
C343 C 0.15391 0.02388 0.85272 0.0
N344 N 0.16323 0.03533 0.8794 0.0
C345 C 0.09736 0.01012 0.89504 0.0
C346 C 0.08769 0.99821 0.86792 0.0
C347 C 0.19302 0.12931 0.92886 0.0
C348 C 0.33862 0.19571 0.87898 0.0
C349 C 0.28993 0.19699 0.92642 0.0
C350 C 0.30154 0.23422 0.91395 0.0
C351 C 0.32602 0.23349 0.89006 0.0
N352 N 0.30243 0.16006 0.91545 0.0
C353 C 0.32647 0.15909 0.89204 0.0
Co354 Co 0.06607 0.78938 0.11354 0.0
Co355 Co 0.10672 0.71523 0.06924 0.0
O356 O 0.0899 0.73469 0.10626 0.0
C357 C 0.13564 0.78262 0.15449 0.0
O358 O 0.15717 0.76057 0.13672 0.0
C359 C 0.04752 0.65092 0.0879 0.0
O360 O 0.02236 0.68089 0.09523 0.0
O361 O 0.05316 0.73311 0.05228 0.0
O362 O 0.03159 0.78555 0.07924 0.0
H363 H 0.12592 0.7265 0.96565 0.0
H364 H 0.06435 0.7245 0.15706 0.0
O365 O 0.09953 0.79539 0.14836 0.0
H366 H 0.91824 0.76093 0.1407 0.0
H367 H 0.0062 0.90193 0.17389 0.0
H368 H 0.04688 0.86241 0.07853 0.0
H369 H 0.97397 0.79651 0.11511 0.0
H370 H 0.03515 0.8328 0.16439 0.0
O371 O 0.08263 0.65937 0.0773 0.0
H372 H 0.10526 0.75081 0.01231 0.0
H373 H 0.14383 0.63693 0.04792 0.0
H374 H 0.01773 0.93173 0.08708 0.0
H375 H 0.00966 0.68839 0.18336 0.0
H376 H 0.9972 0.9519 0.13505 0.0
H377 H 0.93598 0.70645 0.17516 0.0
O378 O 0.11097 0.81712 0.09205 0.0
H379 H 0.19623 0.64389 0.14005 0.0
H380 H 0.19542 0.72741 0.05411 0.0
H381 H 0.26201 0.70641 0.07476 0.0
H382 H 0.2627 0.66424 0.11801 0.0
H383 H 0.13033 0.66603 0.11889 0.0
H384 H 0.1646 0.61125 0.0016 0.0
H385 H 0.15581 0.65623 0.96007 0.0
O386 O 0.1312 0.77027 0.06032 0.0
C387 C 0.0283 0.76265 0.05776 0.0
C388 C 0.13001 0.70665 0.98359 0.0
C389 C 0.15166 0.64195 0.00377 0.0
N390 N 0.12357 0.69542 0.03283 0.0
C391 C 0.11847 0.72029 0.01008 0.0
C392 C 0.13976 0.65662 0.02993 0.0
C393 C 0.14674 0.66721 0.98048 0.0
C394 C 0.03238 0.73274 0.15353 0.0
N395 N 0.02236 0.76256 0.13453 0.0
C396 C 1.00154 0.71209 0.16842 0.0
C397 C 0.9602 0.7222 0.16378 0.0
C398 C 0.95023 0.75273 0.14443 0.0
C399 C 0.98189 0.77266 0.12989 0.0
C400 C 0.01495 0.89348 0.15288 0.0
C401 C 0.03775 0.87084 0.09944 0.0
C402 C 0.03145 0.85441 0.14738 0.0
N403 N 0.04242 0.84346 0.12089 0.0
C404 C 0.02137 0.91019 0.10416 0.0
C405 C 0.0099 0.9215 0.13109 0.0
C406 C 0.13209 0.80651 0.07076 0.0
C407 C 0.19634 0.66218 0.12117 0.0
C408 C 0.19544 0.70931 0.07303 0.0
C409 C 0.23326 0.69737 0.08457 0.0
C410 C 0.23362 0.67366 0.10881 0.0
N411 N 0.15901 0.69791 0.08526 0.0
C412 C 0.15911 0.67464 0.10902 0.0
Co413 Co 0.78785 0.9373 0.88988 0.0
Co414 Co 0.71311 0.89703 0.93388 0.0
O415 O 0.73304 0.91358 0.89691 0.0
C416 C 0.78156 0.8676 0.84902 0.0
O417 O 0.75889 0.84634 0.86658 0.0
C418 C 0.64928 0.95679 0.91539 0.0
O419 O 0.6795 0.98183 0.90839 0.0
O420 O 0.73077 0.95058 0.95076 0.0
O421 O 0.78354 0.97199 0.92403 0.0
H422 H 0.72291 0.8787 0.03761 0.0
H423 H 0.72363 0.93882 0.84591 0.0
O424 O 0.79441 0.90363 0.8552 0.0
H425 H 0.7595 0.08491 0.86234 0.0
H426 H 0.90119 0.99676 0.82999 0.0
H427 H 0.86047 0.95655 0.92522 0.0
H428 H 0.79476 0.02934 0.88828 0.0
H429 H 0.8319 0.96793 0.8392 0.0
O430 O 0.65739 0.92131 0.92552 0.0
H431 H 0.74789 0.89897 0.99102 0.0
H432 H 0.63449 0.86016 0.95487 0.0
H433 H 0.92994 0.98558 0.91696 0.0
H434 H 0.68785 0.99336 0.81926 0.0
H435 H 0.95071 0.00586 0.86906 0.0
H436 H 0.70564 0.06703 0.82749 0.0
O437 O 0.81533 0.89253 0.91163 0.0
H438 H 0.64223 0.80733 0.86308 0.0
H439 H 0.72526 0.80846 0.94922 0.0
H440 H 0.70439 0.74184 0.92865 0.0
H441 H 0.66248 0.741 0.8853 0.0
H442 H 0.66423 0.87327 0.88416 0.0
H443 H 0.60815 0.83976 1.0011 0.0
H444 H 0.65255 0.84887 0.04286 0.0
O445 O 0.76807 0.87252 0.94318 0.0
C446 C 0.76029 0.97545 0.94534 0.0
C447 C 0.70332 0.87446 0.01956 0.0
C448 C 0.63889 0.85266 0.99907 0.0
N449 N 0.6928 0.88046 0.97023 0.0
C450 C 0.71734 0.88577 0.99312 0.0
C451 C 0.65394 0.86434 0.97296 0.0
C452 C 0.66382 0.85776 0.0225 0.0
C453 C 0.73176 0.97079 0.84944 0.0
N454 N 0.76128 0.98088 0.86863 0.0
C455 C 0.7113 0.00154 0.83436 0.0
C456 C 0.72126 0.04287 0.83901 0.0
C457 C 0.75144 0.05292 0.85858 0.0
C458 C 0.77121 0.02134 0.8733 0.0
C459 C 0.89247 0.98811 0.85096 0.0
C460 C 0.86917 0.96558 0.90434 0.0
C461 C 0.85331 0.97169 0.8563 0.0
N462 N 0.84204 0.96084 0.88276 0.0
C463 C 0.90859 0.98188 0.89978 0.0
C464 C 0.92024 0.99322 0.87289 0.0
C465 C 0.80448 0.87157 0.93293 0.0
C466 C 0.66041 0.8073 0.882 0.0
C467 C 0.70726 0.80836 0.93026 0.0
C468 C 0.6954 0.77054 0.91876 0.0
C469 C 0.67184 0.77009 0.89446 0.0
N470 N 0.69591 0.84473 0.91792 0.0
C471 C 0.67278 0.84454 0.89411 0.0
H472 H 0.90952 0.58213 0.57173 0.0
H473 H 0.02699 0.62229 0.60507 0.0
H474 H 0.93274 0.51054 0.57384 0.0
H475 H 0.04995 0.55052 0.60751 0.0
H476 H 0.97423 0.38338 0.6043 0.0
H477 H 0.95081 0.45512 0.60657 0.0
H478 H 0.06903 0.49579 0.57486 0.0
H479 H 0.09263 0.42443 0.57294 0.0
C480 C 0.94021 0.5757 0.57969 0.0
C481 C 0.9665 0.60802 0.58806 0.0
C482 C 0.95341 0.53458 0.58107 0.0
C483 C 0.99324 0.52478 0.5908 0.0
C484 C 0.01928 0.55706 0.59958 0.0
C485 C 0.00604 0.5982 0.59828 0.0
C486 C 0.9953 0.40765 0.59798 0.0
C487 C 0.03524 0.3981 0.58834 0.0
C488 C 0.9818 0.44874 0.59914 0.0
C489 C 0.00801 0.4812 0.59083 0.0
C490 C 0.04821 0.47163 0.58172 0.0
C491 C 0.06164 0.43061 0.58046 0.0
H492 H 0.6219 0.97021 0.39691 0.0
H493 H 0.58149 0.09095 0.42421 0.0
H494 H 0.54988 0.94787 0.39395 0.0
H495 H 0.50985 0.06841 0.42176 0.0
H496 H 0.3827 0.02627 0.39349 0.0
H497 H 0.45479 0.04827 0.39025 0.0
H498 H 0.49386 0.93201 0.4259 0.0
H499 H 0.42213 0.90975 0.42867 0.0
C500 C 0.59771 0.99204 0.40217 0.0
C501 C 0.60755 0.0323 0.41093 0.0
C502 C 0.55642 0.97916 0.40062 0.0
C503 C 0.52401 0.00628 0.40772 0.0
C504 C 0.53391 0.04684 0.41581 0.0
C505 C 0.57511 0.05968 0.41739 0.0
C506 C 0.40669 0.00531 0.40048 0.0
C507 C 0.39655 0.96633 0.41147 0.0
C508 C 0.44802 0.01799 0.39874 0.0
C509 C 0.48018 0.99197 0.40789 0.0
C510 C 0.47 0.95266 0.41833 0.0
C511 C 0.42875 0.94001 0.4201 0.0
H512 H 0.0334 0.38178 0.10564 0.0
H513 H 0.91202 0.42098 0.07869 0.0
H514 H 0.05508 0.45398 0.10849 0.0
H515 H 0.9339 0.49276 0.08098 0.0
H516 H 0.9748 0.6203 0.10897 0.0
H517 H 0.95353 0.54804 0.11225 0.0
H518 H 0.07031 0.51014 0.07668 0.0
H519 H 0.09186 0.58203 0.07391 0.0
C520 C 0.01131 0.40574 0.10041 0.0
C521 C 0.97104 0.3955 0.09181 0.0
C522 C 0.0238 0.44714 0.1019 0.0
C523 C 0.99629 0.47925 0.09487 0.0
C524 C 0.95576 0.46895 0.08689 0.0
C525 C 0.9433 0.42765 0.08539 0.0
C526 C 0.99602 0.59653 0.102 0.0
C527 C 0.03494 0.60705 0.09104 0.0
C528 C 0.98376 0.55509 0.10376 0.0
C529 C 0.01015 0.5232 0.09466 0.0
C530 C 0.04939 0.53377 0.08423 0.0
C531 C 0.06162 0.57512 0.08245 0.0
H532 H 0.38092 0.97588 0.89678 0.0
H533 H 0.41979 0.09343 0.93054 0.0
H534 H 0.453 0.9539 0.89399 0.0
H535 H 0.49171 0.07117 0.92815 0.0
H536 H 0.57987 0.9121 0.92746 0.0
H537 H 0.5082 0.93487 0.9259 0.0
H538 H 0.54745 0.05437 0.8957 0.0
H539 H 0.61952 0.03179 0.89768 0.0
C540 C 0.4048 0.99705 0.9036 0.0
C541 C 0.39451 0.03633 0.91402 0.0
C542 C 0.44613 0.98437 0.90211 0.0
C543 C 0.47818 0.01071 0.91093 0.0
C544 C 0.46789 0.05028 0.92087 0.0
C545 C 0.42657 0.06293 0.92242 0.0
C546 C 0.57331 0.94319 0.92034 0.0
C547 C 0.60554 0.97018 0.91282 0.0
C548 C 0.53211 0.95616 0.91928 0.0
C549 C 0.52201 0.99647 0.9107 0.0
C550 C 0.55419 0.02328 0.90274 0.0
C551 C 0.59549 0.01026 0.90373 0.0
H552 H 0.26705 0.98387 0.49901 0.0
H553 H 0.19436 0.04133 0.43407 0.0
H554 H 0.24724 0.03968 0.53101 0.0
H555 H 0.17541 0.09657 0.46564 0.0
H556 H 0.17849 0.20931 0.51936 0.0
H557 H 0.21028 0.15548 0.49127 0.0
H558 H 0.17767 0.06436 0.55314 0.0
H559 H 0.14548 0.11827 0.58156 0.0
C560 C 0.24738 0.00854 0.49143 0.0
C561 C 0.23249 0.00814 0.46388 0.0
C562 C 0.23591 0.0403 0.50978 0.0
C563 C 0.21003 0.07256 0.50073 0.0
C564 C 0.19589 0.07248 0.4731 0.0
C565 C 0.20673 0.04061 0.455 0.0
C566 C 0.17844 0.17796 0.5273 0.0
C567 C 0.15888 0.16816 0.55266 0.0
C568 C 0.19666 0.14711 0.51111 0.0
C569 C 0.19612 0.10573 0.51991 0.0
C570 C 0.17871 0.09607 0.54594 0.0
C571 C 0.16011 0.12697 0.56212 0.0
H572 H 0.20785 0.82145 0.47972 0.0
H573 H 0.11426 0.86268 0.4216 0.0
H574 H 0.15471 0.78917 0.50813 0.0
H575 H 0.06099 0.83029 0.4504 0.0
H576 H 0.97881 0.74217 0.50285 0.0
H577 H 0.03363 0.76223 0.47019 0.0
H578 H 0.09988 0.82119 0.53735 0.0
H579 H 0.04581 0.80157 0.56967 0.0
C580 C 0.17604 0.82326 0.47275 0.0
C581 C 0.16541 0.84517 0.44845 0.0
C582 C 0.14555 0.8048 0.48914 0.0
C583 C 0.10365 0.80757 0.48166 0.0
C584 C 0.09307 0.82746 0.45662 0.0
C585 C 0.12362 0.84617 0.4402 0.0
C586 C 0.00534 0.75898 0.51066 0.0
C587 C 0.00787 0.77014 0.53894 0.0
C588 C 0.03656 0.77065 0.49193 0.0
C589 C 0.07113 0.7931 0.50124 0.0
C590 C 0.07397 0.80338 0.52959 0.0
C591 C 0.04274 0.79223 0.54813 0.0
H592 H 0.71377 0.9839 0.48053 0.0
H593 H 0.84264 0.01036 0.46469 0.0
H594 H 0.73436 0.9304 0.51426 0.0
H595 H 0.8628 0.95804 0.49844 0.0
H596 H 0.88401 0.89133 0.57982 0.0
H597 H 0.85381 0.94715 0.5524 0.0
H598 H 0.77736 0.85927 0.50872 0.0
H599 H 0.80788 0.80298 0.5358 0.0
C600 C 0.74635 0.97857 0.48443 0.0
C601 C 0.77659 1.00115 0.46988 0.0
C602 C 0.75806 0.948 0.5036 0.0
C603 C 0.80013 0.94041 0.50901 0.0
C604 C 0.83017 0.9636 0.49487 0.0
C605 C 0.81857 0.99334 0.47539 0.0
C606 C 0.86026 0.88381 0.56475 0.0
C607 C 0.8487 0.84253 0.55986 0.0
C608 C 0.84306 0.91583 0.54903 0.0
C609 C 0.81345 0.9074 0.52841 0.0
C610 C 0.79997 0.86656 0.52462 0.0
C611 C 0.81763 0.83437 0.54006 0.0
H612 H 0.79364 0.17457 0.48433 0.0
H613 H 0.88421 0.15408 0.41942 0.0
H614 H 0.84656 0.20664 0.51312 0.0
H615 H 0.93711 0.18625 0.44847 0.0
H616 H 0.0163 0.27181 0.50403 0.0
H617 H 0.95975 0.2526 0.47264 0.0
H618 H 0.90771 0.17502 0.53688 0.0
H619 H 0.9637 0.19371 0.568 0.0
C620 C 0.82464 0.17738 0.47598 0.0
C621 C 0.83468 0.16122 0.44961 0.0
C622 C 0.85499 0.19568 0.49257 0.0
C623 C 0.89604 0.19855 0.48317 0.0
C624 C 0.90567 0.18465 0.45621 0.0
C625 C 0.87534 0.16607 0.43962 0.0
C626 C 0.99255 0.25099 0.51153 0.0
C627 C 0.99458 0.23442 0.53861 0.0
C628 C 0.96032 0.23988 0.4935 0.0
C629 C 0.92921 0.2125 0.50236 0.0
C630 C 0.93085 0.19669 0.52958 0.0
C631 C 0.96317 0.20731 0.5474 0.0
H632 H 0.73145 0.98683 0.99883 0.0
H633 H 0.80984 0.04222 0.93608 0.0
H634 H 0.74995 0.04254 0.03119 0.0
H635 H 0.82756 0.09732 0.96802 0.0
H636 H 0.82573 0.20993 0.02112 0.0
H637 H 0.79329 0.15729 0.99234 0.0
H638 H 0.81752 0.06555 0.05555 0.0
H639 H 0.85018 0.11821 0.08463 0.0
C640 C 0.75213 0.01102 0.99179 0.0
C641 C 0.76897 0.01006 0.96475 0.0
C642 C 0.76281 0.04275 0.01036 0.0
C643 C 0.78991 0.07441 0.00202 0.0
C644 C 0.80605 0.07376 0.97489 0.0
C645 C 0.79594 0.04194 0.95659 0.0
C646 C 0.82367 0.17873 0.0292 0.0
C647 C 0.84117 0.16828 0.05509 0.0
C648 C 0.80511 0.14856 0.01263 0.0
C649 C 0.80332 0.10727 0.02158 0.0
C650 C 0.81832 0.09719 0.04819 0.0
C651 C 0.83718 0.12738 0.06477 0.0
H652 H 0.1098 0.11658 0.92295 0.0
H653 H 0.19847 0.19356 0.96598 0.0
H654 H 0.05415 0.14704 0.95045 0.0
H655 H 0.1424 0.22432 0.99314 0.0
H656 H 0.01863 0.28811 0.02205 0.0
H657 H 0.07152 0.26707 0.98799 0.0
H658 H 0.04342 0.13895 0.00432 0.0
H659 H 0.99169 0.15957 0.03838 0.0
C660 C 0.11742 0.14056 0.93781 0.0
C661 C 0.15875 0.1523 0.9424 0.0
C662 C 0.0855 0.1579 0.9536 0.0
C663 C 0.09409 0.18784 0.97396 0.0
C664 C 0.13497 0.20147 0.97743 0.0
C665 C 0.16705 0.18366 0.96195 0.0
C666 C 0.02371 0.25551 0.01819 0.0
C667 C 1.0012 0.22549 0.03298 0.0
C668 C 0.05393 0.24353 0.99881 0.0
C669 C 0.06125 0.20142 0.99346 0.0
C670 C 0.03808 0.17161 0.00782 0.0
C671 C 0.00868 0.18347 0.0275 0.0
H672 H 0.13761 0.88981 0.08199 0.0
H673 H 0.1823 0.79562 0.02553 0.0
H674 H 0.17063 0.94286 0.05328 0.0
H675 H 0.21514 0.84849 0.99724 0.0
H676 H 0.20137 0.95541 0.93432 0.0
H677 H 0.18198 0.90205 0.96716 0.0
H678 H 0.2396 0.97056 0.03381 0.0
H679 H 0.25955 0.0247 1.00056 0.0
C680 C 0.15504 0.88028 0.06382 0.0
C681 C 0.15676 0.83839 0.05593 0.0
C682 C 0.1741 0.91069 0.04746 0.0
C683 C 0.19506 0.89982 0.02287 0.0
C684 C 0.19869 0.85783 0.01587 0.0
C685 C 0.17987 0.82751 0.03218 0.0
C686 C 0.2105 0.95913 0.95585 0.0
C687 C 0.23219 0.99441 0.96471 0.0
C688 C 0.19948 0.92831 0.9747 0.0
C689 C 0.20945 0.93199 0.00304 0.0
C690 C 0.23147 0.967 0.01206 0.0
C691 C 0.24307 0.9978 0.993 0.0
H692 H 0.88697 0.86192 0.92003 0.0
H693 H 0.79433 0.82597 0.98041 0.0
H694 H 0.94035 0.82916 0.94867 0.0
H695 H 0.84761 0.79372 0.00874 0.0
H696 H 0.9599 0.80964 0.06773 0.0
H697 H 0.90561 0.82906 0.03553 0.0
H698 H 0.96473 0.75857 0.97041 0.0
H699 H 0.01956 0.73819 0.00307 0.0
C700 C 0.87782 0.84652 0.93909 0.0
C701 C 0.83631 0.84711 0.94802 0.0
C702 C 0.9084 0.82761 0.95541 0.0
C703 C 0.89811 0.80926 0.98102 0.0
C704 C 0.85645 0.80805 0.98923 0.0
C705 C 0.82591 0.82655 0.9729 0.0
C706 C 0.96131 0.79765 0.04672 0.0
C707 C 0.9941 0.77206 0.03813 0.0
C708 C 0.93 0.80877 0.02825 0.0
C709 C 0.93081 0.79514 1.00052 0.0
C710 C 0.96342 0.76949 0.99172 0.0
C711 C 0.99461 0.75769 0.01044 0.0
H712 H 0.17304 0.2788 0.69622 0.0
H713 H 0.14159 0.15276 0.67593 0.0
H714 H 0.19391 0.25698 0.74296 0.0
H715 H 0.16462 0.13043 0.72161 0.0
H716 H 0.15752 0.10704 0.81294 0.0
H717 H 0.14082 0.13232 0.76686 0.0
H718 H 0.24028 0.22133 0.77253 0.0
H719 H 0.25546 0.19709 0.8198 0.0
C720 C 0.17146 0.24632 0.7016 0.0
C721 C 0.1553 0.21752 0.68262 0.0
C722 C 0.18352 0.23373 0.72835 0.0
C723 C 0.18029 0.19196 0.73643 0.0
C724 C 0.16625 0.16304 0.71666 0.0
C725 C 0.15341 0.17573 0.6903 0.0
C726 C 0.17582 0.13207 0.8044 0.0
C727 C 0.20798 0.1499 0.8199 0.0
C728 C 0.1665 0.1464 0.77776 0.0
C729 C 0.1897 0.17841 0.7655 0.0
C730 C 0.22155 0.19681 0.78125 0.0
C731 C 0.23039 0.18288 0.8083 0.0
H732 H 0.12 0.85187 0.18403 0.0
H733 H 0.18929 0.73793 0.18716 0.0
H734 H 0.14315 0.86925 0.23052 0.0
H735 H 0.2108 0.754 0.23493 0.0
H736 H 0.14874 0.87376 0.32227 0.0
H737 H 0.12969 0.85113 0.27592 0.0
H738 H 0.25039 0.79529 0.26572 0.0
H739 H 0.26832 0.81601 0.31334 0.0
C740 C 0.14006 0.83035 0.19486 0.0
C741 C 0.1526 0.79342 0.1821 0.0
C742 C 0.15305 0.84007 0.22172 0.0
C743 C 0.17808 0.81259 0.237 0.0
C744 C 0.19167 0.77602 0.22387 0.0
C745 C 0.1793 0.7667 0.19655 0.0
C746 C 0.17106 0.85629 0.31021 0.0
C747 C 0.21008 0.84688 0.32127 0.0
C748 C 0.16036 0.84364 0.28344 0.0
C749 C 0.18884 0.82224 0.26656 0.0
C750 C 0.22755 0.81157 0.27803 0.0
C751 C 0.23794 0.8235 0.30527 0.0
H752 H 0.87918 0.85236 0.68289 0.0
H753 H 0.81708 0.7349 0.69039 0.0
H754 H 0.85564 0.87174 0.72898 0.0
H755 H 0.79548 0.753 0.73781 0.0
H756 H 0.737 0.81504 0.81558 0.0
H757 H 0.75446 0.79324 0.76809 0.0
H758 H 0.87114 0.85798 0.77462 0.0
H759 H 0.85237 0.88155 0.82077 0.0
C760 C 0.8606 0.83055 0.69461 0.0
C761 C 0.85017 0.79206 0.68321 0.0
C762 C 0.84742 0.84142 0.72124 0.0
C763 C 0.82446 0.81358 0.73766 0.0
C764 C 0.81294 0.77537 0.72586 0.0
C765 C 0.82537 0.76488 0.69874 0.0
C766 C 0.76638 0.82433 0.80671 0.0
C767 C 0.79312 0.85037 0.82163 0.0
C768 C 0.77651 0.81179 0.77955 0.0
C769 C 0.81392 0.82448 0.76708 0.0
C770 C 0.84137 0.84879 0.78287 0.0
C771 C 0.83085 0.86202 0.80955 0.0
H772 H 0.73932 0.18325 0.31376 0.0
H773 H 0.85569 0.11899 0.3215 0.0
H774 H 0.75819 0.20474 0.2665 0.0
H775 H 0.87604 0.14262 0.27567 0.0
H776 H 0.81975 0.26349 0.18944 0.0
H777 H 0.79823 0.24541 0.23683 0.0
H778 H 0.86476 0.12972 0.22982 0.0
H779 H 0.8883 0.14935 0.18385 0.0
C780 C 0.76917 0.1743 0.30544 0.0
C781 C 0.79581 0.14902 0.32103 0.0
C782 C 0.78018 0.18676 0.27843 0.0
C783 C 0.81848 0.17494 0.2668 0.0
C784 C 0.84566 0.15115 0.28321 0.0
C785 C 0.83421 0.13785 0.30971 0.0
C786 C 0.8297 0.23431 0.19827 0.0
C787 C 0.85612 0.20808 0.18321 0.0
C788 C 0.81722 0.22375 0.22536 0.0
C789 C 0.83019 0.18628 0.23762 0.0
C790 C 0.85527 0.15951 0.22179 0.0
C791 C 0.86855 0.17055 0.1952 0.0
loop_
_geom_bond_atom_site_label_1
_geom_bond_atom_site_label_2
_geom_bond_distance
_geom_bond_site_symmetry_2
_ccdc_geom_bond_type
Co0 O2 2.143 . S
Co0 O8 2.074 . S
Co0 O11 2.093 . S
Co0 O24 2.097 . S
Co0 N41 2.151 . S
Co0 N49 2.214 . S
Co1 O2 2.160 . S
Co1 O7 2.058 . S
Co1 O17 2.057 . S
Co1 O32 2.037 . S
Co1 N36 2.145 . S
Co1 N57 2.257 . S
O2 Co0 2.143 . S
O2 Co1 2.160 . S
C3 O4 1.278 . S
C3 O11 1.224 . S
O4 C3 1.278 . S
C5 O6 1.245 . S
C5 O17 1.232 . S
O6 C5 1.245 . S
O7 Co1 2.058 . S
O7 C33 1.269 . S
O8 Co0 2.074 . S
O8 C33 1.257 . S
H9 C34 0.930 . S
H10 C40 0.930 . S
O11 Co0 2.093 . S
O11 C3 1.224 . S
H12 C44 0.929 . S
H13 C46 0.930 . S
H14 C47 0.930 . S
H15 C45 0.929 . S
H16 C48 0.928 . S
O17 Co1 2.057 . S
O17 C5 1.232 . S
H18 C37 0.929 . S
H19 C38 0.929 . S
H20 C50 0.931 . S
H21 C42 0.929 . S
H22 C51 0.930 . S
H23 C43 0.931 . S
O24 Co0 2.097 . S
O24 C52 1.214 . S
H25 C53 0.929 . S
H26 C54 0.929 . S
H27 C55 0.930 . S
H28 C56 0.929 . S
H29 C58 0.930 . S
H30 C35 0.930 . S
H31 C39 0.930 . S
O32 Co1 2.037 . S
O32 C52 1.234 . S
C33 O7 1.269 . S
C33 O8 1.257 . S
C34 H9 0.930 . S
C34 C37 1.388 . S
C34 C39 1.418 . S
C35 H30 0.930 . S
C35 C38 1.404 . S
C35 C39 1.353 . S
N36 Co1 2.145 . S
N36 C37 1.397 . S
N36 C38 1.334 . S
C37 H18 0.929 . S
C37 C34 1.388 . S
C37 N36 1.397 . S
C38 H19 0.929 . S
C38 C35 1.404 . S
C38 N36 1.334 . S
C39 H31 0.930 . S
C39 C34 1.418 . S
C39 C35 1.353 . S
C40 H10 0.930 . S
C40 N41 1.330 . S
C40 C42 1.446 1_455 S
N41 Co0 2.151 . S
N41 C40 1.330 . S
N41 C45 1.418 1_455 S
C42 H21 0.929 . S
C42 C40 1.446 1_655 S
C42 C43 1.332 . S
C43 H23 0.931 . S
C43 C42 1.332 . S
C43 C44 1.267 . S
C44 H12 0.929 . S
C44 C43 1.267 . S
C44 C45 1.251 . S
C45 H15 0.929 . S
C45 N41 1.418 1_655 S
C45 C44 1.251 . S
C46 H13 0.930 . S
C46 C48 1.406 . S
C46 C51 1.261 . S
C47 H14 0.930 . S
C47 N49 1.325 . S
C47 C50 1.357 . S
C48 H16 0.928 . S
C48 C46 1.406 . S
C48 N49 1.261 . S
N49 Co0 2.214 . S
N49 C47 1.325 . S
N49 C48 1.261 . S
C50 H20 0.931 . S
C50 C47 1.357 . S
C50 C51 1.312 . S
C51 H22 0.930 . S
C51 C46 1.261 . S
C51 C50 1.312 . S
C52 O24 1.214 . S
C52 O32 1.234 . S
C53 H25 0.929 . S
C53 C56 1.391 . S
C53 C58 1.391 . S
C54 H26 0.929 . S
C54 C55 1.390 . S
C54 N57 1.391 . S
C55 H27 0.930 . S
C55 C54 1.390 . S
C55 C56 1.392 . S
C56 H28 0.929 . S
C56 C53 1.391 . S
C56 C55 1.392 . S
N57 Co1 2.257 . S
N57 C54 1.391 . S
N57 C58 1.388 . S
C58 H29 0.930 . S
C58 C53 1.391 . S
C58 N57 1.388 . S
Co59 O61 2.143 . S
Co59 O67 2.074 . S
Co59 O70 2.093 . S
Co59 O83 2.097 . S
Co59 N100 2.151 . S
Co59 N108 2.214 . S
Co60 O61 2.160 . S
Co60 O66 2.058 . S
Co60 O76 2.057 . S
Co60 O91 2.037 . S
Co60 N95 2.145 . S
Co60 N116 2.257 . S
O61 Co59 2.143 . S
O61 Co60 2.160 . S
C62 O63 1.278 . S
C62 O70 1.224 . S
O63 C62 1.278 . S
C64 O65 1.245 . S
C64 O76 1.232 . S
O65 C64 1.245 . S
O66 Co60 2.058 . S
O66 C92 1.269 . S
O67 Co59 2.074 . S
O67 C92 1.257 . S
H68 C93 0.930 . S
H69 C99 0.930 . S
O70 Co59 2.093 . S
O70 C62 1.224 . S
H71 C103 0.929 . S
H72 C105 0.930 . S
H73 C106 0.930 . S
H74 C104 0.929 . S
H75 C107 0.928 . S
O76 Co60 2.057 . S
O76 C64 1.232 . S
H77 C96 0.929 . S
H78 C97 0.929 . S
H79 C109 0.931 . S
H80 C101 0.929 . S
H81 C110 0.930 . S
H82 C102 0.931 . S
O83 Co59 2.097 . S
O83 C111 1.214 . S
H84 C112 0.929 . S
H85 C113 0.929 . S
H86 C114 0.930 . S
H87 C115 0.929 . S
H88 C117 0.930 . S
H89 C94 0.930 . S
H90 C98 0.930 . S
O91 Co60 2.037 . S
O91 C111 1.234 . S
C92 O66 1.269 . S
C92 O67 1.257 . S
C93 H68 0.930 . S
C93 C96 1.388 . S
C93 C98 1.418 . S
C94 H89 0.930 . S
C94 C97 1.404 . S
C94 C98 1.353 . S
N95 Co60 2.145 . S
N95 C96 1.397 . S
N95 C97 1.334 . S
C96 H77 0.929 . S
C96 C93 1.388 . S
C96 N95 1.397 . S
C97 H78 0.929 . S
C97 C94 1.404 . S
C97 N95 1.334 . S
C98 H90 0.930 . S
C98 C93 1.418 . S
C98 C94 1.353 . S
C99 H69 0.930 . S
C99 N100 1.330 . S
C99 C101 1.446 1_565 S
N100 Co59 2.151 . S
N100 C99 1.330 . S
N100 C104 1.418 1_565 S
C101 H80 0.929 . S
C101 C99 1.446 1_545 S
C101 C102 1.332 . S
C102 H82 0.931 . S
C102 C101 1.332 . S
C102 C103 1.267 . S
C103 H71 0.929 . S
C103 C102 1.267 . S
C103 C104 1.251 . S
C104 H74 0.929 . S
C104 N100 1.418 1_545 S
C104 C103 1.251 . S
C105 H72 0.930 . S
C105 C107 1.406 . S
C105 C110 1.261 . S
C106 H73 0.930 . S
C106 N108 1.325 . S
C106 C109 1.357 . S
C107 H75 0.928 . S
C107 C105 1.406 . S
C107 N108 1.261 . S
N108 Co59 2.214 . S
N108 C106 1.325 . S
N108 C107 1.261 . S
C109 H79 0.931 . S
C109 C106 1.357 . S
C109 C110 1.312 . S
C110 H81 0.930 . S
C110 C105 1.261 . S
C110 C109 1.312 . S
C111 O83 1.214 . S
C111 O91 1.234 . S
C112 H84 0.929 . S
C112 C115 1.391 . S
C112 C117 1.391 . S
C113 H85 0.929 . S
C113 C114 1.390 . S
C113 N116 1.391 . S
C114 H86 0.930 . S
C114 C113 1.390 . S
C114 C115 1.392 . S
C115 H87 0.929 . S
C115 C112 1.391 . S
C115 C114 1.392 . S
N116 Co60 2.257 . S
N116 C113 1.391 . S
N116 C117 1.388 . S
C117 H88 0.930 . S
C117 C112 1.391 . S
C117 N116 1.388 . S
Co118 O120 2.143 . S
Co118 O126 2.074 . S
Co118 O129 2.093 . S
Co118 O142 2.097 . S
Co118 N159 2.151 . S
Co118 N167 2.214 . S
Co119 O120 2.160 . S
Co119 O125 2.058 . S
Co119 O135 2.057 . S
Co119 O150 2.037 . S
Co119 N154 2.145 . S
Co119 N175 2.257 . S
O120 Co118 2.143 . S
O120 Co119 2.160 . S
C121 O122 1.278 . S
C121 O129 1.224 . S
O122 C121 1.278 . S
C123 O124 1.245 . S
C123 O135 1.232 . S
O124 C123 1.245 . S
O125 Co119 2.058 . S
O125 C151 1.269 . S
O126 Co118 2.074 . S
O126 C151 1.257 . S
H127 C152 0.930 . S
H128 C158 0.930 . S
O129 Co118 2.093 . S
O129 C121 1.224 . S
H130 C162 0.929 . S
H131 C164 0.930 . S
H132 C165 0.930 . S
H133 C163 0.929 . S
H134 C166 0.928 . S
O135 Co119 2.057 . S
O135 C123 1.232 . S
H136 C155 0.929 . S
H137 C156 0.929 . S
H138 C168 0.931 . S
H139 C160 0.929 . S
H140 C169 0.930 . S
H141 C161 0.931 . S
O142 Co118 2.097 . S
O142 C170 1.214 . S
H143 C171 0.929 . S
H144 C172 0.929 . S
H145 C173 0.930 . S
H146 C174 0.929 . S
H147 C176 0.930 . S
H148 C153 0.930 . S
H149 C157 0.930 . S
O150 Co119 2.037 . S
O150 C170 1.234 . S
C151 O125 1.269 . S
C151 O126 1.257 . S
C152 H127 0.930 . S
C152 C155 1.388 . S
C152 C157 1.418 . S
C153 H148 0.930 . S
C153 C156 1.404 . S
C153 C157 1.353 . S
N154 Co119 2.145 . S
N154 C155 1.397 . S
N154 C156 1.334 . S
C155 H136 0.929 . S
C155 C152 1.388 . S
C155 N154 1.397 . S
C156 H137 0.929 . S
C156 C153 1.404 . S
C156 N154 1.334 . S
C157 H149 0.930 . S
C157 C152 1.418 . S
C157 C153 1.353 . S
C158 H128 0.930 . S
C158 N159 1.330 . S
C158 C160 1.446 1_655 S
N159 Co118 2.151 . S
N159 C158 1.330 . S
N159 C163 1.418 1_655 S
C160 H139 0.929 . S
C160 C158 1.446 1_455 S
C160 C161 1.332 . S
C161 H141 0.931 . S
C161 C160 1.332 . S
C161 C162 1.267 . S
C162 H130 0.929 . S
C162 C161 1.267 . S
C162 C163 1.251 . S
C163 H133 0.929 . S
C163 N159 1.418 1_455 S
C163 C162 1.251 . S
C164 H131 0.930 . S
C164 C166 1.406 . S
C164 C169 1.261 . S
C165 H132 0.930 . S
C165 N167 1.325 . S
C165 C168 1.357 . S
C166 H134 0.928 . S
C166 C164 1.406 . S
C166 N167 1.261 . S
N167 Co118 2.214 . S
N167 C165 1.325 . S
N167 C166 1.261 . S
C168 H138 0.931 . S
C168 C165 1.357 . S
C168 C169 1.312 . S
C169 H140 0.930 . S
C169 C164 1.261 . S
C169 C168 1.312 . S
C170 O142 1.214 . S
C170 O150 1.234 . S
C171 H143 0.929 . S
C171 C174 1.391 . S
C171 C176 1.391 . S
C172 H144 0.929 . S
C172 C173 1.390 . S
C172 N175 1.391 . S
C173 H145 0.930 . S
C173 C172 1.390 . S
C173 C174 1.392 . S
C174 H146 0.929 . S
C174 C171 1.391 . S
C174 C173 1.392 . S
N175 Co119 2.257 . S
N175 C172 1.391 . S
N175 C176 1.388 . S
C176 H147 0.930 . S
C176 C171 1.391 . S
C176 N175 1.388 . S
Co177 O179 2.143 . S
Co177 O185 2.074 . S
Co177 O188 2.093 . S
Co177 O201 2.097 . S
Co177 N218 2.151 . S
Co177 N226 2.214 . S
Co178 O179 2.160 . S
Co178 O184 2.058 . S
Co178 O194 2.057 . S
Co178 O209 2.037 . S
Co178 N213 2.145 . S
Co178 N234 2.257 . S
O179 Co177 2.143 . S
O179 Co178 2.160 . S
C180 O181 1.278 . S
C180 O188 1.224 . S
O181 C180 1.278 . S
C182 O183 1.245 . S
C182 O194 1.232 . S
O183 C182 1.245 . S
O184 Co178 2.058 . S
O184 C210 1.269 . S
O185 Co177 2.074 . S
O185 C210 1.257 . S
H186 C211 0.930 . S
H187 C217 0.930 . S
O188 Co177 2.093 . S
O188 C180 1.224 . S
H189 C221 0.929 . S
H190 C223 0.930 . S
H191 C224 0.930 . S
H192 C222 0.929 . S
H193 C225 0.928 . S
O194 Co178 2.057 . S
O194 C182 1.232 . S
H195 C214 0.929 . S
H196 C215 0.929 . S
H197 C227 0.931 . S
H198 C219 0.929 . S
H199 C228 0.930 . S
H200 C220 0.931 . S
O201 Co177 2.097 . S
O201 C229 1.214 . S
H202 C230 0.929 . S
H203 C231 0.929 . S
H204 C232 0.930 . S
H205 C233 0.929 . S
H206 C235 0.930 . S
H207 C212 0.930 . S
H208 C216 0.930 . S
O209 Co178 2.037 . S
O209 C229 1.234 . S
C210 O184 1.269 . S
C210 O185 1.257 . S
C211 H186 0.930 . S
C211 C214 1.388 . S
C211 C216 1.418 . S
C212 H207 0.930 . S
C212 C215 1.404 . S
C212 C216 1.353 . S
N213 Co178 2.145 . S
N213 C214 1.397 . S
N213 C215 1.334 . S
C214 H195 0.929 . S
C214 C211 1.388 . S
C214 N213 1.397 . S
C215 H196 0.929 . S
C215 C212 1.404 . S
C215 N213 1.334 . S
C216 H208 0.930 . S
C216 C211 1.418 . S
C216 C212 1.353 . S
C217 H187 0.930 . S
C217 N218 1.330 . S
C217 C219 1.446 1_545 S
N218 Co177 2.151 . S
N218 C217 1.330 . S
N218 C222 1.418 1_545 S
C219 H198 0.929 . S
C219 C217 1.446 1_565 S
C219 C220 1.332 . S
C220 H200 0.931 . S
C220 C219 1.332 . S
C220 C221 1.267 . S
C221 H189 0.929 . S
C221 C220 1.267 . S
C221 C222 1.251 . S
C222 H192 0.929 . S
C222 N218 1.418 1_565 S
C222 C221 1.251 . S
C223 H190 0.930 . S
C223 C225 1.406 . S
C223 C228 1.261 . S
C224 H191 0.930 . S
C224 N226 1.325 . S
C224 C227 1.357 . S
C225 H193 0.928 . S
C225 C223 1.406 . S
C225 N226 1.261 . S
N226 Co177 2.214 . S
N226 C224 1.325 . S
N226 C225 1.261 . S
C227 H197 0.931 . S
C227 C224 1.357 . S
C227 C228 1.312 . S
C228 H199 0.930 . S
C228 C223 1.261 . S
C228 C227 1.312 . S
C229 O201 1.214 . S
C229 O209 1.234 . S
C230 H202 0.929 . S
C230 C233 1.391 . S
C230 C235 1.391 . S
C231 H203 0.929 . S
C231 C232 1.390 . S
C231 N234 1.391 . S
C232 H204 0.930 . S
C232 C231 1.390 . S
C232 C233 1.392 . S
C233 H205 0.929 . S
C233 C230 1.391 . S
C233 C232 1.392 . S
N234 Co178 2.257 . S
N234 C231 1.391 . S
N234 C235 1.388 . S
C235 H206 0.930 . S
C235 C230 1.391 . S
C235 N234 1.388 . S
Co236 O238 2.143 . S
Co236 O244 2.074 . S
Co236 O247 2.093 . S
Co236 O260 2.097 . S
Co236 N277 2.151 . S
Co236 N285 2.214 . S
Co237 O238 2.160 . S
Co237 O243 2.058 . S
Co237 O253 2.057 . S
Co237 O268 2.037 . S
Co237 N272 2.145 . S
Co237 N293 2.257 . S
O238 Co236 2.143 . S
O238 Co237 2.160 . S
C239 O240 1.278 . S
C239 O247 1.224 . S
O240 C239 1.278 . S
C241 O242 1.245 . S
C241 O253 1.232 . S
O242 C241 1.245 . S
O243 Co237 2.058 . S
O243 C269 1.269 . S
O244 Co236 2.074 . S
O244 C269 1.257 . S
H245 C270 0.930 . S
H246 C276 0.930 . S
O247 Co236 2.093 . S
O247 C239 1.224 . S
H248 C280 0.929 . S
H249 C282 0.930 . S
H250 C283 0.930 . S
H251 C281 0.929 . S
H252 C284 0.928 . S
O253 Co237 2.057 . S
O253 C241 1.232 . S
H254 C273 0.931 . S
H255 C274 0.929 . S
H256 C286 0.931 . S
H257 C278 0.929 . S
H258 C287 0.930 . S
H259 C279 0.931 . S
O260 Co236 2.097 . S
O260 C288 1.214 . S
H261 C289 0.929 . S
H262 C290 0.929 . S
H263 C291 0.930 . S
H264 C292 0.929 . S
H265 C294 0.930 . S
H266 C271 0.930 . S
H267 C275 0.930 . S
O268 Co237 2.037 . S
O268 C288 1.234 . S
C269 O243 1.269 . S
C269 O244 1.257 . S
C270 H245 0.930 . S
C270 C273 1.388 . S
C270 C275 1.418 . S
C271 H266 0.930 . S
C271 C274 1.404 1_556 S
C271 C275 1.353 . S
N272 Co237 2.145 . S
N272 C273 1.397 1_554 S
N272 C274 1.334 . S
C273 H254 0.931 . S
C273 C270 1.388 . S
C273 N272 1.397 1_556 S
C274 H255 0.929 . S
C274 C271 1.404 1_554 S
C274 N272 1.334 . S
C275 H267 0.930 . S
C275 C270 1.418 . S
C275 C271 1.353 . S
C276 H246 0.930 . S
C276 N277 1.330 . S
C276 C278 1.446 1_655 S
N277 Co236 2.151 . S
N277 C276 1.330 . S
N277 C281 1.418 1_655 S
C278 H257 0.929 . S
C278 C276 1.446 1_455 S
C278 C279 1.332 . S
C279 H259 0.931 . S
C279 C278 1.332 . S
C279 C280 1.267 . S
C280 H248 0.929 . S
C280 C279 1.267 . S
C280 C281 1.251 . S
C281 H251 0.929 . S
C281 N277 1.418 1_455 S
C281 C280 1.251 . S
C282 H249 0.930 . S
C282 C284 1.406 . S
C282 C287 1.261 . S
C283 H250 0.930 . S
C283 N285 1.325 . S
C283 C286 1.357 . S
C284 H252 0.928 . S
C284 C282 1.406 . S
C284 N285 1.261 . S
N285 Co236 2.214 . S
N285 C283 1.325 . S
N285 C284 1.261 . S
C286 H256 0.931 . S
C286 C283 1.357 . S
C286 C287 1.312 . S
C287 H258 0.930 . S
C287 C282 1.261 . S
C287 C286 1.312 . S
C288 O260 1.214 . S
C288 O268 1.234 . S
C289 H261 0.929 . S
C289 C292 1.391 . S
C289 C294 1.391 . S
C290 H262 0.929 . S
C290 C291 1.390 . S
C290 N293 1.391 . S
C291 H263 0.930 . S
C291 C290 1.390 . S
C291 C292 1.392 . S
C292 H264 0.929 . S
C292 C289 1.391 . S
C292 C291 1.392 . S
N293 Co237 2.257 . S
N293 C290 1.391 . S
N293 C294 1.388 . S
C294 H265 0.930 . S
C294 C289 1.391 . S
C294 N293 1.388 . S
Co295 O297 2.143 . S
Co295 O303 2.074 . S
Co295 O306 2.093 . S
Co295 O319 2.097 . S
Co295 N336 2.151 . S
Co295 N344 2.214 . S
Co296 O297 2.160 . S
Co296 O302 2.058 . S
Co296 O312 2.057 . S
Co296 O327 2.037 . S
Co296 N331 2.145 . S
Co296 N352 2.257 . S
O297 Co295 2.143 . S
O297 Co296 2.160 . S
C298 O299 1.278 . S
C298 O306 1.224 . S
O299 C298 1.278 . S
C300 O301 1.245 . S
C300 O312 1.232 . S
O301 C300 1.245 . S
O302 Co296 2.058 . S
O302 C328 1.269 . S
O303 Co295 2.074 . S
O303 C328 1.257 . S
H304 C329 0.930 . S
H305 C335 0.930 . S
O306 Co295 2.093 . S
O306 C298 1.224 . S
H307 C339 0.929 . S
H308 C341 0.930 . S
H309 C342 0.930 . S
H310 C340 0.929 . S
H311 C343 0.928 . S
O312 Co296 2.057 . S
O312 C300 1.232 . S
H313 C332 0.931 . S
H314 C333 0.929 . S
H315 C345 0.931 . S
H316 C337 0.929 . S
H317 C346 0.930 . S
H318 C338 0.931 . S
O319 Co295 2.097 . S
O319 C347 1.214 . S
H320 C348 0.929 . S
H321 C349 0.929 . S
H322 C350 0.930 . S
H323 C351 0.929 . S
H324 C353 0.930 . S
H325 C330 0.930 . S
H326 C334 0.930 . S
O327 Co296 2.037 . S
O327 C347 1.234 . S
C328 O302 1.269 . S
C328 O303 1.257 . S
C329 H304 0.930 . S
C329 C332 1.388 . S
C329 C334 1.418 . S
C330 H325 0.930 . S
C330 C333 1.404 1_554 S
C330 C334 1.353 . S
N331 Co296 2.145 . S
N331 C332 1.397 1_556 S
N331 C333 1.334 . S
C332 H313 0.931 . S
C332 C329 1.388 . S
C332 N331 1.397 1_554 S
C333 H314 0.929 . S
C333 C330 1.404 1_556 S
C333 N331 1.334 . S
C334 H326 0.930 . S
C334 C329 1.418 . S
C334 C330 1.353 . S
C335 H305 0.930 . S
C335 N336 1.330 . S
C335 C337 1.446 1_545 S
N336 Co295 2.151 . S
N336 C335 1.330 . S
N336 C340 1.418 1_545 S
C337 H316 0.929 . S
C337 C335 1.446 1_565 S
C337 C338 1.332 . S
C338 H318 0.931 . S
C338 C337 1.332 . S
C338 C339 1.267 . S
C339 H307 0.929 . S
C339 C338 1.267 . S
C339 C340 1.251 . S
C340 H310 0.929 . S
C340 N336 1.418 1_565 S
C340 C339 1.251 . S
C341 H308 0.930 . S
C341 C343 1.406 . S
C341 C346 1.261 . S
C342 H309 0.930 . S
C342 N344 1.325 . S
C342 C345 1.357 . S
C343 H311 0.928 . S
C343 C341 1.406 . S
C343 N344 1.261 . S
N344 Co295 2.214 . S
N344 C342 1.325 . S
N344 C343 1.261 . S
C345 H315 0.931 . S
C345 C342 1.357 . S
C345 C346 1.312 . S
C346 H317 0.930 . S
C346 C341 1.261 . S
C346 C345 1.312 . S
C347 O319 1.214 . S
C347 O327 1.234 . S
C348 H320 0.929 . S
C348 C351 1.391 . S
C348 C353 1.391 . S
C349 H321 0.929 . S
C349 C350 1.390 . S
C349 N352 1.391 . S
C350 H322 0.930 . S
C350 C349 1.390 . S
C350 C351 1.392 . S
C351 H323 0.929 . S
C351 C348 1.391 . S
C351 C350 1.392 . S
N352 Co296 2.257 . S
N352 C349 1.391 . S
N352 C353 1.388 . S
C353 H324 0.930 . S
C353 C348 1.391 . S
C353 N352 1.388 . S
Co354 O356 2.143 . S
Co354 O362 2.074 . S
Co354 O365 2.093 . S
Co354 O378 2.097 . S
Co354 N395 2.151 . S
Co354 N403 2.214 . S
Co355 O356 2.160 . S
Co355 O361 2.058 . S
Co355 O371 2.057 . S
Co355 O386 2.037 . S
Co355 N390 2.145 . S
Co355 N411 2.257 . S
O356 Co354 2.143 . S
O356 Co355 2.160 . S
C357 O358 1.278 . S
C357 O365 1.224 . S
O358 C357 1.278 . S
C359 O360 1.245 . S
C359 O371 1.232 . S
O360 C359 1.245 . S
O361 Co355 2.058 . S
O361 C387 1.269 . S
O362 Co354 2.074 . S
O362 C387 1.257 . S
H363 C388 0.930 . S
H364 C394 0.930 . S
O365 Co354 2.093 . S
O365 C357 1.224 . S
H366 C398 0.929 . S
H367 C400 0.930 . S
H368 C401 0.930 . S
H369 C399 0.929 . S
H370 C402 0.928 . S
O371 Co355 2.057 . S
O371 C359 1.232 . S
H372 C391 0.931 . S
H373 C392 0.929 . S
H374 C404 0.931 . S
H375 C396 0.929 . S
H376 C405 0.930 . S
H377 C397 0.931 . S
O378 Co354 2.097 . S
O378 C406 1.214 . S
H379 C407 0.929 . S
H380 C408 0.929 . S
H381 C409 0.930 . S
H382 C410 0.929 . S
H383 C412 0.930 . S
H384 C389 0.930 . S
H385 C393 0.930 . S
O386 Co355 2.037 . S
O386 C406 1.234 . S
C387 O361 1.269 . S
C387 O362 1.257 . S
C388 H363 0.930 . S
C388 C391 1.388 . S
C388 C393 1.418 . S
C389 H384 0.930 . S
C389 C392 1.404 1_556 S
C389 C393 1.353 . S
N390 Co355 2.145 . S
N390 C391 1.397 1_554 S
N390 C392 1.334 . S
C391 H372 0.931 . S
C391 C388 1.388 . S
C391 N390 1.397 1_556 S
C392 H373 0.929 . S
C392 C389 1.404 1_554 S
C392 N390 1.334 . S
C393 H385 0.930 . S
C393 C388 1.418 . S
C393 C389 1.353 . S
C394 H364 0.930 . S
C394 N395 1.330 . S
C394 C396 1.446 1_455 S
N395 Co354 2.151 . S
N395 C394 1.330 . S
N395 C399 1.418 1_455 S
C396 H375 0.929 . S
C396 C394 1.446 1_655 S
C396 C397 1.332 . S
C397 H377 0.931 . S
C397 C396 1.332 . S
C397 C398 1.267 . S
C398 H366 0.929 . S
C398 C397 1.267 . S
C398 C399 1.251 . S
C399 H369 0.929 . S
C399 N395 1.418 1_655 S
C399 C398 1.251 . S
C400 H367 0.930 . S
C400 C402 1.406 . S
C400 C405 1.261 . S
C401 H368 0.930 . S
C401 N403 1.325 . S
C401 C404 1.357 . S
C402 H370 0.928 . S
C402 C400 1.406 . S
C402 N403 1.261 . S
N403 Co354 2.214 . S
N403 C401 1.325 . S
N403 C402 1.261 . S
C404 H374 0.931 . S
C404 C401 1.357 . S
C404 C405 1.312 . S
C405 H376 0.930 . S
C405 C400 1.261 . S
C405 C404 1.312 . S
C406 O378 1.214 . S
C406 O386 1.234 . S
C407 H379 0.929 . S
C407 C410 1.391 . S
C407 C412 1.391 . S
C408 H380 0.929 . S
C408 C409 1.390 . S
C408 N411 1.391 . S
C409 H381 0.930 . S
C409 C408 1.390 . S
C409 C410 1.392 . S
C410 H382 0.929 . S
C410 C407 1.391 . S
C410 C409 1.392 . S
N411 Co355 2.257 . S
N411 C408 1.391 . S
N411 C412 1.388 . S
C412 H383 0.930 . S
C412 C407 1.391 . S
C412 N411 1.388 . S
Co413 O415 2.143 . S
Co413 O421 2.074 . S
Co413 O424 2.093 . S
Co413 O437 2.097 . S
Co413 N454 2.151 . S
Co413 N462 2.214 . S
Co414 O415 2.160 . S
Co414 O420 2.058 . S
Co414 O430 2.057 . S
Co414 O445 2.037 . S
Co414 N449 2.145 . S
Co414 N470 2.257 . S
O415 Co413 2.143 . S
O415 Co414 2.160 . S
C416 O417 1.278 . S
C416 O424 1.224 . S
O417 C416 1.278 . S
C418 O419 1.245 . S
C418 O430 1.232 . S
O419 C418 1.245 . S
O420 Co414 2.058 . S
O420 C446 1.269 . S
O421 Co413 2.074 . S
O421 C446 1.257 . S
H422 C447 0.930 . S
H423 C453 0.930 . S
O424 Co413 2.093 . S
O424 C416 1.224 . S
H425 C457 0.929 . S
H426 C459 0.930 . S
H427 C460 0.930 . S
H428 C458 0.929 . S
H429 C461 0.928 . S
O430 Co414 2.057 . S
O430 C418 1.232 . S
H431 C450 0.931 . S
H432 C451 0.929 . S
H433 C463 0.931 . S
H434 C455 0.929 . S
H435 C464 0.930 . S
H436 C456 0.931 . S
O437 Co413 2.097 . S
O437 C465 1.214 . S
H438 C466 0.929 . S
H439 C467 0.929 . S
H440 C468 0.930 . S
H441 C469 0.929 . S
H442 C471 0.930 . S
H443 C448 0.930 . S
H444 C452 0.930 . S
O445 Co414 2.037 . S
O445 C465 1.234 . S
C446 O420 1.269 . S
C446 O421 1.257 . S
C447 H422 0.930 . S
C447 C450 1.388 . S
C447 C452 1.418 . S
C448 H443 0.930 . S
C448 C451 1.404 1_554 S
C448 C452 1.353 . S
N449 Co414 2.145 . S
N449 C450 1.397 1_556 S
N449 C451 1.334 . S
C450 H431 0.931 . S
C450 C447 1.388 . S
C450 N449 1.397 1_554 S
C451 H432 0.929 . S
C451 C448 1.404 1_556 S
C451 N449 1.334 . S
C452 H444 0.930 . S
C452 C447 1.418 . S
C452 C448 1.353 . S
C453 H423 0.930 . S
C453 N454 1.330 . S
C453 C455 1.446 1_565 S
N454 Co413 2.151 . S
N454 C453 1.330 . S
N454 C458 1.418 1_565 S
C455 H434 0.929 . S
C455 C453 1.446 1_545 S
C455 C456 1.332 . S
C456 H436 0.931 . S
C456 C455 1.332 . S
C456 C457 1.267 . S
C457 H425 0.929 . S
C457 C456 1.267 . S
C457 C458 1.251 . S
C458 H428 0.929 . S
C458 N454 1.418 1_545 S
C458 C457 1.251 . S
C459 H426 0.930 . S
C459 C461 1.406 . S
C459 C464 1.261 . S
C460 H427 0.930 . S
C460 N462 1.325 . S
C460 C463 1.357 . S
C461 H429 0.928 . S
C461 C459 1.406 . S
C461 N462 1.261 . S
N462 Co413 2.214 . S
N462 C460 1.325 . S
N462 C461 1.261 . S
C463 H433 0.931 . S
C463 C460 1.357 . S
C463 C464 1.312 . S
C464 H435 0.930 . S
C464 C459 1.261 . S
C464 C463 1.312 . S
C465 O437 1.214 . S
C465 O445 1.234 . S
C466 H438 0.929 . S
C466 C469 1.391 . S
C466 C471 1.391 . S
C467 H439 0.929 . S
C467 C468 1.390 . S
C467 N470 1.391 . S
C468 H440 0.930 . S
C468 C467 1.390 . S
C468 C469 1.392 . S
C469 H441 0.929 . S
C469 C466 1.391 . S
C469 C468 1.392 . S
N470 Co414 2.257 . S
N470 C467 1.391 . S
N470 C471 1.388 . S
C471 H442 0.930 . S
C471 C466 1.391 . S
C471 N470 1.388 . S
H472 C480 0.950 . S
H473 C485 0.950 . S
H474 C482 0.950 . S
H475 C484 0.950 1_455 S
H476 C486 0.950 . S
H477 C488 0.950 . S
H478 C490 0.950 1_655 S
H479 C491 0.950 . S
C480 H472 0.950 . S
C480 C481 1.386 . S
C480 C482 1.391 . S
C481 C480 1.386 . S
C481 C485 1.393 . S
C482 H474 0.950 . S
C482 C480 1.391 . S
C482 C483 1.400 . S
C483 C482 1.400 . S
C483 C484 1.398 . S
C483 C489 1.491 1_655 S
C484 H475 0.950 1_655 S
C484 C483 1.398 . S
C484 C485 1.391 . S
C485 H473 0.950 . S
C485 C481 1.393 . S
C485 C484 1.391 . S
C486 H476 0.950 . S
C486 C487 1.386 . S
C486 C488 1.391 . S
C487 C486 1.386 . S
C487 C491 1.393 . S
C488 H477 0.950 . S
C488 C486 1.391 . S
C488 C489 1.400 . S
C489 C483 1.491 1_455 S
C489 C488 1.400 . S
C489 C490 1.398 . S
C490 H478 0.950 1_455 S
C490 C489 1.398 . S
C490 C491 1.391 . S
C491 H479 0.950 . S
C491 C487 1.393 . S
C491 C490 1.391 . S
H492 C500 0.950 . S
H493 C505 0.950 . S
H494 C502 0.950 . S
H495 C504 0.950 . S
H496 C506 0.950 . S
H497 C508 0.950 . S
H498 C510 0.950 . S
H499 C511 0.950 . S
C500 H492 0.950 . S
C500 C501 1.386 . S
C500 C502 1.391 1_545 S
C501 C500 1.386 . S
C501 C505 1.393 . S
C502 H494 0.950 . S
C502 C500 1.391 1_565 S
C502 C503 1.400 1_565 S
C503 C502 1.400 1_545 S
C503 C504 1.398 . S
C503 C509 1.491 1_545 S
C504 H495 0.950 . S
C504 C503 1.398 . S
C504 C505 1.391 . S
C505 H493 0.950 . S
C505 C501 1.393 . S
C505 C504 1.391 . S
C506 H496 0.950 . S
C506 C507 1.386 . S
C506 C508 1.391 1_565 S
C507 C506 1.386 . S
C507 C511 1.393 . S
C508 H497 0.950 . S
C508 C506 1.391 1_545 S
C508 C509 1.400 1_545 S
C509 C503 1.491 1_565 S
C509 C508 1.400 1_565 S
C509 C510 1.398 . S
C510 H498 0.950 . S
C510 C509 1.398 . S
C510 C511 1.391 . S
C511 H499 0.950 . S
C511 C507 1.393 . S
C511 C510 1.391 . S
H512 C520 0.950 . S
H513 C525 0.950 . S
H514 C522 0.950 . S
H515 C524 0.950 . S
H516 C526 0.950 . S
H517 C528 0.950 . S
H518 C530 0.950 . S
H519 C531 0.950 . S
C520 H512 0.950 . S
C520 C521 1.386 . S
C520 C522 1.391 1_655 S
C521 C520 1.386 . S
C521 C525 1.393 . S
C522 H514 0.950 . S
C522 C520 1.391 1_455 S
C522 C523 1.400 1_455 S
C523 C522 1.400 1_655 S
C523 C524 1.398 . S
C523 C529 1.491 1_655 S
C524 H515 0.950 . S
C524 C523 1.398 . S
C524 C525 1.391 . S
C525 H513 0.950 . S
C525 C521 1.393 . S
C525 C524 1.391 . S
C526 H516 0.950 . S
C526 C527 1.386 . S
C526 C528 1.391 1_455 S
C527 C526 1.386 . S
C527 C531 1.393 . S
C528 H517 0.950 . S
C528 C526 1.391 1_655 S
C528 C529 1.400 1_655 S
C529 C523 1.491 1_455 S
C529 C528 1.400 1_455 S
C529 C530 1.398 . S
C530 H518 0.950 . S
C530 C529 1.398 . S
C530 C531 1.391 . S
C531 H519 0.950 . S
C531 C527 1.393 . S
C531 C530 1.391 . S
H532 C540 0.950 . S
H533 C545 0.950 . S
H534 C542 0.950 1_565 S
H535 C544 0.950 . S
H536 C546 0.950 . S
H537 C548 0.950 1_545 S
H538 C550 0.950 . S
H539 C551 0.950 . S
C540 H532 0.950 . S
C540 C541 1.386 . S
C540 C542 1.391 . S
C541 C540 1.386 . S
C541 C545 1.393 . S
C542 H534 0.950 1_545 S
C542 C540 1.391 . S
C542 C543 1.400 . S
C543 C542 1.400 . S
C543 C544 1.398 . S
C543 C549 1.491 1_545 S
C544 H535 0.950 . S
C544 C543 1.398 . S
C544 C545 1.391 . S
C545 H533 0.950 . S
C545 C541 1.393 . S
C545 C544 1.391 . S
C546 H536 0.950 . S
C546 C547 1.386 . S
C546 C548 1.391 . S
C547 C546 1.386 . S
C547 C551 1.393 . S
C548 H537 0.950 1_565 S
C548 C546 1.391 . S
C548 C549 1.400 . S
C549 C543 1.491 1_565 S
C549 C548 1.400 . S
C549 C550 1.398 . S
C550 H538 0.950 . S
C550 C549 1.398 . S
C550 C551 1.391 . S
C551 H539 0.950 . S
C551 C547 1.393 . S
C551 C550 1.391 . S
H552 C560 0.950 . S
H553 C565 0.950 1_565 S
H554 C562 0.950 . S
H555 C564 0.950 . S
H556 C566 0.950 . S
H557 C568 0.950 . S
H558 C570 0.950 . S
H559 C571 0.950 . S
C560 H552 0.950 . S
C560 C561 1.386 . S
C560 C562 1.391 . S
C561 C560 1.386 . S
C561 C565 1.393 . S
C562 H554 0.950 . S
C562 C560 1.391 . S
C562 C563 1.400 . S
C563 C562 1.400 . S
C563 C564 1.398 . S
C563 C569 1.491 . S
C564 H555 0.950 . S
C564 C563 1.398 . S
C564 C565 1.391 . S
C565 H553 0.950 1_545 S
C565 C561 1.393 . S
C565 C564 1.391 . S
C566 H556 0.950 . S
C566 C567 1.386 . S
C566 C568 1.391 . S
C567 C566 1.386 . S
C567 C571 1.393 . S
C568 H557 0.950 . S
C568 C566 1.391 . S
C568 C569 1.400 . S
C569 C563 1.491 . S
C569 C568 1.400 . S
C569 C570 1.398 . S
C570 H558 0.950 . S
C570 C569 1.398 . S
C570 C571 1.391 . S
C571 H559 0.950 . S
C571 C567 1.393 . S
C571 C570 1.391 . S
H572 C580 0.950 . S
H573 C585 0.950 . S
H574 C582 0.950 . S
H575 C584 0.950 . S
H576 C586 0.950 1_655 S
H577 C588 0.950 . S
H578 C590 0.950 . S
H579 C591 0.950 . S
C580 H572 0.950 . S
C580 C581 1.386 . S
C580 C582 1.391 . S
C581 C580 1.386 . S
C581 C585 1.393 . S
C582 H574 0.950 . S
C582 C580 1.391 . S
C582 C583 1.400 . S
C583 C582 1.400 . S
C583 C584 1.398 . S
C583 C589 1.491 . S
C584 H575 0.950 . S
C584 C583 1.398 . S
C584 C585 1.391 . S
C585 H573 0.950 . S
C585 C581 1.393 . S
C585 C584 1.391 . S
C586 H576 0.950 1_455 S
C586 C587 1.386 . S
C586 C588 1.391 . S
C587 C586 1.386 . S
C587 C591 1.393 . S
C588 H577 0.950 . S
C588 C586 1.391 . S
C588 C589 1.400 . S
C589 C583 1.491 . S
C589 C588 1.400 . S
C589 C590 1.398 . S
C590 H578 0.950 . S
C590 C589 1.398 . S
C590 C591 1.391 . S
C591 H579 0.950 . S
C591 C587 1.393 . S
C591 C590 1.391 . S
H592 C600 0.950 . S
H593 C605 0.950 . S
H594 C602 0.950 . S
H595 C604 0.950 . S
H596 C606 0.950 . S
H597 C608 0.950 . S
H598 C610 0.950 . S
H599 C611 0.950 . S
C600 H592 0.950 . S
C600 C601 1.386 . S
C600 C602 1.391 . S
C601 C600 1.386 . S
C601 C605 1.393 1_565 S
C602 H594 0.950 . S
C602 C600 1.391 . S
C602 C603 1.400 . S
C603 C602 1.400 . S
C603 C604 1.398 . S
C603 C609 1.491 . S
C604 H595 0.950 . S
C604 C603 1.398 . S
C604 C605 1.391 1_565 S
C605 H593 0.950 . S
C605 C601 1.393 1_545 S
C605 C604 1.391 1_545 S
C606 H596 0.950 . S
C606 C607 1.386 . S
C606 C608 1.391 . S
C607 C606 1.386 . S
C607 C611 1.393 . S
C608 H597 0.950 . S
C608 C606 1.391 . S
C608 C609 1.400 . S
C609 C603 1.491 . S
C609 C608 1.400 . S
C609 C610 1.398 . S
C610 H598 0.950 . S
C610 C609 1.398 . S
C610 C611 1.391 . S
C611 H599 0.950 . S
C611 C607 1.393 . S
C611 C610 1.391 . S
H612 C620 0.950 . S
H613 C625 0.950 . S
H614 C622 0.950 . S
H615 C624 0.950 . S
H616 C626 0.950 . S
H617 C628 0.950 . S
H618 C630 0.950 . S
H619 C631 0.950 1_455 S
C620 H612 0.950 . S
C620 C621 1.386 . S
C620 C622 1.391 . S
C621 C620 1.386 . S
C621 C625 1.393 . S
C622 H614 0.950 . S
C622 C620 1.391 . S
C622 C623 1.400 . S
C623 C622 1.400 . S
C623 C624 1.398 . S
C623 C629 1.491 . S
C624 H615 0.950 . S
C624 C623 1.398 . S
C624 C625 1.391 . S
C625 H613 0.950 . S
C625 C621 1.393 . S
C625 C624 1.391 . S
C626 H616 0.950 . S
C626 C627 1.386 . S
C626 C628 1.391 . S
C627 C626 1.386 . S
C627 C631 1.393 . S
C628 H617 0.950 . S
C628 C626 1.391 . S
C628 C629 1.400 . S
C629 C623 1.491 . S
C629 C628 1.400 . S
C629 C630 1.398 . S
C630 H618 0.950 . S
C630 C629 1.398 . S
C630 C631 1.391 . S
C631 H619 0.950 1_655 S
C631 C627 1.393 . S
C631 C630 1.391 . S
H632 C640 0.950 . S
H633 C645 0.950 . S
H634 C642 0.950 1_554 S
H635 C644 0.950 . S
H636 C646 0.950 . S
H637 C648 0.950 1_556 S
H638 C650 0.950 . S
H639 C651 0.950 . S
C640 H632 0.950 . S
C640 C641 1.386 . S
C640 C642 1.391 . S
C641 C640 1.386 . S
C641 C645 1.393 . S
C642 H634 0.950 1_556 S
C642 C640 1.391 . S
C642 C643 1.400 . S
C643 C642 1.400 . S
C643 C644 1.398 . S
C643 C649 1.491 1_556 S
C644 H635 0.950 . S
C644 C643 1.398 . S
C644 C645 1.391 . S
C645 H633 0.950 . S
C645 C641 1.393 . S
C645 C644 1.391 . S
C646 H636 0.950 . S
C646 C647 1.386 . S
C646 C648 1.391 . S
C647 C646 1.386 . S
C647 C651 1.393 . S
C648 H637 0.950 1_554 S
C648 C646 1.391 . S
C648 C649 1.400 . S
C649 C643 1.491 1_554 S
C649 C648 1.400 . S
C649 C650 1.398 . S
C650 H638 0.950 . S
C650 C649 1.398 . S
C650 C651 1.391 . S
C651 H639 0.950 . S
C651 C647 1.393 . S
C651 C650 1.391 . S
H652 C660 0.950 . S
H653 C665 0.950 . S
H654 C662 0.950 . S
H655 C664 0.913 1_554 S
H656 C666 0.950 . S
H657 C668 0.950 . S
H658 C670 0.950 . S
H659 C671 0.950 . S
C660 H652 0.950 . S
C660 C661 1.386 . S
C660 C662 1.391 . S
C661 C660 1.386 . S
C661 C665 1.393 . S
C662 H654 0.950 . S
C662 C660 1.391 . S
C662 C663 1.400 . S
C663 C662 1.400 . S
C663 C664 1.412 . S
C663 C669 1.491 1_556 S
C664 H655 0.913 1_556 S
C664 C663 1.412 . S
C664 C665 1.414 . S
C665 H653 0.950 . S
C665 C661 1.393 . S
C665 C664 1.414 . S
C666 H656 0.950 . S
C666 C667 1.386 . S
C666 C668 1.391 . S
C667 C666 1.386 . S
C667 C671 1.393 1_455 S
C668 H657 0.950 . S
C668 C666 1.391 . S
C668 C669 1.400 . S
C669 C663 1.491 1_554 S
C669 C668 1.400 . S
C669 C670 1.398 1_554 S
C670 H658 0.950 . S
C670 C669 1.398 1_556 S
C670 C671 1.391 1_456 S
C671 H659 0.950 . S
C671 C667 1.393 1_655 S
C671 C670 1.391 1_654 S
H672 C680 0.950 . S
H673 C685 0.950 . S
H674 C682 0.950 . S
H675 C684 0.950 . S
H676 C686 0.950 1_545 S
H677 C688 0.950 . S
H678 C690 0.950 . S
H679 C691 0.950 . S
C680 H672 0.950 . S
C680 C681 1.386 . S
C680 C682 1.391 . S
C681 C680 1.386 . S
C681 C685 1.393 . S
C682 H674 0.950 . S
C682 C680 1.391 . S
C682 C683 1.400 . S
C683 C682 1.400 . S
C683 C684 1.398 . S
C683 C689 1.491 1_554 S
C684 H675 0.950 . S
C684 C683 1.398 . S
C684 C685 1.391 . S
C685 H673 0.950 . S
C685 C681 1.393 . S
C685 C684 1.391 . S
C686 H676 0.950 1_565 S
C686 C687 1.386 . S
C686 C688 1.391 . S
C687 C686 1.386 . S
C687 C691 1.393 . S
C688 H677 0.950 . S
C688 C686 1.391 . S
C688 C689 1.400 . S
C689 C683 1.491 1_556 S
C689 C688 1.400 . S
C689 C690 1.398 . S
C690 H678 0.950 . S
C690 C689 1.398 . S
C690 C691 1.391 . S
C691 H679 0.950 . S
C691 C687 1.393 . S
C691 C690 1.391 . S
H692 C700 0.950 . S
H693 C705 0.950 . S
H694 C702 0.950 . S
H695 C704 0.950 1_554 S
H696 C706 0.950 . S
H697 C708 0.950 . S
H698 C710 0.940 1_556 S
H699 C711 0.943 1_455 S
C700 H692 0.950 . S
C700 C701 1.386 . S
C700 C702 1.391 . S
C701 C700 1.386 . S
C701 C705 1.393 . S
C702 H694 0.950 . S
C702 C700 1.391 . S
C702 C703 1.400 . S
C703 C702 1.400 . S
C703 C704 1.398 . S
C703 C709 1.491 1_556 S
C704 H695 0.950 1_556 S
C704 C703 1.398 . S
C704 C705 1.391 . S
C705 H693 0.950 . S
C705 C701 1.393 . S
C705 C704 1.391 . S
C706 H696 0.950 . S
C706 C707 1.386 . S
C706 C708 1.391 . S
C707 C706 1.386 . S
C707 C711 1.393 . S
C708 H697 0.950 . S
C708 C706 1.391 . S
C708 C709 1.400 . S
C709 C703 1.491 1_554 S
C709 C708 1.400 . S
C709 C710 1.401 . S
C710 H698 0.940 1_554 S
C710 C709 1.401 . S
C710 C711 1.398 . S
C711 H699 0.943 1_655 S
C711 C707 1.393 . S
C711 C710 1.398 . S
H712 C720 0.950 . S
H713 C725 0.950 . S
H714 C722 0.950 . S
H715 C724 0.950 . S
H716 C726 0.950 . S
H717 C728 0.950 . S
H718 C730 0.950 . S
H719 C731 0.950 . S
C720 H712 0.950 . S
C720 C721 1.386 . S
C720 C722 1.391 . S
C721 C720 1.386 . S
C721 C725 1.393 . S
C722 H714 0.950 . S
C722 C720 1.391 . S
C722 C723 1.400 . S
C723 C722 1.400 . S
C723 C724 1.398 . S
C723 C729 1.491 . S
C724 H715 0.950 . S
C724 C723 1.398 . S
C724 C725 1.391 . S
C725 H713 0.950 . S
C725 C721 1.393 . S
C725 C724 1.391 . S
C726 H716 0.950 . S
C726 C727 1.386 . S
C726 C728 1.391 . S
C727 C726 1.386 . S
C727 C731 1.393 . S
C728 H717 0.950 . S
C728 C726 1.391 . S
C728 C729 1.400 . S
C729 C723 1.491 . S
C729 C728 1.400 . S
C729 C730 1.398 . S
C730 H718 0.950 . S
C730 C729 1.398 . S
C730 C731 1.391 . S
C731 H719 0.950 . S
C731 C727 1.393 . S
C731 C730 1.391 . S
H732 C740 0.950 . S
H733 C745 0.950 . S
H734 C742 0.950 . S
H735 C744 0.950 . S
H736 C746 0.950 . S
H737 C748 0.950 . S
H738 C750 0.950 . S
H739 C751 0.950 . S
C740 H732 0.950 . S
C740 C741 1.386 . S
C740 C742 1.391 . S
C741 C740 1.386 . S
C741 C745 1.393 . S
C742 H734 0.950 . S
C742 C740 1.391 . S
C742 C743 1.400 . S
C743 C742 1.400 . S
C743 C744 1.398 . S
C743 C749 1.491 . S
C744 H735 0.950 . S
C744 C743 1.398 . S
C744 C745 1.391 . S
C745 H733 0.950 . S
C745 C741 1.393 . S
C745 C744 1.391 . S
C746 H736 0.950 . S
C746 C747 1.386 . S
C746 C748 1.391 . S
C747 C746 1.386 . S
C747 C751 1.393 . S
C748 H737 0.950 . S
C748 C746 1.391 . S
C748 C749 1.400 . S
C749 C743 1.491 . S
C749 C748 1.400 . S
C749 C750 1.398 . S
C750 H738 0.950 . S
C750 C749 1.398 . S
C750 C751 1.391 . S
C751 H739 0.950 . S
C751 C747 1.393 . S
C751 C750 1.391 . S
H752 C760 0.950 . S
H753 C765 0.950 . S
H754 C762 0.950 . S
H755 C764 0.950 . S
H756 C766 0.950 . S
H757 C768 0.950 . S
H758 C770 0.950 . S
H759 C771 0.950 . S
C760 H752 0.950 . S
C760 C761 1.386 . S
C760 C762 1.391 . S
C761 C760 1.386 . S
C761 C765 1.393 . S
C762 H754 0.950 . S
C762 C760 1.391 . S
C762 C763 1.400 . S
C763 C762 1.400 . S
C763 C764 1.398 . S
C763 C769 1.491 . S
C764 H755 0.950 . S
C764 C763 1.398 . S
C764 C765 1.391 . S
C765 H753 0.950 . S
C765 C761 1.393 . S
C765 C764 1.391 . S
C766 H756 0.950 . S
C766 C767 1.386 . S
C766 C768 1.391 . S
C767 C766 1.386 . S
C767 C771 1.393 . S
C768 H757 0.950 . S
C768 C766 1.391 . S
C768 C769 1.400 . S
C769 C763 1.491 . S
C769 C768 1.400 . S
C769 C770 1.398 . S
C770 H758 0.950 . S
C770 C769 1.398 . S
C770 C771 1.391 . S
C771 H759 0.950 . S
C771 C767 1.393 . S
C771 C770 1.391 . S
H772 C780 0.950 . S
H773 C785 0.950 . S
H774 C782 0.950 . S
H775 C784 0.950 . S
H776 C786 0.950 . S
H777 C788 0.950 . S
H778 C790 0.950 . S
H779 C791 0.950 . S
C780 H772 0.950 . S
C780 C781 1.386 . S
C780 C782 1.391 . S
C781 C780 1.386 . S
C781 C785 1.393 . S
C782 H774 0.950 . S
C782 C780 1.391 . S
C782 C783 1.400 . S
C783 C782 1.400 . S
C783 C784 1.398 . S
C783 C789 1.491 . S
C784 H775 0.950 . S
C784 C783 1.398 . S
C784 C785 1.391 . S
C785 H773 0.950 . S
C785 C781 1.393 . S
C785 C784 1.391 . S
C786 H776 0.950 . S
C786 C787 1.386 . S
C786 C788 1.391 . S
C787 C786 1.386 . S
C787 C791 1.393 . S
C788 H777 0.950 . S
C788 C786 1.391 . S
C788 C789 1.400 . S
C789 C783 1.491 . S
C789 C788 1.400 . S
C789 C790 1.398 . S
C790 H778 0.950 . S
C790 C789 1.398 . S
C790 C791 1.391 . S
C791 H779 0.950 . S
C791 C787 1.393 . S
C791 C790 1.391 . S
C481 C123 1.475 . S
C487 C5 1.478 . S
C501 C182 1.487 . S
C507 C64 1.491 . S
C521 C241 1.488 . S
C527 C359 1.492 . S
C541 C300 1.495 . S
C547 C418 1.494 . S
C561 C92 1.367 1_545 S
C567 C52 1.355 . S
C581 C111 1.350 . S
C587 C151 1.367 1_455 S
C601 C210 1.365 1_565 S
C607 C170 1.361 . S
C621 C229 1.356 . S
C627 C33 1.366 1_655 S
C641 C446 1.364 1_545 S
C647 C288 1.361 . S
C661 C347 1.351 . S
C667 C269 1.366 1_455 S
C681 C406 1.356 . S
C687 C328 1.365 1_565 S
C701 C465 1.349 . S
C707 C387 1.367 1_655 S
C721 C3 1.647 . S
C727 C298 1.655 . S
C741 C357 1.645 . S
C747 C62 1.653 . S
C761 C121 1.645 . S
C767 C416 1.641 . S
C781 C180 1.652 . S
C787 C239 1.643 . S
