# Generated by pormake.
# Topology ukp, (4)-cn, num edge types: 1
# Building blocks:
#     Node 0, Type 0, BuildingBlock: KOZSID_clean_sbu_0, # of connection points: 4
#     Node 1, Type 0, BuildingBlock: KOZSID_clean_sbu_0, # of connection points: 4
#     Node 2, Type 0, BuildingBlock: KOZSID_clean_sbu_0, # of connection points: 4
#     Node 3, Type 0, BuildingBlock: KOZSID_clean_sbu_0, # of connection points: 4
#     Node 4, Type 0, BuildingBlock: KOZSID_clean_sbu_0, # of connection points: 4
#     Node 5, Type 0, BuildingBlock: KOZSID_clean_sbu_0, # of connection points: 4
#     Node 6, Type 0, BuildingBlock: KOZSID_clean_sbu_0, # of connection points: 4
#     Node 7, Type 0, BuildingBlock: KOZSID_clean_sbu_0, # of connection points: 4
#     Node 8, Type 0, BuildingBlock: KOZSID_clean_sbu_0, # of connection points: 4
#     Node 9, Type 0, BuildingBlock: KOZSID_clean_sbu_0, # of connection points: 4
#     Node 10, Type 0, BuildingBlock: KOZSID_clean_sbu_0, # of connection points: 4
#     Node 11, Type 0, BuildingBlock: KOZSID_clean_sbu_0, # of connection points: 4
#     Node 12, Type 0, BuildingBlock: KOZSID_clean_sbu_0, # of connection points: 4
#     Node 13, Type 0, BuildingBlock: KOZSID_clean_sbu_0, # of connection points: 4
#     Node 14, Type 0, BuildingBlock: KOZSID_clean_sbu_0, # of connection points: 4
#     Node 15, Type 0, BuildingBlock: KOZSID_clean_sbu_0, # of connection points: 4
#     Node 16, Type 0, BuildingBlock: KOZSID_clean_sbu_0, # of connection points: 4
#     Node 17, Type 0, BuildingBlock: KOZSID_clean_sbu_0, # of connection points: 4
#     Node 18, Type 0, BuildingBlock: KOZSID_clean_sbu_0, # of connection points: 4
#     Node 19, Type 0, BuildingBlock: KOZSID_clean_sbu_0, # of connection points: 4
#     Node 20, Type 0, BuildingBlock: KOZSID_clean_sbu_0, # of connection points: 4
#     Node 21, Type 0, BuildingBlock: KOZSID_clean_sbu_0, # of connection points: 4
#     Node 22, Type 0, BuildingBlock: KOZSID_clean_sbu_0, # of connection points: 4
#     Node 23, Type 0, BuildingBlock: KOZSID_clean_sbu_0, # of connection points: 4
#     Node 24, Type 0, BuildingBlock: KOZSID_clean_sbu_0, # of connection points: 4
#     Node 25, Type 0, BuildingBlock: KOZSID_clean_sbu_0, # of connection points: 4
#     Node 26, Type 0, BuildingBlock: KOZSID_clean_sbu_0, # of connection points: 4
#     Node 27, Type 0, BuildingBlock: KOZSID_clean_sbu_0, # of connection points: 4
#     Node 28, Type 0, BuildingBlock: KOZSID_clean_sbu_0, # of connection points: 4
#     Node 29, Type 0, BuildingBlock: KOZSID_clean_sbu_0, # of connection points: 4
#     Node 30, Type 0, BuildingBlock: KOZSID_clean_sbu_0, # of connection points: 4
#     Node 31, Type 0, BuildingBlock: KOZSID_clean_sbu_0, # of connection points: 4
#     Node 32, Type 0, BuildingBlock: KOZSID_clean_sbu_0, # of connection points: 4
#     Node 33, Type 0, BuildingBlock: KOZSID_clean_sbu_0, # of connection points: 4
#     Node 34, Type 0, BuildingBlock: KOZSID_clean_sbu_0, # of connection points: 4
#     Node 35, Type 0, BuildingBlock: KOZSID_clean_sbu_0, # of connection points: 4
#     Node 36, Type 0, BuildingBlock: KOZSID_clean_sbu_0, # of connection points: 4
#     Node 37, Type 0, BuildingBlock: KOZSID_clean_sbu_0, # of connection points: 4
#     Node 38, Type 0, BuildingBlock: KOZSID_clean_sbu_0, # of connection points: 4
#     Node 39, Type 0, BuildingBlock: KOZSID_clean_sbu_0, # of connection points: 4
#     Node 40, Type 0, BuildingBlock: KOZSID_clean_sbu_0, # of connection points: 4
#     Node 41, Type 0, BuildingBlock: KOZSID_clean_sbu_0, # of connection points: 4
#     Node 42, Type 0, BuildingBlock: KOZSID_clean_sbu_0, # of connection points: 4
#     Node 43, Type 0, BuildingBlock: KOZSID_clean_sbu_0, # of connection points: 4
#     Node 44, Type 0, BuildingBlock: KOZSID_clean_sbu_0, # of connection points: 4
#     Node 45, Type 0, BuildingBlock: KOZSID_clean_sbu_0, # of connection points: 4
#     Node 46, Type 0, BuildingBlock: KOZSID_clean_sbu_0, # of connection points: 4
#     Node 47, Type 0, BuildingBlock: KOZSID_clean_sbu_0, # of connection points: 4
#     Edge 48, Type (0, 0), BuildingBlock: CIFDUS_clean_linker_0, # of connection points: 2
#     Edge 49, Type (0, 0), BuildingBlock: CIFDUS_clean_linker_0, # of connection points: 2
#     Edge 50, Type (0, 0), BuildingBlock: CIFDUS_clean_linker_0, # of connection points: 2
#     Edge 51, Type (0, 0), BuildingBlock: CIFDUS_clean_linker_0, # of connection points: 2
#     Edge 52, Type (0, 0), BuildingBlock: CIFDUS_clean_linker_0, # of connection points: 2
#     Edge 53, Type (0, 0), BuildingBlock: CIFDUS_clean_linker_0, # of connection points: 2
#     Edge 54, Type (0, 0), BuildingBlock: CIFDUS_clean_linker_0, # of connection points: 2
#     Edge 55, Type (0, 0), BuildingBlock: CIFDUS_clean_linker_0, # of connection points: 2
#     Edge 56, Type (0, 0), BuildingBlock: CIFDUS_clean_linker_0, # of connection points: 2
#     Edge 57, Type (0, 0), BuildingBlock: CIFDUS_clean_linker_0, # of connection points: 2
#     Edge 58, Type (0, 0), BuildingBlock: CIFDUS_clean_linker_0, # of connection points: 2
#     Edge 59, Type (0, 0), BuildingBlock: CIFDUS_clean_linker_0, # of connection points: 2
#     Edge 60, Type (0, 0), BuildingBlock: CIFDUS_clean_linker_0, # of connection points: 2
#     Edge 61, Type (0, 0), BuildingBlock: CIFDUS_clean_linker_0, # of connection points: 2
#     Edge 62, Type (0, 0), BuildingBlock: CIFDUS_clean_linker_0, # of connection points: 2
#     Edge 63, Type (0, 0), BuildingBlock: CIFDUS_clean_linker_0, # of connection points: 2
#     Edge 64, Type (0, 0), BuildingBlock: CIFDUS_clean_linker_0, # of connection points: 2
#     Edge 65, Type (0, 0), BuildingBlock: CIFDUS_clean_linker_0, # of connection points: 2
#     Edge 66, Type (0, 0), BuildingBlock: CIFDUS_clean_linker_0, # of connection points: 2
#     Edge 67, Type (0, 0), BuildingBlock: CIFDUS_clean_linker_0, # of connection points: 2
#     Edge 68, Type (0, 0), BuildingBlock: CIFDUS_clean_linker_0, # of connection points: 2
#     Edge 69, Type (0, 0), BuildingBlock: CIFDUS_clean_linker_0, # of connection points: 2
#     Edge 70, Type (0, 0), BuildingBlock: CIFDUS_clean_linker_0, # of connection points: 2
#     Edge 71, Type (0, 0), BuildingBlock: CIFDUS_clean_linker_0, # of connection points: 2
#     Edge 72, Type (0, 0), BuildingBlock: CIFDUS_clean_linker_0, # of connection points: 2
#     Edge 73, Type (0, 0), BuildingBlock: CIFDUS_clean_linker_0, # of connection points: 2
#     Edge 74, Type (0, 0), BuildingBlock: CIFDUS_clean_linker_0, # of connection points: 2
#     Edge 75, Type (0, 0), BuildingBlock: CIFDUS_clean_linker_0, # of connection points: 2
#     Edge 76, Type (0, 0), BuildingBlock: CIFDUS_clean_linker_0, # of connection points: 2
#     Edge 77, Type (0, 0), BuildingBlock: CIFDUS_clean_linker_0, # of connection points: 2
#     Edge 78, Type (0, 0), BuildingBlock: CIFDUS_clean_linker_0, # of connection points: 2
#     Edge 79, Type (0, 0), BuildingBlock: CIFDUS_clean_linker_0, # of connection points: 2
#     Edge 80, Type (0, 0), BuildingBlock: CIFDUS_clean_linker_0, # of connection points: 2
#     Edge 81, Type (0, 0), BuildingBlock: CIFDUS_clean_linker_0, # of connection points: 2
#     Edge 82, Type (0, 0), BuildingBlock: CIFDUS_clean_linker_0, # of connection points: 2
#     Edge 83, Type (0, 0), BuildingBlock: CIFDUS_clean_linker_0, # of connection points: 2
#     Edge 84, Type (0, 0), BuildingBlock: CIFDUS_clean_linker_0, # of connection points: 2
#     Edge 85, Type (0, 0), BuildingBlock: CIFDUS_clean_linker_0, # of connection points: 2
#     Edge 86, Type (0, 0), BuildingBlock: CIFDUS_clean_linker_0, # of connection points: 2
#     Edge 87, Type (0, 0), BuildingBlock: CIFDUS_clean_linker_0, # of connection points: 2
#     Edge 88, Type (0, 0), BuildingBlock: CIFDUS_clean_linker_0, # of connection points: 2
#     Edge 89, Type (0, 0), BuildingBlock: CIFDUS_clean_linker_0, # of connection points: 2
#     Edge 90, Type (0, 0), BuildingBlock: CIFDUS_clean_linker_0, # of connection points: 2
#     Edge 91, Type (0, 0), BuildingBlock: CIFDUS_clean_linker_0, # of connection points: 2
#     Edge 92, Type (0, 0), BuildingBlock: CIFDUS_clean_linker_0, # of connection points: 2
#     Edge 93, Type (0, 0), BuildingBlock: CIFDUS_clean_linker_0, # of connection points: 2
#     Edge 94, Type (0, 0), BuildingBlock: CIFDUS_clean_linker_0, # of connection points: 2
#     Edge 95, Type (0, 0), BuildingBlock: CIFDUS_clean_linker_0, # of connection points: 2
#     Edge 96, Type (0, 0), BuildingBlock: CIFDUS_clean_linker_0, # of connection points: 2
#     Edge 97, Type (0, 0), BuildingBlock: CIFDUS_clean_linker_0, # of connection points: 2
#     Edge 98, Type (0, 0), BuildingBlock: CIFDUS_clean_linker_0, # of connection points: 2
#     Edge 99, Type (0, 0), BuildingBlock: CIFDUS_clean_linker_0, # of connection points: 2
#     Edge 100, Type (0, 0), BuildingBlock: CIFDUS_clean_linker_0, # of connection points: 2
#     Edge 101, Type (0, 0), BuildingBlock: CIFDUS_clean_linker_0, # of connection points: 2
#     Edge 102, Type (0, 0), BuildingBlock: CIFDUS_clean_linker_0, # of connection points: 2
#     Edge 103, Type (0, 0), BuildingBlock: CIFDUS_clean_linker_0, # of connection points: 2
#     Edge 104, Type (0, 0), BuildingBlock: CIFDUS_clean_linker_0, # of connection points: 2
#     Edge 105, Type (0, 0), BuildingBlock: CIFDUS_clean_linker_0, # of connection points: 2
#     Edge 106, Type (0, 0), BuildingBlock: CIFDUS_clean_linker_0, # of connection points: 2
#     Edge 107, Type (0, 0), BuildingBlock: CIFDUS_clean_linker_0, # of connection points: 2
#     Edge 108, Type (0, 0), BuildingBlock: CIFDUS_clean_linker_0, # of connection points: 2
#     Edge 109, Type (0, 0), BuildingBlock: CIFDUS_clean_linker_0, # of connection points: 2
#     Edge 110, Type (0, 0), BuildingBlock: CIFDUS_clean_linker_0, # of connection points: 2
#     Edge 111, Type (0, 0), BuildingBlock: CIFDUS_clean_linker_0, # of connection points: 2
#     Edge 112, Type (0, 0), BuildingBlock: CIFDUS_clean_linker_0, # of connection points: 2
#     Edge 113, Type (0, 0), BuildingBlock: CIFDUS_clean_linker_0, # of connection points: 2
#     Edge 114, Type (0, 0), BuildingBlock: CIFDUS_clean_linker_0, # of connection points: 2
#     Edge 115, Type (0, 0), BuildingBlock: CIFDUS_clean_linker_0, # of connection points: 2
#     Edge 116, Type (0, 0), BuildingBlock: CIFDUS_clean_linker_0, # of connection points: 2
#     Edge 117, Type (0, 0), BuildingBlock: CIFDUS_clean_linker_0, # of connection points: 2
#     Edge 118, Type (0, 0), BuildingBlock: CIFDUS_clean_linker_0, # of connection points: 2
#     Edge 119, Type (0, 0), BuildingBlock: CIFDUS_clean_linker_0, # of connection points: 2
#     Edge 120, Type (0, 0), BuildingBlock: CIFDUS_clean_linker_0, # of connection points: 2
#     Edge 121, Type (0, 0), BuildingBlock: CIFDUS_clean_linker_0, # of connection points: 2
#     Edge 122, Type (0, 0), BuildingBlock: CIFDUS_clean_linker_0, # of connection points: 2
#     Edge 123, Type (0, 0), BuildingBlock: CIFDUS_clean_linker_0, # of connection points: 2
#     Edge 124, Type (0, 0), BuildingBlock: CIFDUS_clean_linker_0, # of connection points: 2
#     Edge 125, Type (0, 0), BuildingBlock: CIFDUS_clean_linker_0, # of connection points: 2
#     Edge 126, Type (0, 0), BuildingBlock: CIFDUS_clean_linker_0, # of connection points: 2
#     Edge 127, Type (0, 0), BuildingBlock: CIFDUS_clean_linker_0, # of connection points: 2
#     Edge 128, Type (0, 0), BuildingBlock: CIFDUS_clean_linker_0, # of connection points: 2
#     Edge 129, Type (0, 0), BuildingBlock: CIFDUS_clean_linker_0, # of connection points: 2
#     Edge 130, Type (0, 0), BuildingBlock: CIFDUS_clean_linker_0, # of connection points: 2
#     Edge 131, Type (0, 0), BuildingBlock: CIFDUS_clean_linker_0, # of connection points: 2
#     Edge 132, Type (0, 0), BuildingBlock: CIFDUS_clean_linker_0, # of connection points: 2
#     Edge 133, Type (0, 0), BuildingBlock: CIFDUS_clean_linker_0, # of connection points: 2
#     Edge 134, Type (0, 0), BuildingBlock: CIFDUS_clean_linker_0, # of connection points: 2
#     Edge 135, Type (0, 0), BuildingBlock: CIFDUS_clean_linker_0, # of connection points: 2
#     Edge 136, Type (0, 0), BuildingBlock: CIFDUS_clean_linker_0, # of connection points: 2
#     Edge 137, Type (0, 0), BuildingBlock: CIFDUS_clean_linker_0, # of connection points: 2
#     Edge 138, Type (0, 0), BuildingBlock: CIFDUS_clean_linker_0, # of connection points: 2
#     Edge 139, Type (0, 0), BuildingBlock: CIFDUS_clean_linker_0, # of connection points: 2
#     Edge 140, Type (0, 0), BuildingBlock: CIFDUS_clean_linker_0, # of connection points: 2
#     Edge 141, Type (0, 0), BuildingBlock: CIFDUS_clean_linker_0, # of connection points: 2
#     Edge 142, Type (0, 0), BuildingBlock: CIFDUS_clean_linker_0, # of connection points: 2
#     Edge 143, Type (0, 0), BuildingBlock: CIFDUS_clean_linker_0, # of connection points: 2
# Relax obj value: 0.169
# Max RMSD: 0.266
# Mean RMSD: 0.230
data_MOF--net-ukp--node1-KOZSID_clean_sbu_0--edge1-CIFDUS_clean_linker_0
_symmetry_space_group_name_H-M    P1
_symmetry_Int_Tables_number       1
_symmetry_cell_setting            triclinic
loop_
_symmetry_equiv_pos_as_xyz
'x, y, z'
_cell_length_a     65.17971
_cell_length_b     70.846276
_cell_length_c     70.854854
_cell_angle_alpha  90.04273
_cell_angle_beta   90.048503
_cell_angle_gamma 89.951498
loop_
_atom_site_label
_atom_site_type_symbol
_atom_site_fract_x
_atom_site_fract_y
_atom_site_fract_z
_atom_type_partial_charge
C0 C 0.22926 0.29454 0.39323 0.0
C1 C 0.24909 0.29351 0.40036 0.0
C2 C 0.24919 0.30359 0.41691 0.0
C3 C 0.22957 0.31034 0.41893 0.0
N4 N 0.21719 0.30512 0.40466 0.0
Co5 Co 0.18807 0.31251 0.40156 0.0
N6 N 0.19144 0.33448 0.41853 0.0
C7 C 0.20645 0.3367 0.43138 0.0
C8 C 0.20474 0.3533 0.44128 0.0
C9 C 0.18753 0.36198 0.43425 0.0
C10 C 0.17966 0.3501 0.42043 0.0
N11 N 0.15896 0.32 0.39866 0.0
C12 C 0.14983 0.33691 0.40208 0.0
C13 C 0.12904 0.336 0.39812 0.0
C14 C 0.12517 0.31784 0.39206 0.0
C15 C 0.14377 0.30863 0.39269 0.0
N16 N 0.18508 0.29057 0.38457 0.0
C17 C 0.16729 0.28224 0.37983 0.0
C18 C 0.17014 0.26789 0.36698 0.0
C19 C 0.19097 0.26731 0.36353 0.0
C20 C 0.19973 0.2814 0.37444 0.0
N21 N 0.18033 0.29646 0.42338 0.0
C22 C 0.16536 0.27163 0.45162 0.0
C23 C 0.18096 0.26609 0.43909 0.0
C24 C 0.18808 0.27856 0.4251 0.0
C25 C 0.15791 0.29017 0.44997 0.0
C26 C 0.16573 0.30236 0.43602 0.0
N27 N 0.1951 0.32796 0.37939 0.0
C28 C 0.18808 0.33518 0.34673 0.0
C29 C 0.20644 0.34524 0.3451 0.0
C30 C 0.21868 0.34711 0.36141 0.0
C31 C 0.21266 0.33848 0.37845 0.0
C32 C 0.18276 0.32675 0.36379 0.0
H33 H 0.22246 0.33978 0.39068 0.0
H34 H 0.16896 0.31848 0.36399 0.0
H35 H 0.19953 0.27351 0.41532 0.0
H36 H 0.15955 0.31646 0.43519 0.0
C37 C 0.22355 0.3247 0.43136 0.0
C38 C 0.222 0.28505 0.37599 0.0
C39 C 0.16036 0.35344 0.41027 0.0
C40 C 0.14846 0.29094 0.38452 0.0
H41 H 0.26226 0.28655 0.39425 0.0
H42 H 0.26234 0.30658 0.42576 0.0
H43 H 0.2152 0.35882 0.45179 0.0
H44 H 0.18145 0.37544 0.43883 0.0
H45 H 0.11788 0.34724 0.39952 0.0
H46 H 0.1107 0.3123 0.38703 0.0
H47 H 0.15842 0.25951 0.36013 0.0
H48 H 0.19881 0.25772 0.35407 0.0
H49 H 0.18724 0.25195 0.43969 0.0
H50 H 0.14615 0.2953 0.45947 0.0
H51 H 0.17823 0.33294 0.33462 0.0
H52 H 0.23295 0.3549 0.36097 0.0
C53 C 0.03786 0.90092 0.64423 0.0
C54 C 0.05154 0.88695 0.63861 0.0
C55 C 0.04981 0.88532 0.6195 0.0
C56 C 0.03539 0.89843 0.61439 0.0
N57 N 0.02775 0.90836 0.62903 0.0
Co58 Co 1.00772 0.92976 0.62684 0.0
N59 N 1.00088 0.92335 0.59995 0.0
C60 C 0.01102 0.91085 0.58904 0.0
C61 C 1.0032 0.90924 0.57116 0.0
C62 C 0.98726 0.92174 0.5705 0.0
C63 C 0.98628 0.93035 0.58811 0.0
N64 N 0.9883 0.95149 0.62448 0.0
C65 C 0.97603 0.95703 0.6099 0.0
C66 C 0.96657 0.97413 0.61382 0.0
C67 C 0.97337 0.97968 0.63125 0.0
C68 C 0.98653 0.9657 0.63703 0.0
N69 N 0.01415 0.93531 0.65407 0.0
C70 C 1.00863 0.95114 0.66335 0.0
C71 C 0.01425 0.95105 0.68201 0.0
C72 C 0.0242 0.93424 0.6847 0.0
C73 C 0.02445 0.925 0.66741 0.0
N74 N 0.02972 0.94747 0.61844 0.0
C75 C 0.04234 0.98494 0.61233 0.0
C76 C 0.04792 0.97538 0.62891 0.0
C77 C 0.04206 0.95639 0.63139 0.0
C78 C 0.03402 0.97418 0.59768 0.0
C79 C 0.02817 0.95555 0.60088 0.0
N80 N 0.9848 0.91348 0.63499 0.0
C81 C 0.95296 0.91171 0.65223 0.0
C82 C 0.9466 0.89621 0.64158 0.0
C83 C 0.96025 0.88874 0.62822 0.0
C84 C 0.9795 0.89735 0.62544 0.0
C85 C 0.97183 0.92015 0.64865 0.0
H86 H 0.98965 0.89141 0.61503 0.0
H87 H 0.9752 0.93275 0.65637 0.0
H88 H 0.04611 0.94968 0.64451 0.0
H89 H 0.02083 0.94868 0.58926 0.0
C90 C 0.02717 0.90032 0.59637 0.0
C91 C 0.03593 0.90722 0.664 0.0
C92 C 0.97357 0.94702 0.59183 0.0
C93 C 0.99645 0.96482 0.65453 0.0
H94 H 0.06194 0.87885 0.64732 0.0
H95 H 0.05785 0.87549 0.61043 0.0
H96 H 1.00857 0.90018 0.55988 0.0
H97 H 0.97801 0.92478 0.55818 0.0
H98 H 0.95607 0.9819 0.60488 0.0
H99 H 0.96913 0.99236 0.63883 0.0
H100 H 0.01108 0.96175 0.69253 0.0
H101 H 0.03068 0.92947 0.69792 0.0
H102 H 0.05549 0.98274 0.64035 0.0
H103 H 0.03084 0.98044 0.58403 0.0
H104 H 0.94291 0.91794 0.66271 0.0
H105 H 0.95601 0.87653 0.61989 0.0
C106 C 0.29249 0.73021 0.89301 0.0
C107 C 0.27272 0.73019 0.90041 0.0
C108 C 0.27326 0.71939 0.91645 0.0
C109 C 0.29309 0.71309 0.91788 0.0
N110 N 0.30504 0.71929 0.90371 0.0
Co111 Co 0.33402 0.71201 0.8994 0.0
N112 N 0.33115 0.68906 0.91507 0.0
C113 C 0.3166 0.68611 0.92819 0.0
C114 C 0.3186 0.66899 0.93707 0.0
C115 C 0.33555 0.66072 0.92909 0.0
C116 C 0.34296 0.67334 0.91575 0.0
N117 N 0.36301 0.70465 0.89528 0.0
C118 C 0.37226 0.68758 0.89754 0.0
C119 C 0.39294 0.68878 0.89317 0.0
C120 C 0.3966 0.70727 0.8881 0.0
C121 C 0.37802 0.71638 0.88967 0.0
N122 N 0.33647 0.73491 0.88371 0.0
C123 C 0.35413 0.74353 0.87911 0.0
C124 C 0.35092 0.75864 0.86726 0.0
C125 C 0.32999 0.7594 0.86433 0.0
C126 C 0.32153 0.74463 0.8745 0.0
N127 N 0.34269 0.72672 0.92191 0.0
C128 C 0.36163 0.75023 0.94921 0.0
C129 C 0.34507 0.75674 0.93829 0.0
C130 C 0.3359 0.74484 0.9247 0.0
C131 C 0.36748 0.73129 0.94696 0.0
C132 C 0.3577 0.71978 0.93355 0.0
N133 N 0.32624 0.69792 0.87655 0.0
C134 C 0.33263 0.69239 0.84348 0.0
C135 C 0.31446 0.68208 0.84168 0.0
C136 C 0.30253 0.67936 0.85805 0.0
C137 C 0.30878 0.68729 0.87539 0.0
C138 C 0.33816 0.70009 0.86081 0.0
H139 H 0.29928 0.68529 0.88771 0.0
H140 H 0.35185 0.70851 0.86116 0.0
H141 H 0.32396 0.7506 0.91583 0.0
H142 H 0.36307 0.70546 0.93198 0.0
C143 C 0.29954 0.69807 0.92928 0.0
C144 C 0.29925 0.74084 0.8762 0.0
C145 C 0.362 0.67059 0.90503 0.0
C146 C 0.37309 0.73455 0.88278 0.0
H147 H 0.25906 0.73671 0.8948 0.0
H148 H 0.26033 0.71547 0.92519 0.0
H149 H 0.3085 0.6629 0.94754 0.0
H150 H 0.34179 0.64705 0.93278 0.0
H151 H 0.40415 0.67751 0.89369 0.0
H152 H 0.41094 0.71313 0.88313 0.0
H153 H 0.36244 0.76745 0.8607 0.0
H154 H 0.32191 0.76955 0.85566 0.0
H155 H 0.33992 0.77122 0.93951 0.0
H156 H 0.37995 0.72548 0.95525 0.0
H157 H 0.34219 0.69533 0.83134 0.0
H158 H 0.28839 0.67138 0.85744 0.0
C159 C 0.48213 0.12883 0.13967 0.0
C160 C 0.47142 0.14498 0.13446 0.0
C161 C 0.47289 0.14643 0.11532 0.0
C162 C 0.48467 0.13139 0.10985 0.0
N163 N 0.49094 0.12043 0.1243 0.0
Co164 Co 0.50963 0.09802 0.12204 0.0
N165 N 0.51693 0.10406 0.09515 0.0
C166 C 0.50751 0.11708 0.08431 0.0
C167 C 0.5152 0.11823 0.06638 0.0
C168 C 0.53021 0.10483 0.06557 0.0
C169 C 0.53096 0.09621 0.08319 0.0
N170 N 0.52789 0.07546 0.11979 0.0
C171 C 0.54019 0.06949 0.10541 0.0
C172 C 0.54947 0.0524 0.10985 0.0
C173 C 0.54215 0.04712 0.12714 0.0
C174 C 0.52903 0.0613 0.13244 0.0
N175 N 0.50261 0.09259 0.14914 0.0
C176 C 0.50637 0.07617 0.1581 0.0
C177 C 0.49945 0.07594 0.17637 0.0
C178 C 0.49058 0.09324 0.17918 0.0
C179 C 0.49266 0.10321 0.16243 0.0
N180 N 0.48667 0.08161 0.11348 0.0
C181 C 0.46769 0.04635 0.10832 0.0
C182 C 0.46246 0.05785 0.12375 0.0
C183 C 0.47175 0.07571 0.12579 0.0
C184 C 0.47972 0.0543 0.09413 0.0
C185 C 0.48882 0.07184 0.09687 0.0
N186 N 0.53334 0.11314 0.13048 0.0
C187 C 0.56467 0.11383 0.14858 0.0
C188 C 0.57191 0.1292 0.13823 0.0
C189 C 0.559 0.13707 0.12448 0.0
C190 C 0.53957 0.12905 0.1211 0.0
C191 C 0.54561 0.106 0.14444 0.0
H192 H 0.53001 0.13535 0.11042 0.0
H193 H 0.54141 0.09354 0.15206 0.0
H194 H 0.46802 0.0839 0.13814 0.0
H195 H 0.49898 0.07627 0.08594 0.0
C196 C 0.49255 0.12885 0.09181 0.0
C197 C 0.48312 0.12188 0.15928 0.0
C198 C 0.54215 0.07848 0.0867 0.0
C199 C 0.51832 0.06221 0.14951 0.0
H200 H 0.46359 0.15497 0.14346 0.0
H201 H 0.46688 0.15764 0.10653 0.0
H202 H 0.51035 0.12759 0.05517 0.0
H203 H 0.53883 0.10133 0.05303 0.0
H204 H 0.56 0.04433 0.10123 0.0
H205 H 0.54592 0.03442 0.13489 0.0
H206 H 0.50093 0.06463 0.18655 0.0
H207 H 0.48304 0.09782 0.19199 0.0
H208 H 0.45241 0.05269 0.13475 0.0
H209 H 0.48317 0.04651 0.08135 0.0
H210 H 0.57414 0.10727 0.15932 0.0
H211 H 0.56392 0.14918 0.11635 0.0
C212 C 0.22529 0.73893 0.14002 0.0
C213 C 0.24554 0.7417 0.13465 0.0
C214 C 0.24908 0.72979 0.11974 0.0
C215 C 0.23082 0.72057 0.11677 0.0
N216 N 0.21604 0.72609 0.12878 0.0
Co217 Co 0.18745 0.71669 0.12927 0.0
N218 N 0.195 0.69322 0.11573 0.0
C219 C 0.21345 0.68961 0.10791 0.0
C220 C 0.21708 0.67068 0.10583 0.0
C221 C 0.19976 0.66197 0.11233 0.0
C222 C 0.18575 0.67609 0.11685 0.0
N223 N 0.1587 0.70745 0.12909 0.0
C224 C 0.15083 0.69036 0.12393 0.0
C225 C 0.1296 0.69169 0.12218 0.0
C226 C 0.12418 0.7098 0.12706 0.0
C227 C 0.14226 0.71882 0.13107 0.0
N228 N 0.18042 0.73984 0.14354 0.0
C229 C 0.16158 0.74725 0.14527 0.0
C230 C 0.16136 0.7627 0.15707 0.0
C231 C 0.18137 0.76502 0.16302 0.0
C232 C 0.19273 0.75087 0.15445 0.0
N233 N 0.18171 0.73003 0.1052 0.0
C234 C 0.16382 0.7519 0.07604 0.0
C235 C 0.17773 0.75991 0.0889 0.0
C236 C 0.18645 0.74879 0.10331 0.0
C237 C 0.16058 0.73232 0.07718 0.0
C238 C 0.16992 0.72165 0.09155 0.0
N239 N 0.19236 0.70401 0.15356 0.0
C240 C 0.18009 0.69701 0.18488 0.0
C241 C 0.19904 0.68927 0.18986 0.0
C242 C 0.21462 0.68878 0.1762 0.0
C243 C 0.21086 0.69596 0.15801 0.0
C244 C 0.17717 0.70447 0.16688 0.0
H245 H 0.22301 0.69534 0.14771 0.0
H246 H 0.16266 0.71111 0.16399 0.0
H247 H 0.19607 0.75569 0.11363 0.0
H248 H 0.16653 0.70677 0.09228 0.0
C249 C 0.22881 0.70337 0.10739 0.0
C250 C 0.21525 0.7486 0.15577 0.0
C251 C 0.16322 0.67324 0.11929 0.0
C252 C 0.14446 0.73722 0.13844 0.0
H253 H 0.25673 0.75092 0.14117 0.0
H254 H 0.26366 0.72708 0.11295 0.0
H255 H 0.23126 0.66394 0.10159 0.0
H256 H 0.19785 0.64686 0.11348 0.0
H257 H 0.11899 0.68105 0.11733 0.0
H258 H 0.10884 0.71564 0.1276 0.0
H259 H 0.14813 0.77078 0.16154 0.0
H260 H 0.18688 0.77581 0.17256 0.0
H261 H 0.18092 0.7749 0.08856 0.0
H262 H 0.15039 0.72534 0.06732 0.0
H263 H 0.16775 0.69787 0.19509 0.0
H264 H 0.22951 0.68287 0.17954 0.0
C265 C 0.4831 0.89843 0.38436 0.0
C266 C 0.47135 0.88324 0.39042 0.0
C267 C 0.47284 0.88274 0.4096 0.0
C268 C 0.48558 0.8974 0.41423 0.0
N269 N 0.49245 0.9072 0.39921 0.0
Co270 Co 0.51212 0.92892 0.40022 0.0
N271 N 0.51899 0.92418 0.42747 0.0
C272 C 0.50886 0.91231 0.43903 0.0
C273 C 0.51648 0.91182 0.45701 0.0
C274 C 0.53225 0.92445 0.45708 0.0
C275 C 0.53349 0.93197 0.43897 0.0
N276 N 0.53147 0.95074 0.40123 0.0
C277 C 0.54414 0.95691 0.41526 0.0
C278 C 0.55427 0.97327 0.40989 0.0
C279 C 0.54719 0.9779 0.3923 0.0
C280 C 0.53333 0.96407 0.38778 0.0
N281 N 0.5053 0.93308 0.37282 0.0
C282 C 0.5099 0.94874 0.36293 0.0
C283 C 0.50301 0.94819 0.34462 0.0
C284 C 0.49321 0.93118 0.34281 0.0
C285 C 0.49469 0.92221 0.36015 0.0
N286 N 0.48997 0.94677 0.40768 0.0
C287 C 0.4709 0.98233 0.41099 0.0
C288 C 0.46523 0.96975 0.39654 0.0
C289 C 0.47467 0.95185 0.39537 0.0
C290 C 0.48382 0.97551 0.42513 0.0
C291 C 0.49296 0.95785 0.42332 0.0
N292 N 0.53517 0.91238 0.39282 0.0
C293 C 0.56656 0.90965 0.37502 0.0
C294 C 0.57348 0.89503 0.38662 0.0
C295 C 0.56031 0.88849 0.40083 0.0
C296 C 0.54101 0.89711 0.40343 0.0
C297 C 0.54763 0.91812 0.37839 0.0
H298 H 0.53127 0.89186 0.41451 0.0
H299 H 0.54378 0.93004 0.3698 0.0
H300 H 0.4706 0.94283 0.3837 0.0
H301 H 0.50377 0.95432 0.43405 0.0
C302 C 0.49341 0.90071 0.43215 0.0
C303 C 0.48396 0.90438 0.36444 0.0
C304 C 0.54571 0.94885 0.43444 0.0
C305 C 0.52258 0.96262 0.37073 0.0
H306 H 0.4626 0.87346 0.38188 0.0
H307 H 0.46604 0.87247 0.41901 0.0
H308 H 0.51115 0.90334 0.46872 0.0
H309 H 0.54108 0.92818 0.46943 0.0
H310 H 0.56523 0.98133 0.41807 0.0
H311 H 0.55162 0.98994 0.38385 0.0
H312 H 0.50512 0.95876 0.33378 0.0
H313 H 0.48549 0.92611 0.33027 0.0
H314 H 0.45459 0.97407 0.38562 0.0
H315 H 0.48778 0.9842 0.43719 0.0
H316 H 0.57621 0.9152 0.36388 0.0
H317 H 0.56493 0.87697 0.40993 0.0
C318 C 0.28863 0.28923 0.63441 0.0
C319 C 0.26813 0.28781 0.62917 0.0
C320 C 0.26534 0.29981 0.61426 0.0
C321 C 0.28411 0.30801 0.6113 0.0
N322 N 0.29857 0.30179 0.62333 0.0
Co323 Co 0.32751 0.31038 0.62424 0.0
N324 N 0.32099 0.33406 0.61064 0.0
C325 C 0.30281 0.33829 0.60259 0.0
C326 C 0.29983 0.35733 0.60067 0.0
C327 C 0.31731 0.36547 0.60753 0.0
C328 C 0.33076 0.35091 0.61208 0.0
N329 N 0.35657 0.31878 0.62446 0.0
C330 C 0.36508 0.33565 0.61948 0.0
C331 C 0.38629 0.33378 0.61815 0.0
C332 C 0.39104 0.31552 0.62305 0.0
C333 C 0.3726 0.30697 0.62668 0.0
N334 N 0.33358 0.28709 0.63859 0.0
C335 C 0.35213 0.27912 0.64056 0.0
C336 C 0.35162 0.26361 0.65226 0.0
C337 C 0.33144 0.26187 0.65789 0.0
C338 C 0.32076 0.27645 0.64933 0.0
N339 N 0.33311 0.29683 0.60024 0.0
C340 C 0.34961 0.2746 0.57053 0.0
C341 C 0.33626 0.26683 0.58402 0.0
C342 C 0.32808 0.27812 0.59853 0.0
C343 C 0.35322 0.29416 0.57161 0.0
C344 C 0.3448 0.30497 0.58641 0.0
N345 N 0.32271 0.3232 0.64849 0.0
C346 C 0.33421 0.32878 0.68038 0.0
C347 C 0.31561 0.3375 0.68506 0.0
C348 C 0.30086 0.33954 0.67068 0.0
C349 C 0.30473 0.33234 0.6525 0.0
C350 C 0.33738 0.32172 0.66224 0.0
H351 H 0.29299 0.33375 0.64186 0.0
H352 H 0.35163 0.31454 0.65956 0.0
H353 H 0.31842 0.27144 0.60892 0.0
H354 H 0.34866 0.31975 0.58717 0.0
C355 C 0.28697 0.32507 0.60195 0.0
C356 C 0.29829 0.27894 0.65006 0.0
C357 C 0.35334 0.35309 0.61469 0.0
C358 C 0.36969 0.28864 0.63398 0.0
H359 H 0.25611 0.27963 0.6357 0.0
H360 H 0.25091 0.30339 0.60759 0.0
H361 H 0.28594 0.36451 0.59633 0.0
H362 H 0.31976 0.38051 0.60882 0.0
H363 H 0.39732 0.34419 0.61361 0.0
H364 H 0.40618 0.30928 0.62389 0.0
H365 H 0.36446 0.25505 0.65679 0.0
H366 H 0.32525 0.25109 0.66707 0.0
H367 H 0.33235 0.25198 0.5836 0.0
H368 H 0.36327 0.30104 0.5616 0.0
H369 H 0.34634 0.32722 0.69071 0.0
H370 H 0.2862 0.34612 0.67354 0.0
C371 C 0.03562 0.12374 0.88222 0.0
C372 C 0.04697 0.13946 0.88756 0.0
C373 C 0.04621 0.14043 0.90678 0.0
C374 C 0.03415 0.12557 0.91217 0.0
N375 N 0.02702 0.11524 0.89758 0.0
Co376 Co 1.00771 0.09337 0.89967 0.0
N377 N 1.00118 0.09922 0.92668 0.0
C378 C 0.01156 0.11129 0.93785 0.0
C379 C 1.00374 0.11266 0.95574 0.0
C380 C 0.9875 0.10049 0.95607 0.0
C381 C 0.98632 0.09234 0.93826 0.0
N382 N 0.98874 0.07137 0.90181 0.0
C383 C 0.97585 0.0661 0.91598 0.0
C384 C 0.96668 0.04889 0.91198 0.0
C385 C 0.97435 0.04302 0.89495 0.0
C386 C 0.9877 0.05694 0.88946 0.0
N387 N 0.01423 0.08799 0.87253 0.0
C388 C 0.01027 0.0716 0.86359 0.0
C389 C 0.01702 0.07136 0.84526 0.0
C390 C 0.026 0.08862 0.84244 0.0
C391 C 0.02419 0.09856 0.85924 0.0
N392 N 0.03016 0.07627 0.90769 0.0
C393 C 0.04933 0.04093 0.91119 0.0
C394 C 0.05524 0.05354 0.89688 0.0
C395 C 0.04573 0.07138 0.89563 0.0
C396 C 0.03622 0.04765 0.92522 0.0
C397 C 0.02699 0.06525 0.92331 0.0
N398 N 0.98435 0.10916 0.89176 0.0
C399 C 0.95205 0.10977 0.87518 0.0
C400 C 0.94491 0.12448 0.8866 0.0
C401 C 0.95859 0.13238 0.89973 0.0
C402 C 0.97841 0.12474 0.90183 0.0
C403 C 0.9716 0.10234 0.87801 0.0
H404 H 0.98842 0.13079 0.91231 0.0
H405 H 0.97566 0.09014 0.86984 0.0
H406 H 0.04975 0.08041 0.88396 0.0
H407 H 0.01572 0.06869 0.93371 0.0
C408 C 0.02685 0.12273 0.9304 0.0
C409 C 0.03411 0.11704 0.86253 0.0
C410 C 0.97301 0.07621 0.93396 0.0
C411 C 0.99836 0.05766 0.87232 0.0
H412 H 0.05485 0.14945 0.87862 0.0
H413 H 0.05289 0.15121 0.91569 0.0
H414 H 1.00901 0.12164 0.96711 0.0
H415 H 0.97801 0.09753 0.96824 0.0
H416 H 0.95588 0.0412 0.92067 0.0
H417 H 0.97055 0.03018 0.88744 0.0
H418 H 0.0154 0.06007 0.83506 0.0
H419 H 0.0335 0.09317 0.8296 0.0
H420 H 0.066 0.04925 0.88607 0.0
H421 H 0.03203 0.03886 0.93712 0.0
H422 H 0.94209 0.1031 0.86491 0.0
H423 H 0.95385 0.14401 0.90865 0.0
C424 C 0.36578 0.25393 0.25671 0.0
C425 C 0.37705 0.27045 0.2547 0.0
C426 C 0.39529 0.26768 0.26395 0.0
C427 C 0.39414 0.2498 0.27128 0.0
N428 N 0.37627 0.24118 0.26726 0.0
Co429 Co 0.36806 0.21567 0.27593 0.0
N430 N 0.38861 0.21591 0.29656 0.0
C431 C 0.40524 0.22713 0.29742 0.0
C432 C 0.41686 0.22412 0.3133 0.0
C433 C 0.40697 0.21007 0.32299 0.0
C434 C 0.38976 0.20528 0.31243 0.0
N435 N 0.3601 0.19014 0.28465 0.0
C436 C 0.36377 0.18141 0.30142 0.0
C437 C 0.35544 0.1634 0.30141 0.0
C438 C 0.34646 0.16084 0.284 0.0
C439 C 0.34974 0.17738 0.27431 0.0
N440 N 0.34746 0.21572 0.25538 0.0
C441 C 0.33832 0.20034 0.24812 0.0
C442 C 0.32435 0.20486 0.23426 0.0
C443 C 0.32488 0.22425 0.23279 0.0
C444 C 0.33912 0.23054 0.2459 0.0
N445 N 0.38848 0.20393 0.25849 0.0
C446 C 0.41264 0.1834 0.23196 0.0
C447 C 0.40077 0.19908 0.22652 0.0
C448 C 0.38913 0.20921 0.23989 0.0
C449 C 0.4129 0.17892 0.25129 0.0
C450 C 0.40068 0.1892 0.26422 0.0
N451 N 0.34721 0.2268 0.29291 0.0
C452 C 0.31236 0.22643 0.30464 0.0
C453 C 0.31622 0.24192 0.31629 0.0
C454 C 0.33601 0.24978 0.31605 0.0
C455 C 0.35129 0.24204 0.30421 0.0
C456 C 0.32791 0.21914 0.29315 0.0
H457 H 0.3664 0.24829 0.30424 0.0
H458 H 0.32422 0.20715 0.28447 0.0
H459 H 0.38003 0.22095 0.23497 0.0
H460 H 0.40058 0.18473 0.27877 0.0
C461 C 0.40734 0.24232 0.28495 0.0
C462 C 0.34561 0.2504 0.24802 0.0
C463 C 0.376 0.1895 0.31704 0.0
C464 C 0.34041 0.18274 0.25717 0.0
H465 H 0.37262 0.28331 0.24758 0.0
H466 H 0.40741 0.27792 0.26599 0.0
H467 H 0.43046 0.2317 0.31769 0.0
H468 H 0.41197 0.20394 0.3362 0.0
H469 H 0.35581 0.15321 0.31277 0.0
H470 H 0.33785 0.14865 0.2793 0.0
H471 H 0.31432 0.19532 0.22671 0.0
H472 H 0.31591 0.23277 0.22316 0.0
H473 H 0.40019 0.20336 0.21186 0.0
H474 H 0.42172 0.16697 0.2563 0.0
H475 H 0.29738 0.21979 0.30458 0.0
H476 H 0.3397 0.26165 0.32507 0.0
C477 C 0.0416 0.14275 0.54736 0.0
C478 C 0.02148 0.14928 0.54813 0.0
C479 C 0.02166 0.16547 0.55873 0.0
C480 C 0.04167 0.16784 0.5642 0.0
N481 N 0.05405 0.15408 0.55771 0.0
Co482 Co 0.08356 0.15119 0.56384 0.0
N483 N 0.08098 0.1673 0.58651 0.0
C484 C 0.066 0.17994 0.58978 0.0
C485 C 0.06833 0.18916 0.60671 0.0
C486 C 0.08592 0.18186 0.6145 0.0
C487 C 0.09332 0.16855 0.60183 0.0
N488 N 0.11305 0.14855 0.57014 0.0
C489 C 0.12275 0.15115 0.58693 0.0
C490 C 0.14353 0.14746 0.58518 0.0
C491 C 0.14678 0.14242 0.56659 0.0
C492 C 0.12784 0.14334 0.558 0.0
N493 N 0.08584 0.13505 0.54123 0.0
C494 C 0.10335 0.13105 0.53205 0.0
C495 C 0.10013 0.11895 0.51713 0.0
C496 C 0.07935 0.11525 0.51705 0.0
C497 C 0.07096 0.12524 0.53201 0.0
N498 N 0.09022 0.17364 0.54823 0.0
C499 C 0.1047 0.20194 0.52325 0.0
C500 C 0.08862 0.18975 0.51811 0.0
C501 C 0.08174 0.17574 0.53066 0.0
C502 C 0.11273 0.20006 0.54156 0.0
C503 C 0.10512 0.1861 0.55385 0.0
N504 N 0.0777 0.12841 0.57877 0.0
C505 C 0.08714 0.09628 0.58588 0.0
C506 C 0.06956 0.09387 0.59681 0.0
C507 C 0.05608 0.10926 0.59878 0.0
C508 C 0.06063 0.12657 0.58986 0.0
C509 C 0.09076 0.11338 0.5769 0.0
H510 H 0.05019 0.13829 0.59158 0.0
H511 H 0.10403 0.11414 0.56796 0.0
H512 H 0.06999 0.16614 0.52586 0.0
H513 H 0.11183 0.18501 0.56774 0.0
C514 C 0.04828 0.17995 0.57861 0.0
C515 C 0.04875 0.12627 0.53636 0.0
C516 C 0.11261 0.15814 0.6042 0.0
C517 C 0.12249 0.13577 0.5402 0.0
H518 H 1.00784 0.143 0.5422 0.0
H519 H 1.0085 0.17375 0.56301 0.0
H520 H 0.05801 0.1993 0.61306 0.0
H521 H 0.09252 0.18586 0.62794 0.0
H522 H 0.15506 0.14831 0.59615 0.0
H523 H 0.16108 0.13776 0.56037 0.0
H524 H 0.11159 0.11281 0.50794 0.0
H525 H 0.07129 0.10626 0.50717 0.0
H526 H 0.08184 0.19057 0.50418 0.0
H527 H 0.12486 0.20932 0.54639 0.0
H528 H 0.09776 0.08471 0.58366 0.0
H529 H 0.04224 0.10793 0.60711 0.0
C530 C 0.15172 0.77048 0.75792 0.0
C531 C 0.13985 0.75428 0.75639 0.0
C532 C 0.12194 0.75774 0.76597 0.0
C533 C 0.12388 0.7757 0.77301 0.0
N534 N 0.14193 0.7837 0.76847 0.0
Co535 Co 0.15143 0.80895 0.77677 0.0
N536 N 0.13156 0.80952 0.79786 0.0
C537 C 0.11434 0.79914 0.79905 0.0
C538 C 0.10343 0.80268 0.81526 0.0
C539 C 0.1145 0.81614 0.82478 0.0
C540 C 0.1316 0.82005 0.8138 0.0
N541 N 0.16103 0.83402 0.78541 0.0
C542 C 0.15897 0.84236 0.80261 0.0
C543 C 0.1684 0.85988 0.80274 0.0
C544 C 0.17655 0.86246 0.78496 0.0
C545 C 0.17165 0.84642 0.77494 0.0
N546 N 0.17097 0.80824 0.75547 0.0
C547 C 0.18032 0.82334 0.74788 0.0
C548 C 0.19355 0.81833 0.73359 0.0
C549 C 0.19232 0.79895 0.73224 0.0
C550 C 0.17845 0.79313 0.74585 0.0
N551 N 0.13073 0.82144 0.76003 0.0
C552 C 0.10355 0.84093 0.73507 0.0
C553 C 0.10742 0.84753 0.75346 0.0
C554 C 0.1207 0.83753 0.7657 0.0
C555 C 0.11355 0.82414 0.72968 0.0
C556 C 0.1271 0.81481 0.74215 0.0
N557 N 0.17246 0.79711 0.79315 0.0
C558 C 0.208 0.79542 0.80308 0.0
C559 C 0.20334 0.78184 0.81669 0.0
C560 C 0.18281 0.77592 0.81822 0.0
C561 C 0.16767 0.78349 0.80613 0.0
C562 C 0.19244 0.80302 0.79175 0.0
H563 H 0.15208 0.77855 0.80743 0.0
H564 H 0.19667 0.81397 0.78201 0.0
H565 H 0.12299 0.84301 0.77975 0.0
H566 H 0.13487 0.8023 0.73717 0.0
C567 C 0.11127 0.78386 0.78681 0.0
C568 C 0.17173 0.7734 0.74865 0.0
C569 C 0.14703 0.8344 0.81841 0.0
C570 C 0.1797 0.84091 0.75729 0.0
H571 H 0.14362 0.74119 0.74937 0.0
H572 H 0.10952 0.74791 0.7684 0.0
H573 H 0.08964 0.79566 0.82005 0.0
H574 H 0.11048 0.82231 0.83826 0.0
H575 H 0.16922 0.86972 0.8144 0.0
H576 H 0.18569 0.87429 0.78021 0.0
H577 H 0.20373 0.82751 0.72578 0.0
H578 H 0.20073 0.7901 0.72247 0.0
H579 H 0.09995 0.86021 0.75852 0.0
H580 H 0.11124 0.81837 0.71568 0.0
H581 H 0.22353 0.80066 0.80163 0.0
H582 H 0.17851 0.76553 0.8287 0.0
C583 C 0.47667 0.88589 0.03736 0.0
C584 C 0.49673 0.87999 0.03455 0.0
C585 C 0.4995 0.8644 0.04574 0.0
C586 C 0.48103 0.86168 0.05469 0.0
N587 N 0.46686 0.87449 0.04966 0.0
Co588 Co 0.43841 0.87613 0.05931 0.0
N589 N 0.44534 0.86151 0.08225 0.0
C590 C 0.46325 0.85247 0.08537 0.0
C591 C 0.46697 0.84964 0.10418 0.0
C592 C 0.45028 0.85695 0.1133 0.0
C593 C 0.43641 0.86272 0.09952 0.0
N594 N 0.40982 0.87727 0.06877 0.0
C595 C 0.40187 0.87228 0.08585 0.0
C596 C 0.38055 0.87179 0.08474 0.0
C597 C 0.37522 0.87727 0.06678 0.0
C598 C 0.39342 0.88039 0.05761 0.0
N599 N 0.43204 0.89136 0.03668 0.0
C600 C 0.41332 0.89418 0.02935 0.0
C601 C 0.41377 0.90658 0.01438 0.0
C602 C 0.43407 0.91177 1.01235 0.0
C603 C 0.44487 0.90226 0.02624 0.0
N604 N 0.4312 0.85274 0.04534 0.0
C605 C 0.41261 0.82432 0.02295 0.0
C606 C 0.42696 0.83691 0.01522 0.0
C607 C 0.43599 0.85098 0.02657 0.0
C608 C 0.4091 0.82544 0.04249 0.0
C609 C 0.41875 0.83945 0.05342 0.0
N610 N 0.44485 0.89974 0.07264 0.0
C611 C 0.4358 0.9322 0.0787 0.0
C612 C 0.45497 0.93564 0.08693 0.0
C613 C 0.46866 0.92036 0.08858 0.0
C614 C 0.46329 0.90254 0.08141 0.0
C615 C 0.43107 0.9143 0.07174 0.0
H616 H 0.4743 0.89121 0.08243 0.0
H617 H 0.41649 0.91252 0.06484 0.0
H618 H 0.44604 0.86108 0.0199 0.0
H619 H 0.41523 0.84012 0.06827 0.0
C620 C 0.4785 0.85171 0.07149 0.0
C621 C 0.46735 0.90248 0.02858 0.0
C622 C 0.41417 0.86665 0.10273 0.0
C623 C 0.39587 0.88801 0.03933 0.0
H624 H 0.50833 0.88661 0.02587 0.0
H625 H 0.51378 0.85702 0.04829 0.0
H626 H 0.48094 0.84445 0.11062 0.0
H627 H 0.44874 0.8579 0.12846 0.0
H628 H 0.36979 0.86741 0.09546 0.0
H629 H 0.35988 0.87882 0.06115 0.0
H630 H 0.40081 0.91196 1.00648 0.0
H631 H 0.44023 0.92138 1.00193 0.0
H632 H 0.43033 0.8366 1.00026 0.0
H633 H 0.39853 0.8158 0.04927 0.0
H634 H 0.42477 0.94348 0.07678 0.0
H635 H 0.48358 0.92219 0.09505 0.0
C636 C 0.36242 0.7748 0.27631 0.0
C637 C 0.37147 0.75784 0.28158 0.0
C638 C 0.38945 0.75647 0.2717 0.0
C639 C 0.39038 0.77259 0.26099 0.0
N640 N 0.37416 0.78404 0.26362 0.0
Co641 Co 0.36941 0.80858 0.25091 0.0
N642 N 0.38848 0.8021 0.23014 0.0
C643 C 0.40108 0.787 0.22964 0.0
C644 C 0.40723 0.78251 0.21172 0.0
C645 C 0.39835 0.7958 0.20037 0.0
C646 C 0.38822 0.8085 0.21211 0.0
N647 N 0.36524 0.83334 0.23829 0.0
C648 C 0.37149 0.83962 0.22101 0.0
C649 C 0.36812 0.85894 0.21951 0.0
C650 C 0.35917 0.8647 0.23609 0.0
C651 C 0.35782 0.84879 0.24704 0.0
N652 N 0.34977 0.81445 0.27144 0.0
C653 C 0.34321 0.83175 0.27623 0.0
C654 C 0.3291 0.83127 0.29067 0.0
C655 C 0.32677 0.81245 0.29514 0.0
C656 C 0.33959 0.80248 0.28314 0.0
N657 N 0.39209 0.82007 0.26599 0.0
C658 C 0.42036 0.84119 0.28828 0.0
C659 C 0.40573 0.82928 0.29659 0.0
C660 C 0.39211 0.81867 0.28531 0.0
C661 C 0.42099 0.8416 0.26842 0.0
C662 C 0.40673 0.83114 0.25762 0.0
N663 N 0.34638 0.7977 0.23634 0.0
C664 C 0.31117 0.80003 0.22564 0.0
C665 C 0.31185 0.7818 0.2179 0.0
C666 C 0.33056 0.7719 0.21937 0.0
C667 C 0.34749 0.78002 0.22864 0.0
C668 C 0.32846 0.80767 0.23464 0.0
H669 H 0.36142 0.77187 0.22975 0.0
H670 H 0.32711 0.8216 0.24061 0.0
H671 H 0.38118 0.80968 0.29235 0.0
H672 H 0.40724 0.83245 0.24246 0.0
C673 C 0.4025 0.77468 0.24496 0.0
C674 C 0.34296 0.78188 0.28382 0.0
C675 C 0.38192 0.8279 0.20646 0.0
C676 C 0.34806 0.84731 0.26473 0.0
H677 H 0.36551 0.74732 0.29119 0.0
H678 H 0.39974 0.74448 0.27127 0.0
H679 H 0.4159 0.77026 0.20725 0.0
H680 H 0.3997 0.79624 0.18516 0.0
H681 H 0.37213 0.86815 0.20795 0.0
H682 H 0.35417 0.87883 0.23968 0.0
H683 H 0.32086 0.84308 0.29672 0.0
H684 H 0.31686 0.80673 0.30596 0.0
H685 H 0.40484 0.82806 0.31181 0.0
H686 H 0.43204 0.85043 0.26122 0.0
H687 H 0.29721 0.8083 0.22524 0.0
H688 H 0.33224 0.75793 0.21338 0.0
C689 C 0.4748 0.14071 0.48248 0.0
C690 C 0.49433 0.14824 0.48469 0.0
C691 C 0.49481 0.16465 0.47442 0.0
C692 C 0.4756 0.16631 0.46662 0.0
N693 N 0.46312 0.15197 0.47136 0.0
Co694 Co 0.43413 0.14918 0.46343 0.0
N695 N 0.43812 0.1661 0.44149 0.0
C696 C 0.4534 0.17874 0.4396 0.0
C697 C 0.45216 0.18882 0.4231 0.0
C698 C 0.43496 0.1822 0.41413 0.0
C699 C 0.42659 0.16838 0.42571 0.0
N700 N 0.4051 0.14667 0.45542 0.0
C701 C 0.39607 0.15078 0.43859 0.0
C702 C 0.37519 0.14706 0.43934 0.0
C703 C 0.37114 0.1406 0.45728 0.0
C704 C 0.38969 0.1407 0.46653 0.0
N705 N 0.43059 0.13213 0.48535 0.0
C706 C 0.41253 0.12736 0.49313 0.0
C707 C 0.4148 0.11436 0.50739 0.0
C708 C 0.43556 0.11088 0.50859 0.0
C709 C 0.44495 0.12208 0.49506 0.0
N710 N 0.42621 0.17103 0.47945 0.0
C711 C 0.40898 0.19771 0.50489 0.0
C712 C 0.42458 0.18516 0.51053 0.0
C713 C 0.43294 0.17208 0.49773 0.0
C714 C 0.40329 0.19731 0.48573 0.0
C715 C 0.41209 0.18401 0.47331 0.0
N716 N 0.44132 0.127 0.44806 0.0
C717 C 0.43445 0.09432 0.44086 0.0
C718 C 0.45321 0.09251 0.43145 0.0
C719 C 0.46551 0.10879 0.42977 0.0
C720 C 0.45922 0.12592 0.43807 0.0
C721 C 0.42886 0.11149 0.44895 0.0
H722 H 0.46912 0.13808 0.43699 0.0
H723 H 0.41475 0.11183 0.45678 0.0
H724 H 0.44429 0.16226 0.50289 0.0
H725 H 0.40672 0.18371 0.45891 0.0
C726 C 0.47008 0.17869 0.45208 0.0
C727 C 0.46744 0.12363 0.49211 0.0
C728 C 0.40667 0.15925 0.42221 0.0
C729 C 0.394 0.13227 0.48411 0.0
H730 H 0.5069 0.14251 0.49287 0.0
H731 H 0.5079 0.17378 0.47223 0.0
H732 H 0.4628 0.19933 0.41793 0.0
H733 H 0.42906 0.18723 0.40077 0.0
H734 H 0.36407 0.14886 0.42814 0.0
H735 H 0.35654 0.13572 0.46265 0.0
H736 H 0.40276 0.10741 0.51525 0.0
H737 H 0.4428 0.10103 0.51816 0.0
H738 H 0.43012 0.18512 0.52494 0.0
H739 H 0.39141 0.20662 0.48047 0.0
H740 H 0.4245 0.08227 0.44292 0.0
H741 H 0.48006 0.10823 0.42243 0.0
C742 C 0.15478 0.24907 0.77054 0.0
C743 C 0.14349 0.2655 0.77323 0.0
C744 C 0.12544 0.26327 0.7635 0.0
C745 C 0.12669 0.24572 0.75535 0.0
N746 N 0.14444 0.23684 0.75931 0.0
Co747 Co 0.15249 0.2115 0.75015 0.0
N748 N 0.13246 0.21264 0.7292 0.0
C749 C 0.11581 0.22384 0.72844 0.0
C750 C 0.10473 0.22146 0.7121 0.0
C751 C 0.11509 0.2079 0.70203 0.0
C752 C 0.13198 0.2028 0.71284 0.0
N753 N 0.16037 0.18621 0.74073 0.0
C754 C 0.15776 0.17858 0.72328 0.0
C755 C 0.16609 0.1606 0.72253 0.0
C756 C 0.17412 0.15699 0.74019 0.0
C757 C 0.17026 0.17292 0.75076 0.0
N758 N 0.17245 0.21059 0.7712 0.0
C759 C 0.18101 0.1948 0.77819 0.0
C760 C 0.1944 0.19861 0.79273 0.0
C761 C 0.19407 0.21794 0.79496 0.0
C762 C 0.18051 0.22494 0.78159 0.0
N763 N 0.13146 0.19959 0.76674 0.0
C764 C 0.10645 0.17864 0.79208 0.0
C765 C 0.10674 0.17458 0.77266 0.0
C766 C 0.11938 0.18507 0.76032 0.0
C767 C 0.11818 0.19412 0.79822 0.0
C768 C 0.13024 0.20448 0.78542 0.0
N769 N 0.1739 0.22271 0.73399 0.0
C770 C 0.20902 0.22194 0.72306 0.0
C771 C 0.20539 0.23702 0.71087 0.0
C772 C 0.18563 0.24498 0.7105 0.0
C773 C 0.17011 0.2377 0.7223 0.0
C774 C 0.19319 0.215 0.73436 0.0
H775 H 0.15501 0.24398 0.72182 0.0
H776 H 0.19662 0.20313 0.74326 0.0
H777 H 0.11995 0.18093 0.74566 0.0
H778 H 0.13925 0.21605 0.79085 0.0
C779 C 0.11354 0.23872 0.74132 0.0
C780 C 0.1745 0.245 0.77983 0.0
C781 C 0.14658 0.18789 0.70772 0.0
C782 C 0.17903 0.17752 0.7684 0.0
H783 H 0.14779 0.27781 0.78136 0.0
H784 H 0.11331 0.27358 0.76187 0.0
H785 H 0.0913 0.22926 0.70761 0.0
H786 H 0.11075 0.20241 0.68834 0.0
H787 H 0.1664 0.15117 0.71052 0.0
H788 H 0.18264 0.14459 0.74448 0.0
H789 H 0.20396 0.18865 0.80028 0.0
H790 H 0.20277 0.22597 0.8052 0.0
H791 H 0.09804 0.16278 0.76716 0.0
H792 H 0.11835 0.19804 0.813 0.0
H793 H 0.22396 0.21525 0.72356 0.0
H794 H 0.18218 0.25655 0.70104 0.0
C795 C 0.04363 0.8806 0.98054 0.0
C796 C 0.02389 0.87317 0.98073 0.0
C797 C 0.02437 0.85695 0.97015 0.0
C798 C 0.04417 0.85545 0.96378 0.0
N799 N 0.05613 0.86974 0.96972 0.0
Co800 Co 0.08507 0.87393 0.96225 0.0
N801 N 0.08212 0.85782 0.93959 0.0
C802 C 0.0676 0.84461 0.93694 0.0
C803 C 0.06953 0.83542 0.91996 0.0
C804 C 0.08639 0.8433 0.91149 0.0
C805 C 0.09381 0.85692 0.92383 0.0
N806 N 0.11401 0.87798 0.95468 0.0
C807 C 0.12312 0.8755 0.93759 0.0
C808 C 0.14377 0.88001 0.93859 0.0
C809 C 0.14757 0.8854 0.95699 0.0
C810 C 0.12908 0.88387 0.96623 0.0
N811 N 0.08763 0.89007 0.98486 0.0
C812 C 0.10535 0.89486 0.99332 0.0
C813 C 0.10223 0.90694 1.00827 0.0
C814 C 0.08131 0.90983 1.00912 0.0
C815 C 0.07274 0.8994 0.99456 0.0
N816 N 0.09388 0.85173 0.97732 0.0
C817 C 0.11288 0.82481 1.00119 0.0
C818 C 0.09632 0.83582 1.00755 0.0
C819 C 0.08713 0.84922 0.99547 0.0
C820 C 0.11872 0.82679 0.98224 0.0
C821 C 0.1089 0.84001 0.97055 0.0
N822 N 0.07715 0.89644 0.94777 0.0
C823 C 0.08342 0.92936 0.94147 0.0
C824 C 0.0653 0.93079 0.93101 0.0
C825 C 0.05345 0.91432 0.92863 0.0
C826 C 0.05974 0.89723 0.93702 0.0
C827 C 0.089 0.91227 0.94963 0.0
H828 H 0.05032 0.88482 0.93526 0.0
H829 H 0.10266 0.91218 0.95811 0.0
H830 H 0.0752 0.85817 1.00111 0.0
H831 H 0.11424 0.84136 0.95621 0.0
C832 C 0.05058 0.84376 0.94895 0.0
C833 C 0.05042 0.89757 0.99096 0.0
C834 C 0.11272 0.86773 0.92076 0.0
C835 C 0.12425 0.89108 0.9843 0.0
H836 H 0.01028 0.87886 0.98725 0.0
H837 H 0.01145 0.84812 0.96643 0.0
H838 H 0.05943 0.82481 0.91409 0.0
H839 H 0.09258 0.83939 0.89786 0.0
H840 H 0.15488 0.8794 0.92727 0.0
H841 H 0.16192 0.89057 0.96268 0.0
H842 H 0.11381 0.91368 0.01691 0.0
H843 H 0.07329 0.91863 0.01919 0.0
H844 H 0.09119 0.83479 0.02205 0.0
H845 H 0.1312 0.81843 0.97655 0.0
H846 H 0.09291 0.94161 0.94416 0.0
H847 H 0.03935 0.91467 0.92056 0.0
C848 C 0.23104 0.39172 0.15057 0.0
C849 C 0.21586 0.38579 0.13814 0.0
C850 C 0.21551 0.36652 0.13889 0.0
C851 C 0.2303 0.36171 0.15179 0.0
N852 N 0.24007 0.3767 0.15929 0.0
Co853 Co 0.26135 0.37544 0.17956 0.0
N854 N 0.26623 0.34789 0.17518 0.0
C855 C 0.25401 0.3363 0.16513 0.0
C856 C 0.26103 0.31807 0.16435 0.0
C857 C 0.27866 0.31801 0.17482 0.0
C858 C 0.28139 0.33629 0.18149 0.0
N859 N 0.28223 0.37411 0.20007 0.0
C860 C 0.29512 0.35986 0.20526 0.0
C861 C 0.30604 0.36469 0.22137 0.0
C862 C 0.29956 0.38238 0.22657 0.0
C863 C 0.28509 0.3874 0.2134 0.0
N864 N 0.25633 0.40315 0.18326 0.0
C865 C 0.26235 0.41317 0.19844 0.0
C866 C 0.25737 0.43196 0.19714 0.0
C867 C 0.24739 0.43392 0.18018 0.0
C868 C 0.24663 0.41613 0.17203 0.0
N869 N 0.24036 0.36945 0.19897 0.0
C870 C 0.22245 0.36709 0.23511 0.0
C871 C 0.21665 0.38143 0.22245 0.0
C872 C 0.22559 0.38219 0.20429 0.0
C873 C 0.23517 0.35279 0.22831 0.0
C874 C 0.24382 0.35418 0.21044 0.0
N875 N 0.28352 0.38123 0.16155 0.0
C876 C 0.31728 0.39484 0.1589 0.0
C877 C 0.32291 0.38148 0.14532 0.0
C878 C 0.30754 0.36938 0.13839 0.0
C879 C 0.28784 0.36961 0.1466 0.0
C880 C 0.29767 0.39454 0.1667 0.0
H881 H 0.27665 0.35949 0.14177 0.0
H882 H 0.29475 0.40416 0.17807 0.0
H883 H 0.22158 0.39382 0.19519 0.0
H884 H 0.25476 0.34348 0.20701 0.0
C885 C 0.23726 0.34342 0.1552 0.0
C886 C 0.23544 0.41178 0.15431 0.0
C887 C 0.2964 0.34116 0.19617 0.0
C888 C 0.27516 0.40495 0.21209 0.0
H889 H 0.20593 0.39447 0.12952 0.0
H890 H 0.20598 0.35713 0.13062 0.0
H891 H 0.25423 0.30626 0.15695 0.0
H892 H 0.28799 0.30573 0.17782 0.0
H893 H 0.31725 0.35617 0.22875 0.0
H894 H 0.30491 0.39064 0.23844 0.0
H895 H 0.26116 0.44307 0.20704 0.0
H896 H 0.24137 0.44697 0.17455 0.0
H897 H 0.20628 0.39253 0.22684 0.0
H898 H 0.23937 0.34092 0.23716 0.0
H899 H 0.32831 0.40499 0.16417 0.0
H900 H 0.311 0.35908 0.12756 0.0
C901 C 0.73243 0.13137 0.87224 0.0
C902 C 0.72183 0.1369 0.88834 0.0
C903 C 0.72573 0.15563 0.89092 0.0
C904 C 0.73821 0.16062 0.87623 0.0
N905 N 0.74262 0.14627 0.86439 0.0
Co906 Co 0.75848 0.14872 0.84022 0.0
N907 N 0.76772 0.17499 0.84642 0.0
C908 C 0.76231 0.18499 0.8618 0.0
C909 C 0.77409 0.20074 0.86461 0.0
C910 C 0.78742 0.20106 0.84976 0.0
C911 C 0.78242 0.18588 0.83821 0.0
N912 N 0.77339 0.15153 0.81564 0.0
C913 C 0.78327 0.16674 0.80801 0.0
C914 C 0.7861 0.16418 0.7887 0.0
C915 C 0.77859 0.14677 0.78426 0.0
C916 C 0.77104 0.13976 0.80082 0.0
N917 N 0.75007 0.12193 0.83481 0.0
C918 C 0.75249 0.11302 0.81817 0.0
C919 C 0.74623 0.09456 0.81842 0.0
C920 C 0.73901 0.0916 0.83629 0.0
C921 C 0.74088 0.1086 0.84592 0.0
N922 N 0.7339 0.15845 0.82677 0.0
C923 C 0.71454 0.16425 0.79189 0.0
C924 C 0.70939 0.14864 0.80313 0.0
C925 C 0.71884 0.1463 0.82085 0.0
C926 C 0.72638 0.17847 0.80013 0.0
C927 C 0.73542 0.17552 0.81774 0.0
N928 N 0.78378 0.13927 0.8523 0.0
C929 C 0.81649 0.12436 0.8469 0.0
C930 C 0.82541 0.13448 0.86178 0.0
C931 C 0.81233 0.14523 0.87331 0.0
C932 C 0.79149 0.14719 0.86847 0.0
C933 C 0.79586 0.12698 0.8424 0.0
H934 H 0.78206 0.15609 0.87718 0.0
H935 H 0.79022 0.12 0.83001 0.0
H936 H 0.71535 0.13371 0.82873 0.0
H937 H 0.7454 0.18649 0.82266 0.0
C938 C 0.74789 0.17801 0.87442 0.0
C939 C 0.73167 0.11197 0.86472 0.0
C940 C 0.78905 0.18422 0.81831 0.0
C941 C 0.76143 0.12229 0.80291 0.0
H942 H 0.71214 0.12842 0.89733 0.0
H943 H 0.72041 0.16447 0.90239 0.0
H944 H 0.77341 0.21057 0.8763 0.0
H945 H 0.799 0.21174 0.84742 0.0
H946 H 0.79207 0.17401 0.77847 0.0
H947 H 0.77806 0.14027 0.77044 0.0
H948 H 0.74687 0.08443 0.80699 0.0
H949 H 0.73257 0.07852 0.84143 0.0
H950 H 0.6994 0.13766 0.79779 0.0
H951 H 0.72969 0.19138 0.79254 0.0
H952 H 0.82563 0.11513 0.83808 0.0
H953 H 0.81832 0.15299 0.88527 0.0
C954 C 0.11502 0.50064 0.02355 0.0
C955 C 0.12491 0.49566 1.00692 0.0
C956 C 0.14291 0.5056 1.00652 0.0
C957 C 0.14301 0.51606 0.02283 0.0
N958 N 0.12625 0.51324 0.03351 0.0
Co959 Co 0.12009 0.52575 0.05792 0.0
N960 N 0.13947 0.5466 0.05264 0.0
C961 C 0.15295 0.54722 0.03822 0.0
C962 C 0.15947 0.56516 0.03431 0.0
C963 C 0.14988 0.57641 0.04726 0.0
C964 C 0.1389 0.56457 0.05923 0.0
N965 N 0.11426 0.53829 0.08249 0.0
C966 C 0.11996 0.55561 0.0892 0.0
C967 C 0.11521 0.55708 0.10827 0.0
C968 C 0.106 0.54043 0.11343 0.0
C969 C 0.10585 0.52949 0.09744 0.0
N970 N 0.10036 0.50505 0.06265 0.0
C971 C 0.09287 0.50011 0.07958 0.0
C972 C 0.07896 0.48555 0.07832 0.0
C973 C 0.07772 0.48117 0.05939 0.0
C974 C 0.09095 0.49334 0.05014 0.0
N975 N 0.1422 0.51066 0.07051 0.0
C976 C 0.16851 0.4879 0.09337 0.0
C977 C 0.15688 0.48006 0.07859 0.0
C978 C 0.1438 0.49156 0.06751 0.0
C979 C 0.16739 0.5076 0.09566 0.0
C980 C 0.1546 0.51867 0.08396 0.0
N981 N 0.09764 0.54039 0.04594 0.0
C982 C 0.06245 0.5515 0.04663 0.0
C983 C 0.06436 0.55983 0.02874 0.0
C984 C 0.08363 0.55827 0.01982 0.0
C985 C 0.09991 0.54853 0.02856 0.0
C986 C 0.0791 0.54199 0.05491 0.0
H987 H 0.1143 0.54749 0.02115 0.0
H988 H 0.0768 0.53564 0.06856 0.0
H989 H 0.13437 0.4848 0.05696 0.0
H990 H 0.1542 0.5337 0.08635 0.0
C991 C 0.155 0.53206 0.02576 0.0
C992 C 0.0953 0.49287 0.02971 0.0
C993 C 0.13141 0.57012 0.07828 0.0
C994 C 0.09652 0.51167 0.09538 0.0
H995 H 0.11952 0.48621 0.99599 0.0
H996 H 0.15379 0.50623 0.995 0.0
H997 H 0.1689 0.56973 0.0226 0.0
H998 H 0.15132 0.5916 0.04801 0.0
H999 H 0.11852 0.56863 0.11774 0.0
H1000 H 0.1001 0.53677 0.12722 0.0
H1001 H 0.07007 0.47942 0.08966 0.0
H1002 H 0.0682 0.47034 0.05312 0.0
H1003 H 0.1571 0.46497 0.07616 0.0
H1004 H 0.1762 0.51446 0.10667 0.0
H1005 H 0.048 0.55189 0.05415 0.0
H1006 H 0.08627 0.56464 1.00616 0.0
C1007 C 0.78724 0.89038 0.37936 0.0
C1008 C 0.80028 0.8841 0.39354 0.0
C1009 C 0.79829 0.86497 0.39432 0.0
C1010 C 0.78439 0.86058 0.3805 0.0
N1011 N 0.77736 0.87566 0.37086 0.0
Co1012 Co 0.75827 0.87466 0.34861 0.0
N1013 N 0.75201 0.84712 0.35264 0.0
C1014 C 0.7609 0.83588 0.36568 0.0
C1015 C 0.75444 0.81754 0.36507 0.0
C1016 C 0.74071 0.81688 0.35058 0.0
C1017 C 0.73946 0.83501 0.34313 0.0
N1018 N 0.73998 0.8735 0.32592 0.0
C1019 C 0.72918 0.85887 0.31826 0.0
C1020 C 0.71942 0.86436 0.30173 0.0
C1021 C 0.72476 0.88273 0.29854 0.0
C1022 C 0.7373 0.88755 0.31331 0.0
N1023 N 0.76375 0.90254 0.34561 0.0
C1024 C 0.75741 0.91328 0.331 0.0
C1025 C 0.76275 0.93193 0.33269 0.0
C1026 C 0.77323 0.93318 0.34939 0.0
C1027 C 0.77393 0.91512 0.35693 0.0
N1028 N 0.78145 0.8682 0.33115 0.0
C1029 C 0.79445 0.85987 0.29412 0.0
C1030 C 0.79618 0.87821 0.3014 0.0
C1031 C 0.79029 0.88192 0.32013 0.0
C1032 C 0.78998 0.84544 0.30694 0.0
C1033 C 0.7841 0.84984 0.3254 0.0
N1034 N 0.73431 0.88078 0.36466 0.0
C1035 C 0.70024 0.89413 0.36525 0.0
C1036 C 0.69455 0.88235 0.38012 0.0
C1037 C 0.70981 0.87114 0.38848 0.0
C1038 C 0.72966 0.87063 0.38057 0.0
C1039 C 0.72005 0.89328 0.35794 0.0
H1040 H 0.74079 0.86129 0.38678 0.0
H1041 H 0.72314 0.90204 0.34603 0.0
H1042 H 0.7919 0.89619 0.32499 0.0
H1043 H 0.78063 0.83809 0.3343 0.0
C1044 C 0.77618 0.84276 0.3775 0.0
C1045 C 0.78512 0.91047 0.37445 0.0
C1046 C 0.72829 0.83943 0.32565 0.0
C1047 C 0.74587 0.9054 0.31633 0.0
H1048 H 0.81024 0.89245 0.40247 0.0
H1049 H 0.80578 0.85543 0.40406 0.0
H1050 H 0.75967 0.80586 0.37367 0.0
H1051 H 0.73338 0.80415 0.3456 0.0
H1052 H 0.70961 0.85589 0.29276 0.0
H1053 H 0.71998 0.89156 0.28687 0.0
H1054 H 0.75927 0.94331 0.32302 0.0
H1055 H 0.77975 0.94594 0.35524 0.0
H1056 H 0.80083 0.88984 0.29248 0.0
H1057 H 0.79015 0.83079 0.30256 0.0
H1058 H 0.68917 0.90352 0.35875 0.0
H1059 H 0.70618 0.8621 0.40033 0.0
C1060 C 0.9048 0.0162 0.02209 0.0
C1061 C 0.89327 0.018 1.00569 0.0
C1062 C 0.87517 1.00864 1.00874 0.0
C1063 C 0.87667 1.00147 0.02667 0.0
N1064 N 0.89462 1.0057 0.03505 0.0
Co1065 Co 0.90336 0.99733 0.06051 0.0
N1066 N 0.88305 0.97652 0.06067 0.0
C1067 C 0.86623 0.97546 0.04969 0.0
C1068 C 0.85477 0.95957 0.05304 0.0
C1069 C 0.86496 0.95011 0.06708 0.0
C1070 C 0.88219 0.96079 0.07151 0.0
N1071 N 0.91194 0.98888 0.08597 0.0
C1072 C 0.90856 0.97218 0.0949 0.0
C1073 C 0.91729 0.97238 0.11276 0.0
C1074 C 0.92618 0.98985 0.11504 0.0
C1075 C 0.92248 0.99938 0.09848 0.0
N1076 N 0.92359 0.01815 0.06008 0.0
C1077 C 0.93286 0.02566 0.07528 0.0
C1078 C 0.94655 0.03963 0.07048 0.0
C1079 C 0.94571 0.04091 0.05109 0.0
C1080 C 0.93158 0.02757 0.0451 0.0
N1081 N 0.88281 0.01462 0.07238 0.0
C1082 C 0.8578 0.04074 0.09266 0.0
C1083 C 0.86969 0.04637 0.07709 0.0
C1084 C 0.88173 0.03319 0.06706 0.0
C1085 C 0.85809 0.02143 0.09724 0.0
C1086 C 0.87074 1.00873 0.08712 0.0
N1087 N 0.92429 0.98045 0.0492 0.0
C1088 C 0.95964 0.96982 0.0482 0.0
C1089 C 0.9552 0.95699 0.03378 0.0
C1090 C 0.93485 0.95611 0.0272 0.0
C1091 C 0.9197 0.96813 0.0349 0.0
C1092 C 0.94406 0.98114 0.05582 0.0
H1093 H 0.90427 0.96736 0.02941 0.0
H1094 H 0.94812 0.99043 0.06725 0.0
H1095 H 0.89072 0.03824 0.05533 0.0
H1096 H 0.87121 0.99421 0.09169 0.0
C1097 C 0.86373 0.98777 0.03442 0.0
C1098 C 0.92492 0.02506 0.02534 0.0
C1099 C 0.89622 0.95647 0.08719 0.0
C1100 C 0.93135 0.01663 0.09293 0.0
H1101 H 0.89743 0.02507 0.99274 0.0
H1102 H 0.86291 1.00644 0.99866 0.0
H1103 H 0.84105 0.95505 0.04572 0.0
H1104 H 0.86013 0.93697 0.07345 0.0
H1105 H 0.9172 0.96111 0.12306 0.0
H1106 H 0.93496 0.99471 0.12706 0.0
H1107 H 0.95666 0.04735 0.07982 0.0
H1108 H 0.95444 0.05051 0.04236 0.0
H1109 H 0.86991 0.06104 0.07277 0.0
H1110 H 0.84931 0.01629 0.10914 0.0
H1111 H 0.97501 0.97074 0.05394 0.0
H1112 H 0.9307 0.94623 0.01618 0.0
C1113 C 0.28512 0.63298 0.64826 0.0
C1114 C 0.296 0.63889 0.63247 0.0
C1115 C 0.2937 0.65799 0.63137 0.0
C1116 C 0.28141 0.66273 0.64631 0.0
N1117 N 0.27558 0.64783 0.65685 0.0
Co1118 Co 0.257 0.649 0.67933 0.0
N1119 N 0.2485 0.67563 0.67366 0.0
C1120 C 0.25757 0.68719 0.66111 0.0
C1121 C 0.24863 0.70467 0.65999 0.0
C1122 C 0.23305 0.70433 0.67285 0.0
C1123 C 0.23336 0.68656 0.68115 0.0
N1124 N 0.23875 0.65026 0.70193 0.0
C1125 C 0.22551 0.66396 0.70785 0.0
C1126 C 0.21735 0.65955 0.72537 0.0
C1127 C 0.22602 0.64276 0.73077 0.0
C1128 C 0.23893 0.6378 0.71628 0.0
N1129 N 0.26549 0.62219 0.68442 0.0
C1130 C 0.26248 0.61301 0.70083 0.0
C1131 C 0.27029 0.59501 0.70078 0.0
C1132 C 0.279 0.59268 0.68331 0.0
C1133 C 0.27601 0.60944 0.67358 0.0
N1134 N 0.27951 0.65826 0.6958 0.0
C1135 C 0.29862 0.6627 0.73113 0.0
C1136 C 0.30504 0.64848 0.71861 0.0
C1137 C 0.29559 0.64678 0.70077 0.0
C1138 C 0.28504 0.6763 0.72425 0.0
C1139 C 0.27591 0.67396 0.70665 0.0
N1140 N 0.23362 0.63977 0.66427 0.0
C1141 C 0.20316 0.62048 0.66394 0.0
C1142 C 0.19482 0.63109 0.64922 0.0
C1143 C 0.2068 0.64551 0.64135 0.0
C1144 C 0.22639 0.64936 0.64883 0.0
C1145 C 0.22231 0.62511 0.67131 0.0
H1146 H 0.23521 0.66062 0.64265 0.0
H1147 H 0.22725 0.61738 0.68348 0.0
H1148 H 0.30011 0.63518 0.69183 0.0
H1149 H 0.26439 0.6841 0.70308 0.0
C1150 C 0.27292 0.68051 0.64925 0.0
C1151 C 0.28535 0.61326 0.65495 0.0
C1152 C 0.22132 0.68188 0.698 0.0
C1153 C 0.2505 0.62116 0.71511 0.0
H1154 H 0.30471 0.63031 0.62271 0.0
H1155 H 0.2997 0.66725 0.62055 0.0
H1156 H 0.25282 0.71623 0.65079 0.0
H1157 H 0.22308 0.71608 0.67621 0.0
H1158 H 0.20658 0.66782 0.73355 0.0
H1159 H 0.2232 0.63507 0.7437 0.0
H1160 H 0.26952 0.58469 0.71201 0.0
H1161 H 0.28703 0.58023 0.67843 0.0
H1162 H 0.31621 0.63803 0.72296 0.0
H1163 H 0.28047 0.68821 0.73291 0.0
H1164 H 0.19442 0.60925 0.67049 0.0
H1165 H 0.20099 0.65388 0.62973 0.0
C1166 C 0.10855 0.52543 0.49686 0.0
C1167 C 0.12069 0.53337 0.51094 0.0
C1168 C 0.13942 0.52453 0.51015 0.0
C1169 C 0.13793 0.51207 0.49538 0.0
N1170 N 0.11947 0.51259 0.48689 0.0
Co1171 Co 0.11301 0.50011 0.46274 0.0
N1172 N 0.13437 0.48071 0.46684 0.0
C1173 C 0.15067 0.48248 0.47833 0.0
C1174 C 0.16313 0.46682 0.4781 0.0
C1175 C 0.15408 0.45454 0.46558 0.0
C1176 C 0.13655 0.46344 0.45886 0.0
N1177 N 0.10723 0.48768 0.43826 0.0
C1178 C 0.11185 0.46993 0.43232 0.0
C1179 C 0.10446 0.46695 0.41421 0.0
C1180 C 0.09511 0.48349 0.4087 0.0
C1181 C 0.09725 0.49565 0.42372 0.0
N1182 N 0.09131 0.51941 0.45925 0.0
C1183 C 0.0819 0.52327 0.44279 0.0
C1184 C 0.06466 0.53406 0.44531 0.0
C1185 C 0.06333 0.53725 0.46441 0.0
C1186 C 0.08037 0.52882 0.47274 0.0
N1187 N 0.13334 0.51671 0.44984 0.0
C1188 C 0.16151 0.54039 0.43032 0.0
C1189 C 0.14661 0.54792 0.44254 0.0
C1190 C 0.13292 0.53592 0.45225 0.0
C1191 C 0.16186 0.52065 0.42819 0.0
C1192 C 0.14764 0.50919 0.43781 0.0
N1193 N 0.09236 0.48379 0.47503 0.0
C1194 C 0.05895 0.46912 0.47337 0.0
C1195 C 0.06177 0.46055 0.4909 0.0
C1196 C 0.08023 0.46404 0.50059 0.0
C1197 C 0.09543 0.47564 0.49234 0.0
C1198 C 0.07418 0.48068 0.46583 0.0
H1199 H 0.10967 0.47793 0.49981 0.0
H1200 H 0.07111 0.48702 0.45236 0.0
H1201 H 0.12192 0.54228 0.4617 0.0
H1202 H 0.14819 0.49417 0.43535 0.0
C1203 C 0.15214 0.49789 0.49074 0.0
C1204 C 0.08698 0.53066 0.49297 0.0
C1205 C 0.12366 0.45607 0.44348 0.0
C1206 C 0.08607 0.51238 0.42659 0.0
H1207 H 0.11649 0.54437 0.52081 0.0
H1208 H 0.15234 0.52662 0.51952 0.0
H1209 H 0.17687 0.46441 0.48634 0.0
H1210 H 0.15994 0.44083 0.46152 0.0
H1211 H 0.10538 0.45414 0.40594 0.0
H1212 H 0.08666 0.4859 0.39578 0.0
H1213 H 0.05324 0.53764 0.4348 0.0
H1214 H 0.05042 0.54402 0.47101 0.0
H1215 H 0.14575 0.563 0.44489 0.0
H1216 H 0.17289 0.51406 0.41885 0.0
H1217 H 0.04498 0.46681 0.4654 0.0
H1218 H 0.08309 0.4575 0.51415 0.0
C1219 C 0.40576 0.50768 1.00111 0.0
C1220 C 0.39437 0.50549 0.01754 0.0
C1221 C 0.37572 0.51396 0.01441 0.0
C1222 C 0.37674 0.52106 0.99642 0.0
N1223 N 0.3949 0.51758 0.98811 0.0
Co1224 Co 0.40333 0.52651 0.96283 0.0
N1225 N 0.38229 0.54662 0.96286 0.0
C1226 C 0.36524 0.54693 0.97352 0.0
C1227 C 0.35351 0.56277 0.97044 0.0
C1228 C 0.36387 0.57295 0.95699 0.0
C1229 C 0.38141 0.56273 0.95265 0.0
N1230 N 0.41167 0.53564 0.93761 0.0
C1231 C 0.40855 0.55279 0.92952 0.0
C1232 C 0.41748 0.55346 0.9118 0.0
C1233 C 0.42643 0.53605 0.90883 0.0
C1234 C 0.42248 0.5257 0.92487 0.0
N1235 N 0.4243 0.50638 0.96302 0.0
C1236 C 0.43375 0.49929 0.94772 0.0
C1237 C 0.44816 0.48588 0.95246 0.0
C1238 C 0.4476 0.48459 0.97188 0.0
C1239 C 0.43291 0.49736 0.97797 0.0
N1240 N 0.38347 0.50879 0.95067 0.0
C1241 C 0.35906 0.48221 0.93039 0.0
C1242 C 0.37108 0.47681 0.946 0.0
C1243 C 0.38285 0.4902 0.95599 0.0
C1244 C 0.35897 0.50151 0.92574 0.0
C1245 C 0.37131 0.51445 0.93588 0.0
N1246 N 0.42353 0.54382 0.9744 0.0
C1247 C 0.45843 0.55535 0.97562 0.0
C1248 C 0.4535 0.5678 0.9902 0.0
C1249 C 0.43316 0.56809 0.99676 0.0
C1250 C 0.41845 0.5558 0.98884 0.0
C1251 C 0.44329 0.54376 0.96779 0.0
H1252 H 0.40298 0.55605 0.99428 0.0
H1253 H 0.44769 0.53477 0.95624 0.0
H1254 H 0.39198 0.48534 0.96774 0.0
H1255 H 0.37146 0.52899 0.93134 0.0
C1256 C 0.36315 0.53434 0.98866 0.0
C1257 C 0.42645 0.49986 0.99782 0.0
C1258 C 0.39634 0.56809 0.93813 0.0
C1259 C 0.4319 0.50854 0.93014 0.0
H1260 H 0.39895 0.49886 0.03059 0.0
H1261 H 0.36342 0.51574 0.02451 0.0
H1262 H 0.33963 0.5669 0.97775 0.0
H1263 H 0.35912 0.58635 0.95109 0.0
H1264 H 0.41758 0.56527 0.90212 0.0
H1265 H 0.43557 0.53182 0.89681 0.0
H1266 H 0.45863 0.47865 0.94306 0.0
H1267 H 0.45695 0.47542 0.98055 0.0
H1268 H 0.37159 0.46218 0.95039 0.0
H1269 H 0.35009 0.50649 0.91382 0.0
H1270 H 0.47385 0.55492 0.96993 0.0
H1271 H 0.42868 0.57768 1.00792 0.0
C1272 C 0.72571 0.79684 0.89219 0.0
C1273 C 0.74572 0.79761 0.89901 0.0
C1274 C 0.74537 0.80877 0.9148 0.0
C1275 C 0.72539 0.81452 0.91666 0.0
N1276 N 0.71315 0.80767 0.90297 0.0
Co1277 Co 0.68374 0.81398 0.89945 0.0
N1278 N 0.68627 0.83729 0.91476 0.0
C1279 C 0.70132 0.84094 0.92725 0.0
C1280 C 0.69901 0.85801 0.93614 0.0
C1281 C 0.6813 0.86552 0.9289 0.0
C1282 C 0.67376 0.85255 0.9159 0.0
N1283 N 0.65427 0.82027 0.89626 0.0
C1284 C 0.64417 0.83684 0.89916 0.0
C1285 C 0.62339 0.83469 0.89548 0.0
C1286 C 0.6205 0.81612 0.89037 0.0
C1287 C 0.63961 0.80791 0.89116 0.0
N1288 N 0.68163 0.79084 0.88397 0.0
C1289 C 0.66417 0.78162 0.87992 0.0
C1290 C 0.66751 0.76636 0.86827 0.0
C1291 C 0.68834 0.76611 0.86489 0.0
C1292 C 0.69661 0.7813 0.87461 0.0
N1293 N 0.67646 0.79925 0.92232 0.0
C1294 C 0.65854 0.77539 0.94985 0.0
C1295 C 0.67478 0.76906 0.93841 0.0
C1296 C 0.68347 0.78116 0.92476 0.0
C1297 C 0.65266 0.79437 0.94807 0.0
C1298 C 0.6619 0.80603 0.9345 0.0
N1299 N 0.69011 0.82811 0.87627 0.0
C1300 C 0.6811 0.83456 0.8439 0.0
C1301 C 0.6988 0.8453 0.84144 0.0
C1302 C 0.71216 0.84747 0.85687 0.0
C1303 C 0.70735 0.83897 0.87433 0.0
C1304 C 0.6772 0.82598 0.86117 0.0
H1305 H 0.71767 0.84088 0.8861 0.0
H1306 H 0.66382 0.81719 0.86203 0.0
H1307 H 0.69516 0.77554 0.91553 0.0
H1308 H 0.65636 0.82032 0.93323 0.0
C1309 C 0.71883 0.82955 0.92794 0.0
C1310 C 0.71881 0.78555 0.87586 0.0
C1311 C 0.65368 0.85432 0.90653 0.0
C1312 C 0.64505 0.78994 0.88414 0.0
H1313 H 0.75939 0.79135 0.89314 0.0
H1314 H 0.75845 0.81326 0.92309 0.0
H1315 H 0.70928 0.8645 0.94625 0.0
H1316 H 0.67456 0.87887 0.933 0.0
H1317 H 0.61157 0.84537 0.89646 0.0
H1318 H 0.60628 0.80961 0.88592 0.0
H1319 H 0.65611 0.75707 0.86221 0.0
H1320 H 0.69651 0.75597 0.85628 0.0
H1321 H 0.68001 0.75458 0.93927 0.0
H1322 H 0.64056 0.80013 0.95682 0.0
H1323 H 0.67055 0.83226 0.83229 0.0
H1324 H 0.72608 0.85568 0.85548 0.0
C1325 C 0.53732 0.40211 0.1433 0.0
C1326 C 0.55211 0.38924 0.13747 0.0
C1327 C 0.54983 0.38711 0.11845 0.0
C1328 C 0.53408 0.39896 0.11359 0.0
N1329 N 0.52629 0.40872 0.12827 0.0
Co1330 Co 0.50368 0.4279 0.12656 0.0
N1331 N 0.50489 0.42864 0.09831 0.0
C1332 C 0.51505 0.4163 0.08727 0.0
C1333 C 0.51352 0.42018 0.06838 0.0
C1334 C 0.50143 0.43589 0.06729 0.0
C1335 C 0.49624 0.44077 0.08568 0.0
N1336 N 0.48098 0.4468 0.12486 0.0
C1337 C 0.47369 0.45689 0.10989 0.0
C1338 C 0.45702 0.46786 0.1152 0.0
C1339 C 0.4535 0.46427 0.13392 0.0
C1340 C 0.46821 0.45139 0.13907 0.0
N1341 N 0.50286 0.42706 0.15488 0.0
C1342 C 0.48744 0.43392 0.16553 0.0
C1343 C 0.49011 0.43073 0.18448 0.0
C1344 C 0.50822 0.42101 0.18595 0.0
C1345 C 0.51573 0.4188 0.16776 0.0
N1346 N 0.52343 0.44893 0.12758 0.0
C1347 C 0.54218 0.48416 0.12145 0.0
C1348 C 0.52782 0.48173 0.13588 0.0
C1349 C 0.51891 0.46407 0.13887 0.0
C1350 C 0.5485 0.46808 0.11137 0.0
C1351 C 0.53896 0.45057 0.11469 0.0
N1352 N 0.48267 0.40779 0.12544 0.0
C1353 C 0.46176 0.38579 0.14292 0.0
C1354 C 0.44469 0.38973 0.13135 0.0
C1355 C 0.44805 0.40092 0.11538 0.0
C1356 C 0.46704 0.40955 0.1126 0.0
C1357 C 0.48067 0.39476 0.13957 0.0
H1358 H 0.46812 0.41914 0.10096 0.0
H1359 H 0.49311 0.39222 0.14928 0.0
H1360 H 0.5072 0.46316 0.14947 0.0
H1361 H 0.54324 0.43872 0.106 0.0
C1362 C 0.5279 0.40279 0.09519 0.0
C1363 C 0.53373 0.40685 0.16332 0.0
C1364 C 0.48083 0.45526 0.09018 0.0
C1365 C 0.47171 0.44462 0.15735 0.0
H1366 H 0.56346 0.38207 0.14599 0.0
H1367 H 0.55899 0.37837 0.10917 0.0
H1368 H 0.52066 0.4127 0.0568 0.0
H1369 H 0.49659 0.44268 0.05436 0.0
H1370 H 0.44809 0.47722 0.10634 0.0
H1371 H 0.44177 0.47049 0.14276 0.0
H1372 H 0.48012 0.43503 0.1959 0.0
H1373 H 0.51481 0.41564 0.1989 0.0
H1374 H 0.52293 0.4936 0.14443 0.0
H1375 H 0.55984 0.46922 0.10027 0.0
H1376 H 0.4603 0.3766 0.15505 0.0
H1377 H 0.43566 0.40444 0.10583 0.0
C1378 C 0.7936 0.23253 0.39 0.0
C1379 C 0.7741 0.23498 0.39749 0.0
C1380 C 0.77329 0.22439 0.41369 0.0
C1381 C 0.7923 0.21616 0.41526 0.0
N1382 N 0.80495 0.22096 0.40107 0.0
Co1383 Co 0.83371 0.21254 0.39818 0.0
N1384 N 0.82907 0.19027 0.41445 0.0
C1385 C 0.81381 0.18837 0.42708 0.0
C1386 C 0.81466 0.17153 0.43665 0.0
C1387 C 0.8316 0.16237 0.42966 0.0
C1388 C 0.84015 0.17417 0.41616 0.0
N1389 N 0.86259 0.20403 0.39563 0.0
C1390 C 0.87102 0.18678 0.39897 0.0
C1391 C 0.89192 0.18709 0.39537 0.0
C1392 C 0.89659 0.2052 0.38973 0.0
C1393 C 0.87834 0.21498 0.39019 0.0
N1394 N 0.83792 0.2348 0.38177 0.0
C1395 C 0.85619 0.24237 0.37735 0.0
C1396 C 0.85432 0.25695 0.36467 0.0
C1397 C 0.83361 0.25857 0.36102 0.0
C1398 C 0.82384 0.24494 0.37181 0.0
N1399 N 0.84188 0.22773 0.42048 0.0
C1400 C 0.86024 0.25148 0.44786 0.0
C1401 C 0.8447 0.25821 0.43586 0.0
C1402 C 0.83581 0.24618 0.42226 0.0
C1403 C 0.86532 0.23226 0.44659 0.0
C1404 C 0.85584 0.22065 0.43309 0.0
N1405 N 0.8264 0.19789 0.37557 0.0
C1406 C 0.83502 0.1895 0.34358 0.0
C1407 C 0.81636 0.18021 0.34132 0.0
C1408 C 0.80274 0.17964 0.35667 0.0
C1409 C 0.80823 0.18835 0.37385 0.0
C1410 C 0.8396 0.19837 0.36056 0.0
H1411 H 0.79767 0.18774 0.38558 0.0
H1412 H 0.85375 0.20609 0.36123 0.0
H1413 H 0.82469 0.25207 0.41262 0.0
H1414 H 0.86061 0.2061 0.4323 0.0
C1415 C 0.79742 0.20121 0.42734 0.0
C1416 C 0.80129 0.24223 0.37309 0.0
C1417 C 0.85967 0.17041 0.40649 0.0
C1418 C 0.87451 0.23288 0.38221 0.0
H1419 H 0.76175 0.24351 0.39185 0.0
H1420 H 0.7601 0.22225 0.42271 0.0
H1421 H 0.80393 0.16627 0.44703 0.0
H1422 H 0.83718 0.1487 0.43418 0.0
H1423 H 0.90262 0.17548 0.39668 0.0
H1424 H 0.91136 0.21034 0.38504 0.0
H1425 H 0.86658 0.26477 0.35799 0.0
H1426 H 0.82667 0.26846 0.35131 0.0
H1427 H 0.84016 0.27291 0.4363 0.0
H1428 H 0.87692 0.22626 0.45576 0.0
H1429 H 0.84582 0.19046 0.33199 0.0
H1430 H 0.78808 0.17257 0.35539 0.0
C1431 C 0.98189 0.62627 0.64345 0.0
C1432 C 0.97234 0.64303 0.63826 0.0
C1433 C 0.97507 0.64502 0.6193 0.0
C1434 C 0.98633 0.62961 0.6139 0.0
N1435 N 0.99111 0.6179 0.62826 0.0
Co1436 Co 1.00797 0.59424 0.62596 0.0
N1437 N 0.01644 0.60018 0.59942 0.0
C1438 C 0.01033 0.61525 0.5893 0.0
C1439 C 0.02165 0.61809 0.57329 0.0
C1440 C 0.03547 0.6036 0.57293 0.0
C1441 C 0.03121 0.59218 0.58838 0.0
N1442 N 0.02376 0.57007 0.6233 0.0
C1443 C 0.03358 0.56243 0.60804 0.0
C1444 C 0.03694 0.54321 0.61081 0.0
C1445 C 0.02986 0.53887 0.62838 0.0
C1446 C 0.022 0.55538 0.63529 0.0
N1447 N 1.00049 0.5892 0.65303 0.0
C1448 C 1.00334 0.57269 0.66205 0.0
C1449 C 0.99639 0.57275 0.68031 0.0
C1450 C 0.98847 0.59042 0.68308 0.0
C1451 C 0.99101 0.60024 0.6663 0.0
N1452 N 0.98376 0.57977 0.61695 0.0
C1453 C 0.96527 0.54437 0.61186 0.0
C1454 C 0.96018 0.55568 0.62746 0.0
C1455 C 0.96919 0.57363 0.62946 0.0
C1456 C 0.9766 0.5527 0.59737 0.0
C1457 C 0.98523 0.57053 0.59998 0.0
N1458 N 0.03287 0.60743 0.63467 0.0
C1459 C 0.06663 0.60426 0.64827 0.0
C1460 C 0.07309 0.62099 0.63958 0.0
C1461 C 0.05838 0.63167 0.62983 0.0
C1462 C 0.03837 0.62469 0.62762 0.0
C1463 C 0.04653 0.59787 0.6458 0.0
H1464 H 0.02779 0.6329 0.61941 0.0
H1465 H 0.04245 0.58463 0.65216 0.0
H1466 H 0.96575 0.58159 0.64203 0.0
H1467 H 0.99484 0.57552 0.58879 0.0
C1468 C 0.99572 0.62767 0.59639 0.0
C1469 C 0.98184 0.61903 0.66297 0.0
C1470 C 0.03879 0.57257 0.59034 0.0
C1471 C 0.01254 0.55751 0.65282 0.0
H1472 H 0.96463 0.65313 0.64723 0.0
H1473 H 0.97038 0.65686 0.61065 0.0
H1474 H 0.02041 0.62962 0.56334 0.0
H1475 H 0.04696 0.60147 0.56213 0.0
H1476 H 0.04296 0.53295 0.60101 0.0
H1477 H 0.02976 0.52513 0.63505 0.0
H1478 H 0.99673 0.56123 0.69032 0.0
H1479 H 0.98089 0.59523 0.69579 0.0
H1480 H 0.95056 0.55026 0.63866 0.0
H1481 H 0.97983 0.54505 0.58445 0.0
H1482 H 0.07722 0.59585 0.65653 0.0
H1483 H 0.06253 0.64484 0.62311 0.0
C1484 C 0.7259 0.23187 0.63211 0.0
C1485 C 0.74585 0.23268 0.62533 0.0
C1486 C 0.74618 0.22235 0.60892 0.0
C1487 C 0.7265 0.21577 0.60664 0.0
N1488 N 0.71391 0.22137 0.62058 0.0
Co1489 Co 0.68455 0.2147 0.62313 0.0
N1490 N 0.68782 0.19231 0.60669 0.0
C1491 C 0.70317 0.18954 0.59428 0.0
C1492 C 0.70129 0.1729 0.58451 0.0
C1493 C 0.68361 0.16478 0.5911 0.0
C1494 C 0.67562 0.17697 0.60461 0.0
N1495 N 0.65515 0.208 0.62538 0.0
C1496 C 0.64546 0.19142 0.6216 0.0
C1497 C 0.62458 0.1931 0.62499 0.0
C1498 C 0.62123 0.21138 0.6309 0.0
C1499 C 0.64018 0.21991 0.63082 0.0
N1500 N 0.68173 0.237 0.63969 0.0
C1501 C 0.66409 0.24584 0.64391 0.0
C1502 C 0.66703 0.26028 0.65666 0.0
C1503 C 0.68778 0.26035 0.66059 0.0
C1504 C 0.69637 0.2459 0.65005 0.0
N1505 N 0.6778 0.23056 0.60087 0.0
C1506 C 0.66375 0.25558 0.57241 0.0
C1507 C 0.67933 0.26084 0.58507 0.0
C1508 C 0.686 0.24828 0.59918 0.0
C1509 C 0.65593 0.23718 0.57396 0.0
C1510 C 0.66333 0.22487 0.58802 0.0
N1511 N 0.69066 0.19956 0.64574 0.0
C1512 C 0.68279 0.1936 0.67845 0.0
C1513 C 0.7014 0.18414 0.68103 0.0
C1514 C 0.71415 0.18173 0.66516 0.0
C1515 C 0.70838 0.18937 0.64758 0.0
C1516 C 0.67778 0.20116 0.66091 0.0
H1517 H 0.71859 0.18771 0.6357 0.0
H1518 H 0.66386 0.20923 0.66003 0.0
H1519 H 0.69739 0.25316 0.6091 0.0
H1520 H 0.65685 0.21089 0.5888 0.0
C1521 C 0.7205 0.20126 0.59439 0.0
C1522 C 0.7185 0.24149 0.64914 0.0
C1523 C 0.65554 0.17443 0.61373 0.0
C1524 C 0.64517 0.23756 0.63889 0.0
H1525 H 0.75887 0.23975 0.63164 0.0
H1526 H 0.75946 0.21909 0.60035 0.0
H1527 H 0.71183 0.16706 0.57425 0.0
H1528 H 0.67718 0.15154 0.58628 0.0
H1529 H 0.61301 0.18228 0.62334 0.0
H1530 H 0.60681 0.21745 0.63543 0.0
H1531 H 0.65539 0.26904 0.66314 0.0
H1532 H 0.69565 0.26982 0.67015 0.0
H1533 H 0.68591 0.27487 0.58452 0.0
H1534 H 0.64416 0.23228 0.56435 0.0
H1535 H 0.67253 0.19616 0.6902 0.0
H1536 H 0.72864 0.17434 0.66639 0.0
C1537 C 0.98311 0.39621 0.88335 0.0
C1538 C 0.97227 0.38 0.88804 0.0
C1539 C 0.97404 0.37778 0.90706 0.0
C1540 C 0.98606 0.39249 0.91292 0.0
N1541 N 0.99228 0.40396 0.89887 0.0
Co1542 Co 0.01076 0.42649 0.90186 0.0
N1543 N 0.01654 0.42063 0.92917 0.0
C1544 C 1.00746 0.4069 0.93937 0.0
C1545 C 0.01342 0.40639 0.95786 0.0
C1546 C 0.02697 0.42088 0.95977 0.0
C1547 C 0.02871 0.42941 0.94215 0.0
N1548 N 0.02858 0.44929 0.90497 0.0
C1549 C 0.0393 0.45584 0.92016 0.0
C1550 C 0.04909 0.47271 0.91595 0.0
C1551 C 0.0437 0.47733 0.89789 0.0
C1552 C 0.03119 0.46297 0.89196 0.0
N1553 N 1.00565 0.43154 0.87423 0.0
C1554 C 0.01122 0.44734 0.86492 0.0
C1555 C 1.00521 0.44754 0.84637 0.0
C1556 C 0.99498 0.43092 0.84369 0.0
C1557 C 0.99535 0.42137 0.86079 0.0
N1558 N 0.98711 0.44299 0.90905 0.0
C1559 C 0.97479 0.4803 0.91628 0.0
C1560 C 0.97135 0.47206 0.89855 0.0
C1561 C 0.97684 0.45311 0.89549 0.0
C1562 C 0.98032 0.46823 0.93106 0.0
C1563 C 0.98582 0.44957 0.92724 0.0
N1564 N 0.0352 0.41138 0.89496 0.0
C1565 C 0.06898 0.41202 0.88105 0.0
C1566 C 0.07529 0.3967 0.89203 0.0
C1567 C 0.06045 0.38763 0.90314 0.0
C1568 C 0.04046 0.39514 0.90432 0.0
C1569 C 0.04907 0.41899 0.88264 0.0
H1570 H 0.0297 0.38828 0.91353 0.0
H1571 H 0.04554 0.4313 0.87456 0.0
H1572 H 0.97415 0.44739 0.88165 0.0
H1573 H 0.99034 0.44126 0.93915 0.0
C1574 C 0.99335 0.39477 0.93117 0.0
C1575 C 0.98395 0.40368 0.86399 0.0
C1576 C 0.03977 0.44723 0.93911 0.0
C1577 C 0.02251 0.46142 0.87399 0.0
H1578 H 0.96408 0.37054 0.87874 0.0
H1579 H 0.96782 0.36644 0.91553 0.0
H1580 H 1.00812 0.39691 0.9688 0.0
H1581 H 0.03387 0.42507 0.97298 0.0
H1582 H 0.05888 0.48102 0.92507 0.0
H1583 H 0.04842 0.48967 0.89001 0.0
H1584 H 1.00778 0.45856 0.83607 0.0
H1585 H 0.98752 0.42661 0.83074 0.0
H1586 H 0.96575 0.48037 0.88681 0.0
H1587 H 0.9814 0.47339 0.94542 0.0
H1588 H 0.07962 0.41908 0.87168 0.0
H1589 H 0.0645 0.37545 0.91159 0.0
C1590 C 0.79659 0.79124 0.13575 0.0
C1591 C 0.77697 0.78919 0.12838 0.0
C1592 C 0.77616 0.80004 0.11235 0.0
C1593 C 0.79529 0.80798 0.11076 0.0
N1594 N 0.80803 0.80277 0.12476 0.0
Co1595 Co 0.83698 0.8107 0.12759 0.0
N1596 N 0.8326 0.83328 0.11158 0.0
C1597 C 0.81705 0.83566 0.09928 0.0
C1598 C 0.81806 0.85252 0.0898 0.0
C1599 C 0.83543 0.8612 0.09642 0.0
C1600 C 0.84412 0.8491 0.10964 0.0
N1601 N 0.86605 0.81863 0.13005 0.0
C1602 C 0.87505 0.83553 0.12628 0.0
C1603 C 0.896 0.8346 0.12965 0.0
C1604 C 0.90015 0.81647 0.13548 0.0
C1605 C 0.88158 0.80729 0.13539 0.0
N1606 N 0.84089 0.78819 0.14376 0.0
C1607 C 0.85903 0.78025 0.14806 0.0
C1608 C 0.85698 0.76557 0.16061 0.0
C1609 C 0.83628 0.76428 0.16431 0.0
C1610 C 0.82672 0.77818 0.15367 0.0
N1611 N 0.84468 0.79561 0.10508 0.0
C1612 C 0.8625 0.77184 0.07743 0.0
C1613 C 0.84695 0.76522 0.08945 0.0
C1614 C 0.83834 0.77726 0.10318 0.0
C1615 C 0.86783 0.79098 0.0788 0.0
C1616 C 0.85861 0.80261 0.09242 0.0
N1617 N 0.83006 0.82524 0.15039 0.0
C1618 C 0.83886 0.83319 0.18248 0.0
C1619 C 0.82023 0.84255 0.18492 0.0
C1620 C 0.80657 0.84339 0.16959 0.0
C1621 C 0.81195 0.83488 0.15228 0.0
C1622 C 0.84333 0.82451 0.16536 0.0
H1623 H 0.80134 0.83573 0.1406 0.0
H1624 H 0.85743 0.8167 0.16453 0.0
H1625 H 0.82721 0.77144 0.11284 0.0
H1626 H 0.86356 0.81709 0.09326 0.0
C1627 C 0.80047 0.82309 0.09897 0.0
C1628 C 0.80425 0.78126 0.1525 0.0
C1629 C 0.86439 0.85214 0.11832 0.0
C1630 C 0.87746 0.78943 0.14324 0.0
H1631 H 0.76453 0.78081 0.13401 0.0
H1632 H 0.7629 0.80255 0.1035 0.0
H1633 H 0.80723 0.85805 0.07962 0.0
H1634 H 0.84125 0.8747 0.09172 0.0
H1635 H 0.90712 0.84581 0.12798 0.0
H1636 H 0.91485 0.8109 0.13992 0.0
H1637 H 0.86914 0.75748 0.16716 0.0
H1638 H 0.82921 0.75441 0.17394 0.0
H1639 H 0.84222 0.75058 0.08892 0.0
H1640 H 0.87946 0.79688 0.06962 0.0
H1641 H 0.8497 0.83203 0.19403 0.0
H1642 H 0.79196 0.85053 0.17098 0.0
C1643 C 0.5382 0.63056 0.38486 0.0
C1644 C 0.54927 0.64645 0.3902 0.0
C1645 C 0.54772 0.64783 0.40932 0.0
C1646 C 0.5356 0.63297 0.41459 0.0
N1647 N 0.52911 0.62223 0.40006 0.0
Co1648 Co 0.51025 0.59994 0.40207 0.0
N1649 N 0.50409 0.60518 0.42941 0.0
C1650 C 0.51412 0.61768 0.44039 0.0
C1651 C 0.50735 0.61822 0.45863 0.0
C1652 C 0.4922 0.60502 0.4595 0.0
C1653 C 0.49037 0.59718 0.44154 0.0
N1654 N 0.4916 0.57769 0.40408 0.0
C1655 C 0.47931 0.57172 0.41846 0.0
C1656 C 0.46899 0.55532 0.41348 0.0
C1657 C 0.47562 0.55042 0.39582 0.0
C1658 C 0.48936 0.56418 0.39083 0.0
N1659 N 0.51655 0.59516 0.37462 0.0
C1660 C 0.51197 0.57917 0.36521 0.0
C1661 C 0.51869 0.57916 0.34686 0.0
C1662 C 0.52845 0.59611 0.34451 0.0
C1663 C 0.52709 0.60561 0.36158 0.0
N1664 N 0.53319 0.58289 0.40943 0.0
C1665 C 0.55173 0.54709 0.4122 0.0
C1666 C 0.55712 0.55954 0.39759 0.0
C1667 C 0.54802 0.5776 0.39673 0.0
C1668 C 0.5397 0.55421 0.42684 0.0
C1669 C 0.53087 0.57203 0.42531 0.0
N1670 N 0.48621 0.61551 0.39484 0.0
C1671 C 0.45335 0.61426 0.37921 0.0
C1672 C 0.44469 0.62631 0.39265 0.0
C1673 C 0.45794 0.63498 0.40564 0.0
C1674 C 0.47879 0.62958 0.4063 0.0
C1675 C 0.47393 0.60911 0.38052 0.0
H1676 H 0.48837 0.63578 0.41703 0.0
H1677 H 0.47906 0.59856 0.37081 0.0
H1678 H 0.55181 0.58653 0.38494 0.0
H1679 H 0.52069 0.57581 0.43646 0.0
C1680 C 0.52855 0.62983 0.43277 0.0
C1681 C 0.53798 0.62348 0.36531 0.0
C1682 C 0.47818 0.58013 0.43754 0.0
C1683 C 0.49959 0.5654 0.37354 0.0
H1684 H 0.55773 0.65603 0.38123 0.0
H1685 H 0.55426 0.65865 0.41828 0.0
H1686 H 0.51281 0.62713 0.46999 0.0
H1687 H 0.48421 0.60123 0.47227 0.0
H1688 H 0.45814 0.54744 0.42192 0.0
H1689 H 0.47091 0.5383 0.38759 0.0
H1690 H 0.51659 0.56822 0.33637 0.0
H1691 H 0.53612 0.60076 0.3318 0.0
H1692 H 0.56719 0.55501 0.38632 0.0
H1693 H 0.53608 0.54561 0.43903 0.0
H1694 H 0.44389 0.60772 0.36846 0.0
H1695 H 0.45203 0.64479 0.41603 0.0
C1696 C 0.86307 0.75196 0.75758 0.0
C1697 C 0.87447 0.76833 0.75503 0.0
C1698 C 0.89288 0.76557 0.76403 0.0
C1699 C 0.8917 0.74784 0.77175 0.0
N1700 N 0.87366 0.73933 0.76819 0.0
Co1701 Co 0.86527 0.71415 0.77752 0.0
N1702 N 0.88613 0.71467 0.79783 0.0
C1703 C 0.90303 0.72554 0.79815 0.0
C1704 C 0.91473 0.72277 0.81405 0.0
C1705 C 0.90454 0.70928 0.8243 0.0
C1706 C 0.88714 0.70457 0.81403 0.0
N1707 N 0.857 0.68903 0.78703 0.0
C1708 C 0.86028 0.68108 0.80423 0.0
C1709 C 0.85158 0.66326 0.80505 0.0
C1710 C 0.84262 0.66007 0.7877 0.0
C1711 C 0.84634 0.67607 0.77723 0.0
N1712 N 0.84452 0.71384 0.75713 0.0
C1713 C 0.83521 0.69834 0.7503 0.0
C1714 C 0.8211 0.70267 0.7365 0.0
C1715 C 0.82173 0.72203 0.73463 0.0
C1716 C 0.83616 0.72851 0.74746 0.0
N1717 N 0.88537 0.70179 0.76019 0.0
C1718 C 0.90974 0.68096 0.73401 0.0
C1719 C 0.90972 0.6766 0.75338 0.0
C1720 C 0.89741 0.68703 0.76612 0.0
C1721 C 0.89793 0.69661 0.72835 0.0
C1722 C 0.88617 0.70686 0.74154 0.0
N1723 N 0.84474 0.72592 0.79442 0.0
C1724 C 0.80962 0.72715 0.80548 0.0
C1725 C 0.81425 0.74194 0.81779 0.0
C1726 C 0.83457 0.74858 0.81824 0.0
C1727 C 0.84953 0.74056 0.80625 0.0
C1728 C 0.82501 0.71922 0.79421 0.0
H1729 H 0.86496 0.74608 0.80662 0.0
H1730 H 0.82082 0.70751 0.78536 0.0
H1731 H 0.89716 0.68271 0.78073 0.0
H1732 H 0.87716 0.71859 0.73645 0.0
C1733 C 0.90513 0.74046 0.78534 0.0
C1734 C 0.84269 0.74839 0.7493 0.0
C1735 C 0.87255 0.68978 0.81943 0.0
C1736 C 0.83705 0.68098 0.75992 0.0
H1737 H 0.87005 0.78106 0.7477 0.0
H1738 H 0.90516 0.77572 0.76564 0.0
H1739 H 0.9285 0.73026 0.81814 0.0
H1740 H 0.90936 0.70356 0.83775 0.0
H1741 H 0.85172 0.65364 0.8169 0.0
H1742 H 0.8337 0.64787 0.78355 0.0
H1743 H 0.81085 0.69305 0.7293 0.0
H1744 H 0.81264 0.73042 0.72497 0.0
H1745 H 0.91846 0.66468 0.75857 0.0
H1746 H 0.89754 0.70082 0.71367 0.0
H1747 H 0.79425 0.72136 0.80493 0.0
H1748 H 0.83884 0.75991 0.82773 0.0
C1749 C 0.54151 0.64376 0.04408 0.0
C1750 C 0.52173 0.65111 0.04434 0.0
C1751 C 0.52231 0.66703 0.05531 0.0
C1752 C 0.54221 0.66843 0.06144 0.0
N1753 N 0.55417 0.65437 0.05497 0.0
Co1754 Co 0.58326 0.64999 0.06194 0.0
N1755 N 0.58069 0.66559 0.08507 0.0
C1756 C 0.56597 0.67855 0.08826 0.0
C1757 C 0.56823 0.68768 0.1052 0.0
C1758 C 0.58557 0.68015 0.1131 0.0
C1759 C 0.59297 0.66673 0.10049 0.0
N1760 N 0.61237 0.64572 0.06894 0.0
C1761 C 0.62224 0.64868 0.08563 0.0
C1762 C 0.6429 0.64422 0.08396 0.0
C1763 C 0.64598 0.63861 0.06557 0.0
C1764 C 0.62711 0.63987 0.05699 0.0
N1765 N 0.58542 0.63444 0.03884 0.0
C1766 C 0.60293 0.62982 0.02998 0.0
C1767 C 0.59952 0.61816 0.01475 0.0
C1768 C 0.5786 0.61535 0.01415 0.0
C1769 C 0.57036 0.6254 0.02913 0.0
N1770 N 0.59178 0.67256 0.0473 0.0
C1771 C 0.61033 0.70009 0.02384 0.0
C1772 C 0.59386 0.68904 0.01735 0.0
C1773 C 0.58487 0.67538 0.02923 0.0
C1774 C 0.61627 0.69782 0.04275 0.0
C1775 C 0.60673 0.68426 0.05422 0.0
N1776 N 0.5755 0.62711 0.07597 0.0
C1777 C 0.58055 0.59366 0.08044 0.0
C1778 C 0.56311 0.59238 0.09192 0.0
C1779 C 0.55233 0.60927 0.09567 0.0
C1780 C 0.55872 0.62643 0.08751 0.0
C1781 C 0.58655 0.61097 0.07292 0.0
H1782 H 0.54991 0.63906 0.09021 0.0
H1783 H 0.59987 0.61106 0.06399 0.0
H1784 H 0.57293 0.66649 0.02349 0.0
H1785 H 0.61219 0.6827 0.06849 0.0
C1786 C 0.54877 0.67965 0.07651 0.0
C1787 C 0.54819 0.62708 0.0332 0.0
C1788 C 0.61281 0.65704 0.10269 0.0
C1789 C 0.62194 0.63318 0.03884 0.0
H1790 H 0.50803 0.64552 0.03786 0.0
H1791 H 0.5094 0.67571 0.05946 0.0
H1792 H 0.55819 0.69821 0.11132 0.0
H1793 H 0.5922 0.68438 0.12646 0.0
H1794 H 0.65454 0.64514 0.09481 0.0
H1795 H 0.66019 0.63369 0.05939 0.0
H1796 H 0.61092 0.61161 1.00577 0.0
H1797 H 0.57036 0.60682 1.00399 0.0
H1798 H 0.58859 0.69026 1.0029 0.0
H1799 H 0.62858 0.70625 0.04863 0.0
H1800 H 0.58931 0.58127 0.07658 0.0
H1801 H 0.53896 0.6093 0.1047 0.0
C1802 C 0.65302 0.27262 0.25518 0.0
C1803 C 0.6414 0.25648 0.25214 0.0
C1804 C 0.62325 0.259 0.26163 0.0
C1805 C 0.62476 0.27645 0.26997 0.0
N1806 N 0.64276 0.285 0.26633 0.0
Co1807 Co 0.65129 0.31009 0.27585 0.0
N1808 N 0.63097 0.3092 0.29657 0.0
C1809 C 0.61412 0.29826 0.29703 0.0
C1810 C 0.60274 0.30082 0.31314 0.0
C1811 C 0.61307 0.31426 0.32338 0.0
C1812 C 0.63025 0.31914 0.31289 0.0
N1813 N 0.6597 0.33514 0.28559 0.0
C1814 C 0.65673 0.34291 0.30294 0.0
C1815 C 0.6654 0.36074 0.30383 0.0
C1816 C 0.674 0.36414 0.28639 0.0
C1817 C 0.67011 0.34824 0.2758 0.0
N1818 N 0.67149 0.31074 0.25504 0.0
C1819 C 0.68064 0.32635 0.24834 0.0
C1820 C 0.6942 0.32234 0.23401 0.0
C1821 C 0.69341 0.30304 0.23163 0.0
C1822 C 0.6794 0.29628 0.2447 0.0
N1823 N 0.63061 0.3226 0.25911 0.0
C1824 C 0.60318 0.34185 0.23411 0.0
C1825 C 0.60582 0.34765 0.25297 0.0
C1826 C 0.61934 0.33782 0.26518 0.0
C1827 C 0.61468 0.32603 0.22827 0.0
C1828 C 0.6282 0.31678 0.24078 0.0
N1829 N 0.67227 0.29806 0.29212 0.0
C1830 C 0.70756 0.29673 0.30278 0.0
C1831 C 0.70391 0.28017 0.31307 0.0
C1832 C 0.68371 0.273 0.31284 0.0
C1833 C 0.66818 0.28214 0.30237 0.0
C1834 C 0.69172 0.30536 0.29253 0.0
H1835 H 0.65293 0.27621 0.30237 0.0
H1836 H 0.69544 0.31783 0.28459 0.0
H1837 H 0.62076 0.3427 0.27956 0.0
H1838 H 0.63694 0.30497 0.23548 0.0
C1839 C 0.61167 0.28357 0.28396 0.0
C1840 C 0.67302 0.27633 0.24633 0.0
C1841 C 0.64479 0.33403 0.31822 0.0
C1842 C 0.67902 0.34356 0.25827 0.0
H1843 H 0.64557 0.24417 0.24394 0.0
H1844 H 0.61086 0.24893 0.26299 0.0
H1845 H 0.58905 0.29328 0.31734 0.0
H1846 H 0.60847 0.31987 0.33694 0.0
H1847 H 0.66549 0.37024 0.3158 0.0
H1848 H 0.68279 0.3764 0.28225 0.0
H1849 H 0.70421 0.33211 0.22675 0.0
H1850 H 0.70215 0.29488 0.22153 0.0
H1851 H 0.59725 0.35956 0.25842 0.0
H1852 H 0.61355 0.32092 0.21391 0.0
H1853 H 0.72278 0.30281 0.30213 0.0
H1854 H 0.67985 0.26041 0.32071 0.0
C1855 C 0.97535 0.38352 0.54348 0.0
C1856 C 0.99513 0.37633 0.54223 0.0
C1857 C 0.99537 0.35996 0.5526 0.0
C1858 C 0.97586 0.35812 0.55966 0.0
N1859 N 0.96342 0.37228 0.5543 0.0
Co1860 Co 0.93441 0.37561 0.56181 0.0
N1861 N 0.93808 0.35941 0.58431 0.0
C1862 C 0.95325 0.34673 0.58678 0.0
C1863 C 0.95163 0.33702 0.60346 0.0
C1864 C 0.93426 0.34391 0.61192 0.0
C1865 C 0.92621 0.35754 0.59989 0.0
N1866 N 0.90527 0.37858 0.56924 0.0
C1867 C 0.89592 0.37497 0.586 0.0
C1868 C 0.87509 0.37884 0.58478 0.0
C1869 C 0.87138 0.38475 0.56658 0.0
C1870 C 0.89009 0.38424 0.55764 0.0
N1871 N 0.93127 0.39198 0.53943 0.0
C1872 C 0.91349 0.39653 0.531 0.0
C1873 C 0.91631 0.40923 0.51652 0.0
C1874 C 0.93712 0.4128 0.516 0.0
C1875 C 0.94587 0.4021 0.53025 0.0
N1876 N 0.92649 0.3533 0.54652 0.0
C1877 C 0.90842 0.32603 0.52249 0.0
C1878 C 0.92425 0.33783 0.51605 0.0
C1879 C 0.93299 0.35139 0.52822 0.0
C1880 C 0.90291 0.3274 0.54158 0.0
C1881 C 0.91225 0.34084 0.55333 0.0
N1882 N 0.94151 0.3983 0.57649 0.0
C1883 C 0.93406 0.43109 0.58268 0.0
C1884 C 0.9529 0.4335 0.59177 0.0
C1885 C 0.96568 0.41757 0.59374 0.0
C1886 C 0.95957 0.40002 0.58619 0.0
C1887 C 0.92875 0.41361 0.57518 0.0
H1888 H 0.96974 0.38805 0.58756 0.0
H1889 H 0.91461 0.41288 0.56743 0.0
H1890 H 0.94436 0.36091 0.52257 0.0
H1891 H 0.90712 0.34171 0.56776 0.0
C1892 C 0.97011 0.34625 0.57452 0.0
C1893 C 0.96807 0.40078 0.5342 0.0
C1894 C 0.90619 0.36674 0.60272 0.0
C1895 C 0.89472 0.39201 0.5398 0.0
H1896 H 1.00813 0.38235 0.53495 0.0
H1897 H 1.00857 0.35119 0.55564 0.0
H1898 H 0.96206 0.3265 0.60902 0.0
H1899 H 0.92802 0.3391 0.62522 0.0
H1900 H 0.86374 0.37749 0.59583 0.0
H1901 H 0.85691 0.38953 0.56081 0.0
H1902 H 0.90458 0.41596 0.50805 0.0
H1903 H 0.94495 0.42223 0.5064 0.0
H1904 H 0.92912 0.33729 0.50145 0.0
H1905 H 0.89106 0.31838 0.54734 0.0
H1906 H 0.9238 0.4429 0.5804 0.0
H1907 H 0.98037 0.4187 0.60079 0.0
C1908 C 0.85698 0.27951 0.77334 0.0
C1909 C 0.86916 0.26513 0.78067 0.0
C1910 C 0.88803 0.26661 0.77223 0.0
C1911 C 0.88657 0.28204 0.76062 0.0
N1912 N 0.868 0.29031 0.76129 0.0
Co1913 Co 0.86139 0.31502 0.74996 0.0
N1914 N 0.88338 0.31234 0.73088 0.0
C1915 C 0.8997 0.3008 0.73231 0.0
C1916 C 0.9126 0.30203 0.71705 0.0
C1917 C 0.9039 0.3153 0.7054 0.0
C1918 C 0.88612 0.32149 0.71426 0.0
N1919 N 0.85544 0.34007 0.73881 0.0
C1920 C 0.86089 0.34733 0.72181 0.0
C1921 C 0.85361 0.36564 0.71991 0.0
C1922 C 0.84339 0.36988 0.73635 0.0
C1923 C 0.84499 0.354 0.74739 0.0
N1924 N 0.83907 0.31713 0.76884 0.0
C1925 C 0.82909 0.33317 0.77327 0.0
C1926 C 0.8116 0.32977 0.78344 0.0
C1927 C 0.8107 0.31053 0.78563 0.0
C1928 C 0.82822 0.303 0.77731 0.0
N1929 N 0.88097 0.32736 0.76775 0.0
C1930 C 0.90624 0.34733 0.79379 0.0
C1931 C 0.89215 0.33356 0.79982 0.0
C1932 C 0.8799 0.32373 0.78671 0.0
C1933 C 0.90778 0.35035 0.77423 0.0
C1934 C 0.89499 0.34041 0.76155 0.0
N1935 N 0.84142 0.30322 0.73251 0.0
C1936 C 0.80823 0.30485 0.71733 0.0
C1937 C 0.81118 0.28732 0.70876 0.0
C1938 C 0.82967 0.27772 0.71239 0.0
C1939 C 0.8447 0.28601 0.7242 0.0
C1940 C 0.82326 0.31239 0.72917 0.0
H1941 H 0.85892 0.27855 0.72662 0.0
H1942 H 0.81997 0.32574 0.73569 0.0
H1943 H 0.86922 0.31341 0.79205 0.0
H1944 H 0.89615 0.34366 0.74671 0.0
C1945 C 0.90095 0.28757 0.74699 0.0
C1946 C 0.8353 0.2829 0.77846 0.0
C1947 C 0.87365 0.33752 0.70769 0.0
C1948 C 0.83328 0.35002 0.76353 0.0
H1949 H 0.86493 0.25464 0.79104 0.0
H1950 H 0.90104 0.25728 0.77402 0.0
H1951 H 0.92646 0.29401 0.71449 0.0
H1952 H 0.91018 0.3202 0.69215 0.0
H1953 H 0.85535 0.37489 0.70787 0.0
H1954 H 0.83488 0.38264 0.73942 0.0
H1955 H 0.79984 0.33987 0.78726 0.0
H1956 H 0.79781 0.30326 0.79174 0.0
H1957 H 0.89046 0.33042 0.81469 0.0
H1958 H 0.91826 0.36085 0.76876 0.0
H1959 H 0.79422 0.31275 0.71496 0.0
H1960 H 0.83265 0.26416 0.70588 0.0
C1961 C 0.97532 0.63817 0.98312 0.0
C1962 C 0.99506 0.64518 0.98538 0.0
C1963 C 0.99616 0.66141 0.97484 0.0
C1964 C 0.97709 0.66346 0.96682 0.0
N1965 N 0.96414 0.64954 0.97171 0.0
Co1966 Co 0.93528 0.64716 0.96342 0.0
N1967 N 0.94015 0.66333 0.94114 0.0
C1968 C 0.95565 0.6757 0.93916 0.0
C1969 C 0.95492 0.68522 0.92229 0.0
C1970 C 0.93784 0.67846 0.91318 0.0
C1971 C 0.92908 0.66512 0.92505 0.0
N1972 N 0.90633 0.6451 0.95503 0.0
C1973 C 0.89794 0.64844 0.93777 0.0
C1974 C 0.87698 0.64518 0.93814 0.0
C1975 C 0.87224 0.63973 0.9563 0.0
C1976 C 0.89051 0.63997 0.96605 0.0
N1977 N 0.93084 0.63086 0.9857 0.0
C1978 C 0.91252 0.62686 0.99342 0.0
C1979 C 0.91424 0.61429 1.00813 0.0
C1980 C 0.93489 0.61026 1.00965 0.0
C1981 C 0.94475 0.62068 0.99581 0.0
N1982 N 0.92764 0.66961 0.97863 0.0
C1983 C 0.9098 0.69718 1.00247 0.0
C1984 C 0.92521 0.685 1.00912 0.0
C1985 C 0.93384 0.67131 0.99705 0.0
C1986 C 0.90461 0.69601 0.98327 0.0
C1987 C 0.91385 0.68241 0.97161 0.0
N1988 N 0.94205 0.62444 0.94876 0.0
C1989 C 0.93271 0.59262 0.94041 0.0
C1990 C 0.95127 0.59003 0.93101 0.0
C1991 C 0.96521 0.60514 0.9304 0.0
C1992 C 0.96013 0.62242 0.93913 0.0
C1993 C 0.92855 0.60967 0.94931 0.0
H1994 H 0.97092 0.63396 0.93846 0.0
H1995 H 0.91448 0.61058 0.95713 0.0
H1996 H 0.94485 0.66151 1.00287 0.0
H1997 H 0.909 0.68169 0.95708 0.0
C1998 C 0.97214 0.67565 0.9519 0.0
C1999 C 0.96727 0.62141 0.99284 0.0
C2000 C 0.90943 0.65565 0.92134 0.0
C2001 C 0.89426 0.632 0.98399 0.0
H2002 H 1.00736 0.63918 0.99372 0.0
H2003 H 0.00958 0.67011 0.97257 0.0
H2004 H 0.96586 0.69538 0.91695 0.0
H2005 H 0.93232 0.68298 0.8995 0.0
H2006 H 0.86628 0.64656 0.92654 0.0
H2007 H 0.8574 0.6353 0.96149 0.0
H2008 H 0.9019 0.60795 0.01613 0.0
H2009 H 0.94176 0.6006 0.01963 0.0
H2010 H 0.92982 0.68538 0.0238 0.0
H2011 H 0.89308 0.7053 0.97735 0.0
H2012 H 0.92169 0.58123 0.94148 0.0
H2013 H 0.97981 0.60361 0.92327 0.0
C2014 C 0.65418 0.75223 0.26896 0.0
C2015 C 0.6425 0.7684 0.27174 0.0
C2016 C 0.6247 0.76599 0.26168 0.0
C2017 C 0.62648 0.74857 0.25332 0.0
N2018 N 0.64428 0.73991 0.2575 0.0
Co2019 Co 0.65307 0.71481 0.24815 0.0
N2020 N 0.63353 0.71585 0.22669 0.0
C2021 C 0.617 0.7272 0.22557 0.0
C2022 C 0.60602 0.72472 0.20923 0.0
C2023 C 0.61617 0.71083 0.19952 0.0
C2024 C 0.63288 0.70556 0.21053 0.0
N2025 N 0.6616 0.68959 0.23884 0.0
C2026 C 0.65831 0.68117 0.22185 0.0
C2027 C 0.66669 0.66316 0.22163 0.0
C2028 C 0.67526 0.66024 0.23913 0.0
C2029 C 0.6717 0.67657 0.24909 0.0
N2030 N 0.67272 0.71418 0.26951 0.0
C2031 C 0.68173 0.69862 0.2765 0.0
C2032 C 0.69496 0.70267 0.29109 0.0
C2033 C 0.69412 0.72197 0.29334 0.0
C2034 C 0.68041 0.72867 0.27994 0.0
N2035 N 0.63184 0.70237 0.26419 0.0
C2036 C 0.60403 0.68212 0.28763 0.0
C2037 C 0.61684 0.69628 0.29501 0.0
C2038 C 0.63029 0.70639 0.28309 0.0
C2039 C 0.60529 0.67865 0.26814 0.0
C2040 C 0.61934 0.68865 0.25682 0.0
N2041 N 0.67454 0.72672 0.23249 0.0
C2042 C 0.71 0.72771 0.22242 0.0
C2043 C 0.70665 0.74437 0.21218 0.0
C2044 C 0.68658 0.75178 0.21215 0.0
C2045 C 0.6708 0.74275 0.22229 0.0
C2046 C 0.69391 0.7192 0.23237 0.0
H2047 H 0.65562 0.74885 0.22207 0.0
H2048 H 0.69734 0.70664 0.24031 0.0
H2049 H 0.63966 0.71731 0.28929 0.0
H2050 H 0.62026 0.68498 0.24208 0.0
C2051 C 0.61408 0.74175 0.2387 0.0
C2052 C 0.67402 0.74859 0.27813 0.0
C2053 C 0.64627 0.68939 0.20619 0.0
C2054 C 0.68025 0.68138 0.26671 0.0
H2055 H 0.64646 0.78069 0.28004 0.0
H2056 H 0.61245 0.77615 0.25989 0.0
H2057 H 0.59255 0.73242 0.20466 0.0
H2058 H 0.61155 0.70499 0.18605 0.0
H2059 H 0.66656 0.65317 0.21008 0.0
H2060 H 0.68368 0.64792 0.24379 0.0
H2061 H 0.70477 0.69292 0.29863 0.0
H2062 H 0.70261 0.73018 0.30359 0.0
H2063 H 0.61627 0.69972 0.30989 0.0
H2064 H 0.59576 0.6679 0.26171 0.0
H2065 H 0.72514 0.72147 0.22323 0.0
H2066 H 0.683 0.76447 0.2043 0.0
C2067 C 0.54276 0.38811 0.48072 0.0
C2068 C 0.52294 0.38124 0.48273 0.0
C2069 C 0.5219 0.36488 0.47237 0.0
C2070 C 0.54109 0.36262 0.46469 0.0
N2071 N 0.55406 0.37654 0.46961 0.0
Co2072 Co 0.58309 0.37865 0.46177 0.0
N2073 N 0.57851 0.36209 0.43968 0.0
C2074 C 0.56301 0.34972 0.43768 0.0
C2075 C 0.56397 0.33989 0.42098 0.0
C2076 C 0.58121 0.34646 0.41202 0.0
C2077 C 0.58981 0.35998 0.42379 0.0
N2078 N 0.61213 0.38055 0.45372 0.0
C2079 C 0.62072 0.37698 0.4366 0.0
C2080 C 0.64167 0.38026 0.43714 0.0
C2081 C 0.6462 0.38599 0.45527 0.0
C2082 C 0.62782 0.38589 0.46483 0.0
N2083 N 0.58728 0.39522 0.48392 0.0
C2084 C 0.60551 0.39926 0.49184 0.0
C2085 C 0.60363 0.41195 0.50644 0.0
C2086 C 0.58298 0.41601 0.50769 0.0
C2087 C 0.57327 0.40549 0.49379 0.0
N2088 N 0.59027 0.35639 0.47747 0.0
C2089 C 0.60463 0.32761 0.50199 0.0
C2090 C 0.58947 0.3405 0.50773 0.0
C2091 C 0.58266 0.35475 0.49541 0.0
C2092 C 0.61193 0.32916 0.48341 0.0
C2093 C 0.60438 0.34338 0.47136 0.0
N2094 N 0.57657 0.40121 0.44674 0.0
C2095 C 0.58442 0.43379 0.44006 0.0
C2096 C 0.5657 0.43621 0.43071 0.0
C2097 C 0.5529 0.4203 0.42877 0.0
C2098 C 0.5587 0.40289 0.43675 0.0
C2099 C 0.5895 0.41638 0.44789 0.0
H2100 H 0.54844 0.39099 0.43546 0.0
H2101 H 0.60359 0.41557 0.45574 0.0
H2102 H 0.5716 0.36481 0.50065 0.0
H2103 H 0.61041 0.34413 0.4572 0.0
C2104 C 0.54627 0.3501 0.45011 0.0
C2105 C 0.5508 0.40484 0.49053 0.0
C2106 C 0.60943 0.36947 0.42015 0.0
C2107 C 0.62388 0.39404 0.48265 0.0
H2108 H 0.51055 0.38738 0.49084 0.0
H2109 H 0.50849 0.3562 0.47002 0.0
H2110 H 0.55307 0.32968 0.41563 0.0
H2111 H 0.58689 0.34173 0.39846 0.0
H2112 H 0.65248 0.37866 0.42566 0.0
H2113 H 0.66099 0.39049 0.46057 0.0
H2114 H 0.61589 0.41834 0.51454 0.0
H2115 H 0.576 0.42577 0.51752 0.0
H2116 H 0.58331 0.33997 0.52191 0.0
H2117 H 0.62337 0.31939 0.47816 0.0
H2118 H 0.59474 0.44556 0.44229 0.0
H2119 H 0.53835 0.42136 0.42147 0.0
C2120 C 0.73393 0.89334 0.64781 0.0
C2121 C 0.72302 0.88843 0.63168 0.0
C2122 C 0.72422 0.8693 0.62999 0.0
C2123 C 0.73605 0.86353 0.64488 0.0
N2124 N 0.74265 0.87779 0.65596 0.0
Co2125 Co 0.76123 0.87499 0.67842 0.0
N2126 N 0.76746 0.84788 0.67239 0.0
C2127 C 0.75815 0.83737 0.65903 0.0
C2128 C 0.76535 0.81923 0.65793 0.0
C2129 C 0.78003 0.81799 0.67161 0.0
C2130 C 0.78096 0.83554 0.68033 0.0
N2131 N 0.77906 0.87202 0.70124 0.0
C2132 C 0.79037 0.85707 0.70746 0.0
C2133 C 0.79892 0.86073 0.72501 0.0
C2134 C 0.79252 0.8784 0.73016 0.0
C2135 C 0.7805 0.88457 0.71549 0.0
N2136 N 0.75577 0.90249 0.68355 0.0
C2137 C 0.76076 0.91167 0.6996 0.0
C2138 C 0.75473 0.93022 0.69972 0.0
C2139 C 0.7452 0.93303 0.68273 0.0
C2140 C 0.74594 0.91599 0.67306 0.0
N2141 N 0.73781 0.86739 0.69495 0.0
C2142 C 0.7249 0.8608 0.73221 0.0
C2143 C 0.72067 0.87807 0.72332 0.0
C2144 C 0.72658 0.88081 0.7044 0.0
C2145 C 0.73172 0.84597 0.72082 0.0
C2146 C 0.73758 0.84943 0.70221 0.0
N2147 N 0.78545 0.8822 0.66337 0.0
C2148 C 0.81955 0.89531 0.66442 0.0
C2149 C 0.82543 0.88474 0.64866 0.0
C2150 C 0.81027 0.8743 0.63923 0.0
C2151 C 0.79032 0.87327 0.64679 0.0
C2152 C 0.79961 0.89399 0.67138 0.0
H2153 H 0.77929 0.8644 0.63979 0.0
H2154 H 0.79623 0.90166 0.68403 0.0
H2155 H 0.72352 0.89438 0.69819 0.0
H2156 H 0.74343 0.83751 0.69464 0.0
C2157 C 0.74348 0.84528 0.64721 0.0
C2158 C 0.73527 0.91289 0.65488 0.0
C2159 C 0.79285 0.83898 0.69755 0.0
C2160 C 0.77156 0.90246 0.71398 0.0
H2161 H 0.71522 0.89763 0.62185 0.0
H2162 H 0.71795 0.8607 0.61875 0.0
H2163 H 0.76045 0.8082 0.64836 0.0
H2164 H 0.78856 0.80538 0.6752 0.0
H2165 H 0.8086 0.85149 0.73331 0.0
H2166 H 0.79633 0.88592 0.74299 0.0
H2167 H 0.75689 0.94047 0.71088 0.0
H2168 H 0.73795 0.94602 0.67824 0.0
H2169 H 0.71417 0.88975 0.73116 0.0
H2170 H 0.73366 0.83189 0.72652 0.0
H2171 H 0.83055 0.90409 0.6718 0.0
H2172 H 0.81404 0.86618 0.62675 0.0
C2173 C 0.23102 0.6381 0.38329 0.0
C2174 C 0.22038 0.64319 0.39949 0.0
C2175 C 0.22325 0.66207 0.40189 0.0
C2176 C 0.2356 0.66742 0.38723 0.0
N2177 N 0.24105 0.65317 0.37563 0.0
Co2178 Co 0.25943 0.65536 0.35295 0.0
N2179 N 0.26518 0.6829 0.3579 0.0
C2180 C 0.25674 0.6934 0.3718 0.0
C2181 C 0.26211 0.71203 0.37135 0.0
C2182 C 0.27462 0.7137 0.35609 0.0
C2183 C 0.27648 0.69579 0.34814 0.0
N2184 N 0.27723 0.65766 0.33004 0.0
C2185 C 0.28747 0.67276 0.32272 0.0
C2186 C 0.29767 0.66784 0.30623 0.0
C2187 C 0.29305 0.64938 0.30264 0.0
C2188 C 0.28056 0.64393 0.31719 0.0
N2189 N 0.25425 0.62752 0.34879 0.0
C2190 C 0.26069 0.61741 0.33375 0.0
C2191 C 0.25442 0.59894 0.33401 0.0
C2192 C 0.24304 0.59715 0.35011 0.0
C2193 C 0.24299 0.61468 0.35884 0.0
N2194 N 0.23564 0.6621 0.33626 0.0
C2195 C 0.22174 0.67195 0.29992 0.0
C2196 C 0.22067 0.65324 0.30623 0.0
C2197 C 0.227 0.64874 0.32464 0.0
C2198 C 0.22597 0.68584 0.31342 0.0
C2199 C 0.23221 0.68064 0.33159 0.0
N2200 N 0.28405 0.64895 0.36831 0.0
C2201 C 0.31753 0.63418 0.36879 0.0
C2202 C 0.32408 0.64587 0.38349 0.0
C2203 C 0.30962 0.65822 0.39143 0.0
C2204 C 0.28962 0.65925 0.3839 0.0
C2205 C 0.29772 0.63592 0.36152 0.0
H2206 H 0.27913 0.66897 0.39034 0.0
H2207 H 0.29419 0.62724 0.34967 0.0
H2208 H 0.22586 0.63421 0.3287 0.0
H2209 H 0.23529 0.69198 0.34117 0.0
C2210 C 0.24308 0.68552 0.38454 0.0
C2211 C 0.23053 0.61881 0.37567 0.0
C2212 C 0.28738 0.69214 0.33036 0.0
C2213 C 0.27229 0.62589 0.31953 0.0
H2214 H 0.21142 0.6342 0.40866 0.0
H2215 H 0.21723 0.67083 0.41313 0.0
H2216 H 0.25694 0.72322 0.38062 0.0
H2217 H 0.28077 0.72692 0.35109 0.0
H2218 H 0.30727 0.67673 0.29752 0.0
H2219 H 0.29821 0.64093 0.29083 0.0
H2220 H 0.25742 0.58814 0.32355 0.0
H2221 H 0.23512 0.5845 0.35459 0.0
H2222 H 0.21624 0.64195 0.29677 0.0
H2223 H 0.22532 0.70068 0.30978 0.0
H2224 H 0.32801 0.62438 0.36209 0.0
H2225 H 0.31379 0.66725 0.40316 0.0
C2226 C 0.61687 1.0066 0.52262 0.0
C2227 C 0.62872 1.00374 0.50658 0.0
C2228 C 0.64668 0.01343 0.50931 0.0
C2229 C 0.64481 0.0217 0.52675 0.0
N2230 N 0.62677 0.01785 0.53512 0.0
Co2231 Co 0.61789 0.02714 0.56021 0.0
N2232 N 0.63811 0.04801 0.55969 0.0
C2233 C 0.65493 0.04875 0.54873 0.0
C2234 C 0.66627 0.06483 0.5515 0.0
C2235 C 0.65598 0.07478 0.56514 0.0
C2236 C 0.63885 0.06417 0.56994 0.0
N2237 N 0.60928 0.03649 0.58536 0.0
C2238 C 0.6126 0.05351 0.59371 0.0
C2239 C 0.60391 0.05393 0.61157 0.0
C2240 C 0.59506 0.03653 0.61444 0.0
C2241 C 0.59877 0.02643 0.59821 0.0
N2242 N 0.59763 1.00629 0.56042 0.0
C2243 C 0.58827 0.99943 0.57585 0.0
C2244 C 0.57487 0.98504 0.57159 0.0
C2245 C 0.57602 0.98276 0.55231 0.0
C2246 C 0.59006 0.99594 0.54583 0.0
N2247 N 0.6384 1.01027 0.57272 0.0
C2248 C 0.66308 0.98459 0.59387 0.0
C2249 C 0.6514 0.97863 0.57826 0.0
C2250 C 0.63953 0.99157 0.56783 0.0
C2251 C 0.66281 1.00401 0.59802 0.0
C2252 C 0.65034 0.01651 0.58744 0.0
N2253 N 0.59698 0.04348 0.54818 0.0
C2254 C 0.56166 0.05409 0.54678 0.0
C2255 C 0.56532 0.06432 0.53018 0.0
C2256 C 0.58552 0.0641 0.52304 0.0
C2257 C 0.60106 0.0537 0.53224 0.0
C2258 C 0.57751 0.0439 0.55546 0.0
H2259 H 0.61632 0.05369 0.52632 0.0
H2260 H 0.57378 0.03597 0.56793 0.0
H2261 H 0.63066 0.98623 0.55612 0.0
H2262 H 0.64986 0.03116 0.59161 0.0
C2263 C 0.65763 0.03579 0.53401 0.0
C2264 C 0.59696 0.99748 0.52604 0.0
C2265 C 0.62482 0.069 0.58546 0.0
C2266 C 0.58981 1.00905 0.59319 0.0
H2267 H 0.62483 0.99553 0.4942 0.0
H2268 H 0.65917 0.01497 0.49937 0.0
H2269 H 0.67998 0.06914 0.54405 0.0
H2270 H 0.66071 0.0882 0.57102 0.0
H2271 H 0.60397 0.06556 0.62148 0.0
H2272 H 0.58627 0.03209 0.6266 0.0
H2273 H 0.56484 0.9776 0.5812 0.0
H2274 H 0.56756 0.97258 0.54399 0.0
H2275 H 0.65119 0.96387 0.57426 0.0
H2276 H 0.67145 1.00941 0.60991 0.0
H2277 H 0.54644 0.05343 0.55284 0.0
H2278 H 0.58938 0.07193 0.51042 0.0
C2279 C 0.28672 0.39054 0.87774 0.0
C2280 C 0.297 0.38556 0.89419 0.0
C2281 C 0.29486 0.36654 0.89623 0.0
C2282 C 0.28315 0.36094 0.8812 0.0
N2283 N 0.27754 0.37517 0.86966 0.0
Co2284 Co 0.25934 0.37261 0.84689 0.0
N2285 N 0.25187 0.34576 0.85314 0.0
C2286 C 0.26044 0.33528 0.86694 0.0
C2287 C 0.25306 0.31724 0.86792 0.0
C2288 C 0.23915 0.31593 0.8536 0.0
C2289 C 0.23871 0.3334 0.84465 0.0
N2290 N 0.24175 0.36997 0.82388 0.0
C2291 C 0.23027 0.35521 0.81743 0.0
C2292 C 0.22132 0.35947 0.80016 0.0
C2293 C 0.22799 0.37707 0.79524 0.0
C2294 C 0.24043 0.38271 0.8098 0.0
N2295 N 0.26613 0.39982 0.84146 0.0
C2296 C 0.26186 0.40893 0.8252 0.0
C2297 C 0.26868 0.42723 0.82491 0.0
C2298 C 0.27801 0.42995 0.842 0.0
C2299 C 0.27631 0.41313 0.85191 0.0
N2300 N 0.28288 0.36391 0.83092 0.0
C2301 C 0.30213 0.35494 0.79641 0.0
C2302 C 0.30463 0.37277 0.80463 0.0
C2303 C 0.29563 0.37668 0.82226 0.0
C2304 C 0.2924 0.34104 0.80706 0.0
C2305 C 0.28316 0.3457 0.8242 0.0
N2306 N 0.23515 0.38103 0.86151 0.0
C2307 C 0.20337 0.39854 0.86155 0.0
C2308 C 0.19636 0.38866 0.87732 0.0
C2309 C 0.20957 0.37546 0.88566 0.0
C2310 C 0.22907 0.37214 0.87776 0.0
C2311 C 0.22254 0.39447 0.85387 0.0
H2312 H 0.23883 0.36194 0.88451 0.0
H2313 H 0.22659 0.40179 0.84121 0.0
H2314 H 0.29829 0.39045 0.82813 0.0
H2315 H 0.27535 0.33436 0.831 0.0
C2316 C 0.275 0.34297 0.87899 0.0
C2317 C 0.28632 0.41001 0.87037 0.0
C2318 C 0.2284 0.33653 0.82644 0.0
C2319 C 0.25038 0.40013 0.81107 0.0
H2320 H 0.30496 0.39466 0.90401 0.0
H2321 H 0.30044 0.35794 0.90777 0.0
H2322 H 0.25756 0.30621 0.87765 0.0
H2323 H 0.23114 0.30316 0.84975 0.0
H2324 H 0.21132 0.3506 0.79178 0.0
H2325 H 0.22424 0.38483 0.78254 0.0
H2326 H 0.26703 0.43741 0.81362 0.0
H2327 H 0.28567 0.44275 0.84643 0.0
H2328 H 0.3131 0.3837 0.79734 0.0
H2329 H 0.29072 0.32681 0.80165 0.0
H2330 H 0.19369 0.40889 0.85463 0.0
H2331 H 0.20486 0.36773 0.89811 0.0
C2332 C 0.40378 0.52635 0.52157 0.0
C2333 C 0.394 0.53179 0.50501 0.0
C2334 C 0.37591 0.52203 0.50428 0.0
C2335 C 0.37564 0.51121 0.52033 0.0
N2336 N 0.39238 0.51363 0.53116 0.0
Co2337 Co 0.39819 0.50064 0.55536 0.0
N2338 N 0.37861 0.48009 0.54948 0.0
C2339 C 0.3653 0.47982 0.5349 0.0
C2340 C 0.35871 0.46199 0.53055 0.0
C2341 C 0.36807 0.45045 0.54339 0.0
C2342 C 0.37897 0.462 0.55573 0.0
N2343 N 0.40342 0.48776 0.57981 0.0
C2344 C 0.3973 0.47047 0.58619 0.0
C2345 C 0.40163 0.46873 0.60533 0.0
C2346 C 0.41104 0.48518 0.61086 0.0
C2347 C 0.4117 0.49627 0.59501 0.0
N2348 N 0.4183 0.52094 0.56061 0.0
C2349 C 0.42578 0.52549 0.57766 0.0
C2350 C 0.43998 0.53983 0.57675 0.0
C2351 C 0.44142 0.54449 0.5579 0.0
C2352 C 0.42801 0.5327 0.54835 0.0
N2353 N 0.37617 0.5158 0.56794 0.0
C2354 C 0.34858 0.53794 0.59011 0.0
C2355 C 0.36294 0.54635 0.57795 0.0
C2356 C 0.37622 0.53515 0.56685 0.0
C2357 C 0.34797 0.51807 0.59029 0.0
C2358 C 0.36187 0.50736 0.57934 0.0
N2359 N 0.42053 0.48591 0.5434 0.0
C2360 C 0.45552 0.47434 0.54435 0.0
C2361 C 0.45378 0.46648 0.52621 0.0
C2362 C 0.43469 0.46848 0.51704 0.0
C2363 C 0.41842 0.47823 0.52578 0.0
C2364 C 0.43887 0.48383 0.55262 0.0
H2365 H 0.40416 0.47964 0.51818 0.0
H2366 H 0.44104 0.4898 0.56646 0.0
H2367 H 0.38689 0.54227 0.55766 0.0
H2368 H 0.36133 0.49218 0.58048 0.0
C2369 C 0.36347 0.49525 0.52277 0.0
C2370 C 0.42361 0.53369 0.52793 0.0
C2371 C 0.38613 0.45614 0.5748 0.0
C2372 C 0.42158 0.51388 0.59329 0.0
H2373 H 0.39955 0.54142 0.49432 0.0
H2374 H 0.36508 0.52176 0.49269 0.0
H2375 H 0.34938 0.4577 0.51865 0.0
H2376 H 0.36652 0.43526 0.54381 0.0
H2377 H 0.39797 0.45711 0.61458 0.0
H2378 H 0.41678 0.48858 0.62479 0.0
H2379 H 0.44886 0.54569 0.58826 0.0
H2380 H 0.45114 0.55531 0.55188 0.0
H2381 H 0.36384 0.56158 0.57688 0.0
H2382 H 0.33717 0.51077 0.5993 0.0
H2383 H 0.46983 0.4736 0.55207 0.0
H2384 H 0.43217 0.46249 0.50318 0.0
C2385 C 0.78508 0.13153 0.14658 0.0
C2386 C 0.79582 0.13694 0.13054 0.0
C2387 C 0.79399 0.15603 0.12912 0.0
C2388 C 0.78202 0.16127 0.1441 0.0
N2389 N 0.77591 0.14673 0.15501 0.0
Co2390 Co 0.75735 0.14881 0.17761 0.0
N2391 N 0.75143 0.17633 0.17288 0.0
C2392 C 0.76016 0.18702 0.15933 0.0
C2393 C 0.75405 0.20549 0.15952 0.0
C2394 C 0.74073 0.20683 0.17427 0.0
C2395 C 0.73931 0.18894 0.18225 0.0
N2396 N 0.73952 0.15101 0.20055 0.0
C2397 C 0.72897 0.16598 0.20785 0.0
C2398 C 0.71936 0.16112 0.22464 0.0
C2399 C 0.72458 0.14282 0.22838 0.0
C2400 C 0.73687 0.13741 0.21365 0.0
N2401 N 0.76244 0.12097 0.18146 0.0
C2402 C 0.75647 0.11092 0.19668 0.0
C2403 C 0.76249 0.09239 0.19614 0.0
C2404 C 0.77304 0.09045 0.17958 0.0
C2405 C 0.77283 0.10796 0.17079 0.0
N2406 N 0.78098 0.15541 0.19445 0.0
C2407 C 0.79354 0.1638 0.23154 0.0
C2408 C 0.79557 0.14548 0.22427 0.0
C2409 C 0.79002 0.14178 0.20545 0.0
C2410 C 0.78925 0.17823 0.21863 0.0
C2411 C 0.78357 0.17379 0.20012 0.0
N2412 N 0.73296 0.14254 0.16216 0.0
C2413 C 0.69883 0.1294 0.16224 0.0
C2414 C 0.69307 0.14069 0.14698 0.0
C2415 C 0.70831 0.15154 0.13819 0.0
C2416 C 0.7282 0.15219 0.14596 0.0
C2417 C 0.71869 0.13041 0.16944 0.0
H2418 H 0.73927 0.16123 0.13933 0.0
H2419 H 0.72188 0.12205 0.18163 0.0
H2420 H 0.79187 0.12754 0.20053 0.0
H2421 H 0.78011 0.1855 0.19112 0.0
C2422 C 0.77441 0.17935 0.14696 0.0
C2423 C 0.78415 0.1118 0.15313 0.0
C2424 C 0.72823 0.1852 0.19991 0.0
C2425 C 0.74528 0.11943 0.21118 0.0
H2426 H 0.80388 0.12807 0.12058 0.0
H2427 H 0.80003 0.16497 0.11806 0.0
H2428 H 0.75911 0.21678 0.15035 0.0
H2429 H 0.73364 0.21979 0.17897 0.0
H2430 H 0.70974 0.16995 0.23342 0.0
H2431 H 0.71989 0.13443 0.24038 0.0
H2432 H 0.75977 0.0816 0.20666 0.0
H2433 H 0.78055 0.07769 0.17483 0.0
H2434 H 0.80017 0.13384 0.2332 0.0
H2435 H 0.78933 0.1929 0.22297 0.0
H2436 H 0.6878 0.12024 0.16908 0.0
H2437 H 0.70466 0.16019 0.12605 0.0
C2438 C 0.6131 0.02007 0.99917 0.0
C2439 C 0.62409 0.0218 0.01589 0.0
C2440 C 0.64155 1.01119 0.0138 0.0
C2441 C 0.64026 1.00355 0.99603 0.0
N2442 N 0.62305 1.00864 0.98685 0.0
Co2443 Co 0.61519 1.00057 0.96102 0.0
N2444 N 0.63405 0.97863 0.96192 0.0
C2445 C 0.65013 0.97673 0.9737 0.0
C2446 C 0.66078 0.96025 0.97095 0.0
C2447 C 0.65084 0.95126 0.95646 0.0
C2448 C 0.63457 0.9628 0.95116 0.0
N2449 N 0.60745 0.99232 0.93521 0.0
C2450 C 0.6102 0.97536 0.92653 0.0
C2451 C 0.60246 0.97587 0.9083 0.0
C2452 C 0.59487 0.9938 0.90552 0.0
C2453 C 0.59833 1.00327 0.92216 0.0
N2454 N 0.59644 0.02259 0.9604 0.0
C2455 C 0.58853 0.03039 0.94471 0.0
C2456 C 0.57594 0.04548 0.94867 0.0
C2457 C 0.57608 0.04722 0.96803 0.0
C2458 C 0.58874 0.03305 0.97486 0.0
N2459 N 0.63739 0.01649 0.94999 0.0
C2460 C 0.66526 0.04093 0.93111 0.0
C2461 C 0.65479 0.04669 0.94747 0.0
C2462 C 0.64084 0.03444 0.95651 0.0
C2463 C 0.66187 0.0224 0.92481 0.0
C2464 C 0.64827 1.01039 0.93457 0.0
N2465 N 0.59264 0.98509 0.97137 0.0
C2466 C 0.55743 0.97471 0.96879 0.0
C2467 C 0.55954 0.96312 0.98461 0.0
C2468 C 0.57858 0.96294 0.99395 0.0
C2469 C 0.59502 0.97391 0.98699 0.0
C2470 C 0.57393 0.98564 0.96258 0.0
H2471 H 0.60965 0.97327 0.99413 0.0
H2472 H 0.57145 0.99449 0.95047 0.0
H2473 H 0.63249 0.03971 0.96856 0.0
H2474 H 0.64626 0.99623 0.9293 0.0
C2475 C 0.65266 0.98905 0.98897 0.0
C2476 C 0.59414 0.03051 0.99496 0.0
C2477 C 0.62124 0.9591 0.93481 0.0
C2478 C 0.59036 0.02107 0.92722 0.0
H2479 H 0.61998 0.02991 0.02827 0.0
H2480 H 0.6533 1.0087 0.02432 0.0
H2481 H 0.67379 0.95506 0.97892 0.0
H2482 H 0.65525 0.93785 0.95036 0.0
H2483 H 0.60237 0.96452 0.89806 0.0
H2484 H 0.58709 0.99904 0.89308 0.0
H2485 H 0.56703 0.05374 0.93877 0.0
H2486 H 0.56782 0.05768 0.97618 0.0
H2487 H 0.65694 0.06081 0.95299 0.0
H2488 H 0.66984 0.01713 0.91248 0.0
H2489 H 0.54302 0.97533 0.96118 0.0
H2490 H 0.58091 0.95404 1.00618 0.0
C2491 C 0.90255 1.00652 0.50419 0.0
C2492 C 0.89071 1.00418 0.5203 0.0
C2493 C 0.87273 0.01383 0.5173 0.0
C2494 C 0.87459 0.02168 0.49968 0.0
N2495 N 0.89263 0.01755 0.49145 0.0
Co2496 Co 0.90204 0.0269 0.46657 0.0
N2497 N 0.88211 0.048 0.46695 0.0
C2498 C 0.86499 0.04879 0.47752 0.0
C2499 C 0.85394 0.06506 0.47466 0.0
C2500 C 0.86477 0.07505 0.46141 0.0
C2501 C 0.88188 0.06426 0.45692 0.0
N2502 N 0.91153 0.03648 0.44182 0.0
C2503 C 0.90907 0.05384 0.43393 0.0
C2504 C 0.91828 0.05451 0.41633 0.0
C2505 C 0.92668 0.03691 0.41318 0.0
C2506 C 0.92214 0.02646 0.429 0.0
N2507 N 0.92166 1.00561 0.46637 0.0
C2508 C 0.93101 0.99859 0.45098 0.0
C2509 C 0.94442 0.98424 0.45543 0.0
C2510 C 0.94333 0.98224 0.47476 0.0
C2511 C 0.92934 0.99555 0.48109 0.0
N2512 N 0.88136 1.01072 0.45342 0.0
C2513 C 0.85563 0.9867 0.43142 0.0
C2514 C 0.86519 0.98022 0.44803 0.0
C2515 C 0.87806 0.99232 0.45867 0.0
C2516 C 0.8587 1.00573 0.42665 0.0
C2517 C 0.87123 0.01745 0.43784 0.0
N2518 N 0.92303 0.04282 0.47901 0.0
C2519 C 0.95845 0.05302 0.48076 0.0
C2520 C 0.95371 0.0662 0.49476 0.0
C2521 C 0.93323 0.06733 0.50092 0.0
C2522 C 0.9182 0.0553 0.49309 0.0
C2523 C 0.94298 0.04176 0.47294 0.0
H2524 H 0.90263 0.05631 0.49818 0.0
H2525 H 0.94724 0.0324 0.46164 0.0
H2526 H 0.88581 0.98661 0.47088 0.0
H2527 H 0.87316 0.03192 0.43348 0.0
C2528 C 0.86197 0.03587 0.49223 0.0
C2529 C 0.92271 0.99768 0.50091 0.0
C2530 C 0.89687 0.06928 0.44231 0.0
C2531 C 0.93028 1.00863 0.4338 0.0
H2532 H 0.89458 0.99658 0.53303 0.0
H2533 H 0.86032 0.01579 0.52726 0.0
H2534 H 0.84015 0.06951 0.48191 0.0
H2535 H 0.86052 0.08866 0.45569 0.0
H2536 H 0.91876 0.0664 0.40676 0.0
H2537 H 0.93565 0.03254 0.40111 0.0
H2538 H 0.95465 0.97683 0.44595 0.0
H2539 H 0.9519 0.97227 0.48324 0.0
H2540 H 0.86344 0.96565 0.45236 0.0
H2541 H 0.85156 1.01157 0.41413 0.0
H2542 H 0.97395 0.0519 0.47536 0.0
H2543 H 0.92888 0.07745 0.51165 0.0
H2544 H 0.14498 0.21043 0.51508 0.0
H2545 H 0.08306 0.22597 0.50033 0.0
H2546 H 0.09604 0.24903 0.4776 0.0
H2547 H 0.12509 0.26468 0.46131 0.0
H2548 H 0.18697 0.24804 0.47499 0.0
H2549 H 0.17401 0.22577 0.49849 0.0
C2550 C 0.13431 0.21896 0.507 0.0
C2551 C 0.11297 0.21638 0.50958 0.0
C2552 C 0.14193 0.23206 0.4936 0.0
C2553 C 0.09949 0.22745 0.49867 0.0
C2554 C 0.10694 0.24073 0.48565 0.0
C2555 C 0.13576 0.25628 0.46952 0.0
C2556 C 0.15708 0.25819 0.46628 0.0
C2557 C 0.12814 0.24316 0.4829 0.0
C2558 C 0.17054 0.24688 0.47696 0.0
C2559 C 0.16311 0.23414 0.49051 0.0
H2560 H 0.10094 0.87911 0.7263 0.0
H2561 H 0.07281 0.82555 0.7136 0.0
H2562 H 0.04897 0.84107 0.69189 0.0
H2563 H 0.03612 0.86993 0.67573 0.0
H2564 H 0.0664 0.92296 0.68601 0.0
H2565 H 0.08875 0.90787 0.70934 0.0
C2566 C 0.08952 0.87082 0.71888 0.0
C2567 C 0.08884 0.85102 0.7218 0.0
C2568 C 0.07596 0.87988 0.70592 0.0
C2569 C 0.07398 0.84068 0.7117 0.0
C2570 C 0.0602 0.84961 0.69925 0.0
C2571 C 0.0475 0.87823 0.68319 0.0
C2572 C 0.04899 0.89782 0.6793 0.0
C2573 C 0.06104 0.86921 0.69614 0.0
C2574 C 0.06425 0.9081 0.68897 0.0
C2575 C 0.07728 0.89937 0.70224 0.0
H2576 H 0.4262 0.80042 0.99478 0.0
H2577 H 0.37119 0.81844 0.02331 0.0
H2578 H 0.35054 0.79789 1.00309 0.0
H2579 H 0.34782 0.77461 0.97692 0.0
H2580 H 0.40308 0.75519 0.94977 0.0
H2581 H 0.42364 0.77623 0.96955 0.0
C2582 C 0.40969 0.79985 0.99657 0.0
C2583 C 0.40036 0.81106 1.01067 0.0
C2584 C 0.39782 0.78765 0.98502 0.0
C2585 C 0.37891 0.80991 0.01279 0.0
C2586 C 0.36702 0.79818 1.00112 0.0
C2587 C 0.36435 0.77502 0.97533 0.0
C2588 C 0.37381 0.76325 0.96177 0.0
C2589 C 0.37625 0.78696 0.98714 0.0
C2590 C 0.39533 0.76391 0.96011 0.0
C2591 C 0.40714 0.77603 0.97142 0.0
H2592 H 0.45268 0.16949 0.23133 0.0
H2593 H 0.39638 0.16948 0.19934 0.0
H2594 H 0.41236 0.14987 0.17509 0.0
H2595 H 0.44243 0.13275 0.1624 0.0
H2596 H 0.49974 0.1347 0.19258 0.0
H2597 H 0.48336 0.15285 0.218 0.0
C2598 C 0.4439 0.16516 0.21907 0.0
C2599 C 0.42321 0.17117 0.21731 0.0
C2600 C 0.45343 0.15405 0.20475 0.0
C2601 C 0.41228 0.16538 0.20115 0.0
C2602 C 0.42143 0.15404 0.18723 0.0
C2603 C 0.45143 0.1373 0.17444 0.0
C2604 C 0.47251 0.13248 0.17529 0.0
C2605 C 0.44202 0.14834 0.18876 0.0
C2606 C 0.48361 0.13819 0.19137 0.0
C2607 C 0.47421 0.14868 0.20593 0.0
H2608 H 0.17739 0.78011 0.05222 0.0
H2609 H 0.12252 0.75101 0.06957 0.0
H2610 H 0.10188 0.77094 0.04874 0.0
H2611 H 0.09911 0.79704 0.02543 0.0
H2612 H 0.15425 0.82472 1.00661 0.0
H2613 H 0.17481 0.80523 0.02794 0.0
C2614 C 0.16092 0.77812 0.05143 0.0
C2615 C 0.15163 0.76395 0.06254 0.0
C2616 C 0.14906 0.7895 0.03907 0.0
C2617 C 0.13022 0.76158 0.06112 0.0
C2618 C 0.11833 0.77309 0.04924 0.0
C2619 C 0.11562 0.7988 0.02603 0.0
C2620 C 0.12505 0.81243 0.01437 0.0
C2621 C 0.12753 0.78715 0.03812 0.0
C2622 C 0.14654 0.81432 0.01527 0.0
C2623 C 0.15834 0.80318 0.02755 0.0
H2624 H 0.49317 0.88351 0.33229 0.0
H2625 H 0.44212 0.90445 0.36469 0.0
H2626 H 0.41821 0.88683 0.34469 0.0
H2627 H 0.41157 0.86428 0.3186 0.0
H2628 H 0.46219 0.8447 0.28477 0.0
H2629 H 0.48617 0.86275 0.3044 0.0
C2630 C 0.4768 0.88438 0.3348 0.0
C2631 C 0.46956 0.89519 0.35024 0.0
C2632 C 0.46294 0.87423 0.32299 0.0
C2633 C 0.4482 0.89618 0.3531 0.0
C2634 C 0.43448 0.88602 0.34166 0.0
C2635 C 0.42785 0.86393 0.31551 0.0
C2636 C 0.43494 0.85288 0.30018 0.0
C2637 C 0.44163 0.87474 0.32671 0.0
C2638 C 0.45615 0.853 0.29635 0.0
C2639 C 0.46995 0.86334 0.30766 0.0
H2640 H 0.36474 0.23842 0.57426 0.0
H2641 H 0.35832 0.28312 0.53336 0.0
H2642 H 0.37597 0.26383 0.5098 0.0
H2643 H 0.39359 0.23411 0.50056 0.0
H2644 H 0.39917 0.18938 0.5416 0.0
H2645 H 0.38169 0.20874 0.56498 0.0
C2646 C 0.36694 0.24395 0.56015 0.0
C2647 C 0.36002 0.26239 0.55581 0.0
C2648 C 0.37719 0.23272 0.54653 0.0
C2649 C 0.36355 0.26918 0.53739 0.0
C2650 C 0.37362 0.25807 0.52379 0.0
C2651 C 0.39092 0.2285 0.51457 0.0
C2652 C 0.39809 0.21016 0.51912 0.0
C2653 C 0.38059 0.23979 0.52816 0.0
C2654 C 0.39443 0.20346 0.53755 0.0
C2655 C 0.38419 0.21452 0.55101 0.0
H2656 H 0.0661 0.16569 0.792 0.0
H2657 H 0.12229 0.16309 0.82403 0.0
H2658 H 0.10573 0.14298 0.84748 0.0
H2659 H 0.07515 0.12634 0.85953 0.0
H2660 H 0.01792 0.13099 0.82952 0.0
H2661 H 0.03492 0.14939 0.80466 0.0
C2662 C 0.07472 0.16068 0.80408 0.0
C2663 C 0.09555 0.16609 0.80614 0.0
C2664 C 0.06486 0.14931 0.81795 0.0
C2665 C 0.1063 0.15943 0.82205 0.0
C2666 C 0.09682 0.14781 0.8355 0.0
C2667 C 0.06631 0.13151 0.84764 0.0
C2668 C 0.04508 0.12745 0.84668 0.0
C2669 C 0.07608 0.14273 0.83372 0.0
C2670 C 0.03417 0.13392 0.83079 0.0
C2671 C 0.04391 0.14456 0.81658 0.0
H2672 H 0.20731 0.44069 0.16191 0.0
H2673 H 0.24206 0.41582 0.11657 0.0
H2674 H 0.22461 0.43624 0.09379 0.0
H2675 H 0.19833 0.46073 0.08624 0.0
H2676 H 0.16559 0.48736 0.13184 0.0
H2677 H 0.18333 0.46718 0.15468 0.0
C2678 C 0.21155 0.4401 0.14714 0.0
C2679 C 0.2264 0.42672 0.14117 0.0
C2680 C 0.20152 0.45222 0.13395 0.0
C2681 C 0.23096 0.42597 0.12174 0.0
C2682 C 0.22085 0.43764 0.10861 0.0
C2683 C 0.19512 0.46217 0.10118 0.0
C2684 C 0.18042 0.47565 0.10715 0.0
C2685 C 0.20589 0.45072 0.11446 0.0
C2686 C 0.17677 0.47728 0.12669 0.0
C2687 C 0.18694 0.46565 0.13983 0.0
H2688 H 0.73419 0.09767 0.90101 0.0
H2689 H 0.6979 0.09367 0.85032 0.0
H2690 H 0.67527 0.07076 0.86558 0.0
H2691 H 0.6648 0.05232 0.89388 0.0
H2692 H 0.69863 0.05924 0.94566 0.0
H2693 H 0.72273 0.08048 0.92974 0.0
C2694 C 0.72137 0.09173 0.89327 0.0
C2695 C 0.7182 0.09721 0.87426 0.0
C2696 C 0.70772 0.0791 0.9025 0.0
C2697 C 0.70121 0.08946 0.8647 0.0
C2698 C 0.68808 0.07643 0.87353 0.0
C2699 C 0.6775 0.05843 0.90165 0.0
C2700 C 0.67989 0.054 0.92101 0.0
C2701 C 0.69106 0.07117 0.89247 0.0
C2702 C 0.69633 0.06234 0.93083 0.0
C2703 C 0.71018 0.07449 0.92169 0.0
H2704 H 0.81597 0.93615 0.3658 0.0
H2705 H 0.77753 0.91785 0.41165 0.0
H2706 H 0.79585 0.93884 0.43337 0.0
H2707 H 0.82369 0.96213 0.43981 0.0
H2708 H 0.86059 0.9819 0.39345 0.0
H2709 H 0.84217 0.96102 0.37178 0.0
C2710 C 0.81132 0.93703 0.38046 0.0
C2711 C 0.79517 0.92537 0.38694 0.0
C2712 C 0.82189 0.94942 0.39297 0.0
C2713 C 0.78975 0.92661 0.40615 0.0
C2714 C 0.80033 0.93861 0.41865 0.0
C2715 C 0.82771 0.96186 0.42497 0.0
C2716 C 0.84372 0.97367 0.41843 0.0
C2717 C 0.81661 0.94999 0.41232 0.0
C2718 C 0.8484 0.97315 0.39901 0.0
C2719 C 0.83783 0.96112 0.38654 0.0
H2720 H 0.8172 0.04098 0.10499 0.0
H2721 H 0.87316 0.07324 0.10764 0.0
H2722 H 0.85617 0.09702 0.12717 0.0
H2723 H 0.82528 0.10918 0.14354 0.0
H2724 H 0.76832 0.07885 0.13854 0.0
H2725 H 0.78568 0.05393 0.12052 0.0
C2726 C 0.82568 0.05319 0.10987 0.0
C2727 C 0.8466 0.05516 0.10469 0.0
C2728 C 0.81556 0.06727 0.12087 0.0
C2729 C 0.85713 0.07128 0.11115 0.0
C2730 C 0.84739 0.08493 0.12244 0.0
C2731 C 0.81659 0.09719 0.1384 0.0
C2732 C 0.79534 0.09611 0.14247 0.0
C2733 C 0.82659 0.08318 0.12736 0.0
C2734 C 0.7846 0.08019 0.1358 0.0
C2735 C 0.79456 0.06592 0.12536 0.0
H2736 H 0.27622 0.5808 0.63446 0.0
H2737 H 0.32717 0.61422 0.65391 0.0
H2738 H 0.35095 0.59463 0.63568 0.0
H2739 H 0.35747 0.56858 0.61296 0.0
H2740 H 0.30694 0.53387 0.59476 0.0
H2741 H 0.28317 0.55306 0.61347 0.0
C2742 C 0.29256 0.58361 0.6349 0.0
C2743 C 0.29978 0.59919 0.64553 0.0
C2744 C 0.30635 0.57205 0.62435 0.0
C2745 C 0.32109 0.60248 0.64587 0.0
C2746 C 0.33474 0.59127 0.63533 0.0
C2747 C 0.34125 0.56519 0.61305 0.0
C2748 C 0.33416 0.54972 0.60218 0.0
C2749 C 0.32758 0.57617 0.62426 0.0
C2750 C 0.31302 0.54555 0.60289 0.0
C2751 C 0.29933 0.5566 0.61363 0.0
H2752 H 0.23738 0.58451 0.39349 0.0
H2753 H 0.18881 0.62172 0.37573 0.0
H2754 H 0.16342 0.60147 0.3911 0.0
H2755 H 0.1548 0.57349 0.4106 0.0
H2756 H 0.20309 0.53533 0.42712 0.0
H2757 H 0.22844 0.55532 0.41138 0.0
C2758 C 0.22121 0.58802 0.39278 0.0
C2759 C 0.21511 0.60477 0.38346 0.0
C2760 C 0.20651 0.57612 0.40163 0.0
C2761 C 0.19401 0.60903 0.38279 0.0
C2762 C 0.17945 0.59745 0.39167 0.0
C2763 C 0.17087 0.56955 0.4108 0.0
C2764 C 0.17687 0.55283 0.42024 0.0
C2765 C 0.18548 0.58104 0.40135 0.0
C2766 C 0.19785 0.54796 0.41999 0.0
C2767 C 0.21244 0.55947 0.41098 0.0
H2768 H 0.31889 0.48212 0.91676 0.0
H2769 H 0.37442 0.44901 0.91687 0.0
H2770 H 0.35769 0.42478 0.89777 0.0
H2771 H 0.32715 0.41241 0.88105 0.0
H2772 H 0.27062 0.44382 0.88292 0.0
H2773 H 0.28776 0.46915 0.90057 0.0
C2774 C 0.32735 0.46963 0.91256 0.0
C2775 C 0.34805 0.46756 0.91846 0.0
C2776 C 0.31739 0.45533 0.90174 0.0
C2777 C 0.35853 0.45107 0.91286 0.0
C2778 C 0.34895 0.43716 0.9018 0.0
C2779 C 0.31849 0.42472 0.88544 0.0
C2780 C 0.29742 0.42596 0.88069 0.0
C2781 C 0.32835 0.43902 0.89621 0.0
C2782 C 0.28675 0.44233 0.88629 0.0
C2783 C 0.29658 0.45684 0.89651 0.0
H2784 H 0.59555 0.72586 0.99787 0.0
H2785 H 0.65194 0.70345 0.02048 0.0
H2786 H 0.67177 0.72404 0.99972 0.0
H2787 H 0.67339 0.74879 0.97498 0.0
H2788 H 0.61698 0.77215 0.95339 0.0
H2789 H 0.59717 0.75107 0.97365 0.0
C2790 C 0.61217 0.72544 0.99822 0.0
C2791 C 0.62213 0.71303 1.01088 0.0
C2792 C 0.62362 0.73763 0.98633 0.0
C2793 C 0.64375 0.71292 1.01113 0.0
C2794 C 0.65517 0.72468 0.99915 0.0
C2795 C 0.65676 0.74923 0.97467 0.0
C2796 C 0.6468 0.76221 0.96259 0.0
C2797 C 0.64532 0.73715 0.98668 0.0
C2798 C 0.62518 0.76256 0.96261 0.0
C2799 C 0.61377 0.7504 0.97418 0.0
H2800 H 0.59513 0.3803 0.22925 0.0
H2801 H 0.57716 0.32551 0.20843 0.0
H2802 H 0.5539 0.34031 0.18588 0.0
H2803 H 0.53873 0.36884 0.17121 0.0
H2804 H 0.55736 0.42377 0.19069 0.0
H2805 H 0.57955 0.40908 0.21459 0.0
C2806 C 0.58604 0.37155 0.21989 0.0
C2807 C 0.58829 0.35161 0.2207 0.0
C2808 C 0.57258 0.38027 0.20658 0.0
C2809 C 0.57627 0.34077 0.20816 0.0
C2810 C 0.56276 0.34927 0.19523 0.0
C2811 C 0.54769 0.37763 0.18064 0.0
C2812 C 0.54643 0.39752 0.17886 0.0
C2813 C 0.56086 0.36901 0.19414 0.0
C2814 C 0.55798 0.40852 0.19156 0.0
C2815 C 0.57078 0.40006 0.20523 0.0
H2816 H 0.92329 0.30033 0.49656 0.0
H2817 H 0.86691 0.32309 0.51876 0.0
H2818 H 0.84707 0.30277 0.49765 0.0
H2819 H 0.84547 0.27815 0.47279 0.0
H2820 H 0.90179 0.25409 0.45188 0.0
H2821 H 0.92166 0.27503 0.47234 0.0
C2822 C 0.90667 0.30087 0.49673 0.0
C2823 C 0.89669 0.3133 0.50933 0.0
C2824 C 0.89523 0.28878 0.48472 0.0
C2825 C 0.87508 0.3136 0.5094 0.0
C2826 C 0.86367 0.302 0.49725 0.0
C2827 C 0.86209 0.27753 0.47269 0.0
C2828 C 0.87204 0.26445 0.46073 0.0
C2829 C 0.87353 0.28947 0.48484 0.0
C2830 C 0.89364 0.26381 0.461 0.0
C2831 C 0.90507 0.27588 0.47268 0.0
H2832 H 0.94957 0.66651 0.73443 0.0
H2833 H 0.89446 0.66754 0.70074 0.0
H2834 H 0.91104 0.64804 0.67677 0.0
H2835 H 0.94133 0.63068 0.66479 0.0
H2836 H 0.99744 0.63141 0.69687 0.0
H2837 H 0.98044 0.64958 0.72191 0.0
C2838 C 0.94116 0.66243 0.72188 0.0
C2839 C 0.92064 0.66872 0.71955 0.0
C2840 C 0.95104 0.65133 0.70773 0.0
C2841 C 0.91023 0.66324 0.70299 0.0
C2842 C 0.91972 0.65195 0.68923 0.0
C2843 C 0.94992 0.63493 0.67719 0.0
C2844 C 0.97084 0.62972 0.6787 0.0
C2845 C 0.94015 0.64596 0.69133 0.0
C2846 C 0.98143 0.63515 0.69517 0.0
C2847 C 0.97168 0.64566 0.70951 0.0
H2848 H 0.6447 0.31761 0.50938 0.0
H2849 H 0.5825 0.30415 0.52495 0.0
H2850 H 0.59498 0.28046 0.5473 0.0
H2851 H 0.62367 0.26375 0.56313 0.0
H2852 H 0.68591 0.27842 0.54882 0.0
H2853 H 0.67342 0.30118 0.52551 0.0
C2854 C 0.63387 0.30939 0.51756 0.0
C2855 C 0.61261 0.31274 0.51533 0.0
C2856 C 0.64121 0.29594 0.53077 0.0
C2857 C 0.5989 0.30206 0.52635 0.0
C2858 C 0.60605 0.28842 0.53915 0.0
C2859 C 0.63451 0.27183 0.55481 0.0
C2860 C 0.65578 0.26922 0.5578 0.0
C2861 C 0.62718 0.28526 0.54158 0.0
C2862 C 0.6695 0.28011 0.547 0.0
C2863 C 0.66235 0.29314 0.53358 0.0
H2864 H 0.94745 0.35764 0.79355 0.0
H2865 H 0.89197 0.36369 0.82614 0.0
H2866 H 0.91039 0.38226 0.84969 0.0
H2867 H 0.94244 0.39656 0.86172 0.0
H2868 H 0.99858 0.38903 0.83065 0.0
H2869 H 0.97987 0.37188 0.8059 0.0
C2870 C 0.93936 0.36309 0.80576 0.0
C2871 C 0.91819 0.35902 0.80794 0.0
C2872 C 0.95024 0.37368 0.81961 0.0
C2873 C 0.90819 0.36622 0.82404 0.0
C2874 C 0.91874 0.377 0.83755 0.0
C2875 C 0.9506 0.39114 0.84954 0.0
C2876 C 0.97202 0.39409 0.8482 0.0
C2877 C 0.93979 0.38075 0.8356 0.0
C2878 C 0.98218 0.38707 0.83213 0.0
C2879 C 0.97145 0.37714 0.81798 0.0
H2880 H 0.84736 0.74587 0.05194 0.0
H2881 H 0.90398 0.7684 0.07383 0.0
H2882 H 0.9236 0.74731 0.05331 0.0
H2883 H 0.92492 0.72229 0.02881 0.0
H2884 H 0.86831 0.70113 1.00555 0.0
H2885 H 0.84868 0.72161 0.02668 0.0
C2886 C 0.86399 0.74613 0.05223 0.0
C2887 C 0.87411 0.7588 0.0645 0.0
C2888 C 0.87529 0.73413 0.04003 0.0
C2889 C 0.89572 0.75898 0.06448 0.0
C2890 C 0.90699 0.74683 0.05276 0.0
C2891 C 0.90829 0.72214 0.0284 0.0
C2892 C 0.89818 0.7101 0.01552 0.0
C2893 C 0.89699 0.73433 0.04042 0.0
C2894 C 0.87657 0.71031 0.01514 0.0
C2895 C 0.86529 0.72201 0.02731 0.0
H2896 H 0.52997 0.64206 0.33157 0.0
H2897 H 0.57978 0.62393 0.36719 0.0
H2898 H 0.60433 0.64064 0.34715 0.0
H2899 H 0.61186 0.66164 0.31995 0.0
H2900 H 0.56258 0.67799 0.28288 0.0
H2901 H 0.53794 0.66103 0.30274 0.0
C2902 C 0.54623 0.64158 0.33477 0.0
C2903 C 0.5529 0.63185 0.3511 0.0
C2904 C 0.56047 0.65117 0.32293 0.0
C2905 C 0.57412 0.63137 0.35488 0.0
C2906 C 0.58821 0.64102 0.34342 0.0
C2907 C 0.59572 0.6615 0.31623 0.0
C2908 C 0.58916 0.67134 0.29994 0.0
C2909 C 0.5816 0.65123 0.32754 0.0
C2910 C 0.56816 0.67066 0.29527 0.0
C2911 C 0.55401 0.66091 0.30668 0.0
H2912 H 0.69423 0.91617 0.64534 0.0
H2913 H 0.75154 0.94604 0.64123 0.0
H2914 H 0.73462 0.97121 0.62316 0.0
H2915 H 0.70346 0.98431 0.60701 0.0
H2916 H 0.64716 0.95249 0.60905 0.0
H2917 H 0.66364 0.92868 0.62885 0.0
C2918 C 0.70309 0.92813 0.6404 0.0
C2919 C 0.72432 0.92895 0.64461 0.0
C2920 C 0.69336 0.94228 0.62936 0.0
C2921 C 0.73528 0.94487 0.63829 0.0
C2922 C 0.72557 0.95928 0.62782 0.0
C2923 C 0.69478 0.9722 0.61184 0.0
C2924 C 0.67394 0.97034 0.60635 0.0
C2925 C 0.70462 0.95809 0.62303 0.0
C2926 C 0.66316 0.95436 0.61277 0.0
C2927 C 0.6726 0.94069 0.62422 0.0
H2928 H 0.24689 0.3596 0.26529 0.0
H2929 H 0.18462 0.37443 0.25097 0.0
H2930 H 0.17457 0.37079 0.28414 0.0
H2931 H 0.18304 0.3609 0.31675 0.0
H2932 H 0.2452 0.34462 0.33024 0.0
H2933 H 0.25572 0.35156 0.29797 0.0
C2934 C 0.23108 0.36202 0.26939 0.0
C2935 C 0.21644 0.36697 0.25551 0.0
C2936 C 0.2254 0.35964 0.28839 0.0
C2937 C 0.19619 0.37059 0.26126 0.0
C2938 C 0.19043 0.36839 0.28023 0.0
C2939 C 0.19892 0.35891 0.31268 0.0
C2940 C 0.21325 0.3521 0.32608 0.0
C2941 C 0.20483 0.36253 0.29386 0.0
C2942 C 0.23383 0.35003 0.32049 0.0
C2943 C 0.23985 0.35381 0.30191 0.0
H2944 H 0.91328 0.9679 0.52428 0.0
H2945 H 0.96009 1.00933 0.51347 0.0
H2946 H 0.97971 0.99801 0.54082 0.0
H2947 H 0.98335 0.97643 0.56838 0.0
H2948 H 0.93618 0.93539 0.5793 0.0
H2949 H 0.91671 0.94663 0.55185 0.0
C2950 C 0.92771 0.97452 0.52802 0.0
C2951 C 0.93507 0.98965 0.51698 0.0
C2952 C 0.93873 0.96811 0.544 0.0
C2953 C 0.95405 0.99774 0.52175 0.0
C2954 C 0.96521 0.99133 0.53747 0.0
C2955 C 0.96867 0.97017 0.56483 0.0
C2956 C 0.96102 0.95528 0.57602 0.0
C2957 C 0.95764 0.97663 0.54884 0.0
C2958 C 0.9422 0.94702 0.57107 0.0
C2959 C 0.93115 0.95337 0.5553 0.0
H2960 H 0.33799 0.66766 0.81293 0.0
H2961 H 0.27559 0.68261 0.82691 0.0
H2962 H 0.26517 0.67671 0.79434 0.0
H2963 H 0.27415 0.66978 0.7614 0.0
H2964 H 0.33671 0.65625 0.74682 0.0
H2965 H 0.34667 0.65915 0.78008 0.0
C2966 C 0.32208 0.6696 0.80889 0.0
C2967 C 0.30765 0.67573 0.82249 0.0
C2968 C 0.31626 0.66662 0.78995 0.0
C2969 C 0.28703 0.67773 0.81696 0.0
C2970 C 0.28109 0.67455 0.79823 0.0
C2971 C 0.29003 0.66755 0.76545 0.0
C2972 C 0.30475 0.66314 0.75149 0.0
C2973 C 0.29565 0.66942 0.78454 0.0
C2974 C 0.32507 0.65971 0.75717 0.0
C2975 C 0.33078 0.66145 0.77619 0.0
H2976 H 0.56263 0.022 0.01897 0.0
H2977 H 0.60596 0.06577 1.00557 0.0
H2978 H 0.59473 0.08405 0.03311 0.0
H2979 H 0.57322 0.08715 0.06183 0.0
H2980 H 0.52804 0.04449 0.07388 0.0
H2981 H 0.53948 0.02613 0.04655 0.0
C2982 C 0.5693 0.0357 0.02195 0.0
C2983 C 0.58495 0.04264 1.01014 0.0
C2984 C 0.56267 0.04618 0.03785 0.0
C2985 C 0.5937 0.06029 0.0143 0.0
C2986 C 0.5874 0.07065 0.03015 0.0
C2987 C 0.56588 0.07385 0.05843 0.0
C2988 C 0.54995 0.06713 0.0701 0.0
C2989 C 0.57204 0.06367 0.04218 0.0
C2990 C 0.54055 0.04987 0.06538 0.0
C2991 C 0.54697 0.03943 0.04962 0.0
H2992 H 0.22712 0.70159 0.21545 0.0
H2993 H 0.17742 0.6622 0.20835 0.0
H2994 H 0.17998 0.65305 0.24161 0.0
H2995 H 0.19547 0.65724 0.27316 0.0
H2996 H 0.24427 0.69773 0.28034 0.0
H2997 H 0.24275 0.70561 0.24693 0.0
C2998 C 0.21711 0.69079 0.22118 0.0
C2999 C 0.20227 0.6824 0.20946 0.0
C3000 C 0.21827 0.68601 0.24047 0.0
C3001 C 0.18905 0.66874 0.21711 0.0
C3002 C 0.19045 0.66358 0.23614 0.0
C3003 C 0.20584 0.66771 0.26742 0.0
C3004 C 0.21989 0.67692 0.27944 0.0
C3005 C 0.20485 0.67228 0.24804 0.0
C3006 C 0.23305 0.6906 0.27163 0.0
C3007 C 0.23233 0.69504 0.25242 0.0
H3008 H 0.56695 1.00671 0.50068 0.0
H3009 H 0.60766 0.9616 0.51666 0.0
H3010 H 0.59675 0.94313 0.48913 0.0
H3011 H 0.5761 0.94007 0.4599 0.0
H3012 H 0.53324 0.98403 0.44536 0.0
H3013 H 0.54474 1.00282 0.47239 0.0
C3014 C 0.57312 0.9927 0.49824 0.0
C3015 C 0.58794 0.98542 0.51075 0.0
C3016 C 0.56667 0.98212 0.48236 0.0
C3017 C 0.59605 0.96735 0.50734 0.0
C3018 C 0.58994 0.95688 0.49151 0.0
C3019 C 0.56934 0.95378 0.46267 0.0
C3020 C 0.55399 0.9607 0.45043 0.0
C3021 C 0.5754 0.96417 0.47879 0.0
C3022 C 0.5453 0.97848 0.45431 0.0
C3023 C 0.55173 0.98916 0.46991 0.0
H3024 H 0.32704 0.32 0.71775 0.0
H3025 H 0.29538 0.36944 0.6973 0.0
H3026 H 0.28966 0.3799 0.72981 0.0
H3027 H 0.29313 0.37465 0.76432 0.0
H3028 H 0.3249 0.32509 0.7842 0.0
H3029 H 0.33165 0.31539 0.7517 0.0
C3030 C 0.31916 0.33323 0.7203 0.0
C3031 C 0.31177 0.34392 0.70492 0.0
C3032 C 0.3161 0.33926 0.73902 0.0
C3033 C 0.30108 0.36077 0.70874 0.0
C3034 C 0.29795 0.36686 0.72737 0.0
C3035 C 0.30189 0.36193 0.76149 0.0
C3036 C 0.30864 0.35067 0.77669 0.0
C3037 C 0.30538 0.35622 0.74266 0.0
C3038 C 0.31957 0.33402 0.77279 0.0
C3039 C 0.32336 0.32842 0.7542 0.0
H3040 H 0.91463 0.0548 1.0024 0.0
H3041 H 0.96221 0.01379 1.01227 0.0
H3042 H 0.98101 0.02528 0.98455 0.0
H3043 H 0.98362 0.04686 0.95697 0.0
H3044 H 0.93561 0.08736 0.94686 0.0
H3045 H 0.91698 0.076 0.97472 0.0
C3046 C 0.92907 0.04834 0.99838 0.0
C3047 C 0.93691 0.03327 1.00923 0.0
C3048 C 0.93954 0.05478 0.98216 0.0
C3049 C 0.95585 0.02533 1.00412 0.0
C3050 C 0.96652 0.03184 0.98819 0.0
C3051 C 0.96892 0.05293 0.96077 0.0
C3052 C 0.96075 0.06769 0.9497 0.0
C3053 C 0.95842 0.04642 0.97697 0.0
C3054 C 0.94195 0.07579 0.95497 0.0
C3055 C 0.93142 0.06939 0.97098 0.0
H3056 H 0.28693 0.26924 0.31066 0.0
H3057 H 0.30847 0.22866 0.35135 0.0
H3058 H 0.28036 0.23709 0.37271 0.0
H3059 H 0.24963 0.25619 0.38005 0.0
H3060 H 0.22858 0.29775 0.3402 0.0
H3061 H 0.25593 0.28858 0.31816 0.0
C3062 C 0.28552 0.26244 0.32431 0.0
C3063 C 0.29996 0.24854 0.32958 0.0
C3064 C 0.26917 0.26737 0.33655 0.0
C3065 C 0.29776 0.23958 0.34713 0.0
C3066 C 0.28159 0.24432 0.35928 0.0
C3067 C 0.25102 0.26316 0.36649 0.0
C3068 C 0.23713 0.27769 0.36178 0.0
C3069 C 0.26718 0.25816 0.35417 0.0
C3070 C 0.239 0.28648 0.34411 0.0
C3071 C 0.25477 0.28133 0.33159 0.0
H3072 H 0.073 1.00912 0.62417 0.0
H3073 H 0.01404 1.00832 0.59642 0.0
H3074 H 0.0161 0.04217 0.59096 0.0
H3075 H 0.03572 0.07189 0.59187 0.0
H3076 H 0.0948 0.07288 0.61912 0.0
H3077 H 0.0914 0.03949 0.62734 0.0
C3078 C 0.06051 0.01638 0.61713 0.0
C3079 C 0.04363 1.00596 0.61036 0.0
C3080 C 0.06174 0.03605 0.614 0.0
C3081 C 0.02756 0.01576 0.6013 0.0
C3082 C 0.0286 0.03523 0.5983 0.0
C3083 C 0.04757 0.06489 0.60004 0.0
C3084 C 0.06542 0.07487 0.60496 0.0
C3085 C 0.04576 0.0455 0.60428 0.0
C3086 C 0.08087 0.0655 0.61522 0.0
C3087 C 0.079 0.04636 0.61982 0.0
H3088 H 0.23767 0.76068 0.80896 0.0
H3089 H 0.20596 0.78883 0.85427 0.0
H3090 H 0.23377 0.78065 0.87611 0.0
H3091 H 0.26734 0.7657 0.88235 0.0
H3092 H 0.29708 0.73392 0.83835 0.0
H3093 H 0.27057 0.74393 0.81581 0.0
C3094 C 0.23682 0.76483 0.82367 0.0
C3095 C 0.21965 0.77524 0.83003 0.0
C3096 C 0.25274 0.75967 0.8363 0.0
C3097 C 0.21882 0.78063 0.84909 0.0
C3098 C 0.23482 0.77606 0.86154 0.0
C3099 C 0.2678 0.76061 0.86793 0.0
C3100 C 0.28396 0.74861 0.86222 0.0
C3101 C 0.25185 0.76558 0.85534 0.0
C3102 C 0.2848 0.74303 0.84319 0.0
C3103 C 0.26951 0.74864 0.83034 0.0
H3104 H 0.4922 0.0174 0.09736 0.0
H3105 H 0.43095 0.02912 0.11719 0.0
H3106 H 0.42202 0.99566 0.1136 0.0
H3107 H 0.43125 0.96336 0.10327 0.0
H3108 H 0.4923 0.95255 0.08217 0.0
H3109 H 0.50166 0.98533 0.08798 0.0
C3110 C 0.4768 0.01271 0.10077 0.0
C3111 C 0.46214 0.02589 0.10722 0.0
C3112 C 0.47177 0.99356 0.09851 0.0
C3113 C 0.44251 0.01936 0.11215 0.0
C3114 C 0.4374 1.00023 0.11002 0.0
C3115 C 0.44661 0.96815 0.09992 0.0
C3116 C 0.46102 0.95532 0.09226 0.0
C3117 C 0.45183 0.98723 0.10297 0.0
C3118 C 0.48095 0.96185 0.08834 0.0
C3119 C 0.48628 0.9807 0.09149 0.0
H3120 H 0.28104 0.7992 0.1973 0.0
H3121 H 0.29996 0.74452 0.21795 0.0
H3122 H 0.27069 0.72994 0.20232 0.0
H3123 H 0.24064 0.73222 0.18118 0.0
H3124 H 0.22155 0.7866 0.16056 0.0
H3125 H 0.24931 0.80179 0.17833 0.0
C3126 C 0.27869 0.78413 0.1987 0.0
C3127 C 0.29318 0.77308 0.20872 0.0
C3128 C 0.26149 0.77574 0.18983 0.0
C3129 C 0.28965 0.75349 0.21 0.0
C3130 C 0.27268 0.74509 0.2012 0.0
C3131 C 0.24222 0.74746 0.18106 0.0
C3132 C 0.22866 0.75832 0.16996 0.0
C3133 C 0.25863 0.75601 0.1909 0.0
C3134 C 0.23127 0.77799 0.16947 0.0
C3135 C 0.24741 0.78663 0.1794 0.0
H3136 H 0.49473 0.01272 0.41918 0.0
H3137 H 0.43296 0.99781 0.4032 0.0
H3138 H 0.4225 0.03093 0.40633 0.0
H3139 H 0.43046 0.06374 0.41578 0.0
H3140 H 0.49207 0.07786 0.43325 0.0
H3141 H 0.50303 0.04554 0.42708 0.0
C3142 C 0.47892 0.01666 0.41644 0.0
C3143 C 0.46456 1.00264 0.41128 0.0
C3144 C 0.473 0.03565 0.41848 0.0
C3145 C 0.44432 1.0082 0.40723 0.0
C3146 C 0.43833 0.02715 0.40911 0.0
C3147 C 0.44631 0.05979 0.41823 0.0
C3148 C 0.46035 0.07339 0.42511 0.0
C3149 C 0.45246 0.04095 0.41507 0.0
C3150 C 0.48092 0.06795 0.42776 0.0
C3151 C 0.48718 0.04934 0.42442 0.0
H3152 H 0.23641 0.26237 0.71699 0.0
H3153 H 0.21179 0.22419 0.67545 0.0
H3154 H 0.24024 0.23149 0.65407 0.0
H3155 H 0.27158 0.24949 0.64669 0.0
H3156 H 0.29478 0.28984 0.68679 0.0
H3157 H 0.26818 0.28052 0.7095 0.0
C3158 C 0.23726 0.25584 0.70317 0.0
C3159 C 0.22186 0.243 0.69762 0.0
C3160 C 0.25368 0.26023 0.69087 0.0
C3161 C 0.22327 0.23435 0.67984 0.0
C3162 C 0.23963 0.2384 0.6677 0.0
C3163 C 0.27093 0.25603 0.66052 0.0
C3164 C 0.28509 0.27035 0.66507 0.0
C3165 C 0.2549 0.25134 0.67303 0.0
C3166 C 0.28415 0.27869 0.68303 0.0
C3167 C 0.26875 0.27354 0.6959 0.0
H3168 H 0.08869 0.95924 0.91595 0.0
H3169 H 0.02638 0.94537 0.93121 0.0
H3170 H 0.01588 0.97784 0.92495 0.0
H3171 H 0.02484 1.01073 0.91797 0.0
H3172 H 0.08731 0.02528 0.90424 0.0
H3173 H 0.09729 0.99201 0.9071 0.0
C3174 C 0.07278 0.96328 0.91786 0.0
C3175 C 0.0584 0.94977 0.92423 0.0
C3176 C 0.06692 0.98217 0.9147 0.0
C3177 C 0.03777 0.95527 0.92617 0.0
C3178 C 0.03178 0.97394 0.92279 0.0
C3179 C 0.04069 1.00666 0.91565 0.0
C3180 C 0.05541 0.02059 0.91126 0.0
C3181 C 0.04631 0.98759 0.91753 0.0
C3182 C 0.07571 0.01492 0.90771 0.0
C3183 C 0.08141 0.9959 0.90943 0.0
H3184 H 0.2861 0.31823 0.22566 0.0
H3185 H 0.33394 0.32846 0.18512 0.0
H3186 H 0.35287 0.30078 0.19664 0.0
H3187 H 0.35554 0.27321 0.21801 0.0
H3188 H 0.30814 0.26327 0.25909 0.0
H3189 H 0.28903 0.29077 0.24739 0.0
C3190 C 0.30083 0.31449 0.2196 0.0
C3191 C 0.30886 0.32554 0.20479 0.0
C3192 C 0.3115 0.29839 0.22621 0.0
C3193 C 0.32769 0.32036 0.19673 0.0
C3194 C 0.3384 0.30444 0.20323 0.0
C3195 C 0.34107 0.27715 0.22444 0.0
C3196 C 0.33339 0.26634 0.2396 0.0
C3197 C 0.33042 0.29327 0.21789 0.0
C3198 C 0.3144 0.27137 0.24748 0.0
C3199 C 0.30355 0.28718 0.24086 0.0
H3200 H 0.77906 0.22234 0.82075 0.0
H3201 H 0.82166 0.18459 0.7932 0.0
H3202 H 0.8353 0.21108 0.77507 0.0
H3203 H 0.83611 0.24543 0.76816 0.0
H3204 H 0.80918 0.28207 0.81005 0.0
H3205 H 0.78826 0.25624 0.82144 0.0
C3206 C 0.79189 0.21971 0.81141 0.0
C3207 C 0.7987 0.20098 0.80816 0.0
C3208 C 0.80208 0.23528 0.80326 0.0
C3209 C 0.81513 0.19846 0.79546 0.0
C3210 C 0.82326 0.21373 0.78527 0.0
C3211 C 0.82588 0.24794 0.77995 0.0
C3212 C 0.82293 0.26662 0.78672 0.0
C3213 C 0.81691 0.23229 0.78916 0.0
C3214 C 0.80996 0.26889 0.80249 0.0
C3215 C 0.79861 0.25372 0.80974 0.0
H3216 H 0.99568 0.59816 0.97684 0.0
H3217 H 0.97369 0.61713 0.0309 0.0
H3218 H 1.00125 0.59969 0.04674 0.0
H3219 H 0.03292 0.58051 0.04515 0.0
H3220 H 0.05474 0.56132 0.99087 0.0
H3221 H 0.02641 0.57758 0.97536 0.0
C3222 C 0.99672 0.59813 0.99212 0.0
C3223 C 0.98223 0.60853 1.00268 0.0
C3224 C 0.01293 0.58832 1.00113 0.0
C3225 C 0.98414 0.60876 0.02245 0.0
C3226 C 1.00011 0.59897 0.03149 0.0
C3227 C 0.03144 0.5796 0.02994 0.0
C3228 C 0.04641 0.56967 0.01934 0.0
C3229 C 0.01478 0.58885 0.02098 0.0
C3230 C 0.04401 0.5691 0.99956 0.0
C3231 C 0.02759 0.57829 0.99061 0.0
H3232 H 0.70409 0.77361 0.26815 0.0
H3233 H 0.66435 0.75836 0.31415 0.0
H3234 H 0.67632 0.78568 0.33237 0.0
H3235 H 0.6977 0.81445 0.33502 0.0
H3236 H 0.73942 0.82843 0.2901 0.0
H3237 H 0.72689 0.8016 0.27153 0.0
C3238 C 0.69834 0.77617 0.28229 0.0
C3239 C 0.68351 0.76389 0.28991 0.0
C3240 C 0.70541 0.79194 0.29273 0.0
C3241 C 0.67595 0.76748 0.30813 0.0
C3242 C 0.68268 0.78319 0.31846 0.0
C3243 C 0.70402 0.8116 0.32116 0.0
C3244 C 0.71942 0.82357 0.31393 0.0
C3245 C 0.69729 0.79563 0.31087 0.0
C3246 C 0.72744 0.81962 0.29593 0.0
C3247 C 0.72038 0.80416 0.28537 0.0
H3248 H 0.019 0.89139 0.01634 0.0
H3249 H 0.04775 0.93537 0.98386 0.0
H3250 H 0.02138 0.95785 0.99431 0.0
H3251 H 0.9889 0.96472 1.01176 0.0
H3252 H 0.95835 0.91951 0.041 0.0
H3253 H 0.98594 0.89769 0.03219 0.0
C3254 C 0.01928 0.9058 1.01121 0.0
C3255 C 0.03512 0.91151 0.99888 0.0
C3256 C 1.00345 0.9184 0.01654 0.0
C3257 C 0.03572 0.93052 0.99322 0.0
C3258 C 0.02051 0.94335 0.99909 0.0
C3259 C 0.98826 0.95004 0.01602 0.0
C3260 C 0.97147 0.9437 0.02692 0.0
C3261 C 1.00408 0.93741 1.01053 0.0
C3262 C 0.97092 0.92467 0.03245 0.0
C3263 C 0.98679 0.91223 0.02751 0.0
H3264 H 0.23206 0.70587 0.7267 0.0
H3265 H 0.18271 0.69297 0.68842 0.0
H3266 H 0.16338 0.72041 0.69988 0.0
H3267 H 0.16092 0.74882 0.72017 0.0
H3268 H 0.20982 0.76149 0.75903 0.0
H3269 H 0.22914 0.73395 0.74772 0.0
C3270 C 0.2169 0.70893 0.72116 0.0
C3271 C 0.20861 0.69719 0.70697 0.0
C3272 C 0.20597 0.72495 0.72771 0.0
C3273 C 0.1892 0.70157 0.69957 0.0
C3274 C 0.17825 0.71737 0.70602 0.0
C3275 C 0.1757 0.74541 0.72631 0.0
C3276 C 0.18376 0.75706 0.7407 0.0
C3277 C 0.18652 0.72927 0.71998 0.0
C3278 C 0.20323 0.75274 0.74805 0.0
C3279 C 0.21422 0.73691 0.74164 0.0
H3280 H 0.99355 0.39814 0.50383 0.0
H3281 H 0.97719 0.43493 0.54976 0.0
H3282 H 1.00534 0.45641 0.54137 0.0
H3283 H 0.03549 0.46436 0.52111 0.0
H3284 H 0.05153 0.42704 0.47541 0.0
H3285 H 0.02318 0.40603 0.48369 0.0
C3286 C 0.99604 0.41101 0.51181 0.0
C3287 C 0.98324 0.41505 0.52729 0.0
C3288 C 0.01255 0.42301 0.50714 0.0
C3289 C 0.9867 0.43166 0.53765 0.0
C3290 C 1.00294 0.44383 0.53296 0.0
C3291 C 0.03289 0.45148 0.51319 0.0
C3292 C 0.04582 0.4471 0.49783 0.0
C3293 C 0.01618 0.43955 0.51786 0.0
C3294 C 0.04198 0.43058 0.48741 0.0
C3295 C 0.02566 0.41863 0.49206 0.0
H3296 H 0.48724 0.55999 1.01192 0.0
H3297 H 0.45571 0.60548 0.98389 0.0
H3298 H 0.48313 0.6274 0.99291 0.0
H3299 H 0.51637 0.63359 1.00844 0.0
H3300 H 0.54606 0.58922 0.03974 0.0
H3301 H 0.51978 0.56674 0.02919 0.0
C3302 C 0.48634 0.57476 1.008 0.0
C3303 C 0.46938 0.58118 0.99739 0.0
C3304 C 0.50204 0.58739 0.01358 0.0
C3305 C 0.46845 0.6003 0.99225 0.0
C3306 C 0.48421 0.61278 0.99729 0.0
C3307 C 0.51685 0.6191 0.01329 0.0
C3308 C 0.53291 0.61324 0.02531 0.0
C3309 C 0.50109 0.60651 1.00794 0.0
C3310 C 0.53382 0.59415 0.03063 0.0
C3311 C 0.51868 0.58133 0.02471 0.0
H3312 H 0.73155 0.83824 0.81869 0.0
H3313 H 0.67477 0.86925 0.82118 0.0
H3314 H 0.67807 0.87773 0.78782 0.0
H3315 H 0.69564 0.874 0.75711 0.0
H3316 H 0.75208 0.84219 0.75471 0.0
H3317 H 0.75028 0.83628 0.78851 0.0
C3318 C 0.72021 0.84725 0.812 0.0
C3319 C 0.70306 0.85328 0.82241 0.0
C3320 C 0.7219 0.8516 0.79263 0.0
C3321 C 0.6882 0.86458 0.81347 0.0
C3322 C 0.69 0.86931 0.79436 0.0
C3323 C 0.70764 0.86594 0.76401 0.0
C3324 C 0.72373 0.85825 0.75317 0.0
C3325 C 0.70654 0.86253 0.78364 0.0
C3326 C 0.73916 0.84785 0.76249 0.0
C3327 C 0.73827 0.84458 0.78192 0.0
H3328 H 0.48981 0.48326 0.06454 0.0
H3329 H 0.44307 0.44309 0.07961 0.0
H3330 H 0.42273 0.45232 0.05202 0.0
H3331 H 0.41847 0.47133 0.02308 0.0
H3332 H 0.46414 0.51266 1.00848 0.0
H3333 H 0.48493 0.50315 0.03582 0.0
C3334 C 0.47503 0.47677 0.06187 0.0
C3335 C 0.46779 0.46271 0.07429 0.0
C3336 C 0.46339 0.48215 0.04583 0.0
C3337 C 0.44879 0.45415 0.07047 0.0
C3338 C 0.43724 0.45932 0.05459 0.0
C3339 C 0.43284 0.47843 0.02604 0.0
C3340 C 0.43954 0.49297 0.01393 0.0
C3341 C 0.4444 0.47324 0.04211 0.0
C3342 C 0.45857 0.50153 0.01762 0.0
C3343 C 0.47039 0.49616 0.03333 0.0
H3344 H 0.7876 0.19232 0.31643 0.0
H3345 H 0.83545 0.15104 0.32372 0.0
H3346 H 0.83249 0.1418 0.29049 0.0
H3347 H 0.81821 0.14732 0.2587 0.0
H3348 H 0.77078 0.18929 0.25152 0.0
H3349 H 0.77193 0.19657 0.28502 0.0
C3350 C 0.79695 0.18096 0.3108 0.0
C3351 C 0.81145 0.17212 0.32252 0.0
C3352 C 0.79562 0.17617 0.29152 0.0
C3353 C 0.82394 0.1578 0.31498 0.0
C3354 C 0.82239 0.15266 0.29595 0.0
C3355 C 0.80797 0.15792 0.26444 0.0
C3356 C 0.79464 0.16789 0.25231 0.0
C3357 C 0.8086 0.16204 0.28394 0.0
C3358 C 0.78161 0.18167 0.26023 0.0
C3359 C 0.78208 0.18575 0.27953 0.0
H3360 H 0.02925 0.57392 0.55194 0.0
H3361 H 0.07233 0.5485 0.59072 0.0
H3362 H 0.08666 0.52988 0.56485 0.0
H3363 H 0.0877 0.52174 0.5308 0.0
H3364 H 0.06022 0.56201 0.49274 0.0
H3365 H 0.03881 0.57381 0.51804 0.0
C3366 C 0.04234 0.56501 0.55493 0.0
C3367 C 0.04904 0.56243 0.57381 0.0
C3368 C 0.05288 0.55659 0.53965 0.0
C3369 C 0.06585 0.55021 0.57675 0.0
C3370 C 0.07437 0.53974 0.56184 0.0
C3371 C 0.07729 0.5333 0.52783 0.0
C3372 C 0.07433 0.53935 0.50891 0.0
C3373 C 0.06804 0.54288 0.54314 0.0
C3374 C 0.06103 0.55483 0.5061 0.0
C3375 C 0.0494 0.56238 0.52098 0.0
H3376 H 0.67787 0.16838 0.70897 0.0
H3377 H 0.73935 0.18765 0.69722 0.0
H3378 H 0.74886 0.18255 0.73018 0.0
H3379 H 0.73922 0.17457 0.76278 0.0
H3380 H 0.67762 0.15602 0.7749 0.0
H3381 H 0.66865 0.15897 0.74142 0.0
C3382 C 0.69339 0.1714 0.71358 0.0
C3383 C 0.70784 0.17846 0.70051 0.0
C3384 C 0.69867 0.16876 0.73271 0.0
C3385 C 0.72796 0.18198 0.70678 0.0
C3386 C 0.73336 0.17926 0.72573 0.0
C3387 C 0.72376 0.17129 0.75813 0.0
C3388 C 0.70899 0.16539 0.77144 0.0
C3389 C 0.71874 0.17302 0.73887 0.0
C3390 C 0.68925 0.16065 0.76503 0.0
C3391 C 0.68412 0.16238 0.74588 0.0
H3392 H 0.06882 0.43639 0.96515 0.0
H3393 H 0.02853 0.48249 0.95106 0.0
H3394 H 0.04104 0.50039 0.9783 0.0
H3395 H 0.06433 0.50326 1.00599 0.0
H3396 H 0.10159 0.45572 0.02202 0.0
H3397 H 0.08886 0.43776 0.99483 0.0
C3398 C 0.06266 0.45029 0.96815 0.0
C3399 C 0.04792 0.45816 0.95585 0.0
C3400 C 0.06913 0.4601 0.98449 0.0
C3401 C 0.04013 0.47622 0.96002 0.0
C3402 C 0.04714 0.48639 0.97574 0.0
C3403 C 0.06915 0.48877 1.00379 0.0
C3404 C 0.08366 0.48071 0.01613 0.0
C3405 C 0.06165 0.47849 0.98811 0.0
C3406 C 0.09013 0.46205 0.01293 0.0
C3407 C 0.08306 0.4519 0.99723 0.0
H3408 H 0.82063 0.87545 0.26776 0.0
H3409 H 0.77144 0.83514 0.27356 0.0
H3410 H 0.77351 0.82767 0.2401 0.0
H3411 H 0.79039 0.83129 0.20915 0.0
H3412 H 0.84025 0.87067 0.20335 0.0
H3413 H 0.83649 0.88013 0.23645 0.0
C3414 C 0.81024 0.86516 0.2617 0.0
C3415 C 0.79608 0.85574 0.27341 0.0
C3416 C 0.8115 0.86086 0.24226 0.0
C3417 C 0.78284 0.84235 0.26514 0.0
C3418 C 0.78386 0.83815 0.24588 0.0
C3419 C 0.80006 0.84226 0.21508 0.0
C3420 C 0.81535 0.8505 0.2038 0.0
C3421 C 0.79824 0.84717 0.2343 0.0
C3422 C 0.82819 0.86433 0.21174 0.0
C3423 C 0.82615 0.86962 0.2307 0.0
H3424 H 0.4538 0.52318 0.50352 0.0
H3425 H 0.41819 0.57115 0.52136 0.0
H3426 H 0.43039 0.58928 0.49412 0.0
H3427 H 0.44948 0.59075 0.46395 0.0
H3428 H 0.48863 0.54427 0.4483 0.0
H3429 H 0.47632 0.52608 0.47537 0.0
C3430 C 0.44928 0.5378 0.50172 0.0
C3431 C 0.43537 0.54594 0.51458 0.0
C3432 C 0.45647 0.54818 0.48602 0.0
C3433 C 0.42924 0.56476 0.51188 0.0
C3434 C 0.43596 0.57501 0.49614 0.0
C3435 C 0.4554 0.57667 0.46654 0.0
C3436 C 0.46974 0.56882 0.45386 0.0
C3437 C 0.44925 0.56674 0.48288 0.0
C3438 C 0.47726 0.55055 0.45752 0.0
C3439 C 0.47042 0.54022 0.47318 0.0
H3440 H 0.75081 0.7611 0.88297 0.0
H3441 H 0.72074 0.79083 0.83774 0.0
H3442 H 0.74716 0.77989 0.81556 0.0
H3443 H 0.78002 0.76288 0.80932 0.0
H3444 H 0.81192 0.73661 0.85563 0.0
H3445 H 0.78427 0.74579 0.87722 0.0
C3446 C 0.75023 0.76549 0.86833 0.0
C3447 C 0.73403 0.77721 0.86216 0.0
C3448 C 0.76609 0.75997 0.8559 0.0
C3449 C 0.73307 0.78196 0.84292 0.0
C3450 C 0.74829 0.77582 0.83027 0.0
C3451 C 0.78095 0.75937 0.82419 0.0
C3452 C 0.79811 0.74921 0.83092 0.0
C3453 C 0.7651 0.76507 0.83664 0.0
C3454 C 0.79905 0.74462 0.85018 0.0
C3455 C 0.78315 0.74975 0.86248 0.0
H3456 H 0.51923 0.51588 0.11618 0.0
H3457 H 0.58172 0.49591 0.11543 0.0
H3458 H 0.59372 0.52772 0.10757 0.0
H3459 H 0.58647 0.56109 0.10096 0.0
H3460 H 0.52356 0.58038 0.09891 0.0
H3461 H 0.5119 0.54921 0.10859 0.0
C3462 C 0.5355 0.51853 0.11442 0.0
C3463 C 0.54958 0.50351 0.11651 0.0
C3464 C 0.54225 0.53681 0.10961 0.0
C3465 C 0.57056 0.50714 0.11384 0.0
C3466 C 0.57742 0.52536 0.10942 0.0
C3467 C 0.57015 0.55857 0.10232 0.0
C3468 C 0.55602 0.57343 0.09906 0.0
C3469 C 0.5634 0.5403 0.1072 0.0
C3470 C 0.53498 0.56962 0.10157 0.0
C3471 C 0.52822 0.55162 0.10693 0.0
H3472 H 0.73675 0.29584 0.33217 0.0
H3473 H 0.71043 0.24198 0.31716 0.0
H3474 H 0.73854 0.22577 0.33319 0.0
H3475 H 0.77065 0.22665 0.352 0.0
H3476 H 0.79637 0.2804 0.36766 0.0
H3477 H 0.76905 0.29672 0.35044 0.0
C3478 C 0.73718 0.28055 0.33219 0.0
C3479 C 0.72117 0.27028 0.32337 0.0
C3480 C 0.75361 0.2712 0.34139 0.0
C3481 C 0.72212 0.25042 0.324 0.0
C3482 C 0.73838 0.24107 0.33306 0.0
C3483 C 0.77044 0.24195 0.35133 0.0
C3484 C 0.78605 0.25225 0.36058 0.0
C3485 C 0.75423 0.25128 0.34183 0.0
C3486 C 0.78517 0.27207 0.36005 0.0
C3487 C 0.76929 0.28143 0.35043 0.0
H3488 H 0.99011 0.51549 0.60093 0.0
H3489 H 0.92892 0.52696 0.62108 0.0
H3490 H 0.92037 0.49339 0.61834 0.0
H3491 H 0.9297 0.46108 0.60854 0.0
H3492 H 0.99064 0.44993 0.58751 0.0
H3493 H 0.99994 0.48297 0.59258 0.0
C3494 C 0.97483 0.51068 0.60461 0.0
C3495 C 0.96005 0.52384 0.61091 0.0
C3496 C 0.97003 0.49137 0.60297 0.0
C3497 C 0.94056 0.51722 0.61616 0.0
C3498 C 0.93566 0.49801 0.61454 0.0
C3499 C 0.94507 0.46584 0.60514 0.0
C3500 C 0.95942 0.45293 0.59756 0.0
C3501 C 0.95019 0.485 0.60774 0.0
C3502 C 0.97934 0.45938 0.59356 0.0
C3503 C 0.9846 0.47836 0.59626 0.0
H3504 H 0.78652 0.25591 0.71203 0.0
H3505 H 0.79933 0.30331 0.67588 0.0
H3506 H 0.77111 0.29426 0.65498 0.0
H3507 H 0.74252 0.27289 0.64681 0.0
H3508 H 0.72919 0.22549 0.68266 0.0
H3509 H 0.75732 0.23455 0.70394 0.0
C3510 C 0.78324 0.26406 0.69943 0.0
C3511 C 0.79522 0.28014 0.69537 0.0
C3512 C 0.76658 0.25894 0.68759 0.0
C3513 C 0.7905 0.2908 0.6792 0.0
C3514 C 0.77426 0.28569 0.66731 0.0
C3515 C 0.74563 0.26476 0.65946 0.0
C3516 C 0.73366 0.24869 0.66332 0.0
C3517 C 0.76208 0.26989 0.6714 0.0
C3518 C 0.73801 0.23807 0.67957 0.0
C3519 C 0.75424 0.24316 0.69162 0.0
H3520 H 0.98214 0.56622 0.94081 0.0
H3521 H 0.92956 0.57109 0.90431 0.0
H3522 H 0.9324 0.53768 0.89583 0.0
H3523 H 0.948 0.50636 0.90103 0.0
H3524 H 1.00033 0.50159 0.93811 0.0
H3525 H 0.99923 0.53534 0.94429 0.0
C3526 C 0.97169 0.56003 0.93061 0.0
C3527 C 0.95582 0.5711 0.92302 0.0
C3528 C 0.97303 0.54064 0.92627 0.0
C3529 C 0.94203 0.56284 0.91018 0.0
C3530 C 0.94354 0.54371 0.90546 0.0
C3531 C 0.9593 0.5127 0.91031 0.0
C3532 C 0.97396 0.5012 0.91936 0.0
C3533 C 0.95868 0.53232 0.91378 0.0
C3534 C 0.98844 0.50985 0.93136 0.0
C3535 C 0.98799 0.52927 0.93477 0.0
H3536 H 0.73904 0.72833 0.19291 0.0
H3537 H 0.71396 0.78245 0.20884 0.0
H3538 H 0.74236 0.79837 0.19302 0.0
H3539 H 0.77427 0.79713 0.17405 0.0
H3540 H 0.79866 0.74314 0.15734 0.0
H3541 H 0.77115 0.72708 0.17447 0.0
C3542 C 0.73982 0.74361 0.19313 0.0
C3543 C 0.7241 0.75406 0.20212 0.0
C3544 C 0.75637 0.75277 0.18403 0.0
C3545 C 0.72546 0.77391 0.20184 0.0
C3546 C 0.74187 0.78308 0.19291 0.0
C3547 C 0.77373 0.78183 0.17449 0.0
C3548 C 0.78899 0.77136 0.16496 0.0
C3549 C 0.75742 0.77268 0.18391 0.0
C3550 C 0.7877 0.75156 0.16516 0.0
C3551 C 0.77174 0.74237 0.17474 0.0
H3552 H 0.52701 0.51744 0.42056 0.0
H3553 H 0.58883 0.53054 0.40338 0.0
H3554 H 0.5981 0.49705 0.40583 0.0
H3555 H 0.58915 0.4644 0.41503 0.0
H3556 H 0.52748 0.452 0.43345 0.0
H3557 H 0.51762 0.48477 0.42804 0.0
C3558 C 0.54257 0.51301 0.4174 0.0
C3559 C 0.55732 0.5266 0.41212 0.0
C3560 C 0.54779 0.4938 0.419 0.0
C3561 C 0.5772 0.52046 0.40753 0.0
C3562 C 0.58251 0.50131 0.40901 0.0
C3563 C 0.57352 0.46883 0.41781 0.0
C3564 C 0.55913 0.4556 0.42475 0.0
C3565 C 0.56802 0.4879 0.41506 0.0
C3566 C 0.53886 0.46164 0.42789 0.0
C3567 C 0.53324 0.48049 0.425 0.0
H3568 H 0.7829 0.81622 0.72746 0.0
H3569 H 0.82977 0.82562 0.68575 0.0
H3570 H 0.84874 0.79796 0.69714 0.0
H3571 H 0.85186 0.77073 0.7188 0.0
H3572 H 0.8056 0.76156 0.76112 0.0
H3573 H 0.78627 0.78899 0.74949 0.0
C3574 C 0.79741 0.81229 0.72108 0.0
C3575 C 0.80512 0.8231 0.70595 0.0
C3576 C 0.80816 0.7962 0.72766 0.0
C3577 C 0.82372 0.81768 0.69755 0.0
C3578 C 0.83447 0.80178 0.70399 0.0
C3579 C 0.83758 0.77481 0.72551 0.0
C3580 C 0.8303 0.76426 0.74099 0.0
C3581 C 0.82683 0.79087 0.71898 0.0
C3582 C 0.81155 0.76948 0.74925 0.0
C3583 C 0.80058 0.78524 0.74267 0.0
H3584 H 0.31573 0.71879 0.34115 0.0
H3585 H 0.27771 0.70241 0.29418 0.0
H3586 H 0.29023 0.72938 0.27591 0.0
H3587 H 0.31281 0.75753 0.27309 0.0
H3588 H 0.34746 0.7759 0.32146 0.0
H3589 H 0.33477 0.74894 0.33971 0.0
C3590 C 0.31001 0.72125 0.32698 0.0
C3591 C 0.29582 0.70845 0.31905 0.0
C3592 C 0.31635 0.73746 0.31698 0.0
C3593 C 0.28876 0.71184 0.30059 0.0
C3594 C 0.29577 0.7274 0.2902 0.0
C3595 C 0.31698 0.75593 0.28783 0.0
C3596 C 0.33075 0.76887 0.29606 0.0
C3597 C 0.30953 0.74037 0.29826 0.0
C3598 C 0.33649 0.76639 0.31501 0.0
C3599 C 0.32949 0.7508 0.32533 0.0
H3600 H 0.49829 0.10271 0.47654 0.0
H3601 H 0.4726 0.11851 0.53025 0.0
H3602 H 0.50009 0.10157 0.54661 0.0
H3603 H 0.53245 0.08343 0.54577 0.0
H3604 H 0.55877 0.06825 0.49197 0.0
H3605 H 0.53055 0.08408 0.47571 0.0
C3606 C 0.49855 0.10213 0.49183 0.0
C3607 C 0.4829 0.11134 0.50212 0.0
C3608 C 0.51486 0.09278 0.50119 0.0
C3609 C 0.48385 0.11094 0.52194 0.0
C3610 C 0.49981 0.10147 0.53132 0.0
C3611 C 0.532 0.08337 0.53048 0.0
C3612 C 0.54803 0.07455 0.52025 0.0
C3613 C 0.51552 0.09245 0.52111 0.0
C3614 C 0.54706 0.07509 0.50038 0.0
C3615 C 0.53074 0.08403 0.491 0.0
H3616 H 0.19703 0.31217 0.83552 0.0
H3617 H 0.24224 0.32303 0.79258 0.0
H3618 H 0.23027 0.2956 0.77461 0.0
H3619 H 0.20654 0.26833 0.77089 0.0
H3620 H 0.16335 0.25606 0.81512 0.0
H3621 H 0.17519 0.28365 0.83298 0.0
C3622 C 0.20429 0.30847 0.82225 0.0
C3623 C 0.22039 0.31984 0.81534 0.0
C3624 C 0.19785 0.29216 0.81233 0.0
C3625 C 0.22963 0.31477 0.79812 0.0
C3626 C 0.2229 0.29895 0.7879 0.0
C3627 C 0.20004 0.27156 0.7846 0.0
C3628 C 0.18418 0.2601 0.79175 0.0
C3629 C 0.20703 0.28748 0.79486 0.0
C3630 C 0.17571 0.26455 0.80944 0.0
C3631 C 0.18237 0.28043 0.81957 0.0
H3632 H 0.48475 0.44524 0.54262 0.0
H3633 H 0.46392 0.46559 0.48843 0.0
H3634 H 0.49231 0.44939 0.47301 0.0
H3635 H 0.52284 0.42855 0.47452 0.0
H3636 H 0.54393 0.40857 0.52853 0.0
H3637 H 0.51625 0.4259 0.5443 0.0
C3638 C 0.48646 0.44643 0.52746 0.0
C3639 C 0.47174 0.45666 0.51685 0.0
C3640 C 0.50318 0.43723 0.51856 0.0
C3641 C 0.47444 0.45757 0.49712 0.0
C3642 C 0.4909 0.44841 0.48821 0.0
C3643 C 0.52158 0.42834 0.48978 0.0
C3644 C 0.53583 0.41768 0.50037 0.0
C3645 C 0.50533 0.43811 0.49874 0.0
C3646 C 0.53365 0.41713 0.52009 0.0
C3647 C 0.51761 0.42686 0.52909 0.0
H3648 H 0.70359 0.25178 0.25648 0.0
H3649 H 0.66357 0.26617 0.21034 0.0
H3650 H 0.67602 0.23889 0.19233 0.0
H3651 H 0.69775 0.21024 0.18998 0.0
H3652 H 0.73957 0.19706 0.23513 0.0
H3653 H 0.72686 0.22405 0.25334 0.0
C3654 C 0.69788 0.24905 0.24236 0.0
C3655 C 0.6828 0.26107 0.23466 0.0
C3656 C 0.70522 0.23329 0.23204 0.0
C3657 C 0.67533 0.25725 0.21644 0.0
C3658 C 0.68235 0.24156 0.20622 0.0
C3659 C 0.70408 0.21332 0.2038 0.0
C3660 C 0.71954 0.20147 0.21122 0.0
C3661 C 0.69716 0.22935 0.21392 0.0
C3662 C 0.72756 0.20574 0.22916 0.0
C3663 C 0.72037 0.2213 0.23952 0.0
H3664 H 0.48593 0.90517 0.99421 0.0
H3665 H 0.48098 0.93296 0.04802 0.0
H3666 H 0.5095 0.95395 0.03977 0.0
H3667 H 0.53748 0.96324 0.0177 0.0
H3668 H 0.54201 0.9354 0.9638 0.0
H3669 H 0.51249 0.91556 0.97156 0.0
C3670 C 0.49075 0.91622 1.00384 0.0
C3671 C 0.48107 0.91782 0.02153 0.0
C3672 C 0.50752 0.92794 0.99913 0.0
C3673 C 0.48788 0.93177 0.03416 0.0
C3674 C 0.50439 0.9436 0.02953 0.0
C3675 C 0.53202 0.95274 1.00776 0.0
C3676 C 0.54211 0.95063 0.99028 0.0
C3677 C 0.51465 0.94158 1.01219 0.0
C3678 C 0.53463 0.9372 0.97738 0.0
C3679 C 0.51767 0.92591 0.98178 0.0
H3680 H 0.0164 0.13251 0.51208 0.0
H3681 H 0.04761 0.08819 0.54218 0.0
H3682 H 0.02149 0.06544 0.53179 0.0
H3683 H 0.98851 0.05847 0.51525 0.0
H3684 H 0.9554 0.10398 0.48882 0.0
H3685 H 0.98283 0.12607 0.49729 0.0
C3686 C 0.01729 0.11795 0.51669 0.0
C3687 C 0.03372 0.1122 0.52835 0.0
C3688 C 1.00158 0.10521 0.51153 0.0
C3689 C 0.03509 0.09305 0.53335 0.0
C3690 C 0.02004 0.08007 0.52753 0.0
C3691 C 0.98728 0.07327 0.51153 0.0
C3692 C 0.96983 0.07962 0.50153 0.0
C3693 C 1.00299 0.08603 0.51687 0.0
C3694 C 0.96849 0.09881 0.49671 0.0
C3695 C 0.98427 0.11141 0.50143 0.0
H3696 H 0.14131 0.441 0.41158 0.0
H3697 H 0.11154 0.42548 0.46351 0.0
H3698 H 0.11811 0.39203 0.45698 0.0
H3699 H 0.13491 0.36724 0.43765 0.0
H3700 H 0.16561 0.38282 0.38625 0.0
H3701 H 0.15579 0.41593 0.39103 0.0
C3702 C 0.1358 0.43023 0.42118 0.0
C3703 C 0.1256 0.4357 0.43787 0.0
C3704 C 0.13986 0.41096 0.41738 0.0
C3705 C 0.11917 0.42161 0.45048 0.0
C3706 C 0.12299 0.40248 0.44677 0.0
C3707 C 0.1389 0.37785 0.42727 0.0
C3708 C 0.15065 0.37258 0.41143 0.0
C3709 C 0.1336 0.39697 0.4304 0.0
C3710 C 0.15626 0.38651 0.39834 0.0
C3711 C 0.1508 0.40547 0.40119 0.0
H3712 H 0.91547 0.89354 0.61576 0.0
H3713 H 0.9302 0.88332 0.67418 0.0
H3714 H 0.89406 0.87749 0.68114 0.0
H3715 H 0.85803 0.8785 0.67145 0.0
H3716 H 0.84239 0.8894 0.61338 0.0
H3717 H 0.87898 0.89156 0.60535 0.0
C3718 C 0.91076 0.88953 0.62987 0.0
C3719 C 0.92548 0.88879 0.64445 0.0
C3720 C 0.88975 0.88663 0.63388 0.0
C3721 C 0.91916 0.8839 0.66275 0.0
C3722 C 0.89848 0.8807 0.66675 0.0
C3723 C 0.86263 0.88127 0.657 0.0
C3724 C 0.8475 0.8841 0.64308 0.0
C3725 C 0.8836 0.88258 0.65258 0.0
C3726 C 0.85372 0.88724 0.62436 0.0
C3727 C 0.87465 0.88854 0.6198 0.0
H3728 H 0.39015 0.65677 0.93011 0.0
H3729 H 0.3542 0.64117 0.88161 0.0
H3730 H 0.36359 0.60793 0.88606 0.0
H3731 H 0.37867 0.58276 0.90616 0.0
H3732 H 0.41309 0.59833 0.95562 0.0
H3733 H 0.40797 0.63185 0.94845 0.0
C3734 C 0.38498 0.64612 0.92018 0.0
C3735 C 0.37184 0.65145 0.9053 0.0
C3736 C 0.39001 0.62691 0.9232 0.0
C3737 C 0.36467 0.63745 0.8929 0.0
C3738 C 0.36988 0.61842 0.89558 0.0
C3739 C 0.38555 0.59355 0.91499 0.0
C3740 C 0.39658 0.58809 0.93123 0.0
C3741 C 0.38209 0.61287 0.91098 0.0
C3742 C 0.40487 0.6022 0.9429 0.0
C3743 C 0.4018 0.62137 0.93886 0.0
H3744 H 0.66027 0.14541 0.16982 0.0
H3745 H 0.6764 0.138 0.11132 0.0
H3746 H 0.63988 0.13603 0.10291 0.0
H3747 H 0.60335 0.13324 0.1129 0.0
H3748 H 0.58818 0.13993 0.17175 0.0
H3749 H 0.62422 0.14549 0.17931 0.0
C3750 C 0.6558 0.14343 0.1552 0.0
C3751 C 0.67105 0.14153 0.14125 0.0
C3752 C 0.63489 0.14217 0.15056 0.0
C3753 C 0.66498 0.13943 0.12233 0.0
C3754 C 0.6441 0.13823 0.11754 0.0
C3755 C 0.60794 0.13638 0.12728 0.0
C3756 C 0.59312 0.13615 0.14177 0.0
C3757 C 0.62889 0.13918 0.13161 0.0
C3758 C 0.5993 0.13999 0.16039 0.0
C3759 C 0.61991 0.14309 0.16472 0.0
H3760 H 0.17362 0.64844 0.09035 0.0
H3761 H 0.12892 0.65498 0.13485 0.0
H3762 H 0.11248 0.62556 0.12441 0.0
H3763 H 0.11234 0.59699 0.1023 0.0
H3764 H 0.17097 0.58342 0.0773 0.0
H3765 H 0.18225 0.6157 0.08178 0.0
C3766 C 0.16145 0.64318 0.09926 0.0
C3767 C 0.15313 0.65451 0.11377 0.0
C3768 C 0.15477 0.62457 0.09635 0.0
C3769 C 0.13564 0.64733 0.12317 0.0
C3770 C 0.12645 0.63014 0.11753 0.0
C3771 C 0.12787 0.6007 0.09838 0.0
C3772 C 0.13982 0.58808 0.08729 0.0
C3773 C 0.13609 0.61842 0.10414 0.0
C3774 C 0.16035 0.59328 0.08368 0.0
C3775 C 0.16706 0.61172 0.08655 0.0
H3776 H 0.66214 0.87635 0.3572 0.0
H3777 H 0.67752 0.88624 0.4155 0.0
H3778 H 0.64087 0.88885 0.42333 0.0
H3779 H 0.6045 0.89172 0.41266 0.0
H3780 H 0.59013 0.88221 0.354 0.0
H3781 H 0.62619 0.87587 0.34727 0.0
C3782 C 0.65745 0.87891 0.37167 0.0
C3783 C 0.67252 0.88136 0.38571 0.0
C3784 C 0.63648 0.88051 0.37597 0.0
C3785 C 0.66622 0.88433 0.40444 0.0
C3786 C 0.64527 0.88591 0.40888 0.0
C3787 C 0.60925 0.88778 0.39853 0.0
C3788 C 0.59464 0.88751 0.38381 0.0
C3789 C 0.63024 0.88447 0.39466 0.0
C3790 C 0.60106 0.8826 0.36552 0.0
C3791 C 0.6217 0.87905 0.36165 0.0
H3792 H 0.40496 0.42905 0.59868 0.0
H3793 H 0.34668 0.44263 0.57293 0.0
H3794 H 0.33554 0.41024 0.57677 0.0
H3795 H 0.34402 0.37751 0.58531 0.0
H3796 H 0.38785 0.37085 0.63056 0.0
H3797 H 0.40458 0.40026 0.62047 0.0
C3798 C 0.38953 0.4253 0.59444 0.0
C3799 C 0.37769 0.43798 0.58333 0.0
C3800 C 0.38131 0.40749 0.59986 0.0
C3801 C 0.35727 0.43274 0.5793 0.0
C3802 C 0.35063 0.41423 0.58182 0.0
C3803 C 0.3561 0.38275 0.59438 0.0
C3804 C 0.364 0.37148 0.60911 0.0
C3805 C 0.36281 0.40135 0.59168 0.0
C3806 C 0.3814 0.37853 0.61877 0.0
C3807 C 0.39074 0.39571 0.61333 0.0
H3808 H 0.92214 0.13094 0.8551 0.0
H3809 H 0.91793 0.13005 0.91578 0.0
H3810 H 0.88061 0.13391 0.9138 0.0
H3811 H 0.8487 0.13467 0.89452 0.0
H3812 H 0.8539 0.13575 0.83376 0.0
H3813 H 0.89101 0.13431 0.83613 0.0
C3814 C 0.91308 0.13176 0.86791 0.0
C3815 C 0.92285 0.1301 0.88555 0.0
C3816 C 0.89164 0.13364 0.86665 0.0
C3817 C 0.91087 0.13146 0.90201 0.0
C3818 C 0.88947 0.13346 0.90087 0.0
C3819 C 0.85795 0.13478 0.88181 0.0
C3820 C 0.84828 0.13478 0.86397 0.0
C3821 C 0.8796 0.13413 0.88323 0.0
C3822 C 0.8607 0.13506 0.84769 0.0
C3823 C 0.88203 0.13444 0.849 0.0
H3824 H 0.41219 0.14451 0.3869 0.0
H3825 H 0.37707 0.186 0.41734 0.0
H3826 H 0.36306 0.19818 0.38761 0.0
H3827 H 0.36329 0.19892 0.35256 0.0
H3828 H 0.39822 0.15729 0.32211 0.0
H3829 H 0.40961 0.14317 0.35194 0.0
C3830 C 0.40106 0.15589 0.38699 0.0
C3831 C 0.39541 0.16415 0.40434 0.0
C3832 C 0.39314 0.16289 0.36974 0.0
C3833 C 0.38132 0.17918 0.40423 0.0
C3834 C 0.37345 0.18624 0.38719 0.0
C3835 C 0.37296 0.18645 0.35252 0.0
C3836 C 0.37963 0.17896 0.33513 0.0
C3837 C 0.37954 0.17846 0.36981 0.0
C3838 C 0.39255 0.16306 0.33528 0.0
C3839 C 0.39921 0.1551 0.35235 0.0
H3840 H 0.14164 0.18195 0.61887 0.0
H3841 H 0.10365 0.13436 0.63291 0.0
H3842 H 0.1128 0.13769 0.66632 0.0
H3843 H 0.12822 0.15672 0.69212 0.0
H3844 H 0.16481 0.20527 0.67817 0.0
H3845 H 0.15994 0.19901 0.64444 0.0
C3846 C 0.13597 0.17195 0.62921 0.0
C3847 C 0.12232 0.15766 0.62339 0.0
C3848 C 0.1409 0.17432 0.64854 0.0
C3849 C 0.11451 0.1452 0.63701 0.0
C3850 C 0.11959 0.14723 0.65615 0.0
C3851 C 0.13565 0.16552 0.68165 0.0
C3852 C 0.14721 0.18124 0.68763 0.0
C3853 C 0.13233 0.16206 0.66219 0.0
C3854 C 0.15619 0.1929 0.67391 0.0
C3855 C 0.15325 0.1894 0.6546 0.0
H3856 H 0.14267 0.84432 0.90693 0.0
H3857 H 0.10228 0.88964 0.89095 0.0
H3858 H 0.11133 0.88511 0.85768 0.0
H3859 H 0.12751 0.86556 0.83268 0.0
H3860 H 0.1665 0.81918 0.84857 0.0
H3861 H 0.1616 0.82681 0.88203 0.0
C3862 C 0.13643 0.85357 0.89618 0.0
C3863 C 0.12213 0.86758 0.90144 0.0
C3864 C 0.14134 0.85051 0.87694 0.0
C3865 C 0.11362 0.87906 0.8873 0.0
C3866 C 0.11866 0.87633 0.86824 0.0
C3867 C 0.13545 0.85757 0.8435 0.0
C3868 C 0.14771 0.84205 0.83815 0.0
C3869 C 0.13209 0.86178 0.8628 0.0
C3870 C 0.15735 0.8314 0.85233 0.0
C3871 C 0.15438 0.83567 0.87148 0.0
H3872 H 0.42264 0.83684 0.12708 0.0
H3873 H 0.38142 0.88428 0.12156 0.0
H3874 H 0.36492 0.8749 0.15129 0.0
H3875 H 0.36389 0.85288 0.17989 0.0
H3876 H 0.42098 0.82439 0.19223 0.0
H3877 H 0.43159 0.82789 0.15966 0.0
C3878 C 0.41137 0.84657 0.13262 0.0
C3879 C 0.40399 0.86167 0.12154 0.0
C3880 C 0.40499 0.84413 0.15137 0.0
C3881 C 0.38741 0.87218 0.12906 0.0
C3882 C 0.37822 0.86713 0.14642 0.0
C3883 C 0.37899 0.84796 0.17584 0.0
C3884 C 0.39046 0.8362 0.18823 0.0
C3885 C 0.38713 0.85314 0.15793 0.0
C3886 C 0.41052 0.8313 0.18258 0.0
C3887 C 0.41689 0.83362 0.16396 0.0
H3888 H 0.41171 0.38042 0.10853 0.0
H3889 H 0.42869 0.38792 0.16703 0.0
H3890 H 0.39299 0.38458 0.17634 0.0
H3891 H 0.35659 0.38245 0.16794 0.0
H3892 H 0.33884 0.37657 0.1096 0.0
H3893 H 0.37507 0.37649 0.10024 0.0
C3894 C 0.40768 0.38129 0.12334 0.0
C3895 C 0.42318 0.38454 0.13698 0.0
C3896 C 0.38685 0.3799 0.12866 0.0
C3897 C 0.41743 0.38516 0.15613 0.0
C3898 C 0.39687 0.38349 0.16151 0.0
C3899 C 0.3606 0.38121 0.15314 0.0
C3900 C 0.34491 0.37987 0.13947 0.0
C3901 C 0.38142 0.38135 0.14788 0.0
C3902 C 0.35051 0.37768 0.12043 0.0
C3903 C 0.37126 0.37772 0.11507 0.0
H3904 H 0.90802 0.9208 0.0776 0.0
H3905 H 0.87525 0.95196 0.12015 0.0
H3906 H 0.86378 0.92238 0.13466 0.0
H3907 H 0.8603 0.88749 0.13335 0.0
H3908 H 0.89308 0.85637 0.09076 0.0
H3909 H 0.90745 0.88579 0.07829 0.0
C3910 C 0.89884 0.92103 0.09035 0.0
C3911 C 0.89279 0.93854 0.098 0.0
C3912 C 0.89215 0.9039 0.09852 0.0
C3913 C 0.88046 0.93868 0.11426 0.0
C3914 C 0.87374 0.92175 0.12244 0.0
C3915 C 0.87101 0.88719 0.12166 0.0
C3916 C 0.87589 0.86975 0.11317 0.0
C3917 C 0.87912 0.90425 0.11448 0.0
C3918 C 0.88943 0.86956 0.09775 0.0
C3919 C 0.8975 0.88642 0.09052 0.0
H3920 H 0.16257 0.65573 0.64793 0.0
H3921 H 0.17882 0.59759 0.63791 0.0
H3922 H 0.1427 0.58953 0.63341 0.0
H3923 H 0.1064 0.59845 0.63453 0.0
H3924 H 0.0895 0.65631 0.64538 0.0
H3925 H 0.12582 0.66507 0.64719 0.0
C3926 C 0.15817 0.64141 0.64432 0.0
C3927 C 0.17335 0.62727 0.64317 0.0
C3928 C 0.13722 0.63677 0.64218 0.0
C3929 C 0.16743 0.6087 0.63883 0.0
C3930 C 0.14677 0.60407 0.63637 0.0
C3931 C 0.11063 0.61298 0.63739 0.0
C3932 C 0.09518 0.62664 0.64008 0.0
C3933 C 0.13151 0.61788 0.63846 0.0
C3934 C 0.10102 0.64549 0.64326 0.0
C3935 C 0.12181 0.6505 0.64434 0.0
H3936 H 0.60789 0.92371 0.94382 0.0
H3937 H 0.64354 0.95397 0.90267 0.0
H3938 H 0.65515 0.92409 0.88884 0.0
H3939 H 0.65824 0.88922 0.89075 0.0
H3940 H 0.62284 0.85897 0.93209 0.0
H3941 H 0.60788 0.88866 0.94336 0.0
C3942 C 0.6177 0.92369 0.93147 0.0
C3943 C 0.62455 0.94105 0.92406 0.0
C3944 C 0.62451 0.90637 0.92372 0.0
C3945 C 0.63769 0.94084 0.90835 0.0
C3946 C 0.6445 0.92372 0.90057 0.0
C3947 C 0.64676 0.88914 0.90183 0.0
C3948 C 0.64136 0.87186 0.91034 0.0
C3949 C 0.63841 0.90638 0.90839 0.0
C3950 C 0.62688 0.872 0.92503 0.0
C3951 C 0.6185 0.88903 0.9316 0.0
H3952 H 0.89019 0.15752 0.42992 0.0
H3953 H 0.84803 0.13944 0.38678 0.0
H3954 H 0.85756 0.10643 0.39234 0.0
H3955 H 0.87523 0.08235 0.4119 0.0
H3956 H 0.91612 0.10031 0.45609 0.0
H3957 H 0.91014 0.13345 0.44767 0.0
C3958 C 0.88359 0.14635 0.42139 0.0
C3959 C 0.8687 0.15094 0.40768 0.0
C3960 C 0.88885 0.12728 0.425 0.0
C3961 C 0.85977 0.13628 0.39715 0.0
C3962 C 0.86512 0.11738 0.40043 0.0
C3963 C 0.88327 0.09355 0.41926 0.0
C3964 C 0.89643 0.0889 0.43436 0.0
C3965 C 0.87931 0.11264 0.41461 0.0
C3966 C 0.90626 0.10354 0.44419 0.0
C3967 C 0.90268 0.1225 0.43948 0.0
H3968 H 0.66067 0.13956 0.62938 0.0
H3969 H 0.62549 0.1693 0.58743 0.0
H3970 H 0.61136 0.13938 0.57586 0.0
H3971 H 0.61178 0.10431 0.5756 0.0
H3972 H 0.64688 0.0746 0.61763 0.0
H3973 H 0.65809 0.10467 0.63135 0.0
C3974 C 0.64945 0.13946 0.61807 0.0
C3975 C 0.64384 0.15666 0.60949 0.0
C3976 C 0.64152 0.12211 0.61139 0.0
C3977 C 0.62968 0.15631 0.59453 0.0
C3978 C 0.62177 0.13916 0.58779 0.0
C3979 C 0.62143 0.10449 0.58807 0.0
C3980 C 0.62825 0.08725 0.59579 0.0
C3981 C 0.62791 0.12192 0.59583 0.0
C3982 C 0.64113 0.08766 0.61169 0.0
C3983 C 0.64767 0.10487 0.61943 0.0
H3984 H 0.10807 0.41996 0.89494 0.0
H3985 H 0.09235 0.36112 0.88969 0.0
H3986 H 0.12886 0.353 0.88679 0.0
H3987 H 0.16521 0.36322 0.88271 0.0
H3988 H 0.17987 0.4224 0.88702 0.0
H3989 H 0.14395 0.4298 0.89337 0.0
C3990 C 0.11261 0.40533 0.89318 0.0
C3991 C 0.09744 0.3912 0.89221 0.0
C3992 C 0.13351 0.40085 0.89132 0.0
C3993 C 0.10366 0.37228 0.89043 0.0
C3994 C 0.12455 0.36766 0.88868 0.0
C3995 C 0.16054 0.37765 0.88546 0.0
C3996 C 0.17519 0.39227 0.88438 0.0
C3997 C 0.13963 0.38188 0.88872 0.0
C3998 C 0.16889 0.41094 0.88773 0.0
C3999 C 0.14834 0.41518 0.89129 0.0
H4000 H 0.34868 0.61533 0.38916 0.0
H4001 H 0.34939 0.67613 0.3905 0.0
H4002 H 0.3867 0.6758 0.39496 0.0
H4003 H 0.41985 0.658 0.39537 0.0
H4004 H 0.41807 0.59716 0.39327 0.0
H4005 H 0.38078 0.59778 0.3921 0.0
C4006 C 0.35696 0.62853 0.39056 0.0
C4007 C 0.34618 0.64572 0.38931 0.0
C4008 C 0.37841 0.62824 0.39275 0.0
C4009 C 0.35719 0.66267 0.39151 0.0
C4010 C 0.37861 0.66249 0.39389 0.0
C4011 C 0.41124 0.64493 0.39489 0.0
C4012 C 0.42183 0.62757 0.39402 0.0
C4013 C 0.38951 0.64535 0.39407 0.0
C4014 C 0.41039 0.61073 0.39351 0.0
C4015 C 0.38901 0.61104 0.39291 0.0
H4016 H 0.87913 0.67903 0.90792 0.0
H4017 H 0.9212 0.63545 0.89074 0.0
H4018 H 0.91187 0.64051 0.8576 0.0
H4019 H 0.8943 0.65966 0.83312 0.0
H4020 H 0.85347 0.70425 0.85019 0.0
H4021 H 0.85937 0.69645 0.88349 0.0
C4022 C 0.88576 0.6703 0.89692 0.0
C4023 C 0.90055 0.6566 0.90181 0.0
C4024 C 0.88061 0.67362 0.87778 0.0
C4025 C 0.90952 0.64581 0.88736 0.0
C4026 C 0.90429 0.64881 0.86839 0.0
C4027 C 0.88627 0.66726 0.84417 0.0
C4028 C 0.87314 0.68229 0.83922 0.0
C4029 C 0.89018 0.66295 0.86335 0.0
C4030 C 0.86332 0.69242 0.85366 0.0
C4031 C 0.86684 0.68805 0.87271 0.0
H4032 H 0.60791 0.64307 0.1383 0.0
H4033 H 0.64413 0.68229 0.10611 0.0
H4034 H 0.65915 0.69487 0.13525 0.0
H4035 H 0.65916 0.69702 0.17026 0.0
H4036 H 0.62279 0.65788 0.2024 0.0
H4037 H 0.6108 0.6429 0.1732 0.0
C4038 C 0.61957 0.65396 0.1377 0.0
C4039 C 0.6252 0.66149 0.12003 0.0
C4040 C 0.62793 0.66131 0.15461 0.0
C4041 C 0.63991 0.67597 0.11948 0.0
C4042 C 0.64832 0.68331 0.13618 0.0
C4043 C 0.64902 0.6849 0.17081 0.0
C4044 C 0.64208 0.67838 0.18847 0.0
C4045 C 0.6421 0.67642 0.15387 0.0
C4046 C 0.62861 0.66292 0.189 0.0
C4047 C 0.62164 0.65445 0.17229 0.0
H4048 H 0.62475 0.36517 0.33201 0.0
H4049 H 0.66262 0.31841 0.34905 0.0
H4050 H 0.65709 0.3264 0.38235 0.0
H4051 H 0.63842 0.34477 0.40678 0.0
H4052 H 0.59919 0.39054 0.38967 0.0
H4053 H 0.60833 0.38516 0.35653 0.0
C4054 C 0.63224 0.35711 0.34305 0.0
C4055 C 0.64443 0.34143 0.33808 0.0
C4056 C 0.62855 0.36157 0.36225 0.0
C4057 C 0.65351 0.33073 0.35253 0.0
C4058 C 0.65021 0.33522 0.37158 0.0
C4059 C 0.6324 0.35388 0.3958 0.0
C4060 C 0.61846 0.36831 0.4007 0.0
C4061 C 0.63739 0.35036 0.37666 0.0
C4062 C 0.61024 0.37962 0.38628 0.0
C4063 C 0.61535 0.37642 0.36731 0.0
H4064 H 0.86037 0.32913 0.67205 0.0
H4065 H 0.90017 0.36667 0.70274 0.0
H4066 H 0.91243 0.38037 0.67304 0.0
H4067 H 0.91369 0.38004 0.63811 0.0
H4068 H 0.87422 0.34228 0.60733 0.0
H4069 H 0.85973 0.33054 0.637 0.0
C4070 C 0.87147 0.34052 0.67215 0.0
C4071 C 0.87926 0.34702 0.68952 0.0
C4072 C 0.87847 0.34831 0.65494 0.0
C4073 C 0.89383 0.36161 0.68953 0.0
C4074 C 0.90088 0.36938 0.67255 0.0
C4075 C 0.90153 0.3696 0.63796 0.0
C4076 C 0.8947 0.36235 0.62053 0.0
C4077 C 0.89353 0.36269 0.65514 0.0
C4078 C 0.87933 0.34844 0.62052 0.0
C4079 C 0.87122 0.34157 0.63751 0.0
loop_
_geom_bond_atom_site_label_1
_geom_bond_atom_site_label_2
_geom_bond_distance
_geom_bond_site_symmetry_2
_ccdc_geom_bond_type
C0 C1 1.443 . S
C0 N4 1.376 . S
C0 C38 1.389 . S
C1 C0 1.443 . S
C1 C2 1.340 . S
C1 H41 0.951 . S
C2 C1 1.340 . S
C2 C3 1.439 . S
C2 H42 0.950 . S
C3 C2 1.439 . S
C3 N4 1.374 . S
C3 C37 1.395 . S
N4 C0 1.376 . S
N4 C3 1.374 . S
N4 Co5 2.008 . S
Co5 N4 2.008 . S
Co5 N6 1.995 . S
Co5 N11 2.008 . S
Co5 N16 1.995 . S
Co5 N21 2.282 . S
Co5 N27 2.282 . S
N6 Co5 1.995 . S
N6 C7 1.376 . S
N6 C10 1.383 . S
C7 N6 1.376 . S
C7 C8 1.446 . S
C7 C37 1.391 . S
C8 C7 1.446 . S
C8 C9 1.339 . S
C8 H43 0.949 . S
C9 C8 1.339 . S
C9 C10 1.439 . S
C9 H44 0.950 . S
C10 N6 1.383 . S
C10 C9 1.439 . S
C10 C39 1.392 . S
N11 Co5 2.008 . S
N11 C12 1.376 . S
N11 C15 1.374 . S
C12 N11 1.376 . S
C12 C13 1.443 . S
C12 C39 1.389 . S
C13 C12 1.443 . S
C13 C14 1.340 . S
C13 H45 0.951 . S
C14 C13 1.340 . S
C14 C15 1.439 . S
C14 H46 0.950 . S
C15 N11 1.374 . S
C15 C14 1.439 . S
C15 C40 1.395 . S
N16 Co5 1.995 . S
N16 C17 1.376 . S
N16 C20 1.383 . S
C17 N16 1.376 . S
C17 C18 1.446 . S
C17 C40 1.391 . S
C18 C17 1.446 . S
C18 C19 1.339 . S
C18 H47 0.949 . S
C19 C18 1.339 . S
C19 C20 1.439 . S
C19 H48 0.950 . S
C20 N16 1.383 . S
C20 C19 1.439 . S
C20 C38 1.392 . S
N21 Co5 2.282 . S
N21 C24 1.332 . S
N21 C26 1.332 . S
C22 C23 1.386 . S
C22 C25 1.388 . S
C23 C22 1.386 . S
C23 C24 1.382 . S
C23 H49 0.950 . S
C24 N21 1.332 . S
C24 C23 1.382 . S
C24 H35 0.952 . S
C25 C22 1.388 . S
C25 C26 1.382 . S
C25 H50 0.950 . S
C26 N21 1.332 . S
C26 C25 1.382 . S
C26 H36 0.948 . S
N27 Co5 2.282 . S
N27 C31 1.332 . S
N27 C32 1.332 . S
C28 C29 1.388 . S
C28 C32 1.382 . S
C28 H51 0.950 . S
C29 C28 1.388 . S
C29 C30 1.386 . S
C30 C29 1.386 . S
C30 C31 1.382 . S
C30 H52 0.950 . S
C31 N27 1.332 . S
C31 C30 1.382 . S
C31 H33 0.952 . S
C32 N27 1.332 . S
C32 C28 1.382 . S
C32 H34 0.948 . S
H33 C31 0.952 . S
H34 C32 0.948 . S
H35 C24 0.952 . S
H36 C26 0.948 . S
C37 C3 1.395 . S
C37 C7 1.391 . S
C38 C0 1.389 . S
C38 C20 1.392 . S
C39 C10 1.392 . S
C39 C12 1.389 . S
C40 C15 1.395 . S
C40 C17 1.391 . S
H41 C1 0.951 . S
H42 C2 0.950 . S
H43 C8 0.949 . S
H44 C9 0.950 . S
H45 C13 0.951 . S
H46 C14 0.950 . S
H47 C18 0.949 . S
H48 C19 0.950 . S
H49 C23 0.950 . S
H50 C25 0.950 . S
H51 C28 0.950 . S
H52 C30 0.950 . S
C53 C54 1.443 . S
C53 N57 1.376 . S
C53 C91 1.389 . S
C54 C53 1.443 . S
C54 C55 1.340 . S
C54 H94 0.951 . S
C55 C54 1.340 . S
C55 C56 1.439 . S
C55 H95 0.950 . S
C56 C55 1.439 . S
C56 N57 1.374 . S
C56 C90 1.395 . S
N57 C53 1.376 . S
N57 C56 1.374 . S
N57 Co58 2.008 1_455 S
Co58 N57 2.008 1_655 S
Co58 N59 1.995 . S
Co58 N64 2.008 . S
Co58 N69 1.995 . S
Co58 N74 2.282 1_655 S
Co58 N80 2.282 . S
N59 Co58 1.995 . S
N59 C60 1.376 . S
N59 C63 1.383 . S
C60 N59 1.376 . S
C60 C61 1.446 . S
C60 C90 1.391 1_655 S
C61 C60 1.446 . S
C61 C62 1.339 . S
C61 H96 0.949 . S
C62 C61 1.339 . S
C62 C63 1.439 . S
C62 H97 0.950 . S
C63 N59 1.383 . S
C63 C62 1.439 . S
C63 C92 1.392 . S
N64 Co58 2.008 . S
N64 C65 1.376 . S
N64 C68 1.374 . S
C65 N64 1.376 . S
C65 C66 1.443 . S
C65 C92 1.389 . S
C66 C65 1.443 . S
C66 C67 1.340 . S
C66 H98 0.951 . S
C67 C66 1.340 . S
C67 C68 1.439 . S
C67 H99 0.950 . S
C68 N64 1.374 . S
C68 C67 1.439 . S
C68 C93 1.395 . S
N69 Co58 1.995 . S
N69 C70 1.376 . S
N69 C73 1.383 1_655 S
C70 N69 1.376 . S
C70 C71 1.446 . S
C70 C93 1.391 . S
C71 C70 1.446 . S
C71 C72 1.339 1_655 S
C71 H100 0.949 . S
C72 C71 1.339 1_455 S
C72 C73 1.439 . S
C72 H101 0.950 . S
C73 N69 1.383 1_455 S
C73 C72 1.439 . S
C73 C91 1.392 . S
N74 Co58 2.282 1_455 S
N74 C77 1.332 . S
N74 C79 1.332 . S
C75 C76 1.386 . S
C75 C78 1.388 . S
C76 C75 1.386 . S
C76 C77 1.382 . S
C76 H102 0.950 . S
C77 N74 1.332 . S
C77 C76 1.382 . S
C77 H88 0.952 . S
C78 C75 1.388 . S
C78 C79 1.382 . S
C78 H103 0.950 . S
C79 N74 1.332 . S
C79 C78 1.382 . S
C79 H89 0.948 . S
N80 Co58 2.282 . S
N80 C84 1.332 . S
N80 C85 1.332 . S
C81 C82 1.388 . S
C81 C85 1.382 . S
C81 H104 0.950 . S
C82 C81 1.388 . S
C82 C83 1.386 . S
C83 C82 1.386 . S
C83 C84 1.382 . S
C83 H105 0.950 . S
C84 N80 1.332 . S
C84 C83 1.382 . S
C84 H86 0.952 . S
C85 N80 1.332 . S
C85 C81 1.382 . S
C85 H87 0.948 . S
H86 C84 0.952 . S
H87 C85 0.948 . S
H88 C77 0.952 . S
H89 C79 0.948 . S
C90 C56 1.395 . S
C90 C60 1.391 1_455 S
C91 C53 1.389 . S
C91 C73 1.392 . S
C92 C63 1.392 . S
C92 C65 1.389 . S
C93 C68 1.395 . S
C93 C70 1.391 . S
H94 C54 0.951 . S
H95 C55 0.950 . S
H96 C61 0.949 . S
H97 C62 0.950 . S
H98 C66 0.951 . S
H99 C67 0.950 . S
H100 C71 0.949 . S
H101 C72 0.950 . S
H102 C76 0.950 . S
H103 C78 0.950 . S
H104 C81 0.950 . S
H105 C83 0.950 . S
C106 C107 1.443 . S
C106 N110 1.376 . S
C106 C144 1.389 . S
C107 C106 1.443 . S
C107 C108 1.340 . S
C107 H147 0.951 . S
C108 C107 1.340 . S
C108 C109 1.439 . S
C108 H148 0.950 . S
C109 C108 1.439 . S
C109 N110 1.374 . S
C109 C143 1.395 . S
N110 C106 1.376 . S
N110 C109 1.374 . S
N110 Co111 2.008 . S
Co111 N110 2.008 . S
Co111 N112 1.995 . S
Co111 N117 2.008 . S
Co111 N122 1.995 . S
Co111 N127 2.282 . S
Co111 N133 2.282 . S
N112 Co111 1.995 . S
N112 C113 1.376 . S
N112 C116 1.383 . S
C113 N112 1.376 . S
C113 C114 1.446 . S
C113 C143 1.391 . S
C114 C113 1.446 . S
C114 C115 1.339 . S
C114 H149 0.949 . S
C115 C114 1.339 . S
C115 C116 1.439 . S
C115 H150 0.950 . S
C116 N112 1.383 . S
C116 C115 1.439 . S
C116 C145 1.392 . S
N117 Co111 2.008 . S
N117 C118 1.376 . S
N117 C121 1.374 . S
C118 N117 1.376 . S
C118 C119 1.443 . S
C118 C145 1.389 . S
C119 C118 1.443 . S
C119 C120 1.340 . S
C119 H151 0.951 . S
C120 C119 1.340 . S
C120 C121 1.439 . S
C120 H152 0.950 . S
C121 N117 1.374 . S
C121 C120 1.439 . S
C121 C146 1.395 . S
N122 Co111 1.995 . S
N122 C123 1.376 . S
N122 C126 1.383 . S
C123 N122 1.376 . S
C123 C124 1.446 . S
C123 C146 1.391 . S
C124 C123 1.446 . S
C124 C125 1.339 . S
C124 H153 0.949 . S
C125 C124 1.339 . S
C125 C126 1.439 . S
C125 H154 0.950 . S
C126 N122 1.383 . S
C126 C125 1.439 . S
C126 C144 1.392 . S
N127 Co111 2.282 . S
N127 C130 1.332 . S
N127 C132 1.332 . S
C128 C129 1.386 . S
C128 C131 1.388 . S
C129 C128 1.386 . S
C129 C130 1.382 . S
C129 H155 0.950 . S
C130 N127 1.332 . S
C130 C129 1.382 . S
C130 H141 0.952 . S
C131 C128 1.388 . S
C131 C132 1.382 . S
C131 H156 0.950 . S
C132 N127 1.332 . S
C132 C131 1.382 . S
C132 H142 0.948 . S
N133 Co111 2.282 . S
N133 C137 1.332 . S
N133 C138 1.332 . S
C134 C135 1.388 . S
C134 C138 1.382 . S
C134 H157 0.950 . S
C135 C134 1.388 . S
C135 C136 1.386 . S
C136 C135 1.386 . S
C136 C137 1.382 . S
C136 H158 0.950 . S
C137 N133 1.332 . S
C137 C136 1.382 . S
C137 H139 0.952 . S
C138 N133 1.332 . S
C138 C134 1.382 . S
C138 H140 0.948 . S
H139 C137 0.952 . S
H140 C138 0.948 . S
H141 C130 0.952 . S
H142 C132 0.948 . S
C143 C109 1.395 . S
C143 C113 1.391 . S
C144 C106 1.389 . S
C144 C126 1.392 . S
C145 C116 1.392 . S
C145 C118 1.389 . S
C146 C121 1.395 . S
C146 C123 1.391 . S
H147 C107 0.951 . S
H148 C108 0.950 . S
H149 C114 0.949 . S
H150 C115 0.950 . S
H151 C119 0.951 . S
H152 C120 0.950 . S
H153 C124 0.949 . S
H154 C125 0.950 . S
H155 C129 0.950 . S
H156 C131 0.950 . S
H157 C134 0.950 . S
H158 C136 0.950 . S
C159 C160 1.443 . S
C159 N163 1.376 . S
C159 C197 1.389 . S
C160 C159 1.443 . S
C160 C161 1.340 . S
C160 H200 0.951 . S
C161 C160 1.340 . S
C161 C162 1.439 . S
C161 H201 0.950 . S
C162 C161 1.439 . S
C162 N163 1.374 . S
C162 C196 1.395 . S
N163 C159 1.376 . S
N163 C162 1.374 . S
N163 Co164 2.008 . S
Co164 N163 2.008 . S
Co164 N165 1.995 . S
Co164 N170 2.008 . S
Co164 N175 1.995 . S
Co164 N180 2.282 . S
Co164 N186 2.282 . S
N165 Co164 1.995 . S
N165 C166 1.376 . S
N165 C169 1.383 . S
C166 N165 1.376 . S
C166 C167 1.446 . S
C166 C196 1.391 . S
C167 C166 1.446 . S
C167 C168 1.339 . S
C167 H202 0.949 . S
C168 C167 1.339 . S
C168 C169 1.439 . S
C168 H203 0.950 . S
C169 N165 1.383 . S
C169 C168 1.439 . S
C169 C198 1.392 . S
N170 Co164 2.008 . S
N170 C171 1.376 . S
N170 C174 1.374 . S
C171 N170 1.376 . S
C171 C172 1.443 . S
C171 C198 1.389 . S
C172 C171 1.443 . S
C172 C173 1.340 . S
C172 H204 0.951 . S
C173 C172 1.340 . S
C173 C174 1.439 . S
C173 H205 0.950 . S
C174 N170 1.374 . S
C174 C173 1.439 . S
C174 C199 1.395 . S
N175 Co164 1.995 . S
N175 C176 1.376 . S
N175 C179 1.383 . S
C176 N175 1.376 . S
C176 C177 1.446 . S
C176 C199 1.391 . S
C177 C176 1.446 . S
C177 C178 1.339 . S
C177 H206 0.949 . S
C178 C177 1.339 . S
C178 C179 1.439 . S
C178 H207 0.950 . S
C179 N175 1.383 . S
C179 C178 1.439 . S
C179 C197 1.392 . S
N180 Co164 2.282 . S
N180 C183 1.332 . S
N180 C185 1.332 . S
C181 C182 1.386 . S
C181 C184 1.388 . S
C182 C181 1.386 . S
C182 C183 1.382 . S
C182 H208 0.950 . S
C183 N180 1.332 . S
C183 C182 1.382 . S
C183 H194 0.952 . S
C184 C181 1.388 . S
C184 C185 1.382 . S
C184 H209 0.950 . S
C185 N180 1.332 . S
C185 C184 1.382 . S
C185 H195 0.948 . S
N186 Co164 2.282 . S
N186 C190 1.332 . S
N186 C191 1.332 . S
C187 C188 1.388 . S
C187 C191 1.382 . S
C187 H210 0.950 . S
C188 C187 1.388 . S
C188 C189 1.386 . S
C189 C188 1.386 . S
C189 C190 1.382 . S
C189 H211 0.950 . S
C190 N186 1.332 . S
C190 C189 1.382 . S
C190 H192 0.952 . S
C191 N186 1.332 . S
C191 C187 1.382 . S
C191 H193 0.948 . S
H192 C190 0.952 . S
H193 C191 0.948 . S
H194 C183 0.952 . S
H195 C185 0.948 . S
C196 C162 1.395 . S
C196 C166 1.391 . S
C197 C159 1.389 . S
C197 C179 1.392 . S
C198 C169 1.392 . S
C198 C171 1.389 . S
C199 C174 1.395 . S
C199 C176 1.391 . S
H200 C160 0.951 . S
H201 C161 0.950 . S
H202 C167 0.949 . S
H203 C168 0.950 . S
H204 C172 0.951 . S
H205 C173 0.950 . S
H206 C177 0.949 . S
H207 C178 0.950 . S
H208 C182 0.950 . S
H209 C184 0.950 . S
H210 C187 0.950 . S
H211 C189 0.950 . S
C212 C213 1.443 . S
C212 N216 1.376 . S
C212 C250 1.389 . S
C213 C212 1.443 . S
C213 C214 1.340 . S
C213 H253 0.951 . S
C214 C213 1.340 . S
C214 C215 1.439 . S
C214 H254 0.950 . S
C215 C214 1.439 . S
C215 N216 1.374 . S
C215 C249 1.395 . S
N216 C212 1.376 . S
N216 C215 1.374 . S
N216 Co217 2.008 . S
Co217 N216 2.008 . S
Co217 N218 1.995 . S
Co217 N223 2.008 . S
Co217 N228 1.995 . S
Co217 N233 2.282 . S
Co217 N239 2.282 . S
N218 Co217 1.995 . S
N218 C219 1.376 . S
N218 C222 1.383 . S
C219 N218 1.376 . S
C219 C220 1.446 . S
C219 C249 1.391 . S
C220 C219 1.446 . S
C220 C221 1.339 . S
C220 H255 0.949 . S
C221 C220 1.339 . S
C221 C222 1.439 . S
C221 H256 0.950 . S
C222 N218 1.383 . S
C222 C221 1.439 . S
C222 C251 1.392 . S
N223 Co217 2.008 . S
N223 C224 1.376 . S
N223 C227 1.374 . S
C224 N223 1.376 . S
C224 C225 1.443 . S
C224 C251 1.389 . S
C225 C224 1.443 . S
C225 C226 1.340 . S
C225 H257 0.951 . S
C226 C225 1.340 . S
C226 C227 1.439 . S
C226 H258 0.950 . S
C227 N223 1.374 . S
C227 C226 1.439 . S
C227 C252 1.395 . S
N228 Co217 1.995 . S
N228 C229 1.376 . S
N228 C232 1.383 . S
C229 N228 1.376 . S
C229 C230 1.446 . S
C229 C252 1.391 . S
C230 C229 1.446 . S
C230 C231 1.339 . S
C230 H259 0.949 . S
C231 C230 1.339 . S
C231 C232 1.439 . S
C231 H260 0.950 . S
C232 N228 1.383 . S
C232 C231 1.439 . S
C232 C250 1.392 . S
N233 Co217 2.282 . S
N233 C236 1.332 . S
N233 C238 1.332 . S
C234 C235 1.386 . S
C234 C237 1.388 . S
C235 C234 1.386 . S
C235 C236 1.382 . S
C235 H261 0.950 . S
C236 N233 1.332 . S
C236 C235 1.382 . S
C236 H247 0.952 . S
C237 C234 1.388 . S
C237 C238 1.382 . S
C237 H262 0.950 . S
C238 N233 1.332 . S
C238 C237 1.382 . S
C238 H248 0.948 . S
N239 Co217 2.282 . S
N239 C243 1.332 . S
N239 C244 1.332 . S
C240 C241 1.388 . S
C240 C244 1.382 . S
C240 H263 0.950 . S
C241 C240 1.388 . S
C241 C242 1.386 . S
C242 C241 1.386 . S
C242 C243 1.382 . S
C242 H264 0.950 . S
C243 N239 1.332 . S
C243 C242 1.382 . S
C243 H245 0.952 . S
C244 N239 1.332 . S
C244 C240 1.382 . S
C244 H246 0.948 . S
H245 C243 0.952 . S
H246 C244 0.948 . S
H247 C236 0.952 . S
H248 C238 0.948 . S
C249 C215 1.395 . S
C249 C219 1.391 . S
C250 C212 1.389 . S
C250 C232 1.392 . S
C251 C222 1.392 . S
C251 C224 1.389 . S
C252 C227 1.395 . S
C252 C229 1.391 . S
H253 C213 0.951 . S
H254 C214 0.950 . S
H255 C220 0.949 . S
H256 C221 0.950 . S
H257 C225 0.951 . S
H258 C226 0.950 . S
H259 C230 0.949 . S
H260 C231 0.950 . S
H261 C235 0.950 . S
H262 C237 0.950 . S
H263 C240 0.950 . S
H264 C242 0.950 . S
C265 C266 1.443 . S
C265 N269 1.376 . S
C265 C303 1.389 . S
C266 C265 1.443 . S
C266 C267 1.340 . S
C266 H306 0.951 . S
C267 C266 1.340 . S
C267 C268 1.439 . S
C267 H307 0.950 . S
C268 C267 1.439 . S
C268 N269 1.374 . S
C268 C302 1.395 . S
N269 C265 1.376 . S
N269 C268 1.374 . S
N269 Co270 2.008 . S
Co270 N269 2.008 . S
Co270 N271 1.995 . S
Co270 N276 2.008 . S
Co270 N281 1.995 . S
Co270 N286 2.282 . S
Co270 N292 2.282 . S
N271 Co270 1.995 . S
N271 C272 1.376 . S
N271 C275 1.383 . S
C272 N271 1.376 . S
C272 C273 1.446 . S
C272 C302 1.391 . S
C273 C272 1.446 . S
C273 C274 1.339 . S
C273 H308 0.949 . S
C274 C273 1.339 . S
C274 C275 1.439 . S
C274 H309 0.950 . S
C275 N271 1.383 . S
C275 C274 1.439 . S
C275 C304 1.392 . S
N276 Co270 2.008 . S
N276 C277 1.376 . S
N276 C280 1.374 . S
C277 N276 1.376 . S
C277 C278 1.443 . S
C277 C304 1.389 . S
C278 C277 1.443 . S
C278 C279 1.340 . S
C278 H310 0.951 . S
C279 C278 1.340 . S
C279 C280 1.439 . S
C279 H311 0.950 . S
C280 N276 1.374 . S
C280 C279 1.439 . S
C280 C305 1.395 . S
N281 Co270 1.995 . S
N281 C282 1.376 . S
N281 C285 1.383 . S
C282 N281 1.376 . S
C282 C283 1.446 . S
C282 C305 1.391 . S
C283 C282 1.446 . S
C283 C284 1.339 . S
C283 H312 0.949 . S
C284 C283 1.339 . S
C284 C285 1.439 . S
C284 H313 0.950 . S
C285 N281 1.383 . S
C285 C284 1.439 . S
C285 C303 1.392 . S
N286 Co270 2.282 . S
N286 C289 1.332 . S
N286 C291 1.332 . S
C287 C288 1.386 . S
C287 C290 1.388 . S
C288 C287 1.386 . S
C288 C289 1.382 . S
C288 H314 0.950 . S
C289 N286 1.332 . S
C289 C288 1.382 . S
C289 H300 0.952 . S
C290 C287 1.388 . S
C290 C291 1.382 . S
C290 H315 0.950 . S
C291 N286 1.332 . S
C291 C290 1.382 . S
C291 H301 0.948 . S
N292 Co270 2.282 . S
N292 C296 1.332 . S
N292 C297 1.332 . S
C293 C294 1.388 . S
C293 C297 1.382 . S
C293 H316 0.950 . S
C294 C293 1.388 . S
C294 C295 1.386 . S
C295 C294 1.386 . S
C295 C296 1.382 . S
C295 H317 0.950 . S
C296 N292 1.332 . S
C296 C295 1.382 . S
C296 H298 0.952 . S
C297 N292 1.332 . S
C297 C293 1.382 . S
C297 H299 0.948 . S
H298 C296 0.952 . S
H299 C297 0.948 . S
H300 C289 0.952 . S
H301 C291 0.948 . S
C302 C268 1.395 . S
C302 C272 1.391 . S
C303 C265 1.389 . S
C303 C285 1.392 . S
C304 C275 1.392 . S
C304 C277 1.389 . S
C305 C280 1.395 . S
C305 C282 1.391 . S
H306 C266 0.951 . S
H307 C267 0.950 . S
H308 C273 0.949 . S
H309 C274 0.950 . S
H310 C278 0.951 . S
H311 C279 0.950 . S
H312 C283 0.949 . S
H313 C284 0.950 . S
H314 C288 0.950 . S
H315 C290 0.950 . S
H316 C293 0.950 . S
H317 C295 0.950 . S
C318 C319 1.443 . S
C318 N322 1.376 . S
C318 C356 1.389 . S
C319 C318 1.443 . S
C319 C320 1.340 . S
C319 H359 0.951 . S
C320 C319 1.340 . S
C320 C321 1.439 . S
C320 H360 0.950 . S
C321 C320 1.439 . S
C321 N322 1.374 . S
C321 C355 1.395 . S
N322 C318 1.376 . S
N322 C321 1.374 . S
N322 Co323 2.008 . S
Co323 N322 2.008 . S
Co323 N324 1.995 . S
Co323 N329 2.008 . S
Co323 N334 1.995 . S
Co323 N339 2.282 . S
Co323 N345 2.282 . S
N324 Co323 1.995 . S
N324 C325 1.376 . S
N324 C328 1.383 . S
C325 N324 1.376 . S
C325 C326 1.446 . S
C325 C355 1.391 . S
C326 C325 1.446 . S
C326 C327 1.339 . S
C326 H361 0.949 . S
C327 C326 1.339 . S
C327 C328 1.439 . S
C327 H362 0.950 . S
C328 N324 1.383 . S
C328 C327 1.439 . S
C328 C357 1.392 . S
N329 Co323 2.008 . S
N329 C330 1.376 . S
N329 C333 1.374 . S
C330 N329 1.376 . S
C330 C331 1.443 . S
C330 C357 1.389 . S
C331 C330 1.443 . S
C331 C332 1.340 . S
C331 H363 0.951 . S
C332 C331 1.340 . S
C332 C333 1.439 . S
C332 H364 0.950 . S
C333 N329 1.374 . S
C333 C332 1.439 . S
C333 C358 1.395 . S
N334 Co323 1.995 . S
N334 C335 1.376 . S
N334 C338 1.383 . S
C335 N334 1.376 . S
C335 C336 1.446 . S
C335 C358 1.391 . S
C336 C335 1.446 . S
C336 C337 1.339 . S
C336 H365 0.949 . S
C337 C336 1.339 . S
C337 C338 1.439 . S
C337 H366 0.950 . S
C338 N334 1.383 . S
C338 C337 1.439 . S
C338 C356 1.392 . S
N339 Co323 2.282 . S
N339 C342 1.332 . S
N339 C344 1.332 . S
C340 C341 1.386 . S
C340 C343 1.388 . S
C341 C340 1.386 . S
C341 C342 1.382 . S
C341 H367 0.950 . S
C342 N339 1.332 . S
C342 C341 1.382 . S
C342 H353 0.952 . S
C343 C340 1.388 . S
C343 C344 1.382 . S
C343 H368 0.950 . S
C344 N339 1.332 . S
C344 C343 1.382 . S
C344 H354 0.948 . S
N345 Co323 2.282 . S
N345 C349 1.332 . S
N345 C350 1.332 . S
C346 C347 1.388 . S
C346 C350 1.382 . S
C346 H369 0.950 . S
C347 C346 1.388 . S
C347 C348 1.386 . S
C348 C347 1.386 . S
C348 C349 1.382 . S
C348 H370 0.950 . S
C349 N345 1.332 . S
C349 C348 1.382 . S
C349 H351 0.952 . S
C350 N345 1.332 . S
C350 C346 1.382 . S
C350 H352 0.948 . S
H351 C349 0.952 . S
H352 C350 0.948 . S
H353 C342 0.952 . S
H354 C344 0.948 . S
C355 C321 1.395 . S
C355 C325 1.391 . S
C356 C318 1.389 . S
C356 C338 1.392 . S
C357 C328 1.392 . S
C357 C330 1.389 . S
C358 C333 1.395 . S
C358 C335 1.391 . S
H359 C319 0.951 . S
H360 C320 0.950 . S
H361 C326 0.949 . S
H362 C327 0.950 . S
H363 C331 0.951 . S
H364 C332 0.950 . S
H365 C336 0.949 . S
H366 C337 0.950 . S
H367 C341 0.950 . S
H368 C343 0.950 . S
H369 C346 0.950 . S
H370 C348 0.950 . S
C371 C372 1.443 . S
C371 N375 1.376 . S
C371 C409 1.389 . S
C372 C371 1.443 . S
C372 C373 1.340 . S
C372 H412 0.951 . S
C373 C372 1.340 . S
C373 C374 1.439 . S
C373 H413 0.950 . S
C374 C373 1.439 . S
C374 N375 1.374 . S
C374 C408 1.395 . S
N375 C371 1.376 . S
N375 C374 1.374 . S
N375 Co376 2.008 1_455 S
Co376 N375 2.008 1_655 S
Co376 N377 1.995 . S
Co376 N382 2.008 . S
Co376 N387 1.995 . S
Co376 N392 2.282 1_655 S
Co376 N398 2.282 . S
N377 Co376 1.995 . S
N377 C378 1.376 . S
N377 C381 1.383 . S
C378 N377 1.376 . S
C378 C379 1.446 . S
C378 C408 1.391 1_655 S
C379 C378 1.446 . S
C379 C380 1.339 . S
C379 H414 0.949 . S
C380 C379 1.339 . S
C380 C381 1.439 . S
C380 H415 0.950 . S
C381 N377 1.383 . S
C381 C380 1.439 . S
C381 C410 1.392 . S
N382 Co376 2.008 . S
N382 C383 1.376 . S
N382 C386 1.374 . S
C383 N382 1.376 . S
C383 C384 1.443 . S
C383 C410 1.389 . S
C384 C383 1.443 . S
C384 C385 1.340 . S
C384 H416 0.951 . S
C385 C384 1.340 . S
C385 C386 1.439 . S
C385 H417 0.950 . S
C386 N382 1.374 . S
C386 C385 1.439 . S
C386 C411 1.395 . S
N387 Co376 1.995 . S
N387 C388 1.376 . S
N387 C391 1.383 1_655 S
C388 N387 1.376 . S
C388 C389 1.446 . S
C388 C411 1.391 . S
C389 C388 1.446 . S
C389 C390 1.339 1_655 S
C389 H418 0.949 . S
C390 C389 1.339 1_455 S
C390 C391 1.439 . S
C390 H419 0.950 . S
C391 N387 1.383 1_455 S
C391 C390 1.439 . S
C391 C409 1.392 . S
N392 Co376 2.282 1_455 S
N392 C395 1.332 . S
N392 C397 1.332 . S
C393 C394 1.386 . S
C393 C396 1.388 . S
C394 C393 1.386 . S
C394 C395 1.382 . S
C394 H420 0.950 . S
C395 N392 1.332 . S
C395 C394 1.382 . S
C395 H406 0.952 . S
C396 C393 1.388 . S
C396 C397 1.382 . S
C396 H421 0.950 . S
C397 N392 1.332 . S
C397 C396 1.382 . S
C397 H407 0.948 . S
N398 Co376 2.282 . S
N398 C402 1.332 . S
N398 C403 1.332 . S
C399 C400 1.388 . S
C399 C403 1.382 . S
C399 H422 0.950 . S
C400 C399 1.388 . S
C400 C401 1.386 . S
C401 C400 1.386 . S
C401 C402 1.382 . S
C401 H423 0.950 . S
C402 N398 1.332 . S
C402 C401 1.382 . S
C402 H404 0.952 . S
C403 N398 1.332 . S
C403 C399 1.382 . S
C403 H405 0.948 . S
H404 C402 0.952 . S
H405 C403 0.948 . S
H406 C395 0.952 . S
H407 C397 0.948 . S
C408 C374 1.395 . S
C408 C378 1.391 1_455 S
C409 C371 1.389 . S
C409 C391 1.392 . S
C410 C381 1.392 . S
C410 C383 1.389 . S
C411 C386 1.395 . S
C411 C388 1.391 . S
H412 C372 0.951 . S
H413 C373 0.950 . S
H414 C379 0.949 . S
H415 C380 0.950 . S
H416 C384 0.951 . S
H417 C385 0.950 . S
H418 C389 0.949 . S
H419 C390 0.950 . S
H420 C394 0.950 . S
H421 C396 0.950 . S
H422 C399 0.950 . S
H423 C401 0.950 . S
C424 C425 1.443 . S
C424 N428 1.376 . S
C424 C462 1.389 . S
C425 C424 1.443 . S
C425 C426 1.340 . S
C425 H465 0.951 . S
C426 C425 1.340 . S
C426 C427 1.439 . S
C426 H466 0.950 . S
C427 C426 1.439 . S
C427 N428 1.374 . S
C427 C461 1.395 . S
N428 C424 1.376 . S
N428 C427 1.374 . S
N428 Co429 2.008 . S
Co429 N428 2.008 . S
Co429 N430 1.995 . S
Co429 N435 2.008 . S
Co429 N440 1.995 . S
Co429 N445 2.282 . S
Co429 N451 2.282 . S
N430 Co429 1.995 . S
N430 C431 1.376 . S
N430 C434 1.383 . S
C431 N430 1.376 . S
C431 C432 1.446 . S
C431 C461 1.391 . S
C432 C431 1.446 . S
C432 C433 1.339 . S
C432 H467 0.949 . S
C433 C432 1.339 . S
C433 C434 1.439 . S
C433 H468 0.950 . S
C434 N430 1.383 . S
C434 C433 1.439 . S
C434 C463 1.392 . S
N435 Co429 2.008 . S
N435 C436 1.376 . S
N435 C439 1.374 . S
C436 N435 1.376 . S
C436 C437 1.443 . S
C436 C463 1.389 . S
C437 C436 1.443 . S
C437 C438 1.340 . S
C437 H469 0.951 . S
C438 C437 1.340 . S
C438 C439 1.439 . S
C438 H470 0.950 . S
C439 N435 1.374 . S
C439 C438 1.439 . S
C439 C464 1.395 . S
N440 Co429 1.995 . S
N440 C441 1.376 . S
N440 C444 1.383 . S
C441 N440 1.376 . S
C441 C442 1.446 . S
C441 C464 1.391 . S
C442 C441 1.446 . S
C442 C443 1.339 . S
C442 H471 0.949 . S
C443 C442 1.339 . S
C443 C444 1.439 . S
C443 H472 0.950 . S
C444 N440 1.383 . S
C444 C443 1.439 . S
C444 C462 1.392 . S
N445 Co429 2.282 . S
N445 C448 1.332 . S
N445 C450 1.332 . S
C446 C447 1.386 . S
C446 C449 1.388 . S
C447 C446 1.386 . S
C447 C448 1.382 . S
C447 H473 0.950 . S
C448 N445 1.332 . S
C448 C447 1.382 . S
C448 H459 0.952 . S
C449 C446 1.388 . S
C449 C450 1.382 . S
C449 H474 0.950 . S
C450 N445 1.332 . S
C450 C449 1.382 . S
C450 H460 0.948 . S
N451 Co429 2.282 . S
N451 C455 1.332 . S
N451 C456 1.332 . S
C452 C453 1.388 . S
C452 C456 1.382 . S
C452 H475 0.950 . S
C453 C452 1.388 . S
C453 C454 1.386 . S
C454 C453 1.386 . S
C454 C455 1.382 . S
C454 H476 0.950 . S
C455 N451 1.332 . S
C455 C454 1.382 . S
C455 H457 0.952 . S
C456 N451 1.332 . S
C456 C452 1.382 . S
C456 H458 0.948 . S
H457 C455 0.952 . S
H458 C456 0.948 . S
H459 C448 0.952 . S
H460 C450 0.948 . S
C461 C427 1.395 . S
C461 C431 1.391 . S
C462 C424 1.389 . S
C462 C444 1.392 . S
C463 C434 1.392 . S
C463 C436 1.389 . S
C464 C439 1.395 . S
C464 C441 1.391 . S
H465 C425 0.951 . S
H466 C426 0.950 . S
H467 C432 0.949 . S
H468 C433 0.950 . S
H469 C437 0.951 . S
H470 C438 0.950 . S
H471 C442 0.949 . S
H472 C443 0.950 . S
H473 C447 0.950 . S
H474 C449 0.950 . S
H475 C452 0.950 . S
H476 C454 0.950 . S
C477 C478 1.443 . S
C477 N481 1.376 . S
C477 C515 1.389 . S
C478 C477 1.443 . S
C478 C479 1.340 1_455 S
C478 H518 0.951 1_455 S
C479 C478 1.340 1_655 S
C479 C480 1.439 1_655 S
C479 H519 0.950 . S
C480 C479 1.439 1_455 S
C480 N481 1.374 . S
C480 C514 1.395 . S
N481 C477 1.376 . S
N481 C480 1.374 . S
N481 Co482 2.008 . S
Co482 N481 2.008 . S
Co482 N483 1.995 . S
Co482 N488 2.008 . S
Co482 N493 1.995 . S
Co482 N498 2.282 . S
Co482 N504 2.282 . S
N483 Co482 1.995 . S
N483 C484 1.376 . S
N483 C487 1.383 . S
C484 N483 1.376 . S
C484 C485 1.446 . S
C484 C514 1.391 . S
C485 C484 1.446 . S
C485 C486 1.339 . S
C485 H520 0.949 . S
C486 C485 1.339 . S
C486 C487 1.439 . S
C486 H521 0.950 . S
C487 N483 1.383 . S
C487 C486 1.439 . S
C487 C516 1.392 . S
N488 Co482 2.008 . S
N488 C489 1.376 . S
N488 C492 1.374 . S
C489 N488 1.376 . S
C489 C490 1.443 . S
C489 C516 1.389 . S
C490 C489 1.443 . S
C490 C491 1.340 . S
C490 H522 0.951 . S
C491 C490 1.340 . S
C491 C492 1.439 . S
C491 H523 0.950 . S
C492 N488 1.374 . S
C492 C491 1.439 . S
C492 C517 1.395 . S
N493 Co482 1.995 . S
N493 C494 1.376 . S
N493 C497 1.383 . S
C494 N493 1.376 . S
C494 C495 1.446 . S
C494 C517 1.391 . S
C495 C494 1.446 . S
C495 C496 1.339 . S
C495 H524 0.949 . S
C496 C495 1.339 . S
C496 C497 1.439 . S
C496 H525 0.950 . S
C497 N493 1.383 . S
C497 C496 1.439 . S
C497 C515 1.392 . S
N498 Co482 2.282 . S
N498 C501 1.332 . S
N498 C503 1.332 . S
C499 C500 1.386 . S
C499 C502 1.388 . S
C500 C499 1.386 . S
C500 C501 1.382 . S
C500 H526 0.950 . S
C501 N498 1.332 . S
C501 C500 1.382 . S
C501 H512 0.952 . S
C502 C499 1.388 . S
C502 C503 1.382 . S
C502 H527 0.950 . S
C503 N498 1.332 . S
C503 C502 1.382 . S
C503 H513 0.948 . S
N504 Co482 2.282 . S
N504 C508 1.332 . S
N504 C509 1.332 . S
C505 C506 1.388 . S
C505 C509 1.382 . S
C505 H528 0.950 . S
C506 C505 1.388 . S
C506 C507 1.386 . S
C507 C506 1.386 . S
C507 C508 1.382 . S
C507 H529 0.950 . S
C508 N504 1.332 . S
C508 C507 1.382 . S
C508 H510 0.952 . S
C509 N504 1.332 . S
C509 C505 1.382 . S
C509 H511 0.948 . S
H510 C508 0.952 . S
H511 C509 0.948 . S
H512 C501 0.952 . S
H513 C503 0.948 . S
C514 C480 1.395 . S
C514 C484 1.391 . S
C515 C477 1.389 . S
C515 C497 1.392 . S
C516 C487 1.392 . S
C516 C489 1.389 . S
C517 C492 1.395 . S
C517 C494 1.391 . S
H518 C478 0.951 1_655 S
H519 C479 0.950 . S
H520 C485 0.949 . S
H521 C486 0.950 . S
H522 C490 0.951 . S
H523 C491 0.950 . S
H524 C495 0.949 . S
H525 C496 0.950 . S
H526 C500 0.950 . S
H527 C502 0.950 . S
H528 C505 0.950 . S
H529 C507 0.950 . S
C530 C531 1.443 . S
C530 N534 1.376 . S
C530 C568 1.389 . S
C531 C530 1.443 . S
C531 C532 1.340 . S
C531 H571 0.951 . S
C532 C531 1.340 . S
C532 C533 1.439 . S
C532 H572 0.950 . S
C533 C532 1.439 . S
C533 N534 1.374 . S
C533 C567 1.395 . S
N534 C530 1.376 . S
N534 C533 1.374 . S
N534 Co535 2.008 . S
Co535 N534 2.008 . S
Co535 N536 1.995 . S
Co535 N541 2.008 . S
Co535 N546 1.995 . S
Co535 N551 2.282 . S
Co535 N557 2.282 . S
N536 Co535 1.995 . S
N536 C537 1.376 . S
N536 C540 1.383 . S
C537 N536 1.376 . S
C537 C538 1.446 . S
C537 C567 1.391 . S
C538 C537 1.446 . S
C538 C539 1.339 . S
C538 H573 0.949 . S
C539 C538 1.339 . S
C539 C540 1.439 . S
C539 H574 0.950 . S
C540 N536 1.383 . S
C540 C539 1.439 . S
C540 C569 1.392 . S
N541 Co535 2.008 . S
N541 C542 1.376 . S
N541 C545 1.374 . S
C542 N541 1.376 . S
C542 C543 1.443 . S
C542 C569 1.389 . S
C543 C542 1.443 . S
C543 C544 1.340 . S
C543 H575 0.951 . S
C544 C543 1.340 . S
C544 C545 1.439 . S
C544 H576 0.950 . S
C545 N541 1.374 . S
C545 C544 1.439 . S
C545 C570 1.395 . S
N546 Co535 1.995 . S
N546 C547 1.376 . S
N546 C550 1.383 . S
C547 N546 1.376 . S
C547 C548 1.446 . S
C547 C570 1.391 . S
C548 C547 1.446 . S
C548 C549 1.339 . S
C548 H577 0.949 . S
C549 C548 1.339 . S
C549 C550 1.439 . S
C549 H578 0.950 . S
C550 N546 1.383 . S
C550 C549 1.439 . S
C550 C568 1.392 . S
N551 Co535 2.282 . S
N551 C554 1.332 . S
N551 C556 1.332 . S
C552 C553 1.386 . S
C552 C555 1.388 . S
C553 C552 1.386 . S
C553 C554 1.382 . S
C553 H579 0.950 . S
C554 N551 1.332 . S
C554 C553 1.382 . S
C554 H565 0.952 . S
C555 C552 1.388 . S
C555 C556 1.382 . S
C555 H580 0.950 . S
C556 N551 1.332 . S
C556 C555 1.382 . S
C556 H566 0.948 . S
N557 Co535 2.282 . S
N557 C561 1.332 . S
N557 C562 1.332 . S
C558 C559 1.388 . S
C558 C562 1.382 . S
C558 H581 0.950 . S
C559 C558 1.388 . S
C559 C560 1.386 . S
C560 C559 1.386 . S
C560 C561 1.382 . S
C560 H582 0.950 . S
C561 N557 1.332 . S
C561 C560 1.382 . S
C561 H563 0.952 . S
C562 N557 1.332 . S
C562 C558 1.382 . S
C562 H564 0.948 . S
H563 C561 0.952 . S
H564 C562 0.948 . S
H565 C554 0.952 . S
H566 C556 0.948 . S
C567 C533 1.395 . S
C567 C537 1.391 . S
C568 C530 1.389 . S
C568 C550 1.392 . S
C569 C540 1.392 . S
C569 C542 1.389 . S
C570 C545 1.395 . S
C570 C547 1.391 . S
H571 C531 0.951 . S
H572 C532 0.950 . S
H573 C538 0.949 . S
H574 C539 0.950 . S
H575 C543 0.951 . S
H576 C544 0.950 . S
H577 C548 0.949 . S
H578 C549 0.950 . S
H579 C553 0.950 . S
H580 C555 0.950 . S
H581 C558 0.950 . S
H582 C560 0.950 . S
C583 C584 1.443 . S
C583 N587 1.376 . S
C583 C621 1.389 . S
C584 C583 1.443 . S
C584 C585 1.340 . S
C584 H624 0.951 . S
C585 C584 1.340 . S
C585 C586 1.439 . S
C585 H625 0.950 . S
C586 C585 1.439 . S
C586 N587 1.374 . S
C586 C620 1.395 . S
N587 C583 1.376 . S
N587 C586 1.374 . S
N587 Co588 2.008 . S
Co588 N587 2.008 . S
Co588 N589 1.995 . S
Co588 N594 2.008 . S
Co588 N599 1.995 . S
Co588 N604 2.282 . S
Co588 N610 2.282 . S
N589 Co588 1.995 . S
N589 C590 1.376 . S
N589 C593 1.383 . S
C590 N589 1.376 . S
C590 C591 1.446 . S
C590 C620 1.391 . S
C591 C590 1.446 . S
C591 C592 1.339 . S
C591 H626 0.949 . S
C592 C591 1.339 . S
C592 C593 1.439 . S
C592 H627 0.950 . S
C593 N589 1.383 . S
C593 C592 1.439 . S
C593 C622 1.392 . S
N594 Co588 2.008 . S
N594 C595 1.376 . S
N594 C598 1.374 . S
C595 N594 1.376 . S
C595 C596 1.443 . S
C595 C622 1.389 . S
C596 C595 1.443 . S
C596 C597 1.340 . S
C596 H628 0.951 . S
C597 C596 1.340 . S
C597 C598 1.439 . S
C597 H629 0.950 . S
C598 N594 1.374 . S
C598 C597 1.439 . S
C598 C623 1.395 . S
N599 Co588 1.995 . S
N599 C600 1.376 . S
N599 C603 1.383 . S
C600 N599 1.376 . S
C600 C601 1.446 . S
C600 C623 1.391 . S
C601 C600 1.446 . S
C601 C602 1.339 . S
C601 H630 0.949 . S
C602 C601 1.339 . S
C602 C603 1.439 . S
C602 H631 0.950 . S
C603 N599 1.383 . S
C603 C602 1.439 . S
C603 C621 1.392 . S
N604 Co588 2.282 . S
N604 C607 1.332 . S
N604 C609 1.332 . S
C605 C606 1.386 . S
C605 C608 1.388 . S
C606 C605 1.386 . S
C606 C607 1.382 . S
C606 H632 0.950 . S
C607 N604 1.332 . S
C607 C606 1.382 . S
C607 H618 0.952 . S
C608 C605 1.388 . S
C608 C609 1.382 . S
C608 H633 0.950 . S
C609 N604 1.332 . S
C609 C608 1.382 . S
C609 H619 0.948 . S
N610 Co588 2.282 . S
N610 C614 1.332 . S
N610 C615 1.332 . S
C611 C612 1.388 . S
C611 C615 1.382 . S
C611 H634 0.950 . S
C612 C611 1.388 . S
C612 C613 1.386 . S
C613 C612 1.386 . S
C613 C614 1.382 . S
C613 H635 0.950 . S
C614 N610 1.332 . S
C614 C613 1.382 . S
C614 H616 0.952 . S
C615 N610 1.332 . S
C615 C611 1.382 . S
C615 H617 0.948 . S
H616 C614 0.952 . S
H617 C615 0.948 . S
H618 C607 0.952 . S
H619 C609 0.948 . S
C620 C586 1.395 . S
C620 C590 1.391 . S
C621 C583 1.389 . S
C621 C603 1.392 . S
C622 C593 1.392 . S
C622 C595 1.389 . S
C623 C598 1.395 . S
C623 C600 1.391 . S
H624 C584 0.951 . S
H625 C585 0.950 . S
H626 C591 0.949 . S
H627 C592 0.950 . S
H628 C596 0.951 . S
H629 C597 0.950 . S
H630 C601 0.949 . S
H631 C602 0.950 . S
H632 C606 0.950 . S
H633 C608 0.950 . S
H634 C611 0.950 . S
H635 C613 0.950 . S
C636 C637 1.443 . S
C636 N640 1.376 . S
C636 C674 1.389 . S
C637 C636 1.443 . S
C637 C638 1.340 . S
C637 H677 0.951 . S
C638 C637 1.340 . S
C638 C639 1.439 . S
C638 H678 0.950 . S
C639 C638 1.439 . S
C639 N640 1.374 . S
C639 C673 1.395 . S
N640 C636 1.376 . S
N640 C639 1.374 . S
N640 Co641 2.008 . S
Co641 N640 2.008 . S
Co641 N642 1.995 . S
Co641 N647 2.008 . S
Co641 N652 1.995 . S
Co641 N657 2.282 . S
Co641 N663 2.282 . S
N642 Co641 1.995 . S
N642 C643 1.376 . S
N642 C646 1.383 . S
C643 N642 1.376 . S
C643 C644 1.446 . S
C643 C673 1.391 . S
C644 C643 1.446 . S
C644 C645 1.339 . S
C644 H679 0.949 . S
C645 C644 1.339 . S
C645 C646 1.439 . S
C645 H680 0.950 . S
C646 N642 1.383 . S
C646 C645 1.439 . S
C646 C675 1.392 . S
N647 Co641 2.008 . S
N647 C648 1.376 . S
N647 C651 1.374 . S
C648 N647 1.376 . S
C648 C649 1.443 . S
C648 C675 1.389 . S
C649 C648 1.443 . S
C649 C650 1.340 . S
C649 H681 0.951 . S
C650 C649 1.340 . S
C650 C651 1.439 . S
C650 H682 0.950 . S
C651 N647 1.374 . S
C651 C650 1.439 . S
C651 C676 1.395 . S
N652 Co641 1.995 . S
N652 C653 1.376 . S
N652 C656 1.383 . S
C653 N652 1.376 . S
C653 C654 1.446 . S
C653 C676 1.391 . S
C654 C653 1.446 . S
C654 C655 1.339 . S
C654 H683 0.949 . S
C655 C654 1.339 . S
C655 C656 1.439 . S
C655 H684 0.950 . S
C656 N652 1.383 . S
C656 C655 1.439 . S
C656 C674 1.392 . S
N657 Co641 2.282 . S
N657 C660 1.332 . S
N657 C662 1.332 . S
C658 C659 1.386 . S
C658 C661 1.388 . S
C659 C658 1.386 . S
C659 C660 1.382 . S
C659 H685 0.950 . S
C660 N657 1.332 . S
C660 C659 1.382 . S
C660 H671 0.952 . S
C661 C658 1.388 . S
C661 C662 1.382 . S
C661 H686 0.950 . S
C662 N657 1.332 . S
C662 C661 1.382 . S
C662 H672 0.948 . S
N663 Co641 2.282 . S
N663 C667 1.332 . S
N663 C668 1.332 . S
C664 C665 1.388 . S
C664 C668 1.382 . S
C664 H687 0.950 . S
C665 C664 1.388 . S
C665 C666 1.386 . S
C666 C665 1.386 . S
C666 C667 1.382 . S
C666 H688 0.950 . S
C667 N663 1.332 . S
C667 C666 1.382 . S
C667 H669 0.952 . S
C668 N663 1.332 . S
C668 C664 1.382 . S
C668 H670 0.948 . S
H669 C667 0.952 . S
H670 C668 0.948 . S
H671 C660 0.952 . S
H672 C662 0.948 . S
C673 C639 1.395 . S
C673 C643 1.391 . S
C674 C636 1.389 . S
C674 C656 1.392 . S
C675 C646 1.392 . S
C675 C648 1.389 . S
C676 C651 1.395 . S
C676 C653 1.391 . S
H677 C637 0.951 . S
H678 C638 0.950 . S
H679 C644 0.949 . S
H680 C645 0.950 . S
H681 C649 0.951 . S
H682 C650 0.950 . S
H683 C654 0.949 . S
H684 C655 0.950 . S
H685 C659 0.950 . S
H686 C661 0.950 . S
H687 C664 0.950 . S
H688 C666 0.950 . S
C689 C690 1.443 . S
C689 N693 1.376 . S
C689 C727 1.389 . S
C690 C689 1.443 . S
C690 C691 1.340 . S
C690 H730 0.951 . S
C691 C690 1.340 . S
C691 C692 1.439 . S
C691 H731 0.950 . S
C692 C691 1.439 . S
C692 N693 1.374 . S
C692 C726 1.395 . S
N693 C689 1.376 . S
N693 C692 1.374 . S
N693 Co694 2.008 . S
Co694 N693 2.008 . S
Co694 N695 1.995 . S
Co694 N700 2.008 . S
Co694 N705 1.995 . S
Co694 N710 2.282 . S
Co694 N716 2.282 . S
N695 Co694 1.995 . S
N695 C696 1.376 . S
N695 C699 1.383 . S
C696 N695 1.376 . S
C696 C697 1.446 . S
C696 C726 1.391 . S
C697 C696 1.446 . S
C697 C698 1.339 . S
C697 H732 0.949 . S
C698 C697 1.339 . S
C698 C699 1.439 . S
C698 H733 0.950 . S
C699 N695 1.383 . S
C699 C698 1.439 . S
C699 C728 1.392 . S
N700 Co694 2.008 . S
N700 C701 1.376 . S
N700 C704 1.374 . S
C701 N700 1.376 . S
C701 C702 1.443 . S
C701 C728 1.389 . S
C702 C701 1.443 . S
C702 C703 1.340 . S
C702 H734 0.951 . S
C703 C702 1.340 . S
C703 C704 1.439 . S
C703 H735 0.950 . S
C704 N700 1.374 . S
C704 C703 1.439 . S
C704 C729 1.395 . S
N705 Co694 1.995 . S
N705 C706 1.376 . S
N705 C709 1.383 . S
C706 N705 1.376 . S
C706 C707 1.446 . S
C706 C729 1.391 . S
C707 C706 1.446 . S
C707 C708 1.339 . S
C707 H736 0.949 . S
C708 C707 1.339 . S
C708 C709 1.439 . S
C708 H737 0.950 . S
C709 N705 1.383 . S
C709 C708 1.439 . S
C709 C727 1.392 . S
N710 Co694 2.282 . S
N710 C713 1.332 . S
N710 C715 1.332 . S
C711 C712 1.386 . S
C711 C714 1.388 . S
C712 C711 1.386 . S
C712 C713 1.382 . S
C712 H738 0.950 . S
C713 N710 1.332 . S
C713 C712 1.382 . S
C713 H724 0.952 . S
C714 C711 1.388 . S
C714 C715 1.382 . S
C714 H739 0.950 . S
C715 N710 1.332 . S
C715 C714 1.382 . S
C715 H725 0.948 . S
N716 Co694 2.282 . S
N716 C720 1.332 . S
N716 C721 1.332 . S
C717 C718 1.388 . S
C717 C721 1.382 . S
C717 H740 0.950 . S
C718 C717 1.388 . S
C718 C719 1.386 . S
C719 C718 1.386 . S
C719 C720 1.382 . S
C719 H741 0.950 . S
C720 N716 1.332 . S
C720 C719 1.382 . S
C720 H722 0.952 . S
C721 N716 1.332 . S
C721 C717 1.382 . S
C721 H723 0.948 . S
H722 C720 0.952 . S
H723 C721 0.948 . S
H724 C713 0.952 . S
H725 C715 0.948 . S
C726 C692 1.395 . S
C726 C696 1.391 . S
C727 C689 1.389 . S
C727 C709 1.392 . S
C728 C699 1.392 . S
C728 C701 1.389 . S
C729 C704 1.395 . S
C729 C706 1.391 . S
H730 C690 0.951 . S
H731 C691 0.950 . S
H732 C697 0.949 . S
H733 C698 0.950 . S
H734 C702 0.951 . S
H735 C703 0.950 . S
H736 C707 0.949 . S
H737 C708 0.950 . S
H738 C712 0.950 . S
H739 C714 0.950 . S
H740 C717 0.950 . S
H741 C719 0.950 . S
C742 C743 1.443 . S
C742 N746 1.376 . S
C742 C780 1.389 . S
C743 C742 1.443 . S
C743 C744 1.340 . S
C743 H783 0.951 . S
C744 C743 1.340 . S
C744 C745 1.439 . S
C744 H784 0.950 . S
C745 C744 1.439 . S
C745 N746 1.374 . S
C745 C779 1.395 . S
N746 C742 1.376 . S
N746 C745 1.374 . S
N746 Co747 2.008 . S
Co747 N746 2.008 . S
Co747 N748 1.995 . S
Co747 N753 2.008 . S
Co747 N758 1.995 . S
Co747 N763 2.282 . S
Co747 N769 2.282 . S
N748 Co747 1.995 . S
N748 C749 1.376 . S
N748 C752 1.383 . S
C749 N748 1.376 . S
C749 C750 1.446 . S
C749 C779 1.391 . S
C750 C749 1.446 . S
C750 C751 1.339 . S
C750 H785 0.949 . S
C751 C750 1.339 . S
C751 C752 1.439 . S
C751 H786 0.950 . S
C752 N748 1.383 . S
C752 C751 1.439 . S
C752 C781 1.392 . S
N753 Co747 2.008 . S
N753 C754 1.376 . S
N753 C757 1.374 . S
C754 N753 1.376 . S
C754 C755 1.443 . S
C754 C781 1.389 . S
C755 C754 1.443 . S
C755 C756 1.340 . S
C755 H787 0.951 . S
C756 C755 1.340 . S
C756 C757 1.439 . S
C756 H788 0.950 . S
C757 N753 1.374 . S
C757 C756 1.439 . S
C757 C782 1.395 . S
N758 Co747 1.995 . S
N758 C759 1.376 . S
N758 C762 1.383 . S
C759 N758 1.376 . S
C759 C760 1.446 . S
C759 C782 1.391 . S
C760 C759 1.446 . S
C760 C761 1.339 . S
C760 H789 0.949 . S
C761 C760 1.339 . S
C761 C762 1.439 . S
C761 H790 0.950 . S
C762 N758 1.383 . S
C762 C761 1.439 . S
C762 C780 1.392 . S
N763 Co747 2.282 . S
N763 C766 1.332 . S
N763 C768 1.332 . S
C764 C765 1.386 . S
C764 C767 1.388 . S
C765 C764 1.386 . S
C765 C766 1.382 . S
C765 H791 0.950 . S
C766 N763 1.332 . S
C766 C765 1.382 . S
C766 H777 0.952 . S
C767 C764 1.388 . S
C767 C768 1.382 . S
C767 H792 0.950 . S
C768 N763 1.332 . S
C768 C767 1.382 . S
C768 H778 0.948 . S
N769 Co747 2.282 . S
N769 C773 1.332 . S
N769 C774 1.332 . S
C770 C771 1.388 . S
C770 C774 1.382 . S
C770 H793 0.950 . S
C771 C770 1.388 . S
C771 C772 1.386 . S
C772 C771 1.386 . S
C772 C773 1.382 . S
C772 H794 0.950 . S
C773 N769 1.332 . S
C773 C772 1.382 . S
C773 H775 0.952 . S
C774 N769 1.332 . S
C774 C770 1.382 . S
C774 H776 0.948 . S
H775 C773 0.952 . S
H776 C774 0.948 . S
H777 C766 0.952 . S
H778 C768 0.948 . S
C779 C745 1.395 . S
C779 C749 1.391 . S
C780 C742 1.389 . S
C780 C762 1.392 . S
C781 C752 1.392 . S
C781 C754 1.389 . S
C782 C757 1.395 . S
C782 C759 1.391 . S
H783 C743 0.951 . S
H784 C744 0.950 . S
H785 C750 0.949 . S
H786 C751 0.950 . S
H787 C755 0.951 . S
H788 C756 0.950 . S
H789 C760 0.949 . S
H790 C761 0.950 . S
H791 C765 0.950 . S
H792 C767 0.950 . S
H793 C770 0.950 . S
H794 C772 0.950 . S
C795 C796 1.443 . S
C795 N799 1.376 . S
C795 C833 1.389 . S
C796 C795 1.443 . S
C796 C797 1.340 1_455 S
C796 H836 0.951 1_455 S
C797 C796 1.340 1_655 S
C797 C798 1.439 1_655 S
C797 H837 0.950 . S
C798 C797 1.439 1_455 S
C798 N799 1.374 . S
C798 C832 1.395 . S
N799 C795 1.376 . S
N799 C798 1.374 . S
N799 Co800 2.008 . S
Co800 N799 2.008 . S
Co800 N801 1.995 . S
Co800 N806 2.008 . S
Co800 N811 1.995 . S
Co800 N816 2.282 . S
Co800 N822 2.282 . S
N801 Co800 1.995 . S
N801 C802 1.376 . S
N801 C805 1.383 . S
C802 N801 1.376 . S
C802 C803 1.446 . S
C802 C832 1.391 . S
C803 C802 1.446 . S
C803 C804 1.339 . S
C803 H838 0.949 . S
C804 C803 1.339 . S
C804 C805 1.439 . S
C804 H839 0.950 . S
C805 N801 1.383 . S
C805 C804 1.439 . S
C805 C834 1.392 . S
N806 Co800 2.008 . S
N806 C807 1.376 . S
N806 C810 1.374 . S
C807 N806 1.376 . S
C807 C808 1.443 . S
C807 C834 1.389 . S
C808 C807 1.443 . S
C808 C809 1.340 . S
C808 H840 0.951 . S
C809 C808 1.340 . S
C809 C810 1.439 . S
C809 H841 0.950 . S
C810 N806 1.374 . S
C810 C809 1.439 . S
C810 C835 1.395 . S
N811 Co800 1.995 . S
N811 C812 1.376 . S
N811 C815 1.383 . S
C812 N811 1.376 . S
C812 C813 1.446 . S
C812 C835 1.391 . S
C813 C812 1.446 . S
C813 C814 1.339 . S
C813 H842 0.949 . S
C814 C813 1.339 . S
C814 C815 1.439 . S
C814 H843 0.950 . S
C815 N811 1.383 . S
C815 C814 1.439 . S
C815 C833 1.392 . S
N816 Co800 2.282 . S
N816 C819 1.332 . S
N816 C821 1.332 . S
C817 C818 1.386 . S
C817 C820 1.388 . S
C818 C817 1.386 . S
C818 C819 1.382 . S
C818 H844 0.950 . S
C819 N816 1.332 . S
C819 C818 1.382 . S
C819 H830 0.952 . S
C820 C817 1.388 . S
C820 C821 1.382 . S
C820 H845 0.950 . S
C821 N816 1.332 . S
C821 C820 1.382 . S
C821 H831 0.948 . S
N822 Co800 2.282 . S
N822 C826 1.332 . S
N822 C827 1.332 . S
C823 C824 1.388 . S
C823 C827 1.382 . S
C823 H846 0.950 . S
C824 C823 1.388 . S
C824 C825 1.386 . S
C825 C824 1.386 . S
C825 C826 1.382 . S
C825 H847 0.950 . S
C826 N822 1.332 . S
C826 C825 1.382 . S
C826 H828 0.952 . S
C827 N822 1.332 . S
C827 C823 1.382 . S
C827 H829 0.948 . S
H828 C826 0.952 . S
H829 C827 0.948 . S
H830 C819 0.952 . S
H831 C821 0.948 . S
C832 C798 1.395 . S
C832 C802 1.391 . S
C833 C795 1.389 . S
C833 C815 1.392 . S
C834 C805 1.392 . S
C834 C807 1.389 . S
C835 C810 1.395 . S
C835 C812 1.391 . S
H836 C796 0.951 1_655 S
H837 C797 0.950 . S
H838 C803 0.949 . S
H839 C804 0.950 . S
H840 C808 0.951 . S
H841 C809 0.950 . S
H842 C813 0.949 . S
H843 C814 0.950 . S
H844 C818 0.950 . S
H845 C820 0.950 . S
H846 C823 0.950 . S
H847 C825 0.950 . S
C848 C849 1.443 . S
C848 N852 1.376 . S
C848 C886 1.389 . S
C849 C848 1.443 . S
C849 C850 1.340 . S
C849 H889 0.951 . S
C850 C849 1.340 . S
C850 C851 1.439 . S
C850 H890 0.950 . S
C851 C850 1.439 . S
C851 N852 1.374 . S
C851 C885 1.395 . S
N852 C848 1.376 . S
N852 C851 1.374 . S
N852 Co853 2.008 . S
Co853 N852 2.008 . S
Co853 N854 1.995 . S
Co853 N859 2.008 . S
Co853 N864 1.995 . S
Co853 N869 2.282 . S
Co853 N875 2.282 . S
N854 Co853 1.995 . S
N854 C855 1.376 . S
N854 C858 1.383 . S
C855 N854 1.376 . S
C855 C856 1.446 . S
C855 C885 1.391 . S
C856 C855 1.446 . S
C856 C857 1.339 . S
C856 H891 0.949 . S
C857 C856 1.339 . S
C857 C858 1.439 . S
C857 H892 0.950 . S
C858 N854 1.383 . S
C858 C857 1.439 . S
C858 C887 1.392 . S
N859 Co853 2.008 . S
N859 C860 1.376 . S
N859 C863 1.374 . S
C860 N859 1.376 . S
C860 C861 1.443 . S
C860 C887 1.389 . S
C861 C860 1.443 . S
C861 C862 1.340 . S
C861 H893 0.951 . S
C862 C861 1.340 . S
C862 C863 1.439 . S
C862 H894 0.950 . S
C863 N859 1.374 . S
C863 C862 1.439 . S
C863 C888 1.395 . S
N864 Co853 1.995 . S
N864 C865 1.376 . S
N864 C868 1.383 . S
C865 N864 1.376 . S
C865 C866 1.446 . S
C865 C888 1.391 . S
C866 C865 1.446 . S
C866 C867 1.339 . S
C866 H895 0.949 . S
C867 C866 1.339 . S
C867 C868 1.439 . S
C867 H896 0.950 . S
C868 N864 1.383 . S
C868 C867 1.439 . S
C868 C886 1.392 . S
N869 Co853 2.282 . S
N869 C872 1.332 . S
N869 C874 1.332 . S
C870 C871 1.386 . S
C870 C873 1.388 . S
C871 C870 1.386 . S
C871 C872 1.382 . S
C871 H897 0.950 . S
C872 N869 1.332 . S
C872 C871 1.382 . S
C872 H883 0.952 . S
C873 C870 1.388 . S
C873 C874 1.382 . S
C873 H898 0.950 . S
C874 N869 1.332 . S
C874 C873 1.382 . S
C874 H884 0.948 . S
N875 Co853 2.282 . S
N875 C879 1.332 . S
N875 C880 1.332 . S
C876 C877 1.388 . S
C876 C880 1.382 . S
C876 H899 0.950 . S
C877 C876 1.388 . S
C877 C878 1.386 . S
C878 C877 1.386 . S
C878 C879 1.382 . S
C878 H900 0.950 . S
C879 N875 1.332 . S
C879 C878 1.382 . S
C879 H881 0.952 . S
C880 N875 1.332 . S
C880 C876 1.382 . S
C880 H882 0.948 . S
H881 C879 0.952 . S
H882 C880 0.948 . S
H883 C872 0.952 . S
H884 C874 0.948 . S
C885 C851 1.395 . S
C885 C855 1.391 . S
C886 C848 1.389 . S
C886 C868 1.392 . S
C887 C858 1.392 . S
C887 C860 1.389 . S
C888 C863 1.395 . S
C888 C865 1.391 . S
H889 C849 0.951 . S
H890 C850 0.950 . S
H891 C856 0.949 . S
H892 C857 0.950 . S
H893 C861 0.951 . S
H894 C862 0.950 . S
H895 C866 0.949 . S
H896 C867 0.950 . S
H897 C871 0.950 . S
H898 C873 0.950 . S
H899 C876 0.950 . S
H900 C878 0.950 . S
C901 C902 1.443 . S
C901 N905 1.376 . S
C901 C939 1.389 . S
C902 C901 1.443 . S
C902 C903 1.340 . S
C902 H942 0.951 . S
C903 C902 1.340 . S
C903 C904 1.439 . S
C903 H943 0.950 . S
C904 C903 1.439 . S
C904 N905 1.374 . S
C904 C938 1.395 . S
N905 C901 1.376 . S
N905 C904 1.374 . S
N905 Co906 2.008 . S
Co906 N905 2.008 . S
Co906 N907 1.995 . S
Co906 N912 2.008 . S
Co906 N917 1.995 . S
Co906 N922 2.282 . S
Co906 N928 2.282 . S
N907 Co906 1.995 . S
N907 C908 1.376 . S
N907 C911 1.383 . S
C908 N907 1.376 . S
C908 C909 1.446 . S
C908 C938 1.391 . S
C909 C908 1.446 . S
C909 C910 1.339 . S
C909 H944 0.949 . S
C910 C909 1.339 . S
C910 C911 1.439 . S
C910 H945 0.950 . S
C911 N907 1.383 . S
C911 C910 1.439 . S
C911 C940 1.392 . S
N912 Co906 2.008 . S
N912 C913 1.376 . S
N912 C916 1.374 . S
C913 N912 1.376 . S
C913 C914 1.443 . S
C913 C940 1.389 . S
C914 C913 1.443 . S
C914 C915 1.340 . S
C914 H946 0.951 . S
C915 C914 1.340 . S
C915 C916 1.439 . S
C915 H947 0.950 . S
C916 N912 1.374 . S
C916 C915 1.439 . S
C916 C941 1.395 . S
N917 Co906 1.995 . S
N917 C918 1.376 . S
N917 C921 1.383 . S
C918 N917 1.376 . S
C918 C919 1.446 . S
C918 C941 1.391 . S
C919 C918 1.446 . S
C919 C920 1.339 . S
C919 H948 0.949 . S
C920 C919 1.339 . S
C920 C921 1.439 . S
C920 H949 0.950 . S
C921 N917 1.383 . S
C921 C920 1.439 . S
C921 C939 1.392 . S
N922 Co906 2.282 . S
N922 C925 1.332 . S
N922 C927 1.332 . S
C923 C924 1.386 . S
C923 C926 1.388 . S
C924 C923 1.386 . S
C924 C925 1.382 . S
C924 H950 0.950 . S
C925 N922 1.332 . S
C925 C924 1.382 . S
C925 H936 0.952 . S
C926 C923 1.388 . S
C926 C927 1.382 . S
C926 H951 0.950 . S
C927 N922 1.332 . S
C927 C926 1.382 . S
C927 H937 0.948 . S
N928 Co906 2.282 . S
N928 C932 1.332 . S
N928 C933 1.332 . S
C929 C930 1.388 . S
C929 C933 1.382 . S
C929 H952 0.950 . S
C930 C929 1.388 . S
C930 C931 1.386 . S
C931 C930 1.386 . S
C931 C932 1.382 . S
C931 H953 0.950 . S
C932 N928 1.332 . S
C932 C931 1.382 . S
C932 H934 0.952 . S
C933 N928 1.332 . S
C933 C929 1.382 . S
C933 H935 0.948 . S
H934 C932 0.952 . S
H935 C933 0.948 . S
H936 C925 0.952 . S
H937 C927 0.948 . S
C938 C904 1.395 . S
C938 C908 1.391 . S
C939 C901 1.389 . S
C939 C921 1.392 . S
C940 C911 1.392 . S
C940 C913 1.389 . S
C941 C916 1.395 . S
C941 C918 1.391 . S
H942 C902 0.951 . S
H943 C903 0.950 . S
H944 C909 0.949 . S
H945 C910 0.950 . S
H946 C914 0.951 . S
H947 C915 0.950 . S
H948 C919 0.949 . S
H949 C920 0.950 . S
H950 C924 0.950 . S
H951 C926 0.950 . S
H952 C929 0.950 . S
H953 C931 0.950 . S
C954 C955 1.443 1_554 S
C954 N958 1.376 . S
C954 C992 1.389 . S
C955 C954 1.443 1_556 S
C955 C956 1.340 . S
C955 H995 0.951 . S
C956 C955 1.340 . S
C956 C957 1.439 1_556 S
C956 H996 0.950 . S
C957 C956 1.439 1_554 S
C957 N958 1.374 . S
C957 C991 1.395 . S
N958 C954 1.376 . S
N958 C957 1.374 . S
N958 Co959 2.008 . S
Co959 N958 2.008 . S
Co959 N960 1.995 . S
Co959 N965 2.008 . S
Co959 N970 1.995 . S
Co959 N975 2.282 . S
Co959 N981 2.282 . S
N960 Co959 1.995 . S
N960 C961 1.376 . S
N960 C964 1.383 . S
C961 N960 1.376 . S
C961 C962 1.446 . S
C961 C991 1.391 . S
C962 C961 1.446 . S
C962 C963 1.339 . S
C962 H997 0.949 . S
C963 C962 1.339 . S
C963 C964 1.439 . S
C963 H998 0.950 . S
C964 N960 1.383 . S
C964 C963 1.439 . S
C964 C993 1.392 . S
N965 Co959 2.008 . S
N965 C966 1.376 . S
N965 C969 1.374 . S
C966 N965 1.376 . S
C966 C967 1.443 . S
C966 C993 1.389 . S
C967 C966 1.443 . S
C967 C968 1.340 . S
C967 H999 0.951 . S
C968 C967 1.340 . S
C968 C969 1.439 . S
C968 H1000 0.950 . S
C969 N965 1.374 . S
C969 C968 1.439 . S
C969 C994 1.395 . S
N970 Co959 1.995 . S
N970 C971 1.376 . S
N970 C974 1.383 . S
C971 N970 1.376 . S
C971 C972 1.446 . S
C971 C994 1.391 . S
C972 C971 1.446 . S
C972 C973 1.339 . S
C972 H1001 0.949 . S
C973 C972 1.339 . S
C973 C974 1.439 . S
C973 H1002 0.950 . S
C974 N970 1.383 . S
C974 C973 1.439 . S
C974 C992 1.392 . S
N975 Co959 2.282 . S
N975 C978 1.332 . S
N975 C980 1.332 . S
C976 C977 1.386 . S
C976 C979 1.388 . S
C977 C976 1.386 . S
C977 C978 1.382 . S
C977 H1003 0.950 . S
C978 N975 1.332 . S
C978 C977 1.382 . S
C978 H989 0.952 . S
C979 C976 1.388 . S
C979 C980 1.382 . S
C979 H1004 0.950 . S
C980 N975 1.332 . S
C980 C979 1.382 . S
C980 H990 0.948 . S
N981 Co959 2.282 . S
N981 C985 1.332 . S
N981 C986 1.332 . S
C982 C983 1.388 . S
C982 C986 1.382 . S
C982 H1005 0.950 . S
C983 C982 1.388 . S
C983 C984 1.386 . S
C984 C983 1.386 . S
C984 C985 1.382 . S
C984 H1006 0.950 1_554 S
C985 N981 1.332 . S
C985 C984 1.382 . S
C985 H987 0.952 . S
C986 N981 1.332 . S
C986 C982 1.382 . S
C986 H988 0.948 . S
H987 C985 0.952 . S
H988 C986 0.948 . S
H989 C978 0.952 . S
H990 C980 0.948 . S
C991 C957 1.395 . S
C991 C961 1.391 . S
C992 C954 1.389 . S
C992 C974 1.392 . S
C993 C964 1.392 . S
C993 C966 1.389 . S
C994 C969 1.395 . S
C994 C971 1.391 . S
H995 C955 0.951 . S
H996 C956 0.950 . S
H997 C962 0.949 . S
H998 C963 0.950 . S
H999 C967 0.951 . S
H1000 C968 0.950 . S
H1001 C972 0.949 . S
H1002 C973 0.950 . S
H1003 C977 0.950 . S
H1004 C979 0.950 . S
H1005 C982 0.950 . S
H1006 C984 0.950 1_556 S
C1007 C1008 1.443 . S
C1007 N1011 1.376 . S
C1007 C1045 1.389 . S
C1008 C1007 1.443 . S
C1008 C1009 1.340 . S
C1008 H1048 0.951 . S
C1009 C1008 1.340 . S
C1009 C1010 1.439 . S
C1009 H1049 0.950 . S
C1010 C1009 1.439 . S
C1010 N1011 1.374 . S
C1010 C1044 1.395 . S
N1011 C1007 1.376 . S
N1011 C1010 1.374 . S
N1011 Co1012 2.008 . S
Co1012 N1011 2.008 . S
Co1012 N1013 1.995 . S
Co1012 N1018 2.008 . S
Co1012 N1023 1.995 . S
Co1012 N1028 2.282 . S
Co1012 N1034 2.282 . S
N1013 Co1012 1.995 . S
N1013 C1014 1.376 . S
N1013 C1017 1.383 . S
C1014 N1013 1.376 . S
C1014 C1015 1.446 . S
C1014 C1044 1.391 . S
C1015 C1014 1.446 . S
C1015 C1016 1.339 . S
C1015 H1050 0.949 . S
C1016 C1015 1.339 . S
C1016 C1017 1.439 . S
C1016 H1051 0.950 . S
C1017 N1013 1.383 . S
C1017 C1016 1.439 . S
C1017 C1046 1.392 . S
N1018 Co1012 2.008 . S
N1018 C1019 1.376 . S
N1018 C1022 1.374 . S
C1019 N1018 1.376 . S
C1019 C1020 1.443 . S
C1019 C1046 1.389 . S
C1020 C1019 1.443 . S
C1020 C1021 1.340 . S
C1020 H1052 0.951 . S
C1021 C1020 1.340 . S
C1021 C1022 1.439 . S
C1021 H1053 0.950 . S
C1022 N1018 1.374 . S
C1022 C1021 1.439 . S
C1022 C1047 1.395 . S
N1023 Co1012 1.995 . S
N1023 C1024 1.376 . S
N1023 C1027 1.383 . S
C1024 N1023 1.376 . S
C1024 C1025 1.446 . S
C1024 C1047 1.391 . S
C1025 C1024 1.446 . S
C1025 C1026 1.339 . S
C1025 H1054 0.949 . S
C1026 C1025 1.339 . S
C1026 C1027 1.439 . S
C1026 H1055 0.950 . S
C1027 N1023 1.383 . S
C1027 C1026 1.439 . S
C1027 C1045 1.392 . S
N1028 Co1012 2.282 . S
N1028 C1031 1.332 . S
N1028 C1033 1.332 . S
C1029 C1030 1.386 . S
C1029 C1032 1.388 . S
C1030 C1029 1.386 . S
C1030 C1031 1.382 . S
C1030 H1056 0.950 . S
C1031 N1028 1.332 . S
C1031 C1030 1.382 . S
C1031 H1042 0.952 . S
C1032 C1029 1.388 . S
C1032 C1033 1.382 . S
C1032 H1057 0.950 . S
C1033 N1028 1.332 . S
C1033 C1032 1.382 . S
C1033 H1043 0.948 . S
N1034 Co1012 2.282 . S
N1034 C1038 1.332 . S
N1034 C1039 1.332 . S
C1035 C1036 1.388 . S
C1035 C1039 1.382 . S
C1035 H1058 0.950 . S
C1036 C1035 1.388 . S
C1036 C1037 1.386 . S
C1037 C1036 1.386 . S
C1037 C1038 1.382 . S
C1037 H1059 0.950 . S
C1038 N1034 1.332 . S
C1038 C1037 1.382 . S
C1038 H1040 0.952 . S
C1039 N1034 1.332 . S
C1039 C1035 1.382 . S
C1039 H1041 0.948 . S
H1040 C1038 0.952 . S
H1041 C1039 0.948 . S
H1042 C1031 0.952 . S
H1043 C1033 0.948 . S
C1044 C1010 1.395 . S
C1044 C1014 1.391 . S
C1045 C1007 1.389 . S
C1045 C1027 1.392 . S
C1046 C1017 1.392 . S
C1046 C1019 1.389 . S
C1047 C1022 1.395 . S
C1047 C1024 1.391 . S
H1048 C1008 0.951 . S
H1049 C1009 0.950 . S
H1050 C1015 0.949 . S
H1051 C1016 0.950 . S
H1052 C1020 0.951 . S
H1053 C1021 0.950 . S
H1054 C1025 0.949 . S
H1055 C1026 0.950 . S
H1056 C1030 0.950 . S
H1057 C1032 0.950 . S
H1058 C1035 0.950 . S
H1059 C1037 0.950 . S
C1060 C1061 1.441 1_564 S
C1060 N1064 1.380 . S
C1060 C1098 1.386 1_565 S
C1061 C1060 1.441 1_546 S
C1061 C1062 1.305 1_545 S
C1061 H1101 0.985 . S
C1062 C1061 1.305 1_565 S
C1062 C1063 1.439 1_556 S
C1062 H1102 0.950 . S
C1063 C1062 1.439 1_554 S
C1063 N1064 1.374 . S
C1063 C1097 1.395 . S
N1064 C1060 1.380 . S
N1064 C1063 1.374 . S
N1064 Co1065 2.008 . S
Co1065 N1064 2.008 . S
Co1065 N1066 1.995 . S
Co1065 N1071 2.008 . S
Co1065 N1076 1.995 . S
Co1065 N1081 2.282 . S
Co1065 N1087 2.282 . S
N1066 Co1065 1.995 . S
N1066 C1067 1.376 . S
N1066 C1070 1.383 . S
C1067 N1066 1.376 . S
C1067 C1068 1.446 . S
C1067 C1097 1.391 . S
C1068 C1067 1.446 . S
C1068 C1069 1.339 . S
C1068 H1103 0.949 . S
C1069 C1068 1.339 . S
C1069 C1070 1.439 . S
C1069 H1104 0.950 . S
C1070 N1066 1.383 . S
C1070 C1069 1.439 . S
C1070 C1099 1.392 . S
N1071 Co1065 2.008 . S
N1071 C1072 1.376 . S
N1071 C1075 1.374 . S
C1072 N1071 1.376 . S
C1072 C1073 1.443 . S
C1072 C1099 1.389 . S
C1073 C1072 1.443 . S
C1073 C1074 1.340 . S
C1073 H1105 0.951 . S
C1074 C1073 1.340 . S
C1074 C1075 1.439 . S
C1074 H1106 0.950 . S
C1075 N1071 1.374 . S
C1075 C1074 1.439 . S
C1075 C1100 1.395 . S
N1076 Co1065 1.995 . S
N1076 C1077 1.376 . S
N1076 C1080 1.383 1_565 S
C1077 N1076 1.376 . S
C1077 C1078 1.446 1_565 S
C1077 C1100 1.391 . S
C1078 C1077 1.446 1_545 S
C1078 C1079 1.339 . S
C1078 H1107 0.949 . S
C1079 C1078 1.339 . S
C1079 C1080 1.439 . S
C1079 H1108 0.950 . S
C1080 N1076 1.383 1_545 S
C1080 C1079 1.439 . S
C1080 C1098 1.392 . S
N1081 Co1065 2.282 . S
N1081 C1084 1.332 1_565 S
N1081 C1086 1.332 . S
C1082 C1083 1.386 . S
C1082 C1085 1.388 . S
C1083 C1082 1.386 . S
C1083 C1084 1.382 . S
C1083 H1109 0.950 . S
C1084 N1081 1.332 1_545 S
C1084 C1083 1.382 . S
C1084 H1095 0.952 . S
C1085 C1082 1.388 . S
C1085 C1086 1.382 1_545 S
C1085 H1110 0.950 . S
C1086 N1081 1.332 . S
C1086 C1085 1.382 1_565 S
C1086 H1096 0.948 . S
N1087 Co1065 2.282 . S
N1087 C1091 1.332 . S
N1087 C1092 1.332 . S
C1088 C1089 1.388 . S
C1088 C1092 1.382 . S
C1088 H1111 0.950 . S
C1089 C1088 1.388 . S
C1089 C1090 1.386 . S
C1090 C1089 1.386 . S
C1090 C1091 1.382 . S
C1090 H1112 0.950 1_554 S
C1091 N1087 1.332 . S
C1091 C1090 1.382 . S
C1091 H1093 0.952 . S
C1092 N1087 1.332 . S
C1092 C1088 1.382 . S
C1092 H1094 0.948 . S
H1093 C1091 0.952 . S
H1094 C1092 0.948 . S
H1095 C1084 0.952 . S
H1096 C1086 0.948 . S
C1097 C1063 1.395 . S
C1097 C1067 1.391 . S
C1098 C1060 1.386 1_545 S
C1098 C1080 1.392 . S
C1099 C1070 1.392 . S
C1099 C1072 1.389 . S
C1100 C1075 1.395 . S
C1100 C1077 1.391 . S
H1101 C1061 0.985 . S
H1102 C1062 0.950 . S
H1103 C1068 0.949 . S
H1104 C1069 0.950 . S
H1105 C1073 0.951 . S
H1106 C1074 0.950 . S
H1107 C1078 0.949 . S
H1108 C1079 0.950 . S
H1109 C1083 0.950 . S
H1110 C1085 0.950 . S
H1111 C1088 0.950 . S
H1112 C1090 0.950 1_556 S
C1113 C1114 1.443 . S
C1113 N1117 1.376 . S
C1113 C1151 1.389 . S
C1114 C1113 1.443 . S
C1114 C1115 1.340 . S
C1114 H1154 0.951 . S
C1115 C1114 1.340 . S
C1115 C1116 1.439 . S
C1115 H1155 0.950 . S
C1116 C1115 1.439 . S
C1116 N1117 1.374 . S
C1116 C1150 1.395 . S
N1117 C1113 1.376 . S
N1117 C1116 1.374 . S
N1117 Co1118 2.008 . S
Co1118 N1117 2.008 . S
Co1118 N1119 1.995 . S
Co1118 N1124 2.008 . S
Co1118 N1129 1.995 . S
Co1118 N1134 2.282 . S
Co1118 N1140 2.282 . S
N1119 Co1118 1.995 . S
N1119 C1120 1.376 . S
N1119 C1123 1.383 . S
C1120 N1119 1.376 . S
C1120 C1121 1.446 . S
C1120 C1150 1.391 . S
C1121 C1120 1.446 . S
C1121 C1122 1.339 . S
C1121 H1156 0.949 . S
C1122 C1121 1.339 . S
C1122 C1123 1.439 . S
C1122 H1157 0.950 . S
C1123 N1119 1.383 . S
C1123 C1122 1.439 . S
C1123 C1152 1.392 . S
N1124 Co1118 2.008 . S
N1124 C1125 1.376 . S
N1124 C1128 1.374 . S
C1125 N1124 1.376 . S
C1125 C1126 1.443 . S
C1125 C1152 1.389 . S
C1126 C1125 1.443 . S
C1126 C1127 1.340 . S
C1126 H1158 0.951 . S
C1127 C1126 1.340 . S
C1127 C1128 1.439 . S
C1127 H1159 0.950 . S
C1128 N1124 1.374 . S
C1128 C1127 1.439 . S
C1128 C1153 1.395 . S
N1129 Co1118 1.995 . S
N1129 C1130 1.376 . S
N1129 C1133 1.383 . S
C1130 N1129 1.376 . S
C1130 C1131 1.446 . S
C1130 C1153 1.391 . S
C1131 C1130 1.446 . S
C1131 C1132 1.339 . S
C1131 H1160 0.949 . S
C1132 C1131 1.339 . S
C1132 C1133 1.439 . S
C1132 H1161 0.950 . S
C1133 N1129 1.383 . S
C1133 C1132 1.439 . S
C1133 C1151 1.392 . S
N1134 Co1118 2.282 . S
N1134 C1137 1.332 . S
N1134 C1139 1.332 . S
C1135 C1136 1.386 . S
C1135 C1138 1.388 . S
C1136 C1135 1.386 . S
C1136 C1137 1.382 . S
C1136 H1162 0.950 . S
C1137 N1134 1.332 . S
C1137 C1136 1.382 . S
C1137 H1148 0.952 . S
C1138 C1135 1.388 . S
C1138 C1139 1.382 . S
C1138 H1163 0.950 . S
C1139 N1134 1.332 . S
C1139 C1138 1.382 . S
C1139 H1149 0.948 . S
N1140 Co1118 2.282 . S
N1140 C1144 1.332 . S
N1140 C1145 1.332 . S
C1141 C1142 1.388 . S
C1141 C1145 1.382 . S
C1141 H1164 0.950 . S
C1142 C1141 1.388 . S
C1142 C1143 1.386 . S
C1143 C1142 1.386 . S
C1143 C1144 1.382 . S
C1143 H1165 0.950 . S
C1144 N1140 1.332 . S
C1144 C1143 1.382 . S
C1144 H1146 0.952 . S
C1145 N1140 1.332 . S
C1145 C1141 1.382 . S
C1145 H1147 0.948 . S
H1146 C1144 0.952 . S
H1147 C1145 0.948 . S
H1148 C1137 0.952 . S
H1149 C1139 0.948 . S
C1150 C1116 1.395 . S
C1150 C1120 1.391 . S
C1151 C1113 1.389 . S
C1151 C1133 1.392 . S
C1152 C1123 1.392 . S
C1152 C1125 1.389 . S
C1153 C1128 1.395 . S
C1153 C1130 1.391 . S
H1154 C1114 0.951 . S
H1155 C1115 0.950 . S
H1156 C1121 0.949 . S
H1157 C1122 0.950 . S
H1158 C1126 0.951 . S
H1159 C1127 0.950 . S
H1160 C1131 0.949 . S
H1161 C1132 0.950 . S
H1162 C1136 0.950 . S
H1163 C1138 0.950 . S
H1164 C1141 0.950 . S
H1165 C1143 0.950 . S
C1166 C1167 1.443 . S
C1166 N1170 1.376 . S
C1166 C1204 1.389 . S
C1167 C1166 1.443 . S
C1167 C1168 1.340 . S
C1167 H1207 0.951 . S
C1168 C1167 1.340 . S
C1168 C1169 1.439 . S
C1168 H1208 0.950 . S
C1169 C1168 1.439 . S
C1169 N1170 1.374 . S
C1169 C1203 1.395 . S
N1170 C1166 1.376 . S
N1170 C1169 1.374 . S
N1170 Co1171 2.008 . S
Co1171 N1170 2.008 . S
Co1171 N1172 1.995 . S
Co1171 N1177 2.008 . S
Co1171 N1182 1.995 . S
Co1171 N1187 2.282 . S
Co1171 N1193 2.282 . S
N1172 Co1171 1.995 . S
N1172 C1173 1.376 . S
N1172 C1176 1.383 . S
C1173 N1172 1.376 . S
C1173 C1174 1.446 . S
C1173 C1203 1.391 . S
C1174 C1173 1.446 . S
C1174 C1175 1.339 . S
C1174 H1209 0.949 . S
C1175 C1174 1.339 . S
C1175 C1176 1.439 . S
C1175 H1210 0.950 . S
C1176 N1172 1.383 . S
C1176 C1175 1.439 . S
C1176 C1205 1.392 . S
N1177 Co1171 2.008 . S
N1177 C1178 1.376 . S
N1177 C1181 1.374 . S
C1178 N1177 1.376 . S
C1178 C1179 1.443 . S
C1178 C1205 1.389 . S
C1179 C1178 1.443 . S
C1179 C1180 1.340 . S
C1179 H1211 0.951 . S
C1180 C1179 1.340 . S
C1180 C1181 1.439 . S
C1180 H1212 0.950 . S
C1181 N1177 1.374 . S
C1181 C1180 1.439 . S
C1181 C1206 1.395 . S
N1182 Co1171 1.995 . S
N1182 C1183 1.376 . S
N1182 C1186 1.383 . S
C1183 N1182 1.376 . S
C1183 C1184 1.446 . S
C1183 C1206 1.391 . S
C1184 C1183 1.446 . S
C1184 C1185 1.339 . S
C1184 H1213 0.949 . S
C1185 C1184 1.339 . S
C1185 C1186 1.439 . S
C1185 H1214 0.950 . S
C1186 N1182 1.383 . S
C1186 C1185 1.439 . S
C1186 C1204 1.392 . S
N1187 Co1171 2.282 . S
N1187 C1190 1.332 . S
N1187 C1192 1.332 . S
C1188 C1189 1.386 . S
C1188 C1191 1.388 . S
C1189 C1188 1.386 . S
C1189 C1190 1.382 . S
C1189 H1215 0.950 . S
C1190 N1187 1.332 . S
C1190 C1189 1.382 . S
C1190 H1201 0.952 . S
C1191 C1188 1.388 . S
C1191 C1192 1.382 . S
C1191 H1216 0.950 . S
C1192 N1187 1.332 . S
C1192 C1191 1.382 . S
C1192 H1202 0.948 . S
N1193 Co1171 2.282 . S
N1193 C1197 1.332 . S
N1193 C1198 1.332 . S
C1194 C1195 1.388 . S
C1194 C1198 1.382 . S
C1194 H1217 0.950 . S
C1195 C1194 1.388 . S
C1195 C1196 1.386 . S
C1196 C1195 1.386 . S
C1196 C1197 1.382 . S
C1196 H1218 0.950 . S
C1197 N1193 1.332 . S
C1197 C1196 1.382 . S
C1197 H1199 0.952 . S
C1198 N1193 1.332 . S
C1198 C1194 1.382 . S
C1198 H1200 0.948 . S
H1199 C1197 0.952 . S
H1200 C1198 0.948 . S
H1201 C1190 0.952 . S
H1202 C1192 0.948 . S
C1203 C1169 1.395 . S
C1203 C1173 1.391 . S
C1204 C1166 1.389 . S
C1204 C1186 1.392 . S
C1205 C1176 1.392 . S
C1205 C1178 1.389 . S
C1206 C1181 1.395 . S
C1206 C1183 1.391 . S
H1207 C1167 0.951 . S
H1208 C1168 0.950 . S
H1209 C1174 0.949 . S
H1210 C1175 0.950 . S
H1211 C1179 0.951 . S
H1212 C1180 0.950 . S
H1213 C1184 0.949 . S
H1214 C1185 0.950 . S
H1215 C1189 0.950 . S
H1216 C1191 0.950 . S
H1217 C1194 0.950 . S
H1218 C1196 0.950 . S
C1219 C1220 1.443 1_556 S
C1219 N1223 1.376 . S
C1219 C1257 1.389 . S
C1220 C1219 1.443 1_554 S
C1220 C1221 1.340 . S
C1220 H1260 0.951 . S
C1221 C1220 1.340 . S
C1221 C1222 1.439 1_554 S
C1221 H1261 0.950 . S
C1222 C1221 1.439 1_556 S
C1222 N1223 1.374 . S
C1222 C1256 1.395 . S
N1223 C1219 1.376 . S
N1223 C1222 1.374 . S
N1223 Co1224 2.008 . S
Co1224 N1223 2.008 . S
Co1224 N1225 1.995 . S
Co1224 N1230 2.008 . S
Co1224 N1235 1.995 . S
Co1224 N1240 2.282 . S
Co1224 N1246 2.282 . S
N1225 Co1224 1.995 . S
N1225 C1226 1.376 . S
N1225 C1229 1.383 . S
C1226 N1225 1.376 . S
C1226 C1227 1.446 . S
C1226 C1256 1.391 . S
C1227 C1226 1.446 . S
C1227 C1228 1.339 . S
C1227 H1262 0.949 . S
C1228 C1227 1.339 . S
C1228 C1229 1.439 . S
C1228 H1263 0.950 . S
C1229 N1225 1.383 . S
C1229 C1228 1.439 . S
C1229 C1258 1.392 . S
N1230 Co1224 2.008 . S
N1230 C1231 1.376 . S
N1230 C1234 1.374 . S
C1231 N1230 1.376 . S
C1231 C1232 1.443 . S
C1231 C1258 1.389 . S
C1232 C1231 1.443 . S
C1232 C1233 1.340 . S
C1232 H1264 0.951 . S
C1233 C1232 1.340 . S
C1233 C1234 1.439 . S
C1233 H1265 0.950 . S
C1234 N1230 1.374 . S
C1234 C1233 1.439 . S
C1234 C1259 1.395 . S
N1235 Co1224 1.995 . S
N1235 C1236 1.376 . S
N1235 C1239 1.383 . S
C1236 N1235 1.376 . S
C1236 C1237 1.446 . S
C1236 C1259 1.391 . S
C1237 C1236 1.446 . S
C1237 C1238 1.339 . S
C1237 H1266 0.949 . S
C1238 C1237 1.339 . S
C1238 C1239 1.439 . S
C1238 H1267 0.950 . S
C1239 N1235 1.383 . S
C1239 C1238 1.439 . S
C1239 C1257 1.392 . S
N1240 Co1224 2.282 . S
N1240 C1243 1.332 . S
N1240 C1245 1.332 . S
C1241 C1242 1.386 . S
C1241 C1244 1.388 . S
C1242 C1241 1.386 . S
C1242 C1243 1.382 . S
C1242 H1268 0.950 . S
C1243 N1240 1.332 . S
C1243 C1242 1.382 . S
C1243 H1254 0.952 . S
C1244 C1241 1.388 . S
C1244 C1245 1.382 . S
C1244 H1269 0.950 . S
C1245 N1240 1.332 . S
C1245 C1244 1.382 . S
C1245 H1255 0.948 . S
N1246 Co1224 2.282 . S
N1246 C1250 1.332 . S
N1246 C1251 1.332 . S
C1247 C1248 1.388 . S
C1247 C1251 1.382 . S
C1247 H1270 0.950 . S
C1248 C1247 1.388 . S
C1248 C1249 1.386 . S
C1249 C1248 1.386 . S
C1249 C1250 1.382 . S
C1249 H1271 0.950 1_556 S
C1250 N1246 1.332 . S
C1250 C1249 1.382 . S
C1250 H1252 0.952 . S
C1251 N1246 1.332 . S
C1251 C1247 1.382 . S
C1251 H1253 0.948 . S
H1252 C1250 0.952 . S
H1253 C1251 0.948 . S
H1254 C1243 0.952 . S
H1255 C1245 0.948 . S
C1256 C1222 1.395 . S
C1256 C1226 1.391 . S
C1257 C1219 1.389 . S
C1257 C1239 1.392 . S
C1258 C1229 1.392 . S
C1258 C1231 1.389 . S
C1259 C1234 1.395 . S
C1259 C1236 1.391 . S
H1260 C1220 0.951 . S
H1261 C1221 0.950 . S
H1262 C1227 0.949 . S
H1263 C1228 0.950 . S
H1264 C1232 0.951 . S
H1265 C1233 0.950 . S
H1266 C1237 0.949 . S
H1267 C1238 0.950 . S
H1268 C1242 0.950 . S
H1269 C1244 0.950 . S
H1270 C1247 0.950 . S
H1271 C1249 0.950 1_554 S
C1272 C1273 1.443 . S
C1272 N1276 1.376 . S
C1272 C1310 1.389 . S
C1273 C1272 1.443 . S
C1273 C1274 1.340 . S
C1273 H1313 0.951 . S
C1274 C1273 1.340 . S
C1274 C1275 1.439 . S
C1274 H1314 0.950 . S
C1275 C1274 1.439 . S
C1275 N1276 1.374 . S
C1275 C1309 1.395 . S
N1276 C1272 1.376 . S
N1276 C1275 1.374 . S
N1276 Co1277 2.008 . S
Co1277 N1276 2.008 . S
Co1277 N1278 1.995 . S
Co1277 N1283 2.008 . S
Co1277 N1288 1.995 . S
Co1277 N1293 2.282 . S
Co1277 N1299 2.282 . S
N1278 Co1277 1.995 . S
N1278 C1279 1.376 . S
N1278 C1282 1.383 . S
C1279 N1278 1.376 . S
C1279 C1280 1.446 . S
C1279 C1309 1.391 . S
C1280 C1279 1.446 . S
C1280 C1281 1.339 . S
C1280 H1315 0.949 . S
C1281 C1280 1.339 . S
C1281 C1282 1.439 . S
C1281 H1316 0.950 . S
C1282 N1278 1.383 . S
C1282 C1281 1.439 . S
C1282 C1311 1.392 . S
N1283 Co1277 2.008 . S
N1283 C1284 1.376 . S
N1283 C1287 1.374 . S
C1284 N1283 1.376 . S
C1284 C1285 1.443 . S
C1284 C1311 1.389 . S
C1285 C1284 1.443 . S
C1285 C1286 1.340 . S
C1285 H1317 0.951 . S
C1286 C1285 1.340 . S
C1286 C1287 1.439 . S
C1286 H1318 0.950 . S
C1287 N1283 1.374 . S
C1287 C1286 1.439 . S
C1287 C1312 1.395 . S
N1288 Co1277 1.995 . S
N1288 C1289 1.376 . S
N1288 C1292 1.383 . S
C1289 N1288 1.376 . S
C1289 C1290 1.446 . S
C1289 C1312 1.391 . S
C1290 C1289 1.446 . S
C1290 C1291 1.339 . S
C1290 H1319 0.949 . S
C1291 C1290 1.339 . S
C1291 C1292 1.439 . S
C1291 H1320 0.950 . S
C1292 N1288 1.383 . S
C1292 C1291 1.439 . S
C1292 C1310 1.392 . S
N1293 Co1277 2.282 . S
N1293 C1296 1.332 . S
N1293 C1298 1.332 . S
C1294 C1295 1.386 . S
C1294 C1297 1.388 . S
C1295 C1294 1.386 . S
C1295 C1296 1.382 . S
C1295 H1321 0.950 . S
C1296 N1293 1.332 . S
C1296 C1295 1.382 . S
C1296 H1307 0.952 . S
C1297 C1294 1.388 . S
C1297 C1298 1.382 . S
C1297 H1322 0.950 . S
C1298 N1293 1.332 . S
C1298 C1297 1.382 . S
C1298 H1308 0.948 . S
N1299 Co1277 2.282 . S
N1299 C1303 1.332 . S
N1299 C1304 1.332 . S
C1300 C1301 1.388 . S
C1300 C1304 1.382 . S
C1300 H1323 0.950 . S
C1301 C1300 1.388 . S
C1301 C1302 1.386 . S
C1302 C1301 1.386 . S
C1302 C1303 1.382 . S
C1302 H1324 0.950 . S
C1303 N1299 1.332 . S
C1303 C1302 1.382 . S
C1303 H1305 0.952 . S
C1304 N1299 1.332 . S
C1304 C1300 1.382 . S
C1304 H1306 0.948 . S
H1305 C1303 0.952 . S
H1306 C1304 0.948 . S
H1307 C1296 0.952 . S
H1308 C1298 0.948 . S
C1309 C1275 1.395 . S
C1309 C1279 1.391 . S
C1310 C1272 1.389 . S
C1310 C1292 1.392 . S
C1311 C1282 1.392 . S
C1311 C1284 1.389 . S
C1312 C1287 1.395 . S
C1312 C1289 1.391 . S
H1313 C1273 0.951 . S
H1314 C1274 0.950 . S
H1315 C1280 0.949 . S
H1316 C1281 0.950 . S
H1317 C1285 0.951 . S
H1318 C1286 0.950 . S
H1319 C1290 0.949 . S
H1320 C1291 0.950 . S
H1321 C1295 0.950 . S
H1322 C1297 0.950 . S
H1323 C1300 0.950 . S
H1324 C1302 0.950 . S
C1325 C1326 1.443 . S
C1325 N1329 1.376 . S
C1325 C1363 1.389 . S
C1326 C1325 1.443 . S
C1326 C1327 1.340 . S
C1326 H1366 0.951 . S
C1327 C1326 1.340 . S
C1327 C1328 1.439 . S
C1327 H1367 0.950 . S
C1328 C1327 1.439 . S
C1328 N1329 1.374 . S
C1328 C1362 1.395 . S
N1329 C1325 1.376 . S
N1329 C1328 1.374 . S
N1329 Co1330 2.008 . S
Co1330 N1329 2.008 . S
Co1330 N1331 1.995 . S
Co1330 N1336 2.008 . S
Co1330 N1341 1.995 . S
Co1330 N1346 2.282 . S
Co1330 N1352 2.282 . S
N1331 Co1330 1.995 . S
N1331 C1332 1.376 . S
N1331 C1335 1.383 . S
C1332 N1331 1.376 . S
C1332 C1333 1.446 . S
C1332 C1362 1.391 . S
C1333 C1332 1.446 . S
C1333 C1334 1.339 . S
C1333 H1368 0.949 . S
C1334 C1333 1.339 . S
C1334 C1335 1.439 . S
C1334 H1369 0.950 . S
C1335 N1331 1.383 . S
C1335 C1334 1.439 . S
C1335 C1364 1.392 . S
N1336 Co1330 2.008 . S
N1336 C1337 1.376 . S
N1336 C1340 1.374 . S
C1337 N1336 1.376 . S
C1337 C1338 1.443 . S
C1337 C1364 1.389 . S
C1338 C1337 1.443 . S
C1338 C1339 1.340 . S
C1338 H1370 0.951 . S
C1339 C1338 1.340 . S
C1339 C1340 1.439 . S
C1339 H1371 0.950 . S
C1340 N1336 1.374 . S
C1340 C1339 1.439 . S
C1340 C1365 1.395 . S
N1341 Co1330 1.995 . S
N1341 C1342 1.376 . S
N1341 C1345 1.383 . S
C1342 N1341 1.376 . S
C1342 C1343 1.446 . S
C1342 C1365 1.391 . S
C1343 C1342 1.446 . S
C1343 C1344 1.339 . S
C1343 H1372 0.949 . S
C1344 C1343 1.339 . S
C1344 C1345 1.439 . S
C1344 H1373 0.950 . S
C1345 N1341 1.383 . S
C1345 C1344 1.439 . S
C1345 C1363 1.392 . S
N1346 Co1330 2.282 . S
N1346 C1349 1.332 . S
N1346 C1351 1.332 . S
C1347 C1348 1.386 . S
C1347 C1350 1.388 . S
C1348 C1347 1.386 . S
C1348 C1349 1.382 . S
C1348 H1374 0.950 . S
C1349 N1346 1.332 . S
C1349 C1348 1.382 . S
C1349 H1360 0.952 . S
C1350 C1347 1.388 . S
C1350 C1351 1.382 . S
C1350 H1375 0.950 . S
C1351 N1346 1.332 . S
C1351 C1350 1.382 . S
C1351 H1361 0.948 . S
N1352 Co1330 2.282 . S
N1352 C1356 1.332 . S
N1352 C1357 1.332 . S
C1353 C1354 1.388 . S
C1353 C1357 1.382 . S
C1353 H1376 0.950 . S
C1354 C1353 1.388 . S
C1354 C1355 1.386 . S
C1355 C1354 1.386 . S
C1355 C1356 1.382 . S
C1355 H1377 0.950 . S
C1356 N1352 1.332 . S
C1356 C1355 1.382 . S
C1356 H1358 0.952 . S
C1357 N1352 1.332 . S
C1357 C1353 1.382 . S
C1357 H1359 0.948 . S
H1358 C1356 0.952 . S
H1359 C1357 0.948 . S
H1360 C1349 0.952 . S
H1361 C1351 0.948 . S
C1362 C1328 1.395 . S
C1362 C1332 1.391 . S
C1363 C1325 1.389 . S
C1363 C1345 1.392 . S
C1364 C1335 1.392 . S
C1364 C1337 1.389 . S
C1365 C1340 1.395 . S
C1365 C1342 1.391 . S
H1366 C1326 0.951 . S
H1367 C1327 0.950 . S
H1368 C1333 0.949 . S
H1369 C1334 0.950 . S
H1370 C1338 0.951 . S
H1371 C1339 0.950 . S
H1372 C1343 0.949 . S
H1373 C1344 0.950 . S
H1374 C1348 0.950 . S
H1375 C1350 0.950 . S
H1376 C1353 0.950 . S
H1377 C1355 0.950 . S
C1378 C1379 1.443 . S
C1378 N1382 1.376 . S
C1378 C1416 1.389 . S
C1379 C1378 1.443 . S
C1379 C1380 1.340 . S
C1379 H1419 0.951 . S
C1380 C1379 1.340 . S
C1380 C1381 1.439 . S
C1380 H1420 0.950 . S
C1381 C1380 1.439 . S
C1381 N1382 1.374 . S
C1381 C1415 1.395 . S
N1382 C1378 1.376 . S
N1382 C1381 1.374 . S
N1382 Co1383 2.008 . S
Co1383 N1382 2.008 . S
Co1383 N1384 1.995 . S
Co1383 N1389 2.008 . S
Co1383 N1394 1.995 . S
Co1383 N1399 2.282 . S
Co1383 N1405 2.282 . S
N1384 Co1383 1.995 . S
N1384 C1385 1.376 . S
N1384 C1388 1.383 . S
C1385 N1384 1.376 . S
C1385 C1386 1.446 . S
C1385 C1415 1.391 . S
C1386 C1385 1.446 . S
C1386 C1387 1.339 . S
C1386 H1421 0.949 . S
C1387 C1386 1.339 . S
C1387 C1388 1.439 . S
C1387 H1422 0.950 . S
C1388 N1384 1.383 . S
C1388 C1387 1.439 . S
C1388 C1417 1.392 . S
N1389 Co1383 2.008 . S
N1389 C1390 1.376 . S
N1389 C1393 1.374 . S
C1390 N1389 1.376 . S
C1390 C1391 1.443 . S
C1390 C1417 1.389 . S
C1391 C1390 1.443 . S
C1391 C1392 1.340 . S
C1391 H1423 0.951 . S
C1392 C1391 1.340 . S
C1392 C1393 1.439 . S
C1392 H1424 0.950 . S
C1393 N1389 1.374 . S
C1393 C1392 1.439 . S
C1393 C1418 1.395 . S
N1394 Co1383 1.995 . S
N1394 C1395 1.376 . S
N1394 C1398 1.383 . S
C1395 N1394 1.376 . S
C1395 C1396 1.446 . S
C1395 C1418 1.391 . S
C1396 C1395 1.446 . S
C1396 C1397 1.339 . S
C1396 H1425 0.949 . S
C1397 C1396 1.339 . S
C1397 C1398 1.439 . S
C1397 H1426 0.950 . S
C1398 N1394 1.383 . S
C1398 C1397 1.439 . S
C1398 C1416 1.392 . S
N1399 Co1383 2.282 . S
N1399 C1402 1.332 . S
N1399 C1404 1.332 . S
C1400 C1401 1.386 . S
C1400 C1403 1.388 . S
C1401 C1400 1.386 . S
C1401 C1402 1.382 . S
C1401 H1427 0.950 . S
C1402 N1399 1.332 . S
C1402 C1401 1.382 . S
C1402 H1413 0.952 . S
C1403 C1400 1.388 . S
C1403 C1404 1.382 . S
C1403 H1428 0.950 . S
C1404 N1399 1.332 . S
C1404 C1403 1.382 . S
C1404 H1414 0.948 . S
N1405 Co1383 2.282 . S
N1405 C1409 1.332 . S
N1405 C1410 1.332 . S
C1406 C1407 1.388 . S
C1406 C1410 1.382 . S
C1406 H1429 0.950 . S
C1407 C1406 1.388 . S
C1407 C1408 1.386 . S
C1408 C1407 1.386 . S
C1408 C1409 1.382 . S
C1408 H1430 0.950 . S
C1409 N1405 1.332 . S
C1409 C1408 1.382 . S
C1409 H1411 0.952 . S
C1410 N1405 1.332 . S
C1410 C1406 1.382 . S
C1410 H1412 0.948 . S
H1411 C1409 0.952 . S
H1412 C1410 0.948 . S
H1413 C1402 0.952 . S
H1414 C1404 0.948 . S
C1415 C1381 1.395 . S
C1415 C1385 1.391 . S
C1416 C1378 1.389 . S
C1416 C1398 1.392 . S
C1417 C1388 1.392 . S
C1417 C1390 1.389 . S
C1418 C1393 1.395 . S
C1418 C1395 1.391 . S
H1419 C1379 0.951 . S
H1420 C1380 0.950 . S
H1421 C1386 0.949 . S
H1422 C1387 0.950 . S
H1423 C1391 0.951 . S
H1424 C1392 0.950 . S
H1425 C1396 0.949 . S
H1426 C1397 0.950 . S
H1427 C1401 0.950 . S
H1428 C1403 0.950 . S
H1429 C1406 0.950 . S
H1430 C1408 0.950 . S
C1431 C1432 1.443 . S
C1431 N1435 1.376 . S
C1431 C1469 1.389 . S
C1432 C1431 1.443 . S
C1432 C1433 1.340 . S
C1432 H1472 0.951 . S
C1433 C1432 1.340 . S
C1433 C1434 1.439 . S
C1433 H1473 0.950 . S
C1434 C1433 1.439 . S
C1434 N1435 1.374 . S
C1434 C1468 1.395 . S
N1435 C1431 1.376 . S
N1435 C1434 1.374 . S
N1435 Co1436 2.008 1_655 S
Co1436 N1435 2.008 1_455 S
Co1436 N1437 1.995 . S
Co1436 N1442 2.008 . S
Co1436 N1447 1.995 . S
Co1436 N1452 2.282 1_455 S
Co1436 N1458 2.282 . S
N1437 Co1436 1.995 . S
N1437 C1438 1.376 . S
N1437 C1441 1.383 . S
C1438 N1437 1.376 . S
C1438 C1439 1.446 . S
C1438 C1468 1.391 1_455 S
C1439 C1438 1.446 . S
C1439 C1440 1.339 . S
C1439 H1474 0.949 . S
C1440 C1439 1.339 . S
C1440 C1441 1.439 . S
C1440 H1475 0.950 . S
C1441 N1437 1.383 . S
C1441 C1440 1.439 . S
C1441 C1470 1.392 . S
N1442 Co1436 2.008 . S
N1442 C1443 1.376 . S
N1442 C1446 1.374 . S
C1443 N1442 1.376 . S
C1443 C1444 1.443 . S
C1443 C1470 1.389 . S
C1444 C1443 1.443 . S
C1444 C1445 1.340 . S
C1444 H1476 0.951 . S
C1445 C1444 1.340 . S
C1445 C1446 1.439 . S
C1445 H1477 0.950 . S
C1446 N1442 1.374 . S
C1446 C1445 1.439 . S
C1446 C1471 1.395 . S
N1447 Co1436 1.995 . S
N1447 C1448 1.376 . S
N1447 C1451 1.383 1_455 S
C1448 N1447 1.376 . S
C1448 C1449 1.446 . S
C1448 C1471 1.391 . S
C1449 C1448 1.446 . S
C1449 C1450 1.339 1_455 S
C1449 H1478 0.949 . S
C1450 C1449 1.339 1_655 S
C1450 C1451 1.439 . S
C1450 H1479 0.950 . S
C1451 N1447 1.383 1_655 S
C1451 C1450 1.439 . S
C1451 C1469 1.392 . S
N1452 Co1436 2.282 1_655 S
N1452 C1455 1.332 . S
N1452 C1457 1.332 . S
C1453 C1454 1.386 . S
C1453 C1456 1.388 . S
C1454 C1453 1.386 . S
C1454 C1455 1.382 . S
C1454 H1480 0.950 . S
C1455 N1452 1.332 . S
C1455 C1454 1.382 . S
C1455 H1466 0.952 . S
C1456 C1453 1.388 . S
C1456 C1457 1.382 . S
C1456 H1481 0.950 . S
C1457 N1452 1.332 . S
C1457 C1456 1.382 . S
C1457 H1467 0.948 . S
N1458 Co1436 2.282 . S
N1458 C1462 1.332 . S
N1458 C1463 1.332 . S
C1459 C1460 1.388 . S
C1459 C1463 1.382 . S
C1459 H1482 0.950 . S
C1460 C1459 1.388 . S
C1460 C1461 1.386 . S
C1461 C1460 1.386 . S
C1461 C1462 1.382 . S
C1461 H1483 0.950 . S
C1462 N1458 1.332 . S
C1462 C1461 1.382 . S
C1462 H1464 0.952 . S
C1463 N1458 1.332 . S
C1463 C1459 1.382 . S
C1463 H1465 0.948 . S
H1464 C1462 0.952 . S
H1465 C1463 0.948 . S
H1466 C1455 0.952 . S
H1467 C1457 0.948 . S
C1468 C1434 1.395 . S
C1468 C1438 1.391 1_655 S
C1469 C1431 1.389 . S
C1469 C1451 1.392 . S
C1470 C1441 1.392 . S
C1470 C1443 1.389 . S
C1471 C1446 1.395 . S
C1471 C1448 1.391 . S
H1472 C1432 0.951 . S
H1473 C1433 0.950 . S
H1474 C1439 0.949 . S
H1475 C1440 0.950 . S
H1476 C1444 0.951 . S
H1477 C1445 0.950 . S
H1478 C1449 0.949 . S
H1479 C1450 0.950 . S
H1480 C1454 0.950 . S
H1481 C1456 0.950 . S
H1482 C1459 0.950 . S
H1483 C1461 0.950 . S
C1484 C1485 1.443 . S
C1484 N1488 1.376 . S
C1484 C1522 1.389 . S
C1485 C1484 1.443 . S
C1485 C1486 1.340 . S
C1485 H1525 0.951 . S
C1486 C1485 1.340 . S
C1486 C1487 1.439 . S
C1486 H1526 0.950 . S
C1487 C1486 1.439 . S
C1487 N1488 1.374 . S
C1487 C1521 1.395 . S
N1488 C1484 1.376 . S
N1488 C1487 1.374 . S
N1488 Co1489 2.008 . S
Co1489 N1488 2.008 . S
Co1489 N1490 1.995 . S
Co1489 N1495 2.008 . S
Co1489 N1500 1.995 . S
Co1489 N1505 2.282 . S
Co1489 N1511 2.282 . S
N1490 Co1489 1.995 . S
N1490 C1491 1.376 . S
N1490 C1494 1.383 . S
C1491 N1490 1.376 . S
C1491 C1492 1.446 . S
C1491 C1521 1.391 . S
C1492 C1491 1.446 . S
C1492 C1493 1.339 . S
C1492 H1527 0.949 . S
C1493 C1492 1.339 . S
C1493 C1494 1.439 . S
C1493 H1528 0.950 . S
C1494 N1490 1.383 . S
C1494 C1493 1.439 . S
C1494 C1523 1.392 . S
N1495 Co1489 2.008 . S
N1495 C1496 1.376 . S
N1495 C1499 1.374 . S
C1496 N1495 1.376 . S
C1496 C1497 1.443 . S
C1496 C1523 1.389 . S
C1497 C1496 1.443 . S
C1497 C1498 1.340 . S
C1497 H1529 0.951 . S
C1498 C1497 1.340 . S
C1498 C1499 1.439 . S
C1498 H1530 0.950 . S
C1499 N1495 1.374 . S
C1499 C1498 1.439 . S
C1499 C1524 1.395 . S
N1500 Co1489 1.995 . S
N1500 C1501 1.376 . S
N1500 C1504 1.383 . S
C1501 N1500 1.376 . S
C1501 C1502 1.446 . S
C1501 C1524 1.391 . S
C1502 C1501 1.446 . S
C1502 C1503 1.339 . S
C1502 H1531 0.949 . S
C1503 C1502 1.339 . S
C1503 C1504 1.439 . S
C1503 H1532 0.950 . S
C1504 N1500 1.383 . S
C1504 C1503 1.439 . S
C1504 C1522 1.392 . S
N1505 Co1489 2.282 . S
N1505 C1508 1.332 . S
N1505 C1510 1.332 . S
C1506 C1507 1.386 . S
C1506 C1509 1.388 . S
C1507 C1506 1.386 . S
C1507 C1508 1.382 . S
C1507 H1533 0.950 . S
C1508 N1505 1.332 . S
C1508 C1507 1.382 . S
C1508 H1519 0.952 . S
C1509 C1506 1.388 . S
C1509 C1510 1.382 . S
C1509 H1534 0.950 . S
C1510 N1505 1.332 . S
C1510 C1509 1.382 . S
C1510 H1520 0.948 . S
N1511 Co1489 2.282 . S
N1511 C1515 1.332 . S
N1511 C1516 1.332 . S
C1512 C1513 1.388 . S
C1512 C1516 1.382 . S
C1512 H1535 0.950 . S
C1513 C1512 1.388 . S
C1513 C1514 1.386 . S
C1514 C1513 1.386 . S
C1514 C1515 1.382 . S
C1514 H1536 0.950 . S
C1515 N1511 1.332 . S
C1515 C1514 1.382 . S
C1515 H1517 0.952 . S
C1516 N1511 1.332 . S
C1516 C1512 1.382 . S
C1516 H1518 0.948 . S
H1517 C1515 0.952 . S
H1518 C1516 0.948 . S
H1519 C1508 0.952 . S
H1520 C1510 0.948 . S
C1521 C1487 1.395 . S
C1521 C1491 1.391 . S
C1522 C1484 1.389 . S
C1522 C1504 1.392 . S
C1523 C1494 1.392 . S
C1523 C1496 1.389 . S
C1524 C1499 1.395 . S
C1524 C1501 1.391 . S
H1525 C1485 0.951 . S
H1526 C1486 0.950 . S
H1527 C1492 0.949 . S
H1528 C1493 0.950 . S
H1529 C1497 0.951 . S
H1530 C1498 0.950 . S
H1531 C1502 0.949 . S
H1532 C1503 0.950 . S
H1533 C1507 0.950 . S
H1534 C1509 0.950 . S
H1535 C1512 0.950 . S
H1536 C1514 0.950 . S
C1537 C1538 1.443 . S
C1537 N1541 1.376 . S
C1537 C1575 1.389 . S
C1538 C1537 1.443 . S
C1538 C1539 1.340 . S
C1538 H1578 0.951 . S
C1539 C1538 1.340 . S
C1539 C1540 1.439 . S
C1539 H1579 0.950 . S
C1540 C1539 1.439 . S
C1540 N1541 1.374 . S
C1540 C1574 1.395 . S
N1541 C1537 1.376 . S
N1541 C1540 1.374 . S
N1541 Co1542 2.008 1_655 S
Co1542 N1541 2.008 1_455 S
Co1542 N1543 1.995 . S
Co1542 N1548 2.008 . S
Co1542 N1553 1.995 . S
Co1542 N1558 2.282 1_455 S
Co1542 N1564 2.282 . S
N1543 Co1542 1.995 . S
N1543 C1544 1.376 . S
N1543 C1547 1.383 . S
C1544 N1543 1.376 . S
C1544 C1545 1.446 . S
C1544 C1574 1.391 1_455 S
C1545 C1544 1.446 . S
C1545 C1546 1.339 . S
C1545 H1580 0.949 . S
C1546 C1545 1.339 . S
C1546 C1547 1.439 . S
C1546 H1581 0.950 . S
C1547 N1543 1.383 . S
C1547 C1546 1.439 . S
C1547 C1576 1.392 . S
N1548 Co1542 2.008 . S
N1548 C1549 1.376 . S
N1548 C1552 1.374 . S
C1549 N1548 1.376 . S
C1549 C1550 1.443 . S
C1549 C1576 1.389 . S
C1550 C1549 1.443 . S
C1550 C1551 1.340 . S
C1550 H1582 0.951 . S
C1551 C1550 1.340 . S
C1551 C1552 1.439 . S
C1551 H1583 0.950 . S
C1552 N1548 1.374 . S
C1552 C1551 1.439 . S
C1552 C1577 1.395 . S
N1553 Co1542 1.995 . S
N1553 C1554 1.376 . S
N1553 C1557 1.383 1_455 S
C1554 N1553 1.376 . S
C1554 C1555 1.446 . S
C1554 C1577 1.391 . S
C1555 C1554 1.446 . S
C1555 C1556 1.339 1_455 S
C1555 H1584 0.949 . S
C1556 C1555 1.339 1_655 S
C1556 C1557 1.439 . S
C1556 H1585 0.950 . S
C1557 N1553 1.383 1_655 S
C1557 C1556 1.439 . S
C1557 C1575 1.392 . S
N1558 Co1542 2.282 1_655 S
N1558 C1561 1.332 . S
N1558 C1563 1.332 . S
C1559 C1560 1.386 . S
C1559 C1562 1.388 . S
C1560 C1559 1.386 . S
C1560 C1561 1.382 . S
C1560 H1586 0.950 . S
C1561 N1558 1.332 . S
C1561 C1560 1.382 . S
C1561 H1572 0.952 . S
C1562 C1559 1.388 . S
C1562 C1563 1.382 . S
C1562 H1587 0.950 . S
C1563 N1558 1.332 . S
C1563 C1562 1.382 . S
C1563 H1573 0.948 . S
N1564 Co1542 2.282 . S
N1564 C1568 1.332 . S
N1564 C1569 1.332 . S
C1565 C1566 1.388 . S
C1565 C1569 1.382 . S
C1565 H1588 0.950 . S
C1566 C1565 1.388 . S
C1566 C1567 1.386 . S
C1567 C1566 1.386 . S
C1567 C1568 1.382 . S
C1567 H1589 0.950 . S
C1568 N1564 1.332 . S
C1568 C1567 1.382 . S
C1568 H1570 0.952 . S
C1569 N1564 1.332 . S
C1569 C1565 1.382 . S
C1569 H1571 0.948 . S
H1570 C1568 0.952 . S
H1571 C1569 0.948 . S
H1572 C1561 0.952 . S
H1573 C1563 0.948 . S
C1574 C1540 1.395 . S
C1574 C1544 1.391 1_655 S
C1575 C1537 1.389 . S
C1575 C1557 1.392 . S
C1576 C1547 1.392 . S
C1576 C1549 1.389 . S
C1577 C1552 1.395 . S
C1577 C1554 1.391 . S
H1578 C1538 0.951 . S
H1579 C1539 0.950 . S
H1580 C1545 0.949 . S
H1581 C1546 0.950 . S
H1582 C1550 0.951 . S
H1583 C1551 0.950 . S
H1584 C1555 0.949 . S
H1585 C1556 0.950 . S
H1586 C1560 0.950 . S
H1587 C1562 0.950 . S
H1588 C1565 0.950 . S
H1589 C1567 0.950 . S
C1590 C1591 1.443 . S
C1590 N1594 1.376 . S
C1590 C1628 1.389 . S
C1591 C1590 1.443 . S
C1591 C1592 1.340 . S
C1591 H1631 0.951 . S
C1592 C1591 1.340 . S
C1592 C1593 1.439 . S
C1592 H1632 0.950 . S
C1593 C1592 1.439 . S
C1593 N1594 1.374 . S
C1593 C1627 1.395 . S
N1594 C1590 1.376 . S
N1594 C1593 1.374 . S
N1594 Co1595 2.008 . S
Co1595 N1594 2.008 . S
Co1595 N1596 1.995 . S
Co1595 N1601 2.008 . S
Co1595 N1606 1.995 . S
Co1595 N1611 2.282 . S
Co1595 N1617 2.282 . S
N1596 Co1595 1.995 . S
N1596 C1597 1.376 . S
N1596 C1600 1.383 . S
C1597 N1596 1.376 . S
C1597 C1598 1.446 . S
C1597 C1627 1.391 . S
C1598 C1597 1.446 . S
C1598 C1599 1.339 . S
C1598 H1633 0.949 . S
C1599 C1598 1.339 . S
C1599 C1600 1.439 . S
C1599 H1634 0.950 . S
C1600 N1596 1.383 . S
C1600 C1599 1.439 . S
C1600 C1629 1.392 . S
N1601 Co1595 2.008 . S
N1601 C1602 1.376 . S
N1601 C1605 1.374 . S
C1602 N1601 1.376 . S
C1602 C1603 1.443 . S
C1602 C1629 1.389 . S
C1603 C1602 1.443 . S
C1603 C1604 1.340 . S
C1603 H1635 0.951 . S
C1604 C1603 1.340 . S
C1604 C1605 1.439 . S
C1604 H1636 0.950 . S
C1605 N1601 1.374 . S
C1605 C1604 1.439 . S
C1605 C1630 1.395 . S
N1606 Co1595 1.995 . S
N1606 C1607 1.376 . S
N1606 C1610 1.383 . S
C1607 N1606 1.376 . S
C1607 C1608 1.446 . S
C1607 C1630 1.391 . S
C1608 C1607 1.446 . S
C1608 C1609 1.339 . S
C1608 H1637 0.949 . S
C1609 C1608 1.339 . S
C1609 C1610 1.439 . S
C1609 H1638 0.950 . S
C1610 N1606 1.383 . S
C1610 C1609 1.439 . S
C1610 C1628 1.392 . S
N1611 Co1595 2.282 . S
N1611 C1614 1.332 . S
N1611 C1616 1.332 . S
C1612 C1613 1.386 . S
C1612 C1615 1.388 . S
C1613 C1612 1.386 . S
C1613 C1614 1.382 . S
C1613 H1639 0.950 . S
C1614 N1611 1.332 . S
C1614 C1613 1.382 . S
C1614 H1625 0.952 . S
C1615 C1612 1.388 . S
C1615 C1616 1.382 . S
C1615 H1640 0.950 . S
C1616 N1611 1.332 . S
C1616 C1615 1.382 . S
C1616 H1626 0.948 . S
N1617 Co1595 2.282 . S
N1617 C1621 1.332 . S
N1617 C1622 1.332 . S
C1618 C1619 1.388 . S
C1618 C1622 1.382 . S
C1618 H1641 0.950 . S
C1619 C1618 1.388 . S
C1619 C1620 1.386 . S
C1620 C1619 1.386 . S
C1620 C1621 1.382 . S
C1620 H1642 0.950 . S
C1621 N1617 1.332 . S
C1621 C1620 1.382 . S
C1621 H1623 0.952 . S
C1622 N1617 1.332 . S
C1622 C1618 1.382 . S
C1622 H1624 0.948 . S
H1623 C1621 0.952 . S
H1624 C1622 0.948 . S
H1625 C1614 0.952 . S
H1626 C1616 0.948 . S
C1627 C1593 1.395 . S
C1627 C1597 1.391 . S
C1628 C1590 1.389 . S
C1628 C1610 1.392 . S
C1629 C1600 1.392 . S
C1629 C1602 1.389 . S
C1630 C1605 1.395 . S
C1630 C1607 1.391 . S
H1631 C1591 0.951 . S
H1632 C1592 0.950 . S
H1633 C1598 0.949 . S
H1634 C1599 0.950 . S
H1635 C1603 0.951 . S
H1636 C1604 0.950 . S
H1637 C1608 0.949 . S
H1638 C1609 0.950 . S
H1639 C1613 0.950 . S
H1640 C1615 0.950 . S
H1641 C1618 0.950 . S
H1642 C1620 0.950 . S
C1643 C1644 1.443 . S
C1643 N1647 1.376 . S
C1643 C1681 1.389 . S
C1644 C1643 1.443 . S
C1644 C1645 1.340 . S
C1644 H1684 0.951 . S
C1645 C1644 1.340 . S
C1645 C1646 1.439 . S
C1645 H1685 0.950 . S
C1646 C1645 1.439 . S
C1646 N1647 1.374 . S
C1646 C1680 1.395 . S
N1647 C1643 1.376 . S
N1647 C1646 1.374 . S
N1647 Co1648 2.008 . S
Co1648 N1647 2.008 . S
Co1648 N1649 1.995 . S
Co1648 N1654 2.008 . S
Co1648 N1659 1.995 . S
Co1648 N1664 2.282 . S
Co1648 N1670 2.282 . S
N1649 Co1648 1.995 . S
N1649 C1650 1.376 . S
N1649 C1653 1.383 . S
C1650 N1649 1.376 . S
C1650 C1651 1.446 . S
C1650 C1680 1.391 . S
C1651 C1650 1.446 . S
C1651 C1652 1.339 . S
C1651 H1686 0.949 . S
C1652 C1651 1.339 . S
C1652 C1653 1.439 . S
C1652 H1687 0.950 . S
C1653 N1649 1.383 . S
C1653 C1652 1.439 . S
C1653 C1682 1.392 . S
N1654 Co1648 2.008 . S
N1654 C1655 1.376 . S
N1654 C1658 1.374 . S
C1655 N1654 1.376 . S
C1655 C1656 1.443 . S
C1655 C1682 1.389 . S
C1656 C1655 1.443 . S
C1656 C1657 1.340 . S
C1656 H1688 0.951 . S
C1657 C1656 1.340 . S
C1657 C1658 1.439 . S
C1657 H1689 0.950 . S
C1658 N1654 1.374 . S
C1658 C1657 1.439 . S
C1658 C1683 1.395 . S
N1659 Co1648 1.995 . S
N1659 C1660 1.376 . S
N1659 C1663 1.383 . S
C1660 N1659 1.376 . S
C1660 C1661 1.446 . S
C1660 C1683 1.391 . S
C1661 C1660 1.446 . S
C1661 C1662 1.339 . S
C1661 H1690 0.949 . S
C1662 C1661 1.339 . S
C1662 C1663 1.439 . S
C1662 H1691 0.950 . S
C1663 N1659 1.383 . S
C1663 C1662 1.439 . S
C1663 C1681 1.392 . S
N1664 Co1648 2.282 . S
N1664 C1667 1.332 . S
N1664 C1669 1.332 . S
C1665 C1666 1.386 . S
C1665 C1668 1.388 . S
C1666 C1665 1.386 . S
C1666 C1667 1.382 . S
C1666 H1692 0.950 . S
C1667 N1664 1.332 . S
C1667 C1666 1.382 . S
C1667 H1678 0.952 . S
C1668 C1665 1.388 . S
C1668 C1669 1.382 . S
C1668 H1693 0.950 . S
C1669 N1664 1.332 . S
C1669 C1668 1.382 . S
C1669 H1679 0.948 . S
N1670 Co1648 2.282 . S
N1670 C1674 1.332 . S
N1670 C1675 1.332 . S
C1671 C1672 1.388 . S
C1671 C1675 1.382 . S
C1671 H1694 0.950 . S
C1672 C1671 1.388 . S
C1672 C1673 1.386 . S
C1673 C1672 1.386 . S
C1673 C1674 1.382 . S
C1673 H1695 0.950 . S
C1674 N1670 1.332 . S
C1674 C1673 1.382 . S
C1674 H1676 0.952 . S
C1675 N1670 1.332 . S
C1675 C1671 1.382 . S
C1675 H1677 0.948 . S
H1676 C1674 0.952 . S
H1677 C1675 0.948 . S
H1678 C1667 0.952 . S
H1679 C1669 0.948 . S
C1680 C1646 1.395 . S
C1680 C1650 1.391 . S
C1681 C1643 1.389 . S
C1681 C1663 1.392 . S
C1682 C1653 1.392 . S
C1682 C1655 1.389 . S
C1683 C1658 1.395 . S
C1683 C1660 1.391 . S
H1684 C1644 0.951 . S
H1685 C1645 0.950 . S
H1686 C1651 0.949 . S
H1687 C1652 0.950 . S
H1688 C1656 0.951 . S
H1689 C1657 0.950 . S
H1690 C1661 0.949 . S
H1691 C1662 0.950 . S
H1692 C1666 0.950 . S
H1693 C1668 0.950 . S
H1694 C1671 0.950 . S
H1695 C1673 0.950 . S
C1696 C1697 1.443 . S
C1696 N1700 1.376 . S
C1696 C1734 1.389 . S
C1697 C1696 1.443 . S
C1697 C1698 1.340 . S
C1697 H1737 0.951 . S
C1698 C1697 1.340 . S
C1698 C1699 1.439 . S
C1698 H1738 0.950 . S
C1699 C1698 1.439 . S
C1699 N1700 1.374 . S
C1699 C1733 1.395 . S
N1700 C1696 1.376 . S
N1700 C1699 1.374 . S
N1700 Co1701 2.008 . S
Co1701 N1700 2.008 . S
Co1701 N1702 1.995 . S
Co1701 N1707 2.008 . S
Co1701 N1712 1.995 . S
Co1701 N1717 2.282 . S
Co1701 N1723 2.282 . S
N1702 Co1701 1.995 . S
N1702 C1703 1.376 . S
N1702 C1706 1.383 . S
C1703 N1702 1.376 . S
C1703 C1704 1.446 . S
C1703 C1733 1.391 . S
C1704 C1703 1.446 . S
C1704 C1705 1.339 . S
C1704 H1739 0.949 . S
C1705 C1704 1.339 . S
C1705 C1706 1.439 . S
C1705 H1740 0.950 . S
C1706 N1702 1.383 . S
C1706 C1705 1.439 . S
C1706 C1735 1.392 . S
N1707 Co1701 2.008 . S
N1707 C1708 1.376 . S
N1707 C1711 1.374 . S
C1708 N1707 1.376 . S
C1708 C1709 1.443 . S
C1708 C1735 1.389 . S
C1709 C1708 1.443 . S
C1709 C1710 1.340 . S
C1709 H1741 0.951 . S
C1710 C1709 1.340 . S
C1710 C1711 1.439 . S
C1710 H1742 0.950 . S
C1711 N1707 1.374 . S
C1711 C1710 1.439 . S
C1711 C1736 1.395 . S
N1712 Co1701 1.995 . S
N1712 C1713 1.376 . S
N1712 C1716 1.383 . S
C1713 N1712 1.376 . S
C1713 C1714 1.446 . S
C1713 C1736 1.391 . S
C1714 C1713 1.446 . S
C1714 C1715 1.339 . S
C1714 H1743 0.949 . S
C1715 C1714 1.339 . S
C1715 C1716 1.439 . S
C1715 H1744 0.950 . S
C1716 N1712 1.383 . S
C1716 C1715 1.439 . S
C1716 C1734 1.392 . S
N1717 Co1701 2.282 . S
N1717 C1720 1.332 . S
N1717 C1722 1.332 . S
C1718 C1719 1.386 . S
C1718 C1721 1.388 . S
C1719 C1718 1.386 . S
C1719 C1720 1.382 . S
C1719 H1745 0.950 . S
C1720 N1717 1.332 . S
C1720 C1719 1.382 . S
C1720 H1731 0.952 . S
C1721 C1718 1.388 . S
C1721 C1722 1.382 . S
C1721 H1746 0.950 . S
C1722 N1717 1.332 . S
C1722 C1721 1.382 . S
C1722 H1732 0.948 . S
N1723 Co1701 2.282 . S
N1723 C1727 1.332 . S
N1723 C1728 1.332 . S
C1724 C1725 1.388 . S
C1724 C1728 1.382 . S
C1724 H1747 0.950 . S
C1725 C1724 1.388 . S
C1725 C1726 1.386 . S
C1726 C1725 1.386 . S
C1726 C1727 1.382 . S
C1726 H1748 0.950 . S
C1727 N1723 1.332 . S
C1727 C1726 1.382 . S
C1727 H1729 0.952 . S
C1728 N1723 1.332 . S
C1728 C1724 1.382 . S
C1728 H1730 0.948 . S
H1729 C1727 0.952 . S
H1730 C1728 0.948 . S
H1731 C1720 0.952 . S
H1732 C1722 0.948 . S
C1733 C1699 1.395 . S
C1733 C1703 1.391 . S
C1734 C1696 1.389 . S
C1734 C1716 1.392 . S
C1735 C1706 1.392 . S
C1735 C1708 1.389 . S
C1736 C1711 1.395 . S
C1736 C1713 1.391 . S
H1737 C1697 0.951 . S
H1738 C1698 0.950 . S
H1739 C1704 0.949 . S
H1740 C1705 0.950 . S
H1741 C1709 0.951 . S
H1742 C1710 0.950 . S
H1743 C1714 0.949 . S
H1744 C1715 0.950 . S
H1745 C1719 0.950 . S
H1746 C1721 0.950 . S
H1747 C1724 0.950 . S
H1748 C1726 0.950 . S
C1749 C1750 1.443 . S
C1749 N1753 1.376 . S
C1749 C1787 1.389 . S
C1750 C1749 1.443 . S
C1750 C1751 1.340 . S
C1750 H1790 0.951 . S
C1751 C1750 1.340 . S
C1751 C1752 1.439 . S
C1751 H1791 0.950 . S
C1752 C1751 1.439 . S
C1752 N1753 1.374 . S
C1752 C1786 1.395 . S
N1753 C1749 1.376 . S
N1753 C1752 1.374 . S
N1753 Co1754 2.008 . S
Co1754 N1753 2.008 . S
Co1754 N1755 1.995 . S
Co1754 N1760 2.008 . S
Co1754 N1765 1.995 . S
Co1754 N1770 2.282 . S
Co1754 N1776 2.282 . S
N1755 Co1754 1.995 . S
N1755 C1756 1.376 . S
N1755 C1759 1.383 . S
C1756 N1755 1.376 . S
C1756 C1757 1.446 . S
C1756 C1786 1.391 . S
C1757 C1756 1.446 . S
C1757 C1758 1.339 . S
C1757 H1792 0.949 . S
C1758 C1757 1.339 . S
C1758 C1759 1.439 . S
C1758 H1793 0.950 . S
C1759 N1755 1.383 . S
C1759 C1758 1.439 . S
C1759 C1788 1.392 . S
N1760 Co1754 2.008 . S
N1760 C1761 1.376 . S
N1760 C1764 1.374 . S
C1761 N1760 1.376 . S
C1761 C1762 1.443 . S
C1761 C1788 1.389 . S
C1762 C1761 1.443 . S
C1762 C1763 1.340 . S
C1762 H1794 0.951 . S
C1763 C1762 1.340 . S
C1763 C1764 1.439 . S
C1763 H1795 0.950 . S
C1764 N1760 1.374 . S
C1764 C1763 1.439 . S
C1764 C1789 1.395 . S
N1765 Co1754 1.995 . S
N1765 C1766 1.376 . S
N1765 C1769 1.383 . S
C1766 N1765 1.376 . S
C1766 C1767 1.446 . S
C1766 C1789 1.391 . S
C1767 C1766 1.446 . S
C1767 C1768 1.339 . S
C1767 H1796 0.949 . S
C1768 C1767 1.339 . S
C1768 C1769 1.439 . S
C1768 H1797 0.950 . S
C1769 N1765 1.383 . S
C1769 C1768 1.439 . S
C1769 C1787 1.392 . S
N1770 Co1754 2.282 . S
N1770 C1773 1.332 . S
N1770 C1775 1.332 . S
C1771 C1772 1.386 . S
C1771 C1774 1.388 . S
C1772 C1771 1.386 . S
C1772 C1773 1.382 . S
C1772 H1798 0.950 . S
C1773 N1770 1.332 . S
C1773 C1772 1.382 . S
C1773 H1784 0.952 . S
C1774 C1771 1.388 . S
C1774 C1775 1.382 . S
C1774 H1799 0.950 . S
C1775 N1770 1.332 . S
C1775 C1774 1.382 . S
C1775 H1785 0.948 . S
N1776 Co1754 2.282 . S
N1776 C1780 1.332 . S
N1776 C1781 1.332 . S
C1777 C1778 1.388 . S
C1777 C1781 1.382 . S
C1777 H1800 0.950 . S
C1778 C1777 1.388 . S
C1778 C1779 1.386 . S
C1779 C1778 1.386 . S
C1779 C1780 1.382 . S
C1779 H1801 0.950 . S
C1780 N1776 1.332 . S
C1780 C1779 1.382 . S
C1780 H1782 0.952 . S
C1781 N1776 1.332 . S
C1781 C1777 1.382 . S
C1781 H1783 0.948 . S
H1782 C1780 0.952 . S
H1783 C1781 0.948 . S
H1784 C1773 0.952 . S
H1785 C1775 0.948 . S
C1786 C1752 1.395 . S
C1786 C1756 1.391 . S
C1787 C1749 1.389 . S
C1787 C1769 1.392 . S
C1788 C1759 1.392 . S
C1788 C1761 1.389 . S
C1789 C1764 1.395 . S
C1789 C1766 1.391 . S
H1790 C1750 0.951 . S
H1791 C1751 0.950 . S
H1792 C1757 0.949 . S
H1793 C1758 0.950 . S
H1794 C1762 0.951 . S
H1795 C1763 0.950 . S
H1796 C1767 0.949 . S
H1797 C1768 0.950 . S
H1798 C1772 0.950 . S
H1799 C1774 0.950 . S
H1800 C1777 0.950 . S
H1801 C1779 0.950 . S
C1802 C1803 1.443 . S
C1802 N1806 1.376 . S
C1802 C1840 1.389 . S
C1803 C1802 1.443 . S
C1803 C1804 1.340 . S
C1803 H1843 0.951 . S
C1804 C1803 1.340 . S
C1804 C1805 1.439 . S
C1804 H1844 0.950 . S
C1805 C1804 1.439 . S
C1805 N1806 1.374 . S
C1805 C1839 1.395 . S
N1806 C1802 1.376 . S
N1806 C1805 1.374 . S
N1806 Co1807 2.008 . S
Co1807 N1806 2.008 . S
Co1807 N1808 1.995 . S
Co1807 N1813 2.008 . S
Co1807 N1818 1.995 . S
Co1807 N1823 2.282 . S
Co1807 N1829 2.282 . S
N1808 Co1807 1.995 . S
N1808 C1809 1.376 . S
N1808 C1812 1.383 . S
C1809 N1808 1.376 . S
C1809 C1810 1.446 . S
C1809 C1839 1.391 . S
C1810 C1809 1.446 . S
C1810 C1811 1.339 . S
C1810 H1845 0.949 . S
C1811 C1810 1.339 . S
C1811 C1812 1.439 . S
C1811 H1846 0.950 . S
C1812 N1808 1.383 . S
C1812 C1811 1.439 . S
C1812 C1841 1.392 . S
N1813 Co1807 2.008 . S
N1813 C1814 1.376 . S
N1813 C1817 1.374 . S
C1814 N1813 1.376 . S
C1814 C1815 1.443 . S
C1814 C1841 1.389 . S
C1815 C1814 1.443 . S
C1815 C1816 1.340 . S
C1815 H1847 0.951 . S
C1816 C1815 1.340 . S
C1816 C1817 1.439 . S
C1816 H1848 0.950 . S
C1817 N1813 1.374 . S
C1817 C1816 1.439 . S
C1817 C1842 1.395 . S
N1818 Co1807 1.995 . S
N1818 C1819 1.376 . S
N1818 C1822 1.383 . S
C1819 N1818 1.376 . S
C1819 C1820 1.446 . S
C1819 C1842 1.391 . S
C1820 C1819 1.446 . S
C1820 C1821 1.339 . S
C1820 H1849 0.949 . S
C1821 C1820 1.339 . S
C1821 C1822 1.439 . S
C1821 H1850 0.950 . S
C1822 N1818 1.383 . S
C1822 C1821 1.439 . S
C1822 C1840 1.392 . S
N1823 Co1807 2.282 . S
N1823 C1826 1.332 . S
N1823 C1828 1.332 . S
C1824 C1825 1.386 . S
C1824 C1827 1.388 . S
C1825 C1824 1.386 . S
C1825 C1826 1.382 . S
C1825 H1851 0.950 . S
C1826 N1823 1.332 . S
C1826 C1825 1.382 . S
C1826 H1837 0.952 . S
C1827 C1824 1.388 . S
C1827 C1828 1.382 . S
C1827 H1852 0.950 . S
C1828 N1823 1.332 . S
C1828 C1827 1.382 . S
C1828 H1838 0.948 . S
N1829 Co1807 2.282 . S
N1829 C1833 1.332 . S
N1829 C1834 1.332 . S
C1830 C1831 1.388 . S
C1830 C1834 1.382 . S
C1830 H1853 0.950 . S
C1831 C1830 1.388 . S
C1831 C1832 1.386 . S
C1832 C1831 1.386 . S
C1832 C1833 1.382 . S
C1832 H1854 0.950 . S
C1833 N1829 1.332 . S
C1833 C1832 1.382 . S
C1833 H1835 0.952 . S
C1834 N1829 1.332 . S
C1834 C1830 1.382 . S
C1834 H1836 0.948 . S
H1835 C1833 0.952 . S
H1836 C1834 0.948 . S
H1837 C1826 0.952 . S
H1838 C1828 0.948 . S
C1839 C1805 1.395 . S
C1839 C1809 1.391 . S
C1840 C1802 1.389 . S
C1840 C1822 1.392 . S
C1841 C1812 1.392 . S
C1841 C1814 1.389 . S
C1842 C1817 1.395 . S
C1842 C1819 1.391 . S
H1843 C1803 0.951 . S
H1844 C1804 0.950 . S
H1845 C1810 0.949 . S
H1846 C1811 0.950 . S
H1847 C1815 0.951 . S
H1848 C1816 0.950 . S
H1849 C1820 0.949 . S
H1850 C1821 0.950 . S
H1851 C1825 0.950 . S
H1852 C1827 0.950 . S
H1853 C1830 0.950 . S
H1854 C1832 0.950 . S
C1855 C1856 1.443 . S
C1855 N1859 1.376 . S
C1855 C1893 1.389 . S
C1856 C1855 1.443 . S
C1856 C1857 1.340 1_655 S
C1856 H1896 0.951 1_655 S
C1857 C1856 1.340 1_455 S
C1857 C1858 1.439 1_455 S
C1857 H1897 0.950 . S
C1858 C1857 1.439 1_655 S
C1858 N1859 1.374 . S
C1858 C1892 1.395 . S
N1859 C1855 1.376 . S
N1859 C1858 1.374 . S
N1859 Co1860 2.008 . S
Co1860 N1859 2.008 . S
Co1860 N1861 1.995 . S
Co1860 N1866 2.008 . S
Co1860 N1871 1.995 . S
Co1860 N1876 2.282 . S
Co1860 N1882 2.282 . S
N1861 Co1860 1.995 . S
N1861 C1862 1.376 . S
N1861 C1865 1.383 . S
C1862 N1861 1.376 . S
C1862 C1863 1.446 . S
C1862 C1892 1.391 . S
C1863 C1862 1.446 . S
C1863 C1864 1.339 . S
C1863 H1898 0.949 . S
C1864 C1863 1.339 . S
C1864 C1865 1.439 . S
C1864 H1899 0.950 . S
C1865 N1861 1.383 . S
C1865 C1864 1.439 . S
C1865 C1894 1.392 . S
N1866 Co1860 2.008 . S
N1866 C1867 1.376 . S
N1866 C1870 1.374 . S
C1867 N1866 1.376 . S
C1867 C1868 1.443 . S
C1867 C1894 1.389 . S
C1868 C1867 1.443 . S
C1868 C1869 1.340 . S
C1868 H1900 0.951 . S
C1869 C1868 1.340 . S
C1869 C1870 1.439 . S
C1869 H1901 0.950 . S
C1870 N1866 1.374 . S
C1870 C1869 1.439 . S
C1870 C1895 1.395 . S
N1871 Co1860 1.995 . S
N1871 C1872 1.376 . S
N1871 C1875 1.383 . S
C1872 N1871 1.376 . S
C1872 C1873 1.446 . S
C1872 C1895 1.391 . S
C1873 C1872 1.446 . S
C1873 C1874 1.339 . S
C1873 H1902 0.949 . S
C1874 C1873 1.339 . S
C1874 C1875 1.439 . S
C1874 H1903 0.950 . S
C1875 N1871 1.383 . S
C1875 C1874 1.439 . S
C1875 C1893 1.392 . S
N1876 Co1860 2.282 . S
N1876 C1879 1.332 . S
N1876 C1881 1.332 . S
C1877 C1878 1.386 . S
C1877 C1880 1.388 . S
C1878 C1877 1.386 . S
C1878 C1879 1.382 . S
C1878 H1904 0.950 . S
C1879 N1876 1.332 . S
C1879 C1878 1.382 . S
C1879 H1890 0.952 . S
C1880 C1877 1.388 . S
C1880 C1881 1.382 . S
C1880 H1905 0.950 . S
C1881 N1876 1.332 . S
C1881 C1880 1.382 . S
C1881 H1891 0.948 . S
N1882 Co1860 2.282 . S
N1882 C1886 1.332 . S
N1882 C1887 1.332 . S
C1883 C1884 1.388 . S
C1883 C1887 1.382 . S
C1883 H1906 0.950 . S
C1884 C1883 1.388 . S
C1884 C1885 1.386 . S
C1885 C1884 1.386 . S
C1885 C1886 1.382 . S
C1885 H1907 0.950 . S
C1886 N1882 1.332 . S
C1886 C1885 1.382 . S
C1886 H1888 0.952 . S
C1887 N1882 1.332 . S
C1887 C1883 1.382 . S
C1887 H1889 0.948 . S
H1888 C1886 0.952 . S
H1889 C1887 0.948 . S
H1890 C1879 0.952 . S
H1891 C1881 0.948 . S
C1892 C1858 1.395 . S
C1892 C1862 1.391 . S
C1893 C1855 1.389 . S
C1893 C1875 1.392 . S
C1894 C1865 1.392 . S
C1894 C1867 1.389 . S
C1895 C1870 1.395 . S
C1895 C1872 1.391 . S
H1896 C1856 0.951 1_455 S
H1897 C1857 0.950 . S
H1898 C1863 0.949 . S
H1899 C1864 0.950 . S
H1900 C1868 0.951 . S
H1901 C1869 0.950 . S
H1902 C1873 0.949 . S
H1903 C1874 0.950 . S
H1904 C1878 0.950 . S
H1905 C1880 0.950 . S
H1906 C1883 0.950 . S
H1907 C1885 0.950 . S
C1908 C1909 1.443 . S
C1908 N1912 1.376 . S
C1908 C1946 1.389 . S
C1909 C1908 1.443 . S
C1909 C1910 1.340 . S
C1909 H1949 0.951 . S
C1910 C1909 1.340 . S
C1910 C1911 1.439 . S
C1910 H1950 0.950 . S
C1911 C1910 1.439 . S
C1911 N1912 1.374 . S
C1911 C1945 1.395 . S
N1912 C1908 1.376 . S
N1912 C1911 1.374 . S
N1912 Co1913 2.008 . S
Co1913 N1912 2.008 . S
Co1913 N1914 1.995 . S
Co1913 N1919 2.008 . S
Co1913 N1924 1.995 . S
Co1913 N1929 2.282 . S
Co1913 N1935 2.282 . S
N1914 Co1913 1.995 . S
N1914 C1915 1.376 . S
N1914 C1918 1.383 . S
C1915 N1914 1.376 . S
C1915 C1916 1.446 . S
C1915 C1945 1.391 . S
C1916 C1915 1.446 . S
C1916 C1917 1.339 . S
C1916 H1951 0.949 . S
C1917 C1916 1.339 . S
C1917 C1918 1.439 . S
C1917 H1952 0.950 . S
C1918 N1914 1.383 . S
C1918 C1917 1.439 . S
C1918 C1947 1.392 . S
N1919 Co1913 2.008 . S
N1919 C1920 1.376 . S
N1919 C1923 1.374 . S
C1920 N1919 1.376 . S
C1920 C1921 1.443 . S
C1920 C1947 1.389 . S
C1921 C1920 1.443 . S
C1921 C1922 1.340 . S
C1921 H1953 0.951 . S
C1922 C1921 1.340 . S
C1922 C1923 1.439 . S
C1922 H1954 0.950 . S
C1923 N1919 1.374 . S
C1923 C1922 1.439 . S
C1923 C1948 1.395 . S
N1924 Co1913 1.995 . S
N1924 C1925 1.376 . S
N1924 C1928 1.383 . S
C1925 N1924 1.376 . S
C1925 C1926 1.446 . S
C1925 C1948 1.391 . S
C1926 C1925 1.446 . S
C1926 C1927 1.339 . S
C1926 H1955 0.949 . S
C1927 C1926 1.339 . S
C1927 C1928 1.439 . S
C1927 H1956 0.950 . S
C1928 N1924 1.383 . S
C1928 C1927 1.439 . S
C1928 C1946 1.392 . S
N1929 Co1913 2.282 . S
N1929 C1932 1.332 . S
N1929 C1934 1.332 . S
C1930 C1931 1.386 . S
C1930 C1933 1.388 . S
C1931 C1930 1.386 . S
C1931 C1932 1.382 . S
C1931 H1957 0.950 . S
C1932 N1929 1.332 . S
C1932 C1931 1.382 . S
C1932 H1943 0.952 . S
C1933 C1930 1.388 . S
C1933 C1934 1.382 . S
C1933 H1958 0.950 . S
C1934 N1929 1.332 . S
C1934 C1933 1.382 . S
C1934 H1944 0.948 . S
N1935 Co1913 2.282 . S
N1935 C1939 1.332 . S
N1935 C1940 1.332 . S
C1936 C1937 1.388 . S
C1936 C1940 1.382 . S
C1936 H1959 0.950 . S
C1937 C1936 1.388 . S
C1937 C1938 1.386 . S
C1938 C1937 1.386 . S
C1938 C1939 1.382 . S
C1938 H1960 0.950 . S
C1939 N1935 1.332 . S
C1939 C1938 1.382 . S
C1939 H1941 0.952 . S
C1940 N1935 1.332 . S
C1940 C1936 1.382 . S
C1940 H1942 0.948 . S
H1941 C1939 0.952 . S
H1942 C1940 0.948 . S
H1943 C1932 0.952 . S
H1944 C1934 0.948 . S
C1945 C1911 1.395 . S
C1945 C1915 1.391 . S
C1946 C1908 1.389 . S
C1946 C1928 1.392 . S
C1947 C1918 1.392 . S
C1947 C1920 1.389 . S
C1948 C1923 1.395 . S
C1948 C1925 1.391 . S
H1949 C1909 0.951 . S
H1950 C1910 0.950 . S
H1951 C1916 0.949 . S
H1952 C1917 0.950 . S
H1953 C1921 0.951 . S
H1954 C1922 0.950 . S
H1955 C1926 0.949 . S
H1956 C1927 0.950 . S
H1957 C1931 0.950 . S
H1958 C1933 0.950 . S
H1959 C1936 0.950 . S
H1960 C1938 0.950 . S
C1961 C1962 1.443 . S
C1961 N1965 1.376 . S
C1961 C1999 1.389 . S
C1962 C1961 1.443 . S
C1962 C1963 1.340 1_655 S
C1962 H2002 0.951 1_655 S
C1963 C1962 1.340 1_455 S
C1963 C1964 1.439 1_455 S
C1963 H2003 0.950 . S
C1964 C1963 1.439 1_655 S
C1964 N1965 1.374 . S
C1964 C1998 1.395 . S
N1965 C1961 1.376 . S
N1965 C1964 1.374 . S
N1965 Co1966 2.008 . S
Co1966 N1965 2.008 . S
Co1966 N1967 1.995 . S
Co1966 N1972 2.008 . S
Co1966 N1977 1.995 . S
Co1966 N1982 2.282 . S
Co1966 N1988 2.282 . S
N1967 Co1966 1.995 . S
N1967 C1968 1.376 . S
N1967 C1971 1.383 . S
C1968 N1967 1.376 . S
C1968 C1969 1.446 . S
C1968 C1998 1.391 . S
C1969 C1968 1.446 . S
C1969 C1970 1.339 . S
C1969 H2004 0.949 . S
C1970 C1969 1.339 . S
C1970 C1971 1.439 . S
C1970 H2005 0.950 . S
C1971 N1967 1.383 . S
C1971 C1970 1.439 . S
C1971 C2000 1.392 . S
N1972 Co1966 2.008 . S
N1972 C1973 1.376 . S
N1972 C1976 1.374 . S
C1973 N1972 1.376 . S
C1973 C1974 1.443 . S
C1973 C2000 1.389 . S
C1974 C1973 1.443 . S
C1974 C1975 1.340 . S
C1974 H2006 0.951 . S
C1975 C1974 1.340 . S
C1975 C1976 1.439 . S
C1975 H2007 0.950 . S
C1976 N1972 1.374 . S
C1976 C1975 1.439 . S
C1976 C2001 1.395 . S
N1977 Co1966 1.995 . S
N1977 C1978 1.376 . S
N1977 C1981 1.383 . S
C1978 N1977 1.376 . S
C1978 C1979 1.446 . S
C1978 C2001 1.391 . S
C1979 C1978 1.446 . S
C1979 C1980 1.339 . S
C1979 H2008 0.949 . S
C1980 C1979 1.339 . S
C1980 C1981 1.439 . S
C1980 H2009 0.950 . S
C1981 N1977 1.383 . S
C1981 C1980 1.439 . S
C1981 C1999 1.392 . S
N1982 Co1966 2.282 . S
N1982 C1985 1.332 . S
N1982 C1987 1.332 . S
C1983 C1984 1.386 . S
C1983 C1986 1.388 . S
C1984 C1983 1.386 . S
C1984 C1985 1.382 . S
C1984 H2010 0.950 . S
C1985 N1982 1.332 . S
C1985 C1984 1.382 . S
C1985 H1996 0.952 . S
C1986 C1983 1.388 . S
C1986 C1987 1.382 . S
C1986 H2011 0.950 . S
C1987 N1982 1.332 . S
C1987 C1986 1.382 . S
C1987 H1997 0.948 . S
N1988 Co1966 2.282 . S
N1988 C1992 1.332 . S
N1988 C1993 1.332 . S
C1989 C1990 1.388 . S
C1989 C1993 1.382 . S
C1989 H2012 0.950 . S
C1990 C1989 1.388 . S
C1990 C1991 1.386 . S
C1991 C1990 1.386 . S
C1991 C1992 1.382 . S
C1991 H2013 0.950 . S
C1992 N1988 1.332 . S
C1992 C1991 1.382 . S
C1992 H1994 0.952 . S
C1993 N1988 1.332 . S
C1993 C1989 1.382 . S
C1993 H1995 0.948 . S
H1994 C1992 0.952 . S
H1995 C1993 0.948 . S
H1996 C1985 0.952 . S
H1997 C1987 0.948 . S
C1998 C1964 1.395 . S
C1998 C1968 1.391 . S
C1999 C1961 1.389 . S
C1999 C1981 1.392 . S
C2000 C1971 1.392 . S
C2000 C1973 1.389 . S
C2001 C1976 1.395 . S
C2001 C1978 1.391 . S
H2002 C1962 0.951 1_455 S
H2003 C1963 0.950 . S
H2004 C1969 0.949 . S
H2005 C1970 0.950 . S
H2006 C1974 0.951 . S
H2007 C1975 0.950 . S
H2008 C1979 0.949 . S
H2009 C1980 0.950 . S
H2010 C1984 0.950 . S
H2011 C1986 0.950 . S
H2012 C1989 0.950 . S
H2013 C1991 0.950 . S
C2014 C2015 1.443 . S
C2014 N2018 1.376 . S
C2014 C2052 1.389 . S
C2015 C2014 1.443 . S
C2015 C2016 1.340 . S
C2015 H2055 0.951 . S
C2016 C2015 1.340 . S
C2016 C2017 1.439 . S
C2016 H2056 0.950 . S
C2017 C2016 1.439 . S
C2017 N2018 1.374 . S
C2017 C2051 1.395 . S
N2018 C2014 1.376 . S
N2018 C2017 1.374 . S
N2018 Co2019 2.008 . S
Co2019 N2018 2.008 . S
Co2019 N2020 1.995 . S
Co2019 N2025 2.008 . S
Co2019 N2030 1.995 . S
Co2019 N2035 2.282 . S
Co2019 N2041 2.282 . S
N2020 Co2019 1.995 . S
N2020 C2021 1.376 . S
N2020 C2024 1.383 . S
C2021 N2020 1.376 . S
C2021 C2022 1.446 . S
C2021 C2051 1.391 . S
C2022 C2021 1.446 . S
C2022 C2023 1.339 . S
C2022 H2057 0.949 . S
C2023 C2022 1.339 . S
C2023 C2024 1.439 . S
C2023 H2058 0.950 . S
C2024 N2020 1.383 . S
C2024 C2023 1.439 . S
C2024 C2053 1.392 . S
N2025 Co2019 2.008 . S
N2025 C2026 1.376 . S
N2025 C2029 1.374 . S
C2026 N2025 1.376 . S
C2026 C2027 1.443 . S
C2026 C2053 1.389 . S
C2027 C2026 1.443 . S
C2027 C2028 1.340 . S
C2027 H2059 0.951 . S
C2028 C2027 1.340 . S
C2028 C2029 1.439 . S
C2028 H2060 0.950 . S
C2029 N2025 1.374 . S
C2029 C2028 1.439 . S
C2029 C2054 1.395 . S
N2030 Co2019 1.995 . S
N2030 C2031 1.376 . S
N2030 C2034 1.383 . S
C2031 N2030 1.376 . S
C2031 C2032 1.446 . S
C2031 C2054 1.391 . S
C2032 C2031 1.446 . S
C2032 C2033 1.339 . S
C2032 H2061 0.949 . S
C2033 C2032 1.339 . S
C2033 C2034 1.439 . S
C2033 H2062 0.950 . S
C2034 N2030 1.383 . S
C2034 C2033 1.439 . S
C2034 C2052 1.392 . S
N2035 Co2019 2.282 . S
N2035 C2038 1.332 . S
N2035 C2040 1.332 . S
C2036 C2037 1.386 . S
C2036 C2039 1.388 . S
C2037 C2036 1.386 . S
C2037 C2038 1.382 . S
C2037 H2063 0.950 . S
C2038 N2035 1.332 . S
C2038 C2037 1.382 . S
C2038 H2049 0.952 . S
C2039 C2036 1.388 . S
C2039 C2040 1.382 . S
C2039 H2064 0.950 . S
C2040 N2035 1.332 . S
C2040 C2039 1.382 . S
C2040 H2050 0.948 . S
N2041 Co2019 2.282 . S
N2041 C2045 1.332 . S
N2041 C2046 1.332 . S
C2042 C2043 1.388 . S
C2042 C2046 1.382 . S
C2042 H2065 0.950 . S
C2043 C2042 1.388 . S
C2043 C2044 1.386 . S
C2044 C2043 1.386 . S
C2044 C2045 1.382 . S
C2044 H2066 0.950 . S
C2045 N2041 1.332 . S
C2045 C2044 1.382 . S
C2045 H2047 0.952 . S
C2046 N2041 1.332 . S
C2046 C2042 1.382 . S
C2046 H2048 0.948 . S
H2047 C2045 0.952 . S
H2048 C2046 0.948 . S
H2049 C2038 0.952 . S
H2050 C2040 0.948 . S
C2051 C2017 1.395 . S
C2051 C2021 1.391 . S
C2052 C2014 1.389 . S
C2052 C2034 1.392 . S
C2053 C2024 1.392 . S
C2053 C2026 1.389 . S
C2054 C2029 1.395 . S
C2054 C2031 1.391 . S
H2055 C2015 0.951 . S
H2056 C2016 0.950 . S
H2057 C2022 0.949 . S
H2058 C2023 0.950 . S
H2059 C2027 0.951 . S
H2060 C2028 0.950 . S
H2061 C2032 0.949 . S
H2062 C2033 0.950 . S
H2063 C2037 0.950 . S
H2064 C2039 0.950 . S
H2065 C2042 0.950 . S
H2066 C2044 0.950 . S
C2067 C2068 1.443 . S
C2067 N2071 1.376 . S
C2067 C2105 1.389 . S
C2068 C2067 1.443 . S
C2068 C2069 1.340 . S
C2068 H2108 0.951 . S
C2069 C2068 1.340 . S
C2069 C2070 1.439 . S
C2069 H2109 0.950 . S
C2070 C2069 1.439 . S
C2070 N2071 1.374 . S
C2070 C2104 1.395 . S
N2071 C2067 1.376 . S
N2071 C2070 1.374 . S
N2071 Co2072 2.008 . S
Co2072 N2071 2.008 . S
Co2072 N2073 1.995 . S
Co2072 N2078 2.008 . S
Co2072 N2083 1.995 . S
Co2072 N2088 2.282 . S
Co2072 N2094 2.282 . S
N2073 Co2072 1.995 . S
N2073 C2074 1.376 . S
N2073 C2077 1.383 . S
C2074 N2073 1.376 . S
C2074 C2075 1.446 . S
C2074 C2104 1.391 . S
C2075 C2074 1.446 . S
C2075 C2076 1.339 . S
C2075 H2110 0.949 . S
C2076 C2075 1.339 . S
C2076 C2077 1.439 . S
C2076 H2111 0.950 . S
C2077 N2073 1.383 . S
C2077 C2076 1.439 . S
C2077 C2106 1.392 . S
N2078 Co2072 2.008 . S
N2078 C2079 1.376 . S
N2078 C2082 1.374 . S
C2079 N2078 1.376 . S
C2079 C2080 1.443 . S
C2079 C2106 1.389 . S
C2080 C2079 1.443 . S
C2080 C2081 1.340 . S
C2080 H2112 0.951 . S
C2081 C2080 1.340 . S
C2081 C2082 1.439 . S
C2081 H2113 0.950 . S
C2082 N2078 1.374 . S
C2082 C2081 1.439 . S
C2082 C2107 1.395 . S
N2083 Co2072 1.995 . S
N2083 C2084 1.376 . S
N2083 C2087 1.383 . S
C2084 N2083 1.376 . S
C2084 C2085 1.446 . S
C2084 C2107 1.391 . S
C2085 C2084 1.446 . S
C2085 C2086 1.339 . S
C2085 H2114 0.949 . S
C2086 C2085 1.339 . S
C2086 C2087 1.439 . S
C2086 H2115 0.950 . S
C2087 N2083 1.383 . S
C2087 C2086 1.439 . S
C2087 C2105 1.392 . S
N2088 Co2072 2.282 . S
N2088 C2091 1.332 . S
N2088 C2093 1.332 . S
C2089 C2090 1.386 . S
C2089 C2092 1.388 . S
C2090 C2089 1.386 . S
C2090 C2091 1.382 . S
C2090 H2116 0.950 . S
C2091 N2088 1.332 . S
C2091 C2090 1.382 . S
C2091 H2102 0.952 . S
C2092 C2089 1.388 . S
C2092 C2093 1.382 . S
C2092 H2117 0.950 . S
C2093 N2088 1.332 . S
C2093 C2092 1.382 . S
C2093 H2103 0.948 . S
N2094 Co2072 2.282 . S
N2094 C2098 1.332 . S
N2094 C2099 1.332 . S
C2095 C2096 1.388 . S
C2095 C2099 1.382 . S
C2095 H2118 0.950 . S
C2096 C2095 1.388 . S
C2096 C2097 1.386 . S
C2097 C2096 1.386 . S
C2097 C2098 1.382 . S
C2097 H2119 0.950 . S
C2098 N2094 1.332 . S
C2098 C2097 1.382 . S
C2098 H2100 0.952 . S
C2099 N2094 1.332 . S
C2099 C2095 1.382 . S
C2099 H2101 0.948 . S
H2100 C2098 0.952 . S
H2101 C2099 0.948 . S
H2102 C2091 0.952 . S
H2103 C2093 0.948 . S
C2104 C2070 1.395 . S
C2104 C2074 1.391 . S
C2105 C2067 1.389 . S
C2105 C2087 1.392 . S
C2106 C2077 1.392 . S
C2106 C2079 1.389 . S
C2107 C2082 1.395 . S
C2107 C2084 1.391 . S
H2108 C2068 0.951 . S
H2109 C2069 0.950 . S
H2110 C2075 0.949 . S
H2111 C2076 0.950 . S
H2112 C2080 0.951 . S
H2113 C2081 0.950 . S
H2114 C2085 0.949 . S
H2115 C2086 0.950 . S
H2116 C2090 0.950 . S
H2117 C2092 0.950 . S
H2118 C2095 0.950 . S
H2119 C2097 0.950 . S
C2120 C2121 1.443 . S
C2120 N2124 1.376 . S
C2120 C2158 1.389 . S
C2121 C2120 1.443 . S
C2121 C2122 1.340 . S
C2121 H2161 0.951 . S
C2122 C2121 1.340 . S
C2122 C2123 1.439 . S
C2122 H2162 0.950 . S
C2123 C2122 1.439 . S
C2123 N2124 1.374 . S
C2123 C2157 1.395 . S
N2124 C2120 1.376 . S
N2124 C2123 1.374 . S
N2124 Co2125 2.008 . S
Co2125 N2124 2.008 . S
Co2125 N2126 1.995 . S
Co2125 N2131 2.008 . S
Co2125 N2136 1.995 . S
Co2125 N2141 2.282 . S
Co2125 N2147 2.282 . S
N2126 Co2125 1.995 . S
N2126 C2127 1.376 . S
N2126 C2130 1.383 . S
C2127 N2126 1.376 . S
C2127 C2128 1.446 . S
C2127 C2157 1.391 . S
C2128 C2127 1.446 . S
C2128 C2129 1.339 . S
C2128 H2163 0.949 . S
C2129 C2128 1.339 . S
C2129 C2130 1.439 . S
C2129 H2164 0.950 . S
C2130 N2126 1.383 . S
C2130 C2129 1.439 . S
C2130 C2159 1.392 . S
N2131 Co2125 2.008 . S
N2131 C2132 1.376 . S
N2131 C2135 1.374 . S
C2132 N2131 1.376 . S
C2132 C2133 1.443 . S
C2132 C2159 1.389 . S
C2133 C2132 1.443 . S
C2133 C2134 1.340 . S
C2133 H2165 0.951 . S
C2134 C2133 1.340 . S
C2134 C2135 1.439 . S
C2134 H2166 0.950 . S
C2135 N2131 1.374 . S
C2135 C2134 1.439 . S
C2135 C2160 1.395 . S
N2136 Co2125 1.995 . S
N2136 C2137 1.376 . S
N2136 C2140 1.383 . S
C2137 N2136 1.376 . S
C2137 C2138 1.446 . S
C2137 C2160 1.391 . S
C2138 C2137 1.446 . S
C2138 C2139 1.339 . S
C2138 H2167 0.949 . S
C2139 C2138 1.339 . S
C2139 C2140 1.439 . S
C2139 H2168 0.950 . S
C2140 N2136 1.383 . S
C2140 C2139 1.439 . S
C2140 C2158 1.392 . S
N2141 Co2125 2.282 . S
N2141 C2144 1.332 . S
N2141 C2146 1.332 . S
C2142 C2143 1.386 . S
C2142 C2145 1.388 . S
C2143 C2142 1.386 . S
C2143 C2144 1.382 . S
C2143 H2169 0.950 . S
C2144 N2141 1.332 . S
C2144 C2143 1.382 . S
C2144 H2155 0.952 . S
C2145 C2142 1.388 . S
C2145 C2146 1.382 . S
C2145 H2170 0.950 . S
C2146 N2141 1.332 . S
C2146 C2145 1.382 . S
C2146 H2156 0.948 . S
N2147 Co2125 2.282 . S
N2147 C2151 1.332 . S
N2147 C2152 1.332 . S
C2148 C2149 1.388 . S
C2148 C2152 1.382 . S
C2148 H2171 0.950 . S
C2149 C2148 1.388 . S
C2149 C2150 1.386 . S
C2150 C2149 1.386 . S
C2150 C2151 1.382 . S
C2150 H2172 0.950 . S
C2151 N2147 1.332 . S
C2151 C2150 1.382 . S
C2151 H2153 0.952 . S
C2152 N2147 1.332 . S
C2152 C2148 1.382 . S
C2152 H2154 0.948 . S
H2153 C2151 0.952 . S
H2154 C2152 0.948 . S
H2155 C2144 0.952 . S
H2156 C2146 0.948 . S
C2157 C2123 1.395 . S
C2157 C2127 1.391 . S
C2158 C2120 1.389 . S
C2158 C2140 1.392 . S
C2159 C2130 1.392 . S
C2159 C2132 1.389 . S
C2160 C2135 1.395 . S
C2160 C2137 1.391 . S
H2161 C2121 0.951 . S
H2162 C2122 0.950 . S
H2163 C2128 0.949 . S
H2164 C2129 0.950 . S
H2165 C2133 0.951 . S
H2166 C2134 0.950 . S
H2167 C2138 0.949 . S
H2168 C2139 0.950 . S
H2169 C2143 0.950 . S
H2170 C2145 0.950 . S
H2171 C2148 0.950 . S
H2172 C2150 0.950 . S
C2173 C2174 1.443 . S
C2173 N2177 1.376 . S
C2173 C2211 1.389 . S
C2174 C2173 1.443 . S
C2174 C2175 1.340 . S
C2174 H2214 0.951 . S
C2175 C2174 1.340 . S
C2175 C2176 1.439 . S
C2175 H2215 0.950 . S
C2176 C2175 1.439 . S
C2176 N2177 1.374 . S
C2176 C2210 1.395 . S
N2177 C2173 1.376 . S
N2177 C2176 1.374 . S
N2177 Co2178 2.008 . S
Co2178 N2177 2.008 . S
Co2178 N2179 1.995 . S
Co2178 N2184 2.008 . S
Co2178 N2189 1.995 . S
Co2178 N2194 2.282 . S
Co2178 N2200 2.282 . S
N2179 Co2178 1.995 . S
N2179 C2180 1.376 . S
N2179 C2183 1.383 . S
C2180 N2179 1.376 . S
C2180 C2181 1.446 . S
C2180 C2210 1.391 . S
C2181 C2180 1.446 . S
C2181 C2182 1.339 . S
C2181 H2216 0.949 . S
C2182 C2181 1.339 . S
C2182 C2183 1.439 . S
C2182 H2217 0.950 . S
C2183 N2179 1.383 . S
C2183 C2182 1.439 . S
C2183 C2212 1.392 . S
N2184 Co2178 2.008 . S
N2184 C2185 1.376 . S
N2184 C2188 1.374 . S
C2185 N2184 1.376 . S
C2185 C2186 1.443 . S
C2185 C2212 1.389 . S
C2186 C2185 1.443 . S
C2186 C2187 1.340 . S
C2186 H2218 0.951 . S
C2187 C2186 1.340 . S
C2187 C2188 1.439 . S
C2187 H2219 0.950 . S
C2188 N2184 1.374 . S
C2188 C2187 1.439 . S
C2188 C2213 1.395 . S
N2189 Co2178 1.995 . S
N2189 C2190 1.376 . S
N2189 C2193 1.383 . S
C2190 N2189 1.376 . S
C2190 C2191 1.446 . S
C2190 C2213 1.391 . S
C2191 C2190 1.446 . S
C2191 C2192 1.339 . S
C2191 H2220 0.949 . S
C2192 C2191 1.339 . S
C2192 C2193 1.439 . S
C2192 H2221 0.950 . S
C2193 N2189 1.383 . S
C2193 C2192 1.439 . S
C2193 C2211 1.392 . S
N2194 Co2178 2.282 . S
N2194 C2197 1.332 . S
N2194 C2199 1.332 . S
C2195 C2196 1.386 . S
C2195 C2198 1.388 . S
C2196 C2195 1.386 . S
C2196 C2197 1.382 . S
C2196 H2222 0.950 . S
C2197 N2194 1.332 . S
C2197 C2196 1.382 . S
C2197 H2208 0.952 . S
C2198 C2195 1.388 . S
C2198 C2199 1.382 . S
C2198 H2223 0.950 . S
C2199 N2194 1.332 . S
C2199 C2198 1.382 . S
C2199 H2209 0.948 . S
N2200 Co2178 2.282 . S
N2200 C2204 1.332 . S
N2200 C2205 1.332 . S
C2201 C2202 1.388 . S
C2201 C2205 1.382 . S
C2201 H2224 0.950 . S
C2202 C2201 1.388 . S
C2202 C2203 1.386 . S
C2203 C2202 1.386 . S
C2203 C2204 1.382 . S
C2203 H2225 0.950 . S
C2204 N2200 1.332 . S
C2204 C2203 1.382 . S
C2204 H2206 0.952 . S
C2205 N2200 1.332 . S
C2205 C2201 1.382 . S
C2205 H2207 0.948 . S
H2206 C2204 0.952 . S
H2207 C2205 0.948 . S
H2208 C2197 0.952 . S
H2209 C2199 0.948 . S
C2210 C2176 1.395 . S
C2210 C2180 1.391 . S
C2211 C2173 1.389 . S
C2211 C2193 1.392 . S
C2212 C2183 1.392 . S
C2212 C2185 1.389 . S
C2213 C2188 1.395 . S
C2213 C2190 1.391 . S
H2214 C2174 0.951 . S
H2215 C2175 0.950 . S
H2216 C2181 0.949 . S
H2217 C2182 0.950 . S
H2218 C2186 0.951 . S
H2219 C2187 0.950 . S
H2220 C2191 0.949 . S
H2221 C2192 0.950 . S
H2222 C2196 0.950 . S
H2223 C2198 0.950 . S
H2224 C2201 0.950 . S
H2225 C2203 0.950 . S
C2226 C2227 1.441 1_545 S
C2226 N2230 1.380 . S
C2226 C2264 1.386 1_545 S
C2227 C2226 1.441 1_565 S
C2227 C2228 1.305 1_565 S
C2227 H2267 0.986 . S
C2228 C2227 1.305 1_545 S
C2228 C2229 1.439 . S
C2228 H2268 0.950 . S
C2229 C2228 1.439 . S
C2229 N2230 1.374 . S
C2229 C2263 1.395 . S
N2230 C2226 1.380 . S
N2230 C2229 1.374 . S
N2230 Co2231 2.008 . S
Co2231 N2230 2.008 . S
Co2231 N2232 1.995 . S
Co2231 N2237 2.008 . S
Co2231 N2242 1.995 . S
Co2231 N2247 2.282 . S
Co2231 N2253 2.282 . S
N2232 Co2231 1.995 . S
N2232 C2233 1.376 . S
N2232 C2236 1.383 . S
C2233 N2232 1.376 . S
C2233 C2234 1.446 . S
C2233 C2263 1.391 . S
C2234 C2233 1.446 . S
C2234 C2235 1.339 . S
C2234 H2269 0.949 . S
C2235 C2234 1.339 . S
C2235 C2236 1.439 . S
C2235 H2270 0.950 . S
C2236 N2232 1.383 . S
C2236 C2235 1.439 . S
C2236 C2265 1.392 . S
N2237 Co2231 2.008 . S
N2237 C2238 1.376 . S
N2237 C2241 1.374 . S
C2238 N2237 1.376 . S
C2238 C2239 1.443 . S
C2238 C2265 1.389 . S
C2239 C2238 1.443 . S
C2239 C2240 1.340 . S
C2239 H2271 0.951 . S
C2240 C2239 1.340 . S
C2240 C2241 1.439 . S
C2240 H2272 0.950 . S
C2241 N2237 1.374 . S
C2241 C2240 1.439 . S
C2241 C2266 1.395 . S
N2242 Co2231 1.995 . S
N2242 C2243 1.376 . S
N2242 C2246 1.383 1_545 S
C2243 N2242 1.376 . S
C2243 C2244 1.446 1_545 S
C2243 C2266 1.391 . S
C2244 C2243 1.446 1_565 S
C2244 C2245 1.339 . S
C2244 H2273 0.949 . S
C2245 C2244 1.339 . S
C2245 C2246 1.439 . S
C2245 H2274 0.950 . S
C2246 N2242 1.383 1_565 S
C2246 C2245 1.439 . S
C2246 C2264 1.392 . S
N2247 Co2231 2.282 . S
N2247 C2250 1.332 1_545 S
N2247 C2252 1.332 . S
C2248 C2249 1.386 . S
C2248 C2251 1.388 . S
C2249 C2248 1.386 . S
C2249 C2250 1.382 . S
C2249 H2275 0.950 . S
C2250 N2247 1.332 1_565 S
C2250 C2249 1.382 . S
C2250 H2261 0.952 . S
C2251 C2248 1.388 . S
C2251 C2252 1.382 1_565 S
C2251 H2276 0.950 . S
C2252 N2247 1.332 . S
C2252 C2251 1.382 1_545 S
C2252 H2262 0.948 . S
N2253 Co2231 2.282 . S
N2253 C2257 1.332 . S
N2253 C2258 1.332 . S
C2254 C2255 1.388 . S
C2254 C2258 1.382 . S
C2254 H2277 0.950 . S
C2255 C2254 1.388 . S
C2255 C2256 1.386 . S
C2256 C2255 1.386 . S
C2256 C2257 1.382 . S
C2256 H2278 0.950 . S
C2257 N2253 1.332 . S
C2257 C2256 1.382 . S
C2257 H2259 0.952 . S
C2258 N2253 1.332 . S
C2258 C2254 1.382 . S
C2258 H2260 0.948 . S
H2259 C2257 0.952 . S
H2260 C2258 0.948 . S
H2261 C2250 0.952 . S
H2262 C2252 0.948 . S
C2263 C2229 1.395 . S
C2263 C2233 1.391 . S
C2264 C2226 1.386 1_565 S
C2264 C2246 1.392 . S
C2265 C2236 1.392 . S
C2265 C2238 1.389 . S
C2266 C2241 1.395 . S
C2266 C2243 1.391 . S
H2267 C2227 0.986 . S
H2268 C2228 0.950 . S
H2269 C2234 0.949 . S
H2270 C2235 0.950 . S
H2271 C2239 0.951 . S
H2272 C2240 0.950 . S
H2273 C2244 0.949 . S
H2274 C2245 0.950 . S
H2275 C2249 0.950 . S
H2276 C2251 0.950 . S
H2277 C2254 0.950 . S
H2278 C2256 0.950 . S
C2279 C2280 1.443 . S
C2279 N2283 1.376 . S
C2279 C2317 1.389 . S
C2280 C2279 1.443 . S
C2280 C2281 1.340 . S
C2280 H2320 0.951 . S
C2281 C2280 1.340 . S
C2281 C2282 1.439 . S
C2281 H2321 0.950 . S
C2282 C2281 1.439 . S
C2282 N2283 1.374 . S
C2282 C2316 1.395 . S
N2283 C2279 1.376 . S
N2283 C2282 1.374 . S
N2283 Co2284 2.008 . S
Co2284 N2283 2.008 . S
Co2284 N2285 1.995 . S
Co2284 N2290 2.008 . S
Co2284 N2295 1.995 . S
Co2284 N2300 2.282 . S
Co2284 N2306 2.282 . S
N2285 Co2284 1.995 . S
N2285 C2286 1.376 . S
N2285 C2289 1.383 . S
C2286 N2285 1.376 . S
C2286 C2287 1.446 . S
C2286 C2316 1.391 . S
C2287 C2286 1.446 . S
C2287 C2288 1.339 . S
C2287 H2322 0.949 . S
C2288 C2287 1.339 . S
C2288 C2289 1.439 . S
C2288 H2323 0.950 . S
C2289 N2285 1.383 . S
C2289 C2288 1.439 . S
C2289 C2318 1.392 . S
N2290 Co2284 2.008 . S
N2290 C2291 1.376 . S
N2290 C2294 1.374 . S
C2291 N2290 1.376 . S
C2291 C2292 1.443 . S
C2291 C2318 1.389 . S
C2292 C2291 1.443 . S
C2292 C2293 1.340 . S
C2292 H2324 0.951 . S
C2293 C2292 1.340 . S
C2293 C2294 1.439 . S
C2293 H2325 0.950 . S
C2294 N2290 1.374 . S
C2294 C2293 1.439 . S
C2294 C2319 1.395 . S
N2295 Co2284 1.995 . S
N2295 C2296 1.376 . S
N2295 C2299 1.383 . S
C2296 N2295 1.376 . S
C2296 C2297 1.446 . S
C2296 C2319 1.391 . S
C2297 C2296 1.446 . S
C2297 C2298 1.339 . S
C2297 H2326 0.949 . S
C2298 C2297 1.339 . S
C2298 C2299 1.439 . S
C2298 H2327 0.950 . S
C2299 N2295 1.383 . S
C2299 C2298 1.439 . S
C2299 C2317 1.392 . S
N2300 Co2284 2.282 . S
N2300 C2303 1.332 . S
N2300 C2305 1.332 . S
C2301 C2302 1.386 . S
C2301 C2304 1.388 . S
C2302 C2301 1.386 . S
C2302 C2303 1.382 . S
C2302 H2328 0.950 . S
C2303 N2300 1.332 . S
C2303 C2302 1.382 . S
C2303 H2314 0.952 . S
C2304 C2301 1.388 . S
C2304 C2305 1.382 . S
C2304 H2329 0.950 . S
C2305 N2300 1.332 . S
C2305 C2304 1.382 . S
C2305 H2315 0.948 . S
N2306 Co2284 2.282 . S
N2306 C2310 1.332 . S
N2306 C2311 1.332 . S
C2307 C2308 1.388 . S
C2307 C2311 1.382 . S
C2307 H2330 0.950 . S
C2308 C2307 1.388 . S
C2308 C2309 1.386 . S
C2309 C2308 1.386 . S
C2309 C2310 1.382 . S
C2309 H2331 0.950 . S
C2310 N2306 1.332 . S
C2310 C2309 1.382 . S
C2310 H2312 0.952 . S
C2311 N2306 1.332 . S
C2311 C2307 1.382 . S
C2311 H2313 0.948 . S
H2312 C2310 0.952 . S
H2313 C2311 0.948 . S
H2314 C2303 0.952 . S
H2315 C2305 0.948 . S
C2316 C2282 1.395 . S
C2316 C2286 1.391 . S
C2317 C2279 1.389 . S
C2317 C2299 1.392 . S
C2318 C2289 1.392 . S
C2318 C2291 1.389 . S
C2319 C2294 1.395 . S
C2319 C2296 1.391 . S
H2320 C2280 0.951 . S
H2321 C2281 0.950 . S
H2322 C2287 0.949 . S
H2323 C2288 0.950 . S
H2324 C2292 0.951 . S
H2325 C2293 0.950 . S
H2326 C2297 0.949 . S
H2327 C2298 0.950 . S
H2328 C2302 0.950 . S
H2329 C2304 0.950 . S
H2330 C2307 0.950 . S
H2331 C2309 0.950 . S
C2332 C2333 1.443 . S
C2332 N2336 1.376 . S
C2332 C2370 1.389 . S
C2333 C2332 1.443 . S
C2333 C2334 1.340 . S
C2333 H2373 0.951 . S
C2334 C2333 1.340 . S
C2334 C2335 1.439 . S
C2334 H2374 0.950 . S
C2335 C2334 1.439 . S
C2335 N2336 1.374 . S
C2335 C2369 1.395 . S
N2336 C2332 1.376 . S
N2336 C2335 1.374 . S
N2336 Co2337 2.008 . S
Co2337 N2336 2.008 . S
Co2337 N2338 1.995 . S
Co2337 N2343 2.008 . S
Co2337 N2348 1.995 . S
Co2337 N2353 2.282 . S
Co2337 N2359 2.282 . S
N2338 Co2337 1.995 . S
N2338 C2339 1.376 . S
N2338 C2342 1.383 . S
C2339 N2338 1.376 . S
C2339 C2340 1.446 . S
C2339 C2369 1.391 . S
C2340 C2339 1.446 . S
C2340 C2341 1.339 . S
C2340 H2375 0.949 . S
C2341 C2340 1.339 . S
C2341 C2342 1.439 . S
C2341 H2376 0.950 . S
C2342 N2338 1.383 . S
C2342 C2341 1.439 . S
C2342 C2371 1.392 . S
N2343 Co2337 2.008 . S
N2343 C2344 1.376 . S
N2343 C2347 1.374 . S
C2344 N2343 1.376 . S
C2344 C2345 1.443 . S
C2344 C2371 1.389 . S
C2345 C2344 1.443 . S
C2345 C2346 1.340 . S
C2345 H2377 0.951 . S
C2346 C2345 1.340 . S
C2346 C2347 1.439 . S
C2346 H2378 0.950 . S
C2347 N2343 1.374 . S
C2347 C2346 1.439 . S
C2347 C2372 1.395 . S
N2348 Co2337 1.995 . S
N2348 C2349 1.376 . S
N2348 C2352 1.383 . S
C2349 N2348 1.376 . S
C2349 C2350 1.446 . S
C2349 C2372 1.391 . S
C2350 C2349 1.446 . S
C2350 C2351 1.339 . S
C2350 H2379 0.949 . S
C2351 C2350 1.339 . S
C2351 C2352 1.439 . S
C2351 H2380 0.950 . S
C2352 N2348 1.383 . S
C2352 C2351 1.439 . S
C2352 C2370 1.392 . S
N2353 Co2337 2.282 . S
N2353 C2356 1.332 . S
N2353 C2358 1.332 . S
C2354 C2355 1.386 . S
C2354 C2357 1.388 . S
C2355 C2354 1.386 . S
C2355 C2356 1.382 . S
C2355 H2381 0.950 . S
C2356 N2353 1.332 . S
C2356 C2355 1.382 . S
C2356 H2367 0.952 . S
C2357 C2354 1.388 . S
C2357 C2358 1.382 . S
C2357 H2382 0.950 . S
C2358 N2353 1.332 . S
C2358 C2357 1.382 . S
C2358 H2368 0.948 . S
N2359 Co2337 2.282 . S
N2359 C2363 1.332 . S
N2359 C2364 1.332 . S
C2360 C2361 1.388 . S
C2360 C2364 1.382 . S
C2360 H2383 0.950 . S
C2361 C2360 1.388 . S
C2361 C2362 1.386 . S
C2362 C2361 1.386 . S
C2362 C2363 1.382 . S
C2362 H2384 0.950 . S
C2363 N2359 1.332 . S
C2363 C2362 1.382 . S
C2363 H2365 0.952 . S
C2364 N2359 1.332 . S
C2364 C2360 1.382 . S
C2364 H2366 0.948 . S
H2365 C2363 0.952 . S
H2366 C2364 0.948 . S
H2367 C2356 0.952 . S
H2368 C2358 0.948 . S
C2369 C2335 1.395 . S
C2369 C2339 1.391 . S
C2370 C2332 1.389 . S
C2370 C2352 1.392 . S
C2371 C2342 1.392 . S
C2371 C2344 1.389 . S
C2372 C2347 1.395 . S
C2372 C2349 1.391 . S
H2373 C2333 0.951 . S
H2374 C2334 0.950 . S
H2375 C2340 0.949 . S
H2376 C2341 0.950 . S
H2377 C2345 0.951 . S
H2378 C2346 0.950 . S
H2379 C2350 0.949 . S
H2380 C2351 0.950 . S
H2381 C2355 0.950 . S
H2382 C2357 0.950 . S
H2383 C2360 0.950 . S
H2384 C2362 0.950 . S
C2385 C2386 1.443 . S
C2385 N2389 1.376 . S
C2385 C2423 1.389 . S
C2386 C2385 1.443 . S
C2386 C2387 1.340 . S
C2386 H2426 0.951 . S
C2387 C2386 1.340 . S
C2387 C2388 1.439 . S
C2387 H2427 0.950 . S
C2388 C2387 1.439 . S
C2388 N2389 1.374 . S
C2388 C2422 1.395 . S
N2389 C2385 1.376 . S
N2389 C2388 1.374 . S
N2389 Co2390 2.008 . S
Co2390 N2389 2.008 . S
Co2390 N2391 1.995 . S
Co2390 N2396 2.008 . S
Co2390 N2401 1.995 . S
Co2390 N2406 2.282 . S
Co2390 N2412 2.282 . S
N2391 Co2390 1.995 . S
N2391 C2392 1.376 . S
N2391 C2395 1.383 . S
C2392 N2391 1.376 . S
C2392 C2393 1.446 . S
C2392 C2422 1.391 . S
C2393 C2392 1.446 . S
C2393 C2394 1.339 . S
C2393 H2428 0.949 . S
C2394 C2393 1.339 . S
C2394 C2395 1.439 . S
C2394 H2429 0.950 . S
C2395 N2391 1.383 . S
C2395 C2394 1.439 . S
C2395 C2424 1.392 . S
N2396 Co2390 2.008 . S
N2396 C2397 1.376 . S
N2396 C2400 1.374 . S
C2397 N2396 1.376 . S
C2397 C2398 1.443 . S
C2397 C2424 1.389 . S
C2398 C2397 1.443 . S
C2398 C2399 1.340 . S
C2398 H2430 0.951 . S
C2399 C2398 1.340 . S
C2399 C2400 1.439 . S
C2399 H2431 0.950 . S
C2400 N2396 1.374 . S
C2400 C2399 1.439 . S
C2400 C2425 1.395 . S
N2401 Co2390 1.995 . S
N2401 C2402 1.376 . S
N2401 C2405 1.383 . S
C2402 N2401 1.376 . S
C2402 C2403 1.446 . S
C2402 C2425 1.391 . S
C2403 C2402 1.446 . S
C2403 C2404 1.339 . S
C2403 H2432 0.949 . S
C2404 C2403 1.339 . S
C2404 C2405 1.439 . S
C2404 H2433 0.950 . S
C2405 N2401 1.383 . S
C2405 C2404 1.439 . S
C2405 C2423 1.392 . S
N2406 Co2390 2.282 . S
N2406 C2409 1.332 . S
N2406 C2411 1.332 . S
C2407 C2408 1.386 . S
C2407 C2410 1.388 . S
C2408 C2407 1.386 . S
C2408 C2409 1.382 . S
C2408 H2434 0.950 . S
C2409 N2406 1.332 . S
C2409 C2408 1.382 . S
C2409 H2420 0.952 . S
C2410 C2407 1.388 . S
C2410 C2411 1.382 . S
C2410 H2435 0.950 . S
C2411 N2406 1.332 . S
C2411 C2410 1.382 . S
C2411 H2421 0.948 . S
N2412 Co2390 2.282 . S
N2412 C2416 1.332 . S
N2412 C2417 1.332 . S
C2413 C2414 1.388 . S
C2413 C2417 1.382 . S
C2413 H2436 0.950 . S
C2414 C2413 1.388 . S
C2414 C2415 1.386 . S
C2415 C2414 1.386 . S
C2415 C2416 1.382 . S
C2415 H2437 0.950 . S
C2416 N2412 1.332 . S
C2416 C2415 1.382 . S
C2416 H2418 0.952 . S
C2417 N2412 1.332 . S
C2417 C2413 1.382 . S
C2417 H2419 0.948 . S
H2418 C2416 0.952 . S
H2419 C2417 0.948 . S
H2420 C2409 0.952 . S
H2421 C2411 0.948 . S
C2422 C2388 1.395 . S
C2422 C2392 1.391 . S
C2423 C2385 1.389 . S
C2423 C2405 1.392 . S
C2424 C2395 1.392 . S
C2424 C2397 1.389 . S
C2425 C2400 1.395 . S
C2425 C2402 1.391 . S
H2426 C2386 0.951 . S
H2427 C2387 0.950 . S
H2428 C2393 0.949 . S
H2429 C2394 0.950 . S
H2430 C2398 0.951 . S
H2431 C2399 0.950 . S
H2432 C2403 0.949 . S
H2433 C2404 0.950 . S
H2434 C2408 0.950 . S
H2435 C2410 0.950 . S
H2436 C2413 0.950 . S
H2437 C2415 0.950 . S
C2438 C2439 1.441 1_566 S
C2438 N2442 1.380 . S
C2438 C2476 1.386 1_565 S
C2439 C2438 1.441 1_544 S
C2439 C2440 1.305 1_545 S
C2439 H2479 0.986 . S
C2440 C2439 1.305 1_565 S
C2440 C2441 1.439 1_554 S
C2440 H2480 0.950 . S
C2441 C2440 1.439 1_556 S
C2441 N2442 1.374 . S
C2441 C2475 1.395 . S
N2442 C2438 1.380 . S
N2442 C2441 1.374 . S
N2442 Co2443 2.008 . S
Co2443 N2442 2.008 . S
Co2443 N2444 1.995 . S
Co2443 N2449 2.008 . S
Co2443 N2454 1.995 . S
Co2443 N2459 2.282 . S
Co2443 N2465 2.282 . S
N2444 Co2443 1.995 . S
N2444 C2445 1.376 . S
N2444 C2448 1.383 . S
C2445 N2444 1.376 . S
C2445 C2446 1.446 . S
C2445 C2475 1.391 . S
C2446 C2445 1.446 . S
C2446 C2447 1.339 . S
C2446 H2481 0.949 . S
C2447 C2446 1.339 . S
C2447 C2448 1.439 . S
C2447 H2482 0.950 . S
C2448 N2444 1.383 . S
C2448 C2447 1.439 . S
C2448 C2477 1.392 . S
N2449 Co2443 2.008 . S
N2449 C2450 1.376 . S
N2449 C2453 1.374 . S
C2450 N2449 1.376 . S
C2450 C2451 1.443 . S
C2450 C2477 1.389 . S
C2451 C2450 1.443 . S
C2451 C2452 1.340 . S
C2451 H2483 0.951 . S
C2452 C2451 1.340 . S
C2452 C2453 1.439 . S
C2452 H2484 0.950 . S
C2453 N2449 1.374 . S
C2453 C2452 1.439 . S
C2453 C2478 1.395 . S
N2454 Co2443 1.995 . S
N2454 C2455 1.376 . S
N2454 C2458 1.383 1_565 S
C2455 N2454 1.376 . S
C2455 C2456 1.446 1_565 S
C2455 C2478 1.391 . S
C2456 C2455 1.446 1_545 S
C2456 C2457 1.339 . S
C2456 H2485 0.949 . S
C2457 C2456 1.339 . S
C2457 C2458 1.439 . S
C2457 H2486 0.950 . S
C2458 N2454 1.383 1_545 S
C2458 C2457 1.439 . S
C2458 C2476 1.392 . S
N2459 Co2443 2.282 . S
N2459 C2462 1.332 1_565 S
N2459 C2464 1.332 . S
C2460 C2461 1.386 . S
C2460 C2463 1.388 . S
C2461 C2460 1.386 . S
C2461 C2462 1.382 . S
C2461 H2487 0.950 . S
C2462 N2459 1.332 1_545 S
C2462 C2461 1.382 . S
C2462 H2473 0.952 . S
C2463 C2460 1.388 . S
C2463 C2464 1.382 1_545 S
C2463 H2488 0.950 . S
C2464 N2459 1.332 . S
C2464 C2463 1.382 1_565 S
C2464 H2474 0.948 . S
N2465 Co2443 2.282 . S
N2465 C2469 1.332 . S
N2465 C2470 1.332 . S
C2466 C2467 1.388 . S
C2466 C2470 1.382 . S
C2466 H2489 0.950 . S
C2467 C2466 1.388 . S
C2467 C2468 1.386 . S
C2468 C2467 1.386 . S
C2468 C2469 1.382 . S
C2468 H2490 0.950 1_556 S
C2469 N2465 1.332 . S
C2469 C2468 1.382 . S
C2469 H2471 0.952 . S
C2470 N2465 1.332 . S
C2470 C2466 1.382 . S
C2470 H2472 0.948 . S
H2471 C2469 0.952 . S
H2472 C2470 0.948 . S
H2473 C2462 0.952 . S
H2474 C2464 0.948 . S
C2475 C2441 1.395 . S
C2475 C2445 1.391 . S
C2476 C2438 1.386 1_545 S
C2476 C2458 1.392 . S
C2477 C2448 1.392 . S
C2477 C2450 1.389 . S
C2478 C2453 1.395 . S
C2478 C2455 1.391 . S
H2479 C2439 0.986 . S
H2480 C2440 0.950 . S
H2481 C2446 0.949 . S
H2482 C2447 0.950 . S
H2483 C2451 0.951 . S
H2484 C2452 0.950 . S
H2485 C2456 0.949 . S
H2486 C2457 0.950 . S
H2487 C2461 0.950 . S
H2488 C2463 0.950 . S
H2489 C2466 0.950 . S
H2490 C2468 0.950 1_554 S
C2491 C2492 1.441 1_545 S
C2491 N2495 1.380 . S
C2491 C2529 1.386 1_545 S
C2492 C2491 1.441 1_565 S
C2492 C2493 1.305 1_565 S
C2492 H2532 0.985 . S
C2493 C2492 1.305 1_545 S
C2493 C2494 1.439 . S
C2493 H2533 0.950 . S
C2494 C2493 1.439 . S
C2494 N2495 1.374 . S
C2494 C2528 1.395 . S
N2495 C2491 1.380 . S
N2495 C2494 1.374 . S
N2495 Co2496 2.008 . S
Co2496 N2495 2.008 . S
Co2496 N2497 1.995 . S
Co2496 N2502 2.008 . S
Co2496 N2507 1.995 . S
Co2496 N2512 2.282 . S
Co2496 N2518 2.282 . S
N2497 Co2496 1.995 . S
N2497 C2498 1.376 . S
N2497 C2501 1.383 . S
C2498 N2497 1.376 . S
C2498 C2499 1.446 . S
C2498 C2528 1.391 . S
C2499 C2498 1.446 . S
C2499 C2500 1.339 . S
C2499 H2534 0.949 . S
C2500 C2499 1.339 . S
C2500 C2501 1.439 . S
C2500 H2535 0.950 . S
C2501 N2497 1.383 . S
C2501 C2500 1.439 . S
C2501 C2530 1.392 . S
N2502 Co2496 2.008 . S
N2502 C2503 1.376 . S
N2502 C2506 1.374 . S
C2503 N2502 1.376 . S
C2503 C2504 1.443 . S
C2503 C2530 1.389 . S
C2504 C2503 1.443 . S
C2504 C2505 1.340 . S
C2504 H2536 0.951 . S
C2505 C2504 1.340 . S
C2505 C2506 1.439 . S
C2505 H2537 0.950 . S
C2506 N2502 1.374 . S
C2506 C2505 1.439 . S
C2506 C2531 1.395 . S
N2507 Co2496 1.995 . S
N2507 C2508 1.376 . S
N2507 C2511 1.383 1_545 S
C2508 N2507 1.376 . S
C2508 C2509 1.446 1_545 S
C2508 C2531 1.391 . S
C2509 C2508 1.446 1_565 S
C2509 C2510 1.339 . S
C2509 H2538 0.949 . S
C2510 C2509 1.339 . S
C2510 C2511 1.439 . S
C2510 H2539 0.950 . S
C2511 N2507 1.383 1_565 S
C2511 C2510 1.439 . S
C2511 C2529 1.392 . S
N2512 Co2496 2.282 . S
N2512 C2515 1.332 1_545 S
N2512 C2517 1.332 . S
C2513 C2514 1.386 . S
C2513 C2516 1.388 . S
C2514 C2513 1.386 . S
C2514 C2515 1.382 . S
C2514 H2540 0.950 . S
C2515 N2512 1.332 1_565 S
C2515 C2514 1.382 . S
C2515 H2526 0.952 . S
C2516 C2513 1.388 . S
C2516 C2517 1.382 1_565 S
C2516 H2541 0.950 . S
C2517 N2512 1.332 . S
C2517 C2516 1.382 1_545 S
C2517 H2527 0.948 . S
N2518 Co2496 2.282 . S
N2518 C2522 1.332 . S
N2518 C2523 1.332 . S
C2519 C2520 1.388 . S
C2519 C2523 1.382 . S
C2519 H2542 0.950 . S
C2520 C2519 1.388 . S
C2520 C2521 1.386 . S
C2521 C2520 1.386 . S
C2521 C2522 1.382 . S
C2521 H2543 0.950 . S
C2522 N2518 1.332 . S
C2522 C2521 1.382 . S
C2522 H2524 0.952 . S
C2523 N2518 1.332 . S
C2523 C2519 1.382 . S
C2523 H2525 0.948 . S
H2524 C2522 0.952 . S
H2525 C2523 0.948 . S
H2526 C2515 0.952 . S
H2527 C2517 0.948 . S
C2528 C2494 1.395 . S
C2528 C2498 1.391 . S
C2529 C2491 1.386 1_565 S
C2529 C2511 1.392 . S
C2530 C2501 1.392 . S
C2530 C2503 1.389 . S
C2531 C2506 1.395 . S
C2531 C2508 1.391 . S
H2532 C2492 0.985 . S
H2533 C2493 0.950 . S
H2534 C2499 0.949 . S
H2535 C2500 0.950 . S
H2536 C2504 0.951 . S
H2537 C2505 0.950 . S
H2538 C2509 0.949 . S
H2539 C2510 0.950 . S
H2540 C2514 0.950 . S
H2541 C2516 0.950 . S
H2542 C2519 0.950 . S
H2543 C2521 0.950 . S
H2544 C2550 0.930 . S
H2545 C2553 0.930 . S
H2546 C2554 0.930 . S
H2547 C2555 0.930 . S
H2548 C2558 0.930 . S
H2549 C2559 0.930 . S
C2550 H2544 0.930 . S
C2550 C2551 1.355 . S
C2550 C2552 1.415 . S
C2551 C2550 1.355 . S
C2551 C2553 1.419 . S
C2552 C2550 1.415 . S
C2552 C2557 1.425 . S
C2552 C2559 1.409 . S
C2553 H2545 0.930 . S
C2553 C2551 1.419 . S
C2553 C2554 1.362 . S
C2554 H2546 0.930 . S
C2554 C2553 1.362 . S
C2554 C2557 1.409 . S
C2555 H2547 0.930 . S
C2555 C2556 1.355 . S
C2555 C2557 1.415 . S
C2556 C2555 1.355 . S
C2556 C2558 1.419 . S
C2557 C2552 1.425 . S
C2557 C2554 1.409 . S
C2557 C2555 1.415 . S
C2558 H2548 0.930 . S
C2558 C2556 1.419 . S
C2558 C2559 1.362 . S
C2559 H2549 0.930 . S
C2559 C2552 1.409 . S
C2559 C2558 1.362 . S
H2560 C2566 0.930 . S
H2561 C2569 0.930 . S
H2562 C2570 0.930 . S
H2563 C2571 0.930 . S
H2564 C2574 0.930 . S
H2565 C2575 0.930 . S
C2566 H2560 0.930 . S
C2566 C2567 1.355 . S
C2566 C2568 1.415 . S
C2567 C2566 1.355 . S
C2567 C2569 1.419 . S
C2568 C2566 1.415 . S
C2568 C2573 1.425 . S
C2568 C2575 1.409 . S
C2569 H2561 0.930 . S
C2569 C2567 1.419 . S
C2569 C2570 1.362 . S
C2570 H2562 0.930 . S
C2570 C2569 1.362 . S
C2570 C2573 1.409 . S
C2571 H2563 0.930 . S
C2571 C2572 1.355 . S
C2571 C2573 1.415 . S
C2572 C2571 1.355 . S
C2572 C2574 1.419 . S
C2573 C2568 1.425 . S
C2573 C2570 1.409 . S
C2573 C2571 1.415 . S
C2574 H2564 0.930 . S
C2574 C2572 1.419 . S
C2574 C2575 1.362 . S
C2575 H2565 0.930 . S
C2575 C2568 1.409 . S
C2575 C2574 1.362 . S
H2576 C2582 0.931 . S
H2577 C2585 0.930 . S
H2578 C2586 0.930 . S
H2579 C2587 0.930 . S
H2580 C2590 0.930 . S
H2581 C2591 0.930 . S
C2582 H2576 0.931 . S
C2582 C2583 1.364 . S
C2582 C2584 1.404 1_554 S
C2583 C2582 1.364 . S
C2583 C2585 1.419 . S
C2584 C2582 1.404 1_556 S
C2584 C2589 1.425 . S
C2584 C2591 1.409 . S
C2585 H2577 0.930 . S
C2585 C2583 1.419 . S
C2585 C2586 1.362 1_554 S
C2586 H2578 0.930 . S
C2586 C2585 1.362 1_556 S
C2586 C2589 1.409 . S
C2587 H2579 0.930 . S
C2587 C2588 1.355 . S
C2587 C2589 1.415 . S
C2588 C2587 1.355 . S
C2588 C2590 1.419 . S
C2589 C2584 1.425 . S
C2589 C2586 1.409 . S
C2589 C2587 1.415 . S
C2590 H2580 0.930 . S
C2590 C2588 1.419 . S
C2590 C2591 1.362 . S
C2591 H2581 0.930 . S
C2591 C2584 1.409 . S
C2591 C2590 1.362 . S
H2592 C2598 0.930 . S
H2593 C2601 0.930 . S
H2594 C2602 0.930 . S
H2595 C2603 0.930 . S
H2596 C2606 0.930 . S
H2597 C2607 0.930 . S
C2598 H2592 0.930 . S
C2598 C2599 1.355 . S
C2598 C2600 1.415 . S
C2599 C2598 1.355 . S
C2599 C2601 1.419 . S
C2600 C2598 1.415 . S
C2600 C2605 1.425 . S
C2600 C2607 1.409 . S
C2601 H2593 0.930 . S
C2601 C2599 1.419 . S
C2601 C2602 1.362 . S
C2602 H2594 0.930 . S
C2602 C2601 1.362 . S
C2602 C2605 1.409 . S
C2603 H2595 0.930 . S
C2603 C2604 1.355 . S
C2603 C2605 1.415 . S
C2604 C2603 1.355 . S
C2604 C2606 1.419 . S
C2605 C2600 1.425 . S
C2605 C2602 1.409 . S
C2605 C2603 1.415 . S
C2606 H2596 0.930 . S
C2606 C2604 1.419 . S
C2606 C2607 1.362 . S
C2607 H2597 0.930 . S
C2607 C2600 1.409 . S
C2607 C2606 1.362 . S
H2608 C2614 0.930 . S
H2609 C2617 0.930 . S
H2610 C2618 0.930 . S
H2611 C2619 0.930 . S
H2612 C2622 0.930 . S
H2613 C2623 0.930 . S
C2614 H2608 0.930 . S
C2614 C2615 1.355 . S
C2614 C2616 1.415 . S
C2615 C2614 1.355 . S
C2615 C2617 1.419 . S
C2616 C2614 1.415 . S
C2616 C2621 1.425 . S
C2616 C2623 1.409 1_554 S
C2617 H2609 0.930 . S
C2617 C2615 1.419 . S
C2617 C2618 1.362 . S
C2618 H2610 0.930 . S
C2618 C2617 1.362 . S
C2618 C2621 1.409 . S
C2619 H2611 0.930 . S
C2619 C2620 1.355 1_554 S
C2619 C2621 1.415 . S
C2620 C2619 1.355 1_556 S
C2620 C2622 1.419 . S
C2621 C2616 1.425 . S
C2621 C2618 1.409 . S
C2621 C2619 1.415 . S
C2622 H2612 0.930 . S
C2622 C2620 1.419 . S
C2622 C2623 1.362 . S
C2623 H2613 0.930 . S
C2623 C2616 1.409 1_556 S
C2623 C2622 1.362 . S
H2624 C2630 0.930 . S
H2625 C2633 0.930 . S
H2626 C2634 0.930 . S
H2627 C2635 0.930 . S
H2628 C2638 0.930 . S
H2629 C2639 0.930 . S
C2630 H2624 0.930 . S
C2630 C2631 1.355 . S
C2630 C2632 1.415 . S
C2631 C2630 1.355 . S
C2631 C2633 1.419 . S
C2632 C2630 1.415 . S
C2632 C2637 1.425 . S
C2632 C2639 1.409 . S
C2633 H2625 0.930 . S
C2633 C2631 1.419 . S
C2633 C2634 1.362 . S
C2634 H2626 0.930 . S
C2634 C2633 1.362 . S
C2634 C2637 1.409 . S
C2635 H2627 0.930 . S
C2635 C2636 1.355 . S
C2635 C2637 1.415 . S
C2636 C2635 1.355 . S
C2636 C2638 1.419 . S
C2637 C2632 1.425 . S
C2637 C2634 1.409 . S
C2637 C2635 1.415 . S
C2638 H2628 0.930 . S
C2638 C2636 1.419 . S
C2638 C2639 1.362 . S
C2639 H2629 0.930 . S
C2639 C2632 1.409 . S
C2639 C2638 1.362 . S
H2640 C2646 0.930 . S
H2641 C2649 0.930 . S
H2642 C2650 0.930 . S
H2643 C2651 0.930 . S
H2644 C2654 0.930 . S
H2645 C2655 0.930 . S
C2646 H2640 0.930 . S
C2646 C2647 1.355 . S
C2646 C2648 1.415 . S
C2647 C2646 1.355 . S
C2647 C2649 1.419 . S
C2648 C2646 1.415 . S
C2648 C2653 1.425 . S
C2648 C2655 1.409 . S
C2649 H2641 0.930 . S
C2649 C2647 1.419 . S
C2649 C2650 1.362 . S
C2650 H2642 0.930 . S
C2650 C2649 1.362 . S
C2650 C2653 1.409 . S
C2651 H2643 0.930 . S
C2651 C2652 1.355 . S
C2651 C2653 1.415 . S
C2652 C2651 1.355 . S
C2652 C2654 1.419 . S
C2653 C2648 1.425 . S
C2653 C2650 1.409 . S
C2653 C2651 1.415 . S
C2654 H2644 0.930 . S
C2654 C2652 1.419 . S
C2654 C2655 1.362 . S
C2655 H2645 0.930 . S
C2655 C2648 1.409 . S
C2655 C2654 1.362 . S
H2656 C2662 0.930 . S
H2657 C2665 0.930 . S
H2658 C2666 0.930 . S
H2659 C2667 0.930 . S
H2660 C2670 0.930 . S
H2661 C2671 0.930 . S
C2662 H2656 0.930 . S
C2662 C2663 1.355 . S
C2662 C2664 1.415 . S
C2663 C2662 1.355 . S
C2663 C2665 1.419 . S
C2664 C2662 1.415 . S
C2664 C2669 1.425 . S
C2664 C2671 1.409 . S
C2665 H2657 0.930 . S
C2665 C2663 1.419 . S
C2665 C2666 1.362 . S
C2666 H2658 0.930 . S
C2666 C2665 1.362 . S
C2666 C2669 1.409 . S
C2667 H2659 0.930 . S
C2667 C2668 1.355 . S
C2667 C2669 1.415 . S
C2668 C2667 1.355 . S
C2668 C2670 1.419 . S
C2669 C2664 1.425 . S
C2669 C2666 1.409 . S
C2669 C2667 1.415 . S
C2670 H2660 0.930 . S
C2670 C2668 1.419 . S
C2670 C2671 1.362 . S
C2671 H2661 0.930 . S
C2671 C2664 1.409 . S
C2671 C2670 1.362 . S
H2672 C2678 0.930 . S
H2673 C2681 0.930 . S
H2674 C2682 0.930 . S
H2675 C2683 0.930 . S
H2676 C2686 0.930 . S
H2677 C2687 0.930 . S
C2678 H2672 0.930 . S
C2678 C2679 1.355 . S
C2678 C2680 1.415 . S
C2679 C2678 1.355 . S
C2679 C2681 1.419 . S
C2680 C2678 1.415 . S
C2680 C2685 1.425 . S
C2680 C2687 1.409 . S
C2681 H2673 0.930 . S
C2681 C2679 1.419 . S
C2681 C2682 1.362 . S
C2682 H2674 0.930 . S
C2682 C2681 1.362 . S
C2682 C2685 1.409 . S
C2683 H2675 0.930 . S
C2683 C2684 1.355 . S
C2683 C2685 1.415 . S
C2684 C2683 1.355 . S
C2684 C2686 1.419 . S
C2685 C2680 1.425 . S
C2685 C2682 1.409 . S
C2685 C2683 1.415 . S
C2686 H2676 0.930 . S
C2686 C2684 1.419 . S
C2686 C2687 1.362 . S
C2687 H2677 0.930 . S
C2687 C2680 1.409 . S
C2687 C2686 1.362 . S
H2688 C2694 0.930 . S
H2689 C2697 0.930 . S
H2690 C2698 0.930 . S
H2691 C2699 0.930 . S
H2692 C2702 0.930 . S
H2693 C2703 0.930 . S
C2694 H2688 0.930 . S
C2694 C2695 1.355 . S
C2694 C2696 1.415 . S
C2695 C2694 1.355 . S
C2695 C2697 1.419 . S
C2696 C2694 1.415 . S
C2696 C2701 1.425 . S
C2696 C2703 1.409 . S
C2697 H2689 0.930 . S
C2697 C2695 1.419 . S
C2697 C2698 1.362 . S
C2698 H2690 0.930 . S
C2698 C2697 1.362 . S
C2698 C2701 1.409 . S
C2699 H2691 0.930 . S
C2699 C2700 1.355 . S
C2699 C2701 1.415 . S
C2700 C2699 1.355 . S
C2700 C2702 1.419 . S
C2701 C2696 1.425 . S
C2701 C2698 1.409 . S
C2701 C2699 1.415 . S
C2702 H2692 0.930 . S
C2702 C2700 1.419 . S
C2702 C2703 1.362 . S
C2703 H2693 0.930 . S
C2703 C2696 1.409 . S
C2703 C2702 1.362 . S
H2704 C2710 0.930 . S
H2705 C2713 0.930 . S
H2706 C2714 0.930 . S
H2707 C2715 0.930 . S
H2708 C2718 0.930 . S
H2709 C2719 0.930 . S
C2710 H2704 0.930 . S
C2710 C2711 1.355 . S
C2710 C2712 1.415 . S
C2711 C2710 1.355 . S
C2711 C2713 1.419 . S
C2712 C2710 1.415 . S
C2712 C2717 1.425 . S
C2712 C2719 1.409 . S
C2713 H2705 0.930 . S
C2713 C2711 1.419 . S
C2713 C2714 1.362 . S
C2714 H2706 0.930 . S
C2714 C2713 1.362 . S
C2714 C2717 1.409 . S
C2715 H2707 0.930 . S
C2715 C2716 1.355 . S
C2715 C2717 1.415 . S
C2716 C2715 1.355 . S
C2716 C2718 1.419 . S
C2717 C2712 1.425 . S
C2717 C2714 1.409 . S
C2717 C2715 1.415 . S
C2718 H2708 0.930 . S
C2718 C2716 1.419 . S
C2718 C2719 1.362 . S
C2719 H2709 0.930 . S
C2719 C2712 1.409 . S
C2719 C2718 1.362 . S
H2720 C2726 0.930 . S
H2721 C2729 0.930 . S
H2722 C2730 0.930 . S
H2723 C2731 0.930 . S
H2724 C2734 0.930 . S
H2725 C2735 0.930 . S
C2726 H2720 0.930 . S
C2726 C2727 1.355 . S
C2726 C2728 1.415 . S
C2727 C2726 1.355 . S
C2727 C2729 1.419 . S
C2728 C2726 1.415 . S
C2728 C2733 1.425 . S
C2728 C2735 1.409 . S
C2729 H2721 0.930 . S
C2729 C2727 1.419 . S
C2729 C2730 1.362 . S
C2730 H2722 0.930 . S
C2730 C2729 1.362 . S
C2730 C2733 1.409 . S
C2731 H2723 0.930 . S
C2731 C2732 1.355 . S
C2731 C2733 1.415 . S
C2732 C2731 1.355 . S
C2732 C2734 1.419 . S
C2733 C2728 1.425 . S
C2733 C2730 1.409 . S
C2733 C2731 1.415 . S
C2734 H2724 0.930 . S
C2734 C2732 1.419 . S
C2734 C2735 1.362 . S
C2735 H2725 0.930 . S
C2735 C2728 1.409 . S
C2735 C2734 1.362 . S
H2736 C2742 0.930 . S
H2737 C2745 0.930 . S
H2738 C2746 0.930 . S
H2739 C2747 0.930 . S
H2740 C2750 0.930 . S
H2741 C2751 0.930 . S
C2742 H2736 0.930 . S
C2742 C2743 1.355 . S
C2742 C2744 1.415 . S
C2743 C2742 1.355 . S
C2743 C2745 1.419 . S
C2744 C2742 1.415 . S
C2744 C2749 1.425 . S
C2744 C2751 1.409 . S
C2745 H2737 0.930 . S
C2745 C2743 1.419 . S
C2745 C2746 1.362 . S
C2746 H2738 0.930 . S
C2746 C2745 1.362 . S
C2746 C2749 1.409 . S
C2747 H2739 0.930 . S
C2747 C2748 1.355 . S
C2747 C2749 1.415 . S
C2748 C2747 1.355 . S
C2748 C2750 1.419 . S
C2749 C2744 1.425 . S
C2749 C2746 1.409 . S
C2749 C2747 1.415 . S
C2750 H2740 0.930 . S
C2750 C2748 1.419 . S
C2750 C2751 1.362 . S
C2751 H2741 0.930 . S
C2751 C2744 1.409 . S
C2751 C2750 1.362 . S
H2752 C2758 0.930 . S
H2753 C2761 0.930 . S
H2754 C2762 0.930 . S
H2755 C2763 0.930 . S
H2756 C2766 0.930 . S
H2757 C2767 0.930 . S
C2758 H2752 0.930 . S
C2758 C2759 1.355 . S
C2758 C2760 1.415 . S
C2759 C2758 1.355 . S
C2759 C2761 1.419 . S
C2760 C2758 1.415 . S
C2760 C2765 1.425 . S
C2760 C2767 1.409 . S
C2761 H2753 0.930 . S
C2761 C2759 1.419 . S
C2761 C2762 1.362 . S
C2762 H2754 0.930 . S
C2762 C2761 1.362 . S
C2762 C2765 1.409 . S
C2763 H2755 0.930 . S
C2763 C2764 1.355 . S
C2763 C2765 1.415 . S
C2764 C2763 1.355 . S
C2764 C2766 1.419 . S
C2765 C2760 1.425 . S
C2765 C2762 1.409 . S
C2765 C2763 1.415 . S
C2766 H2756 0.930 . S
C2766 C2764 1.419 . S
C2766 C2767 1.362 . S
C2767 H2757 0.930 . S
C2767 C2760 1.409 . S
C2767 C2766 1.362 . S
H2768 C2774 0.930 . S
H2769 C2777 0.930 . S
H2770 C2778 0.930 . S
H2771 C2779 0.930 . S
H2772 C2782 0.930 . S
H2773 C2783 0.930 . S
C2774 H2768 0.930 . S
C2774 C2775 1.355 . S
C2774 C2776 1.415 . S
C2775 C2774 1.355 . S
C2775 C2777 1.419 . S
C2776 C2774 1.415 . S
C2776 C2781 1.425 . S
C2776 C2783 1.409 . S
C2777 H2769 0.930 . S
C2777 C2775 1.419 . S
C2777 C2778 1.362 . S
C2778 H2770 0.930 . S
C2778 C2777 1.362 . S
C2778 C2781 1.409 . S
C2779 H2771 0.930 . S
C2779 C2780 1.355 . S
C2779 C2781 1.415 . S
C2780 C2779 1.355 . S
C2780 C2782 1.419 . S
C2781 C2776 1.425 . S
C2781 C2778 1.409 . S
C2781 C2779 1.415 . S
C2782 H2772 0.930 . S
C2782 C2780 1.419 . S
C2782 C2783 1.362 . S
C2783 H2773 0.930 . S
C2783 C2776 1.409 . S
C2783 C2782 1.362 . S
H2784 C2790 0.930 . S
H2785 C2793 0.930 . S
H2786 C2794 0.930 . S
H2787 C2795 0.930 . S
H2788 C2798 0.930 . S
H2789 C2799 0.930 . S
C2790 H2784 0.930 . S
C2790 C2791 1.355 1_556 S
C2790 C2792 1.415 . S
C2791 C2790 1.355 1_554 S
C2791 C2793 1.419 . S
C2792 C2790 1.415 . S
C2792 C2797 1.425 . S
C2792 C2799 1.409 . S
C2793 H2785 0.930 . S
C2793 C2791 1.419 . S
C2793 C2794 1.362 . S
C2794 H2786 0.930 . S
C2794 C2793 1.362 . S
C2794 C2797 1.409 1_554 S
C2795 H2787 0.930 . S
C2795 C2796 1.355 . S
C2795 C2797 1.415 . S
C2796 C2795 1.355 . S
C2796 C2798 1.419 . S
C2797 C2792 1.425 . S
C2797 C2794 1.409 1_556 S
C2797 C2795 1.415 . S
C2798 H2788 0.930 . S
C2798 C2796 1.419 . S
C2798 C2799 1.362 . S
C2799 H2789 0.930 . S
C2799 C2792 1.409 . S
C2799 C2798 1.362 . S
H2800 C2806 0.930 . S
H2801 C2809 0.930 . S
H2802 C2810 0.930 . S
H2803 C2811 0.930 . S
H2804 C2814 0.930 . S
H2805 C2815 0.930 . S
C2806 H2800 0.930 . S
C2806 C2807 1.355 . S
C2806 C2808 1.415 . S
C2807 C2806 1.355 . S
C2807 C2809 1.419 . S
C2808 C2806 1.415 . S
C2808 C2813 1.425 . S
C2808 C2815 1.409 . S
C2809 H2801 0.930 . S
C2809 C2807 1.419 . S
C2809 C2810 1.362 . S
C2810 H2802 0.930 . S
C2810 C2809 1.362 . S
C2810 C2813 1.409 . S
C2811 H2803 0.930 . S
C2811 C2812 1.355 . S
C2811 C2813 1.415 . S
C2812 C2811 1.355 . S
C2812 C2814 1.419 . S
C2813 C2808 1.425 . S
C2813 C2810 1.409 . S
C2813 C2811 1.415 . S
C2814 H2804 0.930 . S
C2814 C2812 1.419 . S
C2814 C2815 1.362 . S
C2815 H2805 0.930 . S
C2815 C2808 1.409 . S
C2815 C2814 1.362 . S
H2816 C2822 0.930 . S
H2817 C2825 0.930 . S
H2818 C2826 0.930 . S
H2819 C2827 0.930 . S
H2820 C2830 0.930 . S
H2821 C2831 0.930 . S
C2822 H2816 0.930 . S
C2822 C2823 1.355 . S
C2822 C2824 1.415 . S
C2823 C2822 1.355 . S
C2823 C2825 1.419 . S
C2824 C2822 1.415 . S
C2824 C2829 1.425 . S
C2824 C2831 1.409 . S
C2825 H2817 0.930 . S
C2825 C2823 1.419 . S
C2825 C2826 1.362 . S
C2826 H2818 0.930 . S
C2826 C2825 1.362 . S
C2826 C2829 1.409 . S
C2827 H2819 0.930 . S
C2827 C2828 1.355 . S
C2827 C2829 1.415 . S
C2828 C2827 1.355 . S
C2828 C2830 1.419 . S
C2829 C2824 1.425 . S
C2829 C2826 1.409 . S
C2829 C2827 1.415 . S
C2830 H2820 0.930 . S
C2830 C2828 1.419 . S
C2830 C2831 1.362 . S
C2831 H2821 0.930 . S
C2831 C2824 1.409 . S
C2831 C2830 1.362 . S
H2832 C2838 0.930 . S
H2833 C2841 0.930 . S
H2834 C2842 0.930 . S
H2835 C2843 0.930 . S
H2836 C2846 0.930 . S
H2837 C2847 0.930 . S
C2838 H2832 0.930 . S
C2838 C2839 1.355 . S
C2838 C2840 1.415 . S
C2839 C2838 1.355 . S
C2839 C2841 1.419 . S
C2840 C2838 1.415 . S
C2840 C2845 1.425 . S
C2840 C2847 1.409 . S
C2841 H2833 0.930 . S
C2841 C2839 1.419 . S
C2841 C2842 1.362 . S
C2842 H2834 0.930 . S
C2842 C2841 1.362 . S
C2842 C2845 1.409 . S
C2843 H2835 0.930 . S
C2843 C2844 1.355 . S
C2843 C2845 1.415 . S
C2844 C2843 1.355 . S
C2844 C2846 1.419 . S
C2845 C2840 1.425 . S
C2845 C2842 1.409 . S
C2845 C2843 1.415 . S
C2846 H2836 0.930 . S
C2846 C2844 1.419 . S
C2846 C2847 1.362 . S
C2847 H2837 0.930 . S
C2847 C2840 1.409 . S
C2847 C2846 1.362 . S
H2848 C2854 0.930 . S
H2849 C2857 0.930 . S
H2850 C2858 0.930 . S
H2851 C2859 0.930 . S
H2852 C2862 0.930 . S
H2853 C2863 0.930 . S
C2854 H2848 0.930 . S
C2854 C2855 1.355 . S
C2854 C2856 1.415 . S
C2855 C2854 1.355 . S
C2855 C2857 1.419 . S
C2856 C2854 1.415 . S
C2856 C2861 1.425 . S
C2856 C2863 1.409 . S
C2857 H2849 0.930 . S
C2857 C2855 1.419 . S
C2857 C2858 1.362 . S
C2858 H2850 0.930 . S
C2858 C2857 1.362 . S
C2858 C2861 1.409 . S
C2859 H2851 0.930 . S
C2859 C2860 1.355 . S
C2859 C2861 1.415 . S
C2860 C2859 1.355 . S
C2860 C2862 1.419 . S
C2861 C2856 1.425 . S
C2861 C2858 1.409 . S
C2861 C2859 1.415 . S
C2862 H2852 0.930 . S
C2862 C2860 1.419 . S
C2862 C2863 1.362 . S
C2863 H2853 0.930 . S
C2863 C2856 1.409 . S
C2863 C2862 1.362 . S
H2864 C2870 0.930 . S
H2865 C2873 0.930 . S
H2866 C2874 0.930 . S
H2867 C2875 0.930 . S
H2868 C2878 0.930 . S
H2869 C2879 0.930 . S
C2870 H2864 0.930 . S
C2870 C2871 1.355 . S
C2870 C2872 1.415 . S
C2871 C2870 1.355 . S
C2871 C2873 1.419 . S
C2872 C2870 1.415 . S
C2872 C2877 1.425 . S
C2872 C2879 1.409 . S
C2873 H2865 0.930 . S
C2873 C2871 1.419 . S
C2873 C2874 1.362 . S
C2874 H2866 0.930 . S
C2874 C2873 1.362 . S
C2874 C2877 1.409 . S
C2875 H2867 0.930 . S
C2875 C2876 1.355 . S
C2875 C2877 1.415 . S
C2876 C2875 1.355 . S
C2876 C2878 1.419 . S
C2877 C2872 1.425 . S
C2877 C2874 1.409 . S
C2877 C2875 1.415 . S
C2878 H2868 0.930 . S
C2878 C2876 1.419 . S
C2878 C2879 1.362 . S
C2879 H2869 0.930 . S
C2879 C2872 1.409 . S
C2879 C2878 1.362 . S
H2880 C2886 0.930 . S
H2881 C2889 0.930 . S
H2882 C2890 0.930 . S
H2883 C2891 0.930 . S
H2884 C2894 0.930 . S
H2885 C2895 0.930 . S
C2886 H2880 0.930 . S
C2886 C2887 1.355 . S
C2886 C2888 1.415 . S
C2887 C2886 1.355 . S
C2887 C2889 1.419 . S
C2888 C2886 1.415 . S
C2888 C2893 1.425 . S
C2888 C2895 1.409 . S
C2889 H2881 0.930 . S
C2889 C2887 1.419 . S
C2889 C2890 1.362 . S
C2890 H2882 0.930 . S
C2890 C2889 1.362 . S
C2890 C2893 1.409 . S
C2891 H2883 0.930 . S
C2891 C2892 1.355 . S
C2891 C2893 1.415 1_556 S
C2892 C2891 1.355 . S
C2892 C2894 1.419 . S
C2893 C2888 1.425 . S
C2893 C2890 1.409 . S
C2893 C2891 1.415 1_554 S
C2894 H2884 0.930 . S
C2894 C2892 1.419 . S
C2894 C2895 1.362 1_556 S
C2895 H2885 0.930 . S
C2895 C2888 1.409 . S
C2895 C2894 1.362 1_554 S
H2896 C2902 0.930 . S
H2897 C2905 0.930 . S
H2898 C2906 0.930 . S
H2899 C2907 0.930 . S
H2900 C2910 0.930 . S
H2901 C2911 0.930 . S
C2902 H2896 0.930 . S
C2902 C2903 1.355 . S
C2902 C2904 1.415 . S
C2903 C2902 1.355 . S
C2903 C2905 1.419 . S
C2904 C2902 1.415 . S
C2904 C2909 1.425 . S
C2904 C2911 1.409 . S
C2905 H2897 0.930 . S
C2905 C2903 1.419 . S
C2905 C2906 1.362 . S
C2906 H2898 0.930 . S
C2906 C2905 1.362 . S
C2906 C2909 1.409 . S
C2907 H2899 0.930 . S
C2907 C2908 1.355 . S
C2907 C2909 1.415 . S
C2908 C2907 1.355 . S
C2908 C2910 1.419 . S
C2909 C2904 1.425 . S
C2909 C2906 1.409 . S
C2909 C2907 1.415 . S
C2910 H2900 0.930 . S
C2910 C2908 1.419 . S
C2910 C2911 1.362 . S
C2911 H2901 0.930 . S
C2911 C2904 1.409 . S
C2911 C2910 1.362 . S
H2912 C2918 0.930 . S
H2913 C2921 0.930 . S
H2914 C2922 0.930 . S
H2915 C2923 0.930 . S
H2916 C2926 0.930 . S
H2917 C2927 0.930 . S
C2918 H2912 0.930 . S
C2918 C2919 1.355 . S
C2918 C2920 1.415 . S
C2919 C2918 1.355 . S
C2919 C2921 1.419 . S
C2920 C2918 1.415 . S
C2920 C2925 1.425 . S
C2920 C2927 1.409 . S
C2921 H2913 0.930 . S
C2921 C2919 1.419 . S
C2921 C2922 1.362 . S
C2922 H2914 0.930 . S
C2922 C2921 1.362 . S
C2922 C2925 1.409 . S
C2923 H2915 0.930 . S
C2923 C2924 1.355 . S
C2923 C2925 1.415 . S
C2924 C2923 1.355 . S
C2924 C2926 1.419 . S
C2925 C2920 1.425 . S
C2925 C2922 1.409 . S
C2925 C2923 1.415 . S
C2926 H2916 0.930 . S
C2926 C2924 1.419 . S
C2926 C2927 1.362 . S
C2927 H2917 0.930 . S
C2927 C2920 1.409 . S
C2927 C2926 1.362 . S
H2928 C2934 0.930 . S
H2929 C2937 0.930 . S
H2930 C2938 0.930 . S
H2931 C2939 0.930 . S
H2932 C2942 0.930 . S
H2933 C2943 0.930 . S
C2934 H2928 0.930 . S
C2934 C2935 1.355 . S
C2934 C2936 1.415 . S
C2935 C2934 1.355 . S
C2935 C2937 1.419 . S
C2936 C2934 1.415 . S
C2936 C2941 1.425 . S
C2936 C2943 1.409 . S
C2937 H2929 0.930 . S
C2937 C2935 1.419 . S
C2937 C2938 1.362 . S
C2938 H2930 0.930 . S
C2938 C2937 1.362 . S
C2938 C2941 1.409 . S
C2939 H2931 0.930 . S
C2939 C2940 1.355 . S
C2939 C2941 1.415 . S
C2940 C2939 1.355 . S
C2940 C2942 1.419 . S
C2941 C2936 1.425 . S
C2941 C2938 1.409 . S
C2941 C2939 1.415 . S
C2942 H2932 0.930 . S
C2942 C2940 1.419 . S
C2942 C2943 1.362 . S
C2943 H2933 0.930 . S
C2943 C2936 1.409 . S
C2943 C2942 1.362 . S
H2944 C2950 0.930 . S
H2945 C2953 0.930 1_545 S
H2946 C2954 0.930 1_545 S
H2947 C2955 0.930 . S
H2948 C2958 0.930 . S
H2949 C2959 0.930 . S
C2950 H2944 0.930 . S
C2950 C2951 1.355 . S
C2950 C2952 1.415 . S
C2951 C2950 1.355 . S
C2951 C2953 1.419 . S
C2952 C2950 1.415 . S
C2952 C2957 1.425 . S
C2952 C2959 1.409 . S
C2953 H2945 0.930 1_565 S
C2953 C2951 1.419 . S
C2953 C2954 1.362 . S
C2954 H2946 0.930 1_565 S
C2954 C2953 1.362 . S
C2954 C2957 1.409 . S
C2955 H2947 0.930 . S
C2955 C2956 1.355 . S
C2955 C2957 1.415 . S
C2956 C2955 1.355 . S
C2956 C2958 1.419 . S
C2957 C2952 1.425 . S
C2957 C2954 1.409 . S
C2957 C2955 1.415 . S
C2958 H2948 0.930 . S
C2958 C2956 1.419 . S
C2958 C2959 1.362 . S
C2959 H2949 0.930 . S
C2959 C2952 1.409 . S
C2959 C2958 1.362 . S
H2960 C2966 0.930 . S
H2961 C2969 0.930 . S
H2962 C2970 0.930 . S
H2963 C2971 0.930 . S
H2964 C2974 0.930 . S
H2965 C2975 0.930 . S
C2966 H2960 0.930 . S
C2966 C2967 1.355 . S
C2966 C2968 1.415 . S
C2967 C2966 1.355 . S
C2967 C2969 1.419 . S
C2968 C2966 1.415 . S
C2968 C2973 1.425 . S
C2968 C2975 1.409 . S
C2969 H2961 0.930 . S
C2969 C2967 1.419 . S
C2969 C2970 1.362 . S
C2970 H2962 0.930 . S
C2970 C2969 1.362 . S
C2970 C2973 1.409 . S
C2971 H2963 0.930 . S
C2971 C2972 1.355 . S
C2971 C2973 1.415 . S
C2972 C2971 1.355 . S
C2972 C2974 1.419 . S
C2973 C2968 1.425 . S
C2973 C2970 1.409 . S
C2973 C2971 1.415 . S
C2974 H2964 0.930 . S
C2974 C2972 1.419 . S
C2974 C2975 1.362 . S
C2975 H2965 0.930 . S
C2975 C2968 1.409 . S
C2975 C2974 1.362 . S
H2976 C2982 0.934 . S
H2977 C2985 0.930 . S
H2978 C2986 0.930 . S
H2979 C2987 0.930 . S
H2980 C2990 0.930 . S
H2981 C2991 0.930 . S
C2982 H2976 0.934 . S
C2982 C2983 1.355 1_554 S
C2982 C2984 1.415 . S
C2983 C2982 1.355 1_556 S
C2983 C2985 1.419 . S
C2984 C2982 1.415 . S
C2984 C2989 1.425 . S
C2984 C2991 1.409 . S
C2985 H2977 0.930 . S
C2985 C2983 1.419 . S
C2985 C2986 1.362 1_556 S
C2986 H2978 0.930 . S
C2986 C2985 1.362 1_554 S
C2986 C2989 1.409 . S
C2987 H2979 0.930 . S
C2987 C2988 1.355 . S
C2987 C2989 1.415 . S
C2988 C2987 1.355 . S
C2988 C2990 1.419 . S
C2989 C2984 1.425 . S
C2989 C2986 1.409 . S
C2989 C2987 1.415 . S
C2990 H2980 0.930 . S
C2990 C2988 1.419 . S
C2990 C2991 1.362 . S
C2991 H2981 0.930 . S
C2991 C2984 1.409 . S
C2991 C2990 1.362 . S
H2992 C2998 0.930 . S
H2993 C3001 0.930 . S
H2994 C3002 0.930 . S
H2995 C3003 0.930 . S
H2996 C3006 0.930 . S
H2997 C3007 0.930 . S
C2998 H2992 0.930 . S
C2998 C2999 1.355 . S
C2998 C3000 1.415 . S
C2999 C2998 1.355 . S
C2999 C3001 1.419 . S
C3000 C2998 1.415 . S
C3000 C3005 1.425 . S
C3000 C3007 1.409 . S
C3001 H2993 0.930 . S
C3001 C2999 1.419 . S
C3001 C3002 1.362 . S
C3002 H2994 0.930 . S
C3002 C3001 1.362 . S
C3002 C3005 1.409 . S
C3003 H2995 0.930 . S
C3003 C3004 1.355 . S
C3003 C3005 1.415 . S
C3004 C3003 1.355 . S
C3004 C3006 1.419 . S
C3005 C3000 1.425 . S
C3005 C3002 1.409 . S
C3005 C3003 1.415 . S
C3006 H2996 0.930 . S
C3006 C3004 1.419 . S
C3006 C3007 1.362 . S
C3007 H2997 0.930 . S
C3007 C3000 1.409 . S
C3007 C3006 1.362 . S
H3008 C3014 0.930 . S
H3009 C3017 0.930 . S
H3010 C3018 0.930 . S
H3011 C3019 0.930 . S
H3012 C3022 0.930 . S
H3013 C3023 0.930 . S
C3014 H3008 0.930 . S
C3014 C3015 1.355 . S
C3014 C3016 1.415 . S
C3015 C3014 1.355 . S
C3015 C3017 1.419 . S
C3016 C3014 1.415 . S
C3016 C3021 1.425 . S
C3016 C3023 1.409 . S
C3017 H3009 0.930 . S
C3017 C3015 1.419 . S
C3017 C3018 1.362 . S
C3018 H3010 0.930 . S
C3018 C3017 1.362 . S
C3018 C3021 1.409 . S
C3019 H3011 0.930 . S
C3019 C3020 1.355 . S
C3019 C3021 1.415 . S
C3020 C3019 1.355 . S
C3020 C3022 1.419 . S
C3021 C3016 1.425 . S
C3021 C3018 1.409 . S
C3021 C3019 1.415 . S
C3022 H3012 0.930 . S
C3022 C3020 1.419 . S
C3022 C3023 1.362 . S
C3023 H3013 0.930 . S
C3023 C3016 1.409 . S
C3023 C3022 1.362 . S
H3024 C3030 0.930 . S
H3025 C3033 0.930 . S
H3026 C3034 0.930 . S
H3027 C3035 0.930 . S
H3028 C3038 0.930 . S
H3029 C3039 0.930 . S
C3030 H3024 0.930 . S
C3030 C3031 1.355 . S
C3030 C3032 1.415 . S
C3031 C3030 1.355 . S
C3031 C3033 1.419 . S
C3032 C3030 1.415 . S
C3032 C3037 1.425 . S
C3032 C3039 1.409 . S
C3033 H3025 0.930 . S
C3033 C3031 1.419 . S
C3033 C3034 1.362 . S
C3034 H3026 0.930 . S
C3034 C3033 1.362 . S
C3034 C3037 1.409 . S
C3035 H3027 0.930 . S
C3035 C3036 1.355 . S
C3035 C3037 1.415 . S
C3036 C3035 1.355 . S
C3036 C3038 1.419 . S
C3037 C3032 1.425 . S
C3037 C3034 1.409 . S
C3037 C3035 1.415 . S
C3038 H3028 0.930 . S
C3038 C3036 1.419 . S
C3038 C3039 1.362 . S
C3039 H3029 0.930 . S
C3039 C3032 1.409 . S
C3039 C3038 1.362 . S
H3040 C3046 0.930 1_554 S
H3041 C3049 0.930 1_564 S
H3042 C3050 0.930 1_565 S
H3043 C3051 0.930 . S
H3044 C3054 0.930 . S
H3045 C3055 0.930 . S
C3046 H3040 0.930 1_556 S
C3046 C3047 1.355 1_556 S
C3046 C3048 1.415 . S
C3047 C3046 1.355 1_554 S
C3047 C3049 1.419 1_554 S
C3048 C3046 1.415 . S
C3048 C3053 1.425 . S
C3048 C3055 1.409 . S
C3049 H3041 0.930 1_546 S
C3049 C3047 1.419 1_556 S
C3049 C3050 1.362 . S
C3050 H3042 0.930 1_545 S
C3050 C3049 1.362 . S
C3050 C3053 1.409 . S
C3051 H3043 0.930 . S
C3051 C3052 1.355 . S
C3051 C3053 1.415 . S
C3052 C3051 1.355 . S
C3052 C3054 1.419 . S
C3053 C3048 1.425 . S
C3053 C3050 1.409 . S
C3053 C3051 1.415 . S
C3054 H3044 0.930 . S
C3054 C3052 1.419 . S
C3054 C3055 1.362 . S
C3055 H3045 0.930 . S
C3055 C3048 1.409 . S
C3055 C3054 1.362 . S
H3056 C3062 0.930 . S
H3057 C3065 0.930 . S
H3058 C3066 0.930 . S
H3059 C3067 0.930 . S
H3060 C3070 0.930 . S
H3061 C3071 0.930 . S
C3062 H3056 0.930 . S
C3062 C3063 1.355 . S
C3062 C3064 1.415 . S
C3063 C3062 1.355 . S
C3063 C3065 1.419 . S
C3064 C3062 1.415 . S
C3064 C3069 1.425 . S
C3064 C3071 1.409 . S
C3065 H3057 0.930 . S
C3065 C3063 1.419 . S
C3065 C3066 1.362 . S
C3066 H3058 0.930 . S
C3066 C3065 1.362 . S
C3066 C3069 1.409 . S
C3067 H3059 0.930 . S
C3067 C3068 1.355 . S
C3067 C3069 1.415 . S
C3068 C3067 1.355 . S
C3068 C3070 1.419 . S
C3069 C3064 1.425 . S
C3069 C3066 1.409 . S
C3069 C3067 1.415 . S
C3070 H3060 0.930 . S
C3070 C3068 1.419 . S
C3070 C3071 1.362 . S
C3071 H3061 0.930 . S
C3071 C3064 1.409 . S
C3071 C3070 1.362 . S
H3072 C3078 0.930 1_565 S
H3073 C3081 0.930 1_565 S
H3074 C3082 0.930 . S
H3075 C3083 0.930 . S
H3076 C3086 0.930 . S
H3077 C3087 0.930 . S
C3078 H3072 0.930 1_545 S
C3078 C3079 1.355 1_545 S
C3078 C3080 1.415 . S
C3079 C3078 1.355 1_565 S
C3079 C3081 1.419 1_565 S
C3080 C3078 1.415 . S
C3080 C3085 1.425 . S
C3080 C3087 1.409 . S
C3081 H3073 0.930 1_545 S
C3081 C3079 1.419 1_545 S
C3081 C3082 1.362 . S
C3082 H3074 0.930 . S
C3082 C3081 1.362 . S
C3082 C3085 1.409 . S
C3083 H3075 0.930 . S
C3083 C3084 1.355 . S
C3083 C3085 1.415 . S
C3084 C3083 1.355 . S
C3084 C3086 1.419 . S
C3085 C3080 1.425 . S
C3085 C3082 1.409 . S
C3085 C3083 1.415 . S
C3086 H3076 0.930 . S
C3086 C3084 1.419 . S
C3086 C3087 1.362 . S
C3087 H3077 0.930 . S
C3087 C3080 1.409 . S
C3087 C3086 1.362 . S
H3088 C3094 0.930 . S
H3089 C3097 0.930 . S
H3090 C3098 0.930 . S
H3091 C3099 0.930 . S
H3092 C3102 0.930 . S
H3093 C3103 0.930 . S
C3094 H3088 0.930 . S
C3094 C3095 1.355 . S
C3094 C3096 1.415 . S
C3095 C3094 1.355 . S
C3095 C3097 1.419 . S
C3096 C3094 1.415 . S
C3096 C3101 1.425 . S
C3096 C3103 1.409 . S
C3097 H3089 0.930 . S
C3097 C3095 1.419 . S
C3097 C3098 1.362 . S
C3098 H3090 0.930 . S
C3098 C3097 1.362 . S
C3098 C3101 1.409 . S
C3099 H3091 0.930 . S
C3099 C3100 1.355 . S
C3099 C3101 1.415 . S
C3100 C3099 1.355 . S
C3100 C3102 1.419 . S
C3101 C3096 1.425 . S
C3101 C3098 1.409 . S
C3101 C3099 1.415 . S
C3102 H3092 0.930 . S
C3102 C3100 1.419 . S
C3102 C3103 1.362 . S
C3103 H3093 0.930 . S
C3103 C3096 1.409 . S
C3103 C3102 1.362 . S
H3104 C3110 0.930 . S
H3105 C3113 0.930 . S
H3106 C3114 0.930 . S
H3107 C3115 0.930 . S
H3108 C3118 0.930 . S
H3109 C3119 0.930 . S
C3110 H3104 0.930 . S
C3110 C3111 1.355 1_565 S
C3110 C3112 1.415 . S
C3111 C3110 1.355 1_545 S
C3111 C3113 1.419 . S
C3112 C3110 1.415 . S
C3112 C3117 1.425 . S
C3112 C3119 1.409 . S
C3113 H3105 0.930 . S
C3113 C3111 1.419 . S
C3113 C3114 1.362 1_545 S
C3114 H3106 0.930 . S
C3114 C3113 1.362 1_565 S
C3114 C3117 1.409 . S
C3115 H3107 0.930 . S
C3115 C3116 1.355 . S
C3115 C3117 1.415 . S
C3116 C3115 1.355 . S
C3116 C3118 1.419 . S
C3117 C3112 1.425 . S
C3117 C3114 1.409 . S
C3117 C3115 1.415 . S
C3118 H3108 0.930 . S
C3118 C3116 1.419 . S
C3118 C3119 1.362 . S
C3119 H3109 0.930 . S
C3119 C3112 1.409 . S
C3119 C3118 1.362 . S
H3120 C3126 0.930 . S
H3121 C3129 0.930 . S
H3122 C3130 0.930 . S
H3123 C3131 0.930 . S
H3124 C3134 0.930 . S
H3125 C3135 0.930 . S
C3126 H3120 0.930 . S
C3126 C3127 1.355 . S
C3126 C3128 1.415 . S
C3127 C3126 1.355 . S
C3127 C3129 1.419 . S
C3128 C3126 1.415 . S
C3128 C3133 1.425 . S
C3128 C3135 1.409 . S
C3129 H3121 0.930 . S
C3129 C3127 1.419 . S
C3129 C3130 1.362 . S
C3130 H3122 0.930 . S
C3130 C3129 1.362 . S
C3130 C3133 1.409 . S
C3131 H3123 0.930 . S
C3131 C3132 1.355 . S
C3131 C3133 1.415 . S
C3132 C3131 1.355 . S
C3132 C3134 1.419 . S
C3133 C3128 1.425 . S
C3133 C3130 1.409 . S
C3133 C3131 1.415 . S
C3134 H3124 0.930 . S
C3134 C3132 1.419 . S
C3134 C3135 1.362 . S
C3135 H3125 0.930 . S
C3135 C3128 1.409 . S
C3135 C3134 1.362 . S
H3136 C3142 0.930 . S
H3137 C3145 0.948 . S
H3138 C3146 0.930 . S
H3139 C3147 0.930 . S
H3140 C3150 0.930 . S
H3141 C3151 0.930 . S
C3142 H3136 0.930 . S
C3142 C3143 1.355 1_545 S
C3142 C3144 1.415 . S
C3143 C3142 1.355 1_565 S
C3143 C3145 1.428 . S
C3144 C3142 1.415 . S
C3144 C3149 1.425 . S
C3144 C3151 1.409 . S
C3145 H3137 0.948 . S
C3145 C3143 1.428 . S
C3145 C3146 1.336 1_565 S
C3146 H3138 0.930 . S
C3146 C3145 1.336 1_545 S
C3146 C3149 1.409 . S
C3147 H3139 0.930 . S
C3147 C3148 1.355 . S
C3147 C3149 1.415 . S
C3148 C3147 1.355 . S
C3148 C3150 1.419 . S
C3149 C3144 1.425 . S
C3149 C3146 1.409 . S
C3149 C3147 1.415 . S
C3150 H3140 0.930 . S
C3150 C3148 1.419 . S
C3150 C3151 1.362 . S
C3151 H3141 0.930 . S
C3151 C3144 1.409 . S
C3151 C3150 1.362 . S
H3152 C3158 0.930 . S
H3153 C3161 0.930 . S
H3154 C3162 0.930 . S
H3155 C3163 0.930 . S
H3156 C3166 0.930 . S
H3157 C3167 0.930 . S
C3158 H3152 0.930 . S
C3158 C3159 1.355 . S
C3158 C3160 1.415 . S
C3159 C3158 1.355 . S
C3159 C3161 1.419 . S
C3160 C3158 1.415 . S
C3160 C3165 1.425 . S
C3160 C3167 1.409 . S
C3161 H3153 0.930 . S
C3161 C3159 1.419 . S
C3161 C3162 1.362 . S
C3162 H3154 0.930 . S
C3162 C3161 1.362 . S
C3162 C3165 1.409 . S
C3163 H3155 0.930 . S
C3163 C3164 1.355 . S
C3163 C3165 1.415 . S
C3164 C3163 1.355 . S
C3164 C3166 1.419 . S
C3165 C3160 1.425 . S
C3165 C3162 1.409 . S
C3165 C3163 1.415 . S
C3166 H3156 0.930 . S
C3166 C3164 1.419 . S
C3166 C3167 1.362 . S
C3167 H3157 0.930 . S
C3167 C3160 1.409 . S
C3167 C3166 1.362 . S
H3168 C3174 0.930 . S
H3169 C3177 0.930 . S
H3170 C3178 0.930 . S
H3171 C3179 0.921 1_545 S
H3172 C3182 0.910 1_545 S
H3173 C3183 0.930 . S
C3174 H3168 0.930 . S
C3174 C3175 1.355 . S
C3174 C3176 1.415 . S
C3175 C3174 1.355 . S
C3175 C3177 1.419 . S
C3176 C3174 1.415 . S
C3176 C3181 1.425 . S
C3176 C3183 1.409 . S
C3177 H3169 0.930 . S
C3177 C3175 1.419 . S
C3177 C3178 1.362 . S
C3178 H3170 0.930 . S
C3178 C3177 1.362 . S
C3178 C3181 1.409 . S
C3179 H3171 0.921 1_565 S
C3179 C3180 1.355 1_565 S
C3179 C3181 1.415 . S
C3180 C3179 1.355 1_545 S
C3180 C3182 1.407 1_545 S
C3181 C3176 1.425 . S
C3181 C3178 1.409 . S
C3181 C3179 1.415 . S
C3182 H3172 0.910 1_565 S
C3182 C3180 1.407 1_565 S
C3182 C3183 1.394 . S
C3183 H3173 0.930 . S
C3183 C3176 1.409 . S
C3183 C3182 1.394 . S
H3184 C3190 0.930 . S
H3185 C3193 0.930 . S
H3186 C3194 0.930 . S
H3187 C3195 0.930 . S
H3188 C3198 0.930 . S
H3189 C3199 0.930 . S
C3190 H3184 0.930 . S
C3190 C3191 1.355 . S
C3190 C3192 1.415 . S
C3191 C3190 1.355 . S
C3191 C3193 1.419 . S
C3192 C3190 1.415 . S
C3192 C3197 1.425 . S
C3192 C3199 1.409 . S
C3193 H3185 0.930 . S
C3193 C3191 1.419 . S
C3193 C3194 1.362 . S
C3194 H3186 0.930 . S
C3194 C3193 1.362 . S
C3194 C3197 1.409 . S
C3195 H3187 0.930 . S
C3195 C3196 1.355 . S
C3195 C3197 1.415 . S
C3196 C3195 1.355 . S
C3196 C3198 1.419 . S
C3197 C3192 1.425 . S
C3197 C3194 1.409 . S
C3197 C3195 1.415 . S
C3198 H3188 0.930 . S
C3198 C3196 1.419 . S
C3198 C3199 1.362 . S
C3199 H3189 0.930 . S
C3199 C3192 1.409 . S
C3199 C3198 1.362 . S
H3200 C3206 0.930 . S
H3201 C3209 0.930 . S
H3202 C3210 0.930 . S
H3203 C3211 0.930 . S
H3204 C3214 0.930 . S
H3205 C3215 0.930 . S
C3206 H3200 0.930 . S
C3206 C3207 1.355 . S
C3206 C3208 1.415 . S
C3207 C3206 1.355 . S
C3207 C3209 1.419 . S
C3208 C3206 1.415 . S
C3208 C3213 1.425 . S
C3208 C3215 1.409 . S
C3209 H3201 0.930 . S
C3209 C3207 1.419 . S
C3209 C3210 1.362 . S
C3210 H3202 0.930 . S
C3210 C3209 1.362 . S
C3210 C3213 1.409 . S
C3211 H3203 0.930 . S
C3211 C3212 1.355 . S
C3211 C3213 1.415 . S
C3212 C3211 1.355 . S
C3212 C3214 1.419 . S
C3213 C3208 1.425 . S
C3213 C3210 1.409 . S
C3213 C3211 1.415 . S
C3214 H3204 0.930 . S
C3214 C3212 1.419 . S
C3214 C3215 1.362 . S
C3215 H3205 0.930 . S
C3215 C3208 1.409 . S
C3215 C3214 1.362 . S
H3216 C3222 0.930 . S
H3217 C3225 0.930 . S
H3218 C3226 0.930 . S
H3219 C3227 0.930 . S
H3220 C3230 0.930 . S
H3221 C3231 0.930 1_655 S
C3222 H3216 0.930 . S
C3222 C3223 1.355 . S
C3222 C3224 1.415 1_655 S
C3223 C3222 1.355 . S
C3223 C3225 1.404 1_655 S
C3224 C3222 1.415 1_455 S
C3224 C3229 1.425 . S
C3224 C3231 1.409 1_556 S
C3225 H3217 0.930 . S
C3225 C3223 1.404 1_455 S
C3225 C3226 1.378 . S
C3226 H3218 0.930 . S
C3226 C3225 1.378 . S
C3226 C3229 1.409 . S
C3227 H3219 0.930 . S
C3227 C3228 1.355 1_556 S
C3227 C3229 1.415 . S
C3228 C3227 1.355 1_554 S
C3228 C3230 1.419 . S
C3229 C3224 1.425 . S
C3229 C3226 1.409 . S
C3229 C3227 1.415 . S
C3230 H3220 0.930 . S
C3230 C3228 1.419 . S
C3230 C3231 1.362 . S
C3231 H3221 0.930 1_455 S
C3231 C3224 1.409 1_554 S
C3231 C3230 1.362 . S
H3232 C3238 0.930 . S
H3233 C3241 0.930 . S
H3234 C3242 0.930 . S
H3235 C3243 0.930 . S
H3236 C3246 0.930 . S
H3237 C3247 0.930 . S
C3238 H3232 0.930 . S
C3238 C3239 1.355 . S
C3238 C3240 1.415 . S
C3239 C3238 1.355 . S
C3239 C3241 1.419 . S
C3240 C3238 1.415 . S
C3240 C3245 1.425 . S
C3240 C3247 1.409 . S
C3241 H3233 0.930 . S
C3241 C3239 1.419 . S
C3241 C3242 1.362 . S
C3242 H3234 0.930 . S
C3242 C3241 1.362 . S
C3242 C3245 1.409 . S
C3243 H3235 0.930 . S
C3243 C3244 1.355 . S
C3243 C3245 1.415 . S
C3244 C3243 1.355 . S
C3244 C3246 1.419 . S
C3245 C3240 1.425 . S
C3245 C3242 1.409 . S
C3245 C3243 1.415 . S
C3246 H3236 0.930 . S
C3246 C3244 1.419 . S
C3246 C3247 1.362 . S
C3247 H3237 0.930 . S
C3247 C3240 1.409 . S
C3247 C3246 1.362 . S
H3248 C3254 0.917 1_655 S
H3249 C3257 0.930 . S
H3250 C3258 0.930 . S
H3251 C3259 0.927 1_554 S
H3252 C3262 0.930 . S
H3253 C3263 0.930 . S
C3254 H3248 0.917 1_455 S
C3254 C3255 1.402 . S
C3254 C3256 1.382 1_455 S
C3255 C3254 1.402 . S
C3255 C3257 1.419 . S
C3256 C3254 1.382 1_655 S
C3256 C3261 1.425 . S
C3256 C3263 1.409 . S
C3257 H3249 0.930 . S
C3257 C3255 1.419 . S
C3257 C3258 1.362 . S
C3258 H3250 0.930 . S
C3258 C3257 1.362 . S
C3258 C3261 1.409 1_455 S
C3259 H3251 0.927 1_556 S
C3259 C3260 1.354 1_556 S
C3259 C3261 1.416 . S
C3260 C3259 1.354 1_554 S
C3260 C3262 1.419 . S
C3261 C3256 1.425 . S
C3261 C3258 1.409 1_655 S
C3261 C3259 1.416 . S
C3262 H3252 0.930 . S
C3262 C3260 1.419 . S
C3262 C3263 1.362 1_554 S
C3263 H3253 0.930 . S
C3263 C3256 1.409 . S
C3263 C3262 1.362 1_556 S
H3264 C3270 0.930 . S
H3265 C3273 0.930 . S
H3266 C3274 0.930 . S
H3267 C3275 0.930 . S
H3268 C3278 0.930 . S
H3269 C3279 0.930 . S
C3270 H3264 0.930 . S
C3270 C3271 1.355 . S
C3270 C3272 1.415 . S
C3271 C3270 1.355 . S
C3271 C3273 1.419 . S
C3272 C3270 1.415 . S
C3272 C3277 1.425 . S
C3272 C3279 1.409 . S
C3273 H3265 0.930 . S
C3273 C3271 1.419 . S
C3273 C3274 1.362 . S
C3274 H3266 0.930 . S
C3274 C3273 1.362 . S
C3274 C3277 1.409 . S
C3275 H3267 0.930 . S
C3275 C3276 1.355 . S
C3275 C3277 1.415 . S
C3276 C3275 1.355 . S
C3276 C3278 1.419 . S
C3277 C3272 1.425 . S
C3277 C3274 1.409 . S
C3277 C3275 1.415 . S
C3278 H3268 0.930 . S
C3278 C3276 1.419 . S
C3278 C3279 1.362 . S
C3279 H3269 0.930 . S
C3279 C3272 1.409 . S
C3279 C3278 1.362 . S
H3280 C3286 0.928 1_455 S
H3281 C3289 0.930 . S
H3282 C3290 0.930 . S
H3283 C3291 0.930 . S
H3284 C3294 0.930 . S
H3285 C3295 0.930 . S
C3286 H3280 0.928 1_655 S
C3286 C3287 1.358 . S
C3286 C3288 1.412 1_655 S
C3287 C3286 1.358 . S
C3287 C3289 1.419 . S
C3288 C3286 1.412 1_455 S
C3288 C3293 1.425 . S
C3288 C3295 1.409 . S
C3289 H3281 0.930 . S
C3289 C3287 1.419 . S
C3289 C3290 1.362 . S
C3290 H3282 0.930 . S
C3290 C3289 1.362 . S
C3290 C3293 1.409 1_655 S
C3291 H3283 0.930 . S
C3291 C3292 1.355 . S
C3291 C3293 1.415 . S
C3292 C3291 1.355 . S
C3292 C3294 1.419 . S
C3293 C3288 1.425 . S
C3293 C3290 1.409 1_455 S
C3293 C3291 1.415 . S
C3294 H3284 0.930 . S
C3294 C3292 1.419 . S
C3294 C3295 1.362 . S
C3295 H3285 0.930 . S
C3295 C3288 1.409 . S
C3295 C3294 1.362 . S
H3296 C3302 0.935 . S
H3297 C3305 0.927 1_556 S
H3298 C3306 0.930 . S
H3299 C3307 0.930 . S
H3300 C3310 0.930 . S
H3301 C3311 0.930 . S
C3302 H3296 0.935 . S
C3302 C3303 1.360 . S
C3302 C3304 1.405 1_556 S
C3303 C3302 1.360 . S
C3303 C3305 1.415 1_556 S
C3304 C3302 1.405 1_554 S
C3304 C3309 1.425 . S
C3304 C3311 1.409 . S
C3305 H3297 0.927 1_554 S
C3305 C3303 1.415 1_554 S
C3305 C3306 1.371 . S
C3306 H3298 0.930 . S
C3306 C3305 1.371 . S
C3306 C3309 1.409 . S
C3307 H3299 0.930 . S
C3307 C3308 1.355 . S
C3307 C3309 1.415 . S
C3308 C3307 1.355 . S
C3308 C3310 1.419 . S
C3309 C3304 1.425 . S
C3309 C3306 1.409 . S
C3309 C3307 1.415 . S
C3310 H3300 0.930 . S
C3310 C3308 1.419 . S
C3310 C3311 1.362 . S
C3311 H3301 0.930 . S
C3311 C3304 1.409 . S
C3311 C3310 1.362 . S
H3312 C3318 0.930 . S
H3313 C3321 0.930 . S
H3314 C3322 0.930 . S
H3315 C3323 0.930 . S
H3316 C3326 0.930 . S
H3317 C3327 0.930 . S
C3318 H3312 0.930 . S
C3318 C3319 1.355 . S
C3318 C3320 1.415 . S
C3319 C3318 1.355 . S
C3319 C3321 1.419 . S
C3320 C3318 1.415 . S
C3320 C3325 1.425 . S
C3320 C3327 1.409 . S
C3321 H3313 0.930 . S
C3321 C3319 1.419 . S
C3321 C3322 1.362 . S
C3322 H3314 0.930 . S
C3322 C3321 1.362 . S
C3322 C3325 1.409 . S
C3323 H3315 0.930 . S
C3323 C3324 1.355 . S
C3323 C3325 1.415 . S
C3324 C3323 1.355 . S
C3324 C3326 1.419 . S
C3325 C3320 1.425 . S
C3325 C3322 1.409 . S
C3325 C3323 1.415 . S
C3326 H3316 0.930 . S
C3326 C3324 1.419 . S
C3326 C3327 1.362 . S
C3327 H3317 0.930 . S
C3327 C3320 1.409 . S
C3327 C3326 1.362 . S
H3328 C3334 0.930 . S
H3329 C3337 0.930 . S
H3330 C3338 0.930 . S
H3331 C3339 0.930 . S
H3332 C3342 0.930 . S
H3333 C3343 0.930 . S
C3334 H3328 0.930 . S
C3334 C3335 1.355 . S
C3334 C3336 1.415 . S
C3335 C3334 1.355 . S
C3335 C3337 1.419 . S
C3336 C3334 1.415 . S
C3336 C3341 1.425 . S
C3336 C3343 1.409 . S
C3337 H3329 0.930 . S
C3337 C3335 1.419 . S
C3337 C3338 1.362 . S
C3338 H3330 0.930 . S
C3338 C3337 1.362 . S
C3338 C3341 1.409 . S
C3339 H3331 0.930 . S
C3339 C3340 1.355 1_554 S
C3339 C3341 1.415 . S
C3340 C3339 1.355 1_556 S
C3340 C3342 1.419 . S
C3341 C3336 1.425 . S
C3341 C3338 1.409 . S
C3341 C3339 1.415 . S
C3342 H3332 0.930 . S
C3342 C3340 1.419 . S
C3342 C3343 1.362 1_556 S
C3343 H3333 0.930 . S
C3343 C3336 1.409 . S
C3343 C3342 1.362 1_554 S
H3344 C3350 0.930 . S
H3345 C3353 0.930 . S
H3346 C3354 0.930 . S
H3347 C3355 0.930 . S
H3348 C3358 0.930 . S
H3349 C3359 0.930 . S
C3350 H3344 0.930 . S
C3350 C3351 1.355 . S
C3350 C3352 1.415 . S
C3351 C3350 1.355 . S
C3351 C3353 1.419 . S
C3352 C3350 1.415 . S
C3352 C3357 1.425 . S
C3352 C3359 1.409 . S
C3353 H3345 0.930 . S
C3353 C3351 1.419 . S
C3353 C3354 1.362 . S
C3354 H3346 0.930 . S
C3354 C3353 1.362 . S
C3354 C3357 1.409 . S
C3355 H3347 0.930 . S
C3355 C3356 1.355 . S
C3355 C3357 1.415 . S
C3356 C3355 1.355 . S
C3356 C3358 1.419 . S
C3357 C3352 1.425 . S
C3357 C3354 1.409 . S
C3357 C3355 1.415 . S
C3358 H3348 0.930 . S
C3358 C3356 1.419 . S
C3358 C3359 1.362 . S
C3359 H3349 0.930 . S
C3359 C3352 1.409 . S
C3359 C3358 1.362 . S
H3360 C3366 0.930 . S
H3361 C3369 0.930 . S
H3362 C3370 0.930 . S
H3363 C3371 0.930 . S
H3364 C3374 0.930 . S
H3365 C3375 0.930 . S
C3366 H3360 0.930 . S
C3366 C3367 1.355 . S
C3366 C3368 1.415 . S
C3367 C3366 1.355 . S
C3367 C3369 1.419 . S
C3368 C3366 1.415 . S
C3368 C3373 1.425 . S
C3368 C3375 1.409 . S
C3369 H3361 0.930 . S
C3369 C3367 1.419 . S
C3369 C3370 1.362 . S
C3370 H3362 0.930 . S
C3370 C3369 1.362 . S
C3370 C3373 1.409 . S
C3371 H3363 0.930 . S
C3371 C3372 1.355 . S
C3371 C3373 1.415 . S
C3372 C3371 1.355 . S
C3372 C3374 1.419 . S
C3373 C3368 1.425 . S
C3373 C3370 1.409 . S
C3373 C3371 1.415 . S
C3374 H3364 0.930 . S
C3374 C3372 1.419 . S
C3374 C3375 1.362 . S
C3375 H3365 0.930 . S
C3375 C3368 1.409 . S
C3375 C3374 1.362 . S
H3376 C3382 0.930 . S
H3377 C3385 0.930 . S
H3378 C3386 0.930 . S
H3379 C3387 0.930 . S
H3380 C3390 0.930 . S
H3381 C3391 0.930 . S
C3382 H3376 0.930 . S
C3382 C3383 1.355 . S
C3382 C3384 1.415 . S
C3383 C3382 1.355 . S
C3383 C3385 1.419 . S
C3384 C3382 1.415 . S
C3384 C3389 1.425 . S
C3384 C3391 1.409 . S
C3385 H3377 0.930 . S
C3385 C3383 1.419 . S
C3385 C3386 1.362 . S
C3386 H3378 0.930 . S
C3386 C3385 1.362 . S
C3386 C3389 1.409 . S
C3387 H3379 0.930 . S
C3387 C3388 1.355 . S
C3387 C3389 1.415 . S
C3388 C3387 1.355 . S
C3388 C3390 1.419 . S
C3389 C3384 1.425 . S
C3389 C3386 1.409 . S
C3389 C3387 1.415 . S
C3390 H3380 0.930 . S
C3390 C3388 1.419 . S
C3390 C3391 1.362 . S
C3391 H3381 0.930 . S
C3391 C3384 1.409 . S
C3391 C3390 1.362 . S
H3392 C3398 0.930 . S
H3393 C3401 0.930 . S
H3394 C3402 0.930 . S
H3395 C3403 0.930 . S
H3396 C3406 0.930 . S
H3397 C3407 0.930 . S
C3398 H3392 0.930 . S
C3398 C3399 1.355 . S
C3398 C3400 1.415 . S
C3399 C3398 1.355 . S
C3399 C3401 1.419 . S
C3400 C3398 1.415 . S
C3400 C3405 1.425 . S
C3400 C3407 1.409 . S
C3401 H3393 0.930 . S
C3401 C3399 1.419 . S
C3401 C3402 1.362 . S
C3402 H3394 0.930 . S
C3402 C3401 1.362 . S
C3402 C3405 1.409 . S
C3403 H3395 0.930 . S
C3403 C3404 1.355 1_556 S
C3403 C3405 1.415 . S
C3404 C3403 1.355 1_554 S
C3404 C3406 1.419 . S
C3405 C3400 1.425 . S
C3405 C3402 1.409 . S
C3405 C3403 1.415 . S
C3406 H3396 0.930 . S
C3406 C3404 1.419 . S
C3406 C3407 1.362 1_554 S
C3407 H3397 0.930 . S
C3407 C3400 1.409 . S
C3407 C3406 1.362 1_556 S
H3408 C3414 0.930 . S
H3409 C3417 0.930 . S
H3410 C3418 0.930 . S
H3411 C3419 0.930 . S
H3412 C3422 0.930 . S
H3413 C3423 0.930 . S
C3414 H3408 0.930 . S
C3414 C3415 1.355 . S
C3414 C3416 1.415 . S
C3415 C3414 1.355 . S
C3415 C3417 1.419 . S
C3416 C3414 1.415 . S
C3416 C3421 1.425 . S
C3416 C3423 1.409 . S
C3417 H3409 0.930 . S
C3417 C3415 1.419 . S
C3417 C3418 1.362 . S
C3418 H3410 0.930 . S
C3418 C3417 1.362 . S
C3418 C3421 1.409 . S
C3419 H3411 0.930 . S
C3419 C3420 1.355 . S
C3419 C3421 1.415 . S
C3420 C3419 1.355 . S
C3420 C3422 1.419 . S
C3421 C3416 1.425 . S
C3421 C3418 1.409 . S
C3421 C3419 1.415 . S
C3422 H3412 0.930 . S
C3422 C3420 1.419 . S
C3422 C3423 1.362 . S
C3423 H3413 0.930 . S
C3423 C3416 1.409 . S
C3423 C3422 1.362 . S
H3424 C3430 0.930 . S
H3425 C3433 0.930 . S
H3426 C3434 0.930 . S
H3427 C3435 0.930 . S
H3428 C3438 0.930 . S
H3429 C3439 0.930 . S
C3430 H3424 0.930 . S
C3430 C3431 1.355 . S
C3430 C3432 1.415 . S
C3431 C3430 1.355 . S
C3431 C3433 1.419 . S
C3432 C3430 1.415 . S
C3432 C3437 1.425 . S
C3432 C3439 1.409 . S
C3433 H3425 0.930 . S
C3433 C3431 1.419 . S
C3433 C3434 1.362 . S
C3434 H3426 0.930 . S
C3434 C3433 1.362 . S
C3434 C3437 1.409 . S
C3435 H3427 0.930 . S
C3435 C3436 1.355 . S
C3435 C3437 1.415 . S
C3436 C3435 1.355 . S
C3436 C3438 1.419 . S
C3437 C3432 1.425 . S
C3437 C3434 1.409 . S
C3437 C3435 1.415 . S
C3438 H3428 0.930 . S
C3438 C3436 1.419 . S
C3438 C3439 1.362 . S
C3439 H3429 0.930 . S
C3439 C3432 1.409 . S
C3439 C3438 1.362 . S
H3440 C3446 0.930 . S
H3441 C3449 0.930 . S
H3442 C3450 0.930 . S
H3443 C3451 0.930 . S
H3444 C3454 0.930 . S
H3445 C3455 0.930 . S
C3446 H3440 0.930 . S
C3446 C3447 1.355 . S
C3446 C3448 1.415 . S
C3447 C3446 1.355 . S
C3447 C3449 1.419 . S
C3448 C3446 1.415 . S
C3448 C3453 1.425 . S
C3448 C3455 1.409 . S
C3449 H3441 0.930 . S
C3449 C3447 1.419 . S
C3449 C3450 1.362 . S
C3450 H3442 0.930 . S
C3450 C3449 1.362 . S
C3450 C3453 1.409 . S
C3451 H3443 0.930 . S
C3451 C3452 1.355 . S
C3451 C3453 1.415 . S
C3452 C3451 1.355 . S
C3452 C3454 1.419 . S
C3453 C3448 1.425 . S
C3453 C3450 1.409 . S
C3453 C3451 1.415 . S
C3454 H3444 0.930 . S
C3454 C3452 1.419 . S
C3454 C3455 1.362 . S
C3455 H3445 0.930 . S
C3455 C3448 1.409 . S
C3455 C3454 1.362 . S
H3456 C3462 0.930 . S
H3457 C3465 0.930 . S
H3458 C3466 0.930 . S
H3459 C3467 0.930 . S
H3460 C3470 0.930 . S
H3461 C3471 0.930 . S
C3462 H3456 0.930 . S
C3462 C3463 1.355 . S
C3462 C3464 1.415 . S
C3463 C3462 1.355 . S
C3463 C3465 1.419 . S
C3464 C3462 1.415 . S
C3464 C3469 1.425 . S
C3464 C3471 1.409 . S
C3465 H3457 0.930 . S
C3465 C3463 1.419 . S
C3465 C3466 1.362 . S
C3466 H3458 0.930 . S
C3466 C3465 1.362 . S
C3466 C3469 1.409 . S
C3467 H3459 0.930 . S
C3467 C3468 1.355 . S
C3467 C3469 1.415 . S
C3468 C3467 1.355 . S
C3468 C3470 1.419 . S
C3469 C3464 1.425 . S
C3469 C3466 1.409 . S
C3469 C3467 1.415 . S
C3470 H3460 0.930 . S
C3470 C3468 1.419 . S
C3470 C3471 1.362 . S
C3471 H3461 0.930 . S
C3471 C3464 1.409 . S
C3471 C3470 1.362 . S
H3472 C3478 0.930 . S
H3473 C3481 0.930 . S
H3474 C3482 0.930 . S
H3475 C3483 0.930 . S
H3476 C3486 0.930 . S
H3477 C3487 0.930 . S
C3478 H3472 0.930 . S
C3478 C3479 1.355 . S
C3478 C3480 1.415 . S
C3479 C3478 1.355 . S
C3479 C3481 1.419 . S
C3480 C3478 1.415 . S
C3480 C3485 1.425 . S
C3480 C3487 1.409 . S
C3481 H3473 0.930 . S
C3481 C3479 1.419 . S
C3481 C3482 1.362 . S
C3482 H3474 0.930 . S
C3482 C3481 1.362 . S
C3482 C3485 1.409 . S
C3483 H3475 0.930 . S
C3483 C3484 1.355 . S
C3483 C3485 1.415 . S
C3484 C3483 1.355 . S
C3484 C3486 1.419 . S
C3485 C3480 1.425 . S
C3485 C3482 1.409 . S
C3485 C3483 1.415 . S
C3486 H3476 0.930 . S
C3486 C3484 1.419 . S
C3486 C3487 1.362 . S
C3487 H3477 0.930 . S
C3487 C3480 1.409 . S
C3487 C3486 1.362 . S
H3488 C3494 0.930 . S
H3489 C3497 0.930 . S
H3490 C3498 0.930 . S
H3491 C3499 0.930 . S
H3492 C3502 0.930 . S
H3493 C3503 0.930 . S
C3494 H3488 0.930 . S
C3494 C3495 1.355 . S
C3494 C3496 1.415 . S
C3495 C3494 1.355 . S
C3495 C3497 1.419 . S
C3496 C3494 1.415 . S
C3496 C3501 1.425 . S
C3496 C3503 1.409 . S
C3497 H3489 0.930 . S
C3497 C3495 1.419 . S
C3497 C3498 1.362 . S
C3498 H3490 0.930 . S
C3498 C3497 1.362 . S
C3498 C3501 1.409 . S
C3499 H3491 0.930 . S
C3499 C3500 1.355 . S
C3499 C3501 1.415 . S
C3500 C3499 1.355 . S
C3500 C3502 1.419 . S
C3501 C3496 1.425 . S
C3501 C3498 1.409 . S
C3501 C3499 1.415 . S
C3502 H3492 0.930 . S
C3502 C3500 1.419 . S
C3502 C3503 1.362 . S
C3503 H3493 0.930 . S
C3503 C3496 1.409 . S
C3503 C3502 1.362 . S
H3504 C3510 0.930 . S
H3505 C3513 0.930 . S
H3506 C3514 0.930 . S
H3507 C3515 0.930 . S
H3508 C3518 0.930 . S
H3509 C3519 0.930 . S
C3510 H3504 0.930 . S
C3510 C3511 1.355 . S
C3510 C3512 1.415 . S
C3511 C3510 1.355 . S
C3511 C3513 1.419 . S
C3512 C3510 1.415 . S
C3512 C3517 1.425 . S
C3512 C3519 1.409 . S
C3513 H3505 0.930 . S
C3513 C3511 1.419 . S
C3513 C3514 1.362 . S
C3514 H3506 0.930 . S
C3514 C3513 1.362 . S
C3514 C3517 1.409 . S
C3515 H3507 0.930 . S
C3515 C3516 1.355 . S
C3515 C3517 1.415 . S
C3516 C3515 1.355 . S
C3516 C3518 1.419 . S
C3517 C3512 1.425 . S
C3517 C3514 1.409 . S
C3517 C3515 1.415 . S
C3518 H3508 0.930 . S
C3518 C3516 1.419 . S
C3518 C3519 1.362 . S
C3519 H3509 0.930 . S
C3519 C3512 1.409 . S
C3519 C3518 1.362 . S
H3520 C3526 0.930 . S
H3521 C3529 0.930 . S
H3522 C3530 0.930 . S
H3523 C3531 0.930 . S
H3524 C3534 0.930 . S
H3525 C3535 0.930 . S
C3526 H3520 0.930 . S
C3526 C3527 1.355 . S
C3526 C3528 1.415 . S
C3527 C3526 1.355 . S
C3527 C3529 1.419 . S
C3528 C3526 1.415 . S
C3528 C3533 1.425 . S
C3528 C3535 1.409 . S
C3529 H3521 0.930 . S
C3529 C3527 1.419 . S
C3529 C3530 1.362 . S
C3530 H3522 0.930 . S
C3530 C3529 1.362 . S
C3530 C3533 1.409 . S
C3531 H3523 0.930 . S
C3531 C3532 1.355 . S
C3531 C3533 1.415 . S
C3532 C3531 1.355 . S
C3532 C3534 1.419 . S
C3533 C3528 1.425 . S
C3533 C3530 1.409 . S
C3533 C3531 1.415 . S
C3534 H3524 0.930 . S
C3534 C3532 1.419 . S
C3534 C3535 1.362 . S
C3535 H3525 0.930 . S
C3535 C3528 1.409 . S
C3535 C3534 1.362 . S
H3536 C3542 0.930 . S
H3537 C3545 0.930 . S
H3538 C3546 0.930 . S
H3539 C3547 0.930 . S
H3540 C3550 0.930 . S
H3541 C3551 0.930 . S
C3542 H3536 0.930 . S
C3542 C3543 1.355 . S
C3542 C3544 1.415 . S
C3543 C3542 1.355 . S
C3543 C3545 1.419 . S
C3544 C3542 1.415 . S
C3544 C3549 1.425 . S
C3544 C3551 1.409 . S
C3545 H3537 0.930 . S
C3545 C3543 1.419 . S
C3545 C3546 1.362 . S
C3546 H3538 0.930 . S
C3546 C3545 1.362 . S
C3546 C3549 1.409 . S
C3547 H3539 0.930 . S
C3547 C3548 1.355 . S
C3547 C3549 1.415 . S
C3548 C3547 1.355 . S
C3548 C3550 1.419 . S
C3549 C3544 1.425 . S
C3549 C3546 1.409 . S
C3549 C3547 1.415 . S
C3550 H3540 0.930 . S
C3550 C3548 1.419 . S
C3550 C3551 1.362 . S
C3551 H3541 0.930 . S
C3551 C3544 1.409 . S
C3551 C3550 1.362 . S
H3552 C3558 0.930 . S
H3553 C3561 0.930 . S
H3554 C3562 0.930 . S
H3555 C3563 0.930 . S
H3556 C3566 0.930 . S
H3557 C3567 0.930 . S
C3558 H3552 0.930 . S
C3558 C3559 1.355 . S
C3558 C3560 1.415 . S
C3559 C3558 1.355 . S
C3559 C3561 1.419 . S
C3560 C3558 1.415 . S
C3560 C3565 1.425 . S
C3560 C3567 1.409 . S
C3561 H3553 0.930 . S
C3561 C3559 1.419 . S
C3561 C3562 1.362 . S
C3562 H3554 0.930 . S
C3562 C3561 1.362 . S
C3562 C3565 1.409 . S
C3563 H3555 0.930 . S
C3563 C3564 1.355 . S
C3563 C3565 1.415 . S
C3564 C3563 1.355 . S
C3564 C3566 1.419 . S
C3565 C3560 1.425 . S
C3565 C3562 1.409 . S
C3565 C3563 1.415 . S
C3566 H3556 0.930 . S
C3566 C3564 1.419 . S
C3566 C3567 1.362 . S
C3567 H3557 0.930 . S
C3567 C3560 1.409 . S
C3567 C3566 1.362 . S
H3568 C3574 0.930 . S
H3569 C3577 0.930 . S
H3570 C3578 0.930 . S
H3571 C3579 0.930 . S
H3572 C3582 0.930 . S
H3573 C3583 0.930 . S
C3574 H3568 0.930 . S
C3574 C3575 1.355 . S
C3574 C3576 1.415 . S
C3575 C3574 1.355 . S
C3575 C3577 1.419 . S
C3576 C3574 1.415 . S
C3576 C3581 1.425 . S
C3576 C3583 1.409 . S
C3577 H3569 0.930 . S
C3577 C3575 1.419 . S
C3577 C3578 1.362 . S
C3578 H3570 0.930 . S
C3578 C3577 1.362 . S
C3578 C3581 1.409 . S
C3579 H3571 0.930 . S
C3579 C3580 1.355 . S
C3579 C3581 1.415 . S
C3580 C3579 1.355 . S
C3580 C3582 1.419 . S
C3581 C3576 1.425 . S
C3581 C3578 1.409 . S
C3581 C3579 1.415 . S
C3582 H3572 0.930 . S
C3582 C3580 1.419 . S
C3582 C3583 1.362 . S
C3583 H3573 0.930 . S
C3583 C3576 1.409 . S
C3583 C3582 1.362 . S
H3584 C3590 0.930 . S
H3585 C3593 0.930 . S
H3586 C3594 0.930 . S
H3587 C3595 0.930 . S
H3588 C3598 0.930 . S
H3589 C3599 0.930 . S
C3590 H3584 0.930 . S
C3590 C3591 1.355 . S
C3590 C3592 1.415 . S
C3591 C3590 1.355 . S
C3591 C3593 1.419 . S
C3592 C3590 1.415 . S
C3592 C3597 1.425 . S
C3592 C3599 1.409 . S
C3593 H3585 0.930 . S
C3593 C3591 1.419 . S
C3593 C3594 1.362 . S
C3594 H3586 0.930 . S
C3594 C3593 1.362 . S
C3594 C3597 1.409 . S
C3595 H3587 0.930 . S
C3595 C3596 1.355 . S
C3595 C3597 1.415 . S
C3596 C3595 1.355 . S
C3596 C3598 1.419 . S
C3597 C3592 1.425 . S
C3597 C3594 1.409 . S
C3597 C3595 1.415 . S
C3598 H3588 0.930 . S
C3598 C3596 1.419 . S
C3598 C3599 1.362 . S
C3599 H3589 0.930 . S
C3599 C3592 1.409 . S
C3599 C3598 1.362 . S
H3600 C3606 0.930 . S
H3601 C3609 0.930 . S
H3602 C3610 0.930 . S
H3603 C3611 0.930 . S
H3604 C3614 0.930 . S
H3605 C3615 0.930 . S
C3606 H3600 0.930 . S
C3606 C3607 1.355 . S
C3606 C3608 1.415 . S
C3607 C3606 1.355 . S
C3607 C3609 1.419 . S
C3608 C3606 1.415 . S
C3608 C3613 1.425 . S
C3608 C3615 1.409 . S
C3609 H3601 0.930 . S
C3609 C3607 1.419 . S
C3609 C3610 1.362 . S
C3610 H3602 0.930 . S
C3610 C3609 1.362 . S
C3610 C3613 1.409 . S
C3611 H3603 0.930 . S
C3611 C3612 1.355 . S
C3611 C3613 1.415 . S
C3612 C3611 1.355 . S
C3612 C3614 1.419 . S
C3613 C3608 1.425 . S
C3613 C3610 1.409 . S
C3613 C3611 1.415 . S
C3614 H3604 0.930 . S
C3614 C3612 1.419 . S
C3614 C3615 1.362 . S
C3615 H3605 0.930 . S
C3615 C3608 1.409 . S
C3615 C3614 1.362 . S
H3616 C3622 0.930 . S
H3617 C3625 0.930 . S
H3618 C3626 0.930 . S
H3619 C3627 0.930 . S
H3620 C3630 0.930 . S
H3621 C3631 0.930 . S
C3622 H3616 0.930 . S
C3622 C3623 1.355 . S
C3622 C3624 1.415 . S
C3623 C3622 1.355 . S
C3623 C3625 1.419 . S
C3624 C3622 1.415 . S
C3624 C3629 1.425 . S
C3624 C3631 1.409 . S
C3625 H3617 0.930 . S
C3625 C3623 1.419 . S
C3625 C3626 1.362 . S
C3626 H3618 0.930 . S
C3626 C3625 1.362 . S
C3626 C3629 1.409 . S
C3627 H3619 0.930 . S
C3627 C3628 1.355 . S
C3627 C3629 1.415 . S
C3628 C3627 1.355 . S
C3628 C3630 1.419 . S
C3629 C3624 1.425 . S
C3629 C3626 1.409 . S
C3629 C3627 1.415 . S
C3630 H3620 0.930 . S
C3630 C3628 1.419 . S
C3630 C3631 1.362 . S
C3631 H3621 0.930 . S
C3631 C3624 1.409 . S
C3631 C3630 1.362 . S
H3632 C3638 0.930 . S
H3633 C3641 0.930 . S
H3634 C3642 0.930 . S
H3635 C3643 0.930 . S
H3636 C3646 0.930 . S
H3637 C3647 0.930 . S
C3638 H3632 0.930 . S
C3638 C3639 1.355 . S
C3638 C3640 1.415 . S
C3639 C3638 1.355 . S
C3639 C3641 1.419 . S
C3640 C3638 1.415 . S
C3640 C3645 1.425 . S
C3640 C3647 1.409 . S
C3641 H3633 0.930 . S
C3641 C3639 1.419 . S
C3641 C3642 1.362 . S
C3642 H3634 0.930 . S
C3642 C3641 1.362 . S
C3642 C3645 1.409 . S
C3643 H3635 0.930 . S
C3643 C3644 1.355 . S
C3643 C3645 1.415 . S
C3644 C3643 1.355 . S
C3644 C3646 1.419 . S
C3645 C3640 1.425 . S
C3645 C3642 1.409 . S
C3645 C3643 1.415 . S
C3646 H3636 0.930 . S
C3646 C3644 1.419 . S
C3646 C3647 1.362 . S
C3647 H3637 0.930 . S
C3647 C3640 1.409 . S
C3647 C3646 1.362 . S
H3648 C3654 0.930 . S
H3649 C3657 0.930 . S
H3650 C3658 0.930 . S
H3651 C3659 0.930 . S
H3652 C3662 0.930 . S
H3653 C3663 0.930 . S
C3654 H3648 0.930 . S
C3654 C3655 1.355 . S
C3654 C3656 1.415 . S
C3655 C3654 1.355 . S
C3655 C3657 1.419 . S
C3656 C3654 1.415 . S
C3656 C3661 1.425 . S
C3656 C3663 1.409 . S
C3657 H3649 0.930 . S
C3657 C3655 1.419 . S
C3657 C3658 1.362 . S
C3658 H3650 0.930 . S
C3658 C3657 1.362 . S
C3658 C3661 1.409 . S
C3659 H3651 0.930 . S
C3659 C3660 1.355 . S
C3659 C3661 1.415 . S
C3660 C3659 1.355 . S
C3660 C3662 1.419 . S
C3661 C3656 1.425 . S
C3661 C3658 1.409 . S
C3661 C3659 1.415 . S
C3662 H3652 0.930 . S
C3662 C3660 1.419 . S
C3662 C3663 1.362 . S
C3663 H3653 0.930 . S
C3663 C3656 1.409 . S
C3663 C3662 1.362 . S
H3664 C3670 0.930 1_556 S
H3665 C3673 0.930 . S
H3666 C3674 0.930 . S
H3667 C3675 0.930 . S
H3668 C3678 0.930 . S
H3669 C3679 0.930 . S
C3670 H3664 0.930 1_554 S
C3670 C3671 1.355 . S
C3670 C3672 1.420 . S
C3671 C3670 1.355 . S
C3671 C3673 1.419 . S
C3672 C3670 1.420 . S
C3672 C3677 1.446 . S
C3672 C3679 1.384 1_554 S
C3673 H3665 0.930 . S
C3673 C3671 1.419 . S
C3673 C3674 1.362 . S
C3674 H3666 0.930 . S
C3674 C3673 1.362 . S
C3674 C3677 1.409 . S
C3675 H3667 0.930 . S
C3675 C3676 1.355 1_554 S
C3675 C3677 1.415 . S
C3676 C3675 1.355 1_556 S
C3676 C3678 1.419 . S
C3677 C3672 1.446 . S
C3677 C3674 1.409 . S
C3677 C3675 1.415 . S
C3678 H3668 0.930 . S
C3678 C3676 1.419 . S
C3678 C3679 1.362 . S
C3679 H3669 0.930 . S
C3679 C3672 1.384 1_556 S
C3679 C3678 1.362 . S
H3680 C3686 0.930 . S
H3681 C3689 0.930 . S
H3682 C3690 0.930 . S
H3683 C3691 0.930 . S
H3684 C3694 0.930 . S
H3685 C3695 0.930 1_455 S
C3686 H3680 0.930 . S
C3686 C3687 1.355 . S
C3686 C3688 1.415 1_455 S
C3687 C3686 1.355 . S
C3687 C3689 1.419 . S
C3688 C3686 1.415 1_655 S
C3688 C3693 1.425 . S
C3688 C3695 1.409 . S
C3689 H3681 0.930 . S
C3689 C3687 1.419 . S
C3689 C3690 1.362 1_455 S
C3690 H3682 0.930 . S
C3690 C3689 1.362 1_655 S
C3690 C3693 1.409 . S
C3691 H3683 0.930 . S
C3691 C3692 1.355 . S
C3691 C3693 1.415 . S
C3692 C3691 1.355 . S
C3692 C3694 1.419 . S
C3693 C3688 1.425 . S
C3693 C3690 1.409 . S
C3693 C3691 1.415 . S
C3694 H3684 0.930 . S
C3694 C3692 1.419 . S
C3694 C3695 1.362 . S
C3695 H3685 0.930 1_655 S
C3695 C3688 1.409 . S
C3695 C3694 1.362 . S
H3696 C3702 0.930 . S
H3697 C3705 0.930 . S
H3698 C3706 0.930 . S
H3699 C3707 0.930 . S
H3700 C3710 0.930 . S
H3701 C3711 0.930 . S
C3702 H3696 0.930 . S
C3702 C3703 1.355 . S
C3702 C3704 1.415 . S
C3703 C3702 1.355 . S
C3703 C3705 1.419 . S
C3704 C3702 1.415 . S
C3704 C3709 1.425 . S
C3704 C3711 1.409 . S
C3705 H3697 0.930 . S
C3705 C3703 1.419 . S
C3705 C3706 1.362 . S
C3706 H3698 0.930 . S
C3706 C3705 1.362 . S
C3706 C3709 1.409 . S
C3707 H3699 0.930 . S
C3707 C3708 1.355 . S
C3707 C3709 1.415 . S
C3708 C3707 1.355 . S
C3708 C3710 1.419 . S
C3709 C3704 1.425 . S
C3709 C3706 1.409 . S
C3709 C3707 1.415 . S
C3710 H3700 0.930 . S
C3710 C3708 1.419 . S
C3710 C3711 1.362 . S
C3711 H3701 0.930 . S
C3711 C3704 1.409 . S
C3711 C3710 1.362 . S
H3712 C3718 0.930 . S
H3713 C3721 0.930 . S
H3714 C3722 0.930 . S
H3715 C3723 0.930 . S
H3716 C3726 0.930 . S
H3717 C3727 0.930 . S
C3718 H3712 0.930 . S
C3718 C3719 1.355 . S
C3718 C3720 1.415 . S
C3719 C3718 1.355 . S
C3719 C3721 1.419 . S
C3720 C3718 1.415 . S
C3720 C3725 1.425 . S
C3720 C3727 1.409 . S
C3721 H3713 0.930 . S
C3721 C3719 1.419 . S
C3721 C3722 1.362 . S
C3722 H3714 0.930 . S
C3722 C3721 1.362 . S
C3722 C3725 1.409 . S
C3723 H3715 0.930 . S
C3723 C3724 1.355 . S
C3723 C3725 1.415 . S
C3724 C3723 1.355 . S
C3724 C3726 1.419 . S
C3725 C3720 1.425 . S
C3725 C3722 1.409 . S
C3725 C3723 1.415 . S
C3726 H3716 0.930 . S
C3726 C3724 1.419 . S
C3726 C3727 1.362 . S
C3727 H3717 0.930 . S
C3727 C3720 1.409 . S
C3727 C3726 1.362 . S
H3728 C3734 0.930 . S
H3729 C3737 0.930 . S
H3730 C3738 0.930 . S
H3731 C3739 0.930 . S
H3732 C3742 0.930 . S
H3733 C3743 0.930 . S
C3734 H3728 0.930 . S
C3734 C3735 1.355 . S
C3734 C3736 1.415 . S
C3735 C3734 1.355 . S
C3735 C3737 1.419 . S
C3736 C3734 1.415 . S
C3736 C3741 1.425 . S
C3736 C3743 1.409 . S
C3737 H3729 0.930 . S
C3737 C3735 1.419 . S
C3737 C3738 1.362 . S
C3738 H3730 0.930 . S
C3738 C3737 1.362 . S
C3738 C3741 1.409 . S
C3739 H3731 0.930 . S
C3739 C3740 1.355 . S
C3739 C3741 1.415 . S
C3740 C3739 1.355 . S
C3740 C3742 1.419 . S
C3741 C3736 1.425 . S
C3741 C3738 1.409 . S
C3741 C3739 1.415 . S
C3742 H3732 0.930 . S
C3742 C3740 1.419 . S
C3742 C3743 1.362 . S
C3743 H3733 0.930 . S
C3743 C3736 1.409 . S
C3743 C3742 1.362 . S
H3744 C3750 0.930 . S
H3745 C3753 0.930 . S
H3746 C3754 0.930 . S
H3747 C3755 0.930 . S
H3748 C3758 0.930 . S
H3749 C3759 0.930 . S
C3750 H3744 0.930 . S
C3750 C3751 1.355 . S
C3750 C3752 1.415 . S
C3751 C3750 1.355 . S
C3751 C3753 1.419 . S
C3752 C3750 1.415 . S
C3752 C3757 1.425 . S
C3752 C3759 1.409 . S
C3753 H3745 0.930 . S
C3753 C3751 1.419 . S
C3753 C3754 1.362 . S
C3754 H3746 0.930 . S
C3754 C3753 1.362 . S
C3754 C3757 1.409 . S
C3755 H3747 0.930 . S
C3755 C3756 1.355 . S
C3755 C3757 1.415 . S
C3756 C3755 1.355 . S
C3756 C3758 1.419 . S
C3757 C3752 1.425 . S
C3757 C3754 1.409 . S
C3757 C3755 1.415 . S
C3758 H3748 0.930 . S
C3758 C3756 1.419 . S
C3758 C3759 1.362 . S
C3759 H3749 0.930 . S
C3759 C3752 1.409 . S
C3759 C3758 1.362 . S
H3760 C3766 0.930 . S
H3761 C3769 0.930 . S
H3762 C3770 0.930 . S
H3763 C3771 0.930 . S
H3764 C3774 0.930 . S
H3765 C3775 0.930 . S
C3766 H3760 0.930 . S
C3766 C3767 1.355 . S
C3766 C3768 1.415 . S
C3767 C3766 1.355 . S
C3767 C3769 1.419 . S
C3768 C3766 1.415 . S
C3768 C3773 1.425 . S
C3768 C3775 1.409 . S
C3769 H3761 0.930 . S
C3769 C3767 1.419 . S
C3769 C3770 1.362 . S
C3770 H3762 0.930 . S
C3770 C3769 1.362 . S
C3770 C3773 1.409 . S
C3771 H3763 0.930 . S
C3771 C3772 1.355 . S
C3771 C3773 1.415 . S
C3772 C3771 1.355 . S
C3772 C3774 1.419 . S
C3773 C3768 1.425 . S
C3773 C3770 1.409 . S
C3773 C3771 1.415 . S
C3774 H3764 0.930 . S
C3774 C3772 1.419 . S
C3774 C3775 1.362 . S
C3775 H3765 0.930 . S
C3775 C3768 1.409 . S
C3775 C3774 1.362 . S
H3776 C3782 0.930 . S
H3777 C3785 0.930 . S
H3778 C3786 0.930 . S
H3779 C3787 0.930 . S
H3780 C3790 0.930 . S
H3781 C3791 0.930 . S
C3782 H3776 0.930 . S
C3782 C3783 1.355 . S
C3782 C3784 1.415 . S
C3783 C3782 1.355 . S
C3783 C3785 1.419 . S
C3784 C3782 1.415 . S
C3784 C3789 1.425 . S
C3784 C3791 1.409 . S
C3785 H3777 0.930 . S
C3785 C3783 1.419 . S
C3785 C3786 1.362 . S
C3786 H3778 0.930 . S
C3786 C3785 1.362 . S
C3786 C3789 1.409 . S
C3787 H3779 0.930 . S
C3787 C3788 1.355 . S
C3787 C3789 1.415 . S
C3788 C3787 1.355 . S
C3788 C3790 1.419 . S
C3789 C3784 1.425 . S
C3789 C3786 1.409 . S
C3789 C3787 1.415 . S
C3790 H3780 0.930 . S
C3790 C3788 1.419 . S
C3790 C3791 1.362 . S
C3791 H3781 0.930 . S
C3791 C3784 1.409 . S
C3791 C3790 1.362 . S
H3792 C3798 0.930 . S
H3793 C3801 0.930 . S
H3794 C3802 0.930 . S
H3795 C3803 0.930 . S
H3796 C3806 0.930 . S
H3797 C3807 0.930 . S
C3798 H3792 0.930 . S
C3798 C3799 1.355 . S
C3798 C3800 1.415 . S
C3799 C3798 1.355 . S
C3799 C3801 1.419 . S
C3800 C3798 1.415 . S
C3800 C3805 1.425 . S
C3800 C3807 1.409 . S
C3801 H3793 0.930 . S
C3801 C3799 1.419 . S
C3801 C3802 1.362 . S
C3802 H3794 0.930 . S
C3802 C3801 1.362 . S
C3802 C3805 1.409 . S
C3803 H3795 0.930 . S
C3803 C3804 1.355 . S
C3803 C3805 1.415 . S
C3804 C3803 1.355 . S
C3804 C3806 1.419 . S
C3805 C3800 1.425 . S
C3805 C3802 1.409 . S
C3805 C3803 1.415 . S
C3806 H3796 0.930 . S
C3806 C3804 1.419 . S
C3806 C3807 1.362 . S
C3807 H3797 0.930 . S
C3807 C3800 1.409 . S
C3807 C3806 1.362 . S
H3808 C3814 0.930 . S
H3809 C3817 0.930 . S
H3810 C3818 0.930 . S
H3811 C3819 0.930 . S
H3812 C3822 0.930 . S
H3813 C3823 0.930 . S
C3814 H3808 0.930 . S
C3814 C3815 1.355 . S
C3814 C3816 1.415 . S
C3815 C3814 1.355 . S
C3815 C3817 1.419 . S
C3816 C3814 1.415 . S
C3816 C3821 1.425 . S
C3816 C3823 1.409 . S
C3817 H3809 0.930 . S
C3817 C3815 1.419 . S
C3817 C3818 1.362 . S
C3818 H3810 0.930 . S
C3818 C3817 1.362 . S
C3818 C3821 1.409 . S
C3819 H3811 0.930 . S
C3819 C3820 1.355 . S
C3819 C3821 1.415 . S
C3820 C3819 1.355 . S
C3820 C3822 1.419 . S
C3821 C3816 1.425 . S
C3821 C3818 1.409 . S
C3821 C3819 1.415 . S
C3822 H3812 0.930 . S
C3822 C3820 1.419 . S
C3822 C3823 1.362 . S
C3823 H3813 0.930 . S
C3823 C3816 1.409 . S
C3823 C3822 1.362 . S
H3824 C3830 0.930 . S
H3825 C3833 0.930 . S
H3826 C3834 0.930 . S
H3827 C3835 0.930 . S
H3828 C3838 0.930 . S
H3829 C3839 0.930 . S
C3830 H3824 0.930 . S
C3830 C3831 1.355 . S
C3830 C3832 1.415 . S
C3831 C3830 1.355 . S
C3831 C3833 1.419 . S
C3832 C3830 1.415 . S
C3832 C3837 1.425 . S
C3832 C3839 1.409 . S
C3833 H3825 0.930 . S
C3833 C3831 1.419 . S
C3833 C3834 1.362 . S
C3834 H3826 0.930 . S
C3834 C3833 1.362 . S
C3834 C3837 1.409 . S
C3835 H3827 0.930 . S
C3835 C3836 1.355 . S
C3835 C3837 1.415 . S
C3836 C3835 1.355 . S
C3836 C3838 1.419 . S
C3837 C3832 1.425 . S
C3837 C3834 1.409 . S
C3837 C3835 1.415 . S
C3838 H3828 0.930 . S
C3838 C3836 1.419 . S
C3838 C3839 1.362 . S
C3839 H3829 0.930 . S
C3839 C3832 1.409 . S
C3839 C3838 1.362 . S
H3840 C3846 0.930 . S
H3841 C3849 0.930 . S
H3842 C3850 0.930 . S
H3843 C3851 0.930 . S
H3844 C3854 0.930 . S
H3845 C3855 0.930 . S
C3846 H3840 0.930 . S
C3846 C3847 1.355 . S
C3846 C3848 1.415 . S
C3847 C3846 1.355 . S
C3847 C3849 1.419 . S
C3848 C3846 1.415 . S
C3848 C3853 1.425 . S
C3848 C3855 1.409 . S
C3849 H3841 0.930 . S
C3849 C3847 1.419 . S
C3849 C3850 1.362 . S
C3850 H3842 0.930 . S
C3850 C3849 1.362 . S
C3850 C3853 1.409 . S
C3851 H3843 0.930 . S
C3851 C3852 1.355 . S
C3851 C3853 1.415 . S
C3852 C3851 1.355 . S
C3852 C3854 1.419 . S
C3853 C3848 1.425 . S
C3853 C3850 1.409 . S
C3853 C3851 1.415 . S
C3854 H3844 0.930 . S
C3854 C3852 1.419 . S
C3854 C3855 1.362 . S
C3855 H3845 0.930 . S
C3855 C3848 1.409 . S
C3855 C3854 1.362 . S
H3856 C3862 0.930 . S
H3857 C3865 0.930 . S
H3858 C3866 0.930 . S
H3859 C3867 0.930 . S
H3860 C3870 0.930 . S
H3861 C3871 0.930 . S
C3862 H3856 0.930 . S
C3862 C3863 1.355 . S
C3862 C3864 1.415 . S
C3863 C3862 1.355 . S
C3863 C3865 1.419 . S
C3864 C3862 1.415 . S
C3864 C3869 1.425 . S
C3864 C3871 1.409 . S
C3865 H3857 0.930 . S
C3865 C3863 1.419 . S
C3865 C3866 1.362 . S
C3866 H3858 0.930 . S
C3866 C3865 1.362 . S
C3866 C3869 1.409 . S
C3867 H3859 0.930 . S
C3867 C3868 1.355 . S
C3867 C3869 1.415 . S
C3868 C3867 1.355 . S
C3868 C3870 1.419 . S
C3869 C3864 1.425 . S
C3869 C3866 1.409 . S
C3869 C3867 1.415 . S
C3870 H3860 0.930 . S
C3870 C3868 1.419 . S
C3870 C3871 1.362 . S
C3871 H3861 0.930 . S
C3871 C3864 1.409 . S
C3871 C3870 1.362 . S
H3872 C3878 0.930 . S
H3873 C3881 0.930 . S
H3874 C3882 0.930 . S
H3875 C3883 0.930 . S
H3876 C3886 0.930 . S
H3877 C3887 0.930 . S
C3878 H3872 0.930 . S
C3878 C3879 1.355 . S
C3878 C3880 1.415 . S
C3879 C3878 1.355 . S
C3879 C3881 1.419 . S
C3880 C3878 1.415 . S
C3880 C3885 1.425 . S
C3880 C3887 1.409 . S
C3881 H3873 0.930 . S
C3881 C3879 1.419 . S
C3881 C3882 1.362 . S
C3882 H3874 0.930 . S
C3882 C3881 1.362 . S
C3882 C3885 1.409 . S
C3883 H3875 0.930 . S
C3883 C3884 1.355 . S
C3883 C3885 1.415 . S
C3884 C3883 1.355 . S
C3884 C3886 1.419 . S
C3885 C3880 1.425 . S
C3885 C3882 1.409 . S
C3885 C3883 1.415 . S
C3886 H3876 0.930 . S
C3886 C3884 1.419 . S
C3886 C3887 1.362 . S
C3887 H3877 0.930 . S
C3887 C3880 1.409 . S
C3887 C3886 1.362 . S
H3888 C3894 0.930 . S
H3889 C3897 0.930 . S
H3890 C3898 0.930 . S
H3891 C3899 0.930 . S
H3892 C3902 0.930 . S
H3893 C3903 0.930 . S
C3894 H3888 0.930 . S
C3894 C3895 1.355 . S
C3894 C3896 1.415 . S
C3895 C3894 1.355 . S
C3895 C3897 1.419 . S
C3896 C3894 1.415 . S
C3896 C3901 1.425 . S
C3896 C3903 1.409 . S
C3897 H3889 0.930 . S
C3897 C3895 1.419 . S
C3897 C3898 1.362 . S
C3898 H3890 0.930 . S
C3898 C3897 1.362 . S
C3898 C3901 1.409 . S
C3899 H3891 0.930 . S
C3899 C3900 1.355 . S
C3899 C3901 1.415 . S
C3900 C3899 1.355 . S
C3900 C3902 1.419 . S
C3901 C3896 1.425 . S
C3901 C3898 1.409 . S
C3901 C3899 1.415 . S
C3902 H3892 0.930 . S
C3902 C3900 1.419 . S
C3902 C3903 1.362 . S
C3903 H3893 0.930 . S
C3903 C3896 1.409 . S
C3903 C3902 1.362 . S
H3904 C3910 0.930 . S
H3905 C3913 0.930 . S
H3906 C3914 0.930 . S
H3907 C3915 0.930 . S
H3908 C3918 0.930 . S
H3909 C3919 0.930 . S
C3910 H3904 0.930 . S
C3910 C3911 1.355 . S
C3910 C3912 1.415 . S
C3911 C3910 1.355 . S
C3911 C3913 1.419 . S
C3912 C3910 1.415 . S
C3912 C3917 1.425 . S
C3912 C3919 1.409 . S
C3913 H3905 0.930 . S
C3913 C3911 1.419 . S
C3913 C3914 1.362 . S
C3914 H3906 0.930 . S
C3914 C3913 1.362 . S
C3914 C3917 1.409 . S
C3915 H3907 0.930 . S
C3915 C3916 1.355 . S
C3915 C3917 1.415 . S
C3916 C3915 1.355 . S
C3916 C3918 1.419 . S
C3917 C3912 1.425 . S
C3917 C3914 1.409 . S
C3917 C3915 1.415 . S
C3918 H3908 0.930 . S
C3918 C3916 1.419 . S
C3918 C3919 1.362 . S
C3919 H3909 0.930 . S
C3919 C3912 1.409 . S
C3919 C3918 1.362 . S
H3920 C3926 0.930 . S
H3921 C3929 0.930 . S
H3922 C3930 0.930 . S
H3923 C3931 0.930 . S
H3924 C3934 0.930 . S
H3925 C3935 0.930 . S
C3926 H3920 0.930 . S
C3926 C3927 1.355 . S
C3926 C3928 1.415 . S
C3927 C3926 1.355 . S
C3927 C3929 1.419 . S
C3928 C3926 1.415 . S
C3928 C3933 1.425 . S
C3928 C3935 1.409 . S
C3929 H3921 0.930 . S
C3929 C3927 1.419 . S
C3929 C3930 1.362 . S
C3930 H3922 0.930 . S
C3930 C3929 1.362 . S
C3930 C3933 1.409 . S
C3931 H3923 0.930 . S
C3931 C3932 1.355 . S
C3931 C3933 1.415 . S
C3932 C3931 1.355 . S
C3932 C3934 1.419 . S
C3933 C3928 1.425 . S
C3933 C3930 1.409 . S
C3933 C3931 1.415 . S
C3934 H3924 0.930 . S
C3934 C3932 1.419 . S
C3934 C3935 1.362 . S
C3935 H3925 0.930 . S
C3935 C3928 1.409 . S
C3935 C3934 1.362 . S
H3936 C3942 0.930 . S
H3937 C3945 0.930 . S
H3938 C3946 0.930 . S
H3939 C3947 0.930 . S
H3940 C3950 0.930 . S
H3941 C3951 0.930 . S
C3942 H3936 0.930 . S
C3942 C3943 1.355 . S
C3942 C3944 1.415 . S
C3943 C3942 1.355 . S
C3943 C3945 1.419 . S
C3944 C3942 1.415 . S
C3944 C3949 1.425 . S
C3944 C3951 1.409 . S
C3945 H3937 0.930 . S
C3945 C3943 1.419 . S
C3945 C3946 1.362 . S
C3946 H3938 0.930 . S
C3946 C3945 1.362 . S
C3946 C3949 1.409 . S
C3947 H3939 0.930 . S
C3947 C3948 1.355 . S
C3947 C3949 1.415 . S
C3948 C3947 1.355 . S
C3948 C3950 1.419 . S
C3949 C3944 1.425 . S
C3949 C3946 1.409 . S
C3949 C3947 1.415 . S
C3950 H3940 0.930 . S
C3950 C3948 1.419 . S
C3950 C3951 1.362 . S
C3951 H3941 0.930 . S
C3951 C3944 1.409 . S
C3951 C3950 1.362 . S
H3952 C3958 0.930 . S
H3953 C3961 0.930 . S
H3954 C3962 0.930 . S
H3955 C3963 0.930 . S
H3956 C3966 0.930 . S
H3957 C3967 0.930 . S
C3958 H3952 0.930 . S
C3958 C3959 1.355 . S
C3958 C3960 1.415 . S
C3959 C3958 1.355 . S
C3959 C3961 1.419 . S
C3960 C3958 1.415 . S
C3960 C3965 1.425 . S
C3960 C3967 1.409 . S
C3961 H3953 0.930 . S
C3961 C3959 1.419 . S
C3961 C3962 1.362 . S
C3962 H3954 0.930 . S
C3962 C3961 1.362 . S
C3962 C3965 1.409 . S
C3963 H3955 0.930 . S
C3963 C3964 1.355 . S
C3963 C3965 1.415 . S
C3964 C3963 1.355 . S
C3964 C3966 1.419 . S
C3965 C3960 1.425 . S
C3965 C3962 1.409 . S
C3965 C3963 1.415 . S
C3966 H3956 0.930 . S
C3966 C3964 1.419 . S
C3966 C3967 1.362 . S
C3967 H3957 0.930 . S
C3967 C3960 1.409 . S
C3967 C3966 1.362 . S
H3968 C3974 0.930 . S
H3969 C3977 0.930 . S
H3970 C3978 0.930 . S
H3971 C3979 0.930 . S
H3972 C3982 0.930 . S
H3973 C3983 0.930 . S
C3974 H3968 0.930 . S
C3974 C3975 1.355 . S
C3974 C3976 1.415 . S
C3975 C3974 1.355 . S
C3975 C3977 1.419 . S
C3976 C3974 1.415 . S
C3976 C3981 1.425 . S
C3976 C3983 1.409 . S
C3977 H3969 0.930 . S
C3977 C3975 1.419 . S
C3977 C3978 1.362 . S
C3978 H3970 0.930 . S
C3978 C3977 1.362 . S
C3978 C3981 1.409 . S
C3979 H3971 0.930 . S
C3979 C3980 1.355 . S
C3979 C3981 1.415 . S
C3980 C3979 1.355 . S
C3980 C3982 1.419 . S
C3981 C3976 1.425 . S
C3981 C3978 1.409 . S
C3981 C3979 1.415 . S
C3982 H3972 0.930 . S
C3982 C3980 1.419 . S
C3982 C3983 1.362 . S
C3983 H3973 0.930 . S
C3983 C3976 1.409 . S
C3983 C3982 1.362 . S
H3984 C3990 0.930 . S
H3985 C3993 0.930 . S
H3986 C3994 0.930 . S
H3987 C3995 0.930 . S
H3988 C3998 0.930 . S
H3989 C3999 0.930 . S
C3990 H3984 0.930 . S
C3990 C3991 1.355 . S
C3990 C3992 1.415 . S
C3991 C3990 1.355 . S
C3991 C3993 1.419 . S
C3992 C3990 1.415 . S
C3992 C3997 1.425 . S
C3992 C3999 1.409 . S
C3993 H3985 0.930 . S
C3993 C3991 1.419 . S
C3993 C3994 1.362 . S
C3994 H3986 0.930 . S
C3994 C3993 1.362 . S
C3994 C3997 1.409 . S
C3995 H3987 0.930 . S
C3995 C3996 1.355 . S
C3995 C3997 1.415 . S
C3996 C3995 1.355 . S
C3996 C3998 1.419 . S
C3997 C3992 1.425 . S
C3997 C3994 1.409 . S
C3997 C3995 1.415 . S
C3998 H3988 0.930 . S
C3998 C3996 1.419 . S
C3998 C3999 1.362 . S
C3999 H3989 0.930 . S
C3999 C3992 1.409 . S
C3999 C3998 1.362 . S
H4000 C4006 0.930 . S
H4001 C4009 0.930 . S
H4002 C4010 0.930 . S
H4003 C4011 0.930 . S
H4004 C4014 0.930 . S
H4005 C4015 0.930 . S
C4006 H4000 0.930 . S
C4006 C4007 1.355 . S
C4006 C4008 1.415 . S
C4007 C4006 1.355 . S
C4007 C4009 1.419 . S
C4008 C4006 1.415 . S
C4008 C4013 1.425 . S
C4008 C4015 1.409 . S
C4009 H4001 0.930 . S
C4009 C4007 1.419 . S
C4009 C4010 1.362 . S
C4010 H4002 0.930 . S
C4010 C4009 1.362 . S
C4010 C4013 1.409 . S
C4011 H4003 0.930 . S
C4011 C4012 1.355 . S
C4011 C4013 1.415 . S
C4012 C4011 1.355 . S
C4012 C4014 1.419 . S
C4013 C4008 1.425 . S
C4013 C4010 1.409 . S
C4013 C4011 1.415 . S
C4014 H4004 0.930 . S
C4014 C4012 1.419 . S
C4014 C4015 1.362 . S
C4015 H4005 0.930 . S
C4015 C4008 1.409 . S
C4015 C4014 1.362 . S
H4016 C4022 0.930 . S
H4017 C4025 0.930 . S
H4018 C4026 0.930 . S
H4019 C4027 0.930 . S
H4020 C4030 0.930 . S
H4021 C4031 0.930 . S
C4022 H4016 0.930 . S
C4022 C4023 1.355 . S
C4022 C4024 1.415 . S
C4023 C4022 1.355 . S
C4023 C4025 1.419 . S
C4024 C4022 1.415 . S
C4024 C4029 1.425 . S
C4024 C4031 1.409 . S
C4025 H4017 0.930 . S
C4025 C4023 1.419 . S
C4025 C4026 1.362 . S
C4026 H4018 0.930 . S
C4026 C4025 1.362 . S
C4026 C4029 1.409 . S
C4027 H4019 0.930 . S
C4027 C4028 1.355 . S
C4027 C4029 1.415 . S
C4028 C4027 1.355 . S
C4028 C4030 1.419 . S
C4029 C4024 1.425 . S
C4029 C4026 1.409 . S
C4029 C4027 1.415 . S
C4030 H4020 0.930 . S
C4030 C4028 1.419 . S
C4030 C4031 1.362 . S
C4031 H4021 0.930 . S
C4031 C4024 1.409 . S
C4031 C4030 1.362 . S
H4032 C4038 0.930 . S
H4033 C4041 0.930 . S
H4034 C4042 0.930 . S
H4035 C4043 0.930 . S
H4036 C4046 0.930 . S
H4037 C4047 0.930 . S
C4038 H4032 0.930 . S
C4038 C4039 1.355 . S
C4038 C4040 1.415 . S
C4039 C4038 1.355 . S
C4039 C4041 1.419 . S
C4040 C4038 1.415 . S
C4040 C4045 1.425 . S
C4040 C4047 1.409 . S
C4041 H4033 0.930 . S
C4041 C4039 1.419 . S
C4041 C4042 1.362 . S
C4042 H4034 0.930 . S
C4042 C4041 1.362 . S
C4042 C4045 1.409 . S
C4043 H4035 0.930 . S
C4043 C4044 1.355 . S
C4043 C4045 1.415 . S
C4044 C4043 1.355 . S
C4044 C4046 1.419 . S
C4045 C4040 1.425 . S
C4045 C4042 1.409 . S
C4045 C4043 1.415 . S
C4046 H4036 0.930 . S
C4046 C4044 1.419 . S
C4046 C4047 1.362 . S
C4047 H4037 0.930 . S
C4047 C4040 1.409 . S
C4047 C4046 1.362 . S
H4048 C4054 0.930 . S
H4049 C4057 0.930 . S
H4050 C4058 0.930 . S
H4051 C4059 0.930 . S
H4052 C4062 0.930 . S
H4053 C4063 0.930 . S
C4054 H4048 0.930 . S
C4054 C4055 1.355 . S
C4054 C4056 1.415 . S
C4055 C4054 1.355 . S
C4055 C4057 1.419 . S
C4056 C4054 1.415 . S
C4056 C4061 1.425 . S
C4056 C4063 1.409 . S
C4057 H4049 0.930 . S
C4057 C4055 1.419 . S
C4057 C4058 1.362 . S
C4058 H4050 0.930 . S
C4058 C4057 1.362 . S
C4058 C4061 1.409 . S
C4059 H4051 0.930 . S
C4059 C4060 1.355 . S
C4059 C4061 1.415 . S
C4060 C4059 1.355 . S
C4060 C4062 1.419 . S
C4061 C4056 1.425 . S
C4061 C4058 1.409 . S
C4061 C4059 1.415 . S
C4062 H4052 0.930 . S
C4062 C4060 1.419 . S
C4062 C4063 1.362 . S
C4063 H4053 0.930 . S
C4063 C4056 1.409 . S
C4063 C4062 1.362 . S
H4064 C4070 0.930 . S
H4065 C4073 0.930 . S
H4066 C4074 0.930 . S
H4067 C4075 0.930 . S
H4068 C4078 0.930 . S
H4069 C4079 0.930 . S
C4070 H4064 0.930 . S
C4070 C4071 1.355 . S
C4070 C4072 1.415 . S
C4071 C4070 1.355 . S
C4071 C4073 1.419 . S
C4072 C4070 1.415 . S
C4072 C4077 1.425 . S
C4072 C4079 1.409 . S
C4073 H4065 0.930 . S
C4073 C4071 1.419 . S
C4073 C4074 1.362 . S
C4074 H4066 0.930 . S
C4074 C4073 1.362 . S
C4074 C4077 1.409 . S
C4075 H4067 0.930 . S
C4075 C4076 1.355 . S
C4075 C4077 1.415 . S
C4076 C4075 1.355 . S
C4076 C4078 1.419 . S
C4077 C4072 1.425 . S
C4077 C4074 1.409 . S
C4077 C4075 1.415 . S
C4078 H4068 0.930 . S
C4078 C4076 1.419 . S
C4078 C4079 1.362 . S
C4079 H4069 0.930 . S
C4079 C4072 1.409 . S
C4079 C4078 1.362 . S
C2551 C499 2.346 . S
C2556 C22 2.347 . S
C2567 C552 2.644 . S
C2572 C91 2.647 . S
C2583 C605 2.334 . S
C2588 C128 2.349 . S
C2599 C446 2.629 . S
C2604 C197 2.656 . S
C2615 C234 2.332 . S
C2620 C817 2.350 . S
C2631 C303 2.648 . S
C2636 C658 2.638 . S
C2647 C340 2.357 . S
C2652 C711 2.333 . S
C2663 C764 2.630 . S
C2668 C409 2.657 . S
C2679 C886 2.655 . S
C2684 C976 2.644 . S
C2695 C939 2.652 . S
C2700 C2460 2.632 . S
C2711 C1045 2.652 . S
C2716 C2513 2.648 . S
C2727 C1082 2.644 . S
C2732 C2423 2.655 . S
C2743 C1151 2.648 . S
C2748 C2354 2.648 . S
C2759 C2211 2.647 . S
C2764 C1188 2.642 . S
C2775 C1241 2.637 . S
C2780 C2317 2.658 . S
C2791 C1771 2.338 . S
C2796 C1294 2.344 . S
C2807 C1824 2.636 . S
C2812 C1363 2.649 . S
C2823 C1877 2.333 . S
C2828 C1400 2.350 . S
C2839 C1718 2.631 . S
C2844 C1469 2.658 . S
C2855 C2089 2.346 . S
C2860 C1506 2.347 . S
C2871 C1930 2.629 . S
C2876 C1575 2.657 . S
C2887 C1612 2.343 . S
C2892 C1983 2.339 . S
C2903 C1681 2.647 . S
C2908 C2036 2.642 . S
C2919 C2158 2.658 . S
C2924 C2248 2.636 . S
C2935 C870 1.363 . S
C2940 C29 1.403 . S
C2951 C2529 1.260 . S
C2956 C92 1.291 . S
C2967 C135 1.393 . S
C2972 C1135 1.346 . S
C2983 C2476 1.309 . S
C2988 C198 1.318 . S
C2999 C241 1.477 . S
C3004 C2195 1.425 . S
C3015 C2264 1.298 . S
C3020 C304 1.314 . S
C3031 C347 1.490 . S
C3036 C2301 1.457 . S
C3047 C1098 1.267 . S
C3052 C410 1.291 . S
C3063 C453 1.312 . S
C3068 C38 1.291 . S
C3079 C75 1.385 . S
C3084 C506 1.444 . S
C3095 C559 1.352 . S
C3100 C144 1.347 . S
C3111 C181 1.378 . S
C3116 C612 1.415 . S
C3127 C665 1.354 . S
C3132 C250 1.349 . S
C3143 C287 1.433 . S
C3148 C718 1.463 . S
C3159 C771 1.329 . S
C3164 C356 1.317 . S
C3175 C824 1.442 . S
C3180 C393 1.411 . S
C3191 C887 1.314 . S
C3196 C462 1.314 . S
C3207 C940 1.317 . S
C3212 C1946 1.316 . S
C3223 C1999 1.317 . S
C3228 C983 1.334 . S
C3239 C2052 1.299 . S
C3244 C1046 1.314 . S
C3255 C833 1.314 . S
C3260 C1089 1.327 . S
C3271 C1152 1.311 . S
C3276 C568 1.310 . S
C3287 C1893 1.325 . S
C3292 C1195 1.335 . S
C3303 C1248 1.344 . S
C3308 C1787 1.338 . S
C3319 C1301 1.406 . S
C3324 C2142 1.347 . S
C3335 C1364 1.310 . S
C3340 C1257 1.309 . S
C3351 C1407 1.403 . S
C3356 C2407 1.345 . S
C3367 C1470 1.318 . S
C3372 C1204 1.315 . S
C3383 C1513 1.409 . S
C3388 C923 1.371 . S
C3399 C1576 1.317 . S
C3404 C992 1.309 . S
C3415 C1029 1.338 . S
C3420 C1619 1.391 . S
C3431 C2370 1.310 . S
C3436 C1682 1.318 . S
C3447 C1310 1.318 . S
C3452 C1725 1.329 . S
C3463 C1347 1.449 . S
C3468 C1778 1.480 . S
C3479 C1831 1.321 . S
C3484 C1416 1.300 . S
C3495 C1453 1.406 . S
C3500 C1884 1.438 . S
C3511 C1937 1.335 . S
C3516 C1522 1.325 . S
C3527 C1990 1.459 . S
C3532 C1559 1.403 . S
C3543 C2043 1.354 . S
C3548 C1628 1.346 . S
C3559 C1665 1.412 . S
C3564 C2096 1.443 . S
C3575 C2159 1.295 . S
C3580 C1734 1.280 . S
C3591 C2212 1.312 . S
C3596 C674 1.293 . S
C3607 C727 1.312 . S
C3612 C2255 1.330 . S
C3623 C2318 1.316 . S
C3628 C780 1.306 . S
C3639 C2361 1.327 . S
C3644 C2105 1.308 . S
C3655 C1840 1.311 . S
C3660 C2424 1.318 . S
C3671 C621 1.300 . S
C3676 C2467 1.322 . S
C3687 C515 1.295 . S
C3692 C2520 1.317 . S
C3703 C1205 1.586 . S
C3708 C39 1.615 . S
C3719 C82 1.909 . S
C3724 C2149 1.939 . S
C3735 C145 1.627 . S
C3740 C1258 1.606 . S
C3751 C2414 1.972 . S
C3756 C188 1.974 . S
C3767 C251 1.668 . S
C3772 C993 1.639 . S
C3783 C1036 1.975 . S
C3788 C294 1.969 . S
C3799 C2371 1.608 . S
C3804 C357 1.640 . S
C3815 C400 1.926 . S
C3820 C930 1.899 . S
C3831 C728 1.669 . S
C3836 C463 1.652 . S
C3847 C516 1.657 . S
C3852 C781 1.626 . S
C3863 C834 1.650 . S
C3868 C569 1.619 . S
C3879 C622 1.669 . S
C3884 C675 1.640 . S
C3895 C1354 1.904 . S
C3900 C877 1.933 . S
C3911 C1099 1.626 . S
C3916 C1629 1.657 . S
C3927 C1142 1.924 . S
C3932 C1460 1.954 . S
C3943 C2477 1.675 . S
C3948 C1311 1.695 . S
C3959 C1417 1.621 . S
C3964 C2530 1.598 . S
C3975 C1523 1.695 . S
C3980 C2265 1.673 . S
C3991 C1566 1.973 . S
C3996 C2308 1.954 . S
C4007 C2202 1.916 . S
C4012 C1672 1.893 . S
C4023 C2000 1.631 . S
C4028 C1735 1.611 . S
C4039 C1788 1.677 . S
C4044 C2053 1.650 . S
C4055 C1841 1.638 . S
C4060 C2106 1.655 . S
C4071 C1947 1.655 . S
C4076 C1894 1.672 . S
