# Generated by pormake.
# Topology afi, (4)-cn, num edge types: 1
# Building blocks:
#     Node 0, Type 0, BuildingBlock: QUQFOY_clean_sbu_3, # of connection points: 4
#     Node 1, Type 0, BuildingBlock: QUQFOY_clean_sbu_3, # of connection points: 4
#     Node 2, Type 0, BuildingBlock: QUQFOY_clean_sbu_3, # of connection points: 4
#     Node 3, Type 0, BuildingBlock: QUQFOY_clean_sbu_3, # of connection points: 4
#     Node 4, Type 0, BuildingBlock: QUQFOY_clean_sbu_3, # of connection points: 4
#     Node 5, Type 0, BuildingBlock: QUQFOY_clean_sbu_3, # of connection points: 4
#     Node 6, Type 0, BuildingBlock: QUQFOY_clean_sbu_3, # of connection points: 4
#     Node 7, Type 0, BuildingBlock: QUQFOY_clean_sbu_3, # of connection points: 4
#     Node 8, Type 0, BuildingBlock: QUQFOY_clean_sbu_3, # of connection points: 4
#     Node 9, Type 0, BuildingBlock: QUQFOY_clean_sbu_3, # of connection points: 4
#     Node 10, Type 0, BuildingBlock: QUQFOY_clean_sbu_3, # of connection points: 4
#     Node 11, Type 0, BuildingBlock: QUQFOY_clean_sbu_3, # of connection points: 4
#     Node 12, Type 0, BuildingBlock: QUQFOY_clean_sbu_3, # of connection points: 4
#     Node 13, Type 0, BuildingBlock: QUQFOY_clean_sbu_3, # of connection points: 4
#     Node 14, Type 0, BuildingBlock: QUQFOY_clean_sbu_3, # of connection points: 4
#     Node 15, Type 0, BuildingBlock: QUQFOY_clean_sbu_3, # of connection points: 4
#     Node 16, Type 0, BuildingBlock: QUQFOY_clean_sbu_3, # of connection points: 4
#     Node 17, Type 0, BuildingBlock: QUQFOY_clean_sbu_3, # of connection points: 4
#     Node 18, Type 0, BuildingBlock: QUQFOY_clean_sbu_3, # of connection points: 4
#     Node 19, Type 0, BuildingBlock: QUQFOY_clean_sbu_3, # of connection points: 4
#     Node 20, Type 0, BuildingBlock: QUQFOY_clean_sbu_3, # of connection points: 4
#     Node 21, Type 0, BuildingBlock: QUQFOY_clean_sbu_3, # of connection points: 4
#     Node 22, Type 0, BuildingBlock: QUQFOY_clean_sbu_3, # of connection points: 4
#     Node 23, Type 0, BuildingBlock: QUQFOY_clean_sbu_3, # of connection points: 4
#     Edge 24, Type (0, 0), BuildingBlock: MIFKUJ_clean_linker_0, # of connection points: 2
#     Edge 25, Type (0, 0), BuildingBlock: MIFKUJ_clean_linker_0, # of connection points: 2
#     Edge 26, Type (0, 0), BuildingBlock: MIFKUJ_clean_linker_0, # of connection points: 2
#     Edge 27, Type (0, 0), BuildingBlock: MIFKUJ_clean_linker_0, # of connection points: 2
#     Edge 28, Type (0, 0), BuildingBlock: MIFKUJ_clean_linker_0, # of connection points: 2
#     Edge 29, Type (0, 0), BuildingBlock: MIFKUJ_clean_linker_0, # of connection points: 2
#     Edge 30, Type (0, 0), BuildingBlock: MIFKUJ_clean_linker_0, # of connection points: 2
#     Edge 31, Type (0, 0), BuildingBlock: MIFKUJ_clean_linker_0, # of connection points: 2
#     Edge 32, Type (0, 0), BuildingBlock: MIFKUJ_clean_linker_0, # of connection points: 2
#     Edge 33, Type (0, 0), BuildingBlock: MIFKUJ_clean_linker_0, # of connection points: 2
#     Edge 34, Type (0, 0), BuildingBlock: MIFKUJ_clean_linker_0, # of connection points: 2
#     Edge 35, Type (0, 0), BuildingBlock: MIFKUJ_clean_linker_0, # of connection points: 2
#     Edge 36, Type (0, 0), BuildingBlock: MIFKUJ_clean_linker_0, # of connection points: 2
#     Edge 37, Type (0, 0), BuildingBlock: MIFKUJ_clean_linker_0, # of connection points: 2
#     Edge 38, Type (0, 0), BuildingBlock: MIFKUJ_clean_linker_0, # of connection points: 2
#     Edge 39, Type (0, 0), BuildingBlock: MIFKUJ_clean_linker_0, # of connection points: 2
#     Edge 40, Type (0, 0), BuildingBlock: MIFKUJ_clean_linker_0, # of connection points: 2
#     Edge 41, Type (0, 0), BuildingBlock: MIFKUJ_clean_linker_0, # of connection points: 2
#     Edge 42, Type (0, 0), BuildingBlock: MIFKUJ_clean_linker_0, # of connection points: 2
#     Edge 43, Type (0, 0), BuildingBlock: MIFKUJ_clean_linker_0, # of connection points: 2
#     Edge 44, Type (0, 0), BuildingBlock: MIFKUJ_clean_linker_0, # of connection points: 2
#     Edge 45, Type (0, 0), BuildingBlock: MIFKUJ_clean_linker_0, # of connection points: 2
#     Edge 46, Type (0, 0), BuildingBlock: MIFKUJ_clean_linker_0, # of connection points: 2
#     Edge 47, Type (0, 0), BuildingBlock: MIFKUJ_clean_linker_0, # of connection points: 2
#     Edge 48, Type (0, 0), BuildingBlock: MIFKUJ_clean_linker_0, # of connection points: 2
#     Edge 49, Type (0, 0), BuildingBlock: MIFKUJ_clean_linker_0, # of connection points: 2
#     Edge 50, Type (0, 0), BuildingBlock: MIFKUJ_clean_linker_0, # of connection points: 2
#     Edge 51, Type (0, 0), BuildingBlock: MIFKUJ_clean_linker_0, # of connection points: 2
#     Edge 52, Type (0, 0), BuildingBlock: MIFKUJ_clean_linker_0, # of connection points: 2
#     Edge 53, Type (0, 0), BuildingBlock: MIFKUJ_clean_linker_0, # of connection points: 2
#     Edge 54, Type (0, 0), BuildingBlock: MIFKUJ_clean_linker_0, # of connection points: 2
#     Edge 55, Type (0, 0), BuildingBlock: MIFKUJ_clean_linker_0, # of connection points: 2
#     Edge 56, Type (0, 0), BuildingBlock: MIFKUJ_clean_linker_0, # of connection points: 2
#     Edge 57, Type (0, 0), BuildingBlock: MIFKUJ_clean_linker_0, # of connection points: 2
#     Edge 58, Type (0, 0), BuildingBlock: MIFKUJ_clean_linker_0, # of connection points: 2
#     Edge 59, Type (0, 0), BuildingBlock: MIFKUJ_clean_linker_0, # of connection points: 2
#     Edge 60, Type (0, 0), BuildingBlock: MIFKUJ_clean_linker_0, # of connection points: 2
#     Edge 61, Type (0, 0), BuildingBlock: MIFKUJ_clean_linker_0, # of connection points: 2
#     Edge 62, Type (0, 0), BuildingBlock: MIFKUJ_clean_linker_0, # of connection points: 2
#     Edge 63, Type (0, 0), BuildingBlock: MIFKUJ_clean_linker_0, # of connection points: 2
#     Edge 64, Type (0, 0), BuildingBlock: MIFKUJ_clean_linker_0, # of connection points: 2
#     Edge 65, Type (0, 0), BuildingBlock: MIFKUJ_clean_linker_0, # of connection points: 2
#     Edge 66, Type (0, 0), BuildingBlock: MIFKUJ_clean_linker_0, # of connection points: 2
#     Edge 67, Type (0, 0), BuildingBlock: MIFKUJ_clean_linker_0, # of connection points: 2
#     Edge 68, Type (0, 0), BuildingBlock: MIFKUJ_clean_linker_0, # of connection points: 2
#     Edge 69, Type (0, 0), BuildingBlock: MIFKUJ_clean_linker_0, # of connection points: 2
#     Edge 70, Type (0, 0), BuildingBlock: MIFKUJ_clean_linker_0, # of connection points: 2
#     Edge 71, Type (0, 0), BuildingBlock: MIFKUJ_clean_linker_0, # of connection points: 2
# Relax obj value: 0.098
# Max RMSD: 0.105
# Mean RMSD: 0.105
data_MOF--net-afi--node1-QUQFOY_clean_sbu_3--edge1-MIFKUJ_clean_linker_0
_symmetry_space_group_name_H-M    P1
_symmetry_Int_Tables_number       1
_symmetry_cell_setting            triclinic
loop_
_symmetry_equiv_pos_as_xyz
'x, y, z'
_cell_length_a     89.914845
_cell_length_b     89.988598
_cell_length_c     51.994513
_cell_angle_alpha  89.995621
_cell_angle_beta   90.013228
_cell_angle_gamma 120.0169
loop_
_atom_site_label
_atom_site_type_symbol
_atom_site_fract_x
_atom_site_fract_y
_atom_site_fract_z
_atom_type_partial_charge
C0 C 0.48121 0.10933 0.17433 0.0
O1 O 0.4776 0.10211 0.15243 0.0
Cd2 Cd 0.45192 0.0956 0.12955 0.0
O3 O 0.4715 0.11421 0.18459 0.0
Cd4 Cd 0.44504 0.115 0.17348 0.0
C5 C 0.42214 0.07187 0.17559 0.0
O6 O 0.45128 0.12188 0.12832 0.0
O7 O 0.42522 0.11363 0.13974 0.0
O8 O 0.45937 0.14362 0.19187 0.0
C9 C 0.43677 0.12007 0.1226 0.0
O10 O 0.42836 0.07215 0.15347 0.0
C11 C 0.44635 0.14184 0.20405 0.0
O12 O 0.42682 0.08571 0.18798 0.0
O13 O 0.43282 0.12721 0.20297 0.0
C14 C 0.36573 0.48606 0.19078 0.0
O15 O 0.36923 0.48305 0.1684 0.0
Cd16 Cd 0.35048 0.45811 0.14393 0.0
O17 O 0.35126 0.476 0.20116 0.0
Cd18 Cd 0.32387 0.44971 0.18966 0.0
C19 C 0.34396 0.4267 0.1879 0.0
O20 O 0.32342 0.45681 0.14508 0.0
O21 O 0.30526 0.43068 0.15504 0.0
O22 O 0.31002 0.46406 0.2092 0.0
C23 C 0.31106 0.44243 0.13819 0.0
O24 O 0.34992 0.43392 0.16629 0.0
C25 C 0.29847 0.45088 0.22069 0.0
O26 O 0.33488 0.43085 0.20165 0.0
O27 O 0.29924 0.4372 0.21885 0.0
C28 C 0.87386 0.36686 0.18348 0.0
O29 O 0.88041 0.37106 0.16117 0.0
Cd30 Cd 0.88697 0.35332 0.135 0.0
O31 O 0.86948 0.35209 0.19273 0.0
Cd32 Cd 0.8682 0.32497 0.17871 0.0
C33 C 0.91137 0.34477 0.17719 0.0
O34 O 0.86113 0.32616 0.13425 0.0
O35 O 0.86796 0.30695 0.14299 0.0
O36 O 0.83985 0.31039 0.1979 0.0
C37 C 0.8627 0.31367 0.12657 0.0
O38 O 0.91049 0.35243 0.15715 0.0
C39 C 0.84171 0.29884 0.20894 0.0
O40 O 0.89791 0.33444 0.18961 0.0
O41 O 0.85629 0.29991 0.20692 0.0
C42 C 0.50141 0.87522 0.18304 0.0
O43 O 0.50502 0.88264 0.1613 0.0
Cd44 Cd 0.53059 0.88957 0.1379 0.0
O45 O 0.5111 0.87021 0.19306 0.0
Cd46 Cd 0.53759 0.86961 0.18122 0.0
C47 C 0.56034 0.9127 0.18442 0.0
O48 O 0.53145 0.86349 0.13588 0.0
O49 O 0.55755 0.87183 0.1471 0.0
O50 O 0.52381 0.84063 0.19844 0.0
C51 C 0.54605 0.86566 0.12987 0.0
O52 O 0.55415 0.91264 0.16235 0.0
C53 C 0.53698 0.84257 0.2104 0.0
O54 O 0.55566 0.89875 0.1965 0.0
O55 O 0.55023 0.85742 0.20985 0.0
C56 C 0.62738 0.50467 0.16472 0.0
O57 O 0.62403 0.50894 0.14316 0.0
Cd58 Cd 0.64201 0.53677 0.12494 0.0
O59 O 0.64126 0.5147 0.17656 0.0
Cd60 Cd 0.66784 0.54266 0.16938 0.0
C61 C 0.64515 0.56276 0.17587 0.0
O62 O 0.67038 0.54093 0.12344 0.0
O63 O 0.68563 0.56628 0.13967 0.0
O64 O 0.68484 0.52949 0.17927 0.0
C65 C 0.68206 0.55641 0.12042 0.0
O66 O 0.6397 0.55731 0.15325 0.0
C67 C 0.69369 0.53989 0.19694 0.0
O68 O 0.65502 0.55859 0.18739 0.0
O69 O 0.69009 0.55146 0.20277 0.0
C70 C 0.10846 0.62259 0.17063 0.0
O71 O 0.09852 0.61795 0.15126 0.0
Cd72 Cd 0.08959 0.63565 0.12958 0.0
O73 O 0.11479 0.63771 0.17976 0.0
Cd74 Cd 0.11426 0.66461 0.17097 0.0
C75 C 0.07127 0.64448 0.18128 0.0
O76 O 0.11478 0.66288 0.125 0.0
O77 O 0.1104 0.68286 0.13927 0.0
O78 O 0.14493 0.68065 0.1781 0.0
C79 C 0.11261 0.67545 0.12014 0.0
O80 O 0.06973 0.63723 0.15962 0.0
C81 C 0.14457 0.6905 0.19523 0.0
O82 O 0.08606 0.65451 0.19079 0.0
O83 O 0.12988 0.68796 0.20193 0.0
C84 C 0.87499 0.50411 0.32405 0.0
O85 O 0.88215 0.50764 0.34599 0.0
Cd86 Cd 0.89077 0.53409 0.36781 0.0
O87 O 0.87084 0.51424 0.31324 0.0
Cd88 Cd 0.87086 0.54131 0.32327 0.0
C89 C 0.91403 0.56323 0.31996 0.0
O90 O 0.86615 0.53737 0.36898 0.0
O91 O 0.87433 0.56296 0.35535 0.0
O92 O 0.84081 0.52736 0.31216 0.0
C93 C 0.86915 0.5524 0.37391 0.0
O94 O 0.91353 0.55625 0.3415 0.0
C95 C 0.84214 0.53843 0.29583 0.0
O96 O 0.90023 0.55958 0.308 0.0
O97 O 0.85719 0.55073 0.29114 0.0
C98 C 0.36262 0.87473 0.31892 0.0
O99 O 0.3665 0.8833 0.33968 0.0
Cd100 Cd 0.34828 0.89214 0.36014 0.0
O101 O 0.34795 0.86926 0.3085 0.0
Cd102 Cd 0.32052 0.86875 0.31663 0.0
C103 C 0.34114 0.91175 0.30827 0.0
O104 O 0.32084 0.86703 0.36274 0.0
O105 O 0.30138 0.87189 0.34743 0.0
O106 O 0.30462 0.83837 0.3069 0.0
C107 C 0.30817 0.86917 0.36691 0.0
O108 O 0.34772 0.91286 0.33039 0.0
C109 C 0.29542 0.83953 0.28938 0.0
O110 O 0.33137 0.8972 0.29797 0.0
O111 O 0.29828 0.85449 0.28385 0.0
C112 C 0.48939 0.36639 0.29785 0.0
O113 O 0.48618 0.37166 0.31863 0.0
Cd114 Cd 0.46109 0.35529 0.34428 0.0
O115 O 0.47923 0.35127 0.28959 0.0
Cd116 Cd 0.45223 0.32548 0.30383 0.0
C117 C 0.43006 0.34647 0.29876 0.0
O118 O 0.45914 0.3281 0.34911 0.0
O119 O 0.43298 0.30945 0.3399 0.0
O120 O 0.46511 0.30895 0.28881 0.0
C121 C 0.44463 0.31634 0.3568 0.0
O122 O 0.43711 0.35371 0.31991 0.0
C123 C 0.45167 0.29742 0.27779 0.0
O124 O 0.43412 0.33644 0.28751 0.0
O125 O 0.43861 0.29935 0.27787 0.0
C126 C 0.10828 0.48437 0.30363 0.0
O127 O 0.09875 0.47956 0.32345 0.0
Cd128 Cd 0.09088 0.45389 0.34703 0.0
O129 O 0.11465 0.47548 0.295 0.0
Cd130 Cd 0.1145 0.44846 0.30609 0.0
C131 C 0.07154 0.42468 0.29801 0.0
O132 O 0.11662 0.45276 0.35217 0.0
O133 O 0.11185 0.42796 0.33934 0.0
O134 O 0.14455 0.4635 0.29381 0.0
C135 C 0.11485 0.43826 0.35779 0.0
O136 O 0.07037 0.43114 0.31917 0.0
C137 C 0.14377 0.45119 0.28083 0.0
O138 O 0.08612 0.42928 0.28792 0.0
O139 O 0.1291 0.43782 0.27855 0.0
C140 C 0.62142 0.11395 0.31246 0.0
O141 O 0.61797 0.10704 0.33456 0.0
Cd142 Cd 0.63678 0.09955 0.35622 0.0
O143 O 0.63577 0.11831 0.30174 0.0
Cd144 Cd 0.66296 0.11878 0.31208 0.0
C145 C 0.64184 0.07592 0.30847 0.0
O146 O 0.66436 0.125 0.35763 0.0
O147 O 0.68093 0.1156 0.34464 0.0
O148 O 0.67785 0.14786 0.2956 0.0
C149 C 0.67654 0.1222 0.3625 0.0
O150 O 0.63599 0.07628 0.33064 0.0
C151 C 0.68877 0.14605 0.28257 0.0
O152 O 0.65141 0.08975 0.29631 0.0
O153 O 0.68717 0.1312 0.28225 0.0
C154 C 0.50845 0.62576 0.31747 0.0
O155 O 0.5131 0.6228 0.339 0.0
Cd156 Cd 0.54036 0.64206 0.35768 0.0
O157 O 0.5179 0.63982 0.30563 0.0
Cd158 Cd 0.54527 0.66712 0.31306 0.0
C159 C 0.56685 0.64584 0.30734 0.0
O160 O 0.54183 0.66935 0.35875 0.0
O161 O 0.56745 0.68579 0.34428 0.0
O162 O 0.52996 0.68103 0.29696 0.0
C163 C 0.55685 0.68174 0.36266 0.0
O164 O 0.56177 0.64061 0.33016 0.0
C165 C 0.54235 0.69223 0.28369 0.0
O166 O 0.56195 0.65505 0.29561 0.0
O167 O 0.55596 0.69126 0.28303 0.0
C168 C 0.50579 0.88033 0.80998 0.0
O169 O 0.51059 0.88926 0.8304 0.0
Cd170 Cd 0.53519 0.89408 0.8549 0.0
O171 O 0.51422 0.87352 0.80121 0.0
Cd172 Cd 0.54047 0.87258 0.81297 0.0
C173 C 0.5658 0.91549 0.80931 0.0
O174 O 0.53408 0.867 0.85844 0.0
O175 O 0.55981 0.87376 0.8473 0.0
O176 O 0.52545 0.84354 0.79595 0.0
C177 C 0.5483 0.86824 0.86451 0.0
O178 O 0.56005 0.91591 0.83151 0.0
C179 C 0.53834 0.8447 0.78416 0.0
O180 O 0.55984 0.90143 0.79698 0.0
O181 O 0.55211 0.85914 0.78486 0.0
C182 C 0.61886 0.50614 0.82053 0.0
O183 O 0.61654 0.51154 0.84185 0.0
Cd184 Cd 0.63678 0.53869 0.85986 0.0
O185 O 0.63282 0.5149 0.8081 0.0
Cd186 Cd 0.66047 0.54216 0.81441 0.0
C187 C 0.64051 0.56499 0.80946 0.0
O188 O 0.66402 0.54006 0.86027 0.0
O189 O 0.67963 0.56523 0.84385 0.0
O190 O 0.67486 0.5271 0.79928 0.0
C191 C 0.67636 0.55527 0.86287 0.0
O192 O 0.63586 0.5604 0.83262 0.0
C193 C 0.68554 0.53921 0.78505 0.0
O194 O 0.64878 0.55924 0.79709 0.0
O195 O 0.68386 0.55237 0.7832 0.0
C196 C 0.10774 0.62245 0.8066 0.0
O197 O 0.09801 0.6188 0.82609 0.0
Cd198 Cd 0.09178 0.63853 0.84767 0.0
O199 O 0.1151 0.63751 0.79703 0.0
Cd200 Cd 0.11639 0.66531 0.80559 0.0
C201 C 0.0736 0.6479 0.79689 0.0
O202 O 0.11854 0.6645 0.85178 0.0
O203 O 0.11431 0.68451 0.83747 0.0
O204 O 0.14637 0.6791 0.79252 0.0
C205 C 0.11722 0.67757 0.85654 0.0
O206 O 0.07189 0.6416 0.81935 0.0
C207 C 0.14582 0.69048 0.77878 0.0
O208 O 0.08832 0.65609 0.78631 0.0
O209 O 0.13135 0.68964 0.77659 0.0
C210 C 0.48545 0.11504 0.8105 0.0
O211 O 0.48195 0.10867 0.83296 0.0
Cd212 Cd 0.45626 0.10259 0.85538 0.0
O213 O 0.47566 0.11947 0.79926 0.0
Cd214 Cd 0.44928 0.12069 0.80934 0.0
C215 C 0.42608 0.07768 0.81017 0.0
O216 O 0.45501 0.12848 0.8544 0.0
O217 O 0.42898 0.11941 0.84202 0.0
O218 O 0.46357 0.14909 0.79015 0.0
C219 C 0.44025 0.12625 0.85947 0.0
O220 O 0.43253 0.07873 0.83238 0.0
C221 C 0.45057 0.14704 0.7776 0.0
O222 O 0.43078 0.09104 0.79651 0.0
O223 O 0.43715 0.13233 0.77873 0.0
C224 C 0.36946 0.48812 0.81107 0.0
O225 O 0.37439 0.48428 0.83164 0.0
Cd226 Cd 0.35652 0.45965 0.85753 0.0
O227 O 0.35405 0.47892 0.80318 0.0
Cd228 Cd 0.32721 0.45299 0.81684 0.0
C229 C 0.3453 0.42799 0.81222 0.0
O230 O 0.32976 0.45881 0.86236 0.0
O231 O 0.30995 0.43335 0.85159 0.0
O232 O 0.31079 0.46685 0.80701 0.0
C233 C 0.31727 0.44446 0.86915 0.0
O234 O 0.3531 0.43507 0.83304 0.0
C235 C 0.30084 0.45573 0.79089 0.0
O236 O 0.33578 0.43278 0.80107 0.0
O237 O 0.30346 0.44338 0.78606 0.0
C238 C 0.88007 0.37087 0.80019 0.0
O239 O 0.88786 0.37477 0.82166 0.0
Cd240 Cd 0.89327 0.3558 0.84688 0.0
O241 O 0.87407 0.35584 0.79082 0.0
Cd242 Cd 0.87192 0.32818 0.8039 0.0
C243 C 0.91499 0.34537 0.80283 0.0
O244 O 0.86613 0.33006 0.84869 0.0
O245 O 0.87146 0.30986 0.83968 0.0
O246 O 0.84309 0.31406 0.78588 0.0
C247 C 0.86691 0.31712 0.85626 0.0
O248 O 0.91525 0.35257 0.82404 0.0
C249 C 0.84443 0.30226 0.77466 0.0
O250 O 0.901 0.33661 0.79052 0.0
O251 O 0.8589 0.30301 0.776 0.0
C252 C 0.10868 0.48205 0.67713 0.0
O253 O 0.09892 0.47609 0.65763 0.0
Cd254 Cd 0.09369 0.45126 0.63351 0.0
O255 O 0.11666 0.47471 0.68579 0.0
Cd256 Cd 0.11914 0.4491 0.6754 0.0
C257 C 0.07649 0.42169 0.68223 0.0
O258 O 0.12072 0.45292 0.62967 0.0
O259 O 0.11764 0.42873 0.64211 0.0
O260 O 0.14964 0.46496 0.68426 0.0
C261 C 0.11981 0.43887 0.62372 0.0
O262 O 0.07475 0.42691 0.66027 0.0
C263 C 0.14945 0.45444 0.70069 0.0
O264 O 0.09104 0.42852 0.69343 0.0
O265 O 0.13491 0.44164 0.70631 0.0
C266 C 0.62391 0.11272 0.67738 0.0
O267 O 0.62017 0.10485 0.65601 0.0
Cd268 Cd 0.63937 0.09793 0.63423 0.0
O269 O 0.63865 0.11812 0.68748 0.0
Cd270 Cd 0.66605 0.11916 0.67645 0.0
C271 C 0.64698 0.07641 0.68233 0.0
O272 O 0.66619 0.12417 0.63063 0.0
O273 O 0.68386 0.11608 0.64343 0.0
O274 O 0.68046 0.14867 0.6914 0.0
C275 C 0.67872 0.12196 0.62552 0.0
O276 O 0.64052 0.07581 0.66027 0.0
C277 C 0.69193 0.14763 0.70415 0.0
O278 O 0.65608 0.0907 0.69368 0.0
O279 O 0.6909 0.13304 0.70502 0.0
C280 C 0.50361 0.62554 0.66786 0.0
O281 O 0.50886 0.62248 0.64694 0.0
Cd282 Cd 0.53566 0.64245 0.62745 0.0
O283 O 0.51238 0.63998 0.67908 0.0
Cd284 Cd 0.53946 0.66743 0.67171 0.0
C285 C 0.56237 0.64743 0.67775 0.0
O286 O 0.53668 0.66956 0.62571 0.0
O287 O 0.56185 0.68646 0.64135 0.0
O288 O 0.52429 0.68168 0.6872 0.0
C289 C 0.55169 0.68214 0.62236 0.0
O290 O 0.5577 0.64218 0.65482 0.0
C291 C 0.53643 0.6923 0.70147 0.0
O292 O 0.55669 0.65603 0.68934 0.0
O293 O 0.54976 0.69087 0.70273 0.0
C294 C 0.87261 0.50971 0.67763 0.0
O295 O 0.87795 0.51376 0.65468 0.0
Cd296 Cd 0.88301 0.53977 0.63451 0.0
O297 O 0.86861 0.51912 0.69091 0.0
Cd298 Cd 0.86658 0.54547 0.68517 0.0
C299 C 0.90955 0.5688 0.68016 0.0
O300 O 0.85732 0.54089 0.64098 0.0
O301 O 0.86643 0.56651 0.65499 0.0
O302 O 0.83894 0.53012 0.70636 0.0
C303 C 0.85941 0.5557 0.63702 0.0
O304 O 0.90757 0.56278 0.65744 0.0
C305 C 0.84099 0.54267 0.72007 0.0
O306 O 0.89678 0.56387 0.69526 0.0
O307 O 0.85549 0.55635 0.71875 0.0
C308 C 0.36627 0.87968 0.67673 0.0
O309 O 0.37 0.88907 0.65686 0.0
Cd310 Cd 0.34992 0.89545 0.63652 0.0
O311 O 0.35134 0.87305 0.68665 0.0
Cd312 Cd 0.32403 0.87272 0.67833 0.0
C313 C 0.3427 0.91534 0.68699 0.0
O314 O 0.32319 0.86905 0.63199 0.0
O315 O 0.3056 0.8765 0.64738 0.0
O316 O 0.31008 0.84296 0.69226 0.0
C317 C 0.3105 0.87127 0.62833 0.0
O318 O 0.34845 0.91661 0.66423 0.0
C319 C 0.29878 0.84372 0.7059 0.0
O320 O 0.33436 0.90077 0.69789 0.0
O321 O 0.29962 0.8582 0.70751 0.0
C322 C 0.47655 0.36811 0.6905 0.0
O323 O 0.47215 0.37292 0.67034 0.0
Cd324 Cd 0.44926 0.35441 0.64205 0.0
O325 O 0.4686 0.35238 0.69728 0.0
Cd326 Cd 0.444 0.32501 0.6814 0.0
C327 C 0.41645 0.34023 0.68551 0.0
O328 O 0.45201 0.32961 0.63655 0.0
O329 O 0.42681 0.30821 0.64434 0.0
O330 O 0.45943 0.31083 0.69606 0.0
C331 C 0.43859 0.31664 0.62812 0.0
O332 O 0.42299 0.34818 0.66458 0.0
C333 C 0.44659 0.29847 0.70702 0.0
O334 O 0.42255 0.3319 0.69687 0.0
O335 O 0.43267 0.29886 0.70705 0.0
H336 H 0.40426 0.04035 0.15257 0.0
H337 H 0.38712 0.01251 0.17381 0.0
H338 H 0.39672 0.03785 0.24733 0.0
H339 H 0.4136 0.0657 0.22635 0.0
H340 H 0.40575 0.01108 0.24257 0.0
H341 H 0.35889 0.02171 0.22607 0.0
H342 H 0.34056 0.02818 0.19842 0.0
H343 H 0.32614 0.98265 0.15421 0.0
H344 H 0.34459 0.97604 0.18139 0.0
H345 H 0.35684 0.94443 0.32693 0.0
H346 H 0.36753 0.97097 0.30256 0.0
H347 H 0.34743 0.94191 0.23259 0.0
H348 H 0.3363 0.91514 0.257 0.0
H349 H 0.34342 0.96976 0.23287 0.0
H350 H 0.38901 0.95836 0.2465 0.0
H351 H 0.40791 0.95102 0.27108 0.0
H352 H 0.42591 -0.00317 0.31618 0.0
H353 H 0.4069 0.00432 0.29212 0.0
C354 C 0.40252 0.04001 0.17322 0.0
C355 C 0.41035 0.05521 0.18781 0.0
C356 C 0.39269 0.02412 0.18527 0.0
C357 C 0.39072 0.02321 0.21207 0.0
C358 C 0.39812 0.03836 0.2266 0.0
C359 C 0.40772 0.05425 0.21456 0.0
C360 C 0.38206 0.00644 0.22525 0.0
C361 C 0.39208 0.00213 0.24077 0.0
C362 C 0.3644 0.99454 0.22188 0.0
C363 C 0.35327 -0.00151 0.20559 0.0
C364 C 0.35194 0.01317 0.2103 0.0
C365 C 0.3415 0.01684 0.19475 0.0
C366 C 0.33223 0.00586 0.17452 0.0
C367 C 0.33335 0.99116 0.16986 0.0
C368 C 0.34379 0.98744 0.18534 0.0
C369 C 0.35452 0.94364 0.3064 0.0
C370 C 0.34591 0.92768 0.29385 0.0
C371 C 0.36067 0.95883 0.29249 0.0
C372 C 0.35859 0.9584 0.26571 0.0
C373 C 0.34924 0.9425 0.25324 0.0
C374 C 0.34292 0.92724 0.26722 0.0
C375 C 0.36705 0.97456 0.25075 0.0
C376 C 0.35708 0.97871 0.23473 0.0
C377 C 0.38489 0.98621 0.25317 0.0
C378 C 0.39641 0.98182 0.26766 0.0
C379 C 0.3969 0.9668 0.26179 0.0
C380 C 0.40765 0.96263 0.27561 0.0
C381 C 0.41808 0.97344 0.29521 0.0
C382 C 0.4178 0.98846 0.30101 0.0
C383 C 0.40705 0.99269 0.28727 0.0
H384 H 0.42639 0.97018 0.30589 0.0
H385 H 0.32415 0.00873 0.16251 0.0
H386 H 0.42009 0.34239 0.24835 0.0
H387 H 0.40175 0.35186 0.22773 0.0
H388 H 0.3936 0.36904 0.30104 0.0
H389 H 0.41208 0.35984 0.32179 0.0
H390 H 0.36326 0.35153 0.26901 0.0
H391 H 0.4223 0.39757 0.26637 0.0
H392 H 0.45318 0.41115 0.25631 0.0
H393 H 0.44138 0.39974 0.17621 0.0
H394 H 0.41038 0.38584 0.18586 0.0
H395 H 0.34144 0.41505 0.23721 0.0
H396 H 0.35223 0.39687 0.25392 0.0
H397 H 0.36739 0.39142 0.17732 0.0
H398 H 0.35712 0.41002 0.16061 0.0
H399 H 0.39283 0.40045 0.20858 0.0
H400 H 0.33361 0.35727 0.21045 0.0
H401 H 0.30283 0.34459 0.22054 0.0
H402 H 0.31436 0.35046 0.3013 0.0
H403 H 0.34525 0.3634 0.2917 0.0
C404 C 0.41421 0.34797 0.26014 0.0
C405 C 0.41764 0.35052 0.28665 0.0
C406 C 0.40376 0.35337 0.24833 0.0
C407 C 0.39643 0.36119 0.2629 0.0
C408 C 0.39914 0.36298 0.28953 0.0
C409 C 0.40978 0.35783 0.30129 0.0
C410 C 0.38708 0.36875 0.25016 0.0
C411 C 0.36967 0.36227 0.25586 0.0
C412 C 0.39544 0.3825 0.23265 0.0
C413 C 0.41403 0.39048 0.22688 0.0
C414 C 0.42628 0.39776 0.24666 0.0
C415 C 0.4438 0.40556 0.24103 0.0
C416 C 0.44922 0.40628 0.21565 0.0
C417 C 0.43715 0.39914 0.19586 0.0
C418 C 0.41961 0.39131 0.2014 0.0
C419 C 0.34683 0.40976 0.22386 0.0
C420 C 0.34856 0.41409 0.19763 0.0
C421 C 0.35291 0.39928 0.23342 0.0
C422 C 0.36053 0.39267 0.21685 0.0
C423 C 0.3616 0.39641 0.19048 0.0
C424 C 0.35573 0.40705 0.18096 0.0
C425 C 0.36884 0.38327 0.22729 0.0
C426 C 0.38619 0.38949 0.22131 0.0
C427 C 0.36035 0.36925 0.24445 0.0
C428 C 0.34177 0.36144 0.25033 0.0
C429 C 0.3296 0.35598 0.23036 0.0
C430 C 0.31213 0.34872 0.23599 0.0
C431 C 0.30665 0.34675 0.26154 0.0
C432 C 0.31863 0.35201 0.28151 0.0
C433 C 0.33612 0.35928 0.27599 0.0
H434 H 0.29311 0.34113 0.26586 0.0
H435 H 0.46279 0.41249 0.2113 0.0
H436 H 0.94204 0.37376 0.16942 0.0
H437 H 0.96981 0.38089 0.1874 0.0
H438 H 0.94709 0.33094 0.22323 0.0
H439 H 0.91894 0.32416 0.20642 0.0
H440 H 0.96579 0.35197 0.2558 0.0
H441 H 0.97707 0.34355 0.17083 0.0
H442 H 0.97774 0.3453 0.1235 0.0
H443 H 0.01123 0.39987 0.12749 0.0
H444 H 0.01057 0.39851 0.17485 0.0
H445 H 0.06781 0.40213 0.25959 0.0
H446 H 0.04112 0.38158 0.2378 0.0
H447 H 0.01305 0.39915 0.28403 0.0
H448 H 0.03929 0.41898 0.3064 0.0
H449 H 0.02067 0.3854 0.20849 0.0
H450 H 0.97362 0.37023 0.29571 0.0
H451 H 0.9733 0.36495 0.34228 0.0
H452 H 0.01178 0.3505 0.33228 0.0
H453 H 0.01215 0.35542 0.28559 0.0
C454 C 0.943 0.36422 0.1809 0.0
C455 C 0.92835 0.34843 0.18659 0.0
C456 C 0.95894 0.36824 0.19098 0.0
C457 C 0.96071 0.35633 0.20628 0.0
C458 C 0.94611 0.34034 0.21145 0.0
C459 C 0.93004 0.33648 0.20186 0.0
C460 C 0.97746 0.36133 0.21869 0.0
C461 C 0.97778 0.35907 0.24536 0.0
C462 C 0.99317 0.36997 0.20501 0.0
C463 C -0.00628 0.37092 0.17646 0.0
C464 C 0.9845 0.35594 0.16164 0.0
C465 C 0.98489 0.35686 0.13478 0.0
C466 C -0.00549 0.37268 0.12249 0.0
C467 C 0.0038 0.38762 0.13703 0.0
C468 C 0.00345 0.38678 0.16389 0.0
C469 C 0.05588 0.40144 0.26522 0.0
C470 C 0.05562 0.41208 0.28481 0.0
C471 C 0.04066 0.38971 0.25278 0.0
C472 C 0.02499 0.38854 0.25962 0.0
C473 C 0.02483 0.39935 0.27896 0.0
C474 C 0.03991 0.41082 0.29162 0.0
C475 C 0.00887 0.37693 0.2457 0.0
C476 C 0.00868 0.3779 0.21878 0.0
C477 C 0.9933 0.36648 0.259 0.0
C478 C 0.99295 0.36326 0.2871 0.0
C479 C 0.98192 0.36579 0.30339 0.0
C480 C 0.98176 0.3629 0.32983 0.0
C481 C 0.99253 0.35742 0.34024 0.0
C482 C 0.00347 0.35478 0.3242 0.0
C483 C 0.00367 0.35764 0.29775 0.0
H484 H 0.9924 0.3552 0.36072 0.0
H485 H -0.00521 0.37337 0.1017 0.0
H486 H 0.57908 0.94415 0.16166 0.0
H487 H 0.59622 0.97189 0.18312 0.0
H488 H 0.58482 0.94646 0.25673 0.0
H489 H 0.56794 0.91866 0.23549 0.0
H490 H 0.57654 0.9739 0.25034 0.0
H491 H 0.6229 0.96203 0.2382 0.0
H492 H 0.64143 0.95474 0.21257 0.0
H493 H 0.65766 -0.00013 0.16648 0.0
H494 H 0.63901 0.0073 0.19161 0.0
H495 H 0.62496 0.04414 0.33059 0.0
H496 H 0.61402 0.01642 0.30938 0.0
H497 H 0.63546 0.04199 0.23732 0.0
H498 H 0.64682 0.06983 0.25851 0.0
H499 H 0.63914 0.01447 0.24214 0.0
H500 H 0.59344 0.02643 0.24981 0.0
H501 H 0.57423 0.03461 0.27155 0.0
H502 H 0.55565 0.99055 0.3208 0.0
H503 H 0.57494 0.98223 0.29956 0.0
C504 C 0.58043 0.94445 0.18238 0.0
C505 C 0.57211 0.92924 0.19691 0.0
C506 C 0.59025 0.96028 0.19457 0.0
C507 C 0.59173 0.96113 0.22144 0.0
C508 C 0.58382 0.94598 0.23594 0.0
C509 C 0.57423 0.93013 0.22376 0.0
C510 C 0.60041 0.97792 0.23456 0.0
C511 C 0.59027 0.98267 0.24895 0.0
C512 C 0.61817 0.98955 0.2317 0.0
C513 C 0.62942 0.98512 0.21662 0.0
C514 C 0.63029 0.97031 0.22244 0.0
C515 C 0.64084 0.96618 0.20804 0.0
C516 C 0.65068 0.97681 0.18786 0.0
C517 C 0.65001 0.99163 0.18209 0.0
C518 C 0.63946 -0.00418 0.19643 0.0
C519 C 0.6275 0.04389 0.31028 0.0
C520 C 0.63659 0.05919 0.29618 0.0
C521 C 0.6212 0.02803 0.29818 0.0
C522 C 0.62365 0.02716 0.27168 0.0
C523 C 0.63338 0.04239 0.25777 0.0
C524 C 0.63982 0.05828 0.26991 0.0
C525 C 0.61531 0.01037 0.25834 0.0
C526 C 0.62544 0.00566 0.24373 0.0
C527 C 0.59742 -0.00112 0.26044 0.0
C528 C 0.58577 0.00381 0.27327 0.0
C529 C 0.58536 0.01856 0.26541 0.0
C530 C 0.57444 0.02321 0.27762 0.0
C531 C 0.56376 0.01313 0.2976 0.0
C532 C 0.56395 -0.00164 0.30535 0.0
C533 C 0.57487 0.99366 0.29322 0.0
H534 H 0.55531 0.01675 0.30702 0.0
H535 H 0.65885 0.97359 0.17674 0.0
H536 H 0.58439 0.63118 0.32821 0.0
H537 H 0.60026 0.61975 0.30528 0.0
H538 H 0.58938 0.636 0.23314 0.0
H539 H 0.57361 0.6476 0.25586 0.0
H540 H 0.58065 0.60119 0.23467 0.0
H541 H 0.62855 0.65689 0.25447 0.0
H542 H 0.64731 0.68099 0.28294 0.0
H543 H 0.65966 0.64793 0.32618 0.0
H544 H 0.64076 0.62356 0.29817 0.0
H545 H 0.62948 0.57913 0.15462 0.0
H546 H 0.6185 0.59557 0.17676 0.0
H547 H 0.6363 0.58687 0.24922 0.0
H548 H 0.64781 0.57082 0.22707 0.0
H549 H 0.64192 0.61856 0.24749 0.0
H550 H 0.59386 0.56288 0.23084 0.0
H551 H 0.57433 0.53768 0.20475 0.0
H552 H 0.56121 0.56907 0.15871 0.0
H553 H 0.58085 0.59452 0.18432 0.0
C554 C 0.58553 0.6325 0.30749 0.0
C555 C 0.57769 0.64025 0.29384 0.0
C556 C 0.59465 0.62602 0.29445 0.0
C557 C 0.59599 0.62708 0.26757 0.0
C558 C 0.58848 0.63509 0.25392 0.0
C559 C 0.57953 0.64175 0.26695 0.0
C560 C 0.60429 0.61888 0.25357 0.0
C561 C 0.59412 0.60516 0.2371 0.0
C562 C 0.62169 0.62371 0.25755 0.0
C563 C 0.6331 0.63836 0.27437 0.0
C564 C 0.63514 0.65472 0.27018 0.0
C565 C 0.64583 0.66844 0.28621 0.0
C566 C 0.65464 0.66598 0.30639 0.0
C567 C 0.65281 0.64981 0.31055 0.0
C568 C 0.64212 0.63604 0.29459 0.0
C569 C 0.63115 0.58078 0.17526 0.0
C570 C 0.63938 0.57354 0.18913 0.0
C571 C 0.62481 0.59014 0.1879 0.0
C572 C 0.62627 0.59217 0.21472 0.0
C573 C 0.63498 0.58542 0.22852 0.0
C574 C 0.64151 0.57622 0.21584 0.0
C575 C 0.6183 0.60089 0.22839 0.0
C576 C 0.62848 0.61464 0.2449 0.0
C577 C 0.6008 0.59592 0.22478 0.0
C578 C 0.58897 0.58064 0.20933 0.0
C579 C 0.58692 0.56443 0.21503 0.0
C580 C 0.57581 0.5501 0.20035 0.0
C581 C 0.56657 0.55178 0.18004 0.0
C582 C 0.56839 0.5678 0.17442 0.0
C583 C 0.5795 0.58218 0.18902 0.0
H584 H 0.55798 0.54067 0.16871 0.0
H585 H 0.66291 0.67662 0.31878 0.0
H586 H 0.06871 0.65722 0.22813 0.0
H587 H 0.04272 0.64726 0.2543 0.0
H588 H 0.01252 0.61187 0.19434 0.0
H589 H 0.03816 0.6217 0.16806 0.0
H590 H 0.00827 0.64354 0.24394 0.0
H591 H 0.98946 0.57329 0.22542 0.0
H592 H 0.00332 0.55634 0.21472 0.0
H593 H 0.04959 0.59366 0.25239 0.0
H594 H 0.03591 0.61067 0.26365 0.0
H595 H 0.92074 0.58193 0.27541 0.0
H596 H 0.94876 0.59985 0.2551 0.0
H597 H 0.97346 0.58931 0.31792 0.0
H598 H 0.94566 0.57145 0.33833 0.0
H599 H 0.98252 0.5827 0.27117 0.0
H600 H 0.97874 0.62828 0.31231 0.0
H601 H 0.96531 0.64549 0.32364 0.0
H602 H 0.96507 0.65815 0.24407 0.0
H603 H 0.97828 0.6408 0.23221 0.0
C604 C 0.0565 0.64751 0.22036 0.0
C605 C 0.05556 0.64012 0.19613 0.0
C606 C 0.04168 0.64192 0.23527 0.0
C607 C 0.02581 0.62878 0.22624 0.0
C608 C 0.02471 0.62199 0.20162 0.0
C609 C 0.03942 0.62761 0.18668 0.0
C610 C 0.01063 0.62089 0.24321 0.0
C611 C 0.00262 0.63027 0.25003 0.0
C612 C 0.00348 0.60366 0.25131 0.0
C613 C 0.0117 0.59332 0.24515 0.0
C614 C 0.00256 0.57783 0.23152 0.0
C615 C 0.01039 0.56822 0.22534 0.0
C616 C 0.02734 0.57395 0.2328 0.0
C617 C 0.03648 0.58927 0.24654 0.0
C618 C 0.0287 0.59891 0.2528 0.0
C619 C 0.93215 0.58357 0.28503 0.0
C620 C 0.93093 0.57515 0.3084 0.0
C621 C 0.94815 0.59389 0.27347 0.0
C622 C 0.96315 0.59592 0.28508 0.0
C623 C 0.96201 0.58789 0.30868 0.0
C624 C 0.94609 0.57769 0.3203 0.0
C625 C 0.97987 0.60522 0.2717 0.0
C626 C 0.98816 0.59603 0.26536 0.0
C627 C 0.98728 0.62263 0.26428 0.0
C628 C 0.97936 0.63311 0.27135 0.0
C629 C 0.97569 0.63461 0.2972 0.0
C630 C 0.96814 0.64442 0.30372 0.0
C631 C 0.9643 0.65288 0.28458 0.0
C632 C 0.96804 0.65158 0.25888 0.0
C633 C 0.97557 0.64177 0.25225 0.0
H634 H 0.95846 0.66047 0.28967 0.0
H635 H 0.03339 0.56651 0.22796 0.0
H636 H 0.58695 0.94602 0.83287 0.0
H637 H 0.60547 0.97368 0.81233 0.0
H638 H 0.59155 0.94953 0.7377 0.0
H639 H 0.57347 0.92169 0.75818 0.0
H640 H 0.62411 0.97419 0.73742 0.0
H641 H 0.57065 0.96918 0.76427 0.0
H642 H 0.54765 0.96417 0.79487 0.0
H643 H 0.58373 0.00667 0.8408 0.0
H644 H 0.60701 0.01178 0.81063 0.0
H645 H 0.6317 0.04407 0.66193 0.0
H646 H 0.62276 0.01715 0.68475 0.0
H647 H 0.64413 0.0452 0.75514 0.0
H648 H 0.65318 0.0722 0.73251 0.0
H649 H 0.61012 0.01949 0.75936 0.0
H650 H 0.66308 0.02595 0.72768 0.0
H651 H 0.68472 0.03069 0.6947 0.0
H652 H 0.64791 0.98523 0.65485 0.0
H653 H 0.62597 0.98034 0.68739 0.0
C654 C 0.58802 0.94656 0.8121 0.0
C655 C 0.57858 0.93174 0.7971 0.0
C656 C 0.59858 0.96238 0.80039 0.0
C657 C 0.59956 0.96373 0.77347 0.0
C658 C 0.59092 0.94879 0.75851 0.0
C659 C 0.58056 0.9329 0.77023 0.0
C660 C 0.60852 0.9808 0.7609 0.0
C661 C 0.62099 0.98407 0.74208 0.0
C662 C 0.60458 0.99376 0.76723 0.0
C663 C 0.5906 0.99073 0.78536 0.0
C664 C 0.5737 0.97737 0.781 0.0
C665 C 0.56061 0.97453 0.79825 0.0
C666 C 0.56423 0.98506 0.81981 0.0
C667 C 0.58095 -0.0015 0.82412 0.0
C668 C 0.5941 0.00138 0.80695 0.0
C669 C 0.6347 0.04454 0.6822 0.0
C670 C 0.64305 0.06027 0.69545 0.0
C671 C 0.62968 0.02916 0.69516 0.0
C672 C 0.63287 0.02923 0.72157 0.0
C673 C 0.64161 0.04491 0.73471 0.0
C674 C 0.64677 0.06032 0.72174 0.0
C675 C 0.6257 0.01289 0.7359 0.0
C676 C 0.61344 0.00971 0.75496 0.0
C677 C 0.62964 -2e-05 0.72945 0.0
C678 C 0.64283 0.00286 0.70988 0.0
C679 C 0.65955 0.01704 0.71177 0.0
C680 C 0.67188 0.01974 0.69318 0.0
C681 C 0.66768 0.00829 0.67266 0.0
C682 C 0.65115 0.99409 0.67074 0.0
C683 C 0.63876 0.99134 0.68927 0.0
H684 H 0.67725 0.0104 0.65828 0.0
H685 H 0.55408 0.98284 0.83313 0.0
H686 H 0.62744 0.58354 0.83161 0.0
H687 H 0.61722 0.60082 0.80999 0.0
H688 H 0.63169 0.58949 0.73661 0.0
H689 H 0.64237 0.57252 0.75816 0.0
H690 H 0.6388 0.62202 0.73797 0.0
H691 H 0.59022 0.56705 0.75776 0.0
H692 H 0.57108 0.54264 0.78547 0.0
H693 H 0.56043 0.57584 0.83151 0.0
H694 H 0.5797 0.60051 0.80426 0.0
H695 H 0.58041 0.63309 0.65766 0.0
H696 H 0.59694 0.62267 0.68118 0.0
H697 H 0.58625 0.64002 0.75246 0.0
H698 H 0.56974 0.65055 0.72914 0.0
H699 H 0.57806 0.60586 0.75324 0.0
H700 H 0.62565 0.66065 0.72976 0.0
H701 H 0.64404 0.68403 0.69999 0.0
H702 H 0.65556 0.64985 0.65824 0.0
H703 H 0.63703 0.62618 0.68756 0.0
C704 C 0.62857 0.58482 0.81089 0.0
C705 C 0.63554 0.5765 0.79657 0.0
C706 C 0.6227 0.59468 0.79856 0.0
C707 C 0.6234 0.59617 0.77166 0.0
C708 C 0.63098 0.58846 0.75739 0.0
C709 C 0.63703 0.57873 0.76973 0.0
C710 C 0.61549 0.60506 0.75835 0.0
C711 C 0.62548 0.6184 0.74112 0.0
C712 C 0.59817 0.60047 0.76275 0.0
C713 C 0.58655 0.58566 0.77914 0.0
C714 C 0.5839 0.56917 0.77391 0.0
C715 C 0.57301 0.55528 0.78952 0.0
C716 C 0.56458 0.5577 0.81028 0.0
C717 C 0.56699 0.574 0.81544 0.0
C718 C 0.57789 0.58793 0.79992 0.0
C719 C 0.58174 0.63488 0.6783 0.0
C720 C 0.57369 0.64257 0.69155 0.0
C721 C 0.59125 0.62899 0.69168 0.0
C722 C 0.59283 0.63065 0.71851 0.0
C723 C 0.58517 0.63867 0.73173 0.0
C724 C 0.57579 0.6447 0.71835 0.0
C725 C 0.60136 0.62283 0.73294 0.0
C726 C 0.59143 0.6096 0.75029 0.0
C727 C 0.61862 0.62738 0.72835 0.0
C728 C 0.62982 0.6416 0.71073 0.0
C729 C 0.63199 0.65808 0.7141 0.0
C730 C 0.64246 0.67139 0.69733 0.0
C731 C 0.65093 0.66842 0.6772 0.0
C732 C 0.64898 0.65213 0.67383 0.0
C733 C 0.6385 0.63877 0.69054 0.0
H734 H 0.65904 0.67875 0.66424 0.0
H735 H 0.55616 0.54693 0.82234 0.0
H736 H 0.93913 0.58543 0.65194 0.0
H737 H 0.9683 0.6038 0.66796 0.0
H738 H 0.9488 0.59787 0.74535 0.0
H739 H 0.91956 0.57987 0.72946 0.0
H740 H 0.9741 0.62986 0.73788 0.0
H741 H 0.9651 0.5731 0.72223 0.0
H742 H 0.95764 0.54736 0.69626 0.0
H743 H -0.0014 0.57785 0.64374 0.0
H744 H 0.00615 0.60382 0.66925 0.0
H745 H 0.04155 0.63679 0.81617 0.0
H746 H 0.01528 0.6287 0.79215 0.0
H747 H 0.04403 0.64343 0.72126 0.0
H748 H 0.07051 0.65163 0.74521 0.0
H749 H 0.01599 0.6105 0.72039 0.0
H750 H 0.0274 0.66677 0.74191 0.0
H751 H 0.03469 0.69138 0.77042 0.0
H752 H 0.98904 0.66068 0.8147 0.0
H753 H 0.98159 0.6358 0.78668 0.0
C754 C 0.94102 0.58816 0.67235 0.0
C755 C 0.92704 0.58103 0.68948 0.0
C756 C 0.95771 0.59864 0.68147 0.0
C757 C 0.96075 0.60197 0.70789 0.0
C758 C 0.94675 0.59546 0.72488 0.0
C759 C 0.93005 0.58511 0.71576 0.0
C760 C 0.9785 0.61137 0.71813 0.0
C761 C 0.98325 0.6256 0.73415 0.0
C762 C 0.99056 0.60602 0.7128 0.0
C763 C 0.98604 0.59042 0.69746 0.0
C764 C 0.97242 0.57433 0.70503 0.0
C765 C 0.96819 0.5597 0.69042 0.0
C766 C 0.9776 0.56098 0.66832 0.0
C767 C 0.99129 0.57689 0.66083 0.0
C768 C -0.00444 0.59157 0.67536 0.0
C769 C 0.04235 0.63853 0.7955 0.0
C770 C 0.05809 0.64476 0.78257 0.0
C771 C 0.02734 0.634 0.78183 0.0
C772 C 0.02776 0.63557 0.75497 0.0
C773 C 0.0435 0.6422 0.74201 0.0
C774 C 0.05859 0.6469 0.75573 0.0
C775 C 0.01149 0.62881 0.74047 0.0
C776 C 0.00699 0.615 0.7237 0.0
C777 C -0.00039 0.63441 0.74542 0.0
C778 C 0.004 0.64938 0.76226 0.0
C779 C 0.01897 0.66522 0.75784 0.0
C780 C 0.02312 0.67923 0.77389 0.0
C781 C 0.01235 0.67758 0.79438 0.0
C782 C -0.00262 0.66193 0.79882 0.0
C783 C 0.99317 0.64788 0.78283 0.0
H784 H 0.01559 0.68844 0.80679 0.0
H785 H 0.97432 0.54964 0.65703 0.0
H786 H 0.40847 0.04739 0.83634 0.0
H787 H 0.38965 0.01889 0.8184 0.0
H788 H 0.39712 0.04083 0.74244 0.0
H789 H 0.41548 0.06942 0.76032 0.0
H790 H 0.36499 0.01594 0.74776 0.0
H791 H 0.42072 0.02262 0.76466 0.0
H792 H 0.44584 0.02861 0.79126 0.0
H793 H 0.41357 0.98676 0.84131 0.0
H794 H 0.38822 0.98067 0.81517 0.0
H795 H 0.35547 0.94772 0.66781 0.0
H796 H 0.36467 0.97417 0.692 0.0
H797 H 0.34842 0.94524 0.76265 0.0
H798 H 0.33911 0.91864 0.73859 0.0
H799 H 0.38199 0.97211 0.76384 0.0
H800 H 0.32665 0.96343 0.74155 0.0
H801 H 0.30262 0.95762 0.71259 0.0
H802 H 0.33532 0.00341 0.66989 0.0
H803 H 0.35963 0.00937 0.69836 0.0
C804 C 0.40598 0.04616 0.81584 0.0
C805 C 0.41362 0.06063 0.7997 0.0
C806 C 0.39525 0.02986 0.80562 0.0
C807 C 0.39225 0.02769 0.77902 0.0
C808 C 0.39928 0.0422 0.76302 0.0
C809 C 0.40983 0.05853 0.77326 0.0
C810 C 0.38262 0.01029 0.76761 0.0
C811 C 0.36876 0.00638 0.75115 0.0
C812 C 0.38733 -0.00231 0.77244 0.0
C813 C 0.40256 0.00132 0.78815 0.0
C814 C 0.41897 0.01478 0.78146 0.0
C815 C 0.43325 0.01818 0.79643 0.0
C816 C 0.43129 0.00811 0.81801 0.0
C817 C 0.41506 0.99458 0.82462 0.0
C818 C 0.40073 0.99114 0.80973 0.0
C819 C 0.35364 0.94693 0.68846 0.0
C820 C 0.34666 0.93109 0.7013 0.0
C821 C 0.35881 0.96205 0.70222 0.0
C822 C 0.35713 0.96162 0.72907 0.0
C823 C 0.34975 0.9458 0.74191 0.0
C824 C 0.34443 0.93063 0.72813 0.0
C825 C 0.3645 0.97784 0.74378 0.0
C826 C 0.37802 0.98155 0.76079 0.0
C827 C 0.35962 0.99029 0.73914 0.0
C828 C 0.34501 0.98678 0.722 0.0
C829 C 0.32876 0.97219 0.72586 0.0
C830 C 0.31508 0.96888 0.70956 0.0
C831 C 0.31745 0.98012 0.68938 0.0
C832 C 0.3335 0.99471 0.68551 0.0
C833 C 0.34724 -0.00193 0.70176 0.0
H834 H 0.30684 0.97753 0.67678 0.0
H835 H 0.44236 0.01076 0.82958 0.0
H836 H 0.33596 0.41395 0.76401 0.0
H837 H 0.34323 0.39396 0.74347 0.0
H838 H 0.36798 0.39169 0.81328 0.0
H839 H 0.36109 0.41187 0.83374 0.0
H840 H 0.38851 0.39839 0.77354 0.0
H841 H 0.32978 0.35731 0.79243 0.0
H842 H 0.29843 0.34546 0.79258 0.0
H843 H 0.29783 0.34451 0.71001 0.0
H844 H 0.32923 0.35658 0.70935 0.0
H845 H 0.40709 0.33522 0.73608 0.0
H846 H 0.38923 0.34463 0.75816 0.0
H847 H 0.37739 0.35953 0.68563 0.0
H848 H 0.39546 0.35042 0.66333 0.0
H849 H 0.34904 0.34463 0.72707 0.0
H850 H 0.40754 0.38943 0.70855 0.0
H851 H 0.43868 0.40005 0.70718 0.0
H852 H 0.43915 0.39363 0.78896 0.0
H853 H 0.40788 0.38264 0.79071 0.0
C854 C 0.34276 0.40902 0.77509 0.0
C855 C 0.34808 0.41462 0.80044 0.0
C856 C 0.34682 0.39752 0.76336 0.0
C857 C 0.35608 0.39127 0.77689 0.0
C858 C 0.36087 0.39639 0.80247 0.0
C859 C 0.35692 0.40794 0.81413 0.0
C860 C 0.36207 0.38058 0.76385 0.0
C861 C 0.37978 0.3865 0.76381 0.0
C862 C 0.35078 0.36528 0.75051 0.0
C863 C 0.33189 0.358 0.75084 0.0
C864 C 0.32299 0.35471 0.7743 0.0
C865 C 0.3052 0.34792 0.77448 0.0
C866 C 0.29615 0.34427 0.75132 0.0
C867 C 0.30486 0.34736 0.72793 0.0
C868 C 0.32265 0.35415 0.72765 0.0
C869 C 0.4003 0.34003 0.72472 0.0
C870 C 0.4029 0.34236 0.69803 0.0
C871 C 0.39006 0.34533 0.73736 0.0
C872 C 0.38211 0.35281 0.72346 0.0
C873 C 0.38338 0.35369 0.69659 0.0
C874 C 0.39382 0.34863 0.68395 0.0
C875 C 0.37527 0.36245 0.73719 0.0
C876 C 0.35758 0.35644 0.73714 0.0
C877 C 0.38651 0.37772 0.75042 0.0
C878 C 0.40538 0.38504 0.74971 0.0
C879 C 0.41428 0.3902 0.72622 0.0
C880 C 0.43193 0.39628 0.72536 0.0
C881 C 0.44086 0.39742 0.74794 0.0
C882 C 0.43219 0.39267 0.77147 0.0
C883 C 0.4145 0.38652 0.77241 0.0
H884 H 0.45449 0.40197 0.74715 0.0
H885 H 0.28237 0.33902 0.7515 0.0
H886 H 0.04712 0.39688 0.66015 0.0
H887 H 0.01977 0.37824 0.68141 0.0
H888 H 0.04315 0.3985 0.75518 0.0
H889 H 0.0708 0.41677 0.73401 0.0
H890 H 0.0186 0.36513 0.75932 0.0
H891 H 0.02328 0.41633 0.72266 0.0
H892 H 0.02868 0.43731 0.68826 0.0
H893 H 0.98745 0.3982 0.64371 0.0
H894 H 0.98196 0.37692 0.67772 0.0
H895 H 0.94673 0.36082 0.8254 0.0
H896 H 0.97408 0.36806 0.80529 0.0
H897 H 0.94764 0.34342 0.73512 0.0
H898 H 0.9202 0.33613 0.75501 0.0
H899 H 0.97316 0.37669 0.7282 0.0
H900 H 0.96668 0.32619 0.76935 0.0
H901 H 0.96155 0.30657 0.80565 0.0
H902 H 0.00615 0.34586 0.84431 0.0
H903 H 0.01142 0.36581 0.8084 0.0
C904 C 0.04651 0.3971 0.68095 0.0
C905 C 0.06097 0.40846 0.69543 0.0
C906 C 0.03089 0.38646 0.69306 0.0
C907 C 0.02934 0.38733 0.7198 0.0
C908 C 0.04406 0.39771 0.73451 0.0
C909 C 0.05982 0.40816 0.7224 0.0
C910 C 0.01212 0.37895 0.7319 0.0
C911 C 0.00867 0.36771 0.75266 0.0
C912 C -0.00086 0.38221 0.72301 0.0
C913 C 0.00234 0.395 0.7026 0.0
C914 C 0.01545 0.41218 0.70544 0.0
C915 C 0.01852 0.42413 0.68603 0.0
C916 C 0.00845 0.41908 0.66378 0.0
C917 C -0.00474 0.40209 0.66094 0.0
C918 C 0.99216 0.39008 0.68027 0.0
C919 C 0.94669 0.35671 0.8058 0.0
C920 C 0.93129 0.34805 0.79171 0.0
C921 C 0.96233 0.36075 0.79442 0.0
C922 C 0.96285 0.3562 0.76878 0.0
C923 C 0.94747 0.34699 0.75497 0.0
C924 C 0.93181 0.34285 0.76638 0.0
C925 C 0.97953 0.36276 0.75554 0.0
C926 C 0.98295 0.37384 0.73465 0.0
C927 C 0.99248 0.35953 0.76463 0.0
C928 C 0.98937 0.34755 0.78625 0.0
C929 C 0.97532 0.3307 0.78568 0.0
C930 C 0.9724 0.31951 0.80618 0.0
C931 C 0.98349 0.32498 0.8273 0.0
C932 C -0.00244 0.34164 0.82795 0.0
C933 C 0.00053 0.3529 0.80751 0.0
H934 H 0.98121 0.31629 0.84315 0.0
H935 H 0.01084 0.42835 0.64878 0.0
H936 H 0.47419 0.1731 0.21452 0.0
H937 H 0.47413 0.19881 0.22951 0.0
H938 H 0.41892 0.16997 0.23611 0.0
H939 H 0.41886 0.14411 0.22124 0.0
H940 H 0.43128 0.19998 0.20687 0.0
H941 H 0.44161 0.18274 0.28911 0.0
H942 H 0.45631 0.17362 0.31997 0.0
H943 H 0.50361 0.22074 0.30766 0.0
H944 H 0.48925 0.23004 0.27643 0.0
H945 H 0.42313 0.26741 0.26414 0.0
H946 H 0.42165 0.2404 0.25255 0.0
H947 H 0.47692 0.26505 0.25647 0.0
H948 H 0.47843 0.29196 0.26892 0.0
H949 H 0.46336 0.23619 0.28154 0.0
H950 H 0.45433 0.25318 0.19828 0.0
H951 H 0.44065 0.26262 0.16608 0.0
H952 H 0.39231 0.21662 0.17845 0.0
H953 H 0.40566 0.20701 0.21099 0.0
C954 C 0.46206 0.17215 0.2196 0.0
C955 C 0.44652 0.15662 0.21665 0.0
C956 C 0.46206 0.18684 0.2282 0.0
C957 C 0.44652 0.18624 0.23388 0.0
C958 C 0.43103 0.17064 0.23178 0.0
C959 C 0.43104 0.15589 0.22343 0.0
C960 C 0.44643 0.2022 0.24027 0.0
C961 C 0.43803 0.20779 0.22344 0.0
C962 C 0.45571 0.21256 0.26142 0.0
C963 C 0.46438 0.20702 0.28025 0.0
C964 C 0.45518 0.19109 0.29281 0.0
C965 C 0.46345 0.18591 0.31041 0.0
C966 C 0.48089 0.19658 0.31573 0.0
C967 C 0.4901 0.21248 0.3035 0.0
C968 C 0.4819 0.21773 0.28587 0.0
C969 C 0.43498 0.26714 0.26214 0.0
C970 C 0.4509 0.28178 0.26744 0.0
C971 C 0.43412 0.25169 0.25547 0.0
C972 C 0.44919 0.25071 0.2535 0.0
C973 C 0.46513 0.26549 0.25799 0.0
C974 C 0.46598 0.28087 0.26496 0.0
C975 C 0.44831 0.23412 0.248 0.0
C976 C 0.45653 0.2284 0.265 0.0
C977 C 0.43903 0.22372 0.22683 0.0
C978 C 0.43096 0.22947 0.20727 0.0
C979 C 0.44075 0.24515 0.19429 0.0
C980 C 0.43306 0.25051 0.17595 0.0
C981 C 0.41561 0.24025 0.17028 0.0
C982 C 0.40582 0.22457 0.18289 0.0
C983 C 0.41345 0.21915 0.20127 0.0
H984 H 0.40968 0.24442 0.15607 0.0
H985 H 0.48727 0.19254 0.32936 0.0
H986 H 0.1472 0.42449 0.26329 0.0
H987 H 0.174 0.42481 0.25371 0.0
H988 H 0.20262 0.47936 0.2676 0.0
H989 H 0.1759 0.47916 0.27742 0.0
H990 H 0.21371 0.46829 0.22389 0.0
H991 H 0.20073 0.45493 0.3139 0.0
H992 H 0.18225 0.43859 0.3504 0.0
H993 H 0.17896 0.39239 0.32124 0.0
H994 H 0.19722 0.40842 0.28433 0.0
H995 H 0.29594 0.47881 0.23403 0.0
H996 H 0.2699 0.47914 0.24638 0.0
H997 H 0.24141 0.42377 0.24537 0.0
H998 H 0.26756 0.42334 0.23386 0.0
H999 H 0.23004 0.43534 0.28272 0.0
H1000 H 0.24204 0.44746 0.19287 0.0
H1001 H 0.25958 0.46271 0.15501 0.0
H1002 H 0.26361 0.50974 0.18178 0.0
H1003 H 0.24629 0.4948 0.22 0.0
C1004 C 0.15916 0.43661 0.26387 0.0
C1005 C 0.15949 0.45179 0.27124 0.0
C1006 C 0.17444 0.43674 0.25853 0.0
C1007 C 0.19023 0.45207 0.26031 0.0
C1008 C 0.19052 0.46741 0.26625 0.0
C1009 C 0.17527 0.46726 0.27186 0.0
C1010 C 0.2065 0.45198 0.25723 0.0
C1011 C 0.21742 0.46127 0.2369 0.0
C1012 C 0.21104 0.44247 0.27392 0.0
C1013 C 0.20019 0.43284 0.29622 0.0
C1014 C 0.19595 0.44126 0.31515 0.0
C1015 C 0.18554 0.43206 0.33594 0.0
C1016 C 0.1794 0.41445 0.3381 0.0
C1017 C 0.1837 0.40602 0.31952 0.0
C1018 C 0.19409 0.41516 0.29867 0.0
C1019 C 0.2842 0.4667 0.23697 0.0
C1020 C 0.28371 0.45105 0.23272 0.0
C1021 C 0.26931 0.46691 0.24385 0.0
C1022 C 0.25363 0.45149 0.24606 0.0
C1023 C 0.25336 0.43582 0.24356 0.0
C1024 C 0.26831 0.4356 0.23701 0.0
C1025 C 0.23737 0.45169 0.24934 0.0
C1026 C 0.2264 0.44239 0.2697 0.0
C1027 C 0.23268 0.46104 0.23246 0.0
C1028 C 0.24302 0.47004 0.20942 0.0
C1029 C 0.24677 0.46108 0.19077 0.0
C1030 C 0.25666 0.46966 0.16924 0.0
C1031 C 0.26274 0.48719 0.16602 0.0
C1032 C 0.25891 0.49616 0.18431 0.0
C1033 C 0.24905 0.48764 0.20591 0.0
H1034 H 0.27039 0.49382 0.14934 0.0
H1035 H 0.17134 0.40735 0.3542 0.0
H1036 H 0.69349 0.17816 0.27591 0.0
H1037 H 0.71976 0.20385 0.26218 0.0
H1038 H 0.74408 0.17356 0.24952 0.0
H1039 H 0.71779 0.14773 0.26317 0.0
H1040 H 0.76309 0.20225 0.28077 0.0
H1041 H 0.73416 0.18896 0.19923 0.0
H1042 H 0.71006 0.18197 0.16974 0.0
H1043 H 0.71254 0.22966 0.18834 0.0
H1044 H 0.73652 0.23683 0.21823 0.0
H1045 H 0.839 0.26818 0.22167 0.0
H1046 H 0.81303 0.24202 0.23476 0.0
H1047 H 0.78524 0.26963 0.23669 0.0
H1048 H 0.81104 0.29569 0.2227 0.0
H1049 H 0.76797 0.24163 0.21035 0.0
H1050 H 0.79591 0.25504 0.29237 0.0
H1051 H 0.81947 0.26236 0.32312 0.0
H1052 H 0.81832 0.21517 0.30555 0.0
H1053 H 0.79489 0.20767 0.27442 0.0
C1054 C 0.70432 0.17691 0.26977 0.0
C1055 C 0.70362 0.16096 0.27066 0.0
C1056 C 0.7193 0.19158 0.26191 0.0
C1057 C 0.73382 0.19055 0.25489 0.0
C1058 C 0.73298 0.17457 0.25493 0.0
C1059 C 0.71794 0.15984 0.26258 0.0
C1060 C 0.75015 0.20635 0.24905 0.0
C1061 C 0.7643 0.21076 0.26512 0.0
C1062 C 0.75144 0.21763 0.22917 0.0
C1063 C 0.73704 0.21336 0.21115 0.0
C1064 C 0.72948 0.1979 0.1972 0.0
C1065 C 0.71585 0.19391 0.18038 0.0
C1066 C 0.70974 0.20535 0.17721 0.0
C1067 C 0.71728 0.22081 0.19082 0.0
C1068 C 0.7309 0.22485 0.20769 0.0
C1069 C 0.82744 0.26875 0.22538 0.0
C1070 C 0.827 0.28394 0.22108 0.0
C1071 C 0.8126 0.25379 0.23291 0.0
C1072 C 0.79718 0.25387 0.23678 0.0
C1073 C 0.79697 0.26925 0.23367 0.0
C1074 C 0.81173 0.28415 0.22581 0.0
C1075 C 0.781 0.23769 0.2422 0.0
C1076 C 0.76685 0.23316 0.22602 0.0
C1077 C 0.77966 0.2264 0.26217 0.0
C1078 C 0.79376 0.23087 0.28088 0.0
C1079 C 0.80078 0.24629 0.29491 0.0
C1080 C 0.81409 0.25046 0.31243 0.0
C1081 C 0.82042 0.23926 0.31623 0.0
C1082 C 0.81342 0.22385 0.30256 0.0
C1083 C 0.80011 0.21962 0.28499 0.0
H1084 H 0.83073 0.24251 0.32982 0.0
H1085 H 0.6992 0.20224 0.16418 0.0
H1086 H 0.50982 0.81058 0.21953 0.0
H1087 H 0.51092 0.78511 0.23305 0.0
H1088 H 0.56602 0.81549 0.24005 0.0
H1089 H 0.56504 0.84108 0.22674 0.0
H1090 H 0.55437 0.78582 0.20934 0.0
H1091 H 0.54365 0.80174 0.29265 0.0
H1092 H 0.52823 0.80964 0.32405 0.0
H1093 H 0.48214 0.76143 0.31143 0.0
H1094 H 0.49723 0.75334 0.27967 0.0
H1095 H 0.56901 0.72264 0.26689 0.0
H1096 H 0.56791 0.74815 0.25397 0.0
H1097 H 0.51265 0.72002 0.26094 0.0
H1098 H 0.51376 0.69465 0.27485 0.0
H1099 H 0.52454 0.74895 0.28456 0.0
H1100 H 0.53403 0.73266 0.20131 0.0
H1101 H 0.54834 0.72434 0.16857 0.0
H1102 H 0.59509 0.77231 0.17891 0.0
H1103 H 0.58112 0.78083 0.21198 0.0
C1104 C 0.52214 0.8119 0.22438 0.0
C1105 C 0.53735 0.8278 0.22204 0.0
C1106 C 0.52274 0.79735 0.2321 0.0
C1107 C 0.53856 0.79846 0.23746 0.0
C1108 C 0.55371 0.81441 0.23592 0.0
C1109 C 0.5531 0.82901 0.22847 0.0
C1110 C 0.53934 0.78279 0.24322 0.0
C1111 C 0.54808 0.77785 0.22599 0.0
C1112 C 0.53062 0.77219 0.26444 0.0
C1113 C 0.52154 0.77701 0.2836 0.0
C1114 C 0.53019 0.79289 0.2964 0.0
C1115 C 0.52152 0.79739 0.3143 0.0
C1116 C 0.50421 0.78606 0.31968 0.0
C1117 C 0.49555 0.7702 0.30722 0.0
C1118 C 0.50416 0.76564 0.28929 0.0
C1119 C 0.5566 0.72181 0.2652 0.0
C1120 C 0.54147 0.70668 0.27191 0.0
C1121 C 0.55598 0.7364 0.25775 0.0
C1122 C 0.54018 0.736 0.25634 0.0
C1123 C 0.52499 0.72066 0.26201 0.0
C1124 C 0.52563 0.70615 0.26982 0.0
C1125 C 0.53956 0.75184 0.25062 0.0
C1126 C 0.53084 0.75685 0.26787 0.0
C1127 C 0.54812 0.7624 0.2292 0.0
C1128 C 0.55657 0.75731 0.20931 0.0
C1129 C 0.5474 0.74138 0.19676 0.0
C1130 C 0.55544 0.73664 0.17811 0.0
C1131 C 0.57262 0.74777 0.17171 0.0
C1132 C 0.58178 0.76369 0.18391 0.0
C1133 C 0.57381 0.76849 0.20259 0.0
H1134 H 0.57882 0.74408 0.15726 0.0
H1135 H 0.49752 0.78957 0.33355 0.0
H1136 H 0.70926 0.52276 0.17907 0.0
H1137 H 0.73407 0.52239 0.19698 0.0
H1138 H 0.73547 0.55434 0.25995 0.0
H1139 H 0.71096 0.55541 0.2413 0.0
H1140 H 0.76631 0.56518 0.24456 0.0
H1141 H 0.72014 0.51009 0.26703 0.0
H1142 H 0.69407 0.482 0.26024 0.0
H1143 H 0.7215 0.46762 0.20764 0.0
H1144 H 0.74768 0.49572 0.21383 0.0
H1145 H 0.80911 0.51821 0.31129 0.0
H1146 H 0.7837 0.51847 0.29583 0.0
H1147 H 0.81446 0.55652 0.23896 0.0
H1148 H 0.84021 0.55688 0.25526 0.0
H1149 H 0.76674 0.51058 0.2546 0.0
H1150 H 0.79842 0.58258 0.22665 0.0
H1151 H 0.82303 0.61043 0.23972 0.0
H1152 H 0.822 0.59041 0.31508 0.0
H1153 H 0.79726 0.56254 0.30257 0.0
C1154 C 0.71475 0.52961 0.19684 0.0
C1155 C 0.70811 0.53902 0.20891 0.0
C1156 C 0.72892 0.52934 0.20712 0.0
C1157 C 0.73648 0.53808 0.23008 0.0
C1158 C 0.72983 0.54747 0.24224 0.0
C1159 C 0.7158 0.54801 0.23166 0.0
C1160 C 0.75153 0.53765 0.24094 0.0
C1161 C 0.76638 0.55324 0.24685 0.0
C1162 C 0.75154 0.52205 0.24444 0.0
C1163 C 0.73584 0.50508 0.24075 0.0
C1164 C 0.72058 0.50098 0.25388 0.0
C1165 C 0.70579 0.48505 0.25016 0.0
C1166 C 0.70612 0.47304 0.23348 0.0
C1167 C 0.72126 0.47693 0.22054 0.0
C1168 C 0.73609 0.49286 0.22417 0.0
C1169 C 0.81048 0.52658 0.29539 0.0
C1170 C 0.82667 0.53759 0.28455 0.0
C1171 C 0.79591 0.52671 0.28655 0.0
C1172 C 0.79716 0.53769 0.26648 0.0
C1173 C 0.81322 0.54822 0.25489 0.0
C1174 C 0.82791 0.54833 0.26406 0.0
C1175 C 0.78161 0.53812 0.25798 0.0
C1176 C 0.76667 0.52253 0.25241 0.0
C1177 C 0.78131 0.55366 0.25578 0.0
C1178 C 0.7961 0.57043 0.26356 0.0
C1179 C 0.80341 0.58415 0.24603 0.0
C1180 C 0.81739 0.59993 0.25334 0.0
C1181 C 0.82411 0.60217 0.27818 0.0
C1182 C 0.81683 0.58864 0.29581 0.0
C1183 C 0.80284 0.57285 0.28861 0.0
H1184 H 0.83494 0.61439 0.2838 0.0
H1185 H 0.69465 0.46072 0.23062 0.0
H1186 H 0.14853 0.71055 0.23717 0.0
H1187 H 0.17509 0.73553 0.25219 0.0
H1188 H 0.2031 0.72839 0.1906 0.0
H1189 H 0.17684 0.70308 0.17626 0.0
H1190 H 0.22177 0.73704 0.2307 0.0
H1191 H 0.18993 0.75913 0.18795 0.0
H1192 H 0.16488 0.76248 0.17857 0.0
H1193 H 0.16657 0.78089 0.25532 0.0
H1194 H 0.19151 0.77743 0.26526 0.0
H1195 H 0.27743 0.83766 0.24593 0.0
H1196 H 0.25302 0.81202 0.22746 0.0
H1197 H 0.25664 0.78116 0.28804 0.0
H1198 H 0.28141 0.80652 0.30581 0.0
H1199 H 0.22291 0.79212 0.24488 0.0
H1200 H 0.24199 0.74071 0.26969 0.0
H1201 H 0.26818 0.73848 0.27289 0.0
H1202 H 0.29425 0.78081 0.2207 0.0
H1203 H 0.26816 0.78315 0.21692 0.0
C1204 C 0.1604 0.71425 0.22702 0.0
C1205 C 0.16061 0.70492 0.20551 0.0
C1206 C 0.17554 0.72858 0.23549 0.0
C1207 C 0.19105 0.73405 0.22223 0.0
C1208 C 0.19132 0.72445 0.20115 0.0
C1209 C 0.17627 0.70999 0.19295 0.0
C1210 C 0.20698 0.74989 0.22997 0.0
C1211 C 0.22202 0.74909 0.2338 0.0
C1212 C 0.20746 0.76574 0.23333 0.0
C1213 C 0.19248 0.76787 0.22742 0.0
C1214 C 0.18488 0.76378 0.20288 0.0
C1215 C 0.17072 0.76571 0.19745 0.0
C1216 C 0.16411 0.77185 0.21635 0.0
C1217 C 0.17169 0.77611 0.24071 0.0
C1218 C 0.18585 0.77418 0.24624 0.0
C1219 C 0.27314 0.82535 0.25506 0.0
C1220 C 0.28136 0.82406 0.27721 0.0
C1221 C 0.25916 0.81073 0.24457 0.0
C1222 C 0.25308 0.79461 0.25619 0.0
C1223 C 0.26132 0.79335 0.27833 0.0
C1224 C 0.27545 0.80789 0.28855 0.0
C1225 C 0.23767 0.77923 0.24589 0.0
C1226 C 0.2227 0.7801 0.24168 0.0
C1227 C 0.23743 0.76361 0.24126 0.0
C1228 C 0.25315 0.7622 0.24322 0.0
C1229 C 0.25329 0.7495 0.25882 0.0
C1230 C 0.26812 0.74823 0.26075 0.0
C1231 C 0.28288 0.75953 0.24707 0.0
C1232 C 0.28283 0.7721 0.23136 0.0
C1233 C 0.26803 0.77342 0.22934 0.0
H1234 H 0.29436 0.75853 0.2486 0.0
H1235 H 0.15314 0.77334 0.21211 0.0
H1236 H 0.56296 0.72132 0.72203 0.0
H1237 H 0.56239 0.74671 0.73705 0.0
H1238 H 0.50761 0.72097 0.72443 0.0
H1239 H 0.50824 0.69575 0.70841 0.0
H1240 H 0.52152 0.75119 0.70443 0.0
H1241 H 0.52602 0.72975 0.78619 0.0
H1242 H 0.53774 0.71859 0.81896 0.0
H1243 H 0.58626 0.76546 0.8159 0.0
H1244 H 0.5749 0.77682 0.78284 0.0
H1245 H 0.50994 0.81388 0.7734 0.0
H1246 H 0.50917 0.78764 0.7588 0.0
H1247 H 0.56449 0.81475 0.75459 0.0
H1248 H 0.56539 0.84111 0.76889 0.0
H1249 H 0.54955 0.78369 0.78391 0.0
H1250 H 0.54385 0.80446 0.70109 0.0
H1251 H 0.53081 0.81506 0.66964 0.0
H1252 H 0.48249 0.7683 0.67701 0.0
H1253 H 0.49519 0.75751 0.7088 0.0
C1254 C 0.55075 0.72097 0.72287 0.0
C1255 C 0.53565 0.70658 0.71402 0.0
C1256 C 0.55042 0.73548 0.73154 0.0
C1257 C 0.53492 0.73572 0.73206 0.0
C1258 C 0.51972 0.7211 0.72412 0.0
C1259 C 0.52008 0.70668 0.71509 0.0
C1260 C 0.53479 0.7516 0.73925 0.0
C1261 C 0.5274 0.75812 0.72205 0.0
C1262 C 0.54276 0.76086 0.76197 0.0
C1263 C 0.54964 0.75407 0.78186 0.0
C1264 C 0.53923 0.73763 0.79235 0.0
C1265 C 0.5458 0.73127 0.81101 0.0
C1266 C 0.56274 0.74129 0.81946 0.0
C1267 C 0.57314 0.75771 0.80931 0.0
C1268 C 0.56663 0.76412 0.79064 0.0
C1269 C 0.52192 0.81432 0.76898 0.0
C1270 C 0.53773 0.82952 0.7723 0.0
C1271 C 0.52145 0.79934 0.76065 0.0
C1272 C 0.53678 0.79932 0.75572 0.0
C1273 C 0.55255 0.81457 0.75837 0.0
C1274 C 0.55302 0.82961 0.76638 0.0
C1275 C 0.53637 0.78317 0.74907 0.0
C1276 C 0.54364 0.77665 0.76638 0.0
C1277 C 0.52808 0.77379 0.72668 0.0
C1278 C 0.52043 0.78025 0.70753 0.0
C1279 C 0.53041 0.7965 0.69619 0.0
C1280 C 0.52308 0.80253 0.67826 0.0
C1281 C 0.50582 0.79238 0.67138 0.0
C1282 C 0.49586 0.77616 0.68238 0.0
C1283 C 0.50312 0.77007 0.70034 0.0
H1284 H 0.50018 0.79708 0.65749 0.0
H1285 H 0.56781 0.73635 0.8339 0.0
H1286 H 0.6901 0.51158 0.78013 0.0
H1287 H 0.71676 0.51199 0.76943 0.0
H1288 H 0.74175 0.56661 0.75626 0.0
H1289 H 0.71495 0.56617 0.76605 0.0
H1290 H 0.75311 0.5528 0.72318 0.0
H1291 H 0.74529 0.54978 0.81441 0.0
H1292 H 0.72999 0.53812 0.85535 0.0
H1293 H 0.72848 0.49041 0.84081 0.0
H1294 H 0.74356 0.5017 0.79958 0.0
H1295 H 0.83816 0.56972 0.73749 0.0
H1296 H 0.81172 0.56902 0.75083 0.0
H1297 H 0.78424 0.51377 0.74623 0.0
H1298 H 0.81055 0.51433 0.73254 0.0
H1299 H 0.77483 0.52849 0.78922 0.0
H1300 H 0.78264 0.53271 0.69657 0.0
H1301 H 0.79917 0.54591 0.65703 0.0
H1302 H 0.80203 0.59364 0.67655 0.0
H1303 H 0.78575 0.58078 0.71646 0.0
C1304 C 0.70119 0.52361 0.77444 0.0
C1305 C 0.70051 0.53887 0.77414 0.0
C1306 C 0.71645 0.52385 0.76854 0.0
C1307 C 0.73137 0.53942 0.76278 0.0
C1308 C 0.73042 0.55448 0.76086 0.0
C1309 C 0.71509 0.5542 0.76641 0.0
C1310 C 0.74813 0.54014 0.75996 0.0
C1311 C 0.75792 0.54766 0.73778 0.0
C1312 C 0.7544 0.53334 0.77895 0.0
C1313 C 0.7454 0.52653 0.80379 0.0
C1314 C 0.74159 0.53676 0.81985 0.0
C1315 C 0.73297 0.53022 0.84312 0.0
C1316 C 0.72822 0.51352 0.85064 0.0
C1317 C 0.73213 0.50334 0.83494 0.0
C1318 C 0.74073 0.5098 0.81163 0.0
C1319 C 0.8266 0.5574 0.74 0.0
C1320 C 0.82635 0.54208 0.73375 0.0
C1321 C 0.81152 0.55704 0.7475 0.0
C1322 C 0.79606 0.54136 0.74912 0.0
C1323 C 0.79607 0.52598 0.74498 0.0
C1324 C 0.81109 0.52633 0.73715 0.0
C1325 C 0.77963 0.54107 0.7525 0.0
C1326 C 0.76995 0.53364 0.77473 0.0
C1327 C 0.77357 0.54817 0.73377 0.0
C1328 C 0.78314 0.55584 0.70962 0.0
C1329 C 0.78692 0.54606 0.69253 0.0
C1330 C 0.79622 0.55347 0.67004 0.0
C1331 C 0.80169 0.57062 0.66432 0.0
C1332 C 0.79781 0.58037 0.68103 0.0
C1333 C 0.78854 0.57302 0.70358 0.0
H1334 H 0.80889 0.57634 0.6469 0.0
H1335 H 0.72155 0.50848 0.86866 0.0
H1336 H 0.26824 0.83932 0.72306 0.0
H1337 H 0.24319 0.81258 0.73669 0.0
H1338 H 0.27201 0.78624 0.72878 0.0
H1339 H 0.29691 0.81288 0.71396 0.0
H1340 H 0.24279 0.76815 0.70727 0.0
H1341 H 0.25992 0.79511 0.78909 0.0
H1342 H 0.26884 0.81811 0.82135 0.0
H1343 H 0.22085 0.81705 0.81227 0.0
H1344 H 0.21173 0.79421 0.77968 0.0
H1345 H 0.17741 0.69333 0.77415 0.0
H1346 H 0.2043 0.7189 0.76154 0.0
H1347 H 0.17689 0.74607 0.74771 0.0
H1348 H 0.14993 0.72053 0.75987 0.0
H1349 H 0.20615 0.76269 0.78207 0.0
H1350 H 0.1903 0.73556 0.69838 0.0
H1351 H 0.18209 0.71171 0.66789 0.0
H1352 H 0.22915 0.71208 0.68377 0.0
H1353 H 0.23752 0.73579 0.71465 0.0
C1354 C 0.26932 0.82789 0.72463 0.0
C1355 C 0.28451 0.82816 0.71746 0.0
C1356 C 0.255 0.8126 0.73252 0.0
C1357 C 0.25574 0.7974 0.73405 0.0
C1358 C 0.27112 0.79779 0.72771 0.0
C1359 C 0.28535 0.81302 0.71936 0.0
C1360 C 0.24015 0.78092 0.74064 0.0
C1361 C 0.23498 0.7669 0.72392 0.0
C1362 C 0.22977 0.77929 0.76214 0.0
C1363 C 0.2352 0.79303 0.78177 0.0
C1364 C 0.25131 0.79987 0.79383 0.0
C1365 C 0.2564 0.81286 0.8122 0.0
C1366 C 0.24543 0.81906 0.81882 0.0
C1367 C 0.22934 0.81225 0.80711 0.0
C1368 C 0.2242 0.79926 0.78871 0.0
C1369 C 0.17708 0.70467 0.76801 0.0
C1370 C 0.16159 0.70497 0.76803 0.0
C1371 C 0.19242 0.71923 0.76084 0.0
C1372 C 0.1925 0.73432 0.75384 0.0
C1373 C 0.17702 0.73451 0.75314 0.0
C1374 C 0.16165 0.7199 0.75994 0.0
C1375 C 0.20885 0.7502 0.74856 0.0
C1376 C 0.21412 0.76402 0.76557 0.0
C1377 C 0.21946 0.75154 0.72765 0.0
C1378 C 0.21444 0.73731 0.70904 0.0
C1379 C 0.19882 0.73044 0.69556 0.0
C1380 C 0.19416 0.71697 0.67817 0.0
C1381 C 0.20507 0.71034 0.67396 0.0
C1382 C 0.22069 0.7172 0.68709 0.0
C1383 C 0.22541 0.73067 0.70452 0.0
H1384 H 0.20144 0.69992 0.66048 0.0
H1385 H 0.2494 0.82912 0.83305 0.0
H1386 H 0.47503 0.29523 0.71241 0.0
H1387 H 0.47593 0.26938 0.72398 0.0
H1388 H 0.42099 0.24203 0.73492 0.0
H1389 H 0.42004 0.26797 0.72398 0.0
H1390 H 0.43604 0.23323 0.77081 0.0
H1391 H 0.43903 0.23822 0.67896 0.0
H1392 H 0.45042 0.25255 0.6373 0.0
H1393 H 0.49929 0.25722 0.65451 0.0
H1394 H 0.48827 0.24313 0.69645 0.0
H1395 H 0.42275 0.14909 0.76176 0.0
H1396 H 0.42239 0.17495 0.74821 0.0
H1397 H 0.47771 0.20393 0.75182 0.0
H1398 H 0.4782 0.17818 0.76573 0.0
H1399 H 0.46237 0.21154 0.70814 0.0
H1400 H 0.4587 0.20657 0.80071 0.0
H1401 H 0.44648 0.1915 0.84163 0.0
H1402 H 0.39759 0.18591 0.82168 0.0
H1403 H 0.40947 0.20072 0.78044 0.0
C1404 C 0.46317 0.28378 0.71761 0.0
C1405 C 0.44744 0.28358 0.7171 0.0
C1406 C 0.46369 0.26899 0.72406 0.0
C1407 C 0.44847 0.25369 0.72974 0.0
C1408 C 0.43287 0.25368 0.73044 0.0
C1409 C 0.43235 0.26851 0.7242 0.0
C1410 C 0.44874 0.23756 0.73415 0.0
C1411 C 0.44161 0.22839 0.75695 0.0
C1412 C 0.45622 0.23136 0.7162 0.0
C1413 C 0.46287 0.23978 0.69095 0.0
C1414 C 0.45225 0.24242 0.67394 0.0
C1415 C 0.45863 0.25048 0.65027 0.0
C1416 C 0.47558 0.25583 0.64329 0.0
C1417 C 0.48617 0.25309 0.65996 0.0
C1418 C 0.47986 0.24506 0.68367 0.0
C1419 C 0.43486 0.16088 0.75914 0.0
C1420 C 0.4505 0.16167 0.76497 0.0
C1421 C 0.43462 0.17563 0.75152 0.0
C1422 C 0.45001 0.19131 0.74936 0.0
C1423 C 0.46571 0.19191 0.75348 0.0
C1424 C 0.46595 0.17721 0.76143 0.0
C1425 C 0.44968 0.20732 0.7447 0.0
C1426 C 0.4568 0.21643 0.72191 0.0
C1427 C 0.44207 0.21339 0.76252 0.0
C1428 C 0.43492 0.20458 0.78737 0.0
C1429 C 0.4453 0.20199 0.80495 0.0
C1430 C 0.43845 0.19352 0.82822 0.0
C1431 C 0.42125 0.18771 0.83422 0.0
C1432 C 0.4109 0.19039 0.81699 0.0
C1433 C 0.41769 0.19883 0.79367 0.0
H1434 H 0.41597 0.18116 0.85225 0.0
H1435 H 0.4805 0.26207 0.62495 0.0
H1436 H 0.18175 0.47489 0.68231 0.0
H1437 H 0.20805 0.47567 0.69601 0.0
H1438 H 0.18012 0.43948 0.75655 0.0
H1439 H 0.15352 0.43803 0.74207 0.0
H1440 H 0.22692 0.48485 0.73555 0.0
H1441 H 0.19625 0.41364 0.76787 0.0
H1442 H 0.17116 0.3855 0.75726 0.0
H1443 H 0.16945 0.40349 0.68143 0.0
H1444 H 0.19464 0.43165 0.69147 0.0
H1445 H 0.28672 0.47435 0.80829 0.0
H1446 H 0.26172 0.47485 0.79138 0.0
H1447 H 0.25749 0.44037 0.7304 0.0
H1448 H 0.28211 0.43914 0.74816 0.0
H1449 H 0.22758 0.4305 0.74758 0.0
H1450 H 0.273 0.4847 0.72037 0.0
H1451 H 0.29928 0.51296 0.7243 0.0
H1452 H 0.2738 0.52922 0.77764 0.0
H1453 H 0.24742 0.50097 0.7743 0.0
C1454 C 0.18122 0.46718 0.69867 0.0
C1455 C 0.16557 0.45629 0.71102 0.0
C1456 C 0.19628 0.46765 0.70649 0.0
C1457 C 0.19603 0.45741 0.72702 0.0
C1458 C 0.18055 0.44716 0.74023 0.0
C1459 C 0.16539 0.44644 0.73208 0.0
C1460 C 0.21193 0.45724 0.73418 0.0
C1461 C 0.22706 0.47297 0.73817 0.0
C1462 C 0.21228 0.44176 0.73684 0.0
C1463 C 0.19722 0.4248 0.73054 0.0
C1464 C 0.19055 0.41157 0.74891 0.0
C1465 C 0.17631 0.39562 0.74299 0.0
C1466 C 0.16868 0.39273 0.71871 0.0
C1467 C 0.17532 0.40576 0.70026 0.0
C1468 C 0.18957 0.42172 0.70606 0.0
C1469 C 0.28055 0.46697 0.79115 0.0
C1470 C 0.28638 0.45676 0.77945 0.0
C1471 C 0.2663 0.46734 0.78141 0.0
C1472 C 0.25787 0.45789 0.75933 0.0
C1473 C 0.26379 0.44778 0.74745 0.0
C1474 C 0.27787 0.44713 0.75753 0.0
C1475 C 0.24253 0.45811 0.74929 0.0
C1476 C 0.22748 0.44239 0.74484 0.0
C1477 C 0.24244 0.47362 0.74518 0.0
C1478 C 0.25827 0.49066 0.74723 0.0
C1479 C 0.27303 0.49426 0.73308 0.0
C1480 C 0.28795 0.51028 0.73518 0.0
C1481 C 0.28822 0.52286 0.75126 0.0
C1482 C 0.27357 0.51945 0.76522 0.0
C1483 C 0.25863 0.50345 0.7632 0.0
H1484 H 0.29978 0.53526 0.75286 0.0
H1485 H 0.15765 0.38038 0.71418 0.0
H1486 H 0.84134 0.27171 0.76032 0.0
H1487 H 0.81517 0.24574 0.74742 0.0
H1488 H 0.78727 0.27324 0.74966 0.0
H1489 H 0.81333 0.29914 0.76352 0.0
H1490 H 0.77019 0.24465 0.77448 0.0
H1491 H 0.79706 0.25968 0.692 0.0
H1492 H 0.82022 0.26791 0.66018 0.0
H1493 H 0.82016 0.22086 0.67427 0.0
H1494 H 0.79715 0.21245 0.70644 0.0
H1495 H 0.69541 0.17931 0.71034 0.0
H1496 H 0.72132 0.20576 0.72303 0.0
H1497 H 0.74787 0.1775 0.73462 0.0
H1498 H 0.72196 0.15093 0.72212 0.0
H1499 H 0.76523 0.20641 0.70228 0.0
H1500 H 0.73778 0.19191 0.78521 0.0
H1501 H 0.71398 0.18407 0.81568 0.0
H1502 H 0.71441 0.23095 0.79851 0.0
H1503 H 0.73807 0.23897 0.76764 0.0
C1504 C 0.82971 0.27231 0.75761 0.0
C1505 C 0.82936 0.28744 0.76297 0.0
C1506 C 0.81475 0.25745 0.75016 0.0
C1507 C 0.79925 0.25754 0.74741 0.0
C1508 C 0.79906 0.27285 0.75175 0.0
C1509 C 0.81397 0.28765 0.75954 0.0
C1510 C 0.78305 0.24142 0.74175 0.0
C1511 C 0.76904 0.23645 0.75842 0.0
C1512 C 0.78164 0.2305 0.72116 0.0
C1513 C 0.79549 0.23551 0.70181 0.0
C1514 C 0.80208 0.25115 0.68847 0.0
C1515 C 0.81516 0.25583 0.67034 0.0
C1516 C 0.82169 0.24493 0.66525 0.0
C1517 C 0.81511 0.2293 0.67825 0.0
C1518 C 0.80203 0.22456 0.69641 0.0
C1519 C 0.70667 0.17868 0.71601 0.0
C1520 C 0.70668 0.16307 0.7152 0.0
C1521 C 0.72144 0.19379 0.72326 0.0
C1522 C 0.73646 0.19354 0.72968 0.0
C1523 C 0.73637 0.17791 0.72965 0.0
C1524 C 0.72155 0.16275 0.72267 0.0
C1525 C 0.75252 0.20974 0.73501 0.0
C1526 C 0.76646 0.21469 0.71828 0.0
C1527 C 0.75379 0.22074 0.75532 0.0
C1528 C 0.73959 0.21596 0.77392 0.0
C1529 C 0.7327 0.20048 0.78775 0.0
C1530 C 0.71925 0.19601 0.80513 0.0
C1531 C 0.71265 0.20698 0.80897 0.0
C1532 C 0.71952 0.22246 0.79549 0.0
C1533 C 0.73296 0.22698 0.77807 0.0
H1534 H 0.70224 0.20351 0.82244 0.0
H1535 H 0.83181 0.24858 0.65121 0.0
H1536 H 0.40571 0.11236 0.10176 0.0
H1537 H 0.40008 0.11725 0.05726 0.0
H1538 H 0.45426 0.14153 0.04052 0.0
H1539 H 0.45996 0.13676 0.08466 0.0
H1540 H 0.43885 0.15828 0.01759 0.0
H1541 H 0.42849 0.09958 0.02865 0.0
H1542 H 0.41347 0.0707 0.0481 0.0
H1543 H 0.36507 0.06379 0.02206 0.0
H1544 H 0.37984 0.09274 0.00271 0.0
H1545 H 0.46238 0.14279 0.8987 0.0
H1546 H 0.45535 0.14571 0.94292 0.0
H1547 H 0.40145 0.11981 0.92364 0.0
H1548 H 0.40843 0.11674 0.87905 0.0
H1549 H 0.40781 0.10554 0.9647 0.0
H1550 H 0.42054 0.1612 0.94162 0.0
H1551 H 0.43628 0.18965 0.92111 0.0
H1552 H 0.48015 0.20265 0.9687 0.0
H1553 H 0.46481 0.17417 0.98922 0.0
C1554 C 0.41641 0.11891 0.08862 0.0
C1555 C 0.43325 0.124 0.09654 0.0
C1556 C 0.41318 0.12172 0.06329 0.0
C1557 C 0.42676 0.12969 0.04566 0.0
C1558 C 0.44362 0.13543 0.05389 0.0
C1559 C 0.44684 0.13256 0.07906 0.0
C1560 C 0.42358 0.13071 0.01801 0.0
C1561 C 0.43197 0.1468 0.00594 0.0
C1562 C 0.41405 0.11575 0.00304 0.0
C1563 C 0.40522 0.09837 0.01457 0.0
C1564 C 0.41464 0.09194 0.02726 0.0
C1565 C 0.40617 0.07556 0.03822 0.0
C1566 C 0.38832 0.06544 0.0364 0.0
C1567 C 0.3789 0.07166 0.02352 0.0
C1568 C 0.3873 0.08805 0.01256 0.0
C1569 C 0.44904 0.13791 0.90374 0.0
C1570 C 0.43595 0.12942 0.8855 0.0
C1571 C 0.44505 0.13974 0.92898 0.0
C1572 C 0.42788 0.13315 0.93648 0.0
C1573 C 0.41477 0.12508 0.91815 0.0
C1574 C 0.41879 0.12333 0.89275 0.0
C1575 C 0.42386 0.13309 0.96406 0.0
C1576 C 0.41412 0.11714 0.97622 0.0
C1577 C 0.43216 0.14821 0.97905 0.0
C1578 C 0.44149 0.16548 0.96696 0.0
C1579 C 0.43358 0.17007 0.94763 0.0
C1580 C 0.44243 0.18623 0.936 0.0
C1581 C 0.4592 0.19795 0.9436 0.0
C1582 C 0.46715 0.19356 0.96286 0.0
C1583 C 0.45836 0.17742 0.97454 0.0
H1584 H 0.46604 0.21045 0.93456 0.0
H1585 H 0.38179 0.05276 0.04489 0.0
H1586 H 0.29093 0.41502 0.88999 0.0
H1587 H 0.28458 0.40833 0.93588 0.0
H1588 H 0.3273 0.45804 0.95554 0.0
H1589 H 0.33369 0.46478 0.91013 0.0
H1590 H 0.32722 0.43135 0.98214 0.0
H1591 H 0.28744 0.45113 0.95826 0.0
H1592 H 0.26319 0.44948 0.93365 0.0
H1593 H 0.23005 0.39856 0.96234 0.0
H1594 H 0.25419 0.39985 0.98687 0.0
H1595 H 0.32393 0.46482 0.09837 0.0
H1596 H 0.31908 0.45831 0.05266 0.0
H1597 H 0.2825 0.40549 0.07003 0.0
H1598 H 0.28738 0.41185 0.11626 0.0
H1599 H 0.27488 0.42444 0.0253 0.0
H1600 H 0.31446 0.40722 0.05529 0.0
H1601 H 0.33897 0.41053 0.08102 0.0
H1602 H 0.37266 0.45718 0.04087 0.0
H1603 H 0.34828 0.45431 0.01521 0.0
C1604 C 0.2989 0.4245 0.90415 0.0
C1605 C 0.31283 0.4404 0.89652 0.0
C1606 C 0.29525 0.42067 0.93027 0.0
C1607 C 0.30552 0.43268 0.94897 0.0
C1608 C 0.3193 0.44857 0.94132 0.0
C1609 C 0.32289 0.45242 0.91537 0.0
C1610 C 0.30235 0.42895 0.97669 0.0
C1611 C 0.31571 0.42968 0.99156 0.0
C1612 C 0.28711 0.42624 0.98882 0.0
C1613 C 0.27265 0.42549 0.97409 0.0
C1614 C 0.27502 0.43952 0.95911 0.0
C1615 C 0.26129 0.43867 0.94523 0.0
C1616 C 0.24511 0.42389 0.94635 0.0
C1617 C 0.24261 0.40997 0.96143 0.0
C1618 C 0.2563 0.41076 0.97533 0.0
C1619 C 0.31466 0.45186 0.09258 0.0
C1620 C 0.30621 0.43879 0.11087 0.0
C1621 C 0.31188 0.44819 0.06647 0.0
C1622 C 0.30056 0.43142 0.05816 0.0
C1623 C 0.29127 0.4185 0.07624 0.0
C1624 C 0.29413 0.42215 0.10254 0.0
C1625 C 0.30002 0.42752 0.03057 0.0
C1626 C 0.28607 0.42541 0.01578 0.0
C1627 C 0.31472 0.42895 0.01839 0.0
C1628 C 0.32951 0.43059 0.03342 0.0
C1629 C 0.32707 0.41825 0.05207 0.0
C1630 C 0.34095 0.42003 0.06663 0.0
C1631 C 0.35736 0.43407 0.0626 0.0
C1632 C 0.35994 0.44631 0.04396 0.0
C1633 C 0.3461 0.4446 0.02938 0.0
H1634 H 0.36809 0.43543 0.07391 0.0
H1635 H 0.2345 0.42326 0.9356 0.0
H1636 H 0.86894 0.29067 0.87903 0.0
H1637 H 0.8681 0.28481 0.92534 0.0
H1638 H 0.86032 0.32746 0.94134 0.0
H1639 H 0.86106 0.33335 0.89553 0.0
H1640 H 0.88765 0.32815 0.96853 0.0
H1641 H 0.82782 0.28844 0.9462 0.0
H1642 H 0.80485 0.26372 0.92293 0.0
H1643 H 0.822 0.23083 0.95478 0.0
H1644 H 0.84524 0.25544 0.97798 0.0
H1645 H 0.85514 0.32866 0.08731 0.0
H1646 H 0.85589 0.32367 0.04141 0.0
H1647 H 0.86768 0.28366 0.05741 0.0
H1648 H 0.86703 0.28862 0.10378 0.0
H1649 H 0.84231 0.27729 0.01462 0.0
H1650 H 0.89951 0.31646 0.04225 0.0
H1651 H 0.92177 0.34123 0.06634 0.0
H1652 H 0.90983 0.37505 0.02443 0.0
H1653 H 0.88728 0.35044 0.00039 0.0
C1654 C 0.86691 0.29868 0.89247 0.0
C1655 C 0.86519 0.31254 0.88373 0.0
C1656 C 0.86641 0.2953 0.91882 0.0
C1657 C 0.86424 0.30578 0.9366 0.0
C1658 C 0.86211 0.31932 0.92783 0.0
C1659 C 0.8625 0.32263 0.90165 0.0
C1660 C 0.86487 0.30338 0.96453 0.0
C1661 C 0.87779 0.317 0.97862 0.0
C1662 C 0.85234 0.28855 0.97748 0.0
C1663 C 0.8384 0.27381 0.96352 0.0
C1664 C 0.8268 0.27597 0.94802 0.0
C1665 C 0.81371 0.26197 0.9349 0.0
C1666 C 0.812 0.24573 0.93729 0.0
C1667 C 0.82336 0.24343 0.95289 0.0
C1668 C 0.83649 0.2574 0.96603 0.0
C1669 C 0.85768 0.31865 0.08116 0.0
C1670 C 0.86124 0.30918 0.09909 0.0
C1671 C 0.85808 0.3158 0.05495 0.0
C1672 C 0.86201 0.30343 0.04621 0.0
C1673 C 0.86465 0.29326 0.06396 0.0
C1674 C 0.86434 0.29618 0.09033 0.0
C1675 C 0.86466 0.30239 0.01848 0.0
C1676 C 0.85246 0.28818 0.00448 0.0
C1677 C 0.87791 0.31666 0.00547 0.0
C1678 C 0.89163 0.33157 0.01961 0.0
C1679 C 0.90154 0.32916 0.03829 0.0
C1680 C 0.91423 0.34317 0.05193 0.0
C1681 C 0.9172 0.3597 0.04694 0.0
C1682 C 0.90751 0.36224 0.02827 0.0
C1683 C 0.89479 0.34826 0.01461 0.0
H1684 H 0.92702 0.37053 0.05752 0.0
H1685 H 0.80185 0.2349 0.92713 0.0
H1686 H 0.57716 0.87334 0.10921 0.0
H1687 H 0.58321 0.87015 0.06416 0.0
H1688 H 0.52946 0.84835 0.04592 0.0
H1689 H 0.52332 0.85134 0.09061 0.0
H1690 H 0.54365 0.83158 0.02126 0.0
H1691 H 0.55749 0.89087 0.03762 0.0
H1692 H 0.57356 0.91891 0.05937 0.0
H1693 H 0.62115 0.92394 0.03312 0.0
H1694 H 0.60533 0.8958 0.01146 0.0
H1695 H 0.52501 0.85322 0.90291 0.0
H1696 H 0.53047 0.84903 0.94743 0.0
H1697 H 0.58449 0.8713 0.93083 0.0
H1698 H 0.5791 0.87558 0.8859 0.0
H1699 H 0.57836 0.88575 0.97283 0.0
H1700 H 0.56258 0.82976 0.94564 0.0
H1701 H 0.54572 0.8022 0.92298 0.0
H1702 H 0.50149 0.79082 0.96867 0.0
H1703 H 0.51799 0.81842 0.99135 0.0
C1704 C 0.56663 0.86771 0.0956 0.0
C1705 C 0.54979 0.86276 0.10333 0.0
C1706 C 0.57011 0.86589 0.06994 0.0
C1707 C 0.55679 0.8591 0.05175 0.0
C1708 C 0.53991 0.85354 0.0597 0.0
C1709 C 0.53644 0.85539 0.08521 0.0
C1710 C 0.56027 0.85894 0.02401 0.0
C1711 C 0.55132 0.84338 0.0106 0.0
C1712 C 0.5708 0.87427 0.0103 0.0
C1713 C 0.58026 0.89116 0.02325 0.0
C1714 C 0.57138 0.89791 0.03667 0.0
C1715 C 0.58044 0.91382 0.04894 0.0
C1716 C 0.59837 0.92317 0.04771 0.0
C1717 C 0.60727 0.91665 0.03412 0.0
C1718 C 0.59827 0.90073 0.02185 0.0
C1719 C 0.53804 0.85708 0.90862 0.0
C1720 C 0.55164 0.86481 0.89098 0.0
C1721 C 0.54112 0.85454 0.93402 0.0
C1722 C 0.55786 0.85965 0.94231 0.0
C1723 C 0.57148 0.86715 0.92469 0.0
C1724 C 0.56837 0.86959 0.89911 0.0
C1725 C 0.56099 0.85849 0.96994 0.0
C1726 C 0.57121 0.87382 0.98339 0.0
C1727 C 0.55157 0.84293 0.98366 0.0
C1728 C 0.54155 0.82622 0.97019 0.0
C1729 C 0.54923 0.82144 0.95077 0.0
C1730 C 0.53973 0.80579 0.93792 0.0
C1731 C 0.52254 0.79477 0.94438 0.0
C1732 C 0.51482 0.79936 0.96371 0.0
C1733 C 0.52425 0.81499 0.97661 0.0
H1734 H 0.51521 0.78266 0.9344 0.0
H1735 H 0.60536 0.93549 0.05722 0.0
H1736 H 0.68158 0.5372 0.08008 0.0
H1737 H 0.6923 0.54685 0.03682 0.0
H1738 H 0.71101 0.59939 0.05954 0.0
H1739 H 0.70024 0.58971 0.10339 0.0
H1740 H 0.69055 0.59011 0.01661 0.0
H1741 H 0.74026 0.58919 0.04106 0.0
H1742 H 0.75784 0.57877 0.06225 0.0
H1743 H 0.73482 0.53365 0.01485 0.0
H1744 H 0.71689 0.54363 0.99364 0.0
H1745 H 0.69658 0.58852 0.87894 0.0
H1746 H 0.7088 0.59823 0.92205 0.0
H1747 H 0.6882 0.54556 0.94562 0.0
H1748 H 0.67595 0.53582 0.90295 0.0
H1749 H 0.72141 0.56765 0.96492 0.0
H1750 H 0.66526 0.56473 0.95534 0.0
H1751 H 0.64633 0.57395 0.93521 0.0
H1752 H 0.68182 0.62627 0.95565 0.0
H1753 H 0.70105 0.61734 0.97564 0.0
C1754 C 0.68817 0.55084 0.07603 0.0
C1755 C 0.68998 0.5627 0.09501 0.0
C1756 C 0.69446 0.55636 0.05134 0.0
C1757 C 0.70267 0.57386 0.04508 0.0
C1758 C 0.70487 0.58585 0.06412 0.0
C1759 C 0.69871 0.58031 0.08907 0.0
C1760 C 0.70687 0.57893 0.01784 0.0
C1761 C 0.69787 0.58583 0.00534 0.0
C1762 C 0.71639 0.57332 0.00318 0.0
C1763 C 0.72722 0.56721 0.01571 0.0
C1764 C 0.73888 0.577 0.03522 0.0
C1765 C 0.74891 0.57117 0.04724 0.0
C1766 C 0.74746 0.55556 0.03989 0.0
C1767 C 0.73596 0.54576 0.02048 0.0
C1768 C 0.72589 0.55153 0.0084 0.0
C1769 C 0.69489 0.57906 0.89326 0.0
C1770 C 0.68514 0.56141 0.88778 0.0
C1771 C 0.7019 0.58463 0.91778 0.0
C1772 C 0.69937 0.5726 0.93693 0.0
C1773 C 0.69039 0.55504 0.93102 0.0
C1774 C 0.68325 0.54949 0.90672 0.0
C1775 C 0.70422 0.57776 0.96397 0.0
C1776 C 0.71489 0.57277 0.97631 0.0
C1777 C 0.69624 0.58511 0.97852 0.0
C1778 C 0.68467 0.59042 0.96663 0.0
C1779 C 0.66907 0.57821 0.95536 0.0
C1780 C 0.65828 0.58338 0.94401 0.0
C1781 C 0.6629 0.60069 0.94407 0.0
C1782 C 0.67828 0.61287 0.95555 0.0
C1783 C 0.68913 0.60777 0.96688 0.0
H1784 H 0.65453 0.60466 0.93528 0.0
H1785 H 0.75523 0.55107 0.04923 0.0
H1786 H 0.11627 0.66049 0.9 0.0
H1787 H 0.11284 0.6674 0.94406 0.0
H1788 H 0.11281 0.71288 0.918 0.0
H1789 H 0.11605 0.7059 0.8733 0.0
H1790 H 0.13508 0.71499 0.9654 0.0
H1791 H 0.07775 0.68785 0.93409 0.0
H1792 H 0.05283 0.66652 0.90918 0.0
H1793 H 0.05098 0.62589 0.95489 0.0
H1794 H 0.07606 0.64694 0.97981 0.0
H1795 H 0.11375 0.70474 0.10247 0.0
H1796 H 0.11182 0.71203 0.05741 0.0
H1797 H 0.10596 0.66353 0.03316 0.0
H1798 H 0.10805 0.6563 0.07759 0.0
H1799 H 0.08231 0.67166 0.0102 0.0
H1800 H 0.14404 0.69781 0.03025 0.0
H1801 H 0.17012 0.71809 0.05413 0.0
H1802 H 0.16381 0.76012 0.02924 0.0
H1803 H 0.13755 0.74001 0.00546 0.0
C1804 C 0.11565 0.67203 0.90354 0.0
C1805 C 0.11633 0.68261 0.88321 0.0
C1806 C 0.11366 0.67594 0.92871 0.0
C1807 C 0.11243 0.69054 0.93408 0.0
C1808 C 0.11368 0.70152 0.91405 0.0
C1809 C 0.11549 0.6975 0.88865 0.0
C1810 C 0.10941 0.69364 0.96087 0.0
C1811 C 0.12333 0.70597 0.97521 0.0
C1812 C 0.09409 0.68177 0.97347 0.0
C1813 C 0.07883 0.66901 0.95881 0.0
C1814 C 0.07209 0.67436 0.93875 0.0
C1815 C 0.05793 0.66232 0.92463 0.0
C1816 C 0.05033 0.64486 0.93045 0.0
C1817 C 0.05686 0.63942 0.95043 0.0
C1818 C 0.07104 0.65141 0.96459 0.0
C1819 C 0.11197 0.69565 0.08745 0.0
C1820 C 0.11111 0.67999 0.09344 0.0
C1821 C 0.11086 0.69982 0.06184 0.0
C1822 C 0.10867 0.68826 0.04212 0.0
C1823 C 0.10752 0.67255 0.0482 0.0
C1824 C 0.10884 0.66849 0.07357 0.0
C1825 C 0.10828 0.69241 0.01478 0.0
C1826 C 0.09372 0.68133 0.00037 0.0
C1827 C 0.123 0.70539 0.00217 0.0
C1828 C 0.13874 0.71741 0.01642 0.0
C1829 C 0.14814 0.71136 0.03008 0.0
C1830 C 0.16296 0.72282 0.04355 0.0
C1831 C 0.16858 0.74038 0.04329 0.0
C1832 C 0.15941 0.74651 0.02949 0.0
C1833 C 0.14457 0.73509 0.01602 0.0
H1834 H 0.18006 0.74923 0.05371 0.0
H1835 H 0.03937 0.63556 0.91949 0.0
H1836 H 0.84274 0.5348 0.5968 0.0
H1837 H 0.84473 0.54305 0.55177 0.0
H1838 H 0.87381 0.59648 0.57293 0.0
H1839 H 0.8719 0.58833 0.61841 0.0
H1840 H 0.8442 0.5795 0.52307 0.0
H1841 H 0.90045 0.59279 0.55813 0.0
H1842 H 0.91749 0.58612 0.58834 0.0
H1843 H 0.89664 0.53586 0.55527 0.0
H1844 H 0.87927 0.54217 0.52517 0.0
H1845 H 0.87469 0.58365 0.39094 0.0
H1846 H 0.87423 0.59215 0.43574 0.0
H1847 H 0.86145 0.54149 0.46115 0.0
H1848 H 0.86189 0.53295 0.41691 0.0
H1849 H 0.88846 0.5674 0.48814 0.0
H1850 H 0.83112 0.55212 0.45721 0.0
H1851 H 0.81111 0.55567 0.42886 0.0
H1852 H 0.83231 0.60783 0.45416 0.0
H1853 H 0.8526 0.60463 0.48243 0.0
C1854 C 0.84916 0.54832 0.59202 0.0
C1855 C 0.85748 0.56091 0.61098 0.0
C1856 C 0.85015 0.55301 0.56632 0.0
C1857 C 0.85947 0.57033 0.55923 0.0
C1858 C 0.86648 0.58305 0.57823 0.0
C1859 C 0.86546 0.57836 0.60409 0.0
C1860 C 0.86457 0.57438 0.53213 0.0
C1861 C 0.85427 0.5775 0.51532 0.0
C1862 C 0.87753 0.57148 0.52227 0.0
C1863 C 0.88853 0.56793 0.53952 0.0
C1864 C 0.89947 0.58031 0.55738 0.0
C1865 C 0.90917 0.57659 0.57448 0.0
C1866 C 0.90812 0.56057 0.57375 0.0
C1867 C 0.89744 0.54827 0.55582 0.0
C1868 C 0.88768 0.55191 0.53871 0.0
C1869 C 0.87175 0.57436 0.40614 0.0
C1870 C 0.86839 0.55766 0.40048 0.0
C1871 C 0.87147 0.57922 0.43162 0.0
C1872 C 0.86789 0.56745 0.45164 0.0
C1873 C 0.86438 0.55078 0.44593 0.0
C1874 C 0.86457 0.54591 0.42062 0.0
C1875 C 0.86784 0.57215 0.4788 0.0
C1876 C 0.87902 0.57041 0.4957 0.0
C1877 C 0.85571 0.57634 0.48859 0.0
C1878 C 0.84352 0.57822 0.47163 0.0
C1879 C 0.83161 0.56439 0.45653 0.0
C1880 C 0.8202 0.56633 0.44053 0.0
C1881 C 0.82048 0.58199 0.43963 0.0
C1882 C 0.83214 0.59572 0.45481 0.0
C1883 C 0.84359 0.59386 0.47083 0.0
H1884 H 0.81163 0.58346 0.42724 0.0
H1885 H 0.9156 0.55769 0.58706 0.0
H1886 H 0.29056 0.88426 0.61103 0.0
H1887 H 0.28033 0.88318 0.56689 0.0
H1888 H 0.30333 0.85317 0.5437 0.0
H1889 H 0.31373 0.85438 0.58742 0.0
H1890 H 0.30233 0.89646 0.52454 0.0
H1891 H 0.27857 0.82488 0.4987 0.0
H1892 H 0.26216 0.79648 0.51922 0.0
H1893 H 0.23764 0.81572 0.56919 0.0
H1894 H 0.2537 0.84418 0.54872 0.0
H1895 H 0.32732 0.87622 0.41012 0.0
H1896 H 0.31868 0.87733 0.45422 0.0
H1897 H 0.26829 0.86495 0.42784 0.0
H1898 H 0.27705 0.86425 0.38316 0.0
H1899 H 0.27162 0.84376 0.47144 0.0
H1900 H 0.28596 0.90037 0.44817 0.0
H1901 H 0.30319 0.92865 0.42757 0.0
H1902 H 0.34607 0.93924 0.47601 0.0
H1903 H 0.32919 0.91092 0.49663 0.0
C1904 C 0.29321 0.87725 0.59654 0.0
C1905 C 0.30304 0.86951 0.60252 0.0
C1906 C 0.28735 0.87663 0.57143 0.0
C1907 C 0.29092 0.86794 0.5522 0.0
C1908 C 0.30021 0.85971 0.5584 0.0
C1909 C 0.30627 0.86053 0.58331 0.0
C1910 C 0.28679 0.8689 0.52498 0.0
C1911 C 0.29528 0.88499 0.51294 0.0
C1912 C 0.2773 0.85391 0.51004 0.0
C1913 C 0.26739 0.83671 0.52216 0.0
C1914 C 0.26958 0.82303 0.51391 0.0
C1915 C 0.26036 0.80692 0.52558 0.0
C1916 C 0.24888 0.8043 0.54551 0.0
C1917 C 0.24657 0.81778 0.55378 0.0
C1918 C 0.25574 0.83391 0.54217 0.0
C1919 C 0.31442 0.87381 0.41364 0.0
C1920 C 0.30282 0.8701 0.39331 0.0
C1921 C 0.30955 0.87453 0.43878 0.0
C1922 C 0.29292 0.87132 0.4441 0.0
C1923 C 0.28121 0.86755 0.42394 0.0
C1924 C 0.28622 0.86717 0.39856 0.0
C1925 C 0.28798 0.8712 0.47113 0.0
C1926 C 0.27798 0.85527 0.48313 0.0
C1927 C 0.29606 0.88633 0.48606 0.0
C1928 C 0.30629 0.90348 0.47392 0.0
C1929 C 0.29909 0.90868 0.45432 0.0
C1930 C 0.3088 0.92473 0.44266 0.0
C1931 C 0.32571 0.93573 0.45047 0.0
C1932 C 0.33295 0.93071 0.47 0.0
C1933 C 0.32331 0.91467 0.48172 0.0
H1934 H 0.33321 0.94815 0.44141 0.0
H1935 H 0.24177 0.79182 0.55453 0.0
H1936 H 0.46099 0.3344 0.58978 0.0
H1937 H 0.45631 0.32999 0.54363 0.0
H1938 H 0.40583 0.28658 0.55701 0.0
H1939 H 0.41043 0.29089 0.60365 0.0
H1940 H 0.42488 0.28136 0.51745 0.0
H1941 H 0.40658 0.32085 0.53936 0.0
H1942 H 0.40806 0.34601 0.56073 0.0
H1943 H 0.45424 0.37939 0.51927 0.0
H1944 H 0.4532 0.35441 0.49795 0.0
H1945 H 0.41515 0.29129 0.37948 0.0
H1946 H 0.40885 0.28703 0.42576 0.0
H1947 H 0.45937 0.32947 0.44236 0.0
H1948 H 0.4658 0.33372 0.39656 0.0
H1949 H 0.43202 0.33121 0.46662 0.0
H1950 H 0.45225 0.29073 0.45102 0.0
H1951 H 0.45078 0.26539 0.43025 0.0
H1952 H 0.39979 0.23359 0.45975 0.0
H1953 H 0.40088 0.25882 0.48043 0.0
C1954 C 0.44891 0.32385 0.583 0.0
C1955 C 0.436 0.31309 0.60031 0.0
C1956 C 0.44625 0.32137 0.55663 0.0
C1957 C 0.43064 0.30813 0.54703 0.0
C1958 C 0.41792 0.29692 0.56416 0.0
C1959 C 0.42056 0.29943 0.59071 0.0
C1960 C 0.42776 0.3066 0.51899 0.0
C1961 C 0.42599 0.29206 0.50628 0.0
C1962 C 0.42921 0.32058 0.50456 0.0
C1963 C 0.42984 0.33572 0.51713 0.0
C1964 C 0.41711 0.33354 0.53491 0.0
C1965 C 0.41787 0.34778 0.54701 0.0
C1966 C 0.43125 0.36428 0.54138 0.0
C1967 C 0.44388 0.36659 0.5236 0.0
C1968 C 0.4432 0.3524 0.51147 0.0
C1969 C 0.42493 0.29961 0.39306 0.0
C1970 C 0.44094 0.31288 0.38445 0.0
C1971 C 0.42131 0.29715 0.4194 0.0
C1972 C 0.43364 0.308 0.43731 0.0
C1973 C 0.44968 0.32104 0.42874 0.0
C1974 C 0.45335 0.3234 0.40257 0.0
C1975 C 0.42996 0.30634 0.46512 0.0
C1976 C 0.43042 0.32031 0.47777 0.0
C1977 C 0.42718 0.2918 0.47938 0.0
C1978 C 0.42655 0.27668 0.46695 0.0
C1979 C 0.44066 0.27836 0.45285 0.0
C1980 C 0.43991 0.26402 0.44115 0.0
C1981 C 0.42517 0.2479 0.44359 0.0
C1982 C 0.41117 0.24609 0.45782 0.0
C1983 C 0.41185 0.2604 0.46954 0.0
H1984 H 0.42462 0.23681 0.43453 0.0
H1985 H 0.43181 0.37529 0.55077 0.0
H1986 H 0.12049 0.41093 0.60388 0.0
H1987 H 0.11737 0.40223 0.5584 0.0
H1988 H 0.11262 0.44608 0.53757 0.0
H1989 H 0.11589 0.45489 0.58239 0.0
H1990 H 0.08688 0.41414 0.51629 0.0
H1991 H 0.14945 0.44855 0.52959 0.0
H1992 H 0.17647 0.45389 0.54996 0.0
H1993 H 0.16787 0.4051 0.52299 0.0
H1994 H 0.14067 0.3994 0.50272 0.0
H1995 H 0.11339 0.45486 0.40041 0.0
H1996 H 0.11162 0.44596 0.44507 0.0
H1997 H 0.11373 0.40115 0.42121 0.0
H1998 H 0.11532 0.40992 0.37602 0.0
H1999 H 0.1365 0.42146 0.46459 0.0
H2000 H 0.07787 0.39177 0.44053 0.0
H2001 H 0.05161 0.38776 0.41925 0.0
H2002 H 0.0525 0.42746 0.46616 0.0
H2003 H 0.07893 0.43192 0.48744 0.0
C2004 C 0.11881 0.41868 0.58952 0.0
C2005 C 0.11843 0.43358 0.59662 0.0
C2006 C 0.11702 0.4137 0.56367 0.0
C2007 C 0.11465 0.42348 0.54482 0.0
C2008 C 0.11429 0.43831 0.55195 0.0
C2009 C 0.11627 0.44338 0.57754 0.0
C2010 C 0.1128 0.41882 0.51737 0.0
C2011 C 0.09761 0.4155 0.50494 0.0
C2012 C 0.12663 0.41999 0.50283 0.0
C2013 C 0.14294 0.42344 0.515 0.0
C2014 C 0.15325 0.43889 0.52823 0.0
C2015 C 0.16861 0.442 0.5397 0.0
C2016 C 0.17385 0.42981 0.53786 0.0
C2017 C 0.16377 0.41451 0.52446 0.0
C2018 C 0.14839 0.41133 0.51299 0.0
C2019 C 0.11352 0.44313 0.40458 0.0
C2020 C 0.11442 0.43304 0.38475 0.0
C2021 C 0.11245 0.43804 0.43009 0.0
C2022 C 0.11236 0.42283 0.43627 0.0
C2023 C 0.11369 0.41288 0.41666 0.0
C2024 C 0.11456 0.41788 0.39096 0.0
C2025 C 0.11091 0.41775 0.4635 0.0
C2026 C 0.12545 0.41926 0.47591 0.0
C2027 C 0.09646 0.4149 0.47809 0.0
C2028 C 0.08043 0.41219 0.46556 0.0
C2029 C 0.07253 0.39972 0.44621 0.0
C2030 C 0.0576 0.39736 0.43416 0.0
C2031 C 0.05039 0.40735 0.44135 0.0
C2032 C 0.05809 0.41971 0.46064 0.0
C2033 C 0.07303 0.42214 0.47274 0.0
H2034 H 0.03884 0.4055 0.43198 0.0
H2035 H 0.18575 0.43224 0.54674 0.0
H2036 H 0.69816 0.11165 0.3816 0.0
H2037 H 0.70847 0.11445 0.42603 0.0
H2038 H 0.682 0.14171 0.44614 0.0
H2039 H 0.67173 0.139 0.40208 0.0
H2040 H 0.7141 0.15568 0.46901 0.0
H2041 H 0.66286 0.09918 0.45497 0.0
H2042 H 0.64716 0.07092 0.43372 0.0
H2043 H 0.68596 0.05936 0.45769 0.0
H2044 H 0.70199 0.08767 0.47882 0.0
H2045 H 0.67371 0.13905 0.58663 0.0
H2046 H 0.6837 0.14208 0.5424 0.0
H2047 H 0.7097 0.11405 0.56059 0.0
H2048 H 0.69973 0.11101 0.60529 0.0
H2049 H 0.68843 0.10122 0.51841 0.0
H2050 H 0.73405 0.15481 0.54454 0.0
H2051 H 0.74845 0.18274 0.56677 0.0
H2052 H 0.72024 0.20001 0.52108 0.0
H2053 H 0.70545 0.1721 0.49883 0.0
C2054 C 0.69473 0.11841 0.39547 0.0
C2055 C 0.68398 0.12494 0.38851 0.0
C2056 C 0.70065 0.12002 0.42076 0.0
C2057 C 0.69593 0.12823 0.4393 0.0
C2058 C 0.68585 0.1354 0.43205 0.0
C2059 C 0.67987 0.13372 0.40693 0.0
C2060 C 0.69994 0.1281 0.46681 0.0
C2061 C 0.70865 0.14381 0.47989 0.0
C2062 C 0.69337 0.11258 0.48076 0.0
C2063 C 0.68372 0.09559 0.46813 0.0
C2064 C 0.6681 0.09066 0.45551 0.0
C2065 C 0.65913 0.07463 0.44353 0.0
C2066 C 0.66559 0.06338 0.44427 0.0
C2067 C 0.681 0.06811 0.45707 0.0
C2068 C 0.69003 0.08414 0.46905 0.0
C2069 C 0.68171 0.13369 0.58134 0.0
C2070 C 0.68586 0.12471 0.59933 0.0
C2071 C 0.68755 0.13557 0.55611 0.0
C2072 C 0.69762 0.12848 0.54835 0.0
C2073 C 0.70207 0.11974 0.56634 0.0
C2074 C 0.69635 0.118 0.59178 0.0
C2075 C 0.70178 0.12883 0.52079 0.0
C2076 C 0.69459 0.11314 0.50762 0.0
C2077 C 0.70971 0.14439 0.50681 0.0
C2078 C 0.71861 0.1613 0.52001 0.0
C2079 C 0.73083 0.16452 0.53932 0.0
C2080 C 0.73908 0.18036 0.55192 0.0
C2081 C 0.73527 0.19314 0.54534 0.0
C2082 C 0.72321 0.19011 0.52612 0.0
C2083 C 0.71491 0.17428 0.51347 0.0
H2084 H 0.74166 0.2054 0.55512 0.0
H2085 H 0.65863 0.05097 0.43499 0.0
H2086 H 0.53568 0.67979 0.40112 0.0
H2087 H 0.5435 0.69117 0.44452 0.0
H2088 H 0.59721 0.7134 0.42568 0.0
H2089 H 0.5894 0.702 0.38173 0.0
H2090 H 0.58795 0.6934 0.46922 0.0
H2091 H 0.58352 0.74045 0.4403 0.0
H2092 H 0.5717 0.756 0.41673 0.0
H2093 H 0.52568 0.731 0.46207 0.0
H2094 H 0.53707 0.71508 0.48567 0.0
H2095 H 0.58467 0.70327 0.60579 0.0
H2096 H 0.59392 0.71405 0.56191 0.0
H2097 H 0.54093 0.68958 0.53782 0.0
H2098 H 0.53166 0.67877 0.58128 0.0
H2099 H 0.56127 0.7222 0.51605 0.0
H2100 H 0.56261 0.66879 0.53147 0.0
H2101 H 0.57335 0.65191 0.55406 0.0
H2102 H 0.62507 0.68906 0.53305 0.0
H2103 H 0.61461 0.70626 0.51059 0.0
C2104 C 0.54917 0.68728 0.40606 0.0
C2105 C 0.56193 0.68991 0.38814 0.0
C2106 C 0.55364 0.69393 0.4308 0.0
C2107 C 0.57095 0.70333 0.43818 0.0
C2108 C 0.58379 0.70632 0.42021 0.0
C2109 C 0.57931 0.6998 0.39521 0.0
C2110 C 0.57508 0.70807 0.46553 0.0
C2111 C 0.5827 0.70027 0.47943 0.0
C2112 C 0.56817 0.71697 0.4788 0.0
C2113 C 0.56119 0.72656 0.46479 0.0
C2114 C 0.57084 0.73819 0.44518 0.0
C2115 C 0.56421 0.74708 0.43181 0.0
C2116 C 0.54795 0.74449 0.43791 0.0
C2117 C 0.53829 0.73301 0.4574 0.0
C2118 C 0.54485 0.72408 0.47083 0.0
C2119 C 0.57502 0.70041 0.59117 0.0
C2120 C 0.55745 0.69002 0.5968 0.0
C2121 C 0.58032 0.7066 0.5662 0.0
C2122 C 0.56809 0.70257 0.54671 0.0
C2123 C 0.55056 0.69291 0.55266 0.0
C2124 C 0.54528 0.68662 0.57744 0.0
C2125 C 0.57317 0.70667 0.51949 0.0
C2126 C 0.56727 0.71611 0.50573 0.0
C2127 C 0.58163 0.69926 0.5063 0.0
C2128 C 0.58787 0.68891 0.5197 0.0
C2129 C 0.57628 0.67341 0.53186 0.0
C2130 C 0.58231 0.66378 0.5446 0.0
C2131 C 0.59989 0.66944 0.54507 0.0
C2132 C 0.61147 0.68472 0.53273 0.0
C2133 C 0.6055 0.69441 0.52001 0.0
H2134 H 0.60454 0.66196 0.55493 0.0
H2135 H 0.54285 0.75138 0.42753 0.0
H2136 H 0.48865 0.11626 0.22539 0.0
H2137 H 0.51348 0.11895 0.2486 0.0
H2138 H 0.53368 0.11108 0.17781 0.0
H2139 H 0.50854 0.10772 0.15468 0.0
H2140 H 0.53649 0.09277 0.21343 0.0
H2141 H 0.55073 0.15154 0.20795 0.0
H2142 H 0.54616 0.17623 0.21273 0.0
H2143 H 0.54083 0.16831 0.29442 0.0
H2144 H 0.54514 0.14342 0.2901 0.0
H2145 H 0.62016 0.11941 0.26105 0.0
H2146 H 0.59721 0.12066 0.2376 0.0
H2147 H 0.57027 0.11493 0.30879 0.0
H2148 H 0.59303 0.11341 0.33243 0.0
H2149 H 0.57173 0.14091 0.2729 0.0
H2150 H 0.55669 0.08132 0.27695 0.0
H2151 H 0.56235 0.05738 0.27137 0.0
H2152 H 0.57048 0.06812 0.19051 0.0
H2153 H 0.56511 0.09231 0.1957 0.0
C2154 C 0.49843 0.11521 0.21474 0.0
C2155 C 0.49663 0.11178 0.1882 0.0
C2156 C 0.51268 0.11684 0.22801 0.0
C2157 C 0.5256 0.11546 0.21491 0.0
C2158 C 0.52389 0.11219 0.18835 0.0
C2159 C 0.50952 0.1103 0.17514 0.0
C2160 C 0.54057 0.11675 0.22901 0.0
C2161 C 0.54434 0.10346 0.22609 0.0
C2162 C 0.55064 0.13051 0.24598 0.0
C2163 C 0.54811 0.14551 0.24866 0.0
C2164 C 0.54846 0.15498 0.22691 0.0
C2165 C 0.54594 0.16903 0.22955 0.0
C2166 C 0.54316 0.1738 0.25386 0.0
C2167 C 0.54296 0.16458 0.2756 0.0
C2168 C 0.54546 0.15051 0.27307 0.0
C2169 C 0.60945 0.1186 0.27177 0.0
C2170 C 0.60834 0.1162 0.29857 0.0
C2171 C 0.59636 0.11929 0.25834 0.0
C2172 C 0.58207 0.1178 0.27152 0.0
C2173 C 0.58124 0.11612 0.29835 0.0
C2174 C 0.5942 0.11517 0.31177 0.0
C2175 C 0.56754 0.11702 0.25711 0.0
C2176 C 0.56387 0.13033 0.26007 0.0
C2177 C 0.55765 0.1034 0.23998 0.0
C2178 C 0.56069 0.08874 0.23677 0.0
C2179 C 0.55983 0.07867 0.25802 0.0
C2180 C 0.56296 0.06504 0.25493 0.0
C2181 C 0.56683 0.06126 0.23062 0.0
C2182 C 0.56751 0.07108 0.20934 0.0
C2183 C 0.56441 0.08474 0.21234 0.0
H2184 H 0.56925 0.05071 0.22826 0.0
H2185 H 0.54121 0.18468 0.25585 0.0
H2186 H 0.4812 0.59909 0.34154 0.0
H2187 H 0.45497 0.57639 0.32185 0.0
H2188 H 0.473 0.59947 0.24721 0.0
H2189 H 0.49894 0.62262 0.26697 0.0
H2190 H 0.44027 0.58803 0.25019 0.0
H2191 H 0.47645 0.56431 0.26909 0.0
H2192 H 0.4942 0.5568 0.2963 0.0
H2193 H 0.4506 0.52587 0.34434 0.0
H2194 H 0.43264 0.53338 0.31759 0.0
H2195 H 0.39415 0.51397 0.17126 0.0
H2196 H 0.41622 0.53868 0.19487 0.0
H2197 H 0.38903 0.51732 0.26586 0.0
H2198 H 0.36671 0.49258 0.24234 0.0
H2199 H 0.42464 0.52762 0.26677 0.0
H2200 H 0.38809 0.55014 0.24337 0.0
H2201 H 0.37126 0.55726 0.21353 0.0
H2202 H 0.41693 0.59006 0.17059 0.0
H2203 H 0.43401 0.58293 0.19997 0.0
C2204 C 0.47953 0.59938 0.32094 0.0
C2205 C 0.49219 0.61255 0.30575 0.0
C2206 C 0.46456 0.58636 0.3097 0.0
C2207 C 0.46217 0.586 0.28296 0.0
C2208 C 0.47457 0.59944 0.26787 0.0
C2209 C 0.48941 0.61264 0.27917 0.0
C2210 C 0.44702 0.57139 0.27061 0.0
C2211 C 0.43696 0.57484 0.25365 0.0
C2212 C 0.44249 0.55413 0.27543 0.0
C2213 C 0.45325 0.54956 0.29151 0.0
C2214 C 0.47068 0.55601 0.28557 0.0
C2215 C 0.48077 0.55174 0.30089 0.0
C2216 C 0.47354 0.54091 0.32208 0.0
C2217 C 0.45619 0.53429 0.32795 0.0
C2218 C 0.44604 0.53854 0.31271 0.0
C2219 C 0.39279 0.51456 0.19188 0.0
C2220 C 0.37871 0.50131 0.20496 0.0
C2221 C 0.40537 0.52872 0.2053 0.0
C2222 C 0.40416 0.52982 0.23204 0.0
C2223 C 0.39011 0.51668 0.24518 0.0
C2224 C 0.37738 0.5026 0.23172 0.0
C2225 C 0.41806 0.54432 0.24632 0.0
C2226 C 0.42789 0.54083 0.26356 0.0
C2227 C 0.42254 0.56152 0.2414 0.0
C2228 C 0.41231 0.56588 0.22376 0.0
C2229 C 0.39453 0.55876 0.22744 0.0
C2230 C 0.38494 0.56282 0.21063 0.0
C2231 C 0.39301 0.57407 0.19015 0.0
C2232 C 0.4107 0.58133 0.18646 0.0
C2233 C 0.42034 0.5773 0.2032 0.0
H2234 H 0.38557 0.5772 0.17715 0.0
H2235 H 0.48138 0.53761 0.33391 0.0
H2236 H 0.86967 0.49692 0.27271 0.0
H2237 H 0.86667 0.47168 0.25044 0.0
H2238 H 0.86977 0.45011 0.32306 0.0
H2239 H 0.87353 0.47568 0.34528 0.0
H2240 H 0.88927 0.44673 0.29094 0.0
H2241 H 0.83115 0.43431 0.28714 0.0
H2242 H 0.80732 0.43972 0.27841 0.0
H2243 H 0.8203 0.44649 0.19815 0.0
H2244 H 0.84436 0.44135 0.20645 0.0
H2245 H 0.86699 0.36571 0.235 0.0
H2246 H 0.86435 0.38721 0.26043 0.0
H2247 H 0.8725 0.41753 0.19213 0.0
H2248 H 0.87527 0.39625 0.1666 0.0
H2249 H 0.84542 0.41446 0.22406 0.0
H2250 H 0.90493 0.42868 0.23001 0.0
H2251 H 0.92811 0.42244 0.23968 0.0
H2252 H 0.91093 0.41091 0.31798 0.0
H2253 H 0.88748 0.41685 0.30867 0.0
C2254 C 0.86955 0.48672 0.28394 0.0
C2255 C 0.87187 0.4883 0.31073 0.0
C2256 C 0.86772 0.47223 0.27121 0.0
C2257 C 0.86776 0.45884 0.28508 0.0
C2258 C 0.86972 0.46026 0.31191 0.0
C2259 C 0.87185 0.47488 0.3246 0.0
C2260 C 0.86677 0.44385 0.2715 0.0
C2261 C 0.87945 0.43949 0.27671 0.0
C2262 C 0.85416 0.43452 0.25256 0.0
C2263 C 0.83966 0.43758 0.24747 0.0
C2264 C 0.82901 0.43707 0.26766 0.0
C2265 C 0.81544 0.44007 0.26278 0.0
C2266 C 0.81232 0.44348 0.23775 0.0
C2267 C 0.82274 0.44386 0.21754 0.0
C2268 C 0.83633 0.44088 0.22231 0.0
C2269 C 0.86811 0.3769 0.22537 0.0
C2270 C 0.87146 0.37934 0.19882 0.0
C2271 C 0.86662 0.38915 0.23992 0.0
C2272 C 0.86831 0.40395 0.22812 0.0
C2273 C 0.87113 0.40617 0.20154 0.0
C2274 C 0.87281 0.39404 0.18704 0.0
C2275 C 0.8679 0.41754 0.24356 0.0
C2276 C 0.85504 0.42163 0.2386 0.0
C2277 C 0.8802 0.42649 0.26294 0.0
C2278 C 0.89435 0.42302 0.26857 0.0
C2279 C 0.90601 0.42467 0.24923 0.0
C2280 C 0.91921 0.42122 0.25466 0.0
C2281 C 0.92096 0.41623 0.27941 0.0
C2282 C 0.90954 0.41474 0.29881 0.0
C2283 C 0.8963 0.41816 0.29347 0.0
H2284 H 0.93119 0.41357 0.28357 0.0
H2285 H 0.80181 0.4458 0.23402 0.0
H2286 H 0.49451 0.86905 0.23437 0.0
H2287 H 0.47001 0.86697 0.25786 0.0
H2288 H 0.44897 0.87343 0.18688 0.0
H2289 H 0.47378 0.87623 0.16347 0.0
H2290 H 0.44686 0.89268 0.2212 0.0
H2291 H 0.43206 0.83368 0.21952 0.0
H2292 H 0.4364 0.80895 0.22588 0.0
H2293 H 0.44293 0.81915 0.307 0.0
H2294 H 0.43885 0.84408 0.30108 0.0
H2295 H 0.36326 0.86657 0.26855 0.0
H2296 H 0.38614 0.86459 0.24619 0.0
H2297 H 0.41416 0.8744 0.31735 0.0
H2298 H 0.39147 0.87674 0.33988 0.0
H2299 H 0.41211 0.84635 0.28357 0.0
H2300 H 0.42735 0.90616 0.28336 0.0
H2301 H 0.42163 0.92989 0.27571 0.0
H2302 H 0.41261 0.9165 0.1957 0.0
H2303 H 0.41803 0.8925 0.20297 0.0
C2304 C 0.48459 0.86989 0.22375 0.0
C2305 C 0.48607 0.87282 0.19708 0.0
C2306 C 0.47054 0.86862 0.23719 0.0
C2307 C 0.4575 0.86983 0.22412 0.0
C2308 C 0.45886 0.87249 0.19741 0.0
C2309 C 0.47303 0.87405 0.18404 0.0
C2310 C 0.44283 0.86911 0.23835 0.0
C2311 C 0.43914 0.88238 0.23452 0.0
C2312 C 0.4329 0.85587 0.25617 0.0
C2313 C 0.43531 0.84085 0.25981 0.0
C2314 C 0.43455 0.83073 0.23869 0.0
C2315 C 0.43694 0.81666 0.24222 0.0
C2316 C 0.43999 0.81251 0.26682 0.0
C2317 C 0.44059 0.82239 0.28795 0.0
C2318 C 0.43822 0.83648 0.28452 0.0
C2319 C 0.37418 0.8681 0.27953 0.0
C2320 C 0.37562 0.87191 0.30595 0.0
C2321 C 0.38723 0.86699 0.26671 0.0
C2322 C 0.40179 0.86942 0.28017 0.0
C2323 C 0.40296 0.87247 0.30672 0.0
C2324 C 0.39005 0.87388 0.31949 0.0
C2325 C 0.41626 0.8698 0.26616 0.0
C2326 C 0.41988 0.85654 0.27012 0.0
C2327 C 0.426 0.8829 0.24822 0.0
C2328 C 0.4229 0.89742 0.24377 0.0
C2329 C 0.42399 0.90818 0.26418 0.0
C2330 C 0.42083 0.9217 0.25991 0.0
C2331 C 0.4167 0.92467 0.23525 0.0
C2332 C 0.41578 0.91416 0.2148 0.0
C2333 C 0.41891 0.90061 0.21898 0.0
H2334 H 0.41426 0.93514 0.23197 0.0
H2335 H 0.44184 0.80162 0.26951 0.0
H2336 H 0.62331 0.49653 0.21564 0.0
H2337 H 0.60116 0.47017 0.23557 0.0
H2338 H 0.5813 0.44896 0.16051 0.0
H2339 H 0.6029 0.47578 0.14057 0.0
H2340 H 0.55615 0.44249 0.18869 0.0
H2341 H 0.604 0.43464 0.20102 0.0
H2342 H 0.63339 0.44205 0.21346 0.0
H2343 H 0.62263 0.44799 0.29204 0.0
H2344 H 0.59325 0.44085 0.28004 0.0
H2345 H 0.49734 0.36262 0.24827 0.0
H2346 H 0.5223 0.3831 0.22311 0.0
H2347 H 0.54147 0.41695 0.28862 0.0
H2348 H 0.51664 0.39668 0.31384 0.0
H2349 H 0.56711 0.41351 0.26136 0.0
H2350 H 0.51947 0.42385 0.24486 0.0
H2351 H 0.48993 0.41459 0.23066 0.0
H2352 H 0.50091 0.40148 0.15639 0.0
H2353 H 0.53045 0.4104 0.17034 0.0
C2354 C 0.61432 0.48617 0.20339 0.0
C2355 C 0.61481 0.4882 0.17657 0.0
C2356 C 0.60172 0.47103 0.21479 0.0
C2357 C 0.58968 0.45737 0.19957 0.0
C2358 C 0.59042 0.45927 0.1727 0.0
C2359 C 0.60278 0.47459 0.16131 0.0
C2360 C 0.57567 0.44165 0.21182 0.0
C2361 C 0.55866 0.43596 0.20418 0.0
C2362 C 0.57879 0.43309 0.23219 0.0
C2363 C 0.59644 0.43732 0.23958 0.0
C2364 C 0.60793 0.43763 0.22093 0.0
C2365 C 0.62459 0.44177 0.22791 0.0
C2366 C 0.62988 0.44552 0.25352 0.0
C2367 C 0.61852 0.44509 0.27221 0.0
C2368 C 0.60185 0.44098 0.26534 0.0
C2369 C 0.50695 0.37435 0.25739 0.0
C2370 C 0.50494 0.3781 0.28298 0.0
C2371 C 0.52118 0.38602 0.24299 0.0
C2372 C 0.53364 0.40154 0.25403 0.0
C2373 C 0.53199 0.40501 0.27981 0.0
C2374 C 0.51773 0.39346 0.29412 0.0
C2375 C 0.54786 0.41475 0.23842 0.0
C2376 C 0.56481 0.41994 0.24551 0.0
C2377 C 0.54474 0.42262 0.2172 0.0
C2378 C 0.52709 0.41761 0.20873 0.0
C2379 C 0.51554 0.41889 0.22556 0.0
C2380 C 0.4988 0.41371 0.21755 0.0
C2381 C 0.49353 0.4074 0.19265 0.0
C2382 C 0.50501 0.40634 0.17568 0.0
C2383 C 0.52174 0.41145 0.18363 0.0
H2384 H 0.48056 0.40335 0.18646 0.0
H2385 H 0.64279 0.44873 0.25888 0.0
H2386 H 0.13328 0.62891 0.20649 0.0
H2387 H 0.13872 0.60792 0.22808 0.0
H2388 H 0.09712 0.56708 0.18557 0.0
H2389 H 0.09202 0.58794 0.16336 0.0
H2390 H 0.12034 0.5836 0.25926 0.0
H2391 H 0.10281 0.53392 0.17591 0.0
H2392 H 0.10609 0.53405 0.12881 0.0
H2393 H 0.14896 0.58543 0.13218 0.0
H2394 H 0.1461 0.58554 0.17932 0.0
H2395 H 0.09041 0.50132 0.30805 0.0
H2396 H 0.0954 0.5271 0.2854 0.0
H2397 H 0.13916 0.52962 0.24697 0.0
H2398 H 0.13376 0.50329 0.26889 0.0
H2399 H 0.12203 0.53592 0.21405 0.0
H2400 H 0.14364 0.55821 0.29666 0.0
H2401 H 0.1441 0.56003 0.344 0.0
H2402 H 0.10032 0.56715 0.34246 0.0
H2403 H 0.09943 0.56513 0.29513 0.0
C2404 C 0.12541 0.61546 0.20157 0.0
C2405 C 0.11225 0.61009 0.18315 0.0
C2406 C 0.12852 0.60349 0.21394 0.0
C2407 C 0.11849 0.58593 0.20822 0.0
C2408 C 0.10534 0.58057 0.18986 0.0
C2409 C 0.10236 0.59253 0.17727 0.0
C2410 C 0.12102 0.57303 0.22239 0.0
C2411 C 0.12086 0.57326 0.24937 0.0
C2412 C 0.12224 0.55981 0.20954 0.0
C2413 C 0.12415 0.55977 0.18117 0.0
C2414 C 0.113 0.54522 0.16663 0.0
C2415 C 0.11477 0.54526 0.13991 0.0
C2416 C 0.1277 0.55975 0.12751 0.0
C2417 C 0.13892 0.57423 0.1418 0.0
C2418 C 0.13721 0.57425 0.16852 0.0
C2419 C 0.10116 0.5074 0.29489 0.0
C2420 C 0.11172 0.50029 0.29031 0.0
C2421 C 0.10408 0.52223 0.28206 0.0
C2422 C 0.11788 0.53054 0.26484 0.0
C2423 C 0.12847 0.52348 0.26023 0.0
C2424 C 0.12538 0.50845 0.27278 0.0
C2425 C 0.12066 0.54614 0.2509 0.0
C2426 C 0.1218 0.54641 0.22396 0.0
C2427 C 0.12093 0.56013 0.26382 0.0
C2428 C 0.12142 0.56142 0.29232 0.0
C2429 C 0.13404 0.56005 0.30642 0.0
C2430 C 0.13438 0.56114 0.33326 0.0
C2431 C 0.12223 0.56368 0.34623 0.0
C2432 C 0.10973 0.56518 0.33239 0.0
C2433 C 0.10931 0.56409 0.30555 0.0
H2434 H 0.12252 0.56451 0.36701 0.0
H2435 H 0.12904 0.55976 0.10682 0.0
H2436 H 0.49001 0.89935 0.81481 0.0
H2437 H 0.4649 0.89584 0.79156 0.0
H2438 H 0.46125 0.8522 0.75126 0.0
H2439 H 0.48686 0.8561 0.77377 0.0
H2440 H 0.45596 0.87051 0.71906 0.0
H2441 H 0.43304 0.84777 0.80132 0.0
H2442 H 0.4311 0.8469 0.84865 0.0
H2443 H 0.42464 0.89106 0.84819 0.0
H2444 H 0.42678 0.89234 0.80086 0.0
H2445 H 0.36163 0.85563 0.71286 0.0
H2446 H 0.38371 0.85176 0.73412 0.0
H2447 H 0.42291 0.89402 0.69046 0.0
H2448 H 0.4009 0.89753 0.6685 0.0
H2449 H 0.40786 0.87118 0.76472 0.0
H2450 H 0.45749 0.89016 0.68121 0.0
H2451 H 0.45747 0.88712 0.63406 0.0
H2452 H 0.40677 0.84309 0.63723 0.0
H2453 H 0.40657 0.84571 0.68441 0.0
C2454 C 0.48383 0.88897 0.80107 0.0
C2455 C 0.49037 0.87796 0.79619 0.0
C2456 C 0.4694 0.88691 0.78788 0.0
C2457 C 0.46096 0.87355 0.76998 0.0
C2458 C 0.46751 0.86257 0.76501 0.0
C2459 C 0.48213 0.8648 0.77791 0.0
C2460 C 0.44559 0.87139 0.75603 0.0
C2461 C 0.4454 0.87056 0.72905 0.0
C2462 C 0.43155 0.87096 0.76905 0.0
C2463 C 0.43019 0.87022 0.79753 0.0
C2464 C 0.43132 0.85737 0.81132 0.0
C2465 C 0.43017 0.85679 0.83815 0.0
C2466 C 0.42778 0.86894 0.85142 0.0
C2467 C 0.4265 0.88167 0.83788 0.0
C2468 C 0.42766 0.88231 0.81105 0.0
C2469 C 0.37495 0.86398 0.70761 0.0
C2470 C 0.37952 0.87686 0.68894 0.0
C2471 C 0.38756 0.86178 0.71982 0.0
C2472 C 0.40498 0.87247 0.71372 0.0
C2473 C 0.40955 0.88533 0.69508 0.0
C2474 C 0.39694 0.88739 0.68262 0.0
C2475 C 0.41846 0.87078 0.72772 0.0
C2476 C 0.41832 0.87093 0.75472 0.0
C2477 C 0.43189 0.86999 0.71474 0.0
C2478 C 0.43197 0.86823 0.68635 0.0
C2479 C 0.44637 0.87978 0.67186 0.0
C2480 C 0.44639 0.87814 0.64512 0.0
C2481 C 0.43211 0.86495 0.63265 0.0
C2482 C 0.4178 0.85334 0.6469 0.0
C2483 C 0.41771 0.85491 0.67364 0.0
H2484 H 0.43215 0.86372 0.61195 0.0
H2485 H 0.4269 0.86847 0.8722 0.0
H2486 H 0.58912 0.48267 0.84408 0.0
H2487 H 0.56529 0.45684 0.82543 0.0
H2488 H 0.59285 0.46719 0.75369 0.0
H2489 H 0.61695 0.49288 0.77239 0.0
H2490 H 0.54529 0.45452 0.78765 0.0
H2491 H 0.58048 0.42992 0.72151 0.0
H2492 H 0.60738 0.42887 0.72097 0.0
H2493 H 0.60945 0.43126 0.80346 0.0
H2494 H 0.58246 0.43208 0.80452 0.0
H2495 H 0.49264 0.40301 0.68652 0.0
H2496 H 0.51657 0.42428 0.71219 0.0
H2497 H 0.5173 0.38383 0.75563 0.0
H2498 H 0.49325 0.36234 0.73 0.0
H2499 H 0.54976 0.40896 0.74054 0.0
H2500 H 0.50142 0.40546 0.78405 0.0
H2501 H 0.47409 0.40534 0.78905 0.0
H2502 H 0.49736 0.45644 0.75843 0.0
H2503 H 0.52482 0.45684 0.75309 0.0
C2504 C 0.59021 0.47938 0.82441 0.0
C2505 C 0.60493 0.48988 0.8097 0.0
C2506 C 0.57656 0.46461 0.81377 0.0
C2507 C 0.5773 0.46002 0.78821 0.0
C2508 C 0.59209 0.47031 0.77359 0.0
C2509 C 0.60583 0.48505 0.78428 0.0
C2510 C 0.56217 0.4451 0.77643 0.0
C2511 C 0.54629 0.44454 0.77743 0.0
C2512 C 0.56337 0.4319 0.76347 0.0
C2513 C 0.57952 0.43122 0.76306 0.0
C2514 C 0.58664 0.43014 0.73954 0.0
C2515 C 0.60191 0.4296 0.73914 0.0
C2516 C 0.61014 0.43005 0.76216 0.0
C2517 C 0.60309 0.43098 0.78563 0.0
C2518 C 0.58782 0.43151 0.78614 0.0
C2519 C 0.49786 0.39859 0.70152 0.0
C2520 C 0.49102 0.38096 0.70622 0.0
C2521 C 0.51149 0.41078 0.71624 0.0
C2522 C 0.5186 0.40562 0.7359 0.0
C2523 C 0.51195 0.38805 0.74054 0.0
C2524 C 0.49819 0.37582 0.72594 0.0
C2525 C 0.53309 0.41866 0.75137 0.0
C2526 C 0.54881 0.4189 0.75094 0.0
C2527 C 0.53171 0.43141 0.7653 0.0
C2528 C 0.51514 0.43112 0.76798 0.0
C2529 C 0.50067 0.41662 0.77817 0.0
C2530 C 0.48518 0.41652 0.78115 0.0
C2531 C 0.48399 0.43087 0.77404 0.0
C2532 C 0.4983 0.44534 0.76393 0.0
C2533 C 0.51385 0.44552 0.76098 0.0
H2534 H 0.47198 0.43077 0.77638 0.0
H2535 H 0.62197 0.42964 0.7618 0.0
H2536 H 0.13171 0.62619 0.77073 0.0
H2537 H 0.13455 0.60345 0.7496 0.0
H2538 H 0.09148 0.56534 0.79326 0.0
H2539 H 0.08895 0.58795 0.81505 0.0
H2540 H 0.11451 0.55625 0.79044 0.0
H2541 H 0.08752 0.57564 0.72977 0.0
H2542 H 0.08488 0.59689 0.70314 0.0
H2543 H 0.13153 0.609 0.66358 0.0
H2544 H 0.13456 0.58796 0.69022 0.0
H2545 H 0.08848 0.49645 0.67111 0.0
H2546 H 0.09058 0.52117 0.69366 0.0
H2547 H 0.13525 0.52767 0.73451 0.0
H2548 H 0.13285 0.5025 0.71261 0.0
H2549 H 0.11306 0.55338 0.69513 0.0
H2550 H 0.13668 0.54395 0.79396 0.0
H2551 H 0.13506 0.52055 0.82077 0.0
H2552 H 0.08766 0.48463 0.78421 0.0
H2553 H 0.08889 0.50785 0.75743 0.0
C2554 C 0.12291 0.61297 0.77593 0.0
C2555 C 0.11004 0.60887 0.79445 0.0
C2556 C 0.12452 0.59998 0.76378 0.0
C2557 C 0.11307 0.58266 0.76957 0.0
C2558 C 0.10048 0.57859 0.7885 0.0
C2559 C 0.09902 0.59155 0.80088 0.0
C2560 C 0.11374 0.56868 0.75544 0.0
C2561 C 0.11429 0.55568 0.76959 0.0
C2562 C 0.11318 0.56776 0.72825 0.0
C2563 C 0.11136 0.58038 0.71217 0.0
C2564 C 0.09728 0.58293 0.71551 0.0
C2565 C 0.0957 0.59492 0.7004 0.0
C2566 C 0.10805 0.60433 0.68173 0.0
C2567 C 0.12199 0.60173 0.67808 0.0
C2568 C 0.12364 0.58977 0.69317 0.0
C2569 C 0.09877 0.50314 0.68487 0.0
C2570 C 0.11044 0.49745 0.69019 0.0
C2571 C 0.09999 0.51732 0.69769 0.0
C2572 C 0.11297 0.5262 0.71597 0.0
C2573 C 0.12493 0.52083 0.72084 0.0
C2574 C 0.12358 0.50648 0.70825 0.0
C2575 C 0.11367 0.54086 0.73012 0.0
C2576 C 0.11347 0.55404 0.71597 0.0
C2577 C 0.11396 0.54163 0.75733 0.0
C2578 C 0.113 0.5276 0.7735 0.0
C2579 C 0.12589 0.53106 0.7917 0.0
C2580 C 0.12504 0.51783 0.80688 0.0
C2581 C 0.1113 0.5011 0.80412 0.0
C2582 C 0.09834 0.49758 0.78625 0.0
C2583 C 0.09911 0.51076 0.77105 0.0
H2584 H 0.11067 0.49088 0.81588 0.0
H2585 H 0.10681 0.6136 0.67005 0.0
H2586 H 0.6239 0.12126 0.72784 0.0
H2587 H 0.60144 0.12372 0.75073 0.0
H2588 H 0.57213 0.11249 0.68061 0.0
H2589 H 0.5944 0.10979 0.65759 0.0
H2590 H 0.57426 0.14063 0.7108 0.0
H2591 H 0.56051 0.08151 0.71953 0.0
H2592 H 0.5669 0.05869 0.73095 0.0
H2593 H 0.57707 0.07681 0.80893 0.0
H2594 H 0.57097 0.09991 0.79786 0.0
H2595 H 0.49205 0.11854 0.7589 0.0
H2596 H 0.51677 0.12018 0.73675 0.0
H2597 H 0.53859 0.11821 0.80978 0.0
H2598 H 0.51353 0.11579 0.83192 0.0
H2599 H 0.54148 0.09788 0.77873 0.0
H2600 H 0.55447 0.1561 0.77216 0.0
H2601 H 0.54925 0.17987 0.76197 0.0
H2602 H 0.54219 0.1653 0.68233 0.0
H2603 H 0.54715 0.14129 0.69209 0.0
C2604 C 0.61275 0.11944 0.71723 0.0
C2605 C 0.61087 0.11523 0.69094 0.0
C2606 C 0.59994 0.12083 0.73035 0.0
C2607 C 0.58515 0.1182 0.71733 0.0
C2608 C 0.58349 0.11456 0.69093 0.0
C2609 C 0.59617 0.11294 0.67787 0.0
C2610 C 0.57105 0.11851 0.73148 0.0
C2611 C 0.56695 0.13122 0.72551 0.0
C2612 C 0.56192 0.10649 0.7511 0.0
C2613 C 0.56547 0.09254 0.7578 0.0
C2614 C 0.56425 0.08072 0.73906 0.0
C2615 C 0.5678 0.06772 0.74548 0.0
C2616 C 0.57244 0.06633 0.77063 0.0
C2617 C 0.5735 0.07791 0.78944 0.0
C2618 C 0.56999 0.09096 0.78311 0.0
C2619 C 0.50218 0.11858 0.77024 0.0
C2620 C 0.50085 0.11703 0.79715 0.0
C2621 C 0.51637 0.11962 0.75756 0.0
C2622 C 0.52971 0.11957 0.77159 0.0
C2623 C 0.52848 0.11826 0.79851 0.0
C2624 C 0.51415 0.11691 0.81116 0.0
C2625 C 0.54454 0.12008 0.75818 0.0
C2626 C 0.54881 0.10744 0.76421 0.0
C2627 C 0.55397 0.13234 0.73887 0.0
C2628 C 0.55103 0.1468 0.7329 0.0
C2629 C 0.55168 0.15788 0.7525 0.0
C2630 C 0.54879 0.17141 0.7468 0.0
C2631 C 0.54535 0.17407 0.72153 0.0
C2632 C 0.54484 0.16322 0.70189 0.0
C2633 C 0.54771 0.14966 0.7075 0.0
H2634 H 0.54311 0.18455 0.71715 0.0
H2635 H 0.57517 0.05625 0.77556 0.0
H2636 H 0.36335 0.5008 0.76687 0.0
H2637 H 0.38435 0.52443 0.74023 0.0
H2638 H 0.42447 0.53291 0.7938 0.0
H2639 H 0.40368 0.5093 0.82045 0.0
H2640 H 0.40641 0.55885 0.74946 0.0
H2641 H 0.45996 0.54136 0.75938 0.0
H2642 H 0.4627 0.51574 0.76662 0.0
H2643 H 0.41282 0.4838 0.73355 0.0
H2644 H 0.40988 0.50925 0.72578 0.0
H2645 H 0.48886 0.62719 0.71306 0.0
H2646 H 0.46382 0.60397 0.73445 0.0
H2647 H 0.45716 0.56997 0.67147 0.0
H2648 H 0.48229 0.59303 0.65005 0.0
H2649 H 0.45641 0.55547 0.71638 0.0
H2650 H 0.42929 0.58458 0.67995 0.0
H2651 H 0.42547 0.60928 0.67021 0.0
H2652 H 0.42051 0.61637 0.75077 0.0
H2653 H 0.42454 0.59185 0.76103 0.0
C2654 C 0.37663 0.50775 0.77307 0.0
C2655 C 0.38186 0.50307 0.79569 0.0
C2656 C 0.38858 0.52128 0.75787 0.0
C2657 C 0.40596 0.53026 0.76492 0.0
C2658 C 0.41113 0.52597 0.78787 0.0
C2659 C 0.39921 0.51249 0.8031 0.0
C2660 C 0.41885 0.54372 0.7479 0.0
C2661 C 0.41735 0.55815 0.74218 0.0
C2662 C 0.4329 0.54257 0.73801 0.0
C2663 C 0.43465 0.5272 0.74223 0.0
C2664 C 0.44961 0.52888 0.75356 0.0
C2665 C 0.45119 0.51439 0.75776 0.0
C2666 C 0.43792 0.49815 0.75062 0.0
C2667 C 0.42306 0.49638 0.73916 0.0
C2668 C 0.42142 0.51083 0.73488 0.0
C2669 C 0.48198 0.61483 0.70361 0.0
C2670 C 0.48764 0.61195 0.67989 0.0
C2671 C 0.46761 0.60159 0.71582 0.0
C2672 C 0.45859 0.58527 0.70448 0.0
C2673 C 0.46397 0.58247 0.68056 0.0
C2674 C 0.47832 0.59569 0.66833 0.0
C2675 C 0.44421 0.57084 0.71832 0.0
C2676 C 0.44546 0.55621 0.72353 0.0
C2677 C 0.42982 0.57171 0.72735 0.0
C2678 C 0.42736 0.58646 0.72126 0.0
C2679 C 0.42752 0.59149 0.69561 0.0
C2680 C 0.42529 0.60544 0.68999 0.0
C2681 C 0.42278 0.61441 0.70986 0.0
C2682 C 0.42246 0.60942 0.73539 0.0
C2683 C 0.4247 0.59548 0.74112 0.0
H2684 H 0.42106 0.62521 0.70547 0.0
H2685 H 0.43917 0.48694 0.75392 0.0
H2686 H 0.88324 0.40048 0.81948 0.0
H2687 H 0.87969 0.42221 0.79661 0.0
H2688 H 0.8685 0.39283 0.7266 0.0
H2689 H 0.8718 0.37079 0.74945 0.0
H2690 H 0.89396 0.42905 0.72251 0.0
H2691 H 0.83663 0.39217 0.75383 0.0
H2692 H 0.81486 0.37566 0.78686 0.0
H2693 H 0.82992 0.42191 0.8295 0.0
H2694 H 0.85197 0.43867 0.79691 0.0
H2695 H 0.87197 0.48268 0.65274 0.0
H2696 H 0.87113 0.45749 0.67189 0.0
H2697 H 0.87036 0.47664 0.74771 0.0
H2698 H 0.87051 0.50153 0.72862 0.0
H2699 H 0.84955 0.44382 0.74686 0.0
H2700 H 0.90776 0.48057 0.71977 0.0
H2701 H 0.93109 0.49817 0.68939 0.0
H2702 H 0.91655 0.45388 0.64204 0.0
H2703 H 0.89297 0.43606 0.67199 0.0
C2704 C 0.88 0.39859 0.79922 0.0
C2705 C 0.8778 0.38391 0.78625 0.0
C2706 C 0.87791 0.41099 0.78624 0.0
C2707 C 0.87374 0.40903 0.76002 0.0
C2708 C 0.87167 0.3945 0.74689 0.0
C2709 C 0.87351 0.38193 0.75997 0.0
C2710 C 0.87195 0.42244 0.74634 0.0
C2711 C 0.88407 0.43211 0.72743 0.0
C2712 C 0.85937 0.4267 0.75346 0.0
C2713 C 0.84605 0.41665 0.77302 0.0
C2714 C 0.8354 0.3988 0.77036 0.0
C2715 C 0.82299 0.3894 0.78898 0.0
C2716 C 0.82104 0.39772 0.81029 0.0
C2717 C 0.83146 0.41548 0.81299 0.0
C2718 C 0.8439 0.42494 0.79443 0.0
C2719 C 0.87156 0.48149 0.6735 0.0
C2720 C 0.87143 0.49415 0.68919 0.0
C2721 C 0.87115 0.46712 0.68442 0.0
C2722 C 0.87102 0.46532 0.71126 0.0
C2723 C 0.87049 0.47775 0.72695 0.0
C2724 C 0.87061 0.492 0.71602 0.0
C2725 C 0.87168 0.45063 0.72304 0.0
C2726 C 0.85937 0.44072 0.74168 0.0
C2727 C 0.88431 0.44635 0.716 0.0
C2728 C 0.89849 0.45703 0.69797 0.0
C2729 C 0.90945 0.47462 0.70278 0.0
C2730 C 0.92273 0.48463 0.68565 0.0
C2731 C 0.92527 0.47716 0.66376 0.0
C2732 C 0.91455 0.45966 0.65898 0.0
C2733 C 0.90123 0.44959 0.67603 0.0
H2734 H 0.93556 0.48493 0.65052 0.0
H2735 H 0.81142 0.39042 0.82469 0.0
loop_
_geom_bond_atom_site_label_1
_geom_bond_atom_site_label_2
_geom_bond_distance
_geom_bond_site_symmetry_2
_ccdc_geom_bond_type
C0 O1 1.306 . S
C0 O3 1.160 . S
O1 C0 1.306 . S
O1 Cd2 2.228 . S
Cd2 O1 2.228 . S
Cd2 O6 2.273 . S
Cd2 O10 2.277 . S
O3 C0 1.160 . S
O3 Cd4 2.203 . S
Cd4 O3 2.203 . S
Cd4 O6 2.411 . S
Cd4 O7 2.333 . S
Cd4 O8 2.352 . S
Cd4 O12 2.277 . S
Cd4 O13 2.356 . S
C5 O10 1.209 . S
C5 O12 1.226 . S
O6 Cd2 2.273 . S
O6 Cd4 2.411 . S
O6 C9 1.320 . S
O7 Cd4 2.333 . S
O7 C9 1.214 . S
O8 Cd4 2.352 . S
O8 C11 1.258 . S
C9 O6 1.320 . S
C9 O7 1.214 . S
O10 Cd2 2.277 . S
O10 C5 1.209 . S
C11 O8 1.258 . S
C11 O13 1.282 . S
O12 Cd4 2.277 . S
O12 C5 1.226 . S
O13 Cd4 2.356 . S
O13 C11 1.282 . S
C14 O15 1.306 . S
C14 O17 1.160 . S
O15 C14 1.306 . S
O15 Cd16 2.228 . S
Cd16 O15 2.228 . S
Cd16 O20 2.273 . S
Cd16 O24 2.277 . S
O17 C14 1.160 . S
O17 Cd18 2.203 . S
Cd18 O17 2.203 . S
Cd18 O20 2.411 . S
Cd18 O21 2.333 . S
Cd18 O22 2.352 . S
Cd18 O26 2.277 . S
Cd18 O27 2.356 . S
C19 O24 1.209 . S
C19 O26 1.226 . S
O20 Cd16 2.273 . S
O20 Cd18 2.411 . S
O20 C23 1.320 . S
O21 Cd18 2.333 . S
O21 C23 1.214 . S
O22 Cd18 2.352 . S
O22 C25 1.258 . S
C23 O20 1.320 . S
C23 O21 1.214 . S
O24 Cd16 2.277 . S
O24 C19 1.209 . S
C25 O22 1.258 . S
C25 O27 1.282 . S
O26 Cd18 2.277 . S
O26 C19 1.226 . S
O27 Cd18 2.356 . S
O27 C25 1.282 . S
C28 O29 1.306 . S
C28 O31 1.160 . S
O29 C28 1.306 . S
O29 Cd30 2.228 . S
Cd30 O29 2.228 . S
Cd30 O34 2.273 . S
Cd30 O38 2.277 . S
O31 C28 1.160 . S
O31 Cd32 2.203 . S
Cd32 O31 2.203 . S
Cd32 O34 2.411 . S
Cd32 O35 2.333 . S
Cd32 O36 2.352 . S
Cd32 O40 2.277 . S
Cd32 O41 2.356 . S
C33 O38 1.209 . S
C33 O40 1.226 . S
O34 Cd30 2.273 . S
O34 Cd32 2.411 . S
O34 C37 1.320 . S
O35 Cd32 2.333 . S
O35 C37 1.214 . S
O36 Cd32 2.352 . S
O36 C39 1.258 . S
C37 O34 1.320 . S
C37 O35 1.214 . S
O38 Cd30 2.277 . S
O38 C33 1.209 . S
C39 O36 1.258 . S
C39 O41 1.282 . S
O40 Cd32 2.277 . S
O40 C33 1.226 . S
O41 Cd32 2.356 . S
O41 C39 1.282 . S
C42 O43 1.306 . S
C42 O45 1.160 . S
O43 C42 1.306 . S
O43 Cd44 2.228 . S
Cd44 O43 2.228 . S
Cd44 O48 2.273 . S
Cd44 O52 2.277 . S
O45 C42 1.160 . S
O45 Cd46 2.203 . S
Cd46 O45 2.203 . S
Cd46 O48 2.411 . S
Cd46 O49 2.333 . S
Cd46 O50 2.352 . S
Cd46 O54 2.277 . S
Cd46 O55 2.356 . S
C47 O52 1.209 . S
C47 O54 1.226 . S
O48 Cd44 2.273 . S
O48 Cd46 2.411 . S
O48 C51 1.320 . S
O49 Cd46 2.333 . S
O49 C51 1.214 . S
O50 Cd46 2.352 . S
O50 C53 1.258 . S
C51 O48 1.320 . S
C51 O49 1.214 . S
O52 Cd44 2.277 . S
O52 C47 1.209 . S
C53 O50 1.258 . S
C53 O55 1.282 . S
O54 Cd46 2.277 . S
O54 C47 1.226 . S
O55 Cd46 2.356 . S
O55 C53 1.282 . S
C56 O57 1.306 . S
C56 O59 1.160 . S
O57 C56 1.306 . S
O57 Cd58 2.228 . S
Cd58 O57 2.228 . S
Cd58 O62 2.273 . S
Cd58 O66 2.277 . S
O59 C56 1.160 . S
O59 Cd60 2.203 . S
Cd60 O59 2.203 . S
Cd60 O62 2.411 . S
Cd60 O63 2.333 . S
Cd60 O64 2.352 . S
Cd60 O68 2.277 . S
Cd60 O69 2.356 . S
C61 O66 1.209 . S
C61 O68 1.226 . S
O62 Cd58 2.273 . S
O62 Cd60 2.411 . S
O62 C65 1.320 . S
O63 Cd60 2.333 . S
O63 C65 1.214 . S
O64 Cd60 2.352 . S
O64 C67 1.258 . S
C65 O62 1.320 . S
C65 O63 1.214 . S
O66 Cd58 2.277 . S
O66 C61 1.209 . S
C67 O64 1.258 . S
C67 O69 1.282 . S
O68 Cd60 2.277 . S
O68 C61 1.226 . S
O69 Cd60 2.356 . S
O69 C67 1.282 . S
C70 O71 1.306 . S
C70 O73 1.160 . S
O71 C70 1.306 . S
O71 Cd72 2.228 . S
Cd72 O71 2.228 . S
Cd72 O76 2.273 . S
Cd72 O80 2.277 . S
O73 C70 1.160 . S
O73 Cd74 2.203 . S
Cd74 O73 2.203 . S
Cd74 O76 2.411 . S
Cd74 O77 2.333 . S
Cd74 O78 2.352 . S
Cd74 O82 2.277 . S
Cd74 O83 2.356 . S
C75 O80 1.209 . S
C75 O82 1.226 . S
O76 Cd72 2.273 . S
O76 Cd74 2.411 . S
O76 C79 1.320 . S
O77 Cd74 2.333 . S
O77 C79 1.214 . S
O78 Cd74 2.352 . S
O78 C81 1.258 . S
C79 O76 1.320 . S
C79 O77 1.214 . S
O80 Cd72 2.277 . S
O80 C75 1.209 . S
C81 O78 1.258 . S
C81 O83 1.282 . S
O82 Cd74 2.277 . S
O82 C75 1.226 . S
O83 Cd74 2.356 . S
O83 C81 1.282 . S
C84 O85 1.306 . S
C84 O87 1.160 . S
O85 C84 1.306 . S
O85 Cd86 2.228 . S
Cd86 O85 2.228 . S
Cd86 O90 2.273 . S
Cd86 O94 2.277 . S
O87 C84 1.160 . S
O87 Cd88 2.203 . S
Cd88 O87 2.203 . S
Cd88 O90 2.411 . S
Cd88 O91 2.333 . S
Cd88 O92 2.352 . S
Cd88 O96 2.277 . S
Cd88 O97 2.356 . S
C89 O94 1.209 . S
C89 O96 1.226 . S
O90 Cd86 2.273 . S
O90 Cd88 2.411 . S
O90 C93 1.320 . S
O91 Cd88 2.333 . S
O91 C93 1.214 . S
O92 Cd88 2.352 . S
O92 C95 1.258 . S
C93 O90 1.320 . S
C93 O91 1.214 . S
O94 Cd86 2.277 . S
O94 C89 1.209 . S
C95 O92 1.258 . S
C95 O97 1.282 . S
O96 Cd88 2.277 . S
O96 C89 1.226 . S
O97 Cd88 2.356 . S
O97 C95 1.282 . S
C98 O99 1.306 . S
C98 O101 1.160 . S
O99 C98 1.306 . S
O99 Cd100 2.228 . S
Cd100 O99 2.228 . S
Cd100 O104 2.273 . S
Cd100 O108 2.277 . S
O101 C98 1.160 . S
O101 Cd102 2.203 . S
Cd102 O101 2.203 . S
Cd102 O104 2.411 . S
Cd102 O105 2.333 . S
Cd102 O106 2.352 . S
Cd102 O110 2.277 . S
Cd102 O111 2.356 . S
C103 O108 1.209 . S
C103 O110 1.226 . S
O104 Cd100 2.273 . S
O104 Cd102 2.411 . S
O104 C107 1.320 . S
O105 Cd102 2.333 . S
O105 C107 1.214 . S
O106 Cd102 2.352 . S
O106 C109 1.258 . S
C107 O104 1.320 . S
C107 O105 1.214 . S
O108 Cd100 2.277 . S
O108 C103 1.209 . S
C109 O106 1.258 . S
C109 O111 1.282 . S
O110 Cd102 2.277 . S
O110 C103 1.226 . S
O111 Cd102 2.356 . S
O111 C109 1.282 . S
C112 O113 1.306 . S
C112 O115 1.160 . S
O113 C112 1.306 . S
O113 Cd114 2.228 . S
Cd114 O113 2.228 . S
Cd114 O118 2.273 . S
Cd114 O122 2.277 . S
O115 C112 1.160 . S
O115 Cd116 2.203 . S
Cd116 O115 2.203 . S
Cd116 O118 2.411 . S
Cd116 O119 2.333 . S
Cd116 O120 2.352 . S
Cd116 O124 2.277 . S
Cd116 O125 2.356 . S
C117 O122 1.209 . S
C117 O124 1.226 . S
O118 Cd114 2.273 . S
O118 Cd116 2.411 . S
O118 C121 1.320 . S
O119 Cd116 2.333 . S
O119 C121 1.214 . S
O120 Cd116 2.352 . S
O120 C123 1.258 . S
C121 O118 1.320 . S
C121 O119 1.214 . S
O122 Cd114 2.277 . S
O122 C117 1.209 . S
C123 O120 1.258 . S
C123 O125 1.282 . S
O124 Cd116 2.277 . S
O124 C117 1.226 . S
O125 Cd116 2.356 . S
O125 C123 1.282 . S
C126 O127 1.306 . S
C126 O129 1.160 . S
O127 C126 1.306 . S
O127 Cd128 2.228 . S
Cd128 O127 2.228 . S
Cd128 O132 2.273 . S
Cd128 O136 2.277 . S
O129 C126 1.160 . S
O129 Cd130 2.203 . S
Cd130 O129 2.203 . S
Cd130 O132 2.411 . S
Cd130 O133 2.333 . S
Cd130 O134 2.352 . S
Cd130 O138 2.277 . S
Cd130 O139 2.356 . S
C131 O136 1.209 . S
C131 O138 1.226 . S
O132 Cd128 2.273 . S
O132 Cd130 2.411 . S
O132 C135 1.320 . S
O133 Cd130 2.333 . S
O133 C135 1.214 . S
O134 Cd130 2.352 . S
O134 C137 1.258 . S
C135 O132 1.320 . S
C135 O133 1.214 . S
O136 Cd128 2.277 . S
O136 C131 1.209 . S
C137 O134 1.258 . S
C137 O139 1.282 . S
O138 Cd130 2.277 . S
O138 C131 1.226 . S
O139 Cd130 2.356 . S
O139 C137 1.282 . S
C140 O141 1.306 . S
C140 O143 1.160 . S
O141 C140 1.306 . S
O141 Cd142 2.228 . S
Cd142 O141 2.228 . S
Cd142 O146 2.273 . S
Cd142 O150 2.277 . S
O143 C140 1.160 . S
O143 Cd144 2.203 . S
Cd144 O143 2.203 . S
Cd144 O146 2.411 . S
Cd144 O147 2.333 . S
Cd144 O148 2.352 . S
Cd144 O152 2.277 . S
Cd144 O153 2.356 . S
C145 O150 1.209 . S
C145 O152 1.226 . S
O146 Cd142 2.273 . S
O146 Cd144 2.411 . S
O146 C149 1.320 . S
O147 Cd144 2.333 . S
O147 C149 1.214 . S
O148 Cd144 2.352 . S
O148 C151 1.258 . S
C149 O146 1.320 . S
C149 O147 1.214 . S
O150 Cd142 2.277 . S
O150 C145 1.209 . S
C151 O148 1.258 . S
C151 O153 1.282 . S
O152 Cd144 2.277 . S
O152 C145 1.226 . S
O153 Cd144 2.356 . S
O153 C151 1.282 . S
C154 O155 1.306 . S
C154 O157 1.160 . S
O155 C154 1.306 . S
O155 Cd156 2.228 . S
Cd156 O155 2.228 . S
Cd156 O160 2.273 . S
Cd156 O164 2.277 . S
O157 C154 1.160 . S
O157 Cd158 2.203 . S
Cd158 O157 2.203 . S
Cd158 O160 2.411 . S
Cd158 O161 2.333 . S
Cd158 O162 2.352 . S
Cd158 O166 2.277 . S
Cd158 O167 2.356 . S
C159 O164 1.209 . S
C159 O166 1.226 . S
O160 Cd156 2.273 . S
O160 Cd158 2.411 . S
O160 C163 1.320 . S
O161 Cd158 2.333 . S
O161 C163 1.214 . S
O162 Cd158 2.352 . S
O162 C165 1.258 . S
C163 O160 1.320 . S
C163 O161 1.214 . S
O164 Cd156 2.277 . S
O164 C159 1.209 . S
C165 O162 1.258 . S
C165 O167 1.282 . S
O166 Cd158 2.277 . S
O166 C159 1.226 . S
O167 Cd158 2.356 . S
O167 C165 1.282 . S
C168 O169 1.306 . S
C168 O171 1.160 . S
O169 C168 1.306 . S
O169 Cd170 2.228 . S
Cd170 O169 2.228 . S
Cd170 O174 2.273 . S
Cd170 O178 2.277 . S
O171 C168 1.160 . S
O171 Cd172 2.203 . S
Cd172 O171 2.203 . S
Cd172 O174 2.411 . S
Cd172 O175 2.333 . S
Cd172 O176 2.352 . S
Cd172 O180 2.277 . S
Cd172 O181 2.356 . S
C173 O178 1.209 . S
C173 O180 1.226 . S
O174 Cd170 2.273 . S
O174 Cd172 2.411 . S
O174 C177 1.320 . S
O175 Cd172 2.333 . S
O175 C177 1.214 . S
O176 Cd172 2.352 . S
O176 C179 1.258 . S
C177 O174 1.320 . S
C177 O175 1.214 . S
O178 Cd170 2.277 . S
O178 C173 1.209 . S
C179 O176 1.258 . S
C179 O181 1.282 . S
O180 Cd172 2.277 . S
O180 C173 1.226 . S
O181 Cd172 2.356 . S
O181 C179 1.282 . S
C182 O183 1.306 . S
C182 O185 1.160 . S
O183 C182 1.306 . S
O183 Cd184 2.228 . S
Cd184 O183 2.228 . S
Cd184 O188 2.273 . S
Cd184 O192 2.277 . S
O185 C182 1.160 . S
O185 Cd186 2.203 . S
Cd186 O185 2.203 . S
Cd186 O188 2.411 . S
Cd186 O189 2.333 . S
Cd186 O190 2.352 . S
Cd186 O194 2.277 . S
Cd186 O195 2.356 . S
C187 O192 1.209 . S
C187 O194 1.226 . S
O188 Cd184 2.273 . S
O188 Cd186 2.411 . S
O188 C191 1.320 . S
O189 Cd186 2.333 . S
O189 C191 1.214 . S
O190 Cd186 2.352 . S
O190 C193 1.258 . S
C191 O188 1.320 . S
C191 O189 1.214 . S
O192 Cd184 2.277 . S
O192 C187 1.209 . S
C193 O190 1.258 . S
C193 O195 1.282 . S
O194 Cd186 2.277 . S
O194 C187 1.226 . S
O195 Cd186 2.356 . S
O195 C193 1.282 . S
C196 O197 1.306 . S
C196 O199 1.160 . S
O197 C196 1.306 . S
O197 Cd198 2.228 . S
Cd198 O197 2.228 . S
Cd198 O202 2.273 . S
Cd198 O206 2.277 . S
O199 C196 1.160 . S
O199 Cd200 2.203 . S
Cd200 O199 2.203 . S
Cd200 O202 2.411 . S
Cd200 O203 2.333 . S
Cd200 O204 2.352 . S
Cd200 O208 2.277 . S
Cd200 O209 2.356 . S
C201 O206 1.209 . S
C201 O208 1.226 . S
O202 Cd198 2.273 . S
O202 Cd200 2.411 . S
O202 C205 1.320 . S
O203 Cd200 2.333 . S
O203 C205 1.214 . S
O204 Cd200 2.352 . S
O204 C207 1.258 . S
C205 O202 1.320 . S
C205 O203 1.214 . S
O206 Cd198 2.277 . S
O206 C201 1.209 . S
C207 O204 1.258 . S
C207 O209 1.282 . S
O208 Cd200 2.277 . S
O208 C201 1.226 . S
O209 Cd200 2.356 . S
O209 C207 1.282 . S
C210 O211 1.306 . S
C210 O213 1.160 . S
O211 C210 1.306 . S
O211 Cd212 2.228 . S
Cd212 O211 2.228 . S
Cd212 O216 2.273 . S
Cd212 O220 2.277 . S
O213 C210 1.160 . S
O213 Cd214 2.203 . S
Cd214 O213 2.203 . S
Cd214 O216 2.411 . S
Cd214 O217 2.333 . S
Cd214 O218 2.352 . S
Cd214 O222 2.277 . S
Cd214 O223 2.356 . S
C215 O220 1.209 . S
C215 O222 1.226 . S
O216 Cd212 2.273 . S
O216 Cd214 2.411 . S
O216 C219 1.320 . S
O217 Cd214 2.333 . S
O217 C219 1.214 . S
O218 Cd214 2.352 . S
O218 C221 1.258 . S
C219 O216 1.320 . S
C219 O217 1.214 . S
O220 Cd212 2.277 . S
O220 C215 1.209 . S
C221 O218 1.258 . S
C221 O223 1.282 . S
O222 Cd214 2.277 . S
O222 C215 1.226 . S
O223 Cd214 2.356 . S
O223 C221 1.282 . S
C224 O225 1.306 . S
C224 O227 1.160 . S
O225 C224 1.306 . S
O225 Cd226 2.228 . S
Cd226 O225 2.228 . S
Cd226 O230 2.273 . S
Cd226 O234 2.277 . S
O227 C224 1.160 . S
O227 Cd228 2.203 . S
Cd228 O227 2.203 . S
Cd228 O230 2.411 . S
Cd228 O231 2.333 . S
Cd228 O232 2.352 . S
Cd228 O236 2.277 . S
Cd228 O237 2.356 . S
C229 O234 1.209 . S
C229 O236 1.226 . S
O230 Cd226 2.273 . S
O230 Cd228 2.411 . S
O230 C233 1.320 . S
O231 Cd228 2.333 . S
O231 C233 1.214 . S
O232 Cd228 2.352 . S
O232 C235 1.258 . S
C233 O230 1.320 . S
C233 O231 1.214 . S
O234 Cd226 2.277 . S
O234 C229 1.209 . S
C235 O232 1.258 . S
C235 O237 1.282 . S
O236 Cd228 2.277 . S
O236 C229 1.226 . S
O237 Cd228 2.356 . S
O237 C235 1.282 . S
C238 O239 1.306 . S
C238 O241 1.160 . S
O239 C238 1.306 . S
O239 Cd240 2.228 . S
Cd240 O239 2.228 . S
Cd240 O244 2.273 . S
Cd240 O248 2.277 . S
O241 C238 1.160 . S
O241 Cd242 2.203 . S
Cd242 O241 2.203 . S
Cd242 O244 2.411 . S
Cd242 O245 2.333 . S
Cd242 O246 2.352 . S
Cd242 O250 2.277 . S
Cd242 O251 2.356 . S
C243 O248 1.209 . S
C243 O250 1.226 . S
O244 Cd240 2.273 . S
O244 Cd242 2.411 . S
O244 C247 1.320 . S
O245 Cd242 2.333 . S
O245 C247 1.214 . S
O246 Cd242 2.352 . S
O246 C249 1.258 . S
C247 O244 1.320 . S
C247 O245 1.214 . S
O248 Cd240 2.277 . S
O248 C243 1.209 . S
C249 O246 1.258 . S
C249 O251 1.282 . S
O250 Cd242 2.277 . S
O250 C243 1.226 . S
O251 Cd242 2.356 . S
O251 C249 1.282 . S
C252 O253 1.306 . S
C252 O255 1.160 . S
O253 C252 1.306 . S
O253 Cd254 2.228 . S
Cd254 O253 2.228 . S
Cd254 O258 2.273 . S
Cd254 O262 2.277 . S
O255 C252 1.160 . S
O255 Cd256 2.203 . S
Cd256 O255 2.203 . S
Cd256 O258 2.411 . S
Cd256 O259 2.333 . S
Cd256 O260 2.352 . S
Cd256 O264 2.277 . S
Cd256 O265 2.356 . S
C257 O262 1.209 . S
C257 O264 1.226 . S
O258 Cd254 2.273 . S
O258 Cd256 2.411 . S
O258 C261 1.320 . S
O259 Cd256 2.333 . S
O259 C261 1.214 . S
O260 Cd256 2.352 . S
O260 C263 1.258 . S
C261 O258 1.320 . S
C261 O259 1.214 . S
O262 Cd254 2.277 . S
O262 C257 1.209 . S
C263 O260 1.258 . S
C263 O265 1.282 . S
O264 Cd256 2.277 . S
O264 C257 1.226 . S
O265 Cd256 2.356 . S
O265 C263 1.282 . S
C266 O267 1.306 . S
C266 O269 1.160 . S
O267 C266 1.306 . S
O267 Cd268 2.228 . S
Cd268 O267 2.228 . S
Cd268 O272 2.273 . S
Cd268 O276 2.277 . S
O269 C266 1.160 . S
O269 Cd270 2.203 . S
Cd270 O269 2.203 . S
Cd270 O272 2.411 . S
Cd270 O273 2.333 . S
Cd270 O274 2.352 . S
Cd270 O278 2.277 . S
Cd270 O279 2.356 . S
C271 O276 1.209 . S
C271 O278 1.226 . S
O272 Cd268 2.273 . S
O272 Cd270 2.411 . S
O272 C275 1.320 . S
O273 Cd270 2.333 . S
O273 C275 1.214 . S
O274 Cd270 2.352 . S
O274 C277 1.258 . S
C275 O272 1.320 . S
C275 O273 1.214 . S
O276 Cd268 2.277 . S
O276 C271 1.209 . S
C277 O274 1.258 . S
C277 O279 1.282 . S
O278 Cd270 2.277 . S
O278 C271 1.226 . S
O279 Cd270 2.356 . S
O279 C277 1.282 . S
C280 O281 1.306 . S
C280 O283 1.160 . S
O281 C280 1.306 . S
O281 Cd282 2.228 . S
Cd282 O281 2.228 . S
Cd282 O286 2.273 . S
Cd282 O290 2.277 . S
O283 C280 1.160 . S
O283 Cd284 2.203 . S
Cd284 O283 2.203 . S
Cd284 O286 2.411 . S
Cd284 O287 2.333 . S
Cd284 O288 2.352 . S
Cd284 O292 2.277 . S
Cd284 O293 2.356 . S
C285 O290 1.209 . S
C285 O292 1.226 . S
O286 Cd282 2.273 . S
O286 Cd284 2.411 . S
O286 C289 1.320 . S
O287 Cd284 2.333 . S
O287 C289 1.214 . S
O288 Cd284 2.352 . S
O288 C291 1.258 . S
C289 O286 1.320 . S
C289 O287 1.214 . S
O290 Cd282 2.277 . S
O290 C285 1.209 . S
C291 O288 1.258 . S
C291 O293 1.282 . S
O292 Cd284 2.277 . S
O292 C285 1.226 . S
O293 Cd284 2.356 . S
O293 C291 1.282 . S
C294 O295 1.306 . S
C294 O297 1.160 . S
O295 C294 1.306 . S
O295 Cd296 2.228 . S
Cd296 O295 2.228 . S
Cd296 O300 2.273 . S
Cd296 O304 2.277 . S
O297 C294 1.160 . S
O297 Cd298 2.203 . S
Cd298 O297 2.203 . S
Cd298 O300 2.411 . S
Cd298 O301 2.333 . S
Cd298 O302 2.352 . S
Cd298 O306 2.277 . S
Cd298 O307 2.356 . S
C299 O304 1.209 . S
C299 O306 1.226 . S
O300 Cd296 2.273 . S
O300 Cd298 2.411 . S
O300 C303 1.320 . S
O301 Cd298 2.333 . S
O301 C303 1.214 . S
O302 Cd298 2.352 . S
O302 C305 1.258 . S
C303 O300 1.320 . S
C303 O301 1.214 . S
O304 Cd296 2.277 . S
O304 C299 1.209 . S
C305 O302 1.258 . S
C305 O307 1.282 . S
O306 Cd298 2.277 . S
O306 C299 1.226 . S
O307 Cd298 2.356 . S
O307 C305 1.282 . S
C308 O309 1.306 . S
C308 O311 1.160 . S
O309 C308 1.306 . S
O309 Cd310 2.228 . S
Cd310 O309 2.228 . S
Cd310 O314 2.273 . S
Cd310 O318 2.277 . S
O311 C308 1.160 . S
O311 Cd312 2.203 . S
Cd312 O311 2.203 . S
Cd312 O314 2.411 . S
Cd312 O315 2.333 . S
Cd312 O316 2.352 . S
Cd312 O320 2.277 . S
Cd312 O321 2.356 . S
C313 O318 1.209 . S
C313 O320 1.226 . S
O314 Cd310 2.273 . S
O314 Cd312 2.411 . S
O314 C317 1.320 . S
O315 Cd312 2.333 . S
O315 C317 1.214 . S
O316 Cd312 2.352 . S
O316 C319 1.258 . S
C317 O314 1.320 . S
C317 O315 1.214 . S
O318 Cd310 2.277 . S
O318 C313 1.209 . S
C319 O316 1.258 . S
C319 O321 1.282 . S
O320 Cd312 2.277 . S
O320 C313 1.226 . S
O321 Cd312 2.356 . S
O321 C319 1.282 . S
C322 O323 1.306 . S
C322 O325 1.160 . S
O323 C322 1.306 . S
O323 Cd324 2.228 . S
Cd324 O323 2.228 . S
Cd324 O328 2.273 . S
Cd324 O332 2.277 . S
O325 C322 1.160 . S
O325 Cd326 2.203 . S
Cd326 O325 2.203 . S
Cd326 O328 2.411 . S
Cd326 O329 2.333 . S
Cd326 O330 2.352 . S
Cd326 O334 2.277 . S
Cd326 O335 2.356 . S
C327 O332 1.209 . S
C327 O334 1.226 . S
O328 Cd324 2.273 . S
O328 Cd326 2.411 . S
O328 C331 1.320 . S
O329 Cd326 2.333 . S
O329 C331 1.214 . S
O330 Cd326 2.352 . S
O330 C333 1.258 . S
C331 O328 1.320 . S
C331 O329 1.214 . S
O332 Cd324 2.277 . S
O332 C327 1.209 . S
C333 O330 1.258 . S
C333 O335 1.282 . S
O334 Cd326 2.277 . S
O334 C327 1.226 . S
O335 Cd326 2.356 . S
O335 C333 1.282 . S
H336 C354 0.951 . S
H337 C356 0.951 . S
H338 C358 0.950 . S
H339 C359 0.950 . S
H340 C361 0.950 . S
H341 C364 0.950 . S
H342 C365 0.950 . S
H343 C367 0.950 1_565 S
H344 C368 0.950 1_565 S
H345 C369 0.951 . S
H346 C371 0.951 . S
H347 C373 0.950 . S
H348 C374 0.950 . S
H349 C376 0.950 . S
H350 C379 0.950 . S
H351 C380 0.950 . S
H352 C382 0.950 1_545 S
H353 C383 0.951 1_545 S
C354 H336 0.951 . S
C354 C355 1.366 . S
C354 C356 1.388 . S
C355 C354 1.366 . S
C355 C359 1.385 . S
C356 H337 0.951 . S
C356 C354 1.388 . S
C356 C357 1.366 . S
C357 C356 1.366 . S
C357 C358 1.414 . S
C357 C360 1.499 . S
C358 H338 0.950 . S
C358 C357 1.414 . S
C358 C359 1.374 . S
C359 H339 0.950 . S
C359 C355 1.385 . S
C359 C358 1.374 . S
C360 C357 1.499 . S
C360 C361 1.373 . S
C360 C362 1.389 . S
C361 H340 0.950 . S
C361 C360 1.373 . S
C361 C377 1.377 1_545 S
C362 C360 1.389 . S
C362 C363 1.524 . S
C362 C376 1.377 1_545 S
C363 C362 1.524 . S
C363 C364 1.397 . S
C363 C368 1.363 . S
C364 H341 0.950 . S
C364 C363 1.397 . S
C364 C365 1.334 . S
C365 H342 0.950 . S
C365 C364 1.334 . S
C365 C366 1.287 . S
C366 C365 1.287 . S
C366 C367 1.524 . S
C366 H385 0.913 . S
C367 H343 0.950 1_545 S
C367 C366 1.524 . S
C367 C368 1.415 . S
C368 H344 0.950 1_545 S
C368 C363 1.363 . S
C368 C367 1.415 . S
C369 H345 0.951 . S
C369 C370 1.366 . S
C369 C371 1.388 . S
C370 C369 1.366 . S
C370 C374 1.385 . S
C371 H346 0.951 . S
C371 C369 1.388 . S
C371 C372 1.366 . S
C372 C371 1.366 . S
C372 C373 1.414 . S
C372 C375 1.499 . S
C373 H347 0.950 . S
C373 C372 1.414 . S
C373 C374 1.374 . S
C374 H348 0.950 . S
C374 C370 1.385 . S
C374 C373 1.374 . S
C375 C372 1.499 . S
C375 C376 1.373 . S
C375 C377 1.389 . S
C376 H349 0.950 . S
C376 C362 1.377 1_565 S
C376 C375 1.373 . S
C377 C361 1.377 1_565 S
C377 C375 1.389 . S
C377 C378 1.524 . S
C378 C377 1.524 . S
C378 C379 1.397 . S
C378 C383 1.363 . S
C379 H350 0.950 . S
C379 C378 1.397 . S
C379 C380 1.334 . S
C380 H351 0.950 . S
C380 C379 1.334 . S
C380 C381 1.287 . S
C381 C380 1.287 . S
C381 C382 1.524 . S
C381 H384 0.999 . S
C382 H352 0.950 1_565 S
C382 C381 1.524 . S
C382 C383 1.415 . S
C383 H353 0.951 1_565 S
C383 C378 1.363 . S
C383 C382 1.415 . S
H384 C381 0.999 . S
H385 C366 0.913 . S
H386 C404 0.951 . S
H387 C406 0.951 . S
H388 C408 0.950 . S
H389 C409 0.950 . S
H390 C411 0.950 . S
H391 C414 0.950 . S
H392 C415 0.950 . S
H393 C417 0.950 . S
H394 C418 0.950 . S
H395 C419 0.951 . S
H396 C421 0.951 . S
H397 C423 0.950 . S
H398 C424 0.950 . S
H399 C426 0.950 . S
H400 C429 0.950 . S
H401 C430 0.950 . S
H402 C432 0.950 . S
H403 C433 0.950 . S
C404 H386 0.951 . S
C404 C405 1.366 . S
C404 C406 1.388 . S
C405 C404 1.366 . S
C405 C409 1.385 . S
C406 H387 0.951 . S
C406 C404 1.388 . S
C406 C407 1.366 . S
C407 C406 1.366 . S
C407 C408 1.414 . S
C407 C410 1.499 . S
C408 H388 0.950 . S
C408 C407 1.414 . S
C408 C409 1.374 . S
C409 H389 0.950 . S
C409 C405 1.385 . S
C409 C408 1.374 . S
C410 C407 1.499 . S
C410 C411 1.373 . S
C410 C412 1.389 . S
C411 H390 0.950 . S
C411 C410 1.373 . S
C411 C427 1.377 . S
C412 C410 1.389 . S
C412 C413 1.524 . S
C412 C426 1.377 . S
C413 C412 1.524 . S
C413 C414 1.397 . S
C413 C418 1.363 . S
C414 H391 0.950 . S
C414 C413 1.397 . S
C414 C415 1.334 . S
C415 H392 0.950 . S
C415 C414 1.334 . S
C415 C416 1.287 . S
C416 C415 1.287 . S
C416 C417 1.524 . S
C416 H435 0.913 . S
C417 H393 0.950 . S
C417 C416 1.524 . S
C417 C418 1.415 . S
C418 H394 0.950 . S
C418 C413 1.363 . S
C418 C417 1.415 . S
C419 H395 0.951 . S
C419 C420 1.366 . S
C419 C421 1.388 . S
C420 C419 1.366 . S
C420 C424 1.385 . S
C421 H396 0.951 . S
C421 C419 1.388 . S
C421 C422 1.366 . S
C422 C421 1.366 . S
C422 C423 1.414 . S
C422 C425 1.499 . S
C423 H397 0.950 . S
C423 C422 1.414 . S
C423 C424 1.374 . S
C424 H398 0.950 . S
C424 C420 1.385 . S
C424 C423 1.374 . S
C425 C422 1.499 . S
C425 C426 1.373 . S
C425 C427 1.389 . S
C426 H399 0.950 . S
C426 C412 1.377 . S
C426 C425 1.373 . S
C427 C411 1.377 . S
C427 C425 1.389 . S
C427 C428 1.524 . S
C428 C427 1.524 . S
C428 C429 1.397 . S
C428 C433 1.363 . S
C429 H400 0.950 . S
C429 C428 1.397 . S
C429 C430 1.334 . S
C430 H401 0.950 . S
C430 C429 1.334 . S
C430 C431 1.287 . S
C431 C430 1.287 . S
C431 C432 1.524 . S
C431 H434 0.999 . S
C432 H402 0.950 . S
C432 C431 1.524 . S
C432 C433 1.415 . S
C433 H403 0.950 . S
C433 C428 1.363 . S
C433 C432 1.415 . S
H434 C431 0.999 . S
H435 C416 0.913 . S
H436 C454 0.951 . S
H437 C456 0.951 . S
H438 C458 0.950 . S
H439 C459 0.950 . S
H440 C461 0.950 . S
H441 C464 0.950 . S
H442 C465 0.950 . S
H443 C467 0.928 . S
H444 C468 0.950 1_455 S
H445 C469 0.951 . S
H446 C471 0.951 . S
H447 C473 0.950 . S
H448 C474 0.950 . S
H449 C476 0.950 . S
H450 C479 0.950 . S
H451 C480 0.950 . S
H452 C482 0.928 . S
H453 C483 0.950 1_655 S
C454 H436 0.951 . S
C454 C455 1.366 . S
C454 C456 1.388 . S
C455 C454 1.366 . S
C455 C459 1.385 . S
C456 H437 0.951 . S
C456 C454 1.388 . S
C456 C457 1.366 . S
C457 C456 1.366 . S
C457 C458 1.414 . S
C457 C460 1.499 . S
C458 H438 0.950 . S
C458 C457 1.414 . S
C458 C459 1.374 . S
C459 H439 0.950 . S
C459 C455 1.385 . S
C459 C458 1.374 . S
C460 C457 1.499 . S
C460 C461 1.373 . S
C460 C462 1.389 . S
C461 H440 0.950 . S
C461 C460 1.373 . S
C461 C477 1.377 1_655 S
C462 C460 1.389 . S
C462 C463 1.524 . S
C462 C476 1.377 1_655 S
C463 C462 1.524 . S
C463 C464 1.397 . S
C463 C468 1.363 . S
C464 H441 0.950 . S
C464 C463 1.397 . S
C464 C465 1.334 . S
C465 H442 0.950 . S
C465 C464 1.334 . S
C465 C466 1.287 . S
C466 C465 1.287 . S
C466 C467 1.524 . S
C466 H485 0.913 . S
C467 H443 0.928 . S
C467 C466 1.524 . S
C467 C468 1.415 . S
C468 H444 0.950 1_655 S
C468 C463 1.363 . S
C468 C467 1.415 . S
C469 H445 0.951 . S
C469 C470 1.366 . S
C469 C471 1.388 . S
C470 C469 1.366 . S
C470 C474 1.385 . S
C471 H446 0.951 . S
C471 C469 1.388 . S
C471 C472 1.366 . S
C472 C471 1.366 . S
C472 C473 1.414 . S
C472 C475 1.499 . S
C473 H447 0.950 . S
C473 C472 1.414 . S
C473 C474 1.374 . S
C474 H448 0.950 . S
C474 C470 1.385 . S
C474 C473 1.374 . S
C475 C472 1.499 . S
C475 C476 1.373 . S
C475 C477 1.389 . S
C476 H449 0.950 . S
C476 C462 1.377 1_455 S
C476 C475 1.373 . S
C477 C461 1.377 1_455 S
C477 C475 1.389 . S
C477 C478 1.524 . S
C478 C477 1.524 . S
C478 C479 1.397 . S
C478 C483 1.363 . S
C479 H450 0.950 . S
C479 C478 1.397 . S
C479 C480 1.334 . S
C480 H451 0.950 . S
C480 C479 1.334 . S
C480 C481 1.287 . S
C481 C480 1.287 . S
C481 C482 1.524 . S
C481 H484 0.999 . S
C482 H452 0.928 . S
C482 C481 1.524 . S
C482 C483 1.415 . S
C483 H453 0.950 1_455 S
C483 C478 1.363 . S
C483 C482 1.415 . S
H484 C481 0.999 . S
H485 C466 0.913 . S
H486 C504 0.951 . S
H487 C506 0.951 . S
H488 C508 0.950 . S
H489 C509 0.950 . S
H490 C511 0.950 . S
H491 C514 0.950 . S
H492 C515 0.950 . S
H493 C517 0.950 . S
H494 C518 0.950 1_545 S
H495 C519 0.951 . S
H496 C521 0.951 . S
H497 C523 0.950 . S
H498 C524 0.950 . S
H499 C526 0.950 . S
H500 C529 0.950 . S
H501 C530 0.950 . S
H502 C532 0.950 . S
H503 C533 0.950 1_565 S
C504 H486 0.951 . S
C504 C505 1.366 . S
C504 C506 1.388 . S
C505 C504 1.366 . S
C505 C509 1.385 . S
C506 H487 0.951 . S
C506 C504 1.388 . S
C506 C507 1.366 . S
C507 C506 1.366 . S
C507 C508 1.414 . S
C507 C510 1.499 . S
C508 H488 0.950 . S
C508 C507 1.414 . S
C508 C509 1.374 . S
C509 H489 0.950 . S
C509 C505 1.385 . S
C509 C508 1.374 . S
C510 C507 1.499 . S
C510 C511 1.373 . S
C510 C512 1.389 . S
C511 H490 0.950 . S
C511 C510 1.373 . S
C511 C527 1.377 1_565 S
C512 C510 1.389 . S
C512 C513 1.524 . S
C512 C526 1.377 1_565 S
C513 C512 1.524 . S
C513 C514 1.397 . S
C513 C518 1.363 . S
C514 H491 0.950 . S
C514 C513 1.397 . S
C514 C515 1.334 . S
C515 H492 0.950 . S
C515 C514 1.334 . S
C515 C516 1.287 . S
C516 C515 1.287 . S
C516 C517 1.524 . S
C516 H535 0.913 . S
C517 H493 0.950 . S
C517 C516 1.524 . S
C517 C518 1.415 . S
C518 H494 0.950 1_565 S
C518 C513 1.363 . S
C518 C517 1.415 . S
C519 H495 0.951 . S
C519 C520 1.366 . S
C519 C521 1.388 . S
C520 C519 1.366 . S
C520 C524 1.385 . S
C521 H496 0.951 . S
C521 C519 1.388 . S
C521 C522 1.366 . S
C522 C521 1.366 . S
C522 C523 1.414 . S
C522 C525 1.499 . S
C523 H497 0.950 . S
C523 C522 1.414 . S
C523 C524 1.374 . S
C524 H498 0.950 . S
C524 C520 1.385 . S
C524 C523 1.374 . S
C525 C522 1.499 . S
C525 C526 1.373 . S
C525 C527 1.389 . S
C526 H499 0.950 . S
C526 C512 1.377 1_545 S
C526 C525 1.373 . S
C527 C511 1.377 1_545 S
C527 C525 1.389 . S
C527 C528 1.524 . S
C528 C527 1.524 . S
C528 C529 1.397 . S
C528 C533 1.363 . S
C529 H500 0.950 . S
C529 C528 1.397 . S
C529 C530 1.334 . S
C530 H501 0.950 . S
C530 C529 1.334 . S
C530 C531 1.287 . S
C531 C530 1.287 . S
C531 C532 1.524 . S
C531 H534 0.999 . S
C532 H502 0.950 . S
C532 C531 1.524 . S
C532 C533 1.415 . S
C533 H503 0.950 1_545 S
C533 C528 1.363 . S
C533 C532 1.415 . S
H534 C531 0.999 . S
H535 C516 0.913 . S
H536 C554 0.951 . S
H537 C556 0.951 . S
H538 C558 0.950 . S
H539 C559 0.950 . S
H540 C561 0.950 . S
H541 C564 0.950 . S
H542 C565 0.950 . S
H543 C567 0.950 . S
H544 C568 0.950 . S
H545 C569 0.951 . S
H546 C571 0.951 . S
H547 C573 0.950 . S
H548 C574 0.950 . S
H549 C576 0.950 . S
H550 C579 0.950 . S
H551 C580 0.950 . S
H552 C582 0.950 . S
H553 C583 0.950 . S
C554 H536 0.951 . S
C554 C555 1.366 . S
C554 C556 1.388 . S
C555 C554 1.366 . S
C555 C559 1.385 . S
C556 H537 0.951 . S
C556 C554 1.388 . S
C556 C557 1.366 . S
C557 C556 1.366 . S
C557 C558 1.414 . S
C557 C560 1.499 . S
C558 H538 0.950 . S
C558 C557 1.414 . S
C558 C559 1.374 . S
C559 H539 0.950 . S
C559 C555 1.385 . S
C559 C558 1.374 . S
C560 C557 1.499 . S
C560 C561 1.373 . S
C560 C562 1.389 . S
C561 H540 0.950 . S
C561 C560 1.373 . S
C561 C577 1.377 . S
C562 C560 1.389 . S
C562 C563 1.524 . S
C562 C576 1.377 . S
C563 C562 1.524 . S
C563 C564 1.397 . S
C563 C568 1.363 . S
C564 H541 0.950 . S
C564 C563 1.397 . S
C564 C565 1.334 . S
C565 H542 0.950 . S
C565 C564 1.334 . S
C565 C566 1.287 . S
C566 C565 1.287 . S
C566 C567 1.524 . S
C566 H585 0.913 . S
C567 H543 0.950 . S
C567 C566 1.524 . S
C567 C568 1.415 . S
C568 H544 0.950 . S
C568 C563 1.363 . S
C568 C567 1.415 . S
C569 H545 0.951 . S
C569 C570 1.366 . S
C569 C571 1.388 . S
C570 C569 1.366 . S
C570 C574 1.385 . S
C571 H546 0.951 . S
C571 C569 1.388 . S
C571 C572 1.366 . S
C572 C571 1.366 . S
C572 C573 1.414 . S
C572 C575 1.499 . S
C573 H547 0.950 . S
C573 C572 1.414 . S
C573 C574 1.374 . S
C574 H548 0.950 . S
C574 C570 1.385 . S
C574 C573 1.374 . S
C575 C572 1.499 . S
C575 C576 1.373 . S
C575 C577 1.389 . S
C576 H549 0.950 . S
C576 C562 1.377 . S
C576 C575 1.373 . S
C577 C561 1.377 . S
C577 C575 1.389 . S
C577 C578 1.524 . S
C578 C577 1.524 . S
C578 C579 1.397 . S
C578 C583 1.363 . S
C579 H550 0.950 . S
C579 C578 1.397 . S
C579 C580 1.334 . S
C580 H551 0.950 . S
C580 C579 1.334 . S
C580 C581 1.287 . S
C581 C580 1.287 . S
C581 C582 1.524 . S
C581 H584 0.999 . S
C582 H552 0.950 . S
C582 C581 1.524 . S
C582 C583 1.415 . S
C583 H553 0.950 . S
C583 C578 1.363 . S
C583 C582 1.415 . S
H584 C581 0.999 . S
H585 C566 0.913 . S
H586 C604 0.951 . S
H587 C606 0.951 . S
H588 C608 0.950 . S
H589 C609 0.950 . S
H590 C611 0.950 . S
H591 C614 0.950 . S
H592 C615 0.950 . S
H593 C617 0.950 . S
H594 C618 0.950 . S
H595 C619 0.951 . S
H596 C621 0.951 . S
H597 C623 0.950 . S
H598 C624 0.950 . S
H599 C626 0.950 . S
H600 C629 0.950 . S
H601 C630 0.950 . S
H602 C632 0.950 . S
H603 C633 0.950 . S
C604 H586 0.951 . S
C604 C605 1.366 . S
C604 C606 1.388 . S
C605 C604 1.366 . S
C605 C609 1.385 . S
C606 H587 0.951 . S
C606 C604 1.388 . S
C606 C607 1.366 . S
C607 C606 1.366 . S
C607 C608 1.414 . S
C607 C610 1.499 . S
C608 H588 0.950 . S
C608 C607 1.414 . S
C608 C609 1.374 . S
C609 H589 0.950 . S
C609 C605 1.385 . S
C609 C608 1.374 . S
C610 C607 1.499 . S
C610 C611 1.373 . S
C610 C612 1.389 . S
C611 H590 0.950 . S
C611 C610 1.373 . S
C611 C627 1.377 1_455 S
C612 C610 1.389 . S
C612 C613 1.524 . S
C612 C626 1.377 1_455 S
C613 C612 1.524 . S
C613 C614 1.397 . S
C613 C618 1.363 . S
C614 H591 0.950 . S
C614 C613 1.397 . S
C614 C615 1.334 . S
C615 H592 0.950 . S
C615 C614 1.334 . S
C615 C616 1.287 . S
C616 C615 1.287 . S
C616 C617 1.524 . S
C616 H635 0.913 . S
C617 H593 0.950 . S
C617 C616 1.524 . S
C617 C618 1.415 . S
C618 H594 0.950 . S
C618 C613 1.363 . S
C618 C617 1.415 . S
C619 H595 0.951 . S
C619 C620 1.366 . S
C619 C621 1.388 . S
C620 C619 1.366 . S
C620 C624 1.385 . S
C621 H596 0.951 . S
C621 C619 1.388 . S
C621 C622 1.366 . S
C622 C621 1.366 . S
C622 C623 1.414 . S
C622 C625 1.499 . S
C623 H597 0.950 . S
C623 C622 1.414 . S
C623 C624 1.374 . S
C624 H598 0.950 . S
C624 C620 1.385 . S
C624 C623 1.374 . S
C625 C622 1.499 . S
C625 C626 1.373 . S
C625 C627 1.389 . S
C626 H599 0.950 . S
C626 C612 1.377 1_655 S
C626 C625 1.373 . S
C627 C611 1.377 1_655 S
C627 C625 1.389 . S
C627 C628 1.524 . S
C628 C627 1.524 . S
C628 C629 1.397 . S
C628 C633 1.363 . S
C629 H600 0.950 . S
C629 C628 1.397 . S
C629 C630 1.334 . S
C630 H601 0.950 . S
C630 C629 1.334 . S
C630 C631 1.287 . S
C631 C630 1.287 . S
C631 C632 1.524 . S
C631 H634 0.999 . S
C632 H602 0.950 . S
C632 C631 1.524 . S
C632 C633 1.415 . S
C633 H603 0.950 . S
C633 C628 1.363 . S
C633 C632 1.415 . S
H634 C631 0.999 . S
H635 C616 0.913 . S
H636 C654 0.951 . S
H637 C656 0.951 . S
H638 C658 0.950 . S
H639 C659 0.950 . S
H640 C661 0.950 . S
H641 C664 0.950 . S
H642 C665 0.950 . S
H643 C667 0.950 . S
H644 C668 0.950 . S
H645 C669 0.951 . S
H646 C671 0.951 . S
H647 C673 0.950 . S
H648 C674 0.950 . S
H649 C676 0.950 . S
H650 C679 0.950 . S
H651 C680 0.950 . S
H652 C682 0.950 . S
H653 C683 0.950 . S
C654 H636 0.951 . S
C654 C655 1.366 . S
C654 C656 1.388 . S
C655 C654 1.366 . S
C655 C659 1.385 . S
C656 H637 0.951 . S
C656 C654 1.388 . S
C656 C657 1.366 . S
C657 C656 1.366 . S
C657 C658 1.414 . S
C657 C660 1.499 . S
C658 H638 0.950 . S
C658 C657 1.414 . S
C658 C659 1.374 . S
C659 H639 0.950 . S
C659 C655 1.385 . S
C659 C658 1.374 . S
C660 C657 1.499 . S
C660 C661 1.373 . S
C660 C662 1.389 . S
C661 H640 0.950 . S
C661 C660 1.373 . S
C661 C677 1.377 1_565 S
C662 C660 1.389 . S
C662 C663 1.524 . S
C662 C676 1.377 1_565 S
C663 C662 1.524 . S
C663 C664 1.397 . S
C663 C668 1.363 1_565 S
C664 H641 0.950 . S
C664 C663 1.397 . S
C664 C665 1.334 . S
C665 H642 0.950 . S
C665 C664 1.334 . S
C665 C666 1.287 . S
C666 C665 1.287 . S
C666 C667 1.524 1_565 S
C666 H685 0.913 . S
C667 H643 0.950 . S
C667 C666 1.524 1_545 S
C667 C668 1.415 . S
C668 H644 0.950 . S
C668 C663 1.363 1_545 S
C668 C667 1.415 . S
C669 H645 0.951 . S
C669 C670 1.366 . S
C669 C671 1.388 . S
C670 C669 1.366 . S
C670 C674 1.385 . S
C671 H646 0.951 . S
C671 C669 1.388 . S
C671 C672 1.366 . S
C672 C671 1.366 . S
C672 C673 1.414 . S
C672 C675 1.499 . S
C673 H647 0.950 . S
C673 C672 1.414 . S
C673 C674 1.374 . S
C674 H648 0.950 . S
C674 C670 1.385 . S
C674 C673 1.374 . S
C675 C672 1.499 . S
C675 C676 1.373 . S
C675 C677 1.389 . S
C676 H649 0.950 . S
C676 C662 1.377 1_545 S
C676 C675 1.373 . S
C677 C661 1.377 1_545 S
C677 C675 1.389 . S
C677 C678 1.524 . S
C678 C677 1.524 . S
C678 C679 1.397 . S
C678 C683 1.363 1_545 S
C679 H650 0.950 . S
C679 C678 1.397 . S
C679 C680 1.334 . S
C680 H651 0.950 . S
C680 C679 1.334 . S
C680 C681 1.287 . S
C681 C680 1.287 . S
C681 C682 1.524 1_545 S
C681 H684 0.999 . S
C682 H652 0.950 . S
C682 C681 1.524 1_565 S
C682 C683 1.415 . S
C683 H653 0.950 . S
C683 C678 1.363 1_565 S
C683 C682 1.415 . S
H684 C681 0.999 . S
H685 C666 0.913 . S
H686 C704 0.951 . S
H687 C706 0.951 . S
H688 C708 0.950 . S
H689 C709 0.950 . S
H690 C711 0.950 . S
H691 C714 0.950 . S
H692 C715 0.950 . S
H693 C717 0.950 . S
H694 C718 0.950 . S
H695 C719 0.951 . S
H696 C721 0.951 . S
H697 C723 0.950 . S
H698 C724 0.950 . S
H699 C726 0.950 . S
H700 C729 0.950 . S
H701 C730 0.950 . S
H702 C732 0.950 . S
H703 C733 0.950 . S
C704 H686 0.951 . S
C704 C705 1.366 . S
C704 C706 1.388 . S
C705 C704 1.366 . S
C705 C709 1.385 . S
C706 H687 0.951 . S
C706 C704 1.388 . S
C706 C707 1.366 . S
C707 C706 1.366 . S
C707 C708 1.414 . S
C707 C710 1.499 . S
C708 H688 0.950 . S
C708 C707 1.414 . S
C708 C709 1.374 . S
C709 H689 0.950 . S
C709 C705 1.385 . S
C709 C708 1.374 . S
C710 C707 1.499 . S
C710 C711 1.373 . S
C710 C712 1.389 . S
C711 H690 0.950 . S
C711 C710 1.373 . S
C711 C727 1.377 . S
C712 C710 1.389 . S
C712 C713 1.524 . S
C712 C726 1.377 . S
C713 C712 1.524 . S
C713 C714 1.397 . S
C713 C718 1.363 . S
C714 H691 0.950 . S
C714 C713 1.397 . S
C714 C715 1.334 . S
C715 H692 0.950 . S
C715 C714 1.334 . S
C715 C716 1.287 . S
C716 C715 1.287 . S
C716 C717 1.524 . S
C716 H735 0.913 . S
C717 H693 0.950 . S
C717 C716 1.524 . S
C717 C718 1.415 . S
C718 H694 0.950 . S
C718 C713 1.363 . S
C718 C717 1.415 . S
C719 H695 0.951 . S
C719 C720 1.366 . S
C719 C721 1.388 . S
C720 C719 1.366 . S
C720 C724 1.385 . S
C721 H696 0.951 . S
C721 C719 1.388 . S
C721 C722 1.366 . S
C722 C721 1.366 . S
C722 C723 1.414 . S
C722 C725 1.499 . S
C723 H697 0.950 . S
C723 C722 1.414 . S
C723 C724 1.374 . S
C724 H698 0.950 . S
C724 C720 1.385 . S
C724 C723 1.374 . S
C725 C722 1.499 . S
C725 C726 1.373 . S
C725 C727 1.389 . S
C726 H699 0.950 . S
C726 C712 1.377 . S
C726 C725 1.373 . S
C727 C711 1.377 . S
C727 C725 1.389 . S
C727 C728 1.524 . S
C728 C727 1.524 . S
C728 C729 1.397 . S
C728 C733 1.363 . S
C729 H700 0.950 . S
C729 C728 1.397 . S
C729 C730 1.334 . S
C730 H701 0.950 . S
C730 C729 1.334 . S
C730 C731 1.287 . S
C731 C730 1.287 . S
C731 C732 1.524 . S
C731 H734 0.999 . S
C732 H702 0.950 . S
C732 C731 1.524 . S
C732 C733 1.415 . S
C733 H703 0.950 . S
C733 C728 1.363 . S
C733 C732 1.415 . S
H734 C731 0.999 . S
H735 C716 0.913 . S
H736 C754 0.951 . S
H737 C756 0.951 . S
H738 C758 0.950 . S
H739 C759 0.950 . S
H740 C761 0.950 . S
H741 C764 0.950 . S
H742 C765 0.950 . S
H743 C767 0.950 . S
H744 C768 0.950 . S
H745 C769 0.951 . S
H746 C771 0.951 . S
H747 C773 0.950 . S
H748 C774 0.950 . S
H749 C776 0.950 . S
H750 C779 0.950 . S
H751 C780 0.950 . S
H752 C782 0.950 . S
H753 C783 0.950 . S
C754 H736 0.951 . S
C754 C755 1.366 . S
C754 C756 1.388 . S
C755 C754 1.366 . S
C755 C759 1.385 . S
C756 H737 0.951 . S
C756 C754 1.388 . S
C756 C757 1.366 . S
C757 C756 1.366 . S
C757 C758 1.414 . S
C757 C760 1.499 . S
C758 H738 0.950 . S
C758 C757 1.414 . S
C758 C759 1.374 . S
C759 H739 0.950 . S
C759 C755 1.385 . S
C759 C758 1.374 . S
C760 C757 1.499 . S
C760 C761 1.373 . S
C760 C762 1.389 . S
C761 H740 0.950 . S
C761 C760 1.373 . S
C761 C777 1.377 1_655 S
C762 C760 1.389 . S
C762 C763 1.524 . S
C762 C776 1.377 1_655 S
C763 C762 1.524 . S
C763 C764 1.397 . S
C763 C768 1.363 1_655 S
C764 H741 0.950 . S
C764 C763 1.397 . S
C764 C765 1.334 . S
C765 H742 0.950 . S
C765 C764 1.334 . S
C765 C766 1.287 . S
C766 C765 1.287 . S
C766 C767 1.524 1_655 S
C766 H785 0.913 . S
C767 H743 0.950 . S
C767 C766 1.524 1_455 S
C767 C768 1.415 . S
C768 H744 0.950 . S
C768 C763 1.363 1_455 S
C768 C767 1.415 . S
C769 H745 0.951 . S
C769 C770 1.366 . S
C769 C771 1.388 . S
C770 C769 1.366 . S
C770 C774 1.385 . S
C771 H746 0.951 . S
C771 C769 1.388 . S
C771 C772 1.366 . S
C772 C771 1.366 . S
C772 C773 1.414 . S
C772 C775 1.499 . S
C773 H747 0.950 . S
C773 C772 1.414 . S
C773 C774 1.374 . S
C774 H748 0.950 . S
C774 C770 1.385 . S
C774 C773 1.374 . S
C775 C772 1.499 . S
C775 C776 1.373 . S
C775 C777 1.389 . S
C776 H749 0.950 . S
C776 C762 1.377 1_455 S
C776 C775 1.373 . S
C777 C761 1.377 1_455 S
C777 C775 1.389 . S
C777 C778 1.524 . S
C778 C777 1.524 . S
C778 C779 1.397 . S
C778 C783 1.363 1_455 S
C779 H750 0.950 . S
C779 C778 1.397 . S
C779 C780 1.334 . S
C780 H751 0.950 . S
C780 C779 1.334 . S
C780 C781 1.287 . S
C781 C780 1.287 . S
C781 C782 1.524 1_455 S
C781 H784 0.999 . S
C782 H752 0.950 . S
C782 C781 1.524 1_655 S
C782 C783 1.415 . S
C783 H753 0.950 . S
C783 C778 1.363 1_655 S
C783 C782 1.415 . S
H784 C781 0.999 . S
H785 C766 0.913 . S
H786 C804 0.951 . S
H787 C806 0.951 . S
H788 C808 0.950 . S
H789 C809 0.950 . S
H790 C811 0.950 . S
H791 C814 0.950 . S
H792 C815 0.950 . S
H793 C817 0.952 . S
H794 C818 0.950 . S
H795 C819 0.951 . S
H796 C821 0.951 . S
H797 C823 0.950 . S
H798 C824 0.950 . S
H799 C826 0.950 . S
H800 C829 0.950 . S
H801 C830 0.950 . S
H802 C832 0.952 . S
H803 C833 0.950 . S
C804 H786 0.951 . S
C804 C805 1.366 . S
C804 C806 1.388 . S
C805 C804 1.366 . S
C805 C809 1.385 . S
C806 H787 0.951 . S
C806 C804 1.388 . S
C806 C807 1.366 . S
C807 C806 1.366 . S
C807 C808 1.414 . S
C807 C810 1.499 . S
C808 H788 0.950 . S
C808 C807 1.414 . S
C808 C809 1.374 . S
C809 H789 0.950 . S
C809 C805 1.385 . S
C809 C808 1.374 . S
C810 C807 1.499 . S
C810 C811 1.373 . S
C810 C812 1.389 . S
C811 H790 0.950 . S
C811 C810 1.373 . S
C811 C827 1.377 1_545 S
C812 C810 1.389 . S
C812 C813 1.524 . S
C812 C826 1.377 1_545 S
C813 C812 1.524 . S
C813 C814 1.397 . S
C813 C818 1.363 1_545 S
C814 H791 0.950 . S
C814 C813 1.397 . S
C814 C815 1.334 . S
C815 H792 0.950 . S
C815 C814 1.334 . S
C815 C816 1.287 . S
C816 C815 1.287 . S
C816 C817 1.523 1_545 S
C816 H835 0.913 . S
C817 H793 0.952 . S
C817 C816 1.523 1_565 S
C817 C818 1.414 . S
C818 H794 0.950 . S
C818 C813 1.363 1_565 S
C818 C817 1.414 . S
C819 H795 0.951 . S
C819 C820 1.366 . S
C819 C821 1.388 . S
C820 C819 1.366 . S
C820 C824 1.385 . S
C821 H796 0.951 . S
C821 C819 1.388 . S
C821 C822 1.366 . S
C822 C821 1.366 . S
C822 C823 1.414 . S
C822 C825 1.499 . S
C823 H797 0.950 . S
C823 C822 1.414 . S
C823 C824 1.374 . S
C824 H798 0.950 . S
C824 C820 1.385 . S
C824 C823 1.374 . S
C825 C822 1.499 . S
C825 C826 1.373 . S
C825 C827 1.389 . S
C826 H799 0.950 . S
C826 C812 1.377 1_565 S
C826 C825 1.373 . S
C827 C811 1.377 1_565 S
C827 C825 1.389 . S
C827 C828 1.524 . S
C828 C827 1.524 . S
C828 C829 1.397 . S
C828 C833 1.363 1_565 S
C829 H800 0.950 . S
C829 C828 1.397 . S
C829 C830 1.334 . S
C830 H801 0.950 . S
C830 C829 1.334 . S
C830 C831 1.287 . S
C831 C830 1.287 . S
C831 C832 1.522 1_565 S
C831 H834 0.999 . S
C832 H802 0.952 . S
C832 C831 1.522 1_545 S
C832 C833 1.414 . S
C833 H803 0.950 . S
C833 C828 1.363 1_545 S
C833 C832 1.414 . S
H834 C831 0.999 . S
H835 C816 0.913 . S
H836 C854 0.951 . S
H837 C856 0.951 . S
H838 C858 0.950 . S
H839 C859 0.950 . S
H840 C861 0.950 . S
H841 C864 0.950 . S
H842 C865 0.950 . S
H843 C867 0.950 . S
H844 C868 0.950 . S
H845 C869 0.951 . S
H846 C871 0.951 . S
H847 C873 0.950 . S
H848 C874 0.950 . S
H849 C876 0.950 . S
H850 C879 0.950 . S
H851 C880 0.950 . S
H852 C882 0.950 . S
H853 C883 0.950 . S
C854 H836 0.951 . S
C854 C855 1.366 . S
C854 C856 1.388 . S
C855 C854 1.366 . S
C855 C859 1.385 . S
C856 H837 0.951 . S
C856 C854 1.388 . S
C856 C857 1.366 . S
C857 C856 1.366 . S
C857 C858 1.414 . S
C857 C860 1.499 . S
C858 H838 0.950 . S
C858 C857 1.414 . S
C858 C859 1.374 . S
C859 H839 0.950 . S
C859 C855 1.385 . S
C859 C858 1.374 . S
C860 C857 1.499 . S
C860 C861 1.373 . S
C860 C862 1.389 . S
C861 H840 0.950 . S
C861 C860 1.373 . S
C861 C877 1.377 . S
C862 C860 1.389 . S
C862 C863 1.524 . S
C862 C876 1.377 . S
C863 C862 1.524 . S
C863 C864 1.397 . S
C863 C868 1.363 . S
C864 H841 0.950 . S
C864 C863 1.397 . S
C864 C865 1.334 . S
C865 H842 0.950 . S
C865 C864 1.334 . S
C865 C866 1.287 . S
C866 C865 1.287 . S
C866 C867 1.524 . S
C866 H885 0.913 . S
C867 H843 0.950 . S
C867 C866 1.524 . S
C867 C868 1.415 . S
C868 H844 0.950 . S
C868 C863 1.363 . S
C868 C867 1.415 . S
C869 H845 0.951 . S
C869 C870 1.366 . S
C869 C871 1.388 . S
C870 C869 1.366 . S
C870 C874 1.385 . S
C871 H846 0.951 . S
C871 C869 1.388 . S
C871 C872 1.366 . S
C872 C871 1.366 . S
C872 C873 1.414 . S
C872 C875 1.499 . S
C873 H847 0.950 . S
C873 C872 1.414 . S
C873 C874 1.374 . S
C874 H848 0.950 . S
C874 C870 1.385 . S
C874 C873 1.374 . S
C875 C872 1.499 . S
C875 C876 1.373 . S
C875 C877 1.389 . S
C876 H849 0.950 . S
C876 C862 1.377 . S
C876 C875 1.373 . S
C877 C861 1.377 . S
C877 C875 1.389 . S
C877 C878 1.524 . S
C878 C877 1.524 . S
C878 C879 1.397 . S
C878 C883 1.363 . S
C879 H850 0.950 . S
C879 C878 1.397 . S
C879 C880 1.334 . S
C880 H851 0.950 . S
C880 C879 1.334 . S
C880 C881 1.287 . S
C881 C880 1.287 . S
C881 C882 1.524 . S
C881 H884 0.999 . S
C882 H852 0.950 . S
C882 C881 1.524 . S
C882 C883 1.415 . S
C883 H853 0.950 . S
C883 C878 1.363 . S
C883 C882 1.415 . S
H884 C881 0.999 . S
H885 C866 0.913 . S
H886 C904 0.951 . S
H887 C906 0.951 . S
H888 C908 0.950 . S
H889 C909 0.950 . S
H890 C911 0.950 . S
H891 C914 0.950 . S
H892 C915 0.950 . S
H893 C917 0.950 . S
H894 C918 0.950 . S
H895 C919 0.951 . S
H896 C921 0.951 . S
H897 C923 0.950 . S
H898 C924 0.950 . S
H899 C926 0.950 . S
H900 C929 0.950 . S
H901 C930 0.950 . S
H902 C932 0.950 . S
H903 C933 0.950 . S
C904 H886 0.951 . S
C904 C905 1.366 . S
C904 C906 1.388 . S
C905 C904 1.366 . S
C905 C909 1.385 . S
C906 H887 0.951 . S
C906 C904 1.388 . S
C906 C907 1.366 . S
C907 C906 1.366 . S
C907 C908 1.414 . S
C907 C910 1.499 . S
C908 H888 0.950 . S
C908 C907 1.414 . S
C908 C909 1.374 . S
C909 H889 0.950 . S
C909 C905 1.385 . S
C909 C908 1.374 . S
C910 C907 1.499 . S
C910 C911 1.373 . S
C910 C912 1.389 . S
C911 H890 0.950 . S
C911 C910 1.373 . S
C911 C927 1.377 1_455 S
C912 C910 1.389 . S
C912 C913 1.524 . S
C912 C926 1.377 1_455 S
C913 C912 1.524 . S
C913 C914 1.397 . S
C913 C918 1.363 1_455 S
C914 H891 0.950 . S
C914 C913 1.397 . S
C914 C915 1.334 . S
C915 H892 0.950 . S
C915 C914 1.334 . S
C915 C916 1.287 . S
C916 C915 1.287 . S
C916 C917 1.524 1_455 S
C916 H935 0.913 . S
C917 H893 0.950 . S
C917 C916 1.524 1_655 S
C917 C918 1.415 . S
C918 H894 0.950 . S
C918 C913 1.363 1_655 S
C918 C917 1.415 . S
C919 H895 0.951 . S
C919 C920 1.366 . S
C919 C921 1.388 . S
C920 C919 1.366 . S
C920 C924 1.385 . S
C921 H896 0.951 . S
C921 C919 1.388 . S
C921 C922 1.366 . S
C922 C921 1.366 . S
C922 C923 1.414 . S
C922 C925 1.499 . S
C923 H897 0.950 . S
C923 C922 1.414 . S
C923 C924 1.374 . S
C924 H898 0.950 . S
C924 C920 1.385 . S
C924 C923 1.374 . S
C925 C922 1.499 . S
C925 C926 1.373 . S
C925 C927 1.389 . S
C926 H899 0.950 . S
C926 C912 1.377 1_655 S
C926 C925 1.373 . S
C927 C911 1.377 1_655 S
C927 C925 1.389 . S
C927 C928 1.524 . S
C928 C927 1.524 . S
C928 C929 1.397 . S
C928 C933 1.363 1_655 S
C929 H900 0.950 . S
C929 C928 1.397 . S
C929 C930 1.334 . S
C930 H901 0.950 . S
C930 C929 1.334 . S
C930 C931 1.287 . S
C931 C930 1.287 . S
C931 C932 1.524 1_655 S
C931 H934 0.999 . S
C932 H902 0.950 . S
C932 C931 1.524 1_455 S
C932 C933 1.415 . S
C933 H903 0.950 . S
C933 C928 1.363 1_455 S
C933 C932 1.415 . S
H934 C931 0.999 . S
H935 C916 0.913 . S
H936 C954 0.951 . S
H937 C956 0.951 . S
H938 C958 0.950 . S
H939 C959 0.950 . S
H940 C961 0.950 . S
H941 C964 0.950 . S
H942 C965 0.950 . S
H943 C967 0.950 . S
H944 C968 0.950 . S
H945 C969 0.951 . S
H946 C971 0.951 . S
H947 C973 0.950 . S
H948 C974 0.950 . S
H949 C976 0.950 . S
H950 C979 0.950 . S
H951 C980 0.950 . S
H952 C982 0.950 . S
H953 C983 0.950 . S
C954 H936 0.951 . S
C954 C955 1.366 . S
C954 C956 1.388 . S
C955 C954 1.366 . S
C955 C959 1.385 . S
C956 H937 0.951 . S
C956 C954 1.388 . S
C956 C957 1.366 . S
C957 C956 1.366 . S
C957 C958 1.414 . S
C957 C960 1.499 . S
C958 H938 0.950 . S
C958 C957 1.414 . S
C958 C959 1.374 . S
C959 H939 0.950 . S
C959 C955 1.385 . S
C959 C958 1.374 . S
C960 C957 1.499 . S
C960 C961 1.373 . S
C960 C962 1.389 . S
C961 H940 0.950 . S
C961 C960 1.373 . S
C961 C977 1.377 . S
C962 C960 1.389 . S
C962 C963 1.524 . S
C962 C976 1.377 . S
C963 C962 1.524 . S
C963 C964 1.397 . S
C963 C968 1.363 . S
C964 H941 0.950 . S
C964 C963 1.397 . S
C964 C965 1.334 . S
C965 H942 0.950 . S
C965 C964 1.334 . S
C965 C966 1.287 . S
C966 C965 1.287 . S
C966 C967 1.524 . S
C966 H985 0.913 . S
C967 H943 0.950 . S
C967 C966 1.524 . S
C967 C968 1.415 . S
C968 H944 0.950 . S
C968 C963 1.363 . S
C968 C967 1.415 . S
C969 H945 0.951 . S
C969 C970 1.366 . S
C969 C971 1.388 . S
C970 C969 1.366 . S
C970 C974 1.385 . S
C971 H946 0.951 . S
C971 C969 1.388 . S
C971 C972 1.366 . S
C972 C971 1.366 . S
C972 C973 1.414 . S
C972 C975 1.499 . S
C973 H947 0.950 . S
C973 C972 1.414 . S
C973 C974 1.374 . S
C974 H948 0.950 . S
C974 C970 1.385 . S
C974 C973 1.374 . S
C975 C972 1.499 . S
C975 C976 1.373 . S
C975 C977 1.389 . S
C976 H949 0.950 . S
C976 C962 1.377 . S
C976 C975 1.373 . S
C977 C961 1.377 . S
C977 C975 1.389 . S
C977 C978 1.524 . S
C978 C977 1.524 . S
C978 C979 1.397 . S
C978 C983 1.363 . S
C979 H950 0.950 . S
C979 C978 1.397 . S
C979 C980 1.334 . S
C980 H951 0.950 . S
C980 C979 1.334 . S
C980 C981 1.287 . S
C981 C980 1.287 . S
C981 C982 1.524 . S
C981 H984 0.999 . S
C982 H952 0.950 . S
C982 C981 1.524 . S
C982 C983 1.415 . S
C983 H953 0.950 . S
C983 C978 1.363 . S
C983 C982 1.415 . S
H984 C981 0.999 . S
H985 C966 0.913 . S
H986 C1004 0.951 . S
H987 C1006 0.951 . S
H988 C1008 0.950 . S
H989 C1009 0.950 . S
H990 C1011 0.950 . S
H991 C1014 0.950 . S
H992 C1015 0.950 . S
H993 C1017 0.950 . S
H994 C1018 0.950 . S
H995 C1019 0.951 . S
H996 C1021 0.951 . S
H997 C1023 0.950 . S
H998 C1024 0.950 . S
H999 C1026 0.950 . S
H1000 C1029 0.950 . S
H1001 C1030 0.950 . S
H1002 C1032 0.950 . S
H1003 C1033 0.950 . S
C1004 H986 0.951 . S
C1004 C1005 1.366 . S
C1004 C1006 1.388 . S
C1005 C1004 1.366 . S
C1005 C1009 1.385 . S
C1006 H987 0.951 . S
C1006 C1004 1.388 . S
C1006 C1007 1.366 . S
C1007 C1006 1.366 . S
C1007 C1008 1.414 . S
C1007 C1010 1.499 . S
C1008 H988 0.950 . S
C1008 C1007 1.414 . S
C1008 C1009 1.374 . S
C1009 H989 0.950 . S
C1009 C1005 1.385 . S
C1009 C1008 1.374 . S
C1010 C1007 1.499 . S
C1010 C1011 1.373 . S
C1010 C1012 1.389 . S
C1011 H990 0.950 . S
C1011 C1010 1.373 . S
C1011 C1027 1.377 . S
C1012 C1010 1.389 . S
C1012 C1013 1.524 . S
C1012 C1026 1.377 . S
C1013 C1012 1.524 . S
C1013 C1014 1.397 . S
C1013 C1018 1.363 . S
C1014 H991 0.950 . S
C1014 C1013 1.397 . S
C1014 C1015 1.334 . S
C1015 H992 0.950 . S
C1015 C1014 1.334 . S
C1015 C1016 1.287 . S
C1016 C1015 1.287 . S
C1016 C1017 1.524 . S
C1016 H1035 0.913 . S
C1017 H993 0.950 . S
C1017 C1016 1.524 . S
C1017 C1018 1.415 . S
C1018 H994 0.950 . S
C1018 C1013 1.363 . S
C1018 C1017 1.415 . S
C1019 H995 0.951 . S
C1019 C1020 1.366 . S
C1019 C1021 1.388 . S
C1020 C1019 1.366 . S
C1020 C1024 1.385 . S
C1021 H996 0.951 . S
C1021 C1019 1.388 . S
C1021 C1022 1.366 . S
C1022 C1021 1.366 . S
C1022 C1023 1.414 . S
C1022 C1025 1.499 . S
C1023 H997 0.950 . S
C1023 C1022 1.414 . S
C1023 C1024 1.374 . S
C1024 H998 0.950 . S
C1024 C1020 1.385 . S
C1024 C1023 1.374 . S
C1025 C1022 1.499 . S
C1025 C1026 1.373 . S
C1025 C1027 1.389 . S
C1026 H999 0.950 . S
C1026 C1012 1.377 . S
C1026 C1025 1.373 . S
C1027 C1011 1.377 . S
C1027 C1025 1.389 . S
C1027 C1028 1.524 . S
C1028 C1027 1.524 . S
C1028 C1029 1.397 . S
C1028 C1033 1.363 . S
C1029 H1000 0.950 . S
C1029 C1028 1.397 . S
C1029 C1030 1.334 . S
C1030 H1001 0.950 . S
C1030 C1029 1.334 . S
C1030 C1031 1.287 . S
C1031 C1030 1.287 . S
C1031 C1032 1.524 . S
C1031 H1034 0.999 . S
C1032 H1002 0.950 . S
C1032 C1031 1.524 . S
C1032 C1033 1.415 . S
C1033 H1003 0.950 . S
C1033 C1028 1.363 . S
C1033 C1032 1.415 . S
H1034 C1031 0.999 . S
H1035 C1016 0.913 . S
H1036 C1054 0.951 . S
H1037 C1056 0.951 . S
H1038 C1058 0.950 . S
H1039 C1059 0.950 . S
H1040 C1061 0.950 . S
H1041 C1064 0.950 . S
H1042 C1065 0.950 . S
H1043 C1067 0.950 . S
H1044 C1068 0.950 . S
H1045 C1069 0.951 . S
H1046 C1071 0.951 . S
H1047 C1073 0.950 . S
H1048 C1074 0.950 . S
H1049 C1076 0.950 . S
H1050 C1079 0.950 . S
H1051 C1080 0.950 . S
H1052 C1082 0.950 . S
H1053 C1083 0.950 . S
C1054 H1036 0.951 . S
C1054 C1055 1.366 . S
C1054 C1056 1.388 . S
C1055 C1054 1.366 . S
C1055 C1059 1.385 . S
C1056 H1037 0.951 . S
C1056 C1054 1.388 . S
C1056 C1057 1.366 . S
C1057 C1056 1.366 . S
C1057 C1058 1.414 . S
C1057 C1060 1.499 . S
C1058 H1038 0.950 . S
C1058 C1057 1.414 . S
C1058 C1059 1.374 . S
C1059 H1039 0.950 . S
C1059 C1055 1.385 . S
C1059 C1058 1.374 . S
C1060 C1057 1.499 . S
C1060 C1061 1.373 . S
C1060 C1062 1.389 . S
C1061 H1040 0.950 . S
C1061 C1060 1.373 . S
C1061 C1077 1.377 . S
C1062 C1060 1.389 . S
C1062 C1063 1.524 . S
C1062 C1076 1.377 . S
C1063 C1062 1.524 . S
C1063 C1064 1.397 . S
C1063 C1068 1.363 . S
C1064 H1041 0.950 . S
C1064 C1063 1.397 . S
C1064 C1065 1.334 . S
C1065 H1042 0.950 . S
C1065 C1064 1.334 . S
C1065 C1066 1.287 . S
C1066 C1065 1.287 . S
C1066 C1067 1.524 . S
C1066 H1085 0.913 . S
C1067 H1043 0.950 . S
C1067 C1066 1.524 . S
C1067 C1068 1.415 . S
C1068 H1044 0.950 . S
C1068 C1063 1.363 . S
C1068 C1067 1.415 . S
C1069 H1045 0.951 . S
C1069 C1070 1.366 . S
C1069 C1071 1.388 . S
C1070 C1069 1.366 . S
C1070 C1074 1.385 . S
C1071 H1046 0.951 . S
C1071 C1069 1.388 . S
C1071 C1072 1.366 . S
C1072 C1071 1.366 . S
C1072 C1073 1.414 . S
C1072 C1075 1.499 . S
C1073 H1047 0.950 . S
C1073 C1072 1.414 . S
C1073 C1074 1.374 . S
C1074 H1048 0.950 . S
C1074 C1070 1.385 . S
C1074 C1073 1.374 . S
C1075 C1072 1.499 . S
C1075 C1076 1.373 . S
C1075 C1077 1.389 . S
C1076 H1049 0.950 . S
C1076 C1062 1.377 . S
C1076 C1075 1.373 . S
C1077 C1061 1.377 . S
C1077 C1075 1.389 . S
C1077 C1078 1.524 . S
C1078 C1077 1.524 . S
C1078 C1079 1.397 . S
C1078 C1083 1.363 . S
C1079 H1050 0.950 . S
C1079 C1078 1.397 . S
C1079 C1080 1.334 . S
C1080 H1051 0.950 . S
C1080 C1079 1.334 . S
C1080 C1081 1.287 . S
C1081 C1080 1.287 . S
C1081 C1082 1.524 . S
C1081 H1084 0.999 . S
C1082 H1052 0.950 . S
C1082 C1081 1.524 . S
C1082 C1083 1.415 . S
C1083 H1053 0.950 . S
C1083 C1078 1.363 . S
C1083 C1082 1.415 . S
H1084 C1081 0.999 . S
H1085 C1066 0.913 . S
H1086 C1104 0.951 . S
H1087 C1106 0.951 . S
H1088 C1108 0.950 . S
H1089 C1109 0.950 . S
H1090 C1111 0.950 . S
H1091 C1114 0.950 . S
H1092 C1115 0.950 . S
H1093 C1117 0.950 . S
H1094 C1118 0.950 . S
H1095 C1119 0.951 . S
H1096 C1121 0.951 . S
H1097 C1123 0.950 . S
H1098 C1124 0.950 . S
H1099 C1126 0.950 . S
H1100 C1129 0.950 . S
H1101 C1130 0.950 . S
H1102 C1132 0.950 . S
H1103 C1133 0.950 . S
C1104 H1086 0.951 . S
C1104 C1105 1.366 . S
C1104 C1106 1.388 . S
C1105 C1104 1.366 . S
C1105 C1109 1.385 . S
C1106 H1087 0.951 . S
C1106 C1104 1.388 . S
C1106 C1107 1.366 . S
C1107 C1106 1.366 . S
C1107 C1108 1.414 . S
C1107 C1110 1.499 . S
C1108 H1088 0.950 . S
C1108 C1107 1.414 . S
C1108 C1109 1.374 . S
C1109 H1089 0.950 . S
C1109 C1105 1.385 . S
C1109 C1108 1.374 . S
C1110 C1107 1.499 . S
C1110 C1111 1.373 . S
C1110 C1112 1.389 . S
C1111 H1090 0.950 . S
C1111 C1110 1.373 . S
C1111 C1127 1.377 . S
C1112 C1110 1.389 . S
C1112 C1113 1.524 . S
C1112 C1126 1.377 . S
C1113 C1112 1.524 . S
C1113 C1114 1.397 . S
C1113 C1118 1.363 . S
C1114 H1091 0.950 . S
C1114 C1113 1.397 . S
C1114 C1115 1.334 . S
C1115 H1092 0.950 . S
C1115 C1114 1.334 . S
C1115 C1116 1.287 . S
C1116 C1115 1.287 . S
C1116 C1117 1.524 . S
C1116 H1135 0.913 . S
C1117 H1093 0.950 . S
C1117 C1116 1.524 . S
C1117 C1118 1.415 . S
C1118 H1094 0.950 . S
C1118 C1113 1.363 . S
C1118 C1117 1.415 . S
C1119 H1095 0.951 . S
C1119 C1120 1.366 . S
C1119 C1121 1.388 . S
C1120 C1119 1.366 . S
C1120 C1124 1.385 . S
C1121 H1096 0.951 . S
C1121 C1119 1.388 . S
C1121 C1122 1.366 . S
C1122 C1121 1.366 . S
C1122 C1123 1.414 . S
C1122 C1125 1.499 . S
C1123 H1097 0.950 . S
C1123 C1122 1.414 . S
C1123 C1124 1.374 . S
C1124 H1098 0.950 . S
C1124 C1120 1.385 . S
C1124 C1123 1.374 . S
C1125 C1122 1.499 . S
C1125 C1126 1.373 . S
C1125 C1127 1.389 . S
C1126 H1099 0.950 . S
C1126 C1112 1.377 . S
C1126 C1125 1.373 . S
C1127 C1111 1.377 . S
C1127 C1125 1.389 . S
C1127 C1128 1.524 . S
C1128 C1127 1.524 . S
C1128 C1129 1.397 . S
C1128 C1133 1.363 . S
C1129 H1100 0.950 . S
C1129 C1128 1.397 . S
C1129 C1130 1.334 . S
C1130 H1101 0.950 . S
C1130 C1129 1.334 . S
C1130 C1131 1.287 . S
C1131 C1130 1.287 . S
C1131 C1132 1.524 . S
C1131 H1134 0.999 . S
C1132 H1102 0.950 . S
C1132 C1131 1.524 . S
C1132 C1133 1.415 . S
C1133 H1103 0.950 . S
C1133 C1128 1.363 . S
C1133 C1132 1.415 . S
H1134 C1131 0.999 . S
H1135 C1116 0.913 . S
H1136 C1154 0.951 . S
H1137 C1156 0.951 . S
H1138 C1158 0.950 . S
H1139 C1159 0.950 . S
H1140 C1161 0.950 . S
H1141 C1164 0.950 . S
H1142 C1165 0.950 . S
H1143 C1167 0.950 . S
H1144 C1168 0.950 . S
H1145 C1169 0.951 . S
H1146 C1171 0.951 . S
H1147 C1173 0.950 . S
H1148 C1174 0.950 . S
H1149 C1176 0.950 . S
H1150 C1179 0.950 . S
H1151 C1180 0.950 . S
H1152 C1182 0.950 . S
H1153 C1183 0.950 . S
C1154 H1136 0.951 . S
C1154 C1155 1.366 . S
C1154 C1156 1.388 . S
C1155 C1154 1.366 . S
C1155 C1159 1.385 . S
C1156 H1137 0.951 . S
C1156 C1154 1.388 . S
C1156 C1157 1.366 . S
C1157 C1156 1.366 . S
C1157 C1158 1.414 . S
C1157 C1160 1.499 . S
C1158 H1138 0.950 . S
C1158 C1157 1.414 . S
C1158 C1159 1.374 . S
C1159 H1139 0.950 . S
C1159 C1155 1.385 . S
C1159 C1158 1.374 . S
C1160 C1157 1.499 . S
C1160 C1161 1.373 . S
C1160 C1162 1.389 . S
C1161 H1140 0.950 . S
C1161 C1160 1.373 . S
C1161 C1177 1.377 . S
C1162 C1160 1.389 . S
C1162 C1163 1.524 . S
C1162 C1176 1.377 . S
C1163 C1162 1.524 . S
C1163 C1164 1.397 . S
C1163 C1168 1.363 . S
C1164 H1141 0.950 . S
C1164 C1163 1.397 . S
C1164 C1165 1.334 . S
C1165 H1142 0.950 . S
C1165 C1164 1.334 . S
C1165 C1166 1.287 . S
C1166 C1165 1.287 . S
C1166 C1167 1.524 . S
C1166 H1185 0.913 . S
C1167 H1143 0.950 . S
C1167 C1166 1.524 . S
C1167 C1168 1.415 . S
C1168 H1144 0.950 . S
C1168 C1163 1.363 . S
C1168 C1167 1.415 . S
C1169 H1145 0.951 . S
C1169 C1170 1.366 . S
C1169 C1171 1.388 . S
C1170 C1169 1.366 . S
C1170 C1174 1.385 . S
C1171 H1146 0.951 . S
C1171 C1169 1.388 . S
C1171 C1172 1.366 . S
C1172 C1171 1.366 . S
C1172 C1173 1.414 . S
C1172 C1175 1.499 . S
C1173 H1147 0.950 . S
C1173 C1172 1.414 . S
C1173 C1174 1.374 . S
C1174 H1148 0.950 . S
C1174 C1170 1.385 . S
C1174 C1173 1.374 . S
C1175 C1172 1.499 . S
C1175 C1176 1.373 . S
C1175 C1177 1.389 . S
C1176 H1149 0.950 . S
C1176 C1162 1.377 . S
C1176 C1175 1.373 . S
C1177 C1161 1.377 . S
C1177 C1175 1.389 . S
C1177 C1178 1.524 . S
C1178 C1177 1.524 . S
C1178 C1179 1.397 . S
C1178 C1183 1.363 . S
C1179 H1150 0.950 . S
C1179 C1178 1.397 . S
C1179 C1180 1.334 . S
C1180 H1151 0.950 . S
C1180 C1179 1.334 . S
C1180 C1181 1.287 . S
C1181 C1180 1.287 . S
C1181 C1182 1.524 . S
C1181 H1184 0.999 . S
C1182 H1152 0.950 . S
C1182 C1181 1.524 . S
C1182 C1183 1.415 . S
C1183 H1153 0.950 . S
C1183 C1178 1.363 . S
C1183 C1182 1.415 . S
H1184 C1181 0.999 . S
H1185 C1166 0.913 . S
H1186 C1204 0.951 . S
H1187 C1206 0.951 . S
H1188 C1208 0.950 . S
H1189 C1209 0.950 . S
H1190 C1211 0.950 . S
H1191 C1214 0.950 . S
H1192 C1215 0.950 . S
H1193 C1217 0.950 . S
H1194 C1218 0.950 . S
H1195 C1219 0.951 . S
H1196 C1221 0.951 . S
H1197 C1223 0.950 . S
H1198 C1224 0.950 . S
H1199 C1226 0.950 . S
H1200 C1229 0.950 . S
H1201 C1230 0.950 . S
H1202 C1232 0.950 . S
H1203 C1233 0.950 . S
C1204 H1186 0.951 . S
C1204 C1205 1.366 . S
C1204 C1206 1.388 . S
C1205 C1204 1.366 . S
C1205 C1209 1.385 . S
C1206 H1187 0.951 . S
C1206 C1204 1.388 . S
C1206 C1207 1.366 . S
C1207 C1206 1.366 . S
C1207 C1208 1.414 . S
C1207 C1210 1.499 . S
C1208 H1188 0.950 . S
C1208 C1207 1.414 . S
C1208 C1209 1.374 . S
C1209 H1189 0.950 . S
C1209 C1205 1.385 . S
C1209 C1208 1.374 . S
C1210 C1207 1.499 . S
C1210 C1211 1.373 . S
C1210 C1212 1.389 . S
C1211 H1190 0.950 . S
C1211 C1210 1.373 . S
C1211 C1227 1.377 . S
C1212 C1210 1.389 . S
C1212 C1213 1.524 . S
C1212 C1226 1.377 . S
C1213 C1212 1.524 . S
C1213 C1214 1.397 . S
C1213 C1218 1.363 . S
C1214 H1191 0.950 . S
C1214 C1213 1.397 . S
C1214 C1215 1.334 . S
C1215 H1192 0.950 . S
C1215 C1214 1.334 . S
C1215 C1216 1.287 . S
C1216 C1215 1.287 . S
C1216 C1217 1.524 . S
C1216 H1235 0.913 . S
C1217 H1193 0.950 . S
C1217 C1216 1.524 . S
C1217 C1218 1.415 . S
C1218 H1194 0.950 . S
C1218 C1213 1.363 . S
C1218 C1217 1.415 . S
C1219 H1195 0.951 . S
C1219 C1220 1.366 . S
C1219 C1221 1.388 . S
C1220 C1219 1.366 . S
C1220 C1224 1.385 . S
C1221 H1196 0.951 . S
C1221 C1219 1.388 . S
C1221 C1222 1.366 . S
C1222 C1221 1.366 . S
C1222 C1223 1.414 . S
C1222 C1225 1.499 . S
C1223 H1197 0.950 . S
C1223 C1222 1.414 . S
C1223 C1224 1.374 . S
C1224 H1198 0.950 . S
C1224 C1220 1.385 . S
C1224 C1223 1.374 . S
C1225 C1222 1.499 . S
C1225 C1226 1.373 . S
C1225 C1227 1.389 . S
C1226 H1199 0.950 . S
C1226 C1212 1.377 . S
C1226 C1225 1.373 . S
C1227 C1211 1.377 . S
C1227 C1225 1.389 . S
C1227 C1228 1.524 . S
C1228 C1227 1.524 . S
C1228 C1229 1.397 . S
C1228 C1233 1.363 . S
C1229 H1200 0.950 . S
C1229 C1228 1.397 . S
C1229 C1230 1.334 . S
C1230 H1201 0.950 . S
C1230 C1229 1.334 . S
C1230 C1231 1.287 . S
C1231 C1230 1.287 . S
C1231 C1232 1.524 . S
C1231 H1234 0.999 . S
C1232 H1202 0.950 . S
C1232 C1231 1.524 . S
C1232 C1233 1.415 . S
C1233 H1203 0.950 . S
C1233 C1228 1.363 . S
C1233 C1232 1.415 . S
H1234 C1231 0.999 . S
H1235 C1216 0.913 . S
H1236 C1254 0.951 . S
H1237 C1256 0.951 . S
H1238 C1258 0.950 . S
H1239 C1259 0.950 . S
H1240 C1261 0.950 . S
H1241 C1264 0.950 . S
H1242 C1265 0.950 . S
H1243 C1267 0.950 . S
H1244 C1268 0.950 . S
H1245 C1269 0.951 . S
H1246 C1271 0.951 . S
H1247 C1273 0.950 . S
H1248 C1274 0.950 . S
H1249 C1276 0.950 . S
H1250 C1279 0.950 . S
H1251 C1280 0.950 . S
H1252 C1282 0.950 . S
H1253 C1283 0.950 . S
C1254 H1236 0.951 . S
C1254 C1255 1.366 . S
C1254 C1256 1.388 . S
C1255 C1254 1.366 . S
C1255 C1259 1.385 . S
C1256 H1237 0.951 . S
C1256 C1254 1.388 . S
C1256 C1257 1.366 . S
C1257 C1256 1.366 . S
C1257 C1258 1.414 . S
C1257 C1260 1.499 . S
C1258 H1238 0.950 . S
C1258 C1257 1.414 . S
C1258 C1259 1.374 . S
C1259 H1239 0.950 . S
C1259 C1255 1.385 . S
C1259 C1258 1.374 . S
C1260 C1257 1.499 . S
C1260 C1261 1.373 . S
C1260 C1262 1.389 . S
C1261 H1240 0.950 . S
C1261 C1260 1.373 . S
C1261 C1277 1.377 . S
C1262 C1260 1.389 . S
C1262 C1263 1.524 . S
C1262 C1276 1.377 . S
C1263 C1262 1.524 . S
C1263 C1264 1.397 . S
C1263 C1268 1.363 . S
C1264 H1241 0.950 . S
C1264 C1263 1.397 . S
C1264 C1265 1.334 . S
C1265 H1242 0.950 . S
C1265 C1264 1.334 . S
C1265 C1266 1.287 . S
C1266 C1265 1.287 . S
C1266 C1267 1.524 . S
C1266 H1285 0.913 . S
C1267 H1243 0.950 . S
C1267 C1266 1.524 . S
C1267 C1268 1.415 . S
C1268 H1244 0.950 . S
C1268 C1263 1.363 . S
C1268 C1267 1.415 . S
C1269 H1245 0.951 . S
C1269 C1270 1.366 . S
C1269 C1271 1.388 . S
C1270 C1269 1.366 . S
C1270 C1274 1.385 . S
C1271 H1246 0.951 . S
C1271 C1269 1.388 . S
C1271 C1272 1.366 . S
C1272 C1271 1.366 . S
C1272 C1273 1.414 . S
C1272 C1275 1.499 . S
C1273 H1247 0.950 . S
C1273 C1272 1.414 . S
C1273 C1274 1.374 . S
C1274 H1248 0.950 . S
C1274 C1270 1.385 . S
C1274 C1273 1.374 . S
C1275 C1272 1.499 . S
C1275 C1276 1.373 . S
C1275 C1277 1.389 . S
C1276 H1249 0.950 . S
C1276 C1262 1.377 . S
C1276 C1275 1.373 . S
C1277 C1261 1.377 . S
C1277 C1275 1.389 . S
C1277 C1278 1.524 . S
C1278 C1277 1.524 . S
C1278 C1279 1.397 . S
C1278 C1283 1.363 . S
C1279 H1250 0.950 . S
C1279 C1278 1.397 . S
C1279 C1280 1.334 . S
C1280 H1251 0.950 . S
C1280 C1279 1.334 . S
C1280 C1281 1.287 . S
C1281 C1280 1.287 . S
C1281 C1282 1.524 . S
C1281 H1284 0.999 . S
C1282 H1252 0.950 . S
C1282 C1281 1.524 . S
C1282 C1283 1.415 . S
C1283 H1253 0.950 . S
C1283 C1278 1.363 . S
C1283 C1282 1.415 . S
H1284 C1281 0.999 . S
H1285 C1266 0.913 . S
H1286 C1304 0.951 . S
H1287 C1306 0.951 . S
H1288 C1308 0.950 . S
H1289 C1309 0.950 . S
H1290 C1311 0.950 . S
H1291 C1314 0.950 . S
H1292 C1315 0.950 . S
H1293 C1317 0.950 . S
H1294 C1318 0.950 . S
H1295 C1319 0.951 . S
H1296 C1321 0.951 . S
H1297 C1323 0.950 . S
H1298 C1324 0.950 . S
H1299 C1326 0.950 . S
H1300 C1329 0.950 . S
H1301 C1330 0.950 . S
H1302 C1332 0.950 . S
H1303 C1333 0.950 . S
C1304 H1286 0.951 . S
C1304 C1305 1.366 . S
C1304 C1306 1.388 . S
C1305 C1304 1.366 . S
C1305 C1309 1.385 . S
C1306 H1287 0.951 . S
C1306 C1304 1.388 . S
C1306 C1307 1.366 . S
C1307 C1306 1.366 . S
C1307 C1308 1.414 . S
C1307 C1310 1.499 . S
C1308 H1288 0.950 . S
C1308 C1307 1.414 . S
C1308 C1309 1.374 . S
C1309 H1289 0.950 . S
C1309 C1305 1.385 . S
C1309 C1308 1.374 . S
C1310 C1307 1.499 . S
C1310 C1311 1.373 . S
C1310 C1312 1.389 . S
C1311 H1290 0.950 . S
C1311 C1310 1.373 . S
C1311 C1327 1.377 . S
C1312 C1310 1.389 . S
C1312 C1313 1.524 . S
C1312 C1326 1.377 . S
C1313 C1312 1.524 . S
C1313 C1314 1.397 . S
C1313 C1318 1.363 . S
C1314 H1291 0.950 . S
C1314 C1313 1.397 . S
C1314 C1315 1.334 . S
C1315 H1292 0.950 . S
C1315 C1314 1.334 . S
C1315 C1316 1.287 . S
C1316 C1315 1.287 . S
C1316 C1317 1.524 . S
C1316 H1335 0.913 . S
C1317 H1293 0.950 . S
C1317 C1316 1.524 . S
C1317 C1318 1.415 . S
C1318 H1294 0.950 . S
C1318 C1313 1.363 . S
C1318 C1317 1.415 . S
C1319 H1295 0.951 . S
C1319 C1320 1.366 . S
C1319 C1321 1.388 . S
C1320 C1319 1.366 . S
C1320 C1324 1.385 . S
C1321 H1296 0.951 . S
C1321 C1319 1.388 . S
C1321 C1322 1.366 . S
C1322 C1321 1.366 . S
C1322 C1323 1.414 . S
C1322 C1325 1.499 . S
C1323 H1297 0.950 . S
C1323 C1322 1.414 . S
C1323 C1324 1.374 . S
C1324 H1298 0.950 . S
C1324 C1320 1.385 . S
C1324 C1323 1.374 . S
C1325 C1322 1.499 . S
C1325 C1326 1.373 . S
C1325 C1327 1.389 . S
C1326 H1299 0.950 . S
C1326 C1312 1.377 . S
C1326 C1325 1.373 . S
C1327 C1311 1.377 . S
C1327 C1325 1.389 . S
C1327 C1328 1.524 . S
C1328 C1327 1.524 . S
C1328 C1329 1.397 . S
C1328 C1333 1.363 . S
C1329 H1300 0.950 . S
C1329 C1328 1.397 . S
C1329 C1330 1.334 . S
C1330 H1301 0.950 . S
C1330 C1329 1.334 . S
C1330 C1331 1.287 . S
C1331 C1330 1.287 . S
C1331 C1332 1.524 . S
C1331 H1334 0.999 . S
C1332 H1302 0.950 . S
C1332 C1331 1.524 . S
C1332 C1333 1.415 . S
C1333 H1303 0.950 . S
C1333 C1328 1.363 . S
C1333 C1332 1.415 . S
H1334 C1331 0.999 . S
H1335 C1316 0.913 . S
H1336 C1354 0.951 . S
H1337 C1356 0.951 . S
H1338 C1358 0.950 . S
H1339 C1359 0.950 . S
H1340 C1361 0.950 . S
H1341 C1364 0.950 . S
H1342 C1365 0.950 . S
H1343 C1367 0.950 . S
H1344 C1368 0.950 . S
H1345 C1369 0.951 . S
H1346 C1371 0.951 . S
H1347 C1373 0.950 . S
H1348 C1374 0.950 . S
H1349 C1376 0.950 . S
H1350 C1379 0.950 . S
H1351 C1380 0.950 . S
H1352 C1382 0.950 . S
H1353 C1383 0.950 . S
C1354 H1336 0.951 . S
C1354 C1355 1.366 . S
C1354 C1356 1.388 . S
C1355 C1354 1.366 . S
C1355 C1359 1.385 . S
C1356 H1337 0.951 . S
C1356 C1354 1.388 . S
C1356 C1357 1.366 . S
C1357 C1356 1.366 . S
C1357 C1358 1.414 . S
C1357 C1360 1.499 . S
C1358 H1338 0.950 . S
C1358 C1357 1.414 . S
C1358 C1359 1.374 . S
C1359 H1339 0.950 . S
C1359 C1355 1.385 . S
C1359 C1358 1.374 . S
C1360 C1357 1.499 . S
C1360 C1361 1.373 . S
C1360 C1362 1.389 . S
C1361 H1340 0.950 . S
C1361 C1360 1.373 . S
C1361 C1377 1.377 . S
C1362 C1360 1.389 . S
C1362 C1363 1.524 . S
C1362 C1376 1.377 . S
C1363 C1362 1.524 . S
C1363 C1364 1.397 . S
C1363 C1368 1.363 . S
C1364 H1341 0.950 . S
C1364 C1363 1.397 . S
C1364 C1365 1.334 . S
C1365 H1342 0.950 . S
C1365 C1364 1.334 . S
C1365 C1366 1.287 . S
C1366 C1365 1.287 . S
C1366 C1367 1.524 . S
C1366 H1385 0.913 . S
C1367 H1343 0.950 . S
C1367 C1366 1.524 . S
C1367 C1368 1.415 . S
C1368 H1344 0.950 . S
C1368 C1363 1.363 . S
C1368 C1367 1.415 . S
C1369 H1345 0.951 . S
C1369 C1370 1.366 . S
C1369 C1371 1.388 . S
C1370 C1369 1.366 . S
C1370 C1374 1.385 . S
C1371 H1346 0.951 . S
C1371 C1369 1.388 . S
C1371 C1372 1.366 . S
C1372 C1371 1.366 . S
C1372 C1373 1.414 . S
C1372 C1375 1.499 . S
C1373 H1347 0.950 . S
C1373 C1372 1.414 . S
C1373 C1374 1.374 . S
C1374 H1348 0.950 . S
C1374 C1370 1.385 . S
C1374 C1373 1.374 . S
C1375 C1372 1.499 . S
C1375 C1376 1.373 . S
C1375 C1377 1.389 . S
C1376 H1349 0.950 . S
C1376 C1362 1.377 . S
C1376 C1375 1.373 . S
C1377 C1361 1.377 . S
C1377 C1375 1.389 . S
C1377 C1378 1.524 . S
C1378 C1377 1.524 . S
C1378 C1379 1.397 . S
C1378 C1383 1.363 . S
C1379 H1350 0.950 . S
C1379 C1378 1.397 . S
C1379 C1380 1.334 . S
C1380 H1351 0.950 . S
C1380 C1379 1.334 . S
C1380 C1381 1.287 . S
C1381 C1380 1.287 . S
C1381 C1382 1.524 . S
C1381 H1384 0.999 . S
C1382 H1352 0.950 . S
C1382 C1381 1.524 . S
C1382 C1383 1.415 . S
C1383 H1353 0.950 . S
C1383 C1378 1.363 . S
C1383 C1382 1.415 . S
H1384 C1381 0.999 . S
H1385 C1366 0.913 . S
H1386 C1404 0.951 . S
H1387 C1406 0.951 . S
H1388 C1408 0.950 . S
H1389 C1409 0.950 . S
H1390 C1411 0.950 . S
H1391 C1414 0.950 . S
H1392 C1415 0.950 . S
H1393 C1417 0.950 . S
H1394 C1418 0.950 . S
H1395 C1419 0.951 . S
H1396 C1421 0.951 . S
H1397 C1423 0.950 . S
H1398 C1424 0.950 . S
H1399 C1426 0.950 . S
H1400 C1429 0.950 . S
H1401 C1430 0.950 . S
H1402 C1432 0.950 . S
H1403 C1433 0.950 . S
C1404 H1386 0.951 . S
C1404 C1405 1.366 . S
C1404 C1406 1.388 . S
C1405 C1404 1.366 . S
C1405 C1409 1.385 . S
C1406 H1387 0.951 . S
C1406 C1404 1.388 . S
C1406 C1407 1.366 . S
C1407 C1406 1.366 . S
C1407 C1408 1.414 . S
C1407 C1410 1.499 . S
C1408 H1388 0.950 . S
C1408 C1407 1.414 . S
C1408 C1409 1.374 . S
C1409 H1389 0.950 . S
C1409 C1405 1.385 . S
C1409 C1408 1.374 . S
C1410 C1407 1.499 . S
C1410 C1411 1.373 . S
C1410 C1412 1.389 . S
C1411 H1390 0.950 . S
C1411 C1410 1.373 . S
C1411 C1427 1.377 . S
C1412 C1410 1.389 . S
C1412 C1413 1.524 . S
C1412 C1426 1.377 . S
C1413 C1412 1.524 . S
C1413 C1414 1.397 . S
C1413 C1418 1.363 . S
C1414 H1391 0.950 . S
C1414 C1413 1.397 . S
C1414 C1415 1.334 . S
C1415 H1392 0.950 . S
C1415 C1414 1.334 . S
C1415 C1416 1.287 . S
C1416 C1415 1.287 . S
C1416 C1417 1.524 . S
C1416 H1435 0.913 . S
C1417 H1393 0.950 . S
C1417 C1416 1.524 . S
C1417 C1418 1.415 . S
C1418 H1394 0.950 . S
C1418 C1413 1.363 . S
C1418 C1417 1.415 . S
C1419 H1395 0.951 . S
C1419 C1420 1.366 . S
C1419 C1421 1.388 . S
C1420 C1419 1.366 . S
C1420 C1424 1.385 . S
C1421 H1396 0.951 . S
C1421 C1419 1.388 . S
C1421 C1422 1.366 . S
C1422 C1421 1.366 . S
C1422 C1423 1.414 . S
C1422 C1425 1.499 . S
C1423 H1397 0.950 . S
C1423 C1422 1.414 . S
C1423 C1424 1.374 . S
C1424 H1398 0.950 . S
C1424 C1420 1.385 . S
C1424 C1423 1.374 . S
C1425 C1422 1.499 . S
C1425 C1426 1.373 . S
C1425 C1427 1.389 . S
C1426 H1399 0.950 . S
C1426 C1412 1.377 . S
C1426 C1425 1.373 . S
C1427 C1411 1.377 . S
C1427 C1425 1.389 . S
C1427 C1428 1.524 . S
C1428 C1427 1.524 . S
C1428 C1429 1.397 . S
C1428 C1433 1.363 . S
C1429 H1400 0.950 . S
C1429 C1428 1.397 . S
C1429 C1430 1.334 . S
C1430 H1401 0.950 . S
C1430 C1429 1.334 . S
C1430 C1431 1.287 . S
C1431 C1430 1.287 . S
C1431 C1432 1.524 . S
C1431 H1434 0.999 . S
C1432 H1402 0.950 . S
C1432 C1431 1.524 . S
C1432 C1433 1.415 . S
C1433 H1403 0.950 . S
C1433 C1428 1.363 . S
C1433 C1432 1.415 . S
H1434 C1431 0.999 . S
H1435 C1416 0.913 . S
H1436 C1454 0.951 . S
H1437 C1456 0.951 . S
H1438 C1458 0.950 . S
H1439 C1459 0.950 . S
H1440 C1461 0.950 . S
H1441 C1464 0.950 . S
H1442 C1465 0.950 . S
H1443 C1467 0.950 . S
H1444 C1468 0.950 . S
H1445 C1469 0.951 . S
H1446 C1471 0.951 . S
H1447 C1473 0.950 . S
H1448 C1474 0.950 . S
H1449 C1476 0.950 . S
H1450 C1479 0.950 . S
H1451 C1480 0.950 . S
H1452 C1482 0.950 . S
H1453 C1483 0.950 . S
C1454 H1436 0.951 . S
C1454 C1455 1.366 . S
C1454 C1456 1.388 . S
C1455 C1454 1.366 . S
C1455 C1459 1.385 . S
C1456 H1437 0.951 . S
C1456 C1454 1.388 . S
C1456 C1457 1.366 . S
C1457 C1456 1.366 . S
C1457 C1458 1.414 . S
C1457 C1460 1.499 . S
C1458 H1438 0.950 . S
C1458 C1457 1.414 . S
C1458 C1459 1.374 . S
C1459 H1439 0.950 . S
C1459 C1455 1.385 . S
C1459 C1458 1.374 . S
C1460 C1457 1.499 . S
C1460 C1461 1.373 . S
C1460 C1462 1.389 . S
C1461 H1440 0.950 . S
C1461 C1460 1.373 . S
C1461 C1477 1.377 . S
C1462 C1460 1.389 . S
C1462 C1463 1.524 . S
C1462 C1476 1.377 . S
C1463 C1462 1.524 . S
C1463 C1464 1.397 . S
C1463 C1468 1.363 . S
C1464 H1441 0.950 . S
C1464 C1463 1.397 . S
C1464 C1465 1.334 . S
C1465 H1442 0.950 . S
C1465 C1464 1.334 . S
C1465 C1466 1.287 . S
C1466 C1465 1.287 . S
C1466 C1467 1.524 . S
C1466 H1485 0.913 . S
C1467 H1443 0.950 . S
C1467 C1466 1.524 . S
C1467 C1468 1.415 . S
C1468 H1444 0.950 . S
C1468 C1463 1.363 . S
C1468 C1467 1.415 . S
C1469 H1445 0.951 . S
C1469 C1470 1.366 . S
C1469 C1471 1.388 . S
C1470 C1469 1.366 . S
C1470 C1474 1.385 . S
C1471 H1446 0.951 . S
C1471 C1469 1.388 . S
C1471 C1472 1.366 . S
C1472 C1471 1.366 . S
C1472 C1473 1.414 . S
C1472 C1475 1.499 . S
C1473 H1447 0.950 . S
C1473 C1472 1.414 . S
C1473 C1474 1.374 . S
C1474 H1448 0.950 . S
C1474 C1470 1.385 . S
C1474 C1473 1.374 . S
C1475 C1472 1.499 . S
C1475 C1476 1.373 . S
C1475 C1477 1.389 . S
C1476 H1449 0.950 . S
C1476 C1462 1.377 . S
C1476 C1475 1.373 . S
C1477 C1461 1.377 . S
C1477 C1475 1.389 . S
C1477 C1478 1.524 . S
C1478 C1477 1.524 . S
C1478 C1479 1.397 . S
C1478 C1483 1.363 . S
C1479 H1450 0.950 . S
C1479 C1478 1.397 . S
C1479 C1480 1.334 . S
C1480 H1451 0.950 . S
C1480 C1479 1.334 . S
C1480 C1481 1.287 . S
C1481 C1480 1.287 . S
C1481 C1482 1.524 . S
C1481 H1484 0.999 . S
C1482 H1452 0.950 . S
C1482 C1481 1.524 . S
C1482 C1483 1.415 . S
C1483 H1453 0.950 . S
C1483 C1478 1.363 . S
C1483 C1482 1.415 . S
H1484 C1481 0.999 . S
H1485 C1466 0.913 . S
H1486 C1504 0.951 . S
H1487 C1506 0.951 . S
H1488 C1508 0.950 . S
H1489 C1509 0.950 . S
H1490 C1511 0.950 . S
H1491 C1514 0.950 . S
H1492 C1515 0.950 . S
H1493 C1517 0.950 . S
H1494 C1518 0.950 . S
H1495 C1519 0.951 . S
H1496 C1521 0.951 . S
H1497 C1523 0.950 . S
H1498 C1524 0.950 . S
H1499 C1526 0.950 . S
H1500 C1529 0.950 . S
H1501 C1530 0.950 . S
H1502 C1532 0.950 . S
H1503 C1533 0.950 . S
C1504 H1486 0.951 . S
C1504 C1505 1.366 . S
C1504 C1506 1.388 . S
C1505 C1504 1.366 . S
C1505 C1509 1.385 . S
C1506 H1487 0.951 . S
C1506 C1504 1.388 . S
C1506 C1507 1.366 . S
C1507 C1506 1.366 . S
C1507 C1508 1.414 . S
C1507 C1510 1.499 . S
C1508 H1488 0.950 . S
C1508 C1507 1.414 . S
C1508 C1509 1.374 . S
C1509 H1489 0.950 . S
C1509 C1505 1.385 . S
C1509 C1508 1.374 . S
C1510 C1507 1.499 . S
C1510 C1511 1.373 . S
C1510 C1512 1.389 . S
C1511 H1490 0.950 . S
C1511 C1510 1.373 . S
C1511 C1527 1.377 . S
C1512 C1510 1.389 . S
C1512 C1513 1.524 . S
C1512 C1526 1.377 . S
C1513 C1512 1.524 . S
C1513 C1514 1.397 . S
C1513 C1518 1.363 . S
C1514 H1491 0.950 . S
C1514 C1513 1.397 . S
C1514 C1515 1.334 . S
C1515 H1492 0.950 . S
C1515 C1514 1.334 . S
C1515 C1516 1.287 . S
C1516 C1515 1.287 . S
C1516 C1517 1.524 . S
C1516 H1535 0.913 . S
C1517 H1493 0.950 . S
C1517 C1516 1.524 . S
C1517 C1518 1.415 . S
C1518 H1494 0.950 . S
C1518 C1513 1.363 . S
C1518 C1517 1.415 . S
C1519 H1495 0.951 . S
C1519 C1520 1.366 . S
C1519 C1521 1.388 . S
C1520 C1519 1.366 . S
C1520 C1524 1.385 . S
C1521 H1496 0.951 . S
C1521 C1519 1.388 . S
C1521 C1522 1.366 . S
C1522 C1521 1.366 . S
C1522 C1523 1.414 . S
C1522 C1525 1.499 . S
C1523 H1497 0.950 . S
C1523 C1522 1.414 . S
C1523 C1524 1.374 . S
C1524 H1498 0.950 . S
C1524 C1520 1.385 . S
C1524 C1523 1.374 . S
C1525 C1522 1.499 . S
C1525 C1526 1.373 . S
C1525 C1527 1.389 . S
C1526 H1499 0.950 . S
C1526 C1512 1.377 . S
C1526 C1525 1.373 . S
C1527 C1511 1.377 . S
C1527 C1525 1.389 . S
C1527 C1528 1.524 . S
C1528 C1527 1.524 . S
C1528 C1529 1.397 . S
C1528 C1533 1.363 . S
C1529 H1500 0.950 . S
C1529 C1528 1.397 . S
C1529 C1530 1.334 . S
C1530 H1501 0.950 . S
C1530 C1529 1.334 . S
C1530 C1531 1.287 . S
C1531 C1530 1.287 . S
C1531 C1532 1.524 . S
C1531 H1534 0.999 . S
C1532 H1502 0.950 . S
C1532 C1531 1.524 . S
C1532 C1533 1.415 . S
C1533 H1503 0.950 . S
C1533 C1528 1.363 . S
C1533 C1532 1.415 . S
H1534 C1531 0.999 . S
H1535 C1516 0.913 . S
H1536 C1554 0.951 . S
H1537 C1556 0.951 . S
H1538 C1558 0.950 . S
H1539 C1559 0.950 . S
H1540 C1561 0.950 . S
H1541 C1564 0.950 . S
H1542 C1565 0.950 . S
H1543 C1567 0.950 . S
H1544 C1568 0.950 . S
H1545 C1569 0.951 . S
H1546 C1571 0.951 . S
H1547 C1573 0.950 . S
H1548 C1574 0.950 . S
H1549 C1576 0.950 . S
H1550 C1579 0.950 . S
H1551 C1580 0.950 . S
H1552 C1582 0.950 . S
H1553 C1583 0.950 . S
C1554 H1536 0.951 . S
C1554 C1555 1.366 . S
C1554 C1556 1.388 . S
C1555 C1554 1.366 . S
C1555 C1559 1.385 . S
C1556 H1537 0.951 . S
C1556 C1554 1.388 . S
C1556 C1557 1.366 . S
C1557 C1556 1.366 . S
C1557 C1558 1.414 . S
C1557 C1560 1.499 . S
C1558 H1538 0.950 . S
C1558 C1557 1.414 . S
C1558 C1559 1.374 . S
C1559 H1539 0.950 . S
C1559 C1555 1.385 . S
C1559 C1558 1.374 . S
C1560 C1557 1.499 . S
C1560 C1561 1.373 . S
C1560 C1562 1.389 . S
C1561 H1540 0.950 . S
C1561 C1560 1.373 . S
C1561 C1577 1.377 1_554 S
C1562 C1560 1.389 . S
C1562 C1563 1.524 . S
C1562 C1576 1.377 1_554 S
C1563 C1562 1.524 . S
C1563 C1564 1.397 . S
C1563 C1568 1.363 . S
C1564 H1541 0.950 . S
C1564 C1563 1.397 . S
C1564 C1565 1.334 . S
C1565 H1542 0.950 . S
C1565 C1564 1.334 . S
C1565 C1566 1.287 . S
C1566 C1565 1.287 . S
C1566 C1567 1.524 . S
C1566 H1585 0.913 . S
C1567 H1543 0.950 . S
C1567 C1566 1.524 . S
C1567 C1568 1.415 . S
C1568 H1544 0.950 . S
C1568 C1563 1.363 . S
C1568 C1567 1.415 . S
C1569 H1545 0.951 . S
C1569 C1570 1.366 . S
C1569 C1571 1.388 . S
C1570 C1569 1.366 . S
C1570 C1574 1.385 . S
C1571 H1546 0.951 . S
C1571 C1569 1.388 . S
C1571 C1572 1.366 . S
C1572 C1571 1.366 . S
C1572 C1573 1.414 . S
C1572 C1575 1.499 . S
C1573 H1547 0.950 . S
C1573 C1572 1.414 . S
C1573 C1574 1.374 . S
C1574 H1548 0.950 . S
C1574 C1570 1.385 . S
C1574 C1573 1.374 . S
C1575 C1572 1.499 . S
C1575 C1576 1.373 . S
C1575 C1577 1.389 . S
C1576 H1549 0.950 . S
C1576 C1562 1.377 1_556 S
C1576 C1575 1.373 . S
C1577 C1561 1.377 1_556 S
C1577 C1575 1.389 . S
C1577 C1578 1.524 . S
C1578 C1577 1.524 . S
C1578 C1579 1.397 . S
C1578 C1583 1.363 . S
C1579 H1550 0.950 . S
C1579 C1578 1.397 . S
C1579 C1580 1.334 . S
C1580 H1551 0.950 . S
C1580 C1579 1.334 . S
C1580 C1581 1.287 . S
C1581 C1580 1.287 . S
C1581 C1582 1.524 . S
C1581 H1584 0.999 . S
C1582 H1552 0.950 . S
C1582 C1581 1.524 . S
C1582 C1583 1.415 . S
C1583 H1553 0.950 . S
C1583 C1578 1.363 . S
C1583 C1582 1.415 . S
H1584 C1581 0.999 . S
H1585 C1566 0.913 . S
H1586 C1604 0.951 . S
H1587 C1606 0.951 . S
H1588 C1608 0.950 . S
H1589 C1609 0.950 . S
H1590 C1611 0.950 . S
H1591 C1614 0.950 . S
H1592 C1615 0.950 . S
H1593 C1617 0.950 . S
H1594 C1618 0.950 . S
H1595 C1619 0.951 . S
H1596 C1621 0.951 . S
H1597 C1623 0.950 . S
H1598 C1624 0.950 . S
H1599 C1626 0.950 . S
H1600 C1629 0.950 . S
H1601 C1630 0.950 . S
H1602 C1632 0.950 . S
H1603 C1633 0.950 . S
C1604 H1586 0.951 . S
C1604 C1605 1.366 . S
C1604 C1606 1.388 . S
C1605 C1604 1.366 . S
C1605 C1609 1.385 . S
C1606 H1587 0.951 . S
C1606 C1604 1.388 . S
C1606 C1607 1.366 . S
C1607 C1606 1.366 . S
C1607 C1608 1.414 . S
C1607 C1610 1.499 . S
C1608 H1588 0.950 . S
C1608 C1607 1.414 . S
C1608 C1609 1.374 . S
C1609 H1589 0.950 . S
C1609 C1605 1.385 . S
C1609 C1608 1.374 . S
C1610 C1607 1.499 . S
C1610 C1611 1.373 . S
C1610 C1612 1.389 . S
C1611 H1590 0.950 . S
C1611 C1610 1.373 . S
C1611 C1627 1.377 1_556 S
C1612 C1610 1.389 . S
C1612 C1613 1.524 . S
C1612 C1626 1.377 1_556 S
C1613 C1612 1.524 . S
C1613 C1614 1.397 . S
C1613 C1618 1.363 . S
C1614 H1591 0.950 . S
C1614 C1613 1.397 . S
C1614 C1615 1.334 . S
C1615 H1592 0.950 . S
C1615 C1614 1.334 . S
C1615 C1616 1.287 . S
C1616 C1615 1.287 . S
C1616 C1617 1.524 . S
C1616 H1635 0.913 . S
C1617 H1593 0.950 . S
C1617 C1616 1.524 . S
C1617 C1618 1.415 . S
C1618 H1594 0.950 . S
C1618 C1613 1.363 . S
C1618 C1617 1.415 . S
C1619 H1595 0.951 . S
C1619 C1620 1.366 . S
C1619 C1621 1.388 . S
C1620 C1619 1.366 . S
C1620 C1624 1.385 . S
C1621 H1596 0.951 . S
C1621 C1619 1.388 . S
C1621 C1622 1.366 . S
C1622 C1621 1.366 . S
C1622 C1623 1.414 . S
C1622 C1625 1.499 . S
C1623 H1597 0.950 . S
C1623 C1622 1.414 . S
C1623 C1624 1.374 . S
C1624 H1598 0.950 . S
C1624 C1620 1.385 . S
C1624 C1623 1.374 . S
C1625 C1622 1.499 . S
C1625 C1626 1.373 . S
C1625 C1627 1.389 . S
C1626 H1599 0.950 . S
C1626 C1612 1.377 1_554 S
C1626 C1625 1.373 . S
C1627 C1611 1.377 1_554 S
C1627 C1625 1.389 . S
C1627 C1628 1.524 . S
C1628 C1627 1.524 . S
C1628 C1629 1.397 . S
C1628 C1633 1.363 . S
C1629 H1600 0.950 . S
C1629 C1628 1.397 . S
C1629 C1630 1.334 . S
C1630 H1601 0.950 . S
C1630 C1629 1.334 . S
C1630 C1631 1.287 . S
C1631 C1630 1.287 . S
C1631 C1632 1.524 . S
C1631 H1634 0.999 . S
C1632 H1602 0.950 . S
C1632 C1631 1.524 . S
C1632 C1633 1.415 . S
C1633 H1603 0.950 . S
C1633 C1628 1.363 . S
C1633 C1632 1.415 . S
H1634 C1631 0.999 . S
H1635 C1616 0.913 . S
H1636 C1654 0.951 . S
H1637 C1656 0.951 . S
H1638 C1658 0.950 . S
H1639 C1659 0.950 . S
H1640 C1661 0.950 . S
H1641 C1664 0.950 . S
H1642 C1665 0.950 . S
H1643 C1667 0.950 . S
H1644 C1668 0.950 . S
H1645 C1669 0.951 . S
H1646 C1671 0.951 . S
H1647 C1673 0.950 . S
H1648 C1674 0.950 . S
H1649 C1676 0.950 . S
H1650 C1679 0.950 . S
H1651 C1680 0.950 . S
H1652 C1682 0.950 . S
H1653 C1683 0.950 . S
C1654 H1636 0.951 . S
C1654 C1655 1.366 . S
C1654 C1656 1.388 . S
C1655 C1654 1.366 . S
C1655 C1659 1.385 . S
C1656 H1637 0.951 . S
C1656 C1654 1.388 . S
C1656 C1657 1.366 . S
C1657 C1656 1.366 . S
C1657 C1658 1.414 . S
C1657 C1660 1.499 . S
C1658 H1638 0.950 . S
C1658 C1657 1.414 . S
C1658 C1659 1.374 . S
C1659 H1639 0.950 . S
C1659 C1655 1.385 . S
C1659 C1658 1.374 . S
C1660 C1657 1.499 . S
C1660 C1661 1.373 . S
C1660 C1662 1.389 . S
C1661 H1640 0.950 . S
C1661 C1660 1.373 . S
C1661 C1677 1.377 1_556 S
C1662 C1660 1.389 . S
C1662 C1663 1.524 . S
C1662 C1676 1.377 1_556 S
C1663 C1662 1.524 . S
C1663 C1664 1.397 . S
C1663 C1668 1.363 . S
C1664 H1641 0.950 . S
C1664 C1663 1.397 . S
C1664 C1665 1.334 . S
C1665 H1642 0.950 . S
C1665 C1664 1.334 . S
C1665 C1666 1.287 . S
C1666 C1665 1.287 . S
C1666 C1667 1.524 . S
C1666 H1685 0.913 . S
C1667 H1643 0.950 . S
C1667 C1666 1.524 . S
C1667 C1668 1.415 . S
C1668 H1644 0.950 . S
C1668 C1663 1.363 . S
C1668 C1667 1.415 . S
C1669 H1645 0.951 . S
C1669 C1670 1.366 . S
C1669 C1671 1.388 . S
C1670 C1669 1.366 . S
C1670 C1674 1.385 . S
C1671 H1646 0.951 . S
C1671 C1669 1.388 . S
C1671 C1672 1.366 . S
C1672 C1671 1.366 . S
C1672 C1673 1.414 . S
C1672 C1675 1.499 . S
C1673 H1647 0.950 . S
C1673 C1672 1.414 . S
C1673 C1674 1.374 . S
C1674 H1648 0.950 . S
C1674 C1670 1.385 . S
C1674 C1673 1.374 . S
C1675 C1672 1.499 . S
C1675 C1676 1.373 . S
C1675 C1677 1.389 . S
C1676 H1649 0.950 . S
C1676 C1662 1.377 1_554 S
C1676 C1675 1.373 . S
C1677 C1661 1.377 1_554 S
C1677 C1675 1.389 . S
C1677 C1678 1.524 . S
C1678 C1677 1.524 . S
C1678 C1679 1.397 . S
C1678 C1683 1.363 . S
C1679 H1650 0.950 . S
C1679 C1678 1.397 . S
C1679 C1680 1.334 . S
C1680 H1651 0.950 . S
C1680 C1679 1.334 . S
C1680 C1681 1.287 . S
C1681 C1680 1.287 . S
C1681 C1682 1.524 . S
C1681 H1684 0.999 . S
C1682 H1652 0.950 . S
C1682 C1681 1.524 . S
C1682 C1683 1.415 . S
C1683 H1653 0.950 . S
C1683 C1678 1.363 . S
C1683 C1682 1.415 . S
H1684 C1681 0.999 . S
H1685 C1666 0.913 . S
H1686 C1704 0.951 . S
H1687 C1706 0.951 . S
H1688 C1708 0.950 . S
H1689 C1709 0.950 . S
H1690 C1711 0.950 . S
H1691 C1714 0.950 . S
H1692 C1715 0.950 . S
H1693 C1717 0.950 . S
H1694 C1718 0.950 . S
H1695 C1719 0.951 . S
H1696 C1721 0.951 . S
H1697 C1723 0.950 . S
H1698 C1724 0.950 . S
H1699 C1726 0.950 . S
H1700 C1729 0.950 . S
H1701 C1730 0.950 . S
H1702 C1732 0.950 . S
H1703 C1733 0.950 . S
C1704 H1686 0.951 . S
C1704 C1705 1.366 . S
C1704 C1706 1.388 . S
C1705 C1704 1.366 . S
C1705 C1709 1.385 . S
C1706 H1687 0.951 . S
C1706 C1704 1.388 . S
C1706 C1707 1.366 . S
C1707 C1706 1.366 . S
C1707 C1708 1.414 . S
C1707 C1710 1.499 . S
C1708 H1688 0.950 . S
C1708 C1707 1.414 . S
C1708 C1709 1.374 . S
C1709 H1689 0.950 . S
C1709 C1705 1.385 . S
C1709 C1708 1.374 . S
C1710 C1707 1.499 . S
C1710 C1711 1.373 . S
C1710 C1712 1.389 . S
C1711 H1690 0.950 . S
C1711 C1710 1.373 . S
C1711 C1727 1.377 1_554 S
C1712 C1710 1.389 . S
C1712 C1713 1.524 . S
C1712 C1726 1.377 1_554 S
C1713 C1712 1.524 . S
C1713 C1714 1.397 . S
C1713 C1718 1.363 . S
C1714 H1691 0.950 . S
C1714 C1713 1.397 . S
C1714 C1715 1.334 . S
C1715 H1692 0.950 . S
C1715 C1714 1.334 . S
C1715 C1716 1.287 . S
C1716 C1715 1.287 . S
C1716 C1717 1.524 . S
C1716 H1735 0.913 . S
C1717 H1693 0.950 . S
C1717 C1716 1.524 . S
C1717 C1718 1.415 . S
C1718 H1694 0.950 . S
C1718 C1713 1.363 . S
C1718 C1717 1.415 . S
C1719 H1695 0.951 . S
C1719 C1720 1.366 . S
C1719 C1721 1.388 . S
C1720 C1719 1.366 . S
C1720 C1724 1.385 . S
C1721 H1696 0.951 . S
C1721 C1719 1.388 . S
C1721 C1722 1.366 . S
C1722 C1721 1.366 . S
C1722 C1723 1.414 . S
C1722 C1725 1.499 . S
C1723 H1697 0.950 . S
C1723 C1722 1.414 . S
C1723 C1724 1.374 . S
C1724 H1698 0.950 . S
C1724 C1720 1.385 . S
C1724 C1723 1.374 . S
C1725 C1722 1.499 . S
C1725 C1726 1.373 . S
C1725 C1727 1.389 . S
C1726 H1699 0.950 . S
C1726 C1712 1.377 1_556 S
C1726 C1725 1.373 . S
C1727 C1711 1.377 1_556 S
C1727 C1725 1.389 . S
C1727 C1728 1.524 . S
C1728 C1727 1.524 . S
C1728 C1729 1.397 . S
C1728 C1733 1.363 . S
C1729 H1700 0.950 . S
C1729 C1728 1.397 . S
C1729 C1730 1.334 . S
C1730 H1701 0.950 . S
C1730 C1729 1.334 . S
C1730 C1731 1.287 . S
C1731 C1730 1.287 . S
C1731 C1732 1.524 . S
C1731 H1734 0.999 . S
C1732 H1702 0.950 . S
C1732 C1731 1.524 . S
C1732 C1733 1.415 . S
C1733 H1703 0.950 . S
C1733 C1728 1.363 . S
C1733 C1732 1.415 . S
H1734 C1731 0.999 . S
H1735 C1716 0.913 . S
H1736 C1754 0.951 . S
H1737 C1756 0.951 . S
H1738 C1758 0.950 . S
H1739 C1759 0.950 . S
H1740 C1761 0.950 . S
H1741 C1764 0.950 . S
H1742 C1765 0.950 . S
H1743 C1767 0.950 . S
H1744 C1768 0.950 . S
H1745 C1769 0.951 . S
H1746 C1771 0.951 . S
H1747 C1773 0.950 . S
H1748 C1774 0.950 . S
H1749 C1776 0.950 . S
H1750 C1779 0.950 . S
H1751 C1780 0.950 . S
H1752 C1782 0.950 . S
H1753 C1783 0.950 . S
C1754 H1736 0.951 . S
C1754 C1755 1.366 . S
C1754 C1756 1.388 . S
C1755 C1754 1.366 . S
C1755 C1759 1.385 . S
C1756 H1737 0.951 . S
C1756 C1754 1.388 . S
C1756 C1757 1.366 . S
C1757 C1756 1.366 . S
C1757 C1758 1.414 . S
C1757 C1760 1.499 . S
C1758 H1738 0.950 . S
C1758 C1757 1.414 . S
C1758 C1759 1.374 . S
C1759 H1739 0.950 . S
C1759 C1755 1.385 . S
C1759 C1758 1.374 . S
C1760 C1757 1.499 . S
C1760 C1761 1.373 . S
C1760 C1762 1.389 . S
C1761 H1740 0.950 . S
C1761 C1760 1.373 . S
C1761 C1777 1.377 1_554 S
C1762 C1760 1.389 . S
C1762 C1763 1.524 . S
C1762 C1776 1.377 1_554 S
C1763 C1762 1.524 . S
C1763 C1764 1.397 . S
C1763 C1768 1.363 . S
C1764 H1741 0.950 . S
C1764 C1763 1.397 . S
C1764 C1765 1.334 . S
C1765 H1742 0.950 . S
C1765 C1764 1.334 . S
C1765 C1766 1.287 . S
C1766 C1765 1.287 . S
C1766 C1767 1.524 . S
C1766 H1785 0.913 . S
C1767 H1743 0.950 . S
C1767 C1766 1.524 . S
C1767 C1768 1.415 . S
C1768 H1744 0.950 . S
C1768 C1763 1.363 . S
C1768 C1767 1.415 . S
C1769 H1745 0.951 . S
C1769 C1770 1.366 . S
C1769 C1771 1.388 . S
C1770 C1769 1.366 . S
C1770 C1774 1.385 . S
C1771 H1746 0.951 . S
C1771 C1769 1.388 . S
C1771 C1772 1.366 . S
C1772 C1771 1.366 . S
C1772 C1773 1.414 . S
C1772 C1775 1.499 . S
C1773 H1747 0.950 . S
C1773 C1772 1.414 . S
C1773 C1774 1.374 . S
C1774 H1748 0.950 . S
C1774 C1770 1.385 . S
C1774 C1773 1.374 . S
C1775 C1772 1.499 . S
C1775 C1776 1.373 . S
C1775 C1777 1.389 . S
C1776 H1749 0.950 . S
C1776 C1762 1.377 1_556 S
C1776 C1775 1.373 . S
C1777 C1761 1.377 1_556 S
C1777 C1775 1.389 . S
C1777 C1778 1.524 . S
C1778 C1777 1.524 . S
C1778 C1779 1.397 . S
C1778 C1783 1.363 . S
C1779 H1750 0.950 . S
C1779 C1778 1.397 . S
C1779 C1780 1.334 . S
C1780 H1751 0.950 . S
C1780 C1779 1.334 . S
C1780 C1781 1.287 . S
C1781 C1780 1.287 . S
C1781 C1782 1.524 . S
C1781 H1784 0.999 . S
C1782 H1752 0.950 . S
C1782 C1781 1.524 . S
C1782 C1783 1.415 . S
C1783 H1753 0.950 . S
C1783 C1778 1.363 . S
C1783 C1782 1.415 . S
H1784 C1781 0.999 . S
H1785 C1766 0.913 . S
H1786 C1804 0.951 . S
H1787 C1806 0.951 . S
H1788 C1808 0.950 . S
H1789 C1809 0.950 . S
H1790 C1811 0.950 . S
H1791 C1814 0.950 . S
H1792 C1815 0.950 . S
H1793 C1817 0.950 . S
H1794 C1818 0.950 . S
H1795 C1819 0.951 . S
H1796 C1821 0.951 . S
H1797 C1823 0.950 . S
H1798 C1824 0.950 . S
H1799 C1826 0.950 . S
H1800 C1829 0.950 . S
H1801 C1830 0.950 . S
H1802 C1832 0.950 . S
H1803 C1833 0.950 . S
C1804 H1786 0.951 . S
C1804 C1805 1.366 . S
C1804 C1806 1.388 . S
C1805 C1804 1.366 . S
C1805 C1809 1.385 . S
C1806 H1787 0.951 . S
C1806 C1804 1.388 . S
C1806 C1807 1.366 . S
C1807 C1806 1.366 . S
C1807 C1808 1.414 . S
C1807 C1810 1.499 . S
C1808 H1788 0.950 . S
C1808 C1807 1.414 . S
C1808 C1809 1.374 . S
C1809 H1789 0.950 . S
C1809 C1805 1.385 . S
C1809 C1808 1.374 . S
C1810 C1807 1.499 . S
C1810 C1811 1.373 . S
C1810 C1812 1.389 . S
C1811 H1790 0.950 . S
C1811 C1810 1.373 . S
C1811 C1827 1.377 1_556 S
C1812 C1810 1.389 . S
C1812 C1813 1.524 . S
C1812 C1826 1.377 1_556 S
C1813 C1812 1.524 . S
C1813 C1814 1.397 . S
C1813 C1818 1.363 . S
C1814 H1791 0.950 . S
C1814 C1813 1.397 . S
C1814 C1815 1.334 . S
C1815 H1792 0.950 . S
C1815 C1814 1.334 . S
C1815 C1816 1.287 . S
C1816 C1815 1.287 . S
C1816 C1817 1.524 . S
C1816 H1835 0.913 . S
C1817 H1793 0.950 . S
C1817 C1816 1.524 . S
C1817 C1818 1.415 . S
C1818 H1794 0.950 . S
C1818 C1813 1.363 . S
C1818 C1817 1.415 . S
C1819 H1795 0.951 . S
C1819 C1820 1.366 . S
C1819 C1821 1.388 . S
C1820 C1819 1.366 . S
C1820 C1824 1.385 . S
C1821 H1796 0.951 . S
C1821 C1819 1.388 . S
C1821 C1822 1.366 . S
C1822 C1821 1.366 . S
C1822 C1823 1.414 . S
C1822 C1825 1.499 . S
C1823 H1797 0.950 . S
C1823 C1822 1.414 . S
C1823 C1824 1.374 . S
C1824 H1798 0.950 . S
C1824 C1820 1.385 . S
C1824 C1823 1.374 . S
C1825 C1822 1.499 . S
C1825 C1826 1.373 . S
C1825 C1827 1.389 . S
C1826 H1799 0.950 . S
C1826 C1812 1.377 1_554 S
C1826 C1825 1.373 . S
C1827 C1811 1.377 1_554 S
C1827 C1825 1.389 . S
C1827 C1828 1.524 . S
C1828 C1827 1.524 . S
C1828 C1829 1.397 . S
C1828 C1833 1.363 . S
C1829 H1800 0.950 . S
C1829 C1828 1.397 . S
C1829 C1830 1.334 . S
C1830 H1801 0.950 . S
C1830 C1829 1.334 . S
C1830 C1831 1.287 . S
C1831 C1830 1.287 . S
C1831 C1832 1.524 . S
C1831 H1834 0.999 . S
C1832 H1802 0.950 . S
C1832 C1831 1.524 . S
C1832 C1833 1.415 . S
C1833 H1803 0.950 . S
C1833 C1828 1.363 . S
C1833 C1832 1.415 . S
H1834 C1831 0.999 . S
H1835 C1816 0.913 . S
H1836 C1854 0.951 . S
H1837 C1856 0.951 . S
H1838 C1858 0.950 . S
H1839 C1859 0.950 . S
H1840 C1861 0.950 . S
H1841 C1864 0.950 . S
H1842 C1865 0.950 . S
H1843 C1867 0.950 . S
H1844 C1868 0.950 . S
H1845 C1869 0.951 . S
H1846 C1871 0.951 . S
H1847 C1873 0.950 . S
H1848 C1874 0.950 . S
H1849 C1876 0.950 . S
H1850 C1879 0.950 . S
H1851 C1880 0.950 . S
H1852 C1882 0.950 . S
H1853 C1883 0.950 . S
C1854 H1836 0.951 . S
C1854 C1855 1.366 . S
C1854 C1856 1.388 . S
C1855 C1854 1.366 . S
C1855 C1859 1.385 . S
C1856 H1837 0.951 . S
C1856 C1854 1.388 . S
C1856 C1857 1.366 . S
C1857 C1856 1.366 . S
C1857 C1858 1.414 . S
C1857 C1860 1.499 . S
C1858 H1838 0.950 . S
C1858 C1857 1.414 . S
C1858 C1859 1.374 . S
C1859 H1839 0.950 . S
C1859 C1855 1.385 . S
C1859 C1858 1.374 . S
C1860 C1857 1.499 . S
C1860 C1861 1.373 . S
C1860 C1862 1.389 . S
C1861 H1840 0.950 . S
C1861 C1860 1.373 . S
C1861 C1877 1.377 . S
C1862 C1860 1.389 . S
C1862 C1863 1.524 . S
C1862 C1876 1.377 . S
C1863 C1862 1.524 . S
C1863 C1864 1.397 . S
C1863 C1868 1.363 . S
C1864 H1841 0.950 . S
C1864 C1863 1.397 . S
C1864 C1865 1.334 . S
C1865 H1842 0.950 . S
C1865 C1864 1.334 . S
C1865 C1866 1.287 . S
C1866 C1865 1.287 . S
C1866 C1867 1.524 . S
C1866 H1885 0.913 . S
C1867 H1843 0.950 . S
C1867 C1866 1.524 . S
C1867 C1868 1.415 . S
C1868 H1844 0.950 . S
C1868 C1863 1.363 . S
C1868 C1867 1.415 . S
C1869 H1845 0.951 . S
C1869 C1870 1.366 . S
C1869 C1871 1.388 . S
C1870 C1869 1.366 . S
C1870 C1874 1.385 . S
C1871 H1846 0.951 . S
C1871 C1869 1.388 . S
C1871 C1872 1.366 . S
C1872 C1871 1.366 . S
C1872 C1873 1.414 . S
C1872 C1875 1.499 . S
C1873 H1847 0.950 . S
C1873 C1872 1.414 . S
C1873 C1874 1.374 . S
C1874 H1848 0.950 . S
C1874 C1870 1.385 . S
C1874 C1873 1.374 . S
C1875 C1872 1.499 . S
C1875 C1876 1.373 . S
C1875 C1877 1.389 . S
C1876 H1849 0.950 . S
C1876 C1862 1.377 . S
C1876 C1875 1.373 . S
C1877 C1861 1.377 . S
C1877 C1875 1.389 . S
C1877 C1878 1.524 . S
C1878 C1877 1.524 . S
C1878 C1879 1.397 . S
C1878 C1883 1.363 . S
C1879 H1850 0.950 . S
C1879 C1878 1.397 . S
C1879 C1880 1.334 . S
C1880 H1851 0.950 . S
C1880 C1879 1.334 . S
C1880 C1881 1.287 . S
C1881 C1880 1.287 . S
C1881 C1882 1.524 . S
C1881 H1884 0.999 . S
C1882 H1852 0.950 . S
C1882 C1881 1.524 . S
C1882 C1883 1.415 . S
C1883 H1853 0.950 . S
C1883 C1878 1.363 . S
C1883 C1882 1.415 . S
H1884 C1881 0.999 . S
H1885 C1866 0.913 . S
H1886 C1904 0.951 . S
H1887 C1906 0.951 . S
H1888 C1908 0.950 . S
H1889 C1909 0.950 . S
H1890 C1911 0.950 . S
H1891 C1914 0.950 . S
H1892 C1915 0.950 . S
H1893 C1917 0.950 . S
H1894 C1918 0.950 . S
H1895 C1919 0.951 . S
H1896 C1921 0.951 . S
H1897 C1923 0.950 . S
H1898 C1924 0.950 . S
H1899 C1926 0.950 . S
H1900 C1929 0.950 . S
H1901 C1930 0.950 . S
H1902 C1932 0.950 . S
H1903 C1933 0.950 . S
C1904 H1886 0.951 . S
C1904 C1905 1.366 . S
C1904 C1906 1.388 . S
C1905 C1904 1.366 . S
C1905 C1909 1.385 . S
C1906 H1887 0.951 . S
C1906 C1904 1.388 . S
C1906 C1907 1.366 . S
C1907 C1906 1.366 . S
C1907 C1908 1.414 . S
C1907 C1910 1.499 . S
C1908 H1888 0.950 . S
C1908 C1907 1.414 . S
C1908 C1909 1.374 . S
C1909 H1889 0.950 . S
C1909 C1905 1.385 . S
C1909 C1908 1.374 . S
C1910 C1907 1.499 . S
C1910 C1911 1.373 . S
C1910 C1912 1.389 . S
C1911 H1890 0.950 . S
C1911 C1910 1.373 . S
C1911 C1927 1.377 . S
C1912 C1910 1.389 . S
C1912 C1913 1.524 . S
C1912 C1926 1.377 . S
C1913 C1912 1.524 . S
C1913 C1914 1.397 . S
C1913 C1918 1.363 . S
C1914 H1891 0.950 . S
C1914 C1913 1.397 . S
C1914 C1915 1.334 . S
C1915 H1892 0.950 . S
C1915 C1914 1.334 . S
C1915 C1916 1.287 . S
C1916 C1915 1.287 . S
C1916 C1917 1.524 . S
C1916 H1935 0.913 . S
C1917 H1893 0.950 . S
C1917 C1916 1.524 . S
C1917 C1918 1.415 . S
C1918 H1894 0.950 . S
C1918 C1913 1.363 . S
C1918 C1917 1.415 . S
C1919 H1895 0.951 . S
C1919 C1920 1.366 . S
C1919 C1921 1.388 . S
C1920 C1919 1.366 . S
C1920 C1924 1.385 . S
C1921 H1896 0.951 . S
C1921 C1919 1.388 . S
C1921 C1922 1.366 . S
C1922 C1921 1.366 . S
C1922 C1923 1.414 . S
C1922 C1925 1.499 . S
C1923 H1897 0.950 . S
C1923 C1922 1.414 . S
C1923 C1924 1.374 . S
C1924 H1898 0.950 . S
C1924 C1920 1.385 . S
C1924 C1923 1.374 . S
C1925 C1922 1.499 . S
C1925 C1926 1.373 . S
C1925 C1927 1.389 . S
C1926 H1899 0.950 . S
C1926 C1912 1.377 . S
C1926 C1925 1.373 . S
C1927 C1911 1.377 . S
C1927 C1925 1.389 . S
C1927 C1928 1.524 . S
C1928 C1927 1.524 . S
C1928 C1929 1.397 . S
C1928 C1933 1.363 . S
C1929 H1900 0.950 . S
C1929 C1928 1.397 . S
C1929 C1930 1.334 . S
C1930 H1901 0.950 . S
C1930 C1929 1.334 . S
C1930 C1931 1.287 . S
C1931 C1930 1.287 . S
C1931 C1932 1.524 . S
C1931 H1934 0.999 . S
C1932 H1902 0.950 . S
C1932 C1931 1.524 . S
C1932 C1933 1.415 . S
C1933 H1903 0.950 . S
C1933 C1928 1.363 . S
C1933 C1932 1.415 . S
H1934 C1931 0.999 . S
H1935 C1916 0.913 . S
H1936 C1954 0.951 . S
H1937 C1956 0.951 . S
H1938 C1958 0.950 . S
H1939 C1959 0.950 . S
H1940 C1961 0.950 . S
H1941 C1964 0.950 . S
H1942 C1965 0.950 . S
H1943 C1967 0.950 . S
H1944 C1968 0.950 . S
H1945 C1969 0.951 . S
H1946 C1971 0.951 . S
H1947 C1973 0.950 . S
H1948 C1974 0.950 . S
H1949 C1976 0.950 . S
H1950 C1979 0.950 . S
H1951 C1980 0.950 . S
H1952 C1982 0.950 . S
H1953 C1983 0.950 . S
C1954 H1936 0.951 . S
C1954 C1955 1.366 . S
C1954 C1956 1.388 . S
C1955 C1954 1.366 . S
C1955 C1959 1.385 . S
C1956 H1937 0.951 . S
C1956 C1954 1.388 . S
C1956 C1957 1.366 . S
C1957 C1956 1.366 . S
C1957 C1958 1.414 . S
C1957 C1960 1.499 . S
C1958 H1938 0.950 . S
C1958 C1957 1.414 . S
C1958 C1959 1.374 . S
C1959 H1939 0.950 . S
C1959 C1955 1.385 . S
C1959 C1958 1.374 . S
C1960 C1957 1.499 . S
C1960 C1961 1.373 . S
C1960 C1962 1.389 . S
C1961 H1940 0.950 . S
C1961 C1960 1.373 . S
C1961 C1977 1.377 . S
C1962 C1960 1.389 . S
C1962 C1963 1.524 . S
C1962 C1976 1.377 . S
C1963 C1962 1.524 . S
C1963 C1964 1.397 . S
C1963 C1968 1.363 . S
C1964 H1941 0.950 . S
C1964 C1963 1.397 . S
C1964 C1965 1.334 . S
C1965 H1942 0.950 . S
C1965 C1964 1.334 . S
C1965 C1966 1.287 . S
C1966 C1965 1.287 . S
C1966 C1967 1.524 . S
C1966 H1985 0.913 . S
C1967 H1943 0.950 . S
C1967 C1966 1.524 . S
C1967 C1968 1.415 . S
C1968 H1944 0.950 . S
C1968 C1963 1.363 . S
C1968 C1967 1.415 . S
C1969 H1945 0.951 . S
C1969 C1970 1.366 . S
C1969 C1971 1.388 . S
C1970 C1969 1.366 . S
C1970 C1974 1.385 . S
C1971 H1946 0.951 . S
C1971 C1969 1.388 . S
C1971 C1972 1.366 . S
C1972 C1971 1.366 . S
C1972 C1973 1.414 . S
C1972 C1975 1.499 . S
C1973 H1947 0.950 . S
C1973 C1972 1.414 . S
C1973 C1974 1.374 . S
C1974 H1948 0.950 . S
C1974 C1970 1.385 . S
C1974 C1973 1.374 . S
C1975 C1972 1.499 . S
C1975 C1976 1.373 . S
C1975 C1977 1.389 . S
C1976 H1949 0.950 . S
C1976 C1962 1.377 . S
C1976 C1975 1.373 . S
C1977 C1961 1.377 . S
C1977 C1975 1.389 . S
C1977 C1978 1.524 . S
C1978 C1977 1.524 . S
C1978 C1979 1.397 . S
C1978 C1983 1.363 . S
C1979 H1950 0.950 . S
C1979 C1978 1.397 . S
C1979 C1980 1.334 . S
C1980 H1951 0.950 . S
C1980 C1979 1.334 . S
C1980 C1981 1.287 . S
C1981 C1980 1.287 . S
C1981 C1982 1.524 . S
C1981 H1984 0.999 . S
C1982 H1952 0.950 . S
C1982 C1981 1.524 . S
C1982 C1983 1.415 . S
C1983 H1953 0.950 . S
C1983 C1978 1.363 . S
C1983 C1982 1.415 . S
H1984 C1981 0.999 . S
H1985 C1966 0.913 . S
H1986 C2004 0.951 . S
H1987 C2006 0.951 . S
H1988 C2008 0.950 . S
H1989 C2009 0.950 . S
H1990 C2011 0.950 . S
H1991 C2014 0.950 . S
H1992 C2015 0.950 . S
H1993 C2017 0.950 . S
H1994 C2018 0.950 . S
H1995 C2019 0.951 . S
H1996 C2021 0.951 . S
H1997 C2023 0.950 . S
H1998 C2024 0.950 . S
H1999 C2026 0.950 . S
H2000 C2029 0.950 . S
H2001 C2030 0.950 . S
H2002 C2032 0.950 . S
H2003 C2033 0.950 . S
C2004 H1986 0.951 . S
C2004 C2005 1.366 . S
C2004 C2006 1.388 . S
C2005 C2004 1.366 . S
C2005 C2009 1.385 . S
C2006 H1987 0.951 . S
C2006 C2004 1.388 . S
C2006 C2007 1.366 . S
C2007 C2006 1.366 . S
C2007 C2008 1.414 . S
C2007 C2010 1.499 . S
C2008 H1988 0.950 . S
C2008 C2007 1.414 . S
C2008 C2009 1.374 . S
C2009 H1989 0.950 . S
C2009 C2005 1.385 . S
C2009 C2008 1.374 . S
C2010 C2007 1.499 . S
C2010 C2011 1.373 . S
C2010 C2012 1.389 . S
C2011 H1990 0.950 . S
C2011 C2010 1.373 . S
C2011 C2027 1.377 . S
C2012 C2010 1.389 . S
C2012 C2013 1.524 . S
C2012 C2026 1.377 . S
C2013 C2012 1.524 . S
C2013 C2014 1.397 . S
C2013 C2018 1.363 . S
C2014 H1991 0.950 . S
C2014 C2013 1.397 . S
C2014 C2015 1.334 . S
C2015 H1992 0.950 . S
C2015 C2014 1.334 . S
C2015 C2016 1.287 . S
C2016 C2015 1.287 . S
C2016 C2017 1.524 . S
C2016 H2035 0.913 . S
C2017 H1993 0.950 . S
C2017 C2016 1.524 . S
C2017 C2018 1.415 . S
C2018 H1994 0.950 . S
C2018 C2013 1.363 . S
C2018 C2017 1.415 . S
C2019 H1995 0.951 . S
C2019 C2020 1.366 . S
C2019 C2021 1.388 . S
C2020 C2019 1.366 . S
C2020 C2024 1.385 . S
C2021 H1996 0.951 . S
C2021 C2019 1.388 . S
C2021 C2022 1.366 . S
C2022 C2021 1.366 . S
C2022 C2023 1.414 . S
C2022 C2025 1.499 . S
C2023 H1997 0.950 . S
C2023 C2022 1.414 . S
C2023 C2024 1.374 . S
C2024 H1998 0.950 . S
C2024 C2020 1.385 . S
C2024 C2023 1.374 . S
C2025 C2022 1.499 . S
C2025 C2026 1.373 . S
C2025 C2027 1.389 . S
C2026 H1999 0.950 . S
C2026 C2012 1.377 . S
C2026 C2025 1.373 . S
C2027 C2011 1.377 . S
C2027 C2025 1.389 . S
C2027 C2028 1.524 . S
C2028 C2027 1.524 . S
C2028 C2029 1.397 . S
C2028 C2033 1.363 . S
C2029 H2000 0.950 . S
C2029 C2028 1.397 . S
C2029 C2030 1.334 . S
C2030 H2001 0.950 . S
C2030 C2029 1.334 . S
C2030 C2031 1.287 . S
C2031 C2030 1.287 . S
C2031 C2032 1.524 . S
C2031 H2034 0.999 . S
C2032 H2002 0.950 . S
C2032 C2031 1.524 . S
C2032 C2033 1.415 . S
C2033 H2003 0.950 . S
C2033 C2028 1.363 . S
C2033 C2032 1.415 . S
H2034 C2031 0.999 . S
H2035 C2016 0.913 . S
H2036 C2054 0.951 . S
H2037 C2056 0.951 . S
H2038 C2058 0.950 . S
H2039 C2059 0.950 . S
H2040 C2061 0.950 . S
H2041 C2064 0.950 . S
H2042 C2065 0.950 . S
H2043 C2067 0.950 . S
H2044 C2068 0.950 . S
H2045 C2069 0.951 . S
H2046 C2071 0.951 . S
H2047 C2073 0.950 . S
H2048 C2074 0.950 . S
H2049 C2076 0.950 . S
H2050 C2079 0.950 . S
H2051 C2080 0.950 . S
H2052 C2082 0.950 . S
H2053 C2083 0.950 . S
C2054 H2036 0.951 . S
C2054 C2055 1.366 . S
C2054 C2056 1.388 . S
C2055 C2054 1.366 . S
C2055 C2059 1.385 . S
C2056 H2037 0.951 . S
C2056 C2054 1.388 . S
C2056 C2057 1.366 . S
C2057 C2056 1.366 . S
C2057 C2058 1.414 . S
C2057 C2060 1.499 . S
C2058 H2038 0.950 . S
C2058 C2057 1.414 . S
C2058 C2059 1.374 . S
C2059 H2039 0.950 . S
C2059 C2055 1.385 . S
C2059 C2058 1.374 . S
C2060 C2057 1.499 . S
C2060 C2061 1.373 . S
C2060 C2062 1.389 . S
C2061 H2040 0.950 . S
C2061 C2060 1.373 . S
C2061 C2077 1.377 . S
C2062 C2060 1.389 . S
C2062 C2063 1.524 . S
C2062 C2076 1.377 . S
C2063 C2062 1.524 . S
C2063 C2064 1.397 . S
C2063 C2068 1.363 . S
C2064 H2041 0.950 . S
C2064 C2063 1.397 . S
C2064 C2065 1.334 . S
C2065 H2042 0.950 . S
C2065 C2064 1.334 . S
C2065 C2066 1.287 . S
C2066 C2065 1.287 . S
C2066 C2067 1.524 . S
C2066 H2085 0.913 . S
C2067 H2043 0.950 . S
C2067 C2066 1.524 . S
C2067 C2068 1.415 . S
C2068 H2044 0.950 . S
C2068 C2063 1.363 . S
C2068 C2067 1.415 . S
C2069 H2045 0.951 . S
C2069 C2070 1.366 . S
C2069 C2071 1.388 . S
C2070 C2069 1.366 . S
C2070 C2074 1.385 . S
C2071 H2046 0.951 . S
C2071 C2069 1.388 . S
C2071 C2072 1.366 . S
C2072 C2071 1.366 . S
C2072 C2073 1.414 . S
C2072 C2075 1.499 . S
C2073 H2047 0.950 . S
C2073 C2072 1.414 . S
C2073 C2074 1.374 . S
C2074 H2048 0.950 . S
C2074 C2070 1.385 . S
C2074 C2073 1.374 . S
C2075 C2072 1.499 . S
C2075 C2076 1.373 . S
C2075 C2077 1.389 . S
C2076 H2049 0.950 . S
C2076 C2062 1.377 . S
C2076 C2075 1.373 . S
C2077 C2061 1.377 . S
C2077 C2075 1.389 . S
C2077 C2078 1.524 . S
C2078 C2077 1.524 . S
C2078 C2079 1.397 . S
C2078 C2083 1.363 . S
C2079 H2050 0.950 . S
C2079 C2078 1.397 . S
C2079 C2080 1.334 . S
C2080 H2051 0.950 . S
C2080 C2079 1.334 . S
C2080 C2081 1.287 . S
C2081 C2080 1.287 . S
C2081 C2082 1.524 . S
C2081 H2084 0.999 . S
C2082 H2052 0.950 . S
C2082 C2081 1.524 . S
C2082 C2083 1.415 . S
C2083 H2053 0.950 . S
C2083 C2078 1.363 . S
C2083 C2082 1.415 . S
H2084 C2081 0.999 . S
H2085 C2066 0.913 . S
H2086 C2104 0.951 . S
H2087 C2106 0.951 . S
H2088 C2108 0.950 . S
H2089 C2109 0.950 . S
H2090 C2111 0.950 . S
H2091 C2114 0.950 . S
H2092 C2115 0.950 . S
H2093 C2117 0.950 . S
H2094 C2118 0.950 . S
H2095 C2119 0.951 . S
H2096 C2121 0.951 . S
H2097 C2123 0.950 . S
H2098 C2124 0.950 . S
H2099 C2126 0.950 . S
H2100 C2129 0.950 . S
H2101 C2130 0.950 . S
H2102 C2132 0.950 . S
H2103 C2133 0.950 . S
C2104 H2086 0.951 . S
C2104 C2105 1.366 . S
C2104 C2106 1.388 . S
C2105 C2104 1.366 . S
C2105 C2109 1.385 . S
C2106 H2087 0.951 . S
C2106 C2104 1.388 . S
C2106 C2107 1.366 . S
C2107 C2106 1.366 . S
C2107 C2108 1.414 . S
C2107 C2110 1.499 . S
C2108 H2088 0.950 . S
C2108 C2107 1.414 . S
C2108 C2109 1.374 . S
C2109 H2089 0.950 . S
C2109 C2105 1.385 . S
C2109 C2108 1.374 . S
C2110 C2107 1.499 . S
C2110 C2111 1.373 . S
C2110 C2112 1.389 . S
C2111 H2090 0.950 . S
C2111 C2110 1.373 . S
C2111 C2127 1.377 . S
C2112 C2110 1.389 . S
C2112 C2113 1.524 . S
C2112 C2126 1.377 . S
C2113 C2112 1.524 . S
C2113 C2114 1.397 . S
C2113 C2118 1.363 . S
C2114 H2091 0.950 . S
C2114 C2113 1.397 . S
C2114 C2115 1.334 . S
C2115 H2092 0.950 . S
C2115 C2114 1.334 . S
C2115 C2116 1.287 . S
C2116 C2115 1.287 . S
C2116 C2117 1.524 . S
C2116 H2135 0.913 . S
C2117 H2093 0.950 . S
C2117 C2116 1.524 . S
C2117 C2118 1.415 . S
C2118 H2094 0.950 . S
C2118 C2113 1.363 . S
C2118 C2117 1.415 . S
C2119 H2095 0.951 . S
C2119 C2120 1.366 . S
C2119 C2121 1.388 . S
C2120 C2119 1.366 . S
C2120 C2124 1.385 . S
C2121 H2096 0.951 . S
C2121 C2119 1.388 . S
C2121 C2122 1.366 . S
C2122 C2121 1.366 . S
C2122 C2123 1.414 . S
C2122 C2125 1.499 . S
C2123 H2097 0.950 . S
C2123 C2122 1.414 . S
C2123 C2124 1.374 . S
C2124 H2098 0.950 . S
C2124 C2120 1.385 . S
C2124 C2123 1.374 . S
C2125 C2122 1.499 . S
C2125 C2126 1.373 . S
C2125 C2127 1.389 . S
C2126 H2099 0.950 . S
C2126 C2112 1.377 . S
C2126 C2125 1.373 . S
C2127 C2111 1.377 . S
C2127 C2125 1.389 . S
C2127 C2128 1.524 . S
C2128 C2127 1.524 . S
C2128 C2129 1.397 . S
C2128 C2133 1.363 . S
C2129 H2100 0.950 . S
C2129 C2128 1.397 . S
C2129 C2130 1.334 . S
C2130 H2101 0.950 . S
C2130 C2129 1.334 . S
C2130 C2131 1.287 . S
C2131 C2130 1.287 . S
C2131 C2132 1.524 . S
C2131 H2134 0.999 . S
C2132 H2102 0.950 . S
C2132 C2131 1.524 . S
C2132 C2133 1.415 . S
C2133 H2103 0.950 . S
C2133 C2128 1.363 . S
C2133 C2132 1.415 . S
H2134 C2131 0.999 . S
H2135 C2116 0.913 . S
H2136 C2154 0.951 . S
H2137 C2156 0.951 . S
H2138 C2158 0.950 . S
H2139 C2159 0.950 . S
H2140 C2161 0.950 . S
H2141 C2164 0.950 . S
H2142 C2165 0.950 . S
H2143 C2167 0.950 . S
H2144 C2168 0.950 . S
H2145 C2169 0.951 . S
H2146 C2171 0.951 . S
H2147 C2173 0.950 . S
H2148 C2174 0.950 . S
H2149 C2176 0.950 . S
H2150 C2179 0.950 . S
H2151 C2180 0.950 . S
H2152 C2182 0.950 . S
H2153 C2183 0.950 . S
C2154 H2136 0.951 . S
C2154 C2155 1.366 . S
C2154 C2156 1.388 . S
C2155 C2154 1.366 . S
C2155 C2159 1.385 . S
C2156 H2137 0.951 . S
C2156 C2154 1.388 . S
C2156 C2157 1.366 . S
C2157 C2156 1.366 . S
C2157 C2158 1.414 . S
C2157 C2160 1.499 . S
C2158 H2138 0.950 . S
C2158 C2157 1.414 . S
C2158 C2159 1.374 . S
C2159 H2139 0.950 . S
C2159 C2155 1.385 . S
C2159 C2158 1.374 . S
C2160 C2157 1.499 . S
C2160 C2161 1.373 . S
C2160 C2162 1.389 . S
C2161 H2140 0.950 . S
C2161 C2160 1.373 . S
C2161 C2177 1.377 . S
C2162 C2160 1.389 . S
C2162 C2163 1.524 . S
C2162 C2176 1.377 . S
C2163 C2162 1.524 . S
C2163 C2164 1.397 . S
C2163 C2168 1.363 . S
C2164 H2141 0.950 . S
C2164 C2163 1.397 . S
C2164 C2165 1.334 . S
C2165 H2142 0.950 . S
C2165 C2164 1.334 . S
C2165 C2166 1.287 . S
C2166 C2165 1.287 . S
C2166 C2167 1.524 . S
C2166 H2185 0.913 . S
C2167 H2143 0.950 . S
C2167 C2166 1.524 . S
C2167 C2168 1.415 . S
C2168 H2144 0.950 . S
C2168 C2163 1.363 . S
C2168 C2167 1.415 . S
C2169 H2145 0.951 . S
C2169 C2170 1.366 . S
C2169 C2171 1.388 . S
C2170 C2169 1.366 . S
C2170 C2174 1.385 . S
C2171 H2146 0.951 . S
C2171 C2169 1.388 . S
C2171 C2172 1.366 . S
C2172 C2171 1.366 . S
C2172 C2173 1.414 . S
C2172 C2175 1.499 . S
C2173 H2147 0.950 . S
C2173 C2172 1.414 . S
C2173 C2174 1.374 . S
C2174 H2148 0.950 . S
C2174 C2170 1.385 . S
C2174 C2173 1.374 . S
C2175 C2172 1.499 . S
C2175 C2176 1.373 . S
C2175 C2177 1.389 . S
C2176 H2149 0.950 . S
C2176 C2162 1.377 . S
C2176 C2175 1.373 . S
C2177 C2161 1.377 . S
C2177 C2175 1.389 . S
C2177 C2178 1.524 . S
C2178 C2177 1.524 . S
C2178 C2179 1.397 . S
C2178 C2183 1.363 . S
C2179 H2150 0.950 . S
C2179 C2178 1.397 . S
C2179 C2180 1.334 . S
C2180 H2151 0.950 . S
C2180 C2179 1.334 . S
C2180 C2181 1.287 . S
C2181 C2180 1.287 . S
C2181 C2182 1.524 . S
C2181 H2184 0.999 . S
C2182 H2152 0.950 . S
C2182 C2181 1.524 . S
C2182 C2183 1.415 . S
C2183 H2153 0.950 . S
C2183 C2178 1.363 . S
C2183 C2182 1.415 . S
H2184 C2181 0.999 . S
H2185 C2166 0.913 . S
H2186 C2204 0.951 . S
H2187 C2206 0.951 . S
H2188 C2208 0.950 . S
H2189 C2209 0.950 . S
H2190 C2211 0.950 . S
H2191 C2214 0.950 . S
H2192 C2215 0.950 . S
H2193 C2217 0.950 . S
H2194 C2218 0.950 . S
H2195 C2219 0.951 . S
H2196 C2221 0.951 . S
H2197 C2223 0.950 . S
H2198 C2224 0.950 . S
H2199 C2226 0.950 . S
H2200 C2229 0.950 . S
H2201 C2230 0.950 . S
H2202 C2232 0.950 . S
H2203 C2233 0.950 . S
C2204 H2186 0.951 . S
C2204 C2205 1.366 . S
C2204 C2206 1.388 . S
C2205 C2204 1.366 . S
C2205 C2209 1.385 . S
C2206 H2187 0.951 . S
C2206 C2204 1.388 . S
C2206 C2207 1.366 . S
C2207 C2206 1.366 . S
C2207 C2208 1.414 . S
C2207 C2210 1.499 . S
C2208 H2188 0.950 . S
C2208 C2207 1.414 . S
C2208 C2209 1.374 . S
C2209 H2189 0.950 . S
C2209 C2205 1.385 . S
C2209 C2208 1.374 . S
C2210 C2207 1.499 . S
C2210 C2211 1.373 . S
C2210 C2212 1.389 . S
C2211 H2190 0.950 . S
C2211 C2210 1.373 . S
C2211 C2227 1.377 . S
C2212 C2210 1.389 . S
C2212 C2213 1.524 . S
C2212 C2226 1.377 . S
C2213 C2212 1.524 . S
C2213 C2214 1.397 . S
C2213 C2218 1.363 . S
C2214 H2191 0.950 . S
C2214 C2213 1.397 . S
C2214 C2215 1.334 . S
C2215 H2192 0.950 . S
C2215 C2214 1.334 . S
C2215 C2216 1.287 . S
C2216 C2215 1.287 . S
C2216 C2217 1.524 . S
C2216 H2235 0.913 . S
C2217 H2193 0.950 . S
C2217 C2216 1.524 . S
C2217 C2218 1.415 . S
C2218 H2194 0.950 . S
C2218 C2213 1.363 . S
C2218 C2217 1.415 . S
C2219 H2195 0.951 . S
C2219 C2220 1.366 . S
C2219 C2221 1.388 . S
C2220 C2219 1.366 . S
C2220 C2224 1.385 . S
C2221 H2196 0.951 . S
C2221 C2219 1.388 . S
C2221 C2222 1.366 . S
C2222 C2221 1.366 . S
C2222 C2223 1.414 . S
C2222 C2225 1.499 . S
C2223 H2197 0.950 . S
C2223 C2222 1.414 . S
C2223 C2224 1.374 . S
C2224 H2198 0.950 . S
C2224 C2220 1.385 . S
C2224 C2223 1.374 . S
C2225 C2222 1.499 . S
C2225 C2226 1.373 . S
C2225 C2227 1.389 . S
C2226 H2199 0.950 . S
C2226 C2212 1.377 . S
C2226 C2225 1.373 . S
C2227 C2211 1.377 . S
C2227 C2225 1.389 . S
C2227 C2228 1.524 . S
C2228 C2227 1.524 . S
C2228 C2229 1.397 . S
C2228 C2233 1.363 . S
C2229 H2200 0.950 . S
C2229 C2228 1.397 . S
C2229 C2230 1.334 . S
C2230 H2201 0.950 . S
C2230 C2229 1.334 . S
C2230 C2231 1.287 . S
C2231 C2230 1.287 . S
C2231 C2232 1.524 . S
C2231 H2234 0.999 . S
C2232 H2202 0.950 . S
C2232 C2231 1.524 . S
C2232 C2233 1.415 . S
C2233 H2203 0.950 . S
C2233 C2228 1.363 . S
C2233 C2232 1.415 . S
H2234 C2231 0.999 . S
H2235 C2216 0.913 . S
H2236 C2254 0.951 . S
H2237 C2256 0.951 . S
H2238 C2258 0.950 . S
H2239 C2259 0.950 . S
H2240 C2261 0.950 . S
H2241 C2264 0.950 . S
H2242 C2265 0.950 . S
H2243 C2267 0.950 . S
H2244 C2268 0.950 . S
H2245 C2269 0.951 . S
H2246 C2271 0.951 . S
H2247 C2273 0.950 . S
H2248 C2274 0.950 . S
H2249 C2276 0.950 . S
H2250 C2279 0.950 . S
H2251 C2280 0.950 . S
H2252 C2282 0.950 . S
H2253 C2283 0.950 . S
C2254 H2236 0.951 . S
C2254 C2255 1.366 . S
C2254 C2256 1.388 . S
C2255 C2254 1.366 . S
C2255 C2259 1.385 . S
C2256 H2237 0.951 . S
C2256 C2254 1.388 . S
C2256 C2257 1.366 . S
C2257 C2256 1.366 . S
C2257 C2258 1.414 . S
C2257 C2260 1.499 . S
C2258 H2238 0.950 . S
C2258 C2257 1.414 . S
C2258 C2259 1.374 . S
C2259 H2239 0.950 . S
C2259 C2255 1.385 . S
C2259 C2258 1.374 . S
C2260 C2257 1.499 . S
C2260 C2261 1.373 . S
C2260 C2262 1.389 . S
C2261 H2240 0.950 . S
C2261 C2260 1.373 . S
C2261 C2277 1.377 . S
C2262 C2260 1.389 . S
C2262 C2263 1.524 . S
C2262 C2276 1.377 . S
C2263 C2262 1.524 . S
C2263 C2264 1.397 . S
C2263 C2268 1.363 . S
C2264 H2241 0.950 . S
C2264 C2263 1.397 . S
C2264 C2265 1.334 . S
C2265 H2242 0.950 . S
C2265 C2264 1.334 . S
C2265 C2266 1.287 . S
C2266 C2265 1.287 . S
C2266 C2267 1.524 . S
C2266 H2285 0.913 . S
C2267 H2243 0.950 . S
C2267 C2266 1.524 . S
C2267 C2268 1.415 . S
C2268 H2244 0.950 . S
C2268 C2263 1.363 . S
C2268 C2267 1.415 . S
C2269 H2245 0.951 . S
C2269 C2270 1.366 . S
C2269 C2271 1.388 . S
C2270 C2269 1.366 . S
C2270 C2274 1.385 . S
C2271 H2246 0.951 . S
C2271 C2269 1.388 . S
C2271 C2272 1.366 . S
C2272 C2271 1.366 . S
C2272 C2273 1.414 . S
C2272 C2275 1.499 . S
C2273 H2247 0.950 . S
C2273 C2272 1.414 . S
C2273 C2274 1.374 . S
C2274 H2248 0.950 . S
C2274 C2270 1.385 . S
C2274 C2273 1.374 . S
C2275 C2272 1.499 . S
C2275 C2276 1.373 . S
C2275 C2277 1.389 . S
C2276 H2249 0.950 . S
C2276 C2262 1.377 . S
C2276 C2275 1.373 . S
C2277 C2261 1.377 . S
C2277 C2275 1.389 . S
C2277 C2278 1.524 . S
C2278 C2277 1.524 . S
C2278 C2279 1.397 . S
C2278 C2283 1.363 . S
C2279 H2250 0.950 . S
C2279 C2278 1.397 . S
C2279 C2280 1.334 . S
C2280 H2251 0.950 . S
C2280 C2279 1.334 . S
C2280 C2281 1.287 . S
C2281 C2280 1.287 . S
C2281 C2282 1.524 . S
C2281 H2284 0.999 . S
C2282 H2252 0.950 . S
C2282 C2281 1.524 . S
C2282 C2283 1.415 . S
C2283 H2253 0.950 . S
C2283 C2278 1.363 . S
C2283 C2282 1.415 . S
H2284 C2281 0.999 . S
H2285 C2266 0.913 . S
H2286 C2304 0.951 . S
H2287 C2306 0.951 . S
H2288 C2308 0.950 . S
H2289 C2309 0.950 . S
H2290 C2311 0.950 . S
H2291 C2314 0.950 . S
H2292 C2315 0.950 . S
H2293 C2317 0.950 . S
H2294 C2318 0.950 . S
H2295 C2319 0.951 . S
H2296 C2321 0.951 . S
H2297 C2323 0.950 . S
H2298 C2324 0.950 . S
H2299 C2326 0.950 . S
H2300 C2329 0.950 . S
H2301 C2330 0.950 . S
H2302 C2332 0.950 . S
H2303 C2333 0.950 . S
C2304 H2286 0.951 . S
C2304 C2305 1.366 . S
C2304 C2306 1.388 . S
C2305 C2304 1.366 . S
C2305 C2309 1.385 . S
C2306 H2287 0.951 . S
C2306 C2304 1.388 . S
C2306 C2307 1.366 . S
C2307 C2306 1.366 . S
C2307 C2308 1.414 . S
C2307 C2310 1.499 . S
C2308 H2288 0.950 . S
C2308 C2307 1.414 . S
C2308 C2309 1.374 . S
C2309 H2289 0.950 . S
C2309 C2305 1.385 . S
C2309 C2308 1.374 . S
C2310 C2307 1.499 . S
C2310 C2311 1.373 . S
C2310 C2312 1.389 . S
C2311 H2290 0.950 . S
C2311 C2310 1.373 . S
C2311 C2327 1.377 . S
C2312 C2310 1.389 . S
C2312 C2313 1.524 . S
C2312 C2326 1.377 . S
C2313 C2312 1.524 . S
C2313 C2314 1.397 . S
C2313 C2318 1.363 . S
C2314 H2291 0.950 . S
C2314 C2313 1.397 . S
C2314 C2315 1.334 . S
C2315 H2292 0.950 . S
C2315 C2314 1.334 . S
C2315 C2316 1.287 . S
C2316 C2315 1.287 . S
C2316 C2317 1.524 . S
C2316 H2335 0.913 . S
C2317 H2293 0.950 . S
C2317 C2316 1.524 . S
C2317 C2318 1.415 . S
C2318 H2294 0.950 . S
C2318 C2313 1.363 . S
C2318 C2317 1.415 . S
C2319 H2295 0.951 . S
C2319 C2320 1.366 . S
C2319 C2321 1.388 . S
C2320 C2319 1.366 . S
C2320 C2324 1.385 . S
C2321 H2296 0.951 . S
C2321 C2319 1.388 . S
C2321 C2322 1.366 . S
C2322 C2321 1.366 . S
C2322 C2323 1.414 . S
C2322 C2325 1.499 . S
C2323 H2297 0.950 . S
C2323 C2322 1.414 . S
C2323 C2324 1.374 . S
C2324 H2298 0.950 . S
C2324 C2320 1.385 . S
C2324 C2323 1.374 . S
C2325 C2322 1.499 . S
C2325 C2326 1.373 . S
C2325 C2327 1.389 . S
C2326 H2299 0.950 . S
C2326 C2312 1.377 . S
C2326 C2325 1.373 . S
C2327 C2311 1.377 . S
C2327 C2325 1.389 . S
C2327 C2328 1.524 . S
C2328 C2327 1.524 . S
C2328 C2329 1.397 . S
C2328 C2333 1.363 . S
C2329 H2300 0.950 . S
C2329 C2328 1.397 . S
C2329 C2330 1.334 . S
C2330 H2301 0.950 . S
C2330 C2329 1.334 . S
C2330 C2331 1.287 . S
C2331 C2330 1.287 . S
C2331 C2332 1.524 . S
C2331 H2334 0.999 . S
C2332 H2302 0.950 . S
C2332 C2331 1.524 . S
C2332 C2333 1.415 . S
C2333 H2303 0.950 . S
C2333 C2328 1.363 . S
C2333 C2332 1.415 . S
H2334 C2331 0.999 . S
H2335 C2316 0.913 . S
H2336 C2354 0.951 . S
H2337 C2356 0.951 . S
H2338 C2358 0.950 . S
H2339 C2359 0.950 . S
H2340 C2361 0.950 . S
H2341 C2364 0.950 . S
H2342 C2365 0.950 . S
H2343 C2367 0.950 . S
H2344 C2368 0.950 . S
H2345 C2369 0.951 . S
H2346 C2371 0.951 . S
H2347 C2373 0.950 . S
H2348 C2374 0.950 . S
H2349 C2376 0.950 . S
H2350 C2379 0.950 . S
H2351 C2380 0.950 . S
H2352 C2382 0.950 . S
H2353 C2383 0.950 . S
C2354 H2336 0.951 . S
C2354 C2355 1.366 . S
C2354 C2356 1.388 . S
C2355 C2354 1.366 . S
C2355 C2359 1.385 . S
C2356 H2337 0.951 . S
C2356 C2354 1.388 . S
C2356 C2357 1.366 . S
C2357 C2356 1.366 . S
C2357 C2358 1.414 . S
C2357 C2360 1.499 . S
C2358 H2338 0.950 . S
C2358 C2357 1.414 . S
C2358 C2359 1.374 . S
C2359 H2339 0.950 . S
C2359 C2355 1.385 . S
C2359 C2358 1.374 . S
C2360 C2357 1.499 . S
C2360 C2361 1.373 . S
C2360 C2362 1.389 . S
C2361 H2340 0.950 . S
C2361 C2360 1.373 . S
C2361 C2377 1.377 . S
C2362 C2360 1.389 . S
C2362 C2363 1.524 . S
C2362 C2376 1.377 . S
C2363 C2362 1.524 . S
C2363 C2364 1.397 . S
C2363 C2368 1.363 . S
C2364 H2341 0.950 . S
C2364 C2363 1.397 . S
C2364 C2365 1.334 . S
C2365 H2342 0.950 . S
C2365 C2364 1.334 . S
C2365 C2366 1.287 . S
C2366 C2365 1.287 . S
C2366 C2367 1.524 . S
C2366 H2385 0.913 . S
C2367 H2343 0.950 . S
C2367 C2366 1.524 . S
C2367 C2368 1.415 . S
C2368 H2344 0.950 . S
C2368 C2363 1.363 . S
C2368 C2367 1.415 . S
C2369 H2345 0.951 . S
C2369 C2370 1.366 . S
C2369 C2371 1.388 . S
C2370 C2369 1.366 . S
C2370 C2374 1.385 . S
C2371 H2346 0.951 . S
C2371 C2369 1.388 . S
C2371 C2372 1.366 . S
C2372 C2371 1.366 . S
C2372 C2373 1.414 . S
C2372 C2375 1.499 . S
C2373 H2347 0.950 . S
C2373 C2372 1.414 . S
C2373 C2374 1.374 . S
C2374 H2348 0.950 . S
C2374 C2370 1.385 . S
C2374 C2373 1.374 . S
C2375 C2372 1.499 . S
C2375 C2376 1.373 . S
C2375 C2377 1.389 . S
C2376 H2349 0.950 . S
C2376 C2362 1.377 . S
C2376 C2375 1.373 . S
C2377 C2361 1.377 . S
C2377 C2375 1.389 . S
C2377 C2378 1.524 . S
C2378 C2377 1.524 . S
C2378 C2379 1.397 . S
C2378 C2383 1.363 . S
C2379 H2350 0.950 . S
C2379 C2378 1.397 . S
C2379 C2380 1.334 . S
C2380 H2351 0.950 . S
C2380 C2379 1.334 . S
C2380 C2381 1.287 . S
C2381 C2380 1.287 . S
C2381 C2382 1.524 . S
C2381 H2384 0.999 . S
C2382 H2352 0.950 . S
C2382 C2381 1.524 . S
C2382 C2383 1.415 . S
C2383 H2353 0.950 . S
C2383 C2378 1.363 . S
C2383 C2382 1.415 . S
H2384 C2381 0.999 . S
H2385 C2366 0.913 . S
H2386 C2404 0.951 . S
H2387 C2406 0.951 . S
H2388 C2408 0.950 . S
H2389 C2409 0.950 . S
H2390 C2411 0.950 . S
H2391 C2414 0.950 . S
H2392 C2415 0.950 . S
H2393 C2417 0.950 . S
H2394 C2418 0.950 . S
H2395 C2419 0.951 . S
H2396 C2421 0.951 . S
H2397 C2423 0.950 . S
H2398 C2424 0.950 . S
H2399 C2426 0.950 . S
H2400 C2429 0.950 . S
H2401 C2430 0.950 . S
H2402 C2432 0.950 . S
H2403 C2433 0.950 . S
C2404 H2386 0.951 . S
C2404 C2405 1.366 . S
C2404 C2406 1.388 . S
C2405 C2404 1.366 . S
C2405 C2409 1.385 . S
C2406 H2387 0.951 . S
C2406 C2404 1.388 . S
C2406 C2407 1.366 . S
C2407 C2406 1.366 . S
C2407 C2408 1.414 . S
C2407 C2410 1.499 . S
C2408 H2388 0.950 . S
C2408 C2407 1.414 . S
C2408 C2409 1.374 . S
C2409 H2389 0.950 . S
C2409 C2405 1.385 . S
C2409 C2408 1.374 . S
C2410 C2407 1.499 . S
C2410 C2411 1.373 . S
C2410 C2412 1.389 . S
C2411 H2390 0.950 . S
C2411 C2410 1.373 . S
C2411 C2427 1.377 . S
C2412 C2410 1.389 . S
C2412 C2413 1.524 . S
C2412 C2426 1.377 . S
C2413 C2412 1.524 . S
C2413 C2414 1.397 . S
C2413 C2418 1.363 . S
C2414 H2391 0.950 . S
C2414 C2413 1.397 . S
C2414 C2415 1.334 . S
C2415 H2392 0.950 . S
C2415 C2414 1.334 . S
C2415 C2416 1.287 . S
C2416 C2415 1.287 . S
C2416 C2417 1.524 . S
C2416 H2435 0.913 . S
C2417 H2393 0.950 . S
C2417 C2416 1.524 . S
C2417 C2418 1.415 . S
C2418 H2394 0.950 . S
C2418 C2413 1.363 . S
C2418 C2417 1.415 . S
C2419 H2395 0.951 . S
C2419 C2420 1.366 . S
C2419 C2421 1.388 . S
C2420 C2419 1.366 . S
C2420 C2424 1.385 . S
C2421 H2396 0.951 . S
C2421 C2419 1.388 . S
C2421 C2422 1.366 . S
C2422 C2421 1.366 . S
C2422 C2423 1.414 . S
C2422 C2425 1.499 . S
C2423 H2397 0.950 . S
C2423 C2422 1.414 . S
C2423 C2424 1.374 . S
C2424 H2398 0.950 . S
C2424 C2420 1.385 . S
C2424 C2423 1.374 . S
C2425 C2422 1.499 . S
C2425 C2426 1.373 . S
C2425 C2427 1.389 . S
C2426 H2399 0.950 . S
C2426 C2412 1.377 . S
C2426 C2425 1.373 . S
C2427 C2411 1.377 . S
C2427 C2425 1.389 . S
C2427 C2428 1.524 . S
C2428 C2427 1.524 . S
C2428 C2429 1.397 . S
C2428 C2433 1.363 . S
C2429 H2400 0.950 . S
C2429 C2428 1.397 . S
C2429 C2430 1.334 . S
C2430 H2401 0.950 . S
C2430 C2429 1.334 . S
C2430 C2431 1.287 . S
C2431 C2430 1.287 . S
C2431 C2432 1.524 . S
C2431 H2434 0.999 . S
C2432 H2402 0.950 . S
C2432 C2431 1.524 . S
C2432 C2433 1.415 . S
C2433 H2403 0.950 . S
C2433 C2428 1.363 . S
C2433 C2432 1.415 . S
H2434 C2431 0.999 . S
H2435 C2416 0.913 . S
H2436 C2454 0.951 . S
H2437 C2456 0.951 . S
H2438 C2458 0.950 . S
H2439 C2459 0.950 . S
H2440 C2461 0.950 . S
H2441 C2464 0.950 . S
H2442 C2465 0.950 . S
H2443 C2467 0.950 . S
H2444 C2468 0.950 . S
H2445 C2469 0.951 . S
H2446 C2471 0.951 . S
H2447 C2473 0.950 . S
H2448 C2474 0.950 . S
H2449 C2476 0.950 . S
H2450 C2479 0.950 . S
H2451 C2480 0.950 . S
H2452 C2482 0.950 . S
H2453 C2483 0.950 . S
C2454 H2436 0.951 . S
C2454 C2455 1.366 . S
C2454 C2456 1.388 . S
C2455 C2454 1.366 . S
C2455 C2459 1.385 . S
C2456 H2437 0.951 . S
C2456 C2454 1.388 . S
C2456 C2457 1.366 . S
C2457 C2456 1.366 . S
C2457 C2458 1.414 . S
C2457 C2460 1.499 . S
C2458 H2438 0.950 . S
C2458 C2457 1.414 . S
C2458 C2459 1.374 . S
C2459 H2439 0.950 . S
C2459 C2455 1.385 . S
C2459 C2458 1.374 . S
C2460 C2457 1.499 . S
C2460 C2461 1.373 . S
C2460 C2462 1.389 . S
C2461 H2440 0.950 . S
C2461 C2460 1.373 . S
C2461 C2477 1.377 . S
C2462 C2460 1.389 . S
C2462 C2463 1.524 . S
C2462 C2476 1.377 . S
C2463 C2462 1.524 . S
C2463 C2464 1.397 . S
C2463 C2468 1.363 . S
C2464 H2441 0.950 . S
C2464 C2463 1.397 . S
C2464 C2465 1.334 . S
C2465 H2442 0.950 . S
C2465 C2464 1.334 . S
C2465 C2466 1.287 . S
C2466 C2465 1.287 . S
C2466 C2467 1.524 . S
C2466 H2485 0.913 . S
C2467 H2443 0.950 . S
C2467 C2466 1.524 . S
C2467 C2468 1.415 . S
C2468 H2444 0.950 . S
C2468 C2463 1.363 . S
C2468 C2467 1.415 . S
C2469 H2445 0.951 . S
C2469 C2470 1.366 . S
C2469 C2471 1.388 . S
C2470 C2469 1.366 . S
C2470 C2474 1.385 . S
C2471 H2446 0.951 . S
C2471 C2469 1.388 . S
C2471 C2472 1.366 . S
C2472 C2471 1.366 . S
C2472 C2473 1.414 . S
C2472 C2475 1.499 . S
C2473 H2447 0.950 . S
C2473 C2472 1.414 . S
C2473 C2474 1.374 . S
C2474 H2448 0.950 . S
C2474 C2470 1.385 . S
C2474 C2473 1.374 . S
C2475 C2472 1.499 . S
C2475 C2476 1.373 . S
C2475 C2477 1.389 . S
C2476 H2449 0.950 . S
C2476 C2462 1.377 . S
C2476 C2475 1.373 . S
C2477 C2461 1.377 . S
C2477 C2475 1.389 . S
C2477 C2478 1.524 . S
C2478 C2477 1.524 . S
C2478 C2479 1.397 . S
C2478 C2483 1.363 . S
C2479 H2450 0.950 . S
C2479 C2478 1.397 . S
C2479 C2480 1.334 . S
C2480 H2451 0.950 . S
C2480 C2479 1.334 . S
C2480 C2481 1.287 . S
C2481 C2480 1.287 . S
C2481 C2482 1.524 . S
C2481 H2484 0.999 . S
C2482 H2452 0.950 . S
C2482 C2481 1.524 . S
C2482 C2483 1.415 . S
C2483 H2453 0.950 . S
C2483 C2478 1.363 . S
C2483 C2482 1.415 . S
H2484 C2481 0.999 . S
H2485 C2466 0.913 . S
H2486 C2504 0.951 . S
H2487 C2506 0.951 . S
H2488 C2508 0.950 . S
H2489 C2509 0.950 . S
H2490 C2511 0.950 . S
H2491 C2514 0.950 . S
H2492 C2515 0.950 . S
H2493 C2517 0.950 . S
H2494 C2518 0.950 . S
H2495 C2519 0.951 . S
H2496 C2521 0.951 . S
H2497 C2523 0.950 . S
H2498 C2524 0.950 . S
H2499 C2526 0.950 . S
H2500 C2529 0.950 . S
H2501 C2530 0.950 . S
H2502 C2532 0.950 . S
H2503 C2533 0.950 . S
C2504 H2486 0.951 . S
C2504 C2505 1.366 . S
C2504 C2506 1.388 . S
C2505 C2504 1.366 . S
C2505 C2509 1.385 . S
C2506 H2487 0.951 . S
C2506 C2504 1.388 . S
C2506 C2507 1.366 . S
C2507 C2506 1.366 . S
C2507 C2508 1.414 . S
C2507 C2510 1.499 . S
C2508 H2488 0.950 . S
C2508 C2507 1.414 . S
C2508 C2509 1.374 . S
C2509 H2489 0.950 . S
C2509 C2505 1.385 . S
C2509 C2508 1.374 . S
C2510 C2507 1.499 . S
C2510 C2511 1.373 . S
C2510 C2512 1.389 . S
C2511 H2490 0.950 . S
C2511 C2510 1.373 . S
C2511 C2527 1.377 . S
C2512 C2510 1.389 . S
C2512 C2513 1.524 . S
C2512 C2526 1.377 . S
C2513 C2512 1.524 . S
C2513 C2514 1.397 . S
C2513 C2518 1.363 . S
C2514 H2491 0.950 . S
C2514 C2513 1.397 . S
C2514 C2515 1.334 . S
C2515 H2492 0.950 . S
C2515 C2514 1.334 . S
C2515 C2516 1.287 . S
C2516 C2515 1.287 . S
C2516 C2517 1.524 . S
C2516 H2535 0.913 . S
C2517 H2493 0.950 . S
C2517 C2516 1.524 . S
C2517 C2518 1.415 . S
C2518 H2494 0.950 . S
C2518 C2513 1.363 . S
C2518 C2517 1.415 . S
C2519 H2495 0.951 . S
C2519 C2520 1.366 . S
C2519 C2521 1.388 . S
C2520 C2519 1.366 . S
C2520 C2524 1.385 . S
C2521 H2496 0.951 . S
C2521 C2519 1.388 . S
C2521 C2522 1.366 . S
C2522 C2521 1.366 . S
C2522 C2523 1.414 . S
C2522 C2525 1.499 . S
C2523 H2497 0.950 . S
C2523 C2522 1.414 . S
C2523 C2524 1.374 . S
C2524 H2498 0.950 . S
C2524 C2520 1.385 . S
C2524 C2523 1.374 . S
C2525 C2522 1.499 . S
C2525 C2526 1.373 . S
C2525 C2527 1.389 . S
C2526 H2499 0.950 . S
C2526 C2512 1.377 . S
C2526 C2525 1.373 . S
C2527 C2511 1.377 . S
C2527 C2525 1.389 . S
C2527 C2528 1.524 . S
C2528 C2527 1.524 . S
C2528 C2529 1.397 . S
C2528 C2533 1.363 . S
C2529 H2500 0.950 . S
C2529 C2528 1.397 . S
C2529 C2530 1.334 . S
C2530 H2501 0.950 . S
C2530 C2529 1.334 . S
C2530 C2531 1.287 . S
C2531 C2530 1.287 . S
C2531 C2532 1.524 . S
C2531 H2534 0.999 . S
C2532 H2502 0.950 . S
C2532 C2531 1.524 . S
C2532 C2533 1.415 . S
C2533 H2503 0.950 . S
C2533 C2528 1.363 . S
C2533 C2532 1.415 . S
H2534 C2531 0.999 . S
H2535 C2516 0.913 . S
H2536 C2554 0.951 . S
H2537 C2556 0.951 . S
H2538 C2558 0.950 . S
H2539 C2559 0.950 . S
H2540 C2561 0.950 . S
H2541 C2564 0.950 . S
H2542 C2565 0.950 . S
H2543 C2567 0.950 . S
H2544 C2568 0.950 . S
H2545 C2569 0.951 . S
H2546 C2571 0.951 . S
H2547 C2573 0.950 . S
H2548 C2574 0.950 . S
H2549 C2576 0.950 . S
H2550 C2579 0.950 . S
H2551 C2580 0.950 . S
H2552 C2582 0.950 . S
H2553 C2583 0.950 . S
C2554 H2536 0.951 . S
C2554 C2555 1.366 . S
C2554 C2556 1.388 . S
C2555 C2554 1.366 . S
C2555 C2559 1.385 . S
C2556 H2537 0.951 . S
C2556 C2554 1.388 . S
C2556 C2557 1.366 . S
C2557 C2556 1.366 . S
C2557 C2558 1.414 . S
C2557 C2560 1.499 . S
C2558 H2538 0.950 . S
C2558 C2557 1.414 . S
C2558 C2559 1.374 . S
C2559 H2539 0.950 . S
C2559 C2555 1.385 . S
C2559 C2558 1.374 . S
C2560 C2557 1.499 . S
C2560 C2561 1.373 . S
C2560 C2562 1.389 . S
C2561 H2540 0.950 . S
C2561 C2560 1.373 . S
C2561 C2577 1.377 . S
C2562 C2560 1.389 . S
C2562 C2563 1.524 . S
C2562 C2576 1.377 . S
C2563 C2562 1.524 . S
C2563 C2564 1.397 . S
C2563 C2568 1.363 . S
C2564 H2541 0.950 . S
C2564 C2563 1.397 . S
C2564 C2565 1.334 . S
C2565 H2542 0.950 . S
C2565 C2564 1.334 . S
C2565 C2566 1.287 . S
C2566 C2565 1.287 . S
C2566 C2567 1.524 . S
C2566 H2585 0.913 . S
C2567 H2543 0.950 . S
C2567 C2566 1.524 . S
C2567 C2568 1.415 . S
C2568 H2544 0.950 . S
C2568 C2563 1.363 . S
C2568 C2567 1.415 . S
C2569 H2545 0.951 . S
C2569 C2570 1.366 . S
C2569 C2571 1.388 . S
C2570 C2569 1.366 . S
C2570 C2574 1.385 . S
C2571 H2546 0.951 . S
C2571 C2569 1.388 . S
C2571 C2572 1.366 . S
C2572 C2571 1.366 . S
C2572 C2573 1.414 . S
C2572 C2575 1.499 . S
C2573 H2547 0.950 . S
C2573 C2572 1.414 . S
C2573 C2574 1.374 . S
C2574 H2548 0.950 . S
C2574 C2570 1.385 . S
C2574 C2573 1.374 . S
C2575 C2572 1.499 . S
C2575 C2576 1.373 . S
C2575 C2577 1.389 . S
C2576 H2549 0.950 . S
C2576 C2562 1.377 . S
C2576 C2575 1.373 . S
C2577 C2561 1.377 . S
C2577 C2575 1.389 . S
C2577 C2578 1.524 . S
C2578 C2577 1.524 . S
C2578 C2579 1.397 . S
C2578 C2583 1.363 . S
C2579 H2550 0.950 . S
C2579 C2578 1.397 . S
C2579 C2580 1.334 . S
C2580 H2551 0.950 . S
C2580 C2579 1.334 . S
C2580 C2581 1.287 . S
C2581 C2580 1.287 . S
C2581 C2582 1.524 . S
C2581 H2584 0.999 . S
C2582 H2552 0.950 . S
C2582 C2581 1.524 . S
C2582 C2583 1.415 . S
C2583 H2553 0.950 . S
C2583 C2578 1.363 . S
C2583 C2582 1.415 . S
H2584 C2581 0.999 . S
H2585 C2566 0.913 . S
H2586 C2604 0.951 . S
H2587 C2606 0.951 . S
H2588 C2608 0.950 . S
H2589 C2609 0.950 . S
H2590 C2611 0.950 . S
H2591 C2614 0.950 . S
H2592 C2615 0.950 . S
H2593 C2617 0.950 . S
H2594 C2618 0.950 . S
H2595 C2619 0.951 . S
H2596 C2621 0.951 . S
H2597 C2623 0.950 . S
H2598 C2624 0.950 . S
H2599 C2626 0.950 . S
H2600 C2629 0.950 . S
H2601 C2630 0.950 . S
H2602 C2632 0.950 . S
H2603 C2633 0.950 . S
C2604 H2586 0.951 . S
C2604 C2605 1.366 . S
C2604 C2606 1.388 . S
C2605 C2604 1.366 . S
C2605 C2609 1.385 . S
C2606 H2587 0.951 . S
C2606 C2604 1.388 . S
C2606 C2607 1.366 . S
C2607 C2606 1.366 . S
C2607 C2608 1.414 . S
C2607 C2610 1.499 . S
C2608 H2588 0.950 . S
C2608 C2607 1.414 . S
C2608 C2609 1.374 . S
C2609 H2589 0.950 . S
C2609 C2605 1.385 . S
C2609 C2608 1.374 . S
C2610 C2607 1.499 . S
C2610 C2611 1.373 . S
C2610 C2612 1.389 . S
C2611 H2590 0.950 . S
C2611 C2610 1.373 . S
C2611 C2627 1.377 . S
C2612 C2610 1.389 . S
C2612 C2613 1.524 . S
C2612 C2626 1.377 . S
C2613 C2612 1.524 . S
C2613 C2614 1.397 . S
C2613 C2618 1.363 . S
C2614 H2591 0.950 . S
C2614 C2613 1.397 . S
C2614 C2615 1.334 . S
C2615 H2592 0.950 . S
C2615 C2614 1.334 . S
C2615 C2616 1.287 . S
C2616 C2615 1.287 . S
C2616 C2617 1.524 . S
C2616 H2635 0.913 . S
C2617 H2593 0.950 . S
C2617 C2616 1.524 . S
C2617 C2618 1.415 . S
C2618 H2594 0.950 . S
C2618 C2613 1.363 . S
C2618 C2617 1.415 . S
C2619 H2595 0.951 . S
C2619 C2620 1.366 . S
C2619 C2621 1.388 . S
C2620 C2619 1.366 . S
C2620 C2624 1.385 . S
C2621 H2596 0.951 . S
C2621 C2619 1.388 . S
C2621 C2622 1.366 . S
C2622 C2621 1.366 . S
C2622 C2623 1.414 . S
C2622 C2625 1.499 . S
C2623 H2597 0.950 . S
C2623 C2622 1.414 . S
C2623 C2624 1.374 . S
C2624 H2598 0.950 . S
C2624 C2620 1.385 . S
C2624 C2623 1.374 . S
C2625 C2622 1.499 . S
C2625 C2626 1.373 . S
C2625 C2627 1.389 . S
C2626 H2599 0.950 . S
C2626 C2612 1.377 . S
C2626 C2625 1.373 . S
C2627 C2611 1.377 . S
C2627 C2625 1.389 . S
C2627 C2628 1.524 . S
C2628 C2627 1.524 . S
C2628 C2629 1.397 . S
C2628 C2633 1.363 . S
C2629 H2600 0.950 . S
C2629 C2628 1.397 . S
C2629 C2630 1.334 . S
C2630 H2601 0.950 . S
C2630 C2629 1.334 . S
C2630 C2631 1.287 . S
C2631 C2630 1.287 . S
C2631 C2632 1.524 . S
C2631 H2634 0.999 . S
C2632 H2602 0.950 . S
C2632 C2631 1.524 . S
C2632 C2633 1.415 . S
C2633 H2603 0.950 . S
C2633 C2628 1.363 . S
C2633 C2632 1.415 . S
H2634 C2631 0.999 . S
H2635 C2616 0.913 . S
H2636 C2654 0.951 . S
H2637 C2656 0.951 . S
H2638 C2658 0.950 . S
H2639 C2659 0.950 . S
H2640 C2661 0.950 . S
H2641 C2664 0.950 . S
H2642 C2665 0.950 . S
H2643 C2667 0.950 . S
H2644 C2668 0.950 . S
H2645 C2669 0.951 . S
H2646 C2671 0.951 . S
H2647 C2673 0.950 . S
H2648 C2674 0.950 . S
H2649 C2676 0.950 . S
H2650 C2679 0.950 . S
H2651 C2680 0.950 . S
H2652 C2682 0.950 . S
H2653 C2683 0.950 . S
C2654 H2636 0.951 . S
C2654 C2655 1.366 . S
C2654 C2656 1.388 . S
C2655 C2654 1.366 . S
C2655 C2659 1.385 . S
C2656 H2637 0.951 . S
C2656 C2654 1.388 . S
C2656 C2657 1.366 . S
C2657 C2656 1.366 . S
C2657 C2658 1.414 . S
C2657 C2660 1.499 . S
C2658 H2638 0.950 . S
C2658 C2657 1.414 . S
C2658 C2659 1.374 . S
C2659 H2639 0.950 . S
C2659 C2655 1.385 . S
C2659 C2658 1.374 . S
C2660 C2657 1.499 . S
C2660 C2661 1.373 . S
C2660 C2662 1.389 . S
C2661 H2640 0.950 . S
C2661 C2660 1.373 . S
C2661 C2677 1.377 . S
C2662 C2660 1.389 . S
C2662 C2663 1.524 . S
C2662 C2676 1.377 . S
C2663 C2662 1.524 . S
C2663 C2664 1.397 . S
C2663 C2668 1.363 . S
C2664 H2641 0.950 . S
C2664 C2663 1.397 . S
C2664 C2665 1.334 . S
C2665 H2642 0.950 . S
C2665 C2664 1.334 . S
C2665 C2666 1.287 . S
C2666 C2665 1.287 . S
C2666 C2667 1.524 . S
C2666 H2685 0.913 . S
C2667 H2643 0.950 . S
C2667 C2666 1.524 . S
C2667 C2668 1.415 . S
C2668 H2644 0.950 . S
C2668 C2663 1.363 . S
C2668 C2667 1.415 . S
C2669 H2645 0.951 . S
C2669 C2670 1.366 . S
C2669 C2671 1.388 . S
C2670 C2669 1.366 . S
C2670 C2674 1.385 . S
C2671 H2646 0.951 . S
C2671 C2669 1.388 . S
C2671 C2672 1.366 . S
C2672 C2671 1.366 . S
C2672 C2673 1.414 . S
C2672 C2675 1.499 . S
C2673 H2647 0.950 . S
C2673 C2672 1.414 . S
C2673 C2674 1.374 . S
C2674 H2648 0.950 . S
C2674 C2670 1.385 . S
C2674 C2673 1.374 . S
C2675 C2672 1.499 . S
C2675 C2676 1.373 . S
C2675 C2677 1.389 . S
C2676 H2649 0.950 . S
C2676 C2662 1.377 . S
C2676 C2675 1.373 . S
C2677 C2661 1.377 . S
C2677 C2675 1.389 . S
C2677 C2678 1.524 . S
C2678 C2677 1.524 . S
C2678 C2679 1.397 . S
C2678 C2683 1.363 . S
C2679 H2650 0.950 . S
C2679 C2678 1.397 . S
C2679 C2680 1.334 . S
C2680 H2651 0.950 . S
C2680 C2679 1.334 . S
C2680 C2681 1.287 . S
C2681 C2680 1.287 . S
C2681 C2682 1.524 . S
C2681 H2684 0.999 . S
C2682 H2652 0.950 . S
C2682 C2681 1.524 . S
C2682 C2683 1.415 . S
C2683 H2653 0.950 . S
C2683 C2678 1.363 . S
C2683 C2682 1.415 . S
H2684 C2681 0.999 . S
H2685 C2666 0.913 . S
H2686 C2704 0.951 . S
H2687 C2706 0.951 . S
H2688 C2708 0.950 . S
H2689 C2709 0.950 . S
H2690 C2711 0.950 . S
H2691 C2714 0.950 . S
H2692 C2715 0.950 . S
H2693 C2717 0.950 . S
H2694 C2718 0.950 . S
H2695 C2719 0.951 . S
H2696 C2721 0.951 . S
H2697 C2723 0.950 . S
H2698 C2724 0.950 . S
H2699 C2726 0.950 . S
H2700 C2729 0.950 . S
H2701 C2730 0.950 . S
H2702 C2732 0.950 . S
H2703 C2733 0.950 . S
C2704 H2686 0.951 . S
C2704 C2705 1.366 . S
C2704 C2706 1.388 . S
C2705 C2704 1.366 . S
C2705 C2709 1.385 . S
C2706 H2687 0.951 . S
C2706 C2704 1.388 . S
C2706 C2707 1.366 . S
C2707 C2706 1.366 . S
C2707 C2708 1.414 . S
C2707 C2710 1.499 . S
C2708 H2688 0.950 . S
C2708 C2707 1.414 . S
C2708 C2709 1.374 . S
C2709 H2689 0.950 . S
C2709 C2705 1.385 . S
C2709 C2708 1.374 . S
C2710 C2707 1.499 . S
C2710 C2711 1.373 . S
C2710 C2712 1.389 . S
C2711 H2690 0.950 . S
C2711 C2710 1.373 . S
C2711 C2727 1.377 . S
C2712 C2710 1.389 . S
C2712 C2713 1.524 . S
C2712 C2726 1.377 . S
C2713 C2712 1.524 . S
C2713 C2714 1.397 . S
C2713 C2718 1.363 . S
C2714 H2691 0.950 . S
C2714 C2713 1.397 . S
C2714 C2715 1.334 . S
C2715 H2692 0.950 . S
C2715 C2714 1.334 . S
C2715 C2716 1.287 . S
C2716 C2715 1.287 . S
C2716 C2717 1.524 . S
C2716 H2735 0.913 . S
C2717 H2693 0.950 . S
C2717 C2716 1.524 . S
C2717 C2718 1.415 . S
C2718 H2694 0.950 . S
C2718 C2713 1.363 . S
C2718 C2717 1.415 . S
C2719 H2695 0.951 . S
C2719 C2720 1.366 . S
C2719 C2721 1.388 . S
C2720 C2719 1.366 . S
C2720 C2724 1.385 . S
C2721 H2696 0.951 . S
C2721 C2719 1.388 . S
C2721 C2722 1.366 . S
C2722 C2721 1.366 . S
C2722 C2723 1.414 . S
C2722 C2725 1.499 . S
C2723 H2697 0.950 . S
C2723 C2722 1.414 . S
C2723 C2724 1.374 . S
C2724 H2698 0.950 . S
C2724 C2720 1.385 . S
C2724 C2723 1.374 . S
C2725 C2722 1.499 . S
C2725 C2726 1.373 . S
C2725 C2727 1.389 . S
C2726 H2699 0.950 . S
C2726 C2712 1.377 . S
C2726 C2725 1.373 . S
C2727 C2711 1.377 . S
C2727 C2725 1.389 . S
C2727 C2728 1.524 . S
C2728 C2727 1.524 . S
C2728 C2729 1.397 . S
C2728 C2733 1.363 . S
C2729 H2700 0.950 . S
C2729 C2728 1.397 . S
C2729 C2730 1.334 . S
C2730 H2701 0.950 . S
C2730 C2729 1.334 . S
C2730 C2731 1.287 . S
C2731 C2730 1.287 . S
C2731 C2732 1.524 . S
C2731 H2734 0.999 . S
C2732 H2702 0.950 . S
C2732 C2731 1.524 . S
C2732 C2733 1.415 . S
C2733 H2703 0.950 . S
C2733 C2728 1.363 . S
C2733 C2732 1.415 . S
H2734 C2731 0.999 . S
H2735 C2716 0.913 . S
C355 C5 1.531 . S
C370 C103 1.532 . S
C405 C117 1.532 . S
C420 C19 1.531 . S
C455 C33 1.531 . S
C470 C131 1.531 . S
C505 C47 1.531 . S
C520 C145 1.532 . S
C555 C159 1.531 . S
C570 C61 1.532 . S
C605 C75 1.532 . S
C620 C89 1.531 . S
C655 C173 1.532 . S
C670 C271 1.531 . S
C705 C187 1.532 . S
C720 C285 1.531 . S
C755 C299 1.532 . S
C770 C201 1.531 . S
C805 C215 1.532 . S
C820 C313 1.531 . S
C855 C229 1.531 . S
C870 C327 1.532 . S
C905 C257 1.532 . S
C920 C243 1.531 . S
C955 C11 1.351 . S
C970 C123 1.351 . S
C1005 C137 1.351 . S
C1020 C25 1.351 . S
C1055 C151 1.351 . S
C1070 C39 1.352 . S
C1105 C53 1.351 . S
C1120 C165 1.351 . S
C1155 C67 1.351 . S
C1170 C95 1.351 . S
C1205 C81 1.352 . S
C1220 C109 1.351 . S
C1255 C291 1.351 . S
C1270 C179 1.351 . S
C1305 C193 1.351 . S
C1320 C305 1.351 . S
C1355 C319 1.352 . S
C1370 C207 1.351 . S
C1405 C333 1.351 . S
C1420 C221 1.351 . S
C1455 C263 1.351 . S
C1470 C235 1.351 . S
C1505 C249 1.352 . S
C1520 C277 1.351 . S
C1555 C9 1.597 . S
C1570 C219 1.597 . S
C1605 C233 1.597 . S
C1620 C23 1.597 . S
C1655 C247 1.597 . S
C1670 C37 1.597 . S
C1705 C51 1.597 . S
C1720 C177 1.597 . S
C1755 C65 1.597 . S
C1770 C191 1.597 . S
C1805 C205 1.597 . S
C1820 C79 1.597 . S
C1855 C303 1.597 . S
C1870 C93 1.597 . S
C1905 C317 1.597 . S
C1920 C107 1.597 . S
C1955 C331 1.597 . S
C1970 C121 1.597 . S
C2005 C261 1.597 . S
C2020 C135 1.597 . S
C2055 C149 1.597 . S
C2070 C275 1.597 . S
C2105 C163 1.597 . S
C2120 C289 1.597 . S
C2155 C0 1.390 . S
C2170 C140 1.390 . S
C2205 C154 1.391 . S
C2220 C14 1.390 . S
C2255 C84 1.390 . S
C2270 C28 1.390 . S
C2305 C42 1.390 . S
C2320 C98 1.391 . S
C2355 C56 1.390 . S
C2370 C112 1.390 . S
C2405 C70 1.390 . S
C2420 C126 1.391 . S
C2455 C168 1.391 . S
C2470 C308 1.391 . S
C2505 C182 1.390 . S
C2520 C322 1.390 . S
C2555 C196 1.390 . S
C2570 C252 1.390 . S
C2605 C266 1.390 . S
C2620 C210 1.390 . S
C2655 C224 1.390 . S
C2670 C280 1.390 . S
C2705 C238 1.390 . S
C2720 C294 1.391 . S
