# Generated by pormake.
# Topology unl, (4)-cn, num edge types: 1
# Building blocks:
#     Node 0, Type 0, BuildingBlock: NAHDIM_clean_sbu_0, # of connection points: 4
#     Node 1, Type 0, BuildingBlock: NAHDIM_clean_sbu_0, # of connection points: 4
#     Node 2, Type 0, BuildingBlock: NAHDIM_clean_sbu_0, # of connection points: 4
#     Node 3, Type 0, BuildingBlock: NAHDIM_clean_sbu_0, # of connection points: 4
#     Node 4, Type 0, BuildingBlock: NAHDIM_clean_sbu_0, # of connection points: 4
#     Node 5, Type 0, BuildingBlock: NAHDIM_clean_sbu_0, # of connection points: 4
#     Node 6, Type 0, BuildingBlock: NAHDIM_clean_sbu_0, # of connection points: 4
#     Node 7, Type 0, BuildingBlock: NAHDIM_clean_sbu_0, # of connection points: 4
#     Node 8, Type 0, BuildingBlock: NAHDIM_clean_sbu_0, # of connection points: 4
#     Node 9, Type 0, BuildingBlock: NAHDIM_clean_sbu_0, # of connection points: 4
#     Node 10, Type 0, BuildingBlock: NAHDIM_clean_sbu_0, # of connection points: 4
#     Node 11, Type 0, BuildingBlock: NAHDIM_clean_sbu_0, # of connection points: 4
#     Node 12, Type 0, BuildingBlock: NAHDIM_clean_sbu_0, # of connection points: 4
#     Node 13, Type 0, BuildingBlock: NAHDIM_clean_sbu_0, # of connection points: 4
#     Node 14, Type 0, BuildingBlock: NAHDIM_clean_sbu_0, # of connection points: 4
#     Node 15, Type 0, BuildingBlock: NAHDIM_clean_sbu_0, # of connection points: 4
#     Node 16, Type 0, BuildingBlock: NAHDIM_clean_sbu_0, # of connection points: 4
#     Node 17, Type 0, BuildingBlock: NAHDIM_clean_sbu_0, # of connection points: 4
#     Node 18, Type 0, BuildingBlock: NAHDIM_clean_sbu_0, # of connection points: 4
#     Node 19, Type 0, BuildingBlock: NAHDIM_clean_sbu_0, # of connection points: 4
#     Node 20, Type 0, BuildingBlock: NAHDIM_clean_sbu_0, # of connection points: 4
#     Node 21, Type 0, BuildingBlock: NAHDIM_clean_sbu_0, # of connection points: 4
#     Node 22, Type 0, BuildingBlock: NAHDIM_clean_sbu_0, # of connection points: 4
#     Node 23, Type 0, BuildingBlock: NAHDIM_clean_sbu_0, # of connection points: 4
#     Node 24, Type 0, BuildingBlock: NAHDIM_clean_sbu_0, # of connection points: 4
#     Node 25, Type 0, BuildingBlock: NAHDIM_clean_sbu_0, # of connection points: 4
#     Node 26, Type 0, BuildingBlock: NAHDIM_clean_sbu_0, # of connection points: 4
#     Node 27, Type 0, BuildingBlock: NAHDIM_clean_sbu_0, # of connection points: 4
#     Node 28, Type 0, BuildingBlock: NAHDIM_clean_sbu_0, # of connection points: 4
#     Node 29, Type 0, BuildingBlock: NAHDIM_clean_sbu_0, # of connection points: 4
#     Node 30, Type 0, BuildingBlock: NAHDIM_clean_sbu_0, # of connection points: 4
#     Node 31, Type 0, BuildingBlock: NAHDIM_clean_sbu_0, # of connection points: 4
#     Node 32, Type 0, BuildingBlock: NAHDIM_clean_sbu_0, # of connection points: 4
#     Node 33, Type 0, BuildingBlock: NAHDIM_clean_sbu_0, # of connection points: 4
#     Node 34, Type 0, BuildingBlock: NAHDIM_clean_sbu_0, # of connection points: 4
#     Node 35, Type 0, BuildingBlock: NAHDIM_clean_sbu_0, # of connection points: 4
#     Edge 36, Type (0, 0), BuildingBlock: KIFKEQ_clean_linker_1, # of connection points: 2
#     Edge 37, Type (0, 0), BuildingBlock: KIFKEQ_clean_linker_1, # of connection points: 2
#     Edge 38, Type (0, 0), BuildingBlock: KIFKEQ_clean_linker_1, # of connection points: 2
#     Edge 39, Type (0, 0), BuildingBlock: KIFKEQ_clean_linker_1, # of connection points: 2
#     Edge 40, Type (0, 0), BuildingBlock: KIFKEQ_clean_linker_1, # of connection points: 2
#     Edge 41, Type (0, 0), BuildingBlock: KIFKEQ_clean_linker_1, # of connection points: 2
#     Edge 42, Type (0, 0), BuildingBlock: KIFKEQ_clean_linker_1, # of connection points: 2
#     Edge 43, Type (0, 0), BuildingBlock: KIFKEQ_clean_linker_1, # of connection points: 2
#     Edge 44, Type (0, 0), BuildingBlock: KIFKEQ_clean_linker_1, # of connection points: 2
#     Edge 45, Type (0, 0), BuildingBlock: KIFKEQ_clean_linker_1, # of connection points: 2
#     Edge 46, Type (0, 0), BuildingBlock: KIFKEQ_clean_linker_1, # of connection points: 2
#     Edge 47, Type (0, 0), BuildingBlock: KIFKEQ_clean_linker_1, # of connection points: 2
#     Edge 48, Type (0, 0), BuildingBlock: KIFKEQ_clean_linker_1, # of connection points: 2
#     Edge 49, Type (0, 0), BuildingBlock: KIFKEQ_clean_linker_1, # of connection points: 2
#     Edge 50, Type (0, 0), BuildingBlock: KIFKEQ_clean_linker_1, # of connection points: 2
#     Edge 51, Type (0, 0), BuildingBlock: KIFKEQ_clean_linker_1, # of connection points: 2
#     Edge 52, Type (0, 0), BuildingBlock: KIFKEQ_clean_linker_1, # of connection points: 2
#     Edge 53, Type (0, 0), BuildingBlock: KIFKEQ_clean_linker_1, # of connection points: 2
#     Edge 54, Type (0, 0), BuildingBlock: KIFKEQ_clean_linker_1, # of connection points: 2
#     Edge 55, Type (0, 0), BuildingBlock: KIFKEQ_clean_linker_1, # of connection points: 2
#     Edge 56, Type (0, 0), BuildingBlock: KIFKEQ_clean_linker_1, # of connection points: 2
#     Edge 57, Type (0, 0), BuildingBlock: KIFKEQ_clean_linker_1, # of connection points: 2
#     Edge 58, Type (0, 0), BuildingBlock: KIFKEQ_clean_linker_1, # of connection points: 2
#     Edge 59, Type (0, 0), BuildingBlock: KIFKEQ_clean_linker_1, # of connection points: 2
#     Edge 60, Type (0, 0), BuildingBlock: KIFKEQ_clean_linker_1, # of connection points: 2
#     Edge 61, Type (0, 0), BuildingBlock: KIFKEQ_clean_linker_1, # of connection points: 2
#     Edge 62, Type (0, 0), BuildingBlock: KIFKEQ_clean_linker_1, # of connection points: 2
#     Edge 63, Type (0, 0), BuildingBlock: KIFKEQ_clean_linker_1, # of connection points: 2
#     Edge 64, Type (0, 0), BuildingBlock: KIFKEQ_clean_linker_1, # of connection points: 2
#     Edge 65, Type (0, 0), BuildingBlock: KIFKEQ_clean_linker_1, # of connection points: 2
#     Edge 66, Type (0, 0), BuildingBlock: KIFKEQ_clean_linker_1, # of connection points: 2
#     Edge 67, Type (0, 0), BuildingBlock: KIFKEQ_clean_linker_1, # of connection points: 2
#     Edge 68, Type (0, 0), BuildingBlock: KIFKEQ_clean_linker_1, # of connection points: 2
#     Edge 69, Type (0, 0), BuildingBlock: KIFKEQ_clean_linker_1, # of connection points: 2
#     Edge 70, Type (0, 0), BuildingBlock: KIFKEQ_clean_linker_1, # of connection points: 2
#     Edge 71, Type (0, 0), BuildingBlock: KIFKEQ_clean_linker_1, # of connection points: 2
#     Edge 72, Type (0, 0), BuildingBlock: KIFKEQ_clean_linker_1, # of connection points: 2
#     Edge 73, Type (0, 0), BuildingBlock: KIFKEQ_clean_linker_1, # of connection points: 2
#     Edge 74, Type (0, 0), BuildingBlock: KIFKEQ_clean_linker_1, # of connection points: 2
#     Edge 75, Type (0, 0), BuildingBlock: KIFKEQ_clean_linker_1, # of connection points: 2
#     Edge 76, Type (0, 0), BuildingBlock: KIFKEQ_clean_linker_1, # of connection points: 2
#     Edge 77, Type (0, 0), BuildingBlock: KIFKEQ_clean_linker_1, # of connection points: 2
#     Edge 78, Type (0, 0), BuildingBlock: KIFKEQ_clean_linker_1, # of connection points: 2
#     Edge 79, Type (0, 0), BuildingBlock: KIFKEQ_clean_linker_1, # of connection points: 2
#     Edge 80, Type (0, 0), BuildingBlock: KIFKEQ_clean_linker_1, # of connection points: 2
#     Edge 81, Type (0, 0), BuildingBlock: KIFKEQ_clean_linker_1, # of connection points: 2
#     Edge 82, Type (0, 0), BuildingBlock: KIFKEQ_clean_linker_1, # of connection points: 2
#     Edge 83, Type (0, 0), BuildingBlock: KIFKEQ_clean_linker_1, # of connection points: 2
#     Edge 84, Type (0, 0), BuildingBlock: KIFKEQ_clean_linker_1, # of connection points: 2
#     Edge 85, Type (0, 0), BuildingBlock: KIFKEQ_clean_linker_1, # of connection points: 2
#     Edge 86, Type (0, 0), BuildingBlock: KIFKEQ_clean_linker_1, # of connection points: 2
#     Edge 87, Type (0, 0), BuildingBlock: KIFKEQ_clean_linker_1, # of connection points: 2
#     Edge 88, Type (0, 0), BuildingBlock: KIFKEQ_clean_linker_1, # of connection points: 2
#     Edge 89, Type (0, 0), BuildingBlock: KIFKEQ_clean_linker_1, # of connection points: 2
#     Edge 90, Type (0, 0), BuildingBlock: KIFKEQ_clean_linker_1, # of connection points: 2
#     Edge 91, Type (0, 0), BuildingBlock: KIFKEQ_clean_linker_1, # of connection points: 2
#     Edge 92, Type (0, 0), BuildingBlock: KIFKEQ_clean_linker_1, # of connection points: 2
#     Edge 93, Type (0, 0), BuildingBlock: KIFKEQ_clean_linker_1, # of connection points: 2
#     Edge 94, Type (0, 0), BuildingBlock: KIFKEQ_clean_linker_1, # of connection points: 2
#     Edge 95, Type (0, 0), BuildingBlock: KIFKEQ_clean_linker_1, # of connection points: 2
#     Edge 96, Type (0, 0), BuildingBlock: KIFKEQ_clean_linker_1, # of connection points: 2
#     Edge 97, Type (0, 0), BuildingBlock: KIFKEQ_clean_linker_1, # of connection points: 2
#     Edge 98, Type (0, 0), BuildingBlock: KIFKEQ_clean_linker_1, # of connection points: 2
#     Edge 99, Type (0, 0), BuildingBlock: KIFKEQ_clean_linker_1, # of connection points: 2
#     Edge 100, Type (0, 0), BuildingBlock: KIFKEQ_clean_linker_1, # of connection points: 2
#     Edge 101, Type (0, 0), BuildingBlock: KIFKEQ_clean_linker_1, # of connection points: 2
#     Edge 102, Type (0, 0), BuildingBlock: KIFKEQ_clean_linker_1, # of connection points: 2
#     Edge 103, Type (0, 0), BuildingBlock: KIFKEQ_clean_linker_1, # of connection points: 2
#     Edge 104, Type (0, 0), BuildingBlock: KIFKEQ_clean_linker_1, # of connection points: 2
#     Edge 105, Type (0, 0), BuildingBlock: KIFKEQ_clean_linker_1, # of connection points: 2
#     Edge 106, Type (0, 0), BuildingBlock: KIFKEQ_clean_linker_1, # of connection points: 2
#     Edge 107, Type (0, 0), BuildingBlock: KIFKEQ_clean_linker_1, # of connection points: 2
# Relax obj value: 0.182
# Max RMSD: 0.223
# Mean RMSD: 0.223
data_MOF--net-unl--node1-NAHDIM_clean_sbu_0--edge1-KIFKEQ_clean_linker_1
_symmetry_space_group_name_H-M    P1
_symmetry_Int_Tables_number       1
_symmetry_cell_setting            triclinic
loop_
_symmetry_equiv_pos_as_xyz
'x, y, z'
_cell_length_a     65.626797
_cell_length_b     65.610559
_cell_length_c     39.898274
_cell_angle_alpha  89.99409
_cell_angle_beta   89.986141
_cell_angle_gamma 119.98288
loop_
_atom_site_label
_atom_site_type_symbol
_atom_site_fract_x
_atom_site_fract_y
_atom_site_fract_z
_atom_type_partial_charge
C0 C 0.23861 0.11749 0.14077 0.0
O1 O 0.22393 0.1095 0.16619 0.0
O2 O 0.17975 0.0685 0.09628 0.0
Zn3 Zn 0.19599 0.10352 0.10394 0.0
O4 O 0.18235 0.11205 0.14306 0.0
C5 C 0.17395 0.10692 0.0436 0.0
O6 O 0.15867 0.08499 0.05123 0.0
O7 O 0.23061 0.11668 0.1115 0.0
C8 C 0.16099 0.10053 0.15239 0.0
O9 O 0.14632 0.08115 0.13645 0.0
C10 C 0.19083 0.05742 0.09207 0.0
O11 O 0.21379 0.06864 0.09583 0.0
O12 O 0.19163 0.11854 0.06257 0.0
C13 C 0.87442 0.12327 0.14318 0.0
O14 O 0.89564 0.13157 0.1557 0.0
O15 O 0.91672 0.11161 0.10499 0.0
Zn16 Zn 0.88401 0.08801 0.11961 0.0
O17 O 0.88236 0.07049 0.16182 0.0
C18 C 0.86085 0.06808 0.05639 0.0
O19 O 0.85929 0.08724 0.05432 0.0
O20 O 0.86543 0.10434 0.1263 0.0
C21 C 0.88862 0.05503 0.16303 0.0
O22 O 0.8983 0.05146 0.13651 0.0
C23 C 0.93621 0.11543 0.11708 0.0
O24 O 0.9364 0.10376 0.14372 0.0
O25 O 0.87009 0.06466 0.0822 0.0
C26 C 0.87401 0.75392 0.15252 0.0
O27 O 0.87421 0.7688 0.17474 0.0
O28 O 0.88226 0.80789 0.10115 0.0
Zn29 Zn 0.90387 0.79647 0.11673 0.0
O30 O 0.92227 0.81307 0.15793 0.0
C31 C 0.92015 0.79961 0.04906 0.0
O32 O 0.89785 0.79171 0.0422 0.0
O33 O 0.88542 0.7618 0.12539 0.0
C34 C 0.93784 0.83475 0.15785 0.0
O35 O 0.94117 0.84722 0.13052 0.0
C36 C 0.87943 0.82415 0.11348 0.0
O37 O 0.89064 0.83486 0.14101 0.0
O38 O 0.92678 0.80263 0.07948 0.0
C39 C 0.12833 0.25088 0.35811 0.0
O40 O 0.10796 0.23684 0.34388 0.0
O41 O 0.08864 0.19644 0.40372 0.0
Zn42 Zn 0.12096 0.2074 0.38564 0.0
O43 O 0.12082 0.19053 0.3435 0.0
C44 C 0.13499 0.20373 0.45207 0.0
O45 O 0.12142 0.21254 0.45944 0.0
O46 O 0.13743 0.24214 0.37728 0.0
C47 C 0.11357 0.16858 0.34339 0.0
O48 O 0.10473 0.15642 0.37103 0.0
C49 C 0.06881 0.18661 0.3891 0.0
O50 O 0.06764 0.1826 0.3567 0.0
O51 O 0.13813 0.20056 0.42149 0.0
C52 C 0.74361 0.86907 0.36323 0.0
O53 O 0.75663 0.86164 0.34854 0.0
O54 O 0.79621 0.87686 0.40115 0.0
Zn55 Zn 0.78806 0.90201 0.39124 0.0
O56 O 0.80503 0.92205 0.35117 0.0
C57 C 0.8122 0.92548 0.45207 0.0
O58 O 0.82337 0.91384 0.44678 0.0
O59 O 0.75333 0.88653 0.38305 0.0
C60 C 0.82686 0.93718 0.35108 0.0
O61 O 0.83966 0.93917 0.37751 0.0
C62 C 0.8127 0.87455 0.38849 0.0
O63 O 0.82599 0.88908 0.3649 0.0
O64 O 0.79624 0.92307 0.43168 0.0
C65 C 0.11662 0.86035 0.38274 0.0
O66 O 0.11073 0.85879 0.4145 0.0
O67 O 0.11904 0.92264 0.38979 0.0
Zn68 Zn 0.09504 0.88955 0.37739 0.0
O69 O 0.0738 0.88732 0.33968 0.0
C70 C 0.07241 0.88666 0.44011 0.0
O71 O 0.08321 0.90958 0.436 0.0
O72 O 0.11171 0.87246 0.36298 0.0
C73 C 0.05924 0.89474 0.34041 0.0
O74 O 0.05846 0.90632 0.36678 0.0
C75 C 0.1223 0.94177 0.37699 0.0
O76 O 0.10992 0.94117 0.35077 0.0
O77 O 0.07491 0.87406 0.41809 0.0
C78 C 0.75587 0.87568 0.84378 0.0
O79 O 0.76922 0.88809 0.8186 0.0
O80 O 0.8127 0.92759 0.8842 0.0
Zn81 Zn 0.8003 0.89292 0.87804 0.0
O82 O 0.81565 0.88572 0.83984 0.0
C83 C 0.82371 0.89384 0.93967 0.0
O84 O 0.83761 0.91598 0.93144 0.0
O85 O 0.76542 0.87543 0.87133 0.0
C86 C 0.83716 0.89814 0.8316 0.0
O87 O 0.85069 0.91778 0.84786 0.0
C88 C 0.79927 0.93522 0.89384 0.0
O89 O 0.77655 0.9205 0.89604 0.0
O90 O 0.80674 0.88066 0.92042 0.0
C91 C 0.11389 0.86396 0.85227 0.0
O92 O 0.093 0.85486 0.83834 0.0
O93 O 0.06909 0.87338 0.88839 0.0
Zn94 Zn 0.10168 0.89788 0.87418 0.0
O95 O 0.10302 0.91465 0.83121 0.0
C96 C 0.12209 0.91851 0.93854 0.0
O97 O 0.12177 0.89856 0.94356 0.0
O98 O 0.1216 0.88277 0.86922 0.0
C99 C 0.09873 0.93154 0.83079 0.0
O100 O 0.09149 0.93687 0.85838 0.0
C101 C 0.05012 0.87312 0.88107 0.0
O102 O 0.05076 0.88905 0.86049 0.0
O103 O 0.11477 0.92196 0.91082 0.0
C104 C 0.12374 0.25305 0.86012 0.0
O105 O 0.12896 0.23902 0.84336 0.0
O106 O 0.11417 0.19933 0.89965 0.0
Zn107 Zn 0.09046 0.20944 0.88971 0.0
O108 O 0.07018 0.19341 0.8494 0.0
C109 C 0.06657 0.18515 0.94977 0.0
O110 O 0.07705 0.17305 0.94283 0.0
O111 O 0.1075 0.24429 0.88196 0.0
C112 C 0.05567 0.17145 0.84765 0.0
O113 O 0.05422 0.15773 0.87262 0.0
C114 C 0.1173 0.18411 0.88442 0.0
O115 O 0.10517 0.17409 0.85718 0.0
O116 O 0.0696 0.20182 0.93036 0.0
C117 C 0.8805 0.7493 0.63409 0.0
O118 O 0.90214 0.76235 0.64507 0.0
O119 O 0.92043 0.80364 0.59142 0.0
Zn120 Zn 0.88814 0.7936 0.60906 0.0
O121 O 0.88831 0.81098 0.65067 0.0
C122 C 0.87364 0.79768 0.5424 0.0
O123 O 0.88765 0.78968 0.53361 0.0
O124 O 0.87089 0.75896 0.618 0.0
C125 C 0.89355 0.83241 0.6491 0.0
O126 O 0.90056 0.84359 0.62036 0.0
C127 C 0.94006 0.81815 0.60449 0.0
O128 O 0.94051 0.82779 0.63354 0.0
O129 O 0.87091 0.80038 0.57331 0.0
C130 C 0.24806 0.12067 0.64354 0.0
O131 O 0.23458 0.12801 0.65695 0.0
O132 O 0.19814 0.11514 0.60202 0.0
Zn133 Zn 0.20505 0.08907 0.61121 0.0
O134 O 0.18606 0.06717 0.64863 0.0
C135 C 0.18399 0.06887 0.5476 0.0
O136 O 0.17181 0.07937 0.55388 0.0
O137 O 0.23915 0.1037 0.62287 0.0
C138 C 0.1642 0.05227 0.64708 0.0
O139 O 0.1522 0.05156 0.62033 0.0
C140 C 0.18088 0.11722 0.61191 0.0
O141 O 0.16523 0.10142 0.63227 0.0
O142 O 0.1992 0.07045 0.56874 0.0
C143 C 0.87098 0.12139 0.63215 0.0
O144 O 0.86401 0.10054 0.64525 0.0
O145 O 0.88709 0.0817 0.59534 0.0
Zn146 Zn 0.90879 0.11522 0.60917 0.0
O147 O 0.92662 0.11834 0.6517 0.0
C148 C 0.9289 0.12302 0.54254 0.0
O149 O 0.90936 0.10344 0.53559 0.0
O150 O 0.88996 0.13134 0.61535 0.0
C151 C 0.94243 0.11258 0.65353 0.0
O152 O 0.94641 0.10285 0.62744 0.0
C153 C 0.88376 0.06272 0.60874 0.0
O154 O 0.89485 0.06352 0.63654 0.0
O155 O 0.93224 0.13139 0.57207 0.0
C156 C 0.91544 0.45317 0.48153 0.0
O157 O 0.90385 0.43097 0.49069 0.0
O158 O 0.86255 0.40979 0.44023 0.0
Zn159 Zn 0.87056 0.4425 0.45375 0.0
O160 O 0.85134 0.44263 0.49313 0.0
C161 C 0.85108 0.44543 0.39013 0.0
O162 O 0.84139 0.42243 0.39121 0.0
O163 O 0.90475 0.46173 0.46543 0.0
C164 C 0.83157 0.44147 0.48906 0.0
O165 O 0.82297 0.43898 0.45865 0.0
C166 C 0.8447 0.39111 0.4507 0.0
O167 O 0.8315 0.39255 0.47427 0.0
O168 O 0.86431 0.45772 0.41409 0.0
C169 C 0.53677 0.44723 0.49392 0.0
O170 O 0.54767 0.44456 0.51971 0.0
O171 O 0.58746 0.4397 0.45008 0.0
Zn172 Zn 0.55301 0.41907 0.46026 0.0
O173 O 0.54741 0.39867 0.50069 0.0
C174 C 0.54488 0.40507 0.39097 0.0
O175 O 0.56104 0.42713 0.38595 0.0
O176 O 0.53694 0.43801 0.46602 0.0
C177 C 0.56031 0.38998 0.50826 0.0
O178 O 0.57898 0.39532 0.48997 0.0
C179 C 0.59732 0.46186 0.44624 0.0
O180 O 0.58523 0.47251 0.4521 0.0
O181 O 0.53849 0.39778 0.42075 0.0
C182 C 0.52897 0.08569 0.4764 0.0
O183 O 0.52542 0.09934 0.49678 0.0
O184 O 0.53493 0.13883 0.43286 0.0
Zn185 Zn 0.55919 0.12954 0.44337 0.0
O186 O 0.57944 0.14597 0.48353 0.0
C187 C 0.58291 0.15146 0.38107 0.0
O188 O 0.57216 0.16367 0.38471 0.0
O189 O 0.54273 0.09481 0.4516 0.0
C190 C 0.59648 0.16704 0.48287 0.0
O191 O 0.60052 0.17959 0.45546 0.0
C192 C 0.53548 0.15774 0.4415 0.0
O193 O 0.55251 0.17276 0.46099 0.0
O194 O 0.58002 0.13619 0.40302 0.0
C195 C 0.78877 0.57495 0.68072 0.0
O196 O 0.77524 0.55999 0.65769 0.0
O197 O 0.74006 0.52291 0.73462 0.0
Zn198 Zn 0.77283 0.53276 0.71943 0.0
O199 O 0.77348 0.51454 0.67919 0.0
C200 C 0.78428 0.52868 0.78795 0.0
O201 O 0.7691 0.53565 0.7945 0.0
O202 O 0.7903 0.56725 0.70926 0.0
C203 C 0.77296 0.49504 0.6829 0.0
O204 O 0.77069 0.48629 0.71318 0.0
C205 C 0.72132 0.50493 0.72465 0.0
O206 O 0.72242 0.49187 0.70056 0.0
O207 O 0.78899 0.52671 0.75762 0.0
C208 C 0.42163 0.20495 0.69512 0.0
O209 O 0.43696 0.2072 0.67213 0.0
O210 O 0.47544 0.21381 0.75028 0.0
Zn211 Zn 0.46345 0.2344 0.73266 0.0
O212 O 0.48036 0.25249 0.69138 0.0
C213 C 0.46552 0.25158 0.79945 0.0
O214 O 0.45833 0.22956 0.8073 0.0
O215 O 0.42898 0.21499 0.72328 0.0
C216 C 0.50174 0.2688 0.69226 0.0
O217 O 0.5136 0.27281 0.72035 0.0
C218 C 0.48788 0.20653 0.73594 0.0
O219 O 0.49432 0.21227 0.70458 0.0
O220 O 0.46845 0.25765 0.76878 0.0
C221 C 0.77881 0.20455 0.67131 0.0
O222 O 0.77666 0.2173 0.64769 0.0
O223 O 0.77347 0.25276 0.7228 0.0
Zn224 Zn 0.75116 0.21942 0.70884 0.0
O225 O 0.7311 0.21632 0.6688 0.0
C226 C 0.73806 0.20926 0.77781 0.0
O227 O 0.7605 0.22448 0.78211 0.0
O228 O 0.76935 0.20296 0.69969 0.0
C229 C 0.71591 0.22293 0.66892 0.0
O230 O 0.71387 0.23359 0.69551 0.0
C231 C 0.776 0.27205 0.71178 0.0
O232 O 0.76374 0.27197 0.68572 0.0
O233 O 0.72993 0.20383 0.7482 0.0
C234 C 0.41355 0.19357 0.17802 0.0
O235 O 0.42625 0.18582 0.16322 0.0
O236 O 0.46868 0.26019 0.22276 0.0
Zn237 Zn 0.45788 0.22692 0.20871 0.0
O238 O 0.47649 0.22519 0.16958 0.0
C239 C 0.46143 0.21592 0.2781 0.0
O240 O 0.45642 0.23259 0.28433 0.0
O241 O 0.42345 0.21095 0.19794 0.0
C242 C 0.49531 0.22469 0.17526 0.0
O243 O 0.50267 0.22644 0.20631 0.0
C244 C 0.48973 0.27707 0.22053 0.0
O245 O 0.50563 0.27351 0.20597 0.0
O246 O 0.4624 0.21031 0.24788 0.0
C247 C 0.78372 0.20747 0.18615 0.0
O248 O 0.77018 0.20874 0.16296 0.0
O249 O 0.73586 0.21337 0.2353 0.0
Zn250 Zn 0.7694 0.23584 0.22259 0.0
O251 O 0.77298 0.25554 0.18191 0.0
C252 C 0.77262 0.26212 0.28174 0.0
O253 O 0.75005 0.2532 0.27578 0.0
O254 O 0.78595 0.21767 0.21407 0.0
C255 C 0.76498 0.26956 0.17927 0.0
O256 O 0.7524 0.271 0.20379 0.0
C257 C 0.71703 0.20932 0.22061 0.0
O258 O 0.71817 0.21966 0.19192 0.0
O259 O 0.78484 0.2573 0.26199 0.0
C260 C 0.78991 0.5795 0.19928 0.0
O261 O 0.79911 0.56674 0.18934 0.0
O262 O 0.77746 0.52642 0.2424 0.0
Zn263 Zn 0.75438 0.53489 0.22352 0.0
O264 O 0.73892 0.51711 0.18132 0.0
C265 C 0.73273 0.53661 0.28606 0.0
O266 O 0.75326 0.55531 0.29209 0.0
O267 O 0.77039 0.56956 0.21475 0.0
C268 C 0.72207 0.496 0.18331 0.0
O269 O 0.71619 0.48579 0.21283 0.0
C270 C 0.78386 0.51294 0.22907 0.0
O271 O 0.77574 0.50386 0.19938 0.0
O272 O 0.72932 0.52591 0.2583 0.0
C273 C 0.53825 0.07926 0.95771 0.0
O274 O 0.54189 0.0842 0.9256 0.0
O275 O 0.59683 0.13828 0.95154 0.0
Zn276 Zn 0.56372 0.12953 0.96342 0.0
O277 O 0.56217 0.14988 5e-05 0.0
C278 C 0.55817 0.14052 0.89431 0.0
O279 O 0.58027 0.14608 0.89132 0.0
O280 O 0.54623 0.09599 0.97881 0.0
C281 C 0.56017 0.16774 0.99327 0.0
O282 O 0.56071 0.17391 0.96181 0.0
C283 C 0.61408 0.15918 0.95301 0.0
O284 O 0.61083 0.17582 0.96567 0.0
O285 O 0.54769 0.13281 0.9222 0.0
C286 C 0.90332 0.44873 0.98381 0.0
O287 O 0.88824 0.4501 0.00403 0.0
O288 O 0.85337 0.44627 0.93833 0.0
Zn289 Zn 0.8613 0.42092 0.94741 0.0
O290 O 0.8441 0.40038 0.98695 0.0
C291 C 0.83812 0.39842 0.88572 0.0
O292 O 0.8259 0.40881 0.89238 0.0
O293 O 0.89581 0.43675 0.95706 0.0
C294 C 0.82262 0.38425 0.98695 0.0
O295 O 0.80975 0.38092 0.9601 0.0
C296 C 0.83547 0.4472 0.9483 0.0
O297 O 0.82017 0.4307 0.96821 0.0
O298 O 0.85424 0.40095 0.90588 0.0
C299 C 0.53845 0.45089 0.98607 0.0
O300 O 0.52781 0.42879 0.99575 0.0
O301 O 0.54451 0.40586 0.94659 0.0
Zn302 Zn 0.57076 0.43861 0.95629 0.0
O303 O 0.59166 0.43936 0.99395 0.0
C304 C 0.59109 0.43834 0.89218 0.0
O305 O 0.57982 0.41552 0.89732 0.0
O306 O 0.55721 0.45897 0.96891 0.0
C307 C 0.61128 0.44042 0.9887 0.0
O308 O 0.61791 0.44005 0.95776 0.0
C309 C 0.54471 0.38731 0.95517 0.0
O310 O 0.56229 0.38914 0.9732 0.0
O311 O 0.58983 0.45177 0.91404 0.0
C312 C 0.57977 0.77855 0.81817 0.0
O313 O 0.56835 0.75641 0.82764 0.0
O314 O 0.52694 0.73595 0.77729 0.0
Zn315 Zn 0.53431 0.76793 0.79327 0.0
O316 O 0.51491 0.76692 0.83304 0.0
C317 C 0.53021 0.78004 0.72492 0.0
O318 O 0.53788 0.76552 0.71763 0.0
O319 O 0.56863 0.78723 0.80364 0.0
C320 C 0.49475 0.7647 0.82808 0.0
O321 O 0.48656 0.7616 0.79733 0.0
C322 C 0.5076 0.71701 0.78185 0.0
O323 O 0.4912 0.71732 0.80033 0.0
O324 O 0.52762 0.78383 0.75544 0.0
C325 C 0.21156 0.78564 0.82166 0.0
O326 O 0.22405 0.78437 0.84647 0.0
O327 O 0.2632 0.78278 0.77745 0.0
Zn328 Zn 0.22926 0.7592 0.78702 0.0
O329 O 0.22472 0.73886 0.8274 0.0
C330 C 0.22309 0.7454 0.71726 0.0
O331 O 0.2397 0.76733 0.7126 0.0
O332 O 0.21129 0.77621 0.79373 0.0
C333 C 0.226 0.72018 0.82539 0.0
O334 O 0.2317 0.71457 0.79667 0.0
C335 C 0.28002 0.77858 0.7806 0.0
O336 O 0.2758 0.75839 0.79336 0.0
O337 O 0.21584 0.73819 0.74682 0.0
C338 C 0.21103 0.42748 0.81244 0.0
O339 O 0.21599 0.44291 0.83654 0.0
O340 O 0.21573 0.48231 0.76258 0.0
Zn341 Zn 0.23702 0.46915 0.7719 0.0
O342 O 0.25884 0.48654 0.81022 0.0
C343 C 0.25681 0.48525 0.70551 0.0
O344 O 0.24375 0.49522 0.70603 0.0
O345 O 0.21814 0.43472 0.78286 0.0
C346 C 0.2781 0.50556 0.80533 0.0
O347 O 0.28349 0.51425 0.77486 0.0
C348 C 0.19509 0.46951 0.75106 0.0
O349 O 0.18681 0.44679 0.74771 0.0
O350 O 0.25651 0.47312 0.7306 0.0
C351 C 0.44442 0.91111 0.03727 0.0
O352 O 0.43081 0.90569 0.0638 0.0
O353 O 0.39541 0.85303 0.05075 0.0
Zn354 Zn 0.4284 0.86163 0.0382 0.0
O355 O 0.42929 0.84059 0.00207 0.0
C356 C 0.43764 0.85845 0.10892 0.0
O357 O 0.41947 0.86135 0.11397 0.0
O358 O 0.44604 0.89497 0.02206 0.0
C359 C 0.43138 0.82286 0.00945 0.0
O360 O 0.43153 0.81747 0.04113 0.0
C361 C 0.37879 0.83182 0.05204 0.0
O362 O 0.38278 0.81498 0.04243 0.0
O363 O 0.44461 0.85859 0.07914 0.0
C364 C 0.07705 0.53641 0.03517 0.0
O365 O 0.09041 0.52775 0.02592 0.0
O366 O 0.13042 0.55033 0.07534 0.0
Zn367 Zn 0.12125 0.57324 0.05762 0.0
O368 O 0.13783 0.58978 0.01525 0.0
C369 C 0.12349 0.59263 0.1233 0.0
O370 O 0.10945 0.5705 0.13148 0.0
O371 O 0.08644 0.55628 0.04971 0.0
C372 C 0.16007 0.60218 0.01282 0.0
O373 O 0.17327 0.60286 0.03804 0.0
C374 C 0.14209 0.54196 0.06153 0.0
O375 O 0.14996 0.54823 0.03081 0.0
O376 O 0.13002 0.59784 0.09301 0.0
C377 C 0.46808 0.55369 0.03381 0.0
O378 O 0.47977 0.57358 0.05033 0.0
O379 O 0.45293 0.59765 0.05004 0.0
Zn380 Zn 0.43054 0.56497 0.03371 0.0
O381 O 0.41228 0.56446 0.99279 0.0
C382 C 0.4089 0.53582 0.09321 0.0
O383 O 0.42615 0.53116 0.09187 0.0
O384 O 0.44723 0.54697 0.02411 0.0
C385 C 0.3934 0.56523 0.99616 0.0
O386 O 0.38704 0.568 0.02626 0.0
C387 C 0.45357 0.61635 0.04011 0.0
O388 O 0.43992 0.61527 0.01528 0.0
O389 O 0.40754 0.54906 0.07116 0.0
C390 C 0.08812 0.556 0.53269 0.0
O391 O 0.09594 0.57593 0.549 0.0
O392 O 0.14683 0.60162 0.54602 0.0
Zn393 Zn 0.13724 0.56843 0.53298 0.0
O394 O 0.15509 0.56686 0.49274 0.0
C395 C 0.13026 0.54173 0.59511 0.0
O396 O 0.10837 0.53715 0.5937 0.0
O397 O 0.10257 0.54959 0.52333 0.0
C398 C 0.17348 0.56527 0.49666 0.0
O399 O 0.18149 0.56611 0.5271 0.0
C400 C 0.16825 0.61784 0.54606 0.0
O401 O 0.18429 0.61331 0.53438 0.0
O402 O 0.14466 0.55413 0.57229 0.0
C403 C 0.45112 0.5383 0.51718 0.0
O404 O 0.42964 0.5298 0.5056 0.0
O405 O 0.41113 0.55318 0.55851 0.0
Zn406 Zn 0.44368 0.57536 0.54165 0.0
O407 O 0.4438 0.59319 0.50049 0.0
C408 C 0.45746 0.59103 0.6089 0.0
O409 O 0.44415 0.56841 0.61491 0.0
O410 O 0.4607 0.5577 0.53294 0.0
C411 C 0.44121 0.61106 0.50356 0.0
O412 O 0.43731 0.61676 0.53349 0.0
C413 C 0.3916 0.54803 0.54507 0.0
O414 O 0.39136 0.55702 0.51575 0.0
O415 O 0.46039 0.59833 0.5788 0.0
C416 C 0.45223 0.91092 0.51751 0.0
O417 O 0.44448 0.89604 0.49233 0.0
O418 O 0.4583 0.85978 0.57011 0.0
Zn419 Zn 0.43404 0.86846 0.55712 0.0
O420 O 0.41469 0.84977 0.51751 0.0
C421 C 0.41739 0.85966 0.62608 0.0
O422 O 0.43858 0.86336 0.63274 0.0
O423 O 0.44983 0.90309 0.54723 0.0
C424 C 0.39631 0.82982 0.52163 0.0
O425 O 0.39075 0.8209 0.55196 0.0
C426 C 0.45692 0.84023 0.56316 0.0
O427 O 0.4395 0.82495 0.54444 0.0
O428 O 0.412 0.86139 0.59603 0.0
C429 C 0.21444 0.42534 0.31116 0.0
O430 O 0.22605 0.44063 0.33497 0.0
O431 O 0.26523 0.47933 0.26192 0.0
Zn432 Zn 0.23113 0.46735 0.27171 0.0
O433 O 0.22738 0.48496 0.31029 0.0
C434 C 0.19539 0.46286 0.22483 0.0
O435 O 0.18086 0.44708 0.24629 0.0
O436 O 0.21422 0.43275 0.28183 0.0
C437 C 0.22753 0.5042 0.30553 0.0
O438 O 0.23095 0.51298 0.27511 0.0
C439 C 0.27207 0.4659 0.24958 0.0
O440 O 0.25676 0.44343 0.24572 0.0
O441 O 0.21735 0.47324 0.2305 0.0
C442 C 0.56947 0.78979 0.31573 0.0
O443 O 0.55434 0.78675 0.33949 0.0
O444 O 0.5178 0.78962 0.26618 0.0
Zn445 Zn 0.52749 0.76554 0.2756 0.0
O446 O 0.50943 0.74408 0.31418 0.0
C447 C 0.50768 0.74391 0.21141 0.0
O448 O 0.49504 0.75413 0.21571 0.0
O449 O 0.56194 0.78225 0.28641 0.0
C450 C 0.49172 0.72371 0.30964 0.0
O451 O 0.48415 0.7167 0.279 0.0
C452 C 0.49751 0.78663 0.27253 0.0
O453 O 0.4821 0.76742 0.28819 0.0
O454 O 0.52258 0.74629 0.23369 0.0
C455 C 0.20685 0.7851 0.2925 0.0
O456 O 0.20313 0.77641 0.26201 0.0
O457 O 0.22567 0.73917 0.28117 0.0
Zn458 Zn 0.24403 0.77345 0.29319 0.0
O459 O 0.26863 0.78011 0.328 0.0
C460 C 0.25305 0.78276 0.22237 0.0
O461 O 0.23254 0.76344 0.21957 0.0
O462 O 0.22313 0.7854 0.31005 0.0
C463 C 0.27297 0.76522 0.34173 0.0
O464 O 0.26034 0.74287 0.33368 0.0
C465 C 0.20419 0.72495 0.28783 0.0
O466 O 0.1925 0.73188 0.30696 0.0
O467 O 0.261 0.79081 0.2514 0.0
H468 H 0.14462 0.03152 0.07383 0.0
H469 H 0.20944 0.02948 0.07618 0.0
H470 H 0.12626 0.99551 0.04074 0.0
H471 H 0.19103 0.99352 0.04279 0.0
H472 H 0.1445 0.9201 0.99731 0.0
H473 H 0.15918 0.95106 0.03997 0.0
H474 H 0.13354 0.98903 0.98161 0.0
H475 H 0.11885 0.9583 0.93929 0.0
C476 C 0.15485 0.0232 0.06779 0.0
C477 C 0.17861 0.03356 0.07724 0.0
C478 C 0.14435 0.00264 0.04868 0.0
C479 C 0.15733 0.99193 0.03877 0.0
C480 C 0.18058 0.00136 0.05013 0.0
C481 C 0.19115 0.02202 0.06915 0.0
C482 C 0.14191 0.93501 0.99373 0.0
C483 C 0.1306 0.9368 0.96487 0.0
C484 C 0.15035 0.95272 0.01809 0.0
C485 C 0.14738 0.97237 0.0142 0.0
C486 C 0.13576 0.97392 0.98559 0.0
C487 C 0.12753 0.95639 0.96117 0.0
H488 H 0.94134 0.14249 0.06246 0.0
H489 H 0.98051 0.12248 0.1287 0.0
H490 H 0.97537 0.1625 0.02618 0.0
H491 H 0.01501 0.14321 0.09258 0.0
H492 H 0.05374 0.14828 0.99257 0.0
H493 H 0.0249 0.13536 0.03748 0.0
H494 H 0.01478 0.19457 0.01863 0.0
H495 H 0.04324 0.20718 0.97293 0.0
C496 C 0.95738 0.14274 0.06965 0.0
C497 C 0.9581 0.1306 0.09825 0.0
C498 C 0.97701 0.15441 0.04892 0.0
C499 C -0.00211 0.15432 0.05631 0.0
C500 C -0.00096 0.14328 0.08592 0.0
C501 C 0.97934 0.13154 0.10672 0.0
C502 C 0.04553 0.15868 0.99815 0.0
C503 C 0.05056 0.17859 0.97889 0.0
C504 C 0.02913 0.15138 0.02416 0.0
C505 C 0.01745 0.16387 0.03161 0.0
C506 C 0.02321 0.18435 0.01321 0.0
C507 C 0.03956 0.19161 0.98708 0.0
H508 H 0.79693 0.84973 0.96574 0.0
H509 H 0.86102 0.91572 0.98252 0.0
H510 H 0.80628 0.83248 0.01317 0.0
H511 H 0.87064 0.89827 0.02942 0.0
H512 H 0.8775 0.86453 0.12345 0.0
H513 H 0.86043 0.88142 0.08581 0.0
H514 H 0.83541 0.82072 0.02118 0.0
H515 H 0.8519 0.80374 0.05883 0.0
C516 C 0.81296 0.8606 0.97965 0.0
C517 C 0.82841 0.884 0.97008 0.0
C518 C 0.81832 0.85069 0.0068 0.0
C519 C 0.83929 0.86394 0.02489 0.0
C520 C 0.85422 0.88766 0.01625 0.0
C521 C 0.84881 0.8976 0.98915 0.0
C522 C 0.86793 0.85461 0.10155 0.0
C523 C 0.86626 0.83292 0.09393 0.0
C524 C 0.8583 0.86436 0.07989 0.0
C525 C 0.84673 0.8525 0.05038 0.0
C526 C 0.84398 0.83023 0.04385 0.0
C527 C 0.85362 0.82055 0.06536 0.0
H528 H 0.96808 0.16656 0.54512 0.0
H529 H 0.93204 0.10494 0.48228 0.0
H530 H 0.00055 0.18381 0.50539 0.0
H531 H 0.96493 0.12185 0.44306 0.0
H532 H 0.02287 0.16573 0.36766 0.0
H533 H 0.98768 0.1523 0.4024 0.0
H534 H 0.03133 0.17622 0.49102 0.0
H535 H 0.06613 0.1901 0.45665 0.0
C536 C 0.96706 0.15672 0.52276 0.0
C537 C 0.94762 0.13428 0.51702 0.0
C538 C 0.98572 0.16656 0.50005 0.0
C539 C 0.98551 0.15408 0.47125 0.0
C540 C 0.9656 0.13203 0.46482 0.0
C541 C 0.9468 0.12227 0.48742 0.0
C542 C 0.02488 0.16826 0.39455 0.0
C543 C 0.0473 0.17899 0.40935 0.0
C544 C 0.00474 0.16048 0.41444 0.0
C545 C 0.00667 0.16328 0.44949 0.0
C546 C 0.02915 0.17421 0.46409 0.0
C547 C 0.04917 0.18202 0.44432 0.0
H548 H 0.78598 0.83863 0.43127 0.0
H549 H 0.8537 0.87346 0.38202 0.0
H550 H 0.79855 0.81597 0.46497 0.0
H551 H 0.86647 0.85112 0.41637 0.0
H552 H 0.8788 0.79838 0.47415 0.0
H553 H 0.86173 0.81274 0.43235 0.0
H554 H 0.8262 0.82804 0.51116 0.0
H555 H 0.84281 0.81344 0.55263 0.0
C556 C 0.80346 0.84124 0.42734 0.0
C557 C 0.81898 0.85809 0.40436 0.0
C558 C 0.81069 0.82833 0.44676 0.0
C559 C 0.83364 0.83208 0.44378 0.0
C560 C 0.84864 0.84776 0.41918 0.0
C561 C 0.84135 0.86062 0.39957 0.0
C562 C 0.86713 0.80458 0.48246 0.0
C563 C 0.86222 0.80485 0.51672 0.0
C564 C 0.85745 0.81288 0.45854 0.0
C565 C 0.84258 0.82147 0.46842 0.0
C566 C 0.83726 0.82118 0.50262 0.0
C567 C 0.84695 0.81297 0.52646 0.0
H568 H 0.15059 0.94847 0.43058 0.0
H569 H 0.12705 0.98517 0.36532 0.0
H570 H 0.16903 0.98244 0.46709 0.0
H571 H 0.14628 0.01973 0.40164 0.0
H572 H 0.14785 0.05568 0.5033 0.0
H573 H 0.13737 0.02831 0.45675 0.0
H574 H 0.19898 0.02228 0.47585 0.0
H575 H 0.20903 0.04909 0.5232 0.0
C576 C 0.1498 0.96402 0.42359 0.0
C577 C 0.13704 0.96399 0.39529 0.0
C578 C 0.16058 0.98363 0.44446 0.0
C579 C 0.15898 0.00377 0.43748 0.0
C580 C 0.14749 0.00432 0.408 0.0
C581 C 0.13663 0.9846 0.38706 0.0
C582 C 0.1593 0.04871 0.49736 0.0
C583 C 0.17906 0.05424 0.51726 0.0
C584 C 0.15341 0.03317 0.47043 0.0
C585 C 0.16725 0.02296 0.46267 0.0
C586 C 0.18771 0.0295 0.48153 0.0
C587 C 0.1935 0.04489 0.50863 0.0
H588 H 0.86982 0.03219 0.04745 0.0
H589 H 0.83372 0.06526 0.00241 0.0
H590 H 0.85634 0.00352 0.00225 0.0
H591 H 0.82013 0.03629 0.95694 0.0
H592 H 0.776 0.95696 0.91802 0.0
H593 H 0.79222 0.992 0.95332 0.0
H594 H 0.86185 0.00177 0.94005 0.0
H595 H 0.84574 0.96676 0.90489 0.0
C596 C 0.85905 0.03339 0.02784 0.0
C597 C 0.85275 0.05093 0.02857 0.0
C598 C 0.85153 0.0171 0.00176 0.0
C599 C 0.83735 0.01782 0.97596 0.0
C600 C 0.83104 0.03537 0.97655 0.0
C601 C 0.83884 0.05192 0.00252 0.0
C602 C 0.79483 0.96687 0.92202 0.0
C603 C 0.80952 0.95886 0.9091 0.0
C604 C 0.80412 0.98698 0.94213 0.0
C605 C 0.82822 -0.00066 0.9498 0.0
C606 C 0.84313 0.99232 0.93493 0.0
C607 C 0.8339 0.97233 0.91465 0.0
H608 H 0.96707 0.81513 0.05493 0.0
H609 H 0.9128 0.79965 0.9815 0.0
H610 H 0.99642 0.82913 0.01064 0.0
H611 H 0.9423 0.81342 0.93696 0.0
H612 H 0.00834 0.87302 0.88091 0.0
H613 H 0.97527 0.85174 0.91908 0.0
H614 H 0.00969 0.81636 0.96198 0.0
H615 H 0.0429 0.83788 0.92431 0.0
C616 C 0.96135 0.81445 0.02928 0.0
C617 C 0.93761 0.80639 0.02177 0.0
C618 C 0.97817 0.82232 0.00383 0.0
C619 C 0.97168 0.82234 0.97026 0.0
C620 C 0.94785 0.81379 0.96262 0.0
C621 C 0.93097 0.80581 0.98812 0.0
C622 C 0.00867 0.8604 0.89807 0.0
C623 C 0.02841 0.85742 0.89992 0.0
C624 C 0.98967 0.84813 0.91987 0.0
C625 C 0.99004 0.83262 0.94387 0.0
C626 C 0.00912 0.82855 0.94422 0.0
C627 C 0.02809 0.84081 0.9225 0.0
H628 H 0.1199 0.14483 0.86831 0.0
H629 H 0.14624 0.20275 0.93836 0.0
H630 H 0.13775 0.12665 0.90176 0.0
H631 H 0.16353 0.18445 0.97192 0.0
H632 H 0.20141 0.15216 0.02136 0.0
H633 H 0.19237 0.17189 0.97682 0.0
H634 H 0.12759 0.10738 0.95635 0.0
H635 H 0.13684 0.08757 0.00023 0.0
C636 C 0.12984 0.15389 0.89046 0.0
C637 C 0.1314 0.17508 0.90091 0.0
C638 C 0.13992 0.1434 0.90974 0.0
C639 C 0.15183 0.15396 0.9397 0.0
C640 C 0.15466 0.17591 0.94887 0.0
C641 C 0.14458 0.18634 0.9297 0.0
C642 C 0.18539 0.14212 0.00705 0.0
C643 C 0.16969 0.11837 0.01462 0.0
C644 C 0.18019 0.15344 0.98159 0.0
C645 C 0.15919 0.14126 0.96317 0.0
C646 C 0.14405 0.11723 0.96975 0.0
C647 C 0.14925 0.10591 0.99516 0.0
H648 H 0.98485 0.85301 0.61989 0.0
H649 H 0.94458 0.80069 0.54478 0.0
H650 H 0.0197 0.86827 0.58417 0.0
H651 H 0.97903 0.81619 0.50904 0.0
H652 H 0.04719 0.83991 0.45646 0.0
H653 H 0.0179 0.82174 0.5008 0.0
H654 H 0.03138 0.89043 0.53214 0.0
H655 H 0.06098 0.90858 0.48852 0.0
C656 C 0.98349 0.8446 0.59598 0.0
C657 C 0.96189 0.8258 0.58504 0.0
C658 C 0.00341 0.85342 0.57545 0.0
C659 C 0.00211 0.84355 0.54366 0.0
C660 C 0.98076 0.82405 0.5335 0.0
C661 C 0.96091 0.81527 0.55394 0.0
C662 C 0.0441 0.85114 0.47309 0.0
C663 C 0.05621 0.87567 0.46872 0.0
C664 C 0.02727 0.84072 0.49842 0.0
C665 C 0.02217 0.85462 0.51985 0.0
C666 C 0.03504 0.87921 0.51635 0.0
C667 C 0.05189 0.88962 0.4911 0.0
H668 H 0.16529 0.18691 0.44547 0.0
H669 H 0.12637 0.20181 0.51946 0.0
H670 H 0.17832 0.16998 0.48882 0.0
H671 H 0.13971 0.18502 0.56307 0.0
H672 H 0.14056 0.11997 0.61264 0.0
H673 H 0.13168 0.14486 0.57716 0.0
H674 H 0.20282 0.17961 0.53908 0.0
H675 H 0.2116 0.15457 0.57402 0.0
C676 C 0.15977 0.18687 0.47107 0.0
C677 C 0.1447 0.19559 0.47897 0.0
C678 C 0.16738 0.1773 0.49599 0.0
C679 C 0.16005 0.17618 0.5294 0.0
C680 C 0.14549 0.18549 0.53751 0.0
C681 C 0.13796 0.19519 0.51255 0.0
C682 C 0.15443 0.13326 0.59723 0.0
C683 C 0.17665 0.13503 0.5957 0.0
C684 C 0.14936 0.14756 0.57696 0.0
C685 C 0.16646 0.16392 0.55493 0.0
C686 C 0.18915 0.16681 0.55527 0.0
C687 C 0.19419 0.15252 0.57541 0.0
H688 H 0.87718 0.01903 0.62425 0.0
H689 H 0.85778 0.05564 0.55229 0.0
H690 H 0.85652 0.98313 0.59074 0.0
H691 H 0.83781 0.02023 0.51871 0.0
H692 H 0.84924 0.93907 0.49492 0.0
H693 H 0.86332 0.97001 0.53705 0.0
H694 H 0.80495 0.9809 0.51526 0.0
H695 H 0.79122 0.95039 0.47243 0.0
C696 C 0.86833 0.01937 0.60152 0.0
C697 C 0.86928 0.04024 0.59082 0.0
C698 C 0.85662 -0.00114 0.58224 0.0
C699 C 0.8456 -0.00117 0.55197 0.0
C700 C 0.84581 0.01949 0.54208 0.0
C701 C 0.85747 0.0399 0.56126 0.0
C702 C 0.83926 0.9479 0.49934 0.0
C703 C 0.81929 0.9425 0.48 0.0
C704 C 0.84725 0.96552 0.52371 0.0
C705 C 0.83537 0.97806 0.52937 0.0
C706 C 0.81474 0.97186 0.5111 0.0
C707 C 0.80683 0.95432 0.48662 0.0
H708 H 0.81809 0.28157 0.3037 0.0
H709 H 0.75215 0.27875 0.32499 0.0
H710 H 0.83665 0.30944 0.34957 0.0
H711 H 0.77079 0.30702 0.37004 0.0
H712 H 0.80511 0.34848 0.46176 0.0
H713 H 0.78843 0.31428 0.42482 0.0
H714 H 0.84859 0.34998 0.35921 0.0
H715 H 0.86551 0.38372 0.39645 0.0
C716 C 0.80755 0.28685 0.3182 0.0
C717 C 0.7837 0.2781 0.31052 0.0
C718 C 0.81819 0.30286 0.34444 0.0
C719 C 0.80524 0.31053 0.36345 0.0
C720 C 0.78123 0.30123 0.3563 0.0
C721 C 0.77057 0.28517 0.33021 0.0
C722 C 0.81499 0.34882 0.43981 0.0
C723 C 0.83649 0.36894 0.43184 0.0
C724 C 0.80535 0.32928 0.41851 0.0
C725 C 0.81699 0.32951 0.38878 0.0
C726 C 0.8392 0.34908 0.38198 0.0
C727 C 0.84886 0.36854 0.4033 0.0
H728 H 0.62274 0.50875 0.43057 0.0
H729 H 0.62414 0.4437 0.42335 0.0
H730 H 0.65742 0.52802 0.39447 0.0
H731 H 0.65872 0.46302 0.38749 0.0
H732 H 0.69205 0.49442 0.28524 0.0
H733 H 0.66186 0.47768 0.32829 0.0
H734 H 0.70093 0.53992 0.38893 0.0
H735 H 0.73146 0.55688 0.34561 0.0
C736 C 0.63068 0.49868 0.42184 0.0
C737 C 0.62049 0.47461 0.42946 0.0
C738 C 0.65057 0.50975 0.40127 0.0
C739 C 0.66049 0.49689 0.38783 0.0
C740 C 0.65115 0.47322 0.39709 0.0
C741 C 0.63141 0.46221 0.41777 0.0
C742 C 0.69427 0.50462 0.30768 0.0
C743 C 0.71417 0.527 0.31201 0.0
C744 C 0.67705 0.49492 0.33248 0.0
C745 C 0.6792 0.50741 0.36208 0.0
C746 C 0.69888 0.52994 0.36632 0.0
C747 C 0.71633 0.5396 0.34157 0.0
H748 H 0.49662 0.12966 0.40407 0.0
H749 H 0.53855 0.20093 0.44037 0.0
H750 H 0.47456 0.14191 0.36846 0.0
H751 H 0.51679 0.21328 0.40413 0.0
H752 H 0.46568 0.22677 0.345 0.0
H753 H 0.47935 0.21088 0.38948 0.0
H754 H 0.48581 0.1652 0.31755 0.0
H755 H 0.47185 0.18068 0.27346 0.0
C756 C 0.50093 0.14789 0.40479 0.0
C757 C 0.51957 0.1644 0.42468 0.0
C758 C 0.48835 0.15492 0.38425 0.0
C759 C 0.49419 0.17863 0.38302 0.0
C760 C 0.51178 0.19485 0.40459 0.0
C761 C 0.52432 0.18778 0.42529 0.0
C762 C 0.46974 0.21312 0.33881 0.0
C763 C 0.46779 0.20506 0.30566 0.0
C764 C 0.47766 0.20411 0.36426 0.0
C765 C 0.48366 0.18679 0.35707 0.0
C766 C 0.48099 0.17826 0.32409 0.0
C767 C 0.47315 0.18728 0.29871 0.0
H768 H 0.61313 0.4839 0.87018 0.0
H769 H 0.60421 0.41549 0.8476 0.0
H770 H 0.64133 0.501 0.82442 0.0
H771 H 0.63298 0.43267 0.80276 0.0
H772 H 0.67795 0.46639 0.71289 0.0
H773 H 0.64324 0.45102 0.74884 0.0
H774 H 0.68077 0.50998 0.81598 0.0
H775 H 0.7149 0.52564 0.77972 0.0
C776 C 0.61713 0.4725 0.85536 0.0
C777 C 0.60665 0.4484 0.86274 0.0
C778 C 0.63335 0.48231 0.82921 0.0
C779 C 0.63962 0.46827 0.81007 0.0
C780 C 0.62838 0.44398 0.81665 0.0
C781 C 0.612 0.43414 0.84259 0.0
C782 C 0.67859 0.47625 0.73502 0.0
C783 C 0.69926 0.4971 0.7436 0.0
C784 C 0.65876 0.46738 0.75574 0.0
C785 C 0.65926 0.47913 0.7855 0.0
C786 C 0.67958 0.50058 0.7931 0.0
C787 C 0.69929 0.5095 0.77236 0.0
H788 H 0.47764 0.19282 0.80097 0.0
H789 H 0.51679 0.18963 0.71593 0.0
H790 H 0.49319 0.17347 0.83546 0.0
H791 H 0.53199 0.16941 0.75062 0.0
H792 H 0.51137 0.12563 0.88825 0.0
H793 H 0.49249 0.13743 0.84604 0.0
H794 H 0.55944 0.17921 0.79648 0.0
H795 H 0.57813 0.1667 0.83801 0.0
C796 C 0.48933 0.18768 0.78945 0.0
C797 C 0.49609 0.19293 0.7557 0.0
C798 C 0.49811 0.17634 0.80924 0.0
C799 C 0.51379 0.16978 0.79583 0.0
C800 C 0.52011 0.17444 0.76179 0.0
C801 C 0.51132 0.18591 0.74189 0.0
C802 C 0.52199 0.13708 0.86807 0.0
C803 C 0.54629 0.14549 0.8667 0.0
C804 C 0.51119 0.14392 0.84395 0.0
C805 C 0.52451 0.15956 0.81815 0.0
C806 C 0.54861 0.167 0.81583 0.0
C807 C 0.55937 0.15995 0.83979 0.0
H808 H 0.86204 0.37732 0.86149 0.0
H809 H 0.80139 0.38498 0.84243 0.0
H810 H 0.85116 0.35014 0.81444 0.0
H811 H 0.79012 0.3573 0.79614 0.0
H812 H 0.78035 0.31556 0.70269 0.0
H813 H 0.79898 0.34922 0.7407 0.0
H814 H 0.82091 0.31051 0.80461 0.0
H815 H 0.80306 0.27741 0.76645 0.0
C816 C 0.84642 0.37326 0.84721 0.0
C817 C 0.83244 0.38311 0.85592 0.0
C818 C 0.84015 0.35763 0.82028 0.0
C819 C 0.81967 0.3514 0.80161 0.0
C820 C 0.80617 0.36193 0.80965 0.0
C821 C 0.81252 0.37766 0.83643 0.0
C822 C 0.78956 0.31445 0.72452 0.0
C823 C 0.79 0.29371 0.7317 0.0
C824 C 0.80008 0.33366 0.74643 0.0
C825 C 0.81125 0.3325 0.77589 0.0
C826 C 0.81271 0.31218 0.78203 0.0
C827 C 0.80228 0.29307 0.76019 0.0
H828 H 0.5591 0.41284 0.32539 0.0
H829 H 0.50876 0.35971 0.39237 0.0
H830 H 0.54457 0.38437 0.27945 0.0
H831 H 0.49451 0.33139 0.34673 0.0
H832 H 0.46139 0.28904 0.25525 0.0
H833 H 0.47354 0.32238 0.29283 0.0
H834 H 0.54615 0.34816 0.26595 0.0
H835 H 0.53402 0.31496 0.22793 0.0
C836 C 0.54482 0.39518 0.33025 0.0
C837 C 0.53515 0.38848 0.36255 0.0
C838 C 0.53659 0.37888 0.30398 0.0
C839 C 0.5184 0.35568 0.30948 0.0
C840 C 0.50832 0.34923 0.34157 0.0
C841 C 0.51662 0.36542 0.36781 0.0
C842 C 0.47992 0.30201 0.25688 0.0
C843 C 0.49678 0.29917 0.23895 0.0
C844 C 0.48687 0.32105 0.27854 0.0
C845 C 0.51081 0.33768 0.2827 0.0
C846 C 0.52755 0.33568 0.26317 0.0
C847 C 0.52061 0.31659 0.24149 0.0
H848 H 0.67408 0.20424 0.20429 0.0
H849 H 0.70898 0.18412 0.27809 0.0
H850 H 0.63852 0.18653 0.23881 0.0
H851 H 0.67395 0.1671 0.31267 0.0
H852 H 0.60459 0.12682 0.36292 0.0
H853 H 0.63378 0.13653 0.31894 0.0
H854 H 0.62772 0.19704 0.29169 0.0
H855 H 0.59804 0.18694 0.33502 0.0
C856 C 0.67407 0.19576 0.22758 0.0
C857 C 0.69442 0.19578 0.23859 0.0
C858 C 0.65377 0.18577 0.24746 0.0
C859 C 0.65344 0.17556 0.27862 0.0
C860 C 0.67344 0.17456 0.28868 0.0
C861 C 0.69364 0.18451 0.2689 0.0
C862 C 0.60931 0.14206 0.34731 0.0
C863 C 0.59922 0.15629 0.35273 0.0
C864 C 0.62608 0.14765 0.32215 0.0
C865 C 0.63325 0.16768 0.30199 0.0
C866 C 0.62242 0.18134 0.3065 0.0
C867 C 0.60554 0.17566 0.33156 0.0
H868 H 0.81984 0.4238 0.33918 0.0
H869 H 0.86907 0.49248 0.37872 0.0
H870 H 0.80736 0.44199 0.29695 0.0
H871 H 0.85703 0.51075 0.33577 0.0
H872 H 0.80276 0.52844 0.291 0.0
H873 H 0.82229 0.51344 0.32647 0.0
H874 H 0.81778 0.46639 0.24731 0.0
H875 H 0.79753 0.48106 0.21187 0.0
C876 C 0.82827 0.44281 0.33854 0.0
C877 C 0.84524 0.45668 0.36257 0.0
C878 C 0.82125 0.45327 0.31411 0.0
C879 C 0.83111 0.47783 0.31307 0.0
C880 C 0.84882 0.49175 0.33623 0.0
C881 C 0.85577 0.48129 0.36077 0.0
C882 C 0.80613 0.51508 0.28093 0.0
C883 C 0.79834 0.50575 0.24871 0.0
C884 C 0.81754 0.5066 0.30123 0.0
C885 C 0.82152 0.48863 0.28981 0.0
C886 C 0.81466 0.48001 0.25702 0.0
C887 C 0.80318 0.4885 0.23665 0.0
H888 H 0.6529 0.20273 0.94443 0.0
H889 H 0.62445 0.12938 0.919 0.0
H890 H 0.68523 0.21335 0.90523 0.0
H891 H 0.65685 0.14007 0.88009 0.0
H892 H 0.69216 0.17419 0.77826 0.0
H893 H 0.66494 0.16089 0.82537 0.0
H894 H 0.72049 0.2098 0.89052 0.0
H895 H 0.74784 0.22327 0.84323 0.0
C896 C 0.65381 0.18883 0.93107 0.0
C897 C 0.63591 0.16525 0.93446 0.0
C898 C 0.67238 0.19492 0.9087 0.0
C899 C 0.67334 0.17755 0.88928 0.0
C900 C 0.65631 0.15385 0.89434 0.0
C901 C 0.63783 0.14775 0.91676 0.0
C902 C 0.69866 0.18196 0.80267 0.0
C903 C 0.72211 0.19987 0.80697 0.0
C904 C 0.6831 0.17421 0.82973 0.0
C905 C 0.69062 0.1843 0.86163 0.0
C906 C 0.71421 0.20182 0.86615 0.0
C907 C 0.72985 0.20944 0.83911 0.0
H908 H 0.86525 0.4861 0.91224 0.0
H909 H 0.79363 0.447 0.94824 0.0
H910 H 0.85495 0.51017 0.87764 0.0
H911 H 0.78322 0.47084 0.91302 0.0
H912 H 0.77386 0.52514 0.85495 0.0
H913 H 0.78831 0.50981 0.89916 0.0
H914 H 0.83148 0.49986 0.82664 0.0
H915 H 0.8174 0.51539 0.78279 0.0
C916 C 0.84737 0.48286 0.91314 0.0
C917 C 0.83015 0.46439 0.93254 0.0
C918 C 0.84146 0.49659 0.89321 0.0
C919 C 0.81819 0.49211 0.89213 0.0
C920 C 0.80133 0.47478 0.91339 0.0
C921 C 0.80728 0.46107 0.9335 0.0
C922 C 0.78667 0.51996 0.84858 0.0
C923 C 0.7944 0.52137 0.81533 0.0
C924 C 0.79485 0.51109 0.87387 0.0
C925 C 0.81104 0.50365 0.86641 0.0
C926 C 0.8193 0.50579 0.83335 0.0
C927 C 0.81107 0.51453 0.80812 0.0
H928 H 0.50621 0.37768 0.91749 0.0
H929 H 0.54488 0.3457 0.95731 0.0
H930 H 0.48248 0.34271 0.88378 0.0
H931 H 0.52136 0.31088 0.92311 0.0
H932 H 0.46775 0.24613 0.86715 0.0
H933 H 0.48232 0.27685 0.91 0.0
H934 H 0.49325 0.32832 0.8341 0.0
H935 H 0.4785 0.29777 0.79154 0.0
C936 C 0.50943 0.36305 0.91945 0.0
C937 C 0.5277 0.36461 0.93967 0.0
C938 C 0.49588 0.34307 0.90002 0.0
C939 C 0.50031 0.32422 0.90038 0.0
C940 C 0.51745 0.32508 0.92239 0.0
C941 C 0.53101 0.34509 0.94189 0.0
C942 C 0.47296 0.26395 0.85972 0.0
C943 C 0.47213 0.26956 0.82592 0.0
C944 C 0.48139 0.28153 0.88424 0.0
C945 C 0.48895 0.30499 0.87543 0.0
C946 C 0.48725 0.31037 0.84181 0.0
C947 C 0.47897 0.29287 0.81734 0.0
H948 H 0.48784 0.63831 0.60495 0.0
H949 H 0.44951 0.58212 0.67605 0.0
H950 H 0.50178 0.66676 0.65049 0.0
H951 H 0.46371 0.61072 0.72177 0.0
H952 H 0.46637 0.67489 0.77904 0.0
H953 H 0.45628 0.64278 0.73966 0.0
H954 H 0.52715 0.67929 0.70063 0.0
H955 H 0.53721 0.71149 0.73961 0.0
C956 C 0.48261 0.63199 0.63035 0.0
C957 C 0.46747 0.60798 0.63686 0.0
C958 C 0.49074 0.64828 0.65648 0.0
C959 C 0.48384 0.64095 0.68971 0.0
C960 C 0.46916 0.61688 0.69637 0.0
C961 C 0.46113 0.60052 0.6702 0.0
C962 C 0.47991 0.67588 0.76247 0.0
C963 C 0.50248 0.69589 0.76213 0.0
C964 C 0.47415 0.65743 0.74 0.0
C965 C 0.49086 0.65868 0.71678 0.0
C966 C 0.51381 0.67805 0.71784 0.0
C967 C 0.51957 0.69643 0.7403 0.0
H968 H 0.37264 0.85191 0.62077 0.0
H969 H 0.42118 0.84936 0.69154 0.0
H970 H 0.34177 0.83569 0.66287 0.0
H971 H 0.39019 0.83335 0.734 0.0
H972 H 0.31833 0.77264 0.77579 0.0
H973 H 0.35353 0.79564 0.74206 0.0
H974 H 0.32912 0.8438 0.71634 0.0
H975 H 0.29372 0.82061 0.74956 0.0
C976 C 0.37683 0.84818 0.64547 0.0
C977 C 0.39934 0.85179 0.65272 0.0
C978 C 0.35915 0.83904 0.66972 0.0
C979 C 0.36353 0.83324 0.7018 0.0
C980 C 0.38623 0.83745 0.7094 0.0
C981 C 0.40399 0.84671 0.68512 0.0
C982 C 0.32064 0.78836 0.76342 0.0
C983 C 0.30306 0.79459 0.76498 0.0
C984 C 0.34089 0.80161 0.7442 0.0
C985 C 0.34396 0.82137 0.72619 0.0
C986 C 0.32704 0.82841 0.72944 0.0
C987 C 0.30682 0.81518 0.74863 0.0
H988 H 0.17521 0.55284 0.60927 0.0
H989 H 0.10349 0.50941 0.64312 0.0
H990 H 0.18861 0.53624 0.65256 0.0
H991 H 0.11707 0.49282 0.68687 0.0
H992 H 0.15198 0.44787 0.72057 0.0
H993 H 0.13463 0.46651 0.68729 0.0
H994 H 0.19223 0.53497 0.7142 0.0
H995 H 0.20976 0.51643 0.74717 0.0
C996 C 0.1623 0.53987 0.62613 0.0
C997 C 0.13826 0.53234 0.62264 0.0
C998 C 0.17002 0.53051 0.65116 0.0
C999 C 0.1539 0.51331 0.67321 0.0
C1000 C 0.12987 0.50599 0.67011 0.0
C1001 C 0.12213 0.51553 0.64515 0.0
C1002 C 0.16073 0.4669 0.71991 0.0
C1003 C 0.18244 0.48065 0.73608 0.0
C1004 C 0.15071 0.47757 0.70096 0.0
C1005 C 0.16226 0.50218 0.69778 0.0
C1006 C 0.18316 0.51594 0.71576 0.0
C1007 C 0.19313 0.5053 0.73477 0.0
H1008 H 0.34087 0.78825 0.06365 0.0
H1009 H 0.36667 0.86232 0.08007 0.0
H1010 H 0.3076 0.77854 0.10034 0.0
H1011 H 0.33313 0.85255 0.11637 0.0
H1012 H 0.29642 0.82225 0.21947 0.0
H1013 H 0.32382 0.83559 0.17268 0.0
H1014 H 0.27152 0.78001 0.11082 0.0
H1015 H 0.24411 0.76636 0.15791 0.0
C1016 C 0.33918 0.80247 0.07449 0.0
C1017 C 0.3566 0.82604 0.06934 0.0
C1018 C 0.32001 0.79691 0.09538 0.0
C1019 C 0.31787 0.81479 0.11154 0.0
C1020 C 0.3345 0.83839 0.10468 0.0
C1021 C 0.35366 0.84396 0.08376 0.0
C1022 C 0.2906 0.81309 0.19575 0.0
C1023 C 0.2682 0.79305 0.19256 0.0
C1024 C 0.30627 0.82085 0.16882 0.0
C1025 C 0.2999 0.80874 0.1381 0.0
C1026 C 0.27703 0.7895 0.13433 0.0
C1027 C 0.26131 0.78176 0.16127 0.0
H1028 H 0.17252 0.52615 0.04544 0.0
H1029 H 0.12433 0.52237 0.12234 0.0
H1030 H 0.18389 0.503 0.08085 0.0
H1031 H 0.13588 0.49975 0.15758 0.0
H1032 H 0.14949 0.44703 0.20779 0.0
H1033 H 0.13486 0.46227 0.16386 0.0
H1034 H 0.20626 0.51082 0.13335 0.0
H1035 H 0.22087 0.49536 0.17674 0.0
C1036 C 0.16419 0.5202 0.06969 0.0
C1037 C 0.14768 0.52627 0.08119 0.0
C1038 C 0.17077 0.50704 0.09 0.0
C1039 C 0.16081 0.49957 0.12203 0.0
C1040 C 0.14366 0.50493 0.13289 0.0
C1041 C 0.1372 0.51812 0.11275 0.0
C1042 C 0.16205 0.46072 0.19141 0.0
C1043 C 0.18634 0.47017 0.19602 0.0
C1044 C 0.15367 0.4695 0.16632 0.0
C1045 C 0.16941 0.48789 0.14532 0.0
C1046 C 0.19366 0.49651 0.14889 0.0
C1047 C 0.20204 0.48776 0.17397 0.0
H1048 H 0.47264 0.72961 0.16503 0.0
H1049 H 0.53315 0.72338 0.19148 0.0
H1050 H 0.46347 0.70156 0.11979 0.0
H1051 H 0.52446 0.69587 0.14534 0.0
H1052 H 0.47946 0.6227 0.09661 0.0
H1053 H 0.4956 0.6561 0.13436 0.0
H1054 H 0.47418 0.69324 0.0664 0.0
H1055 H 0.45719 0.65928 0.02898 0.0
C1056 C 0.48422 0.72254 0.16084 0.0
C1057 C 0.50346 0.72851 0.1821 0.0
C1058 C 0.47908 0.70658 0.13466 0.0
C1059 C 0.49317 0.69635 0.12893 0.0
C1060 C 0.513 0.7031 0.14938 0.0
C1061 C 0.51803 0.71893 0.17576 0.0
C1062 C 0.47845 0.63809 0.08941 0.0
C1063 C 0.46672 0.63818 0.05998 0.0
C1064 C 0.48789 0.65738 0.11102 0.0
C1065 C 0.48601 0.67732 0.10363 0.0
C1066 C 0.47551 0.67797 0.07319 0.0
C1067 C 0.46592 0.65857 0.05161 0.0
H1068 H 0.13987 0.63062 0.57916 0.0
H1069 H 0.2127 0.65507 0.55487 0.0
H1070 H 0.15206 0.66389 0.61699 0.0
H1071 H 0.22483 0.68816 0.59303 0.0
H1072 H 0.23845 0.75306 0.65219 0.0
H1073 H 0.22405 0.72482 0.60598 0.0
H1074 H 0.1721 0.67225 0.67181 0.0
H1075 H 0.18626 0.70036 0.71775 0.0
C1076 C 0.15846 0.64327 0.58146 0.0
C1077 C 0.17535 0.64001 0.56435 0.0
C1078 C 0.16542 0.66226 0.60327 0.0
C1079 C 0.1894 0.67843 0.60833 0.0
C1080 C 0.20621 0.67605 0.58956 0.0
C1081 C 0.19925 0.657 0.5678 0.0
C1082 C 0.22381 0.73554 0.65669 0.0
C1083 C 0.21357 0.7289 0.68868 0.0
C1084 C 0.21563 0.71937 0.63025 0.0
C1085 C 0.19693 0.69635 0.63525 0.0
C1086 C 0.18631 0.68996 0.66702 0.0
C1087 C 0.19457 0.70603 0.69344 0.0
H1088 H 0.26629 0.51524 0.6528 0.0
H1089 H 0.28473 0.46588 0.6948 0.0
H1090 H 0.29673 0.52647 0.61047 0.0
H1091 H 0.31472 0.47658 0.65172 0.0
H1092 H 0.38713 0.52916 0.60727 0.0
H1093 H 0.35231 0.51044 0.64216 0.0
H1094 H 0.31115 0.51592 0.56179 0.0
H1095 H 0.34645 0.53546 0.52691 0.0
C1096 C 0.27656 0.50647 0.65264 0.0
C1097 C 0.27333 0.48992 0.67748 0.0
C1098 C 0.29392 0.51278 0.62816 0.0
C1099 C 0.30834 0.50259 0.62784 0.0
C1100 C 0.30423 0.48511 0.65164 0.0
C1101 C 0.28698 0.47891 0.67626 0.0
C1102 C 0.37064 0.52617 0.59678 0.0
C1103 C 0.36964 0.53405 0.56438 0.0
C1104 C 0.35056 0.51522 0.61678 0.0
C1105 C 0.3289 0.51171 0.60486 0.0
C1106 C 0.32764 0.51866 0.5719 0.0
C1107 C 0.34783 0.52973 0.55185 0.0
H1108 H 0.52819 0.77187 0.65732 0.0
H1109 H 0.51676 0.81293 0.73187 0.0
H1110 H 0.51455 0.78839 0.61366 0.0
H1111 H 0.50296 0.8291 0.68852 0.0
H1112 H 0.49428 0.8676 0.60364 0.0
H1113 H 0.51592 0.85485 0.63927 0.0
H1114 H 0.47621 0.78467 0.59841 0.0
H1115 H 0.45478 0.79749 0.56226 0.0
C1116 C 0.52296 0.78453 0.66436 0.0
C1117 C 0.52345 0.79102 0.69806 0.0
C1118 C 0.51508 0.79391 0.63938 0.0
C1119 C 0.50774 0.81007 0.64765 0.0
C1120 C 0.50884 0.81697 0.68124 0.0
C1121 C 0.51658 0.80755 0.70615 0.0
C1122 C 0.49043 0.84955 0.60179 0.0
C1123 C 0.47256 0.83346 0.58048 0.0
C1124 C 0.50276 0.84223 0.62233 0.0
C1125 C 0.4975 0.81868 0.62201 0.0
C1126 C 0.48073 0.80296 0.59912 0.0
C1127 C 0.46838 0.81029 0.57851 0.0
H1128 H 0.2914 0.44287 0.21709 0.0
H1129 H 0.30622 0.51223 0.2474 0.0
H1130 H 0.32725 0.4605 0.18344 0.0
H1131 H 0.34209 0.52973 0.21399 0.0
H1132 H 0.37591 0.5479 0.10843 0.0
H1133 H 0.34594 0.53145 0.15176 0.0
H1134 H 0.37164 0.48534 0.183 0.0
H1135 H 0.40187 0.50185 0.13926 0.0
C1136 C 0.30253 0.46183 0.21716 0.0
C1137 C 0.29575 0.47616 0.23444 0.0
C1138 C 0.32313 0.47191 0.198 0.0
C1139 C 0.33724 0.49648 0.19573 0.0
C1140 C 0.3313 0.51073 0.21486 0.0
C1141 C 0.31079 0.50068 0.23409 0.0
C1142 C 0.3753 0.53434 0.12458 0.0
C1143 C 0.39121 0.5261 0.12031 0.0
C1144 C 0.35825 0.52507 0.14963 0.0
C1145 C 0.35657 0.50723 0.1709 0.0
C1146 C 0.37254 0.49905 0.16688 0.0
C1147 C 0.38983 0.50852 0.14192 0.0
H1148 H 0.45304 0.78018 0.26811 0.0
H1149 H 0.5252 0.82817 0.2401 0.0
H1150 H 0.44012 0.80172 0.23246 0.0
H1151 H 0.51229 0.84996 0.20503 0.0
H1152 H 0.47602 0.85275 0.10691 0.0
H1153 H 0.49164 0.83951 0.15172 0.0
H1154 H 0.43991 0.83825 0.22001 0.0
H1155 H 0.42393 0.85123 0.17479 0.0
C1156 C 0.4662 0.79566 0.25503 0.0
C1157 C 0.49011 0.80221 0.25648 0.0
C1158 C 0.4588 0.80808 0.23468 0.0
C1159 C 0.47516 0.82733 0.2155 0.0
C1160 C 0.49922 0.8349 0.21895 0.0
C1161 C 0.50661 0.82246 0.23918 0.0
C1162 C 0.46812 0.84994 0.13155 0.0
C1163 C 0.44861 0.85287 0.1372 0.0
C1164 C 0.47721 0.84251 0.15736 0.0
C1165 C 0.46702 0.83782 0.18947 0.0
C1166 C 0.448 0.84152 0.19546 0.0
C1167 C 0.43893 0.84905 0.1696 0.0
H1168 H 0.15698 0.69242 0.28815 0.0
H1169 H 0.22328 0.70691 0.24468 0.0
H1170 H 0.13623 0.65892 0.25012 0.0
H1171 H 0.20257 0.67362 0.20706 0.0
H1172 H 0.15723 0.63855 0.11526 0.0
H1173 H 0.17594 0.66845 0.15835 0.0
H1174 H 0.13153 0.61875 0.23362 0.0
H1175 H 0.11259 0.58852 0.19028 0.0
C1176 C 0.16715 0.68823 0.27098 0.0
C1177 C 0.19176 0.70251 0.26916 0.0
C1178 C 0.15526 0.66906 0.24926 0.0
C1179 C 0.1678 0.66399 0.22531 0.0
C1180 C 0.19245 0.67745 0.22486 0.0
C1181 C 0.20431 0.69644 0.24657 0.0
C1182 C 0.1513 0.63394 0.14092 0.0
C1183 C 0.1335 0.6111 0.14936 0.0
C1184 C 0.16215 0.65105 0.16564 0.0
C1185 C 0.15539 0.64579 0.19935 0.0
C1186 C 0.13707 0.62322 0.20779 0.0
C1187 C 0.1263 0.60595 0.18301 0.0
H1188 H 0.13483 0.18973 0.28447 0.0
H1189 H 0.1013 0.12239 0.33488 0.0
H1190 H 0.14469 0.17248 0.2376 0.0
H1191 H 0.11141 0.1052 0.28791 0.0
H1192 H 0.11735 0.0795 0.18183 0.0
H1193 H 0.10382 0.09524 0.22679 0.0
H1194 H 0.17247 0.15764 0.23055 0.0
H1195 H 0.18595 0.14213 0.18576 0.0
C1196 C 0.12939 0.1712 0.28546 0.0
C1197 C 0.11744 0.15749 0.31357 0.0
C1198 C 0.13517 0.16136 0.25867 0.0
C1199 C 0.12906 0.13755 0.25925 0.0
C1200 C 0.11627 0.12357 0.28669 0.0
C1201 C 0.11057 0.13346 0.31364 0.0
C1202 C 0.12954 0.09656 0.19229 0.0
C1203 C 0.15272 0.10957 0.18015 0.0
C1204 C 0.1218 0.10553 0.21809 0.0
C1205 C 0.13703 0.12775 0.23201 0.0
C1206 C 0.1602 0.14064 0.21996 0.0
C1207 C 0.16797 0.13165 0.19442 0.0
H1208 H 0.80356 0.94587 0.30168 0.0
H1209 H 0.87352 0.96609 0.33647 0.0
H1210 H 0.82035 0.97522 0.25724 0.0
H1211 H 0.8903 0.99534 0.29141 0.0
H1212 H 0.90395 0.02422 0.17853 0.0
H1213 H 0.89028 0.99556 0.22447 0.0
H1214 H 0.84495 0.02124 0.25919 0.0
H1215 H 0.85869 0.05 0.21387 0.0
C1216 C 0.82252 0.9564 0.29965 0.0
C1217 C 0.83722 0.95373 0.32268 0.0
C1218 C 0.8321 0.97329 0.27433 0.0
C1219 C 0.85658 0.98762 0.27115 0.0
C1220 C 0.87136 0.98447 0.29339 0.0
C1221 C 0.86175 0.9678 0.31916 0.0
C1222 C 0.89128 0.02392 0.19621 0.0
C1223 C 0.88232 0.0393 0.19247 0.0
C1224 C 0.88353 0.00758 0.22248 0.0
C1225 C 0.86642 0.00611 0.24505 0.0
C1226 C 0.85796 0.02188 0.24185 0.0
C1227 C 0.86596 0.03842 0.21601 0.0
H1228 H 0.94237 0.81143 0.21124 0.0
H1229 H 0.96939 0.88123 0.17006 0.0
H1230 H 0.97156 0.8276 0.25588 0.0
H1231 H -0.00151 0.89739 0.21536 0.0
H1232 H 0.03036 0.91283 0.32695 0.0
H1233 H -0.00023 0.89961 0.2836 0.0
H1234 H 0.0179 0.84817 0.24999 0.0
H1235 H 0.04849 0.86142 0.2925 0.0
C1236 C 0.9543 0.83026 0.21196 0.0
C1237 C 0.95372 0.84503 0.18692 0.0
C1238 C 0.97104 0.83947 0.23746 0.0
C1239 C 0.98731 0.86366 0.23877 0.0
C1240 C 0.98606 0.87867 0.21482 0.0
C1241 C 0.96949 0.8694 0.18891 0.0
C1242 C 0.0279 0.89883 0.31011 0.0
C1243 C 0.04179 0.88813 0.31318 0.0
C1244 C 0.01048 0.89134 0.28535 0.0
C1245 C 0.00643 0.87275 0.26382 0.0
C1246 C 0.02054 0.86236 0.26658 0.0
C1247 C 0.03814 0.87007 0.2908 0.0
H1248 H 0.90254 0.87779 0.65443 0.0
H1249 H 0.87394 0.81236 0.7093 0.0
H1250 H 0.89055 0.89468 0.69963 0.0
H1251 H 0.86213 0.82932 0.75438 0.0
H1252 H 0.81527 0.85566 0.79997 0.0
H1253 H 0.83135 0.84099 0.75762 0.0
H1254 H 0.89735 0.9065 0.76082 0.0
H1255 H 0.88121 0.92137 0.80345 0.0
C1256 C 0.89399 0.86711 0.67629 0.0
C1257 C 0.88898 0.84364 0.6781 0.0
C1258 C 0.88722 0.87684 0.70222 0.0
C1259 C 0.87517 0.86322 0.73032 0.0
C1260 C 0.87106 0.8401 0.73275 0.0
C1261 C 0.87795 0.83044 0.70699 0.0
C1262 C 0.83321 0.86701 0.79169 0.0
C1263 C 0.84697 0.8897 0.80514 0.0
C1264 C 0.84248 0.85851 0.76759 0.0
C1265 C 0.86567 0.87252 0.75614 0.0
C1266 C 0.87939 0.89535 0.76915 0.0
C1267 C 0.87016 0.90381 0.79359 0.0
H1268 H 0.11714 0.02427 0.66019 0.0
H1269 H 0.18598 0.03999 0.69441 0.0
H1270 H 0.09894 0.99361 0.70329 0.0
H1271 H 0.16778 0.00922 0.73674 0.0
H1272 H 0.12621 0.93409 0.77783 0.0
H1273 H 0.14054 0.96295 0.73251 0.0
H1274 H 0.0997 0.99281 0.77091 0.0
H1275 H 0.08555 0.96415 0.81681 0.0
C1276 C 0.12835 0.02122 0.67689 0.0
C1277 C 0.15298 0.03453 0.67392 0.0
C1278 C 0.11794 0.00375 0.70151 0.0
C1279 C 0.132 -0.001 0.72301 0.0
C1280 C 0.15658 0.0124 0.72018 0.0
C1281 C 0.16696 0.03011 0.6961 0.0
C1282 C 0.12 0.94657 0.77642 0.0
C1283 C 0.10488 0.94696 0.80104 0.0
C1284 C 0.12831 0.96314 0.75057 0.0
C1285 C 0.12133 0.98014 0.74848 0.0
C1286 C 0.10528 0.97982 0.77202 0.0
C1287 C 0.09727 0.96348 0.79828 0.0
H1288 H 0.97366 0.09803 0.67011 0.0
H1289 H 0.94584 0.14173 0.70466 0.0
H1290 H 0.001 0.1112 0.71754 0.0
H1291 H 0.97326 0.15494 0.75163 0.0
H1292 H 0.04662 0.19586 0.80034 0.0
H1293 H 0.01846 0.18007 0.75435 0.0
H1294 H -8e-05 0.10946 0.78314 0.0
H1295 H 0.02802 0.12521 0.82963 0.0
C1296 C 0.97326 0.11028 0.68791 0.0
C1297 C 0.95766 0.11891 0.68354 0.0
C1298 C 0.98884 0.11774 0.71507 0.0
C1299 C 0.98934 0.13422 0.73801 0.0
C1300 C 0.97341 0.14243 0.73406 0.0
C1301 C 0.95762 0.13474 0.70726 0.0
C1302 C 0.03665 0.17696 0.79684 0.0
C1303 C 0.0395 0.16178 0.8187 0.0
C1304 C 0.02043 0.16794 0.77063 0.0
C1305 C 0.00693 0.14356 0.76539 0.0
C1306 C 0.01016 0.12834 0.78664 0.0
C1307 C 0.02617 0.13736 0.81326 0.0
H1308 H 0.77694 0.50763 0.61687 0.0
H1309 H 0.77891 0.45666 0.68343 0.0
H1310 H 0.78812 0.49136 0.57012 0.0
H1311 H 0.7899 0.44028 0.63651 0.0
H1312 H 0.84339 0.44506 0.55536 0.0
H1313 H 0.8259 0.45496 0.60193 0.0
H1314 H 0.77491 0.45599 0.53456 0.0
H1315 H 0.79252 0.44628 0.48781 0.0
C1316 C 0.77945 0.49276 0.62145 0.0
C1317 C 0.77723 0.48357 0.65393 0.0
C1318 C 0.78572 0.48334 0.59461 0.0
C1319 C 0.79001 0.46462 0.59969 0.0
C1320 C 0.78698 0.45489 0.63193 0.0
C1321 C 0.78057 0.46422 0.65876 0.0
C1322 C 0.8283 0.44714 0.5505 0.0
C1323 C 0.81948 0.44507 0.51782 0.0
C1324 C 0.81818 0.45268 0.57724 0.0
C1325 C 0.79909 0.45636 0.57187 0.0
C1326 C 0.78978 0.45352 0.53939 0.0
C1327 C 0.79981 0.44784 0.51266 0.0
H1328 H 0.47992 0.26862 0.63394 0.0
H1329 H 0.54673 0.30572 0.68533 0.0
H1330 H 0.4953 0.29775 0.58922 0.0
H1331 H 0.56207 0.33496 0.64035 0.0
H1332 H 0.5849 0.37003 0.53448 0.0
H1333 H 0.57188 0.33973 0.57799 0.0
H1334 H 0.50667 0.34039 0.58741 0.0
H1335 H 0.51952 0.37049 0.54419 0.0
C1336 C 0.49797 0.28284 0.63556 0.0
C1337 C 0.51204 0.28495 0.66338 0.0
C1338 C 0.50672 0.29961 0.61001 0.0
C1339 C 0.52977 0.31877 0.61154 0.0
C1340 C 0.54424 0.32033 0.63852 0.0
C1341 C 0.53542 0.30363 0.66429 0.0
C1342 C 0.56784 0.36376 0.54596 0.0
C1343 C 0.55322 0.37262 0.53579 0.0
C1344 C 0.56043 0.34648 0.57089 0.0
C1345 C 0.53818 0.33756 0.5858 0.0
C1346 C 0.52375 0.34666 0.57596 0.0
C1347 C 0.53121 0.36405 0.55135 0.0
H1348 H 0.60126 0.14227 0.53412 0.0
H1349 H 0.62915 0.21297 0.4961 0.0
H1350 H 0.6306 0.15718 0.57874 0.0
H1351 H 0.65832 0.22789 0.54137 0.0
H1352 H 0.68753 0.24124 0.65385 0.0
H1353 H 0.65822 0.22881 0.60889 0.0
H1354 H 0.677 0.17771 0.57597 0.0
H1355 H 0.70649 0.19027 0.62024 0.0
C1356 C 0.61345 0.16102 0.53551 0.0
C1357 C 0.61295 0.17645 0.5115 0.0
C1358 C 0.63031 0.16951 0.56094 0.0
C1359 C 0.64675 0.19362 0.56327 0.0
C1360 C 0.64577 0.20921 0.54007 0.0
C1361 C 0.62915 0.20066 0.51419 0.0
C1362 C 0.68552 0.22749 0.63682 0.0
C1363 C 0.69927 0.2167 0.64062 0.0
C1364 C 0.66882 0.22046 0.61112 0.0
C1365 C 0.6653 0.20221 0.58925 0.0
C1366 C 0.67926 0.19167 0.59275 0.0
C1367 C 0.69621 0.19898 0.61797 0.0
H1368 H 0.55047 0.20354 0.98672 0.0
H1369 H 0.55714 0.15904 0.06061 0.0
H1370 H 0.53755 0.22061 0.03035 0.0
H1371 H 0.5439 0.17583 0.10401 0.0
H1372 H 0.53545 0.22207 0.17957 0.0
H1373 H 0.55426 0.21166 0.1354 0.0
H1374 H 0.50203 0.20658 0.06477 0.0
H1375 H 0.48341 0.21737 0.1088 0.0
C1376 C 0.5494 0.19755 0.0123 0.0
C1377 C 0.5547 0.17981 0.02015 0.0
C1378 C 0.54186 0.20724 0.03724 0.0
C1379 C 0.53955 0.19948 0.07059 0.0
C1380 C 0.5457 0.18238 0.07862 0.0
C1381 C 0.55318 0.17265 0.05369 0.0
C1382 C 0.5281 0.21897 0.15455 0.0
C1383 C 0.50782 0.22038 0.14776 0.0
C1384 C 0.53883 0.2129 0.12928 0.0
C1385 C 0.52955 0.20813 0.09665 0.0
C1386 C 0.50976 0.21037 0.08958 0.0
C1387 C 0.49901 0.21642 0.11487 0.0
H1388 H 0.77644 0.3523 0.00047 0.0
H1389 H 0.84693 0.37982 0.0391 0.0
H1390 H 0.76104 0.32414 0.047 0.0
H1391 H 0.83153 0.35163 0.08505 0.0
H1392 H 0.79848 0.27811 0.13232 0.0
H1393 H 0.81127 0.30614 0.08616 0.0
H1394 H 0.75911 0.32494 0.11323 0.0
H1395 H 0.74633 0.29696 0.15998 0.0
C1396 C 0.7886 0.35243 0.01892 0.0
C1397 C 0.8129 0.36822 0.01603 0.0
C1398 C 0.77978 0.33639 0.04555 0.0
C1399 C 0.79515 0.33564 0.06936 0.0
C1400 C 0.81935 0.35169 0.06678 0.0
C1401 C 0.82812 0.36791 0.04056 0.0
C1402 C 0.78959 0.28807 0.1284 0.0
C1403 C 0.77146 0.2854 0.14994 0.0
C1404 C 0.79702 0.3042 0.10206 0.0
C1405 C 0.78628 0.31778 0.09636 0.0
C1406 C 0.76763 0.31462 0.11712 0.0
C1407 C 0.7604 0.29869 0.14388 0.0
H1408 H 0.60213 0.43929 0.0557 0.0
H1409 H 0.65699 0.45042 0.98561 0.0
H1410 H 0.62983 0.44957 0.10191 0.0
H1411 H 0.68467 0.46055 0.03199 0.0
H1412 H 0.73 0.51152 0.11844 0.0
H1413 H 0.7034 0.49463 0.07091 0.0
H1414 H 0.6544 0.43699 0.13317 0.0
H1415 H 0.6809 0.45395 0.18088 0.0
C1416 C 0.62002 0.44363 0.05018 0.0
C1417 C 0.6274 0.44424 0.01695 0.0
C1418 C 0.63586 0.44937 0.07669 0.0
C1419 C 0.65945 0.45596 0.07054 0.0
C1420 C 0.66665 0.45578 0.03743 0.0
C1421 C 0.65076 0.44987 0.01091 0.0
C1422 C 0.71371 0.49508 0.1219 0.0
C1423 C 0.70746 0.48421 0.15353 0.0
C1424 C 0.69853 0.48533 0.09461 0.0
C1425 C 0.67674 0.46458 0.09839 0.0
C1426 C 0.67095 0.45317 0.12964 0.0
C1427 C 0.6862 0.46283 0.1569 0.0
H1428 H 0.43243 0.8295 0.94169 0.0
H1429 H 0.4414 0.78738 0.01721 0.0
H1430 H 0.44473 0.8116 0.89864 0.0
H1431 H 0.45342 0.76925 0.97396 0.0
H1432 H 0.50731 0.77293 0.8942 0.0
H1433 H 0.48854 0.78343 0.93832 0.0
H1434 H 0.43422 0.77482 0.86905 0.0
H1435 H 0.45313 0.76462 0.82473 0.0
C1436 C 0.43668 0.81617 0.94906 0.0
C1437 C 0.43614 0.81004 0.98292 0.0
C1438 C 0.4436 0.8058 0.92434 0.0
C1439 C 0.45017 0.78909 0.93293 0.0
C1440 C 0.44875 0.78229 0.96663 0.0
C1441 C 0.44175 0.79261 0.99136 0.0
C1442 C 0.4912 0.77298 0.88847 0.0
C1443 C 0.48186 0.76818 0.85586 0.0
C1444 C 0.48036 0.77886 0.91382 0.0
C1445 C 0.45998 0.78012 0.90709 0.0
C1446 C 0.45009 0.77433 0.87486 0.0
C1447 C 0.46088 0.76837 0.84953 0.0
H1448 H 0.20081 0.71912 0.88037 0.0
H1449 H 0.23473 0.68395 0.83502 0.0
H1450 H 0.18579 0.68983 0.92514 0.0
H1451 H 0.21993 0.65484 0.88039 0.0
H1452 H 0.20633 0.62564 0.99332 0.0
H1453 H 0.22396 0.65455 0.9479 0.0
H1454 H 0.15546 0.64393 0.92224 0.0
H1455 H 0.13776 0.61488 0.96689 0.0
C1456 C 0.20533 0.70533 0.88019 0.0
C1457 C 0.21885 0.70376 0.85408 0.0
C1458 C 0.19662 0.68853 0.9057 0.0
C1459 C 0.20161 0.67006 0.90597 0.0
C1460 C 0.2159 0.66896 0.88068 0.0
C1461 C 0.22427 0.68555 0.85475 0.0
C1462 C 0.19503 0.62931 0.97772 0.0
C1463 C 0.17067 0.61803 0.98373 0.0
C1464 C 0.20511 0.64579 0.95179 0.0
C1465 C 0.19105 0.65155 0.93193 0.0
C1466 C 0.16668 0.63994 0.93749 0.0
C1467 C 0.15657 0.6232 0.96291 0.0
H1468 H 0.34942 0.56001 0.99649 0.0
H1469 H 0.40131 0.55936 0.93044 0.0
H1470 H 0.32166 0.54812 0.95002 0.0
H1471 H 0.37343 0.54727 0.88408 0.0
H1472 H 0.32298 0.5429 0.80203 0.0
H1473 H 0.35132 0.56029 0.8477 0.0
H1474 H 0.29957 0.5113 0.91727 0.0
H1475 H 0.27119 0.49403 0.8718 0.0
C1476 C 0.355 0.55757 0.972 0.0
C1477 C 0.37753 0.56047 0.96723 0.0
C1478 C 0.33904 0.55062 0.94544 0.0
C1479 C 0.3453 0.54658 0.91348 0.0
C1480 C 0.36814 0.55041 0.90837 0.0
C1481 C 0.38408 0.55723 0.93498 0.0
C1482 C 0.31758 0.53596 0.82712 0.0
C1483 C 0.29485 0.51701 0.83326 0.0
C1484 C 0.33386 0.54586 0.85322 0.0
C1485 C 0.32769 0.53715 0.88604 0.0
C1486 C 0.30477 0.51858 0.89231 0.0
C1487 C 0.28856 0.50859 0.8662 0.0
H1488 H 0.16068 0.56099 0.43059 0.0
H1489 H 0.21079 0.55773 0.49746 0.0
H1490 H 0.17606 0.54846 0.38419 0.0
H1491 H 0.2263 0.54549 0.45097 0.0
H1492 H 0.22177 0.49185 0.37171 0.0
H1493 H 0.21098 0.50932 0.41727 0.0
H1494 H 0.21108 0.56025 0.34854 0.0
H1495 H 0.22165 0.54261 0.30274 0.0
C1496 C 0.17517 0.55791 0.43531 0.0
C1497 C 0.18437 0.56016 0.46778 0.0
C1498 C 0.18406 0.55084 0.40868 0.0
C1499 C 0.20228 0.54582 0.414 0.0
C1500 C 0.21202 0.54889 0.44621 0.0
C1501 C 0.2032 0.55603 0.4728 0.0
C1502 C 0.21966 0.50687 0.36632 0.0
C1503 C 0.22248 0.51577 0.33356 0.0
C1504 C 0.21362 0.51698 0.39248 0.0
C1505 C 0.21017 0.53616 0.38648 0.0
C1506 C 0.2134 0.54534 0.35385 0.0
C1507 C 0.21956 0.5353 0.32768 0.0
H1508 H 0.44222 0.65322 0.50314 0.0
H1509 H 0.44849 0.60394 0.43813 0.0
H1510 H 0.45153 0.68024 0.45613 0.0
H1511 H 0.45802 0.63108 0.39128 0.0
H1512 H 0.45706 0.67751 0.30778 0.0
H1513 H 0.44179 0.64973 0.35436 0.0
H1514 H 0.48721 0.70499 0.42264 0.0
H1515 H 0.50233 0.73283 0.37621 0.0
C1516 C 0.44538 0.64805 0.47878 0.0
C1517 C 0.44476 0.62648 0.47444 0.0
C1518 C 0.45084 0.6636 0.4519 0.0
C1519 C 0.45564 0.65786 0.42005 0.0
C1520 C 0.4542 0.63593 0.41544 0.0
C1521 C 0.44886 0.62043 0.44235 0.0
C1522 C 0.46362 0.6838 0.33277 0.0
C1523 C 0.48102 0.70736 0.33825 0.0
C1524 C 0.45495 0.66784 0.35942 0.0
C1525 C 0.46337 0.67513 0.39214 0.0
C1526 C 0.48019 0.69887 0.39777 0.0
C1527 C 0.48896 0.7148 0.37112 0.0
H1528 H 0.4018 0.84434 0.4564 0.0
H1529 H 0.35433 0.7885 0.52259 0.0
H1530 H 0.37331 0.82708 0.41105 0.0
H1531 H 0.3257 0.77149 0.47732 0.0
H1532 H 0.28555 0.73848 0.37998 0.0
H1533 H 0.31714 0.75241 0.42154 0.0
H1534 H 0.33517 0.82416 0.40106 0.0
H1535 H 0.30406 0.81042 0.35952 0.0
C1536 C 0.38539 0.82827 0.46121 0.0
C1537 C 0.38022 0.81794 0.49321 0.0
C1538 C 0.36902 0.81845 0.43527 0.0
C1539 C 0.34715 0.79809 0.44073 0.0
C1540 C 0.34245 0.78711 0.47227 0.0
C1541 C 0.35882 0.79695 0.49826 0.0
C1542 C 0.29636 0.75722 0.38427 0.0
C1543 C 0.29225 0.77333 0.36651 0.0
C1544 C 0.31438 0.76518 0.40812 0.0
C1545 C 0.3287 0.78939 0.41445 0.0
C1546 C 0.32471 0.80543 0.39638 0.0
C1547 C 0.30671 0.79751 0.37274 0.0
H1548 H 0.26195 0.12635 0.20043 0.0
H1549 H 0.27308 0.13162 0.09324 0.0
H1550 H 0.30422 0.14403 0.20928 0.0
H1551 H 0.31537 0.14948 0.1022 0.0
H1552 H 0.38712 0.15849 0.13335 0.0
H1553 H 0.34466 0.13923 0.12444 0.0
H1554 H 0.33962 0.18328 0.20058 0.0
H1555 H 0.38191 0.20241 0.20972 0.0
C1556 C 0.27339 0.13123 0.17876 0.0
C1557 C 0.26417 0.12766 0.14614 0.0
C1558 C 0.2976 0.14147 0.18385 0.0
C1559 C 0.31308 0.1482 0.15643 0.0
C1560 C 0.30384 0.14428 0.1238 0.0
C1561 C 0.27964 0.13418 0.11871 0.0
C1562 C 0.37695 0.16406 0.14819 0.0
C1563 C 0.38789 0.18198 0.17223 0.0
C1564 C 0.35266 0.15309 0.14297 0.0
C1565 C 0.33883 0.15972 0.16188 0.0
C1566 C 0.34978 0.1776 0.18594 0.0
C1567 C 0.37404 0.18866 0.19099 0.0
H1568 H 0.78472 0.18562 0.1283 0.0
H1569 H 0.81196 0.20059 0.22943 0.0
H1570 H 0.8068 0.16548 0.11743 0.0
H1571 H 0.83358 0.18004 0.21876 0.0
H1572 H 0.88902 0.16459 0.17663 0.0
H1573 H 0.86703 0.18491 0.1864 0.0
H1574 H 0.80755 0.13002 0.13316 0.0
H1575 H 0.82972 0.10994 0.12273 0.0
C1576 C 0.7953 0.1845 0.14827 0.0
C1577 C 0.79662 0.19475 0.1797 0.0
C1578 C 0.80786 0.17286 0.14208 0.0
C1579 C 0.82199 0.17121 0.16721 0.0
C1580 C 0.82315 0.18132 0.19871 0.0
C1581 C 0.81063 0.19298 0.20488 0.0
C1582 C 0.87126 0.15687 0.16696 0.0
C1583 C 0.86111 0.13564 0.14894 0.0
C1584 C 0.85861 0.16845 0.17273 0.0
C1585 C 0.83551 0.15904 0.16065 0.0
C1586 C 0.8254 0.13786 0.14247 0.0
C1587 C 0.83807 0.12629 0.13666 0.0
H1588 H 0.83241 0.60634 0.16865 0.0
H1589 H 0.77496 0.6105 0.21468 0.0
H1590 H 0.85254 0.6485 0.15771 0.0
H1591 H 0.79489 0.65259 0.20307 0.0
H1592 H 0.84957 0.73127 0.20903 0.0
H1593 H 0.8293 0.68914 0.22053 0.0
H1594 H 0.84875 0.67659 0.12244 0.0
H1595 H 0.86942 0.71869 0.1112 0.0
C1596 C 0.82402 0.61622 0.17631 0.0
C1597 C 0.80208 0.60507 0.19253 0.0
C1598 C 0.8355 0.64037 0.16987 0.0
C1599 C 0.82529 0.65388 0.17945 0.0
C1600 C 0.80336 0.64272 0.19573 0.0
C1601 C 0.79188 0.61858 0.20221 0.0
C1602 C 0.84949 0.71952 0.18991 0.0
C1603 C 0.86116 0.72833 0.15924 0.0
C1604 C 0.83778 0.69536 0.19643 0.0
C1605 C 0.83746 0.67952 0.17242 0.0
C1606 C 0.84897 0.68835 0.14166 0.0
C1607 C 0.8607 0.71248 0.13515 0.0
H1608 H 0.18982 0.38931 0.26717 0.0
H1609 H 0.2101 0.40362 0.37136 0.0
H1610 H 0.16894 0.34725 0.27886 0.0
H1611 H 0.18878 0.36152 0.38314 0.0
H1612 H 0.17085 0.28442 0.38282 0.0
H1613 H 0.19149 0.32654 0.37154 0.0
H1614 H 0.13418 0.31755 0.30819 0.0
H1615 H 0.1137 0.27532 0.31892 0.0
C1616 C 0.18974 0.38349 0.29261 0.0
C1617 C 0.20166 0.39982 0.31834 0.0
C1618 C 0.17764 0.35938 0.29933 0.0
C1619 C 0.17717 0.35104 0.33193 0.0
C1620 C 0.18906 0.36737 0.35768 0.0
C1621 C 0.20118 0.3915 0.35095 0.0
C1622 C 0.16263 0.29141 0.36649 0.0
C1623 C 0.14065 0.2765 0.3517 0.0
C1624 C 0.1744 0.31558 0.3602 0.0
C1625 C 0.16447 0.32539 0.33898 0.0
C1626 C 0.14244 0.31049 0.32431 0.0
C1627 C 0.13065 0.2863 0.33061 0.0
H1628 H 0.60517 0.79967 0.27182 0.0
H1629 H 0.59146 0.80656 0.37597 0.0
H1630 H 0.64713 0.81892 0.2836 0.0
H1631 H 0.63347 0.82541 0.38786 0.0
H1632 H 0.71204 0.88087 0.38808 0.0
H1633 H 0.66998 0.86185 0.37667 0.0
H1634 H 0.67518 0.81145 0.31283 0.0
H1635 H 0.71731 0.83074 0.32365 0.0
C1636 C 0.6111 0.80521 0.29727 0.0
C1637 C 0.59496 0.80158 0.32296 0.0
C1638 C 0.63515 0.81612 0.30405 0.0
C1639 C 0.64364 0.82363 0.33668 0.0
C1640 C 0.62752 0.82007 0.36238 0.0
C1641 C 0.60343 0.80916 0.35559 0.0
C1642 C 0.70421 0.86573 0.37161 0.0
C1643 C 0.71803 0.85735 0.35671 0.0
C1644 C 0.68008 0.85475 0.36523 0.0
C1645 C 0.66924 0.83515 0.34382 0.0
C1646 C 0.68306 0.82671 0.32906 0.0
C1647 C 0.70719 0.8377 0.33542 0.0
H1648 H 0.21136 0.80581 0.3535 0.0
H1649 H 0.16992 0.78626 0.26269 0.0
H1650 H 0.18875 0.82303 0.37549 0.0
H1651 H 0.14694 0.80307 0.28507 0.0
H1652 H 0.13183 0.86102 0.31888 0.0
H1653 H 0.15273 0.84183 0.29763 0.0
H1654 H 0.1498 0.8127 0.39583 0.0
H1655 H 0.12926 0.83235 0.41738 0.0
C1656 C 0.1973 0.80502 0.33832 0.0
C1657 C 0.19251 0.79476 0.30626 0.0
C1658 C 0.18424 0.81476 0.35104 0.0
C1659 C 0.16607 0.81444 0.33202 0.0
C1660 C 0.16105 0.80388 0.30015 0.0
C1661 C 0.17414 0.79415 0.28739 0.0
C1662 C 0.13559 0.8505 0.33598 0.0
C1663 C 0.12893 0.84827 0.36987 0.0
C1664 C 0.14744 0.83936 0.32371 0.0
C1665 C 0.15288 0.8257 0.34501 0.0
C1666 C 0.14609 0.82333 0.37887 0.0
C1667 C 0.13423 0.8345 0.39118 0.0
H1668 H 0.72938 0.87235 0.7889 0.0
H1669 H 0.72387 0.84763 0.89077 0.0
H1670 H 0.68671 0.84884 0.78312 0.0
H1671 H 0.68129 0.82446 0.88507 0.0
H1672 H 0.60917 0.76588 0.84848 0.0
H1673 H 0.65179 0.78953 0.85455 0.0
H1674 H 0.65105 0.8477 0.80497 0.0
H1675 H 0.60855 0.82402 0.79846 0.0
C1676 C 0.71908 0.86199 0.81007 0.0
C1677 C 0.73002 0.86183 0.84025 0.0
C1678 C 0.69464 0.84862 0.80682 0.0
C1679 C 0.68067 0.83479 0.83364 0.0
C1680 C 0.69162 0.8347 0.86383 0.0
C1681 C 0.71601 0.8481 0.86712 0.0
C1682 C 0.61809 0.78372 0.83895 0.0
C1683 C 0.60548 0.79305 0.82296 0.0
C1684 C 0.64249 0.7973 0.84255 0.0
C1685 C 0.65476 0.82045 0.83016 0.0
C1686 C 0.64212 0.82981 0.81437 0.0
C1687 C 0.61774 0.81628 0.81086 0.0
H1688 H 0.18462 0.79187 0.77513 0.0
H1689 H 0.20691 0.80622 0.87857 0.0
H1690 H 0.16135 0.81105 0.7827 0.0
H1691 H 0.1832 0.825 0.88629 0.0
H1692 H 0.15799 0.8786 0.87684 0.0
H1693 H 0.18184 0.85999 0.86935 0.0
H1694 H 0.12598 0.80458 0.81148 0.0
H1695 H 0.10232 0.82342 0.81836 0.0
C1696 C 0.18451 0.79906 0.79952 0.0
C1697 C 0.19762 0.7975 0.82626 0.0
C1698 C 0.17105 0.80992 0.8039 0.0
C1699 C 0.17035 0.81948 0.83512 0.0
C1700 C 0.18357 0.81805 0.86182 0.0
C1701 C 0.19706 0.80718 0.85743 0.0
C1702 C 0.15079 0.86245 0.86251 0.0
C1703 C 0.12827 0.85252 0.84813 0.0
C1704 C 0.16442 0.85171 0.85838 0.0
C1705 C 0.15582 0.83081 0.83979 0.0
C1706 C 0.13325 0.82085 0.82554 0.0
C1707 C 0.11963 0.83158 0.82965 0.0
H1708 H 0.19605 0.39128 0.76772 0.0
H1709 H 0.19596 0.40591 0.87334 0.0
H1710 H 0.17466 0.34925 0.77945 0.0
H1711 H 0.17499 0.3638 0.88513 0.0
H1712 H 0.11621 0.28662 0.8887 0.0
H1713 H 0.13687 0.32872 0.87711 0.0
H1714 H 0.18107 0.31958 0.8055 0.0
H1715 H 0.16009 0.27743 0.81651 0.0
C1716 C 0.19154 0.38554 0.79347 0.0
C1717 C 0.19774 0.40195 0.81961 0.0
C1718 C 0.17939 0.36143 0.8002 0.0
C1719 C 0.17321 0.35317 0.83324 0.0
C1720 C 0.17926 0.36958 0.85937 0.0
C1721 C 0.19139 0.39372 0.85262 0.0
C1722 C 0.13034 0.29359 0.87048 0.0
C1723 C 0.13648 0.27866 0.85348 0.0
C1724 C 0.14226 0.31775 0.86398 0.0
C1725 C 0.1606 0.32751 0.84036 0.0
C1726 C 0.1668 0.31258 0.82348 0.0
C1727 C 0.15486 0.28842 0.82995 0.0
H1728 H 0.89565 0.72288 0.66741 0.0
H1729 H 0.83556 0.71775 0.61513 0.0
H1730 H 0.87375 0.68061 0.67796 0.0
H1731 H 0.81359 0.67564 0.62624 0.0
H1732 H 0.79024 0.59733 0.62219 0.0
H1733 H 0.81292 0.63939 0.61037 0.0
H1734 H 0.84033 0.65229 0.71135 0.0
H1735 H 0.81804 0.61026 0.72302 0.0
C1736 C 0.87777 0.71276 0.65824 0.0
C1737 C 0.86735 0.72368 0.64046 0.0
C1738 C 0.86519 0.68857 0.66444 0.0
C1739 C 0.84194 0.67479 0.65295 0.0
C1740 C 0.83157 0.68571 0.63504 0.0
C1741 C 0.84413 0.70988 0.62886 0.0
C1742 C 0.80111 0.60914 0.64186 0.0
C1743 C 0.80232 0.60045 0.67354 0.0
C1744 C 0.81402 0.63325 0.63513 0.0
C1745 C 0.82842 0.64916 0.65993 0.0
C1746 C 0.82965 0.64045 0.69158 0.0
C1747 C 0.81674 0.61637 0.69832 0.0
H1748 H 0.27323 0.15938 0.68291 0.0
H1749 H 0.28012 0.10831 0.62286 0.0
H1750 H 0.31513 0.17917 0.69543 0.0
H1751 H 0.32193 0.12778 0.63608 0.0
H1752 H 0.40001 0.1848 0.63589 0.0
H1753 H 0.35797 0.16405 0.62384 0.0
H1754 H 0.34357 0.17362 0.72657 0.0
H1755 H 0.38557 0.19485 0.73841 0.0
C1756 C 0.28365 0.15227 0.67258 0.0
C1757 C 0.27336 0.13231 0.65185 0.0
C1758 C 0.30765 0.16354 0.67991 0.0
C1759 C 0.32187 0.15504 0.66676 0.0
C1760 C 0.31152 0.13496 0.64622 0.0
C1761 C 0.28753 0.12373 0.6388 0.0
C1762 C 0.38786 0.18241 0.65592 0.0
C1763 C 0.39613 0.19155 0.68806 0.0
C1764 C 0.36377 0.17042 0.64906 0.0
C1765 C 0.34743 0.16724 0.67423 0.0
C1766 C 0.35571 0.1761 0.70649 0.0
C1767 C 0.37979 0.18815 0.71332 0.0
H1768 H 0.88114 0.16484 0.60978 0.0
H1769 H 0.82938 0.10476 0.66582 0.0
H1770 H 0.85866 0.18471 0.61897 0.0
H1771 H 0.80665 0.12447 0.6744 0.0
H1772 H 0.78743 0.17789 0.71538 0.0
H1773 H 0.80948 0.1577 0.70539 0.0
H1774 H 0.82178 0.18244 0.60297 0.0
H1775 H 0.8001 0.20308 0.61314 0.0
C1776 C 0.8649 0.15581 0.62391 0.0
C1777 C 0.85708 0.13324 0.63716 0.0
C1778 C 0.85194 0.16715 0.62899 0.0
C1779 C 0.83087 0.15617 0.64742 0.0
C1780 C 0.82298 0.13353 0.66047 0.0
C1781 C 0.83594 0.12219 0.6554 0.0
C1782 C 0.79482 0.17903 0.69072 0.0
C1783 C 0.79204 0.19213 0.66506 0.0
C1784 C 0.80734 0.16733 0.68494 0.0
C1785 C 0.81735 0.16843 0.65337 0.0
C1786 C 0.81452 0.18149 0.62769 0.0
C1787 C 0.802 0.19322 0.63347 0.0
H1788 H 0.05289 0.56587 0.54438 0.0
H1789 H 0.06587 0.5119 0.50548 0.0
H1790 H 0.01097 0.54081 0.53302 0.0
H1791 H 0.02403 0.48701 0.49388 0.0
H1792 H 0.9446 0.43998 0.5114 0.0
H1793 H 0.98626 0.46486 0.52469 0.0
H1794 H 0.98492 0.52504 0.4834 0.0
H1795 H 0.9433 0.50032 0.47039 0.0
C1796 C 0.04682 0.54869 0.53339 0.0
C1797 C 0.06272 0.5409 0.52578 0.0
C1798 C 0.02284 0.53439 0.52675 0.0
C1799 C 0.01424 0.51195 0.51256 0.0
C1800 C 0.03011 0.50411 0.50516 0.0
C1801 C 0.0541 0.51845 0.51161 0.0
C1802 C 0.95318 0.45852 0.50521 0.0
C1803 C 0.94064 0.46816 0.48981 0.0
C1804 C 0.97706 0.47274 0.51268 0.0
C1805 C 0.98884 0.49689 0.50508 0.0
C1806 C 0.97626 0.50654 0.4899 0.0
C1807 C 0.95244 0.49233 0.48227 0.0
H1808 H 0.43615 0.4965 0.4846 0.0
H1809 H 0.49487 0.55037 0.54039 0.0
H1810 H 0.45686 0.47444 0.47909 0.0
H1811 H 0.51564 0.5285 0.53442 0.0
H1812 H 0.53343 0.46983 0.54944 0.0
H1813 H 0.5126 0.49175 0.55473 0.0
H1814 H 0.49153 0.47738 0.4509 0.0
H1815 H 0.51203 0.45517 0.44568 0.0
C1816 C 0.4535 0.50369 0.49554 0.0
C1817 C 0.46384 0.52517 0.51296 0.0
C1818 C 0.46541 0.49111 0.49225 0.0
C1819 C 0.48786 0.49972 0.50639 0.0
C1820 C 0.49823 0.52125 0.52365 0.0
C1821 C 0.48637 0.53385 0.52687 0.0
C1822 C 0.52436 0.47134 0.52774 0.0
C1823 C 0.52437 0.46074 0.49716 0.0
C1824 C 0.51253 0.484 0.53073 0.0
C1825 C 0.50043 0.48629 0.50322 0.0
C1826 C 0.50045 0.47569 0.47265 0.0
C1827 C 0.51232 0.46308 0.46964 0.0
H1828 H 0.49849 0.06034 0.52681 0.0
H1829 H 0.5332 0.053 0.43936 0.0
H1830 H 0.47952 0.01803 0.5365 0.0
H1831 H 0.51463 0.01086 0.44946 0.0
H1832 H 0.45824 0.93337 0.45754 0.0
H1833 H 0.47616 0.97553 0.44762 0.0
H1834 H 0.48966 0.98855 0.55369 0.0
H1835 H 0.47131 0.94638 0.56373 0.0
C1836 C 0.50212 0.04972 0.50971 0.0
C1837 C 0.51734 0.06003 0.48231 0.0
C1838 C 0.49136 0.0255 0.51537 0.0
C1839 C 0.49558 0.01109 0.49375 0.0
C1840 C 0.51076 0.02142 0.46631 0.0
C1841 C 0.52151 0.04561 0.46065 0.0
C1842 C 0.46503 0.94522 0.47875 0.0
C1843 C 0.46335 0.93652 0.51142 0.0
C1844 C 0.47539 0.96939 0.47304 0.0
C1845 C 0.48434 0.98539 0.49987 0.0
C1846 C 0.48265 0.97667 0.53254 0.0
C1847 C 0.47226 0.95251 0.53826 0.0
H1848 H 0.52901 0.06318 0.02222 0.0
H1849 H 0.51662 0.03951 0.91927 0.0
H1850 H 0.50638 0.02255 0.04123 0.0
H1851 H 0.49352 -0.00111 0.93832 0.0
H1852 H 0.47573 0.92831 0.98538 0.0
H1853 H 0.49852 0.9689 0.96631 0.0
H1854 H 0.46616 0.99012 0.04264 0.0
H1855 H 0.44374 0.94956 0.06226 0.0
C1856 C 0.52139 0.04932 0.00363 0.0
C1857 C 0.52463 0.05458 0.96922 0.0
C1858 C 0.50828 0.02603 0.01454 0.0
C1859 C 0.49809 0.00749 0.9913 0.0
C1860 C 0.50138 0.01276 0.95688 0.0
C1861 C 0.51453 0.03605 0.94596 0.0
C1862 C 0.47346 0.94162 0.9981 0.0
C1863 C 0.45794 0.93571 0.02538 0.0
C1864 C 0.48643 0.96487 0.98703 0.0
C1865 C 0.48415 0.98274 0.00294 0.0
C1866 C 0.46856 0.97681 0.03014 0.0
C1867 C 0.45561 0.95355 0.04126 0.0
H1868 H 0.9392 0.4511 0.94608 0.0
H1869 H 0.92484 0.47461 0.03974 0.0
H1870 H 0.98108 0.47226 0.9589 0.0
H1871 H 0.9667 0.49533 0.0529 0.0
H1872 H 0.04502 0.55068 0.04681 0.0
H1873 H 0.00303 0.52931 0.03455 0.0
H1874 H 0.0092 0.47091 0.99675 0.0
H1875 H 0.05127 0.49248 0.00824 0.0
C1876 C 0.94496 0.46067 0.9695 0.0
C1877 C 0.9287 0.4612 0.99187 0.0
C1878 C 0.96896 0.47269 0.97693 0.0
C1879 C 0.97723 0.48547 0.00694 0.0
C1880 C 0.96094 0.48591 0.02937 0.0
C1881 C 0.93693 0.47392 0.02191 0.0
C1882 C 0.03741 0.53327 0.03591 0.0
C1883 C 0.05149 0.5233 0.02841 0.0
C1884 C 0.01332 0.52097 0.02907 0.0
C1885 C 0.00277 0.49841 0.01466 0.0
C1886 C 0.01684 0.48839 0.0074 0.0
C1887 C 0.04094 0.50071 0.01416 0.0
H1888 H 0.55806 0.49806 0.9746 0.0
H1889 H 0.49642 0.43819 0.01642 0.0
H1890 H 0.54123 0.52299 0.98695 0.0
H1891 H 0.47972 0.46325 0.02899 0.0
H1892 H 0.44686 0.50956 0.00686 0.0
H1893 H 0.46419 0.48487 0.99643 0.0
H1894 H 0.53053 0.53922 0.03603 0.0
H1895 H 0.51327 0.56411 0.04628 0.0
C1896 C 0.54096 0.49023 0.98654 0.0
C1897 C 0.52853 0.46612 0.99444 0.0
C1898 C 0.53141 0.50456 0.99379 0.0
C1899 C 0.50916 0.49505 0.00887 0.0
C1900 C 0.4968 0.47099 0.01701 0.0
C1901 C 0.50642 0.45668 0.00996 0.0
C1902 C 0.46515 0.51629 0.01332 0.0
C1903 C 0.47871 0.53883 0.02734 0.0
C1904 C 0.47502 0.50206 0.00756 0.0
C1905 C 0.49868 0.5101 0.01549 0.0
C1906 C 0.51229 0.53266 0.02941 0.0
C1907 C 0.50237 0.54685 0.03539 0.0
loop_
_geom_bond_atom_site_label_1
_geom_bond_atom_site_label_2
_geom_bond_distance
_geom_bond_site_symmetry_2
_ccdc_geom_bond_type
C0 O1 1.160 . S
C0 O7 1.185 . S
O1 C0 1.160 . S
O2 Zn3 1.899 . S
O2 C10 1.284 . S
Zn3 O2 1.899 . S
Zn3 O4 2.032 . S
Zn3 O7 2.086 . S
Zn3 O12 1.977 . S
O4 Zn3 2.032 . S
O4 C8 1.278 . S
C5 O6 1.203 . S
C5 O12 1.267 . S
O6 C5 1.203 . S
O7 C0 1.185 . S
O7 Zn3 2.086 . S
C8 O4 1.278 . S
C8 O9 1.211 . S
O9 C8 1.211 . S
C10 O2 1.284 . S
C10 O11 1.273 . S
O11 C10 1.273 . S
O12 Zn3 1.977 . S
O12 C5 1.267 . S
C13 O14 1.160 . S
C13 O20 1.185 . S
O14 C13 1.160 . S
O15 Zn16 1.899 . S
O15 C23 1.284 . S
Zn16 O15 1.899 . S
Zn16 O17 2.032 . S
Zn16 O20 2.086 . S
Zn16 O25 1.977 . S
O17 Zn16 2.032 . S
O17 C21 1.278 . S
C18 O19 1.203 . S
C18 O25 1.267 . S
O19 C18 1.203 . S
O20 C13 1.185 . S
O20 Zn16 2.086 . S
C21 O17 1.278 . S
C21 O22 1.211 . S
O22 C21 1.211 . S
C23 O15 1.284 . S
C23 O24 1.273 . S
O24 C23 1.273 . S
O25 Zn16 1.977 . S
O25 C18 1.267 . S
C26 O27 1.160 . S
C26 O33 1.185 . S
O27 C26 1.160 . S
O28 Zn29 1.899 . S
O28 C36 1.284 . S
Zn29 O28 1.899 . S
Zn29 O30 2.032 . S
Zn29 O33 2.086 . S
Zn29 O38 1.977 . S
O30 Zn29 2.032 . S
O30 C34 1.278 . S
C31 O32 1.203 . S
C31 O38 1.267 . S
O32 C31 1.203 . S
O33 C26 1.185 . S
O33 Zn29 2.086 . S
C34 O30 1.278 . S
C34 O35 1.211 . S
O35 C34 1.211 . S
C36 O28 1.284 . S
C36 O37 1.273 . S
O37 C36 1.273 . S
O38 Zn29 1.977 . S
O38 C31 1.267 . S
C39 O40 1.160 . S
C39 O46 1.185 . S
O40 C39 1.160 . S
O41 Zn42 1.899 . S
O41 C49 1.284 . S
Zn42 O41 1.899 . S
Zn42 O43 2.032 . S
Zn42 O46 2.086 . S
Zn42 O51 1.977 . S
O43 Zn42 2.032 . S
O43 C47 1.278 . S
C44 O45 1.203 . S
C44 O51 1.267 . S
O45 C44 1.203 . S
O46 C39 1.185 . S
O46 Zn42 2.086 . S
C47 O43 1.278 . S
C47 O48 1.211 . S
O48 C47 1.211 . S
C49 O41 1.284 . S
C49 O50 1.273 . S
O50 C49 1.273 . S
O51 Zn42 1.977 . S
O51 C44 1.267 . S
C52 O53 1.160 . S
C52 O59 1.185 . S
O53 C52 1.160 . S
O54 Zn55 1.899 . S
O54 C62 1.284 . S
Zn55 O54 1.899 . S
Zn55 O56 2.032 . S
Zn55 O59 2.086 . S
Zn55 O64 1.977 . S
O56 Zn55 2.032 . S
O56 C60 1.278 . S
C57 O58 1.203 . S
C57 O64 1.267 . S
O58 C57 1.203 . S
O59 C52 1.185 . S
O59 Zn55 2.086 . S
C60 O56 1.278 . S
C60 O61 1.211 . S
O61 C60 1.211 . S
C62 O54 1.284 . S
C62 O63 1.273 . S
O63 C62 1.273 . S
O64 Zn55 1.977 . S
O64 C57 1.267 . S
C65 O66 1.160 . S
C65 O72 1.185 . S
O66 C65 1.160 . S
O67 Zn68 1.899 . S
O67 C75 1.284 . S
Zn68 O67 1.899 . S
Zn68 O69 2.032 . S
Zn68 O72 2.086 . S
Zn68 O77 1.977 . S
O69 Zn68 2.032 . S
O69 C73 1.278 . S
C70 O71 1.203 . S
C70 O77 1.267 . S
O71 C70 1.203 . S
O72 C65 1.185 . S
O72 Zn68 2.086 . S
C73 O69 1.278 . S
C73 O74 1.211 . S
O74 C73 1.211 . S
C75 O67 1.284 . S
C75 O76 1.273 . S
O76 C75 1.273 . S
O77 Zn68 1.977 . S
O77 C70 1.267 . S
C78 O79 1.160 . S
C78 O85 1.185 . S
O79 C78 1.160 . S
O80 Zn81 1.899 . S
O80 C88 1.284 . S
Zn81 O80 1.899 . S
Zn81 O82 2.032 . S
Zn81 O85 2.086 . S
Zn81 O90 1.977 . S
O82 Zn81 2.032 . S
O82 C86 1.278 . S
C83 O84 1.203 . S
C83 O90 1.267 . S
O84 C83 1.203 . S
O85 C78 1.185 . S
O85 Zn81 2.086 . S
C86 O82 1.278 . S
C86 O87 1.211 . S
O87 C86 1.211 . S
C88 O80 1.284 . S
C88 O89 1.273 . S
O89 C88 1.273 . S
O90 Zn81 1.977 . S
O90 C83 1.267 . S
C91 O92 1.160 . S
C91 O98 1.185 . S
O92 C91 1.160 . S
O93 Zn94 1.899 . S
O93 C101 1.284 . S
Zn94 O93 1.899 . S
Zn94 O95 2.032 . S
Zn94 O98 2.086 . S
Zn94 O103 1.977 . S
O95 Zn94 2.032 . S
O95 C99 1.278 . S
C96 O97 1.203 . S
C96 O103 1.267 . S
O97 C96 1.203 . S
O98 C91 1.185 . S
O98 Zn94 2.086 . S
C99 O95 1.278 . S
C99 O100 1.211 . S
O100 C99 1.211 . S
C101 O93 1.284 . S
C101 O102 1.273 . S
O102 C101 1.273 . S
O103 Zn94 1.977 . S
O103 C96 1.267 . S
C104 O105 1.160 . S
C104 O111 1.185 . S
O105 C104 1.160 . S
O106 Zn107 1.899 . S
O106 C114 1.284 . S
Zn107 O106 1.899 . S
Zn107 O108 2.032 . S
Zn107 O111 2.086 . S
Zn107 O116 1.977 . S
O108 Zn107 2.032 . S
O108 C112 1.278 . S
C109 O110 1.203 . S
C109 O116 1.267 . S
O110 C109 1.203 . S
O111 C104 1.185 . S
O111 Zn107 2.086 . S
C112 O108 1.278 . S
C112 O113 1.211 . S
O113 C112 1.211 . S
C114 O106 1.284 . S
C114 O115 1.273 . S
O115 C114 1.273 . S
O116 Zn107 1.977 . S
O116 C109 1.267 . S
C117 O118 1.160 . S
C117 O124 1.185 . S
O118 C117 1.160 . S
O119 Zn120 1.899 . S
O119 C127 1.284 . S
Zn120 O119 1.899 . S
Zn120 O121 2.032 . S
Zn120 O124 2.086 . S
Zn120 O129 1.977 . S
O121 Zn120 2.032 . S
O121 C125 1.278 . S
C122 O123 1.203 . S
C122 O129 1.267 . S
O123 C122 1.203 . S
O124 C117 1.185 . S
O124 Zn120 2.086 . S
C125 O121 1.278 . S
C125 O126 1.211 . S
O126 C125 1.211 . S
C127 O119 1.284 . S
C127 O128 1.273 . S
O128 C127 1.273 . S
O129 Zn120 1.977 . S
O129 C122 1.267 . S
C130 O131 1.160 . S
C130 O137 1.185 . S
O131 C130 1.160 . S
O132 Zn133 1.899 . S
O132 C140 1.284 . S
Zn133 O132 1.899 . S
Zn133 O134 2.032 . S
Zn133 O137 2.086 . S
Zn133 O142 1.977 . S
O134 Zn133 2.032 . S
O134 C138 1.278 . S
C135 O136 1.203 . S
C135 O142 1.267 . S
O136 C135 1.203 . S
O137 C130 1.185 . S
O137 Zn133 2.086 . S
C138 O134 1.278 . S
C138 O139 1.211 . S
O139 C138 1.211 . S
C140 O132 1.284 . S
C140 O141 1.273 . S
O141 C140 1.273 . S
O142 Zn133 1.977 . S
O142 C135 1.267 . S
C143 O144 1.160 . S
C143 O150 1.185 . S
O144 C143 1.160 . S
O145 Zn146 1.899 . S
O145 C153 1.284 . S
Zn146 O145 1.899 . S
Zn146 O147 2.032 . S
Zn146 O150 2.086 . S
Zn146 O155 1.977 . S
O147 Zn146 2.032 . S
O147 C151 1.278 . S
C148 O149 1.203 . S
C148 O155 1.267 . S
O149 C148 1.203 . S
O150 C143 1.185 . S
O150 Zn146 2.086 . S
C151 O147 1.278 . S
C151 O152 1.211 . S
O152 C151 1.211 . S
C153 O145 1.284 . S
C153 O154 1.273 . S
O154 C153 1.273 . S
O155 Zn146 1.977 . S
O155 C148 1.267 . S
C156 O157 1.160 . S
C156 O163 1.185 . S
O157 C156 1.160 . S
O158 Zn159 1.899 . S
O158 C166 1.284 . S
Zn159 O158 1.899 . S
Zn159 O160 2.032 . S
Zn159 O163 2.086 . S
Zn159 O168 1.977 . S
O160 Zn159 2.032 . S
O160 C164 1.278 . S
C161 O162 1.203 . S
C161 O168 1.267 . S
O162 C161 1.203 . S
O163 C156 1.185 . S
O163 Zn159 2.086 . S
C164 O160 1.278 . S
C164 O165 1.211 . S
O165 C164 1.211 . S
C166 O158 1.284 . S
C166 O167 1.273 . S
O167 C166 1.273 . S
O168 Zn159 1.977 . S
O168 C161 1.267 . S
C169 O170 1.160 . S
C169 O176 1.185 . S
O170 C169 1.160 . S
O171 Zn172 1.899 . S
O171 C179 1.284 . S
Zn172 O171 1.899 . S
Zn172 O173 2.032 . S
Zn172 O176 2.086 . S
Zn172 O181 1.977 . S
O173 Zn172 2.032 . S
O173 C177 1.278 . S
C174 O175 1.203 . S
C174 O181 1.267 . S
O175 C174 1.203 . S
O176 C169 1.185 . S
O176 Zn172 2.086 . S
C177 O173 1.278 . S
C177 O178 1.211 . S
O178 C177 1.211 . S
C179 O171 1.284 . S
C179 O180 1.273 . S
O180 C179 1.273 . S
O181 Zn172 1.977 . S
O181 C174 1.267 . S
C182 O183 1.160 . S
C182 O189 1.185 . S
O183 C182 1.160 . S
O184 Zn185 1.899 . S
O184 C192 1.284 . S
Zn185 O184 1.899 . S
Zn185 O186 2.032 . S
Zn185 O189 2.086 . S
Zn185 O194 1.977 . S
O186 Zn185 2.032 . S
O186 C190 1.278 . S
C187 O188 1.203 . S
C187 O194 1.267 . S
O188 C187 1.203 . S
O189 C182 1.185 . S
O189 Zn185 2.086 . S
C190 O186 1.278 . S
C190 O191 1.211 . S
O191 C190 1.211 . S
C192 O184 1.284 . S
C192 O193 1.273 . S
O193 C192 1.273 . S
O194 Zn185 1.977 . S
O194 C187 1.267 . S
C195 O196 1.160 . S
C195 O202 1.185 . S
O196 C195 1.160 . S
O197 Zn198 1.899 . S
O197 C205 1.284 . S
Zn198 O197 1.899 . S
Zn198 O199 2.032 . S
Zn198 O202 2.086 . S
Zn198 O207 1.977 . S
O199 Zn198 2.032 . S
O199 C203 1.278 . S
C200 O201 1.203 . S
C200 O207 1.267 . S
O201 C200 1.203 . S
O202 C195 1.185 . S
O202 Zn198 2.086 . S
C203 O199 1.278 . S
C203 O204 1.211 . S
O204 C203 1.211 . S
C205 O197 1.284 . S
C205 O206 1.273 . S
O206 C205 1.273 . S
O207 Zn198 1.977 . S
O207 C200 1.267 . S
C208 O209 1.160 . S
C208 O215 1.185 . S
O209 C208 1.160 . S
O210 Zn211 1.899 . S
O210 C218 1.284 . S
Zn211 O210 1.899 . S
Zn211 O212 2.032 . S
Zn211 O215 2.086 . S
Zn211 O220 1.977 . S
O212 Zn211 2.032 . S
O212 C216 1.278 . S
C213 O214 1.203 . S
C213 O220 1.267 . S
O214 C213 1.203 . S
O215 C208 1.185 . S
O215 Zn211 2.086 . S
C216 O212 1.278 . S
C216 O217 1.211 . S
O217 C216 1.211 . S
C218 O210 1.284 . S
C218 O219 1.273 . S
O219 C218 1.273 . S
O220 Zn211 1.977 . S
O220 C213 1.267 . S
C221 O222 1.160 . S
C221 O228 1.185 . S
O222 C221 1.160 . S
O223 Zn224 1.899 . S
O223 C231 1.284 . S
Zn224 O223 1.899 . S
Zn224 O225 2.032 . S
Zn224 O228 2.086 . S
Zn224 O233 1.977 . S
O225 Zn224 2.032 . S
O225 C229 1.278 . S
C226 O227 1.203 . S
C226 O233 1.267 . S
O227 C226 1.203 . S
O228 C221 1.185 . S
O228 Zn224 2.086 . S
C229 O225 1.278 . S
C229 O230 1.211 . S
O230 C229 1.211 . S
C231 O223 1.284 . S
C231 O232 1.273 . S
O232 C231 1.273 . S
O233 Zn224 1.977 . S
O233 C226 1.267 . S
C234 O235 1.160 . S
C234 O241 1.185 . S
O235 C234 1.160 . S
O236 Zn237 1.899 . S
O236 C244 1.284 . S
Zn237 O236 1.899 . S
Zn237 O238 2.032 . S
Zn237 O241 2.086 . S
Zn237 O246 1.977 . S
O238 Zn237 2.032 . S
O238 C242 1.278 . S
C239 O240 1.203 . S
C239 O246 1.267 . S
O240 C239 1.203 . S
O241 C234 1.185 . S
O241 Zn237 2.086 . S
C242 O238 1.278 . S
C242 O243 1.211 . S
O243 C242 1.211 . S
C244 O236 1.284 . S
C244 O245 1.273 . S
O245 C244 1.273 . S
O246 Zn237 1.977 . S
O246 C239 1.267 . S
C247 O248 1.160 . S
C247 O254 1.185 . S
O248 C247 1.160 . S
O249 Zn250 1.899 . S
O249 C257 1.284 . S
Zn250 O249 1.899 . S
Zn250 O251 2.032 . S
Zn250 O254 2.086 . S
Zn250 O259 1.977 . S
O251 Zn250 2.032 . S
O251 C255 1.278 . S
C252 O253 1.203 . S
C252 O259 1.267 . S
O253 C252 1.203 . S
O254 C247 1.185 . S
O254 Zn250 2.086 . S
C255 O251 1.278 . S
C255 O256 1.211 . S
O256 C255 1.211 . S
C257 O249 1.284 . S
C257 O258 1.273 . S
O258 C257 1.273 . S
O259 Zn250 1.977 . S
O259 C252 1.267 . S
C260 O261 1.160 . S
C260 O267 1.185 . S
O261 C260 1.160 . S
O262 Zn263 1.899 . S
O262 C270 1.284 . S
Zn263 O262 1.899 . S
Zn263 O264 2.032 . S
Zn263 O267 2.086 . S
Zn263 O272 1.977 . S
O264 Zn263 2.032 . S
O264 C268 1.278 . S
C265 O266 1.203 . S
C265 O272 1.267 . S
O266 C265 1.203 . S
O267 C260 1.185 . S
O267 Zn263 2.086 . S
C268 O264 1.278 . S
C268 O269 1.211 . S
O269 C268 1.211 . S
C270 O262 1.284 . S
C270 O271 1.273 . S
O271 C270 1.273 . S
O272 Zn263 1.977 . S
O272 C265 1.267 . S
C273 O274 1.160 . S
C273 O280 1.185 . S
O274 C273 1.160 . S
O275 Zn276 1.899 . S
O275 C283 1.284 . S
Zn276 O275 1.899 . S
Zn276 O277 2.032 . S
Zn276 O280 2.086 . S
Zn276 O285 1.977 . S
O277 Zn276 2.032 . S
O277 C281 1.278 . S
C278 O279 1.203 . S
C278 O285 1.267 . S
O279 C278 1.203 . S
O280 C273 1.185 . S
O280 Zn276 2.086 . S
C281 O277 1.278 . S
C281 O282 1.211 . S
O282 C281 1.211 . S
C283 O275 1.284 . S
C283 O284 1.273 . S
O284 C283 1.273 . S
O285 Zn276 1.977 . S
O285 C278 1.267 . S
C286 O287 1.160 . S
C286 O293 1.185 . S
O287 C286 1.160 . S
O288 Zn289 1.899 . S
O288 C296 1.284 . S
Zn289 O288 1.899 . S
Zn289 O290 2.032 . S
Zn289 O293 2.086 . S
Zn289 O298 1.977 . S
O290 Zn289 2.032 . S
O290 C294 1.278 . S
C291 O292 1.203 . S
C291 O298 1.267 . S
O292 C291 1.203 . S
O293 C286 1.185 . S
O293 Zn289 2.086 . S
C294 O290 1.278 . S
C294 O295 1.211 . S
O295 C294 1.211 . S
C296 O288 1.284 . S
C296 O297 1.273 . S
O297 C296 1.273 . S
O298 Zn289 1.977 . S
O298 C291 1.267 . S
C299 O300 1.160 . S
C299 O306 1.185 . S
O300 C299 1.160 . S
O301 Zn302 1.899 . S
O301 C309 1.284 . S
Zn302 O301 1.899 . S
Zn302 O303 2.032 . S
Zn302 O306 2.086 . S
Zn302 O311 1.977 . S
O303 Zn302 2.032 . S
O303 C307 1.278 . S
C304 O305 1.203 . S
C304 O311 1.267 . S
O305 C304 1.203 . S
O306 C299 1.185 . S
O306 Zn302 2.086 . S
C307 O303 1.278 . S
C307 O308 1.211 . S
O308 C307 1.211 . S
C309 O301 1.284 . S
C309 O310 1.273 . S
O310 C309 1.273 . S
O311 Zn302 1.977 . S
O311 C304 1.267 . S
C312 O313 1.160 . S
C312 O319 1.185 . S
O313 C312 1.160 . S
O314 Zn315 1.899 . S
O314 C322 1.284 . S
Zn315 O314 1.899 . S
Zn315 O316 2.032 . S
Zn315 O319 2.086 . S
Zn315 O324 1.977 . S
O316 Zn315 2.032 . S
O316 C320 1.278 . S
C317 O318 1.203 . S
C317 O324 1.267 . S
O318 C317 1.203 . S
O319 C312 1.185 . S
O319 Zn315 2.086 . S
C320 O316 1.278 . S
C320 O321 1.211 . S
O321 C320 1.211 . S
C322 O314 1.284 . S
C322 O323 1.273 . S
O323 C322 1.273 . S
O324 Zn315 1.977 . S
O324 C317 1.267 . S
C325 O326 1.160 . S
C325 O332 1.185 . S
O326 C325 1.160 . S
O327 Zn328 1.899 . S
O327 C335 1.284 . S
Zn328 O327 1.899 . S
Zn328 O329 2.032 . S
Zn328 O332 2.086 . S
Zn328 O337 1.977 . S
O329 Zn328 2.032 . S
O329 C333 1.278 . S
C330 O331 1.203 . S
C330 O337 1.267 . S
O331 C330 1.203 . S
O332 C325 1.185 . S
O332 Zn328 2.086 . S
C333 O329 1.278 . S
C333 O334 1.211 . S
O334 C333 1.211 . S
C335 O327 1.284 . S
C335 O336 1.273 . S
O336 C335 1.273 . S
O337 Zn328 1.977 . S
O337 C330 1.267 . S
C338 O339 1.160 . S
C338 O345 1.185 . S
O339 C338 1.160 . S
O340 Zn341 1.899 . S
O340 C348 1.284 . S
Zn341 O340 1.899 . S
Zn341 O342 2.032 . S
Zn341 O345 2.086 . S
Zn341 O350 1.977 . S
O342 Zn341 2.032 . S
O342 C346 1.278 . S
C343 O344 1.203 . S
C343 O350 1.267 . S
O344 C343 1.203 . S
O345 C338 1.185 . S
O345 Zn341 2.086 . S
C346 O342 1.278 . S
C346 O347 1.211 . S
O347 C346 1.211 . S
C348 O340 1.284 . S
C348 O349 1.273 . S
O349 C348 1.273 . S
O350 Zn341 1.977 . S
O350 C343 1.267 . S
C351 O352 1.160 . S
C351 O358 1.185 . S
O352 C351 1.160 . S
O353 Zn354 1.899 . S
O353 C361 1.284 . S
Zn354 O353 1.899 . S
Zn354 O355 2.032 . S
Zn354 O358 2.086 . S
Zn354 O363 1.977 . S
O355 Zn354 2.032 . S
O355 C359 1.278 . S
C356 O357 1.203 . S
C356 O363 1.267 . S
O357 C356 1.203 . S
O358 C351 1.185 . S
O358 Zn354 2.086 . S
C359 O355 1.278 . S
C359 O360 1.211 . S
O360 C359 1.211 . S
C361 O353 1.284 . S
C361 O362 1.273 . S
O362 C361 1.273 . S
O363 Zn354 1.977 . S
O363 C356 1.267 . S
C364 O365 1.160 . S
C364 O371 1.185 . S
O365 C364 1.160 . S
O366 Zn367 1.899 . S
O366 C374 1.284 . S
Zn367 O366 1.899 . S
Zn367 O368 2.032 . S
Zn367 O371 2.086 . S
Zn367 O376 1.977 . S
O368 Zn367 2.032 . S
O368 C372 1.278 . S
C369 O370 1.203 . S
C369 O376 1.267 . S
O370 C369 1.203 . S
O371 C364 1.185 . S
O371 Zn367 2.086 . S
C372 O368 1.278 . S
C372 O373 1.211 . S
O373 C372 1.211 . S
C374 O366 1.284 . S
C374 O375 1.273 . S
O375 C374 1.273 . S
O376 Zn367 1.977 . S
O376 C369 1.267 . S
C377 O378 1.160 . S
C377 O384 1.185 . S
O378 C377 1.160 . S
O379 Zn380 1.899 . S
O379 C387 1.284 . S
Zn380 O379 1.899 . S
Zn380 O381 2.032 . S
Zn380 O384 2.086 . S
Zn380 O389 1.977 . S
O381 Zn380 2.032 . S
O381 C385 1.278 . S
C382 O383 1.203 . S
C382 O389 1.267 . S
O383 C382 1.203 . S
O384 C377 1.185 . S
O384 Zn380 2.086 . S
C385 O381 1.278 . S
C385 O386 1.211 . S
O386 C385 1.211 . S
C387 O379 1.284 . S
C387 O388 1.273 . S
O388 C387 1.273 . S
O389 Zn380 1.977 . S
O389 C382 1.267 . S
C390 O391 1.160 . S
C390 O397 1.185 . S
O391 C390 1.160 . S
O392 Zn393 1.899 . S
O392 C400 1.284 . S
Zn393 O392 1.899 . S
Zn393 O394 2.032 . S
Zn393 O397 2.086 . S
Zn393 O402 1.977 . S
O394 Zn393 2.032 . S
O394 C398 1.278 . S
C395 O396 1.203 . S
C395 O402 1.267 . S
O396 C395 1.203 . S
O397 C390 1.185 . S
O397 Zn393 2.086 . S
C398 O394 1.278 . S
C398 O399 1.211 . S
O399 C398 1.211 . S
C400 O392 1.284 . S
C400 O401 1.273 . S
O401 C400 1.273 . S
O402 Zn393 1.977 . S
O402 C395 1.267 . S
C403 O404 1.160 . S
C403 O410 1.185 . S
O404 C403 1.160 . S
O405 Zn406 1.899 . S
O405 C413 1.284 . S
Zn406 O405 1.899 . S
Zn406 O407 2.032 . S
Zn406 O410 2.086 . S
Zn406 O415 1.977 . S
O407 Zn406 2.032 . S
O407 C411 1.278 . S
C408 O409 1.203 . S
C408 O415 1.267 . S
O409 C408 1.203 . S
O410 C403 1.185 . S
O410 Zn406 2.086 . S
C411 O407 1.278 . S
C411 O412 1.211 . S
O412 C411 1.211 . S
C413 O405 1.284 . S
C413 O414 1.273 . S
O414 C413 1.273 . S
O415 Zn406 1.977 . S
O415 C408 1.267 . S
C416 O417 1.160 . S
C416 O423 1.185 . S
O417 C416 1.160 . S
O418 Zn419 1.899 . S
O418 C426 1.284 . S
Zn419 O418 1.899 . S
Zn419 O420 2.032 . S
Zn419 O423 2.086 . S
Zn419 O428 1.977 . S
O420 Zn419 2.032 . S
O420 C424 1.278 . S
C421 O422 1.203 . S
C421 O428 1.267 . S
O422 C421 1.203 . S
O423 C416 1.185 . S
O423 Zn419 2.086 . S
C424 O420 1.278 . S
C424 O425 1.211 . S
O425 C424 1.211 . S
C426 O418 1.284 . S
C426 O427 1.273 . S
O427 C426 1.273 . S
O428 Zn419 1.977 . S
O428 C421 1.267 . S
C429 O430 1.160 . S
C429 O436 1.185 . S
O430 C429 1.160 . S
O431 Zn432 1.899 . S
O431 C439 1.284 . S
Zn432 O431 1.899 . S
Zn432 O433 2.032 . S
Zn432 O436 2.086 . S
Zn432 O441 1.977 . S
O433 Zn432 2.032 . S
O433 C437 1.278 . S
C434 O435 1.203 . S
C434 O441 1.267 . S
O435 C434 1.203 . S
O436 C429 1.185 . S
O436 Zn432 2.086 . S
C437 O433 1.278 . S
C437 O438 1.211 . S
O438 C437 1.211 . S
C439 O431 1.284 . S
C439 O440 1.273 . S
O440 C439 1.273 . S
O441 Zn432 1.977 . S
O441 C434 1.267 . S
C442 O443 1.160 . S
C442 O449 1.185 . S
O443 C442 1.160 . S
O444 Zn445 1.899 . S
O444 C452 1.284 . S
Zn445 O444 1.899 . S
Zn445 O446 2.032 . S
Zn445 O449 2.086 . S
Zn445 O454 1.977 . S
O446 Zn445 2.032 . S
O446 C450 1.278 . S
C447 O448 1.203 . S
C447 O454 1.267 . S
O448 C447 1.203 . S
O449 C442 1.185 . S
O449 Zn445 2.086 . S
C450 O446 1.278 . S
C450 O451 1.211 . S
O451 C450 1.211 . S
C452 O444 1.284 . S
C452 O453 1.273 . S
O453 C452 1.273 . S
O454 Zn445 1.977 . S
O454 C447 1.267 . S
C455 O456 1.160 . S
C455 O462 1.185 . S
O456 C455 1.160 . S
O457 Zn458 1.899 . S
O457 C465 1.284 . S
Zn458 O457 1.899 . S
Zn458 O459 2.032 . S
Zn458 O462 2.086 . S
Zn458 O467 1.977 . S
O459 Zn458 2.032 . S
O459 C463 1.278 . S
C460 O461 1.203 . S
C460 O467 1.267 . S
O461 C460 1.203 . S
O462 C455 1.185 . S
O462 Zn458 2.086 . S
C463 O459 1.278 . S
C463 O464 1.211 . S
O464 C463 1.211 . S
C465 O457 1.284 . S
C465 O466 1.273 . S
O466 C465 1.273 . S
O467 Zn458 1.977 . S
O467 C460 1.267 . S
H468 C476 0.950 . S
H469 C481 0.950 . S
H470 C478 0.950 1_556 S
H471 C480 0.950 . S
H472 C482 0.950 . S
H473 C484 0.950 . S
H474 C486 0.950 . S
H475 C487 0.950 . S
C476 H468 0.950 . S
C476 C477 1.386 . S
C476 C478 1.391 . S
C477 C476 1.386 . S
C477 C481 1.393 . S
C478 H470 0.950 1_554 S
C478 C476 1.391 . S
C478 C479 1.400 . S
C479 C478 1.400 . S
C479 C480 1.398 . S
C479 C485 1.491 . S
C480 H471 0.950 . S
C480 C479 1.398 . S
C480 C481 1.391 . S
C481 H469 0.950 . S
C481 C477 1.393 . S
C481 C480 1.391 . S
C482 H472 0.950 . S
C482 C483 1.386 . S
C482 C484 1.391 1_556 S
C483 C482 1.386 . S
C483 C487 1.393 . S
C484 H473 0.950 . S
C484 C482 1.391 1_554 S
C484 C485 1.400 1_565 S
C485 C479 1.491 . S
C485 C484 1.400 1_545 S
C485 C486 1.398 1_554 S
C486 H474 0.950 . S
C486 C485 1.398 1_556 S
C486 C487 1.391 1_545 S
C487 H475 0.950 . S
C487 C483 1.393 . S
C487 C486 1.391 1_565 S
H488 C496 0.950 . S
H489 C501 0.950 . S
H490 C498 0.950 . S
H491 C500 0.950 . S
H492 C502 0.950 . S
H493 C504 0.945 1_554 S
H494 C506 0.984 . S
H495 C507 0.950 . S
C496 H488 0.950 . S
C496 C497 1.386 . S
C496 C498 1.391 . S
C497 C496 1.386 . S
C497 C501 1.393 . S
C498 H490 0.950 . S
C498 C496 1.391 . S
C498 C499 1.400 . S
C499 C498 1.400 . S
C499 C500 1.398 . S
C499 C505 1.491 . S
C500 H491 0.950 . S
C500 C499 1.398 . S
C500 C501 1.391 . S
C501 H489 0.950 . S
C501 C497 1.393 . S
C501 C500 1.391 . S
C502 H492 0.950 . S
C502 C503 1.386 . S
C502 C504 1.391 . S
C503 C502 1.386 . S
C503 C507 1.393 . S
C504 H493 0.945 1_556 S
C504 C502 1.391 . S
C504 C505 1.400 1_456 S
C505 C499 1.491 . S
C505 C504 1.400 1_654 S
C505 C506 1.386 1_554 S
C506 H494 0.984 . S
C506 C505 1.386 1_556 S
C506 C507 1.370 1_655 S
C507 H495 0.950 . S
C507 C503 1.393 . S
C507 C506 1.370 1_455 S
H508 C516 0.950 . S
H509 C521 0.950 . S
H510 C518 0.950 1_554 S
H511 C520 0.950 . S
H512 C522 0.950 . S
H513 C524 0.950 . S
H514 C526 0.950 . S
H515 C527 0.950 . S
C516 H508 0.950 . S
C516 C517 1.386 . S
C516 C518 1.391 . S
C517 C516 1.386 . S
C517 C521 1.393 . S
C518 H510 0.950 1_556 S
C518 C516 1.391 . S
C518 C519 1.400 1_556 S
C519 C518 1.400 1_554 S
C519 C520 1.398 1_554 S
C519 C525 1.491 . S
C520 H511 0.950 . S
C520 C519 1.398 1_556 S
C520 C521 1.391 . S
C521 H509 0.950 . S
C521 C517 1.393 . S
C521 C520 1.391 . S
C522 H512 0.950 . S
C522 C523 1.386 . S
C522 C524 1.391 . S
C523 C522 1.386 . S
C523 C527 1.393 . S
C524 H513 0.950 . S
C524 C522 1.391 . S
C524 C525 1.400 . S
C525 C519 1.491 . S
C525 C524 1.400 . S
C525 C526 1.398 . S
C526 H514 0.950 . S
C526 C525 1.398 . S
C526 C527 1.391 . S
C527 H515 0.950 . S
C527 C523 1.393 . S
C527 C526 1.391 . S
H528 C536 0.950 . S
H529 C541 0.950 . S
H530 C538 0.950 . S
H531 C540 0.950 . S
H532 C542 0.950 . S
H533 C544 0.950 . S
H534 C546 0.950 . S
H535 C547 0.950 . S
C536 H528 0.950 . S
C536 C537 1.386 . S
C536 C538 1.391 1_655 S
C537 C536 1.386 . S
C537 C541 1.393 . S
C538 H530 0.950 . S
C538 C536 1.391 1_455 S
C538 C539 1.400 . S
C539 C538 1.400 . S
C539 C540 1.398 1_455 S
C539 C545 1.491 . S
C540 H531 0.950 . S
C540 C539 1.398 1_655 S
C540 C541 1.391 . S
C541 H529 0.950 . S
C541 C537 1.393 . S
C541 C540 1.391 . S
C542 H532 0.950 . S
C542 C543 1.386 . S
C542 C544 1.391 . S
C543 C542 1.386 . S
C543 C547 1.393 . S
C544 H533 0.950 . S
C544 C542 1.391 . S
C544 C545 1.400 . S
C545 C539 1.491 . S
C545 C544 1.400 . S
C545 C546 1.398 . S
C546 H534 0.950 . S
C546 C545 1.398 . S
C546 C547 1.391 . S
C547 H535 0.950 . S
C547 C543 1.393 . S
C547 C546 1.391 . S
H548 C556 0.950 . S
H549 C561 0.950 . S
H550 C558 0.950 . S
H551 C560 0.950 . S
H552 C562 0.950 . S
H553 C564 0.950 . S
H554 C566 0.950 . S
H555 C567 0.950 . S
C556 H548 0.950 . S
C556 C557 1.386 . S
C556 C558 1.391 . S
C557 C556 1.386 . S
C557 C561 1.393 . S
C558 H550 0.950 . S
C558 C556 1.391 . S
C558 C559 1.400 . S
C559 C558 1.400 . S
C559 C560 1.398 . S
C559 C565 1.491 . S
C560 H551 0.950 . S
C560 C559 1.398 . S
C560 C561 1.391 . S
C561 H549 0.950 . S
C561 C557 1.393 . S
C561 C560 1.391 . S
C562 H552 0.950 . S
C562 C563 1.386 . S
C562 C564 1.391 . S
C563 C562 1.386 . S
C563 C567 1.393 . S
C564 H553 0.950 . S
C564 C562 1.391 . S
C564 C565 1.400 . S
C565 C559 1.491 . S
C565 C564 1.400 . S
C565 C566 1.398 . S
C566 H554 0.950 . S
C566 C565 1.398 . S
C566 C567 1.391 . S
C567 H555 0.950 . S
C567 C563 1.393 . S
C567 C566 1.391 . S
H568 C576 0.950 . S
H569 C581 0.950 . S
H570 C578 0.950 . S
H571 C580 0.950 . S
H572 C582 0.950 . S
H573 C584 0.953 1_565 S
H574 C586 0.950 1_565 S
H575 C587 0.950 . S
C576 H568 0.950 . S
C576 C577 1.386 . S
C576 C578 1.391 . S
C577 C576 1.386 . S
C577 C581 1.393 . S
C578 H570 0.950 . S
C578 C576 1.391 . S
C578 C579 1.400 . S
C579 C578 1.400 . S
C579 C580 1.398 . S
C579 C585 1.491 . S
C580 H571 0.950 . S
C580 C579 1.398 . S
C580 C581 1.391 . S
C581 H569 0.950 . S
C581 C577 1.393 . S
C581 C580 1.391 . S
C582 H572 0.950 . S
C582 C583 1.386 . S
C582 C584 1.391 . S
C583 C582 1.386 . S
C583 C587 1.393 . S
C584 H573 0.953 1_545 S
C584 C582 1.391 . S
C584 C585 1.400 1_545 S
C585 C579 1.491 . S
C585 C584 1.400 1_565 S
C585 C586 1.398 1_565 S
C586 H574 0.950 1_545 S
C586 C585 1.398 1_545 S
C586 C587 1.391 . S
C587 H575 0.950 . S
C587 C583 1.393 . S
C587 C586 1.391 . S
H588 C596 0.950 . S
H589 C601 0.950 . S
H590 C598 0.950 . S
H591 C600 0.950 . S
H592 C602 0.950 . S
H593 C604 0.950 . S
H594 C606 0.950 1_554 S
H595 C607 0.950 . S
C596 H588 0.950 . S
C596 C597 1.386 . S
C596 C598 1.391 1_545 S
C597 C596 1.386 . S
C597 C601 1.393 . S
C598 H590 0.950 . S
C598 C596 1.391 1_565 S
C598 C599 1.400 1_554 S
C599 C598 1.400 1_556 S
C599 C600 1.398 1_565 S
C599 C605 1.491 . S
C600 H591 0.950 . S
C600 C599 1.398 1_545 S
C600 C601 1.391 1_556 S
C601 H589 0.950 . S
C601 C597 1.393 . S
C601 C600 1.391 1_554 S
C602 H592 0.950 . S
C602 C603 1.386 . S
C602 C604 1.391 . S
C603 C602 1.386 . S
C603 C607 1.393 . S
C604 H593 0.950 . S
C604 C602 1.391 . S
C604 C605 1.400 . S
C605 C599 1.491 . S
C605 C604 1.400 . S
C605 C606 1.398 . S
C606 H594 0.950 1_556 S
C606 C605 1.398 . S
C606 C607 1.391 . S
C607 H595 0.950 . S
C607 C603 1.393 . S
C607 C606 1.391 . S
H608 C616 0.950 . S
H609 C621 0.950 . S
H610 C618 0.950 . S
H611 C620 0.950 . S
H612 C622 0.950 . S
H613 C624 0.950 . S
H614 C626 0.950 1_554 S
H615 C627 0.950 . S
C616 H608 0.950 . S
C616 C617 1.386 . S
C616 C618 1.391 1_655 S
C617 C616 1.386 . S
C617 C621 1.393 . S
C618 H610 0.950 . S
C618 C616 1.391 1_455 S
C618 C619 1.400 1_554 S
C619 C618 1.400 1_556 S
C619 C620 1.398 1_455 S
C619 C625 1.491 . S
C620 H611 0.950 . S
C620 C619 1.398 1_655 S
C620 C621 1.391 1_556 S
C621 H609 0.950 . S
C621 C617 1.393 . S
C621 C620 1.391 1_554 S
C622 H612 0.950 . S
C622 C623 1.386 . S
C622 C624 1.391 . S
C623 C622 1.386 . S
C623 C627 1.393 . S
C624 H613 0.950 . S
C624 C622 1.391 . S
C624 C625 1.400 . S
C625 C619 1.491 . S
C625 C624 1.400 . S
C625 C626 1.398 . S
C626 H614 0.950 1_556 S
C626 C625 1.398 . S
C626 C627 1.391 . S
C627 H615 0.950 . S
C627 C623 1.393 . S
C627 C626 1.391 . S
H628 C636 0.950 . S
H629 C641 0.950 . S
H630 C638 0.950 . S
H631 C640 0.950 . S
H632 C642 0.950 . S
H633 C644 0.950 . S
H634 C646 0.950 . S
H635 C647 0.950 . S
C636 H628 0.950 . S
C636 C637 1.386 . S
C636 C638 1.391 . S
C637 C636 1.386 . S
C637 C641 1.393 . S
C638 H630 0.950 . S
C638 C636 1.391 . S
C638 C639 1.400 . S
C639 C638 1.400 . S
C639 C640 1.398 . S
C639 C645 1.491 . S
C640 H631 0.950 . S
C640 C639 1.398 . S
C640 C641 1.391 . S
C641 H629 0.950 . S
C641 C637 1.393 . S
C641 C640 1.391 . S
C642 H632 0.950 . S
C642 C643 1.386 . S
C642 C644 1.391 1_554 S
C643 C642 1.386 . S
C643 C647 1.393 . S
C644 H633 0.950 . S
C644 C642 1.391 1_556 S
C644 C645 1.400 . S
C645 C639 1.491 . S
C645 C644 1.400 . S
C645 C646 1.398 1_556 S
C646 H634 0.950 . S
C646 C645 1.398 1_554 S
C646 C647 1.391 . S
C647 H635 0.950 . S
C647 C643 1.393 . S
C647 C646 1.391 . S
H648 C656 0.950 . S
H649 C661 0.950 . S
H650 C658 0.950 . S
H651 C660 0.950 . S
H652 C662 0.950 . S
H653 C664 0.950 1_655 S
H654 C666 0.950 . S
H655 C667 0.950 . S
C656 H648 0.950 . S
C656 C657 1.386 . S
C656 C658 1.391 . S
C657 C656 1.386 . S
C657 C661 1.393 . S
C658 H650 0.950 . S
C658 C656 1.391 . S
C658 C659 1.400 . S
C659 C658 1.400 . S
C659 C660 1.398 . S
C659 C665 1.491 . S
C660 H651 0.950 . S
C660 C659 1.398 . S
C660 C661 1.391 . S
C661 H649 0.950 . S
C661 C657 1.393 . S
C661 C660 1.391 . S
C662 H652 0.950 . S
C662 C663 1.386 . S
C662 C664 1.391 . S
C663 C662 1.386 . S
C663 C667 1.393 . S
C664 H653 0.950 1_455 S
C664 C662 1.391 . S
C664 C665 1.400 1_455 S
C665 C659 1.491 . S
C665 C664 1.400 1_655 S
C665 C666 1.398 1_655 S
C666 H654 0.950 . S
C666 C665 1.398 1_455 S
C666 C667 1.391 . S
C667 H655 0.950 . S
C667 C663 1.393 . S
C667 C666 1.391 . S
H668 C676 0.950 . S
H669 C681 0.950 . S
H670 C678 0.950 . S
H671 C680 0.950 . S
H672 C682 0.950 . S
H673 C684 0.950 . S
H674 C686 0.950 . S
H675 C687 0.950 . S
C676 H668 0.950 . S
C676 C677 1.386 . S
C676 C678 1.391 . S
C677 C676 1.386 . S
C677 C681 1.393 . S
C678 H670 0.950 . S
C678 C676 1.391 . S
C678 C679 1.400 . S
C679 C678 1.400 . S
C679 C680 1.398 . S
C679 C685 1.491 . S
C680 H671 0.950 . S
C680 C679 1.398 . S
C680 C681 1.391 . S
C681 H669 0.950 . S
C681 C677 1.393 . S
C681 C680 1.391 . S
C682 H672 0.950 . S
C682 C683 1.386 . S
C682 C684 1.391 . S
C683 C682 1.386 . S
C683 C687 1.393 . S
C684 H673 0.950 . S
C684 C682 1.391 . S
C684 C685 1.400 . S
C685 C679 1.491 . S
C685 C684 1.400 . S
C685 C686 1.398 . S
C686 H674 0.950 . S
C686 C685 1.398 . S
C686 C687 1.391 . S
C687 H675 0.950 . S
C687 C683 1.393 . S
C687 C686 1.391 . S
H688 C696 0.950 . S
H689 C701 0.950 . S
H690 C698 0.950 . S
H691 C700 0.950 . S
H692 C702 0.950 . S
H693 C704 0.950 . S
H694 C706 0.950 . S
H695 C707 0.950 . S
C696 H688 0.950 . S
C696 C697 1.386 . S
C696 C698 1.391 . S
C697 C696 1.386 . S
C697 C701 1.393 . S
C698 H690 0.950 . S
C698 C696 1.391 . S
C698 C699 1.400 . S
C699 C698 1.400 . S
C699 C700 1.398 . S
C699 C705 1.491 . S
C700 H691 0.950 . S
C700 C699 1.398 . S
C700 C701 1.391 . S
C701 H689 0.950 . S
C701 C697 1.393 . S
C701 C700 1.391 . S
C702 H692 0.950 . S
C702 C703 1.386 . S
C702 C704 1.391 1_565 S
C703 C702 1.386 . S
C703 C707 1.393 . S
C704 H693 0.950 . S
C704 C702 1.391 1_545 S
C704 C705 1.400 . S
C705 C699 1.491 . S
C705 C704 1.400 . S
C705 C706 1.398 1_545 S
C706 H694 0.950 . S
C706 C705 1.398 1_565 S
C706 C707 1.391 . S
C707 H695 0.950 . S
C707 C703 1.393 . S
C707 C706 1.391 . S
H708 C716 0.950 . S
H709 C721 0.950 . S
H710 C718 0.950 . S
H711 C720 0.950 . S
H712 C722 0.950 . S
H713 C724 0.950 . S
H714 C726 0.950 . S
H715 C727 0.950 . S
C716 H708 0.950 . S
C716 C717 1.386 . S
C716 C718 1.391 . S
C717 C716 1.386 . S
C717 C721 1.393 . S
C718 H710 0.950 . S
C718 C716 1.391 . S
C718 C719 1.400 . S
C719 C718 1.400 . S
C719 C720 1.398 . S
C719 C725 1.491 . S
C720 H711 0.950 . S
C720 C719 1.398 . S
C720 C721 1.391 . S
C721 H709 0.950 . S
C721 C717 1.393 . S
C721 C720 1.391 . S
C722 H712 0.950 . S
C722 C723 1.386 . S
C722 C724 1.391 . S
C723 C722 1.386 . S
C723 C727 1.393 . S
C724 H713 0.950 . S
C724 C722 1.391 . S
C724 C725 1.400 . S
C725 C719 1.491 . S
C725 C724 1.400 . S
C725 C726 1.398 . S
C726 H714 0.950 . S
C726 C725 1.398 . S
C726 C727 1.391 . S
C727 H715 0.950 . S
C727 C723 1.393 . S
C727 C726 1.391 . S
H728 C736 0.950 . S
H729 C741 0.950 . S
H730 C738 0.950 . S
H731 C740 0.950 . S
H732 C742 0.950 . S
H733 C744 0.950 . S
H734 C746 0.950 . S
H735 C747 0.950 . S
C736 H728 0.950 . S
C736 C737 1.386 . S
C736 C738 1.391 . S
C737 C736 1.386 . S
C737 C741 1.393 . S
C738 H730 0.950 . S
C738 C736 1.391 . S
C738 C739 1.400 . S
C739 C738 1.400 . S
C739 C740 1.398 . S
C739 C745 1.491 . S
C740 H731 0.950 . S
C740 C739 1.398 . S
C740 C741 1.391 . S
C741 H729 0.950 . S
C741 C737 1.393 . S
C741 C740 1.391 . S
C742 H732 0.950 . S
C742 C743 1.386 . S
C742 C744 1.391 . S
C743 C742 1.386 . S
C743 C747 1.393 . S
C744 H733 0.950 . S
C744 C742 1.391 . S
C744 C745 1.400 . S
C745 C739 1.491 . S
C745 C744 1.400 . S
C745 C746 1.398 . S
C746 H734 0.950 . S
C746 C745 1.398 . S
C746 C747 1.391 . S
C747 H735 0.950 . S
C747 C743 1.393 . S
C747 C746 1.391 . S
H748 C756 0.950 . S
H749 C761 0.950 . S
H750 C758 0.950 . S
H751 C760 0.950 . S
H752 C762 0.950 . S
H753 C764 0.950 . S
H754 C766 0.950 . S
H755 C767 0.950 . S
C756 H748 0.950 . S
C756 C757 1.386 . S
C756 C758 1.391 . S
C757 C756 1.386 . S
C757 C761 1.393 . S
C758 H750 0.950 . S
C758 C756 1.391 . S
C758 C759 1.400 . S
C759 C758 1.400 . S
C759 C760 1.398 . S
C759 C765 1.491 . S
C760 H751 0.950 . S
C760 C759 1.398 . S
C760 C761 1.391 . S
C761 H749 0.950 . S
C761 C757 1.393 . S
C761 C760 1.391 . S
C762 H752 0.950 . S
C762 C763 1.386 . S
C762 C764 1.391 . S
C763 C762 1.386 . S
C763 C767 1.393 . S
C764 H753 0.950 . S
C764 C762 1.391 . S
C764 C765 1.400 . S
C765 C759 1.491 . S
C765 C764 1.400 . S
C765 C766 1.398 . S
C766 H754 0.950 . S
C766 C765 1.398 . S
C766 C767 1.391 . S
C767 H755 0.950 . S
C767 C763 1.393 . S
C767 C766 1.391 . S
H768 C776 0.950 . S
H769 C781 0.950 . S
H770 C778 0.950 . S
H771 C780 0.950 . S
H772 C782 0.950 . S
H773 C784 0.950 . S
H774 C786 0.950 . S
H775 C787 0.950 . S
C776 H768 0.950 . S
C776 C777 1.386 . S
C776 C778 1.391 . S
C777 C776 1.386 . S
C777 C781 1.393 . S
C778 H770 0.950 . S
C778 C776 1.391 . S
C778 C779 1.400 . S
C779 C778 1.400 . S
C779 C780 1.398 . S
C779 C785 1.491 . S
C780 H771 0.950 . S
C780 C779 1.398 . S
C780 C781 1.391 . S
C781 H769 0.950 . S
C781 C777 1.393 . S
C781 C780 1.391 . S
C782 H772 0.950 . S
C782 C783 1.386 . S
C782 C784 1.391 . S
C783 C782 1.386 . S
C783 C787 1.393 . S
C784 H773 0.950 . S
C784 C782 1.391 . S
C784 C785 1.400 . S
C785 C779 1.491 . S
C785 C784 1.400 . S
C785 C786 1.398 . S
C786 H774 0.950 . S
C786 C785 1.398 . S
C786 C787 1.391 . S
C787 H775 0.950 . S
C787 C783 1.393 . S
C787 C786 1.391 . S
H788 C796 0.950 . S
H789 C801 0.950 . S
H790 C798 0.950 . S
H791 C800 0.950 . S
H792 C802 0.950 . S
H793 C804 0.950 . S
H794 C806 0.950 . S
H795 C807 0.950 . S
C796 H788 0.950 . S
C796 C797 1.386 . S
C796 C798 1.391 . S
C797 C796 1.386 . S
C797 C801 1.393 . S
C798 H790 0.950 . S
C798 C796 1.391 . S
C798 C799 1.400 . S
C799 C798 1.400 . S
C799 C800 1.398 . S
C799 C805 1.491 . S
C800 H791 0.950 . S
C800 C799 1.398 . S
C800 C801 1.391 . S
C801 H789 0.950 . S
C801 C797 1.393 . S
C801 C800 1.391 . S
C802 H792 0.950 . S
C802 C803 1.386 . S
C802 C804 1.391 . S
C803 C802 1.386 . S
C803 C807 1.393 . S
C804 H793 0.950 . S
C804 C802 1.391 . S
C804 C805 1.400 . S
C805 C799 1.491 . S
C805 C804 1.400 . S
C805 C806 1.398 . S
C806 H794 0.950 . S
C806 C805 1.398 . S
C806 C807 1.391 . S
C807 H795 0.950 . S
C807 C803 1.393 . S
C807 C806 1.391 . S
H808 C816 0.950 . S
H809 C821 0.950 . S
H810 C818 0.950 . S
H811 C820 0.950 . S
H812 C822 0.950 . S
H813 C824 0.950 . S
H814 C826 0.950 . S
H815 C827 0.950 . S
C816 H808 0.950 . S
C816 C817 1.386 . S
C816 C818 1.391 . S
C817 C816 1.386 . S
C817 C821 1.393 . S
C818 H810 0.950 . S
C818 C816 1.391 . S
C818 C819 1.400 . S
C819 C818 1.400 . S
C819 C820 1.398 . S
C819 C825 1.491 . S
C820 H811 0.950 . S
C820 C819 1.398 . S
C820 C821 1.391 . S
C821 H809 0.950 . S
C821 C817 1.393 . S
C821 C820 1.391 . S
C822 H812 0.950 . S
C822 C823 1.386 . S
C822 C824 1.391 . S
C823 C822 1.386 . S
C823 C827 1.393 . S
C824 H813 0.950 . S
C824 C822 1.391 . S
C824 C825 1.400 . S
C825 C819 1.491 . S
C825 C824 1.400 . S
C825 C826 1.398 . S
C826 H814 0.950 . S
C826 C825 1.398 . S
C826 C827 1.391 . S
C827 H815 0.950 . S
C827 C823 1.393 . S
C827 C826 1.391 . S
H828 C836 0.950 . S
H829 C841 0.950 . S
H830 C838 0.950 . S
H831 C840 0.950 . S
H832 C842 0.950 . S
H833 C844 0.950 . S
H834 C846 0.950 . S
H835 C847 0.950 . S
C836 H828 0.950 . S
C836 C837 1.386 . S
C836 C838 1.391 . S
C837 C836 1.386 . S
C837 C841 1.393 . S
C838 H830 0.950 . S
C838 C836 1.391 . S
C838 C839 1.400 . S
C839 C838 1.400 . S
C839 C840 1.398 . S
C839 C845 1.491 . S
C840 H831 0.950 . S
C840 C839 1.398 . S
C840 C841 1.391 . S
C841 H829 0.950 . S
C841 C837 1.393 . S
C841 C840 1.391 . S
C842 H832 0.950 . S
C842 C843 1.386 . S
C842 C844 1.391 . S
C843 C842 1.386 . S
C843 C847 1.393 . S
C844 H833 0.950 . S
C844 C842 1.391 . S
C844 C845 1.400 . S
C845 C839 1.491 . S
C845 C844 1.400 . S
C845 C846 1.398 . S
C846 H834 0.950 . S
C846 C845 1.398 . S
C846 C847 1.391 . S
C847 H835 0.950 . S
C847 C843 1.393 . S
C847 C846 1.391 . S
H848 C856 0.950 . S
H849 C861 0.950 . S
H850 C858 0.950 . S
H851 C860 0.950 . S
H852 C862 0.950 . S
H853 C864 0.950 . S
H854 C866 0.950 . S
H855 C867 0.950 . S
C856 H848 0.950 . S
C856 C857 1.386 . S
C856 C858 1.391 . S
C857 C856 1.386 . S
C857 C861 1.393 . S
C858 H850 0.950 . S
C858 C856 1.391 . S
C858 C859 1.400 . S
C859 C858 1.400 . S
C859 C860 1.398 . S
C859 C865 1.491 . S
C860 H851 0.950 . S
C860 C859 1.398 . S
C860 C861 1.391 . S
C861 H849 0.950 . S
C861 C857 1.393 . S
C861 C860 1.391 . S
C862 H852 0.950 . S
C862 C863 1.386 . S
C862 C864 1.391 . S
C863 C862 1.386 . S
C863 C867 1.393 . S
C864 H853 0.950 . S
C864 C862 1.391 . S
C864 C865 1.400 . S
C865 C859 1.491 . S
C865 C864 1.400 . S
C865 C866 1.398 . S
C866 H854 0.950 . S
C866 C865 1.398 . S
C866 C867 1.391 . S
C867 H855 0.950 . S
C867 C863 1.393 . S
C867 C866 1.391 . S
H868 C876 0.950 . S
H869 C881 0.950 . S
H870 C878 0.950 . S
H871 C880 0.950 . S
H872 C882 0.950 . S
H873 C884 0.950 . S
H874 C886 0.950 . S
H875 C887 0.950 . S
C876 H868 0.950 . S
C876 C877 1.386 . S
C876 C878 1.391 . S
C877 C876 1.386 . S
C877 C881 1.393 . S
C878 H870 0.950 . S
C878 C876 1.391 . S
C878 C879 1.400 . S
C879 C878 1.400 . S
C879 C880 1.398 . S
C879 C885 1.491 . S
C880 H871 0.950 . S
C880 C879 1.398 . S
C880 C881 1.391 . S
C881 H869 0.950 . S
C881 C877 1.393 . S
C881 C880 1.391 . S
C882 H872 0.950 . S
C882 C883 1.386 . S
C882 C884 1.391 . S
C883 C882 1.386 . S
C883 C887 1.393 . S
C884 H873 0.950 . S
C884 C882 1.391 . S
C884 C885 1.400 . S
C885 C879 1.491 . S
C885 C884 1.400 . S
C885 C886 1.398 . S
C886 H874 0.950 . S
C886 C885 1.398 . S
C886 C887 1.391 . S
C887 H875 0.950 . S
C887 C883 1.393 . S
C887 C886 1.391 . S
H888 C896 0.950 . S
H889 C901 0.950 . S
H890 C898 0.950 . S
H891 C900 0.950 . S
H892 C902 0.950 . S
H893 C904 0.950 . S
H894 C906 0.950 . S
H895 C907 0.950 . S
C896 H888 0.950 . S
C896 C897 1.386 . S
C896 C898 1.391 . S
C897 C896 1.386 . S
C897 C901 1.393 . S
C898 H890 0.950 . S
C898 C896 1.391 . S
C898 C899 1.400 . S
C899 C898 1.400 . S
C899 C900 1.398 . S
C899 C905 1.491 . S
C900 H891 0.950 . S
C900 C899 1.398 . S
C900 C901 1.391 . S
C901 H889 0.950 . S
C901 C897 1.393 . S
C901 C900 1.391 . S
C902 H892 0.950 . S
C902 C903 1.386 . S
C902 C904 1.391 . S
C903 C902 1.386 . S
C903 C907 1.393 . S
C904 H893 0.950 . S
C904 C902 1.391 . S
C904 C905 1.400 . S
C905 C899 1.491 . S
C905 C904 1.400 . S
C905 C906 1.398 . S
C906 H894 0.950 . S
C906 C905 1.398 . S
C906 C907 1.391 . S
C907 H895 0.950 . S
C907 C903 1.393 . S
C907 C906 1.391 . S
H908 C916 0.950 . S
H909 C921 0.950 . S
H910 C918 0.950 . S
H911 C920 0.950 . S
H912 C922 0.950 . S
H913 C924 0.950 . S
H914 C926 0.950 . S
H915 C927 0.950 . S
C916 H908 0.950 . S
C916 C917 1.386 . S
C916 C918 1.391 . S
C917 C916 1.386 . S
C917 C921 1.393 . S
C918 H910 0.950 . S
C918 C916 1.391 . S
C918 C919 1.400 . S
C919 C918 1.400 . S
C919 C920 1.398 . S
C919 C925 1.491 . S
C920 H911 0.950 . S
C920 C919 1.398 . S
C920 C921 1.391 . S
C921 H909 0.950 . S
C921 C917 1.393 . S
C921 C920 1.391 . S
C922 H912 0.950 . S
C922 C923 1.386 . S
C922 C924 1.391 . S
C923 C922 1.386 . S
C923 C927 1.393 . S
C924 H913 0.950 . S
C924 C922 1.391 . S
C924 C925 1.400 . S
C925 C919 1.491 . S
C925 C924 1.400 . S
C925 C926 1.398 . S
C926 H914 0.950 . S
C926 C925 1.398 . S
C926 C927 1.391 . S
C927 H915 0.950 . S
C927 C923 1.393 . S
C927 C926 1.391 . S
H928 C936 0.950 . S
H929 C941 0.950 . S
H930 C938 0.950 . S
H931 C940 0.950 . S
H932 C942 0.950 . S
H933 C944 0.950 . S
H934 C946 0.950 . S
H935 C947 0.950 . S
C936 H928 0.950 . S
C936 C937 1.386 . S
C936 C938 1.391 . S
C937 C936 1.386 . S
C937 C941 1.393 . S
C938 H930 0.950 . S
C938 C936 1.391 . S
C938 C939 1.400 . S
C939 C938 1.400 . S
C939 C940 1.398 . S
C939 C945 1.491 . S
C940 H931 0.950 . S
C940 C939 1.398 . S
C940 C941 1.391 . S
C941 H929 0.950 . S
C941 C937 1.393 . S
C941 C940 1.391 . S
C942 H932 0.950 . S
C942 C943 1.386 . S
C942 C944 1.391 . S
C943 C942 1.386 . S
C943 C947 1.393 . S
C944 H933 0.950 . S
C944 C942 1.391 . S
C944 C945 1.400 . S
C945 C939 1.491 . S
C945 C944 1.400 . S
C945 C946 1.398 . S
C946 H934 0.950 . S
C946 C945 1.398 . S
C946 C947 1.391 . S
C947 H935 0.950 . S
C947 C943 1.393 . S
C947 C946 1.391 . S
H948 C956 0.950 . S
H949 C961 0.950 . S
H950 C958 0.950 . S
H951 C960 0.950 . S
H952 C962 0.950 . S
H953 C964 0.950 . S
H954 C966 0.950 . S
H955 C967 0.950 . S
C956 H948 0.950 . S
C956 C957 1.386 . S
C956 C958 1.391 . S
C957 C956 1.386 . S
C957 C961 1.393 . S
C958 H950 0.950 . S
C958 C956 1.391 . S
C958 C959 1.400 . S
C959 C958 1.400 . S
C959 C960 1.398 . S
C959 C965 1.491 . S
C960 H951 0.950 . S
C960 C959 1.398 . S
C960 C961 1.391 . S
C961 H949 0.950 . S
C961 C957 1.393 . S
C961 C960 1.391 . S
C962 H952 0.950 . S
C962 C963 1.386 . S
C962 C964 1.391 . S
C963 C962 1.386 . S
C963 C967 1.393 . S
C964 H953 0.950 . S
C964 C962 1.391 . S
C964 C965 1.400 . S
C965 C959 1.491 . S
C965 C964 1.400 . S
C965 C966 1.398 . S
C966 H954 0.950 . S
C966 C965 1.398 . S
C966 C967 1.391 . S
C967 H955 0.950 . S
C967 C963 1.393 . S
C967 C966 1.391 . S
H968 C976 0.950 . S
H969 C981 0.950 . S
H970 C978 0.950 . S
H971 C980 0.950 . S
H972 C982 0.950 . S
H973 C984 0.950 . S
H974 C986 0.950 . S
H975 C987 0.950 . S
C976 H968 0.950 . S
C976 C977 1.386 . S
C976 C978 1.391 . S
C977 C976 1.386 . S
C977 C981 1.393 . S
C978 H970 0.950 . S
C978 C976 1.391 . S
C978 C979 1.400 . S
C979 C978 1.400 . S
C979 C980 1.398 . S
C979 C985 1.491 . S
C980 H971 0.950 . S
C980 C979 1.398 . S
C980 C981 1.391 . S
C981 H969 0.950 . S
C981 C977 1.393 . S
C981 C980 1.391 . S
C982 H972 0.950 . S
C982 C983 1.386 . S
C982 C984 1.391 . S
C983 C982 1.386 . S
C983 C987 1.393 . S
C984 H973 0.950 . S
C984 C982 1.391 . S
C984 C985 1.400 . S
C985 C979 1.491 . S
C985 C984 1.400 . S
C985 C986 1.398 . S
C986 H974 0.950 . S
C986 C985 1.398 . S
C986 C987 1.391 . S
C987 H975 0.950 . S
C987 C983 1.393 . S
C987 C986 1.391 . S
H988 C996 0.950 . S
H989 C1001 0.950 . S
H990 C998 0.950 . S
H991 C1000 0.950 . S
H992 C1002 0.950 . S
H993 C1004 0.950 . S
H994 C1006 0.950 . S
H995 C1007 0.950 . S
C996 H988 0.950 . S
C996 C997 1.386 . S
C996 C998 1.391 . S
C997 C996 1.386 . S
C997 C1001 1.393 . S
C998 H990 0.950 . S
C998 C996 1.391 . S
C998 C999 1.400 . S
C999 C998 1.400 . S
C999 C1000 1.398 . S
C999 C1005 1.491 . S
C1000 H991 0.950 . S
C1000 C999 1.398 . S
C1000 C1001 1.391 . S
C1001 H989 0.950 . S
C1001 C997 1.393 . S
C1001 C1000 1.391 . S
C1002 H992 0.950 . S
C1002 C1003 1.386 . S
C1002 C1004 1.391 . S
C1003 C1002 1.386 . S
C1003 C1007 1.393 . S
C1004 H993 0.950 . S
C1004 C1002 1.391 . S
C1004 C1005 1.400 . S
C1005 C999 1.491 . S
C1005 C1004 1.400 . S
C1005 C1006 1.398 . S
C1006 H994 0.950 . S
C1006 C1005 1.398 . S
C1006 C1007 1.391 . S
C1007 H995 0.950 . S
C1007 C1003 1.393 . S
C1007 C1006 1.391 . S
H1008 C1016 0.950 . S
H1009 C1021 0.950 . S
H1010 C1018 0.950 . S
H1011 C1020 0.950 . S
H1012 C1022 0.950 . S
H1013 C1024 0.950 . S
H1014 C1026 0.950 . S
H1015 C1027 0.950 . S
C1016 H1008 0.950 . S
C1016 C1017 1.386 . S
C1016 C1018 1.391 . S
C1017 C1016 1.386 . S
C1017 C1021 1.393 . S
C1018 H1010 0.950 . S
C1018 C1016 1.391 . S
C1018 C1019 1.400 . S
C1019 C1018 1.400 . S
C1019 C1020 1.398 . S
C1019 C1025 1.491 . S
C1020 H1011 0.950 . S
C1020 C1019 1.398 . S
C1020 C1021 1.391 . S
C1021 H1009 0.950 . S
C1021 C1017 1.393 . S
C1021 C1020 1.391 . S
C1022 H1012 0.950 . S
C1022 C1023 1.386 . S
C1022 C1024 1.391 . S
C1023 C1022 1.386 . S
C1023 C1027 1.393 . S
C1024 H1013 0.950 . S
C1024 C1022 1.391 . S
C1024 C1025 1.400 . S
C1025 C1019 1.491 . S
C1025 C1024 1.400 . S
C1025 C1026 1.398 . S
C1026 H1014 0.950 . S
C1026 C1025 1.398 . S
C1026 C1027 1.391 . S
C1027 H1015 0.950 . S
C1027 C1023 1.393 . S
C1027 C1026 1.391 . S
H1028 C1036 0.950 . S
H1029 C1041 0.950 . S
H1030 C1038 0.950 . S
H1031 C1040 0.950 . S
H1032 C1042 0.950 . S
H1033 C1044 0.950 . S
H1034 C1046 0.950 . S
H1035 C1047 0.950 . S
C1036 H1028 0.950 . S
C1036 C1037 1.386 . S
C1036 C1038 1.391 . S
C1037 C1036 1.386 . S
C1037 C1041 1.393 . S
C1038 H1030 0.950 . S
C1038 C1036 1.391 . S
C1038 C1039 1.400 . S
C1039 C1038 1.400 . S
C1039 C1040 1.398 . S
C1039 C1045 1.491 . S
C1040 H1031 0.950 . S
C1040 C1039 1.398 . S
C1040 C1041 1.391 . S
C1041 H1029 0.950 . S
C1041 C1037 1.393 . S
C1041 C1040 1.391 . S
C1042 H1032 0.950 . S
C1042 C1043 1.386 . S
C1042 C1044 1.391 . S
C1043 C1042 1.386 . S
C1043 C1047 1.393 . S
C1044 H1033 0.950 . S
C1044 C1042 1.391 . S
C1044 C1045 1.400 . S
C1045 C1039 1.491 . S
C1045 C1044 1.400 . S
C1045 C1046 1.398 . S
C1046 H1034 0.950 . S
C1046 C1045 1.398 . S
C1046 C1047 1.391 . S
C1047 H1035 0.950 . S
C1047 C1043 1.393 . S
C1047 C1046 1.391 . S
H1048 C1056 0.950 . S
H1049 C1061 0.950 . S
H1050 C1058 0.950 . S
H1051 C1060 0.950 . S
H1052 C1062 0.950 . S
H1053 C1064 0.950 . S
H1054 C1066 0.950 . S
H1055 C1067 0.950 . S
C1056 H1048 0.950 . S
C1056 C1057 1.386 . S
C1056 C1058 1.391 . S
C1057 C1056 1.386 . S
C1057 C1061 1.393 . S
C1058 H1050 0.950 . S
C1058 C1056 1.391 . S
C1058 C1059 1.400 . S
C1059 C1058 1.400 . S
C1059 C1060 1.398 . S
C1059 C1065 1.491 . S
C1060 H1051 0.950 . S
C1060 C1059 1.398 . S
C1060 C1061 1.391 . S
C1061 H1049 0.950 . S
C1061 C1057 1.393 . S
C1061 C1060 1.391 . S
C1062 H1052 0.950 . S
C1062 C1063 1.386 . S
C1062 C1064 1.391 . S
C1063 C1062 1.386 . S
C1063 C1067 1.393 . S
C1064 H1053 0.950 . S
C1064 C1062 1.391 . S
C1064 C1065 1.400 . S
C1065 C1059 1.491 . S
C1065 C1064 1.400 . S
C1065 C1066 1.398 . S
C1066 H1054 0.950 . S
C1066 C1065 1.398 . S
C1066 C1067 1.391 . S
C1067 H1055 0.950 . S
C1067 C1063 1.393 . S
C1067 C1066 1.391 . S
H1068 C1076 0.950 . S
H1069 C1081 0.950 . S
H1070 C1078 0.950 . S
H1071 C1080 0.950 . S
H1072 C1082 0.950 . S
H1073 C1084 0.950 . S
H1074 C1086 0.950 . S
H1075 C1087 0.950 . S
C1076 H1068 0.950 . S
C1076 C1077 1.386 . S
C1076 C1078 1.391 . S
C1077 C1076 1.386 . S
C1077 C1081 1.393 . S
C1078 H1070 0.950 . S
C1078 C1076 1.391 . S
C1078 C1079 1.400 . S
C1079 C1078 1.400 . S
C1079 C1080 1.398 . S
C1079 C1085 1.491 . S
C1080 H1071 0.950 . S
C1080 C1079 1.398 . S
C1080 C1081 1.391 . S
C1081 H1069 0.950 . S
C1081 C1077 1.393 . S
C1081 C1080 1.391 . S
C1082 H1072 0.950 . S
C1082 C1083 1.386 . S
C1082 C1084 1.391 . S
C1083 C1082 1.386 . S
C1083 C1087 1.393 . S
C1084 H1073 0.950 . S
C1084 C1082 1.391 . S
C1084 C1085 1.400 . S
C1085 C1079 1.491 . S
C1085 C1084 1.400 . S
C1085 C1086 1.398 . S
C1086 H1074 0.950 . S
C1086 C1085 1.398 . S
C1086 C1087 1.391 . S
C1087 H1075 0.950 . S
C1087 C1083 1.393 . S
C1087 C1086 1.391 . S
H1088 C1096 0.950 . S
H1089 C1101 0.950 . S
H1090 C1098 0.950 . S
H1091 C1100 0.950 . S
H1092 C1102 0.950 . S
H1093 C1104 0.950 . S
H1094 C1106 0.950 . S
H1095 C1107 0.950 . S
C1096 H1088 0.950 . S
C1096 C1097 1.386 . S
C1096 C1098 1.391 . S
C1097 C1096 1.386 . S
C1097 C1101 1.393 . S
C1098 H1090 0.950 . S
C1098 C1096 1.391 . S
C1098 C1099 1.400 . S
C1099 C1098 1.400 . S
C1099 C1100 1.398 . S
C1099 C1105 1.491 . S
C1100 H1091 0.950 . S
C1100 C1099 1.398 . S
C1100 C1101 1.391 . S
C1101 H1089 0.950 . S
C1101 C1097 1.393 . S
C1101 C1100 1.391 . S
C1102 H1092 0.950 . S
C1102 C1103 1.386 . S
C1102 C1104 1.391 . S
C1103 C1102 1.386 . S
C1103 C1107 1.393 . S
C1104 H1093 0.950 . S
C1104 C1102 1.391 . S
C1104 C1105 1.400 . S
C1105 C1099 1.491 . S
C1105 C1104 1.400 . S
C1105 C1106 1.398 . S
C1106 H1094 0.950 . S
C1106 C1105 1.398 . S
C1106 C1107 1.391 . S
C1107 H1095 0.950 . S
C1107 C1103 1.393 . S
C1107 C1106 1.391 . S
H1108 C1116 0.950 . S
H1109 C1121 0.950 . S
H1110 C1118 0.950 . S
H1111 C1120 0.950 . S
H1112 C1122 0.950 . S
H1113 C1124 0.950 . S
H1114 C1126 0.950 . S
H1115 C1127 0.950 . S
C1116 H1108 0.950 . S
C1116 C1117 1.386 . S
C1116 C1118 1.391 . S
C1117 C1116 1.386 . S
C1117 C1121 1.393 . S
C1118 H1110 0.950 . S
C1118 C1116 1.391 . S
C1118 C1119 1.400 . S
C1119 C1118 1.400 . S
C1119 C1120 1.398 . S
C1119 C1125 1.491 . S
C1120 H1111 0.950 . S
C1120 C1119 1.398 . S
C1120 C1121 1.391 . S
C1121 H1109 0.950 . S
C1121 C1117 1.393 . S
C1121 C1120 1.391 . S
C1122 H1112 0.950 . S
C1122 C1123 1.386 . S
C1122 C1124 1.391 . S
C1123 C1122 1.386 . S
C1123 C1127 1.393 . S
C1124 H1113 0.950 . S
C1124 C1122 1.391 . S
C1124 C1125 1.400 . S
C1125 C1119 1.491 . S
C1125 C1124 1.400 . S
C1125 C1126 1.398 . S
C1126 H1114 0.950 . S
C1126 C1125 1.398 . S
C1126 C1127 1.391 . S
C1127 H1115 0.950 . S
C1127 C1123 1.393 . S
C1127 C1126 1.391 . S
H1128 C1136 0.950 . S
H1129 C1141 0.950 . S
H1130 C1138 0.950 . S
H1131 C1140 0.950 . S
H1132 C1142 0.950 . S
H1133 C1144 0.950 . S
H1134 C1146 0.950 . S
H1135 C1147 0.950 . S
C1136 H1128 0.950 . S
C1136 C1137 1.386 . S
C1136 C1138 1.391 . S
C1137 C1136 1.386 . S
C1137 C1141 1.393 . S
C1138 H1130 0.950 . S
C1138 C1136 1.391 . S
C1138 C1139 1.400 . S
C1139 C1138 1.400 . S
C1139 C1140 1.398 . S
C1139 C1145 1.491 . S
C1140 H1131 0.950 . S
C1140 C1139 1.398 . S
C1140 C1141 1.391 . S
C1141 H1129 0.950 . S
C1141 C1137 1.393 . S
C1141 C1140 1.391 . S
C1142 H1132 0.950 . S
C1142 C1143 1.386 . S
C1142 C1144 1.391 . S
C1143 C1142 1.386 . S
C1143 C1147 1.393 . S
C1144 H1133 0.950 . S
C1144 C1142 1.391 . S
C1144 C1145 1.400 . S
C1145 C1139 1.491 . S
C1145 C1144 1.400 . S
C1145 C1146 1.398 . S
C1146 H1134 0.950 . S
C1146 C1145 1.398 . S
C1146 C1147 1.391 . S
C1147 H1135 0.950 . S
C1147 C1143 1.393 . S
C1147 C1146 1.391 . S
H1148 C1156 0.950 . S
H1149 C1161 0.950 . S
H1150 C1158 0.950 . S
H1151 C1160 0.950 . S
H1152 C1162 0.950 . S
H1153 C1164 0.950 . S
H1154 C1166 0.950 . S
H1155 C1167 0.950 . S
C1156 H1148 0.950 . S
C1156 C1157 1.386 . S
C1156 C1158 1.391 . S
C1157 C1156 1.386 . S
C1157 C1161 1.393 . S
C1158 H1150 0.950 . S
C1158 C1156 1.391 . S
C1158 C1159 1.400 . S
C1159 C1158 1.400 . S
C1159 C1160 1.398 . S
C1159 C1165 1.491 . S
C1160 H1151 0.950 . S
C1160 C1159 1.398 . S
C1160 C1161 1.391 . S
C1161 H1149 0.950 . S
C1161 C1157 1.393 . S
C1161 C1160 1.391 . S
C1162 H1152 0.950 . S
C1162 C1163 1.386 . S
C1162 C1164 1.391 . S
C1163 C1162 1.386 . S
C1163 C1167 1.393 . S
C1164 H1153 0.950 . S
C1164 C1162 1.391 . S
C1164 C1165 1.400 . S
C1165 C1159 1.491 . S
C1165 C1164 1.400 . S
C1165 C1166 1.398 . S
C1166 H1154 0.950 . S
C1166 C1165 1.398 . S
C1166 C1167 1.391 . S
C1167 H1155 0.950 . S
C1167 C1163 1.393 . S
C1167 C1166 1.391 . S
H1168 C1176 0.950 . S
H1169 C1181 0.950 . S
H1170 C1178 0.950 . S
H1171 C1180 0.950 . S
H1172 C1182 0.950 . S
H1173 C1184 0.950 . S
H1174 C1186 0.950 . S
H1175 C1187 0.950 . S
C1176 H1168 0.950 . S
C1176 C1177 1.386 . S
C1176 C1178 1.391 . S
C1177 C1176 1.386 . S
C1177 C1181 1.393 . S
C1178 H1170 0.950 . S
C1178 C1176 1.391 . S
C1178 C1179 1.400 . S
C1179 C1178 1.400 . S
C1179 C1180 1.398 . S
C1179 C1185 1.491 . S
C1180 H1171 0.950 . S
C1180 C1179 1.398 . S
C1180 C1181 1.391 . S
C1181 H1169 0.950 . S
C1181 C1177 1.393 . S
C1181 C1180 1.391 . S
C1182 H1172 0.950 . S
C1182 C1183 1.386 . S
C1182 C1184 1.391 . S
C1183 C1182 1.386 . S
C1183 C1187 1.393 . S
C1184 H1173 0.950 . S
C1184 C1182 1.391 . S
C1184 C1185 1.400 . S
C1185 C1179 1.491 . S
C1185 C1184 1.400 . S
C1185 C1186 1.398 . S
C1186 H1174 0.950 . S
C1186 C1185 1.398 . S
C1186 C1187 1.391 . S
C1187 H1175 0.950 . S
C1187 C1183 1.393 . S
C1187 C1186 1.391 . S
H1188 C1196 0.950 . S
H1189 C1201 0.950 . S
H1190 C1198 0.950 . S
H1191 C1200 0.950 . S
H1192 C1202 0.950 . S
H1193 C1204 0.950 . S
H1194 C1206 0.950 . S
H1195 C1207 0.950 . S
C1196 H1188 0.950 . S
C1196 C1197 1.386 . S
C1196 C1198 1.391 . S
C1197 C1196 1.386 . S
C1197 C1201 1.393 . S
C1198 H1190 0.950 . S
C1198 C1196 1.391 . S
C1198 C1199 1.400 . S
C1199 C1198 1.400 . S
C1199 C1200 1.398 . S
C1199 C1205 1.491 . S
C1200 H1191 0.950 . S
C1200 C1199 1.398 . S
C1200 C1201 1.391 . S
C1201 H1189 0.950 . S
C1201 C1197 1.393 . S
C1201 C1200 1.391 . S
C1202 H1192 0.950 . S
C1202 C1203 1.386 . S
C1202 C1204 1.391 . S
C1203 C1202 1.386 . S
C1203 C1207 1.393 . S
C1204 H1193 0.950 . S
C1204 C1202 1.391 . S
C1204 C1205 1.400 . S
C1205 C1199 1.491 . S
C1205 C1204 1.400 . S
C1205 C1206 1.398 . S
C1206 H1194 0.950 . S
C1206 C1205 1.398 . S
C1206 C1207 1.391 . S
C1207 H1195 0.950 . S
C1207 C1203 1.393 . S
C1207 C1206 1.391 . S
H1208 C1216 0.950 . S
H1209 C1221 0.950 . S
H1210 C1218 0.950 . S
H1211 C1220 0.963 . S
H1212 C1222 0.950 . S
H1213 C1224 0.950 . S
H1214 C1226 0.963 . S
H1215 C1227 0.950 . S
C1216 H1208 0.950 . S
C1216 C1217 1.386 . S
C1216 C1218 1.391 . S
C1217 C1216 1.386 . S
C1217 C1221 1.393 . S
C1218 H1210 0.950 . S
C1218 C1216 1.391 . S
C1218 C1219 1.400 . S
C1219 C1218 1.400 . S
C1219 C1220 1.398 . S
C1219 C1225 1.491 1_565 S
C1220 H1211 0.963 . S
C1220 C1219 1.398 . S
C1220 C1221 1.391 . S
C1221 H1209 0.950 . S
C1221 C1217 1.393 . S
C1221 C1220 1.391 . S
C1222 H1212 0.950 . S
C1222 C1223 1.386 . S
C1222 C1224 1.391 . S
C1223 C1222 1.386 . S
C1223 C1227 1.393 . S
C1224 H1213 0.950 . S
C1224 C1222 1.391 . S
C1224 C1225 1.400 . S
C1225 C1219 1.491 1_545 S
C1225 C1224 1.400 . S
C1225 C1226 1.398 . S
C1226 H1214 0.963 . S
C1226 C1225 1.398 . S
C1226 C1227 1.391 . S
C1227 H1215 0.950 . S
C1227 C1223 1.393 . S
C1227 C1226 1.391 . S
H1228 C1236 0.950 . S
H1229 C1241 0.950 . S
H1230 C1238 0.950 . S
H1231 C1240 0.950 1_455 S
H1232 C1242 0.950 . S
H1233 C1244 0.950 . S
H1234 C1246 0.950 1_655 S
H1235 C1247 0.950 . S
C1236 H1228 0.950 . S
C1236 C1237 1.386 . S
C1236 C1238 1.391 . S
C1237 C1236 1.386 . S
C1237 C1241 1.393 . S
C1238 H1230 0.950 . S
C1238 C1236 1.391 . S
C1238 C1239 1.400 . S
C1239 C1238 1.400 . S
C1239 C1240 1.398 . S
C1239 C1245 1.491 1_655 S
C1240 H1231 0.950 1_655 S
C1240 C1239 1.398 . S
C1240 C1241 1.391 . S
C1241 H1229 0.950 . S
C1241 C1237 1.393 . S
C1241 C1240 1.391 . S
C1242 H1232 0.950 . S
C1242 C1243 1.386 . S
C1242 C1244 1.391 . S
C1243 C1242 1.386 . S
C1243 C1247 1.393 . S
C1244 H1233 0.950 . S
C1244 C1242 1.391 . S
C1244 C1245 1.400 . S
C1245 C1239 1.491 1_455 S
C1245 C1244 1.400 . S
C1245 C1246 1.398 . S
C1246 H1234 0.950 1_455 S
C1246 C1245 1.398 . S
C1246 C1247 1.391 . S
C1247 H1235 0.950 . S
C1247 C1243 1.393 . S
C1247 C1246 1.391 . S
H1248 C1256 0.950 . S
H1249 C1261 0.950 . S
H1250 C1258 0.950 . S
H1251 C1260 0.950 . S
H1252 C1262 0.950 . S
H1253 C1264 0.950 . S
H1254 C1266 0.950 . S
H1255 C1267 0.950 . S
C1256 H1248 0.950 . S
C1256 C1257 1.386 . S
C1256 C1258 1.391 . S
C1257 C1256 1.386 . S
C1257 C1261 1.393 . S
C1258 H1250 0.950 . S
C1258 C1256 1.391 . S
C1258 C1259 1.400 . S
C1259 C1258 1.400 . S
C1259 C1260 1.398 . S
C1259 C1265 1.491 . S
C1260 H1251 0.950 . S
C1260 C1259 1.398 . S
C1260 C1261 1.391 . S
C1261 H1249 0.950 . S
C1261 C1257 1.393 . S
C1261 C1260 1.391 . S
C1262 H1252 0.950 . S
C1262 C1263 1.386 . S
C1262 C1264 1.391 . S
C1263 C1262 1.386 . S
C1263 C1267 1.393 . S
C1264 H1253 0.950 . S
C1264 C1262 1.391 . S
C1264 C1265 1.400 . S
C1265 C1259 1.491 . S
C1265 C1264 1.400 . S
C1265 C1266 1.398 . S
C1266 H1254 0.950 . S
C1266 C1265 1.398 . S
C1266 C1267 1.391 . S
C1267 H1255 0.950 . S
C1267 C1263 1.393 . S
C1267 C1266 1.391 . S
H1268 C1276 0.950 . S
H1269 C1281 0.950 . S
H1270 C1278 0.950 . S
H1271 C1280 0.950 . S
H1272 C1282 0.950 . S
H1273 C1284 0.950 . S
H1274 C1286 0.950 . S
H1275 C1287 0.950 . S
C1276 H1268 0.950 . S
C1276 C1277 1.386 . S
C1276 C1278 1.391 . S
C1277 C1276 1.386 . S
C1277 C1281 1.393 . S
C1278 H1270 0.950 . S
C1278 C1276 1.391 . S
C1278 C1279 1.400 . S
C1279 C1278 1.400 . S
C1279 C1280 1.398 . S
C1279 C1285 1.491 1_545 S
C1280 H1271 0.950 . S
C1280 C1279 1.398 . S
C1280 C1281 1.391 . S
C1281 H1269 0.950 . S
C1281 C1277 1.393 . S
C1281 C1280 1.391 . S
C1282 H1272 0.950 . S
C1282 C1283 1.386 . S
C1282 C1284 1.391 . S
C1283 C1282 1.386 . S
C1283 C1287 1.393 . S
C1284 H1273 0.950 . S
C1284 C1282 1.391 . S
C1284 C1285 1.400 . S
C1285 C1279 1.491 1_565 S
C1285 C1284 1.400 . S
C1285 C1286 1.398 . S
C1286 H1274 0.950 . S
C1286 C1285 1.398 . S
C1286 C1287 1.391 . S
C1287 H1275 0.950 . S
C1287 C1283 1.393 . S
C1287 C1286 1.391 . S
H1288 C1296 0.950 . S
H1289 C1301 0.950 . S
H1290 C1298 0.950 . S
H1291 C1300 0.950 1_455 S
H1292 C1302 0.950 . S
H1293 C1304 0.950 . S
H1294 C1306 0.950 1_655 S
H1295 C1307 0.950 . S
C1296 H1288 0.950 . S
C1296 C1297 1.386 . S
C1296 C1298 1.391 . S
C1297 C1296 1.386 . S
C1297 C1301 1.393 . S
C1298 H1290 0.950 . S
C1298 C1296 1.391 . S
C1298 C1299 1.400 . S
C1299 C1298 1.400 . S
C1299 C1300 1.398 . S
C1299 C1305 1.491 1_655 S
C1300 H1291 0.950 1_655 S
C1300 C1299 1.398 . S
C1300 C1301 1.391 . S
C1301 H1289 0.950 . S
C1301 C1297 1.393 . S
C1301 C1300 1.391 . S
C1302 H1292 0.950 . S
C1302 C1303 1.386 . S
C1302 C1304 1.391 . S
C1303 C1302 1.386 . S
C1303 C1307 1.393 . S
C1304 H1293 0.950 . S
C1304 C1302 1.391 . S
C1304 C1305 1.400 . S
C1305 C1299 1.491 1_455 S
C1305 C1304 1.400 . S
C1305 C1306 1.398 . S
C1306 H1294 0.950 1_455 S
C1306 C1305 1.398 . S
C1306 C1307 1.391 . S
C1307 H1295 0.950 . S
C1307 C1303 1.393 . S
C1307 C1306 1.391 . S
H1308 C1316 0.950 . S
H1309 C1321 0.950 . S
H1310 C1318 0.950 . S
H1311 C1320 0.950 . S
H1312 C1322 0.950 . S
H1313 C1324 0.950 . S
H1314 C1326 0.950 . S
H1315 C1327 0.950 . S
C1316 H1308 0.950 . S
C1316 C1317 1.386 . S
C1316 C1318 1.391 . S
C1317 C1316 1.386 . S
C1317 C1321 1.393 . S
C1318 H1310 0.950 . S
C1318 C1316 1.391 . S
C1318 C1319 1.400 . S
C1319 C1318 1.400 . S
C1319 C1320 1.398 . S
C1319 C1325 1.491 . S
C1320 H1311 0.950 . S
C1320 C1319 1.398 . S
C1320 C1321 1.391 . S
C1321 H1309 0.950 . S
C1321 C1317 1.393 . S
C1321 C1320 1.391 . S
C1322 H1312 0.950 . S
C1322 C1323 1.386 . S
C1322 C1324 1.391 . S
C1323 C1322 1.386 . S
C1323 C1327 1.393 . S
C1324 H1313 0.950 . S
C1324 C1322 1.391 . S
C1324 C1325 1.400 . S
C1325 C1319 1.491 . S
C1325 C1324 1.400 . S
C1325 C1326 1.398 . S
C1326 H1314 0.950 . S
C1326 C1325 1.398 . S
C1326 C1327 1.391 . S
C1327 H1315 0.950 . S
C1327 C1323 1.393 . S
C1327 C1326 1.391 . S
H1328 C1336 0.950 . S
H1329 C1341 0.950 . S
H1330 C1338 0.950 . S
H1331 C1340 0.950 . S
H1332 C1342 0.950 . S
H1333 C1344 0.950 . S
H1334 C1346 0.950 . S
H1335 C1347 0.950 . S
C1336 H1328 0.950 . S
C1336 C1337 1.386 . S
C1336 C1338 1.391 . S
C1337 C1336 1.386 . S
C1337 C1341 1.393 . S
C1338 H1330 0.950 . S
C1338 C1336 1.391 . S
C1338 C1339 1.400 . S
C1339 C1338 1.400 . S
C1339 C1340 1.398 . S
C1339 C1345 1.491 . S
C1340 H1331 0.950 . S
C1340 C1339 1.398 . S
C1340 C1341 1.391 . S
C1341 H1329 0.950 . S
C1341 C1337 1.393 . S
C1341 C1340 1.391 . S
C1342 H1332 0.950 . S
C1342 C1343 1.386 . S
C1342 C1344 1.391 . S
C1343 C1342 1.386 . S
C1343 C1347 1.393 . S
C1344 H1333 0.950 . S
C1344 C1342 1.391 . S
C1344 C1345 1.400 . S
C1345 C1339 1.491 . S
C1345 C1344 1.400 . S
C1345 C1346 1.398 . S
C1346 H1334 0.950 . S
C1346 C1345 1.398 . S
C1346 C1347 1.391 . S
C1347 H1335 0.950 . S
C1347 C1343 1.393 . S
C1347 C1346 1.391 . S
H1348 C1356 0.950 . S
H1349 C1361 0.950 . S
H1350 C1358 0.950 . S
H1351 C1360 0.950 . S
H1352 C1362 0.950 . S
H1353 C1364 0.950 . S
H1354 C1366 0.950 . S
H1355 C1367 0.950 . S
C1356 H1348 0.950 . S
C1356 C1357 1.386 . S
C1356 C1358 1.391 . S
C1357 C1356 1.386 . S
C1357 C1361 1.393 . S
C1358 H1350 0.950 . S
C1358 C1356 1.391 . S
C1358 C1359 1.400 . S
C1359 C1358 1.400 . S
C1359 C1360 1.398 . S
C1359 C1365 1.491 . S
C1360 H1351 0.950 . S
C1360 C1359 1.398 . S
C1360 C1361 1.391 . S
C1361 H1349 0.950 . S
C1361 C1357 1.393 . S
C1361 C1360 1.391 . S
C1362 H1352 0.950 . S
C1362 C1363 1.386 . S
C1362 C1364 1.391 . S
C1363 C1362 1.386 . S
C1363 C1367 1.393 . S
C1364 H1353 0.950 . S
C1364 C1362 1.391 . S
C1364 C1365 1.400 . S
C1365 C1359 1.491 . S
C1365 C1364 1.400 . S
C1365 C1366 1.398 . S
C1366 H1354 0.950 . S
C1366 C1365 1.398 . S
C1366 C1367 1.391 . S
C1367 H1355 0.950 . S
C1367 C1363 1.393 . S
C1367 C1366 1.391 . S
H1368 C1376 0.950 1_556 S
H1369 C1381 0.950 . S
H1370 C1378 0.950 . S
H1371 C1380 0.950 . S
H1372 C1382 0.950 . S
H1373 C1384 0.950 . S
H1374 C1386 0.950 . S
H1375 C1387 0.950 . S
C1376 H1368 0.950 1_554 S
C1376 C1377 1.386 . S
C1376 C1378 1.391 . S
C1377 C1376 1.386 . S
C1377 C1381 1.393 . S
C1378 H1370 0.950 . S
C1378 C1376 1.391 . S
C1378 C1379 1.400 . S
C1379 C1378 1.400 . S
C1379 C1380 1.398 . S
C1379 C1385 1.491 . S
C1380 H1371 0.950 . S
C1380 C1379 1.398 . S
C1380 C1381 1.391 . S
C1381 H1369 0.950 . S
C1381 C1377 1.393 . S
C1381 C1380 1.391 . S
C1382 H1372 0.950 . S
C1382 C1383 1.386 . S
C1382 C1384 1.391 . S
C1383 C1382 1.386 . S
C1383 C1387 1.393 . S
C1384 H1373 0.950 . S
C1384 C1382 1.391 . S
C1384 C1385 1.400 . S
C1385 C1379 1.491 . S
C1385 C1384 1.400 . S
C1385 C1386 1.398 . S
C1386 H1374 0.950 . S
C1386 C1385 1.398 . S
C1386 C1387 1.391 . S
C1387 H1375 0.950 . S
C1387 C1383 1.393 . S
C1387 C1386 1.391 . S
H1388 C1396 0.950 . S
H1389 C1401 0.950 . S
H1390 C1398 0.950 . S
H1391 C1400 0.950 . S
H1392 C1402 0.950 . S
H1393 C1404 0.950 . S
H1394 C1406 0.950 . S
H1395 C1407 0.950 . S
C1396 H1388 0.950 . S
C1396 C1397 1.386 . S
C1396 C1398 1.391 . S
C1397 C1396 1.386 . S
C1397 C1401 1.393 . S
C1398 H1390 0.950 . S
C1398 C1396 1.391 . S
C1398 C1399 1.400 . S
C1399 C1398 1.400 . S
C1399 C1400 1.398 . S
C1399 C1405 1.491 . S
C1400 H1391 0.950 . S
C1400 C1399 1.398 . S
C1400 C1401 1.391 . S
C1401 H1389 0.950 . S
C1401 C1397 1.393 . S
C1401 C1400 1.391 . S
C1402 H1392 0.950 . S
C1402 C1403 1.386 . S
C1402 C1404 1.391 . S
C1403 C1402 1.386 . S
C1403 C1407 1.393 . S
C1404 H1393 0.950 . S
C1404 C1402 1.391 . S
C1404 C1405 1.400 . S
C1405 C1399 1.491 . S
C1405 C1404 1.400 . S
C1405 C1406 1.398 . S
C1406 H1394 0.950 . S
C1406 C1405 1.398 . S
C1406 C1407 1.391 . S
C1407 H1395 0.950 . S
C1407 C1403 1.393 . S
C1407 C1406 1.391 . S
H1408 C1416 0.950 . S
H1409 C1421 0.950 1_556 S
H1410 C1418 0.950 . S
H1411 C1420 0.950 . S
H1412 C1422 0.950 . S
H1413 C1424 0.950 . S
H1414 C1426 0.950 . S
H1415 C1427 0.950 . S
C1416 H1408 0.950 . S
C1416 C1417 1.386 . S
C1416 C1418 1.391 . S
C1417 C1416 1.386 . S
C1417 C1421 1.393 . S
C1418 H1410 0.950 . S
C1418 C1416 1.391 . S
C1418 C1419 1.400 . S
C1419 C1418 1.400 . S
C1419 C1420 1.398 . S
C1419 C1425 1.491 . S
C1420 H1411 0.950 . S
C1420 C1419 1.398 . S
C1420 C1421 1.391 . S
C1421 H1409 0.950 1_554 S
C1421 C1417 1.393 . S
C1421 C1420 1.391 . S
C1422 H1412 0.950 . S
C1422 C1423 1.386 . S
C1422 C1424 1.391 . S
C1423 C1422 1.386 . S
C1423 C1427 1.393 . S
C1424 H1413 0.950 . S
C1424 C1422 1.391 . S
C1424 C1425 1.400 . S
C1425 C1419 1.491 . S
C1425 C1424 1.400 . S
C1425 C1426 1.398 . S
C1426 H1414 0.950 . S
C1426 C1425 1.398 . S
C1426 C1427 1.391 . S
C1427 H1415 0.950 . S
C1427 C1423 1.393 . S
C1427 C1426 1.391 . S
H1428 C1436 0.950 . S
H1429 C1441 0.950 1_554 S
H1430 C1438 0.950 . S
H1431 C1440 0.950 . S
H1432 C1442 0.950 . S
H1433 C1444 0.950 . S
H1434 C1446 0.950 . S
H1435 C1447 0.950 . S
C1436 H1428 0.950 . S
C1436 C1437 1.386 . S
C1436 C1438 1.391 . S
C1437 C1436 1.386 . S
C1437 C1441 1.393 . S
C1438 H1430 0.950 . S
C1438 C1436 1.391 . S
C1438 C1439 1.400 . S
C1439 C1438 1.400 . S
C1439 C1440 1.398 . S
C1439 C1445 1.491 . S
C1440 H1431 0.950 . S
C1440 C1439 1.398 . S
C1440 C1441 1.391 . S
C1441 H1429 0.950 1_556 S
C1441 C1437 1.393 . S
C1441 C1440 1.391 . S
C1442 H1432 0.950 . S
C1442 C1443 1.386 . S
C1442 C1444 1.391 . S
C1443 C1442 1.386 . S
C1443 C1447 1.393 . S
C1444 H1433 0.950 . S
C1444 C1442 1.391 . S
C1444 C1445 1.400 . S
C1445 C1439 1.491 . S
C1445 C1444 1.400 . S
C1445 C1446 1.398 . S
C1446 H1434 0.950 . S
C1446 C1445 1.398 . S
C1446 C1447 1.391 . S
C1447 H1435 0.950 . S
C1447 C1443 1.393 . S
C1447 C1446 1.391 . S
H1448 C1456 0.950 . S
H1449 C1461 0.950 . S
H1450 C1458 0.950 . S
H1451 C1460 0.950 . S
H1452 C1462 0.950 . S
H1453 C1464 0.950 . S
H1454 C1466 0.950 . S
H1455 C1467 0.950 . S
C1456 H1448 0.950 . S
C1456 C1457 1.386 . S
C1456 C1458 1.391 . S
C1457 C1456 1.386 . S
C1457 C1461 1.393 . S
C1458 H1450 0.950 . S
C1458 C1456 1.391 . S
C1458 C1459 1.400 . S
C1459 C1458 1.400 . S
C1459 C1460 1.398 . S
C1459 C1465 1.491 . S
C1460 H1451 0.950 . S
C1460 C1459 1.398 . S
C1460 C1461 1.391 . S
C1461 H1449 0.950 . S
C1461 C1457 1.393 . S
C1461 C1460 1.391 . S
C1462 H1452 0.950 . S
C1462 C1463 1.386 . S
C1462 C1464 1.391 . S
C1463 C1462 1.386 . S
C1463 C1467 1.393 . S
C1464 H1453 0.950 . S
C1464 C1462 1.391 . S
C1464 C1465 1.400 . S
C1465 C1459 1.491 . S
C1465 C1464 1.400 . S
C1465 C1466 1.398 . S
C1466 H1454 0.950 . S
C1466 C1465 1.398 . S
C1466 C1467 1.391 . S
C1467 H1455 0.950 . S
C1467 C1463 1.393 . S
C1467 C1466 1.391 . S
H1468 C1476 0.950 1_554 S
H1469 C1481 0.950 . S
H1470 C1478 0.950 . S
H1471 C1480 0.950 . S
H1472 C1482 0.950 . S
H1473 C1484 0.950 . S
H1474 C1486 0.950 . S
H1475 C1487 0.950 . S
C1476 H1468 0.950 1_556 S
C1476 C1477 1.386 . S
C1476 C1478 1.391 . S
C1477 C1476 1.386 . S
C1477 C1481 1.393 . S
C1478 H1470 0.950 . S
C1478 C1476 1.391 . S
C1478 C1479 1.400 . S
C1479 C1478 1.400 . S
C1479 C1480 1.398 . S
C1479 C1485 1.491 . S
C1480 H1471 0.950 . S
C1480 C1479 1.398 . S
C1480 C1481 1.391 . S
C1481 H1469 0.950 . S
C1481 C1477 1.393 . S
C1481 C1480 1.391 . S
C1482 H1472 0.950 . S
C1482 C1483 1.386 . S
C1482 C1484 1.391 . S
C1483 C1482 1.386 . S
C1483 C1487 1.393 . S
C1484 H1473 0.950 . S
C1484 C1482 1.391 . S
C1484 C1485 1.400 . S
C1485 C1479 1.491 . S
C1485 C1484 1.400 . S
C1485 C1486 1.398 . S
C1486 H1474 0.950 . S
C1486 C1485 1.398 . S
C1486 C1487 1.391 . S
C1487 H1475 0.950 . S
C1487 C1483 1.393 . S
C1487 C1486 1.391 . S
H1488 C1496 0.950 . S
H1489 C1501 0.950 . S
H1490 C1498 0.950 . S
H1491 C1500 0.950 . S
H1492 C1502 0.950 . S
H1493 C1504 0.950 . S
H1494 C1506 0.950 . S
H1495 C1507 0.950 . S
C1496 H1488 0.950 . S
C1496 C1497 1.386 . S
C1496 C1498 1.391 . S
C1497 C1496 1.386 . S
C1497 C1501 1.393 . S
C1498 H1490 0.950 . S
C1498 C1496 1.391 . S
C1498 C1499 1.400 . S
C1499 C1498 1.400 . S
C1499 C1500 1.398 . S
C1499 C1505 1.491 . S
C1500 H1491 0.950 . S
C1500 C1499 1.398 . S
C1500 C1501 1.391 . S
C1501 H1489 0.950 . S
C1501 C1497 1.393 . S
C1501 C1500 1.391 . S
C1502 H1492 0.950 . S
C1502 C1503 1.386 . S
C1502 C1504 1.391 . S
C1503 C1502 1.386 . S
C1503 C1507 1.393 . S
C1504 H1493 0.950 . S
C1504 C1502 1.391 . S
C1504 C1505 1.400 . S
C1505 C1499 1.491 . S
C1505 C1504 1.400 . S
C1505 C1506 1.398 . S
C1506 H1494 0.950 . S
C1506 C1505 1.398 . S
C1506 C1507 1.391 . S
C1507 H1495 0.950 . S
C1507 C1503 1.393 . S
C1507 C1506 1.391 . S
H1508 C1516 0.950 . S
H1509 C1521 0.950 . S
H1510 C1518 0.950 . S
H1511 C1520 0.950 . S
H1512 C1522 0.950 . S
H1513 C1524 0.950 . S
H1514 C1526 0.950 . S
H1515 C1527 0.950 . S
C1516 H1508 0.950 . S
C1516 C1517 1.386 . S
C1516 C1518 1.391 . S
C1517 C1516 1.386 . S
C1517 C1521 1.393 . S
C1518 H1510 0.950 . S
C1518 C1516 1.391 . S
C1518 C1519 1.400 . S
C1519 C1518 1.400 . S
C1519 C1520 1.398 . S
C1519 C1525 1.491 . S
C1520 H1511 0.950 . S
C1520 C1519 1.398 . S
C1520 C1521 1.391 . S
C1521 H1509 0.950 . S
C1521 C1517 1.393 . S
C1521 C1520 1.391 . S
C1522 H1512 0.950 . S
C1522 C1523 1.386 . S
C1522 C1524 1.391 . S
C1523 C1522 1.386 . S
C1523 C1527 1.393 . S
C1524 H1513 0.950 . S
C1524 C1522 1.391 . S
C1524 C1525 1.400 . S
C1525 C1519 1.491 . S
C1525 C1524 1.400 . S
C1525 C1526 1.398 . S
C1526 H1514 0.950 . S
C1526 C1525 1.398 . S
C1526 C1527 1.391 . S
C1527 H1515 0.950 . S
C1527 C1523 1.393 . S
C1527 C1526 1.391 . S
H1528 C1536 0.950 . S
H1529 C1541 0.950 . S
H1530 C1538 0.950 . S
H1531 C1540 0.950 . S
H1532 C1542 0.950 . S
H1533 C1544 0.950 . S
H1534 C1546 0.950 . S
H1535 C1547 0.950 . S
C1536 H1528 0.950 . S
C1536 C1537 1.386 . S
C1536 C1538 1.391 . S
C1537 C1536 1.386 . S
C1537 C1541 1.393 . S
C1538 H1530 0.950 . S
C1538 C1536 1.391 . S
C1538 C1539 1.400 . S
C1539 C1538 1.400 . S
C1539 C1540 1.398 . S
C1539 C1545 1.491 . S
C1540 H1531 0.950 . S
C1540 C1539 1.398 . S
C1540 C1541 1.391 . S
C1541 H1529 0.950 . S
C1541 C1537 1.393 . S
C1541 C1540 1.391 . S
C1542 H1532 0.950 . S
C1542 C1543 1.386 . S
C1542 C1544 1.391 . S
C1543 C1542 1.386 . S
C1543 C1547 1.393 . S
C1544 H1533 0.950 . S
C1544 C1542 1.391 . S
C1544 C1545 1.400 . S
C1545 C1539 1.491 . S
C1545 C1544 1.400 . S
C1545 C1546 1.398 . S
C1546 H1534 0.950 . S
C1546 C1545 1.398 . S
C1546 C1547 1.391 . S
C1547 H1535 0.950 . S
C1547 C1543 1.393 . S
C1547 C1546 1.391 . S
H1548 C1556 0.950 . S
H1549 C1561 0.950 . S
H1550 C1558 0.950 . S
H1551 C1560 0.950 . S
H1552 C1562 0.950 . S
H1553 C1564 0.950 . S
H1554 C1566 0.950 . S
H1555 C1567 0.950 . S
C1556 H1548 0.950 . S
C1556 C1557 1.386 . S
C1556 C1558 1.391 . S
C1557 C1556 1.386 . S
C1557 C1561 1.393 . S
C1558 H1550 0.950 . S
C1558 C1556 1.391 . S
C1558 C1559 1.400 . S
C1559 C1558 1.400 . S
C1559 C1560 1.398 . S
C1559 C1565 1.491 . S
C1560 H1551 0.950 . S
C1560 C1559 1.398 . S
C1560 C1561 1.391 . S
C1561 H1549 0.950 . S
C1561 C1557 1.393 . S
C1561 C1560 1.391 . S
C1562 H1552 0.950 . S
C1562 C1563 1.386 . S
C1562 C1564 1.391 . S
C1563 C1562 1.386 . S
C1563 C1567 1.393 . S
C1564 H1553 0.950 . S
C1564 C1562 1.391 . S
C1564 C1565 1.400 . S
C1565 C1559 1.491 . S
C1565 C1564 1.400 . S
C1565 C1566 1.398 . S
C1566 H1554 0.950 . S
C1566 C1565 1.398 . S
C1566 C1567 1.391 . S
C1567 H1555 0.950 . S
C1567 C1563 1.393 . S
C1567 C1566 1.391 . S
H1568 C1576 0.950 . S
H1569 C1581 0.950 . S
H1570 C1578 0.950 . S
H1571 C1580 0.950 . S
H1572 C1582 0.950 . S
H1573 C1584 0.950 . S
H1574 C1586 0.950 . S
H1575 C1587 0.950 . S
C1576 H1568 0.950 . S
C1576 C1577 1.386 . S
C1576 C1578 1.391 . S
C1577 C1576 1.386 . S
C1577 C1581 1.393 . S
C1578 H1570 0.950 . S
C1578 C1576 1.391 . S
C1578 C1579 1.400 . S
C1579 C1578 1.400 . S
C1579 C1580 1.398 . S
C1579 C1585 1.491 . S
C1580 H1571 0.950 . S
C1580 C1579 1.398 . S
C1580 C1581 1.391 . S
C1581 H1569 0.950 . S
C1581 C1577 1.393 . S
C1581 C1580 1.391 . S
C1582 H1572 0.950 . S
C1582 C1583 1.386 . S
C1582 C1584 1.391 . S
C1583 C1582 1.386 . S
C1583 C1587 1.393 . S
C1584 H1573 0.950 . S
C1584 C1582 1.391 . S
C1584 C1585 1.400 . S
C1585 C1579 1.491 . S
C1585 C1584 1.400 . S
C1585 C1586 1.398 . S
C1586 H1574 0.950 . S
C1586 C1585 1.398 . S
C1586 C1587 1.391 . S
C1587 H1575 0.950 . S
C1587 C1583 1.393 . S
C1587 C1586 1.391 . S
H1588 C1596 0.950 . S
H1589 C1601 0.950 . S
H1590 C1598 0.950 . S
H1591 C1600 0.950 . S
H1592 C1602 0.950 . S
H1593 C1604 0.950 . S
H1594 C1606 0.950 . S
H1595 C1607 0.950 . S
C1596 H1588 0.950 . S
C1596 C1597 1.386 . S
C1596 C1598 1.391 . S
C1597 C1596 1.386 . S
C1597 C1601 1.393 . S
C1598 H1590 0.950 . S
C1598 C1596 1.391 . S
C1598 C1599 1.400 . S
C1599 C1598 1.400 . S
C1599 C1600 1.398 . S
C1599 C1605 1.491 . S
C1600 H1591 0.950 . S
C1600 C1599 1.398 . S
C1600 C1601 1.391 . S
C1601 H1589 0.950 . S
C1601 C1597 1.393 . S
C1601 C1600 1.391 . S
C1602 H1592 0.950 . S
C1602 C1603 1.386 . S
C1602 C1604 1.391 . S
C1603 C1602 1.386 . S
C1603 C1607 1.393 . S
C1604 H1593 0.950 . S
C1604 C1602 1.391 . S
C1604 C1605 1.400 . S
C1605 C1599 1.491 . S
C1605 C1604 1.400 . S
C1605 C1606 1.398 . S
C1606 H1594 0.950 . S
C1606 C1605 1.398 . S
C1606 C1607 1.391 . S
C1607 H1595 0.950 . S
C1607 C1603 1.393 . S
C1607 C1606 1.391 . S
H1608 C1616 0.950 . S
H1609 C1621 0.950 . S
H1610 C1618 0.950 . S
H1611 C1620 0.950 . S
H1612 C1622 0.950 . S
H1613 C1624 0.950 . S
H1614 C1626 0.950 . S
H1615 C1627 0.950 . S
C1616 H1608 0.950 . S
C1616 C1617 1.386 . S
C1616 C1618 1.391 . S
C1617 C1616 1.386 . S
C1617 C1621 1.393 . S
C1618 H1610 0.950 . S
C1618 C1616 1.391 . S
C1618 C1619 1.400 . S
C1619 C1618 1.400 . S
C1619 C1620 1.398 . S
C1619 C1625 1.491 . S
C1620 H1611 0.950 . S
C1620 C1619 1.398 . S
C1620 C1621 1.391 . S
C1621 H1609 0.950 . S
C1621 C1617 1.393 . S
C1621 C1620 1.391 . S
C1622 H1612 0.950 . S
C1622 C1623 1.386 . S
C1622 C1624 1.391 . S
C1623 C1622 1.386 . S
C1623 C1627 1.393 . S
C1624 H1613 0.950 . S
C1624 C1622 1.391 . S
C1624 C1625 1.400 . S
C1625 C1619 1.491 . S
C1625 C1624 1.400 . S
C1625 C1626 1.398 . S
C1626 H1614 0.950 . S
C1626 C1625 1.398 . S
C1626 C1627 1.391 . S
C1627 H1615 0.950 . S
C1627 C1623 1.393 . S
C1627 C1626 1.391 . S
H1628 C1636 0.950 . S
H1629 C1641 0.950 . S
H1630 C1638 0.950 . S
H1631 C1640 0.950 . S
H1632 C1642 0.950 . S
H1633 C1644 0.950 . S
H1634 C1646 0.950 . S
H1635 C1647 0.950 . S
C1636 H1628 0.950 . S
C1636 C1637 1.386 . S
C1636 C1638 1.391 . S
C1637 C1636 1.386 . S
C1637 C1641 1.393 . S
C1638 H1630 0.950 . S
C1638 C1636 1.391 . S
C1638 C1639 1.400 . S
C1639 C1638 1.400 . S
C1639 C1640 1.398 . S
C1639 C1645 1.491 . S
C1640 H1631 0.950 . S
C1640 C1639 1.398 . S
C1640 C1641 1.391 . S
C1641 H1629 0.950 . S
C1641 C1637 1.393 . S
C1641 C1640 1.391 . S
C1642 H1632 0.950 . S
C1642 C1643 1.386 . S
C1642 C1644 1.391 . S
C1643 C1642 1.386 . S
C1643 C1647 1.393 . S
C1644 H1633 0.950 . S
C1644 C1642 1.391 . S
C1644 C1645 1.400 . S
C1645 C1639 1.491 . S
C1645 C1644 1.400 . S
C1645 C1646 1.398 . S
C1646 H1634 0.950 . S
C1646 C1645 1.398 . S
C1646 C1647 1.391 . S
C1647 H1635 0.950 . S
C1647 C1643 1.393 . S
C1647 C1646 1.391 . S
H1648 C1656 0.950 . S
H1649 C1661 0.950 . S
H1650 C1658 0.950 . S
H1651 C1660 0.950 . S
H1652 C1662 0.950 . S
H1653 C1664 0.950 . S
H1654 C1666 0.950 . S
H1655 C1667 0.950 . S
C1656 H1648 0.950 . S
C1656 C1657 1.386 . S
C1656 C1658 1.391 . S
C1657 C1656 1.386 . S
C1657 C1661 1.393 . S
C1658 H1650 0.950 . S
C1658 C1656 1.391 . S
C1658 C1659 1.400 . S
C1659 C1658 1.400 . S
C1659 C1660 1.398 . S
C1659 C1665 1.491 . S
C1660 H1651 0.950 . S
C1660 C1659 1.398 . S
C1660 C1661 1.391 . S
C1661 H1649 0.950 . S
C1661 C1657 1.393 . S
C1661 C1660 1.391 . S
C1662 H1652 0.950 . S
C1662 C1663 1.386 . S
C1662 C1664 1.391 . S
C1663 C1662 1.386 . S
C1663 C1667 1.393 . S
C1664 H1653 0.950 . S
C1664 C1662 1.391 . S
C1664 C1665 1.400 . S
C1665 C1659 1.491 . S
C1665 C1664 1.400 . S
C1665 C1666 1.398 . S
C1666 H1654 0.950 . S
C1666 C1665 1.398 . S
C1666 C1667 1.391 . S
C1667 H1655 0.950 . S
C1667 C1663 1.393 . S
C1667 C1666 1.391 . S
H1668 C1676 0.950 . S
H1669 C1681 0.950 . S
H1670 C1678 0.950 . S
H1671 C1680 0.950 . S
H1672 C1682 0.950 . S
H1673 C1684 0.950 . S
H1674 C1686 0.950 . S
H1675 C1687 0.950 . S
C1676 H1668 0.950 . S
C1676 C1677 1.386 . S
C1676 C1678 1.391 . S
C1677 C1676 1.386 . S
C1677 C1681 1.393 . S
C1678 H1670 0.950 . S
C1678 C1676 1.391 . S
C1678 C1679 1.400 . S
C1679 C1678 1.400 . S
C1679 C1680 1.398 . S
C1679 C1685 1.491 . S
C1680 H1671 0.950 . S
C1680 C1679 1.398 . S
C1680 C1681 1.391 . S
C1681 H1669 0.950 . S
C1681 C1677 1.393 . S
C1681 C1680 1.391 . S
C1682 H1672 0.950 . S
C1682 C1683 1.386 . S
C1682 C1684 1.391 . S
C1683 C1682 1.386 . S
C1683 C1687 1.393 . S
C1684 H1673 0.950 . S
C1684 C1682 1.391 . S
C1684 C1685 1.400 . S
C1685 C1679 1.491 . S
C1685 C1684 1.400 . S
C1685 C1686 1.398 . S
C1686 H1674 0.950 . S
C1686 C1685 1.398 . S
C1686 C1687 1.391 . S
C1687 H1675 0.950 . S
C1687 C1683 1.393 . S
C1687 C1686 1.391 . S
H1688 C1696 0.950 . S
H1689 C1701 0.950 . S
H1690 C1698 0.950 . S
H1691 C1700 0.950 . S
H1692 C1702 0.950 . S
H1693 C1704 0.950 . S
H1694 C1706 0.950 . S
H1695 C1707 0.950 . S
C1696 H1688 0.950 . S
C1696 C1697 1.386 . S
C1696 C1698 1.391 . S
C1697 C1696 1.386 . S
C1697 C1701 1.393 . S
C1698 H1690 0.950 . S
C1698 C1696 1.391 . S
C1698 C1699 1.400 . S
C1699 C1698 1.400 . S
C1699 C1700 1.398 . S
C1699 C1705 1.491 . S
C1700 H1691 0.950 . S
C1700 C1699 1.398 . S
C1700 C1701 1.391 . S
C1701 H1689 0.950 . S
C1701 C1697 1.393 . S
C1701 C1700 1.391 . S
C1702 H1692 0.950 . S
C1702 C1703 1.386 . S
C1702 C1704 1.391 . S
C1703 C1702 1.386 . S
C1703 C1707 1.393 . S
C1704 H1693 0.950 . S
C1704 C1702 1.391 . S
C1704 C1705 1.400 . S
C1705 C1699 1.491 . S
C1705 C1704 1.400 . S
C1705 C1706 1.398 . S
C1706 H1694 0.950 . S
C1706 C1705 1.398 . S
C1706 C1707 1.391 . S
C1707 H1695 0.950 . S
C1707 C1703 1.393 . S
C1707 C1706 1.391 . S
H1708 C1716 0.950 . S
H1709 C1721 0.950 . S
H1710 C1718 0.950 . S
H1711 C1720 0.950 . S
H1712 C1722 0.950 . S
H1713 C1724 0.950 . S
H1714 C1726 0.950 . S
H1715 C1727 0.950 . S
C1716 H1708 0.950 . S
C1716 C1717 1.386 . S
C1716 C1718 1.391 . S
C1717 C1716 1.386 . S
C1717 C1721 1.393 . S
C1718 H1710 0.950 . S
C1718 C1716 1.391 . S
C1718 C1719 1.400 . S
C1719 C1718 1.400 . S
C1719 C1720 1.398 . S
C1719 C1725 1.491 . S
C1720 H1711 0.950 . S
C1720 C1719 1.398 . S
C1720 C1721 1.391 . S
C1721 H1709 0.950 . S
C1721 C1717 1.393 . S
C1721 C1720 1.391 . S
C1722 H1712 0.950 . S
C1722 C1723 1.386 . S
C1722 C1724 1.391 . S
C1723 C1722 1.386 . S
C1723 C1727 1.393 . S
C1724 H1713 0.950 . S
C1724 C1722 1.391 . S
C1724 C1725 1.400 . S
C1725 C1719 1.491 . S
C1725 C1724 1.400 . S
C1725 C1726 1.398 . S
C1726 H1714 0.950 . S
C1726 C1725 1.398 . S
C1726 C1727 1.391 . S
C1727 H1715 0.950 . S
C1727 C1723 1.393 . S
C1727 C1726 1.391 . S
H1728 C1736 0.950 . S
H1729 C1741 0.950 . S
H1730 C1738 0.950 . S
H1731 C1740 0.950 . S
H1732 C1742 0.950 . S
H1733 C1744 0.950 . S
H1734 C1746 0.950 . S
H1735 C1747 0.950 . S
C1736 H1728 0.950 . S
C1736 C1737 1.386 . S
C1736 C1738 1.391 . S
C1737 C1736 1.386 . S
C1737 C1741 1.393 . S
C1738 H1730 0.950 . S
C1738 C1736 1.391 . S
C1738 C1739 1.400 . S
C1739 C1738 1.400 . S
C1739 C1740 1.398 . S
C1739 C1745 1.491 . S
C1740 H1731 0.950 . S
C1740 C1739 1.398 . S
C1740 C1741 1.391 . S
C1741 H1729 0.950 . S
C1741 C1737 1.393 . S
C1741 C1740 1.391 . S
C1742 H1732 0.950 . S
C1742 C1743 1.386 . S
C1742 C1744 1.391 . S
C1743 C1742 1.386 . S
C1743 C1747 1.393 . S
C1744 H1733 0.950 . S
C1744 C1742 1.391 . S
C1744 C1745 1.400 . S
C1745 C1739 1.491 . S
C1745 C1744 1.400 . S
C1745 C1746 1.398 . S
C1746 H1734 0.950 . S
C1746 C1745 1.398 . S
C1746 C1747 1.391 . S
C1747 H1735 0.950 . S
C1747 C1743 1.393 . S
C1747 C1746 1.391 . S
H1748 C1756 0.950 . S
H1749 C1761 0.950 . S
H1750 C1758 0.950 . S
H1751 C1760 0.950 . S
H1752 C1762 0.950 . S
H1753 C1764 0.950 . S
H1754 C1766 0.950 . S
H1755 C1767 0.950 . S
C1756 H1748 0.950 . S
C1756 C1757 1.386 . S
C1756 C1758 1.391 . S
C1757 C1756 1.386 . S
C1757 C1761 1.393 . S
C1758 H1750 0.950 . S
C1758 C1756 1.391 . S
C1758 C1759 1.400 . S
C1759 C1758 1.400 . S
C1759 C1760 1.398 . S
C1759 C1765 1.491 . S
C1760 H1751 0.950 . S
C1760 C1759 1.398 . S
C1760 C1761 1.391 . S
C1761 H1749 0.950 . S
C1761 C1757 1.393 . S
C1761 C1760 1.391 . S
C1762 H1752 0.950 . S
C1762 C1763 1.386 . S
C1762 C1764 1.391 . S
C1763 C1762 1.386 . S
C1763 C1767 1.393 . S
C1764 H1753 0.950 . S
C1764 C1762 1.391 . S
C1764 C1765 1.400 . S
C1765 C1759 1.491 . S
C1765 C1764 1.400 . S
C1765 C1766 1.398 . S
C1766 H1754 0.950 . S
C1766 C1765 1.398 . S
C1766 C1767 1.391 . S
C1767 H1755 0.950 . S
C1767 C1763 1.393 . S
C1767 C1766 1.391 . S
H1768 C1776 0.950 . S
H1769 C1781 0.950 . S
H1770 C1778 0.950 . S
H1771 C1780 0.950 . S
H1772 C1782 0.950 . S
H1773 C1784 0.950 . S
H1774 C1786 0.950 . S
H1775 C1787 0.950 . S
C1776 H1768 0.950 . S
C1776 C1777 1.386 . S
C1776 C1778 1.391 . S
C1777 C1776 1.386 . S
C1777 C1781 1.393 . S
C1778 H1770 0.950 . S
C1778 C1776 1.391 . S
C1778 C1779 1.400 . S
C1779 C1778 1.400 . S
C1779 C1780 1.398 . S
C1779 C1785 1.491 . S
C1780 H1771 0.950 . S
C1780 C1779 1.398 . S
C1780 C1781 1.391 . S
C1781 H1769 0.950 . S
C1781 C1777 1.393 . S
C1781 C1780 1.391 . S
C1782 H1772 0.950 . S
C1782 C1783 1.386 . S
C1782 C1784 1.391 . S
C1783 C1782 1.386 . S
C1783 C1787 1.393 . S
C1784 H1773 0.950 . S
C1784 C1782 1.391 . S
C1784 C1785 1.400 . S
C1785 C1779 1.491 . S
C1785 C1784 1.400 . S
C1785 C1786 1.398 . S
C1786 H1774 0.950 . S
C1786 C1785 1.398 . S
C1786 C1787 1.391 . S
C1787 H1775 0.950 . S
C1787 C1783 1.393 . S
C1787 C1786 1.391 . S
H1788 C1796 0.950 . S
H1789 C1801 0.950 . S
H1790 C1798 0.950 . S
H1791 C1800 0.950 . S
H1792 C1802 0.950 . S
H1793 C1804 0.950 . S
H1794 C1806 0.950 . S
H1795 C1807 0.950 . S
C1796 H1788 0.950 . S
C1796 C1797 1.386 . S
C1796 C1798 1.391 . S
C1797 C1796 1.386 . S
C1797 C1801 1.393 . S
C1798 H1790 0.950 . S
C1798 C1796 1.391 . S
C1798 C1799 1.400 . S
C1799 C1798 1.400 . S
C1799 C1800 1.398 . S
C1799 C1805 1.491 1_455 S
C1800 H1791 0.950 . S
C1800 C1799 1.398 . S
C1800 C1801 1.391 . S
C1801 H1789 0.950 . S
C1801 C1797 1.393 . S
C1801 C1800 1.391 . S
C1802 H1792 0.950 . S
C1802 C1803 1.386 . S
C1802 C1804 1.391 . S
C1803 C1802 1.386 . S
C1803 C1807 1.393 . S
C1804 H1793 0.950 . S
C1804 C1802 1.391 . S
C1804 C1805 1.400 . S
C1805 C1799 1.491 1_655 S
C1805 C1804 1.400 . S
C1805 C1806 1.398 . S
C1806 H1794 0.950 . S
C1806 C1805 1.398 . S
C1806 C1807 1.391 . S
C1807 H1795 0.950 . S
C1807 C1803 1.393 . S
C1807 C1806 1.391 . S
H1808 C1816 0.950 . S
H1809 C1821 0.950 . S
H1810 C1818 0.950 . S
H1811 C1820 0.950 . S
H1812 C1822 0.950 . S
H1813 C1824 0.950 . S
H1814 C1826 0.950 . S
H1815 C1827 0.950 . S
C1816 H1808 0.950 . S
C1816 C1817 1.386 . S
C1816 C1818 1.391 . S
C1817 C1816 1.386 . S
C1817 C1821 1.393 . S
C1818 H1810 0.950 . S
C1818 C1816 1.391 . S
C1818 C1819 1.400 . S
C1819 C1818 1.400 . S
C1819 C1820 1.398 . S
C1819 C1825 1.491 . S
C1820 H1811 0.950 . S
C1820 C1819 1.398 . S
C1820 C1821 1.391 . S
C1821 H1809 0.950 . S
C1821 C1817 1.393 . S
C1821 C1820 1.391 . S
C1822 H1812 0.950 . S
C1822 C1823 1.386 . S
C1822 C1824 1.391 . S
C1823 C1822 1.386 . S
C1823 C1827 1.393 . S
C1824 H1813 0.950 . S
C1824 C1822 1.391 . S
C1824 C1825 1.400 . S
C1825 C1819 1.491 . S
C1825 C1824 1.400 . S
C1825 C1826 1.398 . S
C1826 H1814 0.950 . S
C1826 C1825 1.398 . S
C1826 C1827 1.391 . S
C1827 H1815 0.950 . S
C1827 C1823 1.393 . S
C1827 C1826 1.391 . S
H1828 C1836 0.950 . S
H1829 C1841 0.950 . S
H1830 C1838 0.950 . S
H1831 C1840 0.950 . S
H1832 C1842 0.950 . S
H1833 C1844 0.950 . S
H1834 C1846 0.950 . S
H1835 C1847 0.950 . S
C1836 H1828 0.950 . S
C1836 C1837 1.386 . S
C1836 C1838 1.391 . S
C1837 C1836 1.386 . S
C1837 C1841 1.393 . S
C1838 H1830 0.950 . S
C1838 C1836 1.391 . S
C1838 C1839 1.400 . S
C1839 C1838 1.400 . S
C1839 C1840 1.398 . S
C1839 C1845 1.491 1_545 S
C1840 H1831 0.950 . S
C1840 C1839 1.398 . S
C1840 C1841 1.391 . S
C1841 H1829 0.950 . S
C1841 C1837 1.393 . S
C1841 C1840 1.391 . S
C1842 H1832 0.950 . S
C1842 C1843 1.386 . S
C1842 C1844 1.391 . S
C1843 C1842 1.386 . S
C1843 C1847 1.393 . S
C1844 H1833 0.950 . S
C1844 C1842 1.391 . S
C1844 C1845 1.400 . S
C1845 C1839 1.491 1_565 S
C1845 C1844 1.400 . S
C1845 C1846 1.398 . S
C1846 H1834 0.950 . S
C1846 C1845 1.398 . S
C1846 C1847 1.391 . S
C1847 H1835 0.950 . S
C1847 C1843 1.393 . S
C1847 C1846 1.391 . S
H1848 C1856 0.950 1_554 S
H1849 C1861 0.950 . S
H1850 C1858 0.950 . S
H1851 C1860 0.950 . S
H1852 C1862 0.950 1_556 S
H1853 C1864 0.950 . S
H1854 C1866 0.950 . S
H1855 C1867 0.950 . S
C1856 H1848 0.950 1_556 S
C1856 C1857 1.386 . S
C1856 C1858 1.391 1_556 S
C1857 C1856 1.386 . S
C1857 C1861 1.393 . S
C1858 H1850 0.950 . S
C1858 C1856 1.391 1_554 S
C1858 C1859 1.400 1_554 S
C1859 C1858 1.400 1_556 S
C1859 C1860 1.398 . S
C1859 C1865 1.491 1_546 S
C1860 H1851 0.950 . S
C1860 C1859 1.398 . S
C1860 C1861 1.391 . S
C1861 H1849 0.950 . S
C1861 C1857 1.393 . S
C1861 C1860 1.391 . S
C1862 H1852 0.950 1_554 S
C1862 C1863 1.386 . S
C1862 C1864 1.391 1_554 S
C1863 C1862 1.386 . S
C1863 C1867 1.393 . S
C1864 H1853 0.950 . S
C1864 C1862 1.391 1_556 S
C1864 C1865 1.400 1_556 S
C1865 C1859 1.491 1_564 S
C1865 C1864 1.400 1_554 S
C1865 C1866 1.398 . S
C1866 H1854 0.950 . S
C1866 C1865 1.398 . S
C1866 C1867 1.391 . S
C1867 H1855 0.950 . S
C1867 C1863 1.393 . S
C1867 C1866 1.391 . S
H1868 C1876 0.950 . S
H1869 C1881 0.950 . S
H1870 C1878 0.950 . S
H1871 C1880 0.950 1_554 S
H1872 C1882 0.950 . S
H1873 C1884 0.950 . S
H1874 C1886 0.950 1_556 S
H1875 C1887 0.950 . S
C1876 H1868 0.950 . S
C1876 C1877 1.386 . S
C1876 C1878 1.391 . S
C1877 C1876 1.386 . S
C1877 C1881 1.393 . S
C1878 H1870 0.950 . S
C1878 C1876 1.391 . S
C1878 C1879 1.400 . S
C1879 C1878 1.400 . S
C1879 C1880 1.398 . S
C1879 C1885 1.491 1_656 S
C1880 H1871 0.950 1_556 S
C1880 C1879 1.398 . S
C1880 C1881 1.391 . S
C1881 H1869 0.950 . S
C1881 C1877 1.393 . S
C1881 C1880 1.391 . S
C1882 H1872 0.950 . S
C1882 C1883 1.386 . S
C1882 C1884 1.391 . S
C1883 C1882 1.386 . S
C1883 C1887 1.393 . S
C1884 H1873 0.950 . S
C1884 C1882 1.391 . S
C1884 C1885 1.400 . S
C1885 C1879 1.491 1_454 S
C1885 C1884 1.400 . S
C1885 C1886 1.398 . S
C1886 H1874 0.950 1_554 S
C1886 C1885 1.398 . S
C1886 C1887 1.391 . S
C1887 H1875 0.950 . S
C1887 C1883 1.393 . S
C1887 C1886 1.391 . S
H1888 C1896 0.950 . S
H1889 C1901 0.950 . S
H1890 C1898 0.950 1_554 S
H1891 C1900 0.950 . S
H1892 C1902 0.950 . S
H1893 C1904 0.950 1_556 S
H1894 C1906 0.950 . S
H1895 C1907 0.950 . S
C1896 H1888 0.950 . S
C1896 C1897 1.386 . S
C1896 C1898 1.391 . S
C1897 C1896 1.386 . S
C1897 C1901 1.393 . S
C1898 H1890 0.950 1_556 S
C1898 C1896 1.391 . S
C1898 C1899 1.400 . S
C1899 C1898 1.400 . S
C1899 C1900 1.398 . S
C1899 C1905 1.491 1_556 S
C1900 H1891 0.950 . S
C1900 C1899 1.398 . S
C1900 C1901 1.391 . S
C1901 H1889 0.950 . S
C1901 C1897 1.393 . S
C1901 C1900 1.391 . S
C1902 H1892 0.950 . S
C1902 C1903 1.386 . S
C1902 C1904 1.391 . S
C1903 C1902 1.386 . S
C1903 C1907 1.393 . S
C1904 H1893 0.950 1_554 S
C1904 C1902 1.391 . S
C1904 C1905 1.400 . S
C1905 C1899 1.491 1_554 S
C1905 C1904 1.400 . S
C1905 C1906 1.398 . S
C1906 H1894 0.950 . S
C1906 C1905 1.398 . S
C1906 C1907 1.391 . S
C1907 H1895 0.950 . S
C1907 C1903 1.393 . S
C1907 C1906 1.391 . S
C477 C10 1.094 . S
C483 C96 1.029 . S
C497 C23 1.098 . S
C503 C109 1.050 . S
C517 C83 1.052 . S
C523 C36 1.098 . S
C537 C148 1.029 . S
C543 C49 1.093 . S
C557 C62 1.097 . S
C563 C122 1.035 . S
C577 C75 1.097 . S
C583 C135 1.057 . S
C597 C18 1.070 . S
C603 C88 1.091 . S
C617 C31 1.069 . S
C623 C101 1.089 . S
C637 C114 1.097 . S
C643 C5 1.058 . S
C657 C127 1.098 . S
C663 C70 1.048 . S
C677 C44 1.056 . S
C683 C140 1.086 . S
C697 C153 1.091 . S
C703 C57 1.031 . S
C717 C252 1.057 . S
C723 C166 1.097 . S
C737 C179 1.090 . S
C743 C265 1.070 . S
C757 C192 1.098 . S
C763 C239 1.040 . S
C777 C304 1.050 . S
C783 C205 1.098 . S
C797 C218 1.091 . S
C803 C278 1.031 . S
C817 C291 1.058 . S
C823 C231 1.097 . S
C837 C174 1.043 . S
C843 C244 1.098 . S
C857 C257 1.096 . S
C863 C187 1.061 . S
C877 C161 1.054 . S
C883 C270 1.097 . S
C897 C283 1.095 . S
C903 C226 1.029 . S
C917 C296 1.087 . S
C923 C200 1.066 . S
C937 C309 1.086 . S
C943 C213 1.059 . S
C957 C408 1.037 . S
C963 C322 1.098 . S
C977 C421 1.039 . S
C983 C335 1.098 . S
C997 C395 1.036 . S
C1003 C348 1.088 . S
C1017 C361 1.086 . S
C1023 C460 1.061 . S
C1037 C374 1.093 . S
C1043 C434 1.068 . S
C1057 C447 1.044 . S
C1063 C387 1.087 . S
C1077 C400 1.089 . S
C1083 C330 1.069 . S
C1097 C343 1.030 . S
C1103 C413 1.096 . S
C1117 C317 1.036 . S
C1123 C426 1.097 . S
C1137 C439 1.089 . S
C1143 C382 1.036 . S
C1157 C452 1.093 . S
C1163 C356 1.029 . S
C1177 C465 1.093 . S
C1183 C369 1.029 . S
C1197 C47 1.275 . S
C1203 C8 1.268 . S
C1217 C60 1.264 . S
C1223 C21 1.268 . S
C1237 C34 1.265 . S
C1243 C73 1.270 . S
C1257 C125 1.265 . S
C1263 C86 1.264 . S
C1277 C138 1.265 . S
C1283 C99 1.264 . S
C1297 C151 1.269 . S
C1303 C112 1.265 . S
C1317 C203 1.269 . S
C1323 C164 1.277 . S
C1337 C216 1.264 . S
C1343 C177 1.265 . S
C1357 C190 1.264 . S
C1363 C229 1.268 . S
C1377 C281 1.276 1_554 S
C1383 C242 1.285 . S
C1397 C294 1.266 1_554 S
C1403 C255 1.264 . S
C1417 C307 1.278 1_554 S
C1423 C268 1.270 . S
C1437 C359 1.278 1_556 S
C1443 C320 1.287 . S
C1457 C333 1.272 . S
C1463 C372 1.266 1_556 S
C1477 C385 1.298 1_556 S
C1483 C346 1.289 . S
C1497 C398 1.276 . S
C1503 C437 1.268 . S
C1517 C411 1.296 . S
C1523 C450 1.302 . S
C1537 C424 1.301 . S
C1543 C463 1.294 . S
C1557 C0 1.408 . S
C1563 C234 1.408 . S
C1577 C247 1.420 . S
C1583 C13 1.420 . S
C1597 C260 1.416 . S
C1603 C26 1.416 . S
C1617 C429 1.408 . S
C1623 C39 1.408 . S
C1637 C442 1.408 . S
C1643 C52 1.408 . S
C1657 C455 1.425 . S
C1663 C65 1.425 . S
C1677 C78 1.426 . S
C1683 C312 1.426 . S
C1697 C325 1.427 . S
C1703 C91 1.427 . S
C1717 C338 1.429 . S
C1723 C104 1.429 . S
C1737 C117 1.428 . S
C1743 C195 1.428 . S
C1757 C130 1.426 . S
C1763 C208 1.426 . S
C1777 C143 1.407 . S
C1783 C221 1.407 . S
C1797 C390 1.415 . S
C1803 C156 1.415 . S
C1817 C403 1.423 . S
C1823 C169 1.423 . S
C1837 C182 1.408 . S
C1843 C416 1.408 . S
C1857 C273 1.427 . S
C1863 C351 1.427 . S
C1877 C286 1.414 . S
C1883 C364 1.414 . S
C1897 C299 1.421 . S
C1903 C377 1.421 . S
