# Generated by pormake.
# Topology lcy-e, (6)-cn, num edge types: 1
# Building blocks:
#     Node 0, Type 0, BuildingBlock: BETFAJ_clean_sbu_0, # of connection points: 6
#     Node 1, Type 0, BuildingBlock: BETFAJ_clean_sbu_0, # of connection points: 6
#     Node 2, Type 0, BuildingBlock: BETFAJ_clean_sbu_0, # of connection points: 6
#     Node 3, Type 0, BuildingBlock: BETFAJ_clean_sbu_0, # of connection points: 6
#     Node 4, Type 0, BuildingBlock: BETFAJ_clean_sbu_0, # of connection points: 6
#     Node 5, Type 0, BuildingBlock: BETFAJ_clean_sbu_0, # of connection points: 6
#     Node 6, Type 0, BuildingBlock: BETFAJ_clean_sbu_0, # of connection points: 6
#     Node 7, Type 0, BuildingBlock: BETFAJ_clean_sbu_0, # of connection points: 6
#     Node 8, Type 0, BuildingBlock: BETFAJ_clean_sbu_0, # of connection points: 6
#     Node 9, Type 0, BuildingBlock: BETFAJ_clean_sbu_0, # of connection points: 6
#     Node 10, Type 0, BuildingBlock: BETFAJ_clean_sbu_0, # of connection points: 6
#     Node 11, Type 0, BuildingBlock: BETFAJ_clean_sbu_0, # of connection points: 6
#     Edge 12, Type (0, 0), BuildingBlock: TEMPAE_clean_linker_10, # of connection points: 2
#     Edge 13, Type (0, 0), BuildingBlock: TEMPAE_clean_linker_10, # of connection points: 2
#     Edge 14, Type (0, 0), BuildingBlock: TEMPAE_clean_linker_10, # of connection points: 2
#     Edge 15, Type (0, 0), BuildingBlock: TEMPAE_clean_linker_10, # of connection points: 2
#     Edge 16, Type (0, 0), BuildingBlock: TEMPAE_clean_linker_10, # of connection points: 2
#     Edge 17, Type (0, 0), BuildingBlock: TEMPAE_clean_linker_10, # of connection points: 2
#     Edge 18, Type (0, 0), BuildingBlock: TEMPAE_clean_linker_10, # of connection points: 2
#     Edge 19, Type (0, 0), BuildingBlock: TEMPAE_clean_linker_10, # of connection points: 2
#     Edge 20, Type (0, 0), BuildingBlock: TEMPAE_clean_linker_10, # of connection points: 2
#     Edge 21, Type (0, 0), BuildingBlock: TEMPAE_clean_linker_10, # of connection points: 2
#     Edge 22, Type (0, 0), BuildingBlock: TEMPAE_clean_linker_10, # of connection points: 2
#     Edge 23, Type (0, 0), BuildingBlock: TEMPAE_clean_linker_10, # of connection points: 2
#     Edge 24, Type (0, 0), BuildingBlock: TEMPAE_clean_linker_10, # of connection points: 2
#     Edge 25, Type (0, 0), BuildingBlock: TEMPAE_clean_linker_10, # of connection points: 2
#     Edge 26, Type (0, 0), BuildingBlock: TEMPAE_clean_linker_10, # of connection points: 2
#     Edge 27, Type (0, 0), BuildingBlock: TEMPAE_clean_linker_10, # of connection points: 2
#     Edge 28, Type (0, 0), BuildingBlock: TEMPAE_clean_linker_10, # of connection points: 2
#     Edge 29, Type (0, 0), BuildingBlock: TEMPAE_clean_linker_10, # of connection points: 2
#     Edge 30, Type (0, 0), BuildingBlock: TEMPAE_clean_linker_10, # of connection points: 2
#     Edge 31, Type (0, 0), BuildingBlock: TEMPAE_clean_linker_10, # of connection points: 2
#     Edge 32, Type (0, 0), BuildingBlock: TEMPAE_clean_linker_10, # of connection points: 2
#     Edge 33, Type (0, 0), BuildingBlock: TEMPAE_clean_linker_10, # of connection points: 2
#     Edge 34, Type (0, 0), BuildingBlock: TEMPAE_clean_linker_10, # of connection points: 2
#     Edge 35, Type (0, 0), BuildingBlock: TEMPAE_clean_linker_10, # of connection points: 2
#     Edge 36, Type (0, 0), BuildingBlock: TEMPAE_clean_linker_10, # of connection points: 2
#     Edge 37, Type (0, 0), BuildingBlock: TEMPAE_clean_linker_10, # of connection points: 2
#     Edge 38, Type (0, 0), BuildingBlock: TEMPAE_clean_linker_10, # of connection points: 2
#     Edge 39, Type (0, 0), BuildingBlock: TEMPAE_clean_linker_10, # of connection points: 2
#     Edge 40, Type (0, 0), BuildingBlock: TEMPAE_clean_linker_10, # of connection points: 2
#     Edge 41, Type (0, 0), BuildingBlock: TEMPAE_clean_linker_10, # of connection points: 2
#     Edge 42, Type (0, 0), BuildingBlock: TEMPAE_clean_linker_10, # of connection points: 2
#     Edge 43, Type (0, 0), BuildingBlock: TEMPAE_clean_linker_10, # of connection points: 2
#     Edge 44, Type (0, 0), BuildingBlock: TEMPAE_clean_linker_10, # of connection points: 2
#     Edge 45, Type (0, 0), BuildingBlock: TEMPAE_clean_linker_10, # of connection points: 2
#     Edge 46, Type (0, 0), BuildingBlock: TEMPAE_clean_linker_10, # of connection points: 2
#     Edge 47, Type (0, 0), BuildingBlock: TEMPAE_clean_linker_10, # of connection points: 2
# Relax obj value: 0.202
# Max RMSD: 0.312
# Mean RMSD: 0.288
data_MOF--net-lcy-e--node1-BETFAJ_clean_sbu_0--edge1-TEMPAE_clean_linker_10
_symmetry_space_group_name_H-M    P1
_symmetry_Int_Tables_number       1
_symmetry_cell_setting            triclinic
loop_
_symmetry_equiv_pos_as_xyz
'x, y, z'
_cell_length_a     46.365809
_cell_length_b     42.340719
_cell_length_c     46.356168
_cell_angle_alpha  89.359725
_cell_angle_beta   90.967671
_cell_angle_gamma 88.301888
loop_
_atom_site_label
_atom_site_type_symbol
_atom_site_fract_x
_atom_site_fract_y
_atom_site_fract_z
_atom_type_partial_charge
Sm0 Sm 0.13995 0.26604 0.46702 0.0
Sm1 Sm 0.16122 0.21495 0.50952 0.0
C2 C 0.12617 0.31669 0.43506 0.0
C3 C 0.12987 0.32584 0.4046 0.0
C4 C 0.14718 0.30717 0.3865 0.0
C5 C 0.1532 0.3176 0.35851 0.0
C6 C 0.14205 0.34694 0.34809 0.0
C7 C 0.12398 0.36505 0.3661 0.0
C8 C 0.11802 0.35461 0.39409 0.0
C9 C 0.11743 0.207 0.45666 0.0
C10 C 0.19572 0.22241 0.45049 0.0
C11 C 0.17027 0.1654 0.5443 0.0
C12 C 0.15459 0.14206 0.56121 0.0
C13 C 0.12442 0.14378 0.56342 0.0
C14 C 0.11004 0.12035 0.57869 0.0
C15 C 0.12563 0.09476 0.59173 0.0
C16 C 0.15586 0.09346 0.58955 0.0
C17 C 0.17016 0.11688 0.57445 0.0
C18 C 0.1901 0.27174 0.51208 0.0
C19 C 0.10827 0.26024 0.52989 0.0
O20 O 0.15018 0.31341 0.45019 0.0
O21 O 0.10788 0.29443 0.44042 0.0
O22 O 0.12109 0.21935 0.48099 0.0
O23 O 0.12648 0.22581 0.4367 0.0
O24 O 0.18465 0.2515 0.44917 0.0
O25 O 0.18527 0.20144 0.46842 0.0
O26 O 0.16784 0.16333 0.5162 0.0
O27 O 0.1697 0.19459 0.55338 0.0
O28 O 0.16366 0.26785 0.50907 0.0
O29 O 0.20324 0.24439 0.5153 0.0
O30 O 0.12045 0.23184 0.53269 0.0
O31 O 0.11418 0.27933 0.50802 0.0
H32 H 0.15671 0.28495 0.39432 0.0
H33 H 0.16742 0.30319 0.34543 0.0
H34 H 0.11465 0.38749 0.35866 0.0
H35 H 0.10467 0.36936 0.40776 0.0
H36 H 0.11203 0.16299 0.55311 0.0
H37 H 0.08673 0.12192 0.57981 0.0
H38 H 0.16854 0.07439 0.59971 0.0
H39 H 0.19345 0.11517 0.57293 0.0
Sm40 Sm 0.98702 0.87611 0.73247 0.0
Sm41 Sm 0.04642 0.8777 0.7733 0.0
C42 C 0.93763 0.89152 0.70536 0.0
C43 C 0.92692 0.89991 0.67578 0.0
C44 C 0.91525 0.93044 0.67037 0.0
C45 C 0.90517 0.93943 0.64279 0.0
C46 C 0.9062 0.91802 0.61979 0.0
C47 C 0.918 0.8874 0.62521 0.0
C48 C 0.92828 0.87845 0.65287 0.0
C49 C 0.02815 0.83056 0.71713 0.0
C50 C 0.03976 0.92262 0.7137 0.0
C51 C 0.10081 0.87172 0.79162 0.0
C52 C 0.12287 0.85743 0.81166 0.0
C53 C 0.12568 0.82457 0.81623 0.0
C54 C 0.14936 0.8115 0.83197 0.0
C55 C 0.17076 0.83102 0.84331 0.0
C56 C 0.16724 0.86394 0.83948 0.0
C57 C 0.14364 0.87693 0.82382 0.0
C58 C 0.99916 0.91222 0.79159 0.0
C59 C 0.99279 0.83721 0.79541 0.0
O60 O 0.95439 0.91204 0.71743 0.0
O61 O 0.94582 0.86214 0.71116 0.0
O62 O 0.02912 0.85048 0.73684 0.0
O63 O 1.0037 0.8347 0.7033 0.0
O64 O 0.0143 0.91099 0.70703 0.0
O65 O 0.05493 0.91401 0.73715 0.0
O66 O 0.0893 0.85357 0.77211 0.0
O67 O 0.083 0.89385 0.80097 0.0
O68 O 1.00656 0.90807 0.76571 0.0
O69 O 0.01897 0.90035 0.80929 0.0
O70 O 0.0214 0.8378 0.79405 0.0
O71 O 0.97527 0.85199 0.7761 0.0
H72 H 0.91398 0.94752 0.68757 0.0
H73 H 0.89671 0.96333 0.63948 0.0
H74 H 0.91882 0.87009 0.6082 0.0
H75 H 0.93717 0.85473 0.65629 0.0
H76 H 0.11002 0.80894 0.80701 0.0
H77 H 0.15138 0.78606 0.83446 0.0
H78 H 0.18291 0.87976 0.84842 0.0
H79 H 0.14206 0.9023 0.82047 0.0
Sm80 Sm 0.38106 0.77055 0.02012 0.0
Sm81 Sm 0.39372 0.72354 0.96642 0.0
C82 C 0.38024 0.80251 0.06889 0.0
C83 C 0.3983 0.82183 0.08771 0.0
C84 C 0.42629 0.82997 0.07989 0.0
C85 C 0.44103 0.85291 0.09545 0.0
C86 C 0.42765 0.86846 0.11855 0.0
C87 C 0.4001 0.85933 0.12688 0.0
C88 C 0.38563 0.83612 0.11167 0.0
C89 C 0.33872 0.77845 0.97688 0.0
C90 C 0.43281 0.78781 0.97427 0.0
C91 C 0.39639 0.69915 0.91392 0.0
C92 C 0.37939 0.68582 0.88957 0.0
C93 C 0.36495 0.7057 0.86909 0.0
C94 C 0.35228 0.69321 0.84417 0.0
C95 C 0.35375 0.66051 0.83899 0.0
C96 C 0.36745 0.64059 0.85991 0.0
C97 C 0.38019 0.65309 0.88477 0.0
C98 C 0.42427 0.71124 0.01741 0.0
C99 C 0.34931 0.70245 0.01442 0.0
O100 O 0.38534 0.77186 0.06822 0.0
O101 O 0.37399 0.81501 0.04352 0.0
O102 O 0.36044 0.76006 0.97719 0.0
O103 O 0.33894 0.79406 1.00068 0.0
O104 O 0.41959 0.79472 0.99869 0.0
O105 O 0.42603 0.76314 0.95838 0.0
O106 O 0.39335 0.72948 0.91884 0.0
O107 O 0.4003 0.68216 0.9376 0.0
O108 O 0.41738 0.73797 1.00677 0.0
O109 O 0.41747 0.68919 0.9993 0.0
O110 O 0.35297 0.70397 0.9862 0.0
O111 O 0.36125 0.72265 0.03248 0.0
H112 H 0.43624 0.81947 0.06116 0.0
H113 H 0.46221 0.85964 0.08854 0.0
H114 H 0.38941 0.87081 0.14472 0.0
H115 H 0.36393 0.83041 0.11782 0.0
H116 H 0.36402 0.73107 0.8719 0.0
H117 H 0.34164 0.70924 0.82875 0.0
H118 H 0.3694 0.61536 0.85653 0.0
H119 H 0.3915 0.63713 0.8998 0.0
Sm120 Sm 0.54303 0.12061 0.23205 0.0
Sm121 Sm 0.49793 0.10578 0.27759 0.0
C122 C 0.58657 0.11757 0.19555 0.0
C123 C 0.59349 0.10519 0.16644 0.0
C124 C 0.59853 0.07265 0.16201 0.0
C125 C 0.60719 0.06147 0.13508 0.0
C126 C 0.611 0.08248 0.11182 0.0
C127 C 0.60536 0.11493 0.11607 0.0
C128 C 0.59686 0.12614 0.14308 0.0
C129 C 0.49302 0.15586 0.22433 0.0
C130 C 0.50276 0.05704 0.22469 0.0
C131 C 0.45419 0.1063 0.31412 0.0
C132 C 0.42964 0.12537 0.32564 0.0
C133 C 0.40721 0.13744 0.30752 0.0
C134 C 0.38251 0.15198 0.31912 0.0
C135 C 0.37944 0.15456 0.3492 0.0
C136 C 0.40232 0.1432 0.36723 0.0
C137 C 0.42707 0.12882 0.35558 0.0
C138 C 0.55246 0.07757 0.28747 0.0
C139 C 0.53724 0.16562 0.28735 0.0
O140 O 0.58284 0.09682 0.2162 0.0
O141 O 0.56876 0.14208 0.19702 0.0
O142 O 0.49377 0.12686 0.23205 0.0
O143 O 0.51858 0.16569 0.21859 0.0
O144 O 0.52428 0.07394 0.21527 0.0
O145 O 0.48811 0.065 0.24771 0.0
O146 O 0.45226 0.09689 0.2874 0.0
O147 O 0.48046 0.11351 0.32176 0.0
O148 O 0.54651 0.1047 0.27789 0.0
O149 O 0.52875 0.06434 0.29498 0.0
O150 O 0.5101 0.15719 0.28584 0.0
O151 O 0.5566 0.15149 0.2707 0.0
H152 H 0.59624 0.05574 0.17947 0.0
H153 H 0.61106 0.03631 0.1325 0.0
H154 H 0.60842 0.13182 0.09875 0.0
H155 H 0.59346 0.15135 0.14583 0.0
H156 H 0.40835 0.13487 0.2844 0.0
H157 H 0.36564 0.16083 0.30447 0.0
H158 H 0.40071 0.14426 0.39047 0.0
H159 H 0.44383 0.11939 0.37009 0.0
Sm160 Sm 0.636 0.23256 0.54498 0.0
Sm161 Sm 0.64297 0.29664 0.51309 0.0
C162 C 0.64107 0.17802 0.57405 0.0
C163 C 0.65101 0.16567 0.60258 0.0
C164 C 0.66986 0.1825 0.62034 0.0
C165 C 0.6789 0.17011 0.64735 0.0
C166 C 0.66914 0.14072 0.65716 0.0
C167 C 0.65027 0.12407 0.63915 0.0
C168 C 0.64132 0.13642 0.61223 0.0
C169 C 0.59395 0.27739 0.5559 0.0
C170 C 0.68131 0.28541 0.57056 0.0
C171 C 0.63418 0.354 0.49026 0.0
C172 C 0.62469 0.37553 0.46637 0.0
C173 C 0.60003 0.37016 0.44927 0.0
C174 C 0.5897 0.39325 0.42934 0.0
C175 C 0.60367 0.4222 0.42642 0.0
C176 C 0.62883 0.42691 0.443 0.0
C177 C 0.63919 0.40385 0.46269 0.0
C178 C 0.68247 0.24902 0.49932 0.0
C179 C 0.60445 0.24221 0.48169 0.0
O180 O 0.66073 0.18835 0.55674 0.0
O181 O 0.61757 0.19582 0.57348 0.0
O182 O 0.6206 0.283 0.55432 0.0
O183 O 0.58933 0.24756 0.5529 0.0
O184 O 0.67453 0.25529 0.56909 0.0
O185 O 0.66808 0.30718 0.55425 0.0
O186 O 0.61452 0.33872 0.50421 0.0
O187 O 0.65881 0.33825 0.48848 0.0
O188 O 0.65617 0.24625 0.50386 0.0
O189 O 0.68867 0.27876 0.49817 0.0
O190 O 0.60851 0.27277 0.48505 0.0
O191 O 0.616 0.2209 0.50015 0.0
H192 H 0.67752 0.20522 0.61336 0.0
H193 H 0.69325 0.18371 0.66068 0.0
H194 H 0.64269 0.10116 0.64566 0.0
H195 H 0.62685 0.12301 0.59884 0.0
H196 H 0.58836 0.34853 0.45182 0.0
H197 H 0.57024 0.38889 0.41694 0.0
H198 H 0.64043 0.44863 0.44095 0.0
H199 H 0.65817 0.40857 0.47572 0.0
Sm200 Sm 0.98935 0.37666 0.72849 0.0
Sm201 Sm 0.03516 0.35545 0.77887 0.0
C202 C 0.95795 0.37528 0.68044 0.0
C203 C 0.92752 0.36974 0.67284 0.0
C204 C 0.9169 0.37734 0.64509 0.0
C205 C 0.88905 0.36894 0.63663 0.0
C206 C 0.87132 0.35251 0.65572 0.0
C207 C 0.88184 0.34577 0.68387 0.0
C208 C 0.90963 0.35436 0.69234 0.0
C209 C 0.97577 0.40725 0.77932 0.0
C210 C 0.97521 0.31819 0.77402 0.0
C211 C 0.07038 0.34986 0.82434 0.0
C212 C 0.08064 0.36631 0.85028 0.0
C213 C 0.09206 0.39667 0.84898 0.0
C214 C 0.10301 0.41059 0.87403 0.0
C215 C 0.10256 0.39446 0.90075 0.0
C216 C 0.09059 0.36437 0.90192 0.0
C217 C 0.07983 0.35047 0.87697 0.0
C218 C 0.04072 0.32605 0.72587 0.0
C219 C 0.04873 0.41575 0.73813 0.0
O220 O 0.97222 0.35061 0.69132 0.0
O221 O 0.96372 0.40175 0.6936 0.0
O222 O 0.99604 0.3874 0.7754 0.0
O223 O 0.96123 0.41133 0.7553 0.0
O224 O 0.97077 0.3311 0.74811 0.0
O225 O 0.99635 0.32676 0.79136 0.0
O226 O 0.0436 0.34091 0.8244 0.0
O227 O 0.07871 0.35974 0.799 0.0
O228 O 0.03354 0.35415 0.73061 0.0
O229 O 0.04808 0.31212 0.75014 0.0
O230 O 0.04878 0.40505 0.76508 0.0
O231 O 0.02959 0.40616 0.71859 0.0
H232 H 0.93039 0.38915 0.62973 0.0
H233 H 0.88151 0.37508 0.61499 0.0
H234 H 0.86901 0.33291 0.69908 0.0
H235 H 0.91748 0.34814 0.71387 0.0
H236 H 0.09281 0.40947 0.82866 0.0
H237 H 0.11188 0.43391 0.8725 0.0
H238 H 0.09029 0.35111 0.92203 0.0
H239 H 0.07125 0.32698 0.87844 0.0
Sm240 Sm 0.87406 0.75726 0.04182 0.0
Sm241 Sm 0.87277 0.69494 1.00079 0.0
C242 C 0.86187 0.81083 0.06876 0.0
C243 C 0.86133 0.82293 0.09849 0.0
C244 C 0.85717 0.80252 0.12207 0.0
C245 C 0.85287 0.81467 0.14969 0.0
C246 C 0.85274 0.84749 0.15435 0.0
C247 C 0.85806 0.86769 0.13078 0.0
C248 C 0.8622 0.85552 0.10314 0.0
C249 C 0.91536 0.71207 0.06009 0.0
C250 C 0.827 0.70152 0.05504 0.0
C251 C 0.87923 0.63659 0.98099 0.0
C252 C 0.89704 0.61512 0.96292 0.0
C253 C 0.91116 0.58861 0.97585 0.0
C254 C 0.92531 0.56587 0.95905 0.0
C255 C 0.92566 0.569 0.92882 0.0
C256 C 0.91236 0.59614 0.91595 0.0
C257 C 0.89816 0.6189 0.93279 0.0
C258 C 0.84316 0.74828 0.97996 0.0
C259 C 0.91207 0.75242 0.98202 0.0
O260 O 0.84283 0.78956 0.06286 0.0
O261 O 0.88709 0.80467 0.05735 0.0
O262 O 0.89758 0.71064 0.03941 0.0
O263 O 0.91081 0.73866 0.0731 0.0
O264 O 0.83877 0.7282 0.06321 0.0
O265 O 0.8359 0.68535 0.03235 0.0
O266 O 0.89051 0.64575 1.0055 0.0
O267 O 0.86278 0.65848 0.96824 0.0
O268 O 0.84562 0.73932 1.00606 0.0
O269 O 0.85423 0.7267 0.9632 0.0
O270 O 0.91168 0.72121 0.98448 0.0
O271 O 0.89709 0.77141 0.99942 0.0
H272 H 0.85628 0.77724 0.11894 0.0
H273 H 0.84859 0.79838 0.16717 0.0
H274 H 0.85868 0.89302 0.1336 0.0
H275 H 0.86531 0.87166 0.08523 0.0
H276 H 0.91058 0.58501 0.99901 0.0
H277 H 0.93562 0.54554 0.96975 0.0
H278 H 0.91192 0.59921 0.89272 0.0
H279 H 0.88741 0.63896 0.92209 0.0
Sm280 Sm 0.53056 0.6262 0.23225 0.0
Sm281 Sm 0.49076 0.64453 0.28147 0.0
C282 C 0.55913 0.61248 0.18445 0.0
C283 C 0.58738 0.62045 0.17242 0.0
C284 C 0.59084 0.62139 0.14243 0.0
C285 C 0.61723 0.62969 0.13063 0.0
C286 C 0.64078 0.63724 0.1486 0.0
C287 C 0.63719 0.63626 0.17871 0.0
C288 C 0.61073 0.62808 0.19049 0.0
C289 C 0.5438 0.59642 0.28439 0.0
C290 C 0.55001 0.68529 0.27135 0.0
C291 C 0.46766 0.65493 0.33272 0.0
C292 C 0.45382 0.6387 0.35696 0.0
C293 C 0.44743 0.60649 0.35602 0.0
C294 C 0.43464 0.59177 0.37972 0.0
C295 C 0.42823 0.60896 0.40482 0.0
C296 C 0.43476 0.64121 0.40547 0.0
C297 C 0.44739 0.65585 0.38183 0.0
C298 C 0.4763 0.67299 0.22889 0.0
C299 C 0.46836 0.59137 0.24078 0.0
O300 O 0.5402 0.63576 0.18612 0.0
O301 O 0.55945 0.59412 0.20731 0.0
O302 O 0.51871 0.60096 0.2739 0.0
O303 O 0.56286 0.60779 0.26726 0.0
O304 O 0.55398 0.67078 0.24657 0.0
O305 O 0.529 0.67749 0.28877 0.0
O306 O 0.49512 0.64844 0.32908 0.0
O307 O 0.45304 0.65776 0.30837 0.0
O308 O 0.50147 0.66856 0.23923 0.0
O309 O 0.45738 0.66489 0.24774 0.0
O310 O 0.47109 0.59843 0.26823 0.0
O311 O 0.48675 0.60225 0.22167 0.0
H312 H 0.57306 0.61577 0.1281 0.0
H313 H 0.61927 0.6299 0.10739 0.0
H314 H 0.65469 0.64235 0.19318 0.0
H315 H 0.60844 0.62794 0.21371 0.0
H316 H 0.45241 0.59278 0.33705 0.0
H317 H 0.43011 0.56687 0.37855 0.0
H318 H 0.42973 0.65533 0.42417 0.0
H319 H 0.45215 0.68071 0.38298 0.0
Sm320 Sm 0.21833 0.50648 0.13699 0.0
Sm321 Sm 0.25941 0.44831 0.12673 0.0
C322 C 0.18748 0.56009 0.13995 0.0
C323 C 0.15798 0.57186 0.13101 0.0
C324 C 0.15341 0.58591 0.10357 0.0
C325 C 0.12605 0.59745 0.09477 0.0
C326 C 0.10236 0.59567 0.11321 0.0
C327 C 0.10684 0.58155 0.14067 0.0
C328 C 0.13432 0.56985 0.14949 0.0
C329 C 0.20209 0.45041 0.16281 0.0
C330 C 0.20463 0.46035 0.08362 0.0
C331 C 0.28915 0.39376 0.12873 0.0
C332 C 0.30472 0.3692 0.14665 0.0
C333 C 0.29348 0.33879 0.14856 0.0
C334 C 0.30954 0.31383 0.16158 0.0
C335 C 0.33736 0.31858 0.17298 0.0
C336 C 0.34814 0.34934 0.17216 0.0
C337 C 0.33205 0.37435 0.15906 0.0
C338 C 0.26828 0.50066 0.09176 0.0
C339 C 0.28016 0.49969 0.17398 0.0
O340 O 0.20497 0.5532 0.11892 0.0
O341 O 0.19025 0.54008 0.16176 0.0
O342 O 0.22737 0.4603 0.16149 0.0
O343 O 0.1843 0.47042 0.15002 0.0
O344 O 0.20432 0.49001 0.09201 0.0
O345 O 0.22022 0.43832 0.09759 0.0
O346 O 0.26096 0.39588 0.13033 0.0
O347 O 0.30108 0.42112 0.12465 0.0
O348 O 0.26177 0.50021 0.11781 0.0
O349 O 0.2727 0.47187 0.08302 0.0
O350 O 0.28239 0.47005 0.16541 0.0
O351 O 0.25836 0.51888 0.16534 0.0
H352 H 0.17107 0.58811 0.08874 0.0
H353 H 0.12348 0.60771 0.07334 0.0
H354 H 0.08923 0.58012 0.15563 0.0
H355 H 0.13704 0.55945 0.17085 0.0
H356 H 0.27258 0.334 0.13903 0.0
H357 H 0.30038 0.2906 0.16217 0.0
H358 H 0.36958 0.35383 0.18047 0.0
H359 H 0.34148 0.39742 0.1578 0.0
Sm360 Sm 0.73194 0.96749 0.87749 0.0
Sm361 Sm 0.76732 0.02653 0.88871 0.0
C362 C 0.69675 0.91915 0.87692 0.0
C363 C 0.67234 0.90715 0.89357 0.0
C364 C 0.66676 0.87479 0.89354 0.0
C365 C 0.64158 0.86356 0.90588 0.0
C366 C 0.62139 0.88455 0.91844 0.0
C367 C 0.62768 0.91684 0.91944 0.0
C368 C 0.65287 0.92801 0.90714 0.0
C369 C 0.72964 0.01192 0.83361 0.0
C370 C 0.7102 0.01844 0.92773 0.0
C371 C 0.78738 0.08456 0.88901 0.0
C372 C 0.81007 0.10448 0.87726 0.0
C373 C 0.82073 0.09992 0.84937 0.0
C374 C 0.83937 0.1217 0.83726 0.0
C375 C 0.84766 0.14844 0.85281 0.0
C376 C 0.83778 0.15211 0.88116 0.0
C377 C 0.81915 0.1304 0.8932 0.0
C378 C 0.78609 0.97278 0.91883 0.0
C379 C 0.79574 0.97197 0.84995 0.0
O380 O 0.72261 0.91726 0.88877 0.0
O381 O 0.69166 0.94571 0.86284 0.0
O382 O 0.7282 0.01801 0.86023 0.0
O383 O 0.73246 0.98176 0.82965 0.0
O384 O 0.7053 0.992 0.91363 0.0
O385 O 0.73248 0.03588 0.92195 0.0
O386 O 0.76796 0.07494 0.87057 0.0
O387 O 0.79474 0.06325 0.90868 0.0
O388 O 0.7602 0.98185 0.91435 0.0
O389 O 0.80353 0.99362 0.90874 0.0
O390 O 0.79112 1.00286 0.85159 0.0
O391 O 0.77737 0.95186 0.86116 0.0
H392 H 0.68137 0.85829 0.88305 0.0
H393 H 0.63736 0.8386 0.90448 0.0
H394 H 0.61288 0.9336 0.92933 0.0
H395 H 0.65664 0.95312 0.9074 0.0
H396 H 0.81394 0.08008 0.83662 0.0
H397 H 0.84643 0.11819 0.81535 0.0
H398 H 0.84417 0.17204 0.89398 0.0
H399 H 0.81116 0.13436 0.91473 0.0
Sm400 Sm 0.7546 0.97423 0.3913 0.0
Sm401 Sm 0.81019 0.01771 0.38103 0.0
C402 C 0.70379 0.94707 0.38711 0.0
C403 C 0.6898 0.92126 0.37113 0.0
C404 C 0.68399 0.92301 0.34124 0.0
C405 C 0.67094 0.89783 0.32703 0.0
C406 C 0.66365 0.87037 0.34238 0.0
C407 C 0.66926 0.86896 0.37227 0.0
C408 C 0.68202 0.89408 0.38642 0.0
C409 C 0.79678 0.96176 0.43363 0.0
C410 C 0.80229 0.95179 0.34292 0.0
C411 C 0.86322 0.03905 0.37612 0.0
C412 C 0.88882 0.05371 0.38927 0.0
C413 C 0.8867 0.0773 0.41026 0.0
C414 C 0.91166 0.0918 0.42071 0.0
C415 C 0.93919 0.08299 0.41035 0.0
C416 C 0.941 0.059 0.38963 0.0
C417 C 0.91617 0.04457 0.3793 0.0
C418 C 0.76012 0.03242 0.34999 0.0
C419 C 0.76278 0.04232 0.4251 0.0
O420 O 0.70961 0.97324 0.37329 0.0
O421 O 0.7241 0.93822 0.40562 0.0
O422 O 0.79776 0.98116 0.41293 0.0
O423 O 0.77255 0.94737 0.43198 0.0
O424 O 0.77803 0.94533 0.35628 0.0
O425 O 0.81735 0.97718 0.34873 0.0
O426 O 0.85788 0.00988 0.3835 0.0
O427 O 0.83985 0.05661 0.37114 0.0
O428 O 0.77047 0.00529 0.35586 0.0
O429 O 0.77752 0.05384 0.35924 0.0
O430 O 0.79096 0.03888 0.42158 0.0
O431 O 0.74414 0.02267 0.41318 0.0
H432 H 0.68964 0.94367 0.32882 0.0
H433 H 0.66694 0.89966 0.30398 0.0
H434 H 0.6634 0.84851 0.38489 0.0
H435 H 0.68588 0.89219 0.40951 0.0
H436 H 0.86582 0.08472 0.41835 0.0
H437 H 0.90938 0.1099 0.43689 0.0
H438 H 0.96158 0.05188 0.38069 0.0
H439 H 0.91832 0.02657 0.36297 0.0
Sm440 Sm 0.29825 0.48272 0.62935 0.0
Sm441 Sm 0.25589 0.54123 0.61148 0.0
C442 C 0.3273 0.42834 0.62635 0.0
C443 C 0.35756 0.4181 0.62106 0.0
C444 C 0.36353 0.39891 0.59728 0.0
C445 C 0.39195 0.39015 0.59071 0.0
C446 C 0.41513 0.40019 0.60792 0.0
C447 C 0.40916 0.4191 0.632 0.0
C448 C 0.38066 0.42814 0.63842 0.0
C449 C 0.31275 0.53487 0.6615 0.0
C450 C 0.31529 0.5332 0.5764 0.0
C451 C 0.2212 0.59207 0.60924 0.0
C452 C 0.20315 0.61318 0.62735 0.0
C453 C 0.21557 0.63468 0.64651 0.0
C454 C 0.19821 0.65681 0.66097 0.0
C455 C 0.16808 0.65791 0.65662 0.0
C456 C 0.15568 0.63573 0.63816 0.0
C457 C 0.17302 0.61373 0.62363 0.0
C458 C 0.25047 0.48526 0.58153 0.0
C459 C 0.2374 0.49362 0.66364 0.0
O460 O 0.31353 0.44157 0.60419 0.0
O461 O 0.32147 0.44204 0.65097 0.0
O462 O 0.29322 0.53361 0.6423 0.0
O463 O 0.32627 0.50762 0.66348 0.0
O464 O 0.31916 0.50489 0.58873 0.0
O465 O 0.29448 0.55316 0.58407 0.0
O466 O 0.24933 0.59327 0.61222 0.0
O467 O 0.2122 0.56346 0.60472 0.0
O468 O 0.25505 0.48865 0.60796 0.0
O469 O 0.24696 0.51285 0.56908 0.0
O470 O 0.23732 0.52319 0.65408 0.0
O471 O 0.257 0.47221 0.65519 0.0
H472 H 0.34614 0.39084 0.58356 0.0
H473 H 0.39576 0.37513 0.57232 0.0
H474 H 0.42656 0.42726 0.64561 0.0
H475 H 0.37678 0.44318 0.65678 0.0
H476 H 0.23873 0.63496 0.64987 0.0
H477 H 0.2084 0.67334 0.67529 0.0
H478 H 0.13261 0.63616 0.63402 0.0
H479 H 0.16287 0.59771 0.60878 0.0
C480 C 0.23178 0.30769 0.5215 0.0
C481 C 0.20205 0.30312 0.51861 0.0
C482 C 0.24234 0.33756 0.52892 0.0
C483 C 0.22268 0.36313 0.53418 0.0
C484 C 0.1927 0.35858 0.5308 0.0
C485 C 0.18285 0.32889 0.52273 0.0
C486 C 0.27448 0.34159 0.53173 0.0
C487 C 0.17081 0.38472 0.53688 0.0
C488 C 0.24227 0.42764 0.58679 0.0
C489 C 0.2454 0.45394 0.56852 0.0
C490 C 0.23577 0.39788 0.57582 0.0
C491 C 0.2329 0.39389 0.54563 0.0
C492 C 0.23718 0.42007 0.52693 0.0
C493 C 0.24307 0.44992 0.53861 0.0
C494 C 0.23074 0.37103 0.59671 0.0
C495 C 0.23488 0.4167 0.49462 0.0
H496 H 0.24672 0.28796 0.51812 0.0
H497 H 0.15983 0.32565 0.52047 0.0
H498 H 0.28092 0.36265 0.5192 0.0
H499 H 0.28046 0.34564 0.55463 0.0
H500 H 0.28693 0.32056 0.52411 0.0
H501 H 0.14831 0.37761 0.5324 0.0
H502 H 0.1726 0.3916 0.55986 0.0
H503 H 0.17516 0.40594 0.52361 0.0
H504 H 0.24404 0.43048 0.60996 0.0
H505 H 0.24571 0.47009 0.52439 0.0
H506 H 0.24486 0.35032 0.5916 0.0
H507 H 0.20807 0.36353 0.5946 0.0
H508 H 0.23489 0.37768 0.61949 0.0
H509 H 0.24821 0.39608 0.48758 0.0
H510 H 0.24189 0.43816 0.483 0.0
H511 H 0.2122 0.4123 0.48824 0.0
C512 C 0.84767 0.98175 0.8423 0.0
C513 C 0.82465 0.96101 0.84011 0.0
C514 C 0.87579 0.97238 0.835 0.0
C515 C 0.8812 0.94166 0.82434 0.0
C516 C 0.85813 0.92047 0.82192 0.0
C517 C 0.83013 0.93024 0.83028 0.0
C518 C 0.89983 0.99533 0.83916 0.0
C519 C 0.863 0.8877 0.81018 0.0
C520 C 0.95002 0.93583 0.78099 0.0
C521 C 0.96929 0.92045 0.80038 0.0
C522 C 0.92088 0.94106 0.78784 0.0
C523 C 0.91109 0.93235 0.81552 0.0
C524 C 0.93077 0.91775 0.83565 0.0
C525 C 0.95952 0.91152 0.82767 0.0
C526 C 0.90064 0.95624 0.76553 0.0
C527 C 0.92163 0.90906 0.86574 0.0
H528 H 0.84393 0.00535 0.85055 0.0
H529 H 0.81252 0.91403 0.82878 0.0
H530 H 0.91713 0.98448 0.85321 0.0
H531 H 0.9096 1.00095 0.81812 0.0
H532 H 0.89223 0.0178 0.84904 0.0
H533 H 0.84288 0.87412 0.80947 0.0
H534 H 0.87169 0.88927 0.78805 0.0
H535 H 0.87931 0.87445 0.82366 0.0
H536 H 0.95786 0.94412 0.76051 0.0
H537 H 0.97432 0.89956 0.84281 0.0
H538 H 0.89357 0.9801 0.7727 0.0
H539 H 0.88103 0.94205 0.76301 0.0
H540 H 0.9109 0.9586 0.74415 0.0
H541 H 0.91034 0.92941 0.87597 0.0
H542 H 0.9403 0.90147 0.87972 0.0
H543 H 0.90628 0.88951 0.86472 0.0
C544 C 0.34762 0.65779 0.04965 0.0
C545 C 0.33513 0.67441 0.02607 0.0
C546 C 0.33684 0.6287 0.05869 0.0
C547 C 0.31233 0.61653 0.04442 0.0
C548 C 0.29917 0.63376 0.02108 0.0
C549 C 0.31112 0.66218 0.0118 0.0
C550 C 0.35203 0.61076 0.08317 0.0
C551 C 0.27235 0.62231 1.00608 0.0
C552 C 0.29621 0.52902 0.0537 0.0
C553 C 0.27783 0.52987 0.07737 0.0
C554 C 0.30765 0.55707 0.04259 0.0
C555 C 0.29968 0.58658 0.05487 0.0
C556 C 0.28023 0.58747 0.07801 0.0
C557 C 0.2702 0.55914 0.08937 0.0
C558 C 0.3291 0.55505 0.01852 0.0
C559 C 0.27041 0.61832 0.09127 0.0
H560 H 0.36662 0.6669 0.06027 0.0
H561 H 0.3016 0.67499 0.99343 0.0
H562 H 0.33741 0.60875 0.10174 0.0
H563 H 0.35783 0.58639 0.07631 0.0
H564 H 0.37197 0.62239 0.09058 0.0
H565 H 0.26438 0.63884 0.98874 0.0
H566 H 0.27674 0.59882 0.99649 0.0
H567 H 0.25496 0.61945 0.02199 0.0
H568 H 0.30257 0.50641 0.04467 0.0
H569 H 0.25674 0.55994 0.10817 0.0
H570 H 0.35004 0.56434 0.02601 0.0
H571 H 0.32152 0.56995 0.99992 0.0
H572 H 0.33274 0.53045 0.01103 0.0
H573 H 0.28878 0.62907 0.10277 0.0
H574 H 0.25275 0.61514 0.10685 0.0
H575 H 0.26275 0.6353 0.0742 0.0
C576 C 0.58818 0.04425 0.31751 0.0
C577 C 0.58239 0.06763 0.29635 0.0
C578 C 0.61674 0.03742 0.32737 0.0
C579 C 0.64003 0.05376 0.31522 0.0
C580 C 0.6342 0.07671 0.2933 0.0
C581 C 0.60557 0.08372 0.28462 0.0
C582 C 0.62193 0.01344 0.35136 0.0
C583 C 0.65822 0.09413 0.27906 0.0
C584 C 0.71294 0.06244 0.35352 0.0
C585 C 0.72965 0.03839 0.34088 0.0
C586 C 0.68341 0.06676 0.34639 0.0
C587 C 0.67056 0.04731 0.32529 0.0
C588 C 0.68756 0.02313 0.31235 0.0
C589 C 0.71674 0.01864 0.32068 0.0
C590 C 0.66598 0.09213 0.36148 0.0
C591 C 0.67514 1.00246 0.2892 0.0
H592 H 0.57037 0.03205 0.32699 0.0
H593 H 0.60133 0.10219 0.26865 0.0
H594 H 0.63707 0.99438 0.34432 0.0
H595 H 0.63219 0.02493 0.37016 0.0
H596 H 0.60165 1.00262 0.35843 0.0
H597 H 0.65024 0.10947 0.26085 0.0
H598 H 0.66919 0.1091 0.29509 0.0
H599 H 0.67462 0.07704 0.2708 0.0
H600 H 0.72277 0.07734 0.36958 0.0
H601 H 0.72964 0.99987 0.31109 0.0
H602 H 0.64602 0.08216 0.37024 0.0
H603 H 0.6593 0.11108 0.34584 0.0
H604 H 0.67831 0.10288 0.37944 0.0
H605 H 0.65641 0.98975 0.29759 0.0
H606 H 0.69122 0.98478 0.28125 0.0
H607 H 0.6672 0.01734 0.27069 0.0
C608 C 0.70426 0.21712 0.45994 0.0
C609 C 0.70055 0.2222 0.48945 0.0
C610 C 0.71539 0.18797 0.44999 0.0
C611 C 0.72229 0.16319 0.47004 0.0
C612 C 0.71933 0.16875 0.49995 0.0
C613 C 0.70886 0.19834 0.50924 0.0
C614 C 0.71882 0.18334 0.41798 0.0
C615 C 0.72601 0.14303 0.52209 0.0
C616 C 0.72245 0.07865 0.4419 0.0
C617 C 0.75208 0.07178 0.43926 0.0
C618 C 0.71243 0.10809 0.4523 0.0
C619 C 0.73248 0.13145 0.45981 0.0
C620 C 0.76237 0.1245 0.45749 0.0
C621 C 0.77177 0.09479 0.44756 0.0
C622 C 0.68036 0.11437 0.45484 0.0
C623 C 0.78448 0.14884 0.46469 0.0
H624 H 0.69729 0.23544 0.44462 0.0
H625 H 0.70627 0.20257 0.53204 0.0
H626 H 0.74094 0.17422 0.41342 0.0
H627 H 0.70355 0.16549 0.41024 0.0
H628 H 0.71471 0.2056 0.40548 0.0
H629 H 0.72269 0.15123 0.54451 0.0
H630 H 0.71195 0.12271 0.5181 0.0
H631 H 0.74866 0.13427 0.52016 0.0
H632 H 0.70701 0.06126 0.43537 0.0
H633 H 0.79473 0.09005 0.44547 0.0
H634 H 0.6733 0.13386 0.43992 0.0
H635 H 0.67524 0.12201 0.47705 0.0
H636 H 0.66769 0.09323 0.4497 0.0
H637 H 0.78078 0.1701 0.45075 0.0
H638 H 0.80695 0.13976 0.4617 0.0
H639 H 0.7822 0.15647 0.48736 0.0
C640 C 0.07965 0.43872 0.69948 0.0
C641 C 0.07442 0.43335 0.72883 0.0
C642 C 0.10637 0.44984 0.6903 0.0
C643 C 0.1285 0.45558 0.71092 0.0
C644 C 0.12292 0.45148 0.74062 0.0
C645 C 0.09598 0.44064 0.7492 0.0
C646 C 0.11128 0.45436 0.65843 0.0
C647 C 0.14583 0.45724 0.76335 0.0
C648 C 0.20594 0.45162 0.68407 0.0
C649 C 0.21165 0.48369 0.67989 0.0
C650 C 0.17925 0.44215 0.69481 0.0
C651 C 0.15765 0.46527 0.7014 0.0
C652 C 0.16372 0.49767 0.6983 0.0
C653 C 0.1906 0.50646 0.68777 0.0
C654 C 0.17379 0.40735 0.69818 0.0
C655 C 0.14138 0.52312 0.70497 0.0
H656 H 0.06332 0.43305 0.68352 0.0
H657 H 0.09233 0.43665 0.77196 0.0
H658 H 0.11899 0.47848 0.65406 0.0
H659 H 0.1283 0.43737 0.65127 0.0
H660 H 0.09141 0.4508 0.64529 0.0
H661 H 0.13771 0.45423 0.7856 0.0
H662 H 0.16441 0.44051 0.76045 0.0
H663 H 0.15403 0.48146 0.761 0.0
H664 H 0.22188 0.43381 0.67792 0.0
H665 H 0.19465 0.53134 0.68473 0.0
H666 H 0.15625 0.40062 0.68309 0.0
H667 H 0.16655 0.4021 0.72037 0.0
H668 H 0.1933 0.39241 0.69378 0.0
H669 H 0.12241 0.52102 0.69027 0.0
H670 H 0.14985 0.54725 0.70254 0.0
H671 H 0.13365 0.52015 0.72732 0.0
C672 C 0.77432 0.91824 0.93544 0.0
C673 C 0.79511 0.94014 0.92799 0.0
C674 C 0.78211 0.8866 0.94207 0.0
C675 C 0.81161 0.87678 0.94255 0.0
C676 C 0.83282 0.89898 0.9356 0.0
C677 C 0.82428 0.93028 0.92806 0.0
C678 C 0.75866 0.86366 0.94845 0.0
C679 C 0.86455 0.88981 0.93648 0.0
C680 C 0.82996 0.80483 0.99019 0.0
C681 C 0.83451 0.78087 0.97009 0.0
C682 C 0.82346 0.83618 0.98152 0.0
C683 C 0.8202 0.84374 0.95179 0.0
C684 C 0.82426 0.81951 0.93121 0.0
C685 C 0.83181 0.78848 0.9406 0.0
C686 C 0.82035 0.86127 1.00426 0.0
C687 C 0.82028 0.82625 0.89933 0.0
H688 H 0.75182 0.92581 0.93586 0.0
H689 H 0.84048 0.94705 0.92227 0.0
H690 H 0.76119 0.84243 0.93478 0.0
H691 H 0.76045 0.8556 0.97127 0.0
H692 H 0.73671 0.87429 0.9446 0.0
H693 H 0.87834 0.90981 0.93055 0.0
H694 H 0.87091 0.88126 0.95847 0.0
H695 H 0.86895 0.87011 0.92148 0.0
H696 H 0.83187 0.79914 0.01279 0.0
H697 H 0.83532 0.77011 0.92484 0.0
H698 H 0.79809 0.87162 1.00365 0.0
H699 H 0.83524 0.88072 0.99981 0.0
H700 H 0.82504 0.85184 0.02636 0.0
H701 H 0.79856 0.83717 0.89497 0.0
H702 H 0.82269 0.80455 0.88622 0.0
H703 H 0.83635 0.84338 0.89207 0.0
C704 C 0.43453 0.57185 0.20221 0.0
C705 C 0.44187 0.575 0.2315 0.0
C706 C 0.40776 0.55973 0.19367 0.0
C707 C 0.38778 0.55082 0.21492 0.0
C708 C 0.39524 0.55363 0.24446 0.0
C709 C 0.42217 0.56541 0.25235 0.0
C710 C 0.40072 0.55677 0.16192 0.0
C711 C 0.37452 0.54478 0.26782 0.0
C712 C 0.3085 0.54541 0.19235 0.0
C713 C 0.3059 0.51274 0.18874 0.0
C714 C 0.33488 0.55815 0.20129 0.0
C715 C 0.35932 0.5378 0.20642 0.0
C716 C 0.35656 0.50478 0.20372 0.0
C717 C 0.32992 0.49269 0.19523 0.0
C718 C 0.33681 0.59347 0.20449 0.0
C719 C 0.38204 0.48223 0.20882 0.0
H720 H 0.44942 0.57946 0.18593 0.0
H721 H 0.42744 0.56781 0.27508 0.0
H722 H 0.39565 0.53195 0.15693 0.0
H723 H 0.38129 0.57159 0.15618 0.0
H724 H 0.41876 0.56413 0.14812 0.0
H725 H 0.3834 0.5489 0.28982 0.0
H726 H 0.35401 0.55875 0.26506 0.0
H727 H 0.36922 0.51949 0.26609 0.0
H728 H 0.29024 0.56117 0.18723 0.0
H729 H 0.32834 0.46739 0.19256 0.0
H730 H 0.35192 0.60284 0.18842 0.0
H731 H 0.34553 0.59912 0.2262 0.0
H732 H 0.31552 0.60588 0.20137 0.0
H733 H 0.39947 0.48784 0.19363 0.0
H734 H 0.3763 0.45716 0.2059 0.0
H735 H 0.39092 0.48496 0.23098 0.0
C736 C 0.57605 0.18613 0.32001 0.0
C737 C 0.54664 0.18302 0.31336 0.0
C738 C 0.58514 0.1968 0.34723 0.0
C739 C 0.56436 0.20417 0.3684 0.0
C740 C 0.53465 0.20223 0.36143 0.0
C741 C 0.52617 0.19205 0.33396 0.0
C742 C 0.61703 0.19917 0.35366 0.0
C743 C 0.51179 0.20954 0.38342 0.0
C744 C 0.58853 0.20009 0.44745 0.0
C745 C 0.59158 0.23215 0.4538 0.0
C746 C 0.57939 0.19063 0.41983 0.0
C747 C 0.57357 0.21374 0.39794 0.0
C748 C 0.57623 0.24609 0.40435 0.0
C749 C 0.5849 0.25489 0.43217 0.0
C750 C 0.57631 0.15589 0.41395 0.0
C751 C 0.57062 0.27145 0.38158 0.0
H752 H 0.59204 0.17908 0.30436 0.0
H753 H 0.50337 0.18973 0.32917 0.0
H754 H 0.62174 0.22287 0.36222 0.0
H755 H 0.62375 0.18153 0.37053 0.0
H756 H 0.63029 0.19494 0.33427 0.0
H757 H 0.48958 0.20734 0.37444 0.0
H758 H 0.51459 0.19314 0.40217 0.0
H759 H 0.51408 0.23386 0.39161 0.0
H760 H 0.59372 0.18235 0.46391 0.0
H761 H 0.58726 0.27976 0.43663 0.0
H762 H 0.59166 0.14832 0.39709 0.0
H763 H 0.55424 0.15147 0.4056 0.0
H764 H 0.58048 0.141 0.43355 0.0
H765 H 0.58531 0.26757 0.36322 0.0
H766 H 0.5738 0.29559 0.39002 0.0
H767 H 0.54822 0.2702 0.37298 0.0
C768 C 0.07019 0.25666 0.56709 0.0
C769 C 0.0932 0.27275 0.55524 0.0
C770 C 0.05919 0.26509 0.59415 0.0
C771 C 0.07263 0.28895 0.61034 0.0
C772 C 0.09584 0.30535 0.59823 0.0
C773 C 0.10545 0.29745 0.57057 0.0
C774 C 0.03354 0.24809 0.6056 0.0
C775 C 0.11153 0.33015 0.61504 0.0
C776 C 0.03669 0.33173 0.67239 0.0
C777 C 0.04725 0.31448 0.69654 0.0
C778 C 0.04339 0.32255 0.64425 0.0
C779 C 0.06277 0.29665 0.64004 0.0
C780 C 0.07387 0.27928 0.66437 0.0
C781 C 0.06546 0.288 0.69234 0.0
C782 C 0.0301 0.34104 0.61907 0.0
C783 C 0.09554 0.25234 0.66094 0.0
H784 H 0.06108 0.2372 0.55535 0.0
H785 H 0.12382 0.30924 0.56169 0.0
H786 H 0.04024 0.23328 0.62456 0.0
H787 H 0.01686 0.26543 0.61291 0.0
H788 H 0.02371 0.23265 0.58914 0.0
H789 H 0.12958 0.34016 0.60278 0.0
H790 H 0.09638 0.34974 0.62079 0.0
H791 H 0.12033 0.31969 0.63553 0.0
H792 H 0.02344 0.35284 0.67543 0.0
H793 H 0.07409 0.27492 0.71094 0.0
H794 H 0.0216 0.32475 0.60259 0.0
H795 H 0.04675 0.35532 0.60865 0.0
H796 H 0.01224 0.35725 0.62584 0.0
H797 H 0.0864 0.23389 0.64701 0.0
H798 H 0.10224 0.24134 0.68196 0.0
H799 H 0.115 0.26105 0.65012 0.0
C800 C 0.99867 0.81456 0.84542 0.0
C801 C 0.98034 0.82358 0.82211 0.0
C802 C 0.98765 0.80479 0.87198 0.0
C803 C 0.95747 0.80319 0.8754 0.0
C804 C 0.93873 0.81201 0.85199 0.0
C805 C 0.95036 0.82241 0.82574 0.0
C806 C 0.0084 0.79655 0.89659 0.0
C807 C 0.9064 0.81051 0.85469 0.0
C808 C 0.93384 0.74566 0.93335 0.0
C809 C 0.9256 0.76582 0.95585 0.0
C810 C 0.94354 0.75763 0.907 0.0
C811 C 0.94586 0.79063 0.90304 0.0
C812 C 0.93815 0.81116 0.92583 0.0
C813 C 0.92772 0.79855 0.95178 0.0
C814 C 0.95089 0.73486 0.88316 0.0
C815 C 0.94029 0.8465 0.92272 0.0
H816 H 0.02184 0.81585 0.84327 0.0
H817 H 0.93592 0.82979 0.80815 0.0
H818 H 1.00295 0.81097 0.91571 0.0
H819 H 1.00642 0.77138 0.90293 0.0
H820 H 0.0312 0.80057 0.89095 0.0
H821 H 0.8949 0.81562 0.83387 0.0
H822 H 0.9004 0.78677 0.86254 0.0
H823 H 0.89878 0.82792 0.87078 0.0
H824 H 0.9319 0.72034 0.93589 0.0
H825 H 0.92104 0.8144 0.96879 0.0
H826 H 0.97399 0.73651 0.87767 0.0
H827 H 0.93804 0.7412 0.86341 0.0
H828 H 0.94668 0.70997 0.88919 0.0
H829 H 0.96055 0.85283 0.91194 0.0
H830 H 0.93935 0.85847 0.9439 0.0
H831 H 0.92194 0.85571 0.90918 0.0
C832 C 0.44062 0.68156 0.18791 0.0
C833 C 0.46931 0.68095 0.19812 0.0
C834 C 0.43383 0.68727 0.15851 0.0
C835 C 0.45631 0.69117 0.13853 0.0
C836 C 0.4853 0.69078 0.14883 0.0
C837 C 0.49132 0.68669 0.17855 0.0
C838 C 0.40256 0.68944 0.14888 0.0
C839 C 0.51001 0.69468 0.12843 0.0
C840 C 0.43692 0.67515 0.05957 0.0
C841 C 0.43427 0.70579 0.04781 0.0
C842 C 0.44483 0.67005 0.08881 0.0
C843 C 0.44949 0.69623 0.10701 0.0
C844 C 0.44736 0.7272 0.095 0.0
C845 C 0.44023 0.73149 0.06555 0.0
C846 C 0.4482 0.63658 0.10022 0.0
C847 C 0.45124 0.75623 0.11314 0.0
H848 H 0.42339 0.67761 0.20294 0.0
H849 H 0.51337 0.68765 0.18643 0.0
H850 H 0.3981 0.71217 0.13723 0.0
H851 H 0.39787 0.67019 0.13364 0.0
H852 H 0.38761 0.68781 0.16728 0.0
H853 H 0.53136 0.69107 0.13942 0.0
H854 H 0.50837 0.67758 0.11054 0.0
H855 H 0.50886 0.71877 0.11872 0.0
H856 H 0.4326 0.65513 0.04596 0.0
H857 H 0.43875 0.75522 0.05652 0.0
H858 H 0.43136 0.63201 0.11632 0.0
H859 H 0.46947 0.63311 0.11134 0.0
H860 H 0.44642 0.61887 0.08282 0.0
H861 H 0.42979 0.76459 0.12072 0.0
H862 H 0.46048 0.77559 0.10021 0.0
H863 H 0.46536 0.75174 0.13235 0.0
C864 C 0.15682 0.39121 0.31551 0.0
C865 C 0.15024 0.35927 0.31913 0.0
C866 C 0.16509 0.40326 0.28864 0.0
C867 C 0.16695 0.38295 0.26463 0.0
C868 C 0.16038 0.35068 0.26806 0.0
C869 C 0.15213 0.33923 0.29524 0.0
C870 C 0.17201 0.4378 0.28601 0.0
C871 C 0.16205 0.32827 0.243 0.0
C872 C 0.16357 0.42576 0.19199 0.0
C873 C 0.19293 0.42862 0.18596 0.0
C874 C 0.15473 0.40955 0.21681 0.0
C875 C 0.17574 0.39581 0.23604 0.0
C876 C 0.20534 0.39697 0.22908 0.0
C877 C 0.21357 0.41334 0.20412 0.0
C878 C 0.12295 0.4087 0.22325 0.0
C879 C 0.22845 0.38245 0.24882 0.0
H880 H 0.156 0.40678 0.33389 0.0
H881 H 0.14686 0.31459 0.29772 0.0
H882 H 0.19456 0.44022 0.27884 0.0
H883 H 0.15771 0.44952 0.26944 0.0
H884 H 0.1694 0.45049 0.3067 0.0
H885 H 0.15648 0.30382 0.24924 0.0
H886 H 0.14712 0.33664 0.2254 0.0
H887 H 0.18415 0.32777 0.23417 0.0
H888 H 0.14749 0.43738 0.17797 0.0
H889 H 0.2363 0.41529 0.19949 0.0
H890 H 0.11826 0.42357 0.24226 0.0
H891 H 0.11677 0.38427 0.22873 0.0
H892 H 0.10927 0.41752 0.2048 0.0
H893 H 0.2295 0.39605 0.26912 0.0
H894 H 0.25008 0.38232 0.23885 0.0
H895 H 0.2232 0.35783 0.25469 0.0
C896 C 0.86878 0.9462 0.58808 0.0
C897 C 0.89419 0.92738 0.59062 0.0
C898 C 0.85635 0.95407 0.56098 0.0
C899 C 0.86938 0.94267 0.53556 0.0
C900 C 0.89552 0.92453 0.53783 0.0
C901 C 0.9076 0.91713 0.56527 0.0
C902 C 0.82845 0.97341 0.55967 0.0
C903 C 0.91015 0.9119 0.51132 0.0
C904 C 0.81572 0.9289 0.47465 0.0
C905 C 0.81831 0.95593 0.45723 0.0
C906 C 0.83312 0.92377 0.49936 0.0
C907 C 0.85362 0.94638 0.50722 0.0
C908 C 0.85722 0.9732 0.48907 0.0
C909 C 0.83953 0.97763 0.46414 0.0
C910 C 0.82863 0.89467 0.51774 0.0
C911 C 0.87881 0.99786 0.49664 0.0
H912 H 0.85793 0.95397 0.60738 0.0
H913 H 0.92749 0.90309 0.56685 0.0
H914 H 0.83005 0.99326 0.54401 0.0
H915 H 0.81068 0.95842 0.55208 0.0
H916 H 0.82263 0.98318 0.58102 0.0
H917 H 0.93183 0.9012 0.5164 0.0
H918 H 0.89666 0.89362 0.50133 0.0
H919 H 0.91242 0.93104 0.49505 0.0
H920 H 0.79948 0.91192 0.46929 0.0
H921 H 0.84153 0.99859 0.45077 0.0
H922 H 0.82012 0.90175 0.53902 0.0
H923 H 0.84946 0.88169 0.52175 0.0
H924 H 0.81326 0.87832 0.50758 0.0
H925 H 0.87153 0.01083 0.51599 0.0
H926 H 0.88146 0.01517 0.47875 0.0
H927 H 0.90013 0.98655 0.50208 0.0
C928 C 0.34321 0.55994 0.69868 0.0
C929 C 0.31724 0.56028 0.68275 0.0
C930 C 0.34706 0.57977 0.72239 0.0
C931 C 0.32422 0.60046 0.73076 0.0
C932 C 0.29831 0.60204 0.71392 0.0
C933 C 0.29514 0.58197 0.68996 0.0
C934 C 0.3752 0.57741 0.73932 0.0
C935 C 0.27347 0.62379 0.722 0.0
C936 C 0.3284 0.61843 0.811 0.0
C937 C 0.34262 0.64725 0.81125 0.0
C938 C 0.32061 0.60398 0.78492 0.0
C939 C 0.32727 0.61852 0.75824 0.0
C940 C 0.34029 0.64838 0.75833 0.0
C941 C 0.34778 0.66236 0.78476 0.0
C942 C 0.30657 0.57228 0.78596 0.0
C943 C 0.34787 0.66474 0.7305 0.0
H944 H 0.3604 0.54328 0.69313 0.0
H945 H 0.27493 0.58215 0.67784 0.0
H946 H 0.38432 0.60117 0.74184 0.0
H947 H 0.37132 0.5679 0.76127 0.0
H948 H 0.39149 0.5618 0.72883 0.0
H949 H 0.25593 0.62444 0.70536 0.0
H950 H 0.26445 0.61574 0.74275 0.0
H951 H 0.28104 0.64813 0.72522 0.0
H952 H 0.32381 0.60681 0.83129 0.0
H953 H 0.35894 0.68449 0.78459 0.0
H954 H 0.32191 0.55376 0.77821 0.0
H955 H 0.28728 0.57237 0.77147 0.0
H956 H 0.29997 0.56574 0.80812 0.0
H957 H 0.36623 0.65181 0.72049 0.0
H958 H 0.35408 0.68957 0.73398 0.0
H959 H 0.32944 0.66461 0.71493 0.0
C960 C 0.64529 0.04872 0.08309 0.0
C961 C 0.62211 0.0708 0.08368 0.0
C962 C 0.65731 0.03895 0.05688 0.0
C963 C 0.64581 0.05134 0.03043 0.0
C964 C 0.62179 0.07283 0.03082 0.0
C965 C 0.61036 0.08243 0.05739 0.0
C966 C 0.68309 0.01629 0.05756 0.0
C967 C 0.60866 0.08635 1.00317 0.0
C968 C 0.69813 0.05506 0.96822 0.0
C969 C 0.69174 0.02788 0.95246 0.0
C970 C 0.68297 0.06317 0.99317 0.0
C971 C 0.66053 0.04388 1.00272 0.0
C972 C 0.65324 0.01698 0.98645 0.0
C973 C 0.669 0.00922 0.96161 0.0
C974 C 0.69164 0.09196 0.00982 0.0
C975 C 0.62926 0.99598 0.99568 0.0
H976 H 0.65475 0.03986 0.10325 0.0
H977 H 0.59223 0.09918 0.05761 0.0
H978 H 0.67907 0.99588 0.04341 0.0
H979 H 0.7022 0.02834 0.04915 0.0
H980 H 0.68833 0.00729 0.0797 0.0
H981 H 0.58857 0.10055 1.00696 0.0
H982 H 0.62435 0.10168 0.99246 0.0
H983 H 0.60367 0.06707 0.98803 0.0
H984 H 0.71556 0.0698 0.96148 0.0
H985 H 0.66383 0.9882 0.94973 0.0
H986 H 0.69938 0.08474 0.03177 0.0
H987 H 0.67273 0.10828 0.01242 0.0
H988 H 0.70897 0.10504 0.99908 0.0
H989 H 0.63514 0.98434 0.01661 0.0
H990 H 0.62479 0.97739 0.97961 0.0
H991 H 0.60917 0.01028 0.99898 0.0
C992 C 0.70757 0.12854 0.69529 0.0
C993 C 0.67872 0.12701 0.68578 0.0
C994 C 0.71723 0.11328 0.72101 0.0
C995 C 0.69763 0.09597 0.73766 0.0
C996 C 0.66824 0.09552 0.72882 0.0
C997 C 0.65918 0.11103 0.70312 0.0
C998 C 0.74869 0.11453 0.72967 0.0
C999 C 0.64654 0.07748 0.74588 0.0
C1000 C 0.72462 0.02393 0.78101 0.0
C1001 C 0.72365 0.03471 0.80949 0.0
C1002 C 0.71696 0.04387 0.75756 0.0
C1003 C 0.70818 0.07563 0.76253 0.0
C1004 C 0.70811 0.08706 0.7912 0.0
C1005 C 0.71577 0.06641 0.81439 0.0
C1006 C 0.71741 0.03057 0.72745 0.0
C1007 C 0.69919 0.12081 0.79743 0.0
H1008 H 0.72292 0.14064 0.68207 0.0
H1009 H 0.63672 0.11027 0.69637 0.0
H1010 H 0.75099 0.12077 0.75276 0.0
H1011 H 0.75918 0.09088 0.72698 0.0
H1012 H 0.76039 0.13192 0.71649 0.0
H1013 H 0.62415 0.08144 0.73741 0.0
H1014 H 0.652 0.05181 0.74514 0.0
H1015 H 0.64731 0.0845 0.76886 0.0
H1016 H 0.73085 0.99951 0.777 0.0
H1017 H 0.715 0.07491 0.83634 0.0
H1018 H 0.73091 0.04517 0.71333 0.0
H1019 H 0.69523 0.0313 0.71804 0.0
H1020 H 0.72591 0.00577 0.72712 0.0
H1021 H 0.71145 0.13727 0.78385 0.0
H1022 H 0.70269 0.12681 0.82047 0.0
H1023 H 0.67598 0.12475 0.79188 0.0
C1024 C 0.17043 0.47463 0.04269 0.0
C1025 C 0.18802 0.45187 0.0573 0.0
C1026 C 0.15543 0.46722 0.01717 0.0
C1027 C 0.15814 0.43637 1.0059 0.0
C1028 C 0.17566 0.41323 0.02065 0.0
C1029 C 0.19032 0.42123 0.04618 0.0
C1030 C 0.13684 0.49249 1.00215 0.0
C1031 C 0.17914 0.38005 0.00932 0.0
C1032 C 0.10171 0.40547 0.9538 0.0
C1033 C 0.11558 0.40803 0.92724 0.0
C1034 C 0.11497 0.4154 0.97947 0.0
C1035 C 0.14282 0.42816 0.97859 0.0
C1036 C 0.15656 0.43176 0.95173 0.0
C1037 C 0.14275 0.4217 0.92637 0.0
C1038 C 0.09949 0.41142 0.00762 0.0
C1039 C 0.18627 0.44523 0.94989 0.0
H1040 H 0.16844 0.49836 0.05109 0.0
H1041 H 0.20388 0.40349 0.05722 0.0
H1042 H 0.14491 0.49684 0.98011 0.0
H1043 H 0.11437 0.48446 0.99979 0.0
H1044 H 0.13653 0.51514 0.01402 0.0
H1045 H 0.19341 0.36478 0.02342 0.0
H1046 H 0.15776 0.36908 0.00745 0.0
H1047 H 0.18835 0.3807 0.98739 0.0
H1048 H 0.08054 0.39533 0.95456 0.0
H1049 H 0.15373 0.42345 0.90598 0.0
H1050 H 0.0982 0.43422 0.01914 0.0
H1051 H 0.1118 0.39435 0.02177 0.0
H1052 H 0.07729 0.40275 1.00443 0.0
H1053 H 0.18667 0.46856 0.96052 0.0
H1054 H 0.1933 0.44808 0.92725 0.0
H1055 H 0.20214 0.4294 0.96153 0.0
C1056 C 0.83724 0.93837 0.30387 0.0
C1057 C 0.81153 0.93198 0.31818 0.0
C1058 C 0.84472 0.92273 0.27839 0.0
C1059 C 0.82616 0.89997 0.2668 0.0
C1060 C 0.80081 0.89237 0.28174 0.0
C1061 C 0.79379 0.90846 0.30722 0.0
C1062 C 0.87196 0.93156 0.26322 0.0
C1063 C 0.78053 0.86809 0.27023 0.0
C1064 C 0.82847 0.88819 0.18558 0.0
C1065 C 0.84593 0.86068 0.18332 0.0
C1066 C 0.82168 0.90094 0.21256 0.0
C1067 C 0.83239 0.88577 0.23812 0.0
C1068 C 0.84973 0.85781 0.23609 0.0
C1069 C 0.85636 0.84566 0.20876 0.0
C1070 C 0.80315 0.93084 0.21371 0.0
C1071 C 0.86153 0.84089 0.26279 0.0
H1072 H 0.85127 0.95632 0.31213 0.0
H1073 H 0.77389 0.90327 0.31801 0.0
H1074 H 0.88543 0.9101 0.25887 0.0
H1075 H 0.86631 0.94285 0.24207 0.0
H1076 H 0.88504 0.94816 0.27597 0.0
H1077 H 0.76302 0.86299 0.28552 0.0
H1078 H 0.77058 0.87674 0.24957 0.0
H1079 H 0.79257 0.84572 0.26565 0.0
H1080 H 0.81976 0.89966 0.16618 0.0
H1081 H 0.87008 0.82459 0.20734 0.0
H1082 H 0.81526 0.94967 0.2246 0.0
H1083 H 0.78364 0.92666 0.22656 0.0
H1084 H 0.79624 0.93955 0.1919 0.0
H1085 H 0.8761 0.85656 0.27484 0.0
H1086 H 0.87369 0.81873 0.25763 0.0
H1087 H 0.84365 0.83508 0.27735 0.0
C1088 C 0.35689 0.52286 0.54289 0.0
C1089 C 0.33398 0.54257 0.552 0.0
C1090 C 0.37379 0.53128 0.51913 0.0
C1091 C 0.36757 0.56002 0.50396 0.0
C1092 C 0.34456 0.58001 0.51313 0.0
C1093 C 0.32819 0.57113 0.53697 0.0
C1094 C 0.39823 0.50939 0.51019 0.0
C1095 C 0.33707 0.61082 0.49763 0.0
C1096 C 0.42344 0.60088 0.45841 0.0
C1097 C 0.41438 0.59382 0.43019 0.0
C1098 C 0.40915 0.58901 0.48258 0.0
C1099 C 0.38507 0.5696 0.4786 0.0
C1100 C 0.37646 0.56143 0.45022 0.0
C1101 C 0.39123 0.57356 0.4264 0.0
C1102 C 0.41926 0.59815 0.51239 0.0
C1103 C 0.35088 0.5409 0.44494 0.0
H1104 H 0.36161 0.50074 0.55423 0.0
H1105 H 0.31054 0.5866 0.5436 0.0
H1106 H 0.39458 0.50167 0.48766 0.0
H1107 H 0.41884 0.52204 0.51072 0.0
H1108 H 0.40053 0.4881 0.52437 0.0
H1109 H 0.31842 0.62362 0.50731 0.0
H1110 H 0.35589 0.62639 0.49815 0.0
H1111 H 0.33182 0.6063 0.47463 0.0
H1112 H 0.44162 0.61604 0.46162 0.0
H1113 H 0.38391 0.56812 0.40474 0.0
H1114 H 0.42273 0.57677 0.52621 0.0
H1115 H 0.4024 0.61317 0.52264 0.0
H1116 H 0.4396 0.61135 0.51196 0.0
H1117 H 0.35314 0.5188 0.45796 0.0
H1118 H 0.34831 0.53465 0.42185 0.0
H1119 H 0.33088 0.55349 0.45187 0.0
C1120 C 0.23586 0.18415 0.43809 0.0
C1121 C 0.22144 0.21341 0.43316 0.0
C1122 C 0.26116 0.17578 0.42336 0.0
C1123 C 0.27241 0.19702 0.40289 0.0
C1124 C 0.25768 0.22635 0.39735 0.0
C1125 C 0.23248 0.23426 0.41262 0.0
C1126 C 0.27616 0.14434 0.4301 0.0
C1127 C 0.26873 0.24953 0.37548 0.0
C1128 C 0.35253 0.18578 0.38693 0.0
C1129 C 0.35201 0.16754 0.36179 0.0
C1130 C 0.32686 0.19622 0.40006 0.0
C1131 C 0.29982 0.1885 0.38775 0.0
C1132 C 0.29909 0.17096 0.36192 0.0
C1133 C 0.32509 0.16061 0.34936 0.0
C1134 C 0.32869 0.21481 0.4276 0.0
C1135 C 0.27079 0.16229 0.34797 0.0
H1136 H 0.22768 0.16783 0.45394 0.0
H1137 H 0.22153 0.25689 0.40857 0.0
H1138 H 0.27814 0.13026 0.41016 0.0
H1139 H 0.29834 0.14816 0.43844 0.0
H1140 H 0.2645 0.13033 0.44635 0.0
H1141 H 0.25426 0.27078 0.37283 0.0
H1142 H 0.29048 0.2572 0.38222 0.0
H1143 H 0.27097 0.238 0.35423 0.0
H1144 H 0.3731 0.1918 0.39651 0.0
H1145 H 0.32424 0.14619 0.33023 0.0
H1146 H 0.31906 0.20127 0.44548 0.0
H1147 H 0.3161 0.23741 0.42522 0.0
H1148 H 0.35128 0.22011 0.43376 0.0
H1149 H 0.25938 0.14586 0.36233 0.0
H1150 H 0.27381 0.15078 0.32677 0.0
H1151 H 0.25662 0.18366 0.34481 0.0
C1152 C 0.08879 0.07682 0.62713 0.0
C1153 C 0.11069 0.06937 0.6076 0.0
C1154 C 0.07593 0.05308 0.64356 0.0
C1155 C 0.08505 0.02109 0.64026 0.0
C1156 C 0.10653 0.01337 0.61994 0.0
C1157 C 0.11909 0.03756 0.60393 0.0
C1158 C 0.05319 0.06232 0.66507 0.0
C1159 C 0.11669 0.97958 0.61555 0.0
C1160 C 0.07626 0.96356 0.70291 0.0
C1161 C 0.05149 0.94743 0.69455 0.0
C1162 C 0.0872 0.98768 0.68557 0.0
C1163 C 0.07322 0.99585 0.65901 0.0
C1164 C 0.04832 0.97961 0.65031 0.0
C1165 C 0.03771 0.95569 0.66819 0.0
C1166 C 0.11373 0.0045 0.69572 0.0
C1167 C 0.03293 0.98745 0.62206 0.0
H1168 H 0.08233 0.10134 0.63024 0.0
H1169 H 0.13566 0.03156 0.58853 0.0
H1170 H 0.03338 0.04881 0.6612 0.0
H1171 H 0.06112 0.05633 0.68723 0.0
H1172 H 0.04742 0.08796 0.664 0.0
H1173 H 0.13248 0.97735 0.59787 0.0
H1174 H 0.12698 0.97004 0.63573 0.0
H1175 H 0.09805 0.96465 0.61048 0.0
H1176 H 0.08706 0.95759 0.72325 0.0
H1177 H 0.01859 0.94343 0.66144 0.0
H1178 H 0.10884 0.03023 0.69723 0.0
H1179 H 0.13121 1.00136 0.67987 0.0
H1180 H 0.12182 0.99567 0.71711 0.0
H1181 H 0.02577 0.01269 0.62157 0.0
H1182 H 0.01381 0.97271 0.61842 0.0
H1183 H 0.04793 0.98389 0.60391 0.0
C1184 C 0.19467 0.79274 0.87907 0.0
C1185 C 0.19688 0.81745 0.85885 0.0
C1186 C 0.21879 0.78198 0.89569 0.0
C1187 C 0.24577 0.79628 0.8921 0.0
C1188 C 0.24851 0.81982 0.87046 0.0
C1189 C 0.22411 0.8301 0.85416 0.0
C1190 C 0.21506 0.75643 0.91814 0.0
C1191 C 0.27693 0.83532 0.86555 0.0
C1192 C 0.29355 0.80485 0.95861 0.0
C1193 C 0.31549 0.7819 0.95459 0.0
C1194 C 0.27082 0.80935 0.93858 0.0
C1195 C 0.26972 0.79033 0.91369 0.0
C1196 C 0.29167 0.76674 0.90955 0.0
C1197 C 0.31447 0.76292 0.93002 0.0
C1198 C 0.24804 0.83477 0.94402 0.0
C1199 C 0.29153 0.74592 0.88336 0.0
H1200 H 0.17381 0.7827 0.88282 0.0
H1201 H 0.22626 0.84857 0.83803 0.0
H1202 H 0.2325 0.73803 0.91652 0.0
H1203 H 0.2167 0.76674 0.94 0.0
H1204 H 0.19387 0.74504 0.91594 0.0
H1205 H 0.27625 0.85094 0.84611 0.0
H1206 H 0.2826 0.8497 0.88458 0.0
H1207 H 0.29438 0.81711 0.86308 0.0
H1208 H 0.29417 0.8196 0.97757 0.0
H1209 H 0.33136 0.74511 0.92684 0.0
H1210 H 0.22641 0.82429 0.94462 0.0
H1211 H 0.24765 0.85247 0.92617 0.0
H1212 H 0.25184 0.84723 0.96465 0.0
H1213 H 0.3042 0.72358 0.88738 0.0
H1214 H 0.30146 0.7586 0.86515 0.0
H1215 H 0.26926 0.74004 0.87666 0.0
C1216 C 0.50273 0.02391 0.18004 0.0
C1217 C 0.49454 0.02832 0.20876 0.0
C1218 C 0.49385 0.99746 0.16445 0.0
C1219 C 0.47682 0.97458 0.17806 0.0
C1220 C 0.46933 0.97841 0.20734 0.0
C1221 C 0.47804 0.00533 0.22222 0.0
C1222 C 0.50191 0.99454 0.13316 0.0
C1223 C 0.45165 0.95433 0.22283 0.0
C1224 C 0.42575 0.92465 0.13419 0.0
C1225 C 0.44117 0.89575 0.13268 0.0
C1226 C 0.43752 0.9507 0.14808 0.0
C1227 C 0.46522 0.94766 0.16134 0.0
C1228 C 0.48107 0.91859 0.15961 0.0
C1229 C 0.46896 0.89304 0.14499 0.0
C1230 C 0.4201 0.98139 0.14888 0.0
C1231 C 0.51043 0.91422 0.17389 0.0
H1232 H 0.51545 0.04156 0.16946 0.0
H1233 H 0.47189 0.00832 0.2445 0.0
H1234 H 0.51263 0.97124 0.12935 0.0
H1235 H 0.48209 0.99593 0.11939 0.0
H1236 H 0.51652 0.0134 0.12618 0.0
H1237 H 0.44948 0.95955 0.24614 0.0
H1238 H 0.42973 0.95383 0.2129 0.0
H1239 H 0.46166 0.93037 0.22066 0.0
H1240 H 0.4044 0.92687 0.12434 0.0
H1241 H 0.48085 0.87066 0.14387 0.0
H1242 H 0.43299 1.00104 0.14048 0.0
H1243 H 0.41464 0.98701 0.17149 0.0
H1244 H 0.39973 0.98045 0.13599 0.0
H1245 H 0.52511 0.93254 0.16608 0.0
H1246 H 0.52038 0.89055 0.16973 0.0
H1247 H 0.50852 0.91715 0.19754 0.0
C1248 C 0.8386 0.32963 0.61808 0.0
C1249 C 0.84244 0.34156 0.64598 0.0
C1250 C 0.81158 0.31954 0.60833 0.0
C1251 C 0.78769 0.32111 0.62695 0.0
C1252 C 0.79146 0.33251 0.65533 0.0
C1253 C 0.81873 0.34268 0.66447 0.0
C1254 C 0.80853 0.30761 0.57787 0.0
C1255 C 0.76658 0.33446 0.67588 0.0
C1256 C 0.71462 0.32657 0.58865 0.0
C1257 C 0.70635 0.2949 0.58866 0.0
C1258 C 0.74046 0.33554 0.60199 0.0
C1259 C 0.75854 0.3124 0.61598 0.0
C1260 C 0.74963 0.28069 0.61748 0.0
C1261 C 0.72369 0.27228 0.60372 0.0
C1262 C 0.7491 0.3696 0.5998 0.0
C1263 C 0.76808 0.25536 0.63253 0.0
H1264 H 0.85683 0.32797 0.60381 0.0
H1265 H 0.82133 0.35208 0.68598 0.0
H1266 H 0.80002 0.2834 0.57811 0.0
H1267 H 0.7928 0.32294 0.56551 0.0
H1268 H 0.82934 0.30715 0.56634 0.0
H1269 H 0.77344 0.34191 0.69779 0.0
H1270 H 0.74989 0.35163 0.66743 0.0
H1271 H 0.75631 0.3112 0.67764 0.0
H1272 H 0.70141 0.34435 0.57724 0.0
H1273 H 0.71756 0.24778 0.60395 0.0
H1274 H 0.76861 0.37125 0.5864 0.0
H1275 H 0.75468 0.37871 0.62147 0.0
H1276 H 0.73174 0.38511 0.59001 0.0
H1277 H 0.78804 0.25097 0.62013 0.0
H1278 H 0.75669 0.23275 0.63466 0.0
H1279 H 0.77474 0.26321 0.65434 0.0
C1280 C 0.99186 0.42991 0.82687 0.0
C1281 C 0.97073 0.42676 0.80518 0.0
C1282 C 0.98763 0.45148 0.84955 0.0
C1283 C 0.96162 0.47001 0.85053 0.0
C1284 C 0.93993 0.46589 0.82915 0.0
C1285 C 0.94482 0.44448 0.80679 0.0
C1286 C 0.01131 0.45515 0.87188 0.0
C1287 C 0.91174 0.48473 0.82939 0.0
C1288 C 0.93309 0.51142 0.91712 0.0
C1289 C 0.93824 0.54325 0.91065 0.0
C1290 C 0.94224 0.48705 0.89869 0.0
C1291 C 0.95692 0.49457 0.87307 0.0
C1292 C 0.9635 0.52646 0.86719 0.0
C1293 C 0.95403 0.55037 0.88596 0.0
C1294 C 0.93464 0.45346 0.90579 0.0
C1295 C 0.97927 0.53556 0.84026 0.0
H1296 H 0.012 0.41635 0.8256 0.0
H1297 H 0.92836 0.44202 0.79013 0.0
H1298 H 0.0203 0.47905 0.86986 0.0
H1299 H 1.00255 0.45305 0.89391 0.0
H1300 H 0.02914 0.4373 0.86949 0.0
H1301 H 0.89664 0.47774 0.8119 0.0
H1302 H 0.90101 0.48155 0.85039 0.0
H1303 H 0.91591 0.51026 0.82679 0.0
H1304 H 0.92071 0.50558 0.93596 0.0
H1305 H 0.95857 0.57478 0.88101 0.0
H1306 H 0.95364 0.43727 0.90317 0.0
H1307 H 0.91754 0.44578 0.89061 0.0
H1308 H 0.92669 0.45094 0.92815 0.0
H1309 H 0.99888 0.52024 0.83778 0.0
H1310 H 0.98568 0.56063 0.84046 0.0
H1311 H 0.96515 0.53201 0.82107 0.0
C1312 C 0.78733 0.66297 0.06235 0.0
C1313 C 0.8014 0.69034 0.07094 0.0
C1314 C 0.7619 0.65351 0.07572 0.0
C1315 C 0.75009 0.67181 0.0983 0.0
C1316 C 0.76454 0.69901 0.10757 0.0
C1317 C 0.78995 0.70792 0.09384 0.0
C1318 C 0.74729 0.62427 0.06522 0.0
C1319 C 0.75277 0.71919 0.13158 0.0
C1320 C 0.66942 0.66655 0.11178 0.0
C1321 C 0.66887 0.64629 0.13594 0.0
C1322 C 0.69563 0.67513 0.09948 0.0
C1323 C 0.7221 0.66312 0.11149 0.0
C1324 C 0.72173 0.64272 0.13592 0.0
C1325 C 0.69518 0.63463 0.14787 0.0
C1326 C 0.69499 0.69712 0.07359 0.0
C1327 C 0.7494 0.62924 0.14931 0.0
H1328 H 0.79587 0.64911 0.04475 0.0
H1329 H 0.80053 0.7291 0.10077 0.0
H1330 H 0.74413 0.60768 0.08351 0.0
H1331 H 0.72561 0.63082 0.05614 0.0
H1332 H 0.75987 0.6118 0.04839 0.0
H1333 H 0.76716 0.73883 0.1371 0.0
H1334 H 0.73127 0.72938 0.12511 0.0
H1335 H 0.74978 0.70452 0.15122 0.0
H1336 H 0.64927 0.67607 0.10265 0.0
H1337 H 0.69501 0.61869 0.16632 0.0
H1338 H 0.70554 0.68535 0.05511 0.0
H1339 H 0.70732 0.71853 0.07849 0.0
H1340 H 0.67266 0.70458 0.06693 0.0
H1341 H 0.76137 0.61508 0.13317 0.0
H1342 H 0.74549 0.61398 0.16841 0.0
H1343 H 0.7635 0.64866 0.15601 0.0
C1344 C 0.58241 0.44123 0.37865 0.0
C1345 C 0.59195 0.44787 0.40676 0.0
C1346 C 0.5729 0.46562 0.35954 0.0
C1347 C 0.57267 0.49745 0.36879 0.0
C1348 C 0.58138 0.50416 0.39744 0.0
C1349 C 0.59097 0.47938 0.41599 0.0
C1350 C 0.56395 0.45742 0.32915 0.0
C1351 C 0.58118 0.53764 0.40834 0.0
C1352 C 0.57982 0.56202 0.31167 0.0
C1353 C 0.55113 0.57271 0.30739 0.0
C1354 C 0.58704 0.53768 0.3316 0.0
C1355 C 0.5651 0.52385 0.34801 0.0
C1356 C 0.53615 0.53519 0.34438 0.0
C1357 C 0.52949 0.55936 0.324 0.0
C1358 C 0.61815 0.52637 0.33469 0.0
C1359 C 0.51216 0.5215 0.36172 0.0
H1360 H 0.58322 0.41702 0.37129 0.0
H1361 H 0.59778 0.4847 0.43784 0.0
H1362 H 0.54204 0.46743 0.32411 0.0
H1363 H 0.57894 0.46806 0.31363 0.0
H1364 H 0.56394 0.43149 0.32571 0.0
H1365 H 0.5868 0.53873 0.43169 0.0
H1366 H 0.5969 0.5516 0.39618 0.0
H1367 H 0.55959 0.54911 0.40467 0.0
H1368 H 0.59666 0.5722 0.29891 0.0
H1369 H 0.50729 0.56761 0.32085 0.0
H1370 H 0.62009 0.50093 0.32933 0.0
H1371 H 0.6257 0.52883 0.35737 0.0
H1372 H 0.63265 0.53969 0.32047 0.0
H1373 H 0.50983 0.49624 0.3563 0.0
H1374 H 0.49113 0.53415 0.3576 0.0
H1375 H 0.51746 0.52256 0.38511 0.0
C1376 C 0.35693 0.26286 0.16828 0.0
C1377 C 0.35583 0.29124 0.18371 0.0
C1378 C 0.37621 0.23793 0.17636 0.0
C1379 C 0.39493 0.24129 0.2005 0.0
C1380 C 0.39279 0.26911 0.21714 0.0
C1381 C 0.37345 0.29381 0.20846 0.0
C1382 C 0.37748 0.20851 0.15829 0.0
C1383 C 0.41172 0.27321 0.24355 0.0
C1384 C 0.43992 0.16987 0.22938 0.0
C1385 C 0.46678 0.17557 0.21725 0.0
C1386 C 0.41604 0.19078 0.22403 0.0
C1387 C 0.4192 0.21777 0.20599 0.0
C1388 C 0.4461 0.22283 0.19301 0.0
C1389 C 0.46947 0.20193 0.19898 0.0
C1390 C 0.38797 0.18438 0.23868 0.0
C1391 C 0.4504 0.25066 0.17299 0.0
H1392 H 0.34357 0.2606 0.14904 0.0
H1393 H 0.37239 0.31536 0.22086 0.0
H1394 H 0.39855 0.20677 0.14732 0.0
H1395 H 0.37587 0.1872 0.17226 0.0
H1396 H 0.35996 0.20838 0.14165 0.0
H1397 H 0.40551 0.29469 0.2558 0.0
H1398 H 0.41049 0.25224 0.25802 0.0
H1399 H 0.43453 0.27506 0.23703 0.0
H1400 H 0.4378 0.14966 0.24363 0.0
H1401 H 0.4901 0.2064 0.1893 0.0
H1402 H 0.38507 0.15859 0.24144 0.0
H1403 H 0.36901 0.1946 0.22659 0.0
H1404 H 0.38844 0.19506 0.26044 0.0
H1405 H 0.43425 0.25063 0.15505 0.0
H1406 H 0.47231 0.25044 0.16364 0.0
H1407 H 0.44708 0.27305 0.18486 0.0
C1408 C 0.93271 0.2832 0.76699 0.0
C1409 C 0.95603 0.29291 0.78411 0.0
C1410 C 0.91454 0.25933 0.77659 0.0
C1411 C 0.91981 0.24476 0.80392 0.0
C1412 C 0.94338 0.25434 0.82119 0.0
C1413 C 0.96113 0.27822 0.81111 0.0
C1414 C 0.8896 0.24982 0.75755 0.0
C1415 C 0.94975 0.23949 0.85048 0.0
C1416 C 0.85931 0.20521 0.84374 0.0
C1417 C 0.86571 0.17301 0.83934 0.0
C1418 C 0.87634 0.22876 0.83181 0.0
C1419 C 0.9004 0.22002 0.81494 0.0
C1420 C 0.90667 0.18761 0.8099 0.0
C1421 C 0.88927 0.16451 0.82215 0.0
C1422 C 0.86885 0.26302 0.83768 0.0
C1423 C 0.93214 0.17731 0.79207 0.0
H1424 H 0.92853 0.29431 0.7461 0.0
H1425 H 0.97907 0.28539 0.82456 0.0
H1426 H 0.89153 0.22422 0.75284 0.0
H1427 H 0.86897 0.25383 0.76892 0.0
H1428 H 0.88855 0.26323 0.7368 0.0
H1429 H 0.96921 0.2492 0.86104 0.0
H1430 H 0.93108 0.2435 0.86477 0.0
H1431 H 0.95308 0.21357 0.84841 0.0
H1432 H 0.84081 0.21208 0.85647 0.0
H1433 H 0.89451 0.13972 0.81878 0.0
H1434 H 0.866 0.27638 0.81705 0.0
H1435 H 0.8868 0.27379 0.84984 0.0
H1436 H 0.84881 0.26595 0.8503 0.0
H1437 H 0.93099 0.18922 0.77062 0.0
H1438 H 0.93322 0.15134 0.78888 0.0
H1439 H 0.95245 0.18442 0.80284 0.0
C1440 C 0.07139 0.63804 0.08842 0.0
C1441 C 0.07343 0.60935 0.10397 0.0
C1442 C 0.04451 0.65169 0.07997 0.0
C1443 C 0.01877 0.63652 0.08732 0.0
C1444 C 0.0206 0.60729 0.10254 0.0
C1445 C 0.04785 0.59409 0.1107 0.0
C1446 C 0.04367 0.68294 0.0639 0.0
C1447 C 0.99374 0.59028 0.11074 0.0
C1448 C 0.95368 0.69245 0.09446 0.0
C1449 C 0.93948 0.68953 0.06772 0.0
C1450 C 0.97874 0.67437 0.10148 0.0
C1451 C 0.99014 0.65279 0.08121 0.0
C1452 C 0.97526 0.64881 0.05453 0.0
C1453 C 0.9501 0.66732 0.04806 0.0
C1454 C 0.99367 0.6794 0.13021 0.0
C1455 C 0.98657 0.62606 0.0323 0.0
H1456 H 0.09087 0.65036 0.08343 0.0
H1457 H 0.04911 0.57172 0.12231 0.0
H1458 H 0.03044 0.68129 0.04384 0.0
H1459 H 0.03336 0.70141 0.07742 0.0
H1460 H 0.06555 0.69066 0.05813 0.0
H1461 H 0.99878 0.56676 0.12075 0.0
H1462 H 0.98119 0.60471 0.12623 0.0
H1463 H 0.97972 0.58709 0.09142 0.0
H1464 H 0.94555 0.70957 0.10977 0.0
H1465 H 0.93952 0.66535 0.02718 0.0
H1466 H 0.01505 0.68977 0.12669 0.0
H1467 H 0.9975 0.65648 0.14167 0.0
H1468 H 0.98099 0.69541 0.14435 0.0
H1469 H 1.00664 0.63522 0.02306 0.0
H1470 H 0.97073 0.62269 0.01442 0.0
H1471 H 0.99211 0.60274 0.0424 0.0
C1472 C 0.65869 0.81207 0.33481 0.0
C1473 C 0.64984 0.84326 0.32777 0.0
C1474 C 0.64423 0.78614 0.32347 0.0
C1475 C 0.62015 0.79137 0.30462 0.0
C1476 C 0.61181 0.82276 0.29648 0.0
C1477 C 0.62679 0.8483 0.30807 0.0
C1478 C 0.65405 0.75314 0.33257 0.0
C1479 C 0.58625 0.82943 0.27653 0.0
C1480 C 0.59123 0.72164 0.26226 0.0
C1481 C 0.56846 0.71211 0.27965 0.0
C1482 C 0.6082 0.74744 0.26996 0.0
C1483 C 0.60225 0.7642 0.2956 0.0
C1484 C 0.57932 0.75467 0.31318 0.0
C1485 C 0.56283 0.72883 0.30506 0.0
C1486 C 0.63253 0.75674 0.25069 0.0
C1487 C 0.57216 0.77179 0.34069 0.0
H1488 H 0.6768 0.80792 0.34961 0.0
H1489 H 0.61968 0.87228 0.30262 0.0
H1490 H 0.63722 0.74228 0.34587 0.0
H1491 H 0.65711 0.73809 0.31336 0.0
H1492 H 0.67455 0.75293 0.34533 0.0
H1493 H 0.58408 0.8548 0.27025 0.0
H1494 H 0.58816 0.81515 0.2567 0.0
H1495 H 0.56617 0.82253 0.28734 0.0
H1496 H 0.59581 0.70898 0.24259 0.0
H1497 H 0.54532 0.72185 0.31872 0.0
H1498 H 0.65328 0.75532 0.26297 0.0
H1499 H 0.62917 0.78161 0.24331 0.0
H1500 H 0.63436 0.74142 0.23147 0.0
H1501 H 0.59102 0.77053 0.35575 0.0
H1502 H 0.55338 0.76175 0.35175 0.0
H1503 H 0.5673 0.79714 0.33592 0.0
C1504 C 0.54229 0.28947 0.56486 0.0
C1505 C 0.57051 0.30031 0.56319 0.0
C1506 C 0.51924 0.30961 0.57239 0.0
C1507 C 0.52432 0.34169 0.57834 0.0
C1508 C 0.55272 0.35305 0.57636 0.0
C1509 C 0.5756 0.33214 0.56883 0.0
C1510 C 0.48937 0.29637 0.57413 0.0
C1511 C 0.55891 0.38715 0.58235 0.0
C1512 C 0.45461 0.39052 0.57241 0.0
C1513 C 0.44523 0.38998 0.60103 0.0
C1514 C 0.48156 0.37721 0.56499 0.0
C1515 C 0.49949 0.36271 0.58667 0.0
C1516 C 0.49094 0.36395 0.61586 0.0
C1517 C 0.46395 0.37765 0.6227 0.0
C1518 C 0.4899 0.37675 0.53365 0.0
C1519 C 0.50931 0.3487 0.63965 0.0
H1520 H 0.53812 0.26492 0.56041 0.0
H1521 H 0.59737 0.34063 0.56751 0.0
H1522 H 0.48086 0.29956 0.59617 0.0
H1523 H 0.47442 0.30935 0.55894 0.0
H1524 H 0.48912 0.27084 0.56891 0.0
H1525 H 0.58191 0.39255 0.57893 0.0
H1526 H 0.54521 0.40289 0.56817 0.0
H1527 H 0.55341 0.39276 0.60495 0.0
H1528 H 0.44048 0.4006 0.55562 0.0
H1529 H 0.45684 0.37709 0.64485 0.0
H1530 H 0.48769 0.35252 0.52518 0.0
H1531 H 0.51276 0.38317 0.53125 0.0
H1532 H 0.47607 0.3932 0.52022 0.0
H1533 H 0.50845 0.32262 0.63796 0.0
H1534 H 0.50182 0.35561 0.66139 0.0
H1535 H 0.53219 0.35516 0.63752 0.0
C1536 C 0.15827 0.71468 0.66935 0.0
C1537 C 0.1497 0.68316 0.6698 0.0
C1538 C 0.13993 0.73921 0.67909 0.0
C1539 C 0.11235 0.73208 0.68961 0.0
C1540 C 0.10405 0.70018 0.69123 0.0
C1541 C 0.12277 0.67615 0.68124 0.0
C1542 C 0.14958 0.77288 0.67695 0.0
C1543 C 0.075 0.69152 0.70269 0.0
C1544 C 0.06965 0.79419 0.7316 0.0
C1545 C 0.05052 0.80636 0.71028 0.0
C1546 C 0.09004 0.77007 0.72526 0.0
C1547 C 0.09134 0.75806 0.69687 0.0
C1548 C 0.07206 0.77047 0.67528 0.0
C1549 C 0.05176 0.79428 0.68232 0.0
C1550 C 0.11001 0.75732 0.74896 0.0
C1551 C 0.07272 0.75844 0.64474 0.0
H1552 H 0.17891 0.72037 0.66029 0.0
H1553 H 0.11617 0.65181 0.68207 0.0
H1554 H 0.13568 0.78621 0.66104 0.0
H1555 H 0.14721 0.78475 0.69803 0.0
H1556 H 0.17239 0.77431 0.67019 0.0
H1557 H 0.07266 0.66554 0.70452 0.0
H1558 H 0.07172 0.70206 0.72424 0.0
H1559 H 0.05763 0.70129 0.68813 0.0
H1560 H 0.06803 0.80276 0.75344 0.0
H1561 H 0.03684 0.80357 0.66584 0.0
H1562 H 0.13245 0.764 0.74441 0.0
H1563 H 0.10974 0.73113 0.74982 0.0
H1564 H 0.10409 0.76657 0.77045 0.0
H1565 H 0.09455 0.7611 0.63575 0.0
H1566 H 0.05676 0.77114 0.63033 0.0
H1567 H 0.06808 0.73288 0.64459 0.0
C1568 C 0.47164 0.80069 0.9393 0.0
C1569 C 0.45847 0.80602 0.96594 0.0
C1570 C 0.49752 0.81514 0.93218 0.0
C1571 C 0.5108 0.83542 0.9522 0.0
C1572 C 0.49724 0.84164 0.9788 0.0
C1573 C 0.47124 0.82695 0.98532 0.0
C1574 C 0.51106 0.80804 0.90348 0.0
C1575 C 0.51064 0.8631 1.00074 0.0
C1576 C 0.59188 0.84429 0.94422 0.0
C1577 C 0.59323 0.873 0.92895 0.0
C1578 C 0.56529 0.83226 0.95262 0.0
C1579 C 0.53928 0.84923 0.94549 0.0
C1580 C 0.54053 0.87858 0.93066 0.0
C1581 C 0.56742 0.89009 0.92261 0.0
C1582 C 0.56499 0.80101 0.9686 0.0
C1583 C 0.51337 0.89737 0.9225 0.0
H1584 H 0.46199 0.78471 0.92406 0.0
H1585 H 0.4614 0.8312 1.00602 0.0
H1586 H 0.51485 0.83035 0.89153 0.0
H1587 H 0.53236 0.79585 0.90702 0.0
H1588 H 0.49742 0.79288 0.88979 0.0
H1589 H 0.49679 0.86666 0.01983 0.0
H1590 H 0.53182 0.85288 0.00817 0.0
H1591 H 0.51467 0.88647 0.99079 0.0
H1592 H 0.61169 0.83111 0.94955 0.0
H1593 H 0.56814 0.91209 0.91049 0.0
H1594 H 0.55364 0.78345 0.95532 0.0
H1595 H 0.55297 0.80363 0.98896 0.0
H1596 H 0.58708 0.79152 0.97382 0.0
H1597 H 0.50029 0.88382 0.90696 0.0
H1598 H 0.51805 0.92061 0.91255 0.0
H1599 H 0.5 0.90141 0.94181 0.0
C1600 C 0.9922 0.08222 0.42402 0.0
C1601 C 0.96589 0.09926 0.42014 0.0
C1602 C 0.01793 0.09749 0.43104 0.0
C1603 C 0.01751 0.13069 0.43451 0.0
C1604 C 0.99093 0.14793 0.43146 0.0
C1605 C 0.96554 0.13209 0.42428 0.0
C1606 C 0.0457 0.07812 0.43417 0.0
C1607 C 0.9894 0.18333 0.43511 0.0
C1608 C 0.07903 0.17115 0.474 0.0
C1609 C 0.09434 0.18406 0.45103 0.0
C1610 C 0.05446 0.15306 0.469 0.0
C1611 C 0.04495 0.1476 0.4403 0.0
C1612 C 0.0611 0.15942 0.41705 0.0
C1613 C 0.08555 0.17748 0.42268 0.0
C1614 C 0.03806 0.14087 0.49446 0.0
C1615 C 0.052 0.15391 0.38613 0.0
H1616 H 0.99276 0.05681 0.42144 0.0
H1617 H 0.94553 0.14564 0.42105 0.0
H1618 H 0.06113 0.08565 0.41758 0.0
H1619 H 0.05592 0.08219 0.45556 0.0
H1620 H 0.04228 0.05241 0.43182 0.0
H1621 H 0.96694 0.19313 0.43338 0.0
H1622 H 0.99865 0.18968 0.45642 0.0
H1623 H 1.0025 0.1948 0.41837 0.0
H1624 H 0.08568 0.17607 0.49599 0.0
H1625 H 0.09726 0.1873 0.40481 0.0
H1626 H 0.03452 0.11521 0.49231 0.0
H1627 H 0.0165 0.15292 0.49505 0.0
H1628 H 0.0495 0.14492 0.51529 0.0
H1629 H 0.04954 0.12828 0.3824 0.0
H1630 H 0.06772 0.16308 0.37053 0.0
H1631 H 0.03068 0.16573 0.38168 0.0
loop_
_geom_bond_atom_site_label_1
_geom_bond_atom_site_label_2
_geom_bond_distance
_geom_bond_site_symmetry_2
_ccdc_geom_bond_type
Sm0 C2 2.846 . S
Sm0 O20 2.543 . S
Sm0 O21 2.450 . S
Sm0 O22 2.681 . S
Sm0 O23 2.464 . S
Sm0 O24 2.396 . S
Sm0 O28 2.386 . S
Sm0 O31 2.408 . S
Sm1 C11 2.846 . S
Sm1 O22 2.386 . S
Sm1 O25 2.408 . S
Sm1 O26 2.543 . S
Sm1 O27 2.450 . S
Sm1 O28 2.681 . S
Sm1 O29 2.464 . S
Sm1 O30 2.396 . S
C2 Sm0 2.846 . S
C2 C3 1.506 . S
C2 O20 1.261 . S
C2 O21 1.242 . S
C3 C2 1.506 . S
C3 C4 1.358 . S
C3 C8 1.382 . S
C4 C3 1.358 . S
C4 C5 1.385 . S
C4 H32 0.930 . S
C5 C4 1.385 . S
C5 C6 1.395 . S
C5 H33 0.929 . S
C6 C5 1.395 . S
C6 C7 1.335 . S
C7 C6 1.335 . S
C7 C8 1.398 . S
C7 H34 0.930 . S
C8 C3 1.382 . S
C8 C7 1.398 . S
C8 H35 0.929 . S
C9 O22 1.271 . S
C9 O23 1.251 . S
C10 O24 1.252 . S
C10 O25 1.272 . S
C11 Sm1 2.846 . S
C11 C12 1.506 . S
C11 O26 1.261 . S
C11 O27 1.242 . S
C12 C11 1.506 . S
C12 C13 1.358 . S
C12 C17 1.382 . S
C13 C12 1.358 . S
C13 C14 1.385 . S
C13 H36 0.930 . S
C14 C13 1.385 . S
C14 C15 1.395 . S
C14 H37 0.929 . S
C15 C14 1.395 . S
C15 C16 1.335 . S
C16 C15 1.335 . S
C16 C17 1.398 . S
C16 H38 0.930 . S
C17 C12 1.382 . S
C17 C16 1.398 . S
C17 H39 0.929 . S
C18 O28 1.271 . S
C18 O29 1.251 . S
C19 O30 1.252 . S
C19 O31 1.272 . S
O20 Sm0 2.543 . S
O20 C2 1.261 . S
O21 Sm0 2.450 . S
O21 C2 1.242 . S
O22 Sm0 2.681 . S
O22 Sm1 2.386 . S
O22 C9 1.271 . S
O23 Sm0 2.464 . S
O23 C9 1.251 . S
O24 Sm0 2.396 . S
O24 C10 1.252 . S
O25 Sm1 2.408 . S
O25 C10 1.272 . S
O26 Sm1 2.543 . S
O26 C11 1.261 . S
O27 Sm1 2.450 . S
O27 C11 1.242 . S
O28 Sm0 2.386 . S
O28 Sm1 2.681 . S
O28 C18 1.271 . S
O29 Sm1 2.464 . S
O29 C18 1.251 . S
O30 Sm1 2.396 . S
O30 C19 1.252 . S
O31 Sm0 2.408 . S
O31 C19 1.272 . S
H32 C4 0.930 . S
H33 C5 0.929 . S
H34 C7 0.930 . S
H35 C8 0.929 . S
H36 C13 0.930 . S
H37 C14 0.929 . S
H38 C16 0.930 . S
H39 C17 0.929 . S
Sm40 C42 2.846 . S
Sm40 O60 2.543 . S
Sm40 O61 2.450 . S
Sm40 O62 2.681 1_655 S
Sm40 O63 2.464 1_655 S
Sm40 O64 2.396 1_655 S
Sm40 O68 2.386 . S
Sm40 O71 2.408 . S
Sm41 C51 2.846 . S
Sm41 O62 2.386 . S
Sm41 O65 2.408 . S
Sm41 O66 2.543 . S
Sm41 O67 2.450 . S
Sm41 O68 2.681 1_455 S
Sm41 O69 2.464 . S
Sm41 O70 2.396 . S
C42 Sm40 2.846 . S
C42 C43 1.506 . S
C42 O60 1.261 . S
C42 O61 1.242 . S
C43 C42 1.506 . S
C43 C44 1.358 . S
C43 C48 1.382 . S
C44 C43 1.358 . S
C44 C45 1.385 . S
C44 H72 0.930 . S
C45 C44 1.385 . S
C45 C46 1.395 . S
C45 H73 0.929 . S
C46 C45 1.395 . S
C46 C47 1.335 . S
C47 C46 1.335 . S
C47 C48 1.398 . S
C47 H74 0.930 . S
C48 C43 1.382 . S
C48 C47 1.398 . S
C48 H75 0.929 . S
C49 O62 1.271 . S
C49 O63 1.251 . S
C50 O64 1.252 . S
C50 O65 1.272 . S
C51 Sm41 2.846 . S
C51 C52 1.506 . S
C51 O66 1.261 . S
C51 O67 1.242 . S
C52 C51 1.506 . S
C52 C53 1.358 . S
C52 C57 1.382 . S
C53 C52 1.358 . S
C53 C54 1.385 . S
C53 H76 0.930 . S
C54 C53 1.385 . S
C54 C55 1.395 . S
C54 H77 0.929 . S
C55 C54 1.395 . S
C55 C56 1.335 . S
C56 C55 1.335 . S
C56 C57 1.398 . S
C56 H78 0.930 . S
C57 C52 1.382 . S
C57 C56 1.398 . S
C57 H79 0.929 . S
C58 O68 1.271 . S
C58 O69 1.251 1_655 S
C59 O70 1.252 1_655 S
C59 O71 1.272 . S
O60 Sm40 2.543 . S
O60 C42 1.261 . S
O61 Sm40 2.450 . S
O61 C42 1.242 . S
O62 Sm40 2.681 1_455 S
O62 Sm41 2.386 . S
O62 C49 1.271 . S
O63 Sm40 2.464 1_455 S
O63 C49 1.251 . S
O64 Sm40 2.396 1_455 S
O64 C50 1.252 . S
O65 Sm41 2.408 . S
O65 C50 1.272 . S
O66 Sm41 2.543 . S
O66 C51 1.261 . S
O67 Sm41 2.450 . S
O67 C51 1.242 . S
O68 Sm40 2.386 . S
O68 Sm41 2.681 1_655 S
O68 C58 1.271 . S
O69 Sm41 2.464 . S
O69 C58 1.251 1_455 S
O70 Sm41 2.396 . S
O70 C59 1.252 1_455 S
O71 Sm40 2.408 . S
O71 C59 1.272 . S
H72 C44 0.930 . S
H73 C45 0.929 . S
H74 C47 0.930 . S
H75 C48 0.929 . S
H76 C53 0.930 . S
H77 C54 0.929 . S
H78 C56 0.930 . S
H79 C57 0.929 . S
Sm80 C82 2.846 . S
Sm80 O100 2.543 . S
Sm80 O101 2.450 . S
Sm80 O102 2.681 1_554 S
Sm80 O103 2.464 1_554 S
Sm80 O104 2.396 1_554 S
Sm80 O108 2.386 . S
Sm80 O111 2.408 . S
Sm81 C91 2.846 . S
Sm81 O102 2.386 . S
Sm81 O105 2.408 . S
Sm81 O106 2.543 . S
Sm81 O107 2.450 . S
Sm81 O108 2.681 1_556 S
Sm81 O109 2.464 . S
Sm81 O110 2.396 . S
C82 Sm80 2.846 . S
C82 C83 1.506 . S
C82 O100 1.261 . S
C82 O101 1.242 . S
C83 C82 1.506 . S
C83 C84 1.358 . S
C83 C88 1.382 . S
C84 C83 1.358 . S
C84 C85 1.385 . S
C84 H112 0.930 . S
C85 C84 1.385 . S
C85 C86 1.395 . S
C85 H113 0.929 . S
C86 C85 1.395 . S
C86 C87 1.335 . S
C87 C86 1.335 . S
C87 C88 1.398 . S
C87 H114 0.930 . S
C88 C83 1.382 . S
C88 C87 1.398 . S
C88 H115 0.929 . S
C89 O102 1.271 . S
C89 O103 1.251 . S
C90 O104 1.252 . S
C90 O105 1.272 . S
C91 Sm81 2.846 . S
C91 C92 1.506 . S
C91 O106 1.261 . S
C91 O107 1.242 . S
C92 C91 1.506 . S
C92 C93 1.358 . S
C92 C97 1.382 . S
C93 C92 1.358 . S
C93 C94 1.385 . S
C93 H116 0.930 . S
C94 C93 1.385 . S
C94 C95 1.395 . S
C94 H117 0.929 . S
C95 C94 1.395 . S
C95 C96 1.335 . S
C96 C95 1.335 . S
C96 C97 1.398 . S
C96 H118 0.930 . S
C97 C92 1.382 . S
C97 C96 1.398 . S
C97 H119 0.929 . S
C98 O108 1.271 . S
C98 O109 1.251 1_554 S
C99 O110 1.252 1_554 S
C99 O111 1.272 . S
O100 Sm80 2.543 . S
O100 C82 1.261 . S
O101 Sm80 2.450 . S
O101 C82 1.242 . S
O102 Sm80 2.681 1_556 S
O102 Sm81 2.386 . S
O102 C89 1.271 . S
O103 Sm80 2.464 1_556 S
O103 C89 1.251 . S
O104 Sm80 2.396 1_556 S
O104 C90 1.252 . S
O105 Sm81 2.408 . S
O105 C90 1.272 . S
O106 Sm81 2.543 . S
O106 C91 1.261 . S
O107 Sm81 2.450 . S
O107 C91 1.242 . S
O108 Sm80 2.386 . S
O108 Sm81 2.681 1_554 S
O108 C98 1.271 . S
O109 Sm81 2.464 . S
O109 C98 1.251 1_556 S
O110 Sm81 2.396 . S
O110 C99 1.252 1_556 S
O111 Sm80 2.408 . S
O111 C99 1.272 . S
H112 C84 0.930 . S
H113 C85 0.929 . S
H114 C87 0.930 . S
H115 C88 0.929 . S
H116 C93 0.930 . S
H117 C94 0.929 . S
H118 C96 0.930 . S
H119 C97 0.929 . S
Sm120 C122 2.846 . S
Sm120 O140 2.543 . S
Sm120 O141 2.450 . S
Sm120 O142 2.681 . S
Sm120 O143 2.464 . S
Sm120 O144 2.396 . S
Sm120 O148 2.386 . S
Sm120 O151 2.408 . S
Sm121 C131 2.846 . S
Sm121 O142 2.386 . S
Sm121 O145 2.408 . S
Sm121 O146 2.543 . S
Sm121 O147 2.450 . S
Sm121 O148 2.681 . S
Sm121 O149 2.464 . S
Sm121 O150 2.396 . S
C122 Sm120 2.846 . S
C122 C123 1.506 . S
C122 O140 1.261 . S
C122 O141 1.242 . S
C123 C122 1.506 . S
C123 C124 1.358 . S
C123 C128 1.382 . S
C124 C123 1.358 . S
C124 C125 1.385 . S
C124 H152 0.930 . S
C125 C124 1.385 . S
C125 C126 1.395 . S
C125 H153 0.929 . S
C126 C125 1.395 . S
C126 C127 1.335 . S
C127 C126 1.335 . S
C127 C128 1.398 . S
C127 H154 0.930 . S
C128 C123 1.382 . S
C128 C127 1.398 . S
C128 H155 0.929 . S
C129 O142 1.271 . S
C129 O143 1.251 . S
C130 O144 1.252 . S
C130 O145 1.272 . S
C131 Sm121 2.846 . S
C131 C132 1.506 . S
C131 O146 1.261 . S
C131 O147 1.242 . S
C132 C131 1.506 . S
C132 C133 1.358 . S
C132 C137 1.382 . S
C133 C132 1.358 . S
C133 C134 1.385 . S
C133 H156 0.930 . S
C134 C133 1.385 . S
C134 C135 1.395 . S
C134 H157 0.929 . S
C135 C134 1.395 . S
C135 C136 1.335 . S
C136 C135 1.335 . S
C136 C137 1.398 . S
C136 H158 0.930 . S
C137 C132 1.382 . S
C137 C136 1.398 . S
C137 H159 0.929 . S
C138 O148 1.271 . S
C138 O149 1.251 . S
C139 O150 1.252 . S
C139 O151 1.272 . S
O140 Sm120 2.543 . S
O140 C122 1.261 . S
O141 Sm120 2.450 . S
O141 C122 1.242 . S
O142 Sm120 2.681 . S
O142 Sm121 2.386 . S
O142 C129 1.271 . S
O143 Sm120 2.464 . S
O143 C129 1.251 . S
O144 Sm120 2.396 . S
O144 C130 1.252 . S
O145 Sm121 2.408 . S
O145 C130 1.272 . S
O146 Sm121 2.543 . S
O146 C131 1.261 . S
O147 Sm121 2.450 . S
O147 C131 1.242 . S
O148 Sm120 2.386 . S
O148 Sm121 2.681 . S
O148 C138 1.271 . S
O149 Sm121 2.464 . S
O149 C138 1.251 . S
O150 Sm121 2.396 . S
O150 C139 1.252 . S
O151 Sm120 2.408 . S
O151 C139 1.272 . S
H152 C124 0.930 . S
H153 C125 0.929 . S
H154 C127 0.930 . S
H155 C128 0.929 . S
H156 C133 0.930 . S
H157 C134 0.929 . S
H158 C136 0.930 . S
H159 C137 0.929 . S
Sm160 C162 2.846 . S
Sm160 O180 2.543 . S
Sm160 O181 2.450 . S
Sm160 O182 2.681 . S
Sm160 O183 2.464 . S
Sm160 O184 2.396 . S
Sm160 O188 2.386 . S
Sm160 O191 2.408 . S
Sm161 C171 2.846 . S
Sm161 O182 2.386 . S
Sm161 O185 2.408 . S
Sm161 O186 2.543 . S
Sm161 O187 2.450 . S
Sm161 O188 2.681 . S
Sm161 O189 2.464 . S
Sm161 O190 2.396 . S
C162 Sm160 2.846 . S
C162 C163 1.506 . S
C162 O180 1.261 . S
C162 O181 1.242 . S
C163 C162 1.506 . S
C163 C164 1.358 . S
C163 C168 1.382 . S
C164 C163 1.358 . S
C164 C165 1.385 . S
C164 H192 0.930 . S
C165 C164 1.385 . S
C165 C166 1.395 . S
C165 H193 0.929 . S
C166 C165 1.395 . S
C166 C167 1.335 . S
C167 C166 1.335 . S
C167 C168 1.398 . S
C167 H194 0.930 . S
C168 C163 1.382 . S
C168 C167 1.398 . S
C168 H195 0.929 . S
C169 O182 1.271 . S
C169 O183 1.251 . S
C170 O184 1.252 . S
C170 O185 1.272 . S
C171 Sm161 2.846 . S
C171 C172 1.506 . S
C171 O186 1.261 . S
C171 O187 1.242 . S
C172 C171 1.506 . S
C172 C173 1.358 . S
C172 C177 1.382 . S
C173 C172 1.358 . S
C173 C174 1.385 . S
C173 H196 0.930 . S
C174 C173 1.385 . S
C174 C175 1.395 . S
C174 H197 0.929 . S
C175 C174 1.395 . S
C175 C176 1.335 . S
C176 C175 1.335 . S
C176 C177 1.398 . S
C176 H198 0.930 . S
C177 C172 1.382 . S
C177 C176 1.398 . S
C177 H199 0.929 . S
C178 O188 1.271 . S
C178 O189 1.251 . S
C179 O190 1.252 . S
C179 O191 1.272 . S
O180 Sm160 2.543 . S
O180 C162 1.261 . S
O181 Sm160 2.450 . S
O181 C162 1.242 . S
O182 Sm160 2.681 . S
O182 Sm161 2.386 . S
O182 C169 1.271 . S
O183 Sm160 2.464 . S
O183 C169 1.251 . S
O184 Sm160 2.396 . S
O184 C170 1.252 . S
O185 Sm161 2.408 . S
O185 C170 1.272 . S
O186 Sm161 2.543 . S
O186 C171 1.261 . S
O187 Sm161 2.450 . S
O187 C171 1.242 . S
O188 Sm160 2.386 . S
O188 Sm161 2.681 . S
O188 C178 1.271 . S
O189 Sm161 2.464 . S
O189 C178 1.251 . S
O190 Sm161 2.396 . S
O190 C179 1.252 . S
O191 Sm160 2.408 . S
O191 C179 1.272 . S
H192 C164 0.930 . S
H193 C165 0.929 . S
H194 C167 0.930 . S
H195 C168 0.929 . S
H196 C173 0.930 . S
H197 C174 0.929 . S
H198 C176 0.930 . S
H199 C177 0.929 . S
Sm200 C202 2.846 . S
Sm200 O220 2.543 . S
Sm200 O221 2.450 . S
Sm200 O222 2.681 . S
Sm200 O223 2.464 . S
Sm200 O224 2.396 . S
Sm200 O228 2.386 1_655 S
Sm200 O231 2.408 1_655 S
Sm201 C211 2.846 . S
Sm201 O222 2.386 1_455 S
Sm201 O225 2.408 1_455 S
Sm201 O226 2.543 . S
Sm201 O227 2.450 . S
Sm201 O228 2.681 . S
Sm201 O229 2.464 . S
Sm201 O230 2.396 . S
C202 Sm200 2.846 . S
C202 C203 1.506 . S
C202 O220 1.261 . S
C202 O221 1.242 . S
C203 C202 1.506 . S
C203 C204 1.358 . S
C203 C208 1.382 . S
C204 C203 1.358 . S
C204 C205 1.385 . S
C204 H232 0.930 . S
C205 C204 1.385 . S
C205 C206 1.395 . S
C205 H233 0.929 . S
C206 C205 1.395 . S
C206 C207 1.335 . S
C207 C206 1.335 . S
C207 C208 1.398 . S
C207 H234 0.930 . S
C208 C203 1.382 . S
C208 C207 1.398 . S
C208 H235 0.929 . S
C209 O222 1.271 . S
C209 O223 1.251 . S
C210 O224 1.252 . S
C210 O225 1.272 . S
C211 Sm201 2.846 . S
C211 C212 1.506 . S
C211 O226 1.261 . S
C211 O227 1.242 . S
C212 C211 1.506 . S
C212 C213 1.358 . S
C212 C217 1.382 . S
C213 C212 1.358 . S
C213 C214 1.385 . S
C213 H236 0.930 . S
C214 C213 1.385 . S
C214 C215 1.395 . S
C214 H237 0.929 . S
C215 C214 1.395 . S
C215 C216 1.335 . S
C216 C215 1.335 . S
C216 C217 1.398 . S
C216 H238 0.930 . S
C217 C212 1.382 . S
C217 C216 1.398 . S
C217 H239 0.929 . S
C218 O228 1.271 . S
C218 O229 1.251 . S
C219 O230 1.252 . S
C219 O231 1.272 . S
O220 Sm200 2.543 . S
O220 C202 1.261 . S
O221 Sm200 2.450 . S
O221 C202 1.242 . S
O222 Sm200 2.681 . S
O222 Sm201 2.386 1_655 S
O222 C209 1.271 . S
O223 Sm200 2.464 . S
O223 C209 1.251 . S
O224 Sm200 2.396 . S
O224 C210 1.252 . S
O225 Sm201 2.408 1_655 S
O225 C210 1.272 . S
O226 Sm201 2.543 . S
O226 C211 1.261 . S
O227 Sm201 2.450 . S
O227 C211 1.242 . S
O228 Sm200 2.386 1_455 S
O228 Sm201 2.681 . S
O228 C218 1.271 . S
O229 Sm201 2.464 . S
O229 C218 1.251 . S
O230 Sm201 2.396 . S
O230 C219 1.252 . S
O231 Sm200 2.408 1_455 S
O231 C219 1.272 . S
H232 C204 0.930 . S
H233 C205 0.929 . S
H234 C207 0.930 . S
H235 C208 0.929 . S
H236 C213 0.930 . S
H237 C214 0.929 . S
H238 C216 0.930 . S
H239 C217 0.929 . S
Sm240 C242 2.846 . S
Sm240 O260 2.543 . S
Sm240 O261 2.450 . S
Sm240 O262 2.681 . S
Sm240 O263 2.464 . S
Sm240 O264 2.396 . S
Sm240 O268 2.386 . S
Sm240 O271 2.408 1_554 S
Sm241 C251 2.846 . S
Sm241 O262 2.386 1_556 S
Sm241 O265 2.408 1_556 S
Sm241 O266 2.543 . S
Sm241 O267 2.450 . S
Sm241 O268 2.681 1_556 S
Sm241 O269 2.464 . S
Sm241 O270 2.396 . S
C242 Sm240 2.846 . S
C242 C243 1.506 . S
C242 O260 1.261 . S
C242 O261 1.242 . S
C243 C242 1.506 . S
C243 C244 1.358 . S
C243 C248 1.382 . S
C244 C243 1.358 . S
C244 C245 1.385 . S
C244 H272 0.930 . S
C245 C244 1.385 . S
C245 C246 1.395 . S
C245 H273 0.929 . S
C246 C245 1.395 . S
C246 C247 1.335 . S
C247 C246 1.335 . S
C247 C248 1.398 . S
C247 H274 0.930 . S
C248 C243 1.382 . S
C248 C247 1.398 . S
C248 H275 0.929 . S
C249 O262 1.271 . S
C249 O263 1.251 . S
C250 O264 1.252 . S
C250 O265 1.272 . S
C251 Sm241 2.846 . S
C251 C252 1.506 . S
C251 O266 1.261 . S
C251 O267 1.242 . S
C252 C251 1.506 . S
C252 C253 1.358 . S
C252 C257 1.382 . S
C253 C252 1.358 . S
C253 C254 1.385 . S
C253 H276 0.930 . S
C254 C253 1.385 . S
C254 C255 1.395 . S
C254 H277 0.929 . S
C255 C254 1.395 . S
C255 C256 1.335 . S
C256 C255 1.335 . S
C256 C257 1.398 . S
C256 H278 0.930 . S
C257 C252 1.382 . S
C257 C256 1.398 . S
C257 H279 0.929 . S
C258 O268 1.271 1_556 S
C258 O269 1.251 . S
C259 O270 1.252 . S
C259 O271 1.272 . S
O260 Sm240 2.543 . S
O260 C242 1.261 . S
O261 Sm240 2.450 . S
O261 C242 1.242 . S
O262 Sm240 2.681 . S
O262 Sm241 2.386 1_554 S
O262 C249 1.271 . S
O263 Sm240 2.464 . S
O263 C249 1.251 . S
O264 Sm240 2.396 . S
O264 C250 1.252 . S
O265 Sm241 2.408 1_554 S
O265 C250 1.272 . S
O266 Sm241 2.543 . S
O266 C251 1.261 . S
O267 Sm241 2.450 . S
O267 C251 1.242 . S
O268 Sm240 2.386 . S
O268 Sm241 2.681 1_554 S
O268 C258 1.271 1_554 S
O269 Sm241 2.464 . S
O269 C258 1.251 . S
O270 Sm241 2.396 . S
O270 C259 1.252 . S
O271 Sm240 2.408 1_556 S
O271 C259 1.272 . S
H272 C244 0.930 . S
H273 C245 0.929 . S
H274 C247 0.930 . S
H275 C248 0.929 . S
H276 C253 0.930 . S
H277 C254 0.929 . S
H278 C256 0.930 . S
H279 C257 0.929 . S
Sm280 C282 2.846 . S
Sm280 O300 2.543 . S
Sm280 O301 2.450 . S
Sm280 O302 2.681 . S
Sm280 O303 2.464 . S
Sm280 O304 2.396 . S
Sm280 O308 2.386 . S
Sm280 O311 2.408 . S
Sm281 C291 2.846 . S
Sm281 O302 2.386 . S
Sm281 O305 2.408 . S
Sm281 O306 2.543 . S
Sm281 O307 2.450 . S
Sm281 O308 2.681 . S
Sm281 O309 2.464 . S
Sm281 O310 2.396 . S
C282 Sm280 2.846 . S
C282 C283 1.506 . S
C282 O300 1.261 . S
C282 O301 1.242 . S
C283 C282 1.506 . S
C283 C284 1.358 . S
C283 C288 1.382 . S
C284 C283 1.358 . S
C284 C285 1.385 . S
C284 H312 0.930 . S
C285 C284 1.385 . S
C285 C286 1.395 . S
C285 H313 0.929 . S
C286 C285 1.395 . S
C286 C287 1.335 . S
C287 C286 1.335 . S
C287 C288 1.398 . S
C287 H314 0.930 . S
C288 C283 1.382 . S
C288 C287 1.398 . S
C288 H315 0.929 . S
C289 O302 1.271 . S
C289 O303 1.251 . S
C290 O304 1.252 . S
C290 O305 1.272 . S
C291 Sm281 2.846 . S
C291 C292 1.506 . S
C291 O306 1.261 . S
C291 O307 1.242 . S
C292 C291 1.506 . S
C292 C293 1.358 . S
C292 C297 1.382 . S
C293 C292 1.358 . S
C293 C294 1.385 . S
C293 H316 0.930 . S
C294 C293 1.385 . S
C294 C295 1.395 . S
C294 H317 0.929 . S
C295 C294 1.395 . S
C295 C296 1.335 . S
C296 C295 1.335 . S
C296 C297 1.398 . S
C296 H318 0.930 . S
C297 C292 1.382 . S
C297 C296 1.398 . S
C297 H319 0.929 . S
C298 O308 1.271 . S
C298 O309 1.251 . S
C299 O310 1.252 . S
C299 O311 1.272 . S
O300 Sm280 2.543 . S
O300 C282 1.261 . S
O301 Sm280 2.450 . S
O301 C282 1.242 . S
O302 Sm280 2.681 . S
O302 Sm281 2.386 . S
O302 C289 1.271 . S
O303 Sm280 2.464 . S
O303 C289 1.251 . S
O304 Sm280 2.396 . S
O304 C290 1.252 . S
O305 Sm281 2.408 . S
O305 C290 1.272 . S
O306 Sm281 2.543 . S
O306 C291 1.261 . S
O307 Sm281 2.450 . S
O307 C291 1.242 . S
O308 Sm280 2.386 . S
O308 Sm281 2.681 . S
O308 C298 1.271 . S
O309 Sm281 2.464 . S
O309 C298 1.251 . S
O310 Sm281 2.396 . S
O310 C299 1.252 . S
O311 Sm280 2.408 . S
O311 C299 1.272 . S
H312 C284 0.930 . S
H313 C285 0.929 . S
H314 C287 0.930 . S
H315 C288 0.929 . S
H316 C293 0.930 . S
H317 C294 0.929 . S
H318 C296 0.930 . S
H319 C297 0.929 . S
Sm320 C322 2.846 . S
Sm320 O340 2.543 . S
Sm320 O341 2.450 . S
Sm320 O342 2.681 . S
Sm320 O343 2.464 . S
Sm320 O344 2.396 . S
Sm320 O348 2.386 . S
Sm320 O351 2.408 . S
Sm321 C331 2.846 . S
Sm321 O342 2.386 . S
Sm321 O345 2.408 . S
Sm321 O346 2.543 . S
Sm321 O347 2.450 . S
Sm321 O348 2.681 . S
Sm321 O349 2.464 . S
Sm321 O350 2.396 . S
C322 Sm320 2.846 . S
C322 C323 1.506 . S
C322 O340 1.261 . S
C322 O341 1.242 . S
C323 C322 1.506 . S
C323 C324 1.358 . S
C323 C328 1.382 . S
C324 C323 1.358 . S
C324 C325 1.385 . S
C324 H352 0.930 . S
C325 C324 1.385 . S
C325 C326 1.395 . S
C325 H353 0.929 . S
C326 C325 1.395 . S
C326 C327 1.335 . S
C327 C326 1.335 . S
C327 C328 1.398 . S
C327 H354 0.930 . S
C328 C323 1.382 . S
C328 C327 1.398 . S
C328 H355 0.929 . S
C329 O342 1.271 . S
C329 O343 1.251 . S
C330 O344 1.252 . S
C330 O345 1.272 . S
C331 Sm321 2.846 . S
C331 C332 1.506 . S
C331 O346 1.261 . S
C331 O347 1.242 . S
C332 C331 1.506 . S
C332 C333 1.358 . S
C332 C337 1.382 . S
C333 C332 1.358 . S
C333 C334 1.385 . S
C333 H356 0.930 . S
C334 C333 1.385 . S
C334 C335 1.395 . S
C334 H357 0.929 . S
C335 C334 1.395 . S
C335 C336 1.335 . S
C336 C335 1.335 . S
C336 C337 1.398 . S
C336 H358 0.930 . S
C337 C332 1.382 . S
C337 C336 1.398 . S
C337 H359 0.929 . S
C338 O348 1.271 . S
C338 O349 1.251 . S
C339 O350 1.252 . S
C339 O351 1.272 . S
O340 Sm320 2.543 . S
O340 C322 1.261 . S
O341 Sm320 2.450 . S
O341 C322 1.242 . S
O342 Sm320 2.681 . S
O342 Sm321 2.386 . S
O342 C329 1.271 . S
O343 Sm320 2.464 . S
O343 C329 1.251 . S
O344 Sm320 2.396 . S
O344 C330 1.252 . S
O345 Sm321 2.408 . S
O345 C330 1.272 . S
O346 Sm321 2.543 . S
O346 C331 1.261 . S
O347 Sm321 2.450 . S
O347 C331 1.242 . S
O348 Sm320 2.386 . S
O348 Sm321 2.681 . S
O348 C338 1.271 . S
O349 Sm321 2.464 . S
O349 C338 1.251 . S
O350 Sm321 2.396 . S
O350 C339 1.252 . S
O351 Sm320 2.408 . S
O351 C339 1.272 . S
H352 C324 0.930 . S
H353 C325 0.929 . S
H354 C327 0.930 . S
H355 C328 0.929 . S
H356 C333 0.930 . S
H357 C334 0.929 . S
H358 C336 0.930 . S
H359 C337 0.929 . S
Sm360 C362 2.846 . S
Sm360 O380 2.543 . S
Sm360 O381 2.450 . S
Sm360 O382 2.681 1_565 S
Sm360 O383 2.464 1_565 S
Sm360 O384 2.396 1_565 S
Sm360 O388 2.386 . S
Sm360 O391 2.408 . S
Sm361 C371 2.846 . S
Sm361 O382 2.386 . S
Sm361 O385 2.408 . S
Sm361 O386 2.543 . S
Sm361 O387 2.450 . S
Sm361 O388 2.681 1_545 S
Sm361 O389 2.464 1_545 S
Sm361 O390 2.396 1_545 S
C362 Sm360 2.846 . S
C362 C363 1.506 . S
C362 O380 1.261 . S
C362 O381 1.242 . S
C363 C362 1.506 . S
C363 C364 1.358 . S
C363 C368 1.382 . S
C364 C363 1.358 . S
C364 C365 1.385 . S
C364 H392 0.930 . S
C365 C364 1.385 . S
C365 C366 1.395 . S
C365 H393 0.929 . S
C366 C365 1.395 . S
C366 C367 1.335 . S
C367 C366 1.335 . S
C367 C368 1.398 . S
C367 H394 0.930 . S
C368 C363 1.382 . S
C368 C367 1.398 . S
C368 H395 0.929 . S
C369 O382 1.271 . S
C369 O383 1.251 . S
C370 O384 1.252 . S
C370 O385 1.272 . S
C371 Sm361 2.846 . S
C371 C372 1.506 . S
C371 O386 1.261 . S
C371 O387 1.242 . S
C372 C371 1.506 . S
C372 C373 1.358 . S
C372 C377 1.382 . S
C373 C372 1.358 . S
C373 C374 1.385 . S
C373 H396 0.930 . S
C374 C373 1.385 . S
C374 C375 1.395 . S
C374 H397 0.929 . S
C375 C374 1.395 . S
C375 C376 1.335 . S
C376 C375 1.335 . S
C376 C377 1.398 . S
C376 H398 0.930 . S
C377 C372 1.382 . S
C377 C376 1.398 . S
C377 H399 0.929 . S
C378 O388 1.271 . S
C378 O389 1.251 . S
C379 O390 1.252 . S
C379 O391 1.272 . S
O380 Sm360 2.543 . S
O380 C362 1.261 . S
O381 Sm360 2.450 . S
O381 C362 1.242 . S
O382 Sm360 2.681 1_545 S
O382 Sm361 2.386 . S
O382 C369 1.271 . S
O383 Sm360 2.464 1_545 S
O383 C369 1.251 . S
O384 Sm360 2.396 1_545 S
O384 C370 1.252 . S
O385 Sm361 2.408 . S
O385 C370 1.272 . S
O386 Sm361 2.543 . S
O386 C371 1.261 . S
O387 Sm361 2.450 . S
O387 C371 1.242 . S
O388 Sm360 2.386 . S
O388 Sm361 2.681 1_565 S
O388 C378 1.271 . S
O389 Sm361 2.464 1_565 S
O389 C378 1.251 . S
O390 Sm361 2.396 1_565 S
O390 C379 1.252 . S
O391 Sm360 2.408 . S
O391 C379 1.272 . S
H392 C364 0.930 . S
H393 C365 0.929 . S
H394 C367 0.930 . S
H395 C368 0.929 . S
H396 C373 0.930 . S
H397 C374 0.929 . S
H398 C376 0.930 . S
H399 C377 0.929 . S
Sm400 C402 2.846 . S
Sm400 O420 2.543 . S
Sm400 O421 2.450 . S
Sm400 O422 2.681 . S
Sm400 O423 2.464 . S
Sm400 O424 2.396 . S
Sm400 O428 2.386 1_565 S
Sm400 O431 2.408 1_565 S
Sm401 C411 2.846 . S
Sm401 O422 2.386 1_545 S
Sm401 O425 2.408 1_545 S
Sm401 O426 2.543 . S
Sm401 O427 2.450 . S
Sm401 O428 2.681 . S
Sm401 O429 2.464 . S
Sm401 O430 2.396 . S
C402 Sm400 2.846 . S
C402 C403 1.506 . S
C402 O420 1.261 . S
C402 O421 1.242 . S
C403 C402 1.506 . S
C403 C404 1.358 . S
C403 C408 1.382 . S
C404 C403 1.358 . S
C404 C405 1.385 . S
C404 H432 0.930 . S
C405 C404 1.385 . S
C405 C406 1.395 . S
C405 H433 0.929 . S
C406 C405 1.395 . S
C406 C407 1.335 . S
C407 C406 1.335 . S
C407 C408 1.398 . S
C407 H434 0.930 . S
C408 C403 1.382 . S
C408 C407 1.398 . S
C408 H435 0.929 . S
C409 O422 1.271 . S
C409 O423 1.251 . S
C410 O424 1.252 . S
C410 O425 1.272 . S
C411 Sm401 2.846 . S
C411 C412 1.506 . S
C411 O426 1.261 . S
C411 O427 1.242 . S
C412 C411 1.506 . S
C412 C413 1.358 . S
C412 C417 1.382 . S
C413 C412 1.358 . S
C413 C414 1.385 . S
C413 H436 0.930 . S
C414 C413 1.385 . S
C414 C415 1.395 . S
C414 H437 0.929 . S
C415 C414 1.395 . S
C415 C416 1.335 . S
C416 C415 1.335 . S
C416 C417 1.398 . S
C416 H438 0.930 . S
C417 C412 1.382 . S
C417 C416 1.398 . S
C417 H439 0.929 . S
C418 O428 1.271 . S
C418 O429 1.251 . S
C419 O430 1.252 . S
C419 O431 1.272 . S
O420 Sm400 2.543 . S
O420 C402 1.261 . S
O421 Sm400 2.450 . S
O421 C402 1.242 . S
O422 Sm400 2.681 . S
O422 Sm401 2.386 1_565 S
O422 C409 1.271 . S
O423 Sm400 2.464 . S
O423 C409 1.251 . S
O424 Sm400 2.396 . S
O424 C410 1.252 . S
O425 Sm401 2.408 1_565 S
O425 C410 1.272 . S
O426 Sm401 2.543 . S
O426 C411 1.261 . S
O427 Sm401 2.450 . S
O427 C411 1.242 . S
O428 Sm400 2.386 1_545 S
O428 Sm401 2.681 . S
O428 C418 1.271 . S
O429 Sm401 2.464 . S
O429 C418 1.251 . S
O430 Sm401 2.396 . S
O430 C419 1.252 . S
O431 Sm400 2.408 1_545 S
O431 C419 1.272 . S
H432 C404 0.930 . S
H433 C405 0.929 . S
H434 C407 0.930 . S
H435 C408 0.929 . S
H436 C413 0.930 . S
H437 C414 0.929 . S
H438 C416 0.930 . S
H439 C417 0.929 . S
Sm440 C442 2.846 . S
Sm440 O460 2.543 . S
Sm440 O461 2.450 . S
Sm440 O462 2.681 . S
Sm440 O463 2.464 . S
Sm440 O464 2.396 . S
Sm440 O468 2.386 . S
Sm440 O471 2.408 . S
Sm441 C451 2.846 . S
Sm441 O462 2.386 . S
Sm441 O465 2.408 . S
Sm441 O466 2.543 . S
Sm441 O467 2.450 . S
Sm441 O468 2.681 . S
Sm441 O469 2.464 . S
Sm441 O470 2.396 . S
C442 Sm440 2.846 . S
C442 C443 1.506 . S
C442 O460 1.261 . S
C442 O461 1.242 . S
C443 C442 1.506 . S
C443 C444 1.358 . S
C443 C448 1.382 . S
C444 C443 1.358 . S
C444 C445 1.385 . S
C444 H472 0.930 . S
C445 C444 1.385 . S
C445 C446 1.395 . S
C445 H473 0.929 . S
C446 C445 1.395 . S
C446 C447 1.335 . S
C447 C446 1.335 . S
C447 C448 1.398 . S
C447 H474 0.930 . S
C448 C443 1.382 . S
C448 C447 1.398 . S
C448 H475 0.929 . S
C449 O462 1.271 . S
C449 O463 1.251 . S
C450 O464 1.252 . S
C450 O465 1.272 . S
C451 Sm441 2.846 . S
C451 C452 1.506 . S
C451 O466 1.261 . S
C451 O467 1.242 . S
C452 C451 1.506 . S
C452 C453 1.358 . S
C452 C457 1.382 . S
C453 C452 1.358 . S
C453 C454 1.385 . S
C453 H476 0.930 . S
C454 C453 1.385 . S
C454 C455 1.395 . S
C454 H477 0.929 . S
C455 C454 1.395 . S
C455 C456 1.335 . S
C456 C455 1.335 . S
C456 C457 1.398 . S
C456 H478 0.930 . S
C457 C452 1.382 . S
C457 C456 1.398 . S
C457 H479 0.929 . S
C458 O468 1.271 . S
C458 O469 1.251 . S
C459 O470 1.252 . S
C459 O471 1.272 . S
O460 Sm440 2.543 . S
O460 C442 1.261 . S
O461 Sm440 2.450 . S
O461 C442 1.242 . S
O462 Sm440 2.681 . S
O462 Sm441 2.386 . S
O462 C449 1.271 . S
O463 Sm440 2.464 . S
O463 C449 1.251 . S
O464 Sm440 2.396 . S
O464 C450 1.252 . S
O465 Sm441 2.408 . S
O465 C450 1.272 . S
O466 Sm441 2.543 . S
O466 C451 1.261 . S
O467 Sm441 2.450 . S
O467 C451 1.242 . S
O468 Sm440 2.386 . S
O468 Sm441 2.681 . S
O468 C458 1.271 . S
O469 Sm441 2.464 . S
O469 C458 1.251 . S
O470 Sm441 2.396 . S
O470 C459 1.252 . S
O471 Sm440 2.408 . S
O471 C459 1.272 . S
H472 C444 0.930 . S
H473 C445 0.929 . S
H474 C447 0.930 . S
H475 C448 0.929 . S
H476 C453 0.930 . S
H477 C454 0.929 . S
H478 C456 0.930 . S
H479 C457 0.929 . S
C480 C481 1.391 . S
C480 C482 1.394 . S
C480 H496 0.931 . S
C481 C480 1.391 . S
C481 C485 1.376 . S
C482 C480 1.394 . S
C482 C483 1.369 . S
C482 C486 1.531 . S
C483 C482 1.369 . S
C483 C484 1.410 . S
C483 C491 1.503 . S
C484 C483 1.410 . S
C484 C485 1.392 . S
C484 C487 1.511 . S
C485 C481 1.376 . S
C485 C484 1.392 . S
C485 H497 0.929 . S
C486 C482 1.531 . S
C486 H498 0.960 . S
C486 H499 0.962 . S
C486 H500 0.960 . S
C487 C484 1.511 . S
C487 H501 0.961 . S
C487 H502 0.961 . S
C487 H503 0.961 . S
C488 C489 1.370 . S
C488 C490 1.363 . S
C488 H504 0.931 . S
C489 C488 1.370 . S
C489 C493 1.408 . S
C490 C488 1.363 . S
C490 C491 1.370 . S
C490 C494 1.524 . S
C491 C483 1.503 . S
C491 C490 1.370 . S
C491 C492 1.403 . S
C492 C491 1.403 . S
C492 C493 1.404 . S
C492 C495 1.539 . S
C493 C489 1.408 . S
C493 C492 1.404 . S
C493 H505 0.930 . S
C494 C490 1.524 . S
C494 H506 0.956 . S
C494 H507 0.961 . S
C494 H508 0.961 . S
C495 C492 1.539 . S
C495 H509 0.958 . S
C495 H510 0.961 . S
C495 H511 0.960 . S
H496 C480 0.931 . S
H497 C485 0.929 . S
H498 C486 0.960 . S
H499 C486 0.962 . S
H500 C486 0.960 . S
H501 C487 0.961 . S
H502 C487 0.961 . S
H503 C487 0.961 . S
H504 C488 0.931 . S
H505 C493 0.930 . S
H506 C494 0.956 . S
H507 C494 0.961 . S
H508 C494 0.961 . S
H509 C495 0.958 . S
H510 C495 0.961 . S
H511 C495 0.960 . S
C512 C513 1.391 . S
C512 C514 1.394 . S
C512 H528 0.931 1_565 S
C513 C512 1.391 . S
C513 C517 1.376 . S
C514 C512 1.394 . S
C514 C515 1.369 . S
C514 C518 1.531 . S
C515 C514 1.369 . S
C515 C516 1.410 . S
C515 C523 1.503 . S
C516 C515 1.410 . S
C516 C517 1.392 . S
C516 C519 1.511 . S
C517 C513 1.376 . S
C517 C516 1.392 . S
C517 H529 0.929 . S
C518 C514 1.531 . S
C518 H530 0.960 . S
C518 H531 0.962 1_565 S
C518 H532 0.960 1_565 S
C519 C516 1.511 . S
C519 H533 0.961 . S
C519 H534 0.961 . S
C519 H535 0.961 . S
C520 C521 1.370 . S
C520 C522 1.363 . S
C520 H536 0.931 . S
C521 C520 1.370 . S
C521 C525 1.408 . S
C522 C520 1.363 . S
C522 C523 1.370 . S
C522 C526 1.524 . S
C523 C515 1.503 . S
C523 C522 1.370 . S
C523 C524 1.403 . S
C524 C523 1.403 . S
C524 C525 1.404 . S
C524 C527 1.539 . S
C525 C521 1.408 . S
C525 C524 1.404 . S
C525 H537 0.930 . S
C526 C522 1.524 . S
C526 H538 0.956 . S
C526 H539 0.961 . S
C526 H540 0.961 . S
C527 C524 1.539 . S
C527 H541 0.958 . S
C527 H542 0.961 . S
C527 H543 0.960 . S
H528 C512 0.931 1_545 S
H529 C517 0.929 . S
H530 C518 0.960 . S
H531 C518 0.962 1_545 S
H532 C518 0.960 1_545 S
H533 C519 0.961 . S
H534 C519 0.961 . S
H535 C519 0.961 . S
H536 C520 0.931 . S
H537 C525 0.930 . S
H538 C526 0.956 . S
H539 C526 0.961 . S
H540 C526 0.961 . S
H541 C527 0.958 . S
H542 C527 0.961 . S
H543 C527 0.960 . S
C544 C545 1.391 . S
C544 C546 1.394 . S
C544 H560 0.931 . S
C545 C544 1.391 . S
C545 C549 1.376 . S
C546 C544 1.394 . S
C546 C547 1.369 . S
C546 C550 1.531 . S
C547 C546 1.369 . S
C547 C548 1.410 . S
C547 C555 1.503 . S
C548 C547 1.410 . S
C548 C549 1.392 . S
C548 C551 1.511 . S
C549 C545 1.376 . S
C549 C548 1.392 . S
C549 H561 0.929 . S
C550 C546 1.531 . S
C550 H562 0.960 . S
C550 H563 0.962 . S
C550 H564 0.960 . S
C551 C548 1.511 . S
C551 H565 0.961 . S
C551 H566 0.961 . S
C551 H567 0.961 . S
C552 C553 1.370 . S
C552 C554 1.363 . S
C552 H568 0.931 . S
C553 C552 1.370 . S
C553 C557 1.408 . S
C554 C552 1.363 . S
C554 C555 1.370 . S
C554 C558 1.524 1_554 S
C555 C547 1.503 . S
C555 C554 1.370 . S
C555 C556 1.403 . S
C556 C555 1.403 . S
C556 C557 1.404 . S
C556 C559 1.539 . S
C557 C553 1.408 . S
C557 C556 1.404 . S
C557 H569 0.930 . S
C558 C554 1.524 1_556 S
C558 H570 0.956 . S
C558 H571 0.961 . S
C558 H572 0.961 . S
C559 C556 1.539 . S
C559 H573 0.958 . S
C559 H574 0.961 . S
C559 H575 0.960 . S
H560 C544 0.931 . S
H561 C549 0.929 . S
H562 C550 0.960 . S
H563 C550 0.962 . S
H564 C550 0.960 . S
H565 C551 0.961 . S
H566 C551 0.961 . S
H567 C551 0.961 . S
H568 C552 0.931 . S
H569 C557 0.930 . S
H570 C558 0.956 . S
H571 C558 0.961 . S
H572 C558 0.961 . S
H573 C559 0.958 . S
H574 C559 0.961 . S
H575 C559 0.960 . S
C576 C577 1.391 . S
C576 C578 1.394 . S
C576 H592 0.931 . S
C577 C576 1.391 . S
C577 C581 1.376 . S
C578 C576 1.394 . S
C578 C579 1.369 . S
C578 C582 1.531 . S
C579 C578 1.369 . S
C579 C580 1.410 . S
C579 C587 1.503 . S
C580 C579 1.410 . S
C580 C581 1.392 . S
C580 C583 1.511 . S
C581 C577 1.376 . S
C581 C580 1.392 . S
C581 H593 0.929 . S
C582 C578 1.531 . S
C582 H594 0.960 . S
C582 H595 0.962 . S
C582 H596 0.960 . S
C583 C580 1.511 . S
C583 H597 0.961 . S
C583 H598 0.961 . S
C583 H599 0.961 . S
C584 C585 1.370 . S
C584 C586 1.363 . S
C584 H600 0.931 . S
C585 C584 1.370 . S
C585 C589 1.408 . S
C586 C584 1.363 . S
C586 C587 1.370 . S
C586 C590 1.524 . S
C587 C579 1.503 . S
C587 C586 1.370 . S
C587 C588 1.403 . S
C588 C587 1.403 . S
C588 C589 1.404 . S
C588 C591 1.539 1_545 S
C589 C585 1.408 . S
C589 C588 1.404 . S
C589 H601 0.930 1_545 S
C590 C586 1.524 . S
C590 H602 0.956 . S
C590 H603 0.961 . S
C590 H604 0.961 . S
C591 C588 1.539 1_565 S
C591 H605 0.958 . S
C591 H606 0.961 . S
C591 H607 0.969 . S
H592 C576 0.931 . S
H593 C581 0.929 . S
H594 C582 0.960 . S
H595 C582 0.962 . S
H596 C582 0.960 . S
H597 C583 0.961 . S
H598 C583 0.961 . S
H599 C583 0.961 . S
H600 C584 0.931 . S
H601 C589 0.930 1_565 S
H602 C590 0.956 . S
H603 C590 0.961 . S
H604 C590 0.961 . S
H605 C591 0.958 . S
H606 C591 0.961 . S
H607 C591 0.969 . S
C608 C609 1.391 . S
C608 C610 1.394 . S
C608 H624 0.931 . S
C609 C608 1.391 . S
C609 C613 1.376 . S
C610 C608 1.394 . S
C610 C611 1.369 . S
C610 C614 1.531 . S
C611 C610 1.369 . S
C611 C612 1.410 . S
C611 C619 1.503 . S
C612 C611 1.410 . S
C612 C613 1.392 . S
C612 C615 1.511 . S
C613 C609 1.376 . S
C613 C612 1.392 . S
C613 H625 0.929 . S
C614 C610 1.531 . S
C614 H626 0.960 . S
C614 H627 0.962 . S
C614 H628 0.960 . S
C615 C612 1.511 . S
C615 H629 0.961 . S
C615 H630 0.961 . S
C615 H631 0.961 . S
C616 C617 1.370 . S
C616 C618 1.363 . S
C616 H632 0.931 . S
C617 C616 1.370 . S
C617 C621 1.408 . S
C618 C616 1.363 . S
C618 C619 1.370 . S
C618 C622 1.524 . S
C619 C611 1.503 . S
C619 C618 1.370 . S
C619 C620 1.403 . S
C620 C619 1.403 . S
C620 C621 1.404 . S
C620 C623 1.539 . S
C621 C617 1.408 . S
C621 C620 1.404 . S
C621 H633 0.930 . S
C622 C618 1.524 . S
C622 H634 0.956 . S
C622 H635 0.961 . S
C622 H636 0.961 . S
C623 C620 1.539 . S
C623 H637 0.958 . S
C623 H638 0.961 . S
C623 H639 0.960 . S
H624 C608 0.931 . S
H625 C613 0.929 . S
H626 C614 0.960 . S
H627 C614 0.962 . S
H628 C614 0.960 . S
H629 C615 0.961 . S
H630 C615 0.961 . S
H631 C615 0.961 . S
H632 C616 0.931 . S
H633 C621 0.930 . S
H634 C622 0.956 . S
H635 C622 0.961 . S
H636 C622 0.961 . S
H637 C623 0.958 . S
H638 C623 0.961 . S
H639 C623 0.960 . S
C640 C641 1.391 . S
C640 C642 1.394 . S
C640 H656 0.931 . S
C641 C640 1.391 . S
C641 C645 1.376 . S
C642 C640 1.394 . S
C642 C643 1.369 . S
C642 C646 1.531 . S
C643 C642 1.369 . S
C643 C644 1.410 . S
C643 C651 1.503 . S
C644 C643 1.410 . S
C644 C645 1.392 . S
C644 C647 1.511 . S
C645 C641 1.376 . S
C645 C644 1.392 . S
C645 H657 0.929 . S
C646 C642 1.531 . S
C646 H658 0.960 . S
C646 H659 0.962 . S
C646 H660 0.960 . S
C647 C644 1.511 . S
C647 H661 0.961 . S
C647 H662 0.961 . S
C647 H663 0.961 . S
C648 C649 1.370 . S
C648 C650 1.363 . S
C648 H664 0.931 . S
C649 C648 1.370 . S
C649 C653 1.408 . S
C650 C648 1.363 . S
C650 C651 1.370 . S
C650 C654 1.524 . S
C651 C643 1.503 . S
C651 C650 1.370 . S
C651 C652 1.403 . S
C652 C651 1.403 . S
C652 C653 1.404 . S
C652 C655 1.539 . S
C653 C649 1.408 . S
C653 C652 1.404 . S
C653 H665 0.930 . S
C654 C650 1.524 . S
C654 H666 0.956 . S
C654 H667 0.961 . S
C654 H668 0.961 . S
C655 C652 1.539 . S
C655 H669 0.958 . S
C655 H670 0.961 . S
C655 H671 0.960 . S
H656 C640 0.931 . S
H657 C645 0.929 . S
H658 C646 0.960 . S
H659 C646 0.962 . S
H660 C646 0.960 . S
H661 C647 0.961 . S
H662 C647 0.961 . S
H663 C647 0.961 . S
H664 C648 0.931 . S
H665 C653 0.930 . S
H666 C654 0.956 . S
H667 C654 0.961 . S
H668 C654 0.961 . S
H669 C655 0.958 . S
H670 C655 0.961 . S
H671 C655 0.960 . S
C672 C673 1.391 . S
C672 C674 1.394 . S
C672 H688 0.931 . S
C673 C672 1.391 . S
C673 C677 1.376 . S
C674 C672 1.394 . S
C674 C675 1.369 . S
C674 C678 1.531 . S
C675 C674 1.369 . S
C675 C676 1.410 . S
C675 C683 1.503 . S
C676 C675 1.410 . S
C676 C677 1.392 . S
C676 C679 1.511 . S
C677 C673 1.376 . S
C677 C676 1.392 . S
C677 H689 0.929 . S
C678 C674 1.531 . S
C678 H690 0.960 . S
C678 H691 0.962 . S
C678 H692 0.960 . S
C679 C676 1.511 . S
C679 H693 0.961 . S
C679 H694 0.961 . S
C679 H695 0.961 . S
C680 C681 1.370 . S
C680 C682 1.363 . S
C680 H696 0.931 1_556 S
C681 C680 1.370 . S
C681 C685 1.408 . S
C682 C680 1.363 . S
C682 C683 1.370 . S
C682 C686 1.524 . S
C683 C675 1.503 . S
C683 C682 1.370 . S
C683 C684 1.403 . S
C684 C683 1.403 . S
C684 C685 1.404 . S
C684 C687 1.539 . S
C685 C681 1.408 . S
C685 C684 1.404 . S
C685 H697 0.930 . S
C686 C682 1.524 . S
C686 H698 0.956 1_556 S
C686 H699 0.961 . S
C686 H700 0.961 1_556 S
C687 C684 1.539 . S
C687 H701 0.958 . S
C687 H702 0.961 . S
C687 H703 0.960 . S
H688 C672 0.931 . S
H689 C677 0.929 . S
H690 C678 0.960 . S
H691 C678 0.962 . S
H692 C678 0.960 . S
H693 C679 0.961 . S
H694 C679 0.961 . S
H695 C679 0.961 . S
H696 C680 0.931 1_554 S
H697 C685 0.930 . S
H698 C686 0.956 1_554 S
H699 C686 0.961 . S
H700 C686 0.961 1_554 S
H701 C687 0.958 . S
H702 C687 0.961 . S
H703 C687 0.960 . S
C704 C705 1.391 . S
C704 C706 1.394 . S
C704 H720 0.931 . S
C705 C704 1.391 . S
C705 C709 1.376 . S
C706 C704 1.394 . S
C706 C707 1.369 . S
C706 C710 1.531 . S
C707 C706 1.369 . S
C707 C708 1.410 . S
C707 C715 1.503 . S
C708 C707 1.410 . S
C708 C709 1.392 . S
C708 C711 1.511 . S
C709 C705 1.376 . S
C709 C708 1.392 . S
C709 H721 0.929 . S
C710 C706 1.531 . S
C710 H722 0.960 . S
C710 H723 0.962 . S
C710 H724 0.960 . S
C711 C708 1.511 . S
C711 H725 0.961 . S
C711 H726 0.961 . S
C711 H727 0.961 . S
C712 C713 1.370 . S
C712 C714 1.363 . S
C712 H728 0.931 . S
C713 C712 1.370 . S
C713 C717 1.408 . S
C714 C712 1.363 . S
C714 C715 1.370 . S
C714 C718 1.524 . S
C715 C707 1.503 . S
C715 C714 1.370 . S
C715 C716 1.403 . S
C716 C715 1.403 . S
C716 C717 1.404 . S
C716 C719 1.539 . S
C717 C713 1.408 . S
C717 C716 1.404 . S
C717 H729 0.930 . S
C718 C714 1.524 . S
C718 H730 0.956 . S
C718 H731 0.961 . S
C718 H732 0.961 . S
C719 C716 1.539 . S
C719 H733 0.958 . S
C719 H734 0.961 . S
C719 H735 0.960 . S
H720 C704 0.931 . S
H721 C709 0.929 . S
H722 C710 0.960 . S
H723 C710 0.962 . S
H724 C710 0.960 . S
H725 C711 0.961 . S
H726 C711 0.961 . S
H727 C711 0.961 . S
H728 C712 0.931 . S
H729 C717 0.930 . S
H730 C718 0.956 . S
H731 C718 0.961 . S
H732 C718 0.961 . S
H733 C719 0.958 . S
H734 C719 0.961 . S
H735 C719 0.960 . S
C736 C737 1.391 . S
C736 C738 1.394 . S
C736 H752 0.931 . S
C737 C736 1.391 . S
C737 C741 1.376 . S
C738 C736 1.394 . S
C738 C739 1.369 . S
C738 C742 1.531 . S
C739 C738 1.369 . S
C739 C740 1.410 . S
C739 C747 1.503 . S
C740 C739 1.410 . S
C740 C741 1.392 . S
C740 C743 1.511 . S
C741 C737 1.376 . S
C741 C740 1.392 . S
C741 H753 0.929 . S
C742 C738 1.531 . S
C742 H754 0.960 . S
C742 H755 0.962 . S
C742 H756 0.960 . S
C743 C740 1.511 . S
C743 H757 0.961 . S
C743 H758 0.961 . S
C743 H759 0.961 . S
C744 C745 1.370 . S
C744 C746 1.363 . S
C744 H760 0.931 . S
C745 C744 1.370 . S
C745 C749 1.408 . S
C746 C744 1.363 . S
C746 C747 1.370 . S
C746 C750 1.524 . S
C747 C739 1.503 . S
C747 C746 1.370 . S
C747 C748 1.403 . S
C748 C747 1.403 . S
C748 C749 1.404 . S
C748 C751 1.539 . S
C749 C745 1.408 . S
C749 C748 1.404 . S
C749 H761 0.930 . S
C750 C746 1.524 . S
C750 H762 0.956 . S
C750 H763 0.961 . S
C750 H764 0.961 . S
C751 C748 1.539 . S
C751 H765 0.958 . S
C751 H766 0.961 . S
C751 H767 0.960 . S
H752 C736 0.931 . S
H753 C741 0.929 . S
H754 C742 0.960 . S
H755 C742 0.962 . S
H756 C742 0.960 . S
H757 C743 0.961 . S
H758 C743 0.961 . S
H759 C743 0.961 . S
H760 C744 0.931 . S
H761 C749 0.930 . S
H762 C750 0.956 . S
H763 C750 0.961 . S
H764 C750 0.961 . S
H765 C751 0.958 . S
H766 C751 0.961 . S
H767 C751 0.960 . S
C768 C769 1.391 . S
C768 C770 1.394 . S
C768 H784 0.931 . S
C769 C768 1.391 . S
C769 C773 1.376 . S
C770 C768 1.394 . S
C770 C771 1.369 . S
C770 C774 1.531 1_455 S
C771 C770 1.369 . S
C771 C772 1.410 . S
C771 C779 1.503 . S
C772 C771 1.410 . S
C772 C773 1.392 . S
C772 C775 1.511 . S
C773 C769 1.376 . S
C773 C772 1.392 . S
C773 H785 0.929 . S
C774 C770 1.531 1_655 S
C774 H786 0.960 . S
C774 H787 0.962 . S
C774 H788 0.960 . S
C775 C772 1.511 . S
C775 H789 0.961 . S
C775 H790 0.961 . S
C775 H791 0.961 . S
C776 C777 1.370 . S
C776 C778 1.363 . S
C776 H792 0.931 . S
C777 C776 1.370 . S
C777 C781 1.408 . S
C778 C776 1.363 . S
C778 C779 1.370 . S
C778 C782 1.524 . S
C779 C771 1.503 . S
C779 C778 1.370 . S
C779 C780 1.403 . S
C780 C779 1.403 . S
C780 C781 1.404 . S
C780 C783 1.539 . S
C781 C777 1.408 . S
C781 C780 1.404 . S
C781 H793 0.930 . S
C782 C778 1.524 . S
C782 H794 0.956 . S
C782 H795 0.961 . S
C782 H796 0.961 . S
C783 C780 1.539 . S
C783 H797 0.958 1_455 S
C783 H798 0.961 . S
C783 H799 0.960 . S
H784 C768 0.931 . S
H785 C773 0.929 . S
H786 C774 0.960 . S
H787 C774 0.962 . S
H788 C774 0.960 . S
H789 C775 0.961 . S
H790 C775 0.961 . S
H791 C775 0.961 . S
H792 C776 0.931 . S
H793 C781 0.930 . S
H794 C782 0.956 . S
H795 C782 0.961 . S
H796 C782 0.961 . S
H797 C783 0.958 1_655 S
H798 C783 0.961 . S
H799 C783 0.960 . S
C800 C801 1.376 1_455 S
C800 C802 1.379 1_455 S
C800 H816 0.961 . S
C801 C800 1.376 1_655 S
C801 C805 1.376 . S
C802 C800 1.379 1_655 S
C802 C803 1.369 . S
C802 C806 1.531 1_655 S
C803 C802 1.369 . S
C803 C804 1.410 . S
C803 C811 1.503 . S
C804 C803 1.410 . S
C804 C805 1.392 . S
C804 C807 1.511 . S
C805 C801 1.376 . S
C805 C804 1.392 . S
C805 H817 0.929 . S
C806 C802 1.531 1_455 S
C806 H818 0.960 1_455 S
C806 H819 0.962 . S
C806 H820 0.960 . S
C807 C804 1.511 . S
C807 H821 0.961 . S
C807 H822 0.961 . S
C807 H823 0.961 . S
C808 C809 1.370 . S
C808 C810 1.363 . S
C808 H824 0.931 . S
C809 C808 1.370 . S
C809 C813 1.408 . S
C810 C808 1.363 . S
C810 C811 1.370 . S
C810 C814 1.524 . S
C811 C803 1.503 . S
C811 C810 1.370 . S
C811 C812 1.403 . S
C812 C811 1.403 . S
C812 C813 1.404 . S
C812 C815 1.539 . S
C813 C809 1.408 . S
C813 C812 1.404 . S
C813 H825 0.930 . S
C814 C810 1.524 . S
C814 H826 0.956 1_655 S
C814 H827 0.961 . S
C814 H828 0.961 . S
C815 C812 1.539 . S
C815 H829 0.958 . S
C815 H830 0.961 . S
C815 H831 0.960 . S
H816 C800 0.961 . S
H817 C805 0.929 . S
H818 C806 0.960 1_655 S
H819 C806 0.962 . S
H820 C806 0.960 . S
H821 C807 0.961 . S
H822 C807 0.961 . S
H823 C807 0.961 . S
H824 C808 0.931 . S
H825 C813 0.930 . S
H826 C814 0.956 1_455 S
H827 C814 0.961 . S
H828 C814 0.961 . S
H829 C815 0.958 . S
H830 C815 0.961 . S
H831 C815 0.960 . S
C832 C833 1.391 . S
C832 C834 1.394 . S
C832 H848 0.931 . S
C833 C832 1.391 . S
C833 C837 1.376 . S
C834 C832 1.394 . S
C834 C835 1.369 . S
C834 C838 1.531 . S
C835 C834 1.369 . S
C835 C836 1.410 . S
C835 C843 1.503 . S
C836 C835 1.410 . S
C836 C837 1.392 . S
C836 C839 1.511 . S
C837 C833 1.376 . S
C837 C836 1.392 . S
C837 H849 0.929 . S
C838 C834 1.531 . S
C838 H850 0.960 . S
C838 H851 0.962 . S
C838 H852 0.960 . S
C839 C836 1.511 . S
C839 H853 0.961 . S
C839 H854 0.961 . S
C839 H855 0.961 . S
C840 C841 1.370 . S
C840 C842 1.363 . S
C840 H856 0.931 . S
C841 C840 1.370 . S
C841 C845 1.408 . S
C842 C840 1.363 . S
C842 C843 1.370 . S
C842 C846 1.524 . S
C843 C835 1.503 . S
C843 C842 1.370 . S
C843 C844 1.403 . S
C844 C843 1.403 . S
C844 C845 1.404 . S
C844 C847 1.539 . S
C845 C841 1.408 . S
C845 C844 1.404 . S
C845 H857 0.930 . S
C846 C842 1.524 . S
C846 H858 0.956 . S
C846 H859 0.961 . S
C846 H860 0.961 . S
C847 C844 1.539 . S
C847 H861 0.958 . S
C847 H862 0.961 . S
C847 H863 0.960 . S
H848 C832 0.931 . S
H849 C837 0.929 . S
H850 C838 0.960 . S
H851 C838 0.962 . S
H852 C838 0.960 . S
H853 C839 0.961 . S
H854 C839 0.961 . S
H855 C839 0.961 . S
H856 C840 0.931 . S
H857 C845 0.930 . S
H858 C846 0.956 . S
H859 C846 0.961 . S
H860 C846 0.961 . S
H861 C847 0.958 . S
H862 C847 0.961 . S
H863 C847 0.960 . S
C864 C865 1.391 . S
C864 C866 1.394 . S
C864 H880 0.931 . S
C865 C864 1.391 . S
C865 C869 1.376 . S
C866 C864 1.394 . S
C866 C867 1.369 . S
C866 C870 1.531 . S
C867 C866 1.369 . S
C867 C868 1.410 . S
C867 C875 1.503 . S
C868 C867 1.410 . S
C868 C869 1.392 . S
C868 C871 1.511 . S
C869 C865 1.376 . S
C869 C868 1.392 . S
C869 H881 0.929 . S
C870 C866 1.531 . S
C870 H882 0.960 . S
C870 H883 0.962 . S
C870 H884 0.960 . S
C871 C868 1.511 . S
C871 H885 0.961 . S
C871 H886 0.961 . S
C871 H887 0.961 . S
C872 C873 1.370 . S
C872 C874 1.363 . S
C872 H888 0.931 . S
C873 C872 1.370 . S
C873 C877 1.408 . S
C874 C872 1.363 . S
C874 C875 1.370 . S
C874 C878 1.524 . S
C875 C867 1.503 . S
C875 C874 1.370 . S
C875 C876 1.403 . S
C876 C875 1.403 . S
C876 C877 1.404 . S
C876 C879 1.539 . S
C877 C873 1.408 . S
C877 C876 1.404 . S
C877 H889 0.930 . S
C878 C874 1.524 . S
C878 H890 0.956 . S
C878 H891 0.961 . S
C878 H892 0.961 . S
C879 C876 1.539 . S
C879 H893 0.958 . S
C879 H894 0.961 . S
C879 H895 0.960 . S
H880 C864 0.931 . S
H881 C869 0.929 . S
H882 C870 0.960 . S
H883 C870 0.962 . S
H884 C870 0.960 . S
H885 C871 0.961 . S
H886 C871 0.961 . S
H887 C871 0.961 . S
H888 C872 0.931 . S
H889 C877 0.930 . S
H890 C878 0.956 . S
H891 C878 0.961 . S
H892 C878 0.961 . S
H893 C879 0.958 . S
H894 C879 0.961 . S
H895 C879 0.960 . S
C896 C897 1.391 . S
C896 C898 1.394 . S
C896 H912 0.931 . S
C897 C896 1.391 . S
C897 C901 1.376 . S
C898 C896 1.394 . S
C898 C899 1.369 . S
C898 C902 1.531 . S
C899 C898 1.369 . S
C899 C900 1.410 . S
C899 C907 1.503 . S
C900 C899 1.410 . S
C900 C901 1.392 . S
C900 C903 1.511 . S
C901 C897 1.376 . S
C901 C900 1.392 . S
C901 H913 0.929 . S
C902 C898 1.531 . S
C902 H914 0.960 . S
C902 H915 0.962 . S
C902 H916 0.960 . S
C903 C900 1.511 . S
C903 H917 0.961 . S
C903 H918 0.961 . S
C903 H919 0.961 . S
C904 C905 1.370 . S
C904 C906 1.363 . S
C904 H920 0.931 . S
C905 C904 1.370 . S
C905 C909 1.408 . S
C906 C904 1.363 . S
C906 C907 1.370 . S
C906 C910 1.524 . S
C907 C899 1.503 . S
C907 C906 1.370 . S
C907 C908 1.403 . S
C908 C907 1.403 . S
C908 C909 1.404 . S
C908 C911 1.539 1_565 S
C909 C905 1.408 . S
C909 C908 1.404 . S
C909 H921 0.930 1_565 S
C910 C906 1.524 . S
C910 H922 0.956 . S
C910 H923 0.961 . S
C910 H924 0.961 . S
C911 C908 1.539 1_545 S
C911 H925 0.958 . S
C911 H926 0.961 . S
C911 H927 0.960 1_545 S
H912 C896 0.931 . S
H913 C901 0.929 . S
H914 C902 0.960 . S
H915 C902 0.962 . S
H916 C902 0.960 . S
H917 C903 0.961 . S
H918 C903 0.961 . S
H919 C903 0.961 . S
H920 C904 0.931 . S
H921 C909 0.930 1_545 S
H922 C910 0.956 . S
H923 C910 0.961 . S
H924 C910 0.961 . S
H925 C911 0.958 . S
H926 C911 0.961 . S
H927 C911 0.960 1_565 S
C928 C929 1.391 . S
C928 C930 1.394 . S
C928 H944 0.931 . S
C929 C928 1.391 . S
C929 C933 1.376 . S
C930 C928 1.394 . S
C930 C931 1.369 . S
C930 C934 1.531 . S
C931 C930 1.369 . S
C931 C932 1.410 . S
C931 C939 1.503 . S
C932 C931 1.410 . S
C932 C933 1.392 . S
C932 C935 1.511 . S
C933 C929 1.376 . S
C933 C932 1.392 . S
C933 H945 0.929 . S
C934 C930 1.531 . S
C934 H946 0.960 . S
C934 H947 0.962 . S
C934 H948 0.960 . S
C935 C932 1.511 . S
C935 H949 0.961 . S
C935 H950 0.961 . S
C935 H951 0.961 . S
C936 C937 1.370 . S
C936 C938 1.363 . S
C936 H952 0.931 . S
C937 C936 1.370 . S
C937 C941 1.408 . S
C938 C936 1.363 . S
C938 C939 1.370 . S
C938 C942 1.524 . S
C939 C931 1.503 . S
C939 C938 1.370 . S
C939 C940 1.403 . S
C940 C939 1.403 . S
C940 C941 1.404 . S
C940 C943 1.539 . S
C941 C937 1.408 . S
C941 C940 1.404 . S
C941 H953 0.930 . S
C942 C938 1.524 . S
C942 H954 0.956 . S
C942 H955 0.961 . S
C942 H956 0.961 . S
C943 C940 1.539 . S
C943 H957 0.958 . S
C943 H958 0.961 . S
C943 H959 0.960 . S
H944 C928 0.931 . S
H945 C933 0.929 . S
H946 C934 0.960 . S
H947 C934 0.962 . S
H948 C934 0.960 . S
H949 C935 0.961 . S
H950 C935 0.961 . S
H951 C935 0.961 . S
H952 C936 0.931 . S
H953 C941 0.930 . S
H954 C942 0.956 . S
H955 C942 0.961 . S
H956 C942 0.961 . S
H957 C943 0.958 . S
H958 C943 0.961 . S
H959 C943 0.960 . S
C960 C961 1.391 . S
C960 C962 1.394 . S
C960 H976 0.931 . S
C961 C960 1.391 . S
C961 C965 1.376 . S
C962 C960 1.394 . S
C962 C963 1.369 . S
C962 C966 1.531 . S
C963 C962 1.369 . S
C963 C964 1.410 . S
C963 C971 1.503 1_554 S
C964 C963 1.410 . S
C964 C965 1.392 . S
C964 C967 1.511 1_554 S
C965 C961 1.376 . S
C965 C964 1.392 . S
C965 H977 0.929 . S
C966 C962 1.531 . S
C966 H978 0.960 . S
C966 H979 0.962 . S
C966 H980 0.960 . S
C967 C964 1.511 1_556 S
C967 H981 0.961 . S
C967 H982 0.961 . S
C967 H983 0.961 . S
C968 C969 1.370 . S
C968 C970 1.363 . S
C968 H984 0.931 . S
C969 C968 1.370 . S
C969 C973 1.408 . S
C970 C968 1.363 . S
C970 C971 1.370 . S
C970 C974 1.524 . S
C971 C963 1.503 1_556 S
C971 C970 1.370 . S
C971 C972 1.403 . S
C972 C971 1.403 . S
C972 C973 1.404 . S
C972 C975 1.539 1_545 S
C973 C969 1.408 . S
C973 C972 1.404 . S
C973 H985 0.930 1_545 S
C974 C970 1.524 . S
C974 H986 0.956 . S
C974 H987 0.961 . S
C974 H988 0.961 . S
C975 C972 1.539 1_565 S
C975 H989 0.958 1_556 S
C975 H990 0.961 . S
C975 H991 0.960 1_566 S
H976 C960 0.931 . S
H977 C965 0.929 . S
H978 C966 0.960 . S
H979 C966 0.962 . S
H980 C966 0.960 . S
H981 C967 0.961 . S
H982 C967 0.961 . S
H983 C967 0.961 . S
H984 C968 0.931 . S
H985 C973 0.930 1_565 S
H986 C974 0.956 . S
H987 C974 0.961 . S
H988 C974 0.961 . S
H989 C975 0.958 1_554 S
H990 C975 0.961 . S
H991 C975 0.960 1_544 S
C992 C993 1.391 . S
C992 C994 1.394 . S
C992 H1008 0.931 . S
C993 C992 1.391 . S
C993 C997 1.376 . S
C994 C992 1.394 . S
C994 C995 1.369 . S
C994 C998 1.531 . S
C995 C994 1.369 . S
C995 C996 1.410 . S
C995 C1003 1.503 . S
C996 C995 1.410 . S
C996 C997 1.392 . S
C996 C999 1.511 . S
C997 C993 1.376 . S
C997 C996 1.392 . S
C997 H1009 0.929 . S
C998 C994 1.531 . S
C998 H1010 0.960 . S
C998 H1011 0.962 . S
C998 H1012 0.960 . S
C999 C996 1.511 . S
C999 H1013 0.961 . S
C999 H1014 0.961 . S
C999 H1015 0.961 . S
C1000 C1001 1.370 . S
C1000 C1002 1.363 . S
C1000 H1016 0.931 . S
C1001 C1000 1.370 . S
C1001 C1005 1.408 . S
C1002 C1000 1.363 . S
C1002 C1003 1.370 . S
C1002 C1006 1.524 . S
C1003 C995 1.503 . S
C1003 C1002 1.370 . S
C1003 C1004 1.403 . S
C1004 C1003 1.403 . S
C1004 C1005 1.404 . S
C1004 C1007 1.539 . S
C1005 C1001 1.408 . S
C1005 C1004 1.404 . S
C1005 H1017 0.930 . S
C1006 C1002 1.524 . S
C1006 H1018 0.956 . S
C1006 H1019 0.961 . S
C1006 H1020 0.961 . S
C1007 C1004 1.539 . S
C1007 H1021 0.958 . S
C1007 H1022 0.961 . S
C1007 H1023 0.960 . S
H1008 C992 0.931 . S
H1009 C997 0.929 . S
H1010 C998 0.960 . S
H1011 C998 0.962 . S
H1012 C998 0.960 . S
H1013 C999 0.961 . S
H1014 C999 0.961 . S
H1015 C999 0.961 . S
H1016 C1000 0.931 . S
H1017 C1005 0.930 . S
H1018 C1006 0.956 . S
H1019 C1006 0.961 . S
H1020 C1006 0.961 . S
H1021 C1007 0.958 . S
H1022 C1007 0.961 . S
H1023 C1007 0.960 . S
C1024 C1025 1.391 . S
C1024 C1026 1.394 1_554 S
C1024 H1040 0.931 . S
C1025 C1024 1.391 . S
C1025 C1029 1.376 . S
C1026 C1024 1.394 1_556 S
C1026 C1027 1.369 . S
C1026 C1030 1.531 . S
C1027 C1026 1.369 . S
C1027 C1028 1.410 . S
C1027 C1035 1.503 . S
C1028 C1027 1.410 . S
C1028 C1029 1.392 1_556 S
C1028 C1031 1.511 . S
C1029 C1025 1.376 . S
C1029 C1028 1.392 1_554 S
C1029 H1041 0.929 . S
C1030 C1026 1.531 . S
C1030 H1042 0.960 . S
C1030 H1043 0.962 . S
C1030 H1044 0.960 . S
C1031 C1028 1.511 . S
C1031 H1045 0.961 . S
C1031 H1046 0.961 . S
C1031 H1047 0.961 . S
C1032 C1033 1.370 . S
C1032 C1034 1.363 . S
C1032 H1048 0.931 . S
C1033 C1032 1.370 . S
C1033 C1037 1.408 . S
C1034 C1032 1.363 . S
C1034 C1035 1.370 . S
C1034 C1038 1.524 . S
C1035 C1027 1.503 . S
C1035 C1034 1.370 . S
C1035 C1036 1.403 . S
C1036 C1035 1.403 . S
C1036 C1037 1.404 . S
C1036 C1039 1.539 . S
C1037 C1033 1.408 . S
C1037 C1036 1.404 . S
C1037 H1049 0.930 . S
C1038 C1034 1.524 . S
C1038 H1050 0.956 . S
C1038 H1051 0.961 . S
C1038 H1052 0.961 . S
C1039 C1036 1.539 . S
C1039 H1053 0.958 . S
C1039 H1054 0.961 . S
C1039 H1055 0.960 . S
H1040 C1024 0.931 . S
H1041 C1029 0.929 . S
H1042 C1030 0.960 . S
H1043 C1030 0.962 . S
H1044 C1030 0.960 . S
H1045 C1031 0.961 . S
H1046 C1031 0.961 . S
H1047 C1031 0.961 . S
H1048 C1032 0.931 . S
H1049 C1037 0.930 . S
H1050 C1038 0.956 . S
H1051 C1038 0.961 . S
H1052 C1038 0.961 . S
H1053 C1039 0.958 . S
H1054 C1039 0.961 . S
H1055 C1039 0.960 . S
C1056 C1057 1.391 . S
C1056 C1058 1.394 . S
C1056 H1072 0.931 . S
C1057 C1056 1.391 . S
C1057 C1061 1.376 . S
C1058 C1056 1.394 . S
C1058 C1059 1.369 . S
C1058 C1062 1.531 . S
C1059 C1058 1.369 . S
C1059 C1060 1.410 . S
C1059 C1067 1.503 . S
C1060 C1059 1.410 . S
C1060 C1061 1.392 . S
C1060 C1063 1.511 . S
C1061 C1057 1.376 . S
C1061 C1060 1.392 . S
C1061 H1073 0.929 . S
C1062 C1058 1.531 . S
C1062 H1074 0.960 . S
C1062 H1075 0.962 . S
C1062 H1076 0.960 . S
C1063 C1060 1.511 . S
C1063 H1077 0.961 . S
C1063 H1078 0.961 . S
C1063 H1079 0.961 . S
C1064 C1065 1.370 . S
C1064 C1066 1.363 . S
C1064 H1080 0.931 . S
C1065 C1064 1.370 . S
C1065 C1069 1.408 . S
C1066 C1064 1.363 . S
C1066 C1067 1.370 . S
C1066 C1070 1.524 . S
C1067 C1059 1.503 . S
C1067 C1066 1.370 . S
C1067 C1068 1.403 . S
C1068 C1067 1.403 . S
C1068 C1069 1.404 . S
C1068 C1071 1.539 . S
C1069 C1065 1.408 . S
C1069 C1068 1.404 . S
C1069 H1081 0.930 . S
C1070 C1066 1.524 . S
C1070 H1082 0.956 . S
C1070 H1083 0.961 . S
C1070 H1084 0.961 . S
C1071 C1068 1.539 . S
C1071 H1085 0.958 . S
C1071 H1086 0.961 . S
C1071 H1087 0.960 . S
H1072 C1056 0.931 . S
H1073 C1061 0.929 . S
H1074 C1062 0.960 . S
H1075 C1062 0.962 . S
H1076 C1062 0.960 . S
H1077 C1063 0.961 . S
H1078 C1063 0.961 . S
H1079 C1063 0.961 . S
H1080 C1064 0.931 . S
H1081 C1069 0.930 . S
H1082 C1070 0.956 . S
H1083 C1070 0.961 . S
H1084 C1070 0.961 . S
H1085 C1071 0.958 . S
H1086 C1071 0.961 . S
H1087 C1071 0.960 . S
C1088 C1089 1.391 . S
C1088 C1090 1.394 . S
C1088 H1104 0.931 . S
C1089 C1088 1.391 . S
C1089 C1093 1.376 . S
C1090 C1088 1.394 . S
C1090 C1091 1.369 . S
C1090 C1094 1.531 . S
C1091 C1090 1.369 . S
C1091 C1092 1.410 . S
C1091 C1099 1.503 . S
C1092 C1091 1.410 . S
C1092 C1093 1.392 . S
C1092 C1095 1.511 . S
C1093 C1089 1.376 . S
C1093 C1092 1.392 . S
C1093 H1105 0.929 . S
C1094 C1090 1.531 . S
C1094 H1106 0.960 . S
C1094 H1107 0.962 . S
C1094 H1108 0.960 . S
C1095 C1092 1.511 . S
C1095 H1109 0.961 . S
C1095 H1110 0.961 . S
C1095 H1111 0.961 . S
C1096 C1097 1.370 . S
C1096 C1098 1.363 . S
C1096 H1112 0.931 . S
C1097 C1096 1.370 . S
C1097 C1101 1.408 . S
C1098 C1096 1.363 . S
C1098 C1099 1.370 . S
C1098 C1102 1.524 . S
C1099 C1091 1.503 . S
C1099 C1098 1.370 . S
C1099 C1100 1.403 . S
C1100 C1099 1.403 . S
C1100 C1101 1.404 . S
C1100 C1103 1.539 . S
C1101 C1097 1.408 . S
C1101 C1100 1.404 . S
C1101 H1113 0.930 . S
C1102 C1098 1.524 . S
C1102 H1114 0.956 . S
C1102 H1115 0.961 . S
C1102 H1116 0.961 . S
C1103 C1100 1.539 . S
C1103 H1117 0.958 . S
C1103 H1118 0.961 . S
C1103 H1119 0.960 . S
H1104 C1088 0.931 . S
H1105 C1093 0.929 . S
H1106 C1094 0.960 . S
H1107 C1094 0.962 . S
H1108 C1094 0.960 . S
H1109 C1095 0.961 . S
H1110 C1095 0.961 . S
H1111 C1095 0.961 . S
H1112 C1096 0.931 . S
H1113 C1101 0.930 . S
H1114 C1102 0.956 . S
H1115 C1102 0.961 . S
H1116 C1102 0.961 . S
H1117 C1103 0.958 . S
H1118 C1103 0.961 . S
H1119 C1103 0.960 . S
C1120 C1121 1.391 . S
C1120 C1122 1.394 . S
C1120 H1136 0.931 . S
C1121 C1120 1.391 . S
C1121 C1125 1.376 . S
C1122 C1120 1.394 . S
C1122 C1123 1.369 . S
C1122 C1126 1.531 . S
C1123 C1122 1.369 . S
C1123 C1124 1.410 . S
C1123 C1131 1.503 . S
C1124 C1123 1.410 . S
C1124 C1125 1.392 . S
C1124 C1127 1.511 . S
C1125 C1121 1.376 . S
C1125 C1124 1.392 . S
C1125 H1137 0.929 . S
C1126 C1122 1.531 . S
C1126 H1138 0.960 . S
C1126 H1139 0.962 . S
C1126 H1140 0.960 . S
C1127 C1124 1.511 . S
C1127 H1141 0.961 . S
C1127 H1142 0.961 . S
C1127 H1143 0.961 . S
C1128 C1129 1.370 . S
C1128 C1130 1.363 . S
C1128 H1144 0.931 . S
C1129 C1128 1.370 . S
C1129 C1133 1.408 . S
C1130 C1128 1.363 . S
C1130 C1131 1.370 . S
C1130 C1134 1.524 . S
C1131 C1123 1.503 . S
C1131 C1130 1.370 . S
C1131 C1132 1.403 . S
C1132 C1131 1.403 . S
C1132 C1133 1.404 . S
C1132 C1135 1.539 . S
C1133 C1129 1.408 . S
C1133 C1132 1.404 . S
C1133 H1145 0.930 . S
C1134 C1130 1.524 . S
C1134 H1146 0.956 . S
C1134 H1147 0.961 . S
C1134 H1148 0.961 . S
C1135 C1132 1.539 . S
C1135 H1149 0.958 . S
C1135 H1150 0.961 . S
C1135 H1151 0.960 . S
H1136 C1120 0.931 . S
H1137 C1125 0.929 . S
H1138 C1126 0.960 . S
H1139 C1126 0.962 . S
H1140 C1126 0.960 . S
H1141 C1127 0.961 . S
H1142 C1127 0.961 . S
H1143 C1127 0.961 . S
H1144 C1128 0.931 . S
H1145 C1133 0.930 . S
H1146 C1134 0.956 . S
H1147 C1134 0.961 . S
H1148 C1134 0.961 . S
H1149 C1135 0.958 . S
H1150 C1135 0.961 . S
H1151 C1135 0.960 . S
C1152 C1153 1.391 . S
C1152 C1154 1.394 . S
C1152 H1168 0.931 . S
C1153 C1152 1.391 . S
C1153 C1157 1.376 . S
C1154 C1152 1.394 . S
C1154 C1155 1.369 . S
C1154 C1158 1.531 . S
C1155 C1154 1.369 . S
C1155 C1156 1.410 . S
C1155 C1163 1.503 . S
C1156 C1155 1.410 . S
C1156 C1157 1.392 . S
C1156 C1159 1.511 . S
C1157 C1153 1.376 . S
C1157 C1156 1.392 . S
C1157 H1169 0.929 . S
C1158 C1154 1.531 . S
C1158 H1170 0.960 . S
C1158 H1171 0.962 1_455 S
C1158 H1172 0.960 . S
C1159 C1156 1.511 . S
C1159 H1173 0.961 . S
C1159 H1174 0.961 . S
C1159 H1175 0.961 . S
C1160 C1161 1.370 . S
C1160 C1162 1.363 1_565 S
C1160 H1176 0.931 . S
C1161 C1160 1.370 . S
C1161 C1165 1.408 . S
C1162 C1160 1.363 1_545 S
C1162 C1163 1.370 . S
C1162 C1166 1.524 . S
C1163 C1155 1.503 . S
C1163 C1162 1.370 . S
C1163 C1164 1.403 1_545 S
C1164 C1163 1.403 1_565 S
C1164 C1165 1.404 . S
C1164 C1167 1.539 . S
C1165 C1161 1.408 . S
C1165 C1164 1.404 . S
C1165 H1177 0.930 . S
C1166 C1162 1.524 . S
C1166 H1178 0.956 . S
C1166 H1179 0.961 . S
C1166 H1180 0.961 . S
C1167 C1164 1.539 . S
C1167 H1181 0.958 . S
C1167 H1182 0.961 . S
C1167 H1183 0.960 1_565 S
H1168 C1152 0.931 . S
H1169 C1157 0.929 . S
H1170 C1158 0.960 . S
H1171 C1158 0.962 1_655 S
H1172 C1158 0.960 . S
H1173 C1159 0.961 . S
H1174 C1159 0.961 . S
H1175 C1159 0.961 . S
H1176 C1160 0.931 . S
H1177 C1165 0.930 . S
H1178 C1166 0.956 . S
H1179 C1166 0.961 . S
H1180 C1166 0.961 . S
H1181 C1167 0.958 . S
H1182 C1167 0.961 . S
H1183 C1167 0.960 1_545 S
C1184 C1185 1.391 . S
C1184 C1186 1.394 . S
C1184 H1200 0.931 . S
C1185 C1184 1.391 . S
C1185 C1189 1.376 . S
C1186 C1184 1.394 . S
C1186 C1187 1.369 . S
C1186 C1190 1.531 . S
C1187 C1186 1.369 . S
C1187 C1188 1.410 . S
C1187 C1195 1.503 . S
C1188 C1187 1.410 . S
C1188 C1189 1.392 . S
C1188 C1191 1.511 . S
C1189 C1185 1.376 . S
C1189 C1188 1.392 . S
C1189 H1201 0.929 . S
C1190 C1186 1.531 . S
C1190 H1202 0.960 . S
C1190 H1203 0.962 . S
C1190 H1204 0.960 . S
C1191 C1188 1.511 . S
C1191 H1205 0.961 . S
C1191 H1206 0.961 . S
C1191 H1207 0.961 . S
C1192 C1193 1.370 . S
C1192 C1194 1.363 . S
C1192 H1208 0.931 . S
C1193 C1192 1.370 . S
C1193 C1197 1.408 . S
C1194 C1192 1.363 . S
C1194 C1195 1.370 . S
C1194 C1198 1.524 . S
C1195 C1187 1.503 . S
C1195 C1194 1.370 . S
C1195 C1196 1.403 . S
C1196 C1195 1.403 . S
C1196 C1197 1.404 . S
C1196 C1199 1.539 . S
C1197 C1193 1.408 . S
C1197 C1196 1.404 . S
C1197 H1209 0.930 . S
C1198 C1194 1.524 . S
C1198 H1210 0.956 . S
C1198 H1211 0.961 . S
C1198 H1212 0.970 . S
C1199 C1196 1.539 . S
C1199 H1213 0.958 . S
C1199 H1214 0.961 . S
C1199 H1215 0.960 . S
H1200 C1184 0.931 . S
H1201 C1189 0.929 . S
H1202 C1190 0.960 . S
H1203 C1190 0.962 . S
H1204 C1190 0.960 . S
H1205 C1191 0.961 . S
H1206 C1191 0.961 . S
H1207 C1191 0.961 . S
H1208 C1192 0.931 . S
H1209 C1197 0.930 . S
H1210 C1198 0.956 . S
H1211 C1198 0.961 . S
H1212 C1198 0.970 . S
H1213 C1199 0.958 . S
H1214 C1199 0.961 . S
H1215 C1199 0.960 . S
C1216 C1217 1.391 . S
C1216 C1218 1.394 . S
C1216 H1232 0.931 . S
C1217 C1216 1.391 . S
C1217 C1221 1.376 . S
C1218 C1216 1.394 . S
C1218 C1219 1.369 . S
C1218 C1222 1.531 1_545 S
C1219 C1218 1.369 . S
C1219 C1220 1.410 . S
C1219 C1227 1.503 1_545 S
C1220 C1219 1.410 . S
C1220 C1221 1.392 . S
C1220 C1223 1.511 . S
C1221 C1217 1.376 . S
C1221 C1220 1.392 . S
C1221 H1233 0.929 . S
C1222 C1218 1.531 1_565 S
C1222 H1234 0.960 . S
C1222 H1235 0.962 1_565 S
C1222 H1236 0.964 . S
C1223 C1220 1.511 . S
C1223 H1237 0.961 . S
C1223 H1238 0.961 . S
C1223 H1239 0.961 . S
C1224 C1225 1.370 . S
C1224 C1226 1.363 . S
C1224 H1240 0.931 . S
C1225 C1224 1.370 . S
C1225 C1229 1.408 . S
C1226 C1224 1.363 . S
C1226 C1227 1.370 . S
C1226 C1230 1.524 1_565 S
C1227 C1219 1.503 1_565 S
C1227 C1226 1.370 . S
C1227 C1228 1.403 . S
C1228 C1227 1.403 . S
C1228 C1229 1.404 . S
C1228 C1231 1.539 . S
C1229 C1225 1.408 . S
C1229 C1228 1.404 . S
C1229 H1241 0.930 . S
C1230 C1226 1.524 1_545 S
C1230 H1242 0.956 . S
C1230 H1243 0.961 . S
C1230 H1244 0.961 . S
C1231 C1228 1.539 . S
C1231 H1245 0.958 . S
C1231 H1246 0.961 . S
C1231 H1247 0.960 . S
H1232 C1216 0.931 . S
H1233 C1221 0.929 . S
H1234 C1222 0.960 . S
H1235 C1222 0.962 1_545 S
H1236 C1222 0.964 . S
H1237 C1223 0.961 . S
H1238 C1223 0.961 . S
H1239 C1223 0.961 . S
H1240 C1224 0.931 . S
H1241 C1229 0.930 . S
H1242 C1230 0.956 . S
H1243 C1230 0.961 . S
H1244 C1230 0.961 . S
H1245 C1231 0.958 . S
H1246 C1231 0.961 . S
H1247 C1231 0.960 . S
C1248 C1249 1.391 . S
C1248 C1250 1.394 . S
C1248 H1264 0.931 . S
C1249 C1248 1.391 . S
C1249 C1253 1.376 . S
C1250 C1248 1.394 . S
C1250 C1251 1.369 . S
C1250 C1254 1.531 . S
C1251 C1250 1.369 . S
C1251 C1252 1.410 . S
C1251 C1259 1.503 . S
C1252 C1251 1.410 . S
C1252 C1253 1.392 . S
C1252 C1255 1.511 . S
C1253 C1249 1.376 . S
C1253 C1252 1.392 . S
C1253 H1265 0.929 . S
C1254 C1250 1.531 . S
C1254 H1266 0.960 . S
C1254 H1267 0.962 . S
C1254 H1268 0.960 . S
C1255 C1252 1.511 . S
C1255 H1269 0.961 . S
C1255 H1270 0.961 . S
C1255 H1271 0.961 . S
C1256 C1257 1.370 . S
C1256 C1258 1.363 . S
C1256 H1272 0.931 . S
C1257 C1256 1.370 . S
C1257 C1261 1.408 . S
C1258 C1256 1.363 . S
C1258 C1259 1.370 . S
C1258 C1262 1.524 . S
C1259 C1251 1.503 . S
C1259 C1258 1.370 . S
C1259 C1260 1.403 . S
C1260 C1259 1.403 . S
C1260 C1261 1.404 . S
C1260 C1263 1.539 . S
C1261 C1257 1.408 . S
C1261 C1260 1.404 . S
C1261 H1273 0.930 . S
C1262 C1258 1.524 . S
C1262 H1274 0.956 . S
C1262 H1275 0.961 . S
C1262 H1276 0.961 . S
C1263 C1260 1.539 . S
C1263 H1277 0.958 . S
C1263 H1278 0.961 . S
C1263 H1279 0.960 . S
H1264 C1248 0.931 . S
H1265 C1253 0.929 . S
H1266 C1254 0.960 . S
H1267 C1254 0.962 . S
H1268 C1254 0.960 . S
H1269 C1255 0.961 . S
H1270 C1255 0.961 . S
H1271 C1255 0.961 . S
H1272 C1256 0.931 . S
H1273 C1261 0.930 . S
H1274 C1262 0.956 . S
H1275 C1262 0.961 . S
H1276 C1262 0.961 . S
H1277 C1263 0.958 . S
H1278 C1263 0.961 . S
H1279 C1263 0.960 . S
C1280 C1281 1.391 . S
C1280 C1282 1.394 . S
C1280 H1296 0.922 1_655 S
C1281 C1280 1.391 . S
C1281 C1285 1.376 . S
C1282 C1280 1.394 . S
C1282 C1283 1.369 . S
C1282 C1286 1.531 . S
C1283 C1282 1.369 . S
C1283 C1284 1.410 . S
C1283 C1291 1.503 . S
C1284 C1283 1.410 . S
C1284 C1285 1.392 . S
C1284 C1287 1.511 . S
C1285 C1281 1.376 . S
C1285 C1284 1.392 . S
C1285 H1297 0.929 . S
C1286 C1282 1.531 . S
C1286 H1298 0.960 . S
C1286 H1299 0.962 1_655 S
C1286 H1300 0.960 1_655 S
C1287 C1284 1.511 . S
C1287 H1301 0.961 . S
C1287 H1302 0.961 . S
C1287 H1303 0.961 . S
C1288 C1289 1.370 . S
C1288 C1290 1.363 . S
C1288 H1304 0.931 . S
C1289 C1288 1.370 . S
C1289 C1293 1.408 . S
C1290 C1288 1.363 . S
C1290 C1291 1.370 . S
C1290 C1294 1.524 . S
C1291 C1283 1.503 . S
C1291 C1290 1.370 . S
C1291 C1292 1.403 . S
C1292 C1291 1.403 . S
C1292 C1293 1.404 . S
C1292 C1295 1.539 . S
C1293 C1289 1.408 . S
C1293 C1292 1.404 . S
C1293 H1305 0.930 . S
C1294 C1290 1.524 . S
C1294 H1306 0.956 . S
C1294 H1307 0.961 . S
C1294 H1308 0.961 . S
C1295 C1292 1.539 . S
C1295 H1309 0.958 . S
C1295 H1310 0.961 . S
C1295 H1311 0.960 . S
H1296 C1280 0.922 1_455 S
H1297 C1285 0.929 . S
H1298 C1286 0.960 . S
H1299 C1286 0.962 1_455 S
H1300 C1286 0.960 1_455 S
H1301 C1287 0.961 . S
H1302 C1287 0.961 . S
H1303 C1287 0.961 . S
H1304 C1288 0.931 . S
H1305 C1293 0.930 . S
H1306 C1294 0.956 . S
H1307 C1294 0.961 . S
H1308 C1294 0.961 . S
H1309 C1295 0.958 . S
H1310 C1295 0.961 . S
H1311 C1295 0.960 . S
C1312 C1313 1.391 . S
C1312 C1314 1.394 . S
C1312 H1328 0.931 . S
C1313 C1312 1.391 . S
C1313 C1317 1.376 . S
C1314 C1312 1.394 . S
C1314 C1315 1.369 . S
C1314 C1318 1.531 . S
C1315 C1314 1.369 . S
C1315 C1316 1.410 . S
C1315 C1323 1.503 . S
C1316 C1315 1.410 . S
C1316 C1317 1.392 . S
C1316 C1319 1.511 . S
C1317 C1313 1.376 . S
C1317 C1316 1.392 . S
C1317 H1329 0.929 . S
C1318 C1314 1.531 . S
C1318 H1330 0.960 . S
C1318 H1331 0.962 . S
C1318 H1332 0.960 . S
C1319 C1316 1.511 . S
C1319 H1333 0.961 . S
C1319 H1334 0.961 . S
C1319 H1335 0.961 . S
C1320 C1321 1.370 . S
C1320 C1322 1.363 . S
C1320 H1336 0.931 . S
C1321 C1320 1.370 . S
C1321 C1325 1.408 . S
C1322 C1320 1.363 . S
C1322 C1323 1.370 . S
C1322 C1326 1.524 . S
C1323 C1315 1.503 . S
C1323 C1322 1.370 . S
C1323 C1324 1.403 . S
C1324 C1323 1.403 . S
C1324 C1325 1.404 . S
C1324 C1327 1.539 . S
C1325 C1321 1.408 . S
C1325 C1324 1.404 . S
C1325 H1337 0.930 . S
C1326 C1322 1.524 . S
C1326 H1338 0.956 . S
C1326 H1339 0.961 . S
C1326 H1340 0.961 . S
C1327 C1324 1.539 . S
C1327 H1341 0.958 . S
C1327 H1342 0.961 . S
C1327 H1343 0.960 . S
H1328 C1312 0.931 . S
H1329 C1317 0.929 . S
H1330 C1318 0.960 . S
H1331 C1318 0.962 . S
H1332 C1318 0.960 . S
H1333 C1319 0.961 . S
H1334 C1319 0.961 . S
H1335 C1319 0.961 . S
H1336 C1320 0.931 . S
H1337 C1325 0.930 . S
H1338 C1326 0.956 . S
H1339 C1326 0.961 . S
H1340 C1326 0.961 . S
H1341 C1327 0.958 . S
H1342 C1327 0.961 . S
H1343 C1327 0.960 . S
C1344 C1345 1.391 . S
C1344 C1346 1.394 . S
C1344 H1360 0.931 . S
C1345 C1344 1.391 . S
C1345 C1349 1.376 . S
C1346 C1344 1.394 . S
C1346 C1347 1.369 . S
C1346 C1350 1.531 . S
C1347 C1346 1.369 . S
C1347 C1348 1.410 . S
C1347 C1355 1.503 . S
C1348 C1347 1.410 . S
C1348 C1349 1.392 . S
C1348 C1351 1.511 . S
C1349 C1345 1.376 . S
C1349 C1348 1.392 . S
C1349 H1361 0.929 . S
C1350 C1346 1.531 . S
C1350 H1362 0.960 . S
C1350 H1363 0.962 . S
C1350 H1364 0.960 . S
C1351 C1348 1.511 . S
C1351 H1365 0.961 . S
C1351 H1366 0.961 . S
C1351 H1367 0.961 . S
C1352 C1353 1.370 . S
C1352 C1354 1.363 . S
C1352 H1368 0.931 . S
C1353 C1352 1.370 . S
C1353 C1357 1.408 . S
C1354 C1352 1.363 . S
C1354 C1355 1.370 . S
C1354 C1358 1.524 . S
C1355 C1347 1.503 . S
C1355 C1354 1.370 . S
C1355 C1356 1.403 . S
C1356 C1355 1.403 . S
C1356 C1357 1.404 . S
C1356 C1359 1.539 . S
C1357 C1353 1.408 . S
C1357 C1356 1.404 . S
C1357 H1369 0.930 . S
C1358 C1354 1.524 . S
C1358 H1370 0.956 . S
C1358 H1371 0.961 . S
C1358 H1372 0.961 . S
C1359 C1356 1.539 . S
C1359 H1373 0.958 . S
C1359 H1374 0.961 . S
C1359 H1375 0.960 . S
H1360 C1344 0.931 . S
H1361 C1349 0.929 . S
H1362 C1350 0.960 . S
H1363 C1350 0.962 . S
H1364 C1350 0.960 . S
H1365 C1351 0.961 . S
H1366 C1351 0.961 . S
H1367 C1351 0.961 . S
H1368 C1352 0.931 . S
H1369 C1357 0.930 . S
H1370 C1358 0.956 . S
H1371 C1358 0.961 . S
H1372 C1358 0.961 . S
H1373 C1359 0.958 . S
H1374 C1359 0.961 . S
H1375 C1359 0.960 . S
C1376 C1377 1.391 . S
C1376 C1378 1.394 . S
C1376 H1392 0.931 . S
C1377 C1376 1.391 . S
C1377 C1381 1.376 . S
C1378 C1376 1.394 . S
C1378 C1379 1.369 . S
C1378 C1382 1.531 . S
C1379 C1378 1.369 . S
C1379 C1380 1.410 . S
C1379 C1387 1.503 . S
C1380 C1379 1.410 . S
C1380 C1381 1.392 . S
C1380 C1383 1.511 . S
C1381 C1377 1.376 . S
C1381 C1380 1.392 . S
C1381 H1393 0.929 . S
C1382 C1378 1.531 . S
C1382 H1394 0.960 . S
C1382 H1395 0.962 . S
C1382 H1396 0.960 . S
C1383 C1380 1.511 . S
C1383 H1397 0.961 . S
C1383 H1398 0.961 . S
C1383 H1399 0.961 . S
C1384 C1385 1.370 . S
C1384 C1386 1.363 . S
C1384 H1400 0.931 . S
C1385 C1384 1.370 . S
C1385 C1389 1.408 . S
C1386 C1384 1.363 . S
C1386 C1387 1.370 . S
C1386 C1390 1.524 . S
C1387 C1379 1.503 . S
C1387 C1386 1.370 . S
C1387 C1388 1.403 . S
C1388 C1387 1.403 . S
C1388 C1389 1.404 . S
C1388 C1391 1.539 . S
C1389 C1385 1.408 . S
C1389 C1388 1.404 . S
C1389 H1401 0.930 . S
C1390 C1386 1.524 . S
C1390 H1402 0.956 . S
C1390 H1403 0.961 . S
C1390 H1404 0.961 . S
C1391 C1388 1.539 . S
C1391 H1405 0.958 . S
C1391 H1406 0.961 . S
C1391 H1407 0.960 . S
H1392 C1376 0.931 . S
H1393 C1381 0.929 . S
H1394 C1382 0.960 . S
H1395 C1382 0.962 . S
H1396 C1382 0.960 . S
H1397 C1383 0.961 . S
H1398 C1383 0.961 . S
H1399 C1383 0.961 . S
H1400 C1384 0.931 . S
H1401 C1389 0.930 . S
H1402 C1390 0.956 . S
H1403 C1390 0.961 . S
H1404 C1390 0.961 . S
H1405 C1391 0.958 . S
H1406 C1391 0.961 . S
H1407 C1391 0.960 . S
C1408 C1409 1.391 . S
C1408 C1410 1.394 . S
C1408 H1424 0.931 . S
C1409 C1408 1.391 . S
C1409 C1413 1.376 . S
C1410 C1408 1.394 . S
C1410 C1411 1.369 . S
C1410 C1414 1.531 . S
C1411 C1410 1.369 . S
C1411 C1412 1.410 . S
C1411 C1419 1.503 . S
C1412 C1411 1.410 . S
C1412 C1413 1.392 . S
C1412 C1415 1.511 . S
C1413 C1409 1.376 . S
C1413 C1412 1.392 . S
C1413 H1425 0.929 . S
C1414 C1410 1.531 . S
C1414 H1426 0.960 . S
C1414 H1427 0.962 . S
C1414 H1428 0.960 . S
C1415 C1412 1.511 . S
C1415 H1429 0.961 . S
C1415 H1430 0.961 . S
C1415 H1431 0.961 . S
C1416 C1417 1.370 . S
C1416 C1418 1.363 . S
C1416 H1432 0.931 . S
C1417 C1416 1.370 . S
C1417 C1421 1.408 . S
C1418 C1416 1.363 . S
C1418 C1419 1.370 . S
C1418 C1422 1.524 . S
C1419 C1411 1.503 . S
C1419 C1418 1.370 . S
C1419 C1420 1.403 . S
C1420 C1419 1.403 . S
C1420 C1421 1.404 . S
C1420 C1423 1.539 . S
C1421 C1417 1.408 . S
C1421 C1420 1.404 . S
C1421 H1433 0.930 . S
C1422 C1418 1.524 . S
C1422 H1434 0.956 . S
C1422 H1435 0.961 . S
C1422 H1436 0.961 . S
C1423 C1420 1.539 . S
C1423 H1437 0.958 . S
C1423 H1438 0.961 . S
C1423 H1439 0.960 . S
H1424 C1408 0.931 . S
H1425 C1413 0.929 . S
H1426 C1414 0.960 . S
H1427 C1414 0.962 . S
H1428 C1414 0.960 . S
H1429 C1415 0.961 . S
H1430 C1415 0.961 . S
H1431 C1415 0.961 . S
H1432 C1416 0.931 . S
H1433 C1421 0.930 . S
H1434 C1422 0.956 . S
H1435 C1422 0.961 . S
H1436 C1422 0.961 . S
H1437 C1423 0.958 . S
H1438 C1423 0.961 . S
H1439 C1423 0.960 . S
C1440 C1441 1.391 . S
C1440 C1442 1.394 . S
C1440 H1456 0.931 . S
C1441 C1440 1.391 . S
C1441 C1445 1.376 . S
C1442 C1440 1.394 . S
C1442 C1443 1.369 . S
C1442 C1446 1.531 . S
C1443 C1442 1.369 . S
C1443 C1444 1.410 . S
C1443 C1451 1.503 1_455 S
C1444 C1443 1.410 . S
C1444 C1445 1.392 . S
C1444 C1447 1.511 . S
C1445 C1441 1.376 . S
C1445 C1444 1.392 . S
C1445 H1457 0.929 . S
C1446 C1442 1.531 . S
C1446 H1458 0.960 . S
C1446 H1459 0.962 . S
C1446 H1460 0.960 . S
C1447 C1444 1.511 . S
C1447 H1461 0.961 . S
C1447 H1462 0.961 1_455 S
C1447 H1463 0.963 . S
C1448 C1449 1.370 . S
C1448 C1450 1.363 . S
C1448 H1464 0.931 . S
C1449 C1448 1.370 . S
C1449 C1453 1.408 . S
C1450 C1448 1.363 . S
C1450 C1451 1.370 . S
C1450 C1454 1.524 . S
C1451 C1443 1.503 1_655 S
C1451 C1450 1.370 . S
C1451 C1452 1.403 . S
C1452 C1451 1.403 . S
C1452 C1453 1.404 . S
C1452 C1455 1.538 1_654 S
C1453 C1449 1.408 . S
C1453 C1452 1.404 . S
C1453 H1465 0.930 1_554 S
C1454 C1450 1.524 . S
C1454 H1466 0.956 1_655 S
C1454 H1467 0.961 . S
C1454 H1468 0.961 . S
C1455 C1452 1.538 1_456 S
C1455 H1469 0.960 . S
C1455 H1470 0.960 1_455 S
C1455 H1471 0.961 . S
H1456 C1440 0.931 . S
H1457 C1445 0.929 . S
H1458 C1446 0.960 . S
H1459 C1446 0.962 . S
H1460 C1446 0.960 . S
H1461 C1447 0.961 . S
H1462 C1447 0.961 1_655 S
H1463 C1447 0.963 . S
H1464 C1448 0.931 . S
H1465 C1453 0.930 1_556 S
H1466 C1454 0.956 1_455 S
H1467 C1454 0.961 . S
H1468 C1454 0.961 . S
H1469 C1455 0.960 . S
H1470 C1455 0.960 1_655 S
H1471 C1455 0.961 . S
C1472 C1473 1.391 . S
C1472 C1474 1.394 . S
C1472 H1488 0.931 . S
C1473 C1472 1.391 . S
C1473 C1477 1.376 . S
C1474 C1472 1.394 . S
C1474 C1475 1.369 . S
C1474 C1478 1.531 . S
C1475 C1474 1.369 . S
C1475 C1476 1.410 . S
C1475 C1483 1.503 . S
C1476 C1475 1.410 . S
C1476 C1477 1.392 . S
C1476 C1479 1.511 . S
C1477 C1473 1.376 . S
C1477 C1476 1.392 . S
C1477 H1489 0.929 . S
C1478 C1474 1.531 . S
C1478 H1490 0.960 . S
C1478 H1491 0.962 . S
C1478 H1492 0.960 . S
C1479 C1476 1.511 . S
C1479 H1493 0.961 . S
C1479 H1494 0.961 . S
C1479 H1495 0.961 . S
C1480 C1481 1.370 . S
C1480 C1482 1.363 . S
C1480 H1496 0.931 . S
C1481 C1480 1.370 . S
C1481 C1485 1.408 . S
C1482 C1480 1.363 . S
C1482 C1483 1.370 . S
C1482 C1486 1.524 . S
C1483 C1475 1.503 . S
C1483 C1482 1.370 . S
C1483 C1484 1.403 . S
C1484 C1483 1.403 . S
C1484 C1485 1.404 . S
C1484 C1487 1.539 . S
C1485 C1481 1.408 . S
C1485 C1484 1.404 . S
C1485 H1497 0.930 . S
C1486 C1482 1.524 . S
C1486 H1498 0.956 . S
C1486 H1499 0.961 . S
C1486 H1500 0.961 . S
C1487 C1484 1.539 . S
C1487 H1501 0.958 . S
C1487 H1502 0.961 . S
C1487 H1503 0.960 . S
H1488 C1472 0.931 . S
H1489 C1477 0.929 . S
H1490 C1478 0.960 . S
H1491 C1478 0.962 . S
H1492 C1478 0.960 . S
H1493 C1479 0.961 . S
H1494 C1479 0.961 . S
H1495 C1479 0.961 . S
H1496 C1480 0.931 . S
H1497 C1485 0.930 . S
H1498 C1486 0.956 . S
H1499 C1486 0.961 . S
H1500 C1486 0.961 . S
H1501 C1487 0.958 . S
H1502 C1487 0.961 . S
H1503 C1487 0.960 . S
C1504 C1505 1.391 . S
C1504 C1506 1.394 . S
C1504 H1520 0.931 . S
C1505 C1504 1.391 . S
C1505 C1509 1.376 . S
C1506 C1504 1.394 . S
C1506 C1507 1.369 . S
C1506 C1510 1.531 . S
C1507 C1506 1.369 . S
C1507 C1508 1.410 . S
C1507 C1515 1.503 . S
C1508 C1507 1.410 . S
C1508 C1509 1.392 . S
C1508 C1511 1.511 . S
C1509 C1505 1.376 . S
C1509 C1508 1.392 . S
C1509 H1521 0.929 . S
C1510 C1506 1.531 . S
C1510 H1522 0.960 . S
C1510 H1523 0.962 . S
C1510 H1524 0.960 . S
C1511 C1508 1.511 . S
C1511 H1525 0.961 . S
C1511 H1526 0.961 . S
C1511 H1527 0.961 . S
C1512 C1513 1.370 . S
C1512 C1514 1.363 . S
C1512 H1528 0.931 . S
C1513 C1512 1.370 . S
C1513 C1517 1.408 . S
C1514 C1512 1.363 . S
C1514 C1515 1.370 . S
C1514 C1518 1.524 . S
C1515 C1507 1.503 . S
C1515 C1514 1.370 . S
C1515 C1516 1.403 . S
C1516 C1515 1.403 . S
C1516 C1517 1.404 . S
C1516 C1519 1.539 . S
C1517 C1513 1.408 . S
C1517 C1516 1.404 . S
C1517 H1529 0.930 . S
C1518 C1514 1.524 . S
C1518 H1530 0.956 . S
C1518 H1531 0.961 . S
C1518 H1532 0.961 . S
C1519 C1516 1.539 . S
C1519 H1533 0.958 . S
C1519 H1534 0.961 . S
C1519 H1535 0.960 . S
H1520 C1504 0.931 . S
H1521 C1509 0.929 . S
H1522 C1510 0.960 . S
H1523 C1510 0.962 . S
H1524 C1510 0.960 . S
H1525 C1511 0.961 . S
H1526 C1511 0.961 . S
H1527 C1511 0.961 . S
H1528 C1512 0.931 . S
H1529 C1517 0.930 . S
H1530 C1518 0.956 . S
H1531 C1518 0.961 . S
H1532 C1518 0.961 . S
H1533 C1519 0.958 . S
H1534 C1519 0.961 . S
H1535 C1519 0.960 . S
C1536 C1537 1.391 . S
C1536 C1538 1.394 . S
C1536 H1552 0.931 . S
C1537 C1536 1.391 . S
C1537 C1541 1.376 . S
C1538 C1536 1.394 . S
C1538 C1539 1.369 . S
C1538 C1542 1.531 . S
C1539 C1538 1.369 . S
C1539 C1540 1.410 . S
C1539 C1547 1.503 . S
C1540 C1539 1.410 . S
C1540 C1541 1.392 . S
C1540 C1543 1.511 . S
C1541 C1537 1.376 . S
C1541 C1540 1.392 . S
C1541 H1553 0.929 . S
C1542 C1538 1.531 . S
C1542 H1554 0.960 . S
C1542 H1555 0.962 . S
C1542 H1556 0.960 . S
C1543 C1540 1.511 . S
C1543 H1557 0.961 . S
C1543 H1558 0.961 . S
C1543 H1559 0.961 . S
C1544 C1545 1.370 . S
C1544 C1546 1.363 . S
C1544 H1560 0.931 . S
C1545 C1544 1.370 . S
C1545 C1549 1.408 . S
C1546 C1544 1.363 . S
C1546 C1547 1.370 . S
C1546 C1550 1.524 . S
C1547 C1539 1.503 . S
C1547 C1546 1.370 . S
C1547 C1548 1.403 . S
C1548 C1547 1.403 . S
C1548 C1549 1.404 . S
C1548 C1551 1.539 . S
C1549 C1545 1.408 . S
C1549 C1548 1.404 . S
C1549 H1561 0.930 . S
C1550 C1546 1.524 . S
C1550 H1562 0.956 . S
C1550 H1563 0.961 . S
C1550 H1564 0.961 . S
C1551 C1548 1.539 . S
C1551 H1565 0.958 . S
C1551 H1566 0.961 . S
C1551 H1567 0.960 . S
H1552 C1536 0.931 . S
H1553 C1541 0.929 . S
H1554 C1542 0.960 . S
H1555 C1542 0.962 . S
H1556 C1542 0.960 . S
H1557 C1543 0.961 . S
H1558 C1543 0.961 . S
H1559 C1543 0.961 . S
H1560 C1544 0.931 . S
H1561 C1549 0.930 . S
H1562 C1550 0.956 . S
H1563 C1550 0.961 . S
H1564 C1550 0.961 . S
H1565 C1551 0.958 . S
H1566 C1551 0.961 . S
H1567 C1551 0.960 . S
C1568 C1569 1.391 . S
C1568 C1570 1.394 . S
C1568 H1584 0.931 . S
C1569 C1568 1.391 . S
C1569 C1573 1.376 . S
C1570 C1568 1.394 . S
C1570 C1571 1.369 . S
C1570 C1574 1.531 . S
C1571 C1570 1.369 . S
C1571 C1572 1.410 . S
C1571 C1579 1.503 . S
C1572 C1571 1.410 . S
C1572 C1573 1.392 . S
C1572 C1575 1.511 . S
C1573 C1569 1.376 . S
C1573 C1572 1.392 . S
C1573 H1585 0.929 . S
C1574 C1570 1.531 . S
C1574 H1586 0.960 . S
C1574 H1587 0.962 . S
C1574 H1588 0.960 . S
C1575 C1572 1.511 . S
C1575 H1589 0.961 . S
C1575 H1590 0.961 . S
C1575 H1591 0.961 . S
C1576 C1577 1.370 . S
C1576 C1578 1.363 . S
C1576 H1592 0.931 . S
C1577 C1576 1.370 . S
C1577 C1581 1.408 . S
C1578 C1576 1.363 . S
C1578 C1579 1.370 . S
C1578 C1582 1.524 . S
C1579 C1571 1.503 . S
C1579 C1578 1.370 . S
C1579 C1580 1.403 . S
C1580 C1579 1.403 . S
C1580 C1581 1.404 . S
C1580 C1583 1.539 . S
C1581 C1577 1.408 . S
C1581 C1580 1.404 . S
C1581 H1593 0.930 . S
C1582 C1578 1.524 . S
C1582 H1594 0.956 . S
C1582 H1595 0.961 . S
C1582 H1596 0.961 . S
C1583 C1580 1.539 . S
C1583 H1597 0.958 . S
C1583 H1598 0.961 . S
C1583 H1599 0.960 . S
H1584 C1568 0.931 . S
H1585 C1573 0.929 . S
H1586 C1574 0.960 . S
H1587 C1574 0.962 . S
H1588 C1574 0.960 . S
H1589 C1575 0.961 . S
H1590 C1575 0.961 . S
H1591 C1575 0.961 . S
H1592 C1576 0.931 . S
H1593 C1581 0.930 . S
H1594 C1582 0.956 . S
H1595 C1582 0.961 . S
H1596 C1582 0.961 . S
H1597 C1583 0.958 . S
H1598 C1583 0.961 . S
H1599 C1583 0.960 . S
C1600 C1601 1.391 . S
C1600 C1602 1.394 . S
C1600 H1616 0.931 . S
C1601 C1600 1.391 . S
C1601 C1605 1.376 . S
C1602 C1600 1.394 . S
C1602 C1603 1.369 . S
C1602 C1606 1.531 . S
C1603 C1602 1.369 . S
C1603 C1604 1.410 . S
C1603 C1611 1.503 . S
C1604 C1603 1.410 . S
C1604 C1605 1.392 . S
C1604 C1607 1.511 . S
C1605 C1601 1.376 . S
C1605 C1604 1.392 . S
C1605 H1617 0.929 . S
C1606 C1602 1.531 . S
C1606 H1618 0.960 . S
C1606 H1619 0.962 . S
C1606 H1620 0.960 . S
C1607 C1604 1.511 . S
C1607 H1621 0.961 . S
C1607 H1622 0.961 . S
C1607 H1623 0.961 . S
C1608 C1609 1.370 . S
C1608 C1610 1.363 . S
C1608 H1624 0.931 . S
C1609 C1608 1.370 . S
C1609 C1613 1.408 . S
C1610 C1608 1.363 . S
C1610 C1611 1.370 1_455 S
C1610 C1614 1.524 1_455 S
C1611 C1603 1.503 . S
C1611 C1610 1.370 1_655 S
C1611 C1612 1.403 1_655 S
C1612 C1611 1.403 1_455 S
C1612 C1613 1.404 . S
C1612 C1615 1.539 1_455 S
C1613 C1609 1.408 . S
C1613 C1612 1.404 . S
C1613 H1625 0.930 . S
C1614 C1610 1.524 1_655 S
C1614 H1626 0.956 . S
C1614 H1627 0.961 . S
C1614 H1628 0.961 1_655 S
C1615 C1612 1.539 1_655 S
C1615 H1629 0.958 . S
C1615 H1630 0.961 . S
C1615 H1631 0.960 . S
H1616 C1600 0.931 . S
H1617 C1605 0.929 . S
H1618 C1606 0.960 . S
H1619 C1606 0.962 . S
H1620 C1606 0.960 . S
H1621 C1607 0.961 . S
H1622 C1607 0.961 . S
H1623 C1607 0.961 . S
H1624 C1608 0.931 . S
H1625 C1613 0.930 . S
H1626 C1614 0.956 . S
H1627 C1614 0.961 . S
H1628 C1614 0.961 1_455 S
H1629 C1615 0.958 . S
H1630 C1615 0.961 . S
H1631 C1615 0.960 . S
C481 C18 1.070 . S
C489 C458 1.054 . S
C513 C379 1.620 . S
C521 C58 1.740 . S
C545 C99 1.239 . S
C553 C338 1.317 . S
C577 C138 2.043 . S
C585 C418 2.034 . S
C609 C178 1.656 . S
C617 C419 1.614 . S
C641 C219 1.478 . S
C649 C459 1.483 . S
C673 C378 1.806 . S
C681 C258 1.812 . S
C705 C299 1.647 . S
C713 C339 1.720 . S
C737 C139 1.761 . S
C745 C179 1.782 . S
C769 C19 1.566 . S
C777 C218 1.639 . S
C801 C59 1.571 . S
C809 C259 1.601 . S
C833 C298 1.895 . S
C841 C98 1.899 . S
C865 C6 1.606 . S
C873 C329 1.470 . S
C897 C46 1.821 . S
C905 C409 1.740 . S
C929 C449 1.961 . S
C937 C95 1.951 . S
C961 C126 1.540 . S
C969 C370 1.535 . S
C993 C166 1.228 . S
C1001 C369 1.201 . S
C1025 C330 1.930 . S
C1033 C215 1.862 . S
C1057 C410 1.369 . S
C1065 C246 1.370 . S
C1089 C450 2.669 . S
C1097 C295 2.575 . S
C1121 C10 2.767 . S
C1129 C135 2.647 . S
C1153 C15 1.954 . S
C1161 C50 2.057 . S
C1185 C55 2.247 . S
C1193 C89 2.264 . S
C1217 C130 1.685 . S
C1225 C86 1.727 . S
C1249 C206 1.453 . S
C1257 C170 1.449 . S
C1281 C209 1.225 . S
C1289 C255 1.344 . S
C1313 C250 1.446 . S
C1321 C286 1.497 . S
C1345 C175 0.791 . S
C1353 C289 0.867 . S
C1377 C335 0.809 . S
C1385 C129 0.773 . S
C1409 C210 1.645 . S
C1417 C375 1.628 . S
C1441 C326 1.375 . S
C1449 C249 1.309 . S
C1473 C406 1.819 . S
C1481 C290 1.800 . S
C1505 C169 1.215 . S
C1513 C446 1.328 . S
C1537 C455 1.696 . S
C1545 C49 1.621 . S
C1569 C90 1.487 . S
C1577 C366 1.537 . S
C1601 C415 1.790 . S
C1609 C9 1.718 . S
