# Generated by pormake.
# Topology atn, (4)-cn, num edge types: 1
# Building blocks:
#     Node 0, Type 0, BuildingBlock: TATPOV_clean_sbu_0, # of connection points: 4
#     Node 1, Type 0, BuildingBlock: TATPOV_clean_sbu_0, # of connection points: 4
#     Node 2, Type 0, BuildingBlock: TATPOV_clean_sbu_0, # of connection points: 4
#     Node 3, Type 0, BuildingBlock: TATPOV_clean_sbu_0, # of connection points: 4
#     Node 4, Type 0, BuildingBlock: TATPOV_clean_sbu_0, # of connection points: 4
#     Node 5, Type 0, BuildingBlock: TATPOV_clean_sbu_0, # of connection points: 4
#     Node 6, Type 0, BuildingBlock: TATPOV_clean_sbu_0, # of connection points: 4
#     Node 7, Type 0, BuildingBlock: TATPOV_clean_sbu_0, # of connection points: 4
#     Node 8, Type 0, BuildingBlock: TATPOV_clean_sbu_0, # of connection points: 4
#     Node 9, Type 0, BuildingBlock: TATPOV_clean_sbu_0, # of connection points: 4
#     Node 10, Type 0, BuildingBlock: TATPOV_clean_sbu_0, # of connection points: 4
#     Node 11, Type 0, BuildingBlock: TATPOV_clean_sbu_0, # of connection points: 4
#     Node 12, Type 0, BuildingBlock: TATPOV_clean_sbu_0, # of connection points: 4
#     Node 13, Type 0, BuildingBlock: TATPOV_clean_sbu_0, # of connection points: 4
#     Node 14, Type 0, BuildingBlock: TATPOV_clean_sbu_0, # of connection points: 4
#     Node 15, Type 0, BuildingBlock: TATPOV_clean_sbu_0, # of connection points: 4
#     Edge 16, Type (0, 0), BuildingBlock: AJUNOK_clean_linker_0, # of connection points: 2
#     Edge 17, Type (0, 0), BuildingBlock: AJUNOK_clean_linker_0, # of connection points: 2
#     Edge 18, Type (0, 0), BuildingBlock: AJUNOK_clean_linker_0, # of connection points: 2
#     Edge 19, Type (0, 0), BuildingBlock: AJUNOK_clean_linker_0, # of connection points: 2
#     Edge 20, Type (0, 0), BuildingBlock: AJUNOK_clean_linker_0, # of connection points: 2
#     Edge 21, Type (0, 0), BuildingBlock: AJUNOK_clean_linker_0, # of connection points: 2
#     Edge 22, Type (0, 0), BuildingBlock: AJUNOK_clean_linker_0, # of connection points: 2
#     Edge 23, Type (0, 0), BuildingBlock: AJUNOK_clean_linker_0, # of connection points: 2
#     Edge 24, Type (0, 0), BuildingBlock: AJUNOK_clean_linker_0, # of connection points: 2
#     Edge 25, Type (0, 0), BuildingBlock: AJUNOK_clean_linker_0, # of connection points: 2
#     Edge 26, Type (0, 0), BuildingBlock: AJUNOK_clean_linker_0, # of connection points: 2
#     Edge 27, Type (0, 0), BuildingBlock: AJUNOK_clean_linker_0, # of connection points: 2
#     Edge 28, Type (0, 0), BuildingBlock: AJUNOK_clean_linker_0, # of connection points: 2
#     Edge 29, Type (0, 0), BuildingBlock: AJUNOK_clean_linker_0, # of connection points: 2
#     Edge 30, Type (0, 0), BuildingBlock: AJUNOK_clean_linker_0, # of connection points: 2
#     Edge 31, Type (0, 0), BuildingBlock: AJUNOK_clean_linker_0, # of connection points: 2
#     Edge 32, Type (0, 0), BuildingBlock: AJUNOK_clean_linker_0, # of connection points: 2
#     Edge 33, Type (0, 0), BuildingBlock: AJUNOK_clean_linker_0, # of connection points: 2
#     Edge 34, Type (0, 0), BuildingBlock: AJUNOK_clean_linker_0, # of connection points: 2
#     Edge 35, Type (0, 0), BuildingBlock: AJUNOK_clean_linker_0, # of connection points: 2
#     Edge 36, Type (0, 0), BuildingBlock: AJUNOK_clean_linker_0, # of connection points: 2
#     Edge 37, Type (0, 0), BuildingBlock: AJUNOK_clean_linker_0, # of connection points: 2
#     Edge 38, Type (0, 0), BuildingBlock: AJUNOK_clean_linker_0, # of connection points: 2
#     Edge 39, Type (0, 0), BuildingBlock: AJUNOK_clean_linker_0, # of connection points: 2
#     Edge 40, Type (0, 0), BuildingBlock: AJUNOK_clean_linker_0, # of connection points: 2
#     Edge 41, Type (0, 0), BuildingBlock: AJUNOK_clean_linker_0, # of connection points: 2
#     Edge 42, Type (0, 0), BuildingBlock: AJUNOK_clean_linker_0, # of connection points: 2
#     Edge 43, Type (0, 0), BuildingBlock: AJUNOK_clean_linker_0, # of connection points: 2
#     Edge 44, Type (0, 0), BuildingBlock: AJUNOK_clean_linker_0, # of connection points: 2
#     Edge 45, Type (0, 0), BuildingBlock: AJUNOK_clean_linker_0, # of connection points: 2
#     Edge 46, Type (0, 0), BuildingBlock: AJUNOK_clean_linker_0, # of connection points: 2
#     Edge 47, Type (0, 0), BuildingBlock: AJUNOK_clean_linker_0, # of connection points: 2
# Relax obj value: 0.073
# Max RMSD: 0.104
# Mean RMSD: 0.104
data_MOF--net-atn--node1-TATPOV_clean_sbu_0--edge1-AJUNOK_clean_linker_0
_symmetry_space_group_name_H-M    P1
_symmetry_Int_Tables_number       1
_symmetry_cell_setting            triclinic
loop_
_symmetry_equiv_pos_as_xyz
'x, y, z'
_cell_length_a     44.147739
_cell_length_b     44.232514
_cell_length_c     20.444242
_cell_angle_alpha  89.767456
_cell_angle_beta   89.803337
_cell_angle_gamma 89.983289
loop_
_atom_site_label
_atom_site_type_symbol
_atom_site_fract_x
_atom_site_fract_y
_atom_site_fract_z
_atom_type_partial_charge
Zn0 Zn 0.17714 0.33837 0.00083 0.0
Zn1 Zn 0.2108 0.3883 -0.00441 0.0
O2 O 0.18977 0.38669 0.90529 0.0
O3 O 0.16273 0.34497 0.90968 0.0
O4 O 0.22913 0.43022 0.00298 0.0
O5 O 0.15152 0.35187 0.07567 0.0
O6 O 0.18337 0.38984 0.07691 0.0
C7 C 0.17159 0.36808 0.87845 0.0
C8 C 0.2428 0.32881 0.01597 0.0
O9 O 0.24546 0.35706 0.00449 0.0
O10 O 0.21679 0.31666 0.01823 0.0
C11 C 0.23517 0.44857 0.95675 0.0
O12 O 0.23231 0.43943 0.89605 0.0
C13 C 0.16109 0.37573 0.1023 0.0
Zn14 Zn 0.68687 0.17047 -0.01485 0.0
Zn15 Zn 0.63702 0.20364 -0.02151 0.0
O16 O 0.64141 0.18311 0.88847 0.0
O17 O 0.68248 0.15513 0.8942 0.0
O18 O 0.59469 0.22136 -0.02531 0.0
O19 O 0.67269 0.14548 0.06049 0.0
O20 O 0.63403 0.17665 0.06105 0.0
C21 C 0.66006 0.16479 0.86203 0.0
C22 C 0.69586 0.23627 -9e-05 0.0
O23 O 0.66747 0.23869 -0.01049 0.0
O24 O 0.70818 0.21035 0.00163 0.0
C25 C 0.58156 0.23121 0.02585 0.0
O26 O 0.59711 0.23266 0.08042 0.0
C27 C 0.64847 0.15468 0.08678 0.0
Zn28 Zn 0.85461 0.68826 -0.0201 0.0
Zn29 Zn 0.81952 0.63935 -0.02459 0.0
O30 O 0.84073 0.64131 0.88507 0.0
O31 O 0.8699 0.68156 0.88947 0.0
O32 O 0.80004 0.59782 -0.01845 0.0
O33 O 0.87903 0.67417 0.05586 0.0
O34 O 0.84639 0.63685 0.05717 0.0
C35 C 0.85992 0.65909 0.85828 0.0
C36 C 0.789 0.69971 -0.00672 0.0
O37 O 0.78569 0.67138 -0.01578 0.0
O38 O 0.81536 0.71111 -0.00517 0.0
C39 C 0.79857 0.57857 0.93559 0.0
O40 O 0.80724 0.58663 0.87654 0.0
C41 C 0.86878 0.65051 0.08274 0.0
Zn42 Zn 0.34262 0.85347 -0.02074 0.0
Zn43 Zn 0.39305 0.82102 0.96903 0.0
O44 O 0.38794 0.84285 0.88038 0.0
O45 O 0.34589 0.86924 0.88798 0.0
O46 O 0.43539 0.80354 0.96248 0.0
O47 O 0.35789 0.87822 0.05335 0.0
O48 O 0.39667 0.84718 0.05199 0.0
C49 C 0.36863 0.86086 0.85504 0.0
C50 C 0.33487 0.78762 -0.00488 0.0
O51 O 0.36298 0.7856 -0.01884 0.0
O52 O 0.32215 0.8133 -0.00179 0.0
C53 C 0.44883 0.79301 0.01261 0.0
O54 O 0.4336 0.79077 0.06772 0.0
C55 C 0.38234 0.86899 0.07842 0.0
Zn56 Zn 0.17782 0.68784 -0.02568 0.0
Zn57 Zn 0.21013 0.63724 -0.02838 0.0
O58 O 0.1824 0.63435 0.0535 0.0
O59 O 0.15186 0.67346 0.04793 0.0
O60 O 0.22758 0.59507 0.96257 0.0
O61 O 0.16338 0.68371 0.88245 0.0
O62 O 0.18986 0.64173 0.88192 0.0
C63 C 0.16019 0.64949 0.07651 0.0
C64 C 0.24343 0.69553 -0.00541 0.0
O65 O 0.24557 0.66721 -0.01605 0.0
O66 O 0.21776 0.70842 -0.00581 0.0
C67 C 0.2347 0.57773 0.00983 0.0
O68 O 0.23348 0.58834 0.06968 0.0
C69 C 0.17255 0.66041 0.85278 0.0
Zn70 Zn 0.34282 0.17075 -0.00807 0.0
Zn71 Zn 0.39336 0.20381 -0.01251 0.0
O72 O 0.39603 0.17612 0.06885 0.0
O73 O 0.35701 0.14538 0.06647 0.0
O74 O 0.43561 0.22162 -0.01721 0.0
O75 O 0.34829 0.15605 0.90057 0.0
O76 O 0.38982 0.18342 0.89771 0.0
C77 C 0.38121 0.15403 0.09336 0.0
C78 C 0.3344 0.23638 0.01051 0.0
O79 O 0.36278 0.2388 -0.00031 0.0
O80 O 0.3218 0.21061 0.01049 0.0
C81 C 0.44979 0.23058 0.03319 0.0
O82 O 0.43548 0.23093 0.08962 0.0
C83 C 0.37143 0.16536 0.87006 0.0
Zn84 Zn 0.85275 0.33998 -0.02561 0.0
Zn85 Zn 0.81834 0.38924 -0.02874 0.0
O86 O 0.84603 0.39325 0.05249 0.0
O87 O 0.87775 0.35502 0.04835 0.0
O88 O 0.79986 0.43086 0.95923 0.0
O89 O 0.86745 0.34449 0.88246 0.0
O90 O 0.83824 0.38459 0.88108 0.0
C91 C 0.86861 0.37885 0.07603 0.0
C92 C 0.78713 0.32984 -0.00521 0.0
O93 O 0.78395 0.35821 -0.01455 0.0
O94 O 0.81333 0.31803 -0.00648 0.0
C95 C 0.79696 0.45084 0.00335 0.0
O96 O 0.80321 0.44358 0.0642 0.0
C97 C 0.85651 0.36686 0.85202 0.0
Zn98 Zn 0.68521 0.85781 -0.02982 0.0
Zn99 Zn 0.63618 0.82298 0.96786 0.0
O100 O 0.63282 0.8505 0.04887 0.0
O101 O 0.6707 0.88259 0.04523 0.0
O102 O 0.5944 0.80415 0.9642 0.0
O103 O 0.67935 0.87244 0.87872 0.0
O104 O 0.63939 0.84293 0.87716 0.0
C105 C 0.64693 0.87301 0.07292 0.0
C106 C 0.69617 0.79234 -0.0115 0.0
O107 O 0.66774 0.78898 -0.01992 0.0
O108 O 0.70774 0.8186 -0.01251 0.0
C109 C 0.58055 0.79462 0.01491 0.0
O110 O 0.59502 0.79425 0.07094 0.0
C111 C 0.65699 0.86158 0.8484 0.0
Zn112 Zn 0.6727 0.84021 0.44631 0.0
Zn113 Zn 0.70523 0.89056 0.45156 0.0
O114 O 0.67816 0.8937 0.36943 0.0
O115 O 0.64738 0.85477 0.37227 0.0
O116 O 0.72294 0.93271 0.45728 0.0
O117 O 0.65745 0.84456 0.53759 0.0
O118 O 0.68403 0.88651 0.54096 0.0
C119 C 0.6561 0.87897 0.34509 0.0
C120 C 0.73843 0.83197 0.42925 0.0
O121 O 0.74056 0.86024 0.44058 0.0
O122 O 0.71267 0.8193 0.42791 0.0
C123 C 0.73245 0.94742 0.40775 0.0
O124 O 0.73359 0.93378 0.35082 0.0
C125 C 0.66613 0.86768 0.56835 0.0
Zn126 Zn 0.18913 0.67205 0.44987 0.0
Zn127 Zn 0.13953 0.70573 0.45728 0.0
O128 O 0.13517 0.67933 0.37413 0.0
O129 O 0.17378 0.64799 0.37499 0.0
O130 O 0.09783 0.72407 0.47107 0.0
O131 O 0.1856 0.65585 0.54061 0.0
O132 O 0.14497 0.68437 0.54595 0.0
C133 C 0.14962 0.65726 0.34873 0.0
C134 C 0.19873 0.73777 0.43418 0.0
O135 O 0.17035 0.74049 0.44472 0.0
O136 O 0.21079 0.71174 0.43294 0.0
C137 C 0.07806 0.728 0.42674 0.0
O138 O 0.08552 0.72261 0.36563 0.0
C139 C 0.16325 0.66579 0.57267 0.0
Zn140 Zn 0.36 0.18539 0.46938 0.0
Zn141 Zn 0.32459 0.13701 0.47458 0.0
O142 O 0.35086 0.13243 0.39104 0.0
O143 O 0.38339 0.16995 0.3932 0.0
O144 O 0.30516 0.09579 0.48615 0.0
O145 O 0.37628 0.18014 0.55939 0.0
O146 O 0.34625 0.14066 0.56289 0.0
C147 C 0.37341 0.14638 0.36597 0.0
C148 C 0.29449 0.19748 0.45607 0.0
O149 O 0.29084 0.16909 0.46444 0.0
O150 O 0.32097 0.20862 0.45511 0.0
C151 C 0.29745 0.07819 0.4401 0.0
O152 O 0.29914 0.088 0.37948 0.0
C153 C 0.36548 0.15783 0.59041 0.0
Zn154 Zn 0.83818 0.3513 0.44875 0.0
Zn155 Zn 0.88962 0.32076 0.45679 0.0
O156 O 0.89318 0.34729 0.37305 0.0
O157 O 0.85316 0.37678 0.37509 0.0
O158 O 0.93218 0.3052 0.47259 0.0
O159 O 0.83967 0.3671 0.53988 0.0
O160 O 0.88251 0.34201 0.54466 0.0
C161 C 0.87769 0.36881 0.34815 0.0
C162 C 0.83279 0.28537 0.43146 0.0
O163 O 0.86103 0.2842 0.44431 0.0
O164 O 0.81916 0.3106 0.42949 0.0
C165 C 0.9522 0.29927 0.42964 0.0
O166 O 0.94471 0.30035 0.36758 0.0
C167 C 0.86284 0.35903 0.57153 0.0
Zn168 Zn 0.67646 0.18609 0.4589 0.0
Zn169 Zn 0.70829 0.1352 0.46237 0.0
O170 O 0.68858 0.13914 0.55337 0.0
O171 O 0.66279 0.18161 0.55158 0.0
O172 O 0.72515 0.09265 0.46531 0.0
O173 O 0.64964 0.17232 0.38668 0.0
O174 O 0.68008 0.13318 0.38211 0.0
C175 C 0.67157 0.15828 0.58202 0.0
C176 C 0.74212 0.19304 0.43663 0.0
O177 O 0.74402 0.16479 0.44871 0.0
O178 O 0.71656 0.20615 0.43679 0.0
C179 C 0.73419 0.07891 0.41432 0.0
O180 O 0.7355 0.09388 0.35874 0.0
C181 C 0.65789 0.14819 0.35892 0.0
Zn182 Zn 0.83806 0.67453 0.45682 0.0
Zn183 Zn 0.88898 0.70707 0.45818 0.0
O184 O 0.8871 0.68745 0.55018 0.0
O185 O 0.8448 0.66121 0.54884 0.0
O186 O 0.93141 0.72425 0.44837 0.0
O187 O 0.85058 0.64778 0.38333 0.0
O188 O 0.88945 0.67855 0.37904 0.0
C189 C 0.86818 0.67001 0.57882 0.0
C190 C 0.83015 0.74004 0.43599 0.0
O191 O 0.85852 0.74226 0.44676 0.0
O192 O 0.81735 0.71437 0.43651 0.0
C193 C 0.94982 0.73093 0.49377 0.0
O194 O 0.94046 0.72965 0.55471 0.0
C195 C 0.87465 0.65643 0.35545 0.0
Zn196 Zn 0.35649 0.84025 0.45457 0.0
Zn197 Zn 0.32291 0.88988 0.4531 0.0
O198 O 0.34175 0.88874 0.54575 0.0
O199 O 0.36968 0.84757 0.54605 0.0
O200 O 0.30517 0.93204 0.44392 0.0
O201 O 0.38337 0.85211 0.38045 0.0
O202 O 0.35181 0.89025 0.37356 0.0
C203 C 0.35962 0.87062 0.57533 0.0
C204 C 0.29107 0.83036 0.43521 0.0
O205 O 0.28821 0.85883 0.44303 0.0
O206 O 0.31714 0.81829 0.43651 0.0
C207 C 0.29582 0.94866 0.49043 0.0
O208 O 0.29442 0.93723 0.54971 0.0
C209 C 0.37437 0.87558 0.35097 0.0
Zn210 Zn 0.19129 0.35661 0.47832 0.0
Zn211 Zn 0.14192 0.3214 0.48078 0.0
O212 O 0.14328 0.34124 0.57218 0.0
O213 O 0.18315 0.37109 0.56881 0.0
O214 O 0.10053 0.30166 0.47193 0.0
O215 O 0.17801 0.38141 0.40208 0.0
O216 O 0.14011 0.3494 0.40049 0.0
C217 C 0.1606 0.36049 0.5995 0.0
C218 C 0.20261 0.29117 0.46259 0.0
O219 O 0.17412 0.28785 0.47053 0.0
O220 O 0.21418 0.31744 0.46304 0.0
C221 C 0.07822 0.3074 0.50945 0.0
O222 O 0.08277 0.32387 0.56181 0.0
C223 C 0.15421 0.37173 0.37525 0.0
C224 C 0.23858 0.53376 0.93307 0.0
C225 C 0.2397 0.5449 -0.00247 0.0
C226 C 0.23881 0.50264 0.92021 0.0
C227 C 0.24007 0.4812 -0.02878 0.0
H228 H 0.23639 0.54916 0.89201 0.0
H229 H 0.23667 0.49541 0.86988 0.0
S230 S 0.24739 0.49838 0.14828 0.0
N231 N 0.24517 0.53185 0.11266 0.0
N232 N 0.24555 0.47345 0.08858 0.0
C233 C 0.24308 0.492 0.03568 0.0
C234 C 0.24291 0.52377 0.04879 0.0
C235 C 0.4992 0.22852 -0.02769 0.0
C236 C 0.48314 0.23565 0.02989 0.0
C237 C 0.53097 0.22868 -0.02948 0.0
C238 C 0.54814 0.23601 0.0262 0.0
H239 H 0.48724 0.2215 0.92877 0.0
H240 H 0.54209 0.22178 0.92569 0.0
S241 S 0.51713 0.26079 0.18648 0.0
N242 N 0.4869 0.25349 0.14201 0.0
N243 N 0.54649 0.25383 0.13867 0.0
C244 C 0.53237 0.24512 0.08286 0.0
C245 C 0.49995 0.24493 0.08469 0.0
C246 C 0.79238 0.50558 0.03345 0.0
C247 C 0.79194 0.4831 -0.01512 0.0
C248 C 0.7927 0.53641 0.01711 0.0
C249 C 0.79274 0.54617 0.9514 0.0
H250 H 0.79375 0.4994 0.08468 0.0
H251 H 0.7944 0.55263 0.05649 0.0
S252 S 0.78712 0.49669 0.80561 0.0
N253 N 0.78809 0.47299 0.86813 0.0
N254 N 0.78885 0.53084 0.83761 0.0
C255 C 0.79024 0.52403 0.90242 0.0
C256 C 0.78978 0.49257 0.91907 0.0
C257 C 0.53086 0.79684 0.9559 0.0
C258 C 0.54727 0.78915 0.01257 0.0
C259 C 0.49909 0.79647 0.95534 0.0
C260 C 0.48227 0.78835 0.01139 0.0
H261 H 0.54254 0.80451 0.9122 0.0
H262 H 0.48769 0.80385 0.91125 0.0
S263 S 0.51429 0.76171 0.16932 0.0
N264 N 0.54424 0.76983 0.12401 0.0
N265 N 0.48463 0.76907 0.12297 0.0
C266 C 0.4984 0.77861 0.06701 0.0
C267 C 0.53082 0.77903 0.0676 0.0
C268 C 0.74079 0.02962 0.35584 0.0
C269 C 0.73833 0.04549 0.41522 0.0
C270 C 0.74036 0.99792 0.35425 0.0
C271 C 0.73745 0.98066 0.41197 0.0
H272 H 0.74183 0.04172 0.30971 0.0
H273 H 0.74108 0.98697 0.30697 0.0
S274 S 0.73436 1.01103 0.58107 0.0
N275 N 0.7359 0.04136 0.53388 0.0
N276 N 0.7351 0.98188 0.53092 0.0
C277 C 0.73677 0.99618 0.47203 0.0
C278 C 0.73721 0.02851 0.47364 0.0
C279 C 0.9924 0.73324 0.41233 0.0
C280 C 0.98255 0.73515 0.47783 0.0
C281 C 0.02329 0.73255 0.39616 0.0
C282 C 0.0458 0.73371 0.4447 0.0
H283 H 0.97616 0.73109 0.37304 0.0
H284 H 0.02946 0.72986 0.34519 0.0
S285 S 0.03226 0.74294 0.62307 0.0
N286 N 0.99801 0.74127 0.59117 0.0
N287 N 0.05599 0.73999 0.56085 0.0
C288 C 0.03633 0.73756 0.51011 0.0
C289 C 1.00479 0.73828 0.52662 0.0
C290 C 0.29292 0.02452 0.40242 0.0
C291 C 0.29198 0.04555 0.45391 0.0
C292 C 0.29267 0.99329 0.41461 0.0
C293 C 0.29126 0.98165 0.47883 0.0
H294 H 0.29526 0.03214 0.35223 0.0
H295 H 0.29468 0.97818 0.37324 0.0
S296 S 0.28453 0.02709 0.6307 0.0
N297 N 0.28671 0.05246 0.57144 0.0
N298 N 0.2861 0.99387 0.59436 0.0
C299 C 0.28838 1.00242 0.53059 0.0
C300 C 0.28879 0.03428 0.51815 0.0
C301 C 0.02291 0.30312 0.53482 0.0
C302 C 0.04669 0.30009 0.48933 0.0
C303 C 0.99253 0.30111 0.51558 0.0
C304 C 0.9845 0.29627 0.44977 0.0
H305 H 0.02772 0.30808 0.58557 0.0
H306 H 0.97523 0.30468 0.55244 0.0
S307 S 0.03819 0.28378 0.31217 0.0
N308 N 0.06015 0.28952 0.37611 0.0
N309 N 1.00309 0.28597 0.33988 0.0
C310 C 1.00807 0.29152 0.40429 0.0
C311 C 0.0391 0.29335 0.42406 0.0
C312 C 0.29536 0.31206 -0.01564 0.0
C313 C 0.26958 0.30905 0.02466 0.0
C314 C 0.31783 0.2894 -0.01699 0.0
C315 C 0.31505 0.26319 0.02192 0.0
H316 H 0.29719 0.33095 0.9507 0.0
H317 H 0.33634 0.29147 0.94836 0.0
S318 S 0.25521 0.24786 0.14545 0.0
N319 N 0.24511 0.2802 0.11135 0.0
N320 N 0.28703 0.2379 0.10875 0.0
C321 C 0.29076 0.26138 0.06631 0.0
C322 C 0.26809 0.28425 0.06771 0.0
C323 C 0.76558 0.28205 0.03863 0.0
C324 C 0.76084 0.30948 0.00519 0.0
C325 C 0.74353 0.25944 0.03986 0.0
C326 C 0.71567 0.26313 0.00762 0.0
H327 H 0.78707 0.27745 0.06214 0.0
H328 H 0.74893 0.23834 0.0643 0.0
S329 S 0.69047 0.33205 0.91919 0.0
N330 N 0.72509 0.34029 0.94396 0.0
N331 N 0.68336 0.2975 0.94619 0.0
C332 C 0.70962 0.29127 -0.02207 0.0
C333 C 0.73228 0.31451 -0.02327 0.0
C334 C 0.76736 0.74887 0.02883 0.0
C335 C 0.76268 0.72042 4e-05 0.0
C336 C 0.74499 0.77117 0.0277 0.0
C337 C 0.71681 0.76616 -0.00223 0.0
H338 H 0.78894 0.75442 0.05081 0.0
H339 H 0.75031 0.79296 0.04882 0.0
S340 S 0.69173 0.69454 0.92118 0.0
N341 N 0.72673 0.6875 0.94529 0.0
N342 N 0.68442 0.72971 0.94322 0.0
C343 C 0.71094 0.7372 -0.02755 0.0
C344 C 0.73393 0.71427 -0.02643 0.0
C345 C 0.29609 0.71237 0.9645 0.0
C346 C 0.27047 0.71457 0.00543 0.0
C347 C 0.31853 0.73505 0.96453 0.0
C348 C 0.31585 0.76045 0.00548 0.0
H349 H 0.29772 0.69425 0.92916 0.0
H350 H 0.33684 0.73375 0.92926 0.0
S351 S 0.25648 0.77312 0.13127 0.0
N352 N 0.24627 0.74152 0.09473 0.0
N353 N 0.28818 0.78384 0.09495 0.0
C354 C 0.29179 0.76127 0.05061 0.0
C355 C 0.26914 0.73839 0.05054 0.0
C356 C 0.81344 0.79296 0.46308 0.0
C357 C 0.81106 0.76697 0.42388 0.0
C358 C 0.79093 0.81558 0.4613 0.0
C359 C 0.76554 0.81272 0.42025 0.0
H360 H 0.83158 0.79483 0.49838 0.0
H361 H 0.79234 0.83422 0.49534 0.0
S362 S 0.75243 0.75223 0.29849 0.0
N363 N 0.78394 0.74214 0.33596 0.0
N364 N 0.74195 0.78436 0.33258 0.0
C365 C 0.76453 0.78822 0.37683 0.0
C366 C 0.78723 0.76539 0.37867 0.0
C367 C 0.26897 0.78268 0.39331 0.0
C368 C 0.26455 0.81022 0.42609 0.0
C369 C 0.24666 0.76033 0.393 0.0
C370 C 0.21885 0.7644 0.42556 0.0
H371 H 0.29039 0.7778 0.36954 0.0
H372 H 0.25181 0.73914 0.36898 0.0
S373 S 0.19451 0.83375 0.51272 0.0
N374 N 0.2292 0.84154 0.48715 0.0
N375 N 0.18698 0.79923 0.48671 0.0
C376 C 0.21315 0.79265 0.45468 0.0
C377 C 0.23607 0.81563 0.45492 0.0
C378 C 0.27365 0.24731 0.42221 0.0
C379 C 0.26846 0.21859 0.44987 0.0
C380 C 0.2516 0.26991 0.4241 0.0
C381 C 0.2232 0.26494 0.45363 0.0
H382 H 0.29539 0.25282 0.4005 0.0
H383 H 0.25728 0.29183 0.40368 0.0
S384 S 0.19687 0.19282 0.52769 0.0
N385 N 0.23187 0.18557 0.50346 0.0
N386 N 0.19011 0.22831 0.50684 0.0
C387 C 0.21685 0.23578 0.47798 0.0
C388 C 0.23954 0.21255 0.47612 0.0
C389 C 0.81705 0.23283 0.46442 0.0
C390 C 0.81456 0.25772 0.42158 0.0
C391 C 0.79467 0.21009 0.46575 0.0
C392 C 0.76931 0.21175 0.42431 0.0
H393 H 0.83504 0.2321 0.50028 0.0
H394 H 0.79607 0.19247 0.50257 0.0
S395 S 0.75601 0.26874 0.29404 0.0
N396 N 0.78746 0.27996 0.33003 0.0
N397 N 0.74565 0.23753 0.33264 0.0
C398 C 0.76827 0.23496 0.37732 0.0
C399 C 0.79086 0.25789 0.37592 0.0
C400 C 0.1283 0.36289 0.2693 0.0
C401 C 0.14701 0.38139 0.30775 0.0
C402 C 0.13016 0.36378 0.20109 0.0
C403 C 0.15071 0.38326 0.1692 0.0
H404 H 0.11447 0.34541 0.29163 0.0
H405 H 0.11759 0.34704 0.17381 0.0
S406 S 0.19568 0.44401 0.24741 0.0
N407 N 0.18005 0.42543 0.30906 0.0
N408 N 0.1835 0.42721 0.1805 0.0
C409 C 0.16542 0.40541 0.20674 0.0
C410 C 0.16357 0.40445 0.27632 0.0
C411 C 0.62647 0.16242 0.26262 0.0
C412 C 0.64624 0.14158 0.29261 0.0
C413 C 0.62401 0.16401 0.19453 0.0
C414 C 0.64126 0.14485 0.1543 0.0
H415 H 0.61514 0.17963 0.29122 0.0
H416 H 0.61104 0.18246 0.17367 0.0
S417 S 0.68687 0.07907 0.20944 0.0
N418 N 0.67627 0.09593 0.27769 0.0
N419 N 0.67179 0.09906 0.14941 0.0
C420 C 0.65683 0.12065 0.18392 0.0
C421 C 0.65927 0.11897 0.25336 0.0
C422 C 0.90144 0.66293 0.2492 0.0
C423 C 0.88156 0.64583 0.28852 0.0
C424 C 0.89989 0.66152 0.18104 0.0
C425 C 0.87848 0.64291 0.15005 0.0
H426 H 0.9161 0.67981 0.27065 0.0
H427 H 0.91351 0.67731 0.15293 0.0
S428 S 0.82983 0.58542 0.23123 0.0
N429 N 0.84614 0.60366 0.29198 0.0
N430 N 0.84327 0.60092 0.16352 0.0
C431 C 0.8624 0.62192 0.1887 0.0
C432 C 0.86393 0.62342 0.25824 0.0
C433 C 0.40491 0.86066 0.2536 0.0
C434 C 0.38562 0.8818 0.28393 0.0
C435 C 0.40707 0.85909 0.18544 0.0
C436 C 0.38998 0.8786 0.14555 0.0
H437 H 0.41607 0.84324 0.28207 0.0
H438 H 0.41963 0.84045 0.16437 0.0
S439 S 0.34545 0.94489 0.20123 0.0
N440 N 0.35605 0.92782 0.26937 0.0
N441 N 0.36008 0.92479 0.141 0.0
C442 C 0.37487 0.90296 0.17533 0.0
C443 C 0.3727 0.9046 0.24479 0.0
C444 C 0.14378 0.67881 0.68346 0.0
C445 C 0.16092 0.65942 0.64352 0.0
C446 C 0.14625 0.67765 0.75155 0.0
C447 C 0.16581 0.65692 0.78235 0.0
H448 H 0.12972 0.69633 0.66212 0.0
H449 H 0.13382 0.69417 0.77991 0.0
S450 S 0.21086 0.59709 0.70005 0.0
N451 N 0.19461 0.61588 0.63972 0.0
N452 N 0.19919 0.61355 0.76792 0.0
C453 C 0.18088 0.6355 0.74323 0.0
C454 C 0.17847 0.6368 0.67373 0.0
C455 C 0.39102 0.17561 0.69179 0.0
C456 C 0.37197 0.1545 0.66103 0.0
C457 C 0.39249 0.17747 0.75992 0.0
C458 C 0.37488 0.15838 0.79984 0.0
H459 H 0.40364 0.19204 0.66325 0.0
H460 H 0.40604 0.19532 0.78113 0.0
S461 S 0.32661 0.09484 0.74402 0.0
N462 N 0.33903 0.1108 0.67594 0.0
N463 N 0.34173 0.11444 0.8042 0.0
C464 C 0.35805 0.13525 0.76995 0.0
C465 C 0.35665 0.13325 0.70046 0.0
C466 C 0.88263 0.35032 0.74996 0.0
C467 C 0.86209 0.36999 0.78089 0.0
C468 C 0.88422 0.34845 0.68183 0.0
C469 C 0.86517 0.36605 0.64195 0.0
H470 H 0.89665 0.33511 0.77848 0.0
H471 H 0.89926 0.33179 0.66059 0.0
S472 S 0.81148 0.4252 0.69812 0.0
N473 N 0.82534 0.41056 0.76612 0.0
N474 N 0.82823 0.40686 0.63784 0.0
C475 C 0.84636 0.38765 0.67197 0.0
C476 C 0.84487 0.3897 0.7415 0.0
C477 C 0.67435 0.88763 0.74657 0.0
C478 C 0.65396 0.86761 0.77743 0.0
C479 C 0.67658 0.88917 0.67843 0.0
C480 C 0.65862 0.87066 0.63854 0.0
H481 H 0.68989 0.9011 0.77509 0.0
H482 H 0.69387 0.90363 0.65722 0.0
S483 S 0.59735 0.81908 0.69446 0.0
N484 N 0.6122 0.83234 0.76253 0.0
N485 N 0.61649 0.83523 0.63428 0.0
C486 C 0.63618 0.85266 0.66848 0.0
C487 C 0.63382 0.85117 0.73799 0.0
C488 C 0.84953 0.64324 0.67881 0.0
C489 C 0.87119 0.66238 0.64919 0.0
C490 C 0.84761 0.64028 0.7468 0.0
C491 C 0.86719 0.6564 0.78787 0.0
H492 H 0.83279 0.63165 0.64957 0.0
H493 H 0.82931 0.62684 0.76713 0.0
S494 S 0.93209 0.70414 0.73495 0.0
N495 N 0.91573 0.69373 0.66617 0.0
N496 N 0.91213 0.68818 0.79413 0.0
C497 C 0.89084 0.67321 0.75891 0.0
C498 C 0.89285 0.67617 0.68952 0.0
C499 C 0.38739 0.85445 0.67546 0.0
C500 C 0.36608 0.8739 0.64602 0.0
C501 C 0.38963 0.85201 0.74344 0.0
C502 C 0.37059 0.86883 0.78476 0.0
H503 H 0.40144 0.83976 0.64591 0.0
H504 H 0.40517 0.83543 0.76343 0.0
S505 S 0.3154 0.92754 0.73266 0.0
N506 N 0.32885 0.91363 0.66363 0.0
N507 N 0.33305 0.90908 0.79163 0.0
C508 C 0.3512 0.89044 0.75617 0.0
C509 C 0.34899 0.893 0.68673 0.0
C510 C 0.14275 0.34639 0.71118 0.0
C511 C 0.15738 0.36724 0.66991 0.0
C512 C 0.14574 0.34818 0.77912 0.0
C513 C 0.1634 0.37096 0.80841 0.0
H514 H 0.13065 0.3273 0.69097 0.0
H515 H 0.13549 0.33047 0.80848 0.0
S516 S 0.20012 0.43525 0.72207 0.0
N517 N 0.18567 0.4144 0.66312 0.0
N518 N 0.19115 0.41785 0.79101 0.0
C519 C 0.17542 0.39378 0.76791 0.0
C520 C 0.17246 0.39188 0.69859 0.0
C521 C 0.64171 0.17771 0.75025 0.0
C522 C 0.65822 0.15823 0.79127 0.0
C523 C 0.64481 0.17628 0.68225 0.0
C524 C 0.66439 0.15522 0.65257 0.0
H525 H 0.62771 0.19546 0.77068 0.0
H526 H 0.63279 0.19285 0.65302 0.0
S527 S 0.70804 0.09522 0.73802 0.0
N528 N 0.69141 0.11435 0.79729 0.0
N529 N 0.69719 0.1116 0.6693 0.0
C530 C 0.67888 0.1338 0.6928 0.0
C531 C 0.67582 0.13534 0.7622 0.0
C532 C 0.86387 0.40084 0.25228 0.0
C533 C 0.88416 0.38014 0.28115 0.0
C534 C 0.86154 0.40346 0.18429 0.0
C535 C 0.8795 0.38552 0.14291 0.0
H536 H 0.84753 0.41294 0.28194 0.0
H537 H 0.84342 0.41724 0.16459 0.0
S538 S 0.94386 0.33691 0.19415 0.0
N539 N 0.92817 0.34804 0.2634 0.0
N540 N 0.92397 0.35308 0.13536 0.0
C541 C 0.90339 0.36889 0.17113 0.0
C542 C 0.90571 0.36618 0.24049 0.0
C543 C 0.62195 0.86459 0.18064 0.0
C544 C 0.63998 0.88311 0.14024 0.0
C545 C 0.62439 0.86605 0.2487 0.0
C546 C 0.64492 0.88606 0.27853 0.0
H547 H 0.60828 0.84671 0.15998 0.0
H548 H 0.61233 0.84928 0.27746 0.0
S549 S 0.68794 0.94709 0.19485 0.0
N550 N 0.67216 0.92778 0.13499 0.0
N551 N 0.67667 0.93053 0.26323 0.0
C552 C 0.65883 0.9082 0.23909 0.0
C553 C 0.65638 0.90671 0.16965 0.0
C554 C 0.12574 0.6663 0.24036 0.0
C555 C 0.14263 0.6472 0.28148 0.0
C556 C 0.12855 0.66435 0.17234 0.0
C557 C 0.14839 0.6433 0.14325 0.0
H558 H 0.1128 0.68491 0.26042 0.0
H559 H 0.1174 0.68147 0.14301 0.0
S560 S 0.18833 0.58103 0.22919 0.0
N561 N 0.17292 0.60128 0.28829 0.0
N562 N 0.17824 0.59769 0.16021 0.0
C563 C 0.16116 0.62086 0.18349 0.0
C564 C 0.15826 0.62281 0.25285 0.0
C565 C 0.4049 0.15898 0.26835 0.0
C566 C 0.38389 0.13942 0.29875 0.0
C567 C 0.40697 0.1609 0.20023 0.0
C568 C 0.38811 0.1433 0.16031 0.0
H569 H 0.41771 0.17509 0.29686 0.0
H570 H 0.42111 0.17849 0.17929 0.0
S571 S 0.33842 0.08049 0.21586 0.0
N572 N 0.35061 0.09615 0.28403 0.0
N573 N 0.35446 0.09974 0.15567 0.0
C574 C 0.37111 0.12004 0.19002 0.0
C575 C 0.36901 0.11809 0.25952 0.0
loop_
_geom_bond_atom_site_label_1
_geom_bond_atom_site_label_2
_geom_bond_distance
_geom_bond_site_symmetry_2
_ccdc_geom_bond_type
Zn0 O3 2.031 1_554 S
Zn0 O5 2.049 . S
Zn0 O10 2.067 . S
Zn1 O2 1.962 . S
Zn1 O4 1.986 1_556 S
Zn1 O6 1.996 1_556 S
Zn1 O9 1.943 1_556 S
O2 Zn1 1.962 . S
O2 C7 1.254 . S
O3 Zn0 2.031 1_556 S
O3 C7 1.269 . S
O4 Zn1 1.986 1_554 S
O4 C11 1.262 1_554 S
O5 Zn0 2.049 . S
O5 C13 1.260 . S
O6 Zn1 1.996 1_554 S
O6 C13 1.257 . S
C7 O2 1.254 . S
C7 O3 1.269 . S
C8 O9 1.249 . S
C8 O10 1.270 . S
O9 Zn1 1.943 1_554 S
O9 C8 1.249 . S
O10 Zn0 2.067 . S
O10 C8 1.270 . S
C11 O4 1.262 1_556 S
C11 O12 1.232 . S
O12 C11 1.232 . S
C13 O5 1.260 . S
C13 O6 1.257 . S
Zn14 O17 2.031 1_554 S
Zn14 O19 2.049 . S
Zn14 O24 2.067 . S
Zn15 O16 1.962 . S
Zn15 O18 1.986 1_556 S
Zn15 O20 1.996 1_556 S
Zn15 O23 1.943 1_556 S
O16 Zn15 1.962 . S
O16 C21 1.254 . S
O17 Zn14 2.031 1_556 S
O17 C21 1.269 . S
O18 Zn15 1.986 1_554 S
O18 C25 1.262 1_554 S
O19 Zn14 2.049 . S
O19 C27 1.260 . S
O20 Zn15 1.996 1_554 S
O20 C27 1.257 . S
C21 O16 1.254 . S
C21 O17 1.269 . S
C22 O23 1.249 . S
C22 O24 1.270 . S
O23 Zn15 1.943 1_554 S
O23 C22 1.249 . S
O24 Zn14 2.067 . S
O24 C22 1.270 . S
C25 O18 1.262 1_556 S
C25 O26 1.232 . S
O26 C25 1.232 . S
C27 O19 1.260 . S
C27 O20 1.257 . S
Zn28 O31 2.031 1_554 S
Zn28 O33 2.049 . S
Zn28 O38 2.067 . S
Zn29 O30 1.962 . S
Zn29 O32 1.986 1_556 S
Zn29 O34 1.996 1_556 S
Zn29 O37 1.943 1_556 S
O30 Zn29 1.962 . S
O30 C35 1.254 . S
O31 Zn28 2.031 1_556 S
O31 C35 1.269 . S
O32 Zn29 1.986 1_554 S
O32 C39 1.262 1_554 S
O33 Zn28 2.049 . S
O33 C41 1.260 . S
O34 Zn29 1.996 1_554 S
O34 C41 1.257 . S
C35 O30 1.254 . S
C35 O31 1.269 . S
C36 O37 1.249 . S
C36 O38 1.270 . S
O37 Zn29 1.943 1_554 S
O37 C36 1.249 . S
O38 Zn28 2.067 . S
O38 C36 1.270 . S
C39 O32 1.262 1_556 S
C39 O40 1.232 . S
O40 C39 1.232 . S
C41 O33 1.260 . S
C41 O34 1.257 . S
Zn42 O45 2.031 1_554 S
Zn42 O47 2.049 . S
Zn42 O52 2.067 . S
Zn43 O44 1.962 . S
Zn43 O46 1.986 1_556 S
Zn43 O48 1.996 1_556 S
Zn43 O51 1.943 1_556 S
O44 Zn43 1.962 . S
O44 C49 1.254 . S
O45 Zn42 2.031 1_556 S
O45 C49 1.269 . S
O46 Zn43 1.986 1_554 S
O46 C53 1.262 1_554 S
O47 Zn42 2.049 . S
O47 C55 1.260 . S
O48 Zn43 1.996 1_554 S
O48 C55 1.257 . S
C49 O44 1.254 . S
C49 O45 1.269 . S
C50 O51 1.249 . S
C50 O52 1.270 . S
O51 Zn43 1.943 1_554 S
O51 C50 1.249 . S
O52 Zn42 2.067 . S
O52 C50 1.270 . S
C53 O46 1.262 1_556 S
C53 O54 1.232 . S
O54 C53 1.232 . S
C55 O47 1.260 . S
C55 O48 1.257 . S
Zn56 O59 2.031 1_556 S
Zn56 O61 2.049 . S
Zn56 O66 2.067 . S
Zn57 O58 1.962 . S
Zn57 O60 1.986 1_554 S
Zn57 O62 1.996 1_554 S
Zn57 O65 1.943 . S
O58 Zn57 1.962 . S
O58 C63 1.254 . S
O59 Zn56 2.031 1_554 S
O59 C63 1.269 . S
O60 Zn57 1.986 1_556 S
O60 C67 1.262 1_556 S
O61 Zn56 2.049 . S
O61 C69 1.260 . S
O62 Zn57 1.996 1_556 S
O62 C69 1.257 . S
C63 O58 1.254 . S
C63 O59 1.269 . S
C64 O65 1.249 1_556 S
C64 O66 1.270 . S
O65 Zn57 1.943 . S
O65 C64 1.249 1_554 S
O66 Zn56 2.067 . S
O66 C64 1.270 . S
C67 O60 1.262 1_554 S
C67 O68 1.232 . S
O68 C67 1.232 . S
C69 O61 1.260 . S
C69 O62 1.257 . S
Zn70 O73 2.031 1_556 S
Zn70 O75 2.049 . S
Zn70 O80 2.067 . S
Zn71 O72 1.962 . S
Zn71 O74 1.986 1_554 S
Zn71 O76 1.996 1_554 S
Zn71 O79 1.943 . S
O72 Zn71 1.962 . S
O72 C77 1.254 . S
O73 Zn70 2.031 1_554 S
O73 C77 1.269 . S
O74 Zn71 1.986 1_556 S
O74 C81 1.262 1_556 S
O75 Zn70 2.049 . S
O75 C83 1.260 . S
O76 Zn71 1.996 1_556 S
O76 C83 1.257 . S
C77 O72 1.254 . S
C77 O73 1.269 . S
C78 O79 1.249 1_556 S
C78 O80 1.270 . S
O79 Zn71 1.943 . S
O79 C78 1.249 1_554 S
O80 Zn70 2.067 . S
O80 C78 1.270 . S
C81 O74 1.262 1_554 S
C81 O82 1.232 . S
O82 C81 1.232 . S
C83 O75 1.260 . S
C83 O76 1.257 . S
Zn84 O87 2.031 1_556 S
Zn84 O89 2.049 . S
Zn84 O94 2.067 . S
Zn85 O86 1.962 . S
Zn85 O88 1.986 1_554 S
Zn85 O90 1.996 1_554 S
Zn85 O93 1.943 . S
O86 Zn85 1.962 . S
O86 C91 1.254 . S
O87 Zn84 2.031 1_554 S
O87 C91 1.269 . S
O88 Zn85 1.986 1_556 S
O88 C95 1.262 1_556 S
O89 Zn84 2.049 . S
O89 C97 1.260 . S
O90 Zn85 1.996 1_556 S
O90 C97 1.257 . S
C91 O86 1.254 . S
C91 O87 1.269 . S
C92 O93 1.249 1_556 S
C92 O94 1.270 . S
O93 Zn85 1.943 . S
O93 C92 1.249 1_554 S
O94 Zn84 2.067 . S
O94 C92 1.270 . S
C95 O88 1.262 1_554 S
C95 O96 1.232 . S
O96 C95 1.232 . S
C97 O89 1.260 . S
C97 O90 1.257 . S
Zn98 O101 2.031 1_556 S
Zn98 O103 2.049 . S
Zn98 O108 2.067 . S
Zn99 O100 1.962 . S
Zn99 O102 1.986 1_554 S
Zn99 O104 1.996 1_554 S
Zn99 O107 1.943 . S
O100 Zn99 1.962 . S
O100 C105 1.254 . S
O101 Zn98 2.031 1_554 S
O101 C105 1.269 . S
O102 Zn99 1.986 1_556 S
O102 C109 1.262 1_556 S
O103 Zn98 2.049 . S
O103 C111 1.260 . S
O104 Zn99 1.996 1_556 S
O104 C111 1.257 . S
C105 O100 1.254 . S
C105 O101 1.269 . S
C106 O107 1.249 1_556 S
C106 O108 1.270 . S
O107 Zn99 1.943 . S
O107 C106 1.249 1_554 S
O108 Zn98 2.067 . S
O108 C106 1.270 . S
C109 O102 1.262 1_554 S
C109 O110 1.232 . S
O110 C109 1.232 . S
C111 O103 1.260 . S
C111 O104 1.257 . S
Zn112 O115 2.031 . S
Zn112 O117 2.049 . S
Zn112 O122 2.067 . S
Zn113 O114 1.962 . S
Zn113 O116 1.986 . S
Zn113 O118 1.996 . S
Zn113 O121 1.943 . S
O114 Zn113 1.962 . S
O114 C119 1.254 . S
O115 Zn112 2.031 . S
O115 C119 1.269 . S
O116 Zn113 1.986 . S
O116 C123 1.262 . S
O117 Zn112 2.049 . S
O117 C125 1.260 . S
O118 Zn113 1.996 . S
O118 C125 1.257 . S
C119 O114 1.254 . S
C119 O115 1.269 . S
C120 O121 1.249 . S
C120 O122 1.270 . S
O121 Zn113 1.943 . S
O121 C120 1.249 . S
O122 Zn112 2.067 . S
O122 C120 1.270 . S
C123 O116 1.262 . S
C123 O124 1.232 . S
O124 C123 1.232 . S
C125 O117 1.260 . S
C125 O118 1.257 . S
Zn126 O129 2.031 . S
Zn126 O131 2.049 . S
Zn126 O136 2.067 . S
Zn127 O128 1.962 . S
Zn127 O130 1.986 . S
Zn127 O132 1.996 . S
Zn127 O135 1.943 . S
O128 Zn127 1.962 . S
O128 C133 1.254 . S
O129 Zn126 2.031 . S
O129 C133 1.269 . S
O130 Zn127 1.986 . S
O130 C137 1.262 . S
O131 Zn126 2.049 . S
O131 C139 1.260 . S
O132 Zn127 1.996 . S
O132 C139 1.257 . S
C133 O128 1.254 . S
C133 O129 1.269 . S
C134 O135 1.249 . S
C134 O136 1.270 . S
O135 Zn127 1.943 . S
O135 C134 1.249 . S
O136 Zn126 2.067 . S
O136 C134 1.270 . S
C137 O130 1.262 . S
C137 O138 1.232 . S
O138 C137 1.232 . S
C139 O131 1.260 . S
C139 O132 1.257 . S
Zn140 O143 2.031 . S
Zn140 O145 2.049 . S
Zn140 O150 2.067 . S
Zn141 O142 1.962 . S
Zn141 O144 1.986 . S
Zn141 O146 1.996 . S
Zn141 O149 1.943 . S
O142 Zn141 1.962 . S
O142 C147 1.254 . S
O143 Zn140 2.031 . S
O143 C147 1.269 . S
O144 Zn141 1.986 . S
O144 C151 1.262 . S
O145 Zn140 2.049 . S
O145 C153 1.260 . S
O146 Zn141 1.996 . S
O146 C153 1.257 . S
C147 O142 1.254 . S
C147 O143 1.269 . S
C148 O149 1.249 . S
C148 O150 1.270 . S
O149 Zn141 1.943 . S
O149 C148 1.249 . S
O150 Zn140 2.067 . S
O150 C148 1.270 . S
C151 O144 1.262 . S
C151 O152 1.232 . S
O152 C151 1.232 . S
C153 O145 1.260 . S
C153 O146 1.257 . S
Zn154 O157 2.031 . S
Zn154 O159 2.049 . S
Zn154 O164 2.067 . S
Zn155 O156 1.962 . S
Zn155 O158 1.986 . S
Zn155 O160 1.996 . S
Zn155 O163 1.943 . S
O156 Zn155 1.962 . S
O156 C161 1.254 . S
O157 Zn154 2.031 . S
O157 C161 1.269 . S
O158 Zn155 1.986 . S
O158 C165 1.262 . S
O159 Zn154 2.049 . S
O159 C167 1.260 . S
O160 Zn155 1.996 . S
O160 C167 1.257 . S
C161 O156 1.254 . S
C161 O157 1.269 . S
C162 O163 1.249 . S
C162 O164 1.270 . S
O163 Zn155 1.943 . S
O163 C162 1.249 . S
O164 Zn154 2.067 . S
O164 C162 1.270 . S
C165 O158 1.262 . S
C165 O166 1.232 . S
O166 C165 1.232 . S
C167 O159 1.260 . S
C167 O160 1.257 . S
Zn168 O171 2.031 . S
Zn168 O173 2.049 . S
Zn168 O178 2.067 . S
Zn169 O170 1.962 . S
Zn169 O172 1.986 . S
Zn169 O174 1.996 . S
Zn169 O177 1.943 . S
O170 Zn169 1.962 . S
O170 C175 1.254 . S
O171 Zn168 2.031 . S
O171 C175 1.269 . S
O172 Zn169 1.986 . S
O172 C179 1.262 . S
O173 Zn168 2.049 . S
O173 C181 1.260 . S
O174 Zn169 1.996 . S
O174 C181 1.257 . S
C175 O170 1.254 . S
C175 O171 1.269 . S
C176 O177 1.249 . S
C176 O178 1.270 . S
O177 Zn169 1.943 . S
O177 C176 1.249 . S
O178 Zn168 2.067 . S
O178 C176 1.270 . S
C179 O172 1.262 . S
C179 O180 1.232 . S
O180 C179 1.232 . S
C181 O173 1.260 . S
C181 O174 1.257 . S
Zn182 O185 2.031 . S
Zn182 O187 2.049 . S
Zn182 O192 2.067 . S
Zn183 O184 1.962 . S
Zn183 O186 1.986 . S
Zn183 O188 1.996 . S
Zn183 O191 1.943 . S
O184 Zn183 1.962 . S
O184 C189 1.254 . S
O185 Zn182 2.031 . S
O185 C189 1.269 . S
O186 Zn183 1.986 . S
O186 C193 1.262 . S
O187 Zn182 2.049 . S
O187 C195 1.260 . S
O188 Zn183 1.996 . S
O188 C195 1.257 . S
C189 O184 1.254 . S
C189 O185 1.269 . S
C190 O191 1.249 . S
C190 O192 1.270 . S
O191 Zn183 1.943 . S
O191 C190 1.249 . S
O192 Zn182 2.067 . S
O192 C190 1.270 . S
C193 O186 1.262 . S
C193 O194 1.232 . S
O194 C193 1.232 . S
C195 O187 1.260 . S
C195 O188 1.257 . S
Zn196 O199 2.031 . S
Zn196 O201 2.049 . S
Zn196 O206 2.067 . S
Zn197 O198 1.962 . S
Zn197 O200 1.986 . S
Zn197 O202 1.996 . S
Zn197 O205 1.943 . S
O198 Zn197 1.962 . S
O198 C203 1.254 . S
O199 Zn196 2.031 . S
O199 C203 1.269 . S
O200 Zn197 1.986 . S
O200 C207 1.262 . S
O201 Zn196 2.049 . S
O201 C209 1.260 . S
O202 Zn197 1.996 . S
O202 C209 1.257 . S
C203 O198 1.254 . S
C203 O199 1.269 . S
C204 O205 1.249 . S
C204 O206 1.270 . S
O205 Zn197 1.943 . S
O205 C204 1.249 . S
O206 Zn196 2.067 . S
O206 C204 1.270 . S
C207 O200 1.262 . S
C207 O208 1.232 . S
O208 C207 1.232 . S
C209 O201 1.260 . S
C209 O202 1.257 . S
Zn210 O213 2.031 . S
Zn210 O215 2.049 . S
Zn210 O220 2.067 . S
Zn211 O212 1.962 . S
Zn211 O214 1.986 . S
Zn211 O216 1.996 . S
Zn211 O219 1.943 . S
O212 Zn211 1.962 . S
O212 C217 1.254 . S
O213 Zn210 2.031 . S
O213 C217 1.269 . S
O214 Zn211 1.986 . S
O214 C221 1.262 . S
O215 Zn210 2.049 . S
O215 C223 1.260 . S
O216 Zn211 1.996 . S
O216 C223 1.257 . S
C217 O212 1.254 . S
C217 O213 1.269 . S
C218 O219 1.249 . S
C218 O220 1.270 . S
O219 Zn211 1.943 . S
O219 C218 1.249 . S
O220 Zn210 2.067 . S
O220 C218 1.270 . S
C221 O214 1.262 . S
C221 O222 1.232 . S
O222 C221 1.232 . S
C223 O215 1.260 . S
C223 O216 1.257 . S
C224 C225 1.369 1_556 S
C224 C226 1.419 . S
C224 H228 0.930 . S
C225 C224 1.369 1_554 S
C225 C234 1.429 . S
C226 C224 1.419 . S
C226 C227 1.363 1_556 S
C226 H229 0.929 . S
C227 C226 1.363 1_554 S
C227 C233 1.428 . S
H228 C224 0.930 . S
H229 C226 0.929 . S
S230 N231 1.613 . S
S230 N232 1.610 . S
N231 S230 1.613 . S
N231 C234 1.350 . S
N232 S230 1.610 . S
N232 C233 1.351 . S
C233 C227 1.428 . S
C233 N232 1.351 . S
C233 C234 1.434 . S
C234 C225 1.429 . S
C234 N231 1.350 . S
C234 C233 1.434 . S
C235 C236 1.369 1_556 S
C235 C237 1.419 . S
C235 H239 0.930 . S
C236 C235 1.369 1_554 S
C236 C245 1.429 . S
C237 C235 1.419 . S
C237 C238 1.363 1_556 S
C237 H240 0.929 . S
C238 C237 1.363 1_554 S
C238 C244 1.428 . S
H239 C235 0.930 . S
H240 C237 0.929 . S
S241 N242 1.613 . S
S241 N243 1.610 . S
N242 S241 1.613 . S
N242 C245 1.350 . S
N243 S241 1.610 . S
N243 C244 1.351 . S
C244 C238 1.428 . S
C244 N243 1.351 . S
C244 C245 1.434 . S
C245 C236 1.429 . S
C245 N242 1.350 . S
C245 C244 1.434 . S
C246 C247 1.370 1_554 S
C246 C248 1.419 . S
C246 H250 0.930 . S
C247 C246 1.370 1_556 S
C247 C256 1.428 . S
C248 C246 1.419 . S
C248 C249 1.363 . S
C248 H251 0.929 . S
C249 C248 1.363 . S
C249 C255 1.428 1_554 S
H250 C246 0.930 . S
H251 C248 0.929 . S
S252 N253 1.613 . S
S252 N254 1.610 . S
N253 S252 1.613 . S
N253 C256 1.350 . S
N254 S252 1.610 . S
N254 C255 1.351 . S
C255 C249 1.428 1_556 S
C255 N254 1.351 . S
C255 C256 1.434 . S
C256 C247 1.428 . S
C256 N253 1.350 . S
C256 C255 1.434 . S
C257 C258 1.369 1_556 S
C257 C259 1.419 . S
C257 H261 0.930 . S
C258 C257 1.369 1_554 S
C258 C267 1.429 . S
C259 C257 1.419 . S
C259 C260 1.363 1_556 S
C259 H262 0.929 . S
C260 C259 1.363 1_554 S
C260 C266 1.428 . S
H261 C257 0.930 . S
H262 C259 0.929 . S
S263 N264 1.613 . S
S263 N265 1.610 . S
N264 S263 1.613 . S
N264 C267 1.350 . S
N265 S263 1.610 . S
N265 C266 1.351 . S
C266 C260 1.428 . S
C266 N265 1.351 . S
C266 C267 1.434 . S
C267 C258 1.429 . S
C267 N264 1.350 . S
C267 C266 1.434 . S
C268 C269 1.369 . S
C268 C270 1.419 1_545 S
C268 H272 0.930 . S
C269 C268 1.369 . S
C269 C278 1.429 . S
C270 C268 1.419 1_565 S
C270 C271 1.363 . S
C270 H273 0.929 . S
C271 C270 1.363 . S
C271 C277 1.428 . S
H272 C268 0.930 . S
H273 C270 0.929 . S
S274 N275 1.613 . S
S274 N276 1.610 1_545 S
N275 S274 1.613 . S
N275 C278 1.350 . S
N276 S274 1.610 1_565 S
N276 C277 1.351 . S
C277 C271 1.428 . S
C277 N276 1.351 . S
C277 C278 1.434 1_565 S
C278 C269 1.429 . S
C278 N275 1.350 . S
C278 C277 1.434 1_545 S
C279 C280 1.369 . S
C279 C281 1.419 1_655 S
C279 H283 0.930 . S
C280 C279 1.369 . S
C280 C289 1.429 . S
C281 C279 1.419 1_455 S
C281 C282 1.363 . S
C281 H284 0.929 . S
C282 C281 1.363 . S
C282 C288 1.428 . S
H283 C279 0.930 . S
H284 C281 0.929 . S
S285 N286 1.613 . S
S285 N287 1.610 1_655 S
N286 S285 1.613 . S
N286 C289 1.350 . S
N287 S285 1.610 1_455 S
N287 C288 1.351 . S
C288 C282 1.428 . S
C288 N287 1.351 . S
C288 C289 1.434 1_455 S
C289 C280 1.429 . S
C289 N286 1.350 . S
C289 C288 1.434 1_655 S
C290 C291 1.369 . S
C290 C292 1.419 1_545 S
C290 H294 0.930 . S
C291 C290 1.369 . S
C291 C300 1.429 . S
C292 C290 1.419 1_565 S
C292 C293 1.363 . S
C292 H295 0.929 . S
C293 C292 1.363 . S
C293 C299 1.428 . S
H294 C290 0.930 . S
H295 C292 0.929 . S
S296 N297 1.613 1_565 S
S296 N298 1.610 . S
N297 S296 1.613 1_545 S
N297 C300 1.350 . S
N298 S296 1.610 . S
N298 C299 1.351 . S
C299 C293 1.428 . S
C299 N298 1.351 . S
C299 C300 1.434 1_565 S
C300 C291 1.429 . S
C300 N297 1.350 . S
C300 C299 1.434 1_545 S
C301 C302 1.369 . S
C301 C303 1.419 1_455 S
C301 H305 0.930 . S
C302 C301 1.369 . S
C302 C311 1.429 . S
C303 C301 1.419 1_655 S
C303 C304 1.363 . S
C303 H306 0.929 . S
C304 C303 1.363 . S
C304 C310 1.428 . S
H305 C301 0.930 . S
H306 C303 0.929 . S
S307 N308 1.613 1_655 S
S307 N309 1.610 . S
N308 S307 1.613 1_455 S
N308 C311 1.350 . S
N309 S307 1.610 . S
N309 C310 1.351 . S
C310 C304 1.428 . S
C310 N309 1.351 . S
C310 C311 1.434 1_655 S
C311 C302 1.429 . S
C311 N308 1.350 . S
C311 C310 1.434 1_455 S
C312 C313 1.369 . S
C312 C314 1.419 . S
C312 H316 0.930 . S
C313 C312 1.369 . S
C313 C322 1.429 1_556 S
C314 C312 1.419 . S
C314 C315 1.363 1_556 S
C314 H317 0.929 . S
C315 C314 1.363 1_554 S
C315 C321 1.428 . S
H316 C312 0.930 . S
H317 C314 0.929 . S
S318 N319 1.613 . S
S318 N320 1.610 . S
N319 S318 1.613 . S
N319 C322 1.350 . S
N320 S318 1.610 . S
N320 C321 1.351 . S
C321 C315 1.428 . S
C321 N320 1.351 . S
C321 C322 1.434 . S
C322 C313 1.429 1_554 S
C322 N319 1.350 . S
C322 C321 1.434 . S
C323 C324 1.369 . S
C323 C325 1.419 . S
C323 H327 0.930 . S
C324 C323 1.369 . S
C324 C333 1.429 1_554 S
C325 C323 1.419 . S
C325 C326 1.363 1_554 S
C325 H328 0.929 . S
C326 C325 1.363 1_556 S
C326 C332 1.428 . S
H327 C323 0.930 . S
H328 C325 0.929 . S
S329 N330 1.613 . S
S329 N331 1.610 . S
N330 S329 1.613 . S
N330 C333 1.350 . S
N331 S329 1.610 . S
N331 C332 1.351 . S
C332 C326 1.428 . S
C332 N331 1.351 . S
C332 C333 1.434 . S
C333 C324 1.429 1_556 S
C333 N330 1.350 . S
C333 C332 1.434 . S
C334 C335 1.369 1_554 S
C334 C336 1.419 . S
C334 H338 0.930 . S
C335 C334 1.369 1_556 S
C335 C344 1.429 . S
C336 C334 1.419 . S
C336 C337 1.363 . S
C336 H339 0.929 . S
C337 C336 1.363 . S
C337 C343 1.428 1_554 S
H338 C334 0.930 . S
H339 C336 0.929 . S
S340 N341 1.613 . S
S340 N342 1.610 . S
N341 S340 1.613 . S
N341 C344 1.350 . S
N342 S340 1.610 . S
N342 C343 1.351 . S
C343 C337 1.428 1_556 S
C343 N342 1.351 . S
C343 C344 1.434 . S
C344 C335 1.429 . S
C344 N341 1.350 . S
C344 C343 1.434 . S
C345 C346 1.369 1_556 S
C345 C347 1.419 . S
C345 H349 0.930 . S
C346 C345 1.369 1_554 S
C346 C355 1.429 . S
C347 C345 1.419 . S
C347 C348 1.363 . S
C347 H350 0.929 . S
C348 C347 1.363 . S
C348 C354 1.428 1_556 S
H349 C345 0.930 . S
H350 C347 0.929 . S
S351 N352 1.613 . S
S351 N353 1.610 . S
N352 S351 1.613 . S
N352 C355 1.350 . S
N353 S351 1.610 . S
N353 C354 1.351 . S
C354 C348 1.428 1_554 S
C354 N353 1.351 . S
C354 C355 1.434 . S
C355 C346 1.429 . S
C355 N352 1.350 . S
C355 C354 1.434 . S
C356 C357 1.369 . S
C356 C358 1.419 . S
C356 H360 0.930 . S
C357 C356 1.369 . S
C357 C366 1.429 . S
C358 C356 1.419 . S
C358 C359 1.363 . S
C358 H361 0.929 . S
C359 C358 1.363 . S
C359 C365 1.428 . S
H360 C356 0.930 . S
H361 C358 0.929 . S
S362 N363 1.613 . S
S362 N364 1.610 . S
N363 S362 1.613 . S
N363 C366 1.350 . S
N364 S362 1.610 . S
N364 C365 1.351 . S
C365 C359 1.428 . S
C365 N364 1.351 . S
C365 C366 1.434 . S
C366 C357 1.429 . S
C366 N363 1.350 . S
C366 C365 1.434 . S
C367 C368 1.369 . S
C367 C369 1.419 . S
C367 H371 0.930 . S
C368 C367 1.369 . S
C368 C377 1.429 . S
C369 C367 1.419 . S
C369 C370 1.363 . S
C369 H372 0.929 . S
C370 C369 1.363 . S
C370 C376 1.428 . S
H371 C367 0.930 . S
H372 C369 0.929 . S
S373 N374 1.613 . S
S373 N375 1.610 . S
N374 S373 1.613 . S
N374 C377 1.350 . S
N375 S373 1.610 . S
N375 C376 1.351 . S
C376 C370 1.428 . S
C376 N375 1.351 . S
C376 C377 1.434 . S
C377 C368 1.429 . S
C377 N374 1.350 . S
C377 C376 1.434 . S
C378 C379 1.369 . S
C378 C380 1.419 . S
C378 H382 0.930 . S
C379 C378 1.369 . S
C379 C388 1.429 . S
C380 C378 1.419 . S
C380 C381 1.363 . S
C380 H383 0.929 . S
C381 C380 1.363 . S
C381 C387 1.428 . S
H382 C378 0.930 . S
H383 C380 0.929 . S
S384 N385 1.613 . S
S384 N386 1.610 . S
N385 S384 1.613 . S
N385 C388 1.350 . S
N386 S384 1.610 . S
N386 C387 1.351 . S
C387 C381 1.428 . S
C387 N386 1.351 . S
C387 C388 1.434 . S
C388 C379 1.429 . S
C388 N385 1.350 . S
C388 C387 1.434 . S
C389 C390 1.369 . S
C389 C391 1.419 . S
C389 H393 0.930 . S
C390 C389 1.369 . S
C390 C399 1.429 . S
C391 C389 1.419 . S
C391 C392 1.363 . S
C391 H394 0.929 . S
C392 C391 1.363 . S
C392 C398 1.428 . S
H393 C389 0.930 . S
H394 C391 0.929 . S
S395 N396 1.613 . S
S395 N397 1.610 . S
N396 S395 1.613 . S
N396 C399 1.350 . S
N397 S395 1.610 . S
N397 C398 1.351 . S
C398 C392 1.428 . S
C398 N397 1.351 . S
C398 C399 1.434 . S
C399 C390 1.429 . S
C399 N396 1.350 . S
C399 C398 1.434 . S
C400 C401 1.369 . S
C400 C402 1.419 . S
C400 H404 0.930 . S
C401 C400 1.369 . S
C401 C410 1.429 . S
C402 C400 1.419 . S
C402 C403 1.363 . S
C402 H405 0.929 . S
C403 C402 1.363 . S
C403 C409 1.428 . S
H404 C400 0.930 . S
H405 C402 0.929 . S
S406 N407 1.613 . S
S406 N408 1.610 . S
N407 S406 1.613 . S
N407 C410 1.350 . S
N408 S406 1.610 . S
N408 C409 1.351 . S
C409 C403 1.428 . S
C409 N408 1.351 . S
C409 C410 1.434 . S
C410 C401 1.429 . S
C410 N407 1.350 . S
C410 C409 1.434 . S
C411 C412 1.369 . S
C411 C413 1.419 . S
C411 H415 0.930 . S
C412 C411 1.369 . S
C412 C421 1.429 . S
C413 C411 1.419 . S
C413 C414 1.363 . S
C413 H416 0.929 . S
C414 C413 1.363 . S
C414 C420 1.428 . S
H415 C411 0.930 . S
H416 C413 0.929 . S
S417 N418 1.613 . S
S417 N419 1.610 . S
N418 S417 1.613 . S
N418 C421 1.350 . S
N419 S417 1.610 . S
N419 C420 1.351 . S
C420 C414 1.428 . S
C420 N419 1.351 . S
C420 C421 1.434 . S
C421 C412 1.429 . S
C421 N418 1.350 . S
C421 C420 1.434 . S
C422 C423 1.369 . S
C422 C424 1.419 . S
C422 H426 0.930 . S
C423 C422 1.369 . S
C423 C432 1.429 . S
C424 C422 1.419 . S
C424 C425 1.363 . S
C424 H427 0.929 . S
C425 C424 1.363 . S
C425 C431 1.428 . S
H426 C422 0.930 . S
H427 C424 0.929 . S
S428 N429 1.613 . S
S428 N430 1.610 . S
N429 S428 1.613 . S
N429 C432 1.350 . S
N430 S428 1.610 . S
N430 C431 1.351 . S
C431 C425 1.428 . S
C431 N430 1.351 . S
C431 C432 1.434 . S
C432 C423 1.429 . S
C432 N429 1.350 . S
C432 C431 1.434 . S
C433 C434 1.369 . S
C433 C435 1.419 . S
C433 H437 0.930 . S
C434 C433 1.369 . S
C434 C443 1.429 . S
C435 C433 1.419 . S
C435 C436 1.363 . S
C435 H438 0.929 . S
C436 C435 1.363 . S
C436 C442 1.428 . S
H437 C433 0.930 . S
H438 C435 0.929 . S
S439 N440 1.613 . S
S439 N441 1.610 . S
N440 S439 1.613 . S
N440 C443 1.350 . S
N441 S439 1.610 . S
N441 C442 1.351 . S
C442 C436 1.428 . S
C442 N441 1.351 . S
C442 C443 1.434 . S
C443 C434 1.429 . S
C443 N440 1.350 . S
C443 C442 1.434 . S
C444 C445 1.369 . S
C444 C446 1.419 . S
C444 H448 0.930 . S
C445 C444 1.369 . S
C445 C454 1.429 . S
C446 C444 1.419 . S
C446 C447 1.363 . S
C446 H449 0.929 . S
C447 C446 1.363 . S
C447 C453 1.428 . S
H448 C444 0.930 . S
H449 C446 0.929 . S
S450 N451 1.613 . S
S450 N452 1.610 . S
N451 S450 1.613 . S
N451 C454 1.350 . S
N452 S450 1.610 . S
N452 C453 1.351 . S
C453 C447 1.428 . S
C453 N452 1.351 . S
C453 C454 1.434 . S
C454 C445 1.429 . S
C454 N451 1.350 . S
C454 C453 1.434 . S
C455 C456 1.369 . S
C455 C457 1.419 . S
C455 H459 0.930 . S
C456 C455 1.369 . S
C456 C465 1.429 . S
C457 C455 1.419 . S
C457 C458 1.363 . S
C457 H460 0.929 . S
C458 C457 1.363 . S
C458 C464 1.428 . S
H459 C455 0.930 . S
H460 C457 0.929 . S
S461 N462 1.613 . S
S461 N463 1.610 . S
N462 S461 1.613 . S
N462 C465 1.350 . S
N463 S461 1.610 . S
N463 C464 1.351 . S
C464 C458 1.428 . S
C464 N463 1.351 . S
C464 C465 1.434 . S
C465 C456 1.429 . S
C465 N462 1.350 . S
C465 C464 1.434 . S
C466 C467 1.369 . S
C466 C468 1.419 . S
C466 H470 0.930 . S
C467 C466 1.369 . S
C467 C476 1.429 . S
C468 C466 1.419 . S
C468 C469 1.363 . S
C468 H471 0.929 . S
C469 C468 1.363 . S
C469 C475 1.428 . S
H470 C466 0.930 . S
H471 C468 0.929 . S
S472 N473 1.613 . S
S472 N474 1.610 . S
N473 S472 1.613 . S
N473 C476 1.350 . S
N474 S472 1.610 . S
N474 C475 1.351 . S
C475 C469 1.428 . S
C475 N474 1.351 . S
C475 C476 1.434 . S
C476 C467 1.429 . S
C476 N473 1.350 . S
C476 C475 1.434 . S
C477 C478 1.369 . S
C477 C479 1.419 . S
C477 H481 0.930 . S
C478 C477 1.369 . S
C478 C487 1.429 . S
C479 C477 1.419 . S
C479 C480 1.363 . S
C479 H482 0.929 . S
C480 C479 1.363 . S
C480 C486 1.428 . S
H481 C477 0.930 . S
H482 C479 0.929 . S
S483 N484 1.613 . S
S483 N485 1.610 . S
N484 S483 1.613 . S
N484 C487 1.350 . S
N485 S483 1.610 . S
N485 C486 1.351 . S
C486 C480 1.428 . S
C486 N485 1.351 . S
C486 C487 1.434 . S
C487 C478 1.429 . S
C487 N484 1.350 . S
C487 C486 1.434 . S
C488 C489 1.369 . S
C488 C490 1.419 . S
C488 H492 0.930 . S
C489 C488 1.369 . S
C489 C498 1.429 . S
C490 C488 1.419 . S
C490 C491 1.363 . S
C490 H493 0.929 . S
C491 C490 1.363 . S
C491 C497 1.428 . S
H492 C488 0.930 . S
H493 C490 0.929 . S
S494 N495 1.613 . S
S494 N496 1.610 . S
N495 S494 1.613 . S
N495 C498 1.350 . S
N496 S494 1.610 . S
N496 C497 1.351 . S
C497 C491 1.428 . S
C497 N496 1.351 . S
C497 C498 1.434 . S
C498 C489 1.429 . S
C498 N495 1.350 . S
C498 C497 1.434 . S
C499 C500 1.369 . S
C499 C501 1.419 . S
C499 H503 0.930 . S
C500 C499 1.369 . S
C500 C509 1.429 . S
C501 C499 1.419 . S
C501 C502 1.363 . S
C501 H504 0.929 . S
C502 C501 1.363 . S
C502 C508 1.428 . S
H503 C499 0.930 . S
H504 C501 0.929 . S
S505 N506 1.613 . S
S505 N507 1.610 . S
N506 S505 1.613 . S
N506 C509 1.350 . S
N507 S505 1.610 . S
N507 C508 1.351 . S
C508 C502 1.428 . S
C508 N507 1.351 . S
C508 C509 1.434 . S
C509 C500 1.429 . S
C509 N506 1.350 . S
C509 C508 1.434 . S
C510 C511 1.369 . S
C510 C512 1.419 . S
C510 H514 0.930 . S
C511 C510 1.369 . S
C511 C520 1.429 . S
C512 C510 1.419 . S
C512 C513 1.363 . S
C512 H515 0.929 . S
C513 C512 1.363 . S
C513 C519 1.428 . S
H514 C510 0.930 . S
H515 C512 0.929 . S
S516 N517 1.613 . S
S516 N518 1.610 . S
N517 S516 1.613 . S
N517 C520 1.350 . S
N518 S516 1.610 . S
N518 C519 1.351 . S
C519 C513 1.428 . S
C519 N518 1.351 . S
C519 C520 1.434 . S
C520 C511 1.429 . S
C520 N517 1.350 . S
C520 C519 1.434 . S
C521 C522 1.369 . S
C521 C523 1.419 . S
C521 H525 0.930 . S
C522 C521 1.369 . S
C522 C531 1.429 . S
C523 C521 1.419 . S
C523 C524 1.363 . S
C523 H526 0.929 . S
C524 C523 1.363 . S
C524 C530 1.428 . S
H525 C521 0.930 . S
H526 C523 0.929 . S
S527 N528 1.613 . S
S527 N529 1.610 . S
N528 S527 1.613 . S
N528 C531 1.350 . S
N529 S527 1.610 . S
N529 C530 1.351 . S
C530 C524 1.428 . S
C530 N529 1.351 . S
C530 C531 1.434 . S
C531 C522 1.429 . S
C531 N528 1.350 . S
C531 C530 1.434 . S
C532 C533 1.369 . S
C532 C534 1.419 . S
C532 H536 0.930 . S
C533 C532 1.369 . S
C533 C542 1.429 . S
C534 C532 1.419 . S
C534 C535 1.363 . S
C534 H537 0.929 . S
C535 C534 1.363 . S
C535 C541 1.428 . S
H536 C532 0.930 . S
H537 C534 0.929 . S
S538 N539 1.613 . S
S538 N540 1.610 . S
N539 S538 1.613 . S
N539 C542 1.350 . S
N540 S538 1.610 . S
N540 C541 1.351 . S
C541 C535 1.428 . S
C541 N540 1.351 . S
C541 C542 1.434 . S
C542 C533 1.429 . S
C542 N539 1.350 . S
C542 C541 1.434 . S
C543 C544 1.369 . S
C543 C545 1.419 . S
C543 H547 0.930 . S
C544 C543 1.369 . S
C544 C553 1.429 . S
C545 C543 1.419 . S
C545 C546 1.363 . S
C545 H548 0.929 . S
C546 C545 1.363 . S
C546 C552 1.428 . S
H547 C543 0.930 . S
H548 C545 0.929 . S
S549 N550 1.613 . S
S549 N551 1.610 . S
N550 S549 1.613 . S
N550 C553 1.350 . S
N551 S549 1.610 . S
N551 C552 1.351 . S
C552 C546 1.428 . S
C552 N551 1.351 . S
C552 C553 1.434 . S
C553 C544 1.429 . S
C553 N550 1.350 . S
C553 C552 1.434 . S
C554 C555 1.369 . S
C554 C556 1.419 . S
C554 H558 0.930 . S
C555 C554 1.369 . S
C555 C564 1.429 . S
C556 C554 1.419 . S
C556 C557 1.363 . S
C556 H559 0.929 . S
C557 C556 1.363 . S
C557 C563 1.428 . S
H558 C554 0.930 . S
H559 C556 0.929 . S
S560 N561 1.613 . S
S560 N562 1.610 . S
N561 S560 1.613 . S
N561 C564 1.350 . S
N562 S560 1.610 . S
N562 C563 1.351 . S
C563 C557 1.428 . S
C563 N562 1.351 . S
C563 C564 1.434 . S
C564 C555 1.429 . S
C564 N561 1.350 . S
C564 C563 1.434 . S
C565 C566 1.369 . S
C565 C567 1.419 . S
C565 H569 0.930 . S
C566 C565 1.369 . S
C566 C575 1.429 . S
C567 C565 1.419 . S
C567 C568 1.363 . S
C567 H570 0.929 . S
C568 C567 1.363 . S
C568 C574 1.428 . S
H569 C565 0.930 . S
H570 C567 0.929 . S
S571 N572 1.613 . S
S571 N573 1.610 . S
N572 S571 1.613 . S
N572 C575 1.350 . S
N573 S571 1.610 . S
N573 C574 1.351 . S
C574 C568 1.428 . S
C574 N573 1.351 . S
C574 C575 1.434 . S
C575 C566 1.429 . S
C575 N572 1.350 . S
C575 C574 1.434 . S
C225 C67 1.324 . S
C227 C11 1.325 1_554 S
C236 C81 1.324 . S
C238 C25 1.324 1_554 S
C247 C95 1.325 1_556 S
C249 C39 1.322 1_554 S
C258 C109 1.324 . S
C260 C53 1.325 1_554 S
C269 C179 1.320 . S
C271 C123 1.323 . S
C280 C193 1.322 . S
C282 C137 1.325 . S
C291 C151 1.325 . S
C293 C207 1.321 . S
C302 C221 1.323 . S
C304 C165 1.321 . S
C313 C8 1.239 1_556 S
C315 C78 1.243 1_554 S
C324 C92 1.241 1_554 S
C326 C22 1.247 1_556 S
C335 C36 1.250 1_556 S
C337 C106 1.243 1_554 S
C346 C64 1.248 1_554 S
C348 C50 1.242 1_556 S
C357 C190 1.239 . S
C359 C120 1.245 . S
C368 C204 1.242 . S
C370 C134 1.240 . S
C379 C148 1.242 . S
C381 C218 1.248 . S
C390 C162 1.249 . S
C392 C176 1.243 . S
C401 C223 1.343 . S
C403 C13 1.350 . S
C412 C181 1.357 . S
C414 C27 1.349 . S
C423 C195 1.345 . S
C425 C41 1.354 . S
C434 C209 1.357 . S
C436 C55 1.350 . S
C445 C139 1.344 . S
C447 C69 1.354 . S
C456 C153 1.347 . S
C458 C83 1.346 . S
C467 C97 1.345 . S
C469 C167 1.347 . S
C478 C111 1.356 . S
C480 C125 1.346 . S
C489 C189 1.532 . S
C491 C35 1.529 . S
C500 C203 1.532 . S
C502 C49 1.529 . S
C511 C217 1.529 . S
C513 C7 1.532 . S
C522 C21 1.529 . S
C524 C175 1.531 . S
C533 C161 1.533 . S
C535 C91 1.531 . S
C544 C105 1.529 . S
C546 C119 1.532 . S
C555 C133 1.529 . S
C557 C63 1.531 . S
C566 C147 1.533 . S
C568 C77 1.530 . S
