# Generated by pormake.
# Topology smu, (6)-cn, num edge types: 1
# Building blocks:
#     Node 0, Type 0, BuildingBlock: BETGAK_clean_sbu_0, # of connection points: 6
#     Node 1, Type 0, BuildingBlock: BETGAK_clean_sbu_0, # of connection points: 6
#     Node 2, Type 0, BuildingBlock: BETGAK_clean_sbu_0, # of connection points: 6
#     Node 3, Type 0, BuildingBlock: BETGAK_clean_sbu_0, # of connection points: 6
#     Node 4, Type 0, BuildingBlock: BETGAK_clean_sbu_0, # of connection points: 6
#     Node 5, Type 0, BuildingBlock: BETGAK_clean_sbu_0, # of connection points: 6
#     Edge 6, Type (0, 0), BuildingBlock: EYOCIG_clean_linker_4, # of connection points: 2
#     Edge 7, Type (0, 0), BuildingBlock: EYOCIG_clean_linker_4, # of connection points: 2
#     Edge 8, Type (0, 0), BuildingBlock: EYOCIG_clean_linker_4, # of connection points: 2
#     Edge 9, Type (0, 0), BuildingBlock: EYOCIG_clean_linker_4, # of connection points: 2
#     Edge 10, Type (0, 0), BuildingBlock: EYOCIG_clean_linker_4, # of connection points: 2
#     Edge 11, Type (0, 0), BuildingBlock: EYOCIG_clean_linker_4, # of connection points: 2
#     Edge 12, Type (0, 0), BuildingBlock: EYOCIG_clean_linker_4, # of connection points: 2
#     Edge 13, Type (0, 0), BuildingBlock: EYOCIG_clean_linker_4, # of connection points: 2
#     Edge 14, Type (0, 0), BuildingBlock: EYOCIG_clean_linker_4, # of connection points: 2
#     Edge 15, Type (0, 0), BuildingBlock: EYOCIG_clean_linker_4, # of connection points: 2
#     Edge 16, Type (0, 0), BuildingBlock: EYOCIG_clean_linker_4, # of connection points: 2
#     Edge 17, Type (0, 0), BuildingBlock: EYOCIG_clean_linker_4, # of connection points: 2
#     Edge 18, Type (0, 0), BuildingBlock: EYOCIG_clean_linker_4, # of connection points: 2
#     Edge 19, Type (0, 0), BuildingBlock: EYOCIG_clean_linker_4, # of connection points: 2
#     Edge 20, Type (0, 0), BuildingBlock: EYOCIG_clean_linker_4, # of connection points: 2
#     Edge 21, Type (0, 0), BuildingBlock: EYOCIG_clean_linker_4, # of connection points: 2
#     Edge 22, Type (0, 0), BuildingBlock: EYOCIG_clean_linker_4, # of connection points: 2
#     Edge 23, Type (0, 0), BuildingBlock: EYOCIG_clean_linker_4, # of connection points: 2
# Relax obj value: 0.227
# Max RMSD: 0.328
# Mean RMSD: 0.328
data_MOF--net-smu--node1-BETGAK_clean_sbu_0--edge1-EYOCIG_clean_linker_4
_symmetry_space_group_name_H-M    P1
_symmetry_Int_Tables_number       1
_symmetry_cell_setting            triclinic
loop_
_symmetry_equiv_pos_as_xyz
'x, y, z'
_cell_length_a     32.660626
_cell_length_b     32.660206
_cell_length_c     19.577804
_cell_angle_alpha  90.034277
_cell_angle_beta   90.017628
_cell_angle_gamma 120.00138
loop_
_atom_site_label
_atom_site_type_symbol
_atom_site_fract_x
_atom_site_fract_y
_atom_site_fract_z
_atom_type_partial_charge
La0 La 0.41181 0.1158 0.33013 0.0
La1 La 0.33786 0.15171 0.31465 0.0
C2 C 0.4781 0.09946 0.30346 0.0
C3 C 0.53061 0.12288 0.31175 0.0
C4 C 0.55094 0.11375 0.36919 0.0
C5 C 0.59996 0.13138 0.37273 0.0
C6 C 0.62965 0.15853 0.31915 0.0
C7 C 0.60979 0.16853 0.26255 0.0
C8 C 0.56087 0.15097 0.25892 0.0
C9 C 0.37443 0.113 0.45047 0.0
C10 C 0.4448 0.22785 0.33013 0.0
C11 C 0.2742 0.16901 0.3456 0.0
C12 C 0.22305 0.14867 0.33388 0.0
C13 C 0.20702 0.16109 0.27523 0.0
C14 C 0.16355 0.15925 0.27628 0.0
C15 C 0.13667 0.14603 0.3362 0.0
C16 C 0.14758 0.12407 0.38886 0.0
C17 C 0.1912 0.12573 0.38789 0.0
C18 C 0.3529 0.11907 0.19773 0.0
C19 C 0.29988 0.04414 0.32056 0.0
O20 O 0.4522 0.08466 0.35871 0.0
O21 O 0.46137 0.11785 0.25971 0.0
O22 O 0.40896 0.10521 0.44 0.0
O23 O 0.36865 0.13027 0.39496 0.0
O24 O 0.45617 0.19407 0.33724 0.0
O25 O 0.40133 0.21954 0.32127 0.0
O26 O 0.30282 0.18905 0.29341 0.0
O27 O 0.28697 0.14489 0.38517 0.0
O28 O 0.32177 0.13221 0.20577 0.0
O29 O 0.37777 0.13217 0.2517 0.0
O30 O 0.29132 0.07894 0.31515 0.0
O31 O 0.34294 0.04844 0.32141 0.0
H32 H 0.52891 0.09205 0.41075 0.0
H33 H 0.61458 0.12332 0.41701 0.0
H34 H 0.63203 0.18949 0.22062 0.0
H35 H 0.54663 0.15851 0.21378 0.0
H36 H 0.23011 0.17762 0.23192 0.0
H37 H 0.15489 0.17547 0.23461 0.0
H38 H 0.12665 0.11296 0.4352 0.0
H39 H 0.20223 0.11457 0.433 0.0
La40 La 0.77714 0.67986 0.33025 0.0
La41 La 0.88714 0.75381 0.31567 0.0
C42 C 0.69463 0.61346 0.30309 0.0
C43 C 0.66539 0.56096 0.31117 0.0
C44 C 0.63579 0.54061 0.36846 0.0
C45 C 0.60415 0.49164 0.3716 0.0
C46 C 0.60146 0.46202 0.31775 0.0
C47 C 0.63145 0.48187 0.26133 0.0
C48 C 0.66308 0.53073 0.25811 0.0
C49 C 0.81157 0.71692 0.45097 0.0
C50 C 0.85612 0.64679 0.33072 0.0
C51 C 0.96842 0.81727 0.3459 0.0
C52 C 0.99904 0.86852 0.33469 0.0
C53 C 1.02814 0.88484 0.27671 0.0
C54 C 0.06952 0.92853 0.27853 0.0
C55 C 0.08225 0.95543 0.3385 0.0
C56 C 1.04874 0.94412 0.39029 0.0
C57 C 1.00707 0.90025 0.38862 0.0
C58 C 0.83958 0.73949 0.19883 0.0
C59 C 0.81729 0.79164 0.32208 0.0
O60 O 0.7055 0.63941 0.35833 0.0
O61 O 0.72994 0.63009 0.2597 0.0
O62 O 0.76917 0.68265 0.44012 0.0
O63 O 0.83469 0.72268 0.39554 0.0
O64 O 0.81097 0.63546 0.33743 0.0
O65 O 0.89136 0.69026 0.32221 0.0
O66 O 0.95938 0.78894 0.29316 0.0
O67 O 0.93188 0.80419 0.38633 0.0
O68 O 0.88373 0.77078 0.2073 0.0
O69 O 0.82785 0.714 0.25213 0.0
O70 O 0.86077 0.80023 0.31914 0.0
O71 O 0.77853 0.74859 0.32079 0.0
H72 H 0.63621 0.56262 0.41018 0.0
H73 H 0.58138 0.477 0.41577 0.0
H74 H 0.63007 0.45966 0.21923 0.0
H75 H 0.68494 0.54498 0.21308 0.0
H76 H 1.02226 0.86183 0.23347 0.0
H77 H 0.0949 0.93747 0.2375 0.0
H78 H 0.05784 0.96502 0.43667 0.0
H79 H 0.98442 0.88902 0.43322 0.0
La80 La 0.97601 0.31466 0.32916 0.0
La81 La 0.93959 0.20461 0.31575 0.0
C82 C 0.99194 0.39715 0.30236 0.0
C83 C 0.9687 0.42636 0.31093 0.0
C84 C 0.97802 0.45584 0.36846 0.0
C85 C 0.96067 0.48745 0.37203 0.0
C86 C 0.93368 0.49024 0.31836 0.0
C87 C 0.92349 0.46038 0.26171 0.0
C88 C 0.94072 0.42876 0.25808 0.0
C89 C 0.97951 0.28081 0.45005 0.0
C90 C 0.86388 0.23608 0.33132 0.0
C91 C 0.92103 0.123 0.34526 0.0
C92 C 0.94187 0.0925 0.3343 0.0
C93 C 0.92941 0.06348 0.2762 0.0
C94 C 0.93185 1.02217 0.27803 0.0
C95 C 0.94577 1.00941 0.33816 0.0
C96 C 0.96779 0.04291 0.3901 0.0
C97 C 0.96548 0.08453 0.3884 0.0
C98 C 0.97304 0.25185 0.19909 0.0
C99 C 1.04743 0.27459 0.32087 0.0
O100 O 1.00732 0.38636 0.3573 0.0
O101 O 0.97305 0.36179 0.25901 0.0
O102 O 0.98804 0.32327 0.43887 0.0
O103 O 0.96157 0.2575 0.39495 0.0
O104 O 0.89787 0.28121 0.33756 0.0
O105 O 0.87192 0.2007 0.32286 0.0
O106 O 0.90245 0.13248 0.29212 0.0
O107 O 0.94391 0.15921 0.3865 0.0
O108 O 0.96154 0.20815 0.20836 0.0
O109 O 0.95764 0.2633 0.25103 0.0
O110 O 1.01239 0.23109 0.32163 0.0
O111 O 1.04313 0.31326 0.31708 0.0
H112 H 0.99966 0.45535 0.41003 0.0
H113 H 0.96884 0.51013 0.41637 0.0
H114 H 0.90263 0.46185 0.21975 0.0
H115 H 0.93306 0.40699 0.21288 0.0
H116 H 0.9124 0.06933 0.23282 0.0
H117 H 0.9156 0.99682 0.23687 0.0
H118 H 0.97946 1.03381 0.43657 0.0
H119 H 0.97674 0.10716 0.43306 0.0
La120 La 0.1703 0.31995 0.81474 0.0
La121 La 0.13402 0.39328 0.82926 0.0
C122 C 0.18777 0.25639 0.84594 0.0
C123 C 0.16724 0.2051 0.83462 0.0
C124 C 0.18004 0.18878 0.77663 0.0
C125 C 0.1777 0.14506 0.77831 0.0
C126 C 0.16345 0.11811 0.83817 0.0
C127 C 0.14126 0.12943 0.89 0.0
C128 C 0.14351 0.17334 0.88845 0.0
C129 C 0.13781 0.33454 0.69798 0.0
C130 C 0.06263 0.28145 0.81946 0.0
C131 C 0.11763 0.45961 0.80255 0.0
C132 C 0.14115 0.51218 0.81064 0.0
C133 C 0.13213 0.53269 0.86802 0.0
C134 C 0.14984 0.58173 0.87135 0.0
C135 C 0.17689 0.61128 0.81758 0.0
C136 C 0.18679 0.59126 0.76107 0.0
C137 C 0.1692 0.54232 0.75768 0.0
C138 C 0.13067 0.35623 0.95006 0.0
C139 C 0.24613 0.42683 0.83142 0.0
O140 O 0.20763 0.28483 0.79354 0.0
O141 O 0.16389 0.2694 0.88561 0.0
O142 O 0.14962 0.30251 0.70691 0.0
O143 O 0.15283 0.36121 0.75027 0.0
O144 O 0.0976 0.27314 0.81457 0.0
O145 O 0.06674 0.32441 0.8201 0.0
O146 O 0.10298 0.43383 0.85788 0.0
O147 O 0.13581 0.44271 0.75875 0.0
O148 O 0.12325 0.39092 0.93905 0.0
O149 O 0.14742 0.3496 0.89469 0.0
O150 O 0.21215 0.43795 0.83804 0.0
O151 O 0.23804 0.38345 0.82229 0.0
H152 H 0.19718 0.21179 0.73346 0.0
H153 H 0.19413 0.13612 0.73726 0.0
H154 H 0.12941 0.1085 0.93628 0.0
H155 H 0.13205 0.18455 0.93306 0.0
H156 H 0.11046 0.51076 0.90968 0.0
H157 H 0.14187 0.59648 0.91558 0.0
H158 H 0.20768 0.61339 0.71902 0.0
H159 H 0.17667 0.52797 0.71259 0.0
La160 La 0.22276 0.92118 0.81477 0.0
La161 La 0.33249 0.95755 0.82898 0.0
C162 C 0.14155 0.90324 0.84574 0.0
C163 C 0.11087 0.92387 0.83464 0.0
C164 C 0.08178 0.91121 0.77659 0.0
C165 C 1.04047 0.91365 0.77831 0.0
C166 C 1.02777 0.92782 0.83827 0.0
C167 C 0.06127 0.94994 0.89017 0.0
C168 C 0.10288 0.9476 0.88859 0.0
C169 C 0.26987 0.95451 0.69828 0.0
C170 C 0.29206 1.02891 0.82071 0.0
C171 C 0.41518 0.97383 0.80246 0.0
C172 C 0.44428 0.95043 0.81116 0.0
C173 C 0.47364 0.95963 0.86881 0.0
C174 C 0.50503 0.942 0.87266 0.0
C175 C 0.50771 0.91481 0.81919 0.0
C176 C 0.47795 0.90472 0.76243 0.0
C177 C 0.44658 0.92225 0.75849 0.0
C178 C 0.29856 0.96027 0.94999 0.0
C179 C 0.25404 0.84541 0.83013 0.0
O180 O 0.15037 0.88379 0.79301 0.0
O181 O 0.17827 0.92683 0.88587 0.0
O182 O 0.22607 0.94272 0.70743 0.0
O183 O 0.28154 0.9391 0.75006 0.0
O184 O 0.24871 0.99389 0.81717 0.0
O185 O 0.33091 1.02481 0.81983 0.0
O186 O 0.40417 0.98902 0.85739 0.0
O187 O 0.37999 0.95518 0.75883 0.0
O188 O 0.34075 0.96794 0.93893 0.0
O189 O 0.27533 0.94354 0.89451 0.0
O190 O 0.29911 0.87941 0.83694 0.0
O191 O 0.21869 0.85346 0.82141 0.0
H192 H 0.08763 0.89409 0.73333 0.0
H193 H 1.0151 0.89729 0.7372 0.0
H194 H 1.0522 0.96177 0.93652 0.0
H195 H 0.12554 0.95899 0.93322 0.0
H196 H 0.47321 0.98139 0.91027 0.0
H197 H 0.52762 0.95013 0.91708 0.0
H198 H 0.47934 0.88372 0.72059 0.0
H199 H 0.4249 0.91464 0.71321 0.0
La200 La 0.77168 0.86882 0.81555 0.0
La201 La 0.69829 0.75913 0.82986 0.0
C202 C 0.83496 0.95023 0.84586 0.0
C203 C 0.88627 0.98081 0.83461 0.0
C204 C 0.90262 1.00984 0.77657 0.0
C205 C 0.9465 0.05103 0.77811 0.0
C206 C 0.97361 0.06364 0.83786 0.0
C207 C 0.96219 1.03017 0.88974 0.0
C208 C 0.91811 0.98871 0.88836 0.0
C209 C 0.75793 0.82141 0.69929 0.0
C210 C 0.80996 0.79934 0.82172 0.0
C211 C 0.63177 0.67647 0.80314 0.0
C212 C 0.57927 0.64729 0.81172 0.0
C213 C 0.55909 0.61784 0.8692 0.0
C214 C 0.51009 0.58637 0.87284 0.0
C215 C 0.48026 0.5837 0.81931 0.0
C216 C 0.49995 0.61351 0.76268 0.0
C217 C 0.54885 0.64496 0.75896 0.0
C218 C 0.73518 0.7933 0.95079 0.0
C219 C 0.66468 0.83762 0.83162 0.0
O220 O 0.80663 0.9411 0.79312 0.0
O221 O 0.82185 0.91373 0.88637 0.0
O222 O 0.79011 0.86514 0.70845 0.0
O223 O 0.73064 0.80996 0.7508 0.0
O224 O 0.81834 0.84274 0.81903 0.0
O225 O 0.767 0.76053 0.82019 0.0
O226 O 0.65799 0.68743 0.85808 0.0
O227 O 0.64826 0.71173 0.75972 0.0
O228 O 0.70077 0.75102 0.93979 0.0
O229 O 0.74152 0.81639 0.89527 0.0
O230 O 0.6536 0.79256 0.83842 0.0
O231 O 0.70805 0.87292 0.82251 0.0
H232 H 0.87955 1.00406 0.73346 0.0
H233 H 0.9555 0.07637 0.73703 0.0
H234 H 0.98324 0.03919 0.93595 0.0
H235 H 0.90688 0.9661 0.93299 0.0
H236 H 0.58124 0.61828 0.91071 0.0
H237 H 0.49558 0.56372 0.91714 0.0
H238 H 0.47761 0.61213 0.72079 0.0
H239 H 0.56295 0.66668 0.71377 0.0
C240 C 0.30634 1.01713 1.05029 0.0
C241 C 0.29339 0.9888 1.00297 0.0
C242 C 0.3284 0.05187 0.10381 0.0
C243 C 0.34455 0.0817 0.14909 0.0
C244 C 0.78193 0.77854 0.60505 0.0
C245 C 0.76552 0.79205 0.65025 0.0
C246 C 0.80417 0.76616 0.55136 0.0
C247 C 0.81714 0.75086 0.50392 0.0
C248 C 1.03959 0.29487 0.10457 0.0
C249 C 1.00981 0.28119 0.14992 0.0
C250 C 0.07414 0.30745 1.05083 0.0
C251 C 0.10228 0.32271 1.00331 0.0
C252 C 0.32494 0.05595 0.55029 0.0
C253 C 0.34035 0.08433 0.50303 0.0
C254 C 0.31249 1.02131 0.60392 0.0
C255 C 0.29904 0.99146 0.64918 0.0
C256 C 0.78434 0.78602 1.05131 0.0
C257 C 0.76894 0.7988 1.00387 0.0
C258 C 0.79696 0.76399 0.10489 0.0
C259 C 0.81055 0.74775 0.15012 0.0
C260 C 1.03618 0.28798 0.55015 0.0
C261 C 1.00779 0.27503 0.50286 0.0
C262 C 0.07087 0.31025 0.60375 0.0
C263 C 0.10076 0.32669 0.649 0.0
C264 C 0.7226 0.19107 0.32545 0.0
C265 C 0.68033 0.17632 0.32242 0.0
C266 C 0.77237 0.20923 0.32928 0.0
C267 C 0.81466 0.2239 0.33074 0.0
C268 C 0.5407 0.36917 0.32347 0.0
C269 C 0.56839 0.41139 0.32066 0.0
C270 C 0.50909 0.31942 0.32737 0.0
C271 C 0.48162 0.27712 0.32918 0.0
C272 C 0.90157 0.55094 0.32443 0.0
C273 C 0.91615 0.52331 0.32159 0.0
C274 C 0.88334 0.58248 0.32821 0.0
C275 C 0.86852 0.60995 0.32989 0.0
C276 C 0.20932 0.70422 0.82354 0.0
C277 C 0.19467 0.66197 0.82054 0.0
C278 C 0.22736 0.75397 0.82751 0.0
C279 C 0.24193 0.79623 0.82925 0.0
C280 C 0.56827 0.88245 0.82576 0.0
C281 C 0.54069 0.89713 0.82265 0.0
C282 C 0.59996 0.86439 0.82961 0.0
C283 C 0.62764 0.84978 0.83109 0.0
C284 C 0.33762 0.49143 0.82965 0.0
C285 C 0.29534 0.46382 0.83102 0.0
C286 C 0.38737 0.5231 0.82577 0.0
C287 C 0.42961 0.55071 0.82264 0.0
C288 C 0.10537 0.20446 0.35074 0.0
C289 C 0.11473 0.17324 0.35296 0.0
C290 C 0.10339 0.24643 0.34245 0.0
C291 C 0.09039 0.27459 0.33197 0.0
C292 C 0.17207 0.98808 0.35566 0.0
C293 C 0.13127 0.97808 0.35655 0.0
C294 C 0.21613 0.9901 0.34838 0.0
C295 C 0.25701 1.00229 0.3369 0.0
C296 C 0.88822 0.91965 0.35494 0.0
C297 C 0.91915 0.96039 0.35607 0.0
C298 C 0.84623 0.87556 0.34746 0.0
C299 C 0.8178 0.83454 0.33639 0.0
C300 C 0.22048 0.08528 0.85491 0.0
C301 C 0.18969 0.09529 0.85604 0.0
C302 C 0.2625 0.08324 0.84739 0.0
C303 C 0.29114 0.07098 0.83596 0.0
C304 C 0.93795 0.8706 0.85494 0.0
C305 C 0.97872 0.90147 0.85613 0.0
C306 C 0.8939 0.82858 0.8474 0.0
C307 C 0.85293 0.80003 0.83618 0.0
C308 C 1.00888 0.19761 0.84714 0.0
C309 C 1.02087 0.23844 0.8356 0.0
C310 C 1.00692 0.15358 0.85457 0.0
C311 C 0.99677 0.11274 0.8557 0.0
loop_
_geom_bond_atom_site_label_1
_geom_bond_atom_site_label_2
_geom_bond_distance
_geom_bond_site_symmetry_2
_ccdc_geom_bond_type
La0 C2 2.928 . S
La0 O20 2.521 . S
La0 O21 2.628 . S
La0 O22 2.554 . S
La0 O23 2.757 . S
La0 O24 2.470 . S
La0 O29 2.482 . S
La0 O31 2.503 . S
La1 C11 2.928 . S
La1 O23 2.482 . S
La1 O25 2.503 . S
La1 O26 2.521 . S
La1 O27 2.628 . S
La1 O28 2.554 . S
La1 O29 2.757 . S
La1 O30 2.470 . S
C2 La0 2.928 . S
C2 C3 1.503 . S
C2 O20 1.261 . S
C2 O21 1.243 . S
C3 C2 1.503 . S
C3 C4 1.394 . S
C3 C8 1.373 . S
C4 C3 1.394 . S
C4 C5 1.380 . S
C4 H32 0.930 . S
C5 C4 1.380 . S
C5 C6 1.376 . S
C5 H33 0.930 . S
C6 C5 1.376 . S
C6 C7 1.370 . S
C7 C6 1.370 . S
C7 C8 1.396 . S
C7 H34 0.929 . S
C8 C3 1.373 . S
C8 C7 1.396 . S
C8 H35 0.929 . S
C9 O22 1.240 . S
C9 O23 1.289 . S
C10 O24 1.258 . S
C10 O25 1.256 . S
C11 La1 2.928 . S
C11 C12 1.503 . S
C11 O26 1.261 . S
C11 O27 1.243 . S
C12 C11 1.503 . S
C12 C13 1.394 . S
C12 C17 1.373 . S
C13 C12 1.394 . S
C13 C14 1.380 . S
C13 H36 0.930 . S
C14 C13 1.380 . S
C14 C15 1.376 . S
C14 H37 0.930 . S
C15 C14 1.376 . S
C15 C16 1.370 . S
C16 C15 1.370 . S
C16 C17 1.396 . S
C16 H38 0.929 . S
C17 C12 1.373 . S
C17 C16 1.396 . S
C17 H39 0.929 . S
C18 O28 1.240 . S
C18 O29 1.289 . S
C19 O30 1.258 . S
C19 O31 1.256 . S
O20 La0 2.521 . S
O20 C2 1.261 . S
O21 La0 2.628 . S
O21 C2 1.243 . S
O22 La0 2.554 . S
O22 C9 1.240 . S
O23 La0 2.757 . S
O23 La1 2.482 . S
O23 C9 1.289 . S
O24 La0 2.470 . S
O24 C10 1.258 . S
O25 La1 2.503 . S
O25 C10 1.256 . S
O26 La1 2.521 . S
O26 C11 1.261 . S
O27 La1 2.628 . S
O27 C11 1.243 . S
O28 La1 2.554 . S
O28 C18 1.240 . S
O29 La0 2.482 . S
O29 La1 2.757 . S
O29 C18 1.289 . S
O30 La1 2.470 . S
O30 C19 1.258 . S
O31 La0 2.503 . S
O31 C19 1.256 . S
H32 C4 0.930 . S
H33 C5 0.930 . S
H34 C7 0.929 . S
H35 C8 0.929 . S
H36 C13 0.930 . S
H37 C14 0.930 . S
H38 C16 0.929 . S
H39 C17 0.929 . S
La40 C42 2.928 . S
La40 O60 2.521 . S
La40 O61 2.628 . S
La40 O62 2.554 . S
La40 O63 2.757 . S
La40 O64 2.470 . S
La40 O69 2.482 . S
La40 O71 2.503 . S
La41 C51 2.928 . S
La41 O63 2.482 . S
La41 O65 2.503 . S
La41 O66 2.521 . S
La41 O67 2.628 . S
La41 O68 2.554 . S
La41 O69 2.757 . S
La41 O70 2.470 . S
C42 La40 2.928 . S
C42 C43 1.503 . S
C42 O60 1.261 . S
C42 O61 1.243 . S
C43 C42 1.503 . S
C43 C44 1.394 . S
C43 C48 1.373 . S
C44 C43 1.394 . S
C44 C45 1.380 . S
C44 H72 0.930 . S
C45 C44 1.380 . S
C45 C46 1.376 . S
C45 H73 0.930 . S
C46 C45 1.376 . S
C46 C47 1.370 . S
C47 C46 1.370 . S
C47 C48 1.396 . S
C47 H74 0.929 . S
C48 C43 1.373 . S
C48 C47 1.396 . S
C48 H75 0.929 . S
C49 O62 1.240 . S
C49 O63 1.289 . S
C50 O64 1.258 . S
C50 O65 1.256 . S
C51 La41 2.928 . S
C51 C52 1.503 . S
C51 O66 1.261 . S
C51 O67 1.243 . S
C52 C51 1.503 . S
C52 C53 1.394 . S
C52 C57 1.373 . S
C53 C52 1.394 . S
C53 C54 1.380 1_655 S
C53 H76 0.930 . S
C54 C53 1.380 1_455 S
C54 C55 1.376 . S
C54 H77 0.930 . S
C55 C54 1.376 . S
C55 C56 1.374 . S
C56 C55 1.374 . S
C56 C57 1.393 1_455 S
C56 H78 0.927 . S
C57 C52 1.373 . S
C57 C56 1.393 1_655 S
C57 H79 0.929 . S
C58 O68 1.240 . S
C58 O69 1.289 . S
C59 O70 1.258 . S
C59 O71 1.256 . S
O60 La40 2.521 . S
O60 C42 1.261 . S
O61 La40 2.628 . S
O61 C42 1.243 . S
O62 La40 2.554 . S
O62 C49 1.240 . S
O63 La40 2.757 . S
O63 La41 2.482 . S
O63 C49 1.289 . S
O64 La40 2.470 . S
O64 C50 1.258 . S
O65 La41 2.503 . S
O65 C50 1.256 . S
O66 La41 2.521 . S
O66 C51 1.261 . S
O67 La41 2.628 . S
O67 C51 1.243 . S
O68 La41 2.554 . S
O68 C58 1.240 . S
O69 La40 2.482 . S
O69 La41 2.757 . S
O69 C58 1.289 . S
O70 La41 2.470 . S
O70 C59 1.258 . S
O71 La40 2.503 . S
O71 C59 1.256 . S
H72 C44 0.930 . S
H73 C45 0.930 . S
H74 C47 0.929 . S
H75 C48 0.929 . S
H76 C53 0.930 . S
H77 C54 0.930 . S
H78 C56 0.927 . S
H79 C57 0.929 . S
La80 C82 2.928 . S
La80 O100 2.521 . S
La80 O101 2.628 . S
La80 O102 2.554 . S
La80 O103 2.757 . S
La80 O104 2.470 . S
La80 O109 2.482 . S
La80 O111 2.503 . S
La81 C91 2.928 . S
La81 O103 2.482 . S
La81 O105 2.503 . S
La81 O106 2.521 . S
La81 O107 2.628 . S
La81 O108 2.554 . S
La81 O109 2.757 . S
La81 O110 2.470 . S
C82 La80 2.928 . S
C82 C83 1.503 . S
C82 O100 1.261 . S
C82 O101 1.243 . S
C83 C82 1.503 . S
C83 C84 1.394 . S
C83 C88 1.373 . S
C84 C83 1.394 . S
C84 C85 1.380 . S
C84 H112 0.930 . S
C85 C84 1.380 . S
C85 C86 1.376 . S
C85 H113 0.930 . S
C86 C85 1.376 . S
C86 C87 1.370 . S
C87 C86 1.370 . S
C87 C88 1.396 . S
C87 H114 0.929 . S
C88 C83 1.373 . S
C88 C87 1.396 . S
C88 H115 0.929 . S
C89 O102 1.240 . S
C89 O103 1.289 . S
C90 O104 1.258 . S
C90 O105 1.256 . S
C91 La81 2.928 . S
C91 C92 1.503 . S
C91 O106 1.261 . S
C91 O107 1.243 . S
C92 C91 1.503 . S
C92 C93 1.394 . S
C92 C97 1.373 . S
C93 C92 1.394 . S
C93 C94 1.380 1_545 S
C93 H116 0.930 . S
C94 C93 1.380 1_565 S
C94 C95 1.376 . S
C94 H117 0.930 . S
C95 C94 1.376 . S
C95 C96 1.375 . S
C96 C95 1.375 . S
C96 C97 1.388 1_565 S
C96 H118 0.932 . S
C97 C92 1.373 . S
C97 C96 1.388 1_545 S
C97 H119 0.929 . S
C98 O108 1.240 . S
C98 O109 1.289 . S
C99 O110 1.258 . S
C99 O111 1.256 . S
O100 La80 2.521 . S
O100 C82 1.261 . S
O101 La80 2.628 . S
O101 C82 1.243 . S
O102 La80 2.554 . S
O102 C89 1.240 . S
O103 La80 2.757 . S
O103 La81 2.482 . S
O103 C89 1.289 . S
O104 La80 2.470 . S
O104 C90 1.258 . S
O105 La81 2.503 . S
O105 C90 1.256 . S
O106 La81 2.521 . S
O106 C91 1.261 . S
O107 La81 2.628 . S
O107 C91 1.243 . S
O108 La81 2.554 . S
O108 C98 1.240 . S
O109 La80 2.482 . S
O109 La81 2.757 . S
O109 C98 1.289 . S
O110 La81 2.470 . S
O110 C99 1.258 . S
O111 La80 2.503 . S
O111 C99 1.256 . S
H112 C84 0.930 . S
H113 C85 0.930 . S
H114 C87 0.929 . S
H115 C88 0.929 . S
H116 C93 0.930 . S
H117 C94 0.930 . S
H118 C96 0.932 . S
H119 C97 0.929 . S
La120 C122 2.928 . S
La120 O140 2.521 . S
La120 O141 2.628 . S
La120 O142 2.554 . S
La120 O143 2.757 . S
La120 O144 2.470 . S
La120 O149 2.482 . S
La120 O151 2.503 . S
La121 C131 2.928 . S
La121 O143 2.482 . S
La121 O145 2.503 . S
La121 O146 2.521 . S
La121 O147 2.628 . S
La121 O148 2.554 . S
La121 O149 2.757 . S
La121 O150 2.470 . S
C122 La120 2.928 . S
C122 C123 1.503 . S
C122 O140 1.261 . S
C122 O141 1.243 . S
C123 C122 1.503 . S
C123 C124 1.394 . S
C123 C128 1.373 . S
C124 C123 1.394 . S
C124 C125 1.380 . S
C124 H152 0.930 . S
C125 C124 1.380 . S
C125 C126 1.376 . S
C125 H153 0.930 . S
C126 C125 1.376 . S
C126 C127 1.370 . S
C127 C126 1.370 . S
C127 C128 1.396 . S
C127 H154 0.929 . S
C128 C123 1.373 . S
C128 C127 1.396 . S
C128 H155 0.929 . S
C129 O142 1.240 . S
C129 O143 1.289 . S
C130 O144 1.258 . S
C130 O145 1.256 . S
C131 La121 2.928 . S
C131 C132 1.503 . S
C131 O146 1.261 . S
C131 O147 1.243 . S
C132 C131 1.503 . S
C132 C133 1.394 . S
C132 C137 1.373 . S
C133 C132 1.394 . S
C133 C134 1.380 . S
C133 H156 0.930 . S
C134 C133 1.380 . S
C134 C135 1.376 . S
C134 H157 0.930 . S
C135 C134 1.376 . S
C135 C136 1.370 . S
C136 C135 1.370 . S
C136 C137 1.396 . S
C136 H158 0.929 . S
C137 C132 1.373 . S
C137 C136 1.396 . S
C137 H159 0.929 . S
C138 O148 1.240 . S
C138 O149 1.289 . S
C139 O150 1.258 . S
C139 O151 1.256 . S
O140 La120 2.521 . S
O140 C122 1.261 . S
O141 La120 2.628 . S
O141 C122 1.243 . S
O142 La120 2.554 . S
O142 C129 1.240 . S
O143 La120 2.757 . S
O143 La121 2.482 . S
O143 C129 1.289 . S
O144 La120 2.470 . S
O144 C130 1.258 . S
O145 La121 2.503 . S
O145 C130 1.256 . S
O146 La121 2.521 . S
O146 C131 1.261 . S
O147 La121 2.628 . S
O147 C131 1.243 . S
O148 La121 2.554 . S
O148 C138 1.240 . S
O149 La120 2.482 . S
O149 La121 2.757 . S
O149 C138 1.289 . S
O150 La121 2.470 . S
O150 C139 1.258 . S
O151 La120 2.503 . S
O151 C139 1.256 . S
H152 C124 0.930 . S
H153 C125 0.930 . S
H154 C127 0.929 . S
H155 C128 0.929 . S
H156 C133 0.930 . S
H157 C134 0.930 . S
H158 C136 0.929 . S
H159 C137 0.929 . S
La160 C162 2.928 . S
La160 O180 2.521 . S
La160 O181 2.628 . S
La160 O182 2.554 . S
La160 O183 2.757 . S
La160 O184 2.470 . S
La160 O189 2.482 . S
La160 O191 2.503 . S
La161 C171 2.928 . S
La161 O183 2.482 . S
La161 O185 2.503 . S
La161 O186 2.521 . S
La161 O187 2.628 . S
La161 O188 2.554 . S
La161 O189 2.757 . S
La161 O190 2.470 . S
C162 La160 2.928 . S
C162 C163 1.503 . S
C162 O180 1.261 . S
C162 O181 1.243 . S
C163 C162 1.503 . S
C163 C164 1.394 . S
C163 C168 1.373 . S
C164 C163 1.394 . S
C164 C165 1.380 1_455 S
C164 H192 0.930 . S
C165 C164 1.380 1_655 S
C165 C166 1.376 . S
C165 H193 0.930 . S
C166 C165 1.376 . S
C166 C167 1.375 . S
C167 C166 1.375 . S
C167 C168 1.388 1_655 S
C167 H194 0.932 . S
C168 C163 1.373 . S
C168 C167 1.388 1_455 S
C168 H195 0.929 . S
C169 O182 1.240 . S
C169 O183 1.289 . S
C170 O184 1.258 . S
C170 O185 1.256 . S
C171 La161 2.928 . S
C171 C172 1.503 . S
C171 O186 1.261 . S
C171 O187 1.243 . S
C172 C171 1.503 . S
C172 C173 1.394 . S
C172 C177 1.373 . S
C173 C172 1.394 . S
C173 C174 1.380 . S
C173 H196 0.930 . S
C174 C173 1.380 . S
C174 C175 1.376 . S
C174 H197 0.930 . S
C175 C174 1.376 . S
C175 C176 1.370 . S
C176 C175 1.370 . S
C176 C177 1.396 . S
C176 H198 0.929 . S
C177 C172 1.373 . S
C177 C176 1.396 . S
C177 H199 0.929 . S
C178 O188 1.240 . S
C178 O189 1.289 . S
C179 O190 1.258 . S
C179 O191 1.256 . S
O180 La160 2.521 . S
O180 C162 1.261 . S
O181 La160 2.628 . S
O181 C162 1.243 . S
O182 La160 2.554 . S
O182 C169 1.240 . S
O183 La160 2.757 . S
O183 La161 2.482 . S
O183 C169 1.289 . S
O184 La160 2.470 . S
O184 C170 1.258 . S
O185 La161 2.503 . S
O185 C170 1.256 . S
O186 La161 2.521 . S
O186 C171 1.261 . S
O187 La161 2.628 . S
O187 C171 1.243 . S
O188 La161 2.554 . S
O188 C178 1.240 . S
O189 La160 2.482 . S
O189 La161 2.757 . S
O189 C178 1.289 . S
O190 La161 2.470 . S
O190 C179 1.258 . S
O191 La160 2.503 . S
O191 C179 1.256 . S
H192 C164 0.930 . S
H193 C165 0.930 . S
H194 C167 0.932 . S
H195 C168 0.929 . S
H196 C173 0.930 . S
H197 C174 0.930 . S
H198 C176 0.929 . S
H199 C177 0.929 . S
La200 C202 2.928 . S
La200 O220 2.521 . S
La200 O221 2.628 . S
La200 O222 2.554 . S
La200 O223 2.757 . S
La200 O224 2.470 . S
La200 O229 2.482 . S
La200 O231 2.503 . S
La201 C211 2.928 . S
La201 O223 2.482 . S
La201 O225 2.503 . S
La201 O226 2.521 . S
La201 O227 2.628 . S
La201 O228 2.554 . S
La201 O229 2.757 . S
La201 O230 2.470 . S
C202 La200 2.928 . S
C202 C203 1.503 . S
C202 O220 1.261 . S
C202 O221 1.243 . S
C203 C202 1.503 . S
C203 C204 1.394 . S
C203 C208 1.373 . S
C204 C203 1.394 . S
C204 C205 1.380 1_565 S
C204 H232 0.930 . S
C205 C204 1.380 1_545 S
C205 C206 1.376 . S
C205 H233 0.930 . S
C206 C205 1.376 . S
C206 C207 1.374 . S
C207 C206 1.374 . S
C207 C208 1.393 1_545 S
C207 H234 0.927 . S
C208 C203 1.373 . S
C208 C207 1.393 1_565 S
C208 H235 0.929 . S
C209 O222 1.240 . S
C209 O223 1.289 . S
C210 O224 1.258 . S
C210 O225 1.256 . S
C211 La201 2.928 . S
C211 C212 1.503 . S
C211 O226 1.261 . S
C211 O227 1.243 . S
C212 C211 1.503 . S
C212 C213 1.394 . S
C212 C217 1.373 . S
C213 C212 1.394 . S
C213 C214 1.380 . S
C213 H236 0.930 . S
C214 C213 1.380 . S
C214 C215 1.376 . S
C214 H237 0.930 . S
C215 C214 1.376 . S
C215 C216 1.370 . S
C216 C215 1.370 . S
C216 C217 1.396 . S
C216 H238 0.929 . S
C217 C212 1.373 . S
C217 C216 1.396 . S
C217 H239 0.929 . S
C218 O228 1.240 . S
C218 O229 1.289 . S
C219 O230 1.258 . S
C219 O231 1.256 . S
O220 La200 2.521 . S
O220 C202 1.261 . S
O221 La200 2.628 . S
O221 C202 1.243 . S
O222 La200 2.554 . S
O222 C209 1.240 . S
O223 La200 2.757 . S
O223 La201 2.482 . S
O223 C209 1.289 . S
O224 La200 2.470 . S
O224 C210 1.258 . S
O225 La201 2.503 . S
O225 C210 1.256 . S
O226 La201 2.521 . S
O226 C211 1.261 . S
O227 La201 2.628 . S
O227 C211 1.243 . S
O228 La201 2.554 . S
O228 C218 1.240 . S
O229 La200 2.482 . S
O229 La201 2.757 . S
O229 C218 1.289 . S
O230 La201 2.470 . S
O230 C219 1.258 . S
O231 La200 2.503 . S
O231 C219 1.256 . S
H232 C204 0.930 . S
H233 C205 0.930 . S
H234 C207 0.927 . S
H235 C208 0.929 . S
H236 C213 0.930 . S
H237 C214 0.930 . S
H238 C216 0.929 . S
H239 C217 0.929 . S
C240 C241 1.170 . S
C240 C242 1.380 1_566 S
C241 C240 1.170 . S
C242 C240 1.380 1_544 S
C242 C243 1.170 . S
C243 C242 1.170 . S
C244 C245 1.170 . S
C244 C246 1.380 . S
C245 C244 1.170 . S
C246 C244 1.380 . S
C246 C247 1.170 . S
C247 C246 1.170 . S
C248 C249 1.170 . S
C248 C250 1.380 1_654 S
C249 C248 1.170 . S
C250 C248 1.380 1_456 S
C250 C251 1.170 . S
C251 C250 1.170 . S
C252 C253 1.170 . S
C252 C254 1.380 1_545 S
C253 C252 1.170 . S
C254 C252 1.380 1_565 S
C254 C255 1.170 . S
C255 C254 1.170 . S
C256 C257 1.170 . S
C256 C258 1.380 1_556 S
C257 C256 1.170 . S
C258 C256 1.380 1_554 S
C258 C259 1.170 . S
C259 C258 1.170 . S
C260 C261 1.170 . S
C260 C262 1.380 1_655 S
C261 C260 1.170 . S
C262 C260 1.380 1_455 S
C262 C263 1.170 . S
C263 C262 1.170 . S
C264 C265 1.170 . S
C264 C266 1.380 . S
C265 C264 1.170 . S
C266 C264 1.380 . S
C266 C267 1.170 . S
C267 C266 1.170 . S
C268 C269 1.170 . S
C268 C270 1.380 . S
C269 C268 1.170 . S
C270 C268 1.380 . S
C270 C271 1.170 . S
C271 C270 1.170 . S
C272 C273 1.170 . S
C272 C274 1.380 . S
C273 C272 1.170 . S
C274 C272 1.380 . S
C274 C275 1.170 . S
C275 C274 1.170 . S
C276 C277 1.170 . S
C276 C278 1.380 . S
C277 C276 1.170 . S
C278 C276 1.380 . S
C278 C279 1.170 . S
C279 C278 1.170 . S
C280 C281 1.170 . S
C280 C282 1.380 . S
C281 C280 1.170 . S
C282 C280 1.380 . S
C282 C283 1.170 . S
C283 C282 1.170 . S
C284 C285 1.170 . S
C284 C286 1.380 . S
C285 C284 1.170 . S
C286 C284 1.380 . S
C286 C287 1.170 . S
C287 C286 1.170 . S
C288 C289 1.170 . S
C288 C290 1.380 . S
C289 C288 1.170 . S
C290 C288 1.380 . S
C290 C291 1.170 . S
C291 C290 1.170 . S
C292 C293 1.170 . S
C292 C294 1.380 . S
C293 C292 1.170 . S
C294 C292 1.380 . S
C294 C295 1.166 . S
C295 C294 1.166 . S
C296 C297 1.170 . S
C296 C298 1.380 . S
C297 C296 1.170 . S
C298 C296 1.380 . S
C298 C299 1.170 . S
C299 C298 1.170 . S
C300 C301 1.170 . S
C300 C302 1.380 . S
C301 C300 1.170 . S
C302 C300 1.380 . S
C302 C303 1.170 . S
C303 C302 1.170 . S
C304 C305 1.170 . S
C304 C306 1.380 . S
C305 C304 1.170 . S
C306 C304 1.380 . S
C306 C307 1.170 . S
C307 C306 1.170 . S
C308 C309 1.170 . S
C308 C310 1.380 . S
C309 C308 1.170 . S
C310 C308 1.380 . S
C310 C311 1.170 . S
C311 C310 1.170 . S
C241 C178 2.330 . S
C243 C18 2.615 . S
C245 C209 2.588 . S
C247 C49 2.372 . S
C249 C98 2.615 . S
C251 C138 2.330 . S
C253 C9 2.354 . S
C255 C169 2.590 . S
C257 C218 2.374 . S
C259 C58 2.587 . S
C261 C89 2.331 . S
C263 C129 2.607 . S
C265 C6 1.921 . S
C267 C90 1.855 . S
C269 C46 1.939 . S
C271 C10 1.826 . S
C273 C86 1.942 . S
C275 C50 1.822 . S
C277 C135 1.921 . S
C279 C179 1.865 . S
C281 C175 1.918 . S
C283 C219 1.835 . S
C285 C139 1.833 . S
C287 C215 1.919 . S
C289 C15 1.336 . S
C291 C99 1.452 1_455 S
C293 C55 1.363 . S
C295 C19 1.430 1_565 S
C297 C95 1.350 . S
C299 C59 1.440 . S
C301 C126 1.388 . S
C303 C170 1.438 1_545 S
C305 C166 1.383 . S
C307 C210 1.443 . S
C309 C130 1.424 1_655 S
C311 C206 1.395 . S
