# Generated by pormake.
# Topology wlj, (5)-cn, num edge types: 1
# Building blocks:
#     Node 0, Type 0, BuildingBlock: BEQFEK_clean_sbu_0, # of connection points: 5
#     Node 1, Type 0, BuildingBlock: BEQFEK_clean_sbu_0, # of connection points: 5
#     Node 2, Type 0, BuildingBlock: BEQFEK_clean_sbu_0, # of connection points: 5
#     Node 3, Type 0, BuildingBlock: BEQFEK_clean_sbu_0, # of connection points: 5
#     Node 4, Type 0, BuildingBlock: BEQFEK_clean_sbu_0, # of connection points: 5
#     Node 5, Type 0, BuildingBlock: BEQFEK_clean_sbu_0, # of connection points: 5
#     Edge 6, Type (0, 0), BuildingBlock: MIFKUJ_clean_linker_0, # of connection points: 2
#     Edge 7, Type (0, 0), BuildingBlock: MIFKUJ_clean_linker_0, # of connection points: 2
#     Edge 8, Type (0, 0), BuildingBlock: MIFKUJ_clean_linker_0, # of connection points: 2
#     Edge 9, Type (0, 0), BuildingBlock: MIFKUJ_clean_linker_0, # of connection points: 2
#     Edge 10, Type (0, 0), BuildingBlock: MIFKUJ_clean_linker_0, # of connection points: 2
#     Edge 11, Type (0, 0), BuildingBlock: MIFKUJ_clean_linker_0, # of connection points: 2
#     Edge 12, Type (0, 0), BuildingBlock: MIFKUJ_clean_linker_0, # of connection points: 2
#     Edge 13, Type (0, 0), BuildingBlock: MIFKUJ_clean_linker_0, # of connection points: 2
#     Edge 14, Type (0, 0), BuildingBlock: MIFKUJ_clean_linker_0, # of connection points: 2
#     Edge 15, Type (0, 0), BuildingBlock: MIFKUJ_clean_linker_0, # of connection points: 2
#     Edge 16, Type (0, 0), BuildingBlock: MIFKUJ_clean_linker_0, # of connection points: 2
#     Edge 17, Type (0, 0), BuildingBlock: MIFKUJ_clean_linker_0, # of connection points: 2
#     Edge 18, Type (0, 0), BuildingBlock: MIFKUJ_clean_linker_0, # of connection points: 2
#     Edge 19, Type (0, 0), BuildingBlock: MIFKUJ_clean_linker_0, # of connection points: 2
#     Edge 20, Type (0, 0), BuildingBlock: MIFKUJ_clean_linker_0, # of connection points: 2
# Relax obj value: 0.038
# Max RMSD: 0.093
# Mean RMSD: 0.093
data_MOF--net-wlj--node1-BEQFEK_clean_sbu_0--edge1-MIFKUJ_clean_linker_0
_symmetry_space_group_name_H-M    P1
_symmetry_Int_Tables_number       1
_symmetry_cell_setting            triclinic
loop_
_symmetry_equiv_pos_as_xyz
'x, y, z'
_cell_length_a     30.088936
_cell_length_b     30.079432
_cell_length_c     86.66499
_cell_angle_alpha  89.977466
_cell_angle_beta   90.080249
_cell_angle_gamma 120.01232
loop_
_atom_site_label
_atom_site_type_symbol
_atom_site_fract_x
_atom_site_fract_y
_atom_site_fract_z
_atom_type_partial_charge
Co0 Co 0.48337 0.33603 0.22343 0.0
Co1 Co 0.53096 0.28338 0.2435 0.0
C2 C 0.4485 0.22439 0.21988 0.0
O3 O 0.44636 0.2642 0.21614 0.0
O4 O 0.47871 0.22604 0.23049 0.0
C5 C 0.40681 0.35528 0.20987 0.0
O6 O 0.37384 0.30868 0.2146 0.0
C7 C 0.53087 0.21635 0.26827 0.0
C8 C 0.61387 0.24706 0.27188 0.0
C9 C 0.56595 0.21038 0.27729 0.0
N10 N 0.5571 0.25474 0.25818 0.0
N11 N 0.60665 0.27259 0.26031 0.0
C12 C 0.47371 0.18929 0.26978 0.0
H13 H 0.45821 0.21201 0.26424 0.0
H14 H 0.46232 0.18266 0.28211 0.0
H15 H 0.45686 0.15161 0.26384 0.0
C16 C 0.46816 0.36853 0.2543 0.0
N17 N 0.48179 0.34103 0.24521 0.0
N18 N 0.50337 0.3207 0.25372 0.0
C19 C 0.50491 0.33551 0.26852 0.0
C20 C 0.48244 0.36611 0.26939 0.0
C21 C 0.44258 0.39704 0.2485 0.0
H22 H 0.40827 0.3706 0.24166 0.0
H23 H 0.43032 0.413 0.25805 0.0
H24 H 0.46931 0.42859 0.24079 0.0
O25 O 0.55521 0.3686 0.21642 0.0
O26 O 0.58943 0.33092 0.23016 0.0
H27 H 0.54301 0.35417 0.29075 0.0
H28 H 0.50866 0.28702 0.28587 0.0
C29 C 0.53316 0.32622 0.28119 0.0
H30 H 0.569 0.32932 0.27666 0.0
H31 H 0.63558 0.3029 0.25407 0.0
O32 O 0.45419 0.37413 0.2129 0.0
C33 C 0.59323 0.36301 0.21991 0.0
Co34 Co 0.674 0.1505 0.89015 0.0
Co35 Co 0.71887 0.25126 0.91004 0.0
C36 C 0.78317 0.23098 0.88719 0.0
O37 O 0.74672 0.18635 0.88381 0.0
O38 O 0.77696 0.25939 0.89684 0.0
C39 C 0.66025 0.05988 0.87429 0.0
O40 O 0.71047 0.08224 0.87524 0.0
C41 C 0.78437 0.3176 0.93509 0.0
C42 C 0.76025 0.37576 0.93673 0.0
C43 C 0.7937 0.36158 0.94304 0.0
N44 N 0.74691 0.30621 0.9247 0.0
N45 N 0.73265 0.34113 0.92575 0.0
C46 C 0.81274 0.28872 0.93652 0.0
H47 H 0.80696 0.26509 0.92609 0.0
H48 H 0.79802 0.26262 0.94661 0.0
H49 H 0.8543 0.31574 0.93837 0.0
C50 C 0.64056 0.10305 0.92094 0.0
N51 N 0.6671 0.1445 0.91189 0.0
N52 N 0.68386 0.18638 0.92027 0.0
C53 C 0.66707 0.17276 0.9349 0.0
C54 C 0.63928 0.11944 0.93584 0.0
C55 C 0.61634 0.04889 0.91525 0.0
H56 H 0.64336 0.04483 0.90749 0.0
H57 H 0.60593 0.02126 0.92493 0.0
H58 H 0.58134 0.03966 0.90853 0.0
O59 O 0.64083 0.18883 0.88211 0.0
O60 O 0.66965 0.25875 0.89666 0.0
H61 H 0.63935 0.19081 0.95564 0.0
H62 H 0.7079 0.22457 0.95332 0.0
C63 C 0.6709 0.20971 0.94712 0.0
H64 H 0.66931 0.24244 0.94185 0.0
H65 H 0.70436 0.34157 0.91888 0.0
O66 O 0.63752 0.08186 0.88015 0.0
C67 C 0.64163 0.23035 0.88568 0.0
Co68 Co 0.85424 0.52336 0.55743 0.0
Co69 Co 0.75382 0.47245 0.57751 0.0
C70 C 0.77686 0.55735 0.5547 0.0
O71 O 0.81983 0.5617 0.5511 0.0
O72 O 0.7478 0.52457 0.56469 0.0
C73 C 0.9322 0.58049 0.53508 0.0
O74 O 0.89639 0.58787 0.52901 0.0
C75 C 0.6874 0.47163 0.60259 0.0
C76 C 0.62896 0.38932 0.60394 0.0
C77 C 0.64319 0.43678 0.61036 0.0
N78 N 0.69893 0.44581 0.59216 0.0
N79 N 0.66385 0.39663 0.59305 0.0
C80 C 0.71601 0.52884 0.60418 0.0
H81 H 0.74346 0.54695 0.59452 0.0
H82 H 0.7378 0.53992 0.61517 0.0
H83 H 0.68856 0.54332 0.6045 0.0
C84 C 0.902 0.53635 0.58808 0.0
N85 N 0.86053 0.52264 0.57913 0.0
N86 N 0.81885 0.50028 0.58769 0.0
C87 C 0.83268 0.4983 0.6024 0.0
C88 C 0.88583 0.52139 0.60313 0.0
C89 C 0.9559 0.56214 0.58214 0.0
H90 H 0.96241 0.5941 0.57435 0.0
H91 H 0.98431 0.57743 0.59168 0.0
H92 H 0.96158 0.53411 0.57535 0.0
O93 O 0.81456 0.45226 0.54955 0.0
O94 O 0.74378 0.41503 0.56378 0.0
H95 H 0.81427 0.45763 0.62416 0.0
H96 H 0.7823 0.49349 0.62048 0.0
C97 C 0.79579 0.46898 0.61509 0.0
H98 H 0.7622 0.43403 0.61041 0.0
H99 H 0.66342 0.36807 0.58611 0.0
O100 O 0.92269 0.55446 0.54743 0.0
C101 C 0.77166 0.41316 0.55302 0.0
Co102 Co 0.33278 0.48004 0.78447 0.0
Co103 Co 0.28591 0.53377 0.76447 0.0
C104 C 0.22324 0.45047 0.78779 0.0
O105 O 0.26037 0.44336 0.79116 0.0
O106 O 0.22839 0.48411 0.7779 0.0
C107 C 0.34666 0.40242 0.79966 0.0
O108 O 0.29672 0.37382 0.79797 0.0
C109 C 0.21932 0.53355 0.73957 0.0
C110 C 0.24379 0.61587 0.73756 0.0
C111 C 0.20992 0.56796 0.73151 0.0
N112 N 0.25727 0.56002 0.74978 0.0
N113 N 0.27171 0.60921 0.74852 0.0
C114 C 0.19043 0.47621 0.73841 0.0
H115 H 0.19781 0.45877 0.74866 0.0
H116 H 0.20305 0.4641 0.72802 0.0
H117 H 0.14868 0.46193 0.73724 0.0
C118 C 0.36537 0.46502 0.75369 0.0
N119 N 0.33882 0.47992 0.76273 0.0
N120 N 0.32067 0.5036 0.75425 0.0
C121 C 0.33614 0.50538 0.73952 0.0
C122 C 0.36463 0.48065 0.73867 0.0
C123 C 0.392 0.43755 0.7595 0.0
H124 H 0.36527 0.40479 0.76683 0.0
H125 H 0.40554 0.42296 0.74991 0.0
H126 H 0.42522 0.46415 0.76675 0.0
O127 O 0.36605 0.55177 0.79219 0.0
O128 O 0.33552 0.59132 0.77764 0.0
H129 H 0.3605 0.54763 0.71806 0.0
H130 H 0.29246 0.51323 0.72136 0.0
C131 C 0.33033 0.53641 0.72699 0.0
H132 H 0.33264 0.57155 0.73187 0.0
H133 H 0.30039 0.63822 0.75522 0.0
O134 O 0.36937 0.44809 0.79448 0.0
C135 C 0.36441 0.59196 0.78852 0.0
Co136 Co 0.52182 0.8538 0.45175 0.0
Co137 Co 0.47563 0.75507 0.43092 0.0
C138 C 0.55821 0.7772 0.45406 0.0
O139 O 0.56038 0.81904 0.45801 0.0
O140 O 0.52729 0.74858 0.4436 0.0
C141 C 0.59941 0.95447 0.46258 0.0
O142 O 0.63145 0.94696 0.45421 0.0
C143 C 0.47104 0.68204 0.40724 0.0
C144 C 0.38976 0.64547 0.40009 0.0
C145 C 0.43533 0.64621 0.39702 0.0
N146 N 0.44749 0.70153 0.41579 0.0
N147 N 0.3988 0.67902 0.41157 0.0
C148 C 0.5275 0.70141 0.40795 0.0
H149 H 0.5479 0.74017 0.41327 0.0
H150 H 0.54303 0.7029 0.39623 0.0
H151 H 0.53445 0.67501 0.41517 0.0
C152 C 0.5327 0.90313 0.42116 0.0
N153 N 0.52159 0.862 0.43003 0.0
N154 N 0.50371 0.8209 0.42122 0.0
C155 C 0.50387 0.83488 0.40641 0.0
C156 C 0.5221 0.88743 0.40587 0.0
C157 C 0.54701 0.95501 0.42742 0.0
H158 H 0.52672 0.95101 0.43844 0.0
H159 H 0.58895 0.97683 0.42961 0.0
H160 H 0.53724 0.97708 0.41918 0.0
O161 O 0.4506 0.81334 0.45917 0.0
O162 O 0.41748 0.74338 0.44457 0.0
H163 H 0.44495 0.77163 0.39383 0.0
H164 H 0.4958 0.81898 0.38181 0.0
C165 C 0.48687 0.79857 0.39303 0.0
H166 H 0.50674 0.77604 0.39343 0.0
H167 H 0.37201 0.68753 0.41628 0.0
O168 O 0.55216 0.92039 0.4628 0.0
C169 C 0.41308 0.76988 0.4553 0.0
Co170 Co 0.14958 0.66989 0.11745 0.0
Co171 Co 0.24928 0.72184 0.0972 0.0
C172 C 0.22648 0.78191 0.12051 0.0
O173 O 0.18444 0.74223 0.12425 0.0
O174 O 0.25522 0.77988 0.11005 0.0
C175 C 0.05376 0.65132 0.13074 0.0
O176 O 0.0671 0.69746 0.12564 0.0
C177 C 0.31844 0.78885 0.07276 0.0
C178 C 0.36483 0.75214 0.06802 0.0
C179 C 0.35751 0.79214 0.06336 0.0
N180 N 0.30356 0.74876 0.08238 0.0
N181 N 0.33179 0.72733 0.07958 0.0
C182 C 0.29244 0.82012 0.07189 0.0
H183 H 0.25371 0.79896 0.07718 0.0
H184 H 0.28926 0.82976 0.05972 0.0
H185 H 0.31545 0.85637 0.0784 0.0
C186 C 0.10107 0.63542 0.08677 0.0
N187 N 0.14243 0.66355 0.09574 0.0
N188 N 0.18399 0.68468 0.08711 0.0
C189 C 0.17015 0.67035 0.0723 0.0
C190 C 0.11717 0.6388 0.07161 0.0
C191 C 0.04739 0.60504 0.09277 0.0
H192 H 0.03735 0.63119 0.09887 0.0
H193 H 0.01912 0.58545 0.08338 0.0
H194 H 0.04512 0.57621 0.1012 0.0
O195 O 0.18901 0.63794 0.1248 0.0
O196 O 0.26018 0.67455 0.11078 0.0
H197 H 0.1882 0.65731 0.04911 0.0
H198 H 0.22422 0.72249 0.05597 0.0
C199 C 0.2072 0.68164 0.05935 0.0
H200 H 0.23852 0.67497 0.06319 0.0
H201 H 0.32773 0.69503 0.08534 0.0
O202 O 0.08254 0.63253 0.12805 0.0
C203 C 0.23243 0.64325 0.12127 0.0
H204 H 0.39717 0.21289 0.19282 0.0
H205 H 0.35505 0.13704 0.17647 0.0
H206 H 0.38866 0.05136 0.20983 0.0
H207 H 0.43274 0.128 0.22607 0.0
H208 H 0.41017 0.03248 0.18279 0.0
H209 H 0.26409 0.03242 0.20409 0.0
H210 H 0.20905 0.06828 0.21125 0.0
H211 H 0.19343 0.09621 0.1635 0.0
H212 H 0.24894 0.06113 0.15607 0.0
H213 H 0.17809 0.79753 0.14483 0.0
H214 H 0.21161 0.87202 0.16179 0.0
H215 H 0.34777 0.94988 0.13373 0.0
H216 H 0.31502 0.87479 0.11684 0.0
H217 H 0.23814 0.96875 0.15943 0.0
H218 H 0.45109 0.02027 0.15668 0.0
H219 H 0.50151 0.97737 0.15201 0.0
H220 H 0.3749 0.83404 0.16732 0.0
H221 H 0.32403 0.87621 0.17228 0.0
C222 C 0.39517 0.17781 0.19681 0.0
C223 C 0.41838 0.1766 0.21079 0.0
C224 C 0.3708 0.13427 0.18743 0.0
C225 C 0.36807 0.08813 0.19195 0.0
C226 C 0.3903 0.08649 0.20607 0.0
C227 C 0.4153 0.13028 0.21538 0.0
C228 C 0.34411 0.04244 0.18161 0.0
C229 C 0.3725 0.01858 0.17772 0.0
C230 C 0.29462 0.02358 0.17512 0.0
C231 C 0.26104 0.04453 0.17954 0.0
C232 C 0.24921 0.04653 0.19513 0.0
C233 C 0.21788 0.06667 0.19923 0.0
C234 C 0.19785 0.08462 0.18784 0.0
C235 C 0.20901 0.08234 0.17231 0.0
C236 C 0.24035 0.06227 0.16815 0.0
C237 C 0.215 0.83061 0.14214 0.0
C238 C 0.24411 0.82983 0.12954 0.0
C239 C 0.23406 0.87331 0.15186 0.0
C240 C 0.28261 0.91627 0.14922 0.0
C241 C 0.31065 0.91676 0.13619 0.0
C242 C 0.29173 0.87387 0.12649 0.0
C243 C 0.30454 0.95944 0.16047 0.0
C244 C 0.27582 0.98281 0.1645 0.0
C245 C 0.35309 0.97692 0.16745 0.0
C246 C 0.38361 0.95133 0.16469 0.0
C247 C 0.43411 0.97964 0.1591 0.0
C248 C 0.46274 0.95545 0.15639 0.0
C249 C 0.44136 0.90298 0.15931 0.0
C250 C 0.39135 0.87463 0.165 0.0
C251 C 0.36259 0.89865 0.16775 0.0
H252 H 0.46357 0.88432 0.1572 0.0
H253 H 0.17361 0.1002 0.19104 0.0
H254 H 0.18641 0.35932 0.80318 0.0
H255 H 0.11087 0.31795 0.82001 0.0
H256 H 0.07688 0.4381 0.80987 0.0
H257 H 0.15136 0.47898 0.79269 0.0
H258 H 0.0878 0.41152 0.84407 0.0
H259 H 0.00177 0.34164 0.79487 0.0
H260 H 0.98955 0.29476 0.77046 0.0
H261 H 0.96558 0.16157 0.79565 0.0
H262 H 0.97846 0.208 0.82021 0.0
H263 H 0.85034 0.33103 0.88035 0.0
H264 H 0.92553 0.36466 0.86372 0.0
H265 H 0.90294 0.21191 0.85848 0.0
H266 H 0.82549 0.17773 0.87434 0.0
H267 H 0.92427 0.25218 0.8324 0.0
H268 H 0.0049 0.31312 0.88106 0.0
H269 H 0.02186 0.35561 0.90644 0.0
H270 H 0.06312 0.49904 0.88443 0.0
H271 H 0.04573 0.45727 0.85891 0.0
C272 C 0.16241 0.37652 0.80436 0.0
C273 C 0.17481 0.4224 0.7966 0.0
C274 C 0.11939 0.35288 0.81397 0.0
C275 C 0.08864 0.3752 0.81619 0.0
C276 C 0.10031 0.42043 0.80828 0.0
C277 C 0.14266 0.44351 0.79841 0.0
C278 C 0.04555 0.35258 0.82727 0.0
C279 C 0.05171 0.377 0.84152 0.0
C280 C 0.99965 0.3064 0.82412 0.0
C281 C 0.9917 0.2785 0.80936 0.0
C282 C 0.99445 0.30255 0.7952 0.0
C283 C 0.98726 0.27602 0.78134 0.0
C284 C 0.97696 0.22527 0.7815 0.0
C285 C 0.97366 0.20091 0.79553 0.0
C286 C 0.98086 0.2273 0.80943 0.0
C287 C 0.86183 0.30472 0.87583 0.0
C288 C 0.83218 0.25179 0.8787 0.0
C289 C 0.90508 0.32403 0.86635 0.0
C290 C 0.92078 0.29109 0.85998 0.0
C291 C 0.89179 0.23825 0.86319 0.0
C292 C 0.84768 0.21874 0.87234 0.0
C293 C 0.96573 0.31144 0.84936 0.0
C294 C 0.96021 0.28656 0.83514 0.0
C295 C 0.01288 0.35655 0.85274 0.0
C296 C 0.02359 0.38193 0.86807 0.0
C297 C 0.01725 0.35364 0.88163 0.0
C298 C 0.02699 0.37761 0.89604 0.0
C299 C 0.04344 0.42996 0.89705 0.0
C300 C 0.05033 0.45848 0.88363 0.0
C301 C 0.0406 0.43469 0.86919 0.0
H302 H 0.05095 0.44845 0.90822 0.0
H303 H 0.97139 0.20478 0.77076 0.0
H304 H 0.54988 0.68226 0.45328 0.0
H305 H 0.59123 0.64938 0.47045 0.0
H306 H 0.67725 0.79844 0.4918 0.0
H307 H 0.63501 0.83127 0.47499 0.0
H308 H 0.68443 0.66833 0.47634 0.0
H309 H 0.69011 0.78525 0.52999 0.0
H310 H 0.6438 0.82685 0.54054 0.0
H311 H 0.50809 0.72065 0.51571 0.0
H312 H 0.55339 0.67807 0.50517 0.0
H313 H 0.83023 0.63385 0.53371 0.0
H314 H 0.79708 0.67585 0.51697 0.0
H315 H 0.64883 0.59097 0.53874 0.0
H316 H 0.68188 0.54919 0.55574 0.0
H317 H 0.6712 0.68737 0.53277 0.0
H318 H 0.67175 0.55046 0.50471 0.0
H319 H 0.70973 0.50072 0.49424 0.0
H320 H 0.81741 0.63173 0.46799 0.0
H321 H 0.78046 0.68246 0.47848 0.0
C322 C 0.57802 0.70827 0.46151 0.0
C323 C 0.58861 0.75927 0.46287 0.0
C324 C 0.60169 0.68938 0.47132 0.0
C325 C 0.63658 0.7211 0.48265 0.0
C326 C 0.64954 0.77286 0.48341 0.0
C327 C 0.62552 0.79165 0.47371 0.0
C328 C 0.65762 0.69941 0.49406 0.0
C329 C 0.68172 0.67274 0.48866 0.0
C330 C 0.65324 0.70414 0.51018 0.0
C331 C 0.62533 0.72885 0.51668 0.0
C332 C 0.65033 0.77067 0.52684 0.0
C333 C 0.62427 0.79443 0.5328 0.0
C334 C 0.57309 0.7765 0.52876 0.0
C335 C 0.54778 0.73462 0.51879 0.0
C336 C 0.57365 0.71069 0.51281 0.0
C337 C 0.79071 0.62447 0.5351 0.0
C338 C 0.75857 0.58765 0.54598 0.0
C339 C 0.77177 0.64843 0.52546 0.0
C340 C 0.7202 0.63582 0.52639 0.0
C341 C 0.6887 0.60112 0.53776 0.0
C342 C 0.70767 0.57722 0.54747 0.0
C343 C 0.69857 0.65697 0.51503 0.0
C344 C 0.67428 0.6834 0.52044 0.0
C345 C 0.70163 0.65091 0.49892 0.0
C346 C 0.72365 0.62039 0.49249 0.0
C347 C 0.70375 0.56876 0.49679 0.0
C348 C 0.72506 0.54037 0.49084 0.0
C349 C 0.76604 0.56309 0.48049 0.0
C350 C 0.7857 0.6142 0.47603 0.0
C351 C 0.76456 0.64278 0.48196 0.0
H352 H 0.78249 0.54106 0.4759 0.0
H353 H 0.55301 0.795 0.53337 0.0
H354 H 0.32656 0.64965 0.11934 0.0
H355 H 0.35705 0.60089 0.13417 0.0
H356 H 0.21051 0.51904 0.15711 0.0
H357 H 0.18014 0.56812 0.14263 0.0
H358 H 0.28511 0.54827 0.1774 0.0
H359 H 0.24478 0.46285 0.12849 0.0
H360 H 0.24782 0.45585 0.10021 0.0
H361 H 0.4104 0.51464 0.10242 0.0
H362 H 0.40845 0.52266 0.13071 0.0
H363 H 0.30931 0.33944 0.20731 0.0
H364 H 0.28106 0.38959 0.1921 0.0
H365 H 0.43636 0.48846 0.17662 0.0
H366 H 0.4651 0.43921 0.19196 0.0
H367 H 0.35904 0.45112 0.15262 0.0
H368 H 0.39682 0.53463 0.20215 0.0
H369 H 0.39073 0.53806 0.23044 0.0
H370 H 0.22821 0.4782 0.22687 0.0
H371 H 0.23321 0.47364 0.19855 0.0
C372 C 0.30076 0.62115 0.1275 0.0
C373 C 0.2509 0.61284 0.12978 0.0
C374 C 0.31819 0.59317 0.13594 0.0
C375 C 0.2859 0.55599 0.14668 0.0
C376 C 0.23614 0.54759 0.14893 0.0
C377 C 0.2188 0.57564 0.14058 0.0
C378 C 0.30405 0.52632 0.15579 0.0
C379 C 0.30067 0.52653 0.17195 0.0
C380 C 0.32522 0.49866 0.14871 0.0
C381 C 0.32655 0.49388 0.1317 0.0
C382 C 0.28126 0.4747 0.12294 0.0
C383 C 0.28277 0.47047 0.10691 0.0
C384 C 0.3293 0.48493 0.09952 0.0
C385 C 0.3744 0.50353 0.10816 0.0
C386 C 0.37311 0.5079 0.12419 0.0
C387 C 0.33742 0.37189 0.20068 0.0
C388 C 0.38942 0.38548 0.20086 0.0
C389 C 0.32126 0.40049 0.19203 0.0
C390 C 0.35671 0.44267 0.18328 0.0
C391 C 0.40849 0.45598 0.1833 0.0
C392 C 0.42482 0.42796 0.19213 0.0
C393 C 0.33979 0.47306 0.17413 0.0
C394 C 0.34347 0.47296 0.15801 0.0
C395 C 0.31841 0.50038 0.18121 0.0
C396 C 0.31531 0.50325 0.19824 0.0
C397 C 0.3597 0.52172 0.2074 0.0
C398 C 0.35646 0.52397 0.22345 0.0
C399 C 0.30909 0.50821 0.23046 0.0
C400 C 0.26487 0.49031 0.22143 0.0
C401 C 0.26789 0.48791 0.20538 0.0
H402 H 0.30666 0.51 0.24288 0.0
H403 H 0.33038 0.48161 0.08711 0.0
H404 H 0.38183 0.68869 0.78203 0.0
H405 H 0.43368 0.76739 0.79688 0.0
H406 H 0.47017 0.68266 0.82974 0.0
H407 H 0.41861 0.60393 0.81503 0.0
H408 H 0.44227 0.74659 0.84387 0.0
H409 H 0.55785 0.75581 0.80431 0.0
H410 H 0.58541 0.75488 0.77759 0.0
H411 H 0.57045 0.88607 0.76671 0.0
H412 H 0.54207 0.88733 0.79333 0.0
H413 H 0.69663 0.00308 0.86019 0.0
H414 H 0.64744 0.92237 0.84609 0.0
H415 H 0.50774 0.92466 0.85531 0.0
H416 H 0.55644 0.00484 0.86963 0.0
H417 H 0.59003 0.89999 0.82058 0.0
H418 H 0.40914 0.80205 0.85909 0.0
H419 H 0.3852 0.80106 0.88636 0.0
H420 H 0.53819 0.84331 0.90049 0.0
H421 H 0.56283 0.84385 0.87334 0.0
C422 C 0.40092 0.68678 0.79241 0.0
C423 C 0.39614 0.63998 0.79731 0.0
C424 C 0.43062 0.73181 0.80085 0.0
C425 C 0.45591 0.73083 0.81436 0.0
C426 C 0.4509 0.68419 0.81935 0.0
C427 C 0.42158 0.63928 0.81087 0.0
C428 C 0.48761 0.7784 0.82335 0.0
C429 C 0.47453 0.78018 0.83878 0.0
C430 C 0.53014 0.82188 0.81676 0.0
C431 C 0.54735 0.82134 0.80077 0.0
C432 C 0.56002 0.7842 0.79619 0.0
C433 C 0.57587 0.78366 0.78107 0.0
C434 C 0.57955 0.82031 0.77045 0.0
C435 C 0.56751 0.85766 0.77494 0.0
C436 C 0.55158 0.85833 0.79005 0.0
C437 C 0.6554 0.9863 0.85929 0.0
C438 C 0.63046 0.01036 0.86607 0.0
C439 C 0.62738 0.94027 0.85117 0.0
C440 C 0.57389 0.9173 0.84973 0.0
C441 C 0.5489 0.9413 0.85645 0.0
C442 C 0.57685 0.98725 0.8646 0.0
C443 C 0.54431 0.86849 0.84107 0.0
C444 C 0.55771 0.86648 0.82568 0.0
C445 C 0.50252 0.82453 0.84776 0.0
C446 C 0.48791 0.82345 0.86416 0.0
C447 C 0.43759 0.81089 0.86803 0.0
C448 C 0.42392 0.81045 0.88346 0.0
C449 C 0.46019 0.82227 0.89515 0.0
C450 C 0.51017 0.83435 0.89143 0.0
C451 C 0.52403 0.83478 0.87601 0.0
H452 H 0.44955 0.82198 0.90709 0.0
H453 H 0.59183 0.81984 0.75875 0.0
H454 H 0.00702 0.55624 0.5408 0.0
H455 H 0.08861 0.58795 0.52728 0.0
H456 H 0.05304 0.68346 0.49862 0.0
H457 H 0.97066 0.65049 0.5117 0.0
H458 H 0.09091 0.64052 0.4815 0.0
H459 H 0.14049 0.73227 0.52946 0.0
H460 H 0.14524 0.74197 0.55777 0.0
H461 H 0.22141 0.6538 0.56086 0.0
H462 H 0.21651 0.643 0.53257 0.0
H463 H 0.38732 0.81974 0.47672 0.0
H464 H 0.30585 0.78761 0.49019 0.0
H465 H 0.24561 0.6427 0.46643 0.0
H466 H 0.32678 0.67499 0.45259 0.0
H467 H 0.25619 0.71242 0.50975 0.0
H468 H 0.11758 0.59211 0.46053 0.0
H469 H 0.11388 0.59165 0.43208 0.0
H470 H 0.21794 0.75439 0.43128 0.0
H471 H 0.22171 0.75592 0.45972 0.0
C472 C 0.01667 0.58412 0.53165 0.0
C473 C 0.98244 0.60093 0.52733 0.0
C474 C 0.06342 0.60236 0.52396 0.0
C475 C 0.07731 0.63858 0.51203 0.0
C476 C 0.04317 0.65546 0.50775 0.0
C477 C 0.99614 0.63671 0.51528 0.0
C478 C 0.12712 0.65857 0.50388 0.0
C479 C 0.12702 0.65619 0.4877 0.0
C480 C 0.17442 0.67975 0.51191 0.0
C481 C 0.17769 0.68643 0.52892 0.0
C482 C 0.15794 0.71466 0.53619 0.0
C483 C 0.1607 0.7204 0.55223 0.0
C484 C 0.1835 0.6984 0.56111 0.0
C485 C 0.20371 0.67075 0.55397 0.0
C486 C 0.20099 0.66485 0.53793 0.0
C487 C 0.35678 0.78103 0.47431 0.0
C488 C 0.36356 0.75001 0.46351 0.0
C489 C 0.31024 0.76266 0.48208 0.0
C490 C 0.26946 0.71292 0.47925 0.0
C491 C 0.27627 0.68153 0.46863 0.0
C492 C 0.32276 0.7 0.46076 0.0
C493 C 0.21988 0.69417 0.48739 0.0
C494 C 0.22003 0.69661 0.50357 0.0
C495 C 0.17278 0.67437 0.47934 0.0
C496 C 0.17033 0.67398 0.46224 0.0
C497 C 0.13952 0.6278 0.45428 0.0
C498 C 0.13744 0.62736 0.43816 0.0
C499 C 0.1658 0.67293 0.42988 0.0
C500 C 0.19615 0.71908 0.4377 0.0
C501 C 0.19832 0.71975 0.45382 0.0
H502 H 0.16416 0.6725 0.4174 0.0
H503 H 0.18559 0.70287 0.57353 0.0
H504 H 0.62109 0.30742 0.89225 0.0
H505 H 0.56885 0.33322 0.87719 0.0
H506 H 0.53834 0.21518 0.84374 0.0
H507 H 0.59029 0.18897 0.85868 0.0
H508 H 0.56533 0.30823 0.83016 0.0
H509 H 0.44749 0.19568 0.86827 0.0
H510 H 0.41767 0.1637 0.89461 0.0
H511 H 0.42706 0.30665 0.90661 0.0
H512 H 0.45767 0.33977 0.88039 0.0
H513 H 0.31011 0.30736 0.81254 0.0
H514 H 0.35876 0.27492 0.8265 0.0
H515 H 0.49801 0.41951 0.81955 0.0
H516 H 0.44989 0.45197 0.80538 0.0
H517 H 0.41321 0.30714 0.85267 0.0
H518 H 0.59831 0.39816 0.81587 0.0
H519 H 0.62483 0.42496 0.78896 0.0
H520 H 0.47408 0.31421 0.77307 0.0
H521 H 0.44688 0.28625 0.79986 0.0
C522 C 0.60325 0.2869 0.88169 0.0
C523 C 0.60978 0.24603 0.8767 0.0
C524 C 0.57332 0.30161 0.87313 0.0
C525 C 0.54957 0.27592 0.8594 0.0
C526 C 0.55638 0.23549 0.8543 0.0
C527 C 0.58591 0.22045 0.86291 0.0
C528 C 0.51768 0.29126 0.85031 0.0
C529 C 0.53209 0.30806 0.83507 0.0
C530 C 0.47389 0.29021 0.85666 0.0
C531 C 0.45535 0.27038 0.87241 0.0
C532 C 0.44361 0.22046 0.87657 0.0
C533 C 0.42649 0.20209 0.89146 0.0
C534 C 0.4206 0.23318 0.90229 0.0
C535 C 0.43171 0.28265 0.89822 0.0
C536 C 0.4489 0.30122 0.88334 0.0
C537 C 0.35113 0.33219 0.8139 0.0
C538 C 0.37613 0.38222 0.80781 0.0
C539 C 0.37883 0.31364 0.82194 0.0
C540 C 0.43205 0.34464 0.82397 0.0
C541 C 0.45709 0.39464 0.81793 0.0
C542 C 0.42946 0.41319 0.80988 0.0
C543 C 0.46129 0.32493 0.83257 0.0
C544 C 0.44645 0.30738 0.84774 0.0
C545 C 0.50429 0.32462 0.82608 0.0
C546 C 0.52047 0.34048 0.80989 0.0
C547 C 0.5709 0.37937 0.80663 0.0
C548 C 0.58604 0.39479 0.7914 0.0
C549 C 0.55112 0.37141 0.77932 0.0
C550 C 0.50104 0.33241 0.78244 0.0
C551 C 0.48573 0.31681 0.79765 0.0
H552 H 0.56289 0.38345 0.76754 0.0
H553 H 0.40733 0.21889 0.91382 0.0
H554 H 0.81988 0.39666 0.52885 0.0
H555 H 0.78997 0.31852 0.51371 0.0
H556 H 0.65318 0.2425 0.54156 0.0
H557 H 0.68307 0.32064 0.55696 0.0
H558 H 0.69405 0.18116 0.53636 0.0
H559 H 0.64773 0.28469 0.50615 0.0
H560 H 0.66194 0.36317 0.49283 0.0
H561 H 0.7727 0.35678 0.46312 0.0
H562 H 0.75976 0.27866 0.47644 0.0
H563 H 0.54814 0.97289 0.48534 0.0
H564 H 0.5784 0.05085 0.50073 0.0
H565 H 0.72171 0.12191 0.4759 0.0
H566 H 0.69189 0.04365 0.46048 0.0
H567 H 0.6769 0.18539 0.47948 0.0
H568 H 0.72238 0.08111 0.51016 0.0
H569 H 0.70648 0.00221 0.52359 0.0
H570 H 0.5943 0.00944 0.55241 0.0
H571 H 0.60898 0.08802 0.53899 0.0
C572 C 0.78344 0.36338 0.53182 0.0
C573 C 0.75376 0.36508 0.5441 0.0
C574 C 0.76632 0.31875 0.52309 0.0
C575 C 0.71905 0.27491 0.52637 0.0
C576 C 0.68972 0.27601 0.5388 0.0
C577 C 0.70681 0.32074 0.54756 0.0
C578 C 0.70037 0.22806 0.51677 0.0
C579 C 0.6896 0.18192 0.52396 0.0
C580 C 0.69555 0.22934 0.50054 0.0
C581 C 0.70314 0.27608 0.4924 0.0
C582 C 0.67542 0.30023 0.49686 0.0
C583 C 0.6832 0.34462 0.4893 0.0
C584 C 0.71831 0.36503 0.47717 0.0
C585 C 0.74558 0.34097 0.47254 0.0
C586 C 0.73801 0.29661 0.48009 0.0
C587 C 0.5861 0.00508 0.48312 0.0
C588 C 0.61772 0.00205 0.47172 0.0
C589 C 0.60335 0.04953 0.49196 0.0
C590 C 0.65237 0.09194 0.4895 0.0
C591 C 0.68376 0.08948 0.47797 0.0
C592 C 0.66675 0.04472 0.46922 0.0
C593 C 0.67077 0.13869 0.49908 0.0
C594 C 0.68139 0.18474 0.49189 0.0
C595 C 0.67515 0.13727 0.51531 0.0
C596 C 0.66639 0.09015 0.52345 0.0
C597 C 0.69398 0.06563 0.51927 0.0
C598 C 0.68526 0.02101 0.5269 0.0
C599 C 0.64929 1.00074 0.53881 0.0
C600 C 0.62209 0.02514 0.54316 0.0
C601 C 0.63062 0.06974 0.53555 0.0
H602 H 0.6426 0.96619 0.54471 0.0
H603 H 0.72429 0.39942 0.47133 0.0
H604 H 0.9735 0.66914 0.13389 0.0
H605 H 0.89597 0.62036 0.14939 0.0
H606 H 0.95059 0.51906 0.1642 0.0
H607 H 0.02704 0.56637 0.14828 0.0
H608 H 0.85412 0.46492 0.15808 0.0
H609 H 0.95615 0.61736 0.18775 0.0
H610 H 0.00713 0.71052 0.19261 0.0
H611 H 0.87607 0.72614 0.18215 0.0
H612 H 0.82447 0.63314 0.17702 0.0
H613 H 0.6793 0.35351 0.22084 0.0
H614 H 0.7589 0.40323 0.20623 0.0
H615 H 0.6978 0.49205 0.18565 0.0
H616 H 0.61837 0.44288 0.20016 0.0
H617 H 0.7982 0.55215 0.1954 0.0
H618 H 0.69732 0.39794 0.16551 0.0
H619 H 0.64755 0.30426 0.16148 0.0
H620 H 0.77935 0.29191 0.17365 0.0
H621 H 0.82972 0.38548 0.17796 0.0
C622 C 0.96891 0.63643 0.14044 0.0
C623 C 0.00643 0.6217 0.1399 0.0
C624 C 0.92472 0.60873 0.14937 0.0
C625 C 0.9178 0.56651 0.15819 0.0
C626 C 0.95503 0.55148 0.15751 0.0
C627 C 0.99878 0.57865 0.14842 0.0
C628 C 0.87162 0.5376 0.16803 0.0
C629 C 0.84241 0.48402 0.16639 0.0
C630 C 0.8557 0.56244 0.17874 0.0
C631 C 0.88659 0.61836 0.18186 0.0
C632 C 0.93831 0.64072 0.18638 0.0
C633 C 0.9673 0.69349 0.1892 0.0
C634 C 0.94489 0.72425 0.18765 0.0
C635 C 0.89339 0.70228 0.18332 0.0
C636 C 0.86424 0.64953 0.18047 0.0
C637 C 0.68287 0.38377 0.21326 0.0
C638 C 0.64233 0.39401 0.21161 0.0
C639 C 0.7283 0.41201 0.20489 0.0
C640 C 0.73397 0.45099 0.19478 0.0
C641 C 0.69412 0.46209 0.19339 0.0
C642 C 0.64866 0.43375 0.20166 0.0
C643 C 0.78104 0.47978 0.18539 0.0
C644 C 0.81026 0.53324 0.18712 0.0
C645 C 0.79728 0.45482 0.17489 0.0
C646 C 0.76712 0.39862 0.1722 0.0
C647 C 0.71557 0.37519 0.16744 0.0
C648 C 0.68727 0.32212 0.16509 0.0
C649 C 0.71023 0.29213 0.16735 0.0
C650 C 0.76159 0.31517 0.17193 0.0
C651 C 0.79004 0.36822 0.17431 0.0
H652 H 0.68826 0.25105 0.16553 0.0
H653 H 0.9674 0.7651 0.18984 0.0
H654 H 0.60233 0.9796 0.39702 0.0
H655 H 0.60576 0.03311 0.37518 0.0
H656 H 0.45106 0.9196 0.36256 0.0
H657 H 0.4472 0.86655 0.38457 0.0
H658 H 0.51739 0.95561 0.33739 0.0
H659 H 0.47058 0.02438 0.38029 0.0
H660 H 0.47978 0.0597 0.40651 0.0
H661 H 0.62719 0.18717 0.3946 0.0
H662 H 0.61926 0.15214 0.36836 0.0
H663 H 0.48432 0.11261 0.28272 0.0
H664 H 0.47236 0.05728 0.30475 0.0
H665 H 0.61824 0.17213 0.32334 0.0
H666 H 0.62906 0.22883 0.30181 0.0
H667 H 0.55139 0.13314 0.34573 0.0
H668 H 0.60198 0.06373 0.30373 0.0
H669 H 0.59616 0.02834 0.27766 0.0
H670 H 0.44569 0.90292 0.28788 0.0
H671 H 0.45036 0.93795 0.31396 0.0
C672 C 0.5691 0.96624 0.38958 0.0
C673 C 0.52466 0.91889 0.39239 0.0
C674 C 0.57106 0.99673 0.37713 0.0
C675 C 0.52855 0.9804 0.36729 0.0
C676 C 0.48434 0.93279 0.36997 0.0
C677 C 0.48226 0.90247 0.38249 0.0
C678 C 0.53014 0.01325 0.35429 0.0
C679 C 0.52407 0.99417 0.3392 0.0
C680 C 0.53991 0.06389 0.35667 0.0
C681 C 0.54451 0.08537 0.37239 0.0
C682 C 0.50514 0.05974 0.38329 0.0
C683 C 0.5101 0.07973 0.39816 0.0
C684 C 0.5541 0.12559 0.40223 0.0
C685 C 0.59316 0.15162 0.39143 0.0
C686 C 0.58843 0.13173 0.37655 0.0
C687 C 0.51321 0.12683 0.29166 0.0
C688 C 0.55718 0.17578 0.2906 0.0
C689 C 0.50674 0.09464 0.30416 0.0
C690 C 0.54461 0.11028 0.31568 0.0
C691 C 0.58839 0.15917 0.31465 0.0
C692 C 0.59466 0.19144 0.30225 0.0
C693 C 0.53921 0.07579 0.32873 0.0
C694 C 0.54449 0.09452 0.34387 0.0
C695 C 0.52914 0.02496 0.32638 0.0
C696 C 0.5263 0.00376 0.31073 0.0
C697 C 0.5675 0.02882 0.30037 0.0
C698 C 0.56443 0.00879 0.28561 0.0
C699 C 0.52052 0.96349 0.2811 0.0
C700 C 0.47964 0.93805 0.29138 0.0
C701 C 0.48249 0.95795 0.30616 0.0
H702 H 0.51822 0.94804 0.26966 0.0
H703 H 0.55787 0.14101 0.41375 0.0
H704 H 0.819 0.32084 0.9676 0.0
H705 H 0.8775 0.36742 0.98887 0.0
H706 H 0.909 0.51121 0.96858 0.0
H707 H 0.85097 0.46477 0.94714 0.0
H708 H 0.99754 0.5126 0.97974 0.0
H709 H 0.82687 0.46448 0.99708 0.0
H710 H 0.73554 0.40354 1.00231 0.0
H711 H 0.77783 0.31985 0.03347 0.0
H712 H 0.86947 0.37992 0.02826 0.0
H713 H 0.10695 0.6776 0.04433 0.0
H714 H 0.05423 0.62971 0.02207 0.0
H715 H 0.00602 0.48722 0.04624 0.0
H716 H 0.05763 0.53532 0.06861 0.0
H717 H 0.92691 0.48343 0.03284 0.0
H718 H 0.09653 0.53062 0.01656 0.0
H719 H 0.18842 0.58953 0.01149 0.0
H720 H 0.15006 0.67153 0.97848 0.0
H721 H 0.05789 0.61357 0.98352 0.0
C722 C 0.83929 0.36235 0.96745 0.0
C723 C 0.83104 0.38921 0.95556 0.0
C724 C 0.87228 0.38892 0.97971 0.0
C725 C 0.89748 0.44277 0.98032 0.0
C726 C 0.89007 0.46968 0.96831 0.0
C727 C 0.85676 0.44312 0.95612 0.0
C728 C 0.93002 0.47102 0.99376 0.0
C729 C 0.98209 0.50669 0.99134 0.0
C730 C 0.91005 0.46229 0.00892 0.0
C731 C 0.85499 0.42638 0.01216 0.0
C732 C 0.81668 0.43284 0.00496 0.0
C733 C 0.76487 0.39851 0.00793 0.0
C734 C 0.75088 0.35777 0.01819 0.0
C735 C 0.78871 0.35138 0.02552 0.0
C736 C 0.84059 0.38558 0.02256 0.0
C737 C 0.08503 0.63605 0.04481 0.0
C738 C 0.08592 0.60998 0.05812 0.0
C739 C 0.05517 0.60869 0.03209 0.0
C740 C 0.02653 0.55471 0.03238 0.0
C741 C 0.02762 0.52877 0.04573 0.0
C742 C 0.05706 0.55617 0.05849 0.0
C743 C 0.99475 0.52527 0.01889 0.0
C744 C 0.94266 0.48933 0.02127 0.0
C745 C 0.0149 0.53342 1.00372 0.0
C746 C 0.07029 0.56802 1.00053 0.0
C747 C 0.10768 0.56143 0.0083 0.0
C748 C 0.15982 0.59463 0.00542 0.0
C749 C 0.17507 0.63432 0.9947 0.0
C750 C 0.13819 0.6408 0.98679 0.0
C751 C 0.08599 0.60776 0.98965 0.0
H752 H 0.21546 0.66 0.99249 0.0
H753 H 0.71075 0.33122 0.02048 0.0
H754 H 0.46682 0.51369 0.73674 0.0
H755 H 0.51407 0.50889 0.71434 0.0
H756 H 0.37375 0.4365 0.68787 0.0
H757 H 0.32645 0.44149 0.7103 0.0
H758 H 0.43299 0.387 0.68575 0.0
H759 H 0.45511 0.55652 0.68111 0.0
H760 H 0.47915 0.64312 0.69044 0.0
H761 H 0.63389 0.67627 0.6979 0.0
H762 H 0.61057 0.58951 0.68883 0.0
H763 H 0.54031 0.39688 0.61284 0.0
H764 H 0.49294 0.40757 0.63405 0.0
H765 H 0.63564 0.5058 0.65764 0.0
H766 H 0.68307 0.49623 0.6362 0.0
H767 H 0.57465 0.54281 0.66138 0.0
H768 H 0.55578 0.37625 0.6674 0.0
H769 H 0.53468 0.28905 0.65953 0.0
H770 H 0.3783 0.24926 0.65131 0.0
H771 H 0.39864 0.33649 0.65893 0.0
C772 C 0.44616 0.49655 0.72615 0.0
C773 C 0.39307 0.47758 0.72519 0.0
C774 C 0.47314 0.49411 0.71336 0.0
C775 C 0.44741 0.47251 0.69945 0.0
C776 C 0.39427 0.45329 0.69852 0.0
C777 C 0.36738 0.45625 0.71126 0.0
C778 C 0.47593 0.46956 0.68591 0.0
C779 C 0.46346 0.42103 0.68025 0.0
C780 C 0.51677 0.51399 0.67911 0.0
C781 C 0.53096 0.56634 0.68442 0.0
C782 C 0.49417 0.58212 0.68485 0.0
C783 C 0.50768 0.63127 0.69008 0.0
C784 C 0.55799 0.66514 0.6948 0.0
C785 C 0.59492 0.64997 0.69426 0.0
C786 C 0.58159 0.60083 0.68907 0.0
C787 C 0.5615 0.42112 0.6225 0.0
C788 C 0.61533 0.44621 0.62281 0.0
C789 C 0.53444 0.42699 0.63467 0.0
C790 C 0.56059 0.45681 0.64762 0.0
C791 C 0.61453 0.48271 0.64778 0.0
C792 C 0.64167 0.47749 0.63548 0.0
C793 C 0.53167 0.46007 0.66109 0.0
C794 C 0.54411 0.50867 0.6668 0.0
C795 C 0.49129 0.41562 0.66812 0.0
C796 C 0.47886 0.36306 0.66359 0.0
C797 C 0.51698 0.34902 0.66381 0.0
C798 C 0.50514 0.29957 0.65941 0.0
C799 C 0.45521 0.26368 0.65489 0.0
C800 C 0.41698 0.27712 0.65479 0.0
C801 C 0.42862 0.32655 0.65916 0.0
H802 H 0.44613 0.22542 0.65149 0.0
H803 H 0.56838 0.70317 0.69884 0.0
H804 H 0.18663 0.50345 0.70671 0.0
H805 H 0.12814 0.49122 0.68537 0.0
H806 H 0.09185 0.59911 0.70638 0.0
H807 H 0.15022 0.61133 0.72781 0.0
H808 H 0.00454 0.50828 0.69456 0.0
H809 H 0.17395 0.64031 0.67866 0.0
H810 H 0.26632 0.6756 0.67379 0.0
H811 H 0.23171 0.55507 0.64118 0.0
H812 H 0.13909 0.51863 0.64603 0.0
H813 H 0.89038 0.56329 0.6313 0.0
H814 H 0.94336 0.56806 0.65346 0.0
H815 H 0.00341 0.4875 0.62736 0.0
H816 H 0.9518 0.48451 0.60507 0.0
H817 H 0.07789 0.56125 0.64206 0.0
H818 H 0.91033 0.42921 0.65662 0.0
H819 H 0.81739 0.38988 0.66132 0.0
H820 H 0.84626 0.50269 0.69616 0.0
H821 H 0.9394 0.54322 0.6915 0.0
C822 C 0.16529 0.52361 0.70698 0.0
C823 C 0.17233 0.55774 0.71904 0.0
C824 C 0.1323 0.517 0.6947 0.0
C825 C 0.10573 0.54431 0.6943 0.0
C826 C 0.11185 0.57754 0.70651 0.0
C827 C 0.1453 0.58463 0.71868 0.0
C828 C 0.07325 0.53995 0.68086 0.0
C829 C 0.02051 0.52029 0.68309 0.0
C830 C 0.09401 0.55433 0.66585 0.0
C831 C 0.14964 0.57645 0.66283 0.0
C832 C 0.18606 0.62109 0.67055 0.0
C833 C 0.23845 0.64135 0.66777 0.0
C834 C 0.25488 0.61751 0.65721 0.0
C835 C 0.21893 0.57345 0.64937 0.0
C836 C 0.16649 0.553 0.65212 0.0
C837 C 0.91496 0.54666 0.63037 0.0
C838 C 0.91737 0.52377 0.61654 0.0
C839 C 0.94498 0.54908 0.64303 0.0
C840 C 0.97695 0.52746 0.6422 0.0
C841 C 0.9792 0.50453 0.62832 0.0
C842 C 0.94976 0.5028 0.6156 0.0
C843 C 0.00874 0.52952 0.65567 0.0
C844 C 0.06153 0.54887 0.65347 0.0
C845 C 0.98781 0.51409 0.67067 0.0
C846 C 0.93184 0.48954 0.67361 0.0
C847 C 0.89685 0.44585 0.66521 0.0
C848 C 0.84414 0.42332 0.66787 0.0
C849 C 0.82593 0.44384 0.679 0.0
C850 C 0.86042 0.48687 0.68753 0.0
C851 C 0.91319 0.50962 0.68489 0.0
H852 H 0.78509 0.42635 0.68104 0.0
H853 H 0.29546 0.63324 0.65508 0.0
H854 H 0.44362 0.32782 0.29782 0.0
H855 H 0.43865 0.37494 0.32026 0.0
H856 H 0.5108 0.51545 0.29389 0.0
H857 H 0.5169 0.4686 0.27163 0.0
H858 H 0.54923 0.532 0.32254 0.0
H859 H 0.38202 0.45035 0.29926 0.0
H860 H 0.3022 0.37764 0.28901 0.0
H861 H 0.26876 0.30509 0.33349 0.0
H862 H 0.34882 0.37709 0.34395 0.0
H863 H 0.38716 0.62114 0.36927 0.0
H864 H 0.39764 0.57342 0.34819 0.0
H865 H 0.50925 0.55678 0.37506 0.0
H866 H 0.49869 0.60438 0.39627 0.0
H867 H 0.37973 0.4784 0.34621 0.0
H868 H 0.5983 0.5563 0.35014 0.0
H869 H 0.67682 0.63451 0.35861 0.0
H870 H 0.60508 0.72461 0.34974 0.0
H871 H 0.52647 0.64711 0.34102 0.0
C872 C 0.45857 0.3688 0.2969 0.0
C873 C 0.47994 0.39456 0.28299 0.0
C874 C 0.45559 0.39563 0.30966 0.0
C875 C 0.47383 0.44865 0.3087 0.0
C876 C 0.49637 0.47457 0.2949 0.0
C877 C 0.49937 0.44775 0.28215 0.0
C878 C 0.46828 0.47698 0.32191 0.0
C879 C 0.51221 0.52014 0.32777 0.0
C880 C 0.4199 0.46207 0.32858 0.0
C881 C 0.37166 0.41883 0.32234 0.0
C882 C 0.35785 0.4187 0.30682 0.0
C883 C 0.31253 0.37765 0.30098 0.0
C884 C 0.2805 0.3367 0.31058 0.0
C885 C 0.29365 0.33679 0.32606 0.0
C886 C 0.33898 0.37772 0.33195 0.0
C887 C 0.414 0.60738 0.37071 0.0
C888 C 0.44288 0.61752 0.38434 0.0
C889 C 0.41988 0.58002 0.35864 0.0
C890 C 0.45462 0.56196 0.35995 0.0
C891 C 0.48296 0.57123 0.37366 0.0
C892 C 0.47717 0.59881 0.38575 0.0
C893 C 0.46072 0.53329 0.34693 0.0
C894 C 0.41686 0.49001 0.3411 0.0
C895 C 0.509 0.5488 0.34008 0.0
C896 C 0.55632 0.59578 0.3451 0.0
C897 C 0.59937 0.59284 0.34996 0.0
C898 C 0.64388 0.63704 0.3548 0.0
C899 C 0.64587 0.68446 0.35477 0.0
C900 C 0.60343 0.68782 0.34982 0.0
C901 C 0.55887 0.64376 0.34494 0.0
H902 H 0.68034 0.71862 0.35854 0.0
H903 H 0.24542 0.30496 0.30604 0.0
H904 H 0.67255 0.12528 0.96545 0.0
H905 H 0.62373 0.07224 0.98751 0.0
H906 H 0.4909 0.98902 0.95829 0.0
H907 H 0.53912 0.04305 0.93639 0.0
H908 H 0.46304 0.00831 0.98545 0.0
H909 H 0.56656 0.93858 0.9678 0.0
H910 H 0.64685 0.94094 0.96043 0.0
H911 H 0.70679 0.99059 0.0061 0.0
H912 H 0.62707 0.98921 0.01368 0.0
H913 H 0.39174 0.76984 0.03719 0.0
H914 H 0.43825 0.82687 0.01575 0.0
H915 H 0.433 0.9514 0.03869 0.0
H916 H 0.38667 0.89452 0.06026 0.0
H917 H 0.52895 0.91093 0.01444 0.0
H918 H 0.42676 0.03041 0.01105 0.0
H919 H 0.34186 0.02054 0.01662 0.0
H920 H 0.27082 0.85764 0.0099 0.0
H921 H 0.35512 0.86663 0.00407 0.0
C922 C 0.63284 0.09582 0.9638 0.0
C923 C 0.60976 0.08769 0.9492 0.0
C924 C 0.60507 0.06541 0.97637 0.0
C925 C 0.55379 0.02618 0.97452 0.0
C926 C 0.53041 0.0189 0.95999 0.0
C927 C 0.55813 0.04937 0.94745 0.0
C928 C 0.52479 0.99194 0.9876 0.0
C929 C 0.47756 0.98719 0.99183 0.0
C930 C 0.54319 0.96361 0.99576 0.0
C931 C 0.59108 0.9643 0.99126 0.0
C932 C 0.59702 0.95038 0.97624 0.0
C933 C 0.6424 0.95148 0.97203 0.0
C934 C 0.68195 0.96604 0.98278 0.0
C935 C 0.67615 0.9794 0.99778 0.0
C936 C 0.63087 0.97844 1.00204 0.0
C937 C 0.40033 0.80935 0.03767 0.0
C938 C 0.38453 0.82731 0.05031 0.0
C939 C 0.42702 0.84193 0.0254 0.0
C940 C 0.43871 0.8933 0.02551 0.0
C941 C 0.42351 0.91162 0.0382 0.0
C942 C 0.39663 0.87891 0.05049 0.0
C943 C 0.46737 0.92759 0.0124 0.0
C944 C 0.5146 0.93237 0.00815 0.0
C945 C 0.44835 0.95496 0.00401 0.0
C946 C 0.39735 0.94919 0.0073 0.0
C947 C 0.39299 0.99252 0.01071 0.0
C948 C 0.34497 0.98707 0.01391 0.0
C949 C 0.301 0.93847 0.01367 0.0
C950 C 0.30492 0.89524 0.01015 0.0
C951 C 0.35282 0.90049 0.00691 0.0
H952 H 0.26388 0.93434 0.01617 0.0
H953 H 0.71705 0.96686 0.9795 0.0
loop_
_geom_bond_atom_site_label_1
_geom_bond_atom_site_label_2
_geom_bond_distance
_geom_bond_site_symmetry_2
_ccdc_geom_bond_type
Co0 O3 1.970 . S
Co0 N17 1.989 . S
Co0 O25 1.967 . S
Co0 O32 1.920 . S
Co1 O4 1.966 . S
Co1 N10 2.022 . S
Co1 N18 1.993 . S
Co1 O26 1.941 . S
C2 O3 1.258 . S
C2 O4 1.263 . S
O3 Co0 1.970 . S
O3 C2 1.258 . S
O4 Co1 1.966 . S
O4 C2 1.263 . S
C5 O6 1.235 . S
C5 O32 1.289 . S
O6 C5 1.235 . S
C7 C9 1.400 . S
C7 N10 1.351 . S
C7 C12 1.501 . S
C8 C9 1.387 . S
C8 N11 1.341 . S
C9 C7 1.400 . S
C9 C8 1.387 . S
N10 Co1 2.022 . S
N10 C7 1.351 . S
N10 N11 1.365 . S
N11 C8 1.341 . S
N11 N10 1.365 . S
N11 H31 0.862 . S
C12 C7 1.501 . S
C12 H13 0.961 . S
C12 H14 0.961 . S
C12 H15 0.960 . S
H13 C12 0.961 . S
H14 C12 0.961 . S
H15 C12 0.960 . S
C16 N17 1.342 . S
C16 C20 1.401 . S
C16 C21 1.499 . S
N17 Co0 1.989 . S
N17 C16 1.342 . S
N17 N18 1.388 . S
N18 Co1 1.993 . S
N18 N17 1.388 . S
N18 C19 1.346 . S
C19 N18 1.346 . S
C19 C20 1.396 . S
C19 C29 1.510 . S
C20 C16 1.401 . S
C20 C19 1.396 . S
C21 C16 1.499 . S
C21 H22 0.959 . S
C21 H23 0.960 . S
C21 H24 0.961 . S
H22 C21 0.959 . S
H23 C21 0.960 . S
H24 C21 0.961 . S
O25 Co0 1.967 . S
O25 C33 1.258 . S
O26 Co1 1.941 . S
O26 C33 1.266 . S
H27 C29 0.959 . S
H28 C29 0.961 . S
C29 C19 1.510 . S
C29 H27 0.959 . S
C29 H28 0.961 . S
C29 H30 0.960 . S
H30 C29 0.960 . S
H31 N11 0.862 . S
O32 Co0 1.920 . S
O32 C5 1.289 . S
C33 O25 1.258 . S
C33 O26 1.266 . S
Co34 O37 1.970 . S
Co34 N51 1.989 . S
Co34 O59 1.967 . S
Co34 O66 1.920 . S
Co35 O38 1.966 . S
Co35 N44 2.022 . S
Co35 N52 1.993 . S
Co35 O60 1.941 . S
C36 O37 1.258 . S
C36 O38 1.263 . S
O37 Co34 1.970 . S
O37 C36 1.258 . S
O38 Co35 1.966 . S
O38 C36 1.263 . S
C39 O40 1.235 . S
C39 O66 1.289 . S
O40 C39 1.235 . S
C41 C43 1.400 . S
C41 N44 1.351 . S
C41 C46 1.501 . S
C42 C43 1.387 . S
C42 N45 1.341 . S
C43 C41 1.400 . S
C43 C42 1.387 . S
N44 Co35 2.022 . S
N44 C41 1.351 . S
N44 N45 1.365 . S
N45 C42 1.341 . S
N45 N44 1.365 . S
N45 H65 0.862 . S
C46 C41 1.501 . S
C46 H47 0.961 . S
C46 H48 0.961 . S
C46 H49 0.960 . S
H47 C46 0.961 . S
H48 C46 0.961 . S
H49 C46 0.960 . S
C50 N51 1.342 . S
C50 C54 1.401 . S
C50 C55 1.499 . S
N51 Co34 1.989 . S
N51 C50 1.342 . S
N51 N52 1.388 . S
N52 Co35 1.993 . S
N52 N51 1.388 . S
N52 C53 1.346 . S
C53 N52 1.346 . S
C53 C54 1.396 . S
C53 C63 1.510 . S
C54 C50 1.401 . S
C54 C53 1.396 . S
C55 C50 1.499 . S
C55 H56 0.959 . S
C55 H57 0.960 1_545 S
C55 H58 0.961 . S
H56 C55 0.959 . S
H57 C55 0.960 1_565 S
H58 C55 0.961 . S
O59 Co34 1.967 . S
O59 C67 1.258 . S
O60 Co35 1.941 . S
O60 C67 1.266 . S
H61 C63 0.959 . S
H62 C63 0.961 . S
C63 C53 1.510 . S
C63 H61 0.959 . S
C63 H62 0.961 . S
C63 H64 0.960 . S
H64 C63 0.960 . S
H65 N45 0.862 . S
O66 Co34 1.920 . S
O66 C39 1.289 . S
C67 O59 1.258 . S
C67 O60 1.266 . S
Co68 O71 1.970 . S
Co68 N85 1.989 . S
Co68 O93 1.967 . S
Co68 O100 1.920 . S
Co69 O72 1.966 . S
Co69 N78 2.022 . S
Co69 N86 1.993 . S
Co69 O94 1.941 . S
C70 O71 1.258 . S
C70 O72 1.263 . S
O71 Co68 1.970 . S
O71 C70 1.258 . S
O72 Co69 1.966 . S
O72 C70 1.263 . S
C73 O74 1.235 . S
C73 O100 1.289 . S
O74 C73 1.235 . S
C75 C77 1.400 . S
C75 N78 1.351 . S
C75 C80 1.501 . S
C76 C77 1.387 . S
C76 N79 1.341 . S
C77 C75 1.400 . S
C77 C76 1.387 . S
N78 Co69 2.022 . S
N78 C75 1.351 . S
N78 N79 1.365 . S
N79 C76 1.341 . S
N79 N78 1.365 . S
N79 H99 0.862 . S
C80 C75 1.501 . S
C80 H81 0.961 . S
C80 H82 0.961 . S
C80 H83 0.960 . S
H81 C80 0.961 . S
H82 C80 0.961 . S
H83 C80 0.960 . S
C84 N85 1.342 . S
C84 C88 1.401 . S
C84 C89 1.499 . S
N85 Co68 1.989 . S
N85 C84 1.342 . S
N85 N86 1.388 . S
N86 Co69 1.993 . S
N86 N85 1.388 . S
N86 C87 1.346 . S
C87 N86 1.346 . S
C87 C88 1.396 . S
C87 C97 1.510 . S
C88 C84 1.401 . S
C88 C87 1.396 . S
C89 C84 1.499 . S
C89 H90 0.959 . S
C89 H91 0.960 1_655 S
C89 H92 0.961 . S
H90 C89 0.959 . S
H91 C89 0.960 1_455 S
H92 C89 0.961 . S
O93 Co68 1.967 . S
O93 C101 1.258 . S
O94 Co69 1.941 . S
O94 C101 1.266 . S
H95 C97 0.959 . S
H96 C97 0.961 . S
C97 C87 1.510 . S
C97 H95 0.959 . S
C97 H96 0.961 . S
C97 H98 0.960 . S
H98 C97 0.960 . S
H99 N79 0.862 . S
O100 Co68 1.920 . S
O100 C73 1.289 . S
C101 O93 1.258 . S
C101 O94 1.266 . S
Co102 O105 1.970 . S
Co102 N119 1.989 . S
Co102 O127 1.967 . S
Co102 O134 1.920 . S
Co103 O106 1.966 . S
Co103 N112 2.022 . S
Co103 N120 1.993 . S
Co103 O128 1.941 . S
C104 O105 1.258 . S
C104 O106 1.263 . S
O105 Co102 1.970 . S
O105 C104 1.258 . S
O106 Co103 1.966 . S
O106 C104 1.263 . S
C107 O108 1.235 . S
C107 O134 1.289 . S
O108 C107 1.235 . S
C109 C111 1.400 . S
C109 N112 1.351 . S
C109 C114 1.501 . S
C110 C111 1.387 . S
C110 N113 1.341 . S
C111 C109 1.400 . S
C111 C110 1.387 . S
N112 Co103 2.022 . S
N112 C109 1.351 . S
N112 N113 1.365 . S
N113 C110 1.341 . S
N113 N112 1.365 . S
N113 H133 0.862 . S
C114 C109 1.501 . S
C114 H115 0.961 . S
C114 H116 0.961 . S
C114 H117 0.960 . S
H115 C114 0.961 . S
H116 C114 0.961 . S
H117 C114 0.960 . S
C118 N119 1.342 . S
C118 C122 1.401 . S
C118 C123 1.499 . S
N119 Co102 1.989 . S
N119 C118 1.342 . S
N119 N120 1.388 . S
N120 Co103 1.993 . S
N120 N119 1.388 . S
N120 C121 1.346 . S
C121 N120 1.346 . S
C121 C122 1.396 . S
C121 C131 1.510 . S
C122 C118 1.401 . S
C122 C121 1.396 . S
C123 C118 1.499 . S
C123 H124 0.959 . S
C123 H125 0.960 . S
C123 H126 0.961 . S
H124 C123 0.959 . S
H125 C123 0.960 . S
H126 C123 0.961 . S
O127 Co102 1.967 . S
O127 C135 1.258 . S
O128 Co103 1.941 . S
O128 C135 1.266 . S
H129 C131 0.959 . S
H130 C131 0.961 . S
C131 C121 1.510 . S
C131 H129 0.959 . S
C131 H130 0.961 . S
C131 H132 0.960 . S
H132 C131 0.960 . S
H133 N113 0.862 . S
O134 Co102 1.920 . S
O134 C107 1.289 . S
C135 O127 1.258 . S
C135 O128 1.266 . S
Co136 O139 1.970 . S
Co136 N153 1.989 . S
Co136 O161 1.967 . S
Co136 O168 1.920 . S
Co137 O140 1.966 . S
Co137 N146 2.022 . S
Co137 N154 1.993 . S
Co137 O162 1.941 . S
C138 O139 1.258 . S
C138 O140 1.263 . S
O139 Co136 1.970 . S
O139 C138 1.258 . S
O140 Co137 1.966 . S
O140 C138 1.263 . S
C141 O142 1.235 . S
C141 O168 1.289 . S
O142 C141 1.235 . S
C143 C145 1.400 . S
C143 N146 1.351 . S
C143 C148 1.501 . S
C144 C145 1.387 . S
C144 N147 1.341 . S
C145 C143 1.400 . S
C145 C144 1.387 . S
N146 Co137 2.022 . S
N146 C143 1.351 . S
N146 N147 1.365 . S
N147 C144 1.341 . S
N147 N146 1.365 . S
N147 H167 0.862 . S
C148 C143 1.501 . S
C148 H149 0.961 . S
C148 H150 0.961 . S
C148 H151 0.960 . S
H149 C148 0.961 . S
H150 C148 0.961 . S
H151 C148 0.960 . S
C152 N153 1.342 . S
C152 C156 1.401 . S
C152 C157 1.499 . S
N153 Co136 1.989 . S
N153 C152 1.342 . S
N153 N154 1.388 . S
N154 Co137 1.993 . S
N154 N153 1.388 . S
N154 C155 1.346 . S
C155 N154 1.346 . S
C155 C156 1.396 . S
C155 C165 1.510 . S
C156 C152 1.401 . S
C156 C155 1.396 . S
C157 C152 1.499 . S
C157 H158 0.959 . S
C157 H159 0.960 1_565 S
C157 H160 0.961 . S
H158 C157 0.959 . S
H159 C157 0.960 1_545 S
H160 C157 0.961 . S
O161 Co136 1.967 . S
O161 C169 1.258 . S
O162 Co137 1.941 . S
O162 C169 1.266 . S
H163 C165 0.959 . S
H164 C165 0.961 . S
C165 C155 1.510 . S
C165 H163 0.959 . S
C165 H164 0.961 . S
C165 H166 0.960 . S
H166 C165 0.960 . S
H167 N147 0.862 . S
O168 Co136 1.920 . S
O168 C141 1.289 . S
C169 O161 1.258 . S
C169 O162 1.266 . S
Co170 O173 1.970 . S
Co170 N187 1.989 . S
Co170 O195 1.967 . S
Co170 O202 1.920 . S
Co171 O174 1.966 . S
Co171 N180 2.022 . S
Co171 N188 1.993 . S
Co171 O196 1.941 . S
C172 O173 1.258 . S
C172 O174 1.263 . S
O173 Co170 1.970 . S
O173 C172 1.258 . S
O174 Co171 1.966 . S
O174 C172 1.263 . S
C175 O176 1.235 . S
C175 O202 1.289 . S
O176 C175 1.235 . S
C177 C179 1.400 . S
C177 N180 1.351 . S
C177 C182 1.501 . S
C178 C179 1.387 . S
C178 N181 1.341 . S
C179 C177 1.400 . S
C179 C178 1.387 . S
N180 Co171 2.022 . S
N180 C177 1.351 . S
N180 N181 1.365 . S
N181 C178 1.341 . S
N181 N180 1.365 . S
N181 H201 0.862 . S
C182 C177 1.501 . S
C182 H183 0.961 . S
C182 H184 0.961 . S
C182 H185 0.960 . S
H183 C182 0.961 . S
H184 C182 0.961 . S
H185 C182 0.960 . S
C186 N187 1.342 . S
C186 C190 1.401 . S
C186 C191 1.499 . S
N187 Co170 1.989 . S
N187 C186 1.342 . S
N187 N188 1.388 . S
N188 Co171 1.993 . S
N188 N187 1.388 . S
N188 C189 1.346 . S
C189 N188 1.346 . S
C189 C190 1.396 . S
C189 C199 1.510 . S
C190 C186 1.401 . S
C190 C189 1.396 . S
C191 C186 1.499 . S
C191 H192 0.959 . S
C191 H193 0.960 1_455 S
C191 H194 0.961 . S
H192 C191 0.959 . S
H193 C191 0.960 1_655 S
H194 C191 0.961 . S
O195 Co170 1.967 . S
O195 C203 1.258 . S
O196 Co171 1.941 . S
O196 C203 1.266 . S
H197 C199 0.959 . S
H198 C199 0.961 . S
C199 C189 1.510 . S
C199 H197 0.959 . S
C199 H198 0.961 . S
C199 H200 0.960 . S
H200 C199 0.960 . S
H201 N181 0.862 . S
O202 Co170 1.920 . S
O202 C175 1.289 . S
C203 O195 1.258 . S
C203 O196 1.266 . S
H204 C222 0.951 . S
H205 C224 0.951 . S
H206 C226 0.950 . S
H207 C227 0.950 . S
H208 C229 0.950 . S
H209 C232 0.950 . S
H210 C233 0.950 . S
H211 C235 0.950 . S
H212 C236 0.950 . S
H213 C237 0.951 . S
H214 C239 0.951 . S
H215 C241 0.950 . S
H216 C242 0.950 . S
H217 C244 0.950 . S
H218 C247 0.950 . S
H219 C248 0.950 . S
H220 C250 0.950 . S
H221 C251 0.950 . S
C222 H204 0.951 . S
C222 C223 1.366 . S
C222 C224 1.388 . S
C223 C222 1.366 . S
C223 C227 1.385 . S
C224 H205 0.951 . S
C224 C222 1.388 . S
C224 C225 1.366 . S
C225 C224 1.366 . S
C225 C226 1.414 . S
C225 C228 1.499 . S
C226 H206 0.950 . S
C226 C225 1.414 . S
C226 C227 1.374 . S
C227 H207 0.950 . S
C227 C223 1.385 . S
C227 C226 1.374 . S
C228 C225 1.499 . S
C228 C229 1.373 . S
C228 C230 1.389 . S
C229 H208 0.950 . S
C229 C228 1.373 . S
C229 C245 1.377 1_545 S
C230 C228 1.389 . S
C230 C231 1.524 . S
C230 C244 1.377 1_545 S
C231 C230 1.524 . S
C231 C232 1.397 . S
C231 C236 1.363 . S
C232 H209 0.950 . S
C232 C231 1.397 . S
C232 C233 1.334 . S
C233 H210 0.950 . S
C233 C232 1.334 . S
C233 C234 1.287 . S
C234 C233 1.287 . S
C234 C235 1.524 . S
C234 H253 0.913 . S
C235 H211 0.950 . S
C235 C234 1.524 . S
C235 C236 1.415 . S
C236 H212 0.950 . S
C236 C231 1.363 . S
C236 C235 1.415 . S
C237 H213 0.951 . S
C237 C238 1.366 . S
C237 C239 1.388 . S
C238 C237 1.366 . S
C238 C242 1.385 . S
C239 H214 0.951 . S
C239 C237 1.388 . S
C239 C240 1.366 . S
C240 C239 1.366 . S
C240 C241 1.414 . S
C240 C243 1.499 . S
C241 H215 0.950 . S
C241 C240 1.414 . S
C241 C242 1.374 . S
C242 H216 0.950 . S
C242 C238 1.385 . S
C242 C241 1.374 . S
C243 C240 1.499 . S
C243 C244 1.373 . S
C243 C245 1.389 . S
C244 H217 0.950 . S
C244 C230 1.377 1_565 S
C244 C243 1.373 . S
C245 C229 1.377 1_565 S
C245 C243 1.389 . S
C245 C246 1.524 . S
C246 C245 1.524 . S
C246 C247 1.397 . S
C246 C251 1.363 . S
C247 H218 0.950 . S
C247 C246 1.397 . S
C247 C248 1.334 . S
C248 H219 0.950 . S
C248 C247 1.334 . S
C248 C249 1.287 . S
C249 C248 1.287 . S
C249 C250 1.524 . S
C249 H252 0.999 . S
C250 H220 0.950 . S
C250 C249 1.524 . S
C250 C251 1.415 . S
C251 H221 0.950 . S
C251 C246 1.363 . S
C251 C250 1.415 . S
H252 C249 0.999 . S
H253 C234 0.913 . S
H254 C272 0.951 . S
H255 C274 0.951 . S
H256 C276 0.950 . S
H257 C277 0.950 . S
H258 C279 0.950 . S
H259 C282 0.950 . S
H260 C283 0.950 . S
H261 C285 0.950 . S
H262 C286 0.950 . S
H263 C287 0.951 . S
H264 C289 0.951 . S
H265 C291 0.950 . S
H266 C292 0.950 . S
H267 C294 0.950 . S
H268 C297 0.950 . S
H269 C298 0.950 . S
H270 C300 0.950 . S
H271 C301 0.950 . S
C272 H254 0.951 . S
C272 C273 1.366 . S
C272 C274 1.388 . S
C273 C272 1.366 . S
C273 C277 1.385 . S
C274 H255 0.951 . S
C274 C272 1.388 . S
C274 C275 1.366 . S
C275 C274 1.366 . S
C275 C276 1.414 . S
C275 C278 1.499 . S
C276 H256 0.950 . S
C276 C275 1.414 . S
C276 C277 1.374 . S
C277 H257 0.950 . S
C277 C273 1.385 . S
C277 C276 1.374 . S
C278 C275 1.499 . S
C278 C279 1.373 . S
C278 C280 1.389 . S
C279 H258 0.950 . S
C279 C278 1.373 . S
C279 C295 1.377 1_455 S
C280 C278 1.389 . S
C280 C281 1.524 . S
C280 C294 1.377 1_455 S
C281 C280 1.524 . S
C281 C282 1.397 . S
C281 C286 1.363 . S
C282 H259 0.950 . S
C282 C281 1.397 . S
C282 C283 1.334 . S
C283 H260 0.950 . S
C283 C282 1.334 . S
C283 C284 1.287 . S
C284 C283 1.287 . S
C284 C285 1.524 . S
C284 H303 0.913 . S
C285 H261 0.950 . S
C285 C284 1.524 . S
C285 C286 1.415 . S
C286 H262 0.950 . S
C286 C281 1.363 . S
C286 C285 1.415 . S
C287 H263 0.951 . S
C287 C288 1.366 . S
C287 C289 1.388 . S
C288 C287 1.366 . S
C288 C292 1.385 . S
C289 H264 0.951 . S
C289 C287 1.388 . S
C289 C290 1.366 . S
C290 C289 1.366 . S
C290 C291 1.414 . S
C290 C293 1.499 . S
C291 H265 0.950 . S
C291 C290 1.414 . S
C291 C292 1.374 . S
C292 H266 0.950 . S
C292 C288 1.385 . S
C292 C291 1.374 . S
C293 C290 1.499 . S
C293 C294 1.373 . S
C293 C295 1.389 . S
C294 H267 0.950 . S
C294 C280 1.377 1_655 S
C294 C293 1.373 . S
C295 C279 1.377 1_655 S
C295 C293 1.389 . S
C295 C296 1.524 . S
C296 C295 1.524 . S
C296 C297 1.397 . S
C296 C301 1.363 . S
C297 H268 0.950 . S
C297 C296 1.397 . S
C297 C298 1.334 . S
C298 H269 0.950 . S
C298 C297 1.334 . S
C298 C299 1.287 . S
C299 C298 1.287 . S
C299 C300 1.524 . S
C299 H302 0.999 . S
C300 H270 0.950 . S
C300 C299 1.524 . S
C300 C301 1.415 . S
C301 H271 0.950 . S
C301 C296 1.363 . S
C301 C300 1.415 . S
H302 C299 0.999 . S
H303 C284 0.913 . S
H304 C322 0.951 . S
H305 C324 0.951 . S
H306 C326 0.950 . S
H307 C327 0.950 . S
H308 C329 0.950 . S
H309 C332 0.950 . S
H310 C333 0.950 . S
H311 C335 0.950 . S
H312 C336 0.950 . S
H313 C337 0.951 . S
H314 C339 0.951 . S
H315 C341 0.950 . S
H316 C342 0.950 . S
H317 C344 0.950 . S
H318 C347 0.950 . S
H319 C348 0.950 . S
H320 C350 0.950 . S
H321 C351 0.950 . S
C322 H304 0.951 . S
C322 C323 1.366 . S
C322 C324 1.388 . S
C323 C322 1.366 . S
C323 C327 1.385 . S
C324 H305 0.951 . S
C324 C322 1.388 . S
C324 C325 1.366 . S
C325 C324 1.366 . S
C325 C326 1.414 . S
C325 C328 1.499 . S
C326 H306 0.950 . S
C326 C325 1.414 . S
C326 C327 1.374 . S
C327 H307 0.950 . S
C327 C323 1.385 . S
C327 C326 1.374 . S
C328 C325 1.499 . S
C328 C329 1.373 . S
C328 C330 1.389 . S
C329 H308 0.950 . S
C329 C328 1.373 . S
C329 C345 1.377 . S
C330 C328 1.389 . S
C330 C331 1.524 . S
C330 C344 1.377 . S
C331 C330 1.524 . S
C331 C332 1.397 . S
C331 C336 1.363 . S
C332 H309 0.950 . S
C332 C331 1.397 . S
C332 C333 1.334 . S
C333 H310 0.950 . S
C333 C332 1.334 . S
C333 C334 1.287 . S
C334 C333 1.287 . S
C334 C335 1.524 . S
C334 H353 0.913 . S
C335 H311 0.950 . S
C335 C334 1.524 . S
C335 C336 1.415 . S
C336 H312 0.950 . S
C336 C331 1.363 . S
C336 C335 1.415 . S
C337 H313 0.951 . S
C337 C338 1.366 . S
C337 C339 1.388 . S
C338 C337 1.366 . S
C338 C342 1.385 . S
C339 H314 0.951 . S
C339 C337 1.388 . S
C339 C340 1.366 . S
C340 C339 1.366 . S
C340 C341 1.414 . S
C340 C343 1.499 . S
C341 H315 0.950 . S
C341 C340 1.414 . S
C341 C342 1.374 . S
C342 H316 0.950 . S
C342 C338 1.385 . S
C342 C341 1.374 . S
C343 C340 1.499 . S
C343 C344 1.373 . S
C343 C345 1.389 . S
C344 H317 0.950 . S
C344 C330 1.377 . S
C344 C343 1.373 . S
C345 C329 1.377 . S
C345 C343 1.389 . S
C345 C346 1.524 . S
C346 C345 1.524 . S
C346 C347 1.397 . S
C346 C351 1.363 . S
C347 H318 0.950 . S
C347 C346 1.397 . S
C347 C348 1.334 . S
C348 H319 0.950 . S
C348 C347 1.334 . S
C348 C349 1.287 . S
C349 C348 1.287 . S
C349 C350 1.524 . S
C349 H352 0.999 . S
C350 H320 0.950 . S
C350 C349 1.524 . S
C350 C351 1.415 . S
C351 H321 0.950 . S
C351 C346 1.363 . S
C351 C350 1.415 . S
H352 C349 0.999 . S
H353 C334 0.913 . S
H354 C372 0.951 . S
H355 C374 0.951 . S
H356 C376 0.950 . S
H357 C377 0.950 . S
H358 C379 0.950 . S
H359 C382 0.950 . S
H360 C383 0.950 . S
H361 C385 0.950 . S
H362 C386 0.950 . S
H363 C387 0.951 . S
H364 C389 0.951 . S
H365 C391 0.950 . S
H366 C392 0.950 . S
H367 C394 0.950 . S
H368 C397 0.950 . S
H369 C398 0.950 . S
H370 C400 0.950 . S
H371 C401 0.950 . S
C372 H354 0.951 . S
C372 C373 1.366 . S
C372 C374 1.388 . S
C373 C372 1.366 . S
C373 C377 1.385 . S
C374 H355 0.951 . S
C374 C372 1.388 . S
C374 C375 1.366 . S
C375 C374 1.366 . S
C375 C376 1.414 . S
C375 C378 1.499 . S
C376 H356 0.950 . S
C376 C375 1.414 . S
C376 C377 1.374 . S
C377 H357 0.950 . S
C377 C373 1.385 . S
C377 C376 1.374 . S
C378 C375 1.499 . S
C378 C379 1.373 . S
C378 C380 1.389 . S
C379 H358 0.950 . S
C379 C378 1.373 . S
C379 C395 1.377 . S
C380 C378 1.389 . S
C380 C381 1.524 . S
C380 C394 1.377 . S
C381 C380 1.524 . S
C381 C382 1.397 . S
C381 C386 1.363 . S
C382 H359 0.950 . S
C382 C381 1.397 . S
C382 C383 1.334 . S
C383 H360 0.950 . S
C383 C382 1.334 . S
C383 C384 1.287 . S
C384 C383 1.287 . S
C384 C385 1.524 . S
C384 H403 0.913 . S
C385 H361 0.950 . S
C385 C384 1.524 . S
C385 C386 1.415 . S
C386 H362 0.950 . S
C386 C381 1.363 . S
C386 C385 1.415 . S
C387 H363 0.951 . S
C387 C388 1.366 . S
C387 C389 1.388 . S
C388 C387 1.366 . S
C388 C392 1.385 . S
C389 H364 0.951 . S
C389 C387 1.388 . S
C389 C390 1.366 . S
C390 C389 1.366 . S
C390 C391 1.414 . S
C390 C393 1.499 . S
C391 H365 0.950 . S
C391 C390 1.414 . S
C391 C392 1.374 . S
C392 H366 0.950 . S
C392 C388 1.385 . S
C392 C391 1.374 . S
C393 C390 1.499 . S
C393 C394 1.373 . S
C393 C395 1.389 . S
C394 H367 0.950 . S
C394 C380 1.377 . S
C394 C393 1.373 . S
C395 C379 1.377 . S
C395 C393 1.389 . S
C395 C396 1.524 . S
C396 C395 1.524 . S
C396 C397 1.397 . S
C396 C401 1.363 . S
C397 H368 0.950 . S
C397 C396 1.397 . S
C397 C398 1.334 . S
C398 H369 0.950 . S
C398 C397 1.334 . S
C398 C399 1.287 . S
C399 C398 1.287 . S
C399 C400 1.524 . S
C399 H402 0.999 . S
C400 H370 0.950 . S
C400 C399 1.524 . S
C400 C401 1.415 . S
C401 H371 0.950 . S
C401 C396 1.363 . S
C401 C400 1.415 . S
H402 C399 0.999 . S
H403 C384 0.913 . S
H404 C422 0.951 . S
H405 C424 0.951 . S
H406 C426 0.950 . S
H407 C427 0.950 . S
H408 C429 0.950 . S
H409 C432 0.950 . S
H410 C433 0.950 . S
H411 C435 0.950 . S
H412 C436 0.950 . S
H413 C437 0.951 . S
H414 C439 0.951 . S
H415 C441 0.950 . S
H416 C442 0.950 1_545 S
H417 C444 0.950 . S
H418 C447 0.950 . S
H419 C448 0.950 . S
H420 C450 0.950 . S
H421 C451 0.950 . S
C422 H404 0.951 . S
C422 C423 1.366 . S
C422 C424 1.388 . S
C423 C422 1.366 . S
C423 C427 1.385 . S
C424 H405 0.951 . S
C424 C422 1.388 . S
C424 C425 1.366 . S
C425 C424 1.366 . S
C425 C426 1.414 . S
C425 C428 1.499 . S
C426 H406 0.950 . S
C426 C425 1.414 . S
C426 C427 1.374 . S
C427 H407 0.950 . S
C427 C423 1.385 . S
C427 C426 1.374 . S
C428 C425 1.499 . S
C428 C429 1.373 . S
C428 C430 1.389 . S
C429 H408 0.950 . S
C429 C428 1.373 . S
C429 C445 1.377 . S
C430 C428 1.389 . S
C430 C431 1.524 . S
C430 C444 1.377 . S
C431 C430 1.524 . S
C431 C432 1.397 . S
C431 C436 1.363 . S
C432 H409 0.950 . S
C432 C431 1.397 . S
C432 C433 1.334 . S
C433 H410 0.950 . S
C433 C432 1.334 . S
C433 C434 1.287 . S
C434 C433 1.287 . S
C434 C435 1.524 . S
C434 H453 0.913 . S
C435 H411 0.950 . S
C435 C434 1.524 . S
C435 C436 1.415 . S
C436 H412 0.950 . S
C436 C431 1.363 . S
C436 C435 1.415 . S
C437 H413 0.951 . S
C437 C438 1.366 . S
C437 C439 1.388 . S
C438 C437 1.366 . S
C438 C442 1.385 . S
C439 H414 0.951 . S
C439 C437 1.388 . S
C439 C440 1.366 . S
C440 C439 1.366 . S
C440 C441 1.414 . S
C440 C443 1.499 . S
C441 H415 0.950 . S
C441 C440 1.414 . S
C441 C442 1.374 . S
C442 H416 0.950 1_565 S
C442 C438 1.385 . S
C442 C441 1.374 . S
C443 C440 1.499 . S
C443 C444 1.373 . S
C443 C445 1.389 . S
C444 H417 0.950 . S
C444 C430 1.377 . S
C444 C443 1.373 . S
C445 C429 1.377 . S
C445 C443 1.389 . S
C445 C446 1.524 . S
C446 C445 1.524 . S
C446 C447 1.397 . S
C446 C451 1.363 . S
C447 H418 0.950 . S
C447 C446 1.397 . S
C447 C448 1.334 . S
C448 H419 0.950 . S
C448 C447 1.334 . S
C448 C449 1.287 . S
C449 C448 1.287 . S
C449 C450 1.524 . S
C449 H452 0.999 . S
C450 H420 0.950 . S
C450 C449 1.524 . S
C450 C451 1.415 . S
C451 H421 0.950 . S
C451 C446 1.363 . S
C451 C450 1.415 . S
H452 C449 0.999 . S
H453 C434 0.913 . S
H454 C472 0.951 . S
H455 C474 0.951 . S
H456 C476 0.950 . S
H457 C477 0.950 . S
H458 C479 0.950 . S
H459 C482 0.950 . S
H460 C483 0.950 . S
H461 C485 0.950 . S
H462 C486 0.950 . S
H463 C487 0.951 . S
H464 C489 0.951 . S
H465 C491 0.950 . S
H466 C492 0.950 . S
H467 C494 0.950 . S
H468 C497 0.950 . S
H469 C498 0.950 . S
H470 C500 0.950 . S
H471 C501 0.950 . S
C472 H454 0.951 . S
C472 C473 1.366 . S
C472 C474 1.388 . S
C473 C472 1.366 . S
C473 C477 1.385 . S
C474 H455 0.951 . S
C474 C472 1.388 . S
C474 C475 1.366 . S
C475 C474 1.366 . S
C475 C476 1.414 . S
C475 C478 1.499 . S
C476 H456 0.950 . S
C476 C475 1.414 . S
C476 C477 1.374 . S
C477 H457 0.950 . S
C477 C473 1.385 . S
C477 C476 1.374 . S
C478 C475 1.499 . S
C478 C479 1.373 . S
C478 C480 1.389 . S
C479 H458 0.950 . S
C479 C478 1.373 . S
C479 C495 1.377 . S
C480 C478 1.389 . S
C480 C481 1.524 . S
C480 C494 1.377 . S
C481 C480 1.524 . S
C481 C482 1.397 . S
C481 C486 1.363 . S
C482 H459 0.950 . S
C482 C481 1.397 . S
C482 C483 1.334 . S
C483 H460 0.950 . S
C483 C482 1.334 . S
C483 C484 1.287 . S
C484 C483 1.287 . S
C484 C485 1.524 . S
C484 H503 0.913 . S
C485 H461 0.950 . S
C485 C484 1.524 . S
C485 C486 1.415 . S
C486 H462 0.950 . S
C486 C481 1.363 . S
C486 C485 1.415 . S
C487 H463 0.951 . S
C487 C488 1.366 . S
C487 C489 1.388 . S
C488 C487 1.366 . S
C488 C492 1.385 . S
C489 H464 0.951 . S
C489 C487 1.388 . S
C489 C490 1.366 . S
C490 C489 1.366 . S
C490 C491 1.414 . S
C490 C493 1.499 . S
C491 H465 0.950 . S
C491 C490 1.414 . S
C491 C492 1.374 . S
C492 H466 0.950 . S
C492 C488 1.385 . S
C492 C491 1.374 . S
C493 C490 1.499 . S
C493 C494 1.373 . S
C493 C495 1.389 . S
C494 H467 0.950 . S
C494 C480 1.377 . S
C494 C493 1.373 . S
C495 C479 1.377 . S
C495 C493 1.389 . S
C495 C496 1.524 . S
C496 C495 1.524 . S
C496 C497 1.397 . S
C496 C501 1.363 . S
C497 H468 0.950 . S
C497 C496 1.397 . S
C497 C498 1.334 . S
C498 H469 0.950 . S
C498 C497 1.334 . S
C498 C499 1.287 . S
C499 C498 1.287 . S
C499 C500 1.524 . S
C499 H502 0.999 . S
C500 H470 0.950 . S
C500 C499 1.524 . S
C500 C501 1.415 . S
C501 H471 0.950 . S
C501 C496 1.363 . S
C501 C500 1.415 . S
H502 C499 0.999 . S
H503 C484 0.913 . S
H504 C522 0.951 . S
H505 C524 0.951 . S
H506 C526 0.950 . S
H507 C527 0.950 . S
H508 C529 0.950 . S
H509 C532 0.950 . S
H510 C533 0.950 . S
H511 C535 0.950 . S
H512 C536 0.950 . S
H513 C537 0.951 . S
H514 C539 0.951 . S
H515 C541 0.950 . S
H516 C542 0.950 . S
H517 C544 0.950 . S
H518 C547 0.950 . S
H519 C548 0.950 . S
H520 C550 0.950 . S
H521 C551 0.950 . S
C522 H504 0.951 . S
C522 C523 1.366 . S
C522 C524 1.388 . S
C523 C522 1.366 . S
C523 C527 1.385 . S
C524 H505 0.951 . S
C524 C522 1.388 . S
C524 C525 1.366 . S
C525 C524 1.366 . S
C525 C526 1.414 . S
C525 C528 1.499 . S
C526 H506 0.950 . S
C526 C525 1.414 . S
C526 C527 1.374 . S
C527 H507 0.950 . S
C527 C523 1.385 . S
C527 C526 1.374 . S
C528 C525 1.499 . S
C528 C529 1.373 . S
C528 C530 1.389 . S
C529 H508 0.950 . S
C529 C528 1.373 . S
C529 C545 1.377 . S
C530 C528 1.389 . S
C530 C531 1.524 . S
C530 C544 1.377 . S
C531 C530 1.524 . S
C531 C532 1.397 . S
C531 C536 1.363 . S
C532 H509 0.950 . S
C532 C531 1.397 . S
C532 C533 1.334 . S
C533 H510 0.950 . S
C533 C532 1.334 . S
C533 C534 1.287 . S
C534 C533 1.287 . S
C534 C535 1.524 . S
C534 H553 0.913 . S
C535 H511 0.950 . S
C535 C534 1.524 . S
C535 C536 1.415 . S
C536 H512 0.950 . S
C536 C531 1.363 . S
C536 C535 1.415 . S
C537 H513 0.951 . S
C537 C538 1.366 . S
C537 C539 1.388 . S
C538 C537 1.366 . S
C538 C542 1.385 . S
C539 H514 0.951 . S
C539 C537 1.388 . S
C539 C540 1.366 . S
C540 C539 1.366 . S
C540 C541 1.414 . S
C540 C543 1.499 . S
C541 H515 0.950 . S
C541 C540 1.414 . S
C541 C542 1.374 . S
C542 H516 0.950 . S
C542 C538 1.385 . S
C542 C541 1.374 . S
C543 C540 1.499 . S
C543 C544 1.373 . S
C543 C545 1.389 . S
C544 H517 0.950 . S
C544 C530 1.377 . S
C544 C543 1.373 . S
C545 C529 1.377 . S
C545 C543 1.389 . S
C545 C546 1.524 . S
C546 C545 1.524 . S
C546 C547 1.397 . S
C546 C551 1.363 . S
C547 H518 0.950 . S
C547 C546 1.397 . S
C547 C548 1.334 . S
C548 H519 0.950 . S
C548 C547 1.334 . S
C548 C549 1.287 . S
C549 C548 1.287 . S
C549 C550 1.524 . S
C549 H552 0.999 . S
C550 H520 0.950 . S
C550 C549 1.524 . S
C550 C551 1.415 . S
C551 H521 0.950 . S
C551 C546 1.363 . S
C551 C550 1.415 . S
H552 C549 0.999 . S
H553 C534 0.913 . S
H554 C572 0.951 . S
H555 C574 0.951 . S
H556 C576 0.950 . S
H557 C577 0.950 . S
H558 C579 0.950 . S
H559 C582 0.950 . S
H560 C583 0.950 . S
H561 C585 0.950 . S
H562 C586 0.950 . S
H563 C587 0.951 1_565 S
H564 C589 0.951 . S
H565 C591 0.950 . S
H566 C592 0.950 . S
H567 C594 0.950 . S
H568 C597 0.950 . S
H569 C598 0.950 . S
H570 C600 0.950 . S
H571 C601 0.950 . S
C572 H554 0.951 . S
C572 C573 1.366 . S
C572 C574 1.388 . S
C573 C572 1.366 . S
C573 C577 1.385 . S
C574 H555 0.951 . S
C574 C572 1.388 . S
C574 C575 1.366 . S
C575 C574 1.366 . S
C575 C576 1.414 . S
C575 C578 1.499 . S
C576 H556 0.950 . S
C576 C575 1.414 . S
C576 C577 1.374 . S
C577 H557 0.950 . S
C577 C573 1.385 . S
C577 C576 1.374 . S
C578 C575 1.499 . S
C578 C579 1.373 . S
C578 C580 1.389 . S
C579 H558 0.950 . S
C579 C578 1.373 . S
C579 C595 1.377 . S
C580 C578 1.389 . S
C580 C581 1.524 . S
C580 C594 1.377 . S
C581 C580 1.524 . S
C581 C582 1.397 . S
C581 C586 1.363 . S
C582 H559 0.950 . S
C582 C581 1.397 . S
C582 C583 1.334 . S
C583 H560 0.950 . S
C583 C582 1.334 . S
C583 C584 1.287 . S
C584 C583 1.287 . S
C584 C585 1.524 . S
C584 H603 0.913 . S
C585 H561 0.950 . S
C585 C584 1.524 . S
C585 C586 1.415 . S
C586 H562 0.950 . S
C586 C581 1.363 . S
C586 C585 1.415 . S
C587 H563 0.951 1_545 S
C587 C588 1.366 . S
C587 C589 1.388 . S
C588 C587 1.366 . S
C588 C592 1.385 . S
C589 H564 0.951 . S
C589 C587 1.388 . S
C589 C590 1.366 . S
C590 C589 1.366 . S
C590 C591 1.414 . S
C590 C593 1.499 . S
C591 H565 0.950 . S
C591 C590 1.414 . S
C591 C592 1.374 . S
C592 H566 0.950 . S
C592 C588 1.385 . S
C592 C591 1.374 . S
C593 C590 1.499 . S
C593 C594 1.373 . S
C593 C595 1.389 . S
C594 H567 0.950 . S
C594 C580 1.377 . S
C594 C593 1.373 . S
C595 C579 1.377 . S
C595 C593 1.389 . S
C595 C596 1.524 . S
C596 C595 1.524 . S
C596 C597 1.397 . S
C596 C601 1.363 . S
C597 H568 0.950 . S
C597 C596 1.397 . S
C597 C598 1.334 . S
C598 H569 0.950 . S
C598 C597 1.334 . S
C598 C599 1.287 . S
C599 C598 1.287 . S
C599 C600 1.524 . S
C599 H602 0.999 . S
C600 H570 0.950 . S
C600 C599 1.524 . S
C600 C601 1.415 . S
C601 H571 0.950 . S
C601 C596 1.363 . S
C601 C600 1.415 . S
H602 C599 0.999 . S
H603 C584 0.913 . S
H604 C622 0.951 . S
H605 C624 0.951 . S
H606 C626 0.950 . S
H607 C627 0.950 1_455 S
H608 C629 0.950 . S
H609 C632 0.950 . S
H610 C633 0.950 . S
H611 C635 0.950 . S
H612 C636 0.950 . S
H613 C637 0.951 . S
H614 C639 0.951 . S
H615 C641 0.950 . S
H616 C642 0.950 . S
H617 C644 0.950 . S
H618 C647 0.950 . S
H619 C648 0.950 . S
H620 C650 0.950 . S
H621 C651 0.950 . S
C622 H604 0.951 . S
C622 C623 1.366 . S
C622 C624 1.388 . S
C623 C622 1.366 . S
C623 C627 1.385 . S
C624 H605 0.951 . S
C624 C622 1.388 . S
C624 C625 1.366 . S
C625 C624 1.366 . S
C625 C626 1.414 . S
C625 C628 1.499 . S
C626 H606 0.950 . S
C626 C625 1.414 . S
C626 C627 1.374 . S
C627 H607 0.950 1_655 S
C627 C623 1.385 . S
C627 C626 1.374 . S
C628 C625 1.499 . S
C628 C629 1.373 . S
C628 C630 1.389 . S
C629 H608 0.950 . S
C629 C628 1.373 . S
C629 C645 1.377 . S
C630 C628 1.389 . S
C630 C631 1.524 . S
C630 C644 1.377 . S
C631 C630 1.524 . S
C631 C632 1.397 . S
C631 C636 1.363 . S
C632 H609 0.950 . S
C632 C631 1.397 . S
C632 C633 1.334 . S
C633 H610 0.950 . S
C633 C632 1.334 . S
C633 C634 1.287 . S
C634 C633 1.287 . S
C634 C635 1.524 . S
C634 H653 0.913 . S
C635 H611 0.950 . S
C635 C634 1.524 . S
C635 C636 1.415 . S
C636 H612 0.950 . S
C636 C631 1.363 . S
C636 C635 1.415 . S
C637 H613 0.951 . S
C637 C638 1.366 . S
C637 C639 1.388 . S
C638 C637 1.366 . S
C638 C642 1.385 . S
C639 H614 0.951 . S
C639 C637 1.388 . S
C639 C640 1.366 . S
C640 C639 1.366 . S
C640 C641 1.414 . S
C640 C643 1.499 . S
C641 H615 0.950 . S
C641 C640 1.414 . S
C641 C642 1.374 . S
C642 H616 0.950 . S
C642 C638 1.385 . S
C642 C641 1.374 . S
C643 C640 1.499 . S
C643 C644 1.373 . S
C643 C645 1.389 . S
C644 H617 0.950 . S
C644 C630 1.377 . S
C644 C643 1.373 . S
C645 C629 1.377 . S
C645 C643 1.389 . S
C645 C646 1.524 . S
C646 C645 1.524 . S
C646 C647 1.397 . S
C646 C651 1.363 . S
C647 H618 0.950 . S
C647 C646 1.397 . S
C647 C648 1.334 . S
C648 H619 0.950 . S
C648 C647 1.334 . S
C648 C649 1.287 . S
C649 C648 1.287 . S
C649 C650 1.524 . S
C649 H652 0.999 . S
C650 H620 0.950 . S
C650 C649 1.524 . S
C650 C651 1.415 . S
C651 H621 0.950 . S
C651 C646 1.363 . S
C651 C650 1.415 . S
H652 C649 0.999 . S
H653 C634 0.913 . S
H654 C672 0.951 1_545 S
H655 C674 0.951 . S
H656 C676 0.950 . S
H657 C677 0.950 . S
H658 C679 0.950 1_565 S
H659 C682 0.950 . S
H660 C683 0.950 . S
H661 C685 0.950 . S
H662 C686 0.950 . S
H663 C687 0.951 . S
H664 C689 0.951 . S
H665 C691 0.950 . S
H666 C692 0.950 . S
H667 C694 0.950 . S
H668 C697 0.950 . S
H669 C698 0.950 . S
H670 C700 0.950 . S
H671 C701 0.950 . S
C672 H654 0.951 1_565 S
C672 C673 1.366 . S
C672 C674 1.388 1_565 S
C673 C672 1.366 . S
C673 C677 1.385 . S
C674 H655 0.951 . S
C674 C672 1.388 1_545 S
C674 C675 1.366 1_545 S
C675 C674 1.366 1_565 S
C675 C676 1.414 . S
C675 C678 1.499 1_565 S
C676 H656 0.950 . S
C676 C675 1.414 . S
C676 C677 1.374 . S
C677 H657 0.950 . S
C677 C673 1.385 . S
C677 C676 1.374 . S
C678 C675 1.499 1_545 S
C678 C679 1.373 . S
C678 C680 1.389 . S
C679 H658 0.950 1_545 S
C679 C678 1.373 . S
C679 C695 1.377 . S
C680 C678 1.389 . S
C680 C681 1.524 . S
C680 C694 1.377 . S
C681 C680 1.524 . S
C681 C682 1.397 . S
C681 C686 1.363 . S
C682 H659 0.950 . S
C682 C681 1.397 . S
C682 C683 1.334 . S
C683 H660 0.950 . S
C683 C682 1.334 . S
C683 C684 1.287 . S
C684 C683 1.287 . S
C684 C685 1.524 . S
C684 H703 0.913 . S
C685 H661 0.950 . S
C685 C684 1.524 . S
C685 C686 1.415 . S
C686 H662 0.950 . S
C686 C681 1.363 . S
C686 C685 1.415 . S
C687 H663 0.951 . S
C687 C688 1.366 . S
C687 C689 1.388 . S
C688 C687 1.366 . S
C688 C692 1.385 . S
C689 H664 0.951 . S
C689 C687 1.388 . S
C689 C690 1.366 . S
C690 C689 1.366 . S
C690 C691 1.414 . S
C690 C693 1.499 . S
C691 H665 0.950 . S
C691 C690 1.414 . S
C691 C692 1.374 . S
C692 H666 0.950 . S
C692 C688 1.385 . S
C692 C691 1.374 . S
C693 C690 1.499 . S
C693 C694 1.373 . S
C693 C695 1.389 . S
C694 H667 0.950 . S
C694 C680 1.377 . S
C694 C693 1.373 . S
C695 C679 1.377 . S
C695 C693 1.389 . S
C695 C696 1.524 . S
C696 C695 1.524 . S
C696 C697 1.397 . S
C696 C701 1.363 1_545 S
C697 H668 0.950 . S
C697 C696 1.397 . S
C697 C698 1.334 . S
C698 H669 0.950 . S
C698 C697 1.334 . S
C698 C699 1.287 . S
C699 C698 1.287 . S
C699 C700 1.524 1_545 S
C699 H702 0.999 . S
C700 H670 0.950 . S
C700 C699 1.524 1_565 S
C700 C701 1.415 . S
C701 H671 0.950 . S
C701 C696 1.363 1_565 S
C701 C700 1.415 . S
H702 C699 0.999 . S
H703 C684 0.913 . S
H704 C722 0.951 . S
H705 C724 0.951 . S
H706 C726 0.950 . S
H707 C727 0.950 . S
H708 C729 0.950 . S
H709 C732 0.950 . S
H710 C733 0.950 . S
H711 C735 0.950 . S
H712 C736 0.950 . S
H713 C737 0.951 . S
H714 C739 0.951 . S
H715 C741 0.950 . S
H716 C742 0.950 . S
H717 C744 0.950 . S
H718 C747 0.950 . S
H719 C748 0.950 . S
H720 C750 0.950 . S
H721 C751 0.950 . S
C722 H704 0.951 . S
C722 C723 1.366 . S
C722 C724 1.388 . S
C723 C722 1.366 . S
C723 C727 1.385 . S
C724 H705 0.951 . S
C724 C722 1.388 . S
C724 C725 1.366 . S
C725 C724 1.366 . S
C725 C726 1.414 . S
C725 C728 1.499 . S
C726 H706 0.950 . S
C726 C725 1.414 . S
C726 C727 1.374 . S
C727 H707 0.950 . S
C727 C723 1.385 . S
C727 C726 1.374 . S
C728 C725 1.499 . S
C728 C729 1.373 . S
C728 C730 1.389 1_556 S
C729 H708 0.950 . S
C729 C728 1.373 . S
C729 C745 1.377 1_556 S
C730 C728 1.389 1_554 S
C730 C731 1.524 . S
C730 C744 1.377 . S
C731 C730 1.524 . S
C731 C732 1.397 1_554 S
C731 C736 1.363 . S
C732 H709 0.950 . S
C732 C731 1.397 1_556 S
C732 C733 1.334 . S
C733 H710 0.950 . S
C733 C732 1.334 . S
C733 C734 1.287 1_556 S
C734 C733 1.287 1_554 S
C734 C735 1.524 . S
C734 H753 0.913 . S
C735 H711 0.950 . S
C735 C734 1.524 . S
C735 C736 1.415 . S
C736 H712 0.950 . S
C736 C731 1.363 . S
C736 C735 1.415 . S
C737 H713 0.951 . S
C737 C738 1.366 . S
C737 C739 1.388 . S
C738 C737 1.366 . S
C738 C742 1.385 . S
C739 H714 0.951 . S
C739 C737 1.388 . S
C739 C740 1.366 . S
C740 C739 1.366 . S
C740 C741 1.414 1_455 S
C740 C743 1.499 1_455 S
C741 H715 0.950 . S
C741 C740 1.414 1_655 S
C741 C742 1.374 1_655 S
C742 H716 0.950 . S
C742 C738 1.385 . S
C742 C741 1.374 1_455 S
C743 C740 1.499 1_655 S
C743 C744 1.373 . S
C743 C745 1.389 . S
C744 H717 0.950 . S
C744 C730 1.377 . S
C744 C743 1.373 . S
C745 C729 1.377 1_554 S
C745 C743 1.389 . S
C745 C746 1.524 1_655 S
C746 C745 1.524 1_455 S
C746 C747 1.397 . S
C746 C751 1.363 1_554 S
C747 H718 0.950 . S
C747 C746 1.397 . S
C747 C748 1.334 . S
C748 H719 0.950 . S
C748 C747 1.334 . S
C748 C749 1.287 . S
C749 C748 1.287 . S
C749 C750 1.524 1_554 S
C749 H752 0.999 . S
C750 H720 0.950 . S
C750 C749 1.524 1_556 S
C750 C751 1.415 . S
C751 H721 0.950 . S
C751 C746 1.363 1_556 S
C751 C750 1.415 . S
H752 C749 0.999 . S
H753 C734 0.913 . S
H754 C772 0.951 . S
H755 C774 0.951 . S
H756 C776 0.950 . S
H757 C777 0.950 . S
H758 C779 0.950 . S
H759 C782 0.950 . S
H760 C783 0.950 . S
H761 C785 0.950 . S
H762 C786 0.950 . S
H763 C787 0.951 . S
H764 C789 0.951 . S
H765 C791 0.950 . S
H766 C792 0.950 . S
H767 C794 0.950 . S
H768 C797 0.950 . S
H769 C798 0.950 . S
H770 C800 0.950 . S
H771 C801 0.950 . S
C772 H754 0.951 . S
C772 C773 1.366 . S
C772 C774 1.388 . S
C773 C772 1.366 . S
C773 C777 1.385 . S
C774 H755 0.951 . S
C774 C772 1.388 . S
C774 C775 1.366 . S
C775 C774 1.366 . S
C775 C776 1.414 . S
C775 C778 1.499 . S
C776 H756 0.950 . S
C776 C775 1.414 . S
C776 C777 1.374 . S
C777 H757 0.950 . S
C777 C773 1.385 . S
C777 C776 1.374 . S
C778 C775 1.499 . S
C778 C779 1.373 . S
C778 C780 1.389 . S
C779 H758 0.950 . S
C779 C778 1.373 . S
C779 C795 1.377 . S
C780 C778 1.389 . S
C780 C781 1.524 . S
C780 C794 1.377 . S
C781 C780 1.524 . S
C781 C782 1.397 . S
C781 C786 1.363 . S
C782 H759 0.950 . S
C782 C781 1.397 . S
C782 C783 1.334 . S
C783 H760 0.950 . S
C783 C782 1.334 . S
C783 C784 1.287 . S
C784 C783 1.287 . S
C784 C785 1.524 . S
C784 H803 0.913 . S
C785 H761 0.950 . S
C785 C784 1.524 . S
C785 C786 1.415 . S
C786 H762 0.950 . S
C786 C781 1.363 . S
C786 C785 1.415 . S
C787 H763 0.951 . S
C787 C788 1.366 . S
C787 C789 1.388 . S
C788 C787 1.366 . S
C788 C792 1.385 . S
C789 H764 0.951 . S
C789 C787 1.388 . S
C789 C790 1.366 . S
C790 C789 1.366 . S
C790 C791 1.414 . S
C790 C793 1.499 . S
C791 H765 0.950 . S
C791 C790 1.414 . S
C791 C792 1.374 . S
C792 H766 0.950 . S
C792 C788 1.385 . S
C792 C791 1.374 . S
C793 C790 1.499 . S
C793 C794 1.373 . S
C793 C795 1.389 . S
C794 H767 0.950 . S
C794 C780 1.377 . S
C794 C793 1.373 . S
C795 C779 1.377 . S
C795 C793 1.389 . S
C795 C796 1.524 . S
C796 C795 1.524 . S
C796 C797 1.397 . S
C796 C801 1.363 . S
C797 H768 0.950 . S
C797 C796 1.397 . S
C797 C798 1.334 . S
C798 H769 0.950 . S
C798 C797 1.334 . S
C798 C799 1.287 . S
C799 C798 1.287 . S
C799 C800 1.524 . S
C799 H802 0.999 . S
C800 H770 0.950 . S
C800 C799 1.524 . S
C800 C801 1.415 . S
C801 H771 0.950 . S
C801 C796 1.363 . S
C801 C800 1.415 . S
H802 C799 0.999 . S
H803 C784 0.913 . S
H804 C822 0.951 . S
H805 C824 0.951 . S
H806 C826 0.950 . S
H807 C827 0.950 . S
H808 C829 0.950 . S
H809 C832 0.950 . S
H810 C833 0.950 . S
H811 C835 0.950 . S
H812 C836 0.950 . S
H813 C837 0.951 . S
H814 C839 0.951 . S
H815 C841 0.950 . S
H816 C842 0.950 . S
H817 C844 0.950 . S
H818 C847 0.950 . S
H819 C848 0.950 . S
H820 C850 0.950 . S
H821 C851 0.950 . S
C822 H804 0.951 . S
C822 C823 1.366 . S
C822 C824 1.388 . S
C823 C822 1.366 . S
C823 C827 1.385 . S
C824 H805 0.951 . S
C824 C822 1.388 . S
C824 C825 1.366 . S
C825 C824 1.366 . S
C825 C826 1.414 . S
C825 C828 1.499 . S
C826 H806 0.950 . S
C826 C825 1.414 . S
C826 C827 1.374 . S
C827 H807 0.950 . S
C827 C823 1.385 . S
C827 C826 1.374 . S
C828 C825 1.499 . S
C828 C829 1.373 . S
C828 C830 1.389 . S
C829 H808 0.950 . S
C829 C828 1.373 . S
C829 C845 1.377 . S
C830 C828 1.389 . S
C830 C831 1.524 . S
C830 C844 1.377 . S
C831 C830 1.524 . S
C831 C832 1.397 . S
C831 C836 1.363 . S
C832 H809 0.950 . S
C832 C831 1.397 . S
C832 C833 1.334 . S
C833 H810 0.950 . S
C833 C832 1.334 . S
C833 C834 1.287 . S
C834 C833 1.287 . S
C834 C835 1.524 . S
C834 H853 0.913 . S
C835 H811 0.950 . S
C835 C834 1.524 . S
C835 C836 1.415 . S
C836 H812 0.950 . S
C836 C831 1.363 . S
C836 C835 1.415 . S
C837 H813 0.951 . S
C837 C838 1.366 . S
C837 C839 1.388 . S
C838 C837 1.366 . S
C838 C842 1.385 . S
C839 H814 0.951 . S
C839 C837 1.388 . S
C839 C840 1.366 . S
C840 C839 1.366 . S
C840 C841 1.414 1_655 S
C840 C843 1.499 1_655 S
C841 H815 0.950 . S
C841 C840 1.414 1_455 S
C841 C842 1.374 1_455 S
C842 H816 0.950 . S
C842 C838 1.385 . S
C842 C841 1.374 1_655 S
C843 C840 1.499 1_455 S
C843 C844 1.373 . S
C843 C845 1.389 . S
C844 H817 0.950 . S
C844 C830 1.377 . S
C844 C843 1.373 . S
C845 C829 1.377 . S
C845 C843 1.389 . S
C845 C846 1.524 1_455 S
C846 C845 1.524 1_655 S
C846 C847 1.397 . S
C846 C851 1.363 . S
C847 H818 0.950 . S
C847 C846 1.397 . S
C847 C848 1.334 . S
C848 H819 0.950 . S
C848 C847 1.334 . S
C848 C849 1.287 . S
C849 C848 1.287 . S
C849 C850 1.524 . S
C849 H852 0.999 . S
C850 H820 0.950 . S
C850 C849 1.524 . S
C850 C851 1.415 . S
C851 H821 0.950 . S
C851 C846 1.363 . S
C851 C850 1.415 . S
H852 C849 0.999 . S
H853 C834 0.913 . S
H854 C872 0.951 . S
H855 C874 0.951 . S
H856 C876 0.950 . S
H857 C877 0.950 . S
H858 C879 0.950 . S
H859 C882 0.950 . S
H860 C883 0.950 . S
H861 C885 0.950 . S
H862 C886 0.950 . S
H863 C887 0.951 . S
H864 C889 0.951 . S
H865 C891 0.950 . S
H866 C892 0.950 . S
H867 C894 0.950 . S
H868 C897 0.950 . S
H869 C898 0.950 . S
H870 C900 0.950 . S
H871 C901 0.950 . S
C872 H854 0.951 . S
C872 C873 1.366 . S
C872 C874 1.388 . S
C873 C872 1.366 . S
C873 C877 1.385 . S
C874 H855 0.951 . S
C874 C872 1.388 . S
C874 C875 1.366 . S
C875 C874 1.366 . S
C875 C876 1.414 . S
C875 C878 1.499 . S
C876 H856 0.950 . S
C876 C875 1.414 . S
C876 C877 1.374 . S
C877 H857 0.950 . S
C877 C873 1.385 . S
C877 C876 1.374 . S
C878 C875 1.499 . S
C878 C879 1.373 . S
C878 C880 1.389 . S
C879 H858 0.950 . S
C879 C878 1.373 . S
C879 C895 1.377 . S
C880 C878 1.389 . S
C880 C881 1.524 . S
C880 C894 1.377 . S
C881 C880 1.524 . S
C881 C882 1.397 . S
C881 C886 1.363 . S
C882 H859 0.950 . S
C882 C881 1.397 . S
C882 C883 1.334 . S
C883 H860 0.950 . S
C883 C882 1.334 . S
C883 C884 1.287 . S
C884 C883 1.287 . S
C884 C885 1.524 . S
C884 H903 0.913 . S
C885 H861 0.950 . S
C885 C884 1.524 . S
C885 C886 1.415 . S
C886 H862 0.950 . S
C886 C881 1.363 . S
C886 C885 1.415 . S
C887 H863 0.951 . S
C887 C888 1.366 . S
C887 C889 1.388 . S
C888 C887 1.366 . S
C888 C892 1.385 . S
C889 H864 0.951 . S
C889 C887 1.388 . S
C889 C890 1.366 . S
C890 C889 1.366 . S
C890 C891 1.414 . S
C890 C893 1.499 . S
C891 H865 0.950 . S
C891 C890 1.414 . S
C891 C892 1.374 . S
C892 H866 0.950 . S
C892 C888 1.385 . S
C892 C891 1.374 . S
C893 C890 1.499 . S
C893 C894 1.373 . S
C893 C895 1.389 . S
C894 H867 0.950 . S
C894 C880 1.377 . S
C894 C893 1.373 . S
C895 C879 1.377 . S
C895 C893 1.389 . S
C895 C896 1.524 . S
C896 C895 1.524 . S
C896 C897 1.397 . S
C896 C901 1.363 . S
C897 H868 0.950 . S
C897 C896 1.397 . S
C897 C898 1.334 . S
C898 H869 0.950 . S
C898 C897 1.334 . S
C898 C899 1.287 . S
C899 C898 1.287 . S
C899 C900 1.524 . S
C899 H902 0.999 . S
C900 H870 0.950 . S
C900 C899 1.524 . S
C900 C901 1.415 . S
C901 H871 0.950 . S
C901 C896 1.363 . S
C901 C900 1.415 . S
H902 C899 0.999 . S
H903 C884 0.913 . S
H904 C922 0.951 . S
H905 C924 0.951 . S
H906 C926 0.950 . S
H907 C927 0.950 . S
H908 C929 0.950 . S
H909 C932 0.950 . S
H910 C933 0.950 . S
H911 C935 0.949 1_545 S
H912 C936 0.950 . S
H913 C937 0.951 . S
H914 C939 0.951 . S
H915 C941 0.950 . S
H916 C942 0.950 . S
H917 C944 0.950 . S
H918 C947 0.950 . S
H919 C948 0.950 . S
H920 C950 0.950 . S
H921 C951 0.950 . S
C922 H904 0.951 . S
C922 C923 1.366 . S
C922 C924 1.388 . S
C923 C922 1.366 . S
C923 C927 1.385 . S
C924 H905 0.951 . S
C924 C922 1.388 . S
C924 C925 1.363 1_545 S
C925 C924 1.363 1_565 S
C925 C926 1.414 . S
C925 C928 1.500 . S
C926 H906 0.950 . S
C926 C925 1.414 . S
C926 C927 1.374 1_565 S
C927 H907 0.950 . S
C927 C923 1.385 . S
C927 C926 1.374 1_545 S
C928 C925 1.500 . S
C928 C929 1.373 . S
C928 C930 1.389 . S
C929 H908 0.950 . S
C929 C928 1.373 . S
C929 C945 1.377 . S
C930 C928 1.389 . S
C930 C931 1.524 . S
C930 C944 1.377 1_556 S
C931 C930 1.524 . S
C931 C932 1.397 . S
C931 C936 1.363 1_556 S
C932 H909 0.950 . S
C932 C931 1.397 . S
C932 C933 1.334 . S
C933 H910 0.950 . S
C933 C932 1.334 . S
C933 C934 1.287 . S
C934 C933 1.287 . S
C934 C935 1.524 1_556 S
C934 H953 0.913 . S
C935 H911 0.949 1_565 S
C935 C934 1.524 1_554 S
C935 C936 1.415 . S
C936 H912 0.950 . S
C936 C931 1.363 1_554 S
C936 C935 1.415 . S
C937 H913 0.951 . S
C937 C938 1.366 . S
C937 C939 1.388 . S
C938 C937 1.366 . S
C938 C942 1.385 . S
C939 H914 0.951 . S
C939 C937 1.388 . S
C939 C940 1.366 . S
C940 C939 1.366 . S
C940 C941 1.414 . S
C940 C943 1.499 . S
C941 H915 0.950 . S
C941 C940 1.414 . S
C941 C942 1.374 . S
C942 H916 0.950 . S
C942 C938 1.385 . S
C942 C941 1.374 . S
C943 C940 1.499 . S
C943 C944 1.373 . S
C943 C945 1.389 1_554 S
C944 H917 0.950 . S
C944 C930 1.377 1_554 S
C944 C943 1.373 . S
C945 C929 1.377 . S
C945 C943 1.389 1_556 S
C945 C946 1.524 . S
C946 C945 1.524 . S
C946 C947 1.397 1_556 S
C946 C951 1.363 . S
C947 H918 0.950 . S
C947 C946 1.397 1_554 S
C947 C948 1.334 . S
C948 H919 0.950 . S
C948 C947 1.334 . S
C948 C949 1.287 1_554 S
C949 C948 1.287 1_556 S
C949 C950 1.524 . S
C949 H952 0.999 . S
C950 H920 0.950 . S
C950 C949 1.524 . S
C950 C951 1.415 . S
C951 H921 0.950 . S
C951 C946 1.363 . S
C951 C950 1.415 . S
H952 C949 0.999 . S
H953 C934 0.913 . S
C223 C2 1.952 . S
C238 C172 1.952 . S
C273 C104 1.952 . S
C288 C36 1.952 . S
C323 C138 1.952 . S
C338 C70 1.952 . S
C373 C203 1.489 . S
C388 C5 1.475 . S
C423 C135 1.489 . S
C438 C39 1.475 1_565 S
C473 C73 1.475 1_455 S
C488 C169 1.489 . S
C523 C67 1.489 . S
C538 C107 1.475 . S
C573 C101 1.489 . S
C588 C141 1.475 1_545 S
C623 C175 1.475 1_655 S
C638 C33 1.489 . S
C673 C156 1.284 . S
C688 C9 1.248 . S
C723 C43 1.249 . S
C738 C190 1.283 . S
C773 C122 1.283 . S
C788 C77 1.249 . S
C823 C111 1.249 . S
C838 C88 1.283 . S
C873 C20 1.283 . S
C888 C145 1.248 . S
C923 C54 1.283 . S
C938 C179 1.247 . S
