# Generated by pormake.
# Topology wme, (6)-cn, num edge types: 1
# Building blocks:
#     Node 0, Type 0, BuildingBlock: KUMBUR_clean_sbu_0, # of connection points: 6
#     Node 1, Type 0, BuildingBlock: KUMBUR_clean_sbu_0, # of connection points: 6
#     Node 2, Type 0, BuildingBlock: KUMBUR_clean_sbu_0, # of connection points: 6
#     Node 3, Type 0, BuildingBlock: KUMBUR_clean_sbu_0, # of connection points: 6
#     Node 4, Type 0, BuildingBlock: KUMBUR_clean_sbu_0, # of connection points: 6
#     Node 5, Type 0, BuildingBlock: KUMBUR_clean_sbu_0, # of connection points: 6
#     Node 6, Type 0, BuildingBlock: KUMBUR_clean_sbu_0, # of connection points: 6
#     Node 7, Type 0, BuildingBlock: KUMBUR_clean_sbu_0, # of connection points: 6
#     Node 8, Type 0, BuildingBlock: KUMBUR_clean_sbu_0, # of connection points: 6
#     Node 9, Type 0, BuildingBlock: KUMBUR_clean_sbu_0, # of connection points: 6
#     Node 10, Type 0, BuildingBlock: KUMBUR_clean_sbu_0, # of connection points: 6
#     Node 11, Type 0, BuildingBlock: KUMBUR_clean_sbu_0, # of connection points: 6
#     Edge 12, Type (0, 0), BuildingBlock: XIVTED_clean_linker_0, # of connection points: 2
#     Edge 13, Type (0, 0), BuildingBlock: XIVTED_clean_linker_0, # of connection points: 2
#     Edge 14, Type (0, 0), BuildingBlock: XIVTED_clean_linker_0, # of connection points: 2
#     Edge 15, Type (0, 0), BuildingBlock: XIVTED_clean_linker_0, # of connection points: 2
#     Edge 16, Type (0, 0), BuildingBlock: XIVTED_clean_linker_0, # of connection points: 2
#     Edge 17, Type (0, 0), BuildingBlock: XIVTED_clean_linker_0, # of connection points: 2
#     Edge 18, Type (0, 0), BuildingBlock: XIVTED_clean_linker_0, # of connection points: 2
#     Edge 19, Type (0, 0), BuildingBlock: XIVTED_clean_linker_0, # of connection points: 2
#     Edge 20, Type (0, 0), BuildingBlock: XIVTED_clean_linker_0, # of connection points: 2
#     Edge 21, Type (0, 0), BuildingBlock: XIVTED_clean_linker_0, # of connection points: 2
#     Edge 22, Type (0, 0), BuildingBlock: XIVTED_clean_linker_0, # of connection points: 2
#     Edge 23, Type (0, 0), BuildingBlock: XIVTED_clean_linker_0, # of connection points: 2
#     Edge 24, Type (0, 0), BuildingBlock: XIVTED_clean_linker_0, # of connection points: 2
#     Edge 25, Type (0, 0), BuildingBlock: XIVTED_clean_linker_0, # of connection points: 2
#     Edge 26, Type (0, 0), BuildingBlock: XIVTED_clean_linker_0, # of connection points: 2
#     Edge 27, Type (0, 0), BuildingBlock: XIVTED_clean_linker_0, # of connection points: 2
#     Edge 28, Type (0, 0), BuildingBlock: XIVTED_clean_linker_0, # of connection points: 2
#     Edge 29, Type (0, 0), BuildingBlock: XIVTED_clean_linker_0, # of connection points: 2
#     Edge 30, Type (0, 0), BuildingBlock: XIVTED_clean_linker_0, # of connection points: 2
#     Edge 31, Type (0, 0), BuildingBlock: XIVTED_clean_linker_0, # of connection points: 2
#     Edge 32, Type (0, 0), BuildingBlock: XIVTED_clean_linker_0, # of connection points: 2
#     Edge 33, Type (0, 0), BuildingBlock: XIVTED_clean_linker_0, # of connection points: 2
#     Edge 34, Type (0, 0), BuildingBlock: XIVTED_clean_linker_0, # of connection points: 2
#     Edge 35, Type (0, 0), BuildingBlock: XIVTED_clean_linker_0, # of connection points: 2
#     Edge 36, Type (0, 0), BuildingBlock: XIVTED_clean_linker_0, # of connection points: 2
#     Edge 37, Type (0, 0), BuildingBlock: XIVTED_clean_linker_0, # of connection points: 2
#     Edge 38, Type (0, 0), BuildingBlock: XIVTED_clean_linker_0, # of connection points: 2
#     Edge 39, Type (0, 0), BuildingBlock: XIVTED_clean_linker_0, # of connection points: 2
#     Edge 40, Type (0, 0), BuildingBlock: XIVTED_clean_linker_0, # of connection points: 2
#     Edge 41, Type (0, 0), BuildingBlock: XIVTED_clean_linker_0, # of connection points: 2
#     Edge 42, Type (0, 0), BuildingBlock: XIVTED_clean_linker_0, # of connection points: 2
#     Edge 43, Type (0, 0), BuildingBlock: XIVTED_clean_linker_0, # of connection points: 2
#     Edge 44, Type (0, 0), BuildingBlock: XIVTED_clean_linker_0, # of connection points: 2
#     Edge 45, Type (0, 0), BuildingBlock: XIVTED_clean_linker_0, # of connection points: 2
#     Edge 46, Type (0, 0), BuildingBlock: XIVTED_clean_linker_0, # of connection points: 2
#     Edge 47, Type (0, 0), BuildingBlock: XIVTED_clean_linker_0, # of connection points: 2
# Relax obj value: 0.094
# Max RMSD: 0.209
# Mean RMSD: 0.209
data_MOF--net-wme--node1-KUMBUR_clean_sbu_0--edge1-XIVTED_clean_linker_0
_symmetry_space_group_name_H-M    P1
_symmetry_Int_Tables_number       1
_symmetry_cell_setting            triclinic
loop_
_symmetry_equiv_pos_as_xyz
'x, y, z'
_cell_length_a     38.253324
_cell_length_b     38.247978
_cell_length_c     54.726475
_cell_angle_alpha  90.045773
_cell_angle_beta   90.091773
_cell_angle_gamma 120.06364
loop_
_atom_site_label
_atom_site_type_symbol
_atom_site_fract_x
_atom_site_fract_y
_atom_site_fract_z
_atom_type_partial_charge
Tb0 Tb 0.2097 0.37321 0.10487 0.0
C1 C 0.32566 0.36376 0.18071 0.0
C2 C 0.39278 0.40263 0.16389 0.0
C3 C 0.38357 0.39732 0.20793 0.0
C4 C 0.3506 0.37874 0.16076 0.0
C5 C 0.34174 0.37241 0.20459 0.0
C6 C 0.40908 0.41241 0.18759 0.0
C7 C 0.27427 0.32965 0.21993 0.0
N8 N 0.28551 0.33986 0.17662 0.0
C9 C 0.25982 0.32184 0.19589 0.0
C10 C 0.31538 0.35532 0.22433 0.0
Tb11 Tb 0.26428 0.33068 0.13656 0.0
N12 N 0.33359 0.36836 0.13826 0.0
C13 C 0.35769 0.37868 0.11802 0.0
C14 C 0.41732 0.41512 0.14314 0.0
C15 C 0.39969 0.40258 0.12012 0.0
H16 H 0.22788 0.30232 0.19303 0.0
H17 H 0.41842 0.41144 0.10394 0.0
H18 H 0.44138 0.43097 0.19038 0.0
H19 H 0.25361 0.316 0.23505 0.0
H20 H 0.34489 0.36961 0.10001 0.0
H21 H 0.05777 0.30731 0.14002 0.0
H22 H 0.44985 0.43361 0.14472 0.0
H23 H 0.2416 0.39747 0.0478 0.0
H24 H 0.13191 0.34573 0.14225 0.0
H25 H 0.2134 0.37827 0.00615 0.0
H26 H 0.39653 0.40453 0.22612 0.0
H27 H 1.02357 0.27634 0.10097 0.0
H28 H 1.02925 0.26732 0.05585 0.0
H29 H 0.32648 0.3613 0.24296 0.0
H30 H 0.072 0.28651 0.01912 0.0
N31 N 0.14039 0.33593 0.1049 0.0
C32 C 0.11769 0.33248 0.12502 0.0
C33 C 0.05626 0.29314 0.10182 0.0
C34 C 0.07953 0.29881 0.08094 0.0
C35 C 0.07546 0.31071 0.12386 0.0
C36 C 0.12199 0.32102 0.08309 0.0
H37 H 0.14079 0.32886 1.00032 0.0
N38 N 0.1859 0.35795 0.06546 0.0
C39 C 0.19404 0.36494 0.02186 0.0
C40 C 0.14576 0.3323 0.06253 0.0
C41 C 0.20988 0.37585 0.04549 0.0
C42 C 0.1531 0.33686 0.01864 0.0
C43 C 0.12817 0.32096 0.03911 0.0
O44 O 0.2255 0.43062 0.09052 0.0
O45 O 0.2659 0.38299 0.12016 0.0
O46 O 0.26392 0.37608 0.16024 0.0
O47 O 0.20527 0.37377 0.14576 0.0
O48 O 0.26971 0.41625 0.09031 0.0
O49 O 0.19061 0.4094 0.1232 0.0
O50 O 0.24002 0.2694 0.14608 0.0
O51 O 0.20761 0.32127 0.12158 0.0
O52 O 0.2157 0.32999 0.0801 0.0
O53 O 0.2732 0.33367 0.09706 0.0
O54 O 0.20465 0.28958 0.15221 0.0
O55 O 0.28708 0.29697 0.11929 0.0
C56 C 0.29089 0.41018 0.10611 0.0
C57 C 0.17743 0.45162 0.0977 0.0
C58 C 0.15598 0.50238 0.09388 0.0
C59 C 0.18288 0.49031 0.10344 0.0
C60 C 0.12327 0.4748 0.07941 0.0
C61 C 0.14491 0.42564 0.08274 0.0
C62 C 0.11786 0.43688 0.07393 0.0
C63 C 0.23265 0.38146 0.16329 0.0
C64 C 0.2053 0.43796 0.1069 0.0
C65 C 0.08612 0.29596 0.03693 0.0
C66 C 0.06178 0.285 0.05784 0.0
C67 C 0.18321 0.2952 0.13642 0.0
C68 C 0.28129 0.2404 0.14092 0.0
C69 C 0.26076 0.19804 0.13771 0.0
C70 C 0.27657 0.17464 0.14751 0.0
C71 C 0.31363 0.19465 0.16017 0.0
C72 C 0.31797 0.25942 0.15373 0.0
C73 C 0.33408 0.23659 0.16317 0.0
C74 C 0.24689 0.32355 0.079 0.0
C75 C 0.26344 0.26401 0.13129 0.0
H76 H 0.20826 0.5111 0.11462 0.0
H77 H 0.10188 0.4828 0.07208 0.0
H78 H 0.14044 0.3966 0.07767 0.0
H79 H 0.09277 0.41622 0.06253 0.0
H80 H 0.2321 0.18328 0.12809 0.0
H81 H 0.32701 0.17784 0.16766 0.0
H82 H 0.33406 0.29183 0.15646 0.0
H83 H 0.3625 0.25146 0.17298 0.0
Tb84 Tb 0.85894 0.19821 0.60501 0.0
C85 C 0.99238 0.32074 0.67594 0.0
C86 C 1.01662 0.38637 0.65766 0.0
C87 C 1.02086 0.38072 0.70165 0.0
C88 C 0.99852 0.34404 0.65555 0.0
C89 C 1.00394 0.33873 0.69926 0.0
C90 C 1.02717 0.40452 0.68087 0.0
C91 C 0.98313 0.27275 0.71585 0.0
N92 N 0.97595 0.28038 0.67279 0.0
C93 C 0.97223 0.25637 0.69234 0.0
C94 C 0.99874 0.31408 0.71938 0.0
Tb95 Tb 0.95821 0.25602 0.6336 0.0
N96 N 0.98812 0.32529 0.63353 0.0
C97 C 0.99747 0.34781 0.61261 0.0
C98 C 1.02434 0.40922 0.63637 0.0
C99 C 1.01511 0.38985 0.61373 0.0
H100 H 0.95997 0.22433 0.69017 0.0
H101 H 1.02149 0.40727 0.59709 0.0
H102 H 0.04087 0.43695 0.68288 0.0
H103 H 0.97934 0.25343 0.73124 0.0
H104 H 0.99056 0.33376 0.59486 0.0
H105 H 0.77387 0.04918 0.64424 0.0
H106 H 0.03807 0.44179 0.63718 0.0
H107 H 0.86289 0.22528 0.54698 0.0
H108 H 0.81025 0.12333 0.64448 0.0
H109 H 0.85258 0.19391 0.50622 0.0
H110 H 1.02972 0.39511 0.71942 0.0
H111 H 0.76976 1.01203 0.60632 0.0
H112 H 0.78345 1.01429 0.56122 0.0
H113 H 1.00717 0.32669 0.7376 0.0
H114 H 0.8054 0.05414 0.5233 0.0
N115 N 0.82743 0.12902 0.60702 0.0
C116 C 0.80877 0.10785 0.6277 0.0
C117 C 0.78585 0.04476 0.60627 0.0
C118 C 0.80297 0.06642 0.58482 0.0
C119 C 0.78801 0.0656 0.62768 0.0
C120 C 0.82323 0.109 0.58576 0.0
H121 H 0.83029 0.12121 0.50252 0.0
N122 N 0.84858 0.17134 0.56628 0.0
C123 C 0.84758 0.17591 0.52248 0.0
C124 C 0.83456 0.13112 0.56452 0.0
C125 C 0.85324 0.19354 0.54562 0.0
C126 C 0.83524 0.13493 0.52046 0.0
C127 C 0.82745 0.11173 0.54164 0.0
O128 O 0.81575 0.21148 0.59023 0.0
O129 O 0.90508 0.25621 0.61913 0.0
O130 O 0.91499 0.25492 0.6595 0.0
O131 O 0.85643 0.19683 0.64611 0.0
O132 O 0.87456 0.25633 0.58865 0.0
O133 O 0.80465 0.18028 0.62421 0.0
O134 O 0.99676 0.23269 0.64117 0.0
O135 O 0.9103 0.19809 0.62059 0.0
O136 O 0.90681 0.20267 0.57957 0.0
O137 O 0.95982 0.26273 0.5941 0.0
O138 O 0.94189 0.19745 0.65037 0.0
O139 O 1.01339 0.27964 0.61467 0.0
C140 C 0.90132 0.27948 0.60422 0.0
C141 C 0.74739 0.16333 0.59943 0.0
C142 C 0.6745 0.13974 0.597 0.0
C143 C 0.71392 0.16827 0.60533 0.0
C144 C 0.66922 0.10593 0.5837 0.0
C145 C 0.74065 0.12977 0.5855 0.0
C146 C 0.70197 0.1011 0.578 0.0
C147 C 0.87804 0.22438 0.66328 0.0
C148 C 0.78934 0.19273 0.60742 0.0
C149 C 0.81071 0.06961 0.54068 0.0
C150 C 0.79828 0.04693 0.56227 0.0
C151 C 0.91337 0.17479 0.63565 0.0
C152 C 0.06655 0.27589 0.63483 0.0
C153 C 0.08877 0.25566 0.63222 0.0
C154 C 0.12868 0.27302 0.64129 0.0
C155 C 0.14602 0.31128 0.65253 0.0
C156 C 0.08459 0.31378 0.64628 0.0
C157 C 0.12416 0.33139 0.65494 0.0
C158 C 0.94369 0.23469 0.57707 0.0
C159 C 1.02441 0.25674 0.62598 0.0
H160 H 0.71865 0.19448 0.61565 0.0
H161 H 0.63952 0.08321 0.57739 0.0
H162 H 0.76534 0.12572 0.5802 0.0
H163 H 0.69742 0.0752 0.56743 0.0
H164 H 0.07468 0.22611 0.62368 0.0
H165 H 0.17671 0.32584 0.65941 0.0
H166 H 0.06808 0.32974 0.64854 0.0
H167 H 0.13795 0.36073 0.66368 0.0
Tb168 Tb 0.68299 0.84494 0.10496 0.0
C169 C 0.6958 0.98325 0.17066 0.0
C170 C 0.65651 1.0073 0.14942 0.0
C171 C 0.66373 1.014 0.19358 0.0
C172 C 0.68015 0.98848 0.14924 0.0
C173 C 0.68845 0.99655 0.19308 0.0
C174 C 0.64773 1.01934 0.17176 0.0
C175 C 0.7326 0.97676 0.21249 0.0
N176 N 0.71953 0.96636 0.16933 0.0
C177 C 0.73901 0.96412 0.18978 0.0
C178 C 0.70686 0.99266 0.21421 0.0
Tb179 Tb 0.72774 0.94576 0.13145 0.0
N180 N 0.68969 0.97675 0.1281 0.0
C181 C 0.67871 0.98571 0.1062 0.0
C182 C 0.64329 1.01437 0.12712 0.0
C183 C 0.65489 1.00398 0.1054 0.0
H184 H 0.75879 0.95168 0.18884 0.0
H185 H 0.64548 1.00998 0.088 0.0
H186 H 0.62937 0.03357 0.1723 0.0
H187 H 0.74743 0.97411 0.22866 0.0
H188 H 0.68717 0.97796 0.08914 0.0
H189 H 0.74627 0.7636 0.15052 0.0
H190 H 0.62495 0.02863 0.12644 0.0
H191 H 0.65917 0.84306 0.04656 0.0
H192 H 0.71015 0.80141 0.14796 0.0
H193 H 0.67736 0.8259 0.00688 0.0
H194 H 0.65744 0.02415 0.21064 0.0
H195 H 0.77475 0.75092 0.11326 0.0
H196 H 0.78279 0.75637 0.06761 0.0
H197 H 0.70197 1.00247 0.23181 0.0
H198 H 0.76471 0.77429 0.02824 0.0
N199 N 0.71828 0.81122 0.10952 0.0
C200 C 0.72214 0.79621 0.13144 0.0
C201 C 0.75878 0.76757 0.11198 0.0
C202 C 0.75299 0.78109 0.08943 0.0
C203 C 0.74265 0.77458 0.13301 0.0
C204 C 0.73194 0.80262 0.0888 0.0
H205 H 0.72474 0.79966 0.00536 0.0
N206 N 0.69825 0.82968 0.06724 0.0
C207 C 0.69052 0.82245 0.02358 0.0
C208 C 0.72197 0.81269 0.06682 0.0
C209 C 0.68039 0.83227 0.04611 0.0
C210 C 0.71737 0.80779 0.02279 0.0
C211 C 0.73252 0.80159 0.04463 0.0
O212 O 0.62407 0.80559 0.09178 0.0
O213 O 0.67339 0.89321 0.11768 0.0
O214 O 0.68462 0.90498 0.15802 0.0
O215 O 0.68049 0.84426 0.14599 0.0
O216 O 0.64398 0.86336 0.08673 0.0
O217 O 0.64631 0.78929 0.12302 0.0
O218 O 0.78875 0.98382 0.14138 0.0
O219 O 0.73597 0.89628 0.11965 0.0
O220 O 0.72642 0.88915 0.07815 0.0
O221 O 0.72836 0.94801 0.09158 0.0
O222 O 0.76727 0.92756 0.14985 0.0
O223 O 0.76206 1.00008 0.11214 0.0
C224 C 0.64807 0.89084 0.10187 0.0
C225 C 0.6013 0.73571 0.0969 0.0
C226 C 0.55415 0.6621 0.09716 0.0
C227 C 0.5686 0.70098 0.1077 0.0
C228 C 0.57271 0.65911 0.07565 0.0
C229 C 0.61876 0.73093 0.07558 0.0
C230 C 0.60469 0.69311 0.06511 0.0
C231 C 0.6761 0.86754 0.16256 0.0
C232 C 0.61695 0.77697 0.10729 0.0
C233 C 0.75587 0.78263 0.04508 0.0
C234 C 0.76608 0.77236 0.06748 0.0
C235 C 0.7612 0.89866 0.1354 0.0
C236 C 0.81642 0.05346 0.13379 0.0
C237 C 0.85894 0.07604 0.13201 0.0
C238 C 0.8806 0.11625 0.14062 0.0
C239 C 0.85881 0.13351 0.15063 0.0
C240 C 0.79557 0.0714 0.14394 0.0
C241 C 0.81672 0.11126 0.15222 0.0
C242 C 0.73598 0.92753 0.0751 0.0
C243 C 0.79441 1.01115 0.12529 0.0
H244 H 0.55473 0.70419 0.12415 0.0
H245 H 0.56193 0.63039 0.06649 0.0
H246 H 0.64295 0.75645 0.0666 0.0
H247 H 0.61838 0.6902 0.0485 0.0
H248 H 0.87511 0.06203 0.12442 0.0
H249 H 0.87433 0.16444 0.15712 0.0
H250 H 0.763 0.05466 0.14544 0.0
H251 H 0.80042 0.12497 0.15996 0.0
Tb252 Tb 0.85526 0.67471 0.60799 0.0
C253 C 0.73594 0.68358 0.67913 0.0
C254 C 0.6708 0.6349 0.66265 0.0
C255 C 0.67881 0.64727 0.70642 0.0
C256 C 0.71226 0.66277 0.65945 0.0
C257 C 0.7193 0.6772 0.70277 0.0
C258 C 0.65455 0.62611 0.68634 0.0
C259 C 0.7818 0.73448 0.7165 0.0
N260 N 0.77456 0.71275 0.67466 0.0
C261 C 0.79667 0.73982 0.69263 0.0
C262 C 0.74324 0.70244 0.72173 0.0
Tb263 Tb 0.79755 0.71706 0.6354 0.0
N264 N 0.72901 0.67301 0.63691 0.0
C265 C 0.70471 0.65984 0.61666 0.0
C266 C 0.64657 0.61851 0.6419 0.0
C267 C 0.66342 0.63188 0.61881 0.0
H268 H 0.8261 0.76527 0.68882 0.0
H269 H 0.64469 0.62053 0.60263 0.0
H270 H 0.62291 0.60435 0.68922 0.0
H271 H 0.79998 0.75524 0.73081 0.0
H272 H 0.71706 0.66973 0.59863 0.0
H273 H 1.00495 0.74329 0.64743 0.0
H274 H 0.61459 0.59696 0.64352 0.0
H275 H 0.82708 0.64827 0.55044 0.0
H276 H 0.93093 0.70459 0.64783 0.0
H277 H 0.858 0.66564 0.50949 0.0
H278 H 0.66556 0.64149 0.72449 0.0
H279 H 0.04152 0.7726 0.60886 0.0
H280 H 0.03869 0.77937 0.5633 0.0
H281 H 0.73164 0.6986 0.74017 0.0
H282 H 0.99836 0.75816 0.52544 0.0
N283 N 0.92451 0.71282 0.60984 0.0
C284 C 0.946 0.71725 0.63077 0.0
C285 C 1.0088 0.75572 0.60888 0.0
C286 C 0.98685 0.74889 0.58723 0.0
C287 C 0.98826 0.73912 0.63067 0.0
C288 C 0.94427 0.72656 0.58831 0.0
H289 H 0.93094 0.71477 0.50515 0.0
N290 N 0.88163 0.68836 0.56919 0.0
C291 C 0.87633 0.6796 0.52555 0.0
C292 C 0.9219 0.71392 0.56714 0.0
C293 C 0.85895 0.66974 0.54881 0.0
C294 C 0.91745 0.70751 0.52317 0.0
C295 C 0.941 0.72431 0.54414 0.0
O296 O 0.84454 0.61865 0.5937 0.0
O297 O 0.79735 0.66291 0.62217 0.0
O298 O 0.80654 0.6843 0.66472 0.0
O299 O 0.85921 0.67602 0.64888 0.0
O300 O 0.79699 0.63081 0.59223 0.0
O301 O 0.87078 0.63842 0.62916 0.0
O302 O 0.82439 0.78069 0.63454 0.0
O303 O 0.85538 0.72722 0.62209 0.0
O304 O 0.84928 0.71613 0.58153 0.0
O305 O 0.78934 0.70916 0.59601 0.0
O306 O 0.85617 0.76071 0.65152 0.0
O307 O 0.76384 0.74334 0.62245 0.0
C308 C 0.77412 0.63509 0.60756 0.0
C309 C 0.89016 0.59725 0.60741 0.0
C310 C 0.91117 0.54609 0.60943 0.0
C311 C 0.88132 0.55732 0.61267 0.0
C312 C 0.94948 0.575 0.60087 0.0
C313 C 0.92842 0.62482 0.59818 0.0
C314 C 0.95785 0.61391 0.59511 0.0
C315 C 0.83576 0.67558 0.66713 0.0
C316 C 0.86046 0.61072 0.61243 0.0
C317 C 0.98312 0.74946 0.54292 0.0
C318 C 1.00606 0.7616 0.56447 0.0
C319 C 0.87877 0.75445 0.6369 0.0
C320 C 0.78068 0.80606 0.64107 0.0
C321 C 0.79835 0.84766 0.63561 0.0
C322 C 0.79004 0.87336 0.65015 0.0
C323 C 0.7642 0.85617 0.67044 0.0
C324 C 0.75397 0.79 0.6608 0.0
C325 C 0.74606 0.81498 0.67544 0.0
C326 C 0.81717 0.72085 0.57893 0.0
C327 C 0.79206 0.78014 0.62709 0.0
H328 H 0.85172 0.53535 0.61944 0.0
H329 H 0.97272 0.56711 0.59805 0.0
H330 H 0.93579 0.65493 0.59339 0.0
H331 H 0.98731 0.63574 0.58814 0.0
H332 H 0.81833 0.85967 0.62004 0.0
H333 H 0.75816 0.8745 0.68287 0.0
H334 H 0.73958 0.7582 0.66513 0.0
H335 H 0.72606 0.80241 0.69095 0.0
Tb336 Tb 0.21003 0.85216 0.10446 0.0
C337 C 0.07317 0.72362 0.16996 0.0
C338 C 0.05128 0.65954 0.15003 0.0
C339 C 0.04463 0.66202 0.19405 0.0
C340 C 0.06877 0.70191 0.14904 0.0
C341 C 0.06051 0.70397 0.19272 0.0
C342 C 0.04005 0.63981 0.17271 0.0
C343 C 0.0776 0.7682 0.21074 0.0
N344 N 0.08847 0.76399 0.16781 0.0
C345 C 0.08969 0.78626 0.18775 0.0
C346 C 0.06335 0.72693 0.21331 0.0
Tb347 Tb 0.10853 0.79127 0.12945 0.0
N348 N 0.07941 0.72211 0.12753 0.0
C349 C 0.07019 0.70096 0.10603 0.0
C350 C 0.04439 0.63819 0.12814 0.0
C351 C 0.05332 0.65897 0.10602 0.0
H352 H 0.10082 0.81821 0.18631 0.0
H353 H 0.04723 0.64268 0.08891 0.0
H354 H 1.02687 0.60733 0.17387 0.0
H355 H 0.07942 0.78618 0.22649 0.0
H356 H 0.07658 0.71614 0.08867 0.0
H357 H 0.28734 0.99698 0.15008 0.0
H358 H 0.03114 0.60565 0.12808 0.0
H359 H 0.21138 0.83042 0.04589 0.0
H360 H 0.25201 0.92302 0.14737 0.0
H361 H 0.22698 0.86581 0.00627 0.0
H362 H 0.03502 0.64637 0.21138 0.0
H363 H 0.29778 0.03788 0.11297 0.0
H364 H 0.29155 0.04023 0.06731 0.0
H365 H 0.05396 0.71301 0.23113 0.0
H366 H 0.27476 1.00425 0.02788 0.0
N367 N 0.24076 0.92102 0.10908 0.0
C368 C 0.25595 0.94006 0.13095 0.0
C369 C 0.28203 1.00523 0.11163 0.0
C370 C 0.26866 0.98579 0.08907 0.0
C371 C 0.27628 0.98225 0.1326 0.0
C372 C 0.24843 0.94319 0.08839 0.0
H373 H 0.25144 0.93917 0.0049 0.0
N374 N 0.22504 0.88281 0.0668 0.0
C375 C 0.23061 0.88234 0.02304 0.0
C376 C 0.24002 0.92325 0.06638 0.0
C377 C 0.22197 0.86242 0.04555 0.0
C378 C 0.24423 0.92369 0.02233 0.0
C379 C 0.25004 0.94489 0.04421 0.0
O380 O 0.25624 0.84286 0.09021 0.0
O381 O 0.16287 0.79292 0.11595 0.0
O382 O 0.15007 0.79125 0.15653 0.0
O383 O 0.20889 0.85074 0.14543 0.0
O384 O 0.1969 0.79564 0.0866 0.0
O385 O 0.26064 0.86584 0.12643 0.0
O386 O 0.06928 0.8137 0.13679 0.0
O387 O 0.15668 0.85043 0.1182 0.0
O388 O 0.16424 0.84844 0.07753 0.0
O389 O 0.10924 0.78744 0.08974 0.0
O390 O 0.123 0.84841 0.14752 0.0
O391 O 0.05418 0.76809 0.10942 0.0
C392 C 0.16831 0.77121 0.10068 0.0
C393 C 0.32248 0.88718 0.10576 0.0
C394 C 0.3944 0.90711 0.10797 0.0
C395 C 0.35303 0.87712 0.10982 0.0
C396 C 0.4046 0.94676 0.10193 0.0
C397 C 0.334 0.9269 0.09909 0.0
C398 C 0.37461 0.95642 0.09733 0.0
C399 C 0.18645 0.82193 0.16163 0.0
C400 C 0.279 0.85708 0.10956 0.0
C401 C 0.26719 0.98707 0.0447 0.0
C402 C 0.27668 1.00755 0.06714 0.0
C403 C 0.15209 0.87239 0.13361 0.0
C404 C 1.00006 0.77015 0.12945 0.0
C405 C 0.97795 0.79051 0.12741 0.0
C406 C 0.93819 0.77301 0.13653 0.0
C407 C 0.92079 0.73448 0.1473 0.0
C408 C 0.98203 0.73188 0.14035 0.0
C409 C 0.94252 0.71413 0.14909 0.0
C410 C 0.12805 0.81618 0.0734 0.0
C411 C 0.04234 0.79007 0.12104 0.0
H412 H 0.34476 0.84648 0.11469 0.0
H413 H 0.43596 0.97018 0.10022 0.0
H414 H 0.31173 0.93538 0.09537 0.0
H415 H 0.38288 0.98699 0.09234 0.0
H416 H 0.99209 0.82038 0.11934 0.0
H417 H 0.89021 0.71994 0.15426 0.0
H418 H 0.99852 0.71585 0.14221 0.0
H419 H 0.92874 0.68455 0.15745 0.0
Tb420 Tb 0.38283 0.19588 0.60305 0.0
C421 C 0.37118 0.06886 0.67788 0.0
C422 C 0.40858 0.0395 0.66038 0.0
C423 C 0.40377 0.04282 0.70451 0.0
C424 C 0.38554 0.05872 0.65768 0.0
C425 C 0.37964 0.06066 0.70159 0.0
C426 C 0.41821 0.03222 0.68392 0.0
C427 C 0.33806 0.08631 0.71757 0.0
N428 N 0.34797 0.08592 0.67419 0.0
C429 C 0.33039 0.09366 0.69367 0.0
C430 C 0.36308 0.07004 0.72157 0.0
Tb431 Tb 0.3387 0.09875 0.63439 0.0
N432 N 0.37524 0.066 0.63533 0.0
C433 C 0.38478 0.05201 0.61485 0.0
C434 C 0.42034 0.02726 0.63938 0.0
C435 C 0.40791 0.03308 0.61653 0.0
H436 H 0.31133 0.10664 0.69107 0.0
H437 H 0.41617 0.02305 0.60016 0.0
H438 H 0.43613 1.01775 0.68639 0.0
H439 H 0.32479 0.09337 0.73288 0.0
H440 H 0.37562 0.05616 0.59697 0.0
H441 H 0.32008 0.28447 0.63888 0.0
H442 H 0.43815 1.01248 0.64064 0.0
H443 H 0.40542 0.1858 0.54578 0.0
H444 H 0.3556 0.24596 0.64101 0.0
H445 H 0.38869 0.1976 0.50426 0.0
H446 H 0.41082 0.03646 0.72257 0.0
H447 H 0.29305 0.29216 0.59942 0.0
H448 H 0.2864 0.28037 0.55401 0.0
H449 H 0.36894 0.06434 0.7401 0.0
H450 H 0.30477 0.25619 0.51719 0.0
N451 N 0.34816 0.23057 0.60315 0.0
C452 C 0.34408 0.24887 0.62359 0.0
C453 C 0.30866 0.2751 0.60022 0.0
C454 C 0.31481 0.25827 0.57912 0.0
C455 C 0.32396 0.27092 0.6225 0.0
C456 C 0.33535 0.23636 0.58121 0.0
H457 H 0.34364 0.22595 0.49841 0.0
N458 N 0.36876 0.20558 0.56357 0.0
C459 C 0.37618 0.20467 0.51996 0.0
C460 C 0.34573 0.22303 0.56063 0.0
C461 C 0.38565 0.19811 0.54359 0.0
C462 C 0.3506 0.2205 0.51673 0.0
C463 C 0.33579 0.2308 0.5372 0.0
O464 O 0.44212 0.23436 0.59034 0.0
O465 O 0.39214 0.14886 0.61822 0.0
O466 O 0.38473 0.14384 0.65818 0.0
O467 O 0.38339 0.20066 0.64395 0.0
O468 O 0.42323 0.17694 0.58733 0.0
O469 O 0.41907 0.2525 0.62032 0.0
O470 O 0.27764 0.06236 0.6446 0.0
O471 O 0.33033 0.14672 0.61965 0.0
O472 O 0.33824 0.14752 0.57821 0.0
O473 O 0.34034 0.09264 0.59479 0.0
O474 O 0.29861 0.1185 0.65027 0.0
O475 O 0.3037 0.04231 0.61714 0.0
C476 C 0.41783 0.15001 0.60318 0.0
C477 C 0.46533 0.30453 0.594 0.0
C478 C 0.51315 0.37808 0.59349 0.0
C479 C 0.4979 0.33964 0.60474 0.0
C480 C 0.49545 0.38015 0.57132 0.0
C481 C 0.44866 0.30835 0.57203 0.0
C482 C 0.46356 0.34576 0.56084 0.0
C483 C 0.39056 0.18063 0.66143 0.0
C484 C 0.44896 0.2638 0.60517 0.0
C485 C 0.31308 0.25029 0.53501 0.0
C486 C 0.30264 0.26407 0.55597 0.0
C487 C 0.30451 0.1456 0.63448 0.0
C488 C 0.24768 0.99186 0.63929 0.0
C489 C 0.20518 0.97016 0.63661 0.0
C490 C 0.18194 0.93088 0.64639 0.0
C491 C 0.20222 0.91362 0.65843 0.0
C492 C 0.26692 0.97395 0.65152 0.0
C493 C 0.24424 0.93497 0.66091 0.0
C494 C 0.33074 0.10948 0.57689 0.0
C495 C 0.2713 0.03335 0.62963 0.0
H496 H 0.51102 0.33704 0.62171 0.0
H497 H 0.50679 0.40845 0.56163 0.0
H498 H 0.42444 0.2823 0.56318 0.0
H499 H 0.45055 0.34804 0.54375 0.0
H500 H 0.19024 0.98422 0.62744 0.0
H501 H 0.18555 0.88337 0.66587 0.0
H502 H 0.29941 0.99011 0.65382 0.0
H503 H 0.25931 0.92124 0.67026 0.0
Tb504 Tb 0.68156 0.84405 0.39834 0.0
C505 C 0.69418 0.71981 0.3319 0.0
C506 C 0.65504 0.65578 0.35242 0.0
C507 C 0.66168 0.65761 0.30822 0.0
C508 C 0.67858 0.6983 0.35309 0.0
C509 C 0.68662 0.69979 0.3092 0.0
C510 C 0.64588 0.63562 0.32982 0.0
C511 C 0.73127 0.76421 0.29054 0.0
N512 N 0.71824 0.76041 0.33371 0.0
C513 C 0.73788 0.78265 0.31349 0.0
C514 C 0.70514 0.72265 0.28832 0.0
Tb515 Tb 0.72653 0.78814 0.37202 0.0
N516 N 0.6887 0.71893 0.37451 0.0
C517 C 0.67888 0.69828 0.39615 0.0
C518 C 0.64268 0.63477 0.37452 0.0
C519 C 0.65529 0.6561 0.39648 0.0
H520 H 0.758 0.8148 0.31474 0.0
H521 H 0.64675 0.64011 0.4137 0.0
H522 H 0.62755 0.603 0.3289 0.0
H523 H 0.74623 0.78212 0.27456 0.0
H524 H 0.68816 0.714 0.41338 0.0
H525 H 0.74609 0.98833 0.35237 0.0
H526 H 0.62451 0.60211 0.37482 0.0
H527 H 0.65504 0.82411 0.45637 0.0
H528 H 0.708 0.91444 0.35535 0.0
H529 H 0.67352 0.86013 0.49593 0.0
H530 H 0.65521 0.64167 0.29095 0.0
H531 H 0.77755 0.02993 0.38922 0.0
H532 H 0.78688 0.03308 0.43485 0.0
H533 H 0.70011 0.70845 0.27053 0.0
H534 H 0.7672 0.99775 0.4744 0.0
N535 N 0.71843 0.91308 0.39354 0.0
C536 C 0.72143 0.93174 0.37168 0.0
C537 C 0.76087 0.99729 0.39067 0.0
C538 C 0.75543 0.97826 0.41327 0.0
C539 C 0.74303 0.97391 0.36987 0.0
C540 C 0.73333 0.93566 0.4141 0.0
H541 H 0.72381 0.93316 0.49741 0.0
N542 N 0.69597 0.87572 0.43575 0.0
C543 C 0.68758 0.87624 0.47926 0.0
C544 C 0.72179 0.91608 0.43615 0.0
C545 C 0.6771 0.85597 0.4568 0.0
C546 C 0.71615 0.91739 0.48004 0.0
C547 C 0.73276 0.93811 0.45823 0.0
O548 O 0.62467 0.8308 0.41247 0.0
O549 O 0.67283 0.78647 0.38621 0.0
O550 O 0.68255 0.78511 0.34573 0.0
O551 O 0.68011 0.84267 0.35734 0.0
O552 O 0.64091 0.78605 0.41591 0.0
O553 O 0.64332 0.85678 0.37701 0.0
O554 O 0.78787 0.81272 0.3627 0.0
O555 O 0.73521 0.84599 0.38446 0.0
O556 O 0.72246 0.84081 0.42623 0.0
O557 O 0.7271 0.7857 0.41189 0.0
O558 O 0.76537 0.84583 0.35371 0.0
O559 O 0.76071 0.76689 0.39032 0.0
C560 C 0.64691 0.76313 0.40147 0.0
C561 C 0.60188 0.87528 0.39904 0.0
C562 C 0.55015 0.89544 0.39765 0.0
C563 C 0.56174 0.86594 0.39405 0.0
C564 C 0.57885 0.93386 0.40628 0.0
C565 C 0.62931 0.91366 0.40828 0.0
C566 C 0.61802 0.94273 0.41172 0.0
C567 C 0.67481 0.81445 0.34094 0.0
C568 C 0.61583 0.84604 0.39381 0.0
C569 C 0.75796 0.98028 0.45763 0.0
C570 C 0.76919 1.00038 0.43513 0.0
C571 C 0.76003 0.86872 0.36849 0.0
C572 C 0.81628 0.77117 0.36846 0.0
C573 C 0.85875 0.79217 0.37048 0.0
C574 C 0.88154 0.77573 0.36074 0.0
C575 C 0.86096 0.73763 0.34931 0.0
C576 C 0.79653 0.73335 0.35692 0.0
C577 C 0.81884 0.71666 0.34749 0.0
C578 C 0.73279 0.81248 0.42896 0.0
C579 C 0.79337 0.78982 0.37789 0.0
H580 H 0.53989 0.83625 0.38724 0.0
H581 H 0.57062 0.95681 0.40934 0.0
H582 H 0.6596 0.9214 0.41279 0.0
H583 H 0.63976 0.97228 0.41871 0.0
H584 H 0.87402 0.82167 0.3791 0.0
H585 H 0.87745 0.72387 0.34188 0.0
H586 H 0.76396 0.71679 0.35515 0.0
H587 H 0.80343 0.6874 0.33865 0.0
Tb588 Tb 0.85026 0.66815 0.90447 0.0
C589 C 0.9826 0.67791 0.8349 0.0
C590 C 1.00887 0.63931 0.85459 0.0
C591 C 1.01001 0.64436 0.8103 0.0
C592 C 0.99031 0.66315 0.85586 0.0
C593 C 0.99279 0.66923 0.81183 0.0
C594 C 1.01804 0.62941 0.83166 0.0
C595 C 0.97028 0.71213 0.79376 0.0
N596 N 0.96604 0.70182 0.83724 0.0
C597 C 0.96089 0.71999 0.81708 0.0
C598 C 0.98598 0.68635 0.79108 0.0
Tb599 Tb 0.94963 0.71135 0.87607 0.0
N600 N 0.98124 0.67372 0.87757 0.0
C601 C 0.9927 0.66359 0.8989 0.0
C602 C 1.01853 0.62702 0.87638 0.0
C603 C 1.01087 0.63967 0.89863 0.0
H604 H 0.94841 0.73966 0.81872 0.0
H605 H 1.0189 0.63098 0.91563 0.0
H606 H 0.03204 0.61089 0.83029 0.0
H607 H 0.96525 0.72587 0.77786 0.0
H608 H 0.98714 0.67289 0.91635 0.0
H609 H 0.76467 0.7313 0.86446 0.0
H610 H 0.03271 0.60859 0.87623 0.0
H611 H 0.85759 0.64702 0.96261 0.0
H612 H 0.80266 0.69518 0.86432 0.0
H613 H 0.84463 0.66556 0.00333 0.0
H614 H 1.01785 0.63711 0.79274 0.0
H615 H 0.75538 0.75943 0.903 0.0
H616 H 0.76495 0.76709 0.94855 0.0
H617 H 0.99329 0.68037 0.77301 0.0
H618 H 0.78722 0.74951 0.98651 0.0
N619 N 0.81596 0.70314 0.90247 0.0
C620 C 0.79899 0.70711 0.88137 0.0
C621 C 0.77213 0.74349 0.90309 0.0
C622 C 0.78769 0.73757 0.92484 0.0
C623 C 0.77723 0.72757 0.88133 0.0
C624 C 0.80926 0.71658 0.92391 0.0
H625 H 0.81643 0.71108 0.00715 0.0
N626 N 0.83889 0.68334 0.94331 0.0
C627 C 0.83823 0.67756 0.98711 0.0
C628 C 0.82155 0.70665 0.94513 0.0
C629 C 0.84542 0.66703 0.96395 0.0
C630 C 0.82246 0.70338 0.9892 0.0
C631 C 0.813 0.7175 0.96806 0.0
O632 O 0.81122 0.60905 0.91727 0.0
O633 O 0.8976 0.65794 0.8908 0.0
O634 O 0.9061 0.66679 0.85089 0.0
O635 O 0.84825 0.66779 0.86347 0.0
O636 O 0.86812 0.62779 0.92158 0.0
O637 O 0.79409 0.63187 0.88669 0.0
O638 O 0.98722 0.77226 0.86608 0.0
O639 O 0.90097 0.72019 0.88872 0.0
O640 O 0.8969 0.71313 0.92979 0.0
O641 O 0.95264 0.70978 0.91589 0.0
O642 O 0.93202 0.75225 0.85881 0.0
O643 O 1.00474 0.74593 0.89488 0.0
C644 C 0.89539 0.6323 0.90624 0.0
C645 C 0.74125 0.58591 0.91277 0.0
C646 C 0.66796 0.53687 0.91353 0.0
C647 C 0.70657 0.55222 0.90247 0.0
C648 C 0.66536 0.55567 0.93508 0.0
C649 C 0.73682 0.60366 0.93408 0.0
C650 C 0.69931 0.58873 0.94507 0.0
C651 C 0.86963 0.66123 0.84662 0.0
C652 C 0.78226 0.60211 0.90202 0.0
C653 C 0.79372 0.74053 0.96909 0.0
C654 C 0.78102 0.75051 0.94749 0.0
C655 C 0.9037 0.74638 0.87363 0.0
C656 C 0.05707 0.80133 0.8732 0.0
C657 C 0.0785 0.84392 0.87496 0.0
C658 C 0.11815 0.86672 0.86572 0.0
C659 C 0.13611 0.84598 0.85514 0.0
C660 C 0.07565 0.78153 0.86246 0.0
C661 C 0.11504 0.80381 0.85361 0.0
C662 C 0.93415 0.71925 0.93275 0.0
C663 C 1.01502 0.77829 0.88195 0.0
H664 H 0.70966 0.53827 0.88601 0.0
H665 H 0.63704 0.54433 0.94473 0.0
H666 H 0.76251 0.62871 0.9426 0.0
H667 H 0.6966 0.60256 0.96169 0.0
H668 H 0.06392 0.85927 0.88294 0.0
H669 H 0.16665 0.86239 0.84813 0.0
H670 H 0.05967 0.74892 0.86084 0.0
H671 H 0.12928 0.78835 0.84539 0.0
Tb672 Tb 0.20456 0.84567 0.39835 0.0
C673 C 0.33327 0.98227 0.33389 0.0
C674 C 0.39635 1.00281 0.35485 0.0
C675 C 0.39585 1.01073 0.31081 0.0
C676 C 0.35405 0.98596 0.35519 0.0
C677 C 0.35395 0.99543 0.31148 0.0
C678 C 0.41702 1.01435 0.33247 0.0
C679 C 0.29089 0.98042 0.29254 0.0
N680 N 0.29287 0.96747 0.33537 0.0
C681 C 0.27175 0.9678 0.31521 0.0
C682 C 0.33207 0.99382 0.29059 0.0
Tb683 Tb 0.26424 0.94704 0.37329 0.0
N684 N 0.333 0.97488 0.37641 0.0
C685 C 0.35312 0.98278 0.39824 0.0
C686 C 0.41669 1.00859 0.37705 0.0
C687 C 0.39502 0.99905 0.39886 0.0
H688 H 0.23995 0.9576 0.31628 0.0
H689 H 0.41054 1.00417 0.41618 0.0
H690 H 0.44947 0.02704 0.3318 0.0
H691 H 0.27381 0.97976 0.27659 0.0
H692 H 0.33708 0.97569 0.41534 0.0
H693 H 0.06175 0.76858 0.35023 0.0
H694 H 0.44916 0.02131 0.37758 0.0
H695 H 0.22288 0.83945 0.45683 0.0
H696 H 0.13544 0.80409 0.35423 0.0
H697 H 0.18563 0.82138 0.49582 0.0
H698 H 0.41226 1.02067 0.29375 0.0
H699 H 1.01905 0.75687 0.38662 0.0
H700 H 1.0145 0.76153 0.43223 0.0
H701 H 0.34682 1.00366 0.27302 0.0
H702 H 0.04858 0.77644 0.47225 0.0
N703 N 0.13574 0.81435 0.39255 0.0
C704 C 0.11772 0.79965 0.37036 0.0
C705 C 0.05163 0.77274 0.38852 0.0
C706 C 0.06997 0.78548 0.41141 0.0
C707 C 0.07563 0.7792 0.36797 0.0
C708 C 0.11254 0.80593 0.41283 0.0
H709 H 0.11244 0.79782 0.49619 0.0
N710 N 0.1718 0.82823 0.43533 0.0
C711 C 0.16999 0.81922 0.47889 0.0
C712 C 0.13141 0.81343 0.43514 0.0
C713 C 0.19098 0.82935 0.45673 0.0
C714 C 0.12875 0.80616 0.47905 0.0
C715 C 0.10869 0.80205 0.45691 0.0
O716 O 0.21552 0.80058 0.41273 0.0
O717 O 0.26355 0.89324 0.38694 0.0
O718 O 0.26471 0.90643 0.3458 0.0
O719 O 0.20685 0.84637 0.35736 0.0
O720 O 0.26092 0.86131 0.41721 0.0
O721 O 0.19235 0.79534 0.37653 0.0
O722 O 0.23892 0.98411 0.36717 0.0
O723 O 0.20538 0.89872 0.38469 0.0
O724 O 0.20728 0.89018 0.42586 0.0
O725 O 0.26573 0.94815 0.41316 0.0
O726 O 0.20746 0.93073 0.35428 0.0
O727 O 0.29134 1.00473 0.38986 0.0
C728 C 0.28545 0.88914 0.40271 0.0
C729 C 0.17188 0.73404 0.39752 0.0
C730 C 0.15227 0.66224 0.39531 0.0
C731 C 0.18203 0.70364 0.39324 0.0
C732 C 0.11275 0.65187 0.40181 0.0
C733 C 0.13232 0.72237 0.40462 0.0
C734 C 0.10301 0.68173 0.40662 0.0
C735 C 0.23503 0.86941 0.341 0.0
C736 C 0.20159 0.77754 0.3935 0.0
C737 C 0.06656 0.78496 0.45573 0.0
C738 C 0.04717 0.77652 0.43296 0.0
C739 C 0.18359 0.90209 0.36857 0.0
C740 C 0.28247 0.05414 0.3687 0.0
C741 C 0.26446 0.07777 0.37375 0.0
C742 C 0.27693 0.11466 0.36138 0.0
C743 C 0.30808 0.12711 0.34393 0.0
C744 C 0.31388 0.0679 0.3517 0.0
C745 C 0.32656 0.10418 0.33941 0.0
C746 C 0.23695 0.92819 0.42933 0.0
C747 C 0.266 1.01395 0.37999 0.0
H748 H 0.21257 0.71204 0.38803 0.0
H749 H 0.08951 0.62046 0.40372 0.0
H750 H 0.12382 0.74458 0.4085 0.0
H751 H 0.07256 0.67334 0.41197 0.0
H752 H 0.24066 0.06705 0.38726 0.0
H753 H 0.3179 0.15422 0.33325 0.0
H754 H 0.3282 0.05036 0.34763 0.0
H755 H 0.35043 0.1143 0.32599 0.0
Tb756 Tb 0.37466 0.19217 0.89887 0.0
C757 C 0.36541 0.31932 0.83433 0.0
C758 C 0.41088 0.38205 0.85456 0.0
C759 C 0.40158 0.38093 0.81057 0.0
C760 C 0.38417 0.33997 0.85525 0.0
C761 C 0.37267 0.33962 0.81181 0.0
C762 C 0.4207 0.40217 0.83197 0.0
C763 C 0.31798 0.27843 0.7946 0.0
N764 N 0.3371 0.27984 0.83658 0.0
C765 C 0.31169 0.25995 0.81749 0.0
C766 C 0.34921 0.31824 0.7916 0.0
Tb767 Tb 0.33089 0.25042 0.87404 0.0
N768 N 0.37285 0.3194 0.87662 0.0
C769 C 0.38385 0.34024 0.89825 0.0
C770 C 0.425 0.40288 0.87665 0.0
C771 C 0.41055 0.38202 0.8986 0.0
H772 H 0.28701 0.22945 0.81969 0.0
H773 H 0.42015 0.39802 0.91583 0.0
H774 H 0.4416 0.4344 0.83099 0.0
H775 H 0.29858 0.26205 0.77935 0.0
H776 H 0.37334 0.32486 0.91547 0.0
H777 H 0.30641 0.04679 0.85358 0.0
H778 H 0.44557 0.43522 0.87697 0.0
H779 H 0.40204 0.21304 0.95689 0.0
H780 H 0.34541 0.12071 0.85604 0.0
H781 H 0.38337 0.17787 0.99662 0.0
H782 H 0.40804 0.39704 0.79338 0.0
H783 H 0.27591 1.00619 0.89076 0.0
H784 H 0.26756 1.00415 0.9364 0.0
H785 H 0.35377 0.33267 0.77394 0.0
H786 H 0.2881 0.04027 0.97575 0.0
N787 N 0.33651 0.12311 0.89438 0.0
C788 C 0.33237 0.10386 0.87255 0.0
C789 C 0.29297 0.03885 0.89202 0.0
C790 C 0.2992 0.05845 0.91452 0.0
C791 C 0.31026 0.06167 0.87102 0.0
C792 C 0.32174 0.10106 0.9151 0.0
H793 H 0.33228 0.10512 0.99843 0.0
N794 N 0.36017 0.16135 0.93649 0.0
C795 C 0.36895 0.16154 0.98002 0.0
C796 C 0.33379 0.12108 0.93707 0.0
C797 C 0.37951 0.18135 0.95746 0.0
C798 C 0.33993 0.12056 0.98099 0.0
C799 C 0.32286 0.0995 0.95927 0.0
O800 O 0.43218 0.20619 0.91234 0.0
O801 O 0.38532 0.2506 0.88631 0.0
O802 O 0.36581 0.24587 0.84428 0.0
O803 O 0.37499 0.1926 0.85794 0.0
O804 O 0.41634 0.24954 0.91645 0.0
O805 O 0.41075 0.17563 0.87821 0.0
O806 O 0.26832 0.22556 0.86819 0.0
O807 O 0.32168 0.19218 0.88566 0.0
O808 O 0.33363 0.19504 0.92668 0.0
O809 O 0.3338 0.25319 0.91388 0.0
O810 O 0.28892 0.1928 0.85626 0.0
O811 O 0.30026 0.27535 0.89273 0.0
C812 C 0.41183 0.2731 0.90176 0.0
C813 C 0.4526 0.15886 0.90148 0.0
C814 C 0.50362 0.13773 0.90387 0.0
C815 C 0.49213 0.16616 0.89654 0.0
C816 C 0.47495 0.10193 0.9154 0.0
C817 C 0.42531 0.123 0.91336 0.0
C818 C 0.43618 0.09468 0.92005 0.0
C819 C 0.37518 0.2173 0.8406 0.0
C820 C 0.43931 0.18806 0.89453 0.0
C821 C 0.29728 0.05739 0.95889 0.0
C822 C 0.28559 0.03683 0.9365 0.0
C823 C 0.29513 0.16958 0.87032 0.0
C824 C 0.24262 0.26955 0.87245 0.0
C825 C 0.2002 0.2488 0.87477 0.0
C826 C 0.17719 0.26462 0.86446 0.0
C827 C 0.19755 0.3019 0.85217 0.0
C828 C 0.26211 0.30652 0.86001 0.0
C829 C 0.23961 0.32262 0.85004 0.0
C830 C 0.32569 0.22484 0.93023 0.0
C831 C 0.26574 0.25137 0.88231 0.0
H832 H 0.51391 0.19396 0.88769 0.0
H833 H 0.48277 0.07955 0.92107 0.0
H834 H 0.3955 0.11681 0.91764 0.0
H835 H 0.41451 0.06712 0.92915 0.0
H836 H 0.18511 0.2199 0.88404 0.0
H837 H 0.18094 0.31522 0.84429 0.0
H838 H 0.29463 0.32282 0.85792 0.0
H839 H 0.25482 0.35122 0.84051 0.0
Tb840 Tb 0.20823 0.37023 0.40093 0.0
C841 C 0.06885 0.35864 0.33727 0.0
C842 C 0.05192 0.40379 0.35812 0.0
C843 C 0.04095 0.3934 0.31432 0.0
C844 C 0.06765 0.3774 0.35835 0.0
C845 C 0.0543 0.36524 0.31509 0.0
C846 C 0.0398 0.41272 0.33584 0.0
C847 C 0.06188 0.31169 0.29725 0.0
N848 N 0.0812 0.33121 0.33903 0.0
C849 C 0.07561 0.30606 0.31981 0.0
C850 C 0.05192 0.34199 0.29473 0.0
Tb851 Tb 0.10604 0.32549 0.37602 0.0
N852 N 0.07896 0.36721 0.37941 0.0
C853 C 0.07161 0.37963 0.40131 0.0
C854 C 0.04733 0.41901 0.38036 0.0
C855 C 0.0565 0.40623 0.40209 0.0
H856 H 0.08236 0.28198 0.3217 0.0
H857 H 0.05203 0.41692 0.41948 0.0
H858 H 1.02812 0.43331 0.33522 0.0
H859 H 0.05871 0.29246 0.28189 0.0
H860 H 0.07849 0.37035 0.41837 0.0
H861 H 0.29005 0.30712 0.3558 0.0
H862 H 0.03547 0.43945 0.38102 0.0
H863 H 0.21034 0.39455 0.45926 0.0
H864 H 0.25197 0.34298 0.35805 0.0
H865 H 0.2274 0.37643 0.49901 0.0
H866 H 1.0301 0.39932 0.2974 0.0
H867 H 0.30249 0.2787 0.39318 0.0
H868 H 0.29634 0.27024 0.43875 0.0
H869 H 0.0409 0.34606 0.27733 0.0
H870 H 0.27829 0.28839 0.47802 0.0
N871 N 0.24166 0.33464 0.39648 0.0
C872 C 0.2569 0.33086 0.37464 0.0
C873 C 0.28555 0.29439 0.39433 0.0
C874 C 0.27165 0.29994 0.41678 0.0
C875 C 0.27873 0.31054 0.37323 0.0
C876 C 0.25006 0.32094 0.41727 0.0
H877 H 0.25319 0.32869 0.50072 0.0
N878 N 0.22336 0.35509 0.43872 0.0
C879 C 0.23071 0.36309 0.48236 0.0
C880 C 0.24008 0.33112 0.43923 0.0
C881 C 0.22097 0.37321 0.4598 0.0
C882 C 0.2451 0.33602 0.48326 0.0
C883 C 0.25114 0.32063 0.46147 0.0
O884 O 0.24785 0.42923 0.41392 0.0
O885 O 0.16041 0.38052 0.38782 0.0
O886 O 0.14499 0.36023 0.34605 0.0
O887 O 0.20826 0.3714 0.35991 0.0
O888 O 0.19056 0.40979 0.41889 0.0
O889 O 0.26402 0.40653 0.38289 0.0
O890 O 0.06856 0.26286 0.37016 0.0
O891 O 0.15594 0.31757 0.387 0.0
O892 O 0.16454 0.32645 0.42783 0.0
O893 O 0.10685 0.32772 0.41586 0.0
O894 O 0.12192 0.28382 0.35804 0.0
O895 O 0.05095 0.29437 0.39513 0.0
C896 C 0.16378 0.40652 0.40345 0.0
C897 C 0.31771 0.45192 0.40894 0.0
C898 C 0.39117 0.50023 0.40949 0.0
C899 C 0.3524 0.48549 0.39866 0.0
C900 C 0.39401 0.48105 0.43077 0.0
C901 C 0.32247 0.43382 0.42997 0.0
C902 C 0.36012 0.44817 0.44074 0.0
C903 C 0.18324 0.37054 0.34246 0.0
C904 C 0.27644 0.43613 0.39846 0.0
C905 C 0.26998 0.29718 0.46113 0.0
C906 C 0.2803 0.2869 0.43878 0.0
C907 C 0.1521 0.29105 0.37175 0.0
C908 C 0.99879 0.23668 0.37493 0.0
C909 C 0.97722 0.19419 0.37703 0.0
C910 C 0.9382 0.1712 0.36685 0.0
C911 C 0.92097 0.1916 0.35496 0.0
C912 C 0.98093 0.25619 0.3629 0.0
C913 C 0.94215 0.23369 0.35309 0.0
C914 C 0.12672 0.31812 0.43161 0.0
C915 C 0.04035 0.25996 0.38455 0.0
H916 H 0.3492 0.49984 0.38243 0.0
H917 H 0.4225 0.49197 0.44024 0.0
H918 H 0.29703 0.40894 0.43853 0.0
H919 H 0.36296 0.434 0.45716 0.0
H920 H 0.99124 0.17904 0.386 0.0
H921 H 0.89091 0.17497 0.34718 0.0
H922 H 0.99698 0.28874 0.36102 0.0
H923 H 0.92851 0.24894 0.34387 0.0
Tb924 Tb 0.85275 0.19241 0.89959 0.0
C925 C 0.72872 0.05917 0.82924 0.0
C926 C 0.66319 0.03523 0.84756 0.0
C927 C 0.66878 0.03157 0.80352 0.0
C928 C 0.70549 0.05308 0.84965 0.0
C929 C 0.7107 0.04797 0.80591 0.0
C930 C 0.64504 0.02522 0.82433 0.0
C931 C 0.77643 0.06781 0.78934 0.0
N932 N 0.769 0.07497 0.83242 0.0
C933 C 0.79285 0.07838 0.81286 0.0
C934 C 0.73523 0.05288 0.7858 0.0
Tb935 Tb 0.7934 0.09236 0.87166 0.0
N936 N 0.7242 0.06271 0.87169 0.0
C937 C 0.70166 0.05233 0.89261 0.0
C938 C 0.64034 0.02692 0.86889 0.0
C939 C 0.65965 0.03501 0.89153 0.0
H940 H 0.82481 0.09015 0.815 0.0
H941 H 0.64222 0.02794 0.9082 0.0
H942 H 0.61263 1.01175 0.82233 0.0
H943 H 0.79565 0.07135 0.77394 0.0
H944 H 0.71577 0.05822 0.91034 0.0
H945 H 1.00125 0.27383 0.85915 0.0
H946 H 0.60779 1.01333 0.8681 0.0
H947 H 0.82638 0.18967 0.95761 0.0
H948 H 0.92705 0.23836 0.85939 0.0
H949 H 0.85835 0.20156 0.99826 0.0
H950 H 0.65438 0.02301 0.78575 0.0
H951 H 0.03887 0.27999 0.89722 0.0
H952 H 0.03727 0.26895 0.94263 0.0
H953 H 0.72259 0.0447 0.76756 0.0
H954 H 0.99801 0.24884 0.9808 0.0
N955 N 0.92189 0.22345 0.89723 0.0
C956 C 0.94277 0.24072 0.87622 0.0
C957 C 1.00615 0.2643 0.89747 0.0
C958 C 0.9848 0.24863 0.91921 0.0
C959 C 0.98503 0.26102 0.87598 0.0
C960 C 0.94223 0.22865 0.91849 0.0
H961 H 0.93122 0.22453 1.0018 0.0
N962 N 0.88018 0.20393 0.9382 0.0
C963 C 0.87617 0.2062 0.98198 0.0
C964 C 0.92044 0.21826 0.93984 0.0
C965 C 0.85819 0.19965 0.95888 0.0
C966 C 0.91725 0.21895 0.9839 0.0
C967 C 0.94017 0.22617 0.96266 0.0
O968 O 0.83951 0.23598 0.91375 0.0
O969 O 0.79444 0.14581 0.88635 0.0
O970 O 0.79425 0.13568 0.84581 0.0
O971 O 0.8533 0.19386 0.85853 0.0
O972 O 0.79515 0.17819 0.91619 0.0
O973 O 0.87089 0.24626 0.87987 0.0
O974 O 0.81643 0.05351 0.86438 0.0
O975 O 0.8517 0.14031 0.88417 0.0
O976 O 0.84808 0.14482 0.92538 0.0
O977 O 0.78763 0.09148 0.91126 0.0
O978 O 0.85144 0.10756 0.85474 0.0
O979 O 0.76927 0.03719 0.89069 0.0
C980 C 0.77176 0.15039 0.90124 0.0
C981 C 0.88724 0.30417 0.90391 0.0
C982 C 0.90797 0.37623 0.90716 0.0
C983 C 0.87991 0.33648 0.89922 0.0
C984 C 0.94341 0.38316 0.91911 0.0
C985 C 0.92272 0.31245 0.91624 0.0
C986 C 0.9507 0.35155 0.92354 0.0
C987 C 0.82515 0.17231 0.84167 0.0
C988 C 0.85821 0.2619 0.89632 0.0
C989 C 0.98229 0.2429 0.96347 0.0
C990 C 1.00463 0.2543 0.94174 0.0
C991 C 0.87452 0.13637 0.86917 0.0
C992 C 0.77307 0.98387 0.87083 0.0
C993 C 0.79304 0.96155 0.8741 0.0
C994 C 0.77605 0.92171 0.86502 0.0
C995 C 0.7384 0.90452 0.85305 0.0
C996 C 0.73576 0.96602 0.85871 0.0
C997 C 0.7185 0.92648 0.85 0.0
C998 C 0.81602 0.10798 0.92812 0.0
C999 C 0.79217 0.02601 0.87958 0.0
H1000 H 0.85231 0.3306 0.89012 0.0
H1001 H 0.96537 0.41321 0.92535 0.0
H1002 H 0.9288 0.28867 0.92046 0.0
H1003 H 0.97796 0.35729 0.93299 0.0
H1004 H 0.82218 0.97555 0.88316 0.0
H1005 H 0.72417 0.87388 0.84611 0.0
H1006 H 0.72005 0.98266 0.85592 0.0
H1007 H 0.68961 0.91282 0.84071 0.0
H1008 H 0.16205 0.92417 0.09563 0.0
H1009 H 0.265 0.11937 0.18289 0.0
H1010 H 0.17641 0.92029 0.17344 0.0
H1011 H 0.23782 0.12676 0.10721 0.0
H1012 H 0.23246 0.04621 0.17903 0.0
H1013 H 0.1883 0.99763 0.09865 0.0
C1014 C 0.17119 0.93894 0.11327 0.0
C1015 C 0.16891 0.91667 0.13418 0.0
C1016 C 0.23335 0.06364 0.16322 0.0
C1017 C 0.19788 1.00009 0.13793 0.0
C1018 C 0.25221 0.10561 0.16539 0.0
C1019 C 0.25451 0.12952 0.14531 0.0
C1020 C 0.21659 0.04488 0.14073 0.0
C1021 C 0.23663 0.10961 0.12322 0.0
C1022 C 0.18573 0.9807 0.11505 0.0
C1023 C 0.17905 0.93669 0.15678 0.0
N1024 N 0.21872 0.06853 0.12146 0.0
N1025 N 0.19362 0.97719 0.158 0.0
H1026 H 0.26403 0.15448 0.59512 0.0
H1027 H 0.17462 0.26595 0.6771 0.0
H1028 H 0.28432 0.17661 0.67242 0.0
H1029 H 0.13693 0.23102 0.60246 0.0
H1030 H 0.21634 0.23458 0.67458 0.0
H1031 H 0.21853 0.18293 0.59616 0.0
C1032 C 0.25936 0.16591 0.61218 0.0
C1033 C 0.27923 0.16485 0.63354 0.0
C1034 C 0.19894 0.23355 0.65869 0.0
C1035 C 0.22663 0.19625 0.63507 0.0
C1036 C 0.17515 0.2517 0.6601 0.0
C1037 C 0.1523 0.25147 0.63992 0.0
C1038 C 0.20038 0.21489 0.63687 0.0
C1039 C 0.15384 0.2318 0.61852 0.0
C1040 C 0.2331 0.1817 0.61285 0.0
C1041 C 0.27065 0.17814 0.65541 0.0
N1042 N 0.17766 0.21455 0.61749 0.0
N1043 N 0.24552 0.19365 0.65554 0.0
H1044 H 0.93206 0.16413 0.17655 0.0
H1045 H 0.13526 0.25193 0.0973 0.0
H1046 H 0.93219 0.12332 0.10309 0.0
H1047 H 0.13136 0.27568 0.17387 0.0
H1048 H 0.06151 0.20512 0.09799 0.0
H1049 H 1.00529 0.20615 0.1749 0.0
C1050 C 0.94751 0.16404 0.16 0.0
C1051 C 0.92573 0.14025 0.13988 0.0
C1052 C 0.0768 0.22072 0.1146 0.0
C1053 C 1.01038 0.18854 0.13787 0.0
C1054 C 0.1187 0.24772 0.11411 0.0
C1055 C 0.13887 0.26902 0.1353 0.0
C1056 C 0.05522 0.21502 0.13647 0.0
C1057 C 0.1166 0.26095 0.15694 0.0
C1058 C 0.9895 0.18796 0.15911 0.0
C1059 C 0.94771 0.14099 0.11909 0.0
N1060 N 0.07606 0.23514 0.15689 0.0
N1061 N 0.98878 0.16494 0.11854 0.0
H1062 H 0.75805 0.92262 0.6599 0.0
H1063 H 0.91056 0.12581 0.59783 0.0
H1064 H 0.86333 0.92692 0.62771 0.0
H1065 H 0.87884 0.1238 0.6735 0.0
H1066 H 0.88321 0.05185 0.59958 0.0
H1067 H 0.7905 0.99549 0.65594 0.0
C1068 C 0.78804 0.93852 0.65213 0.0
C1069 C 0.80821 0.91785 0.64491 0.0
C1070 C 0.88236 0.0678 0.61572 0.0
C1071 C 0.84448 1.00208 0.63892 0.0
C1072 C 0.89739 0.10968 0.61465 0.0
C1073 C 0.8953 0.1304 0.6353 0.0
C1074 C 0.86468 0.0468 0.63744 0.0
C1075 C 0.87977 0.10861 0.65701 0.0
C1076 C 0.80629 0.98032 0.64963 0.0
C1077 C 0.84628 0.94094 0.63365 0.0
N1078 N 0.86417 0.0679 0.65737 0.0
N1079 N 0.86316 0.98179 0.63095 0.0
H1080 H 0.9294 0.81481 0.09807 0.0
H1081 H 0.78695 0.87412 0.17407 0.0
H1082 H 0.89388 0.78104 0.173 0.0
H1083 H 0.8003 0.88835 0.096 0.0
H1084 H 0.8329 0.84708 0.17434 0.0
H1085 H 0.88841 0.84798 0.09712 0.0
C1086 C 0.91328 0.81465 0.11436 0.0
C1087 C 0.91498 0.7949 0.13562 0.0
C1088 C 0.82578 0.8559 0.15708 0.0
C1089 C 0.86825 0.83298 0.1347 0.0
C1090 C 0.7995 0.87128 0.15694 0.0
C1091 C 0.7885 0.88172 0.13487 0.0
C1092 C 0.84212 0.85175 0.135 0.0
C1093 C 0.80678 0.87898 0.11327 0.0
C1094 C 0.88975 0.83341 0.11377 0.0
C1095 C 0.89315 0.79539 0.15611 0.0
N1096 N 0.83251 0.86395 0.11383 0.0
N1097 N 0.87088 0.81408 0.15514 0.0
H1098 H 0.92897 0.79585 0.59822 0.0
H1099 H 0.12801 0.88711 0.68231 0.0
H1100 H 0.92874 0.77648 0.67571 0.0
H1101 H 0.13247 0.9219 0.60695 0.0
H1102 H 0.05476 0.84634 0.67943 0.0
H1103 H 1.00271 0.84252 0.60014 0.0
C1104 C 0.9446 0.80105 0.61553 0.0
C1105 C 0.92322 0.78095 0.63667 0.0
C1106 C 0.07155 0.86294 0.66347 0.0
C1107 C 1.00698 0.83484 0.63918 0.0
C1108 C 0.11358 0.88616 0.66508 0.0
C1109 C 0.13672 0.90788 0.6448 0.0
C1110 C 0.05191 0.86094 0.64134 0.0
C1111 C 0.11595 0.90587 0.6231 0.0
C1112 C 0.98652 0.82798 0.6167 0.0
C1113 C 0.94439 0.7903 0.65887 0.0
N1114 N 0.0748 0.88259 0.62188 0.0
N1115 N 0.98498 0.81598 0.65948 0.0
H1116 H 0.13391 0.89355 0.40735 0.0
H1117 H 0.93454 0.78547 0.32434 0.0
H1118 H 0.13434 0.87895 0.32934 0.0
H1119 H 0.93144 0.81741 0.39958 0.0
H1120 H 1.00802 0.81966 0.32649 0.0
H1121 H 0.06046 0.86738 0.40561 0.0
C1122 C 0.11839 0.88451 0.38993 0.0
C1123 C 0.13961 0.88655 0.36859 0.0
C1124 C 0.99143 0.81949 0.34255 0.0
C1125 C 0.05626 0.85755 0.36631 0.0
C1126 C 0.94934 0.79967 0.34137 0.0
C1127 C 0.92664 0.79829 0.36185 0.0
C1128 C 1.0114 0.83804 0.36444 0.0
C1129 C 0.94771 0.81788 0.3833 0.0
C1130 C 0.07665 0.87 0.38888 0.0
C1131 C 0.1187 0.87649 0.3463 0.0
N1132 N 0.98886 0.83665 0.38412 0.0
N1133 N 0.07818 0.86181 0.34579 0.0
H1134 H 0.16233 0.91873 0.8291 0.0
H1135 H 0.25462 0.12089 0.90964 0.0
H1136 H 0.12581 0.91799 0.90369 0.0
H1137 H 0.26889 0.11887 0.83173 0.0
H1138 H 0.20708 0.04735 0.90871 0.0
H1139 H 0.2022 0.99225 0.83053 0.0
C1140 C 0.16269 0.93405 0.84583 0.0
C1141 C 0.14076 0.91194 0.86634 0.0
C1142 C 0.22059 0.06301 0.89182 0.0
C1143 C 0.18659 0.99689 0.86811 0.0
C1144 C 0.24801 0.10481 0.89242 0.0
C1145 C 0.26709 0.12541 0.87089 0.0
C1146 C 0.21232 0.04188 0.86952 0.0
C1147 C 0.25592 0.10375 0.84885 0.0
C1148 C 0.18534 0.97619 0.8466 0.0
C1149 C 0.14204 0.93374 0.88739 0.0
N1150 N 0.22992 0.06319 0.84878 0.0
N1151 N 0.16483 0.97494 0.88782 0.0
H1152 H 0.18024 0.26966 0.33274 0.0
H1153 H 0.19828 0.08982 0.37637 0.0
H1154 H 0.1615 0.25027 0.41031 0.0
H1155 H 0.30993 0.19747 0.35694 0.0
H1156 H 0.16663 0.13148 0.38128 0.0
H1157 H 0.20901 0.22472 0.33201 0.0
C1158 C 0.1823 0.25593 0.3496 0.0
C1159 C 0.17027 0.26493 0.3718 0.0
C1160 C 0.1981 0.14561 0.37602 0.0
C1161 C 0.2009 0.21219 0.37081 0.0
C1162 C 0.21648 0.122 0.37334 0.0
C1163 C 0.25715 0.13964 0.36589 0.0
C1164 C 0.22008 0.18692 0.37066 0.0
C1165 C 0.27833 0.18174 0.36186 0.0
C1166 C 0.19847 0.23032 0.34913 0.0
C1167 C 0.17205 0.24525 0.39303 0.0
N1168 N 0.25939 0.20368 0.36386 0.0
N1169 N 0.18725 0.2197 0.39206 0.0
H1170 H 0.12817 0.22508 0.90389 0.0
H1171 H 0.92364 0.16445 0.83017 0.0
H1172 H 0.12327 0.25299 0.82805 0.0
H1173 H 0.92492 0.14424 0.90746 0.0
H1174 H 0.99663 0.19156 0.82883 0.0
H1175 H 0.05401 0.19089 0.90554 0.0
C1176 C 0.11153 0.22374 0.88754 0.0
C1177 C 0.13211 0.2422 0.86582 0.0
C1178 C 0.9812 0.18143 0.84617 0.0
C1179 C 0.04724 0.20299 0.86757 0.0
C1180 C 0.93956 0.16612 0.84692 0.0
C1181 C 0.91879 0.1541 0.86916 0.0
C1182 C 1.00232 0.18398 0.86777 0.0
C1183 C 0.94035 0.15507 0.89017 0.0
C1184 C 0.06922 0.20435 0.88853 0.0
C1185 C 0.1089 0.23978 0.84529 0.0
N1186 N 0.98109 0.17016 0.88903 0.0
N1187 N 0.06794 0.22065 0.84669 0.0
H1188 H 0.92785 0.12126 0.40599 0.0
H1189 H 0.78585 0.91875 0.32987 0.0
H1190 H 0.89679 0.11815 0.32993 0.0
H1191 H 0.80091 0.91802 0.40782 0.0
H1192 H 0.83286 0.99151 0.32943 0.0
H1193 H 0.88724 0.047 0.40708 0.0
C1194 C 0.91283 0.10499 0.38948 0.0
C1195 C 0.91557 0.12608 0.36787 0.0
C1196 C 0.82593 0.9757 0.34672 0.0
C1197 C 0.86927 0.04117 0.36895 0.0
C1198 C 0.79901 0.93415 0.34695 0.0
C1199 C 0.7881 0.91286 0.36905 0.0
C1200 C 0.84293 0.99626 0.36873 0.0
C1201 C 0.80724 0.93383 0.39055 0.0
C1202 C 0.88953 0.06263 0.39015 0.0
C1203 C 0.89517 0.10336 0.34709 0.0
N1204 N 0.83349 0.97454 0.38992 0.0
N1205 N 0.87301 0.06238 0.34817 0.0
H1206 H 0.87569 0.76683 0.83426 0.0
H1207 H 0.81583 0.91358 0.90502 0.0
H1208 H 0.89211 0.78674 0.9119 0.0
H1209 H 0.78518 0.87583 0.82999 0.0
H1210 H 0.84812 0.8719 0.90803 0.0
H1211 H 0.84713 0.81134 0.83237 0.0
C1212 C 0.87273 0.78028 0.85099 0.0
C1213 C 0.88441 0.77162 0.87342 0.0
C1214 C 0.83438 0.87287 0.89092 0.0
C1215 C 0.85303 0.82407 0.87138 0.0
C1216 C 0.81614 0.89682 0.88914 0.0
C1217 C 0.7975 0.89813 0.86724 0.0
C1218 C 0.8345 0.85046 0.87055 0.0
C1219 C 0.79859 0.87544 0.84735 0.0
C1220 C 0.85661 0.80588 0.84992 0.0
C1221 C 0.88176 0.79133 0.89441 0.0
N1222 N 0.81671 0.85275 0.84948 0.0
N1223 N 0.86612 0.81651 0.89293 0.0
H1224 H 0.15215 0.72092 0.06296 0.0
H1225 H 0.16425 0.54527 0.13673 0.0
H1226 H 0.16413 0.72526 0.14131 0.0
H1227 H 0.15893 0.55324 0.05842 0.0
H1228 H 0.16285 0.60911 0.14041 0.0
H1229 H 0.14965 0.65616 0.06255 0.0
C1230 C 0.15343 0.70767 0.0802 0.0
C1231 C 0.15777 0.72826 0.10218 0.0
C1232 C 0.16223 0.5969 0.12246 0.0
C1233 C 0.15662 0.65408 0.10192 0.0
C1234 C 0.16348 0.56074 0.12035 0.0
C1235 C 0.16168 0.54381 0.09721 0.0
C1236 C 0.15919 0.61615 0.10127 0.0
C1237 C 0.16014 0.56491 0.07663 0.0
C1238 C 0.15242 0.67074 0.07998 0.0
C1239 C 0.16001 0.70998 0.12399 0.0
N1240 N 0.15878 0.59953 0.07916 0.0
N1241 N 0.15971 0.674 0.12331 0.0
H1242 H 0.64321 0.15356 0.63957 0.0
H1243 H 0.44526 0.12152 0.5681 0.0
H1244 H 0.62239 0.13571 0.56198 0.0
H1245 H 0.46352 0.15505 0.64414 0.0
H1246 H 0.50741 0.11884 0.56816 0.0
H1247 H 0.57741 0.15084 0.64384 0.0
C1248 C 0.62518 0.1497 0.62344 0.0
C1249 C 0.63834 0.14468 0.60037 0.0
C1250 C 0.49792 0.12634 0.58503 0.0
C1251 C 0.56287 0.14059 0.60517 0.0
C1252 C 0.46201 0.12734 0.58505 0.0
C1253 C 0.44886 0.13792 0.60618 0.0
C1254 C 0.52194 0.13696 0.60622 0.0
C1255 C 0.47222 0.14597 0.62755 0.0
C1256 C 0.58747 0.14772 0.62591 0.0
C1257 C 0.61347 0.13933 0.58015 0.0
N1258 N 0.50794 0.14574 0.62699 0.0
N1259 N 0.57722 0.13723 0.58306 0.0
H1260 H 0.54554 0.58651 0.1 0.0
H1261 H 0.32386 0.45323 0.14863 0.0
H1262 H 0.48217 0.65034 0.11699 0.0
H1263 H 0.35265 0.44113 0.07416 0.0
H1264 H 0.39063 0.51533 0.15255 0.0
H1265 H 0.48318 0.52248 0.1068 0.0
C1266 C 0.51875 0.58725 0.10553 0.0
C1267 C 0.51907 0.62419 0.10718 0.0
C1268 C 0.3824 0.49845 0.13558 0.0
C1269 C 0.44793 0.55052 0.11603 0.0
C1270 C 0.3447 0.46286 0.13342 0.0
C1271 C 0.3332 0.44164 0.11116 0.0
C1272 C 0.40875 0.5121 0.11551 0.0
C1273 C 0.36069 0.45629 0.09171 0.0
C1274 C 0.48331 0.5506 0.10955 0.0
C1275 C 0.48349 0.62283 0.11531 0.0
N1276 N 0.39727 0.49033 0.09439 0.0
N1277 N 0.44914 0.58653 0.11914 0.0
H1278 H 0.86294 0.47903 0.58238 0.0
H1279 H 0.91293 0.32294 0.64759 0.0
H1280 H 0.9441 0.519 0.64397 0.0
H1281 H 0.90269 0.32954 0.5695 0.0
H1282 H 0.91347 0.38764 0.65161 0.0
H1283 H 0.8622 0.41441 0.58299 0.0
C1284 C 0.87959 0.47368 0.59649 0.0
C1285 C 0.90318 0.50415 0.61331 0.0
C1286 C 0.9115 0.37492 0.63364 0.0
C1287 C 0.90301 0.43055 0.61397 0.0
C1288 C 0.91171 0.33831 0.63131 0.0
C1289 C 0.90861 0.32117 0.6081 0.0
C1290 C 0.90647 0.39341 0.61271 0.0
C1291 C 0.90555 0.3418 0.58771 0.0
C1292 C 0.87962 0.43707 0.59666 0.0
C1293 C 0.92514 0.49601 0.63086 0.0
N1294 N 0.90407 0.37633 0.5905 0.0
N1295 N 0.92452 0.45999 0.63078 0.0
H1296 H 0.61651 0.9035 0.14485 0.0
H1297 H 0.41146 0.85888 0.07955 0.0
H1298 H 0.59867 0.89082 0.06685 0.0
H1299 H 0.45491 0.93755 0.14225 0.0
H1300 H 0.47427 0.85603 0.07957 0.0
H1301 H 0.55322 0.90547 0.14863 0.0
C1302 C 0.59985 0.90197 0.12852 0.0
C1303 C 0.61347 0.89791 0.10541 0.0
C1304 C 0.46978 0.87343 0.09356 0.0
C1305 C 0.53991 0.89745 0.10978 0.0
C1306 C 0.43375 0.8746 0.09373 0.0
C1307 C 0.42785 0.89815 0.11105 0.0
C1308 C 0.49999 0.8955 0.11105 0.0
C1309 C 0.45822 0.91877 0.12871 0.0
C1310 C 0.56349 0.90259 0.13071 0.0
C1311 C 0.58962 0.89444 0.08498 0.0
N1312 N 0.49296 0.91695 0.12831 0.0
N1313 N 0.55401 0.89386 0.08766 0.0
H1314 H 0.73837 0.59153 0.64977 0.0
H1315 H 0.5224 0.4541 0.59408 0.0
H1316 H 0.71637 0.59966 0.57333 0.0
H1317 H 0.58394 0.39047 0.61591 0.0
H1318 H 0.58421 0.51819 0.60197 0.0
H1319 H 0.67242 0.5277 0.6521 0.0
C1320 C 0.71925 0.58046 0.63371 0.0
C1321 C 0.73233 0.60125 0.61141 0.0
C1322 C 0.5838 0.49012 0.6055 0.0
C1323 C 0.6578 0.52894 0.61394 0.0
C1324 C 0.54866 0.45339 0.60084 0.0
C1325 C 0.54797 0.41641 0.60361 0.0
C1326 C 0.61857 0.49035 0.61369 0.0
C1327 C 0.58288 0.41796 0.61332 0.0
C1328 C 0.68205 0.54397 0.63499 0.0
C1329 C 0.70709 0.5849 0.59093 0.0
N1330 N 0.61698 0.45435 0.61772 0.0
N1331 N 0.67096 0.55012 0.59274 0.0
H1332 H 0.32902 0.89981 0.35981 0.0
H1333 H 0.48436 0.84884 0.42579 0.0
H1334 H 0.33361 0.88711 0.43782 0.0
H1335 H 0.52179 0.92606 0.36257 0.0
H1336 H 0.41981 0.84819 0.42545 0.0
H1337 H 0.39287 0.89889 0.35606 0.0
C1338 C 0.3438 0.89768 0.37615 0.0
C1339 C 0.32643 0.8945 0.39925 0.0
C1340 C 0.44188 0.86472 0.41138 0.0
C1341 C 0.39774 0.89076 0.39492 0.0
C1342 C 0.47841 0.8646 0.41139 0.0
C1343 C 0.50811 0.88703 0.39399 0.0
C1344 C 0.43474 0.88712 0.39369 0.0
C1345 C 0.49933 0.90794 0.37609 0.0
C1346 C 0.37992 0.89666 0.37397 0.0
C1347 C 0.34616 0.89016 0.4197 0.0
N1348 N 0.46343 0.90749 0.37636 0.0
N1349 N 0.38036 0.88803 0.41704 0.0
H1350 H 0.65799 0.46632 0.89207 0.0
H1351 H 0.44711 0.32872 0.93719 0.0
H1352 H 0.59051 0.52423 0.91317 0.0
H1353 H 0.45553 0.3117 0.86005 0.0
H1354 H 0.50886 0.39491 0.93467 0.0
H1355 H 0.59348 0.40363 0.88408 0.0
C1356 C 0.62993 0.46632 0.89457 0.0
C1357 C 0.63009 0.50071 0.90396 0.0
C1358 C 0.49696 0.37682 0.91827 0.0
C1359 C 0.55641 0.42887 0.89524 0.0
C1360 C 0.46173 0.33924 0.91964 0.0
C1361 C 0.44557 0.31522 0.89869 0.0
C1362 C 0.51755 0.38991 0.89602 0.0
C1363 C 0.46642 0.32984 0.87649 0.0
C1364 C 0.59315 0.43047 0.89004 0.0
C1365 C 0.59231 0.49837 0.90686 0.0
N1366 N 0.50178 0.36614 0.87576 0.0
N1367 N 0.55725 0.46297 0.90318 0.0
H1368 H 0.202 0.64622 0.42296 0.0
H1369 H 0.15337 0.43822 0.35989 0.0
H1370 H 0.12074 0.60112 0.36146 0.0
H1371 H 0.16661 0.45831 0.4377 0.0
H1372 H 0.15336 0.50255 0.35521 0.0
H1373 H 0.20488 0.58343 0.42309 0.0
C1374 C 0.18574 0.62358 0.40905 0.0
C1375 C 0.16138 0.62896 0.39207 0.0
C1376 C 0.15604 0.49257 0.37327 0.0
C1377 C 0.16411 0.55691 0.39223 0.0
C1378 C 0.15557 0.45573 0.37597 0.0
C1379 C 0.15903 0.4424 0.3993 0.0
C1380 C 0.16169 0.51684 0.39393 0.0
C1381 C 0.16339 0.46714 0.41942 0.0
C1382 C 0.18695 0.58759 0.4093 0.0
C1383 C 0.14012 0.59818 0.37474 0.0
N1384 N 0.16495 0.50312 0.41626 0.0
N1385 N 0.14194 0.56345 0.37524 0.0
H1386 H 0.71916 0.13095 0.93783 0.0
H1387 H 0.54872 0.14895 0.86191 0.0
H1388 H 0.72851 0.14897 0.85992 0.0
H1389 H 0.55255 0.13973 0.94019 0.0
H1390 H 0.61261 0.14757 0.85913 0.0
H1391 H 0.65457 0.12878 0.93728 0.0
C1392 C 0.70701 0.13358 0.92046 0.0
C1393 C 0.72893 0.13957 0.89889 0.0
C1394 C 0.59957 0.14623 0.87689 0.0
C1395 C 0.65515 0.13892 0.89811 0.0
C1396 C 0.56344 0.14752 0.87849 0.0
C1397 C 0.54546 0.1447 0.90134 0.0
C1398 C 0.61758 0.14197 0.89831 0.0
C1399 C 0.56535 0.14207 0.92222 0.0
C1400 C 0.67023 0.13279 0.92015 0.0
C1401 C 0.71213 0.14353 0.8769 0.0
N1402 N 0.59995 0.1406 0.92017 0.0
N1403 N 0.67629 0.14347 0.87708 0.0
H1404 H 0.40196 0.57197 0.38962 0.0
H1405 H 0.61456 0.70415 0.43525 0.0
H1406 H 0.46784 0.51115 0.40795 0.0
H1407 H 0.60229 0.72761 0.35968 0.0
H1408 H 0.55305 0.63782 0.43159 0.0
H1409 H 0.46698 0.63442 0.38249 0.0
C1410 C 0.42979 0.57132 0.39167 0.0
C1411 C 0.42909 0.53618 0.40005 0.0
C1412 C 0.56415 0.65732 0.41574 0.0
C1413 C 0.50328 0.60768 0.39244 0.0
C1414 C 0.59925 0.69495 0.41776 0.0
C1415 C 0.61417 0.72083 0.39756 0.0
C1416 C 0.54246 0.64619 0.39372 0.0
C1417 C 0.59243 0.70798 0.37547 0.0
C1418 C 0.46684 0.60703 0.38766 0.0
C1419 C 0.46654 0.53762 0.4024 0.0
N1420 N 0.55716 0.67173 0.3742 0.0
N1421 N 0.5019 0.57287 0.39931 0.0
H1422 H 0.89896 0.59338 0.86393 0.0
H1423 H 0.89876 0.41736 0.94432 0.0
H1424 H 0.91085 0.59466 0.94226 0.0
H1425 H 0.90332 0.41561 0.86575 0.0
H1426 H 0.89947 0.48132 0.94257 0.0
H1427 H 0.90056 0.52955 0.86255 0.0
C1428 C 0.90295 0.58084 0.88073 0.0
C1429 C 0.90523 0.59957 0.90327 0.0
C1430 C 0.90004 0.46709 0.92558 0.0
C1431 C 0.90544 0.52602 0.90194 0.0
C1432 C 0.89918 0.43024 0.92662 0.0
C1433 C 0.90057 0.41091 0.90518 0.0
C1434 C 0.90259 0.48546 0.90288 0.0
C1435 C 0.90161 0.42926 0.8827 0.0
C1436 C 0.90335 0.54416 0.87997 0.0
C1437 C 0.90926 0.5814 0.9245 0.0
N1438 N 0.90278 0.46565 0.88211 0.0
N1439 N 0.90899 0.54581 0.92332 0.0
H1440 H 0.24797 0.43557 0.32002 0.0
H1441 H 0.16028 0.35104 0.18687 0.0
H1442 H 0.14801 0.31628 0.30625 0.0
H1443 H 0.28854 0.42743 0.19779 0.0
H1444 H 0.15046 0.35146 0.23114 0.0
H1445 H 0.2608 0.44425 0.27544 0.0
C1446 C 0.22884 0.41128 0.30764 0.0
C1447 C 0.19602 0.37559 0.31663 0.0
C1448 C 0.18069 0.3687 0.22375 0.0
C1449 C 0.20952 0.38567 0.26618 0.0
C1450 C 0.1862 0.36888 0.19849 0.0
C1451 C 0.22522 0.38923 0.18869 0.0
C1452 C 0.21435 0.38958 0.23925 0.0
C1453 C 0.25792 0.41138 0.20469 0.0
C1454 C 0.2359 0.41633 0.28233 0.0
C1455 C 0.17221 0.34495 0.29994 0.0
N1456 N 0.25181 0.41089 0.22922 0.0
N1457 N 0.17903 0.35081 0.27558 0.0
H1458 H 0.81542 0.15708 0.68531 0.0
H1459 H 0.89257 0.23411 0.81937 0.0
H1460 H 0.90707 0.28066 0.6998 0.0
H1461 H 0.76861 0.14327 0.80519 0.0
H1462 H 0.90145 0.24949 0.77549 0.0
H1463 H 0.79959 0.14817 0.72918 0.0
C1464 C 0.83183 0.18244 0.69757 0.0
C1465 C 0.86309 0.21943 0.68882 0.0
C1466 C 0.87224 0.22642 0.78212 0.0
C1467 C 0.84582 0.2092 0.73897 0.0
C1468 C 0.86712 0.21775 0.80717 0.0
C1469 C 0.83002 0.18684 0.81602 0.0
C1470 C 0.84022 0.20364 0.76581 0.0
C1471 C 0.79809 0.16666 0.79921 0.0
C1472 C 0.82292 0.17731 0.7226 0.0
C1473 C 0.88336 0.25125 0.70569 0.0
N1474 N 0.80409 0.17489 0.77493 0.0
N1475 N 0.87489 0.24522 0.72992 0.0
H1476 H 0.65163 0.90031 0.19843 0.0
H1477 H 0.64927 0.75688 0.30506 0.0
H1478 H 0.67551 0.80287 0.1856 0.0
H1479 H 0.67606 0.87924 0.31772 0.0
H1480 H 0.64348 0.76587 0.26138 0.0
H1481 H 0.64513 0.88507 0.24199 0.0
C1482 C 0.65533 0.87552 0.2047 0.0
C1483 C 0.66523 0.85352 0.18825 0.0
C1484 C 0.65034 0.79064 0.27374 0.0
C1485 C 0.65668 0.83528 0.23832 0.0
C1486 C 0.65377 0.78565 0.29873 0.0
C1487 C 0.66432 0.81776 0.31517 0.0
C1488 C 0.65651 0.82774 0.26501 0.0
C1489 C 0.66836 0.85379 0.30583 0.0
C1490 C 0.6515 0.86684 0.22963 0.0
C1491 C 0.66829 0.82093 0.19752 0.0
N1492 N 0.66468 0.85788 0.28136 0.0
N1493 N 0.66427 0.81294 0.22196 0.0
H1494 H 0.83141 0.60882 0.68944 0.0
H1495 H 0.82989 0.69297 0.82187 0.0
H1496 H 0.86208 0.73191 0.70265 0.0
H1497 H 0.88234 0.61699 0.81225 0.0
H1498 H 0.8228 0.69439 0.77735 0.0
H1499 H 0.83588 0.60007 0.73398 0.0
C1500 C 0.83949 0.63403 0.70168 0.0
C1501 C 0.84563 0.67094 0.69257 0.0
C1502 C 0.83524 0.67686 0.78508 0.0
C1503 C 0.84896 0.66074 0.74299 0.0
C1504 C 0.8388 0.67564 0.81045 0.0
C1505 C 0.85662 0.65478 0.82073 0.0
C1506 C 0.84877 0.65637 0.76992 0.0
C1507 C 0.8683 0.63333 0.80499 0.0
C1508 C 0.84162 0.62894 0.72698 0.0
C1509 C 0.85572 0.70262 0.70909 0.0
N1510 N 0.86421 0.63466 0.78033 0.0
N1511 N 0.85644 0.69667 0.73348 0.0
H1512 H 0.24931 0.8876 0.18478 0.0
H1513 H 0.17016 0.80523 0.31801 0.0
H1514 H 0.15474 0.76484 0.19772 0.0
H1515 H 0.29162 0.90225 0.30473 0.0
H1516 H 0.16216 0.79074 0.27409 0.0
H1517 H 0.26429 0.89526 0.22867 0.0
C1518 C 0.23191 0.86215 0.19672 0.0
C1519 C 0.20008 0.82583 0.18748 0.0
C1520 C 0.19065 0.81504 0.28088 0.0
C1521 C 0.2167 0.83457 0.23782 0.0
C1522 C 0.19526 0.8233 0.306 0.0
C1523 C 0.23124 0.85573 0.31516 0.0
C1524 C 0.2221 0.83961 0.26477 0.0
C1525 C 0.26284 0.87776 0.29853 0.0
C1526 C 0.24043 0.86656 0.22181 0.0
C1527 C 0.1788 0.79383 0.20399 0.0
N1528 N 0.25733 0.86976 0.27418 0.0
N1529 N 0.18704 0.79913 0.22833 0.0
H1530 H 0.44081 0.21846 0.81866 0.0
H1531 H 0.35959 0.22224 0.68481 0.0
H1532 H 0.32136 0.19771 0.80398 0.0
H1533 H 0.43529 0.16994 0.69643 0.0
H1534 H 0.35864 0.23176 0.7291 0.0
H1535 H 0.45044 0.21451 0.77419 0.0
C1536 C 0.41669 0.21305 0.8061 0.0
C1537 C 0.38068 0.20971 0.8148 0.0
C1538 C 0.37603 0.21884 0.72186 0.0
C1539 C 0.39182 0.20652 0.76445 0.0
C1540 C 0.377 0.21391 0.6966 0.0
C1541 C 0.39759 0.19537 0.68697 0.0
C1542 C 0.39639 0.20583 0.73755 0.0
C1543 C 0.41912 0.18448 0.70318 0.0
C1544 C 0.42227 0.21113 0.78084 0.0
C1545 C 0.35026 0.20255 0.79789 0.0
N1546 N 0.41792 0.18976 0.72772 0.0
N1547 N 0.35664 0.20173 0.77357 0.0
H1548 H 0.25821 0.23072 0.93475 0.0
H1549 H 0.31038 0.31102 0.07182 0.0
H1550 H 0.35274 0.23094 0.97763 0.0
H1551 H 0.20222 0.29349 0.03577 0.0
H1552 H 0.32462 0.28091 0.03736 0.0
H1553 H 0.23534 0.25131 0.97099 0.0
C1554 C 0.27361 0.2342 0.95197 0.0
C1555 C 0.30712 0.22844 0.95321 0.0
C1556 C 0.29768 0.28346 0.03684 0.0
C1557 C 0.28167 0.2531 0.99476 0.0
C1558 C 0.28936 0.30094 0.05667 0.0
C1559 C 0.25492 0.30536 0.05696 0.0
C1560 C 0.27177 0.27021 0.01659 0.0
C1561 C 0.22933 0.29133 0.03641 0.0
C1562 C 0.26058 0.24612 0.97263 0.0
C1563 C 0.32619 0.23385 0.9759 0.0
N1564 N 0.23839 0.27461 0.01701 0.0
N1565 N 0.31346 0.24624 0.99565 0.0
H1566 H 0.14626 0.34539 0.47884 0.0
H1567 H 0.93009 0.18584 0.53576 0.0
H1568 H 0.05458 0.24852 0.43576 0.0
H1569 H 1.01694 0.3005 0.56756 0.0
H1570 H 0.97654 0.20096 0.50081 0.0
H1571 H 0.10206 0.32031 0.51433 0.0
C1572 C 0.11751 0.31794 0.47704 0.0
C1573 C 0.10463 0.29857 0.45441 0.0
C1574 C 0.98516 0.22254 0.51561 0.0
C1575 C 0.05234 0.27056 0.49483 0.0
C1576 C 0.95855 0.21402 0.53548 0.0
C1577 C 0.96918 0.24178 0.55484 0.0
C1578 C 1.02278 0.25877 0.51536 0.0
C1579 C 1.00688 0.27772 0.55343 0.0
C1580 C 0.09171 0.30396 0.49724 0.0
C1581 C 0.06579 0.26417 0.45298 0.0
N1582 N 0.03199 0.28492 0.53428 0.0
N1583 N 0.04091 0.25136 0.47282 0.0
H1584 H 0.70871 0.90697 0.02786 0.0
H1585 H 0.86509 0.12304 0.96949 0.0
H1586 H 0.80412 1.00098 0.07059 0.0
H1587 H 0.75092 0.03433 0.93804 0.0
H1588 H 0.85066 0.07753 0.00488 0.0
H1589 H 0.73286 0.95059 0.99208 0.0
C1590 C 0.73564 0.93614 0.02956 0.0
C1591 C 0.75482 0.94981 0.05218 0.0
C1592 C 0.82902 0.06829 0.99006 0.0
C1593 C 0.78182 1.00138 0.01136 0.0
C1594 C 0.83715 0.09436 0.96994 0.0
C1595 C 0.80933 0.08294 0.95055 0.0
C1596 C 0.79312 0.03041 0.99055 0.0
C1597 C 0.77372 0.04499 0.95219 0.0
C1598 C 0.74907 0.9616 0.00917 0.0
C1599 C 0.78854 0.98915 0.05341 0.0
N1600 N 0.76689 1.0204 0.97159 0.0
N1601 N 0.80087 1.01363 0.03337 0.0
H1602 H 0.86107 0.74655 0.53529 0.0
H1603 H 0.70991 0.81351 0.47675 0.0
H1604 H 0.75654 0.73743 0.57141 0.0
H1605 H 0.79662 0.80011 0.43369 0.0
H1606 H 0.7347 0.79599 0.51334 0.0
H1607 H 0.84483 0.77448 0.49916 0.0
C1608 C 0.83479 0.75018 0.53569 0.0
C1609 C 0.80994 0.7388 0.55648 0.0
C1610 C 0.74872 0.79737 0.49592 0.0
C1611 C 0.79174 0.77176 0.51547 0.0
C1612 C 0.73487 0.80805 0.47503 0.0
C1613 C 0.7513 0.80867 0.45207 0.0
C1614 C 0.77933 0.78721 0.49392 0.0
C1615 C 0.78286 0.7998 0.45101 0.0
C1616 C 0.82561 0.76632 0.51511 0.0
C1617 C 0.77664 0.74516 0.55594 0.0
N1618 N 0.79572 0.78932 0.47152 0.0
N1619 N 0.76867 0.76105 0.53597 0.0
H1620 H 0.95738 0.67768 0.96154 0.0
H1621 H 0.10618 0.86473 0.04767 0.0
H1622 H 0.96399 0.79308 0.95597 0.0
H1623 H 0.09876 0.74865 0.04619 0.0
H1624 H 0.05567 0.84187 0.01428 0.0
H1625 H 1.00741 0.70418 0.99424 0.0
C1626 C 0.96868 0.70844 0.96775 0.0
C1627 C 0.95589 0.73292 0.95639 0.0
C1628 C 0.06561 0.82168 0.02105 0.0
C1629 C 1.01505 0.76452 0.99342 0.0
C1630 C 0.0949 0.83498 0.03981 0.0
C1631 C 0.10701 0.80868 0.0495 0.0
C1632 C 0.04832 0.7818 0.01212 0.0
C1633 C 0.0905 0.77 0.03917 0.0
C1634 C 0.99777 0.72384 0.98623 0.0
C1635 C 0.97236 0.77293 0.9647 0.0
N1636 N 0.06207 0.75778 0.02129 0.0
N1637 N 1.00131 0.78763 0.98263 0.0
H1638 H 0.2327 0.90498 0.4776 0.0
H1639 H 0.3048 0.12652 0.53286 0.0
H1640 H 0.25077 1.00495 0.43259 0.0
H1641 H 0.3132 0.03157 0.57024 0.0
H1642 H 0.27571 0.08104 0.4973 0.0
H1643 H 0.25054 0.94876 0.51363 0.0
C1644 C 0.23922 0.9357 0.47533 0.0
C1645 C 0.23991 0.95108 0.45201 0.0
C1646 C 0.28391 0.07037 0.51343 0.0
C1647 C 0.26167 1.00214 0.49318 0.0
C1648 C 0.30076 0.09646 0.53369 0.0
C1649 C 0.31218 0.08349 0.55472 0.0
C1650 C 0.27779 0.03081 0.51437 0.0
C1651 C 0.30527 0.04359 0.55469 0.0
C1652 C 0.25007 0.96104 0.4959 0.0
C1653 C 0.25001 0.99184 0.45023 0.0
N1654 N 0.28867 1.019 0.53504 0.0
N1655 N 0.26064 1.01595 0.47043 0.0
loop_
_geom_bond_atom_site_label_1
_geom_bond_atom_site_label_2
_geom_bond_distance
_geom_bond_site_symmetry_2
_ccdc_geom_bond_type
Tb0 N31 2.660 . S
Tb0 N38 2.600 . S
Tb0 O44 2.546 . S
Tb0 O45 2.610 . S
Tb0 O47 2.320 . S
Tb0 O48 2.552 . S
Tb0 O49 2.413 . S
Tb0 O51 2.362 . S
Tb0 O52 2.421 . S
Tb0 C64 2.833 . S
C1 C4 1.432 . S
C1 C5 1.414 . S
C1 N8 1.359 . S
C2 C4 1.417 . S
C2 C6 1.432 . S
C2 C14 1.410 . S
C3 C5 1.444 . S
C3 C6 1.317 . S
C3 H26 0.929 . S
C4 C1 1.432 . S
C4 C2 1.417 . S
C4 N12 1.360 . S
C5 C1 1.414 . S
C5 C3 1.444 . S
C5 C10 1.385 . S
C6 C2 1.432 . S
C6 C3 1.317 . S
C6 H18 0.930 . S
C7 C9 1.392 . S
C7 C10 1.370 . S
C7 H19 0.931 . S
N8 C1 1.359 . S
N8 C9 1.327 . S
N8 Tb11 2.600 . S
C9 C7 1.392 . S
C9 N8 1.327 . S
C9 H16 0.930 . S
C10 C5 1.385 . S
C10 C7 1.370 . S
C10 H29 0.930 . S
Tb11 N8 2.600 . S
Tb11 N12 2.660 . S
Tb11 O45 2.362 . S
Tb11 O46 2.421 . S
Tb11 O50 2.546 . S
Tb11 O51 2.610 . S
Tb11 O53 2.320 . S
Tb11 O54 2.552 . S
Tb11 O55 2.413 . S
Tb11 C75 2.833 . S
N12 C4 1.360 . S
N12 Tb11 2.660 . S
N12 C13 1.305 . S
C13 N12 1.305 . S
C13 C15 1.407 . S
C13 H20 0.930 . S
C14 C2 1.410 . S
C14 C15 1.345 . S
C14 H22 0.930 . S
C15 C13 1.407 . S
C15 C14 1.345 . S
C15 H17 0.930 . S
H16 C9 0.930 . S
H17 C15 0.930 . S
H18 C6 0.930 . S
H19 C7 0.931 . S
H20 C13 0.930 . S
H21 C35 0.930 . S
H22 C14 0.930 . S
H23 C41 0.930 . S
H24 C32 0.930 . S
H25 C39 0.974 . S
H26 C3 0.929 . S
H27 C33 0.930 1_655 S
H28 C66 0.930 . S
H29 C10 0.930 . S
H30 C65 0.929 1_655 S
N31 Tb0 2.660 . S
N31 C32 1.305 . S
N31 C36 1.360 . S
C32 H24 0.930 . S
C32 N31 1.305 . S
C32 C35 1.407 . S
C33 H27 0.930 1_455 S
C33 C34 1.410 . S
C33 C35 1.345 . S
C34 C33 1.410 . S
C34 C36 1.417 . S
C34 C66 1.432 1_455 S
C35 H21 0.930 . S
C35 C32 1.407 . S
C35 C33 1.345 . S
C36 N31 1.360 . S
C36 C34 1.417 . S
C36 C40 1.432 . S
H37 C42 0.930 . S
N38 Tb0 2.600 . S
N38 C40 1.359 . S
N38 C41 1.327 . S
C39 H25 0.974 . S
C39 C41 1.392 . S
C39 C42 1.370 . S
C40 C36 1.432 . S
C40 N38 1.359 . S
C40 C43 1.414 . S
C41 H23 0.930 . S
C41 N38 1.327 . S
C41 C39 1.392 . S
C42 H37 0.930 . S
C42 C39 1.370 . S
C42 C43 1.385 . S
C43 C40 1.414 . S
C43 C42 1.385 . S
C43 C65 1.444 . S
O44 Tb0 2.546 . S
O44 C64 1.251 . S
O45 Tb0 2.610 . S
O45 Tb11 2.362 . S
O45 C56 1.283 . S
O46 Tb11 2.421 . S
O46 C63 1.262 . S
O47 Tb0 2.320 . S
O47 C63 1.260 . S
O48 Tb0 2.552 . S
O48 C56 1.243 . S
O49 Tb0 2.413 . S
O49 C64 1.256 . S
O50 Tb11 2.546 . S
O50 C75 1.251 . S
O51 Tb0 2.362 . S
O51 Tb11 2.610 . S
O51 C67 1.283 . S
O52 Tb0 2.421 . S
O52 C74 1.262 . S
O53 Tb11 2.320 . S
O53 C74 1.260 . S
O54 Tb11 2.552 . S
O54 C67 1.243 . S
O55 Tb11 2.413 . S
O55 C75 1.256 . S
C56 O45 1.283 . S
C56 O48 1.243 . S
C57 C59 1.382 . S
C57 C61 1.393 . S
C57 C64 1.500 . S
C58 C59 1.400 . S
C58 C60 1.384 . S
C59 C57 1.382 . S
C59 C58 1.400 . S
C59 H76 0.930 . S
C60 C58 1.384 . S
C60 C62 1.392 . S
C60 H77 0.931 . S
C61 C57 1.393 . S
C61 C62 1.401 . S
C61 H78 0.930 . S
C62 C60 1.392 . S
C62 C61 1.401 . S
C62 H79 0.930 . S
C63 O46 1.262 . S
C63 O47 1.260 . S
C64 Tb0 2.833 . S
C64 O44 1.251 . S
C64 O49 1.256 . S
C64 C57 1.500 . S
C65 H30 0.929 1_455 S
C65 C43 1.444 . S
C65 C66 1.317 1_455 S
C66 H28 0.930 . S
C66 C34 1.432 1_655 S
C66 C65 1.317 1_655 S
C67 O51 1.283 . S
C67 O54 1.243 . S
C68 C69 1.382 . S
C68 C72 1.393 . S
C68 C75 1.500 . S
C69 C68 1.382 . S
C69 C70 1.400 . S
C69 H80 0.930 . S
C70 C69 1.400 . S
C70 C71 1.384 . S
C71 C70 1.384 . S
C71 C73 1.392 . S
C71 H81 0.931 . S
C72 C68 1.393 . S
C72 C73 1.401 . S
C72 H82 0.930 . S
C73 C71 1.392 . S
C73 C72 1.401 . S
C73 H83 0.930 . S
C74 O52 1.262 . S
C74 O53 1.260 . S
C75 Tb11 2.833 . S
C75 O50 1.251 . S
C75 O55 1.256 . S
C75 C68 1.500 . S
H76 C59 0.930 . S
H77 C60 0.931 . S
H78 C61 0.930 . S
H79 C62 0.930 . S
H80 C69 0.930 . S
H81 C71 0.931 . S
H82 C72 0.930 . S
H83 C73 0.930 . S
Tb84 N115 2.660 . S
Tb84 N122 2.600 . S
Tb84 O128 2.546 . S
Tb84 O129 2.610 . S
Tb84 O131 2.320 . S
Tb84 O132 2.552 . S
Tb84 O133 2.413 . S
Tb84 O135 2.362 . S
Tb84 O136 2.421 . S
Tb84 C148 2.833 . S
C85 C88 1.432 . S
C85 C89 1.414 . S
C85 N92 1.359 . S
C86 C88 1.417 . S
C86 C90 1.432 . S
C86 C98 1.410 . S
C87 C89 1.444 . S
C87 C90 1.317 . S
C87 H110 0.929 1_655 S
C88 C85 1.432 . S
C88 C86 1.417 . S
C88 N96 1.360 . S
C89 C85 1.414 . S
C89 C87 1.444 . S
C89 C94 1.385 . S
C90 C86 1.432 . S
C90 C87 1.317 . S
C90 H102 0.930 1_655 S
C91 C93 1.392 . S
C91 C94 1.370 . S
C91 H103 0.931 . S
N92 C85 1.359 . S
N92 C93 1.327 . S
N92 Tb95 2.600 . S
C93 C91 1.392 . S
C93 N92 1.327 . S
C93 H100 0.930 . S
C94 C89 1.385 . S
C94 C91 1.370 . S
C94 H113 0.930 . S
Tb95 N92 2.600 . S
Tb95 N96 2.660 . S
Tb95 O129 2.362 . S
Tb95 O130 2.421 . S
Tb95 O134 2.546 . S
Tb95 O135 2.610 . S
Tb95 O137 2.320 . S
Tb95 O138 2.552 . S
Tb95 O139 2.413 . S
Tb95 C159 2.833 . S
N96 C88 1.360 . S
N96 Tb95 2.660 . S
N96 C97 1.305 . S
C97 N96 1.305 . S
C97 C99 1.407 . S
C97 H104 0.930 . S
C98 C86 1.410 . S
C98 C99 1.345 . S
C98 H106 0.930 . S
C99 C97 1.407 . S
C99 C98 1.345 . S
C99 H101 0.930 . S
H100 C93 0.930 . S
H101 C99 0.930 . S
H102 C90 0.930 1_455 S
H103 C91 0.931 . S
H104 C97 0.930 . S
H105 C119 0.930 . S
H106 C98 0.930 . S
H107 C125 0.930 . S
H108 C116 0.930 . S
H109 C123 0.931 . S
H110 C87 0.929 1_455 S
H111 C117 0.930 1_565 S
H112 C150 0.930 . S
H113 C94 0.930 . S
H114 C149 0.929 1_565 S
N115 Tb84 2.660 . S
N115 C116 1.305 . S
N115 C120 1.360 . S
C116 H108 0.930 . S
C116 N115 1.305 . S
C116 C119 1.407 . S
C117 H111 0.930 1_545 S
C117 C118 1.410 . S
C117 C119 1.345 . S
C118 C117 1.410 . S
C118 C120 1.417 . S
C118 C150 1.432 1_545 S
C119 H105 0.930 . S
C119 C116 1.407 . S
C119 C117 1.345 . S
C120 N115 1.360 . S
C120 C118 1.417 . S
C120 C124 1.432 . S
H121 C126 0.930 . S
N122 Tb84 2.600 . S
N122 C124 1.359 . S
N122 C125 1.327 . S
C123 H109 0.931 . S
C123 C125 1.392 . S
C123 C126 1.370 . S
C124 C120 1.432 . S
C124 N122 1.359 . S
C124 C127 1.414 . S
C125 H107 0.930 . S
C125 N122 1.327 . S
C125 C123 1.392 . S
C126 H121 0.930 . S
C126 C123 1.370 . S
C126 C127 1.385 . S
C127 C124 1.414 . S
C127 C126 1.385 . S
C127 C149 1.444 . S
O128 Tb84 2.546 . S
O128 C148 1.251 . S
O129 Tb84 2.610 . S
O129 Tb95 2.362 . S
O129 C140 1.283 . S
O130 Tb95 2.421 . S
O130 C147 1.262 . S
O131 Tb84 2.320 . S
O131 C147 1.260 . S
O132 Tb84 2.552 . S
O132 C140 1.243 . S
O133 Tb84 2.413 . S
O133 C148 1.256 . S
O134 Tb95 2.546 . S
O134 C159 1.251 . S
O135 Tb84 2.362 . S
O135 Tb95 2.610 . S
O135 C151 1.283 . S
O136 Tb84 2.421 . S
O136 C158 1.262 . S
O137 Tb95 2.320 . S
O137 C158 1.260 . S
O138 Tb95 2.552 . S
O138 C151 1.243 . S
O139 Tb95 2.413 . S
O139 C159 1.256 . S
C140 O129 1.283 . S
C140 O132 1.243 . S
C141 C143 1.382 . S
C141 C145 1.393 . S
C141 C148 1.500 . S
C142 C143 1.400 . S
C142 C144 1.384 . S
C143 C141 1.382 . S
C143 C142 1.400 . S
C143 H160 0.930 . S
C144 C142 1.384 . S
C144 C146 1.392 . S
C144 H161 0.931 . S
C145 C141 1.393 . S
C145 C146 1.401 . S
C145 H162 0.930 . S
C146 C144 1.392 . S
C146 C145 1.401 . S
C146 H163 0.930 . S
C147 O130 1.262 . S
C147 O131 1.260 . S
C148 Tb84 2.833 . S
C148 O128 1.251 . S
C148 O133 1.256 . S
C148 C141 1.500 . S
C149 H114 0.929 1_545 S
C149 C127 1.444 . S
C149 C150 1.317 1_545 S
C150 H112 0.930 . S
C150 C118 1.432 1_565 S
C150 C149 1.317 1_565 S
C151 O135 1.283 . S
C151 O138 1.243 . S
C152 C153 1.382 . S
C152 C156 1.393 . S
C152 C159 1.500 1_455 S
C153 C152 1.382 . S
C153 C154 1.400 . S
C153 H164 0.930 . S
C154 C153 1.400 . S
C154 C155 1.384 . S
C155 C154 1.384 . S
C155 C157 1.392 . S
C155 H165 0.931 . S
C156 C152 1.393 . S
C156 C157 1.401 . S
C156 H166 0.930 . S
C157 C155 1.392 . S
C157 C156 1.401 . S
C157 H167 0.930 . S
C158 O136 1.262 . S
C158 O137 1.260 . S
C159 Tb95 2.833 . S
C159 O134 1.251 . S
C159 O139 1.256 . S
C159 C152 1.500 1_655 S
H160 C143 0.930 . S
H161 C144 0.931 . S
H162 C145 0.930 . S
H163 C146 0.930 . S
H164 C153 0.930 . S
H165 C155 0.931 . S
H166 C156 0.930 . S
H167 C157 0.930 . S
Tb168 N199 2.660 . S
Tb168 N206 2.600 . S
Tb168 O212 2.546 . S
Tb168 O213 2.610 . S
Tb168 O215 2.320 . S
Tb168 O216 2.552 . S
Tb168 O217 2.413 . S
Tb168 O219 2.362 . S
Tb168 O220 2.421 . S
Tb168 C232 2.833 . S
C169 C172 1.432 . S
C169 C173 1.414 . S
C169 N176 1.359 . S
C170 C172 1.417 . S
C170 C174 1.432 . S
C170 C182 1.410 . S
C171 C173 1.444 . S
C171 C174 1.317 . S
C171 H194 0.929 1_565 S
C172 C169 1.432 . S
C172 C170 1.417 . S
C172 N180 1.360 . S
C173 C169 1.414 . S
C173 C171 1.444 . S
C173 C178 1.385 . S
C174 C170 1.432 . S
C174 C171 1.317 . S
C174 H186 0.930 1_565 S
C175 C177 1.392 . S
C175 C178 1.370 . S
C175 H187 0.931 . S
N176 C169 1.359 . S
N176 C177 1.327 . S
N176 Tb179 2.600 . S
C177 C175 1.392 . S
C177 N176 1.327 . S
C177 H184 0.930 . S
C178 C173 1.385 . S
C178 C175 1.370 . S
C178 H197 0.930 . S
Tb179 N176 2.600 . S
Tb179 N180 2.660 . S
Tb179 O213 2.362 . S
Tb179 O214 2.421 . S
Tb179 O218 2.546 . S
Tb179 O219 2.610 . S
Tb179 O221 2.320 . S
Tb179 O222 2.552 . S
Tb179 O223 2.413 . S
Tb179 C243 2.833 . S
N180 C172 1.360 . S
N180 Tb179 2.660 . S
N180 C181 1.305 . S
C181 N180 1.305 . S
C181 C183 1.407 . S
C181 H188 0.930 . S
C182 C170 1.410 . S
C182 C183 1.345 . S
C182 H190 0.930 . S
C183 C181 1.407 . S
C183 C182 1.345 . S
C183 H185 0.930 . S
H184 C177 0.930 . S
H185 C183 0.930 . S
H186 C174 0.930 1_545 S
H187 C175 0.931 . S
H188 C181 0.930 . S
H189 C203 0.930 . S
H190 C182 0.930 . S
H191 C209 0.930 . S
H192 C200 0.930 . S
H193 C207 0.975 . S
H194 C171 0.929 1_545 S
H195 C201 0.930 . S
H196 C234 0.930 . S
H197 C178 0.930 . S
H198 C233 0.929 . S
N199 Tb168 2.660 . S
N199 C200 1.305 . S
N199 C204 1.360 . S
C200 H192 0.930 . S
C200 N199 1.305 . S
C200 C203 1.407 . S
C201 H195 0.930 . S
C201 C202 1.410 . S
C201 C203 1.345 . S
C202 C201 1.410 . S
C202 C204 1.417 . S
C202 C234 1.432 . S
C203 H189 0.930 . S
C203 C200 1.407 . S
C203 C201 1.345 . S
C204 N199 1.360 . S
C204 C202 1.417 . S
C204 C208 1.432 . S
H205 C210 0.930 . S
N206 Tb168 2.600 . S
N206 C208 1.359 . S
N206 C209 1.327 . S
C207 H193 0.975 . S
C207 C209 1.392 . S
C207 C210 1.370 . S
C208 C204 1.432 . S
C208 N206 1.359 . S
C208 C211 1.414 . S
C209 H191 0.930 . S
C209 N206 1.327 . S
C209 C207 1.392 . S
C210 H205 0.930 . S
C210 C207 1.370 . S
C210 C211 1.385 . S
C211 C208 1.414 . S
C211 C210 1.385 . S
C211 C233 1.444 . S
O212 Tb168 2.546 . S
O212 C232 1.251 . S
O213 Tb168 2.610 . S
O213 Tb179 2.362 . S
O213 C224 1.283 . S
O214 Tb179 2.421 . S
O214 C231 1.262 . S
O215 Tb168 2.320 . S
O215 C231 1.260 . S
O216 Tb168 2.552 . S
O216 C224 1.243 . S
O217 Tb168 2.413 . S
O217 C232 1.256 . S
O218 Tb179 2.546 . S
O218 C243 1.251 . S
O219 Tb168 2.362 . S
O219 Tb179 2.610 . S
O219 C235 1.283 . S
O220 Tb168 2.421 . S
O220 C242 1.262 . S
O221 Tb179 2.320 . S
O221 C242 1.260 . S
O222 Tb179 2.552 . S
O222 C235 1.243 . S
O223 Tb179 2.413 . S
O223 C243 1.256 . S
C224 O213 1.283 . S
C224 O216 1.243 . S
C225 C227 1.382 . S
C225 C229 1.393 . S
C225 C232 1.500 . S
C226 C227 1.400 . S
C226 C228 1.384 . S
C227 C225 1.382 . S
C227 C226 1.400 . S
C227 H244 0.930 . S
C228 C226 1.384 . S
C228 C230 1.392 . S
C228 H245 0.931 . S
C229 C225 1.393 . S
C229 C230 1.401 . S
C229 H246 0.930 . S
C230 C228 1.392 . S
C230 C229 1.401 . S
C230 H247 0.930 . S
C231 O214 1.262 . S
C231 O215 1.260 . S
C232 Tb168 2.833 . S
C232 O212 1.251 . S
C232 O217 1.256 . S
C232 C225 1.500 . S
C233 H198 0.929 . S
C233 C211 1.444 . S
C233 C234 1.317 . S
C234 H196 0.930 . S
C234 C202 1.432 . S
C234 C233 1.317 . S
C235 O219 1.283 . S
C235 O222 1.243 . S
C236 C237 1.382 . S
C236 C240 1.393 . S
C236 C243 1.500 1_545 S
C237 C236 1.382 . S
C237 C238 1.400 . S
C237 H248 0.930 . S
C238 C237 1.400 . S
C238 C239 1.384 . S
C239 C238 1.384 . S
C239 C241 1.392 . S
C239 H249 0.931 . S
C240 C236 1.393 . S
C240 C241 1.401 . S
C240 H250 0.930 . S
C241 C239 1.392 . S
C241 C240 1.401 . S
C241 H251 0.930 . S
C242 O220 1.262 . S
C242 O221 1.260 . S
C243 Tb179 2.833 . S
C243 O218 1.251 . S
C243 O223 1.256 . S
C243 C236 1.500 1_565 S
H244 C227 0.930 . S
H245 C228 0.931 . S
H246 C229 0.930 . S
H247 C230 0.930 . S
H248 C237 0.930 . S
H249 C239 0.931 . S
H250 C240 0.930 . S
H251 C241 0.930 . S
Tb252 N283 2.660 . S
Tb252 N290 2.600 . S
Tb252 O296 2.546 . S
Tb252 O297 2.610 . S
Tb252 O299 2.320 . S
Tb252 O300 2.552 . S
Tb252 O301 2.413 . S
Tb252 O303 2.362 . S
Tb252 O304 2.421 . S
Tb252 C316 2.833 . S
C253 C256 1.432 . S
C253 C257 1.414 . S
C253 N260 1.359 . S
C254 C256 1.417 . S
C254 C258 1.432 . S
C254 C266 1.410 . S
C255 C257 1.444 . S
C255 C258 1.317 . S
C255 H278 0.929 . S
C256 C253 1.432 . S
C256 C254 1.417 . S
C256 N264 1.360 . S
C257 C253 1.414 . S
C257 C255 1.444 . S
C257 C262 1.385 . S
C258 C254 1.432 . S
C258 C255 1.317 . S
C258 H270 0.930 . S
C259 C261 1.392 . S
C259 C262 1.370 . S
C259 H271 0.931 . S
N260 C253 1.359 . S
N260 C261 1.327 . S
N260 Tb263 2.600 . S
C261 C259 1.392 . S
C261 N260 1.327 . S
C261 H268 0.930 . S
C262 C257 1.385 . S
C262 C259 1.370 . S
C262 H281 0.930 . S
Tb263 N260 2.600 . S
Tb263 N264 2.660 . S
Tb263 O297 2.362 . S
Tb263 O298 2.421 . S
Tb263 O302 2.546 . S
Tb263 O303 2.610 . S
Tb263 O305 2.320 . S
Tb263 O306 2.552 . S
Tb263 O307 2.413 . S
Tb263 C327 2.833 . S
N264 C256 1.360 . S
N264 Tb263 2.660 . S
N264 C265 1.305 . S
C265 N264 1.305 . S
C265 C267 1.407 . S
C265 H272 0.930 . S
C266 C254 1.410 . S
C266 C267 1.345 . S
C266 H274 0.930 . S
C267 C265 1.407 . S
C267 C266 1.345 . S
C267 H269 0.930 . S
H268 C261 0.930 . S
H269 C267 0.930 . S
H270 C258 0.930 . S
H271 C259 0.931 . S
H272 C265 0.930 . S
H273 C287 0.930 . S
H274 C266 0.930 . S
H275 C293 0.930 . S
H276 C284 0.930 . S
H277 C291 0.931 . S
H278 C255 0.929 . S
H279 C285 0.930 1_455 S
H280 C318 0.930 . S
H281 C262 0.930 . S
H282 C317 0.929 1_455 S
N283 Tb252 2.660 . S
N283 C284 1.305 . S
N283 C288 1.360 . S
C284 H276 0.930 . S
C284 N283 1.305 . S
C284 C287 1.407 . S
C285 H279 0.930 1_655 S
C285 C286 1.410 . S
C285 C287 1.345 . S
C286 C285 1.410 . S
C286 C288 1.417 . S
C286 C318 1.432 1_655 S
C287 H273 0.930 . S
C287 C284 1.407 . S
C287 C285 1.345 . S
C288 N283 1.360 . S
C288 C286 1.417 . S
C288 C292 1.432 . S
H289 C294 0.930 . S
N290 Tb252 2.600 . S
N290 C292 1.359 . S
N290 C293 1.327 . S
C291 H277 0.931 . S
C291 C293 1.392 . S
C291 C294 1.370 . S
C292 C288 1.432 . S
C292 N290 1.359 . S
C292 C295 1.414 . S
C293 H275 0.930 . S
C293 N290 1.327 . S
C293 C291 1.392 . S
C294 H289 0.930 . S
C294 C291 1.370 . S
C294 C295 1.385 . S
C295 C292 1.414 . S
C295 C294 1.385 . S
C295 C317 1.444 . S
O296 Tb252 2.546 . S
O296 C316 1.251 . S
O297 Tb252 2.610 . S
O297 Tb263 2.362 . S
O297 C308 1.283 . S
O298 Tb263 2.421 . S
O298 C315 1.262 . S
O299 Tb252 2.320 . S
O299 C315 1.260 . S
O300 Tb252 2.552 . S
O300 C308 1.243 . S
O301 Tb252 2.413 . S
O301 C316 1.256 . S
O302 Tb263 2.546 . S
O302 C327 1.251 . S
O303 Tb252 2.362 . S
O303 Tb263 2.610 . S
O303 C319 1.283 . S
O304 Tb252 2.421 . S
O304 C326 1.262 . S
O305 Tb263 2.320 . S
O305 C326 1.260 . S
O306 Tb263 2.552 . S
O306 C319 1.243 . S
O307 Tb263 2.413 . S
O307 C327 1.256 . S
C308 O297 1.283 . S
C308 O300 1.243 . S
C309 C311 1.382 . S
C309 C313 1.393 . S
C309 C316 1.500 . S
C310 C311 1.400 . S
C310 C312 1.384 . S
C311 C309 1.382 . S
C311 C310 1.400 . S
C311 H328 0.930 . S
C312 C310 1.384 . S
C312 C314 1.392 . S
C312 H329 0.931 . S
C313 C309 1.393 . S
C313 C314 1.401 . S
C313 H330 0.930 . S
C314 C312 1.392 . S
C314 C313 1.401 . S
C314 H331 0.930 . S
C315 O298 1.262 . S
C315 O299 1.260 . S
C316 Tb252 2.833 . S
C316 O296 1.251 . S
C316 O301 1.256 . S
C316 C309 1.500 . S
C317 H282 0.929 1_655 S
C317 C295 1.444 . S
C317 C318 1.317 1_655 S
C318 H280 0.930 . S
C318 C286 1.432 1_455 S
C318 C317 1.317 1_455 S
C319 O303 1.283 . S
C319 O306 1.243 . S
C320 C321 1.382 . S
C320 C324 1.393 . S
C320 C327 1.500 . S
C321 C320 1.382 . S
C321 C322 1.400 . S
C321 H332 0.930 . S
C322 C321 1.400 . S
C322 C323 1.384 . S
C323 C322 1.384 . S
C323 C325 1.392 . S
C323 H333 0.931 . S
C324 C320 1.393 . S
C324 C325 1.401 . S
C324 H334 0.930 . S
C325 C323 1.392 . S
C325 C324 1.401 . S
C325 H335 0.930 . S
C326 O304 1.262 . S
C326 O305 1.260 . S
C327 Tb263 2.833 . S
C327 O302 1.251 . S
C327 O307 1.256 . S
C327 C320 1.500 . S
H328 C311 0.930 . S
H329 C312 0.931 . S
H330 C313 0.930 . S
H331 C314 0.930 . S
H332 C321 0.930 . S
H333 C323 0.931 . S
H334 C324 0.930 . S
H335 C325 0.930 . S
Tb336 N367 2.660 . S
Tb336 N374 2.600 . S
Tb336 O380 2.546 . S
Tb336 O381 2.610 . S
Tb336 O383 2.320 . S
Tb336 O384 2.552 . S
Tb336 O385 2.413 . S
Tb336 O387 2.362 . S
Tb336 O388 2.421 . S
Tb336 C400 2.833 . S
C337 C340 1.432 . S
C337 C341 1.414 . S
C337 N344 1.359 . S
C338 C340 1.417 . S
C338 C342 1.432 . S
C338 C350 1.410 . S
C339 C341 1.444 . S
C339 C342 1.317 . S
C339 H362 0.929 1_455 S
C340 C337 1.432 . S
C340 C338 1.417 . S
C340 N348 1.360 . S
C341 C337 1.414 . S
C341 C339 1.444 . S
C341 C346 1.385 . S
C342 C338 1.432 . S
C342 C339 1.317 . S
C342 H354 0.930 1_455 S
C343 C345 1.392 . S
C343 C346 1.370 . S
C343 H355 0.931 . S
N344 C337 1.359 . S
N344 C345 1.327 . S
N344 Tb347 2.600 . S
C345 C343 1.392 . S
C345 N344 1.327 . S
C345 H352 0.930 . S
C346 C341 1.385 . S
C346 C343 1.370 . S
C346 H365 0.930 . S
Tb347 N344 2.600 . S
Tb347 N348 2.660 . S
Tb347 O381 2.362 . S
Tb347 O382 2.421 . S
Tb347 O386 2.546 . S
Tb347 O387 2.610 . S
Tb347 O389 2.320 . S
Tb347 O390 2.552 . S
Tb347 O391 2.413 . S
Tb347 C411 2.833 . S
N348 C340 1.360 . S
N348 Tb347 2.660 . S
N348 C349 1.305 . S
C349 N348 1.305 . S
C349 C351 1.407 . S
C349 H356 0.930 . S
C350 C338 1.410 . S
C350 C351 1.345 . S
C350 H358 0.930 . S
C351 C349 1.407 . S
C351 C350 1.345 . S
C351 H353 0.930 . S
H352 C345 0.930 . S
H353 C351 0.930 . S
H354 C342 0.930 1_655 S
H355 C343 0.931 . S
H356 C349 0.930 . S
H357 C371 0.930 . S
H358 C350 0.930 . S
H359 C377 0.930 . S
H360 C368 0.930 . S
H361 C375 0.974 . S
H362 C339 0.929 1_655 S
H363 C369 0.930 1_545 S
H364 C402 0.930 . S
H365 C346 0.930 . S
H366 C401 0.929 1_545 S
N367 Tb336 2.660 . S
N367 C368 1.305 . S
N367 C372 1.360 . S
C368 H360 0.930 . S
C368 N367 1.305 . S
C368 C371 1.407 . S
C369 H363 0.930 1_565 S
C369 C370 1.410 . S
C369 C371 1.345 . S
C370 C369 1.410 . S
C370 C372 1.417 . S
C370 C402 1.432 1_565 S
C371 H357 0.930 . S
C371 C368 1.407 . S
C371 C369 1.345 . S
C372 N367 1.360 . S
C372 C370 1.417 . S
C372 C376 1.432 . S
H373 C378 0.930 . S
N374 Tb336 2.600 . S
N374 C376 1.359 . S
N374 C377 1.327 . S
C375 H361 0.974 . S
C375 C377 1.392 . S
C375 C378 1.370 . S
C376 C372 1.432 . S
C376 N374 1.359 . S
C376 C379 1.414 . S
C377 H359 0.930 . S
C377 N374 1.327 . S
C377 C375 1.392 . S
C378 H373 0.930 . S
C378 C375 1.370 . S
C378 C379 1.385 . S
C379 C376 1.414 . S
C379 C378 1.385 . S
C379 C401 1.444 . S
O380 Tb336 2.546 . S
O380 C400 1.251 . S
O381 Tb336 2.610 . S
O381 Tb347 2.362 . S
O381 C392 1.283 . S
O382 Tb347 2.421 . S
O382 C399 1.262 . S
O383 Tb336 2.320 . S
O383 C399 1.260 . S
O384 Tb336 2.552 . S
O384 C392 1.243 . S
O385 Tb336 2.413 . S
O385 C400 1.256 . S
O386 Tb347 2.546 . S
O386 C411 1.251 . S
O387 Tb336 2.362 . S
O387 Tb347 2.610 . S
O387 C403 1.283 . S
O388 Tb336 2.421 . S
O388 C410 1.262 . S
O389 Tb347 2.320 . S
O389 C410 1.260 . S
O390 Tb347 2.552 . S
O390 C403 1.243 . S
O391 Tb347 2.413 . S
O391 C411 1.256 . S
C392 O381 1.283 . S
C392 O384 1.243 . S
C393 C395 1.382 . S
C393 C397 1.393 . S
C393 C400 1.500 . S
C394 C395 1.400 . S
C394 C396 1.384 . S
C395 C393 1.382 . S
C395 C394 1.400 . S
C395 H412 0.930 . S
C396 C394 1.384 . S
C396 C398 1.392 . S
C396 H413 0.931 . S
C397 C393 1.393 . S
C397 C398 1.401 . S
C397 H414 0.930 . S
C398 C396 1.392 . S
C398 C397 1.401 . S
C398 H415 0.930 . S
C399 O382 1.262 . S
C399 O383 1.260 . S
C400 Tb336 2.833 . S
C400 O380 1.251 . S
C400 O385 1.256 . S
C400 C393 1.500 . S
C401 H366 0.929 1_565 S
C401 C379 1.444 . S
C401 C402 1.317 1_565 S
C402 H364 0.930 . S
C402 C370 1.432 1_545 S
C402 C401 1.317 1_545 S
C403 O387 1.283 . S
C403 O390 1.243 . S
C404 C405 1.382 . S
C404 C408 1.393 . S
C404 C411 1.500 1_655 S
C405 C404 1.382 . S
C405 C406 1.400 . S
C405 H416 0.930 . S
C406 C405 1.400 . S
C406 C407 1.384 . S
C407 C406 1.384 . S
C407 C409 1.392 . S
C407 H417 0.931 . S
C408 C404 1.393 . S
C408 C409 1.401 . S
C408 H418 0.930 . S
C409 C407 1.392 . S
C409 C408 1.401 . S
C409 H419 0.930 . S
C410 O388 1.262 . S
C410 O389 1.260 . S
C411 Tb347 2.833 . S
C411 O386 1.251 . S
C411 O391 1.256 . S
C411 C404 1.500 1_455 S
H412 C395 0.930 . S
H413 C396 0.931 . S
H414 C397 0.930 . S
H415 C398 0.930 . S
H416 C405 0.930 . S
H417 C407 0.931 . S
H418 C408 0.930 . S
H419 C409 0.930 . S
Tb420 N451 2.660 . S
Tb420 N458 2.600 . S
Tb420 O464 2.546 . S
Tb420 O465 2.610 . S
Tb420 O467 2.320 . S
Tb420 O468 2.552 . S
Tb420 O469 2.413 . S
Tb420 O471 2.362 . S
Tb420 O472 2.421 . S
Tb420 C484 2.833 . S
C421 C424 1.432 . S
C421 C425 1.414 . S
C421 N428 1.359 . S
C422 C424 1.417 . S
C422 C426 1.432 . S
C422 C434 1.410 . S
C423 C425 1.444 . S
C423 C426 1.317 . S
C423 H446 0.929 1_545 S
C424 C421 1.432 . S
C424 C422 1.417 . S
C424 N432 1.360 . S
C425 C421 1.414 . S
C425 C423 1.444 . S
C425 C430 1.385 . S
C426 C422 1.432 . S
C426 C423 1.317 . S
C426 H438 0.930 1_545 S
C427 C429 1.392 . S
C427 C430 1.370 . S
C427 H439 0.931 . S
N428 C421 1.359 . S
N428 C429 1.327 . S
N428 Tb431 2.600 . S
C429 C427 1.392 . S
C429 N428 1.327 . S
C429 H436 0.930 . S
C430 C425 1.385 . S
C430 C427 1.370 . S
C430 H449 0.930 . S
Tb431 N428 2.600 . S
Tb431 N432 2.660 . S
Tb431 O465 2.362 . S
Tb431 O466 2.421 . S
Tb431 O470 2.546 . S
Tb431 O471 2.610 . S
Tb431 O473 2.320 . S
Tb431 O474 2.552 . S
Tb431 O475 2.413 . S
Tb431 C495 2.833 . S
N432 C424 1.360 . S
N432 Tb431 2.660 . S
N432 C433 1.305 . S
C433 N432 1.305 . S
C433 C435 1.407 . S
C433 H440 0.930 . S
C434 C422 1.410 . S
C434 C435 1.345 . S
C434 H442 0.930 . S
C435 C433 1.407 . S
C435 C434 1.345 . S
C435 H437 0.930 . S
H436 C429 0.930 . S
H437 C435 0.930 . S
H438 C426 0.930 1_565 S
H439 C427 0.931 . S
H440 C433 0.930 . S
H441 C455 0.930 . S
H442 C434 0.930 . S
H443 C461 0.930 . S
H444 C452 0.930 . S
H445 C459 0.931 . S
H446 C423 0.929 1_565 S
H447 C453 0.930 . S
H448 C486 0.930 . S
H449 C430 0.930 . S
H450 C485 0.929 . S
N451 Tb420 2.660 . S
N451 C452 1.305 . S
N451 C456 1.360 . S
C452 H444 0.930 . S
C452 N451 1.305 . S
C452 C455 1.407 . S
C453 H447 0.930 . S
C453 C454 1.410 . S
C453 C455 1.345 . S
C454 C453 1.410 . S
C454 C456 1.417 . S
C454 C486 1.432 . S
C455 H441 0.930 . S
C455 C452 1.407 . S
C455 C453 1.345 . S
C456 N451 1.360 . S
C456 C454 1.417 . S
C456 C460 1.432 . S
H457 C462 0.930 . S
N458 Tb420 2.600 . S
N458 C460 1.359 . S
N458 C461 1.327 . S
C459 H445 0.931 . S
C459 C461 1.392 . S
C459 C462 1.370 . S
C460 C456 1.432 . S
C460 N458 1.359 . S
C460 C463 1.414 . S
C461 H443 0.930 . S
C461 N458 1.327 . S
C461 C459 1.392 . S
C462 H457 0.930 . S
C462 C459 1.370 . S
C462 C463 1.385 . S
C463 C460 1.414 . S
C463 C462 1.385 . S
C463 C485 1.444 . S
O464 Tb420 2.546 . S
O464 C484 1.251 . S
O465 Tb420 2.610 . S
O465 Tb431 2.362 . S
O465 C476 1.283 . S
O466 Tb431 2.421 . S
O466 C483 1.262 . S
O467 Tb420 2.320 . S
O467 C483 1.260 . S
O468 Tb420 2.552 . S
O468 C476 1.243 . S
O469 Tb420 2.413 . S
O469 C484 1.256 . S
O470 Tb431 2.546 . S
O470 C495 1.251 . S
O471 Tb420 2.362 . S
O471 Tb431 2.610 . S
O471 C487 1.283 . S
O472 Tb420 2.421 . S
O472 C494 1.262 . S
O473 Tb431 2.320 . S
O473 C494 1.260 . S
O474 Tb431 2.552 . S
O474 C487 1.243 . S
O475 Tb431 2.413 . S
O475 C495 1.256 . S
C476 O465 1.283 . S
C476 O468 1.243 . S
C477 C479 1.382 . S
C477 C481 1.393 . S
C477 C484 1.500 . S
C478 C479 1.400 . S
C478 C480 1.384 . S
C479 C477 1.382 . S
C479 C478 1.400 . S
C479 H496 0.930 . S
C480 C478 1.384 . S
C480 C482 1.392 . S
C480 H497 0.931 . S
C481 C477 1.393 . S
C481 C482 1.401 . S
C481 H498 0.930 . S
C482 C480 1.392 . S
C482 C481 1.401 . S
C482 H499 0.930 . S
C483 O466 1.262 . S
C483 O467 1.260 . S
C484 Tb420 2.833 . S
C484 O464 1.251 . S
C484 O469 1.256 . S
C484 C477 1.500 . S
C485 H450 0.929 . S
C485 C463 1.444 . S
C485 C486 1.317 . S
C486 H448 0.930 . S
C486 C454 1.432 . S
C486 C485 1.317 . S
C487 O471 1.283 . S
C487 O474 1.243 . S
C488 C489 1.382 . S
C488 C492 1.393 . S
C488 C495 1.500 1_565 S
C489 C488 1.382 . S
C489 C490 1.400 . S
C489 H500 0.930 . S
C490 C489 1.400 . S
C490 C491 1.384 . S
C491 C490 1.384 . S
C491 C493 1.392 . S
C491 H501 0.931 . S
C492 C488 1.393 . S
C492 C493 1.401 . S
C492 H502 0.930 . S
C493 C491 1.392 . S
C493 C492 1.401 . S
C493 H503 0.930 . S
C494 O472 1.262 . S
C494 O473 1.260 . S
C495 Tb431 2.833 . S
C495 O470 1.251 . S
C495 O475 1.256 . S
C495 C488 1.500 1_545 S
H496 C479 0.930 . S
H497 C480 0.931 . S
H498 C481 0.930 . S
H499 C482 0.930 . S
H500 C489 0.930 . S
H501 C491 0.931 . S
H502 C492 0.930 . S
H503 C493 0.930 . S
Tb504 N535 2.660 . S
Tb504 N542 2.600 . S
Tb504 O548 2.546 . S
Tb504 O549 2.610 . S
Tb504 O551 2.320 . S
Tb504 O552 2.552 . S
Tb504 O553 2.413 . S
Tb504 O555 2.362 . S
Tb504 O556 2.421 . S
Tb504 C568 2.833 . S
C505 C508 1.432 . S
C505 C509 1.414 . S
C505 N512 1.359 . S
C506 C508 1.417 . S
C506 C510 1.432 . S
C506 C518 1.410 . S
C507 C509 1.444 . S
C507 C510 1.317 . S
C507 H530 0.929 . S
C508 C505 1.432 . S
C508 C506 1.417 . S
C508 N516 1.360 . S
C509 C505 1.414 . S
C509 C507 1.444 . S
C509 C514 1.385 . S
C510 C506 1.432 . S
C510 C507 1.317 . S
C510 H522 0.930 . S
C511 C513 1.392 . S
C511 C514 1.370 . S
C511 H523 0.931 . S
N512 C505 1.359 . S
N512 C513 1.327 . S
N512 Tb515 2.600 . S
C513 C511 1.392 . S
C513 N512 1.327 . S
C513 H520 0.930 . S
C514 C509 1.385 . S
C514 C511 1.370 . S
C514 H533 0.930 . S
Tb515 N512 2.600 . S
Tb515 N516 2.660 . S
Tb515 O549 2.362 . S
Tb515 O550 2.421 . S
Tb515 O554 2.546 . S
Tb515 O555 2.610 . S
Tb515 O557 2.320 . S
Tb515 O558 2.552 . S
Tb515 O559 2.413 . S
Tb515 C579 2.833 . S
N516 C508 1.360 . S
N516 Tb515 2.660 . S
N516 C517 1.305 . S
C517 N516 1.305 . S
C517 C519 1.407 . S
C517 H524 0.930 . S
C518 C506 1.410 . S
C518 C519 1.345 . S
C518 H526 0.930 . S
C519 C517 1.407 . S
C519 C518 1.345 . S
C519 H521 0.930 . S
H520 C513 0.930 . S
H521 C519 0.930 . S
H522 C510 0.930 . S
H523 C511 0.931 . S
H524 C517 0.930 . S
H525 C539 0.930 . S
H526 C518 0.930 . S
H527 C545 0.930 . S
H528 C536 0.930 . S
H529 C543 0.931 . S
H530 C507 0.929 . S
H531 C537 0.930 1_545 S
H532 C570 0.930 . S
H533 C514 0.930 . S
H534 C569 0.929 1_545 S
N535 Tb504 2.660 . S
N535 C536 1.305 . S
N535 C540 1.360 . S
C536 H528 0.930 . S
C536 N535 1.305 . S
C536 C539 1.407 . S
C537 H531 0.930 1_565 S
C537 C538 1.410 . S
C537 C539 1.345 . S
C538 C537 1.410 . S
C538 C540 1.417 . S
C538 C570 1.432 1_565 S
C539 H525 0.930 . S
C539 C536 1.407 . S
C539 C537 1.345 . S
C540 N535 1.360 . S
C540 C538 1.417 . S
C540 C544 1.432 . S
H541 C546 0.930 . S
N542 Tb504 2.600 . S
N542 C544 1.359 . S
N542 C545 1.327 . S
C543 H529 0.931 . S
C543 C545 1.392 . S
C543 C546 1.370 . S
C544 C540 1.432 . S
C544 N542 1.359 . S
C544 C547 1.414 . S
C545 H527 0.930 . S
C545 N542 1.327 . S
C545 C543 1.392 . S
C546 H541 0.930 . S
C546 C543 1.370 . S
C546 C547 1.385 . S
C547 C544 1.414 . S
C547 C546 1.385 . S
C547 C569 1.444 . S
O548 Tb504 2.546 . S
O548 C568 1.251 . S
O549 Tb504 2.610 . S
O549 Tb515 2.362 . S
O549 C560 1.283 . S
O550 Tb515 2.421 . S
O550 C567 1.262 . S
O551 Tb504 2.320 . S
O551 C567 1.260 . S
O552 Tb504 2.552 . S
O552 C560 1.243 . S
O553 Tb504 2.413 . S
O553 C568 1.256 . S
O554 Tb515 2.546 . S
O554 C579 1.251 . S
O555 Tb504 2.362 . S
O555 Tb515 2.610 . S
O555 C571 1.283 . S
O556 Tb504 2.421 . S
O556 C578 1.262 . S
O557 Tb515 2.320 . S
O557 C578 1.260 . S
O558 Tb515 2.552 . S
O558 C571 1.243 . S
O559 Tb515 2.413 . S
O559 C579 1.256 . S
C560 O549 1.283 . S
C560 O552 1.243 . S
C561 C563 1.382 . S
C561 C565 1.393 . S
C561 C568 1.500 . S
C562 C563 1.400 . S
C562 C564 1.384 . S
C563 C561 1.382 . S
C563 C562 1.400 . S
C563 H580 0.930 . S
C564 C562 1.384 . S
C564 C566 1.392 . S
C564 H581 0.931 . S
C565 C561 1.393 . S
C565 C566 1.401 . S
C565 H582 0.930 . S
C566 C564 1.392 . S
C566 C565 1.401 . S
C566 H583 0.930 . S
C567 O550 1.262 . S
C567 O551 1.260 . S
C568 Tb504 2.833 . S
C568 O548 1.251 . S
C568 O553 1.256 . S
C568 C561 1.500 . S
C569 H534 0.929 1_565 S
C569 C547 1.444 . S
C569 C570 1.317 1_565 S
C570 H532 0.930 . S
C570 C538 1.432 1_545 S
C570 C569 1.317 1_545 S
C571 O555 1.283 . S
C571 O558 1.243 . S
C572 C573 1.382 . S
C572 C576 1.393 . S
C572 C579 1.500 . S
C573 C572 1.382 . S
C573 C574 1.400 . S
C573 H584 0.930 . S
C574 C573 1.400 . S
C574 C575 1.384 . S
C575 C574 1.384 . S
C575 C577 1.392 . S
C575 H585 0.931 . S
C576 C572 1.393 . S
C576 C577 1.401 . S
C576 H586 0.930 . S
C577 C575 1.392 . S
C577 C576 1.401 . S
C577 H587 0.930 . S
C578 O556 1.262 . S
C578 O557 1.260 . S
C579 Tb515 2.833 . S
C579 O554 1.251 . S
C579 O559 1.256 . S
C579 C572 1.500 . S
H580 C563 0.930 . S
H581 C564 0.931 . S
H582 C565 0.930 . S
H583 C566 0.930 . S
H584 C573 0.930 . S
H585 C575 0.931 . S
H586 C576 0.930 . S
H587 C577 0.930 . S
Tb588 N619 2.660 . S
Tb588 N626 2.600 . S
Tb588 O632 2.546 . S
Tb588 O633 2.610 . S
Tb588 O635 2.320 . S
Tb588 O636 2.552 . S
Tb588 O637 2.413 . S
Tb588 O639 2.362 . S
Tb588 O640 2.421 . S
Tb588 C652 2.833 . S
C589 C592 1.432 . S
C589 C593 1.414 . S
C589 N596 1.359 . S
C590 C592 1.417 . S
C590 C594 1.432 . S
C590 C602 1.410 . S
C591 C593 1.444 . S
C591 C594 1.317 . S
C591 H614 0.929 1_655 S
C592 C589 1.432 . S
C592 C590 1.417 . S
C592 N600 1.360 . S
C593 C589 1.414 . S
C593 C591 1.444 . S
C593 C598 1.385 . S
C594 C590 1.432 . S
C594 C591 1.317 . S
C594 H606 0.930 1_655 S
C595 C597 1.392 . S
C595 C598 1.370 . S
C595 H607 0.931 . S
N596 C589 1.359 . S
N596 C597 1.327 . S
N596 Tb599 2.600 . S
C597 C595 1.392 . S
C597 N596 1.327 . S
C597 H604 0.930 . S
C598 C593 1.385 . S
C598 C595 1.370 . S
C598 H617 0.930 . S
Tb599 N596 2.600 . S
Tb599 N600 2.660 . S
Tb599 O633 2.362 . S
Tb599 O634 2.421 . S
Tb599 O638 2.546 . S
Tb599 O639 2.610 . S
Tb599 O641 2.320 . S
Tb599 O642 2.552 . S
Tb599 O643 2.413 . S
Tb599 C663 2.833 . S
N600 C592 1.360 . S
N600 Tb599 2.660 . S
N600 C601 1.305 . S
C601 N600 1.305 . S
C601 C603 1.407 . S
C601 H608 0.930 . S
C602 C590 1.410 . S
C602 C603 1.345 . S
C602 H610 0.930 . S
C603 C601 1.407 . S
C603 C602 1.345 . S
C603 H605 0.930 . S
H604 C597 0.930 . S
H605 C603 0.930 . S
H606 C594 0.930 1_455 S
H607 C595 0.931 . S
H608 C601 0.930 . S
H609 C623 0.930 . S
H610 C602 0.930 . S
H611 C629 0.930 . S
H612 C620 0.930 . S
H613 C627 0.975 . S
H614 C591 0.929 1_455 S
H615 C621 0.930 . S
H616 C654 0.930 . S
H617 C598 0.930 . S
H618 C653 0.929 . S
N619 Tb588 2.660 . S
N619 C620 1.305 . S
N619 C624 1.360 . S
C620 H612 0.930 . S
C620 N619 1.305 . S
C620 C623 1.407 . S
C621 H615 0.930 . S
C621 C622 1.410 . S
C621 C623 1.345 . S
C622 C621 1.410 . S
C622 C624 1.417 . S
C622 C654 1.432 . S
C623 H609 0.930 . S
C623 C620 1.407 . S
C623 C621 1.345 . S
C624 N619 1.360 . S
C624 C622 1.417 . S
C624 C628 1.432 . S
H625 C630 0.930 . S
N626 Tb588 2.600 . S
N626 C628 1.359 . S
N626 C629 1.327 . S
C627 H613 0.975 . S
C627 C629 1.392 . S
C627 C630 1.370 . S
C628 C624 1.432 . S
C628 N626 1.359 . S
C628 C631 1.414 . S
C629 H611 0.930 . S
C629 N626 1.327 . S
C629 C627 1.392 . S
C630 H625 0.930 . S
C630 C627 1.370 . S
C630 C631 1.385 . S
C631 C628 1.414 . S
C631 C630 1.385 . S
C631 C653 1.444 . S
O632 Tb588 2.546 . S
O632 C652 1.251 . S
O633 Tb588 2.610 . S
O633 Tb599 2.362 . S
O633 C644 1.283 . S
O634 Tb599 2.421 . S
O634 C651 1.262 . S
O635 Tb588 2.320 . S
O635 C651 1.260 . S
O636 Tb588 2.552 . S
O636 C644 1.243 . S
O637 Tb588 2.413 . S
O637 C652 1.256 . S
O638 Tb599 2.546 . S
O638 C663 1.251 . S
O639 Tb588 2.362 . S
O639 Tb599 2.610 . S
O639 C655 1.283 . S
O640 Tb588 2.421 . S
O640 C662 1.262 . S
O641 Tb599 2.320 . S
O641 C662 1.260 . S
O642 Tb599 2.552 . S
O642 C655 1.243 . S
O643 Tb599 2.413 . S
O643 C663 1.256 . S
C644 O633 1.283 . S
C644 O636 1.243 . S
C645 C647 1.382 . S
C645 C649 1.393 . S
C645 C652 1.500 . S
C646 C647 1.400 . S
C646 C648 1.384 . S
C647 C645 1.382 . S
C647 C646 1.400 . S
C647 H664 0.930 . S
C648 C646 1.384 . S
C648 C650 1.392 . S
C648 H665 0.931 . S
C649 C645 1.393 . S
C649 C650 1.401 . S
C649 H666 0.930 . S
C650 C648 1.392 . S
C650 C649 1.401 . S
C650 H667 0.930 . S
C651 O634 1.262 . S
C651 O635 1.260 . S
C652 Tb588 2.833 . S
C652 O632 1.251 . S
C652 O637 1.256 . S
C652 C645 1.500 . S
C653 H618 0.929 . S
C653 C631 1.444 . S
C653 C654 1.317 . S
C654 H616 0.930 . S
C654 C622 1.432 . S
C654 C653 1.317 . S
C655 O639 1.283 . S
C655 O642 1.243 . S
C656 C657 1.382 . S
C656 C660 1.393 . S
C656 C663 1.500 1_455 S
C657 C656 1.382 . S
C657 C658 1.400 . S
C657 H668 0.930 . S
C658 C657 1.400 . S
C658 C659 1.384 . S
C659 C658 1.384 . S
C659 C661 1.392 . S
C659 H669 0.931 . S
C660 C656 1.393 . S
C660 C661 1.401 . S
C660 H670 0.930 . S
C661 C659 1.392 . S
C661 C660 1.401 . S
C661 H671 0.930 . S
C662 O640 1.262 . S
C662 O641 1.260 . S
C663 Tb599 2.833 . S
C663 O638 1.251 . S
C663 O643 1.256 . S
C663 C656 1.500 1_655 S
H664 C647 0.930 . S
H665 C648 0.931 . S
H666 C649 0.930 . S
H667 C650 0.930 . S
H668 C657 0.930 . S
H669 C659 0.931 . S
H670 C660 0.930 . S
H671 C661 0.930 . S
Tb672 N703 2.660 . S
Tb672 N710 2.600 . S
Tb672 O716 2.546 . S
Tb672 O717 2.610 . S
Tb672 O719 2.320 . S
Tb672 O720 2.552 . S
Tb672 O721 2.413 . S
Tb672 O723 2.362 . S
Tb672 O724 2.421 . S
Tb672 C736 2.833 . S
C673 C676 1.432 . S
C673 C677 1.414 . S
C673 N680 1.359 . S
C674 C676 1.417 . S
C674 C678 1.432 . S
C674 C686 1.410 . S
C675 C677 1.444 . S
C675 C678 1.317 . S
C675 H698 0.929 1_565 S
C676 C673 1.432 . S
C676 C674 1.417 . S
C676 N684 1.360 . S
C677 C673 1.414 . S
C677 C675 1.444 . S
C677 C682 1.385 . S
C678 C674 1.432 . S
C678 C675 1.317 . S
C678 H690 0.930 1_565 S
C679 C681 1.392 . S
C679 C682 1.370 . S
C679 H691 0.931 . S
N680 C673 1.359 . S
N680 C681 1.327 . S
N680 Tb683 2.600 . S
C681 C679 1.392 . S
C681 N680 1.327 . S
C681 H688 0.930 . S
C682 C677 1.385 . S
C682 C679 1.370 . S
C682 H701 0.930 . S
Tb683 N680 2.600 . S
Tb683 N684 2.660 . S
Tb683 O717 2.362 . S
Tb683 O718 2.421 . S
Tb683 O722 2.546 . S
Tb683 O723 2.610 . S
Tb683 O725 2.320 . S
Tb683 O726 2.552 . S
Tb683 O727 2.413 . S
Tb683 C747 2.833 . S
N684 C676 1.360 . S
N684 Tb683 2.660 . S
N684 C685 1.305 . S
C685 N684 1.305 . S
C685 C687 1.407 . S
C685 H692 0.930 . S
C686 C674 1.410 . S
C686 C687 1.345 . S
C686 H694 0.930 . S
C687 C685 1.407 . S
C687 C686 1.345 . S
C687 H689 0.930 . S
H688 C681 0.930 . S
H689 C687 0.930 . S
H690 C678 0.930 1_545 S
H691 C679 0.931 . S
H692 C685 0.930 . S
H693 C707 0.930 . S
H694 C686 0.930 . S
H695 C713 0.930 . S
H696 C704 0.930 . S
H697 C711 0.931 . S
H698 C675 0.929 1_545 S
H699 C705 0.930 1_655 S
H700 C738 0.930 . S
H701 C682 0.930 . S
H702 C737 0.929 1_655 S
N703 Tb672 2.660 . S
N703 C704 1.305 . S
N703 C708 1.360 . S
C704 H696 0.930 . S
C704 N703 1.305 . S
C704 C707 1.407 . S
C705 H699 0.930 1_455 S
C705 C706 1.410 . S
C705 C707 1.345 . S
C706 C705 1.410 . S
C706 C708 1.417 . S
C706 C738 1.432 1_455 S
C707 H693 0.930 . S
C707 C704 1.407 . S
C707 C705 1.345 . S
C708 N703 1.360 . S
C708 C706 1.417 . S
C708 C712 1.432 . S
H709 C714 0.930 . S
N710 Tb672 2.600 . S
N710 C712 1.359 . S
N710 C713 1.327 . S
C711 H697 0.931 . S
C711 C713 1.392 . S
C711 C714 1.370 . S
C712 C708 1.432 . S
C712 N710 1.359 . S
C712 C715 1.414 . S
C713 H695 0.930 . S
C713 N710 1.327 . S
C713 C711 1.392 . S
C714 H709 0.930 . S
C714 C711 1.370 . S
C714 C715 1.385 . S
C715 C712 1.414 . S
C715 C714 1.385 . S
C715 C737 1.444 . S
O716 Tb672 2.546 . S
O716 C736 1.251 . S
O717 Tb672 2.610 . S
O717 Tb683 2.362 . S
O717 C728 1.283 . S
O718 Tb683 2.421 . S
O718 C735 1.262 . S
O719 Tb672 2.320 . S
O719 C735 1.260 . S
O720 Tb672 2.552 . S
O720 C728 1.243 . S
O721 Tb672 2.413 . S
O721 C736 1.256 . S
O722 Tb683 2.546 . S
O722 C747 1.251 . S
O723 Tb672 2.362 . S
O723 Tb683 2.610 . S
O723 C739 1.283 . S
O724 Tb672 2.421 . S
O724 C746 1.262 . S
O725 Tb683 2.320 . S
O725 C746 1.260 . S
O726 Tb683 2.552 . S
O726 C739 1.243 . S
O727 Tb683 2.413 . S
O727 C747 1.256 . S
C728 O717 1.283 . S
C728 O720 1.243 . S
C729 C731 1.382 . S
C729 C733 1.393 . S
C729 C736 1.500 . S
C730 C731 1.400 . S
C730 C732 1.384 . S
C731 C729 1.382 . S
C731 C730 1.400 . S
C731 H748 0.930 . S
C732 C730 1.384 . S
C732 C734 1.392 . S
C732 H749 0.931 . S
C733 C729 1.393 . S
C733 C734 1.401 . S
C733 H750 0.930 . S
C734 C732 1.392 . S
C734 C733 1.401 . S
C734 H751 0.930 . S
C735 O718 1.262 . S
C735 O719 1.260 . S
C736 Tb672 2.833 . S
C736 O716 1.251 . S
C736 O721 1.256 . S
C736 C729 1.500 . S
C737 H702 0.929 1_455 S
C737 C715 1.444 . S
C737 C738 1.317 1_455 S
C738 H700 0.930 . S
C738 C706 1.432 1_655 S
C738 C737 1.317 1_655 S
C739 O723 1.283 . S
C739 O726 1.243 . S
C740 C741 1.382 . S
C740 C744 1.393 . S
C740 C747 1.500 1_545 S
C741 C740 1.382 . S
C741 C742 1.400 . S
C741 H752 0.930 . S
C742 C741 1.400 . S
C742 C743 1.384 . S
C743 C742 1.384 . S
C743 C745 1.392 . S
C743 H753 0.931 . S
C744 C740 1.393 . S
C744 C745 1.401 . S
C744 H754 0.930 . S
C745 C743 1.392 . S
C745 C744 1.401 . S
C745 H755 0.930 . S
C746 O724 1.262 . S
C746 O725 1.260 . S
C747 Tb683 2.833 . S
C747 O722 1.251 . S
C747 O727 1.256 . S
C747 C740 1.500 1_565 S
H748 C731 0.930 . S
H749 C732 0.931 . S
H750 C733 0.930 . S
H751 C734 0.930 . S
H752 C741 0.930 . S
H753 C743 0.931 . S
H754 C744 0.930 . S
H755 C745 0.930 . S
Tb756 N787 2.660 . S
Tb756 N794 2.600 . S
Tb756 O800 2.546 . S
Tb756 O801 2.610 . S
Tb756 O803 2.320 . S
Tb756 O804 2.552 . S
Tb756 O805 2.413 . S
Tb756 O807 2.362 . S
Tb756 O808 2.421 . S
Tb756 C820 2.833 . S
C757 C760 1.432 . S
C757 C761 1.414 . S
C757 N764 1.359 . S
C758 C760 1.417 . S
C758 C762 1.432 . S
C758 C770 1.410 . S
C759 C761 1.444 . S
C759 C762 1.317 . S
C759 H782 0.929 . S
C760 C757 1.432 . S
C760 C758 1.417 . S
C760 N768 1.360 . S
C761 C757 1.414 . S
C761 C759 1.444 . S
C761 C766 1.385 . S
C762 C758 1.432 . S
C762 C759 1.317 . S
C762 H774 0.930 . S
C763 C765 1.392 . S
C763 C766 1.370 . S
C763 H775 0.931 . S
N764 C757 1.359 . S
N764 C765 1.327 . S
N764 Tb767 2.600 . S
C765 C763 1.392 . S
C765 N764 1.327 . S
C765 H772 0.930 . S
C766 C761 1.385 . S
C766 C763 1.370 . S
C766 H785 0.930 . S
Tb767 N764 2.600 . S
Tb767 N768 2.660 . S
Tb767 O801 2.362 . S
Tb767 O802 2.421 . S
Tb767 O806 2.546 . S
Tb767 O807 2.610 . S
Tb767 O809 2.320 . S
Tb767 O810 2.552 . S
Tb767 O811 2.413 . S
Tb767 C831 2.833 . S
N768 C760 1.360 . S
N768 Tb767 2.660 . S
N768 C769 1.305 . S
C769 N768 1.305 . S
C769 C771 1.407 . S
C769 H776 0.930 . S
C770 C758 1.410 . S
C770 C771 1.345 . S
C770 H778 0.930 . S
C771 C769 1.407 . S
C771 C770 1.345 . S
C771 H773 0.930 . S
H772 C765 0.930 . S
H773 C771 0.930 . S
H774 C762 0.930 . S
H775 C763 0.931 . S
H776 C769 0.930 . S
H777 C791 0.930 . S
H778 C770 0.930 . S
H779 C797 0.930 . S
H780 C788 0.930 . S
H781 C795 0.974 . S
H782 C759 0.929 . S
H783 C789 0.930 1_565 S
H784 C822 0.930 . S
H785 C766 0.930 . S
H786 C821 0.929 1_565 S
N787 Tb756 2.660 . S
N787 C788 1.305 . S
N787 C792 1.360 . S
C788 H780 0.930 . S
C788 N787 1.305 . S
C788 C791 1.407 . S
C789 H783 0.930 1_545 S
C789 C790 1.410 . S
C789 C791 1.345 . S
C790 C789 1.410 . S
C790 C792 1.417 . S
C790 C822 1.432 1_545 S
C791 H777 0.930 . S
C791 C788 1.407 . S
C791 C789 1.345 . S
C792 N787 1.360 . S
C792 C790 1.417 . S
C792 C796 1.432 . S
H793 C798 0.930 . S
N794 Tb756 2.600 . S
N794 C796 1.359 . S
N794 C797 1.327 . S
C795 H781 0.974 . S
C795 C797 1.392 . S
C795 C798 1.370 . S
C796 C792 1.432 . S
C796 N794 1.359 . S
C796 C799 1.414 . S
C797 H779 0.930 . S
C797 N794 1.327 . S
C797 C795 1.392 . S
C798 H793 0.930 . S
C798 C795 1.370 . S
C798 C799 1.385 . S
C799 C796 1.414 . S
C799 C798 1.385 . S
C799 C821 1.444 . S
O800 Tb756 2.546 . S
O800 C820 1.251 . S
O801 Tb756 2.610 . S
O801 Tb767 2.362 . S
O801 C812 1.283 . S
O802 Tb767 2.421 . S
O802 C819 1.262 . S
O803 Tb756 2.320 . S
O803 C819 1.260 . S
O804 Tb756 2.552 . S
O804 C812 1.243 . S
O805 Tb756 2.413 . S
O805 C820 1.256 . S
O806 Tb767 2.546 . S
O806 C831 1.251 . S
O807 Tb756 2.362 . S
O807 Tb767 2.610 . S
O807 C823 1.283 . S
O808 Tb756 2.421 . S
O808 C830 1.262 . S
O809 Tb767 2.320 . S
O809 C830 1.260 . S
O810 Tb767 2.552 . S
O810 C823 1.243 . S
O811 Tb767 2.413 . S
O811 C831 1.256 . S
C812 O801 1.283 . S
C812 O804 1.243 . S
C813 C815 1.382 . S
C813 C817 1.393 . S
C813 C820 1.500 . S
C814 C815 1.400 . S
C814 C816 1.384 . S
C815 C813 1.382 . S
C815 C814 1.400 . S
C815 H832 0.930 . S
C816 C814 1.384 . S
C816 C818 1.392 . S
C816 H833 0.931 . S
C817 C813 1.393 . S
C817 C818 1.401 . S
C817 H834 0.930 . S
C818 C816 1.392 . S
C818 C817 1.401 . S
C818 H835 0.930 . S
C819 O802 1.262 . S
C819 O803 1.260 . S
C820 Tb756 2.833 . S
C820 O800 1.251 . S
C820 O805 1.256 . S
C820 C813 1.500 . S
C821 H786 0.929 1_545 S
C821 C799 1.444 . S
C821 C822 1.317 1_545 S
C822 H784 0.930 . S
C822 C790 1.432 1_565 S
C822 C821 1.317 1_565 S
C823 O807 1.283 . S
C823 O810 1.243 . S
C824 C825 1.382 . S
C824 C828 1.393 . S
C824 C831 1.500 . S
C825 C824 1.382 . S
C825 C826 1.400 . S
C825 H836 0.930 . S
C826 C825 1.400 . S
C826 C827 1.384 . S
C827 C826 1.384 . S
C827 C829 1.392 . S
C827 H837 0.931 . S
C828 C824 1.393 . S
C828 C829 1.401 . S
C828 H838 0.930 . S
C829 C827 1.392 . S
C829 C828 1.401 . S
C829 H839 0.930 . S
C830 O808 1.262 . S
C830 O809 1.260 . S
C831 Tb767 2.833 . S
C831 O806 1.251 . S
C831 O811 1.256 . S
C831 C824 1.500 . S
H832 C815 0.930 . S
H833 C816 0.931 . S
H834 C817 0.930 . S
H835 C818 0.930 . S
H836 C825 0.930 . S
H837 C827 0.931 . S
H838 C828 0.930 . S
H839 C829 0.930 . S
Tb840 N871 2.660 . S
Tb840 N878 2.600 . S
Tb840 O884 2.546 . S
Tb840 O885 2.610 . S
Tb840 O887 2.320 . S
Tb840 O888 2.552 . S
Tb840 O889 2.413 . S
Tb840 O891 2.362 . S
Tb840 O892 2.421 . S
Tb840 C904 2.833 . S
C841 C844 1.432 . S
C841 C845 1.414 . S
C841 N848 1.359 . S
C842 C844 1.417 . S
C842 C846 1.432 . S
C842 C854 1.410 . S
C843 C845 1.444 . S
C843 C846 1.317 . S
C843 H866 0.929 1_455 S
C844 C841 1.432 . S
C844 C842 1.417 . S
C844 N852 1.360 . S
C845 C841 1.414 . S
C845 C843 1.444 . S
C845 C850 1.385 . S
C846 C842 1.432 . S
C846 C843 1.317 . S
C846 H858 0.930 1_455 S
C847 C849 1.392 . S
C847 C850 1.370 . S
C847 H859 0.931 . S
N848 C841 1.359 . S
N848 C849 1.327 . S
N848 Tb851 2.600 . S
C849 C847 1.392 . S
C849 N848 1.327 . S
C849 H856 0.930 . S
C850 C845 1.385 . S
C850 C847 1.370 . S
C850 H869 0.930 . S
Tb851 N848 2.600 . S
Tb851 N852 2.660 . S
Tb851 O885 2.362 . S
Tb851 O886 2.421 . S
Tb851 O890 2.546 . S
Tb851 O891 2.610 . S
Tb851 O893 2.320 . S
Tb851 O894 2.552 . S
Tb851 O895 2.413 . S
Tb851 C915 2.833 . S
N852 C844 1.360 . S
N852 Tb851 2.660 . S
N852 C853 1.305 . S
C853 N852 1.305 . S
C853 C855 1.407 . S
C853 H860 0.930 . S
C854 C842 1.410 . S
C854 C855 1.345 . S
C854 H862 0.930 . S
C855 C853 1.407 . S
C855 C854 1.345 . S
C855 H857 0.930 . S
H856 C849 0.930 . S
H857 C855 0.930 . S
H858 C846 0.930 1_655 S
H859 C847 0.931 . S
H860 C853 0.930 . S
H861 C875 0.930 . S
H862 C854 0.930 . S
H863 C881 0.930 . S
H864 C872 0.930 . S
H865 C879 0.931 . S
H866 C843 0.929 1_655 S
H867 C873 0.930 . S
H868 C906 0.930 . S
H869 C850 0.930 . S
H870 C905 0.929 . S
N871 Tb840 2.660 . S
N871 C872 1.305 . S
N871 C876 1.360 . S
C872 H864 0.930 . S
C872 N871 1.305 . S
C872 C875 1.407 . S
C873 H867 0.930 . S
C873 C874 1.410 . S
C873 C875 1.345 . S
C874 C873 1.410 . S
C874 C876 1.417 . S
C874 C906 1.432 . S
C875 H861 0.930 . S
C875 C872 1.407 . S
C875 C873 1.345 . S
C876 N871 1.360 . S
C876 C874 1.417 . S
C876 C880 1.432 . S
H877 C882 0.930 . S
N878 Tb840 2.600 . S
N878 C880 1.359 . S
N878 C881 1.327 . S
C879 H865 0.931 . S
C879 C881 1.392 . S
C879 C882 1.370 . S
C880 C876 1.432 . S
C880 N878 1.359 . S
C880 C883 1.414 . S
C881 H863 0.930 . S
C881 N878 1.327 . S
C881 C879 1.392 . S
C882 H877 0.930 . S
C882 C879 1.370 . S
C882 C883 1.385 . S
C883 C880 1.414 . S
C883 C882 1.385 . S
C883 C905 1.444 . S
O884 Tb840 2.546 . S
O884 C904 1.251 . S
O885 Tb840 2.610 . S
O885 Tb851 2.362 . S
O885 C896 1.283 . S
O886 Tb851 2.421 . S
O886 C903 1.262 . S
O887 Tb840 2.320 . S
O887 C903 1.260 . S
O888 Tb840 2.552 . S
O888 C896 1.243 . S
O889 Tb840 2.413 . S
O889 C904 1.256 . S
O890 Tb851 2.546 . S
O890 C915 1.251 . S
O891 Tb840 2.362 . S
O891 Tb851 2.610 . S
O891 C907 1.283 . S
O892 Tb840 2.421 . S
O892 C914 1.262 . S
O893 Tb851 2.320 . S
O893 C914 1.260 . S
O894 Tb851 2.552 . S
O894 C907 1.243 . S
O895 Tb851 2.413 . S
O895 C915 1.256 . S
C896 O885 1.283 . S
C896 O888 1.243 . S
C897 C899 1.382 . S
C897 C901 1.393 . S
C897 C904 1.500 . S
C898 C899 1.400 . S
C898 C900 1.384 . S
C899 C897 1.382 . S
C899 C898 1.400 . S
C899 H916 0.930 . S
C900 C898 1.384 . S
C900 C902 1.392 . S
C900 H917 0.931 . S
C901 C897 1.393 . S
C901 C902 1.401 . S
C901 H918 0.930 . S
C902 C900 1.392 . S
C902 C901 1.401 . S
C902 H919 0.930 . S
C903 O886 1.262 . S
C903 O887 1.260 . S
C904 Tb840 2.833 . S
C904 O884 1.251 . S
C904 O889 1.256 . S
C904 C897 1.500 . S
C905 H870 0.929 . S
C905 C883 1.444 . S
C905 C906 1.317 . S
C906 H868 0.930 . S
C906 C874 1.432 . S
C906 C905 1.317 . S
C907 O891 1.283 . S
C907 O894 1.243 . S
C908 C909 1.382 . S
C908 C912 1.393 . S
C908 C915 1.500 1_655 S
C909 C908 1.382 . S
C909 C910 1.400 . S
C909 H920 0.930 . S
C910 C909 1.400 . S
C910 C911 1.384 . S
C911 C910 1.384 . S
C911 C913 1.392 . S
C911 H921 0.931 . S
C912 C908 1.393 . S
C912 C913 1.401 . S
C912 H922 0.930 . S
C913 C911 1.392 . S
C913 C912 1.401 . S
C913 H923 0.930 . S
C914 O892 1.262 . S
C914 O893 1.260 . S
C915 Tb851 2.833 . S
C915 O890 1.251 . S
C915 O895 1.256 . S
C915 C908 1.500 1_455 S
H916 C899 0.930 . S
H917 C900 0.931 . S
H918 C901 0.930 . S
H919 C902 0.930 . S
H920 C909 0.930 . S
H921 C911 0.931 . S
H922 C912 0.930 . S
H923 C913 0.930 . S
Tb924 N955 2.660 . S
Tb924 N962 2.600 . S
Tb924 O968 2.546 . S
Tb924 O969 2.610 . S
Tb924 O971 2.320 . S
Tb924 O972 2.552 . S
Tb924 O973 2.413 . S
Tb924 O975 2.362 . S
Tb924 O976 2.421 . S
Tb924 C988 2.833 . S
C925 C928 1.432 . S
C925 C929 1.414 . S
C925 N932 1.359 . S
C926 C928 1.417 . S
C926 C930 1.432 . S
C926 C938 1.410 . S
C927 C929 1.444 . S
C927 C930 1.317 . S
C927 H950 0.929 1_545 S
C928 C925 1.432 . S
C928 C926 1.417 . S
C928 N936 1.360 . S
C929 C925 1.414 . S
C929 C927 1.444 . S
C929 C934 1.385 . S
C930 C926 1.432 . S
C930 C927 1.317 . S
C930 H942 0.930 1_545 S
C931 C933 1.392 . S
C931 C934 1.370 . S
C931 H943 0.931 . S
N932 C925 1.359 . S
N932 C933 1.327 . S
N932 Tb935 2.600 . S
C933 C931 1.392 . S
C933 N932 1.327 . S
C933 H940 0.930 . S
C934 C929 1.385 . S
C934 C931 1.370 . S
C934 H953 0.930 . S
Tb935 N932 2.600 . S
Tb935 N936 2.660 . S
Tb935 O969 2.362 . S
Tb935 O970 2.421 . S
Tb935 O974 2.546 . S
Tb935 O975 2.610 . S
Tb935 O977 2.320 . S
Tb935 O978 2.552 . S
Tb935 O979 2.413 . S
Tb935 C999 2.833 . S
N936 C928 1.360 . S
N936 Tb935 2.660 . S
N936 C937 1.305 . S
C937 N936 1.305 . S
C937 C939 1.407 . S
C937 H944 0.930 . S
C938 C926 1.410 . S
C938 C939 1.345 . S
C938 H946 0.930 . S
C939 C937 1.407 . S
C939 C938 1.345 . S
C939 H941 0.930 . S
H940 C933 0.930 . S
H941 C939 0.930 . S
H942 C930 0.930 1_565 S
H943 C931 0.931 . S
H944 C937 0.930 . S
H945 C959 0.930 . S
H946 C938 0.930 . S
H947 C965 0.930 . S
H948 C956 0.930 . S
H949 C963 0.974 . S
H950 C927 0.929 1_565 S
H951 C957 0.930 1_455 S
H952 C990 0.930 . S
H953 C934 0.930 . S
H954 C989 0.929 1_455 S
N955 Tb924 2.660 . S
N955 C956 1.305 . S
N955 C960 1.360 . S
C956 H948 0.930 . S
C956 N955 1.305 . S
C956 C959 1.407 . S
C957 H951 0.930 1_655 S
C957 C958 1.410 . S
C957 C959 1.345 . S
C958 C957 1.410 . S
C958 C960 1.417 . S
C958 C990 1.432 1_655 S
C959 H945 0.930 . S
C959 C956 1.407 . S
C959 C957 1.345 . S
C960 N955 1.360 . S
C960 C958 1.417 . S
C960 C964 1.432 . S
H961 C966 0.930 . S
N962 Tb924 2.600 . S
N962 C964 1.359 . S
N962 C965 1.327 . S
C963 H949 0.974 . S
C963 C965 1.392 . S
C963 C966 1.370 . S
C964 C960 1.432 . S
C964 N962 1.359 . S
C964 C967 1.414 . S
C965 H947 0.930 . S
C965 N962 1.327 . S
C965 C963 1.392 . S
C966 H961 0.930 . S
C966 C963 1.370 . S
C966 C967 1.385 . S
C967 C964 1.414 . S
C967 C966 1.385 . S
C967 C989 1.444 . S
O968 Tb924 2.546 . S
O968 C988 1.251 . S
O969 Tb924 2.610 . S
O969 Tb935 2.362 . S
O969 C980 1.283 . S
O970 Tb935 2.421 . S
O970 C987 1.262 . S
O971 Tb924 2.320 . S
O971 C987 1.260 . S
O972 Tb924 2.552 . S
O972 C980 1.243 . S
O973 Tb924 2.413 . S
O973 C988 1.256 . S
O974 Tb935 2.546 . S
O974 C999 1.251 . S
O975 Tb924 2.362 . S
O975 Tb935 2.610 . S
O975 C991 1.283 . S
O976 Tb924 2.421 . S
O976 C998 1.262 . S
O977 Tb935 2.320 . S
O977 C998 1.260 . S
O978 Tb935 2.552 . S
O978 C991 1.243 . S
O979 Tb935 2.413 . S
O979 C999 1.256 . S
C980 O969 1.283 . S
C980 O972 1.243 . S
C981 C983 1.382 . S
C981 C985 1.393 . S
C981 C988 1.500 . S
C982 C983 1.400 . S
C982 C984 1.384 . S
C983 C981 1.382 . S
C983 C982 1.400 . S
C983 H1000 0.930 . S
C984 C982 1.384 . S
C984 C986 1.392 . S
C984 H1001 0.931 . S
C985 C981 1.393 . S
C985 C986 1.401 . S
C985 H1002 0.930 . S
C986 C984 1.392 . S
C986 C985 1.401 . S
C986 H1003 0.930 . S
C987 O970 1.262 . S
C987 O971 1.260 . S
C988 Tb924 2.833 . S
C988 O968 1.251 . S
C988 O973 1.256 . S
C988 C981 1.500 . S
C989 H954 0.929 1_655 S
C989 C967 1.444 . S
C989 C990 1.317 1_655 S
C990 H952 0.930 . S
C990 C958 1.432 1_455 S
C990 C989 1.317 1_455 S
C991 O975 1.283 . S
C991 O978 1.243 . S
C992 C993 1.382 . S
C992 C996 1.393 . S
C992 C999 1.500 1_565 S
C993 C992 1.382 . S
C993 C994 1.400 . S
C993 H1004 0.930 . S
C994 C993 1.400 . S
C994 C995 1.384 . S
C995 C994 1.384 . S
C995 C997 1.392 . S
C995 H1005 0.931 . S
C996 C992 1.393 . S
C996 C997 1.401 . S
C996 H1006 0.930 . S
C997 C995 1.392 . S
C997 C996 1.401 . S
C997 H1007 0.930 . S
C998 O976 1.262 . S
C998 O977 1.260 . S
C999 Tb935 2.833 . S
C999 O974 1.251 . S
C999 O979 1.256 . S
C999 C992 1.500 1_545 S
H1000 C983 0.930 . S
H1001 C984 0.931 . S
H1002 C985 0.930 . S
H1003 C986 0.930 . S
H1004 C993 0.930 . S
H1005 C995 0.931 . S
H1006 C996 0.930 . S
H1007 C997 0.930 . S
H1008 C1014 0.930 . S
H1009 C1018 0.930 . S
H1010 C1023 0.929 . S
H1011 C1021 0.929 . S
H1012 C1016 0.929 . S
H1013 C1022 0.929 . S
C1014 H1008 0.930 . S
C1014 C1015 1.367 . S
C1014 C1022 1.378 . S
C1015 C1014 1.367 . S
C1015 C1023 1.433 . S
C1016 H1012 0.929 . S
C1016 C1018 1.378 . S
C1016 C1020 1.350 . S
C1017 C1020 1.463 1_565 S
C1017 C1022 1.350 . S
C1017 N1025 1.427 . S
C1018 H1009 0.930 . S
C1018 C1016 1.378 . S
C1018 C1019 1.367 . S
C1019 C1018 1.367 . S
C1019 C1021 1.433 . S
C1020 C1016 1.350 . S
C1020 C1017 1.463 1_545 S
C1020 N1024 1.427 . S
C1021 H1011 0.929 . S
C1021 C1019 1.433 . S
C1021 N1024 1.384 . S
C1022 H1013 0.929 . S
C1022 C1014 1.378 . S
C1022 C1017 1.350 . S
C1023 H1010 0.929 . S
C1023 C1015 1.433 . S
C1023 N1025 1.384 . S
N1024 C1020 1.427 . S
N1024 C1021 1.384 . S
N1025 C1017 1.427 . S
N1025 C1023 1.384 . S
H1026 C1032 0.930 . S
H1027 C1036 0.930 . S
H1028 C1041 0.929 . S
H1029 C1039 0.929 . S
H1030 C1034 0.929 . S
H1031 C1040 0.929 . S
C1032 H1026 0.930 . S
C1032 C1033 1.367 . S
C1032 C1040 1.378 . S
C1033 C1032 1.367 . S
C1033 C1041 1.433 . S
C1034 H1030 0.929 . S
C1034 C1036 1.378 . S
C1034 C1038 1.350 . S
C1035 C1038 1.463 . S
C1035 C1040 1.350 . S
C1035 N1043 1.427 . S
C1036 H1027 0.930 . S
C1036 C1034 1.378 . S
C1036 C1037 1.367 . S
C1037 C1036 1.367 . S
C1037 C1039 1.433 . S
C1038 C1034 1.350 . S
C1038 C1035 1.463 . S
C1038 N1042 1.427 . S
C1039 H1029 0.929 . S
C1039 C1037 1.433 . S
C1039 N1042 1.384 . S
C1040 H1031 0.929 . S
C1040 C1032 1.378 . S
C1040 C1035 1.350 . S
C1041 H1028 0.929 . S
C1041 C1033 1.433 . S
C1041 N1043 1.384 . S
N1042 C1038 1.427 . S
N1042 C1039 1.384 . S
N1043 C1035 1.427 . S
N1043 C1041 1.384 . S
H1044 C1050 0.930 . S
H1045 C1054 0.930 . S
H1046 C1059 0.929 . S
H1047 C1057 0.929 . S
H1048 C1052 0.929 1_655 S
H1049 C1058 0.929 . S
C1050 H1044 0.930 . S
C1050 C1051 1.367 . S
C1050 C1058 1.378 . S
C1051 C1050 1.367 . S
C1051 C1059 1.433 . S
C1052 H1048 0.929 1_455 S
C1052 C1054 1.378 . S
C1052 C1056 1.350 . S
C1053 C1056 1.463 1_655 S
C1053 C1058 1.350 . S
C1053 N1061 1.427 . S
C1054 H1045 0.930 . S
C1054 C1052 1.378 . S
C1054 C1055 1.367 . S
C1055 C1054 1.367 . S
C1055 C1057 1.433 . S
C1056 C1052 1.350 . S
C1056 C1053 1.463 1_455 S
C1056 N1060 1.427 . S
C1057 H1047 0.929 . S
C1057 C1055 1.433 . S
C1057 N1060 1.384 . S
C1058 H1049 0.929 . S
C1058 C1050 1.378 . S
C1058 C1053 1.350 . S
C1059 H1046 0.929 . S
C1059 C1051 1.433 . S
C1059 N1061 1.384 . S
N1060 C1056 1.427 . S
N1060 C1057 1.384 . S
N1061 C1053 1.427 . S
N1061 C1059 1.384 . S
H1062 C1068 0.930 . S
H1063 C1072 0.930 . S
H1064 C1077 0.929 . S
H1065 C1075 0.929 . S
H1066 C1070 0.929 . S
H1067 C1076 0.929 . S
C1068 H1062 0.930 . S
C1068 C1069 1.367 . S
C1068 C1076 1.378 . S
C1069 C1068 1.367 . S
C1069 C1077 1.433 . S
C1070 H1066 0.929 . S
C1070 C1072 1.378 . S
C1070 C1074 1.350 . S
C1071 C1074 1.463 1_565 S
C1071 C1076 1.350 . S
C1071 N1079 1.427 . S
C1072 H1063 0.930 . S
C1072 C1070 1.378 . S
C1072 C1073 1.367 . S
C1073 C1072 1.367 . S
C1073 C1075 1.433 . S
C1074 C1070 1.350 . S
C1074 C1071 1.463 1_545 S
C1074 N1078 1.427 . S
C1075 H1065 0.929 . S
C1075 C1073 1.433 . S
C1075 N1078 1.384 . S
C1076 H1067 0.929 . S
C1076 C1068 1.378 . S
C1076 C1071 1.350 . S
C1077 H1064 0.929 . S
C1077 C1069 1.433 . S
C1077 N1079 1.384 . S
N1078 C1074 1.427 . S
N1078 C1075 1.384 . S
N1079 C1071 1.427 . S
N1079 C1077 1.384 . S
H1080 C1086 0.930 . S
H1081 C1090 0.930 . S
H1082 C1095 0.929 . S
H1083 C1093 0.929 . S
H1084 C1088 0.929 . S
H1085 C1094 0.929 . S
C1086 H1080 0.930 . S
C1086 C1087 1.367 . S
C1086 C1094 1.378 . S
C1087 C1086 1.367 . S
C1087 C1095 1.433 . S
C1088 H1084 0.929 . S
C1088 C1090 1.378 . S
C1088 C1092 1.350 . S
C1089 C1092 1.463 . S
C1089 C1094 1.350 . S
C1089 N1097 1.427 . S
C1090 H1081 0.930 . S
C1090 C1088 1.378 . S
C1090 C1091 1.367 . S
C1091 C1090 1.367 . S
C1091 C1093 1.433 . S
C1092 C1088 1.350 . S
C1092 C1089 1.463 . S
C1092 N1096 1.427 . S
C1093 H1083 0.929 . S
C1093 C1091 1.433 . S
C1093 N1096 1.384 . S
C1094 H1085 0.929 . S
C1094 C1086 1.378 . S
C1094 C1089 1.350 . S
C1095 H1082 0.929 . S
C1095 C1087 1.433 . S
C1095 N1097 1.384 . S
N1096 C1092 1.427 . S
N1096 C1093 1.384 . S
N1097 C1089 1.427 . S
N1097 C1095 1.384 . S
H1098 C1104 0.930 . S
H1099 C1108 0.930 . S
H1100 C1113 0.929 . S
H1101 C1111 0.929 . S
H1102 C1106 0.929 . S
H1103 C1112 0.929 . S
C1104 H1098 0.930 . S
C1104 C1105 1.367 . S
C1104 C1112 1.378 . S
C1105 C1104 1.367 . S
C1105 C1113 1.433 . S
C1106 H1102 0.929 . S
C1106 C1108 1.378 . S
C1106 C1110 1.350 . S
C1107 C1110 1.463 1_655 S
C1107 C1112 1.350 . S
C1107 N1115 1.427 . S
C1108 H1099 0.930 . S
C1108 C1106 1.378 . S
C1108 C1109 1.367 . S
C1109 C1108 1.367 . S
C1109 C1111 1.433 . S
C1110 C1106 1.350 . S
C1110 C1107 1.463 1_455 S
C1110 N1114 1.427 . S
C1111 H1101 0.929 . S
C1111 C1109 1.433 . S
C1111 N1114 1.384 . S
C1112 H1103 0.929 . S
C1112 C1104 1.378 . S
C1112 C1107 1.350 . S
C1113 H1100 0.929 . S
C1113 C1105 1.433 . S
C1113 N1115 1.384 . S
N1114 C1110 1.427 . S
N1114 C1111 1.384 . S
N1115 C1107 1.427 . S
N1115 C1113 1.384 . S
H1116 C1122 0.930 . S
H1117 C1126 0.930 . S
H1118 C1131 0.929 . S
H1119 C1129 0.929 . S
H1120 C1124 0.929 . S
H1121 C1130 0.929 . S
C1122 H1116 0.930 . S
C1122 C1123 1.367 . S
C1122 C1130 1.378 . S
C1123 C1122 1.367 . S
C1123 C1131 1.433 . S
C1124 H1120 0.929 . S
C1124 C1126 1.378 . S
C1124 C1128 1.350 . S
C1125 C1128 1.463 1_455 S
C1125 C1130 1.350 . S
C1125 N1133 1.427 . S
C1126 H1117 0.930 . S
C1126 C1124 1.378 . S
C1126 C1127 1.367 . S
C1127 C1126 1.367 . S
C1127 C1129 1.433 . S
C1128 C1124 1.350 . S
C1128 C1125 1.463 1_655 S
C1128 N1132 1.427 . S
C1129 H1119 0.929 . S
C1129 C1127 1.433 . S
C1129 N1132 1.384 . S
C1130 H1121 0.929 . S
C1130 C1122 1.378 . S
C1130 C1125 1.350 . S
C1131 H1118 0.929 . S
C1131 C1123 1.433 . S
C1131 N1133 1.384 . S
N1132 C1128 1.427 . S
N1132 C1129 1.384 . S
N1133 C1125 1.427 . S
N1133 C1131 1.384 . S
H1134 C1140 0.930 . S
H1135 C1144 0.930 . S
H1136 C1149 0.929 . S
H1137 C1147 0.929 . S
H1138 C1142 0.929 . S
H1139 C1148 0.929 . S
C1140 H1134 0.930 . S
C1140 C1141 1.367 . S
C1140 C1148 1.378 . S
C1141 C1140 1.367 . S
C1141 C1149 1.433 . S
C1142 H1138 0.929 . S
C1142 C1144 1.378 . S
C1142 C1146 1.350 . S
C1143 C1146 1.463 1_565 S
C1143 C1148 1.350 . S
C1143 N1151 1.427 . S
C1144 H1135 0.930 . S
C1144 C1142 1.378 . S
C1144 C1145 1.367 . S
C1145 C1144 1.367 . S
C1145 C1147 1.433 . S
C1146 C1142 1.350 . S
C1146 C1143 1.463 1_545 S
C1146 N1150 1.427 . S
C1147 H1137 0.929 . S
C1147 C1145 1.433 . S
C1147 N1150 1.384 . S
C1148 H1139 0.929 . S
C1148 C1140 1.378 . S
C1148 C1143 1.350 . S
C1149 H1136 0.929 . S
C1149 C1141 1.433 . S
C1149 N1151 1.384 . S
N1150 C1146 1.427 . S
N1150 C1147 1.384 . S
N1151 C1143 1.427 . S
N1151 C1149 1.384 . S
H1152 C1158 0.930 . S
H1153 C1162 0.930 . S
H1154 C1167 0.929 . S
H1155 C1165 0.929 . S
H1156 C1160 0.929 . S
H1157 C1166 0.929 . S
C1158 H1152 0.930 . S
C1158 C1159 1.367 . S
C1158 C1166 1.378 . S
C1159 C1158 1.367 . S
C1159 C1167 1.433 . S
C1160 H1156 0.929 . S
C1160 C1162 1.378 . S
C1160 C1164 1.350 . S
C1161 C1164 1.463 . S
C1161 C1166 1.350 . S
C1161 N1169 1.427 . S
C1162 H1153 0.930 . S
C1162 C1160 1.378 . S
C1162 C1163 1.367 . S
C1163 C1162 1.367 . S
C1163 C1165 1.433 . S
C1164 C1160 1.350 . S
C1164 C1161 1.463 . S
C1164 N1168 1.427 . S
C1165 H1155 0.929 . S
C1165 C1163 1.433 . S
C1165 N1168 1.384 . S
C1166 H1157 0.929 . S
C1166 C1158 1.378 . S
C1166 C1161 1.350 . S
C1167 H1154 0.929 . S
C1167 C1159 1.433 . S
C1167 N1169 1.384 . S
N1168 C1164 1.427 . S
N1168 C1165 1.384 . S
N1169 C1161 1.427 . S
N1169 C1167 1.384 . S
H1170 C1176 0.930 . S
H1171 C1180 0.930 . S
H1172 C1185 0.929 . S
H1173 C1183 0.929 . S
H1174 C1178 0.929 . S
H1175 C1184 0.929 . S
C1176 H1170 0.930 . S
C1176 C1177 1.367 . S
C1176 C1184 1.378 . S
C1177 C1176 1.367 . S
C1177 C1185 1.433 . S
C1178 H1174 0.929 . S
C1178 C1180 1.378 . S
C1178 C1182 1.350 . S
C1179 C1182 1.463 1_455 S
C1179 C1184 1.350 . S
C1179 N1187 1.427 . S
C1180 H1171 0.930 . S
C1180 C1178 1.378 . S
C1180 C1181 1.367 . S
C1181 C1180 1.367 . S
C1181 C1183 1.433 . S
C1182 C1178 1.350 . S
C1182 C1179 1.463 1_655 S
C1182 N1186 1.427 . S
C1183 H1173 0.929 . S
C1183 C1181 1.433 . S
C1183 N1186 1.384 . S
C1184 H1175 0.929 . S
C1184 C1176 1.378 . S
C1184 C1179 1.350 . S
C1185 H1172 0.929 . S
C1185 C1177 1.433 . S
C1185 N1187 1.384 . S
N1186 C1182 1.427 . S
N1186 C1183 1.384 . S
N1187 C1179 1.427 . S
N1187 C1185 1.384 . S
H1188 C1194 0.930 . S
H1189 C1198 0.930 . S
H1190 C1203 0.929 . S
H1191 C1201 0.929 . S
H1192 C1196 0.929 . S
H1193 C1202 0.929 . S
C1194 H1188 0.930 . S
C1194 C1195 1.367 . S
C1194 C1202 1.378 . S
C1195 C1194 1.367 . S
C1195 C1203 1.433 . S
C1196 H1192 0.929 . S
C1196 C1198 1.378 . S
C1196 C1200 1.350 . S
C1197 C1200 1.463 1_545 S
C1197 C1202 1.350 . S
C1197 N1205 1.427 . S
C1198 H1189 0.930 . S
C1198 C1196 1.378 . S
C1198 C1199 1.367 . S
C1199 C1198 1.367 . S
C1199 C1201 1.433 . S
C1200 C1196 1.350 . S
C1200 C1197 1.463 1_565 S
C1200 N1204 1.427 . S
C1201 H1191 0.929 . S
C1201 C1199 1.433 . S
C1201 N1204 1.384 . S
C1202 H1193 0.929 . S
C1202 C1194 1.378 . S
C1202 C1197 1.350 . S
C1203 H1190 0.929 . S
C1203 C1195 1.433 . S
C1203 N1205 1.384 . S
N1204 C1200 1.427 . S
N1204 C1201 1.384 . S
N1205 C1197 1.427 . S
N1205 C1203 1.384 . S
H1206 C1212 0.930 . S
H1207 C1216 0.930 . S
H1208 C1221 0.929 . S
H1209 C1219 0.929 . S
H1210 C1214 0.929 . S
H1211 C1220 0.929 . S
C1212 H1206 0.930 . S
C1212 C1213 1.367 . S
C1212 C1220 1.378 . S
C1213 C1212 1.367 . S
C1213 C1221 1.433 . S
C1214 H1210 0.929 . S
C1214 C1216 1.378 . S
C1214 C1218 1.350 . S
C1215 C1218 1.463 . S
C1215 C1220 1.350 . S
C1215 N1223 1.427 . S
C1216 H1207 0.930 . S
C1216 C1214 1.378 . S
C1216 C1217 1.367 . S
C1217 C1216 1.367 . S
C1217 C1219 1.433 . S
C1218 C1214 1.350 . S
C1218 C1215 1.463 . S
C1218 N1222 1.427 . S
C1219 H1209 0.929 . S
C1219 C1217 1.433 . S
C1219 N1222 1.384 . S
C1220 H1211 0.929 . S
C1220 C1212 1.378 . S
C1220 C1215 1.350 . S
C1221 H1208 0.929 . S
C1221 C1213 1.433 . S
C1221 N1223 1.384 . S
N1222 C1218 1.427 . S
N1222 C1219 1.384 . S
N1223 C1215 1.427 . S
N1223 C1221 1.384 . S
H1224 C1230 0.930 . S
H1225 C1234 0.930 . S
H1226 C1239 0.929 . S
H1227 C1237 0.929 . S
H1228 C1232 0.929 . S
H1229 C1238 0.929 . S
C1230 H1224 0.930 . S
C1230 C1231 1.367 . S
C1230 C1238 1.378 . S
C1231 C1230 1.367 . S
C1231 C1239 1.433 . S
C1232 H1228 0.929 . S
C1232 C1234 1.378 . S
C1232 C1236 1.350 . S
C1233 C1236 1.463 . S
C1233 C1238 1.350 . S
C1233 N1241 1.427 . S
C1234 H1225 0.930 . S
C1234 C1232 1.378 . S
C1234 C1235 1.367 . S
C1235 C1234 1.367 . S
C1235 C1237 1.433 . S
C1236 C1232 1.350 . S
C1236 C1233 1.463 . S
C1236 N1240 1.427 . S
C1237 H1227 0.929 . S
C1237 C1235 1.433 . S
C1237 N1240 1.384 . S
C1238 H1229 0.929 . S
C1238 C1230 1.378 . S
C1238 C1233 1.350 . S
C1239 H1226 0.929 . S
C1239 C1231 1.433 . S
C1239 N1241 1.384 . S
N1240 C1236 1.427 . S
N1240 C1237 1.384 . S
N1241 C1233 1.427 . S
N1241 C1239 1.384 . S
H1242 C1248 0.930 . S
H1243 C1252 0.930 . S
H1244 C1257 0.929 . S
H1245 C1255 0.929 . S
H1246 C1250 0.929 . S
H1247 C1256 0.929 . S
C1248 H1242 0.930 . S
C1248 C1249 1.367 . S
C1248 C1256 1.378 . S
C1249 C1248 1.367 . S
C1249 C1257 1.433 . S
C1250 H1246 0.929 . S
C1250 C1252 1.378 . S
C1250 C1254 1.350 . S
C1251 C1254 1.463 . S
C1251 C1256 1.350 . S
C1251 N1259 1.427 . S
C1252 H1243 0.930 . S
C1252 C1250 1.378 . S
C1252 C1253 1.367 . S
C1253 C1252 1.367 . S
C1253 C1255 1.433 . S
C1254 C1250 1.350 . S
C1254 C1251 1.463 . S
C1254 N1258 1.427 . S
C1255 H1245 0.929 . S
C1255 C1253 1.433 . S
C1255 N1258 1.384 . S
C1256 H1247 0.929 . S
C1256 C1248 1.378 . S
C1256 C1251 1.350 . S
C1257 H1244 0.929 . S
C1257 C1249 1.433 . S
C1257 N1259 1.384 . S
N1258 C1254 1.427 . S
N1258 C1255 1.384 . S
N1259 C1251 1.427 . S
N1259 C1257 1.384 . S
H1260 C1266 0.930 . S
H1261 C1270 0.930 . S
H1262 C1275 0.929 . S
H1263 C1273 0.929 . S
H1264 C1268 0.929 . S
H1265 C1274 0.929 . S
C1266 H1260 0.930 . S
C1266 C1267 1.367 . S
C1266 C1274 1.378 . S
C1267 C1266 1.367 . S
C1267 C1275 1.433 . S
C1268 H1264 0.929 . S
C1268 C1270 1.378 . S
C1268 C1272 1.350 . S
C1269 C1272 1.463 . S
C1269 C1274 1.350 . S
C1269 N1277 1.427 . S
C1270 H1261 0.930 . S
C1270 C1268 1.378 . S
C1270 C1271 1.367 . S
C1271 C1270 1.367 . S
C1271 C1273 1.433 . S
C1272 C1268 1.350 . S
C1272 C1269 1.463 . S
C1272 N1276 1.427 . S
C1273 H1263 0.929 . S
C1273 C1271 1.433 . S
C1273 N1276 1.384 . S
C1274 H1265 0.929 . S
C1274 C1266 1.378 . S
C1274 C1269 1.350 . S
C1275 H1262 0.929 . S
C1275 C1267 1.433 . S
C1275 N1277 1.384 . S
N1276 C1272 1.427 . S
N1276 C1273 1.384 . S
N1277 C1269 1.427 . S
N1277 C1275 1.384 . S
H1278 C1284 0.930 . S
H1279 C1288 0.930 . S
H1280 C1293 0.929 . S
H1281 C1291 0.929 . S
H1282 C1286 0.929 . S
H1283 C1292 0.929 . S
C1284 H1278 0.930 . S
C1284 C1285 1.367 . S
C1284 C1292 1.378 . S
C1285 C1284 1.367 . S
C1285 C1293 1.433 . S
C1286 H1282 0.929 . S
C1286 C1288 1.378 . S
C1286 C1290 1.350 . S
C1287 C1290 1.463 . S
C1287 C1292 1.350 . S
C1287 N1295 1.427 . S
C1288 H1279 0.930 . S
C1288 C1286 1.378 . S
C1288 C1289 1.367 . S
C1289 C1288 1.367 . S
C1289 C1291 1.433 . S
C1290 C1286 1.350 . S
C1290 C1287 1.463 . S
C1290 N1294 1.427 . S
C1291 H1281 0.929 . S
C1291 C1289 1.433 . S
C1291 N1294 1.384 . S
C1292 H1283 0.929 . S
C1292 C1284 1.378 . S
C1292 C1287 1.350 . S
C1293 H1280 0.929 . S
C1293 C1285 1.433 . S
C1293 N1295 1.384 . S
N1294 C1290 1.427 . S
N1294 C1291 1.384 . S
N1295 C1287 1.427 . S
N1295 C1293 1.384 . S
H1296 C1302 0.930 . S
H1297 C1306 0.930 . S
H1298 C1311 0.929 . S
H1299 C1309 0.929 . S
H1300 C1304 0.929 . S
H1301 C1310 0.929 . S
C1302 H1296 0.930 . S
C1302 C1303 1.367 . S
C1302 C1310 1.378 . S
C1303 C1302 1.367 . S
C1303 C1311 1.433 . S
C1304 H1300 0.929 . S
C1304 C1306 1.378 . S
C1304 C1308 1.350 . S
C1305 C1308 1.463 . S
C1305 C1310 1.350 . S
C1305 N1313 1.427 . S
C1306 H1297 0.930 . S
C1306 C1304 1.378 . S
C1306 C1307 1.367 . S
C1307 C1306 1.367 . S
C1307 C1309 1.433 . S
C1308 C1304 1.350 . S
C1308 C1305 1.463 . S
C1308 N1312 1.427 . S
C1309 H1299 0.929 . S
C1309 C1307 1.433 . S
C1309 N1312 1.384 . S
C1310 H1301 0.929 . S
C1310 C1302 1.378 . S
C1310 C1305 1.350 . S
C1311 H1298 0.929 . S
C1311 C1303 1.433 . S
C1311 N1313 1.384 . S
N1312 C1308 1.427 . S
N1312 C1309 1.384 . S
N1313 C1305 1.427 . S
N1313 C1311 1.384 . S
H1314 C1320 0.930 . S
H1315 C1324 0.930 . S
H1316 C1329 0.929 . S
H1317 C1327 0.929 . S
H1318 C1322 0.929 . S
H1319 C1328 0.929 . S
C1320 H1314 0.930 . S
C1320 C1321 1.367 . S
C1320 C1328 1.378 . S
C1321 C1320 1.367 . S
C1321 C1329 1.433 . S
C1322 H1318 0.929 . S
C1322 C1324 1.378 . S
C1322 C1326 1.350 . S
C1323 C1326 1.463 . S
C1323 C1328 1.350 . S
C1323 N1331 1.427 . S
C1324 H1315 0.930 . S
C1324 C1322 1.378 . S
C1324 C1325 1.367 . S
C1325 C1324 1.367 . S
C1325 C1327 1.433 . S
C1326 C1322 1.350 . S
C1326 C1323 1.463 . S
C1326 N1330 1.427 . S
C1327 H1317 0.929 . S
C1327 C1325 1.433 . S
C1327 N1330 1.384 . S
C1328 H1319 0.929 . S
C1328 C1320 1.378 . S
C1328 C1323 1.350 . S
C1329 H1316 0.929 . S
C1329 C1321 1.433 . S
C1329 N1331 1.384 . S
N1330 C1326 1.427 . S
N1330 C1327 1.384 . S
N1331 C1323 1.427 . S
N1331 C1329 1.384 . S
H1332 C1338 0.930 . S
H1333 C1342 0.930 . S
H1334 C1347 0.929 . S
H1335 C1345 0.929 . S
H1336 C1340 0.929 . S
H1337 C1346 0.929 . S
C1338 H1332 0.930 . S
C1338 C1339 1.367 . S
C1338 C1346 1.378 . S
C1339 C1338 1.367 . S
C1339 C1347 1.433 . S
C1340 H1336 0.929 . S
C1340 C1342 1.378 . S
C1340 C1344 1.350 . S
C1341 C1344 1.463 . S
C1341 C1346 1.350 . S
C1341 N1349 1.427 . S
C1342 H1333 0.930 . S
C1342 C1340 1.378 . S
C1342 C1343 1.367 . S
C1343 C1342 1.367 . S
C1343 C1345 1.433 . S
C1344 C1340 1.350 . S
C1344 C1341 1.463 . S
C1344 N1348 1.427 . S
C1345 H1335 0.929 . S
C1345 C1343 1.433 . S
C1345 N1348 1.384 . S
C1346 H1337 0.929 . S
C1346 C1338 1.378 . S
C1346 C1341 1.350 . S
C1347 H1334 0.929 . S
C1347 C1339 1.433 . S
C1347 N1349 1.384 . S
N1348 C1344 1.427 . S
N1348 C1345 1.384 . S
N1349 C1341 1.427 . S
N1349 C1347 1.384 . S
H1350 C1356 0.930 . S
H1351 C1360 0.930 . S
H1352 C1365 0.929 . S
H1353 C1363 0.929 . S
H1354 C1358 0.929 . S
H1355 C1364 0.929 . S
C1356 H1350 0.930 . S
C1356 C1357 1.367 . S
C1356 C1364 1.378 . S
C1357 C1356 1.367 . S
C1357 C1365 1.433 . S
C1358 H1354 0.929 . S
C1358 C1360 1.378 . S
C1358 C1362 1.350 . S
C1359 C1362 1.463 . S
C1359 C1364 1.350 . S
C1359 N1367 1.427 . S
C1360 H1351 0.930 . S
C1360 C1358 1.378 . S
C1360 C1361 1.367 . S
C1361 C1360 1.367 . S
C1361 C1363 1.433 . S
C1362 C1358 1.350 . S
C1362 C1359 1.463 . S
C1362 N1366 1.427 . S
C1363 H1353 0.929 . S
C1363 C1361 1.433 . S
C1363 N1366 1.384 . S
C1364 H1355 0.929 . S
C1364 C1356 1.378 . S
C1364 C1359 1.350 . S
C1365 H1352 0.929 . S
C1365 C1357 1.433 . S
C1365 N1367 1.384 . S
N1366 C1362 1.427 . S
N1366 C1363 1.384 . S
N1367 C1359 1.427 . S
N1367 C1365 1.384 . S
H1368 C1374 0.930 . S
H1369 C1378 0.930 . S
H1370 C1383 0.929 . S
H1371 C1381 0.929 . S
H1372 C1376 0.929 . S
H1373 C1382 0.929 . S
C1374 H1368 0.930 . S
C1374 C1375 1.367 . S
C1374 C1382 1.378 . S
C1375 C1374 1.367 . S
C1375 C1383 1.433 . S
C1376 H1372 0.929 . S
C1376 C1378 1.378 . S
C1376 C1380 1.350 . S
C1377 C1380 1.463 . S
C1377 C1382 1.350 . S
C1377 N1385 1.427 . S
C1378 H1369 0.930 . S
C1378 C1376 1.378 . S
C1378 C1379 1.367 . S
C1379 C1378 1.367 . S
C1379 C1381 1.433 . S
C1380 C1376 1.350 . S
C1380 C1377 1.463 . S
C1380 N1384 1.427 . S
C1381 H1371 0.929 . S
C1381 C1379 1.433 . S
C1381 N1384 1.384 . S
C1382 H1373 0.929 . S
C1382 C1374 1.378 . S
C1382 C1377 1.350 . S
C1383 H1370 0.929 . S
C1383 C1375 1.433 . S
C1383 N1385 1.384 . S
N1384 C1380 1.427 . S
N1384 C1381 1.384 . S
N1385 C1377 1.427 . S
N1385 C1383 1.384 . S
H1386 C1392 0.930 . S
H1387 C1396 0.930 . S
H1388 C1401 0.929 . S
H1389 C1399 0.929 . S
H1390 C1394 0.929 . S
H1391 C1400 0.929 . S
C1392 H1386 0.930 . S
C1392 C1393 1.367 . S
C1392 C1400 1.378 . S
C1393 C1392 1.367 . S
C1393 C1401 1.433 . S
C1394 H1390 0.929 . S
C1394 C1396 1.378 . S
C1394 C1398 1.350 . S
C1395 C1398 1.463 . S
C1395 C1400 1.350 . S
C1395 N1403 1.427 . S
C1396 H1387 0.930 . S
C1396 C1394 1.378 . S
C1396 C1397 1.367 . S
C1397 C1396 1.367 . S
C1397 C1399 1.433 . S
C1398 C1394 1.350 . S
C1398 C1395 1.463 . S
C1398 N1402 1.427 . S
C1399 H1389 0.929 . S
C1399 C1397 1.433 . S
C1399 N1402 1.384 . S
C1400 H1391 0.929 . S
C1400 C1392 1.378 . S
C1400 C1395 1.350 . S
C1401 H1388 0.929 . S
C1401 C1393 1.433 . S
C1401 N1403 1.384 . S
N1402 C1398 1.427 . S
N1402 C1399 1.384 . S
N1403 C1395 1.427 . S
N1403 C1401 1.384 . S
H1404 C1410 0.930 . S
H1405 C1414 0.930 . S
H1406 C1419 0.929 . S
H1407 C1417 0.929 . S
H1408 C1412 0.929 . S
H1409 C1418 0.929 . S
C1410 H1404 0.930 . S
C1410 C1411 1.367 . S
C1410 C1418 1.378 . S
C1411 C1410 1.367 . S
C1411 C1419 1.433 . S
C1412 H1408 0.929 . S
C1412 C1414 1.378 . S
C1412 C1416 1.350 . S
C1413 C1416 1.463 . S
C1413 C1418 1.350 . S
C1413 N1421 1.427 . S
C1414 H1405 0.930 . S
C1414 C1412 1.378 . S
C1414 C1415 1.367 . S
C1415 C1414 1.367 . S
C1415 C1417 1.433 . S
C1416 C1412 1.350 . S
C1416 C1413 1.463 . S
C1416 N1420 1.427 . S
C1417 H1407 0.929 . S
C1417 C1415 1.433 . S
C1417 N1420 1.384 . S
C1418 H1409 0.929 . S
C1418 C1410 1.378 . S
C1418 C1413 1.350 . S
C1419 H1406 0.929 . S
C1419 C1411 1.433 . S
C1419 N1421 1.384 . S
N1420 C1416 1.427 . S
N1420 C1417 1.384 . S
N1421 C1413 1.427 . S
N1421 C1419 1.384 . S
H1422 C1428 0.930 . S
H1423 C1432 0.930 . S
H1424 C1437 0.929 . S
H1425 C1435 0.929 . S
H1426 C1430 0.929 . S
H1427 C1436 0.929 . S
C1428 H1422 0.930 . S
C1428 C1429 1.367 . S
C1428 C1436 1.378 . S
C1429 C1428 1.367 . S
C1429 C1437 1.433 . S
C1430 H1426 0.929 . S
C1430 C1432 1.378 . S
C1430 C1434 1.350 . S
C1431 C1434 1.463 . S
C1431 C1436 1.350 . S
C1431 N1439 1.427 . S
C1432 H1423 0.930 . S
C1432 C1430 1.378 . S
C1432 C1433 1.367 . S
C1433 C1432 1.367 . S
C1433 C1435 1.433 . S
C1434 C1430 1.350 . S
C1434 C1431 1.463 . S
C1434 N1438 1.427 . S
C1435 H1425 0.929 . S
C1435 C1433 1.433 . S
C1435 N1438 1.384 . S
C1436 H1427 0.929 . S
C1436 C1428 1.378 . S
C1436 C1431 1.350 . S
C1437 H1424 0.929 . S
C1437 C1429 1.433 . S
C1437 N1439 1.384 . S
N1438 C1434 1.427 . S
N1438 C1435 1.384 . S
N1439 C1431 1.427 . S
N1439 C1437 1.384 . S
H1440 C1446 0.930 . S
H1441 C1450 0.930 . S
H1442 C1455 0.929 . S
H1443 C1453 0.929 . S
H1444 C1448 0.929 . S
H1445 C1454 0.929 . S
C1446 H1440 0.930 . S
C1446 C1447 1.367 . S
C1446 C1454 1.378 . S
C1447 C1446 1.367 . S
C1447 C1455 1.433 . S
C1448 H1444 0.929 . S
C1448 C1450 1.378 . S
C1448 C1452 1.350 . S
C1449 C1452 1.463 . S
C1449 C1454 1.350 . S
C1449 N1457 1.427 . S
C1450 H1441 0.930 . S
C1450 C1448 1.378 . S
C1450 C1451 1.367 . S
C1451 C1450 1.367 . S
C1451 C1453 1.433 . S
C1452 C1448 1.350 . S
C1452 C1449 1.463 . S
C1452 N1456 1.427 . S
C1453 H1443 0.929 . S
C1453 C1451 1.433 . S
C1453 N1456 1.384 . S
C1454 H1445 0.929 . S
C1454 C1446 1.378 . S
C1454 C1449 1.350 . S
C1455 H1442 0.929 . S
C1455 C1447 1.433 . S
C1455 N1457 1.384 . S
N1456 C1452 1.427 . S
N1456 C1453 1.384 . S
N1457 C1449 1.427 . S
N1457 C1455 1.384 . S
H1458 C1464 0.930 . S
H1459 C1468 0.930 . S
H1460 C1473 0.929 . S
H1461 C1471 0.929 . S
H1462 C1466 0.929 . S
H1463 C1472 0.929 . S
C1464 H1458 0.930 . S
C1464 C1465 1.367 . S
C1464 C1472 1.378 . S
C1465 C1464 1.367 . S
C1465 C1473 1.433 . S
C1466 H1462 0.929 . S
C1466 C1468 1.378 . S
C1466 C1470 1.350 . S
C1467 C1470 1.463 . S
C1467 C1472 1.350 . S
C1467 N1475 1.427 . S
C1468 H1459 0.930 . S
C1468 C1466 1.378 . S
C1468 C1469 1.367 . S
C1469 C1468 1.367 . S
C1469 C1471 1.433 . S
C1470 C1466 1.350 . S
C1470 C1467 1.463 . S
C1470 N1474 1.427 . S
C1471 H1461 0.929 . S
C1471 C1469 1.433 . S
C1471 N1474 1.384 . S
C1472 H1463 0.929 . S
C1472 C1464 1.378 . S
C1472 C1467 1.350 . S
C1473 H1460 0.929 . S
C1473 C1465 1.433 . S
C1473 N1475 1.384 . S
N1474 C1470 1.427 . S
N1474 C1471 1.384 . S
N1475 C1467 1.427 . S
N1475 C1473 1.384 . S
H1476 C1482 0.930 . S
H1477 C1486 0.930 . S
H1478 C1491 0.929 . S
H1479 C1489 0.929 . S
H1480 C1484 0.929 . S
H1481 C1490 0.929 . S
C1482 H1476 0.930 . S
C1482 C1483 1.367 . S
C1482 C1490 1.378 . S
C1483 C1482 1.367 . S
C1483 C1491 1.433 . S
C1484 H1480 0.929 . S
C1484 C1486 1.378 . S
C1484 C1488 1.350 . S
C1485 C1488 1.463 . S
C1485 C1490 1.350 . S
C1485 N1493 1.427 . S
C1486 H1477 0.930 . S
C1486 C1484 1.378 . S
C1486 C1487 1.367 . S
C1487 C1486 1.367 . S
C1487 C1489 1.433 . S
C1488 C1484 1.350 . S
C1488 C1485 1.463 . S
C1488 N1492 1.427 . S
C1489 H1479 0.929 . S
C1489 C1487 1.433 . S
C1489 N1492 1.384 . S
C1490 H1481 0.929 . S
C1490 C1482 1.378 . S
C1490 C1485 1.350 . S
C1491 H1478 0.929 . S
C1491 C1483 1.433 . S
C1491 N1493 1.384 . S
N1492 C1488 1.427 . S
N1492 C1489 1.384 . S
N1493 C1485 1.427 . S
N1493 C1491 1.384 . S
H1494 C1500 0.930 . S
H1495 C1504 0.930 . S
H1496 C1509 0.929 . S
H1497 C1507 0.929 . S
H1498 C1502 0.929 . S
H1499 C1508 0.929 . S
C1500 H1494 0.930 . S
C1500 C1501 1.367 . S
C1500 C1508 1.378 . S
C1501 C1500 1.367 . S
C1501 C1509 1.433 . S
C1502 H1498 0.929 . S
C1502 C1504 1.378 . S
C1502 C1506 1.350 . S
C1503 C1506 1.463 . S
C1503 C1508 1.350 . S
C1503 N1511 1.427 . S
C1504 H1495 0.930 . S
C1504 C1502 1.378 . S
C1504 C1505 1.367 . S
C1505 C1504 1.367 . S
C1505 C1507 1.433 . S
C1506 C1502 1.350 . S
C1506 C1503 1.463 . S
C1506 N1510 1.427 . S
C1507 H1497 0.929 . S
C1507 C1505 1.433 . S
C1507 N1510 1.384 . S
C1508 H1499 0.929 . S
C1508 C1500 1.378 . S
C1508 C1503 1.350 . S
C1509 H1496 0.929 . S
C1509 C1501 1.433 . S
C1509 N1511 1.384 . S
N1510 C1506 1.427 . S
N1510 C1507 1.384 . S
N1511 C1503 1.427 . S
N1511 C1509 1.384 . S
H1512 C1518 0.930 . S
H1513 C1522 0.930 . S
H1514 C1527 0.929 . S
H1515 C1525 0.929 . S
H1516 C1520 0.929 . S
H1517 C1526 0.929 . S
C1518 H1512 0.930 . S
C1518 C1519 1.367 . S
C1518 C1526 1.378 . S
C1519 C1518 1.367 . S
C1519 C1527 1.433 . S
C1520 H1516 0.929 . S
C1520 C1522 1.378 . S
C1520 C1524 1.350 . S
C1521 C1524 1.463 . S
C1521 C1526 1.350 . S
C1521 N1529 1.427 . S
C1522 H1513 0.930 . S
C1522 C1520 1.378 . S
C1522 C1523 1.367 . S
C1523 C1522 1.367 . S
C1523 C1525 1.433 . S
C1524 C1520 1.350 . S
C1524 C1521 1.463 . S
C1524 N1528 1.427 . S
C1525 H1515 0.929 . S
C1525 C1523 1.433 . S
C1525 N1528 1.384 . S
C1526 H1517 0.929 . S
C1526 C1518 1.378 . S
C1526 C1521 1.350 . S
C1527 H1514 0.929 . S
C1527 C1519 1.433 . S
C1527 N1529 1.384 . S
N1528 C1524 1.427 . S
N1528 C1525 1.384 . S
N1529 C1521 1.427 . S
N1529 C1527 1.384 . S
H1530 C1536 0.930 . S
H1531 C1540 0.930 . S
H1532 C1545 0.929 . S
H1533 C1543 0.929 . S
H1534 C1538 0.929 . S
H1535 C1544 0.929 . S
C1536 H1530 0.930 . S
C1536 C1537 1.367 . S
C1536 C1544 1.378 . S
C1537 C1536 1.367 . S
C1537 C1545 1.433 . S
C1538 H1534 0.929 . S
C1538 C1540 1.378 . S
C1538 C1542 1.350 . S
C1539 C1542 1.463 . S
C1539 C1544 1.350 . S
C1539 N1547 1.427 . S
C1540 H1531 0.930 . S
C1540 C1538 1.378 . S
C1540 C1541 1.367 . S
C1541 C1540 1.367 . S
C1541 C1543 1.433 . S
C1542 C1538 1.350 . S
C1542 C1539 1.463 . S
C1542 N1546 1.427 . S
C1543 H1533 0.929 . S
C1543 C1541 1.433 . S
C1543 N1546 1.384 . S
C1544 H1535 0.929 . S
C1544 C1536 1.378 . S
C1544 C1539 1.350 . S
C1545 H1532 0.929 . S
C1545 C1537 1.433 . S
C1545 N1547 1.384 . S
N1546 C1542 1.427 . S
N1546 C1543 1.384 . S
N1547 C1539 1.427 . S
N1547 C1545 1.384 . S
H1548 C1554 0.930 . S
H1549 C1558 0.930 . S
H1550 C1563 0.929 . S
H1551 C1561 0.929 . S
H1552 C1556 0.929 . S
H1553 C1562 0.929 . S
C1554 H1548 0.930 . S
C1554 C1555 1.367 . S
C1554 C1562 1.378 . S
C1555 C1554 1.367 . S
C1555 C1563 1.433 . S
C1556 H1552 0.929 . S
C1556 C1558 1.378 . S
C1556 C1560 1.350 . S
C1557 C1560 1.463 1_556 S
C1557 C1562 1.350 . S
C1557 N1565 1.427 1_556 S
C1558 H1549 0.930 . S
C1558 C1556 1.378 . S
C1558 C1559 1.367 . S
C1559 C1558 1.367 . S
C1559 C1561 1.433 . S
C1560 C1556 1.350 . S
C1560 C1557 1.463 1_554 S
C1560 N1564 1.427 1_554 S
C1561 H1551 0.929 . S
C1561 C1559 1.433 . S
C1561 N1564 1.384 1_554 S
C1562 H1553 0.929 . S
C1562 C1554 1.378 . S
C1562 C1557 1.350 . S
C1563 H1550 0.929 . S
C1563 C1555 1.433 . S
C1563 N1565 1.384 1_556 S
N1564 C1560 1.427 1_556 S
N1564 C1561 1.384 1_556 S
N1565 C1557 1.427 1_554 S
N1565 C1563 1.384 1_554 S
H1566 C1572 0.930 . S
H1567 C1576 0.930 . S
H1568 C1581 0.929 . S
H1569 C1579 0.929 . S
H1570 C1574 0.929 . S
H1571 C1580 0.929 . S
C1572 H1566 0.930 . S
C1572 C1573 1.367 . S
C1572 C1580 1.378 . S
C1573 C1572 1.367 . S
C1573 C1581 1.433 . S
C1574 H1570 0.929 . S
C1574 C1576 1.378 . S
C1574 C1578 1.350 . S
C1575 C1578 1.463 1_455 S
C1575 C1580 1.350 . S
C1575 N1583 1.427 . S
C1576 H1567 0.930 . S
C1576 C1574 1.378 . S
C1576 C1577 1.367 . S
C1577 C1576 1.367 . S
C1577 C1579 1.433 . S
C1578 C1574 1.350 . S
C1578 C1575 1.463 1_655 S
C1578 N1582 1.427 . S
C1579 H1569 0.929 . S
C1579 C1577 1.433 . S
C1579 N1582 1.384 . S
C1580 H1571 0.929 . S
C1580 C1572 1.378 . S
C1580 C1575 1.350 . S
C1581 H1568 0.929 . S
C1581 C1573 1.433 . S
C1581 N1583 1.384 . S
N1582 C1578 1.427 . S
N1582 C1579 1.384 . S
N1583 C1575 1.427 . S
N1583 C1581 1.384 . S
H1584 C1590 0.930 . S
H1585 C1594 0.930 . S
H1586 C1599 0.929 . S
H1587 C1597 0.929 . S
H1588 C1592 0.929 . S
H1589 C1598 0.929 . S
C1590 H1584 0.930 . S
C1590 C1591 1.367 . S
C1590 C1598 1.378 1_554 S
C1591 C1590 1.367 . S
C1591 C1599 1.433 . S
C1592 H1588 0.929 . S
C1592 C1594 1.378 1_554 S
C1592 C1596 1.350 1_554 S
C1593 C1596 1.463 1_564 S
C1593 C1598 1.350 1_554 S
C1593 N1601 1.427 . S
C1594 H1585 0.930 . S
C1594 C1592 1.378 1_556 S
C1594 C1595 1.367 . S
C1595 C1594 1.367 . S
C1595 C1597 1.433 . S
C1596 C1592 1.350 1_556 S
C1596 C1593 1.463 1_546 S
C1596 N1600 1.427 . S
C1597 H1587 0.929 . S
C1597 C1595 1.433 . S
C1597 N1600 1.384 . S
C1598 H1589 0.929 . S
C1598 C1590 1.378 1_556 S
C1598 C1593 1.350 1_556 S
C1599 H1586 0.929 . S
C1599 C1591 1.433 . S
C1599 N1601 1.384 . S
N1600 C1596 1.427 . S
N1600 C1597 1.384 . S
N1601 C1593 1.427 . S
N1601 C1599 1.384 . S
H1602 C1608 0.930 . S
H1603 C1612 0.930 . S
H1604 C1617 0.929 . S
H1605 C1615 0.929 . S
H1606 C1610 0.929 . S
H1607 C1616 0.929 . S
C1608 H1602 0.930 . S
C1608 C1609 1.367 . S
C1608 C1616 1.378 . S
C1609 C1608 1.367 . S
C1609 C1617 1.433 . S
C1610 H1606 0.929 . S
C1610 C1612 1.378 . S
C1610 C1614 1.350 . S
C1611 C1614 1.463 . S
C1611 C1616 1.350 . S
C1611 N1619 1.427 . S
C1612 H1603 0.930 . S
C1612 C1610 1.378 . S
C1612 C1613 1.367 . S
C1613 C1612 1.367 . S
C1613 C1615 1.433 . S
C1614 C1610 1.350 . S
C1614 C1611 1.463 . S
C1614 N1618 1.427 . S
C1615 H1605 0.929 . S
C1615 C1613 1.433 . S
C1615 N1618 1.384 . S
C1616 H1607 0.929 . S
C1616 C1608 1.378 . S
C1616 C1611 1.350 . S
C1617 H1604 0.929 . S
C1617 C1609 1.433 . S
C1617 N1619 1.384 . S
N1618 C1614 1.427 . S
N1618 C1615 1.384 . S
N1619 C1611 1.427 . S
N1619 C1617 1.384 . S
H1620 C1626 0.930 . S
H1621 C1630 0.930 . S
H1622 C1635 0.929 . S
H1623 C1633 0.929 . S
H1624 C1628 0.929 . S
H1625 C1634 0.929 . S
C1626 H1620 0.930 . S
C1626 C1627 1.367 . S
C1626 C1634 1.378 . S
C1627 C1626 1.367 . S
C1627 C1635 1.433 . S
C1628 H1624 0.929 . S
C1628 C1630 1.378 . S
C1628 C1632 1.350 . S
C1629 C1632 1.463 1_656 S
C1629 C1634 1.350 . S
C1629 N1637 1.427 . S
C1630 H1621 0.930 . S
C1630 C1628 1.378 . S
C1630 C1631 1.367 . S
C1631 C1630 1.367 . S
C1631 C1633 1.433 . S
C1632 C1628 1.350 . S
C1632 C1629 1.463 1_454 S
C1632 N1636 1.427 . S
C1633 H1623 0.929 . S
C1633 C1631 1.433 . S
C1633 N1636 1.384 . S
C1634 H1625 0.929 . S
C1634 C1626 1.378 . S
C1634 C1629 1.350 . S
C1635 H1622 0.929 . S
C1635 C1627 1.433 . S
C1635 N1637 1.384 . S
N1636 C1632 1.427 . S
N1636 C1633 1.384 . S
N1637 C1629 1.427 . S
N1637 C1635 1.384 . S
H1638 C1644 0.930 . S
H1639 C1648 0.930 . S
H1640 C1653 0.929 . S
H1641 C1651 0.929 . S
H1642 C1646 0.929 . S
H1643 C1652 0.929 . S
C1644 H1638 0.930 . S
C1644 C1645 1.367 . S
C1644 C1652 1.378 . S
C1645 C1644 1.367 . S
C1645 C1653 1.433 . S
C1646 H1642 0.929 . S
C1646 C1648 1.378 . S
C1646 C1650 1.350 . S
C1647 C1650 1.463 1_565 S
C1647 C1652 1.350 . S
C1647 N1655 1.427 . S
C1648 H1639 0.930 . S
C1648 C1646 1.378 . S
C1648 C1649 1.367 . S
C1649 C1648 1.367 . S
C1649 C1651 1.433 . S
C1650 C1646 1.350 . S
C1650 C1647 1.463 1_545 S
C1650 N1654 1.427 . S
C1651 H1641 0.929 . S
C1651 C1649 1.433 . S
C1651 N1654 1.384 . S
C1652 H1643 0.929 . S
C1652 C1644 1.378 . S
C1652 C1647 1.350 . S
C1653 H1640 0.929 . S
C1653 C1645 1.433 . S
C1653 N1655 1.384 . S
N1654 C1650 1.427 . S
N1654 C1651 1.384 . S
N1655 C1647 1.427 . S
N1655 C1653 1.384 . S
C1015 C403 1.353 . S
C1019 C70 1.247 . S
C1033 C487 1.354 . S
C1037 C154 1.255 . S
C1051 C238 1.258 . S
C1055 C67 1.353 . S
C1069 C322 1.248 . S
C1073 C151 1.350 . S
C1087 C406 1.272 . S
C1091 C235 1.338 . S
C1105 C319 1.352 . S
C1109 C490 1.247 . S
C1123 C739 1.353 . S
C1127 C574 1.247 . S
C1141 C658 1.248 . S
C1145 C823 1.354 . S
C1159 C907 1.345 . S
C1163 C742 1.272 . S
C1177 C826 1.272 . S
C1181 C991 1.338 . S
C1195 C910 1.273 . S
C1199 C571 1.339 . S
C1213 C655 1.338 . S
C1217 C994 1.271 . S
C1231 C392 1.397 . S
C1235 C58 1.336 . S
C1249 C142 1.338 . S
C1253 C476 1.400 . S
C1267 C226 1.312 . S
C1271 C56 1.410 . S
C1285 C310 1.325 . S
C1289 C140 1.416 . S
C1303 C224 1.412 . S
C1307 C394 1.313 . S
C1321 C308 1.408 . S
C1325 C478 1.312 . S
C1339 C728 1.415 . S
C1343 C562 1.328 . S
C1357 C646 1.339 . S
C1361 C812 1.403 . S
C1375 C730 1.317 . S
C1379 C896 1.415 . S
C1393 C980 1.397 . S
C1397 C814 1.335 . S
C1411 C898 1.339 . S
C1415 C560 1.401 . S
C1429 C644 1.416 . S
C1433 C982 1.323 . S
C1447 C903 1.891 . S
C1451 C63 1.881 . S
C1465 C147 1.879 . S
C1469 C987 1.892 . S
C1483 C231 1.882 . S
C1487 C567 1.885 . S
C1501 C315 1.891 . S
C1505 C651 1.881 . S
C1519 C399 1.891 . S
C1523 C735 1.878 . S
C1537 C819 1.892 . S
C1541 C483 1.878 . S
C1555 C830 2.027 . S
C1559 C74 2.025 . S
C1573 C914 2.034 . S
C1577 C158 2.033 . S
C1591 C242 2.031 . S
C1595 C998 2.035 . S
C1609 C326 2.036 . S
C1613 C578 2.025 . S
C1627 C662 2.024 . S
C1631 C410 2.034 . S
C1645 C746 2.030 . S
C1649 C494 2.036 . S
