# Generated by pormake.
# Topology fcj, (5)-cn, num edge types: 1
# Building blocks:
#     Node 0, Type 0, BuildingBlock: BEQFEK_clean_sbu_0, # of connection points: 5
#     Node 1, Type 0, BuildingBlock: BEQFEK_clean_sbu_0, # of connection points: 5
#     Node 2, Type 0, BuildingBlock: BEQFEK_clean_sbu_0, # of connection points: 5
#     Node 3, Type 0, BuildingBlock: BEQFEK_clean_sbu_0, # of connection points: 5
#     Node 4, Type 0, BuildingBlock: BEQFEK_clean_sbu_0, # of connection points: 5
#     Node 5, Type 0, BuildingBlock: BEQFEK_clean_sbu_0, # of connection points: 5
#     Node 6, Type 0, BuildingBlock: BEQFEK_clean_sbu_0, # of connection points: 5
#     Node 7, Type 0, BuildingBlock: BEQFEK_clean_sbu_0, # of connection points: 5
#     Node 8, Type 0, BuildingBlock: BEQFEK_clean_sbu_0, # of connection points: 5
#     Node 9, Type 0, BuildingBlock: BEQFEK_clean_sbu_0, # of connection points: 5
#     Node 10, Type 0, BuildingBlock: BEQFEK_clean_sbu_0, # of connection points: 5
#     Node 11, Type 0, BuildingBlock: BEQFEK_clean_sbu_0, # of connection points: 5
#     Node 12, Type 0, BuildingBlock: BEQFEK_clean_sbu_0, # of connection points: 5
#     Node 13, Type 0, BuildingBlock: BEQFEK_clean_sbu_0, # of connection points: 5
#     Node 14, Type 0, BuildingBlock: BEQFEK_clean_sbu_0, # of connection points: 5
#     Node 15, Type 0, BuildingBlock: BEQFEK_clean_sbu_0, # of connection points: 5
#     Node 16, Type 0, BuildingBlock: BEQFEK_clean_sbu_0, # of connection points: 5
#     Node 17, Type 0, BuildingBlock: BEQFEK_clean_sbu_0, # of connection points: 5
#     Node 18, Type 0, BuildingBlock: BEQFEK_clean_sbu_0, # of connection points: 5
#     Node 19, Type 0, BuildingBlock: BEQFEK_clean_sbu_0, # of connection points: 5
#     Node 20, Type 0, BuildingBlock: BEQFEK_clean_sbu_0, # of connection points: 5
#     Node 21, Type 0, BuildingBlock: BEQFEK_clean_sbu_0, # of connection points: 5
#     Node 22, Type 0, BuildingBlock: BEQFEK_clean_sbu_0, # of connection points: 5
#     Node 23, Type 0, BuildingBlock: BEQFEK_clean_sbu_0, # of connection points: 5
#     Edge 24, Type (0, 0), BuildingBlock: XIVTED_clean_linker_0, # of connection points: 2
#     Edge 25, Type (0, 0), BuildingBlock: XIVTED_clean_linker_0, # of connection points: 2
#     Edge 26, Type (0, 0), BuildingBlock: XIVTED_clean_linker_0, # of connection points: 2
#     Edge 27, Type (0, 0), BuildingBlock: XIVTED_clean_linker_0, # of connection points: 2
#     Edge 28, Type (0, 0), BuildingBlock: XIVTED_clean_linker_0, # of connection points: 2
#     Edge 29, Type (0, 0), BuildingBlock: XIVTED_clean_linker_0, # of connection points: 2
#     Edge 30, Type (0, 0), BuildingBlock: XIVTED_clean_linker_0, # of connection points: 2
#     Edge 31, Type (0, 0), BuildingBlock: XIVTED_clean_linker_0, # of connection points: 2
#     Edge 32, Type (0, 0), BuildingBlock: XIVTED_clean_linker_0, # of connection points: 2
#     Edge 33, Type (0, 0), BuildingBlock: XIVTED_clean_linker_0, # of connection points: 2
#     Edge 34, Type (0, 0), BuildingBlock: XIVTED_clean_linker_0, # of connection points: 2
#     Edge 35, Type (0, 0), BuildingBlock: XIVTED_clean_linker_0, # of connection points: 2
#     Edge 36, Type (0, 0), BuildingBlock: XIVTED_clean_linker_0, # of connection points: 2
#     Edge 37, Type (0, 0), BuildingBlock: XIVTED_clean_linker_0, # of connection points: 2
#     Edge 38, Type (0, 0), BuildingBlock: XIVTED_clean_linker_0, # of connection points: 2
#     Edge 39, Type (0, 0), BuildingBlock: XIVTED_clean_linker_0, # of connection points: 2
#     Edge 40, Type (0, 0), BuildingBlock: XIVTED_clean_linker_0, # of connection points: 2
#     Edge 41, Type (0, 0), BuildingBlock: XIVTED_clean_linker_0, # of connection points: 2
#     Edge 42, Type (0, 0), BuildingBlock: XIVTED_clean_linker_0, # of connection points: 2
#     Edge 43, Type (0, 0), BuildingBlock: XIVTED_clean_linker_0, # of connection points: 2
#     Edge 44, Type (0, 0), BuildingBlock: XIVTED_clean_linker_0, # of connection points: 2
#     Edge 45, Type (0, 0), BuildingBlock: XIVTED_clean_linker_0, # of connection points: 2
#     Edge 46, Type (0, 0), BuildingBlock: XIVTED_clean_linker_0, # of connection points: 2
#     Edge 47, Type (0, 0), BuildingBlock: XIVTED_clean_linker_0, # of connection points: 2
#     Edge 48, Type (0, 0), BuildingBlock: XIVTED_clean_linker_0, # of connection points: 2
#     Edge 49, Type (0, 0), BuildingBlock: XIVTED_clean_linker_0, # of connection points: 2
#     Edge 50, Type (0, 0), BuildingBlock: XIVTED_clean_linker_0, # of connection points: 2
#     Edge 51, Type (0, 0), BuildingBlock: XIVTED_clean_linker_0, # of connection points: 2
#     Edge 52, Type (0, 0), BuildingBlock: XIVTED_clean_linker_0, # of connection points: 2
#     Edge 53, Type (0, 0), BuildingBlock: XIVTED_clean_linker_0, # of connection points: 2
#     Edge 54, Type (0, 0), BuildingBlock: XIVTED_clean_linker_0, # of connection points: 2
#     Edge 55, Type (0, 0), BuildingBlock: XIVTED_clean_linker_0, # of connection points: 2
#     Edge 56, Type (0, 0), BuildingBlock: XIVTED_clean_linker_0, # of connection points: 2
#     Edge 57, Type (0, 0), BuildingBlock: XIVTED_clean_linker_0, # of connection points: 2
#     Edge 58, Type (0, 0), BuildingBlock: XIVTED_clean_linker_0, # of connection points: 2
#     Edge 59, Type (0, 0), BuildingBlock: XIVTED_clean_linker_0, # of connection points: 2
#     Edge 60, Type (0, 0), BuildingBlock: XIVTED_clean_linker_0, # of connection points: 2
#     Edge 61, Type (0, 0), BuildingBlock: XIVTED_clean_linker_0, # of connection points: 2
#     Edge 62, Type (0, 0), BuildingBlock: XIVTED_clean_linker_0, # of connection points: 2
#     Edge 63, Type (0, 0), BuildingBlock: XIVTED_clean_linker_0, # of connection points: 2
#     Edge 64, Type (0, 0), BuildingBlock: XIVTED_clean_linker_0, # of connection points: 2
#     Edge 65, Type (0, 0), BuildingBlock: XIVTED_clean_linker_0, # of connection points: 2
#     Edge 66, Type (0, 0), BuildingBlock: XIVTED_clean_linker_0, # of connection points: 2
#     Edge 67, Type (0, 0), BuildingBlock: XIVTED_clean_linker_0, # of connection points: 2
#     Edge 68, Type (0, 0), BuildingBlock: XIVTED_clean_linker_0, # of connection points: 2
#     Edge 69, Type (0, 0), BuildingBlock: XIVTED_clean_linker_0, # of connection points: 2
#     Edge 70, Type (0, 0), BuildingBlock: XIVTED_clean_linker_0, # of connection points: 2
#     Edge 71, Type (0, 0), BuildingBlock: XIVTED_clean_linker_0, # of connection points: 2
#     Edge 72, Type (0, 0), BuildingBlock: XIVTED_clean_linker_0, # of connection points: 2
#     Edge 73, Type (0, 0), BuildingBlock: XIVTED_clean_linker_0, # of connection points: 2
#     Edge 74, Type (0, 0), BuildingBlock: XIVTED_clean_linker_0, # of connection points: 2
#     Edge 75, Type (0, 0), BuildingBlock: XIVTED_clean_linker_0, # of connection points: 2
#     Edge 76, Type (0, 0), BuildingBlock: XIVTED_clean_linker_0, # of connection points: 2
#     Edge 77, Type (0, 0), BuildingBlock: XIVTED_clean_linker_0, # of connection points: 2
#     Edge 78, Type (0, 0), BuildingBlock: XIVTED_clean_linker_0, # of connection points: 2
#     Edge 79, Type (0, 0), BuildingBlock: XIVTED_clean_linker_0, # of connection points: 2
#     Edge 80, Type (0, 0), BuildingBlock: XIVTED_clean_linker_0, # of connection points: 2
#     Edge 81, Type (0, 0), BuildingBlock: XIVTED_clean_linker_0, # of connection points: 2
#     Edge 82, Type (0, 0), BuildingBlock: XIVTED_clean_linker_0, # of connection points: 2
#     Edge 83, Type (0, 0), BuildingBlock: XIVTED_clean_linker_0, # of connection points: 2
# Relax obj value: 0.323
# Max RMSD: 0.218
# Mean RMSD: 0.218
data_MOF--net-fcj--node1-BEQFEK_clean_sbu_0--edge1-XIVTED_clean_linker_0
_symmetry_space_group_name_H-M    P1
_symmetry_Int_Tables_number       1
_symmetry_cell_setting            triclinic
loop_
_symmetry_equiv_pos_as_xyz
'x, y, z'
_cell_length_a     52.458777
_cell_length_b     52.477991
_cell_length_c     52.445018
_cell_angle_alpha  89.990239
_cell_angle_beta   89.99571
_cell_angle_gamma 89.976044
loop_
_atom_site_label
_atom_site_type_symbol
_atom_site_fract_x
_atom_site_fract_y
_atom_site_fract_z
_atom_type_partial_charge
Co0 Co 0.09934 0.16678 0.33246 0.0
Co1 Co 0.06163 0.21037 0.34806 0.0
C2 C 0.04429 0.16308 0.32022 0.0
O3 O 0.06667 0.15372 0.32039 0.0
O4 O 0.03943 0.18458 0.33051 0.0
C5 C 0.12817 0.13439 0.3029 0.0
O6 O 0.11008 0.14131 0.287 0.0
C7 C 0.01829 0.2316 0.37584 0.0
C8 C 0.02908 0.27215 0.37929 0.0
C9 C 0.01046 0.25468 0.38604 0.0
N10 N 0.04055 0.23528 0.36371 0.0
N11 N 0.04682 0.25958 0.36568 0.0
C12 C 0.00623 0.20602 0.37936 0.0
H13 H 0.02102 0.19089 0.37912 0.0
H14 H 0.99544 0.2052 0.39755 0.0
H15 H 0.99285 0.20246 0.36337 0.0
C16 C 0.11176 0.16852 0.38662 0.0
N17 N 0.09764 0.17614 0.3667 0.0
N18 N 0.0829 0.1952 0.37356 0.0
C19 C 0.08768 0.20069 0.39828 0.0
C20 C 0.10588 0.18375 0.40739 0.0
C21 C 0.1328 0.14934 0.38454 0.0
H22 H 0.14767 0.15675 0.37145 0.0
H23 H 0.12519 0.13148 0.37616 0.0
H24 H 0.14167 0.14508 0.40324 0.0
O25 O 0.10816 0.19604 0.311 0.0
O26 O 0.0821 0.22774 0.32096 0.0
H27 H 0.0803 0.24059 0.40189 0.0
H28 H 0.08425 0.22421 0.43202 0.0
C29 C 0.07639 0.2227 0.41244 0.0
H30 H 0.05544 0.22022 0.41366 0.0
H31 H 0.06349 0.26744 0.3582 0.0
O32 O 0.12687 0.14191 0.32587 0.0
C33 C 0.10028 0.21869 0.30762 0.0
Co34 Co 0.57016 0.34897 0.07749 0.0
Co35 Co 0.53116 0.30903 0.09866 0.0
C36 C 0.57803 0.29322 0.06994 0.0
O37 O 0.58491 0.31629 0.06677 0.0
O38 O 0.55794 0.28748 0.08237 0.0
C39 C 0.59579 0.38108 0.04447 0.0
O40 O 0.58614 0.36432 0.02856 0.0
C41 C 0.51276 0.26591 0.12896 0.0
C42 C 0.47268 0.277 0.13581 0.0
C43 C 0.4906 0.25836 0.14121 0.0
N44 N 0.50814 0.28807 0.11699 0.0
N45 N 0.48413 0.29452 0.12102 0.0
C46 C 0.5384 0.2535 0.13017 0.0
H47 H 0.5536 0.26819 0.12975 0.0
H48 H 0.54032 0.24173 0.14765 0.0
H49 H 0.54081 0.24103 0.11326 0.0
C50 C 0.57113 0.3645 0.13098 0.0
N51 N 0.56302 0.34896 0.11236 0.0
N52 N 0.54588 0.33313 0.12153 0.0
C53 C 0.5423 0.33847 0.14647 0.0
C54 C 0.55838 0.3583 0.15321 0.0
C55 C 0.58902 0.38633 0.12679 0.0
H56 H 0.58005 0.4002 0.11357 0.0
H57 H 0.60672 0.37923 0.11764 0.0
H58 H 0.5939 0.39615 0.14486 0.0
O59 O 0.53898 0.35481 0.05769 0.0
O60 O 0.51127 0.32574 0.07079 0.0
H61 H 0.50385 0.32844 0.1553 0.0
H62 H 0.52377 0.33342 0.18299 0.0
C63 C 0.52321 0.32566 0.16331 0.0
H64 H 0.52721 0.30494 0.16396 0.0
H65 H 0.4757 0.31113 0.11403 0.0
O66 O 0.59282 0.3776 0.06823 0.0
C67 C 0.51729 0.34419 0.0562 0.0
Co68 Co 0.39484 0.81894 0.82226 0.0
Co69 Co 0.43172 0.77642 0.84214 0.0
C70 C 0.44959 0.82818 0.82167 0.0
O71 O 0.42729 0.83752 0.81898 0.0
O72 O 0.45303 0.80547 0.82975 0.0
C73 C 0.35809 0.86212 0.81214 0.0
O74 O 0.37492 0.87964 0.8182 0.0
C75 C 0.47367 0.75842 0.87407 0.0
C76 C 0.46566 0.71717 0.8767 0.0
C77 C 0.48234 0.73594 0.88488 0.0
N78 N 0.4528 0.75318 0.86018 0.0
N79 N 0.44815 0.72849 0.86174 0.0
C80 C 0.48372 0.78476 0.87828 0.0
H81 H 0.46776 0.79864 0.87847 0.0
H82 H 0.49444 0.78599 0.89649 0.0
H83 H 0.49668 0.78982 0.86234 0.0
C84 C 0.37348 0.81254 0.87361 0.0
N85 N 0.39049 0.8063 0.85551 0.0
N86 N 0.40531 0.78797 0.86404 0.0
C87 C 0.39792 0.78182 0.88797 0.0
C88 C 0.37763 0.79733 0.8947 0.0
C89 C 0.35327 0.83246 0.87058 0.0
H90 H 0.33987 0.82655 0.85533 0.0
H91 H 0.36226 0.85069 0.86482 0.0
H92 H 0.34237 0.83547 0.88846 0.0
O93 O 0.3955 0.79132 0.79675 0.0
O94 O 0.41832 0.75891 0.81128 0.0
H95 H 0.40908 0.74307 0.89357 0.0
H96 H 0.39989 0.75943 0.92254 0.0
C97 C 0.40982 0.76146 0.90396 0.0
H98 H 0.43011 0.76624 0.90743 0.0
H99 H 0.43284 0.71943 0.85284 0.0
O100 O 0.36418 0.83871 0.81285 0.0
C101 C 0.40454 0.76899 0.79403 0.0
Co102 Co 0.91849 0.64661 0.57865 0.0
Co103 Co 0.95645 0.68821 0.59895 0.0
C104 C 0.91226 0.70174 0.56548 0.0
O105 O 0.90533 0.67852 0.56391 0.0
O106 O 0.9313 0.7085 0.57899 0.0
C107 C 0.89389 0.6138 0.54588 0.0
O108 O 0.90402 0.63047 0.53017 0.0
C109 C 0.97614 0.73468 0.62339 0.0
C110 C 0.01388 0.72146 0.63672 0.0
C111 C -0.00214 0.74244 0.63629 0.0
N112 N 0.97918 0.71018 0.61659 0.0
N113 N 0.0018 0.70244 0.62452 0.0
C114 C 0.95238 0.74973 0.61873 0.0
H115 H 0.93544 0.73723 0.62064 0.0
H116 H 0.95082 0.76592 0.63226 0.0
H117 H 0.95279 0.7573 0.59898 0.0
C118 C 0.91456 0.63511 0.63304 0.0
N119 N 0.92334 0.64957 0.61385 0.0
N120 N 0.93983 0.66623 0.62274 0.0
C121 C 0.94217 0.66266 0.64814 0.0
C122 C 0.92614 0.64295 0.65545 0.0
C123 C 0.898 0.6122 0.62915 0.0
H124 H 0.8803 0.618 0.61912 0.0
H125 H 0.89296 0.60277 0.64738 0.0
H126 H 0.90813 0.59834 0.61678 0.0
O127 O 0.95077 0.63877 0.56174 0.0
O128 O 0.97762 0.66903 0.57385 0.0
H129 H 0.98009 0.6711 0.66016 0.0
H130 H 0.95675 0.67251 0.6854 0.0
C131 C 0.96031 0.67677 0.66498 0.0
H132 H 0.9583 0.69755 0.66176 0.0
H133 H 0.00895 0.6841 0.62167 0.0
O134 O 0.89609 0.61753 0.56971 0.0
C135 C 0.97252 0.64932 0.56069 0.0
Co136 Co 0.60429 0.32377 0.66958 0.0
Co137 Co 0.56329 0.28381 0.65297 0.0
C138 C 0.55011 0.33572 0.67584 0.0
O139 O 0.57326 0.34307 0.67682 0.0
O140 O 0.54407 0.31378 0.66717 0.0
C141 C 0.64206 0.36596 0.6778 0.0
O142 O 0.62473 0.38361 0.67392 0.0
C143 C 0.51894 0.26669 0.62372 0.0
C144 C 0.52604 0.22524 0.62122 0.0
C145 C 0.50949 0.24429 0.61346 0.0
N146 N 0.54022 0.26113 0.63686 0.0
N147 N 0.54424 0.23631 0.63549 0.0
C148 C 0.50928 0.29315 0.61942 0.0
H149 H 0.52539 0.30686 0.61936 0.0
H150 H 0.49865 0.29447 0.60117 0.0
H151 H 0.49622 0.29834 0.63523 0.0
C152 C 0.62112 0.31646 0.61699 0.0
N153 N 0.6048 0.31159 0.63608 0.0
N154 N 0.58845 0.29405 0.62883 0.0
C155 C 0.59425 0.2869 0.60472 0.0
C156 C 0.615 0.30107 0.59653 0.0
C157 C 0.64314 0.33451 0.61889 0.0
H158 H 0.63615 0.35339 0.62529 0.0
H159 H 0.65318 0.33676 0.60041 0.0
H160 H 0.65686 0.32729 0.63327 0.0
O161 O 0.60537 0.29588 0.69434 0.0
O162 O 0.57859 0.26548 0.68262 0.0
H163 H 0.582 0.24827 0.60112 0.0
H164 H 0.58961 0.26351 0.5711 0.0
C165 C 0.58094 0.26633 0.59021 0.0
H166 H 0.56057 0.27144 0.58789 0.0
H167 H 0.55976 0.22703 0.64378 0.0
O168 O 0.63602 0.34257 0.67662 0.0
C169 C 0.59513 0.27427 0.69804 0.0
Co170 Co 0.42672 0.85296 0.42104 0.0
Co171 Co 0.4681 0.81507 0.40039 0.0
C172 C 0.41797 0.79778 0.42408 0.0
O173 O 0.4091 0.8202 0.42736 0.0
O174 O 0.43996 0.79407 0.41439 0.0
C175 C 0.3829 0.88871 0.43216 0.0
O176 O 0.36574 0.87083 0.42871 0.0
C177 C 0.48522 0.77183 0.36999 0.0
C178 C 0.52631 0.77985 0.36539 0.0
C179 C 0.50739 0.76258 0.35902 0.0
N180 N 0.4908 0.79356 0.38229 0.0
N181 N 0.51538 0.79827 0.37951 0.0
C182 C 0.45885 0.7613 0.36747 0.0
H183 H 0.45449 0.74946 0.38445 0.0
H184 H 0.44479 0.77709 0.36665 0.0
H185 H 0.45707 0.74932 0.35012 0.0
C186 C 0.4299 0.87154 0.36824 0.0
N187 N 0.43718 0.85546 0.38681 0.0
N188 N 0.45522 0.8404 0.37808 0.0
C189 C 0.46019 0.84669 0.3536 0.0
C190 C 0.44414 0.86646 0.34665 0.0
C191 C 0.41034 0.89206 0.37148 0.0
H192 H 0.39238 0.88353 0.37862 0.0
H193 H 0.40647 0.90223 0.35334 0.0
H194 H 0.41718 0.906 0.38582 0.0
O195 O 0.45629 0.85525 0.4443 0.0
O196 O 0.48672 0.82974 0.42981 0.0
H197 H 0.49886 0.83588 0.34681 0.0
H198 H 0.48109 0.84337 0.31819 0.0
C199 C 0.48004 0.83435 0.33731 0.0
H200 H 0.47548 0.81385 0.33503 0.0
H201 H 0.52465 0.81412 0.38715 0.0
O202 O 0.40645 0.88354 0.42983 0.0
C203 C 0.4785 0.84569 0.44612 0.0
Co204 Co 0.8903 0.6826 0.17293 0.0
Co205 Co 0.93408 0.71421 0.1475 0.0
C206 C 0.94519 0.6698 0.1817 0.0
O207 O 0.9215 0.66585 0.18539 0.0
O208 O 0.953 0.68748 0.16694 0.0
C209 C 0.85438 0.64107 0.18625 0.0
O210 O 0.87127 0.62415 0.17878 0.0
C211 C 0.97975 0.72676 0.11732 0.0
C212 C 0.96998 0.76545 0.10381 0.0
C213 C 0.98862 0.7468 0.10252 0.0
N214 N 0.95685 0.73329 0.12679 0.0
N215 N 0.95119 0.75646 0.11872 0.0
C216 C 0.99195 0.70129 0.12122 0.0
H217 H 0.00224 0.70134 0.1397 0.0
H218 H 0.97712 0.68624 0.12198 0.0
H219 H 0.0057 0.69698 0.10572 0.0
C220 C 0.87327 0.67846 0.11979 0.0
N221 N 0.89027 0.68607 0.13737 0.0
N222 N 0.90822 0.69964 0.12628 0.0
C223 C 0.90308 0.70094 0.10103 0.0
C224 C 0.88088 0.68747 0.09625 0.0
C225 C 0.8492 0.66431 0.12569 0.0
H226 H 0.83856 0.67443 0.14091 0.0
H227 H 0.85411 0.645 0.13269 0.0
H228 H 0.83677 0.66236 0.10869 0.0
O229 O 0.88784 0.71605 0.18905 0.0
O230 O 0.91976 0.7387 0.17308 0.0
H231 H 0.91635 0.73628 0.08591 0.0
H232 H 0.91178 0.71176 0.06223 0.0
C233 C 0.91835 0.71562 0.08197 0.0
H234 H 0.93876 0.71042 0.08368 0.0
H235 H 0.93435 0.76604 0.12325 0.0
O236 O 0.85954 0.66467 0.18488 0.0
C237 C 0.9008 0.73645 0.18807 0.0
Co238 Co 0.07153 0.14011 0.91847 0.0
Co239 Co 0.03417 0.18223 0.89839 0.0
C240 C 0.08035 0.19532 0.92927 0.0
O241 O 0.08655 0.17193 0.93132 0.0
O242 O 0.0608 0.20229 0.9166 0.0
C243 C 0.09629 0.10731 0.95098 0.0
O244 O 0.0868 0.12436 0.9667 0.0
C245 C 0.01626 0.228 0.87166 0.0
C246 C 0.97701 0.21671 0.86133 0.0
C247 C 0.99453 0.23632 0.85917 0.0
N248 N 0.01179 0.20447 0.88072 0.0
N249 N 0.98827 0.19789 0.87459 0.0
C250 C 0.04142 0.24127 0.87349 0.0
H251 H 0.05715 0.22716 0.87247 0.0
H252 H 0.04364 0.25553 0.85801 0.0
H253 H 0.04262 0.25118 0.89214 0.0
C254 C 0.07418 0.12786 0.86415 0.0
N255 N 0.06549 0.14221 0.88344 0.0
N256 N 0.04924 0.15917 0.87464 0.0
C257 C 0.04691 0.15585 0.84921 0.0
C258 C 0.06281 0.1361 0.84181 0.0
C259 C 0.09147 0.10541 0.86762 0.0
H260 H 0.08204 0.09128 0.88022 0.0
H261 H 0.10923 0.11169 0.87722 0.0
H262 H 0.0963 0.09616 0.84923 0.0
O263 O 0.03969 0.13388 0.93701 0.0
O264 O 0.01326 0.16449 0.92479 0.0
H265 H 0.00948 0.16736 0.83811 0.0
H266 H 0.03188 0.16546 0.81201 0.0
C267 C 0.0295 0.17085 0.83233 0.0
H268 H 0.03356 0.19146 0.83455 0.0
H269 H 0.98003 0.18039 0.87921 0.0
O270 O 0.09353 0.11072 0.92717 0.0
C271 C 0.0183 0.1451 0.93847 0.0
Co272 Co 0.32241 0.10173 0.17341 0.0
Co273 Co 0.34118 0.06102 0.21296 0.0
C274 C 0.31859 0.04697 0.1614 0.0
O275 O 0.31602 0.07011 0.15435 0.0
O276 O 0.32797 0.04118 0.18314 0.0
C277 C 0.31317 0.13939 0.13103 0.0
O278 O 0.31802 0.12232 0.11337 0.0
C279 C 0.3715 0.01779 0.23146 0.0
C280 C 0.37421 0.02676 0.27256 0.0
C281 C 0.38215 0.00955 0.25418 0.0
N282 N 0.35803 0.03906 0.23619 0.0
N283 N 0.35953 0.04417 0.26081 0.0
C284 C 0.3757 0.00702 0.2054 0.0
H285 H 0.37537 0.02249 0.19097 0.0
H286 H 0.39411 0.99664 0.20438 0.0
H287 H 0.36006 0.9935 0.20097 0.0
C288 C 0.37496 0.1197 0.1797 0.0
N289 N 0.35615 0.10326 0.18522 0.0
N290 N 0.36427 0.08679 0.20229 0.0
C291 C 0.38867 0.09249 0.20833 0.0
C292 C 0.39612 0.11339 0.19405 0.0
C293 C 0.37241 0.14158 0.16156 0.0
H294 H 0.35757 0.15486 0.16867 0.0
H295 H 0.36626 0.13432 0.14268 0.0
H296 H 0.39058 0.15216 0.15931 0.0
O297 O 0.2979 0.10226 0.20163 0.0
O298 O 0.31115 0.07534 0.2313 0.0
H299 H 0.39486 0.07927 0.24635 0.0
H300 H 0.42377 0.08702 0.22926 0.0
C301 C 0.40446 0.07856 0.22753 0.0
H302 H 0.40628 0.05833 0.22177 0.0
H303 H 0.35102 0.05993 0.26947 0.0
O304 O 0.31426 0.13326 0.15443 0.0
C305 C 0.29505 0.09155 0.22316 0.0
Co306 Co 0.64354 0.5774 0.9185 0.0
Co307 Co 0.67963 0.59289 0.96345 0.0
C308 C 0.6981 0.56982 0.91287 0.0
O309 O 0.67632 0.56972 0.90205 0.0
O310 O 0.70098 0.57765 0.93575 0.0
C311 C 0.608 0.56736 0.87397 0.0
O312 O 0.62654 0.56647 0.85716 0.0
C313 C 0.72393 0.62003 0.98329 0.0
C314 C 0.71454 0.62376 0.0242 0.0
C315 C 0.73279 0.62991 0.00612 0.0
N316 N 0.70146 0.60856 0.98768 0.0
N317 N 0.69599 0.61074 0.01217 0.0
C318 C 0.73553 0.62295 0.9574 0.0
H319 H 0.74692 0.60568 0.95297 0.0
H320 H 0.72031 0.62474 0.94281 0.0
H321 H 0.7482 0.63986 0.9566 0.0
C322 C 0.62786 0.63067 0.9237 0.0
N323 N 0.64281 0.61105 0.9305 0.0
N324 N 0.65666 0.6176 0.95032 0.0
C325 C 0.65039 0.64162 0.95717 0.0
C326 C 0.63213 0.65069 0.9403 0.0
C327 C 0.60814 0.62936 0.90309 0.0
H328 H 0.61672 0.6211 0.88563 0.0
H329 H 0.60015 0.64841 0.89858 0.0
H330 H 0.59239 0.61673 0.90937 0.0
O331 O 0.63898 0.55278 0.94656 0.0
O332 O 0.66157 0.5643 0.98029 0.0
H333 H 0.65681 0.64348 0.99734 0.0
H334 H 0.6518 0.6742 0.98239 0.0
C335 C 0.6606 0.6551 0.98009 0.0
H336 H 0.68154 0.65729 0.97816 0.0
H337 H 0.67943 0.60364 0.0206 0.0
O338 O 0.61297 0.57139 0.89732 0.0
C339 C 0.64606 0.54913 0.96946 0.0
Co340 Co 0.17937 0.89608 0.67621 0.0
Co341 Co 0.15371 0.9386 0.70921 0.0
C342 C 0.18856 0.95145 0.66602 0.0
O343 O 0.19241 0.92794 0.66133 0.0
O344 O 0.17336 0.95862 0.68359 0.0
C345 C 0.21476 0.86174 0.657 0.0
O346 O 0.22985 0.87756 0.66923 0.0
C347 C 0.12393 0.98384 0.72324 0.0
C348 C 0.10925 0.97252 0.7611 0.0
C349 C 0.10877 0.99199 0.74328 0.0
N350 N 0.13286 0.96053 0.72893 0.0
N351 N 0.12409 0.95391 0.7516 0.0
C352 C 0.12868 0.99717 0.69849 0.0
H353 H 0.1476 0.00659 0.69927 0.0
H354 H 0.12899 0.98311 0.68268 0.0
H355 H 0.11386 0.01178 0.6947 0.0
C356 C 0.1263 0.88045 0.66921 0.0
N357 N 0.14385 0.89647 0.67868 0.0
N358 N 0.13267 0.91363 0.69313 0.0
C359 C 0.10736 0.90884 0.69341 0.0
C360 C 0.10258 0.8878 0.67814 0.0
C361 C 0.13264 0.85725 0.65385 0.0
H362 H 0.1454 0.84471 0.66514 0.0
H363 H 0.14311 0.86305 0.63641 0.0
H364 H 0.11537 0.84636 0.64837 0.0
O365 O 0.19486 0.89181 0.70991 0.0
O366 O 0.17909 0.92335 0.73321 0.0
H367 H 0.09137 0.92052 0.72895 0.0
H368 H 0.06838 0.91772 0.70351 0.0
C369 C 0.0881 0.92366 0.7083 0.0
H370 H 0.09031 0.94427 0.70423 0.0
H371 H 0.12812 0.93658 0.7605 0.0
O372 O 0.19107 0.86657 0.65607 0.0
C373 C 0.19391 0.90431 0.73061 0.0
Co374 Co 0.84657 0.41701 0.42089 0.0
Co375 Co 0.81207 0.39984 0.46646 0.0
C376 C 0.79164 0.4228 0.41661 0.0
O377 O 0.81317 0.42383 0.40537 0.0
O378 O 0.78951 0.41459 0.43943 0.0
C379 C 0.87954 0.42968 0.37534 0.0
O380 O 0.8598 0.43351 0.36041 0.0
C381 C 0.77019 0.36914 0.4858 0.0
C382 C 0.77831 0.36732 0.52708 0.0
C383 C 0.76145 0.35893 0.50854 0.0
N384 N 0.7912 0.38292 0.49068 0.0
N385 N 0.79594 0.38185 0.51539 0.0
C386 C 0.76014 0.36437 0.45954 0.0
H387 H 0.77598 0.36472 0.44551 0.0
H388 H 0.75013 0.34576 0.45853 0.0
H389 H 0.74649 0.37972 0.45447 0.0
C390 C 0.8637 0.36402 0.42482 0.0
N391 N 0.84856 0.38322 0.4324 0.0
N392 N 0.83553 0.37607 0.45256 0.0
C393 C 0.84262 0.35215 0.45892 0.0
C394 C 0.86047 0.34371 0.44132 0.0
C395 C 0.88253 0.36593 0.40345 0.0
H396 H 0.89853 0.37836 0.40946 0.0
H397 H 0.87326 0.37467 0.38658 0.0
H398 H 0.89034 0.34703 0.39811 0.0
O399 O 0.85118 0.44157 0.44917 0.0
O400 O 0.82957 0.4289 0.48319 0.0
H401 H 0.83575 0.35036 0.49906 0.0
H402 H 0.84401 0.32002 0.48473 0.0
C403 C 0.83344 0.33814 0.48197 0.0
H404 H 0.81287 0.33384 0.47975 0.0
H405 H 0.81141 0.39073 0.5242 0.0
O406 O 0.87619 0.42348 0.39851 0.0
C407 C 0.84439 0.4447 0.47226 0.0
Co408 Co 0.82212 0.39551 0.81633 0.0
Co409 Co 0.84799 0.43655 0.78134 0.0
C410 C 0.81657 0.45032 0.82783 0.0
O411 O 0.81264 0.42725 0.83444 0.0
O412 O 0.82941 0.45589 0.80797 0.0
C413 C 0.80783 0.35835 0.85722 0.0
O414 O 0.81538 0.37432 0.87496 0.0
C415 C 0.87725 0.48245 0.7691 0.0
C416 C 0.89032 0.47407 0.72994 0.0
C417 C 0.8911 0.49239 0.74893 0.0
N418 N 0.86867 0.4593 0.76232 0.0
N419 N 0.87657 0.45439 0.73891 0.0
C420 C 0.8731 0.49412 0.79479 0.0
H421 H 0.87405 0.47916 0.80972 0.0
H422 H 0.88754 0.50904 0.79882 0.0
H423 H 0.85383 0.50283 0.79541 0.0
C424 C 0.87512 0.37701 0.81928 0.0
N425 N 0.85758 0.39377 0.81104 0.0
N426 N 0.86861 0.41054 0.79597 0.0
C427 C 0.89365 0.40481 0.79413 0.0
C428 C 0.89849 0.38356 0.80899 0.0
C429 C 0.86928 0.35419 0.83538 0.0
H430 H 0.86246 0.36064 0.85431 0.0
H431 H 0.88622 0.34182 0.83804 0.0
H432 H 0.85389 0.34292 0.82627 0.0
O433 O 0.80401 0.39448 0.78342 0.0
O434 O 0.82203 0.42276 0.75769 0.0
H435 H 0.9075 0.41686 0.75782 0.0
H436 H 0.93219 0.41188 0.7813 0.0
C437 C 0.91252 0.41906 0.77823 0.0
H438 H 0.91178 0.43961 0.78309 0.0
H439 H 0.87239 0.43766 0.729 0.0
O440 O 0.80956 0.36453 0.83386 0.0
C441 C 0.80538 0.40571 0.76199 0.0
Co442 Co 0.35978 0.07784 0.56034 0.0
Co443 Co 0.31426 0.10033 0.52875 0.0
C444 C 0.30572 0.07168 0.57744 0.0
O445 O 0.32956 0.06801 0.58048 0.0
O446 O 0.29709 0.08427 0.55851 0.0
C447 C 0.39682 0.068 0.60157 0.0
O448 O 0.37963 0.07567 0.6181 0.0
C449 C 0.26782 0.12919 0.51611 0.0
C450 C 0.275 0.13877 0.47571 0.0
C451 C 0.25756 0.14186 0.49529 0.0
N452 N 0.29033 0.11913 0.50911 0.0
N453 N 0.29445 0.12486 0.48493 0.0
C454 C 0.25732 0.12796 0.54259 0.0
H455 H 0.24701 0.10967 0.54505 0.0
H456 H 0.2731 0.12861 0.55667 0.0
H457 H 0.24391 0.14391 0.54622 0.0
C458 C 0.37691 0.13102 0.5581 0.0
N459 N 0.35979 0.11276 0.55278 0.0
N460 N 0.34093 0.12263 0.53949 0.0
C461 C 0.34547 0.14779 0.5362 0.0
C462 C 0.3684 0.15374 0.54786 0.0
C463 C 0.40124 0.12668 0.57238 0.0
H464 H 0.41205 0.11092 0.56333 0.0
H465 H 0.39667 0.12106 0.59223 0.0
H466 H 0.41334 0.144 0.57287 0.0
O467 O 0.35993 0.0579 0.52883 0.0
O468 O 0.32697 0.07207 0.50641 0.0
H469 H 0.32853 0.16055 0.50148 0.0
H470 H 0.33508 0.18574 0.52397 0.0
C471 C 0.32852 0.16573 0.52197 0.0
H472 H 0.30874 0.16409 0.52924 0.0
H473 H 0.31069 0.11943 0.47479 0.0
O474 O 0.39156 0.0679 0.57793 0.0
C475 C 0.34577 0.05697 0.50921 0.0
Co476 Co 0.6691 0.59786 0.32448 0.0
Co477 Co 0.64781 0.56008 0.28342 0.0
C478 C 0.6745 0.54267 0.33202 0.0
O479 O 0.67733 0.56505 0.34112 0.0
O480 O 0.66394 0.5389 0.31044 0.0
C481 C 0.68143 0.63487 0.36741 0.0
O482 O 0.67749 0.61812 0.3856 0.0
C483 C 0.61787 0.51643 0.26634 0.0
C484 C 0.61063 0.52613 0.22597 0.0
C485 C 0.6058 0.50791 0.24446 0.0
N486 N 0.62926 0.53871 0.26103 0.0
N487 N 0.62495 0.54439 0.23686 0.0
C488 C 0.61734 0.50458 0.29227 0.0
H489 H 0.6166 0.51966 0.30709 0.0
H490 H 0.60072 0.49168 0.29443 0.0
H491 H 0.6351 0.49343 0.29513 0.0
C492 C 0.61602 0.6157 0.32335 0.0
N493 N 0.63439 0.59954 0.31578 0.0
N494 N 0.62541 0.58469 0.2977 0.0
C495 C 0.601 0.59132 0.2929 0.0
C496 C 0.59428 0.61098 0.30919 0.0
C497 C 0.62003 0.6368 0.34213 0.0
H498 H 0.63413 0.65048 0.33432 0.0
H499 H 0.62782 0.62879 0.36008 0.0
H500 H 0.6021 0.64718 0.34637 0.0
O501 O 0.69043 0.60147 0.29373 0.0
O502 O 0.67556 0.57601 0.2635 0.0
H503 H 0.59402 0.58314 0.25364 0.0
H504 H 0.56545 0.58858 0.27216 0.0
C505 C 0.58479 0.57999 0.27239 0.0
H506 H 0.58307 0.55917 0.2755 0.0
H507 H 0.63162 0.56083 0.22788 0.0
O508 O 0.67869 0.6285 0.34421 0.0
C509 C 0.69148 0.59253 0.27124 0.0
Co510 Co 0.14516 0.91341 0.07753 0.0
Co511 Co 0.1836 0.89715 0.03461 0.0
C512 C 0.20031 0.92251 0.08398 0.0
O513 O 0.17772 0.92364 0.09296 0.0
O514 O 0.20499 0.91264 0.0622 0.0
C515 C 0.11149 0.92611 0.12224 0.0
O516 O 0.13125 0.93083 0.13688 0.0
C517 C 0.22669 0.8687 0.013 0.0
C518 C 0.2155 0.86639 0.97244 0.0
C519 C 0.23399 0.85869 0.98965 0.0
N520 N 0.20478 0.88157 0.00972 0.0
N521 N 0.19833 0.88032 0.9854 0.0
C522 C 0.2389 0.8643 0.03839 0.0
H523 H 0.2529 0.87972 0.04204 0.0
H524 H 0.22431 0.86482 0.05371 0.0
H525 H 0.24907 0.84575 0.03875 0.0
C526 C 0.1317 0.85937 0.07439 0.0
N527 N 0.14599 0.87927 0.067 0.0
N528 N 0.16095 0.87228 0.04814 0.0
C529 C 0.15616 0.8476 0.04256 0.0
C530 C 0.13772 0.83861 0.05925 0.0
C531 C 0.11103 0.86103 0.09402 0.0
H532 H 0.09564 0.87362 0.08681 0.0
H533 H 0.1188 0.86965 0.1117 0.0
H534 H 0.10277 0.84212 0.09853 0.0
O535 O 0.13918 0.93647 0.04869 0.0
O536 O 0.16511 0.92549 0.01728 0.0
H537 H 0.1654 0.8436 0.00307 0.0
H538 H 0.16013 0.81368 0.01943 0.0
C539 C 0.16826 0.83312 0.0212 0.0
H540 H 0.18903 0.83154 0.02473 0.0
H541 H 0.18183 0.88843 0.97779 0.0
O542 O 0.11487 0.91907 0.09932 0.0
C543 C 0.14777 0.93987 0.0263 0.0
Co544 Co 0.17753 0.32311 0.10435 0.0
Co545 Co 0.21119 0.34702 0.06098 0.0
C546 C 0.16521 0.31559 0.04908 0.0
O547 O 0.16089 0.31169 0.07268 0.0
O548 O 0.1837 0.32949 0.0416 0.0
C549 C 0.15791 0.28905 0.14007 0.0
O550 O 0.16948 0.27331 0.12439 0.0
C551 C 0.22748 0.37499 0.01502 0.0
C552 C 0.26573 0.38808 0.0269 0.0
C553 C 0.24848 0.38885 0.00695 0.0
N554 N 0.2321 0.36652 0.03877 0.0
N555 N 0.25503 0.37431 0.04568 0.0
C556 C 0.20297 0.37087 0.00105 0.0
H557 H 0.18672 0.37217 0.01454 0.0
H558 H 0.20049 0.38506 0.98556 0.0
H559 H 0.20302 0.35146 0.99267 0.0
C560 C 0.17513 0.37622 0.12077 0.0
N561 N 0.1826 0.35835 0.10407 0.0
N562 N 0.19715 0.36881 0.08652 0.0
C563 C 0.19937 0.39395 0.09169 0.0
C564 C 0.18542 0.39933 0.11347 0.0
C565 C 0.16003 0.37075 0.14437 0.0
H566 H 0.14222 0.36065 0.1391 0.0
H567 H 0.15515 0.38845 0.15487 0.0
H568 H 0.17123 0.35801 0.15701 0.0
O569 O 0.21026 0.30531 0.10752 0.0
O570 O 0.23372 0.31997 0.07556 0.0
H571 H 0.23588 0.40791 0.08051 0.0
H572 H 0.21171 0.43224 0.08295 0.0
C573 C 0.2155 0.41228 0.07702 0.0
H574 H 0.21163 0.41028 0.05634 0.0
H575 H 0.26332 0.37031 0.06332 0.0
O576 O 0.15743 0.31262 0.13462 0.0
C577 C 0.23068 0.30513 0.09452 0.0
Co578 Co 0.67415 0.16724 0.89562 0.0
Co579 Co 0.71304 0.14927 0.93717 0.0
C580 C 0.66346 0.17384 0.95119 0.0
O581 O 0.6573 0.17624 0.92782 0.0
O582 O 0.68438 0.16336 0.9578 0.0
C583 C 0.64216 0.19654 0.86512 0.0
O584 O 0.64686 0.21263 0.88374 0.0
C585 C 0.73293 0.12077 0.98093 0.0
C586 C 0.77364 0.11721 0.97062 0.0
C587 C 0.75585 0.11035 0.98888 0.0
N588 N 0.73699 0.13312 0.95886 0.0
N589 N 0.76138 0.13112 0.95291 0.0
C590 C 0.70723 0.11729 0.99277 0.0
H591 H 0.70322 0.13373 0.00546 0.0
H592 H 0.69233 0.11674 0.97776 0.0
H593 H 0.7065 0.09954 0.00425 0.0
C594 C 0.67809 0.11388 0.88024 0.0
N595 N 0.68433 0.13314 0.89585 0.0
N596 N 0.70115 0.12521 0.91267 0.0
C597 C 0.70636 0.10042 0.908 0.0
C598 C 0.69172 0.09253 0.88747 0.0
C599 C 0.6605 0.11649 0.85791 0.0
H600 H 0.66846 0.13068 0.84439 0.0
H601 H 0.64177 0.12372 0.86457 0.0
H602 H 0.65773 0.09812 0.84782 0.0
O603 O 0.70355 0.19001 0.89083 0.0
O604 O 0.73102 0.17855 0.92086 0.0
H605 H 0.74443 0.09363 0.92072 0.0
H606 H 0.72622 0.06496 0.91493 0.0
C607 C 0.72534 0.08475 0.92236 0.0
H608 H 0.72 0.08424 0.9428 0.0
H609 H 0.76952 0.13876 0.93645 0.0
O610 O 0.65121 0.17417 0.86657 0.0
C611 C 0.72466 0.19294 0.90236 0.0
Co612 Co 0.57364 0.92486 0.6509 0.0
Co613 Co 0.59739 0.96417 0.68905 0.0
C614 C 0.56711 0.91804 0.70635 0.0
O615 O 0.56402 0.90934 0.68385 0.0
O616 O 0.57905 0.9388 0.71052 0.0
C617 C 0.56053 0.88193 0.61447 0.0
O618 O 0.56856 0.86405 0.63005 0.0
C619 C 0.62849 0.97963 0.73262 0.0
C620 C 0.63859 0.01919 0.7223 0.0
C621 C 0.64221 0.00066 0.74076 0.0
N622 N 0.61737 0.98546 0.7103 0.0
N623 N 0.62338 0.00915 0.70428 0.0
C624 C 0.62734 0.95384 0.74472 0.0
H625 H 0.60964 0.9524 0.75622 0.0
H626 H 0.6267 0.93889 0.72977 0.0
H627 H 0.644 0.95059 0.75735 0.0
C628 C 0.62708 0.92161 0.63387 0.0
N629 N 0.60895 0.93079 0.64948 0.0
N630 N 0.61908 0.94781 0.66486 0.0
C631 C 0.64411 0.95013 0.65925 0.0
C632 C 0.64995 0.93339 0.63968 0.0
C633 C 0.62205 0.90358 0.61233 0.0
H634 H 0.60681 0.91146 0.59998 0.0
H635 H 0.61536 0.88516 0.6202 0.0
H636 H 0.63928 0.90018 0.60056 0.0
O637 O 0.55497 0.9571 0.6465 0.0
O638 O 0.5714 0.98607 0.67245 0.0
H639 H 0.65503 0.98814 0.66881 0.0
H640 H 0.68159 0.9667 0.66402 0.0
C641 C 0.66199 0.96842 0.6718 0.0
H642 H 0.66249 0.96462 0.69259 0.0
H643 H 0.61733 0.01834 0.6877 0.0
O644 O 0.56187 0.9052 0.62097 0.0
C645 C 0.55544 0.9796 0.65542 0.0
Co646 Co 0.81216 0.82599 0.3884 0.0
Co647 Co 0.7791 0.84671 0.4338 0.0
C648 C 0.82856 0.81947 0.44265 0.0
O649 O 0.83221 0.81606 0.41882 0.0
O650 O 0.8091 0.83142 0.45103 0.0
C651 C 0.85368 0.81696 0.35084 0.0
O652 O 0.87066 0.82121 0.36874 0.0
C653 C 0.76369 0.87343 0.48076 0.0
C654 C 0.72402 0.88395 0.47113 0.0
C655 C 0.7424 0.88611 0.48993 0.0
N656 N 0.75815 0.86432 0.45745 0.0
N657 N 0.73437 0.87052 0.45191 0.0
C658 C 0.78932 0.87139 0.49306 0.0
H659 H 0.7913 0.85218 0.50168 0.0
H660 H 0.80449 0.87363 0.47848 0.0
H661 H 0.79178 0.88599 0.50816 0.0
C662 C 0.80985 0.87988 0.37327 0.0
N663 N 0.80373 0.8608 0.38922 0.0
N664 N 0.78975 0.86984 0.40799 0.0
C665 C 0.7867 0.89519 0.40455 0.0
C666 C 0.79938 0.9022 0.38251 0.0
C667 C 0.82514 0.8767 0.34938 0.0
H668 H 0.81637 0.86172 0.33732 0.0
H669 H 0.8447 0.87052 0.35445 0.0
H670 H 0.82628 0.89466 0.33827 0.0
O671 O 0.78132 0.80482 0.38751 0.0
O672 O 0.75806 0.81808 0.42023 0.0
H673 H 0.75189 0.90809 0.4212 0.0
H674 H 0.77536 0.93283 0.41692 0.0
C675 C 0.77252 0.91253 0.42217 0.0
H676 H 0.77912 0.90946 0.44201 0.0
H677 H 0.72534 0.86589 0.4348 0.0
O678 O 0.83006 0.81801 0.35614 0.0
C679 C 0.76157 0.80314 0.40144 0.0
Co680 Co 0.92756 0.05873 0.14224 0.0
Co681 Co 0.90179 0.02943 0.18752 0.0
C682 C 0.92972 0.07821 0.19611 0.0
O683 O 0.93539 0.08005 0.17251 0.0
O684 O 0.91635 0.05979 0.20458 0.0
C685 C 0.93845 0.09849 0.10389 0.0
O686 O 0.92924 0.11552 0.11978 0.0
C687 C 0.87098 0.01723 0.23293 0.0
C688 C 0.85929 0.97775 0.22402 0.0
C689 C 0.85668 0.99694 0.24193 0.0
N690 N 0.88143 0.01036 0.21055 0.0
N691 N 0.8745 0.9867 0.20544 0.0
C692 C 0.87344 0.04317 0.24445 0.0
H693 H 0.87241 0.05787 0.22928 0.0
H694 H 0.85828 0.04672 0.25877 0.0
H695 H 0.89232 0.04475 0.25386 0.0
C696 C 0.87549 0.05551 0.12155 0.0
N697 N 0.89262 0.05107 0.14009 0.0
N698 N 0.88134 0.03924 0.15913 0.0
C699 C 0.85636 0.03642 0.15346 0.0
C700 C 0.85206 0.04644 0.12943 0.0
C701 C 0.8814 0.06844 0.0968 0.0
H702 H 0.8982 0.05928 0.08781 0.0
H703 H 0.88603 0.0887 0.10057 0.0
H704 H 0.86509 0.06771 0.08337 0.0
O705 O 0.94731 0.02715 0.14437 0.0
O706 O 0.9308 0.00664 0.17749 0.0
H707 H 0.83998 0.00358 0.17095 0.0
H708 H 0.81728 0.02828 0.16362 0.0
C709 C 0.83692 0.02448 0.17053 0.0
H710 H 0.83902 0.03199 0.19017 0.0
H711 H 0.87991 0.97679 0.18906 0.0
O712 O 0.93922 0.07519 0.1104 0.0
C713 C 0.94705 0.00829 0.15953 0.0
Co714 Co 0.33569 0.66656 0.59358 0.0
Co715 Co 0.28742 0.65175 0.56179 0.0
C716 C 0.335 0.67492 0.53822 0.0
O717 O 0.34765 0.67482 0.55897 0.0
O718 O 0.31201 0.6671 0.53725 0.0
C719 C 0.36911 0.6959 0.62211 0.0
O720 O 0.36176 0.71239 0.60474 0.0
C721 C 0.26158 0.62564 0.52018 0.0
C722 C 0.22211 0.6227 0.53465 0.0
C723 C 0.2376 0.6164 0.5142 0.0
N724 N 0.26032 0.63691 0.54313 0.0
N725 N 0.23667 0.63525 0.55164 0.0
C726 C 0.28577 0.62209 0.50551 0.0
H727 H 0.28902 0.6391 0.49336 0.0
H728 H 0.30212 0.62023 0.51882 0.0
H729 H 0.28471 0.60498 0.49311 0.0
C730 C 0.33177 0.61309 0.60925 0.0
N731 N 0.32381 0.63293 0.59518 0.0
N732 N 0.30316 0.62651 0.58253 0.0
C733 C 0.2971 0.60223 0.58846 0.0
C734 C 0.31516 0.59289 0.6054 0.0
C735 C 0.35307 0.61479 0.62819 0.0
H736 H 0.34796 0.62892 0.64308 0.0
H737 H 0.37053 0.62172 0.61847 0.0
H738 H 0.35709 0.59628 0.63752 0.0
O739 O 0.30848 0.69089 0.6026 0.0
O740 O 0.2731 0.67993 0.58238 0.0
H741 H 0.25665 0.59911 0.5849 0.0
H742 H 0.27303 0.56877 0.58629 0.0
C743 C 0.27398 0.58857 0.57892 0.0
H744 H 0.27438 0.588 0.5578 0.0
H745 H 0.23059 0.64233 0.56921 0.0
O746 O 0.36199 0.67288 0.6199 0.0
C747 C 0.28504 0.69451 0.59763 0.0
Co748 Co 0.06016 0.55858 0.35823 0.0
Co749 Co 0.08961 0.53253 0.31331 0.0
C750 C 0.0588 0.57864 0.30387 0.0
O751 O 0.05227 0.57909 0.32732 0.0
O752 O 0.07422 0.56192 0.29531 0.0
C753 C 0.04882 0.59852 0.39546 0.0
O754 O 0.06052 0.61453 0.38016 0.0
C755 C 0.11674 0.51344 0.26719 0.0
C756 C 0.14208 0.48517 0.2854 0.0
C757 C 0.13627 0.49602 0.26199 0.0
N758 N 0.11226 0.51324 0.29248 0.0
N759 N 0.12708 0.4959 0.30306 0.0
C760 C 0.10064 0.528 0.24869 0.0
H761 H 0.08258 0.53411 0.25772 0.0
H762 H 0.11116 0.54515 0.24216 0.0
H763 H 0.09589 0.51597 0.23196 0.0
C764 C 0.11113 0.55755 0.38153 0.0
N765 N 0.09524 0.55287 0.36198 0.0
N766 N 0.10837 0.54428 0.34242 0.0
C767 C 0.13345 0.54501 0.34849 0.0
C768 C 0.13577 0.55281 0.37359 0.0
C769 C 0.10299 0.56714 0.40717 0.0
H770 H 0.08496 0.55781 0.41302 0.0
H771 H 0.09992 0.588 0.40604 0.0
H772 H 0.1177 0.56355 0.42191 0.0
O773 O 0.0425 0.52619 0.35579 0.0
O774 O 0.06119 0.5083 0.32229 0.0
H775 H 0.16201 0.52031 0.33319 0.0
H776 H 0.17119 0.55305 0.33467 0.0
C777 C 0.15502 0.54008 0.33049 0.0
H778 H 0.14889 0.5429 0.31047 0.0
H779 H 0.12692 0.49141 0.32244 0.0
O780 O 0.04655 0.5753 0.389 0.0
C781 C 0.04444 0.50809 0.33989 0.0
Co782 Co 0.42591 0.43373 0.85288 0.0
Co783 Co 0.39958 0.46442 0.8088 0.0
C784 C 0.43155 0.4185 0.79803 0.0
O785 O 0.43666 0.41531 0.82162 0.0
O786 O 0.41688 0.43632 0.79042 0.0
C787 C 0.4386 0.39322 0.89046 0.0
O788 O 0.43054 0.37587 0.87431 0.0
C789 C 0.36952 0.47722 0.76317 0.0
C790 C 0.35666 0.51616 0.77279 0.0
C791 C 0.35525 0.49756 0.75412 0.0
N792 N 0.37885 0.48356 0.78617 0.0
N793 N 0.37112 0.50686 0.79178 0.0
C794 C 0.37315 0.45171 0.75098 0.0
H795 H 0.39203 0.45123 0.74144 0.0
H796 H 0.37286 0.43658 0.76576 0.0
H797 H 0.35808 0.44787 0.73664 0.0
C798 C 0.37272 0.43091 0.87108 0.0
N799 N 0.39031 0.43841 0.85399 0.0
N800 N 0.37905 0.45147 0.83576 0.0
C801 C 0.35379 0.4525 0.84069 0.0
C802 C 0.3491 0.43941 0.8631 0.0
C803 C 0.37853 0.41684 0.89522 0.0
H804 H 0.39449 0.42631 0.90532 0.0
H805 H 0.38437 0.3971 0.89046 0.0
H806 H 0.36176 0.41603 0.90808 0.0
O807 O 0.44346 0.46672 0.85325 0.0
O808 O 0.42671 0.4882 0.8209 0.0
H809 H 0.33733 0.48628 0.82513 0.0
H810 H 0.31472 0.46099 0.83062 0.0
C811 C 0.33441 0.46539 0.82423 0.0
H812 H 0.3368 0.45914 0.80418 0.0
H813 H 0.37572 0.51637 0.80863 0.0
O814 O 0.438 0.41662 0.88427 0.0
C815 C 0.44255 0.4864 0.83918 0.0
H816 H 0.21127 0.12567 0.51328 0.0
H817 H 0.13883 0.22123 0.42067 0.0
H818 H 0.24704 0.18586 0.47025 0.0
H819 H 0.10849 0.14932 0.44598 0.0
H820 H 0.17352 0.21704 0.4517 0.0
H821 H 0.16945 0.14254 0.50122 0.0
C822 C 0.21032 0.14291 0.50199 0.0
C823 C 0.23256 0.15439 0.49263 0.0
C824 C 0.15886 0.20253 0.45102 0.0
C825 C 0.18497 0.17348 0.47849 0.0
C826 C 0.139 0.20505 0.43352 0.0
C827 C 0.12113 0.18546 0.43084 0.0
C828 C 0.16077 0.18018 0.46567 0.0
C829 C 0.12212 0.16472 0.44759 0.0
C830 C 0.18646 0.15242 0.49497 0.0
C831 C 0.23027 0.17636 0.47762 0.0
N832 N 0.14197 0.16236 0.46404 0.0
N833 N 0.20689 0.18505 0.47078 0.0
H834 H 0.59448 0.35908 0.19016 0.0
H835 H 0.56195 0.5008 0.21803 0.0
H836 H 0.52324 0.39312 0.16777 0.0
H837 H 0.61977 0.46018 0.26 0.0
H838 H 0.54391 0.46014 0.20431 0.0
H839 H 0.60064 0.39327 0.22133 0.0
C840 C 0.57973 0.37334 0.19258 0.0
C841 C 0.55839 0.37356 0.17662 0.0
C842 C 0.56016 0.46004 0.21704 0.0
C843 C 0.5656 0.41305 0.2112 0.0
C844 C 0.57049 0.48324 0.22476 0.0
C845 C 0.59233 0.48372 0.24007 0.0
C846 C 0.57227 0.43722 0.22409 0.0
C847 C 0.60275 0.46056 0.24836 0.0
C848 C 0.58325 0.3929 0.21021 0.0
C849 C 0.53991 0.39247 0.17995 0.0
N850 N 0.59291 0.43818 0.23984 0.0
N851 N 0.54419 0.41186 0.19653 0.0
H852 H 0.38257 0.82708 0.93669 0.0
H853 H 0.23507 0.81725 0.95887 0.0
H854 H 0.33576 0.76861 0.90331 0.0
H855 H 0.28354 0.86465 0.00528 0.0
H856 H 0.27266 0.79484 0.94313 0.0
H857 H 0.34854 0.83634 0.96736 0.0
C858 C 0.36546 0.81552 0.9366 0.0
C859 C 0.36179 0.797 0.91777 0.0
C860 C 0.27515 0.80979 0.95714 0.0
C861 C 0.32255 0.80805 0.95179 0.0
C862 C 0.25369 0.82264 0.96602 0.0
C863 C 0.2563 0.84283 0.98327 0.0
C864 C 0.29949 0.81765 0.96504 0.0
C865 C 0.28075 0.84904 0.9921 0.0
C866 C 0.34596 0.82092 0.9539 0.0
C867 C 0.3392 0.78289 0.91781 0.0
N868 N 0.3015 0.83679 0.98251 0.0
N869 N 0.32019 0.78902 0.93426 0.0
H870 H 0.86919 0.53764 0.76275 0.0
H871 H 0.9652 0.61531 0.67489 0.0
H872 H 0.93586 0.5058 0.72666 0.0
H873 H 0.88733 0.63702 0.68921 0.0
H874 H 0.96148 0.58197 0.70747 0.0
H875 H 0.88276 0.58015 0.74933 0.0
C876 C 0.88714 0.53969 0.75278 0.0
C877 C 0.90148 0.51826 0.74575 0.0
C878 C 0.94545 0.59451 0.70401 0.0
C879 C 0.91677 0.56662 0.72999 0.0
C880 C 0.94763 0.61357 0.68562 0.0
C881 C 0.92642 0.62853 0.67944 0.0
C882 C 0.92189 0.59055 0.7161 0.0
C883 C 0.90398 0.62561 0.69353 0.0
C884 C 0.89475 0.56393 0.74496 0.0
C885 C 0.92423 0.52191 0.73226 0.0
N886 N 0.90213 0.60663 0.71101 0.0
N887 N 0.93107 0.54564 0.72456 0.0
H888 H 0.71376 0.36424 0.48778 0.0
H889 H 0.65428 0.26857 0.58924 0.0
H890 H 0.75708 0.31857 0.54067 0.0
H891 H 0.61241 0.32929 0.55331 0.0
H892 H 0.68969 0.27598 0.5597 0.0
H893 H 0.67502 0.34163 0.50068 0.0
C894 C 0.71523 0.34897 0.50158 0.0
C895 C 0.7386 0.34322 0.51324 0.0
C896 C 0.67243 0.28713 0.55768 0.0
C897 C 0.69445 0.31757 0.52822 0.0
C898 C 0.65215 0.28265 0.57427 0.0
C899 C 0.63059 0.29833 0.57345 0.0
C900 C 0.67107 0.3076 0.54046 0.0
C901 C 0.62878 0.31675 0.55424 0.0
C902 C 0.69311 0.33618 0.50903 0.0
C903 C 0.73935 0.32368 0.53142 0.0
N904 N 0.64903 0.32124 0.53873 0.0
N905 N 0.71756 0.31167 0.53851 0.0
H906 H 0.42499 0.00777 0.2829 0.0
H907 H 0.41128 0.86222 0.30699 0.0
H908 H 0.37556 0.96067 0.23723 0.0
H909 H 0.47491 0.90597 0.33463 0.0
H910 H 0.40218 0.89574 0.27577 0.0
H911 H 0.44766 0.9697 0.29706 0.0
C912 C 0.41926 0.98935 0.27552 0.0
C913 C 0.39838 0.98721 0.25905 0.0
C914 C 0.41866 0.8977 0.28804 0.0
C915 C 0.42375 0.94352 0.27553 0.0
C916 C 0.42391 0.8785 0.30569 0.0
C917 C 0.44384 0.88156 0.32313 0.0
C918 C 0.4331 0.92026 0.2885 0.0
C919 C 0.45944 0.90306 0.32127 0.0
C920 C 0.43224 0.96763 0.28349 0.0
C921 C 0.39168 0.96304 0.24989 0.0
N922 N 0.45343 0.92191 0.3046 0.0
N923 N 0.40402 0.94201 0.25868 0.0
H924 H 0.84473 0.72092 0.08125 0.0
H925 H 0.78077 0.61803 0.98933 0.0
H926 H 0.88088 0.65033 0.06023 0.0
H927 H 0.73929 0.67212 0.03526 0.0
H928 H 0.82088 0.63775 0.00316 0.0
H929 H 0.80997 0.7116 0.05142 0.0
C930 C 0.84579 0.70399 0.06949 0.0
C931 C 0.86552 0.68638 0.07289 0.0
C932 C 0.80295 0.64559 0.00975 0.0
C933 C 0.82582 0.67524 0.03955 0.0
C934 C 0.78011 0.63446 0.00179 0.0
C935 C 0.75681 0.64351 0.01126 0.0
C936 C 0.80233 0.66599 0.02706 0.0
C937 C 0.75695 0.66452 0.02773 0.0
C938 C 0.82589 0.69852 0.05274 0.0
C939 C 0.86596 0.66439 0.05781 0.0
N940 N 0.77938 0.67499 0.03521 0.0
N941 N 0.84613 0.65921 0.04196 0.0
H942 H 0.06179 0.00109 0.76285 0.0
H943 H 0.10256 0.13564 0.80882 0.0
H944 H 0.12849 0.03926 0.73378 0.0
H945 H 0.02682 0.10618 0.82006 0.0
H946 H 0.10933 0.10446 0.77479 0.0
H947 H 0.04526 0.04202 0.77762 0.0
C948 C 0.07264 0.01825 0.75907 0.0
C949 C 0.09651 0.0169 0.74722 0.0
C950 C 0.09093 0.10524 0.7841 0.0
C951 C 0.07816 0.06364 0.76456 0.0
C952 C 0.08709 0.12309 0.8034 0.0
C953 C 0.06422 0.12315 0.81708 0.0
C954 C 0.07196 0.08699 0.77912 0.0
C955 C 0.04472 0.10652 0.80978 0.0
C956 C 0.0632 0.04162 0.76742 0.0
C957 C 0.10989 0.03957 0.74269 0.0
N958 N 0.04923 0.08864 0.79162 0.0
N959 N 0.10077 0.06199 0.75186 0.0
H960 H 0.43688 0.10974 0.16254 0.0
H961 H 0.46367 0.25445 0.18514 0.0
H962 H 0.40752 0.1515 0.22677 0.0
H963 H 0.50541 0.20948 0.13046 0.0
H964 H 0.44905 0.21534 0.20563 0.0
H965 H 0.46871 0.14319 0.15572 0.0
C966 C 0.43792 0.12554 0.1758 0.0
C967 C 0.41984 0.12809 0.19523 0.0
C968 C 0.46187 0.21393 0.18951 0.0
C969 C 0.45516 0.16677 0.18706 0.0
C970 C 0.47012 0.23627 0.17778 0.0
C971 C 0.48562 0.23509 0.15608 0.0
C972 C 0.4686 0.19024 0.17898 0.0
C973 C 0.49359 0.21116 0.14729 0.0
C974 C 0.45589 0.14472 0.17183 0.0
C975 C 0.42138 0.14899 0.21167 0.0
N976 N 0.48457 0.18961 0.15849 0.0
N977 N 0.43842 0.16785 0.20691 0.0
H978 H 0.63401 0.69379 0.91182 0.0
H979 H 0.48639 0.70527 0.92636 0.0
H980 H 0.592 0.65711 0.97199 0.0
H981 H 0.53021 0.75581 0.87863 0.0
H982 H 0.5255 0.69266 0.94825 0.0
H983 H 0.59809 0.72279 0.90487 0.0
C984 C 0.61757 0.69266 0.92428 0.0
C985 C 0.61574 0.67326 0.94248 0.0
C986 C 0.52657 0.70695 0.93339 0.0
C987 C 0.5743 0.7053 0.93401 0.0
C988 C 0.50425 0.71404 0.92084 0.0
C989 C 0.50516 0.73153 0.90069 0.0
C990 C 0.55007 0.7169 0.92522 0.0
C991 C 0.52869 0.74243 0.89426 0.0
C992 C 0.59697 0.709 0.92019 0.0
C993 C 0.59399 0.67203 0.95786 0.0
N994 N 0.55032 0.73458 0.90618 0.0
N995 N 0.57382 0.68747 0.9529 0.0
H996 H 0.07816 0.8607 0.71476 0.0
H997 H 0.99142 0.78846 0.61264 0.0
H998 H 0.07425 0.88118 0.63534 0.0
H999 H 0.02063 0.75391 0.68128 0.0
H1000 H 0.00966 0.82934 0.62604 0.0
H1001 H 0.04475 0.82868 0.70771 0.0
C1002 C 0.06963 0.85891 0.69603 0.0
C1003 C 0.07881 0.87326 0.67552 0.0
C1004 C 0.01155 0.81291 0.6384 0.0
C1005 C 0.04113 0.8369 0.66726 0.0
C1006 C 0.00101 0.78968 0.63088 0.0
C1007 C 0.0046 0.7679 0.64594 0.0
C1008 C 0.02558 0.81426 0.66116 0.0
C1009 C 0.01763 0.77032 0.66912 0.0
C1010 C 0.05078 0.84061 0.69197 0.0
C1011 C 0.06753 0.87027 0.65153 0.0
N1012 N 0.02782 0.79307 0.67598 0.0
N1013 N 0.04939 0.85217 0.64795 0.0
H1014 H 0.00653 0.28595 0.42706 0.0
H1015 H 0.85859 0.30136 0.41171 0.0
H1016 H 0.96172 0.23752 0.37809 0.0
H1017 H 0.90141 0.33699 0.47193 0.0
H1018 H 0.89433 0.27234 0.40392 0.0
H1019 H 0.96748 0.30026 0.44798 0.0
C1020 C 0.98844 0.27805 0.42101 0.0
C1021 C 0.98729 0.26058 0.40085 0.0
C1022 C 0.89569 0.28594 0.41939 0.0
C1023 C 0.94247 0.2771 0.42436 0.0
C1024 C 0.8752 0.30229 0.42395 0.0
C1025 C 0.87725 0.32134 0.44249 0.0
C1026 C 0.91847 0.28923 0.43311 0.0
C1027 C 0.89922 0.32233 0.45757 0.0
C1028 C 0.96615 0.28611 0.43302 0.0
C1029 C 0.96344 0.25082 0.39375 0.0
N1030 N 0.91925 0.30683 0.45221 0.0
N1031 N 0.9419 0.25954 0.40522 0.0
H1032 H 0.00642 0.28373 0.8773 0.0
H1033 H 0.91854 0.35187 0.7735 0.0
H1034 H 0.97016 0.24518 0.81442 0.0
H1035 H 0.93028 0.38033 0.84959 0.0
H1036 H 0.95042 0.31852 0.78151 0.0
H1037 H 0.99118 0.32455 0.8604 0.0
C1038 C 0.9959 0.28396 0.85954 0.0
C1039 C 0.98943 0.26117 0.84719 0.0
C1040 C 0.94653 0.3325 0.7962 0.0
C1041 C 0.97186 0.30749 0.828 0.0
C1042 C 0.92857 0.35155 0.79156 0.0
C1043 C 0.92201 0.36858 0.81099 0.0
C1044 C 0.95783 0.33067 0.82042 0.0
C1045 C 0.93506 0.3674 0.83422 0.0
C1046 C 0.98708 0.30718 0.85002 0.0
C1047 C 0.97532 0.2624 0.82455 0.0
N1048 N 0.95221 0.34849 0.83845 0.0
N1049 N 0.96683 0.28519 0.81575 0.0
H1050 H 0.40572 0.16864 0.51572 0.0
H1051 H 0.4613 0.263 0.62081 0.0
H1052 H 0.36414 0.19186 0.58255 0.0
H1053 H 0.50614 0.21613 0.57033 0.0
H1054 H 0.42265 0.24999 0.59773 0.0
H1055 H 0.43879 0.20001 0.52582 0.0
C1056 C 0.4031 0.18121 0.5319 0.0
C1057 C 0.3824 0.17792 0.54837 0.0
C1058 C 0.44104 0.24308 0.59138 0.0
C1059 C 0.42023 0.21296 0.56052 0.0
C1060 C 0.46304 0.25054 0.60444 0.0
C1061 C 0.48676 0.24039 0.59748 0.0
C1062 C 0.44301 0.22563 0.57116 0.0
C1063 C 0.48808 0.2241 0.57639 0.0
C1064 C 0.42203 0.19886 0.53782 0.0
C1065 C 0.3799 0.19413 0.56941 0.0
N1066 N 0.46647 0.21707 0.56407 0.0
N1067 N 0.39891 0.21073 0.5752 0.0
H1068 H 0.58377 0.64737 0.27419 0.0
H1069 H 0.48797 0.7155 0.37026 0.0
H1070 H 0.55533 0.61306 0.34312 0.0
H1071 H 0.53693 0.75484 0.31721 0.0
H1072 H 0.5007 0.67488 0.35117 0.0
H1073 H 0.55427 0.68315 0.28031 0.0
C1074 C 0.57054 0.64699 0.29006 0.0
C1075 C 0.57177 0.62753 0.30825 0.0
C1076 C 0.50818 0.69246 0.34334 0.0
C1077 C 0.5387 0.66825 0.31569 0.0
C1078 C 0.5008 0.71563 0.35409 0.0
C1079 C 0.51147 0.73847 0.34523 0.0
C1080 C 0.5263 0.69224 0.32364 0.0
C1081 C 0.52847 0.73755 0.32466 0.0
C1082 C 0.55394 0.66742 0.29368 0.0
C1083 C 0.55471 0.62784 0.32873 0.0
N1084 N 0.53553 0.71477 0.31466 0.0
N1085 N 0.53905 0.64816 0.33215 0.0
H1086 H 0.99752 0.76803 0.05622 0.0
H1087 H 0.13815 0.8001 0.09376 0.0
H1088 H 0.03598 0.73373 0.12026 0.0
H1089 H 0.10353 0.82415 0.02334 0.0
H1090 H 0.10473 0.76796 0.09885 0.0
H1091 H 0.0387 0.78125 0.03905 0.0
C1092 C 0.01475 0.7628 0.06635 0.0
C1093 C 0.01342 0.7499 0.08969 0.0
C1094 C 0.10479 0.77969 0.08187 0.0
C1095 C 0.06056 0.76546 0.07059 0.0
C1096 C 0.12395 0.79787 0.07892 0.0
C1097 C 0.12328 0.81466 0.05822 0.0
C1098 C 0.08461 0.77887 0.06424 0.0
C1099 C 0.10451 0.81143 0.03957 0.0
C1100 C 0.03827 0.77029 0.05654 0.0
C1101 C 0.03621 0.74348 0.10208 0.0
N1102 N 0.08553 0.79424 0.0433 0.0
N1103 N 0.05885 0.75179 0.09263 0.0
H1104 H 0.13511 0.51922 0.21351 0.0
H1105 H 0.21847 0.40877 0.15154 0.0
H1106 H 0.16745 0.45539 0.25454 0.0
H1107 H 0.15326 0.44006 0.11271 0.0
H1108 H 0.21183 0.43917 0.18639 0.0
H1109 H 0.15228 0.50167 0.17402 0.0
C1110 C 0.14529 0.50142 0.21447 0.0
C1111 C 0.14838 0.48808 0.23756 0.0
C1112 C 0.19947 0.43992 0.16986 0.0
C1113 C 0.16993 0.46926 0.19253 0.0
C1114 C 0.20338 0.4228 0.14999 0.0
C1115 C 0.18636 0.42218 0.1295 0.0
C1116 C 0.17837 0.45633 0.16911 0.0
C1117 C 0.16677 0.44026 0.12831 0.0
C1118 C 0.15559 0.49176 0.19184 0.0
C1119 C 0.16382 0.46616 0.23732 0.0
N1120 N 0.16302 0.45651 0.14815 0.0
N1121 N 0.17386 0.45742 0.21521 0.0
H1122 H 0.65788 0.05363 0.88956 0.0
H1123 H 0.68762 0.02458 0.74698 0.0
H1124 H 0.72651 0.07847 0.8521 0.0
H1125 H 0.62834 0.98609 0.78891 0.0
H1126 H 0.70692 0.03778 0.78721 0.0
H1127 H 0.65167 0.02162 0.85621 0.0
C1128 C 0.67216 0.05154 0.87477 0.0
C1129 C 0.69268 0.06846 0.87333 0.0
C1130 C 0.69005 0.02592 0.78771 0.0
C1131 C 0.68528 0.03295 0.83468 0.0
C1132 C 0.679 0.01848 0.76474 0.0
C1133 C 0.65636 0.00437 0.76472 0.0
C1134 C 0.6779 0.01982 0.8108 0.0
C1135 C 0.64594 0.99682 0.78814 0.0
C1136 C 0.66856 0.03345 0.85564 0.0
C1137 C 0.7105 0.06555 0.85372 0.0
N1138 N 0.65652 0.00509 0.81029 0.0
N1139 N 0.7061 0.04848 0.83478 0.0
H1140 H 0.6823 0.89317 0.63696 0.0
H1141 H 0.72017 0.9318 0.49909 0.0
H1142 H 0.66967 0.96872 0.60756 0.0
H1143 H 0.75459 0.86762 0.53713 0.0
H1144 H 0.7063 0.94834 0.54035 0.0
H1145 H 0.71398 0.88578 0.60347 0.0
C1146 C 0.68693 0.90846 0.62388 0.0
C1147 C 0.67353 0.93149 0.62473 0.0
C1148 C 0.71742 0.93096 0.53981 0.0
C1149 C 0.70882 0.92306 0.58604 0.0
C1150 C 0.72524 0.9215 0.51627 0.0
C1151 C 0.73841 0.89835 0.51484 0.0
C1152 C 0.72216 0.91671 0.56199 0.0
C1153 C 0.74459 0.88566 0.53753 0.0
C1154 C 0.70489 0.90427 0.60473 0.0
C1155 C 0.67977 0.95072 0.60735 0.0
N1156 N 0.73593 0.89475 0.5602 0.0
N1157 N 0.69662 0.94589 0.5883 0.0
H1158 H 0.87278 0.01004 0.28977 0.0
H1159 H 0.7644 0.92412 0.35157 0.0
H1160 H 0.80962 0.97689 0.24899 0.0
H1161 H 0.83881 0.93546 0.38424 0.0
H1162 H 0.77333 0.95788 0.32046 0.0
H1163 H 0.85307 0.99685 0.33008 0.0
C1164 C 0.85436 0.00075 0.28938 0.0
C1165 C 0.8428 0.99433 0.26617 0.0
C1166 C 0.78739 0.95357 0.33496 0.0
C1167 C 0.82041 0.97908 0.31187 0.0
C1168 C 0.7822 0.93453 0.35277 0.0
C1169 C 0.80098 0.92724 0.37022 0.0
C1170 C 0.81159 0.96504 0.33464 0.0
C1171 C 0.82392 0.94079 0.37096 0.0
C1172 C 0.84321 0.99311 0.31233 0.0
C1173 C 0.81919 0.98191 0.26659 0.0
N1174 N 0.82882 0.95883 0.35306 0.0
N1175 N 0.80888 0.97443 0.28909 0.0
H1176 H 0.83863 0.01568 0.09043 0.0
H1177 H 0.74019 0.11875 0.03802 0.0
H1178 H 0.81331 0.0805 0.1339 0.0
H1179 H 0.78461 0.06759 0.99149 0.0
H1180 H 0.7555 0.09647 0.07626 0.0
H1181 H 0.80671 0.02552 0.0578 0.0
C1182 C 0.82562 0.03144 0.09344 0.0
C1183 C 0.82838 0.04739 0.11461 0.0
C1184 C 0.76141 0.08981 0.05763 0.0
C1185 C 0.79264 0.05926 0.07731 0.0
C1186 C 0.75261 0.1024 0.03586 0.0
C1187 C 0.76134 0.09499 0.01171 0.0
C1188 C 0.77886 0.06966 0.05504 0.0
C1189 C 0.7777 0.07399 0.00986 0.0
C1190 C 0.80762 0.0372 0.07479 0.0
C1191 C 0.81151 0.06781 0.11772 0.0
N1192 N 0.78608 0.06216 0.03126 0.0
N1193 N 0.79455 0.07349 0.09897 0.0
H1194 H 0.37377 0.48364 0.70727 0.0
H1195 H 0.27808 0.57861 0.63854 0.0
H1196 H 0.31023 0.52084 0.74388 0.0
H1197 H 0.35028 0.55484 0.60749 0.0
H1198 H 0.282 0.5459 0.67166 0.0
H1199 H 0.35778 0.498 0.66591 0.0
C1200 C 0.35598 0.49407 0.70654 0.0
C1201 C 0.34328 0.50115 0.72896 0.0
C1202 C 0.2967 0.54739 0.65723 0.0
C1203 C 0.32529 0.51814 0.6819 0.0
C1204 C 0.29436 0.5659 0.6383 0.0
C1205 C 0.31409 0.56943 0.62069 0.0
C1206 C 0.31899 0.53258 0.65852 0.0
C1207 C 0.33486 0.5527 0.62104 0.0
C1208 C 0.34699 0.50246 0.68294 0.0
C1209 C 0.32066 0.51522 0.72697 0.0
N1210 N 0.33703 0.53522 0.64001 0.0
N1211 N 0.31254 0.52353 0.70386 0.0
H1212 H 0.15128 0.52289 0.41248 0.0
H1213 H 0.24902 0.62728 0.46442 0.0
H1214 H 0.17136 0.59044 0.37043 0.0
H1215 H 0.20686 0.57497 0.51177 0.0
H1216 H 0.23094 0.60677 0.42644 0.0
H1217 H 0.18278 0.53417 0.44506 0.0
C1218 C 0.16298 0.5397 0.40982 0.0
C1219 C 0.15889 0.55589 0.38904 0.0
C1220 C 0.22604 0.59955 0.44516 0.0
C1221 C 0.1943 0.56919 0.42616 0.0
C1222 C 0.23642 0.61111 0.46677 0.0
C1223 C 0.22934 0.60271 0.49115 0.0
C1224 C 0.2087 0.57939 0.44809 0.0
C1225 C 0.2126 0.58206 0.49325 0.0
C1226 C 0.18074 0.54624 0.42843 0.0
C1227 C 0.17418 0.57755 0.38631 0.0
N1228 N 0.20277 0.57113 0.47198 0.0
N1229 N 0.19107 0.58383 0.40493 0.0
H1230 H 0.24015 0.36818 0.9598 0.0
H1231 H 0.32486 0.47475 0.89197 0.0
H1232 H 0.26957 0.43505 0.9974 0.0
H1233 H 0.32018 0.39682 0.86676 0.0
H1234 H 0.29157 0.46604 0.92375 0.0
H1235 H 0.25659 0.38438 0.91914 0.0
C1236 C 0.24935 0.38664 0.95933 0.0
C1237 C 0.25361 0.40035 0.98187 0.0
C1238 C 0.29733 0.45104 0.91078 0.0
C1239 C 0.27257 0.41875 0.93575 0.0
C1240 C 0.31611 0.45606 0.89263 0.0
C1241 C 0.32501 0.4364 0.87699 0.0
C1242 C 0.28758 0.42622 0.91314 0.0
C1243 C 0.31357 0.41238 0.8786 0.0
C1244 C 0.25887 0.39577 0.93621 0.0
C1245 C 0.2661 0.42389 0.98038 0.0
N1246 N 0.29557 0.40783 0.89663 0.0
N1247 N 0.27534 0.43229 0.95772 0.0
H1248 H 0.16369 0.24162 0.16019 0.0
H1249 H 0.08372 0.26433 0.28697 0.0
H1250 H 0.13094 0.31528 0.17681 0.0
H1251 H 0.14053 0.20542 0.27771 0.0
H1252 H 0.09773 0.28317 0.24634 0.0
H1253 H 0.15092 0.22691 0.20222 0.0
C1254 C 0.15365 0.2547 0.17262 0.0
C1255 C 0.14842 0.27975 0.16495 0.0
C1256 C 0.10723 0.26629 0.25348 0.0
C1257 C 0.13379 0.26297 0.2134 0.0
C1258 C 0.09934 0.25559 0.27668 0.0
C1259 C 0.11076 0.23309 0.28568 0.0
C1260 C 0.1264 0.25417 0.23921 0.0
C1261 C 0.13091 0.22259 0.2715 0.0
C1262 C 0.14651 0.24632 0.19675 0.0
C1263 C 0.13536 0.2958 0.182 0.0
N1264 N 0.13783 0.23303 0.24892 0.0
N1265 N 0.1284 0.28712 0.20548 0.0
H1266 H 0.4577 0.4248 0.92697 0.0
H1267 H 0.48082 0.31594 0.0313 0.0
H1268 H 0.43896 0.34585 0.91332 0.0
H1269 H 0.5156 0.39043 0.033 0.0
H1270 H 0.45847 0.32796 0.99187 0.0
H1271 H 0.47243 0.4136 0.96942 0.0
C1272 C 0.45665 0.40505 0.93288 0.0
C1273 C 0.44729 0.38618 0.91638 0.0
C1274 C 0.47077 0.34171 0.00111 0.0
C1275 C 0.46414 0.37322 0.96532 0.0
C1276 C 0.48332 0.33497 0.02369 0.0
C1277 C 0.50018 0.35219 0.03532 0.0
C1278 C 0.47495 0.3659 0.99039 0.0
C1279 C 0.50293 0.3765 0.02456 0.0
C1280 C 0.46507 0.39868 0.9572 0.0
C1281 C 0.44625 0.36096 0.92531 0.0
N1282 N 0.49056 0.38256 0.00269 0.0
N1283 N 0.45467 0.35517 0.9492 0.0
H1284 H 0.41451 0.71885 0.78085 0.0
H1285 H 0.38298 0.74448 0.63398 0.0
H1286 H 0.38637 0.78995 0.75028 0.0
H1287 H 0.38024 0.66854 0.66561 0.0
H1288 H 0.39398 0.76102 0.6759 0.0
H1289 H 0.40979 0.69959 0.73823 0.0
C1290 C 0.40729 0.73036 0.7653 0.0
C1291 C 0.40071 0.75603 0.76922 0.0
C1292 C 0.39117 0.7407 0.67366 0.0
C1293 C 0.39593 0.73439 0.72064 0.0
C1294 C 0.38505 0.7312 0.64966 0.0
C1295 C 0.38033 0.70512 0.6463 0.0
C1296 C 0.39271 0.72406 0.69456 0.0
C1297 C 0.38353 0.68883 0.66738 0.0
C1298 C 0.40467 0.71939 0.74105 0.0
C1299 C 0.39154 0.77007 0.74834 0.0
N1300 N 0.38932 0.6986 0.69074 0.0
N1301 N 0.38959 0.75912 0.72504 0.0
H1302 H 0.05324 0.64559 0.41832 0.0
H1303 H 0.97659 0.6013 0.54193 0.0
H1304 H 0.02636 0.56898 0.43175 0.0
H1305 H 0.00822 0.67677 0.53414 0.0
H1306 H -0.0012 0.58838 0.50331 0.0
H1307 H 0.03981 0.65717 0.46163 0.0
C1308 C 0.04452 0.63123 0.43032 0.0
C1309 C 0.04067 0.60635 0.42128 0.0
C1310 C 0.00125 0.60769 0.51015 0.0
C1311 C 0.02558 0.61936 0.47078 0.0
C1312 C 0.98866 0.61502 0.5323 0.0
C1313 C 0.99045 0.64017 0.5411 0.0
C1314 C 0.01543 0.62575 0.49637 0.0
C1315 C 0.0064 0.65717 0.52797 0.0
C1316 C 0.03701 0.63781 0.45507 0.0
C1317 C 0.02951 0.58846 0.43774 0.0
N1318 N 0.01797 0.64977 0.50594 0.0
N1319 N 0.0223 0.59535 0.46157 0.0
H1320 H 0.63109 0.16925 0.82162 0.0
H1321 H 0.61826 0.29432 0.73965 0.0
H1322 H 0.6265 0.24476 0.85404 0.0
H1323 H 0.58507 0.22426 0.71194 0.0
H1324 H 0.62611 0.27419 0.7804 0.0
H1325 H 0.61724 0.18678 0.78039 0.0
C1326 C 0.62685 0.1894 0.82019 0.0
C1327 C 0.63027 0.20565 0.84124 0.0
C1328 C 0.61706 0.26316 0.76548 0.0
C1329 C 0.61489 0.22564 0.79431 0.0
C1330 C 0.61275 0.27457 0.74202 0.0
C1331 C 0.601 0.26095 0.72222 0.0
C1332 C 0.60996 0.23773 0.76932 0.0
C1333 C 0.59416 0.23544 0.7267 0.0
C1334 C 0.61895 0.19932 0.7967 0.0
C1335 C 0.62439 0.23154 0.83834 0.0
N1336 N 0.59892 0.22451 0.74983 0.0
N1337 N 0.61735 0.24076 0.81525 0.0
H1338 H 0.56073 0.83577 0.58907 0.0
H1339 H 0.47535 0.88853 0.47504 0.0
H1340 H 0.53728 0.91429 0.58133 0.0
H1341 H 0.51624 0.81741 0.46905 0.0
H1342 H 0.49702 0.89717 0.51513 0.0
H1343 H 0.54338 0.82717 0.54633 0.0
C1344 C 0.55196 0.85115 0.57845 0.0
C1345 C 0.55036 0.87574 0.58887 0.0
C1346 C 0.5015 0.87976 0.505 0.0
C1347 C 0.53059 0.86608 0.54023 0.0
C1348 C 0.48911 0.87482 0.48208 0.0
C1349 C 0.49399 0.85221 0.46872 0.0
C1350 C 0.51865 0.86179 0.51497 0.0
C1351 C 0.51205 0.83515 0.47872 0.0
C1352 C 0.54221 0.84627 0.55405 0.0
C1353 C 0.53895 0.89501 0.57419 0.0
N1354 N 0.52356 0.84014 0.50147 0.0
N1355 N 0.52942 0.88972 0.55078 0.0
H1356 H 0.8229 0.81152 0.30936 0.0
H1357 H 0.93393 0.76659 0.21502 0.0
H1358 H 0.90209 0.80912 0.33176 0.0
H1359 H 0.85399 0.75059 0.20461 0.0
H1360 H 0.92331 0.79185 0.25312 0.0
H1361 H 0.83501 0.79868 0.26652 0.0
C1362 C 0.8429 0.80838 0.30528 0.0
C1363 C 0.86147 0.81096 0.32438 0.0
C1364 C 0.90811 0.78319 0.24216 0.0
C1365 C 0.87548 0.79624 0.27506 0.0
C1366 C 0.91412 0.76905 0.22032 0.0
C1367 C 0.89477 0.75644 0.20684 0.0
C1368 C 0.8826 0.78489 0.25018 0.0
C1369 C 0.86946 0.75989 0.21463 0.0
C1370 C 0.8498 0.80109 0.28073 0.0
C1371 C 0.88712 0.80705 0.31771 0.0
N1372 N 0.86413 0.77363 0.23585 0.0
N1373 N 0.89337 0.79963 0.29361 0.0
H1374 H 0.01408 0.09783 0.95914 0.0
H1375 H 0.93766 0.1459 0.08121 0.0
H1376 H 0.98307 0.1738 0.96448 0.0
H1377 H 0.95785 0.06737 0.06711 0.0
H1378 H 0.95246 0.15674 0.03814 0.0
H1379 H 0.99115 0.08614 0.99774 0.0
C1380 C 0.00206 0.11195 0.96825 0.0
C1381 C 0.00056 0.13684 0.95869 0.0
C1382 C 0.95344 0.13712 0.04449 0.0
C1383 C 0.97466 0.12378 0.00337 0.0
C1384 C 0.94514 0.13095 0.06909 0.0
C1385 C 0.94676 0.10574 0.07791 0.0
C1386 C 0.96353 0.11795 0.02872 0.0
C1387 C 0.95641 0.08711 0.0613 0.0
C1388 C 0.98901 0.10529 0.99037 0.0
C1389 C 0.98466 0.15436 0.97122 0.0
N1390 N 0.96455 0.09362 0.03765 0.0
N1391 N 0.97261 0.14761 0.9932 0.0
H1392 H 0.2832 0.08012 0.27334 0.0
H1393 H 0.13763 0.11932 0.25418 0.0
H1394 H 0.25201 0.11357 0.20483 0.0
H1395 H 0.17235 0.12248 0.32879 0.0
H1396 H 0.17839 0.10638 0.23625 0.0
H1397 H 0.24173 0.08682 0.29454 0.0
C1398 C 0.26776 0.0889 0.26282 0.0
C1399 C 0.27114 0.09641 0.23731 0.0
C1400 C 0.17705 0.10971 0.25659 0.0
C1401 C 0.22391 0.10339 0.26107 0.0
C1402 C 0.15374 0.11697 0.26689 0.0
C1403 C 0.15165 0.12238 0.29298 0.0
C1404 C 0.1985 0.10769 0.27243 0.0
C1405 C 0.1732 0.11872 0.30851 0.0
C1406 C 0.24419 0.09266 0.27488 0.0
C1407 C 0.25047 0.10763 0.22454 0.0
N1408 N 0.1959 0.11177 0.29796 0.0
N1409 N 0.22779 0.11059 0.23648 0.0
H1410 H 0.61468 0.51245 0.95047 0.0
H1411 H 0.61635 0.42109 0.07157 0.0
H1412 H 0.6582 0.53164 0.01773 0.0
H1413 H 0.59837 0.39666 0.99502 0.0
H1414 H 0.62878 0.46293 0.05458 0.0
H1415 H 0.60403 0.47172 0.96944 0.0
C1416 C 0.6219 0.50822 0.96936 0.0
C1417 C 0.63755 0.52554 0.98243 0.0
C1418 C 0.6223 0.44827 0.04158 0.0
C1419 C 0.6254 0.47847 0.00429 0.0
C1420 C 0.61527 0.42441 0.05121 0.0
C1421 C 0.6062 0.40537 0.03468 0.0
C1422 C 0.61989 0.45311 0.01537 0.0
C1423 C 0.60516 0.41071 0.00851 0.0
C1424 C 0.61591 0.48479 0.98011 0.0
C1425 C 0.64615 0.51885 0.00693 0.0
N1426 N 0.61169 0.43411 -0.00027 0.0
N1427 N 0.63997 0.49576 0.01711 0.0
H1428 H 0.2187 0.93714 0.76284 0.0
H1429 H 0.31871 0.82958 0.80332 0.0
H1430 H 0.21339 0.8578 0.74207 0.0
H1431 H 0.3367 0.90986 0.80569 0.0
H1432 H 0.27571 0.83995 0.78983 0.0
H1433 H 0.25723 0.92745 0.78775 0.0
C1434 C 0.22521 0.91759 0.76415 0.0
C1435 C 0.21299 0.89822 0.75032 0.0
C1436 C 0.28898 0.85535 0.79338 0.0
C1437 C 0.25688 0.88714 0.77839 0.0
C1438 C 0.31364 0.84947 0.80105 0.0
C1439 C 0.33157 0.86889 0.80524 0.0
C1440 C 0.28196 0.88088 0.78977 0.0
C1441 C 0.3236 0.89428 0.80238 0.0
C1442 C 0.24731 0.91215 0.7781 0.0
C1443 C 0.22235 0.8733 0.75233 0.0
N1444 N 0.29937 0.89957 0.79458 0.0
N1445 N 0.2438 0.86852 0.76593 0.0
H1446 H 0.83394 0.46033 0.52157 0.0
H1447 H 0.88967 0.59963 0.49617 0.0
H1448 H 0.87249 0.48366 0.45262 0.0
H1449 H 0.87508 0.57253 0.57254 0.0
H1450 H 0.87737 0.55822 0.47953 0.0
H1451 H 0.84435 0.50191 0.5406 0.0
C1452 C 0.84472 0.47403 0.51052 0.0
C1453 C 0.85227 0.46845 0.48541 0.0
C1454 C 0.87678 0.56128 0.49994 0.0
C1455 C 0.86375 0.51598 0.50685 0.0
C1456 C 0.88367 0.58503 0.50948 0.0
C1457 C 0.88359 0.58955 0.53582 0.0
C1458 C 0.8696 0.54177 0.51679 0.0
C1459 C 0.87549 0.56983 0.55208 0.0
C1460 C 0.85058 0.49773 0.52137 0.0
C1461 C 0.86617 0.48698 0.47199 0.0
N1462 N 0.86887 0.5467 0.5423 0.0
N1463 N 0.87126 0.50986 0.48279 0.0
H1464 H 0.78245 0.4385 0.72839 0.0
H1465 H 0.68185 0.33331 0.68415 0.0
H1466 H 0.78302 0.36005 0.75294 0.0
H1467 H 0.6632 0.41348 0.68601 0.0
H1468 H 0.72461 0.34324 0.69881 0.0
H1469 H 0.74429 0.42956 0.70254 0.0
C1470 C 0.7749 0.41929 0.72782 0.0
C1471 C 0.7857 0.39996 0.74285 0.0
C1472 C 0.71124 0.3587 0.69585 0.0
C1473 C 0.7425 0.38973 0.71355 0.0
C1474 C 0.68675 0.35308 0.6875 0.0
C1475 C 0.66868 0.37258 0.68432 0.0
C1476 C 0.71791 0.38401 0.70105 0.0
C1477 C 0.67643 0.39784 0.68853 0.0
C1478 C 0.75309 0.4143 0.7133 0.0
C1479 C 0.77512 0.37549 0.74173 0.0
N1480 N 0.70048 0.40286 0.69694 0.0
N1481 N 0.75408 0.37109 0.72741 0.0
H1482 H 0.33496 0.90819 0.4423 0.0
H1483 H 0.39154 0.03846 0.49425 0.0
H1484 H 0.41417 0.92983 0.4365 0.0
H1485 H 0.31077 0.02779 0.48352 0.0
H1486 H 0.39955 -0.00079 0.47087 0.0
H1487 H 0.32471 0.95193 0.45567 0.0
C1488 C 0.35013 0.92211 0.44366 0.0
C1489 C 0.37551 0.91519 0.43865 0.0
C1490 C 0.38004 0.00553 0.4732 0.0
C1491 C 0.36395 0.96506 0.4538 0.0
C1492 C 0.3755 0.028 0.48651 0.0
C1493 C 0.35049 0.03628 0.4908 0.0
C1494 C 0.3594 0.99081 0.4646 0.0
C1495 C 0.33035 0.02205 0.48043 0.0
C1496 C 0.34426 0.94707 0.45118 0.0
C1497 C 0.39438 0.93408 0.44051 0.0
N1498 N 0.33521 -0.00032 0.46815 0.0
N1499 N 0.38824 0.95797 0.44812 0.0
H1500 H 0.83307 0.59302 0.18754 0.0
H1501 H 0.71607 0.63794 0.27236 0.0
H1502 H 0.81785 0.6716 0.20676 0.0
H1503 H 0.71539 0.56566 0.23316 0.0
H1504 H 0.75439 0.6498 0.24904 0.0
H1505 H 0.79112 0.58141 0.20493 0.0
C1506 C 0.82094 0.6078 0.19534 0.0
C1507 C 0.82908 0.63328 0.1959 0.0
C1508 C 0.74577 0.63144 0.24527 0.0
C1509 C 0.78135 0.62019 0.21569 0.0
C1510 C 0.7239 0.62466 0.25861 0.0
C1511 C 0.71263 0.60078 0.2547 0.0
C1512 C 0.75682 0.61404 0.22821 0.0
C1513 C 0.72349 0.58432 0.2366 0.0
C1514 C 0.797 0.60119 0.2051 0.0
C1515 C 0.81251 0.65169 0.20603 0.0
N1516 N 0.74527 0.59111 0.22421 0.0
N1517 N 0.7896 0.64475 0.21567 0.0
H1518 H 0.16268 0.9569 0.9786 0.0
H1519 H 0.09829 0.09233 0.00057 0.0
H1520 H 0.11334 0.97537 0.04195 0.0
H1521 H 0.1171 0.06686 0.92456 0.0
H1522 H 0.11068 0.05089 0.01711 0.0
H1523 H 0.15135 -0.00206 0.95881 0.0
C1524 C 0.14931 0.96936 0.9882 0.0
C1525 C 0.13911 0.9627 0.01209 0.0
C1526 C 0.11215 0.05433 0.9968 0.0
C1527 C 0.12663 0.00958 0.98989 0.0
C1528 C 0.10525 0.0781 0.98733 0.0
C1529 C 0.10648 0.08305 0.9611 0.0
C1530 C 0.12061 0.0353 0.98001 0.0
C1531 C 0.11575 0.06378 0.94492 0.0
C1532 C 0.14294 0.99275 0.97694 0.0
C1533 C 0.12188 0.97963 0.02364 0.0
N1534 N 0.12247 0.04065 0.95465 0.0
N1535 N 0.11644 0.0023 0.01258 0.0
H1536 H 0.30582 0.16064 0.08338 0.0
H1537 H 0.24183 0.28483 0.14076 0.0
H1538 H 0.30463 0.17878 0.16369 0.0
H1539 H 0.26154 0.27931 0.06112 0.0
H1540 H 0.26659 0.24649 0.1492 0.0
H1541 H 0.29107 0.20413 0.07406 0.0
C1542 C 0.30266 0.17376 0.099 0.0
C1543 C 0.3061 0.16589 0.12436 0.0
C1544 C 0.26591 0.2538 0.12991 0.0
C1545 C 0.28932 0.21546 0.11388 0.0
C1546 C 0.2518 0.27574 0.12512 0.0
C1547 C 0.24963 0.28517 0.10023 0.0
C1548 C 0.27749 0.24078 0.10957 0.0
C1549 C 0.2629 0.27268 0.08062 0.0
C1550 C 0.29435 0.19857 0.09367 0.0
C1551 C 0.30191 0.18377 0.14385 0.0
N1552 N 0.27593 0.25078 0.08562 0.0
N1553 N 0.29353 0.20754 0.1382 0.0
H1554 H 0.7867 0.32357 0.825 0.0
H1555 H 0.7615 0.21691 0.93094 0.0
H1556 H 0.80619 0.33472 0.90422 0.0
H1557 H 0.72427 0.21923 0.85758 0.0
H1558 H 0.78405 0.25648 0.92006 0.0
H1559 H 0.76963 0.28182 0.83546 0.0
C1560 C 0.78744 0.31725 0.84465 0.0
C1561 C 0.79775 0.33283 0.86381 0.0
C1562 C 0.77108 0.24815 0.90633 0.0
C1563 C 0.77821 0.28471 0.8759 0.0
C1564 C 0.75837 0.2255 0.91243 0.0
C1565 C 0.74089 0.21483 0.89517 0.0
C1566 C 0.76649 0.25993 0.88272 0.0
C1567 C 0.73742 0.22686 0.87153 0.0
C1568 C 0.77765 0.29335 0.85059 0.0
C1569 C 0.79824 0.32343 0.88889 0.0
N1570 N 0.75005 0.24873 0.86605 0.0
N1571 N 0.78857 0.29994 0.89424 0.0
H1572 H 0.41657 0.06635 0.65028 0.0
H1573 H 0.53442 0.98182 0.60831 0.0
H1574 H 0.43525 0.04974 0.57182 0.0
H1575 H 0.53163 0.0178 0.6822 0.0
H1576 H 0.49788 0.00712 0.59496 0.0
H1577 H 0.45817 0.0491 0.66314 0.0
C1578 C 0.42942 0.05924 0.63577 0.0
C1579 C 0.42226 0.0592 0.60997 0.0
C1580 C 0.50538 0.00981 0.614 0.0
C1581 C 0.46966 0.03952 0.62451 0.0
C1582 C 0.52625 0.99534 0.62162 0.0
C1583 C 0.53594 -0.0023 0.6464 0.0
C1584 C 0.4937 0.0264 0.63145 0.0
C1585 C 0.52472 0.01554 0.66288 0.0
C1586 C 0.45318 0.04952 0.64311 0.0
C1587 C 0.43977 0.04994 0.59196 0.0
N1588 N 0.50385 0.02898 0.65525 0.0
N1589 N 0.46248 0.04028 0.5996 0.0
H1590 H 0.68959 0.67322 0.33344 0.0
H1591 H 0.7317 0.77762 0.43606 0.0
H1592 H 0.69039 0.65738 0.41427 0.0
H1593 H 0.75207 0.77941 0.35638 0.0
H1594 H 0.70832 0.73767 0.42859 0.0
H1595 H 0.70428 0.71619 0.34204 0.0
C1596 C 0.69278 0.67875 0.35308 0.0
C1597 C 0.68907 0.66144 0.37317 0.0
C1598 C 0.71768 0.74705 0.41275 0.0
C1599 C 0.70593 0.71102 0.38311 0.0
C1600 C 0.73079 0.76991 0.41693 0.0
C1601 C 0.74392 0.78172 0.39681 0.0
C1602 C 0.71744 0.7363 0.38823 0.0
C1603 C 0.74238 0.77083 0.37246 0.0
C1604 C 0.70118 0.70339 0.35795 0.0
C1605 C 0.69325 0.67 0.3982 0.0
N1606 N 0.72947 0.74873 0.36889 0.0
N1607 N 0.70163 0.69422 0.40249 0.0
H1608 H 0.9756 0.9857 0.19703 0.0
H1609 H 0.0674 0.91829 0.0959 0.0
H1610 H 0.96509 0.98823 0.11554 0.0
H1611 H 0.09529 0.94613 0.16821 0.0
H1612 H 0.02474 0.9324 0.10738 0.0
H1613 H 0.01453 0.9601 0.19062 0.0
C1614 C 0.98113 0.98027 0.17788 0.0
C1615 C 0.96729 0.98904 0.15673 0.0
C1616 C 0.04014 0.93517 0.12085 0.0
C1617 C 0.01128 0.95997 0.14937 0.0
C1618 C 0.06456 0.92713 0.11435 0.0
C1619 C 0.08515 0.93149 0.13092 0.0
C1620 C 0.03607 0.94757 0.14416 0.0
C1621 C 0.08006 0.94268 0.15473 0.0
C1622 C 0.00336 0.96592 0.17425 0.0
C1623 C 0.97534 0.98188 0.1323 0.0
N1624 N 0.05601 0.9506 0.16057 0.0
N1625 N 0.99682 0.9678 0.12929 0.0
H1626 H 0.23636 0.71226 0.58877 0.0
H1627 H 0.26355 0.84413 0.66002 0.0
H1628 H 0.30549 0.72958 0.63007 0.0
H1629 H 0.18892 0.82368 0.63194 0.0
H1630 H 0.27951 0.80273 0.6466 0.0
H1631 H 0.21844 0.75306 0.60294 0.0
C1632 C 0.24766 0.72446 0.601 0.0
C1633 C 0.27253 0.71751 0.60811 0.0
C1634 C 0.25963 0.80724 0.64333 0.0
C1635 C 0.25231 0.76421 0.62403 0.0
C1636 C 0.25053 0.83098 0.65087 0.0
C1637 C 0.22485 0.83738 0.64713 0.0
C1638 C 0.24301 0.7897 0.63183 0.0
C1639 C 0.20888 0.81951 0.63519 0.0
C1640 C 0.23746 0.74777 0.60899 0.0
C1641 C 0.2863 0.73411 0.62396 0.0
N1642 N 0.21822 0.79643 0.62796 0.0
N1643 N 0.27607 0.75669 0.6312 0.0
H1644 H 0.01488 0.48939 0.30124 0.0
H1645 H 0.92355 0.41913 0.40073 0.0
H1646 H 0.02932 0.48229 0.38181 0.0
H1647 H 0.89594 0.45002 0.32956 0.0
H1648 H 0.96666 0.4309 0.38873 0.0
H1649 H 0.97577 0.46391 0.30656 0.0
C1650 C 0.01024 0.48171 0.31984 0.0
C1651 C 0.02517 0.48783 0.34117 0.0
C1652 C 0.95123 0.43489 0.3756 0.0
C1653 C 0.98084 0.4591 0.34737 0.0
C1654 C 0.92653 0.42818 0.38242 0.0
C1655 C 0.90594 0.43404 0.36634 0.0
C1656 C 0.95558 0.44766 0.35253 0.0
C1657 C 0.9112 0.44544 0.34268 0.0
C1658 C 0.98787 0.46746 0.3229 0.0
C1659 C 0.01822 0.47794 0.36495 0.0
N1660 N 0.93554 0.45221 0.33659 0.0
N1661 N 0.9965 0.46418 0.36744 0.0
H1662 H 0.56605 0.57039 0.9044 0.0
H1663 H 0.46836 0.51326 0.80261 0.0
H1664 H 0.58864 0.5525 0.82724 0.0
H1665 H 0.46246 0.50292 0.88396 0.0
H1666 H 0.50724 0.5387 0.80922 0.0
H1667 H 0.52284 0.557 0.89449 0.0
C1668 C 0.56193 0.56383 0.88525 0.0
C1669 C 0.58122 0.56208 0.86674 0.0
C1670 C 0.49709 0.53122 0.82558 0.0
C1671 C 0.53146 0.54681 0.85531 0.0
C1672 C 0.47485 0.51697 0.82186 0.0
C1673 C 0.46234 0.50598 0.84281 0.0
C1674 C 0.50641 0.53481 0.85042 0.0
C1675 C 0.47165 0.51099 0.86733 0.0
C1676 C 0.53719 0.55621 0.87965 0.0
C1677 C 0.57446 0.55385 0.84217 0.0
N1678 N 0.49316 0.52497 0.87045 0.0
N1679 N 0.55012 0.54625 0.8372 0.0
H1680 H 0.91589 0.0882 0.24575 0.0
H1681 H 0.05258 0.12827 0.28293 0.0
H1682 H 0.97198 0.10732 0.18858 0.0
H1683 H 0.9919 0.16932 0.32064 0.0
H1684 H 0.02177 0.11111 0.25291 0.0
H1685 H 0.94162 0.111 0.27771 0.0
C1686 C 0.93333 0.09752 0.23983 0.0
C1687 C 0.94196 0.09565 0.21451 0.0
C1688 C 0.01522 0.12377 0.26786 0.0
C1689 C 0.97136 0.12096 0.25084 0.0
C1690 C 0.0327 0.13341 0.2852 0.0
C1691 C 0.02482 0.15035 0.30435 0.0
C1692 C 0.98953 0.1306 0.26988 0.0
C1693 C -0.00125 0.15638 0.3061 0.0
C1694 C 0.94787 0.1105 0.25803 0.0
C1695 C 0.96461 0.10818 0.20784 0.0
N1696 N 0.98185 0.14635 0.28907 0.0
N1697 N 0.9788 0.11982 0.22602 0.0
H1698 H 0.58007 0.24167 0.08005 0.0
H1699 H 0.62518 0.20781 0.94286 0.0
H1700 H 0.60693 0.29913 0.02755 0.0
H1701 H 0.66572 0.16963 0.00362 0.0
H1702 H 0.60417 0.2346 0.97441 0.0
H1703 H 0.59984 0.20869 0.05282 0.0
C1704 C 0.59029 0.24733 0.06302 0.0
C1705 C 0.59191 0.27314 0.05602 0.0
C1706 C 0.61738 0.22004 0.98076 0.0
C1707 C 0.61351 0.23589 0.02493 0.0
C1708 C 0.62931 0.20464 0.96285 0.0
C1709 C 0.64754 0.18664 0.97059 0.0
C1710 C 0.62327 0.21716 0.00661 0.0
C1711 C 0.652 0.18348 0.99685 0.0
C1712 C 0.60148 0.2286 0.04764 0.0
C1713 C 0.60532 0.27953 0.03377 0.0
N1714 N 0.63999 0.19877 0.01407 0.0
N1715 N 0.61522 0.26099 0.01881 0.0
H1716 H 0.5496 0.93905 0.75061 0.0
H1717 H 0.49555 0.80897 0.80673 0.0
H1718 H 0.55633 0.86729 0.71098 0.0
H1719 H 0.45373 0.87961 0.81295 0.0
H1720 H 0.5285 0.83118 0.78235 0.0
H1721 H 0.52456 0.91776 0.78392 0.0
C1722 C 0.54621 0.91874 0.74916 0.0
C1723 C 0.55481 0.90489 0.72793 0.0
C1724 C 0.5123 0.84183 0.78949 0.0
C1725 C 0.52676 0.88059 0.76601 0.0
C1726 C 0.49356 0.82927 0.80353 0.0
C1727 C 0.47169 0.84244 0.81162 0.0
C1728 C 0.5094 0.86779 0.784 0.0
C1729 C 0.47016 0.86871 0.80683 0.0
C1730 C 0.53189 0.90671 0.76808 0.0
C1731 C 0.54981 0.87866 0.72692 0.0
N1732 N 0.48874 0.88056 0.79319 0.0
N1733 N 0.53609 0.86732 0.74573 0.0
H1734 H 0.88654 0.69234 0.5216 0.0
H1735 H 0.835 0.82941 0.4937 0.0
H1736 H 0.91007 0.75391 0.5709 0.0
H1737 H 0.8594 0.77872 0.4336 0.0
H1738 H 0.85702 0.80214 0.52481 0.0
H1739 H 0.86916 0.72341 0.49176 0.0
C1740 C 0.88778 0.71241 0.52632 0.0
C1741 C 0.89974 0.72059 0.54878 0.0
C1742 C 0.8578 0.79735 0.50474 0.0
C1743 C 0.87991 0.75615 0.51463 0.0
C1744 C 0.84527 0.81281 0.48701 0.0
C1745 C 0.84522 0.8062 0.46105 0.0
C1746 C 0.86968 0.77492 0.49641 0.0
C1747 C 0.85892 0.78455 0.45339 0.0
C1748 C 0.87811 0.73009 0.50913 0.0
C1749 C 0.90103 0.74687 0.55373 0.0
N1750 N 0.87019 0.76942 0.47106 0.0
N1751 N 0.89101 0.76383 0.53682 0.0
H1752 H 0.41784 0.40747 0.74864 0.0
H1753 H 0.55813 0.37543 0.7083 0.0
H1754 H 0.47824 0.39685 0.80354 0.0
H1755 H 0.49778 0.33059 0.67467 0.0
H1756 H 0.52713 0.39474 0.73697 0.0
H1757 H 0.44524 0.38809 0.71572 0.0
C1758 C 0.43669 0.40081 0.75381 0.0
C1759 C 0.44581 0.4037 0.77884 0.0
C1760 C 0.5207 0.3809 0.72305 0.0
C1761 C 0.47714 0.38263 0.74139 0.0
C1762 C 0.53829 0.37001 0.70649 0.0
C1763 C 0.53061 0.35111 0.68919 0.0
C1764 C 0.49515 0.37328 0.72202 0.0
C1765 C 0.50454 0.34493 0.68787 0.0
C1766 C 0.4522 0.38985 0.73508 0.0
C1767 C 0.47037 0.39482 0.78456 0.0
N1768 N 0.48764 0.35597 0.7042 0.0
N1769 N 0.48534 0.38508 0.76588 0.0
H1770 H 0.30989 0.69803 0.49893 0.0
H1771 H 0.43651 0.75008 0.43332 0.0
H1772 H 0.38545 0.68039 0.52636 0.0
H1773 H 0.36764 0.79495 0.4384 0.0
H1774 H 0.4152 0.71563 0.45621 0.0
H1775 H 0.32878 0.72475 0.46557 0.0
C1776 C 0.33046 0.6993 0.49758 0.0
C1777 C 0.34618 0.68722 0.51557 0.0
C1778 C 0.4047 0.73289 0.45193 0.0
C1779 C 0.36768 0.7174 0.47747 0.0
C1780 C 0.41675 0.75254 0.4388 0.0
C1781 C 0.40392 0.77561 0.43425 0.0
C1782 C 0.37952 0.73612 0.46019 0.0
C1783 C 0.37832 0.77762 0.44179 0.0
C1784 C 0.34114 0.71464 0.47866 0.0
C1785 C 0.37268 0.68961 0.51302 0.0
N1786 N 0.36696 0.75814 0.45456 0.0
N1787 N 0.38263 0.70452 0.49435 0.0
H1788 H 0.99698 0.66404 0.17435 0.0
H1789 H 0.01821 0.60962 0.31365 0.0
H1790 H 0.93567 0.64371 0.22542 0.0
H1791 H 0.06862 0.58634 0.25277 0.0
H1792 H 0.99211 0.63229 0.28271 0.0
H1793 H 0.02734 0.64358 0.20384 0.0
C1794 C 0.9899 0.65516 0.19159 0.0
C1795 C 0.96375 0.65555 0.19742 0.0
C1796 C 0.00902 0.62238 0.27619 0.0
C1797 C -0.00179 0.63302 0.23122 0.0
C1798 C 0.02408 0.60957 0.29385 0.0
C1799 C 0.04553 0.59577 0.28579 0.0
C1800 C 0.01555 0.62175 0.25028 0.0
C1801 C 0.05211 0.59655 0.25979 0.0
C1802 C 0.00718 0.64357 0.20833 0.0
C1803 C 0.95559 0.64378 0.22003 0.0
N1804 N 0.03709 0.60928 0.24285 0.0
N1805 N 0.97277 0.63329 0.2362 0.0
H1806 H 0.15975 0.32479 0.99761 0.0
H1807 H 0.11093 0.1862 0.97004 0.0
H1808 H 0.13735 0.2728 0.05741 0.0
H1809 H 0.08183 0.24752 0.92338 0.0
H1810 H 0.13054 0.21747 -0.00185 0.0
H1811 H 0.13896 0.29664 0.96628 0.0
C1812 C 0.15028 0.30767 0.00416 0.0
C1813 C 0.15033 0.30107 0.03014 0.0
C1814 C 0.11997 0.22403 0.98166 0.0
C1815 C 0.12739 0.26887 0.99461 0.0
C1816 C 0.10895 0.20624 0.96546 0.0
C1817 C 0.09458 0.21429 0.94439 0.0
C1818 C 0.11706 0.25007 0.97656 0.0
C1819 C 0.09261 0.24056 0.93954 0.0
C1820 C 0.13847 0.29173 0.98633 0.0
C1821 C 0.13775 0.2787 0.03763 0.0
N1822 N 0.10382 0.25765 0.95555 0.0
N1823 N 0.12715 0.26322 0.01991 0.0
H1824 H 0.25229 0.9161 0.07988 0.0
H1825 H 0.28306 0.05283 0.124 0.0
H1826 H 0.19485 0.96163 0.11742 0.0
H1827 H 0.32577 0.99502 0.16425 0.0
H1828 H 0.25662 0.01947 0.10523 0.0
H1829 H 0.28533 0.9447 0.09734 0.0
C1830 C 0.24668 0.93181 0.09205 0.0
C1831 C 0.2208 0.93651 0.09725 0.0
C1832 C 0.27216 0.01419 0.11779 0.0
C1833 C 0.25806 0.96927 0.11623 0.0
C1834 C 0.28737 0.03312 0.12839 0.0
C1835 C 0.30652 0.02672 0.14596 0.0
C1836 C 0.27646 0.9887 0.12431 0.0
C1837 C 0.31106 0.00077 0.15097 0.0
C1838 C 0.26546 0.94801 0.10189 0.0
C1839 C 0.21452 0.95717 0.11303 0.0
N1840 N 0.29597 0.98256 0.14027 0.0
N1841 N 0.233 0.97309 0.12155 0.0
H1842 H 0.80081 0.45051 0.87764 0.0
H1843 H 0.7055 0.5631 0.86159 0.0
H1844 H 0.80306 0.49713 0.80984 0.0
H1845 H 0.73975 0.54792 0.93489 0.0
H1846 H 0.73864 0.537 0.84139 0.0
H1847 H 0.77571 0.48375 0.89893 0.0
C1848 C 0.79624 0.46782 0.86736 0.0
C1849 C 0.80393 0.47107 0.84196 0.0
C1850 C 0.73906 0.53978 0.86185 0.0
C1851 C 0.77496 0.50869 0.8659 0.0
C1852 C 0.72018 0.55458 0.87336 0.0
C1853 C 0.71985 0.55757 0.89993 0.0
C1854 C 0.7572 0.52737 0.87712 0.0
C1855 C 0.73933 0.54614 0.91433 0.0
C1856 C 0.78205 0.48677 0.87951 0.0
C1857 C 0.79756 0.4939 0.82948 0.0
N1858 N 0.75695 0.5311 0.90278 0.0
N1859 N 0.78303 0.51168 0.84143 0.0
H1860 H 0.25396 0.07896 0.5826 0.0
H1861 H 0.23377 0.94338 0.64218 0.0
H1862 H 0.31633 0.03277 0.61016 0.0
H1863 H 0.17965 0.00287 0.65982 0.0
H1864 H 0.26181 0.97506 0.62318 0.0
H1865 H 0.22406 0.05107 0.6055 0.0
C1866 C 0.26139 0.06323 0.59371 0.0
C1867 C 0.28768 0.05806 0.59427 0.0
C1868 C 0.24378 0.98117 0.63119 0.0
C1869 C 0.25371 0.02605 0.6198 0.0
C1870 C 0.22762 0.96309 0.64181 0.0
C1871 C 0.20431 0.97051 0.65261 0.0
C1872 C 0.23646 0.00685 0.63089 0.0
C1873 C 0.19751 0.9964 0.65176 0.0
C1874 C 0.24434 0.0474 0.60673 0.0
C1875 C 0.29627 0.03749 0.60906 0.0
N1876 N 0.21349 0.01374 0.64088 0.0
N1877 N 0.2793 0.022 0.62086 0.0
H1878 H 0.68819 0.49679 0.31173 0.0
H1879 H 0.74927 0.44236 0.43961 0.0
H1880 H 0.68742 0.53873 0.38256 0.0
H1881 H 0.78329 0.43041 0.3656 0.0
H1882 H 0.71595 0.4682 0.41956 0.0
H1883 H 0.71262 0.46297 0.3326 0.0
C1884 C 0.69273 0.49869 0.33179 0.0
C1885 C 0.68602 0.52075 0.3454 0.0
C1886 C 0.73051 0.45954 0.40775 0.0
C1887 C 0.7136 0.48203 0.36927 0.0
C1888 C 0.74942 0.44468 0.41908 0.0
C1889 C 0.76922 0.43445 0.40422 0.0
C1890 C 0.73113 0.4637 0.38137 0.0
C1891 C 0.76851 0.43817 0.37774 0.0
C1892 C 0.70674 0.47944 0.34359 0.0
C1893 C 0.69247 0.52217 0.37133 0.0
N1894 N 0.74979 0.45259 0.36713 0.0
N1895 N 0.70598 0.50307 0.38244 0.0
loop_
_geom_bond_atom_site_label_1
_geom_bond_atom_site_label_2
_geom_bond_distance
_geom_bond_site_symmetry_2
_ccdc_geom_bond_type
Co0 O3 1.970 . S
Co0 N17 1.989 . S
Co0 O25 1.967 . S
Co0 O32 1.920 . S
Co1 O4 1.966 . S
Co1 N10 2.022 . S
Co1 N18 1.993 . S
Co1 O26 1.941 . S
C2 O3 1.258 . S
C2 O4 1.263 . S
O3 Co0 1.970 . S
O3 C2 1.258 . S
O4 Co1 1.966 . S
O4 C2 1.263 . S
C5 O6 1.235 . S
C5 O32 1.289 . S
O6 C5 1.235 . S
C7 C9 1.400 . S
C7 N10 1.351 . S
C7 C12 1.501 . S
C8 C9 1.387 . S
C8 N11 1.341 . S
C9 C7 1.400 . S
C9 C8 1.387 . S
N10 Co1 2.022 . S
N10 C7 1.351 . S
N10 N11 1.365 . S
N11 C8 1.341 . S
N11 N10 1.365 . S
N11 H31 0.862 . S
C12 C7 1.501 . S
C12 H13 0.961 . S
C12 H14 0.961 . S
C12 H15 0.960 1_455 S
H13 C12 0.961 . S
H14 C12 0.961 . S
H15 C12 0.960 1_655 S
C16 N17 1.342 . S
C16 C20 1.401 . S
C16 C21 1.499 . S
N17 Co0 1.989 . S
N17 C16 1.342 . S
N17 N18 1.388 . S
N18 Co1 1.993 . S
N18 N17 1.388 . S
N18 C19 1.346 . S
C19 N18 1.346 . S
C19 C20 1.396 . S
C19 C29 1.510 . S
C20 C16 1.401 . S
C20 C19 1.396 . S
C21 C16 1.499 . S
C21 H22 0.959 . S
C21 H23 0.960 . S
C21 H24 0.961 . S
H22 C21 0.959 . S
H23 C21 0.960 . S
H24 C21 0.961 . S
O25 Co0 1.967 . S
O25 C33 1.258 . S
O26 Co1 1.941 . S
O26 C33 1.266 . S
H27 C29 0.959 . S
H28 C29 0.961 . S
C29 C19 1.510 . S
C29 H27 0.959 . S
C29 H28 0.961 . S
C29 H30 0.960 . S
H30 C29 0.960 . S
H31 N11 0.862 . S
O32 Co0 1.920 . S
O32 C5 1.289 . S
C33 O25 1.258 . S
C33 O26 1.266 . S
Co34 O37 1.970 . S
Co34 N51 1.989 . S
Co34 O59 1.967 . S
Co34 O66 1.920 . S
Co35 O38 1.966 . S
Co35 N44 2.022 . S
Co35 N52 1.993 . S
Co35 O60 1.941 . S
C36 O37 1.258 . S
C36 O38 1.263 . S
O37 Co34 1.970 . S
O37 C36 1.258 . S
O38 Co35 1.966 . S
O38 C36 1.263 . S
C39 O40 1.235 . S
C39 O66 1.289 . S
O40 C39 1.235 . S
C41 C43 1.400 . S
C41 N44 1.351 . S
C41 C46 1.501 . S
C42 C43 1.387 . S
C42 N45 1.341 . S
C43 C41 1.400 . S
C43 C42 1.387 . S
N44 Co35 2.022 . S
N44 C41 1.351 . S
N44 N45 1.365 . S
N45 C42 1.341 . S
N45 N44 1.365 . S
N45 H65 0.862 . S
C46 C41 1.501 . S
C46 H47 0.961 . S
C46 H48 0.961 . S
C46 H49 0.960 . S
H47 C46 0.961 . S
H48 C46 0.961 . S
H49 C46 0.960 . S
C50 N51 1.342 . S
C50 C54 1.401 . S
C50 C55 1.499 . S
N51 Co34 1.989 . S
N51 C50 1.342 . S
N51 N52 1.388 . S
N52 Co35 1.993 . S
N52 N51 1.388 . S
N52 C53 1.346 . S
C53 N52 1.346 . S
C53 C54 1.396 . S
C53 C63 1.510 . S
C54 C50 1.401 . S
C54 C53 1.396 . S
C55 C50 1.499 . S
C55 H56 0.959 . S
C55 H57 0.960 . S
C55 H58 0.961 . S
H56 C55 0.959 . S
H57 C55 0.960 . S
H58 C55 0.961 . S
O59 Co34 1.967 . S
O59 C67 1.258 . S
O60 Co35 1.941 . S
O60 C67 1.266 . S
H61 C63 0.959 . S
H62 C63 0.961 . S
C63 C53 1.510 . S
C63 H61 0.959 . S
C63 H62 0.961 . S
C63 H64 0.960 . S
H64 C63 0.960 . S
H65 N45 0.862 . S
O66 Co34 1.920 . S
O66 C39 1.289 . S
C67 O59 1.258 . S
C67 O60 1.266 . S
Co68 O71 1.970 . S
Co68 N85 1.989 . S
Co68 O93 1.967 . S
Co68 O100 1.920 . S
Co69 O72 1.966 . S
Co69 N78 2.022 . S
Co69 N86 1.993 . S
Co69 O94 1.941 . S
C70 O71 1.258 . S
C70 O72 1.263 . S
O71 Co68 1.970 . S
O71 C70 1.258 . S
O72 Co69 1.966 . S
O72 C70 1.263 . S
C73 O74 1.235 . S
C73 O100 1.289 . S
O74 C73 1.235 . S
C75 C77 1.400 . S
C75 N78 1.351 . S
C75 C80 1.501 . S
C76 C77 1.387 . S
C76 N79 1.341 . S
C77 C75 1.400 . S
C77 C76 1.387 . S
N78 Co69 2.022 . S
N78 C75 1.351 . S
N78 N79 1.365 . S
N79 C76 1.341 . S
N79 N78 1.365 . S
N79 H99 0.862 . S
C80 C75 1.501 . S
C80 H81 0.961 . S
C80 H82 0.961 . S
C80 H83 0.960 . S
H81 C80 0.961 . S
H82 C80 0.961 . S
H83 C80 0.960 . S
C84 N85 1.342 . S
C84 C88 1.401 . S
C84 C89 1.499 . S
N85 Co68 1.989 . S
N85 C84 1.342 . S
N85 N86 1.388 . S
N86 Co69 1.993 . S
N86 N85 1.388 . S
N86 C87 1.346 . S
C87 N86 1.346 . S
C87 C88 1.396 . S
C87 C97 1.510 . S
C88 C84 1.401 . S
C88 C87 1.396 . S
C89 C84 1.499 . S
C89 H90 0.959 . S
C89 H91 0.960 . S
C89 H92 0.961 . S
H90 C89 0.959 . S
H91 C89 0.960 . S
H92 C89 0.961 . S
O93 Co68 1.967 . S
O93 C101 1.258 . S
O94 Co69 1.941 . S
O94 C101 1.266 . S
H95 C97 0.959 . S
H96 C97 0.961 . S
C97 C87 1.510 . S
C97 H95 0.959 . S
C97 H96 0.961 . S
C97 H98 0.960 . S
H98 C97 0.960 . S
H99 N79 0.862 . S
O100 Co68 1.920 . S
O100 C73 1.289 . S
C101 O93 1.258 . S
C101 O94 1.266 . S
Co102 O105 1.970 . S
Co102 N119 1.989 . S
Co102 O127 1.967 . S
Co102 O134 1.920 . S
Co103 O106 1.966 . S
Co103 N112 2.022 . S
Co103 N120 1.993 . S
Co103 O128 1.941 . S
C104 O105 1.258 . S
C104 O106 1.263 . S
O105 Co102 1.970 . S
O105 C104 1.258 . S
O106 Co103 1.966 . S
O106 C104 1.263 . S
C107 O108 1.235 . S
C107 O134 1.289 . S
O108 C107 1.235 . S
C109 C111 1.400 . S
C109 N112 1.351 . S
C109 C114 1.501 . S
C110 C111 1.387 1_455 S
C110 N113 1.341 1_455 S
C111 C109 1.400 . S
C111 C110 1.387 1_655 S
N112 Co103 2.022 . S
N112 C109 1.351 . S
N112 N113 1.365 . S
N113 C110 1.341 1_655 S
N113 N112 1.365 . S
N113 H133 0.862 1_655 S
C114 C109 1.501 . S
C114 H115 0.961 . S
C114 H116 0.961 . S
C114 H117 0.960 . S
H115 C114 0.961 . S
H116 C114 0.961 . S
H117 C114 0.960 . S
C118 N119 1.342 . S
C118 C122 1.401 . S
C118 C123 1.499 . S
N119 Co102 1.989 . S
N119 C118 1.342 . S
N119 N120 1.388 . S
N120 Co103 1.993 . S
N120 N119 1.388 . S
N120 C121 1.346 . S
C121 N120 1.346 . S
C121 C122 1.396 . S
C121 C131 1.510 . S
C122 C118 1.401 . S
C122 C121 1.396 . S
C123 C118 1.499 . S
C123 H124 0.959 . S
C123 H125 0.960 . S
C123 H126 0.961 . S
H124 C123 0.959 . S
H125 C123 0.960 . S
H126 C123 0.961 . S
O127 Co102 1.967 . S
O127 C135 1.258 . S
O128 Co103 1.941 . S
O128 C135 1.266 . S
H129 C131 0.959 . S
H130 C131 0.961 . S
C131 C121 1.510 . S
C131 H129 0.959 . S
C131 H130 0.961 . S
C131 H132 0.960 . S
H132 C131 0.960 . S
H133 N113 0.862 1_455 S
O134 Co102 1.920 . S
O134 C107 1.289 . S
C135 O127 1.258 . S
C135 O128 1.266 . S
Co136 O139 1.970 . S
Co136 N153 1.989 . S
Co136 O161 1.967 . S
Co136 O168 1.920 . S
Co137 O140 1.966 . S
Co137 N146 2.022 . S
Co137 N154 1.993 . S
Co137 O162 1.941 . S
C138 O139 1.258 . S
C138 O140 1.263 . S
O139 Co136 1.970 . S
O139 C138 1.258 . S
O140 Co137 1.966 . S
O140 C138 1.263 . S
C141 O142 1.235 . S
C141 O168 1.289 . S
O142 C141 1.235 . S
C143 C145 1.400 . S
C143 N146 1.351 . S
C143 C148 1.501 . S
C144 C145 1.387 . S
C144 N147 1.341 . S
C145 C143 1.400 . S
C145 C144 1.387 . S
N146 Co137 2.022 . S
N146 C143 1.351 . S
N146 N147 1.365 . S
N147 C144 1.341 . S
N147 N146 1.365 . S
N147 H167 0.862 . S
C148 C143 1.501 . S
C148 H149 0.961 . S
C148 H150 0.961 . S
C148 H151 0.960 . S
H149 C148 0.961 . S
H150 C148 0.961 . S
H151 C148 0.960 . S
C152 N153 1.342 . S
C152 C156 1.401 . S
C152 C157 1.499 . S
N153 Co136 1.989 . S
N153 C152 1.342 . S
N153 N154 1.388 . S
N154 Co137 1.993 . S
N154 N153 1.388 . S
N154 C155 1.346 . S
C155 N154 1.346 . S
C155 C156 1.396 . S
C155 C165 1.510 . S
C156 C152 1.401 . S
C156 C155 1.396 . S
C157 C152 1.499 . S
C157 H158 0.959 . S
C157 H159 0.960 . S
C157 H160 0.961 . S
H158 C157 0.959 . S
H159 C157 0.960 . S
H160 C157 0.961 . S
O161 Co136 1.967 . S
O161 C169 1.258 . S
O162 Co137 1.941 . S
O162 C169 1.266 . S
H163 C165 0.959 . S
H164 C165 0.961 . S
C165 C155 1.510 . S
C165 H163 0.959 . S
C165 H164 0.961 . S
C165 H166 0.960 . S
H166 C165 0.960 . S
H167 N147 0.862 . S
O168 Co136 1.920 . S
O168 C141 1.289 . S
C169 O161 1.258 . S
C169 O162 1.266 . S
Co170 O173 1.970 . S
Co170 N187 1.989 . S
Co170 O195 1.967 . S
Co170 O202 1.920 . S
Co171 O174 1.966 . S
Co171 N180 2.022 . S
Co171 N188 1.993 . S
Co171 O196 1.941 . S
C172 O173 1.258 . S
C172 O174 1.263 . S
O173 Co170 1.970 . S
O173 C172 1.258 . S
O174 Co171 1.966 . S
O174 C172 1.263 . S
C175 O176 1.235 . S
C175 O202 1.289 . S
O176 C175 1.235 . S
C177 C179 1.400 . S
C177 N180 1.351 . S
C177 C182 1.501 . S
C178 C179 1.387 . S
C178 N181 1.341 . S
C179 C177 1.400 . S
C179 C178 1.387 . S
N180 Co171 2.022 . S
N180 C177 1.351 . S
N180 N181 1.365 . S
N181 C178 1.341 . S
N181 N180 1.365 . S
N181 H201 0.862 . S
C182 C177 1.501 . S
C182 H183 0.961 . S
C182 H184 0.961 . S
C182 H185 0.960 . S
H183 C182 0.961 . S
H184 C182 0.961 . S
H185 C182 0.960 . S
C186 N187 1.342 . S
C186 C190 1.401 . S
C186 C191 1.499 . S
N187 Co170 1.989 . S
N187 C186 1.342 . S
N187 N188 1.388 . S
N188 Co171 1.993 . S
N188 N187 1.388 . S
N188 C189 1.346 . S
C189 N188 1.346 . S
C189 C190 1.396 . S
C189 C199 1.510 . S
C190 C186 1.401 . S
C190 C189 1.396 . S
C191 C186 1.499 . S
C191 H192 0.959 . S
C191 H193 0.960 . S
C191 H194 0.961 . S
H192 C191 0.959 . S
H193 C191 0.960 . S
H194 C191 0.961 . S
O195 Co170 1.967 . S
O195 C203 1.258 . S
O196 Co171 1.941 . S
O196 C203 1.266 . S
H197 C199 0.959 . S
H198 C199 0.961 . S
C199 C189 1.510 . S
C199 H197 0.959 . S
C199 H198 0.961 . S
C199 H200 0.960 . S
H200 C199 0.960 . S
H201 N181 0.862 . S
O202 Co170 1.920 . S
O202 C175 1.289 . S
C203 O195 1.258 . S
C203 O196 1.266 . S
Co204 O207 1.970 . S
Co204 N221 1.989 . S
Co204 O229 1.967 . S
Co204 O236 1.920 . S
Co205 O208 1.966 . S
Co205 N214 2.022 . S
Co205 N222 1.993 . S
Co205 O230 1.941 . S
C206 O207 1.258 . S
C206 O208 1.263 . S
O207 Co204 1.970 . S
O207 C206 1.258 . S
O208 Co205 1.966 . S
O208 C206 1.263 . S
C209 O210 1.235 . S
C209 O236 1.289 . S
O210 C209 1.235 . S
C211 C213 1.400 . S
C211 N214 1.351 . S
C211 C216 1.501 . S
C212 C213 1.387 . S
C212 N215 1.341 . S
C213 C211 1.400 . S
C213 C212 1.387 . S
N214 Co205 2.022 . S
N214 C211 1.351 . S
N214 N215 1.365 . S
N215 C212 1.341 . S
N215 N214 1.365 . S
N215 H235 0.862 . S
C216 C211 1.501 . S
C216 H217 0.961 . S
C216 H218 0.961 . S
C216 H219 0.960 1_655 S
H217 C216 0.961 . S
H218 C216 0.961 . S
H219 C216 0.960 1_455 S
C220 N221 1.342 . S
C220 C224 1.401 . S
C220 C225 1.499 . S
N221 Co204 1.989 . S
N221 C220 1.342 . S
N221 N222 1.388 . S
N222 Co205 1.993 . S
N222 N221 1.388 . S
N222 C223 1.346 . S
C223 N222 1.346 . S
C223 C224 1.396 . S
C223 C233 1.510 . S
C224 C220 1.401 . S
C224 C223 1.396 . S
C225 C220 1.499 . S
C225 H226 0.959 . S
C225 H227 0.960 . S
C225 H228 0.961 . S
H226 C225 0.959 . S
H227 C225 0.960 . S
H228 C225 0.961 . S
O229 Co204 1.967 . S
O229 C237 1.258 . S
O230 Co205 1.941 . S
O230 C237 1.266 . S
H231 C233 0.959 . S
H232 C233 0.961 . S
C233 C223 1.510 . S
C233 H231 0.959 . S
C233 H232 0.961 . S
C233 H234 0.960 . S
H234 C233 0.960 . S
H235 N215 0.862 . S
O236 Co204 1.920 . S
O236 C209 1.289 . S
C237 O229 1.258 . S
C237 O230 1.266 . S
Co238 O241 1.970 . S
Co238 N255 1.989 . S
Co238 O263 1.967 . S
Co238 O270 1.920 . S
Co239 O242 1.966 . S
Co239 N248 2.022 . S
Co239 N256 1.993 . S
Co239 O264 1.941 . S
C240 O241 1.258 . S
C240 O242 1.263 . S
O241 Co238 1.970 . S
O241 C240 1.258 . S
O242 Co239 1.966 . S
O242 C240 1.263 . S
C243 O244 1.235 . S
C243 O270 1.289 . S
O244 C243 1.235 . S
C245 C247 1.400 . S
C245 N248 1.351 . S
C245 C250 1.501 . S
C246 C247 1.387 1_655 S
C246 N249 1.341 1_655 S
C247 C245 1.400 . S
C247 C246 1.387 1_455 S
N248 Co239 2.022 . S
N248 C245 1.351 . S
N248 N249 1.365 . S
N249 C246 1.341 1_455 S
N249 N248 1.365 . S
N249 H269 0.862 1_455 S
C250 C245 1.501 . S
C250 H251 0.961 . S
C250 H252 0.961 . S
C250 H253 0.960 . S
H251 C250 0.961 . S
H252 C250 0.961 . S
H253 C250 0.960 . S
C254 N255 1.342 . S
C254 C258 1.401 . S
C254 C259 1.499 . S
N255 Co238 1.989 . S
N255 C254 1.342 . S
N255 N256 1.388 . S
N256 Co239 1.993 . S
N256 N255 1.388 . S
N256 C257 1.346 . S
C257 N256 1.346 . S
C257 C258 1.396 . S
C257 C267 1.510 . S
C258 C254 1.401 . S
C258 C257 1.396 . S
C259 C254 1.499 . S
C259 H260 0.959 . S
C259 H261 0.960 . S
C259 H262 0.961 . S
H260 C259 0.959 . S
H261 C259 0.960 . S
H262 C259 0.961 . S
O263 Co238 1.967 . S
O263 C271 1.258 . S
O264 Co239 1.941 . S
O264 C271 1.266 . S
H265 C267 0.959 . S
H266 C267 0.961 . S
C267 C257 1.510 . S
C267 H265 0.959 . S
C267 H266 0.961 . S
C267 H268 0.960 . S
H268 C267 0.960 . S
H269 N249 0.862 1_655 S
O270 Co238 1.920 . S
O270 C243 1.289 . S
C271 O263 1.258 . S
C271 O264 1.266 . S
Co272 O275 1.970 . S
Co272 N289 1.989 . S
Co272 O297 1.967 . S
Co272 O304 1.920 . S
Co273 O276 1.966 . S
Co273 N282 2.022 . S
Co273 N290 1.993 . S
Co273 O298 1.941 . S
C274 O275 1.258 . S
C274 O276 1.263 . S
O275 Co272 1.970 . S
O275 C274 1.258 . S
O276 Co273 1.966 . S
O276 C274 1.263 . S
C277 O278 1.235 . S
C277 O304 1.289 . S
O278 C277 1.235 . S
C279 C281 1.400 . S
C279 N282 1.351 . S
C279 C284 1.501 . S
C280 C281 1.387 . S
C280 N283 1.341 . S
C281 C279 1.400 . S
C281 C280 1.387 . S
N282 Co273 2.022 . S
N282 C279 1.351 . S
N282 N283 1.365 . S
N283 C280 1.341 . S
N283 N282 1.365 . S
N283 H303 0.862 . S
C284 C279 1.501 . S
C284 H285 0.961 . S
C284 H286 0.961 . S
C284 H287 0.960 1_545 S
H285 C284 0.961 . S
H286 C284 0.961 . S
H287 C284 0.960 1_565 S
C288 N289 1.342 . S
C288 C292 1.401 . S
C288 C293 1.499 . S
N289 Co272 1.989 . S
N289 C288 1.342 . S
N289 N290 1.388 . S
N290 Co273 1.993 . S
N290 N289 1.388 . S
N290 C291 1.346 . S
C291 N290 1.346 . S
C291 C292 1.396 . S
C291 C301 1.510 . S
C292 C288 1.401 . S
C292 C291 1.396 . S
C293 C288 1.499 . S
C293 H294 0.959 . S
C293 H295 0.960 . S
C293 H296 0.961 . S
H294 C293 0.959 . S
H295 C293 0.960 . S
H296 C293 0.961 . S
O297 Co272 1.967 . S
O297 C305 1.258 . S
O298 Co273 1.941 . S
O298 C305 1.266 . S
H299 C301 0.959 . S
H300 C301 0.961 . S
C301 C291 1.510 . S
C301 H299 0.959 . S
C301 H300 0.961 . S
C301 H302 0.960 . S
H302 C301 0.960 . S
H303 N283 0.862 . S
O304 Co272 1.920 . S
O304 C277 1.289 . S
C305 O297 1.258 . S
C305 O298 1.266 . S
Co306 O309 1.970 . S
Co306 N323 1.989 . S
Co306 O331 1.967 . S
Co306 O338 1.920 . S
Co307 O310 1.966 . S
Co307 N316 2.022 . S
Co307 N324 1.993 . S
Co307 O332 1.941 . S
C308 O309 1.258 . S
C308 O310 1.263 . S
O309 Co306 1.970 . S
O309 C308 1.258 . S
O310 Co307 1.966 . S
O310 C308 1.263 . S
C311 O312 1.235 . S
C311 O338 1.289 . S
O312 C311 1.235 . S
C313 C315 1.400 . S
C313 N316 1.351 . S
C313 C318 1.501 . S
C314 C315 1.387 1_554 S
C314 N317 1.341 1_554 S
C315 C313 1.400 . S
C315 C314 1.387 1_556 S
N316 Co307 2.022 . S
N316 C313 1.351 . S
N316 N317 1.365 . S
N317 C314 1.341 1_556 S
N317 N316 1.365 . S
N317 H337 0.862 1_556 S
C318 C313 1.501 . S
C318 H319 0.961 . S
C318 H320 0.961 . S
C318 H321 0.960 . S
H319 C318 0.961 . S
H320 C318 0.961 . S
H321 C318 0.960 . S
C322 N323 1.342 . S
C322 C326 1.401 . S
C322 C327 1.499 . S
N323 Co306 1.989 . S
N323 C322 1.342 . S
N323 N324 1.388 . S
N324 Co307 1.993 . S
N324 N323 1.388 . S
N324 C325 1.346 . S
C325 N324 1.346 . S
C325 C326 1.396 . S
C325 C335 1.510 . S
C326 C322 1.401 . S
C326 C325 1.396 . S
C327 C322 1.499 . S
C327 H328 0.959 . S
C327 H329 0.960 . S
C327 H330 0.961 . S
H328 C327 0.959 . S
H329 C327 0.960 . S
H330 C327 0.961 . S
O331 Co306 1.967 . S
O331 C339 1.258 . S
O332 Co307 1.941 . S
O332 C339 1.266 . S
H333 C335 0.959 . S
H334 C335 0.961 . S
C335 C325 1.510 . S
C335 H333 0.959 . S
C335 H334 0.961 . S
C335 H336 0.960 . S
H336 C335 0.960 . S
H337 N317 0.862 1_554 S
O338 Co306 1.920 . S
O338 C311 1.289 . S
C339 O331 1.258 . S
C339 O332 1.266 . S
Co340 O343 1.970 . S
Co340 N357 1.989 . S
Co340 O365 1.967 . S
Co340 O372 1.920 . S
Co341 O344 1.966 . S
Co341 N350 2.022 . S
Co341 N358 1.993 . S
Co341 O366 1.941 . S
C342 O343 1.258 . S
C342 O344 1.263 . S
O343 Co340 1.970 . S
O343 C342 1.258 . S
O344 Co341 1.966 . S
O344 C342 1.263 . S
C345 O346 1.235 . S
C345 O372 1.289 . S
O346 C345 1.235 . S
C347 C349 1.400 . S
C347 N350 1.351 . S
C347 C352 1.501 . S
C348 C349 1.387 . S
C348 N351 1.341 . S
C349 C347 1.400 . S
C349 C348 1.387 . S
N350 Co341 2.022 . S
N350 C347 1.351 . S
N350 N351 1.365 . S
N351 C348 1.341 . S
N351 N350 1.365 . S
N351 H371 0.862 . S
C352 C347 1.501 . S
C352 H353 0.961 . S
C352 H354 0.961 . S
C352 H355 0.960 1_565 S
H353 C352 0.961 . S
H354 C352 0.961 . S
H355 C352 0.960 1_545 S
C356 N357 1.342 . S
C356 C360 1.401 . S
C356 C361 1.499 . S
N357 Co340 1.989 . S
N357 C356 1.342 . S
N357 N358 1.388 . S
N358 Co341 1.993 . S
N358 N357 1.388 . S
N358 C359 1.346 . S
C359 N358 1.346 . S
C359 C360 1.396 . S
C359 C369 1.510 . S
C360 C356 1.401 . S
C360 C359 1.396 . S
C361 C356 1.499 . S
C361 H362 0.959 . S
C361 H363 0.960 . S
C361 H364 0.961 . S
H362 C361 0.959 . S
H363 C361 0.960 . S
H364 C361 0.961 . S
O365 Co340 1.967 . S
O365 C373 1.258 . S
O366 Co341 1.941 . S
O366 C373 1.266 . S
H367 C369 0.959 . S
H368 C369 0.961 . S
C369 C359 1.510 . S
C369 H367 0.959 . S
C369 H368 0.961 . S
C369 H370 0.960 . S
H370 C369 0.960 . S
H371 N351 0.862 . S
O372 Co340 1.920 . S
O372 C345 1.289 . S
C373 O365 1.258 . S
C373 O366 1.266 . S
Co374 O377 1.970 . S
Co374 N391 1.989 . S
Co374 O399 1.967 . S
Co374 O406 1.920 . S
Co375 O378 1.966 . S
Co375 N384 2.022 . S
Co375 N392 1.993 . S
Co375 O400 1.941 . S
C376 O377 1.258 . S
C376 O378 1.263 . S
O377 Co374 1.970 . S
O377 C376 1.258 . S
O378 Co375 1.966 . S
O378 C376 1.263 . S
C379 O380 1.235 . S
C379 O406 1.289 . S
O380 C379 1.235 . S
C381 C383 1.400 . S
C381 N384 1.351 . S
C381 C386 1.501 . S
C382 C383 1.387 . S
C382 N385 1.341 . S
C383 C381 1.400 . S
C383 C382 1.387 . S
N384 Co375 2.022 . S
N384 C381 1.351 . S
N384 N385 1.365 . S
N385 C382 1.341 . S
N385 N384 1.365 . S
N385 H405 0.862 . S
C386 C381 1.501 . S
C386 H387 0.961 . S
C386 H388 0.961 . S
C386 H389 0.960 . S
H387 C386 0.961 . S
H388 C386 0.961 . S
H389 C386 0.960 . S
C390 N391 1.342 . S
C390 C394 1.401 . S
C390 C395 1.499 . S
N391 Co374 1.989 . S
N391 C390 1.342 . S
N391 N392 1.388 . S
N392 Co375 1.993 . S
N392 N391 1.388 . S
N392 C393 1.346 . S
C393 N392 1.346 . S
C393 C394 1.396 . S
C393 C403 1.510 . S
C394 C390 1.401 . S
C394 C393 1.396 . S
C395 C390 1.499 . S
C395 H396 0.959 . S
C395 H397 0.960 . S
C395 H398 0.961 . S
H396 C395 0.959 . S
H397 C395 0.960 . S
H398 C395 0.961 . S
O399 Co374 1.967 . S
O399 C407 1.258 . S
O400 Co375 1.941 . S
O400 C407 1.266 . S
H401 C403 0.959 . S
H402 C403 0.961 . S
C403 C393 1.510 . S
C403 H401 0.959 . S
C403 H402 0.961 . S
C403 H404 0.960 . S
H404 C403 0.960 . S
H405 N385 0.862 . S
O406 Co374 1.920 . S
O406 C379 1.289 . S
C407 O399 1.258 . S
C407 O400 1.266 . S
Co408 O411 1.970 . S
Co408 N425 1.989 . S
Co408 O433 1.967 . S
Co408 O440 1.920 . S
Co409 O412 1.966 . S
Co409 N418 2.022 . S
Co409 N426 1.993 . S
Co409 O434 1.941 . S
C410 O411 1.258 . S
C410 O412 1.263 . S
O411 Co408 1.970 . S
O411 C410 1.258 . S
O412 Co409 1.966 . S
O412 C410 1.263 . S
C413 O414 1.235 . S
C413 O440 1.289 . S
O414 C413 1.235 . S
C415 C417 1.400 . S
C415 N418 1.351 . S
C415 C420 1.501 . S
C416 C417 1.387 . S
C416 N419 1.341 . S
C417 C415 1.400 . S
C417 C416 1.387 . S
N418 Co409 2.022 . S
N418 C415 1.351 . S
N418 N419 1.365 . S
N419 C416 1.341 . S
N419 N418 1.365 . S
N419 H439 0.862 . S
C420 C415 1.501 . S
C420 H421 0.961 . S
C420 H422 0.961 . S
C420 H423 0.960 . S
H421 C420 0.961 . S
H422 C420 0.961 . S
H423 C420 0.960 . S
C424 N425 1.342 . S
C424 C428 1.401 . S
C424 C429 1.499 . S
N425 Co408 1.989 . S
N425 C424 1.342 . S
N425 N426 1.388 . S
N426 Co409 1.993 . S
N426 N425 1.388 . S
N426 C427 1.346 . S
C427 N426 1.346 . S
C427 C428 1.396 . S
C427 C437 1.510 . S
C428 C424 1.401 . S
C428 C427 1.396 . S
C429 C424 1.499 . S
C429 H430 0.959 . S
C429 H431 0.960 . S
C429 H432 0.961 . S
H430 C429 0.959 . S
H431 C429 0.960 . S
H432 C429 0.961 . S
O433 Co408 1.967 . S
O433 C441 1.258 . S
O434 Co409 1.941 . S
O434 C441 1.266 . S
H435 C437 0.959 . S
H436 C437 0.961 . S
C437 C427 1.510 . S
C437 H435 0.959 . S
C437 H436 0.961 . S
C437 H438 0.960 . S
H438 C437 0.960 . S
H439 N419 0.862 . S
O440 Co408 1.920 . S
O440 C413 1.289 . S
C441 O433 1.258 . S
C441 O434 1.266 . S
Co442 O445 1.970 . S
Co442 N459 1.989 . S
Co442 O467 1.967 . S
Co442 O474 1.920 . S
Co443 O446 1.966 . S
Co443 N452 2.022 . S
Co443 N460 1.993 . S
Co443 O468 1.941 . S
C444 O445 1.258 . S
C444 O446 1.263 . S
O445 Co442 1.970 . S
O445 C444 1.258 . S
O446 Co443 1.966 . S
O446 C444 1.263 . S
C447 O448 1.235 . S
C447 O474 1.289 . S
O448 C447 1.235 . S
C449 C451 1.400 . S
C449 N452 1.351 . S
C449 C454 1.501 . S
C450 C451 1.387 . S
C450 N453 1.341 . S
C451 C449 1.400 . S
C451 C450 1.387 . S
N452 Co443 2.022 . S
N452 C449 1.351 . S
N452 N453 1.365 . S
N453 C450 1.341 . S
N453 N452 1.365 . S
N453 H473 0.862 . S
C454 C449 1.501 . S
C454 H455 0.961 . S
C454 H456 0.961 . S
C454 H457 0.960 . S
H455 C454 0.961 . S
H456 C454 0.961 . S
H457 C454 0.960 . S
C458 N459 1.342 . S
C458 C462 1.401 . S
C458 C463 1.499 . S
N459 Co442 1.989 . S
N459 C458 1.342 . S
N459 N460 1.388 . S
N460 Co443 1.993 . S
N460 N459 1.388 . S
N460 C461 1.346 . S
C461 N460 1.346 . S
C461 C462 1.396 . S
C461 C471 1.510 . S
C462 C458 1.401 . S
C462 C461 1.396 . S
C463 C458 1.499 . S
C463 H464 0.959 . S
C463 H465 0.960 . S
C463 H466 0.961 . S
H464 C463 0.959 . S
H465 C463 0.960 . S
H466 C463 0.961 . S
O467 Co442 1.967 . S
O467 C475 1.258 . S
O468 Co443 1.941 . S
O468 C475 1.266 . S
H469 C471 0.959 . S
H470 C471 0.961 . S
C471 C461 1.510 . S
C471 H469 0.959 . S
C471 H470 0.961 . S
C471 H472 0.960 . S
H472 C471 0.960 . S
H473 N453 0.862 . S
O474 Co442 1.920 . S
O474 C447 1.289 . S
C475 O467 1.258 . S
C475 O468 1.266 . S
Co476 O479 1.970 . S
Co476 N493 1.989 . S
Co476 O501 1.967 . S
Co476 O508 1.920 . S
Co477 O480 1.966 . S
Co477 N486 2.022 . S
Co477 N494 1.993 . S
Co477 O502 1.941 . S
C478 O479 1.258 . S
C478 O480 1.263 . S
O479 Co476 1.970 . S
O479 C478 1.258 . S
O480 Co477 1.966 . S
O480 C478 1.263 . S
C481 O482 1.235 . S
C481 O508 1.289 . S
O482 C481 1.235 . S
C483 C485 1.400 . S
C483 N486 1.351 . S
C483 C488 1.501 . S
C484 C485 1.387 . S
C484 N487 1.341 . S
C485 C483 1.400 . S
C485 C484 1.387 . S
N486 Co477 2.022 . S
N486 C483 1.351 . S
N486 N487 1.365 . S
N487 C484 1.341 . S
N487 N486 1.365 . S
N487 H507 0.862 . S
C488 C483 1.501 . S
C488 H489 0.961 . S
C488 H490 0.961 . S
C488 H491 0.960 . S
H489 C488 0.961 . S
H490 C488 0.961 . S
H491 C488 0.960 . S
C492 N493 1.342 . S
C492 C496 1.401 . S
C492 C497 1.499 . S
N493 Co476 1.989 . S
N493 C492 1.342 . S
N493 N494 1.388 . S
N494 Co477 1.993 . S
N494 N493 1.388 . S
N494 C495 1.346 . S
C495 N494 1.346 . S
C495 C496 1.396 . S
C495 C505 1.510 . S
C496 C492 1.401 . S
C496 C495 1.396 . S
C497 C492 1.499 . S
C497 H498 0.959 . S
C497 H499 0.960 . S
C497 H500 0.961 . S
H498 C497 0.959 . S
H499 C497 0.960 . S
H500 C497 0.961 . S
O501 Co476 1.967 . S
O501 C509 1.258 . S
O502 Co477 1.941 . S
O502 C509 1.266 . S
H503 C505 0.959 . S
H504 C505 0.961 . S
C505 C495 1.510 . S
C505 H503 0.959 . S
C505 H504 0.961 . S
C505 H506 0.960 . S
H506 C505 0.960 . S
H507 N487 0.862 . S
O508 Co476 1.920 . S
O508 C481 1.289 . S
C509 O501 1.258 . S
C509 O502 1.266 . S
Co510 O513 1.970 . S
Co510 N527 1.989 . S
Co510 O535 1.967 . S
Co510 O542 1.920 . S
Co511 O514 1.966 . S
Co511 N520 2.022 . S
Co511 N528 1.993 . S
Co511 O536 1.941 . S
C512 O513 1.258 . S
C512 O514 1.263 . S
O513 Co510 1.970 . S
O513 C512 1.258 . S
O514 Co511 1.966 . S
O514 C512 1.263 . S
C515 O516 1.235 . S
C515 O542 1.289 . S
O516 C515 1.235 . S
C517 C519 1.400 . S
C517 N520 1.351 . S
C517 C522 1.501 . S
C518 C519 1.387 1_556 S
C518 N521 1.341 1_556 S
C519 C517 1.400 . S
C519 C518 1.387 1_554 S
N520 Co511 2.022 . S
N520 C517 1.351 . S
N520 N521 1.365 . S
N521 C518 1.341 1_554 S
N521 N520 1.365 . S
N521 H541 0.862 1_554 S
C522 C517 1.501 . S
C522 H523 0.961 . S
C522 H524 0.961 . S
C522 H525 0.960 . S
H523 C522 0.961 . S
H524 C522 0.961 . S
H525 C522 0.960 . S
C526 N527 1.342 . S
C526 C530 1.401 . S
C526 C531 1.499 . S
N527 Co510 1.989 . S
N527 C526 1.342 . S
N527 N528 1.388 . S
N528 Co511 1.993 . S
N528 N527 1.388 . S
N528 C529 1.346 . S
C529 N528 1.346 . S
C529 C530 1.396 . S
C529 C539 1.510 . S
C530 C526 1.401 . S
C530 C529 1.396 . S
C531 C526 1.499 . S
C531 H532 0.959 . S
C531 H533 0.960 . S
C531 H534 0.961 . S
H532 C531 0.959 . S
H533 C531 0.960 . S
H534 C531 0.961 . S
O535 Co510 1.967 . S
O535 C543 1.258 . S
O536 Co511 1.941 . S
O536 C543 1.266 . S
H537 C539 0.959 . S
H538 C539 0.961 . S
C539 C529 1.510 . S
C539 H537 0.959 . S
C539 H538 0.961 . S
C539 H540 0.960 . S
H540 C539 0.960 . S
H541 N521 0.862 1_556 S
O542 Co510 1.920 . S
O542 C515 1.289 . S
C543 O535 1.258 . S
C543 O536 1.266 . S
Co544 O547 1.970 . S
Co544 N561 1.989 . S
Co544 O569 1.967 . S
Co544 O576 1.920 . S
Co545 O548 1.966 . S
Co545 N554 2.022 . S
Co545 N562 1.993 . S
Co545 O570 1.941 . S
C546 O547 1.258 . S
C546 O548 1.263 . S
O547 Co544 1.970 . S
O547 C546 1.258 . S
O548 Co545 1.966 . S
O548 C546 1.263 . S
C549 O550 1.235 . S
C549 O576 1.289 . S
O550 C549 1.235 . S
C551 C553 1.400 . S
C551 N554 1.351 . S
C551 C556 1.501 . S
C552 C553 1.387 . S
C552 N555 1.341 . S
C553 C551 1.400 . S
C553 C552 1.387 . S
N554 Co545 2.022 . S
N554 C551 1.351 . S
N554 N555 1.365 . S
N555 C552 1.341 . S
N555 N554 1.365 . S
N555 H575 0.862 . S
C556 C551 1.501 . S
C556 H557 0.961 . S
C556 H558 0.961 . S
C556 H559 0.960 1_554 S
H557 C556 0.961 . S
H558 C556 0.961 . S
H559 C556 0.960 1_556 S
C560 N561 1.342 . S
C560 C564 1.401 . S
C560 C565 1.499 . S
N561 Co544 1.989 . S
N561 C560 1.342 . S
N561 N562 1.388 . S
N562 Co545 1.993 . S
N562 N561 1.388 . S
N562 C563 1.346 . S
C563 N562 1.346 . S
C563 C564 1.396 . S
C563 C573 1.510 . S
C564 C560 1.401 . S
C564 C563 1.396 . S
C565 C560 1.499 . S
C565 H566 0.959 . S
C565 H567 0.960 . S
C565 H568 0.961 . S
H566 C565 0.959 . S
H567 C565 0.960 . S
H568 C565 0.961 . S
O569 Co544 1.967 . S
O569 C577 1.258 . S
O570 Co545 1.941 . S
O570 C577 1.266 . S
H571 C573 0.959 . S
H572 C573 0.961 . S
C573 C563 1.510 . S
C573 H571 0.959 . S
C573 H572 0.961 . S
C573 H574 0.960 . S
H574 C573 0.960 . S
H575 N555 0.862 . S
O576 Co544 1.920 . S
O576 C549 1.289 . S
C577 O569 1.258 . S
C577 O570 1.266 . S
Co578 O581 1.970 . S
Co578 N595 1.989 . S
Co578 O603 1.967 . S
Co578 O610 1.920 . S
Co579 O582 1.966 . S
Co579 N588 2.022 . S
Co579 N596 1.993 . S
Co579 O604 1.941 . S
C580 O581 1.258 . S
C580 O582 1.263 . S
O581 Co578 1.970 . S
O581 C580 1.258 . S
O582 Co579 1.966 . S
O582 C580 1.263 . S
C583 O584 1.235 . S
C583 O610 1.289 . S
O584 C583 1.235 . S
C585 C587 1.400 . S
C585 N588 1.351 . S
C585 C590 1.501 . S
C586 C587 1.387 . S
C586 N589 1.341 . S
C587 C585 1.400 . S
C587 C586 1.387 . S
N588 Co579 2.022 . S
N588 C585 1.351 . S
N588 N589 1.365 . S
N589 C586 1.341 . S
N589 N588 1.365 . S
N589 H609 0.862 . S
C590 C585 1.501 . S
C590 H591 0.961 . S
C590 H592 0.961 . S
C590 H593 0.960 1_556 S
H591 C590 0.961 . S
H592 C590 0.961 . S
H593 C590 0.960 1_554 S
C594 N595 1.342 . S
C594 C598 1.401 . S
C594 C599 1.499 . S
N595 Co578 1.989 . S
N595 C594 1.342 . S
N595 N596 1.388 . S
N596 Co579 1.993 . S
N596 N595 1.388 . S
N596 C597 1.346 . S
C597 N596 1.346 . S
C597 C598 1.396 . S
C597 C607 1.510 . S
C598 C594 1.401 . S
C598 C597 1.396 . S
C599 C594 1.499 . S
C599 H600 0.959 . S
C599 H601 0.960 . S
C599 H602 0.961 . S
H600 C599 0.959 . S
H601 C599 0.960 . S
H602 C599 0.961 . S
O603 Co578 1.967 . S
O603 C611 1.258 . S
O604 Co579 1.941 . S
O604 C611 1.266 . S
H605 C607 0.959 . S
H606 C607 0.961 . S
C607 C597 1.510 . S
C607 H605 0.959 . S
C607 H606 0.961 . S
C607 H608 0.960 . S
H608 C607 0.960 . S
H609 N589 0.862 . S
O610 Co578 1.920 . S
O610 C583 1.289 . S
C611 O603 1.258 . S
C611 O604 1.266 . S
Co612 O615 1.970 . S
Co612 N629 1.989 . S
Co612 O637 1.967 . S
Co612 O644 1.920 . S
Co613 O616 1.966 . S
Co613 N622 2.022 . S
Co613 N630 1.993 . S
Co613 O638 1.941 . S
C614 O615 1.258 . S
C614 O616 1.263 . S
O615 Co612 1.970 . S
O615 C614 1.258 . S
O616 Co613 1.966 . S
O616 C614 1.263 . S
C617 O618 1.235 . S
C617 O644 1.289 . S
O618 C617 1.235 . S
C619 C621 1.400 . S
C619 N622 1.351 . S
C619 C624 1.501 . S
C620 C621 1.387 1_545 S
C620 N623 1.341 1_545 S
C621 C619 1.400 . S
C621 C620 1.387 1_565 S
N622 Co613 2.022 . S
N622 C619 1.351 . S
N622 N623 1.365 . S
N623 C620 1.341 1_565 S
N623 N622 1.365 . S
N623 H643 0.862 1_565 S
C624 C619 1.501 . S
C624 H625 0.961 . S
C624 H626 0.961 . S
C624 H627 0.960 . S
H625 C624 0.961 . S
H626 C624 0.961 . S
H627 C624 0.960 . S
C628 N629 1.342 . S
C628 C632 1.401 . S
C628 C633 1.499 . S
N629 Co612 1.989 . S
N629 C628 1.342 . S
N629 N630 1.388 . S
N630 Co613 1.993 . S
N630 N629 1.388 . S
N630 C631 1.346 . S
C631 N630 1.346 . S
C631 C632 1.396 . S
C631 C641 1.510 . S
C632 C628 1.401 . S
C632 C631 1.396 . S
C633 C628 1.499 . S
C633 H634 0.959 . S
C633 H635 0.960 . S
C633 H636 0.961 . S
H634 C633 0.959 . S
H635 C633 0.960 . S
H636 C633 0.961 . S
O637 Co612 1.967 . S
O637 C645 1.258 . S
O638 Co613 1.941 . S
O638 C645 1.266 . S
H639 C641 0.959 . S
H640 C641 0.961 . S
C641 C631 1.510 . S
C641 H639 0.959 . S
C641 H640 0.961 . S
C641 H642 0.960 . S
H642 C641 0.960 . S
H643 N623 0.862 1_545 S
O644 Co612 1.920 . S
O644 C617 1.289 . S
C645 O637 1.258 . S
C645 O638 1.266 . S
Co646 O649 1.970 . S
Co646 N663 1.989 . S
Co646 O671 1.967 . S
Co646 O678 1.920 . S
Co647 O650 1.966 . S
Co647 N656 2.022 . S
Co647 N664 1.993 . S
Co647 O672 1.941 . S
C648 O649 1.258 . S
C648 O650 1.263 . S
O649 Co646 1.970 . S
O649 C648 1.258 . S
O650 Co647 1.966 . S
O650 C648 1.263 . S
C651 O652 1.235 . S
C651 O678 1.289 . S
O652 C651 1.235 . S
C653 C655 1.400 . S
C653 N656 1.351 . S
C653 C658 1.501 . S
C654 C655 1.387 . S
C654 N657 1.341 . S
C655 C653 1.400 . S
C655 C654 1.387 . S
N656 Co647 2.022 . S
N656 C653 1.351 . S
N656 N657 1.365 . S
N657 C654 1.341 . S
N657 N656 1.365 . S
N657 H677 0.862 . S
C658 C653 1.501 . S
C658 H659 0.961 . S
C658 H660 0.961 . S
C658 H661 0.960 . S
H659 C658 0.961 . S
H660 C658 0.961 . S
H661 C658 0.960 . S
C662 N663 1.342 . S
C662 C666 1.401 . S
C662 C667 1.499 . S
N663 Co646 1.989 . S
N663 C662 1.342 . S
N663 N664 1.388 . S
N664 Co647 1.993 . S
N664 N663 1.388 . S
N664 C665 1.346 . S
C665 N664 1.346 . S
C665 C666 1.396 . S
C665 C675 1.510 . S
C666 C662 1.401 . S
C666 C665 1.396 . S
C667 C662 1.499 . S
C667 H668 0.959 . S
C667 H669 0.960 . S
C667 H670 0.961 . S
H668 C667 0.959 . S
H669 C667 0.960 . S
H670 C667 0.961 . S
O671 Co646 1.967 . S
O671 C679 1.258 . S
O672 Co647 1.941 . S
O672 C679 1.266 . S
H673 C675 0.959 . S
H674 C675 0.961 . S
C675 C665 1.510 . S
C675 H673 0.959 . S
C675 H674 0.961 . S
C675 H676 0.960 . S
H676 C675 0.960 . S
H677 N657 0.862 . S
O678 Co646 1.920 . S
O678 C651 1.289 . S
C679 O671 1.258 . S
C679 O672 1.266 . S
Co680 O683 1.970 . S
Co680 N697 1.989 . S
Co680 O705 1.967 . S
Co680 O712 1.920 . S
Co681 O684 1.966 . S
Co681 N690 2.022 . S
Co681 N698 1.993 . S
Co681 O706 1.941 . S
C682 O683 1.258 . S
C682 O684 1.263 . S
O683 Co680 1.970 . S
O683 C682 1.258 . S
O684 Co681 1.966 . S
O684 C682 1.263 . S
C685 O686 1.235 . S
C685 O712 1.289 . S
O686 C685 1.235 . S
C687 C689 1.400 . S
C687 N690 1.351 . S
C687 C692 1.501 . S
C688 C689 1.387 1_565 S
C688 N691 1.341 1_565 S
C689 C687 1.400 . S
C689 C688 1.387 1_545 S
N690 Co681 2.022 . S
N690 C687 1.351 . S
N690 N691 1.365 . S
N691 C688 1.341 1_545 S
N691 N690 1.365 . S
N691 H711 0.862 1_545 S
C692 C687 1.501 . S
C692 H693 0.961 . S
C692 H694 0.961 . S
C692 H695 0.960 . S
H693 C692 0.961 . S
H694 C692 0.961 . S
H695 C692 0.960 . S
C696 N697 1.342 . S
C696 C700 1.401 . S
C696 C701 1.499 . S
N697 Co680 1.989 . S
N697 C696 1.342 . S
N697 N698 1.388 . S
N698 Co681 1.993 . S
N698 N697 1.388 . S
N698 C699 1.346 . S
C699 N698 1.346 . S
C699 C700 1.396 . S
C699 C709 1.510 . S
C700 C696 1.401 . S
C700 C699 1.396 . S
C701 C696 1.499 . S
C701 H702 0.959 . S
C701 H703 0.960 . S
C701 H704 0.961 . S
H702 C701 0.959 . S
H703 C701 0.960 . S
H704 C701 0.961 . S
O705 Co680 1.967 . S
O705 C713 1.258 . S
O706 Co681 1.941 . S
O706 C713 1.266 . S
H707 C709 0.959 . S
H708 C709 0.961 . S
C709 C699 1.510 . S
C709 H707 0.959 . S
C709 H708 0.961 . S
C709 H710 0.960 . S
H710 C709 0.960 . S
H711 N691 0.862 1_565 S
O712 Co680 1.920 . S
O712 C685 1.289 . S
C713 O705 1.258 . S
C713 O706 1.266 . S
Co714 O717 1.970 . S
Co714 N731 1.989 . S
Co714 O739 1.967 . S
Co714 O746 1.920 . S
Co715 O718 1.966 . S
Co715 N724 2.022 . S
Co715 N732 1.993 . S
Co715 O740 1.941 . S
C716 O717 1.258 . S
C716 O718 1.263 . S
O717 Co714 1.970 . S
O717 C716 1.258 . S
O718 Co715 1.966 . S
O718 C716 1.263 . S
C719 O720 1.235 . S
C719 O746 1.289 . S
O720 C719 1.235 . S
C721 C723 1.400 . S
C721 N724 1.351 . S
C721 C726 1.501 . S
C722 C723 1.387 . S
C722 N725 1.341 . S
C723 C721 1.400 . S
C723 C722 1.387 . S
N724 Co715 2.022 . S
N724 C721 1.351 . S
N724 N725 1.365 . S
N725 C722 1.341 . S
N725 N724 1.365 . S
N725 H745 0.862 . S
C726 C721 1.501 . S
C726 H727 0.961 . S
C726 H728 0.961 . S
C726 H729 0.960 . S
H727 C726 0.961 . S
H728 C726 0.961 . S
H729 C726 0.960 . S
C730 N731 1.342 . S
C730 C734 1.401 . S
C730 C735 1.499 . S
N731 Co714 1.989 . S
N731 C730 1.342 . S
N731 N732 1.388 . S
N732 Co715 1.993 . S
N732 N731 1.388 . S
N732 C733 1.346 . S
C733 N732 1.346 . S
C733 C734 1.396 . S
C733 C743 1.510 . S
C734 C730 1.401 . S
C734 C733 1.396 . S
C735 C730 1.499 . S
C735 H736 0.959 . S
C735 H737 0.960 . S
C735 H738 0.961 . S
H736 C735 0.959 . S
H737 C735 0.960 . S
H738 C735 0.961 . S
O739 Co714 1.967 . S
O739 C747 1.258 . S
O740 Co715 1.941 . S
O740 C747 1.266 . S
H741 C743 0.959 . S
H742 C743 0.961 . S
C743 C733 1.510 . S
C743 H741 0.959 . S
C743 H742 0.961 . S
C743 H744 0.960 . S
H744 C743 0.960 . S
H745 N725 0.862 . S
O746 Co714 1.920 . S
O746 C719 1.289 . S
C747 O739 1.258 . S
C747 O740 1.266 . S
Co748 O751 1.970 . S
Co748 N765 1.989 . S
Co748 O773 1.967 . S
Co748 O780 1.920 . S
Co749 O752 1.966 . S
Co749 N758 2.022 . S
Co749 N766 1.993 . S
Co749 O774 1.941 . S
C750 O751 1.258 . S
C750 O752 1.263 . S
O751 Co748 1.970 . S
O751 C750 1.258 . S
O752 Co749 1.966 . S
O752 C750 1.263 . S
C753 O754 1.235 . S
C753 O780 1.289 . S
O754 C753 1.235 . S
C755 C757 1.400 . S
C755 N758 1.351 . S
C755 C760 1.501 . S
C756 C757 1.387 . S
C756 N759 1.341 . S
C757 C755 1.400 . S
C757 C756 1.387 . S
N758 Co749 2.022 . S
N758 C755 1.351 . S
N758 N759 1.365 . S
N759 C756 1.341 . S
N759 N758 1.365 . S
N759 H779 0.862 . S
C760 C755 1.501 . S
C760 H761 0.961 . S
C760 H762 0.961 . S
C760 H763 0.960 . S
H761 C760 0.961 . S
H762 C760 0.961 . S
H763 C760 0.960 . S
C764 N765 1.342 . S
C764 C768 1.401 . S
C764 C769 1.499 . S
N765 Co748 1.989 . S
N765 C764 1.342 . S
N765 N766 1.388 . S
N766 Co749 1.993 . S
N766 N765 1.388 . S
N766 C767 1.346 . S
C767 N766 1.346 . S
C767 C768 1.396 . S
C767 C777 1.510 . S
C768 C764 1.401 . S
C768 C767 1.396 . S
C769 C764 1.499 . S
C769 H770 0.959 . S
C769 H771 0.960 . S
C769 H772 0.961 . S
H770 C769 0.959 . S
H771 C769 0.960 . S
H772 C769 0.961 . S
O773 Co748 1.967 . S
O773 C781 1.258 . S
O774 Co749 1.941 . S
O774 C781 1.266 . S
H775 C777 0.959 . S
H776 C777 0.961 . S
C777 C767 1.510 . S
C777 H775 0.959 . S
C777 H776 0.961 . S
C777 H778 0.960 . S
H778 C777 0.960 . S
H779 N759 0.862 . S
O780 Co748 1.920 . S
O780 C753 1.289 . S
C781 O773 1.258 . S
C781 O774 1.266 . S
Co782 O785 1.970 . S
Co782 N799 1.989 . S
Co782 O807 1.967 . S
Co782 O814 1.920 . S
Co783 O786 1.966 . S
Co783 N792 2.022 . S
Co783 N800 1.993 . S
Co783 O808 1.941 . S
C784 O785 1.258 . S
C784 O786 1.263 . S
O785 Co782 1.970 . S
O785 C784 1.258 . S
O786 Co783 1.966 . S
O786 C784 1.263 . S
C787 O788 1.235 . S
C787 O814 1.289 . S
O788 C787 1.235 . S
C789 C791 1.400 . S
C789 N792 1.351 . S
C789 C794 1.501 . S
C790 C791 1.387 . S
C790 N793 1.341 . S
C791 C789 1.400 . S
C791 C790 1.387 . S
N792 Co783 2.022 . S
N792 C789 1.351 . S
N792 N793 1.365 . S
N793 C790 1.341 . S
N793 N792 1.365 . S
N793 H813 0.862 . S
C794 C789 1.501 . S
C794 H795 0.961 . S
C794 H796 0.961 . S
C794 H797 0.960 . S
H795 C794 0.961 . S
H796 C794 0.961 . S
H797 C794 0.960 . S
C798 N799 1.342 . S
C798 C802 1.401 . S
C798 C803 1.499 . S
N799 Co782 1.989 . S
N799 C798 1.342 . S
N799 N800 1.388 . S
N800 Co783 1.993 . S
N800 N799 1.388 . S
N800 C801 1.346 . S
C801 N800 1.346 . S
C801 C802 1.396 . S
C801 C811 1.510 . S
C802 C798 1.401 . S
C802 C801 1.396 . S
C803 C798 1.499 . S
C803 H804 0.959 . S
C803 H805 0.960 . S
C803 H806 0.961 . S
H804 C803 0.959 . S
H805 C803 0.960 . S
H806 C803 0.961 . S
O807 Co782 1.967 . S
O807 C815 1.258 . S
O808 Co783 1.941 . S
O808 C815 1.266 . S
H809 C811 0.959 . S
H810 C811 0.961 . S
C811 C801 1.510 . S
C811 H809 0.959 . S
C811 H810 0.961 . S
C811 H812 0.960 . S
H812 C811 0.960 . S
H813 N793 0.862 . S
O814 Co782 1.920 . S
O814 C787 1.289 . S
C815 O807 1.258 . S
C815 O808 1.266 . S
H816 C822 0.930 . S
H817 C826 0.930 . S
H818 C831 0.929 . S
H819 C829 0.929 . S
H820 C824 0.929 . S
H821 C830 0.929 . S
C822 H816 0.930 . S
C822 C823 1.367 . S
C822 C830 1.378 . S
C823 C822 1.367 . S
C823 C831 1.433 . S
C824 H820 0.929 . S
C824 C826 1.378 . S
C824 C828 1.350 . S
C825 C828 1.463 . S
C825 C830 1.350 . S
C825 N833 1.427 . S
C826 H817 0.930 . S
C826 C824 1.378 . S
C826 C827 1.367 . S
C827 C826 1.367 . S
C827 C829 1.433 . S
C828 C824 1.350 . S
C828 C825 1.463 . S
C828 N832 1.427 . S
C829 H819 0.929 . S
C829 C827 1.433 . S
C829 N832 1.384 . S
C830 H821 0.929 . S
C830 C822 1.378 . S
C830 C825 1.350 . S
C831 H818 0.929 . S
C831 C823 1.433 . S
C831 N833 1.384 . S
N832 C828 1.427 . S
N832 C829 1.384 . S
N833 C825 1.427 . S
N833 C831 1.384 . S
H834 C840 0.930 . S
H835 C844 0.930 . S
H836 C849 0.929 . S
H837 C847 0.929 . S
H838 C842 0.929 . S
H839 C848 0.929 . S
C840 H834 0.930 . S
C840 C841 1.367 . S
C840 C848 1.378 . S
C841 C840 1.367 . S
C841 C849 1.433 . S
C842 H838 0.929 . S
C842 C844 1.378 . S
C842 C846 1.350 . S
C843 C846 1.463 . S
C843 C848 1.350 . S
C843 N851 1.427 . S
C844 H835 0.930 . S
C844 C842 1.378 . S
C844 C845 1.367 . S
C845 C844 1.367 . S
C845 C847 1.433 . S
C846 C842 1.350 . S
C846 C843 1.463 . S
C846 N850 1.427 . S
C847 H837 0.929 . S
C847 C845 1.433 . S
C847 N850 1.384 . S
C848 H839 0.929 . S
C848 C840 1.378 . S
C848 C843 1.350 . S
C849 H836 0.929 . S
C849 C841 1.433 . S
C849 N851 1.384 . S
N850 C846 1.427 . S
N850 C847 1.384 . S
N851 C843 1.427 . S
N851 C849 1.384 . S
H852 C858 0.930 . S
H853 C862 0.930 . S
H854 C867 0.929 . S
H855 C865 0.929 . S
H856 C860 0.929 . S
H857 C866 0.929 . S
C858 H852 0.930 . S
C858 C859 1.367 . S
C858 C866 1.378 . S
C859 C858 1.367 . S
C859 C867 1.433 . S
C860 H856 0.929 . S
C860 C862 1.378 1_556 S
C860 C864 1.350 . S
C861 C864 1.463 . S
C861 C866 1.350 . S
C861 N869 1.427 . S
C862 H853 0.930 . S
C862 C860 1.378 1_554 S
C862 C863 1.367 . S
C863 C862 1.367 . S
C863 C865 1.433 1_554 S
C864 C860 1.350 . S
C864 C861 1.463 . S
C864 N868 1.427 . S
C865 H855 0.929 . S
C865 C863 1.433 1_556 S
C865 N868 1.384 . S
C866 H857 0.929 . S
C866 C858 1.378 . S
C866 C861 1.350 . S
C867 H854 0.929 . S
C867 C859 1.433 . S
C867 N869 1.384 . S
N868 C864 1.427 . S
N868 C865 1.384 . S
N869 C861 1.427 . S
N869 C867 1.384 . S
H870 C876 0.930 . S
H871 C880 0.930 . S
H872 C885 0.929 . S
H873 C883 0.929 . S
H874 C878 0.929 . S
H875 C884 0.929 . S
C876 H870 0.930 . S
C876 C877 1.367 . S
C876 C884 1.378 . S
C877 C876 1.367 . S
C877 C885 1.433 . S
C878 H874 0.929 . S
C878 C880 1.378 . S
C878 C882 1.350 . S
C879 C882 1.463 . S
C879 C884 1.350 . S
C879 N887 1.427 . S
C880 H871 0.930 . S
C880 C878 1.378 . S
C880 C881 1.367 . S
C881 C880 1.367 . S
C881 C883 1.433 . S
C882 C878 1.350 . S
C882 C879 1.463 . S
C882 N886 1.427 . S
C883 H873 0.929 . S
C883 C881 1.433 . S
C883 N886 1.384 . S
C884 H875 0.929 . S
C884 C876 1.378 . S
C884 C879 1.350 . S
C885 H872 0.929 . S
C885 C877 1.433 . S
C885 N887 1.384 . S
N886 C882 1.427 . S
N886 C883 1.384 . S
N887 C879 1.427 . S
N887 C885 1.384 . S
H888 C894 0.930 . S
H889 C898 0.930 . S
H890 C903 0.929 . S
H891 C901 0.929 . S
H892 C896 0.929 . S
H893 C902 0.929 . S
C894 H888 0.930 . S
C894 C895 1.367 . S
C894 C902 1.378 . S
C895 C894 1.367 . S
C895 C903 1.433 . S
C896 H892 0.929 . S
C896 C898 1.378 . S
C896 C900 1.350 . S
C897 C900 1.463 . S
C897 C902 1.350 . S
C897 N905 1.427 . S
C898 H889 0.930 . S
C898 C896 1.378 . S
C898 C899 1.367 . S
C899 C898 1.367 . S
C899 C901 1.433 . S
C900 C896 1.350 . S
C900 C897 1.463 . S
C900 N904 1.427 . S
C901 H891 0.929 . S
C901 C899 1.433 . S
C901 N904 1.384 . S
C902 H893 0.929 . S
C902 C894 1.378 . S
C902 C897 1.350 . S
C903 H890 0.929 . S
C903 C895 1.433 . S
C903 N905 1.384 . S
N904 C900 1.427 . S
N904 C901 1.384 . S
N905 C897 1.427 . S
N905 C903 1.384 . S
H906 C912 0.905 1_545 S
H907 C916 0.930 . S
H908 C921 0.929 . S
H909 C919 0.929 . S
H910 C914 0.929 . S
H911 C920 0.929 . S
C912 H906 0.905 1_565 S
C912 C913 1.373 . S
C912 C920 1.397 . S
C913 C912 1.373 . S
C913 C921 1.433 . S
C914 H910 0.929 . S
C914 C916 1.378 . S
C914 C918 1.350 . S
C915 C918 1.463 . S
C915 C920 1.350 . S
C915 N923 1.427 . S
C916 H907 0.930 . S
C916 C914 1.378 . S
C916 C917 1.367 . S
C917 C916 1.367 . S
C917 C919 1.433 . S
C918 C914 1.350 . S
C918 C915 1.463 . S
C918 N922 1.427 . S
C919 H909 0.929 . S
C919 C917 1.433 . S
C919 N922 1.384 . S
C920 H911 0.929 . S
C920 C912 1.397 . S
C920 C915 1.350 . S
C921 H908 0.929 . S
C921 C913 1.433 . S
C921 N923 1.384 . S
N922 C918 1.427 . S
N922 C919 1.384 . S
N923 C915 1.427 . S
N923 C921 1.384 . S
H924 C930 0.930 . S
H925 C934 0.930 . S
H926 C939 0.929 . S
H927 C937 0.947 . S
H928 C932 0.929 . S
H929 C938 0.929 . S
C930 H924 0.930 . S
C930 C931 1.367 . S
C930 C938 1.378 . S
C931 C930 1.367 . S
C931 C939 1.433 . S
C932 H928 0.929 . S
C932 C934 1.378 . S
C932 C936 1.350 . S
C933 C936 1.463 . S
C933 C938 1.350 . S
C933 N941 1.427 . S
C934 H925 0.930 . S
C934 C932 1.378 . S
C934 C935 1.367 1_554 S
C935 C934 1.367 1_556 S
C935 C937 1.437 . S
C936 C932 1.350 . S
C936 C933 1.463 . S
C936 N940 1.427 . S
C937 H927 0.947 . S
C937 C935 1.437 . S
C937 N940 1.362 1_556 S
C938 H929 0.929 . S
C938 C930 1.378 . S
C938 C933 1.350 . S
C939 H926 0.929 . S
C939 C931 1.433 . S
C939 N941 1.384 . S
N940 C936 1.427 . S
N940 C937 1.362 1_554 S
N941 C933 1.427 . S
N941 C939 1.384 . S
H942 C948 0.930 . S
H943 C952 0.930 . S
H944 C957 0.927 . S
H945 C955 0.929 . S
H946 C950 0.929 . S
H947 C956 0.929 . S
C948 H942 0.930 . S
C948 C949 1.367 . S
C948 C956 1.378 . S
C949 C948 1.367 . S
C949 C957 1.433 . S
C950 H946 0.929 . S
C950 C952 1.378 . S
C950 C954 1.350 . S
C951 C954 1.463 . S
C951 C956 1.350 . S
C951 N959 1.427 . S
C952 H943 0.930 . S
C952 C950 1.378 . S
C952 C953 1.367 . S
C953 C952 1.367 . S
C953 C955 1.433 . S
C954 C950 1.350 . S
C954 C951 1.463 . S
C954 N958 1.427 . S
C955 H945 0.929 . S
C955 C953 1.433 . S
C955 N958 1.384 . S
C956 H947 0.929 . S
C956 C948 1.378 . S
C956 C951 1.350 . S
C957 H944 0.927 . S
C957 C949 1.433 . S
C957 N959 1.384 . S
N958 C954 1.427 . S
N958 C955 1.384 . S
N959 C951 1.427 . S
N959 C957 1.384 . S
H960 C966 0.930 . S
H961 C970 0.930 . S
H962 C975 0.929 . S
H963 C973 0.929 . S
H964 C968 0.929 . S
H965 C974 0.929 . S
C966 H960 0.930 . S
C966 C967 1.367 . S
C966 C974 1.378 . S
C967 C966 1.367 . S
C967 C975 1.433 . S
C968 H964 0.929 . S
C968 C970 1.378 . S
C968 C972 1.350 . S
C969 C972 1.463 . S
C969 C974 1.350 . S
C969 N977 1.427 . S
C970 H961 0.930 . S
C970 C968 1.378 . S
C970 C971 1.367 . S
C971 C970 1.367 . S
C971 C973 1.433 . S
C972 C968 1.350 . S
C972 C969 1.463 . S
C972 N976 1.427 . S
C973 H963 0.929 . S
C973 C971 1.433 . S
C973 N976 1.384 . S
C974 H965 0.929 . S
C974 C966 1.378 . S
C974 C969 1.350 . S
C975 H962 0.929 . S
C975 C967 1.433 . S
C975 N977 1.384 . S
N976 C972 1.427 . S
N976 C973 1.384 . S
N977 C969 1.427 . S
N977 C975 1.384 . S
H978 C984 0.930 . S
H979 C988 0.930 . S
H980 C993 0.929 . S
H981 C991 0.929 . S
H982 C986 0.929 . S
H983 C992 0.929 . S
C984 H978 0.930 . S
C984 C985 1.367 . S
C984 C992 1.378 . S
C985 C984 1.367 . S
C985 C993 1.433 . S
C986 H982 0.929 . S
C986 C988 1.378 . S
C986 C990 1.350 . S
C987 C990 1.463 . S
C987 C992 1.350 . S
C987 N995 1.427 . S
C988 H979 0.930 . S
C988 C986 1.378 . S
C988 C989 1.367 . S
C989 C988 1.367 . S
C989 C991 1.433 . S
C990 C986 1.350 . S
C990 C987 1.463 . S
C990 N994 1.427 . S
C991 H981 0.929 . S
C991 C989 1.433 . S
C991 N994 1.384 . S
C992 H983 0.929 . S
C992 C984 1.378 . S
C992 C987 1.350 . S
C993 H980 0.929 . S
C993 C985 1.433 . S
C993 N995 1.384 . S
N994 C990 1.427 . S
N994 C991 1.384 . S
N995 C987 1.427 . S
N995 C993 1.384 . S
H996 C1002 0.930 . S
H997 C1006 0.930 . S
H998 C1011 0.929 . S
H999 C1009 0.929 . S
H1000 C1004 0.929 . S
H1001 C1010 0.929 . S
C1002 H996 0.930 . S
C1002 C1003 1.367 . S
C1002 C1010 1.378 . S
C1003 C1002 1.367 . S
C1003 C1011 1.433 . S
C1004 H1000 0.929 . S
C1004 C1006 1.378 . S
C1004 C1008 1.350 . S
C1005 C1008 1.463 . S
C1005 C1010 1.350 . S
C1005 N1013 1.427 . S
C1006 H997 0.930 . S
C1006 C1004 1.378 . S
C1006 C1007 1.367 1_455 S
C1007 C1006 1.367 1_655 S
C1007 C1009 1.433 . S
C1008 C1004 1.350 . S
C1008 C1005 1.463 . S
C1008 N1012 1.427 . S
C1009 H999 0.929 . S
C1009 C1007 1.433 . S
C1009 N1012 1.384 1_655 S
C1010 H1001 0.929 . S
C1010 C1002 1.378 . S
C1010 C1005 1.350 . S
C1011 H998 0.929 . S
C1011 C1003 1.433 . S
C1011 N1013 1.384 . S
N1012 C1008 1.427 . S
N1012 C1009 1.384 1_455 S
N1013 C1005 1.427 . S
N1013 C1011 1.384 . S
H1014 C1020 0.930 1_455 S
H1015 C1024 0.930 . S
H1016 C1029 0.929 . S
H1017 C1027 0.929 . S
H1018 C1022 0.929 . S
H1019 C1028 0.929 . S
C1020 H1014 0.930 1_655 S
C1020 C1021 1.367 . S
C1020 C1028 1.378 . S
C1021 C1020 1.367 . S
C1021 C1029 1.433 . S
C1022 H1018 0.929 . S
C1022 C1024 1.378 . S
C1022 C1026 1.350 . S
C1023 C1026 1.463 . S
C1023 C1028 1.350 . S
C1023 N1031 1.427 . S
C1024 H1015 0.930 . S
C1024 C1022 1.378 . S
C1024 C1025 1.367 . S
C1025 C1024 1.367 . S
C1025 C1027 1.433 . S
C1026 C1022 1.350 . S
C1026 C1023 1.463 . S
C1026 N1030 1.427 . S
C1027 H1017 0.929 . S
C1027 C1025 1.433 . S
C1027 N1030 1.384 . S
C1028 H1019 0.929 . S
C1028 C1020 1.378 . S
C1028 C1023 1.350 . S
C1029 H1016 0.929 . S
C1029 C1021 1.433 . S
C1029 N1031 1.384 . S
N1030 C1026 1.427 . S
N1030 C1027 1.384 . S
N1031 C1023 1.427 . S
N1031 C1029 1.384 . S
H1032 C1038 0.930 . S
H1033 C1042 0.930 . S
H1034 C1047 0.929 . S
H1035 C1045 0.929 . S
H1036 C1040 0.929 . S
H1037 C1046 0.929 . S
C1038 H1032 0.930 . S
C1038 C1039 1.367 . S
C1038 C1046 1.378 1_455 S
C1039 C1038 1.367 . S
C1039 C1047 1.433 1_455 S
C1040 H1036 0.929 . S
C1040 C1042 1.378 . S
C1040 C1044 1.350 . S
C1041 C1044 1.463 . S
C1041 C1046 1.350 . S
C1041 N1049 1.427 . S
C1042 H1033 0.930 . S
C1042 C1040 1.378 . S
C1042 C1043 1.367 . S
C1043 C1042 1.367 . S
C1043 C1045 1.433 . S
C1044 C1040 1.350 . S
C1044 C1041 1.463 . S
C1044 N1048 1.427 . S
C1045 H1035 0.929 . S
C1045 C1043 1.433 . S
C1045 N1048 1.384 . S
C1046 H1037 0.929 . S
C1046 C1038 1.378 1_655 S
C1046 C1041 1.350 . S
C1047 H1034 0.929 . S
C1047 C1039 1.433 1_655 S
C1047 N1049 1.384 . S
N1048 C1044 1.427 . S
N1048 C1045 1.384 . S
N1049 C1041 1.427 . S
N1049 C1047 1.384 . S
H1050 C1056 0.930 . S
H1051 C1060 0.930 . S
H1052 C1065 0.929 . S
H1053 C1063 0.929 . S
H1054 C1058 0.929 . S
H1055 C1064 0.929 . S
C1056 H1050 0.930 . S
C1056 C1057 1.367 . S
C1056 C1064 1.378 . S
C1057 C1056 1.367 . S
C1057 C1065 1.433 . S
C1058 H1054 0.929 . S
C1058 C1060 1.378 . S
C1058 C1062 1.350 . S
C1059 C1062 1.463 . S
C1059 C1064 1.350 . S
C1059 N1067 1.427 . S
C1060 H1051 0.930 . S
C1060 C1058 1.378 . S
C1060 C1061 1.367 . S
C1061 C1060 1.367 . S
C1061 C1063 1.433 . S
C1062 C1058 1.350 . S
C1062 C1059 1.463 . S
C1062 N1066 1.427 . S
C1063 H1053 0.929 . S
C1063 C1061 1.433 . S
C1063 N1066 1.384 . S
C1064 H1055 0.929 . S
C1064 C1056 1.378 . S
C1064 C1059 1.350 . S
C1065 H1052 0.929 . S
C1065 C1057 1.433 . S
C1065 N1067 1.384 . S
N1066 C1062 1.427 . S
N1066 C1063 1.384 . S
N1067 C1059 1.427 . S
N1067 C1065 1.384 . S
H1068 C1074 0.930 . S
H1069 C1078 0.930 . S
H1070 C1083 0.929 . S
H1071 C1081 0.929 . S
H1072 C1076 0.929 . S
H1073 C1082 0.929 . S
C1074 H1068 0.930 . S
C1074 C1075 1.367 . S
C1074 C1082 1.378 . S
C1075 C1074 1.367 . S
C1075 C1083 1.433 . S
C1076 H1072 0.929 . S
C1076 C1078 1.378 . S
C1076 C1080 1.350 . S
C1077 C1080 1.463 . S
C1077 C1082 1.350 . S
C1077 N1085 1.427 . S
C1078 H1069 0.930 . S
C1078 C1076 1.378 . S
C1078 C1079 1.367 . S
C1079 C1078 1.367 . S
C1079 C1081 1.433 . S
C1080 C1076 1.350 . S
C1080 C1077 1.463 . S
C1080 N1084 1.427 . S
C1081 H1071 0.929 . S
C1081 C1079 1.433 . S
C1081 N1084 1.384 . S
C1082 H1073 0.929 . S
C1082 C1074 1.378 . S
C1082 C1077 1.350 . S
C1083 H1070 0.929 . S
C1083 C1075 1.433 . S
C1083 N1085 1.384 . S
N1084 C1080 1.427 . S
N1084 C1081 1.384 . S
N1085 C1077 1.427 . S
N1085 C1083 1.384 . S
H1086 C1092 0.930 . S
H1087 C1096 0.930 . S
H1088 C1101 0.929 . S
H1089 C1099 0.929 . S
H1090 C1094 0.929 . S
H1091 C1100 0.929 . S
C1092 H1086 0.930 . S
C1092 C1093 1.367 . S
C1092 C1100 1.378 . S
C1093 C1092 1.367 . S
C1093 C1101 1.433 . S
C1094 H1090 0.929 . S
C1094 C1096 1.378 . S
C1094 C1098 1.350 . S
C1095 C1098 1.463 . S
C1095 C1100 1.350 . S
C1095 N1103 1.427 . S
C1096 H1087 0.930 . S
C1096 C1094 1.378 . S
C1096 C1097 1.367 . S
C1097 C1096 1.367 . S
C1097 C1099 1.433 . S
C1098 C1094 1.350 . S
C1098 C1095 1.463 . S
C1098 N1102 1.427 . S
C1099 H1089 0.929 . S
C1099 C1097 1.433 . S
C1099 N1102 1.384 . S
C1100 H1091 0.929 . S
C1100 C1092 1.378 . S
C1100 C1095 1.350 . S
C1101 H1088 0.929 . S
C1101 C1093 1.433 . S
C1101 N1103 1.384 . S
N1102 C1098 1.427 . S
N1102 C1099 1.384 . S
N1103 C1095 1.427 . S
N1103 C1101 1.384 . S
H1104 C1110 0.930 . S
H1105 C1114 0.930 . S
H1106 C1119 0.929 . S
H1107 C1117 0.929 . S
H1108 C1112 0.929 . S
H1109 C1118 0.929 . S
C1110 H1104 0.930 . S
C1110 C1111 1.367 . S
C1110 C1118 1.378 . S
C1111 C1110 1.367 . S
C1111 C1119 1.433 . S
C1112 H1108 0.929 . S
C1112 C1114 1.378 . S
C1112 C1116 1.350 . S
C1113 C1116 1.463 . S
C1113 C1118 1.350 . S
C1113 N1121 1.427 . S
C1114 H1105 0.930 . S
C1114 C1112 1.378 . S
C1114 C1115 1.367 . S
C1115 C1114 1.367 . S
C1115 C1117 1.433 . S
C1116 C1112 1.350 . S
C1116 C1113 1.463 . S
C1116 N1120 1.427 . S
C1117 H1107 0.929 . S
C1117 C1115 1.433 . S
C1117 N1120 1.384 . S
C1118 H1109 0.929 . S
C1118 C1110 1.378 . S
C1118 C1113 1.350 . S
C1119 H1106 0.929 . S
C1119 C1111 1.433 . S
C1119 N1121 1.384 . S
N1120 C1116 1.427 . S
N1120 C1117 1.384 . S
N1121 C1113 1.427 . S
N1121 C1119 1.384 . S
H1122 C1128 0.930 . S
H1123 C1132 0.921 1_565 S
H1124 C1137 0.929 . S
H1125 C1135 0.929 1_565 S
H1126 C1130 0.929 . S
H1127 C1136 0.929 . S
C1128 H1122 0.930 . S
C1128 C1129 1.367 . S
C1128 C1136 1.378 . S
C1129 C1128 1.367 . S
C1129 C1137 1.433 . S
C1130 H1126 0.929 . S
C1130 C1132 1.378 . S
C1130 C1134 1.350 . S
C1131 C1134 1.463 . S
C1131 C1136 1.350 . S
C1131 N1139 1.427 . S
C1132 H1123 0.921 1_545 S
C1132 C1130 1.378 . S
C1132 C1133 1.367 1_545 S
C1133 C1132 1.367 1_565 S
C1133 C1135 1.433 1_565 S
C1134 C1130 1.350 . S
C1134 C1131 1.463 . S
C1134 N1138 1.427 . S
C1135 H1125 0.929 1_545 S
C1135 C1133 1.433 1_545 S
C1135 N1138 1.384 . S
C1136 H1127 0.929 . S
C1136 C1128 1.378 . S
C1136 C1131 1.350 . S
C1137 H1124 0.929 . S
C1137 C1129 1.433 . S
C1137 N1139 1.384 . S
N1138 C1134 1.427 . S
N1138 C1135 1.384 . S
N1139 C1131 1.427 . S
N1139 C1137 1.384 . S
H1140 C1146 0.930 . S
H1141 C1150 0.930 . S
H1142 C1155 0.929 . S
H1143 C1153 0.929 . S
H1144 C1148 0.929 . S
H1145 C1154 0.929 . S
C1146 H1140 0.930 . S
C1146 C1147 1.367 . S
C1146 C1154 1.378 . S
C1147 C1146 1.367 . S
C1147 C1155 1.433 . S
C1148 H1144 0.929 . S
C1148 C1150 1.378 . S
C1148 C1152 1.350 . S
C1149 C1152 1.463 . S
C1149 C1154 1.350 . S
C1149 N1157 1.427 . S
C1150 H1141 0.930 . S
C1150 C1148 1.378 . S
C1150 C1151 1.367 . S
C1151 C1150 1.367 . S
C1151 C1153 1.433 . S
C1152 C1148 1.350 . S
C1152 C1149 1.463 . S
C1152 N1156 1.427 . S
C1153 H1143 0.929 . S
C1153 C1151 1.433 . S
C1153 N1156 1.384 . S
C1154 H1145 0.929 . S
C1154 C1146 1.378 . S
C1154 C1149 1.350 . S
C1155 H1142 0.929 . S
C1155 C1147 1.433 . S
C1155 N1157 1.384 . S
N1156 C1152 1.427 . S
N1156 C1153 1.384 . S
N1157 C1149 1.427 . S
N1157 C1155 1.384 . S
H1158 C1164 0.930 . S
H1159 C1168 0.930 . S
H1160 C1173 0.929 . S
H1161 C1171 0.929 . S
H1162 C1166 0.929 . S
H1163 C1172 0.929 . S
C1164 H1158 0.930 . S
C1164 C1165 1.367 . S
C1164 C1172 1.378 1_545 S
C1165 C1164 1.367 . S
C1165 C1173 1.433 1_545 S
C1166 H1162 0.929 . S
C1166 C1168 1.378 . S
C1166 C1170 1.350 . S
C1167 C1170 1.463 . S
C1167 C1172 1.350 . S
C1167 N1175 1.427 . S
C1168 H1159 0.930 . S
C1168 C1166 1.378 . S
C1168 C1169 1.367 . S
C1169 C1168 1.367 . S
C1169 C1171 1.433 . S
C1170 C1166 1.350 . S
C1170 C1167 1.463 . S
C1170 N1174 1.427 . S
C1171 H1161 0.929 . S
C1171 C1169 1.433 . S
C1171 N1174 1.384 . S
C1172 H1163 0.929 . S
C1172 C1164 1.378 1_565 S
C1172 C1167 1.350 . S
C1173 H1160 0.929 . S
C1173 C1165 1.433 1_565 S
C1173 N1175 1.384 . S
N1174 C1170 1.427 . S
N1174 C1171 1.384 . S
N1175 C1167 1.427 . S
N1175 C1173 1.384 . S
H1176 C1182 0.930 . S
H1177 C1186 0.930 . S
H1178 C1191 0.929 . S
H1179 C1189 0.929 1_556 S
H1180 C1184 0.929 . S
H1181 C1190 0.929 . S
C1182 H1176 0.930 . S
C1182 C1183 1.367 . S
C1182 C1190 1.378 . S
C1183 C1182 1.367 . S
C1183 C1191 1.433 . S
C1184 H1180 0.929 . S
C1184 C1186 1.378 . S
C1184 C1188 1.350 . S
C1185 C1188 1.463 . S
C1185 C1190 1.350 . S
C1185 N1193 1.427 . S
C1186 H1177 0.930 . S
C1186 C1184 1.378 . S
C1186 C1187 1.367 . S
C1187 C1186 1.367 . S
C1187 C1189 1.433 . S
C1188 C1184 1.350 . S
C1188 C1185 1.463 . S
C1188 N1192 1.427 . S
C1189 H1179 0.929 1_554 S
C1189 C1187 1.433 . S
C1189 N1192 1.384 . S
C1190 H1181 0.929 . S
C1190 C1182 1.378 . S
C1190 C1185 1.350 . S
C1191 H1178 0.929 . S
C1191 C1183 1.433 . S
C1191 N1193 1.384 . S
N1192 C1188 1.427 . S
N1192 C1189 1.384 . S
N1193 C1185 1.427 . S
N1193 C1191 1.384 . S
H1194 C1200 0.930 . S
H1195 C1204 0.930 . S
H1196 C1209 0.929 . S
H1197 C1207 0.929 . S
H1198 C1202 0.929 . S
H1199 C1208 0.929 . S
C1200 H1194 0.930 . S
C1200 C1201 1.367 . S
C1200 C1208 1.378 . S
C1201 C1200 1.367 . S
C1201 C1209 1.433 . S
C1202 H1198 0.929 . S
C1202 C1204 1.378 . S
C1202 C1206 1.350 . S
C1203 C1206 1.463 . S
C1203 C1208 1.350 . S
C1203 N1211 1.427 . S
C1204 H1195 0.930 . S
C1204 C1202 1.378 . S
C1204 C1205 1.367 . S
C1205 C1204 1.367 . S
C1205 C1207 1.433 . S
C1206 C1202 1.350 . S
C1206 C1203 1.463 . S
C1206 N1210 1.427 . S
C1207 H1197 0.929 . S
C1207 C1205 1.433 . S
C1207 N1210 1.384 . S
C1208 H1199 0.929 . S
C1208 C1200 1.378 . S
C1208 C1203 1.350 . S
C1209 H1196 0.929 . S
C1209 C1201 1.433 . S
C1209 N1211 1.384 . S
N1210 C1206 1.427 . S
N1210 C1207 1.384 . S
N1211 C1203 1.427 . S
N1211 C1209 1.384 . S
H1212 C1218 0.930 . S
H1213 C1222 0.930 . S
H1214 C1227 0.929 . S
H1215 C1225 0.929 . S
H1216 C1220 0.929 . S
H1217 C1226 0.929 . S
C1218 H1212 0.930 . S
C1218 C1219 1.367 . S
C1218 C1226 1.378 . S
C1219 C1218 1.367 . S
C1219 C1227 1.433 . S
C1220 H1216 0.929 . S
C1220 C1222 1.378 . S
C1220 C1224 1.350 . S
C1221 C1224 1.463 . S
C1221 C1226 1.350 . S
C1221 N1229 1.427 . S
C1222 H1213 0.930 . S
C1222 C1220 1.378 . S
C1222 C1223 1.367 . S
C1223 C1222 1.367 . S
C1223 C1225 1.433 . S
C1224 C1220 1.350 . S
C1224 C1221 1.463 . S
C1224 N1228 1.427 . S
C1225 H1215 0.929 . S
C1225 C1223 1.433 . S
C1225 N1228 1.384 . S
C1226 H1217 0.929 . S
C1226 C1218 1.378 . S
C1226 C1221 1.350 . S
C1227 H1214 0.929 . S
C1227 C1219 1.433 . S
C1227 N1229 1.384 . S
N1228 C1224 1.427 . S
N1228 C1225 1.384 . S
N1229 C1221 1.427 . S
N1229 C1227 1.384 . S
H1230 C1236 0.930 . S
H1231 C1240 0.930 . S
H1232 C1245 0.918 1_554 S
H1233 C1243 0.929 . S
H1234 C1238 0.929 . S
H1235 C1244 0.929 . S
C1236 H1230 0.930 . S
C1236 C1237 1.367 . S
C1236 C1244 1.378 . S
C1237 C1236 1.367 . S
C1237 C1245 1.433 . S
C1238 H1234 0.929 . S
C1238 C1240 1.378 . S
C1238 C1242 1.350 . S
C1239 C1242 1.463 . S
C1239 C1244 1.350 . S
C1239 N1247 1.427 . S
C1240 H1231 0.930 . S
C1240 C1238 1.378 . S
C1240 C1241 1.367 . S
C1241 C1240 1.367 . S
C1241 C1243 1.433 . S
C1242 C1238 1.350 . S
C1242 C1239 1.463 . S
C1242 N1246 1.427 . S
C1243 H1233 0.929 . S
C1243 C1241 1.433 . S
C1243 N1246 1.384 . S
C1244 H1235 0.929 . S
C1244 C1236 1.378 . S
C1244 C1239 1.350 . S
C1245 H1232 0.918 1_556 S
C1245 C1237 1.433 . S
C1245 N1247 1.384 . S
N1246 C1242 1.427 . S
N1246 C1243 1.384 . S
N1247 C1239 1.427 . S
N1247 C1245 1.384 . S
H1248 C1254 0.930 . S
H1249 C1258 0.930 . S
H1250 C1263 0.929 . S
H1251 C1261 0.929 . S
H1252 C1256 0.929 . S
H1253 C1262 0.929 . S
C1254 H1248 0.930 . S
C1254 C1255 1.367 . S
C1254 C1262 1.378 . S
C1255 C1254 1.367 . S
C1255 C1263 1.433 . S
C1256 H1252 0.929 . S
C1256 C1258 1.378 . S
C1256 C1260 1.350 . S
C1257 C1260 1.463 . S
C1257 C1262 1.350 . S
C1257 N1265 1.427 . S
C1258 H1249 0.930 . S
C1258 C1256 1.378 . S
C1258 C1259 1.367 . S
C1259 C1258 1.367 . S
C1259 C1261 1.433 . S
C1260 C1256 1.350 . S
C1260 C1257 1.463 . S
C1260 N1264 1.427 . S
C1261 H1251 0.929 . S
C1261 C1259 1.433 . S
C1261 N1264 1.384 . S
C1262 H1253 0.929 . S
C1262 C1254 1.378 . S
C1262 C1257 1.350 . S
C1263 H1250 0.929 . S
C1263 C1255 1.433 . S
C1263 N1265 1.384 . S
N1264 C1260 1.427 . S
N1264 C1261 1.384 . S
N1265 C1257 1.427 . S
N1265 C1263 1.384 . S
H1266 C1272 0.930 . S
H1267 C1276 0.930 . S
H1268 C1281 0.929 . S
H1269 C1279 0.929 . S
H1270 C1274 0.929 . S
H1271 C1280 0.929 . S
C1272 H1266 0.930 . S
C1272 C1273 1.367 . S
C1272 C1280 1.378 . S
C1273 C1272 1.367 . S
C1273 C1281 1.433 . S
C1274 H1270 0.929 . S
C1274 C1276 1.378 1_556 S
C1274 C1278 1.350 . S
C1275 C1278 1.463 . S
C1275 C1280 1.350 . S
C1275 N1283 1.427 . S
C1276 H1267 0.930 . S
C1276 C1274 1.378 1_554 S
C1276 C1277 1.367 . S
C1277 C1276 1.367 . S
C1277 C1279 1.433 . S
C1278 C1274 1.350 . S
C1278 C1275 1.463 . S
C1278 N1282 1.427 . S
C1279 H1269 0.929 . S
C1279 C1277 1.433 . S
C1279 N1282 1.384 1_554 S
C1280 H1271 0.929 . S
C1280 C1272 1.378 . S
C1280 C1275 1.350 . S
C1281 H1268 0.929 . S
C1281 C1273 1.433 . S
C1281 N1283 1.384 . S
N1282 C1278 1.427 . S
N1282 C1279 1.384 1_556 S
N1283 C1275 1.427 . S
N1283 C1281 1.384 . S
H1284 C1290 0.930 . S
H1285 C1294 0.930 . S
H1286 C1299 0.929 . S
H1287 C1297 0.929 . S
H1288 C1292 0.929 . S
H1289 C1298 0.929 . S
C1290 H1284 0.930 . S
C1290 C1291 1.367 . S
C1290 C1298 1.378 . S
C1291 C1290 1.367 . S
C1291 C1299 1.433 . S
C1292 H1288 0.929 . S
C1292 C1294 1.378 . S
C1292 C1296 1.350 . S
C1293 C1296 1.463 . S
C1293 C1298 1.350 . S
C1293 N1301 1.427 . S
C1294 H1285 0.930 . S
C1294 C1292 1.378 . S
C1294 C1295 1.367 . S
C1295 C1294 1.367 . S
C1295 C1297 1.433 . S
C1296 C1292 1.350 . S
C1296 C1293 1.463 . S
C1296 N1300 1.427 . S
C1297 H1287 0.929 . S
C1297 C1295 1.433 . S
C1297 N1300 1.384 . S
C1298 H1289 0.929 . S
C1298 C1290 1.378 . S
C1298 C1293 1.350 . S
C1299 H1286 0.929 . S
C1299 C1291 1.433 . S
C1299 N1301 1.384 . S
N1300 C1296 1.427 . S
N1300 C1297 1.384 . S
N1301 C1293 1.427 . S
N1301 C1299 1.384 . S
H1302 C1308 0.930 . S
H1303 C1312 0.930 . S
H1304 C1317 0.929 . S
H1305 C1315 0.925 1_455 S
H1306 C1310 0.929 . S
H1307 C1316 0.929 . S
C1308 H1302 0.930 . S
C1308 C1309 1.367 . S
C1308 C1316 1.378 . S
C1309 C1308 1.367 . S
C1309 C1317 1.433 . S
C1310 H1306 0.929 . S
C1310 C1312 1.378 . S
C1310 C1314 1.350 1_655 S
C1311 C1314 1.463 . S
C1311 C1316 1.350 . S
C1311 N1319 1.427 . S
C1312 H1303 0.930 . S
C1312 C1310 1.378 . S
C1312 C1313 1.367 . S
C1313 C1312 1.367 . S
C1313 C1315 1.455 . S
C1314 C1310 1.350 1_455 S
C1314 C1311 1.463 . S
C1314 N1318 1.427 . S
C1315 H1305 0.925 1_655 S
C1315 C1313 1.455 . S
C1315 N1318 1.367 1_655 S
C1316 H1307 0.929 . S
C1316 C1308 1.378 . S
C1316 C1311 1.350 . S
C1317 H1304 0.929 . S
C1317 C1309 1.433 . S
C1317 N1319 1.384 . S
N1318 C1314 1.427 . S
N1318 C1315 1.367 1_455 S
N1319 C1311 1.427 . S
N1319 C1317 1.384 . S
H1320 C1326 0.930 . S
H1321 C1330 0.930 . S
H1322 C1335 0.929 . S
H1323 C1333 0.929 . S
H1324 C1328 0.929 . S
H1325 C1334 0.929 . S
C1326 H1320 0.930 . S
C1326 C1327 1.367 . S
C1326 C1334 1.378 . S
C1327 C1326 1.367 . S
C1327 C1335 1.433 . S
C1328 H1324 0.929 . S
C1328 C1330 1.378 . S
C1328 C1332 1.350 . S
C1329 C1332 1.463 . S
C1329 C1334 1.350 . S
C1329 N1337 1.427 . S
C1330 H1321 0.930 . S
C1330 C1328 1.378 . S
C1330 C1331 1.367 . S
C1331 C1330 1.367 . S
C1331 C1333 1.433 . S
C1332 C1328 1.350 . S
C1332 C1329 1.463 . S
C1332 N1336 1.427 . S
C1333 H1323 0.929 . S
C1333 C1331 1.433 . S
C1333 N1336 1.384 . S
C1334 H1325 0.929 . S
C1334 C1326 1.378 . S
C1334 C1329 1.350 . S
C1335 H1322 0.929 . S
C1335 C1327 1.433 . S
C1335 N1337 1.384 . S
N1336 C1332 1.427 . S
N1336 C1333 1.384 . S
N1337 C1329 1.427 . S
N1337 C1335 1.384 . S
H1338 C1344 0.930 . S
H1339 C1348 0.930 . S
H1340 C1353 0.929 . S
H1341 C1351 0.929 . S
H1342 C1346 0.929 . S
H1343 C1352 0.929 . S
C1344 H1338 0.930 . S
C1344 C1345 1.367 . S
C1344 C1352 1.378 . S
C1345 C1344 1.367 . S
C1345 C1353 1.433 . S
C1346 H1342 0.929 . S
C1346 C1348 1.378 . S
C1346 C1350 1.350 . S
C1347 C1350 1.463 . S
C1347 C1352 1.350 . S
C1347 N1355 1.427 . S
C1348 H1339 0.930 . S
C1348 C1346 1.378 . S
C1348 C1349 1.367 . S
C1349 C1348 1.367 . S
C1349 C1351 1.433 . S
C1350 C1346 1.350 . S
C1350 C1347 1.463 . S
C1350 N1354 1.427 . S
C1351 H1341 0.929 . S
C1351 C1349 1.433 . S
C1351 N1354 1.384 . S
C1352 H1343 0.929 . S
C1352 C1344 1.378 . S
C1352 C1347 1.350 . S
C1353 H1340 0.929 . S
C1353 C1345 1.433 . S
C1353 N1355 1.384 . S
N1354 C1350 1.427 . S
N1354 C1351 1.384 . S
N1355 C1347 1.427 . S
N1355 C1353 1.384 . S
H1356 C1362 0.930 . S
H1357 C1366 0.930 . S
H1358 C1371 0.929 . S
H1359 C1369 0.929 . S
H1360 C1364 0.929 . S
H1361 C1370 0.929 . S
C1362 H1356 0.930 . S
C1362 C1363 1.367 . S
C1362 C1370 1.378 . S
C1363 C1362 1.367 . S
C1363 C1371 1.433 . S
C1364 H1360 0.929 . S
C1364 C1366 1.378 . S
C1364 C1368 1.350 . S
C1365 C1368 1.463 . S
C1365 C1370 1.350 . S
C1365 N1373 1.427 . S
C1366 H1357 0.930 . S
C1366 C1364 1.378 . S
C1366 C1367 1.367 . S
C1367 C1366 1.367 . S
C1367 C1369 1.433 . S
C1368 C1364 1.350 . S
C1368 C1365 1.463 . S
C1368 N1372 1.427 . S
C1369 H1359 0.929 . S
C1369 C1367 1.433 . S
C1369 N1372 1.384 . S
C1370 H1361 0.929 . S
C1370 C1362 1.378 . S
C1370 C1365 1.350 . S
C1371 H1358 0.929 . S
C1371 C1363 1.433 . S
C1371 N1373 1.384 . S
N1372 C1368 1.427 . S
N1372 C1369 1.384 . S
N1373 C1365 1.427 . S
N1373 C1371 1.384 . S
H1374 C1380 0.930 . S
H1375 C1384 0.930 . S
H1376 C1389 0.929 . S
H1377 C1387 0.929 . S
H1378 C1382 0.929 . S
H1379 C1388 0.929 . S
C1380 H1374 0.930 . S
C1380 C1381 1.367 . S
C1380 C1388 1.378 1_556 S
C1381 C1380 1.367 . S
C1381 C1389 1.433 1_455 S
C1382 H1378 0.929 . S
C1382 C1384 1.378 . S
C1382 C1386 1.350 . S
C1383 C1386 1.463 . S
C1383 C1388 1.350 1_655 S
C1383 N1391 1.427 1_554 S
C1384 H1375 0.930 . S
C1384 C1382 1.378 . S
C1384 C1385 1.367 . S
C1385 C1384 1.367 . S
C1385 C1387 1.433 . S
C1386 C1382 1.350 . S
C1386 C1383 1.463 . S
C1386 N1390 1.427 . S
C1387 H1377 0.929 . S
C1387 C1385 1.433 . S
C1387 N1390 1.384 . S
C1388 H1379 0.929 . S
C1388 C1380 1.378 1_554 S
C1388 C1383 1.350 1_455 S
C1389 H1376 0.929 . S
C1389 C1381 1.433 1_655 S
C1389 N1391 1.384 . S
N1390 C1386 1.427 . S
N1390 C1387 1.384 . S
N1391 C1383 1.427 1_556 S
N1391 C1389 1.384 . S
H1392 C1398 0.930 . S
H1393 C1402 0.930 . S
H1394 C1407 0.929 . S
H1395 C1405 0.929 . S
H1396 C1400 0.929 . S
H1397 C1406 0.929 . S
C1398 H1392 0.930 . S
C1398 C1399 1.367 . S
C1398 C1406 1.378 . S
C1399 C1398 1.367 . S
C1399 C1407 1.433 . S
C1400 H1396 0.929 . S
C1400 C1402 1.378 . S
C1400 C1404 1.350 . S
C1401 C1404 1.463 . S
C1401 C1406 1.350 . S
C1401 N1409 1.427 . S
C1402 H1393 0.930 . S
C1402 C1400 1.378 . S
C1402 C1403 1.367 . S
C1403 C1402 1.367 . S
C1403 C1405 1.433 . S
C1404 C1400 1.350 . S
C1404 C1401 1.463 . S
C1404 N1408 1.427 . S
C1405 H1395 0.929 . S
C1405 C1403 1.433 . S
C1405 N1408 1.384 . S
C1406 H1397 0.929 . S
C1406 C1398 1.378 . S
C1406 C1401 1.350 . S
C1407 H1394 0.929 . S
C1407 C1399 1.433 . S
C1407 N1409 1.384 . S
N1408 C1404 1.427 . S
N1408 C1405 1.384 . S
N1409 C1401 1.427 . S
N1409 C1407 1.384 . S
H1410 C1416 0.930 . S
H1411 C1420 0.930 . S
H1412 C1425 0.929 . S
H1413 C1423 0.929 . S
H1414 C1418 0.929 . S
H1415 C1424 0.929 . S
C1416 H1410 0.930 . S
C1416 C1417 1.367 . S
C1416 C1424 1.378 . S
C1417 C1416 1.367 . S
C1417 C1425 1.433 1_556 S
C1418 H1414 0.929 . S
C1418 C1420 1.378 . S
C1418 C1422 1.350 . S
C1419 C1422 1.463 . S
C1419 C1424 1.350 1_554 S
C1419 N1427 1.427 . S
C1420 H1411 0.930 . S
C1420 C1418 1.378 . S
C1420 C1421 1.367 . S
C1421 C1420 1.367 . S
C1421 C1423 1.433 . S
C1422 C1418 1.350 . S
C1422 C1419 1.463 . S
C1422 N1426 1.427 . S
C1423 H1413 0.929 . S
C1423 C1421 1.433 . S
C1423 N1426 1.384 . S
C1424 H1415 0.929 . S
C1424 C1416 1.378 . S
C1424 C1419 1.350 1_556 S
C1425 H1412 0.929 . S
C1425 C1417 1.433 1_554 S
C1425 N1427 1.384 . S
N1426 C1422 1.427 . S
N1426 C1423 1.384 . S
N1427 C1419 1.427 . S
N1427 C1425 1.384 . S
H1428 C1434 0.930 . S
H1429 C1438 0.930 . S
H1430 C1443 0.929 . S
H1431 C1441 0.929 . S
H1432 C1436 0.929 . S
H1433 C1442 0.929 . S
C1434 H1428 0.930 . S
C1434 C1435 1.367 . S
C1434 C1442 1.378 . S
C1435 C1434 1.367 . S
C1435 C1443 1.433 . S
C1436 H1432 0.929 . S
C1436 C1438 1.378 . S
C1436 C1440 1.350 . S
C1437 C1440 1.463 . S
C1437 C1442 1.350 . S
C1437 N1445 1.427 . S
C1438 H1429 0.930 . S
C1438 C1436 1.378 . S
C1438 C1439 1.367 . S
C1439 C1438 1.367 . S
C1439 C1441 1.433 . S
C1440 C1436 1.350 . S
C1440 C1437 1.463 . S
C1440 N1444 1.427 . S
C1441 H1431 0.929 . S
C1441 C1439 1.433 . S
C1441 N1444 1.384 . S
C1442 H1433 0.929 . S
C1442 C1434 1.378 . S
C1442 C1437 1.350 . S
C1443 H1430 0.929 . S
C1443 C1435 1.433 . S
C1443 N1445 1.384 . S
N1444 C1440 1.427 . S
N1444 C1441 1.384 . S
N1445 C1437 1.427 . S
N1445 C1443 1.384 . S
H1446 C1452 0.930 . S
H1447 C1456 0.930 . S
H1448 C1461 0.929 . S
H1449 C1459 0.929 . S
H1450 C1454 0.929 . S
H1451 C1460 0.929 . S
C1452 H1446 0.930 . S
C1452 C1453 1.367 . S
C1452 C1460 1.378 . S
C1453 C1452 1.367 . S
C1453 C1461 1.433 . S
C1454 H1450 0.929 . S
C1454 C1456 1.378 . S
C1454 C1458 1.350 . S
C1455 C1458 1.463 . S
C1455 C1460 1.350 . S
C1455 N1463 1.427 . S
C1456 H1447 0.930 . S
C1456 C1454 1.378 . S
C1456 C1457 1.367 . S
C1457 C1456 1.367 . S
C1457 C1459 1.433 . S
C1458 C1454 1.350 . S
C1458 C1455 1.463 . S
C1458 N1462 1.427 . S
C1459 H1449 0.929 . S
C1459 C1457 1.433 . S
C1459 N1462 1.384 . S
C1460 H1451 0.929 . S
C1460 C1452 1.378 . S
C1460 C1455 1.350 . S
C1461 H1448 0.929 . S
C1461 C1453 1.433 . S
C1461 N1463 1.384 . S
N1462 C1458 1.427 . S
N1462 C1459 1.384 . S
N1463 C1455 1.427 . S
N1463 C1461 1.384 . S
H1464 C1470 0.930 . S
H1465 C1474 0.930 . S
H1466 C1479 0.929 . S
H1467 C1477 0.929 . S
H1468 C1472 0.929 . S
H1469 C1478 0.929 . S
C1470 H1464 0.930 . S
C1470 C1471 1.367 . S
C1470 C1478 1.378 . S
C1471 C1470 1.367 . S
C1471 C1479 1.433 . S
C1472 H1468 0.929 . S
C1472 C1474 1.378 . S
C1472 C1476 1.350 . S
C1473 C1476 1.463 . S
C1473 C1478 1.350 . S
C1473 N1481 1.427 . S
C1474 H1465 0.930 . S
C1474 C1472 1.378 . S
C1474 C1475 1.367 . S
C1475 C1474 1.367 . S
C1475 C1477 1.433 . S
C1476 C1472 1.350 . S
C1476 C1473 1.463 . S
C1476 N1480 1.427 . S
C1477 H1467 0.929 . S
C1477 C1475 1.433 . S
C1477 N1480 1.384 . S
C1478 H1469 0.929 . S
C1478 C1470 1.378 . S
C1478 C1473 1.350 . S
C1479 H1466 0.929 . S
C1479 C1471 1.433 . S
C1479 N1481 1.384 . S
N1480 C1476 1.427 . S
N1480 C1477 1.384 . S
N1481 C1473 1.427 . S
N1481 C1479 1.384 . S
H1482 C1488 0.930 . S
H1483 C1492 0.930 . S
H1484 C1497 0.929 . S
H1485 C1495 0.929 . S
H1486 C1490 0.929 . S
H1487 C1496 0.929 . S
C1488 H1482 0.930 . S
C1488 C1489 1.367 . S
C1488 C1496 1.378 . S
C1489 C1488 1.367 . S
C1489 C1497 1.433 . S
C1490 H1486 0.929 . S
C1490 C1492 1.378 1_565 S
C1490 C1494 1.350 . S
C1491 C1494 1.463 . S
C1491 C1496 1.350 . S
C1491 N1499 1.427 . S
C1492 H1483 0.930 . S
C1492 C1490 1.378 1_545 S
C1492 C1493 1.367 . S
C1493 C1492 1.367 . S
C1493 C1495 1.433 . S
C1494 C1490 1.350 . S
C1494 C1491 1.463 . S
C1494 N1498 1.427 1_565 S
C1495 H1485 0.929 . S
C1495 C1493 1.433 . S
C1495 N1498 1.384 . S
C1496 H1487 0.929 . S
C1496 C1488 1.378 . S
C1496 C1491 1.350 . S
C1497 H1484 0.929 . S
C1497 C1489 1.433 . S
C1497 N1499 1.384 . S
N1498 C1494 1.427 1_545 S
N1498 C1495 1.384 . S
N1499 C1491 1.427 . S
N1499 C1497 1.384 . S
H1500 C1506 0.930 . S
H1501 C1510 0.930 . S
H1502 C1515 0.929 . S
H1503 C1513 0.929 . S
H1504 C1508 0.929 . S
H1505 C1514 0.929 . S
C1506 H1500 0.930 . S
C1506 C1507 1.367 . S
C1506 C1514 1.378 . S
C1507 C1506 1.367 . S
C1507 C1515 1.433 . S
C1508 H1504 0.929 . S
C1508 C1510 1.378 . S
C1508 C1512 1.350 . S
C1509 C1512 1.463 . S
C1509 C1514 1.350 . S
C1509 N1517 1.427 . S
C1510 H1501 0.930 . S
C1510 C1508 1.378 . S
C1510 C1511 1.367 . S
C1511 C1510 1.367 . S
C1511 C1513 1.433 . S
C1512 C1508 1.350 . S
C1512 C1509 1.463 . S
C1512 N1516 1.427 . S
C1513 H1503 0.929 . S
C1513 C1511 1.433 . S
C1513 N1516 1.384 . S
C1514 H1505 0.929 . S
C1514 C1506 1.378 . S
C1514 C1509 1.350 . S
C1515 H1502 0.929 . S
C1515 C1507 1.433 . S
C1515 N1517 1.384 . S
N1516 C1512 1.427 . S
N1516 C1513 1.384 . S
N1517 C1509 1.427 . S
N1517 C1515 1.384 . S
H1518 C1524 0.930 . S
H1519 C1528 0.930 . S
H1520 C1533 0.929 . S
H1521 C1531 0.929 . S
H1522 C1526 0.929 1_554 S
H1523 C1532 0.929 . S
C1524 H1518 0.930 . S
C1524 C1525 1.367 1_556 S
C1524 C1532 1.378 . S
C1525 C1524 1.367 1_554 S
C1525 C1533 1.433 . S
C1526 H1522 0.929 1_556 S
C1526 C1528 1.378 . S
C1526 C1530 1.350 . S
C1527 C1530 1.463 . S
C1527 C1532 1.350 1_545 S
C1527 N1535 1.427 1_556 S
C1528 H1519 0.930 . S
C1528 C1526 1.378 . S
C1528 C1529 1.367 . S
C1529 C1528 1.367 . S
C1529 C1531 1.433 . S
C1530 C1526 1.350 . S
C1530 C1527 1.463 . S
C1530 N1534 1.427 . S
C1531 H1521 0.929 . S
C1531 C1529 1.433 . S
C1531 N1534 1.384 . S
C1532 H1523 0.929 . S
C1532 C1524 1.378 . S
C1532 C1527 1.350 1_565 S
C1533 H1520 0.929 . S
C1533 C1525 1.433 . S
C1533 N1535 1.384 1_565 S
N1534 C1530 1.427 . S
N1534 C1531 1.384 . S
N1535 C1527 1.427 1_554 S
N1535 C1533 1.384 1_545 S
H1536 C1542 0.930 . S
H1537 C1546 0.930 . S
H1538 C1551 0.929 . S
H1539 C1549 0.929 . S
H1540 C1544 0.929 . S
H1541 C1550 0.929 . S
C1542 H1536 0.930 . S
C1542 C1543 1.367 . S
C1542 C1550 1.378 . S
C1543 C1542 1.367 . S
C1543 C1551 1.433 . S
C1544 H1540 0.929 . S
C1544 C1546 1.378 . S
C1544 C1548 1.350 . S
C1545 C1548 1.463 . S
C1545 C1550 1.350 . S
C1545 N1553 1.427 . S
C1546 H1537 0.930 . S
C1546 C1544 1.378 . S
C1546 C1547 1.367 . S
C1547 C1546 1.367 . S
C1547 C1549 1.433 . S
C1548 C1544 1.350 . S
C1548 C1545 1.463 . S
C1548 N1552 1.427 . S
C1549 H1539 0.929 . S
C1549 C1547 1.433 . S
C1549 N1552 1.384 . S
C1550 H1541 0.929 . S
C1550 C1542 1.378 . S
C1550 C1545 1.350 . S
C1551 H1538 0.929 . S
C1551 C1543 1.433 . S
C1551 N1553 1.384 . S
N1552 C1548 1.427 . S
N1552 C1549 1.384 . S
N1553 C1545 1.427 . S
N1553 C1551 1.384 . S
H1554 C1560 0.930 . S
H1555 C1564 0.930 . S
H1556 C1569 0.929 . S
H1557 C1567 0.929 . S
H1558 C1562 0.929 . S
H1559 C1568 0.929 . S
C1560 H1554 0.930 . S
C1560 C1561 1.367 . S
C1560 C1568 1.378 . S
C1561 C1560 1.367 . S
C1561 C1569 1.433 . S
C1562 H1558 0.929 . S
C1562 C1564 1.378 . S
C1562 C1566 1.350 . S
C1563 C1566 1.463 . S
C1563 C1568 1.350 . S
C1563 N1571 1.427 . S
C1564 H1555 0.930 . S
C1564 C1562 1.378 . S
C1564 C1565 1.367 . S
C1565 C1564 1.367 . S
C1565 C1567 1.433 . S
C1566 C1562 1.350 . S
C1566 C1563 1.463 . S
C1566 N1570 1.427 . S
C1567 H1557 0.929 . S
C1567 C1565 1.433 . S
C1567 N1570 1.384 . S
C1568 H1559 0.929 . S
C1568 C1560 1.378 . S
C1568 C1563 1.350 . S
C1569 H1556 0.929 . S
C1569 C1561 1.433 . S
C1569 N1571 1.384 . S
N1570 C1566 1.427 . S
N1570 C1567 1.384 . S
N1571 C1563 1.427 . S
N1571 C1569 1.384 . S
H1572 C1578 0.930 . S
H1573 C1582 0.930 . S
H1574 C1587 0.929 . S
H1575 C1585 0.929 . S
H1576 C1580 0.929 . S
H1577 C1586 0.929 . S
C1578 H1572 0.930 . S
C1578 C1579 1.367 . S
C1578 C1586 1.378 . S
C1579 C1578 1.367 . S
C1579 C1587 1.433 . S
C1580 H1576 0.929 . S
C1580 C1582 1.378 1_545 S
C1580 C1584 1.350 . S
C1581 C1584 1.463 . S
C1581 C1586 1.350 . S
C1581 N1589 1.427 . S
C1582 H1573 0.930 . S
C1582 C1580 1.378 1_565 S
C1582 C1583 1.367 . S
C1583 C1582 1.367 . S
C1583 C1585 1.433 . S
C1584 C1580 1.350 . S
C1584 C1581 1.463 . S
C1584 N1588 1.435 . S
C1585 H1575 0.929 . S
C1585 C1583 1.433 . S
C1585 N1588 1.370 1_565 S
C1586 H1577 0.929 . S
C1586 C1578 1.378 . S
C1586 C1581 1.350 . S
C1587 H1574 0.929 . S
C1587 C1579 1.433 . S
C1587 N1589 1.384 . S
N1588 C1584 1.435 . S
N1588 C1585 1.370 1_545 S
N1589 C1581 1.427 . S
N1589 C1587 1.384 . S
H1590 C1596 0.930 . S
H1591 C1600 0.930 . S
H1592 C1605 0.929 . S
H1593 C1603 0.929 . S
H1594 C1598 0.929 . S
H1595 C1604 0.929 . S
C1596 H1590 0.930 . S
C1596 C1597 1.367 . S
C1596 C1604 1.378 . S
C1597 C1596 1.367 . S
C1597 C1605 1.433 . S
C1598 H1594 0.929 . S
C1598 C1600 1.378 . S
C1598 C1602 1.350 . S
C1599 C1602 1.463 . S
C1599 C1604 1.350 . S
C1599 N1607 1.427 . S
C1600 H1591 0.930 . S
C1600 C1598 1.378 . S
C1600 C1601 1.367 . S
C1601 C1600 1.367 . S
C1601 C1603 1.433 . S
C1602 C1598 1.350 . S
C1602 C1599 1.463 . S
C1602 N1606 1.427 . S
C1603 H1593 0.929 . S
C1603 C1601 1.433 . S
C1603 N1606 1.384 . S
C1604 H1595 0.929 . S
C1604 C1596 1.378 . S
C1604 C1599 1.350 . S
C1605 H1592 0.929 . S
C1605 C1597 1.433 . S
C1605 N1607 1.384 . S
N1606 C1602 1.427 . S
N1606 C1603 1.384 . S
N1607 C1599 1.427 . S
N1607 C1605 1.384 . S
H1608 C1614 0.930 . S
H1609 C1618 0.930 . S
H1610 C1623 0.929 . S
H1611 C1621 0.929 . S
H1612 C1616 0.929 . S
H1613 C1622 0.929 . S
C1614 H1608 0.930 . S
C1614 C1615 1.367 . S
C1614 C1622 1.378 1_655 S
C1615 C1614 1.367 . S
C1615 C1623 1.433 1_545 S
C1616 H1612 0.929 . S
C1616 C1618 1.378 . S
C1616 C1620 1.350 . S
C1617 C1620 1.463 . S
C1617 C1622 1.350 1_565 S
C1617 N1625 1.427 1_455 S
C1618 H1609 0.930 . S
C1618 C1616 1.378 . S
C1618 C1619 1.367 . S
C1619 C1618 1.367 . S
C1619 C1621 1.433 . S
C1620 C1616 1.350 . S
C1620 C1617 1.463 . S
C1620 N1624 1.427 . S
C1621 H1611 0.929 . S
C1621 C1619 1.433 . S
C1621 N1624 1.384 . S
C1622 H1613 0.929 . S
C1622 C1614 1.378 1_455 S
C1622 C1617 1.350 1_545 S
C1623 H1610 0.929 . S
C1623 C1615 1.433 1_565 S
C1623 N1625 1.384 . S
N1624 C1620 1.427 . S
N1624 C1621 1.384 . S
N1625 C1617 1.427 1_655 S
N1625 C1623 1.384 . S
H1626 C1632 0.930 . S
H1627 C1636 0.930 . S
H1628 C1641 0.929 . S
H1629 C1639 0.929 . S
H1630 C1634 0.929 . S
H1631 C1640 0.929 . S
C1632 H1626 0.930 . S
C1632 C1633 1.367 . S
C1632 C1640 1.378 . S
C1633 C1632 1.367 . S
C1633 C1641 1.433 . S
C1634 H1630 0.929 . S
C1634 C1636 1.378 . S
C1634 C1638 1.350 . S
C1635 C1638 1.463 . S
C1635 C1640 1.350 . S
C1635 N1643 1.427 . S
C1636 H1627 0.930 . S
C1636 C1634 1.378 . S
C1636 C1637 1.367 . S
C1637 C1636 1.367 . S
C1637 C1639 1.433 . S
C1638 C1634 1.350 . S
C1638 C1635 1.463 . S
C1638 N1642 1.427 . S
C1639 H1629 0.929 . S
C1639 C1637 1.433 . S
C1639 N1642 1.384 . S
C1640 H1631 0.929 . S
C1640 C1632 1.378 . S
C1640 C1635 1.350 . S
C1641 H1628 0.929 . S
C1641 C1633 1.433 . S
C1641 N1643 1.384 . S
N1642 C1638 1.427 . S
N1642 C1639 1.384 . S
N1643 C1635 1.427 . S
N1643 C1641 1.384 . S
H1644 C1650 0.930 . S
H1645 C1654 0.930 . S
H1646 C1659 0.929 . S
H1647 C1657 0.929 . S
H1648 C1652 0.929 . S
H1649 C1658 0.933 . S
C1650 H1644 0.930 . S
C1650 C1651 1.367 . S
C1650 C1658 1.378 . S
C1651 C1650 1.367 . S
C1651 C1659 1.433 . S
C1652 H1648 0.929 . S
C1652 C1654 1.378 . S
C1652 C1656 1.350 . S
C1653 C1656 1.463 . S
C1653 C1658 1.350 1_655 S
C1653 N1661 1.427 . S
C1654 H1645 0.930 . S
C1654 C1652 1.378 . S
C1654 C1655 1.367 . S
C1655 C1654 1.367 . S
C1655 C1657 1.433 . S
C1656 C1652 1.350 . S
C1656 C1653 1.463 . S
C1656 N1660 1.427 . S
C1657 H1647 0.929 . S
C1657 C1655 1.433 . S
C1657 N1660 1.384 . S
C1658 H1649 0.933 . S
C1658 C1650 1.378 . S
C1658 C1653 1.350 1_455 S
C1659 H1646 0.929 . S
C1659 C1651 1.433 . S
C1659 N1661 1.384 1_455 S
N1660 C1656 1.427 . S
N1660 C1657 1.384 . S
N1661 C1653 1.427 . S
N1661 C1659 1.384 1_655 S
H1662 C1668 0.930 . S
H1663 C1672 0.930 . S
H1664 C1677 0.929 . S
H1665 C1675 0.929 . S
H1666 C1670 0.929 . S
H1667 C1676 0.929 . S
C1668 H1662 0.930 . S
C1668 C1669 1.367 . S
C1668 C1676 1.378 . S
C1669 C1668 1.367 . S
C1669 C1677 1.433 . S
C1670 H1666 0.929 . S
C1670 C1672 1.378 . S
C1670 C1674 1.350 . S
C1671 C1674 1.463 . S
C1671 C1676 1.350 . S
C1671 N1679 1.427 . S
C1672 H1663 0.930 . S
C1672 C1670 1.378 . S
C1672 C1673 1.367 . S
C1673 C1672 1.367 . S
C1673 C1675 1.433 . S
C1674 C1670 1.350 . S
C1674 C1671 1.463 . S
C1674 N1678 1.427 . S
C1675 H1665 0.929 . S
C1675 C1673 1.433 . S
C1675 N1678 1.384 . S
C1676 H1667 0.929 . S
C1676 C1668 1.378 . S
C1676 C1671 1.350 . S
C1677 H1664 0.929 . S
C1677 C1669 1.433 . S
C1677 N1679 1.384 . S
N1678 C1674 1.427 . S
N1678 C1675 1.384 . S
N1679 C1671 1.427 . S
N1679 C1677 1.384 . S
H1680 C1686 0.930 . S
H1681 C1690 0.930 . S
H1682 C1695 0.929 . S
H1683 C1693 0.929 . S
H1684 C1688 0.929 . S
H1685 C1694 0.929 . S
C1686 H1680 0.930 . S
C1686 C1687 1.367 . S
C1686 C1694 1.378 . S
C1687 C1686 1.367 . S
C1687 C1695 1.433 . S
C1688 H1684 0.929 . S
C1688 C1690 1.378 . S
C1688 C1692 1.350 . S
C1689 C1692 1.463 1_655 S
C1689 C1694 1.350 . S
C1689 N1697 1.427 . S
C1690 H1681 0.930 . S
C1690 C1688 1.378 . S
C1690 C1691 1.367 . S
C1691 C1690 1.367 . S
C1691 C1693 1.433 . S
C1692 C1688 1.350 . S
C1692 C1689 1.463 1_455 S
C1692 N1696 1.427 . S
C1693 H1683 0.929 . S
C1693 C1691 1.433 . S
C1693 N1696 1.384 . S
C1694 H1685 0.929 . S
C1694 C1686 1.378 . S
C1694 C1689 1.350 . S
C1695 H1682 0.929 . S
C1695 C1687 1.433 . S
C1695 N1697 1.384 . S
N1696 C1692 1.427 . S
N1696 C1693 1.384 . S
N1697 C1689 1.427 . S
N1697 C1695 1.384 . S
H1698 C1704 0.930 . S
H1699 C1708 0.930 . S
H1700 C1713 0.929 . S
H1701 C1711 0.929 . S
H1702 C1706 0.929 . S
H1703 C1712 0.929 . S
C1704 H1698 0.930 . S
C1704 C1705 1.367 . S
C1704 C1712 1.378 . S
C1705 C1704 1.367 . S
C1705 C1713 1.433 . S
C1706 H1702 0.929 . S
C1706 C1708 1.378 . S
C1706 C1710 1.350 . S
C1707 C1710 1.463 1_554 S
C1707 C1712 1.350 . S
C1707 N1715 1.427 . S
C1708 H1699 0.930 . S
C1708 C1706 1.378 . S
C1708 C1709 1.367 . S
C1709 C1708 1.367 . S
C1709 C1711 1.433 . S
C1710 C1706 1.350 . S
C1710 C1707 1.463 1_556 S
C1710 N1714 1.427 . S
C1711 H1701 0.929 . S
C1711 C1709 1.433 . S
C1711 N1714 1.384 . S
C1712 H1703 0.929 . S
C1712 C1704 1.378 . S
C1712 C1707 1.350 . S
C1713 H1700 0.929 . S
C1713 C1705 1.433 . S
C1713 N1715 1.384 . S
N1714 C1710 1.427 . S
N1714 C1711 1.384 . S
N1715 C1707 1.427 . S
N1715 C1713 1.384 . S
H1716 C1722 0.930 . S
H1717 C1726 0.930 . S
H1718 C1731 0.929 . S
H1719 C1729 0.929 . S
H1720 C1724 0.929 . S
H1721 C1730 0.929 . S
C1722 H1716 0.930 . S
C1722 C1723 1.367 . S
C1722 C1730 1.378 . S
C1723 C1722 1.367 . S
C1723 C1731 1.433 . S
C1724 H1720 0.929 . S
C1724 C1726 1.378 . S
C1724 C1728 1.350 . S
C1725 C1728 1.463 . S
C1725 C1730 1.350 . S
C1725 N1733 1.427 . S
C1726 H1717 0.930 . S
C1726 C1724 1.378 . S
C1726 C1727 1.367 . S
C1727 C1726 1.367 . S
C1727 C1729 1.433 . S
C1728 C1724 1.350 . S
C1728 C1725 1.463 . S
C1728 N1732 1.427 . S
C1729 H1719 0.929 . S
C1729 C1727 1.433 . S
C1729 N1732 1.384 . S
C1730 H1721 0.929 . S
C1730 C1722 1.378 . S
C1730 C1725 1.350 . S
C1731 H1718 0.929 . S
C1731 C1723 1.433 . S
C1731 N1733 1.384 . S
N1732 C1728 1.427 . S
N1732 C1729 1.384 . S
N1733 C1725 1.427 . S
N1733 C1731 1.384 . S
H1734 C1740 0.930 . S
H1735 C1744 0.930 . S
H1736 C1749 0.929 . S
H1737 C1747 0.929 . S
H1738 C1742 0.929 . S
H1739 C1748 0.929 . S
C1740 H1734 0.930 . S
C1740 C1741 1.367 . S
C1740 C1748 1.378 . S
C1741 C1740 1.367 . S
C1741 C1749 1.433 . S
C1742 H1738 0.929 . S
C1742 C1744 1.378 . S
C1742 C1746 1.350 . S
C1743 C1746 1.463 . S
C1743 C1748 1.350 . S
C1743 N1751 1.427 . S
C1744 H1735 0.930 . S
C1744 C1742 1.378 . S
C1744 C1745 1.367 . S
C1745 C1744 1.367 . S
C1745 C1747 1.433 . S
C1746 C1742 1.350 . S
C1746 C1743 1.463 . S
C1746 N1750 1.427 . S
C1747 H1737 0.929 . S
C1747 C1745 1.433 . S
C1747 N1750 1.384 . S
C1748 H1739 0.929 . S
C1748 C1740 1.378 . S
C1748 C1743 1.350 . S
C1749 H1736 0.929 . S
C1749 C1741 1.433 . S
C1749 N1751 1.384 . S
N1750 C1746 1.427 . S
N1750 C1747 1.384 . S
N1751 C1743 1.427 . S
N1751 C1749 1.384 . S
H1752 C1758 0.930 . S
H1753 C1762 0.930 . S
H1754 C1767 0.929 . S
H1755 C1765 0.929 . S
H1756 C1760 0.929 . S
H1757 C1766 0.929 . S
C1758 H1752 0.930 . S
C1758 C1759 1.367 . S
C1758 C1766 1.378 . S
C1759 C1758 1.367 . S
C1759 C1767 1.433 . S
C1760 H1756 0.929 . S
C1760 C1762 1.378 . S
C1760 C1764 1.350 . S
C1761 C1764 1.463 . S
C1761 C1766 1.350 . S
C1761 N1769 1.427 . S
C1762 H1753 0.930 . S
C1762 C1760 1.378 . S
C1762 C1763 1.367 . S
C1763 C1762 1.367 . S
C1763 C1765 1.433 . S
C1764 C1760 1.350 . S
C1764 C1761 1.463 . S
C1764 N1768 1.427 . S
C1765 H1755 0.929 . S
C1765 C1763 1.433 . S
C1765 N1768 1.384 . S
C1766 H1757 0.929 . S
C1766 C1758 1.378 . S
C1766 C1761 1.350 . S
C1767 H1754 0.929 . S
C1767 C1759 1.433 . S
C1767 N1769 1.384 . S
N1768 C1764 1.427 . S
N1768 C1765 1.384 . S
N1769 C1761 1.427 . S
N1769 C1767 1.384 . S
H1770 C1776 0.930 . S
H1771 C1780 0.930 . S
H1772 C1785 0.929 . S
H1773 C1783 0.929 . S
H1774 C1778 0.929 . S
H1775 C1784 0.929 . S
C1776 H1770 0.930 . S
C1776 C1777 1.367 . S
C1776 C1784 1.378 . S
C1777 C1776 1.367 . S
C1777 C1785 1.433 . S
C1778 H1774 0.929 . S
C1778 C1780 1.378 . S
C1778 C1782 1.350 . S
C1779 C1782 1.463 . S
C1779 C1784 1.350 . S
C1779 N1787 1.427 . S
C1780 H1771 0.930 . S
C1780 C1778 1.378 . S
C1780 C1781 1.367 . S
C1781 C1780 1.367 . S
C1781 C1783 1.433 . S
C1782 C1778 1.350 . S
C1782 C1779 1.463 . S
C1782 N1786 1.427 . S
C1783 H1773 0.929 . S
C1783 C1781 1.433 . S
C1783 N1786 1.384 . S
C1784 H1775 0.929 . S
C1784 C1776 1.378 . S
C1784 C1779 1.350 . S
C1785 H1772 0.929 . S
C1785 C1777 1.433 . S
C1785 N1787 1.384 . S
N1786 C1782 1.427 . S
N1786 C1783 1.384 . S
N1787 C1779 1.427 . S
N1787 C1785 1.384 . S
H1788 C1794 0.930 . S
H1789 C1798 0.930 . S
H1790 C1803 0.929 . S
H1791 C1801 0.929 . S
H1792 C1796 0.929 1_655 S
H1793 C1802 0.950 . S
C1794 H1788 0.930 . S
C1794 C1795 1.367 . S
C1794 C1802 1.362 1_655 S
C1795 C1794 1.367 . S
C1795 C1803 1.433 . S
C1796 H1792 0.929 1_455 S
C1796 C1798 1.378 . S
C1796 C1800 1.350 . S
C1797 C1800 1.463 1_655 S
C1797 C1802 1.344 1_655 S
C1797 N1805 1.427 . S
C1798 H1789 0.930 . S
C1798 C1796 1.378 . S
C1798 C1799 1.367 . S
C1799 C1798 1.367 . S
C1799 C1801 1.433 . S
C1800 C1796 1.350 . S
C1800 C1797 1.463 1_455 S
C1800 N1804 1.427 . S
C1801 H1791 0.929 . S
C1801 C1799 1.433 . S
C1801 N1804 1.384 . S
C1802 H1793 0.950 . S
C1802 C1794 1.362 1_455 S
C1802 C1797 1.344 1_455 S
C1803 H1790 0.929 . S
C1803 C1795 1.433 . S
C1803 N1805 1.384 . S
N1804 C1800 1.427 . S
N1804 C1801 1.384 . S
N1805 C1797 1.427 . S
N1805 C1803 1.384 . S
H1806 C1812 0.930 . S
H1807 C1816 0.930 . S
H1808 C1821 0.929 . S
H1809 C1819 0.929 . S
H1810 C1814 0.929 1_554 S
H1811 C1820 0.929 . S
C1812 H1806 0.930 . S
C1812 C1813 1.367 . S
C1812 C1820 1.378 1_554 S
C1813 C1812 1.367 . S
C1813 C1821 1.433 . S
C1814 H1810 0.929 1_556 S
C1814 C1816 1.378 . S
C1814 C1818 1.350 . S
C1815 C1818 1.463 1_554 S
C1815 C1820 1.350 1_554 S
C1815 N1823 1.427 . S
C1816 H1807 0.930 . S
C1816 C1814 1.378 . S
C1816 C1817 1.367 . S
C1817 C1816 1.367 . S
C1817 C1819 1.433 . S
C1818 C1814 1.350 . S
C1818 C1815 1.463 1_556 S
C1818 N1822 1.427 . S
C1819 H1809 0.929 . S
C1819 C1817 1.433 . S
C1819 N1822 1.384 . S
C1820 H1811 0.929 . S
C1820 C1812 1.378 1_556 S
C1820 C1815 1.350 1_556 S
C1821 H1808 0.929 . S
C1821 C1813 1.433 . S
C1821 N1823 1.384 . S
N1822 C1818 1.427 . S
N1822 C1819 1.384 . S
N1823 C1815 1.427 . S
N1823 C1821 1.384 . S
H1824 C1830 0.930 . S
H1825 C1834 0.930 . S
H1826 C1839 0.929 . S
H1827 C1837 0.929 . S
H1828 C1832 0.929 . S
H1829 C1838 0.929 . S
C1830 H1824 0.930 . S
C1830 C1831 1.367 . S
C1830 C1838 1.378 . S
C1831 C1830 1.367 . S
C1831 C1839 1.433 . S
C1832 H1828 0.929 . S
C1832 C1834 1.378 . S
C1832 C1836 1.350 . S
C1833 C1836 1.463 1_565 S
C1833 C1838 1.350 . S
C1833 N1841 1.427 . S
C1834 H1825 0.930 . S
C1834 C1832 1.378 . S
C1834 C1835 1.367 . S
C1835 C1834 1.367 . S
C1835 C1837 1.433 . S
C1836 C1832 1.350 . S
C1836 C1833 1.463 1_545 S
C1836 N1840 1.427 1_545 S
C1837 H1827 0.929 . S
C1837 C1835 1.433 . S
C1837 N1840 1.384 1_545 S
C1838 H1829 0.929 . S
C1838 C1830 1.378 . S
C1838 C1833 1.350 . S
C1839 H1826 0.929 . S
C1839 C1831 1.433 . S
C1839 N1841 1.384 . S
N1840 C1836 1.427 1_565 S
N1840 C1837 1.384 1_565 S
N1841 C1833 1.427 . S
N1841 C1839 1.384 . S
H1842 C1848 0.930 . S
H1843 C1852 0.930 . S
H1844 C1857 0.929 . S
H1845 C1855 0.929 . S
H1846 C1850 0.929 . S
H1847 C1856 0.929 . S
C1848 H1842 0.930 . S
C1848 C1849 1.367 . S
C1848 C1856 1.378 . S
C1849 C1848 1.367 . S
C1849 C1857 1.433 . S
C1850 H1846 0.929 . S
C1850 C1852 1.378 . S
C1850 C1854 1.350 . S
C1851 C1854 1.463 . S
C1851 C1856 1.350 . S
C1851 N1859 1.427 . S
C1852 H1843 0.930 . S
C1852 C1850 1.378 . S
C1852 C1853 1.367 . S
C1853 C1852 1.367 . S
C1853 C1855 1.433 . S
C1854 C1850 1.350 . S
C1854 C1851 1.463 . S
C1854 N1858 1.427 . S
C1855 H1845 0.929 . S
C1855 C1853 1.433 . S
C1855 N1858 1.384 . S
C1856 H1847 0.929 . S
C1856 C1848 1.378 . S
C1856 C1851 1.350 . S
C1857 H1844 0.929 . S
C1857 C1849 1.433 . S
C1857 N1859 1.384 . S
N1858 C1854 1.427 . S
N1858 C1855 1.384 . S
N1859 C1851 1.427 . S
N1859 C1857 1.384 . S
H1860 C1866 0.930 . S
H1861 C1870 0.930 . S
H1862 C1875 0.929 . S
H1863 C1873 0.929 . S
H1864 C1868 0.929 . S
H1865 C1874 0.929 . S
C1866 H1860 0.930 . S
C1866 C1867 1.367 . S
C1866 C1874 1.378 . S
C1867 C1866 1.367 . S
C1867 C1875 1.433 . S
C1868 H1864 0.929 . S
C1868 C1870 1.378 . S
C1868 C1872 1.350 . S
C1869 C1872 1.463 1_545 S
C1869 C1874 1.350 . S
C1869 N1877 1.427 . S
C1870 H1861 0.930 . S
C1870 C1868 1.378 . S
C1870 C1871 1.367 . S
C1871 C1870 1.367 . S
C1871 C1873 1.433 . S
C1872 C1868 1.350 . S
C1872 C1869 1.463 1_565 S
C1872 N1876 1.427 1_565 S
C1873 H1863 0.929 . S
C1873 C1871 1.433 . S
C1873 N1876 1.384 1_565 S
C1874 H1865 0.929 . S
C1874 C1866 1.378 . S
C1874 C1869 1.350 . S
C1875 H1862 0.929 . S
C1875 C1867 1.433 . S
C1875 N1877 1.384 . S
N1876 C1872 1.427 1_545 S
N1876 C1873 1.384 1_545 S
N1877 C1869 1.427 . S
N1877 C1875 1.384 . S
H1878 C1884 0.930 . S
H1879 C1888 0.930 . S
H1880 C1893 0.929 . S
H1881 C1891 0.929 . S
H1882 C1886 0.929 . S
H1883 C1892 0.929 . S
C1884 H1878 0.930 . S
C1884 C1885 1.367 . S
C1884 C1892 1.378 . S
C1885 C1884 1.367 . S
C1885 C1893 1.433 . S
C1886 H1882 0.929 . S
C1886 C1888 1.378 . S
C1886 C1890 1.350 . S
C1887 C1890 1.463 . S
C1887 C1892 1.350 . S
C1887 N1895 1.427 . S
C1888 H1879 0.930 . S
C1888 C1886 1.378 . S
C1888 C1889 1.367 . S
C1889 C1888 1.367 . S
C1889 C1891 1.433 . S
C1890 C1886 1.350 . S
C1890 C1887 1.463 . S
C1890 N1894 1.427 . S
C1891 H1881 0.929 . S
C1891 C1889 1.433 . S
C1891 N1894 1.384 . S
C1892 H1883 0.929 . S
C1892 C1884 1.378 . S
C1892 C1887 1.350 . S
C1893 H1880 0.929 . S
C1893 C1885 1.433 . S
C1893 N1895 1.384 . S
N1894 C1890 1.427 . S
N1894 C1891 1.384 . S
N1895 C1887 1.427 . S
N1895 C1893 1.384 . S
C823 C451 1.495 . S
C827 C20 1.637 . S
C841 C54 1.629 . S
C845 C485 1.512 . S
C859 C88 1.627 . S
C863 C519 1.517 . S
C877 C417 1.512 . S
C881 C122 1.630 . S
C895 C383 1.511 . S
C899 C156 1.630 . S
C913 C281 1.499 1_565 S
C917 C190 1.634 . S
C931 C224 1.635 . S
C935 C315 1.498 . S
C949 C349 1.516 1_545 S
C953 C258 1.627 . S
C967 C292 1.628 . S
C971 C43 1.516 . S
C985 C326 1.634 . S
C989 C77 1.501 . S
C1003 C360 1.636 . S
C1007 C111 1.498 . S
C1021 C9 1.504 1_655 S
C1025 C394 1.633 . S
C1039 C247 1.513 . S
C1043 C428 1.629 . S
C1057 C462 1.633 . S
C1061 C145 1.503 . S
C1075 C496 1.636 . S
C1079 C179 1.498 . S
C1093 C213 1.513 1_455 S
C1097 C530 1.629 . S
C1111 C757 1.515 . S
C1115 C564 1.628 . S
C1129 C598 1.630 . S
C1133 C621 1.511 . S
C1147 C632 1.627 . S
C1151 C655 1.516 . S
C1165 C689 1.511 . S
C1169 C666 1.630 . S
C1183 C700 1.634 . S
C1187 C587 1.502 1_554 S
C1201 C791 1.495 . S
C1205 C734 1.637 . S
C1219 C768 1.635 . S
C1223 C723 1.499 . S
C1237 C553 1.501 1_556 S
C1241 C802 1.634 . S
C1255 C549 1.225 . S
C1259 C33 1.229 . S
C1273 C787 1.216 . S
C1277 C67 1.219 . S
C1291 C101 1.229 . S
C1295 C719 1.227 . S
C1309 C753 1.227 . S
C1313 C135 1.225 . S
C1327 C583 1.219 . S
C1331 C169 1.218 . S
C1345 C617 1.228 . S
C1349 C203 1.228 . S
C1363 C651 1.223 . S
C1367 C237 1.228 . S
C1381 C271 1.221 . S
C1385 C685 1.224 . S
C1399 C305 1.229 . S
C1403 C5 1.226 . S
C1417 C339 1.217 . S
C1421 C39 1.218 . S
C1435 C373 1.221 . S
C1439 C73 1.217 . S
C1453 C407 1.227 . S
C1457 C107 1.222 . S
C1471 C441 1.221 . S
C1475 C141 1.217 . S
C1489 C175 1.222 . S
C1493 C475 1.220 . S
C1507 C209 1.226 . S
C1511 C509 1.223 . S
C1525 C543 1.229 . S
C1529 C243 1.225 . S
C1543 C277 1.228 . S
C1547 C577 1.228 . S
C1561 C413 1.216 . S
C1565 C611 1.218 . S
C1579 C447 1.228 . S
C1583 C645 1.228 . S
C1597 C481 1.216 . S
C1601 C679 1.219 . S
C1615 C713 1.217 . S
C1619 C515 1.216 . S
C1633 C747 1.229 . S
C1637 C345 1.225 . S
C1651 C781 1.226 . S
C1655 C379 1.221 . S
C1669 C311 1.217 . S
C1673 C815 1.221 . S
C1687 C682 1.189 . S
C1691 C2 1.183 . S
C1705 C36 1.189 . S
C1709 C580 1.183 . S
C1723 C614 1.186 . S
C1727 C70 1.184 . S
C1741 C104 1.183 . S
C1745 C648 1.189 . S
C1759 C784 1.189 . S
C1763 C138 1.183 . S
C1777 C716 1.186 . S
C1781 C172 1.184 . S
C1795 C206 1.190 . S
C1799 C750 1.183 . S
C1813 C546 1.189 . S
C1817 C240 1.182 . S
C1831 C512 1.190 . S
C1835 C274 1.183 . S
C1849 C410 1.184 . S
C1853 C308 1.189 . S
C1867 C444 1.190 . S
C1871 C342 1.183 . S
C1885 C478 1.185 . S
C1889 C376 1.186 . S
