# Generated by pormake.
# Topology zfp, (5)-cn, num edge types: 1
# Building blocks:
#     Node 0, Type 0, BuildingBlock: XOMCOT_clean_sbu_0, # of connection points: 5
#     Node 1, Type 0, BuildingBlock: XOMCOT_clean_sbu_0, # of connection points: 5
#     Node 2, Type 0, BuildingBlock: XOMCOT_clean_sbu_0, # of connection points: 5
#     Node 3, Type 0, BuildingBlock: XOMCOT_clean_sbu_0, # of connection points: 5
#     Node 4, Type 0, BuildingBlock: XOMCOT_clean_sbu_0, # of connection points: 5
#     Node 5, Type 0, BuildingBlock: XOMCOT_clean_sbu_0, # of connection points: 5
#     Node 6, Type 0, BuildingBlock: XOMCOT_clean_sbu_0, # of connection points: 5
#     Node 7, Type 0, BuildingBlock: XOMCOT_clean_sbu_0, # of connection points: 5
#     Node 8, Type 0, BuildingBlock: XOMCOT_clean_sbu_0, # of connection points: 5
#     Node 9, Type 0, BuildingBlock: XOMCOT_clean_sbu_0, # of connection points: 5
#     Node 10, Type 0, BuildingBlock: XOMCOT_clean_sbu_0, # of connection points: 5
#     Node 11, Type 0, BuildingBlock: XOMCOT_clean_sbu_0, # of connection points: 5
#     Node 12, Type 0, BuildingBlock: XOMCOT_clean_sbu_0, # of connection points: 5
#     Node 13, Type 0, BuildingBlock: XOMCOT_clean_sbu_0, # of connection points: 5
#     Node 14, Type 0, BuildingBlock: XOMCOT_clean_sbu_0, # of connection points: 5
#     Node 15, Type 0, BuildingBlock: XOMCOT_clean_sbu_0, # of connection points: 5
#     Edge 16, Type (0, 0), BuildingBlock: CIFDUS_clean_linker_0, # of connection points: 2
#     Edge 17, Type (0, 0), BuildingBlock: CIFDUS_clean_linker_0, # of connection points: 2
#     Edge 18, Type (0, 0), BuildingBlock: CIFDUS_clean_linker_0, # of connection points: 2
#     Edge 19, Type (0, 0), BuildingBlock: CIFDUS_clean_linker_0, # of connection points: 2
#     Edge 20, Type (0, 0), BuildingBlock: CIFDUS_clean_linker_0, # of connection points: 2
#     Edge 21, Type (0, 0), BuildingBlock: CIFDUS_clean_linker_0, # of connection points: 2
#     Edge 22, Type (0, 0), BuildingBlock: CIFDUS_clean_linker_0, # of connection points: 2
#     Edge 23, Type (0, 0), BuildingBlock: CIFDUS_clean_linker_0, # of connection points: 2
#     Edge 24, Type (0, 0), BuildingBlock: CIFDUS_clean_linker_0, # of connection points: 2
#     Edge 25, Type (0, 0), BuildingBlock: CIFDUS_clean_linker_0, # of connection points: 2
#     Edge 26, Type (0, 0), BuildingBlock: CIFDUS_clean_linker_0, # of connection points: 2
#     Edge 27, Type (0, 0), BuildingBlock: CIFDUS_clean_linker_0, # of connection points: 2
#     Edge 28, Type (0, 0), BuildingBlock: CIFDUS_clean_linker_0, # of connection points: 2
#     Edge 29, Type (0, 0), BuildingBlock: CIFDUS_clean_linker_0, # of connection points: 2
#     Edge 30, Type (0, 0), BuildingBlock: CIFDUS_clean_linker_0, # of connection points: 2
#     Edge 31, Type (0, 0), BuildingBlock: CIFDUS_clean_linker_0, # of connection points: 2
#     Edge 32, Type (0, 0), BuildingBlock: CIFDUS_clean_linker_0, # of connection points: 2
#     Edge 33, Type (0, 0), BuildingBlock: CIFDUS_clean_linker_0, # of connection points: 2
#     Edge 34, Type (0, 0), BuildingBlock: CIFDUS_clean_linker_0, # of connection points: 2
#     Edge 35, Type (0, 0), BuildingBlock: CIFDUS_clean_linker_0, # of connection points: 2
#     Edge 36, Type (0, 0), BuildingBlock: CIFDUS_clean_linker_0, # of connection points: 2
#     Edge 37, Type (0, 0), BuildingBlock: CIFDUS_clean_linker_0, # of connection points: 2
#     Edge 38, Type (0, 0), BuildingBlock: CIFDUS_clean_linker_0, # of connection points: 2
#     Edge 39, Type (0, 0), BuildingBlock: CIFDUS_clean_linker_0, # of connection points: 2
#     Edge 40, Type (0, 0), BuildingBlock: CIFDUS_clean_linker_0, # of connection points: 2
#     Edge 41, Type (0, 0), BuildingBlock: CIFDUS_clean_linker_0, # of connection points: 2
#     Edge 42, Type (0, 0), BuildingBlock: CIFDUS_clean_linker_0, # of connection points: 2
#     Edge 43, Type (0, 0), BuildingBlock: CIFDUS_clean_linker_0, # of connection points: 2
#     Edge 44, Type (0, 0), BuildingBlock: CIFDUS_clean_linker_0, # of connection points: 2
#     Edge 45, Type (0, 0), BuildingBlock: CIFDUS_clean_linker_0, # of connection points: 2
#     Edge 46, Type (0, 0), BuildingBlock: CIFDUS_clean_linker_0, # of connection points: 2
#     Edge 47, Type (0, 0), BuildingBlock: CIFDUS_clean_linker_0, # of connection points: 2
#     Edge 48, Type (0, 0), BuildingBlock: CIFDUS_clean_linker_0, # of connection points: 2
#     Edge 49, Type (0, 0), BuildingBlock: CIFDUS_clean_linker_0, # of connection points: 2
#     Edge 50, Type (0, 0), BuildingBlock: CIFDUS_clean_linker_0, # of connection points: 2
#     Edge 51, Type (0, 0), BuildingBlock: CIFDUS_clean_linker_0, # of connection points: 2
#     Edge 52, Type (0, 0), BuildingBlock: CIFDUS_clean_linker_0, # of connection points: 2
#     Edge 53, Type (0, 0), BuildingBlock: CIFDUS_clean_linker_0, # of connection points: 2
#     Edge 54, Type (0, 0), BuildingBlock: CIFDUS_clean_linker_0, # of connection points: 2
#     Edge 55, Type (0, 0), BuildingBlock: CIFDUS_clean_linker_0, # of connection points: 2
# Relax obj value: 0.355
# Max RMSD: 0.240
# Mean RMSD: 0.240
data_MOF--net-zfp--node1-XOMCOT_clean_sbu_0--edge1-CIFDUS_clean_linker_0
_symmetry_space_group_name_H-M    P1
_symmetry_Int_Tables_number       1
_symmetry_cell_setting            triclinic
loop_
_symmetry_equiv_pos_as_xyz
'x, y, z'
_cell_length_a     25.883795
_cell_length_b     25.896273
_cell_length_c     62.725132
_cell_angle_alpha  89.862698
_cell_angle_beta   90.141319
_cell_angle_gamma 90.009398
loop_
_atom_site_label
_atom_site_type_symbol
_atom_site_fract_x
_atom_site_fract_y
_atom_site_fract_z
_atom_type_partial_charge
Co0 Co 0.25019 0.29412 0.14019 0.0
C1 C 0.26079 0.27303 0.18674 0.0
C2 C 0.23499 0.20632 0.16945 0.0
C3 C 0.23599 0.19458 0.19092 0.0
N4 N 0.2502 0.25556 0.16683 0.0
N5 N 0.25192 0.2366 0.20188 0.0
H6 H 0.27264 0.31223 0.19012 0.0
H7 H 0.22287 0.18106 0.15668 0.0
C8 C 0.14238 0.28567 0.12272 0.0
O9 O 0.1498 0.33282 0.1156 0.0
N10 N 0.25161 0.33192 0.11295 0.0
C11 C 0.26115 0.38255 0.10948 0.0
C12 C 0.26667 0.39112 0.08798 0.0
C13 C 0.2519 0.31053 0.09313 0.0
N14 N 0.26078 0.34604 0.07766 0.0
C15 C 0.23847 0.39493 0.15977 0.0
C16 C 0.13762 0.3798 0.17249 0.0
C17 C 0.15857 0.42965 0.17403 0.0
C18 C 0.21108 0.43595 0.16884 0.0
C19 C 0.16687 0.34004 0.16393 0.0
N20 N 0.2143 0.34942 0.15525 0.0
H21 H 0.2788 0.40016 0.15596 0.0
H22 H 0.15048 0.30176 0.16396 0.0
H23 H 0.26684 0.41165 0.1214 0.0
H24 H 0.24875 0.26946 0.09023 0.0
O25 O 0.32125 0.31492 0.14546 0.0
O26 O 0.29851 0.24488 0.12777 0.0
O27 O 0.1801 0.26182 0.13195 0.0
C28 C 0.33563 0.27457 0.13474 0.0
H29 H 0.22538 0.15782 0.19789 0.0
H30 H 0.27689 0.42745 0.08052 0.0
H31 H 0.09813 0.37125 0.1768 0.0
H32 H 0.23062 0.47245 0.17118 0.0
Co33 Co 0.72751 0.26118 0.63902 0.0
C34 C 0.74341 0.28039 0.68598 0.0
C35 C 0.80733 0.24221 0.67132 0.0
C36 C 0.819 0.25007 0.69245 0.0
N37 N 0.75906 0.25938 0.66733 0.0
N38 N 0.77861 0.27384 0.70177 0.0
H39 H 0.7082 0.30181 0.68794 0.0
H40 H 0.83283 0.22568 0.65953 0.0
C41 C 0.75777 0.15123 0.64515 0.0
O42 O 0.73626 0.15661 0.66397 0.0
N43 N 0.69797 0.26541 0.61072 0.0
C44 C 0.65081 0.28486 0.60638 0.0
C45 C 0.64166 0.2807 0.58491 0.0
C46 C 0.71761 0.25062 0.59174 0.0
N47 N 0.68355 0.25941 0.57576 0.0
C48 C 0.63469 0.23997 0.66474 0.0
C49 C 0.61034 0.15121 0.64248 0.0
C50 C 0.5841 0.16194 0.6613 0.0
C51 C 0.59447 0.20814 0.67204 0.0
C52 C 0.64975 0.1836 0.63591 0.0
N53 N 0.66482 0.2249 0.64801 0.0
H54 H 0.64089 0.27646 0.67238 0.0
H55 H 0.67007 0.17367 0.62148 0.0
H56 H 0.62448 0.30009 0.61817 0.0
H57 H 0.75504 0.23267 0.58975 0.0
O58 O 0.7065 0.33234 0.64363 0.0
O59 O 0.78165 0.30842 0.63016 0.0
O60 O 0.76043 0.19039 0.6324 0.0
C61 C 0.75075 0.34595 0.63559 0.0
H62 H 0.8551 0.24014 0.70017 0.0
H63 H 0.60672 0.29199 0.5766 0.0
H64 H 0.60147 0.11701 0.63323 0.0
H65 H 0.5726 0.21889 0.68604 0.0
Co66 Co 0.80045 0.73315 0.14152 0.0
C67 C 0.77574 0.75394 0.1873 0.0
C68 C 0.82134 0.81425 0.17363 0.0
C69 C 0.81139 0.82649 0.19458 0.0
N70 N 0.80125 0.76734 0.16929 0.0
N71 N 0.783 0.7882 0.20327 0.0
H72 H 0.75091 0.72067 0.18858 0.0
H73 H 0.84144 0.83846 0.1623 0.0
C74 C 0.91038 0.76728 0.14571 0.0
O75 O 0.90753 0.74749 0.16496 0.0
N76 N 0.79644 0.70085 0.11372 0.0
C77 C 0.78096 0.65181 0.11047 0.0
C78 C 0.77251 0.64468 0.08909 0.0
C79 C 0.79675 0.72324 0.0942 0.0
N80 N 0.78215 0.68949 0.07888 0.0
C81 C 0.83134 0.64947 0.17092 0.0
C82 C 0.91582 0.62145 0.14684 0.0
C83 C 0.91211 0.60294 0.16774 0.0
C84 C 0.86772 0.615 0.17948 0.0
C85 C 0.87983 0.65667 0.13928 0.0
N86 N 0.84014 0.67348 0.15184 0.0
H87 H 0.79703 0.6569 0.17986 0.0
H88 H 0.88619 0.67316 0.12367 0.0
H89 H 0.7736 0.62395 0.12297 0.0
H90 H 0.80367 0.76395 0.09148 0.0
O91 O 0.73037 0.70931 0.14693 0.0
O92 O 0.75008 0.78394 0.13184 0.0
O93 O 0.86985 0.76787 0.13361 0.0
C94 C 0.71424 0.75179 0.13804 0.0
H95 H 0.82346 0.8614 0.20262 0.0
H96 H 0.75803 0.60982 0.08168 0.0
H97 H 0.94764 0.61058 0.13661 0.0
H98 H 0.86187 0.5994 0.19532 0.0
Co99 Co 0.30492 0.79266 0.6398 0.0
C100 C 0.27963 0.77337 0.68463 0.0
C101 C 0.21609 0.81063 0.66882 0.0
C102 C 0.20446 0.80547 0.69025 0.0
N103 N 0.26353 0.79097 0.66548 0.0
N104 N 0.24463 0.78214 0.70015 0.0
H105 H 0.31769 0.75727 0.6873 0.0
H106 H 0.19247 0.82897 0.65674 0.0
C107 C 0.30216 0.90215 0.62555 0.0
O108 O 0.35127 0.89478 0.62125 0.0
N109 N 0.3458 0.7908 0.61349 0.0
C110 C 0.38667 0.75946 0.61005 0.0
C111 C 0.40131 0.76268 0.58914 0.0
C112 C 0.33387 0.80964 0.5938 0.0
N113 N 0.36839 0.79433 0.57889 0.0
C114 C 0.41009 0.82077 0.65401 0.0
C115 C 0.377 0.90587 0.67668 0.0
C116 C 0.42943 0.90183 0.67171 0.0
C117 C 0.44633 0.85695 0.66127 0.0
C118 C 0.34231 0.87015 0.6685 0.0
N119 N 0.35839 0.83007 0.65592 0.0
H120 H 0.42411 0.78686 0.64621 0.0
H121 H 0.30176 0.87781 0.67087 0.0
H122 H 0.40305 0.7329 0.62151 0.0
H123 H 0.30047 0.8334 0.59039 0.0
O124 O 0.3245 0.7213 0.64534 0.0
O125 O 0.2567 0.74544 0.62626 0.0
O126 O 0.27456 0.86343 0.63169 0.0
C127 C 0.28474 0.70781 0.6339 0.0
H128 H 0.16949 0.8186 0.69795 0.0
H129 H 0.43241 0.7413 0.58175 0.0
H130 H 0.36213 0.93829 0.68564 0.0
H131 H 0.48672 0.85102 0.65759 0.0
Co132 Co 0.76201 0.24532 0.889 0.0
C133 C 0.77904 0.26622 0.84352 0.0
C134 C 0.74563 0.33221 0.85888 0.0
C135 C 0.7511 0.34291 0.8374 0.0
N136 N 0.7627 0.2839 0.86254 0.0
N137 N 0.77203 0.30124 0.82777 0.0
H138 H 0.79359 0.22747 0.84119 0.0
H139 H 0.72948 0.35741 0.87086 0.0
C140 C 0.6539 0.25026 0.90414 0.0
O141 O 0.66202 0.20214 0.90992 0.0
N142 N 0.7649 0.2081 0.91621 0.0
C143 C 0.7949 0.16674 0.9207 0.0
C144 C 0.79459 0.15764 0.94224 0.0
C145 C 0.74998 0.22574 0.93564 0.0
N146 N 0.76639 0.19467 0.95167 0.0
C147 C 0.73218 0.13913 0.87709 0.0
C148 C 0.64628 0.17078 0.85431 0.0
C149 C 0.6504 0.11877 0.86001 0.0
C150 C 0.69557 0.10252 0.87056 0.0
C151 C 0.68254 0.20589 0.86171 0.0
N152 N 0.72312 0.19065 0.87432 0.0
H153 H 0.76637 0.12565 0.88494 0.0
H154 H 0.67515 0.24625 0.85865 0.0
H155 H 0.81961 0.14703 0.90952 0.0
H156 H 0.72889 0.26132 0.93805 0.0
O157 O 0.83254 0.22403 0.88333 0.0
O158 O 0.81038 0.2944 0.90107 0.0
O159 O 0.69203 0.27712 0.89695 0.0
C160 C 0.84713 0.26496 0.89372 0.0
H161 H 0.74026 0.37852 0.82951 0.0
H162 H 0.81641 0.12804 0.95051 0.0
H163 H 0.61357 0.18505 0.84525 0.0
H164 H 0.70149 0.06241 0.8748 0.0
Co165 Co 0.80874 0.74979 0.39006 0.0
C166 C 0.78942 0.76895 0.34476 0.0
C167 C 0.7221 0.73649 0.35952 0.0
C168 C 0.71191 0.74433 0.33809 0.0
N169 N 0.7708 0.75184 0.36354 0.0
N170 N 0.7544 0.76483 0.32885 0.0
H171 H 0.82851 0.78292 0.34279 0.0
H172 H 0.69602 0.72055 0.37127 0.0
C173 C 0.79729 0.64217 0.40717 0.0
O174 O 0.8442 0.64906 0.41466 0.0
N175 N 0.84651 0.74998 0.41711 0.0
C176 C 0.8969 0.76077 0.42063 0.0
C177 C 0.90498 0.76719 0.44208 0.0
C178 C 0.82471 0.75055 0.43678 0.0
N179 N 0.85971 0.76094 0.45222 0.0
C180 C 0.90984 0.73209 0.37123 0.0
C181 C 0.88915 0.6318 0.35911 0.0
C182 C 0.94063 0.64874 0.35903 0.0
C183 C 0.95005 0.70111 0.36362 0.0
C184 C 0.85049 0.66461 0.36622 0.0
N185 N 0.86236 0.71131 0.37505 0.0
H186 H 0.91722 0.77231 0.37453 0.0
H187 H 0.81108 0.65113 0.36548 0.0
H188 H 0.92596 0.76747 0.4088 0.0
H189 H 0.78359 0.74711 0.43954 0.0
O190 O 0.83266 0.81985 0.38471 0.0
O191 O 0.76156 0.80048 0.40237 0.0
O192 O 0.77393 0.68063 0.39819 0.0
C193 C 0.79273 0.83618 0.39521 0.0
H194 H 0.6759 0.73582 0.33004 0.0
H195 H 0.94092 0.77858 0.44959 0.0
H196 H 0.87837 0.59277 0.35494 0.0
H197 H 0.98824 0.71768 0.36205 0.0
Co198 Co 0.28629 0.82124 0.88983 0.0
C199 C 0.26878 0.81063 0.84225 0.0
C200 C 0.30064 0.74303 0.85688 0.0
C201 C 0.2929 0.73302 0.83561 0.0
N202 N 0.28722 0.7923 0.86105 0.0
N203 N 0.27311 0.77565 0.82629 0.0
H204 H 0.25083 0.84771 0.84023 0.0
H205 H 0.31437 0.71573 0.86867 0.0
C206 C 0.3946 0.78748 0.8832 0.0
O207 O 0.38926 0.81039 0.86461 0.0
N208 N 0.28285 0.84822 0.91855 0.0
C209 C 0.26389 0.89519 0.92342 0.0
C210 C 0.26892 0.90295 0.94494 0.0
C211 C 0.29844 0.82738 0.9373 0.0
N212 N 0.29036 0.86044 0.95362 0.0
C213 C 0.30973 0.91632 0.86598 0.0
C214 C 0.40024 0.93478 0.88817 0.0
C215 C 0.38952 0.96391 0.87 0.0
C216 C 0.34246 0.95652 0.85937 0.0
C217 C 0.36684 0.89562 0.8941 0.0
N218 N 0.32466 0.88346 0.88192 0.0
H219 H 0.27259 0.91229 0.85851 0.0
H220 H 0.3765 0.87329 0.90812 0.0
H221 H 0.24858 0.92246 0.91195 0.0
H222 H 0.3166 0.78991 0.93887 0.0
O223 O 0.21624 0.84534 0.8853 0.0
O224 O 0.23711 0.76775 0.89753 0.0
O225 O 0.35578 0.78525 0.89607 0.0
C226 C 0.20098 0.80058 0.89229 0.0
H227 H 0.29999 0.69649 0.82782 0.0
H228 H 0.25837 0.93749 0.9536 0.0
H229 H 0.43506 0.94134 0.89742 0.0
H230 H 0.33171 0.98067 0.84595 0.0
Co231 Co 0.25 0.2939 0.38697 0.0
C232 C 0.27007 0.28337 0.34025 0.0
C233 C 0.33652 0.31099 0.35735 0.0
C234 C 0.348 0.30971 0.3359 0.0
N235 N 0.28754 0.29503 0.36008 0.0
N236 N 0.30614 0.29271 0.32505 0.0
H237 H 0.23103 0.27066 0.33697 0.0
H238 H 0.36179 0.32373 0.37006 0.0
C239 C 0.255 0.4012 0.40328 0.0
O240 O 0.20665 0.39304 0.40867 0.0
N241 N 0.21433 0.28996 0.41463 0.0
C242 C 0.17457 0.25833 0.41958 0.0
C243 C 0.16859 0.25648 0.44135 0.0
C244 C 0.23327 0.305 0.43394 0.0
N245 N 0.20547 0.2858 0.45045 0.0
C246 C 0.2079 0.37433 0.36112 0.0
C247 C 0.10466 0.35288 0.3673 0.0
C248 C 0.11908 0.39945 0.35753 0.0
C249 C 0.17119 0.40862 0.3535 0.0
C250 C 0.14314 0.31906 0.37467 0.0
N251 N 0.19412 0.33197 0.37292 0.0
H252 H 0.24803 0.38408 0.3587 0.0
H253 H 0.13164 0.28361 0.38216 0.0
H254 H 0.154 0.23405 0.40848 0.0
H255 H 0.26861 0.32681 0.43594 0.0
O256 O 0.22927 0.22335 0.38104 0.0
O257 O 0.3002 0.24592 0.39851 0.0
O258 O 0.28151 0.36374 0.39536 0.0
C259 C 0.27064 0.20903 0.39129 0.0
H260 H 0.38447 0.32086 0.32886 0.0
H261 H 0.14048 0.23344 0.44987 0.0
H262 H 0.06438 0.34402 0.3702 0.0
H263 H 0.18371 0.44356 0.34549 0.0
Co264 Co 0.78719 0.7437 0.88964 0.0
C265 C 0.7855 0.75406 0.84099 0.0
C266 C 0.80267 0.82369 0.85795 0.0
C267 C 0.80404 0.83432 0.83654 0.0
N268 N 0.79238 0.77312 0.86095 0.0
N269 N 0.79351 0.79058 0.82582 0.0
H270 H 0.77488 0.71496 0.8373 0.0
H271 H 0.80919 0.85113 0.87065 0.0
C272 C 0.89565 0.77792 0.88504 0.0
O273 O 0.89245 0.75487 0.86645 0.0
N274 N 0.78016 0.7173 0.91837 0.0
C275 C 0.75815 0.67179 0.92341 0.0
C276 C 0.7565 0.66719 0.94519 0.0
C277 C 0.79182 0.73996 0.93718 0.0
N278 N 0.77746 0.71 0.95387 0.0
C279 C 0.81263 0.6476 0.86711 0.0
C280 C 0.901 0.62985 0.89088 0.0
C281 C 0.89196 0.59985 0.87284 0.0
C282 C 0.84582 0.60692 0.86143 0.0
C283 C 0.86721 0.66943 0.89587 0.0
N284 N 0.82636 0.68128 0.88287 0.0
H285 H 0.77609 0.65164 0.85903 0.0
H286 H 0.87542 0.69219 0.90988 0.0
H287 H 0.74386 0.64404 0.91196 0.0
H288 H 0.80913 0.77784 0.93862 0.0
O289 O 0.71757 0.71976 0.88361 0.0
O290 O 0.73696 0.79726 0.89611 0.0
O291 O 0.85565 0.77972 0.89725 0.0
C292 C 0.70145 0.7645 0.8902 0.0
H293 H 0.81156 0.87167 0.8294 0.0
H294 H 0.74124 0.63462 0.95401 0.0
H295 H 0.93475 0.62351 0.90081 0.0
H296 H 0.83615 0.58216 0.84811 0.0
Co297 Co 0.30636 0.79392 0.3906 0.0
C298 C 0.28345 0.77107 0.34562 0.0
C299 C 0.22057 0.81177 0.36023 0.0
C300 C 0.20897 0.8042 0.33896 0.0
N301 N 0.26753 0.79148 0.36424 0.0
N302 N 0.24855 0.77851 0.32988 0.0
H303 H 0.32078 0.753 0.34347 0.0
H304 H 0.19697 0.83164 0.37181 0.0
C305 C 0.30094 0.90256 0.40478 0.0
O306 O 0.34951 0.89518 0.41012 0.0
N307 N 0.34321 0.79362 0.4179 0.0
C308 C 0.3856 0.76596 0.42322 0.0
C309 C 0.39334 0.76875 0.44487 0.0
C310 C 0.32387 0.80963 0.43688 0.0
N311 N 0.35453 0.79622 0.45348 0.0
C312 C 0.41212 0.8203 0.37717 0.0
C313 C 0.38177 0.9053 0.35352 0.0
C314 C 0.4344 0.89851 0.35772 0.0
C315 C 0.44962 0.85392 0.36896 0.0
C316 C 0.3459 0.87184 0.36248 0.0
N317 N 0.36084 0.83169 0.37536 0.0
H318 H 0.42478 0.78604 0.38521 0.0
H319 H 0.30553 0.88042 0.35998 0.0
H320 H 0.40688 0.74098 0.41268 0.0
H321 H 0.28721 0.82926 0.43857 0.0
O322 O 0.32846 0.72335 0.38576 0.0
O323 O 0.25771 0.74566 0.4032 0.0
O324 O 0.2742 0.86408 0.39785 0.0
C325 C 0.28761 0.70884 0.39619 0.0
H326 H 0.17427 0.81673 0.33079 0.0
H327 H 0.42314 0.74879 0.4538 0.0
H328 H 0.36791 0.93749 0.34406 0.0
H329 H 0.48991 0.84595 0.37222 0.0
Co330 Co 0.26147 0.30259 0.88715 0.0
C331 C 0.26825 0.286 0.83979 0.0
C332 C 0.24328 0.21849 0.85688 0.0
C333 C 0.24281 0.20775 0.8354 0.0
N334 N 0.25856 0.26764 0.85968 0.0
N335 N 0.25804 0.25022 0.82455 0.0
H336 H 0.28013 0.3253 0.83653 0.0
H337 H 0.23227 0.19251 0.86961 0.0
C338 C 0.15456 0.29603 0.90372 0.0
O339 O 0.16302 0.34339 0.91035 0.0
N340 N 0.26721 0.33475 0.91551 0.0
C341 C 0.30028 0.37277 0.92113 0.0
C342 C 0.30193 0.37686 0.94297 0.0
C343 C 0.25152 0.3145 0.93449 0.0
N344 N 0.27132 0.34019 0.95149 0.0
C345 C 0.23245 0.41094 0.8794 0.0
C346 C 0.14437 0.38592 0.85664 0.0
C347 C 0.15017 0.43662 0.86388 0.0
C348 C 0.19626 0.44954 0.87454 0.0
C349 C 0.1804 0.34863 0.86236 0.0
N350 N 0.22239 0.36045 0.87477 0.0
H351 H 0.26715 0.42183 0.88759 0.0
H352 H 0.17188 0.30915 0.85813 0.0
H353 H 0.32495 0.39387 0.91032 0.0
H354 H 0.22836 0.27989 0.93588 0.0
O355 O 0.33197 0.32367 0.88097 0.0
O356 O 0.30998 0.25089 0.89714 0.0
O357 O 0.19194 0.27037 0.89533 0.0
C358 C 0.34668 0.281 0.89016 0.0
H359 H 0.23173 0.1713 0.82833 0.0
H360 H 0.32527 0.404 0.95188 0.0
H361 H 0.11083 0.37423 0.8475 0.0
H362 H 0.20335 0.48845 0.88008 0.0
Co363 Co 0.74642 0.24785 0.38741 0.0
C364 C 0.76283 0.27552 0.34159 0.0
C365 C 0.8165 0.21808 0.35223 0.0
C366 C 0.82365 0.22597 0.33074 0.0
N367 N 0.77746 0.24826 0.35904 0.0
N368 N 0.78953 0.26179 0.32391 0.0
H369 H 0.73296 0.3046 0.34177 0.0
H370 H 0.83798 0.19107 0.36192 0.0
C371 C 0.78685 0.14573 0.40828 0.0
O372 O 0.76976 0.15798 0.42723 0.0
N373 N 0.71514 0.24945 0.41558 0.0
C374 C 0.66397 0.25119 0.41952 0.0
C375 C 0.65637 0.25458 0.4411 0.0
C376 C 0.73797 0.25554 0.43486 0.0
N377 N 0.70285 0.25664 0.45079 0.0
C378 C 0.65752 0.22554 0.35989 0.0
C379 C 0.63782 0.13025 0.37807 0.0
C380 C 0.60986 0.14498 0.36006 0.0
C381 C 0.61847 0.19403 0.35126 0.0
C382 C 0.67515 0.1629 0.38628 0.0
N383 N 0.68718 0.20861 0.37658 0.0
H384 H 0.6632 0.26353 0.35331 0.0
H385 H 0.69268 0.15179 0.40106 0.0
H386 H 0.6339 0.25061 0.40753 0.0
H387 H 0.77939 0.25708 0.43723 0.0
O388 O 0.72216 0.3188 0.38351 0.0
O389 O 0.79805 0.29737 0.39696 0.0
O390 O 0.78327 0.17808 0.39274 0.0
C391 C 0.76571 0.334 0.3918 0.0
H392 H 0.85053 0.20499 0.32082 0.0
H393 H 0.61933 0.25596 0.44906 0.0
H394 H 0.62997 0.09402 0.38614 0.0
H395 H 0.59569 0.20759 0.33787 0.0
Co396 Co 0.30398 0.80112 0.1421 0.0
C397 C 0.27292 0.78117 0.18726 0.0
C398 C 0.33559 0.73259 0.17771 0.0
C399 C 0.32615 0.72432 0.19897 0.0
N400 N 0.30295 0.7691 0.17033 0.0
N401 N 0.28697 0.7552 0.20515 0.0
H402 H 0.24213 0.80926 0.18659 0.0
H403 H 0.36554 0.71381 0.16867 0.0
C404 C 0.40577 0.76158 0.12136 0.0
O405 O 0.39497 0.78254 0.10285 0.0
N406 N 0.30327 0.833 0.11399 0.0
C407 C 0.30483 0.88407 0.10978 0.0
C408 C 0.30178 0.8914 0.08812 0.0
C409 C 0.29588 0.81019 0.09481 0.0
N410 N 0.29671 0.84494 0.07868 0.0
C411 C 0.32705 0.88595 0.17092 0.0
C412 C 0.42412 0.90562 0.15464 0.0
C413 C 0.40919 0.93036 0.17339 0.0
C414 C 0.35919 0.92189 0.18117 0.0
C415 C 0.39079 0.87105 0.14484 0.0
N416 N 0.34412 0.85886 0.15362 0.0
H417 H 0.28861 0.87995 0.17696 0.0
H418 H 0.40244 0.85543 0.12983 0.0
H419 H 0.30754 0.91423 0.12162 0.0
H420 H 0.29232 0.76888 0.09266 0.0
O421 O 0.23421 0.82744 0.14605 0.0
O422 O 0.2526 0.75098 0.13253 0.0
O423 O 0.37263 0.76286 0.13658 0.0
C424 C 0.21729 0.78436 0.13805 0.0
H425 H 0.34849 0.69912 0.20922 0.0
H426 H 0.3027 0.92823 0.07993 0.0
H427 H 0.46114 0.9137 0.1473 0.0
H428 H 0.34543 0.9422 0.19512 0.0
Co429 Co 0.24574 0.29521 0.63914 0.0
C430 C 0.26815 0.29006 0.6858 0.0
C431 C 0.3342 0.31429 0.66769 0.0
C432 C 0.34683 0.31516 0.68906 0.0
N433 N 0.28479 0.299 0.66564 0.0
N434 N 0.30524 0.30024 0.70054 0.0
H435 H 0.22908 0.27837 0.68958 0.0
H436 H 0.35905 0.32495 0.65456 0.0
C437 C 0.25232 0.40084 0.62049 0.0
O438 O 0.20445 0.39274 0.61433 0.0
N439 N 0.208 0.28884 0.61199 0.0
C440 C 0.1648 0.26062 0.60879 0.0
C441 C 0.15685 0.25405 0.58736 0.0
C442 C 0.22687 0.29693 0.59196 0.0
N443 N 0.19588 0.27647 0.57665 0.0
C444 C 0.14022 0.32082 0.65339 0.0
C445 C 0.16882 0.41607 0.66939 0.0
C446 C 0.11643 0.40502 0.66695 0.0
C447 C 0.10195 0.35567 0.65999 0.0
C448 C 0.20529 0.38035 0.66277 0.0
N449 N 0.19094 0.33536 0.65295 0.0
H450 H 0.12871 0.28281 0.64863 0.0
H451 H 0.24554 0.39063 0.6644 0.0
H452 H 0.14362 0.24012 0.62088 0.0
H453 H 0.26443 0.31359 0.58879 0.0
O454 O 0.22534 0.22481 0.6464 0.0
O455 O 0.29518 0.24602 0.62812 0.0
O456 O 0.27774 0.36361 0.62923 0.0
C457 C 0.26634 0.20964 0.63617 0.0
H458 H 0.38396 0.32609 0.69559 0.0
H459 H 0.12662 0.23083 0.58024 0.0
H460 H 0.18158 0.45299 0.67557 0.0
H461 H 0.06159 0.34497 0.65878 0.0
Co462 Co 0.748 0.2302 0.13796 0.0
C463 C 0.77628 0.26138 0.18242 0.0
C464 C 0.71825 0.31081 0.16911 0.0
C465 C 0.72606 0.32457 0.19005 0.0
N466 N 0.74865 0.27009 0.16439 0.0
N467 N 0.76218 0.29309 0.19852 0.0
H468 H 0.80516 0.23151 0.18402 0.0
H469 H 0.69148 0.32925 0.15831 0.0
C470 C 0.6434 0.26127 0.11624 0.0
O471 O 0.6536 0.23681 0.09849 0.0
N472 N 0.74952 0.19001 0.11175 0.0
C473 C 0.75689 0.1386 0.11123 0.0
C474 C 0.76037 0.12296 0.09045 0.0
C475 C 0.75167 0.20533 0.09107 0.0
N476 N 0.75608 0.16465 0.07755 0.0
C477 C 0.72757 0.15129 0.17049 0.0
C478 C 0.63238 0.12412 0.15401 0.0
C479 C 0.64719 0.10402 0.17374 0.0
C480 C 0.69636 0.11608 0.18169 0.0
C481 C 0.66479 0.15789 0.14333 0.0
N482 N 0.71017 0.17427 0.15216 0.0
H483 H 0.76571 0.15928 0.17644 0.0
H484 H 0.65361 0.16942 0.1276 0.0
H485 H 0.76063 0.114 0.1251 0.0
H486 H 0.74901 0.24528 0.0861 0.0
O487 O 0.81923 0.20849 0.14295 0.0
O488 O 0.79653 0.27909 0.1255 0.0
O489 O 0.67751 0.26402 0.13115 0.0
C490 C 0.83369 0.24939 0.13246 0.0
H491 H 0.70608 0.35502 0.19847 0.0
H492 H 0.7666 0.08356 0.08544 0.0
H493 H 0.59624 0.11285 0.14658 0.0
H494 H 0.71025 0.09888 0.19638 0.0
Co495 Co 0.79474 0.75831 0.6407 0.0
C496 C 0.77702 0.7583 0.68758 0.0
C497 C 0.70926 0.73686 0.66985 0.0
C498 C 0.69823 0.73364 0.69127 0.0
N499 N 0.75867 0.75191 0.66756 0.0
N500 N 0.74089 0.74682 0.70245 0.0
H501 H 0.81646 0.76925 0.69112 0.0
H502 H 0.68329 0.72811 0.65681 0.0
C503 C 0.78663 0.65269 0.62199 0.0
O504 O 0.83416 0.66052 0.6154 0.0
N505 N 0.82893 0.76644 0.61312 0.0
C506 C 0.87016 0.79647 0.60862 0.0
C507 C 0.87662 0.79892 0.58692 0.0
C508 C 0.80945 0.75337 0.59376 0.0
N509 N 0.83847 0.77179 0.57752 0.0
C510 C 0.84224 0.67219 0.66225 0.0
C511 C 0.94296 0.70471 0.65809 0.0
C512 C 0.93358 0.653 0.66389 0.0
C513 C 0.88205 0.63796 0.667 0.0
C514 C 0.90158 0.73717 0.65284 0.0
N515 N 0.85219 0.71896 0.65297 0.0
H516 H 0.80295 0.6593 0.6646 0.0
H517 H 0.9095 0.77656 0.64857 0.0
H518 H 0.89212 0.81865 0.61998 0.0
H519 H 0.77357 0.73259 0.59158 0.0
O520 O 0.81621 0.82776 0.64824 0.0
O521 O 0.74365 0.8088 0.63125 0.0
O522 O 0.76203 0.69002 0.63095 0.0
C523 C 0.77419 0.84415 0.6391 0.0
H524 H 0.66147 0.72248 0.69805 0.0
H525 H 0.90662 0.82017 0.57871 0.0
H526 H 0.98186 0.71981 0.65704 0.0
H527 H 0.8717 0.59923 0.67183 0.0
H528 H 0.31308 0.30211 0.22444 0.0
H529 H 0.19794 0.18297 0.2317 0.0
H530 H 0.20403 0.18991 0.27036 0.0
H531 H 0.24268 0.22917 0.30256 0.0
H532 H 0.35736 0.34869 0.29521 0.0
H533 H 0.35066 0.34226 0.25657 0.0
C534 C 0.28903 0.27791 0.23444 0.0
C535 C 0.25533 0.24182 0.22492 0.0
C536 C 0.2927 0.28203 0.25687 0.0
C537 C 0.22491 0.21051 0.23836 0.0
C538 C 0.22811 0.21466 0.26059 0.0
C539 C 0.26594 0.25406 0.29253 0.0
C540 C 0.30077 0.2891 0.30203 0.0
C541 C 0.26199 0.25015 0.27009 0.0
C542 C 0.33087 0.32067 0.28857 0.0
C543 C 0.32685 0.31727 0.26635 0.0
H544 H 0.72452 0.34883 0.79452 0.0
H545 H 0.84178 0.23634 0.8101 0.0
H546 H 0.85458 0.21857 0.77238 0.0
H547 H 0.8304 0.23227 0.73511 0.0
H548 H 0.71525 0.34663 0.71908 0.0
H549 H 0.70382 0.36618 0.75679 0.0
C550 C 0.75339 0.32097 0.7897 0.0
C551 C 0.78178 0.29369 0.80529 0.0
C552 C 0.76075 0.31094 0.76785 0.0
C553 C 0.81863 0.25727 0.79859 0.0
C554 C 0.82621 0.24723 0.77696 0.0
C555 C 0.80336 0.2621 0.73971 0.0
C556 C 0.77369 0.28766 0.72405 0.0
C557 C 0.79714 0.27344 0.76146 0.0
C558 C 0.73817 0.32558 0.73062 0.0
C559 C 0.73177 0.33707 0.75226 0.0
H560 H 0.70306 0.72668 0.29453 0.0
H561 H 0.82334 0.83343 0.31277 0.0
H562 H 0.84146 0.85138 0.27545 0.0
H563 H 0.8264 0.83387 0.23765 0.0
H564 H 0.70426 0.72965 0.21905 0.0
H565 H 0.68363 0.71407 0.25641 0.0
C566 C 0.73274 0.7544 0.29041 0.0
C567 C 0.76218 0.77801 0.30663 0.0
C568 C 0.74291 0.76494 0.26877 0.0
C569 C 0.80076 0.81363 0.30078 0.0
C570 C 0.811 0.82426 0.27937 0.0
C571 C 0.79462 0.80845 0.24164 0.0
C572 C 0.76736 0.78277 0.22533 0.0
C573 C 0.78278 0.79968 0.26322 0.0
C574 C 0.72673 0.74938 0.23109 0.0
C575 C 0.71466 0.74056 0.25254 0.0
H576 H 0.31035 0.72076 0.7931 0.0
H577 H 0.20655 0.84553 0.8086 0.0
H578 H 0.18733 0.85782 0.77082 0.0
H579 H 0.20166 0.83442 0.73311 0.0
H580 H 0.30368 0.70785 0.71822 0.0
H581 H 0.32124 0.69469 0.75602 0.0
C582 C 0.28287 0.75018 0.78839 0.0
C583 C 0.2601 0.78209 0.80394 0.0
C584 C 0.27164 0.75683 0.76661 0.0
C585 C 0.22537 0.82069 0.79717 0.0
C586 C 0.21405 0.82759 0.77549 0.0
C587 C 0.22714 0.80351 0.73813 0.0
C588 C 0.25157 0.77243 0.7227 0.0
C589 C 0.23716 0.79605 0.76003 0.0
C590 C 0.28499 0.73293 0.72962 0.0
C591 C 0.29492 0.72521 0.75128 0.0
H592 H 0.73251 0.72699 0.80257 0.0
H593 H 0.85203 0.84225 0.79733 0.0
H594 H 0.84724 0.83817 0.75854 0.0
H595 H 0.80696 0.80432 0.72595 0.0
H596 H 0.68755 0.68877 0.73097 0.0
H597 H 0.69433 0.69061 0.76974 0.0
C598 C 0.75785 0.75072 0.79292 0.0
C599 C 0.79226 0.78517 0.8029 0.0
C600 C 0.75466 0.74847 0.77049 0.0
C601 C 0.82455 0.81604 0.79011 0.0
C602 C 0.82201 0.81359 0.76789 0.0
C603 C 0.78281 0.77913 0.73548 0.0
C604 C 0.74654 0.74679 0.72542 0.0
C605 C 0.78684 0.78037 0.75787 0.0
C606 C 0.71519 0.71481 0.73818 0.0
C607 C 0.71924 0.71555 0.76042 0.0
H608 H 0.21625 0.83266 0.29558 0.0
H609 H 0.29425 0.69288 0.31456 0.0
H610 H 0.30912 0.67089 0.27719 0.0
H611 H 0.30327 0.69321 0.23944 0.0
H612 H 0.23094 0.83651 0.22038 0.0
H613 H 0.20899 0.85424 0.25733 0.0
C614 C 0.23589 0.7971 0.29147 0.0
C615 C 0.25426 0.76446 0.30779 0.0
C616 C 0.24518 0.78523 0.26993 0.0
C617 C 0.28027 0.71883 0.30228 0.0
C618 C 0.28861 0.7062 0.28092 0.0
C619 C 0.28301 0.72856 0.2432 0.0
C620 C 0.26949 0.76352 0.22683 0.0
C621 C 0.27193 0.73951 0.26463 0.0
C622 C 0.24184 0.80842 0.23234 0.0
C623 C 0.22952 0.81894 0.25361 0.0
H624 H 0.24019 0.24137 0.72427 0.0
H625 H 0.36126 0.35517 0.72934 0.0
H626 H 0.35693 0.35073 0.7681 0.0
H627 H 0.31983 0.31331 0.80106 0.0
H628 H 0.19824 0.20016 0.79575 0.0
H629 H 0.2016 0.20587 0.75703 0.0
C630 C 0.26534 0.26555 0.73381 0.0
C631 C 0.30126 0.29825 0.72364 0.0
C632 C 0.26271 0.26287 0.75629 0.0
C633 C 0.33381 0.32888 0.7365 0.0
C634 C 0.33117 0.32664 0.75879 0.0
C635 C 0.29382 0.29024 0.79144 0.0
C636 C 0.25923 0.25595 0.80151 0.0
C637 C 0.29597 0.29357 0.76893 0.0
C638 C 0.22603 0.22615 0.78862 0.0
C639 C 0.22767 0.22959 0.76637 0.0
H640 H 0.85347 0.25114 0.28989 0.0
H641 H 0.70185 0.30528 0.30784 0.0
H642 H 0.68168 0.32302 0.27067 0.0
H643 H 0.70418 0.31737 0.23278 0.0
H644 H 0.85389 0.25981 0.21443 0.0
H645 H 0.87706 0.24805 0.25197 0.0
C646 C 0.81591 0.26666 0.28578 0.0
C647 C 0.77933 0.27649 0.30196 0.0
C648 C 0.80389 0.27568 0.26418 0.0
C649 C 0.73125 0.29769 0.29605 0.0
C650 C 0.71938 0.3075 0.27465 0.0
C651 C 0.74223 0.30308 0.23695 0.0
C652 C 0.77723 0.28951 0.22071 0.0
C653 C 0.75507 0.29595 0.25856 0.0
C654 C 0.826 0.27008 0.22653 0.0
C655 C 0.83932 0.26352 0.24802 0.0
H656 H 0.1981 0.30721 0.04681 0.0
H657 H 0.34981 0.3692 0.0585 0.0
H658 H 0.36804 0.36942 0.02028 0.0
H659 H 0.33888 0.35834 0.98349 0.0
H660 H 0.18623 0.29955 0.97067 0.0
H661 H 0.17049 0.29084 1.00909 0.0
C662 C 0.23538 0.31969 0.04089 0.0
C663 C 0.27276 0.33805 0.05542 0.0
C664 C 0.24519 0.32076 0.01865 0.0
C665 C 0.32067 0.3549 0.04759 0.0
C666 C 0.33097 0.3552 0.02574 0.0
C667 C 0.30206 0.3437 0.98902 0.0
C668 C 0.26357 0.33032 0.97407 0.0
C669 C 0.29314 0.33941 1.0111 0.0
C670 C 0.21664 0.31008 0.98171 0.0
C671 C 0.20753 0.30536 1.00374 0.0
H672 H 0.64492 0.20922 0.48015 0.0
H673 H 0.78145 0.30246 0.47251 0.0
H674 H 0.7918 0.30676 0.51142 0.0
H675 H 0.75647 0.29011 0.54782 0.0
H676 H 0.61752 0.20017 0.55426 0.0
H677 H 0.61348 0.18802 0.51566 0.0
C678 C 0.67686 0.23066 0.48698 0.0
C679 C 0.71178 0.25632 0.4735 0.0
C680 C 0.68205 0.23333 0.50918 0.0
C681 C 0.75395 0.28256 0.48258 0.0
C682 C 0.75972 0.28513 0.50481 0.0
C683 C 0.72618 0.26697 0.54065 0.0
C684 C 0.68733 0.24582 0.55366 0.0
C685 C 0.7234 0.26144 0.51831 0.0
C686 C 0.64766 0.21657 0.54439 0.0
C687 C 0.64526 0.20989 0.52238 0.0
H688 H 0.70961 0.6841 0.98409 0.0
H689 H 0.85644 0.75836 0.9743 0.0
H690 H 0.86934 0.76402 1.01309 0.0
H691 H 0.84199 0.73888 0.04991 0.0
H692 H 0.69586 0.66194 0.05833 0.0
H693 H 0.67926 0.66626 0.02009 0.0
C694 C 0.74434 0.70173 0.99046 0.0
C695 C 0.78237 0.72003 0.9764 0.0
C696 C 0.75162 0.70403 1.01258 0.0
C697 C 0.82663 0.74399 0.98484 0.0
C698 C 0.83409 0.74688 1.007 0.0
C699 C 0.80626 0.72404 0.04329 0.0
C700 C 0.7704 0.69955 0.0568 0.0
C701 C 0.79737 0.72583 0.02106 0.0
C702 C 0.72422 0.68022 0.04814 0.0
C703 C 0.71473 0.68271 0.02631 0.0
H704 H 0.42715 0.81467 0.48282 0.0
H705 H 0.26309 0.79558 0.47477 0.0
H706 H 0.25117 0.79888 0.51359 0.0
H707 H 0.28948 0.79852 0.55022 0.0
H708 H 0.45414 0.81661 0.55712 0.0
H709 H 0.46389 0.82279 0.51856 0.0
C710 C 0.38876 0.81157 0.48959 0.0
C711 C 0.34621 0.80427 0.47599 0.0
C712 C 0.38241 0.81316 0.5118 0.0
C713 C 0.29649 0.80132 0.48491 0.0
C714 C 0.28974 0.80291 0.50712 0.0
C715 C 0.32717 0.80494 0.54321 0.0
C716 C 0.37118 0.8066 0.55647 0.0
C717 C 0.33262 0.8077 0.5208 0.0
C718 C 0.41991 0.8146 0.5472 0.0
C719 C 0.42551 0.81806 0.52516 0.0
H720 H 0.76453 0.24624 0.04977 0.0
H721 H 0.74038 0.08098 0.05225 0.0
H722 H 0.74002 0.07695 1.01392 0.0
H723 H 0.7489 0.11844 0.97927 0.0
H724 H 0.76896 0.28303 0.97508 0.0
H725 H 0.76706 0.28935 1.01423 0.0
C726 C 0.75891 0.20937 0.04201 0.0
C727 C 0.75398 0.16386 0.05439 0.0
C728 C 0.75755 0.20709 0.01947 0.0
C729 C 0.74621 0.11666 0.04366 0.0
C730 C 0.74538 0.11416 0.0215 0.0
C731 C 0.75262 0.15572 0.98696 0.0
C732 C 0.75944 0.20007 0.97438 0.0
C733 C 0.75156 0.15887 1.00927 0.0
C734 C 0.76338 0.24834 0.98446 0.0
C735 C 0.76269 0.25182 1.00683 0.0
H736 H 0.86594 0.83788 0.54638 0.0
H737 H 0.79332 0.69051 0.55744 0.0
H738 H 0.7882 0.67574 0.51888 0.0
H739 H 0.8119 0.70196 0.48183 0.0
H740 H 0.88844 0.84765 0.47196 0.0
H741 H 0.8847 0.86595 0.5101 0.0
C742 C 0.84909 0.80243 0.54042 0.0
C743 C 0.83073 0.76507 0.55485 0.0
C744 C 0.84716 0.7939 0.51834 0.0
C745 C 0.80766 0.71999 0.54672 0.0
C746 C 0.80502 0.7114 0.52465 0.0
C747 C 0.82683 0.73795 0.48813 0.0
C748 C 0.85064 0.77341 0.47424 0.0
C749 C 0.82558 0.74767 0.51028 0.0
C750 C 0.87034 0.8198 0.48247 0.0
C751 C 0.86826 0.83019 0.50424 0.0
H752 H 0.34729 0.89837 0.04867 0.0
H753 H 0.24459 0.76935 0.05774 0.0
H754 H 0.23822 0.75794 0.01895 0.0
H755 H 0.25595 0.79068 0.98221 0.0
H756 H 0.35614 0.92183 0.9742 0.0
H757 H 0.37002 0.92642 1.01273 0.0
C758 C 0.32343 0.8678 0.04217 0.0
C759 C 0.29571 0.83536 0.05603 0.0
C760 C 0.31979 0.86185 0.02 0.0
C761 C 0.26615 0.79493 0.04738 0.0
C762 C 0.26241 0.78854 0.02521 0.0
C763 C 0.28176 0.81922 0.98902 0.0
C764 C 0.30539 0.85574 0.97558 0.0
C765 C 0.28833 0.82242 1.01133 0.0
C766 C 0.33801 0.89333 0.9844 0.0
C767 C 0.34559 0.89612 1.00637 0.0
H768 H 0.22743 0.34838 0.54754 0.0
H769 H 0.18552 0.18823 0.55482 0.0
H770 H 0.18767 0.17641 0.51635 0.0
H771 H 0.19451 0.21241 0.48044 0.0
H772 H 0.23678 0.37175 0.4717 0.0
H773 H 0.24227 0.38305 0.51059 0.0
C774 C 0.21975 0.31083 0.54064 0.0
C775 C 0.2056 0.26938 0.5541 0.0
C776 C 0.22067 0.30426 0.51816 0.0
C777 C 0.19562 0.22091 0.54487 0.0
C778 C 0.19688 0.21408 0.52283 0.0
C779 C 0.20508 0.24961 0.48703 0.0
C780 C 0.2145 0.29135 0.47316 0.0
C781 C 0.20802 0.25567 0.5093 0.0
C782 C 0.22935 0.33899 0.482 0.0
C783 C 0.23221 0.34547 0.50427 0.0
H784 H 0.06861 0.4327 0.19762 0.0
H785 H 0.17007 0.5299 0.16017 0.0
H786 H 0.10472 0.59657 0.15921 0.0
H787 H 1.01419 0.62049 0.16258 0.0
H788 H 0.90729 0.51678 0.1935 0.0
H789 H 0.97882 0.45935 0.20305 0.0
C790 C 0.07664 0.46812 0.18904 0.0
C791 C 0.12417 0.47478 0.17835 0.0
C792 C 0.03723 0.50498 0.18696 0.0
C793 C 0.13433 0.52278 0.16858 0.0
C794 C 0.09648 0.56101 0.1677 0.0
C795 C 1.00642 0.58524 0.1714 0.0
C796 C 0.95529 0.57209 0.17674 0.0
C797 C 0.04704 0.55126 0.17578 0.0
C798 C 0.94619 0.52758 0.189 0.0
C799 C 0.98707 0.49459 0.19435 0.0
H800 H 0.40497 1.00374 0.66845 0.0
H801 H 0.53294 0.90151 0.68215 0.0
H802 H 0.59156 0.9754 0.68281 0.0
H803 H 0.6073 0.0676 0.67588 0.0
H804 H 0.47933 0.16915 0.66267 0.0
H805 H 0.41888 0.09675 0.66649 0.0
C806 C 0.44529 0.99737 0.67236 0.0
C807 C 0.46436 0.94673 0.67519 0.0
C808 C 0.47857 0.03997 0.67297 0.0
C809 C 0.51721 0.93975 0.67955 0.0
C810 C 0.55072 0.98204 0.68009 0.0
C811 C 0.56595 0.07392 0.67456 0.0
C812 C 0.5473 0.12323 0.6692 0.0
C813 C 0.53195 0.03208 0.67633 0.0
C814 C 0.49405 0.13148 0.66714 0.0
C815 C 0.45977 0.09004 0.66907 0.0
H816 H 0.48466 0.94074 0.85645 0.0
H817 H 0.38278 0.06881 0.86863 0.0
H818 H 0.45536 0.12915 0.86503 0.0
H819 H 0.5485 0.14312 0.86328 0.0
H820 H 0.65086 1.01501 0.85048 0.0
H821 H 0.57699 0.95634 0.84998 0.0
C822 C 0.47835 0.98207 0.85769 0.0
C823 C 0.4289 1.00076 0.86269 0.0
C824 C 0.52023 1.01601 0.85601 0.0
C825 C 0.42061 0.05402 0.86451 0.0
C826 C 0.46212 0.08825 0.8627 0.0
C827 C 0.55487 0.10271 0.85964 0.0
C828 C 0.60552 0.08363 0.85697 0.0
C829 C 0.51229 0.06941 0.85911 0.0
C830 C 0.61259 0.03072 0.85295 0.0
C831 C 0.57032 0.99719 0.8525 0.0
H832 H 0.1274 0.49661 0.37153 0.0
H833 H 0.02738 0.39603 0.33554 0.0
H834 H 0.9665 0.46762 0.3299 0.0
H835 H 0.94132 0.55744 0.3364 0.0
H836 H 0.03775 0.65346 0.37655 0.0
H837 H 0.10234 0.58591 0.37797 0.0
C838 C 0.09245 0.49056 0.36225 0.0
C839 C 0.0817 0.44151 0.35383 0.0
C840 C 0.05767 0.53129 0.35947 0.0
C841 C 0.03607 0.4336 0.3422 0.0
C842 C 1.00161 0.4745 0.3389 0.0
C843 C 0.97603 0.56377 0.3457 0.0
C844 C 0.98368 0.61088 0.35656 0.0
C845 C 1.01183 0.52338 0.34769 0.0
C846 C 0.03043 0.6184 0.36769 0.0
C847 C 0.0673 0.57931 0.36886 0.0
H848 H 0.99038 0.62101 0.86273 0.0
H849 H 0.88299 0.49509 0.87001 0.0
H850 H 0.95409 0.43286 0.8669 0.0
H851 H 0.04698 0.41573 0.8661 0.0
H852 H 0.15452 0.54184 0.85754 0.0
H853 H 0.08284 0.60306 0.85774 0.0
C854 C 0.98261 0.57982 0.86313 0.0
C855 C 0.93187 0.56228 0.86654 0.0
C856 C 1.02358 0.54469 0.86158 0.0
C857 C 0.9218 0.50913 0.86716 0.0
C858 C 0.96245 0.47377 0.8656 0.0
C859 C 0.05502 0.45637 0.8636 0.0
C860 C 0.10652 0.47391 0.86185 0.0
C861 C 1.0136 0.49126 0.86333 0.0
C862 C 0.11562 0.52711 0.8593 0.0
C863 C 0.07457 0.56217 0.85923 0.0
H864 H 0.62416 0.04791 0.34613 0.0
H865 H 0.50623 0.16152 0.35802 0.0
H866 H 0.43967 0.09435 0.35624 0.0
H867 H 0.41807 1.00259 0.35755 0.0
H868 H 0.53601 0.88825 0.3454 0.0
H869 H 0.60008 0.95672 0.34149 0.0
C870 C 0.58363 0.058 0.34758 0.0
C871 C 0.56978 0.10927 0.3522 0.0
C872 C 0.54605 1.01905 0.34715 0.0
C873 C 0.51746 0.12231 0.35422 0.0
C874 C 0.47963 0.08381 0.3535 0.0
C875 C 0.45731 0.99229 0.35333 0.0
C876 C 0.47207 0.9399 0.35207 0.0
C877 C 0.49384 0.03183 0.35089 0.0
C878 C 0.52361 0.92796 0.34702 0.0
C879 C 0.56026 0.96715 0.3446 0.0
H880 H 0.5083 0.91295 0.18482 0.0
H881 H 0.39128 0.03128 0.18313 0.0
H882 H 0.45731 0.09763 0.18862 0.0
H883 H 0.54882 0.12188 0.18541 0.0
H884 H 0.6659 1.00372 0.18432 0.0
H885 H 0.59969 0.93713 0.18901 0.0
C886 C 0.49728 0.95321 0.18634 0.0
C887 C 0.44536 0.96757 0.18323 0.0
C888 C 0.5356 0.99102 0.18876 0.0
C889 C 0.43107 1.01951 0.18545 0.0
C890 C 0.46888 0.05741 0.18837 0.0
C891 C 0.55979 0.08161 0.18705 0.0
C892 C 0.61178 0.06735 0.18429 0.0
C893 C 0.52138 0.04371 0.18883 0.0
C894 C 0.62605 1.01537 0.18646 0.0
C895 C 0.58813 0.97735 0.18886 0.0
H896 H 0.11876 0.49887 0.64883 0.0
H897 H 0.02891 0.4043 0.69153 0.0
H898 H 0.96722 0.47539 0.69634 0.0
H899 H 0.93906 0.56355 0.68789 0.0
H900 H 0.0248 0.65319 0.64158 0.0
H901 H 0.08961 0.58591 0.6398 0.0
C902 C 0.08578 0.49402 0.65931 0.0
C903 C 0.07828 0.44679 0.66993 0.0
C904 C 0.05039 0.53444 0.66165 0.0
C905 C 0.03514 0.44041 0.68317 0.0
C906 C 1.00019 0.48107 0.68598 0.0
C907 C 0.97136 0.56849 0.67714 0.0
C908 C 0.97621 0.61403 0.66486 0.0
C909 C 1.00731 0.52817 0.67517 0.0
C910 C 1.01987 0.6196 0.65166 0.0
C911 C 0.05684 0.5806 0.65031 0.0
H912 H 0.55764 0.21475 0.09989 0.0
H913 H 0.60432 0.33199 0.14468 0.0
H914 H 0.51385 0.34605 0.1545 0.0
H915 H 0.42097 0.32445 0.15054 0.0
H916 H 0.37555 0.20416 0.10686 0.0
H917 H 0.46573 0.19174 0.09659 0.0
C918 C 0.54813 0.24391 0.11162 0.0
C919 C 0.5881 0.2728 0.1213 0.0
C920 C 0.49602 0.25087 0.11756 0.0
C921 C 0.57469 0.30938 0.13687 0.0
C922 C 0.52282 0.31735 0.14252 0.0
C923 C 0.43079 0.29537 0.13882 0.0
C924 C 0.39118 0.26526 0.12951 0.0
C925 C 0.48309 0.28814 0.13305 0.0
C926 C 0.40493 0.22772 0.11439 0.0
C927 C 0.45662 0.22075 0.10843 0.0
H928 H 0.69192 0.43204 0.64366 0.0
H929 H 0.83944 0.38446 0.61846 0.0
H930 H 0.86127 0.47422 0.61081 0.0
H931 H 0.83964 0.56587 0.61157 0.0
H932 H 0.69395 0.61584 0.63772 0.0
H933 H 0.66996 0.52551 0.64432 0.0
C934 C 0.72891 0.44132 0.63654 0.0
C935 C 0.76405 0.40123 0.63171 0.0
C936 C 0.74134 0.49345 0.63213 0.0
C937 C 0.81168 0.41421 0.62242 0.0
C938 C 0.82417 0.46565 0.61796 0.0
C939 C 0.80227 0.55734 0.61852 0.0
C940 C 0.7685 0.59805 0.62396 0.0
C941 C 0.78934 0.50553 0.62272 0.0
C942 C 0.72057 0.58558 0.63315 0.0
C943 C 0.707 0.53384 0.63707 0.0
H944 H 0.48983 0.81087 0.10548 0.0
H945 H 0.4465 0.69037 0.14945 0.0
H946 H 0.53776 0.67694 0.15874 0.0
H947 H 0.63047 0.69966 0.15419 0.0
H948 H 0.67174 0.8241 0.11165 0.0
H949 H 0.58096 0.83597 0.10214 0.0
C950 C 0.50029 0.78117 0.11692 0.0
C951 C 0.4612 0.75097 0.12647 0.0
C952 C 0.55265 0.77475 0.12259 0.0
C953 C 0.47561 0.71385 0.14174 0.0
C954 C 0.52787 0.70626 0.14707 0.0
C955 C 0.61956 0.72954 0.14291 0.0
C956 C 0.65822 0.76091 0.13363 0.0
C957 C 0.56682 0.73657 0.13763 0.0
C958 C 0.64312 0.79956 0.11913 0.0
C959 C 0.59109 0.80621 0.11358 0.0
H960 H 0.20079 0.48725 0.60794 0.0
H961 H 0.34284 0.43842 0.63799 0.0
H962 H 0.36552 0.52888 0.64475 0.0
H963 H 0.34304 0.62214 0.64341 0.0
H964 H 0.1997 0.66896 0.61384 0.0
H965 H 0.17932 0.57901 0.60594 0.0
C966 C 0.23711 0.4961 0.61577 0.0
C967 C 0.27017 0.45561 0.62231 0.0
C968 C 0.24936 0.54806 0.61997 0.0
C969 C 0.3168 0.46846 0.63257 0.0
C970 C 0.32961 0.5203 0.63659 0.0
C971 C 0.30734 0.61265 0.63523 0.0
C972 C 0.27287 0.65256 0.6293 0.0
C973 C 0.29585 0.56046 0.6306 0.0
C974 C 0.22695 0.63935 0.61862 0.0
C975 C 0.21528 0.58779 0.61405 0.0
H976 H 0.06952 0.34822 0.91651 0.0
H977 H 0.11572 0.20559 0.88663 0.0
H978 H 0.02455 0.18316 0.88096 0.0
H979 H 0.93148 0.206 0.88344 0.0
H980 H 0.88782 0.35036 0.91261 0.0
H981 H 0.97845 0.37042 0.91928 0.0
C982 C 0.06001 0.31186 0.90891 0.0
C983 C 0.0998 0.2785 0.90212 0.0
C984 C 1.0078 0.29985 0.90533 0.0
C985 C 0.08613 0.23182 0.8922 0.0
C986 C 0.03393 0.21918 0.88883 0.0
C987 C 0.94183 0.24185 0.89126 0.0
C988 C 0.90267 0.27668 0.89749 0.0
C989 C 0.9944 0.2532 0.89512 0.0
C990 C 0.9169 0.32284 0.90765 0.0
C991 C 0.96881 0.33433 0.91151 0.0
H992 H 0.83939 0.9189 0.37583 0.0
H993 H 0.72946 0.88008 0.4249 0.0
H994 H 0.72033 0.9715 0.43385 0.0
H995 H 0.74351 0.06259 0.42792 0.0
H996 H 0.84899 0.10285 0.37746 0.0
H997 H 0.8601 1.01108 0.36895 0.0
C998 C 0.81331 0.93045 0.38845 0.0
C999 C 0.78519 0.89234 0.39971 0.0
C1000 C 0.80774 0.98347 0.39336 0.0
C1001 C 0.75138 0.90828 0.4159 0.0
C1002 C 0.74633 0.96067 0.4211 0.0
C1003 C 0.76948 0.05138 0.4152 0.0
C1004 C 0.79615 0.08986 0.40359 0.0
C1005 C 0.77447 0.9986 0.41002 0.0
C1006 C 0.82836 0.07433 0.38678 0.0
C1007 C 0.8346 1.02174 0.38189 0.0
H1008 H 0.97462 0.71175 0.8881 0.0
H1009 H 0.93547 0.87168 0.89727 0.0
H1010 H 0.02774 0.8931 0.90096 0.0
H1011 H 0.1199 0.86661 0.89797 0.0
H1012 H 0.15699 0.70539 0.89006 0.0
H1013 H 0.065 0.68387 0.88952 0.0
C1014 C 0.98617 0.75106 0.89158 0.0
C1015 C 0.94837 0.79004 0.89269 0.0
C1016 C 0.03894 0.76279 0.8935 0.0
C1017 C 0.96384 0.84097 0.89678 0.0
C1018 C 1.0166 0.85318 0.8986 0.0
C1019 C 0.10773 0.82675 0.8963 0.0
C1020 C 0.14523 0.78764 0.89378 0.0
C1021 C 0.05457 0.81455 0.8964 0.0
C1022 C 0.12899 0.73612 0.89197 0.0
C1023 C 0.07639 0.72383 0.89164 0.0
H1024 H 0.21169 0.12415 0.38136 0.0
H1025 H 0.35528 0.16928 0.41117 0.0
H1026 H 0.37448 0.07923 0.41925 0.0
H1027 H 0.35199 0.98824 0.41746 0.0
H1028 H 0.21052 0.94012 0.38684 0.0
H1029 H 0.18844 0.03092 0.37993 0.0
C1030 C 0.24723 0.11423 0.38958 0.0
C1031 C 0.28213 0.15366 0.39556 0.0
C1032 C 0.25812 0.06193 0.39426 0.0
C1033 C 0.32781 0.13999 0.40631 0.0
C1034 C 0.33877 0.08841 0.41101 0.0
C1035 C 0.31598 0.99726 0.4094 0.0
C1036 C 0.28289 0.95705 0.40275 0.0
C1037 C 0.3043 0.04916 0.40505 0.0
C1038 C 0.23652 0.97007 0.39233 0.0
C1039 C 0.22413 1.02204 0.38822 0.0
H1040 H 0.47485 0.85284 0.88284 0.0
H1041 H 0.43511 0.69523 0.89739 0.0
H1042 H 0.52744 0.67383 0.90103 0.0
H1043 H 0.61991 0.69938 0.89717 0.0
H1044 H 0.65747 0.85884 0.88464 0.0
H1045 H 0.5655 0.88037 0.88312 0.0
C1046 C 0.48632 0.81406 0.88736 0.0
C1047 C 0.44824 0.7757 0.89003 0.0
C1048 C 0.53913 0.80239 0.88944 0.0
C1049 C 0.46365 0.72552 0.8956 0.0
C1050 C 0.51646 0.71328 0.89743 0.0
C1051 C 0.60782 0.73886 0.89423 0.0
C1052 C 0.6455 0.77743 0.89074 0.0
C1053 C 0.55462 0.75119 0.8939 0.0
C1054 C 0.62935 0.82853 0.88731 0.0
C1055 C 0.57675 0.84082 0.88643 0.0
H1056 H 0.20439 0.48558 0.41783 0.0
H1057 H 0.3455 0.44056 0.38642 0.0
H1058 H 0.36848 0.53188 0.38177 0.0
H1059 H 0.34609 0.62478 0.3852 0.0
H1060 H 0.2033 0.6676 0.41587 0.0
H1061 H 0.18315 0.57671 0.42195 0.0
C1062 C 0.24053 0.4954 0.41011 0.0
C1063 C 0.27323 0.45586 0.40254 0.0
C1064 C 0.25286 0.54777 0.40712 0.0
C1065 C 0.31976 0.46991 0.39257 0.0
C1066 C 0.3327 0.52221 0.38977 0.0
C1067 C 0.31061 0.61422 0.39326 0.0
C1068 C 0.27616 0.65322 0.40002 0.0
C1069 C 0.29918 0.56152 0.39673 0.0
C1070 C 0.23048 0.63867 0.41048 0.0
C1071 C 0.21894 0.5866 0.41399 0.0
H1072 H 0.56811 0.19356 0.91202 0.0
H1073 H 0.61556 0.34418 0.88989 0.0
H1074 H 0.52472 0.36692 0.88328 0.0
H1075 H 0.43146 0.34284 0.88328 0.0
H1076 H 0.38714 0.1907 0.90481 0.0
H1077 H 0.47736 0.16957 0.91178 0.0
C1078 C 0.55898 0.23171 0.90592 0.0
C1079 C 0.59904 0.26731 0.90169 0.0
C1080 C 0.50705 0.244 0.9018 0.0
C1081 C 0.58577 0.31617 0.89354 0.0
C1082 C 0.53376 0.32903 0.88963 0.0
C1083 C 0.4416 0.30502 0.88944 0.0
C1084 C 0.40228 0.26841 0.89352 0.0
C1085 C 0.49402 0.29308 0.89357 0.0
C1086 C 0.41627 0.21969 0.90157 0.0
C1087 C 0.46797 0.20757 0.90561 0.0
H1088 H 0.70707 0.42049 0.38201 0.0
H1089 H 0.85002 0.3736 0.41191 0.0
H1090 H 0.86961 0.46322 0.4204 0.0
H1091 H 0.84784 0.55468 0.41909 0.0
H1092 H 0.70755 0.60507 0.38815 0.0
H1093 H 0.685 0.51463 0.38069 0.0
C1094 C 0.74254 0.42991 0.39036 0.0
C1095 C 0.77707 0.38978 0.39623 0.0
C1096 C 0.75391 0.48227 0.3952 0.0
C1097 C 0.82276 0.40314 0.40707 0.0
C1098 C 0.83398 0.4546 0.41202 0.0
C1099 C 0.81193 0.54632 0.41086 0.0
C1100 C 0.7793 0.58733 0.40438 0.0
C1101 C 0.79996 0.49445 0.40618 0.0
C1102 C 0.73328 0.57477 0.39357 0.0
C1103 C 0.72056 0.52288 0.38917 0.0
H1104 H 0.98719 0.70088 0.13632 0.0
H1105 H 0.95296 0.8631 0.14024 0.0
H1106 H 0.04556 0.88327 0.13763 0.0
H1107 H 0.13705 0.8537 0.13783 0.0
H1108 H 0.16991 0.69076 0.1335 0.0
H1109 H 0.07735 0.67182 0.13269 0.0
C1110 C 0.99983 0.7407 0.13588 0.0
C1111 C 0.963 0.7805 0.13796 0.0
C1112 C 0.05316 0.75172 0.13476 0.0
C1113 C 0.98026 0.83189 0.13802 0.0
C1114 C 0.03334 0.84329 0.13685 0.0
C1115 C 0.12396 0.81406 0.13653 0.0
C1116 C 0.1607 0.77365 0.13594 0.0
C1117 C 0.0703 0.80342 0.13581 0.0
C1118 C 0.14282 0.72261 0.13403 0.0
C1119 C 0.08975 0.71173 0.13358 0.0
H1120 H 0.20611 0.12401 0.64457 0.0
H1121 H 0.35553 0.16979 0.62059 0.0
H1122 H 0.37777 0.07977 0.61434 0.0
H1123 H 0.3559 0.98858 0.61561 0.0
H1124 H 0.20806 0.93943 0.63998 0.0
H1125 H 0.18378 0.03012 0.6457 0.0
C1126 C 0.24356 0.1142 0.63803 0.0
C1127 C 0.27911 0.15396 0.63309 0.0
C1128 C 0.25618 0.06177 0.63427 0.0
C1129 C 0.32733 0.14037 0.62452 0.0
C1130 C 0.34011 0.08875 0.62088 0.0
C1131 C 0.31805 0.99731 0.62204 0.0
C1132 C 0.28376 0.95676 0.6272 0.0
C1133 C 0.30487 0.04922 0.62562 0.0
C1134 C 0.23511 0.96955 0.63562 0.0
C1135 C 0.22138 1.02151 0.63904 0.0
H1136 H 0.91994 0.19433 0.14502 0.0
H1137 H 0.87349 0.33075 0.11026 0.0
H1138 H 0.96376 0.35123 0.10307 0.0
H1139 H 0.05579 0.33241 0.10725 0.0
H1140 H 0.1046 0.1979 0.14266 0.0
H1141 H 1.01387 0.17437 0.14862 0.0
C1142 C 0.92956 0.22853 0.13585 0.0
C1143 C 0.88948 0.26104 0.12827 0.0
C1144 C 0.98213 0.2403 0.13174 0.0
C1145 C 0.90305 0.30506 0.11638 0.0
C1146 C 0.95487 0.31679 0.1122 0.0
C1147 C 0.04694 0.29756 0.11614 0.0
C1148 C 0.0876 0.26694 0.12441 0.0
C1149 C 0.99472 0.28488 0.11985 0.0
C1150 C 0.07457 0.22209 0.13592 0.0
C1151 C 1.0225 0.20882 0.13946 0.0
H1152 H 0.68981 0.07296 0.64279 0.0
H1153 H 0.85078 0.10847 0.63383 0.0
H1154 H 0.87035 1.01576 0.63088 0.0
H1155 H 0.84192 0.92411 0.63402 0.0
H1156 H 0.67972 0.89021 0.64089 0.0
H1157 H 0.66009 0.98274 0.64149 0.0
C1158 C 0.72897 0.06049 0.63955 0.0
C1159 C 0.76875 0.09757 0.63823 0.0
C1160 C 0.73965 1.00733 0.63788 0.0
C1161 C 0.81943 0.08079 0.63446 0.0
C1162 C 0.8306 0.02774 0.63305 0.0
C1163 C 0.80226 0.93711 0.63548 0.0
C1164 C 0.7623 0.9003 0.6377 0.0
C1165 C 0.79116 0.99057 0.63525 0.0
C1166 C 0.71107 0.91764 0.63922 0.0
C1167 C 0.69988 0.97057 0.63957 0.0
loop_
_geom_bond_atom_site_label_1
_geom_bond_atom_site_label_2
_geom_bond_distance
_geom_bond_site_symmetry_2
_ccdc_geom_bond_type
Co0 N4 2.148 . S
Co0 N10 2.128 . S
Co0 N20 2.194 . S
Co0 O25 2.351 . S
Co0 O26 2.155 . S
Co0 O27 2.096 . S
C1 N4 1.301 . S
C1 N5 1.328 . S
C1 H6 0.930 . S
C2 C3 1.333 . S
C2 N4 1.317 . S
C2 H7 0.930 . S
C3 C2 1.333 . S
C3 N5 1.350 . S
C3 H29 0.931 . S
N4 Co0 2.148 . S
N4 C1 1.301 . S
N4 C2 1.317 . S
N5 C1 1.328 . S
N5 C3 1.350 . S
H6 C1 0.930 . S
H7 C2 0.930 . S
C8 O9 1.224 . S
C8 O27 1.247 1_655 S
O9 C8 1.224 . S
N10 Co0 2.128 . S
N10 C11 1.355 . S
N10 C13 1.311 . S
C11 N10 1.355 . S
C11 C12 1.363 . S
C11 H23 0.929 . S
C12 C11 1.363 . S
C12 N14 1.375 . S
C12 H30 0.931 . S
C13 N10 1.311 . S
C13 N14 1.347 . S
C13 H24 0.929 . S
N14 C12 1.375 . S
N14 C13 1.347 . S
C15 C18 1.365 . S
C15 N20 1.328 . S
C15 H21 0.929 . S
C16 C17 1.362 . S
C16 C19 1.378 . S
C16 H31 0.929 1_455 S
C17 C16 1.362 . S
C17 C18 1.366 . S
C18 C15 1.365 . S
C18 C17 1.366 . S
C18 H32 0.930 . S
C19 C16 1.378 . S
C19 N20 1.315 . S
C19 H22 0.930 . S
N20 Co0 2.194 . S
N20 C15 1.328 . S
N20 C19 1.315 . S
H21 C15 0.929 . S
H22 C19 0.930 . S
H23 C11 0.929 . S
H24 C13 0.929 . S
O25 Co0 2.351 . S
O25 C28 1.244 . S
O26 Co0 2.155 . S
O26 C28 1.240 . S
O27 Co0 2.096 . S
O27 C8 1.247 1_455 S
C28 O25 1.244 . S
C28 O26 1.240 . S
H29 C3 0.931 . S
H30 C12 0.931 . S
H31 C16 0.929 1_655 S
H32 C18 0.930 . S
Co33 N37 2.148 . S
Co33 N43 2.128 . S
Co33 N53 2.194 . S
Co33 O58 2.351 . S
Co33 O59 2.155 . S
Co33 O60 2.096 . S
C34 N37 1.301 . S
C34 N38 1.328 . S
C34 H39 0.930 . S
C35 C36 1.333 . S
C35 N37 1.317 . S
C35 H40 0.930 . S
C36 C35 1.333 . S
C36 N38 1.350 . S
C36 H62 0.931 . S
N37 Co33 2.148 . S
N37 C34 1.301 . S
N37 C35 1.317 . S
N38 C34 1.328 . S
N38 C36 1.350 . S
H39 C34 0.930 . S
H40 C35 0.930 . S
C41 O42 1.224 . S
C41 O60 1.247 1_565 S
O42 C41 1.224 . S
N43 Co33 2.128 . S
N43 C44 1.355 . S
N43 C46 1.311 . S
C44 N43 1.355 . S
C44 C45 1.363 . S
C44 H56 0.929 . S
C45 C44 1.363 . S
C45 N47 1.375 . S
C45 H63 0.931 . S
C46 N43 1.311 . S
C46 N47 1.347 . S
C46 H57 0.929 . S
N47 C45 1.375 . S
N47 C46 1.347 . S
C48 C51 1.365 . S
C48 N53 1.328 . S
C48 H54 0.929 . S
C49 C50 1.362 . S
C49 C52 1.378 . S
C49 H64 0.929 1_545 S
C50 C49 1.362 . S
C50 C51 1.366 . S
C51 C48 1.365 . S
C51 C50 1.366 . S
C51 H65 0.930 . S
C52 C49 1.378 . S
C52 N53 1.315 . S
C52 H55 0.930 . S
N53 Co33 2.194 . S
N53 C48 1.328 . S
N53 C52 1.315 . S
H54 C48 0.929 . S
H55 C52 0.930 . S
H56 C44 0.929 . S
H57 C46 0.929 . S
O58 Co33 2.351 . S
O58 C61 1.244 . S
O59 Co33 2.155 . S
O59 C61 1.240 . S
O60 Co33 2.096 . S
O60 C41 1.247 1_545 S
C61 O58 1.244 . S
C61 O59 1.240 . S
H62 C36 0.931 . S
H63 C45 0.931 . S
H64 C49 0.929 1_565 S
H65 C51 0.930 . S
Co66 N70 2.148 . S
Co66 N76 2.128 . S
Co66 N86 2.194 . S
Co66 O91 2.351 . S
Co66 O92 2.155 . S
Co66 O93 2.096 . S
C67 N70 1.301 . S
C67 N71 1.328 . S
C67 H72 0.930 . S
C68 C69 1.333 . S
C68 N70 1.317 . S
C68 H73 0.930 . S
C69 C68 1.333 . S
C69 N71 1.350 . S
C69 H95 0.931 . S
N70 Co66 2.148 . S
N70 C67 1.301 . S
N70 C68 1.317 . S
N71 C67 1.328 . S
N71 C69 1.350 . S
H72 C67 0.930 . S
H73 C68 0.930 . S
C74 O75 1.224 . S
C74 O93 1.247 1_455 S
O75 C74 1.224 . S
N76 Co66 2.128 . S
N76 C77 1.355 . S
N76 C79 1.311 . S
C77 N76 1.355 . S
C77 C78 1.363 . S
C77 H89 0.929 . S
C78 C77 1.363 . S
C78 N80 1.375 . S
C78 H96 0.931 . S
C79 N76 1.311 . S
C79 N80 1.347 . S
C79 H90 0.929 . S
N80 C78 1.375 . S
N80 C79 1.347 . S
C81 C84 1.365 . S
C81 N86 1.328 . S
C81 H87 0.929 . S
C82 C83 1.362 . S
C82 C85 1.378 . S
C82 H97 0.929 1_655 S
C83 C82 1.362 . S
C83 C84 1.366 . S
C84 C81 1.365 . S
C84 C83 1.366 . S
C84 H98 0.930 . S
C85 C82 1.378 . S
C85 N86 1.315 . S
C85 H88 0.930 . S
N86 Co66 2.194 . S
N86 C81 1.328 . S
N86 C85 1.315 . S
H87 C81 0.929 . S
H88 C85 0.930 . S
H89 C77 0.929 . S
H90 C79 0.929 . S
O91 Co66 2.351 . S
O91 C94 1.244 . S
O92 Co66 2.155 . S
O92 C94 1.240 . S
O93 Co66 2.096 . S
O93 C74 1.247 1_655 S
C94 O91 1.244 . S
C94 O92 1.240 . S
H95 C69 0.931 . S
H96 C78 0.931 . S
H97 C82 0.929 1_455 S
H98 C84 0.930 . S
Co99 N103 2.148 . S
Co99 N109 2.128 . S
Co99 N119 2.194 . S
Co99 O124 2.351 . S
Co99 O125 2.155 . S
Co99 O126 2.096 . S
C100 N103 1.301 . S
C100 N104 1.328 . S
C100 H105 0.930 . S
C101 C102 1.333 . S
C101 N103 1.317 . S
C101 H106 0.930 . S
C102 C101 1.333 . S
C102 N104 1.350 . S
C102 H128 0.931 . S
N103 Co99 2.148 . S
N103 C100 1.301 . S
N103 C101 1.317 . S
N104 C100 1.328 . S
N104 C102 1.350 . S
H105 C100 0.930 . S
H106 C101 0.930 . S
C107 O108 1.224 . S
C107 O126 1.247 1_545 S
O108 C107 1.224 . S
N109 Co99 2.128 . S
N109 C110 1.355 . S
N109 C112 1.311 . S
C110 N109 1.355 . S
C110 C111 1.363 . S
C110 H122 0.929 . S
C111 C110 1.363 . S
C111 N113 1.375 . S
C111 H129 0.931 . S
C112 N109 1.311 . S
C112 N113 1.347 . S
C112 H123 0.929 . S
N113 C111 1.375 . S
N113 C112 1.347 . S
C114 C117 1.365 . S
C114 N119 1.328 . S
C114 H120 0.929 . S
C115 C116 1.362 . S
C115 C118 1.378 . S
C115 H130 0.929 1_565 S
C116 C115 1.362 . S
C116 C117 1.366 . S
C117 C114 1.365 . S
C117 C116 1.366 . S
C117 H131 0.930 . S
C118 C115 1.378 . S
C118 N119 1.315 . S
C118 H121 0.930 . S
N119 Co99 2.194 . S
N119 C114 1.328 . S
N119 C118 1.315 . S
H120 C114 0.929 . S
H121 C118 0.930 . S
H122 C110 0.929 . S
H123 C112 0.929 . S
O124 Co99 2.351 . S
O124 C127 1.244 . S
O125 Co99 2.155 . S
O125 C127 1.240 . S
O126 Co99 2.096 . S
O126 C107 1.247 1_565 S
C127 O124 1.244 . S
C127 O125 1.240 . S
H128 C102 0.931 . S
H129 C111 0.931 . S
H130 C115 0.929 1_545 S
H131 C117 0.930 . S
Co132 N136 2.148 . S
Co132 N142 2.128 . S
Co132 N152 2.194 . S
Co132 O157 2.351 . S
Co132 O158 2.155 . S
Co132 O159 2.096 . S
C133 N136 1.301 . S
C133 N137 1.328 . S
C133 H138 0.930 . S
C134 C135 1.333 . S
C134 N136 1.317 . S
C134 H139 0.930 . S
C135 C134 1.333 . S
C135 N137 1.350 . S
C135 H161 0.931 . S
N136 Co132 2.148 . S
N136 C133 1.301 . S
N136 C134 1.317 . S
N137 C133 1.328 . S
N137 C135 1.350 . S
H138 C133 0.930 . S
H139 C134 0.930 . S
C140 O141 1.224 . S
C140 O159 1.247 . S
O141 C140 1.224 . S
N142 Co132 2.128 . S
N142 C143 1.355 . S
N142 C145 1.311 . S
C143 N142 1.355 . S
C143 C144 1.363 . S
C143 H155 0.929 . S
C144 C143 1.363 . S
C144 N146 1.375 . S
C144 H162 0.931 . S
C145 N142 1.311 . S
C145 N146 1.347 . S
C145 H156 0.929 . S
N146 C144 1.375 . S
N146 C145 1.347 . S
C147 C150 1.365 . S
C147 N152 1.328 . S
C147 H153 0.929 . S
C148 C149 1.362 . S
C148 C151 1.378 . S
C148 H163 0.929 . S
C149 C148 1.362 . S
C149 C150 1.366 . S
C150 C147 1.365 . S
C150 C149 1.366 . S
C150 H164 0.930 . S
C151 C148 1.378 . S
C151 N152 1.315 . S
C151 H154 0.930 . S
N152 Co132 2.194 . S
N152 C147 1.328 . S
N152 C151 1.315 . S
H153 C147 0.929 . S
H154 C151 0.930 . S
H155 C143 0.929 . S
H156 C145 0.929 . S
O157 Co132 2.351 . S
O157 C160 1.244 . S
O158 Co132 2.155 . S
O158 C160 1.240 . S
O159 Co132 2.096 . S
O159 C140 1.247 . S
C160 O157 1.244 . S
C160 O158 1.240 . S
H161 C135 0.931 . S
H162 C144 0.931 . S
H163 C148 0.929 . S
H164 C150 0.930 . S
Co165 N169 2.148 . S
Co165 N175 2.128 . S
Co165 N185 2.194 . S
Co165 O190 2.351 . S
Co165 O191 2.155 . S
Co165 O192 2.096 . S
C166 N169 1.301 . S
C166 N170 1.328 . S
C166 H171 0.930 . S
C167 C168 1.333 . S
C167 N169 1.317 . S
C167 H172 0.930 . S
C168 C167 1.333 . S
C168 N170 1.350 . S
C168 H194 0.931 . S
N169 Co165 2.148 . S
N169 C166 1.301 . S
N169 C167 1.317 . S
N170 C166 1.328 . S
N170 C168 1.350 . S
H171 C166 0.930 . S
H172 C167 0.930 . S
C173 O174 1.224 . S
C173 O192 1.247 . S
O174 C173 1.224 . S
N175 Co165 2.128 . S
N175 C176 1.355 . S
N175 C178 1.311 . S
C176 N175 1.355 . S
C176 C177 1.363 . S
C176 H188 0.929 . S
C177 C176 1.363 . S
C177 N179 1.375 . S
C177 H195 0.931 . S
C178 N175 1.311 . S
C178 N179 1.347 . S
C178 H189 0.929 . S
N179 C177 1.375 . S
N179 C178 1.347 . S
C180 C183 1.365 . S
C180 N185 1.328 . S
C180 H186 0.929 . S
C181 C182 1.362 . S
C181 C184 1.378 . S
C181 H196 0.929 . S
C182 C181 1.362 . S
C182 C183 1.366 . S
C183 C180 1.365 . S
C183 C182 1.366 . S
C183 H197 0.930 . S
C184 C181 1.378 . S
C184 N185 1.315 . S
C184 H187 0.930 . S
N185 Co165 2.194 . S
N185 C180 1.328 . S
N185 C184 1.315 . S
H186 C180 0.929 . S
H187 C184 0.930 . S
H188 C176 0.929 . S
H189 C178 0.929 . S
O190 Co165 2.351 . S
O190 C193 1.244 . S
O191 Co165 2.155 . S
O191 C193 1.240 . S
O192 Co165 2.096 . S
O192 C173 1.247 . S
C193 O190 1.244 . S
C193 O191 1.240 . S
H194 C168 0.931 . S
H195 C177 0.931 . S
H196 C181 0.929 . S
H197 C183 0.930 . S
Co198 N202 2.148 . S
Co198 N208 2.128 . S
Co198 N218 2.194 . S
Co198 O223 2.351 . S
Co198 O224 2.155 . S
Co198 O225 2.096 . S
C199 N202 1.301 . S
C199 N203 1.328 . S
C199 H204 0.930 . S
C200 C201 1.333 . S
C200 N202 1.317 . S
C200 H205 0.930 . S
C201 C200 1.333 . S
C201 N203 1.350 . S
C201 H227 0.931 . S
N202 Co198 2.148 . S
N202 C199 1.301 . S
N202 C200 1.317 . S
N203 C199 1.328 . S
N203 C201 1.350 . S
H204 C199 0.930 . S
H205 C200 0.930 . S
C206 O207 1.224 . S
C206 O225 1.247 . S
O207 C206 1.224 . S
N208 Co198 2.128 . S
N208 C209 1.355 . S
N208 C211 1.311 . S
C209 N208 1.355 . S
C209 C210 1.363 . S
C209 H221 0.929 . S
C210 C209 1.363 . S
C210 N212 1.375 . S
C210 H228 0.931 . S
C211 N208 1.311 . S
C211 N212 1.347 . S
C211 H222 0.929 . S
N212 C210 1.375 . S
N212 C211 1.347 . S
C213 C216 1.365 . S
C213 N218 1.328 . S
C213 H219 0.929 . S
C214 C215 1.362 . S
C214 C217 1.378 . S
C214 H229 0.929 . S
C215 C214 1.362 . S
C215 C216 1.366 . S
C216 C213 1.365 . S
C216 C215 1.366 . S
C216 H230 0.930 . S
C217 C214 1.378 . S
C217 N218 1.315 . S
C217 H220 0.930 . S
N218 Co198 2.194 . S
N218 C213 1.328 . S
N218 C217 1.315 . S
H219 C213 0.929 . S
H220 C217 0.930 . S
H221 C209 0.929 . S
H222 C211 0.929 . S
O223 Co198 2.351 . S
O223 C226 1.244 . S
O224 Co198 2.155 . S
O224 C226 1.240 . S
O225 Co198 2.096 . S
O225 C206 1.247 . S
C226 O223 1.244 . S
C226 O224 1.240 . S
H227 C201 0.931 . S
H228 C210 0.931 . S
H229 C214 0.929 . S
H230 C216 0.930 . S
Co231 N235 2.148 . S
Co231 N241 2.128 . S
Co231 N251 2.194 . S
Co231 O256 2.351 . S
Co231 O257 2.155 . S
Co231 O258 2.096 . S
C232 N235 1.301 . S
C232 N236 1.328 . S
C232 H237 0.930 . S
C233 C234 1.333 . S
C233 N235 1.317 . S
C233 H238 0.930 . S
C234 C233 1.333 . S
C234 N236 1.350 . S
C234 H260 0.931 . S
N235 Co231 2.148 . S
N235 C232 1.301 . S
N235 C233 1.317 . S
N236 C232 1.328 . S
N236 C234 1.350 . S
H237 C232 0.930 . S
H238 C233 0.930 . S
C239 O240 1.224 . S
C239 O258 1.247 . S
O240 C239 1.224 . S
N241 Co231 2.128 . S
N241 C242 1.355 . S
N241 C244 1.311 . S
C242 N241 1.355 . S
C242 C243 1.363 . S
C242 H254 0.929 . S
C243 C242 1.363 . S
C243 N245 1.375 . S
C243 H261 0.931 . S
C244 N241 1.311 . S
C244 N245 1.347 . S
C244 H255 0.929 . S
N245 C243 1.375 . S
N245 C244 1.347 . S
C246 C249 1.365 . S
C246 N251 1.328 . S
C246 H252 0.929 . S
C247 C248 1.362 . S
C247 C250 1.378 . S
C247 H262 0.929 . S
C248 C247 1.362 . S
C248 C249 1.366 . S
C249 C246 1.365 . S
C249 C248 1.366 . S
C249 H263 0.930 . S
C250 C247 1.378 . S
C250 N251 1.315 . S
C250 H253 0.930 . S
N251 Co231 2.194 . S
N251 C246 1.328 . S
N251 C250 1.315 . S
H252 C246 0.929 . S
H253 C250 0.930 . S
H254 C242 0.929 . S
H255 C244 0.929 . S
O256 Co231 2.351 . S
O256 C259 1.244 . S
O257 Co231 2.155 . S
O257 C259 1.240 . S
O258 Co231 2.096 . S
O258 C239 1.247 . S
C259 O256 1.244 . S
C259 O257 1.240 . S
H260 C234 0.931 . S
H261 C243 0.931 . S
H262 C247 0.929 . S
H263 C249 0.930 . S
Co264 N268 2.148 . S
Co264 N274 2.128 . S
Co264 N284 2.194 . S
Co264 O289 2.351 . S
Co264 O290 2.155 . S
Co264 O291 2.096 . S
C265 N268 1.301 . S
C265 N269 1.328 . S
C265 H270 0.930 . S
C266 C267 1.333 . S
C266 N268 1.317 . S
C266 H271 0.930 . S
C267 C266 1.333 . S
C267 N269 1.350 . S
C267 H293 0.931 . S
N268 Co264 2.148 . S
N268 C265 1.301 . S
N268 C266 1.317 . S
N269 C265 1.328 . S
N269 C267 1.350 . S
H270 C265 0.930 . S
H271 C266 0.930 . S
C272 O273 1.224 . S
C272 O291 1.247 1_455 S
O273 C272 1.224 . S
N274 Co264 2.128 . S
N274 C275 1.355 . S
N274 C277 1.311 . S
C275 N274 1.355 . S
C275 C276 1.363 . S
C275 H287 0.929 . S
C276 C275 1.363 . S
C276 N278 1.375 . S
C276 H294 0.931 . S
C277 N274 1.311 . S
C277 N278 1.347 . S
C277 H288 0.929 . S
N278 C276 1.375 . S
N278 C277 1.347 . S
C279 C282 1.365 . S
C279 N284 1.328 . S
C279 H285 0.929 . S
C280 C281 1.362 . S
C280 C283 1.378 . S
C280 H295 0.929 1_655 S
C281 C280 1.362 . S
C281 C282 1.366 . S
C282 C279 1.365 . S
C282 C281 1.366 . S
C282 H296 0.930 . S
C283 C280 1.378 . S
C283 N284 1.315 . S
C283 H286 0.930 . S
N284 Co264 2.194 . S
N284 C279 1.328 . S
N284 C283 1.315 . S
H285 C279 0.929 . S
H286 C283 0.930 . S
H287 C275 0.929 . S
H288 C277 0.929 . S
O289 Co264 2.351 . S
O289 C292 1.244 . S
O290 Co264 2.155 . S
O290 C292 1.240 . S
O291 Co264 2.096 . S
O291 C272 1.247 1_655 S
C292 O289 1.244 . S
C292 O290 1.240 . S
H293 C267 0.931 . S
H294 C276 0.931 . S
H295 C280 0.929 1_455 S
H296 C282 0.930 . S
Co297 N301 2.148 . S
Co297 N307 2.128 . S
Co297 N317 2.194 . S
Co297 O322 2.351 . S
Co297 O323 2.155 . S
Co297 O324 2.096 . S
C298 N301 1.301 . S
C298 N302 1.328 . S
C298 H303 0.930 . S
C299 C300 1.333 . S
C299 N301 1.317 . S
C299 H304 0.930 . S
C300 C299 1.333 . S
C300 N302 1.350 . S
C300 H326 0.931 . S
N301 Co297 2.148 . S
N301 C298 1.301 . S
N301 C299 1.317 . S
N302 C298 1.328 . S
N302 C300 1.350 . S
H303 C298 0.930 . S
H304 C299 0.930 . S
C305 O306 1.224 . S
C305 O324 1.247 1_545 S
O306 C305 1.224 . S
N307 Co297 2.128 . S
N307 C308 1.355 . S
N307 C310 1.311 . S
C308 N307 1.355 . S
C308 C309 1.363 . S
C308 H320 0.929 . S
C309 C308 1.363 . S
C309 N311 1.375 . S
C309 H327 0.931 . S
C310 N307 1.311 . S
C310 N311 1.347 . S
C310 H321 0.929 . S
N311 C309 1.375 . S
N311 C310 1.347 . S
C312 C315 1.365 . S
C312 N317 1.328 . S
C312 H318 0.929 . S
C313 C314 1.362 . S
C313 C316 1.378 . S
C313 H328 0.929 1_565 S
C314 C313 1.362 . S
C314 C315 1.366 . S
C315 C312 1.365 . S
C315 C314 1.366 . S
C315 H329 0.930 . S
C316 C313 1.378 . S
C316 N317 1.315 . S
C316 H319 0.930 . S
N317 Co297 2.194 . S
N317 C312 1.328 . S
N317 C316 1.315 . S
H318 C312 0.929 . S
H319 C316 0.930 . S
H320 C308 0.929 . S
H321 C310 0.929 . S
O322 Co297 2.351 . S
O322 C325 1.244 . S
O323 Co297 2.155 . S
O323 C325 1.240 . S
O324 Co297 2.096 . S
O324 C305 1.247 1_565 S
C325 O322 1.244 . S
C325 O323 1.240 . S
H326 C300 0.931 . S
H327 C309 0.931 . S
H328 C313 0.929 1_545 S
H329 C315 0.930 . S
Co330 N334 2.148 . S
Co330 N340 2.128 . S
Co330 N350 2.194 . S
Co330 O355 2.351 . S
Co330 O356 2.155 . S
Co330 O357 2.096 . S
C331 N334 1.301 . S
C331 N335 1.328 . S
C331 H336 0.930 . S
C332 C333 1.333 . S
C332 N334 1.317 . S
C332 H337 0.930 . S
C333 C332 1.333 . S
C333 N335 1.350 . S
C333 H359 0.931 . S
N334 Co330 2.148 . S
N334 C331 1.301 . S
N334 C332 1.317 . S
N335 C331 1.328 . S
N335 C333 1.350 . S
H336 C331 0.930 . S
H337 C332 0.930 . S
C338 O339 1.224 . S
C338 O357 1.247 1_655 S
O339 C338 1.224 . S
N340 Co330 2.128 . S
N340 C341 1.355 . S
N340 C343 1.311 . S
C341 N340 1.355 . S
C341 C342 1.363 . S
C341 H353 0.929 . S
C342 C341 1.363 . S
C342 N344 1.375 . S
C342 H360 0.931 . S
C343 N340 1.311 . S
C343 N344 1.347 . S
C343 H354 0.929 . S
N344 C342 1.375 . S
N344 C343 1.347 . S
C345 C348 1.365 . S
C345 N350 1.328 . S
C345 H351 0.929 . S
C346 C347 1.362 . S
C346 C349 1.378 . S
C346 H361 0.929 1_455 S
C347 C346 1.362 . S
C347 C348 1.366 . S
C348 C345 1.365 . S
C348 C347 1.366 . S
C348 H362 0.930 . S
C349 C346 1.378 . S
C349 N350 1.315 . S
C349 H352 0.930 . S
N350 Co330 2.194 . S
N350 C345 1.328 . S
N350 C349 1.315 . S
H351 C345 0.929 . S
H352 C349 0.930 . S
H353 C341 0.929 . S
H354 C343 0.929 . S
O355 Co330 2.351 . S
O355 C358 1.244 . S
O356 Co330 2.155 . S
O356 C358 1.240 . S
O357 Co330 2.096 . S
O357 C338 1.247 1_455 S
C358 O355 1.244 . S
C358 O356 1.240 . S
H359 C333 0.931 . S
H360 C342 0.931 . S
H361 C346 0.929 1_655 S
H362 C348 0.930 . S
Co363 N367 2.148 . S
Co363 N373 2.128 . S
Co363 N383 2.194 . S
Co363 O388 2.351 . S
Co363 O389 2.155 . S
Co363 O390 2.096 . S
C364 N367 1.301 . S
C364 N368 1.328 . S
C364 H369 0.930 . S
C365 C366 1.333 . S
C365 N367 1.317 . S
C365 H370 0.930 . S
C366 C365 1.333 . S
C366 N368 1.350 . S
C366 H392 0.931 . S
N367 Co363 2.148 . S
N367 C364 1.301 . S
N367 C365 1.317 . S
N368 C364 1.328 . S
N368 C366 1.350 . S
H369 C364 0.930 . S
H370 C365 0.930 . S
C371 O372 1.224 . S
C371 O390 1.247 1_565 S
O372 C371 1.224 . S
N373 Co363 2.128 . S
N373 C374 1.355 . S
N373 C376 1.311 . S
C374 N373 1.355 . S
C374 C375 1.363 . S
C374 H386 0.929 . S
C375 C374 1.363 . S
C375 N377 1.375 . S
C375 H393 0.931 . S
C376 N373 1.311 . S
C376 N377 1.347 . S
C376 H387 0.929 . S
N377 C375 1.375 . S
N377 C376 1.347 . S
C378 C381 1.365 . S
C378 N383 1.328 . S
C378 H384 0.929 . S
C379 C380 1.362 . S
C379 C382 1.378 . S
C379 H394 0.929 1_545 S
C380 C379 1.362 . S
C380 C381 1.366 . S
C381 C378 1.365 . S
C381 C380 1.366 . S
C381 H395 0.930 . S
C382 C379 1.378 . S
C382 N383 1.315 . S
C382 H385 0.930 . S
N383 Co363 2.194 . S
N383 C378 1.328 . S
N383 C382 1.315 . S
H384 C378 0.929 . S
H385 C382 0.930 . S
H386 C374 0.929 . S
H387 C376 0.929 . S
O388 Co363 2.351 . S
O388 C391 1.244 . S
O389 Co363 2.155 . S
O389 C391 1.240 . S
O390 Co363 2.096 . S
O390 C371 1.247 1_545 S
C391 O388 1.244 . S
C391 O389 1.240 . S
H392 C366 0.931 . S
H393 C375 0.931 . S
H394 C379 0.929 1_565 S
H395 C381 0.930 . S
Co396 N400 2.148 . S
Co396 N406 2.128 . S
Co396 N416 2.194 . S
Co396 O421 2.351 . S
Co396 O422 2.155 . S
Co396 O423 2.096 . S
C397 N400 1.301 . S
C397 N401 1.328 . S
C397 H402 0.930 . S
C398 C399 1.333 . S
C398 N400 1.317 . S
C398 H403 0.930 . S
C399 C398 1.333 . S
C399 N401 1.350 . S
C399 H425 0.931 . S
N400 Co396 2.148 . S
N400 C397 1.301 . S
N400 C398 1.317 . S
N401 C397 1.328 . S
N401 C399 1.350 . S
H402 C397 0.930 . S
H403 C398 0.930 . S
C404 O405 1.224 . S
C404 O423 1.247 . S
O405 C404 1.224 . S
N406 Co396 2.128 . S
N406 C407 1.355 . S
N406 C409 1.311 . S
C407 N406 1.355 . S
C407 C408 1.363 . S
C407 H419 0.929 . S
C408 C407 1.363 . S
C408 N410 1.375 . S
C408 H426 0.931 . S
C409 N406 1.311 . S
C409 N410 1.347 . S
C409 H420 0.929 . S
N410 C408 1.375 . S
N410 C409 1.347 . S
C411 C414 1.365 . S
C411 N416 1.328 . S
C411 H417 0.929 . S
C412 C413 1.362 . S
C412 C415 1.378 . S
C412 H427 0.929 . S
C413 C412 1.362 . S
C413 C414 1.366 . S
C414 C411 1.365 . S
C414 C413 1.366 . S
C414 H428 0.930 . S
C415 C412 1.378 . S
C415 N416 1.315 . S
C415 H418 0.930 . S
N416 Co396 2.194 . S
N416 C411 1.328 . S
N416 C415 1.315 . S
H417 C411 0.929 . S
H418 C415 0.930 . S
H419 C407 0.929 . S
H420 C409 0.929 . S
O421 Co396 2.351 . S
O421 C424 1.244 . S
O422 Co396 2.155 . S
O422 C424 1.240 . S
O423 Co396 2.096 . S
O423 C404 1.247 . S
C424 O421 1.244 . S
C424 O422 1.240 . S
H425 C399 0.931 . S
H426 C408 0.931 . S
H427 C412 0.929 . S
H428 C414 0.930 . S
Co429 N433 2.148 . S
Co429 N439 2.128 . S
Co429 N449 2.194 . S
Co429 O454 2.351 . S
Co429 O455 2.155 . S
Co429 O456 2.096 . S
C430 N433 1.301 . S
C430 N434 1.328 . S
C430 H435 0.930 . S
C431 C432 1.333 . S
C431 N433 1.317 . S
C431 H436 0.930 . S
C432 C431 1.333 . S
C432 N434 1.350 . S
C432 H458 0.931 . S
N433 Co429 2.148 . S
N433 C430 1.301 . S
N433 C431 1.317 . S
N434 C430 1.328 . S
N434 C432 1.350 . S
H435 C430 0.930 . S
H436 C431 0.930 . S
C437 O438 1.224 . S
C437 O456 1.247 . S
O438 C437 1.224 . S
N439 Co429 2.128 . S
N439 C440 1.355 . S
N439 C442 1.311 . S
C440 N439 1.355 . S
C440 C441 1.363 . S
C440 H452 0.929 . S
C441 C440 1.363 . S
C441 N443 1.375 . S
C441 H459 0.931 . S
C442 N439 1.311 . S
C442 N443 1.347 . S
C442 H453 0.929 . S
N443 C441 1.375 . S
N443 C442 1.347 . S
C444 C447 1.365 . S
C444 N449 1.328 . S
C444 H450 0.929 . S
C445 C446 1.362 . S
C445 C448 1.378 . S
C445 H460 0.929 . S
C446 C445 1.362 . S
C446 C447 1.366 . S
C447 C444 1.365 . S
C447 C446 1.366 . S
C447 H461 0.930 . S
C448 C445 1.378 . S
C448 N449 1.315 . S
C448 H451 0.930 . S
N449 Co429 2.194 . S
N449 C444 1.328 . S
N449 C448 1.315 . S
H450 C444 0.929 . S
H451 C448 0.930 . S
H452 C440 0.929 . S
H453 C442 0.929 . S
O454 Co429 2.351 . S
O454 C457 1.244 . S
O455 Co429 2.155 . S
O455 C457 1.240 . S
O456 Co429 2.096 . S
O456 C437 1.247 . S
C457 O454 1.244 . S
C457 O455 1.240 . S
H458 C432 0.931 . S
H459 C441 0.931 . S
H460 C445 0.929 . S
H461 C447 0.930 . S
Co462 N466 2.148 . S
Co462 N472 2.128 . S
Co462 N482 2.194 . S
Co462 O487 2.351 . S
Co462 O488 2.155 . S
Co462 O489 2.096 . S
C463 N466 1.301 . S
C463 N467 1.328 . S
C463 H468 0.930 . S
C464 C465 1.333 . S
C464 N466 1.317 . S
C464 H469 0.930 . S
C465 C464 1.333 . S
C465 N467 1.350 . S
C465 H491 0.931 . S
N466 Co462 2.148 . S
N466 C463 1.301 . S
N466 C464 1.317 . S
N467 C463 1.328 . S
N467 C465 1.350 . S
H468 C463 0.930 . S
H469 C464 0.930 . S
C470 O471 1.224 . S
C470 O489 1.247 . S
O471 C470 1.224 . S
N472 Co462 2.128 . S
N472 C473 1.355 . S
N472 C475 1.311 . S
C473 N472 1.355 . S
C473 C474 1.363 . S
C473 H485 0.929 . S
C474 C473 1.363 . S
C474 N476 1.375 . S
C474 H492 0.931 . S
C475 N472 1.311 . S
C475 N476 1.347 . S
C475 H486 0.929 . S
N476 C474 1.375 . S
N476 C475 1.347 . S
C477 C480 1.365 . S
C477 N482 1.328 . S
C477 H483 0.929 . S
C478 C479 1.362 . S
C478 C481 1.378 . S
C478 H493 0.929 . S
C479 C478 1.362 . S
C479 C480 1.366 . S
C480 C477 1.365 . S
C480 C479 1.366 . S
C480 H494 0.930 . S
C481 C478 1.378 . S
C481 N482 1.315 . S
C481 H484 0.930 . S
N482 Co462 2.194 . S
N482 C477 1.328 . S
N482 C481 1.315 . S
H483 C477 0.929 . S
H484 C481 0.930 . S
H485 C473 0.929 . S
H486 C475 0.929 . S
O487 Co462 2.351 . S
O487 C490 1.244 . S
O488 Co462 2.155 . S
O488 C490 1.240 . S
O489 Co462 2.096 . S
O489 C470 1.247 . S
C490 O487 1.244 . S
C490 O488 1.240 . S
H491 C465 0.931 . S
H492 C474 0.931 . S
H493 C478 0.929 . S
H494 C480 0.930 . S
Co495 N499 2.148 . S
Co495 N505 2.128 . S
Co495 N515 2.194 . S
Co495 O520 2.351 . S
Co495 O521 2.155 . S
Co495 O522 2.096 . S
C496 N499 1.301 . S
C496 N500 1.328 . S
C496 H501 0.930 . S
C497 C498 1.333 . S
C497 N499 1.317 . S
C497 H502 0.930 . S
C498 C497 1.333 . S
C498 N500 1.350 . S
C498 H524 0.931 . S
N499 Co495 2.148 . S
N499 C496 1.301 . S
N499 C497 1.317 . S
N500 C496 1.328 . S
N500 C498 1.350 . S
H501 C496 0.930 . S
H502 C497 0.930 . S
C503 O504 1.224 . S
C503 O522 1.247 . S
O504 C503 1.224 . S
N505 Co495 2.128 . S
N505 C506 1.355 . S
N505 C508 1.311 . S
C506 N505 1.355 . S
C506 C507 1.363 . S
C506 H518 0.929 . S
C507 C506 1.363 . S
C507 N509 1.375 . S
C507 H525 0.931 . S
C508 N505 1.311 . S
C508 N509 1.347 . S
C508 H519 0.929 . S
N509 C507 1.375 . S
N509 C508 1.347 . S
C510 C513 1.365 . S
C510 N515 1.328 . S
C510 H516 0.929 . S
C511 C512 1.362 . S
C511 C514 1.378 . S
C511 H526 0.929 . S
C512 C511 1.362 . S
C512 C513 1.366 . S
C513 C510 1.365 . S
C513 C512 1.366 . S
C513 H527 0.930 . S
C514 C511 1.378 . S
C514 N515 1.315 . S
C514 H517 0.930 . S
N515 Co495 2.194 . S
N515 C510 1.328 . S
N515 C514 1.315 . S
H516 C510 0.929 . S
H517 C514 0.930 . S
H518 C506 0.929 . S
H519 C508 0.929 . S
O520 Co495 2.351 . S
O520 C523 1.244 . S
O521 Co495 2.155 . S
O521 C523 1.240 . S
O522 Co495 2.096 . S
O522 C503 1.247 . S
C523 O520 1.244 . S
C523 O521 1.240 . S
H524 C498 0.931 . S
H525 C507 0.931 . S
H526 C511 0.929 . S
H527 C513 0.930 . S
H528 C534 0.930 . S
H529 C537 0.930 . S
H530 C538 0.930 . S
H531 C539 0.930 . S
H532 C542 0.930 . S
H533 C543 0.930 . S
C534 H528 0.930 . S
C534 C535 1.355 . S
C534 C536 1.415 . S
C535 C534 1.355 . S
C535 C537 1.419 . S
C536 C534 1.415 . S
C536 C541 1.425 . S
C536 C543 1.409 . S
C537 H529 0.930 . S
C537 C535 1.419 . S
C537 C538 1.362 . S
C538 H530 0.930 . S
C538 C537 1.362 . S
C538 C541 1.409 . S
C539 H531 0.930 . S
C539 C540 1.355 . S
C539 C541 1.415 . S
C540 C539 1.355 . S
C540 C542 1.419 . S
C541 C536 1.425 . S
C541 C538 1.409 . S
C541 C539 1.415 . S
C542 H532 0.930 . S
C542 C540 1.419 . S
C542 C543 1.362 . S
C543 H533 0.930 . S
C543 C536 1.409 . S
C543 C542 1.362 . S
H544 C550 0.930 . S
H545 C553 0.930 . S
H546 C554 0.930 . S
H547 C555 0.930 . S
H548 C558 0.930 . S
H549 C559 0.930 . S
C550 H544 0.930 . S
C550 C551 1.355 . S
C550 C552 1.415 . S
C551 C550 1.355 . S
C551 C553 1.419 . S
C552 C550 1.415 . S
C552 C557 1.425 . S
C552 C559 1.409 . S
C553 H545 0.930 . S
C553 C551 1.419 . S
C553 C554 1.362 . S
C554 H546 0.930 . S
C554 C553 1.362 . S
C554 C557 1.409 . S
C555 H547 0.930 . S
C555 C556 1.355 . S
C555 C557 1.415 . S
C556 C555 1.355 . S
C556 C558 1.419 . S
C557 C552 1.425 . S
C557 C554 1.409 . S
C557 C555 1.415 . S
C558 H548 0.930 . S
C558 C556 1.419 . S
C558 C559 1.362 . S
C559 H549 0.930 . S
C559 C552 1.409 . S
C559 C558 1.362 . S
H560 C566 0.930 . S
H561 C569 0.930 . S
H562 C570 0.930 . S
H563 C571 0.930 . S
H564 C574 0.930 . S
H565 C575 0.930 . S
C566 H560 0.930 . S
C566 C567 1.355 . S
C566 C568 1.415 . S
C567 C566 1.355 . S
C567 C569 1.419 . S
C568 C566 1.415 . S
C568 C573 1.425 . S
C568 C575 1.409 . S
C569 H561 0.930 . S
C569 C567 1.419 . S
C569 C570 1.362 . S
C570 H562 0.930 . S
C570 C569 1.362 . S
C570 C573 1.409 . S
C571 H563 0.930 . S
C571 C572 1.355 . S
C571 C573 1.415 . S
C572 C571 1.355 . S
C572 C574 1.419 . S
C573 C568 1.425 . S
C573 C570 1.409 . S
C573 C571 1.415 . S
C574 H564 0.930 . S
C574 C572 1.419 . S
C574 C575 1.362 . S
C575 H565 0.930 . S
C575 C568 1.409 . S
C575 C574 1.362 . S
H576 C582 0.930 . S
H577 C585 0.930 . S
H578 C586 0.930 . S
H579 C587 0.930 . S
H580 C590 0.930 . S
H581 C591 0.930 . S
C582 H576 0.930 . S
C582 C583 1.355 . S
C582 C584 1.415 . S
C583 C582 1.355 . S
C583 C585 1.419 . S
C584 C582 1.415 . S
C584 C589 1.425 . S
C584 C591 1.409 . S
C585 H577 0.930 . S
C585 C583 1.419 . S
C585 C586 1.362 . S
C586 H578 0.930 . S
C586 C585 1.362 . S
C586 C589 1.409 . S
C587 H579 0.930 . S
C587 C588 1.355 . S
C587 C589 1.415 . S
C588 C587 1.355 . S
C588 C590 1.419 . S
C589 C584 1.425 . S
C589 C586 1.409 . S
C589 C587 1.415 . S
C590 H580 0.930 . S
C590 C588 1.419 . S
C590 C591 1.362 . S
C591 H581 0.930 . S
C591 C584 1.409 . S
C591 C590 1.362 . S
H592 C598 0.930 . S
H593 C601 0.930 . S
H594 C602 0.930 . S
H595 C603 0.930 . S
H596 C606 0.930 . S
H597 C607 0.930 . S
C598 H592 0.930 . S
C598 C599 1.355 . S
C598 C600 1.415 . S
C599 C598 1.355 . S
C599 C601 1.419 . S
C600 C598 1.415 . S
C600 C605 1.425 . S
C600 C607 1.409 . S
C601 H593 0.930 . S
C601 C599 1.419 . S
C601 C602 1.362 . S
C602 H594 0.930 . S
C602 C601 1.362 . S
C602 C605 1.409 . S
C603 H595 0.930 . S
C603 C604 1.355 . S
C603 C605 1.415 . S
C604 C603 1.355 . S
C604 C606 1.419 . S
C605 C600 1.425 . S
C605 C602 1.409 . S
C605 C603 1.415 . S
C606 H596 0.930 . S
C606 C604 1.419 . S
C606 C607 1.362 . S
C607 H597 0.930 . S
C607 C600 1.409 . S
C607 C606 1.362 . S
H608 C614 0.930 . S
H609 C617 0.930 . S
H610 C618 0.930 . S
H611 C619 0.930 . S
H612 C622 0.930 . S
H613 C623 0.930 . S
C614 H608 0.930 . S
C614 C615 1.355 . S
C614 C616 1.415 . S
C615 C614 1.355 . S
C615 C617 1.419 . S
C616 C614 1.415 . S
C616 C621 1.425 . S
C616 C623 1.409 . S
C617 H609 0.930 . S
C617 C615 1.419 . S
C617 C618 1.362 . S
C618 H610 0.930 . S
C618 C617 1.362 . S
C618 C621 1.409 . S
C619 H611 0.930 . S
C619 C620 1.355 . S
C619 C621 1.415 . S
C620 C619 1.355 . S
C620 C622 1.419 . S
C621 C616 1.425 . S
C621 C618 1.409 . S
C621 C619 1.415 . S
C622 H612 0.930 . S
C622 C620 1.419 . S
C622 C623 1.362 . S
C623 H613 0.930 . S
C623 C616 1.409 . S
C623 C622 1.362 . S
H624 C630 0.930 . S
H625 C633 0.930 . S
H626 C634 0.930 . S
H627 C635 0.930 . S
H628 C638 0.930 . S
H629 C639 0.930 . S
C630 H624 0.930 . S
C630 C631 1.355 . S
C630 C632 1.415 . S
C631 C630 1.355 . S
C631 C633 1.419 . S
C632 C630 1.415 . S
C632 C637 1.425 . S
C632 C639 1.409 . S
C633 H625 0.930 . S
C633 C631 1.419 . S
C633 C634 1.362 . S
C634 H626 0.930 . S
C634 C633 1.362 . S
C634 C637 1.409 . S
C635 H627 0.930 . S
C635 C636 1.355 . S
C635 C637 1.415 . S
C636 C635 1.355 . S
C636 C638 1.419 . S
C637 C632 1.425 . S
C637 C634 1.409 . S
C637 C635 1.415 . S
C638 H628 0.930 . S
C638 C636 1.419 . S
C638 C639 1.362 . S
C639 H629 0.930 . S
C639 C632 1.409 . S
C639 C638 1.362 . S
H640 C646 0.930 . S
H641 C649 0.930 . S
H642 C650 0.930 . S
H643 C651 0.930 . S
H644 C654 0.930 . S
H645 C655 0.930 . S
C646 H640 0.930 . S
C646 C647 1.355 . S
C646 C648 1.415 . S
C647 C646 1.355 . S
C647 C649 1.419 . S
C648 C646 1.415 . S
C648 C653 1.425 . S
C648 C655 1.409 . S
C649 H641 0.930 . S
C649 C647 1.419 . S
C649 C650 1.362 . S
C650 H642 0.930 . S
C650 C649 1.362 . S
C650 C653 1.409 . S
C651 H643 0.930 . S
C651 C652 1.355 . S
C651 C653 1.415 . S
C652 C651 1.355 . S
C652 C654 1.419 . S
C653 C648 1.425 . S
C653 C650 1.409 . S
C653 C651 1.415 . S
C654 H644 0.930 . S
C654 C652 1.419 . S
C654 C655 1.362 . S
C655 H645 0.930 . S
C655 C648 1.409 . S
C655 C654 1.362 . S
H656 C662 0.930 . S
H657 C665 0.930 . S
H658 C666 0.930 . S
H659 C667 0.930 . S
H660 C670 0.930 . S
H661 C671 0.930 1_655 S
C662 H656 0.930 . S
C662 C663 1.355 . S
C662 C664 1.415 . S
C663 C662 1.355 . S
C663 C665 1.419 . S
C664 C662 1.415 . S
C664 C669 1.425 1_554 S
C664 C671 1.409 1_554 S
C665 H657 0.930 . S
C665 C663 1.419 . S
C665 C666 1.362 . S
C666 H658 0.930 . S
C666 C665 1.362 . S
C666 C669 1.409 1_554 S
C667 H659 0.930 . S
C667 C668 1.355 . S
C667 C669 1.415 . S
C668 C667 1.355 . S
C668 C670 1.419 . S
C669 C664 1.425 1_556 S
C669 C666 1.409 1_556 S
C669 C667 1.415 . S
C670 H660 0.930 . S
C670 C668 1.419 . S
C670 C671 1.362 . S
C671 H661 0.930 1_455 S
C671 C664 1.409 1_556 S
C671 C670 1.362 . S
H672 C678 0.930 . S
H673 C681 0.930 . S
H674 C682 0.930 . S
H675 C683 0.930 . S
H676 C686 0.930 . S
H677 C687 0.930 . S
C678 H672 0.930 . S
C678 C679 1.355 . S
C678 C680 1.415 . S
C679 C678 1.355 . S
C679 C681 1.419 . S
C680 C678 1.415 . S
C680 C685 1.425 . S
C680 C687 1.409 . S
C681 H673 0.930 . S
C681 C679 1.419 . S
C681 C682 1.362 . S
C682 H674 0.930 . S
C682 C681 1.362 . S
C682 C685 1.409 . S
C683 H675 0.930 . S
C683 C684 1.355 . S
C683 C685 1.415 . S
C684 C683 1.355 . S
C684 C686 1.419 . S
C685 C680 1.425 . S
C685 C682 1.409 . S
C685 C683 1.415 . S
C686 H676 0.930 . S
C686 C684 1.419 . S
C686 C687 1.362 . S
C687 H677 0.930 . S
C687 C680 1.409 . S
C687 C686 1.362 . S
H688 C694 0.930 . S
H689 C697 0.930 1_455 S
H690 C698 0.930 1_455 S
H691 C699 0.930 . S
H692 C702 0.930 . S
H693 C703 0.930 . S
C694 H688 0.930 . S
C694 C695 1.355 . S
C694 C696 1.415 . S
C695 C694 1.355 . S
C695 C697 1.419 . S
C696 C694 1.415 . S
C696 C701 1.425 1_556 S
C696 C703 1.409 1_556 S
C697 H689 0.930 1_655 S
C697 C695 1.419 . S
C697 C698 1.362 . S
C698 H690 0.930 1_655 S
C698 C697 1.362 . S
C698 C701 1.409 1_556 S
C699 H691 0.930 . S
C699 C700 1.355 . S
C699 C701 1.415 . S
C700 C699 1.355 . S
C700 C702 1.419 . S
C701 C696 1.425 1_554 S
C701 C698 1.409 1_554 S
C701 C699 1.415 . S
C702 H692 0.930 . S
C702 C700 1.419 . S
C702 C703 1.362 . S
C703 H693 0.930 . S
C703 C696 1.409 1_554 S
C703 C702 1.362 . S
H704 C710 0.930 . S
H705 C713 0.930 . S
H706 C714 0.930 . S
H707 C715 0.930 . S
H708 C718 0.930 1_545 S
H709 C719 0.930 1_545 S
C710 H704 0.930 . S
C710 C711 1.355 . S
C710 C712 1.415 . S
C711 C710 1.355 . S
C711 C713 1.419 . S
C712 C710 1.415 . S
C712 C717 1.425 . S
C712 C719 1.409 . S
C713 H705 0.930 . S
C713 C711 1.419 . S
C713 C714 1.362 . S
C714 H706 0.930 . S
C714 C713 1.362 . S
C714 C717 1.409 . S
C715 H707 0.930 . S
C715 C716 1.355 . S
C715 C717 1.415 . S
C716 C715 1.355 . S
C716 C718 1.419 . S
C717 C712 1.425 . S
C717 C714 1.409 . S
C717 C715 1.415 . S
C718 H708 0.930 1_565 S
C718 C716 1.419 . S
C718 C719 1.362 . S
C719 H709 0.930 1_565 S
C719 C712 1.409 . S
C719 C718 1.362 . S
H720 C726 0.930 . S
H721 C729 0.930 . S
H722 C730 0.930 . S
H723 C731 0.930 . S
H724 C734 0.930 . S
H725 C735 0.930 . S
C726 H720 0.930 . S
C726 C727 1.355 . S
C726 C728 1.415 . S
C727 C726 1.355 . S
C727 C729 1.419 . S
C728 C726 1.415 . S
C728 C733 1.425 1_554 S
C728 C735 1.409 1_554 S
C729 H721 0.930 . S
C729 C727 1.419 . S
C729 C730 1.362 . S
C730 H722 0.930 . S
C730 C729 1.362 . S
C730 C733 1.409 1_554 S
C731 H723 0.930 . S
C731 C732 1.355 . S
C731 C733 1.415 . S
C732 C731 1.355 . S
C732 C734 1.419 . S
C733 C728 1.425 1_556 S
C733 C730 1.409 1_556 S
C733 C731 1.415 . S
C734 H724 0.930 . S
C734 C732 1.419 . S
C734 C735 1.362 . S
C735 H725 0.930 . S
C735 C728 1.409 1_556 S
C735 C734 1.362 . S
H736 C742 0.930 . S
H737 C745 0.930 . S
H738 C746 0.930 . S
H739 C747 0.930 . S
H740 C750 0.930 . S
H741 C751 0.930 . S
C742 H736 0.930 . S
C742 C743 1.355 . S
C742 C744 1.415 . S
C743 C742 1.355 . S
C743 C745 1.419 . S
C744 C742 1.415 . S
C744 C749 1.425 . S
C744 C751 1.409 . S
C745 H737 0.930 . S
C745 C743 1.419 . S
C745 C746 1.362 . S
C746 H738 0.930 . S
C746 C745 1.362 . S
C746 C749 1.409 . S
C747 H739 0.930 . S
C747 C748 1.355 . S
C747 C749 1.415 . S
C748 C747 1.355 . S
C748 C750 1.419 . S
C749 C744 1.425 . S
C749 C746 1.409 . S
C749 C747 1.415 . S
C750 H740 0.930 . S
C750 C748 1.419 . S
C750 C751 1.362 . S
C751 H741 0.930 . S
C751 C744 1.409 . S
C751 C750 1.362 . S
H752 C758 0.930 . S
H753 C761 0.930 . S
H754 C762 0.930 . S
H755 C763 0.930 . S
H756 C766 0.930 . S
H757 C767 0.930 . S
C758 H752 0.930 . S
C758 C759 1.355 . S
C758 C760 1.415 . S
C759 C758 1.355 . S
C759 C761 1.419 . S
C760 C758 1.415 . S
C760 C765 1.425 1_554 S
C760 C767 1.409 1_554 S
C761 H753 0.930 . S
C761 C759 1.419 . S
C761 C762 1.362 . S
C762 H754 0.930 . S
C762 C761 1.362 . S
C762 C765 1.409 1_554 S
C763 H755 0.930 . S
C763 C764 1.355 . S
C763 C765 1.415 . S
C764 C763 1.355 . S
C764 C766 1.419 . S
C765 C760 1.425 1_556 S
C765 C762 1.409 1_556 S
C765 C763 1.415 . S
C766 H756 0.930 . S
C766 C764 1.419 . S
C766 C767 1.362 . S
C767 H757 0.930 . S
C767 C760 1.409 1_556 S
C767 C766 1.362 . S
H768 C774 0.930 . S
H769 C777 0.930 . S
H770 C778 0.930 . S
H771 C779 0.930 . S
H772 C782 0.930 . S
H773 C783 0.930 . S
C774 H768 0.930 . S
C774 C775 1.355 . S
C774 C776 1.415 . S
C775 C774 1.355 . S
C775 C777 1.419 . S
C776 C774 1.415 . S
C776 C781 1.425 . S
C776 C783 1.409 . S
C777 H769 0.930 . S
C777 C775 1.419 . S
C777 C778 1.362 . S
C778 H770 0.930 . S
C778 C777 1.362 . S
C778 C781 1.409 . S
C779 H771 0.930 . S
C779 C780 1.355 . S
C779 C781 1.415 . S
C780 C779 1.355 . S
C780 C782 1.419 . S
C781 C776 1.425 . S
C781 C778 1.409 . S
C781 C779 1.415 . S
C782 H772 0.930 . S
C782 C780 1.419 . S
C782 C783 1.362 . S
C783 H773 0.930 . S
C783 C776 1.409 . S
C783 C782 1.362 . S
H784 C790 0.930 . S
H785 C793 0.930 . S
H786 C794 0.930 . S
H787 C795 0.930 . S
H788 C798 0.930 . S
H789 C799 0.930 . S
C790 H784 0.930 . S
C790 C791 1.355 . S
C790 C792 1.415 1_455 S
C791 C790 1.355 . S
C791 C793 1.419 . S
C792 C790 1.415 1_655 S
C792 C797 1.425 1_655 S
C792 C799 1.409 . S
C793 H785 0.930 . S
C793 C791 1.419 . S
C793 C794 1.362 . S
C794 H786 0.930 . S
C794 C793 1.362 . S
C794 C797 1.409 . S
C795 H787 0.930 . S
C795 C796 1.355 . S
C795 C797 1.415 1_655 S
C796 C795 1.355 . S
C796 C798 1.419 . S
C797 C792 1.425 1_455 S
C797 C794 1.409 . S
C797 C795 1.415 1_455 S
C798 H788 0.930 . S
C798 C796 1.419 . S
C798 C799 1.362 . S
C799 H789 0.930 . S
C799 C792 1.409 . S
C799 C798 1.362 . S
H800 C806 0.930 . S
H801 C809 0.930 . S
H802 C810 0.930 . S
H803 C811 0.930 . S
H804 C814 0.930 . S
H805 C815 0.930 . S
C806 H800 0.930 . S
C806 C807 1.355 . S
C806 C808 1.415 1_565 S
C807 C806 1.355 . S
C807 C809 1.419 . S
C808 C806 1.415 1_545 S
C808 C813 1.425 1_545 S
C808 C815 1.409 . S
C809 H801 0.930 . S
C809 C807 1.419 . S
C809 C810 1.362 . S
C810 H802 0.930 . S
C810 C809 1.362 . S
C810 C813 1.409 . S
C811 H803 0.930 . S
C811 C812 1.355 . S
C811 C813 1.415 1_545 S
C812 C811 1.355 . S
C812 C814 1.419 . S
C813 C808 1.425 1_565 S
C813 C810 1.409 . S
C813 C811 1.415 1_565 S
C814 H804 0.930 . S
C814 C812 1.419 . S
C814 C815 1.362 . S
C815 H805 0.930 . S
C815 C808 1.409 . S
C815 C814 1.362 . S
H816 C822 0.930 . S
H817 C825 0.930 . S
H818 C826 0.930 . S
H819 C827 0.930 . S
H820 C830 0.930 . S
H821 C831 0.930 . S
C822 H816 0.930 . S
C822 C823 1.355 . S
C822 C824 1.415 . S
C823 C822 1.355 . S
C823 C825 1.419 1_565 S
C824 C822 1.415 . S
C824 C829 1.425 1_565 S
C824 C831 1.409 . S
C825 H817 0.930 . S
C825 C823 1.419 1_545 S
C825 C826 1.362 . S
C826 H818 0.930 . S
C826 C825 1.362 . S
C826 C829 1.409 . S
C827 H819 0.930 . S
C827 C828 1.355 . S
C827 C829 1.415 . S
C828 C827 1.355 . S
C828 C830 1.419 1_545 S
C829 C824 1.425 1_545 S
C829 C826 1.409 . S
C829 C827 1.415 . S
C830 H820 0.930 . S
C830 C828 1.419 1_565 S
C830 C831 1.362 . S
C831 H821 0.930 . S
C831 C824 1.409 . S
C831 C830 1.362 . S
H832 C838 0.930 . S
H833 C841 0.930 . S
H834 C842 0.930 1_655 S
H835 C843 0.930 . S
H836 C846 0.930 . S
H837 C847 0.930 1_455 S
C838 H832 0.930 . S
C838 C839 1.355 . S
C838 C840 1.415 . S
C839 C838 1.355 . S
C839 C841 1.419 . S
C840 C838 1.415 . S
C840 C845 1.425 1_455 S
C840 C847 1.409 1_455 S
C841 H833 0.930 . S
C841 C839 1.419 . S
C841 C842 1.362 . S
C842 H834 0.930 1_455 S
C842 C841 1.362 . S
C842 C845 1.409 1_455 S
C843 H835 0.930 . S
C843 C844 1.355 . S
C843 C845 1.415 . S
C844 C843 1.355 . S
C844 C846 1.419 . S
C845 C840 1.425 1_655 S
C845 C842 1.409 1_655 S
C845 C843 1.415 . S
C846 H836 0.930 . S
C846 C844 1.419 . S
C846 C847 1.362 . S
C847 H837 0.930 1_655 S
C847 C840 1.409 1_655 S
C847 C846 1.362 . S
H848 C854 0.930 . S
H849 C857 0.930 . S
H850 C858 0.930 . S
H851 C859 0.930 . S
H852 C862 0.930 . S
H853 C863 0.930 . S
C854 H848 0.930 . S
C854 C855 1.355 . S
C854 C856 1.415 1_655 S
C855 C854 1.355 . S
C855 C857 1.419 . S
C856 C854 1.415 1_455 S
C856 C861 1.425 1_455 S
C856 C863 1.409 . S
C857 H849 0.930 . S
C857 C855 1.419 . S
C857 C858 1.362 . S
C858 H850 0.930 . S
C858 C857 1.362 . S
C858 C861 1.409 . S
C859 H851 0.930 . S
C859 C860 1.355 . S
C859 C861 1.415 1_455 S
C860 C859 1.355 . S
C860 C862 1.419 . S
C861 C856 1.425 1_655 S
C861 C858 1.409 . S
C861 C859 1.415 1_655 S
C862 H852 0.930 . S
C862 C860 1.419 . S
C862 C863 1.362 . S
C863 H853 0.930 . S
C863 C856 1.409 . S
C863 C862 1.362 . S
H864 C870 0.930 . S
H865 C873 0.930 . S
H866 C874 0.930 . S
H867 C875 0.930 . S
H868 C878 0.930 . S
H869 C879 0.930 . S
C870 H864 0.930 . S
C870 C871 1.355 . S
C870 C872 1.402 1_545 S
C871 C870 1.355 . S
C871 C873 1.419 . S
C872 C870 1.402 1_565 S
C872 C877 1.425 1_565 S
C872 C879 1.422 . S
C873 H865 0.930 . S
C873 C871 1.419 . S
C873 C874 1.362 . S
C874 H866 0.930 . S
C874 C873 1.362 . S
C874 C877 1.422 . S
C875 H867 0.930 . S
C875 C876 1.355 . S
C875 C877 1.402 1_565 S
C876 C875 1.355 . S
C876 C878 1.419 . S
C877 C872 1.425 1_545 S
C877 C874 1.422 . S
C877 C875 1.402 1_545 S
C878 H868 0.930 . S
C878 C876 1.419 . S
C878 C879 1.362 . S
C879 H869 0.930 . S
C879 C872 1.422 . S
C879 C878 1.362 . S
H880 C886 0.930 . S
H881 C889 0.930 . S
H882 C890 0.930 . S
H883 C891 0.930 . S
H884 C894 0.930 . S
H885 C895 0.930 . S
C886 H880 0.930 . S
C886 C887 1.355 . S
C886 C888 1.415 1_565 S
C887 C886 1.355 . S
C887 C889 1.419 . S
C888 C886 1.415 1_545 S
C888 C893 1.425 1_545 S
C888 C895 1.409 . S
C889 H881 0.930 . S
C889 C887 1.419 . S
C889 C890 1.362 . S
C890 H882 0.930 . S
C890 C889 1.362 . S
C890 C893 1.409 . S
C891 H883 0.930 . S
C891 C892 1.355 . S
C891 C893 1.415 1_545 S
C892 C891 1.355 . S
C892 C894 1.419 . S
C893 C888 1.425 1_565 S
C893 C890 1.409 . S
C893 C891 1.415 1_565 S
C894 H884 0.930 . S
C894 C892 1.419 . S
C894 C895 1.362 . S
C895 H885 0.930 . S
C895 C888 1.409 . S
C895 C894 1.362 . S
H896 C902 0.930 1_655 S
H897 C905 0.930 . S
H898 C906 0.930 . S
H899 C907 0.930 1_455 S
H900 C910 0.930 . S
H901 C911 0.930 . S
C902 H896 0.930 1_455 S
C902 C903 1.355 . S
C902 C904 1.415 1_455 S
C903 C902 1.355 . S
C903 C905 1.419 . S
C904 C902 1.415 1_655 S
C904 C909 1.425 1_655 S
C904 C911 1.409 . S
C905 H897 0.930 . S
C905 C903 1.419 . S
C905 C906 1.362 . S
C906 H898 0.930 . S
C906 C905 1.362 . S
C906 C909 1.409 . S
C907 H899 0.930 1_655 S
C907 C908 1.355 . S
C907 C909 1.415 1_655 S
C908 C907 1.355 . S
C908 C910 1.419 . S
C909 C904 1.425 1_455 S
C909 C906 1.409 . S
C909 C907 1.415 1_455 S
C910 H900 0.930 . S
C910 C908 1.419 . S
C910 C911 1.362 . S
C911 H901 0.930 . S
C911 C904 1.409 . S
C911 C910 1.362 . S
H912 C918 0.930 . S
H913 C921 0.930 . S
H914 C922 0.930 . S
H915 C923 0.930 . S
H916 C926 0.930 . S
H917 C927 0.930 . S
C918 H912 0.930 . S
C918 C919 1.355 . S
C918 C920 1.415 . S
C919 C918 1.355 . S
C919 C921 1.419 . S
C920 C918 1.415 . S
C920 C925 1.425 . S
C920 C927 1.409 . S
C921 H913 0.930 . S
C921 C919 1.419 . S
C921 C922 1.362 . S
C922 H914 0.930 . S
C922 C921 1.362 . S
C922 C925 1.409 . S
C923 H915 0.930 . S
C923 C924 1.355 . S
C923 C925 1.415 . S
C924 C923 1.355 . S
C924 C926 1.419 . S
C925 C920 1.425 . S
C925 C922 1.409 . S
C925 C923 1.415 . S
C926 H916 0.930 . S
C926 C924 1.419 . S
C926 C927 1.362 . S
C927 H917 0.930 . S
C927 C920 1.409 . S
C927 C926 1.362 . S
H928 C934 0.930 . S
H929 C937 0.930 . S
H930 C938 0.930 . S
H931 C939 0.930 . S
H932 C942 0.930 . S
H933 C943 0.930 . S
C934 H928 0.930 . S
C934 C935 1.355 . S
C934 C936 1.415 . S
C935 C934 1.355 . S
C935 C937 1.419 . S
C936 C934 1.415 . S
C936 C941 1.425 . S
C936 C943 1.409 . S
C937 H929 0.930 . S
C937 C935 1.419 . S
C937 C938 1.362 . S
C938 H930 0.930 . S
C938 C937 1.362 . S
C938 C941 1.409 . S
C939 H931 0.930 . S
C939 C940 1.355 . S
C939 C941 1.415 . S
C940 C939 1.355 . S
C940 C942 1.419 . S
C941 C936 1.425 . S
C941 C938 1.409 . S
C941 C939 1.415 . S
C942 H932 0.930 . S
C942 C940 1.419 . S
C942 C943 1.362 . S
C943 H933 0.930 . S
C943 C936 1.409 . S
C943 C942 1.362 . S
H944 C950 0.930 . S
H945 C953 0.930 . S
H946 C954 0.930 . S
H947 C955 0.930 . S
H948 C958 0.930 . S
H949 C959 0.930 . S
C950 H944 0.930 . S
C950 C951 1.355 . S
C950 C952 1.415 . S
C951 C950 1.355 . S
C951 C953 1.419 . S
C952 C950 1.415 . S
C952 C957 1.425 . S
C952 C959 1.409 . S
C953 H945 0.930 . S
C953 C951 1.419 . S
C953 C954 1.362 . S
C954 H946 0.930 . S
C954 C953 1.362 . S
C954 C957 1.409 . S
C955 H947 0.930 . S
C955 C956 1.355 . S
C955 C957 1.415 . S
C956 C955 1.355 . S
C956 C958 1.419 . S
C957 C952 1.425 . S
C957 C954 1.409 . S
C957 C955 1.415 . S
C958 H948 0.930 . S
C958 C956 1.419 . S
C958 C959 1.362 . S
C959 H949 0.930 . S
C959 C952 1.409 . S
C959 C958 1.362 . S
H960 C966 0.930 . S
H961 C969 0.930 . S
H962 C970 0.930 . S
H963 C971 0.930 . S
H964 C974 0.930 . S
H965 C975 0.930 . S
C966 H960 0.930 . S
C966 C967 1.355 . S
C966 C968 1.415 . S
C967 C966 1.355 . S
C967 C969 1.419 . S
C968 C966 1.415 . S
C968 C973 1.425 . S
C968 C975 1.409 . S
C969 H961 0.930 . S
C969 C967 1.419 . S
C969 C970 1.362 . S
C970 H962 0.930 . S
C970 C969 1.362 . S
C970 C973 1.409 . S
C971 H963 0.930 . S
C971 C972 1.355 . S
C971 C973 1.415 . S
C972 C971 1.355 . S
C972 C974 1.419 . S
C973 C968 1.425 . S
C973 C970 1.409 . S
C973 C971 1.415 . S
C974 H964 0.930 . S
C974 C972 1.419 . S
C974 C975 1.362 . S
C975 H965 0.930 . S
C975 C968 1.409 . S
C975 C974 1.362 . S
H976 C982 0.930 . S
H977 C985 0.930 . S
H978 C986 0.930 . S
H979 C987 0.930 . S
H980 C990 0.930 . S
H981 C991 0.930 . S
C982 H976 0.930 . S
C982 C983 1.355 . S
C982 C984 1.415 . S
C983 C982 1.355 . S
C983 C985 1.419 . S
C984 C982 1.415 . S
C984 C989 1.425 . S
C984 C991 1.409 . S
C985 H977 0.930 . S
C985 C983 1.419 . S
C985 C986 1.362 . S
C986 H978 0.930 . S
C986 C985 1.362 . S
C986 C989 1.409 . S
C987 H979 0.930 . S
C987 C988 1.355 . S
C987 C989 1.415 . S
C988 C987 1.355 . S
C988 C990 1.419 . S
C989 C984 1.425 . S
C989 C986 1.409 . S
C989 C987 1.415 . S
C990 H980 0.930 . S
C990 C988 1.419 . S
C990 C991 1.362 . S
C991 H981 0.930 . S
C991 C984 1.409 . S
C991 C990 1.362 . S
H992 C998 0.930 . S
H993 C1001 0.930 . S
H994 C1002 0.930 . S
H995 C1003 0.930 . S
H996 C1006 0.930 . S
H997 C1007 0.930 . S
C998 H992 0.930 . S
C998 C999 1.355 . S
C998 C1000 1.415 . S
C999 C998 1.355 . S
C999 C1001 1.419 . S
C1000 C998 1.415 . S
C1000 C1005 1.425 . S
C1000 C1007 1.409 . S
C1001 H993 0.930 . S
C1001 C999 1.419 . S
C1001 C1002 1.362 . S
C1002 H994 0.930 . S
C1002 C1001 1.362 . S
C1002 C1005 1.409 . S
C1003 H995 0.930 . S
C1003 C1004 1.355 . S
C1003 C1005 1.415 . S
C1004 C1003 1.355 . S
C1004 C1006 1.419 . S
C1005 C1000 1.425 . S
C1005 C1002 1.409 . S
C1005 C1003 1.415 . S
C1006 H996 0.930 . S
C1006 C1004 1.419 . S
C1006 C1007 1.362 . S
C1007 H997 0.930 . S
C1007 C1000 1.409 . S
C1007 C1006 1.362 . S
H1008 C1014 0.930 . S
H1009 C1017 0.930 . S
H1010 C1018 0.930 . S
H1011 C1019 0.930 . S
H1012 C1022 0.930 . S
H1013 C1023 0.930 . S
C1014 H1008 0.930 . S
C1014 C1015 1.355 . S
C1014 C1016 1.415 . S
C1015 C1014 1.355 . S
C1015 C1017 1.419 . S
C1016 C1014 1.415 . S
C1016 C1021 1.425 . S
C1016 C1023 1.409 . S
C1017 H1009 0.930 . S
C1017 C1015 1.419 . S
C1017 C1018 1.362 . S
C1018 H1010 0.930 . S
C1018 C1017 1.362 . S
C1018 C1021 1.409 . S
C1019 H1011 0.930 . S
C1019 C1020 1.355 . S
C1019 C1021 1.415 . S
C1020 C1019 1.355 . S
C1020 C1022 1.419 . S
C1021 C1016 1.425 . S
C1021 C1018 1.409 . S
C1021 C1019 1.415 . S
C1022 H1012 0.930 . S
C1022 C1020 1.419 . S
C1022 C1023 1.362 . S
C1023 H1013 0.930 . S
C1023 C1016 1.409 . S
C1023 C1022 1.362 . S
H1024 C1030 0.930 . S
H1025 C1033 0.930 . S
H1026 C1034 0.930 . S
H1027 C1035 0.930 . S
H1028 C1038 0.930 . S
H1029 C1039 0.930 . S
C1030 H1024 0.930 . S
C1030 C1031 1.355 . S
C1030 C1032 1.415 . S
C1031 C1030 1.355 . S
C1031 C1033 1.419 . S
C1032 C1030 1.415 . S
C1032 C1037 1.425 . S
C1032 C1039 1.409 . S
C1033 H1025 0.930 . S
C1033 C1031 1.419 . S
C1033 C1034 1.362 . S
C1034 H1026 0.930 . S
C1034 C1033 1.362 . S
C1034 C1037 1.409 . S
C1035 H1027 0.930 . S
C1035 C1036 1.355 . S
C1035 C1037 1.415 . S
C1036 C1035 1.355 . S
C1036 C1038 1.419 . S
C1037 C1032 1.425 . S
C1037 C1034 1.409 . S
C1037 C1035 1.415 . S
C1038 H1028 0.930 . S
C1038 C1036 1.419 . S
C1038 C1039 1.362 . S
C1039 H1029 0.930 . S
C1039 C1032 1.409 . S
C1039 C1038 1.362 . S
H1040 C1046 0.930 . S
H1041 C1049 0.930 . S
H1042 C1050 0.930 . S
H1043 C1051 0.930 . S
H1044 C1054 0.930 . S
H1045 C1055 0.930 . S
C1046 H1040 0.930 . S
C1046 C1047 1.355 . S
C1046 C1048 1.415 . S
C1047 C1046 1.355 . S
C1047 C1049 1.419 . S
C1048 C1046 1.415 . S
C1048 C1053 1.425 . S
C1048 C1055 1.409 . S
C1049 H1041 0.930 . S
C1049 C1047 1.419 . S
C1049 C1050 1.362 . S
C1050 H1042 0.930 . S
C1050 C1049 1.362 . S
C1050 C1053 1.409 . S
C1051 H1043 0.930 . S
C1051 C1052 1.355 . S
C1051 C1053 1.415 . S
C1052 C1051 1.355 . S
C1052 C1054 1.419 . S
C1053 C1048 1.425 . S
C1053 C1050 1.409 . S
C1053 C1051 1.415 . S
C1054 H1044 0.930 . S
C1054 C1052 1.419 . S
C1054 C1055 1.362 . S
C1055 H1045 0.930 . S
C1055 C1048 1.409 . S
C1055 C1054 1.362 . S
H1056 C1062 0.930 . S
H1057 C1065 0.930 . S
H1058 C1066 0.930 . S
H1059 C1067 0.930 . S
H1060 C1070 0.930 . S
H1061 C1071 0.930 . S
C1062 H1056 0.930 . S
C1062 C1063 1.355 . S
C1062 C1064 1.415 . S
C1063 C1062 1.355 . S
C1063 C1065 1.419 . S
C1064 C1062 1.415 . S
C1064 C1069 1.425 . S
C1064 C1071 1.409 . S
C1065 H1057 0.930 . S
C1065 C1063 1.419 . S
C1065 C1066 1.362 . S
C1066 H1058 0.930 . S
C1066 C1065 1.362 . S
C1066 C1069 1.409 . S
C1067 H1059 0.930 . S
C1067 C1068 1.355 . S
C1067 C1069 1.415 . S
C1068 C1067 1.355 . S
C1068 C1070 1.419 . S
C1069 C1064 1.425 . S
C1069 C1066 1.409 . S
C1069 C1067 1.415 . S
C1070 H1060 0.930 . S
C1070 C1068 1.419 . S
C1070 C1071 1.362 . S
C1071 H1061 0.930 . S
C1071 C1064 1.409 . S
C1071 C1070 1.362 . S
H1072 C1078 0.930 . S
H1073 C1081 0.930 . S
H1074 C1082 0.930 . S
H1075 C1083 0.930 . S
H1076 C1086 0.930 . S
H1077 C1087 0.930 . S
C1078 H1072 0.930 . S
C1078 C1079 1.355 . S
C1078 C1080 1.415 . S
C1079 C1078 1.355 . S
C1079 C1081 1.419 . S
C1080 C1078 1.415 . S
C1080 C1085 1.425 . S
C1080 C1087 1.409 . S
C1081 H1073 0.930 . S
C1081 C1079 1.419 . S
C1081 C1082 1.362 . S
C1082 H1074 0.930 . S
C1082 C1081 1.362 . S
C1082 C1085 1.409 . S
C1083 H1075 0.930 . S
C1083 C1084 1.355 . S
C1083 C1085 1.415 . S
C1084 C1083 1.355 . S
C1084 C1086 1.419 . S
C1085 C1080 1.425 . S
C1085 C1082 1.409 . S
C1085 C1083 1.415 . S
C1086 H1076 0.930 . S
C1086 C1084 1.419 . S
C1086 C1087 1.362 . S
C1087 H1077 0.930 . S
C1087 C1080 1.409 . S
C1087 C1086 1.362 . S
H1088 C1094 0.930 . S
H1089 C1097 0.930 . S
H1090 C1098 0.930 . S
H1091 C1099 0.930 . S
H1092 C1102 0.930 . S
H1093 C1103 0.930 . S
C1094 H1088 0.930 . S
C1094 C1095 1.355 . S
C1094 C1096 1.415 . S
C1095 C1094 1.355 . S
C1095 C1097 1.419 . S
C1096 C1094 1.415 . S
C1096 C1101 1.425 . S
C1096 C1103 1.409 . S
C1097 H1089 0.930 . S
C1097 C1095 1.419 . S
C1097 C1098 1.362 . S
C1098 H1090 0.930 . S
C1098 C1097 1.362 . S
C1098 C1101 1.409 . S
C1099 H1091 0.930 . S
C1099 C1100 1.355 . S
C1099 C1101 1.415 . S
C1100 C1099 1.355 . S
C1100 C1102 1.419 . S
C1101 C1096 1.425 . S
C1101 C1098 1.409 . S
C1101 C1099 1.415 . S
C1102 H1092 0.930 . S
C1102 C1100 1.419 . S
C1102 C1103 1.362 . S
C1103 H1093 0.930 . S
C1103 C1096 1.409 . S
C1103 C1102 1.362 . S
H1104 C1110 0.930 . S
H1105 C1113 0.930 . S
H1106 C1114 0.930 . S
H1107 C1115 0.930 . S
H1108 C1118 0.930 . S
H1109 C1119 0.930 . S
C1110 H1104 0.930 . S
C1110 C1111 1.355 . S
C1110 C1112 1.415 . S
C1111 C1110 1.355 . S
C1111 C1113 1.419 . S
C1112 C1110 1.415 . S
C1112 C1117 1.425 . S
C1112 C1119 1.409 . S
C1113 H1105 0.930 . S
C1113 C1111 1.419 . S
C1113 C1114 1.362 . S
C1114 H1106 0.930 . S
C1114 C1113 1.362 . S
C1114 C1117 1.409 . S
C1115 H1107 0.930 . S
C1115 C1116 1.355 . S
C1115 C1117 1.415 . S
C1116 C1115 1.355 . S
C1116 C1118 1.419 . S
C1117 C1112 1.425 . S
C1117 C1114 1.409 . S
C1117 C1115 1.415 . S
C1118 H1108 0.930 . S
C1118 C1116 1.419 . S
C1118 C1119 1.362 . S
C1119 H1109 0.930 . S
C1119 C1112 1.409 . S
C1119 C1118 1.362 . S
H1120 C1126 0.930 . S
H1121 C1129 0.930 . S
H1122 C1130 0.930 . S
H1123 C1131 0.930 . S
H1124 C1134 0.930 . S
H1125 C1135 0.930 . S
C1126 H1120 0.930 . S
C1126 C1127 1.355 . S
C1126 C1128 1.415 . S
C1127 C1126 1.355 . S
C1127 C1129 1.419 . S
C1128 C1126 1.415 . S
C1128 C1133 1.425 . S
C1128 C1135 1.409 . S
C1129 H1121 0.930 . S
C1129 C1127 1.419 . S
C1129 C1130 1.362 . S
C1130 H1122 0.930 . S
C1130 C1129 1.362 . S
C1130 C1133 1.409 . S
C1131 H1123 0.930 . S
C1131 C1132 1.355 . S
C1131 C1133 1.415 . S
C1132 C1131 1.355 . S
C1132 C1134 1.419 . S
C1133 C1128 1.425 . S
C1133 C1130 1.409 . S
C1133 C1131 1.415 . S
C1134 H1124 0.930 . S
C1134 C1132 1.419 . S
C1134 C1135 1.362 . S
C1135 H1125 0.930 . S
C1135 C1128 1.409 . S
C1135 C1134 1.362 . S
H1136 C1142 0.930 . S
H1137 C1145 0.930 . S
H1138 C1146 0.930 . S
H1139 C1147 0.930 . S
H1140 C1150 0.930 . S
H1141 C1151 0.930 . S
C1142 H1136 0.930 . S
C1142 C1143 1.355 . S
C1142 C1144 1.415 . S
C1143 C1142 1.355 . S
C1143 C1145 1.419 . S
C1144 C1142 1.415 . S
C1144 C1149 1.425 . S
C1144 C1151 1.409 . S
C1145 H1137 0.930 . S
C1145 C1143 1.419 . S
C1145 C1146 1.362 . S
C1146 H1138 0.930 . S
C1146 C1145 1.362 . S
C1146 C1149 1.409 . S
C1147 H1139 0.930 . S
C1147 C1148 1.355 . S
C1147 C1149 1.415 . S
C1148 C1147 1.355 . S
C1148 C1150 1.419 . S
C1149 C1144 1.425 . S
C1149 C1146 1.409 . S
C1149 C1147 1.415 . S
C1150 H1140 0.930 . S
C1150 C1148 1.419 . S
C1150 C1151 1.362 . S
C1151 H1141 0.930 . S
C1151 C1144 1.409 . S
C1151 C1150 1.362 . S
H1152 C1158 0.930 . S
H1153 C1161 0.930 . S
H1154 C1162 0.930 . S
H1155 C1163 0.930 . S
H1156 C1166 0.930 . S
H1157 C1167 0.930 . S
C1158 H1152 0.930 . S
C1158 C1159 1.355 . S
C1158 C1160 1.415 . S
C1159 C1158 1.355 . S
C1159 C1161 1.419 . S
C1160 C1158 1.415 . S
C1160 C1165 1.425 . S
C1160 C1167 1.409 . S
C1161 H1153 0.930 . S
C1161 C1159 1.419 . S
C1161 C1162 1.362 . S
C1162 H1154 0.930 . S
C1162 C1161 1.362 . S
C1162 C1165 1.409 . S
C1163 H1155 0.930 . S
C1163 C1164 1.355 . S
C1163 C1165 1.415 . S
C1164 C1163 1.355 . S
C1164 C1166 1.419 . S
C1165 C1160 1.425 . S
C1165 C1162 1.409 . S
C1165 C1163 1.415 . S
C1166 H1156 0.930 . S
C1166 C1164 1.419 . S
C1166 C1167 1.362 . S
C1167 H1157 0.930 . S
C1167 C1160 1.409 . S
C1167 C1166 1.362 . S
C535 N5 1.824 . S
C540 N236 1.833 . S
C551 N137 1.825 . S
C556 N38 1.824 . S
C567 N170 1.820 . S
C572 N71 1.830 . S
C583 N203 1.833 . S
C588 N104 1.820 . S
C599 N269 1.821 . S
C604 N500 1.833 . S
C615 N302 1.827 . S
C620 N401 1.821 . S
C631 N434 1.824 . S
C636 N335 1.833 . S
C647 N368 1.825 . S
C652 N467 1.823 . S
C663 N14 1.570 . S
C668 N344 1.642 . S
C679 N377 1.605 . S
C684 N47 1.607 . S
C695 N278 1.640 . S
C700 N80 1.572 . S
C711 N311 1.574 . S
C716 N113 1.638 . S
C727 N476 1.602 . S
C732 N146 1.611 . S
C743 N509 1.640 . S
C748 N179 1.572 . S
C759 N410 1.626 . S
C764 N212 1.587 . S
C775 N443 1.585 . S
C780 N245 1.627 . S
C791 C17 0.743 . S
C796 C83 0.710 . S
C807 C116 0.770 . S
C812 C50 0.757 . S
C823 C215 0.766 . S
C828 C149 0.747 . S
C839 C248 0.705 . S
C844 C182 0.739 . S
C855 C281 0.770 . S
C860 C347 0.756 . S
C871 C380 0.763 . S
C876 C314 0.741 . S
C887 C413 0.558 . S
C892 C479 0.584 . S
C903 C446 0.558 . S
C908 C512 0.551 . S
C919 C470 1.761 . S
C924 C28 1.924 . S
C935 C61 1.923 . S
C940 C503 1.759 . S
C951 C404 1.850 . S
C956 C94 1.978 . S
C967 C437 1.798 . S
C972 C127 1.954 . S
C983 C338 1.848 . S
C988 C160 1.976 . S
C999 C193 1.981 . S
C1004 C371 1.851 . S
C1015 C272 1.766 . S
C1020 C226 1.933 . S
C1031 C259 1.924 . S
C1036 C305 1.762 . S
C1047 C206 1.771 . S
C1052 C292 1.937 . S
C1063 C239 1.852 . S
C1068 C325 1.981 . S
C1079 C140 1.759 . S
C1084 C358 1.926 . S
C1095 C391 1.972 . S
C1100 C173 1.844 . S
C1111 C74 1.780 . S
C1116 C424 1.943 . S
C1127 C457 1.979 . S
C1132 C107 1.843 . S
C1143 C490 1.924 . S
C1148 C8 1.762 . S
C1159 C41 1.789 . S
C1164 C523 1.949 . S
