# Generated by pormake.
# Topology smu, (6)-cn, num edge types: 1
# Building blocks:
#     Node 0, Type 0, BuildingBlock: PAMTOO_clean_sbu_0, # of connection points: 6
#     Node 1, Type 0, BuildingBlock: PAMTOO_clean_sbu_0, # of connection points: 6
#     Node 2, Type 0, BuildingBlock: PAMTOO_clean_sbu_0, # of connection points: 6
#     Node 3, Type 0, BuildingBlock: PAMTOO_clean_sbu_0, # of connection points: 6
#     Node 4, Type 0, BuildingBlock: PAMTOO_clean_sbu_0, # of connection points: 6
#     Node 5, Type 0, BuildingBlock: PAMTOO_clean_sbu_0, # of connection points: 6
#     Edge 6, Type (0, 0), BuildingBlock: FUNLAD_clean_linker_0, # of connection points: 2
#     Edge 7, Type (0, 0), BuildingBlock: FUNLAD_clean_linker_0, # of connection points: 2
#     Edge 8, Type (0, 0), BuildingBlock: FUNLAD_clean_linker_0, # of connection points: 2
#     Edge 9, Type (0, 0), BuildingBlock: FUNLAD_clean_linker_0, # of connection points: 2
#     Edge 10, Type (0, 0), BuildingBlock: FUNLAD_clean_linker_0, # of connection points: 2
#     Edge 11, Type (0, 0), BuildingBlock: FUNLAD_clean_linker_0, # of connection points: 2
#     Edge 12, Type (0, 0), BuildingBlock: FUNLAD_clean_linker_0, # of connection points: 2
#     Edge 13, Type (0, 0), BuildingBlock: FUNLAD_clean_linker_0, # of connection points: 2
#     Edge 14, Type (0, 0), BuildingBlock: FUNLAD_clean_linker_0, # of connection points: 2
#     Edge 15, Type (0, 0), BuildingBlock: FUNLAD_clean_linker_0, # of connection points: 2
#     Edge 16, Type (0, 0), BuildingBlock: FUNLAD_clean_linker_0, # of connection points: 2
#     Edge 17, Type (0, 0), BuildingBlock: FUNLAD_clean_linker_0, # of connection points: 2
#     Edge 18, Type (0, 0), BuildingBlock: FUNLAD_clean_linker_0, # of connection points: 2
#     Edge 19, Type (0, 0), BuildingBlock: FUNLAD_clean_linker_0, # of connection points: 2
#     Edge 20, Type (0, 0), BuildingBlock: FUNLAD_clean_linker_0, # of connection points: 2
#     Edge 21, Type (0, 0), BuildingBlock: FUNLAD_clean_linker_0, # of connection points: 2
#     Edge 22, Type (0, 0), BuildingBlock: FUNLAD_clean_linker_0, # of connection points: 2
#     Edge 23, Type (0, 0), BuildingBlock: FUNLAD_clean_linker_0, # of connection points: 2
# Relax obj value: 0.213
# Max RMSD: 0.303
# Mean RMSD: 0.303
data_MOF--net-smu--node1-PAMTOO_clean_sbu_0--edge1-FUNLAD_clean_linker_0
_symmetry_space_group_name_H-M    P1
_symmetry_Int_Tables_number       1
_symmetry_cell_setting            triclinic
loop_
_symmetry_equiv_pos_as_xyz
'x, y, z'
_cell_length_a     43.90633
_cell_length_b     43.984423
_cell_length_c     32.507643
_cell_angle_alpha  90.059267
_cell_angle_beta   90.31389
_cell_angle_gamma 119.83598
loop_
_atom_site_label
_atom_site_type_symbol
_atom_site_fract_x
_atom_site_fract_y
_atom_site_fract_z
_atom_type_partial_charge
Dy0 Dy 0.37627 0.08318 0.25205 0.0
Dy1 Dy 0.32013 0.11112 0.26075 0.0
C2 C 0.34057 0.07967 0.33606 0.0
O3 O 0.32446 0.03358 0.24234 0.0
O4 O 0.28513 0.05367 0.2538 0.0
O5 O 0.41194 0.07008 0.28234 0.0
O6 O 0.40966 0.07026 0.21581 0.0
O7 O 0.31116 0.08949 0.19668 0.0
O8 O 0.36593 0.09576 0.18857 0.0
O9 O 0.37035 0.15422 0.23727 0.0
O10 O 0.40584 0.13973 0.27211 0.0
O11 O 0.30928 0.15294 0.24896 0.0
O12 O 0.27621 0.11112 0.29091 0.0
C13 C 0.29226 0.02852 0.2458 0.0
O14 O 0.34716 0.0613 0.30976 0.0
O15 O 0.33985 0.10776 0.32377 0.0
C16 C 0.46494 0.08866 0.24716 0.0
C17 C 0.53911 0.12558 0.24938 0.0
C18 C 0.52003 0.14085 0.2652 0.0
C19 C 0.4833 0.12259 0.26402 0.0
C20 C 0.48377 0.07363 0.23058 0.0
C21 C 0.52049 0.0919 0.23158 0.0
C22 C 0.42631 0.06828 0.24813 0.0
C23 C 0.33519 0.08866 0.17341 0.0
C24 C 0.40061 0.16351 0.25448 0.0
C25 C 0.25154 0.14362 0.26019 0.0
C26 C 0.20013 0.16333 0.24685 0.0
C27 C 0.22744 0.17273 0.21854 0.0
C28 C 0.25293 0.16299 0.22513 0.0
C29 C 0.22324 0.13269 0.28727 0.0
C30 C 0.19776 0.14233 0.28064 0.0
C31 C 0.2819 0.13993 0.27279 0.0
H32 H 0.53342 0.16655 0.27945 0.0
H33 H 0.46923 0.13473 0.27696 0.0
H34 H 0.47006 0.04756 0.21725 0.0
H35 H 0.53431 0.07961 0.21841 0.0
H36 H 0.22971 0.18853 0.19195 0.0
H37 H 0.27454 0.17204 0.20377 0.0
H38 H 0.22182 0.11826 0.31488 0.0
H39 H 0.17733 0.135 0.30335 0.0
Dy40 Dy 0.72353 0.64434 0.27116 0.0
Dy41 Dy 0.80874 0.69889 0.27311 0.0
C42 C 0.76246 0.67883 0.35471 0.0
O43 O 0.7295 0.69809 0.28014 0.0
O44 O 0.78692 0.73341 0.25842 0.0
O45 O 0.67344 0.61494 0.30163 0.0
O46 O 0.67775 0.60739 0.23662 0.0
O47 O 0.79366 0.69067 0.20563 0.0
O48 O 0.73486 0.67231 0.21183 0.0
O49 O 0.79678 0.64696 0.29743 0.0
O50 O 0.75107 0.6147 0.25505 0.0
O51 O 0.85945 0.70664 0.25556 0.0
O52 O 0.85588 0.74354 0.29749 0.0
C53 C 0.75595 0.7288 0.26871 0.0
O54 O 0.74039 0.64899 0.3369 0.0
O55 O 0.78832 0.70394 0.33404 0.0
C56 C 0.63875 0.55767 0.27405 0.0
C57 C 0.60372 0.48372 0.27741 0.0
C58 C 0.63539 0.50395 0.29912 0.0
C59 C 0.6529 0.54063 0.29722 0.0
C60 C 0.60692 0.53761 0.25297 0.0
C61 C 0.58958 0.50101 0.25456 0.0
C62 C 0.65797 0.59604 0.26905 0.0
C63 C 0.76354 0.68523 0.18985 0.0
C64 C 0.77764 0.61805 0.2769 0.0
C65 C 0.91206 0.76135 0.2676 0.0
C66 C 0.98322 0.80791 0.24887 0.0
C67 C 0.95738 0.795 0.21752 0.0
C68 C 0.92204 0.77173 0.2268 0.0
C69 C 0.9375 0.77477 0.29885 0.0
C70 C 0.97263 0.79758 0.28967 0.0
C71 C 0.87635 0.73435 0.27894 0.0
H72 H 0.64711 0.4914 0.31663 0.0
H73 H 0.67776 0.55564 0.31323 0.0
H74 H 0.59573 0.55027 0.23469 0.0
H75 H 0.56506 0.4862 0.23786 0.0
H76 H 0.96444 0.80271 0.18583 0.0
H77 H 0.90273 0.76149 0.2022 0.0
H78 H 0.93033 0.76669 0.33048 0.0
H79 H 0.9916 0.80619 0.31459 0.0
Dy80 Dy 0.94016 0.29893 0.24985 0.0
Dy81 Dy 0.91675 0.21586 0.26071 0.0
C82 C 0.93879 0.26736 0.33957 0.0
O83 O 0.98934 0.29533 0.24243 0.0
O84 O 0.97254 0.24525 0.28031 0.0
O85 O 0.95893 0.35125 0.27352 0.0
O86 O 0.94622 0.34038 0.20903 0.0
O87 O 0.94174 0.23123 0.1988 0.0
O88 O 0.92855 0.27453 0.18725 0.0
O89 O 0.87303 0.22077 0.23277 0.0
O90 O 0.88309 0.27019 0.26601 0.0
O91 O 0.921 0.17003 0.24676 0.0
O92 O 0.87723 0.1654 0.28413 0.0
C93 C 0.99685 0.27375 0.26244 0.0
O94 O 0.95225 0.29477 0.31533 0.0
O95 O 0.91978 0.2351 0.32546 0.0
C96 C 0.93403 0.38134 0.24005 0.0
C97 C 0.89494 0.41638 0.24086 0.0
C98 C 0.8837 0.3854 0.26351 0.0
C99 C 0.903 0.36793 0.26296 0.0
C100 C 0.94527 0.41211 0.21735 0.0
C101 C 0.9259 0.42948 0.21769 0.0
C102 C 0.95435 0.36304 0.23868 0.0
C103 C 0.93944 0.25344 0.1739 0.0
C104 C 0.8612 0.24019 0.24861 0.0
C105 C 0.87816 0.11139 0.26955 0.0
C106 C 0.84475 0.03762 0.2678 0.0
C107 C 0.87185 0.05777 0.2401 0.0
C108 C 0.88848 0.09431 0.24107 0.0
C109 C 0.85202 0.09137 0.2983 0.0
C110 C 0.83559 0.05478 0.29759 0.0
C111 C 0.89213 0.14949 0.2665 0.0
H112 H 0.85976 0.37442 0.28126 0.0
H113 H 0.89365 0.34392 0.28032 0.0
H114 H 0.96907 0.42271 0.19934 0.0
H115 H 0.93546 0.45347 0.20028 0.0
H116 H 0.87981 0.04523 0.21721 0.0
H117 H 0.9085 0.10911 0.21849 0.0
H118 H 0.84357 0.10393 0.32058 0.0
H119 H 0.81475 0.03988 0.31925 0.0
Dy120 Dy 0.08946 0.37088 0.75974 0.0
Dy121 Dy 0.11897 0.3153 0.76004 0.0
C122 C 0.08789 0.32998 0.67797 0.0
O123 O 0.04134 0.31725 0.7539 0.0
O124 O 0.06373 0.28334 0.78007 0.0
O125 O 0.07079 0.40161 0.72768 0.0
O126 O 0.07823 0.40644 0.79363 0.0
O127 O 0.11898 0.32955 0.82662 0.0
O128 O 0.07811 0.34754 0.82203 0.0
O129 O 0.15632 0.36491 0.72889 0.0
O130 O 0.14766 0.40104 0.77005 0.0
O131 O 0.16572 0.31184 0.76848 0.0
O132 O 0.11739 0.26608 0.74766 0.0
C133 C 0.03723 0.28742 0.76858 0.0
O134 O 0.09513 0.36047 0.69362 0.0
O135 O 0.09101 0.3066 0.6999 0.0
C136 C 0.08968 0.45743 0.75784 0.0
C137 C 0.12437 0.53145 0.75541 0.0
C138 C 0.13662 0.51284 0.73191 0.0
C139 C 0.1195 0.47616 0.73322 0.0
C140 C 0.07754 0.47585 0.78144 0.0
C141 C 0.09469 0.51243 0.78033 0.0
C142 C 0.07159 0.41891 0.76064 0.0
C143 C 0.09607 0.33667 0.84375 0.0
C144 C 0.16861 0.39519 0.74717 0.0
C145 C 0.16201 0.25616 0.77774 0.0
C146 C 0.19298 0.21486 0.79622 0.0
C147 C 0.2108 0.25086 0.80528 0.0
C148 C 0.19549 0.27131 0.79617 0.0
C149 C 0.14315 0.21969 0.77147 0.0
C150 C 0.15842 0.19917 0.78088 0.0
C151 C 0.15041 0.27887 0.75764 0.0
H152 H 0.15918 0.52655 0.71211 0.0
H153 H 0.12958 0.46248 0.71505 0.0
H154 H 0.05486 0.46189 0.80105 0.0
H155 H 0.08492 0.52584 0.79947 0.0
H156 H 0.23735 0.26352 0.81746 0.0
H157 H 0.2109 0.29935 0.8011 0.0
H158 H 0.11753 0.2073 0.75682 0.0
H159 H 0.14417 0.1715 0.77332 0.0
Dy160 Dy 0.29793 0.93121 0.76755 0.0
Dy161 Dy 0.21621 0.91093 0.74987 0.0
C162 C 0.27276 0.93843 0.67885 0.0
O163 O 0.2957 0.98012 0.78175 0.0
O164 O 0.2481 0.96859 0.74075 0.0
O165 O 0.34829 0.9438 0.74245 0.0
O166 O 0.3402 0.938 0.80807 0.0
O167 O 0.2254 0.92801 0.81583 0.0
O168 O 0.27314 0.92117 0.82967 0.0
O169 O 0.21537 0.8645 0.77789 0.0
O170 O 0.26676 0.87438 0.7499 0.0
O171 O 0.16913 0.877 0.71539 0.0
O172 O 0.17082 0.91764 0.75489 0.0
C173 C 0.27524 0.9901 0.76346 0.0
O174 O 0.29762 0.95401 0.7065 0.0
O175 O 0.24165 0.91306 0.68949 0.0
C176 C 0.37836 0.92059 0.77912 0.0
C177 C 0.4124 0.88042 0.78021 0.0
C178 C 0.37631 0.8646 0.77091 0.0
C179 C 0.35943 0.88452 0.77044 0.0
C180 C 0.41424 0.93645 0.78832 0.0
C181 C 0.43113 0.91662 0.78886 0.0
C182 C 0.36129 0.94211 0.7779 0.0
C183 C 0.24853 0.92794 0.84175 0.0
C184 C 0.23586 0.85273 0.76533 0.0
C185 C 0.11472 0.86689 0.74226 0.0
C186 C 0.04197 0.82535 0.75715 0.0
C187 C 0.06413 0.85093 0.78587 0.0
C188 C 0.10016 0.87156 0.77848 0.0
C189 C 0.09282 0.84055 0.71434 0.0
C190 C 0.0569 0.81993 0.72173 0.0
C191 C 0.15159 0.89103 0.7308 0.0
H192 H 0.36103 0.83678 0.76447 0.0
H193 H 0.33164 0.87183 0.76324 0.0
H194 H 0.42931 0.9643 0.79483 0.0
H195 H 0.45903 0.9298 0.79545 0.0
H196 H 0.05344 0.85606 0.81325 0.0
H197 H 0.11632 0.8918 0.8005 0.0
H198 H 0.10333 0.83654 0.68606 0.0
H199 H 0.04069 0.80015 0.69928 0.0
Dy200 Dy 0.65136 0.71857 0.76447 0.0
Dy201 Dy 0.70444 0.80323 0.77474 0.0
C202 C 0.69189 0.76599 0.68768 0.0
O203 O 0.70486 0.72411 0.75591 0.0
O204 O 0.74092 0.78201 0.77629 0.0
O205 O 0.62135 0.67208 0.72721 0.0
O206 O 0.61692 0.66913 0.79355 0.0
O207 O 0.68452 0.78025 0.83716 0.0
O208 O 0.67959 0.72727 0.82387 0.0
O209 O 0.65289 0.79359 0.75153 0.0
O210 O 0.61868 0.7424 0.78399 0.0
O211 O 0.74544 0.84862 0.80636 0.0
O212 O 0.71359 0.85478 0.75939 0.0
C213 C 0.736 0.75094 0.76572 0.0
O214 O 0.66101 0.74233 0.7017 0.0
O215 O 0.71541 0.79049 0.71194 0.0
C216 C 0.56581 0.63312 0.75574 0.0
C217 C 0.49164 0.59587 0.75545 0.0
C218 C 0.51023 0.63007 0.73945 0.0
C219 C 0.54698 0.64858 0.73976 0.0
C220 C 0.54748 0.5991 0.77158 0.0
C221 C 0.51079 0.58065 0.77152 0.0
C222 C 0.60436 0.65288 0.75874 0.0
C223 C 0.68565 0.75244 0.84978 0.0
C224 C 0.62322 0.77192 0.7688 0.0
C225 C 0.76915 0.90484 0.77384 0.0
C226 C 0.82259 0.97537 0.76544 0.0
C227 C 0.8303 0.95016 0.78136 0.0
C228 C 0.80379 0.91523 0.78571 0.0
C229 C 0.7619 0.92954 0.75575 0.0
C230 C 0.78829 0.96439 0.75154 0.0
C231 C 0.73943 0.87048 0.78557 0.0
H232 H 0.4964 0.64249 0.72648 0.0
H233 H 0.56069 0.67506 0.72786 0.0
H234 H 0.56158 0.58697 0.78466 0.0
H235 H 0.49746 0.5547 0.78485 0.0
H236 H 0.85661 0.95763 0.79168 0.0
H237 H 0.81017 0.89681 0.79988 0.0
H238 H 0.73531 0.92232 0.74684 0.0
H239 H 0.78125 0.98306 0.73959 0.0
C240 C 0.27817 0.94646 0.91081 0.0
C241 C 0.25038 0.94104 0.88443 0.0
C242 C 0.28352 0.96413 0.9483 0.0
C243 C 0.2612 0.9769 0.96038 0.0
C244 C 0.23229 0.96976 0.93518 0.0
C245 C 0.22705 0.95227 0.8975 0.0
C246 C 0.2673 0.99745 0.99911 0.0
C247 C 0.29978 0.01868 0.01463 0.0
C248 C 0.30789 0.03924 0.05381 0.0
C249 C 0.34293 0.05701 0.06767 0.0
C250 C 0.35202 0.0746 0.10546 0.0
C251 C 0.32632 0.07513 0.13053 0.0
H252 H 0.25507 0.02843 0.06865 0.0
C253 C 0.29148 0.0589 0.11592 0.0
C254 C 0.2823 0.04108 0.07806 0.0
H255 H 0.27099 0.05882 0.13438 0.0
H256 H 0.29661 0.93807 0.90199 0.0
H257 H 0.30529 0.96788 0.9676 0.0
H258 H 0.21436 0.97881 0.94399 0.0
H259 H 0.20536 0.94862 0.87806 0.0
H260 H 0.24443 0.99565 0.01393 0.0
H261 H 0.32216 0.02104 0.99779 0.0
H262 H 0.36338 0.05647 0.04972 0.0
H263 H 0.37915 0.08684 0.11554 0.0
C264 C 0.67889 0.73285 0.62106 0.0
C265 C 0.70166 0.76217 0.6451 0.0
C266 C 0.68971 0.72653 0.58319 0.0
C267 C 0.72364 0.7494 0.56841 0.0
C268 C 0.74576 0.77958 0.59144 0.0
C269 C 0.73504 0.78579 0.62951 0.0
C270 C 0.73653 0.7428 0.52897 0.0
C271 C 0.72554 0.71027 0.514 0.0
C272 C 0.73733 0.70256 0.4743 0.0
C273 C 0.71753 0.66884 0.45715 0.0
C274 C 0.72643 0.66064 0.41911 0.0
C275 C 0.75558 0.68596 0.3973 0.0
H276 H 0.78417 0.75345 0.46563 0.0
C277 C 0.7763 0.71928 0.41517 0.0
C278 C 0.76738 0.72751 0.45321 0.0
H279 H 0.79906 0.73942 0.39935 0.0
H280 H 0.65292 0.71415 0.63192 0.0
H281 H 0.67137 0.7037 0.56565 0.0
H282 H 0.77185 0.79792 0.58052 0.0
H283 H 0.75327 0.80866 0.64712 0.0
H284 H 0.75619 0.76559 0.5127 0.0
H285 H 0.70633 0.68784 0.5313 0.0
H286 H 0.6945 0.64891 0.47279 0.0
H287 H 0.70986 0.63469 0.40636 0.0
C288 C 0.9764 0.24597 0.12053 0.0
C289 C 0.95337 0.25814 0.13155 0.0
C290 C 0.99334 0.25466 0.08237 0.0
C291 C 0.9874 0.27562 0.05438 0.0
C292 C 0.96314 0.28633 0.0648 0.0
C293 C 0.94653 0.27794 0.10296 0.0
C294 C 1.00583 0.28739 0.01424 0.0
C295 C 0.0363 0.28851 1.00472 0.0
C296 C 0.05472 0.3034 0.96515 0.0
C297 C 0.07488 0.29031 0.94689 0.0
C298 C 0.09034 0.30244 0.90825 0.0
C299 C 0.08606 0.3281 0.88745 0.0
H300 H 0.03878 0.34274 0.95934 0.0
C301 C 0.06785 0.34272 0.90707 0.0
C302 C 0.05255 0.3307 0.94543 0.0
H303 H 0.06454 0.36295 0.89222 0.0
H304 H 0.98233 0.23074 0.14194 0.0
H305 H 1.01107 0.24505 0.07523 0.0
H306 H 0.95772 0.30219 0.04378 0.0
H307 H 0.92888 0.28767 0.11039 0.0
H308 H 0.99411 0.29694 0.99192 0.0
H309 H 0.04812 0.27825 0.02588 0.0
H310 H 0.07753 0.26971 0.96178 0.0
H311 H 0.10413 0.29059 0.89391 0.0
C312 C 0.3282 0.03406 0.38906 0.0
C313 C 0.33287 0.06725 0.37919 0.0
C314 C 0.32074 0.0214 0.42917 0.0
C315 C 0.31762 0.04153 0.4607 0.0
C316 C 0.32267 0.07491 0.45111 0.0
C317 C 0.32991 0.08757 0.41063 0.0
C318 C 0.31096 0.02886 0.50397 0.0
C319 C 0.29287 0.99448 0.51361 0.0
C320 C 0.28806 0.98092 0.55638 0.0
C321 C 0.25896 0.94804 0.56529 0.0
C322 C 0.25412 0.93396 0.60488 0.0
C323 C 0.2787 0.95219 0.63628 0.0
H324 H 0.33613 0.02394 0.58173 0.0
C325 C 0.30822 0.98479 0.62714 0.0
C326 C 0.31283 0.99905 0.58769 0.0
H327 H 0.32764 0.9996 0.65062 0.0
H328 H 0.3303 0.01761 0.36572 0.0
H329 H 0.31822 0.99609 0.43543 0.0
H330 H 0.32081 0.09115 0.47494 0.0
H331 H 0.33344 0.11326 0.40407 0.0
H332 H 0.32064 0.04842 0.52834 0.0
H333 H 0.28019 0.97522 0.48923 0.0
H334 H 0.2397 0.93331 0.54161 0.0
H335 H 0.23109 0.90881 0.61085 0.0
C336 C 0.70568 0.72422 0.90169 0.0
C337 C 0.69717 0.75034 0.89216 0.0
C338 C 0.71759 0.72213 0.9409 0.0
C339 C 0.72129 0.74612 0.9718 0.0
C340 C 0.71254 0.77209 0.96248 0.0
C341 C 0.70092 0.77443 0.92293 0.0
C342 C 0.7312 0.74264 0.01469 0.0
C343 C 0.75033 0.72724 0.02448 0.0
C344 C 0.75498 0.7186 0.06752 0.0
C345 C 0.78418 0.71505 0.07826 0.0
C346 C 0.78765 0.70466 0.1181 0.0
C347 C 0.76149 0.69686 0.14755 0.0
H348 H 0.70568 0.71232 0.08999 0.0
C349 C 0.73236 0.70043 0.13655 0.0
C350 C 0.72912 0.71108 0.09723 0.0
H351 H 0.71169 0.69489 0.15837 0.0
H352 H 0.70324 0.70522 0.87878 0.0
H353 H 0.72292 0.70105 0.94708 0.0
H354 H 0.71467 0.79061 0.98589 0.0
H355 H 0.69465 0.79487 0.91658 0.0
H356 H 0.72196 0.75288 0.03907 0.0
H357 H 0.76265 0.72021 1.00025 0.0
H358 H 0.80429 0.72024 0.05576 0.0
H359 H 0.81039 0.70219 0.12557 0.0
C360 C 0.95201 0.24792 0.40669 0.0
C361 C 0.94926 0.27341 0.38349 0.0
C362 C 0.96727 0.256 0.44607 0.0
C363 C 0.97978 0.28968 0.46303 0.0
C364 C 0.97517 0.31436 0.44065 0.0
C365 C 0.96044 0.30649 0.40122 0.0
C366 C 0.99788 0.30037 0.50366 0.0
C367 C 0.01694 0.28689 0.51988 0.0
C368 C 0.03676 0.29933 0.55943 0.0
C369 C 0.04437 0.27658 0.58177 0.0
C370 C 0.062 0.28691 0.61961 0.0
C371 C 0.07278 0.32046 0.63584 0.0
H372 H 0.04484 0.35231 0.55792 0.0
C373 C 0.06648 0.34376 0.61268 0.0
C374 C 0.0488 0.3334 0.57488 0.0
H375 H 0.07465 0.36989 0.62403 0.0
H376 H 0.94372 0.22222 0.3938 0.0
H377 H 0.96938 0.23591 0.46292 0.0
H378 H 0.98413 0.34034 0.45313 0.0
H379 H 0.95854 0.32666 0.3842 0.0
H380 H 0.99663 0.32137 0.5197 0.0
H381 H 0.01805 0.26576 0.50392 0.0
H382 H 0.03592 0.25039 0.57037 0.0
H383 H 0.06644 0.26825 0.63652 0.0
C384 C 0.5957 0.12569 0.26172 0.0
C385 C 0.57817 0.14424 0.25216 0.0
C386 C 0.63233 0.14284 0.26382 0.0
C387 C 0.65249 0.17904 0.25609 0.0
C388 C 0.635 0.1978 0.24777 0.0
C389 C 0.59827 0.18061 0.24564 0.0
C390 C 0.69163 0.19788 0.25686 0.0
C391 C 0.7101 0.18182 0.24765 0.0
C392 C 0.74915 0.19913 0.24705 0.0
C393 C 0.76418 0.18129 0.22766 0.0
C394 C 0.80045 0.1951 0.22758 0.0
C395 C 0.82289 0.22722 0.2471 0.0
H396 H 0.76111 0.24594 0.28231 0.0
C397 C 0.80809 0.24551 0.26621 0.0
C398 C 0.77154 0.23158 0.2663 0.0
H399 H 0.82465 0.27022 0.28173 0.0
H400 H 0.58108 0.09788 0.26816 0.0
H401 H 0.64464 0.12763 0.27207 0.0
H402 H 0.6498 0.22575 0.24213 0.0
H403 H 0.58568 0.19573 0.23812 0.0
H404 H 0.70522 0.22588 0.26282 0.0
H405 H 0.69589 0.15447 0.23828 0.0
H406 H 0.74775 0.15625 0.21269 0.0
H407 H 0.81079 0.18019 0.21255 0.0
C408 C 0.57232 0.42572 0.24095 0.0
C409 C 0.58568 0.44475 0.2777 0.0
C410 C 0.55412 0.3891 0.24105 0.0
C411 C 0.54826 0.37046 0.27813 0.0
C412 C 0.56278 0.38951 0.31465 0.0
C413 C 0.58128 0.42625 0.31448 0.0
C414 C 0.52682 0.33138 0.27978 0.0
C415 C 0.5016 0.3125 0.25172 0.0
C416 C 0.4772 0.27391 0.25343 0.0
C417 C 0.44632 0.26017 0.22982 0.0
C418 C 0.42204 0.22446 0.23008 0.0
C419 C 0.42796 0.20114 0.25374 0.0
H420 H 0.50754 0.26005 0.29469 0.0
C421 C 0.45923 0.21453 0.27685 0.0
C422 C 0.48367 0.25065 0.27678 0.0
H423 H 0.46464 0.19721 0.29525 0.0
H424 H 0.57612 0.4392 0.21193 0.0
H425 H 0.54489 0.37564 0.21188 0.0
H426 H 0.55907 0.37595 0.3436 0.0
H427 H 0.59133 0.44017 0.34331 0.0
H428 H 0.53016 0.31839 0.30636 0.0
H429 H 0.49659 0.32625 0.22726 0.0
H430 H 0.44062 0.27724 0.21129 0.0
H431 H 0.39841 0.21522 0.21166 0.0
C432 C 0.86149 0.43998 0.27901 0.0
C433 C 0.8748 0.43531 0.24178 0.0
C434 C 0.84384 0.45907 0.2802 0.0
C435 C 0.83923 0.47407 0.24412 0.0
C436 C 0.85147 0.46835 0.20673 0.0
C437 C 0.86924 0.44938 0.20557 0.0
C438 C 0.82216 0.49602 0.2444 0.0
C439 C 0.82294 0.51491 0.27745 0.0
C440 C 0.80949 0.53996 0.27715 0.0
C441 C 0.82428 0.56817 0.30492 0.0
C442 C 0.81348 0.59309 0.3051 0.0
C443 C 0.78721 0.59019 0.27781 0.0
H444 H 0.76983 0.5145 0.22936 0.0
C445 C 0.77149 0.56135 0.25081 0.0
C446 C 0.78255 0.53645 0.25041 0.0
H447 H 0.75103 0.55828 0.22959 0.0
H448 H 0.86535 0.42949 0.30745 0.0
H449 H 0.83383 0.4619 0.30944 0.0
H450 H 0.84792 0.47922 0.1784 0.0
H451 H 0.87862 0.44569 0.17627 0.0
H452 H 0.81139 0.49899 0.2155 0.0
H453 H 0.83674 0.51446 0.30506 0.0
H454 H 0.84484 0.57138 0.3261 0.0
H455 H 0.82604 0.61485 0.3265 0.0
C456 C 0.12239 0.5876 0.75458 0.0
C457 C 0.14221 0.57047 0.75399 0.0
C458 C 0.13889 0.62416 0.75414 0.0
C459 C 0.17576 0.64466 0.75332 0.0
C460 C 0.19557 0.62759 0.75168 0.0
C461 C 0.17904 0.59094 0.75224 0.0
C462 C 0.19416 0.68372 0.75283 0.0
C463 C 0.18033 0.70218 0.76971 0.0
C464 C 0.19656 0.74115 0.7689 0.0
C465 C 0.17707 0.75575 0.7851 0.0
C466 C 0.19005 0.79185 0.78427 0.0
C467 C 0.22307 0.81455 0.76729 0.0
H468 H 0.24623 0.75421 0.73981 0.0
C469 C 0.24304 0.80024 0.75164 0.0
C470 C 0.22997 0.76393 0.75237 0.0
H471 H 0.26865 0.81702 0.73844 0.0
H472 H 0.09397 0.57273 0.75479 0.0
H473 H 0.12253 0.63614 0.75365 0.0
H474 H 0.22397 0.64267 0.75058 0.0
H475 H 0.19518 0.57869 0.752 0.0
H476 H 0.21992 0.69712 0.73893 0.0
H477 H 0.15526 0.68793 0.78522 0.0
H478 H 0.15135 0.73909 0.79815 0.0
H479 H 0.17392 0.80186 0.79675 0.0
C480 C 0.45623 0.86592 0.81107 0.0
C481 C 0.43071 0.85954 0.7808 0.0
C482 C 0.47495 0.8479 0.81052 0.0
C483 C 0.46878 0.8231 0.7795 0.0
C484 C 0.44228 0.8156 0.75025 0.0
C485 C 0.42354 0.83372 0.75074 0.0
C486 C 0.49016 0.80541 0.77654 0.0
C487 C 0.52429 0.82179 0.78769 0.0
C488 C 0.54804 0.80715 0.78181 0.0
C489 C 0.58379 0.83085 0.77601 0.0
C490 C 0.60766 0.81901 0.77134 0.0
C491 C 0.59662 0.78306 0.7732 0.0
H492 H 0.50926 0.75208 0.78867 0.0
C493 C 0.56084 0.75907 0.77952 0.0
C494 C 0.53661 0.771 0.78346 0.0
H495 H 0.55161 0.73122 0.78117 0.0
H496 H 0.46177 0.8849 0.83535 0.0
H497 H 0.49424 0.85347 0.83452 0.0
H498 H 0.4368 0.79646 0.72618 0.0
H499 H 0.40417 0.82822 0.72685 0.0
H500 H 0.47854 0.77989 0.76167 0.0
H501 H 0.53648 0.84871 0.79865 0.0
H502 H 0.59338 0.85879 0.77489 0.0
H503 H 0.63506 0.83831 0.76694 0.0
C504 C 0.22259 0.45143 0.76827 0.0
C505 C 0.20643 0.42127 0.74333 0.0
C506 C 0.25902 0.47413 0.76664 0.0
C507 C 0.27995 0.46716 0.73971 0.0
C508 C 0.2634 0.43745 0.71417 0.0
C509 C 0.22724 0.41484 0.71595 0.0
C510 C 0.31902 0.4887 0.73792 0.0
C511 C 0.33898 0.51882 0.7588 0.0
C512 C 0.3781 0.53816 0.75708 0.0
C513 C 0.39655 0.57431 0.76534 0.0
C514 C 0.4333 0.59313 0.76451 0.0
C515 C 0.4525 0.57613 0.75569 0.0
H516 H 0.38436 0.49307 0.74365 0.0
C517 C 0.43399 0.53987 0.74779 0.0
C518 C 0.39734 0.52108 0.74875 0.0
H519 H 0.44782 0.5259 0.74067 0.0
H520 H 0.20726 0.45702 0.78982 0.0
H521 H 0.2704 0.49645 0.78718 0.0
H522 H 0.2786 0.43126 0.6931 0.0
H523 H 0.21573 0.39191 0.69618 0.0
H524 H 0.33196 0.47901 0.71776 0.0
H525 H 0.32674 0.53047 0.7769 0.0
H526 H 0.3825 0.58809 0.77239 0.0
H527 H 0.44665 0.6209 0.77148 0.0
C528 C 0.18898 0.21326 0.23394 0.0
C529 C 0.17594 0.17771 0.24346 0.0
C530 C 0.16714 0.22795 0.23577 0.0
C531 C 0.13171 0.20727 0.24701 0.0
C532 C 0.1185 0.17151 0.25508 0.0
C533 C 0.14028 0.15686 0.25323 0.0
C534 C 0.10822 0.22207 0.2538 0.0
C535 C 0.11396 0.25336 0.23986 0.0
C536 C 0.08863 0.26554 0.24864 0.0
C537 C 0.07957 0.28207 0.21784 0.0
C538 C 0.05133 0.28802 0.22354 0.0
C539 C 0.03209 0.27764 0.26025 0.0
H540 H 0.07893 0.24716 0.31173 0.0
C541 C 0.04345 0.26437 0.29242 0.0
C542 C 0.07158 0.25859 0.28679 0.0
H543 H 0.02929 0.25658 0.32121 0.0
H544 H 0.21649 0.23018 0.22697 0.0
H545 H 0.17858 0.25572 0.23008 0.0
H546 H 0.09131 0.15491 0.26375 0.0
H547 H 0.12934 0.12933 0.26029 0.0
H548 H 0.08425 0.20569 0.27074 0.0
H549 H 0.13572 0.26894 0.21949 0.0
H550 H 0.09272 0.28814 0.1884 0.0
H551 H 0.04288 0.29808 0.19817 0.0
C552 C 0.04327 0.85746 0.26759 0.0
C553 C 0.02121 0.83114 0.23954 0.0
C554 C 0.07931 0.87761 0.26065 0.0
C555 C 0.09424 0.87229 0.22518 0.0
C556 C 0.07222 0.84702 0.19633 0.0
C557 C 0.03614 0.82637 0.20359 0.0
C558 C 0.1323 0.89453 0.21664 0.0
C559 C 0.15678 0.90652 0.24681 0.0
C560 C 0.19405 0.93395 0.24064 0.0
C561 C 0.21937 0.93806 0.27021 0.0
C562 C 0.25311 0.96751 0.26967 0.0
C563 C 0.26177 0.99345 0.23983 0.0
H564 H 0.18497 0.95739 0.18641 0.0
C565 C 0.23724 0.98856 0.20904 0.0
C566 C 0.20378 0.959 0.20919 0.0
H567 H 0.24327 0.0087 0.18626 0.0
H568 H 0.03272 0.86274 0.29498 0.0
H569 H 0.09533 0.89786 0.28273 0.0
H570 H 0.08304 0.84281 0.16844 0.0
H571 H 0.02015 0.8062 0.18144 0.0
H572 H 0.1401 0.90116 0.1848 0.0
H573 H 0.14893 0.89686 0.27793 0.0
H574 H 0.21249 0.91936 0.295 0.0
H575 H 0.27143 0.97127 0.29428 0.0
C576 C 0.81775 0.97763 0.29918 0.0
C577 C 0.82514 0.99888 0.26425 0.0
C578 C 0.80034 0.94109 0.29525 0.0
C579 C 0.78957 0.9251 0.25623 0.0
C580 C 0.79629 0.94651 0.22158 0.0
C581 C 0.81387 0.98292 0.22549 0.0
C582 C 0.77461 0.88681 0.2494 0.0
C583 C 0.7634 0.86256 0.27943 0.0
C584 C 0.75641 0.82619 0.27231 0.0
C585 C 0.73609 0.79969 0.30066 0.0
C586 C 0.73356 0.76668 0.29801 0.0
C587 C 0.75188 0.76003 0.26735 0.0
H588 H 0.78985 0.83821 0.21849 0.0
C589 C 0.77075 0.78586 0.23793 0.0
C590 C 0.7731 0.81853 0.24036 0.0
H591 H 0.78509 0.78131 0.21393 0.0
H592 H 0.82639 0.9893 0.32939 0.0
H593 H 0.79658 0.92585 0.32273 0.0
H594 H 0.78853 0.93506 0.19112 0.0
H595 H 0.81872 0.99863 0.19808 0.0
H596 H 0.77406 0.87852 0.2178 0.0
H597 H 0.76058 0.86957 0.3106 0.0
H598 H 0.72324 0.80495 0.32578 0.0
H599 H 0.71916 0.74724 0.32132 0.0
C600 C 0.19636 0.16097 0.81401 0.0
C601 C 0.21194 0.19485 0.79739 0.0
C602 C 0.21316 0.14108 0.811 0.0
C603 C 0.24562 0.15465 0.7908 0.0
C604 C 0.26132 0.18867 0.7748 0.0
C605 C 0.24487 0.2087 0.7784 0.0
C606 C 0.26165 0.13265 0.78184 0.0
C607 C 0.25852 0.10686 0.80673 0.0
C608 C 0.26937 0.08124 0.79404 0.0
C609 C 0.27918 0.06477 0.8241 0.0
C610 C 0.28445 0.03689 0.81345 0.0
C611 C 0.27906 0.02455 0.77272 0.0
H612 H 0.25777 0.08159 0.72898 0.0
C613 C 0.2707 0.04189 0.74238 0.0
C614 C 0.26612 0.07012 0.75283 0.0
H615 H 0.26598 0.03249 0.71087 0.0
H616 H 0.17091 0.14962 0.82857 0.0
H617 H 0.1999 0.11458 0.82275 0.0
H618 H 0.28606 0.1995 0.75864 0.0
H619 H 0.25721 0.23451 0.76464 0.0
H620 H 0.2763 0.13778 0.75341 0.0
H621 H 0.24691 0.10383 0.83695 0.0
H622 H 0.28149 0.07263 0.85608 0.0
H623 H 0.29015 0.02339 0.83753 0.0
C624 C 0.98084 0.801 0.72904 0.0
C625 C 1.00323 0.80611 0.76266 0.0
C626 C 0.9446 0.78553 0.73446 0.0
C627 C 0.92981 0.7746 0.77372 0.0
C628 C 0.9521 0.77894 0.8071 0.0
C629 C 0.98838 0.79442 0.80166 0.0
C630 C 0.89221 0.76265 0.78189 0.0
C631 C 0.86698 0.75115 0.75257 0.0
C632 C 0.83182 0.74737 0.75975 0.0
C633 C 0.80344 0.72573 0.73372 0.0
C634 C 0.77133 0.72524 0.73676 0.0
C635 C 0.76747 0.74701 0.76533 0.0
H636 H 0.84851 0.78589 0.80922 0.0
C637 C 0.79545 0.7678 0.79208 0.0
C638 C 0.8272 0.76804 0.78936 0.0
H639 H 0.79317 0.78477 0.81455 0.0
H640 H 0.99145 0.81035 0.69872 0.0
H641 H 0.92869 0.78381 0.7081 0.0
H642 H 0.94151 0.77106 0.83774 0.0
H643 H 1.00484 0.79766 0.82813 0.0
H644 H 0.88544 0.76476 0.81344 0.0
H645 H 0.87243 0.74556 0.72181 0.0
H646 H 0.80642 0.70987 0.71031 0.0
H647 H 0.75022 0.70918 0.71556 0.0
C648 C 0.99391 0.23348 0.80386 0.0
C649 C 1.00226 0.25611 0.77023 0.0
C650 C 0.96507 0.19973 0.80202 0.0
C651 C 0.94454 0.18761 0.76595 0.0
C652 C 0.9511 0.21133 0.7337 0.0
C653 C 0.97985 0.24546 0.7358 0.0
C654 C 0.91764 0.15007 0.76048 0.0
C655 C 0.92102 0.12427 0.7785 0.0
C656 C 0.89574 0.0863 0.77351 0.0
C657 C 0.89453 0.06345 0.80437 0.0
C658 C 0.87138 0.02748 0.80127 0.0
C659 C 0.84913 0.01335 0.76684 0.0
H660 H 0.87505 0.08888 0.71353 0.0
C661 C 0.85097 0.03613 0.73534 0.0
C662 C 0.87402 0.07226 0.73861 0.0
H663 H 0.83462 0.02604 0.70808 0.0
H664 H 1.01066 0.24141 0.83096 0.0
H665 H 0.95974 0.18287 0.82841 0.0
H666 H 0.93529 0.20284 0.70588 0.0
H667 H 0.98601 0.2625 0.70939 0.0
H668 H 0.89578 0.14371 0.73978 0.0
H669 H 0.94342 0.13102 0.79848 0.0
H670 H 0.91115 0.07355 0.83146 0.0
H671 H 0.87028 0.01091 0.82649 0.0
loop_
_geom_bond_atom_site_label_1
_geom_bond_atom_site_label_2
_geom_bond_distance
_geom_bond_site_symmetry_2
_ccdc_geom_bond_type
Dy0 O3 2.307 . S
Dy0 O5 2.395 . S
Dy0 O6 2.379 . S
Dy0 O8 2.339 . S
Dy0 O10 2.298 . S
Dy0 O14 2.275 . S
Dy0 C22 2.738 . S
Dy1 O4 2.298 . S
Dy1 O7 2.275 . S
Dy1 O9 2.307 . S
Dy1 O11 2.395 . S
Dy1 O12 2.379 . S
Dy1 O15 2.339 . S
Dy1 C31 2.738 . S
C2 O14 1.254 . S
C2 O15 1.257 . S
O3 Dy0 2.307 . S
O3 C13 1.266 . S
O4 Dy1 2.298 . S
O4 C13 1.236 . S
O5 Dy0 2.395 . S
O5 C22 1.255 . S
O6 Dy0 2.379 . S
O6 C22 1.249 . S
O7 Dy1 2.275 . S
O7 C23 1.254 . S
O8 Dy0 2.339 . S
O8 C23 1.257 . S
O9 Dy1 2.307 . S
O9 C24 1.266 . S
O10 Dy0 2.298 . S
O10 C24 1.236 . S
O11 Dy1 2.395 . S
O11 C31 1.255 . S
O12 Dy1 2.379 . S
O12 C31 1.249 . S
C13 O3 1.266 . S
C13 O4 1.236 . S
O14 Dy0 2.275 . S
O14 C2 1.254 . S
O15 Dy1 2.339 . S
O15 C2 1.257 . S
C16 C19 1.344 . S
C16 C20 1.328 . S
C16 C22 1.516 . S
C17 C18 1.304 . S
C17 C21 1.323 . S
C18 C17 1.304 . S
C18 C19 1.371 . S
C18 H32 0.930 . S
C19 C16 1.344 . S
C19 C18 1.371 . S
C19 H33 0.931 . S
C20 C16 1.328 . S
C20 C21 1.433 . S
C20 H34 0.931 . S
C21 C17 1.323 . S
C21 C20 1.433 . S
C21 H35 0.933 . S
C22 Dy0 2.738 . S
C22 O5 1.255 . S
C22 O6 1.249 . S
C22 C16 1.516 . S
C23 O7 1.254 . S
C23 O8 1.257 . S
C24 O9 1.266 . S
C24 O10 1.236 . S
C25 C28 1.344 . S
C25 C29 1.328 . S
C25 C31 1.516 . S
C26 C27 1.304 . S
C26 C30 1.323 . S
C27 C26 1.304 . S
C27 C28 1.371 . S
C27 H36 0.930 . S
C28 C25 1.344 . S
C28 C27 1.371 . S
C28 H37 0.931 . S
C29 C25 1.328 . S
C29 C30 1.433 . S
C29 H38 0.931 . S
C30 C26 1.323 . S
C30 C29 1.433 . S
C30 H39 0.933 . S
C31 Dy1 2.738 . S
C31 O11 1.255 . S
C31 O12 1.249 . S
C31 C25 1.516 . S
H32 C18 0.930 . S
H33 C19 0.931 . S
H34 C20 0.931 . S
H35 C21 0.933 . S
H36 C27 0.930 . S
H37 C28 0.931 . S
H38 C29 0.931 . S
H39 C30 0.933 . S
Dy40 O43 2.307 . S
Dy40 O45 2.395 . S
Dy40 O46 2.379 . S
Dy40 O48 2.339 . S
Dy40 O50 2.298 . S
Dy40 O54 2.275 . S
Dy40 C62 2.738 . S
Dy41 O44 2.298 . S
Dy41 O47 2.275 . S
Dy41 O49 2.307 . S
Dy41 O51 2.395 . S
Dy41 O52 2.379 . S
Dy41 O55 2.339 . S
Dy41 C71 2.738 . S
C42 O54 1.254 . S
C42 O55 1.257 . S
O43 Dy40 2.307 . S
O43 C53 1.266 . S
O44 Dy41 2.298 . S
O44 C53 1.236 . S
O45 Dy40 2.395 . S
O45 C62 1.255 . S
O46 Dy40 2.379 . S
O46 C62 1.249 . S
O47 Dy41 2.275 . S
O47 C63 1.254 . S
O48 Dy40 2.339 . S
O48 C63 1.257 . S
O49 Dy41 2.307 . S
O49 C64 1.266 . S
O50 Dy40 2.298 . S
O50 C64 1.236 . S
O51 Dy41 2.395 . S
O51 C71 1.255 . S
O52 Dy41 2.379 . S
O52 C71 1.249 . S
C53 O43 1.266 . S
C53 O44 1.236 . S
O54 Dy40 2.275 . S
O54 C42 1.254 . S
O55 Dy41 2.339 . S
O55 C42 1.257 . S
C56 C59 1.344 . S
C56 C60 1.328 . S
C56 C62 1.516 . S
C57 C58 1.304 . S
C57 C61 1.323 . S
C58 C57 1.304 . S
C58 C59 1.371 . S
C58 H72 0.930 . S
C59 C56 1.344 . S
C59 C58 1.371 . S
C59 H73 0.931 . S
C60 C56 1.328 . S
C60 C61 1.433 . S
C60 H74 0.931 . S
C61 C57 1.323 . S
C61 C60 1.433 . S
C61 H75 0.933 . S
C62 Dy40 2.738 . S
C62 O45 1.255 . S
C62 O46 1.249 . S
C62 C56 1.516 . S
C63 O47 1.254 . S
C63 O48 1.257 . S
C64 O49 1.266 . S
C64 O50 1.236 . S
C65 C68 1.344 . S
C65 C69 1.328 . S
C65 C71 1.516 . S
C66 C67 1.304 . S
C66 C70 1.323 . S
C67 C66 1.304 . S
C67 C68 1.371 . S
C67 H76 0.930 . S
C68 C65 1.344 . S
C68 C67 1.371 . S
C68 H77 0.931 . S
C69 C65 1.328 . S
C69 C70 1.433 . S
C69 H78 0.931 . S
C70 C66 1.323 . S
C70 C69 1.433 . S
C70 H79 0.933 . S
C71 Dy41 2.738 . S
C71 O51 1.255 . S
C71 O52 1.249 . S
C71 C65 1.516 . S
H72 C58 0.930 . S
H73 C59 0.931 . S
H74 C60 0.931 . S
H75 C61 0.933 . S
H76 C67 0.930 . S
H77 C68 0.931 . S
H78 C69 0.931 . S
H79 C70 0.933 . S
Dy80 O83 2.307 . S
Dy80 O85 2.395 . S
Dy80 O86 2.379 . S
Dy80 O88 2.339 . S
Dy80 O90 2.298 . S
Dy80 O94 2.275 . S
Dy80 C102 2.738 . S
Dy81 O84 2.298 . S
Dy81 O87 2.275 . S
Dy81 O89 2.307 . S
Dy81 O91 2.395 . S
Dy81 O92 2.379 . S
Dy81 O95 2.339 . S
Dy81 C111 2.738 . S
C82 O94 1.254 . S
C82 O95 1.257 . S
O83 Dy80 2.307 . S
O83 C93 1.266 . S
O84 Dy81 2.298 . S
O84 C93 1.236 . S
O85 Dy80 2.395 . S
O85 C102 1.255 . S
O86 Dy80 2.379 . S
O86 C102 1.249 . S
O87 Dy81 2.275 . S
O87 C103 1.254 . S
O88 Dy80 2.339 . S
O88 C103 1.257 . S
O89 Dy81 2.307 . S
O89 C104 1.266 . S
O90 Dy80 2.298 . S
O90 C104 1.236 . S
O91 Dy81 2.395 . S
O91 C111 1.255 . S
O92 Dy81 2.379 . S
O92 C111 1.249 . S
C93 O83 1.266 . S
C93 O84 1.236 . S
O94 Dy80 2.275 . S
O94 C82 1.254 . S
O95 Dy81 2.339 . S
O95 C82 1.257 . S
C96 C99 1.344 . S
C96 C100 1.328 . S
C96 C102 1.516 . S
C97 C98 1.304 . S
C97 C101 1.323 . S
C98 C97 1.304 . S
C98 C99 1.371 . S
C98 H112 0.930 . S
C99 C96 1.344 . S
C99 C98 1.371 . S
C99 H113 0.931 . S
C100 C96 1.328 . S
C100 C101 1.433 . S
C100 H114 0.931 . S
C101 C97 1.323 . S
C101 C100 1.433 . S
C101 H115 0.933 . S
C102 Dy80 2.738 . S
C102 O85 1.255 . S
C102 O86 1.249 . S
C102 C96 1.516 . S
C103 O87 1.254 . S
C103 O88 1.257 . S
C104 O89 1.266 . S
C104 O90 1.236 . S
C105 C108 1.344 . S
C105 C109 1.328 . S
C105 C111 1.516 . S
C106 C107 1.304 . S
C106 C110 1.323 . S
C107 C106 1.304 . S
C107 C108 1.371 . S
C107 H116 0.930 . S
C108 C105 1.344 . S
C108 C107 1.371 . S
C108 H117 0.931 . S
C109 C105 1.328 . S
C109 C110 1.433 . S
C109 H118 0.931 . S
C110 C106 1.323 . S
C110 C109 1.433 . S
C110 H119 0.933 . S
C111 Dy81 2.738 . S
C111 O91 1.255 . S
C111 O92 1.249 . S
C111 C105 1.516 . S
H112 C98 0.930 . S
H113 C99 0.931 . S
H114 C100 0.931 . S
H115 C101 0.933 . S
H116 C107 0.930 . S
H117 C108 0.931 . S
H118 C109 0.931 . S
H119 C110 0.933 . S
Dy120 O123 2.307 . S
Dy120 O125 2.395 . S
Dy120 O126 2.379 . S
Dy120 O128 2.339 . S
Dy120 O130 2.298 . S
Dy120 O134 2.275 . S
Dy120 C142 2.738 . S
Dy121 O124 2.298 . S
Dy121 O127 2.275 . S
Dy121 O129 2.307 . S
Dy121 O131 2.395 . S
Dy121 O132 2.379 . S
Dy121 O135 2.339 . S
Dy121 C151 2.738 . S
C122 O134 1.254 . S
C122 O135 1.257 . S
O123 Dy120 2.307 . S
O123 C133 1.266 . S
O124 Dy121 2.298 . S
O124 C133 1.236 . S
O125 Dy120 2.395 . S
O125 C142 1.255 . S
O126 Dy120 2.379 . S
O126 C142 1.249 . S
O127 Dy121 2.275 . S
O127 C143 1.254 . S
O128 Dy120 2.339 . S
O128 C143 1.257 . S
O129 Dy121 2.307 . S
O129 C144 1.266 . S
O130 Dy120 2.298 . S
O130 C144 1.236 . S
O131 Dy121 2.395 . S
O131 C151 1.255 . S
O132 Dy121 2.379 . S
O132 C151 1.249 . S
C133 O123 1.266 . S
C133 O124 1.236 . S
O134 Dy120 2.275 . S
O134 C122 1.254 . S
O135 Dy121 2.339 . S
O135 C122 1.257 . S
C136 C139 1.344 . S
C136 C140 1.328 . S
C136 C142 1.516 . S
C137 C138 1.304 . S
C137 C141 1.323 . S
C138 C137 1.304 . S
C138 C139 1.371 . S
C138 H152 0.930 . S
C139 C136 1.344 . S
C139 C138 1.371 . S
C139 H153 0.931 . S
C140 C136 1.328 . S
C140 C141 1.433 . S
C140 H154 0.931 . S
C141 C137 1.323 . S
C141 C140 1.433 . S
C141 H155 0.933 . S
C142 Dy120 2.738 . S
C142 O125 1.255 . S
C142 O126 1.249 . S
C142 C136 1.516 . S
C143 O127 1.254 . S
C143 O128 1.257 . S
C144 O129 1.266 . S
C144 O130 1.236 . S
C145 C148 1.344 . S
C145 C149 1.328 . S
C145 C151 1.516 . S
C146 C147 1.304 . S
C146 C150 1.323 . S
C147 C146 1.304 . S
C147 C148 1.371 . S
C147 H156 0.930 . S
C148 C145 1.344 . S
C148 C147 1.371 . S
C148 H157 0.931 . S
C149 C145 1.328 . S
C149 C150 1.433 . S
C149 H158 0.931 . S
C150 C146 1.323 . S
C150 C149 1.433 . S
C150 H159 0.933 . S
C151 Dy121 2.738 . S
C151 O131 1.255 . S
C151 O132 1.249 . S
C151 C145 1.516 . S
H152 C138 0.930 . S
H153 C139 0.931 . S
H154 C140 0.931 . S
H155 C141 0.933 . S
H156 C147 0.930 . S
H157 C148 0.931 . S
H158 C149 0.931 . S
H159 C150 0.933 . S
Dy160 O163 2.307 . S
Dy160 O165 2.395 . S
Dy160 O166 2.379 . S
Dy160 O168 2.339 . S
Dy160 O170 2.298 . S
Dy160 O174 2.275 . S
Dy160 C182 2.738 . S
Dy161 O164 2.298 . S
Dy161 O167 2.275 . S
Dy161 O169 2.307 . S
Dy161 O171 2.395 . S
Dy161 O172 2.379 . S
Dy161 O175 2.339 . S
Dy161 C191 2.738 . S
C162 O174 1.254 . S
C162 O175 1.257 . S
O163 Dy160 2.307 . S
O163 C173 1.266 . S
O164 Dy161 2.298 . S
O164 C173 1.236 . S
O165 Dy160 2.395 . S
O165 C182 1.255 . S
O166 Dy160 2.379 . S
O166 C182 1.249 . S
O167 Dy161 2.275 . S
O167 C183 1.254 . S
O168 Dy160 2.339 . S
O168 C183 1.257 . S
O169 Dy161 2.307 . S
O169 C184 1.266 . S
O170 Dy160 2.298 . S
O170 C184 1.236 . S
O171 Dy161 2.395 . S
O171 C191 1.255 . S
O172 Dy161 2.379 . S
O172 C191 1.249 . S
C173 O163 1.266 . S
C173 O164 1.236 . S
O174 Dy160 2.275 . S
O174 C162 1.254 . S
O175 Dy161 2.339 . S
O175 C162 1.257 . S
C176 C179 1.344 . S
C176 C180 1.328 . S
C176 C182 1.516 . S
C177 C178 1.304 . S
C177 C181 1.323 . S
C178 C177 1.304 . S
C178 C179 1.371 . S
C178 H192 0.930 . S
C179 C176 1.344 . S
C179 C178 1.371 . S
C179 H193 0.931 . S
C180 C176 1.328 . S
C180 C181 1.433 . S
C180 H194 0.931 . S
C181 C177 1.323 . S
C181 C180 1.433 . S
C181 H195 0.933 . S
C182 Dy160 2.738 . S
C182 O165 1.255 . S
C182 O166 1.249 . S
C182 C176 1.516 . S
C183 O167 1.254 . S
C183 O168 1.257 . S
C184 O169 1.266 . S
C184 O170 1.236 . S
C185 C188 1.344 . S
C185 C189 1.328 . S
C185 C191 1.516 . S
C186 C187 1.304 . S
C186 C190 1.323 . S
C187 C186 1.304 . S
C187 C188 1.371 . S
C187 H196 0.930 . S
C188 C185 1.344 . S
C188 C187 1.371 . S
C188 H197 0.931 . S
C189 C185 1.328 . S
C189 C190 1.433 . S
C189 H198 0.931 . S
C190 C186 1.323 . S
C190 C189 1.433 . S
C190 H199 0.933 . S
C191 Dy161 2.738 . S
C191 O171 1.255 . S
C191 O172 1.249 . S
C191 C185 1.516 . S
H192 C178 0.930 . S
H193 C179 0.931 . S
H194 C180 0.931 . S
H195 C181 0.933 . S
H196 C187 0.930 . S
H197 C188 0.931 . S
H198 C189 0.931 . S
H199 C190 0.933 . S
Dy200 O203 2.307 . S
Dy200 O205 2.395 . S
Dy200 O206 2.379 . S
Dy200 O208 2.339 . S
Dy200 O210 2.298 . S
Dy200 O214 2.275 . S
Dy200 C222 2.738 . S
Dy201 O204 2.298 . S
Dy201 O207 2.275 . S
Dy201 O209 2.307 . S
Dy201 O211 2.395 . S
Dy201 O212 2.379 . S
Dy201 O215 2.339 . S
Dy201 C231 2.738 . S
C202 O214 1.254 . S
C202 O215 1.257 . S
O203 Dy200 2.307 . S
O203 C213 1.266 . S
O204 Dy201 2.298 . S
O204 C213 1.236 . S
O205 Dy200 2.395 . S
O205 C222 1.255 . S
O206 Dy200 2.379 . S
O206 C222 1.249 . S
O207 Dy201 2.275 . S
O207 C223 1.254 . S
O208 Dy200 2.339 . S
O208 C223 1.257 . S
O209 Dy201 2.307 . S
O209 C224 1.266 . S
O210 Dy200 2.298 . S
O210 C224 1.236 . S
O211 Dy201 2.395 . S
O211 C231 1.255 . S
O212 Dy201 2.379 . S
O212 C231 1.249 . S
C213 O203 1.266 . S
C213 O204 1.236 . S
O214 Dy200 2.275 . S
O214 C202 1.254 . S
O215 Dy201 2.339 . S
O215 C202 1.257 . S
C216 C219 1.344 . S
C216 C220 1.328 . S
C216 C222 1.516 . S
C217 C218 1.304 . S
C217 C221 1.323 . S
C218 C217 1.304 . S
C218 C219 1.371 . S
C218 H232 0.930 . S
C219 C216 1.344 . S
C219 C218 1.371 . S
C219 H233 0.931 . S
C220 C216 1.328 . S
C220 C221 1.433 . S
C220 H234 0.931 . S
C221 C217 1.323 . S
C221 C220 1.433 . S
C221 H235 0.933 . S
C222 Dy200 2.738 . S
C222 O205 1.255 . S
C222 O206 1.249 . S
C222 C216 1.516 . S
C223 O207 1.254 . S
C223 O208 1.257 . S
C224 O209 1.266 . S
C224 O210 1.236 . S
C225 C228 1.344 . S
C225 C229 1.328 . S
C225 C231 1.516 . S
C226 C227 1.304 . S
C226 C230 1.323 . S
C227 C226 1.304 . S
C227 C228 1.371 . S
C227 H236 0.930 . S
C228 C225 1.344 . S
C228 C227 1.371 . S
C228 H237 0.931 . S
C229 C225 1.328 . S
C229 C230 1.433 . S
C229 H238 0.931 . S
C230 C226 1.323 . S
C230 C229 1.433 . S
C230 H239 0.933 . S
C231 Dy201 2.738 . S
C231 O211 1.255 . S
C231 O212 1.249 . S
C231 C225 1.516 . S
H232 C218 0.930 . S
H233 C219 0.931 . S
H234 C220 0.931 . S
H235 C221 0.933 . S
H236 C227 0.930 . S
H237 C228 0.931 . S
H238 C229 0.931 . S
H239 C230 0.933 . S
C240 C241 1.386 . S
C240 C242 1.383 . S
C240 H256 0.951 . S
C241 C240 1.386 . S
C241 C245 1.383 . S
C242 C240 1.383 . S
C242 C243 1.402 . S
C242 H257 0.951 . S
C243 C242 1.402 . S
C243 C244 1.375 . S
C243 C246 1.481 1_565 S
C244 C243 1.375 . S
C244 C245 1.367 . S
C244 H258 0.951 . S
C245 C241 1.383 . S
C245 C244 1.367 . S
C245 H259 0.950 . S
C246 C243 1.481 1_545 S
C246 C247 1.297 1_556 S
C246 H260 0.950 . S
C247 C246 1.297 1_554 S
C247 C248 1.479 . S
C247 H261 0.950 . S
C248 C247 1.479 . S
C248 C249 1.375 . S
C248 C254 1.404 . S
C249 C248 1.375 . S
C249 C250 1.369 . S
C249 H262 0.950 . S
C250 C249 1.369 . S
C250 C251 1.392 . S
C250 H263 0.951 . S
C251 C250 1.392 . S
C251 C253 1.384 . S
H252 C254 0.949 . S
C253 C251 1.384 . S
C253 C254 1.385 . S
C253 H255 0.950 . S
C254 C248 1.404 . S
C254 H252 0.949 . S
C254 C253 1.385 . S
H255 C253 0.950 . S
H256 C240 0.951 . S
H257 C242 0.951 . S
H258 C244 0.951 . S
H259 C245 0.950 . S
H260 C246 0.950 . S
H261 C247 0.950 . S
H262 C249 0.950 . S
H263 C250 0.951 . S
C264 C265 1.386 . S
C264 C266 1.383 . S
C264 H280 0.951 . S
C265 C264 1.386 . S
C265 C269 1.383 . S
C266 C264 1.383 . S
C266 C267 1.402 . S
C266 H281 0.951 . S
C267 C266 1.402 . S
C267 C268 1.375 . S
C267 C270 1.481 . S
C268 C267 1.375 . S
C268 C269 1.367 . S
C268 H282 0.951 . S
C269 C265 1.383 . S
C269 C268 1.367 . S
C269 H283 0.950 . S
C270 C267 1.481 . S
C270 C271 1.297 . S
C270 H284 0.950 . S
C271 C270 1.297 . S
C271 C272 1.479 . S
C271 H285 0.950 . S
C272 C271 1.479 . S
C272 C273 1.375 . S
C272 C278 1.404 . S
C273 C272 1.375 . S
C273 C274 1.369 . S
C273 H286 0.950 . S
C274 C273 1.369 . S
C274 C275 1.392 . S
C274 H287 0.951 . S
C275 C274 1.392 . S
C275 C277 1.384 . S
H276 C278 0.949 . S
C277 C275 1.384 . S
C277 C278 1.385 . S
C277 H279 0.950 . S
C278 C272 1.404 . S
C278 H276 0.949 . S
C278 C277 1.385 . S
H279 C277 0.950 . S
H280 C264 0.951 . S
H281 C266 0.951 . S
H282 C268 0.951 . S
H283 C269 0.950 . S
H284 C270 0.950 . S
H285 C271 0.950 . S
H286 C273 0.950 . S
H287 C274 0.951 . S
C288 C289 1.386 . S
C288 C290 1.383 . S
C288 H304 0.951 . S
C289 C288 1.386 . S
C289 C293 1.383 . S
C290 C288 1.383 . S
C290 C291 1.402 . S
C290 H305 0.951 . S
C291 C290 1.402 . S
C291 C292 1.375 . S
C291 C294 1.481 1_554 S
C292 C291 1.375 . S
C292 C293 1.367 . S
C292 H306 0.951 . S
C293 C289 1.383 . S
C293 C292 1.367 . S
C293 H307 0.950 . S
C294 C291 1.481 1_556 S
C294 C295 1.297 1_655 S
C294 H308 0.950 . S
C295 C294 1.297 1_455 S
C295 C296 1.479 . S
C295 H309 0.941 1_556 S
C296 C295 1.479 . S
C296 C297 1.375 . S
C296 C302 1.404 . S
C297 C296 1.375 . S
C297 C298 1.369 . S
C297 H310 0.950 . S
C298 C297 1.369 . S
C298 C299 1.392 . S
C298 H311 0.951 . S
C299 C298 1.392 . S
C299 C301 1.384 . S
H300 C302 0.949 1_655 S
C301 C299 1.384 . S
C301 C302 1.385 . S
C301 H303 0.950 . S
C302 C296 1.404 . S
C302 H300 0.949 1_455 S
C302 C301 1.385 . S
H303 C301 0.950 . S
H304 C288 0.951 . S
H305 C290 0.951 . S
H306 C292 0.951 . S
H307 C293 0.950 . S
H308 C294 0.950 . S
H309 C295 0.941 1_554 S
H310 C297 0.950 . S
H311 C298 0.951 . S
C312 C313 1.386 . S
C312 C314 1.383 . S
C312 H328 0.951 . S
C313 C312 1.386 . S
C313 C317 1.383 . S
C314 C312 1.383 . S
C314 C315 1.402 . S
C314 H329 0.951 1_545 S
C315 C314 1.402 . S
C315 C316 1.375 . S
C315 C318 1.481 . S
C316 C315 1.375 . S
C316 C317 1.367 . S
C316 H330 0.951 . S
C317 C313 1.383 . S
C317 C316 1.367 . S
C317 H331 0.950 . S
C318 C315 1.481 . S
C318 C319 1.297 1_545 S
C318 H332 0.950 . S
C319 C318 1.297 1_565 S
C319 C320 1.479 . S
C319 H333 0.950 . S
C320 C319 1.479 . S
C320 C321 1.375 . S
C320 C326 1.404 . S
C321 C320 1.375 . S
C321 C322 1.369 . S
C321 H334 0.950 . S
C322 C321 1.369 . S
C322 C323 1.392 . S
C322 H335 0.951 . S
C323 C322 1.392 . S
C323 C325 1.384 . S
H324 C326 0.949 1_545 S
C325 C323 1.384 . S
C325 C326 1.385 . S
C325 H327 0.950 . S
C326 C320 1.404 . S
C326 H324 0.949 1_565 S
C326 C325 1.385 . S
H327 C325 0.950 . S
H328 C312 0.951 . S
H329 C314 0.951 1_565 S
H330 C316 0.951 . S
H331 C317 0.950 . S
H332 C318 0.950 . S
H333 C319 0.950 . S
H334 C321 0.950 . S
H335 C322 0.951 . S
C336 C337 1.386 . S
C336 C338 1.383 . S
C336 H352 0.951 . S
C337 C336 1.386 . S
C337 C341 1.383 . S
C338 C336 1.383 . S
C338 C339 1.402 . S
C338 H353 0.951 . S
C339 C338 1.402 . S
C339 C340 1.375 . S
C339 C342 1.483 1_556 S
C340 C339 1.375 . S
C340 C341 1.367 . S
C340 H354 0.951 . S
C341 C337 1.383 . S
C341 C340 1.367 . S
C341 H355 0.950 . S
C342 C339 1.483 1_554 S
C342 C343 1.297 . S
C342 H356 0.948 . S
C343 C342 1.297 . S
C343 C344 1.479 . S
C343 H357 0.950 1_554 S
C344 C343 1.479 . S
C344 C345 1.375 . S
C344 C350 1.404 . S
C345 C344 1.375 . S
C345 C346 1.369 . S
C345 H358 0.950 . S
C346 C345 1.369 . S
C346 C347 1.392 . S
C346 H359 0.951 . S
C347 C346 1.392 . S
C347 C349 1.384 . S
H348 C350 0.949 . S
C349 C347 1.384 . S
C349 C350 1.385 . S
C349 H351 0.950 . S
C350 C344 1.404 . S
C350 H348 0.949 . S
C350 C349 1.385 . S
H351 C349 0.950 . S
H352 C336 0.951 . S
H353 C338 0.951 . S
H354 C340 0.951 . S
H355 C341 0.950 . S
H356 C342 0.948 . S
H357 C343 0.950 1_556 S
H358 C345 0.950 . S
H359 C346 0.951 . S
C360 C361 1.386 . S
C360 C362 1.383 . S
C360 H376 0.951 . S
C361 C360 1.386 . S
C361 C365 1.383 . S
C362 C360 1.383 . S
C362 C363 1.402 . S
C362 H377 0.951 . S
C363 C362 1.402 . S
C363 C364 1.375 . S
C363 C366 1.481 1_655 S
C364 C363 1.375 . S
C364 C365 1.367 . S
C364 H378 0.951 1_655 S
C365 C361 1.383 . S
C365 C364 1.367 . S
C365 H379 0.950 . S
C366 C363 1.481 1_455 S
C366 C367 1.297 . S
C366 H380 0.950 . S
C367 C366 1.297 . S
C367 C368 1.479 . S
C367 H381 0.950 1_455 S
C368 C367 1.479 . S
C368 C369 1.375 . S
C368 C374 1.404 . S
C369 C368 1.375 . S
C369 C370 1.369 . S
C369 H382 0.950 . S
C370 C369 1.369 . S
C370 C371 1.392 . S
C370 H383 0.951 . S
C371 C370 1.392 . S
C371 C373 1.384 . S
H372 C374 0.949 . S
C373 C371 1.384 . S
C373 C374 1.385 . S
C373 H375 0.950 . S
C374 C368 1.404 . S
C374 H372 0.949 . S
C374 C373 1.385 . S
H375 C373 0.950 . S
H376 C360 0.951 . S
H377 C362 0.951 . S
H378 C364 0.951 1_455 S
H379 C365 0.950 . S
H380 C366 0.950 . S
H381 C367 0.950 1_655 S
H382 C369 0.950 . S
H383 C370 0.951 . S
C384 C385 1.386 . S
C384 C386 1.383 . S
C384 H400 0.951 . S
C385 C384 1.386 . S
C385 C389 1.383 . S
C386 C384 1.383 . S
C386 C387 1.402 . S
C386 H401 0.951 . S
C387 C386 1.402 . S
C387 C388 1.375 . S
C387 C390 1.481 . S
C388 C387 1.375 . S
C388 C389 1.367 . S
C388 H402 0.951 . S
C389 C385 1.383 . S
C389 C388 1.367 . S
C389 H403 0.950 . S
C390 C387 1.481 . S
C390 C391 1.297 . S
C390 H404 0.950 . S
C391 C390 1.297 . S
C391 C392 1.479 . S
C391 H405 0.950 . S
C392 C391 1.479 . S
C392 C393 1.375 . S
C392 C398 1.404 . S
C393 C392 1.375 . S
C393 C394 1.369 . S
C393 H406 0.950 . S
C394 C393 1.369 . S
C394 C395 1.392 . S
C394 H407 0.951 . S
C395 C394 1.392 . S
C395 C397 1.384 . S
H396 C398 0.949 . S
C397 C395 1.384 . S
C397 C398 1.385 . S
C397 H399 0.950 . S
C398 C392 1.404 . S
C398 H396 0.949 . S
C398 C397 1.385 . S
H399 C397 0.950 . S
H400 C384 0.951 . S
H401 C386 0.951 . S
H402 C388 0.951 . S
H403 C389 0.950 . S
H404 C390 0.950 . S
H405 C391 0.950 . S
H406 C393 0.950 . S
H407 C394 0.951 . S
C408 C409 1.386 . S
C408 C410 1.383 . S
C408 H424 0.951 . S
C409 C408 1.386 . S
C409 C413 1.383 . S
C410 C408 1.383 . S
C410 C411 1.402 . S
C410 H425 0.951 . S
C411 C410 1.402 . S
C411 C412 1.375 . S
C411 C414 1.481 . S
C412 C411 1.375 . S
C412 C413 1.367 . S
C412 H426 0.951 . S
C413 C409 1.383 . S
C413 C412 1.367 . S
C413 H427 0.950 . S
C414 C411 1.481 . S
C414 C415 1.297 . S
C414 H428 0.950 . S
C415 C414 1.297 . S
C415 C416 1.479 . S
C415 H429 0.950 . S
C416 C415 1.479 . S
C416 C417 1.375 . S
C416 C422 1.404 . S
C417 C416 1.375 . S
C417 C418 1.369 . S
C417 H430 0.950 . S
C418 C417 1.369 . S
C418 C419 1.392 . S
C418 H431 0.951 . S
C419 C418 1.392 . S
C419 C421 1.384 . S
H420 C422 0.949 . S
C421 C419 1.384 . S
C421 C422 1.385 . S
C421 H423 0.950 . S
C422 C416 1.404 . S
C422 H420 0.949 . S
C422 C421 1.385 . S
H423 C421 0.950 . S
H424 C408 0.951 . S
H425 C410 0.951 . S
H426 C412 0.951 . S
H427 C413 0.950 . S
H428 C414 0.950 . S
H429 C415 0.950 . S
H430 C417 0.950 . S
H431 C418 0.951 . S
C432 C433 1.386 . S
C432 C434 1.383 . S
C432 H448 0.951 . S
C433 C432 1.386 . S
C433 C437 1.383 . S
C434 C432 1.383 . S
C434 C435 1.402 . S
C434 H449 0.951 . S
C435 C434 1.402 . S
C435 C436 1.375 . S
C435 C438 1.481 . S
C436 C435 1.375 . S
C436 C437 1.367 . S
C436 H450 0.951 . S
C437 C433 1.383 . S
C437 C436 1.367 . S
C437 H451 0.950 . S
C438 C435 1.481 . S
C438 C439 1.297 . S
C438 H452 0.950 . S
C439 C438 1.297 . S
C439 C440 1.479 . S
C439 H453 0.950 . S
C440 C439 1.479 . S
C440 C441 1.375 . S
C440 C446 1.404 . S
C441 C440 1.375 . S
C441 C442 1.369 . S
C441 H454 0.950 . S
C442 C441 1.369 . S
C442 C443 1.392 . S
C442 H455 0.951 . S
C443 C442 1.392 . S
C443 C445 1.384 . S
H444 C446 0.949 . S
C445 C443 1.384 . S
C445 C446 1.385 . S
C445 H447 0.950 . S
C446 C440 1.404 . S
C446 H444 0.949 . S
C446 C445 1.385 . S
H447 C445 0.950 . S
H448 C432 0.951 . S
H449 C434 0.951 . S
H450 C436 0.951 . S
H451 C437 0.950 . S
H452 C438 0.950 . S
H453 C439 0.950 . S
H454 C441 0.950 . S
H455 C442 0.951 . S
C456 C457 1.386 . S
C456 C458 1.383 . S
C456 H472 0.951 . S
C457 C456 1.386 . S
C457 C461 1.383 . S
C458 C456 1.383 . S
C458 C459 1.402 . S
C458 H473 0.951 . S
C459 C458 1.402 . S
C459 C460 1.375 . S
C459 C462 1.481 . S
C460 C459 1.375 . S
C460 C461 1.367 . S
C460 H474 0.951 . S
C461 C457 1.383 . S
C461 C460 1.367 . S
C461 H475 0.950 . S
C462 C459 1.481 . S
C462 C463 1.297 . S
C462 H476 0.950 . S
C463 C462 1.297 . S
C463 C464 1.479 . S
C463 H477 0.950 . S
C464 C463 1.479 . S
C464 C465 1.375 . S
C464 C470 1.404 . S
C465 C464 1.375 . S
C465 C466 1.369 . S
C465 H478 0.950 . S
C466 C465 1.369 . S
C466 C467 1.392 . S
C466 H479 0.951 . S
C467 C466 1.392 . S
C467 C469 1.384 . S
H468 C470 0.949 . S
C469 C467 1.384 . S
C469 C470 1.385 . S
C469 H471 0.950 . S
C470 C464 1.404 . S
C470 H468 0.949 . S
C470 C469 1.385 . S
H471 C469 0.950 . S
H472 C456 0.951 . S
H473 C458 0.951 . S
H474 C460 0.951 . S
H475 C461 0.950 . S
H476 C462 0.950 . S
H477 C463 0.950 . S
H478 C465 0.950 . S
H479 C466 0.951 . S
C480 C481 1.386 . S
C480 C482 1.383 . S
C480 H496 0.951 . S
C481 C480 1.386 . S
C481 C485 1.383 . S
C482 C480 1.383 . S
C482 C483 1.402 . S
C482 H497 0.951 . S
C483 C482 1.402 . S
C483 C484 1.375 . S
C483 C486 1.481 . S
C484 C483 1.375 . S
C484 C485 1.367 . S
C484 H498 0.951 . S
C485 C481 1.383 . S
C485 C484 1.367 . S
C485 H499 0.950 . S
C486 C483 1.481 . S
C486 C487 1.297 . S
C486 H500 0.950 . S
C487 C486 1.297 . S
C487 C488 1.479 . S
C487 H501 0.950 . S
C488 C487 1.479 . S
C488 C489 1.375 . S
C488 C494 1.404 . S
C489 C488 1.375 . S
C489 C490 1.369 . S
C489 H502 0.950 . S
C490 C489 1.369 . S
C490 C491 1.392 . S
C490 H503 0.951 . S
C491 C490 1.392 . S
C491 C493 1.384 . S
H492 C494 0.949 . S
C493 C491 1.384 . S
C493 C494 1.385 . S
C493 H495 0.950 . S
C494 C488 1.404 . S
C494 H492 0.949 . S
C494 C493 1.385 . S
H495 C493 0.950 . S
H496 C480 0.951 . S
H497 C482 0.951 . S
H498 C484 0.951 . S
H499 C485 0.950 . S
H500 C486 0.950 . S
H501 C487 0.950 . S
H502 C489 0.950 . S
H503 C490 0.951 . S
C504 C505 1.386 . S
C504 C506 1.383 . S
C504 H520 0.951 . S
C505 C504 1.386 . S
C505 C509 1.383 . S
C506 C504 1.383 . S
C506 C507 1.402 . S
C506 H521 0.951 . S
C507 C506 1.402 . S
C507 C508 1.375 . S
C507 C510 1.481 . S
C508 C507 1.375 . S
C508 C509 1.367 . S
C508 H522 0.951 . S
C509 C505 1.383 . S
C509 C508 1.367 . S
C509 H523 0.950 . S
C510 C507 1.481 . S
C510 C511 1.297 . S
C510 H524 0.950 . S
C511 C510 1.297 . S
C511 C512 1.479 . S
C511 H525 0.950 . S
C512 C511 1.479 . S
C512 C513 1.375 . S
C512 C518 1.404 . S
C513 C512 1.375 . S
C513 C514 1.369 . S
C513 H526 0.950 . S
C514 C513 1.369 . S
C514 C515 1.392 . S
C514 H527 0.951 . S
C515 C514 1.392 . S
C515 C517 1.384 . S
H516 C518 0.949 . S
C517 C515 1.384 . S
C517 C518 1.385 . S
C517 H519 0.950 . S
C518 C512 1.404 . S
C518 H516 0.949 . S
C518 C517 1.385 . S
H519 C517 0.950 . S
H520 C504 0.951 . S
H521 C506 0.951 . S
H522 C508 0.951 . S
H523 C509 0.950 . S
H524 C510 0.950 . S
H525 C511 0.950 . S
H526 C513 0.950 . S
H527 C514 0.951 . S
C528 C529 1.386 . S
C528 C530 1.383 . S
C528 H544 0.951 . S
C529 C528 1.386 . S
C529 C533 1.383 . S
C530 C528 1.383 . S
C530 C531 1.402 . S
C530 H545 0.951 . S
C531 C530 1.402 . S
C531 C532 1.375 . S
C531 C534 1.481 . S
C532 C531 1.375 . S
C532 C533 1.367 . S
C532 H546 0.951 . S
C533 C529 1.383 . S
C533 C532 1.367 . S
C533 H547 0.950 . S
C534 C531 1.481 . S
C534 C535 1.297 . S
C534 H548 0.950 . S
C535 C534 1.297 . S
C535 C536 1.479 . S
C535 H549 0.950 . S
C536 C535 1.479 . S
C536 C537 1.375 . S
C536 C542 1.404 1_455 S
C537 C536 1.375 . S
C537 C538 1.369 1_455 S
C537 H550 0.950 . S
C538 C537 1.369 1_655 S
C538 C539 1.392 . S
C538 H551 0.951 1_655 S
C539 C538 1.392 . S
C539 C541 1.384 . S
H540 C542 0.949 . S
C541 C539 1.384 . S
C541 C542 1.385 . S
C541 H543 0.950 . S
C542 C536 1.404 1_655 S
C542 H540 0.949 . S
C542 C541 1.385 . S
H543 C541 0.950 . S
H544 C528 0.951 . S
H545 C530 0.951 . S
H546 C532 0.951 . S
H547 C533 0.950 . S
H548 C534 0.950 . S
H549 C535 0.950 . S
H550 C537 0.950 . S
H551 C538 0.951 1_455 S
C552 C553 1.373 1_455 S
C552 C554 1.383 . S
C552 H568 0.951 . S
C553 C552 1.373 1_655 S
C553 C557 1.370 1_655 S
C554 C552 1.383 . S
C554 C555 1.402 . S
C554 H569 0.951 . S
C555 C554 1.402 . S
C555 C556 1.375 . S
C555 C558 1.481 . S
C556 C555 1.375 . S
C556 C557 1.367 . S
C556 H570 0.951 . S
C557 C553 1.370 1_455 S
C557 C556 1.367 . S
C557 H571 0.950 . S
C558 C555 1.481 . S
C558 C559 1.297 . S
C558 H572 0.950 . S
C559 C558 1.297 . S
C559 C560 1.479 . S
C559 H573 0.950 . S
C560 C559 1.479 . S
C560 C561 1.375 . S
C560 C566 1.404 . S
C561 C560 1.375 . S
C561 C562 1.369 1_565 S
C561 H574 0.950 . S
C562 C561 1.369 1_545 S
C562 C563 1.392 . S
C562 H575 0.951 . S
C563 C562 1.392 . S
C563 C565 1.384 . S
H564 C566 0.949 . S
C565 C563 1.384 . S
C565 C566 1.385 1_545 S
C565 H567 0.950 . S
C566 C560 1.404 . S
C566 H564 0.949 . S
C566 C565 1.385 1_565 S
H567 C565 0.950 . S
H568 C552 0.951 . S
H569 C554 0.951 . S
H570 C556 0.951 . S
H571 C557 0.950 . S
H572 C558 0.950 . S
H573 C559 0.950 . S
H574 C561 0.950 . S
H575 C562 0.951 . S
C576 C577 1.360 1_565 S
C576 C578 1.383 . S
C576 H592 0.951 . S
C577 C576 1.360 1_545 S
C577 C581 1.383 1_545 S
C578 C576 1.383 . S
C578 C579 1.402 . S
C578 H593 0.951 . S
C579 C578 1.402 . S
C579 C580 1.375 . S
C579 C582 1.481 . S
C580 C579 1.375 . S
C580 C581 1.367 . S
C580 H594 0.951 . S
C581 C577 1.383 1_565 S
C581 C580 1.367 . S
C581 H595 0.950 . S
C582 C579 1.481 . S
C582 C583 1.297 . S
C582 H596 0.950 . S
C583 C582 1.297 . S
C583 C584 1.479 . S
C583 H597 0.950 . S
C584 C583 1.479 . S
C584 C585 1.375 . S
C584 C590 1.404 . S
C585 C584 1.375 . S
C585 C586 1.369 . S
C585 H598 0.950 . S
C586 C585 1.369 . S
C586 C587 1.392 . S
C586 H599 0.951 . S
C587 C586 1.392 . S
C587 C589 1.384 . S
H588 C590 0.949 . S
C589 C587 1.384 . S
C589 C590 1.385 . S
C589 H591 0.950 . S
C590 C584 1.404 . S
C590 H588 0.949 . S
C590 C589 1.385 . S
H591 C589 0.950 . S
H592 C576 0.951 . S
H593 C578 0.951 . S
H594 C580 0.951 . S
H595 C581 0.950 . S
H596 C582 0.950 . S
H597 C583 0.950 . S
H598 C585 0.950 . S
H599 C586 0.951 . S
C600 C601 1.386 . S
C600 C602 1.383 . S
C600 H616 0.951 . S
C601 C600 1.386 . S
C601 C605 1.383 . S
C602 C600 1.383 . S
C602 C603 1.402 . S
C602 H617 0.951 . S
C603 C602 1.402 . S
C603 C604 1.375 . S
C603 C606 1.481 . S
C604 C603 1.375 . S
C604 C605 1.367 . S
C604 H618 0.951 . S
C605 C601 1.383 . S
C605 C604 1.367 . S
C605 H619 0.950 . S
C606 C603 1.481 . S
C606 C607 1.297 . S
C606 H620 0.950 . S
C607 C606 1.297 . S
C607 C608 1.479 . S
C607 H621 0.950 . S
C608 C607 1.479 . S
C608 C609 1.375 1_545 S
C608 C614 1.404 . S
C609 C608 1.375 1_565 S
C609 C610 1.369 . S
C609 H622 0.950 . S
C610 C609 1.369 . S
C610 C611 1.392 . S
C610 H623 0.951 . S
C611 C610 1.392 . S
C611 C613 1.384 1_565 S
H612 C614 0.949 . S
C613 C611 1.384 1_545 S
C613 C614 1.385 . S
C613 H615 0.950 . S
C614 C608 1.404 . S
C614 H612 0.949 . S
C614 C613 1.385 . S
H615 C613 0.950 . S
H616 C600 0.951 . S
H617 C602 0.951 . S
H618 C604 0.951 . S
H619 C605 0.950 . S
H620 C606 0.950 . S
H621 C607 0.950 . S
H622 C609 0.950 . S
H623 C610 0.951 . S
C624 C625 1.359 1_655 S
C624 C626 1.383 . S
C624 H640 0.951 . S
C625 C624 1.359 1_455 S
C625 C629 1.383 1_455 S
C626 C624 1.383 . S
C626 C627 1.402 . S
C626 H641 0.951 . S
C627 C626 1.402 . S
C627 C628 1.375 . S
C627 C630 1.481 . S
C628 C627 1.375 . S
C628 C629 1.367 . S
C628 H642 0.951 . S
C629 C625 1.383 1_655 S
C629 C628 1.367 . S
C629 H643 0.950 . S
C630 C627 1.481 . S
C630 C631 1.297 . S
C630 H644 0.950 . S
C631 C630 1.297 . S
C631 C632 1.479 . S
C631 H645 0.950 . S
C632 C631 1.479 . S
C632 C633 1.375 . S
C632 C638 1.404 . S
C633 C632 1.375 . S
C633 C634 1.369 . S
C633 H646 0.950 . S
C634 C633 1.369 . S
C634 C635 1.392 . S
C634 H647 0.951 . S
C635 C634 1.392 . S
C635 C637 1.384 . S
H636 C638 0.949 . S
C637 C635 1.384 . S
C637 C638 1.385 . S
C637 H639 0.950 . S
C638 C632 1.404 . S
C638 H636 0.949 . S
C638 C637 1.385 . S
H639 C637 0.950 . S
H640 C624 0.951 . S
H641 C626 0.951 . S
H642 C628 0.951 . S
H643 C629 0.950 . S
H644 C630 0.950 . S
H645 C631 0.950 . S
H646 C633 0.950 . S
H647 C634 0.951 . S
C648 C649 1.386 . S
C648 C650 1.383 1_455 S
C648 H664 0.951 . S
C649 C648 1.386 . S
C649 C653 1.383 . S
C650 C648 1.383 1_655 S
C650 C651 1.402 . S
C650 H665 0.951 . S
C651 C650 1.402 . S
C651 C652 1.375 . S
C651 C654 1.481 . S
C652 C651 1.375 . S
C652 C653 1.367 1_655 S
C652 H666 0.951 . S
C653 C649 1.383 . S
C653 C652 1.367 1_455 S
C653 H667 0.950 . S
C654 C651 1.481 . S
C654 C655 1.297 . S
C654 H668 0.950 . S
C655 C654 1.297 . S
C655 C656 1.479 . S
C655 H669 0.950 . S
C656 C655 1.479 . S
C656 C657 1.375 . S
C656 C662 1.404 . S
C657 C656 1.375 . S
C657 C658 1.369 . S
C657 H670 0.950 . S
C658 C657 1.369 . S
C658 C659 1.392 1_545 S
C658 H671 0.951 . S
C659 C658 1.392 1_565 S
C659 C661 1.384 1_565 S
H660 C662 0.949 . S
C661 C659 1.384 1_545 S
C661 C662 1.385 . S
C661 H663 0.950 . S
C662 C656 1.404 . S
C662 H660 0.949 . S
C662 C661 1.385 . S
H663 C661 0.950 . S
H664 C648 0.951 . S
H665 C650 0.951 . S
H666 C652 0.951 . S
H667 C653 0.950 . S
H668 C654 0.950 . S
H669 C655 0.950 . S
H670 C657 0.950 . S
H671 C658 0.951 . S
C241 C183 2.266 . S
C251 C23 2.279 . S
C265 C202 2.458 . S
C275 C42 2.428 . S
C289 C103 2.297 . S
C299 C143 2.267 . S
C313 C2 2.500 . S
C323 C162 2.497 . S
C337 C223 2.307 . S
C347 C63 2.305 . S
C361 C82 2.461 . S
C371 C122 2.459 . S
C385 C17 1.756 . S
C395 C104 1.779 . S
C409 C57 1.762 . S
C419 C24 1.806 . S
C433 C97 1.782 . S
C443 C64 1.740 . S
C457 C137 1.756 . S
C467 C184 1.779 . S
C481 C177 1.759 . S
C491 C224 1.801 . S
C505 C144 1.766 . S
C515 C217 1.762 . S
C529 C26 0.947 . S
C539 C93 0.874 . S
C553 C66 0.913 . S
C563 C13 0.969 . S
C577 C106 0.912 . S
C587 C53 0.918 . S
C601 C146 0.888 . S
C611 C173 0.883 . S
C625 C186 0.912 . S
C635 C213 0.917 . S
C649 C133 0.931 . S
C659 C226 0.855 . S
