# Generated by pormake.
# Topology ukj, (4)-cn, num edge types: 1
# Building blocks:
#     Node 0, Type 0, BuildingBlock: MUDLON_clean_sbu_0, # of connection points: 4
#     Node 1, Type 0, BuildingBlock: MUDLON_clean_sbu_0, # of connection points: 4
#     Node 2, Type 0, BuildingBlock: MUDLON_clean_sbu_0, # of connection points: 4
#     Node 3, Type 0, BuildingBlock: MUDLON_clean_sbu_0, # of connection points: 4
#     Node 4, Type 0, BuildingBlock: MUDLON_clean_sbu_0, # of connection points: 4
#     Node 5, Type 0, BuildingBlock: MUDLON_clean_sbu_0, # of connection points: 4
#     Node 6, Type 0, BuildingBlock: MUDLON_clean_sbu_0, # of connection points: 4
#     Node 7, Type 0, BuildingBlock: MUDLON_clean_sbu_0, # of connection points: 4
#     Node 8, Type 0, BuildingBlock: MUDLON_clean_sbu_0, # of connection points: 4
#     Node 9, Type 0, BuildingBlock: MUDLON_clean_sbu_0, # of connection points: 4
#     Node 10, Type 0, BuildingBlock: MUDLON_clean_sbu_0, # of connection points: 4
#     Node 11, Type 0, BuildingBlock: MUDLON_clean_sbu_0, # of connection points: 4
#     Node 12, Type 0, BuildingBlock: MUDLON_clean_sbu_0, # of connection points: 4
#     Node 13, Type 0, BuildingBlock: MUDLON_clean_sbu_0, # of connection points: 4
#     Node 14, Type 0, BuildingBlock: MUDLON_clean_sbu_0, # of connection points: 4
#     Node 15, Type 0, BuildingBlock: MUDLON_clean_sbu_0, # of connection points: 4
#     Node 16, Type 0, BuildingBlock: MUDLON_clean_sbu_0, # of connection points: 4
#     Node 17, Type 0, BuildingBlock: MUDLON_clean_sbu_0, # of connection points: 4
#     Node 18, Type 0, BuildingBlock: MUDLON_clean_sbu_0, # of connection points: 4
#     Node 19, Type 0, BuildingBlock: MUDLON_clean_sbu_0, # of connection points: 4
#     Node 20, Type 0, BuildingBlock: MUDLON_clean_sbu_0, # of connection points: 4
#     Node 21, Type 0, BuildingBlock: MUDLON_clean_sbu_0, # of connection points: 4
#     Node 22, Type 0, BuildingBlock: MUDLON_clean_sbu_0, # of connection points: 4
#     Node 23, Type 0, BuildingBlock: MUDLON_clean_sbu_0, # of connection points: 4
#     Node 24, Type 0, BuildingBlock: MUDLON_clean_sbu_0, # of connection points: 4
#     Node 25, Type 0, BuildingBlock: MUDLON_clean_sbu_0, # of connection points: 4
#     Node 26, Type 0, BuildingBlock: MUDLON_clean_sbu_0, # of connection points: 4
#     Node 27, Type 0, BuildingBlock: MUDLON_clean_sbu_0, # of connection points: 4
#     Node 28, Type 0, BuildingBlock: MUDLON_clean_sbu_0, # of connection points: 4
#     Node 29, Type 0, BuildingBlock: MUDLON_clean_sbu_0, # of connection points: 4
#     Node 30, Type 0, BuildingBlock: MUDLON_clean_sbu_0, # of connection points: 4
#     Node 31, Type 0, BuildingBlock: MUDLON_clean_sbu_0, # of connection points: 4
#     Edge 32, Type (0, 0), BuildingBlock: KIFKEQ_clean_linker_1, # of connection points: 2
#     Edge 33, Type (0, 0), BuildingBlock: KIFKEQ_clean_linker_1, # of connection points: 2
#     Edge 34, Type (0, 0), BuildingBlock: KIFKEQ_clean_linker_1, # of connection points: 2
#     Edge 35, Type (0, 0), BuildingBlock: KIFKEQ_clean_linker_1, # of connection points: 2
#     Edge 36, Type (0, 0), BuildingBlock: KIFKEQ_clean_linker_1, # of connection points: 2
#     Edge 37, Type (0, 0), BuildingBlock: KIFKEQ_clean_linker_1, # of connection points: 2
#     Edge 38, Type (0, 0), BuildingBlock: KIFKEQ_clean_linker_1, # of connection points: 2
#     Edge 39, Type (0, 0), BuildingBlock: KIFKEQ_clean_linker_1, # of connection points: 2
#     Edge 40, Type (0, 0), BuildingBlock: KIFKEQ_clean_linker_1, # of connection points: 2
#     Edge 41, Type (0, 0), BuildingBlock: KIFKEQ_clean_linker_1, # of connection points: 2
#     Edge 42, Type (0, 0), BuildingBlock: KIFKEQ_clean_linker_1, # of connection points: 2
#     Edge 43, Type (0, 0), BuildingBlock: KIFKEQ_clean_linker_1, # of connection points: 2
#     Edge 44, Type (0, 0), BuildingBlock: KIFKEQ_clean_linker_1, # of connection points: 2
#     Edge 45, Type (0, 0), BuildingBlock: KIFKEQ_clean_linker_1, # of connection points: 2
#     Edge 46, Type (0, 0), BuildingBlock: KIFKEQ_clean_linker_1, # of connection points: 2
#     Edge 47, Type (0, 0), BuildingBlock: KIFKEQ_clean_linker_1, # of connection points: 2
#     Edge 48, Type (0, 0), BuildingBlock: KIFKEQ_clean_linker_1, # of connection points: 2
#     Edge 49, Type (0, 0), BuildingBlock: KIFKEQ_clean_linker_1, # of connection points: 2
#     Edge 50, Type (0, 0), BuildingBlock: KIFKEQ_clean_linker_1, # of connection points: 2
#     Edge 51, Type (0, 0), BuildingBlock: KIFKEQ_clean_linker_1, # of connection points: 2
#     Edge 52, Type (0, 0), BuildingBlock: KIFKEQ_clean_linker_1, # of connection points: 2
#     Edge 53, Type (0, 0), BuildingBlock: KIFKEQ_clean_linker_1, # of connection points: 2
#     Edge 54, Type (0, 0), BuildingBlock: KIFKEQ_clean_linker_1, # of connection points: 2
#     Edge 55, Type (0, 0), BuildingBlock: KIFKEQ_clean_linker_1, # of connection points: 2
#     Edge 56, Type (0, 0), BuildingBlock: KIFKEQ_clean_linker_1, # of connection points: 2
#     Edge 57, Type (0, 0), BuildingBlock: KIFKEQ_clean_linker_1, # of connection points: 2
#     Edge 58, Type (0, 0), BuildingBlock: KIFKEQ_clean_linker_1, # of connection points: 2
#     Edge 59, Type (0, 0), BuildingBlock: KIFKEQ_clean_linker_1, # of connection points: 2
#     Edge 60, Type (0, 0), BuildingBlock: KIFKEQ_clean_linker_1, # of connection points: 2
#     Edge 61, Type (0, 0), BuildingBlock: KIFKEQ_clean_linker_1, # of connection points: 2
#     Edge 62, Type (0, 0), BuildingBlock: KIFKEQ_clean_linker_1, # of connection points: 2
#     Edge 63, Type (0, 0), BuildingBlock: KIFKEQ_clean_linker_1, # of connection points: 2
#     Edge 64, Type (0, 0), BuildingBlock: KIFKEQ_clean_linker_1, # of connection points: 2
#     Edge 65, Type (0, 0), BuildingBlock: KIFKEQ_clean_linker_1, # of connection points: 2
#     Edge 66, Type (0, 0), BuildingBlock: KIFKEQ_clean_linker_1, # of connection points: 2
#     Edge 67, Type (0, 0), BuildingBlock: KIFKEQ_clean_linker_1, # of connection points: 2
#     Edge 68, Type (0, 0), BuildingBlock: KIFKEQ_clean_linker_1, # of connection points: 2
#     Edge 69, Type (0, 0), BuildingBlock: KIFKEQ_clean_linker_1, # of connection points: 2
#     Edge 70, Type (0, 0), BuildingBlock: KIFKEQ_clean_linker_1, # of connection points: 2
#     Edge 71, Type (0, 0), BuildingBlock: KIFKEQ_clean_linker_1, # of connection points: 2
#     Edge 72, Type (0, 0), BuildingBlock: KIFKEQ_clean_linker_1, # of connection points: 2
#     Edge 73, Type (0, 0), BuildingBlock: KIFKEQ_clean_linker_1, # of connection points: 2
#     Edge 74, Type (0, 0), BuildingBlock: KIFKEQ_clean_linker_1, # of connection points: 2
#     Edge 75, Type (0, 0), BuildingBlock: KIFKEQ_clean_linker_1, # of connection points: 2
#     Edge 76, Type (0, 0), BuildingBlock: KIFKEQ_clean_linker_1, # of connection points: 2
#     Edge 77, Type (0, 0), BuildingBlock: KIFKEQ_clean_linker_1, # of connection points: 2
#     Edge 78, Type (0, 0), BuildingBlock: KIFKEQ_clean_linker_1, # of connection points: 2
#     Edge 79, Type (0, 0), BuildingBlock: KIFKEQ_clean_linker_1, # of connection points: 2
#     Edge 80, Type (0, 0), BuildingBlock: KIFKEQ_clean_linker_1, # of connection points: 2
#     Edge 81, Type (0, 0), BuildingBlock: KIFKEQ_clean_linker_1, # of connection points: 2
#     Edge 82, Type (0, 0), BuildingBlock: KIFKEQ_clean_linker_1, # of connection points: 2
#     Edge 83, Type (0, 0), BuildingBlock: KIFKEQ_clean_linker_1, # of connection points: 2
#     Edge 84, Type (0, 0), BuildingBlock: KIFKEQ_clean_linker_1, # of connection points: 2
#     Edge 85, Type (0, 0), BuildingBlock: KIFKEQ_clean_linker_1, # of connection points: 2
#     Edge 86, Type (0, 0), BuildingBlock: KIFKEQ_clean_linker_1, # of connection points: 2
#     Edge 87, Type (0, 0), BuildingBlock: KIFKEQ_clean_linker_1, # of connection points: 2
#     Edge 88, Type (0, 0), BuildingBlock: KIFKEQ_clean_linker_1, # of connection points: 2
#     Edge 89, Type (0, 0), BuildingBlock: KIFKEQ_clean_linker_1, # of connection points: 2
#     Edge 90, Type (0, 0), BuildingBlock: KIFKEQ_clean_linker_1, # of connection points: 2
#     Edge 91, Type (0, 0), BuildingBlock: KIFKEQ_clean_linker_1, # of connection points: 2
#     Edge 92, Type (0, 0), BuildingBlock: KIFKEQ_clean_linker_1, # of connection points: 2
#     Edge 93, Type (0, 0), BuildingBlock: KIFKEQ_clean_linker_1, # of connection points: 2
#     Edge 94, Type (0, 0), BuildingBlock: KIFKEQ_clean_linker_1, # of connection points: 2
#     Edge 95, Type (0, 0), BuildingBlock: KIFKEQ_clean_linker_1, # of connection points: 2
# Relax obj value: 0.028
# Max RMSD: 0.217
# Mean RMSD: 0.215
data_MOF--net-ukj--node1-MUDLON_clean_sbu_0--edge1-KIFKEQ_clean_linker_1
_symmetry_space_group_name_H-M    P1
_symmetry_Int_Tables_number       1
_symmetry_cell_setting            triclinic
loop_
_symmetry_equiv_pos_as_xyz
'x, y, z'
_cell_length_a     35.097649
_cell_length_b     59.161973
_cell_length_c     60.713069
_cell_angle_alpha  89.935801
_cell_angle_beta   90.046334
_cell_angle_gamma 90.098547
loop_
_atom_site_label
_atom_site_type_symbol
_atom_site_fract_x
_atom_site_fract_y
_atom_site_fract_z
_atom_type_partial_charge
Mg0 Mg 0.17264 0.34539 0.26635 0.0
C1 C 0.17708 0.35453 0.21932 0.0
O2 O 0.20099 0.33786 0.22285 0.0
C3 C 0.15473 0.34765 0.31279 0.0
O4 O 0.16911 0.32741 0.30965 0.0
C5 C 0.10873 0.31431 0.26335 0.0
O6 O 0.09412 0.33472 0.26215 0.0
O7 O 0.14479 0.31242 0.26494 0.0
O8 O 0.15897 0.36258 0.23566 0.0
O9 O 0.23439 0.34736 0.27009 0.0
C10 C 0.26004 0.33353 0.26411 0.0
O11 O 0.25015 0.31425 0.25502 0.0
O12 O 0.15099 0.36068 0.29624 0.0
Mg13 Mg 0.10961 0.90018 0.27044 0.0
C14 C 0.11166 0.89353 0.22311 0.0
O15 O 0.08639 0.9095 0.22657 0.0
C16 C 0.10441 0.87207 0.31229 0.0
O17 O 0.07063 0.86754 0.3041 0.0
C18 C 0.15115 0.94121 0.28831 0.0
O19 O 0.14361 0.93086 0.30696 0.0
O20 O 0.13744 0.93325 0.27051 0.0
O21 O 0.12848 0.88489 0.23969 0.0
O22 O 0.04711 0.89924 0.26911 0.0
C23 C 0.03353 0.88091 0.26131 0.0
O24 O 0.05742 0.86519 0.25483 0.0
O25 O 0.12768 0.88379 0.30097 0.0
Mg26 Mg 0.17929 0.90471 1.01992 0.0
C27 C 0.18755 0.88632 0.06547 0.0
O28 O 0.2215 0.89496 0.06197 0.0
C29 C 0.16748 0.90304 0.97263 0.0
O30 O 0.18158 0.92322 0.97662 0.0
C31 C 0.11311 0.93436 0.02272 0.0
O32 O 0.0992 0.91373 0.02363 0.0
O33 O 0.14908 0.93682 0.0213 0.0
O34 O 0.16329 0.88663 0.04986 0.0
O35 O 0.24134 0.90617 1.0187 0.0
C36 C 0.25697 0.8876 1.0132 0.0
O37 O 0.23497 0.87035 1.00823 0.0
O38 O 0.16184 0.88977 0.98882 0.0
Mg39 Mg 0.11908 0.34855 1.01759 0.0
C40 C 0.11196 0.37307 0.06089 0.0
O41 O 0.07575 0.37072 0.05591 0.0
C42 C 0.14503 0.35192 0.97093 0.0
O43 O 0.15049 0.33037 0.97506 0.0
C44 C 0.16478 0.30919 0.03619 0.0
O45 O 0.15836 0.31994 0.05473 0.0
O46 O 0.14966 0.31648 1.01851 0.0
O47 O 0.1369 0.367 0.04689 0.0
O48 O 0.05701 0.34597 1.01867 0.0
C49 C 0.03704 0.34874 1.00138 0.0
O50 O 0.05428 0.3506 0.98226 0.0
O51 O 0.13355 0.36468 0.98643 0.0
Mg52 Mg 0.8634 0.6569 0.7686 0.0
C53 C 0.91225 0.63867 0.80639 0.0
O54 O 0.9401 0.64756 0.7948 0.0
C55 C 0.86397 0.65301 0.72113 0.0
O56 O 0.84859 0.67274 0.72549 0.0
C57 C 0.92801 0.68732 0.75774 0.0
O58 O 0.937 0.66842 0.7477 0.0
O59 O 0.89676 0.68825 0.76838 0.0
O60 O 0.87875 0.6387 0.79846 0.0
O61 O 0.80143 0.65987 0.76958 0.0
C62 C 0.78458 0.64208 0.77636 0.0
O63 O 0.80539 0.62487 0.78285 0.0
O64 O 0.87438 0.6406 0.73719 0.0
Mg65 Mg 0.91918 0.09708 0.76988 0.0
C66 C 0.87858 0.10949 0.81266 0.0
O67 O 0.85506 0.09348 0.80628 0.0
C68 C 0.9234 0.12589 0.72832 0.0
O69 O 0.95562 0.1324 0.73732 0.0
C70 C 0.85866 0.06284 0.76115 0.0
O71 O 0.84679 0.08027 0.74963 0.0
O72 O 0.89009 0.06443 0.77156 0.0
O73 O 0.90532 0.11556 0.79983 0.0
O74 O 0.98145 0.09547 0.76945 0.0
C75 C 0.99855 0.11224 0.7782 0.0
O76 O 0.97803 0.12836 0.7871 0.0
O77 O 0.90164 0.1126 0.73894 0.0
Mg78 Mg 0.86337 0.09637 1.01843 0.0
C79 C 0.90104 0.11135 0.97548 0.0
O80 O 0.92752 0.09714 0.98191 0.0
C81 C 0.8716 0.09863 0.06573 0.0
O82 O 0.85828 0.07834 0.06136 0.0
C83 C 0.92999 0.06643 0.02421 0.0
O84 O 0.94195 0.08601 0.03175 0.0
O85 O 0.89597 0.06496 1.01699 0.0
O86 O 0.8734 0.11559 0.98835 0.0
O87 O 0.80155 0.09343 1.01981 0.0
C88 C 0.78555 0.11273 1.01895 0.0
O89 O 0.80727 0.13077 1.01731 0.0
O90 O 0.87809 0.11198 0.04969 0.0
Mg91 Mg 0.93412 0.65542 1.01636 0.0
C92 C 0.94035 0.65099 0.96937 0.0
O93 O 0.96097 0.66857 0.97517 0.0
C94 C 0.92081 0.65128 0.06276 0.0
O95 O 0.93474 0.67161 0.05929 0.0
C96 C 0.86755 0.68474 1.01951 0.0
O97 O 0.85419 0.66408 0.02156 0.0
O98 O 0.90324 0.68737 1.01665 0.0
O99 O 0.92272 0.64017 0.98438 0.0
O100 O 0.99606 0.65687 1.01925 0.0
C101 C 1.01287 0.63898 1.01283 0.0
O102 O 0.99221 0.62236 1.00483 0.0
O103 O 0.91584 0.63835 0.04624 0.0
Mg104 Mg 0.17442 0.85077 0.76712 0.0
C105 C 0.17894 0.86199 0.72046 0.0
O106 O 0.20313 0.84534 0.7235 0.0
C107 C 0.16387 0.85262 0.81442 0.0
O108 O 0.17746 0.83237 0.81032 0.0
C109 C 0.11861 0.81526 0.75185 0.0
O110 O 0.11238 0.83115 0.73718 0.0
O111 O 0.14486 0.81813 0.76608 0.0
O112 O 0.1604 0.86925 0.73703 0.0
O113 O 0.23668 0.85026 0.76776 0.0
C114 C 0.25104 0.86967 0.76396 0.0
O115 O 0.22786 0.88676 0.76061 0.0
O116 O 0.15797 0.8659 0.79827 0.0
Mg117 Mg 0.11193 0.40953 0.76641 0.0
C118 C 0.11206 0.40104 0.7194 0.0
O119 O 0.08581 0.41649 0.72269 0.0
C120 C 0.10508 0.3969 0.81285 0.0
O121 O 0.07497 0.40946 0.80897 0.0
C122 C 0.15293 0.45113 0.78418 0.0
O123 O 0.14516 0.44118 0.80299 0.0
O124 O 0.13995 0.44263 0.76643 0.0
O125 O 0.13048 0.39361 0.73595 0.0
O126 O 0.04963 0.40824 0.76486 0.0
C127 C 0.03707 0.38894 0.75901 0.0
O128 O 0.06169 0.37285 0.75467 0.0
O129 O 0.12764 0.39268 0.79697 0.0
Mg130 Mg 0.16971 0.40812 0.5149 0.0
C131 C 0.18044 0.39325 0.56119 0.0
O132 O 0.21218 0.40426 0.55712 0.0
C133 C 0.1557 0.40422 0.46827 0.0
O134 O 0.17032 0.42445 0.47128 0.0
C135 C 0.12467 0.44836 0.53206 0.0
O136 O 0.13016 0.43799 0.55094 0.0
O137 O 0.14025 0.44054 0.51477 0.0
O138 O 0.15614 0.39104 0.54575 0.0
O139 O 0.23156 0.40909 0.51188 0.0
C140 C 0.24683 0.38958 0.51195 0.0
O141 O 0.2246 0.37176 0.51362 0.0
O142 O 0.15053 0.39165 0.48503 0.0
Mg143 Mg 0.10952 0.85323 0.52327 0.0
C144 C 0.10875 0.88322 0.56338 0.0
O145 O 0.07212 0.88265 0.55901 0.0
C146 C 0.12069 0.84707 0.47589 0.0
O147 O 0.11401 0.82667 0.48357 0.0
C148 C 0.1761 0.8238 0.52754 0.0
O149 O 0.19033 0.84426 0.52556 0.0
O150 O 0.14002 0.82145 0.52757 0.0
O151 O 0.13183 0.87449 0.54965 0.0
O152 O 0.04788 0.85162 0.52819 0.0
C153 C 0.0243 0.85552 0.51272 0.0
O154 O 0.03702 0.85797 0.49252 0.0
O155 O 0.12125 0.86352 0.48941 0.0
Mg156 Mg 0.86304 0.14956 0.27199 0.0
C157 C 0.90876 0.13 0.31083 0.0
O158 O 0.93827 0.13732 0.29958 0.0
C159 C 0.86912 0.14675 0.22468 0.0
O160 O 0.85421 0.16662 0.22901 0.0
C161 C 0.92837 0.18042 0.26474 0.0
O162 O 0.94024 0.16108 0.25666 0.0
O163 O 0.89481 0.18144 0.2727 0.0
O164 O 0.87575 0.13145 0.30235 0.0
O165 O 0.801 0.15131 0.27161 0.0
C166 C 0.78591 0.1317 0.2713 0.0
O167 O 0.80853 0.11402 0.27108 0.0
O168 O 0.87737 0.13381 0.24076 0.0
Mg169 Mg 0.92095 0.59753 0.26803 0.0
C170 C 0.87411 0.61727 0.30633 0.0
O171 O 0.84482 0.61036 0.29465 0.0
C172 C 0.91495 0.60048 0.22074 0.0
O173 O 0.92977 0.58057 0.22508 0.0
C174 C 0.85574 0.56662 0.26056 0.0
O175 O 0.84386 0.58592 0.25236 0.0
O176 O 0.88926 0.56564 0.26861 0.0
O177 O 0.90742 0.61542 0.29835 0.0
O178 O 0.98304 0.5956 0.26747 0.0
C179 C 0.99936 0.61392 0.27325 0.0
O180 O 0.97806 0.63098 0.27951 0.0
O181 O 0.90668 0.61337 0.23681 0.0
Mg182 Mg 0.85643 0.59797 0.51602 0.0
C183 C 0.84865 0.60411 0.46925 0.0
O184 O 0.82756 0.58662 0.47475 0.0
C185 C 0.86465 0.60251 0.5628 0.0
O186 O 0.85186 0.58199 0.55898 0.0
C187 C 0.92449 0.57052 0.52304 0.0
O188 O 0.93472 0.59122 0.52822 0.0
O189 O 0.89039 0.56707 0.51664 0.0
O190 O 0.86728 0.61416 0.48436 0.0
O191 O 0.79453 0.59527 0.51772 0.0
C192 C 0.77891 0.61449 0.5149 0.0
O193 O 0.801 0.63211 0.5115 0.0
O194 O 0.87082 0.61545 0.54639 0.0
Mg195 Mg 0.92039 0.15541 0.51952 0.0
C196 C 0.92921 0.14682 0.47343 0.0
O197 O 0.94974 0.16471 0.47842 0.0
C198 C 0.90505 0.15678 0.56589 0.0
O199 O 0.91489 0.17728 0.55975 0.0
C200 C 0.85304 0.18422 0.51702 0.0
O201 O 0.83959 0.16353 0.51857 0.0
O202 O 0.88901 0.18699 0.51649 0.0
O203 O 0.91037 0.13728 0.48878 0.0
O204 O 0.98217 0.15782 0.52205 0.0
C205 C 0.99851 0.13884 0.51926 0.0
O206 O 0.97725 0.121 0.51527 0.0
O207 O 0.90319 0.14143 0.55122 0.0
Mg208 Mg 0.677 0.3443 0.76754 0.0
C209 C 0.65144 0.34436 0.72177 0.0
O210 O 0.65775 0.32301 0.72643 0.0
C211 C 0.68662 0.35753 0.81327 0.0
O212 O 0.71436 0.34319 0.8094 0.0
C213 C 0.61035 0.31487 0.77079 0.0
O214 O 0.59656 0.33537 0.76847 0.0
O215 O 0.6464 0.31239 0.77127 0.0
O216 O 0.65695 0.35908 0.73671 0.0
O217 O 0.73919 0.34281 0.76618 0.0
C218 C 0.75766 0.34931 0.74929 0.0
O219 O 0.73895 0.35454 0.73126 0.0
O220 O 0.664 0.36259 0.79765 0.0
Mg221 Mg 0.61669 0.89674 0.77051 0.0
C222 C 0.65795 0.87881 0.7296 0.0
O223 O 0.6862 0.8909 0.73752 0.0
C224 C 0.6263 0.89549 0.81795 0.0
O225 O 0.61199 0.91549 0.81345 0.0
C226 C 0.68268 0.92779 0.77475 0.0
O227 O 0.69601 0.90861 0.78248 0.0
O228 O 0.64821 0.92851 0.76819 0.0
O229 O 0.62742 0.87701 0.74076 0.0
O230 O 0.55496 0.90001 0.77248 0.0
C231 C 0.53437 0.89915 0.75526 0.0
O232 O 0.55096 0.89876 0.73587 0.0
O233 O 0.63277 0.88203 0.80204 0.0
Mg234 Mg 0.66854 0.90453 0.5276 0.0
C235 C 0.66862 0.8701 0.566 0.0
O236 O 0.69607 0.86034 0.55481 0.0
C237 C 0.65531 0.90292 0.48041 0.0
O238 O 0.66792 0.92344 0.48443 0.0
C239 C 0.60353 0.93532 0.53138 0.0
O240 O 0.58871 0.91513 0.53435 0.0
O241 O 0.63933 0.93695 0.52837 0.0
O242 O 0.65156 0.88704 0.5577 0.0
O243 O 0.73066 0.90616 0.52572 0.0
C244 C 0.75234 0.90331 0.5423 0.0
O245 O 0.73728 0.90206 0.56205 0.0
O246 O 0.65108 0.8894 0.49656 0.0
Mg247 Mg 0.60974 0.34882 0.51487 0.0
C248 C 0.59568 0.35748 0.56153 0.0
O249 O 0.56793 0.34399 0.55531 0.0
C250 C 0.64833 0.35512 0.4714 0.0
O251 O 0.65516 0.33367 0.47524 0.0
C252 C 0.67126 0.31651 0.52418 0.0
O253 O 0.68427 0.33578 0.53189 0.0
O254 O 0.63782 0.31601 0.51603 0.0
O255 O 0.61977 0.36393 0.54716 0.0
O256 O 0.54811 0.34842 0.51037 0.0
C257 C 0.53269 0.36769 0.51307 0.0
O258 O 0.55468 0.38503 0.5178 0.0
O259 O 0.63159 0.36674 0.48614 0.0
Mg260 Mg 0.36135 0.65581 0.27438 0.0
C261 C 0.34468 0.63454 0.31869 0.0
O262 O 0.30987 0.63758 0.3114 0.0
C263 C 0.38358 0.65146 0.22812 0.0
O264 O 0.37752 0.67319 0.23079 0.0
C265 C 0.43027 0.68333 0.27153 0.0
O266 O 0.44164 0.66234 0.26899 0.0
O267 O 0.39495 0.687 0.27479 0.0
O268 O 0.37258 0.63935 0.30611 0.0
O269 O 0.29956 0.65817 0.27026 0.0
C270 C 0.28447 0.63928 0.26508 0.0
O271 O 0.30695 0.62181 0.26207 0.0
O272 O 0.37982 0.63835 0.24464 0.0
Mg273 Mg 0.42186 0.09042 0.27763 0.0
C274 C 0.38914 0.1226 0.31495 0.0
O275 O 0.36495 0.131 0.30061 0.0
C276 C 0.41776 0.11969 0.23587 0.0
O277 O 0.44782 0.12972 0.2443 0.0
C278 C 0.35604 0.06163 0.28678 0.0
O279 O 0.34527 0.08223 0.29184 0.0
O280 O 0.3901 0.05862 0.28015 0.0
O281 O 0.41265 0.1075 0.30897 0.0
O282 O 0.48394 0.08899 0.27439 0.0
C283 C 0.50091 0.10666 0.28141 0.0
O284 O 0.4803 0.12294 0.28997 0.0
O285 O 0.40014 0.10493 0.2472 0.0
Mg286 Mg 0.36194 0.10092 0.52305 0.0
C287 C 0.35125 0.11422 0.47684 0.0
O288 O 0.32257 0.10058 0.481 0.0
C289 C 0.37327 0.10288 0.57011 0.0
O290 O 0.35912 0.08277 0.56587 0.0
C291 C 0.42754 0.07059 0.52584 0.0
O292 O 0.44156 0.09078 0.52986 0.0
O293 O 0.39204 0.06877 0.52185 0.0
O294 O 0.37471 0.1186 0.49228 0.0
O295 O 0.30006 0.09941 0.52535 0.0
C296 C 0.28458 0.11886 0.52469 0.0
O297 O 0.3067 0.13673 0.52306 0.0
O298 O 0.3793 0.11627 0.55404 0.0
Mg299 Mg 0.41671 0.65733 0.52258 0.0
C300 C 0.37058 0.6453 0.4819 0.0
O301 O 0.34789 0.66071 0.49022 0.0
C302 C 0.41454 0.65341 0.57013 0.0
O303 O 0.43166 0.67272 0.56597 0.0
C304 C 0.35488 0.68981 0.53235 0.0
O305 O 0.34249 0.67083 0.54106 0.0
O306 O 0.3874 0.68993 0.52303 0.0
O307 O 0.39986 0.63934 0.49278 0.0
O308 O 0.47871 0.6583 0.5215 0.0
C309 C 0.49354 0.63898 0.51814 0.0
O310 O 0.47079 0.62153 0.51541 0.0
O311 O 0.40358 0.64138 0.55394 0.0
Mg312 Mg 0.66867 0.84986 0.27488 0.0
C313 C 0.67069 0.87698 0.23185 0.0
O314 O 0.70547 0.8817 0.23841 0.0
C315 C 0.66009 0.85276 0.32216 0.0
O316 O 0.67587 0.83304 0.31824 0.0
C317 C 0.62719 0.8075 0.25909 0.0
O318 O 0.63393 0.81649 0.23968 0.0
O319 O 0.64085 0.81692 0.27619 0.0
O320 O 0.64869 0.86598 0.24464 0.0
O321 O 0.73083 0.84954 0.2754 0.0
C322 C 0.75188 0.84328 0.2595 0.0
O323 O 0.73595 0.83462 0.24182 0.0
O324 O 0.65224 0.86548 0.30584 0.0
Mg325 Mg 0.61123 0.40202 0.26658 0.0
C326 C 0.6053 0.38856 0.2204 0.0
O327 O 0.57609 0.40201 0.22365 0.0
C328 C 0.6349 0.40267 0.31294 0.0
O329 O 0.62683 0.42389 0.30858 0.0
C330 C 0.67491 0.433 0.26173 0.0
O331 O 0.68947 0.41256 0.26104 0.0
O332 O 0.63891 0.43496 0.26364 0.0
O333 O 0.62689 0.38402 0.23667 0.0
O334 O 0.54918 0.40006 0.26834 0.0
C335 C 0.53769 0.37991 0.2717 0.0
O336 O 0.56337 0.36398 0.2743 0.0
O337 O 0.63191 0.38816 0.29756 0.0
Mg338 Mg 0.68077 0.40421 1.0188 0.0
C339 C 0.68627 0.38506 0.06377 0.0
O340 O 0.7201 0.39406 0.06075 0.0
C341 C 0.67603 0.40472 0.9718 0.0
O342 O 0.69509 0.42282 0.97788 0.0
C343 C 0.63724 0.44454 0.03723 0.0
O344 O 0.63982 0.43282 0.05556 0.0
O345 O 0.65424 0.43748 1.02008 0.0
O346 O 0.66253 0.38545 0.0479 0.0
O347 O 0.74301 0.40307 1.01759 0.0
C348 C 0.75593 0.3847 1.00965 0.0
O349 O 0.73154 0.36927 1.00299 0.0
O350 O 0.66338 0.39158 0.98673 0.0
Mg351 Mg 0.61965 0.84696 0.0244 0.0
C352 C 0.61695 0.85401 0.07138 0.0
O353 O 0.59607 0.83606 0.0672 0.0
C354 C 0.63113 0.84878 0.97742 0.0
O355 O 0.61752 0.82857 0.98183 0.0
C356 C 0.68491 0.81656 0.03006 0.0
O357 O 0.69866 0.83668 0.03467 0.0
O358 O 0.64965 0.81478 0.0254 0.0
O359 O 0.63271 0.86413 0.05526 0.0
O360 O 0.55769 0.8455 0.02275 0.0
C361 C 0.5426 0.86463 1.01872 0.0
O362 O 0.56512 0.88215 1.01583 0.0
O363 O 0.6369 0.86231 0.99339 0.0
Mg364 Mg 0.36186 0.15213 0.77643 0.0
C365 C 0.35335 0.13711 0.82267 0.0
O366 O 0.32208 0.1487 0.81905 0.0
C367 C 0.37216 0.15042 0.72919 0.0
O368 O 0.35768 0.17041 0.73349 0.0
C369 C 0.42778 0.18221 0.77342 0.0
O370 O 0.44107 0.16202 0.76877 0.0
O371 O 0.39244 0.1842 0.77777 0.0
O372 O 0.37666 0.13438 0.80682 0.0
O373 O 0.29985 0.15348 0.77474 0.0
C374 C 0.28451 0.13403 0.7731 0.0
O375 O 0.3068 0.11622 0.77234 0.0
O376 O 0.37865 0.13708 0.74523 0.0
Mg377 Mg 0.42148 0.60169 0.77563 0.0
C378 C 0.43304 0.62426 0.81992 0.0
O379 O 0.46846 0.61889 0.81544 0.0
C380 C 0.40731 0.60316 0.72853 0.0
O381 O 0.41831 0.58236 0.73266 0.0
C382 C 0.35467 0.57335 0.78392 0.0
O383 O 0.34412 0.59392 0.78931 0.0
O384 O 0.38881 0.57026 0.7775 0.0
O385 O 0.40731 0.62037 0.80561 0.0
O386 O 0.48353 0.59972 0.77349 0.0
C387 C 0.49889 0.61871 0.76902 0.0
O388 O 0.47658 0.63621 0.76572 0.0
O389 O 0.40433 0.61687 0.74458 0.0
Mg390 Mg 0.37516 0.59801 0.0228 0.0
C391 C 0.36942 0.62476 0.97987 0.0
O392 O 0.33313 0.62473 0.98509 0.0
C393 C 0.38964 0.59991 0.07047 0.0
O394 O 0.38339 0.57836 0.06674 0.0
C395 C 0.4425 0.5697 0.02803 0.0
O396 O 0.45374 0.5903 0.03285 0.0
O397 O 0.40788 0.56661 0.02242 0.0
O398 O 0.39338 0.61623 0.99326 0.0
O399 O 0.31301 0.59586 0.02256 0.0
C400 C 0.29702 0.61421 0.02846 0.0
O401 O 0.31874 0.63127 0.03438 0.0
O402 O 0.38887 0.61364 0.0543 0.0
Mg403 Mg 0.42155 0.15214 0.02796 0.0
C404 C 0.42364 0.1424 0.98104 0.0
O405 O 0.4498 0.15794 0.98439 0.0
C406 C 0.42044 0.12399 0.07109 0.0
O407 O 0.45009 0.11355 0.06276 0.0
C408 C 0.35739 0.18256 0.03246 0.0
O409 O 0.34466 0.16234 0.03762 0.0
O410 O 0.39219 0.18464 0.02682 0.0
O411 O 0.40484 0.13515 0.99755 0.0
O412 O 0.48385 0.15243 0.0285 0.0
C413 C 0.49942 0.13401 0.02246 0.0
O414 O 0.47739 0.11715 1.01636 0.0
O415 O 0.40278 0.13849 0.05951 0.0
H416 H 0.12594 0.38648 0.2047 0.0
H417 H 0.21314 0.3405 0.18223 0.0
H418 H 0.11267 0.39708 0.16646 0.0
H419 H 0.19933 0.3505 0.14442 0.0
H420 H 0.18405 0.37766 0.0777 0.0
H421 H 0.20221 0.3787 0.11645 0.0
H422 H 0.08335 0.37955 0.13496 0.0
H423 H 0.06529 0.37934 0.09633 0.0
C424 C 0.14243 0.37877 0.19166 0.0
C425 C 0.17039 0.36253 0.19652 0.0
C426 C 0.13475 0.38477 0.16975 0.0
C427 C 0.15492 0.37467 0.1523 0.0
C428 C 0.18366 0.35897 0.15735 0.0
C429 C 0.19133 0.35304 0.17912 0.0
C430 C 0.16182 0.3786 0.09003 0.0
C431 C 0.12322 0.37806 0.08391 0.0
C432 C 0.17221 0.37903 0.11227 0.0
C433 C 0.14424 0.37875 0.12888 0.0
C434 C 0.10569 0.37988 0.12268 0.0
C435 C 0.09531 0.37962 0.10045 0.0
H436 H 0.233 0.88425 0.10185 0.0
H437 H 0.1166 0.87441 0.08064 0.0
H438 H 0.21318 0.88089 0.14005 0.0
H439 H 0.09685 0.87047 0.11901 0.0
H440 H 0.16993 0.86632 0.20843 0.0
H441 H 0.18714 0.85845 0.17009 0.0
H442 H 0.09116 0.89814 0.14802 0.0
H443 H 0.07375 0.90557 0.18593 0.0
C444 C 0.20326 0.88086 0.10531 0.0
C445 C 0.17628 0.87998 0.08818 0.0
C446 C 0.19194 0.87876 0.12727 0.0
C447 C 0.15334 0.87569 0.13265 0.0
C448 C 0.12673 0.87324 0.11544 0.0
C449 C 0.13807 0.87536 0.09343 0.0
C450 C 0.15227 0.87305 0.19535 0.0
C451 C 0.12072 0.88675 0.20023 0.0
C452 C 0.16218 0.86863 0.1734 0.0
C453 C 0.14057 0.87769 0.15595 0.0
C454 C 0.10816 0.89059 0.16097 0.0
C455 C 0.0984 0.89506 0.18279 0.0
H456 H 0.97971 0.63624 0.82882 0.0
H457 H 0.85814 0.62878 0.83745 0.0
H458 H 0.98847 0.63418 0.86858 0.0
H459 H 0.8668 0.62744 0.87722 0.0
H460 H 0.89609 0.618 0.94985 0.0
H461 H 0.89151 0.60935 0.91041 0.0
H462 H 0.97466 0.66141 0.8966 0.0
H463 H 0.97975 0.66961 0.93549 0.0
C464 C 0.9549 0.63383 0.83916 0.0
C465 C 0.9182 0.63305 0.82995 0.0
C466 C 0.95987 0.63278 0.86198 0.0
C467 C 0.92826 0.63113 0.87615 0.0
C468 C 0.8918 0.62865 0.86685 0.0
C469 C 0.88684 0.62953 0.84399 0.0
C470 C 0.91361 0.62738 0.93834 0.0
C471 C 0.93813 0.64456 0.94582 0.0
C472 C 0.91092 0.62249 0.91577 0.0
C473 C 0.93288 0.63459 0.90031 0.0
C474 C 0.95788 0.6514 0.90798 0.0
C475 C 0.96049 0.65629 0.93037 0.0
H476 H 0.84121 0.13103 0.95372 0.0
H477 H 0.95642 0.10737 0.94413 0.0
H478 H 0.83437 0.13626 0.91401 0.0
H479 H 0.94948 0.1126 0.9045 0.0
H480 H 0.93362 0.13386 0.83416 0.0
H481 H 0.93917 0.1401 0.87377 0.0
H482 H 0.83013 0.10777 0.88366 0.0
H483 H 0.82447 0.10153 0.84411 0.0
C484 C 0.86537 0.12741 0.94322 0.0
C485 C 0.89928 0.11856 0.95209 0.0
C486 C 0.86132 0.13029 0.92046 0.0
C487 C 0.89124 0.12466 0.90611 0.0
C488 C 0.92597 0.11724 0.91511 0.0
C489 C 0.9299 0.11414 0.93784 0.0
C490 C 0.91042 0.12851 0.84471 0.0
C491 C 0.87873 0.11698 0.83597 0.0
C492 C 0.91375 0.13198 0.86743 0.0
C493 C 0.88526 0.12426 0.88186 0.0
C494 C 0.85245 0.11407 0.87298 0.0
C495 C 0.84929 0.11039 0.85029 0.0
H496 H 0.12939 0.89534 0.70693 0.0
H497 H 0.21305 0.848 0.68275 0.0
H498 H 0.11579 0.90704 0.66904 0.0
H499 H 0.19873 0.85894 0.6453 0.0
H500 H 0.18203 0.88584 0.57892 0.0
H501 H 0.20211 0.88652 0.61736 0.0
H502 H 0.08445 0.89174 0.63768 0.0
H503 H 0.06466 0.89208 0.59938 0.0
C504 C 0.14502 0.88754 0.69358 0.0
C505 C 0.17209 0.87062 0.69788 0.0
C506 C 0.13714 0.89417 0.67185 0.0
C507 C 0.15612 0.88396 0.654 0.0
C508 C 0.184 0.86756 0.6585 0.0
C509 C 0.19196 0.86106 0.6801 0.0
C510 C 0.16056 0.88772 0.59158 0.0
C511 C 0.12171 0.88853 0.58606 0.0
C512 C 0.17201 0.88791 0.61366 0.0
C513 C 0.14486 0.88863 0.63073 0.0
C514 C 0.10625 0.89125 0.62509 0.0
C515 C 0.09485 0.89132 0.60302 0.0
H516 H 0.22751 0.39458 0.59684 0.0
H517 H 0.11242 0.37764 0.57758 0.0
H518 H 0.21001 0.39079 0.63537 0.0
H519 H 0.09505 0.37331 0.61632 0.0
H520 H 0.17271 0.37588 0.70456 0.0
H521 H 0.18883 0.36745 0.66617 0.0
H522 H 0.08647 0.40152 0.64475 0.0
H523 H 0.07019 0.4095 0.68273 0.0
C524 C 0.19863 0.38956 0.60081 0.0
C525 C 0.17118 0.3868 0.58414 0.0
C526 C 0.18868 0.38719 0.62296 0.0
C527 C 0.15102 0.382 0.62896 0.0
C528 C 0.12418 0.3777 0.61223 0.0
C529 C 0.13416 0.38006 0.59003 0.0
C530 C 0.15343 0.38121 0.69163 0.0
C531 C 0.12044 0.39359 0.69666 0.0
C532 C 0.1627 0.37647 0.66966 0.0
C533 C 0.13899 0.38387 0.65237 0.0
C534 C 0.10513 0.39528 0.6576 0.0
C535 C 0.09601 0.40009 0.67943 0.0
H536 H 0.85202 0.12361 0.34118 0.0
H537 H 0.97455 0.1245 0.33441 0.0
H538 H 0.85859 0.12273 0.38109 0.0
H539 H 0.98112 0.12286 0.37434 0.0
H540 H 0.97414 0.1611 0.43994 0.0
H541 H 0.97034 0.15141 0.40136 0.0
H542 H 0.87871 0.10465 0.41526 0.0
H543 H 0.88204 0.11488 0.4544 0.0
C544 C 0.88039 0.12299 0.34817 0.0
C545 C 0.91278 0.12457 0.33458 0.0
C546 C 0.88415 0.12237 0.37111 0.0
C547 C 0.92038 0.12315 0.38098 0.0
C548 C 0.95276 0.1228 0.3673 0.0
C549 C 0.94901 0.12361 0.34438 0.0
C550 C 0.95329 0.1486 0.43492 0.0
C551 C 0.92815 0.13891 0.45028 0.0
C552 C 0.95142 0.14283 0.41271 0.0
C553 C 0.92436 0.12714 0.40512 0.0
C554 C 0.89975 0.11691 0.42054 0.0
C555 C 0.90173 0.12268 0.44296 0.0
H556 H 0.80756 0.62267 0.32914 0.0
H557 H 0.92988 0.62421 0.33719 0.0
H558 H 0.7998 0.62487 0.36896 0.0
H559 H 0.92211 0.6257 0.377 0.0
H560 H 0.89602 0.63562 0.44978 0.0
H561 H 0.90053 0.64468 0.41041 0.0
H562 H 0.81039 0.59684 0.39679 0.0
H563 H 0.80544 0.58825 0.43561 0.0
C564 C 0.8328 0.62381 0.33936 0.0
C565 C 0.86932 0.62288 0.32997 0.0
C566 C 0.82836 0.62494 0.36222 0.0
C567 C 0.86034 0.62499 0.37623 0.0
C568 C 0.89685 0.62576 0.36675 0.0
C569 C 0.90128 0.62478 0.34387 0.0
C570 C 0.87694 0.62729 0.43834 0.0
C571 C 0.85056 0.61112 0.44583 0.0
C572 C 0.87959 0.63241 0.4158 0.0
C573 C 0.85571 0.62156 0.4004 0.0
C574 C 0.82875 0.60587 0.40812 0.0
C575 C 0.82621 0.60075 0.43047 0.0
H576 H 0.54379 0.35095 0.59399 0.0
H577 H 0.65865 0.37477 0.58287 0.0
H578 H 0.55442 0.35214 0.63354 0.0
H579 H 0.66925 0.37589 0.62284 0.0
H580 H 0.66211 0.38465 0.69983 0.0
H581 H 0.64643 0.39274 0.66105 0.0
H582 H 0.59848 0.32582 0.65459 0.0
H583 H 0.61426 0.31775 0.69275 0.0
C584 C 0.57116 0.3568 0.59999 0.0
C585 C 0.60062 0.36238 0.58528 0.0
C586 C 0.57719 0.35748 0.62267 0.0
C587 C 0.6128 0.36378 0.63122 0.0
C588 C 0.64147 0.37102 0.61665 0.0
C589 C 0.63544 0.37031 0.5938 0.0
C590 C 0.64778 0.37186 0.69011 0.0
C591 C 0.63937 0.35058 0.69926 0.0
C592 C 0.63908 0.37643 0.66796 0.0
C593 C 0.62109 0.35995 0.65489 0.0
C594 C 0.61191 0.33895 0.66432 0.0
C595 C 0.62113 0.33429 0.68616 0.0
H596 H 0.59902 0.86265 0.70444 0.0
H597 H 0.71957 0.87739 0.70216 0.0
H598 H 0.59935 0.85527 0.66487 0.0
H599 H 0.71978 0.87013 0.66266 0.0
H600 H 0.71436 0.84474 0.59297 0.0
H601 H 0.71072 0.84159 0.63305 0.0
H602 H 0.60713 0.88086 0.63271 0.0
H603 H 0.6106 0.88393 0.59275 0.0
C604 C 0.62573 0.8639 0.69561 0.0
C605 C 0.65923 0.87079 0.70646 0.0
C606 C 0.62585 0.8598 0.6729 0.0
C607 C 0.65951 0.86226 0.66058 0.0
C608 C 0.69342 0.86788 0.67167 0.0
C609 C 0.69325 0.87217 0.69432 0.0
C610 C 0.69034 0.85227 0.60139 0.0
C611 C 0.66291 0.86473 0.58965 0.0
C612 C 0.68843 0.8506 0.62438 0.0
C613 C 0.65882 0.86112 0.63609 0.0
C614 C 0.63016 0.8724 0.62421 0.0
C615 C 0.63225 0.87425 0.60128 0.0
H616 H 0.2917 0.61969 0.34807 0.0
H617 H 0.41065 0.63782 0.34292 0.0
H618 H 0.29778 0.6173 0.38792 0.0
H619 H 0.41656 0.63582 0.38298 0.0
H620 H 0.41963 0.62051 0.45633 0.0
H621 H 0.41428 0.61285 0.41687 0.0
H622 H 0.30506 0.64638 0.4157 0.0
H623 H 0.3101 0.65372 0.45495 0.0
C624 C 0.31932 0.62288 0.35542 0.0
C625 C 0.35058 0.62924 0.34232 0.0
C626 C 0.32274 0.62161 0.3783 0.0
C627 C 0.35747 0.62674 0.38869 0.0
C628 C 0.38942 0.63166 0.37551 0.0
C629 C 0.38603 0.63287 0.35254 0.0
C630 C 0.39417 0.62587 0.4477 0.0
C631 C 0.36534 0.63782 0.45879 0.0
C632 C 0.39126 0.62162 0.42506 0.0
C633 C 0.35933 0.62906 0.41309 0.0
C634 C 0.32984 0.64014 0.42442 0.0
C635 C 0.33282 0.64448 0.44696 0.0
H636 H 0.29952 0.11428 0.4436 0.0
H637 H 0.41612 0.13224 0.45831 0.0
H638 H 0.31041 0.12204 0.40486 0.0
H639 H 0.42701 0.14039 0.41922 0.0
H640 H 0.44005 0.11216 0.3473 0.0
H641 H 0.43181 0.11592 0.38685 0.0
H642 H 0.32438 0.14978 0.37626 0.0
H643 H 0.33234 0.14564 0.33645 0.0
C644 C 0.32738 0.12028 0.4386 0.0
C645 C 0.35711 0.12237 0.454 0.0
C646 C 0.33352 0.12495 0.41635 0.0
C647 C 0.36963 0.13175 0.40887 0.0
C648 C 0.39894 0.13495 0.42443 0.0
C649 C 0.39269 0.13041 0.44682 0.0
C650 C 0.41488 0.12072 0.35335 0.0
C651 C 0.38655 0.12829 0.3387 0.0
C652 C 0.41034 0.12306 0.37608 0.0
C653 C 0.37729 0.13299 0.38477 0.0
C654 C 0.34995 0.14177 0.37009 0.0
C655 C 0.35459 0.13951 0.34727 0.0
H656 H 0.71699 0.88837 0.19731 0.0
H657 H 0.60013 0.87226 0.21324 0.0
H658 H 0.70188 0.88632 0.1582 0.0
H659 H 0.58465 0.87103 0.17414 0.0
H660 H 0.58726 0.83447 0.10803 0.0
H661 H 0.598 0.84432 0.14616 0.0
H662 H 0.66924 0.90027 0.12596 0.0
H663 H 0.6592 0.88986 0.0873 0.0
C664 C 0.68782 0.88499 0.19248 0.0
C665 C 0.65987 0.88016 0.20842 0.0
C666 C 0.67911 0.88389 0.17 0.0
C667 C 0.64218 0.87811 0.16294 0.0
C668 C 0.61365 0.87494 0.17895 0.0
C669 C 0.62243 0.87582 0.2014 0.0
C670 C 0.60507 0.84898 0.11159 0.0
C671 C 0.62248 0.86132 0.09454 0.0
C672 C 0.61094 0.85479 0.13358 0.0
C673 C 0.63426 0.87323 0.13926 0.0
C674 C 0.65131 0.88587 0.1222 0.0
C675 C 0.64546 0.87998 0.10005 0.0
H676 H 0.61608 0.37017 0.07774 0.0
H677 H 0.72999 0.38465 0.10083 0.0
H678 H 0.59524 0.36465 0.11575 0.0
H679 H 0.70905 0.38 0.13859 0.0
H680 H 0.56443 0.39649 0.18312 0.0
H681 H 0.5834 0.3899 0.14534 0.0
H682 H 0.6862 0.35712 0.16805 0.0
H683 H 0.66762 0.3645 0.20617 0.0
C684 C 0.63678 0.37187 0.09087 0.0
C685 C 0.67456 0.37815 0.08625 0.0
C686 C 0.62481 0.36887 0.11268 0.0
C687 C 0.65031 0.37218 0.13033 0.0
C688 C 0.68862 0.37708 0.12552 0.0
C689 C 0.70059 0.37995 0.10378 0.0
C690 C 0.59089 0.38762 0.18014 0.0
C691 C 0.61478 0.38132 0.1977 0.0
C692 C 0.60163 0.38362 0.15837 0.0
C693 C 0.6365 0.37308 0.15353 0.0
C694 C 0.65944 0.36562 0.17115 0.0
C695 C 0.64872 0.36972 0.19301 0.0
H696 H 0.30715 0.13835 0.85863 0.0
H697 H 0.42152 0.12106 0.83859 0.0
H698 H 0.32519 0.13398 0.897 0.0
H699 H 0.43947 0.11615 0.87723 0.0
H700 H 0.36226 0.11788 0.96584 0.0
H701 H 0.34577 0.11019 0.92734 0.0
H702 H 0.44945 0.14329 0.90641 0.0
H703 H 0.46609 0.15051 0.94451 0.0
C704 C 0.33601 0.13314 0.86239 0.0
C705 C 0.36307 0.1304 0.84553 0.0
C706 C 0.34627 0.13044 0.88447 0.0
C707 C 0.38389 0.12493 0.89027 0.0
C708 C 0.41037 0.12076 0.87333 0.0
C709 C 0.40006 0.12343 0.85118 0.0
C710 C 0.38178 0.12312 0.95299 0.0
C711 C 0.41524 0.13504 0.95822 0.0
C712 C 0.37228 0.11882 0.93094 0.0
C713 C 0.39619 0.12622 0.91373 0.0
C714 C 0.43056 0.13708 0.91915 0.0
C715 C 0.43992 0.14144 0.94108 0.0
H716 H 0.36275 0.62343 0.83945 0.0
H717 H 0.48066 0.64007 0.8519 0.0
H718 H 0.3486 0.62813 0.87842 0.0
H719 H 0.46634 0.64561 0.89077 0.0
H720 H 0.43786 0.61695 0.95974 0.0
H721 H 0.45297 0.62151 0.92093 0.0
H722 H 0.34257 0.65176 0.9098 0.0
H723 H 0.327 0.64643 0.94857 0.0
C724 C 0.38545 0.62869 0.85041 0.0
C725 C 0.4229 0.63113 0.84262 0.0
C726 C 0.37733 0.63148 0.87281 0.0
C727 C 0.40643 0.637 0.88789 0.0
C728 C 0.44339 0.64084 0.87977 0.0
C729 C 0.45157 0.63783 0.85744 0.0
C730 C 0.41706 0.62493 0.94911 0.0
C731 C 0.38108 0.6311 0.95723 0.0
C732 C 0.42576 0.62766 0.92679 0.0
C733 C 0.39885 0.63684 0.91207 0.0
C734 C 0.36369 0.64421 0.92051 0.0
C735 C 0.35488 0.6413 0.9428 0.0
H736 H 0.91669 0.22248 0.28278 0.0
H737 H 0.99942 0.18308 0.24686 0.0
H738 H 0.9609 0.25445 0.28318 0.0
H739 H 0.04301 0.21503 0.2468 0.0
H740 H 0.12719 0.2695 0.26917 0.0
H741 H 0.08359 0.23722 0.27038 0.0
H742 H 0.9885 0.28197 0.25876 0.0
H743 H 0.03169 0.31407 0.25807 0.0
C744 C 0.94417 0.22067 0.27488 0.0
C745 C 0.95444 0.20021 0.26479 0.0
C746 C 0.9695 0.23902 0.27503 0.0
C747 C 1.00564 0.23734 0.26505 0.0
C748 C 1.01576 0.21686 0.25497 0.0
C749 C 0.99054 0.19855 0.25486 0.0
C750 C 0.09699 0.2724 0.26685 0.0
C751 C 0.083 0.29437 0.26352 0.0
C752 C 0.07196 0.2539 0.26747 0.0
C753 C 0.03241 0.25697 0.26474 0.0
C754 C 1.01861 0.27897 0.26132 0.0
C755 C 0.04353 0.29739 0.26075 0.0
H756 H 0.17886 0.96526 0.32317 0.0
H757 H 0.18875 0.95879 0.25253 0.0
H758 H 0.22967 0.99342 0.32309 0.0
H759 H 0.23978 0.98704 0.25252 0.0
H760 H 0.35824 0.01996 0.26656 0.0
H761 H 0.30812 0.99093 0.26663 0.0
H762 H 0.23969 0.0327 0.30932 0.0
H763 H 0.28926 0.06148 0.30925 0.0
C764 C 0.19164 0.96998 0.30759 0.0
C765 C 0.17958 0.95982 0.28785 0.0
C766 C 0.22079 0.98612 0.30756 0.0
C767 C 0.23891 0.99236 0.28782 0.0
C768 C 0.22668 0.98237 0.26802 0.0
C769 C 0.19716 0.96639 0.26802 0.0
C770 C 0.33263 0.02279 0.2761 0.0
C771 C 0.32774 0.04301 0.28789 0.0
C772 C 0.30382 0.00629 0.27599 0.0
C773 C 0.2699 0.00957 0.28794 0.0
C774 C 0.26554 0.02958 0.30008 0.0
C775 C 0.29397 0.04611 0.29996 0.0
H776 H 0.13024 0.97937 1.01716 0.0
H777 H 0.03618 0.93365 0.02861 0.0
H778 H 0.08591 0.01118 1.0167 0.0
H779 H 0.99223 0.96533 0.02873 0.0
H780 H 0.91843 0.0244 1.00611 0.0
H781 H 0.96318 0.99283 1.00504 0.0
H782 H 0.0458 0.03274 0.04079 0.0
H783 H 1.00167 0.06433 0.04134 0.0
C784 C 0.10019 0.97612 1.01971 0.0
C785 C 0.08681 0.95396 0.02291 0.0
C786 C 0.07475 0.99435 1.01954 0.0
C787 C 0.03538 0.99085 0.02264 0.0
C788 C 0.02217 0.96867 0.02591 0.0
C789 C 0.04752 0.95048 0.02601 0.0
C790 C 0.94615 0.0264 1.01373 0.0
C791 C 0.95642 0.0469 0.02379 0.0
C792 C 0.97178 0.00828 1.01321 0.0
C793 C 1.00822 0.01021 0.0228 0.0
C794 C 1.01832 0.03073 0.0329 0.0
C795 C 0.99281 0.04882 0.03336 0.0
H796 H 0.29052 0.18475 0.05465 0.0
H797 H 0.36414 0.22423 1.01247 0.0
H798 H 0.24469 0.21552 0.05546 0.0
H799 H 0.31761 0.25523 1.01318 0.0
H800 H 0.1998 0.29088 1.00007 0.0
H801 H 0.24835 0.26125 0.99942 0.0
H802 H 0.24149 0.25553 0.07018 0.0
H803 H 0.19324 0.2852 0.07093 0.0
C804 C 0.29699 0.20006 0.04557 0.0
C805 C 0.33098 0.20205 0.03346 0.0
C806 C 0.27075 0.21772 0.04614 0.0
C807 C 0.27754 0.23776 0.03439 0.0
C808 C 0.31157 0.23988 0.02229 0.0
C809 C 0.33826 0.22224 0.02199 0.0
C810 C 0.20849 0.28321 1.01548 0.0
C811 C 0.1925 0.29032 0.03556 0.0
C812 C 0.23657 0.26642 1.0151 0.0
C813 C 0.2488 0.25616 0.03475 0.0
C814 C 0.23249 0.26308 0.05477 0.0
C815 C 0.20486 0.28007 0.05519 0.0
H816 H 0.98359 0.69468 0.72753 0.0
H817 H 0.93384 0.72329 0.78625 0.0
H818 H 0.03045 0.7251 0.72657 0.0
H819 H 0.98145 0.7538 0.78539 0.0
H820 H 0.10361 0.78752 0.78709 0.0
H821 H 0.05638 0.75692 0.78899 0.0
H822 H 0.02777 0.76808 0.7207 0.0
H823 H 0.07432 0.79869 0.71883 0.0
C824 C 0.98262 0.7075 0.74024 0.0
C825 C 0.95493 0.70662 0.75694 0.0
C826 C 1.00944 0.72494 0.73964 0.0
C827 C 1.00966 0.74175 0.75593 0.0
C828 C 0.98207 0.74092 0.77272 0.0
C829 C 0.95468 0.72362 0.7731 0.0
C830 C 0.08746 0.78327 0.77246 0.0
C831 C 0.09276 0.79546 0.75279 0.0
C832 C 0.0602 0.76594 0.77362 0.0
C833 C 0.03834 0.76022 0.75502 0.0
C834 C 0.0443 0.77208 0.73527 0.0
C835 C 0.07096 0.78961 0.73422 0.0
H836 H 0.7595 0.92898 0.78112 0.0
H837 H 0.66388 0.9716 0.76451 0.0
H838 H 0.80232 0.96107 0.77761 0.0
H839 H 0.70665 0.00406 0.76177 0.0
H840 H 0.79721 0.0521 0.73582 0.0
H841 H 0.75508 0.01964 0.73918 0.0
H842 H 0.82149 0.99539 0.79433 0.0
H843 H 0.86454 0.0276 0.7904 0.0
C844 C 0.74752 0.94528 0.77691 0.0
C845 C 0.70822 0.9477 0.77305 0.0
C846 C 0.77213 0.96376 0.77503 0.0
C847 C 0.7581 0.98525 0.76942 0.0
C848 C 0.71865 0.98772 0.76576 0.0
C849 C 0.69403 0.96914 0.76746 0.0
C850 C 0.80296 0.03979 0.74862 0.0
C851 C 0.83429 0.04243 0.76283 0.0
C852 C 0.77854 0.02124 0.75067 0.0
C853 C 0.78456 0.0049 0.76714 0.0
C854 C 0.81616 0.00746 0.78126 0.0
C855 C 0.84084 0.02596 0.77907 0.0
H856 H 0.75906 0.81474 0.04327 0.0
H857 H 0.66986 0.77389 1.01455 0.0
H858 H 0.80299 0.78312 0.04069 0.0
H859 H 0.71424 0.74233 1.01134 0.0
H860 H 0.79214 0.68374 0.02995 0.0
H861 H 0.74815 0.71523 0.03282 0.0
H862 H 0.83839 0.76138 1.0146 0.0
H863 H 0.8829 0.72974 1.01238 0.0
C864 C 0.74881 0.799 0.03634 0.0
C865 C 0.71088 0.79684 0.02914 0.0
C866 C 0.77417 0.7809 0.03469 0.0
C867 C 0.76235 0.76016 0.02569 0.0
C868 C 0.72427 0.75795 1.01862 0.0
C869 C 0.6988 0.77606 0.02039 0.0
C870 C 0.8027 0.7006 0.02653 0.0
C871 C 0.84112 0.70421 0.02094 0.0
C872 C 0.77731 0.71868 0.02804 0.0
C873 C 0.78956 0.7409 0.02388 0.0
C874 C 0.82803 0.74453 1.01821 0.0
C875 C 0.85355 0.72639 1.01681 0.0
H876 H 0.28625 0.5734 0.80479 0.0
H877 H 0.35822 0.5316 0.76404 0.0
H878 H 0.23711 0.54436 0.80431 0.0
H879 H 0.30858 0.50232 0.76358 0.0
H880 H 0.19128 0.46836 0.74849 0.0
H881 H 0.24112 0.49737 0.74853 0.0
H882 H 0.22767 0.50532 0.81876 0.0
H883 H 0.17805 0.47644 0.81878 0.0
C884 C 0.29169 0.55793 0.79579 0.0
C885 C 0.32622 0.5548 0.78447 0.0
C886 C 0.26351 0.54126 0.79559 0.0
C887 C 0.2689 0.52107 0.78388 0.0
C888 C 0.30348 0.51781 0.77259 0.0
C889 C 0.33201 0.53446 0.77301 0.0
C890 C 0.19869 0.47647 0.7639 0.0
C891 C 0.18057 0.47013 0.78363 0.0
C892 C 0.22752 0.4929 0.76394 0.0
C893 C 0.23845 0.50354 0.78366 0.0
C894 C 0.21975 0.49753 0.80328 0.0
C895 C 0.19131 0.48096 0.80328 0.0
H896 H 0.99108 0.57107 0.54581 0.0
H897 H 0.92214 0.52833 0.50403 0.0
H898 H 0.03956 0.54176 0.54782 0.0
H899 H 0.97122 0.49886 0.50597 0.0
H900 H 0.09055 0.46545 0.49504 0.0
H901 H 0.04091 0.49436 0.49304 0.0
H902 H 0.0457 0.50228 0.56365 0.0
H903 H 0.09506 0.47331 0.56575 0.0
C904 C 0.98622 0.55538 0.53706 0.0
C905 C 0.95276 0.55203 0.52473 0.0
C906 C 1.01398 0.53856 0.53832 0.0
C907 C 1.00922 0.51806 0.52703 0.0
C908 C 0.97574 0.5146 0.5147 0.0
C909 C 0.94758 0.53137 0.51371 0.0
C910 C 0.08124 0.47349 0.51013 0.0
C911 C 0.09686 0.46713 0.53056 0.0
C912 C 0.05255 0.48986 0.50898 0.0
C913 C 0.03931 0.50047 0.52819 0.0
C914 C 0.05545 0.49444 0.54856 0.0
C915 C 0.08372 0.47785 0.54975 0.0
H916 H 0.28697 0.69479 0.55346 0.0
H917 H 0.36589 0.73043 0.51125 0.0
H918 H 0.24417 0.72702 0.55271 0.0
H919 H 0.32244 0.76265 0.51006 0.0
H920 H 0.25354 0.82445 0.53088 0.0
H921 H 0.29699 0.79253 0.53248 0.0
H922 H 0.20145 0.74656 0.5283 0.0
H923 H 0.15775 0.77864 0.52724 0.0
C924 C 0.2952 0.70951 0.54396 0.0
C925 C 0.3299 0.71001 0.53239 0.0
C926 C 0.27044 0.72796 0.5434 0.0
C927 C 0.27963 0.74741 0.53121 0.0
C928 C 0.31459 0.74803 0.51981 0.0
C929 C 0.33948 0.72954 0.52042 0.0
C930 C 0.2417 0.80754 0.53035 0.0
C931 C 0.2021 0.80411 0.52895 0.0
C932 C 0.26672 0.78921 0.53111 0.0
C933 C 0.25284 0.76693 0.53044 0.0
C934 C 0.21316 0.76349 0.52913 0.0
C935 C 0.18807 0.78187 0.52844 0.0
H936 H 0.78458 0.56389 0.24276 0.0
H937 H 0.86748 0.52467 0.27891 0.0
H938 H 0.74087 0.532 0.24312 0.0
H939 H 0.82317 0.49277 0.27971 0.0
H940 H 0.75175 0.43306 0.25566 0.0
H941 H 0.7951 0.46509 0.25559 0.0
H942 H 0.70051 0.51015 0.26726 0.0
H943 H 0.65674 0.47793 0.26685 0.0
C944 C 0.79348 0.54847 0.25088 0.0
C945 C 0.82965 0.54684 0.26078 0.0
C946 C 0.7682 0.5302 0.25123 0.0
C947 C 0.77833 0.50979 0.26151 0.0
C948 C 0.81456 0.50814 0.27141 0.0
C949 C 0.83995 0.52645 0.27103 0.0
C950 C 0.74005 0.44979 0.25818 0.0
C951 C 0.70068 0.45291 0.26123 0.0
C952 C 0.76506 0.46818 0.25831 0.0
C953 C 0.75144 0.49024 0.26154 0.0
C954 C 0.71198 0.49341 0.26449 0.0
C955 C 0.68686 0.47495 0.26433 0.0
H956 H 0.65925 0.27598 0.50327 0.0
H957 H 0.74112 0.312 0.54324 0.0
H958 H 0.70341 0.24425 0.50039 0.0
H959 H 0.7847 0.28021 0.54083 0.0
H960 H 0.87001 0.22946 0.51396 0.0
H961 H 0.82556 0.26117 0.51507 0.0
H962 H 0.73149 0.21447 0.52185 0.0
H963 H 0.77561 0.18292 0.52015 0.0
C964 C 0.68646 0.27703 0.51163 0.0
C965 C 0.69664 0.29653 0.52346 0.0
C966 C 0.71179 0.25883 0.51002 0.0
C967 C 0.74778 0.2597 0.52027 0.0
C968 C 0.7576 0.2791 0.53236 0.0
C969 C 0.7324 0.29728 0.53389 0.0
C970 C 0.83982 0.22599 0.51556 0.0
C971 C 0.82642 0.20365 0.51699 0.0
C972 C 0.81433 0.24416 0.51635 0.0
C973 C 0.77488 0.2404 0.51864 0.0
C974 C 0.76156 0.21803 0.51979 0.0
C975 C 0.78697 0.1999 0.51895 0.0
H976 H 0.41401 0.22537 0.78809 0.0
H977 H 0.50118 0.18348 0.75903 0.0
H978 H 0.45847 0.25719 0.78879 0.0
H979 H 0.54499 0.21527 0.759 0.0
H980 H 0.62708 0.27052 0.78019 0.0
H981 H 0.58277 0.23869 0.78205 0.0
H982 H 0.48974 0.28329 0.76519 0.0
H983 H 0.53363 0.31503 0.76412 0.0
C984 C 0.44254 0.223 0.78172 0.0
C985 C 0.45401 0.20188 0.77354 0.0
C986 C 0.46804 0.24125 0.78202 0.0
C987 C 0.5055 0.23885 0.77399 0.0
C988 C 0.51674 0.2177 0.76573 0.0
C989 C 0.49141 0.19947 0.76559 0.0
C990 C 0.59715 0.27349 0.77696 0.0
C991 C 0.58394 0.29531 0.77203 0.0
C992 C 0.57171 0.25523 0.77791 0.0
C993 C 0.53253 0.25835 0.77376 0.0
C994 C 0.51949 0.28024 0.76887 0.0
C995 C 0.54481 0.29846 0.7681 0.0
H996 H 0.41093 0.02671 0.51448 0.0
H997 H 0.50205 0.06935 0.53834 0.0
H998 H 0.45382 0.99424 0.51519 0.0
H999 H 0.54438 0.03696 0.53971 0.0
H1000 H 0.62165 0.97877 0.51934 0.0
H1001 H 0.57893 0.01123 0.51712 0.0
H1002 H 0.48584 0.96965 0.54032 0.0
H1003 H 0.52814 0.93721 0.54188 0.0
C1004 C 0.44001 0.02913 0.51997 0.0
C1005 C 0.45303 0.05063 0.52631 0.0
C1006 C 0.4646 0.01051 0.5205 0.0
C1007 C 0.50268 0.01293 0.5275 0.0
C1008 C 0.51553 0.03447 0.53386 0.0
C1009 C 0.49108 0.05306 0.53321 0.0
C1010 C 0.59208 0.97661 0.52401 0.0
C1011 C 0.57834 0.9554 0.53078 0.0
C1012 C 0.56757 0.99523 0.52281 0.0
C1013 C 0.5288 0.9931 0.52849 0.0
C1014 C 0.51527 0.97188 0.53542 0.0
C1015 C 0.53967 0.95328 0.53649 0.0
H1016 H 0.60242 0.77884 0.22681 0.0
H1017 H 0.58953 0.79343 0.29612 0.0
H1018 H 0.55403 0.74922 0.2298 0.0
H1019 H 0.54079 0.76397 0.29896 0.0
H1020 H 0.42412 0.72727 0.28596 0.0
H1021 H 0.47248 0.75722 0.28324 0.0
H1022 H 0.54794 0.71115 0.24975 0.0
H1023 H 0.50027 0.68134 0.25265 0.0
C1024 C 0.58943 0.77565 0.2427 0.0
C1025 C 0.59996 0.78843 0.26124 0.0
C1026 C 0.56173 0.7587 0.24439 0.0
C1027 C 0.54349 0.75441 0.26458 0.0
C1028 C 0.5541 0.76709 0.28315 0.0
C1029 C 0.58227 0.78379 0.28154 0.0
C1030 C 0.45101 0.72361 0.27799 0.0
C1031 C 0.4584 0.70194 0.26959 0.0
C1032 C 0.47872 0.74068 0.27655 0.0
C1033 C 0.51395 0.73648 0.26629 0.0
C1034 C 0.52099 0.71492 0.25762 0.0
C1035 C 0.4937 0.69782 0.25939 0.0
H1036 H 0.60625 0.46343 1.00016 0.0
H1037 H 0.60687 0.4689 0.07112 0.0
H1038 H 0.55783 0.49306 0.99811 0.0
H1039 H 0.55886 0.49872 0.06896 0.0
H1040 H 0.50862 0.56917 0.05121 0.0
H1041 H 0.55586 0.53913 0.05339 0.0
H1042 H 0.48687 0.49758 1.01065 0.0
H1043 H 0.43892 0.52773 1.00864 0.0
C1044 C 0.5964 0.47112 1.0153 0.0
C1045 C 0.61052 0.46387 0.03582 0.0
C1046 C 0.5684 0.48791 1.01411 0.0
C1047 C 0.55445 0.49807 0.03337 0.0
C1048 C 0.56918 0.4912 0.05385 0.0
C1049 C 0.59667 0.47415 0.05507 0.0
C1050 C 0.50336 0.55362 0.0423 0.0
C1051 C 0.47004 0.55082 0.02971 0.0
C1052 C 0.5304 0.53639 0.04366 0.0
C1053 C 0.52508 0.51607 0.03216 0.0
C1054 C 0.49176 0.51318 1.01955 0.0
C1055 C 0.46427 0.53033 1.01851 0.0
H1056 H 0.16822 0.42693 0.42999 0.0
H1057 H 0.12604 0.36333 0.45526 0.0
H1058 H 0.16133 0.41311 0.39265 0.0
H1059 H 0.11792 0.34963 0.41757 0.0
H1060 H 0.1263 0.38866 0.32604 0.0
H1061 H 0.11887 0.40221 0.3638 0.0
H1062 H 0.15897 0.3379 0.38836 0.0
H1063 H 0.16512 0.32422 0.35091 0.0
C1064 C 0.1569 0.41007 0.42757 0.0
C1065 C 0.14803 0.39614 0.44564 0.0
C1066 C 0.1526 0.40221 0.40607 0.0
C1067 C 0.1391 0.38023 0.40203 0.0
C1068 C 0.12891 0.36655 0.4201 0.0
C1069 C 0.13339 0.37441 0.44169 0.0
C1070 C 0.133 0.37735 0.33954 0.0
C1071 C 0.14664 0.35545 0.33546 0.0
C1072 C 0.12894 0.38513 0.36117 0.0
C1073 C 0.13861 0.37121 0.37916 0.0
C1074 C 0.15078 0.34901 0.37499 0.0
C1075 C 0.15463 0.34122 0.35343 0.0
H1076 H 0.06619 0.8425 0.33862 0.0
H1077 H 0.16057 0.88949 0.33883 0.0
H1078 H 0.07448 0.8364 0.37798 0.0
H1079 H 0.16892 0.88327 0.37843 0.0
H1080 H 0.13035 0.88697 0.4531 0.0
H1081 H 0.13117 0.89206 0.41303 0.0
H1082 H 0.12053 0.8199 0.40435 0.0
H1083 H 0.1195 0.81479 0.44405 0.0
C1084 C 0.08906 0.8513 0.34701 0.0
C1085 C 0.11273 0.86645 0.33557 0.0
C1086 C 0.09388 0.84775 0.36958 0.0
C1087 C 0.12231 0.8594 0.38132 0.0
C1088 C 0.14657 0.87421 0.36984 0.0
C1089 C 0.142 0.87759 0.34714 0.0
C1090 C 0.12856 0.87221 0.44262 0.0
C1091 C 0.12447 0.85051 0.4518 0.0
C1092 C 0.12922 0.8751 0.41969 0.0
C1093 C 0.12559 0.85637 0.40555 0.0
C1094 C 0.12281 0.83468 0.41479 0.0
C1095 C 0.12233 0.83178 0.4376 0.0
H1096 H 0.13737 0.8934 0.8297 0.0
H1097 H 0.17742 0.82808 0.85155 0.0
H1098 H 0.13195 0.90551 0.86806 0.0
H1099 H 0.17314 0.84032 0.88958 0.0
H1100 H 0.13921 0.86251 0.95765 0.0
H1101 H 0.13199 0.85046 0.91937 0.0
H1102 H 0.17454 0.91526 0.89738 0.0
H1103 H 0.18061 0.92744 0.93536 0.0
C1104 C 0.14486 0.88161 0.84266 0.0
C1105 C 0.15805 0.85984 0.83754 0.0
C1106 C 0.14195 0.88857 0.86464 0.0
C1107 C 0.15226 0.87392 0.88196 0.0
C1108 C 0.16441 0.85196 0.87676 0.0
C1109 C 0.16718 0.845 0.85486 0.0
C1110 C 0.14663 0.87423 0.94462 0.0
C1111 C 0.1607 0.89587 0.94958 0.0
C1112 C 0.14268 0.8673 0.92267 0.0
C1113 C 0.15283 0.88185 0.90524 0.0
C1114 C 0.1659 0.9037 0.9103 0.0
C1115 C 0.1697 0.91062 0.93216 0.0
H1116 H 0.16819 0.37432 0.82828 0.0
H1117 H 0.06198 0.40418 0.84932 0.0
H1118 H 0.18317 0.36499 0.86663 0.0
H1119 H 0.07664 0.39465 0.88725 0.0
H1120 H 0.12578 0.39382 0.9552 0.0
H1121 H 0.12014 0.40535 0.91674 0.0
H1122 H 0.16073 0.33983 0.89608 0.0
H1123 H 0.16714 0.32846 0.93445 0.0
C1124 C 0.14798 0.37877 0.84103 0.0
C1125 C 0.11392 0.39 0.83574 0.0
C1126 C 0.15656 0.37343 0.86298 0.0
C1127 C 0.13129 0.37931 0.88002 0.0
C1128 C 0.09713 0.39033 0.87461 0.0
C1129 C 0.08856 0.39559 0.85278 0.0
C1130 C 0.13411 0.38201 0.94247 0.0
C1131 C 0.14655 0.36015 0.9479 0.0
C1132 C 0.13061 0.38855 0.92043 0.0
C1133 C 0.13948 0.37338 0.90334 0.0
C1134 C 0.15383 0.35195 0.90881 0.0
C1135 C 0.15731 0.34541 0.93084 0.0
H1136 H 0.89561 0.61375 0.70543 0.0
H1137 H 0.84332 0.6762 0.68428 0.0
H1138 H 0.90146 0.60201 0.66698 0.0
H1139 H 0.84831 0.66431 0.64614 0.0
H1140 H 0.88661 0.64445 0.57777 0.0
H1141 H 0.89174 0.65682 0.61611 0.0
H1142 H 0.85905 0.59002 0.63799 0.0
H1143 H 0.85486 0.57762 0.60002 0.0
C1144 C 0.88541 0.62496 0.69261 0.0
C1145 C 0.86879 0.64583 0.69794 0.0
C1146 C 0.88864 0.61823 0.67058 0.0
C1147 C 0.8753 0.63222 0.65345 0.0
C1148 C 0.85941 0.65326 0.65884 0.0
C1149 C 0.85623 0.65998 0.68079 0.0
C1150 C 0.8809 0.6324 0.5908 0.0
C1151 C 0.8701 0.61011 0.58582 0.0
C1152 C 0.88365 0.63948 0.61276 0.0
C1153 C 0.8757 0.62441 0.63015 0.0
C1154 C 0.8659 0.602 0.62508 0.0
C1155 C 0.86317 0.59495 0.60322 0.0
H1156 H 0.86957 0.10699 0.70118 0.0
H1157 H 0.95891 0.15733 0.70266 0.0
H1158 H 0.8601 0.11421 0.66184 0.0
H1159 H 0.94946 0.16444 0.66353 0.0
H1160 H 0.90106 0.18737 0.59905 0.0
H1161 H 0.90066 0.18034 0.63844 0.0
H1162 H 0.89762 0.10843 0.62648 0.0
H1163 H 0.89783 0.11548 0.58664 0.0
C1164 C 0.88687 0.11977 0.69319 0.0
C1165 C 0.91498 0.13163 0.70506 0.0
C1166 C 0.88163 0.12375 0.67064 0.0
C1167 C 0.90402 0.13987 0.6596 0.0
C1168 C 0.93146 0.15207 0.67162 0.0
C1169 C 0.93697 0.14795 0.69404 0.0
C1170 C 0.89997 0.17002 0.60471 0.0
C1171 C 0.89997 0.15195 0.58966 0.0
C1172 C 0.89986 0.16602 0.62734 0.0
C1173 C 0.89967 0.14385 0.63556 0.0
C1174 C 0.89769 0.12572 0.6206 0.0
C1175 C 0.89789 0.12974 0.59781 0.0
H1176 H 0.8986 0.10689 0.20894 0.0
H1177 H 0.85274 0.17112 0.18786 0.0
H1178 H 0.90515 0.09547 0.17042 0.0
H1179 H 0.85833 0.15957 0.14968 0.0
H1180 H 0.89646 0.13961 0.08156 0.0
H1181 H 0.90167 0.1512 0.12009 0.0
H1182 H 0.86325 0.08505 0.1407 0.0
H1183 H 0.85904 0.07336 0.10249 0.0
C1184 C 0.89002 0.11857 0.19612 0.0
C1185 C 0.87494 0.13984 0.20149 0.0
C1186 C 0.89363 0.11202 0.17406 0.0
C1187 C 0.88219 0.12659 0.15692 0.0
C1188 C 0.86796 0.14804 0.16237 0.0
C1189 C 0.86444 0.15458 0.18435 0.0
C1190 C 0.8895 0.12751 0.09435 0.0
C1191 C 0.8771 0.10563 0.08893 0.0
C1192 C 0.89231 0.13417 0.11643 0.0
C1193 C 0.88274 0.11907 0.13353 0.0
C1194 C 0.87137 0.09702 0.12803 0.0
C1195 C 0.86863 0.09038 0.10604 0.0
H1196 H 0.89524 0.60981 0.07715 0.0
H1197 H 0.92957 0.67586 0.10021 0.0
H1198 H 0.88729 0.59738 0.11533 0.0
H1199 H 0.92274 0.66337 0.13802 0.0
H1200 H 0.8849 0.64022 0.20502 0.0
H1201 H 0.87956 0.65211 0.16657 0.0
H1202 H 0.92855 0.58866 0.14579 0.0
H1203 H 0.93284 0.57661 0.18391 0.0
C1204 C 0.9009 0.62168 0.09032 0.0
C1205 C 0.9133 0.64375 0.08562 0.0
C1206 C 0.89653 0.61456 0.1122 0.0
C1207 C 0.9045 0.62936 0.12979 0.0
C1208 C 0.91579 0.6516 0.12497 0.0
C1209 C 0.92005 0.6587 0.1032 0.0
C1210 C 0.89418 0.62877 0.19221 0.0
C1211 C 0.90956 0.60756 0.19755 0.0
C1212 C 0.89126 0.63559 0.17017 0.0
C1213 C 0.90376 0.62137 0.15305 0.0
C1214 C 0.91812 0.59993 0.15846 0.0
C1215 C 0.92091 0.5931 0.18041 0.0
H1216 H 0.6319 0.37197 0.95192 0.0
H1217 H 0.71267 0.42536 0.93798 0.0
H1218 H 0.63051 0.36226 0.91253 0.0
H1219 H 0.71156 0.41541 0.89915 0.0
H1220 H 0.74197 0.36345 0.84367 0.0
H1221 H 0.73519 0.376 0.88168 0.0
H1222 H 0.61409 0.38388 0.87219 0.0
H1223 H 0.62092 0.37167 0.8336 0.0
C1224 C 0.64905 0.38171 0.9405 0.0
C1225 C 0.67257 0.39933 0.94809 0.0
C1226 C 0.64804 0.37625 0.91802 0.0
C1227 C 0.67099 0.38812 0.90296 0.0
C1228 C 0.6937 0.40601 0.91049 0.0
C1229 C 0.69427 0.41167 0.93275 0.0
C1230 C 0.7139 0.36802 0.84959 0.0
C1231 C 0.68198 0.36669 0.83569 0.0
C1232 C 0.71007 0.3752 0.87131 0.0
C1233 C 0.67414 0.38081 0.87976 0.0
C1234 C 0.64205 0.37952 0.86597 0.0
C1235 C 0.64601 0.37276 0.84395 0.0
H1236 H 0.61937 0.82317 0.94086 0.0
H1237 H 0.65567 0.88977 0.96123 0.0
H1238 H 0.62322 0.8346 0.90258 0.0
H1239 H 0.66067 0.90112 0.92258 0.0
H1240 H 0.61133 0.92038 0.8546 0.0
H1241 H 0.6178 0.90925 0.89289 0.0
H1242 H 0.66386 0.84486 0.8726 0.0
H1243 H 0.65626 0.85583 0.83401 0.0
C1244 C 0.62871 0.84022 0.93717 0.0
C1245 C 0.63691 0.85563 0.95416 0.0
C1246 C 0.63124 0.84671 0.91512 0.0
C1247 C 0.6422 0.8688 0.9094 0.0
C1248 C 0.65161 0.88405 0.92639 0.0
C1249 C 0.64895 0.87754 0.94854 0.0
C1250 C 0.62307 0.90387 0.85824 0.0
C1251 C 0.63296 0.88891 0.8412 0.0
C1252 C 0.62711 0.89757 0.88028 0.0
C1253 C 0.64132 0.87614 0.88591 0.0
C1254 C 0.65229 0.86138 0.86886 0.0
C1255 C 0.6481 0.86769 0.84674 0.0
H1256 H 0.63202 0.86137 0.46516 0.0
H1257 H 0.66481 0.92815 0.44329 0.0
H1258 H 0.6268 0.84923 0.4268 0.0
H1259 H 0.66074 0.91593 0.40524 0.0
H1260 H 0.67682 0.82922 0.35944 0.0
H1261 H 0.6701 0.84124 0.39739 0.0
H1262 H 0.62044 0.90418 0.37549 0.0
H1263 H 0.62824 0.89231 0.33718 0.0
C1264 C 0.63791 0.87348 0.4522 0.0
C1265 C 0.64911 0.89567 0.45732 0.0
C1266 C 0.63513 0.86651 0.43021 0.0
C1267 C 0.64358 0.88156 0.41288 0.0
C1268 C 0.65352 0.90394 0.41808 0.0
C1269 C 0.65618 0.9109 0.43999 0.0
C1270 C 0.66424 0.8456 0.36264 0.0
C1271 C 0.65336 0.8599 0.34522 0.0
C1272 C 0.66005 0.85241 0.3845 0.0
C1273 C 0.64471 0.87368 0.38958 0.0
C1274 C 0.63283 0.88778 0.37217 0.0
C1275 C 0.63715 0.88097 0.35021 0.0
H1276 H 0.68797 0.33571 0.43779 0.0
H1277 H 0.62167 0.39484 0.45405 0.0
H1278 H 0.69051 0.34778 0.39946 0.0
H1279 H 0.62334 0.40662 0.4156 0.0
H1280 H 0.65214 0.43039 0.34731 0.0
H1281 H 0.6617 0.42012 0.38572 0.0
H1282 H 0.6467 0.34966 0.36905 0.0
H1283 H 0.63816 0.35994 0.33042 0.0
C1284 C 0.67423 0.35142 0.43322 0.0
C1285 C 0.65441 0.36426 0.44896 0.0
C1286 C 0.67544 0.35823 0.41119 0.0
C1287 C 0.65675 0.37802 0.40434 0.0
C1288 C 0.63838 0.39139 0.42029 0.0
C1289 C 0.63733 0.38462 0.44237 0.0
C1290 C 0.65125 0.41266 0.35179 0.0
C1291 C 0.64414 0.39597 0.33583 0.0
C1292 C 0.65652 0.4068 0.37386 0.0
C1293 C 0.65464 0.38409 0.38056 0.0
C1294 C 0.64878 0.36731 0.36446 0.0
C1295 C 0.64371 0.37318 0.34231 0.0
H1296 H 0.41401 0.67459 0.19375 0.0
H1297 H 0.37053 0.60891 0.21203 0.0
H1298 H 0.42105 0.66207 0.15584 0.0
H1299 H 0.37579 0.59655 0.17383 0.0
H1300 H 0.41104 0.57484 0.10593 0.0
H1301 H 0.41537 0.58672 0.1442 0.0
H1302 H 0.38263 0.65444 0.12515 0.0
H1303 H 0.38006 0.64265 0.08673 0.0
C1304 C 0.40604 0.65741 0.18963 0.0
C1305 C 0.39156 0.64274 0.20581 0.0
C1306 C 0.40976 0.65027 0.16783 0.0
C1307 C 0.39851 0.62838 0.16157 0.0
C1308 C 0.3852 0.61345 0.17799 0.0
C1309 C 0.38204 0.62052 0.19992 0.0
C1310 C 0.40515 0.59233 0.10992 0.0
C1311 C 0.39509 0.60781 0.09335 0.0
C1312 C 0.40736 0.59912 0.13192 0.0
C1313 C 0.39905 0.62151 0.13794 0.0
C1314 C 0.38983 0.63713 0.1212 0.0
C1315 C 0.38816 0.63038 0.09914 0.0
H1316 H 0.43836 0.15405 0.2081 0.0
H1317 H 0.3798 0.08976 0.20957 0.0
H1318 H 0.43272 0.15476 0.16788 0.0
H1319 H 0.3752 0.09029 0.1694 0.0
H1320 H 0.44016 0.0899 0.09939 0.0
H1321 H 0.43294 0.08941 0.13953 0.0
H1322 H 0.37659 0.15409 0.13695 0.0
H1323 H 0.38274 0.15441 0.09684 0.0
C1324 C 0.42381 0.14027 0.19989 0.0
C1325 C 0.40953 0.12188 0.21202 0.0
C1326 C 0.42057 0.14068 0.17691 0.0
C1327 C 0.40373 0.1225 0.16563 0.0
C1328 C 0.38844 0.10445 0.17775 0.0
C1329 C 0.39089 0.10426 0.20074 0.0
C1330 C 0.42561 0.1038 0.10735 0.0
C1331 C 0.41202 0.12216 0.09494 0.0
C1332 C 0.42144 0.1035 0.13028 0.0
C1333 C 0.40436 0.12177 0.14124 0.0
C1334 C 0.38996 0.13986 0.12884 0.0
C1335 C 0.39332 0.13993 0.10589 0.0
H1336 H 0.3582 0.17536 0.69238 0.0
H1337 H 0.40068 0.1103 0.7134 0.0
H1338 H 0.36391 0.16393 0.65419 0.0
H1339 H 0.40751 0.09901 0.67487 0.0
H1340 H 0.36091 0.07764 0.6069 0.0
H1341 H 0.36597 0.08918 0.64509 0.0
H1342 H 0.40607 0.15498 0.62445 0.0
H1343 H 0.39988 0.14354 0.58591 0.0
C1344 C 0.36926 0.15867 0.68886 0.0
C1345 C 0.37867 0.14366 0.70599 0.0
C1346 C 0.37287 0.15219 0.66686 0.0
C1347 C 0.38613 0.13053 0.66136 0.0
C1348 C 0.39668 0.11572 0.67851 0.0
C1349 C 0.39294 0.12221 0.70059 0.0
C1350 C 0.37108 0.09455 0.61043 0.0
C1351 C 0.37966 0.10975 0.5933 0.0
C1352 C 0.37431 0.10111 0.63243 0.0
C1353 C 0.38637 0.12303 0.63793 0.0
C1354 C 0.39616 0.13805 0.6208 0.0
C1355 C 0.39281 0.13148 0.59871 0.0
H1356 H 0.41348 0.57746 0.69153 0.0
H1357 H 0.38897 0.64546 0.71314 0.0
H1358 H 0.41081 0.58977 0.65341 0.0
H1359 H 0.38524 0.65773 0.67475 0.0
H1360 H 0.43679 0.6756 0.60721 0.0
H1361 H 0.42988 0.66366 0.64524 0.0
H1362 H 0.37117 0.60329 0.62382 0.0
H1363 H 0.37898 0.61505 0.58545 0.0
C1364 C 0.40697 0.59501 0.68815 0.0
C1365 C 0.40178 0.61053 0.70542 0.0
C1366 C 0.40514 0.60203 0.66622 0.0
C1367 C 0.39798 0.62476 0.66096 0.0
C1368 C 0.39141 0.64015 0.67823 0.0
C1369 C 0.39332 0.63312 0.70023 0.0
C1370 C 0.42225 0.6598 0.61054 0.0
C1371 C 0.40865 0.64619 0.59325 0.0
C1372 C 0.41797 0.65305 0.63243 0.0
C1373 C 0.39988 0.63254 0.63765 0.0
C1374 C 0.38563 0.61909 0.62037 0.0
C1375 C 0.38998 0.62584 0.59839 0.0
H1376 H 0.28942 0.37221 0.28209 0.0
H1377 H 0.32299 0.30991 0.25055 0.0
H1378 H 0.35594 0.38372 0.28443 0.0
H1379 H 0.38957 0.32166 0.25253 0.0
H1380 H 0.50653 0.33867 0.28022 0.0
H1381 H 0.43989 0.32763 0.279 0.0
H1382 H 0.4088 0.39593 0.26137 0.0
H1383 H 0.4759 0.40715 0.26301 0.0
C1384 C 0.31098 0.36094 0.27564 0.0
C1385 C 0.30079 0.34007 0.26616 0.0
C1386 C 0.34916 0.36766 0.27684 0.0
C1387 C 0.37819 0.35368 0.26863 0.0
C1388 C 0.36801 0.33274 0.25927 0.0
C1389 C 0.32979 0.32602 0.25806 0.0
C1390 C 0.48556 0.35141 0.27614 0.0
C1391 C 0.49664 0.37382 0.27167 0.0
C1392 C 0.44727 0.34501 0.27529 0.0
C1393 C 0.41891 0.36081 0.26993 0.0
C1394 C 0.42987 0.38334 0.26575 0.0
C1395 C 0.46833 0.38978 0.26661 0.0
H1396 H 0.7932 0.86273 0.2928 0.0
H1397 H 0.80451 0.83542 0.22716 0.0
H1398 H 0.86072 0.87254 0.29287 0.0
H1399 H 0.87181 0.84561 0.22709 0.0
H1400 H 0.9983 0.84375 0.24448 0.0
H1401 H 0.93086 0.83473 0.24429 0.0
H1402 H 0.90639 0.89848 0.27584 0.0
H1403 H 0.97457 0.9074 0.27645 0.0
C1404 C 0.81008 0.85877 0.27839 0.0
C1405 C 0.7934 0.84817 0.26 0.0
C1406 C 0.84875 0.86461 0.27836 0.0
C1407 C 0.87175 0.85996 0.25997 0.0
C1408 C 0.85509 0.84922 0.24165 0.0
C1409 C 0.81643 0.8434 0.24166 0.0
C1410 C 0.97865 0.85595 0.25135 0.0
C1411 C 0.99194 0.87633 0.26051 0.0
C1412 C 0.93983 0.85079 0.25111 0.0
C1413 C 0.91308 0.86586 0.26001 0.0
C1414 C 0.92626 0.88637 0.26906 0.0
C1415 C 0.96529 0.89157 0.26927 0.0
H1416 H 0.29749 0.85087 0.99973 0.0
H1417 H 0.31146 0.91761 0.02743 0.0
H1418 H 0.36606 0.84523 1.00096 0.0
H1419 H 0.38027 0.91175 0.02917 0.0
H1420 H 0.50381 0.90279 1.00753 0.0
H1421 H 0.43531 0.90842 1.00594 0.0
H1422 H 0.41759 0.83923 0.02645 0.0
H1423 H 0.48649 0.83342 0.0275 0.0
C1424 C 0.3152 0.86436 1.00615 0.0
C1425 C 0.29894 0.88473 1.01345 0.0
C1426 C 0.35458 0.86103 1.00701 0.0
C1427 C 0.37879 0.87796 1.01526 0.0
C1428 C 0.36254 0.89842 0.02246 0.0
C1429 C 0.32307 0.90178 0.02154 0.0
C1430 C 0.48537 0.88873 1.01169 0.0
C1431 C 0.50069 0.86763 1.01763 0.0
C1432 C 0.44599 0.89203 1.01092 0.0
C1433 C 0.4208 0.87434 1.01615 0.0
C1434 C 0.43612 0.85318 0.02205 0.0
C1435 C 0.47563 0.84985 0.02276 0.0
H1436 H 0.99462 0.35685 0.03844 0.0
H1437 H 0.98533 0.34997 0.96779 0.0
H1438 H 0.92685 0.36618 0.04046 0.0
H1439 H 0.91775 0.35926 0.96987 0.0
H1440 H 0.79056 0.35133 0.98639 0.0
H1441 H 0.85806 0.3422 0.98482 0.0
H1442 H 0.883 0.39805 0.02824 0.0
H1443 H 0.81495 0.40729 0.02986 0.0
C1444 C 0.97809 0.35712 0.02337 0.0
C1445 C 0.99538 0.35259 1.00295 0.0
C1446 C 0.93937 0.36269 0.02452 0.0
C1447 C 0.91702 0.36356 1.00532 0.0
C1448 C 0.93416 0.3586 0.98497 0.0
C1449 C 0.97291 0.35329 0.98379 0.0
C1450 C 0.81036 0.36175 0.99558 0.0
C1451 C 0.79735 0.38006 1.00825 0.0
C1452 C 0.8491 0.35654 0.99459 0.0
C1453 C 0.87585 0.36938 1.00641 0.0
C1454 C 0.86297 0.38773 1.0191 0.0
C1455 C 0.82409 0.39313 1.0199 0.0
H1456 H 0.74145 0.61042 0.79726 0.0
H1457 H 0.73266 0.66818 0.75402 0.0
H1458 H 0.67296 0.60484 0.79518 0.0
H1459 H 0.664 0.66209 0.75116 0.0
H1460 H 0.53775 0.65856 0.76831 0.0
H1461 H 0.60603 0.66461 0.77039 0.0
H1462 H 0.62378 0.59232 0.77171 0.0
H1463 H 0.55493 0.58633 0.77057 0.0
C1464 C 0.72484 0.62192 0.78723 0.0
C1465 C 0.74252 0.63978 0.77582 0.0
C1466 C 0.6855 0.61857 0.78585 0.0
C1467 C 0.66272 0.63284 0.77283 0.0
C1468 C 0.68043 0.65089 0.76158 0.0
C1469 C 0.71985 0.65439 0.76316 0.0
C1470 C 0.55617 0.64391 0.76899 0.0
C1471 C 0.54082 0.62193 0.76932 0.0
C1472 C 0.5955 0.6474 0.77004 0.0
C1473 C 0.62071 0.629 0.77122 0.0
C1474 C 0.60533 0.60695 0.77122 0.0
C1475 C 0.56583 0.60347 0.7704 0.0
H1476 H 0.04195 0.14399 0.79883 0.0
H1477 H 0.05031 0.08621 0.75566 0.0
H1478 H 0.1105 0.14924 0.79694 0.0
H1479 H 0.11919 0.09185 0.75327 0.0
H1480 H 0.24496 0.09436 0.77363 0.0
H1481 H 0.17637 0.08886 0.77462 0.0
H1482 H 0.16007 0.16122 0.77254 0.0
H1483 H 0.22905 0.16674 0.77221 0.0
C1484 C 0.05842 0.13241 0.78885 0.0
C1485 C 0.0406 0.11464 0.7774 0.0
C1486 C 0.0978 0.13557 0.78762 0.0
C1487 C 0.12049 0.1211 0.77483 0.0
C1488 C 0.10269 0.10319 0.76348 0.0
C1489 C 0.06318 0.09997 0.76479 0.0
C1490 C 0.2268 0.10914 0.77333 0.0
C1491 C 0.24255 0.13102 0.77292 0.0
C1492 C 0.18736 0.10595 0.77375 0.0
C1493 C 0.16254 0.12456 0.77366 0.0
C1494 C 0.1783 0.14648 0.77296 0.0
C1495 C 0.21786 0.14967 0.77265 0.0
H1496 H 0.55425 0.16292 0.03837 0.0
H1497 H 0.53959 0.09833 1.0063 0.0
H1498 H 0.62318 0.15728 0.03854 0.0
H1499 H 0.6082 0.09301 1.00586 0.0
H1500 H 0.7311 0.08022 0.02692 0.0
H1501 H 0.66208 0.08542 0.0288 0.0
H1502 H 0.67635 0.15643 1.01413 0.0
H1503 H 0.74491 0.15137 1.01292 0.0
C1504 C 0.56572 0.1476 0.03125 0.0
C1505 C 0.54138 0.1311 0.02234 0.0
C1506 C 0.60527 0.14438 0.03125 0.0
C1507 C 0.62138 0.12464 0.02222 0.0
C1508 C 0.5969 0.10821 1.0133 0.0
C1509 C 0.55746 0.11137 1.01341 0.0
C1510 C 0.71942 0.09692 0.02412 0.0
C1511 C 0.74355 0.11536 1.01979 0.0
C1512 C 0.67984 0.09991 0.0251 0.0
C1513 C 0.66352 0.12139 0.02166 0.0
C1514 C 0.6878 0.13975 1.01727 0.0
C1515 C 0.72723 0.13679 1.01641 0.0
H1516 H 0.25823 0.6539 0.03029 0.0
H1517 H 0.24128 0.582 0.02285 0.0
H1518 H 0.19032 0.66012 0.02632 0.0
H1519 H 0.17264 0.58807 1.01987 0.0
H1520 H 0.05734 0.60804 0.99205 0.0
H1521 H 0.12543 0.60199 0.99606 0.0
H1522 H 0.13084 0.65655 0.04332 0.0
H1523 H 0.06274 0.66321 0.03845 0.0
C1524 C 0.2399 0.63934 0.02809 0.0
C1525 C 0.25522 0.61743 0.02687 0.0
C1526 C 0.20075 0.64291 0.02594 0.0
C1527 C 0.17568 0.62464 0.02281 0.0
C1528 C 0.19102 0.60264 0.02188 0.0
C1529 C 0.23038 0.59909 0.02375 0.0
C1530 C 0.0731 0.61882 1.00323 0.0
C1531 C 0.05465 0.63614 1.01491 0.0
C1532 C 0.1122 0.61521 1.00571 0.0
C1533 C 0.13389 0.62863 1.02015 0.0
C1534 C 0.11534 0.64606 0.03179 0.0
C1535 C 0.07622 0.64986 0.02907 0.0
H1536 H 0.4812 0.90331 0.72264 0.0
H1537 H 0.49305 0.88714 0.79173 0.0
H1538 H 0.41295 0.89554 0.72486 0.0
H1539 H 0.42471 0.8792 0.79382 0.0
H1540 H 0.30877 0.84237 0.77928 0.0
H1541 H 0.37757 0.84984 0.77762 0.0
H1542 H 0.35583 0.91287 0.74407 0.0
H1543 H 0.28762 0.90562 0.74583 0.0
C1544 C 0.46923 0.89822 0.73832 0.0
C1545 C 0.49256 0.89595 0.75702 0.0
C1546 C 0.43014 0.89378 0.73959 0.0
C1547 C 0.41356 0.88665 0.75949 0.0
C1548 C 0.4368 0.88443 0.77822 0.0
C1549 C 0.47585 0.8892 0.77704 0.0
C1550 C 0.31877 0.85777 0.77152 0.0
C1551 C 0.29276 0.8734 0.76272 0.0
C1552 C 0.35806 0.86211 0.77069 0.0
C1553 C 0.37201 0.88194 0.7607 0.0
C1554 C 0.34596 0.89738 0.75171 0.0
C1555 C 0.30685 0.89324 0.75284 0.0
H1556 H 0.80096 0.3549 0.78642 0.0
H1557 H 0.80789 0.3546 0.71537 0.0
H1558 H 0.86828 0.36559 0.78854 0.0
H1559 H 0.87524 0.36496 0.71758 0.0
H1560 H 1.00378 0.35591 0.73471 0.0
H1561 H 0.93638 0.34618 0.73239 0.0
H1562 H 0.9094 0.40076 0.7768 0.0
H1563 H 0.97726 0.41081 0.77893 0.0
C1564 C 0.81693 0.35685 0.77128 0.0
C1565 C 0.79914 0.35381 0.75071 0.0
C1566 C 0.85533 0.3632 0.77251 0.0
C1567 C 0.87686 0.36623 0.75323 0.0
C1568 C 0.85931 0.36269 0.73271 0.0
C1569 C 0.82079 0.35675 0.73145 0.0
C1570 C 0.9835 0.36594 0.74392 0.0
C1571 C 0.9958 0.38413 0.75702 0.0
C1572 C 0.9449 0.36039 0.74251 0.0
C1573 C 0.91771 0.37266 0.75446 0.0
C1574 C 0.92987 0.39093 0.76754 0.0
C1575 C 0.96858 0.39677 0.76863 0.0
H1576 H 0.30152 0.42139 0.50255 0.0
H1577 H 0.28691 0.35097 0.51944 0.0
H1578 H 0.37044 0.41599 0.50124 0.0
H1579 H 0.35549 0.34575 0.51901 0.0
H1580 H 0.49199 0.40468 0.52543 0.0
H1581 H 0.42345 0.40998 0.52447 0.0
H1582 H 0.40986 0.34339 0.49623 0.0
H1583 H 0.47871 0.33778 0.49804 0.0
C1584 C 0.31303 0.4048 0.50609 0.0
C1585 C 0.28872 0.38663 0.51108 0.0
C1586 C 0.35257 0.4017 0.50546 0.0
C1587 C 0.36873 0.3804 0.51003 0.0
C1588 C 0.34423 0.36227 0.51498 0.0
C1589 C 0.30478 0.36532 0.51539 0.0
C1590 C 0.47443 0.39115 0.51897 0.0
C1591 C 0.49085 0.37077 0.51185 0.0
C1592 C 0.43501 0.39427 0.51826 0.0
C1593 C 0.4109 0.37717 0.51021 0.0
C1594 C 0.42741 0.35683 0.50286 0.0
C1595 C 0.46692 0.35362 0.50377 0.0
H1596 H 0.9641 0.85669 0.4842 0.0
H1597 H 0.99331 0.86643 0.55263 0.0
H1598 H 0.8989 0.86825 0.49185 0.0
H1599 H 0.9288 0.87916 0.56015 0.0
H1600 H 0.80049 0.8821 0.57092 0.0
H1601 H 0.86514 0.86925 0.56406 0.0
H1602 H 0.86166 0.89987 0.49936 0.0
H1603 H 0.79617 0.91164 0.50591 0.0
C1604 C 0.95656 0.8613 0.5009 0.0
C1605 C 0.98389 0.86059 0.5178 0.0
C1606 C 0.91922 0.86821 0.50528 0.0
C1607 C 0.90836 0.87498 0.52661 0.0
C1608 C 0.93569 0.87384 0.54358 0.0
C1609 C 0.97286 0.86657 0.53926 0.0
C1610 C 0.81367 0.88627 0.5553 0.0
C1611 C 0.79316 0.89789 0.53895 0.0
C1612 C 0.85091 0.87893 0.55136 0.0
C1613 C 0.86889 0.88332 0.53106 0.0
C1614 C 0.84864 0.89562 0.51499 0.0
C1615 C 0.81116 0.90263 0.51882 0.0
H1616 H 0.55265 0.08014 0.25926 0.0
H1617 H 0.5439 0.14037 0.29907 0.0
H1618 H 0.62116 0.08664 0.25536 0.0
H1619 H 0.61202 0.1465 0.29573 0.0
H1620 H 0.72939 0.16381 0.26928 0.0
H1621 H 0.66055 0.15759 0.27041 0.0
H1622 H 0.67916 0.08561 0.27597 0.0
H1623 H 0.74749 0.09177 0.27418 0.0
C1624 C 0.56535 0.09464 0.26731 0.0
C1625 C 0.54275 0.10971 0.27946 0.0
C1626 C 0.60465 0.09837 0.26513 0.0
C1627 C 0.62223 0.11719 0.27515 0.0
C1628 C 0.59951 0.1321 0.28741 0.0
C1629 C 0.56036 0.12845 0.28948 0.0
C1630 C 0.71872 0.14668 0.27066 0.0
C1631 C 0.74399 0.12833 0.27168 0.0
C1632 C 0.67925 0.14308 0.27142 0.0
C1633 C 0.66416 0.12106 0.27333 0.0
C1634 C 0.68957 0.10275 0.27415 0.0
C1635 C 0.7289 0.10634 0.27329 0.0
H1636 H 0.04188 0.64696 0.29242 0.0
H1637 H 0.05156 0.58776 0.2513 0.0
H1638 H 0.11012 0.65316 0.28977 0.0
H1639 H 0.11995 0.59447 0.24777 0.0
H1640 H 0.24612 0.5993 0.26478 0.0
H1641 H 0.17797 0.59297 0.26673 0.0
H1642 H 0.15921 0.66519 0.26626 0.0
H1643 H 0.22801 0.67148 0.26535 0.0
C1644 C 0.05862 0.6353 0.2827 0.0
C1645 C 0.04128 0.61682 0.27211 0.0
C1646 C 0.09783 0.639 0.28098 0.0
C1647 C 0.12081 0.62447 0.2684 0.0
C1648 C 0.1034 0.60588 0.25786 0.0
C1649 C 0.06413 0.60203 0.25982 0.0
C1650 C 0.22751 0.61388 0.26499 0.0
C1651 C 0.24257 0.63593 0.26495 0.0
C1652 C 0.18823 0.61022 0.26597 0.0
C1653 C 0.16276 0.62851 0.26666 0.0
C1654 C 0.17785 0.65063 0.26617 0.0
C1655 C 0.21732 0.65429 0.26548 0.0
H1656 H 0.72382 0.5838 0.52711 0.0
H1657 H 0.73915 0.65223 0.50382 0.0
H1658 H 0.65497 0.58989 0.52865 0.0
H1659 H 0.67077 0.65808 0.50467 0.0
H1660 H 0.5498 0.66931 0.52904 0.0
H1661 H 0.61853 0.66297 0.52909 0.0
H1662 H 0.60045 0.59483 0.50567 0.0
H1663 H 0.53202 0.60094 0.5063 0.0
C1664 C 0.7125 0.60006 0.52218 0.0
C1665 C 0.737 0.61752 0.5154 0.0
C1666 C 0.67302 0.60355 0.52297 0.0
C1667 C 0.65719 0.62454 0.51686 0.0
C1668 C 0.68184 0.64186 0.50992 0.0
C1669 C 0.72116 0.63843 0.50928 0.0
C1670 C 0.56055 0.65301 0.52389 0.0
C1671 C 0.5354 0.63566 0.51767 0.0
C1672 C 0.59998 0.64936 0.52383 0.0
C1673 C 0.61518 0.62834 0.51739 0.0
C1674 C 0.58989 0.61107 0.5111 0.0
C1675 C 0.55055 0.61467 0.5113 0.0
H1676 H 0.05125 0.16944 0.53447 0.0
H1677 H 0.04063 0.10255 0.50669 0.0
H1678 H 0.12017 0.16439 0.53713 0.0
H1679 H 0.10924 0.0978 0.50854 0.0
H1680 H 0.22972 0.0869 0.53321 0.0
H1681 H 0.16071 0.09203 0.53308 0.0
H1682 H 0.17594 0.16225 0.51532 0.0
H1683 H 0.24457 0.1573 0.5163 0.0
C1684 C 0.06366 0.15375 0.52877 0.0
C1685 C 0.04046 0.1364 0.52042 0.0
C1686 C 0.10319 0.15086 0.53021 0.0
C1687 C 0.12043 0.13063 0.52311 0.0
C1688 C 0.09706 0.11341 0.5146 0.0
C1689 C 0.05763 0.11621 0.51337 0.0
C1690 C 0.21825 0.10342 0.52936 0.0
C1691 C 0.24264 0.12166 0.52478 0.0
C1692 C 0.17867 0.10638 0.52916 0.0
C1693 C 0.16258 0.12759 0.52415 0.0
C1694 C 0.18715 0.14579 0.51963 0.0
C1695 C 0.22662 0.14289 0.52004 0.0
loop_
_geom_bond_atom_site_label_1
_geom_bond_atom_site_label_2
_geom_bond_distance
_geom_bond_site_symmetry_2
_ccdc_geom_bond_type
Mg0 O7 2.141 . S
Mg0 O8 2.048 . S
Mg0 O9 2.048 . S
Mg0 O12 2.141 . S
C1 O2 1.313 . S
C1 O8 1.195 . S
O2 C1 1.313 . S
C3 O4 1.245 . S
C3 O12 1.289 . S
O4 C3 1.245 . S
C5 O6 1.245 . S
C5 O7 1.289 . S
O6 C5 1.245 . S
O7 Mg0 2.141 . S
O7 C5 1.289 . S
O8 Mg0 2.048 . S
O8 C1 1.195 . S
O9 Mg0 2.048 . S
O9 C10 1.195 . S
C10 O9 1.195 . S
C10 O11 1.313 . S
O11 C10 1.313 . S
O12 Mg0 2.141 . S
O12 C3 1.289 . S
Mg13 O20 2.141 . S
Mg13 O21 2.048 . S
Mg13 O22 2.048 . S
Mg13 O25 2.141 . S
C14 O15 1.313 . S
C14 O21 1.195 . S
O15 C14 1.313 . S
C16 O17 1.245 . S
C16 O25 1.289 . S
O17 C16 1.245 . S
C18 O19 1.245 . S
C18 O20 1.289 . S
O19 C18 1.245 . S
O20 Mg13 2.141 . S
O20 C18 1.289 . S
O21 Mg13 2.048 . S
O21 C14 1.195 . S
O22 Mg13 2.048 . S
O22 C23 1.195 . S
C23 O22 1.195 . S
C23 O24 1.313 . S
O24 C23 1.313 . S
O25 Mg13 2.141 . S
O25 C16 1.289 . S
Mg26 O33 2.141 1_554 S
Mg26 O34 2.049 . S
Mg26 O35 2.047 . S
Mg26 O38 2.140 1_554 S
C27 O28 1.313 . S
C27 O34 1.195 . S
O28 C27 1.313 . S
C29 O30 1.245 . S
C29 O38 1.289 . S
O30 C29 1.245 . S
C31 O32 1.245 . S
C31 O33 1.289 . S
O32 C31 1.245 . S
O33 Mg26 2.141 1_556 S
O33 C31 1.289 . S
O34 Mg26 2.049 . S
O34 C27 1.195 . S
O35 Mg26 2.047 . S
O35 C36 1.201 . S
C36 O35 1.201 . S
C36 O37 1.313 . S
O37 C36 1.313 . S
O38 Mg26 2.140 1_556 S
O38 C29 1.289 . S
Mg39 O46 2.141 1_554 S
Mg39 O47 2.049 . S
Mg39 O48 2.047 . S
Mg39 O51 2.140 1_554 S
C40 O41 1.313 . S
C40 O47 1.195 . S
O41 C40 1.313 . S
C42 O43 1.245 . S
C42 O51 1.289 . S
O43 C42 1.245 . S
C44 O45 1.245 . S
C44 O46 1.289 . S
O45 C44 1.245 . S
O46 Mg39 2.141 1_556 S
O46 C44 1.289 . S
O47 Mg39 2.049 . S
O47 C40 1.195 . S
O48 Mg39 2.047 . S
O48 C49 1.201 . S
C49 O48 1.201 . S
C49 O50 1.313 . S
O50 C49 1.313 . S
O51 Mg39 2.140 1_556 S
O51 C42 1.289 . S
Mg52 O59 2.141 . S
Mg52 O60 2.048 . S
Mg52 O61 2.048 . S
Mg52 O64 2.141 . S
C53 O54 1.313 . S
C53 O60 1.195 . S
O54 C53 1.313 . S
C55 O56 1.245 . S
C55 O64 1.289 . S
O56 C55 1.245 . S
C57 O58 1.245 . S
C57 O59 1.289 . S
O58 C57 1.245 . S
O59 Mg52 2.141 . S
O59 C57 1.289 . S
O60 Mg52 2.048 . S
O60 C53 1.195 . S
O61 Mg52 2.048 . S
O61 C62 1.195 . S
C62 O61 1.195 . S
C62 O63 1.313 . S
O63 C62 1.313 . S
O64 Mg52 2.141 . S
O64 C55 1.289 . S
Mg65 O72 2.141 . S
Mg65 O73 2.048 . S
Mg65 O74 2.048 . S
Mg65 O77 2.141 . S
C66 O67 1.313 . S
C66 O73 1.195 . S
O67 C66 1.313 . S
C68 O69 1.245 . S
C68 O77 1.289 . S
O69 C68 1.245 . S
C70 O71 1.245 . S
C70 O72 1.289 . S
O71 C70 1.245 . S
O72 Mg65 2.141 . S
O72 C70 1.289 . S
O73 Mg65 2.048 . S
O73 C66 1.195 . S
O74 Mg65 2.048 . S
O74 C75 1.195 . S
C75 O74 1.195 . S
C75 O76 1.313 . S
O76 C75 1.313 . S
O77 Mg65 2.141 . S
O77 C68 1.289 . S
Mg78 O85 2.141 . S
Mg78 O86 2.048 1_554 S
Mg78 O87 2.048 . S
Mg78 O90 2.141 . S
C79 O80 1.313 . S
C79 O86 1.195 . S
O80 C79 1.313 . S
C81 O82 1.245 . S
C81 O90 1.289 . S
O82 C81 1.245 . S
C83 O84 1.245 1_554 S
C83 O85 1.289 . S
O84 C83 1.245 1_556 S
O85 Mg78 2.141 . S
O85 C83 1.289 . S
O86 Mg78 2.048 1_556 S
O86 C79 1.195 . S
O87 Mg78 2.048 . S
O87 C88 1.190 1_554 S
C88 O87 1.190 1_556 S
C88 O89 1.313 . S
O89 C88 1.313 . S
O90 Mg78 2.141 . S
O90 C81 1.289 . S
Mg91 O98 2.141 . S
Mg91 O99 2.048 1_554 S
Mg91 O100 2.048 . S
Mg91 O103 2.141 . S
C92 O93 1.313 . S
C92 O99 1.195 . S
O93 C92 1.313 . S
C94 O95 1.245 . S
C94 O103 1.289 . S
O95 C94 1.245 . S
C96 O97 1.245 1_554 S
C96 O98 1.289 . S
O97 C96 1.245 1_556 S
O98 Mg91 2.141 . S
O98 C96 1.289 . S
O99 Mg91 2.048 1_556 S
O99 C92 1.195 . S
O100 Mg91 2.048 . S
O100 C101 1.190 1_554 S
C101 O100 1.190 1_556 S
C101 O102 1.313 . S
O102 C101 1.313 . S
O103 Mg91 2.141 . S
O103 C94 1.289 . S
Mg104 O111 2.141 . S
Mg104 O112 2.048 . S
Mg104 O113 2.048 . S
Mg104 O116 2.141 . S
C105 O106 1.313 . S
C105 O112 1.195 . S
O106 C105 1.313 . S
C107 O108 1.245 . S
C107 O116 1.289 . S
O108 C107 1.245 . S
C109 O110 1.245 . S
C109 O111 1.289 . S
O110 C109 1.245 . S
O111 Mg104 2.141 . S
O111 C109 1.289 . S
O112 Mg104 2.048 . S
O112 C105 1.195 . S
O113 Mg104 2.048 . S
O113 C114 1.195 . S
C114 O113 1.195 . S
C114 O115 1.313 . S
O115 C114 1.313 . S
O116 Mg104 2.141 . S
O116 C107 1.289 . S
Mg117 O124 2.141 . S
Mg117 O125 2.048 . S
Mg117 O126 2.048 . S
Mg117 O129 2.141 . S
C118 O119 1.313 . S
C118 O125 1.195 . S
O119 C118 1.313 . S
C120 O121 1.245 . S
C120 O129 1.289 . S
O121 C120 1.245 . S
C122 O123 1.245 . S
C122 O124 1.289 . S
O123 C122 1.245 . S
O124 Mg117 2.141 . S
O124 C122 1.289 . S
O125 Mg117 2.048 . S
O125 C118 1.195 . S
O126 Mg117 2.048 . S
O126 C127 1.195 . S
C127 O126 1.195 . S
C127 O128 1.313 . S
O128 C127 1.313 . S
O129 Mg117 2.141 . S
O129 C120 1.289 . S
Mg130 O137 2.141 . S
Mg130 O138 2.048 . S
Mg130 O139 2.048 . S
Mg130 O142 2.141 . S
C131 O132 1.313 . S
C131 O138 1.195 . S
O132 C131 1.313 . S
C133 O134 1.245 . S
C133 O142 1.289 . S
O134 C133 1.245 . S
C135 O136 1.245 . S
C135 O137 1.289 . S
O136 C135 1.245 . S
O137 Mg130 2.141 . S
O137 C135 1.289 . S
O138 Mg130 2.048 . S
O138 C131 1.195 . S
O139 Mg130 2.048 . S
O139 C140 1.195 . S
C140 O139 1.195 . S
C140 O141 1.313 . S
O141 C140 1.313 . S
O142 Mg130 2.141 . S
O142 C133 1.289 . S
Mg143 O150 2.141 . S
Mg143 O151 2.048 . S
Mg143 O152 2.048 . S
Mg143 O155 2.141 . S
C144 O145 1.313 . S
C144 O151 1.195 . S
O145 C144 1.313 . S
C146 O147 1.245 . S
C146 O155 1.289 . S
O147 C146 1.245 . S
C148 O149 1.245 . S
C148 O150 1.289 . S
O149 C148 1.245 . S
O150 Mg143 2.141 . S
O150 C148 1.289 . S
O151 Mg143 2.048 . S
O151 C144 1.195 . S
O152 Mg143 2.048 . S
O152 C153 1.195 . S
C153 O152 1.195 . S
C153 O154 1.313 . S
O154 C153 1.313 . S
O155 Mg143 2.141 . S
O155 C146 1.289 . S
Mg156 O163 2.141 . S
Mg156 O164 2.048 . S
Mg156 O165 2.048 . S
Mg156 O168 2.141 . S
C157 O158 1.313 . S
C157 O164 1.195 . S
O158 C157 1.313 . S
C159 O160 1.245 . S
C159 O168 1.289 . S
O160 C159 1.245 . S
C161 O162 1.245 . S
C161 O163 1.289 . S
O162 C161 1.245 . S
O163 Mg156 2.141 . S
O163 C161 1.289 . S
O164 Mg156 2.048 . S
O164 C157 1.195 . S
O165 Mg156 2.048 . S
O165 C166 1.195 . S
C166 O165 1.195 . S
C166 O167 1.313 . S
O167 C166 1.313 . S
O168 Mg156 2.141 . S
O168 C159 1.289 . S
Mg169 O176 2.141 . S
Mg169 O177 2.048 . S
Mg169 O178 2.048 . S
Mg169 O181 2.141 . S
C170 O171 1.313 . S
C170 O177 1.195 . S
O171 C170 1.313 . S
C172 O173 1.245 . S
C172 O181 1.289 . S
O173 C172 1.245 . S
C174 O175 1.245 . S
C174 O176 1.289 . S
O175 C174 1.245 . S
O176 Mg169 2.141 . S
O176 C174 1.289 . S
O177 Mg169 2.048 . S
O177 C170 1.195 . S
O178 Mg169 2.048 . S
O178 C179 1.195 . S
C179 O178 1.195 . S
C179 O180 1.313 . S
O180 C179 1.313 . S
O181 Mg169 2.141 . S
O181 C172 1.289 . S
Mg182 O189 2.141 . S
Mg182 O190 2.048 . S
Mg182 O191 2.048 . S
Mg182 O194 2.141 . S
C183 O184 1.313 . S
C183 O190 1.195 . S
O184 C183 1.313 . S
C185 O186 1.245 . S
C185 O194 1.289 . S
O186 C185 1.245 . S
C187 O188 1.245 . S
C187 O189 1.289 . S
O188 C187 1.245 . S
O189 Mg182 2.141 . S
O189 C187 1.289 . S
O190 Mg182 2.048 . S
O190 C183 1.195 . S
O191 Mg182 2.048 . S
O191 C192 1.195 . S
C192 O191 1.195 . S
C192 O193 1.313 . S
O193 C192 1.313 . S
O194 Mg182 2.141 . S
O194 C185 1.289 . S
Mg195 O202 2.141 . S
Mg195 O203 2.048 . S
Mg195 O204 2.048 . S
Mg195 O207 2.141 . S
C196 O197 1.313 . S
C196 O203 1.195 . S
O197 C196 1.313 . S
C198 O199 1.245 . S
C198 O207 1.289 . S
O199 C198 1.245 . S
C200 O201 1.245 . S
C200 O202 1.289 . S
O201 C200 1.245 . S
O202 Mg195 2.141 . S
O202 C200 1.289 . S
O203 Mg195 2.048 . S
O203 C196 1.195 . S
O204 Mg195 2.048 . S
O204 C205 1.195 . S
C205 O204 1.195 . S
C205 O206 1.313 . S
O206 C205 1.313 . S
O207 Mg195 2.141 . S
O207 C198 1.289 . S
Mg208 O215 2.141 . S
Mg208 O216 2.048 . S
Mg208 O217 2.048 . S
Mg208 O220 2.141 . S
C209 O210 1.313 . S
C209 O216 1.195 . S
O210 C209 1.313 . S
C211 O212 1.245 . S
C211 O220 1.289 . S
O212 C211 1.245 . S
C213 O214 1.245 . S
C213 O215 1.289 . S
O214 C213 1.245 . S
O215 Mg208 2.141 . S
O215 C213 1.289 . S
O216 Mg208 2.048 . S
O216 C209 1.195 . S
O217 Mg208 2.048 . S
O217 C218 1.195 . S
C218 O217 1.195 . S
C218 O219 1.313 . S
O219 C218 1.313 . S
O220 Mg208 2.141 . S
O220 C211 1.289 . S
Mg221 O228 2.141 . S
Mg221 O229 2.048 . S
Mg221 O230 2.048 . S
Mg221 O233 2.141 . S
C222 O223 1.313 . S
C222 O229 1.195 . S
O223 C222 1.313 . S
C224 O225 1.245 . S
C224 O233 1.289 . S
O225 C224 1.245 . S
C226 O227 1.245 . S
C226 O228 1.289 . S
O227 C226 1.245 . S
O228 Mg221 2.141 . S
O228 C226 1.289 . S
O229 Mg221 2.048 . S
O229 C222 1.195 . S
O230 Mg221 2.048 . S
O230 C231 1.195 . S
C231 O230 1.195 . S
C231 O232 1.313 . S
O232 C231 1.313 . S
O233 Mg221 2.141 . S
O233 C224 1.289 . S
Mg234 O241 2.141 . S
Mg234 O242 2.048 . S
Mg234 O243 2.048 . S
Mg234 O246 2.141 . S
C235 O236 1.313 . S
C235 O242 1.195 . S
O236 C235 1.313 . S
C237 O238 1.245 . S
C237 O246 1.289 . S
O238 C237 1.245 . S
C239 O240 1.245 . S
C239 O241 1.289 . S
O240 C239 1.245 . S
O241 Mg234 2.141 . S
O241 C239 1.289 . S
O242 Mg234 2.048 . S
O242 C235 1.195 . S
O243 Mg234 2.048 . S
O243 C244 1.195 . S
C244 O243 1.195 . S
C244 O245 1.313 . S
O245 C244 1.313 . S
O246 Mg234 2.141 . S
O246 C237 1.289 . S
Mg247 O254 2.141 . S
Mg247 O255 2.048 . S
Mg247 O256 2.048 . S
Mg247 O259 2.141 . S
C248 O249 1.313 . S
C248 O255 1.195 . S
O249 C248 1.313 . S
C250 O251 1.245 . S
C250 O259 1.289 . S
O251 C250 1.245 . S
C252 O253 1.245 . S
C252 O254 1.289 . S
O253 C252 1.245 . S
O254 Mg247 2.141 . S
O254 C252 1.289 . S
O255 Mg247 2.048 . S
O255 C248 1.195 . S
O256 Mg247 2.048 . S
O256 C257 1.195 . S
C257 O256 1.195 . S
C257 O258 1.313 . S
O258 C257 1.313 . S
O259 Mg247 2.141 . S
O259 C250 1.289 . S
Mg260 O267 2.141 . S
Mg260 O268 2.048 . S
Mg260 O269 2.048 . S
Mg260 O272 2.141 . S
C261 O262 1.313 . S
C261 O268 1.195 . S
O262 C261 1.313 . S
C263 O264 1.245 . S
C263 O272 1.289 . S
O264 C263 1.245 . S
C265 O266 1.245 . S
C265 O267 1.289 . S
O266 C265 1.245 . S
O267 Mg260 2.141 . S
O267 C265 1.289 . S
O268 Mg260 2.048 . S
O268 C261 1.195 . S
O269 Mg260 2.048 . S
O269 C270 1.195 . S
C270 O269 1.195 . S
C270 O271 1.313 . S
O271 C270 1.313 . S
O272 Mg260 2.141 . S
O272 C263 1.289 . S
Mg273 O280 2.141 . S
Mg273 O281 2.048 . S
Mg273 O282 2.048 . S
Mg273 O285 2.141 . S
C274 O275 1.313 . S
C274 O281 1.195 . S
O275 C274 1.313 . S
C276 O277 1.245 . S
C276 O285 1.289 . S
O277 C276 1.245 . S
C278 O279 1.245 . S
C278 O280 1.289 . S
O279 C278 1.245 . S
O280 Mg273 2.141 . S
O280 C278 1.289 . S
O281 Mg273 2.048 . S
O281 C274 1.195 . S
O282 Mg273 2.048 . S
O282 C283 1.195 . S
C283 O282 1.195 . S
C283 O284 1.313 . S
O284 C283 1.313 . S
O285 Mg273 2.141 . S
O285 C276 1.289 . S
Mg286 O293 2.141 . S
Mg286 O294 2.048 . S
Mg286 O295 2.048 . S
Mg286 O298 2.141 . S
C287 O288 1.313 . S
C287 O294 1.195 . S
O288 C287 1.313 . S
C289 O290 1.245 . S
C289 O298 1.289 . S
O290 C289 1.245 . S
C291 O292 1.245 . S
C291 O293 1.289 . S
O292 C291 1.245 . S
O293 Mg286 2.141 . S
O293 C291 1.289 . S
O294 Mg286 2.048 . S
O294 C287 1.195 . S
O295 Mg286 2.048 . S
O295 C296 1.195 . S
C296 O295 1.195 . S
C296 O297 1.313 . S
O297 C296 1.313 . S
O298 Mg286 2.141 . S
O298 C289 1.289 . S
Mg299 O306 2.141 . S
Mg299 O307 2.048 . S
Mg299 O308 2.048 . S
Mg299 O311 2.141 . S
C300 O301 1.313 . S
C300 O307 1.195 . S
O301 C300 1.313 . S
C302 O303 1.245 . S
C302 O311 1.289 . S
O303 C302 1.245 . S
C304 O305 1.245 . S
C304 O306 1.289 . S
O305 C304 1.245 . S
O306 Mg299 2.141 . S
O306 C304 1.289 . S
O307 Mg299 2.048 . S
O307 C300 1.195 . S
O308 Mg299 2.048 . S
O308 C309 1.195 . S
C309 O308 1.195 . S
C309 O310 1.313 . S
O310 C309 1.313 . S
O311 Mg299 2.141 . S
O311 C302 1.289 . S
Mg312 O319 2.141 . S
Mg312 O320 2.048 . S
Mg312 O321 2.048 . S
Mg312 O324 2.141 . S
C313 O314 1.313 . S
C313 O320 1.195 . S
O314 C313 1.313 . S
C315 O316 1.245 . S
C315 O324 1.289 . S
O316 C315 1.245 . S
C317 O318 1.245 . S
C317 O319 1.289 . S
O318 C317 1.245 . S
O319 Mg312 2.141 . S
O319 C317 1.289 . S
O320 Mg312 2.048 . S
O320 C313 1.195 . S
O321 Mg312 2.048 . S
O321 C322 1.195 . S
C322 O321 1.195 . S
C322 O323 1.313 . S
O323 C322 1.313 . S
O324 Mg312 2.141 . S
O324 C315 1.289 . S
Mg325 O332 2.141 . S
Mg325 O333 2.048 . S
Mg325 O334 2.048 . S
Mg325 O337 2.141 . S
C326 O327 1.313 . S
C326 O333 1.195 . S
O327 C326 1.313 . S
C328 O329 1.245 . S
C328 O337 1.289 . S
O329 C328 1.245 . S
C330 O331 1.245 . S
C330 O332 1.289 . S
O331 C330 1.245 . S
O332 Mg325 2.141 . S
O332 C330 1.289 . S
O333 Mg325 2.048 . S
O333 C326 1.195 . S
O334 Mg325 2.048 . S
O334 C335 1.195 . S
C335 O334 1.195 . S
C335 O336 1.313 . S
O336 C335 1.313 . S
O337 Mg325 2.141 . S
O337 C328 1.289 . S
Mg338 O345 2.141 1_554 S
Mg338 O346 2.049 . S
Mg338 O347 2.047 . S
Mg338 O350 2.140 1_554 S
C339 O340 1.313 . S
C339 O346 1.195 . S
O340 C339 1.313 . S
C341 O342 1.245 . S
C341 O350 1.289 . S
O342 C341 1.245 . S
C343 O344 1.245 . S
C343 O345 1.289 . S
O344 C343 1.245 . S
O345 Mg338 2.141 1_556 S
O345 C343 1.289 . S
O346 Mg338 2.049 . S
O346 C339 1.195 . S
O347 Mg338 2.047 . S
O347 C348 1.201 . S
C348 O347 1.201 . S
C348 O349 1.313 . S
O349 C348 1.313 . S
O350 Mg338 2.140 1_556 S
O350 C341 1.289 . S
Mg351 O358 2.141 1_554 S
Mg351 O359 2.049 . S
Mg351 O360 2.047 . S
Mg351 O363 2.140 1_554 S
C352 O353 1.313 . S
C352 O359 1.195 . S
O353 C352 1.313 . S
C354 O355 1.245 . S
C354 O363 1.289 . S
O355 C354 1.245 . S
C356 O357 1.245 . S
C356 O358 1.289 . S
O357 C356 1.245 . S
O358 Mg351 2.141 1_556 S
O358 C356 1.289 . S
O359 Mg351 2.049 . S
O359 C352 1.195 . S
O360 Mg351 2.047 . S
O360 C361 1.201 . S
C361 O360 1.201 . S
C361 O362 1.313 . S
O362 C361 1.313 . S
O363 Mg351 2.140 1_556 S
O363 C354 1.289 . S
Mg364 O371 2.141 . S
Mg364 O372 2.048 . S
Mg364 O373 2.048 . S
Mg364 O376 2.141 . S
C365 O366 1.313 . S
C365 O372 1.195 . S
O366 C365 1.313 . S
C367 O368 1.245 . S
C367 O376 1.289 . S
O368 C367 1.245 . S
C369 O370 1.245 . S
C369 O371 1.289 . S
O370 C369 1.245 . S
O371 Mg364 2.141 . S
O371 C369 1.289 . S
O372 Mg364 2.048 . S
O372 C365 1.195 . S
O373 Mg364 2.048 . S
O373 C374 1.195 . S
C374 O373 1.195 . S
C374 O375 1.313 . S
O375 C374 1.313 . S
O376 Mg364 2.141 . S
O376 C367 1.289 . S
Mg377 O384 2.141 . S
Mg377 O385 2.048 . S
Mg377 O386 2.048 . S
Mg377 O389 2.141 . S
C378 O379 1.313 . S
C378 O385 1.195 . S
O379 C378 1.313 . S
C380 O381 1.245 . S
C380 O389 1.289 . S
O381 C380 1.245 . S
C382 O383 1.245 . S
C382 O384 1.289 . S
O383 C382 1.245 . S
O384 Mg377 2.141 . S
O384 C382 1.289 . S
O385 Mg377 2.048 . S
O385 C378 1.195 . S
O386 Mg377 2.048 . S
O386 C387 1.195 . S
C387 O386 1.195 . S
C387 O388 1.313 . S
O388 C387 1.313 . S
O389 Mg377 2.141 . S
O389 C380 1.289 . S
Mg390 O397 2.141 . S
Mg390 O398 2.048 1_554 S
Mg390 O399 2.048 . S
Mg390 O402 2.141 . S
C391 O392 1.313 . S
C391 O398 1.195 . S
O392 C391 1.313 . S
C393 O394 1.245 . S
C393 O402 1.289 . S
O394 C393 1.245 . S
C395 O396 1.245 1_554 S
C395 O397 1.289 . S
O396 C395 1.245 1_556 S
O397 Mg390 2.141 . S
O397 C395 1.289 . S
O398 Mg390 2.048 1_556 S
O398 C391 1.195 . S
O399 Mg390 2.048 . S
O399 C400 1.190 1_554 S
C400 O399 1.190 1_556 S
C400 O401 1.313 . S
O401 C400 1.313 . S
O402 Mg390 2.141 . S
O402 C393 1.289 . S
Mg403 O410 2.141 . S
Mg403 O411 2.048 1_554 S
Mg403 O412 2.048 . S
Mg403 O415 2.141 . S
C404 O405 1.313 . S
C404 O411 1.195 . S
O405 C404 1.313 . S
C406 O407 1.245 . S
C406 O415 1.289 . S
O407 C406 1.245 . S
C408 O409 1.245 1_554 S
C408 O410 1.289 . S
O409 C408 1.245 1_556 S
O410 Mg403 2.141 . S
O410 C408 1.289 . S
O411 Mg403 2.048 1_556 S
O411 C404 1.195 . S
O412 Mg403 2.048 . S
O412 C413 1.190 1_554 S
C413 O412 1.190 1_556 S
C413 O414 1.313 . S
O414 C413 1.313 . S
O415 Mg403 2.141 . S
O415 C406 1.289 . S
H416 C424 0.950 . S
H417 C429 0.950 . S
H418 C426 0.950 . S
H419 C428 0.950 . S
H420 C430 0.950 . S
H421 C432 0.950 . S
H422 C434 0.950 . S
H423 C435 0.950 . S
C424 H416 0.950 . S
C424 C425 1.386 . S
C424 C426 1.391 . S
C425 C424 1.386 . S
C425 C429 1.393 . S
C426 H418 0.950 . S
C426 C424 1.391 . S
C426 C427 1.400 . S
C427 C426 1.400 . S
C427 C428 1.398 . S
C427 C433 1.491 . S
C428 H419 0.950 . S
C428 C427 1.398 . S
C428 C429 1.391 . S
C429 H417 0.950 . S
C429 C425 1.393 . S
C429 C428 1.391 . S
C430 H420 0.950 . S
C430 C431 1.386 . S
C430 C432 1.391 . S
C431 C430 1.386 . S
C431 C435 1.393 . S
C432 H421 0.950 . S
C432 C430 1.391 . S
C432 C433 1.400 . S
C433 C427 1.491 . S
C433 C432 1.400 . S
C433 C434 1.398 . S
C434 H422 0.950 . S
C434 C433 1.398 . S
C434 C435 1.391 . S
C435 H423 0.950 . S
C435 C431 1.393 . S
C435 C434 1.391 . S
H436 C444 0.950 . S
H437 C449 0.950 . S
H438 C446 0.950 . S
H439 C448 0.950 . S
H440 C450 0.950 . S
H441 C452 0.950 . S
H442 C454 0.950 . S
H443 C455 0.950 . S
C444 H436 0.950 . S
C444 C445 1.386 . S
C444 C446 1.391 . S
C445 C444 1.386 . S
C445 C449 1.393 . S
C446 H438 0.950 . S
C446 C444 1.391 . S
C446 C447 1.400 . S
C447 C446 1.400 . S
C447 C448 1.398 . S
C447 C453 1.491 . S
C448 H439 0.950 . S
C448 C447 1.398 . S
C448 C449 1.391 . S
C449 H437 0.950 . S
C449 C445 1.393 . S
C449 C448 1.391 . S
C450 H440 0.950 . S
C450 C451 1.386 . S
C450 C452 1.391 . S
C451 C450 1.386 . S
C451 C455 1.393 . S
C452 H441 0.950 . S
C452 C450 1.391 . S
C452 C453 1.400 . S
C453 C447 1.491 . S
C453 C452 1.400 . S
C453 C454 1.398 . S
C454 H442 0.950 . S
C454 C453 1.398 . S
C454 C455 1.391 . S
C455 H443 0.950 . S
C455 C451 1.393 . S
C455 C454 1.391 . S
H456 C464 0.950 . S
H457 C469 0.950 . S
H458 C466 0.950 . S
H459 C468 0.950 . S
H460 C470 0.950 . S
H461 C472 0.950 . S
H462 C474 0.950 . S
H463 C475 0.950 . S
C464 H456 0.950 . S
C464 C465 1.386 . S
C464 C466 1.391 . S
C465 C464 1.386 . S
C465 C469 1.393 . S
C466 H458 0.950 . S
C466 C464 1.391 . S
C466 C467 1.400 . S
C467 C466 1.400 . S
C467 C468 1.398 . S
C467 C473 1.491 . S
C468 H459 0.950 . S
C468 C467 1.398 . S
C468 C469 1.391 . S
C469 H457 0.950 . S
C469 C465 1.393 . S
C469 C468 1.391 . S
C470 H460 0.950 . S
C470 C471 1.386 . S
C470 C472 1.391 . S
C471 C470 1.386 . S
C471 C475 1.393 . S
C472 H461 0.950 . S
C472 C470 1.391 . S
C472 C473 1.400 . S
C473 C467 1.491 . S
C473 C472 1.400 . S
C473 C474 1.398 . S
C474 H462 0.950 . S
C474 C473 1.398 . S
C474 C475 1.391 . S
C475 H463 0.950 . S
C475 C471 1.393 . S
C475 C474 1.391 . S
H476 C484 0.950 . S
H477 C489 0.950 . S
H478 C486 0.950 . S
H479 C488 0.950 . S
H480 C490 0.950 . S
H481 C492 0.950 . S
H482 C494 0.950 . S
H483 C495 0.950 . S
C484 H476 0.950 . S
C484 C485 1.386 . S
C484 C486 1.391 . S
C485 C484 1.386 . S
C485 C489 1.393 . S
C486 H478 0.950 . S
C486 C484 1.391 . S
C486 C487 1.400 . S
C487 C486 1.400 . S
C487 C488 1.398 . S
C487 C493 1.491 . S
C488 H479 0.950 . S
C488 C487 1.398 . S
C488 C489 1.391 . S
C489 H477 0.950 . S
C489 C485 1.393 . S
C489 C488 1.391 . S
C490 H480 0.950 . S
C490 C491 1.386 . S
C490 C492 1.391 . S
C491 C490 1.386 . S
C491 C495 1.393 . S
C492 H481 0.950 . S
C492 C490 1.391 . S
C492 C493 1.400 . S
C493 C487 1.491 . S
C493 C492 1.400 . S
C493 C494 1.398 . S
C494 H482 0.950 . S
C494 C493 1.398 . S
C494 C495 1.391 . S
C495 H483 0.950 . S
C495 C491 1.393 . S
C495 C494 1.391 . S
H496 C504 0.950 . S
H497 C509 0.950 . S
H498 C506 0.950 . S
H499 C508 0.950 . S
H500 C510 0.950 . S
H501 C512 0.950 . S
H502 C514 0.950 . S
H503 C515 0.950 . S
C504 H496 0.950 . S
C504 C505 1.386 . S
C504 C506 1.391 . S
C505 C504 1.386 . S
C505 C509 1.393 . S
C506 H498 0.950 . S
C506 C504 1.391 . S
C506 C507 1.400 . S
C507 C506 1.400 . S
C507 C508 1.398 . S
C507 C513 1.491 . S
C508 H499 0.950 . S
C508 C507 1.398 . S
C508 C509 1.391 . S
C509 H497 0.950 . S
C509 C505 1.393 . S
C509 C508 1.391 . S
C510 H500 0.950 . S
C510 C511 1.386 . S
C510 C512 1.391 . S
C511 C510 1.386 . S
C511 C515 1.393 . S
C512 H501 0.950 . S
C512 C510 1.391 . S
C512 C513 1.400 . S
C513 C507 1.491 . S
C513 C512 1.400 . S
C513 C514 1.398 . S
C514 H502 0.950 . S
C514 C513 1.398 . S
C514 C515 1.391 . S
C515 H503 0.950 . S
C515 C511 1.393 . S
C515 C514 1.391 . S
H516 C524 0.950 . S
H517 C529 0.950 . S
H518 C526 0.950 . S
H519 C528 0.950 . S
H520 C530 0.950 . S
H521 C532 0.950 . S
H522 C534 0.950 . S
H523 C535 0.950 . S
C524 H516 0.950 . S
C524 C525 1.386 . S
C524 C526 1.391 . S
C525 C524 1.386 . S
C525 C529 1.393 . S
C526 H518 0.950 . S
C526 C524 1.391 . S
C526 C527 1.400 . S
C527 C526 1.400 . S
C527 C528 1.398 . S
C527 C533 1.491 . S
C528 H519 0.950 . S
C528 C527 1.398 . S
C528 C529 1.391 . S
C529 H517 0.950 . S
C529 C525 1.393 . S
C529 C528 1.391 . S
C530 H520 0.950 . S
C530 C531 1.386 . S
C530 C532 1.391 . S
C531 C530 1.386 . S
C531 C535 1.393 . S
C532 H521 0.950 . S
C532 C530 1.391 . S
C532 C533 1.400 . S
C533 C527 1.491 . S
C533 C532 1.400 . S
C533 C534 1.398 . S
C534 H522 0.950 . S
C534 C533 1.398 . S
C534 C535 1.391 . S
C535 H523 0.950 . S
C535 C531 1.393 . S
C535 C534 1.391 . S
H536 C544 0.950 . S
H537 C549 0.950 . S
H538 C546 0.950 . S
H539 C548 0.950 . S
H540 C550 0.950 . S
H541 C552 0.950 . S
H542 C554 0.950 . S
H543 C555 0.950 . S
C544 H536 0.950 . S
C544 C545 1.386 . S
C544 C546 1.391 . S
C545 C544 1.386 . S
C545 C549 1.393 . S
C546 H538 0.950 . S
C546 C544 1.391 . S
C546 C547 1.400 . S
C547 C546 1.400 . S
C547 C548 1.398 . S
C547 C553 1.491 . S
C548 H539 0.950 . S
C548 C547 1.398 . S
C548 C549 1.391 . S
C549 H537 0.950 . S
C549 C545 1.393 . S
C549 C548 1.391 . S
C550 H540 0.950 . S
C550 C551 1.386 . S
C550 C552 1.391 . S
C551 C550 1.386 . S
C551 C555 1.393 . S
C552 H541 0.950 . S
C552 C550 1.391 . S
C552 C553 1.400 . S
C553 C547 1.491 . S
C553 C552 1.400 . S
C553 C554 1.398 . S
C554 H542 0.950 . S
C554 C553 1.398 . S
C554 C555 1.391 . S
C555 H543 0.950 . S
C555 C551 1.393 . S
C555 C554 1.391 . S
H556 C564 0.950 . S
H557 C569 0.950 . S
H558 C566 0.950 . S
H559 C568 0.950 . S
H560 C570 0.950 . S
H561 C572 0.950 . S
H562 C574 0.950 . S
H563 C575 0.950 . S
C564 H556 0.950 . S
C564 C565 1.386 . S
C564 C566 1.391 . S
C565 C564 1.386 . S
C565 C569 1.393 . S
C566 H558 0.950 . S
C566 C564 1.391 . S
C566 C567 1.400 . S
C567 C566 1.400 . S
C567 C568 1.398 . S
C567 C573 1.491 . S
C568 H559 0.950 . S
C568 C567 1.398 . S
C568 C569 1.391 . S
C569 H557 0.950 . S
C569 C565 1.393 . S
C569 C568 1.391 . S
C570 H560 0.950 . S
C570 C571 1.386 . S
C570 C572 1.391 . S
C571 C570 1.386 . S
C571 C575 1.393 . S
C572 H561 0.950 . S
C572 C570 1.391 . S
C572 C573 1.400 . S
C573 C567 1.491 . S
C573 C572 1.400 . S
C573 C574 1.398 . S
C574 H562 0.950 . S
C574 C573 1.398 . S
C574 C575 1.391 . S
C575 H563 0.950 . S
C575 C571 1.393 . S
C575 C574 1.391 . S
H576 C584 0.950 . S
H577 C589 0.950 . S
H578 C586 0.950 . S
H579 C588 0.950 . S
H580 C590 0.950 . S
H581 C592 0.950 . S
H582 C594 0.950 . S
H583 C595 0.950 . S
C584 H576 0.950 . S
C584 C585 1.386 . S
C584 C586 1.391 . S
C585 C584 1.386 . S
C585 C589 1.393 . S
C586 H578 0.950 . S
C586 C584 1.391 . S
C586 C587 1.400 . S
C587 C586 1.400 . S
C587 C588 1.398 . S
C587 C593 1.491 . S
C588 H579 0.950 . S
C588 C587 1.398 . S
C588 C589 1.391 . S
C589 H577 0.950 . S
C589 C585 1.393 . S
C589 C588 1.391 . S
C590 H580 0.950 . S
C590 C591 1.386 . S
C590 C592 1.391 . S
C591 C590 1.386 . S
C591 C595 1.393 . S
C592 H581 0.950 . S
C592 C590 1.391 . S
C592 C593 1.400 . S
C593 C587 1.491 . S
C593 C592 1.400 . S
C593 C594 1.398 . S
C594 H582 0.950 . S
C594 C593 1.398 . S
C594 C595 1.391 . S
C595 H583 0.950 . S
C595 C591 1.393 . S
C595 C594 1.391 . S
H596 C604 0.950 . S
H597 C609 0.950 . S
H598 C606 0.950 . S
H599 C608 0.950 . S
H600 C610 0.950 . S
H601 C612 0.950 . S
H602 C614 0.950 . S
H603 C615 0.950 . S
C604 H596 0.950 . S
C604 C605 1.386 . S
C604 C606 1.391 . S
C605 C604 1.386 . S
C605 C609 1.393 . S
C606 H598 0.950 . S
C606 C604 1.391 . S
C606 C607 1.400 . S
C607 C606 1.400 . S
C607 C608 1.398 . S
C607 C613 1.491 . S
C608 H599 0.950 . S
C608 C607 1.398 . S
C608 C609 1.391 . S
C609 H597 0.950 . S
C609 C605 1.393 . S
C609 C608 1.391 . S
C610 H600 0.950 . S
C610 C611 1.386 . S
C610 C612 1.391 . S
C611 C610 1.386 . S
C611 C615 1.393 . S
C612 H601 0.950 . S
C612 C610 1.391 . S
C612 C613 1.400 . S
C613 C607 1.491 . S
C613 C612 1.400 . S
C613 C614 1.398 . S
C614 H602 0.950 . S
C614 C613 1.398 . S
C614 C615 1.391 . S
C615 H603 0.950 . S
C615 C611 1.393 . S
C615 C614 1.391 . S
H616 C624 0.950 . S
H617 C629 0.950 . S
H618 C626 0.950 . S
H619 C628 0.950 . S
H620 C630 0.950 . S
H621 C632 0.950 . S
H622 C634 0.950 . S
H623 C635 0.950 . S
C624 H616 0.950 . S
C624 C625 1.386 . S
C624 C626 1.391 . S
C625 C624 1.386 . S
C625 C629 1.393 . S
C626 H618 0.950 . S
C626 C624 1.391 . S
C626 C627 1.400 . S
C627 C626 1.400 . S
C627 C628 1.398 . S
C627 C633 1.491 . S
C628 H619 0.950 . S
C628 C627 1.398 . S
C628 C629 1.391 . S
C629 H617 0.950 . S
C629 C625 1.393 . S
C629 C628 1.391 . S
C630 H620 0.950 . S
C630 C631 1.386 . S
C630 C632 1.391 . S
C631 C630 1.386 . S
C631 C635 1.393 . S
C632 H621 0.950 . S
C632 C630 1.391 . S
C632 C633 1.400 . S
C633 C627 1.491 . S
C633 C632 1.400 . S
C633 C634 1.398 . S
C634 H622 0.950 . S
C634 C633 1.398 . S
C634 C635 1.391 . S
C635 H623 0.950 . S
C635 C631 1.393 . S
C635 C634 1.391 . S
H636 C644 0.950 . S
H637 C649 0.950 . S
H638 C646 0.950 . S
H639 C648 0.950 . S
H640 C650 0.950 . S
H641 C652 0.950 . S
H642 C654 0.950 . S
H643 C655 0.950 . S
C644 H636 0.950 . S
C644 C645 1.386 . S
C644 C646 1.391 . S
C645 C644 1.386 . S
C645 C649 1.393 . S
C646 H638 0.950 . S
C646 C644 1.391 . S
C646 C647 1.400 . S
C647 C646 1.400 . S
C647 C648 1.398 . S
C647 C653 1.491 . S
C648 H639 0.950 . S
C648 C647 1.398 . S
C648 C649 1.391 . S
C649 H637 0.950 . S
C649 C645 1.393 . S
C649 C648 1.391 . S
C650 H640 0.950 . S
C650 C651 1.386 . S
C650 C652 1.391 . S
C651 C650 1.386 . S
C651 C655 1.393 . S
C652 H641 0.950 . S
C652 C650 1.391 . S
C652 C653 1.400 . S
C653 C647 1.491 . S
C653 C652 1.400 . S
C653 C654 1.398 . S
C654 H642 0.950 . S
C654 C653 1.398 . S
C654 C655 1.391 . S
C655 H643 0.950 . S
C655 C651 1.393 . S
C655 C654 1.391 . S
H656 C664 0.950 . S
H657 C669 0.950 . S
H658 C666 0.950 . S
H659 C668 0.950 . S
H660 C670 0.950 . S
H661 C672 0.950 . S
H662 C674 0.950 . S
H663 C675 0.950 . S
C664 H656 0.950 . S
C664 C665 1.386 . S
C664 C666 1.391 . S
C665 C664 1.386 . S
C665 C669 1.393 . S
C666 H658 0.950 . S
C666 C664 1.391 . S
C666 C667 1.400 . S
C667 C666 1.400 . S
C667 C668 1.398 . S
C667 C673 1.491 . S
C668 H659 0.950 . S
C668 C667 1.398 . S
C668 C669 1.391 . S
C669 H657 0.950 . S
C669 C665 1.393 . S
C669 C668 1.391 . S
C670 H660 0.950 . S
C670 C671 1.386 . S
C670 C672 1.391 . S
C671 C670 1.386 . S
C671 C675 1.393 . S
C672 H661 0.950 . S
C672 C670 1.391 . S
C672 C673 1.400 . S
C673 C667 1.491 . S
C673 C672 1.400 . S
C673 C674 1.398 . S
C674 H662 0.950 . S
C674 C673 1.398 . S
C674 C675 1.391 . S
C675 H663 0.950 . S
C675 C671 1.393 . S
C675 C674 1.391 . S
H676 C684 0.950 . S
H677 C689 0.950 . S
H678 C686 0.950 . S
H679 C688 0.950 . S
H680 C690 0.950 . S
H681 C692 0.950 . S
H682 C694 0.950 . S
H683 C695 0.950 . S
C684 H676 0.950 . S
C684 C685 1.386 . S
C684 C686 1.391 . S
C685 C684 1.386 . S
C685 C689 1.393 . S
C686 H678 0.950 . S
C686 C684 1.391 . S
C686 C687 1.400 . S
C687 C686 1.400 . S
C687 C688 1.398 . S
C687 C693 1.491 . S
C688 H679 0.950 . S
C688 C687 1.398 . S
C688 C689 1.391 . S
C689 H677 0.950 . S
C689 C685 1.393 . S
C689 C688 1.391 . S
C690 H680 0.950 . S
C690 C691 1.386 . S
C690 C692 1.391 . S
C691 C690 1.386 . S
C691 C695 1.393 . S
C692 H681 0.950 . S
C692 C690 1.391 . S
C692 C693 1.400 . S
C693 C687 1.491 . S
C693 C692 1.400 . S
C693 C694 1.398 . S
C694 H682 0.950 . S
C694 C693 1.398 . S
C694 C695 1.391 . S
C695 H683 0.950 . S
C695 C691 1.393 . S
C695 C694 1.391 . S
H696 C704 0.950 . S
H697 C709 0.950 . S
H698 C706 0.950 . S
H699 C708 0.950 . S
H700 C710 0.950 . S
H701 C712 0.950 . S
H702 C714 0.950 . S
H703 C715 0.950 . S
C704 H696 0.950 . S
C704 C705 1.386 . S
C704 C706 1.391 . S
C705 C704 1.386 . S
C705 C709 1.393 . S
C706 H698 0.950 . S
C706 C704 1.391 . S
C706 C707 1.400 . S
C707 C706 1.400 . S
C707 C708 1.398 . S
C707 C713 1.491 . S
C708 H699 0.950 . S
C708 C707 1.398 . S
C708 C709 1.391 . S
C709 H697 0.950 . S
C709 C705 1.393 . S
C709 C708 1.391 . S
C710 H700 0.950 . S
C710 C711 1.386 . S
C710 C712 1.391 . S
C711 C710 1.386 . S
C711 C715 1.393 . S
C712 H701 0.950 . S
C712 C710 1.391 . S
C712 C713 1.400 . S
C713 C707 1.491 . S
C713 C712 1.400 . S
C713 C714 1.398 . S
C714 H702 0.950 . S
C714 C713 1.398 . S
C714 C715 1.391 . S
C715 H703 0.950 . S
C715 C711 1.393 . S
C715 C714 1.391 . S
H716 C724 0.950 . S
H717 C729 0.950 . S
H718 C726 0.950 . S
H719 C728 0.950 . S
H720 C730 0.950 . S
H721 C732 0.950 . S
H722 C734 0.950 . S
H723 C735 0.950 . S
C724 H716 0.950 . S
C724 C725 1.386 . S
C724 C726 1.391 . S
C725 C724 1.386 . S
C725 C729 1.393 . S
C726 H718 0.950 . S
C726 C724 1.391 . S
C726 C727 1.400 . S
C727 C726 1.400 . S
C727 C728 1.398 . S
C727 C733 1.491 . S
C728 H719 0.950 . S
C728 C727 1.398 . S
C728 C729 1.391 . S
C729 H717 0.950 . S
C729 C725 1.393 . S
C729 C728 1.391 . S
C730 H720 0.950 . S
C730 C731 1.386 . S
C730 C732 1.391 . S
C731 C730 1.386 . S
C731 C735 1.393 . S
C732 H721 0.950 . S
C732 C730 1.391 . S
C732 C733 1.400 . S
C733 C727 1.491 . S
C733 C732 1.400 . S
C733 C734 1.398 . S
C734 H722 0.950 . S
C734 C733 1.398 . S
C734 C735 1.391 . S
C735 H723 0.950 . S
C735 C731 1.393 . S
C735 C734 1.391 . S
H736 C744 0.950 . S
H737 C749 0.950 . S
H738 C746 0.950 . S
H739 C748 0.950 . S
H740 C750 0.950 . S
H741 C752 0.950 . S
H742 C754 0.950 . S
H743 C755 0.950 . S
C744 H736 0.950 . S
C744 C745 1.386 . S
C744 C746 1.391 . S
C745 C744 1.386 . S
C745 C749 1.393 . S
C746 H738 0.950 . S
C746 C744 1.391 . S
C746 C747 1.400 . S
C747 C746 1.400 . S
C747 C748 1.398 1_655 S
C747 C753 1.491 1_655 S
C748 H739 0.950 . S
C748 C747 1.398 1_455 S
C748 C749 1.391 1_455 S
C749 H737 0.950 . S
C749 C745 1.393 . S
C749 C748 1.391 1_655 S
C750 H740 0.950 . S
C750 C751 1.386 . S
C750 C752 1.391 . S
C751 C750 1.386 . S
C751 C755 1.393 . S
C752 H741 0.950 . S
C752 C750 1.391 . S
C752 C753 1.400 . S
C753 C747 1.491 1_455 S
C753 C752 1.400 . S
C753 C754 1.398 1_455 S
C754 H742 0.950 . S
C754 C753 1.398 1_655 S
C754 C755 1.391 1_655 S
C755 H743 0.950 . S
C755 C751 1.393 . S
C755 C754 1.391 1_455 S
H756 C764 0.950 . S
H757 C769 0.950 . S
H758 C766 0.950 1_545 S
H759 C768 0.950 . S
H760 C770 0.950 . S
H761 C772 0.950 1_565 S
H762 C774 0.950 . S
H763 C775 0.950 . S
C764 H756 0.950 . S
C764 C765 1.386 . S
C764 C766 1.391 . S
C765 C764 1.386 . S
C765 C769 1.393 . S
C766 H758 0.950 1_565 S
C766 C764 1.391 . S
C766 C767 1.400 . S
C767 C766 1.400 . S
C767 C768 1.398 . S
C767 C773 1.491 1_565 S
C768 H759 0.950 . S
C768 C767 1.398 . S
C768 C769 1.391 . S
C769 H757 0.950 . S
C769 C765 1.393 . S
C769 C768 1.391 . S
C770 H760 0.950 . S
C770 C771 1.386 . S
C770 C772 1.391 . S
C771 C770 1.386 . S
C771 C775 1.393 . S
C772 H761 0.950 1_545 S
C772 C770 1.391 . S
C772 C773 1.400 . S
C773 C767 1.491 1_545 S
C773 C772 1.400 . S
C773 C774 1.398 . S
C774 H762 0.950 . S
C774 C773 1.398 . S
C774 C775 1.391 . S
C775 H763 0.950 . S
C775 C771 1.393 . S
C775 C774 1.391 . S
H776 C784 0.950 . S
H777 C789 0.950 . S
H778 C786 0.950 1_545 S
H779 C788 0.950 . S
H780 C790 0.950 . S
H781 C792 0.950 1_565 S
H782 C794 0.950 . S
H783 C795 0.950 . S
C784 H776 0.950 . S
C784 C785 1.386 . S
C784 C786 1.391 . S
C785 C784 1.386 . S
C785 C789 1.393 1_556 S
C786 H778 0.950 1_565 S
C786 C784 1.391 . S
C786 C787 1.416 . S
C787 C786 1.416 . S
C787 C788 1.386 1_456 S
C787 C793 1.489 1_466 S
C788 H779 0.950 . S
C788 C787 1.386 1_654 S
C788 C789 1.391 1_655 S
C789 H777 0.950 . S
C789 C785 1.393 1_554 S
C789 C788 1.391 1_455 S
C790 H780 0.950 . S
C790 C791 1.386 . S
C790 C792 1.391 . S
C791 C790 1.386 . S
C791 C795 1.393 1_554 S
C792 H781 0.950 1_545 S
C792 C790 1.391 . S
C792 C793 1.410 . S
C793 C787 1.489 1_644 S
C793 C792 1.410 . S
C793 C794 1.390 1_654 S
C794 H782 0.950 . S
C794 C793 1.390 1_456 S
C794 C795 1.391 1_455 S
C795 H783 0.950 . S
C795 C791 1.393 1_556 S
C795 C794 1.391 1_655 S
H796 C804 0.950 . S
H797 C809 0.950 . S
H798 C806 0.950 . S
H799 C808 0.950 . S
H800 C810 0.950 . S
H801 C812 0.950 . S
H802 C814 0.950 . S
H803 C815 0.950 . S
C804 H796 0.950 . S
C804 C805 1.386 . S
C804 C806 1.391 . S
C805 C804 1.386 . S
C805 C809 1.393 1_554 S
C806 H798 0.950 . S
C806 C804 1.391 . S
C806 C807 1.413 . S
C807 C806 1.413 . S
C807 C808 1.389 1_554 S
C807 C813 1.489 1_554 S
C808 H799 0.950 . S
C808 C807 1.389 1_556 S
C808 C809 1.391 . S
C809 H797 0.950 . S
C809 C805 1.393 1_556 S
C809 C808 1.391 . S
C810 H800 0.950 . S
C810 C811 1.386 . S
C810 C812 1.391 . S
C811 C810 1.386 . S
C811 C815 1.393 1_556 S
C812 H801 0.950 . S
C812 C810 1.391 . S
C812 C813 1.409 . S
C813 C807 1.489 1_556 S
C813 C812 1.409 . S
C813 C814 1.392 1_556 S
C814 H802 0.950 . S
C814 C813 1.392 1_554 S
C814 C815 1.391 . S
C815 H803 0.950 . S
C815 C811 1.393 1_554 S
C815 C814 1.391 . S
H816 C824 0.950 . S
H817 C829 0.950 . S
H818 C826 0.937 1_455 S
H819 C828 0.950 . S
H820 C830 0.950 . S
H821 C832 0.941 1_655 S
H822 C834 0.950 . S
H823 C835 0.950 . S
C824 H816 0.950 . S
C824 C825 1.386 . S
C824 C826 1.391 . S
C825 C824 1.386 . S
C825 C829 1.393 . S
C826 H818 0.937 1_655 S
C826 C824 1.391 . S
C826 C827 1.400 . S
C827 C826 1.400 . S
C827 C828 1.398 . S
C827 C833 1.491 1_655 S
C828 H819 0.950 . S
C828 C827 1.398 . S
C828 C829 1.391 . S
C829 H817 0.950 . S
C829 C825 1.393 . S
C829 C828 1.391 . S
C830 H820 0.950 . S
C830 C831 1.386 . S
C830 C832 1.391 . S
C831 C830 1.386 . S
C831 C835 1.393 . S
C832 H821 0.941 1_455 S
C832 C830 1.391 . S
C832 C833 1.400 . S
C833 C827 1.491 1_455 S
C833 C832 1.400 . S
C833 C834 1.398 . S
C834 H822 0.950 . S
C834 C833 1.398 . S
C834 C835 1.391 . S
C835 H823 0.950 . S
C835 C831 1.393 . S
C835 C834 1.391 . S
H836 C844 0.950 . S
H837 C849 0.950 . S
H838 C846 0.950 . S
H839 C848 0.955 . S
H840 C850 0.950 . S
H841 C852 0.950 . S
H842 C854 0.972 . S
H843 C855 0.950 . S
C844 H836 0.950 . S
C844 C845 1.386 . S
C844 C846 1.391 . S
C845 C844 1.386 . S
C845 C849 1.393 . S
C846 H838 0.950 . S
C846 C844 1.391 . S
C846 C847 1.400 . S
C847 C846 1.400 . S
C847 C848 1.398 . S
C847 C853 1.491 1_565 S
C848 H839 0.955 . S
C848 C847 1.398 . S
C848 C849 1.391 . S
C849 H837 0.950 . S
C849 C845 1.393 . S
C849 C848 1.391 . S
C850 H840 0.950 . S
C850 C851 1.386 . S
C850 C852 1.391 . S
C851 C850 1.386 . S
C851 C855 1.393 . S
C852 H841 0.950 . S
C852 C850 1.391 . S
C852 C853 1.400 . S
C853 C847 1.491 1_545 S
C853 C852 1.400 . S
C853 C854 1.398 . S
C854 H842 0.972 . S
C854 C853 1.398 . S
C854 C855 1.391 . S
C855 H843 0.950 . S
C855 C851 1.393 . S
C855 C854 1.391 . S
H856 C864 0.950 . S
H857 C869 0.950 . S
H858 C866 0.950 . S
H859 C868 0.950 . S
H860 C870 0.950 . S
H861 C872 0.950 . S
H862 C874 0.950 . S
H863 C875 0.950 . S
C864 H856 0.950 . S
C864 C865 1.380 1_554 S
C864 C866 1.391 . S
C865 C864 1.380 1_556 S
C865 C869 1.398 . S
C866 H858 0.950 . S
C866 C864 1.391 . S
C866 C867 1.399 . S
C867 C866 1.399 . S
C867 C868 1.399 1_554 S
C867 C873 1.491 1_554 S
C868 H859 0.950 . S
C868 C867 1.399 1_556 S
C868 C869 1.391 . S
C869 H857 0.950 . S
C869 C865 1.398 . S
C869 C868 1.391 . S
C870 H860 0.950 . S
C870 C871 1.382 1_556 S
C870 C872 1.391 . S
C871 C870 1.382 1_554 S
C871 C875 1.396 . S
C872 H861 0.950 . S
C872 C870 1.391 . S
C872 C873 1.402 . S
C873 C867 1.491 1_556 S
C873 C872 1.402 . S
C873 C874 1.397 1_556 S
C874 H862 0.950 . S
C874 C873 1.397 1_554 S
C874 C875 1.391 . S
C875 H863 0.950 . S
C875 C871 1.396 . S
C875 C874 1.391 . S
H876 C884 0.950 . S
H877 C889 0.950 . S
H878 C886 0.950 . S
H879 C888 0.950 . S
H880 C890 0.950 . S
H881 C892 0.950 . S
H882 C894 0.950 . S
H883 C895 0.950 . S
C884 H876 0.950 . S
C884 C885 1.386 . S
C884 C886 1.391 . S
C885 C884 1.386 . S
C885 C889 1.393 . S
C886 H878 0.950 . S
C886 C884 1.391 . S
C886 C887 1.400 . S
C887 C886 1.400 . S
C887 C888 1.398 . S
C887 C893 1.491 . S
C888 H879 0.950 . S
C888 C887 1.398 . S
C888 C889 1.391 . S
C889 H877 0.950 . S
C889 C885 1.393 . S
C889 C888 1.391 . S
C890 H880 0.950 . S
C890 C891 1.386 . S
C890 C892 1.391 . S
C891 C890 1.386 . S
C891 C895 1.393 . S
C892 H881 0.950 . S
C892 C890 1.391 . S
C892 C893 1.400 . S
C893 C887 1.491 . S
C893 C892 1.400 . S
C893 C894 1.398 . S
C894 H882 0.950 . S
C894 C893 1.398 . S
C894 C895 1.391 . S
C895 H883 0.950 . S
C895 C891 1.393 . S
C895 C894 1.391 . S
H896 C904 0.950 . S
H897 C909 0.950 . S
H898 C906 0.950 . S
H899 C908 0.950 . S
H900 C910 0.950 . S
H901 C912 0.950 . S
H902 C914 0.950 . S
H903 C915 0.950 . S
C904 H896 0.950 . S
C904 C905 1.386 . S
C904 C906 1.391 1_655 S
C905 C904 1.386 . S
C905 C909 1.393 . S
C906 H898 0.950 . S
C906 C904 1.391 1_455 S
C906 C907 1.400 1_455 S
C907 C906 1.400 1_655 S
C907 C908 1.398 . S
C907 C913 1.491 1_655 S
C908 H899 0.950 . S
C908 C907 1.398 . S
C908 C909 1.391 . S
C909 H897 0.950 . S
C909 C905 1.393 . S
C909 C908 1.391 . S
C910 H900 0.950 . S
C910 C911 1.386 . S
C910 C912 1.391 1_455 S
C911 C910 1.386 . S
C911 C915 1.393 . S
C912 H901 0.950 . S
C912 C910 1.391 1_655 S
C912 C913 1.400 1_655 S
C913 C907 1.491 1_455 S
C913 C912 1.400 1_455 S
C913 C914 1.398 . S
C914 H902 0.950 . S
C914 C913 1.398 . S
C914 C915 1.391 . S
C915 H903 0.950 . S
C915 C911 1.393 . S
C915 C914 1.391 . S
H916 C924 0.950 . S
H917 C929 0.950 . S
H918 C926 0.950 . S
H919 C928 0.950 . S
H920 C930 0.950 . S
H921 C932 0.950 . S
H922 C934 0.950 . S
H923 C935 0.950 . S
C924 H916 0.950 . S
C924 C925 1.386 . S
C924 C926 1.391 . S
C925 C924 1.386 . S
C925 C929 1.393 . S
C926 H918 0.950 . S
C926 C924 1.391 . S
C926 C927 1.400 . S
C927 C926 1.400 . S
C927 C928 1.398 . S
C927 C933 1.491 . S
C928 H919 0.950 . S
C928 C927 1.398 . S
C928 C929 1.391 . S
C929 H917 0.950 . S
C929 C925 1.393 . S
C929 C928 1.391 . S
C930 H920 0.950 . S
C930 C931 1.386 . S
C930 C932 1.391 . S
C931 C930 1.386 . S
C931 C935 1.393 . S
C932 H921 0.950 . S
C932 C930 1.391 . S
C932 C933 1.400 . S
C933 C927 1.491 . S
C933 C932 1.400 . S
C933 C934 1.398 . S
C934 H922 0.950 . S
C934 C933 1.398 . S
C934 C935 1.391 . S
C935 H923 0.950 . S
C935 C931 1.393 . S
C935 C934 1.391 . S
H936 C944 0.950 . S
H937 C949 0.950 . S
H938 C946 0.950 . S
H939 C948 0.950 . S
H940 C950 0.950 . S
H941 C952 0.950 . S
H942 C954 0.950 . S
H943 C955 0.950 . S
C944 H936 0.950 . S
C944 C945 1.386 . S
C944 C946 1.391 . S
C945 C944 1.386 . S
C945 C949 1.393 . S
C946 H938 0.950 . S
C946 C944 1.391 . S
C946 C947 1.400 . S
C947 C946 1.400 . S
C947 C948 1.398 . S
C947 C953 1.491 . S
C948 H939 0.950 . S
C948 C947 1.398 . S
C948 C949 1.391 . S
C949 H937 0.950 . S
C949 C945 1.393 . S
C949 C948 1.391 . S
C950 H940 0.950 . S
C950 C951 1.386 . S
C950 C952 1.391 . S
C951 C950 1.386 . S
C951 C955 1.393 . S
C952 H941 0.950 . S
C952 C950 1.391 . S
C952 C953 1.400 . S
C953 C947 1.491 . S
C953 C952 1.400 . S
C953 C954 1.398 . S
C954 H942 0.950 . S
C954 C953 1.398 . S
C954 C955 1.391 . S
C955 H943 0.950 . S
C955 C951 1.393 . S
C955 C954 1.391 . S
H956 C964 0.950 . S
H957 C969 0.950 . S
H958 C966 0.950 . S
H959 C968 0.950 . S
H960 C970 0.950 . S
H961 C972 0.950 . S
H962 C974 0.950 . S
H963 C975 0.950 . S
C964 H956 0.950 . S
C964 C965 1.386 . S
C964 C966 1.391 . S
C965 C964 1.386 . S
C965 C969 1.393 . S
C966 H958 0.950 . S
C966 C964 1.391 . S
C966 C967 1.400 . S
C967 C966 1.400 . S
C967 C968 1.398 . S
C967 C973 1.491 . S
C968 H959 0.950 . S
C968 C967 1.398 . S
C968 C969 1.391 . S
C969 H957 0.950 . S
C969 C965 1.393 . S
C969 C968 1.391 . S
C970 H960 0.950 . S
C970 C971 1.386 . S
C970 C972 1.391 . S
C971 C970 1.386 . S
C971 C975 1.393 . S
C972 H961 0.950 . S
C972 C970 1.391 . S
C972 C973 1.400 . S
C973 C967 1.491 . S
C973 C972 1.400 . S
C973 C974 1.398 . S
C974 H962 0.950 . S
C974 C973 1.398 . S
C974 C975 1.391 . S
C975 H963 0.950 . S
C975 C971 1.393 . S
C975 C974 1.391 . S
H976 C984 0.950 . S
H977 C989 0.950 . S
H978 C986 0.950 . S
H979 C988 0.950 . S
H980 C990 0.950 . S
H981 C992 0.950 . S
H982 C994 0.950 . S
H983 C995 0.950 . S
C984 H976 0.950 . S
C984 C985 1.386 . S
C984 C986 1.391 . S
C985 C984 1.386 . S
C985 C989 1.393 . S
C986 H978 0.950 . S
C986 C984 1.391 . S
C986 C987 1.400 . S
C987 C986 1.400 . S
C987 C988 1.398 . S
C987 C993 1.491 . S
C988 H979 0.950 . S
C988 C987 1.398 . S
C988 C989 1.391 . S
C989 H977 0.950 . S
C989 C985 1.393 . S
C989 C988 1.391 . S
C990 H980 0.950 . S
C990 C991 1.386 . S
C990 C992 1.391 . S
C991 C990 1.386 . S
C991 C995 1.393 . S
C992 H981 0.950 . S
C992 C990 1.391 . S
C992 C993 1.400 . S
C993 C987 1.491 . S
C993 C992 1.400 . S
C993 C994 1.398 . S
C994 H982 0.950 . S
C994 C993 1.398 . S
C994 C995 1.391 . S
C995 H983 0.950 . S
C995 C991 1.393 . S
C995 C994 1.391 . S
H996 C1004 0.950 . S
H997 C1009 0.950 . S
H998 C1006 0.950 . S
H999 C1008 0.950 . S
H1000 C1010 0.950 . S
H1001 C1012 0.950 . S
H1002 C1014 0.950 . S
H1003 C1015 0.950 . S
C1004 H996 0.950 . S
C1004 C1005 1.386 . S
C1004 C1006 1.391 . S
C1005 C1004 1.386 . S
C1005 C1009 1.393 . S
C1006 H998 0.950 . S
C1006 C1004 1.391 . S
C1006 C1007 1.400 . S
C1007 C1006 1.400 . S
C1007 C1008 1.398 . S
C1007 C1013 1.491 1_545 S
C1008 H999 0.950 . S
C1008 C1007 1.398 . S
C1008 C1009 1.391 . S
C1009 H997 0.950 . S
C1009 C1005 1.393 . S
C1009 C1008 1.391 . S
C1010 H1000 0.950 . S
C1010 C1011 1.386 . S
C1010 C1012 1.391 . S
C1011 C1010 1.386 . S
C1011 C1015 1.393 . S
C1012 H1001 0.950 . S
C1012 C1010 1.391 . S
C1012 C1013 1.400 . S
C1013 C1007 1.491 1_565 S
C1013 C1012 1.400 . S
C1013 C1014 1.398 . S
C1014 H1002 0.950 . S
C1014 C1013 1.398 . S
C1014 C1015 1.391 . S
C1015 H1003 0.950 . S
C1015 C1011 1.393 . S
C1015 C1014 1.391 . S
H1016 C1024 0.950 . S
H1017 C1029 0.950 . S
H1018 C1026 0.950 . S
H1019 C1028 0.950 . S
H1020 C1030 0.950 . S
H1021 C1032 0.950 . S
H1022 C1034 0.950 . S
H1023 C1035 0.950 . S
C1024 H1016 0.950 . S
C1024 C1025 1.386 . S
C1024 C1026 1.391 . S
C1025 C1024 1.386 . S
C1025 C1029 1.393 . S
C1026 H1018 0.950 . S
C1026 C1024 1.391 . S
C1026 C1027 1.400 . S
C1027 C1026 1.400 . S
C1027 C1028 1.398 . S
C1027 C1033 1.491 . S
C1028 H1019 0.950 . S
C1028 C1027 1.398 . S
C1028 C1029 1.391 . S
C1029 H1017 0.950 . S
C1029 C1025 1.393 . S
C1029 C1028 1.391 . S
C1030 H1020 0.950 . S
C1030 C1031 1.386 . S
C1030 C1032 1.391 . S
C1031 C1030 1.386 . S
C1031 C1035 1.393 . S
C1032 H1021 0.950 . S
C1032 C1030 1.391 . S
C1032 C1033 1.400 . S
C1033 C1027 1.491 . S
C1033 C1032 1.400 . S
C1033 C1034 1.398 . S
C1034 H1022 0.950 . S
C1034 C1033 1.398 . S
C1034 C1035 1.391 . S
C1035 H1023 0.950 . S
C1035 C1031 1.393 . S
C1035 C1034 1.391 . S
H1036 C1044 0.950 . S
H1037 C1049 0.950 . S
H1038 C1046 0.950 . S
H1039 C1048 0.950 . S
H1040 C1050 0.950 . S
H1041 C1052 0.950 . S
H1042 C1054 0.950 . S
H1043 C1055 0.950 . S
C1044 H1036 0.950 . S
C1044 C1045 1.387 . S
C1044 C1046 1.391 . S
C1045 C1044 1.387 . S
C1045 C1049 1.391 1_556 S
C1046 H1038 0.950 . S
C1046 C1044 1.391 . S
C1046 C1047 1.400 1_556 S
C1047 C1046 1.400 1_554 S
C1047 C1048 1.398 . S
C1047 C1053 1.490 1_554 S
C1048 H1039 0.950 . S
C1048 C1047 1.398 . S
C1048 C1049 1.391 . S
C1049 H1037 0.950 . S
C1049 C1045 1.391 1_554 S
C1049 C1048 1.391 . S
C1050 H1040 0.950 . S
C1050 C1051 1.386 . S
C1050 C1052 1.391 . S
C1051 C1050 1.386 . S
C1051 C1055 1.392 1_554 S
C1052 H1041 0.950 . S
C1052 C1050 1.391 . S
C1052 C1053 1.399 1_554 S
C1053 C1047 1.490 1_556 S
C1053 C1052 1.399 1_556 S
C1053 C1054 1.399 . S
C1054 H1042 0.950 . S
C1054 C1053 1.399 . S
C1054 C1055 1.391 . S
C1055 H1043 0.950 . S
C1055 C1051 1.392 1_556 S
C1055 C1054 1.391 . S
H1056 C1064 0.950 . S
H1057 C1069 0.950 . S
H1058 C1066 0.950 . S
H1059 C1068 0.950 . S
H1060 C1070 0.950 . S
H1061 C1072 0.950 . S
H1062 C1074 0.950 . S
H1063 C1075 0.950 . S
C1064 H1056 0.950 . S
C1064 C1065 1.386 . S
C1064 C1066 1.391 . S
C1065 C1064 1.386 . S
C1065 C1069 1.393 . S
C1066 H1058 0.950 . S
C1066 C1064 1.391 . S
C1066 C1067 1.400 . S
C1067 C1066 1.400 . S
C1067 C1068 1.398 . S
C1067 C1073 1.491 . S
C1068 H1059 0.950 . S
C1068 C1067 1.398 . S
C1068 C1069 1.391 . S
C1069 H1057 0.950 . S
C1069 C1065 1.393 . S
C1069 C1068 1.391 . S
C1070 H1060 0.950 . S
C1070 C1071 1.386 . S
C1070 C1072 1.391 . S
C1071 C1070 1.386 . S
C1071 C1075 1.393 . S
C1072 H1061 0.950 . S
C1072 C1070 1.391 . S
C1072 C1073 1.400 . S
C1073 C1067 1.491 . S
C1073 C1072 1.400 . S
C1073 C1074 1.398 . S
C1074 H1062 0.950 . S
C1074 C1073 1.398 . S
C1074 C1075 1.391 . S
C1075 H1063 0.950 . S
C1075 C1071 1.393 . S
C1075 C1074 1.391 . S
H1076 C1084 0.950 . S
H1077 C1089 0.950 . S
H1078 C1086 0.950 . S
H1079 C1088 0.950 . S
H1080 C1090 0.950 . S
H1081 C1092 0.950 . S
H1082 C1094 0.950 . S
H1083 C1095 0.950 . S
C1084 H1076 0.950 . S
C1084 C1085 1.386 . S
C1084 C1086 1.391 . S
C1085 C1084 1.386 . S
C1085 C1089 1.393 . S
C1086 H1078 0.950 . S
C1086 C1084 1.391 . S
C1086 C1087 1.400 . S
C1087 C1086 1.400 . S
C1087 C1088 1.398 . S
C1087 C1093 1.491 . S
C1088 H1079 0.950 . S
C1088 C1087 1.398 . S
C1088 C1089 1.391 . S
C1089 H1077 0.950 . S
C1089 C1085 1.393 . S
C1089 C1088 1.391 . S
C1090 H1080 0.950 . S
C1090 C1091 1.386 . S
C1090 C1092 1.391 . S
C1091 C1090 1.386 . S
C1091 C1095 1.393 . S
C1092 H1081 0.950 . S
C1092 C1090 1.391 . S
C1092 C1093 1.400 . S
C1093 C1087 1.491 . S
C1093 C1092 1.400 . S
C1093 C1094 1.398 . S
C1094 H1082 0.950 . S
C1094 C1093 1.398 . S
C1094 C1095 1.391 . S
C1095 H1083 0.950 . S
C1095 C1091 1.393 . S
C1095 C1094 1.391 . S
H1096 C1104 0.950 . S
H1097 C1109 0.950 . S
H1098 C1106 0.950 . S
H1099 C1108 0.950 . S
H1100 C1110 0.950 . S
H1101 C1112 0.950 . S
H1102 C1114 0.950 . S
H1103 C1115 0.950 . S
C1104 H1096 0.950 . S
C1104 C1105 1.386 . S
C1104 C1106 1.391 . S
C1105 C1104 1.386 . S
C1105 C1109 1.393 . S
C1106 H1098 0.950 . S
C1106 C1104 1.391 . S
C1106 C1107 1.400 . S
C1107 C1106 1.400 . S
C1107 C1108 1.398 . S
C1107 C1113 1.491 . S
C1108 H1099 0.950 . S
C1108 C1107 1.398 . S
C1108 C1109 1.391 . S
C1109 H1097 0.950 . S
C1109 C1105 1.393 . S
C1109 C1108 1.391 . S
C1110 H1100 0.950 . S
C1110 C1111 1.386 . S
C1110 C1112 1.391 . S
C1111 C1110 1.386 . S
C1111 C1115 1.393 . S
C1112 H1101 0.950 . S
C1112 C1110 1.391 . S
C1112 C1113 1.400 . S
C1113 C1107 1.491 . S
C1113 C1112 1.400 . S
C1113 C1114 1.398 . S
C1114 H1102 0.950 . S
C1114 C1113 1.398 . S
C1114 C1115 1.391 . S
C1115 H1103 0.950 . S
C1115 C1111 1.393 . S
C1115 C1114 1.391 . S
H1116 C1124 0.950 . S
H1117 C1129 0.950 . S
H1118 C1126 0.950 . S
H1119 C1128 0.950 . S
H1120 C1130 0.950 . S
H1121 C1132 0.950 . S
H1122 C1134 0.950 . S
H1123 C1135 0.950 . S
C1124 H1116 0.950 . S
C1124 C1125 1.386 . S
C1124 C1126 1.391 . S
C1125 C1124 1.386 . S
C1125 C1129 1.393 . S
C1126 H1118 0.950 . S
C1126 C1124 1.391 . S
C1126 C1127 1.400 . S
C1127 C1126 1.400 . S
C1127 C1128 1.398 . S
C1127 C1133 1.491 . S
C1128 H1119 0.950 . S
C1128 C1127 1.398 . S
C1128 C1129 1.391 . S
C1129 H1117 0.950 . S
C1129 C1125 1.393 . S
C1129 C1128 1.391 . S
C1130 H1120 0.950 . S
C1130 C1131 1.386 . S
C1130 C1132 1.391 . S
C1131 C1130 1.386 . S
C1131 C1135 1.393 . S
C1132 H1121 0.950 . S
C1132 C1130 1.391 . S
C1132 C1133 1.400 . S
C1133 C1127 1.491 . S
C1133 C1132 1.400 . S
C1133 C1134 1.398 . S
C1134 H1122 0.950 . S
C1134 C1133 1.398 . S
C1134 C1135 1.391 . S
C1135 H1123 0.950 . S
C1135 C1131 1.393 . S
C1135 C1134 1.391 . S
H1136 C1144 0.950 . S
H1137 C1149 0.950 . S
H1138 C1146 0.950 . S
H1139 C1148 0.950 . S
H1140 C1150 0.950 . S
H1141 C1152 0.950 . S
H1142 C1154 0.950 . S
H1143 C1155 0.950 . S
C1144 H1136 0.950 . S
C1144 C1145 1.386 . S
C1144 C1146 1.391 . S
C1145 C1144 1.386 . S
C1145 C1149 1.393 . S
C1146 H1138 0.950 . S
C1146 C1144 1.391 . S
C1146 C1147 1.400 . S
C1147 C1146 1.400 . S
C1147 C1148 1.398 . S
C1147 C1153 1.491 . S
C1148 H1139 0.950 . S
C1148 C1147 1.398 . S
C1148 C1149 1.391 . S
C1149 H1137 0.950 . S
C1149 C1145 1.393 . S
C1149 C1148 1.391 . S
C1150 H1140 0.950 . S
C1150 C1151 1.386 . S
C1150 C1152 1.391 . S
C1151 C1150 1.386 . S
C1151 C1155 1.393 . S
C1152 H1141 0.950 . S
C1152 C1150 1.391 . S
C1152 C1153 1.400 . S
C1153 C1147 1.491 . S
C1153 C1152 1.400 . S
C1153 C1154 1.398 . S
C1154 H1142 0.950 . S
C1154 C1153 1.398 . S
C1154 C1155 1.391 . S
C1155 H1143 0.950 . S
C1155 C1151 1.393 . S
C1155 C1154 1.391 . S
H1156 C1164 0.950 . S
H1157 C1169 0.950 . S
H1158 C1166 0.950 . S
H1159 C1168 0.950 . S
H1160 C1170 0.950 . S
H1161 C1172 0.950 . S
H1162 C1174 0.950 . S
H1163 C1175 0.950 . S
C1164 H1156 0.950 . S
C1164 C1165 1.386 . S
C1164 C1166 1.391 . S
C1165 C1164 1.386 . S
C1165 C1169 1.393 . S
C1166 H1158 0.950 . S
C1166 C1164 1.391 . S
C1166 C1167 1.400 . S
C1167 C1166 1.400 . S
C1167 C1168 1.398 . S
C1167 C1173 1.491 . S
C1168 H1159 0.950 . S
C1168 C1167 1.398 . S
C1168 C1169 1.391 . S
C1169 H1157 0.950 . S
C1169 C1165 1.393 . S
C1169 C1168 1.391 . S
C1170 H1160 0.950 . S
C1170 C1171 1.386 . S
C1170 C1172 1.391 . S
C1171 C1170 1.386 . S
C1171 C1175 1.393 . S
C1172 H1161 0.950 . S
C1172 C1170 1.391 . S
C1172 C1173 1.400 . S
C1173 C1167 1.491 . S
C1173 C1172 1.400 . S
C1173 C1174 1.398 . S
C1174 H1162 0.950 . S
C1174 C1173 1.398 . S
C1174 C1175 1.391 . S
C1175 H1163 0.950 . S
C1175 C1171 1.393 . S
C1175 C1174 1.391 . S
H1176 C1184 0.950 . S
H1177 C1189 0.950 . S
H1178 C1186 0.950 . S
H1179 C1188 0.950 . S
H1180 C1190 0.950 . S
H1181 C1192 0.950 . S
H1182 C1194 0.950 . S
H1183 C1195 0.950 . S
C1184 H1176 0.950 . S
C1184 C1185 1.386 . S
C1184 C1186 1.391 . S
C1185 C1184 1.386 . S
C1185 C1189 1.393 . S
C1186 H1178 0.950 . S
C1186 C1184 1.391 . S
C1186 C1187 1.400 . S
C1187 C1186 1.400 . S
C1187 C1188 1.398 . S
C1187 C1193 1.491 . S
C1188 H1179 0.950 . S
C1188 C1187 1.398 . S
C1188 C1189 1.391 . S
C1189 H1177 0.950 . S
C1189 C1185 1.393 . S
C1189 C1188 1.391 . S
C1190 H1180 0.950 . S
C1190 C1191 1.386 . S
C1190 C1192 1.391 . S
C1191 C1190 1.386 . S
C1191 C1195 1.393 . S
C1192 H1181 0.950 . S
C1192 C1190 1.391 . S
C1192 C1193 1.400 . S
C1193 C1187 1.491 . S
C1193 C1192 1.400 . S
C1193 C1194 1.398 . S
C1194 H1182 0.950 . S
C1194 C1193 1.398 . S
C1194 C1195 1.391 . S
C1195 H1183 0.950 . S
C1195 C1191 1.393 . S
C1195 C1194 1.391 . S
H1196 C1204 0.950 . S
H1197 C1209 0.950 . S
H1198 C1206 0.950 . S
H1199 C1208 0.950 . S
H1200 C1210 0.950 . S
H1201 C1212 0.950 . S
H1202 C1214 0.950 . S
H1203 C1215 0.950 . S
C1204 H1196 0.950 . S
C1204 C1205 1.386 . S
C1204 C1206 1.391 . S
C1205 C1204 1.386 . S
C1205 C1209 1.393 . S
C1206 H1198 0.950 . S
C1206 C1204 1.391 . S
C1206 C1207 1.400 . S
C1207 C1206 1.400 . S
C1207 C1208 1.398 . S
C1207 C1213 1.491 . S
C1208 H1199 0.950 . S
C1208 C1207 1.398 . S
C1208 C1209 1.391 . S
C1209 H1197 0.950 . S
C1209 C1205 1.393 . S
C1209 C1208 1.391 . S
C1210 H1200 0.950 . S
C1210 C1211 1.386 . S
C1210 C1212 1.391 . S
C1211 C1210 1.386 . S
C1211 C1215 1.393 . S
C1212 H1201 0.950 . S
C1212 C1210 1.391 . S
C1212 C1213 1.400 . S
C1213 C1207 1.491 . S
C1213 C1212 1.400 . S
C1213 C1214 1.398 . S
C1214 H1202 0.950 . S
C1214 C1213 1.398 . S
C1214 C1215 1.391 . S
C1215 H1203 0.950 . S
C1215 C1211 1.393 . S
C1215 C1214 1.391 . S
H1216 C1224 0.950 . S
H1217 C1229 0.950 . S
H1218 C1226 0.950 . S
H1219 C1228 0.950 . S
H1220 C1230 0.950 . S
H1221 C1232 0.950 . S
H1222 C1234 0.950 . S
H1223 C1235 0.950 . S
C1224 H1216 0.950 . S
C1224 C1225 1.386 . S
C1224 C1226 1.391 . S
C1225 C1224 1.386 . S
C1225 C1229 1.393 . S
C1226 H1218 0.950 . S
C1226 C1224 1.391 . S
C1226 C1227 1.400 . S
C1227 C1226 1.400 . S
C1227 C1228 1.398 . S
C1227 C1233 1.491 . S
C1228 H1219 0.950 . S
C1228 C1227 1.398 . S
C1228 C1229 1.391 . S
C1229 H1217 0.950 . S
C1229 C1225 1.393 . S
C1229 C1228 1.391 . S
C1230 H1220 0.950 . S
C1230 C1231 1.386 . S
C1230 C1232 1.391 . S
C1231 C1230 1.386 . S
C1231 C1235 1.393 . S
C1232 H1221 0.950 . S
C1232 C1230 1.391 . S
C1232 C1233 1.400 . S
C1233 C1227 1.491 . S
C1233 C1232 1.400 . S
C1233 C1234 1.398 . S
C1234 H1222 0.950 . S
C1234 C1233 1.398 . S
C1234 C1235 1.391 . S
C1235 H1223 0.950 . S
C1235 C1231 1.393 . S
C1235 C1234 1.391 . S
H1236 C1244 0.950 . S
H1237 C1249 0.950 . S
H1238 C1246 0.950 . S
H1239 C1248 0.950 . S
H1240 C1250 0.950 . S
H1241 C1252 0.950 . S
H1242 C1254 0.950 . S
H1243 C1255 0.950 . S
C1244 H1236 0.950 . S
C1244 C1245 1.386 . S
C1244 C1246 1.391 . S
C1245 C1244 1.386 . S
C1245 C1249 1.393 . S
C1246 H1238 0.950 . S
C1246 C1244 1.391 . S
C1246 C1247 1.400 . S
C1247 C1246 1.400 . S
C1247 C1248 1.398 . S
C1247 C1253 1.491 . S
C1248 H1239 0.950 . S
C1248 C1247 1.398 . S
C1248 C1249 1.391 . S
C1249 H1237 0.950 . S
C1249 C1245 1.393 . S
C1249 C1248 1.391 . S
C1250 H1240 0.950 . S
C1250 C1251 1.386 . S
C1250 C1252 1.391 . S
C1251 C1250 1.386 . S
C1251 C1255 1.393 . S
C1252 H1241 0.950 . S
C1252 C1250 1.391 . S
C1252 C1253 1.400 . S
C1253 C1247 1.491 . S
C1253 C1252 1.400 . S
C1253 C1254 1.398 . S
C1254 H1242 0.950 . S
C1254 C1253 1.398 . S
C1254 C1255 1.391 . S
C1255 H1243 0.950 . S
C1255 C1251 1.393 . S
C1255 C1254 1.391 . S
H1256 C1264 0.950 . S
H1257 C1269 0.950 . S
H1258 C1266 0.950 . S
H1259 C1268 0.950 . S
H1260 C1270 0.950 . S
H1261 C1272 0.950 . S
H1262 C1274 0.950 . S
H1263 C1275 0.950 . S
C1264 H1256 0.950 . S
C1264 C1265 1.386 . S
C1264 C1266 1.391 . S
C1265 C1264 1.386 . S
C1265 C1269 1.393 . S
C1266 H1258 0.950 . S
C1266 C1264 1.391 . S
C1266 C1267 1.400 . S
C1267 C1266 1.400 . S
C1267 C1268 1.398 . S
C1267 C1273 1.491 . S
C1268 H1259 0.950 . S
C1268 C1267 1.398 . S
C1268 C1269 1.391 . S
C1269 H1257 0.950 . S
C1269 C1265 1.393 . S
C1269 C1268 1.391 . S
C1270 H1260 0.950 . S
C1270 C1271 1.386 . S
C1270 C1272 1.391 . S
C1271 C1270 1.386 . S
C1271 C1275 1.393 . S
C1272 H1261 0.950 . S
C1272 C1270 1.391 . S
C1272 C1273 1.400 . S
C1273 C1267 1.491 . S
C1273 C1272 1.400 . S
C1273 C1274 1.398 . S
C1274 H1262 0.950 . S
C1274 C1273 1.398 . S
C1274 C1275 1.391 . S
C1275 H1263 0.950 . S
C1275 C1271 1.393 . S
C1275 C1274 1.391 . S
H1276 C1284 0.950 . S
H1277 C1289 0.950 . S
H1278 C1286 0.950 . S
H1279 C1288 0.950 . S
H1280 C1290 0.950 . S
H1281 C1292 0.950 . S
H1282 C1294 0.950 . S
H1283 C1295 0.950 . S
C1284 H1276 0.950 . S
C1284 C1285 1.386 . S
C1284 C1286 1.391 . S
C1285 C1284 1.386 . S
C1285 C1289 1.393 . S
C1286 H1278 0.950 . S
C1286 C1284 1.391 . S
C1286 C1287 1.400 . S
C1287 C1286 1.400 . S
C1287 C1288 1.398 . S
C1287 C1293 1.491 . S
C1288 H1279 0.950 . S
C1288 C1287 1.398 . S
C1288 C1289 1.391 . S
C1289 H1277 0.950 . S
C1289 C1285 1.393 . S
C1289 C1288 1.391 . S
C1290 H1280 0.950 . S
C1290 C1291 1.386 . S
C1290 C1292 1.391 . S
C1291 C1290 1.386 . S
C1291 C1295 1.393 . S
C1292 H1281 0.950 . S
C1292 C1290 1.391 . S
C1292 C1293 1.400 . S
C1293 C1287 1.491 . S
C1293 C1292 1.400 . S
C1293 C1294 1.398 . S
C1294 H1282 0.950 . S
C1294 C1293 1.398 . S
C1294 C1295 1.391 . S
C1295 H1283 0.950 . S
C1295 C1291 1.393 . S
C1295 C1294 1.391 . S
H1296 C1304 0.950 . S
H1297 C1309 0.950 . S
H1298 C1306 0.950 . S
H1299 C1308 0.950 . S
H1300 C1310 0.950 . S
H1301 C1312 0.950 . S
H1302 C1314 0.950 . S
H1303 C1315 0.950 . S
C1304 H1296 0.950 . S
C1304 C1305 1.386 . S
C1304 C1306 1.391 . S
C1305 C1304 1.386 . S
C1305 C1309 1.393 . S
C1306 H1298 0.950 . S
C1306 C1304 1.391 . S
C1306 C1307 1.400 . S
C1307 C1306 1.400 . S
C1307 C1308 1.398 . S
C1307 C1313 1.491 . S
C1308 H1299 0.950 . S
C1308 C1307 1.398 . S
C1308 C1309 1.391 . S
C1309 H1297 0.950 . S
C1309 C1305 1.393 . S
C1309 C1308 1.391 . S
C1310 H1300 0.950 . S
C1310 C1311 1.386 . S
C1310 C1312 1.391 . S
C1311 C1310 1.386 . S
C1311 C1315 1.393 . S
C1312 H1301 0.950 . S
C1312 C1310 1.391 . S
C1312 C1313 1.400 . S
C1313 C1307 1.491 . S
C1313 C1312 1.400 . S
C1313 C1314 1.398 . S
C1314 H1302 0.950 . S
C1314 C1313 1.398 . S
C1314 C1315 1.391 . S
C1315 H1303 0.950 . S
C1315 C1311 1.393 . S
C1315 C1314 1.391 . S
H1316 C1324 0.950 . S
H1317 C1329 0.950 . S
H1318 C1326 0.950 . S
H1319 C1328 0.950 . S
H1320 C1330 0.950 . S
H1321 C1332 0.950 . S
H1322 C1334 0.950 . S
H1323 C1335 0.950 . S
C1324 H1316 0.950 . S
C1324 C1325 1.386 . S
C1324 C1326 1.391 . S
C1325 C1324 1.386 . S
C1325 C1329 1.393 . S
C1326 H1318 0.950 . S
C1326 C1324 1.391 . S
C1326 C1327 1.400 . S
C1327 C1326 1.400 . S
C1327 C1328 1.398 . S
C1327 C1333 1.491 . S
C1328 H1319 0.950 . S
C1328 C1327 1.398 . S
C1328 C1329 1.391 . S
C1329 H1317 0.950 . S
C1329 C1325 1.393 . S
C1329 C1328 1.391 . S
C1330 H1320 0.950 . S
C1330 C1331 1.386 . S
C1330 C1332 1.391 . S
C1331 C1330 1.386 . S
C1331 C1335 1.393 . S
C1332 H1321 0.950 . S
C1332 C1330 1.391 . S
C1332 C1333 1.400 . S
C1333 C1327 1.491 . S
C1333 C1332 1.400 . S
C1333 C1334 1.398 . S
C1334 H1322 0.950 . S
C1334 C1333 1.398 . S
C1334 C1335 1.391 . S
C1335 H1323 0.950 . S
C1335 C1331 1.393 . S
C1335 C1334 1.391 . S
H1336 C1344 0.950 . S
H1337 C1349 0.950 . S
H1338 C1346 0.950 . S
H1339 C1348 0.950 . S
H1340 C1350 0.950 . S
H1341 C1352 0.950 . S
H1342 C1354 0.950 . S
H1343 C1355 0.950 . S
C1344 H1336 0.950 . S
C1344 C1345 1.386 . S
C1344 C1346 1.391 . S
C1345 C1344 1.386 . S
C1345 C1349 1.393 . S
C1346 H1338 0.950 . S
C1346 C1344 1.391 . S
C1346 C1347 1.400 . S
C1347 C1346 1.400 . S
C1347 C1348 1.398 . S
C1347 C1353 1.491 . S
C1348 H1339 0.950 . S
C1348 C1347 1.398 . S
C1348 C1349 1.391 . S
C1349 H1337 0.950 . S
C1349 C1345 1.393 . S
C1349 C1348 1.391 . S
C1350 H1340 0.950 . S
C1350 C1351 1.386 . S
C1350 C1352 1.391 . S
C1351 C1350 1.386 . S
C1351 C1355 1.393 . S
C1352 H1341 0.950 . S
C1352 C1350 1.391 . S
C1352 C1353 1.400 . S
C1353 C1347 1.491 . S
C1353 C1352 1.400 . S
C1353 C1354 1.398 . S
C1354 H1342 0.950 . S
C1354 C1353 1.398 . S
C1354 C1355 1.391 . S
C1355 H1343 0.950 . S
C1355 C1351 1.393 . S
C1355 C1354 1.391 . S
H1356 C1364 0.950 . S
H1357 C1369 0.950 . S
H1358 C1366 0.950 . S
H1359 C1368 0.950 . S
H1360 C1370 0.950 . S
H1361 C1372 0.950 . S
H1362 C1374 0.950 . S
H1363 C1375 0.950 . S
C1364 H1356 0.950 . S
C1364 C1365 1.386 . S
C1364 C1366 1.391 . S
C1365 C1364 1.386 . S
C1365 C1369 1.393 . S
C1366 H1358 0.950 . S
C1366 C1364 1.391 . S
C1366 C1367 1.400 . S
C1367 C1366 1.400 . S
C1367 C1368 1.398 . S
C1367 C1373 1.491 . S
C1368 H1359 0.950 . S
C1368 C1367 1.398 . S
C1368 C1369 1.391 . S
C1369 H1357 0.950 . S
C1369 C1365 1.393 . S
C1369 C1368 1.391 . S
C1370 H1360 0.950 . S
C1370 C1371 1.386 . S
C1370 C1372 1.391 . S
C1371 C1370 1.386 . S
C1371 C1375 1.393 . S
C1372 H1361 0.950 . S
C1372 C1370 1.391 . S
C1372 C1373 1.400 . S
C1373 C1367 1.491 . S
C1373 C1372 1.400 . S
C1373 C1374 1.398 . S
C1374 H1362 0.950 . S
C1374 C1373 1.398 . S
C1374 C1375 1.391 . S
C1375 H1363 0.950 . S
C1375 C1371 1.393 . S
C1375 C1374 1.391 . S
H1376 C1384 0.950 . S
H1377 C1389 0.950 . S
H1378 C1386 0.950 . S
H1379 C1388 0.950 . S
H1380 C1390 0.950 . S
H1381 C1392 0.950 . S
H1382 C1394 0.950 . S
H1383 C1395 0.950 . S
C1384 H1376 0.950 . S
C1384 C1385 1.386 . S
C1384 C1386 1.391 . S
C1385 C1384 1.386 . S
C1385 C1389 1.393 . S
C1386 H1378 0.950 . S
C1386 C1384 1.391 . S
C1386 C1387 1.400 . S
C1387 C1386 1.400 . S
C1387 C1388 1.398 . S
C1387 C1393 1.491 . S
C1388 H1379 0.950 . S
C1388 C1387 1.398 . S
C1388 C1389 1.391 . S
C1389 H1377 0.950 . S
C1389 C1385 1.393 . S
C1389 C1388 1.391 . S
C1390 H1380 0.950 . S
C1390 C1391 1.386 . S
C1390 C1392 1.391 . S
C1391 C1390 1.386 . S
C1391 C1395 1.393 . S
C1392 H1381 0.950 . S
C1392 C1390 1.391 . S
C1392 C1393 1.400 . S
C1393 C1387 1.491 . S
C1393 C1392 1.400 . S
C1393 C1394 1.398 . S
C1394 H1382 0.950 . S
C1394 C1393 1.398 . S
C1394 C1395 1.391 . S
C1395 H1383 0.950 . S
C1395 C1391 1.393 . S
C1395 C1394 1.391 . S
H1396 C1404 0.950 . S
H1397 C1409 0.950 . S
H1398 C1406 0.950 . S
H1399 C1408 0.950 . S
H1400 C1410 0.950 . S
H1401 C1412 0.950 . S
H1402 C1414 0.950 . S
H1403 C1415 0.950 . S
C1404 H1396 0.950 . S
C1404 C1405 1.386 . S
C1404 C1406 1.391 . S
C1405 C1404 1.386 . S
C1405 C1409 1.393 . S
C1406 H1398 0.950 . S
C1406 C1404 1.391 . S
C1406 C1407 1.400 . S
C1407 C1406 1.400 . S
C1407 C1408 1.398 . S
C1407 C1413 1.491 . S
C1408 H1399 0.950 . S
C1408 C1407 1.398 . S
C1408 C1409 1.391 . S
C1409 H1397 0.950 . S
C1409 C1405 1.393 . S
C1409 C1408 1.391 . S
C1410 H1400 0.950 . S
C1410 C1411 1.386 . S
C1410 C1412 1.391 . S
C1411 C1410 1.386 . S
C1411 C1415 1.393 . S
C1412 H1401 0.950 . S
C1412 C1410 1.391 . S
C1412 C1413 1.400 . S
C1413 C1407 1.491 . S
C1413 C1412 1.400 . S
C1413 C1414 1.398 . S
C1414 H1402 0.950 . S
C1414 C1413 1.398 . S
C1414 C1415 1.391 . S
C1415 H1403 0.950 . S
C1415 C1411 1.393 . S
C1415 C1414 1.391 . S
H1416 C1424 0.950 . S
H1417 C1429 0.950 . S
H1418 C1426 0.950 . S
H1419 C1428 0.950 . S
H1420 C1430 0.950 . S
H1421 C1432 0.950 . S
H1422 C1434 0.950 . S
H1423 C1435 0.950 . S
C1424 H1416 0.950 . S
C1424 C1425 1.386 . S
C1424 C1426 1.391 . S
C1425 C1424 1.386 . S
C1425 C1429 1.393 1_554 S
C1426 H1418 0.950 . S
C1426 C1424 1.391 . S
C1426 C1427 1.400 . S
C1427 C1426 1.400 . S
C1427 C1428 1.398 1_554 S
C1427 C1433 1.491 . S
C1428 H1419 0.950 . S
C1428 C1427 1.398 1_556 S
C1428 C1429 1.391 . S
C1429 H1417 0.950 . S
C1429 C1425 1.393 1_556 S
C1429 C1428 1.391 . S
C1430 H1420 0.950 . S
C1430 C1431 1.386 1_556 S
C1430 C1432 1.391 . S
C1431 C1430 1.386 1_554 S
C1431 C1435 1.393 . S
C1432 H1421 0.950 . S
C1432 C1430 1.391 . S
C1432 C1433 1.400 1_556 S
C1433 C1427 1.491 . S
C1433 C1432 1.400 1_554 S
C1433 C1434 1.398 . S
C1434 H1422 0.950 . S
C1434 C1433 1.398 . S
C1434 C1435 1.391 . S
C1435 H1423 0.950 . S
C1435 C1431 1.393 . S
C1435 C1434 1.391 . S
H1436 C1444 0.950 . S
H1437 C1449 0.950 . S
H1438 C1446 0.950 . S
H1439 C1448 0.950 . S
H1440 C1450 0.950 . S
H1441 C1452 0.950 . S
H1442 C1454 0.950 . S
H1443 C1455 0.950 . S
C1444 H1436 0.950 . S
C1444 C1445 1.386 1_556 S
C1444 C1446 1.391 . S
C1445 C1444 1.386 1_554 S
C1445 C1449 1.393 . S
C1446 H1438 0.950 . S
C1446 C1444 1.391 . S
C1446 C1447 1.400 1_556 S
C1447 C1446 1.400 1_554 S
C1447 C1448 1.398 . S
C1447 C1453 1.491 . S
C1448 H1439 0.950 . S
C1448 C1447 1.398 . S
C1448 C1449 1.391 . S
C1449 H1437 0.950 . S
C1449 C1445 1.393 . S
C1449 C1448 1.391 . S
C1450 H1440 0.950 . S
C1450 C1451 1.386 . S
C1450 C1452 1.391 . S
C1451 C1450 1.386 . S
C1451 C1455 1.393 1_554 S
C1452 H1441 0.950 . S
C1452 C1450 1.391 . S
C1452 C1453 1.400 . S
C1453 C1447 1.491 . S
C1453 C1452 1.400 . S
C1453 C1454 1.398 1_554 S
C1454 H1442 0.950 . S
C1454 C1453 1.398 1_556 S
C1454 C1455 1.391 . S
C1455 H1443 0.950 . S
C1455 C1451 1.393 1_556 S
C1455 C1454 1.391 . S
H1456 C1464 0.950 . S
H1457 C1469 0.950 . S
H1458 C1466 0.950 . S
H1459 C1468 0.950 . S
H1460 C1470 0.950 . S
H1461 C1472 0.950 . S
H1462 C1474 0.950 . S
H1463 C1475 0.950 . S
C1464 H1456 0.950 . S
C1464 C1465 1.386 . S
C1464 C1466 1.391 . S
C1465 C1464 1.386 . S
C1465 C1469 1.393 . S
C1466 H1458 0.950 . S
C1466 C1464 1.391 . S
C1466 C1467 1.400 . S
C1467 C1466 1.400 . S
C1467 C1468 1.398 . S
C1467 C1473 1.491 . S
C1468 H1459 0.950 . S
C1468 C1467 1.398 . S
C1468 C1469 1.391 . S
C1469 H1457 0.950 . S
C1469 C1465 1.393 . S
C1469 C1468 1.391 . S
C1470 H1460 0.950 . S
C1470 C1471 1.386 . S
C1470 C1472 1.391 . S
C1471 C1470 1.386 . S
C1471 C1475 1.393 . S
C1472 H1461 0.950 . S
C1472 C1470 1.391 . S
C1472 C1473 1.400 . S
C1473 C1467 1.491 . S
C1473 C1472 1.400 . S
C1473 C1474 1.398 . S
C1474 H1462 0.950 . S
C1474 C1473 1.398 . S
C1474 C1475 1.391 . S
C1475 H1463 0.950 . S
C1475 C1471 1.393 . S
C1475 C1474 1.391 . S
H1476 C1484 0.950 . S
H1477 C1489 0.950 . S
H1478 C1486 0.950 . S
H1479 C1488 0.950 . S
H1480 C1490 0.950 . S
H1481 C1492 0.950 . S
H1482 C1494 0.950 . S
H1483 C1495 0.950 . S
C1484 H1476 0.950 . S
C1484 C1485 1.386 . S
C1484 C1486 1.391 . S
C1485 C1484 1.386 . S
C1485 C1489 1.393 . S
C1486 H1478 0.950 . S
C1486 C1484 1.391 . S
C1486 C1487 1.400 . S
C1487 C1486 1.400 . S
C1487 C1488 1.398 . S
C1487 C1493 1.491 . S
C1488 H1479 0.950 . S
C1488 C1487 1.398 . S
C1488 C1489 1.391 . S
C1489 H1477 0.950 . S
C1489 C1485 1.393 . S
C1489 C1488 1.391 . S
C1490 H1480 0.950 . S
C1490 C1491 1.386 . S
C1490 C1492 1.391 . S
C1491 C1490 1.386 . S
C1491 C1495 1.393 . S
C1492 H1481 0.950 . S
C1492 C1490 1.391 . S
C1492 C1493 1.400 . S
C1493 C1487 1.491 . S
C1493 C1492 1.400 . S
C1493 C1494 1.398 . S
C1494 H1482 0.950 . S
C1494 C1493 1.398 . S
C1494 C1495 1.391 . S
C1495 H1483 0.950 . S
C1495 C1491 1.393 . S
C1495 C1494 1.391 . S
H1496 C1504 0.950 . S
H1497 C1509 0.950 . S
H1498 C1506 0.950 . S
H1499 C1508 0.950 . S
H1500 C1510 0.950 . S
H1501 C1512 0.950 . S
H1502 C1514 0.950 . S
H1503 C1515 0.950 . S
C1504 H1496 0.950 . S
C1504 C1505 1.386 . S
C1504 C1506 1.391 . S
C1505 C1504 1.386 . S
C1505 C1509 1.393 1_556 S
C1506 H1498 0.950 . S
C1506 C1504 1.391 . S
C1506 C1507 1.400 . S
C1507 C1506 1.400 . S
C1507 C1508 1.398 1_556 S
C1507 C1513 1.491 . S
C1508 H1499 0.950 . S
C1508 C1507 1.398 1_554 S
C1508 C1509 1.391 . S
C1509 H1497 0.950 . S
C1509 C1505 1.393 1_554 S
C1509 C1508 1.391 . S
C1510 H1500 0.950 . S
C1510 C1511 1.386 1_554 S
C1510 C1512 1.391 . S
C1511 C1510 1.386 1_556 S
C1511 C1515 1.393 . S
C1512 H1501 0.950 . S
C1512 C1510 1.391 . S
C1512 C1513 1.400 1_554 S
C1513 C1507 1.491 . S
C1513 C1512 1.400 1_556 S
C1513 C1514 1.398 . S
C1514 H1502 0.950 . S
C1514 C1513 1.398 . S
C1514 C1515 1.391 . S
C1515 H1503 0.950 . S
C1515 C1511 1.393 . S
C1515 C1514 1.391 . S
H1516 C1524 0.950 . S
H1517 C1529 0.950 . S
H1518 C1526 0.950 . S
H1519 C1528 0.950 . S
H1520 C1530 0.950 . S
H1521 C1532 0.950 . S
H1522 C1534 0.950 . S
H1523 C1535 0.950 . S
C1524 H1516 0.950 . S
C1524 C1525 1.386 . S
C1524 C1526 1.391 . S
C1525 C1524 1.386 . S
C1525 C1529 1.393 1_556 S
C1526 H1518 0.950 . S
C1526 C1524 1.391 . S
C1526 C1527 1.400 . S
C1527 C1526 1.400 . S
C1527 C1528 1.398 1_556 S
C1527 C1533 1.491 . S
C1528 H1519 0.950 . S
C1528 C1527 1.398 1_554 S
C1528 C1529 1.391 . S
C1529 H1517 0.950 . S
C1529 C1525 1.393 1_554 S
C1529 C1528 1.391 . S
C1530 H1520 0.950 . S
C1530 C1531 1.386 1_554 S
C1530 C1532 1.391 . S
C1531 C1530 1.386 1_556 S
C1531 C1535 1.393 . S
C1532 H1521 0.950 . S
C1532 C1530 1.391 . S
C1532 C1533 1.400 1_554 S
C1533 C1527 1.491 . S
C1533 C1532 1.400 1_556 S
C1533 C1534 1.398 . S
C1534 H1522 0.950 . S
C1534 C1533 1.398 . S
C1534 C1535 1.391 . S
C1535 H1523 0.950 . S
C1535 C1531 1.393 . S
C1535 C1534 1.391 . S
H1536 C1544 0.950 . S
H1537 C1549 0.950 . S
H1538 C1546 0.950 . S
H1539 C1548 0.950 . S
H1540 C1550 0.950 . S
H1541 C1552 0.950 . S
H1542 C1554 0.950 . S
H1543 C1555 0.950 . S
C1544 H1536 0.950 . S
C1544 C1545 1.386 . S
C1544 C1546 1.391 . S
C1545 C1544 1.386 . S
C1545 C1549 1.393 . S
C1546 H1538 0.950 . S
C1546 C1544 1.391 . S
C1546 C1547 1.400 . S
C1547 C1546 1.400 . S
C1547 C1548 1.398 . S
C1547 C1553 1.491 . S
C1548 H1539 0.950 . S
C1548 C1547 1.398 . S
C1548 C1549 1.391 . S
C1549 H1537 0.950 . S
C1549 C1545 1.393 . S
C1549 C1548 1.391 . S
C1550 H1540 0.950 . S
C1550 C1551 1.386 . S
C1550 C1552 1.391 . S
C1551 C1550 1.386 . S
C1551 C1555 1.393 . S
C1552 H1541 0.950 . S
C1552 C1550 1.391 . S
C1552 C1553 1.400 . S
C1553 C1547 1.491 . S
C1553 C1552 1.400 . S
C1553 C1554 1.398 . S
C1554 H1542 0.950 . S
C1554 C1553 1.398 . S
C1554 C1555 1.391 . S
C1555 H1543 0.950 . S
C1555 C1551 1.393 . S
C1555 C1554 1.391 . S
H1556 C1564 0.950 . S
H1557 C1569 0.950 . S
H1558 C1566 0.950 . S
H1559 C1568 0.950 . S
H1560 C1570 0.950 . S
H1561 C1572 0.950 . S
H1562 C1574 0.950 . S
H1563 C1575 0.950 . S
C1564 H1556 0.950 . S
C1564 C1565 1.386 . S
C1564 C1566 1.391 . S
C1565 C1564 1.386 . S
C1565 C1569 1.393 . S
C1566 H1558 0.950 . S
C1566 C1564 1.391 . S
C1566 C1567 1.400 . S
C1567 C1566 1.400 . S
C1567 C1568 1.398 . S
C1567 C1573 1.491 . S
C1568 H1559 0.950 . S
C1568 C1567 1.398 . S
C1568 C1569 1.391 . S
C1569 H1557 0.950 . S
C1569 C1565 1.393 . S
C1569 C1568 1.391 . S
C1570 H1560 0.950 . S
C1570 C1571 1.386 . S
C1570 C1572 1.391 . S
C1571 C1570 1.386 . S
C1571 C1575 1.393 . S
C1572 H1561 0.950 . S
C1572 C1570 1.391 . S
C1572 C1573 1.400 . S
C1573 C1567 1.491 . S
C1573 C1572 1.400 . S
C1573 C1574 1.398 . S
C1574 H1562 0.950 . S
C1574 C1573 1.398 . S
C1574 C1575 1.391 . S
C1575 H1563 0.950 . S
C1575 C1571 1.393 . S
C1575 C1574 1.391 . S
H1576 C1584 0.950 . S
H1577 C1589 0.950 . S
H1578 C1586 0.950 . S
H1579 C1588 0.950 . S
H1580 C1590 0.950 . S
H1581 C1592 0.950 . S
H1582 C1594 0.950 . S
H1583 C1595 0.950 . S
C1584 H1576 0.950 . S
C1584 C1585 1.386 . S
C1584 C1586 1.391 . S
C1585 C1584 1.386 . S
C1585 C1589 1.393 . S
C1586 H1578 0.950 . S
C1586 C1584 1.391 . S
C1586 C1587 1.400 . S
C1587 C1586 1.400 . S
C1587 C1588 1.398 . S
C1587 C1593 1.491 . S
C1588 H1579 0.950 . S
C1588 C1587 1.398 . S
C1588 C1589 1.391 . S
C1589 H1577 0.950 . S
C1589 C1585 1.393 . S
C1589 C1588 1.391 . S
C1590 H1580 0.950 . S
C1590 C1591 1.386 . S
C1590 C1592 1.391 . S
C1591 C1590 1.386 . S
C1591 C1595 1.393 . S
C1592 H1581 0.950 . S
C1592 C1590 1.391 . S
C1592 C1593 1.400 . S
C1593 C1587 1.491 . S
C1593 C1592 1.400 . S
C1593 C1594 1.398 . S
C1594 H1582 0.950 . S
C1594 C1593 1.398 . S
C1594 C1595 1.391 . S
C1595 H1583 0.950 . S
C1595 C1591 1.393 . S
C1595 C1594 1.391 . S
H1596 C1604 0.950 . S
H1597 C1609 0.950 . S
H1598 C1606 0.950 . S
H1599 C1608 0.950 . S
H1600 C1610 0.950 . S
H1601 C1612 0.950 . S
H1602 C1614 0.950 . S
H1603 C1615 0.950 . S
C1604 H1596 0.950 . S
C1604 C1605 1.386 . S
C1604 C1606 1.391 . S
C1605 C1604 1.386 . S
C1605 C1609 1.393 . S
C1606 H1598 0.950 . S
C1606 C1604 1.391 . S
C1606 C1607 1.400 . S
C1607 C1606 1.400 . S
C1607 C1608 1.398 . S
C1607 C1613 1.491 . S
C1608 H1599 0.950 . S
C1608 C1607 1.398 . S
C1608 C1609 1.391 . S
C1609 H1597 0.950 . S
C1609 C1605 1.393 . S
C1609 C1608 1.391 . S
C1610 H1600 0.950 . S
C1610 C1611 1.386 . S
C1610 C1612 1.391 . S
C1611 C1610 1.386 . S
C1611 C1615 1.393 . S
C1612 H1601 0.950 . S
C1612 C1610 1.391 . S
C1612 C1613 1.400 . S
C1613 C1607 1.491 . S
C1613 C1612 1.400 . S
C1613 C1614 1.398 . S
C1614 H1602 0.950 . S
C1614 C1613 1.398 . S
C1614 C1615 1.391 . S
C1615 H1603 0.950 . S
C1615 C1611 1.393 . S
C1615 C1614 1.391 . S
H1616 C1624 0.950 . S
H1617 C1629 0.950 . S
H1618 C1626 0.950 . S
H1619 C1628 0.950 . S
H1620 C1630 0.950 . S
H1621 C1632 0.950 . S
H1622 C1634 0.950 . S
H1623 C1635 0.950 . S
C1624 H1616 0.950 . S
C1624 C1625 1.386 . S
C1624 C1626 1.391 . S
C1625 C1624 1.386 . S
C1625 C1629 1.393 . S
C1626 H1618 0.950 . S
C1626 C1624 1.391 . S
C1626 C1627 1.400 . S
C1627 C1626 1.400 . S
C1627 C1628 1.398 . S
C1627 C1633 1.491 . S
C1628 H1619 0.950 . S
C1628 C1627 1.398 . S
C1628 C1629 1.391 . S
C1629 H1617 0.950 . S
C1629 C1625 1.393 . S
C1629 C1628 1.391 . S
C1630 H1620 0.950 . S
C1630 C1631 1.386 . S
C1630 C1632 1.391 . S
C1631 C1630 1.386 . S
C1631 C1635 1.393 . S
C1632 H1621 0.950 . S
C1632 C1630 1.391 . S
C1632 C1633 1.400 . S
C1633 C1627 1.491 . S
C1633 C1632 1.400 . S
C1633 C1634 1.398 . S
C1634 H1622 0.950 . S
C1634 C1633 1.398 . S
C1634 C1635 1.391 . S
C1635 H1623 0.950 . S
C1635 C1631 1.393 . S
C1635 C1634 1.391 . S
H1636 C1644 0.950 . S
H1637 C1649 0.950 . S
H1638 C1646 0.950 . S
H1639 C1648 0.950 . S
H1640 C1650 0.950 . S
H1641 C1652 0.950 . S
H1642 C1654 0.950 . S
H1643 C1655 0.950 . S
C1644 H1636 0.950 . S
C1644 C1645 1.386 . S
C1644 C1646 1.391 . S
C1645 C1644 1.386 . S
C1645 C1649 1.393 . S
C1646 H1638 0.950 . S
C1646 C1644 1.391 . S
C1646 C1647 1.400 . S
C1647 C1646 1.400 . S
C1647 C1648 1.398 . S
C1647 C1653 1.491 . S
C1648 H1639 0.950 . S
C1648 C1647 1.398 . S
C1648 C1649 1.391 . S
C1649 H1637 0.950 . S
C1649 C1645 1.393 . S
C1649 C1648 1.391 . S
C1650 H1640 0.950 . S
C1650 C1651 1.386 . S
C1650 C1652 1.391 . S
C1651 C1650 1.386 . S
C1651 C1655 1.393 . S
C1652 H1641 0.950 . S
C1652 C1650 1.391 . S
C1652 C1653 1.400 . S
C1653 C1647 1.491 . S
C1653 C1652 1.400 . S
C1653 C1654 1.398 . S
C1654 H1642 0.950 . S
C1654 C1653 1.398 . S
C1654 C1655 1.391 . S
C1655 H1643 0.950 . S
C1655 C1651 1.393 . S
C1655 C1654 1.391 . S
H1656 C1664 0.950 . S
H1657 C1669 0.950 . S
H1658 C1666 0.950 . S
H1659 C1668 0.950 . S
H1660 C1670 0.950 . S
H1661 C1672 0.950 . S
H1662 C1674 0.950 . S
H1663 C1675 0.950 . S
C1664 H1656 0.950 . S
C1664 C1665 1.386 . S
C1664 C1666 1.391 . S
C1665 C1664 1.386 . S
C1665 C1669 1.393 . S
C1666 H1658 0.950 . S
C1666 C1664 1.391 . S
C1666 C1667 1.400 . S
C1667 C1666 1.400 . S
C1667 C1668 1.398 . S
C1667 C1673 1.491 . S
C1668 H1659 0.950 . S
C1668 C1667 1.398 . S
C1668 C1669 1.391 . S
C1669 H1657 0.950 . S
C1669 C1665 1.393 . S
C1669 C1668 1.391 . S
C1670 H1660 0.950 . S
C1670 C1671 1.386 . S
C1670 C1672 1.391 . S
C1671 C1670 1.386 . S
C1671 C1675 1.393 . S
C1672 H1661 0.950 . S
C1672 C1670 1.391 . S
C1672 C1673 1.400 . S
C1673 C1667 1.491 . S
C1673 C1672 1.400 . S
C1673 C1674 1.398 . S
C1674 H1662 0.950 . S
C1674 C1673 1.398 . S
C1674 C1675 1.391 . S
C1675 H1663 0.950 . S
C1675 C1671 1.393 . S
C1675 C1674 1.391 . S
H1676 C1684 0.950 . S
H1677 C1689 0.950 . S
H1678 C1686 0.950 . S
H1679 C1688 0.950 . S
H1680 C1690 0.950 . S
H1681 C1692 0.950 . S
H1682 C1694 0.950 . S
H1683 C1695 0.950 . S
C1684 H1676 0.950 . S
C1684 C1685 1.386 . S
C1684 C1686 1.391 . S
C1685 C1684 1.386 . S
C1685 C1689 1.393 . S
C1686 H1678 0.950 . S
C1686 C1684 1.391 . S
C1686 C1687 1.400 . S
C1687 C1686 1.400 . S
C1687 C1688 1.398 . S
C1687 C1693 1.491 . S
C1688 H1679 0.950 . S
C1688 C1687 1.398 . S
C1688 C1689 1.391 . S
C1689 H1677 0.950 . S
C1689 C1685 1.393 . S
C1689 C1688 1.391 . S
C1690 H1680 0.950 . S
C1690 C1691 1.386 . S
C1690 C1692 1.391 . S
C1691 C1690 1.386 . S
C1691 C1695 1.393 . S
C1692 H1681 0.950 . S
C1692 C1690 1.391 . S
C1692 C1693 1.400 . S
C1693 C1687 1.491 . S
C1693 C1692 1.400 . S
C1693 C1694 1.398 . S
C1694 H1682 0.950 . S
C1694 C1693 1.398 . S
C1694 C1695 1.391 . S
C1695 H1683 0.950 . S
C1695 C1691 1.393 . S
C1695 C1694 1.391 . S
C425 C1 1.502 . S
C431 C40 1.506 . S
C445 C27 1.498 . S
C451 C14 1.505 . S
C465 C53 1.476 . S
C471 C92 1.475 . S
C485 C79 1.468 . S
C491 C66 1.484 . S
C505 C105 1.462 . S
C511 C144 1.460 . S
C525 C131 1.459 . S
C531 C118 1.460 . S
C545 C157 1.435 . S
C551 C196 1.447 . S
C565 C170 1.446 . S
C571 C183 1.432 . S
C585 C248 1.459 . S
C591 C209 1.460 . S
C605 C222 1.462 . S
C611 C235 1.463 . S
C625 C261 1.430 . S
C631 C300 1.440 . S
C645 C287 1.430 . S
C651 C274 1.438 . S
C665 C313 1.498 . S
C671 C352 1.507 . S
C685 C339 1.502 . S
C691 C326 1.508 . S
C705 C365 1.482 . S
C711 C404 1.475 . S
C725 C378 1.485 . S
C731 C391 1.477 . S
C745 C161 1.837 . S
C751 C5 1.719 . S
C765 C18 1.727 . S
C771 C278 1.841 . S
C785 C31 1.692 . S
C791 C83 1.796 . S
C805 C408 1.790 . S
C811 C44 1.677 . S
C825 C57 1.834 . S
C831 C109 1.711 . S
C845 C226 1.716 . S
C851 C70 1.836 . S
C865 C356 1.680 . S
C871 C96 1.790 . S
C885 C382 1.841 . S
C891 C122 1.728 . S
C905 C187 1.795 . S
C911 C135 1.679 . S
C925 C304 1.804 . S
C931 C148 1.703 . S
C945 C174 1.846 . S
C951 C330 1.740 . S
C965 C252 1.704 . S
C971 C200 1.804 . S
C985 C369 1.836 . S
C991 C213 1.716 . S
C1005 C291 1.794 . S
C1011 C239 1.681 . S
C1025 C317 1.713 . S
C1031 C265 1.835 . S
C1045 C343 1.685 . S
C1051 C395 1.792 . S
C1065 C133 1.707 . S
C1071 C3 1.706 . S
C1085 C16 1.706 . S
C1091 C146 1.707 . S
C1105 C107 1.671 . S
C1111 C29 1.664 . S
C1125 C120 1.672 . S
C1131 C42 1.665 . S
C1145 C55 1.675 . S
C1151 C185 1.676 . S
C1165 C68 1.677 . S
C1171 C198 1.676 . S
C1185 C159 1.635 . S
C1191 C81 1.634 . S
C1205 C94 1.623 . S
C1211 C172 1.624 . S
C1225 C341 1.671 . S
C1231 C211 1.664 . S
C1245 C354 1.670 . S
C1251 C224 1.666 . S
C1265 C237 1.705 . S
C1271 C315 1.705 . S
C1285 C250 1.706 . S
C1291 C328 1.707 . S
C1305 C263 1.636 . S
C1311 C393 1.620 . S
C1325 C276 1.638 . S
C1331 C406 1.623 . S
C1345 C367 1.670 . S
C1351 C289 1.660 . S
C1365 C380 1.677 . S
C1371 C302 1.670 . S
C1385 C10 1.965 . S
C1391 C335 1.965 . S
C1405 C322 1.964 . S
C1411 C23 1.964 1_655 S
C1425 C36 1.943 . S
C1431 C361 1.943 . S
C1445 C49 1.920 1_655 S
C1451 C348 1.920 . S
C1465 C62 2.057 . S
C1471 C387 2.057 . S
C1485 C75 2.057 1_455 S
C1491 C374 2.057 . S
C1505 C413 2.017 . S
C1511 C88 2.016 . S
C1525 C400 2.014 . S
C1531 C101 2.015 1_455 S
C1545 C231 1.980 . S
C1551 C114 1.980 . S
C1565 C218 1.957 . S
C1571 C127 1.958 1_655 S
C1585 C140 1.921 . S
C1591 C257 1.921 . S
C1605 C153 1.939 1_655 S
C1611 C244 1.939 . S
C1625 C283 2.061 . S
C1631 C166 2.060 . S
C1645 C179 2.054 1_455 S
C1651 C270 2.054 . S
C1665 C192 2.022 . S
C1671 C309 2.022 . S
C1685 C205 2.025 1_455 S
C1691 C296 2.024 . S
