# Generated by pormake.
# Topology unc, (4)-cn, num edge types: 1
# Building blocks:
#     Node 0, Type 0, BuildingBlock: QUQFOY_clean_sbu_1, # of connection points: 4
#     Node 1, Type 0, BuildingBlock: QUQFOY_clean_sbu_1, # of connection points: 4
#     Node 2, Type 0, BuildingBlock: QUQFOY_clean_sbu_1, # of connection points: 4
#     Node 3, Type 0, BuildingBlock: QUQFOY_clean_sbu_1, # of connection points: 4
#     Edge 4, Type (0, 0), BuildingBlock: ZUJKAS_clean_linker_0, # of connection points: 2
#     Edge 5, Type (0, 0), BuildingBlock: ZUJKAS_clean_linker_0, # of connection points: 2
#     Edge 6, Type (0, 0), BuildingBlock: ZUJKAS_clean_linker_0, # of connection points: 2
#     Edge 7, Type (0, 0), BuildingBlock: ZUJKAS_clean_linker_0, # of connection points: 2
#     Edge 8, Type (0, 0), BuildingBlock: ZUJKAS_clean_linker_0, # of connection points: 2
#     Edge 9, Type (0, 0), BuildingBlock: ZUJKAS_clean_linker_0, # of connection points: 2
#     Edge 10, Type (0, 0), BuildingBlock: ZUJKAS_clean_linker_0, # of connection points: 2
#     Edge 11, Type (0, 0), BuildingBlock: ZUJKAS_clean_linker_0, # of connection points: 2
# Relax obj value: 0.065
# Max RMSD: 0.109
# Mean RMSD: 0.109
data_MOF--net-unc--node1-QUQFOY_clean_sbu_1--edge1-ZUJKAS_clean_linker_0
_symmetry_space_group_name_H-M    P1
_symmetry_Int_Tables_number       1
_symmetry_cell_setting            triclinic
loop_
_symmetry_equiv_pos_as_xyz
'x, y, z'
_cell_length_a     40.37602
_cell_length_b     40.376381
_cell_length_c     29.176199
_cell_angle_alpha  89.991201
_cell_angle_beta   89.914197
_cell_angle_gamma 90.079254
loop_
_atom_site_label
_atom_site_type_symbol
_atom_site_fract_x
_atom_site_fract_y
_atom_site_fract_z
_atom_type_partial_charge
O0 O 0.98969 0.63776 0.93814 0.0
Cd1 Cd 0.97611 0.66697 0.99285 0.0
Cd2 Cd 0.04113 0.66818 0.00652 0.0
O3 O 0.04355 0.64561 0.943 0.0
O4 O 0.93028 0.6819 0.97835 0.0
O5 O 0.97284 0.71624 0.98337 0.0
C6 C 0.94181 0.71159 0.97471 0.0
C7 C 0.07158 0.71552 0.02369 0.0
C8 C 0.01872 0.63314 0.92255 0.0
C9 C 1.00007 0.63233 0.07655 0.0
O10 O 0.02899 0.63803 0.06107 0.0
O11 O 0.97482 0.64397 0.05614 0.0
O12 O 0.08587 0.68721 0.01862 0.0
O13 O 0.03994 0.71728 0.01773 0.0
O14 O 0.3772 0.02513 0.31423 0.0
Cd15 Cd 0.3487 0.03889 0.25896 0.0
Cd16 Cd 0.34791 0.97386 0.24451 0.0
O17 O 0.36996 0.97123 0.30832 0.0
O18 O 0.33346 0.08463 0.27344 0.0
O19 O 0.2993 0.042 0.26722 0.0
C20 C 0.30374 0.07303 0.27613 0.0
C21 C 0.30115 0.94292 0.22585 0.0
C22 C 0.38192 0.99604 0.32944 0.0
C23 C 0.38422 0.01547 0.17551 0.0
O24 O 0.37839 0.98646 0.19051 0.0
O25 O 0.37246 0.0406 0.19617 0.0
O26 O 0.3296 0.929 0.23128 0.0
O27 O 0.29889 0.97446 0.23252 0.0
O28 O 0.02664 0.3768 0.43796 0.0
Cd29 Cd 0.04087 0.34777 0.4925 0.0
Cd30 Cd 0.97574 0.34803 0.50799 0.0
O31 O 0.97256 0.37148 0.44513 0.0
O32 O 0.08633 0.33282 0.47614 0.0
O33 O 0.04405 0.29837 0.48368 0.0
C34 C 0.07487 0.30307 0.47352 0.0
C35 C 0.94194 0.3031 0.5271 0.0
C36 C 0.99755 0.3828 0.42364 0.0
C37 C 0.01934 0.38326 0.57637 0.0
O38 O 0.99018 0.37736 0.56217 0.0
O39 O 0.0442 0.37159 0.55504 0.0
O40 O 0.93033 0.33277 0.52442 0.0
O41 O 0.9728 0.29864 0.51705 0.0
O42 O 0.63877 0.98802 0.81247 0.0
Cd43 Cd 0.66761 0.97384 0.75763 0.0
Cd44 Cd 0.6673 0.039 0.74188 0.0
O45 O 0.64359 0.04209 0.80461 0.0
O46 O 0.68272 0.92833 0.77336 0.0
O47 O 0.71707 0.97069 0.76571 0.0
C48 C 0.7125 0.93979 0.77545 0.0
C49 C 0.71228 0.07304 0.7238 0.0
C50 C 0.63254 0.01716 0.82647 0.0
C51 C 0.63223 0.99531 0.67353 0.0
O52 O 0.63827 0.02454 0.6874 0.0
O53 O 0.64365 0.97053 0.69524 0.0
O54 O 0.68253 0.08451 0.72603 0.0
O55 O 0.71674 0.04212 0.73344 0.0
H56 H 0.94211 0.61038 0.11546 0.0
H57 H 0.9358 0.56978 0.1773 0.0
H58 H 0.04201 0.5624 0.18853 0.0
H59 H 0.04861 0.60311 0.12752 0.0
H60 H 0.95853 0.50484 0.17715 0.0
H61 H 0.01378 0.57477 0.32126 0.0
H62 H 1.00109 0.59448 0.26859 0.0
H63 H 0.04036 0.57358 0.27197 0.0
C64 C 0.96413 0.6005 0.13158 0.0
C65 C 0.99588 0.61009 0.11658 0.0
C66 C 0.96045 0.57724 0.16679 0.0
C67 C 0.98842 0.5634 0.18787 0.0
C68 C 0.02008 0.57328 0.17342 0.0
H69 H 0.04573 0.40946 0.36934 0.0
H70 H 0.0396 0.45237 0.31119 0.0
C71 C 0.02379 0.59647 0.13832 0.0
C72 C 0.98485 0.53722 0.22315 0.0
H73 H 0.00952 0.5159 0.33097 0.0
C74 C 0.96919 0.50738 0.21107 0.0
C75 C 0.99868 0.54069 0.26738 0.0
C76 C 0.01412 0.57274 0.28328 0.0
C77 C 0.96851 0.48031 0.24133 0.0
C78 C 0.98363 0.48338 0.28476 0.0
C79 C 0.99819 0.51359 0.29743 0.0
C80 C 0.98628 0.45515 0.31687 0.0
C81 C 0.95293 0.44819 0.22605 0.0
C82 C 0.95818 0.44209 0.33875 0.0
C83 C 0.96155 0.41742 0.37216 0.0
C84 C 0.99313 0.40558 0.3843 0.0
C85 C 0.02104 0.41801 0.361 0.0
C86 C 0.01763 0.4426 0.32778 0.0
H87 H 0.94697 0.44827 0.18889 0.0
H88 H 0.9697 0.42707 0.23336 0.0
H89 H 0.92962 0.44409 0.24547 0.0
H90 H 0.93379 0.45175 0.33111 0.0
H91 H 0.93957 0.4085 0.38957 0.0
H92 H 0.40455 0.9375 0.36567 0.0
H93 H 0.445 0.93049 0.42749 0.0
H94 H 0.44983 0.03646 0.44468 0.0
H95 H 0.40933 0.04372 0.38375 0.0
H96 H 0.50945 0.95519 0.4283 0.0
H97 H 0.43848 1.00413 0.57579 0.0
H98 H 0.41895 0.99223 0.52263 0.0
H99 H 0.43854 0.03212 0.52805 0.0
C100 C 0.41379 0.95928 0.38317 0.0
C101 C 0.40363 0.99118 0.36979 0.0
C102 C 0.43698 0.95522 0.41835 0.0
C103 C 0.4501 0.98293 0.44102 0.0
C104 C 0.43951 0.0147 0.42832 0.0
H105 H 0.6036 0.04294 0.62043 0.0
H106 H 0.5603 0.03572 0.5631 0.0
C107 C 0.41644 0.01879 0.39324 0.0
C108 C 0.47645 0.97916 0.47592 0.0
H109 H 0.49766 1.00241 0.58441 0.0
C110 C 0.50675 0.96496 0.46272 0.0
C111 C 0.47279 0.99184 0.52081 0.0
C112 C 0.44031 1.00562 0.53784 0.0
C113 C 0.53406 0.96475 0.49252 0.0
C114 C 0.53078 0.9789 0.53657 0.0
C115 C 0.50013 0.99185 0.55038 0.0
C116 C 0.55921 0.98231 0.56812 0.0
C117 C 0.56663 0.95083 0.47613 0.0
C118 C 0.57332 0.95453 0.58933 0.0
C119 C 0.59819 0.95853 0.62228 0.0
C120 C 0.6092 0.99041 0.63459 0.0
C121 C 0.59573 0.01803 0.61192 0.0
C122 C 0.57091 0.014 0.57919 0.0
H123 H 0.56631 0.94503 0.43891 0.0
H124 H 0.58702 0.96863 0.48302 0.0
H125 H 0.57213 0.9277 0.49519 0.0
H126 H 0.56435 0.92988 0.58151 0.0
H127 H 0.60795 0.93675 0.63917 0.0
H128 H 0.97093 0.60337 0.87084 0.0
H129 H 0.97837 0.56225 0.81056 0.0
H130 H 0.08441 0.57122 0.823 0.0
H131 H 0.07726 0.61223 0.88415 0.0
H132 H 0.01129 0.56598 0.72636 0.0
H133 H 0.068 0.47151 0.8409 0.0
H134 H 0.04707 0.50768 0.86282 0.0
H135 H 0.08805 0.51127 0.83933 0.0
C136 C 0.99589 0.59684 0.86068 0.0
C137 C 0.02351 0.61094 0.88264 0.0
C138 C 1.00008 0.5733 0.82617 0.0
C139 C 0.03192 0.56327 0.81292 0.0
C140 C 0.05962 0.57815 0.83342 0.0
H141 H 0.07772 0.40809 0.61065 0.0
H142 H 0.08416 0.45199 0.66814 0.0
C143 C 0.05546 0.60177 0.86808 0.0
C144 C 0.03562 0.53683 0.77809 0.0
H145 H 0.05973 0.45636 0.76378 0.0
C146 C 0.02214 0.54212 0.73442 0.0
C147 C 0.04988 0.50574 0.78871 0.0
C148 C 0.06389 0.49843 0.83554 0.0
C149 C 0.02183 0.51691 0.70138 0.0
C150 C 0.03496 0.48549 0.71255 0.0
C151 C 0.04962 0.48051 0.75553 0.0
C152 C 0.03164 0.45708 0.68089 0.0
C153 C 1.00706 0.52396 0.65491 0.0
C154 C 1.0001 0.44472 0.67044 0.0
C155 C 0.99631 0.41969 0.63793 0.0
C156 C 0.02406 0.40645 0.61521 0.0
C157 C 0.05583 0.41779 0.62742 0.0
C158 C 0.05958 0.44289 0.66015 0.0
H159 H 1.00596 0.55096 0.64776 0.0
H160 H 0.02159 0.51173 0.62735 0.0
H161 H 0.98142 0.51405 0.65379 0.0
H162 H 0.97829 0.45499 0.68677 0.0
H163 H 0.97149 0.41142 0.62969 0.0
H164 H 0.40717 0.07362 0.13831 0.0
H165 H 0.44763 0.08014 0.07625 0.0
H166 H 0.45312 0.974 0.06178 0.0
H167 H 0.41258 0.96721 0.12303 0.0
H168 H 0.51231 0.05601 0.07486 0.0
H169 H 0.44023 1.00469 0.93004 0.0
H170 H 0.42114 0.01709 0.98334 0.0
H171 H 0.44103 0.97737 0.97852 0.0
C172 C 0.41662 0.05168 0.12145 0.0
C173 C 0.40654 0.01988 0.13559 0.0
C174 C 0.4398 0.05547 0.08611 0.0
C175 C 0.45304 0.02758 0.06405 0.0
C176 C 0.4427 0.99589 0.07768 0.0
H177 H 0.60505 0.96911 0.88021 0.0
H178 H 0.56239 0.97565 0.93873 0.0
C179 C 0.41961 0.99206 0.11293 0.0
C180 C 0.47904 0.03119 0.0285 0.0
H181 H 0.49914 1.00764 0.91966 0.0
C182 C 0.50932 0.04594 0.04065 0.0
C183 C 0.47498 0.01814 0.98389 0.0
C184 C 0.44246 1.00374 0.96797 0.0
C185 C 0.53622 0.04642 0.01004 0.0
C186 C 0.53254 0.03201 0.96623 0.0
C187 C 0.50191 0.01841 0.9535 0.0
C188 C 0.56056 0.02904 0.93377 0.0
C189 C 0.5688 0.06099 0.02533 0.0
C190 C 0.57402 0.05703 0.91214 0.0
C191 C 0.59853 0.05342 0.8785 0.0
C192 C 0.60981 0.02172 0.8659 0.0
C193 C 0.59695 0.99389 0.88891 0.0
C194 C 0.5725 0.99753 0.92234 0.0
H195 H 0.56897 0.06674 0.06256 0.0
H196 H 0.5894 0.04363 0.01768 0.0
H197 H 0.57357 0.08425 0.00615 0.0
H198 H 0.56484 0.08155 0.92022 0.0
H199 H 0.6078 0.07535 0.86135 0.0
H200 H 0.28414 0.88017 0.25007 0.0
H201 H 0.2409 0.84553 0.2161 0.0
H202 H 0.21323 0.92612 0.12677 0.0
H203 H 0.25471 0.96158 0.16353 0.0
H204 H 0.16092 0.89498 0.14714 0.0
H205 H 0.25244 0.79975 0.09887 0.0
H206 H 0.25139 0.80449 0.15983 0.0
H207 H 0.26461 0.83856 0.12409 0.0
C208 C 0.26841 0.89054 0.22366 0.0
C209 C 0.27277 0.92338 0.20915 0.0
C210 C 0.244 0.87064 0.20381 0.0
C211 C 0.22459 0.88267 0.16747 0.0
C212 C 0.22804 0.91603 0.15437 0.0
H213 H 0.13062 0.73678 0.99016 0.0
H214 H 0.16553 0.78126 0.02038 0.0
C215 C 0.2517 0.93632 0.17539 0.0
C216 C 0.20135 0.86034 0.14251 0.0
H217 H 0.19567 0.78397 0.09312 0.0
C218 C 0.16863 0.87084 0.13487 0.0
C219 C 0.21145 0.82915 0.12517 0.0
C220 C 0.24698 0.81754 0.12694 0.0
C221 C 0.1457 0.85085 0.11137 0.0
C222 C 0.15516 0.81863 0.09716 0.0
C223 C 0.18804 0.80843 0.10424 0.0
C224 C 0.13177 0.79479 0.07517 0.0
C225 C 0.11198 0.86508 0.10102 0.0
C226 C 0.10067 0.78789 0.09485 0.0
C227 C 0.08012 0.76342 0.07621 0.0
C228 C 0.0909 0.74444 0.03881 0.0
C229 C 0.12179 0.75126 0.01894 0.0
C230 C 0.14177 0.77655 0.03643 0.0
H231 H 0.11309 0.8925 0.098 0.0
H232 H 0.10163 0.85493 0.06872 0.0
H233 H 0.09484 0.85916 0.12963 0.0
H234 H 0.09269 0.80047 0.12568 0.0
H235 H 0.05662 0.75808 0.09261 0.0
H236 H 0.30604 0.13912 0.29491 0.0
H237 H 0.26215 0.17373 0.32662 0.0
H238 H 0.19507 0.09056 0.32439 0.0
H239 H 0.23914 0.05544 0.29298 0.0
H240 H 0.1991 0.18879 0.29158 0.0
H241 H 0.19103 0.12247 0.45853 0.0
H242 H 0.22529 0.11689 0.41947 0.0
H243 H 0.18613 0.09751 0.40796 0.0
C244 C 0.28193 0.12814 0.3009 0.0
C245 C 0.27615 0.09445 0.29163 0.0
C246 C 0.25686 0.14799 0.31905 0.0
C247 C 0.22552 0.1346 0.32855 0.0
C248 C 0.21928 0.10122 0.31812 0.0
H249 H 0.05763 0.23825 0.4573 0.0
H250 H 0.09196 0.19524 0.42145 0.0
C251 C 0.24441 0.08127 0.29985 0.0
C252 C 0.19974 0.15588 0.34962 0.0
H253 H 0.15579 0.16836 0.44835 0.0
C254 C 0.18945 0.18419 0.32572 0.0
C255 C 0.18711 0.14975 0.39412 0.0
C256 C 0.19804 0.12017 0.42183 0.0
C257 C 0.16733 0.20688 0.3454 0.0
C258 C 0.15561 0.20138 0.39048 0.0
C259 C 0.16493 0.1725 0.41384 0.0
C260 C 0.13529 0.22643 0.41471 0.0
C261 C 0.15686 0.23673 0.31789 0.0
C262 C 0.14866 0.25778 0.42404 0.0
C263 C 0.12927 0.28225 0.44453 0.0
C264 C 0.09608 0.27584 0.45631 0.0
C265 C 0.08308 0.24398 0.44857 0.0
C266 C 0.10261 0.21941 0.42804 0.0
H267 H 0.16051 0.23274 0.28054 0.0
H268 H 0.13043 0.24282 0.32424 0.0
H269 H 0.17208 0.25838 0.32822 0.0
H270 H 0.17405 0.26347 0.41484 0.0
H271 H 0.14016 0.30642 0.45024 0.0
H272 H 0.77689 0.05563 0.70674 0.0
H273 H 0.82117 0.09118 0.67635 0.0
H274 H 0.75397 0.17407 0.67442 0.0
H275 H 0.70994 0.13908 0.70499 0.0
H276 H 0.82093 0.12645 0.59287 0.0
H277 H 0.83501 0.21171 0.7402 0.0
H278 H 0.81403 0.17232 0.74484 0.0
H279 H 0.79283 0.20772 0.72167 0.0
C280 C 0.7717 0.08154 0.70039 0.0
C281 C 0.73992 0.09456 0.70849 0.0
C282 C 0.79698 0.10176 0.68291 0.0
C283 C 0.79098 0.13536 0.67373 0.0
C284 C 0.75936 0.14839 0.68213 0.0
H285 H 0.87649 0.30583 0.54963 0.0
H286 H 0.84253 0.26242 0.58406 0.0
C287 C 0.73415 0.12827 0.69944 0.0
C288 C 0.81704 0.15674 0.65336 0.0
H289 H 0.85723 0.23035 0.66848 0.0
C290 C 0.82933 0.14892 0.60962 0.0
C291 C 0.82798 0.18597 0.67537 0.0
C292 C 0.81704 0.19481 0.72331 0.0
C293 C 0.85096 0.17047 0.58633 0.0
C294 C 0.86078 0.20035 0.60766 0.0
C295 C 0.84945 0.20753 0.65206 0.0
C296 C 0.8813 0.22551 0.58379 0.0
C297 C 0.86198 0.1619 0.53836 0.0
C298 C 0.91435 0.21905 0.57175 0.0
C299 C 0.93394 0.24391 0.55189 0.0
C300 C 0.92077 0.27565 0.54396 0.0
C301 C 0.88744 0.2817 0.55521 0.0
C302 C 0.86798 0.25693 0.57501 0.0
H303 H 0.84746 0.14104 0.52373 0.0
H304 H 0.85957 0.1837 0.5154 0.0
H305 H 0.88845 0.15459 0.53896 0.0
H306 H 0.92524 0.1951 0.57882 0.0
H307 H 0.95956 0.23852 0.54386 0.0
H308 H 0.77716 0.95718 0.79221 0.0
H309 H 0.82118 0.92177 0.82314 0.0
H310 H 0.7536 0.83901 0.82603 0.0
H311 H 0.70984 0.87385 0.79487 0.0
H312 H 0.82055 0.88735 0.907 0.0
H313 H 0.83459 0.8005 0.76145 0.0
H314 H 0.81374 0.83984 0.756 0.0
H315 H 0.79238 0.80467 0.77986 0.0
C316 C 0.77185 0.93132 0.79885 0.0
C317 C 0.74003 0.9183 0.79087 0.0
C318 C 0.79698 0.91118 0.81666 0.0
C319 C 0.79078 0.87766 0.82629 0.0
C320 C 0.75914 0.86462 0.81796 0.0
H321 H 0.8761 0.70844 0.9538 0.0
H322 H 0.84188 0.75142 0.91911 0.0
C323 C 0.73408 0.88466 0.80031 0.0
C324 C 0.81665 0.85642 0.84713 0.0
H325 H 0.85651 0.78257 0.83357 0.0
C326 C 0.82886 0.86468 0.89072 0.0
C327 C 0.82747 0.82691 0.82575 0.0
C328 C 0.81663 0.81758 0.77798 0.0
C329 C 0.85035 0.84335 0.91444 0.0
C330 C 0.86008 0.81323 0.89374 0.0
C331 C 0.84879 0.80557 0.84952 0.0
C332 C 0.88065 0.78843 0.91799 0.0
C333 C 0.86136 0.85245 0.9622 0.0
C334 C 0.91377 0.79512 0.92935 0.0
C335 C 0.93349 0.77052 0.94933 0.0
C336 C 0.9204 0.73882 0.95805 0.0
C337 C 0.88699 0.73256 0.94759 0.0
C338 C 0.86738 0.75708 0.92765 0.0
H339 H 0.84689 0.87346 0.97643 0.0
H340 H 0.85888 0.83089 0.98561 0.0
H341 H 0.88786 0.85975 0.96137 0.0
H342 H 0.92461 0.81903 0.9216 0.0
H343 H 0.95918 0.77607 0.95675 0.0
loop_
_geom_bond_atom_site_label_1
_geom_bond_atom_site_label_2
_geom_bond_distance
_geom_bond_site_symmetry_2
_ccdc_geom_bond_type
O0 Cd1 2.223 1_556 S
O0 C8 1.315 . S
Cd1 O0 2.223 1_554 S
Cd1 O4 2.297 1_554 S
Cd1 O5 2.439 1_554 S
Cd1 O11 2.240 . S
Cd2 O3 2.240 . S
Cd2 O10 2.223 1_556 S
Cd2 O12 2.297 1_556 S
Cd2 O13 2.439 1_556 S
O3 Cd2 2.240 . S
O3 C8 1.279 1_455 S
O4 Cd1 2.297 1_556 S
O4 C6 1.247 . S
O5 Cd1 2.439 1_556 S
O5 C6 1.208 . S
C6 O4 1.247 . S
C6 O5 1.208 . S
C7 O12 1.247 . S
C7 O13 1.208 . S
C8 O0 1.315 . S
C8 O3 1.279 1_655 S
C9 O10 1.315 . S
C9 O11 1.279 1_455 S
O10 Cd2 2.223 1_554 S
O10 C9 1.315 . S
O11 Cd1 2.240 . S
O11 C9 1.279 1_655 S
O12 Cd2 2.297 1_554 S
O12 C7 1.247 . S
O13 Cd2 2.439 1_554 S
O13 C7 1.208 . S
O14 Cd15 2.223 . S
O14 C22 1.315 . S
Cd15 O14 2.223 . S
Cd15 O18 2.297 . S
Cd15 O19 2.439 . S
Cd15 O25 2.240 . S
Cd16 O17 2.240 . S
Cd16 O24 2.223 . S
Cd16 O26 2.297 . S
Cd16 O27 2.439 . S
O17 Cd16 2.240 . S
O17 C22 1.279 1_565 S
O18 Cd15 2.297 . S
O18 C20 1.247 . S
O19 Cd15 2.439 . S
O19 C20 1.208 . S
C20 O18 1.247 . S
C20 O19 1.208 . S
C21 O26 1.247 . S
C21 O27 1.208 . S
C22 O14 1.315 . S
C22 O17 1.279 1_545 S
C23 O24 1.315 . S
C23 O25 1.279 1_565 S
O24 Cd16 2.223 . S
O24 C23 1.315 . S
O25 Cd15 2.240 . S
O25 C23 1.279 1_545 S
O26 Cd16 2.297 . S
O26 C21 1.247 . S
O27 Cd16 2.439 . S
O27 C21 1.208 . S
O28 Cd29 2.223 . S
O28 C36 1.315 . S
Cd29 O28 2.223 . S
Cd29 O32 2.297 . S
Cd29 O33 2.439 . S
Cd29 O39 2.240 . S
Cd30 O31 2.240 . S
Cd30 O38 2.223 . S
Cd30 O40 2.297 . S
Cd30 O41 2.439 . S
O31 Cd30 2.240 . S
O31 C36 1.279 1_655 S
O32 Cd29 2.297 . S
O32 C34 1.247 . S
O33 Cd29 2.439 . S
O33 C34 1.208 . S
C34 O32 1.247 . S
C34 O33 1.208 . S
C35 O40 1.247 . S
C35 O41 1.208 . S
C36 O28 1.315 . S
C36 O31 1.279 1_455 S
C37 O38 1.315 . S
C37 O39 1.279 1_655 S
O38 Cd30 2.223 . S
O38 C37 1.315 . S
O39 Cd29 2.240 . S
O39 C37 1.279 1_455 S
O40 Cd30 2.297 . S
O40 C35 1.247 . S
O41 Cd30 2.439 . S
O41 C35 1.208 . S
O42 Cd43 2.223 . S
O42 C50 1.315 . S
Cd43 O42 2.223 . S
Cd43 O46 2.297 . S
Cd43 O47 2.439 . S
Cd43 O53 2.240 . S
Cd44 O45 2.240 . S
Cd44 O52 2.223 . S
Cd44 O54 2.297 . S
Cd44 O55 2.439 . S
O45 Cd44 2.240 . S
O45 C50 1.279 1_545 S
O46 Cd43 2.297 . S
O46 C48 1.247 . S
O47 Cd43 2.439 . S
O47 C48 1.208 . S
C48 O46 1.247 . S
C48 O47 1.208 . S
C49 O54 1.247 . S
C49 O55 1.208 . S
C50 O42 1.315 . S
C50 O45 1.279 1_565 S
C51 O52 1.315 . S
C51 O53 1.279 1_545 S
O52 Cd44 2.223 . S
O52 C51 1.315 . S
O53 Cd43 2.240 . S
O53 C51 1.279 1_565 S
O54 Cd44 2.297 . S
O54 C49 1.247 . S
O55 Cd44 2.439 . S
O55 C49 1.208 . S
H56 C64 0.929 . S
H57 C66 0.930 . S
H58 C68 0.930 . S
H59 C71 0.929 . S
H60 C74 0.930 . S
H61 C76 0.960 . S
H62 C76 0.960 . S
H63 C76 0.960 . S
C64 H56 0.929 . S
C64 C65 1.377 1_655 S
C64 C66 1.384 . S
C65 C64 1.377 1_455 S
C65 C71 1.390 . S
C66 H57 0.930 . S
C66 C64 1.384 . S
C66 C67 1.372 1_655 S
C67 C66 1.372 1_455 S
C67 C68 1.400 . S
C67 C72 1.490 . S
C68 H58 0.930 . S
C68 C67 1.400 . S
C68 C71 1.386 . S
H69 C85 0.930 . S
H70 C86 0.931 . S
C71 H59 0.929 . S
C71 C65 1.390 . S
C71 C68 1.386 . S
C72 C67 1.490 . S
C72 C74 1.395 1_455 S
C72 C75 1.403 . S
H73 C79 0.930 . S
C74 H60 0.930 . S
C74 C72 1.395 1_655 S
C74 C77 1.403 . S
C75 C72 1.403 . S
C75 C76 1.524 . S
C75 C79 1.400 . S
C76 H61 0.960 . S
C76 H62 0.960 . S
C76 H63 0.960 . S
C76 C75 1.524 . S
C77 C74 1.403 . S
C77 C78 1.392 . S
C77 C81 1.495 . S
C78 C77 1.392 . S
C78 C79 1.385 1_655 S
C78 C80 1.478 . S
C79 H73 0.930 . S
C79 C75 1.400 . S
C79 C78 1.385 1_455 S
C80 C78 1.478 . S
C80 C82 1.381 . S
C80 C86 1.383 1_655 S
C81 C77 1.495 . S
C81 H87 0.959 . S
C81 H88 0.961 . S
C81 H89 0.960 . S
C82 C80 1.381 . S
C82 C83 1.394 . S
C82 H90 0.930 . S
C83 C82 1.394 . S
C83 C84 1.383 1_655 S
C83 H91 0.929 . S
C84 C83 1.383 1_455 S
C84 C85 1.377 . S
C85 H69 0.930 . S
C85 C84 1.377 . S
C85 C86 1.379 . S
C86 H70 0.931 . S
C86 C80 1.383 1_455 S
C86 C85 1.379 . S
H87 C81 0.959 . S
H88 C81 0.961 . S
H89 C81 0.960 . S
H90 C82 0.930 . S
H91 C83 0.929 . S
H92 C100 0.929 . S
H93 C102 0.930 . S
H94 C104 0.930 . S
H95 C107 0.929 . S
H96 C110 0.930 . S
H97 C112 0.960 . S
H98 C112 0.960 . S
H99 C112 0.960 . S
C100 H92 0.929 . S
C100 C101 1.377 1_565 S
C100 C102 1.384 . S
C101 C100 1.377 1_545 S
C101 C107 1.390 . S
C102 H93 0.930 . S
C102 C100 1.384 . S
C102 C103 1.372 1_565 S
C103 C102 1.372 1_545 S
C103 C104 1.400 . S
C103 C108 1.490 . S
C104 H94 0.930 . S
C104 C103 1.400 . S
C104 C107 1.386 . S
H105 C121 0.930 . S
H106 C122 0.931 . S
C107 H95 0.929 . S
C107 C101 1.390 . S
C107 C104 1.386 . S
C108 C103 1.490 . S
C108 C110 1.395 1_545 S
C108 C111 1.403 . S
H109 C115 0.930 . S
C110 H96 0.930 . S
C110 C108 1.395 1_565 S
C110 C113 1.403 . S
C111 C108 1.403 . S
C111 C112 1.524 . S
C111 C115 1.400 . S
C112 H97 0.960 . S
C112 H98 0.960 . S
C112 H99 0.960 . S
C112 C111 1.524 . S
C113 C110 1.403 . S
C113 C114 1.392 . S
C113 C117 1.495 . S
C114 C113 1.392 . S
C114 C115 1.385 1_565 S
C114 C116 1.478 . S
C115 H109 0.930 . S
C115 C111 1.400 . S
C115 C114 1.385 1_545 S
C116 C114 1.478 . S
C116 C118 1.381 . S
C116 C122 1.383 1_565 S
C117 C113 1.495 . S
C117 H123 0.959 . S
C117 H124 0.961 . S
C117 H125 0.960 . S
C118 C116 1.381 . S
C118 C119 1.394 . S
C118 H126 0.930 . S
C119 C118 1.394 . S
C119 C120 1.383 1_565 S
C119 H127 0.929 . S
C120 C119 1.383 1_545 S
C120 C121 1.377 . S
C121 H105 0.930 . S
C121 C120 1.377 . S
C121 C122 1.379 . S
C122 H106 0.931 . S
C122 C116 1.383 1_545 S
C122 C121 1.379 . S
H123 C117 0.959 . S
H124 C117 0.961 . S
H125 C117 0.960 . S
H126 C118 0.930 . S
H127 C119 0.929 . S
H128 C136 0.929 . S
H129 C138 0.930 . S
H130 C140 0.930 . S
H131 C143 0.934 . S
H132 C146 0.930 . S
H133 C148 0.960 . S
H134 C148 0.960 . S
H135 C148 0.960 . S
C136 H128 0.929 . S
C136 C137 1.377 . S
C136 C138 1.384 . S
C137 C136 1.377 . S
C137 C143 1.386 1_655 S
C138 H129 0.930 . S
C138 C136 1.384 . S
C138 C139 1.372 . S
C139 C138 1.372 . S
C139 C140 1.400 1_655 S
C139 C144 1.490 . S
C140 H130 0.930 . S
C140 C139 1.400 1_455 S
C140 C143 1.386 . S
H141 C157 0.930 . S
H142 C158 0.931 . S
C143 H131 0.934 . S
C143 C137 1.386 1_455 S
C143 C140 1.386 . S
C144 C139 1.490 . S
C144 C146 1.395 . S
C144 C147 1.403 1_655 S
H145 C151 0.930 . S
C146 H132 0.930 . S
C146 C144 1.395 . S
C146 C149 1.403 . S
C147 C144 1.403 1_455 S
C147 C148 1.524 . S
C147 C151 1.400 . S
C148 H133 0.960 . S
C148 H134 0.960 . S
C148 H135 0.960 . S
C148 C147 1.524 . S
C149 C146 1.403 . S
C149 C150 1.392 . S
C149 C153 1.495 . S
C150 C149 1.392 . S
C150 C151 1.385 1_655 S
C150 C152 1.478 . S
C151 H145 0.930 . S
C151 C147 1.400 . S
C151 C150 1.385 1_455 S
C152 C150 1.478 . S
C152 C154 1.381 . S
C152 C158 1.383 . S
C153 C149 1.495 . S
C153 H159 0.959 . S
C153 H160 0.961 . S
C153 H161 0.960 . S
C154 C152 1.381 . S
C154 C155 1.394 . S
C154 H162 0.930 . S
C155 C154 1.394 . S
C155 C156 1.383 . S
C155 H163 0.929 . S
C156 C155 1.383 . S
C156 C157 1.377 . S
C157 H141 0.930 . S
C157 C156 1.377 . S
C157 C158 1.379 . S
C158 H142 0.931 . S
C158 C152 1.383 . S
C158 C157 1.379 . S
H159 C153 0.959 . S
H160 C153 0.961 . S
H161 C153 0.960 . S
H162 C154 0.930 . S
H163 C155 0.929 . S
H164 C172 0.929 . S
H165 C174 0.930 . S
H166 C176 0.930 . S
H167 C179 0.929 . S
H168 C182 0.932 . S
H169 C184 0.960 . S
H170 C184 0.960 1_545 S
H171 C184 0.960 . S
C172 H164 0.929 . S
C172 C173 1.377 1_545 S
C172 C174 1.384 . S
C173 C172 1.377 1_565 S
C173 C179 1.390 . S
C174 H165 0.930 . S
C174 C172 1.384 . S
C174 C175 1.372 1_545 S
C175 C174 1.372 1_565 S
C175 C176 1.400 . S
C175 C180 1.490 . S
C176 H166 0.930 . S
C176 C175 1.400 . S
C176 C179 1.386 . S
H177 C193 0.930 . S
H178 C194 0.931 . S
C179 H167 0.929 . S
C179 C173 1.390 . S
C179 C176 1.386 . S
C180 C175 1.490 . S
C180 C182 1.393 1_565 S
C180 C183 1.403 1_554 S
H181 C187 0.930 . S
C182 H168 0.932 . S
C182 C180 1.393 1_545 S
C182 C185 1.403 . S
C183 C180 1.403 1_556 S
C183 C184 1.524 . S
C183 C187 1.400 . S
C184 H169 0.960 . S
C184 H170 0.960 1_565 S
C184 H171 0.960 . S
C184 C183 1.524 . S
C185 C182 1.403 . S
C185 C186 1.391 1_544 S
C185 C189 1.496 . S
C186 C185 1.391 1_566 S
C186 C187 1.385 . S
C186 C188 1.478 . S
C187 H181 0.930 . S
C187 C183 1.400 . S
C187 C186 1.385 . S
C188 C186 1.478 . S
C188 C190 1.381 1_565 S
C188 C194 1.383 . S
C189 C185 1.496 . S
C189 H195 0.959 . S
C189 H196 0.961 1_545 S
C189 H197 0.960 . S
C190 C188 1.381 1_545 S
C190 C191 1.394 . S
C190 H198 0.930 . S
C191 C190 1.394 . S
C191 C192 1.383 1_545 S
C191 H199 0.929 . S
C192 C191 1.383 1_565 S
C192 C193 1.377 . S
C193 H177 0.930 . S
C193 C192 1.377 . S
C193 C194 1.379 . S
C194 H178 0.931 . S
C194 C188 1.383 . S
C194 C193 1.379 . S
H195 C189 0.959 . S
H196 C189 0.961 1_565 S
H197 C189 0.960 . S
H198 C190 0.930 . S
H199 C191 0.929 . S
H200 C208 0.929 . S
H201 C210 0.930 . S
H202 C212 0.930 . S
H203 C215 0.929 . S
H204 C218 0.930 . S
H205 C220 0.960 . S
H206 C220 0.960 . S
H207 C220 0.960 . S
C208 H200 0.929 . S
C208 C209 1.377 . S
C208 C210 1.384 . S
C209 C208 1.377 . S
C209 C215 1.390 . S
C210 H201 0.930 . S
C210 C208 1.384 . S
C210 C211 1.372 . S
C211 C210 1.372 . S
C211 C212 1.400 . S
C211 C216 1.490 . S
C212 H202 0.930 . S
C212 C211 1.400 . S
C212 C215 1.386 . S
H213 C229 0.930 . S
H214 C230 0.931 . S
C215 H203 0.929 . S
C215 C209 1.390 . S
C215 C212 1.386 . S
C216 C211 1.490 . S
C216 C218 1.395 . S
C216 C219 1.403 . S
H217 C223 0.930 . S
C218 H204 0.930 . S
C218 C216 1.395 . S
C218 C221 1.403 . S
C219 C216 1.403 . S
C219 C220 1.524 . S
C219 C223 1.400 . S
C220 H205 0.960 . S
C220 H206 0.960 . S
C220 H207 0.960 . S
C220 C219 1.524 . S
C221 C218 1.403 . S
C221 C222 1.392 . S
C221 C225 1.495 . S
C222 C221 1.392 . S
C222 C223 1.385 . S
C222 C224 1.478 . S
C223 H217 0.930 . S
C223 C219 1.400 . S
C223 C222 1.385 . S
C224 C222 1.478 . S
C224 C226 1.381 . S
C224 C230 1.383 . S
C225 C221 1.495 . S
C225 H231 0.959 . S
C225 H232 0.961 . S
C225 H233 0.960 . S
C226 C224 1.381 . S
C226 C227 1.394 . S
C226 H234 0.930 . S
C227 C226 1.394 . S
C227 C228 1.383 . S
C227 H235 0.929 . S
C228 C227 1.383 . S
C228 C229 1.377 . S
C229 H213 0.930 . S
C229 C228 1.377 . S
C229 C230 1.379 . S
C230 H214 0.931 . S
C230 C224 1.383 . S
C230 C229 1.379 . S
H231 C225 0.959 . S
H232 C225 0.961 . S
H233 C225 0.960 . S
H234 C226 0.930 . S
H235 C227 0.929 . S
H236 C244 0.929 . S
H237 C246 0.930 . S
H238 C248 0.930 . S
H239 C251 0.929 . S
H240 C254 0.930 . S
H241 C256 0.960 . S
H242 C256 0.960 . S
H243 C256 0.960 . S
C244 H236 0.929 . S
C244 C245 1.377 . S
C244 C246 1.384 . S
C245 C244 1.377 . S
C245 C251 1.390 . S
C246 H237 0.930 . S
C246 C244 1.384 . S
C246 C247 1.372 . S
C247 C246 1.372 . S
C247 C248 1.400 . S
C247 C252 1.490 . S
C248 H238 0.930 . S
C248 C247 1.400 . S
C248 C251 1.386 . S
H249 C265 0.930 . S
H250 C266 0.931 . S
C251 H239 0.929 . S
C251 C245 1.390 . S
C251 C248 1.386 . S
C252 C247 1.490 . S
C252 C254 1.395 . S
C252 C255 1.403 . S
H253 C259 0.930 . S
C254 H240 0.930 . S
C254 C252 1.395 . S
C254 C257 1.403 . S
C255 C252 1.403 . S
C255 C256 1.524 . S
C255 C259 1.400 . S
C256 H241 0.960 . S
C256 H242 0.960 . S
C256 H243 0.960 . S
C256 C255 1.524 . S
C257 C254 1.403 . S
C257 C258 1.392 . S
C257 C261 1.495 . S
C258 C257 1.392 . S
C258 C259 1.385 . S
C258 C260 1.478 . S
C259 H253 0.930 . S
C259 C255 1.400 . S
C259 C258 1.385 . S
C260 C258 1.478 . S
C260 C262 1.381 . S
C260 C266 1.383 . S
C261 C257 1.495 . S
C261 H267 0.959 . S
C261 H268 0.961 . S
C261 H269 0.960 . S
C262 C260 1.381 . S
C262 C263 1.394 . S
C262 H270 0.930 . S
C263 C262 1.394 . S
C263 C264 1.383 . S
C263 H271 0.929 . S
C264 C263 1.383 . S
C264 C265 1.377 . S
C265 H249 0.930 . S
C265 C264 1.377 . S
C265 C266 1.379 . S
C266 H250 0.931 . S
C266 C260 1.383 . S
C266 C265 1.379 . S
H267 C261 0.959 . S
H268 C261 0.961 . S
H269 C261 0.960 . S
H270 C262 0.930 . S
H271 C263 0.929 . S
H272 C280 0.929 . S
H273 C282 0.930 . S
H274 C284 0.930 . S
H275 C287 0.929 . S
H276 C290 0.930 . S
H277 C292 0.960 . S
H278 C292 0.960 . S
H279 C292 0.960 . S
C280 H272 0.929 . S
C280 C281 1.377 . S
C280 C282 1.384 . S
C281 C280 1.377 . S
C281 C287 1.390 . S
C282 H273 0.930 . S
C282 C280 1.384 . S
C282 C283 1.372 . S
C283 C282 1.372 . S
C283 C284 1.400 . S
C283 C288 1.490 . S
C284 H274 0.930 . S
C284 C283 1.400 . S
C284 C287 1.386 . S
H285 C301 0.930 . S
H286 C302 0.931 . S
C287 H275 0.929 . S
C287 C281 1.390 . S
C287 C284 1.386 . S
C288 C283 1.490 . S
C288 C290 1.395 . S
C288 C291 1.403 . S
H289 C295 0.930 . S
C290 H276 0.930 . S
C290 C288 1.395 . S
C290 C293 1.403 . S
C291 C288 1.403 . S
C291 C292 1.524 . S
C291 C295 1.400 . S
C292 H277 0.960 . S
C292 H278 0.960 . S
C292 H279 0.960 . S
C292 C291 1.524 . S
C293 C290 1.403 . S
C293 C294 1.392 . S
C293 C297 1.495 . S
C294 C293 1.392 . S
C294 C295 1.385 . S
C294 C296 1.478 . S
C295 H289 0.930 . S
C295 C291 1.400 . S
C295 C294 1.385 . S
C296 C294 1.478 . S
C296 C298 1.381 . S
C296 C302 1.383 . S
C297 C293 1.495 . S
C297 H303 0.959 . S
C297 H304 0.961 . S
C297 H305 0.960 . S
C298 C296 1.381 . S
C298 C299 1.394 . S
C298 H306 0.930 . S
C299 C298 1.394 . S
C299 C300 1.383 . S
C299 H307 0.929 . S
C300 C299 1.383 . S
C300 C301 1.377 . S
C301 H285 0.930 . S
C301 C300 1.377 . S
C301 C302 1.379 . S
C302 H286 0.931 . S
C302 C296 1.383 . S
C302 C301 1.379 . S
H303 C297 0.959 . S
H304 C297 0.961 . S
H305 C297 0.960 . S
H306 C298 0.930 . S
H307 C299 0.929 . S
H308 C316 0.929 . S
H309 C318 0.930 . S
H310 C320 0.930 . S
H311 C323 0.929 . S
H312 C326 0.930 . S
H313 C328 0.960 . S
H314 C328 0.960 . S
H315 C328 0.960 . S
C316 H308 0.929 . S
C316 C317 1.377 . S
C316 C318 1.384 . S
C317 C316 1.377 . S
C317 C323 1.390 . S
C318 H309 0.930 . S
C318 C316 1.384 . S
C318 C319 1.372 . S
C319 C318 1.372 . S
C319 C320 1.400 . S
C319 C324 1.490 . S
C320 H310 0.930 . S
C320 C319 1.400 . S
C320 C323 1.386 . S
H321 C337 0.930 . S
H322 C338 0.931 . S
C323 H311 0.929 . S
C323 C317 1.390 . S
C323 C320 1.386 . S
C324 C319 1.490 . S
C324 C326 1.395 . S
C324 C327 1.403 . S
H325 C331 0.930 . S
C326 H312 0.930 . S
C326 C324 1.395 . S
C326 C329 1.403 . S
C327 C324 1.403 . S
C327 C328 1.524 . S
C327 C331 1.400 . S
C328 H313 0.960 . S
C328 H314 0.960 . S
C328 H315 0.960 . S
C328 C327 1.524 . S
C329 C326 1.403 . S
C329 C330 1.392 . S
C329 C333 1.495 . S
C330 C329 1.392 . S
C330 C331 1.385 . S
C330 C332 1.478 . S
C331 H325 0.930 . S
C331 C327 1.400 . S
C331 C330 1.385 . S
C332 C330 1.478 . S
C332 C334 1.381 . S
C332 C338 1.383 . S
C333 C329 1.495 . S
C333 H339 0.959 . S
C333 H340 0.961 . S
C333 H341 0.960 . S
C334 C332 1.381 . S
C334 C335 1.394 . S
C334 H342 0.930 . S
C335 C334 1.394 . S
C335 C336 1.383 . S
C335 H343 0.929 . S
C336 C335 1.383 . S
C336 C337 1.377 . S
C337 H321 0.930 . S
C337 C336 1.377 . S
C337 C338 1.379 . S
C338 H322 0.931 . S
C338 C332 1.383 . S
C338 C337 1.379 . S
H339 C333 0.959 . S
H340 C333 0.961 . S
H341 C333 0.960 . S
H342 C334 0.930 . S
H343 C335 0.929 . S
C65 C9 1.660 . S
C84 C36 1.671 . S
C101 C22 1.662 . S
C120 C51 1.669 . S
C137 C8 1.666 . S
C156 C37 1.646 . S
C173 C23 1.665 . S
C192 C50 1.654 . S
C209 C21 1.430 . S
C228 C7 1.448 . S
C245 C20 1.433 . S
C264 C34 1.437 . S
C281 C49 1.431 . S
C300 C35 1.440 . S
C317 C48 1.434 . S
C336 C6 1.430 . S
