# Generated by pormake.
# Topology unw, (4)-cn, num edge types: 1
# Building blocks:
#     Node 0, Type 0, BuildingBlock: ICAMEG_clean_sbu_1, # of connection points: 4
#     Node 1, Type 0, BuildingBlock: ICAMEG_clean_sbu_1, # of connection points: 4
#     Node 2, Type 0, BuildingBlock: ICAMEG_clean_sbu_1, # of connection points: 4
#     Node 3, Type 0, BuildingBlock: ICAMEG_clean_sbu_1, # of connection points: 4
#     Node 4, Type 0, BuildingBlock: ICAMEG_clean_sbu_1, # of connection points: 4
#     Node 5, Type 0, BuildingBlock: ICAMEG_clean_sbu_1, # of connection points: 4
#     Node 6, Type 0, BuildingBlock: ICAMEG_clean_sbu_1, # of connection points: 4
#     Node 7, Type 0, BuildingBlock: ICAMEG_clean_sbu_1, # of connection points: 4
#     Node 8, Type 0, BuildingBlock: ICAMEG_clean_sbu_1, # of connection points: 4
#     Node 9, Type 0, BuildingBlock: ICAMEG_clean_sbu_1, # of connection points: 4
#     Node 10, Type 0, BuildingBlock: ICAMEG_clean_sbu_1, # of connection points: 4
#     Node 11, Type 0, BuildingBlock: ICAMEG_clean_sbu_1, # of connection points: 4
#     Node 12, Type 0, BuildingBlock: ICAMEG_clean_sbu_1, # of connection points: 4
#     Node 13, Type 0, BuildingBlock: ICAMEG_clean_sbu_1, # of connection points: 4
#     Node 14, Type 0, BuildingBlock: ICAMEG_clean_sbu_1, # of connection points: 4
#     Node 15, Type 0, BuildingBlock: ICAMEG_clean_sbu_1, # of connection points: 4
#     Node 16, Type 0, BuildingBlock: ICAMEG_clean_sbu_1, # of connection points: 4
#     Node 17, Type 0, BuildingBlock: ICAMEG_clean_sbu_1, # of connection points: 4
#     Node 18, Type 0, BuildingBlock: ICAMEG_clean_sbu_1, # of connection points: 4
#     Node 19, Type 0, BuildingBlock: ICAMEG_clean_sbu_1, # of connection points: 4
#     Node 20, Type 0, BuildingBlock: ICAMEG_clean_sbu_1, # of connection points: 4
#     Node 21, Type 0, BuildingBlock: ICAMEG_clean_sbu_1, # of connection points: 4
#     Node 22, Type 0, BuildingBlock: ICAMEG_clean_sbu_1, # of connection points: 4
#     Node 23, Type 0, BuildingBlock: ICAMEG_clean_sbu_1, # of connection points: 4
#     Edge 24, Type (0, 0), BuildingBlock: TEMPAE_clean_linker_10, # of connection points: 2
#     Edge 25, Type (0, 0), BuildingBlock: TEMPAE_clean_linker_10, # of connection points: 2
#     Edge 26, Type (0, 0), BuildingBlock: TEMPAE_clean_linker_10, # of connection points: 2
#     Edge 27, Type (0, 0), BuildingBlock: TEMPAE_clean_linker_10, # of connection points: 2
#     Edge 28, Type (0, 0), BuildingBlock: TEMPAE_clean_linker_10, # of connection points: 2
#     Edge 29, Type (0, 0), BuildingBlock: TEMPAE_clean_linker_10, # of connection points: 2
#     Edge 30, Type (0, 0), BuildingBlock: TEMPAE_clean_linker_10, # of connection points: 2
#     Edge 31, Type (0, 0), BuildingBlock: TEMPAE_clean_linker_10, # of connection points: 2
#     Edge 32, Type (0, 0), BuildingBlock: TEMPAE_clean_linker_10, # of connection points: 2
#     Edge 33, Type (0, 0), BuildingBlock: TEMPAE_clean_linker_10, # of connection points: 2
#     Edge 34, Type (0, 0), BuildingBlock: TEMPAE_clean_linker_10, # of connection points: 2
#     Edge 35, Type (0, 0), BuildingBlock: TEMPAE_clean_linker_10, # of connection points: 2
#     Edge 36, Type (0, 0), BuildingBlock: TEMPAE_clean_linker_10, # of connection points: 2
#     Edge 37, Type (0, 0), BuildingBlock: TEMPAE_clean_linker_10, # of connection points: 2
#     Edge 38, Type (0, 0), BuildingBlock: TEMPAE_clean_linker_10, # of connection points: 2
#     Edge 39, Type (0, 0), BuildingBlock: TEMPAE_clean_linker_10, # of connection points: 2
#     Edge 40, Type (0, 0), BuildingBlock: TEMPAE_clean_linker_10, # of connection points: 2
#     Edge 41, Type (0, 0), BuildingBlock: TEMPAE_clean_linker_10, # of connection points: 2
#     Edge 42, Type (0, 0), BuildingBlock: TEMPAE_clean_linker_10, # of connection points: 2
#     Edge 43, Type (0, 0), BuildingBlock: TEMPAE_clean_linker_10, # of connection points: 2
#     Edge 44, Type (0, 0), BuildingBlock: TEMPAE_clean_linker_10, # of connection points: 2
#     Edge 45, Type (0, 0), BuildingBlock: TEMPAE_clean_linker_10, # of connection points: 2
#     Edge 46, Type (0, 0), BuildingBlock: TEMPAE_clean_linker_10, # of connection points: 2
#     Edge 47, Type (0, 0), BuildingBlock: TEMPAE_clean_linker_10, # of connection points: 2
#     Edge 48, Type (0, 0), BuildingBlock: TEMPAE_clean_linker_10, # of connection points: 2
#     Edge 49, Type (0, 0), BuildingBlock: TEMPAE_clean_linker_10, # of connection points: 2
#     Edge 50, Type (0, 0), BuildingBlock: TEMPAE_clean_linker_10, # of connection points: 2
#     Edge 51, Type (0, 0), BuildingBlock: TEMPAE_clean_linker_10, # of connection points: 2
#     Edge 52, Type (0, 0), BuildingBlock: TEMPAE_clean_linker_10, # of connection points: 2
#     Edge 53, Type (0, 0), BuildingBlock: TEMPAE_clean_linker_10, # of connection points: 2
#     Edge 54, Type (0, 0), BuildingBlock: TEMPAE_clean_linker_10, # of connection points: 2
#     Edge 55, Type (0, 0), BuildingBlock: TEMPAE_clean_linker_10, # of connection points: 2
#     Edge 56, Type (0, 0), BuildingBlock: TEMPAE_clean_linker_10, # of connection points: 2
#     Edge 57, Type (0, 0), BuildingBlock: TEMPAE_clean_linker_10, # of connection points: 2
#     Edge 58, Type (0, 0), BuildingBlock: TEMPAE_clean_linker_10, # of connection points: 2
#     Edge 59, Type (0, 0), BuildingBlock: TEMPAE_clean_linker_10, # of connection points: 2
#     Edge 60, Type (0, 0), BuildingBlock: TEMPAE_clean_linker_10, # of connection points: 2
#     Edge 61, Type (0, 0), BuildingBlock: TEMPAE_clean_linker_10, # of connection points: 2
#     Edge 62, Type (0, 0), BuildingBlock: TEMPAE_clean_linker_10, # of connection points: 2
#     Edge 63, Type (0, 0), BuildingBlock: TEMPAE_clean_linker_10, # of connection points: 2
#     Edge 64, Type (0, 0), BuildingBlock: TEMPAE_clean_linker_10, # of connection points: 2
#     Edge 65, Type (0, 0), BuildingBlock: TEMPAE_clean_linker_10, # of connection points: 2
#     Edge 66, Type (0, 0), BuildingBlock: TEMPAE_clean_linker_10, # of connection points: 2
#     Edge 67, Type (0, 0), BuildingBlock: TEMPAE_clean_linker_10, # of connection points: 2
#     Edge 68, Type (0, 0), BuildingBlock: TEMPAE_clean_linker_10, # of connection points: 2
#     Edge 69, Type (0, 0), BuildingBlock: TEMPAE_clean_linker_10, # of connection points: 2
#     Edge 70, Type (0, 0), BuildingBlock: TEMPAE_clean_linker_10, # of connection points: 2
#     Edge 71, Type (0, 0), BuildingBlock: TEMPAE_clean_linker_10, # of connection points: 2
# Relax obj value: 0.236
# Max RMSD: 0.173
# Mean RMSD: 0.172
data_MOF--net-unw--node1-ICAMEG_clean_sbu_1--edge1-TEMPAE_clean_linker_10
_symmetry_space_group_name_H-M    P1
_symmetry_Int_Tables_number       1
_symmetry_cell_setting            triclinic
loop_
_symmetry_equiv_pos_as_xyz
'x, y, z'
_cell_length_a     52.351975
_cell_length_b     52.361507
_cell_length_c     52.365835
_cell_angle_alpha  89.989109
_cell_angle_beta   89.997806
_cell_angle_gamma 90.012407
loop_
_atom_site_label
_atom_site_type_symbol
_atom_site_fract_x
_atom_site_fract_y
_atom_site_fract_z
_atom_type_partial_charge
Co0 Co 0.15232 0.37992 0.26783 0.0
Co1 Co 0.10983 0.34353 0.23294 0.0
O2 O 0.11994 0.37488 0.25015 0.0
C3 C 0.15283 0.41559 0.22483 0.0
O4 O 0.14288 0.39693 0.21145 0.0
C5 C 0.07322 0.35004 0.27472 0.0
O6 O 0.09264 0.35792 0.28841 0.0
O7 O 0.12372 0.32221 0.26111 0.0
O8 O 0.14823 0.34687 0.28647 0.0
H9 H 0.12223 0.25421 0.20016 0.0
H10 H 0.11366 0.42133 0.2683 0.0
O11 O 0.15736 0.41259 0.24857 0.0
H12 H 0.12663 0.39804 0.35863 0.0
H13 H 0.21798 0.4331 0.31364 0.0
H14 H 0.19713 0.34755 0.28038 0.0
H15 H 0.15091 0.37634 0.32457 0.0
H16 H 0.17697 0.42521 0.2918 0.0
O17 O 0.07629 0.3444 0.25123 0.0
H18 H 0.13528 0.29432 0.22116 0.0
H19 H 0.0615 0.32569 0.2088 0.0
H20 H 0.23824 0.35445 0.30231 0.0
H21 H 0.08916 0.4437 0.30175 0.0
H22 H 0.24889 0.39752 0.31914 0.0
H23 H 0.09553 0.43202 0.34728 0.0
O24 O 0.17157 0.36151 0.24089 0.0
H25 H 0.05894 0.41591 0.19587 0.0
H26 H 0.11481 0.34267 0.17625 0.0
H27 H 0.09852 0.36948 0.1411 0.0
H28 H 0.07035 0.40639 0.15082 0.0
H29 H 0.07585 0.38873 0.23046 0.0
H30 H 0.04758 0.28585 0.18781 0.0
H31 H 0.07809 0.2498 0.18331 0.0
O32 O 0.14346 0.34171 0.215 0.0
C33 C 0.1376 0.32565 0.28082 0.0
C34 C 0.1088 0.26983 0.20189 0.0
C35 C 0.06689 0.28757 0.195 0.0
N36 N 0.09925 0.3124 0.21593 0.0
C37 C 0.11611 0.29261 0.21368 0.0
C38 C 0.07487 0.31006 0.20691 0.0
C39 C 0.08402 0.26735 0.19248 0.0
C40 C 0.11671 0.41633 0.28809 0.0
N41 N 0.13379 0.39768 0.2945 0.0
C42 C 0.10271 0.42898 0.30694 0.0
C43 C 0.10627 0.42239 0.33248 0.0
C44 C 0.12371 0.40332 0.33886 0.0
C45 C 0.13736 0.39107 0.3195 0.0
C46 C 0.2135 0.41421 0.30655 0.0
C47 C 0.20148 0.36621 0.28797 0.0
C48 C 0.19031 0.40963 0.29418 0.0
N49 N 0.18445 0.38579 0.28531 0.0
C50 C 0.22485 0.37007 0.30023 0.0
C51 C 0.23083 0.39424 0.30962 0.0
C52 C 0.1661 0.34808 0.22137 0.0
C53 C 0.07114 0.39984 0.19139 0.0
C54 C 0.10258 0.35872 0.18063 0.0
C55 C 0.09339 0.37381 0.16064 0.0
C56 C 0.07758 0.39451 0.16612 0.0
N57 N 0.09615 0.36407 0.20535 0.0
C58 C 0.08068 0.38433 0.21088 0.0
Co59 Co 0.61998 0.15044 0.25819 0.0
Co60 Co 0.65042 0.10544 0.22076 0.0
O61 O 0.62115 0.11796 0.24018 0.0
C62 C 0.58034 0.15405 0.2191 0.0
O63 O 0.59668 0.14299 0.20368 0.0
C64 C 0.64376 0.07026 0.26357 0.0
O65 O 0.63858 0.09067 0.27707 0.0
O66 O 0.67522 0.11816 0.24654 0.0
O67 O 0.65412 0.14392 0.27368 0.0
H68 H 0.73707 0.11061 0.17969 0.0
H69 H 0.57646 0.11457 0.26307 0.0
O70 O 0.58602 0.15779 0.24245 0.0
H71 H 0.60913 0.12634 0.35061 0.0
H72 H 0.57683 0.22042 0.30799 0.0
H73 H 0.65731 0.19183 0.26827 0.0
H74 H 0.62883 0.14919 0.31442 0.0
H75 H 0.57913 0.17895 0.28572 0.0
O76 O 0.64849 0.07227 0.23976 0.0
H77 H 0.70014 0.12694 0.20392 0.0
H78 H 0.66249 0.05553 0.19638 0.0
H79 H 0.65593 0.23332 0.29052 0.0
H80 H 0.556 0.09153 0.29875 0.0
H81 H 0.61546 0.24786 0.31057 0.0
H82 H 0.57243 0.09728 0.34287 0.0
O83 O 0.63652 0.16824 0.22906 0.0
H84 H 0.57172 0.05953 0.19057 0.0
H85 H 0.64683 0.10991 0.1642 0.0
H86 H 0.61613 0.09523 0.13159 0.0
H87 H 0.57828 0.06982 0.14473 0.0
H88 H 0.60279 0.07478 0.22255 0.0
H89 H 0.6991 0.03831 0.17222 0.0
H90 H 0.7367 0.06596 0.16366 0.0
O91 O 0.6533 0.13877 0.20242 0.0
C92 C 0.6742 0.13229 0.26632 0.0
C93 C 0.72076 0.0984 0.18321 0.0
C94 C 0.69946 0.05781 0.17905 0.0
N95 N 0.67911 0.0923 0.20137 0.0
C96 C 0.69976 0.10759 0.19685 0.0
C97 C 0.67881 0.06765 0.19277 0.0
C98 C 0.72055 0.07334 0.17425 0.0
C99 C 0.58352 0.11737 0.28226 0.0
N100 N 0.60371 0.13328 0.28669 0.0
C101 C 0.57194 0.10419 0.30237 0.0
C102 C 0.58119 0.1074 0.32712 0.0
C103 C 0.60179 0.1237 0.33148 0.0
C104 C 0.61289 0.13655 0.31091 0.0
C105 C 0.59459 0.21426 0.29939 0.0
C106 C 0.63969 0.19794 0.27712 0.0
C107 C 0.59599 0.19083 0.28673 0.0
N108 N 0.6184 0.18288 0.27595 0.0
C109 C 0.639 0.22149 0.28961 0.0
C110 C 0.61628 0.22965 0.30083 0.0
C111 C 0.64805 0.16175 0.20863 0.0
C112 C 0.58818 0.07053 0.1846 0.0
C113 C 0.63037 0.09889 0.17004 0.0
C114 C 0.61308 0.0906 0.1515 0.0
C115 C 0.59185 0.07633 0.15889 0.0
N116 N 0.62666 0.09307 0.19521 0.0
C117 C 0.60588 0.07912 0.20261 0.0
Co118 Co 0.87602 0.65081 0.23564 0.0
Co119 Co 0.83623 0.61309 0.27231 0.0
O120 O 0.86789 0.61943 0.25375 0.0
C121 C 0.91436 0.64662 0.27603 0.0
O122 O 0.89571 0.63868 0.29074 0.0
C123 C 0.83712 0.57656 0.23023 0.0
O124 O 0.84549 0.59565 0.21637 0.0
O125 O 0.81527 0.62969 0.24539 0.0
O126 O 0.84174 0.65095 0.21898 0.0
H127 H 0.75017 0.63474 0.30895 0.0
H128 H 0.91166 0.60695 0.23252 0.0
O129 O 0.91022 0.65155 0.25256 0.0
H130 H 0.88478 0.62374 0.14383 0.0
H131 H 0.93397 0.71017 0.18705 0.0
H132 H 0.84809 0.6987 0.22404 0.0
H133 H 0.86892 0.65057 0.17915 0.0
H134 H 0.92261 0.67023 0.20935 0.0
O135 O 0.83267 0.57971 0.25396 0.0
H136 H 0.79023 0.64335 0.2857 0.0
H137 H 0.81465 0.56702 0.29771 0.0
H138 H 0.85856 0.73887 0.20174 0.0
H139 H 0.9282 0.57978 0.19775 0.0
H140 H 0.90178 0.74479 0.18306 0.0
H141 H 0.91465 0.58806 0.15304 0.0
O142 O 0.86237 0.67195 0.26403 0.0
H143 H 0.90378 0.55393 0.30622 0.0
H144 H 0.83877 0.6182 0.32888 0.0
H145 H 0.86509 0.59885 0.36285 0.0
H146 H 0.89785 0.56644 0.35158 0.0
H147 H 0.87722 0.57394 0.27285 0.0
H148 H 0.77475 0.55742 0.32089 0.0
H149 H 0.74223 0.59147 0.32675 0.0
O150 O 0.83897 0.64678 0.29002 0.0
C151 C 0.81961 0.64328 0.22568 0.0
C152 C 0.76426 0.61979 0.30669 0.0
C153 C 0.77804 0.57639 0.31335 0.0
N154 N 0.80493 0.60588 0.29076 0.0
C155 C 0.78704 0.62462 0.29367 0.0
C156 C 0.80058 0.58193 0.3002 0.0
C157 C 0.7598 0.5955 0.31662 0.0
C158 C 0.90592 0.61082 0.21308 0.0
N159 N 0.88947 0.63039 0.20784 0.0
C160 C 0.91524 0.59532 0.19348 0.0
C161 C 0.90761 0.59995 0.16841 0.0
C162 C 0.89084 0.61996 0.16323 0.0
C163 C 0.8819 0.63506 0.1833 0.0
C164 C 0.91505 0.70779 0.19504 0.0
C165 C 0.86687 0.70106 0.21578 0.0
C166 C 0.90853 0.68523 0.20771 0.0
N167 N 0.88464 0.68206 0.21773 0.0
C168 C 0.87272 0.72388 0.20326 0.0
C169 C 0.89698 0.7272 0.19281 0.0
C170 C 0.84892 0.66824 0.28399 0.0
C171 C 0.88952 0.56797 0.31137 0.0
C172 C 0.85303 0.60414 0.32384 0.0
C173 C 0.86784 0.59322 0.34316 0.0
C174 C 0.8862 0.57503 0.33682 0.0
N175 N 0.85637 0.59708 0.29894 0.0
C176 C 0.87435 0.57928 0.29257 0.0
Co177 Co 0.34272 0.88241 0.23808 0.0
Co178 Co 0.38319 0.84031 0.26883 0.0
O179 O 0.37544 0.87315 0.25314 0.0
C180 C 0.35068 0.91912 0.27931 0.0
O181 O 0.35829 0.89959 0.29304 0.0
C182 C 0.41854 0.84485 0.22607 0.0
O183 O 0.39882 0.85319 0.21308 0.0
O184 O 0.36701 0.82154 0.24026 0.0
O185 O 0.34006 0.84861 0.22049 0.0
H186 H 0.36478 0.75056 0.29741 0.0
H187 H 0.38689 0.91735 0.23211 0.0
O188 O 0.34442 0.916 0.256 0.0
H189 H 0.36181 0.89349 0.14453 0.0
H190 H 0.28099 0.94321 0.19647 0.0
H191 H 0.29295 0.85634 0.23083 0.0
H192 H 0.33793 0.87694 0.18162 0.0
H193 H 0.32248 0.93011 0.21459 0.0
O194 O 0.41622 0.83945 0.2497 0.0
H195 H 0.35455 0.79235 0.2782 0.0
H196 H 0.43032 0.81798 0.29151 0.0
H197 H 0.25121 0.86853 0.21269 0.0
H198 H 0.41116 0.93454 0.19555 0.0
H199 H 0.24503 0.91226 0.19535 0.0
H200 H 0.3987 0.92253 0.15139 0.0
O201 O 0.32389 0.86828 0.26766 0.0
H202 H 0.44094 0.90639 0.30762 0.0
H203 H 0.37917 0.83755 0.32553 0.0
H204 H 0.39844 0.86133 0.36137 0.0
H205 H 0.42959 0.896 0.3525 0.0
H206 H 0.42102 0.8823 0.27237 0.0
H207 H 0.4415 0.77638 0.31064 0.0
H208 H 0.40856 0.74238 0.3138 0.0
O209 O 0.3498 0.84021 0.28747 0.0
C210 C 0.35045 0.82674 0.22324 0.0
C211 C 0.37926 0.76528 0.29632 0.0
C212 C 0.42233 0.77977 0.30371 0.0
N213 N 0.39166 0.80772 0.2842 0.0
C214 C 0.37352 0.78903 0.2856 0.0
C215 C 0.41589 0.80327 0.29286 0.0
C216 C 0.40383 0.76069 0.30547 0.0
C217 C 0.38121 0.91226 0.21293 0.0
N218 N 0.36096 0.89627 0.20899 0.0
C219 C 0.39508 0.92196 0.19232 0.0
C220 C 0.3881 0.91518 0.16754 0.0
C221 C 0.36741 0.89888 0.16368 0.0
C222 C 0.354 0.88953 0.18475 0.0
C223 C 0.28348 0.92406 0.20385 0.0
C224 C 0.29049 0.87529 0.22303 0.0
C225 C 0.30692 0.91654 0.21413 0.0
N226 N 0.31023 0.89235 0.22335 0.0
C227 C 0.26678 0.88213 0.21291 0.0
C228 C 0.26331 0.90668 0.20322 0.0
C229 C 0.32851 0.85187 0.28501 0.0
C230 C 0.42744 0.89128 0.31173 0.0
C231 C 0.39266 0.85267 0.32153 0.0
C232 C 0.40354 0.86602 0.3419 0.0
C233 C 0.42104 0.88546 0.33691 0.0
N234 N 0.39907 0.85848 0.29691 0.0
C235 C 0.41619 0.87751 0.29186 0.0
Co236 Co 0.11409 0.65234 0.76284 0.0
Co237 Co 0.15393 0.61186 0.72939 0.0
O238 O 0.12202 0.61986 0.74675 0.0
C239 C 0.07726 0.64641 0.72137 0.0
O240 O 0.09649 0.63774 0.70791 0.0
C241 C 0.15089 0.57734 0.77312 0.0
O242 O 0.14281 0.59718 0.78607 0.0
O243 O 0.17447 0.62927 0.75607 0.0
O244 O 0.14789 0.65262 0.78059 0.0
H245 H 0.24168 0.62929 0.69448 0.0
H246 H 0.07728 0.6095 0.76713 0.0
O247 O 0.08048 0.65276 0.74466 0.0
H248 H 0.10159 0.63062 0.85563 0.0
H249 H 0.05589 0.7155 0.80595 0.0
H250 H 0.14275 0.70015 0.77288 0.0
H251 H 0.11939 0.65498 0.81944 0.0
H252 H 0.06708 0.67414 0.78631 0.0
O253 O 0.156 0.57942 0.7494 0.0
H254 H 0.20117 0.64017 0.71591 0.0
H255 H 0.17491 0.56403 0.70699 0.0
H256 H 0.13244 0.74171 0.79253 0.0
H257 H 0.05881 0.58479 0.80277 0.0
H258 H 0.08873 0.74959 0.80923 0.0
H259 H 0.07104 0.59526 0.84739 0.0
O260 O 0.12918 0.67165 0.73391 0.0
H261 H 0.08568 0.55297 0.69641 0.0
H262 H 0.15321 0.61418 0.67258 0.0
H263 H 0.1273 0.59391 0.63882 0.0
H264 H 0.09328 0.56304 0.65068 0.0
H265 H 0.11186 0.57385 0.72954 0.0
H266 H 0.21522 0.55217 0.68566 0.0
H267 H 0.2489 0.58496 0.67918 0.0
O268 O 0.15272 0.6447 0.70996 0.0
C269 C 0.16997 0.64403 0.77488 0.0
C270 C 0.22709 0.61486 0.69703 0.0
C271 C 0.21226 0.57158 0.69212 0.0
N272 N 0.18554 0.60291 0.71227 0.0
C273 C 0.20406 0.62098 0.70902 0.0
C274 C 0.18947 0.5784 0.7042 0.0
C275 C 0.23114 0.58998 0.68849 0.0
C276 C 0.08247 0.61432 0.78651 0.0
N277 N 0.09926 0.63374 0.79122 0.0
C278 C 0.07205 0.6002 0.8066 0.0
C279 C 0.07894 0.60607 0.83163 0.0
C280 C 0.09609 0.62589 0.83627 0.0
C281 C 0.10614 0.63959 0.81571 0.0
C282 C 0.07502 0.71227 0.79882 0.0
C283 C 0.12375 0.70337 0.7803 0.0
C284 C 0.08146 0.68891 0.78766 0.0
N285 N 0.10561 0.68467 0.77872 0.0
C286 C 0.118 0.72697 0.79132 0.0
C287 C 0.09346 0.73139 0.80065 0.0
C288 C 0.14322 0.66667 0.71465 0.0
C289 C 0.1005 0.56633 0.691 0.0
C290 C 0.1384 0.60079 0.67787 0.0
C291 C 0.12383 0.58934 0.65868 0.0
C292 C 0.10475 0.57201 0.66535 0.0
N293 N 0.13413 0.59508 0.70298 0.0
C294 C 0.11546 0.57812 0.70967 0.0
Co295 Co 0.37852 0.15544 0.72826 0.0
Co296 Co 0.33985 0.11279 0.76055 0.0
O297 O 0.37156 0.12225 0.74352 0.0
C298 C 0.41659 0.14935 0.76844 0.0
O299 O 0.39772 0.14055 0.78236 0.0
C300 C 0.34464 0.07778 0.71751 0.0
O301 O 0.35145 0.09787 0.70419 0.0
O302 O 0.31908 0.12815 0.73292 0.0
O303 O 0.344 0.15619 0.71183 0.0
H304 H 0.25061 0.12647 0.79311 0.0
H305 H 0.41571 0.11336 0.72111 0.0
O306 O 0.41275 0.15562 0.74522 0.0
H307 H 0.38752 0.13692 0.63439 0.0
H308 H 0.4344 0.22036 0.68462 0.0
H309 H 0.34955 0.20369 0.72197 0.0
H310 H 0.37088 0.15984 0.67204 0.0
H311 H 0.42424 0.17826 0.70325 0.0
O312 O 0.3399 0.07988 0.7413 0.0
H313 H 0.29098 0.13894 0.77225 0.0
H314 H 0.32087 0.06445 0.78375 0.0
H315 H 0.35877 0.24598 0.70336 0.0
H316 H 0.43303 0.09009 0.68397 0.0
H317 H 0.40148 0.25452 0.6845 0.0
H318 H 0.41885 0.10179 0.64025 0.0
O319 O 0.36437 0.17346 0.75829 0.0
H320 H 0.41048 0.05846 0.79617 0.0
H321 H 0.33925 0.11633 0.81735 0.0
H322 H 0.36553 0.09824 0.85202 0.0
H323 H 0.40142 0.06906 0.84151 0.0
H324 H 0.38387 0.07719 0.76209 0.0
H325 H 0.28072 0.05106 0.80451 0.0
H326 H 0.24529 0.08223 0.80941 0.0
O327 O 0.33886 0.14599 0.77942 0.0
C328 C 0.32272 0.14484 0.71562 0.0
C329 C 0.26597 0.11277 0.79125 0.0
C330 C 0.28286 0.07043 0.79762 0.0
N331 N 0.3084 0.10258 0.77723 0.0
C332 C 0.28892 0.11976 0.77959 0.0
C333 C 0.30553 0.07811 0.78585 0.0
C334 C 0.26298 0.08793 0.80035 0.0
C335 C 0.40966 0.11872 0.70211 0.0
N336 N 0.39242 0.138 0.69872 0.0
C337 C 0.41944 0.10541 0.68117 0.0
C338 C 0.41145 0.11196 0.65664 0.0
C339 C 0.39386 0.13166 0.65334 0.0
C340 C 0.38447 0.14453 0.67473 0.0
C341 C 0.41568 0.21683 0.69266 0.0
C342 C 0.36806 0.20718 0.71352 0.0
C343 C 0.40983 0.19304 0.70322 0.0
N344 N 0.38618 0.18842 0.71326 0.0
C345 C 0.37322 0.2312 0.70313 0.0
C346 C 0.3972 0.23599 0.69259 0.0
C347 C 0.34914 0.1679 0.77641 0.0
C348 C 0.39485 0.0711 0.801 0.0
C349 C 0.35488 0.10369 0.81263 0.0
C350 C 0.36965 0.09347 0.83234 0.0
C351 C 0.38978 0.07708 0.82643 0.0
N352 N 0.35997 0.09772 0.78774 0.0
C353 C 0.37965 0.08167 0.78179 0.0
Co354 Co 0.84053 0.38654 0.73252 0.0
Co355 Co 0.88253 0.34334 0.75934 0.0
O356 O 0.87352 0.3772 0.74693 0.0
C357 C 0.84697 0.41914 0.77726 0.0
O358 O 0.85474 0.39847 0.78908 0.0
C359 C 0.91861 0.35409 0.7182 0.0
O360 O 0.89887 0.36277 0.70546 0.0
O361 O 0.86774 0.32703 0.72864 0.0
O362 O 0.83925 0.35447 0.71174 0.0
H363 H 0.86772 0.25037 0.7779 0.0
H364 H 0.88329 0.42363 0.73035 0.0
O365 O 0.84094 0.41825 0.75369 0.0
H366 H 0.85968 0.40735 0.64065 0.0
H367 H 0.77685 0.44878 0.69637 0.0
H368 H 0.79182 0.35949 0.72227 0.0
H369 H 0.83631 0.38632 0.67576 0.0
H370 H 0.81865 0.43552 0.71365 0.0
O371 O 0.91586 0.34603 0.74101 0.0
H372 H 0.85584 0.29355 0.76329 0.0
H373 H 0.93032 0.32074 0.78035 0.0
H374 H 0.7498 0.37182 0.70487 0.0
H375 H 0.907 0.44526 0.69584 0.0
H376 H 0.74212 0.41677 0.69178 0.0
H377 H 0.89528 0.43708 0.65062 0.0
O378 O 0.8221 0.36893 0.76045 0.0
H379 H 0.93628 0.40763 0.80609 0.0
H380 H 0.87787 0.3343 0.81534 0.0
H381 H 0.89536 0.35502 0.85387 0.0
H382 H 0.92481 0.39194 0.84936 0.0
H383 H 0.91815 0.38649 0.76808 0.0
H384 H 0.94312 0.27779 0.79498 0.0
H385 H 0.91166 0.24228 0.79389 0.0
O386 O 0.84894 0.3398 0.77724 0.0
C387 C 0.8509 0.33306 0.71219 0.0
C388 C 0.88155 0.26572 0.77863 0.0
C389 C 0.92388 0.28111 0.78817 0.0
N390 N 0.89224 0.30971 0.77138 0.0
C391 C 0.87489 0.29024 0.77051 0.0
C392 C 0.91653 0.30537 0.77988 0.0
C393 C 0.90622 0.26119 0.78756 0.0
C394 C 0.87792 0.42019 0.71072 0.0
N395 N 0.85838 0.40384 0.70507 0.0
C396 C 0.89148 0.4324 0.69126 0.0
C397 C 0.88492 0.42777 0.66589 0.0
C398 C 0.86495 0.41107 0.66028 0.0
C399 C 0.85183 0.39919 0.68024 0.0
C400 C 0.78 0.42911 0.70188 0.0
C401 C 0.7887 0.37899 0.71632 0.0
C402 C 0.80362 0.4215 0.71167 0.0
N403 N 0.80778 0.39666 0.71854 0.0
C404 C 0.76483 0.38591 0.70662 0.0
C405 C 0.76052 0.41114 0.69931 0.0
C406 C 0.82728 0.35092 0.77595 0.0
C407 C 0.92352 0.39152 0.8083 0.0
C408 C 0.89063 0.3504 0.81324 0.0
C409 C 0.90051 0.36202 0.83512 0.0
C410 C 0.91705 0.38273 0.83257 0.0
N411 N 0.89709 0.35913 0.7895 0.0
C412 C 0.91329 0.37941 0.78684 0.0
Co413 Co 0.65382 0.87423 0.76647 0.0
Co414 Co 0.61344 0.84392 0.72447 0.0
O415 O 0.62316 0.87315 0.74539 0.0
C416 C 0.66159 0.91262 0.72642 0.0
O417 O 0.65035 0.89648 0.71096 0.0
C418 C 0.57457 0.84752 0.76467 0.0
O419 O 0.59305 0.85524 0.77966 0.0
O420 O 0.62584 0.81913 0.75052 0.0
O421 O 0.64456 0.84095 0.7824 0.0
H422 H 0.62679 0.75911 0.68154 0.0
H423 H 0.61916 0.91902 0.76567 0.0
O424 O 0.664 0.90733 0.75007 0.0
H425 H 0.62071 0.89007 0.85528 0.0
H426 H 0.71962 0.91775 0.82141 0.0
H427 H 0.69244 0.83615 0.78305 0.0
H428 H 0.64628 0.86791 0.8225 0.0
H429 H 0.68076 0.91555 0.79483 0.0
O430 O 0.57893 0.84316 0.74111 0.0
H431 H 0.63915 0.7962 0.70778 0.0
H432 H 0.56609 0.82958 0.6964 0.0
H433 H 0.73125 0.83743 0.80966 0.0
H434 H 0.59347 0.94191 0.79788 0.0
H435 H 0.74509 0.87846 0.82905 0.0
H436 H 0.5941 0.92738 0.84303 0.0
O437 O 0.67416 0.8555 0.74038 0.0
H438 H 0.56515 0.92075 0.69332 0.0
H439 H 0.62143 0.84944 0.66844 0.0
H440 H 0.60718 0.88024 0.63574 0.0
H441 H 0.5788 0.91617 0.64812 0.0
H442 H 0.58005 0.88963 0.72543 0.0
H443 H 0.55286 0.79274 0.67017 0.0
H444 H 0.58335 0.75721 0.66254 0.0
O445 O 0.64799 0.84355 0.70842 0.0
C446 C 0.63627 0.82028 0.77251 0.0
C447 C 0.61336 0.77451 0.68466 0.0
C448 C 0.57185 0.79337 0.67831 0.0
N449 N 0.60342 0.81511 0.70348 0.0
C450 C 0.62027 0.7956 0.69944 0.0
C451 C 0.57943 0.81415 0.69322 0.0
C452 C 0.58897 0.77344 0.67403 0.0
C453 C 0.61972 0.91277 0.78533 0.0
N454 N 0.63432 0.89229 0.79225 0.0
C455 C 0.60505 0.92572 0.80346 0.0
C456 C 0.60539 0.91754 0.82879 0.0
C457 C 0.62031 0.8966 0.83567 0.0
C458 C 0.63472 0.88411 0.81703 0.0
C459 C 0.71376 0.89975 0.8131 0.0
C460 C 0.69823 0.85405 0.79154 0.0
C461 C 0.69182 0.89841 0.79799 0.0
N462 N 0.68425 0.87572 0.78755 0.0
C463 C 0.72028 0.85466 0.80654 0.0
C464 C 0.72804 0.8777 0.81739 0.0
C465 C 0.67011 0.84584 0.7184 0.0
C466 C 0.57745 0.90512 0.68768 0.0
C467 C 0.6091 0.86505 0.67396 0.0
C468 C 0.60107 0.8824 0.65536 0.0
C469 C 0.58514 0.90256 0.66232 0.0
N470 N 0.60141 0.86767 0.69877 0.0
C471 C 0.58584 0.88739 0.70575 0.0
Co472 Co 0.25576 0.1541 0.38037 0.0
Co473 Co 0.22744 0.11082 0.33942 0.0
O474 O 0.2421 0.1205 0.37222 0.0
C475 C 0.21425 0.14624 0.41671 0.0
O476 O 0.20099 0.13763 0.39728 0.0
C477 C 0.27111 0.077 0.34676 0.0
O478 O 0.28341 0.09749 0.35426 0.0
O479 O 0.25595 0.12702 0.32056 0.0
O480 O 0.27369 0.1562 0.34673 0.0
H481 H 0.19995 0.12449 0.24851 0.0
H482 H 0.263 0.11162 0.41708 0.0
O483 O 0.23746 0.15295 0.41374 0.0
H484 H 0.34986 0.13921 0.39326 0.0
H485 H 0.29409 0.21972 0.43921 0.0
H486 H 0.26144 0.20307 0.35247 0.0
H487 H 0.31208 0.16093 0.37536 0.0
H488 H 0.27775 0.17708 0.42753 0.0
O489 O 0.2476 0.07843 0.34056 0.0
H490 H 0.21771 0.1372 0.29025 0.0
H491 H 0.2072 0.06194 0.31856 0.0
H492 H 0.27778 0.24593 0.36324 0.0
H493 H 0.30026 0.08951 0.43563 0.0
H494 H 0.29426 0.25446 0.4069 0.0
H495 H 0.34406 0.10323 0.42363 0.0
O496 O 0.2256 0.17113 0.36522 0.0
H497 H 0.18882 0.05489 0.40717 0.0
H498 H 0.17072 0.11276 0.33509 0.0
H499 H 0.13491 0.09338 0.35883 0.0
H500 H 0.14388 0.06418 0.39512 0.0
H501 H 0.22404 0.07489 0.38306 0.0
H502 H 0.18952 0.04831 0.27705 0.0
H503 H 0.18571 0.07974 0.24171 0.0
O504 O 0.20772 0.14352 0.33743 0.0
C505 C 0.27203 0.14461 0.32536 0.0
C506 C 0.20137 0.11065 0.2638 0.0
C507 C 0.19555 0.06789 0.27981 0.0
N508 N 0.21312 0.10043 0.30691 0.0
C509 C 0.21129 0.11778 0.28751 0.0
C510 C 0.20558 0.07571 0.30326 0.0
C511 C 0.19342 0.08554 0.25999 0.0
C512 C 0.28201 0.11786 0.41199 0.0
N513 N 0.28537 0.1376 0.39527 0.0
C514 C 0.30303 0.1052 0.42246 0.0
C515 C 0.3276 0.11289 0.41569 0.0
C516 C 0.33087 0.13306 0.39864 0.0
C517 C 0.30941 0.14526 0.38853 0.0
C518 C 0.28708 0.2162 0.42009 0.0
C519 C 0.26886 0.20657 0.37141 0.0
C520 C 0.27781 0.19211 0.41337 0.0
N521 N 0.26906 0.18751 0.38922 0.0
C522 C 0.27796 0.23091 0.37744 0.0
C523 C 0.28717 0.23569 0.40195 0.0
C524 C 0.2089 0.16517 0.34858 0.0
C525 C 0.18467 0.06753 0.39134 0.0
C526 C 0.17476 0.10013 0.35091 0.0
C527 C 0.15441 0.08917 0.36424 0.0
C528 C 0.15946 0.07278 0.3846 0.0
N529 N 0.19943 0.09486 0.35763 0.0
C530 C 0.20453 0.07882 0.37756 0.0
Co531 Co 0.88 0.23062 0.34093 0.0
Co532 Co 0.83564 0.26444 0.37609 0.0
O533 O 0.8687 0.24786 0.37185 0.0
C534 C 0.91506 0.27368 0.34754 0.0
O535 O 0.89501 0.28687 0.35467 0.0
C536 C 0.83619 0.22222 0.4127 0.0
O537 O 0.84638 0.20863 0.39432 0.0
O538 O 0.81766 0.23642 0.35793 0.0
O539 O 0.84703 0.21157 0.33866 0.0
H540 H 0.74912 0.2957 0.34861 0.0
H541 H 0.91305 0.22984 0.38687 0.0
O542 O 0.9129 0.25001 0.34226 0.0
H543 H 0.89367 0.13954 0.36842 0.0
H544 H 0.94488 0.18679 0.2852 0.0
H545 H 0.85598 0.21733 0.29138 0.0
H546 H 0.8769 0.17379 0.34074 0.0
H547 H 0.92946 0.20787 0.32443 0.0
O548 O 0.83092 0.24572 0.40909 0.0
H549 H 0.79106 0.2751 0.34275 0.0
H550 H 0.80939 0.28817 0.4206 0.0
H551 H 0.87053 0.1962 0.25187 0.0
H552 H 0.93042 0.19619 0.41493 0.0
H553 H 0.91529 0.18077 0.24861 0.0
H554 H 0.92066 0.15067 0.4058 0.0
O555 O 0.86564 0.25804 0.31893 0.0
H556 H 0.8967 0.30196 0.43992 0.0
H557 H 0.83496 0.32112 0.37142 0.0
H558 H 0.85768 0.35649 0.39272 0.0
H559 H 0.88877 0.34699 0.42727 0.0
H560 H 0.87374 0.26718 0.41794 0.0
H561 H 0.76754 0.30872 0.42745 0.0
H562 H 0.73712 0.3127 0.39126 0.0
O563 O 0.83954 0.28258 0.34278 0.0
C564 C 0.82407 0.21704 0.34469 0.0
C565 C 0.76226 0.29424 0.3645 0.0
C566 C 0.77259 0.30151 0.40875 0.0
N567 N 0.80282 0.28085 0.38116 0.0
C568 C 0.78609 0.28272 0.36124 0.0
C569 C 0.79625 0.28985 0.40476 0.0
C570 C 0.75553 0.30374 0.38844 0.0
C571 C 0.90895 0.21006 0.38265 0.0
N572 N 0.89412 0.20376 0.36213 0.0
C573 C 0.91874 0.1911 0.39866 0.0
C574 C 0.91323 0.16556 0.39354 0.0
C575 C 0.89808 0.1593 0.37257 0.0
C576 C 0.88861 0.17877 0.35699 0.0
C577 C 0.92531 0.19336 0.28642 0.0
C578 C 0.87542 0.21047 0.29018 0.0
C579 C 0.91649 0.20533 0.30857 0.0
N580 N 0.89178 0.21357 0.31027 0.0
C581 C 0.88358 0.19861 0.26773 0.0
C582 C 0.9087 0.18999 0.2659 0.0
C583 C 0.85085 0.27718 0.32185 0.0
C584 C 0.88314 0.30635 0.42495 0.0
C585 C 0.84851 0.31685 0.3864 0.0
C586 C 0.86128 0.33695 0.39842 0.0
C587 C 0.87871 0.33161 0.41781 0.0
N588 N 0.85293 0.29214 0.39355 0.0
C589 C 0.87001 0.28674 0.41252 0.0
Co590 Co 0.73192 0.84094 0.38326 0.0
Co591 Co 0.76114 0.88324 0.34185 0.0
O592 O 0.74593 0.87434 0.37465 0.0
C593 C 0.7734 0.84895 0.41962 0.0
O594 O 0.78662 0.85774 0.40024 0.0
C595 C 0.7173 0.91718 0.34701 0.0
O596 O 0.7049 0.89717 0.35557 0.0
O597 O 0.7329 0.86662 0.32296 0.0
O598 O 0.714 0.83866 0.34966 0.0
H599 H 0.7898 0.86745 0.25164 0.0
H600 H 0.72512 0.88399 0.41936 0.0
O601 O 0.7502 0.84226 0.41663 0.0
H602 H 0.63798 0.85685 0.39604 0.0
H603 H 0.69314 0.77635 0.44296 0.0
H604 H 0.72545 0.7918 0.35586 0.0
H605 H 0.67555 0.8346 0.37835 0.0
H606 H 0.70982 0.8187 0.43074 0.0
O607 O 0.741 0.91559 0.34168 0.0
H608 H 0.77132 0.85578 0.29338 0.0
H609 H 0.78201 0.93154 0.32021 0.0
H610 H 0.70877 0.74921 0.36718 0.0
H611 H 0.68808 0.90663 0.43771 0.0
H612 H 0.69246 0.74128 0.41102 0.0
H613 H 0.64413 0.89313 0.42598 0.0
O614 O 0.76192 0.82334 0.36841 0.0
H615 H 0.79856 0.94095 0.40873 0.0
H616 H 0.81795 0.88117 0.3386 0.0
H617 H 0.85333 0.90118 0.36244 0.0
H618 H 0.84371 0.93135 0.39776 0.0
H619 H 0.76378 0.92031 0.38453 0.0
H620 H 0.80039 0.94414 0.27868 0.0
H621 H 0.80448 0.91193 0.24409 0.0
O622 O 0.78087 0.85055 0.34098 0.0
C623 C 0.71628 0.84964 0.32804 0.0
C624 C 0.78828 0.88161 0.26661 0.0
C625 C 0.79418 0.92466 0.28178 0.0
N626 N 0.77602 0.89283 0.30933 0.0
C627 C 0.77796 0.87507 0.29033 0.0
C628 C 0.78377 0.91742 0.30524 0.0
C629 C 0.79647 0.90659 0.26238 0.0
C630 C 0.70604 0.87786 0.41438 0.0
N631 N 0.70248 0.85794 0.39791 0.0
C632 C 0.68515 0.89081 0.42473 0.0
C633 C 0.6605 0.88325 0.41812 0.0
C634 C 0.65703 0.86291 0.40131 0.0
C635 C 0.67837 0.85042 0.39131 0.0
C636 C 0.70008 0.7796 0.42376 0.0
C637 C 0.71813 0.78856 0.37488 0.0
C638 C 0.70955 0.80353 0.41674 0.0
N639 N 0.71825 0.80779 0.3925 0.0
C640 C 0.70882 0.76438 0.38122 0.0
C641 C 0.69971 0.75993 0.40583 0.0
C642 C 0.77912 0.82898 0.35218 0.0
C643 C 0.80299 0.92789 0.39334 0.0
C644 C 0.81363 0.89421 0.354 0.0
C645 C 0.83373 0.90553 0.36739 0.0
C646 C 0.82832 0.92247 0.38719 0.0
N647 N 0.78885 0.89966 0.36012 0.0
C648 C 0.78338 0.91623 0.37951 0.0
Co649 Co 0.1126 0.76396 0.33864 0.0
Co650 Co 0.15183 0.73191 0.38096 0.0
O651 O 0.11961 0.74792 0.37147 0.0
C652 C 0.07601 0.72221 0.34287 0.0
O653 O 0.0953 0.70863 0.35129 0.0
C654 C 0.14467 0.77344 0.41739 0.0
O655 O 0.13738 0.78711 0.39772 0.0
O656 O 0.17163 0.76094 0.36701 0.0
O657 O 0.14645 0.78174 0.33898 0.0
H658 H 0.24251 0.7035 0.36759 0.0
H659 H 0.07451 0.76837 0.3803 0.0
O660 O 0.07906 0.74574 0.33742 0.0
H661 H 0.09968 0.85681 0.35987 0.0
H662 H 0.05607 0.80746 0.27423 0.0
H663 H 0.14209 0.77306 0.29114 0.0
H664 H 0.11814 0.82056 0.3361 0.0
H665 H 0.06627 0.78781 0.31584 0.0
O666 O 0.15046 0.74997 0.41451 0.0
H667 H 0.20145 0.72296 0.35516 0.0
H668 H 0.17108 0.70799 0.42884 0.0
H669 H 0.13282 0.79274 0.24935 0.0
H670 H 0.05538 0.80406 0.40439 0.0
H671 H 0.08953 0.81012 0.24069 0.0
H672 H 0.06804 0.84865 0.39427 0.0
O673 O 0.12813 0.73501 0.31991 0.0
H674 H 0.0818 0.69149 0.43265 0.0
H675 H 0.15495 0.67533 0.37555 0.0
H676 H 0.12984 0.63898 0.39195 0.0
H677 H 0.09299 0.64697 0.42074 0.0
H678 H 0.10728 0.7273 0.41561 0.0
H679 H 0.21189 0.68856 0.44219 0.0
H680 H 0.24792 0.68613 0.41141 0.0
O681 O 0.15414 0.71423 0.34719 0.0
C682 C 0.16756 0.77861 0.3508 0.0
C683 C 0.22691 0.7043 0.38113 0.0
C684 C 0.20973 0.69595 0.42301 0.0
N685 N 0.18378 0.71622 0.39112 0.0
C686 C 0.20357 0.71518 0.37415 0.0
C687 C 0.18668 0.70697 0.41535 0.0
C688 C 0.22994 0.69459 0.40573 0.0
C689 C 0.0799 0.78774 0.37562 0.0
N690 N 0.09731 0.7924 0.35675 0.0
C691 C 0.0691 0.80786 0.3894 0.0
C692 C 0.07624 0.83287 0.38373 0.0
C693 C 0.094 0.83746 0.36445 0.0
C694 C 0.10443 0.81687 0.35109 0.0
C695 C 0.07504 0.80007 0.27782 0.0
C696 C 0.12331 0.78085 0.28761 0.0
C697 C 0.08092 0.78893 0.30133 0.0
N698 N 0.10488 0.7797 0.30603 0.0
C699 C 0.11813 0.79185 0.26387 0.0
C700 C 0.09382 0.80156 0.25901 0.0
C701 C 0.14399 0.71738 0.32525 0.0
C702 C 0.09786 0.68777 0.42018 0.0
C703 C 0.1389 0.67895 0.38803 0.0
C704 C 0.12479 0.65829 0.39729 0.0
C705 C 0.10412 0.66279 0.41346 0.0
N706 N 0.13264 0.70339 0.39472 0.0
C707 C 0.11242 0.70795 0.41057 0.0
Co708 Co 0.23057 0.88142 0.6529 0.0
Co709 Co 0.26181 0.84037 0.61176 0.0
O710 O 0.24579 0.87289 0.62006 0.0
C711 C 0.27163 0.9183 0.64546 0.0
O712 O 0.28526 0.89884 0.63756 0.0
C713 C 0.2193 0.84558 0.57618 0.0
O714 O 0.20608 0.85339 0.59597 0.0
O715 O 0.23325 0.82107 0.62732 0.0
O716 O 0.21322 0.84743 0.65483 0.0
H717 H 0.29126 0.7506 0.62861 0.0
H718 H 0.22448 0.91717 0.60941 0.0
O719 O 0.24835 0.91514 0.65185 0.0
H720 H 0.13698 0.89212 0.63372 0.0
H721 H 0.18841 0.94075 0.71565 0.0
H722 H 0.22314 0.85428 0.70205 0.0
H723 H 0.17413 0.87541 0.6574 0.0
H724 H 0.20682 0.92859 0.674 0.0
O725 O 0.2429 0.8401 0.57862 0.0
H726 H 0.27166 0.79201 0.63957 0.0
H727 H 0.28477 0.81911 0.56428 0.0
H728 H 0.20474 0.86552 0.74393 0.0
H729 H 0.18785 0.93453 0.58536 0.0
H730 H 0.1872 0.90904 0.75093 0.0
H731 H 0.14373 0.92192 0.59743 0.0
O732 O 0.26019 0.8672 0.67154 0.0
H733 H 0.30051 0.90803 0.55579 0.0
H734 H 0.31853 0.83791 0.61604 0.0
H735 H 0.35432 0.86242 0.5976 0.0
H736 H 0.34539 0.89775 0.56723 0.0
H737 H 0.2653 0.88319 0.57487 0.0
H738 H 0.30432 0.77791 0.55239 0.0
H739 H 0.30776 0.74335 0.58472 0.0
O740 O 0.2803 0.83972 0.64524 0.0
C741 C 0.21612 0.82583 0.6439 0.0
C742 C 0.29003 0.76556 0.61439 0.0
C743 C 0.29732 0.78088 0.5716 0.0
N744 N 0.27749 0.80808 0.60272 0.0
C745 C 0.27907 0.78909 0.62054 0.0
C746 C 0.28623 0.80415 0.57844 0.0
C747 C 0.29924 0.7615 0.58976 0.0
C748 C 0.20532 0.91182 0.61493 0.0
N749 N 0.20143 0.89541 0.63484 0.0
C750 C 0.18466 0.92161 0.60118 0.0
C751 C 0.15991 0.9145 0.60794 0.0
C752 C 0.15611 0.89777 0.62829 0.0
C753 C 0.17722 0.88833 0.64159 0.0
C754 C 0.19588 0.92168 0.7128 0.0
C755 C 0.21528 0.87315 0.70488 0.0
C756 C 0.20632 0.9147 0.68927 0.0
N757 N 0.21566 0.89063 0.68551 0.0
C758 C 0.205 0.87945 0.72867 0.0
C759 C 0.19521 0.90389 0.73259 0.0
C760 C 0.2777 0.85106 0.66667 0.0
C761 C 0.30465 0.89264 0.56895 0.0
C762 C 0.31451 0.8533 0.60288 0.0
C763 C 0.33484 0.86707 0.59246 0.0
C764 C 0.32982 0.88688 0.57541 0.0
N765 N 0.28987 0.85906 0.59644 0.0
C766 C 0.28479 0.87844 0.57972 0.0
Co767 Co 0.15361 0.26604 0.61144 0.0
Co768 Co 0.10957 0.23706 0.6511 0.0
O769 O 0.11987 0.25226 0.61878 0.0
C770 C 0.146 0.22458 0.57511 0.0
O771 O 0.13703 0.21167 0.59462 0.0
C772 C 0.07569 0.2807 0.64367 0.0
O773 O 0.0962 0.29326 0.63663 0.0
O774 O 0.12535 0.26532 0.67061 0.0
O775 O 0.15474 0.28391 0.64523 0.0
H776 H 0.12117 0.20872 0.74205 0.0
H777 H 0.11196 0.27314 0.57372 0.0
O778 O 0.15324 0.24765 0.578 0.0
H779 H 0.1387 0.36006 0.59822 0.0
H780 H 0.22042 0.30469 0.55415 0.0
H781 H 0.20186 0.27198 0.64049 0.0
H782 H 0.16005 0.32234 0.61668 0.0
H783 H 0.17759 0.28811 0.56482 0.0
O784 O 0.07717 0.25712 0.64956 0.0
H785 H 0.13478 0.22706 0.70084 0.0
H786 H 0.06035 0.2162 0.67052 0.0
H787 H 0.24488 0.28857 0.63075 0.0
H788 H 0.09025 0.31033 0.55459 0.0
H789 H 0.25437 0.30509 0.58729 0.0
H790 H 0.10355 0.35417 0.5669 0.0
O791 O 0.17049 0.23603 0.62697 0.0
H792 H 0.05536 0.19931 0.58151 0.0
H793 H 0.11159 0.18028 0.65464 0.0
H794 H 0.093 0.14479 0.62983 0.0
H795 H 0.06465 0.15422 0.59299 0.0
H796 H 0.07455 0.2342 0.60669 0.0
H797 H 0.04583 0.19794 0.71148 0.0
H798 H 0.07639 0.194 0.74756 0.0
O799 O 0.14229 0.21739 0.6536 0.0
C800 C 0.14279 0.28174 0.66639 0.0
C801 C 0.10772 0.21017 0.72642 0.0
C802 C 0.06543 0.20416 0.70927 0.0
N803 N 0.0985 0.22227 0.68319 0.0
C804 C 0.11536 0.22041 0.70301 0.0
C805 C 0.07375 0.21451 0.68614 0.0
C806 C 0.08258 0.20196 0.72951 0.0
C807 C 0.11801 0.29216 0.57896 0.0
N808 N 0.13732 0.29558 0.59618 0.0
C809 C 0.10558 0.31314 0.56816 0.0
C810 C 0.11303 0.33774 0.57511 0.0
C811 C 0.13274 0.34106 0.59269 0.0
C812 C 0.14472 0.31963 0.60312 0.0
C813 C 0.21648 0.29767 0.57319 0.0
C814 C 0.20578 0.27943 0.62164 0.0
C815 C 0.19228 0.28826 0.57934 0.0
N816 N 0.18714 0.27951 0.60338 0.0
C817 C 0.2302 0.28867 0.61619 0.0
C818 C 0.23552 0.29789 0.59179 0.0
C819 C 0.1643 0.21904 0.64322 0.0
C820 C 0.06763 0.19495 0.59757 0.0
C821 C 0.09931 0.18452 0.6386 0.0
C822 C 0.0888 0.16436 0.62466 0.0
C823 C 0.07288 0.16966 0.604 0.0
N824 N 0.09406 0.20927 0.63217 0.0
C825 C 0.07845 0.21463 0.61196 0.0
Co826 Co 0.774 0.11536 0.65738 0.0
Co827 Co 0.7358 0.15119 0.61709 0.0
O828 O 0.75527 0.12059 0.6256 0.0
C829 C 0.73547 0.07521 0.65672 0.0
O830 O 0.71985 0.09303 0.64861 0.0
C831 C 0.77514 0.14785 0.5777 0.0
O832 O 0.7909 0.14204 0.5963 0.0
O833 O 0.76381 0.17369 0.62901 0.0
O834 O 0.78858 0.15063 0.65559 0.0
H835 H 0.70029 0.23906 0.6321 0.0
H836 H 0.77895 0.0773 0.61582 0.0
O837 O 0.75901 0.08033 0.66025 0.0
H838 H 0.86598 0.11052 0.62983 0.0
H839 H 0.82685 0.06388 0.71897 0.0
H840 H 0.78332 0.14603 0.70406 0.0
H841 H 0.82992 0.12598 0.65594 0.0
H842 H 0.80362 0.07174 0.67873 0.0
O843 O 0.75149 0.15123 0.58233 0.0
H844 H 0.72428 0.20007 0.64324 0.0
H845 H 0.70687 0.16772 0.57097 0.0
H846 H 0.80654 0.13912 0.74447 0.0
H847 H 0.81449 0.06111 0.58943 0.0
H848 H 0.82852 0.09777 0.75212 0.0
H849 H 0.85836 0.07783 0.59632 0.0
O850 O 0.74509 0.1285 0.67797 0.0
H851 H 0.6985 0.07738 0.56845 0.0
H852 H 0.67965 0.14919 0.62638 0.0
H853 H 0.6447 0.12077 0.61256 0.0
H854 H 0.65404 0.08457 0.58336 0.0
H855 H 0.73291 0.10613 0.58295 0.0
H856 H 0.68288 0.20645 0.55891 0.0
H857 H 0.67938 0.24241 0.58965 0.0
O858 O 0.72032 0.15219 0.65195 0.0
C859 C 0.78278 0.17132 0.64405 0.0
C860 C 0.70154 0.22345 0.61861 0.0
C861 C 0.6918 0.20516 0.57751 0.0
N862 N 0.7166 0.1815 0.60795 0.0
C863 C 0.71498 0.20129 0.62487 0.0
C864 C 0.70541 0.18329 0.58444 0.0
C865 C 0.68984 0.22534 0.59477 0.0
C866 C 0.79804 0.08446 0.61908 0.0
N867 N 0.8024 0.10245 0.63746 0.0
C868 C 0.81806 0.07531 0.60402 0.0
C869 C 0.84267 0.08472 0.60787 0.0
C870 C 0.84695 0.10308 0.62666 0.0
C871 C 0.82646 0.1118 0.64134 0.0
C872 C 0.81747 0.08202 0.71581 0.0
C873 C 0.79312 0.12814 0.70713 0.0
C874 C 0.80429 0.08658 0.69307 0.0
N875 N 0.79253 0.1095 0.68889 0.0
C876 C 0.80611 0.12426 0.7301 0.0
C877 C 0.8184 0.10105 0.7344 0.0
C878 C 0.7258 0.14268 0.67371 0.0
C879 C 0.69418 0.09312 0.58112 0.0
C880 C 0.68387 0.13344 0.61372 0.0
C881 C 0.66399 0.11745 0.60592 0.0
C882 C 0.66924 0.09715 0.58952 0.0
N883 N 0.70826 0.12937 0.60538 0.0
C884 C 0.71357 0.10953 0.5893 0.0
Co885 Co 0.83958 0.71676 0.60504 0.0
Co886 Co 0.87671 0.74963 0.64854 0.0
O887 O 0.87075 0.7345 0.61517 0.0
C888 C 0.8431 0.76203 0.57267 0.0
O889 O 0.85017 0.77402 0.59345 0.0
C890 C 0.91569 0.71 0.64335 0.0
O891 O 0.89776 0.69566 0.63335 0.0
O892 O 0.86213 0.71925 0.66591 0.0
O893 O 0.84004 0.696 0.63708 0.0
H894 H 0.85345 0.77446 0.73824 0.0
H895 H 0.8832 0.71959 0.56896 0.0
O896 O 0.83832 0.73814 0.57336 0.0
H897 H 0.8692 0.62773 0.58433 0.0
H898 H 0.78166 0.67458 0.54102 0.0
H899 H 0.79205 0.70001 0.63105 0.0
H900 H 0.84171 0.65993 0.60501 0.0
H901 H 0.8209 0.69637 0.55539 0.0
O902 O 0.91096 0.73299 0.64976 0.0
H903 H 0.84574 0.75626 0.69548 0.0
H904 H 0.92167 0.77425 0.67328 0.0
H905 H 0.75258 0.6781 0.61761 0.0
H906 H 0.911 0.68805 0.54771 0.0
H907 H 0.7472 0.66522 0.57226 0.0
H908 H 0.9041 0.64174 0.55541 0.0
O909 O 0.81746 0.74216 0.62249 0.0
H910 H 0.93265 0.7945 0.58478 0.0
H911 H 0.86914 0.80585 0.65339 0.0
H912 H 0.88621 0.84369 0.6311 0.0
H913 H 0.91822 0.83813 0.59653 0.0
H914 H 0.91487 0.75717 0.60741 0.0
H915 H 0.93027 0.79252 0.71586 0.0
H916 H 0.89598 0.79277 0.74865 0.0
O917 O 0.84232 0.76603 0.64815 0.0
C918 C 0.84889 0.69986 0.65946 0.0
C919 C 0.86851 0.77457 0.72408 0.0
C920 C 0.91164 0.78468 0.71152 0.0
N921 N 0.88315 0.76447 0.68184 0.0
C922 C 0.86423 0.76438 0.69981 0.0
C923 C 0.90667 0.77429 0.68746 0.0
C924 C 0.89239 0.78481 0.72991 0.0
C925 C 0.87995 0.69947 0.57221 0.0
N926 N 0.86078 0.69159 0.58807 0.0
C927 C 0.8958 0.6817 0.56021 0.0
C928 C 0.89195 0.65572 0.56457 0.0
C929 C 0.87237 0.64785 0.5808 0.0
C930 C 0.85691 0.66616 0.59249 0.0
C931 C 0.78381 0.68001 0.56084 0.0
C932 C 0.78994 0.69425 0.61137 0.0
C933 C 0.80597 0.69238 0.56908 0.0
N934 N 0.80887 0.69919 0.5941 0.0
C935 C 0.76751 0.68195 0.60383 0.0
C936 C 0.76449 0.67476 0.57838 0.0
C937 C 0.82079 0.76036 0.63828 0.0
C938 C 0.91876 0.79717 0.59985 0.0
C939 C 0.88303 0.80329 0.63834 0.0
C940 C 0.89266 0.82478 0.62582 0.0
C941 C 0.91063 0.82164 0.60644 0.0
N942 N 0.89108 0.77935 0.63176 0.0
C943 C 0.90872 0.77612 0.6128 0.0
Co944 Co 0.34269 0.22776 0.11173 0.0
Co945 Co 0.37571 0.26597 0.15419 0.0
O946 O 0.37238 0.24772 0.12203 0.0
C947 C 0.3467 0.26969 0.07523 0.0
O948 O 0.35229 0.28393 0.09503 0.0
C949 C 0.41582 0.22734 0.15445 0.0
O950 O 0.39846 0.21197 0.14499 0.0
O951 O 0.36094 0.23687 0.17348 0.0
O952 O 0.34161 0.21026 0.14565 0.0
H953 H 0.34589 0.29867 0.23932 0.0
H954 H 0.38854 0.22886 0.07845 0.0
O955 O 0.34277 0.24582 0.07807 0.0
H956 H 0.37698 0.13849 0.10233 0.0
H957 H 0.29103 0.17678 0.04874 0.0
H958 H 0.29385 0.21215 0.13592 0.0
H959 H 0.34683 0.17134 0.11758 0.0
H960 H 0.32837 0.20155 0.06337 0.0
O961 O 0.41039 0.25064 0.15894 0.0
H962 H 0.34154 0.27605 0.19823 0.0
H963 H 0.4183 0.29418 0.17922 0.0
H964 H 0.25623 0.18732 0.12224 0.0
H965 H 0.41901 0.19662 0.06258 0.0
H966 H 0.25466 0.16943 0.07833 0.0
H967 H 0.41336 0.15107 0.0746 0.0
O968 O 0.31866 0.25385 0.12512 0.0
H969 H 0.43438 0.30693 0.09023 0.0
H970 H 0.36595 0.32203 0.15316 0.0
H971 H 0.3833 0.35832 0.1286 0.0
H972 H 0.41778 0.35086 0.09689 0.0
H973 H 0.41629 0.27116 0.11502 0.0
H974 H 0.42357 0.31684 0.22021 0.0
H975 H 0.38715 0.31926 0.25052 0.0
O976 O 0.34082 0.28088 0.15016 0.0
C977 C 0.34866 0.21653 0.16815 0.0
C978 C 0.36187 0.29784 0.22622 0.0
C979 C 0.40548 0.308 0.21551 0.0
N980 N 0.37956 0.28404 0.18625 0.0
C981 C 0.35949 0.28513 0.20289 0.0
C982 C 0.4024 0.29512 0.19235 0.0
C983 C 0.38503 0.30936 0.23251 0.0
C984 C 0.38582 0.20904 0.08353 0.0
N985 N 0.36586 0.20195 0.09878 0.0
C986 C 0.40319 0.19089 0.07459 0.0
C987 C 0.40003 0.16534 0.08137 0.0
C988 C 0.37962 0.15827 0.09694 0.0
C989 C 0.36264 0.17695 0.10555 0.0
C990 C 0.29153 0.18437 0.06796 0.0
C991 C 0.29342 0.20417 0.11692 0.0
C992 C 0.31261 0.19842 0.07634 0.0
N993 N 0.31342 0.20795 0.10062 0.0
C994 C 0.27202 0.19025 0.10922 0.0
C995 C 0.27114 0.18026 0.08457 0.0
C996 C 0.32022 0.27349 0.13941 0.0
C997 C 0.4194 0.31042 0.10404 0.0
C998 C 0.38092 0.31864 0.13936 0.0
C999 C 0.3907 0.33926 0.12555 0.0
C1000 C 0.41006 0.33507 0.10776 0.0
N1001 N 0.39019 0.29454 0.13559 0.0
C1002 C 0.40917 0.29027 0.11821 0.0
Co1003 Co 0.37681 0.73459 0.84259 0.0
Co1004 Co 0.34137 0.77184 0.8839 0.0
O1005 O 0.37216 0.75307 0.87449 0.0
C1006 C 0.41489 0.7754 0.84158 0.0
O1007 O 0.39721 0.78987 0.8518 0.0
C1008 C 0.34579 0.72982 0.92045 0.0
O1009 O 0.35293 0.71598 0.90087 0.0
O1010 O 0.3187 0.74509 0.86947 0.0
O1011 O 0.34276 0.71784 0.84653 0.0
H1012 H 0.25417 0.80971 0.87039 0.0
H1013 H 0.41732 0.73221 0.88203 0.0
O1014 O 0.41064 0.75174 0.83766 0.0
H1015 H 0.38908 0.64319 0.86972 0.0
H1016 H 0.42787 0.68542 0.77769 0.0
H1017 H 0.34365 0.7222 0.79838 0.0
H1018 H 0.37001 0.6781 0.84446 0.0
H1019 H 0.42104 0.70826 0.81834 0.0
O1020 O 0.34083 0.75349 0.9175 0.0
H1021 H 0.29312 0.78634 0.85791 0.0
H1022 H 0.32429 0.79692 0.93196 0.0
H1023 H 0.34958 0.69934 0.75762 0.0
H1024 H 0.4371 0.69786 0.90755 0.0
H1025 H 0.39194 0.68077 0.74706 0.0
H1026 H 0.4229 0.653 0.90152 0.0
O1027 O 0.36077 0.76262 0.82278 0.0
H1028 H 0.41453 0.80528 0.93626 0.0
H1029 H 0.34375 0.8284 0.87858 0.0
H1030 H 0.37198 0.8622 0.89536 0.0
H1031 H 0.40764 0.85071 0.92446 0.0
H1032 H 0.38598 0.77207 0.91885 0.0
H1033 H 0.2856 0.82023 0.94539 0.0
H1034 H 0.25024 0.82684 0.91445 0.0
O1035 O 0.34096 0.78952 0.85003 0.0
C1036 C 0.32149 0.72503 0.85599 0.0
C1037 C 0.2695 0.80707 0.88401 0.0
C1038 C 0.28712 0.81294 0.92611 0.0
N1039 N 0.31106 0.79054 0.89406 0.0
C1040 C 0.29163 0.79395 0.877 0.0
C1041 C 0.30896 0.7997 0.91841 0.0
C1042 C 0.26729 0.81665 0.90874 0.0
C1043 C 0.41126 0.71269 0.87913 0.0
N1044 N 0.39266 0.70713 0.86171 0.0
C1045 C 0.42243 0.69334 0.8937 0.0
C1046 C 0.41443 0.66817 0.89033 0.0
C1047 C 0.39545 0.66266 0.8725 0.0
C1048 C 0.3847 0.6825 0.85828 0.0
C1049 C 0.4093 0.69336 0.78211 0.0
C1050 C 0.36209 0.71398 0.794 0.0
C1051 C 0.40534 0.70634 0.80507 0.0
N1052 N 0.3819 0.7163 0.81082 0.0
C1053 C 0.36535 0.70115 0.77086 0.0
C1054 C 0.38913 0.69076 0.76493 0.0
C1055 C 0.34825 0.78291 0.8277 0.0
C1056 C 0.39901 0.81053 0.92366 0.0
C1057 C 0.35926 0.82326 0.89119 0.0
C1058 C 0.37515 0.84248 0.90067 0.0
C1059 C 0.39515 0.83602 0.917 0.0
N1060 N 0.36314 0.79833 0.89786 0.0
C1061 C 0.38272 0.79183 0.91383 0.0
Co1062 Co 0.23019 0.34008 0.88151 0.0
Co1063 Co 0.26205 0.38139 0.8411 0.0
O1064 O 0.24649 0.37259 0.87371 0.0
C1065 C 0.27281 0.34422 0.91702 0.0
O1066 O 0.28599 0.35253 0.89742 0.0
C1067 C 0.22097 0.41827 0.8485 0.0
O1068 O 0.20719 0.39881 0.85617 0.0
O1069 O 0.23263 0.36729 0.82201 0.0
O1070 O 0.21172 0.34014 0.84804 0.0
H1071 H 0.28873 0.36638 0.75016 0.0
H1072 H 0.22712 0.38229 0.9191 0.0
O1073 O 0.24914 0.33906 0.91459 0.0
H1074 H 0.1379 0.36262 0.89619 0.0
H1075 H 0.1872 0.27701 0.93992 0.0
H1076 H 0.22009 0.29219 0.853 0.0
H1077 H 0.17345 0.33819 0.87723 0.0
H1078 H 0.20698 0.31828 0.92863 0.0
O1079 O 0.24428 0.41507 0.84226 0.0
H1080 H 0.26995 0.35473 0.79177 0.0
H1081 H 0.28599 0.42877 0.82066 0.0
H1082 H 0.20023 0.25073 0.86335 0.0
H1083 H 0.19214 0.40705 0.9387 0.0
H1084 H 0.18362 0.24294 0.90711 0.0
H1085 H 0.14716 0.3973 0.92719 0.0
O1086 O 0.25854 0.32079 0.86564 0.0
H1087 H 0.30404 0.43406 0.90944 0.0
H1088 H 0.31854 0.37553 0.83711 0.0
H1089 H 0.35544 0.39218 0.86122 0.0
H1090 H 0.34829 0.42169 0.89765 0.0
H1091 H 0.26767 0.41676 0.88496 0.0
H1092 H 0.30475 0.44135 0.77929 0.0
H1093 H 0.3063 0.40999 0.74372 0.0
O1094 O 0.27944 0.34744 0.83908 0.0
C1095 C 0.21479 0.35141 0.82663 0.0
C1096 C 0.28832 0.38017 0.76556 0.0
C1097 C 0.29728 0.42225 0.7819 0.0
N1098 N 0.27729 0.39091 0.80873 0.0
C1099 C 0.27784 0.37362 0.7892 0.0
C1100 C 0.28664 0.41503 0.80527 0.0
C1101 C 0.29814 0.40465 0.76195 0.0
C1102 C 0.20758 0.37779 0.9142 0.0
N1103 N 0.20231 0.35876 0.89715 0.0
C1104 C 0.18786 0.39193 0.92527 0.0
C1105 C 0.16263 0.38648 0.91877 0.0
C1106 C 0.15742 0.36703 0.90137 0.0
C1107 C 0.17762 0.3533 0.89066 0.0
C1108 C 0.19423 0.28022 0.92075 0.0
C1109 C 0.21259 0.28905 0.87197 0.0
C1110 C 0.20544 0.30354 0.91426 0.0
N1111 N 0.21424 0.30777 0.89005 0.0
C1112 C 0.20151 0.26549 0.87777 0.0
C1113 C 0.19223 0.26111 0.90233 0.0
C1114 C 0.27606 0.32567 0.8495 0.0
C1115 C 0.3074 0.42127 0.89356 0.0
C1116 C 0.31528 0.38831 0.85298 0.0
C1117 C 0.33625 0.39772 0.86653 0.0
C1118 C 0.33222 0.41429 0.88696 0.0
N1119 N 0.291 0.39527 0.85957 0.0
C1120 C 0.28689 0.4115 0.87957 0.0
Co1121 Co 0.61448 0.26109 0.83774 0.0
Co1122 Co 0.65171 0.23203 0.88381 0.0
O1123 O 0.62005 0.24758 0.87192 0.0
C1124 C 0.57671 0.2205 0.84326 0.0
O1125 O 0.59524 0.20691 0.85323 0.0
C1126 C 0.64383 0.27621 0.91696 0.0
O1127 O 0.63776 0.2887 0.89611 0.0
O1128 O 0.67252 0.25969 0.86845 0.0
O1129 O 0.64865 0.27812 0.83782 0.0
H1130 H 0.74259 0.20202 0.87651 0.0
H1131 H 0.57514 0.26958 0.87755 0.0
O1132 O 0.5806 0.24362 0.83671 0.0
H1133 H 0.60299 0.35559 0.85109 0.0
H1134 H 0.56128 0.30056 0.76809 0.0
H1135 H 0.64567 0.26537 0.79066 0.0
H1136 H 0.62141 0.31719 0.83093 0.0
H1137 H 0.5696 0.28425 0.81152 0.0
O1138 O 0.64924 0.2525 0.91587 0.0
H1139 H 0.70235 0.22093 0.86094 0.0
H1140 H 0.6686 0.21138 0.93404 0.0
H1141 H 0.63827 0.28166 0.74708 0.0
H1142 H 0.55602 0.30747 0.89804 0.0
H1143 H 0.59581 0.29943 0.73557 0.0
H1144 H 0.57003 0.35085 0.88487 0.0
O1145 O 0.63004 0.23047 0.82196 0.0
H1146 H 0.57924 0.19628 0.93559 0.0
H1147 H 0.65426 0.17518 0.88268 0.0
H1148 H 0.62811 0.1404 0.90079 0.0
H1149 H 0.59032 0.15088 0.92748 0.0
H1150 H 0.60578 0.23046 0.9169 0.0
H1151 H 0.70855 0.19258 0.95052 0.0
H1152 H 0.74587 0.18769 0.92162 0.0
O1153 O 0.65519 0.21191 0.85154 0.0
C1154 C 0.66936 0.27577 0.85046 0.0
C1155 C 0.72641 0.20388 0.88924 0.0
C1156 C 0.70732 0.19862 0.93079 0.0
N1157 N 0.68303 0.21681 0.89643 0.0
C1158 C 0.70354 0.21444 0.88048 0.0
C1159 C 0.68475 0.20927 0.92135 0.0
C1160 C 0.72825 0.19589 0.91456 0.0
C1161 C 0.58112 0.28841 0.87155 0.0
N1162 N 0.59926 0.29119 0.853 0.0
C1163 C 0.57032 0.30978 0.88329 0.0
C1164 C 0.57822 0.33411 0.87592 0.0
C1165 C 0.59672 0.33679 0.85697 0.0
C1166 C 0.60712 0.31498 0.84567 0.0
C1167 C 0.5799 0.293 0.77292 0.0
C1168 C 0.62725 0.27337 0.78587 0.0
C1169 C 0.58472 0.28375 0.79747 0.0
N1170 N 0.60824 0.27431 0.80372 0.0
C1171 C 0.62313 0.28243 0.76113 0.0
C1172 C 0.59928 0.29235 0.75468 0.0
C1173 C 0.64573 0.21334 0.82912 0.0
C1174 C 0.5957 0.19148 0.92404 0.0
C1175 C 0.6378 0.17988 0.89422 0.0
C1176 C 0.6231 0.16011 0.90447 0.0
C1177 C 0.60191 0.166 0.91946 0.0
N1178 N 0.6316 0.20481 0.89884 0.0
C1179 C 0.61085 0.21074 0.91351 0.0
Co1180 Co 0.7723 0.6586 0.87673 0.0
Co1181 Co 0.73692 0.61298 0.84488 0.0
O1182 O 0.75453 0.62593 0.87491 0.0
C1183 C 0.73013 0.66212 0.91302 0.0
O1184 O 0.71628 0.6511 0.89532 0.0
C1185 C 0.7783 0.57673 0.85492 0.0
O1186 O 0.79232 0.59666 0.86067 0.0
O1187 O 0.76504 0.62441 0.82205 0.0
O1188 O 0.79023 0.65168 0.84382 0.0
H1189 H 0.70339 0.61695 0.75507 0.0
H1190 H 0.77381 0.62358 0.92125 0.0
O1191 O 0.75383 0.6663 0.90926 0.0
H1192 H 0.86357 0.6345 0.89485 0.0
H1193 H 0.81924 0.72854 0.92301 0.0
H1194 H 0.78404 0.70044 0.84035 0.0
H1195 H 0.82898 0.65691 0.872 0.0
H1196 H 0.79726 0.68702 0.91918 0.0
O1197 O 0.75487 0.57956 0.84893 0.0
H1198 H 0.72484 0.63364 0.79356 0.0
H1199 H 0.71221 0.56336 0.83203 0.0
H1200 H 0.80608 0.74198 0.84319 0.0
H1201 H 0.80781 0.60101 0.9448 0.0
H1202 H 0.82388 0.75627 0.88479 0.0
H1203 H 0.85306 0.60634 0.93156 0.0
O1204 O 0.74483 0.67623 0.85742 0.0
H1205 H 0.70007 0.56997 0.92234 0.0
H1206 H 0.68023 0.61822 0.84393 0.0
H1207 H 0.64518 0.60504 0.87253 0.0
H1208 H 0.65502 0.58071 0.91204 0.0
H1209 H 0.73456 0.58376 0.89332 0.0
H1210 H 0.69078 0.54582 0.7939 0.0
H1211 H 0.68619 0.57273 0.7551 0.0
O1212 O 0.71918 0.64639 0.84002 0.0
C1213 C 0.78463 0.63877 0.82391 0.0
C1214 C 0.70516 0.60508 0.7719 0.0
C1215 C 0.69812 0.56514 0.79368 0.0
N1216 N 0.71951 0.59958 0.81508 0.0
C1217 C 0.7172 0.61446 0.79378 0.0
C1218 C 0.71029 0.57516 0.8152 0.0
C1219 C 0.69555 0.58025 0.77192 0.0
C1220 C 0.79348 0.6262 0.91555 0.0
N1221 N 0.79943 0.64165 0.89539 0.0
C1222 C 0.81264 0.61328 0.92888 0.0
C1223 C 0.83802 0.61626 0.92142 0.0
C1224 C 0.84393 0.63204 0.90081 0.0
C1225 C 0.82427 0.64464 0.88792 0.0
C1226 C 0.81171 0.72246 0.90475 0.0
C1227 C 0.79205 0.70638 0.85839 0.0
C1228 C 0.79926 0.69897 0.90246 0.0
N1229 N 0.78986 0.6911 0.87942 0.0
C1230 C 0.80437 0.72999 0.85994 0.0
C1231 C 0.81431 0.73801 0.8833 0.0
C1232 C 0.72526 0.66952 0.84462 0.0
C1233 C 0.69554 0.58051 0.90515 0.0
C1234 C 0.68466 0.60767 0.86111 0.0
C1235 C 0.66474 0.60022 0.87721 0.0
C1236 C 0.67027 0.58656 0.89937 0.0
N1237 N 0.70939 0.60164 0.86691 0.0
C1238 C 0.71498 0.58826 0.88859 0.0
Co1239 Co 0.65495 0.77442 0.11135 0.0
Co1240 Co 0.6156 0.73623 0.148 0.0
O1241 O 0.62345 0.75541 0.11716 0.0
C1242 C 0.65442 0.73395 0.07299 0.0
O1243 O 0.64602 0.71902 0.09125 0.0
C1244 C 0.57737 0.77685 0.14556 0.0
O1245 O 0.59601 0.79164 0.13779 0.0
O1246 O 0.62953 0.76376 0.1701 0.0
O1247 O 0.65237 0.79083 0.14564 0.0
H1248 H 0.63394 0.69899 0.23452 0.0
H1249 H 0.61372 0.77625 0.07253 0.0
O1250 O 0.65848 0.75755 0.07732 0.0
H1251 H 0.62564 0.86532 0.10072 0.0
H1252 H 0.71602 0.82531 0.05729 0.0
H1253 H 0.70106 0.78681 0.14188 0.0
H1254 H 0.65223 0.83077 0.1186 0.0
H1255 H 0.67618 0.80175 0.06621 0.0
O1256 O 0.58143 0.75321 0.14973 0.0
H1257 H 0.64404 0.72273 0.1951 0.0
H1258 H 0.56912 0.70941 0.16697 0.0
H1259 H 0.74106 0.81039 0.13394 0.0
H1260 H 0.58687 0.81023 0.05397 0.0
H1261 H 0.74874 0.82985 0.09135 0.0
H1262 H 0.5927 0.85513 0.06813 0.0
O1263 O 0.67608 0.74691 0.12676 0.0
H1264 H 0.56237 0.70094 0.0764 0.0
H1265 H 0.62258 0.6798 0.14567 0.0
H1266 H 0.60615 0.64543 0.11794 0.0
H1267 H 0.57578 0.65593 0.08304 0.0
H1268 H 0.57947 0.73475 0.10444 0.0
H1269 H 0.55813 0.6857 0.20619 0.0
H1270 H 0.59071 0.68029 0.24025 0.0
O1271 O 0.64988 0.71959 0.14719 0.0
C1272 C 0.64286 0.78391 0.16701 0.0
C1273 C 0.61962 0.70113 0.21977 0.0
C1274 C 0.57706 0.69369 0.20388 0.0
N1275 N 0.60727 0.71721 0.17866 0.0
C1276 C 0.62526 0.71447 0.19737 0.0
C1277 C 0.58337 0.70716 0.18174 0.0
C1278 C 0.59535 0.69066 0.22299 0.0
C1279 C 0.61653 0.79578 0.07859 0.0
N1280 N 0.63461 0.80156 0.0965 0.0
C1281 C 0.60121 0.81492 0.0681 0.0
C1282 C 0.60447 0.84011 0.07608 0.0
C1283 C 0.62294 0.84584 0.09437 0.0
C1284 C 0.6379 0.8262 0.10446 0.0
C1285 C 0.71284 0.81703 0.07597 0.0
C1286 C 0.70414 0.79549 0.12345 0.0
C1287 C 0.69033 0.80367 0.08113 0.0
N1288 N 0.68613 0.79329 0.10471 0.0
C1289 C 0.72688 0.8087 0.11899 0.0
C1290 C 0.7312 0.81958 0.09508 0.0
C1291 C 0.67195 0.72667 0.13964 0.0
C1292 C 0.57553 0.69612 0.09159 0.0
C1293 C 0.60942 0.68451 0.13048 0.0
C1294 C 0.60014 0.66497 0.11487 0.0
C1295 C 0.5831 0.67087 0.0953 0.0
N1296 N 0.60188 0.70922 0.12672 0.0
C1297 C 0.58519 0.71516 0.10758 0.0
Co1298 Co 0.26522 0.61302 0.15546 0.0
Co1299 Co 0.23306 0.65276 0.1137 0.0
O1300 O 0.25016 0.62085 0.12234 0.0
C1301 C 0.22556 0.57451 0.14838 0.0
O1302 O 0.21126 0.59328 0.13997 0.0
C1303 C 0.27616 0.64986 0.07848 0.0
O1304 O 0.28971 0.6425 0.09823 0.0
O1305 O 0.26064 0.67319 0.12965 0.0
O1306 O 0.28128 0.6476 0.15739 0.0
H1307 H 0.20058 0.74164 0.12969 0.0
H1308 H 0.27309 0.57725 0.11231 0.0
O1309 O 0.24874 0.57863 0.15456 0.0
H1310 H 0.35936 0.60546 0.13753 0.0
H1311 H 0.30892 0.55569 0.21905 0.0
H1312 H 0.27067 0.64052 0.20466 0.0
H1313 H 0.32134 0.62108 0.16057 0.0
H1314 H 0.29065 0.56695 0.17708 0.0
O1315 O 0.25226 0.6538 0.0808 0.0
H1316 H 0.22153 0.701 0.14105 0.0
H1317 H 0.20957 0.67289 0.06596 0.0
H1318 H 0.28892 0.6302 0.24684 0.0
H1319 H 0.3106 0.56095 0.08889 0.0
H1320 H 0.30822 0.58749 0.25424 0.0
H1321 H 0.35411 0.57514 0.10143 0.0
O1322 O 0.23487 0.62634 0.1737 0.0
H1323 H 0.1977 0.58366 0.05732 0.0
H1324 H 0.17623 0.65303 0.11727 0.0
H1325 H 0.14164 0.62721 0.09835 0.0
H1326 H 0.15231 0.59226 0.06811 0.0
H1327 H 0.23169 0.60979 0.07689 0.0
H1328 H 0.18873 0.71333 0.05366 0.0
H1329 H 0.18401 0.748 0.08569 0.0
O1330 O 0.21417 0.65282 0.14688 0.0
C1331 C 0.27768 0.66912 0.14652 0.0
C1332 C 0.20234 0.72661 0.11562 0.0
C1333 C 0.19573 0.71073 0.07294 0.0
N1334 N 0.21629 0.68443 0.10436 0.0
C1335 C 0.21404 0.70351 0.122 0.0
C1336 C 0.20754 0.68788 0.08001 0.0
C1337 C 0.19309 0.73018 0.09092 0.0
C1338 C 0.29199 0.5833 0.11802 0.0
N1339 N 0.29505 0.59998 0.13784 0.0
C1340 C 0.31314 0.5741 0.10463 0.0
C1341 C 0.33754 0.5821 0.11165 0.0
C1342 C 0.34051 0.59912 0.13189 0.0
C1343 C 0.31891 0.60795 0.14483 0.0
C1344 C 0.3007 0.57441 0.21602 0.0
C1345 C 0.27934 0.62204 0.20765 0.0
C1346 C 0.29033 0.58089 0.19231 0.0
N1347 N 0.28004 0.60454 0.18832 0.0
C1348 C 0.28951 0.61624 0.23161 0.0
C1349 C 0.30029 0.59226 0.23576 0.0
C1350 C 0.2169 0.64187 0.16849 0.0
C1351 C 0.19281 0.59887 0.07042 0.0
C1352 C 0.18101 0.6378 0.10419 0.0
C1353 C 0.16135 0.62329 0.09349 0.0
C1354 C 0.16735 0.60369 0.07651 0.0
N1355 N 0.20593 0.63298 0.09809 0.0
C1356 C 0.21196 0.6138 0.08147 0.0
Co1357 Co 0.73107 0.37753 0.15342 0.0
Co1358 Co 0.76257 0.34248 0.10722 0.0
O1359 O 0.74575 0.37335 0.11951 0.0
C1360 C 0.77059 0.41664 0.15019 0.0
O1361 O 0.78502 0.39891 0.13995 0.0
C1362 C 0.71892 0.35018 0.07334 0.0
O1363 O 0.70599 0.35553 0.09411 0.0
O1364 O 0.73525 0.32041 0.12137 0.0
O1365 O 0.71508 0.34293 0.1519 0.0
H1366 H 0.79589 0.2527 0.11339 0.0
H1367 H 0.72252 0.41773 0.1145 0.0
O1368 O 0.74743 0.41184 0.15593 0.0
H1369 H 0.63667 0.38654 0.13754 0.0
H1370 H 0.68793 0.42746 0.22331 0.0
H1371 H 0.72648 0.34492 0.19949 0.0
H1372 H 0.67501 0.36875 0.15837 0.0
H1373 H 0.70575 0.42089 0.18017 0.0
O1374 O 0.7427 0.3451 0.07475 0.0
H1375 H 0.77542 0.29197 0.12944 0.0
H1376 H 0.7845 0.32729 0.057 0.0
H1377 H 0.70871 0.35055 0.24275 0.0
H1378 H 0.68468 0.43625 0.09338 0.0
H1379 H 0.68924 0.39208 0.25489 0.0
H1380 H 0.64138 0.42056 0.10481 0.0
O1381 O 0.76175 0.36251 0.16963 0.0
H1382 H 0.79714 0.41729 0.05804 0.0
H1383 H 0.81944 0.34165 0.10955 0.0
H1384 H 0.85377 0.36928 0.09284 0.0
H1385 H 0.84269 0.40739 0.06685 0.0
H1386 H 0.76341 0.38927 0.07532 0.0
H1387 H 0.80489 0.28832 0.04007 0.0
H1388 H 0.81079 0.25071 0.06839 0.0
O1389 O 0.7821 0.33893 0.13988 0.0
C1390 C 0.71848 0.32265 0.13883 0.0
C1391 C 0.79356 0.269 0.1009 0.0
C1392 C 0.79858 0.28899 0.05974 0.0
N1393 N 0.77909 0.31199 0.09427 0.0
C1394 C 0.78209 0.29133 0.10992 0.0
C1395 C 0.78701 0.31099 0.06942 0.0
C1396 C 0.80188 0.26789 0.07564 0.0
C1397 C 0.70372 0.41101 0.11976 0.0
N1398 N 0.70095 0.39228 0.13772 0.0
C1399 C 0.68238 0.42148 0.10766 0.0
C1400 C 0.65809 0.41264 0.11406 0.0
C1401 C 0.65543 0.39354 0.13241 0.0
C1402 C 0.67721 0.3835 0.1441 0.0
C1403 C 0.69623 0.40923 0.2182 0.0
C1404 C 0.71776 0.36292 0.20454 0.0
C1405 C 0.70633 0.4054 0.19381 0.0
N1406 N 0.7167 0.38239 0.1872 0.0
C1407 C 0.70785 0.36605 0.22911 0.0
C1408 C 0.69697 0.38937 0.23591 0.0
C1409 C 0.77971 0.34776 0.16247 0.0
C1410 C 0.80221 0.4007 0.06928 0.0
C1411 C 0.81448 0.35824 0.09831 0.0
C1412 C 0.834 0.37378 0.08886 0.0
C1413 C 0.82776 0.39515 0.07426 0.0
N1414 N 0.78947 0.3638 0.0933 0.0
C1415 C 0.7832 0.38472 0.07902 0.0
C1416 C 0.18711 0.54762 0.15604 0.0
C1417 C 0.21377 0.54976 0.15462 0.0
C1418 C 0.17565 0.52548 0.16571 0.0
C1419 C 0.19127 0.50498 0.17376 0.0
C1420 C 0.21811 0.50645 0.17096 0.0
C1421 C 0.22908 0.52894 0.16154 0.0
C1422 C 0.14695 0.52458 0.16857 0.0
C1423 C 0.23531 0.48471 0.17894 0.0
C1424 C 0.16824 0.46062 0.2259 0.0
C1425 C 0.16084 0.43916 0.21177 0.0
C1426 C 0.17754 0.4825 0.21364 0.0
C1427 C 0.17975 0.48267 0.18669 0.0
C1428 C 0.17181 0.46127 0.1723 0.0
C1429 C 0.16227 0.43979 0.18502 0.0
C1430 C 0.1855 0.50521 0.22955 0.0
C1431 C 0.17415 0.46077 0.14355 0.0
H1432 H 0.17517 0.56368 0.15073 0.0
H1433 H 0.2497 0.53046 0.16026 0.0
H1434 H 0.1392 0.50679 0.16007 0.0
H1435 H 0.1419 0.52444 0.18915 0.0
H1436 H 0.13745 0.5412 0.15942 0.0
H1437 H 0.25553 0.48803 0.17343 0.0
H1438 H 0.23439 0.48227 0.19997 0.0
H1439 H 0.22876 0.46656 0.17019 0.0
H1440 H 0.16701 0.46024 0.24657 0.0
H1441 H 0.15664 0.42319 0.174 0.0
H1442 H 0.17551 0.52266 0.22284 0.0
H1443 H 0.2063 0.5086 0.22731 0.0
H1444 H 0.18129 0.50248 0.25016 0.0
H1445 H 0.1643 0.4775 0.13508 0.0
H1446 H 0.16597 0.44309 0.13512 0.0
H1447 H 0.19457 0.46206 0.13804 0.0
C1448 C 0.53617 0.17041 0.22532 0.0
C1449 C 0.55627 0.16414 0.20884 0.0
C1450 C 0.51351 0.18092 0.2158 0.0
C1451 C 0.51122 0.18558 0.18928 0.0
C1452 C 0.53151 0.1794 0.17257 0.0
C1453 C 0.55377 0.16852 0.18256 0.0
C1454 C 0.49201 0.18694 0.23408 0.0
C1455 C 0.52976 0.18446 0.14423 0.0
C1456 C 0.44454 0.19043 0.16231 0.0
C1457 C 0.44085 0.21694 0.16179 0.0
C1458 C 0.46751 0.17997 0.17099 0.0
C1459 C 0.48732 0.19647 0.17898 0.0
C1460 C 0.48405 0.22326 0.17779 0.0
C1461 C 0.4607 0.23322 0.16933 0.0
C1462 C 0.47032 0.15127 0.17224 0.0
C1463 C 0.50502 0.24136 0.18584 0.0
H1464 H 0.5381 0.16698 0.24565 0.0
H1465 H 0.56944 0.16396 0.16982 0.0
H1466 H 0.48735 0.20759 0.2332 0.0
H1467 H 0.47456 0.17631 0.22845 0.0
H1468 H 0.49683 0.18194 0.25412 0.0
H1469 H 0.54751 0.179 0.13395 0.0
H1470 H 0.51354 0.17365 0.13593 0.0
H1471 H 0.52601 0.20503 0.14078 0.0
H1472 H 0.42922 0.17773 0.15655 0.0
H1473 H 0.45794 0.25374 0.16881 0.0
H1474 H 0.47346 0.14525 0.19232 0.0
H1475 H 0.48726 0.1451 0.16111 0.0
H1476 H 0.45324 0.14114 0.16475 0.0
H1477 H 0.50919 0.23878 0.20645 0.0
H1478 H 0.49987 0.26166 0.18247 0.0
H1479 H 0.52285 0.23703 0.17523 0.0
C1480 C 0.80857 0.44254 0.16206 0.0
C1481 C 0.78208 0.44082 0.15854 0.0
C1482 C 0.8195 0.46433 0.17301 0.0
C1483 C 0.80355 0.4849 0.18016 0.0
C1484 C 0.77692 0.48368 0.17566 0.0
C1485 C 0.76646 0.46152 0.16505 0.0
C1486 C 0.84795 0.46496 0.17781 0.0
C1487 C 0.75941 0.50552 0.18268 0.0
C1488 C 0.82316 0.53105 0.23208 0.0
C1489 C 0.83081 0.55224 0.21766 0.0
C1490 C 0.81511 0.50856 0.22006 0.0
C1491 C 0.81447 0.50749 0.19305 0.0
C1492 C 0.82294 0.52852 0.17841 0.0
C1493 C 0.83116 0.55063 0.19092 0.0
C1494 C 0.80654 0.48625 0.23621 0.0
C1495 C 0.82234 0.52804 0.14957 0.0
H1496 H 0.82067 0.42645 0.15723 0.0
H1497 H 0.74598 0.46023 0.16221 0.0
H1498 H 0.85649 0.48232 0.16919 0.0
H1499 H 0.85162 0.46585 0.19866 0.0
H1500 H 0.85781 0.4479 0.16994 0.0
H1501 H 0.73937 0.50204 0.17663 0.0
H1502 H 0.75969 0.50846 0.20365 0.0
H1503 H 0.76619 0.52347 0.17369 0.0
H1504 H 0.82305 0.53216 0.25276 0.0
H1505 H 0.83712 0.56694 0.17964 0.0
H1506 H 0.81669 0.46861 0.23032 0.0
H1507 H 0.78582 0.48287 0.23331 0.0
H1508 H 0.81 0.4895 0.25689 0.0
H1509 H 0.83261 0.51102 0.14227 0.0
H1510 H 0.83106 0.54541 0.14105 0.0
H1511 H 0.80227 0.52661 0.14291 0.0
C1512 C 0.55046 0.81492 0.15473 0.0
C1513 C 0.55277 0.7883 0.15292 0.0
C1514 C 0.52844 0.82608 0.16498 0.0
C1515 C 0.50825 0.81019 0.17328 0.0
C1516 C 0.50991 0.78339 0.17024 0.0
C1517 C 0.53226 0.77272 0.16018 0.0
C1518 C 0.52731 0.85474 0.16807 0.0
C1519 C 0.4885 0.76592 0.17855 0.0
C1520 C 0.4643 0.83184 0.22626 0.0
C1521 C 0.44237 0.83863 0.21254 0.0
C1522 C 0.48625 0.82335 0.21358 0.0
C1523 C 0.48604 0.82139 0.18662 0.0
C1524 C 0.46426 0.829 0.17262 0.0
C1525 C 0.44268 0.83771 0.18577 0.0
C1526 C 0.50937 0.81574 0.22907 0.0
C1527 C 0.46337 0.82696 0.14386 0.0
H1528 H 0.56626 0.82708 0.14912 0.0
H1529 H 0.5339 0.75214 0.15862 0.0
H1530 H 0.50933 0.86236 0.15987 0.0
H1531 H 0.5274 0.85964 0.18868 0.0
H1532 H 0.54371 0.86448 0.15876 0.0
H1533 H 0.49198 0.74574 0.17302 0.0
H1534 H 0.48633 0.76683 0.19961 0.0
H1535 H 0.47015 0.77223 0.17004 0.0
H1536 H 0.46417 0.8327 0.24695 0.0
H1537 H 0.42574 0.8429 0.17506 0.0
H1538 H 0.52658 0.8259 0.22201 0.0
H1539 H 0.51294 0.79497 0.22684 0.0
H1540 H 0.50698 0.81998 0.24972 0.0
H1541 H 0.48005 0.83678 0.13524 0.0
H1542 H 0.44563 0.8353 0.13575 0.0
H1543 H 0.46444 0.80658 0.13816 0.0
C1544 C 0.18183 0.44455 0.84258 0.0
C1545 C 0.20856 0.44291 0.84339 0.0
C1546 C 0.16978 0.46668 0.83369 0.0
C1547 C 0.18489 0.48759 0.82574 0.0
C1548 C 0.21179 0.48668 0.82821 0.0
C1549 C 0.22334 0.46424 0.83693 0.0
C1550 C 0.14103 0.46706 0.83128 0.0
C1551 C 0.22846 0.50886 0.82028 0.0
C1552 C 0.16308 0.53142 0.77293 0.0
C1553 C 0.15653 0.5534 0.78666 0.0
C1554 C 0.17119 0.50936 0.78561 0.0
C1555 C 0.17297 0.50949 0.81258 0.0
C1556 C 0.16526 0.5312 0.82661 0.0
C1557 C 0.15699 0.55294 0.81344 0.0
C1558 C 0.17891 0.4863 0.77008 0.0
C1559 C 0.167 0.53196 0.85539 0.0
H1560 H 0.1703 0.42811 0.84765 0.0
H1561 H 0.244 0.46313 0.83783 0.0
H1562 H 0.1331 0.48509 0.83906 0.0
H1563 H 0.13569 0.46613 0.8108 0.0
H1564 H 0.13196 0.45071 0.84133 0.0
H1565 H 0.24877 0.506 0.82574 0.0
H1566 H 0.22747 0.51132 0.79925 0.0
H1567 H 0.22152 0.52683 0.8291 0.0
H1568 H 0.16247 0.53164 0.75223 0.0
H1569 H 0.15185 0.56989 0.82416 0.0
H1570 H 0.16908 0.46896 0.77728 0.0
H1571 H 0.19976 0.48305 0.77205 0.0
H1572 H 0.17439 0.4886 0.74947 0.0
H1573 H 0.1581 0.5147 0.86385 0.0
H1574 H 0.15761 0.54916 0.86352 0.0
H1575 H 0.18738 0.53204 0.86122 0.0
C1576 C 0.55137 0.18139 0.834 0.0
C1577 C 0.55254 0.20804 0.83624 0.0
C1578 C 0.52956 0.16943 0.82417 0.0
C1579 C 0.50841 0.18453 0.81686 0.0
C1580 C 0.50904 0.21134 0.82024 0.0
C1581 C 0.53123 0.22282 0.82974 0.0
C1582 C 0.52959 0.14081 0.82056 0.0
C1583 C 0.48658 0.22798 0.81306 0.0
C1584 C 0.46222 0.16269 0.76591 0.0
C1585 C 0.44119 0.15524 0.78068 0.0
C1586 C 0.48474 0.17121 0.77755 0.0
C1587 C 0.48601 0.17258 0.80451 0.0
C1588 C 0.46524 0.16411 0.81953 0.0
C1589 C 0.44309 0.15535 0.8074 0.0
C1590 C 0.50678 0.17971 0.76097 0.0
C1591 C 0.46591 0.16551 0.84833 0.0
H1592 H 0.5679 0.1699 0.83889 0.0
H1593 H 0.53205 0.24343 0.83163 0.0
H1594 H 0.5124 0.13221 0.82948 0.0
H1595 H 0.52885 0.13629 0.79987 0.0
H1596 H 0.54686 0.13168 0.82885 0.0
H1597 H 0.48952 0.24826 0.81855 0.0
H1598 H 0.48343 0.22708 0.79213 0.0
H1599 H 0.46893 0.2209 0.82243 0.0
H1600 H 0.46088 0.16243 0.74525 0.0
H1601 H 0.42688 0.14961 0.81893 0.0
H1602 H 0.5247 0.17026 0.76717 0.0
H1603 H 0.50961 0.2006 0.76304 0.0
H1604 H 0.50354 0.17536 0.74046 0.0
H1605 H 0.48345 0.15628 0.8558 0.0
H1606 H 0.44902 0.15622 0.85722 0.0
H1607 H 0.4664 0.1858 0.85441 0.0
C1608 C 0.81735 0.54989 0.85087 0.0
C1609 C 0.79063 0.55178 0.851 0.0
C1610 C 0.82943 0.52763 0.84229 0.0
C1611 C 0.81434 0.50689 0.83388 0.0
C1612 C 0.78741 0.50792 0.83602 0.0
C1613 C 0.77585 0.53043 0.84454 0.0
C1614 C 0.8582 0.52709 0.8404 0.0
C1615 C 0.77073 0.48595 0.82757 0.0
C1616 C 0.83596 0.46528 0.77926 0.0
C1617 C 0.84215 0.44258 0.79196 0.0
C1618 C 0.82809 0.48684 0.79291 0.0
C1619 C 0.82624 0.48549 0.81985 0.0
C1620 C 0.83374 0.46308 0.83289 0.0
C1621 C 0.84173 0.44184 0.81874 0.0
C1622 C 0.82058 0.51063 0.7784 0.0
C1623 C 0.83198 0.46105 0.86159 0.0
H1624 H 0.82891 0.56626 0.85607 0.0
H1625 H 0.75518 0.53168 0.84496 0.0
H1626 H 0.86586 0.50863 0.84741 0.0
H1627 H 0.86393 0.52904 0.82009 0.0
H1628 H 0.86718 0.54285 0.85142 0.0
H1629 H 0.75046 0.48864 0.83325 0.0
H1630 H 0.77157 0.48415 0.80647 0.0
H1631 H 0.77772 0.46772 0.83579 0.0
H1632 H 0.83653 0.466 0.75858 0.0
H1633 H 0.84657 0.42432 0.82866 0.0
H1634 H 0.83057 0.52755 0.78633 0.0
H1635 H 0.79976 0.51397 0.78052 0.0
H1636 H 0.82508 0.50919 0.75771 0.0
H1637 H 0.84044 0.47813 0.87084 0.0
H1638 H 0.84177 0.44373 0.86897 0.0
H1639 H 0.8116 0.46018 0.86735 0.0
C1640 C 0.54708 0.83984 0.80263 0.0
C1641 C 0.54975 0.84058 0.77598 0.0
C1642 C 0.52483 0.83034 0.81393 0.0
C1643 C 0.50466 0.82174 0.79819 0.0
C1644 C 0.50672 0.82352 0.7713 0.0
C1645 C 0.52937 0.83281 0.76047 0.0
C1646 C 0.52331 0.82857 0.8427 0.0
C1647 C 0.48532 0.8149 0.75398 0.0
C1648 C 0.45928 0.77211 0.8247 0.0
C1649 C 0.43843 0.78725 0.83184 0.0
C1650 C 0.48113 0.78317 0.81391 0.0
C1651 C 0.48185 0.8099 0.80989 0.0
C1652 C 0.4609 0.82528 0.81718 0.0
C1653 C 0.43948 0.81377 0.82827 0.0
C1654 C 0.50336 0.76626 0.8067 0.0
C1655 C 0.46095 0.85381 0.81287 0.0
H1656 H 0.56276 0.84583 0.81476 0.0
H1657 H 0.53131 0.83348 0.73986 0.0
H1658 H 0.5059 0.83835 0.84975 0.0
H1659 H 0.52189 0.80824 0.84852 0.0
H1660 H 0.54023 0.83714 0.85221 0.0
H1661 H 0.48924 0.81924 0.73359 0.0
H1662 H 0.4825 0.79399 0.75599 0.0
H1663 H 0.46715 0.82427 0.75957 0.0
H1664 H 0.45851 0.7516 0.82747 0.0
H1665 H 0.42328 0.82554 0.83353 0.0
H1666 H 0.52092 0.77277 0.81662 0.0
H1667 H 0.50702 0.76767 0.78588 0.0
H1668 H 0.49994 0.74591 0.81161 0.0
H1669 H 0.47739 0.86266 0.82288 0.0
H1670 H 0.4431 0.86303 0.81969 0.0
H1671 H 0.46324 0.85795 0.79221 0.0
C1672 C 0.14842 0.18468 0.54941 0.0
C1673 C 0.15063 0.21135 0.55077 0.0
C1674 C 0.15608 0.17142 0.52751 0.0
C1675 C 0.16589 0.18526 0.50651 0.0
C1676 C 0.16669 0.21227 0.50719 0.0
C1677 C 0.15913 0.22502 0.52942 0.0
C1678 C 0.15504 0.1426 0.52741 0.0
C1679 C 0.17669 0.22764 0.48491 0.0
C1680 C 0.21571 0.15712 0.46283 0.0
C1681 C 0.2013 0.1522 0.44086 0.0
C1682 C 0.20407 0.16663 0.4849 0.0
C1683 C 0.1775 0.1716 0.48474 0.0
C1684 C 0.16264 0.16542 0.46307 0.0
C1685 C 0.17474 0.15558 0.44135 0.0
C1686 C 0.22044 0.17259 0.5079 0.0
C1687 C 0.13429 0.17065 0.46223 0.0
H1688 H 0.14174 0.174 0.56584 0.0
H1689 H 0.16061 0.24566 0.53031 0.0
H1690 H 0.14608 0.13552 0.50957 0.0
H1691 H 0.17476 0.13484 0.52807 0.0
H1692 H 0.14424 0.13492 0.54398 0.0
H1693 H 0.17382 0.24849 0.4876 0.0
H1694 H 0.19743 0.22399 0.4825 0.0
H1695 H 0.16709 0.22173 0.46698 0.0
H1696 H 0.23623 0.15428 0.46252 0.0
H1697 H 0.16356 0.15186 0.42432 0.0
H1698 H 0.212 0.16404 0.52536 0.0
H1699 H 0.2212 0.19357 0.51084 0.0
H1700 H 0.24028 0.1654 0.50573 0.0
H1701 H 0.12481 0.16329 0.47969 0.0
H1702 H 0.12505 0.16191 0.44525 0.0
H1703 H 0.13102 0.19158 0.46161 0.0
C1704 C 0.81166 0.15788 0.54893 0.0
C1705 C 0.78534 0.15419 0.55228 0.0
C1706 C 0.82133 0.16741 0.52589 0.0
C1707 C 0.80427 0.17303 0.50573 0.0
C1708 C 0.77785 0.16804 0.50852 0.0
C1709 C 0.76866 0.15878 0.53185 0.0
C1710 C 0.84962 0.17263 0.52358 0.0
C1711 C 0.75916 0.17347 0.48722 0.0
C1712 C 0.82155 0.22438 0.45795 0.0
C1713 C 0.82942 0.20976 0.43699 0.0
C1714 C 0.81383 0.21261 0.48069 0.0
C1715 C 0.81376 0.18563 0.4823 0.0
C1716 C 0.82206 0.17077 0.46135 0.0
C1717 C 0.82995 0.18305 0.43895 0.0
C1718 C 0.80538 0.22904 0.50285 0.0
C1719 C 0.82201 0.14194 0.46239 0.0
H1720 H 0.82465 0.15438 0.56466 0.0
H1721 H 0.74832 0.15576 0.5343 0.0
H1722 H 0.85737 0.16372 0.506 0.0
H1723 H 0.85286 0.19351 0.52201 0.0
H1724 H 0.86052 0.16536 0.54027 0.0
H1725 H 0.73961 0.16657 0.49173 0.0
H1726 H 0.75828 0.19434 0.48367 0.0
H1727 H 0.76563 0.16428 0.46926 0.0
H1728 H 0.82126 0.24504 0.45655 0.0
H1729 H 0.83597 0.17164 0.42276 0.0
H1730 H 0.81662 0.22423 0.52016 0.0
H1731 H 0.78502 0.2252 0.50728 0.0
H1732 H 0.80763 0.24976 0.49885 0.0
H1733 H 0.83336 0.1352 0.47896 0.0
H1734 H 0.82993 0.13323 0.44474 0.0
H1735 H 0.80219 0.13492 0.46508 0.0
C1736 C 0.81314 0.83956 0.44392 0.0
C1737 C 0.7865 0.8423 0.44353 0.0
C1738 C 0.82542 0.82869 0.46503 0.0
C1739 C 0.81065 0.82073 0.48618 0.0
C1740 C 0.78399 0.82514 0.4866 0.0
C1741 C 0.77219 0.8358 0.46516 0.0
C1742 C 0.8539 0.82422 0.46399 0.0
C1743 C 0.7677 0.81727 0.50908 0.0
C1744 C 0.83005 0.76459 0.52697 0.0
C1745 C 0.83808 0.77686 0.54933 0.0
C1746 C 0.8223 0.77877 0.50568 0.0
C1747 C 0.82248 0.80578 0.50698 0.0
C1748 C 0.83184 0.81826 0.52898 0.0
C1749 C 0.83965 0.80361 0.54991 0.0
C1750 C 0.81274 0.76485 0.48229 0.0
C1751 C 0.83229 0.84703 0.53095 0.0
H1752 H 0.82428 0.84455 0.42719 0.0
H1753 H 0.75161 0.83816 0.46497 0.0
H1754 H 0.86312 0.83032 0.48205 0.0
H1755 H 0.85767 0.80349 0.46165 0.0
H1756 H 0.86301 0.83455 0.44784 0.0
H1757 H 0.74772 0.82419 0.50734 0.0
H1758 H 0.76736 0.79613 0.51055 0.0
H1759 H 0.77592 0.82475 0.52712 0.0
H1760 H 0.82906 0.74391 0.52634 0.0
H1761 H 0.84604 0.81323 0.56709 0.0
H1762 H 0.82238 0.7722 0.4649 0.0
H1763 H 0.79196 0.76831 0.47995 0.0
H1764 H 0.81597 0.74392 0.48351 0.0
H1765 H 0.84118 0.85555 0.51371 0.0
H1766 H 0.84287 0.85371 0.54809 0.0
H1767 H 0.81242 0.85433 0.53207 0.0
C1768 C 0.15656 0.7716 0.46336 0.0
C1769 C 0.15 0.78613 0.44188 0.0
C1770 C 0.16535 0.78342 0.48564 0.0
C1771 C 0.16779 0.81033 0.48626 0.0
C1772 C 0.15986 0.82518 0.46516 0.0
C1773 C 0.1509 0.81287 0.44319 0.0
C1774 C 0.17328 0.76702 0.50802 0.0
C1775 C 0.16225 0.85392 0.46521 0.0
C1776 C 0.17927 0.83922 0.55135 0.0
C1777 C 0.20605 0.83989 0.55208 0.0
C1778 C 0.16638 0.8305 0.52962 0.0
C1779 C 0.18068 0.82258 0.50815 0.0
C1780 C 0.20765 0.82459 0.50826 0.0
C1781 C 0.22004 0.83314 0.53032 0.0
C1782 C 0.13761 0.82852 0.53014 0.0
C1783 C 0.22347 0.81663 0.48548 0.0
H1784 H 0.15564 0.75093 0.4625 0.0
H1785 H 0.14578 0.8242 0.42664 0.0
H1786 H 0.19429 0.76821 0.51059 0.0
H1787 H 0.16431 0.77407 0.52587 0.0
H1788 H 0.16798 0.74666 0.50533 0.0
H1789 H 0.15251 0.86279 0.44856 0.0
H1790 H 0.1541 0.86206 0.48298 0.0
H1791 H 0.18274 0.85929 0.46462 0.0
H1792 H 0.16834 0.84447 0.56813 0.0
H1793 H 0.24074 0.83387 0.53074 0.0
H1794 H 0.13195 0.8081 0.53036 0.0
H1795 H 0.12923 0.83719 0.51272 0.0
H1796 H 0.12923 0.83799 0.54717 0.0
H1797 H 0.22167 0.79572 0.48253 0.0
H1798 H 0.24402 0.82134 0.48791 0.0
H1799 H 0.21637 0.82613 0.46792 0.0
C1800 C 0.68019 0.95616 0.7321 0.0
C1801 C 0.67256 0.93628 0.71591 0.0
C1802 C 0.69084 0.97859 0.72209 0.0
C1803 C 0.6942 0.9809 0.69536 0.0
C1804 C 0.68677 0.96078 0.67898 0.0
C1805 C 0.67586 0.93876 0.68945 0.0
C1806 C 0.69825 -9e-05 0.74005 0.0
C1807 C 0.69035 0.96251 0.6504 0.0
C1808 C 0.69858 0.0472 0.66717 0.0
C1809 C 0.72507 0.05037 0.66481 0.0
C1810 C 0.68828 0.02462 0.67707 0.0
C1811 C 0.70489 0.00465 0.68443 0.0
C1812 C 0.73162 0.00741 0.68144 0.0
C1813 C 0.74143 0.03037 0.67178 0.0
C1814 C 0.65968 0.02237 0.68019 0.0
C1815 C 0.74981 0.98627 0.68875 0.0
H1816 H 0.67761 0.9543 0.75256 0.0
H1817 H 0.67019 0.92333 0.67686 0.0
H1818 H 0.71885 0.00436 0.73791 0.0
H1819 H 0.68748 0.0175 0.73517 0.0
H1820 H 0.69444 0.99504 0.76034 0.0
H1821 H 0.68425 0.94481 0.64042 0.0
H1822 H 0.67918 0.97877 0.64269 0.0
H1823 H 0.71073 0.96617 0.64586 0.0
H1824 H 0.68582 0.06264 0.66193 0.0
H1825 H 0.76192 0.03274 0.66993 0.0
H1826 H 0.6549 0.01932 0.70061 0.0
H1827 H 0.65248 0.00558 0.66948 0.0
H1828 H 0.64942 0.03965 0.67335 0.0
H1829 H 0.74817 0.98221 0.70947 0.0
H1830 H 0.77 0.99114 0.68439 0.0
H1831 H 0.74475 0.96846 0.67844 0.0
C1832 C 0.96105 0.71422 0.65662 0.0
C1833 C 0.94024 0.69854 0.65062 0.0
C1834 C 0.98355 0.70381 0.66654 0.0
C1835 C 0.985 0.67716 0.67086 0.0
C1836 C 0.96439 0.66113 0.66399 0.0
C1837 C 0.94223 0.67203 0.65374 0.0
C1838 C 0.00541 0.72141 0.67326 0.0
C1839 C 0.96526 0.63267 0.66858 0.0
C1840 C 0.05113 0.65063 0.68193 0.0
C1841 C 0.05272 0.65145 0.70866 0.0
C1842 C 0.02884 0.65819 0.6693 0.0
C1843 C 0.00764 0.66642 0.68381 0.0
C1844 C 0.00866 0.66605 0.71082 0.0
C1845 C 0.03131 0.65869 0.72296 0.0
C1846 C 0.02842 0.65853 0.64046 0.0
C1847 C 0.98617 0.67437 0.72687 0.0
H1848 H 0.95956 0.73472 0.65405 0.0
H1849 H 0.92608 0.65988 0.64926 0.0
H1850 H 0.00841 0.72139 0.69423 0.0
H1851 H 0.02336 0.71457 0.66431 0.0
H1852 H 0.00189 0.74137 0.66699 0.0
H1853 H 0.94846 0.62268 0.66033 0.0
H1854 H 0.98288 0.62437 0.66025 0.0
H1855 H 0.96578 0.62887 0.68943 0.0
H1856 H 0.06764 0.64501 0.67077 0.0
H1857 H 0.03241 0.65913 0.74363 0.0
H1858 H 0.02725 0.67856 0.63363 0.0
H1859 H 0.01129 0.6484 0.63318 0.0
H1860 H 0.04572 0.64956 0.63206 0.0
H1861 H 0.98262 0.69505 0.72397 0.0
H1862 H 0.98936 0.67093 0.74756 0.0
H1863 H 0.96865 0.66405 0.72089 0.0
C1864 C 0.33691 0.05315 0.67761 0.0
C1865 C 0.33903 0.05364 0.70431 0.0
C1866 C 0.328 0.03132 0.665 0.0
C1867 C 0.32136 0.00954 0.6795 0.0
C1868 C 0.32493 0.00942 0.70629 0.0
C1869 C 0.33364 0.03157 0.71842 0.0
C1870 C 0.32434 0.03208 0.63641 0.0
C1871 C 0.31839 0.98631 0.72229 0.0
C1872 C 0.26977 0.96409 0.65806 0.0
C1873 C 0.28423 0.94292 0.65043 0.0
C1874 C 0.28173 0.98649 0.66634 0.0
C1875 C 0.30873 0.98756 0.66713 0.0
C1876 C 0.32342 0.9668 0.65813 0.0
C1877 C 0.31096 0.94469 0.64974 0.0
C1878 C 0.26547 0.00851 0.67547 0.0
C1879 C 0.35226 0.96734 0.65874 0.0
H1880 H 0.34111 0.07017 0.66659 0.0
H1881 H 0.3355 0.03181 0.73904 0.0
H1882 H 0.33273 0.01486 0.62736 0.0
H1883 H 0.30362 0.03209 0.63195 0.0
H1884 H 0.3331 0.04932 0.62767 0.0
H1885 H 0.32433 0.98861 0.74253 0.0
H1886 H 0.29747 0.98299 0.72177 0.0
H1887 H 0.32775 0.96901 0.71441 0.0
H1888 H 0.2491 0.96288 0.65836 0.0
H1889 H 0.32224 0.92839 0.64376 0.0
H1890 H 0.27165 0.02656 0.66625 0.0
H1891 H 0.2679 0.01092 0.69638 0.0
H1892 H 0.24486 0.0055 0.67141 0.0
H1893 H 0.35958 0.98534 0.65031 0.0
H1894 H 0.36079 0.95095 0.6483 0.0
H1895 H 0.35888 0.96665 0.67886 0.0
C1896 C 0.05206 0.32143 0.65028 0.0
C1897 C 0.05182 0.2947 0.64849 0.0
C1898 C 0.03054 0.33473 0.65897 0.0
C1899 C 0.00836 0.3209 0.66571 0.0
C1900 C 0.00743 0.29412 0.66217 0.0
C1901 C 0.02927 0.28129 0.65369 0.0
C1902 C 0.03216 0.3633 0.66252 0.0
C1903 C 0.98388 0.2788 0.66877 0.0
C1904 C 0.96455 0.34208 0.71869 0.0
C1905 C 0.94302 0.34994 0.70492 0.0
C1906 C 0.98666 0.33406 0.70604 0.0
C1907 C 0.98705 0.33376 0.67901 0.0
C1908 C 0.96602 0.34327 0.66502 0.0
C1909 C 0.9442 0.35138 0.67819 0.0
C1910 C 0.00897 0.32442 0.72159 0.0
C1911 C 0.96585 0.34327 0.63619 0.0
H1912 H 0.06945 0.33191 0.64619 0.0
H1913 H 0.02894 0.26066 0.65201 0.0
H1914 H 0.01477 0.3728 0.65504 0.0
H1915 H 0.0334 0.36773 0.6832 0.0
H1916 H 0.04916 0.37157 0.65288 0.0
H1917 H 0.98544 0.25858 0.66252 0.0
H1918 H 0.98088 0.2791 0.68975 0.0
H1919 H 0.96672 0.28738 0.65978 0.0
H1920 H 0.96382 0.34126 0.73937 0.0
H1921 H 0.92762 0.35758 0.66744 0.0
H1922 H 0.02701 0.33338 0.71499 0.0
H1923 H 0.01094 0.30349 0.71894 0.0
H1924 H 0.00662 0.32836 0.7423 0.0
H1925 H 0.98409 0.35091 0.62857 0.0
H1926 H 0.94982 0.35472 0.62833 0.0
H1927 H 0.96391 0.32336 0.6292 0.0
C1928 C 0.71614 0.96255 0.33317 0.0
C1929 C 0.70301 0.94009 0.33935 0.0
C1930 C 0.70328 0.98331 0.32237 0.0
C1931 C 0.67677 0.98135 0.31745 0.0
C1932 C 0.66319 0.95917 0.32466 0.0
C1933 C 0.6765 0.93877 0.3357 0.0
C1934 C 0.71829 0.00691 0.31526 0.0
C1935 C 0.63494 0.95644 0.31955 0.0
C1936 C 0.64541 0.04461 0.3035 0.0
C1937 C 0.64778 0.0458 0.27684 0.0
C1938 C 0.65341 0.02301 0.31702 0.0
C1939 C 0.66379 0.00213 0.30345 0.0
C1940 C 0.66436 0.0024 0.27643 0.0
C1941 C 0.65638 0.02434 0.26339 0.0
C1942 C 0.65241 0.02329 0.34584 0.0
C1943 C 0.67495 0.9802 0.26136 0.0
H1944 H 0.73661 0.96365 0.33614 0.0
H1945 H 0.6663 0.92136 0.34034 0.0
H1946 H 0.71827 0.00932 0.29421 0.0
H1947 H 0.70922 0.02414 0.32361 0.0
H1948 H 0.73843 0.00597 0.32189 0.0
H1949 H 0.62672 0.93928 0.32894 0.0
H1950 H 0.62445 0.97357 0.32629 0.0
H1951 H 0.63168 0.95487 0.29867 0.0
H1952 H 0.63846 0.06104 0.31402 0.0
H1953 H 0.65797 0.02505 0.24276 0.0
H1954 H 0.67208 0.02519 0.35353 0.0
H1955 H 0.64444 0.00511 0.35324 0.0
H1956 H 0.64074 0.03938 0.35326 0.0
H1957 H 0.69589 0.97894 0.26441 0.0
H1958 H 0.67131 0.9822 0.24055 0.0
H1959 H 0.66645 0.96198 0.26804 0.0
C1960 C 0.95986 0.6598 0.27178 0.0
C1961 C 0.93917 0.65324 0.28743 0.0
C1962 C 0.98254 0.66918 0.28235 0.0
C1963 C 0.98437 0.67226 0.30914 0.0
C1964 C 0.96397 0.66466 0.32511 0.0
C1965 C 0.9416 0.65507 0.31404 0.0
C1966 C 0.00416 0.67675 0.26479 0.0
C1967 C 0.96528 0.66782 0.35375 0.0
C1968 C 0.0505 0.6827 0.33612 0.0
C1969 C 0.05171 0.70945 0.33686 0.0
C1970 C 0.02841 0.67022 0.3277 0.0
C1971 C 0.00704 0.6849 0.3202 0.0
C1972 C 0.00775 0.71186 0.322 0.0
C1973 C 0.03019 0.72385 0.3302 0.0
C1974 C 0.02832 0.64143 0.32582 0.0
C1975 C 0.98509 0.72807 0.31448 0.0
H1976 H 0.95811 0.65822 0.25121 0.0
H1977 H 0.92565 0.65002 0.32624 0.0
H1978 H 0.00702 0.69773 0.26564 0.0
H1979 H 0.02224 0.66765 0.27106 0.0
H1980 H 0.00042 0.67128 0.24464 0.0
H1981 H 0.94863 0.65905 0.36356 0.0
H1982 H 0.98302 0.65909 0.36135 0.0
H1983 H 0.96585 0.68844 0.35857 0.0
H1984 H 0.06712 0.67146 0.34122 0.0
H1985 H 0.03102 0.74453 0.33094 0.0
H1986 H 0.02697 0.63566 0.30548 0.0
H1987 H 0.0114 0.63343 0.33576 0.0
H1988 H 0.04582 0.63278 0.33413 0.0
H1989 H 0.98134 0.72592 0.29374 0.0
H1990 H 0.98818 0.74864 0.31866 0.0
H1991 H 0.96772 0.72159 0.32475 0.0
C1992 C 0.34384 0.94516 0.31851 0.0
C1993 C 0.34534 0.9437 0.29181 0.0
C1994 C 0.33443 0.96714 0.33048 0.0
C1995 C 0.32664 0.98809 0.31533 0.0
C1996 C 0.32989 0.9874 0.28851 0.0
C1997 C 0.33913 0.96512 0.27704 0.0
C1998 C 0.33123 0.96727 0.35914 0.0
C1999 C 0.32217 0.0096 0.27177 0.0
C2000 C 0.27228 0.03085 0.33544 0.0
C2001 C 0.28533 0.05317 0.34229 0.0
C2002 C 0.28566 0.00901 0.32787 0.0
C2003 C 0.31268 0.00966 0.32699 0.0
C2004 C 0.326 0.03167 0.33516 0.0
C2005 C 0.31212 0.0532 0.34284 0.0
C2006 C 0.27084 0.98566 0.31961 0.0
C2007 C 0.3548 0.033 0.33443 0.0
H2008 H 0.3487 0.92866 0.33004 0.0
H2009 H 0.34057 0.96416 0.2564 0.0
H2010 H 0.33837 0.98543 0.36739 0.0
H2011 H 0.31063 0.96582 0.36391 0.0
H2012 H 0.3414 0.9511 0.36837 0.0
H2013 H 0.32835 0.007 0.25164 0.0
H2014 H 0.30108 0.01171 0.27209 0.0
H2015 H 0.33047 0.02765 0.27914 0.0
H2016 H 0.25157 0.03067 0.33524 0.0
H2017 H 0.32233 0.07039 0.34822 0.0
H2018 H 0.27811 0.96842 0.32956 0.0
H2019 H 0.27348 0.98257 0.29881 0.0
H2020 H 0.25007 0.98751 0.32354 0.0
H2021 H 0.36331 0.01573 0.34328 0.0
H2022 H 0.36227 0.05017 0.34441 0.0
H2023 H 0.36131 0.03362 0.31427 0.0
C2024 C 0.02756 0.33674 0.27295 0.0
C2025 C 0.04885 0.34402 0.28742 0.0
C2026 C 0.00544 0.32756 0.28484 0.0
C2027 C 0.00479 0.32545 0.31178 0.0
C2028 C 0.02573 0.33395 0.32656 0.0
C2029 C 0.04751 0.34329 0.31417 0.0
C2030 C 0.98324 0.31902 0.26851 0.0
C2031 C 0.02568 0.33188 0.35532 0.0
C2032 C 0.9397 0.31383 0.34083 0.0
C2033 C 0.93917 0.28706 0.34194 0.0
C2034 C 0.96135 0.32676 0.33191 0.0
C2035 C 0.98295 0.31253 0.32421 0.0
C2036 C 0.98307 0.28561 0.32669 0.0
C2037 C 0.96108 0.27316 0.33544 0.0
C2038 C 0.96059 0.35548 0.32944 0.0
C2039 C 0.00599 0.26986 0.319 0.0
H2040 H 0.02843 0.33748 0.25228 0.0
H2041 H 0.06391 0.34893 0.32548 0.0
H2042 H 0.9809 0.29802 0.27011 0.0
H2043 H 0.96525 0.32792 0.27531 0.0
H2044 H 0.98595 0.32395 0.24806 0.0
H2045 H 0.04228 0.34177 0.36409 0.0
H2046 H 0.00786 0.34008 0.36334 0.0
H2047 H 0.02629 0.31146 0.36093 0.0
H2048 H 0.92282 0.3247 0.34587 0.0
H2049 H 0.96083 0.25248 0.33648 0.0
H2050 H 0.96043 0.3608 0.30892 0.0
H2051 H 0.97789 0.36416 0.33805 0.0
H2052 H 0.94343 0.36386 0.33869 0.0
H2053 H 0.00891 0.27129 0.29806 0.0
H2054 H 0.00374 0.24938 0.32409 0.0
H2055 H 0.02349 0.27729 0.32835 0.0
C2056 C 0.73251 0.6789 0.95744 0.0
C2057 C 0.71776 0.67107 0.93656 0.0
C2058 C 0.72085 0.68844 0.97952 0.0
C2059 C 0.69391 0.69046 0.98045 0.0
C2060 C 0.67892 0.68236 0.95953 0.0
C2061 C 0.69105 0.67257 0.93784 0.0
C2062 C 0.73736 0.69659 0.00173 0.0
C2063 C 0.65014 0.6845 0.95986 0.0
C2064 C 0.66425 0.6962 0.04593 0.0
C2065 C 0.66195 0.72277 0.04836 0.0
C2066 C 0.67413 0.68533 0.02363 0.0
C2067 C 0.6815 0.70145 0.00326 0.0
C2068 C 0.67813 0.72818 0.00514 0.0
C2069 C 0.6685 0.73858 0.0278 0.0
C2070 C 0.67766 0.65672 0.02227 0.0
C2071 C 0.68541 0.74585 0.98352 0.0
H2072 H 0.75316 0.67762 0.95652 0.0
H2073 H 0.67957 0.66663 0.92166 0.0
H2074 H 0.73472 0.71728 0.00544 0.0
H2075 H 0.73152 0.68624 0.01928 0.0
H2076 H 0.75797 0.69294 -0.00177 0.0
H2077 H 0.64128 0.67688 0.94215 0.0
H2078 H 0.64222 0.67398 0.97645 0.0
H2079 H 0.6445 0.70481 0.96203 0.0
H2080 H 0.65921 0.68389 0.0618 0.0
H2081 H 0.66655 0.75912 0.02956 0.0
H2082 H 0.69832 0.65217 0.02095 0.0
H2083 H 0.66839 0.64897 0.00488 0.0
H2084 H 0.66964 0.6468 0.03923 0.0
H2085 H 0.70636 0.74511 0.98044 0.0
H2086 H 0.67988 0.76597 0.98737 0.0
H2087 H 0.67616 0.73959 0.96552 0.0
C2088 C 0.31556 0.66179 0.05464 0.0
C2089 C 0.28913 0.6574 0.05472 0.0
C2090 C 0.3276 0.67244 0.03326 0.0
C2091 C 0.31285 0.6785 0.01148 0.0
C2092 C 0.2864 0.67289 0.011 0.0
C2093 C 0.27482 0.66251 0.03272 0.0
C2094 C 0.35583 0.6783 0.03443 0.0
C2095 C 0.27016 0.67872 0.98787 0.0
C2096 C 0.33174 0.73121 0.96597 0.0
C2097 C 0.34062 0.71714 0.94503 0.0
C2098 C 0.32378 0.71886 0.98832 0.0
C2099 C 0.32461 0.69186 0.98956 0.0
C2100 C 0.33477 0.67765 0.969 0.0
C2101 C 0.34277 0.69049 0.94698 0.0
C2102 C 0.31336 0.73461 0.01012 0.0
C2103 C 0.33591 0.64883 0.9697 0.0
H2104 H 0.3267 0.65795 0.07167 0.0
H2105 H 0.25441 0.65896 0.03267 0.0
H2106 H 0.36573 0.67046 0.01743 0.0
H2107 H 0.35871 0.69929 0.03424 0.0
H2108 H 0.36495 0.6704 0.05188 0.0
H2109 H 0.25026 0.67166 0.99002 0.0
H2110 H 0.26956 0.69966 0.98467 0.0
H2111 H 0.27864 0.66992 0.97056 0.0
H2112 H 0.33025 0.75182 0.96464 0.0
H2113 H 0.34981 0.67948 0.93092 0.0
H2114 H 0.32271 0.72909 0.02831 0.0
H2115 H 0.2926 0.73089 0.01228 0.0
H2116 H 0.31618 0.75542 0.00705 0.0
H2117 H 0.34497 0.64218 0.98765 0.0
H2118 H 0.34668 0.64084 0.95326 0.0
H2119 H 0.31622 0.64097 0.96929 0.0
C2120 C 0.31291 0.33548 0.94095 0.0
C2121 C 0.28618 0.33742 0.94074 0.0
C2122 C 0.32575 0.32587 0.96232 0.0
C2123 C 0.31148 0.31836 0.98395 0.0
C2124 C 0.28462 0.32145 0.98431 0.0
C2125 C 0.27225 0.33085 0.96259 0.0
C2126 C 0.35441 0.32267 0.96131 0.0
C2127 C 0.26886 0.31398 0.0073 0.0
C2128 C 0.33438 0.26732 0.02933 0.0
C2129 C 0.34151 0.282 0.05052 0.0
C2130 C 0.32583 0.27904 0.00689 0.0
C2131 C 0.32428 0.306 0.00583 0.0
C2132 C 0.33288 0.32095 0.02658 0.0
C2133 C 0.34153 0.30873 0.04869 0.0
C2134 C 0.31718 0.26256 0.98486 0.0
C2135 C 0.33149 0.34976 0.02603 0.0
H2136 H 0.32377 0.3405 0.92405 0.0
H2137 H 0.2516 0.33251 0.96253 0.0
H2138 H 0.36345 0.33123 0.97845 0.0
H2139 H 0.35922 0.30204 0.96131 0.0
H2140 H 0.36287 0.33156 0.944 0.0
H2141 H 0.2484 0.31913 0.00506 0.0
H2142 H 0.27022 0.29306 0.0104 0.0
H2143 H 0.27637 0.32345 0.02471 0.0
H2144 H 0.33459 0.24665 0.03057 0.0
H2145 H 0.34724 0.32022 0.06495 0.0
H2146 H 0.32605 0.26915 0.96678 0.0
H2147 H 0.29617 0.26422 0.98258 0.0
H2148 H 0.32202 0.2421 0.98776 0.0
H2149 H 0.33989 0.3573 0.00811 0.0
H2150 H 0.34156 0.35857 0.0425 0.0
H2151 H 0.31119 0.35584 0.02654 0.0
C2152 C 0.71873 0.33938 0.02705 0.0
C2153 C 0.70521 0.34617 0.04911 0.0
C2154 C 0.70583 0.33133 0.00508 0.0
C2155 C 0.67883 0.33003 0.0053 0.0
C2156 C 0.66502 0.33863 0.02684 0.0
C2157 C 0.67842 0.34668 0.04855 0.0
C2158 C 0.72119 0.32261 0.98227 0.0
C2159 C 0.63621 0.33769 0.02763 0.0
C2160 C 0.64925 0.3171 0.94075 0.0
C2161 C 0.64835 0.29032 0.94086 0.0
C2162 C 0.65783 0.33058 0.96222 0.0
C2163 C 0.66549 0.31688 0.98417 0.0
C2164 C 0.66285 0.28998 0.985 0.0
C2165 C 0.65433 0.27701 0.96327 0.0
C2166 C 0.66026 0.35928 0.96076 0.0
C2167 C 0.67053 0.27475 0.00827 0.0
H2168 H 0.73944 0.33927 0.02726 0.0
H2169 H 0.66783 0.35216 0.06548 0.0
H2170 H 0.71924 0.30162 0.98003 0.0
H2171 H 0.71385 0.33159 0.96454 0.0
H2172 H 0.74181 0.32726 0.98421 0.0
H2173 H 0.62835 0.34875 0.04394 0.0
H2174 H 0.62794 0.34522 0.00964 0.0
H2175 H 0.6299 0.31755 0.02957 0.0
H2176 H 0.64449 0.32752 0.92351 0.0
H2177 H 0.65335 0.25632 0.96355 0.0
H2178 H 0.68072 0.36451 0.95896 0.0
H2179 H 0.65293 0.36835 0.97845 0.0
H2180 H 0.64982 0.3673 0.94412 0.0
H2181 H 0.69154 0.27589 0.01088 0.0
H2182 H 0.66506 0.25431 0.00666 0.0
H2183 H 0.66153 0.28281 0.02567 0.0
C2184 C 0.16703 0.30013 0.30799 0.0
C2185 C 0.14296 0.30309 0.29677 0.0
C2186 C 0.1744 0.27669 0.31855 0.0
C2187 C 0.15683 0.2561 0.31877 0.0
C2188 C 0.1317 0.25973 0.30956 0.0
C2189 C 0.12518 0.28309 0.2982 0.0
C2190 C 0.20157 0.27346 0.32777 0.0
C2191 C 0.11211 0.2386 0.31051 0.0
C2192 C 0.18831 0.19125 0.31498 0.0
C2193 C 0.19115 0.18538 0.34085 0.0
C2194 C 0.17607 0.21381 0.30742 0.0
C2195 C 0.16578 0.2303 0.32626 0.0
C2196 C 0.16672 0.22324 0.35233 0.0
C2197 C 0.17991 0.20105 0.35938 0.0
C2198 C 0.17596 0.22092 0.27946 0.0
C2199 C 0.15506 0.23978 0.37285 0.0
H2200 H 0.18075 0.31555 0.30704 0.0
H2201 H 0.10639 0.28549 0.28983 0.0
H2202 H 0.2018 0.26617 0.34764 0.0
H2203 H 0.21151 0.25916 0.31568 0.0
H2204 H 0.21253 0.29162 0.3271 0.0
H2205 H 0.09247 0.24587 0.30707 0.0
H2206 H 0.11655 0.22417 0.29566 0.0
H2207 H 0.11259 0.2288 0.32929 0.0
H2208 H 0.19731 0.1792 0.30076 0.0
H2209 H 0.1821 0.1963 0.37943 0.0
H2210 H 0.18786 0.23823 0.27651 0.0
H2211 H 0.15632 0.22559 0.2731 0.0
H2212 H 0.18354 0.20538 0.26717 0.0
H2213 H 0.16727 0.25681 0.37602 0.0
H2214 H 0.15323 0.22939 0.39127 0.0
H2215 H 0.13591 0.24667 0.36693 0.0
C2216 C 0.78167 0.21249 0.32468 0.0
C2217 C 0.8034 0.20085 0.33496 0.0
C2218 C 0.76176 0.19787 0.31463 0.0
C2219 C 0.76331 0.1709 0.31563 0.0
C2220 C 0.78504 0.15898 0.32649 0.0
C2221 C 0.80517 0.17419 0.33565 0.0
C2222 C 0.73926 0.21135 0.30253 0.0
C2223 C 0.78691 0.1303 0.32855 0.0
C2224 C 0.69774 0.14251 0.30642 0.0
C2225 C 0.6981 0.13726 0.2802 0.0
C2226 C 0.71979 0.1512 0.31889 0.0
C2227 C 0.74228 0.15556 0.30452 0.0
C2228 C 0.74309 0.14889 0.27835 0.0
C2229 C 0.72102 0.13944 0.26658 0.0
C2230 C 0.71848 0.15732 0.34702 0.0
C2231 C 0.76644 0.15395 0.26217 0.0
H2232 H 0.78056 0.23315 0.32389 0.0
H2233 H 0.82202 0.16532 0.3438 0.0
H2234 H 0.73689 0.2049 0.28248 0.0
H2235 H 0.72144 0.20647 0.31289 0.0
H2236 H 0.74149 0.23245 0.30259 0.0
H2237 H 0.8046 0.1241 0.33848 0.0
H2238 H 0.77015 0.12273 0.33909 0.0
H2239 H 0.78658 0.1216 0.30924 0.0
H2240 H 0.68004 0.14053 0.317 0.0
H2241 H 0.72127 0.13552 0.24626 0.0
H2242 H 0.71725 0.17831 0.34963 0.0
H2243 H 0.73598 0.15065 0.35695 0.0
H2244 H 0.70154 0.14846 0.35625 0.0
H2245 H 0.7687 0.17486 0.25949 0.0
H2246 H 0.76503 0.14487 0.24305 0.0
H2247 H 0.78393 0.14688 0.27177 0.0
C2248 C 0.81906 0.69409 0.31022 0.0
C2249 C 0.84351 0.69064 0.30003 0.0
C2250 C 0.81199 0.71747 0.3211 0.0
C2251 C 0.83018 0.73745 0.32265 0.0
C2252 C 0.85557 0.73325 0.3144 0.0
C2253 C 0.86182 0.71 0.30269 0.0
C2254 C 0.78455 0.72135 0.3292 0.0
C2255 C 0.87576 0.75369 0.31676 0.0
C2256 C 0.80071 0.80318 0.31899 0.0
C2257 C 0.79672 0.80849 0.34484 0.0
C2258 C 0.81276 0.78053 0.31146 0.0
C2259 C 0.82171 0.76333 0.33035 0.0
C2260 C 0.8197 0.76977 0.35652 0.0
C2261 C 0.8067 0.79211 0.36349 0.0
C2262 C 0.81403 0.77409 0.28337 0.0
C2263 C 0.82996 0.75246 0.37715 0.0
H2264 H 0.80491 0.67917 0.30815 0.0
H2265 H 0.88087 0.70717 0.29506 0.0
H2266 H 0.78367 0.72814 0.34923 0.0
H2267 H 0.7756 0.73625 0.31707 0.0
H2268 H 0.77307 0.70357 0.32759 0.0
H2269 H 0.89529 0.74585 0.31405 0.0
H2270 H 0.8725 0.7686 0.30208 0.0
H2271 H 0.87472 0.76307 0.33574 0.0
H2272 H 0.79273 0.81578 0.30465 0.0
H2273 H 0.80368 0.79643 0.38353 0.0
H2274 H 0.8018 0.75722 0.27942 0.0
H2275 H 0.83382 0.769 0.27782 0.0
H2276 H 0.8075 0.79015 0.27113 0.0
H2277 H 0.81714 0.73574 0.37939 0.0
H2278 H 0.83127 0.76239 0.39585 0.0
H2279 H 0.84916 0.74515 0.37191 0.0
C2280 C 0.30352 0.81904 0.30839 0.0
C2281 C 0.30705 0.84465 0.30163 0.0
C2282 C 0.28049 0.81084 0.31926 0.0
C2283 C 0.26094 0.8289 0.32417 0.0
C2284 C 0.26533 0.85513 0.31944 0.0
C2285 C 0.28823 0.86266 0.30779 0.0
C2286 C 0.27639 0.78262 0.32367 0.0
C2287 C 0.24533 0.87504 0.32533 0.0
C2288 C 0.19402 0.80214 0.31925 0.0
C2289 C 0.1892 0.79537 0.34463 0.0
C2290 C 0.21703 0.81398 0.31243 0.0
C2291 C 0.23517 0.81984 0.33165 0.0
C2292 C 0.22947 0.81483 0.35757 0.0
C2293 C 0.20668 0.80221 0.36373 0.0
C2294 C 0.22261 0.81864 0.28451 0.0
C2295 C 0.2479 0.82168 0.37865 0.0
H2296 H 0.318 0.80509 0.30353 0.0
H2297 H 0.2911 0.88256 0.30277 0.0
H2298 H 0.26988 0.77909 0.3435 0.0
H2299 H 0.26118 0.77556 0.31068 0.0
H2300 H 0.29399 0.77129 0.3202 0.0
H2301 H 0.25334 0.89469 0.32478 0.0
H2302 H 0.22971 0.87383 0.31107 0.0
H2303 H 0.23681 0.87165 0.34443 0.0
H2304 H 0.18056 0.79669 0.30451 0.0
H2305 H 0.20276 0.79715 0.38343 0.0
H2306 H 0.23908 0.80673 0.27848 0.0
H2307 H 0.22795 0.83888 0.28133 0.0
H2308 H 0.20603 0.81399 0.2721 0.0
H2309 H 0.26442 0.80843 0.37822 0.0
H2310 H 0.23885 0.82045 0.3978 0.0
H2311 H 0.25543 0.84131 0.37588 0.0
C2312 C 0.1323 0.70803 0.69401 0.0
C2313 C 0.14987 0.68821 0.69791 0.0
C2314 C 0.13974 0.73073 0.68194 0.0
C2315 C 0.16552 0.7339 0.67453 0.0
C2316 C 0.18299 0.71341 0.67726 0.0
C2317 C 0.17477 0.69059 0.68853 0.0
C2318 C 0.12035 0.75176 0.67837 0.0
C2319 C 0.21079 0.71622 0.67006 0.0
C2320 C 0.19034 0.78757 0.633 0.0
C2321 C 0.19959 0.80455 0.65148 0.0
C2322 C 0.17758 0.76516 0.64018 0.0
C2323 C 0.17501 0.7593 0.66642 0.0
C2324 C 0.18355 0.7769 0.68513 0.0
C2325 C 0.1954 0.79959 0.67737 0.0
C2326 C 0.16785 0.74733 0.61973 0.0
C2327 C 0.18167 0.77105 0.71332 0.0
H2328 H 0.11292 0.70603 0.70104 0.0
H2329 H 0.18835 0.67532 0.69157 0.0
H2330 H 0.12391 0.76715 0.69249 0.0
H2331 H 0.12209 0.76031 0.65906 0.0
H2332 H 0.10049 0.74476 0.68101 0.0
H2333 H 0.22154 0.69805 0.67219 0.0
H2334 H 0.21263 0.72285 0.65004 0.0
H2335 H 0.21986 0.73088 0.68241 0.0
H2336 H 0.19352 0.79162 0.61293 0.0
H2337 H 0.20283 0.81267 0.69159 0.0
H2338 H 0.1482 0.7408 0.62431 0.0
H2339 H 0.1802 0.73015 0.61881 0.0
H2340 H 0.16773 0.7565 0.6006 0.0
H2341 H 0.16164 0.76667 0.71861 0.0
H2342 H 0.18849 0.78713 0.72536 0.0
H2343 H 0.19328 0.75388 0.71782 0.0
C2344 C 0.29712 0.17765 0.69273 0.0
C2345 C 0.30046 0.15219 0.70012 0.0
C2346 C 0.27413 0.18576 0.68171 0.0
C2347 C 0.25439 0.16777 0.67733 0.0
C2348 C 0.25833 0.14171 0.68323 0.0
C2349 C 0.28122 0.13428 0.69495 0.0
C2350 C 0.27047 0.21383 0.67605 0.0
C2351 C 0.23807 0.12187 0.67802 0.0
C2352 C 0.1879 0.19609 0.67732 0.0
C2353 C 0.1846 0.20149 0.65138 0.0
C2354 C 0.2102 0.18407 0.686 0.0
C2355 C 0.22914 0.17671 0.66813 0.0
C2356 C 0.22486 0.18026 0.6417 0.0
C2357 C 0.20277 0.19303 0.63365 0.0
C2358 C 0.21428 0.18101 0.71439 0.0
C2359 C 0.2442 0.17187 0.62203 0.0
H2360 H 0.31191 0.19152 0.69685 0.0
H2361 H 0.28392 0.1145 0.70048 0.0
H2362 H 0.26511 0.21658 0.65576 0.0
H2363 H 0.25461 0.22147 0.68786 0.0
H2364 H 0.28794 0.2252 0.68003 0.0
H2365 H 0.2454 0.10212 0.68057 0.0
H2366 H 0.22175 0.1247 0.69123 0.0
H2367 H 0.23064 0.1239 0.65827 0.0
H2368 H 0.17394 0.20286 0.69101 0.0
H2369 H 0.20004 0.19711 0.61352 0.0
H2370 H 0.23029 0.19344 0.7206 0.0
H2371 H 0.21964 0.16105 0.719 0.0
H2372 H 0.19701 0.18616 0.72559 0.0
H2373 H 0.26101 0.18475 0.62267 0.0
H2374 H 0.23621 0.17228 0.60237 0.0
H2375 H 0.25105 0.15226 0.62622 0.0
C2376 C 0.80693 0.19888 0.67415 0.0
C2377 C 0.7978 0.19444 0.64945 0.0
C2378 C 0.81741 0.22257 0.68079 0.0
C2379 C 0.81954 0.24191 0.66197 0.0
C2380 C 0.81202 0.23687 0.63653 0.0
C2381 C 0.80078 0.21328 0.63065 0.0
C2382 C 0.82481 0.22736 0.70827 0.0
C2383 C 0.81492 0.25667 0.61577 0.0
C2384 C 0.81725 0.30842 0.68979 0.0
C2385 C 0.8432 0.313 0.69419 0.0
C2386 C 0.80925 0.28581 0.67794 0.0
C2387 C 0.82776 0.26788 0.66967 0.0
C2388 C 0.85406 0.27365 0.67189 0.0
C2389 C 0.8615 0.29601 0.68458 0.0
C2390 C 0.781 0.28014 0.67633 0.0
C2391 C 0.87434 0.25549 0.66243 0.0
H2392 H 0.80451 0.18438 0.68871 0.0
H2393 H 0.79392 0.20971 0.61143 0.0
H2394 H 0.84498 0.2337 0.70945 0.0
H2395 H 0.81282 0.2429 0.71628 0.0
H2396 H 0.82244 0.2101 0.7204 0.0
H2397 H 0.81201 0.2484 0.59645 0.0
H2398 H 0.80068 0.27209 0.61863 0.0
H2399 H 0.83415 0.26555 0.6166 0.0
H2400 H 0.80314 0.32148 0.69742 0.0
H2401 H 0.88161 0.29974 0.68786 0.0
H2402 H 0.77627 0.26413 0.68941 0.0
H2403 H 0.77572 0.27409 0.65675 0.0
H2404 H 0.76914 0.2969 0.68168 0.0
H2405 H 0.87589 0.23907 0.67573 0.0
H2406 H 0.89336 0.26484 0.66117 0.0
H2407 H 0.86921 0.24781 0.64336 0.0
C2408 C 0.80046 0.8009 0.65291 0.0
C2409 C 0.79822 0.77512 0.64616 0.0
C2410 C 0.77928 0.8145 0.66208 0.0
C2411 C 0.75567 0.8017 0.66527 0.0
C2412 C 0.75322 0.77581 0.65791 0.0
C2413 C 0.77448 0.76293 0.64809 0.0
C2414 C 0.78237 0.84228 0.66913 0.0
C2415 C 0.72856 0.7613 0.66171 0.0
C2416 C 0.71218 0.82434 0.71821 0.0
C2417 C 0.69231 0.83581 0.70447 0.0
C2418 C 0.73298 0.81332 0.70562 0.0
C2419 C 0.73425 0.81447 0.67865 0.0
C2420 C 0.71458 0.8267 0.66468 0.0
C2421 C 0.69352 0.8369 0.67778 0.0
C2422 C 0.7532 0.79979 0.72118 0.0
C2423 C 0.71571 0.82881 0.63596 0.0
H2424 H 0.81878 0.81039 0.65115 0.0
H2425 H 0.77279 0.74293 0.64304 0.0
H2426 H 0.76667 0.85379 0.66076 0.0
H2427 H 0.78128 0.84445 0.69018 0.0
H2428 H 0.80093 0.85018 0.66253 0.0
H2429 H 0.72945 0.74167 0.65369 0.0
H2430 H 0.72427 0.75991 0.68242 0.0
H2431 H 0.71244 0.77159 0.65262 0.0
H2432 H 0.71105 0.82322 0.73885 0.0
H2433 H 0.67816 0.84592 0.66723 0.0
H2434 H 0.77217 0.80851 0.71763 0.0
H2435 H 0.75439 0.77947 0.71529 0.0
H2436 H 0.74922 0.80055 0.74201 0.0
H2437 H 0.73415 0.83742 0.63002 0.0
H2438 H 0.69986 0.84056 0.62815 0.0
H2439 H 0.7147 0.80952 0.62728 0.0
C2440 C 0.29223 0.17867 0.29946 0.0
C2441 C 0.28873 0.15266 0.30437 0.0
C2442 C 0.30453 0.18678 0.27714 0.0
C2443 C 0.31424 0.16833 0.25988 0.0
C2444 C 0.31226 0.14202 0.2657 0.0
C2445 C 0.29904 0.13446 0.28771 0.0
C2446 C 0.30575 0.21501 0.27131 0.0
C2447 C 0.32322 0.12187 0.24824 0.0
C2448 C 0.31663 0.19024 0.19115 0.0
C2449 C 0.34141 0.20012 0.18969 0.0
C2450 C 0.30778 0.17892 0.2137 0.0
C2451 C 0.32448 0.17671 0.23488 0.0
C2452 C 0.35017 0.18481 0.23273 0.0
C2453 C 0.35822 0.19689 0.21025 0.0
C2454 C 0.28008 0.17102 0.21544 0.0
C2455 C 0.36877 0.18187 0.25456 0.0
H2456 H 0.28399 0.19268 0.31227 0.0
H2457 H 0.29641 0.1143 0.29173 0.0
H2458 H 0.32576 0.22093 0.26768 0.0
H2459 H 0.29466 0.21913 0.25371 0.0
H2460 H 0.29796 0.22685 0.2871 0.0
H2461 H 0.32338 0.1027 0.25733 0.0
H2462 H 0.31167 0.12076 0.23052 0.0
H2463 H 0.34302 0.12693 0.2426 0.0
H2464 H 0.30362 0.1929 0.17531 0.0
H2465 H 0.3775 0.20439 0.20896 0.0
H2466 H 0.27013 0.18316 0.22969 0.0
H2467 H 0.2785 0.15096 0.22205 0.0
H2468 H 0.27001 0.17283 0.19685 0.0
H2469 H 0.36406 0.19579 0.26981 0.0
H2470 H 0.38881 0.18523 0.24841 0.0
H2471 H 0.36735 0.16247 0.26298 0.0
C2472 C 0.82128 0.30396 0.29606 0.0
C2473 C 0.84539 0.29282 0.2991 0.0
C2474 C 0.81403 0.31474 0.27269 0.0
C2475 C 0.83175 0.31528 0.25224 0.0
C2476 C 0.85685 0.30599 0.2559 0.0
C2477 C 0.86325 0.29441 0.27919 0.0
C2478 C 0.7869 0.32404 0.26942 0.0
C2479 C 0.87656 0.30724 0.23491 0.0
C2480 C 0.80043 0.3134 0.18726 0.0
C2481 C 0.79766 0.33945 0.18219 0.0
C2482 C 0.81269 0.30515 0.20956 0.0
C2483 C 0.82304 0.32348 0.22658 0.0
C2484 C 0.82219 0.34975 0.22029 0.0
C2485 C 0.80895 0.35749 0.19835 0.0
C2486 C 0.81266 0.277 0.21589 0.0
C2487 C 0.83389 0.36976 0.23742 0.0
H2488 H 0.80748 0.3029 0.3114 0.0
H2489 H 0.88208 0.28612 0.28164 0.0
H2490 H 0.78675 0.34414 0.26279 0.0
H2491 H 0.77712 0.31243 0.25461 0.0
H2492 H 0.77571 0.32279 0.28741 0.0
H2493 H 0.87201 0.29286 0.22004 0.0
H2494 H 0.87636 0.3263 0.22562 0.0
H2495 H 0.89612 0.30337 0.24216 0.0
H2496 H 0.79132 0.29959 0.17481 0.0
H2497 H 0.80673 0.37767 0.19423 0.0
H2498 H 0.80051 0.27361 0.23294 0.0
H2499 H 0.83222 0.27046 0.22066 0.0
H2500 H 0.80526 0.26518 0.19991 0.0
H2501 H 0.82165 0.37251 0.25449 0.0
H2502 H 0.83583 0.38845 0.22754 0.0
H2503 H 0.853 0.36357 0.24418 0.0
C2504 C 0.63196 0.79918 0.21074 0.0
C2505 C 0.64883 0.79901 0.18995 0.0
C2506 C 0.63912 0.81011 0.23411 0.0
C2507 C 0.66404 0.82018 0.23687 0.0
C2508 C 0.68068 0.82113 0.21557 0.0
C2509 C 0.67264 0.81097 0.19219 0.0
C2510 C 0.62049 0.80978 0.2561 0.0
C2511 C 0.70763 0.83123 0.21788 0.0
C2512 C 0.68725 0.86032 0.29222 0.0
C2513 C 0.6994 0.84182 0.30721 0.0
C2514 C 0.67391 0.85333 0.2701 0.0
C2515 C 0.67379 0.82743 0.26242 0.0
C2516 C 0.68532 0.80859 0.27808 0.0
C2517 C 0.69766 0.81603 0.30061 0.0
C2518 C 0.66097 0.87378 0.25443 0.0
C2519 C 0.68616 0.78085 0.27021 0.0
H2520 H 0.61335 0.79024 0.20891 0.0
H2521 H 0.68567 0.81098 0.17616 0.0
H2522 H 0.62631 0.79501 0.27011 0.0
H2523 H 0.62049 0.82845 0.26614 0.0
H2524 H 0.60072 0.80546 0.24968 0.0
H2525 H 0.7178 0.83143 0.19925 0.0
H2526 H 0.7075 0.8509 0.22569 0.0
H2527 H 0.71861 0.81913 0.2314 0.0
H2528 H 0.6886 0.88029 0.29758 0.0
H2529 H 0.70736 0.80187 0.31219 0.0
H2530 H 0.64167 0.86742 0.24839 0.0
H2531 H 0.67224 0.87749 0.23688 0.0
H2532 H 0.65915 0.89201 0.26514 0.0
H2533 H 0.66662 0.7737 0.26628 0.0
H2534 H 0.69501 0.76852 0.28504 0.0
H2535 H 0.69733 0.77889 0.25229 0.0
C2536 C 0.1917 0.6744 0.19198 0.0
C2537 C 0.19977 0.64905 0.18954 0.0
C2538 C 0.18002 0.68289 0.21447 0.0
C2539 C 0.17557 0.66533 0.23456 0.0
C2540 C 0.1817 0.63922 0.23129 0.0
C2541 C 0.19418 0.63145 0.20892 0.0
C2542 C 0.17418 0.711 0.21742 0.0
C2543 C 0.17632 0.61979 0.25189 0.0
C2544 C 0.17736 0.69473 0.30047 0.0
C2545 C 0.15156 0.7004 0.30432 0.0
C2546 C 0.18538 0.68241 0.27813 0.0
C2547 C 0.16697 0.67492 0.25975 0.0
C2548 C 0.14068 0.67891 0.26454 0.0
C2549 C 0.1333 0.69208 0.28662 0.0
C2550 C 0.21365 0.67897 0.27344 0.0
C2551 C 0.12047 0.67033 0.24585 0.0
H2552 H 0.19611 0.68803 0.17706 0.0
H2553 H 0.20021 0.61174 0.20688 0.0
H2554 H 0.15401 0.71379 0.22322 0.0
H2555 H 0.18636 0.7192 0.23271 0.0
H2556 H 0.17763 0.72187 0.19952 0.0
H2557 H 0.17811 0.59991 0.24468 0.0
H2558 H 0.19006 0.62235 0.26781 0.0
H2559 H 0.15684 0.62247 0.25978 0.0
H2560 H 0.19143 0.70139 0.31412 0.0
H2561 H 0.11328 0.69635 0.28984 0.0
H2562 H 0.21953 0.69054 0.25668 0.0
H2563 H 0.21797 0.65873 0.26898 0.0
H2564 H 0.22536 0.68486 0.29013 0.0
H2565 H 0.12078 0.68289 0.2288 0.0
H2566 H 0.10102 0.67104 0.25432 0.0
H2567 H 0.12435 0.65056 0.23926 0.0
C2568 C 0.31613 0.80609 0.80185 0.0
C2569 C 0.34155 0.79905 0.80586 0.0
C2570 C 0.30855 0.81698 0.77862 0.0
C2571 C 0.32707 0.82156 0.75941 0.0
C2572 C 0.35312 0.81623 0.76422 0.0
C2573 C 0.36 0.80454 0.78728 0.0
C2574 C 0.28049 0.82194 0.77402 0.0
C2575 C 0.37352 0.82173 0.74459 0.0
C2576 C 0.30091 0.81854 0.69217 0.0
C2577 C 0.29472 0.84416 0.68787 0.0
C2578 C 0.3125 0.811 0.71508 0.0
C2579 C 0.31867 0.82971 0.73364 0.0
C2580 C 0.31437 0.85586 0.72839 0.0
C2581 C 0.30201 0.86275 0.70569 0.0
C2582 C 0.31639 0.78287 0.72017 0.0
C2583 C 0.32156 0.8764 0.74729 0.0
H2584 H 0.3019 0.8015 0.81614 0.0
H2585 H 0.37973 0.7991 0.79058 0.0
H2586 H 0.27746 0.84198 0.76789 0.0
H2587 H 0.27353 0.80943 0.75839 0.0
H2588 H 0.26872 0.8183 0.7913 0.0
H2589 H 0.39302 0.82046 0.75287 0.0
H2590 H 0.37207 0.80773 0.72876 0.0
H2591 H 0.37085 0.84104 0.73628 0.0
H2592 H 0.29509 0.80419 0.67846 0.0
H2593 H 0.29737 0.88264 0.70217 0.0
H2594 H 0.3039 0.77678 0.73618 0.0
H2595 H 0.3364 0.77911 0.72598 0.0
H2596 H 0.3119 0.77093 0.70322 0.0
H2597 H 0.30812 0.87598 0.76366 0.0
H2598 H 0.32089 0.89575 0.73861 0.0
H2599 H 0.34103 0.87301 0.75495 0.0
C2600 C 0.19229 0.36294 0.78644 0.0
C2601 C 0.19798 0.34468 0.80518 0.0
C2602 C 0.18009 0.35589 0.7637 0.0
C2603 C 0.17425 0.32988 0.75939 0.0
C2604 C 0.17881 0.31159 0.77881 0.0
C2605 C 0.19031 0.31933 0.8017 0.0
C2606 C 0.17466 0.37605 0.74382 0.0
C2607 C 0.17321 0.28358 0.77476 0.0
C2608 C 0.13207 0.30557 0.70602 0.0
C2609 C 0.15034 0.29799 0.68799 0.0
C2610 C 0.13943 0.31757 0.72877 0.0
C2611 C 0.16571 0.32125 0.73383 0.0
C2612 C 0.18415 0.31463 0.71515 0.0
C2613 C 0.17616 0.3034 0.69222 0.0
C2614 C 0.1192 0.3252 0.74784 0.0
C2615 C 0.2124 0.31788 0.72003 0.0
H2616 H 0.19803 0.38264 0.78929 0.0
H2617 H 0.19482 0.3052 0.81612 0.0
H2618 H 0.18832 0.37402 0.72776 0.0
H2619 H 0.15514 0.37365 0.73591 0.0
H2620 H 0.17649 0.39567 0.7517 0.0
H2621 H 0.17662 0.27207 0.79226 0.0
H2622 H 0.15311 0.28086 0.76869 0.0
H2623 H 0.18557 0.27607 0.75926 0.0
H2624 H 0.11203 0.30156 0.70258 0.0
H2625 H 0.19028 0.29738 0.67834 0.0
H2626 H 0.12295 0.3447 0.75525 0.0
H2627 H 0.11965 0.31193 0.76435 0.0
H2628 H 0.09973 0.32471 0.7394 0.0
H2629 H 0.2167 0.33789 0.72545 0.0
H2630 H 0.22415 0.31279 0.70311 0.0
H2631 H 0.21826 0.30555 0.73625 0.0
C2632 C 0.70445 0.13055 0.71433 0.0
C2633 C 0.70951 0.14899 0.69561 0.0
C2634 C 0.69135 0.13706 0.73674 0.0
C2635 C 0.68411 0.16277 0.74078 0.0
C2636 C 0.68854 0.18128 0.72153 0.0
C2637 C 0.70085 0.17402 0.69893 0.0
C2638 C 0.68606 0.11666 0.75642 0.0
C2639 C 0.68158 0.20902 0.72536 0.0
C2640 C 0.63793 0.18661 0.79076 0.0
C2641 C 0.65482 0.19559 0.80946 0.0
C2642 C 0.64707 0.17385 0.7691 0.0
C2643 C 0.67373 0.17097 0.76578 0.0
C2644 C 0.69073 0.17877 0.78533 0.0
C2645 C 0.68097 0.19066 0.8072 0.0
C2646 C 0.62833 0.16489 0.74911 0.0
C2647 C 0.71934 0.17653 0.78226 0.0
H2648 H 0.711 0.1111 0.71154 0.0
H2649 H 0.70496 0.18826 0.68449 0.0
H2650 H 0.69864 0.11953 0.77321 0.0
H2651 H 0.66602 0.11793 0.76321 0.0
H2652 H 0.68947 0.09716 0.74877 0.0
H2653 H 0.68588 0.22086 0.70828 0.0
H2654 H 0.66095 0.21087 0.7298 0.0
H2655 H 0.69232 0.21686 0.74187 0.0
H2656 H 0.61763 0.19033 0.7927 0.0
H2657 H 0.694 0.19785 0.82158 0.0
H2658 H 0.63356 0.1456 0.74207 0.0
H2659 H 0.6288 0.17809 0.73255 0.0
H2660 H 0.60847 0.16431 0.7566 0.0
H2661 H 0.72471 0.15677 0.77689 0.0
H2662 H 0.72976 0.18181 0.79997 0.0
H2663 H 0.72577 0.18931 0.76661 0.0
C2664 C 0.81654 0.67839 0.68612 0.0
C2665 C 0.84222 0.68201 0.67989 0.0
C2666 C 0.80967 0.66696 0.7093 0.0
C2667 C 0.82907 0.65835 0.72611 0.0
C2668 C 0.85501 0.65978 0.71864 0.0
C2669 C 0.86134 0.67219 0.69577 0.0
C2670 C 0.78181 0.66633 0.71678 0.0
C2671 C 0.87614 0.64981 0.73551 0.0
C2672 C 0.81141 0.66583 0.79559 0.0
C2673 C 0.80043 0.64204 0.80086 0.0
C2674 C 0.82185 0.67105 0.77155 0.0
C2675 C 0.82224 0.65161 0.75274 0.0
C2676 C 0.81342 0.6268 0.75882 0.0
C2677 C 0.8021 0.62243 0.7827 0.0
C2678 C 0.83063 0.69794 0.76571 0.0
C2679 C 0.81467 0.60527 0.73971 0.0
H2680 H 0.80187 0.68641 0.67392 0.0
H2681 H 0.88124 0.67509 0.69076 0.0
H2682 H 0.77624 0.6469 0.72308 0.0
H2683 H 0.77859 0.67946 0.73311 0.0
H2684 H 0.76907 0.67218 0.70085 0.0
H2685 H 0.89423 0.64724 0.72471 0.0
H2686 H 0.87974 0.66356 0.75121 0.0
H2687 H 0.87067 0.63131 0.74429 0.0
H2688 H 0.8103 0.68096 0.80962 0.0
H2689 H 0.79396 0.60385 0.78692 0.0
H2690 H 0.8184 0.70627 0.75053 0.0
H2691 H 0.85051 0.6978 0.75845 0.0
H2692 H 0.82976 0.71059 0.78273 0.0
H2693 H 0.79915 0.60754 0.72548 0.0
H2694 H 0.81238 0.58635 0.74904 0.0
H2695 H 0.8331 0.60557 0.72923 0.0
C2696 C 0.18794 0.34161 0.17955 0.0
C2697 C 0.18753 0.33868 0.2061 0.0
C2698 C 0.20911 0.3333 0.16531 0.0
C2699 C 0.22965 0.32107 0.17799 0.0
C2700 C 0.22895 0.31777 0.20482 0.0
C2701 C 0.20805 0.32701 0.21858 0.0
C2702 C 0.20964 0.33778 0.13684 0.0
C2703 C 0.25008 0.30412 0.21899 0.0
C2704 C 0.2731 0.27401 0.14508 0.0
C2705 C 0.29638 0.28727 0.14527 0.0
C2706 C 0.25077 0.28531 0.15443 0.0
C2707 C 0.25163 0.31074 0.16348 0.0
C2708 C 0.27462 0.32491 0.16181 0.0
C2709 C 0.29689 0.31285 0.15309 0.0
C2710 C 0.22685 0.26931 0.15655 0.0
C2711 C 0.27602 0.35234 0.17057 0.0
H2712 H 0.17203 0.35089 0.17009 0.0
H2713 H 0.20745 0.32462 0.23914 0.0
H2714 H 0.22709 0.34862 0.13159 0.0
H2715 H 0.21046 0.31927 0.1266 0.0
H2716 H 0.19264 0.34853 0.13009 0.0
H2717 H 0.24616 0.30255 0.23979 0.0
H2718 H 0.25262 0.2846 0.21114 0.0
H2719 H 0.26841 0.31442 0.21638 0.0
H2720 H 0.27259 0.25422 0.13911 0.0
H2721 H 0.3148 0.32325 0.15294 0.0
H2722 H 0.21015 0.27972 0.14875 0.0
H2723 H 0.22284 0.26533 0.17698 0.0
H2724 H 0.22866 0.25079 0.14635 0.0
H2725 H 0.25934 0.3633 0.16343 0.0
H2726 H 0.29382 0.36186 0.164 0.0
H2727 H 0.27552 0.35304 0.19174 0.0
C2728 C 0.29924 0.68402 0.84591 0.0
C2729 C 0.29835 0.7105 0.84948 0.0
C2730 C 0.27762 0.67068 0.8373 0.0
C2731 C 0.25512 0.68441 0.83121 0.0
C2732 C 0.25397 0.71105 0.83556 0.0
C2733 C 0.2755 0.72369 0.84504 0.0
C2734 C 0.27921 0.64213 0.83371 0.0
C2735 C 0.23067 0.72655 0.8285 0.0
C2736 C 0.21409 0.66046 0.77698 0.0
C2737 C 0.192 0.65271 0.78985 0.0
C2738 C 0.23496 0.67038 0.79034 0.0
C2739 C 0.23396 0.67176 0.81731 0.0
C2740 C 0.21204 0.66294 0.83051 0.0
C2741 C 0.19099 0.65396 0.81652 0.0
C2742 C 0.2576 0.68038 0.77546 0.0
C2743 C 0.21071 0.66337 0.8593 0.0
H2744 H 0.31688 0.67381 0.84959 0.0
H2745 H 0.27487 0.74422 0.84756 0.0
H2746 H 0.26186 0.63271 0.84145 0.0
H2747 H 0.2802 0.63761 0.81304 0.0
H2748 H 0.29631 0.63388 0.84319 0.0
H2749 H 0.23235 0.74683 0.83452 0.0
H2750 H 0.22791 0.72601 0.80749 0.0
H2751 H 0.21329 0.71831 0.83735 0.0
H2752 H 0.21466 0.65974 0.75631 0.0
H2753 H 0.17386 0.64773 0.82637 0.0
H2754 H 0.27533 0.67058 0.78162 0.0
H2755 H 0.26015 0.70107 0.77934 0.0
H2756 H 0.25535 0.6777 0.75454 0.0
H2757 H 0.22811 0.6545 0.86755 0.0
H2758 H 0.19364 0.65313 0.86666 0.0
H2759 H 0.21 0.68339 0.86614 0.0
C2760 C 0.29824 0.3004 0.81619 0.0
C2761 C 0.29256 0.30435 0.84197 0.0
C2762 C 0.30997 0.27774 0.80819 0.0
C2763 C 0.31683 0.25911 0.82659 0.0
C2764 C 0.31282 0.26393 0.85286 0.0
C2765 C 0.30027 0.28638 0.86022 0.0
C2766 C 0.31353 0.27307 0.77994 0.0
C2767 C 0.32074 0.24495 0.87306 0.0
C2768 C 0.31653 0.19152 0.80136 0.0
C2769 C 0.34197 0.18877 0.79368 0.0
C2770 C 0.30825 0.21405 0.81316 0.0
C2771 C 0.32609 0.23382 0.818 0.0
C2772 C 0.35222 0.23018 0.81223 0.0
C2773 C 0.35981 0.2078 0.79972 0.0
C2774 C 0.28012 0.21741 0.81867 0.0
C2775 C 0.37191 0.25045 0.81796 0.0
H2776 H 0.29205 0.31426 0.80212 0.0
H2777 H 0.29601 0.28966 0.88023 0.0
H2778 H 0.33372 0.26821 0.77576 0.0
H2779 H 0.30168 0.25655 0.77393 0.0
H2780 H 0.30807 0.2899 0.76823 0.0
H2781 H 0.31992 0.25329 0.89255 0.0
H2782 H 0.30785 0.22814 0.87245 0.0
H2783 H 0.34043 0.23799 0.86942 0.0
H2784 H 0.30275 0.17686 0.79655 0.0
H2785 H 0.37957 0.20549 0.79394 0.0
H2786 H 0.27229 0.23279 0.80635 0.0
H2787 H 0.27718 0.22331 0.83878 0.0
H2788 H 0.26905 0.19965 0.81513 0.0
H2789 H 0.36969 0.26654 0.80436 0.0
H2790 H 0.3917 0.24298 0.81629 0.0
H2791 H 0.36915 0.2582 0.83749 0.0
C2792 C 0.71135 0.29607 0.86033 0.0
C2793 C 0.69164 0.29122 0.84285 0.0
C2794 C 0.73405 0.30794 0.8525 0.0
C2795 C 0.73728 0.31441 0.82647 0.0
C2796 C 0.7171 0.31033 0.80893 0.0
C2797 C 0.69436 0.29911 0.81743 0.0
C2798 C 0.75485 0.31276 0.87187 0.0
C2799 C 0.71998 0.31661 0.78091 0.0
C2800 C 0.78816 0.35922 0.80152 0.0
C2801 C 0.80641 0.3419 0.79242 0.0
C2802 C 0.76622 0.35061 0.81421 0.0
C2803 C 0.76219 0.32406 0.81707 0.0
C2804 C 0.7811 0.30654 0.80883 0.0
C2805 C 0.80323 0.31575 0.79689 0.0
C2806 C 0.74688 0.36987 0.82348 0.0
C2807 C 0.77725 0.27805 0.81111 0.0
H2808 H 0.70919 0.2902 0.88007 0.0
H2809 H 0.67922 0.29534 0.80385 0.0
H2810 H 0.77123 0.29986 0.86811 0.0
H2811 H 0.76199 0.33266 0.87024 0.0
H2812 H 0.74817 0.3095 0.89174 0.0
H2813 H 0.70224 0.31278 0.76991 0.0
H2814 H 0.72517 0.337 0.77845 0.0
H2815 H 0.7357 0.30507 0.77259 0.0
H2816 H 0.7908 0.37951 0.79823 0.0
H2817 H 0.81728 0.30237 0.78969 0.0
H2818 H 0.74076 0.3653 0.84325 0.0
H2819 H 0.72964 0.36912 0.81118 0.0
H2820 H 0.75453 0.38966 0.82309 0.0
H2821 H 0.77256 0.2728 0.83109 0.0
H2822 H 0.7944 0.2671 0.80507 0.0
H2823 H 0.76087 0.27212 0.79903 0.0
C2824 C 0.6821 0.68822 0.8372 0.0
C2825 C 0.7087 0.68995 0.83501 0.0
C2826 C 0.66643 0.70842 0.82911 0.0
C2827 C 0.67775 0.73027 0.81788 0.0
C2828 C 0.70463 0.73178 0.81527 0.0
C2829 C 0.7198 0.71173 0.82425 0.0
C2830 C 0.63791 0.70657 0.83283 0.0
C2831 C 0.71741 0.75445 0.80274 0.0
C2832 C 0.64325 0.77331 0.77165 0.0
C2833 C 0.64167 0.79601 0.78579 0.0
C2834 C 0.65353 0.75112 0.78239 0.0
C2835 C 0.66179 0.75149 0.8081 0.0
C2836 C 0.65805 0.77363 0.82316 0.0
C2837 C 0.64832 0.79581 0.81172 0.0
C2838 C 0.65768 0.72809 0.76552 0.0
C2839 C 0.66598 0.77447 0.85086 0.0
H2840 H 0.67366 0.67139 0.84585 0.0
H2841 H 0.7404 0.71287 0.82247 0.0
H2842 H 0.63113 0.7229 0.84452 0.0
H2843 H 0.62803 0.70774 0.81414 0.0
H2844 H 0.6322 0.68851 0.84241 0.0
H2845 H 0.73849 0.75222 0.80156 0.0
H2846 H 0.70982 0.75713 0.78314 0.0
H2847 H 0.71315 0.77211 0.81363 0.0
H2848 H 0.63815 0.77329 0.75159 0.0
H2849 H 0.64686 0.81322 0.82282 0.0
H2850 H 0.65126 0.71039 0.77522 0.0
H2851 H 0.6784 0.72598 0.76154 0.0
H2852 H 0.64744 0.72979 0.74701 0.0
H2853 H 0.66009 0.75674 0.86087 0.0
H2854 H 0.65763 0.79115 0.86096 0.0
H2855 H 0.68709 0.77581 0.85212 0.0
C2856 C 0.69226 0.68512 0.15156 0.0
C2857 C 0.69426 0.71151 0.14758 0.0
C2858 C 0.71297 0.67118 0.16133 0.0
C2859 C 0.73571 0.68419 0.16806 0.0
C2860 C 0.73799 0.71072 0.16341 0.0
C2861 C 0.71735 0.72395 0.15284 0.0
C2862 C 0.71022 0.64276 0.16527 0.0
C2863 C 0.76162 0.72545 0.17102 0.0
C2864 C 0.77541 0.65966 0.22306 0.0
C2865 C 0.79754 0.65149 0.2105 0.0
C2866 C 0.75484 0.66977 0.20935 0.0
C2867 C 0.75618 0.67088 0.18237 0.0
C2868 C 0.778 0.66139 0.1695 0.0
C2869 C 0.79874 0.65225 0.18381 0.0
C2870 C 0.73228 0.68045 0.22384 0.0
C2871 C 0.77967 0.6615 0.14073 0.0
H2872 H 0.67445 0.67545 0.14726 0.0
H2873 H 0.71888 0.74438 0.14996 0.0
H2874 H 0.7273 0.6326 0.1579 0.0
H2875 H 0.70879 0.63854 0.18597 0.0
H2876 H 0.69296 0.63503 0.15565 0.0
H2877 H 0.76401 0.72465 0.19207 0.0
H2878 H 0.77887 0.71673 0.16239 0.0
H2879 H 0.76068 0.74582 0.16513 0.0
H2880 H 0.77467 0.65927 0.24374 0.0
H2881 H 0.81585 0.64566 0.17418 0.0
H2882 H 0.71432 0.6714 0.21722 0.0
H2883 H 0.73062 0.70125 0.22011 0.0
H2884 H 0.734 0.67748 0.24478 0.0
H2885 H 0.76199 0.65335 0.13232 0.0
H2886 H 0.79635 0.65044 0.13368 0.0
H2887 H 0.78139 0.68141 0.13374 0.0
C2888 C 0.35991 0.78711 0.19895 0.0
C2889 C 0.34227 0.80571 0.2066 0.0
C2890 C 0.35186 0.76509 0.18607 0.0
C2891 C 0.32548 0.76133 0.18157 0.0
C2892 C 0.30771 0.78056 0.1884 0.0
C2893 C 0.31642 0.80276 0.20052 0.0
C2894 C 0.37143 0.74539 0.17829 0.0
C2895 C 0.27936 0.77699 0.18439 0.0
C2896 C 0.2992 0.71051 0.13736 0.0
C2897 C 0.29308 0.6911 0.15475 0.0
C2898 C 0.31109 0.73303 0.14559 0.0
C2899 C 0.31613 0.73643 0.17191 0.0
C2900 C 0.31069 0.71653 0.18941 0.0
C2901 C 0.29957 0.6939 0.18051 0.0
C2902 C 0.31745 0.75349 0.12628 0.0
C2903 C 0.31532 0.71965 0.21772 0.0
H2904 H 0.37998 0.78958 0.20349 0.0
H2905 H 0.30279 0.81709 0.20662 0.0
H2906 H 0.36972 0.72836 0.19076 0.0
H2907 H 0.36802 0.73903 0.15836 0.0
H2908 H 0.39125 0.75284 0.17979 0.0
H2909 H 0.26825 0.7943 0.18961 0.0
H2910 H 0.27531 0.7722 0.16417 0.0
H2911 H 0.27251 0.76077 0.19621 0.0
H2912 H 0.29434 0.7082 0.11735 0.0
H2913 H 0.29468 0.67897 0.19398 0.0
H2914 H 0.3373 0.76038 0.12909 0.0
H2915 H 0.30456 0.77008 0.12898 0.0
H2916 H 0.31537 0.74656 0.10634 0.0
H2917 H 0.33559 0.72463 0.22134 0.0
H2918 H 0.31062 0.70208 0.22865 0.0
H2919 H 0.30349 0.73559 0.22516 0.0
C2920 C 0.69517 0.29589 0.17041 0.0
C2921 C 0.70333 0.29982 0.14525 0.0
C2922 C 0.68432 0.2726 0.17779 0.0
C2923 C 0.68085 0.25312 0.15935 0.0
C2924 C 0.68746 0.25762 0.13355 0.0
C2925 C 0.69902 0.28083 0.12686 0.0
C2926 C 0.67789 0.26837 0.20561 0.0
C2927 C 0.68321 0.23761 0.11324 0.0
C2928 C 0.68192 0.18643 0.18698 0.0
C2929 C 0.65597 0.18243 0.19165 0.0
C2930 C 0.69028 0.20903 0.17533 0.0
C2931 C 0.67207 0.22754 0.16767 0.0
C2932 C 0.64567 0.22256 0.17065 0.0
C2933 C 0.63792 0.2002 0.18313 0.0
C2934 C 0.71863 0.21389 0.17301 0.0
C2935 C 0.62568 0.24144 0.16198 0.0
H2936 H 0.69852 0.31049 0.18467 0.0
H2937 H 0.70507 0.28397 0.1073 0.0
H2938 H 0.65763 0.26256 0.20767 0.0
H2939 H 0.68979 0.25263 0.21336 0.0
H2940 H 0.68118 0.28571 0.21738 0.0
H2941 H 0.68605 0.24538 0.0937 0.0
H2942 H 0.69677 0.22159 0.11611 0.0
H2943 H 0.66361 0.22966 0.11467 0.0
H2944 H 0.69576 0.17275 0.19402 0.0
H2945 H 0.61781 0.1969 0.1869 0.0
H2946 H 0.7241 0.22995 0.18572 0.0
H2947 H 0.72358 0.21954 0.15321 0.0
H2948 H 0.73016 0.19688 0.17831 0.0
H2949 H 0.62548 0.25807 0.17509 0.0
H2950 H 0.60626 0.23288 0.16176 0.0
H2951 H 0.6302 0.24869 0.14258 0.0
loop_
_geom_bond_atom_site_label_1
_geom_bond_atom_site_label_2
_geom_bond_distance
_geom_bond_site_symmetry_2
_ccdc_geom_bond_type
Co0 O2 2.143 . S
Co0 O8 2.074 . S
Co0 O11 2.093 . S
Co0 O24 2.097 . S
Co0 N41 2.151 . S
Co0 N49 2.214 . S
Co1 O2 2.160 . S
Co1 O7 2.058 . S
Co1 O17 2.057 . S
Co1 O32 2.037 . S
Co1 N36 2.145 . S
Co1 N57 2.257 . S
O2 Co0 2.143 . S
O2 Co1 2.160 . S
C3 O4 1.278 . S
C3 O11 1.224 . S
O4 C3 1.278 . S
C5 O6 1.245 . S
C5 O17 1.232 . S
O6 C5 1.245 . S
O7 Co1 2.058 . S
O7 C33 1.269 . S
O8 Co0 2.074 . S
O8 C33 1.257 . S
H9 C34 0.930 . S
H10 C40 0.930 . S
O11 Co0 2.093 . S
O11 C3 1.224 . S
H12 C44 0.929 . S
H13 C46 0.930 . S
H14 C47 0.930 . S
H15 C45 0.929 . S
H16 C48 0.928 . S
O17 Co1 2.057 . S
O17 C5 1.232 . S
H18 C37 0.929 . S
H19 C38 0.929 . S
H20 C50 0.931 . S
H21 C42 0.929 . S
H22 C51 0.930 . S
H23 C43 0.931 . S
O24 Co0 2.097 . S
O24 C52 1.214 . S
H25 C53 0.929 . S
H26 C54 0.929 . S
H27 C55 0.930 . S
H28 C56 0.929 . S
H29 C58 0.930 . S
H30 C35 0.930 . S
H31 C39 0.930 . S
O32 Co1 2.037 . S
O32 C52 1.234 . S
C33 O7 1.269 . S
C33 O8 1.257 . S
C34 H9 0.930 . S
C34 C37 1.388 . S
C34 C39 1.418 . S
C35 H30 0.930 . S
C35 C38 1.404 . S
C35 C39 1.353 . S
N36 Co1 2.145 . S
N36 C37 1.397 . S
N36 C38 1.334 . S
C37 H18 0.929 . S
C37 C34 1.388 . S
C37 N36 1.397 . S
C38 H19 0.929 . S
C38 C35 1.404 . S
C38 N36 1.334 . S
C39 H31 0.930 . S
C39 C34 1.418 . S
C39 C35 1.353 . S
C40 H10 0.930 . S
C40 N41 1.330 . S
C40 C42 1.446 . S
N41 Co0 2.151 . S
N41 C40 1.330 . S
N41 C45 1.418 . S
C42 H21 0.929 . S
C42 C40 1.446 . S
C42 C43 1.332 . S
C43 H23 0.931 . S
C43 C42 1.332 . S
C43 C44 1.267 . S
C44 H12 0.929 . S
C44 C43 1.267 . S
C44 C45 1.251 . S
C45 H15 0.929 . S
C45 N41 1.418 . S
C45 C44 1.251 . S
C46 H13 0.930 . S
C46 C48 1.406 . S
C46 C51 1.261 . S
C47 H14 0.930 . S
C47 N49 1.325 . S
C47 C50 1.357 . S
C48 H16 0.928 . S
C48 C46 1.406 . S
C48 N49 1.261 . S
N49 Co0 2.214 . S
N49 C47 1.325 . S
N49 C48 1.261 . S
C50 H20 0.931 . S
C50 C47 1.357 . S
C50 C51 1.312 . S
C51 H22 0.930 . S
C51 C46 1.261 . S
C51 C50 1.312 . S
C52 O24 1.214 . S
C52 O32 1.234 . S
C53 H25 0.929 . S
C53 C56 1.391 . S
C53 C58 1.391 . S
C54 H26 0.929 . S
C54 C55 1.390 . S
C54 N57 1.391 . S
C55 H27 0.930 . S
C55 C54 1.390 . S
C55 C56 1.392 . S
C56 H28 0.929 . S
C56 C53 1.391 . S
C56 C55 1.392 . S
N57 Co1 2.257 . S
N57 C54 1.391 . S
N57 C58 1.388 . S
C58 H29 0.930 . S
C58 C53 1.391 . S
C58 N57 1.388 . S
Co59 O61 2.143 . S
Co59 O67 2.074 . S
Co59 O70 2.093 . S
Co59 O83 2.097 . S
Co59 N100 2.151 . S
Co59 N108 2.214 . S
Co60 O61 2.160 . S
Co60 O66 2.058 . S
Co60 O76 2.057 . S
Co60 O91 2.037 . S
Co60 N95 2.145 . S
Co60 N116 2.257 . S
O61 Co59 2.143 . S
O61 Co60 2.160 . S
C62 O63 1.278 . S
C62 O70 1.224 . S
O63 C62 1.278 . S
C64 O65 1.245 . S
C64 O76 1.232 . S
O65 C64 1.245 . S
O66 Co60 2.058 . S
O66 C92 1.269 . S
O67 Co59 2.074 . S
O67 C92 1.257 . S
H68 C93 0.930 . S
H69 C99 0.930 . S
O70 Co59 2.093 . S
O70 C62 1.224 . S
H71 C103 0.929 . S
H72 C105 0.930 . S
H73 C106 0.930 . S
H74 C104 0.929 . S
H75 C107 0.928 . S
O76 Co60 2.057 . S
O76 C64 1.232 . S
H77 C96 0.929 . S
H78 C97 0.929 . S
H79 C109 0.931 . S
H80 C101 0.929 . S
H81 C110 0.930 . S
H82 C102 0.931 . S
O83 Co59 2.097 . S
O83 C111 1.214 . S
H84 C112 0.929 . S
H85 C113 0.929 . S
H86 C114 0.930 . S
H87 C115 0.929 . S
H88 C117 0.930 . S
H89 C94 0.930 . S
H90 C98 0.930 . S
O91 Co60 2.037 . S
O91 C111 1.234 . S
C92 O66 1.269 . S
C92 O67 1.257 . S
C93 H68 0.930 . S
C93 C96 1.388 . S
C93 C98 1.418 . S
C94 H89 0.930 . S
C94 C97 1.404 . S
C94 C98 1.353 . S
N95 Co60 2.145 . S
N95 C96 1.397 . S
N95 C97 1.334 . S
C96 H77 0.929 . S
C96 C93 1.388 . S
C96 N95 1.397 . S
C97 H78 0.929 . S
C97 C94 1.404 . S
C97 N95 1.334 . S
C98 H90 0.930 . S
C98 C93 1.418 . S
C98 C94 1.353 . S
C99 H69 0.930 . S
C99 N100 1.330 . S
C99 C101 1.446 . S
N100 Co59 2.151 . S
N100 C99 1.330 . S
N100 C104 1.418 . S
C101 H80 0.929 . S
C101 C99 1.446 . S
C101 C102 1.332 . S
C102 H82 0.931 . S
C102 C101 1.332 . S
C102 C103 1.267 . S
C103 H71 0.929 . S
C103 C102 1.267 . S
C103 C104 1.251 . S
C104 H74 0.929 . S
C104 N100 1.418 . S
C104 C103 1.251 . S
C105 H72 0.930 . S
C105 C107 1.406 . S
C105 C110 1.261 . S
C106 H73 0.930 . S
C106 N108 1.325 . S
C106 C109 1.357 . S
C107 H75 0.928 . S
C107 C105 1.406 . S
C107 N108 1.261 . S
N108 Co59 2.214 . S
N108 C106 1.325 . S
N108 C107 1.261 . S
C109 H79 0.931 . S
C109 C106 1.357 . S
C109 C110 1.312 . S
C110 H81 0.930 . S
C110 C105 1.261 . S
C110 C109 1.312 . S
C111 O83 1.214 . S
C111 O91 1.234 . S
C112 H84 0.929 . S
C112 C115 1.391 . S
C112 C117 1.391 . S
C113 H85 0.929 . S
C113 C114 1.390 . S
C113 N116 1.391 . S
C114 H86 0.930 . S
C114 C113 1.390 . S
C114 C115 1.392 . S
C115 H87 0.929 . S
C115 C112 1.391 . S
C115 C114 1.392 . S
N116 Co60 2.257 . S
N116 C113 1.391 . S
N116 C117 1.388 . S
C117 H88 0.930 . S
C117 C112 1.391 . S
C117 N116 1.388 . S
Co118 O120 2.143 . S
Co118 O126 2.074 . S
Co118 O129 2.093 . S
Co118 O142 2.097 . S
Co118 N159 2.151 . S
Co118 N167 2.214 . S
Co119 O120 2.160 . S
Co119 O125 2.058 . S
Co119 O135 2.057 . S
Co119 O150 2.037 . S
Co119 N154 2.145 . S
Co119 N175 2.257 . S
O120 Co118 2.143 . S
O120 Co119 2.160 . S
C121 O122 1.278 . S
C121 O129 1.224 . S
O122 C121 1.278 . S
C123 O124 1.245 . S
C123 O135 1.232 . S
O124 C123 1.245 . S
O125 Co119 2.058 . S
O125 C151 1.269 . S
O126 Co118 2.074 . S
O126 C151 1.257 . S
H127 C152 0.930 . S
H128 C158 0.930 . S
O129 Co118 2.093 . S
O129 C121 1.224 . S
H130 C162 0.929 . S
H131 C164 0.930 . S
H132 C165 0.930 . S
H133 C163 0.929 . S
H134 C166 0.928 . S
O135 Co119 2.057 . S
O135 C123 1.232 . S
H136 C155 0.929 . S
H137 C156 0.929 . S
H138 C168 0.931 . S
H139 C160 0.929 . S
H140 C169 0.930 . S
H141 C161 0.931 . S
O142 Co118 2.097 . S
O142 C170 1.214 . S
H143 C171 0.929 . S
H144 C172 0.929 . S
H145 C173 0.930 . S
H146 C174 0.929 . S
H147 C176 0.930 . S
H148 C153 0.930 . S
H149 C157 0.930 . S
O150 Co119 2.037 . S
O150 C170 1.234 . S
C151 O125 1.269 . S
C151 O126 1.257 . S
C152 H127 0.930 . S
C152 C155 1.388 . S
C152 C157 1.418 . S
C153 H148 0.930 . S
C153 C156 1.404 . S
C153 C157 1.353 . S
N154 Co119 2.145 . S
N154 C155 1.397 . S
N154 C156 1.334 . S
C155 H136 0.929 . S
C155 C152 1.388 . S
C155 N154 1.397 . S
C156 H137 0.929 . S
C156 C153 1.404 . S
C156 N154 1.334 . S
C157 H149 0.930 . S
C157 C152 1.418 . S
C157 C153 1.353 . S
C158 H128 0.930 . S
C158 N159 1.330 . S
C158 C160 1.446 . S
N159 Co118 2.151 . S
N159 C158 1.330 . S
N159 C163 1.418 . S
C160 H139 0.929 . S
C160 C158 1.446 . S
C160 C161 1.332 . S
C161 H141 0.931 . S
C161 C160 1.332 . S
C161 C162 1.267 . S
C162 H130 0.929 . S
C162 C161 1.267 . S
C162 C163 1.251 . S
C163 H133 0.929 . S
C163 N159 1.418 . S
C163 C162 1.251 . S
C164 H131 0.930 . S
C164 C166 1.406 . S
C164 C169 1.261 . S
C165 H132 0.930 . S
C165 N167 1.325 . S
C165 C168 1.357 . S
C166 H134 0.928 . S
C166 C164 1.406 . S
C166 N167 1.261 . S
N167 Co118 2.214 . S
N167 C165 1.325 . S
N167 C166 1.261 . S
C168 H138 0.931 . S
C168 C165 1.357 . S
C168 C169 1.312 . S
C169 H140 0.930 . S
C169 C164 1.261 . S
C169 C168 1.312 . S
C170 O142 1.214 . S
C170 O150 1.234 . S
C171 H143 0.929 . S
C171 C174 1.391 . S
C171 C176 1.391 . S
C172 H144 0.929 . S
C172 C173 1.390 . S
C172 N175 1.391 . S
C173 H145 0.930 . S
C173 C172 1.390 . S
C173 C174 1.392 . S
C174 H146 0.929 . S
C174 C171 1.391 . S
C174 C173 1.392 . S
N175 Co119 2.257 . S
N175 C172 1.391 . S
N175 C176 1.388 . S
C176 H147 0.930 . S
C176 C171 1.391 . S
C176 N175 1.388 . S
Co177 O179 2.143 . S
Co177 O185 2.074 . S
Co177 O188 2.093 . S
Co177 O201 2.097 . S
Co177 N218 2.151 . S
Co177 N226 2.214 . S
Co178 O179 2.160 . S
Co178 O184 2.058 . S
Co178 O194 2.057 . S
Co178 O209 2.037 . S
Co178 N213 2.145 . S
Co178 N234 2.257 . S
O179 Co177 2.143 . S
O179 Co178 2.160 . S
C180 O181 1.278 . S
C180 O188 1.224 . S
O181 C180 1.278 . S
C182 O183 1.245 . S
C182 O194 1.232 . S
O183 C182 1.245 . S
O184 Co178 2.058 . S
O184 C210 1.269 . S
O185 Co177 2.074 . S
O185 C210 1.257 . S
H186 C211 0.930 . S
H187 C217 0.930 . S
O188 Co177 2.093 . S
O188 C180 1.224 . S
H189 C221 0.929 . S
H190 C223 0.930 . S
H191 C224 0.930 . S
H192 C222 0.929 . S
H193 C225 0.928 . S
O194 Co178 2.057 . S
O194 C182 1.232 . S
H195 C214 0.929 . S
H196 C215 0.929 . S
H197 C227 0.931 . S
H198 C219 0.929 . S
H199 C228 0.930 . S
H200 C220 0.931 . S
O201 Co177 2.097 . S
O201 C229 1.214 . S
H202 C230 0.929 . S
H203 C231 0.929 . S
H204 C232 0.930 . S
H205 C233 0.929 . S
H206 C235 0.930 . S
H207 C212 0.930 . S
H208 C216 0.930 . S
O209 Co178 2.037 . S
O209 C229 1.234 . S
C210 O184 1.269 . S
C210 O185 1.257 . S
C211 H186 0.930 . S
C211 C214 1.388 . S
C211 C216 1.418 . S
C212 H207 0.930 . S
C212 C215 1.404 . S
C212 C216 1.353 . S
N213 Co178 2.145 . S
N213 C214 1.397 . S
N213 C215 1.334 . S
C214 H195 0.929 . S
C214 C211 1.388 . S
C214 N213 1.397 . S
C215 H196 0.929 . S
C215 C212 1.404 . S
C215 N213 1.334 . S
C216 H208 0.930 . S
C216 C211 1.418 . S
C216 C212 1.353 . S
C217 H187 0.930 . S
C217 N218 1.330 . S
C217 C219 1.446 . S
N218 Co177 2.151 . S
N218 C217 1.330 . S
N218 C222 1.418 . S
C219 H198 0.929 . S
C219 C217 1.446 . S
C219 C220 1.332 . S
C220 H200 0.931 . S
C220 C219 1.332 . S
C220 C221 1.267 . S
C221 H189 0.929 . S
C221 C220 1.267 . S
C221 C222 1.251 . S
C222 H192 0.929 . S
C222 N218 1.418 . S
C222 C221 1.251 . S
C223 H190 0.930 . S
C223 C225 1.406 . S
C223 C228 1.261 . S
C224 H191 0.930 . S
C224 N226 1.325 . S
C224 C227 1.357 . S
C225 H193 0.928 . S
C225 C223 1.406 . S
C225 N226 1.261 . S
N226 Co177 2.214 . S
N226 C224 1.325 . S
N226 C225 1.261 . S
C227 H197 0.931 . S
C227 C224 1.357 . S
C227 C228 1.312 . S
C228 H199 0.930 . S
C228 C223 1.261 . S
C228 C227 1.312 . S
C229 O201 1.214 . S
C229 O209 1.234 . S
C230 H202 0.929 . S
C230 C233 1.391 . S
C230 C235 1.391 . S
C231 H203 0.929 . S
C231 C232 1.390 . S
C231 N234 1.391 . S
C232 H204 0.930 . S
C232 C231 1.390 . S
C232 C233 1.392 . S
C233 H205 0.929 . S
C233 C230 1.391 . S
C233 C232 1.392 . S
N234 Co178 2.257 . S
N234 C231 1.391 . S
N234 C235 1.388 . S
C235 H206 0.930 . S
C235 C230 1.391 . S
C235 N234 1.388 . S
Co236 O238 2.143 . S
Co236 O244 2.074 . S
Co236 O247 2.093 . S
Co236 O260 2.097 . S
Co236 N277 2.151 . S
Co236 N285 2.214 . S
Co237 O238 2.160 . S
Co237 O243 2.058 . S
Co237 O253 2.057 . S
Co237 O268 2.037 . S
Co237 N272 2.145 . S
Co237 N293 2.257 . S
O238 Co236 2.143 . S
O238 Co237 2.160 . S
C239 O240 1.278 . S
C239 O247 1.224 . S
O240 C239 1.278 . S
C241 O242 1.245 . S
C241 O253 1.232 . S
O242 C241 1.245 . S
O243 Co237 2.058 . S
O243 C269 1.269 . S
O244 Co236 2.074 . S
O244 C269 1.257 . S
H245 C270 0.930 . S
H246 C276 0.930 . S
O247 Co236 2.093 . S
O247 C239 1.224 . S
H248 C280 0.929 . S
H249 C282 0.930 . S
H250 C283 0.930 . S
H251 C281 0.929 . S
H252 C284 0.928 . S
O253 Co237 2.057 . S
O253 C241 1.232 . S
H254 C273 0.929 . S
H255 C274 0.929 . S
H256 C286 0.931 . S
H257 C278 0.929 . S
H258 C287 0.930 . S
H259 C279 0.931 . S
O260 Co236 2.097 . S
O260 C288 1.214 . S
H261 C289 0.929 . S
H262 C290 0.929 . S
H263 C291 0.930 . S
H264 C292 0.929 . S
H265 C294 0.930 . S
H266 C271 0.930 . S
H267 C275 0.930 . S
O268 Co237 2.037 . S
O268 C288 1.234 . S
C269 O243 1.269 . S
C269 O244 1.257 . S
C270 H245 0.930 . S
C270 C273 1.388 . S
C270 C275 1.418 . S
C271 H266 0.930 . S
C271 C274 1.404 . S
C271 C275 1.353 . S
N272 Co237 2.145 . S
N272 C273 1.397 . S
N272 C274 1.334 . S
C273 H254 0.929 . S
C273 C270 1.388 . S
C273 N272 1.397 . S
C274 H255 0.929 . S
C274 C271 1.404 . S
C274 N272 1.334 . S
C275 H267 0.930 . S
C275 C270 1.418 . S
C275 C271 1.353 . S
C276 H246 0.930 . S
C276 N277 1.330 . S
C276 C278 1.446 . S
N277 Co236 2.151 . S
N277 C276 1.330 . S
N277 C281 1.418 . S
C278 H257 0.929 . S
C278 C276 1.446 . S
C278 C279 1.332 . S
C279 H259 0.931 . S
C279 C278 1.332 . S
C279 C280 1.267 . S
C280 H248 0.929 . S
C280 C279 1.267 . S
C280 C281 1.251 . S
C281 H251 0.929 . S
C281 N277 1.418 . S
C281 C280 1.251 . S
C282 H249 0.930 . S
C282 C284 1.406 . S
C282 C287 1.261 . S
C283 H250 0.930 . S
C283 N285 1.325 . S
C283 C286 1.357 . S
C284 H252 0.928 . S
C284 C282 1.406 . S
C284 N285 1.261 . S
N285 Co236 2.214 . S
N285 C283 1.325 . S
N285 C284 1.261 . S
C286 H256 0.931 . S
C286 C283 1.357 . S
C286 C287 1.312 . S
C287 H258 0.930 . S
C287 C282 1.261 . S
C287 C286 1.312 . S
C288 O260 1.214 . S
C288 O268 1.234 . S
C289 H261 0.929 . S
C289 C292 1.391 . S
C289 C294 1.391 . S
C290 H262 0.929 . S
C290 C291 1.390 . S
C290 N293 1.391 . S
C291 H263 0.930 . S
C291 C290 1.390 . S
C291 C292 1.392 . S
C292 H264 0.929 . S
C292 C289 1.391 . S
C292 C291 1.392 . S
N293 Co237 2.257 . S
N293 C290 1.391 . S
N293 C294 1.388 . S
C294 H265 0.930 . S
C294 C289 1.391 . S
C294 N293 1.388 . S
Co295 O297 2.143 . S
Co295 O303 2.074 . S
Co295 O306 2.093 . S
Co295 O319 2.097 . S
Co295 N336 2.151 . S
Co295 N344 2.214 . S
Co296 O297 2.160 . S
Co296 O302 2.058 . S
Co296 O312 2.057 . S
Co296 O327 2.037 . S
Co296 N331 2.145 . S
Co296 N352 2.257 . S
O297 Co295 2.143 . S
O297 Co296 2.160 . S
C298 O299 1.278 . S
C298 O306 1.224 . S
O299 C298 1.278 . S
C300 O301 1.245 . S
C300 O312 1.232 . S
O301 C300 1.245 . S
O302 Co296 2.058 . S
O302 C328 1.269 . S
O303 Co295 2.074 . S
O303 C328 1.257 . S
H304 C329 0.930 . S
H305 C335 0.930 . S
O306 Co295 2.093 . S
O306 C298 1.224 . S
H307 C339 0.929 . S
H308 C341 0.930 . S
H309 C342 0.930 . S
H310 C340 0.929 . S
H311 C343 0.928 . S
O312 Co296 2.057 . S
O312 C300 1.232 . S
H313 C332 0.929 . S
H314 C333 0.929 . S
H315 C345 0.931 . S
H316 C337 0.929 . S
H317 C346 0.930 . S
H318 C338 0.931 . S
O319 Co295 2.097 . S
O319 C347 1.214 . S
H320 C348 0.929 . S
H321 C349 0.929 . S
H322 C350 0.930 . S
H323 C351 0.929 . S
H324 C353 0.930 . S
H325 C330 0.930 . S
H326 C334 0.930 . S
O327 Co296 2.037 . S
O327 C347 1.234 . S
C328 O302 1.269 . S
C328 O303 1.257 . S
C329 H304 0.930 . S
C329 C332 1.388 . S
C329 C334 1.418 . S
C330 H325 0.930 . S
C330 C333 1.404 . S
C330 C334 1.353 . S
N331 Co296 2.145 . S
N331 C332 1.397 . S
N331 C333 1.334 . S
C332 H313 0.929 . S
C332 C329 1.388 . S
C332 N331 1.397 . S
C333 H314 0.929 . S
C333 C330 1.404 . S
C333 N331 1.334 . S
C334 H326 0.930 . S
C334 C329 1.418 . S
C334 C330 1.353 . S
C335 H305 0.930 . S
C335 N336 1.330 . S
C335 C337 1.446 . S
N336 Co295 2.151 . S
N336 C335 1.330 . S
N336 C340 1.418 . S
C337 H316 0.929 . S
C337 C335 1.446 . S
C337 C338 1.332 . S
C338 H318 0.931 . S
C338 C337 1.332 . S
C338 C339 1.267 . S
C339 H307 0.929 . S
C339 C338 1.267 . S
C339 C340 1.251 . S
C340 H310 0.929 . S
C340 N336 1.418 . S
C340 C339 1.251 . S
C341 H308 0.930 . S
C341 C343 1.406 . S
C341 C346 1.261 . S
C342 H309 0.930 . S
C342 N344 1.325 . S
C342 C345 1.357 . S
C343 H311 0.928 . S
C343 C341 1.406 . S
C343 N344 1.261 . S
N344 Co295 2.214 . S
N344 C342 1.325 . S
N344 C343 1.261 . S
C345 H315 0.931 . S
C345 C342 1.357 . S
C345 C346 1.312 . S
C346 H317 0.930 . S
C346 C341 1.261 . S
C346 C345 1.312 . S
C347 O319 1.214 . S
C347 O327 1.234 . S
C348 H320 0.929 . S
C348 C351 1.391 . S
C348 C353 1.391 . S
C349 H321 0.929 . S
C349 C350 1.390 . S
C349 N352 1.391 . S
C350 H322 0.930 . S
C350 C349 1.390 . S
C350 C351 1.392 . S
C351 H323 0.929 . S
C351 C348 1.391 . S
C351 C350 1.392 . S
N352 Co296 2.257 . S
N352 C349 1.391 . S
N352 C353 1.388 . S
C353 H324 0.930 . S
C353 C348 1.391 . S
C353 N352 1.388 . S
Co354 O356 2.143 . S
Co354 O362 2.074 . S
Co354 O365 2.093 . S
Co354 O378 2.097 . S
Co354 N395 2.151 . S
Co354 N403 2.214 . S
Co355 O356 2.160 . S
Co355 O361 2.058 . S
Co355 O371 2.057 . S
Co355 O386 2.037 . S
Co355 N390 2.145 . S
Co355 N411 2.257 . S
O356 Co354 2.143 . S
O356 Co355 2.160 . S
C357 O358 1.278 . S
C357 O365 1.224 . S
O358 C357 1.278 . S
C359 O360 1.245 . S
C359 O371 1.232 . S
O360 C359 1.245 . S
O361 Co355 2.058 . S
O361 C387 1.269 . S
O362 Co354 2.074 . S
O362 C387 1.257 . S
H363 C388 0.930 . S
H364 C394 0.930 . S
O365 Co354 2.093 . S
O365 C357 1.224 . S
H366 C398 0.929 . S
H367 C400 0.930 . S
H368 C401 0.930 . S
H369 C399 0.929 . S
H370 C402 0.928 . S
O371 Co355 2.057 . S
O371 C359 1.232 . S
H372 C391 0.929 . S
H373 C392 0.929 . S
H374 C404 0.931 . S
H375 C396 0.929 . S
H376 C405 0.930 . S
H377 C397 0.931 . S
O378 Co354 2.097 . S
O378 C406 1.214 . S
H379 C407 0.929 . S
H380 C408 0.929 . S
H381 C409 0.930 . S
H382 C410 0.929 . S
H383 C412 0.930 . S
H384 C389 0.930 . S
H385 C393 0.930 . S
O386 Co355 2.037 . S
O386 C406 1.234 . S
C387 O361 1.269 . S
C387 O362 1.257 . S
C388 H363 0.930 . S
C388 C391 1.388 . S
C388 C393 1.418 . S
C389 H384 0.930 . S
C389 C392 1.404 . S
C389 C393 1.353 . S
N390 Co355 2.145 . S
N390 C391 1.397 . S
N390 C392 1.334 . S
C391 H372 0.929 . S
C391 C388 1.388 . S
C391 N390 1.397 . S
C392 H373 0.929 . S
C392 C389 1.404 . S
C392 N390 1.334 . S
C393 H385 0.930 . S
C393 C388 1.418 . S
C393 C389 1.353 . S
C394 H364 0.930 . S
C394 N395 1.330 . S
C394 C396 1.446 . S
N395 Co354 2.151 . S
N395 C394 1.330 . S
N395 C399 1.418 . S
C396 H375 0.929 . S
C396 C394 1.446 . S
C396 C397 1.332 . S
C397 H377 0.931 . S
C397 C396 1.332 . S
C397 C398 1.267 . S
C398 H366 0.929 . S
C398 C397 1.267 . S
C398 C399 1.251 . S
C399 H369 0.929 . S
C399 N395 1.418 . S
C399 C398 1.251 . S
C400 H367 0.930 . S
C400 C402 1.406 . S
C400 C405 1.261 . S
C401 H368 0.930 . S
C401 N403 1.325 . S
C401 C404 1.357 . S
C402 H370 0.928 . S
C402 C400 1.406 . S
C402 N403 1.261 . S
N403 Co354 2.214 . S
N403 C401 1.325 . S
N403 C402 1.261 . S
C404 H374 0.931 . S
C404 C401 1.357 . S
C404 C405 1.312 . S
C405 H376 0.930 . S
C405 C400 1.261 . S
C405 C404 1.312 . S
C406 O378 1.214 . S
C406 O386 1.234 . S
C407 H379 0.929 . S
C407 C410 1.391 . S
C407 C412 1.391 . S
C408 H380 0.929 . S
C408 C409 1.390 . S
C408 N411 1.391 . S
C409 H381 0.930 . S
C409 C408 1.390 . S
C409 C410 1.392 . S
C410 H382 0.929 . S
C410 C407 1.391 . S
C410 C409 1.392 . S
N411 Co355 2.257 . S
N411 C408 1.391 . S
N411 C412 1.388 . S
C412 H383 0.930 . S
C412 C407 1.391 . S
C412 N411 1.388 . S
Co413 O415 2.143 . S
Co413 O421 2.074 . S
Co413 O424 2.093 . S
Co413 O437 2.097 . S
Co413 N454 2.151 . S
Co413 N462 2.214 . S
Co414 O415 2.160 . S
Co414 O420 2.058 . S
Co414 O430 2.057 . S
Co414 O445 2.037 . S
Co414 N449 2.145 . S
Co414 N470 2.257 . S
O415 Co413 2.143 . S
O415 Co414 2.160 . S
C416 O417 1.278 . S
C416 O424 1.224 . S
O417 C416 1.278 . S
C418 O419 1.245 . S
C418 O430 1.232 . S
O419 C418 1.245 . S
O420 Co414 2.058 . S
O420 C446 1.269 . S
O421 Co413 2.074 . S
O421 C446 1.257 . S
H422 C447 0.930 . S
H423 C453 0.930 . S
O424 Co413 2.093 . S
O424 C416 1.224 . S
H425 C457 0.929 . S
H426 C459 0.930 . S
H427 C460 0.930 . S
H428 C458 0.929 . S
H429 C461 0.928 . S
O430 Co414 2.057 . S
O430 C418 1.232 . S
H431 C450 0.929 . S
H432 C451 0.929 . S
H433 C463 0.931 . S
H434 C455 0.929 . S
H435 C464 0.930 . S
H436 C456 0.931 . S
O437 Co413 2.097 . S
O437 C465 1.214 . S
H438 C466 0.929 . S
H439 C467 0.929 . S
H440 C468 0.930 . S
H441 C469 0.929 . S
H442 C471 0.930 . S
H443 C448 0.930 . S
H444 C452 0.930 . S
O445 Co414 2.037 . S
O445 C465 1.234 . S
C446 O420 1.269 . S
C446 O421 1.257 . S
C447 H422 0.930 . S
C447 C450 1.388 . S
C447 C452 1.418 . S
C448 H443 0.930 . S
C448 C451 1.404 . S
C448 C452 1.353 . S
N449 Co414 2.145 . S
N449 C450 1.397 . S
N449 C451 1.334 . S
C450 H431 0.929 . S
C450 C447 1.388 . S
C450 N449 1.397 . S
C451 H432 0.929 . S
C451 C448 1.404 . S
C451 N449 1.334 . S
C452 H444 0.930 . S
C452 C447 1.418 . S
C452 C448 1.353 . S
C453 H423 0.930 . S
C453 N454 1.330 . S
C453 C455 1.446 . S
N454 Co413 2.151 . S
N454 C453 1.330 . S
N454 C458 1.418 . S
C455 H434 0.929 . S
C455 C453 1.446 . S
C455 C456 1.332 . S
C456 H436 0.931 . S
C456 C455 1.332 . S
C456 C457 1.267 . S
C457 H425 0.929 . S
C457 C456 1.267 . S
C457 C458 1.251 . S
C458 H428 0.929 . S
C458 N454 1.418 . S
C458 C457 1.251 . S
C459 H426 0.930 . S
C459 C461 1.406 . S
C459 C464 1.261 . S
C460 H427 0.930 . S
C460 N462 1.325 . S
C460 C463 1.357 . S
C461 H429 0.928 . S
C461 C459 1.406 . S
C461 N462 1.261 . S
N462 Co413 2.214 . S
N462 C460 1.325 . S
N462 C461 1.261 . S
C463 H433 0.931 . S
C463 C460 1.357 . S
C463 C464 1.312 . S
C464 H435 0.930 . S
C464 C459 1.261 . S
C464 C463 1.312 . S
C465 O437 1.214 . S
C465 O445 1.234 . S
C466 H438 0.929 . S
C466 C469 1.391 . S
C466 C471 1.391 . S
C467 H439 0.929 . S
C467 C468 1.390 . S
C467 N470 1.391 . S
C468 H440 0.930 . S
C468 C467 1.390 . S
C468 C469 1.392 . S
C469 H441 0.929 . S
C469 C466 1.391 . S
C469 C468 1.392 . S
N470 Co414 2.257 . S
N470 C467 1.391 . S
N470 C471 1.388 . S
C471 H442 0.930 . S
C471 C466 1.391 . S
C471 N470 1.388 . S
Co472 O474 2.143 . S
Co472 O480 2.074 . S
Co472 O483 2.093 . S
Co472 O496 2.097 . S
Co472 N513 2.151 . S
Co472 N521 2.214 . S
Co473 O474 2.160 . S
Co473 O479 2.058 . S
Co473 O489 2.057 . S
Co473 O504 2.037 . S
Co473 N508 2.145 . S
Co473 N529 2.257 . S
O474 Co472 2.143 . S
O474 Co473 2.160 . S
C475 O476 1.278 . S
C475 O483 1.224 . S
O476 C475 1.278 . S
C477 O478 1.245 . S
C477 O489 1.232 . S
O478 C477 1.245 . S
O479 Co473 2.058 . S
O479 C505 1.269 . S
O480 Co472 2.074 . S
O480 C505 1.257 . S
H481 C506 0.930 . S
H482 C512 0.930 . S
O483 Co472 2.093 . S
O483 C475 1.224 . S
H484 C516 0.929 . S
H485 C518 0.930 . S
H486 C519 0.930 . S
H487 C517 0.929 . S
H488 C520 0.928 . S
O489 Co473 2.057 . S
O489 C477 1.232 . S
H490 C509 0.929 . S
H491 C510 0.929 . S
H492 C522 0.931 . S
H493 C514 0.929 . S
H494 C523 0.930 . S
H495 C515 0.931 . S
O496 Co472 2.097 . S
O496 C524 1.214 . S
H497 C525 0.929 . S
H498 C526 0.929 . S
H499 C527 0.930 . S
H500 C528 0.929 . S
H501 C530 0.930 . S
H502 C507 0.930 . S
H503 C511 0.930 . S
O504 Co473 2.037 . S
O504 C524 1.234 . S
C505 O479 1.269 . S
C505 O480 1.257 . S
C506 H481 0.930 . S
C506 C509 1.388 . S
C506 C511 1.418 . S
C507 H502 0.930 . S
C507 C510 1.404 . S
C507 C511 1.353 . S
N508 Co473 2.145 . S
N508 C509 1.397 . S
N508 C510 1.334 . S
C509 H490 0.929 . S
C509 C506 1.388 . S
C509 N508 1.397 . S
C510 H491 0.929 . S
C510 C507 1.404 . S
C510 N508 1.334 . S
C511 H503 0.930 . S
C511 C506 1.418 . S
C511 C507 1.353 . S
C512 H482 0.930 . S
C512 N513 1.330 . S
C512 C514 1.446 . S
N513 Co472 2.151 . S
N513 C512 1.330 . S
N513 C517 1.418 . S
C514 H493 0.929 . S
C514 C512 1.446 . S
C514 C515 1.332 . S
C515 H495 0.931 . S
C515 C514 1.332 . S
C515 C516 1.267 . S
C516 H484 0.929 . S
C516 C515 1.267 . S
C516 C517 1.251 . S
C517 H487 0.929 . S
C517 N513 1.418 . S
C517 C516 1.251 . S
C518 H485 0.930 . S
C518 C520 1.406 . S
C518 C523 1.261 . S
C519 H486 0.930 . S
C519 N521 1.325 . S
C519 C522 1.357 . S
C520 H488 0.928 . S
C520 C518 1.406 . S
C520 N521 1.261 . S
N521 Co472 2.214 . S
N521 C519 1.325 . S
N521 C520 1.261 . S
C522 H492 0.931 . S
C522 C519 1.357 . S
C522 C523 1.312 . S
C523 H494 0.930 . S
C523 C518 1.261 . S
C523 C522 1.312 . S
C524 O496 1.214 . S
C524 O504 1.234 . S
C525 H497 0.929 . S
C525 C528 1.391 . S
C525 C530 1.391 . S
C526 H498 0.929 . S
C526 C527 1.390 . S
C526 N529 1.391 . S
C527 H499 0.930 . S
C527 C526 1.390 . S
C527 C528 1.392 . S
C528 H500 0.929 . S
C528 C525 1.391 . S
C528 C527 1.392 . S
N529 Co473 2.257 . S
N529 C526 1.391 . S
N529 C530 1.388 . S
C530 H501 0.930 . S
C530 C525 1.391 . S
C530 N529 1.388 . S
Co531 O533 2.143 . S
Co531 O539 2.074 . S
Co531 O542 2.093 . S
Co531 O555 2.097 . S
Co531 N572 2.151 . S
Co531 N580 2.214 . S
Co532 O533 2.160 . S
Co532 O538 2.058 . S
Co532 O548 2.057 . S
Co532 O563 2.037 . S
Co532 N567 2.145 . S
Co532 N588 2.257 . S
O533 Co531 2.143 . S
O533 Co532 2.160 . S
C534 O535 1.278 . S
C534 O542 1.224 . S
O535 C534 1.278 . S
C536 O537 1.245 . S
C536 O548 1.232 . S
O537 C536 1.245 . S
O538 Co532 2.058 . S
O538 C564 1.269 . S
O539 Co531 2.074 . S
O539 C564 1.257 . S
H540 C565 0.930 . S
H541 C571 0.930 . S
O542 Co531 2.093 . S
O542 C534 1.224 . S
H543 C575 0.929 . S
H544 C577 0.930 . S
H545 C578 0.930 . S
H546 C576 0.929 . S
H547 C579 0.928 . S
O548 Co532 2.057 . S
O548 C536 1.232 . S
H549 C568 0.929 . S
H550 C569 0.929 . S
H551 C581 0.931 . S
H552 C573 0.929 . S
H553 C582 0.930 . S
H554 C574 0.931 . S
O555 Co531 2.097 . S
O555 C583 1.214 . S
H556 C584 0.929 . S
H557 C585 0.929 . S
H558 C586 0.930 . S
H559 C587 0.929 . S
H560 C589 0.930 . S
H561 C566 0.930 . S
H562 C570 0.930 . S
O563 Co532 2.037 . S
O563 C583 1.234 . S
C564 O538 1.269 . S
C564 O539 1.257 . S
C565 H540 0.930 . S
C565 C568 1.388 . S
C565 C570 1.418 . S
C566 H561 0.930 . S
C566 C569 1.404 . S
C566 C570 1.353 . S
N567 Co532 2.145 . S
N567 C568 1.397 . S
N567 C569 1.334 . S
C568 H549 0.929 . S
C568 C565 1.388 . S
C568 N567 1.397 . S
C569 H550 0.929 . S
C569 C566 1.404 . S
C569 N567 1.334 . S
C570 H562 0.930 . S
C570 C565 1.418 . S
C570 C566 1.353 . S
C571 H541 0.930 . S
C571 N572 1.330 . S
C571 C573 1.446 . S
N572 Co531 2.151 . S
N572 C571 1.330 . S
N572 C576 1.418 . S
C573 H552 0.929 . S
C573 C571 1.446 . S
C573 C574 1.332 . S
C574 H554 0.931 . S
C574 C573 1.332 . S
C574 C575 1.267 . S
C575 H543 0.929 . S
C575 C574 1.267 . S
C575 C576 1.251 . S
C576 H546 0.929 . S
C576 N572 1.418 . S
C576 C575 1.251 . S
C577 H544 0.930 . S
C577 C579 1.406 . S
C577 C582 1.261 . S
C578 H545 0.930 . S
C578 N580 1.325 . S
C578 C581 1.357 . S
C579 H547 0.928 . S
C579 C577 1.406 . S
C579 N580 1.261 . S
N580 Co531 2.214 . S
N580 C578 1.325 . S
N580 C579 1.261 . S
C581 H551 0.931 . S
C581 C578 1.357 . S
C581 C582 1.312 . S
C582 H553 0.930 . S
C582 C577 1.261 . S
C582 C581 1.312 . S
C583 O555 1.214 . S
C583 O563 1.234 . S
C584 H556 0.929 . S
C584 C587 1.391 . S
C584 C589 1.391 . S
C585 H557 0.929 . S
C585 C586 1.390 . S
C585 N588 1.391 . S
C586 H558 0.930 . S
C586 C585 1.390 . S
C586 C587 1.392 . S
C587 H559 0.929 . S
C587 C584 1.391 . S
C587 C586 1.392 . S
N588 Co532 2.257 . S
N588 C585 1.391 . S
N588 C589 1.388 . S
C589 H560 0.930 . S
C589 C584 1.391 . S
C589 N588 1.388 . S
Co590 O592 2.143 . S
Co590 O598 2.074 . S
Co590 O601 2.093 . S
Co590 O614 2.097 . S
Co590 N631 2.151 . S
Co590 N639 2.214 . S
Co591 O592 2.160 . S
Co591 O597 2.058 . S
Co591 O607 2.057 . S
Co591 O622 2.037 . S
Co591 N626 2.145 . S
Co591 N647 2.257 . S
O592 Co590 2.143 . S
O592 Co591 2.160 . S
C593 O594 1.278 . S
C593 O601 1.224 . S
O594 C593 1.278 . S
C595 O596 1.245 . S
C595 O607 1.232 . S
O596 C595 1.245 . S
O597 Co591 2.058 . S
O597 C623 1.269 . S
O598 Co590 2.074 . S
O598 C623 1.257 . S
H599 C624 0.930 . S
H600 C630 0.930 . S
O601 Co590 2.093 . S
O601 C593 1.224 . S
H602 C634 0.929 . S
H603 C636 0.930 . S
H604 C637 0.930 . S
H605 C635 0.929 . S
H606 C638 0.928 . S
O607 Co591 2.057 . S
O607 C595 1.232 . S
H608 C627 0.929 . S
H609 C628 0.929 . S
H610 C640 0.931 . S
H611 C632 0.929 . S
H612 C641 0.930 . S
H613 C633 0.931 . S
O614 Co590 2.097 . S
O614 C642 1.214 . S
H615 C643 0.929 . S
H616 C644 0.929 . S
H617 C645 0.930 . S
H618 C646 0.929 . S
H619 C648 0.930 . S
H620 C625 0.930 . S
H621 C629 0.930 . S
O622 Co591 2.037 . S
O622 C642 1.234 . S
C623 O597 1.269 . S
C623 O598 1.257 . S
C624 H599 0.930 . S
C624 C627 1.388 . S
C624 C629 1.418 . S
C625 H620 0.930 . S
C625 C628 1.404 . S
C625 C629 1.353 . S
N626 Co591 2.145 . S
N626 C627 1.397 . S
N626 C628 1.334 . S
C627 H608 0.929 . S
C627 C624 1.388 . S
C627 N626 1.397 . S
C628 H609 0.929 . S
C628 C625 1.404 . S
C628 N626 1.334 . S
C629 H621 0.930 . S
C629 C624 1.418 . S
C629 C625 1.353 . S
C630 H600 0.930 . S
C630 N631 1.330 . S
C630 C632 1.446 . S
N631 Co590 2.151 . S
N631 C630 1.330 . S
N631 C635 1.418 . S
C632 H611 0.929 . S
C632 C630 1.446 . S
C632 C633 1.332 . S
C633 H613 0.931 . S
C633 C632 1.332 . S
C633 C634 1.267 . S
C634 H602 0.929 . S
C634 C633 1.267 . S
C634 C635 1.251 . S
C635 H605 0.929 . S
C635 N631 1.418 . S
C635 C634 1.251 . S
C636 H603 0.930 . S
C636 C638 1.406 . S
C636 C641 1.261 . S
C637 H604 0.930 . S
C637 N639 1.325 . S
C637 C640 1.357 . S
C638 H606 0.928 . S
C638 C636 1.406 . S
C638 N639 1.261 . S
N639 Co590 2.214 . S
N639 C637 1.325 . S
N639 C638 1.261 . S
C640 H610 0.931 . S
C640 C637 1.357 . S
C640 C641 1.312 . S
C641 H612 0.930 . S
C641 C636 1.261 . S
C641 C640 1.312 . S
C642 O614 1.214 . S
C642 O622 1.234 . S
C643 H615 0.929 . S
C643 C646 1.391 . S
C643 C648 1.391 . S
C644 H616 0.929 . S
C644 C645 1.390 . S
C644 N647 1.391 . S
C645 H617 0.930 . S
C645 C644 1.390 . S
C645 C646 1.392 . S
C646 H618 0.929 . S
C646 C643 1.391 . S
C646 C645 1.392 . S
N647 Co591 2.257 . S
N647 C644 1.391 . S
N647 C648 1.388 . S
C648 H619 0.930 . S
C648 C643 1.391 . S
C648 N647 1.388 . S
Co649 O651 2.143 . S
Co649 O657 2.074 . S
Co649 O660 2.093 . S
Co649 O673 2.097 . S
Co649 N690 2.151 . S
Co649 N698 2.214 . S
Co650 O651 2.160 . S
Co650 O656 2.058 . S
Co650 O666 2.057 . S
Co650 O681 2.037 . S
Co650 N685 2.145 . S
Co650 N706 2.257 . S
O651 Co649 2.143 . S
O651 Co650 2.160 . S
C652 O653 1.278 . S
C652 O660 1.224 . S
O653 C652 1.278 . S
C654 O655 1.245 . S
C654 O666 1.232 . S
O655 C654 1.245 . S
O656 Co650 2.058 . S
O656 C682 1.269 . S
O657 Co649 2.074 . S
O657 C682 1.257 . S
H658 C683 0.930 . S
H659 C689 0.930 . S
O660 Co649 2.093 . S
O660 C652 1.224 . S
H661 C693 0.929 . S
H662 C695 0.930 . S
H663 C696 0.930 . S
H664 C694 0.929 . S
H665 C697 0.928 . S
O666 Co650 2.057 . S
O666 C654 1.232 . S
H667 C686 0.929 . S
H668 C687 0.929 . S
H669 C699 0.931 . S
H670 C691 0.929 . S
H671 C700 0.930 . S
H672 C692 0.931 . S
O673 Co649 2.097 . S
O673 C701 1.214 . S
H674 C702 0.929 . S
H675 C703 0.929 . S
H676 C704 0.930 . S
H677 C705 0.929 . S
H678 C707 0.930 . S
H679 C684 0.930 . S
H680 C688 0.930 . S
O681 Co650 2.037 . S
O681 C701 1.234 . S
C682 O656 1.269 . S
C682 O657 1.257 . S
C683 H658 0.930 . S
C683 C686 1.388 . S
C683 C688 1.418 . S
C684 H679 0.930 . S
C684 C687 1.404 . S
C684 C688 1.353 . S
N685 Co650 2.145 . S
N685 C686 1.397 . S
N685 C687 1.334 . S
C686 H667 0.929 . S
C686 C683 1.388 . S
C686 N685 1.397 . S
C687 H668 0.929 . S
C687 C684 1.404 . S
C687 N685 1.334 . S
C688 H680 0.930 . S
C688 C683 1.418 . S
C688 C684 1.353 . S
C689 H659 0.930 . S
C689 N690 1.330 . S
C689 C691 1.446 . S
N690 Co649 2.151 . S
N690 C689 1.330 . S
N690 C694 1.418 . S
C691 H670 0.929 . S
C691 C689 1.446 . S
C691 C692 1.332 . S
C692 H672 0.931 . S
C692 C691 1.332 . S
C692 C693 1.267 . S
C693 H661 0.929 . S
C693 C692 1.267 . S
C693 C694 1.251 . S
C694 H664 0.929 . S
C694 N690 1.418 . S
C694 C693 1.251 . S
C695 H662 0.930 . S
C695 C697 1.406 . S
C695 C700 1.261 . S
C696 H663 0.930 . S
C696 N698 1.325 . S
C696 C699 1.357 . S
C697 H665 0.928 . S
C697 C695 1.406 . S
C697 N698 1.261 . S
N698 Co649 2.214 . S
N698 C696 1.325 . S
N698 C697 1.261 . S
C699 H669 0.931 . S
C699 C696 1.357 . S
C699 C700 1.312 . S
C700 H671 0.930 . S
C700 C695 1.261 . S
C700 C699 1.312 . S
C701 O673 1.214 . S
C701 O681 1.234 . S
C702 H674 0.929 . S
C702 C705 1.391 . S
C702 C707 1.391 . S
C703 H675 0.929 . S
C703 C704 1.390 . S
C703 N706 1.391 . S
C704 H676 0.930 . S
C704 C703 1.390 . S
C704 C705 1.392 . S
C705 H677 0.929 . S
C705 C702 1.391 . S
C705 C704 1.392 . S
N706 Co650 2.257 . S
N706 C703 1.391 . S
N706 C707 1.388 . S
C707 H678 0.930 . S
C707 C702 1.391 . S
C707 N706 1.388 . S
Co708 O710 2.143 . S
Co708 O716 2.074 . S
Co708 O719 2.093 . S
Co708 O732 2.097 . S
Co708 N749 2.151 . S
Co708 N757 2.214 . S
Co709 O710 2.160 . S
Co709 O715 2.058 . S
Co709 O725 2.057 . S
Co709 O740 2.037 . S
Co709 N744 2.145 . S
Co709 N765 2.257 . S
O710 Co708 2.143 . S
O710 Co709 2.160 . S
C711 O712 1.278 . S
C711 O719 1.224 . S
O712 C711 1.278 . S
C713 O714 1.245 . S
C713 O725 1.232 . S
O714 C713 1.245 . S
O715 Co709 2.058 . S
O715 C741 1.269 . S
O716 Co708 2.074 . S
O716 C741 1.257 . S
H717 C742 0.930 . S
H718 C748 0.930 . S
O719 Co708 2.093 . S
O719 C711 1.224 . S
H720 C752 0.929 . S
H721 C754 0.930 . S
H722 C755 0.930 . S
H723 C753 0.929 . S
H724 C756 0.928 . S
O725 Co709 2.057 . S
O725 C713 1.232 . S
H726 C745 0.929 . S
H727 C746 0.929 . S
H728 C758 0.931 . S
H729 C750 0.929 . S
H730 C759 0.930 . S
H731 C751 0.931 . S
O732 Co708 2.097 . S
O732 C760 1.214 . S
H733 C761 0.929 . S
H734 C762 0.929 . S
H735 C763 0.930 . S
H736 C764 0.929 . S
H737 C766 0.930 . S
H738 C743 0.930 . S
H739 C747 0.930 . S
O740 Co709 2.037 . S
O740 C760 1.234 . S
C741 O715 1.269 . S
C741 O716 1.257 . S
C742 H717 0.930 . S
C742 C745 1.388 . S
C742 C747 1.418 . S
C743 H738 0.930 . S
C743 C746 1.404 . S
C743 C747 1.353 . S
N744 Co709 2.145 . S
N744 C745 1.397 . S
N744 C746 1.334 . S
C745 H726 0.929 . S
C745 C742 1.388 . S
C745 N744 1.397 . S
C746 H727 0.929 . S
C746 C743 1.404 . S
C746 N744 1.334 . S
C747 H739 0.930 . S
C747 C742 1.418 . S
C747 C743 1.353 . S
C748 H718 0.930 . S
C748 N749 1.330 . S
C748 C750 1.446 . S
N749 Co708 2.151 . S
N749 C748 1.330 . S
N749 C753 1.418 . S
C750 H729 0.929 . S
C750 C748 1.446 . S
C750 C751 1.332 . S
C751 H731 0.931 . S
C751 C750 1.332 . S
C751 C752 1.267 . S
C752 H720 0.929 . S
C752 C751 1.267 . S
C752 C753 1.251 . S
C753 H723 0.929 . S
C753 N749 1.418 . S
C753 C752 1.251 . S
C754 H721 0.930 . S
C754 C756 1.406 . S
C754 C759 1.261 . S
C755 H722 0.930 . S
C755 N757 1.325 . S
C755 C758 1.357 . S
C756 H724 0.928 . S
C756 C754 1.406 . S
C756 N757 1.261 . S
N757 Co708 2.214 . S
N757 C755 1.325 . S
N757 C756 1.261 . S
C758 H728 0.931 . S
C758 C755 1.357 . S
C758 C759 1.312 . S
C759 H730 0.930 . S
C759 C754 1.261 . S
C759 C758 1.312 . S
C760 O732 1.214 . S
C760 O740 1.234 . S
C761 H733 0.929 . S
C761 C764 1.391 . S
C761 C766 1.391 . S
C762 H734 0.929 . S
C762 C763 1.390 . S
C762 N765 1.391 . S
C763 H735 0.930 . S
C763 C762 1.390 . S
C763 C764 1.392 . S
C764 H736 0.929 . S
C764 C761 1.391 . S
C764 C763 1.392 . S
N765 Co709 2.257 . S
N765 C762 1.391 . S
N765 C766 1.388 . S
C766 H737 0.930 . S
C766 C761 1.391 . S
C766 N765 1.388 . S
Co767 O769 2.143 . S
Co767 O775 2.074 . S
Co767 O778 2.093 . S
Co767 O791 2.097 . S
Co767 N808 2.151 . S
Co767 N816 2.214 . S
Co768 O769 2.160 . S
Co768 O774 2.058 . S
Co768 O784 2.057 . S
Co768 O799 2.037 . S
Co768 N803 2.145 . S
Co768 N824 2.257 . S
O769 Co767 2.143 . S
O769 Co768 2.160 . S
C770 O771 1.278 . S
C770 O778 1.224 . S
O771 C770 1.278 . S
C772 O773 1.245 . S
C772 O784 1.232 . S
O773 C772 1.245 . S
O774 Co768 2.058 . S
O774 C800 1.269 . S
O775 Co767 2.074 . S
O775 C800 1.257 . S
H776 C801 0.930 . S
H777 C807 0.930 . S
O778 Co767 2.093 . S
O778 C770 1.224 . S
H779 C811 0.929 . S
H780 C813 0.930 . S
H781 C814 0.930 . S
H782 C812 0.929 . S
H783 C815 0.928 . S
O784 Co768 2.057 . S
O784 C772 1.232 . S
H785 C804 0.929 . S
H786 C805 0.929 . S
H787 C817 0.931 . S
H788 C809 0.929 . S
H789 C818 0.930 . S
H790 C810 0.931 . S
O791 Co767 2.097 . S
O791 C819 1.214 . S
H792 C820 0.929 . S
H793 C821 0.929 . S
H794 C822 0.930 . S
H795 C823 0.929 . S
H796 C825 0.930 . S
H797 C802 0.930 . S
H798 C806 0.930 . S
O799 Co768 2.037 . S
O799 C819 1.234 . S
C800 O774 1.269 . S
C800 O775 1.257 . S
C801 H776 0.930 . S
C801 C804 1.388 . S
C801 C806 1.418 . S
C802 H797 0.930 . S
C802 C805 1.404 . S
C802 C806 1.353 . S
N803 Co768 2.145 . S
N803 C804 1.397 . S
N803 C805 1.334 . S
C804 H785 0.929 . S
C804 C801 1.388 . S
C804 N803 1.397 . S
C805 H786 0.929 . S
C805 C802 1.404 . S
C805 N803 1.334 . S
C806 H798 0.930 . S
C806 C801 1.418 . S
C806 C802 1.353 . S
C807 H777 0.930 . S
C807 N808 1.330 . S
C807 C809 1.446 . S
N808 Co767 2.151 . S
N808 C807 1.330 . S
N808 C812 1.418 . S
C809 H788 0.929 . S
C809 C807 1.446 . S
C809 C810 1.332 . S
C810 H790 0.931 . S
C810 C809 1.332 . S
C810 C811 1.267 . S
C811 H779 0.929 . S
C811 C810 1.267 . S
C811 C812 1.251 . S
C812 H782 0.929 . S
C812 N808 1.418 . S
C812 C811 1.251 . S
C813 H780 0.930 . S
C813 C815 1.406 . S
C813 C818 1.261 . S
C814 H781 0.930 . S
C814 N816 1.325 . S
C814 C817 1.357 . S
C815 H783 0.928 . S
C815 C813 1.406 . S
C815 N816 1.261 . S
N816 Co767 2.214 . S
N816 C814 1.325 . S
N816 C815 1.261 . S
C817 H787 0.931 . S
C817 C814 1.357 . S
C817 C818 1.312 . S
C818 H789 0.930 . S
C818 C813 1.261 . S
C818 C817 1.312 . S
C819 O791 1.214 . S
C819 O799 1.234 . S
C820 H792 0.929 . S
C820 C823 1.391 . S
C820 C825 1.391 . S
C821 H793 0.929 . S
C821 C822 1.390 . S
C821 N824 1.391 . S
C822 H794 0.930 . S
C822 C821 1.390 . S
C822 C823 1.392 . S
C823 H795 0.929 . S
C823 C820 1.391 . S
C823 C822 1.392 . S
N824 Co768 2.257 . S
N824 C821 1.391 . S
N824 C825 1.388 . S
C825 H796 0.930 . S
C825 C820 1.391 . S
C825 N824 1.388 . S
Co826 O828 2.143 . S
Co826 O834 2.074 . S
Co826 O837 2.093 . S
Co826 O850 2.097 . S
Co826 N867 2.151 . S
Co826 N875 2.214 . S
Co827 O828 2.160 . S
Co827 O833 2.058 . S
Co827 O843 2.057 . S
Co827 O858 2.037 . S
Co827 N862 2.145 . S
Co827 N883 2.257 . S
O828 Co826 2.143 . S
O828 Co827 2.160 . S
C829 O830 1.278 . S
C829 O837 1.224 . S
O830 C829 1.278 . S
C831 O832 1.245 . S
C831 O843 1.232 . S
O832 C831 1.245 . S
O833 Co827 2.058 . S
O833 C859 1.269 . S
O834 Co826 2.074 . S
O834 C859 1.257 . S
H835 C860 0.930 . S
H836 C866 0.930 . S
O837 Co826 2.093 . S
O837 C829 1.224 . S
H838 C870 0.929 . S
H839 C872 0.930 . S
H840 C873 0.930 . S
H841 C871 0.929 . S
H842 C874 0.928 . S
O843 Co827 2.057 . S
O843 C831 1.232 . S
H844 C863 0.929 . S
H845 C864 0.929 . S
H846 C876 0.931 . S
H847 C868 0.929 . S
H848 C877 0.930 . S
H849 C869 0.931 . S
O850 Co826 2.097 . S
O850 C878 1.214 . S
H851 C879 0.929 . S
H852 C880 0.929 . S
H853 C881 0.930 . S
H854 C882 0.929 . S
H855 C884 0.930 . S
H856 C861 0.930 . S
H857 C865 0.930 . S
O858 Co827 2.037 . S
O858 C878 1.234 . S
C859 O833 1.269 . S
C859 O834 1.257 . S
C860 H835 0.930 . S
C860 C863 1.388 . S
C860 C865 1.418 . S
C861 H856 0.930 . S
C861 C864 1.404 . S
C861 C865 1.353 . S
N862 Co827 2.145 . S
N862 C863 1.397 . S
N862 C864 1.334 . S
C863 H844 0.929 . S
C863 C860 1.388 . S
C863 N862 1.397 . S
C864 H845 0.929 . S
C864 C861 1.404 . S
C864 N862 1.334 . S
C865 H857 0.930 . S
C865 C860 1.418 . S
C865 C861 1.353 . S
C866 H836 0.930 . S
C866 N867 1.330 . S
C866 C868 1.446 . S
N867 Co826 2.151 . S
N867 C866 1.330 . S
N867 C871 1.418 . S
C868 H847 0.929 . S
C868 C866 1.446 . S
C868 C869 1.332 . S
C869 H849 0.931 . S
C869 C868 1.332 . S
C869 C870 1.267 . S
C870 H838 0.929 . S
C870 C869 1.267 . S
C870 C871 1.251 . S
C871 H841 0.929 . S
C871 N867 1.418 . S
C871 C870 1.251 . S
C872 H839 0.930 . S
C872 C874 1.406 . S
C872 C877 1.261 . S
C873 H840 0.930 . S
C873 N875 1.325 . S
C873 C876 1.357 . S
C874 H842 0.928 . S
C874 C872 1.406 . S
C874 N875 1.261 . S
N875 Co826 2.214 . S
N875 C873 1.325 . S
N875 C874 1.261 . S
C876 H846 0.931 . S
C876 C873 1.357 . S
C876 C877 1.312 . S
C877 H848 0.930 . S
C877 C872 1.261 . S
C877 C876 1.312 . S
C878 O850 1.214 . S
C878 O858 1.234 . S
C879 H851 0.929 . S
C879 C882 1.391 . S
C879 C884 1.391 . S
C880 H852 0.929 . S
C880 C881 1.390 . S
C880 N883 1.391 . S
C881 H853 0.930 . S
C881 C880 1.390 . S
C881 C882 1.392 . S
C882 H854 0.929 . S
C882 C879 1.391 . S
C882 C881 1.392 . S
N883 Co827 2.257 . S
N883 C880 1.391 . S
N883 C884 1.388 . S
C884 H855 0.930 . S
C884 C879 1.391 . S
C884 N883 1.388 . S
Co885 O887 2.143 . S
Co885 O893 2.074 . S
Co885 O896 2.093 . S
Co885 O909 2.097 . S
Co885 N926 2.151 . S
Co885 N934 2.214 . S
Co886 O887 2.160 . S
Co886 O892 2.058 . S
Co886 O902 2.057 . S
Co886 O917 2.037 . S
Co886 N921 2.145 . S
Co886 N942 2.257 . S
O887 Co885 2.143 . S
O887 Co886 2.160 . S
C888 O889 1.278 . S
C888 O896 1.224 . S
O889 C888 1.278 . S
C890 O891 1.245 . S
C890 O902 1.232 . S
O891 C890 1.245 . S
O892 Co886 2.058 . S
O892 C918 1.269 . S
O893 Co885 2.074 . S
O893 C918 1.257 . S
H894 C919 0.930 . S
H895 C925 0.930 . S
O896 Co885 2.093 . S
O896 C888 1.224 . S
H897 C929 0.929 . S
H898 C931 0.930 . S
H899 C932 0.930 . S
H900 C930 0.929 . S
H901 C933 0.928 . S
O902 Co886 2.057 . S
O902 C890 1.232 . S
H903 C922 0.929 . S
H904 C923 0.929 . S
H905 C935 0.931 . S
H906 C927 0.929 . S
H907 C936 0.930 . S
H908 C928 0.931 . S
O909 Co885 2.097 . S
O909 C937 1.214 . S
H910 C938 0.929 . S
H911 C939 0.929 . S
H912 C940 0.930 . S
H913 C941 0.929 . S
H914 C943 0.930 . S
H915 C920 0.930 . S
H916 C924 0.930 . S
O917 Co886 2.037 . S
O917 C937 1.234 . S
C918 O892 1.269 . S
C918 O893 1.257 . S
C919 H894 0.930 . S
C919 C922 1.388 . S
C919 C924 1.418 . S
C920 H915 0.930 . S
C920 C923 1.404 . S
C920 C924 1.353 . S
N921 Co886 2.145 . S
N921 C922 1.397 . S
N921 C923 1.334 . S
C922 H903 0.929 . S
C922 C919 1.388 . S
C922 N921 1.397 . S
C923 H904 0.929 . S
C923 C920 1.404 . S
C923 N921 1.334 . S
C924 H916 0.930 . S
C924 C919 1.418 . S
C924 C920 1.353 . S
C925 H895 0.930 . S
C925 N926 1.330 . S
C925 C927 1.446 . S
N926 Co885 2.151 . S
N926 C925 1.330 . S
N926 C930 1.418 . S
C927 H906 0.929 . S
C927 C925 1.446 . S
C927 C928 1.332 . S
C928 H908 0.931 . S
C928 C927 1.332 . S
C928 C929 1.267 . S
C929 H897 0.929 . S
C929 C928 1.267 . S
C929 C930 1.251 . S
C930 H900 0.929 . S
C930 N926 1.418 . S
C930 C929 1.251 . S
C931 H898 0.930 . S
C931 C933 1.406 . S
C931 C936 1.261 . S
C932 H899 0.930 . S
C932 N934 1.325 . S
C932 C935 1.357 . S
C933 H901 0.928 . S
C933 C931 1.406 . S
C933 N934 1.261 . S
N934 Co885 2.214 . S
N934 C932 1.325 . S
N934 C933 1.261 . S
C935 H905 0.931 . S
C935 C932 1.357 . S
C935 C936 1.312 . S
C936 H907 0.930 . S
C936 C931 1.261 . S
C936 C935 1.312 . S
C937 O909 1.214 . S
C937 O917 1.234 . S
C938 H910 0.929 . S
C938 C941 1.391 . S
C938 C943 1.391 . S
C939 H911 0.929 . S
C939 C940 1.390 . S
C939 N942 1.391 . S
C940 H912 0.930 . S
C940 C939 1.390 . S
C940 C941 1.392 . S
C941 H913 0.929 . S
C941 C938 1.391 . S
C941 C940 1.392 . S
N942 Co886 2.257 . S
N942 C939 1.391 . S
N942 C943 1.388 . S
C943 H914 0.930 . S
C943 C938 1.391 . S
C943 N942 1.388 . S
Co944 O946 2.143 . S
Co944 O952 2.074 . S
Co944 O955 2.093 . S
Co944 O968 2.097 . S
Co944 N985 2.151 . S
Co944 N993 2.214 . S
Co945 O946 2.160 . S
Co945 O951 2.058 . S
Co945 O961 2.057 . S
Co945 O976 2.037 . S
Co945 N980 2.145 . S
Co945 N1001 2.257 . S
O946 Co944 2.143 . S
O946 Co945 2.160 . S
C947 O948 1.278 . S
C947 O955 1.224 . S
O948 C947 1.278 . S
C949 O950 1.245 . S
C949 O961 1.232 . S
O950 C949 1.245 . S
O951 Co945 2.058 . S
O951 C977 1.269 . S
O952 Co944 2.074 . S
O952 C977 1.257 . S
H953 C978 0.930 . S
H954 C984 0.930 . S
O955 Co944 2.093 . S
O955 C947 1.224 . S
H956 C988 0.929 . S
H957 C990 0.930 . S
H958 C991 0.930 . S
H959 C989 0.929 . S
H960 C992 0.928 . S
O961 Co945 2.057 . S
O961 C949 1.232 . S
H962 C981 0.929 . S
H963 C982 0.929 . S
H964 C994 0.931 . S
H965 C986 0.929 . S
H966 C995 0.930 . S
H967 C987 0.931 . S
O968 Co944 2.097 . S
O968 C996 1.214 . S
H969 C997 0.929 . S
H970 C998 0.929 . S
H971 C999 0.930 . S
H972 C1000 0.929 . S
H973 C1002 0.930 . S
H974 C979 0.930 . S
H975 C983 0.930 . S
O976 Co945 2.037 . S
O976 C996 1.234 . S
C977 O951 1.269 . S
C977 O952 1.257 . S
C978 H953 0.930 . S
C978 C981 1.388 . S
C978 C983 1.418 . S
C979 H974 0.930 . S
C979 C982 1.404 . S
C979 C983 1.353 . S
N980 Co945 2.145 . S
N980 C981 1.397 . S
N980 C982 1.334 . S
C981 H962 0.929 . S
C981 C978 1.388 . S
C981 N980 1.397 . S
C982 H963 0.929 . S
C982 C979 1.404 . S
C982 N980 1.334 . S
C983 H975 0.930 . S
C983 C978 1.418 . S
C983 C979 1.353 . S
C984 H954 0.930 . S
C984 N985 1.330 . S
C984 C986 1.446 . S
N985 Co944 2.151 . S
N985 C984 1.330 . S
N985 C989 1.418 . S
C986 H965 0.929 . S
C986 C984 1.446 . S
C986 C987 1.332 . S
C987 H967 0.931 . S
C987 C986 1.332 . S
C987 C988 1.267 . S
C988 H956 0.929 . S
C988 C987 1.267 . S
C988 C989 1.251 . S
C989 H959 0.929 . S
C989 N985 1.418 . S
C989 C988 1.251 . S
C990 H957 0.930 . S
C990 C992 1.406 . S
C990 C995 1.261 . S
C991 H958 0.930 . S
C991 N993 1.325 . S
C991 C994 1.357 . S
C992 H960 0.928 . S
C992 C990 1.406 . S
C992 N993 1.261 . S
N993 Co944 2.214 . S
N993 C991 1.325 . S
N993 C992 1.261 . S
C994 H964 0.931 . S
C994 C991 1.357 . S
C994 C995 1.312 . S
C995 H966 0.930 . S
C995 C990 1.261 . S
C995 C994 1.312 . S
C996 O968 1.214 . S
C996 O976 1.234 . S
C997 H969 0.929 . S
C997 C1000 1.391 . S
C997 C1002 1.391 . S
C998 H970 0.929 . S
C998 C999 1.390 . S
C998 N1001 1.391 . S
C999 H971 0.930 . S
C999 C998 1.390 . S
C999 C1000 1.392 . S
C1000 H972 0.929 . S
C1000 C997 1.391 . S
C1000 C999 1.392 . S
N1001 Co945 2.257 . S
N1001 C998 1.391 . S
N1001 C1002 1.388 . S
C1002 H973 0.930 . S
C1002 C997 1.391 . S
C1002 N1001 1.388 . S
Co1003 O1005 2.143 . S
Co1003 O1011 2.074 . S
Co1003 O1014 2.093 . S
Co1003 O1027 2.097 . S
Co1003 N1044 2.151 . S
Co1003 N1052 2.214 . S
Co1004 O1005 2.160 . S
Co1004 O1010 2.058 . S
Co1004 O1020 2.057 . S
Co1004 O1035 2.037 . S
Co1004 N1039 2.145 . S
Co1004 N1060 2.257 . S
O1005 Co1003 2.143 . S
O1005 Co1004 2.160 . S
C1006 O1007 1.278 . S
C1006 O1014 1.224 . S
O1007 C1006 1.278 . S
C1008 O1009 1.245 . S
C1008 O1020 1.232 . S
O1009 C1008 1.245 . S
O1010 Co1004 2.058 . S
O1010 C1036 1.269 . S
O1011 Co1003 2.074 . S
O1011 C1036 1.257 . S
H1012 C1037 0.930 . S
H1013 C1043 0.930 . S
O1014 Co1003 2.093 . S
O1014 C1006 1.224 . S
H1015 C1047 0.929 . S
H1016 C1049 0.930 . S
H1017 C1050 0.930 . S
H1018 C1048 0.929 . S
H1019 C1051 0.928 . S
O1020 Co1004 2.057 . S
O1020 C1008 1.232 . S
H1021 C1040 0.929 . S
H1022 C1041 0.929 . S
H1023 C1053 0.931 . S
H1024 C1045 0.929 . S
H1025 C1054 0.930 . S
H1026 C1046 0.931 . S
O1027 Co1003 2.097 . S
O1027 C1055 1.214 . S
H1028 C1056 0.929 . S
H1029 C1057 0.929 . S
H1030 C1058 0.930 . S
H1031 C1059 0.929 . S
H1032 C1061 0.930 . S
H1033 C1038 0.930 . S
H1034 C1042 0.930 . S
O1035 Co1004 2.037 . S
O1035 C1055 1.234 . S
C1036 O1010 1.269 . S
C1036 O1011 1.257 . S
C1037 H1012 0.930 . S
C1037 C1040 1.388 . S
C1037 C1042 1.418 . S
C1038 H1033 0.930 . S
C1038 C1041 1.404 . S
C1038 C1042 1.353 . S
N1039 Co1004 2.145 . S
N1039 C1040 1.397 . S
N1039 C1041 1.334 . S
C1040 H1021 0.929 . S
C1040 C1037 1.388 . S
C1040 N1039 1.397 . S
C1041 H1022 0.929 . S
C1041 C1038 1.404 . S
C1041 N1039 1.334 . S
C1042 H1034 0.930 . S
C1042 C1037 1.418 . S
C1042 C1038 1.353 . S
C1043 H1013 0.930 . S
C1043 N1044 1.330 . S
C1043 C1045 1.446 . S
N1044 Co1003 2.151 . S
N1044 C1043 1.330 . S
N1044 C1048 1.418 . S
C1045 H1024 0.929 . S
C1045 C1043 1.446 . S
C1045 C1046 1.332 . S
C1046 H1026 0.931 . S
C1046 C1045 1.332 . S
C1046 C1047 1.267 . S
C1047 H1015 0.929 . S
C1047 C1046 1.267 . S
C1047 C1048 1.251 . S
C1048 H1018 0.929 . S
C1048 N1044 1.418 . S
C1048 C1047 1.251 . S
C1049 H1016 0.930 . S
C1049 C1051 1.406 . S
C1049 C1054 1.261 . S
C1050 H1017 0.930 . S
C1050 N1052 1.325 . S
C1050 C1053 1.357 . S
C1051 H1019 0.928 . S
C1051 C1049 1.406 . S
C1051 N1052 1.261 . S
N1052 Co1003 2.214 . S
N1052 C1050 1.325 . S
N1052 C1051 1.261 . S
C1053 H1023 0.931 . S
C1053 C1050 1.357 . S
C1053 C1054 1.312 . S
C1054 H1025 0.930 . S
C1054 C1049 1.261 . S
C1054 C1053 1.312 . S
C1055 O1027 1.214 . S
C1055 O1035 1.234 . S
C1056 H1028 0.929 . S
C1056 C1059 1.391 . S
C1056 C1061 1.391 . S
C1057 H1029 0.929 . S
C1057 C1058 1.390 . S
C1057 N1060 1.391 . S
C1058 H1030 0.930 . S
C1058 C1057 1.390 . S
C1058 C1059 1.392 . S
C1059 H1031 0.929 . S
C1059 C1056 1.391 . S
C1059 C1058 1.392 . S
N1060 Co1004 2.257 . S
N1060 C1057 1.391 . S
N1060 C1061 1.388 . S
C1061 H1032 0.930 . S
C1061 C1056 1.391 . S
C1061 N1060 1.388 . S
Co1062 O1064 2.143 . S
Co1062 O1070 2.074 . S
Co1062 O1073 2.093 . S
Co1062 O1086 2.097 . S
Co1062 N1103 2.151 . S
Co1062 N1111 2.214 . S
Co1063 O1064 2.160 . S
Co1063 O1069 2.058 . S
Co1063 O1079 2.057 . S
Co1063 O1094 2.037 . S
Co1063 N1098 2.145 . S
Co1063 N1119 2.257 . S
O1064 Co1062 2.143 . S
O1064 Co1063 2.160 . S
C1065 O1066 1.278 . S
C1065 O1073 1.224 . S
O1066 C1065 1.278 . S
C1067 O1068 1.245 . S
C1067 O1079 1.232 . S
O1068 C1067 1.245 . S
O1069 Co1063 2.058 . S
O1069 C1095 1.269 . S
O1070 Co1062 2.074 . S
O1070 C1095 1.257 . S
H1071 C1096 0.930 . S
H1072 C1102 0.930 . S
O1073 Co1062 2.093 . S
O1073 C1065 1.224 . S
H1074 C1106 0.929 . S
H1075 C1108 0.930 . S
H1076 C1109 0.930 . S
H1077 C1107 0.929 . S
H1078 C1110 0.928 . S
O1079 Co1063 2.057 . S
O1079 C1067 1.232 . S
H1080 C1099 0.929 . S
H1081 C1100 0.929 . S
H1082 C1112 0.931 . S
H1083 C1104 0.929 . S
H1084 C1113 0.930 . S
H1085 C1105 0.931 . S
O1086 Co1062 2.097 . S
O1086 C1114 1.214 . S
H1087 C1115 0.929 . S
H1088 C1116 0.929 . S
H1089 C1117 0.930 . S
H1090 C1118 0.929 . S
H1091 C1120 0.930 . S
H1092 C1097 0.930 . S
H1093 C1101 0.930 . S
O1094 Co1063 2.037 . S
O1094 C1114 1.234 . S
C1095 O1069 1.269 . S
C1095 O1070 1.257 . S
C1096 H1071 0.930 . S
C1096 C1099 1.388 . S
C1096 C1101 1.418 . S
C1097 H1092 0.930 . S
C1097 C1100 1.404 . S
C1097 C1101 1.353 . S
N1098 Co1063 2.145 . S
N1098 C1099 1.397 . S
N1098 C1100 1.334 . S
C1099 H1080 0.929 . S
C1099 C1096 1.388 . S
C1099 N1098 1.397 . S
C1100 H1081 0.929 . S
C1100 C1097 1.404 . S
C1100 N1098 1.334 . S
C1101 H1093 0.930 . S
C1101 C1096 1.418 . S
C1101 C1097 1.353 . S
C1102 H1072 0.930 . S
C1102 N1103 1.330 . S
C1102 C1104 1.446 . S
N1103 Co1062 2.151 . S
N1103 C1102 1.330 . S
N1103 C1107 1.418 . S
C1104 H1083 0.929 . S
C1104 C1102 1.446 . S
C1104 C1105 1.332 . S
C1105 H1085 0.931 . S
C1105 C1104 1.332 . S
C1105 C1106 1.267 . S
C1106 H1074 0.929 . S
C1106 C1105 1.267 . S
C1106 C1107 1.251 . S
C1107 H1077 0.929 . S
C1107 N1103 1.418 . S
C1107 C1106 1.251 . S
C1108 H1075 0.930 . S
C1108 C1110 1.406 . S
C1108 C1113 1.261 . S
C1109 H1076 0.930 . S
C1109 N1111 1.325 . S
C1109 C1112 1.357 . S
C1110 H1078 0.928 . S
C1110 C1108 1.406 . S
C1110 N1111 1.261 . S
N1111 Co1062 2.214 . S
N1111 C1109 1.325 . S
N1111 C1110 1.261 . S
C1112 H1082 0.931 . S
C1112 C1109 1.357 . S
C1112 C1113 1.312 . S
C1113 H1084 0.930 . S
C1113 C1108 1.261 . S
C1113 C1112 1.312 . S
C1114 O1086 1.214 . S
C1114 O1094 1.234 . S
C1115 H1087 0.929 . S
C1115 C1118 1.391 . S
C1115 C1120 1.391 . S
C1116 H1088 0.929 . S
C1116 C1117 1.390 . S
C1116 N1119 1.391 . S
C1117 H1089 0.930 . S
C1117 C1116 1.390 . S
C1117 C1118 1.392 . S
C1118 H1090 0.929 . S
C1118 C1115 1.391 . S
C1118 C1117 1.392 . S
N1119 Co1063 2.257 . S
N1119 C1116 1.391 . S
N1119 C1120 1.388 . S
C1120 H1091 0.930 . S
C1120 C1115 1.391 . S
C1120 N1119 1.388 . S
Co1121 O1123 2.143 . S
Co1121 O1129 2.074 . S
Co1121 O1132 2.093 . S
Co1121 O1145 2.097 . S
Co1121 N1162 2.151 . S
Co1121 N1170 2.214 . S
Co1122 O1123 2.160 . S
Co1122 O1128 2.058 . S
Co1122 O1138 2.057 . S
Co1122 O1153 2.037 . S
Co1122 N1157 2.145 . S
Co1122 N1178 2.257 . S
O1123 Co1121 2.143 . S
O1123 Co1122 2.160 . S
C1124 O1125 1.278 . S
C1124 O1132 1.224 . S
O1125 C1124 1.278 . S
C1126 O1127 1.245 . S
C1126 O1138 1.232 . S
O1127 C1126 1.245 . S
O1128 Co1122 2.058 . S
O1128 C1154 1.269 . S
O1129 Co1121 2.074 . S
O1129 C1154 1.257 . S
H1130 C1155 0.930 . S
H1131 C1161 0.930 . S
O1132 Co1121 2.093 . S
O1132 C1124 1.224 . S
H1133 C1165 0.929 . S
H1134 C1167 0.930 . S
H1135 C1168 0.930 . S
H1136 C1166 0.929 . S
H1137 C1169 0.928 . S
O1138 Co1122 2.057 . S
O1138 C1126 1.232 . S
H1139 C1158 0.929 . S
H1140 C1159 0.929 . S
H1141 C1171 0.931 . S
H1142 C1163 0.929 . S
H1143 C1172 0.930 . S
H1144 C1164 0.931 . S
O1145 Co1121 2.097 . S
O1145 C1173 1.214 . S
H1146 C1174 0.929 . S
H1147 C1175 0.929 . S
H1148 C1176 0.930 . S
H1149 C1177 0.929 . S
H1150 C1179 0.930 . S
H1151 C1156 0.930 . S
H1152 C1160 0.930 . S
O1153 Co1122 2.037 . S
O1153 C1173 1.234 . S
C1154 O1128 1.269 . S
C1154 O1129 1.257 . S
C1155 H1130 0.930 . S
C1155 C1158 1.388 . S
C1155 C1160 1.418 . S
C1156 H1151 0.930 . S
C1156 C1159 1.404 . S
C1156 C1160 1.353 . S
N1157 Co1122 2.145 . S
N1157 C1158 1.397 . S
N1157 C1159 1.334 . S
C1158 H1139 0.929 . S
C1158 C1155 1.388 . S
C1158 N1157 1.397 . S
C1159 H1140 0.929 . S
C1159 C1156 1.404 . S
C1159 N1157 1.334 . S
C1160 H1152 0.930 . S
C1160 C1155 1.418 . S
C1160 C1156 1.353 . S
C1161 H1131 0.930 . S
C1161 N1162 1.330 . S
C1161 C1163 1.446 . S
N1162 Co1121 2.151 . S
N1162 C1161 1.330 . S
N1162 C1166 1.418 . S
C1163 H1142 0.929 . S
C1163 C1161 1.446 . S
C1163 C1164 1.332 . S
C1164 H1144 0.931 . S
C1164 C1163 1.332 . S
C1164 C1165 1.267 . S
C1165 H1133 0.929 . S
C1165 C1164 1.267 . S
C1165 C1166 1.251 . S
C1166 H1136 0.929 . S
C1166 N1162 1.418 . S
C1166 C1165 1.251 . S
C1167 H1134 0.930 . S
C1167 C1169 1.406 . S
C1167 C1172 1.261 . S
C1168 H1135 0.930 . S
C1168 N1170 1.325 . S
C1168 C1171 1.357 . S
C1169 H1137 0.928 . S
C1169 C1167 1.406 . S
C1169 N1170 1.261 . S
N1170 Co1121 2.214 . S
N1170 C1168 1.325 . S
N1170 C1169 1.261 . S
C1171 H1141 0.931 . S
C1171 C1168 1.357 . S
C1171 C1172 1.312 . S
C1172 H1143 0.930 . S
C1172 C1167 1.261 . S
C1172 C1171 1.312 . S
C1173 O1145 1.214 . S
C1173 O1153 1.234 . S
C1174 H1146 0.929 . S
C1174 C1177 1.391 . S
C1174 C1179 1.391 . S
C1175 H1147 0.929 . S
C1175 C1176 1.390 . S
C1175 N1178 1.391 . S
C1176 H1148 0.930 . S
C1176 C1175 1.390 . S
C1176 C1177 1.392 . S
C1177 H1149 0.929 . S
C1177 C1174 1.391 . S
C1177 C1176 1.392 . S
N1178 Co1122 2.257 . S
N1178 C1175 1.391 . S
N1178 C1179 1.388 . S
C1179 H1150 0.930 . S
C1179 C1174 1.391 . S
C1179 N1178 1.388 . S
Co1180 O1182 2.143 . S
Co1180 O1188 2.074 . S
Co1180 O1191 2.093 . S
Co1180 O1204 2.097 . S
Co1180 N1221 2.151 . S
Co1180 N1229 2.214 . S
Co1181 O1182 2.160 . S
Co1181 O1187 2.058 . S
Co1181 O1197 2.057 . S
Co1181 O1212 2.037 . S
Co1181 N1216 2.145 . S
Co1181 N1237 2.257 . S
O1182 Co1180 2.143 . S
O1182 Co1181 2.160 . S
C1183 O1184 1.278 . S
C1183 O1191 1.224 . S
O1184 C1183 1.278 . S
C1185 O1186 1.245 . S
C1185 O1197 1.232 . S
O1186 C1185 1.245 . S
O1187 Co1181 2.058 . S
O1187 C1213 1.269 . S
O1188 Co1180 2.074 . S
O1188 C1213 1.257 . S
H1189 C1214 0.930 . S
H1190 C1220 0.930 . S
O1191 Co1180 2.093 . S
O1191 C1183 1.224 . S
H1192 C1224 0.929 . S
H1193 C1226 0.930 . S
H1194 C1227 0.930 . S
H1195 C1225 0.929 . S
H1196 C1228 0.928 . S
O1197 Co1181 2.057 . S
O1197 C1185 1.232 . S
H1198 C1217 0.929 . S
H1199 C1218 0.929 . S
H1200 C1230 0.931 . S
H1201 C1222 0.929 . S
H1202 C1231 0.930 . S
H1203 C1223 0.931 . S
O1204 Co1180 2.097 . S
O1204 C1232 1.214 . S
H1205 C1233 0.929 . S
H1206 C1234 0.929 . S
H1207 C1235 0.930 . S
H1208 C1236 0.929 . S
H1209 C1238 0.930 . S
H1210 C1215 0.930 . S
H1211 C1219 0.930 . S
O1212 Co1181 2.037 . S
O1212 C1232 1.234 . S
C1213 O1187 1.269 . S
C1213 O1188 1.257 . S
C1214 H1189 0.930 . S
C1214 C1217 1.388 . S
C1214 C1219 1.418 . S
C1215 H1210 0.930 . S
C1215 C1218 1.404 . S
C1215 C1219 1.353 . S
N1216 Co1181 2.145 . S
N1216 C1217 1.397 . S
N1216 C1218 1.334 . S
C1217 H1198 0.929 . S
C1217 C1214 1.388 . S
C1217 N1216 1.397 . S
C1218 H1199 0.929 . S
C1218 C1215 1.404 . S
C1218 N1216 1.334 . S
C1219 H1211 0.930 . S
C1219 C1214 1.418 . S
C1219 C1215 1.353 . S
C1220 H1190 0.930 . S
C1220 N1221 1.330 . S
C1220 C1222 1.446 . S
N1221 Co1180 2.151 . S
N1221 C1220 1.330 . S
N1221 C1225 1.418 . S
C1222 H1201 0.929 . S
C1222 C1220 1.446 . S
C1222 C1223 1.332 . S
C1223 H1203 0.931 . S
C1223 C1222 1.332 . S
C1223 C1224 1.267 . S
C1224 H1192 0.929 . S
C1224 C1223 1.267 . S
C1224 C1225 1.251 . S
C1225 H1195 0.929 . S
C1225 N1221 1.418 . S
C1225 C1224 1.251 . S
C1226 H1193 0.930 . S
C1226 C1228 1.406 . S
C1226 C1231 1.261 . S
C1227 H1194 0.930 . S
C1227 N1229 1.325 . S
C1227 C1230 1.357 . S
C1228 H1196 0.928 . S
C1228 C1226 1.406 . S
C1228 N1229 1.261 . S
N1229 Co1180 2.214 . S
N1229 C1227 1.325 . S
N1229 C1228 1.261 . S
C1230 H1200 0.931 . S
C1230 C1227 1.357 . S
C1230 C1231 1.312 . S
C1231 H1202 0.930 . S
C1231 C1226 1.261 . S
C1231 C1230 1.312 . S
C1232 O1204 1.214 . S
C1232 O1212 1.234 . S
C1233 H1205 0.929 . S
C1233 C1236 1.391 . S
C1233 C1238 1.391 . S
C1234 H1206 0.929 . S
C1234 C1235 1.390 . S
C1234 N1237 1.391 . S
C1235 H1207 0.930 . S
C1235 C1234 1.390 . S
C1235 C1236 1.392 . S
C1236 H1208 0.929 . S
C1236 C1233 1.391 . S
C1236 C1235 1.392 . S
N1237 Co1181 2.257 . S
N1237 C1234 1.391 . S
N1237 C1238 1.388 . S
C1238 H1209 0.930 . S
C1238 C1233 1.391 . S
C1238 N1237 1.388 . S
Co1239 O1241 2.143 . S
Co1239 O1247 2.074 . S
Co1239 O1250 2.093 . S
Co1239 O1263 2.097 . S
Co1239 N1280 2.151 . S
Co1239 N1288 2.214 . S
Co1240 O1241 2.160 . S
Co1240 O1246 2.058 . S
Co1240 O1256 2.057 . S
Co1240 O1271 2.037 . S
Co1240 N1275 2.145 . S
Co1240 N1296 2.257 . S
O1241 Co1239 2.143 . S
O1241 Co1240 2.160 . S
C1242 O1243 1.278 . S
C1242 O1250 1.224 . S
O1243 C1242 1.278 . S
C1244 O1245 1.245 . S
C1244 O1256 1.232 . S
O1245 C1244 1.245 . S
O1246 Co1240 2.058 . S
O1246 C1272 1.269 . S
O1247 Co1239 2.074 . S
O1247 C1272 1.257 . S
H1248 C1273 0.930 . S
H1249 C1279 0.930 . S
O1250 Co1239 2.093 . S
O1250 C1242 1.224 . S
H1251 C1283 0.929 . S
H1252 C1285 0.930 . S
H1253 C1286 0.930 . S
H1254 C1284 0.929 . S
H1255 C1287 0.928 . S
O1256 Co1240 2.057 . S
O1256 C1244 1.232 . S
H1257 C1276 0.929 . S
H1258 C1277 0.929 . S
H1259 C1289 0.931 . S
H1260 C1281 0.929 . S
H1261 C1290 0.930 . S
H1262 C1282 0.931 . S
O1263 Co1239 2.097 . S
O1263 C1291 1.214 . S
H1264 C1292 0.929 . S
H1265 C1293 0.929 . S
H1266 C1294 0.930 . S
H1267 C1295 0.929 . S
H1268 C1297 0.930 . S
H1269 C1274 0.930 . S
H1270 C1278 0.930 . S
O1271 Co1240 2.037 . S
O1271 C1291 1.234 . S
C1272 O1246 1.269 . S
C1272 O1247 1.257 . S
C1273 H1248 0.930 . S
C1273 C1276 1.388 . S
C1273 C1278 1.418 . S
C1274 H1269 0.930 . S
C1274 C1277 1.404 . S
C1274 C1278 1.353 . S
N1275 Co1240 2.145 . S
N1275 C1276 1.397 . S
N1275 C1277 1.334 . S
C1276 H1257 0.929 . S
C1276 C1273 1.388 . S
C1276 N1275 1.397 . S
C1277 H1258 0.929 . S
C1277 C1274 1.404 . S
C1277 N1275 1.334 . S
C1278 H1270 0.930 . S
C1278 C1273 1.418 . S
C1278 C1274 1.353 . S
C1279 H1249 0.930 . S
C1279 N1280 1.330 . S
C1279 C1281 1.446 . S
N1280 Co1239 2.151 . S
N1280 C1279 1.330 . S
N1280 C1284 1.418 . S
C1281 H1260 0.929 . S
C1281 C1279 1.446 . S
C1281 C1282 1.332 . S
C1282 H1262 0.931 . S
C1282 C1281 1.332 . S
C1282 C1283 1.267 . S
C1283 H1251 0.929 . S
C1283 C1282 1.267 . S
C1283 C1284 1.251 . S
C1284 H1254 0.929 . S
C1284 N1280 1.418 . S
C1284 C1283 1.251 . S
C1285 H1252 0.930 . S
C1285 C1287 1.406 . S
C1285 C1290 1.261 . S
C1286 H1253 0.930 . S
C1286 N1288 1.325 . S
C1286 C1289 1.357 . S
C1287 H1255 0.928 . S
C1287 C1285 1.406 . S
C1287 N1288 1.261 . S
N1288 Co1239 2.214 . S
N1288 C1286 1.325 . S
N1288 C1287 1.261 . S
C1289 H1259 0.931 . S
C1289 C1286 1.357 . S
C1289 C1290 1.312 . S
C1290 H1261 0.930 . S
C1290 C1285 1.261 . S
C1290 C1289 1.312 . S
C1291 O1263 1.214 . S
C1291 O1271 1.234 . S
C1292 H1264 0.929 . S
C1292 C1295 1.391 . S
C1292 C1297 1.391 . S
C1293 H1265 0.929 . S
C1293 C1294 1.390 . S
C1293 N1296 1.391 . S
C1294 H1266 0.930 . S
C1294 C1293 1.390 . S
C1294 C1295 1.392 . S
C1295 H1267 0.929 . S
C1295 C1292 1.391 . S
C1295 C1294 1.392 . S
N1296 Co1240 2.257 . S
N1296 C1293 1.391 . S
N1296 C1297 1.388 . S
C1297 H1268 0.930 . S
C1297 C1292 1.391 . S
C1297 N1296 1.388 . S
Co1298 O1300 2.143 . S
Co1298 O1306 2.074 . S
Co1298 O1309 2.093 . S
Co1298 O1322 2.097 . S
Co1298 N1339 2.151 . S
Co1298 N1347 2.214 . S
Co1299 O1300 2.160 . S
Co1299 O1305 2.058 . S
Co1299 O1315 2.057 . S
Co1299 O1330 2.037 . S
Co1299 N1334 2.145 . S
Co1299 N1355 2.257 . S
O1300 Co1298 2.143 . S
O1300 Co1299 2.160 . S
C1301 O1302 1.278 . S
C1301 O1309 1.224 . S
O1302 C1301 1.278 . S
C1303 O1304 1.245 . S
C1303 O1315 1.232 . S
O1304 C1303 1.245 . S
O1305 Co1299 2.058 . S
O1305 C1331 1.269 . S
O1306 Co1298 2.074 . S
O1306 C1331 1.257 . S
H1307 C1332 0.930 . S
H1308 C1338 0.930 . S
O1309 Co1298 2.093 . S
O1309 C1301 1.224 . S
H1310 C1342 0.929 . S
H1311 C1344 0.930 . S
H1312 C1345 0.930 . S
H1313 C1343 0.929 . S
H1314 C1346 0.928 . S
O1315 Co1299 2.057 . S
O1315 C1303 1.232 . S
H1316 C1335 0.929 . S
H1317 C1336 0.929 . S
H1318 C1348 0.931 . S
H1319 C1340 0.929 . S
H1320 C1349 0.930 . S
H1321 C1341 0.931 . S
O1322 Co1298 2.097 . S
O1322 C1350 1.214 . S
H1323 C1351 0.929 . S
H1324 C1352 0.929 . S
H1325 C1353 0.930 . S
H1326 C1354 0.929 . S
H1327 C1356 0.930 . S
H1328 C1333 0.930 . S
H1329 C1337 0.930 . S
O1330 Co1299 2.037 . S
O1330 C1350 1.234 . S
C1331 O1305 1.269 . S
C1331 O1306 1.257 . S
C1332 H1307 0.930 . S
C1332 C1335 1.388 . S
C1332 C1337 1.418 . S
C1333 H1328 0.930 . S
C1333 C1336 1.404 . S
C1333 C1337 1.353 . S
N1334 Co1299 2.145 . S
N1334 C1335 1.397 . S
N1334 C1336 1.334 . S
C1335 H1316 0.929 . S
C1335 C1332 1.388 . S
C1335 N1334 1.397 . S
C1336 H1317 0.929 . S
C1336 C1333 1.404 . S
C1336 N1334 1.334 . S
C1337 H1329 0.930 . S
C1337 C1332 1.418 . S
C1337 C1333 1.353 . S
C1338 H1308 0.930 . S
C1338 N1339 1.330 . S
C1338 C1340 1.446 . S
N1339 Co1298 2.151 . S
N1339 C1338 1.330 . S
N1339 C1343 1.418 . S
C1340 H1319 0.929 . S
C1340 C1338 1.446 . S
C1340 C1341 1.332 . S
C1341 H1321 0.931 . S
C1341 C1340 1.332 . S
C1341 C1342 1.267 . S
C1342 H1310 0.929 . S
C1342 C1341 1.267 . S
C1342 C1343 1.251 . S
C1343 H1313 0.929 . S
C1343 N1339 1.418 . S
C1343 C1342 1.251 . S
C1344 H1311 0.930 . S
C1344 C1346 1.406 . S
C1344 C1349 1.261 . S
C1345 H1312 0.930 . S
C1345 N1347 1.325 . S
C1345 C1348 1.357 . S
C1346 H1314 0.928 . S
C1346 C1344 1.406 . S
C1346 N1347 1.261 . S
N1347 Co1298 2.214 . S
N1347 C1345 1.325 . S
N1347 C1346 1.261 . S
C1348 H1318 0.931 . S
C1348 C1345 1.357 . S
C1348 C1349 1.312 . S
C1349 H1320 0.930 . S
C1349 C1344 1.261 . S
C1349 C1348 1.312 . S
C1350 O1322 1.214 . S
C1350 O1330 1.234 . S
C1351 H1323 0.929 . S
C1351 C1354 1.391 . S
C1351 C1356 1.391 . S
C1352 H1324 0.929 . S
C1352 C1353 1.390 . S
C1352 N1355 1.391 . S
C1353 H1325 0.930 . S
C1353 C1352 1.390 . S
C1353 C1354 1.392 . S
C1354 H1326 0.929 . S
C1354 C1351 1.391 . S
C1354 C1353 1.392 . S
N1355 Co1299 2.257 . S
N1355 C1352 1.391 . S
N1355 C1356 1.388 . S
C1356 H1327 0.930 . S
C1356 C1351 1.391 . S
C1356 N1355 1.388 . S
Co1357 O1359 2.143 . S
Co1357 O1365 2.074 . S
Co1357 O1368 2.093 . S
Co1357 O1381 2.097 . S
Co1357 N1398 2.151 . S
Co1357 N1406 2.214 . S
Co1358 O1359 2.160 . S
Co1358 O1364 2.058 . S
Co1358 O1374 2.057 . S
Co1358 O1389 2.037 . S
Co1358 N1393 2.145 . S
Co1358 N1414 2.257 . S
O1359 Co1357 2.143 . S
O1359 Co1358 2.160 . S
C1360 O1361 1.278 . S
C1360 O1368 1.224 . S
O1361 C1360 1.278 . S
C1362 O1363 1.245 . S
C1362 O1374 1.232 . S
O1363 C1362 1.245 . S
O1364 Co1358 2.058 . S
O1364 C1390 1.269 . S
O1365 Co1357 2.074 . S
O1365 C1390 1.257 . S
H1366 C1391 0.930 . S
H1367 C1397 0.930 . S
O1368 Co1357 2.093 . S
O1368 C1360 1.224 . S
H1369 C1401 0.929 . S
H1370 C1403 0.930 . S
H1371 C1404 0.930 . S
H1372 C1402 0.929 . S
H1373 C1405 0.928 . S
O1374 Co1358 2.057 . S
O1374 C1362 1.232 . S
H1375 C1394 0.929 . S
H1376 C1395 0.929 . S
H1377 C1407 0.931 . S
H1378 C1399 0.929 . S
H1379 C1408 0.930 . S
H1380 C1400 0.931 . S
O1381 Co1357 2.097 . S
O1381 C1409 1.214 . S
H1382 C1410 0.929 . S
H1383 C1411 0.929 . S
H1384 C1412 0.930 . S
H1385 C1413 0.929 . S
H1386 C1415 0.930 . S
H1387 C1392 0.930 . S
H1388 C1396 0.930 . S
O1389 Co1358 2.037 . S
O1389 C1409 1.234 . S
C1390 O1364 1.269 . S
C1390 O1365 1.257 . S
C1391 H1366 0.930 . S
C1391 C1394 1.388 . S
C1391 C1396 1.418 . S
C1392 H1387 0.930 . S
C1392 C1395 1.404 . S
C1392 C1396 1.353 . S
N1393 Co1358 2.145 . S
N1393 C1394 1.397 . S
N1393 C1395 1.334 . S
C1394 H1375 0.929 . S
C1394 C1391 1.388 . S
C1394 N1393 1.397 . S
C1395 H1376 0.929 . S
C1395 C1392 1.404 . S
C1395 N1393 1.334 . S
C1396 H1388 0.930 . S
C1396 C1391 1.418 . S
C1396 C1392 1.353 . S
C1397 H1367 0.930 . S
C1397 N1398 1.330 . S
C1397 C1399 1.446 . S
N1398 Co1357 2.151 . S
N1398 C1397 1.330 . S
N1398 C1402 1.418 . S
C1399 H1378 0.929 . S
C1399 C1397 1.446 . S
C1399 C1400 1.332 . S
C1400 H1380 0.931 . S
C1400 C1399 1.332 . S
C1400 C1401 1.267 . S
C1401 H1369 0.929 . S
C1401 C1400 1.267 . S
C1401 C1402 1.251 . S
C1402 H1372 0.929 . S
C1402 N1398 1.418 . S
C1402 C1401 1.251 . S
C1403 H1370 0.930 . S
C1403 C1405 1.406 . S
C1403 C1408 1.261 . S
C1404 H1371 0.930 . S
C1404 N1406 1.325 . S
C1404 C1407 1.357 . S
C1405 H1373 0.928 . S
C1405 C1403 1.406 . S
C1405 N1406 1.261 . S
N1406 Co1357 2.214 . S
N1406 C1404 1.325 . S
N1406 C1405 1.261 . S
C1407 H1377 0.931 . S
C1407 C1404 1.357 . S
C1407 C1408 1.312 . S
C1408 H1379 0.930 . S
C1408 C1403 1.261 . S
C1408 C1407 1.312 . S
C1409 O1381 1.214 . S
C1409 O1389 1.234 . S
C1410 H1382 0.929 . S
C1410 C1413 1.391 . S
C1410 C1415 1.391 . S
C1411 H1383 0.929 . S
C1411 C1412 1.390 . S
C1411 N1414 1.391 . S
C1412 H1384 0.930 . S
C1412 C1411 1.390 . S
C1412 C1413 1.392 . S
C1413 H1385 0.929 . S
C1413 C1410 1.391 . S
C1413 C1412 1.392 . S
N1414 Co1358 2.257 . S
N1414 C1411 1.391 . S
N1414 C1415 1.388 . S
C1415 H1386 0.930 . S
C1415 C1410 1.391 . S
C1415 N1414 1.388 . S
C1416 C1417 1.391 . S
C1416 C1418 1.394 . S
C1416 H1432 0.931 . S
C1417 C1416 1.391 . S
C1417 C1421 1.376 . S
C1418 C1416 1.394 . S
C1418 C1419 1.369 . S
C1418 C1422 1.531 . S
C1419 C1418 1.369 . S
C1419 C1420 1.410 . S
C1419 C1427 1.503 . S
C1420 C1419 1.410 . S
C1420 C1421 1.392 . S
C1420 C1423 1.511 . S
C1421 C1417 1.376 . S
C1421 C1420 1.392 . S
C1421 H1433 0.929 . S
C1422 C1418 1.531 . S
C1422 H1434 0.960 . S
C1422 H1435 0.962 . S
C1422 H1436 0.960 . S
C1423 C1420 1.511 . S
C1423 H1437 0.961 . S
C1423 H1438 0.961 . S
C1423 H1439 0.961 . S
C1424 C1425 1.370 . S
C1424 C1426 1.363 . S
C1424 H1440 0.931 . S
C1425 C1424 1.370 . S
C1425 C1429 1.408 . S
C1426 C1424 1.363 . S
C1426 C1427 1.370 . S
C1426 C1430 1.524 . S
C1427 C1419 1.503 . S
C1427 C1426 1.370 . S
C1427 C1428 1.403 . S
C1428 C1427 1.403 . S
C1428 C1429 1.404 . S
C1428 C1431 1.539 . S
C1429 C1425 1.408 . S
C1429 C1428 1.404 . S
C1429 H1441 0.930 . S
C1430 C1426 1.524 . S
C1430 H1442 0.956 . S
C1430 H1443 0.961 . S
C1430 H1444 0.961 . S
C1431 C1428 1.539 . S
C1431 H1445 0.958 . S
C1431 H1446 0.961 . S
C1431 H1447 0.960 . S
H1432 C1416 0.931 . S
H1433 C1421 0.929 . S
H1434 C1422 0.960 . S
H1435 C1422 0.962 . S
H1436 C1422 0.960 . S
H1437 C1423 0.961 . S
H1438 C1423 0.961 . S
H1439 C1423 0.961 . S
H1440 C1424 0.931 . S
H1441 C1429 0.930 . S
H1442 C1430 0.956 . S
H1443 C1430 0.961 . S
H1444 C1430 0.961 . S
H1445 C1431 0.958 . S
H1446 C1431 0.961 . S
H1447 C1431 0.960 . S
C1448 C1449 1.391 . S
C1448 C1450 1.394 . S
C1448 H1464 0.931 . S
C1449 C1448 1.391 . S
C1449 C1453 1.376 . S
C1450 C1448 1.394 . S
C1450 C1451 1.369 . S
C1450 C1454 1.531 . S
C1451 C1450 1.369 . S
C1451 C1452 1.410 . S
C1451 C1459 1.503 . S
C1452 C1451 1.410 . S
C1452 C1453 1.392 . S
C1452 C1455 1.511 . S
C1453 C1449 1.376 . S
C1453 C1452 1.392 . S
C1453 H1465 0.929 . S
C1454 C1450 1.531 . S
C1454 H1466 0.960 . S
C1454 H1467 0.962 . S
C1454 H1468 0.960 . S
C1455 C1452 1.511 . S
C1455 H1469 0.961 . S
C1455 H1470 0.961 . S
C1455 H1471 0.961 . S
C1456 C1457 1.370 . S
C1456 C1458 1.363 . S
C1456 H1472 0.931 . S
C1457 C1456 1.370 . S
C1457 C1461 1.408 . S
C1458 C1456 1.363 . S
C1458 C1459 1.370 . S
C1458 C1462 1.524 . S
C1459 C1451 1.503 . S
C1459 C1458 1.370 . S
C1459 C1460 1.403 . S
C1460 C1459 1.403 . S
C1460 C1461 1.404 . S
C1460 C1463 1.539 . S
C1461 C1457 1.408 . S
C1461 C1460 1.404 . S
C1461 H1473 0.930 . S
C1462 C1458 1.524 . S
C1462 H1474 0.956 . S
C1462 H1475 0.961 . S
C1462 H1476 0.961 . S
C1463 C1460 1.539 . S
C1463 H1477 0.958 . S
C1463 H1478 0.961 . S
C1463 H1479 0.960 . S
H1464 C1448 0.931 . S
H1465 C1453 0.929 . S
H1466 C1454 0.960 . S
H1467 C1454 0.962 . S
H1468 C1454 0.960 . S
H1469 C1455 0.961 . S
H1470 C1455 0.961 . S
H1471 C1455 0.961 . S
H1472 C1456 0.931 . S
H1473 C1461 0.930 . S
H1474 C1462 0.956 . S
H1475 C1462 0.961 . S
H1476 C1462 0.961 . S
H1477 C1463 0.958 . S
H1478 C1463 0.961 . S
H1479 C1463 0.960 . S
C1480 C1481 1.391 . S
C1480 C1482 1.394 . S
C1480 H1496 0.931 . S
C1481 C1480 1.391 . S
C1481 C1485 1.376 . S
C1482 C1480 1.394 . S
C1482 C1483 1.369 . S
C1482 C1486 1.531 . S
C1483 C1482 1.369 . S
C1483 C1484 1.410 . S
C1483 C1491 1.503 . S
C1484 C1483 1.410 . S
C1484 C1485 1.392 . S
C1484 C1487 1.511 . S
C1485 C1481 1.376 . S
C1485 C1484 1.392 . S
C1485 H1497 0.929 . S
C1486 C1482 1.531 . S
C1486 H1498 0.960 . S
C1486 H1499 0.962 . S
C1486 H1500 0.960 . S
C1487 C1484 1.511 . S
C1487 H1501 0.961 . S
C1487 H1502 0.961 . S
C1487 H1503 0.961 . S
C1488 C1489 1.370 . S
C1488 C1490 1.363 . S
C1488 H1504 0.931 . S
C1489 C1488 1.370 . S
C1489 C1493 1.408 . S
C1490 C1488 1.363 . S
C1490 C1491 1.370 . S
C1490 C1494 1.524 . S
C1491 C1483 1.503 . S
C1491 C1490 1.370 . S
C1491 C1492 1.403 . S
C1492 C1491 1.403 . S
C1492 C1493 1.404 . S
C1492 C1495 1.539 . S
C1493 C1489 1.408 . S
C1493 C1492 1.404 . S
C1493 H1505 0.930 . S
C1494 C1490 1.524 . S
C1494 H1506 0.956 . S
C1494 H1507 0.961 . S
C1494 H1508 0.961 . S
C1495 C1492 1.539 . S
C1495 H1509 0.958 . S
C1495 H1510 0.961 . S
C1495 H1511 0.960 . S
H1496 C1480 0.931 . S
H1497 C1485 0.929 . S
H1498 C1486 0.960 . S
H1499 C1486 0.962 . S
H1500 C1486 0.960 . S
H1501 C1487 0.961 . S
H1502 C1487 0.961 . S
H1503 C1487 0.961 . S
H1504 C1488 0.931 . S
H1505 C1493 0.930 . S
H1506 C1494 0.956 . S
H1507 C1494 0.961 . S
H1508 C1494 0.961 . S
H1509 C1495 0.958 . S
H1510 C1495 0.961 . S
H1511 C1495 0.960 . S
C1512 C1513 1.391 . S
C1512 C1514 1.394 . S
C1512 H1528 0.931 . S
C1513 C1512 1.391 . S
C1513 C1517 1.376 . S
C1514 C1512 1.394 . S
C1514 C1515 1.369 . S
C1514 C1518 1.531 . S
C1515 C1514 1.369 . S
C1515 C1516 1.410 . S
C1515 C1523 1.503 . S
C1516 C1515 1.410 . S
C1516 C1517 1.392 . S
C1516 C1519 1.511 . S
C1517 C1513 1.376 . S
C1517 C1516 1.392 . S
C1517 H1529 0.929 . S
C1518 C1514 1.531 . S
C1518 H1530 0.960 . S
C1518 H1531 0.962 . S
C1518 H1532 0.960 . S
C1519 C1516 1.511 . S
C1519 H1533 0.961 . S
C1519 H1534 0.961 . S
C1519 H1535 0.961 . S
C1520 C1521 1.370 . S
C1520 C1522 1.363 . S
C1520 H1536 0.931 . S
C1521 C1520 1.370 . S
C1521 C1525 1.408 . S
C1522 C1520 1.363 . S
C1522 C1523 1.370 . S
C1522 C1526 1.524 . S
C1523 C1515 1.503 . S
C1523 C1522 1.370 . S
C1523 C1524 1.403 . S
C1524 C1523 1.403 . S
C1524 C1525 1.404 . S
C1524 C1527 1.539 . S
C1525 C1521 1.408 . S
C1525 C1524 1.404 . S
C1525 H1537 0.930 . S
C1526 C1522 1.524 . S
C1526 H1538 0.956 . S
C1526 H1539 0.961 . S
C1526 H1540 0.961 . S
C1527 C1524 1.539 . S
C1527 H1541 0.958 . S
C1527 H1542 0.961 . S
C1527 H1543 0.960 . S
H1528 C1512 0.931 . S
H1529 C1517 0.929 . S
H1530 C1518 0.960 . S
H1531 C1518 0.962 . S
H1532 C1518 0.960 . S
H1533 C1519 0.961 . S
H1534 C1519 0.961 . S
H1535 C1519 0.961 . S
H1536 C1520 0.931 . S
H1537 C1525 0.930 . S
H1538 C1526 0.956 . S
H1539 C1526 0.961 . S
H1540 C1526 0.961 . S
H1541 C1527 0.958 . S
H1542 C1527 0.961 . S
H1543 C1527 0.960 . S
C1544 C1545 1.391 . S
C1544 C1546 1.394 . S
C1544 H1560 0.931 . S
C1545 C1544 1.391 . S
C1545 C1549 1.376 . S
C1546 C1544 1.394 . S
C1546 C1547 1.369 . S
C1546 C1550 1.531 . S
C1547 C1546 1.369 . S
C1547 C1548 1.410 . S
C1547 C1555 1.503 . S
C1548 C1547 1.410 . S
C1548 C1549 1.392 . S
C1548 C1551 1.511 . S
C1549 C1545 1.376 . S
C1549 C1548 1.392 . S
C1549 H1561 0.929 . S
C1550 C1546 1.531 . S
C1550 H1562 0.960 . S
C1550 H1563 0.962 . S
C1550 H1564 0.960 . S
C1551 C1548 1.511 . S
C1551 H1565 0.961 . S
C1551 H1566 0.961 . S
C1551 H1567 0.961 . S
C1552 C1553 1.370 . S
C1552 C1554 1.363 . S
C1552 H1568 0.931 . S
C1553 C1552 1.370 . S
C1553 C1557 1.408 . S
C1554 C1552 1.363 . S
C1554 C1555 1.370 . S
C1554 C1558 1.524 . S
C1555 C1547 1.503 . S
C1555 C1554 1.370 . S
C1555 C1556 1.403 . S
C1556 C1555 1.403 . S
C1556 C1557 1.404 . S
C1556 C1559 1.539 . S
C1557 C1553 1.408 . S
C1557 C1556 1.404 . S
C1557 H1569 0.930 . S
C1558 C1554 1.524 . S
C1558 H1570 0.956 . S
C1558 H1571 0.961 . S
C1558 H1572 0.961 . S
C1559 C1556 1.539 . S
C1559 H1573 0.958 . S
C1559 H1574 0.961 . S
C1559 H1575 0.960 . S
H1560 C1544 0.931 . S
H1561 C1549 0.929 . S
H1562 C1550 0.960 . S
H1563 C1550 0.962 . S
H1564 C1550 0.960 . S
H1565 C1551 0.961 . S
H1566 C1551 0.961 . S
H1567 C1551 0.961 . S
H1568 C1552 0.931 . S
H1569 C1557 0.930 . S
H1570 C1558 0.956 . S
H1571 C1558 0.961 . S
H1572 C1558 0.961 . S
H1573 C1559 0.958 . S
H1574 C1559 0.961 . S
H1575 C1559 0.960 . S
C1576 C1577 1.391 . S
C1576 C1578 1.394 . S
C1576 H1592 0.931 . S
C1577 C1576 1.391 . S
C1577 C1581 1.376 . S
C1578 C1576 1.394 . S
C1578 C1579 1.369 . S
C1578 C1582 1.531 . S
C1579 C1578 1.369 . S
C1579 C1580 1.410 . S
C1579 C1587 1.503 . S
C1580 C1579 1.410 . S
C1580 C1581 1.392 . S
C1580 C1583 1.511 . S
C1581 C1577 1.376 . S
C1581 C1580 1.392 . S
C1581 H1593 0.929 . S
C1582 C1578 1.531 . S
C1582 H1594 0.960 . S
C1582 H1595 0.962 . S
C1582 H1596 0.960 . S
C1583 C1580 1.511 . S
C1583 H1597 0.961 . S
C1583 H1598 0.961 . S
C1583 H1599 0.961 . S
C1584 C1585 1.370 . S
C1584 C1586 1.363 . S
C1584 H1600 0.931 . S
C1585 C1584 1.370 . S
C1585 C1589 1.408 . S
C1586 C1584 1.363 . S
C1586 C1587 1.370 . S
C1586 C1590 1.524 . S
C1587 C1579 1.503 . S
C1587 C1586 1.370 . S
C1587 C1588 1.403 . S
C1588 C1587 1.403 . S
C1588 C1589 1.404 . S
C1588 C1591 1.539 . S
C1589 C1585 1.408 . S
C1589 C1588 1.404 . S
C1589 H1601 0.930 . S
C1590 C1586 1.524 . S
C1590 H1602 0.956 . S
C1590 H1603 0.961 . S
C1590 H1604 0.961 . S
C1591 C1588 1.539 . S
C1591 H1605 0.958 . S
C1591 H1606 0.961 . S
C1591 H1607 0.960 . S
H1592 C1576 0.931 . S
H1593 C1581 0.929 . S
H1594 C1582 0.960 . S
H1595 C1582 0.962 . S
H1596 C1582 0.960 . S
H1597 C1583 0.961 . S
H1598 C1583 0.961 . S
H1599 C1583 0.961 . S
H1600 C1584 0.931 . S
H1601 C1589 0.930 . S
H1602 C1590 0.956 . S
H1603 C1590 0.961 . S
H1604 C1590 0.961 . S
H1605 C1591 0.958 . S
H1606 C1591 0.961 . S
H1607 C1591 0.960 . S
C1608 C1609 1.391 . S
C1608 C1610 1.394 . S
C1608 H1624 0.931 . S
C1609 C1608 1.391 . S
C1609 C1613 1.376 . S
C1610 C1608 1.394 . S
C1610 C1611 1.369 . S
C1610 C1614 1.531 . S
C1611 C1610 1.369 . S
C1611 C1612 1.410 . S
C1611 C1619 1.503 . S
C1612 C1611 1.410 . S
C1612 C1613 1.392 . S
C1612 C1615 1.511 . S
C1613 C1609 1.376 . S
C1613 C1612 1.392 . S
C1613 H1625 0.929 . S
C1614 C1610 1.531 . S
C1614 H1626 0.960 . S
C1614 H1627 0.962 . S
C1614 H1628 0.960 . S
C1615 C1612 1.511 . S
C1615 H1629 0.961 . S
C1615 H1630 0.961 . S
C1615 H1631 0.961 . S
C1616 C1617 1.370 . S
C1616 C1618 1.363 . S
C1616 H1632 0.931 . S
C1617 C1616 1.370 . S
C1617 C1621 1.408 . S
C1618 C1616 1.363 . S
C1618 C1619 1.370 . S
C1618 C1622 1.524 . S
C1619 C1611 1.503 . S
C1619 C1618 1.370 . S
C1619 C1620 1.403 . S
C1620 C1619 1.403 . S
C1620 C1621 1.404 . S
C1620 C1623 1.539 . S
C1621 C1617 1.408 . S
C1621 C1620 1.404 . S
C1621 H1633 0.930 . S
C1622 C1618 1.524 . S
C1622 H1634 0.956 . S
C1622 H1635 0.961 . S
C1622 H1636 0.961 . S
C1623 C1620 1.539 . S
C1623 H1637 0.958 . S
C1623 H1638 0.961 . S
C1623 H1639 0.960 . S
H1624 C1608 0.931 . S
H1625 C1613 0.929 . S
H1626 C1614 0.960 . S
H1627 C1614 0.962 . S
H1628 C1614 0.960 . S
H1629 C1615 0.961 . S
H1630 C1615 0.961 . S
H1631 C1615 0.961 . S
H1632 C1616 0.931 . S
H1633 C1621 0.930 . S
H1634 C1622 0.956 . S
H1635 C1622 0.961 . S
H1636 C1622 0.961 . S
H1637 C1623 0.958 . S
H1638 C1623 0.961 . S
H1639 C1623 0.960 . S
C1640 C1641 1.391 . S
C1640 C1642 1.394 . S
C1640 H1656 0.931 . S
C1641 C1640 1.391 . S
C1641 C1645 1.376 . S
C1642 C1640 1.394 . S
C1642 C1643 1.369 . S
C1642 C1646 1.531 . S
C1643 C1642 1.369 . S
C1643 C1644 1.410 . S
C1643 C1651 1.503 . S
C1644 C1643 1.410 . S
C1644 C1645 1.392 . S
C1644 C1647 1.511 . S
C1645 C1641 1.376 . S
C1645 C1644 1.392 . S
C1645 H1657 0.929 . S
C1646 C1642 1.531 . S
C1646 H1658 0.960 . S
C1646 H1659 0.962 . S
C1646 H1660 0.960 . S
C1647 C1644 1.511 . S
C1647 H1661 0.961 . S
C1647 H1662 0.961 . S
C1647 H1663 0.961 . S
C1648 C1649 1.370 . S
C1648 C1650 1.363 . S
C1648 H1664 0.931 . S
C1649 C1648 1.370 . S
C1649 C1653 1.408 . S
C1650 C1648 1.363 . S
C1650 C1651 1.370 . S
C1650 C1654 1.524 . S
C1651 C1643 1.503 . S
C1651 C1650 1.370 . S
C1651 C1652 1.403 . S
C1652 C1651 1.403 . S
C1652 C1653 1.404 . S
C1652 C1655 1.539 . S
C1653 C1649 1.408 . S
C1653 C1652 1.404 . S
C1653 H1665 0.930 . S
C1654 C1650 1.524 . S
C1654 H1666 0.956 . S
C1654 H1667 0.961 . S
C1654 H1668 0.961 . S
C1655 C1652 1.539 . S
C1655 H1669 0.958 . S
C1655 H1670 0.961 . S
C1655 H1671 0.960 . S
H1656 C1640 0.931 . S
H1657 C1645 0.929 . S
H1658 C1646 0.960 . S
H1659 C1646 0.962 . S
H1660 C1646 0.960 . S
H1661 C1647 0.961 . S
H1662 C1647 0.961 . S
H1663 C1647 0.961 . S
H1664 C1648 0.931 . S
H1665 C1653 0.930 . S
H1666 C1654 0.956 . S
H1667 C1654 0.961 . S
H1668 C1654 0.961 . S
H1669 C1655 0.958 . S
H1670 C1655 0.961 . S
H1671 C1655 0.960 . S
C1672 C1673 1.391 . S
C1672 C1674 1.394 . S
C1672 H1688 0.931 . S
C1673 C1672 1.391 . S
C1673 C1677 1.376 . S
C1674 C1672 1.394 . S
C1674 C1675 1.369 . S
C1674 C1678 1.531 . S
C1675 C1674 1.369 . S
C1675 C1676 1.410 . S
C1675 C1683 1.503 . S
C1676 C1675 1.410 . S
C1676 C1677 1.392 . S
C1676 C1679 1.511 . S
C1677 C1673 1.376 . S
C1677 C1676 1.392 . S
C1677 H1689 0.929 . S
C1678 C1674 1.531 . S
C1678 H1690 0.960 . S
C1678 H1691 0.962 . S
C1678 H1692 0.960 . S
C1679 C1676 1.511 . S
C1679 H1693 0.961 . S
C1679 H1694 0.961 . S
C1679 H1695 0.961 . S
C1680 C1681 1.370 . S
C1680 C1682 1.363 . S
C1680 H1696 0.931 . S
C1681 C1680 1.370 . S
C1681 C1685 1.408 . S
C1682 C1680 1.363 . S
C1682 C1683 1.370 . S
C1682 C1686 1.524 . S
C1683 C1675 1.503 . S
C1683 C1682 1.370 . S
C1683 C1684 1.403 . S
C1684 C1683 1.403 . S
C1684 C1685 1.404 . S
C1684 C1687 1.539 . S
C1685 C1681 1.408 . S
C1685 C1684 1.404 . S
C1685 H1697 0.930 . S
C1686 C1682 1.524 . S
C1686 H1698 0.956 . S
C1686 H1699 0.961 . S
C1686 H1700 0.961 . S
C1687 C1684 1.539 . S
C1687 H1701 0.958 . S
C1687 H1702 0.961 . S
C1687 H1703 0.960 . S
H1688 C1672 0.931 . S
H1689 C1677 0.929 . S
H1690 C1678 0.960 . S
H1691 C1678 0.962 . S
H1692 C1678 0.960 . S
H1693 C1679 0.961 . S
H1694 C1679 0.961 . S
H1695 C1679 0.961 . S
H1696 C1680 0.931 . S
H1697 C1685 0.930 . S
H1698 C1686 0.956 . S
H1699 C1686 0.961 . S
H1700 C1686 0.961 . S
H1701 C1687 0.958 . S
H1702 C1687 0.961 . S
H1703 C1687 0.960 . S
C1704 C1705 1.391 . S
C1704 C1706 1.394 . S
C1704 H1720 0.931 . S
C1705 C1704 1.391 . S
C1705 C1709 1.376 . S
C1706 C1704 1.394 . S
C1706 C1707 1.369 . S
C1706 C1710 1.531 . S
C1707 C1706 1.369 . S
C1707 C1708 1.410 . S
C1707 C1715 1.503 . S
C1708 C1707 1.410 . S
C1708 C1709 1.392 . S
C1708 C1711 1.511 . S
C1709 C1705 1.376 . S
C1709 C1708 1.392 . S
C1709 H1721 0.929 . S
C1710 C1706 1.531 . S
C1710 H1722 0.960 . S
C1710 H1723 0.962 . S
C1710 H1724 0.960 . S
C1711 C1708 1.511 . S
C1711 H1725 0.961 . S
C1711 H1726 0.961 . S
C1711 H1727 0.961 . S
C1712 C1713 1.370 . S
C1712 C1714 1.363 . S
C1712 H1728 0.931 . S
C1713 C1712 1.370 . S
C1713 C1717 1.408 . S
C1714 C1712 1.363 . S
C1714 C1715 1.370 . S
C1714 C1718 1.524 . S
C1715 C1707 1.503 . S
C1715 C1714 1.370 . S
C1715 C1716 1.403 . S
C1716 C1715 1.403 . S
C1716 C1717 1.404 . S
C1716 C1719 1.539 . S
C1717 C1713 1.408 . S
C1717 C1716 1.404 . S
C1717 H1729 0.930 . S
C1718 C1714 1.524 . S
C1718 H1730 0.956 . S
C1718 H1731 0.961 . S
C1718 H1732 0.961 . S
C1719 C1716 1.539 . S
C1719 H1733 0.958 . S
C1719 H1734 0.961 . S
C1719 H1735 0.960 . S
H1720 C1704 0.931 . S
H1721 C1709 0.929 . S
H1722 C1710 0.960 . S
H1723 C1710 0.962 . S
H1724 C1710 0.960 . S
H1725 C1711 0.961 . S
H1726 C1711 0.961 . S
H1727 C1711 0.961 . S
H1728 C1712 0.931 . S
H1729 C1717 0.930 . S
H1730 C1718 0.956 . S
H1731 C1718 0.961 . S
H1732 C1718 0.961 . S
H1733 C1719 0.958 . S
H1734 C1719 0.961 . S
H1735 C1719 0.960 . S
C1736 C1737 1.391 . S
C1736 C1738 1.394 . S
C1736 H1752 0.931 . S
C1737 C1736 1.391 . S
C1737 C1741 1.376 . S
C1738 C1736 1.394 . S
C1738 C1739 1.369 . S
C1738 C1742 1.531 . S
C1739 C1738 1.369 . S
C1739 C1740 1.410 . S
C1739 C1747 1.503 . S
C1740 C1739 1.410 . S
C1740 C1741 1.392 . S
C1740 C1743 1.511 . S
C1741 C1737 1.376 . S
C1741 C1740 1.392 . S
C1741 H1753 0.929 . S
C1742 C1738 1.531 . S
C1742 H1754 0.960 . S
C1742 H1755 0.962 . S
C1742 H1756 0.960 . S
C1743 C1740 1.511 . S
C1743 H1757 0.961 . S
C1743 H1758 0.961 . S
C1743 H1759 0.961 . S
C1744 C1745 1.370 . S
C1744 C1746 1.363 . S
C1744 H1760 0.931 . S
C1745 C1744 1.370 . S
C1745 C1749 1.408 . S
C1746 C1744 1.363 . S
C1746 C1747 1.370 . S
C1746 C1750 1.524 . S
C1747 C1739 1.503 . S
C1747 C1746 1.370 . S
C1747 C1748 1.403 . S
C1748 C1747 1.403 . S
C1748 C1749 1.404 . S
C1748 C1751 1.539 . S
C1749 C1745 1.408 . S
C1749 C1748 1.404 . S
C1749 H1761 0.930 . S
C1750 C1746 1.524 . S
C1750 H1762 0.956 . S
C1750 H1763 0.961 . S
C1750 H1764 0.961 . S
C1751 C1748 1.539 . S
C1751 H1765 0.958 . S
C1751 H1766 0.961 . S
C1751 H1767 0.960 . S
H1752 C1736 0.931 . S
H1753 C1741 0.929 . S
H1754 C1742 0.960 . S
H1755 C1742 0.962 . S
H1756 C1742 0.960 . S
H1757 C1743 0.961 . S
H1758 C1743 0.961 . S
H1759 C1743 0.961 . S
H1760 C1744 0.931 . S
H1761 C1749 0.930 . S
H1762 C1750 0.956 . S
H1763 C1750 0.961 . S
H1764 C1750 0.961 . S
H1765 C1751 0.958 . S
H1766 C1751 0.961 . S
H1767 C1751 0.960 . S
C1768 C1769 1.391 . S
C1768 C1770 1.394 . S
C1768 H1784 0.931 . S
C1769 C1768 1.391 . S
C1769 C1773 1.376 . S
C1770 C1768 1.394 . S
C1770 C1771 1.369 . S
C1770 C1774 1.531 . S
C1771 C1770 1.369 . S
C1771 C1772 1.410 . S
C1771 C1779 1.503 . S
C1772 C1771 1.410 . S
C1772 C1773 1.392 . S
C1772 C1775 1.511 . S
C1773 C1769 1.376 . S
C1773 C1772 1.392 . S
C1773 H1785 0.929 . S
C1774 C1770 1.531 . S
C1774 H1786 0.960 . S
C1774 H1787 0.962 . S
C1774 H1788 0.960 . S
C1775 C1772 1.511 . S
C1775 H1789 0.961 . S
C1775 H1790 0.961 . S
C1775 H1791 0.961 . S
C1776 C1777 1.370 . S
C1776 C1778 1.363 . S
C1776 H1792 0.931 . S
C1777 C1776 1.370 . S
C1777 C1781 1.408 . S
C1778 C1776 1.363 . S
C1778 C1779 1.370 . S
C1778 C1782 1.524 . S
C1779 C1771 1.503 . S
C1779 C1778 1.370 . S
C1779 C1780 1.403 . S
C1780 C1779 1.403 . S
C1780 C1781 1.404 . S
C1780 C1783 1.539 . S
C1781 C1777 1.408 . S
C1781 C1780 1.404 . S
C1781 H1793 0.930 . S
C1782 C1778 1.524 . S
C1782 H1794 0.956 . S
C1782 H1795 0.961 . S
C1782 H1796 0.961 . S
C1783 C1780 1.539 . S
C1783 H1797 0.958 . S
C1783 H1798 0.961 . S
C1783 H1799 0.960 . S
H1784 C1768 0.931 . S
H1785 C1773 0.929 . S
H1786 C1774 0.960 . S
H1787 C1774 0.962 . S
H1788 C1774 0.960 . S
H1789 C1775 0.961 . S
H1790 C1775 0.961 . S
H1791 C1775 0.961 . S
H1792 C1776 0.931 . S
H1793 C1781 0.930 . S
H1794 C1782 0.956 . S
H1795 C1782 0.961 . S
H1796 C1782 0.961 . S
H1797 C1783 0.958 . S
H1798 C1783 0.961 . S
H1799 C1783 0.960 . S
C1800 C1801 1.391 . S
C1800 C1802 1.394 . S
C1800 H1816 0.931 . S
C1801 C1800 1.391 . S
C1801 C1805 1.376 . S
C1802 C1800 1.394 . S
C1802 C1803 1.369 . S
C1802 C1806 1.531 1_565 S
C1803 C1802 1.369 . S
C1803 C1804 1.410 . S
C1803 C1811 1.503 1_565 S
C1804 C1803 1.410 . S
C1804 C1805 1.392 . S
C1804 C1807 1.511 . S
C1805 C1801 1.376 . S
C1805 C1804 1.392 . S
C1805 H1817 0.929 . S
C1806 C1802 1.531 1_545 S
C1806 H1818 0.960 . S
C1806 H1819 0.962 . S
C1806 H1820 0.960 . S
C1807 C1804 1.511 . S
C1807 H1821 0.961 . S
C1807 H1822 0.961 . S
C1807 H1823 0.961 . S
C1808 C1809 1.370 . S
C1808 C1810 1.363 . S
C1808 H1824 0.931 . S
C1809 C1808 1.370 . S
C1809 C1813 1.408 . S
C1810 C1808 1.363 . S
C1810 C1811 1.370 . S
C1810 C1814 1.503 1_545 S
C1811 C1803 1.503 1_545 S
C1811 C1810 1.370 . S
C1811 C1812 1.403 . S
C1812 C1811 1.403 . S
C1812 C1813 1.404 . S
C1812 C1815 1.539 . S
C1813 C1809 1.408 . S
C1813 C1812 1.404 . S
C1813 H1825 0.930 . S
C1814 C1810 1.503 1_565 S
C1814 H1826 0.950 1_565 S
C1814 H1827 0.997 . S
C1814 H1828 0.953 1_565 S
C1815 C1812 1.539 . S
C1815 H1829 0.958 . S
C1815 H1830 0.961 . S
C1815 H1831 0.960 . S
H1816 C1800 0.931 . S
H1817 C1805 0.929 . S
H1818 C1806 0.960 . S
H1819 C1806 0.962 . S
H1820 C1806 0.960 . S
H1821 C1807 0.961 . S
H1822 C1807 0.961 . S
H1823 C1807 0.961 . S
H1824 C1808 0.931 . S
H1825 C1813 0.930 . S
H1826 C1814 0.950 1_545 S
H1827 C1814 0.997 . S
H1828 C1814 0.953 1_545 S
H1829 C1815 0.958 . S
H1830 C1815 0.961 . S
H1831 C1815 0.960 . S
C1832 C1833 1.391 . S
C1832 C1834 1.394 . S
C1832 H1848 0.931 . S
C1833 C1832 1.391 . S
C1833 C1837 1.376 . S
C1834 C1832 1.394 . S
C1834 C1835 1.369 . S
C1834 C1838 1.531 1_655 S
C1835 C1834 1.369 . S
C1835 C1836 1.410 . S
C1835 C1843 1.503 1_655 S
C1836 C1835 1.410 . S
C1836 C1837 1.392 . S
C1836 C1839 1.511 . S
C1837 C1833 1.376 . S
C1837 C1836 1.392 . S
C1837 H1849 0.929 . S
C1838 C1834 1.531 1_455 S
C1838 H1850 0.960 . S
C1838 H1851 0.962 . S
C1838 H1852 0.960 . S
C1839 C1836 1.511 . S
C1839 H1853 0.961 . S
C1839 H1854 0.961 . S
C1839 H1855 0.961 . S
C1840 C1841 1.370 . S
C1840 C1842 1.363 . S
C1840 H1856 0.931 . S
C1841 C1840 1.370 . S
C1841 C1845 1.408 . S
C1842 C1840 1.363 . S
C1842 C1843 1.370 . S
C1842 C1846 1.524 . S
C1843 C1835 1.503 1_455 S
C1843 C1842 1.370 . S
C1843 C1844 1.403 . S
C1844 C1843 1.403 . S
C1844 C1845 1.404 . S
C1844 C1847 1.539 . S
C1845 C1841 1.408 . S
C1845 C1844 1.404 . S
C1845 H1857 0.930 . S
C1846 C1842 1.524 . S
C1846 H1858 0.956 . S
C1846 H1859 0.961 1_455 S
C1846 H1860 0.961 . S
C1847 C1844 1.539 . S
C1847 H1861 0.958 . S
C1847 H1862 0.961 . S
C1847 H1863 0.960 1_455 S
H1848 C1832 0.931 . S
H1849 C1837 0.929 . S
H1850 C1838 0.960 . S
H1851 C1838 0.962 . S
H1852 C1838 0.960 . S
H1853 C1839 0.961 . S
H1854 C1839 0.961 . S
H1855 C1839 0.961 . S
H1856 C1840 0.931 . S
H1857 C1845 0.930 . S
H1858 C1846 0.956 . S
H1859 C1846 0.961 1_655 S
H1860 C1846 0.961 . S
H1861 C1847 0.958 . S
H1862 C1847 0.961 . S
H1863 C1847 0.960 1_655 S
C1864 C1865 1.391 . S
C1864 C1866 1.394 . S
C1864 H1880 0.931 . S
C1865 C1864 1.391 . S
C1865 C1869 1.376 . S
C1866 C1864 1.394 . S
C1866 C1867 1.369 . S
C1866 C1870 1.531 . S
C1867 C1866 1.369 . S
C1867 C1868 1.410 . S
C1867 C1875 1.503 1_545 S
C1868 C1867 1.410 . S
C1868 C1869 1.392 . S
C1868 C1871 1.511 1_545 S
C1869 C1865 1.376 . S
C1869 C1868 1.392 . S
C1869 H1881 0.929 . S
C1870 C1866 1.531 . S
C1870 H1882 0.960 . S
C1870 H1883 0.962 . S
C1870 H1884 0.960 . S
C1871 C1868 1.511 1_565 S
C1871 H1885 0.961 . S
C1871 H1886 0.961 . S
C1871 H1887 0.961 . S
C1872 C1873 1.370 . S
C1872 C1874 1.363 . S
C1872 H1888 0.931 . S
C1873 C1872 1.370 . S
C1873 C1877 1.408 . S
C1874 C1872 1.363 . S
C1874 C1875 1.370 . S
C1874 C1878 1.524 . S
C1875 C1867 1.503 1_565 S
C1875 C1874 1.370 . S
C1875 C1876 1.403 . S
C1876 C1875 1.403 . S
C1876 C1877 1.404 . S
C1876 C1879 1.539 1_565 S
C1877 C1873 1.408 . S
C1877 C1876 1.404 . S
C1877 H1889 0.930 . S
C1878 C1874 1.524 . S
C1878 H1890 0.956 . S
C1878 H1891 0.961 . S
C1878 H1892 0.961 . S
C1879 C1876 1.539 1_545 S
C1879 H1893 0.958 . S
C1879 H1894 0.961 . S
C1879 H1895 0.960 . S
H1880 C1864 0.931 . S
H1881 C1869 0.929 . S
H1882 C1870 0.960 . S
H1883 C1870 0.962 . S
H1884 C1870 0.960 . S
H1885 C1871 0.961 . S
H1886 C1871 0.961 . S
H1887 C1871 0.961 . S
H1888 C1872 0.931 . S
H1889 C1877 0.930 . S
H1890 C1878 0.956 . S
H1891 C1878 0.961 . S
H1892 C1878 0.961 . S
H1893 C1879 0.958 . S
H1894 C1879 0.961 . S
H1895 C1879 0.960 . S
C1896 C1897 1.391 . S
C1896 C1898 1.394 . S
C1896 H1912 0.931 . S
C1897 C1896 1.391 . S
C1897 C1901 1.376 . S
C1898 C1896 1.394 . S
C1898 C1899 1.369 . S
C1898 C1902 1.531 . S
C1899 C1898 1.369 . S
C1899 C1900 1.410 . S
C1899 C1907 1.503 1_455 S
C1900 C1899 1.410 . S
C1900 C1901 1.392 . S
C1900 C1903 1.511 1_455 S
C1901 C1897 1.376 . S
C1901 C1900 1.392 . S
C1901 H1913 0.929 . S
C1902 C1898 1.531 . S
C1902 H1914 0.960 . S
C1902 H1915 0.962 . S
C1902 H1916 0.960 . S
C1903 C1900 1.511 1_655 S
C1903 H1917 0.961 . S
C1903 H1918 0.961 . S
C1903 H1919 0.961 . S
C1904 C1905 1.370 . S
C1904 C1906 1.363 . S
C1904 H1920 0.931 . S
C1905 C1904 1.370 . S
C1905 C1909 1.408 . S
C1906 C1904 1.363 . S
C1906 C1907 1.370 . S
C1906 C1910 1.524 . S
C1907 C1899 1.503 1_655 S
C1907 C1906 1.370 . S
C1907 C1908 1.403 . S
C1908 C1907 1.403 . S
C1908 C1909 1.404 . S
C1908 C1911 1.539 . S
C1909 C1905 1.408 . S
C1909 C1908 1.404 . S
C1909 H1921 0.930 . S
C1910 C1906 1.524 . S
C1910 H1922 0.917 1_655 S
C1910 H1923 0.961 . S
C1910 H1924 0.961 . S
C1911 C1908 1.539 . S
C1911 H1925 0.958 1_655 S
C1911 H1926 0.961 . S
C1911 H1927 0.960 1_655 S
H1912 C1896 0.931 . S
H1913 C1901 0.929 . S
H1914 C1902 0.960 . S
H1915 C1902 0.962 . S
H1916 C1902 0.960 . S
H1917 C1903 0.961 . S
H1918 C1903 0.961 . S
H1919 C1903 0.961 . S
H1920 C1904 0.931 . S
H1921 C1909 0.930 . S
H1922 C1910 0.917 1_455 S
H1923 C1910 0.961 . S
H1924 C1910 0.961 . S
H1925 C1911 0.958 1_455 S
H1926 C1911 0.961 . S
H1927 C1911 0.960 1_455 S
C1928 C1929 1.391 . S
C1928 C1930 1.394 . S
C1928 H1944 0.931 . S
C1929 C1928 1.391 . S
C1929 C1933 1.376 . S
C1930 C1928 1.394 . S
C1930 C1931 1.369 . S
C1930 C1934 1.531 1_565 S
C1931 C1930 1.369 . S
C1931 C1932 1.410 . S
C1931 C1939 1.503 1_565 S
C1932 C1931 1.410 . S
C1932 C1933 1.392 . S
C1932 C1935 1.511 . S
C1933 C1929 1.376 . S
C1933 C1932 1.392 . S
C1933 H1945 0.929 . S
C1934 C1930 1.531 1_545 S
C1934 H1946 0.960 . S
C1934 H1947 0.962 . S
C1934 H1948 0.960 . S
C1935 C1932 1.511 . S
C1935 H1949 0.961 . S
C1935 H1950 0.961 . S
C1935 H1951 0.961 . S
C1936 C1937 1.370 . S
C1936 C1938 1.363 . S
C1936 H1952 0.931 . S
C1937 C1936 1.370 . S
C1937 C1941 1.408 . S
C1938 C1936 1.363 . S
C1938 C1939 1.370 . S
C1938 C1942 1.524 . S
C1939 C1931 1.503 1_545 S
C1939 C1938 1.370 . S
C1939 C1940 1.403 . S
C1940 C1939 1.403 . S
C1940 C1941 1.404 . S
C1940 C1943 1.539 1_545 S
C1941 C1937 1.408 . S
C1941 C1940 1.404 . S
C1941 H1953 0.930 . S
C1942 C1938 1.524 . S
C1942 H1954 0.956 . S
C1942 H1955 0.961 . S
C1942 H1956 0.961 . S
C1943 C1940 1.539 1_565 S
C1943 H1957 0.970 . S
C1943 H1958 0.961 . S
C1943 H1959 0.960 . S
H1944 C1928 0.931 . S
H1945 C1933 0.929 . S
H1946 C1934 0.960 . S
H1947 C1934 0.962 . S
H1948 C1934 0.960 . S
H1949 C1935 0.961 . S
H1950 C1935 0.961 . S
H1951 C1935 0.961 . S
H1952 C1936 0.931 . S
H1953 C1941 0.930 . S
H1954 C1942 0.956 . S
H1955 C1942 0.961 . S
H1956 C1942 0.961 . S
H1957 C1943 0.970 . S
H1958 C1943 0.961 . S
H1959 C1943 0.960 . S
C1960 C1961 1.391 . S
C1960 C1962 1.394 . S
C1960 H1976 0.931 . S
C1961 C1960 1.391 . S
C1961 C1965 1.376 . S
C1962 C1960 1.394 . S
C1962 C1963 1.369 . S
C1962 C1966 1.531 . S
C1963 C1962 1.369 . S
C1963 C1964 1.410 . S
C1963 C1971 1.503 1_655 S
C1964 C1963 1.410 . S
C1964 C1965 1.392 . S
C1964 C1967 1.511 . S
C1965 C1961 1.376 . S
C1965 C1964 1.392 . S
C1965 H1977 0.929 . S
C1966 C1962 1.531 . S
C1966 H1978 0.960 . S
C1966 H1979 0.962 . S
C1966 H1980 0.960 . S
C1967 C1964 1.511 . S
C1967 H1981 0.961 . S
C1967 H1982 0.961 1_655 S
C1967 H1983 0.961 . S
C1968 C1969 1.370 . S
C1968 C1970 1.363 . S
C1968 H1984 0.931 . S
C1969 C1968 1.370 . S
C1969 C1973 1.408 . S
C1970 C1968 1.363 . S
C1970 C1971 1.370 . S
C1970 C1974 1.524 . S
C1971 C1963 1.503 1_455 S
C1971 C1970 1.370 . S
C1971 C1972 1.403 . S
C1972 C1971 1.403 . S
C1972 C1973 1.404 . S
C1972 C1975 1.539 1_455 S
C1973 C1969 1.408 . S
C1973 C1972 1.404 . S
C1973 H1985 0.930 . S
C1974 C1970 1.524 . S
C1974 H1986 0.956 . S
C1974 H1987 0.961 . S
C1974 H1988 0.961 . S
C1975 C1972 1.539 1_655 S
C1975 H1989 0.958 . S
C1975 H1990 0.961 . S
C1975 H1991 0.960 . S
H1976 C1960 0.931 . S
H1977 C1965 0.929 . S
H1978 C1966 0.960 . S
H1979 C1966 0.962 . S
H1980 C1966 0.960 . S
H1981 C1967 0.961 . S
H1982 C1967 0.961 1_455 S
H1983 C1967 0.961 . S
H1984 C1968 0.931 . S
H1985 C1973 0.930 . S
H1986 C1974 0.956 . S
H1987 C1974 0.961 . S
H1988 C1974 0.961 . S
H1989 C1975 0.958 . S
H1990 C1975 0.961 . S
H1991 C1975 0.960 . S
C1992 C1993 1.391 . S
C1992 C1994 1.394 . S
C1992 H2008 0.931 . S
C1993 C1992 1.391 . S
C1993 C1997 1.376 . S
C1994 C1992 1.394 . S
C1994 C1995 1.369 . S
C1994 C1998 1.531 . S
C1995 C1994 1.369 . S
C1995 C1996 1.410 . S
C1995 C2003 1.503 1_565 S
C1996 C1995 1.410 . S
C1996 C1997 1.392 . S
C1996 C1999 1.511 1_565 S
C1997 C1993 1.376 . S
C1997 C1996 1.392 . S
C1997 H2009 0.929 . S
C1998 C1994 1.531 . S
C1998 H2010 0.960 . S
C1998 H2011 0.962 . S
C1998 H2012 0.960 . S
C1999 C1996 1.511 1_545 S
C1999 H2013 0.961 . S
C1999 H2014 0.961 . S
C1999 H2015 0.961 . S
C2000 C2001 1.370 . S
C2000 C2002 1.363 . S
C2000 H2016 0.931 . S
C2001 C2000 1.370 . S
C2001 C2005 1.408 . S
C2002 C2000 1.363 . S
C2002 C2003 1.370 . S
C2002 C2006 1.524 . S
C2003 C1995 1.503 1_545 S
C2003 C2002 1.370 . S
C2003 C2004 1.403 . S
C2004 C2003 1.403 . S
C2004 C2005 1.404 . S
C2004 C2007 1.539 . S
C2005 C2001 1.408 . S
C2005 C2004 1.404 . S
C2005 H2017 0.930 . S
C2006 C2002 1.524 . S
C2006 H2018 0.956 1_545 S
C2006 H2019 0.961 . S
C2006 H2020 0.961 . S
C2007 C2004 1.539 . S
C2007 H2021 0.958 1_545 S
C2007 H2022 0.961 . S
C2007 H2023 0.960 . S
H2008 C1992 0.931 . S
H2009 C1997 0.929 . S
H2010 C1998 0.960 . S
H2011 C1998 0.962 . S
H2012 C1998 0.960 . S
H2013 C1999 0.961 . S
H2014 C1999 0.961 . S
H2015 C1999 0.961 . S
H2016 C2000 0.931 . S
H2017 C2005 0.930 . S
H2018 C2006 0.956 1_565 S
H2019 C2006 0.961 . S
H2020 C2006 0.961 . S
H2021 C2007 0.958 1_565 S
H2022 C2007 0.961 . S
H2023 C2007 0.960 . S
C2024 C2025 1.391 . S
C2024 C2026 1.394 . S
C2024 H2040 0.931 . S
C2025 C2024 1.391 . S
C2025 C2029 1.376 . S
C2026 C2024 1.394 . S
C2026 C2027 1.369 . S
C2026 C2030 1.531 1_455 S
C2027 C2026 1.369 . S
C2027 C2028 1.410 . S
C2027 C2035 1.503 1_455 S
C2028 C2027 1.410 . S
C2028 C2029 1.392 . S
C2028 C2031 1.511 . S
C2029 C2025 1.376 . S
C2029 C2028 1.392 . S
C2029 H2041 0.929 . S
C2030 C2026 1.531 1_655 S
C2030 H2042 0.960 . S
C2030 H2043 0.962 . S
C2030 H2044 0.960 1_655 S
C2031 C2028 1.511 . S
C2031 H2045 0.961 . S
C2031 H2046 0.961 . S
C2031 H2047 0.961 . S
C2032 C2033 1.370 . S
C2032 C2034 1.363 . S
C2032 H2048 0.931 . S
C2033 C2032 1.370 . S
C2033 C2037 1.408 . S
C2034 C2032 1.363 . S
C2034 C2035 1.370 . S
C2034 C2038 1.524 . S
C2035 C2027 1.503 1_655 S
C2035 C2034 1.370 . S
C2035 C2036 1.403 . S
C2036 C2035 1.403 . S
C2036 C2037 1.404 . S
C2036 C2039 1.539 1_655 S
C2037 C2033 1.408 . S
C2037 C2036 1.404 . S
C2037 H2049 0.930 . S
C2038 C2034 1.524 . S
C2038 H2050 0.956 . S
C2038 H2051 0.961 . S
C2038 H2052 0.961 . S
C2039 C2036 1.539 1_455 S
C2039 H2053 0.958 . S
C2039 H2054 0.961 . S
C2039 H2055 0.960 . S
H2040 C2024 0.931 . S
H2041 C2029 0.929 . S
H2042 C2030 0.960 . S
H2043 C2030 0.962 . S
H2044 C2030 0.960 1_455 S
H2045 C2031 0.961 . S
H2046 C2031 0.961 . S
H2047 C2031 0.961 . S
H2048 C2032 0.931 . S
H2049 C2037 0.930 . S
H2050 C2038 0.956 . S
H2051 C2038 0.961 . S
H2052 C2038 0.961 . S
H2053 C2039 0.958 . S
H2054 C2039 0.961 . S
H2055 C2039 0.960 . S
C2056 C2057 1.391 . S
C2056 C2058 1.394 . S
C2056 H2072 0.931 . S
C2057 C2056 1.391 . S
C2057 C2061 1.376 . S
C2058 C2056 1.394 . S
C2058 C2059 1.369 . S
C2058 C2062 1.516 1_556 S
C2059 C2058 1.369 . S
C2059 C2060 1.410 . S
C2059 C2067 1.503 1_556 S
C2060 C2059 1.410 . S
C2060 C2061 1.392 . S
C2060 C2063 1.511 . S
C2061 C2057 1.376 . S
C2061 C2060 1.392 . S
C2061 H2073 0.929 . S
C2062 C2058 1.516 1_554 S
C2062 H2074 0.967 . S
C2062 H2075 0.982 . S
C2062 H2076 0.949 1_554 S
C2063 C2060 1.511 . S
C2063 H2077 0.961 . S
C2063 H2078 0.961 . S
C2063 H2079 0.961 . S
C2064 C2065 1.370 . S
C2064 C2066 1.363 . S
C2064 H2080 0.931 . S
C2065 C2064 1.370 . S
C2065 C2069 1.408 . S
C2066 C2064 1.363 . S
C2066 C2067 1.370 . S
C2066 C2070 1.524 . S
C2067 C2059 1.503 1_554 S
C2067 C2066 1.370 . S
C2067 C2068 1.403 . S
C2068 C2067 1.403 . S
C2068 C2069 1.404 . S
C2068 C2071 1.539 1_554 S
C2069 C2065 1.408 . S
C2069 C2068 1.404 . S
C2069 H2081 0.930 . S
C2070 C2066 1.524 . S
C2070 H2082 0.956 . S
C2070 H2083 0.961 . S
C2070 H2084 0.961 . S
C2071 C2068 1.539 1_556 S
C2071 H2085 0.958 . S
C2071 H2086 0.961 . S
C2071 H2087 0.960 . S
H2072 C2056 0.931 . S
H2073 C2061 0.929 . S
H2074 C2062 0.967 . S
H2075 C2062 0.982 . S
H2076 C2062 0.949 1_556 S
H2077 C2063 0.961 . S
H2078 C2063 0.961 . S
H2079 C2063 0.961 . S
H2080 C2064 0.931 . S
H2081 C2069 0.930 . S
H2082 C2070 0.956 . S
H2083 C2070 0.961 . S
H2084 C2070 0.961 . S
H2085 C2071 0.958 . S
H2086 C2071 0.961 . S
H2087 C2071 0.960 . S
C2088 C2089 1.391 . S
C2088 C2090 1.394 . S
C2088 H2104 0.931 . S
C2089 C2088 1.391 . S
C2089 C2093 1.376 . S
C2090 C2088 1.394 . S
C2090 C2091 1.369 . S
C2090 C2094 1.531 . S
C2091 C2090 1.369 . S
C2091 C2092 1.410 . S
C2091 C2099 1.503 1_554 S
C2092 C2091 1.410 . S
C2092 C2093 1.392 . S
C2092 C2095 1.511 1_554 S
C2093 C2089 1.376 . S
C2093 C2092 1.392 . S
C2093 H2105 0.929 . S
C2094 C2090 1.531 . S
C2094 H2106 0.960 . S
C2094 H2107 0.962 . S
C2094 H2108 0.960 . S
C2095 C2092 1.511 1_556 S
C2095 H2109 0.961 . S
C2095 H2110 0.961 . S
C2095 H2111 0.961 . S
C2096 C2097 1.370 . S
C2096 C2098 1.363 . S
C2096 H2112 0.931 . S
C2097 C2096 1.370 . S
C2097 C2101 1.408 . S
C2098 C2096 1.363 . S
C2098 C2099 1.370 . S
C2098 C2102 1.524 . S
C2099 C2091 1.503 1_556 S
C2099 C2098 1.370 . S
C2099 C2100 1.403 . S
C2100 C2099 1.403 . S
C2100 C2101 1.404 . S
C2100 C2103 1.539 1_556 S
C2101 C2097 1.408 . S
C2101 C2100 1.404 . S
C2101 H2113 0.930 . S
C2102 C2098 1.524 . S
C2102 H2114 0.956 . S
C2102 H2115 0.961 . S
C2102 H2116 0.961 . S
C2103 C2100 1.539 1_554 S
C2103 H2117 0.958 . S
C2103 H2118 0.961 . S
C2103 H2119 0.960 . S
H2104 C2088 0.931 . S
H2105 C2093 0.929 . S
H2106 C2094 0.960 . S
H2107 C2094 0.962 . S
H2108 C2094 0.960 . S
H2109 C2095 0.961 . S
H2110 C2095 0.961 . S
H2111 C2095 0.961 . S
H2112 C2096 0.931 . S
H2113 C2101 0.930 . S
H2114 C2102 0.956 . S
H2115 C2102 0.961 . S
H2116 C2102 0.961 . S
H2117 C2103 0.958 . S
H2118 C2103 0.961 . S
H2119 C2103 0.960 . S
C2120 C2121 1.391 . S
C2120 C2122 1.394 . S
C2120 H2136 0.931 . S
C2121 C2120 1.391 . S
C2121 C2125 1.376 . S
C2122 C2120 1.394 . S
C2122 C2123 1.369 . S
C2122 C2126 1.531 . S
C2123 C2122 1.369 . S
C2123 C2124 1.410 . S
C2123 C2131 1.503 1_556 S
C2124 C2123 1.410 . S
C2124 C2125 1.392 . S
C2124 C2127 1.511 1_556 S
C2125 C2121 1.376 . S
C2125 C2124 1.392 . S
C2125 H2137 0.929 . S
C2126 C2122 1.531 . S
C2126 H2138 0.960 . S
C2126 H2139 0.962 . S
C2126 H2140 0.960 . S
C2127 C2124 1.511 1_554 S
C2127 H2141 0.961 . S
C2127 H2142 0.961 . S
C2127 H2143 0.961 . S
C2128 C2129 1.370 . S
C2128 C2130 1.363 . S
C2128 H2144 0.931 . S
C2129 C2128 1.370 . S
C2129 C2133 1.408 . S
C2130 C2128 1.363 . S
C2130 C2131 1.370 . S
C2130 C2134 1.524 1_554 S
C2131 C2123 1.503 1_554 S
C2131 C2130 1.370 . S
C2131 C2132 1.403 . S
C2132 C2131 1.403 . S
C2132 C2133 1.404 . S
C2132 C2135 1.539 . S
C2133 C2129 1.408 . S
C2133 C2132 1.404 . S
C2133 H2145 0.930 . S
C2134 C2130 1.524 1_556 S
C2134 H2146 0.956 . S
C2134 H2147 0.961 . S
C2134 H2148 0.961 . S
C2135 C2132 1.539 . S
C2135 H2149 0.958 . S
C2135 H2150 0.961 . S
C2135 H2151 0.960 . S
H2136 C2120 0.931 . S
H2137 C2125 0.929 . S
H2138 C2126 0.960 . S
H2139 C2126 0.962 . S
H2140 C2126 0.960 . S
H2141 C2127 0.961 . S
H2142 C2127 0.961 . S
H2143 C2127 0.961 . S
H2144 C2128 0.931 . S
H2145 C2133 0.930 . S
H2146 C2134 0.956 . S
H2147 C2134 0.961 . S
H2148 C2134 0.961 . S
H2149 C2135 0.958 . S
H2150 C2135 0.961 . S
H2151 C2135 0.960 . S
C2152 C2153 1.391 . S
C2152 C2154 1.394 . S
C2152 H2168 0.931 . S
C2153 C2152 1.391 . S
C2153 C2157 1.376 . S
C2154 C2152 1.394 . S
C2154 C2155 1.369 . S
C2154 C2158 1.531 1_554 S
C2155 C2154 1.369 . S
C2155 C2156 1.410 . S
C2155 C2163 1.503 1_554 S
C2156 C2155 1.410 . S
C2156 C2157 1.392 . S
C2156 C2159 1.511 . S
C2157 C2153 1.376 . S
C2157 C2156 1.392 . S
C2157 H2169 0.929 . S
C2158 C2154 1.531 1_556 S
C2158 H2170 0.960 . S
C2158 H2171 0.962 . S
C2158 H2172 0.960 . S
C2159 C2156 1.511 . S
C2159 H2173 0.961 . S
C2159 H2174 0.961 . S
C2159 H2175 0.961 . S
C2160 C2161 1.370 . S
C2160 C2162 1.363 . S
C2160 H2176 0.931 . S
C2161 C2160 1.370 . S
C2161 C2165 1.408 . S
C2162 C2160 1.363 . S
C2162 C2163 1.370 . S
C2162 C2166 1.524 . S
C2163 C2155 1.503 1_556 S
C2163 C2162 1.370 . S
C2163 C2164 1.403 . S
C2164 C2163 1.403 . S
C2164 C2165 1.404 . S
C2164 C2167 1.539 1_556 S
C2165 C2161 1.408 . S
C2165 C2164 1.404 . S
C2165 H2177 0.930 . S
C2166 C2162 1.524 . S
C2166 H2178 0.956 . S
C2166 H2179 0.961 . S
C2166 H2180 0.961 . S
C2167 C2164 1.539 1_554 S
C2167 H2181 0.958 . S
C2167 H2182 0.961 . S
C2167 H2183 0.960 . S
H2168 C2152 0.931 . S
H2169 C2157 0.929 . S
H2170 C2158 0.960 . S
H2171 C2158 0.962 . S
H2172 C2158 0.960 . S
H2173 C2159 0.961 . S
H2174 C2159 0.961 . S
H2175 C2159 0.961 . S
H2176 C2160 0.931 . S
H2177 C2165 0.930 . S
H2178 C2166 0.956 . S
H2179 C2166 0.961 . S
H2180 C2166 0.961 . S
H2181 C2167 0.958 . S
H2182 C2167 0.961 . S
H2183 C2167 0.960 . S
C2184 C2185 1.391 . S
C2184 C2186 1.394 . S
C2184 H2200 0.931 . S
C2185 C2184 1.391 . S
C2185 C2189 1.376 . S
C2186 C2184 1.394 . S
C2186 C2187 1.369 . S
C2186 C2190 1.531 . S
C2187 C2186 1.369 . S
C2187 C2188 1.410 . S
C2187 C2195 1.503 . S
C2188 C2187 1.410 . S
C2188 C2189 1.392 . S
C2188 C2191 1.511 . S
C2189 C2185 1.376 . S
C2189 C2188 1.392 . S
C2189 H2201 0.929 . S
C2190 C2186 1.531 . S
C2190 H2202 0.960 . S
C2190 H2203 0.962 . S
C2190 H2204 0.960 . S
C2191 C2188 1.511 . S
C2191 H2205 0.961 . S
C2191 H2206 0.961 . S
C2191 H2207 0.961 . S
C2192 C2193 1.370 . S
C2192 C2194 1.363 . S
C2192 H2208 0.931 . S
C2193 C2192 1.370 . S
C2193 C2197 1.408 . S
C2194 C2192 1.363 . S
C2194 C2195 1.370 . S
C2194 C2198 1.524 . S
C2195 C2187 1.503 . S
C2195 C2194 1.370 . S
C2195 C2196 1.403 . S
C2196 C2195 1.403 . S
C2196 C2197 1.404 . S
C2196 C2199 1.539 . S
C2197 C2193 1.408 . S
C2197 C2196 1.404 . S
C2197 H2209 0.930 . S
C2198 C2194 1.524 . S
C2198 H2210 0.956 . S
C2198 H2211 0.961 . S
C2198 H2212 0.961 . S
C2199 C2196 1.539 . S
C2199 H2213 0.958 . S
C2199 H2214 0.961 . S
C2199 H2215 0.960 . S
H2200 C2184 0.931 . S
H2201 C2189 0.929 . S
H2202 C2190 0.960 . S
H2203 C2190 0.962 . S
H2204 C2190 0.960 . S
H2205 C2191 0.961 . S
H2206 C2191 0.961 . S
H2207 C2191 0.961 . S
H2208 C2192 0.931 . S
H2209 C2197 0.930 . S
H2210 C2198 0.956 . S
H2211 C2198 0.961 . S
H2212 C2198 0.961 . S
H2213 C2199 0.958 . S
H2214 C2199 0.961 . S
H2215 C2199 0.960 . S
C2216 C2217 1.391 . S
C2216 C2218 1.394 . S
C2216 H2232 0.931 . S
C2217 C2216 1.391 . S
C2217 C2221 1.376 . S
C2218 C2216 1.394 . S
C2218 C2219 1.369 . S
C2218 C2222 1.531 . S
C2219 C2218 1.369 . S
C2219 C2220 1.410 . S
C2219 C2227 1.503 . S
C2220 C2219 1.410 . S
C2220 C2221 1.392 . S
C2220 C2223 1.511 . S
C2221 C2217 1.376 . S
C2221 C2220 1.392 . S
C2221 H2233 0.929 . S
C2222 C2218 1.531 . S
C2222 H2234 0.960 . S
C2222 H2235 0.962 . S
C2222 H2236 0.960 . S
C2223 C2220 1.511 . S
C2223 H2237 0.961 . S
C2223 H2238 0.961 . S
C2223 H2239 0.961 . S
C2224 C2225 1.370 . S
C2224 C2226 1.363 . S
C2224 H2240 0.931 . S
C2225 C2224 1.370 . S
C2225 C2229 1.408 . S
C2226 C2224 1.363 . S
C2226 C2227 1.370 . S
C2226 C2230 1.524 . S
C2227 C2219 1.503 . S
C2227 C2226 1.370 . S
C2227 C2228 1.403 . S
C2228 C2227 1.403 . S
C2228 C2229 1.404 . S
C2228 C2231 1.539 . S
C2229 C2225 1.408 . S
C2229 C2228 1.404 . S
C2229 H2241 0.930 . S
C2230 C2226 1.524 . S
C2230 H2242 0.956 . S
C2230 H2243 0.961 . S
C2230 H2244 0.961 . S
C2231 C2228 1.539 . S
C2231 H2245 0.958 . S
C2231 H2246 0.961 . S
C2231 H2247 0.960 . S
H2232 C2216 0.931 . S
H2233 C2221 0.929 . S
H2234 C2222 0.960 . S
H2235 C2222 0.962 . S
H2236 C2222 0.960 . S
H2237 C2223 0.961 . S
H2238 C2223 0.961 . S
H2239 C2223 0.961 . S
H2240 C2224 0.931 . S
H2241 C2229 0.930 . S
H2242 C2230 0.956 . S
H2243 C2230 0.961 . S
H2244 C2230 0.961 . S
H2245 C2231 0.958 . S
H2246 C2231 0.961 . S
H2247 C2231 0.960 . S
C2248 C2249 1.391 . S
C2248 C2250 1.394 . S
C2248 H2264 0.931 . S
C2249 C2248 1.391 . S
C2249 C2253 1.376 . S
C2250 C2248 1.394 . S
C2250 C2251 1.369 . S
C2250 C2254 1.531 . S
C2251 C2250 1.369 . S
C2251 C2252 1.410 . S
C2251 C2259 1.503 . S
C2252 C2251 1.410 . S
C2252 C2253 1.392 . S
C2252 C2255 1.511 . S
C2253 C2249 1.376 . S
C2253 C2252 1.392 . S
C2253 H2265 0.929 . S
C2254 C2250 1.531 . S
C2254 H2266 0.960 . S
C2254 H2267 0.962 . S
C2254 H2268 0.960 . S
C2255 C2252 1.511 . S
C2255 H2269 0.961 . S
C2255 H2270 0.961 . S
C2255 H2271 0.961 . S
C2256 C2257 1.370 . S
C2256 C2258 1.363 . S
C2256 H2272 0.931 . S
C2257 C2256 1.370 . S
C2257 C2261 1.408 . S
C2258 C2256 1.363 . S
C2258 C2259 1.370 . S
C2258 C2262 1.524 . S
C2259 C2251 1.503 . S
C2259 C2258 1.370 . S
C2259 C2260 1.403 . S
C2260 C2259 1.403 . S
C2260 C2261 1.404 . S
C2260 C2263 1.539 . S
C2261 C2257 1.408 . S
C2261 C2260 1.404 . S
C2261 H2273 0.930 . S
C2262 C2258 1.524 . S
C2262 H2274 0.956 . S
C2262 H2275 0.961 . S
C2262 H2276 0.961 . S
C2263 C2260 1.539 . S
C2263 H2277 0.958 . S
C2263 H2278 0.961 . S
C2263 H2279 0.960 . S
H2264 C2248 0.931 . S
H2265 C2253 0.929 . S
H2266 C2254 0.960 . S
H2267 C2254 0.962 . S
H2268 C2254 0.960 . S
H2269 C2255 0.961 . S
H2270 C2255 0.961 . S
H2271 C2255 0.961 . S
H2272 C2256 0.931 . S
H2273 C2261 0.930 . S
H2274 C2262 0.956 . S
H2275 C2262 0.961 . S
H2276 C2262 0.961 . S
H2277 C2263 0.958 . S
H2278 C2263 0.961 . S
H2279 C2263 0.960 . S
C2280 C2281 1.391 . S
C2280 C2282 1.394 . S
C2280 H2296 0.931 . S
C2281 C2280 1.391 . S
C2281 C2285 1.376 . S
C2282 C2280 1.394 . S
C2282 C2283 1.369 . S
C2282 C2286 1.531 . S
C2283 C2282 1.369 . S
C2283 C2284 1.410 . S
C2283 C2291 1.503 . S
C2284 C2283 1.410 . S
C2284 C2285 1.392 . S
C2284 C2287 1.511 . S
C2285 C2281 1.376 . S
C2285 C2284 1.392 . S
C2285 H2297 0.929 . S
C2286 C2282 1.531 . S
C2286 H2298 0.960 . S
C2286 H2299 0.962 . S
C2286 H2300 0.960 . S
C2287 C2284 1.511 . S
C2287 H2301 0.961 . S
C2287 H2302 0.961 . S
C2287 H2303 0.961 . S
C2288 C2289 1.370 . S
C2288 C2290 1.363 . S
C2288 H2304 0.931 . S
C2289 C2288 1.370 . S
C2289 C2293 1.408 . S
C2290 C2288 1.363 . S
C2290 C2291 1.370 . S
C2290 C2294 1.524 . S
C2291 C2283 1.503 . S
C2291 C2290 1.370 . S
C2291 C2292 1.403 . S
C2292 C2291 1.403 . S
C2292 C2293 1.404 . S
C2292 C2295 1.539 . S
C2293 C2289 1.408 . S
C2293 C2292 1.404 . S
C2293 H2305 0.930 . S
C2294 C2290 1.524 . S
C2294 H2306 0.956 . S
C2294 H2307 0.961 . S
C2294 H2308 0.961 . S
C2295 C2292 1.539 . S
C2295 H2309 0.958 . S
C2295 H2310 0.961 . S
C2295 H2311 0.960 . S
H2296 C2280 0.931 . S
H2297 C2285 0.929 . S
H2298 C2286 0.960 . S
H2299 C2286 0.962 . S
H2300 C2286 0.960 . S
H2301 C2287 0.961 . S
H2302 C2287 0.961 . S
H2303 C2287 0.961 . S
H2304 C2288 0.931 . S
H2305 C2293 0.930 . S
H2306 C2294 0.956 . S
H2307 C2294 0.961 . S
H2308 C2294 0.961 . S
H2309 C2295 0.958 . S
H2310 C2295 0.961 . S
H2311 C2295 0.960 . S
C2312 C2313 1.391 . S
C2312 C2314 1.394 . S
C2312 H2328 0.931 . S
C2313 C2312 1.391 . S
C2313 C2317 1.376 . S
C2314 C2312 1.394 . S
C2314 C2315 1.369 . S
C2314 C2318 1.531 . S
C2315 C2314 1.369 . S
C2315 C2316 1.410 . S
C2315 C2323 1.503 . S
C2316 C2315 1.410 . S
C2316 C2317 1.392 . S
C2316 C2319 1.511 . S
C2317 C2313 1.376 . S
C2317 C2316 1.392 . S
C2317 H2329 0.929 . S
C2318 C2314 1.531 . S
C2318 H2330 0.960 . S
C2318 H2331 0.962 . S
C2318 H2332 0.960 . S
C2319 C2316 1.511 . S
C2319 H2333 0.961 . S
C2319 H2334 0.961 . S
C2319 H2335 0.961 . S
C2320 C2321 1.370 . S
C2320 C2322 1.363 . S
C2320 H2336 0.931 . S
C2321 C2320 1.370 . S
C2321 C2325 1.408 . S
C2322 C2320 1.363 . S
C2322 C2323 1.370 . S
C2322 C2326 1.524 . S
C2323 C2315 1.503 . S
C2323 C2322 1.370 . S
C2323 C2324 1.403 . S
C2324 C2323 1.403 . S
C2324 C2325 1.404 . S
C2324 C2327 1.539 . S
C2325 C2321 1.408 . S
C2325 C2324 1.404 . S
C2325 H2337 0.930 . S
C2326 C2322 1.524 . S
C2326 H2338 0.956 . S
C2326 H2339 0.961 . S
C2326 H2340 0.961 . S
C2327 C2324 1.539 . S
C2327 H2341 0.958 . S
C2327 H2342 0.961 . S
C2327 H2343 0.960 . S
H2328 C2312 0.931 . S
H2329 C2317 0.929 . S
H2330 C2318 0.960 . S
H2331 C2318 0.962 . S
H2332 C2318 0.960 . S
H2333 C2319 0.961 . S
H2334 C2319 0.961 . S
H2335 C2319 0.961 . S
H2336 C2320 0.931 . S
H2337 C2325 0.930 . S
H2338 C2326 0.956 . S
H2339 C2326 0.961 . S
H2340 C2326 0.961 . S
H2341 C2327 0.958 . S
H2342 C2327 0.961 . S
H2343 C2327 0.960 . S
C2344 C2345 1.391 . S
C2344 C2346 1.394 . S
C2344 H2360 0.931 . S
C2345 C2344 1.391 . S
C2345 C2349 1.376 . S
C2346 C2344 1.394 . S
C2346 C2347 1.369 . S
C2346 C2350 1.531 . S
C2347 C2346 1.369 . S
C2347 C2348 1.410 . S
C2347 C2355 1.503 . S
C2348 C2347 1.410 . S
C2348 C2349 1.392 . S
C2348 C2351 1.511 . S
C2349 C2345 1.376 . S
C2349 C2348 1.392 . S
C2349 H2361 0.929 . S
C2350 C2346 1.531 . S
C2350 H2362 0.960 . S
C2350 H2363 0.962 . S
C2350 H2364 0.960 . S
C2351 C2348 1.511 . S
C2351 H2365 0.961 . S
C2351 H2366 0.961 . S
C2351 H2367 0.961 . S
C2352 C2353 1.370 . S
C2352 C2354 1.363 . S
C2352 H2368 0.931 . S
C2353 C2352 1.370 . S
C2353 C2357 1.408 . S
C2354 C2352 1.363 . S
C2354 C2355 1.370 . S
C2354 C2358 1.524 . S
C2355 C2347 1.503 . S
C2355 C2354 1.370 . S
C2355 C2356 1.403 . S
C2356 C2355 1.403 . S
C2356 C2357 1.404 . S
C2356 C2359 1.539 . S
C2357 C2353 1.408 . S
C2357 C2356 1.404 . S
C2357 H2369 0.930 . S
C2358 C2354 1.524 . S
C2358 H2370 0.956 . S
C2358 H2371 0.961 . S
C2358 H2372 0.961 . S
C2359 C2356 1.539 . S
C2359 H2373 0.958 . S
C2359 H2374 0.961 . S
C2359 H2375 0.960 . S
H2360 C2344 0.931 . S
H2361 C2349 0.929 . S
H2362 C2350 0.960 . S
H2363 C2350 0.962 . S
H2364 C2350 0.960 . S
H2365 C2351 0.961 . S
H2366 C2351 0.961 . S
H2367 C2351 0.961 . S
H2368 C2352 0.931 . S
H2369 C2357 0.930 . S
H2370 C2358 0.956 . S
H2371 C2358 0.961 . S
H2372 C2358 0.961 . S
H2373 C2359 0.958 . S
H2374 C2359 0.961 . S
H2375 C2359 0.960 . S
C2376 C2377 1.391 . S
C2376 C2378 1.394 . S
C2376 H2392 0.931 . S
C2377 C2376 1.391 . S
C2377 C2381 1.376 . S
C2378 C2376 1.394 . S
C2378 C2379 1.369 . S
C2378 C2382 1.531 . S
C2379 C2378 1.369 . S
C2379 C2380 1.410 . S
C2379 C2387 1.503 . S
C2380 C2379 1.410 . S
C2380 C2381 1.392 . S
C2380 C2383 1.511 . S
C2381 C2377 1.376 . S
C2381 C2380 1.392 . S
C2381 H2393 0.929 . S
C2382 C2378 1.531 . S
C2382 H2394 0.960 . S
C2382 H2395 0.962 . S
C2382 H2396 0.960 . S
C2383 C2380 1.511 . S
C2383 H2397 0.961 . S
C2383 H2398 0.961 . S
C2383 H2399 0.961 . S
C2384 C2385 1.370 . S
C2384 C2386 1.363 . S
C2384 H2400 0.931 . S
C2385 C2384 1.370 . S
C2385 C2389 1.408 . S
C2386 C2384 1.363 . S
C2386 C2387 1.370 . S
C2386 C2390 1.524 . S
C2387 C2379 1.503 . S
C2387 C2386 1.370 . S
C2387 C2388 1.403 . S
C2388 C2387 1.403 . S
C2388 C2389 1.404 . S
C2388 C2391 1.539 . S
C2389 C2385 1.408 . S
C2389 C2388 1.404 . S
C2389 H2401 0.930 . S
C2390 C2386 1.524 . S
C2390 H2402 0.956 . S
C2390 H2403 0.961 . S
C2390 H2404 0.961 . S
C2391 C2388 1.539 . S
C2391 H2405 0.958 . S
C2391 H2406 0.961 . S
C2391 H2407 0.960 . S
H2392 C2376 0.931 . S
H2393 C2381 0.929 . S
H2394 C2382 0.960 . S
H2395 C2382 0.962 . S
H2396 C2382 0.960 . S
H2397 C2383 0.961 . S
H2398 C2383 0.961 . S
H2399 C2383 0.961 . S
H2400 C2384 0.931 . S
H2401 C2389 0.930 . S
H2402 C2390 0.956 . S
H2403 C2390 0.961 . S
H2404 C2390 0.961 . S
H2405 C2391 0.958 . S
H2406 C2391 0.961 . S
H2407 C2391 0.960 . S
C2408 C2409 1.391 . S
C2408 C2410 1.394 . S
C2408 H2424 0.931 . S
C2409 C2408 1.391 . S
C2409 C2413 1.376 . S
C2410 C2408 1.394 . S
C2410 C2411 1.369 . S
C2410 C2414 1.531 . S
C2411 C2410 1.369 . S
C2411 C2412 1.410 . S
C2411 C2419 1.503 . S
C2412 C2411 1.410 . S
C2412 C2413 1.392 . S
C2412 C2415 1.511 . S
C2413 C2409 1.376 . S
C2413 C2412 1.392 . S
C2413 H2425 0.929 . S
C2414 C2410 1.531 . S
C2414 H2426 0.960 . S
C2414 H2427 0.962 . S
C2414 H2428 0.960 . S
C2415 C2412 1.511 . S
C2415 H2429 0.961 . S
C2415 H2430 0.961 . S
C2415 H2431 0.961 . S
C2416 C2417 1.370 . S
C2416 C2418 1.363 . S
C2416 H2432 0.931 . S
C2417 C2416 1.370 . S
C2417 C2421 1.408 . S
C2418 C2416 1.363 . S
C2418 C2419 1.370 . S
C2418 C2422 1.524 . S
C2419 C2411 1.503 . S
C2419 C2418 1.370 . S
C2419 C2420 1.403 . S
C2420 C2419 1.403 . S
C2420 C2421 1.404 . S
C2420 C2423 1.539 . S
C2421 C2417 1.408 . S
C2421 C2420 1.404 . S
C2421 H2433 0.930 . S
C2422 C2418 1.524 . S
C2422 H2434 0.956 . S
C2422 H2435 0.961 . S
C2422 H2436 0.961 . S
C2423 C2420 1.539 . S
C2423 H2437 0.958 . S
C2423 H2438 0.961 . S
C2423 H2439 0.960 . S
H2424 C2408 0.931 . S
H2425 C2413 0.929 . S
H2426 C2414 0.960 . S
H2427 C2414 0.962 . S
H2428 C2414 0.960 . S
H2429 C2415 0.961 . S
H2430 C2415 0.961 . S
H2431 C2415 0.961 . S
H2432 C2416 0.931 . S
H2433 C2421 0.930 . S
H2434 C2422 0.956 . S
H2435 C2422 0.961 . S
H2436 C2422 0.961 . S
H2437 C2423 0.958 . S
H2438 C2423 0.961 . S
H2439 C2423 0.960 . S
C2440 C2441 1.391 . S
C2440 C2442 1.394 . S
C2440 H2456 0.931 . S
C2441 C2440 1.391 . S
C2441 C2445 1.376 . S
C2442 C2440 1.394 . S
C2442 C2443 1.369 . S
C2442 C2446 1.531 . S
C2443 C2442 1.369 . S
C2443 C2444 1.410 . S
C2443 C2451 1.503 . S
C2444 C2443 1.410 . S
C2444 C2445 1.392 . S
C2444 C2447 1.511 . S
C2445 C2441 1.376 . S
C2445 C2444 1.392 . S
C2445 H2457 0.929 . S
C2446 C2442 1.531 . S
C2446 H2458 0.960 . S
C2446 H2459 0.962 . S
C2446 H2460 0.960 . S
C2447 C2444 1.511 . S
C2447 H2461 0.961 . S
C2447 H2462 0.961 . S
C2447 H2463 0.961 . S
C2448 C2449 1.370 . S
C2448 C2450 1.363 . S
C2448 H2464 0.931 . S
C2449 C2448 1.370 . S
C2449 C2453 1.408 . S
C2450 C2448 1.363 . S
C2450 C2451 1.370 . S
C2450 C2454 1.524 . S
C2451 C2443 1.503 . S
C2451 C2450 1.370 . S
C2451 C2452 1.403 . S
C2452 C2451 1.403 . S
C2452 C2453 1.404 . S
C2452 C2455 1.539 . S
C2453 C2449 1.408 . S
C2453 C2452 1.404 . S
C2453 H2465 0.930 . S
C2454 C2450 1.524 . S
C2454 H2466 0.956 . S
C2454 H2467 0.961 . S
C2454 H2468 0.961 . S
C2455 C2452 1.539 . S
C2455 H2469 0.958 . S
C2455 H2470 0.961 . S
C2455 H2471 0.960 . S
H2456 C2440 0.931 . S
H2457 C2445 0.929 . S
H2458 C2446 0.960 . S
H2459 C2446 0.962 . S
H2460 C2446 0.960 . S
H2461 C2447 0.961 . S
H2462 C2447 0.961 . S
H2463 C2447 0.961 . S
H2464 C2448 0.931 . S
H2465 C2453 0.930 . S
H2466 C2454 0.956 . S
H2467 C2454 0.961 . S
H2468 C2454 0.961 . S
H2469 C2455 0.958 . S
H2470 C2455 0.961 . S
H2471 C2455 0.960 . S
C2472 C2473 1.391 . S
C2472 C2474 1.394 . S
C2472 H2488 0.931 . S
C2473 C2472 1.391 . S
C2473 C2477 1.376 . S
C2474 C2472 1.394 . S
C2474 C2475 1.369 . S
C2474 C2478 1.531 . S
C2475 C2474 1.369 . S
C2475 C2476 1.410 . S
C2475 C2483 1.503 . S
C2476 C2475 1.410 . S
C2476 C2477 1.392 . S
C2476 C2479 1.511 . S
C2477 C2473 1.376 . S
C2477 C2476 1.392 . S
C2477 H2489 0.929 . S
C2478 C2474 1.531 . S
C2478 H2490 0.960 . S
C2478 H2491 0.962 . S
C2478 H2492 0.960 . S
C2479 C2476 1.511 . S
C2479 H2493 0.961 . S
C2479 H2494 0.961 . S
C2479 H2495 0.961 . S
C2480 C2481 1.370 . S
C2480 C2482 1.363 . S
C2480 H2496 0.931 . S
C2481 C2480 1.370 . S
C2481 C2485 1.408 . S
C2482 C2480 1.363 . S
C2482 C2483 1.370 . S
C2482 C2486 1.524 . S
C2483 C2475 1.503 . S
C2483 C2482 1.370 . S
C2483 C2484 1.403 . S
C2484 C2483 1.403 . S
C2484 C2485 1.404 . S
C2484 C2487 1.539 . S
C2485 C2481 1.408 . S
C2485 C2484 1.404 . S
C2485 H2497 0.930 . S
C2486 C2482 1.524 . S
C2486 H2498 0.956 . S
C2486 H2499 0.961 . S
C2486 H2500 0.961 . S
C2487 C2484 1.539 . S
C2487 H2501 0.958 . S
C2487 H2502 0.961 . S
C2487 H2503 0.960 . S
H2488 C2472 0.931 . S
H2489 C2477 0.929 . S
H2490 C2478 0.960 . S
H2491 C2478 0.962 . S
H2492 C2478 0.960 . S
H2493 C2479 0.961 . S
H2494 C2479 0.961 . S
H2495 C2479 0.961 . S
H2496 C2480 0.931 . S
H2497 C2485 0.930 . S
H2498 C2486 0.956 . S
H2499 C2486 0.961 . S
H2500 C2486 0.961 . S
H2501 C2487 0.958 . S
H2502 C2487 0.961 . S
H2503 C2487 0.960 . S
C2504 C2505 1.391 . S
C2504 C2506 1.394 . S
C2504 H2520 0.931 . S
C2505 C2504 1.391 . S
C2505 C2509 1.376 . S
C2506 C2504 1.394 . S
C2506 C2507 1.369 . S
C2506 C2510 1.531 . S
C2507 C2506 1.369 . S
C2507 C2508 1.410 . S
C2507 C2515 1.503 . S
C2508 C2507 1.410 . S
C2508 C2509 1.392 . S
C2508 C2511 1.511 . S
C2509 C2505 1.376 . S
C2509 C2508 1.392 . S
C2509 H2521 0.929 . S
C2510 C2506 1.531 . S
C2510 H2522 0.960 . S
C2510 H2523 0.962 . S
C2510 H2524 0.960 . S
C2511 C2508 1.511 . S
C2511 H2525 0.961 . S
C2511 H2526 0.961 . S
C2511 H2527 0.961 . S
C2512 C2513 1.370 . S
C2512 C2514 1.363 . S
C2512 H2528 0.931 . S
C2513 C2512 1.370 . S
C2513 C2517 1.408 . S
C2514 C2512 1.363 . S
C2514 C2515 1.370 . S
C2514 C2518 1.524 . S
C2515 C2507 1.503 . S
C2515 C2514 1.370 . S
C2515 C2516 1.403 . S
C2516 C2515 1.403 . S
C2516 C2517 1.404 . S
C2516 C2519 1.539 . S
C2517 C2513 1.408 . S
C2517 C2516 1.404 . S
C2517 H2529 0.930 . S
C2518 C2514 1.524 . S
C2518 H2530 0.956 . S
C2518 H2531 0.961 . S
C2518 H2532 0.961 . S
C2519 C2516 1.539 . S
C2519 H2533 0.958 . S
C2519 H2534 0.961 . S
C2519 H2535 0.960 . S
H2520 C2504 0.931 . S
H2521 C2509 0.929 . S
H2522 C2510 0.960 . S
H2523 C2510 0.962 . S
H2524 C2510 0.960 . S
H2525 C2511 0.961 . S
H2526 C2511 0.961 . S
H2527 C2511 0.961 . S
H2528 C2512 0.931 . S
H2529 C2517 0.930 . S
H2530 C2518 0.956 . S
H2531 C2518 0.961 . S
H2532 C2518 0.961 . S
H2533 C2519 0.958 . S
H2534 C2519 0.961 . S
H2535 C2519 0.960 . S
C2536 C2537 1.391 . S
C2536 C2538 1.394 . S
C2536 H2552 0.931 . S
C2537 C2536 1.391 . S
C2537 C2541 1.376 . S
C2538 C2536 1.394 . S
C2538 C2539 1.369 . S
C2538 C2542 1.531 . S
C2539 C2538 1.369 . S
C2539 C2540 1.410 . S
C2539 C2547 1.503 . S
C2540 C2539 1.410 . S
C2540 C2541 1.392 . S
C2540 C2543 1.511 . S
C2541 C2537 1.376 . S
C2541 C2540 1.392 . S
C2541 H2553 0.929 . S
C2542 C2538 1.531 . S
C2542 H2554 0.960 . S
C2542 H2555 0.962 . S
C2542 H2556 0.960 . S
C2543 C2540 1.511 . S
C2543 H2557 0.961 . S
C2543 H2558 0.961 . S
C2543 H2559 0.961 . S
C2544 C2545 1.370 . S
C2544 C2546 1.363 . S
C2544 H2560 0.931 . S
C2545 C2544 1.370 . S
C2545 C2549 1.408 . S
C2546 C2544 1.363 . S
C2546 C2547 1.370 . S
C2546 C2550 1.524 . S
C2547 C2539 1.503 . S
C2547 C2546 1.370 . S
C2547 C2548 1.403 . S
C2548 C2547 1.403 . S
C2548 C2549 1.404 . S
C2548 C2551 1.539 . S
C2549 C2545 1.408 . S
C2549 C2548 1.404 . S
C2549 H2561 0.930 . S
C2550 C2546 1.524 . S
C2550 H2562 0.956 . S
C2550 H2563 0.961 . S
C2550 H2564 0.961 . S
C2551 C2548 1.539 . S
C2551 H2565 0.958 . S
C2551 H2566 0.961 . S
C2551 H2567 0.960 . S
H2552 C2536 0.931 . S
H2553 C2541 0.929 . S
H2554 C2542 0.960 . S
H2555 C2542 0.962 . S
H2556 C2542 0.960 . S
H2557 C2543 0.961 . S
H2558 C2543 0.961 . S
H2559 C2543 0.961 . S
H2560 C2544 0.931 . S
H2561 C2549 0.930 . S
H2562 C2550 0.956 . S
H2563 C2550 0.961 . S
H2564 C2550 0.961 . S
H2565 C2551 0.958 . S
H2566 C2551 0.961 . S
H2567 C2551 0.960 . S
C2568 C2569 1.391 . S
C2568 C2570 1.394 . S
C2568 H2584 0.931 . S
C2569 C2568 1.391 . S
C2569 C2573 1.376 . S
C2570 C2568 1.394 . S
C2570 C2571 1.369 . S
C2570 C2574 1.531 . S
C2571 C2570 1.369 . S
C2571 C2572 1.410 . S
C2571 C2579 1.503 . S
C2572 C2571 1.410 . S
C2572 C2573 1.392 . S
C2572 C2575 1.511 . S
C2573 C2569 1.376 . S
C2573 C2572 1.392 . S
C2573 H2585 0.929 . S
C2574 C2570 1.531 . S
C2574 H2586 0.960 . S
C2574 H2587 0.962 . S
C2574 H2588 0.960 . S
C2575 C2572 1.511 . S
C2575 H2589 0.961 . S
C2575 H2590 0.961 . S
C2575 H2591 0.961 . S
C2576 C2577 1.370 . S
C2576 C2578 1.363 . S
C2576 H2592 0.931 . S
C2577 C2576 1.370 . S
C2577 C2581 1.408 . S
C2578 C2576 1.363 . S
C2578 C2579 1.370 . S
C2578 C2582 1.524 . S
C2579 C2571 1.503 . S
C2579 C2578 1.370 . S
C2579 C2580 1.403 . S
C2580 C2579 1.403 . S
C2580 C2581 1.404 . S
C2580 C2583 1.539 . S
C2581 C2577 1.408 . S
C2581 C2580 1.404 . S
C2581 H2593 0.930 . S
C2582 C2578 1.524 . S
C2582 H2594 0.956 . S
C2582 H2595 0.961 . S
C2582 H2596 0.961 . S
C2583 C2580 1.539 . S
C2583 H2597 0.958 . S
C2583 H2598 0.961 . S
C2583 H2599 0.960 . S
H2584 C2568 0.931 . S
H2585 C2573 0.929 . S
H2586 C2574 0.960 . S
H2587 C2574 0.962 . S
H2588 C2574 0.960 . S
H2589 C2575 0.961 . S
H2590 C2575 0.961 . S
H2591 C2575 0.961 . S
H2592 C2576 0.931 . S
H2593 C2581 0.930 . S
H2594 C2582 0.956 . S
H2595 C2582 0.961 . S
H2596 C2582 0.961 . S
H2597 C2583 0.958 . S
H2598 C2583 0.961 . S
H2599 C2583 0.960 . S
C2600 C2601 1.391 . S
C2600 C2602 1.394 . S
C2600 H2616 0.931 . S
C2601 C2600 1.391 . S
C2601 C2605 1.376 . S
C2602 C2600 1.394 . S
C2602 C2603 1.369 . S
C2602 C2606 1.531 . S
C2603 C2602 1.369 . S
C2603 C2604 1.410 . S
C2603 C2611 1.503 . S
C2604 C2603 1.410 . S
C2604 C2605 1.392 . S
C2604 C2607 1.511 . S
C2605 C2601 1.376 . S
C2605 C2604 1.392 . S
C2605 H2617 0.929 . S
C2606 C2602 1.531 . S
C2606 H2618 0.960 . S
C2606 H2619 0.962 . S
C2606 H2620 0.960 . S
C2607 C2604 1.511 . S
C2607 H2621 0.961 . S
C2607 H2622 0.961 . S
C2607 H2623 0.961 . S
C2608 C2609 1.370 . S
C2608 C2610 1.363 . S
C2608 H2624 0.931 . S
C2609 C2608 1.370 . S
C2609 C2613 1.408 . S
C2610 C2608 1.363 . S
C2610 C2611 1.370 . S
C2610 C2614 1.524 . S
C2611 C2603 1.503 . S
C2611 C2610 1.370 . S
C2611 C2612 1.403 . S
C2612 C2611 1.403 . S
C2612 C2613 1.404 . S
C2612 C2615 1.539 . S
C2613 C2609 1.408 . S
C2613 C2612 1.404 . S
C2613 H2625 0.930 . S
C2614 C2610 1.524 . S
C2614 H2626 0.956 . S
C2614 H2627 0.961 . S
C2614 H2628 0.961 . S
C2615 C2612 1.539 . S
C2615 H2629 0.958 . S
C2615 H2630 0.961 . S
C2615 H2631 0.960 . S
H2616 C2600 0.931 . S
H2617 C2605 0.929 . S
H2618 C2606 0.960 . S
H2619 C2606 0.962 . S
H2620 C2606 0.960 . S
H2621 C2607 0.961 . S
H2622 C2607 0.961 . S
H2623 C2607 0.961 . S
H2624 C2608 0.931 . S
H2625 C2613 0.930 . S
H2626 C2614 0.956 . S
H2627 C2614 0.961 . S
H2628 C2614 0.961 . S
H2629 C2615 0.958 . S
H2630 C2615 0.961 . S
H2631 C2615 0.960 . S
C2632 C2633 1.391 . S
C2632 C2634 1.394 . S
C2632 H2648 0.931 . S
C2633 C2632 1.391 . S
C2633 C2637 1.376 . S
C2634 C2632 1.394 . S
C2634 C2635 1.369 . S
C2634 C2638 1.531 . S
C2635 C2634 1.369 . S
C2635 C2636 1.410 . S
C2635 C2643 1.503 . S
C2636 C2635 1.410 . S
C2636 C2637 1.392 . S
C2636 C2639 1.511 . S
C2637 C2633 1.376 . S
C2637 C2636 1.392 . S
C2637 H2649 0.929 . S
C2638 C2634 1.531 . S
C2638 H2650 0.960 . S
C2638 H2651 0.962 . S
C2638 H2652 0.960 . S
C2639 C2636 1.511 . S
C2639 H2653 0.961 . S
C2639 H2654 0.961 . S
C2639 H2655 0.961 . S
C2640 C2641 1.370 . S
C2640 C2642 1.363 . S
C2640 H2656 0.931 . S
C2641 C2640 1.370 . S
C2641 C2645 1.408 . S
C2642 C2640 1.363 . S
C2642 C2643 1.370 . S
C2642 C2646 1.524 . S
C2643 C2635 1.503 . S
C2643 C2642 1.370 . S
C2643 C2644 1.403 . S
C2644 C2643 1.403 . S
C2644 C2645 1.404 . S
C2644 C2647 1.539 . S
C2645 C2641 1.408 . S
C2645 C2644 1.404 . S
C2645 H2657 0.930 . S
C2646 C2642 1.524 . S
C2646 H2658 0.956 . S
C2646 H2659 0.961 . S
C2646 H2660 0.961 . S
C2647 C2644 1.539 . S
C2647 H2661 0.958 . S
C2647 H2662 0.961 . S
C2647 H2663 0.960 . S
H2648 C2632 0.931 . S
H2649 C2637 0.929 . S
H2650 C2638 0.960 . S
H2651 C2638 0.962 . S
H2652 C2638 0.960 . S
H2653 C2639 0.961 . S
H2654 C2639 0.961 . S
H2655 C2639 0.961 . S
H2656 C2640 0.931 . S
H2657 C2645 0.930 . S
H2658 C2646 0.956 . S
H2659 C2646 0.961 . S
H2660 C2646 0.961 . S
H2661 C2647 0.958 . S
H2662 C2647 0.961 . S
H2663 C2647 0.960 . S
C2664 C2665 1.391 . S
C2664 C2666 1.394 . S
C2664 H2680 0.931 . S
C2665 C2664 1.391 . S
C2665 C2669 1.376 . S
C2666 C2664 1.394 . S
C2666 C2667 1.369 . S
C2666 C2670 1.531 . S
C2667 C2666 1.369 . S
C2667 C2668 1.410 . S
C2667 C2675 1.503 . S
C2668 C2667 1.410 . S
C2668 C2669 1.392 . S
C2668 C2671 1.511 . S
C2669 C2665 1.376 . S
C2669 C2668 1.392 . S
C2669 H2681 0.929 . S
C2670 C2666 1.531 . S
C2670 H2682 0.960 . S
C2670 H2683 0.962 . S
C2670 H2684 0.960 . S
C2671 C2668 1.511 . S
C2671 H2685 0.961 . S
C2671 H2686 0.961 . S
C2671 H2687 0.961 . S
C2672 C2673 1.370 . S
C2672 C2674 1.363 . S
C2672 H2688 0.931 . S
C2673 C2672 1.370 . S
C2673 C2677 1.408 . S
C2674 C2672 1.363 . S
C2674 C2675 1.370 . S
C2674 C2678 1.524 . S
C2675 C2667 1.503 . S
C2675 C2674 1.370 . S
C2675 C2676 1.403 . S
C2676 C2675 1.403 . S
C2676 C2677 1.404 . S
C2676 C2679 1.539 . S
C2677 C2673 1.408 . S
C2677 C2676 1.404 . S
C2677 H2689 0.930 . S
C2678 C2674 1.524 . S
C2678 H2690 0.956 . S
C2678 H2691 0.961 . S
C2678 H2692 0.961 . S
C2679 C2676 1.539 . S
C2679 H2693 0.958 . S
C2679 H2694 0.961 . S
C2679 H2695 0.960 . S
H2680 C2664 0.931 . S
H2681 C2669 0.929 . S
H2682 C2670 0.960 . S
H2683 C2670 0.962 . S
H2684 C2670 0.960 . S
H2685 C2671 0.961 . S
H2686 C2671 0.961 . S
H2687 C2671 0.961 . S
H2688 C2672 0.931 . S
H2689 C2677 0.930 . S
H2690 C2678 0.956 . S
H2691 C2678 0.961 . S
H2692 C2678 0.961 . S
H2693 C2679 0.958 . S
H2694 C2679 0.961 . S
H2695 C2679 0.960 . S
C2696 C2697 1.391 . S
C2696 C2698 1.394 . S
C2696 H2712 0.931 . S
C2697 C2696 1.391 . S
C2697 C2701 1.376 . S
C2698 C2696 1.394 . S
C2698 C2699 1.369 . S
C2698 C2702 1.531 . S
C2699 C2698 1.369 . S
C2699 C2700 1.410 . S
C2699 C2707 1.503 . S
C2700 C2699 1.410 . S
C2700 C2701 1.392 . S
C2700 C2703 1.511 . S
C2701 C2697 1.376 . S
C2701 C2700 1.392 . S
C2701 H2713 0.929 . S
C2702 C2698 1.531 . S
C2702 H2714 0.960 . S
C2702 H2715 0.962 . S
C2702 H2716 0.960 . S
C2703 C2700 1.511 . S
C2703 H2717 0.961 . S
C2703 H2718 0.961 . S
C2703 H2719 0.961 . S
C2704 C2705 1.370 . S
C2704 C2706 1.363 . S
C2704 H2720 0.931 . S
C2705 C2704 1.370 . S
C2705 C2709 1.408 . S
C2706 C2704 1.363 . S
C2706 C2707 1.370 . S
C2706 C2710 1.524 . S
C2707 C2699 1.503 . S
C2707 C2706 1.370 . S
C2707 C2708 1.403 . S
C2708 C2707 1.403 . S
C2708 C2709 1.404 . S
C2708 C2711 1.539 . S
C2709 C2705 1.408 . S
C2709 C2708 1.404 . S
C2709 H2721 0.930 . S
C2710 C2706 1.524 . S
C2710 H2722 0.956 . S
C2710 H2723 0.961 . S
C2710 H2724 0.961 . S
C2711 C2708 1.539 . S
C2711 H2725 0.958 . S
C2711 H2726 0.961 . S
C2711 H2727 0.960 . S
H2712 C2696 0.931 . S
H2713 C2701 0.929 . S
H2714 C2702 0.960 . S
H2715 C2702 0.962 . S
H2716 C2702 0.960 . S
H2717 C2703 0.961 . S
H2718 C2703 0.961 . S
H2719 C2703 0.961 . S
H2720 C2704 0.931 . S
H2721 C2709 0.930 . S
H2722 C2710 0.956 . S
H2723 C2710 0.961 . S
H2724 C2710 0.961 . S
H2725 C2711 0.958 . S
H2726 C2711 0.961 . S
H2727 C2711 0.960 . S
C2728 C2729 1.391 . S
C2728 C2730 1.394 . S
C2728 H2744 0.931 . S
C2729 C2728 1.391 . S
C2729 C2733 1.376 . S
C2730 C2728 1.394 . S
C2730 C2731 1.369 . S
C2730 C2734 1.531 . S
C2731 C2730 1.369 . S
C2731 C2732 1.410 . S
C2731 C2739 1.503 . S
C2732 C2731 1.410 . S
C2732 C2733 1.392 . S
C2732 C2735 1.511 . S
C2733 C2729 1.376 . S
C2733 C2732 1.392 . S
C2733 H2745 0.929 . S
C2734 C2730 1.531 . S
C2734 H2746 0.960 . S
C2734 H2747 0.962 . S
C2734 H2748 0.960 . S
C2735 C2732 1.511 . S
C2735 H2749 0.961 . S
C2735 H2750 0.961 . S
C2735 H2751 0.961 . S
C2736 C2737 1.370 . S
C2736 C2738 1.363 . S
C2736 H2752 0.931 . S
C2737 C2736 1.370 . S
C2737 C2741 1.408 . S
C2738 C2736 1.363 . S
C2738 C2739 1.370 . S
C2738 C2742 1.524 . S
C2739 C2731 1.503 . S
C2739 C2738 1.370 . S
C2739 C2740 1.403 . S
C2740 C2739 1.403 . S
C2740 C2741 1.404 . S
C2740 C2743 1.539 . S
C2741 C2737 1.408 . S
C2741 C2740 1.404 . S
C2741 H2753 0.930 . S
C2742 C2738 1.524 . S
C2742 H2754 0.956 . S
C2742 H2755 0.961 . S
C2742 H2756 0.961 . S
C2743 C2740 1.539 . S
C2743 H2757 0.958 . S
C2743 H2758 0.961 . S
C2743 H2759 0.960 . S
H2744 C2728 0.931 . S
H2745 C2733 0.929 . S
H2746 C2734 0.960 . S
H2747 C2734 0.962 . S
H2748 C2734 0.960 . S
H2749 C2735 0.961 . S
H2750 C2735 0.961 . S
H2751 C2735 0.961 . S
H2752 C2736 0.931 . S
H2753 C2741 0.930 . S
H2754 C2742 0.956 . S
H2755 C2742 0.961 . S
H2756 C2742 0.961 . S
H2757 C2743 0.958 . S
H2758 C2743 0.961 . S
H2759 C2743 0.960 . S
C2760 C2761 1.391 . S
C2760 C2762 1.394 . S
C2760 H2776 0.931 . S
C2761 C2760 1.391 . S
C2761 C2765 1.376 . S
C2762 C2760 1.394 . S
C2762 C2763 1.369 . S
C2762 C2766 1.531 . S
C2763 C2762 1.369 . S
C2763 C2764 1.410 . S
C2763 C2771 1.503 . S
C2764 C2763 1.410 . S
C2764 C2765 1.392 . S
C2764 C2767 1.511 . S
C2765 C2761 1.376 . S
C2765 C2764 1.392 . S
C2765 H2777 0.929 . S
C2766 C2762 1.531 . S
C2766 H2778 0.960 . S
C2766 H2779 0.962 . S
C2766 H2780 0.960 . S
C2767 C2764 1.511 . S
C2767 H2781 0.961 . S
C2767 H2782 0.961 . S
C2767 H2783 0.961 . S
C2768 C2769 1.370 . S
C2768 C2770 1.363 . S
C2768 H2784 0.931 . S
C2769 C2768 1.370 . S
C2769 C2773 1.408 . S
C2770 C2768 1.363 . S
C2770 C2771 1.370 . S
C2770 C2774 1.524 . S
C2771 C2763 1.503 . S
C2771 C2770 1.370 . S
C2771 C2772 1.403 . S
C2772 C2771 1.403 . S
C2772 C2773 1.404 . S
C2772 C2775 1.539 . S
C2773 C2769 1.408 . S
C2773 C2772 1.404 . S
C2773 H2785 0.930 . S
C2774 C2770 1.524 . S
C2774 H2786 0.956 . S
C2774 H2787 0.961 . S
C2774 H2788 0.961 . S
C2775 C2772 1.539 . S
C2775 H2789 0.958 . S
C2775 H2790 0.961 . S
C2775 H2791 0.960 . S
H2776 C2760 0.931 . S
H2777 C2765 0.929 . S
H2778 C2766 0.960 . S
H2779 C2766 0.962 . S
H2780 C2766 0.960 . S
H2781 C2767 0.961 . S
H2782 C2767 0.961 . S
H2783 C2767 0.961 . S
H2784 C2768 0.931 . S
H2785 C2773 0.930 . S
H2786 C2774 0.956 . S
H2787 C2774 0.961 . S
H2788 C2774 0.961 . S
H2789 C2775 0.958 . S
H2790 C2775 0.961 . S
H2791 C2775 0.960 . S
C2792 C2793 1.391 . S
C2792 C2794 1.394 . S
C2792 H2808 0.931 . S
C2793 C2792 1.391 . S
C2793 C2797 1.376 . S
C2794 C2792 1.394 . S
C2794 C2795 1.369 . S
C2794 C2798 1.531 . S
C2795 C2794 1.369 . S
C2795 C2796 1.410 . S
C2795 C2803 1.503 . S
C2796 C2795 1.410 . S
C2796 C2797 1.392 . S
C2796 C2799 1.511 . S
C2797 C2793 1.376 . S
C2797 C2796 1.392 . S
C2797 H2809 0.929 . S
C2798 C2794 1.531 . S
C2798 H2810 0.960 . S
C2798 H2811 0.962 . S
C2798 H2812 0.960 . S
C2799 C2796 1.511 . S
C2799 H2813 0.961 . S
C2799 H2814 0.961 . S
C2799 H2815 0.961 . S
C2800 C2801 1.370 . S
C2800 C2802 1.363 . S
C2800 H2816 0.931 . S
C2801 C2800 1.370 . S
C2801 C2805 1.408 . S
C2802 C2800 1.363 . S
C2802 C2803 1.370 . S
C2802 C2806 1.524 . S
C2803 C2795 1.503 . S
C2803 C2802 1.370 . S
C2803 C2804 1.403 . S
C2804 C2803 1.403 . S
C2804 C2805 1.404 . S
C2804 C2807 1.539 . S
C2805 C2801 1.408 . S
C2805 C2804 1.404 . S
C2805 H2817 0.930 . S
C2806 C2802 1.524 . S
C2806 H2818 0.956 . S
C2806 H2819 0.961 . S
C2806 H2820 0.961 . S
C2807 C2804 1.539 . S
C2807 H2821 0.958 . S
C2807 H2822 0.961 . S
C2807 H2823 0.960 . S
H2808 C2792 0.931 . S
H2809 C2797 0.929 . S
H2810 C2798 0.960 . S
H2811 C2798 0.962 . S
H2812 C2798 0.960 . S
H2813 C2799 0.961 . S
H2814 C2799 0.961 . S
H2815 C2799 0.961 . S
H2816 C2800 0.931 . S
H2817 C2805 0.930 . S
H2818 C2806 0.956 . S
H2819 C2806 0.961 . S
H2820 C2806 0.961 . S
H2821 C2807 0.958 . S
H2822 C2807 0.961 . S
H2823 C2807 0.960 . S
C2824 C2825 1.391 . S
C2824 C2826 1.394 . S
C2824 H2840 0.931 . S
C2825 C2824 1.391 . S
C2825 C2829 1.376 . S
C2826 C2824 1.394 . S
C2826 C2827 1.369 . S
C2826 C2830 1.531 . S
C2827 C2826 1.369 . S
C2827 C2828 1.410 . S
C2827 C2835 1.503 . S
C2828 C2827 1.410 . S
C2828 C2829 1.392 . S
C2828 C2831 1.511 . S
C2829 C2825 1.376 . S
C2829 C2828 1.392 . S
C2829 H2841 0.929 . S
C2830 C2826 1.531 . S
C2830 H2842 0.960 . S
C2830 H2843 0.962 . S
C2830 H2844 0.960 . S
C2831 C2828 1.511 . S
C2831 H2845 0.961 . S
C2831 H2846 0.961 . S
C2831 H2847 0.961 . S
C2832 C2833 1.370 . S
C2832 C2834 1.363 . S
C2832 H2848 0.931 . S
C2833 C2832 1.370 . S
C2833 C2837 1.408 . S
C2834 C2832 1.363 . S
C2834 C2835 1.370 . S
C2834 C2838 1.524 . S
C2835 C2827 1.503 . S
C2835 C2834 1.370 . S
C2835 C2836 1.403 . S
C2836 C2835 1.403 . S
C2836 C2837 1.404 . S
C2836 C2839 1.539 . S
C2837 C2833 1.408 . S
C2837 C2836 1.404 . S
C2837 H2849 0.930 . S
C2838 C2834 1.524 . S
C2838 H2850 0.956 . S
C2838 H2851 0.961 . S
C2838 H2852 0.961 . S
C2839 C2836 1.539 . S
C2839 H2853 0.958 . S
C2839 H2854 0.961 . S
C2839 H2855 0.960 . S
H2840 C2824 0.931 . S
H2841 C2829 0.929 . S
H2842 C2830 0.960 . S
H2843 C2830 0.962 . S
H2844 C2830 0.960 . S
H2845 C2831 0.961 . S
H2846 C2831 0.961 . S
H2847 C2831 0.961 . S
H2848 C2832 0.931 . S
H2849 C2837 0.930 . S
H2850 C2838 0.956 . S
H2851 C2838 0.961 . S
H2852 C2838 0.961 . S
H2853 C2839 0.958 . S
H2854 C2839 0.961 . S
H2855 C2839 0.960 . S
C2856 C2857 1.391 . S
C2856 C2858 1.394 . S
C2856 H2872 0.931 . S
C2857 C2856 1.391 . S
C2857 C2861 1.376 . S
C2858 C2856 1.394 . S
C2858 C2859 1.369 . S
C2858 C2862 1.531 . S
C2859 C2858 1.369 . S
C2859 C2860 1.410 . S
C2859 C2867 1.503 . S
C2860 C2859 1.410 . S
C2860 C2861 1.392 . S
C2860 C2863 1.511 . S
C2861 C2857 1.376 . S
C2861 C2860 1.392 . S
C2861 H2873 0.929 . S
C2862 C2858 1.531 . S
C2862 H2874 0.960 . S
C2862 H2875 0.962 . S
C2862 H2876 0.960 . S
C2863 C2860 1.511 . S
C2863 H2877 0.961 . S
C2863 H2878 0.961 . S
C2863 H2879 0.961 . S
C2864 C2865 1.370 . S
C2864 C2866 1.363 . S
C2864 H2880 0.931 . S
C2865 C2864 1.370 . S
C2865 C2869 1.408 . S
C2866 C2864 1.363 . S
C2866 C2867 1.370 . S
C2866 C2870 1.524 . S
C2867 C2859 1.503 . S
C2867 C2866 1.370 . S
C2867 C2868 1.403 . S
C2868 C2867 1.403 . S
C2868 C2869 1.404 . S
C2868 C2871 1.539 . S
C2869 C2865 1.408 . S
C2869 C2868 1.404 . S
C2869 H2881 0.930 . S
C2870 C2866 1.524 . S
C2870 H2882 0.956 . S
C2870 H2883 0.961 . S
C2870 H2884 0.961 . S
C2871 C2868 1.539 . S
C2871 H2885 0.958 . S
C2871 H2886 0.961 . S
C2871 H2887 0.960 . S
H2872 C2856 0.931 . S
H2873 C2861 0.929 . S
H2874 C2862 0.960 . S
H2875 C2862 0.962 . S
H2876 C2862 0.960 . S
H2877 C2863 0.961 . S
H2878 C2863 0.961 . S
H2879 C2863 0.961 . S
H2880 C2864 0.931 . S
H2881 C2869 0.930 . S
H2882 C2870 0.956 . S
H2883 C2870 0.961 . S
H2884 C2870 0.961 . S
H2885 C2871 0.958 . S
H2886 C2871 0.961 . S
H2887 C2871 0.960 . S
C2888 C2889 1.391 . S
C2888 C2890 1.394 . S
C2888 H2904 0.931 . S
C2889 C2888 1.391 . S
C2889 C2893 1.376 . S
C2890 C2888 1.394 . S
C2890 C2891 1.369 . S
C2890 C2894 1.531 . S
C2891 C2890 1.369 . S
C2891 C2892 1.410 . S
C2891 C2899 1.503 . S
C2892 C2891 1.410 . S
C2892 C2893 1.392 . S
C2892 C2895 1.511 . S
C2893 C2889 1.376 . S
C2893 C2892 1.392 . S
C2893 H2905 0.929 . S
C2894 C2890 1.531 . S
C2894 H2906 0.960 . S
C2894 H2907 0.962 . S
C2894 H2908 0.960 . S
C2895 C2892 1.511 . S
C2895 H2909 0.961 . S
C2895 H2910 0.961 . S
C2895 H2911 0.961 . S
C2896 C2897 1.370 . S
C2896 C2898 1.363 . S
C2896 H2912 0.931 . S
C2897 C2896 1.370 . S
C2897 C2901 1.408 . S
C2898 C2896 1.363 . S
C2898 C2899 1.370 . S
C2898 C2902 1.524 . S
C2899 C2891 1.503 . S
C2899 C2898 1.370 . S
C2899 C2900 1.403 . S
C2900 C2899 1.403 . S
C2900 C2901 1.404 . S
C2900 C2903 1.539 . S
C2901 C2897 1.408 . S
C2901 C2900 1.404 . S
C2901 H2913 0.930 . S
C2902 C2898 1.524 . S
C2902 H2914 0.956 . S
C2902 H2915 0.961 . S
C2902 H2916 0.961 . S
C2903 C2900 1.539 . S
C2903 H2917 0.958 . S
C2903 H2918 0.961 . S
C2903 H2919 0.960 . S
H2904 C2888 0.931 . S
H2905 C2893 0.929 . S
H2906 C2894 0.960 . S
H2907 C2894 0.962 . S
H2908 C2894 0.960 . S
H2909 C2895 0.961 . S
H2910 C2895 0.961 . S
H2911 C2895 0.961 . S
H2912 C2896 0.931 . S
H2913 C2901 0.930 . S
H2914 C2902 0.956 . S
H2915 C2902 0.961 . S
H2916 C2902 0.961 . S
H2917 C2903 0.958 . S
H2918 C2903 0.961 . S
H2919 C2903 0.960 . S
C2920 C2921 1.391 . S
C2920 C2922 1.394 . S
C2920 H2936 0.931 . S
C2921 C2920 1.391 . S
C2921 C2925 1.376 . S
C2922 C2920 1.394 . S
C2922 C2923 1.369 . S
C2922 C2926 1.531 . S
C2923 C2922 1.369 . S
C2923 C2924 1.410 . S
C2923 C2931 1.503 . S
C2924 C2923 1.410 . S
C2924 C2925 1.392 . S
C2924 C2927 1.511 . S
C2925 C2921 1.376 . S
C2925 C2924 1.392 . S
C2925 H2937 0.929 . S
C2926 C2922 1.531 . S
C2926 H2938 0.960 . S
C2926 H2939 0.962 . S
C2926 H2940 0.960 . S
C2927 C2924 1.511 . S
C2927 H2941 0.961 . S
C2927 H2942 0.961 . S
C2927 H2943 0.961 . S
C2928 C2929 1.370 . S
C2928 C2930 1.363 . S
C2928 H2944 0.931 . S
C2929 C2928 1.370 . S
C2929 C2933 1.408 . S
C2930 C2928 1.363 . S
C2930 C2931 1.370 . S
C2930 C2934 1.524 . S
C2931 C2923 1.503 . S
C2931 C2930 1.370 . S
C2931 C2932 1.403 . S
C2932 C2931 1.403 . S
C2932 C2933 1.404 . S
C2932 C2935 1.539 . S
C2933 C2929 1.408 . S
C2933 C2932 1.404 . S
C2933 H2945 0.930 . S
C2934 C2930 1.524 . S
C2934 H2946 0.956 . S
C2934 H2947 0.961 . S
C2934 H2948 0.961 . S
C2935 C2932 1.539 . S
C2935 H2949 0.958 . S
C2935 H2950 0.961 . S
C2935 H2951 0.960 . S
H2936 C2920 0.931 . S
H2937 C2925 0.929 . S
H2938 C2926 0.960 . S
H2939 C2926 0.962 . S
H2940 C2926 0.960 . S
H2941 C2927 0.961 . S
H2942 C2927 0.961 . S
H2943 C2927 0.961 . S
H2944 C2928 0.931 . S
H2945 C2933 0.930 . S
H2946 C2934 0.956 . S
H2947 C2934 0.961 . S
H2948 C2934 0.961 . S
H2949 C2935 0.958 . S
H2950 C2935 0.961 . S
H2951 C2935 0.960 . S
C1417 C1301 1.687 . S
C1425 C3 1.654 . S
C1449 C62 1.664 . S
C1457 C949 1.706 . S
C1481 C1360 1.667 . S
C1489 C123 1.702 . S
C1513 C1244 1.731 . S
C1521 C182 1.698 . S
C1545 C1067 1.733 . S
C1553 C241 1.695 . S
C1577 C1124 1.674 . S
C1585 C298 1.656 . S
C1609 C1185 1.737 . S
C1617 C357 1.650 . S
C1641 C418 1.705 . S
C1649 C1006 1.662 . S
C1673 C770 1.689 . S
C1681 C475 1.655 . S
C1705 C831 1.732 . S
C1713 C536 1.692 . S
C1737 C593 1.687 . S
C1745 C888 1.657 . S
C1769 C654 1.711 . S
C1777 C713 1.699 . S
C1801 C416 1.664 . S
C1809 C829 1.659 . S
C1833 C890 1.695 . S
C1841 C239 1.668 . S
C1865 C300 1.682 . S
C1873 C711 1.671 . S
C1897 C772 1.699 . S
C1905 C359 1.712 . S
C1929 C595 1.685 . S
C1937 C64 1.715 . S
C1961 C121 1.621 . S
C1969 C652 1.677 . S
C1993 C180 1.667 . S
C2001 C477 1.709 . S
C2025 C5 1.674 . S
C2033 C534 1.676 . S
C2057 C1183 1.627 . S
C2065 C1242 1.681 . S
C2089 C1303 1.683 . S
C2097 C1008 1.713 . S
C2121 C1065 1.685 . S
C2129 C947 1.657 . S
C2153 C1362 1.676 . S
C2161 C1126 1.714 . S
C2185 C33 0.769 . S
C2193 C524 0.728 . S
C2217 C564 0.711 . S
C2225 C92 0.696 . S
C2249 C170 0.753 . S
C2257 C642 0.725 . S
C2281 C229 0.756 . S
C2289 C682 0.727 . S
C2313 C288 0.698 . S
C2321 C741 0.702 . S
C2345 C328 0.742 . S
C2353 C819 0.734 . S
C2377 C859 0.766 . S
C2385 C387 0.707 . S
C2409 C937 0.707 . S
C2417 C465 0.742 . S
C2441 C505 0.759 . S
C2449 C977 0.706 . S
C2473 C583 0.727 . S
C2481 C1409 0.731 . S
C2505 C1272 0.680 . S
C2513 C623 0.715 . S
C2537 C1350 0.760 . S
C2545 C701 0.711 . S
C2569 C1055 0.760 . S
C2577 C760 0.707 . S
C2601 C1095 0.671 . S
C2609 C800 0.724 . S
C2633 C878 0.701 . S
C2641 C1173 0.706 . S
C2665 C918 0.770 . S
C2673 C1213 0.731 . S
C2697 C52 0.705 . S
C2705 C996 0.742 . S
C2729 C1036 0.715 . S
C2737 C269 0.739 . S
C2761 C1114 0.758 . S
C2769 C347 0.706 . S
C2793 C1154 0.702 . S
C2801 C406 0.706 . S
C2825 C1232 0.706 . S
C2833 C446 0.746 . S
C2857 C1291 0.721 . S
C2865 C151 0.742 . S
C2889 C210 0.693 . S
C2897 C1331 0.704 . S
C2921 C1390 0.742 . S
C2929 C111 0.730 . S
