# Generated by pormake.
# Topology unj, (4)-cn, num edge types: 1
# Building blocks:
#     Node 0, Type 0, BuildingBlock: KUFVIS_clean_sbu_0, # of connection points: 4
#     Node 1, Type 0, BuildingBlock: KUFVIS_clean_sbu_0, # of connection points: 4
#     Node 2, Type 0, BuildingBlock: KUFVIS_clean_sbu_0, # of connection points: 4
#     Node 3, Type 0, BuildingBlock: KUFVIS_clean_sbu_0, # of connection points: 4
#     Node 4, Type 0, BuildingBlock: KUFVIS_clean_sbu_0, # of connection points: 4
#     Node 5, Type 0, BuildingBlock: KUFVIS_clean_sbu_0, # of connection points: 4
#     Edge 6, Type (0, 0), BuildingBlock: AJUNOK_clean_linker_0, # of connection points: 2
#     Edge 7, Type (0, 0), BuildingBlock: AJUNOK_clean_linker_0, # of connection points: 2
#     Edge 8, Type (0, 0), BuildingBlock: AJUNOK_clean_linker_0, # of connection points: 2
#     Edge 9, Type (0, 0), BuildingBlock: AJUNOK_clean_linker_0, # of connection points: 2
#     Edge 10, Type (0, 0), BuildingBlock: AJUNOK_clean_linker_0, # of connection points: 2
#     Edge 11, Type (0, 0), BuildingBlock: AJUNOK_clean_linker_0, # of connection points: 2
#     Edge 12, Type (0, 0), BuildingBlock: AJUNOK_clean_linker_0, # of connection points: 2
#     Edge 13, Type (0, 0), BuildingBlock: AJUNOK_clean_linker_0, # of connection points: 2
#     Edge 14, Type (0, 0), BuildingBlock: AJUNOK_clean_linker_0, # of connection points: 2
#     Edge 15, Type (0, 0), BuildingBlock: AJUNOK_clean_linker_0, # of connection points: 2
#     Edge 16, Type (0, 0), BuildingBlock: AJUNOK_clean_linker_0, # of connection points: 2
#     Edge 17, Type (0, 0), BuildingBlock: AJUNOK_clean_linker_0, # of connection points: 2
# Relax obj value: 0.011
# Max RMSD: 0.050
# Mean RMSD: 0.050
data_MOF--net-unj--node1-KUFVIS_clean_sbu_0--edge1-AJUNOK_clean_linker_0
_symmetry_space_group_name_H-M    P1
_symmetry_Int_Tables_number       1
_symmetry_cell_setting            triclinic
loop_
_symmetry_equiv_pos_as_xyz
'x, y, z'
_cell_length_a     23.774632
_cell_length_b     23.813642
_cell_length_c     26.058275
_cell_angle_alpha  89.983377
_cell_angle_beta   90.002248
_cell_angle_gamma 119.94699
loop_
_atom_site_label
_atom_site_type_symbol
_atom_site_fract_x
_atom_site_fract_y
_atom_site_fract_z
_atom_type_partial_charge
Mn0 Mn 0.53638 0.26773 0.60066 0.0
Mn1 Mn 0.66065 0.24269 0.57142 0.0
C2 C 0.58757 0.24018 0.66389 0.0
C3 C 0.49963 0.33844 0.626 0.0
C4 C 0.52002 0.14709 0.54462 0.0
O5 O 0.56722 0.31298 0.53127 0.0
O6 O 0.65332 0.29862 0.51877 0.0
C7 C 0.77057 0.37649 0.58384 0.0
N8 N 0.74023 0.31267 0.59716 0.0
C9 C 0.82463 0.33192 0.65755 0.0
C10 C 0.85689 0.39778 0.6443 0.0
C11 C 0.82969 0.42014 0.60733 0.0
C12 C 0.76607 0.29059 0.63259 0.0
H13 H 0.74974 0.39401 0.55563 0.0
C14 C 0.61745 0.32252 0.50606 0.0
O15 O 0.46128 0.28399 0.60312 0.0
O16 O 0.55891 0.35175 0.63344 0.0
N17 N 0.67284 0.19037 0.62108 0.0
C18 C 0.63358 0.12633 0.63196 0.0
C19 C 0.65294 0.09672 0.66916 0.0
C20 C 0.71224 0.1333 0.69496 0.0
C21 C 0.75183 0.19915 0.68316 0.0
C22 C 0.73042 0.22581 0.64522 0.0
H23 H 0.58761 0.09816 0.61272 0.0
O24 O 0.52877 0.22891 0.67104 0.0
O25 O 0.61265 0.26485 0.61985 0.0
O26 O 0.49528 0.17824 0.56574 0.0
O27 O 0.58099 0.16746 0.54429 0.0
C28 C 0.81106 0.23965 0.70827 0.0
C29 C 0.84743 0.30599 0.69549 0.0
H30 H 0.90222 0.43171 0.66264 0.0
H31 H 0.85414 0.47096 0.59709 0.0
H32 H 0.62192 0.04597 0.6783 0.0
H33 H 0.72657 0.11049 0.72413 0.0
H34 H 0.82866 0.22047 0.73797 0.0
H35 H 0.89241 0.33683 0.71561 0.0
Mn36 Mn 0.30314 0.52159 0.76503 0.0
Mn37 Mn 0.45266 0.64761 0.74009 0.0
C38 C 0.37876 0.57244 0.83053 0.0
C39 C 0.19461 0.4836 0.78834 0.0
C40 C 0.41117 0.50797 0.71235 0.0
O41 O 0.29114 0.55326 0.6949 0.0
O42 O 0.39124 0.64059 0.68605 0.0
C43 C 0.42866 0.75781 0.75 0.0
N44 N 0.46021 0.72632 0.76583 0.0
C45 C 0.52287 0.81023 0.82716 0.0
C46 C 0.49093 0.84343 0.81159 0.0
C47 C 0.44371 0.81715 0.77278 0.0
C48 C 0.50624 0.75156 0.80275 0.0
H49 H 0.39231 0.73786 0.7202 0.0
C50 C 0.3326 0.60432 0.67099 0.0
O51 O 0.21198 0.44597 0.76578 0.0
O52 O 0.23978 0.54293 0.79606 0.0
N53 N 0.5152 0.65936 0.79152 0.0
C54 C 0.5405 0.62061 0.80297 0.0
C55 C 0.58822 0.63985 0.84123 0.0
C56 C 0.60942 0.69867 0.86732 0.0
C57 C 0.58263 0.73773 0.85493 0.0
C58 C 0.5355 0.71622 0.81624 0.0
H59 H 0.52411 0.57518 0.7833 0.0
O60 O 0.33159 0.51338 0.83642 0.0
O61 O 0.38075 0.59792 0.78638 0.0
O62 O 0.35419 0.48189 0.73181 0.0
O63 O 0.45037 0.56907 0.71294 0.0
C64 C 0.60008 0.79661 0.88005 0.0
C65 C 0.57021 0.83283 0.86618 0.0
H66 H 0.50207 0.88899 0.8293 0.0
H67 H 0.4188 0.84246 0.76058 0.0
H68 H 0.60843 0.60928 0.85075 0.0
H69 H 0.64586 0.71308 0.89708 0.0
H70 H 0.63606 0.81425 0.91037 0.0
H71 H 0.58378 0.87784 0.88597 0.0
Mn72 Mn 0.81783 0.28343 0.93193 0.0
Mn73 Mn 0.83609 0.43017 0.90421 0.0
C74 C 0.84126 0.36021 0.99604 0.0
C75 C 0.75072 0.17525 0.95733 0.0
C76 C 0.93709 0.392 0.8772 0.0
O77 O 0.77252 0.26806 0.86242 0.0
O78 O 0.78285 0.36689 0.85068 0.0
C79 C 0.70031 0.40206 0.91386 0.0
N80 N 0.76338 0.43557 0.92947 0.0
C81 C 0.73935 0.49685 0.99021 0.0
C82 C 0.67416 0.46295 0.9748 0.0
C83 C 0.65461 0.41544 0.93639 0.0
C84 C 0.78284 0.48191 0.96599 0.0
H85 H 0.68495 0.3654 0.88442 0.0
C86 C 0.76133 0.30775 0.83742 0.0
O87 O 0.80548 0.19364 0.93395 0.0
O88 O 0.73458 0.21918 0.96445 0.0
N89 N 0.88559 0.49429 0.95493 0.0
C90 C 0.94982 0.52129 0.96651 0.0
C91 C 0.97702 0.56945 1.00448 0.0
C92 C 0.93789 0.58917 0.03025 0.0
C93 C 0.87184 0.56049 0.01785 0.0
C94 C 0.84756 0.51311 0.97938 0.0
H95 H 0.97995 0.50583 0.94726 0.0
O96 O 0.8555 0.31469 1.00259 0.0
O97 O 0.81649 0.36013 0.95191 0.0
O98 O 0.90767 0.33546 0.89737 0.0
O99 O 0.91373 0.43005 0.87745 0.0
C100 C 0.82893 0.57624 0.04278 0.0
C101 C 0.76273 0.54446 0.02897 0.0
H102 H 0.63866 0.47274 0.99238 0.0
H103 H 0.60436 0.38898 0.92435 0.0
H104 H 1.02794 0.59103 0.01408 0.0
H105 H 0.95892 0.6259 0.05984 0.0
H106 H 0.84622 0.61237 0.07293 0.0
H107 H 0.73015 0.55672 0.04863 0.0
Mn108 Mn 0.56427 0.79594 0.09972 0.0
Mn109 Mn 0.44213 0.82547 0.07364 0.0
C110 C 0.51404 0.82232 0.16478 0.0
C111 C 0.59945 0.72328 0.12318 0.0
C112 C 0.5833 0.91941 0.04696 0.0
O113 O 0.53248 0.75329 0.02939 0.0
O114 O 0.44794 0.77056 0.0195 0.0
C115 C 0.32853 0.69313 0.08197 0.0
N116 N 0.36163 0.75578 0.09838 0.0
C117 C 0.27753 0.73648 0.1591 0.0
C118 C 0.24268 0.67174 0.14295 0.0
C119 C 0.26824 0.65003 0.10414 0.0
C120 C 0.3371 0.77735 0.13528 0.0
H121 H 0.34792 0.67613 0.05217 0.0
C122 C 0.48259 0.7461 1.00487 0.0
O123 O 0.63826 0.77796 0.10078 0.0
O124 O 0.54036 0.71051 0.13065 0.0
N125 N 0.43165 0.87685 0.1252 0.0
C126 C 0.47197 0.94033 0.13723 0.0
C127 C 0.45361 0.96947 0.17557 0.0
C128 C 0.39404 0.93308 0.2011 0.0
C129 C 0.35334 0.8678 0.18808 0.0
C130 C 0.37405 0.84148 0.14936 0.0
H131 H 0.51793 0.96843 0.11793 0.0
O132 O 0.57248 0.83231 0.17122 0.0
O133 O 0.48901 0.80001 0.1203 0.0
O134 O 0.60705 0.8866 0.06669 0.0
O135 O 0.52264 0.90044 0.0474 0.0
C136 C 0.29358 0.82755 0.21262 0.0
C137 C 0.2557 0.76193 0.19815 0.0
H138 H 0.19639 0.63822 0.16022 0.0
H139 H 0.24165 0.60012 0.09149 0.0
H140 H 0.48541 1.01979 0.18556 0.0
H141 H 0.38029 0.9556 0.23092 0.0
H142 H 0.27651 0.84643 0.24295 0.0
H143 H 0.21002 0.73139 0.2175 0.0
Mn144 Mn 0.79718 0.54354 0.26509 0.0
Mn145 Mn 0.64821 0.41617 0.24092 0.0
C146 C 0.72163 0.49352 0.3307 0.0
C147 C 0.90604 0.58415 0.28891 0.0
C148 C 0.68811 0.55488 0.21163 0.0
O149 O 0.8097 0.51116 0.19548 0.0
O150 O 0.70984 0.42347 0.1869 0.0
C151 C 0.6761 0.30885 0.2536 0.0
N152 N 0.64189 0.33833 0.26747 0.0
C153 C 0.57988 0.25466 0.32919 0.0
C154 C 0.61434 0.22334 0.31545 0.0
C155 C 0.6627 0.25061 0.27753 0.0
C156 C 0.59511 0.3124 0.3038 0.0
H157 H 0.71343 0.32968 0.22457 0.0
C158 C 0.76835 0.46001 0.17162 0.0
O159 O 0.88753 0.62006 0.26502 0.0
O160 O 0.86182 0.5245 0.29723 0.0
N161 N 0.58517 0.40396 0.29205 0.0
C162 C 0.55944 0.44238 0.30329 0.0
C163 C 0.51142 0.42283 0.34133 0.0
C164 C 0.49064 0.36422 0.36763 0.0
C165 C 0.51794 0.32555 0.35554 0.0
C166 C 0.56501 0.34712 0.31678 0.0
H167 H 0.57586 0.48789 0.28373 0.0
O168 O 0.76835 0.5529 0.33602 0.0
O169 O 0.72008 0.46701 0.28712 0.0
O170 O 0.74525 0.58156 0.23079 0.0
O171 O 0.64913 0.49376 0.21297 0.0
C172 C 0.50119 0.26708 0.38109 0.0
C173 C 0.53215 0.23167 0.36795 0.0
H174 H 0.60448 0.17865 0.33407 0.0
H175 H 0.68967 0.22685 0.26686 0.0
H176 H 0.49094 0.45318 0.35072 0.0
H177 H 0.45422 0.34975 0.39743 0.0
H178 H 0.4652 0.24936 0.4114 0.0
H179 H 0.51953 0.18729 0.3884 0.0
Mn180 Mn 0.28505 0.7824 0.43153 0.0
Mn181 Mn 0.25955 0.63217 0.40635 0.0
C182 C 0.25992 0.70653 0.49692 0.0
C183 C 0.35402 0.89083 0.45527 0.0
C184 C 0.16298 0.67566 0.3785 0.0
O185 O 0.32924 0.79429 0.36169 0.0
O186 O 0.31362 0.69319 0.35202 0.0
C187 C 0.39351 0.65467 0.41501 0.0
N188 N 0.33071 0.62389 0.43143 0.0
C189 C 0.35226 0.56129 0.4927 0.0
C190 C 0.41716 0.59246 0.47654 0.0
C191 C 0.43781 0.63924 0.43744 0.0
C192 C 0.31016 0.57823 0.46859 0.0
H193 H 0.4097 0.69068 0.38498 0.0
C194 C 0.33736 0.75211 0.33735 0.0
O195 O 0.29949 0.87279 0.43174 0.0
O196 O 0.36933 0.84638 0.46326 0.0
N197 N 0.20915 0.57017 0.45812 0.0
C198 C 0.14529 0.54552 0.47005 0.0
C199 C 0.1171 0.49828 0.50865 0.0
C200 C 0.1548 0.47689 0.53454 0.0
C201 C 0.22044 0.50298 0.52161 0.0
C202 C 0.24578 0.54966 0.48263 0.0
H203 H 0.11619 0.56202 0.45048 0.0
O204 O 0.24789 0.75366 0.50278 0.0
O205 O 0.28328 0.70443 0.45272 0.0
O206 O 0.19492 0.73243 0.39777 0.0
O207 O 0.18305 0.6349 0.37968 0.0
C208 C 0.26194 0.48528 0.54647 0.0
C209 C 0.3278 0.51441 0.53203 0.0
H210 H 0.4516 0.58104 0.494 0.0
H211 H 0.48783 0.66353 0.42477 0.0
H212 H 0.06649 0.47859 0.51856 0.0
H213 H 0.133 0.44082 0.56455 0.0
H214 H 0.24382 0.44965 0.57701 0.0
H215 H 0.35931 0.50065 0.55161 0.0
C216 C 0.49883 0.03868 0.51329 0.0
C217 C 0.47662 0.0831 0.52011 0.0
C218 C 0.45919 0.9774 0.4916 0.0
C219 C 0.3958 0.95793 0.47487 0.0
H220 H 0.54708 0.05071 0.52559 0.0
H221 H 0.4785 0.94487 0.48821 0.0
S222 S 0.31524 0.05716 0.48072 0.0
N223 N 0.38751 0.10399 0.50628 0.0
N224 N 0.31327 0.98906 0.46487 0.0
C225 C 0.37335 1.00234 0.48006 0.0
C226 C 0.41358 0.0647 0.50286 0.0
C227 C 0.4113 0.35898 0.6572 0.0
C228 C 0.47695 0.38275 0.64466 0.0
C229 C 0.39032 0.39956 0.6789 0.0
C230 C 0.43401 0.46581 0.68826 0.0
H231 H 0.37608 0.30824 0.6515 0.0
H232 H 0.33945 0.37861 0.68856 0.0
S233 S 0.61075 0.5527 0.65809 0.0
N234 N 0.58496 0.47713 0.64064 0.0
N235 N 0.54621 0.5535 0.68034 0.0
C236 C 0.49963 0.49039 0.67419 0.0
C237 C 0.52088 0.44891 0.65273 0.0
C238 C 1.02483 0.37246 0.84162 0.0
C239 C 1.0019 0.4156 0.85245 0.0
C240 C 0.08615 0.39416 0.8191 0.0
C241 C 0.12743 0.46 0.80719 0.0
H242 H 0.99534 0.32145 0.85072 0.0
H243 H 0.10202 0.35934 0.81235 0.0
S244 S 0.09024 0.59273 0.82494 0.0
N245 N 1.02543 0.52757 0.84683 0.0
N246 N 0.14015 0.56772 0.80571 0.0
C247 C 0.10481 0.50341 0.81681 0.0
C248 C 1.04229 0.48142 0.83907 0.0
C249 C 0.60618 1.02871 0.0168 0.0
C250 C 0.62746 0.98348 0.02285 0.0
C251 C 0.64608 0.08974 0.99489 0.0
C252 C 0.70897 0.10834 0.97732 0.0
H253 H 0.55837 1.01743 0.02974 0.0
H254 H 0.6273 0.12275 0.992 0.0
S255 S 0.78714 1.00687 0.98109 0.0
N256 N 0.71517 0.96086 0.00745 0.0
N257 N 0.79006 0.07559 0.96579 0.0
C258 C 0.73059 0.06323 0.98188 0.0
C259 C 0.69 1.00098 1.00481 0.0
C260 C 0.70899 0.66188 0.17501 0.0
C261 C 0.66498 0.59647 0.18695 0.0
C262 C 0.68791 0.70206 0.15274 0.0
C263 C 0.62184 0.6788 0.14216 0.0
H264 H 0.76025 0.68247 0.18305 0.0
H265 H 0.72351 0.75221 0.14506 0.0
S266 S 0.48675 0.51094 0.16327 0.0
N267 N 0.55185 0.50994 0.18387 0.0
N268 N 0.51281 0.58565 0.14323 0.0
C269 C 0.57747 0.6134 0.15293 0.0
C270 C 0.59885 0.57226 0.17494 0.0
C271 C 0.05365 0.58805 0.34895 0.0
C272 C 0.09873 0.65466 0.35406 0.0
C273 C 0.99231 0.56617 0.32708 0.0
C274 C 0.97332 0.60976 0.30856 0.0
H275 H 0.06526 0.55212 0.36271 0.0
H276 H 0.95932 0.51438 0.32502 0.0
S277 S 0.07447 0.78925 0.3095 0.0
N278 N 0.12087 0.76424 0.33663 0.0
N279 N 1.00572 0.72302 0.29504 0.0
C280 C 1.01839 0.67654 0.31209 0.0
C281 C 0.08088 0.69896 0.33499 0.0
C282 C 0.67728 0.35739 0.42371 0.0
C283 C 0.63879 0.36553 0.46061 0.0
C284 C 0.70398 0.3999 0.38251 0.0
C285 C 0.69293 0.45207 0.37599 0.0
H286 H 0.68716 0.31773 0.42658 0.0
H287 H 0.73349 0.39159 0.35524 0.0
S288 S 0.59983 0.49831 0.46307 0.0
N289 N 0.59333 0.43202 0.48913 0.0
N290 N 0.64452 0.51261 0.41086 0.0
C291 C 0.65609 0.4623 0.4129 0.0
C292 C 0.62817 0.41842 0.45512 0.0
C293 C 0.22997 0.63861 0.57729 0.0
C294 C 0.27664 0.68019 0.54176 0.0
C295 C 0.24756 0.61161 0.6181 0.0
C296 C 0.31252 0.62669 0.62498 0.0
H297 H 0.17971 0.62603 0.57297 0.0
H298 H 0.21039 0.57989 0.64491 0.0
S299 S 0.45326 0.73851 0.5441 0.0
N300 N 0.39039 0.73879 0.51768 0.0
N301 N 0.42356 0.6881 0.59303 0.0
C302 C 0.35946 0.66948 0.58986 0.0
C303 C 0.34153 0.69653 0.54879 0.0
C304 C 0.72671 0.33171 0.75459 0.0
C305 C 0.71879 0.28548 0.79172 0.0
C306 C 0.68346 0.31575 0.71385 0.0
C307 C 0.63075 0.25275 0.70804 0.0
H308 H 0.76651 0.38117 0.75717 0.0
H309 H 0.69138 0.35339 0.68659 0.0
S310 S 0.58579 0.11409 0.79535 0.0
N311 N 0.65267 0.17388 0.82074 0.0
N312 N 0.57063 0.14416 0.74338 0.0
C313 C 0.62116 0.2059 0.7449 0.0
C314 C 0.66582 0.22203 0.78663 0.0
C315 C 0.44755 0.61007 0.91037 0.0
C316 C 0.40541 0.61517 0.87539 0.0
C317 C 0.47479 0.65429 0.95128 0.0
C318 C 0.45943 0.70382 0.95884 0.0
H319 H 0.46037 0.57268 0.90552 0.0
H320 H 0.50703 0.64888 0.97759 0.0
S321 S 0.34561 0.73206 0.8797 0.0
N322 N 0.34566 0.66954 0.85262 0.0
N323 N 0.39673 0.75279 0.92818 0.0
C324 C 0.41591 0.70783 0.92431 0.0
C325 C 0.38862 0.66319 0.88312 0.0
C326 C 0.87143 0.4294 0.07563 0.0
C327 C 0.82453 0.38678 0.04072 0.0
C328 C 0.85366 0.45545 0.11699 0.0
C329 C 0.78829 0.43826 0.12515 0.0
H330 H 0.92196 0.44334 0.07051 0.0
H331 H 0.89106 0.48803 0.14326 0.0
S332 S 0.64705 0.32317 0.04614 0.0
N333 N 0.71035 0.32512 0.01845 0.0
N334 N 0.67671 0.37391 0.09485 0.0
C335 C 0.74118 0.39455 0.09054 0.0
C336 C 0.75933 0.36853 0.04886 0.0
C337 C 0.43087 0.83612 0.28503 0.0
C338 C 0.38007 0.77165 0.29153 0.0
C339 C 0.47592 0.85306 0.24464 0.0
C340 C 0.47041 0.80623 0.20915 0.0
H341 H 0.43672 0.87338 0.31187 0.0
H342 H 0.51433 0.90293 0.24063 0.0
S343 S 0.34972 0.63064 0.21055 0.0
N344 N 0.3291 0.66085 0.25922 0.0
N345 N 0.41385 0.69281 0.18466 0.0
C346 C 0.42091 0.74182 0.21576 0.0
C347 C 0.37545 0.72454 0.2564 0.0
loop_
_geom_bond_atom_site_label_1
_geom_bond_atom_site_label_2
_geom_bond_distance
_geom_bond_site_symmetry_2
_ccdc_geom_bond_type
Mn0 O5 2.095 . S
Mn0 O15 2.162 . S
Mn0 O16 2.297 . S
Mn0 O24 2.385 . S
Mn0 O25 2.209 . S
Mn0 O26 2.094 . S
Mn1 O6 2.121 . S
Mn1 N8 2.257 . S
Mn1 N17 2.282 . S
Mn1 O25 2.215 . S
Mn1 O27 2.117 . S
C2 O24 1.234 . S
C2 O25 1.283 . S
C3 O15 1.281 . S
C3 O16 1.236 . S
C4 O26 1.240 . S
C4 O27 1.264 . S
O5 Mn0 2.095 . S
O5 C14 1.250 . S
O6 Mn1 2.121 . S
O6 C14 1.258 . S
C7 N8 1.326 . S
C7 C11 1.460 . S
C7 H13 0.929 . S
N8 Mn1 2.257 . S
N8 C7 1.326 . S
N8 C12 1.362 . S
C9 C10 1.258 . S
C9 C12 1.431 . S
C9 C29 1.449 . S
C10 C9 1.258 . S
C10 C11 1.477 . S
C10 H30 0.931 . S
C11 C7 1.460 . S
C11 C10 1.477 . S
C11 H31 0.930 . S
C12 N8 1.362 . S
C12 C9 1.431 . S
C12 C22 1.476 . S
H13 C7 0.929 . S
C14 O5 1.250 . S
C14 O6 1.258 . S
O15 Mn0 2.162 . S
O15 C3 1.281 . S
O16 Mn0 2.297 . S
O16 C3 1.236 . S
N17 Mn1 2.282 . S
N17 C18 1.328 . S
N17 C22 1.318 . S
C18 N17 1.328 . S
C18 C19 1.457 . S
C18 H23 0.929 . S
C19 C18 1.457 . S
C19 C20 1.291 . S
C19 H32 0.931 . S
C20 C19 1.291 . S
C20 C21 1.373 . S
C20 H33 0.929 . S
C21 C20 1.373 . S
C21 C22 1.396 . S
C21 C28 1.403 . S
C22 C12 1.476 . S
C22 N17 1.318 . S
C22 C21 1.396 . S
H23 C18 0.929 . S
O24 Mn0 2.385 . S
O24 C2 1.234 . S
O25 Mn0 2.209 . S
O25 Mn1 2.215 . S
O25 C2 1.283 . S
O26 Mn0 2.094 . S
O26 C4 1.240 . S
O27 Mn1 2.117 . S
O27 C4 1.264 . S
C28 C21 1.403 . S
C28 C29 1.399 . S
C28 H34 0.929 . S
C29 C9 1.449 . S
C29 C28 1.399 . S
C29 H35 0.930 . S
H30 C10 0.931 . S
H31 C11 0.930 . S
H32 C19 0.931 . S
H33 C20 0.929 . S
H34 C28 0.929 . S
H35 C29 0.930 . S
Mn36 O41 2.095 . S
Mn36 O51 2.162 . S
Mn36 O52 2.297 . S
Mn36 O60 2.385 . S
Mn36 O61 2.209 . S
Mn36 O62 2.094 . S
Mn37 O42 2.121 . S
Mn37 N44 2.257 . S
Mn37 N53 2.282 . S
Mn37 O61 2.215 . S
Mn37 O63 2.117 . S
C38 O60 1.234 . S
C38 O61 1.283 . S
C39 O51 1.281 . S
C39 O52 1.236 . S
C40 O62 1.240 . S
C40 O63 1.264 . S
O41 Mn36 2.095 . S
O41 C50 1.250 . S
O42 Mn37 2.121 . S
O42 C50 1.258 . S
C43 N44 1.326 . S
C43 C47 1.460 . S
C43 H49 0.929 . S
N44 Mn37 2.257 . S
N44 C43 1.326 . S
N44 C48 1.362 . S
C45 C46 1.258 . S
C45 C48 1.431 . S
C45 C65 1.449 . S
C46 C45 1.258 . S
C46 C47 1.477 . S
C46 H66 0.931 . S
C47 C43 1.460 . S
C47 C46 1.477 . S
C47 H67 0.930 . S
C48 N44 1.362 . S
C48 C45 1.431 . S
C48 C58 1.476 . S
H49 C43 0.929 . S
C50 O41 1.250 . S
C50 O42 1.258 . S
O51 Mn36 2.162 . S
O51 C39 1.281 . S
O52 Mn36 2.297 . S
O52 C39 1.236 . S
N53 Mn37 2.282 . S
N53 C54 1.328 . S
N53 C58 1.318 . S
C54 N53 1.328 . S
C54 C55 1.457 . S
C54 H59 0.929 . S
C55 C54 1.457 . S
C55 C56 1.291 . S
C55 H68 0.931 . S
C56 C55 1.291 . S
C56 C57 1.373 . S
C56 H69 0.929 . S
C57 C56 1.373 . S
C57 C58 1.396 . S
C57 C64 1.403 . S
C58 C48 1.476 . S
C58 N53 1.318 . S
C58 C57 1.396 . S
H59 C54 0.929 . S
O60 Mn36 2.385 . S
O60 C38 1.234 . S
O61 Mn36 2.209 . S
O61 Mn37 2.215 . S
O61 C38 1.283 . S
O62 Mn36 2.094 . S
O62 C40 1.240 . S
O63 Mn37 2.117 . S
O63 C40 1.264 . S
C64 C57 1.403 . S
C64 C65 1.399 . S
C64 H70 0.929 . S
C65 C45 1.449 . S
C65 C64 1.399 . S
C65 H71 0.930 . S
H66 C46 0.931 . S
H67 C47 0.930 . S
H68 C55 0.931 . S
H69 C56 0.929 . S
H70 C64 0.929 . S
H71 C65 0.930 . S
Mn72 O77 2.095 . S
Mn72 O87 2.162 . S
Mn72 O88 2.297 . S
Mn72 O96 2.385 1_556 S
Mn72 O97 2.209 . S
Mn72 O98 2.094 . S
Mn73 O78 2.121 . S
Mn73 N80 2.257 . S
Mn73 N89 2.282 . S
Mn73 O97 2.215 . S
Mn73 O99 2.117 . S
C74 O96 1.234 1_556 S
C74 O97 1.283 . S
C75 O87 1.281 . S
C75 O88 1.236 . S
C76 O98 1.240 . S
C76 O99 1.264 . S
O77 Mn72 2.095 . S
O77 C86 1.250 . S
O78 Mn73 2.121 . S
O78 C86 1.258 . S
C79 N80 1.326 . S
C79 C83 1.460 . S
C79 H85 0.929 . S
N80 Mn73 2.257 . S
N80 C79 1.326 . S
N80 C84 1.362 . S
C81 C82 1.258 . S
C81 C84 1.431 . S
C81 C101 1.449 1_556 S
C82 C81 1.258 . S
C82 C83 1.477 . S
C82 H102 0.931 . S
C83 C79 1.460 . S
C83 C82 1.477 . S
C83 H103 0.930 . S
C84 N80 1.362 . S
C84 C81 1.431 . S
C84 C94 1.476 . S
H85 C79 0.929 . S
C86 O77 1.250 . S
C86 O78 1.258 . S
O87 Mn72 2.162 . S
O87 C75 1.281 . S
O88 Mn72 2.297 . S
O88 C75 1.236 . S
N89 Mn73 2.282 . S
N89 C90 1.328 . S
N89 C94 1.318 . S
C90 N89 1.328 . S
C90 C91 1.457 1_556 S
C90 H95 0.929 . S
C91 C90 1.457 1_554 S
C91 C92 1.291 . S
C91 H104 0.931 . S
C92 C91 1.291 . S
C92 C93 1.373 . S
C92 H105 0.929 . S
C93 C92 1.373 . S
C93 C94 1.396 1_554 S
C93 C100 1.403 . S
C94 C84 1.476 . S
C94 N89 1.318 . S
C94 C93 1.396 1_556 S
H95 C90 0.929 . S
O96 Mn72 2.385 1_554 S
O96 C74 1.234 1_554 S
O97 Mn72 2.209 . S
O97 Mn73 2.215 . S
O97 C74 1.283 . S
O98 Mn72 2.094 . S
O98 C76 1.240 . S
O99 Mn73 2.117 . S
O99 C76 1.264 . S
C100 C93 1.403 . S
C100 C101 1.399 . S
C100 H106 0.929 . S
C101 C81 1.449 1_554 S
C101 C100 1.399 . S
C101 H107 0.930 . S
H102 C82 0.931 . S
H103 C83 0.930 . S
H104 C91 0.931 . S
H105 C92 0.929 . S
H106 C100 0.929 . S
H107 C101 0.930 . S
Mn108 O113 2.095 . S
Mn108 O123 2.162 . S
Mn108 O124 2.297 . S
Mn108 O132 2.385 . S
Mn108 O133 2.209 . S
Mn108 O134 2.094 . S
Mn109 O114 2.121 . S
Mn109 N116 2.257 . S
Mn109 N125 2.282 . S
Mn109 O133 2.215 . S
Mn109 O135 2.117 . S
C110 O132 1.234 . S
C110 O133 1.283 . S
C111 O123 1.281 . S
C111 O124 1.236 . S
C112 O134 1.240 . S
C112 O135 1.264 . S
O113 Mn108 2.095 . S
O113 C122 1.243 1_554 S
O114 Mn109 2.121 . S
O114 C122 1.253 1_554 S
C115 N116 1.326 . S
C115 C119 1.460 . S
C115 H121 0.929 . S
N116 Mn109 2.257 . S
N116 C115 1.326 . S
N116 C120 1.362 . S
C117 C118 1.258 . S
C117 C120 1.431 . S
C117 C137 1.449 . S
C118 C117 1.258 . S
C118 C119 1.477 . S
C118 H138 0.931 . S
C119 C115 1.460 . S
C119 C118 1.477 . S
C119 H139 0.930 . S
C120 N116 1.362 . S
C120 C117 1.431 . S
C120 C130 1.476 . S
H121 C115 0.929 . S
C122 O113 1.243 1_556 S
C122 O114 1.253 1_556 S
O123 Mn108 2.162 . S
O123 C111 1.281 . S
O124 Mn108 2.297 . S
O124 C111 1.236 . S
N125 Mn109 2.282 . S
N125 C126 1.328 . S
N125 C130 1.318 . S
C126 N125 1.328 . S
C126 C127 1.457 . S
C126 H131 0.929 . S
C127 C126 1.457 . S
C127 C128 1.291 . S
C127 H140 0.931 . S
C128 C127 1.291 . S
C128 C129 1.373 . S
C128 H141 0.929 . S
C129 C128 1.373 . S
C129 C130 1.396 . S
C129 C136 1.403 . S
C130 C120 1.476 . S
C130 N125 1.318 . S
C130 C129 1.396 . S
H131 C126 0.929 . S
O132 Mn108 2.385 . S
O132 C110 1.234 . S
O133 Mn108 2.209 . S
O133 Mn109 2.215 . S
O133 C110 1.283 . S
O134 Mn108 2.094 . S
O134 C112 1.240 . S
O135 Mn109 2.117 . S
O135 C112 1.264 . S
C136 C129 1.403 . S
C136 C137 1.399 . S
C136 H142 0.929 . S
C137 C117 1.449 . S
C137 C136 1.399 . S
C137 H143 0.930 . S
H138 C118 0.931 . S
H139 C119 0.930 . S
H140 C127 0.931 . S
H141 C128 0.929 . S
H142 C136 0.929 . S
H143 C137 0.930 . S
Mn144 O149 2.095 . S
Mn144 O159 2.162 . S
Mn144 O160 2.297 . S
Mn144 O168 2.385 . S
Mn144 O169 2.209 . S
Mn144 O170 2.094 . S
Mn145 O150 2.121 . S
Mn145 N152 2.257 . S
Mn145 N161 2.282 . S
Mn145 O169 2.215 . S
Mn145 O171 2.117 . S
C146 O168 1.234 . S
C146 O169 1.283 . S
C147 O159 1.281 . S
C147 O160 1.236 . S
C148 O170 1.240 . S
C148 O171 1.264 . S
O149 Mn144 2.095 . S
O149 C158 1.250 . S
O150 Mn145 2.121 . S
O150 C158 1.258 . S
C151 N152 1.326 . S
C151 C155 1.460 . S
C151 H157 0.929 . S
N152 Mn145 2.257 . S
N152 C151 1.326 . S
N152 C156 1.362 . S
C153 C154 1.258 . S
C153 C156 1.431 . S
C153 C173 1.449 . S
C154 C153 1.258 . S
C154 C155 1.477 . S
C154 H174 0.931 . S
C155 C151 1.460 . S
C155 C154 1.477 . S
C155 H175 0.930 . S
C156 N152 1.362 . S
C156 C153 1.431 . S
C156 C166 1.476 . S
H157 C151 0.929 . S
C158 O149 1.250 . S
C158 O150 1.258 . S
O159 Mn144 2.162 . S
O159 C147 1.281 . S
O160 Mn144 2.297 . S
O160 C147 1.236 . S
N161 Mn145 2.282 . S
N161 C162 1.328 . S
N161 C166 1.318 . S
C162 N161 1.328 . S
C162 C163 1.457 . S
C162 H167 0.929 . S
C163 C162 1.457 . S
C163 C164 1.291 . S
C163 H176 0.931 . S
C164 C163 1.291 . S
C164 C165 1.373 . S
C164 H177 0.929 . S
C165 C164 1.373 . S
C165 C166 1.396 . S
C165 C172 1.403 . S
C166 C156 1.476 . S
C166 N161 1.318 . S
C166 C165 1.396 . S
H167 C162 0.929 . S
O168 Mn144 2.385 . S
O168 C146 1.234 . S
O169 Mn144 2.209 . S
O169 Mn145 2.215 . S
O169 C146 1.283 . S
O170 Mn144 2.094 . S
O170 C148 1.240 . S
O171 Mn145 2.117 . S
O171 C148 1.264 . S
C172 C165 1.403 . S
C172 C173 1.399 . S
C172 H178 0.929 . S
C173 C153 1.449 . S
C173 C172 1.399 . S
C173 H179 0.930 . S
H174 C154 0.931 . S
H175 C155 0.930 . S
H176 C163 0.931 . S
H177 C164 0.929 . S
H178 C172 0.929 . S
H179 C173 0.930 . S
Mn180 O185 2.095 . S
Mn180 O195 2.162 . S
Mn180 O196 2.297 . S
Mn180 O204 2.385 . S
Mn180 O205 2.209 . S
Mn180 O206 2.094 . S
Mn181 O186 2.121 . S
Mn181 N188 2.257 . S
Mn181 N197 2.282 . S
Mn181 O205 2.215 . S
Mn181 O207 2.117 . S
C182 O204 1.234 . S
C182 O205 1.283 . S
C183 O195 1.281 . S
C183 O196 1.236 . S
C184 O206 1.240 . S
C184 O207 1.264 . S
O185 Mn180 2.095 . S
O185 C194 1.250 . S
O186 Mn181 2.121 . S
O186 C194 1.258 . S
C187 N188 1.326 . S
C187 C191 1.460 . S
C187 H193 0.929 . S
N188 Mn181 2.257 . S
N188 C187 1.326 . S
N188 C192 1.362 . S
C189 C190 1.258 . S
C189 C192 1.431 . S
C189 C209 1.449 . S
C190 C189 1.258 . S
C190 C191 1.477 . S
C190 H210 0.931 . S
C191 C187 1.460 . S
C191 C190 1.477 . S
C191 H211 0.930 . S
C192 N188 1.362 . S
C192 C189 1.431 . S
C192 C202 1.476 . S
H193 C187 0.929 . S
C194 O185 1.250 . S
C194 O186 1.258 . S
O195 Mn180 2.162 . S
O195 C183 1.281 . S
O196 Mn180 2.297 . S
O196 C183 1.236 . S
N197 Mn181 2.282 . S
N197 C198 1.328 . S
N197 C202 1.318 . S
C198 N197 1.328 . S
C198 C199 1.457 . S
C198 H203 0.929 . S
C199 C198 1.457 . S
C199 C200 1.291 . S
C199 H212 0.931 . S
C200 C199 1.291 . S
C200 C201 1.373 . S
C200 H213 0.929 . S
C201 C200 1.373 . S
C201 C202 1.396 . S
C201 C208 1.403 . S
C202 C192 1.476 . S
C202 N197 1.318 . S
C202 C201 1.396 . S
H203 C198 0.929 . S
O204 Mn180 2.385 . S
O204 C182 1.234 . S
O205 Mn180 2.209 . S
O205 Mn181 2.215 . S
O205 C182 1.283 . S
O206 Mn180 2.094 . S
O206 C184 1.240 . S
O207 Mn181 2.117 . S
O207 C184 1.264 . S
C208 C201 1.403 . S
C208 C209 1.399 . S
C208 H214 0.929 . S
C209 C189 1.449 . S
C209 C208 1.399 . S
C209 H215 0.930 . S
H210 C190 0.931 . S
H211 C191 0.930 . S
H212 C199 0.931 . S
H213 C200 0.929 . S
H214 C208 0.929 . S
H215 C209 0.930 . S
C216 C217 1.369 . S
C216 C218 1.419 1_545 S
C216 H220 0.930 . S
C217 C216 1.369 . S
C217 C226 1.429 . S
C218 C216 1.419 1_565 S
C218 C219 1.363 . S
C218 H221 0.929 . S
C219 C218 1.363 . S
C219 C225 1.428 . S
H220 C216 0.930 . S
H221 C218 0.929 . S
S222 N223 1.613 1_565 S
S222 N224 1.610 . S
N223 S222 1.613 1_545 S
N223 C226 1.350 . S
N224 S222 1.610 . S
N224 C225 1.351 . S
C225 C219 1.428 . S
C225 N224 1.351 . S
C225 C226 1.434 1_565 S
C226 C217 1.429 . S
C226 N223 1.350 . S
C226 C225 1.434 1_545 S
C227 C228 1.369 . S
C227 C229 1.419 . S
C227 H231 0.930 . S
C228 C227 1.369 . S
C228 C237 1.429 . S
C229 C227 1.419 . S
C229 C230 1.363 . S
C229 H232 0.929 . S
C230 C229 1.363 . S
C230 C236 1.428 . S
H231 C227 0.930 . S
H232 C229 0.929 . S
S233 N234 1.613 . S
S233 N235 1.610 . S
N234 S233 1.613 . S
N234 C237 1.350 . S
N235 S233 1.610 . S
N235 C236 1.351 . S
C236 C230 1.428 . S
C236 N235 1.351 . S
C236 C237 1.434 . S
C237 C228 1.429 . S
C237 N234 1.350 . S
C237 C236 1.434 . S
C238 C239 1.369 . S
C238 C240 1.419 1_655 S
C238 H242 0.930 . S
C239 C238 1.369 . S
C239 C248 1.429 . S
C240 C238 1.419 1_455 S
C240 C241 1.363 . S
C240 H243 0.929 . S
C241 C240 1.363 . S
C241 C247 1.428 . S
H242 C238 0.930 . S
H243 C240 0.929 . S
S244 N245 1.613 . S
S244 N246 1.610 1_655 S
N245 S244 1.613 . S
N245 C248 1.350 . S
N246 S244 1.610 1_455 S
N246 C247 1.351 . S
C247 C241 1.428 . S
C247 N246 1.351 . S
C247 C248 1.434 1_455 S
C248 C239 1.429 . S
C248 N245 1.350 . S
C248 C247 1.434 1_655 S
C249 C250 1.369 1_556 S
C249 C251 1.419 1_565 S
C249 H253 0.930 . S
C250 C249 1.369 1_554 S
C250 C259 1.429 . S
C251 C249 1.419 1_545 S
C251 C252 1.363 . S
C251 H254 0.929 . S
C252 C251 1.363 . S
C252 C258 1.428 1_556 S
H253 C249 0.930 . S
H254 C251 0.929 . S
S255 N256 1.613 1_545 S
S255 N257 1.610 . S
N256 S255 1.613 1_565 S
N256 C259 1.350 . S
N257 S255 1.610 . S
N257 C258 1.351 . S
C258 C252 1.428 1_554 S
C258 N257 1.351 . S
C258 C259 1.434 1_545 S
C259 C250 1.429 . S
C259 N256 1.350 . S
C259 C258 1.434 1_565 S
C260 C261 1.369 . S
C260 C262 1.419 . S
C260 H264 0.930 . S
C261 C260 1.369 . S
C261 C270 1.429 . S
C262 C260 1.419 . S
C262 C263 1.363 . S
C262 H265 0.929 . S
C263 C262 1.363 . S
C263 C269 1.428 . S
H264 C260 0.930 . S
H265 C262 0.929 . S
S266 N267 1.613 . S
S266 N268 1.610 . S
N267 S266 1.613 . S
N267 C270 1.350 . S
N268 S266 1.610 . S
N268 C269 1.351 . S
C269 C263 1.428 . S
C269 N268 1.351 . S
C269 C270 1.434 . S
C270 C261 1.429 . S
C270 N267 1.350 . S
C270 C269 1.434 . S
C271 C272 1.369 . S
C271 C273 1.419 1_455 S
C271 H275 0.930 . S
C272 C271 1.369 . S
C272 C281 1.429 . S
C273 C271 1.419 1_655 S
C273 C274 1.363 . S
C273 H276 0.929 . S
C274 C273 1.363 . S
C274 C280 1.428 . S
H275 C271 0.930 . S
H276 C273 0.929 . S
S277 N278 1.613 1_655 S
S277 N279 1.610 . S
N278 S277 1.613 1_455 S
N278 C281 1.350 . S
N279 S277 1.610 . S
N279 C280 1.351 . S
C280 C274 1.428 . S
C280 N279 1.351 . S
C280 C281 1.434 1_655 S
C281 C272 1.429 . S
C281 N278 1.350 . S
C281 C280 1.434 1_455 S
C282 C283 1.369 . S
C282 C284 1.419 . S
C282 H286 0.930 . S
C283 C282 1.369 . S
C283 C292 1.429 . S
C284 C282 1.419 . S
C284 C285 1.363 . S
C284 H287 0.929 . S
C285 C284 1.363 . S
C285 C291 1.428 . S
H286 C282 0.930 . S
H287 C284 0.929 . S
S288 N289 1.613 . S
S288 N290 1.610 . S
N289 S288 1.613 . S
N289 C292 1.350 . S
N290 S288 1.610 . S
N290 C291 1.351 . S
C291 C285 1.428 . S
C291 N290 1.351 . S
C291 C292 1.434 . S
C292 C283 1.429 . S
C292 N289 1.350 . S
C292 C291 1.434 . S
C293 C294 1.369 . S
C293 C295 1.419 . S
C293 H297 0.930 . S
C294 C293 1.369 . S
C294 C303 1.429 . S
C295 C293 1.419 . S
C295 C296 1.363 . S
C295 H298 0.929 . S
C296 C295 1.363 . S
C296 C302 1.428 . S
H297 C293 0.930 . S
H298 C295 0.929 . S
S299 N300 1.613 . S
S299 N301 1.610 . S
N300 S299 1.613 . S
N300 C303 1.350 . S
N301 S299 1.610 . S
N301 C302 1.351 . S
C302 C296 1.428 . S
C302 N301 1.351 . S
C302 C303 1.434 . S
C303 C294 1.429 . S
C303 N300 1.350 . S
C303 C302 1.434 . S
C304 C305 1.369 . S
C304 C306 1.419 . S
C304 H308 0.930 . S
C305 C304 1.369 . S
C305 C314 1.429 . S
C306 C304 1.419 . S
C306 C307 1.363 . S
C306 H309 0.929 . S
C307 C306 1.363 . S
C307 C313 1.428 . S
H308 C304 0.930 . S
H309 C306 0.929 . S
S310 N311 1.613 . S
S310 N312 1.610 . S
N311 S310 1.613 . S
N311 C314 1.350 . S
N312 S310 1.610 . S
N312 C313 1.351 . S
C313 C307 1.428 . S
C313 N312 1.351 . S
C313 C314 1.434 . S
C314 C305 1.429 . S
C314 N311 1.350 . S
C314 C313 1.434 . S
C315 C316 1.369 . S
C315 C317 1.419 . S
C315 H319 0.930 . S
C316 C315 1.369 . S
C316 C325 1.429 . S
C317 C315 1.419 . S
C317 C318 1.363 . S
C317 H320 0.929 . S
C318 C317 1.363 . S
C318 C324 1.428 . S
H319 C315 0.930 . S
H320 C317 0.929 . S
S321 N322 1.613 . S
S321 N323 1.610 . S
N322 S321 1.613 . S
N322 C325 1.350 . S
N323 S321 1.610 . S
N323 C324 1.351 . S
C324 C318 1.428 . S
C324 N323 1.351 . S
C324 C325 1.434 . S
C325 C316 1.429 . S
C325 N322 1.350 . S
C325 C324 1.434 . S
C326 C327 1.369 . S
C326 C328 1.419 . S
C326 H330 0.930 . S
C327 C326 1.369 . S
C327 C336 1.429 . S
C328 C326 1.419 . S
C328 C329 1.363 . S
C328 H331 0.929 . S
C329 C328 1.363 . S
C329 C335 1.428 . S
H330 C326 0.930 . S
H331 C328 0.929 . S
S332 N333 1.613 1_554 S
S332 N334 1.610 . S
N333 S332 1.613 1_556 S
N333 C336 1.350 1_556 S
N334 S332 1.610 . S
N334 C335 1.351 . S
C335 C329 1.428 . S
C335 N334 1.351 . S
C335 C336 1.434 . S
C336 C327 1.429 . S
C336 N333 1.350 1_554 S
C336 C335 1.434 . S
C337 C338 1.369 . S
C337 C339 1.419 . S
C337 H341 0.930 . S
C338 C337 1.369 . S
C338 C347 1.429 . S
C339 C337 1.419 . S
C339 C340 1.363 . S
C339 H342 0.929 . S
C340 C339 1.363 . S
C340 C346 1.428 . S
H341 C337 0.930 . S
H342 C339 0.929 . S
S343 N344 1.613 . S
S343 N345 1.610 . S
N344 S343 1.613 . S
N344 C347 1.350 . S
N345 S343 1.610 . S
N345 C346 1.351 . S
C346 C340 1.428 . S
C346 N345 1.351 . S
C346 C347 1.434 . S
C347 C338 1.429 . S
C347 N344 1.350 . S
C347 C346 1.434 . S
C217 C4 1.552 . S
C219 C183 1.555 . S
C228 C3 1.556 . S
C230 C40 1.552 . S
C239 C76 1.552 . S
C241 C39 1.555 . S
C250 C112 1.552 . S
C252 C75 1.555 . S
C261 C148 1.552 . S
C263 C111 1.555 . S
C272 C184 1.554 . S
C274 C147 1.555 . S
C283 C14 1.426 . S
C285 C146 1.471 . S
C294 C182 1.473 . S
C296 C50 1.419 . S
C305 C86 1.425 . S
C307 C2 1.472 . S
C316 C38 1.474 . S
C318 C122 1.434 . S
C327 C74 1.473 1_554 S
C329 C158 1.422 . S
C338 C194 1.421 . S
C340 C110 1.472 . S
