# Generated by pormake.
# Topology lcy, (6)-cn, num edge types: 1
# Building blocks:
#     Node 0, Type 0, BuildingBlock: UKALOJ_clean_sbu_0, # of connection points: 6
#     Node 1, Type 0, BuildingBlock: UKALOJ_clean_sbu_0, # of connection points: 6
#     Node 2, Type 0, BuildingBlock: UKALOJ_clean_sbu_0, # of connection points: 6
#     Node 3, Type 0, BuildingBlock: UKALOJ_clean_sbu_0, # of connection points: 6
#     Edge 4, Type (0, 0), BuildingBlock: CIFDUS_clean_linker_0, # of connection points: 2
#     Edge 5, Type (0, 0), BuildingBlock: CIFDUS_clean_linker_0, # of connection points: 2
#     Edge 6, Type (0, 0), BuildingBlock: CIFDUS_clean_linker_0, # of connection points: 2
#     Edge 7, Type (0, 0), BuildingBlock: CIFDUS_clean_linker_0, # of connection points: 2
#     Edge 8, Type (0, 0), BuildingBlock: CIFDUS_clean_linker_0, # of connection points: 2
#     Edge 9, Type (0, 0), BuildingBlock: CIFDUS_clean_linker_0, # of connection points: 2
#     Edge 10, Type (0, 0), BuildingBlock: CIFDUS_clean_linker_0, # of connection points: 2
#     Edge 11, Type (0, 0), BuildingBlock: CIFDUS_clean_linker_0, # of connection points: 2
#     Edge 12, Type (0, 0), BuildingBlock: CIFDUS_clean_linker_0, # of connection points: 2
#     Edge 13, Type (0, 0), BuildingBlock: CIFDUS_clean_linker_0, # of connection points: 2
#     Edge 14, Type (0, 0), BuildingBlock: CIFDUS_clean_linker_0, # of connection points: 2
#     Edge 15, Type (0, 0), BuildingBlock: CIFDUS_clean_linker_0, # of connection points: 2
# Relax obj value: 0.352
# Max RMSD: 0.299
# Mean RMSD: 0.265
data_MOF--net-lcy--node1-UKALOJ_clean_sbu_0--edge1-CIFDUS_clean_linker_0
_symmetry_space_group_name_H-M    P1
_symmetry_Int_Tables_number       1
_symmetry_cell_setting            triclinic
loop_
_symmetry_equiv_pos_as_xyz
'x, y, z'
_cell_length_a     23.813285
_cell_length_b     23.799977
_cell_length_c     23.868596
_cell_angle_alpha  89.508588
_cell_angle_beta   101.05351
_cell_angle_gamma 100.67009
loop_
_atom_site_label
_atom_site_type_symbol
_atom_site_fract_x
_atom_site_fract_y
_atom_site_fract_z
_atom_type_partial_charge
Zn0 Zn 0.35123 0.45522 0.33861 0.0
O1 O 0.32219 0.50499 0.39684 0.0
C2 C 0.45311 0.54785 0.34355 0.0
Zn3 Zn 0.42657 0.44127 0.405 0.0
C4 C 0.35163 0.5109 0.44786 0.0
O5 O 0.3968 0.48862 0.4615 0.0
C6 C 0.42603 0.38296 0.29781 0.0
O7 O 0.37274 0.3662 0.43024 0.0
O8 O 0.30042 0.38275 0.36406 0.0
N9 N 0.49746 0.43028 0.46473 0.0
C10 C 0.52048 0.38305 0.47787 0.0
C11 C 0.58446 0.4547 0.51474 0.0
N12 N 0.53724 0.4747 0.48784 0.0
N13 N 0.57496 0.39735 0.50892 0.0
C14 C 0.28288 0.50115 0.23034 0.0
C15 C 0.23614 0.42215 0.1905 0.0
N16 N 0.2855 0.46099 0.2705 0.0
N17 N 0.25578 0.41213 0.24565 0.0
N18 N 0.25353 0.47753 0.17907 0.0
H19 H 0.30243 0.57302 0.2893 0.0
H20 H 0.27246 0.58844 0.21636 0.0
H21 H 0.34666 0.57834 0.23551 0.0
C22 C 0.30208 0.56394 0.24367 0.0
C23 C 0.49185 0.32332 0.45686 0.0
H24 H 0.45632 0.32251 0.41956 0.0
H25 H 0.473 0.3003 0.49155 0.0
H26 H 0.52439 0.29975 0.44554 0.0
O27 O 0.4557 0.39417 0.34758 0.0
O28 O 0.38072 0.40422 0.28238 0.0
C29 C 0.31951 0.35325 0.40539 0.0
O30 O 0.40199 0.52932 0.31627 0.0
O31 O 0.47683 0.51767 0.38175 0.0
Zn32 Zn 0.91953 0.1535 0.62682 0.0
O33 O 0.87427 0.21482 0.57666 0.0
C34 C 0.94478 0.23835 0.72291 0.0
Zn35 Zn 0.8529 0.1332 0.68146 0.0
C36 C 0.82665 0.21895 0.59188 0.0
O37 O 0.81173 0.18967 0.6328 0.0
C38 C 0.93982 0.06046 0.71593 0.0
O39 O 0.80299 0.06624 0.62059 0.0
O40 O 0.87151 0.08906 0.57011 0.0
N41 N 0.78885 0.12609 0.72971 0.0
C42 C 0.77119 0.08902 0.76874 0.0
C43 C 0.72668 0.15883 0.76937 0.0
N44 N 0.76072 0.16914 0.7301 0.0
N45 N 0.73267 0.10898 0.79468 0.0
C46 C 0.01145 0.20372 0.55207 0.0
C47 C 0.05154 0.13142 0.54635 0.0
N48 N 0.98398 0.16112 0.58013 0.0
N49 N 0.00888 0.11629 0.57623 0.0
N50 N 0.054 0.18604 0.53051 0.0
H51 H 0.97809 0.27228 0.58443 0.0
H52 H 0.96797 0.26675 0.50812 0.0
H53 H 0.03915 0.29504 0.54933 0.0
C54 C -0.00132 0.26305 0.54868 0.0
C55 C 0.78917 0.03218 0.77892 0.0
H56 H 0.79568 0.014 0.7385 0.0
H57 H 0.75576 1.00181 0.79613 0.0
H58 H 0.83078 0.03787 0.81031 0.0
O59 O 0.89522 0.07332 0.73071 0.0
O60 O 0.96066 0.08874 0.67655 0.0
C61 C 0.82279 0.05969 0.57538 0.0
O62 O 0.96643 0.22287 0.6821 0.0
O63 O 0.90106 0.20537 0.73649 0.0
Zn64 Zn 0.07326 0.66875 0.86118 0.0
O65 O 0.14061 0.73192 0.91196 0.0
C66 C 0.04514 0.7594 0.78081 0.0
Zn67 Zn 0.12663 0.67195 0.79484 0.0
C68 C 0.18761 0.74849 0.89338 0.0
O69 O 0.19117 0.73186 0.84412 0.0
C70 C 0.02215 0.58 0.76694 0.0
O71 O 0.17195 0.60644 0.83395 0.0
O72 O 0.11648 0.6067 0.89764 0.0
N73 N 0.1717 0.68311 0.73059 0.0
C74 C 0.19006 0.64659 0.69866 0.0
C75 C 0.20661 0.72913 0.66276 0.0
N76 N 0.18219 0.73434 0.70837 0.0
N77 N 0.21203 0.67452 0.65598 0.0
C78 C 0.00164 0.69174 0.95195 0.0
C79 C 0.97098 0.60648 0.97524 0.0
N80 N 0.02505 0.65659 0.92324 0.0
N81 N 0.00628 0.60373 0.93806 0.0
N82 N 0.96684 0.66117 0.98455 0.0
H83 H 0.05917 0.77033 0.93974 0.0
H84 H 0.01323 0.77572 0.99076 0.0
H85 H 0.98338 0.7701 0.91511 0.0
C86 C 0.01537 0.75568 0.94961 0.0
C87 C 0.18353 0.58334 0.70714 0.0
H88 H 0.14828 0.56735 0.73059 0.0
H89 H 0.22485 0.57413 0.73242 0.0
H90 H 0.17457 0.55993 0.66542 0.0
O91 O 0.0638 0.6077 0.74599 0.0
O92 O 0.01127 0.59966 0.81236 0.0
C93 C 0.15543 0.587 0.87917 0.0
O94 O 0.02893 0.73522 0.82429 0.0
O95 O 0.08246 0.73962 0.75894 0.0
Zn96 Zn 0.62103 0.88799 0.15385 0.0
O97 O 0.54983 0.84951 0.08567 0.0
C98 C 0.65008 0.98467 0.08298 0.0
Zn99 Zn 0.56973 0.95323 0.16758 0.0
C100 C 0.50423 0.8717 0.07504 0.0
O101 O 0.50294 0.91651 0.10239 0.0
C102 C 0.67987 0.96633 0.25344 0.0
O103 O 0.52718 0.90124 0.22711 0.0
O104 O 0.58165 0.84003 0.2111 0.0
N105 N 0.52579 0.01743 0.17143 0.0
C106 C 0.52535 0.05522 0.2128 0.0
C107 C 0.48268 0.08457 0.13422 0.0
N108 N 0.4989 0.03548 0.12278 0.0
N109 N 0.49929 0.09843 0.19031 0.0
C110 C 0.68938 0.81182 0.1005 0.0
C111 C 0.73628 0.77842 0.17441 0.0
N112 N 0.66889 0.8271 0.1458 0.0
N113 N 0.69765 0.80584 0.19161 0.0
N114 N 0.73267 0.7822 0.11749 0.0
H115 H 0.61797 0.82353 0.03326 0.0
H116 H 0.67209 0.79115 0.01007 0.0
H117 H 0.68679 0.86655 0.02829 0.0
C118 C 0.66513 0.8238 0.03963 0.0
C119 C 0.54734 0.04747 0.275 0.0
H120 H 0.54332 1.00133 0.28428 0.0
H121 H 0.52259 0.06753 0.30161 0.0
H122 H 0.59403 0.06768 0.28651 0.0
O123 O 0.63548 0.98896 0.23697 0.0
O124 O 0.68783 0.92528 0.22396 0.0
C125 C 0.54452 0.8539 0.23723 0.0
O126 O 0.6626 0.9366 0.09702 0.0
O127 O 0.61271 1.00338 0.10565 0.0
H128 H 0.25883 0.60885 0.95048 0.0
H129 H 0.10823 0.47756 0.89373 0.0
H130 H 0.1264 0.42996 0.98479 0.0
H131 H 0.17446 0.43637 0.08584 0.0
H132 H 0.32802 0.56542 0.14113 0.0
H133 H 0.31801 0.60457 0.04659 0.0
C134 C 0.23209 0.56807 0.95705 0.0
C135 C 0.1829 0.54608 0.91549 0.0
C136 C 0.24112 0.54268 0.01057 0.0
C137 C 0.14721 0.4943 0.92484 0.0
C138 C 0.15675 0.46795 0.97741 0.0
C139 C 0.20588 0.47297 0.07725 0.0
C140 C 0.24935 0.50023 0.12228 0.0
C141 C 0.20166 0.49363 0.0216 0.0
C142 C 0.29103 0.54623 0.10944 0.0
C143 C 0.28643 0.56779 0.0545 0.0
H144 H 0.64123 0.98854 0.34856 0.0
H145 H 0.79708 0.9716 0.28867 0.0
H146 H 0.85422 0.99149 0.38584 0.0
H147 H 0.86018 0.01895 0.48626 0.0
H148 H 0.70372 0.03338 0.54662 0.0
H149 H 0.64588 1.00702 0.45101 0.0
C150 C 0.68785 0.98991 0.35671 0.0
C151 C 0.7154 0.98051 0.31127 0.0
C152 C 0.71986 0.99961 0.41284 0.0
C153 C 0.77529 0.97991 0.32278 0.0
C154 C 0.80775 0.99086 0.37833 0.0
C155 C 0.81321 0.01508 0.47885 0.0
C156 C 0.78633 0.02827 0.52364 0.0
C157 C 0.78053 1.00118 0.42356 0.0
C158 C 0.72546 0.02286 0.51329 0.0
C159 C 0.69251 1.00868 0.45834 0.0
H160 H 0.29567 0.61291 0.66843 0.0
H161 H 0.17709 0.68674 0.54343 0.0
H162 H 0.21037 0.64303 0.46587 0.0
H163 H 0.27116 0.58046 0.4347 0.0
H164 H 0.39092 0.50869 0.56201 0.0
H165 H 0.35913 0.55455 0.63771 0.0
C166 C 0.27722 0.61897 0.62411 0.0
C167 C 0.23368 0.65172 0.61099 0.0
C168 C 0.29662 0.59402 0.58042 0.0
C169 C 0.21067 0.66117 0.55382 0.0
C170 C 0.22948 0.63612 0.50979 0.0
C171 C 0.29025 0.57502 0.47899 0.0
C172 C 0.33301 0.54103 0.49264 0.0
C173 C 0.27207 0.60189 0.52265 0.0
C174 C 0.3579 0.53472 0.55023 0.0
C175 C 0.33975 0.5608 0.5937 0.0
H176 H 0.59715 0.04053 0.99412 0.0
H177 H 0.76077 0.99264 0.0684 0.0
H178 H 0.80135 0.02714 0.98525 0.0
H179 H 0.78912 0.06717 0.88979 0.0
H180 H 0.62444 0.10998 0.81183 0.0
H181 H 0.58531 0.08168 0.89786 0.0
C182 C 0.64204 0.03897 0.99243 0.0
C183 C 0.67628 0.01491 0.03744 0.0
C184 C 0.66443 0.05692 0.9434 0.0
C185 C 0.73391 1.0116 0.03435 0.0
C186 C 0.75696 0.03086 0.98668 0.0
C187 C 0.74426 0.06888 0.89108 0.0
C188 C 0.70903 0.08879 0.84392 0.0
C189 C 0.72226 0.05245 0.94046 0.0
C190 C 0.6519 0.09375 0.8474 0.0
C191 C 0.62969 0.07785 0.89659 0.0
H192 H 0.16869 0.18755 0.55082 0.0
H193 H 0.03135 0.25193 0.43966 0.0
H194 H 0.10191 0.30507 0.38715 0.0
H195 H 0.20231 0.33617 0.37595 0.0
H196 H 0.34177 0.27642 0.48971 0.0
H197 H 0.27047 0.21696 0.53748 0.0
C198 C 0.15456 0.2132 0.51496 0.0
C199 C 0.09537 0.21707 0.49963 0.0
C200 C 0.19549 0.24375 0.48535 0.0
C201 C 0.07697 0.24989 0.45304 0.0
C202 C 0.11718 0.27968 0.42278 0.0
C203 C 0.21736 0.30958 0.41067 0.0
C204 C 0.27738 0.3107 0.42921 0.0
C205 C 0.17653 0.27734 0.43898 0.0
C206 C 0.29584 0.27622 0.47454 0.0
C207 C 0.25513 0.24255 0.50205 0.0
H208 H 0.98729 0.82822 0.83153 0.0
H209 H 0.06302 0.81487 0.68299 0.0
H210 H 0.04142 0.90798 0.65209 0.0
H211 H 0.00074 0.99391 0.6668 0.0
H212 H 0.9248 1.00688 0.81521 0.0
H213 H 0.9475 0.91432 0.84674 0.0
C214 C -0.00143 0.84526 0.7921 0.0
C215 C 0.02643 0.8138 0.75957 0.0
C216 C 0.98672 0.89957 0.77482 0.0
C217 C 0.04126 0.83752 0.7089 0.0
C218 C 0.0292 0.89113 0.69127 0.0
C219 C 0.99001 0.97698 0.70655 0.0
C220 C 0.96133 1.00792 0.7387 0.0
C221 C 0.0023 0.92284 0.72404 0.0
C222 C 0.94689 0.9844 0.78954 0.0
C223 C 0.95965 0.93116 0.80754 0.0
H224 H 0.29807 0.74152 0.8877 0.0
H225 H 0.19747 0.82172 0.98455 0.0
H226 H 0.28756 0.86809 0.04814 0.0
H227 H 0.39412 0.88409 0.07658 0.0
H228 H 0.49404 0.79793 0.98417 0.0
H229 H 0.40434 0.75499 0.91805 0.0
C230 C 0.29581 0.76975 0.92232 0.0
C231 C 0.24121 0.77913 0.93088 0.0
C232 C 0.34744 0.79462 0.95945 0.0
C233 C 0.23894 0.81437 0.97685 0.0
C234 C 0.29038 0.84068 0.01315 0.0
C235 C 0.39644 0.85616 0.04174 0.0
C236 C 0.45081 0.84465 0.0348 0.0
C237 C 0.34476 0.8309 0.0049 0.0
C238 C 0.45284 0.80751 0.99025 0.0
C239 C 0.40161 0.78313 0.95249 0.0
H240 H 0.51918 0.33074 0.31948 0.0
H241 H 0.35835 0.33132 0.1997 0.0
H242 H 0.36698 0.24168 0.15611 0.0
H243 H 0.41548 0.15901 0.15819 0.0
H244 H 0.57861 0.16159 0.27461 0.0
H245 H 0.57252 0.25315 0.31504 0.0
C246 C 0.48648 0.31183 0.28319 0.0
C247 C 0.43792 0.33725 0.26323 0.0
C248 C 0.49099 0.25988 0.2592 0.0
C249 C 0.3962 0.31254 0.21587 0.0
C250 C 0.40073 0.26099 0.19133 0.0
C251 C 0.44955 0.17966 0.19253 0.0
C252 C 0.49572 0.15197 0.21542 0.0
C253 C 0.44701 0.23351 0.21386 0.0
C254 C 0.54058 0.17986 0.25872 0.0
C255 C 0.53786 0.23302 0.28096 0.0
H256 H 0.71482 0.20833 0.59879 0.0
H257 H 0.84845 0.31433 0.52558 0.0
H258 H 0.7813 0.38072 0.49341 0.0
H259 H 0.68471 0.40959 0.49037 0.0
H260 H 0.5567 0.30325 0.56976 0.0
H261 H 0.62247 0.23606 0.59685 0.0
C262 C 0.72977 0.24595 0.57579 0.0
C263 C 0.78681 0.25666 0.56497 0.0
C264 C 0.69206 0.28398 0.55933 0.0
C265 C 0.80469 0.30505 0.53421 0.0
C266 C 0.76649 0.34314 0.51639 0.0
C267 C 0.67185 0.3718 0.51395 0.0
C268 C 0.6159 0.3606 0.52769 0.0
C269 C 0.71029 0.3334 0.52957 0.0
C270 C 0.59912 0.31178 0.55804 0.0
C271 C 0.63668 0.27361 0.57351 0.0
H272 H 0.97358 0.49024 0.82674 0.0
H273 H 0.02356 0.53159 0.66456 0.0
H274 H 0.00947 0.43016 0.63987 0.0
H275 H 0.98753 0.32997 0.66529 0.0
H276 H 0.93171 0.2856 0.82393 0.0
H277 H 0.94502 0.38766 0.84967 0.0
C278 C 0.97977 0.47712 0.7853 0.0
C279 C -0.00093 0.51912 0.74732 0.0
C280 C 0.97239 0.41803 0.77149 0.0
C281 C 0.00811 0.50074 0.69442 0.0
C282 C 0.00076 0.44253 0.6805 0.0
C283 C 0.97898 0.34228 0.70593 0.0
C284 C 0.95999 0.29965 0.74318 0.0
C285 C 0.98417 0.40085 0.71914 0.0
C286 C 0.94752 0.31717 0.79488 0.0
C287 C 0.95452 0.37565 0.8093 0.0
H288 H 0.90603 0.74668 0.96091 0.0
H289 H 0.93466 0.61144 0.07809 0.0
H290 H 0.86109 0.63473 0.12836 0.0
H291 H 0.78865 0.6941 0.13836 0.0
H292 H 0.77544 0.83945 0.03078 0.0
H293 H 0.84376 0.81234 0.97776 0.0
C294 C 0.89857 0.72387 0.99889 0.0
C295 C 0.9275 0.67866 0.01682 0.0
C296 C 0.85786 0.7386 0.02848 0.0
C297 C 0.91348 0.647 0.06392 0.0
C298 C 0.87145 0.66022 0.09258 0.0
C299 C 0.80066 0.71959 0.10314 0.0
C300 C 0.77377 0.76649 0.08626 0.0
C301 C 0.84323 0.70592 0.07506 0.0
C302 C 0.79143 0.80049 0.04195 0.0
C303 C 0.83182 0.78583 0.01236 0.0
H304 H 0.60281 0.78412 0.30241 0.0
H305 H 0.43201 0.82644 0.25366 0.0
H306 H 0.38862 0.73426 0.2884 0.0
H307 H 0.39901 0.63697 0.31766 0.0
H308 H 0.56928 0.59202 0.3573 0.0
H309 H 0.61393 0.69055 0.34073 0.0
C310 C 0.55615 0.77366 0.3008 0.0
C311 C 0.52027 0.81115 0.27494 0.0
C312 C 0.53173 0.71979 0.31744 0.0
C313 C 0.46023 0.7981 0.27367 0.0
C314 C 0.43552 0.74512 0.29255 0.0
C315 C 0.44579 0.64853 0.32169 0.0
C316 C 0.48087 0.60704 0.33597 0.0
C317 C 0.47069 0.70468 0.31156 0.0
C318 C 0.5416 0.62316 0.34484 0.0
C319 C 0.56697 0.67934 0.33567 0.0
loop_
_geom_bond_atom_site_label_1
_geom_bond_atom_site_label_2
_geom_bond_distance
_geom_bond_site_symmetry_2
_ccdc_geom_bond_type
Zn0 O1 2.055 . S
Zn0 O8 2.046 . S
Zn0 N16 2.036 . S
Zn0 O28 2.053 . S
Zn0 O30 2.066 . S
O1 Zn0 2.055 . S
O1 C4 1.259 . S
C2 O30 1.256 . S
C2 O31 1.244 . S
Zn3 O5 2.046 . S
Zn3 O7 2.055 . S
Zn3 N9 2.036 . S
Zn3 O27 2.066 . S
Zn3 O31 2.053 . S
C4 O1 1.259 . S
C4 O5 1.254 . S
O5 Zn3 2.046 . S
O5 C4 1.254 . S
C6 O27 1.256 . S
C6 O28 1.244 . S
O7 Zn3 2.055 . S
O7 C29 1.259 . S
O8 Zn0 2.046 . S
O8 C29 1.254 . S
N9 Zn3 2.036 . S
N9 C10 1.298 . S
N9 N12 1.398 . S
C10 N9 1.298 . S
C10 N13 1.367 . S
C10 C23 1.481 . S
C11 N12 1.299 . S
C11 N13 1.379 . S
N12 N9 1.398 . S
N12 C11 1.299 . S
N13 C10 1.367 . S
N13 C11 1.379 . S
C14 N16 1.298 . S
C14 N18 1.367 . S
C14 C22 1.481 . S
C15 N17 1.299 . S
C15 N18 1.379 . S
N16 Zn0 2.036 . S
N16 C14 1.298 . S
N16 N17 1.398 . S
N17 C15 1.299 . S
N17 N16 1.398 . S
N18 C14 1.367 . S
N18 C15 1.379 . S
H19 C22 0.980 . S
H20 C22 0.981 . S
H21 C22 0.981 . S
C22 C14 1.481 . S
C22 H19 0.980 . S
C22 H20 0.981 . S
C22 H21 0.981 . S
C23 C10 1.481 . S
C23 H24 0.980 . S
C23 H25 0.981 . S
C23 H26 0.981 . S
H24 C23 0.980 . S
H25 C23 0.981 . S
H26 C23 0.981 . S
O27 Zn3 2.066 . S
O27 C6 1.256 . S
O28 Zn0 2.053 . S
O28 C6 1.244 . S
C29 O7 1.259 . S
C29 O8 1.254 . S
O30 Zn0 2.066 . S
O30 C2 1.256 . S
O31 C2 1.244 . S
O31 Zn3 2.053 . S
Zn32 O33 2.055 . S
Zn32 O40 2.046 . S
Zn32 N48 2.036 . S
Zn32 O60 2.053 . S
Zn32 O62 2.066 . S
O33 Zn32 2.055 . S
O33 C36 1.259 . S
C34 O62 1.256 . S
C34 O63 1.244 . S
Zn35 O37 2.046 . S
Zn35 O39 2.055 . S
Zn35 N41 2.036 . S
Zn35 O59 2.066 . S
Zn35 O63 2.053 . S
C36 O33 1.259 . S
C36 O37 1.254 . S
O37 Zn35 2.046 . S
O37 C36 1.254 . S
C38 O59 1.256 . S
C38 O60 1.244 . S
O39 Zn35 2.055 . S
O39 C61 1.259 . S
O40 Zn32 2.046 . S
O40 C61 1.254 . S
N41 Zn35 2.036 . S
N41 C42 1.298 . S
N41 N44 1.398 . S
C42 N41 1.298 . S
C42 N45 1.367 . S
C42 C55 1.481 1_545 S
C43 N44 1.299 . S
C43 N45 1.379 . S
N44 N41 1.398 . S
N44 C43 1.299 . S
N45 C42 1.367 . S
N45 C43 1.379 . S
C46 N48 1.298 1_455 S
C46 N50 1.367 . S
C46 C54 1.481 1_455 S
C47 N49 1.299 . S
C47 N50 1.379 . S
N48 Zn32 2.036 . S
N48 C46 1.298 1_655 S
N48 N49 1.398 1_655 S
N49 C47 1.299 . S
N49 N48 1.398 1_455 S
N50 C46 1.367 . S
N50 C47 1.379 . S
H51 C54 0.980 . S
H52 C54 0.981 . S
H53 C54 0.981 . S
C54 C46 1.481 1_655 S
C54 H51 0.980 . S
C54 H52 0.981 . S
C54 H53 0.981 . S
C55 C42 1.481 1_565 S
C55 H56 0.980 . S
C55 H57 0.981 . S
C55 H58 0.981 . S
H56 C55 0.980 . S
H57 C55 0.981 . S
H58 C55 0.981 . S
O59 Zn35 2.066 . S
O59 C38 1.256 . S
O60 Zn32 2.053 . S
O60 C38 1.244 . S
C61 O39 1.259 . S
C61 O40 1.254 . S
O62 Zn32 2.066 . S
O62 C34 1.256 . S
O63 C34 1.244 . S
O63 Zn35 2.053 . S
Zn64 O65 2.055 . S
Zn64 O72 2.046 . S
Zn64 N80 2.036 . S
Zn64 O92 2.053 . S
Zn64 O94 2.066 . S
O65 Zn64 2.055 . S
O65 C68 1.259 . S
C66 O94 1.256 . S
C66 O95 1.244 . S
Zn67 O69 2.046 . S
Zn67 O71 2.055 . S
Zn67 N73 2.036 . S
Zn67 O91 2.066 . S
Zn67 O95 2.053 . S
C68 O65 1.259 . S
C68 O69 1.254 . S
O69 Zn67 2.046 . S
O69 C68 1.254 . S
C70 O91 1.256 . S
C70 O92 1.244 . S
O71 Zn67 2.055 . S
O71 C93 1.259 . S
O72 Zn64 2.046 . S
O72 C93 1.254 . S
N73 Zn67 2.036 . S
N73 C74 1.298 . S
N73 N76 1.398 . S
C74 N73 1.298 . S
C74 N77 1.367 . S
C74 C87 1.481 . S
C75 N76 1.299 . S
C75 N77 1.379 . S
N76 N73 1.398 . S
N76 C75 1.299 . S
N77 C74 1.367 . S
N77 C75 1.379 . S
C78 N80 1.298 . S
C78 N82 1.367 1_455 S
C78 C86 1.481 . S
C79 N81 1.299 . S
C79 N82 1.379 . S
N80 Zn64 2.036 . S
N80 C78 1.298 . S
N80 N81 1.398 1_455 S
N81 C79 1.299 . S
N81 N80 1.398 1_655 S
N82 C78 1.367 1_655 S
N82 C79 1.379 . S
H83 C86 0.980 . S
H84 C86 0.981 . S
H85 C86 0.981 . S
C86 C78 1.481 . S
C86 H83 0.980 . S
C86 H84 0.981 . S
C86 H85 0.981 . S
C87 C74 1.481 . S
C87 H88 0.980 . S
C87 H89 0.981 . S
C87 H90 0.981 . S
H88 C87 0.980 . S
H89 C87 0.981 . S
H90 C87 0.981 . S
O91 Zn67 2.066 . S
O91 C70 1.256 . S
O92 Zn64 2.053 . S
O92 C70 1.244 . S
C93 O71 1.259 . S
C93 O72 1.254 . S
O94 Zn64 2.066 . S
O94 C66 1.256 . S
O95 C66 1.244 . S
O95 Zn67 2.053 . S
Zn96 O97 2.055 . S
Zn96 O104 2.046 . S
Zn96 N112 2.036 . S
Zn96 O124 2.053 . S
Zn96 O126 2.066 . S
O97 Zn96 2.055 . S
O97 C100 1.259 . S
C98 O126 1.256 . S
C98 O127 1.244 . S
Zn99 O101 2.046 . S
Zn99 O103 2.055 . S
Zn99 N105 2.036 . S
Zn99 O123 2.066 . S
Zn99 O127 2.053 . S
C100 O97 1.259 . S
C100 O101 1.254 . S
O101 Zn99 2.046 . S
O101 C100 1.254 . S
C102 O123 1.256 . S
C102 O124 1.244 . S
O103 Zn99 2.055 . S
O103 C125 1.259 . S
O104 Zn96 2.046 . S
O104 C125 1.254 . S
N105 Zn99 2.036 . S
N105 C106 1.298 1_565 S
N105 N108 1.398 1_565 S
C106 N105 1.298 1_545 S
C106 N109 1.367 . S
C106 C119 1.481 1_545 S
C107 N108 1.299 . S
C107 N109 1.379 . S
N108 N105 1.398 1_545 S
N108 C107 1.299 . S
N109 C106 1.367 . S
N109 C107 1.379 . S
C110 N112 1.298 . S
C110 N114 1.367 . S
C110 C118 1.481 . S
C111 N113 1.299 . S
C111 N114 1.379 . S
N112 Zn96 2.036 . S
N112 C110 1.298 . S
N112 N113 1.398 . S
N113 C111 1.299 . S
N113 N112 1.398 . S
N114 C110 1.367 . S
N114 C111 1.379 . S
H115 C118 0.980 . S
H116 C118 0.981 . S
H117 C118 0.986 . S
C118 C110 1.481 . S
C118 H115 0.980 . S
C118 H116 0.981 . S
C118 H117 0.986 . S
C119 C106 1.481 1_565 S
C119 H120 0.980 . S
C119 H121 0.981 . S
C119 H122 0.981 . S
H120 C119 0.980 . S
H121 C119 0.981 . S
H122 C119 0.981 . S
O123 Zn99 2.066 . S
O123 C102 1.256 . S
O124 Zn96 2.053 . S
O124 C102 1.244 . S
C125 O103 1.259 . S
C125 O104 1.254 . S
O126 Zn96 2.066 . S
O126 C98 1.256 . S
O127 C98 1.244 . S
O127 Zn99 2.053 . S
H128 C134 0.930 . S
H129 C137 0.930 . S
H130 C138 0.930 . S
H131 C139 0.930 . S
H132 C142 0.930 . S
H133 C143 0.930 . S
C134 H128 0.930 . S
C134 C135 1.355 . S
C134 C136 1.415 1_556 S
C135 C134 1.355 . S
C135 C137 1.419 . S
C136 C134 1.415 1_554 S
C136 C141 1.425 . S
C136 C143 1.409 . S
C137 H129 0.930 . S
C137 C135 1.419 . S
C137 C138 1.362 1_556 S
C138 H130 0.930 . S
C138 C137 1.362 1_554 S
C138 C141 1.409 . S
C139 H131 0.930 . S
C139 C140 1.355 . S
C139 C141 1.415 . S
C140 C139 1.355 . S
C140 C142 1.419 . S
C141 C136 1.425 . S
C141 C138 1.409 . S
C141 C139 1.415 . S
C142 H132 0.930 . S
C142 C140 1.419 . S
C142 C143 1.362 . S
C143 H133 0.930 . S
C143 C136 1.409 . S
C143 C142 1.362 . S
H144 C150 0.930 . S
H145 C153 0.930 . S
H146 C154 0.930 . S
H147 C155 0.930 . S
H148 C158 0.930 . S
H149 C159 0.930 . S
C150 H144 0.930 . S
C150 C151 1.355 . S
C150 C152 1.415 . S
C151 C150 1.355 . S
C151 C153 1.419 . S
C152 C150 1.415 . S
C152 C157 1.425 . S
C152 C159 1.409 . S
C153 H145 0.930 . S
C153 C151 1.419 . S
C153 C154 1.362 1_565 S
C154 H146 0.930 . S
C154 C153 1.362 1_545 S
C154 C157 1.409 1_545 S
C155 H147 0.930 . S
C155 C156 1.355 . S
C155 C157 1.415 1_545 S
C156 C155 1.355 . S
C156 C158 1.419 1_545 S
C157 C152 1.425 . S
C157 C154 1.409 1_565 S
C157 C155 1.415 1_565 S
C158 H148 0.930 . S
C158 C156 1.419 1_565 S
C158 C159 1.362 . S
C159 H149 0.930 . S
C159 C152 1.409 . S
C159 C158 1.362 . S
H160 C166 0.930 . S
H161 C169 0.930 . S
H162 C170 0.930 . S
H163 C171 0.930 . S
H164 C174 0.930 . S
H165 C175 0.930 . S
C166 H160 0.930 . S
C166 C167 1.355 . S
C166 C168 1.415 . S
C167 C166 1.355 . S
C167 C169 1.419 . S
C168 C166 1.415 . S
C168 C173 1.425 . S
C168 C175 1.409 . S
C169 H161 0.930 . S
C169 C167 1.419 . S
C169 C170 1.362 . S
C170 H162 0.930 . S
C170 C169 1.362 . S
C170 C173 1.409 . S
C171 H163 0.930 . S
C171 C172 1.355 . S
C171 C173 1.415 . S
C172 C171 1.355 . S
C172 C174 1.419 . S
C173 C168 1.425 . S
C173 C170 1.409 . S
C173 C171 1.415 . S
C174 H164 0.930 . S
C174 C172 1.419 . S
C174 C175 1.362 . S
C175 H165 0.930 . S
C175 C168 1.409 . S
C175 C174 1.362 . S
H176 C182 0.930 . S
H177 C185 0.930 . S
H178 C186 0.930 . S
H179 C187 0.930 . S
H180 C190 0.930 . S
H181 C191 0.930 . S
C182 H176 0.930 . S
C182 C183 1.355 1_546 S
C182 C184 1.415 . S
C183 C182 1.355 1_564 S
C183 C185 1.419 . S
C184 C182 1.415 . S
C184 C189 1.425 1_545 S
C184 C191 1.409 . S
C185 H177 0.930 . S
C185 C183 1.419 . S
C185 C186 1.362 1_554 S
C186 H178 0.930 . S
C186 C185 1.362 1_556 S
C186 C189 1.409 . S
C187 H179 0.930 . S
C187 C188 1.355 1_565 S
C187 C189 1.415 . S
C188 C187 1.355 1_545 S
C188 C190 1.419 . S
C189 C184 1.425 1_565 S
C189 C186 1.409 . S
C189 C187 1.415 . S
C190 H180 0.930 . S
C190 C188 1.419 . S
C190 C191 1.362 . S
C191 H181 0.930 . S
C191 C184 1.409 . S
C191 C190 1.362 . S
H192 C198 0.930 . S
H193 C201 0.930 . S
H194 C202 0.930 . S
H195 C203 0.930 . S
H196 C206 0.930 . S
H197 C207 0.930 . S
C198 H192 0.930 . S
C198 C199 1.355 . S
C198 C200 1.415 . S
C199 C198 1.355 . S
C199 C201 1.419 . S
C200 C198 1.415 . S
C200 C205 1.425 . S
C200 C207 1.409 . S
C201 H193 0.930 . S
C201 C199 1.419 . S
C201 C202 1.362 . S
C202 H194 0.930 . S
C202 C201 1.362 . S
C202 C205 1.409 . S
C203 H195 0.930 . S
C203 C204 1.355 . S
C203 C205 1.415 . S
C204 C203 1.355 . S
C204 C206 1.419 . S
C205 C200 1.425 . S
C205 C202 1.409 . S
C205 C203 1.415 . S
C206 H196 0.930 . S
C206 C204 1.419 . S
C206 C207 1.362 . S
C207 H197 0.930 . S
C207 C200 1.409 . S
C207 C206 1.362 . S
H208 C214 0.930 1_655 S
H209 C217 0.930 . S
H210 C218 0.930 . S
H211 C219 0.930 1_545 S
H212 C222 0.930 . S
H213 C223 0.930 . S
C214 H208 0.930 1_455 S
C214 C215 1.355 . S
C214 C216 1.409 1_455 S
C215 C214 1.355 . S
C215 C217 1.419 . S
C216 C214 1.409 1_655 S
C216 C221 1.418 1_655 S
C216 C223 1.422 . S
C217 H209 0.930 . S
C217 C215 1.419 . S
C217 C218 1.362 . S
C218 H210 0.930 . S
C218 C217 1.362 . S
C218 C221 1.409 . S
C219 H211 0.930 1_565 S
C219 C220 1.355 1_455 S
C219 C221 1.415 . S
C220 C219 1.355 1_655 S
C220 C222 1.419 . S
C221 C216 1.418 1_455 S
C221 C218 1.409 . S
C221 C219 1.415 . S
C222 H212 0.930 . S
C222 C220 1.419 . S
C222 C223 1.362 . S
C223 H213 0.930 . S
C223 C216 1.422 . S
C223 C222 1.362 . S
H224 C230 0.930 . S
H225 C233 0.930 . S
H226 C234 0.930 . S
H227 C235 0.930 . S
H228 C238 0.930 . S
H229 C239 0.930 . S
C230 H224 0.930 . S
C230 C231 1.355 . S
C230 C232 1.415 . S
C231 C230 1.355 . S
C231 C233 1.419 . S
C232 C230 1.415 . S
C232 C237 1.425 . S
C232 C239 1.409 . S
C233 H225 0.930 . S
C233 C231 1.419 . S
C233 C234 1.362 1_556 S
C234 H226 0.930 . S
C234 C233 1.362 1_554 S
C234 C237 1.409 1_554 S
C235 H227 0.930 . S
C235 C236 1.355 . S
C235 C237 1.415 1_554 S
C236 C235 1.355 . S
C236 C238 1.419 1_554 S
C237 C232 1.425 . S
C237 C234 1.409 1_556 S
C237 C235 1.415 1_556 S
C238 H228 0.930 . S
C238 C236 1.419 1_556 S
C238 C239 1.362 . S
C239 H229 0.930 . S
C239 C232 1.409 . S
C239 C238 1.362 . S
H240 C246 0.930 . S
H241 C249 0.930 . S
H242 C250 0.930 . S
H243 C251 0.930 . S
H244 C254 0.930 . S
H245 C255 0.930 . S
C246 H240 0.930 . S
C246 C247 1.355 . S
C246 C248 1.415 . S
C247 C246 1.355 . S
C247 C249 1.419 . S
C248 C246 1.415 . S
C248 C253 1.425 . S
C248 C255 1.409 . S
C249 H241 0.930 . S
C249 C247 1.419 . S
C249 C250 1.362 . S
C250 H242 0.930 . S
C250 C249 1.362 . S
C250 C253 1.409 . S
C251 H243 0.930 . S
C251 C252 1.355 . S
C251 C253 1.415 . S
C252 C251 1.355 . S
C252 C254 1.419 . S
C253 C248 1.425 . S
C253 C250 1.409 . S
C253 C251 1.415 . S
C254 H244 0.930 . S
C254 C252 1.419 . S
C254 C255 1.362 . S
C255 H245 0.930 . S
C255 C248 1.409 . S
C255 C254 1.362 . S
H256 C262 0.930 . S
H257 C265 0.930 . S
H258 C266 0.930 . S
H259 C267 0.930 . S
H260 C270 0.930 . S
H261 C271 0.930 . S
C262 H256 0.930 . S
C262 C263 1.355 . S
C262 C264 1.415 . S
C263 C262 1.355 . S
C263 C265 1.419 . S
C264 C262 1.415 . S
C264 C269 1.425 . S
C264 C271 1.409 . S
C265 H257 0.930 . S
C265 C263 1.419 . S
C265 C266 1.362 . S
C266 H258 0.930 . S
C266 C265 1.362 . S
C266 C269 1.409 . S
C267 H259 0.930 . S
C267 C268 1.355 . S
C267 C269 1.415 . S
C268 C267 1.355 . S
C268 C270 1.419 . S
C269 C264 1.425 . S
C269 C266 1.409 . S
C269 C267 1.415 . S
C270 H260 0.930 . S
C270 C268 1.419 . S
C270 C271 1.362 . S
C271 H261 0.930 . S
C271 C264 1.409 . S
C271 C270 1.362 . S
H272 C278 0.930 . S
H273 C281 0.930 . S
H274 C282 0.930 . S
H275 C283 0.930 . S
H276 C286 0.930 . S
H277 C287 0.930 . S
C278 H272 0.930 . S
C278 C279 1.355 1_655 S
C278 C280 1.415 . S
C279 C278 1.355 1_455 S
C279 C281 1.419 . S
C280 C278 1.415 . S
C280 C285 1.425 1_655 S
C280 C287 1.409 . S
C281 H273 0.930 . S
C281 C279 1.419 . S
C281 C282 1.362 . S
C282 H274 0.930 . S
C282 C281 1.362 . S
C282 C285 1.409 . S
C283 H275 0.930 . S
C283 C284 1.355 1_455 S
C283 C285 1.415 . S
C284 C283 1.355 1_655 S
C284 C286 1.419 . S
C285 C280 1.425 1_455 S
C285 C282 1.409 . S
C285 C283 1.415 . S
C286 H276 0.930 . S
C286 C284 1.419 . S
C286 C287 1.362 . S
C287 H277 0.930 . S
C287 C280 1.409 . S
C287 C286 1.362 . S
H288 C294 0.930 . S
H289 C297 0.930 . S
H290 C298 0.930 . S
H291 C299 0.930 . S
H292 C302 0.930 1_556 S
H293 C303 0.930 . S
C294 H288 0.930 . S
C294 C295 1.355 . S
C294 C296 1.415 . S
C295 C294 1.355 . S
C295 C297 1.419 1_556 S
C296 C294 1.415 . S
C296 C301 1.425 1_556 S
C296 C303 1.409 . S
C297 H289 0.930 . S
C297 C295 1.419 1_554 S
C297 C298 1.362 . S
C298 H290 0.930 . S
C298 C297 1.362 . S
C298 C301 1.409 . S
C299 H291 0.930 . S
C299 C300 1.355 . S
C299 C301 1.415 . S
C300 C299 1.355 . S
C300 C302 1.419 . S
C301 C296 1.425 1_554 S
C301 C298 1.409 . S
C301 C299 1.415 . S
C302 H292 0.930 1_554 S
C302 C300 1.419 . S
C302 C303 1.362 1_554 S
C303 H293 0.930 . S
C303 C296 1.409 . S
C303 C302 1.362 1_556 S
H304 C310 0.930 . S
H305 C313 0.930 . S
H306 C314 0.930 . S
H307 C315 0.930 . S
H308 C318 0.930 . S
H309 C319 0.930 . S
C310 H304 0.930 . S
C310 C311 1.355 . S
C310 C312 1.415 . S
C311 C310 1.355 . S
C311 C313 1.419 . S
C312 C310 1.415 . S
C312 C317 1.425 . S
C312 C319 1.409 . S
C313 H305 0.930 . S
C313 C311 1.419 . S
C313 C314 1.362 . S
C314 H306 0.930 . S
C314 C313 1.362 . S
C314 C317 1.409 . S
C315 H307 0.930 . S
C315 C316 1.355 . S
C315 C317 1.415 . S
C316 C315 1.355 . S
C316 C318 1.419 . S
C317 C312 1.425 . S
C317 C314 1.409 . S
C317 C315 1.415 . S
C318 H308 0.930 . S
C318 C316 1.419 . S
C318 C319 1.362 . S
C319 H309 0.930 . S
C319 C312 1.409 . S
C319 C318 1.362 . S
C135 C93 1.237 . S
C140 N18 1.235 . S
C151 C102 1.752 . S
C156 C61 1.657 . S
C167 N77 0.993 . S
C172 C4 0.969 . S
C183 C98 1.513 . S
C188 N45 1.455 . S
C199 N50 1.248 . S
C204 C29 1.237 . S
C215 C66 1.960 . S
C220 C38 1.990 1_565 S
C231 C68 1.275 . S
C236 C100 1.414 . S
C247 C6 1.556 . S
C252 N109 1.499 . S
C263 C36 1.312 . S
C268 N13 1.305 . S
C279 C70 2.189 . S
C284 C34 2.181 . S
C295 N82 1.035 . S
C300 N114 1.101 . S
C311 C125 1.500 . S
C316 C2 1.580 . S
