# Generated by pormake.
# Topology ecf, (8)-cn, num edge types: 1
# Building blocks:
#     Node 0, Type 0, BuildingBlock: GIZVER_clean_sbu_0, # of connection points: 8
#     Node 1, Type 0, BuildingBlock: GIZVER_clean_sbu_0, # of connection points: 8
#     Node 2, Type 0, BuildingBlock: GIZVER_clean_sbu_0, # of connection points: 8
#     Node 3, Type 0, BuildingBlock: GIZVER_clean_sbu_0, # of connection points: 8
#     Node 4, Type 0, BuildingBlock: GIZVER_clean_sbu_0, # of connection points: 8
#     Node 5, Type 0, BuildingBlock: GIZVER_clean_sbu_0, # of connection points: 8
#     Edge 6, Type (0, 0), BuildingBlock: TEMPAE_clean_linker_10, # of connection points: 2
#     Edge 7, Type (0, 0), BuildingBlock: TEMPAE_clean_linker_10, # of connection points: 2
#     Edge 8, Type (0, 0), BuildingBlock: TEMPAE_clean_linker_10, # of connection points: 2
#     Edge 9, Type (0, 0), BuildingBlock: TEMPAE_clean_linker_10, # of connection points: 2
#     Edge 10, Type (0, 0), BuildingBlock: TEMPAE_clean_linker_10, # of connection points: 2
#     Edge 11, Type (0, 0), BuildingBlock: TEMPAE_clean_linker_10, # of connection points: 2
#     Edge 12, Type (0, 0), BuildingBlock: TEMPAE_clean_linker_10, # of connection points: 2
#     Edge 13, Type (0, 0), BuildingBlock: TEMPAE_clean_linker_10, # of connection points: 2
#     Edge 14, Type (0, 0), BuildingBlock: TEMPAE_clean_linker_10, # of connection points: 2
#     Edge 15, Type (0, 0), BuildingBlock: TEMPAE_clean_linker_10, # of connection points: 2
#     Edge 16, Type (0, 0), BuildingBlock: TEMPAE_clean_linker_10, # of connection points: 2
#     Edge 17, Type (0, 0), BuildingBlock: TEMPAE_clean_linker_10, # of connection points: 2
#     Edge 18, Type (0, 0), BuildingBlock: TEMPAE_clean_linker_10, # of connection points: 2
#     Edge 19, Type (0, 0), BuildingBlock: TEMPAE_clean_linker_10, # of connection points: 2
#     Edge 20, Type (0, 0), BuildingBlock: TEMPAE_clean_linker_10, # of connection points: 2
#     Edge 21, Type (0, 0), BuildingBlock: TEMPAE_clean_linker_10, # of connection points: 2
#     Edge 22, Type (0, 0), BuildingBlock: TEMPAE_clean_linker_10, # of connection points: 2
#     Edge 23, Type (0, 0), BuildingBlock: TEMPAE_clean_linker_10, # of connection points: 2
#     Edge 24, Type (0, 0), BuildingBlock: TEMPAE_clean_linker_10, # of connection points: 2
#     Edge 25, Type (0, 0), BuildingBlock: TEMPAE_clean_linker_10, # of connection points: 2
#     Edge 26, Type (0, 0), BuildingBlock: TEMPAE_clean_linker_10, # of connection points: 2
#     Edge 27, Type (0, 0), BuildingBlock: TEMPAE_clean_linker_10, # of connection points: 2
#     Edge 28, Type (0, 0), BuildingBlock: TEMPAE_clean_linker_10, # of connection points: 2
#     Edge 29, Type (0, 0), BuildingBlock: TEMPAE_clean_linker_10, # of connection points: 2
# Relax obj value: 0.384
# Max RMSD: 0.263
# Mean RMSD: 0.263
data_MOF--net-ecf--node1-GIZVER_clean_sbu_0--edge1-TEMPAE_clean_linker_10
_symmetry_space_group_name_H-M    P1
_symmetry_Int_Tables_number       1
_symmetry_cell_setting            triclinic
loop_
_symmetry_equiv_pos_as_xyz
'x, y, z'
_cell_length_a     38.398191
_cell_length_b     38.226743
_cell_length_c     23.816156
_cell_angle_alpha  90.022632
_cell_angle_beta   90.043084
_cell_angle_gamma 119.96216
loop_
_atom_site_label
_atom_site_type_symbol
_atom_site_fract_x
_atom_site_fract_y
_atom_site_fract_z
_atom_type_partial_charge
Co0 Co 0.24101 0.42895 0.36347 0.0
Co1 Co 0.17172 0.41552 0.35643 0.0
Co2 Co 0.16563 0.33266 0.31685 0.0
O3 O 0.19586 0.39337 0.3135 0.0
H4 H 0.1999 0.40305 0.27531 0.0
O5 O 0.13868 0.27497 0.32528 0.0
Co6 Co 0.08221 0.24322 0.33011 0.0
Co7 Co 0.13089 0.24843 0.26155 0.0
H8 H 0.15184 0.26654 0.35221 0.0
O9 O 0.16728 0.45412 0.32202 0.0
O10 O 0.21324 0.46043 0.38796 0.0
O11 O 0.13092 0.38404 0.41054 0.0
O12 O 0.12484 0.32662 0.37943 0.0
O13 O 0.12668 0.33024 0.25516 0.0
O14 O 1.03003 0.21074 0.34021 0.0
O15 O 0.08182 0.21662 0.39182 0.0
O16 O 0.07525 0.26747 0.2654 0.0
O17 O 0.2025 0.33111 0.25224 0.0
O18 O 0.15574 0.28238 0.19793 0.0
O19 O 0.08479 0.20209 0.28068 0.0
O20 O 0.14903 0.21435 0.27043 0.0
C21 C 0.29365 0.48436 0.35727 0.0
C22 C 0.21741 0.355 0.42107 0.0
C23 C 0.11385 0.34601 0.41269 0.0
C24 C 0.19647 0.47641 0.35631 0.0
C25 C 0.04336 0.19889 0.38209 0.0
C26 C 0.09235 0.30083 0.2392 0.0
C27 C 0.19183 0.31076 0.20508 0.0
C28 C 0.11215 0.19135 0.28675 0.0
O29 O 0.28368 0.4631 0.40303 0.0
O30 O 0.26997 0.47001 0.31337 0.0
O31 O 0.20429 0.33398 0.3761 0.0
O32 O 0.21905 0.38931 0.42469 0.0
Co33 Co 0.87308 0.08188 0.80556 0.0
Co34 Co 0.90187 0.13215 0.87224 0.0
Co35 Co 0.85333 0.15904 0.80641 0.0
O36 O 0.88868 0.13643 0.80414 0.0
H37 H 0.91269 0.15262 0.78238 0.0
O38 O 0.81997 0.18616 0.80643 0.0
Co39 Co 0.82939 0.23138 0.75673 0.0
Co40 Co 0.77507 0.16035 0.76224 0.0
H41 H 0.81314 0.18981 0.84417 0.0
O42 O 0.95386 0.15697 0.88075 0.0
O43 O 0.90897 0.08888 0.87349 0.0
O44 O 0.87896 0.14883 0.92988 0.0
O45 O 0.88813 0.19779 0.87242 0.0
O46 O 0.89113 0.19916 0.7487 0.0
O47 O 0.83757 0.27398 0.71705 0.0
O48 O 0.81469 0.25916 0.80555 0.0
O49 O 0.84981 0.21109 0.69736 0.0
O50 O 0.8226 0.11728 0.742 0.0
O51 O 0.76882 0.11884 0.71121 0.0
O52 O 0.77108 0.20144 0.72912 0.0
O53 O 0.73081 0.15471 0.79382 0.0
C54 C 0.89278 0.04909 0.76556 0.0
C55 C 0.81094 0.08305 0.88007 0.0
C56 C 0.89266 0.18614 0.92197 0.0
C57 C 0.94358 0.11947 0.8899 0.0
C58 C 0.82486 0.2833 0.762 0.0
C59 C 0.88324 0.21143 0.70291 0.0
C60 C 0.79181 0.10405 0.70891 0.0
C61 C 0.73798 0.18419 0.75979 0.0
O62 O 0.86192 0.03152 0.79904 0.0
O63 O 0.91098 0.08786 0.7578 0.0
O64 O 0.81511 0.1175 0.86527 0.0
O65 O 0.83184 0.06965 0.85752 0.0
Co66 Co 0.61781 0.82074 0.36131 0.0
Co67 Co 0.63297 0.76565 0.35694 0.0
Co68 Co 0.71275 0.8426 0.31013 0.0
O69 O 0.65243 0.81016 0.31089 0.0
H70 H 0.64153 0.80273 0.27345 0.0
O71 O 0.77102 0.87368 0.31471 0.0
Co72 Co 0.80452 0.87559 0.2566 0.0
Co73 Co 0.78517 0.92582 0.29896 0.0
H74 H 0.78146 0.8732 0.35147 0.0
O75 O 0.59457 0.72085 0.32567 0.0
O76 O 0.58805 0.76212 0.38882 0.0
O77 O 0.66739 0.75955 0.40979 0.0
O78 O 0.72268 0.80975 0.37271 0.0
O79 O 0.71745 0.80825 0.24691 0.0
O80 O 0.83796 0.87886 0.20462 0.0
O81 O 0.84578 0.88267 0.29902 0.0
O82 O 0.76322 0.864 0.20532 0.0
O83 O 0.70673 0.87673 0.24485 0.0
O84 O 0.75112 0.94084 0.2625 0.0
O85 O 0.82863 0.93629 0.25713 0.0
O86 O 0.82206 0.96147 0.34164 0.0
C87 C 0.56209 0.81739 0.35624 0.0
C88 C 0.69288 0.87301 0.41586 0.0
C89 C 0.70531 0.78073 0.40868 0.0
C90 C 0.57225 0.72856 0.35872 0.0
C91 C 0.85957 0.88363 0.24868 0.0
C92 C 0.73999 0.82566 0.2036 0.0
C93 C 0.72257 0.91486 0.23327 0.0
C94 C 0.84415 0.95792 0.3031 0.0
O95 O 0.58415 0.82991 0.40122 0.0
O96 O 0.57567 0.80695 0.3126 0.0
O97 O 0.71241 0.88038 0.36969 0.0
O98 O 0.65878 0.84046 0.42113 0.0
Co99 Co 0.94784 0.79057 0.88102 0.0
Co100 Co 0.88517 0.77905 0.82108 0.0
Co101 Co 0.89195 0.70462 0.80923 0.0
O102 O 0.92324 0.7637 0.81203 0.0
H103 H 0.93921 0.77636 0.779 0.0
O104 O 0.86127 0.64418 0.80525 0.0
Co105 Co 0.81609 0.61037 0.75566 0.0
Co106 Co 0.8852 0.62457 0.75796 0.0
H107 H 0.85774 0.63247 0.84216 0.0
O108 O 0.89591 0.82427 0.78865 0.0
O109 O 0.91194 0.81449 0.87774 0.0
O110 O 0.83057 0.74195 0.84001 0.0
O111 O 0.84977 0.69966 0.87039 0.0
O112 O 0.85774 0.70846 0.74644 0.0
O113 O 0.77298 0.57716 0.71577 0.0
O114 O 0.78764 0.56816 0.80404 0.0
O115 O 0.83803 0.65192 0.69688 0.0
O116 O 0.93629 0.71428 0.74949 0.0
O117 O 0.92516 0.65886 0.70471 0.0
O118 O 0.8436 0.57934 0.72748 0.0
O119 O 0.89215 0.58662 0.78933 0.0
C120 C 0.99344 0.84329 0.90531 0.0
C121 C 0.92958 0.72292 0.92023 0.0
C122 C 0.82701 0.71566 0.87504 0.0
C123 C 0.91475 0.83831 0.83605 0.0
C124 C 0.76363 0.55474 0.76043 0.0
C125 C 0.84243 0.68744 0.7016 0.0
C126 C 0.9454 0.69678 0.71029 0.0
C127 C 0.86145 0.56371 0.75763 0.0
O128 O 0.97053 0.81736 0.94218 0.0
O129 O 0.98723 0.83587 0.85159 0.0
O130 O 0.927 0.70381 0.87425 0.0
O131 O 0.91316 0.74485 0.92054 0.0
Co132 Co 0.22655 0.80805 0.36247 0.0
Co133 Co 0.2825 0.8777 0.35676 0.0
Co134 Co 0.20746 0.88412 0.31233 0.0
O135 O 0.23708 0.85321 0.31251 0.0
H136 H 0.2435 0.84901 0.27476 0.0
O137 O 0.17713 0.91207 0.31561 0.0
Co138 Co 0.20265 0.96903 0.31874 0.0
Co139 Co 0.16636 0.92079 0.24775 0.0
H140 H 0.15298 0.89832 0.33814 0.0
O141 O 0.32592 0.8824 0.32387 0.0
O142 O 0.28543 0.83593 0.38877 0.0
O143 O 0.29088 0.91896 0.41002 0.0
O144 O 0.24138 0.92597 0.3747 0.0
O145 O 0.24591 0.92169 0.24969 0.0
O146 O 0.22301 1.02106 0.32723 0.0
O147 O 0.16842 0.96993 0.36842 0.0
O148 O 0.2404 0.97548 0.26623 0.0
O149 O 0.16904 0.84586 0.24868 0.0
O150 O 0.17755 0.89389 0.18841 0.0
O151 O 0.17036 0.9704 0.25303 0.0
O152 O 0.11553 0.9071 0.24424 0.0
C153 C 0.22921 0.75521 0.35703 0.0
C154 C 0.17604 0.833 0.41804 0.0
C155 C 0.27057 0.93671 0.40995 0.0
C156 C 0.31846 0.85282 0.35785 0.0
C157 C 0.19256 1.0085 0.36111 0.0
C158 C 0.25566 0.95847 0.23838 0.0
C159 C 0.16291 0.85657 0.19921 0.0
C160 C 0.13203 0.94616 0.24449 0.0
O161 O 0.21724 0.76503 0.40231 0.0
O162 O 0.23926 0.77914 0.31331 0.0
O163 O 0.16923 0.84699 0.37286 0.0
O164 O 0.20798 0.83023 0.42241 0.0
Co165 Co 0.26121 0.17273 0.88214 0.0
Co166 Co 0.26758 0.1182 0.82192 0.0
Co167 Co 0.34557 0.19952 0.81027 0.0
O168 O 0.28647 0.17244 0.81301 0.0
H169 H 0.27428 0.17688 0.78032 0.0
O170 O 0.4058 0.22824 0.80705 0.0
Co171 Co 0.43919 0.2168 0.75708 0.0
Co172 Co 0.42609 0.27286 0.7615 0.0
H173 H 0.41725 0.23555 0.84417 0.0
O174 O 0.21455 0.08147 0.80816 0.0
O175 O 0.24203 0.11507 0.88868 0.0
O176 O 0.3058 0.10094 0.83711 0.0
O177 O 0.34873 0.16115 0.87155 0.0
O178 O 0.34156 0.16083 0.74818 0.0
O179 O 0.47197 0.20661 0.71667 0.0
O180 O 0.48124 0.22983 0.80525 0.0
O181 O 0.39778 0.19807 0.69881 0.0
O182 O 0.33698 0.23428 0.74984 0.0
O183 O 0.39274 0.28064 0.70888 0.0
O184 O 0.47031 0.2756 0.72945 0.0
O185 O 0.46459 0.31689 0.79355 0.0
C186 C 0.2075 0.1654 0.90415 0.0
C187 C 0.32941 0.22302 0.92023 0.0
C188 C 0.33115 0.12201 0.87448 0.0
C189 C 0.21116 0.08853 0.86066 0.0
C190 C 0.49433 0.2191 0.7614 0.0
C191 C 0.36272 0.16663 0.70356 0.0
C192 C 0.35487 0.26212 0.71252 0.0
C193 C 0.48646 0.30915 0.75966 0.0
O194 O 0.23383 0.17123 0.94254 0.0
O195 O 0.21523 0.16341 0.8513 0.0
O196 O 0.34778 0.23783 0.87351 0.0
O197 O 0.30716 0.18506 0.92221 0.0
C198 C 0.24577 0.55051 0.37686 0.0
C199 C 0.20738 0.51967 0.36083 0.0
C200 C 0.25574 0.59153 0.37549 0.0
C201 C 0.22629 0.60173 0.35906 0.0
C202 C 0.18743 0.57052 0.34391 0.0
C203 C 0.17864 0.53029 0.34476 0.0
C204 C 0.2977 0.62389 0.39138 0.0
C205 C 0.15472 0.5795 0.32703 0.0
C206 C 0.22347 0.69494 0.40717 0.0
C207 C 0.23248 0.71785 0.3576 0.0
C208 C 0.22429 0.65864 0.40925 0.0
C209 C 0.23433 0.64438 0.36054 0.0
C210 C 0.24559 0.66835 0.31112 0.0
C211 C 0.24452 0.70477 0.31018 0.0
C212 C 0.21202 0.63435 0.4629 0.0
C213 C 0.25691 0.65453 0.25839 0.0
H214 H 0.26817 0.54274 0.38927 0.0
H215 H 0.14871 0.50684 0.33281 0.0
H216 H 0.31068 0.64714 0.35794 0.0
H217 H 0.29668 0.63932 0.43027 0.0
H218 H 0.31804 0.61145 0.39846 0.0
H219 H 0.12629 0.55183 0.31532 0.0
H220 H 0.14835 0.59452 0.3622 0.0
H221 H 0.16477 0.60053 0.2908 0.0
H222 H 0.21478 0.70487 0.44454 0.0
H223 H 0.25222 0.72247 0.27197 0.0
H224 H 0.23398 0.62464 0.47393 0.0
H225 H 0.18241 0.60666 0.45683 0.0
H226 H 0.20959 0.6516 0.49876 0.0
H227 H 0.27876 0.64442 0.26812 0.0
H228 H 0.27013 0.67874 0.22619 0.0
H229 H 0.22976 0.62832 0.24033 0.0
C230 C 0.5604 0.23498 0.80695 0.0
C231 C 0.53472 0.2222 0.76015 0.0
C232 C 0.59763 0.23586 0.80551 0.0
C233 C 0.60948 0.22362 0.7562 0.0
C234 C 0.58463 0.21289 0.70802 0.0
C235 C 0.54779 0.2123 0.7106 0.0
C236 C 0.62339 0.24801 0.85764 0.0
C237 C 0.59577 0.19965 0.6545 0.0
C238 C 0.71371 0.23381 0.73824 0.0
C239 C 0.70596 0.19541 0.75525 0.0
C240 C 0.68313 0.24425 0.7399 0.0
C241 C 0.64369 0.21521 0.75748 0.0
C242 C 0.63581 0.17631 0.77359 0.0
C243 C 0.66681 0.16708 0.77249 0.0
C244 C 0.69303 0.28628 0.72308 0.0
C245 C 0.59432 0.14401 0.7918 0.0
H246 H 0.55106 0.2434 0.84512 0.0
H247 H 0.52872 0.20304 0.67368 0.0
H248 H 0.6223 0.22094 0.8765 0.0
H249 H 0.65522 0.26953 0.84699 0.0
H250 H 0.61314 0.26209 0.88954 0.0
H251 H 0.57577 0.19677 0.61894 0.0
H252 H 0.62726 0.2214 0.64262 0.0
H253 H 0.59367 0.16992 0.66121 0.0
H254 H 0.74367 0.25588 0.72475 0.0
H255 H 0.66013 0.13714 0.78523 0.0
H256 H 0.68329 0.29993 0.75627 0.0
H257 H 0.67638 0.28487 0.68427 0.0
H258 H 0.7257 0.30641 0.71543 0.0
H259 H 0.5841 0.15488 0.82795 0.0
H260 H 0.59334 0.11552 0.80416 0.0
H261 H 0.57255 0.13722 0.75709 0.0
C262 C 0.34477 0.54943 0.30964 0.0
C263 C 0.33094 0.52493 0.35762 0.0
C264 C 0.38125 0.58672 0.31062 0.0
C265 C 0.40449 0.59983 0.36066 0.0
C266 C 0.38945 0.57621 0.40982 0.0
C267 C 0.35312 0.53932 0.40769 0.0
C268 C 0.39588 0.61119 0.2574 0.0
C269 C 0.41293 0.58865 0.46414 0.0
C270 C 0.51833 0.65678 0.34827 0.0
C271 C 0.52906 0.69651 0.36311 0.0
C272 C 0.47815 0.62567 0.34671 0.0
C273 C 0.44712 0.63407 0.35978 0.0
C274 C 0.45746 0.67409 0.37505 0.0
C275 C 0.49839 0.70476 0.37728 0.0
C276 C 0.46901 0.58354 0.33128 0.0
C277 C 0.42534 0.68452 0.3887 0.0
H278 H 0.32765 0.53907 0.271 0.0
H279 H 0.34262 0.52122 0.4455 0.0
H280 H 0.40617 0.64343 0.26607 0.0
H281 H 0.422 0.60953 0.24076 0.0
H282 H 0.37219 0.60009 0.22451 0.0
H283 H 0.39519 0.56951 0.50004 0.0
H284 H 0.4404 0.58621 0.45964 0.0
H285 H 0.42273 0.62059 0.47412 0.0
H286 H 0.54162 0.64974 0.33776 0.0
H287 H 0.50624 0.73519 0.38886 0.0
H288 H 0.44866 0.57245 0.29439 0.0
H289 H 0.45333 0.56255 0.36657 0.0
H290 H 0.49655 0.58217 0.32123 0.0
H291 H 0.40279 0.67432 0.35437 0.0
H292 H 0.43795 0.71748 0.39514 0.0
H293 H 0.40919 0.66847 0.42736 0.0
C294 C 0.80684 0.33254 0.80703 0.0
C295 C 0.82142 0.32063 0.76114 0.0
C296 C 0.80581 0.36903 0.80574 0.0
C297 C 0.81989 0.39434 0.75764 0.0
C298 C 0.83256 0.38126 0.71029 0.0
C299 C 0.83312 0.34484 0.71261 0.0
C300 C 0.79139 0.38142 0.85682 0.0
C301 C 0.84796 0.40697 0.6581 0.0
C302 C 0.81138 0.48964 0.73665 0.0
C303 C 0.84926 0.5199 0.75549 0.0
C304 C 0.80036 0.44831 0.73914 0.0
C305 C 0.82823 0.43713 0.75972 0.0
C306 C 0.86639 0.46767 0.7785 0.0
C307 C 0.87625 0.50822 0.77627 0.0
C308 C 0.75911 0.41675 0.71934 0.0
C309 C 0.89744 0.45768 0.80017 0.0
H310 H 0.79701 0.31385 0.84434 0.0
H311 H 0.8439 0.33592 0.67635 0.0
H312 H 0.81742 0.40687 0.87816 0.0
H313 H 0.77044 0.39215 0.84441 0.0
H314 H 0.77601 0.35624 0.88725 0.0
H315 H 0.85255 0.39071 0.62279 0.0
H316 H 0.82668 0.41694 0.6444 0.0
H317 H 0.87709 0.43449 0.66748 0.0
H318 H 0.79024 0.49812 0.72063 0.0
H319 H 0.90575 0.53102 0.79073 0.0
H320 H 0.74497 0.3916 0.74998 0.0
H321 H 0.76176 0.40377 0.67898 0.0
H322 H 0.73894 0.42947 0.71297 0.0
H323 H 0.88479 0.43572 0.83518 0.0
H324 H 0.92514 0.48481 0.81533 0.0
H325 H 0.90592 0.44341 0.76631 0.0
C326 C 0.34239 0.80265 0.37792 0.0
C327 C 0.35039 0.84142 0.36245 0.0
C328 C 0.37299 0.79221 0.37609 0.0
C329 C 0.41267 0.82154 0.35975 0.0
C330 C 0.42078 0.8608 0.34523 0.0
C331 C 0.38979 0.87006 0.34657 0.0
C332 C 0.36285 0.74985 0.39136 0.0
C333 C 0.46249 0.89342 0.32845 0.0
C334 C 0.50796 0.82314 0.40697 0.0
C335 C 0.52158 0.81415 0.35713 0.0
C336 C 0.47117 0.82267 0.40939 0.0
C337 C 0.44687 0.81302 0.36076 0.0
C338 C 0.45926 0.80173 0.31105 0.0
C339 C 0.49644 0.80244 0.30978 0.0
C340 C 0.45951 0.83493 0.46335 0.0
C341 C 0.43413 0.79079 0.25838 0.0
H342 H 0.31221 0.78031 0.39022 0.0
H343 H 0.39666 0.90027 0.33504 0.0
H344 H 0.37283 0.7368 0.35766 0.0
H345 H 0.37915 0.75049 0.43017 0.0
H346 H 0.33011 0.72965 0.39834 0.0
H347 H 0.46365 0.92218 0.3172 0.0
H348 H 0.48383 0.89946 0.36349 0.0
H349 H 0.47313 0.8833 0.29194 0.0
H350 H 0.52657 0.83157 0.44431 0.0
H351 H 0.50621 0.79478 0.27134 0.0
H352 H 0.42786 0.81305 0.47431 0.0
H353 H 0.46183 0.86484 0.45776 0.0
H354 H 0.47908 0.83699 0.49907 0.0
H355 H 0.40218 0.76903 0.26807 0.0
H356 H 0.44477 0.77744 0.2259 0.0
H357 H 0.43544 0.81827 0.24071 0.0
C358 C 0.56017 0.33322 0.73917 0.0
C359 C 0.52955 0.34127 0.75447 0.0
C360 C 0.60107 0.36409 0.74057 0.0
C361 C 0.61136 0.40401 0.75642 0.0
C362 C 0.58036 0.41215 0.77076 0.0
C363 C 0.54026 0.38093 0.76972 0.0
C364 C 0.63319 0.35399 0.72539 0.0
C365 C 0.58945 0.45411 0.78718 0.0
C366 C 0.71357 0.48864 0.80653 0.0
C367 C 0.72675 0.51389 0.75924 0.0
C368 C 0.67743 0.45107 0.80514 0.0
C369 C 0.6539 0.43841 0.75534 0.0
C370 C 0.66838 0.46276 0.70672 0.0
C371 C 0.70436 0.49999 0.70929 0.0
C372 C 0.66337 0.42591 0.85782 0.0
C373 C 0.64461 0.45073 0.65266 0.0
H374 H 0.55234 0.30281 0.72741 0.0
H375 H 0.517 0.38782 0.78108 0.0
H376 H 0.64872 0.37023 0.68649 0.0
H377 H 0.65623 0.36425 0.75905 0.0
H378 H 0.62069 0.32108 0.71862 0.0
H379 H 0.56194 0.45523 0.79835 0.0
H380 H 0.61021 0.46504 0.82365 0.0
H381 H 0.60464 0.47537 0.75199 0.0
H382 H 0.73088 0.49864 0.84504 0.0
H383 H 0.71443 0.51869 0.672 0.0
H384 H 0.65313 0.39381 0.84818 0.0
H385 H 0.63735 0.42724 0.87557 0.0
H386 H 0.68737 0.43669 0.89024 0.0
H387 H 0.63485 0.4189 0.64197 0.0
H388 H 0.66213 0.47024 0.6169 0.0
H389 H 0.61711 0.45304 0.65794 0.0
C390 C 0.09381 0.12083 0.30181 0.0
C391 C 0.1059 0.15873 0.32427 0.0
C392 C 0.10419 0.09487 0.32885 0.0
C393 C 0.12543 0.10659 0.38067 0.0
C394 C 0.13289 0.14271 0.40684 0.0
C395 C 0.12482 0.1693 0.37695 0.0
C396 C 0.09774 0.05792 0.29774 0.0
C397 C 0.15302 0.15502 0.46357 0.0
C398 C 0.14848 0.02532 0.41776 0.0
C399 C 0.1827 0.03794 0.38448 0.0
C400 C 0.13199 0.05041 0.42504 0.0
C401 C 0.14969 0.08795 0.39674 0.0
C402 C 0.18779 0.10316 0.371 0.0
C403 C 0.20411 0.07795 0.36585 0.0
C404 C 0.09364 0.03491 0.45783 0.0
C405 C 0.20883 0.1438 0.34205 0.0
H406 H 0.08072 0.11354 0.26007 0.0
H407 H 0.13609 0.19955 0.39311 0.0
H408 H 0.126 0.0645 0.27619 0.0
H409 H 0.09003 0.03318 0.32769 0.0
H410 H 0.07361 0.04804 0.26572 0.0
H411 H 0.15533 0.18356 0.4789 0.0
H412 H 0.13569 0.13083 0.49457 0.0
H413 H 0.18363 0.15895 0.46174 0.0
H414 H 0.13286 0.99485 0.43435 0.0
H415 H 0.23164 0.08842 0.34215 0.0
H416 H 0.06829 0.02619 0.42841 0.0
H417 H 0.09558 0.05879 0.48619 0.0
H418 H 0.08712 1.00803 0.48345 0.0
H419 H 0.19116 0.14321 0.30477 0.0
H420 H 0.23955 0.15208 0.32782 0.0
H421 H 0.21128 0.16785 0.37054 0.0
C422 C 0.99588 0.14087 0.96252 0.0
C423 C 0.97255 0.11278 0.92102 0.0
C424 C 0.03239 0.14464 0.97951 0.0
C425 C 0.04508 0.11956 0.95433 0.0
C426 C 1.01815 0.0864 0.92092 0.0
C427 C 0.98208 0.08377 0.90338 0.0
C428 C 0.0599 0.17946 1.01688 0.0
C429 C 1.03073 0.05799 0.89689 0.0
C430 C 0.1462 0.16848 0.88489 0.0
C431 C 0.16776 0.15753 0.92083 0.0
C432 C 0.10688 0.15831 0.89765 0.0
C433 C 0.0884 0.1352 0.94654 0.0
C434 C 0.11039 0.12467 0.98366 0.0
C435 C 0.15049 0.13708 0.97103 0.0
C436 C 0.08461 0.17072 0.85717 0.0
C437 C 0.09171 0.09972 1.03573 0.0
H438 H 0.98764 0.16256 0.97749 0.0
H439 H 0.96395 0.06221 0.87146 0.0
H440 H 0.07849 0.17154 1.04381 0.0
H441 H 0.08051 0.20551 0.99031 0.0
H442 H 0.04263 0.18895 1.04407 0.0
H443 H 0.05284 0.07339 0.86281 0.0
H444 H 0.04616 0.04988 0.92933 0.0
H445 H 1.00484 0.03018 0.87996 0.0
H446 H 0.16004 0.18476 0.8465 0.0
H447 H 0.16764 0.12902 0.99901 0.0
H448 H 0.06994 0.18516 0.88005 0.0
H449 H 0.06078 0.14365 0.83536 0.0
H450 H 0.1048 0.19217 0.82479 0.0
H451 H 0.09265 0.11976 1.07008 0.0
H452 H 0.10838 0.08454 1.05009 0.0
H453 H 0.05982 0.07642 1.0287 0.0
C454 C 0.03115 0.1367 0.43083 0.0
C455 C 1.01585 0.16049 0.4097 0.0
C456 C 1.00822 0.09458 0.42678 0.0
C457 C 0.96856 0.07699 0.40643 0.0
C458 C 0.95006 0.10088 0.40144 0.0
C459 C 0.97446 0.14276 0.40031 0.0
C460 C 1.02791 0.06973 0.43677 0.0
C461 C 0.90595 0.08259 0.38788 0.0
C462 C 0.91512 1.00931 0.28804 0.0
C463 C 0.88657 0.97593 0.31782 0.0
C464 C 0.94846 0.03985 0.31622 0.0
C465 C 0.95012 0.03822 0.37576 0.0
C466 C 0.92492 1.00167 0.40396 0.0
C467 C 0.89467 0.96983 0.37331 0.0
C468 C 0.97762 0.07692 0.28373 0.0
C469 C 0.92583 0.99716 0.46688 0.0
H470 H 0.06239 0.15067 0.44295 0.0
H471 H 0.96178 0.1609 0.38599 0.0
H472 H 1.00901 0.04362 0.46412 0.0
H473 H 0.0315 0.05779 0.39603 0.0
H474 H 0.05768 0.08781 0.457 0.0
H475 H 0.90165 0.07952 0.34169 0.0
H476 H 0.88811 0.05221 0.40705 0.0
H477 H 0.89424 0.10221 0.40314 0.0
H478 H 0.90919 1.01387 0.24493 0.0
H479 H 0.87286 0.94295 0.39552 0.0
H480 H 1.00783 0.09174 0.30351 0.0
H481 H 0.96668 0.09884 0.28299 0.0
H482 H 0.98021 0.06921 0.23954 0.0
H483 H 0.94316 0.98178 0.47656 0.0
H484 H 0.89499 0.9779 0.48373 0.0
H485 H 0.93988 0.02643 0.48947 0.0
C486 C 0.88762 0.98435 0.7395 0.0
C487 C 0.91117 0.02615 0.74526 0.0
C488 C 0.90531 0.96031 0.74353 0.0
C489 C 0.94665 0.97884 0.75751 0.0
C490 C 0.97141 1.02105 0.75147 0.0
C491 C 0.95313 0.04453 0.7447 0.0
C492 C 0.87865 0.91499 0.74111 0.0
C493 C 1.01649 0.04178 0.75494 0.0
C494 C 0.934 0.90625 0.86876 0.0
C495 C 0.94321 0.88154 0.83691 0.0
C496 C 0.94206 0.94355 0.8472 0.0
C497 C 0.95923 0.9552 0.79257 0.0
C498 C 0.97612 0.93397 0.7666 0.0
C499 C 0.9685 0.89736 0.79011 0.0
C500 C 0.92459 0.96558 0.87844 0.0
C501 C 0.99633 0.94618 0.70997 0.0
H502 H 0.85515 0.97024 0.73737 0.0
H503 H 0.97146 0.07717 0.74598 0.0
H504 H 0.89538 0.90028 0.72527 0.0
H505 H 0.86735 0.90328 0.78385 0.0
H506 H 0.85218 0.90633 0.71358 0.0
H507 H 1.02975 0.0738 0.76819 0.0
H508 H 1.02645 0.02602 0.78394 0.0
H509 H 1.02848 0.04161 0.71263 0.0
H510 H 0.91515 0.89409 0.90566 0.0
H511 H 0.97653 0.87808 0.76667 0.0
H512 H 0.89131 0.94661 0.87936 0.0
H513 H 0.93252 0.99492 0.85929 0.0
H514 H 0.9352 0.9706 0.92267 0.0
H515 H 1.00436 0.92399 0.69328 0.0
H516 H 1.0243 0.97577 0.71357 0.0
H517 H 0.97647 0.94946 0.6791 0.0
C518 C 0.91806 0.87352 0.24968 0.0
C519 C 0.90173 0.89829 0.2402 0.0
C520 C 0.959 0.8885 0.2406 0.0
C521 C 0.98362 0.92966 0.22546 0.0
C522 C 0.96664 0.95417 0.21417 0.0
C523 C 0.92531 0.93745 0.21975 0.0
C524 C 0.9761 0.86085 0.24915 0.0
C525 C 0.99187 0.99846 0.20006 0.0
C526 C 0.08585 0.96474 0.28392 0.0
C527 C 0.10528 0.96181 0.23628 0.0
C528 C 0.04663 0.95762 0.28007 0.0
C529 C 1.02729 0.94754 0.22726 0.0
C530 C 0.04844 0.94874 0.17814 0.0
C531 C 0.08784 0.95649 0.18326 0.0
C532 C 1.02468 0.95717 0.33306 0.0
C533 C 1.02795 0.93643 0.12172 0.0
H534 H 0.89886 0.84266 0.26354 0.0
H535 H 0.91146 0.95535 0.20973 0.0
H536 H 0.99657 0.86415 0.2141 0.0
H537 H 0.99393 0.86908 0.28852 0.0
H538 H 0.95214 0.82866 0.25201 0.0
H539 H 1.00262 1.01575 0.23982 0.0
H540 H 1.01863 1.005 0.17466 0.0
H541 H 0.97411 1.00958 0.17713 0.0
H542 H 0.0995 0.96802 0.32488 0.0
H543 H 0.10299 0.95315 0.14693 0.0
H544 H 0.99911 0.92644 0.34102 0.0
H545 H 1.01215 0.97765 0.32812 0.0
H546 H 0.04455 0.96654 0.37051 0.0
H547 H 1.00693 0.90332 0.12135 0.0
H548 H 0.04984 0.94388 0.08702 0.0
H549 H 1.01 0.95134 0.1139 0.0
C550 C 0.17057 0.06049 0.94709 0.0
C551 C 0.17244 0.06598 0.88876 0.0
C552 C 0.13538 0.0302 0.97187 0.0
C553 C 0.10273 1.00515 0.93676 0.0
C554 C 0.10231 1.01583 0.87991 0.0
C555 C 0.13754 0.04648 0.85648 0.0
C556 C 0.13514 1.02133 1.03359 0.0
C557 C 0.06734 0.99043 0.84138 0.0
C558 C 0.0634 0.89648 0.91753 0.0
C559 C 1.02279 0.88268 0.92521 0.0
C560 C 0.0915 0.93604 0.93185 0.0
C561 C 0.07767 0.96229 0.95072 0.0
C562 C 0.03682 0.9467 0.96458 0.0
C563 C 1.0097 0.90638 0.95247 0.0
C564 C 0.13529 0.95084 0.91963 0.0
C565 C 1.02063 0.97293 0.98572 0.0
H566 H 0.19735 0.07721 0.97255 0.0
H567 H 0.13874 0.05253 0.81182 0.0
H568 H 0.10526 1.01199 1.05214 0.0
H569 H 0.14123 0.99608 1.03936 0.0
H570 H 0.15848 0.04802 1.05679 0.0
H571 H 0.07152 1.00418 0.79915 0.0
H572 H 0.06408 0.96012 0.83574 0.0
H573 H 0.039 0.98613 0.85991 0.0
H574 H 0.07296 0.8768 0.89871 0.0
H575 H 0.97791 0.89428 0.96045 0.0
H576 H 0.15419 0.96877 0.95541 0.0
H577 H 0.14482 0.97052 0.88194 0.0
H578 H 0.14108 0.92553 0.91178 0.0
H579 H 0.9966 0.9564 1.01717 0.0
H580 H 1.00635 0.97986 0.9503 0.0
H581 H 0.0444 1.00155 1.00444 0.0
C582 C 0.26187 0.3259 0.17124 0.0
C583 C 0.22114 0.31289 0.16037 0.0
C584 C 0.28582 0.31869 0.13221 0.0
C585 C 0.26881 0.2972 0.08123 0.0
C586 C 0.22834 0.28583 1.06913 0.0
C587 C 0.20562 0.29428 0.10786 0.0
C588 C 0.32894 0.3324 0.1469 0.0
C589 C 0.20782 0.26204 1.01675 0.0
C590 C 0.32616 0.28539 0.95473 0.0
C591 C 0.3216 0.24699 0.9644 0.0
C592 C 0.31154 0.30336 0.9938 0.0
C593 C 0.29101 0.28237 1.04349 0.0
C594 C 0.28804 0.24448 1.05427 0.0
C595 C 0.30382 0.22792 1.01565 0.0
C596 C 0.3167 0.34424 0.98071 0.0
C597 C 0.26575 0.21987 0.1051 0.0
H598 H 0.27456 0.33993 0.21132 0.0
H599 H 0.17442 0.28408 0.09799 0.0
H600 H 0.33174 0.30592 0.15913 0.0
H601 H 0.34866 0.34657 0.10997 0.0
H602 H 0.33984 0.35427 0.18229 0.0
H603 H 0.17697 0.25723 1.01161 0.0
H604 H 0.22563 0.27776 0.97897 0.0
H605 H 0.20581 0.23206 1.01855 0.0
H606 H 0.33968 0.30074 0.91572 0.0
H607 H 0.30019 0.19845 1.02443 0.0
H608 H 0.32713 0.36385 1.01852 0.0
H609 H 0.28733 0.34082 0.96815 0.0
H610 H 0.33848 0.35951 0.94607 0.0
H611 H 0.27764 0.23812 0.14388 0.0
H612 H 0.26794 0.1921 0.10946 0.0
H613 H 0.2335 0.21087 0.10176 0.0
C614 C 0.91417 0.25325 0.61369 0.0
C615 C 0.91538 0.22908 0.65746 0.0
C616 C 0.94563 0.2718 0.57344 0.0
C617 C 0.9795 0.26605 0.57579 0.0
C618 C 0.98036 0.24091 0.61904 0.0
C619 C 0.94886 0.22322 0.65913 0.0
C620 C 0.94267 0.29779 0.52822 0.0
C621 C 1.01479 0.23261 0.62304 0.0
C622 C 0.04654 0.28627 0.44392 0.0
C623 C 0.08006 0.32436 0.45494 0.0
C624 C 1.01363 0.26742 0.48189 0.0
C625 C 1.01403 0.28638 0.53354 0.0
C626 C 0.04791 0.32491 0.54486 0.0
C627 C 0.07997 0.34335 0.50569 0.0
C628 C 0.97846 0.227 0.46621 0.0
C629 C 0.05024 0.34701 0.59848 0.0
H630 H 0.8889 0.25841 0.61143 0.0
H631 H 0.95055 0.20459 0.69208 0.0
H632 H 0.96898 0.32877 0.5306 0.0
H633 H 0.9433 0.28545 0.48627 0.0
H634 H 0.91477 0.29962 0.53172 0.0
H635 H 1.01118 0.21218 0.65848 0.0
H636 H 1.01711 0.21866 0.58337 0.0
H637 H 0.04351 0.26138 0.62858 0.0
H638 H 0.04536 0.2718 0.40444 0.0
H639 H 0.10531 0.37291 0.51506 0.0
H640 H 0.97583 0.22331 0.41992 0.0
H641 H 0.94965 0.22289 0.48265 0.0
H642 H 0.98309 0.20291 0.48435 0.0
H643 H 1.02399 0.35166 0.60143 0.0
H644 H 0.07818 0.37685 0.60122 0.0
H645 H 0.04899 0.32856 0.63519 0.0
C646 C 0.72163 0.91628 0.12667 0.0
C647 C 0.71649 0.93096 0.17837 0.0
C648 C 0.73117 0.93973 0.07668 0.0
C649 C 0.73561 0.97906 0.07754 0.0
C650 C 0.72746 0.99258 0.12879 0.0
C651 C 0.71838 0.96876 0.17802 0.0
C652 C 0.73954 0.92354 1.02377 0.0
C653 C 0.73153 0.03385 0.13294 0.0
C654 C 0.81336 0.05866 0.97677 0.0
C655 C 0.78991 0.06161 0.93352 0.0
C656 C 0.79613 0.03287 1.02351 0.0
C657 C 0.75378 1.00792 1.02779 0.0
C658 C 0.72966 1.01106 0.98467 0.0
C659 C 0.74789 0.03768 0.93822 0.0
C660 C 0.82367 0.03159 1.06774 0.0
C661 C 0.68454 0.98526 0.98668 0.0
H662 H 0.72157 0.8879 0.12609 0.0
H663 H 0.7154 0.98109 0.21757 0.0
H664 H 0.72411 0.928 0.98739 0.0
H665 H 0.77229 0.94041 1.01498 0.0
H666 H 0.72976 0.89093 1.02728 0.0
H667 H 0.71906 0.03792 0.1729 0.0
H668 H 0.76379 0.05729 0.13061 0.0
H669 H 0.716 0.039 0.09733 0.0
H670 H 0.84582 0.07584 0.97315 0.0
H671 H 0.72932 0.03847 0.90453 0.0
H672 H 0.82009 1.00096 1.06931 0.0
H673 H 0.81554 0.03789 0.10973 0.0
H674 H 0.8558 0.05381 1.05961 0.0
H675 H 0.67587 0.95292 0.98396 0.0
H676 H 0.66971 0.99228 0.95191 0.0
H677 H 0.67305 0.98959 1.02728 0.0
C678 C 0.81007 0.6828 0.60523 0.0
C679 C 0.8268 0.70405 0.65564 0.0
C680 C 0.79326 0.69699 0.56385 0.0
C681 C 0.79237 0.73344 0.5722 0.0
C682 C 0.80979 0.75535 0.62258 0.0
C683 C 0.82667 0.74065 0.66302 0.0
C684 C 0.77563 0.67234 0.51128 0.0
C685 C 0.80961 0.794 0.63471 0.0
C686 C 0.7707 0.78532 0.44627 0.0
C687 C 0.72902 0.77056 0.4508 0.0
C688 C 0.79162 0.77376 0.48494 0.0
C689 C 0.77095 0.74703 0.53038 0.0
C690 C 0.72914 0.73284 0.53563 0.0
C691 C 0.70899 0.74438 0.49622 0.0
C692 C 0.83597 0.78982 0.47667 0.0
C693 C 0.70532 0.70508 0.5832 0.0
H694 H 0.80965 0.65461 0.5982 0.0
H695 H 0.83914 0.75772 0.70137 0.0
H696 H 0.74277 0.66075 0.51003 0.0
H697 H 0.78888 0.69157 0.47362 0.0
H698 H 0.78084 0.64629 0.50876 0.0
H699 H 0.82626 0.80893 0.67379 0.0
H700 H 0.82323 0.81541 0.59925 0.0
H701 H 0.77816 0.7875 0.63905 0.0
H702 H 0.78695 0.80543 0.41186 0.0
H703 H 0.67702 0.73269 0.50131 0.0
H704 H 0.84167 0.76433 0.47067 0.0
H705 H 0.85277 0.80649 0.51469 0.0
H706 H 0.84801 0.8103 0.43986 0.0
H707 H 0.70638 0.67665 0.58051 0.0
H708 H 0.67335 0.69744 0.5828 0.0
H709 H 0.71883 0.71942 0.62405 0.0
C710 C 0.96109 0.75104 1.01524 0.0
C711 C 0.96126 0.73154 0.96497 0.0
C712 C 0.99343 0.76637 1.05401 0.0
C713 C 1.02702 0.76108 1.04445 0.0
C714 C 1.02618 0.73892 0.99578 0.0
C715 C 0.99378 0.72483 0.95664 0.0
C716 C 0.99257 0.7905 0.10368 0.0
C717 C 0.0604 0.73135 0.98384 0.0
C718 C 0.1283 0.84349 0.1048 0.0
C719 C 0.13156 0.82789 0.15719 0.0
C720 C 0.09535 0.82197 1.06807 0.0
C721 C 0.06437 0.78248 0.08192 0.0
C722 C 0.06835 0.76533 0.1331 0.0
C723 C 0.1014 0.7882 0.17022 0.0
C724 C 0.09273 0.84272 1.01554 0.0
C725 C 0.03686 0.72318 0.14968 0.0
H726 H 0.93621 0.75619 1.02316 0.0
H727 H 0.9947 0.70981 0.91855 0.0
H728 H 0.99856 0.77901 0.14312 0.0
H729 H 1.01664 0.82248 0.09905 0.0
H730 H 0.96331 0.78961 0.10774 0.0
H731 H 0.05309 0.70911 0.94942 0.0
H732 H 0.08744 0.76008 0.97159 0.0
H733 H 0.06818 0.72015 1.02212 0.0
H734 H 0.15094 0.87389 0.09316 0.0
H735 H 0.10274 0.77546 0.21023 0.0
H736 H 0.0658 0.8463 1.01774 0.0
H737 H 0.08924 0.82405 0.97802 0.0
H738 H 0.11962 0.87303 1.00959 0.0
H739 H 1.00867 0.7228 0.16102 0.0
H740 H 0.04653 0.71192 0.18609 0.0
H741 H 1.02992 0.70213 0.11384 0.0
C742 C 0.3107 0.09745 0.66478 0.0
C743 C 0.34699 0.13428 0.65789 0.0
C744 C 0.29681 0.0659 0.62435 0.0
C745 C 0.31936 0.07052 0.57482 0.0
C746 C 0.35539 0.108 0.56681 0.0
C747 C 0.36879 0.139 0.60809 0.0
C748 C 0.25787 0.02728 0.63481 0.0
C749 C 0.37989 0.11544 0.51415 0.0
C750 C 0.30817 0.97638 0.4972 0.0
C751 C 0.28178 0.97065 0.45235 0.0
C752 C 0.31998 1.00802 0.53695 0.0
C753 C 0.30593 0.03596 0.53237 0.0
C754 C 0.27922 0.03041 0.48721 0.0
C755 C 0.26733 0.99791 0.44857 0.0
C756 C 0.34763 1.01142 0.58433 0.0
C757 C 0.26255 0.05833 0.47872 0.0
H758 H 0.29313 0.09286 0.70252 0.0
H759 H 0.39666 0.16697 0.60137 0.0
H760 H 0.23652 1.02197 0.60002 0.0
H761 H 0.26332 1.00137 0.6355 0.0
H762 H 0.24362 0.02794 0.67509 0.0
H763 H 0.40632 0.14643 0.51268 0.0
H764 H 0.39061 0.09338 0.51138 0.0
H765 H 0.36077 0.11082 0.47675 0.0
H766 H 0.31966 0.95576 0.50168 0.0
H767 H 0.24708 0.99423 0.41472 0.0
H768 H 0.33326 1.01021 0.62526 0.0
H769 H 0.37588 0.04095 0.58214 0.0
H770 H 0.3553 0.98699 0.58326 0.0
H771 H 0.27755 0.08605 0.50475 0.0
H772 H 0.23001 0.04188 0.48902 0.0
H773 H 0.26547 0.0674 0.43393 0.0
C774 C 0.7707 0.71864 0.92562 0.0
C775 C 0.80539 0.71492 0.92877 0.0
C776 C 0.75635 0.73093 0.97222 0.0
C777 C 0.77753 0.7412 1.02407 0.0
C778 C 0.8114 0.73551 1.02851 0.0
C779 C 0.82449 0.72206 0.98146 0.0
C780 C 0.71976 0.7354 0.96462 0.0
C781 C 0.83578 0.74653 0.08189 0.0
C782 C 0.77312 0.82384 0.11223 0.0
C783 C 0.74699 0.80248 0.157 0.0
C784 C 0.78348 0.80449 1.07008 0.0
C785 C 0.76692 0.76194 0.0707 0.0
C786 C 0.73977 0.73987 0.11497 0.0
C787 C 0.73037 0.76023 0.15744 0.0
C788 C 0.8127 0.82998 1.02481 0.0
C789 C 0.72062 0.69458 0.11753 0.0
H790 H 0.7558 0.71397 0.88536 0.0
H791 H 0.85159 0.72017 0.98504 0.0
H792 H 0.69888 0.72176 1.00057 0.0
H793 H 0.72904 0.76792 0.96338 0.0
H794 H 0.70336 0.72105 0.92517 0.0
H795 H 0.85857 0.73673 0.08123 0.0
H796 H 0.85155 0.77978 0.0877 0.0
H797 H 0.81587 0.73276 0.11872 0.0
H798 H 0.78621 0.85633 0.1103 0.0
H799 H 0.71025 0.74299 0.19129 0.0
H800 H 0.7979 0.82115 0.98312 0.0
H801 H 0.83864 0.82475 1.02396 0.0
H802 H 0.8242 0.86276 1.03106 0.0
H803 H 0.70378 0.68098 0.07814 0.0
H804 H 0.69973 0.68145 0.15363 0.0
H805 H 0.74423 0.68605 0.12103 0.0
C806 C 0.14877 0.79956 0.5142 0.0
C807 C 0.14432 0.81711 0.46459 0.0
C808 C 0.11816 0.78277 0.55604 0.0
C809 C 0.08138 0.78294 0.54908 0.0
C810 C 0.07702 0.80124 0.49958 0.0
C811 C 0.10812 0.81794 0.4586 0.0
C812 C 0.12496 0.76403 0.60755 0.0
C813 C 0.03883 0.80232 0.48901 0.0
C814 C 0.98572 0.70018 0.62337 0.0
C815 C 0.98038 0.72021 0.66963 0.0
C816 C 1.01781 0.72005 0.58461 0.0
C817 C 0.0466 0.76163 0.59118 0.0
C818 C 0.04153 0.78228 0.63762 0.0
C819 C 1.00872 0.76161 0.67578 0.0
C820 C 1.02076 0.69621 0.53612 0.0
C821 C 0.07101 0.82641 0.64722 0.0
H822 H 0.17616 0.79838 0.52018 0.0
H823 H 0.10361 0.83116 0.42105 0.0
H824 H 0.11995 0.77733 0.646 0.0
H825 H 0.10298 0.73118 0.60828 0.0
H826 H 0.15578 0.76833 0.60903 0.0
H827 H 0.04052 0.8193 0.4503 0.0
H828 H 1.0132 0.77106 0.48491 0.0
H829 H 0.03227 0.81644 0.52513 0.0
H830 H 0.96443 0.66842 0.617 0.0
H831 H 1.00554 0.77791 0.7108 0.0
H832 H 0.04987 0.6967 0.53787 0.0
H833 H 1.0199 0.71028 0.49579 0.0
H834 H 0.99605 0.66427 0.53617 0.0
H835 H 0.10177 0.83102 0.65217 0.0
H836 H 0.06355 0.83838 0.68505 0.0
H837 H 0.0715 0.84423 0.61017 0.0
C838 C 0.3606 0.10479 0.9614 0.0
C839 C 0.32769 0.09983 0.92915 0.0
C840 C 0.35502 0.08073 1.01024 0.0
C841 C 0.31557 0.05212 1.02932 0.0
C842 C 0.28254 0.04784 0.99728 0.0
C843 C 0.28902 0.07052 0.94764 0.0
C844 C 0.39142 0.08545 1.04101 0.0
C845 C 0.23983 1.01966 1.01584 0.0
C846 C 0.28342 0.96477 0.13744 0.0
C847 C 0.27964 0.98241 0.18728 0.0
C848 C 0.29801 0.98766 0.08679 0.0
C849 C 0.30799 0.02903 0.08472 0.0
C850 C 0.30571 0.04709 0.1355 0.0
C851 C 0.29273 0.02419 0.18546 0.0
C852 C 0.30093 0.96682 1.03479 0.0
C853 C 0.31367 0.09 0.13642 0.0
H854 H 0.39067 0.12651 0.94762 0.0
H855 H 0.2631 0.06539 0.92331 0.0
H856 H 0.39328 0.09851 0.08322 0.0
H857 H 0.38877 0.05542 1.0472 0.0
H858 H 0.41976 0.1053 1.01809 0.0
H859 H 0.21764 0.02263 0.98946 0.0
H860 H 0.2332 0.98795 1.01352 0.0
H861 H 0.23565 0.02587 1.06011 0.0
H862 H 0.27332 0.93275 0.13715 0.0
H863 H 0.29049 0.03891 0.22309 0.0
H864 H 0.32746 0.98758 1.00922 0.0
H865 H 0.27368 0.95703 1.00867 0.0
H866 H 0.30303 0.93964 1.04545 0.0
H867 H 0.31248 0.10047 0.17952 0.0
H868 H 0.29086 0.09214 0.11025 0.0
H869 H 0.34353 0.11089 0.1182 0.0
C870 C 0.35181 0.29977 0.62625 0.0
C871 C 0.3317 0.27379 0.67178 0.0
C872 C 0.33189 0.31198 0.58751 0.0
C873 C 0.29031 0.2986 0.59362 0.0
C874 C 0.26963 0.27228 0.63936 0.0
C875 C 0.29032 0.26011 0.6774 0.0
C876 C 0.35559 0.33926 0.53947 0.0
C877 C 0.22549 0.25704 0.64831 0.0
C878 C 0.25104 0.362 0.51712 0.0
C879 C 0.23385 0.33981 0.46757 0.0
C880 C 0.26823 0.34848 0.55885 0.0
C881 C 0.26889 0.31182 0.55158 0.0
C882 C 0.25107 0.28907 0.50204 0.0
C883 C 0.23379 0.30303 0.46139 0.0
C884 C 0.28643 0.37398 0.61058 0.0
C885 C 0.25098 0.25012 0.49118 0.0
H886 H 0.38357 0.31064 0.62042 0.0
H887 H 0.27406 0.24015 0.71194 0.0
H888 H 0.34199 0.32445 0.49889 0.0
H889 H 0.35451 0.3677 0.5414 0.0
H890 H 0.38757 0.34692 0.53992 0.0
H891 H 0.21373 0.23781 0.68635 0.0
H892 H 0.22017 0.28291 0.65245 0.0
H893 H 0.20813 0.23921 0.6113 0.0
H894 H 0.25154 0.39034 0.52313 0.0
H895 H 0.2207 0.28512 0.42386 0.0
H896 H 0.31924 0.38527 0.61154 0.0
H897 H 0.27332 0.35544 0.64886 0.0
H898 H 0.28155 0.40026 0.61215 0.0
H899 H 0.23691 0.2363 0.45026 0.0
H900 H 0.2344 0.22816 0.5251 0.0
H901 H 0.28222 0.25563 0.4915 0.0
C902 C 0.03226 0.29836 0.19299 0.0
C903 C 0.07077 0.30293 0.18763 0.0
C904 C 1.00589 0.2884 0.14653 0.0
C905 C 1.01709 0.2808 0.093 0.0
C906 C 0.05691 0.28757 0.08667 0.0
C907 C 0.08323 0.29896 0.13366 0.0
C908 C 0.96483 0.28348 0.15583 0.0
C909 C 0.07136 0.28093 1.03093 0.0
C910 C 0.92969 0.19461 1.01286 0.0
C911 C 0.92288 0.21332 0.96615 0.0
C912 C 0.96051 0.21597 1.05226 0.0
C913 C 0.98501 0.25843 1.04823 0.0
C914 C 0.97789 0.27822 1.0025 0.0
C915 C 0.94755 0.25551 0.96158 0.0
C916 C 0.96684 0.19241 0.09825 0.0
C917 C 1.00262 0.32339 0.99651 0.0
H918 H 1.02191 0.3007 0.23442 0.0
H919 H 0.11262 0.30188 0.12879 0.0
H920 H 0.95618 0.29607 0.11991 0.0
H921 H 0.94221 0.25093 0.15908 0.0
H922 H 0.96367 0.29861 0.19505 0.0
H923 H 0.09818 0.27732 1.03577 0.0
H924 H 0.04748 0.25399 1.00896 0.0
H925 H 0.07983 0.30752 1.00371 0.0
H926 H 0.91146 0.16222 1.01829 0.0
H927 H 0.94341 0.27076 0.92605 0.0
H928 H 0.95455 0.19647 0.13828 0.0
H929 H 0.99928 0.20337 0.10479 0.0
H930 H 0.9516 0.15957 0.08881 0.0
H931 H 1.00419 0.33832 1.03719 0.0
H932 H 0.99019 0.33502 0.96405 0.0
H933 H 0.03376 0.33192 0.98447 0.0
C934 C 0.79624 0.04339 0.66945 0.0
C935 C 0.78125 0.0703 0.66636 0.0
C936 C 0.78367 1.01056 0.63097 0.0
C937 C 0.75538 1.00397 0.58756 0.0
C938 C 0.74102 0.03167 0.58366 0.0
C939 C 0.75375 0.06381 0.62268 0.0
C940 C 0.80007 0.9823 0.63789 0.0
C941 C 0.71191 0.0274 0.53791 0.0
C942 C 0.74578 0.94189 0.45374 0.0
C943 C 0.70964 0.90507 0.46206 0.0
C944 C 0.76138 0.97338 0.49429 0.0
C945 C 0.74082 0.9688 0.54578 0.0
C946 C 0.70483 0.93139 0.55517 0.0
C947 C 0.68973 0.90035 0.51361 0.0
C948 C 0.7997 1.01211 0.4813 0.0
C949 C 0.68179 0.92432 0.60917 0.0
H950 H 0.81719 0.04741 0.70272 0.0
H951 H 0.74186 0.08412 0.61876 0.0
H952 H 0.7764 0.95342 0.6561 0.0
H953 H 0.80869 0.97529 0.59674 0.0
H954 H 0.82665 0.99513 0.66608 0.0
H955 H 0.70412 0.05173 0.53938 0.0
H956 H 0.72503 0.02804 0.49616 0.0
H957 H 0.68383 0.99785 0.54178 0.0
H958 H 0.76187 0.94658 0.41462 0.0
H959 H 0.66196 0.87245 0.52139 0.0
H960 H 0.82231 1.01862 0.51468 0.0
H961 H 0.79373 0.03768 0.48054 0.0
H962 H 0.8128 1.01089 0.44027 0.0
H963 H 0.70199 0.92995 0.64557 0.0
H964 H 0.65584 0.89311 0.61213 0.0
H965 H 0.67048 0.94588 0.61235 0.0
loop_
_geom_bond_atom_site_label_1
_geom_bond_atom_site_label_2
_geom_bond_distance
_geom_bond_site_symmetry_2
_ccdc_geom_bond_type
Co0 O3 2.042 . S
Co0 O10 2.264 . S
Co0 O29 2.286 . S
Co0 O30 2.069 . S
Co0 O32 2.015 . S
Co1 O3 2.122 . S
Co1 O9 2.073 . S
Co1 O10 2.327 . S
Co1 O11 1.976 . S
Co2 O3 2.087 . S
Co2 O5 2.087 . S
Co2 O12 2.111 . S
Co2 O13 2.143 . S
Co2 O17 2.111 . S
Co2 O31 2.143 . S
O3 Co0 2.042 . S
O3 Co1 2.122 . S
O3 Co2 2.087 . S
O3 H4 0.980 . S
H4 O3 0.980 . S
O5 Co2 2.087 . S
O5 Co6 2.042 . S
O5 Co7 2.122 . S
O5 H8 0.980 . S
Co6 O5 2.042 . S
Co6 O14 2.286 . S
Co6 O15 2.069 . S
Co6 O16 2.015 . S
Co6 O19 2.264 . S
Co7 O5 2.122 . S
Co7 O18 1.976 . S
Co7 O19 2.327 . S
Co7 O20 2.073 . S
H8 O5 0.980 . S
O9 Co1 2.073 . S
O9 C24 1.245 . S
O10 Co0 2.264 . S
O10 Co1 2.327 . S
O10 C24 1.257 . S
O11 Co1 1.976 . S
O11 C23 1.251 . S
O12 Co2 2.111 . S
O12 C23 1.274 . S
O13 Co2 2.143 . S
O13 C26 1.246 . S
O14 Co6 2.286 . S
O14 C25 1.259 . S
O15 Co6 2.069 . S
O15 C25 1.289 . S
O16 Co6 2.015 . S
O16 C26 1.257 . S
O17 Co2 2.111 . S
O17 C27 1.274 . S
O18 Co7 1.976 . S
O18 C27 1.251 . S
O19 Co6 2.264 . S
O19 Co7 2.327 . S
O19 C28 1.257 . S
O20 Co7 2.073 . S
O20 C28 1.245 . S
C21 O29 1.259 . S
C21 O30 1.289 . S
C22 O31 1.246 . S
C22 O32 1.257 . S
C23 O11 1.251 . S
C23 O12 1.274 . S
C24 O9 1.245 . S
C24 O10 1.257 . S
C25 O14 1.259 . S
C25 O15 1.289 . S
C26 O13 1.246 . S
C26 O16 1.257 . S
C27 O17 1.274 . S
C27 O18 1.251 . S
C28 O19 1.257 . S
C28 O20 1.245 . S
O29 Co0 2.286 . S
O29 C21 1.259 . S
O30 Co0 2.069 . S
O30 C21 1.289 . S
O31 Co2 2.143 . S
O31 C22 1.246 . S
O32 Co0 2.015 . S
O32 C22 1.257 . S
Co33 O36 2.042 . S
Co33 O43 2.264 . S
Co33 O62 2.286 . S
Co33 O63 2.069 . S
Co33 O65 2.015 . S
Co34 O36 2.122 . S
Co34 O42 2.073 . S
Co34 O43 2.327 . S
Co34 O44 1.976 . S
Co35 O36 2.087 . S
Co35 O38 2.087 . S
Co35 O45 2.111 . S
Co35 O46 2.143 . S
Co35 O50 2.111 . S
Co35 O64 2.143 . S
O36 Co33 2.042 . S
O36 Co34 2.122 . S
O36 Co35 2.087 . S
O36 H37 0.980 . S
H37 O36 0.980 . S
O38 Co35 2.087 . S
O38 Co39 2.042 . S
O38 Co40 2.122 . S
O38 H41 0.980 . S
Co39 O38 2.042 . S
Co39 O47 2.286 . S
Co39 O48 2.069 . S
Co39 O49 2.015 . S
Co39 O52 2.264 . S
Co40 O38 2.122 . S
Co40 O51 1.976 . S
Co40 O52 2.327 . S
Co40 O53 2.073 . S
H41 O38 0.980 . S
O42 Co34 2.073 . S
O42 C57 1.245 . S
O43 Co33 2.264 . S
O43 Co34 2.327 . S
O43 C57 1.257 . S
O44 Co34 1.976 . S
O44 C56 1.251 . S
O45 Co35 2.111 . S
O45 C56 1.274 . S
O46 Co35 2.143 . S
O46 C59 1.246 . S
O47 Co39 2.286 . S
O47 C58 1.259 . S
O48 Co39 2.069 . S
O48 C58 1.289 . S
O49 Co39 2.015 . S
O49 C59 1.257 . S
O50 Co35 2.111 . S
O50 C60 1.274 . S
O51 Co40 1.976 . S
O51 C60 1.251 . S
O52 Co39 2.264 . S
O52 Co40 2.327 . S
O52 C61 1.257 . S
O53 Co40 2.073 . S
O53 C61 1.245 . S
C54 O62 1.259 . S
C54 O63 1.289 . S
C55 O64 1.246 . S
C55 O65 1.257 . S
C56 O44 1.251 . S
C56 O45 1.274 . S
C57 O42 1.245 . S
C57 O43 1.257 . S
C58 O47 1.259 . S
C58 O48 1.289 . S
C59 O46 1.246 . S
C59 O49 1.257 . S
C60 O50 1.274 . S
C60 O51 1.251 . S
C61 O52 1.257 . S
C61 O53 1.245 . S
O62 Co33 2.286 . S
O62 C54 1.259 . S
O63 Co33 2.069 . S
O63 C54 1.289 . S
O64 Co35 2.143 . S
O64 C55 1.246 . S
O65 Co33 2.015 . S
O65 C55 1.257 . S
Co66 O69 2.042 . S
Co66 O76 2.264 . S
Co66 O95 2.286 . S
Co66 O96 2.069 . S
Co66 O98 2.015 . S
Co67 O69 2.122 . S
Co67 O75 2.073 . S
Co67 O76 2.327 . S
Co67 O77 1.976 . S
Co68 O69 2.087 . S
Co68 O71 2.087 . S
Co68 O78 2.111 . S
Co68 O79 2.143 . S
Co68 O83 2.111 . S
Co68 O97 2.143 . S
O69 Co66 2.042 . S
O69 Co67 2.122 . S
O69 Co68 2.087 . S
O69 H70 0.980 . S
H70 O69 0.980 . S
O71 Co68 2.087 . S
O71 Co72 2.042 . S
O71 Co73 2.122 . S
O71 H74 0.980 . S
Co72 O71 2.042 . S
Co72 O80 2.286 . S
Co72 O81 2.069 . S
Co72 O82 2.015 . S
Co72 O85 2.264 . S
Co73 O71 2.122 . S
Co73 O84 1.976 . S
Co73 O85 2.327 . S
Co73 O86 2.073 . S
H74 O71 0.980 . S
O75 Co67 2.073 . S
O75 C90 1.245 . S
O76 Co66 2.264 . S
O76 Co67 2.327 . S
O76 C90 1.257 . S
O77 Co67 1.976 . S
O77 C89 1.251 . S
O78 Co68 2.111 . S
O78 C89 1.274 . S
O79 Co68 2.143 . S
O79 C92 1.246 . S
O80 Co72 2.286 . S
O80 C91 1.259 . S
O81 Co72 2.069 . S
O81 C91 1.289 . S
O82 Co72 2.015 . S
O82 C92 1.257 . S
O83 Co68 2.111 . S
O83 C93 1.274 . S
O84 Co73 1.976 . S
O84 C93 1.251 . S
O85 Co72 2.264 . S
O85 Co73 2.327 . S
O85 C94 1.257 . S
O86 Co73 2.073 . S
O86 C94 1.245 . S
C87 O95 1.259 . S
C87 O96 1.289 . S
C88 O97 1.246 . S
C88 O98 1.257 . S
C89 O77 1.251 . S
C89 O78 1.274 . S
C90 O75 1.245 . S
C90 O76 1.257 . S
C91 O80 1.259 . S
C91 O81 1.289 . S
C92 O79 1.246 . S
C92 O82 1.257 . S
C93 O83 1.274 . S
C93 O84 1.251 . S
C94 O85 1.257 . S
C94 O86 1.245 . S
O95 Co66 2.286 . S
O95 C87 1.259 . S
O96 Co66 2.069 . S
O96 C87 1.289 . S
O97 Co68 2.143 . S
O97 C88 1.246 . S
O98 Co66 2.015 . S
O98 C88 1.257 . S
Co99 O102 2.042 . S
Co99 O109 2.264 . S
Co99 O128 2.286 . S
Co99 O129 2.069 . S
Co99 O131 2.015 . S
Co100 O102 2.122 . S
Co100 O108 2.073 . S
Co100 O109 2.327 . S
Co100 O110 1.976 . S
Co101 O102 2.087 . S
Co101 O104 2.087 . S
Co101 O111 2.111 . S
Co101 O112 2.143 . S
Co101 O116 2.111 . S
Co101 O130 2.143 . S
O102 Co99 2.042 . S
O102 Co100 2.122 . S
O102 Co101 2.087 . S
O102 H103 0.980 . S
H103 O102 0.980 . S
O104 Co101 2.087 . S
O104 Co105 2.042 . S
O104 Co106 2.122 . S
O104 H107 0.980 . S
Co105 O104 2.042 . S
Co105 O113 2.286 . S
Co105 O114 2.069 . S
Co105 O115 2.015 . S
Co105 O118 2.264 . S
Co106 O104 2.122 . S
Co106 O117 1.976 . S
Co106 O118 2.327 . S
Co106 O119 2.073 . S
H107 O104 0.980 . S
O108 Co100 2.073 . S
O108 C123 1.245 . S
O109 Co99 2.264 . S
O109 Co100 2.327 . S
O109 C123 1.257 . S
O110 Co100 1.976 . S
O110 C122 1.251 . S
O111 Co101 2.111 . S
O111 C122 1.274 . S
O112 Co101 2.143 . S
O112 C125 1.246 . S
O113 Co105 2.286 . S
O113 C124 1.259 . S
O114 Co105 2.069 . S
O114 C124 1.289 . S
O115 Co105 2.015 . S
O115 C125 1.257 . S
O116 Co101 2.111 . S
O116 C126 1.274 . S
O117 Co106 1.976 . S
O117 C126 1.251 . S
O118 Co105 2.264 . S
O118 Co106 2.327 . S
O118 C127 1.257 . S
O119 Co106 2.073 . S
O119 C127 1.245 . S
C120 O128 1.259 . S
C120 O129 1.289 . S
C121 O130 1.246 . S
C121 O131 1.257 . S
C122 O110 1.251 . S
C122 O111 1.274 . S
C123 O108 1.245 . S
C123 O109 1.257 . S
C124 O113 1.259 . S
C124 O114 1.289 . S
C125 O112 1.246 . S
C125 O115 1.257 . S
C126 O116 1.274 . S
C126 O117 1.251 . S
C127 O118 1.257 . S
C127 O119 1.245 . S
O128 Co99 2.286 . S
O128 C120 1.259 . S
O129 Co99 2.069 . S
O129 C120 1.289 . S
O130 Co101 2.143 . S
O130 C121 1.246 . S
O131 Co99 2.015 . S
O131 C121 1.257 . S
Co132 O135 2.042 . S
Co132 O142 2.264 . S
Co132 O161 2.286 . S
Co132 O162 2.069 . S
Co132 O164 2.015 . S
Co133 O135 2.122 . S
Co133 O141 2.073 . S
Co133 O142 2.327 . S
Co133 O143 1.976 . S
Co134 O135 2.087 . S
Co134 O137 2.087 . S
Co134 O144 2.111 . S
Co134 O145 2.143 . S
Co134 O149 2.111 . S
Co134 O163 2.143 . S
O135 Co132 2.042 . S
O135 Co133 2.122 . S
O135 Co134 2.087 . S
O135 H136 0.980 . S
H136 O135 0.980 . S
O137 Co134 2.087 . S
O137 Co138 2.042 . S
O137 Co139 2.122 . S
O137 H140 0.980 . S
Co138 O137 2.042 . S
Co138 O146 2.286 . S
Co138 O147 2.069 . S
Co138 O148 2.015 . S
Co138 O151 2.264 . S
Co139 O137 2.122 . S
Co139 O150 1.976 . S
Co139 O151 2.327 . S
Co139 O152 2.073 . S
H140 O137 0.980 . S
O141 Co133 2.073 . S
O141 C156 1.245 . S
O142 Co132 2.264 . S
O142 Co133 2.327 . S
O142 C156 1.257 . S
O143 Co133 1.976 . S
O143 C155 1.251 . S
O144 Co134 2.111 . S
O144 C155 1.274 . S
O145 Co134 2.143 . S
O145 C158 1.246 . S
O146 Co138 2.286 . S
O146 C157 1.259 . S
O147 Co138 2.069 . S
O147 C157 1.289 . S
O148 Co138 2.015 . S
O148 C158 1.257 . S
O149 Co134 2.111 . S
O149 C159 1.274 . S
O150 Co139 1.976 . S
O150 C159 1.251 . S
O151 Co138 2.264 . S
O151 Co139 2.327 . S
O151 C160 1.257 . S
O152 Co139 2.073 . S
O152 C160 1.245 . S
C153 O161 1.259 . S
C153 O162 1.289 . S
C154 O163 1.246 . S
C154 O164 1.257 . S
C155 O143 1.251 . S
C155 O144 1.274 . S
C156 O141 1.245 . S
C156 O142 1.257 . S
C157 O146 1.259 . S
C157 O147 1.289 . S
C158 O145 1.246 . S
C158 O148 1.257 . S
C159 O149 1.274 . S
C159 O150 1.251 . S
C160 O151 1.257 . S
C160 O152 1.245 . S
O161 Co132 2.286 . S
O161 C153 1.259 . S
O162 Co132 2.069 . S
O162 C153 1.289 . S
O163 Co134 2.143 . S
O163 C154 1.246 . S
O164 Co132 2.015 . S
O164 C154 1.257 . S
Co165 O168 2.042 . S
Co165 O175 2.264 . S
Co165 O194 2.286 . S
Co165 O195 2.069 . S
Co165 O197 2.015 . S
Co166 O168 2.122 . S
Co166 O174 2.073 . S
Co166 O175 2.327 . S
Co166 O176 1.976 . S
Co167 O168 2.087 . S
Co167 O170 2.087 . S
Co167 O177 2.111 . S
Co167 O178 2.143 . S
Co167 O182 2.111 . S
Co167 O196 2.143 . S
O168 Co165 2.042 . S
O168 Co166 2.122 . S
O168 Co167 2.087 . S
O168 H169 0.980 . S
H169 O168 0.980 . S
O170 Co167 2.087 . S
O170 Co171 2.042 . S
O170 Co172 2.122 . S
O170 H173 0.980 . S
Co171 O170 2.042 . S
Co171 O179 2.286 . S
Co171 O180 2.069 . S
Co171 O181 2.015 . S
Co171 O184 2.264 . S
Co172 O170 2.122 . S
Co172 O183 1.976 . S
Co172 O184 2.327 . S
Co172 O185 2.073 . S
H173 O170 0.980 . S
O174 Co166 2.073 . S
O174 C189 1.245 . S
O175 Co165 2.264 . S
O175 Co166 2.327 . S
O175 C189 1.257 . S
O176 Co166 1.976 . S
O176 C188 1.251 . S
O177 Co167 2.111 . S
O177 C188 1.274 . S
O178 Co167 2.143 . S
O178 C191 1.246 . S
O179 Co171 2.286 . S
O179 C190 1.259 . S
O180 Co171 2.069 . S
O180 C190 1.289 . S
O181 Co171 2.015 . S
O181 C191 1.257 . S
O182 Co167 2.111 . S
O182 C192 1.274 . S
O183 Co172 1.976 . S
O183 C192 1.251 . S
O184 Co171 2.264 . S
O184 Co172 2.327 . S
O184 C193 1.257 . S
O185 Co172 2.073 . S
O185 C193 1.245 . S
C186 O194 1.259 . S
C186 O195 1.289 . S
C187 O196 1.246 . S
C187 O197 1.257 . S
C188 O176 1.251 . S
C188 O177 1.274 . S
C189 O174 1.245 . S
C189 O175 1.257 . S
C190 O179 1.259 . S
C190 O180 1.289 . S
C191 O178 1.246 . S
C191 O181 1.257 . S
C192 O182 1.274 . S
C192 O183 1.251 . S
C193 O184 1.257 . S
C193 O185 1.245 . S
O194 Co165 2.286 . S
O194 C186 1.259 . S
O195 Co165 2.069 . S
O195 C186 1.289 . S
O196 Co167 2.143 . S
O196 C187 1.246 . S
O197 Co165 2.015 . S
O197 C187 1.257 . S
C198 C199 1.391 . S
C198 C200 1.394 . S
C198 H214 0.931 . S
C199 C198 1.391 . S
C199 C203 1.376 . S
C200 C198 1.394 . S
C200 C201 1.369 . S
C200 C204 1.531 . S
C201 C200 1.369 . S
C201 C202 1.410 . S
C201 C209 1.503 . S
C202 C201 1.410 . S
C202 C203 1.392 . S
C202 C205 1.511 . S
C203 C199 1.376 . S
C203 C202 1.392 . S
C203 H215 0.929 . S
C204 C200 1.531 . S
C204 H216 0.960 . S
C204 H217 0.962 . S
C204 H218 0.960 . S
C205 C202 1.511 . S
C205 H219 0.961 . S
C205 H220 0.961 . S
C205 H221 0.961 . S
C206 C207 1.370 . S
C206 C208 1.363 . S
C206 H222 0.931 . S
C207 C206 1.370 . S
C207 C211 1.408 . S
C208 C206 1.363 . S
C208 C209 1.370 . S
C208 C212 1.524 . S
C209 C201 1.503 . S
C209 C208 1.370 . S
C209 C210 1.403 . S
C210 C209 1.403 . S
C210 C211 1.404 . S
C210 C213 1.539 . S
C211 C207 1.408 . S
C211 C210 1.404 . S
C211 H223 0.930 . S
C212 C208 1.524 . S
C212 H224 0.956 . S
C212 H225 0.961 . S
C212 H226 0.961 . S
C213 C210 1.539 . S
C213 H227 0.958 . S
C213 H228 0.961 . S
C213 H229 0.960 . S
H214 C198 0.931 . S
H215 C203 0.929 . S
H216 C204 0.960 . S
H217 C204 0.962 . S
H218 C204 0.960 . S
H219 C205 0.961 . S
H220 C205 0.961 . S
H221 C205 0.961 . S
H222 C206 0.931 . S
H223 C211 0.930 . S
H224 C212 0.956 . S
H225 C212 0.961 . S
H226 C212 0.961 . S
H227 C213 0.958 . S
H228 C213 0.961 . S
H229 C213 0.960 . S
C230 C231 1.391 . S
C230 C232 1.394 . S
C230 H246 0.931 . S
C231 C230 1.391 . S
C231 C235 1.376 . S
C232 C230 1.394 . S
C232 C233 1.369 . S
C232 C236 1.531 . S
C233 C232 1.369 . S
C233 C234 1.410 . S
C233 C241 1.503 . S
C234 C233 1.410 . S
C234 C235 1.392 . S
C234 C237 1.511 . S
C235 C231 1.376 . S
C235 C234 1.392 . S
C235 H247 0.929 . S
C236 C232 1.531 . S
C236 H248 0.960 . S
C236 H249 0.962 . S
C236 H250 0.960 . S
C237 C234 1.511 . S
C237 H251 0.961 . S
C237 H252 0.961 . S
C237 H253 0.961 . S
C238 C239 1.370 . S
C238 C240 1.363 . S
C238 H254 0.931 . S
C239 C238 1.370 . S
C239 C243 1.408 . S
C240 C238 1.363 . S
C240 C241 1.370 . S
C240 C244 1.524 . S
C241 C233 1.503 . S
C241 C240 1.370 . S
C241 C242 1.403 . S
C242 C241 1.403 . S
C242 C243 1.404 . S
C242 C245 1.539 . S
C243 C239 1.408 . S
C243 C242 1.404 . S
C243 H255 0.930 . S
C244 C240 1.524 . S
C244 H256 0.956 . S
C244 H257 0.961 . S
C244 H258 0.961 . S
C245 C242 1.539 . S
C245 H259 0.958 . S
C245 H260 0.961 . S
C245 H261 0.960 . S
H246 C230 0.931 . S
H247 C235 0.929 . S
H248 C236 0.960 . S
H249 C236 0.962 . S
H250 C236 0.960 . S
H251 C237 0.961 . S
H252 C237 0.961 . S
H253 C237 0.961 . S
H254 C238 0.931 . S
H255 C243 0.930 . S
H256 C244 0.956 . S
H257 C244 0.961 . S
H258 C244 0.961 . S
H259 C245 0.958 . S
H260 C245 0.961 . S
H261 C245 0.960 . S
C262 C263 1.391 . S
C262 C264 1.394 . S
C262 H278 0.931 . S
C263 C262 1.391 . S
C263 C267 1.376 . S
C264 C262 1.394 . S
C264 C265 1.369 . S
C264 C268 1.531 . S
C265 C264 1.369 . S
C265 C266 1.410 . S
C265 C273 1.503 . S
C266 C265 1.410 . S
C266 C267 1.392 . S
C266 C269 1.511 . S
C267 C263 1.376 . S
C267 C266 1.392 . S
C267 H279 0.929 . S
C268 C264 1.531 . S
C268 H280 0.960 . S
C268 H281 0.962 . S
C268 H282 0.960 . S
C269 C266 1.511 . S
C269 H283 0.961 . S
C269 H284 0.961 . S
C269 H285 0.961 . S
C270 C271 1.370 . S
C270 C272 1.363 . S
C270 H286 0.931 . S
C271 C270 1.370 . S
C271 C275 1.408 . S
C272 C270 1.363 . S
C272 C273 1.370 . S
C272 C276 1.524 . S
C273 C265 1.503 . S
C273 C272 1.370 . S
C273 C274 1.403 . S
C274 C273 1.403 . S
C274 C275 1.404 . S
C274 C277 1.539 . S
C275 C271 1.408 . S
C275 C274 1.404 . S
C275 H287 0.930 . S
C276 C272 1.524 . S
C276 H288 0.956 . S
C276 H289 0.961 . S
C276 H290 0.961 . S
C277 C274 1.539 . S
C277 H291 0.958 . S
C277 H292 0.961 . S
C277 H293 0.960 . S
H278 C262 0.931 . S
H279 C267 0.929 . S
H280 C268 0.960 . S
H281 C268 0.962 . S
H282 C268 0.960 . S
H283 C269 0.961 . S
H284 C269 0.961 . S
H285 C269 0.961 . S
H286 C270 0.931 . S
H287 C275 0.930 . S
H288 C276 0.956 . S
H289 C276 0.961 . S
H290 C276 0.961 . S
H291 C277 0.958 . S
H292 C277 0.961 . S
H293 C277 0.960 . S
C294 C295 1.391 . S
C294 C296 1.394 . S
C294 H310 0.931 . S
C295 C294 1.391 . S
C295 C299 1.376 . S
C296 C294 1.394 . S
C296 C297 1.369 . S
C296 C300 1.531 . S
C297 C296 1.369 . S
C297 C298 1.410 . S
C297 C305 1.503 . S
C298 C297 1.410 . S
C298 C299 1.392 . S
C298 C301 1.511 . S
C299 C295 1.376 . S
C299 C298 1.392 . S
C299 H311 0.929 . S
C300 C296 1.531 . S
C300 H312 0.960 . S
C300 H313 0.962 . S
C300 H314 0.960 . S
C301 C298 1.511 . S
C301 H315 0.961 . S
C301 H316 0.961 . S
C301 H317 0.961 . S
C302 C303 1.370 . S
C302 C304 1.363 . S
C302 H318 0.931 . S
C303 C302 1.370 . S
C303 C307 1.408 . S
C304 C302 1.363 . S
C304 C305 1.370 . S
C304 C308 1.524 . S
C305 C297 1.503 . S
C305 C304 1.370 . S
C305 C306 1.403 . S
C306 C305 1.403 . S
C306 C307 1.404 . S
C306 C309 1.539 . S
C307 C303 1.408 . S
C307 C306 1.404 . S
C307 H319 0.930 . S
C308 C304 1.524 . S
C308 H320 0.956 . S
C308 H321 0.961 . S
C308 H322 0.961 . S
C309 C306 1.539 . S
C309 H323 0.958 . S
C309 H324 0.961 . S
C309 H325 0.960 . S
H310 C294 0.931 . S
H311 C299 0.929 . S
H312 C300 0.960 . S
H313 C300 0.962 . S
H314 C300 0.960 . S
H315 C301 0.961 . S
H316 C301 0.961 . S
H317 C301 0.961 . S
H318 C302 0.931 . S
H319 C307 0.930 . S
H320 C308 0.956 . S
H321 C308 0.961 . S
H322 C308 0.961 . S
H323 C309 0.958 . S
H324 C309 0.961 . S
H325 C309 0.960 . S
C326 C327 1.391 . S
C326 C328 1.394 . S
C326 H342 0.931 . S
C327 C326 1.391 . S
C327 C331 1.376 . S
C328 C326 1.394 . S
C328 C329 1.369 . S
C328 C332 1.531 . S
C329 C328 1.369 . S
C329 C330 1.410 . S
C329 C337 1.503 . S
C330 C329 1.410 . S
C330 C331 1.392 . S
C330 C333 1.511 . S
C331 C327 1.376 . S
C331 C330 1.392 . S
C331 H343 0.929 . S
C332 C328 1.531 . S
C332 H344 0.960 . S
C332 H345 0.962 . S
C332 H346 0.960 . S
C333 C330 1.511 . S
C333 H347 0.961 . S
C333 H348 0.961 . S
C333 H349 0.961 . S
C334 C335 1.370 . S
C334 C336 1.363 . S
C334 H350 0.931 . S
C335 C334 1.370 . S
C335 C339 1.408 . S
C336 C334 1.363 . S
C336 C337 1.370 . S
C336 C340 1.524 . S
C337 C329 1.503 . S
C337 C336 1.370 . S
C337 C338 1.403 . S
C338 C337 1.403 . S
C338 C339 1.404 . S
C338 C341 1.539 . S
C339 C335 1.408 . S
C339 C338 1.404 . S
C339 H351 0.930 . S
C340 C336 1.524 . S
C340 H352 0.956 . S
C340 H353 0.961 . S
C340 H354 0.961 . S
C341 C338 1.539 . S
C341 H355 0.958 . S
C341 H356 0.961 . S
C341 H357 0.960 . S
H342 C326 0.931 . S
H343 C331 0.929 . S
H344 C332 0.960 . S
H345 C332 0.962 . S
H346 C332 0.960 . S
H347 C333 0.961 . S
H348 C333 0.961 . S
H349 C333 0.961 . S
H350 C334 0.931 . S
H351 C339 0.930 . S
H352 C340 0.956 . S
H353 C340 0.961 . S
H354 C340 0.961 . S
H355 C341 0.958 . S
H356 C341 0.961 . S
H357 C341 0.960 . S
C358 C359 1.391 . S
C358 C360 1.394 . S
C358 H374 0.931 . S
C359 C358 1.391 . S
C359 C363 1.376 . S
C360 C358 1.394 . S
C360 C361 1.369 . S
C360 C364 1.531 . S
C361 C360 1.369 . S
C361 C362 1.410 . S
C361 C369 1.503 . S
C362 C361 1.410 . S
C362 C363 1.392 . S
C362 C365 1.511 . S
C363 C359 1.376 . S
C363 C362 1.392 . S
C363 H375 0.929 . S
C364 C360 1.531 . S
C364 H376 0.960 . S
C364 H377 0.962 . S
C364 H378 0.960 . S
C365 C362 1.511 . S
C365 H379 0.961 . S
C365 H380 0.961 . S
C365 H381 0.961 . S
C366 C367 1.370 . S
C366 C368 1.363 . S
C366 H382 0.931 . S
C367 C366 1.370 . S
C367 C371 1.408 . S
C368 C366 1.363 . S
C368 C369 1.370 . S
C368 C372 1.524 . S
C369 C361 1.503 . S
C369 C368 1.370 . S
C369 C370 1.403 . S
C370 C369 1.403 . S
C370 C371 1.404 . S
C370 C373 1.539 . S
C371 C367 1.408 . S
C371 C370 1.404 . S
C371 H383 0.930 . S
C372 C368 1.524 . S
C372 H384 0.956 . S
C372 H385 0.961 . S
C372 H386 0.961 . S
C373 C370 1.539 . S
C373 H387 0.958 . S
C373 H388 0.961 . S
C373 H389 0.960 . S
H374 C358 0.931 . S
H375 C363 0.929 . S
H376 C364 0.960 . S
H377 C364 0.962 . S
H378 C364 0.960 . S
H379 C365 0.961 . S
H380 C365 0.961 . S
H381 C365 0.961 . S
H382 C366 0.931 . S
H383 C371 0.930 . S
H384 C372 0.956 . S
H385 C372 0.961 . S
H386 C372 0.961 . S
H387 C373 0.958 . S
H388 C373 0.961 . S
H389 C373 0.960 . S
C390 C391 1.391 . S
C390 C392 1.394 . S
C390 H406 0.931 . S
C391 C390 1.391 . S
C391 C395 1.376 . S
C392 C390 1.394 . S
C392 C393 1.369 . S
C392 C396 1.531 . S
C393 C392 1.369 . S
C393 C394 1.410 . S
C393 C401 1.503 . S
C394 C393 1.410 . S
C394 C395 1.392 . S
C394 C397 1.511 . S
C395 C391 1.376 . S
C395 C394 1.392 . S
C395 H407 0.929 . S
C396 C392 1.531 . S
C396 H408 0.960 . S
C396 H409 0.962 . S
C396 H410 0.960 . S
C397 C394 1.511 . S
C397 H411 0.961 . S
C397 H412 0.961 . S
C397 H413 0.961 . S
C398 C399 1.370 . S
C398 C400 1.363 1_565 S
C398 H414 0.931 . S
C399 C398 1.370 . S
C399 C403 1.408 1_565 S
C400 C398 1.363 1_545 S
C400 C401 1.370 . S
C400 C404 1.524 . S
C401 C393 1.503 . S
C401 C400 1.370 . S
C401 C402 1.403 . S
C402 C401 1.403 . S
C402 C403 1.404 . S
C402 C405 1.539 . S
C403 C399 1.408 1_545 S
C403 C402 1.404 . S
C403 H415 0.930 . S
C404 C400 1.524 . S
C404 H416 0.956 . S
C404 H417 0.961 . S
C404 H418 0.961 . S
C405 C402 1.539 . S
C405 H419 0.958 . S
C405 H420 0.961 . S
C405 H421 0.960 . S
H406 C390 0.931 . S
H407 C395 0.929 . S
H408 C396 0.960 . S
H409 C396 0.962 . S
H410 C396 0.960 . S
H411 C397 0.961 . S
H412 C397 0.961 . S
H413 C397 0.961 . S
H414 C398 0.931 . S
H415 C403 0.930 . S
H416 C404 0.956 . S
H417 C404 0.961 . S
H418 C404 0.961 . S
H419 C405 0.958 . S
H420 C405 0.961 . S
H421 C405 0.960 . S
C422 C423 1.391 . S
C422 C424 1.394 1_655 S
C422 H438 0.931 . S
C423 C422 1.391 . S
C423 C427 1.376 . S
C424 C422 1.394 1_455 S
C424 C425 1.369 . S
C424 C428 1.531 . S
C425 C424 1.369 . S
C425 C426 1.410 1_455 S
C425 C433 1.503 . S
C426 C425 1.410 1_655 S
C426 C427 1.392 . S
C426 C429 1.511 . S
C427 C423 1.376 . S
C427 C426 1.392 . S
C427 H439 0.929 . S
C428 C424 1.531 . S
C428 H440 0.960 . S
C428 H441 0.962 . S
C428 H442 0.960 . S
C429 C426 1.511 . S
C429 H443 0.961 . S
C429 H444 0.961 1_655 S
C429 H445 0.961 . S
C430 C431 1.370 . S
C430 C432 1.363 . S
C430 H446 0.931 . S
C431 C430 1.370 . S
C431 C435 1.408 . S
C432 C430 1.363 . S
C432 C433 1.370 . S
C432 C436 1.524 . S
C433 C425 1.503 . S
C433 C432 1.370 . S
C433 C434 1.403 . S
C434 C433 1.403 . S
C434 C435 1.404 . S
C434 C437 1.539 . S
C435 C431 1.408 . S
C435 C434 1.404 . S
C435 H447 0.930 . S
C436 C432 1.524 . S
C436 H448 0.956 . S
C436 H449 0.961 . S
C436 H450 0.961 . S
C437 C434 1.539 . S
C437 H451 0.958 . S
C437 H452 0.961 . S
C437 H453 0.960 . S
H438 C422 0.931 . S
H439 C427 0.929 . S
H440 C428 0.960 . S
H441 C428 0.962 . S
H442 C428 0.960 . S
H443 C429 0.961 . S
H444 C429 0.961 1_455 S
H445 C429 0.961 . S
H446 C430 0.931 . S
H447 C435 0.930 . S
H448 C436 0.956 . S
H449 C436 0.961 . S
H450 C436 0.961 . S
H451 C437 0.958 . S
H452 C437 0.961 . S
H453 C437 0.960 . S
C454 C455 1.391 . S
C454 C456 1.394 1_455 S
C454 H470 0.931 . S
C455 C454 1.391 . S
C455 C459 1.376 1_455 S
C456 C454 1.394 1_655 S
C456 C457 1.369 . S
C456 C460 1.531 . S
C457 C456 1.369 . S
C457 C458 1.410 . S
C457 C465 1.503 . S
C458 C457 1.410 . S
C458 C459 1.392 . S
C458 C461 1.511 . S
C459 C455 1.376 1_655 S
C459 C458 1.392 . S
C459 H471 0.929 . S
C460 C456 1.531 . S
C460 H472 0.960 . S
C460 H473 0.962 . S
C460 H474 0.960 1_655 S
C461 C458 1.511 . S
C461 H475 0.961 . S
C461 H476 0.961 . S
C461 H477 0.961 . S
C462 C463 1.370 . S
C462 C464 1.363 . S
C462 H478 0.931 . S
C463 C462 1.370 . S
C463 C467 1.408 . S
C464 C462 1.363 . S
C464 C465 1.370 1_565 S
C464 C468 1.524 1_565 S
C465 C457 1.503 . S
C465 C464 1.370 1_545 S
C465 C466 1.403 . S
C466 C465 1.403 . S
C466 C467 1.404 1_545 S
C466 C469 1.539 . S
C467 C463 1.408 . S
C467 C466 1.404 1_565 S
C467 H479 0.930 . S
C468 C464 1.524 1_545 S
C468 H480 0.956 . S
C468 H481 0.961 . S
C468 H482 0.961 1_545 S
C469 C466 1.539 . S
C469 H483 0.958 . S
C469 H484 0.961 . S
C469 H485 0.960 . S
H470 C454 0.931 . S
H471 C459 0.929 . S
H472 C460 0.960 . S
H473 C460 0.962 . S
H474 C460 0.960 1_455 S
H475 C461 0.961 . S
H476 C461 0.961 . S
H477 C461 0.961 . S
H478 C462 0.931 . S
H479 C467 0.930 . S
H480 C468 0.956 . S
H481 C468 0.961 . S
H482 C468 0.961 1_565 S
H483 C469 0.958 . S
H484 C469 0.961 . S
H485 C469 0.960 . S
C486 C487 1.391 1_565 S
C486 C488 1.394 . S
C486 H502 0.931 . S
C487 C486 1.391 1_545 S
C487 C491 1.376 . S
C488 C486 1.394 . S
C488 C489 1.369 . S
C488 C492 1.531 . S
C489 C488 1.369 . S
C489 C490 1.410 . S
C489 C497 1.503 . S
C490 C489 1.410 . S
C490 C491 1.392 1_565 S
C490 C493 1.511 . S
C491 C487 1.376 . S
C491 C490 1.392 1_545 S
C491 H503 0.929 . S
C492 C488 1.531 . S
C492 H504 0.960 . S
C492 H505 0.962 . S
C492 H506 0.960 . S
C493 C490 1.511 . S
C493 H507 0.961 1_565 S
C493 H508 0.961 . S
C493 H509 0.961 . S
C494 C495 1.370 . S
C494 C496 1.363 . S
C494 H510 0.931 . S
C495 C494 1.370 . S
C495 C499 1.408 . S
C496 C494 1.363 . S
C496 C497 1.370 . S
C496 C500 1.524 . S
C497 C489 1.503 . S
C497 C496 1.370 . S
C497 C498 1.403 . S
C498 C497 1.403 . S
C498 C499 1.404 . S
C498 C501 1.539 . S
C499 C495 1.408 . S
C499 C498 1.404 . S
C499 H511 0.930 . S
C500 C496 1.524 . S
C500 H512 0.956 . S
C500 H513 0.961 . S
C500 H514 0.961 . S
C501 C498 1.539 . S
C501 H515 0.958 . S
C501 H516 0.961 . S
C501 H517 0.960 . S
H502 C486 0.931 . S
H503 C491 0.929 . S
H504 C492 0.960 . S
H505 C492 0.962 . S
H506 C492 0.960 . S
H507 C493 0.961 1_545 S
H508 C493 0.961 . S
H509 C493 0.961 . S
H510 C494 0.931 . S
H511 C499 0.930 . S
H512 C500 0.956 . S
H513 C500 0.961 . S
H514 C500 0.961 . S
H515 C501 0.958 . S
H516 C501 0.961 . S
H517 C501 0.960 . S
C518 C519 1.391 . S
C518 C520 1.394 . S
C518 H534 0.931 . S
C519 C518 1.391 . S
C519 C523 1.376 . S
C520 C518 1.394 . S
C520 C521 1.369 . S
C520 C524 1.531 . S
C521 C520 1.369 . S
C521 C522 1.410 . S
C521 C529 1.503 . S
C522 C521 1.410 . S
C522 C523 1.392 . S
C522 C525 1.511 . S
C523 C519 1.376 . S
C523 C522 1.392 . S
C523 H535 0.929 . S
C524 C520 1.531 . S
C524 H536 0.960 . S
C524 H537 0.962 . S
C524 H538 0.960 . S
C525 C522 1.511 . S
C525 H539 0.961 . S
C525 H540 0.961 . S
C525 H541 0.961 . S
C526 C527 1.370 . S
C526 C528 1.363 . S
C526 H542 0.931 . S
C527 C526 1.370 . S
C527 C531 1.408 . S
C528 C526 1.363 . S
C528 C529 1.370 1_455 S
C528 C532 1.524 1_455 S
C529 C521 1.503 . S
C529 C528 1.370 1_655 S
C529 C530 1.387 1_655 S
C530 C529 1.387 1_455 S
C530 C531 1.429 . S
C530 C533 1.530 1_455 S
C531 C527 1.408 . S
C531 C530 1.429 . S
C531 H543 0.930 . S
C532 C528 1.524 1_655 S
C532 H544 0.956 . S
C532 H545 0.961 . S
C532 H546 0.962 1_655 S
C533 C530 1.530 1_655 S
C533 H547 0.958 . S
C533 H548 0.952 1_655 S
C533 H549 0.960 . S
H534 C518 0.931 . S
H535 C523 0.929 . S
H536 C524 0.960 . S
H537 C524 0.962 . S
H538 C524 0.960 . S
H539 C525 0.961 . S
H540 C525 0.961 . S
H541 C525 0.961 . S
H542 C526 0.931 . S
H543 C531 0.930 . S
H544 C532 0.956 . S
H545 C532 0.961 . S
H546 C532 0.962 1_455 S
H547 C533 0.958 . S
H548 C533 0.952 1_455 S
H549 C533 0.960 . S
C550 C551 1.391 . S
C550 C552 1.378 1_545 S
C550 H566 0.931 . S
C551 C550 1.391 . S
C551 C555 1.376 . S
C552 C550 1.378 1_565 S
C552 C553 1.369 . S
C552 C556 1.547 . S
C553 C552 1.369 . S
C553 C554 1.410 1_565 S
C553 C561 1.503 . S
C554 C553 1.410 1_545 S
C554 C555 1.392 . S
C554 C557 1.511 1_545 S
C555 C551 1.376 . S
C555 C554 1.392 . S
C555 H567 0.929 . S
C556 C552 1.547 . S
C556 H568 0.960 . S
C556 H569 0.962 . S
C556 H570 0.960 . S
C557 C554 1.511 1_565 S
C557 H571 0.961 1_565 S
C557 H572 0.961 . S
C557 H573 0.961 1_565 S
C558 C559 1.370 1_455 S
C558 C560 1.363 . S
C558 H574 0.931 . S
C559 C558 1.370 1_655 S
C559 C563 1.408 . S
C560 C558 1.363 . S
C560 C561 1.370 . S
C560 C564 1.524 . S
C561 C553 1.503 . S
C561 C560 1.370 . S
C561 C562 1.403 . S
C562 C561 1.403 . S
C562 C563 1.404 1_455 S
C562 C565 1.539 . S
C563 C559 1.408 . S
C563 C562 1.404 1_655 S
C563 H575 0.930 . S
C564 C560 1.524 . S
C564 H576 0.956 . S
C564 H577 0.961 . S
C564 H578 0.961 . S
C565 C562 1.539 . S
C565 H579 0.958 . S
C565 H580 0.961 1_455 S
C565 H581 0.960 . S
H566 C550 0.931 . S
H567 C555 0.929 . S
H568 C556 0.960 . S
H569 C556 0.962 . S
H570 C556 0.960 . S
H571 C557 0.961 1_545 S
H572 C557 0.961 . S
H573 C557 0.961 1_545 S
H574 C558 0.931 . S
H575 C563 0.930 . S
H576 C564 0.956 . S
H577 C564 0.961 . S
H578 C564 0.961 . S
H579 C565 0.958 . S
H580 C565 0.961 1_655 S
H581 C565 0.960 . S
C582 C583 1.391 . S
C582 C584 1.394 . S
C582 H598 0.931 . S
C583 C582 1.391 . S
C583 C587 1.376 . S
C584 C582 1.394 . S
C584 C585 1.369 . S
C584 C588 1.531 . S
C585 C584 1.369 . S
C585 C586 1.410 . S
C585 C593 1.503 1_554 S
C586 C585 1.410 . S
C586 C587 1.392 . S
C586 C589 1.511 1_554 S
C587 C583 1.376 . S
C587 C586 1.392 . S
C587 H599 0.929 . S
C588 C584 1.531 . S
C588 H600 0.960 . S
C588 H601 0.962 . S
C588 H602 0.960 . S
C589 C586 1.511 1_556 S
C589 H603 0.961 . S
C589 H604 0.961 . S
C589 H605 0.961 . S
C590 C591 1.370 . S
C590 C592 1.363 . S
C590 H606 0.931 . S
C591 C590 1.370 . S
C591 C595 1.408 . S
C592 C590 1.363 . S
C592 C593 1.370 . S
C592 C596 1.524 1_556 S
C593 C585 1.503 1_556 S
C593 C592 1.370 . S
C593 C594 1.403 . S
C594 C593 1.403 . S
C594 C595 1.404 . S
C594 C597 1.539 . S
C595 C591 1.408 . S
C595 C594 1.404 . S
C595 H607 0.930 . S
C596 C592 1.524 1_554 S
C596 H608 0.956 . S
C596 H609 0.961 . S
C596 H610 0.964 . S
C597 C594 1.539 . S
C597 H611 0.958 . S
C597 H612 0.961 . S
C597 H613 0.960 . S
H598 C582 0.931 . S
H599 C587 0.929 . S
H600 C588 0.960 . S
H601 C588 0.962 . S
H602 C588 0.960 . S
H603 C589 0.961 . S
H604 C589 0.961 . S
H605 C589 0.961 . S
H606 C590 0.931 . S
H607 C595 0.930 . S
H608 C596 0.956 . S
H609 C596 0.961 . S
H610 C596 0.964 . S
H611 C597 0.958 . S
H612 C597 0.961 . S
H613 C597 0.960 . S
C614 C615 1.391 . S
C614 C616 1.394 . S
C614 H630 0.931 . S
C615 C614 1.391 . S
C615 C619 1.376 . S
C616 C614 1.394 . S
C616 C617 1.369 . S
C616 C620 1.531 . S
C617 C616 1.369 . S
C617 C618 1.410 . S
C617 C625 1.503 1_655 S
C618 C617 1.410 . S
C618 C619 1.392 . S
C618 C621 1.511 1_655 S
C619 C615 1.376 . S
C619 C618 1.392 . S
C619 H631 0.929 . S
C620 C616 1.531 . S
C620 H632 0.960 . S
C620 H633 0.962 . S
C620 H634 0.960 . S
C621 C618 1.511 1_455 S
C621 H635 0.961 . S
C621 H636 0.961 . S
C621 H637 0.961 . S
C622 C623 1.370 . S
C622 C624 1.363 . S
C622 H638 0.931 . S
C623 C622 1.370 . S
C623 C627 1.408 . S
C624 C622 1.363 . S
C624 C625 1.370 . S
C624 C628 1.524 1_455 S
C625 C617 1.503 1_455 S
C625 C624 1.370 . S
C625 C626 1.403 . S
C626 C625 1.403 . S
C626 C627 1.404 . S
C626 C629 1.539 . S
C627 C623 1.408 . S
C627 C626 1.404 . S
C627 H639 0.930 . S
C628 C624 1.524 1_655 S
C628 H640 0.956 . S
C628 H641 0.961 . S
C628 H642 0.980 . S
C629 C626 1.539 . S
C629 H643 0.958 1_455 S
C629 H644 0.961 . S
C629 H645 0.960 . S
H630 C614 0.931 . S
H631 C619 0.929 . S
H632 C620 0.960 . S
H633 C620 0.962 . S
H634 C620 0.960 . S
H635 C621 0.961 . S
H636 C621 0.961 . S
H637 C621 0.961 . S
H638 C622 0.931 . S
H639 C627 0.930 . S
H640 C628 0.956 . S
H641 C628 0.961 . S
H642 C628 0.980 . S
H643 C629 0.958 1_655 S
H644 C629 0.961 . S
H645 C629 0.960 . S
C646 C647 1.391 . S
C646 C648 1.394 . S
C646 H662 0.931 . S
C647 C646 1.391 . S
C647 C651 1.376 . S
C648 C646 1.394 . S
C648 C649 1.369 . S
C648 C652 1.531 1_554 S
C649 C648 1.369 . S
C649 C650 1.410 . S
C649 C657 1.503 1_554 S
C650 C649 1.410 . S
C650 C651 1.392 . S
C650 C653 1.511 . S
C651 C647 1.376 . S
C651 C650 1.392 . S
C651 H663 0.929 . S
C652 C648 1.531 1_556 S
C652 H664 0.960 . S
C652 H665 0.962 . S
C652 H666 0.960 . S
C653 C650 1.511 . S
C653 H667 0.961 1_565 S
C653 H668 0.961 1_565 S
C653 H669 0.961 . S
C654 C655 1.370 . S
C654 C656 1.363 . S
C654 H670 0.931 . S
C655 C654 1.370 . S
C655 C659 1.408 . S
C656 C654 1.363 . S
C656 C657 1.370 1_545 S
C656 C660 1.524 1_556 S
C657 C649 1.503 1_556 S
C657 C656 1.370 1_565 S
C657 C658 1.403 . S
C658 C657 1.403 . S
C658 C659 1.404 1_565 S
C658 C661 1.539 . S
C659 C655 1.408 . S
C659 C658 1.404 1_545 S
C659 H671 0.930 . S
C660 C656 1.524 1_554 S
C660 H672 0.956 . S
C660 H673 0.961 . S
C660 H674 0.961 . S
C661 C658 1.539 . S
C661 H675 0.958 . S
C661 H676 0.961 . S
C661 H677 0.960 . S
H662 C646 0.931 . S
H663 C651 0.929 . S
H664 C652 0.960 . S
H665 C652 0.962 . S
H666 C652 0.960 . S
H667 C653 0.961 1_545 S
H668 C653 0.961 1_545 S
H669 C653 0.961 . S
H670 C654 0.931 . S
H671 C659 0.930 . S
H672 C660 0.956 . S
H673 C660 0.961 . S
H674 C660 0.961 . S
H675 C661 0.958 . S
H676 C661 0.961 . S
H677 C661 0.960 . S
C678 C679 1.391 . S
C678 C680 1.394 . S
C678 H694 0.931 . S
C679 C678 1.391 . S
C679 C683 1.376 . S
C680 C678 1.394 . S
C680 C681 1.369 . S
C680 C684 1.531 . S
C681 C680 1.369 . S
C681 C682 1.410 . S
C681 C689 1.503 . S
C682 C681 1.410 . S
C682 C683 1.392 . S
C682 C685 1.511 . S
C683 C679 1.376 . S
C683 C682 1.392 . S
C683 H695 0.929 . S
C684 C680 1.531 . S
C684 H696 0.960 . S
C684 H697 0.962 . S
C684 H698 0.960 . S
C685 C682 1.511 . S
C685 H699 0.961 . S
C685 H700 0.961 . S
C685 H701 0.961 . S
C686 C687 1.370 . S
C686 C688 1.363 . S
C686 H702 0.931 . S
C687 C686 1.370 . S
C687 C691 1.408 . S
C688 C686 1.363 . S
C688 C689 1.370 . S
C688 C692 1.524 . S
C689 C681 1.503 . S
C689 C688 1.370 . S
C689 C690 1.403 . S
C690 C689 1.403 . S
C690 C691 1.404 . S
C690 C693 1.539 . S
C691 C687 1.408 . S
C691 C690 1.404 . S
C691 H703 0.930 . S
C692 C688 1.524 . S
C692 H704 0.956 . S
C692 H705 0.961 . S
C692 H706 0.961 . S
C693 C690 1.539 . S
C693 H707 0.958 . S
C693 H708 0.961 . S
C693 H709 0.960 . S
H694 C678 0.931 . S
H695 C683 0.929 . S
H696 C684 0.960 . S
H697 C684 0.962 . S
H698 C684 0.960 . S
H699 C685 0.961 . S
H700 C685 0.961 . S
H701 C685 0.961 . S
H702 C686 0.931 . S
H703 C691 0.930 . S
H704 C692 0.956 . S
H705 C692 0.961 . S
H706 C692 0.961 . S
H707 C693 0.958 . S
H708 C693 0.961 . S
H709 C693 0.960 . S
C710 C711 1.391 . S
C710 C712 1.394 . S
C710 H726 0.931 . S
C711 C710 1.391 . S
C711 C715 1.376 . S
C712 C710 1.394 . S
C712 C713 1.369 1_655 S
C712 C716 1.531 1_556 S
C713 C712 1.369 1_455 S
C713 C714 1.410 . S
C713 C721 1.503 1_556 S
C714 C713 1.410 . S
C714 C715 1.392 1_455 S
C714 C717 1.511 . S
C715 C711 1.376 . S
C715 C714 1.392 1_655 S
C715 H727 0.929 . S
C716 C712 1.531 1_554 S
C716 H728 0.960 . S
C716 H729 0.962 . S
C716 H730 0.960 . S
C717 C714 1.511 . S
C717 H731 0.961 . S
C717 H732 0.961 . S
C717 H733 0.961 . S
C718 C719 1.370 . S
C718 C720 1.363 . S
C718 H734 0.931 . S
C719 C718 1.370 . S
C719 C723 1.408 . S
C720 C718 1.363 . S
C720 C721 1.370 . S
C720 C724 1.524 . S
C721 C713 1.503 1_554 S
C721 C720 1.370 . S
C721 C722 1.403 . S
C722 C721 1.403 . S
C722 C723 1.404 . S
C722 C725 1.539 . S
C723 C719 1.408 . S
C723 C722 1.404 . S
C723 H735 0.930 . S
C724 C720 1.524 . S
C724 H736 0.956 1_455 S
C724 H737 0.961 1_554 S
C724 H738 0.961 . S
C725 C722 1.539 . S
C725 H739 0.958 . S
C725 H740 0.961 . S
C725 H741 0.960 1_554 S
H726 C710 0.931 . S
H727 C715 0.929 . S
H728 C716 0.960 . S
H729 C716 0.962 . S
H730 C716 0.960 . S
H731 C717 0.961 . S
H732 C717 0.961 . S
H733 C717 0.961 . S
H734 C718 0.931 . S
H735 C723 0.930 . S
H736 C724 0.956 1_655 S
H737 C724 0.961 1_556 S
H738 C724 0.961 . S
H739 C725 0.958 . S
H740 C725 0.961 . S
H741 C725 0.960 1_556 S
C742 C743 1.391 . S
C742 C744 1.394 . S
C742 H758 0.931 . S
C743 C742 1.391 . S
C743 C747 1.376 . S
C744 C742 1.394 . S
C744 C745 1.369 . S
C744 C748 1.531 1_545 S
C745 C744 1.369 . S
C745 C746 1.410 . S
C745 C753 1.503 1_545 S
C746 C745 1.410 . S
C746 C747 1.392 . S
C746 C749 1.511 . S
C747 C743 1.376 . S
C747 C746 1.392 . S
C747 H759 0.929 . S
C748 C744 1.531 1_565 S
C748 H760 0.960 . S
C748 H761 0.962 . S
C748 H762 0.960 . S
C749 C746 1.511 . S
C749 H763 0.961 . S
C749 H764 0.961 . S
C749 H765 0.961 . S
C750 C751 1.370 . S
C750 C752 1.363 . S
C750 H766 0.931 . S
C751 C750 1.370 . S
C751 C755 1.408 . S
C752 C750 1.363 . S
C752 C753 1.370 . S
C752 C756 1.524 1_565 S
C753 C745 1.503 1_565 S
C753 C752 1.370 . S
C753 C754 1.403 . S
C754 C753 1.403 . S
C754 C755 1.404 . S
C754 C757 1.539 . S
C755 C751 1.408 . S
C755 C754 1.404 . S
C755 H767 0.930 . S
C756 C752 1.524 1_545 S
C756 H768 0.956 . S
C756 H769 0.961 . S
C756 H770 0.961 . S
C757 C754 1.539 . S
C757 H771 0.958 . S
C757 H772 0.961 . S
C757 H773 0.960 . S
H758 C742 0.931 . S
H759 C747 0.929 . S
H760 C748 0.960 . S
H761 C748 0.962 . S
H762 C748 0.960 . S
H763 C749 0.961 . S
H764 C749 0.961 . S
H765 C749 0.961 . S
H766 C750 0.931 . S
H767 C755 0.930 . S
H768 C756 0.956 . S
H769 C756 0.961 . S
H770 C756 0.961 . S
H771 C757 0.958 . S
H772 C757 0.961 . S
H773 C757 0.960 . S
C774 C775 1.391 . S
C774 C776 1.394 . S
C774 H790 0.931 . S
C775 C774 1.391 . S
C775 C779 1.376 . S
C776 C774 1.394 . S
C776 C777 1.369 . S
C776 C780 1.531 . S
C777 C776 1.369 . S
C777 C778 1.410 . S
C777 C785 1.503 1_556 S
C778 C777 1.410 . S
C778 C779 1.392 . S
C778 C781 1.511 1_556 S
C779 C775 1.376 . S
C779 C778 1.392 . S
C779 H791 0.929 . S
C780 C776 1.531 . S
C780 H792 0.960 1_556 S
C780 H793 0.962 . S
C780 H794 0.960 . S
C781 C778 1.511 1_554 S
C781 H795 0.961 1_554 S
C781 H796 0.961 . S
C781 H797 0.961 . S
C782 C783 1.370 . S
C782 C784 1.363 . S
C782 H798 0.931 . S
C783 C782 1.370 . S
C783 C787 1.408 . S
C784 C782 1.363 . S
C784 C785 1.370 . S
C784 C788 1.524 1_554 S
C785 C777 1.503 1_554 S
C785 C784 1.370 . S
C785 C786 1.403 . S
C786 C785 1.403 . S
C786 C787 1.404 . S
C786 C789 1.539 . S
C787 C783 1.408 . S
C787 C786 1.404 . S
C787 H799 0.930 . S
C788 C784 1.524 1_556 S
C788 H800 0.956 . S
C788 H801 0.961 . S
C788 H802 0.961 . S
C789 C786 1.539 . S
C789 H803 0.958 . S
C789 H804 0.961 . S
C789 H805 0.960 . S
H790 C774 0.931 . S
H791 C779 0.929 . S
H792 C780 0.960 1_554 S
H793 C780 0.962 . S
H794 C780 0.960 . S
H795 C781 0.961 1_556 S
H796 C781 0.961 . S
H797 C781 0.961 . S
H798 C782 0.931 . S
H799 C787 0.930 . S
H800 C788 0.956 . S
H801 C788 0.961 . S
H802 C788 0.961 . S
H803 C789 0.958 . S
H804 C789 0.961 . S
H805 C789 0.960 . S
C806 C807 1.391 . S
C806 C808 1.394 . S
C806 H822 0.931 . S
C807 C806 1.391 . S
C807 C811 1.376 . S
C808 C806 1.394 . S
C808 C809 1.369 . S
C808 C812 1.531 . S
C809 C808 1.369 . S
C809 C810 1.410 . S
C809 C817 1.503 1_455 S
C810 C809 1.410 . S
C810 C811 1.392 . S
C810 C813 1.511 1_455 S
C811 C807 1.376 . S
C811 C810 1.392 . S
C811 H823 0.929 . S
C812 C808 1.531 . S
C812 H824 0.960 . S
C812 H825 0.962 . S
C812 H826 0.960 . S
C813 C810 1.511 1_655 S
C813 H827 0.961 . S
C813 H828 0.961 . S
C813 H829 0.961 . S
C814 C815 1.370 . S
C814 C816 1.363 . S
C814 H830 0.931 . S
C815 C814 1.370 . S
C815 C819 1.408 . S
C816 C814 1.363 . S
C816 C817 1.370 . S
C816 C820 1.524 1_655 S
C817 C809 1.503 1_655 S
C817 C816 1.370 . S
C817 C818 1.403 . S
C818 C817 1.403 . S
C818 C819 1.404 . S
C818 C821 1.539 . S
C819 C815 1.408 . S
C819 C818 1.404 . S
C819 H831 0.930 . S
C820 C816 1.524 1_455 S
C820 H832 0.956 . S
C820 H833 0.961 . S
C820 H834 0.961 . S
C821 C818 1.539 . S
C821 H835 0.958 1_655 S
C821 H836 0.961 . S
C821 H837 0.960 . S
H822 C806 0.931 . S
H823 C811 0.929 . S
H824 C812 0.960 . S
H825 C812 0.962 . S
H826 C812 0.960 . S
H827 C813 0.961 . S
H828 C813 0.961 . S
H829 C813 0.961 . S
H830 C814 0.931 . S
H831 C819 0.930 . S
H832 C820 0.956 . S
H833 C820 0.961 . S
H834 C820 0.961 . S
H835 C821 0.958 1_455 S
H836 C821 0.961 . S
H837 C821 0.960 . S
C838 C839 1.391 . S
C838 C840 1.394 . S
C838 H854 0.931 . S
C839 C838 1.391 . S
C839 C843 1.376 . S
C840 C838 1.394 . S
C840 C841 1.369 . S
C840 C844 1.531 1_556 S
C841 C840 1.369 . S
C841 C842 1.410 . S
C841 C849 1.503 1_556 S
C842 C841 1.410 . S
C842 C843 1.392 . S
C842 C845 1.511 . S
C843 C839 1.376 . S
C843 C842 1.392 . S
C843 H855 0.929 . S
C844 C840 1.531 1_554 S
C844 H856 0.960 . S
C844 H857 0.962 . S
C844 H858 0.960 . S
C845 C842 1.511 . S
C845 H859 0.961 . S
C845 H860 0.961 1_545 S
C845 H861 0.961 . S
C846 C847 1.370 . S
C846 C848 1.363 . S
C846 H862 0.931 . S
C847 C846 1.370 . S
C847 C851 1.408 . S
C848 C846 1.363 . S
C848 C849 1.370 1_565 S
C848 C852 1.524 1_554 S
C849 C841 1.503 1_554 S
C849 C848 1.370 1_545 S
C849 C850 1.403 . S
C850 C849 1.403 . S
C850 C851 1.404 1_545 S
C850 C853 1.539 . S
C851 C847 1.408 . S
C851 C850 1.404 1_565 S
C851 H863 0.930 . S
C852 C848 1.524 1_556 S
C852 H864 0.956 . S
C852 H865 0.961 . S
C852 H866 0.961 . S
C853 C850 1.539 . S
C853 H867 0.958 . S
C853 H868 0.961 . S
C853 H869 0.960 . S
H854 C838 0.931 . S
H855 C843 0.929 . S
H856 C844 0.960 . S
H857 C844 0.962 . S
H858 C844 0.960 . S
H859 C845 0.961 . S
H860 C845 0.961 1_565 S
H861 C845 0.961 . S
H862 C846 0.931 . S
H863 C851 0.930 . S
H864 C852 0.956 . S
H865 C852 0.961 . S
H866 C852 0.961 . S
H867 C853 0.958 . S
H868 C853 0.961 . S
H869 C853 0.960 . S
C870 C871 1.391 . S
C870 C872 1.394 . S
C870 H886 0.931 . S
C871 C870 1.391 . S
C871 C875 1.376 . S
C872 C870 1.394 . S
C872 C873 1.369 . S
C872 C876 1.531 . S
C873 C872 1.369 . S
C873 C874 1.410 . S
C873 C881 1.503 . S
C874 C873 1.410 . S
C874 C875 1.392 . S
C874 C877 1.511 . S
C875 C871 1.376 . S
C875 C874 1.392 . S
C875 H887 0.929 . S
C876 C872 1.531 . S
C876 H888 0.960 . S
C876 H889 0.962 . S
C876 H890 0.960 . S
C877 C874 1.511 . S
C877 H891 0.961 . S
C877 H892 0.961 . S
C877 H893 0.961 . S
C878 C879 1.370 . S
C878 C880 1.363 . S
C878 H894 0.931 . S
C879 C878 1.370 . S
C879 C883 1.408 . S
C880 C878 1.363 . S
C880 C881 1.370 . S
C880 C884 1.524 . S
C881 C873 1.503 . S
C881 C880 1.370 . S
C881 C882 1.403 . S
C882 C881 1.403 . S
C882 C883 1.404 . S
C882 C885 1.539 . S
C883 C879 1.408 . S
C883 C882 1.404 . S
C883 H895 0.930 . S
C884 C880 1.524 . S
C884 H896 0.956 . S
C884 H897 0.961 . S
C884 H898 0.961 . S
C885 C882 1.539 . S
C885 H899 0.958 . S
C885 H900 0.961 . S
C885 H901 0.960 . S
H886 C870 0.931 . S
H887 C875 0.929 . S
H888 C876 0.960 . S
H889 C876 0.962 . S
H890 C876 0.960 . S
H891 C877 0.961 . S
H892 C877 0.961 . S
H893 C877 0.961 . S
H894 C878 0.931 . S
H895 C883 0.930 . S
H896 C884 0.956 . S
H897 C884 0.961 . S
H898 C884 0.961 . S
H899 C885 0.958 . S
H900 C885 0.961 . S
H901 C885 0.960 . S
C902 C903 1.391 . S
C902 C904 1.394 1_455 S
C902 H918 0.931 . S
C903 C902 1.391 . S
C903 C907 1.376 . S
C904 C902 1.394 1_655 S
C904 C905 1.369 . S
C904 C908 1.531 . S
C905 C904 1.369 . S
C905 C906 1.410 1_655 S
C905 C913 1.503 1_554 S
C906 C905 1.410 1_455 S
C906 C907 1.392 . S
C906 C909 1.511 1_554 S
C907 C903 1.376 . S
C907 C906 1.392 . S
C907 H919 0.929 . S
C908 C904 1.531 . S
C908 H920 0.960 . S
C908 H921 0.962 . S
C908 H922 0.960 . S
C909 C906 1.511 1_556 S
C909 H923 0.961 . S
C909 H924 0.961 . S
C909 H925 0.961 . S
C910 C911 1.370 . S
C910 C912 1.363 . S
C910 H926 0.931 . S
C911 C910 1.370 . S
C911 C915 1.408 . S
C912 C910 1.363 . S
C912 C913 1.370 . S
C912 C916 1.524 . S
C913 C905 1.503 1_556 S
C913 C912 1.370 . S
C913 C914 1.403 . S
C914 C913 1.403 . S
C914 C915 1.404 . S
C914 C917 1.539 1_556 S
C915 C911 1.408 . S
C915 C914 1.404 . S
C915 H927 0.930 . S
C916 C912 1.524 . S
C916 H928 0.956 . S
C916 H929 0.961 1_655 S
C916 H930 0.961 . S
C917 C914 1.539 1_554 S
C917 H931 0.958 . S
C917 H932 0.961 1_554 S
C917 H933 0.960 . S
H918 C902 0.931 . S
H919 C907 0.929 . S
H920 C908 0.960 . S
H921 C908 0.962 . S
H922 C908 0.960 . S
H923 C909 0.961 . S
H924 C909 0.961 . S
H925 C909 0.961 . S
H926 C910 0.931 . S
H927 C915 0.930 . S
H928 C916 0.956 . S
H929 C916 0.961 1_455 S
H930 C916 0.961 . S
H931 C917 0.958 . S
H932 C917 0.961 1_556 S
H933 C917 0.960 . S
C934 C935 1.391 . S
C934 C936 1.394 1_545 S
C934 H950 0.931 . S
C935 C934 1.391 . S
C935 C939 1.376 . S
C936 C934 1.394 1_565 S
C936 C937 1.369 . S
C936 C940 1.531 . S
C937 C936 1.369 . S
C937 C938 1.410 1_565 S
C937 C945 1.503 . S
C938 C937 1.410 1_545 S
C938 C939 1.392 . S
C938 C941 1.511 . S
C939 C935 1.376 . S
C939 C938 1.392 . S
C939 H951 0.929 . S
C940 C936 1.531 . S
C940 H952 0.960 . S
C940 H953 0.962 . S
C940 H954 0.960 . S
C941 C938 1.511 . S
C941 H955 0.961 . S
C941 H956 0.961 . S
C941 H957 0.961 . S
C942 C943 1.370 . S
C942 C944 1.363 . S
C942 H958 0.931 . S
C943 C942 1.370 . S
C943 C947 1.408 . S
C944 C942 1.363 . S
C944 C945 1.370 . S
C944 C948 1.524 . S
C945 C937 1.503 . S
C945 C944 1.370 . S
C945 C946 1.403 . S
C946 C945 1.403 . S
C946 C947 1.404 . S
C946 C949 1.539 . S
C947 C943 1.408 . S
C947 C946 1.404 . S
C947 H959 0.930 . S
C948 C944 1.524 . S
C948 H960 0.956 . S
C948 H961 0.961 1_565 S
C948 H962 0.961 . S
C949 C946 1.539 . S
C949 H963 0.958 . S
C949 H964 0.961 . S
C949 H965 0.960 . S
H950 C934 0.931 . S
H951 C939 0.929 . S
H952 C940 0.960 . S
H953 C940 0.962 . S
H954 C940 0.960 . S
H955 C941 0.961 . S
H956 C941 0.961 . S
H957 C941 0.961 . S
H958 C942 0.931 . S
H959 C947 0.930 . S
H960 C948 0.956 . S
H961 C948 0.961 1_545 S
H962 C948 0.961 . S
H963 C949 0.958 . S
H964 C949 0.961 . S
H965 C949 0.960 . S
C199 C24 1.971 . S
C207 C153 2.041 . S
C231 C190 2.028 . S
C239 C61 1.972 . S
C263 C21 2.052 . S
C271 C90 1.992 . S
C295 C58 2.036 . S
C303 C127 1.976 . S
C327 C156 1.975 . S
C335 C87 2.042 . S
C359 C193 1.960 . S
C367 C124 2.036 . S
C391 C28 0.502 . S
C399 C157 0.189 . S
C423 C57 0.588 . S
C431 C186 0.198 . S
C455 C25 0.283 . S
C463 C94 0.555 . S
C487 C54 0.289 . S
C495 C123 0.578 . S
C519 C91 0.160 . S
C527 C160 0.560 . S
C551 C189 0.667 . S
C559 C120 0.223 . S
C583 C27 2.010 . S
C591 C187 2.111 . S
C615 C59 2.508 . S
C623 C23 2.404 . S
C647 C93 2.046 . S
C655 C55 2.125 . S
C679 C125 2.518 . S
C687 C89 2.397 . S
C711 C121 2.136 . S
C719 C159 2.024 . S
C743 C191 2.516 . S
C751 C155 2.417 . S
C775 C122 2.048 . S
C783 C92 2.115 . S
C807 C154 2.522 . S
C815 C126 2.416 . S
C839 C188 2.030 . S
C847 C158 2.110 . S
C871 C192 2.401 . S
C879 C22 2.528 . S
C903 C26 2.126 . S
C911 C56 2.024 . S
C935 C60 2.377 . S
C943 C88 2.522 . S
