# Generated by pormake.
# Topology acs-g, (3)-cn, num edge types: 1
# Building blocks:
#     Node 0, Type 0, BuildingBlock: OLANEW_clean_sbu_2, # of connection points: 3
#     Node 1, Type 0, BuildingBlock: OLANEW_clean_sbu_2, # of connection points: 3
#     Node 2, Type 0, BuildingBlock: OLANEW_clean_sbu_2, # of connection points: 3
#     Node 3, Type 0, BuildingBlock: OLANEW_clean_sbu_2, # of connection points: 3
#     Node 4, Type 0, BuildingBlock: OLANEW_clean_sbu_2, # of connection points: 3
#     Node 5, Type 0, BuildingBlock: OLANEW_clean_sbu_2, # of connection points: 3
#     Node 6, Type 0, BuildingBlock: OLANEW_clean_sbu_2, # of connection points: 3
#     Node 7, Type 0, BuildingBlock: OLANEW_clean_sbu_2, # of connection points: 3
#     Node 8, Type 0, BuildingBlock: OLANEW_clean_sbu_2, # of connection points: 3
#     Node 9, Type 0, BuildingBlock: OLANEW_clean_sbu_2, # of connection points: 3
#     Node 10, Type 0, BuildingBlock: OLANEW_clean_sbu_2, # of connection points: 3
#     Node 11, Type 0, BuildingBlock: OLANEW_clean_sbu_2, # of connection points: 3
#     Edge 12, Type (0, 0), BuildingBlock: XUDNAN_clean_linker_2, # of connection points: 2
#     Edge 13, Type (0, 0), BuildingBlock: XUDNAN_clean_linker_2, # of connection points: 2
#     Edge 14, Type (0, 0), BuildingBlock: XUDNAN_clean_linker_2, # of connection points: 2
#     Edge 15, Type (0, 0), BuildingBlock: XUDNAN_clean_linker_2, # of connection points: 2
#     Edge 16, Type (0, 0), BuildingBlock: XUDNAN_clean_linker_2, # of connection points: 2
#     Edge 17, Type (0, 0), BuildingBlock: XUDNAN_clean_linker_2, # of connection points: 2
#     Edge 18, Type (0, 0), BuildingBlock: XUDNAN_clean_linker_2, # of connection points: 2
#     Edge 19, Type (0, 0), BuildingBlock: XUDNAN_clean_linker_2, # of connection points: 2
#     Edge 20, Type (0, 0), BuildingBlock: XUDNAN_clean_linker_2, # of connection points: 2
#     Edge 21, Type (0, 0), BuildingBlock: XUDNAN_clean_linker_2, # of connection points: 2
#     Edge 22, Type (0, 0), BuildingBlock: XUDNAN_clean_linker_2, # of connection points: 2
#     Edge 23, Type (0, 0), BuildingBlock: XUDNAN_clean_linker_2, # of connection points: 2
#     Edge 24, Type (0, 0), BuildingBlock: XUDNAN_clean_linker_2, # of connection points: 2
#     Edge 25, Type (0, 0), BuildingBlock: XUDNAN_clean_linker_2, # of connection points: 2
#     Edge 26, Type (0, 0), BuildingBlock: XUDNAN_clean_linker_2, # of connection points: 2
#     Edge 27, Type (0, 0), BuildingBlock: XUDNAN_clean_linker_2, # of connection points: 2
#     Edge 28, Type (0, 0), BuildingBlock: XUDNAN_clean_linker_2, # of connection points: 2
#     Edge 29, Type (0, 0), BuildingBlock: XUDNAN_clean_linker_2, # of connection points: 2
# Relax obj value: 0.001
# Max RMSD: 0.043
# Mean RMSD: 0.043
data_MOF--net-acs-g--node1-OLANEW_clean_sbu_2--edge1-XUDNAN_clean_linker_2
_symmetry_space_group_name_H-M    P1
_symmetry_Int_Tables_number       1
_symmetry_cell_setting            triclinic
loop_
_symmetry_equiv_pos_as_xyz
'x, y, z'
_cell_length_a     54.233041
_cell_length_b     54.232371
_cell_length_c     46.998248
_cell_angle_alpha  90.020523
_cell_angle_beta   89.979639
_cell_angle_gamma 120.08295
loop_
_atom_site_label
_atom_site_type_symbol
_atom_site_fract_x
_atom_site_fract_y
_atom_site_fract_z
_atom_type_partial_charge
O0 O 0.38607 0.44011 0.17576 0.0
Cd1 Cd 0.34274 0.40789 0.14927 0.0
O2 O 0.36782 0.41856 0.21655 0.0
Cd3 Cd 0.32316 0.39454 0.20348 0.0
O4 O 0.28059 0.38391 0.21819 0.0
C5 C 0.27607 0.37866 0.24465 0.0
O6 O 0.29613 0.37849 0.2602 0.0
C7 C 0.38894 0.43692 0.20215 0.0
C8 C 0.35231 0.40491 0.09107 0.0
O9 O 0.34411 0.42183 0.10046 0.0
O10 O 0.35628 0.38957 0.10918 0.0
O11 O 0.94085 0.3731 0.68105 0.0
Cd12 Cd 0.93044 0.33234 0.6505 0.0
O13 O 0.94342 0.35189 0.72001 0.0
Cd14 Cd 0.92397 0.3088 0.70247 0.0
O15 O 0.89066 0.26419 0.70789 0.0
C16 C 0.89415 0.24876 0.72597 0.0
O17 O 0.91863 0.25941 0.73941 0.0
C18 C 0.94622 0.37396 0.70751 0.0
C19 C 0.96008 0.34938 0.59878 0.0
O20 O 0.93437 0.3443 0.60066 0.0
O21 O 0.97171 0.34641 0.62126 0.0
O22 O 0.56234 0.96159 0.17587 0.0
Cd23 Cd 0.59207 0.95022 0.14539 0.0
O24 O 0.5877 0.96549 0.21399 0.0
Cd25 Cd 0.61156 0.94703 0.19493 0.0
O26 O 0.62479 0.91496 0.19366 0.0
C27 C 0.61771 0.89849 0.2151 0.0
O28 O 0.6037 0.90212 0.23597 0.0
C29 C 0.56771 0.96755 0.20216 0.0
C30 C 0.59402 0.96548 0.08812 0.0
O31 O 0.57564 0.94056 0.09698 0.0
O32 O 0.61121 0.9834 0.10641 0.0
O33 O 0.59488 0.55718 0.66876 0.0
Cd34 Cd 0.63915 0.59425 0.64712 0.0
O35 O 0.61297 0.55904 0.71123 0.0
Cd36 Cd 0.65769 0.58852 0.70106 0.0
O37 O 0.70244 0.60201 0.70931 0.0
C38 C 0.7063 0.58363 0.72226 0.0
O39 O 0.68392 0.55897 0.72876 0.0
C40 C 0.59167 0.54887 0.69451 0.0
C41 C 0.62896 0.61031 0.59369 0.0
O42 O 0.63612 0.59118 0.59595 0.0
O43 O 0.62676 0.6219 0.6166 0.0
O44 O 0.04956 0.61495 0.18388 0.0
Cd45 Cd 0.06137 0.6577 0.15603 0.0
O46 O 0.04546 0.63396 0.22376 0.0
Cd47 Cd 0.066 0.67783 0.20821 0.0
O48 O 0.10029 0.72196 0.21393 0.0
C49 C 0.09888 0.73611 0.23482 0.0
O50 O 0.07599 0.72445 0.25094 0.0
C51 C 0.0431 0.6126 0.21016 0.0
C52 C 0.0526 0.64741 0.09747 0.0
O53 O 0.07708 0.65581 0.1087 0.0
O54 O 0.03213 0.64359 0.11394 0.0
O55 O 0.46241 0.09237 0.67962 0.0
Cd56 Cd 0.41901 0.08654 0.65707 0.0
O57 O 0.4388 0.06196 0.71396 0.0
Cd58 Cd 0.40199 0.06761 0.70786 0.0
O59 O 0.38369 0.09321 0.72305 0.0
C60 C 0.37634 0.09069 0.74907 0.0
O61 O 0.37805 0.07154 0.76473 0.0
C62 C 0.46203 0.07761 0.70084 0.0
C63 C 0.4064 0.05548 0.60621 0.0
O64 O 0.4211 0.08277 0.60612 0.0
O65 O 0.39771 0.04292 0.63028 0.0
O66 O 0.5656 0.60288 0.3124 0.0
Cd67 Cd 0.60247 0.64775 0.33319 0.0
O68 O 0.56391 0.62049 0.27065 0.0
Cd69 Cd 0.59322 0.66546 0.28 0.0
O70 O 0.60829 0.71068 0.27262 0.0
C71 C 0.62157 0.72219 0.2497 0.0
O72 O 0.62743 0.70704 0.23204 0.0
C73 C 0.55558 0.5993 0.2873 0.0
C74 C 0.60462 0.64407 0.39252 0.0
O75 O 0.58987 0.65373 0.3807 0.0
O76 O 0.61839 0.63616 0.37632 0.0
O77 O 0.96217 0.54954 0.82564 0.0
Cd78 Cd 0.95808 0.5887 0.84658 0.0
O79 O 0.94566 0.55124 0.78326 0.0
Cd80 Cd 0.93286 0.58267 0.79291 0.0
O81 O 0.90372 0.59884 0.78494 0.0
C82 C 0.87733 0.58033 0.78503 0.0
O83 O 0.86963 0.55381 0.79125 0.0
C84 C 0.95619 0.5406 0.80013 0.0
C85 C 0.98641 0.60526 0.89898 0.0
O86 O 0.95961 0.58739 0.8978 0.0
O87 O 0.99971 0.61538 0.8755 0.0
O88 O 0.4089 0.97618 0.32888 0.0
Cd89 Cd 0.36519 0.96859 0.35219 0.0
O90 O 0.38859 0.95661 0.28799 0.0
Cd91 Cd 0.3445 0.94214 0.30027 0.0
O92 O 0.29814 0.91488 0.29747 0.0
C93 C 0.28876 0.89739 0.2768 0.0
O94 O 0.30711 0.89709 0.25874 0.0
C95 C 0.4108 0.96935 0.30339 0.0
C96 C 0.37246 0.97991 0.41075 0.0
O97 O 0.36366 0.95476 0.40106 0.0
O98 O 0.37796 0.99979 0.39277 0.0
O99 O 0.43631 0.38641 0.81624 0.0
Cd100 Cd 0.40473 0.34616 0.84686 0.0
O101 O 0.41289 0.36466 0.77728 0.0
Cd102 Cd 0.38896 0.3219 0.79552 0.0
O103 O 0.37761 0.27718 0.79171 0.0
C104 C 0.37041 0.25979 0.81235 0.0
O105 O 0.36865 0.26836 0.83803 0.0
C106 C 0.43216 0.38686 0.78964 0.0
C107 C 0.39057 0.36397 0.89718 0.0
O108 O 0.4108 0.35824 0.89676 0.0
O109 O 0.37711 0.3613 0.87394 0.0
O110 O 0.03204 0.43692 0.3229 0.0
Cd111 Cd 0.03943 0.39933 0.34271 0.0
O112 O 0.05162 0.43875 0.28127 0.0
Cd113 Cd 0.06746 0.40973 0.29096 0.0
O114 O 0.09818 0.39506 0.28605 0.0
C115 C 0.10917 0.38952 0.30721 0.0
O116 O 0.10095 0.39143 0.33302 0.0
C117 C 0.0387 0.44706 0.29785 0.0
C118 C 0.03009 0.39307 0.40157 0.0
O119 O 0.05518 0.40867 0.39136 0.0
O120 O 0.00936 0.38049 0.384 0.0
O121 O 0.63504 0.08833 0.81845 0.0
Cd122 Cd 0.66831 0.07993 0.84655 0.0
O123 O 0.61683 0.0472 0.79607 0.0
Cd124 Cd 0.65483 0.04515 0.8072 0.0
O125 O 0.70084 0.06914 0.79967 0.0
C126 C 0.70843 0.08823 0.7806 0.0
O127 O 0.68863 0.09113 0.76749 0.0
C128 C 0.61646 0.06994 0.80172 0.0
C129 C 0.64377 0.0481 0.89601 0.0
O130 O 0.65794 0.0754 0.89677 0.0
O131 O 0.64104 0.0359 0.87192 0.0
H132 H 0.23268 0.38383 0.22025 0.0
H133 H 0.26057 0.36619 0.30042 0.0
H134 H 0.21917 0.36403 0.32455 0.0
H135 H 0.21014 0.42947 0.24804 0.0
H136 H 0.17961 0.41725 0.22504 0.0
H137 H 0.21007 0.41501 0.21347 0.0
H138 H 0.17779 0.36082 0.20462 0.0
H139 H 0.14718 0.36291 0.2161 0.0
H140 H 0.15566 0.33826 0.23304 0.0
H141 H 0.17678 0.36718 0.34073 0.0
H142 H 0.13602 0.37491 0.34759 0.0
H143 H 0.13541 0.39017 0.25696 0.0
C144 C 0.22984 0.37905 0.24278 0.0
C145 C 0.24987 0.3751 0.2584 0.0
C146 C 0.24552 0.36924 0.28795 0.0
C147 C 0.22203 0.36792 0.30187 0.0
C148 C 0.20294 0.37236 0.28597 0.0
C149 C 0.20647 0.37766 0.25705 0.0
C150 C 0.18355 0.38295 0.2452 0.0
C151 C 0.19663 0.41295 0.23218 0.0
C152 C 0.16494 0.35985 0.22345 0.0
C153 C 0.16698 0.38041 0.27207 0.0
C154 C 0.1784 0.37409 0.29532 0.0
C155 C 0.16745 0.37183 0.32264 0.0
C156 C 0.14431 0.3763 0.32633 0.0
C157 C 0.1324 0.38303 0.30284 0.0
C158 C 0.14382 0.3848 0.27534 0.0
H159 H 0.73042 0.13155 0.74171 0.0
H160 H 0.75535 0.08949 0.80452 0.0
H161 H 0.80608 0.12395 0.7946 0.0
H162 H 0.78847 0.14914 0.69144 0.0
H163 H 0.79197 0.18307 0.68246 0.0
H164 H 0.75783 0.1538 0.69302 0.0
H165 H 0.75445 0.18496 0.73294 0.0
H166 H 0.7885 0.21429 0.72251 0.0
H167 H 0.78279 0.20158 0.75869 0.0
H168 H 0.85403 0.16513 0.77997 0.0
H169 H 0.89511 0.20978 0.76239 0.0
H170 H 0.83833 0.22437 0.70902 0.0
C171 C 0.74649 0.1293 0.75318 0.0
C172 C 0.73889 0.10775 0.77387 0.0
C173 C 0.76065 0.10576 0.78852 0.0
C174 C 0.78951 0.1252 0.78299 0.0
C175 C 0.79622 0.14637 0.76264 0.0
C176 C 0.77529 0.14845 0.74792 0.0
C177 C 0.78798 0.1739 0.72813 0.0
C178 C 0.78116 0.1644 0.69691 0.0
C179 C 0.77783 0.19492 0.73606 0.0
C180 C 0.81936 0.18623 0.73441 0.0
C181 C 0.82372 0.16994 0.75419 0.0
C182 C 0.85087 0.17787 0.76426 0.0
C183 C 0.87408 0.2033 0.75415 0.0
C184 C 0.87 0.22056 0.73423 0.0
C185 C 0.84226 0.21154 0.72399 0.0
H186 H 0.60561 0.7564 0.27779 0.0
H187 H 0.65073 0.75315 0.20285 0.0
H188 H 0.65717 0.79943 0.18703 0.0
H189 H 0.56738 0.78425 0.24373 0.0
H190 H 0.56935 0.80671 0.27295 0.0
H191 H 0.5706 0.7747 0.27973 0.0
H192 H 0.6185 0.80403 0.30647 0.0
H193 H 0.61732 0.83615 0.29992 0.0
H194 H 0.64792 0.8338 0.28892 0.0
H195 H 0.65563 0.8445 0.17765 0.0
H196 H 0.64682 0.88502 0.17599 0.0
H197 H 0.60268 0.85843 0.25702 0.0
C198 C 0.61729 0.76562 0.2583 0.0
C199 C 0.62774 0.75115 0.24161 0.0
C200 C 0.64258 0.76384 0.21605 0.0
C201 C 0.64637 0.79015 0.20688 0.0
C202 C 0.6353 0.80356 0.22355 0.0
C203 C 0.6212 0.7918 0.24881 0.0
C204 C 0.61011 0.80979 0.2621 0.0
C205 C 0.57743 0.79285 0.26477 0.0
C206 C 0.62432 0.82165 0.29107 0.0
C207 C 0.61971 0.83324 0.24013 0.0
C208 C 0.63437 0.8294 0.21814 0.0
C209 C 0.64441 0.84786 0.1949 0.0
C210 C 0.63926 0.87078 0.19411 0.0
C211 C 0.62412 0.87498 0.21638 0.0
C212 C 0.61446 0.85597 0.23972 0.0
H213 H 0.72064 0.54711 0.7473 0.0
H214 H 0.75731 0.63366 0.71566 0.0
H215 H 0.80526 0.64317 0.72991 0.0
H216 H 0.76644 0.56321 0.8082 0.0
H217 H 0.76852 0.53119 0.80487 0.0
H218 H 0.73726 0.53163 0.79271 0.0
H219 H 0.7432 0.51519 0.74264 0.0
H220 H 0.7744 0.51459 0.75467 0.0
H221 H 0.77651 0.53548 0.72397 0.0
H222 H 0.84948 0.6427 0.7475 0.0
H223 H 0.88598 0.6318 0.76509 0.0
H224 H 0.81949 0.54546 0.7846 0.0
C225 C 0.73869 0.56813 0.74339 0.0
C226 C 0.7352 0.58967 0.7304 0.0
C227 C 0.75947 0.61682 0.72558 0.0
C228 C 0.78676 0.62243 0.73367 0.0
C229 C 0.78939 0.60067 0.7465 0.0
C230 C 0.76596 0.57404 0.75123 0.0
C231 C 0.77439 0.55404 0.76476 0.0
C232 C 0.76085 0.54446 0.7944 0.0
C233 C 0.76667 0.52831 0.74535 0.0
C234 C 0.80629 0.57347 0.76679 0.0
C235 C 0.8146 0.60034 0.75633 0.0
C236 C 0.84317 0.62174 0.75578 0.0
C237 C 0.86374 0.61537 0.76586 0.0
C238 C 0.85562 0.58778 0.77623 0.0
C239 C 0.82645 0.56677 0.77687 0.0
H240 H 0.26295 0.85574 0.23638 0.0
H241 H 0.24471 0.89268 0.30972 0.0
H242 H 0.19343 0.85739 0.30484 0.0
H243 H 0.19889 0.83878 0.1959 0.0
H244 H 0.19493 0.80585 0.18247 0.0
H245 H 0.22987 0.83518 0.19065 0.0
H246 H 0.2388 0.80265 0.22438 0.0
H247 H 0.20395 0.77325 0.21628 0.0
H248 H 0.21389 0.78402 0.25272 0.0
H249 H 0.14448 0.81632 0.29345 0.0
H250 H 0.1019 0.77229 0.27712 0.0
H251 H 0.15242 0.76248 0.21116 0.0
C252 C 0.24819 0.85666 0.25127 0.0
C253 C 0.25787 0.87706 0.27341 0.0
C254 C 0.23781 0.87731 0.29256 0.0
C255 C 0.20863 0.85739 0.28991 0.0
C256 C 0.19987 0.83744 0.26796 0.0
C257 C 0.21907 0.83697 0.24895 0.0
C258 C 0.20439 0.81259 0.22803 0.0
C259 C 0.20719 0.82378 0.19745 0.0
C260 C 0.21594 0.79191 0.23052 0.0
C261 C 0.17396 0.79908 0.2385 0.0
C262 C 0.17174 0.81384 0.26141 0.0
C263 C 0.14593 0.80473 0.27538 0.0
C264 C 0.12186 0.77967 0.26594 0.0
C265 C 0.12375 0.76394 0.24279 0.0
C266 C 0.15014 0.77412 0.22872 0.0
H267 H 0.37667 0.23721 0.76245 0.0
H268 H 0.35435 0.21683 0.85148 0.0
H269 H 0.34958 0.16953 0.84393 0.0
H270 H 0.32947 0.16543 0.7342 0.0
H271 H 0.35496 0.16865 0.7077 0.0
H272 H 0.35423 0.19988 0.71958 0.0
H273 H 0.4077 0.22389 0.73302 0.0
H274 H 0.40859 0.19279 0.7212 0.0
H275 H 0.41946 0.20586 0.75692 0.0
H276 H 0.35052 0.12585 0.82741 0.0
H277 H 0.35779 0.08947 0.80349 0.0
H278 H 0.37948 0.13849 0.72522 0.0
C279 C 0.37036 0.22269 0.78032 0.0
C280 C 0.36578 0.23074 0.80757 0.0
C281 C 0.35789 0.21115 0.8304 0.0
C282 C 0.35506 0.1842 0.8263 0.0
C283 C 0.36007 0.17711 0.79923 0.0
C284 C 0.36749 0.19577 0.77661 0.0
C285 C 0.37322 0.18362 0.75003 0.0
C286 C 0.35168 0.17913 0.72649 0.0
C287 C 0.40407 0.20267 0.7397 0.0
C288 C 0.36849 0.15545 0.76137 0.0
C289 C 0.36065 0.15197 0.78972 0.0
C290 C 0.35636 0.12821 0.80514 0.0
C291 C 0.36057 0.10766 0.79135 0.0
C292 C 0.3691 0.11103 0.76243 0.0
C293 C 0.37265 0.13509 0.74723 0.0
H294 H 0.43226 0.48925 0.18492 0.0
H295 H 0.40649 0.42749 0.25338 0.0
H296 H 0.44908 0.46088 0.28082 0.0
H297 H 0.51047 0.52005 0.19307 0.0
H298 H 0.51762 0.55564 0.1856 0.0
H299 H 0.48724 0.52545 0.1697 0.0
H300 H 0.45416 0.54256 0.19063 0.0
H301 H 0.48434 0.57264 0.20671 0.0
H302 H 0.4545 0.54849 0.22842 0.0
H303 H 0.4918 0.50242 0.30272 0.0
H304 H 0.53135 0.54932 0.31763 0.0
H305 H 0.52884 0.58444 0.23535 0.0
C306 C 0.43599 0.48247 0.20535 0.0
C307 C 0.41617 0.45568 0.21691 0.0
C308 C 0.42143 0.44788 0.24405 0.0
C309 C 0.44561 0.46666 0.25978 0.0
C310 C 0.46436 0.4932 0.2481 0.0
C311 C 0.4599 0.50109 0.22147 0.0
C312 C 0.482 0.53172 0.21485 0.0
C313 C 0.50043 0.53329 0.18929 0.0
C314 C 0.4679 0.54991 0.20987 0.0
C315 C 0.49907 0.53999 0.24221 0.0
C316 C 0.48879 0.51737 0.26095 0.0
C317 C 0.50026 0.52022 0.2881 0.0
C318 C 0.5227 0.54698 0.2964 0.0
C319 C 0.53329 0.57062 0.27769 0.0
C320 C 0.52142 0.56682 0.25013 0.0
H321 H 0.94039 0.41976 0.69254 0.0
H322 H 0.96904 0.38651 0.76104 0.0
H323 H 0.97815 0.42759 0.79101 0.0
H324 H 0.99023 0.49605 0.70622 0.0
H325 H 0.96389 0.50593 0.6979 0.0
H326 H 0.96253 0.47554 0.68076 0.0
H327 H 0.91057 0.44373 0.69822 0.0
H328 H 0.91181 0.47394 0.7155 0.0
H329 H 0.9028 0.44227 0.73569 0.0
H330 H 0.98084 0.47033 0.8148 0.0
H331 H 0.97643 0.51134 0.83074 0.0
H332 H 0.94527 0.51625 0.74701 0.0
C333 C 0.94915 0.42142 0.71361 0.0
C334 C 0.95416 0.39999 0.72436 0.0
C335 C 0.96508 0.40268 0.7523 0.0
C336 C 0.97041 0.42599 0.76948 0.0
C337 C 0.96469 0.44644 0.75845 0.0
C338 C 0.95437 0.44444 0.73115 0.0
C339 C 0.9482 0.46826 0.72512 0.0
C340 C 0.96736 0.48759 0.70107 0.0
C341 C 0.91646 0.45633 0.71824 0.0
C342 C 0.95612 0.4836 0.75347 0.0
C343 C 0.96587 0.47087 0.77231 0.0
C344 C 0.97348 0.48065 0.80015 0.0
C345 C 0.97086 0.50395 0.80902 0.0
C346 C 0.96054 0.5171 0.79016 0.0
C347 C 0.95337 0.50683 0.76195 0.0
H348 H 0.51407 0.95798 0.18997 0.0
H349 H 0.58016 0.9929 0.25453 0.0
H350 H 0.54836 0.00072 0.28611 0.0
H351 H 0.48369 0.00441 0.20469 0.0
H352 H 0.4477 0.97596 0.19875 0.0
H353 H 0.47682 0.97627 0.17994 0.0
H354 H 0.4611 0.92565 0.19896 0.0
H355 H 0.43209 0.92526 0.21794 0.0
H356 H 0.45756 0.91928 0.23679 0.0
H357 H 0.50819 0.00123 0.31216 0.0
H358 H 0.46245 0.99398 0.33083 0.0
H359 H 0.42225 0.9578 0.24966 0.0
C360 C 0.5221 0.9679 0.21047 0.0
C361 C 0.54969 0.97503 0.21969 0.0
C362 C 0.55914 0.98735 0.24696 0.0
C363 C 0.54126 0.99194 0.26505 0.0
C364 C 0.51395 0.98408 0.25558 0.0
C365 C 0.50442 0.97239 0.22891 0.0
C366 C 0.47344 0.96384 0.22473 0.0
C367 C 0.47024 0.98116 0.2006 0.0
C368 C 0.45497 0.9316 0.2193 0.0
C369 C 0.46691 0.97201 0.25341 0.0
C370 C 0.49063 0.98394 0.27079 0.0
C371 C 0.48953 0.99217 0.29865 0.0
C372 C 0.46342 0.98792 0.30908 0.0
C373 C 0.43871 0.97535 0.29175 0.0
C374 C 0.44072 0.96759 0.26346 0.0
H375 H 0.4844 0.43217 0.80416 0.0
H376 H 0.42219 0.39903 0.73587 0.0
H377 H 0.45482 0.43928 0.70533 0.0
H378 H 0.51299 0.50868 0.78899 0.0
H379 H 0.54898 0.51768 0.79738 0.0
H380 H 0.51942 0.48812 0.81499 0.0
H381 H 0.53803 0.45478 0.79847 0.0
H382 H 0.56751 0.48416 0.78073 0.0
H383 H 0.54402 0.45233 0.7611 0.0
H384 H 0.49558 0.48092 0.6809 0.0
H385 H 0.54173 0.52053 0.66429 0.0
H386 H 0.57768 0.52601 0.7482 0.0
C387 C 0.47738 0.43373 0.78302 0.0
C388 C 0.45065 0.41253 0.77248 0.0
C389 C 0.44253 0.41503 0.74444 0.0
C390 C 0.46089 0.43787 0.72694 0.0
C391 C 0.48733 0.45806 0.73775 0.0
C392 C 0.49556 0.45627 0.76516 0.0
C393 C 0.52591 0.47959 0.77088 0.0
C394 C 0.52687 0.49971 0.79446 0.0
C395 C 0.54498 0.46695 0.77822 0.0
C396 C 0.53364 0.49437 0.74223 0.0
C397 C 0.511 0.48184 0.72352 0.0
C398 C 0.5134 0.49109 0.69545 0.0
C399 C 0.53972 0.51359 0.6862 0.0
C400 C 0.56338 0.52647 0.70491 0.0
C401 C 0.56003 0.5168 0.73337 0.0
H402 H 0.05119 0.56859 0.19369 0.0
H403 H 0.01734 0.59658 0.26224 0.0
H404 H 0.00837 0.55457 0.29056 0.0
H405 H 0.00326 0.49084 0.20383 0.0
H406 H 0.03125 0.48314 0.19598 0.0
H407 H 0.03148 0.51332 0.17964 0.0
H408 H 0.08234 0.54648 0.19923 0.0
H409 H 0.08221 0.51651 0.21573 0.0
H410 H 0.08879 0.54693 0.23691 0.0
H411 H 0.00712 0.51199 0.31315 0.0
H412 H 0.01416 0.47238 0.3284 0.0
H413 H 0.04972 0.47278 0.24547 0.0
C414 C 0.04122 0.56551 0.21436 0.0
C415 C 0.03477 0.58577 0.22566 0.0
C416 C 0.02238 0.58129 0.2531 0.0
C417 C 0.01712 0.55745 0.26933 0.0
C418 C 0.02438 0.53825 0.25785 0.0
C419 C 0.03607 0.54195 0.23095 0.0
C420 C 0.04408 0.51949 0.22451 0.0
C421 C 0.02646 0.50058 0.19951 0.0
C422 C 0.07626 0.53318 0.21877 0.0
C423 C 0.03576 0.50306 0.25224 0.0
C424 C 0.02408 0.51397 0.27106 0.0
C425 C 0.01594 0.50307 0.29848 0.0
C426 C 0.02008 0.48058 0.30697 0.0
C427 C 0.03247 0.4694 0.28817 0.0
C428 C 0.04005 0.48069 0.26034 0.0
H429 H 0.47011 0.03756 0.72836 0.0
H430 H 0.51439 0.1253 0.69928 0.0
H431 H 0.55844 0.13294 0.72273 0.0
H432 H 0.50319 0.04851 0.79574 0.0
H433 H 0.5061 0.01683 0.79484 0.0
H434 H 0.47797 0.01791 0.77553 0.0
H435 H 0.49429 0.00491 0.72887 0.0
H436 H 0.52226 0.00344 0.7481 0.0
H437 H 0.5308 0.02628 0.71745 0.0
H438 H 0.59603 0.13233 0.75316 0.0
H439 H 0.62756 0.12148 0.78191 0.0
H440 H 0.56073 0.03292 0.7872 0.0
C441 C 0.4892 0.05827 0.72672 0.0
C442 C 0.48891 0.0809 0.71213 0.0
C443 C 0.51426 0.10766 0.71022 0.0
C444 C 0.5393 0.11224 0.72362 0.0
C445 C 0.53877 0.08966 0.73829 0.0
C446 C 0.51462 0.063 0.73932 0.0
C447 C 0.52011 0.04216 0.75573 0.0
C448 C 0.50069 0.03069 0.78202 0.0
C449 C 0.51667 0.01776 0.73638 0.0
C450 C 0.55096 0.06143 0.76419 0.0
C451 C 0.56113 0.08885 0.75428 0.0
C452 C 0.58848 0.11085 0.76067 0.0
C453 C 0.60613 0.10455 0.77717 0.0
C454 C 0.59655 0.07639 0.78658 0.0
C455 C 0.56861 0.05458 0.78001 0.0
H456 H 0.38007 0.38021 0.06524 0.0
H457 H 0.33381 0.42451 0.0471 0.0
H458 H 0.33899 0.41929 0.99557 0.0
H459 H 0.43072 0.41159 0.00717 0.0
H460 H 0.43175 0.37945 1.0001 0.0
H461 H 0.42448 0.38676 0.03556 0.0
H462 H 0.37749 0.33812 0.03635 0.0
H463 H 0.38458 0.33069 1.00089 0.0
H464 H 0.35155 0.32974 0.00856 0.0
H465 H 0.347 0.40702 0.94607 0.0
H466 H 0.36012 0.39145 0.90201 0.0
H467 H 0.40336 0.35738 0.95222 0.0
C468 C 0.37109 0.38887 0.05043 0.0
C469 C 0.35643 0.40268 0.0602 0.0
C470 C 0.34516 0.4139 0.04012 0.0
C471 C 0.34795 0.41099 0.01081 0.0
C472 C 0.36235 0.39711 0.00189 0.0
C473 C 0.37401 0.3865 0.02108 0.0
C474 C 0.38875 0.37278 0.00589 0.0
C475 C 0.42083 0.3886 0.01258 0.0
C476 C 0.37475 0.34094 0.01337 0.0
C477 C 0.38327 0.37702 0.97516 0.0
C478 C 0.36785 0.39094 0.97333 0.0
C479 C 0.3593 0.39634 0.94723 0.0
C480 C 0.36678 0.38734 0.92233 0.0
C481 C 0.38291 0.37338 0.92367 0.0
C482 C 0.3913 0.36829 0.95049 0.0
H483 H 0.9791 0.37028 0.43016 0.0
H484 H 0.07015 0.4077 0.4434 0.0
H485 H 0.06216 0.40076 0.49524 0.0
H486 H 0.96631 0.40181 0.49223 0.0
H487 H 0.93216 0.37096 0.49976 0.0
H488 H 0.94503 0.37872 0.46369 0.0
H489 H 0.93901 0.32837 0.45915 0.0
H490 H 0.92616 0.32047 0.49522 0.0
H491 H 0.95624 0.31706 0.48456 0.0
H492 H 0.04409 0.38812 0.54549 0.0
H493 H 0.0175 0.37308 0.59082 0.0
H494 H 0.93842 0.34581 0.5451 0.0
C495 C 0.99736 0.37702 0.44396 0.0
C496 C 0.02526 0.38944 0.43271 0.0
C497 C 0.0486 0.39817 0.45152 0.0
C498 C 0.04427 0.39427 0.481 0.0
C499 C 0.01651 0.38188 0.49138 0.0
C500 C 0.99346 0.3736 0.47347 0.0
C501 C 0.96584 0.36116 0.49012 0.0
C502 C 0.9515 0.37925 0.48622 0.0
C503 C 0.94563 0.32991 0.48176 0.0
C504 C 0.97692 0.36352 0.52017 0.0
C505 C 0.00619 0.37538 0.52041 0.0
C506 C 0.02119 0.37899 0.54559 0.0
C507 C 0.00589 0.37032 0.57122 0.0
C508 C 0.97592 0.35841 0.57154 0.0
C509 C 0.96135 0.35508 0.5456 0.0
H510 H 0.65569 0.06623 0.9515 0.0
H511 H 0.60402 0.99141 0.89971 0.0
H512 H 0.58405 0.96265 0.94326 0.0
H513 H 0.67324 0.03048 0.00433 0.0
H514 H 0.67209 0.05143 0.03354 0.0
H515 H 0.68098 0.06651 0.99836 0.0
H516 H 0.64002 0.07796 1.00078 0.0
H517 H 0.631 0.06291 0.036 0.0
H518 H 0.60429 0.04979 0.00844 0.0
H519 H 0.5703 0.94183 0.99246 0.0
H520 H 0.56539 0.92996 0.04362 0.0
H521 H 0.62723 0.018 0.06338 0.0
C522 C 0.63996 0.04386 0.94931 0.0
C523 C 0.63128 0.03109 0.92218 0.0
C524 C 0.61096 0.00166 0.92026 0.0
C525 C 0.59944 0.98516 0.94488 0.0
C526 C 0.60858 0.99835 0.97128 0.0
C527 C 0.62847 0.027 0.97367 0.0
C528 C 0.63564 0.03568 0.00457 0.0
C529 C 0.66737 0.04667 0.01054 0.0
C530 C 0.62723 0.0579 0.01293 0.0
C531 C 0.61681 0.00741 0.01918 0.0
C532 C 0.60117 0.98621 0.99961 0.0
C533 C 0.58241 0.95826 0.00798 0.0
C534 C 0.57975 0.95174 0.03712 0.0
C535 C 0.59593 0.97302 0.05755 0.0
C536 C 0.61456 0.00124 0.04833 0.0
H537 H 0.63982 0.59616 0.54083 0.0
H538 H 0.60508 0.6434 0.58285 0.0
H539 H 0.59486 0.65695 0.53604 0.0
H540 H 0.674 0.64611 0.48352 0.0
H541 H 0.66632 0.61889 0.45733 0.0
H542 H 0.67053 0.61257 0.49415 0.0
H543 H 0.6207 0.56699 0.49365 0.0
H544 H 0.61633 0.57319 0.45684 0.0
H545 H 0.59011 0.56938 0.48271 0.0
H546 H 0.58747 0.66452 0.48463 0.0
H547 H 0.58534 0.6673 0.4323 0.0
H548 H 0.62634 0.61647 0.42374 0.0
C549 C 0.63003 0.60932 0.5402 0.0
C550 C 0.62317 0.61865 0.56554 0.0
C551 C 0.61055 0.63602 0.56376 0.0
C552 C 0.60462 0.64379 0.53726 0.0
C553 C 0.61161 0.6342 0.51271 0.0
C554 C 0.62419 0.6175 0.51392 0.0
C555 C 0.62999 0.61042 0.48436 0.0
C556 C 0.66212 0.62274 0.47957 0.0
C557 C 0.61328 0.57808 0.47909 0.0
C558 C 0.6186 0.62567 0.46633 0.0
C559 C 0.60795 0.63912 0.4831 0.0
C560 C 0.59586 0.65418 0.47128 0.0
C561 C 0.5947 0.65559 0.44153 0.0
C562 C 0.60577 0.64221 0.42391 0.0
C563 C 0.61787 0.62709 0.43661 0.0
H564 H 0.00187 0.6214 0.06822 0.0
H565 H 0.09348 0.66308 0.05633 0.0
H566 H 0.0865 0.6568 0.00435 0.0
H567 H 0.98365 0.5688 0.01263 0.0
H568 H 0.95211 0.56954 0.00197 0.0
H569 H 0.96433 0.57737 0.03825 0.0
H570 H 0.96594 0.62585 0.03482 0.0
H571 H 0.9538 0.6182 0.99852 0.0
H572 H 0.98646 0.65047 0.00692 0.0
H573 H 0.06965 0.64757 0.95357 0.0
H574 H 0.04403 0.63364 0.90769 0.0
H575 H 0.9633 0.59631 0.95266 0.0
C576 C 0.02047 0.62918 0.0547 0.0
C577 C 0.04825 0.64282 0.06636 0.0
C578 C 0.072 0.65253 0.04791 0.0
C579 C 0.06826 0.64912 0.01835 0.0
C580 C 0.04061 0.63572 0.00755 0.0
C581 C 0.01711 0.62568 0.02515 0.0
C582 C 0.98968 0.61174 0.00811 0.0
C583 C 0.97137 0.57998 0.01569 0.0
C584 C 0.973 0.62751 0.01235 0.0
C585 C 0.00145 0.61571 0.97816 0.0
C586 C 0.03088 0.62972 0.97831 0.0
C587 C 0.0466 0.63643 0.95319 0.0
C588 C 0.03185 0.62849 0.92724 0.0
C589 C 0.00167 0.61379 0.92657 0.0
C590 C 0.98636 0.60733 0.95246 0.0
H591 H 0.39541 0.03184 0.43765 0.0
H592 H 0.35719 0.94118 0.45407 0.0
H593 H 0.36201 0.95066 0.50575 0.0
H594 H 0.44687 0.0552 0.49481 0.0
H595 H 0.44393 0.0861 0.50297 0.0
H596 H 0.43753 0.07218 0.46726 0.0
H597 H 0.38766 0.06771 0.46788 0.0
H598 H 0.39389 0.08159 0.5036 0.0
H599 H 0.36289 0.04762 0.49583 0.0
H600 H 0.36989 0.9699 0.55573 0.0
H601 H 0.38154 0.99763 0.60032 0.0
H602 H 0.41563 0.07585 0.55136 0.0
C603 C 0.38808 0.01396 0.45209 0.0
C604 C 0.37587 0.98574 0.44177 0.0
C605 C 0.36664 0.96298 0.46143 0.0
C606 C 0.36926 0.96815 0.49084 0.0
C607 C 0.3813 0.9962 0.5003 0.0
C608 C 0.39069 0.01875 0.48152 0.0
C609 C 0.40295 0.04689 0.49722 0.0
C610 C 0.4347 0.06623 0.49015 0.0
C611 C 0.38582 0.06182 0.49075 0.0
C612 C 0.39883 0.03663 0.52777 0.0
C613 C 0.38625 0.00732 0.52907 0.0
C614 C 0.37986 0.99288 0.55496 0.0
C615 C 0.38652 0.00882 0.58019 0.0
C616 C 0.39957 0.03892 0.57938 0.0
C617 C 0.40581 0.0529 0.55273 0.0
loop_
_geom_bond_atom_site_label_1
_geom_bond_atom_site_label_2
_geom_bond_distance
_geom_bond_site_symmetry_2
_ccdc_geom_bond_type
O0 Cd1 2.300 . S
O0 C7 1.275 . S
Cd1 O0 2.300 . S
Cd1 O9 2.381 . S
Cd1 O10 2.378 . S
O2 Cd3 2.385 . S
O2 C7 1.255 . S
Cd3 O2 2.385 . S
Cd3 O4 2.317 . S
O4 Cd3 2.317 . S
O4 C5 1.232 . S
C5 O4 1.232 . S
C5 O6 1.218 . S
O6 C5 1.218 . S
C7 O0 1.275 . S
C7 O2 1.255 . S
C8 O9 1.258 . S
C8 O10 1.256 . S
O9 Cd1 2.381 . S
O9 C8 1.258 . S
O10 Cd1 2.378 . S
O10 C8 1.256 . S
O11 Cd12 2.300 . S
O11 C18 1.275 . S
Cd12 O11 2.300 . S
Cd12 O20 2.381 . S
Cd12 O21 2.378 . S
O13 Cd14 2.385 . S
O13 C18 1.255 . S
Cd14 O13 2.385 . S
Cd14 O15 2.317 . S
O15 Cd14 2.317 . S
O15 C16 1.232 . S
C16 O15 1.232 . S
C16 O17 1.218 . S
O17 C16 1.218 . S
C18 O11 1.275 . S
C18 O13 1.255 . S
C19 O20 1.258 . S
C19 O21 1.256 . S
O20 Cd12 2.381 . S
O20 C19 1.258 . S
O21 Cd12 2.378 . S
O21 C19 1.256 . S
O22 Cd23 2.300 . S
O22 C29 1.275 . S
Cd23 O22 2.300 . S
Cd23 O31 2.381 . S
Cd23 O32 2.378 . S
O24 Cd25 2.385 . S
O24 C29 1.255 . S
Cd25 O24 2.385 . S
Cd25 O26 2.317 . S
O26 Cd25 2.317 . S
O26 C27 1.232 . S
C27 O26 1.232 . S
C27 O28 1.218 . S
O28 C27 1.218 . S
C29 O22 1.275 . S
C29 O24 1.255 . S
C30 O31 1.258 . S
C30 O32 1.256 . S
O31 Cd23 2.381 . S
O31 C30 1.258 . S
O32 Cd23 2.378 . S
O32 C30 1.256 . S
O33 Cd34 2.300 . S
O33 C40 1.275 . S
Cd34 O33 2.300 . S
Cd34 O42 2.381 . S
Cd34 O43 2.378 . S
O35 Cd36 2.385 . S
O35 C40 1.255 . S
Cd36 O35 2.385 . S
Cd36 O37 2.317 . S
O37 Cd36 2.317 . S
O37 C38 1.232 . S
C38 O37 1.232 . S
C38 O39 1.218 . S
O39 C38 1.218 . S
C40 O33 1.275 . S
C40 O35 1.255 . S
C41 O42 1.258 . S
C41 O43 1.256 . S
O42 Cd34 2.381 . S
O42 C41 1.258 . S
O43 Cd34 2.378 . S
O43 C41 1.256 . S
O44 Cd45 2.300 . S
O44 C51 1.275 . S
Cd45 O44 2.300 . S
Cd45 O53 2.381 . S
Cd45 O54 2.378 . S
O46 Cd47 2.385 . S
O46 C51 1.255 . S
Cd47 O46 2.385 . S
Cd47 O48 2.317 . S
O48 Cd47 2.317 . S
O48 C49 1.232 . S
C49 O48 1.232 . S
C49 O50 1.218 . S
O50 C49 1.218 . S
C51 O44 1.275 . S
C51 O46 1.255 . S
C52 O53 1.258 . S
C52 O54 1.256 . S
O53 Cd45 2.381 . S
O53 C52 1.258 . S
O54 Cd45 2.378 . S
O54 C52 1.256 . S
O55 Cd56 2.300 . S
O55 C62 1.275 . S
Cd56 O55 2.300 . S
Cd56 O64 2.381 . S
Cd56 O65 2.378 . S
O57 Cd58 2.385 . S
O57 C62 1.255 . S
Cd58 O57 2.385 . S
Cd58 O59 2.317 . S
O59 Cd58 2.317 . S
O59 C60 1.232 . S
C60 O59 1.232 . S
C60 O61 1.218 . S
O61 C60 1.218 . S
C62 O55 1.275 . S
C62 O57 1.255 . S
C63 O64 1.258 . S
C63 O65 1.256 . S
O64 Cd56 2.381 . S
O64 C63 1.258 . S
O65 Cd56 2.378 . S
O65 C63 1.256 . S
O66 Cd67 2.300 . S
O66 C73 1.275 . S
Cd67 O66 2.300 . S
Cd67 O75 2.381 . S
Cd67 O76 2.378 . S
O68 Cd69 2.385 . S
O68 C73 1.255 . S
Cd69 O68 2.385 . S
Cd69 O70 2.317 . S
O70 Cd69 2.317 . S
O70 C71 1.232 . S
C71 O70 1.232 . S
C71 O72 1.218 . S
O72 C71 1.218 . S
C73 O66 1.275 . S
C73 O68 1.255 . S
C74 O75 1.258 . S
C74 O76 1.256 . S
O75 Cd67 2.381 . S
O75 C74 1.258 . S
O76 Cd67 2.378 . S
O76 C74 1.256 . S
O77 Cd78 2.300 . S
O77 C84 1.275 . S
Cd78 O77 2.300 . S
Cd78 O86 2.381 . S
Cd78 O87 2.378 . S
O79 Cd80 2.385 . S
O79 C84 1.255 . S
Cd80 O79 2.385 . S
Cd80 O81 2.317 . S
O81 Cd80 2.317 . S
O81 C82 1.232 . S
C82 O81 1.232 . S
C82 O83 1.218 . S
O83 C82 1.218 . S
C84 O77 1.275 . S
C84 O79 1.255 . S
C85 O86 1.258 . S
C85 O87 1.256 . S
O86 Cd78 2.381 . S
O86 C85 1.258 . S
O87 Cd78 2.378 . S
O87 C85 1.256 . S
O88 Cd89 2.300 . S
O88 C95 1.275 . S
Cd89 O88 2.300 . S
Cd89 O97 2.381 . S
Cd89 O98 2.378 . S
O90 Cd91 2.385 . S
O90 C95 1.255 . S
Cd91 O90 2.385 . S
Cd91 O92 2.317 . S
O92 Cd91 2.317 . S
O92 C93 1.232 . S
C93 O92 1.232 . S
C93 O94 1.218 . S
O94 C93 1.218 . S
C95 O88 1.275 . S
C95 O90 1.255 . S
C96 O97 1.258 . S
C96 O98 1.256 . S
O97 Cd89 2.381 . S
O97 C96 1.258 . S
O98 Cd89 2.378 . S
O98 C96 1.256 . S
O99 Cd100 2.300 . S
O99 C106 1.275 . S
Cd100 O99 2.300 . S
Cd100 O108 2.381 . S
Cd100 O109 2.378 . S
O101 Cd102 2.385 . S
O101 C106 1.255 . S
Cd102 O101 2.385 . S
Cd102 O103 2.317 . S
O103 Cd102 2.317 . S
O103 C104 1.232 . S
C104 O103 1.232 . S
C104 O105 1.218 . S
O105 C104 1.218 . S
C106 O99 1.275 . S
C106 O101 1.255 . S
C107 O108 1.258 . S
C107 O109 1.256 . S
O108 Cd100 2.381 . S
O108 C107 1.258 . S
O109 Cd100 2.378 . S
O109 C107 1.256 . S
O110 Cd111 2.300 . S
O110 C117 1.275 . S
Cd111 O110 2.300 . S
Cd111 O119 2.381 . S
Cd111 O120 2.378 . S
O112 Cd113 2.385 . S
O112 C117 1.255 . S
Cd113 O112 2.385 . S
Cd113 O114 2.317 . S
O114 Cd113 2.317 . S
O114 C115 1.232 . S
C115 O114 1.232 . S
C115 O116 1.218 . S
O116 C115 1.218 . S
C117 O110 1.275 . S
C117 O112 1.255 . S
C118 O119 1.258 . S
C118 O120 1.256 . S
O119 Cd111 2.381 . S
O119 C118 1.258 . S
O120 Cd111 2.378 . S
O120 C118 1.256 . S
O121 Cd122 2.300 . S
O121 C128 1.275 . S
Cd122 O121 2.300 . S
Cd122 O130 2.381 . S
Cd122 O131 2.378 . S
O123 Cd124 2.385 . S
O123 C128 1.255 . S
Cd124 O123 2.385 . S
Cd124 O125 2.317 . S
O125 Cd124 2.317 . S
O125 C126 1.232 . S
C126 O125 1.232 . S
C126 O127 1.218 . S
O127 C126 1.218 . S
C128 O121 1.275 . S
C128 O123 1.255 . S
C129 O130 1.258 . S
C129 O131 1.256 . S
O130 Cd122 2.381 . S
O130 C129 1.258 . S
O131 Cd122 2.378 . S
O131 C129 1.256 . S
H132 C144 0.930 . S
H133 C146 0.930 . S
H134 C147 0.930 . S
H135 C151 0.959 . S
H136 C151 0.959 . S
H137 C151 0.961 . S
H138 C152 0.960 . S
H139 C152 0.961 . S
H140 C152 0.959 . S
H141 C155 0.929 . S
H142 C156 0.931 . S
H143 C158 0.930 . S
C144 H132 0.930 . S
C144 C145 1.399 . S
C144 C149 1.399 . S
C145 C144 1.399 . S
C145 C146 1.376 . S
C146 H133 0.930 . S
C146 C145 1.376 . S
C146 C147 1.388 . S
C147 H134 0.930 . S
C147 C146 1.388 . S
C147 C148 1.390 . S
C148 C147 1.390 . S
C148 C149 1.394 . S
C148 C154 1.465 . S
C149 C144 1.399 . S
C149 C148 1.394 . S
C149 C150 1.516 . S
C150 C149 1.516 . S
C150 C151 1.502 . S
C150 C152 1.561 . S
C150 C153 1.526 . S
C151 H135 0.959 . S
C151 H136 0.959 . S
C151 H137 0.961 . S
C151 C150 1.502 . S
C152 H138 0.960 . S
C152 H139 0.961 . S
C152 H140 0.959 . S
C152 C150 1.561 . S
C153 C150 1.526 . S
C153 C154 1.396 . S
C153 C158 1.390 . S
C154 C148 1.465 . S
C154 C153 1.396 . S
C154 C155 1.399 . S
C155 H141 0.929 . S
C155 C154 1.399 . S
C155 C156 1.385 . S
C156 H142 0.931 . S
C156 C155 1.385 . S
C156 C157 1.389 . S
C157 C156 1.389 . S
C157 C158 1.387 . S
C158 H143 0.930 . S
C158 C153 1.390 . S
C158 C157 1.387 . S
H159 C171 0.930 . S
H160 C173 0.930 . S
H161 C174 0.930 . S
H162 C178 0.959 . S
H163 C178 0.959 . S
H164 C178 0.961 . S
H165 C179 0.960 . S
H166 C179 0.961 . S
H167 C179 0.959 . S
H168 C182 0.929 . S
H169 C183 0.931 . S
H170 C185 0.930 . S
C171 H159 0.930 . S
C171 C172 1.399 . S
C171 C176 1.399 . S
C172 C171 1.399 . S
C172 C173 1.376 . S
C173 H160 0.930 . S
C173 C172 1.376 . S
C173 C174 1.388 . S
C174 H161 0.930 . S
C174 C173 1.388 . S
C174 C175 1.390 . S
C175 C174 1.390 . S
C175 C176 1.394 . S
C175 C181 1.465 . S
C176 C171 1.399 . S
C176 C175 1.394 . S
C176 C177 1.516 . S
C177 C176 1.516 . S
C177 C178 1.502 . S
C177 C179 1.561 . S
C177 C180 1.526 . S
C178 H162 0.959 . S
C178 H163 0.959 . S
C178 H164 0.961 . S
C178 C177 1.502 . S
C179 H165 0.960 . S
C179 H166 0.961 . S
C179 H167 0.959 . S
C179 C177 1.561 . S
C180 C177 1.526 . S
C180 C181 1.396 . S
C180 C185 1.390 . S
C181 C175 1.465 . S
C181 C180 1.396 . S
C181 C182 1.399 . S
C182 H168 0.929 . S
C182 C181 1.399 . S
C182 C183 1.385 . S
C183 H169 0.931 . S
C183 C182 1.385 . S
C183 C184 1.389 . S
C184 C183 1.389 . S
C184 C185 1.387 . S
C185 H170 0.930 . S
C185 C180 1.390 . S
C185 C184 1.387 . S
H186 C198 0.930 . S
H187 C200 0.930 . S
H188 C201 0.930 . S
H189 C205 0.959 . S
H190 C205 0.959 . S
H191 C205 0.961 . S
H192 C206 0.960 . S
H193 C206 0.961 . S
H194 C206 0.959 . S
H195 C209 0.929 . S
H196 C210 0.931 . S
H197 C212 0.930 . S
C198 H186 0.930 . S
C198 C199 1.399 . S
C198 C203 1.399 . S
C199 C198 1.399 . S
C199 C200 1.376 . S
C200 H187 0.930 . S
C200 C199 1.376 . S
C200 C201 1.388 . S
C201 H188 0.930 . S
C201 C200 1.388 . S
C201 C202 1.390 . S
C202 C201 1.390 . S
C202 C203 1.394 . S
C202 C208 1.465 . S
C203 C198 1.399 . S
C203 C202 1.394 . S
C203 C204 1.516 . S
C204 C203 1.516 . S
C204 C205 1.502 . S
C204 C206 1.561 . S
C204 C207 1.526 . S
C205 H189 0.959 . S
C205 H190 0.959 . S
C205 H191 0.961 . S
C205 C204 1.502 . S
C206 H192 0.960 . S
C206 H193 0.961 . S
C206 H194 0.959 . S
C206 C204 1.561 . S
C207 C204 1.526 . S
C207 C208 1.396 . S
C207 C212 1.390 . S
C208 C202 1.465 . S
C208 C207 1.396 . S
C208 C209 1.399 . S
C209 H195 0.929 . S
C209 C208 1.399 . S
C209 C210 1.385 . S
C210 H196 0.931 . S
C210 C209 1.385 . S
C210 C211 1.389 . S
C211 C210 1.389 . S
C211 C212 1.387 . S
C212 H197 0.930 . S
C212 C207 1.390 . S
C212 C211 1.387 . S
H213 C225 0.930 . S
H214 C227 0.930 . S
H215 C228 0.930 . S
H216 C232 0.959 . S
H217 C232 0.959 . S
H218 C232 0.961 . S
H219 C233 0.960 . S
H220 C233 0.961 . S
H221 C233 0.959 . S
H222 C236 0.929 . S
H223 C237 0.931 . S
H224 C239 0.930 . S
C225 H213 0.930 . S
C225 C226 1.399 . S
C225 C230 1.399 . S
C226 C225 1.399 . S
C226 C227 1.376 . S
C227 H214 0.930 . S
C227 C226 1.376 . S
C227 C228 1.388 . S
C228 H215 0.930 . S
C228 C227 1.388 . S
C228 C229 1.390 . S
C229 C228 1.390 . S
C229 C230 1.394 . S
C229 C235 1.465 . S
C230 C225 1.399 . S
C230 C229 1.394 . S
C230 C231 1.516 . S
C231 C230 1.516 . S
C231 C232 1.502 . S
C231 C233 1.561 . S
C231 C234 1.526 . S
C232 H216 0.959 . S
C232 H217 0.959 . S
C232 H218 0.961 . S
C232 C231 1.502 . S
C233 H219 0.960 . S
C233 H220 0.961 . S
C233 H221 0.959 . S
C233 C231 1.561 . S
C234 C231 1.526 . S
C234 C235 1.396 . S
C234 C239 1.390 . S
C235 C229 1.465 . S
C235 C234 1.396 . S
C235 C236 1.399 . S
C236 H222 0.929 . S
C236 C235 1.399 . S
C236 C237 1.385 . S
C237 H223 0.931 . S
C237 C236 1.385 . S
C237 C238 1.389 . S
C238 C237 1.389 . S
C238 C239 1.387 . S
C239 H224 0.930 . S
C239 C234 1.390 . S
C239 C238 1.387 . S
H240 C252 0.930 . S
H241 C254 0.930 . S
H242 C255 0.930 . S
H243 C259 0.959 . S
H244 C259 0.959 . S
H245 C259 0.961 . S
H246 C260 0.960 . S
H247 C260 0.961 . S
H248 C260 0.959 . S
H249 C263 0.929 . S
H250 C264 0.931 . S
H251 C266 0.930 . S
C252 H240 0.930 . S
C252 C253 1.399 . S
C252 C257 1.399 . S
C253 C252 1.399 . S
C253 C254 1.376 . S
C254 H241 0.930 . S
C254 C253 1.376 . S
C254 C255 1.388 . S
C255 H242 0.930 . S
C255 C254 1.388 . S
C255 C256 1.390 . S
C256 C255 1.390 . S
C256 C257 1.394 . S
C256 C262 1.465 . S
C257 C252 1.399 . S
C257 C256 1.394 . S
C257 C258 1.516 . S
C258 C257 1.516 . S
C258 C259 1.502 . S
C258 C260 1.561 . S
C258 C261 1.526 . S
C259 H243 0.959 . S
C259 H244 0.959 . S
C259 H245 0.961 . S
C259 C258 1.502 . S
C260 H246 0.960 . S
C260 H247 0.961 . S
C260 H248 0.959 . S
C260 C258 1.561 . S
C261 C258 1.526 . S
C261 C262 1.396 . S
C261 C266 1.390 . S
C262 C256 1.465 . S
C262 C261 1.396 . S
C262 C263 1.399 . S
C263 H249 0.929 . S
C263 C262 1.399 . S
C263 C264 1.385 . S
C264 H250 0.931 . S
C264 C263 1.385 . S
C264 C265 1.389 . S
C265 C264 1.389 . S
C265 C266 1.387 . S
C266 H251 0.930 . S
C266 C261 1.390 . S
C266 C265 1.387 . S
H267 C279 0.930 . S
H268 C281 0.930 . S
H269 C282 0.930 . S
H270 C286 0.959 . S
H271 C286 0.959 . S
H272 C286 0.961 . S
H273 C287 0.960 . S
H274 C287 0.961 . S
H275 C287 0.959 . S
H276 C290 0.929 . S
H277 C291 0.931 . S
H278 C293 0.930 . S
C279 H267 0.930 . S
C279 C280 1.399 . S
C279 C284 1.399 . S
C280 C279 1.399 . S
C280 C281 1.376 . S
C281 H268 0.930 . S
C281 C280 1.376 . S
C281 C282 1.388 . S
C282 H269 0.930 . S
C282 C281 1.388 . S
C282 C283 1.390 . S
C283 C282 1.390 . S
C283 C284 1.394 . S
C283 C289 1.465 . S
C284 C279 1.399 . S
C284 C283 1.394 . S
C284 C285 1.516 . S
C285 C284 1.516 . S
C285 C286 1.502 . S
C285 C287 1.561 . S
C285 C288 1.526 . S
C286 H270 0.959 . S
C286 H271 0.959 . S
C286 H272 0.961 . S
C286 C285 1.502 . S
C287 H273 0.960 . S
C287 H274 0.961 . S
C287 H275 0.959 . S
C287 C285 1.561 . S
C288 C285 1.526 . S
C288 C289 1.396 . S
C288 C293 1.390 . S
C289 C283 1.465 . S
C289 C288 1.396 . S
C289 C290 1.399 . S
C290 H276 0.929 . S
C290 C289 1.399 . S
C290 C291 1.385 . S
C291 H277 0.931 . S
C291 C290 1.385 . S
C291 C292 1.389 . S
C292 C291 1.389 . S
C292 C293 1.387 . S
C293 H278 0.930 . S
C293 C288 1.390 . S
C293 C292 1.387 . S
H294 C306 0.930 . S
H295 C308 0.930 . S
H296 C309 0.930 . S
H297 C313 0.959 . S
H298 C313 0.959 . S
H299 C313 0.961 . S
H300 C314 0.960 . S
H301 C314 0.961 . S
H302 C314 0.959 . S
H303 C317 0.929 . S
H304 C318 0.931 . S
H305 C320 0.930 . S
C306 H294 0.930 . S
C306 C307 1.399 . S
C306 C311 1.399 . S
C307 C306 1.399 . S
C307 C308 1.376 . S
C308 H295 0.930 . S
C308 C307 1.376 . S
C308 C309 1.388 . S
C309 H296 0.930 . S
C309 C308 1.388 . S
C309 C310 1.390 . S
C310 C309 1.390 . S
C310 C311 1.394 . S
C310 C316 1.465 . S
C311 C306 1.399 . S
C311 C310 1.394 . S
C311 C312 1.516 . S
C312 C311 1.516 . S
C312 C313 1.502 . S
C312 C314 1.561 . S
C312 C315 1.526 . S
C313 H297 0.959 . S
C313 H298 0.959 . S
C313 H299 0.961 . S
C313 C312 1.502 . S
C314 H300 0.960 . S
C314 H301 0.961 . S
C314 H302 0.959 . S
C314 C312 1.561 . S
C315 C312 1.526 . S
C315 C316 1.396 . S
C315 C320 1.390 . S
C316 C310 1.465 . S
C316 C315 1.396 . S
C316 C317 1.399 . S
C317 H303 0.929 . S
C317 C316 1.399 . S
C317 C318 1.385 . S
C318 H304 0.931 . S
C318 C317 1.385 . S
C318 C319 1.389 . S
C319 C318 1.389 . S
C319 C320 1.387 . S
C320 H305 0.930 . S
C320 C315 1.390 . S
C320 C319 1.387 . S
H321 C333 0.930 . S
H322 C335 0.930 . S
H323 C336 0.930 . S
H324 C340 0.959 . S
H325 C340 0.959 . S
H326 C340 0.961 . S
H327 C341 0.960 . S
H328 C341 0.961 . S
H329 C341 0.959 . S
H330 C344 0.929 . S
H331 C345 0.931 . S
H332 C347 0.930 . S
C333 H321 0.930 . S
C333 C334 1.399 . S
C333 C338 1.399 . S
C334 C333 1.399 . S
C334 C335 1.376 . S
C335 H322 0.930 . S
C335 C334 1.376 . S
C335 C336 1.388 . S
C336 H323 0.930 . S
C336 C335 1.388 . S
C336 C337 1.390 . S
C337 C336 1.390 . S
C337 C338 1.394 . S
C337 C343 1.465 . S
C338 C333 1.399 . S
C338 C337 1.394 . S
C338 C339 1.516 . S
C339 C338 1.516 . S
C339 C340 1.502 . S
C339 C341 1.561 . S
C339 C342 1.526 . S
C340 H324 0.959 . S
C340 H325 0.959 . S
C340 H326 0.961 . S
C340 C339 1.502 . S
C341 H327 0.960 . S
C341 H328 0.961 . S
C341 H329 0.959 . S
C341 C339 1.561 . S
C342 C339 1.526 . S
C342 C343 1.396 . S
C342 C347 1.390 . S
C343 C337 1.465 . S
C343 C342 1.396 . S
C343 C344 1.399 . S
C344 H330 0.929 . S
C344 C343 1.399 . S
C344 C345 1.385 . S
C345 H331 0.931 . S
C345 C344 1.385 . S
C345 C346 1.389 . S
C346 C345 1.389 . S
C346 C347 1.387 . S
C347 H332 0.930 . S
C347 C342 1.390 . S
C347 C346 1.387 . S
H348 C360 0.930 . S
H349 C362 0.930 . S
H350 C363 0.930 . S
H351 C367 0.959 . S
H352 C367 0.959 . S
H353 C367 0.961 . S
H354 C368 0.960 . S
H355 C368 0.961 . S
H356 C368 0.959 . S
H357 C371 0.929 . S
H358 C372 0.931 . S
H359 C374 0.930 . S
C360 H348 0.930 . S
C360 C361 1.399 . S
C360 C365 1.399 . S
C361 C360 1.399 . S
C361 C362 1.376 . S
C362 H349 0.930 . S
C362 C361 1.376 . S
C362 C363 1.388 . S
C363 H350 0.930 . S
C363 C362 1.388 . S
C363 C364 1.390 . S
C364 C363 1.390 . S
C364 C365 1.394 . S
C364 C370 1.465 . S
C365 C360 1.399 . S
C365 C364 1.394 . S
C365 C366 1.516 . S
C366 C365 1.516 . S
C366 C367 1.502 . S
C366 C368 1.561 . S
C366 C369 1.526 . S
C367 H351 0.959 . S
C367 H352 0.959 . S
C367 H353 0.961 . S
C367 C366 1.502 . S
C368 H354 0.960 . S
C368 H355 0.961 . S
C368 H356 0.959 . S
C368 C366 1.561 . S
C369 C366 1.526 . S
C369 C370 1.396 . S
C369 C374 1.390 . S
C370 C364 1.465 . S
C370 C369 1.396 . S
C370 C371 1.399 . S
C371 H357 0.929 . S
C371 C370 1.399 . S
C371 C372 1.385 . S
C372 H358 0.931 . S
C372 C371 1.385 . S
C372 C373 1.389 . S
C373 C372 1.389 . S
C373 C374 1.387 . S
C374 H359 0.930 . S
C374 C369 1.390 . S
C374 C373 1.387 . S
H375 C387 0.930 . S
H376 C389 0.930 . S
H377 C390 0.930 . S
H378 C394 0.959 . S
H379 C394 0.959 . S
H380 C394 0.961 . S
H381 C395 0.960 . S
H382 C395 0.961 . S
H383 C395 0.959 . S
H384 C398 0.929 . S
H385 C399 0.931 . S
H386 C401 0.930 . S
C387 H375 0.930 . S
C387 C388 1.399 . S
C387 C392 1.399 . S
C388 C387 1.399 . S
C388 C389 1.376 . S
C389 H376 0.930 . S
C389 C388 1.376 . S
C389 C390 1.388 . S
C390 H377 0.930 . S
C390 C389 1.388 . S
C390 C391 1.390 . S
C391 C390 1.390 . S
C391 C392 1.394 . S
C391 C397 1.465 . S
C392 C387 1.399 . S
C392 C391 1.394 . S
C392 C393 1.516 . S
C393 C392 1.516 . S
C393 C394 1.502 . S
C393 C395 1.561 . S
C393 C396 1.526 . S
C394 H378 0.959 . S
C394 H379 0.959 . S
C394 H380 0.961 . S
C394 C393 1.502 . S
C395 H381 0.960 . S
C395 H382 0.961 . S
C395 H383 0.959 . S
C395 C393 1.561 . S
C396 C393 1.526 . S
C396 C397 1.396 . S
C396 C401 1.390 . S
C397 C391 1.465 . S
C397 C396 1.396 . S
C397 C398 1.399 . S
C398 H384 0.929 . S
C398 C397 1.399 . S
C398 C399 1.385 . S
C399 H385 0.931 . S
C399 C398 1.385 . S
C399 C400 1.389 . S
C400 C399 1.389 . S
C400 C401 1.387 . S
C401 H386 0.930 . S
C401 C396 1.390 . S
C401 C400 1.387 . S
H402 C414 0.930 . S
H403 C416 0.930 . S
H404 C417 0.930 . S
H405 C421 0.959 . S
H406 C421 0.959 . S
H407 C421 0.961 . S
H408 C422 0.960 . S
H409 C422 0.961 . S
H410 C422 0.959 . S
H411 C425 0.929 . S
H412 C426 0.931 . S
H413 C428 0.930 . S
C414 H402 0.930 . S
C414 C415 1.399 . S
C414 C419 1.399 . S
C415 C414 1.399 . S
C415 C416 1.376 . S
C416 H403 0.930 . S
C416 C415 1.376 . S
C416 C417 1.388 . S
C417 H404 0.930 . S
C417 C416 1.388 . S
C417 C418 1.390 . S
C418 C417 1.390 . S
C418 C419 1.394 . S
C418 C424 1.465 . S
C419 C414 1.399 . S
C419 C418 1.394 . S
C419 C420 1.516 . S
C420 C419 1.516 . S
C420 C421 1.502 . S
C420 C422 1.561 . S
C420 C423 1.526 . S
C421 H405 0.959 . S
C421 H406 0.959 . S
C421 H407 0.961 . S
C421 C420 1.502 . S
C422 H408 0.960 . S
C422 H409 0.961 . S
C422 H410 0.959 . S
C422 C420 1.561 . S
C423 C420 1.526 . S
C423 C424 1.396 . S
C423 C428 1.390 . S
C424 C418 1.465 . S
C424 C423 1.396 . S
C424 C425 1.399 . S
C425 H411 0.929 . S
C425 C424 1.399 . S
C425 C426 1.385 . S
C426 H412 0.931 . S
C426 C425 1.385 . S
C426 C427 1.389 . S
C427 C426 1.389 . S
C427 C428 1.387 . S
C428 H413 0.930 . S
C428 C423 1.390 . S
C428 C427 1.387 . S
H429 C441 0.930 . S
H430 C443 0.930 . S
H431 C444 0.930 . S
H432 C448 0.959 . S
H433 C448 0.959 . S
H434 C448 0.961 . S
H435 C449 0.960 . S
H436 C449 0.961 . S
H437 C449 0.959 . S
H438 C452 0.929 . S
H439 C453 0.931 . S
H440 C455 0.930 . S
C441 H429 0.930 . S
C441 C442 1.399 . S
C441 C446 1.399 . S
C442 C441 1.399 . S
C442 C443 1.376 . S
C443 H430 0.930 . S
C443 C442 1.376 . S
C443 C444 1.388 . S
C444 H431 0.930 . S
C444 C443 1.388 . S
C444 C445 1.390 . S
C445 C444 1.390 . S
C445 C446 1.394 . S
C445 C451 1.465 . S
C446 C441 1.399 . S
C446 C445 1.394 . S
C446 C447 1.516 . S
C447 C446 1.516 . S
C447 C448 1.502 . S
C447 C449 1.561 . S
C447 C450 1.526 . S
C448 H432 0.959 . S
C448 H433 0.959 . S
C448 H434 0.961 . S
C448 C447 1.502 . S
C449 H435 0.960 . S
C449 H436 0.961 . S
C449 H437 0.959 . S
C449 C447 1.561 . S
C450 C447 1.526 . S
C450 C451 1.396 . S
C450 C455 1.390 . S
C451 C445 1.465 . S
C451 C450 1.396 . S
C451 C452 1.399 . S
C452 H438 0.929 . S
C452 C451 1.399 . S
C452 C453 1.385 . S
C453 H439 0.931 . S
C453 C452 1.385 . S
C453 C454 1.389 . S
C454 C453 1.389 . S
C454 C455 1.387 . S
C455 H440 0.930 . S
C455 C450 1.390 . S
C455 C454 1.387 . S
H456 C468 0.930 . S
H457 C470 0.930 . S
H458 C471 0.930 . S
H459 C475 0.959 . S
H460 C475 0.959 1_556 S
H461 C475 0.961 . S
H462 C476 0.960 1_554 S
H463 C476 0.961 . S
H464 C476 0.959 . S
H465 C479 0.929 . S
H466 C480 0.931 . S
H467 C482 0.930 . S
C468 H456 0.930 . S
C468 C469 1.399 . S
C468 C473 1.399 . S
C469 C468 1.399 . S
C469 C470 1.376 . S
C470 H457 0.930 . S
C470 C469 1.376 . S
C470 C471 1.388 . S
C471 H458 0.930 . S
C471 C470 1.388 . S
C471 C472 1.390 . S
C472 C471 1.390 . S
C472 C473 1.394 . S
C472 C478 1.465 1_554 S
C473 C468 1.399 . S
C473 C472 1.394 . S
C473 C474 1.533 . S
C474 C473 1.533 . S
C474 C475 1.508 . S
C474 C476 1.555 1_554 S
C474 C477 1.508 1_554 S
C475 H459 0.959 . S
C475 H460 0.959 1_554 S
C475 H461 0.961 . S
C475 C474 1.508 . S
C476 H462 0.960 1_556 S
C476 H463 0.961 . S
C476 H464 0.959 . S
C476 C474 1.555 1_556 S
C477 C474 1.508 1_556 S
C477 C478 1.396 . S
C477 C482 1.390 . S
C478 C472 1.465 1_556 S
C478 C477 1.396 . S
C478 C479 1.399 . S
C479 H465 0.929 . S
C479 C478 1.399 . S
C479 C480 1.385 . S
C480 H466 0.931 . S
C480 C479 1.385 . S
C480 C481 1.389 . S
C481 C480 1.389 . S
C481 C482 1.387 . S
C482 H467 0.930 . S
C482 C477 1.390 . S
C482 C481 1.387 . S
H483 C495 0.929 1_655 S
H484 C497 0.930 . S
H485 C498 0.930 . S
H486 C502 0.959 . S
H487 C502 0.959 . S
H488 C502 0.961 . S
H489 C503 0.976 . S
H490 C503 0.961 . S
H491 C503 0.959 1_455 S
H492 C506 0.929 . S
H493 C507 0.931 . S
H494 C509 0.930 . S
C495 H483 0.929 1_455 S
C495 C496 1.399 . S
C495 C500 1.399 . S
C496 C495 1.399 . S
C496 C497 1.376 . S
C497 H484 0.930 . S
C497 C496 1.376 . S
C497 C498 1.388 . S
C498 H485 0.930 . S
C498 C497 1.388 . S
C498 C499 1.390 . S
C499 C498 1.390 . S
C499 C500 1.394 . S
C499 C505 1.465 . S
C500 C495 1.399 . S
C500 C499 1.394 . S
C500 C501 1.516 1_455 S
C501 C500 1.516 1_655 S
C501 C502 1.502 . S
C501 C503 1.561 . S
C501 C504 1.526 . S
C502 H486 0.959 . S
C502 H487 0.959 . S
C502 H488 0.961 . S
C502 C501 1.502 . S
C503 H489 0.976 . S
C503 H490 0.961 . S
C503 H491 0.959 1_655 S
C503 C501 1.561 . S
C504 C501 1.526 . S
C504 C505 1.396 1_655 S
C504 C509 1.390 . S
C505 C499 1.465 . S
C505 C504 1.396 1_455 S
C505 C506 1.399 . S
C506 H492 0.929 . S
C506 C505 1.399 . S
C506 C507 1.385 1_455 S
C507 H493 0.931 . S
C507 C506 1.385 1_655 S
C507 C508 1.389 . S
C508 C507 1.389 . S
C508 C509 1.387 . S
C509 H494 0.930 . S
C509 C504 1.390 . S
C509 C508 1.387 . S
H510 C522 0.930 . S
H511 C524 0.930 . S
H512 C525 0.930 . S
H513 C529 0.959 . S
H514 C529 0.959 . S
H515 C529 0.961 . S
H516 C530 0.960 1_556 S
H517 C530 0.961 . S
H518 C530 0.959 . S
H519 C533 0.929 . S
H520 C534 0.931 . S
H521 C536 0.930 1_545 S
C522 H510 0.930 . S
C522 C523 1.399 . S
C522 C527 1.399 . S
C523 C522 1.399 . S
C523 C524 1.376 1_545 S
C524 H511 0.930 . S
C524 C523 1.376 1_565 S
C524 C525 1.388 . S
C525 H512 0.930 . S
C525 C524 1.388 . S
C525 C526 1.390 . S
C526 C525 1.390 . S
C526 C527 1.394 1_565 S
C526 C532 1.465 1_556 S
C527 C522 1.399 . S
C527 C526 1.394 1_545 S
C527 C528 1.516 1_556 S
C528 C527 1.516 1_554 S
C528 C529 1.502 . S
C528 C530 1.561 . S
C528 C531 1.526 . S
C529 H513 0.959 . S
C529 H514 0.959 . S
C529 H515 0.961 . S
C529 C528 1.502 . S
C530 H516 0.960 1_554 S
C530 H517 0.961 . S
C530 H518 0.959 . S
C530 C528 1.561 . S
C531 C528 1.526 . S
C531 C532 1.396 1_545 S
C531 C536 1.390 1_545 S
C532 C526 1.465 1_554 S
C532 C531 1.396 1_565 S
C532 C533 1.399 . S
C533 H519 0.929 . S
C533 C532 1.399 . S
C533 C534 1.385 . S
C534 H520 0.931 . S
C534 C533 1.385 . S
C534 C535 1.389 . S
C535 C534 1.389 . S
C535 C536 1.387 . S
C536 H521 0.930 1_565 S
C536 C531 1.390 1_565 S
C536 C535 1.387 . S
H537 C549 0.930 . S
H538 C551 0.930 . S
H539 C552 0.930 . S
H540 C556 0.959 . S
H541 C556 0.959 . S
H542 C556 0.961 . S
H543 C557 0.960 . S
H544 C557 0.961 . S
H545 C557 0.959 . S
H546 C560 0.929 . S
H547 C561 0.931 . S
H548 C563 0.930 . S
C549 H537 0.930 . S
C549 C550 1.399 . S
C549 C554 1.399 . S
C550 C549 1.399 . S
C550 C551 1.376 . S
C551 H538 0.930 . S
C551 C550 1.376 . S
C551 C552 1.388 . S
C552 H539 0.930 . S
C552 C551 1.388 . S
C552 C553 1.390 . S
C553 C552 1.390 . S
C553 C554 1.394 . S
C553 C559 1.465 . S
C554 C549 1.399 . S
C554 C553 1.394 . S
C554 C555 1.516 . S
C555 C554 1.516 . S
C555 C556 1.502 . S
C555 C557 1.561 . S
C555 C558 1.526 . S
C556 H540 0.959 . S
C556 H541 0.959 . S
C556 H542 0.961 . S
C556 C555 1.502 . S
C557 H543 0.960 . S
C557 H544 0.961 . S
C557 H545 0.959 . S
C557 C555 1.561 . S
C558 C555 1.526 . S
C558 C559 1.396 . S
C558 C563 1.390 . S
C559 C553 1.465 . S
C559 C558 1.396 . S
C559 C560 1.399 . S
C560 H546 0.929 . S
C560 C559 1.399 . S
C560 C561 1.385 . S
C561 H547 0.931 . S
C561 C560 1.385 . S
C561 C562 1.389 . S
C562 C561 1.389 . S
C562 C563 1.387 . S
C563 H548 0.930 . S
C563 C558 1.390 . S
C563 C562 1.387 . S
H564 C576 0.930 . S
H565 C578 0.930 . S
H566 C579 0.930 . S
H567 C583 0.959 . S
H568 C583 0.959 1_556 S
H569 C583 0.961 . S
H570 C584 0.960 1_554 S
H571 C584 0.961 . S
H572 C584 0.959 . S
H573 C587 0.908 1_455 S
H574 C588 0.931 . S
H575 C590 0.930 . S
C576 H564 0.930 . S
C576 C577 1.399 . S
C576 C581 1.399 . S
C577 C576 1.399 . S
C577 C578 1.376 . S
C578 H565 0.930 . S
C578 C577 1.376 . S
C578 C579 1.388 . S
C579 H566 0.930 . S
C579 C578 1.388 . S
C579 C580 1.390 . S
C580 C579 1.390 . S
C580 C581 1.394 . S
C580 C586 1.477 1_554 S
C581 C576 1.399 . S
C581 C580 1.394 . S
C581 C582 1.516 1_455 S
C582 C581 1.516 1_655 S
C582 C583 1.502 . S
C582 C584 1.561 1_654 S
C582 C585 1.526 1_554 S
C583 H567 0.959 . S
C583 H568 0.959 1_554 S
C583 H569 0.961 . S
C583 C582 1.502 . S
C584 H570 0.960 1_556 S
C584 H571 0.961 . S
C584 H572 0.959 . S
C584 C582 1.561 1_456 S
C585 C582 1.526 1_556 S
C585 C586 1.367 1_655 S
C585 C590 1.390 . S
C586 C580 1.477 1_556 S
C586 C585 1.367 1_455 S
C586 C587 1.421 1_455 S
C587 H573 0.908 1_655 S
C587 C586 1.421 1_655 S
C587 C588 1.399 . S
C588 H574 0.931 . S
C588 C587 1.399 . S
C588 C589 1.389 . S
C589 C588 1.389 . S
C589 C590 1.387 . S
C590 H575 0.930 . S
C590 C585 1.390 . S
C590 C589 1.387 . S
H591 C603 0.930 1_545 S
H592 C605 0.930 . S
H593 C606 0.930 . S
H594 C610 0.959 . S
H595 C610 0.959 . S
H596 C610 0.961 . S
H597 C611 0.960 . S
H598 C611 0.961 . S
H599 C611 0.959 . S
H600 C614 0.929 . S
H601 C615 0.931 . S
H602 C617 0.930 . S
C603 H591 0.930 1_565 S
C603 C604 1.399 . S
C603 C608 1.399 1_565 S
C604 C603 1.399 . S
C604 C605 1.376 . S
C605 H592 0.930 . S
C605 C604 1.376 . S
C605 C606 1.388 . S
C606 H593 0.930 . S
C606 C605 1.388 . S
C606 C607 1.390 . S
C607 C606 1.390 . S
C607 C608 1.394 1_565 S
C607 C613 1.465 . S
C608 C603 1.399 1_545 S
C608 C607 1.394 1_545 S
C608 C609 1.516 . S
C609 C608 1.516 . S
C609 C610 1.502 . S
C609 C611 1.561 . S
C609 C612 1.526 . S
C610 H594 0.959 . S
C610 H595 0.959 . S
C610 H596 0.961 . S
C610 C609 1.502 . S
C611 H597 0.960 . S
C611 H598 0.961 . S
C611 H599 0.959 . S
C611 C609 1.561 . S
C612 C609 1.526 . S
C612 C613 1.396 1_545 S
C612 C617 1.390 . S
C613 C607 1.465 . S
C613 C612 1.396 1_565 S
C613 C614 1.399 . S
C614 H600 0.929 . S
C614 C613 1.399 . S
C614 C615 1.385 . S
C615 H601 0.931 . S
C615 C614 1.385 . S
C615 C616 1.389 1_565 S
C616 C615 1.389 1_545 S
C616 C617 1.387 . S
C617 H602 0.930 . S
C617 C612 1.390 . S
C617 C616 1.387 . S
C145 C5 1.383 . S
C157 C115 1.457 . S
C172 C126 1.450 . S
C184 C16 1.393 . S
C199 C71 1.344 . S
C211 C27 1.456 . S
C226 C38 1.426 . S
C238 C82 1.349 . S
C253 C93 1.455 . S
C265 C49 1.383 . S
C280 C104 1.411 . S
C292 C60 1.440 . S
C307 C7 1.547 . S
C319 C73 1.522 . S
C334 C18 1.551 . S
C346 C84 1.530 . S
C361 C29 1.513 . S
C373 C95 1.496 . S
C388 C106 1.550 . S
C400 C40 1.544 . S
C415 C51 1.550 . S
C427 C117 1.542 . S
C442 C62 1.538 . S
C454 C128 1.551 . S
C469 C8 1.569 . S
C481 C107 1.566 . S
C496 C118 1.571 . S
C508 C19 1.567 . S
C523 C129 1.567 . S
C535 C30 1.573 . S
C550 C41 1.566 . S
C562 C74 1.572 . S
C577 C52 1.569 . S
C589 C85 1.567 . S
C604 C96 1.572 . S
C616 C63 1.568 . S
