# Generated by pormake.
# Topology ftb, (5)-cn, num edge types: 1
# Building blocks:
#     Node 0, Type 0, BuildingBlock: BEQFEK_clean_sbu_0, # of connection points: 5
#     Node 1, Type 0, BuildingBlock: BEQFEK_clean_sbu_0, # of connection points: 5
#     Node 2, Type 0, BuildingBlock: BEQFEK_clean_sbu_0, # of connection points: 5
#     Node 3, Type 0, BuildingBlock: BEQFEK_clean_sbu_0, # of connection points: 5
#     Node 4, Type 0, BuildingBlock: BEQFEK_clean_sbu_0, # of connection points: 5
#     Node 5, Type 0, BuildingBlock: BEQFEK_clean_sbu_0, # of connection points: 5
#     Node 6, Type 0, BuildingBlock: BEQFEK_clean_sbu_0, # of connection points: 5
#     Node 7, Type 0, BuildingBlock: BEQFEK_clean_sbu_0, # of connection points: 5
#     Edge 8, Type (0, 0), BuildingBlock: EZIPEK_clean_linker_0, # of connection points: 2
#     Edge 9, Type (0, 0), BuildingBlock: EZIPEK_clean_linker_0, # of connection points: 2
#     Edge 10, Type (0, 0), BuildingBlock: EZIPEK_clean_linker_0, # of connection points: 2
#     Edge 11, Type (0, 0), BuildingBlock: EZIPEK_clean_linker_0, # of connection points: 2
#     Edge 12, Type (0, 0), BuildingBlock: EZIPEK_clean_linker_0, # of connection points: 2
#     Edge 13, Type (0, 0), BuildingBlock: EZIPEK_clean_linker_0, # of connection points: 2
#     Edge 14, Type (0, 0), BuildingBlock: EZIPEK_clean_linker_0, # of connection points: 2
#     Edge 15, Type (0, 0), BuildingBlock: EZIPEK_clean_linker_0, # of connection points: 2
#     Edge 16, Type (0, 0), BuildingBlock: EZIPEK_clean_linker_0, # of connection points: 2
#     Edge 17, Type (0, 0), BuildingBlock: EZIPEK_clean_linker_0, # of connection points: 2
#     Edge 18, Type (0, 0), BuildingBlock: EZIPEK_clean_linker_0, # of connection points: 2
#     Edge 19, Type (0, 0), BuildingBlock: EZIPEK_clean_linker_0, # of connection points: 2
#     Edge 20, Type (0, 0), BuildingBlock: EZIPEK_clean_linker_0, # of connection points: 2
#     Edge 21, Type (0, 0), BuildingBlock: EZIPEK_clean_linker_0, # of connection points: 2
#     Edge 22, Type (0, 0), BuildingBlock: EZIPEK_clean_linker_0, # of connection points: 2
#     Edge 23, Type (0, 0), BuildingBlock: EZIPEK_clean_linker_0, # of connection points: 2
#     Edge 24, Type (0, 0), BuildingBlock: EZIPEK_clean_linker_0, # of connection points: 2
#     Edge 25, Type (0, 0), BuildingBlock: EZIPEK_clean_linker_0, # of connection points: 2
#     Edge 26, Type (0, 0), BuildingBlock: EZIPEK_clean_linker_0, # of connection points: 2
#     Edge 27, Type (0, 0), BuildingBlock: EZIPEK_clean_linker_0, # of connection points: 2
# Relax obj value: 0.111
# Max RMSD: 0.196
# Mean RMSD: 0.196
data_MOF--net-ftb--node1-BEQFEK_clean_sbu_0--edge1-EZIPEK_clean_linker_0
_symmetry_space_group_name_H-M    P1
_symmetry_Int_Tables_number       1
_symmetry_cell_setting            triclinic
loop_
_symmetry_equiv_pos_as_xyz
'x, y, z'
_cell_length_a     41.75543
_cell_length_b     11.358124
_cell_length_c     28.762775
_cell_angle_alpha  89.998567
_cell_angle_beta   92.905181
_cell_angle_gamma 90.02649
loop_
_atom_site_label
_atom_site_type_symbol
_atom_site_fract_x
_atom_site_fract_y
_atom_site_fract_z
_atom_type_partial_charge
Co0 Co 0.34477 0.2355 0.11747 0.0
Co1 Co 0.33664 0.10595 0.02007 0.0
C2 C 0.29155 0.06199 0.09449 0.0
O3 O 0.30642 0.13494 0.12128 0.0
O4 O 0.3014 0.03496 0.05455 0.0
C5 C 0.34925 0.24451 0.21757 0.0
O6 O 0.33825 0.13632 0.2144 0.0
C7 C 0.33528 0.93243 0.94178 0.0
C8 C 0.34651 0.05159 0.88397 0.0
C9 C 0.3397 0.93582 0.89429 0.0
N10 N 0.33931 0.04221 0.95882 0.0
N11 N 0.34599 0.11255 0.92396 0.0
C12 C 0.32744 0.82714 0.97022 0.0
H13 H 0.33243 0.84502 0.00784 0.0
H14 H 0.34147 0.74984 0.95925 0.0
H15 H 0.30162 0.80576 0.96422 0.0
C16 C 0.41129 0.15011 0.10944 0.0
N17 N 0.38036 0.15571 0.09386 0.0
N18 N 0.37713 0.10247 0.05324 0.0
C19 C 0.40599 0.06175 0.04164 0.0
C20 C 0.42861 0.09068 0.07683 0.0
C21 C 0.42408 0.20538 0.15374 0.0
H22 H 0.41145 0.16734 0.18313 0.0
H23 H 0.45023 0.19062 0.15964 0.0
H24 H 0.419 0.30127 0.1528 0.0
O25 O 0.32997 0.36496 0.07574 0.0
O26 O 0.32175 0.26797 0.00961 0.0
H27 H 0.43771 0.97831 0.99406 0.0
H28 H 0.39704 0.92314 0.9925 0.0
C29 C 0.41216 0.00316 0.99637 0.0
H30 H 0.40541 0.06379 0.96731 0.0
H31 H 0.35043 0.20256 0.92756 0.0
O32 O 0.35456 0.30198 0.18074 0.0
C33 C 0.31992 0.36212 0.03313 0.0
Co34 Co 0.65278 0.96608 0.0255 0.0
Co35 Co 0.65241 0.8733 0.12811 0.0
C36 C 0.66651 0.71051 0.05335 0.0
O37 O 0.66373 0.79709 0.0252 0.0
O38 O 0.6603 0.72297 0.09615 0.0
C39 C 0.63677 0.96041 0.92637 0.0
O40 O 0.62654 0.85275 0.93302 0.0
C41 C 0.65519 0.77114 0.22334 0.0
C42 C 0.63514 0.91873 0.26271 0.0
C43 C 0.64678 0.80507 0.2676 0.0
N44 N 0.64806 0.8599 0.19367 0.0
N45 N 0.63675 0.94851 0.21769 0.0
C46 C 0.67102 0.65915 0.20966 0.0
H47 H 0.68985 0.67849 0.18486 0.0
H48 H 0.65292 0.60149 0.19156 0.0
H49 H 0.68168 0.61216 0.24054 0.0
C50 C 0.58695 0.03692 0.04562 0.0
N51 N 0.61608 0.99436 0.05903 0.0
N52 N 0.61504 0.94926 0.10103 0.0
C53 C 0.58471 0.95816 0.11501 0.0
C54 C 0.56609 0.01511 0.08056 0.0
C55 C 0.57838 0.08507 0.99827 0.0
H56 H 0.59806 0.14168 0.98654 0.0
H57 H 0.5751 0.01053 0.97365 0.0
H58 H 0.55575 0.13627 0.99792 0.0
O59 O 0.69179 0.04141 0.05225 0.0
O60 O 0.69378 0.95608 0.12163 0.0
H61 H 0.57438 0.96852 0.18686 0.0
H62 H 0.54731 0.87671 0.15336 0.0
C63 C 0.57281 0.90313 0.15822 0.0
H64 H 0.58736 0.82474 0.1683 0.0
H65 H 0.63006 0.02965 0.20322 0.0
O66 O 0.64773 0.02155 0.96055 0.0
C67 C 0.70663 0.01774 0.09078 0.0
Co68 Co 0.35422 0.64405 0.6333 0.0
Co69 Co 0.35936 0.61303 0.5249 0.0
C70 C 0.31511 0.47312 0.58731 0.0
O71 O 0.32943 0.49817 0.62616 0.0
O72 O 0.32509 0.5107 0.54884 0.0
C73 C 0.33974 0.64887 0.73075 0.0
O74 O 0.32157 0.55737 0.72019 0.0
C75 C 0.35768 0.48537 0.43495 0.0
C76 C 0.38214 0.61221 0.39049 0.0
C77 C 0.36709 0.50367 0.38995 0.0
N78 N 0.36711 0.57838 0.46119 0.0
N79 N 0.38153 0.65407 0.43423 0.0
C80 C 0.33874 0.3842 0.4522 0.0
H81 H 0.31463 0.41586 0.46091 0.0
H82 H 0.35083 0.34909 0.48451 0.0
H83 H 0.33601 0.31324 0.42577 0.0
C84 C 0.42491 0.63023 0.6295 0.0
N85 N 0.39529 0.63042 0.60864 0.0
N86 N 0.39756 0.61395 0.56361 0.0
C87 C 0.42875 0.60213 0.55451 0.0
C88 C 0.44707 0.613 0.59586 0.0
C89 C 0.43158 0.64113 0.68085 0.0
H90 H 0.41948 0.56794 0.6985 0.0
H91 H 0.45769 0.63849 0.69022 0.0
H92 H 0.42134 0.72494 0.69321 0.0
O93 O 0.32551 0.75505 0.59801 0.0
O94 O 0.33836 0.76646 0.52419 0.0
H95 H 0.43856 0.66155 0.48637 0.0
H96 H 0.46648 0.55327 0.50918 0.0
C97 C 0.44089 0.57975 0.50725 0.0
H98 H 0.42639 0.50976 0.48943 0.0
H99 H 0.39035 0.73576 0.44549 0.0
O100 O 0.35644 0.6957 0.69985 0.0
C101 C 0.32079 0.79578 0.55702 0.0
Co102 Co 0.66837 0.50874 0.54038 0.0
Co103 Co 0.66731 0.38089 0.63718 0.0
C104 C 0.67358 0.24466 0.55045 0.0
O105 O 0.67239 0.33978 0.527 0.0
O106 O 0.67053 0.246 0.59436 0.0
C107 C 0.6463 0.56731 0.44634 0.0
O108 O 0.62371 0.4896 0.45328 0.0
C109 C 0.65316 0.22877 0.71702 0.0
C110 C 0.66856 0.34536 0.77558 0.0
C111 C 0.65617 0.23518 0.76505 0.0
N112 N 0.66323 0.33141 0.69966 0.0
N113 N 0.67233 0.40065 0.73487 0.0
C114 C 0.64202 0.12566 0.68831 0.0
H115 H 0.63014 0.15599 0.65507 0.0
H116 H 0.62534 0.07 0.70763 0.0
H117 H 0.66315 0.07159 0.68027 0.0
C118 C 0.60475 0.59403 0.5708 0.0
N119 N 0.6332 0.53901 0.57846 0.0
N120 N 0.63283 0.48242 0.61843 0.0
C121 C 0.60403 0.4977 0.63673 0.0
C122 C 0.58522 0.56777 0.60693 0.0
C123 C 0.5949 0.66136 0.52784 0.0
H124 H 0.58275 0.60103 0.50228 0.0
H125 H 0.57759 0.73164 0.53599 0.0
H126 H 0.61608 0.70142 0.51258 0.0
O127 O 0.70986 0.55231 0.57061 0.0
O128 O 0.70991 0.45648 0.63783 0.0
H129 H 0.60892 0.45988 0.70953 0.0
H130 H 0.56807 0.45663 0.68604 0.0
C131 C 0.59325 0.43473 0.67888 0.0
H132 H 0.59538 0.33839 0.67366 0.0
H133 H 0.68145 0.48547 0.73102 0.0
O134 O 0.66662 0.59045 0.47939 0.0
C135 C 0.72375 0.52091 0.60892 0.0
Co136 Co 0.84246 0.00145 0.5957 0.0
Co137 Co 0.83877 0.87394 0.4983 0.0
C138 C 0.83462 0.73843 0.58601 0.0
O139 O 0.8372 0.83348 0.60932 0.0
O140 O 0.8362 0.73924 0.54176 0.0
C141 C 0.86372 0.03894 0.6916 0.0
O142 O 0.87842 0.9376 0.68751 0.0
C143 C 0.84864 0.72305 0.41628 0.0
C144 C 0.83165 0.84319 0.35972 0.0
C145 C 0.84385 0.73187 0.36843 0.0
N146 N 0.83983 0.82551 0.43519 0.0
N147 N 0.82973 0.89676 0.40117 0.0
C148 C 0.86032 0.61824 0.44353 0.0
H149 H 0.87409 0.64684 0.47557 0.0
H150 H 0.87539 0.56099 0.42226 0.0
H151 H 0.83931 0.56652 0.45393 0.0
C152 C 0.90533 0.07524 0.56144 0.0
N153 N 0.87615 0.02547 0.55499 0.0
N154 N 0.87434 0.97264 0.51419 0.0
C155 C 0.90226 0.98762 0.49339 0.0
C156 C 0.92293 0.05176 0.52289 0.0
C157 C 0.91769 0.12925 0.60618 0.0
H158 H 0.92455 0.05761 0.63089 0.0
H159 H 0.9391 0.1847 0.60102 0.0
H160 H 0.89871 0.18317 0.62133 0.0
O161 O 0.8002 0.05118 0.56837 0.0
O162 O 0.79726 0.95414 0.50128 0.0
H163 H 0.93492 0.95352 0.43874 0.0
H164 H 0.90855 0.83329 0.45232 0.0
C165 C 0.91038 0.93022 0.44866 0.0
H166 H 0.89299 0.95868 0.4205 0.0
H167 H 0.82129 0.98199 0.40635 0.0
O168 O 0.84859 0.08406 0.65648 0.0
C169 C 0.78492 0.02073 0.53088 0.0
Co170 Co 0.15229 0.17305 0.4903 0.0
Co171 Co 0.14781 0.10546 0.59594 0.0
C172 C 0.19269 0.98287 0.54277 0.0
O173 O 0.18551 0.05224 0.50894 0.0
O174 O 0.17572 0.97606 0.57828 0.0
C175 C 0.16966 0.16128 0.39339 0.0
O176 O 0.19268 0.08957 0.40807 0.0
C177 C 0.14734 0.01656 0.69279 0.0
C178 C 0.11095 0.13218 0.72218 0.0
C179 C 0.13046 0.03604 0.73258 0.0
N180 N 0.1376 0.0956 0.66017 0.0
N181 N 0.11644 0.1661 0.67846 0.0
C182 C 0.17263 0.92569 0.68594 0.0
H183 H 0.19348 0.96718 0.6701 0.0
H184 H 0.16298 0.85733 0.66147 0.0
H185 H 0.1807 0.88365 0.71933 0.0
C186 C 0.08214 0.13973 0.49178 0.0
N187 N 0.1117 0.14004 0.51284 0.0
N188 N 0.10974 0.1091 0.55669 0.0
C189 C 0.07888 0.08412 0.56445 0.0
C190 C 0.06039 0.105 0.52393 0.0
C191 C 0.07514 0.1698 0.44171 0.0
H192 H 0.08594 0.25647 0.43401 0.0
H193 H 0.08645 0.10304 0.41967 0.0
H194 H 0.04895 0.17215 0.43291 0.0
O195 O 0.17001 0.3179 0.518 0.0
O196 O 0.1773 0.24085 0.58845 0.0
H197 H 0.06021 0.11114 0.63136 0.0
H198 H 0.0457 0.98053 0.60278 0.0
C199 C 0.0672 0.0367 0.60912 0.0
H200 H 0.08619 0.98417 0.62767 0.0
H201 H 0.10506 0.23561 0.66058 0.0
O202 O 0.14974 0.19998 0.42172 0.0
C203 C 0.18476 0.31492 0.55766 0.0
Co204 Co 0.84142 0.45964 0.1054 0.0
Co205 Co 0.83892 0.3695 1.00184 0.0
C206 C 0.82666 0.20685 0.0794 0.0
O207 O 0.83074 0.29154 0.10811 0.0
O208 O 0.83136 0.22144 0.03618 0.0
C209 C 0.85796 0.45886 0.20426 0.0
O210 O 0.86633 0.3487 0.19842 0.0
C211 C 0.8488 0.25166 0.91139 0.0
C212 C 0.83783 0.39888 0.86282 0.0
C213 C 0.84689 0.28192 0.86464 0.0
N214 N 0.84133 0.34709 0.93631 0.0
N215 N 0.83475 0.43452 0.90698 0.0
C216 C 0.85718 0.13415 0.93188 0.0
H217 H 0.86938 0.14511 0.96679 0.0
H218 H 0.87269 0.08388 0.90873 0.0
H219 H 0.83477 0.08346 0.93585 0.0
C220 C 0.90667 0.52872 0.08105 0.0
N221 N 0.87714 0.48713 0.06943 0.0
N222 N 0.87613 0.45086 0.02596 0.0
C223 C 0.90509 0.4692 0.00839 0.0
C224 C 0.92548 0.51834 0.04285 0.0
C225 C 0.91746 0.5655 0.12924 0.0
H226 H 0.90042 0.63093 0.14242 0.0
H227 H 0.91731 0.48733 0.15227 0.0
H228 H 0.94197 0.60335 0.13058 0.0
O229 O 0.80145 0.53232 0.07968 0.0
O230 O 0.79813 0.45387 0.00897 0.0
H231 H 0.89769 0.47819 0.93442 0.0
H232 H 0.93894 0.45522 0.95394 0.0
C233 C 0.91371 0.43294 0.96061 0.0
H234 H 0.91007 0.33668 0.95652 0.0
H235 H 0.82816 0.51889 0.91722 0.0
O236 O 0.8479 0.52024 0.16961 0.0
C237 C 0.78602 0.51306 0.04116 0.0
Co238 Co 0.1486 0.74577 0.00671 0.0
Co239 Co 0.15412 0.60391 0.10127 0.0
C240 C 0.20052 0.56435 0.02977 0.0
O241 O 0.18666 0.64204 0.00405 0.0
O242 O 0.18944 0.5321 0.06824 0.0
C243 C 0.13151 0.77356 0.90693 0.0
O244 O 0.11941 0.66704 0.90894 0.0
C245 C 0.15948 0.42976 0.17877 0.0
C246 C 0.1395 0.53489 0.23517 0.0
C247 C 0.15318 0.42734 0.22568 0.0
N248 N 0.14992 0.53478 0.1613 0.0
N249 N 0.13796 0.59672 0.19526 0.0
C250 C 0.17534 0.33627 0.15154 0.0
H251 H 0.16473 0.33424 0.11539 0.0
H252 H 0.17297 0.24876 0.16824 0.0
H253 H 0.20121 0.35748 0.14992 0.0
C254 C 0.07991 0.67045 0.01297 0.0
N255 N 0.11118 0.66888 0.02763 0.0
N256 N 0.11426 0.60513 0.06592 0.0
C257 C 0.08539 0.56094 0.0757 0.0
C258 C 0.06268 0.60119 0.04265 0.0
C259 C 0.06617 0.74337 0.9735 0.0
H260 H 0.06324 0.68768 0.94191 0.0
H261 H 0.04208 0.77709 0.98107 0.0
H262 H 0.08213 0.81862 0.96673 0.0
O263 O 0.16283 0.86965 0.05058 0.0
O264 O 0.17001 0.76452 0.11486 0.0
H265 H 0.05535 0.44524 0.11459 0.0
H266 H 0.09807 0.4191 0.12216 0.0
C267 C 0.07929 0.48771 0.11758 0.0
H268 H 0.08035 0.54484 0.14887 0.0
H269 H 0.12921 0.68237 0.19129 0.0
O270 O 0.1436 0.82012 0.94399 0.0
C271 C 0.17247 0.86133 0.09317 0.0
C272 C 0.33665 0.46672 0.31388 0.0
C273 C 0.36035 0.42984 0.34797 0.0
C274 C 0.37563 0.26638 0.29774 0.0
C275 C 0.3521 0.30391 0.26352 0.0
N276 N 0.3058 0.42242 0.24213 0.0
N277 N 0.39914 0.28656 0.37639 0.0
C278 C 0.33137 0.39945 0.27245 0.0
C279 C 0.37875 0.32674 0.34118 0.0
N280 N 0.31934 0.56674 0.3211 0.0
N281 N 0.39587 0.17613 0.28787 0.0
H282 H 0.40325 0.33144 0.40775 0.0
H283 H 0.41058 0.20525 0.37605 0.0
H284 H 0.39345 0.12662 0.25741 0.0
H285 H 0.41608 0.15334 0.30853 0.0
H286 H 0.30474 0.60754 0.29553 0.0
H287 H 0.32053 0.61279 0.35251 0.0
H288 H 0.28802 0.48377 0.24823 0.0
H289 H 0.30074 0.37325 0.21201 0.0
C290 C 0.63529 0.62584 0.31619 0.0
C291 C 0.64936 0.73879 0.31222 0.0
C292 C 0.65863 0.74549 0.39686 0.0
C293 C 0.64833 0.62624 0.40019 0.0
N294 N 0.63777 0.44315 0.35873 0.0
N295 N 0.68317 0.88951 0.3481 0.0
C296 C 0.63991 0.56314 0.3586 0.0
C297 C 0.66385 0.79338 0.35234 0.0
N298 N 0.61619 0.5801 0.28073 0.0
N299 N 0.66173 0.81604 0.43532 0.0
H300 H 0.68893 0.92364 0.31591 0.0
H301 H 0.69639 0.92606 0.37626 0.0
H302 H 0.65572 0.78968 0.46838 0.0
H303 H 0.66654 0.90594 0.4333 0.0
H304 H 0.6034 0.50193 0.28409 0.0
H305 H 0.61024 0.62621 0.25019 0.0
H306 H 0.634 0.39423 0.32826 0.0
H307 H 0.64401 0.39207 0.38789 0.0
C308 C 0.30954 0.76119 0.78975 0.0
C309 C 0.33828 0.70525 0.77709 0.0
C310 C 0.36671 0.78299 0.84723 0.0
C311 C 0.33808 0.83951 0.85955 0.0
N312 N 0.2808 0.85962 0.84994 0.0
N313 N 0.39163 0.63787 0.79868 0.0
C314 C 0.30896 0.82037 0.83328 0.0
C315 C 0.36612 0.70839 0.80744 0.0
N316 N 0.28347 0.76438 0.759 0.0
N317 N 0.39465 0.80396 0.87273 0.0
H318 H 0.39148 0.58052 0.77035 0.0
H319 H 0.4116 0.6279 0.82149 0.0
H320 H 0.39553 0.85308 0.90342 0.0
H321 H 0.41709 0.77757 0.86246 0.0
H322 H 0.26318 0.81516 0.76397 0.0
H323 H 0.2829 0.72338 0.72654 0.0
H324 H 0.25833 0.83867 0.83485 0.0
H325 H 0.27979 0.90431 0.88153 0.0
C326 C 0.61831 0.12827 0.81506 0.0
C327 C 0.64976 0.14297 0.79952 0.0
C328 C 0.67163 0.01612 0.86204 0.0
C329 C 0.64039 0.00576 0.87886 0.0
N330 N 0.58322 0.02274 0.86549 0.0
N331 N 0.70467 0.07869 0.79946 0.0
C332 C 0.61339 0.0519 0.85322 0.0
C333 C 0.67592 0.07933 0.82022 0.0
N334 N 0.59351 0.19154 0.79472 0.0
N335 N 0.69723 0.9682 0.88686 0.0
H336 H 0.70839 0.1242 0.76868 0.0
H337 H 0.72393 0.02553 0.81023 0.0
H338 H 0.69468 0.91455 0.91591 0.0
H339 H 0.72103 0.98491 0.87994 0.0
H340 H 0.57076 0.1958 0.80781 0.0
H341 H 0.59612 0.24532 0.76575 0.0
H342 H 0.56245 0.04542 0.84603 0.0
H343 H 0.57908 0.96606 0.89305 0.0
C344 C 0.88721 0.14155 0.76301 0.0
C345 C 0.8603 0.0911 0.73829 0.0
C346 C 0.82499 0.1571 0.79872 0.0
C347 C 0.85191 0.2066 0.82363 0.0
N348 N 0.90913 0.22972 0.83475 0.0
N349 N 0.80528 0.02578 0.73724 0.0
C350 C 0.88324 0.19327 0.80745 0.0
C351 C 0.82964 0.09163 0.7575 0.0
N352 N 0.91623 0.14454 0.74305 0.0
N353 N 0.79487 0.17503 0.81391 0.0
H354 H 0.80788 0.97535 0.70735 0.0
H355 H 0.78337 0.01235 0.75215 0.0
H356 H 0.79061 0.21623 0.84542 0.0
H357 H 0.774 0.15529 0.79413 0.0
H358 H 0.93591 0.19204 0.75646 0.0
H359 H 0.92018 0.10487 0.71121 0.0
H360 H 0.93279 0.21184 0.82742 0.0
H361 H 0.90699 0.27073 0.86688 0.0
C362 C 0.12794 0.96523 0.8617 0.0
C363 C 0.13089 0.84027 0.86202 0.0
C364 C 0.12801 0.84365 0.77674 0.0
C365 C 0.13125 0.96802 0.77702 0.0
N366 N 0.14248 0.14381 0.82248 0.0
N367 N 0.14353 0.666 0.81752 0.0
C368 C 0.13373 0.028 0.82032 0.0
C369 C 0.13373 0.78057 0.8189 0.0
N370 N 0.1179 0.02448 0.89964 0.0
N371 N 0.11819 0.7854 0.73703 0.0
H372 H 0.15142 0.61907 0.84702 0.0
H373 H 0.14795 0.62329 0.78638 0.0
H374 H 0.11133 0.82886 0.70619 0.0
H375 H 0.11326 0.69535 0.73658 0.0
H376 H 0.11323 0.11467 0.89911 0.0
H377 H 0.11001 0.98247 0.92913 0.0
H378 H 0.14709 0.18769 0.85397 0.0
H379 H 0.1488 0.19161 0.79339 0.0
C380 C 0.82134 0.5848 0.31145 0.0
C381 C 0.8486 0.64142 0.33254 0.0
C382 C 0.88308 0.54726 0.27701 0.0
C383 C 0.85526 0.50721 0.25153 0.0
N384 N 0.79786 0.48233 0.24398 0.0
N385 N 0.90542 0.68046 0.33615 0.0
C386 C 0.82434 0.52342 0.26887 0.0
C387 C 0.87961 0.62228 0.31601 0.0
N388 N 0.79278 0.58867 0.33267 0.0
N389 N 0.9127 0.51368 0.26379 0.0
H390 H 0.90388 0.73364 0.36552 0.0
H391 H 0.928 0.68164 0.32241 0.0
H392 H 0.91589 0.45899 0.2353 0.0
H393 H 0.93388 0.531 0.28322 0.0
H394 H 0.77257 0.54084 0.3215 0.0
H395 H 0.79003 0.63231 0.36415 0.0
H396 H 0.77443 0.5038 0.25139 0.0
H397 H 0.7993 0.42991 0.21436 0.0
C398 C 0.14142 0.18755 0.31516 0.0
C399 C 0.16875 0.20885 0.3453 0.0
C400 C 0.19045 0.34119 0.28719 0.0
C401 C 0.16078 0.33553 0.26117 0.0
N402 N 0.10802 0.25278 0.24844 0.0
N403 N 0.2189 0.31075 0.3617 0.0
C404 C 0.13638 0.25721 0.27428 0.0
C405 C 0.19354 0.28513 0.33141 0.0
N406 N 0.12062 0.09945 0.32548 0.0
N407 N 0.21553 0.40137 0.26975 0.0
H408 H 0.22216 0.27244 0.39449 0.0
H409 H 0.23562 0.37644 0.35586 0.0
H410 H 0.21378 0.44493 0.2378 0.0
H411 H 0.23875 0.39913 0.28471 0.0
H412 H 0.10164 0.07222 0.3032 0.0
H413 H 0.1241 0.04614 0.35486 0.0
H414 H 0.08774 0.20872 0.25891 0.0
H415 H 0.10435 0.29789 0.217 0.0
C416 C 0.50963 0.93733 0.07388 0.0
C417 C 0.53084 0.03463 0.07872 0.0
C418 C 0.48498 0.1693 0.07568 0.0
C419 C 0.46388 0.07146 0.0773 0.0
N420 N 0.45645 0.86195 0.08582 0.0
N421 N 0.53896 0.24282 0.09099 0.0
C422 C 0.4763 0.95519 0.07861 0.0
C423 C 0.51859 0.15066 0.08158 0.0
N424 N 0.52117 0.82847 0.06336 0.0
N425 N 0.47304 0.27945 0.06667 0.0
H426 H 0.56377 0.23279 0.0952 0.0
H427 H 0.53106 0.32739 0.09846 0.0
H428 H 0.44862 0.29638 0.06092 0.0
H429 H 0.48748 0.35196 0.06043 0.0
H430 H 0.5064 0.757 0.05473 0.0
H431 H 0.54543 0.8122 0.05907 0.0
H432 H 0.46479 0.7766 0.09187 0.0
H433 H 0.43191 0.87143 0.08997 0.0
C434 C 0.5018 0.70216 0.61127 0.0
C435 C 0.48241 0.60112 0.60242 0.0
C436 C 0.53029 0.48074 0.59371 0.0
C437 C 0.54978 0.57958 0.60594 0.0
N438 N 0.55464 0.77949 0.63332 0.0
N439 N 0.47784 0.39027 0.59532 0.0
C440 C 0.53567 0.689 0.61687 0.0
C441 C 0.49658 0.48908 0.5968 0.0
N442 N 0.48793 0.81103 0.6126 0.0
N443 N 0.54381 0.38035 0.57726 0.0
H444 H 0.453 0.39298 0.59767 0.0
H445 H 0.48715 0.30519 0.59618 0.0
H446 H 0.56839 0.37063 0.57373 0.0
H447 H 0.53044 0.31053 0.56303 0.0
H448 H 0.50096 0.88925 0.61371 0.0
H449 H 0.46319 0.82392 0.60921 0.0
H450 H 0.54562 0.85738 0.64655 0.0
H451 H 0.57957 0.77321 0.63702 0.0
C452 C 0.01154 0.97803 0.51727 0.0
C453 C 0.02511 0.09224 0.51745 0.0
C454 C 0.97129 0.17897 0.51298 0.0
C455 C 0.95809 0.06553 0.51956 0.0
N456 N 0.96608 0.85862 0.53614 0.0
N457 N 0.01853 0.30315 0.52002 0.0
C458 C 0.97829 0.96515 0.52369 0.0
C459 C 0.00517 0.19347 0.5162 0.0
N460 N 0.03047 0.88192 0.51071 0.0
N461 N 0.95147 0.27234 0.50301 0.0
H462 H 0.04323 0.31749 0.52178 0.0
H463 H 0.00523 0.37936 0.52474 0.0
H464 H 0.92653 0.26484 0.5009 0.0
H465 H 0.9597 0.35474 0.49314 0.0
H466 H 0.02136 0.79723 0.50567 0.0
H467 H 0.05501 0.88858 0.50586 0.0
H468 H 0.98036 0.78566 0.54439 0.0
H469 H 0.942 0.84561 0.54262 0.0
C470 C 0.97275 0.65607 0.04716 0.0
C471 C 0.96062 0.53995 0.04158 0.0
C472 C 0.01505 0.46727 0.03092 0.0
C473 C 0.02743 0.58093 0.04153 0.0
N474 N 0.01856 0.7779 0.06958 0.0
N475 N 0.97105 0.33098 0.03844 0.0
C476 C 0.00642 0.67395 0.05245 0.0
C477 C 0.98199 0.4442 0.03626 0.0
N478 N 0.95216 0.74963 0.04633 0.0
N479 N 0.03473 0.38181 0.01493 0.0
H480 H 0.94721 0.31002 0.04377 0.0
H481 H 0.98618 0.25801 0.03954 0.0
H482 H 0.05912 0.39533 0.01064 0.0
H483 H 0.02631 0.3012 1.00206 0.0
H484 H 0.95984 0.83686 0.04549 0.0
H485 H 0.92733 0.7401 0.04225 0.0
H486 H 0.00432 0.8441 0.08272 0.0
H487 H 0.0431 0.7939 0.07452 0.0
C488 C 0.25912 0.58899 0.04944 0.0
C489 C 0.23418 0.53577 0.02097 0.0
C490 C 0.27426 0.42747 0.97929 0.0
C491 C 0.29714 0.45534 0.01568 0.0
N492 N 0.31662 0.60653 0.06739 0.0
N493 N 0.21783 0.41504 0.95503 0.0
C494 C 0.29123 0.55134 0.04498 0.0
C495 C 0.24173 0.46019 0.98393 0.0
N496 N 0.25189 0.67196 0.08166 0.0
N497 N 0.28406 0.37332 0.94016 0.0
H498 H 0.19383 0.43875 0.95736 0.0
H499 H 0.22155 0.34936 0.93063 0.0
H500 H 0.30834 0.35891 0.93517 0.0
H501 H 0.269 0.3565 0.91095 0.0
H502 H 0.26828 0.70357 0.10709 0.0
H503 H 0.22899 0.70718 0.08388 0.0
H504 H 0.31477 0.68257 0.08725 0.0
H505 H 0.34018 0.58116 0.06188 0.0
C506 C 0.73693 0.59876 0.99901 0.0
C507 C 0.75109 0.5372 0.0377 0.0
C508 C 0.69893 0.52938 0.07357 0.0
C509 C 0.68707 0.6098 0.03942 0.0
N510 N 0.68705 0.65443 0.95789 0.0
N511 N 0.74291 0.40384 0.10165 0.0
C512 C 0.70354 0.6215 0.99789 0.0
C513 C 0.73119 0.4894 0.07198 0.0
N514 N 0.75536 0.64136 0.96488 0.0
N515 N 0.67915 0.49235 0.10697 0.0
H516 H 0.76566 0.36723 0.09931 0.0
H517 H 0.72953 0.36229 0.12634 0.0
H518 H 0.65461 0.51066 0.10454 0.0
H519 H 0.68653 0.44353 0.13617 0.0
H520 H 0.74637 0.69673 0.93844 0.0
H521 H 0.78012 0.62974 0.96511 0.0
H522 H 0.69729 0.65793 0.92563 0.0
H523 H 0.66216 0.66401 0.95677 0.0
C524 C 0.21931 0.91774 0.14639 0.0
C525 C 0.19551 0.95186 0.11224 0.0
C526 C 0.23262 0.09233 0.08014 0.0
C527 C 0.25821 0.03286 0.10498 0.0
N528 N 0.27629 0.90186 0.16683 0.0
N529 N 0.17476 0.10967 0.06488 0.0
C530 C 0.25166 0.95126 0.14054 0.0
C531 C 0.20068 0.053 0.0852 0.0
N532 N 0.21062 0.85605 0.18444 0.0
N533 N 0.2391 0.18352 0.05101 0.0
H534 H 0.15142 0.0826 0.07099 0.0
H535 H 0.17593 0.18681 0.04557 0.0
H536 H 0.26204 0.2184 0.04851 0.0
H537 H 0.22205 0.22446 0.02894 0.0
H538 H 0.22647 0.83369 0.21214 0.0
H539 H 0.18655 0.84005 0.19049 0.0
H540 H 0.27325 0.83261 0.18991 0.0
H541 H 0.30018 0.92605 0.16358 0.0
C542 C 0.75613 0.09742 0.13402 0.0
C543 C 0.74174 0.03777 0.09502 0.0
C544 C 0.79396 0.02682 0.05944 0.0
C545 C 0.80606 0.10657 0.09364 0.0
N546 N 0.80622 0.15069 0.17521 0.0
N547 N 0.74921 0.90626 0.03027 0.0
C548 C 0.78961 0.11884 0.13517 0.0
C549 C 0.76145 0.98932 0.06065 0.0
N550 N 0.73785 0.1394 0.1684 0.0
N551 N 0.81376 0.98866 0.02626 0.0
H552 H 0.72624 0.87134 0.03237 0.0
H553 H 0.76219 0.86568 0.00492 0.0
H554 H 0.83832 0.00695 0.02875 0.0
H555 H 0.80649 0.93859 0.99736 0.0
H556 H 0.74696 0.19383 0.19507 0.0
H557 H 0.71308 0.12759 0.16832 0.0
H558 H 0.796 0.1547 0.20747 0.0
H559 H 0.83116 0.15876 0.17636 0.0
C560 C 0.24924 0.98526 0.57672 0.0
C561 C 0.22553 0.93354 0.54556 0.0
C562 C 0.2657 0.79851 0.51706 0.0
C563 C 0.28973 0.85479 0.5464 0.0
N564 N 0.30587 0.01498 0.5967 0.0
N565 N 0.21227 0.8071 0.48015 0.0
C566 C 0.28186 0.95248 0.57388 0.0
C567 C 0.23419 0.84581 0.51367 0.0
N568 N 0.2407 0.06481 0.60952 0.0
N569 N 0.2721 0.69528 0.49487 0.0
H570 H 0.18836 0.83399 0.47838 0.0
H571 H 0.21834 0.7544 0.45228 0.0
H572 H 0.29469 0.65713 0.49462 0.0
H573 H 0.25433 0.64225 0.47907 0.0
H574 H 0.25617 0.09452 0.63651 0.0
H575 H 0.21748 0.09507 0.61244 0.0
H576 H 0.30232 0.09361 0.61427 0.0
H577 H 0.33007 0.99414 0.59416 0.0
C578 C 0.70589 0.15809 0.48879 0.0
C579 C 0.68892 0.1402 0.52943 0.0
C580 C 0.7292 -0.00126 0.55762 0.0
C581 C 0.75035 0.04719 0.5253 0.0
N582 N 0.75808 0.16093 0.45572 0.0
N583 N 0.67524 -0.00033 0.58679 0.0
C584 C 0.73827 0.12062 0.48857 0.0
C585 C 0.69754 0.04447 0.5586 0.0
N586 N 0.69091 0.21165 0.45127 0.0
N587 N 0.73978 0.91234 0.58774 0.0
H588 H 0.65176 0.03184 0.58525 0.0
H589 H 0.67897 0.92747 0.60863 0.0
H590 H 0.76226 0.87292 0.58585 0.0
H591 H 0.72656 0.87912 0.61446 0.0
H592 H 0.70124 0.22124 0.41928 0.0
H593 H 0.66667 0.2345 0.45133 0.0
H594 H 0.75124 0.22476 0.43118 0.0
H595 H 0.78201 0.13543 0.45465 0.0
C596 C 0.22476 0.44763 0.59917 0.0
C597 C 0.21741 0.36584 0.56311 0.0
C598 C 0.27486 0.33194 0.55455 0.0
C599 C 0.28219 0.42437 0.58602 0.0
N600 N 0.26306 0.58763 0.63175 0.0
N601 N 0.23619 0.24836 0.49922 0.0
C602 C 0.25693 0.48672 0.60697 0.0
C603 C 0.24263 0.31361 0.5385 0.0
N604 N 0.20102 0.48867 0.62588 0.0
N605 N 0.29885 0.26048 0.54047 0.0
H606 H 0.21334 0.23537 0.48432 0.0
H607 H 0.25394 0.21826 0.47798 0.0
H608 H 0.3226 0.27 0.55305 0.0
H609 H 0.29476 0.1847 0.52065 0.0
H610 H 0.20558 0.53716 0.65626 0.0
H611 H 0.17686 0.46819 0.61915 0.0
H612 H 0.24505 0.64371 0.64225 0.0
H613 H 0.28589 0.62141 0.63886 0.0
C614 C 0.77938 0.4898 0.58373 0.0
C615 C 0.75851 0.54201 0.61552 0.0
C616 C 0.80321 0.65563 0.64945 0.0
C617 C 0.81963 0.63513 0.60843 0.0
N618 N 0.8322 0.49361 0.55076 0.0
N619 N 0.75135 0.66231 0.68342 0.0
C620 C 0.81071 0.5373 0.58049 0.0
C621 C 0.77086 0.61876 0.65084 0.0
N622 N 0.76872 0.39799 0.55633 0.0
N623 N 0.81862 0.7111 0.68616 0.0
H624 H 0.72753 0.63599 0.68551 0.0
H625 H 0.75837 0.72882 0.70671 0.0
H626 H 0.84293 0.73243 0.68552 0.0
H627 H 0.80854 0.72334 0.7182 0.0
H628 H 0.78204 0.35794 0.53118 0.0
H629 H 0.74632 0.35904 0.55983 0.0
H630 H 0.8278 0.42319 0.52824 0.0
H631 H 0.85556 0.52672 0.55076 0.0
loop_
_geom_bond_atom_site_label_1
_geom_bond_atom_site_label_2
_geom_bond_distance
_geom_bond_site_symmetry_2
_ccdc_geom_bond_type
Co0 O3 1.970 1_545 S
Co0 N17 1.989 . S
Co0 O25 1.967 . S
Co0 O32 1.920 . S
Co1 O4 1.966 1_546 S
Co1 N10 2.022 1_545 S
Co1 N18 1.993 1_556 S
Co1 O26 1.941 . S
C2 O3 1.258 . S
C2 O4 1.263 . S
O3 Co0 1.970 1_565 S
O3 C2 1.258 . S
O4 Co1 1.966 1_564 S
O4 C2 1.263 . S
C5 O6 1.235 1_545 S
C5 O32 1.289 . S
O6 C5 1.235 1_565 S
C7 C9 1.400 . S
C7 N10 1.351 . S
C7 C12 1.501 . S
C8 C9 1.387 . S
C8 N11 1.341 1_565 S
C9 C7 1.400 . S
C9 C8 1.387 . S
N10 Co1 2.022 1_565 S
N10 C7 1.351 . S
N10 N11 1.365 1_565 S
N11 C8 1.341 1_545 S
N11 N10 1.365 1_545 S
N11 H31 0.862 . S
C12 C7 1.501 . S
C12 H13 0.961 . S
C12 H14 0.961 . S
C12 H15 0.960 . S
H13 C12 0.961 . S
H14 C12 0.961 . S
H15 C12 0.960 . S
C16 N17 1.342 . S
C16 C20 1.401 . S
C16 C21 1.499 . S
N17 Co0 1.989 . S
N17 C16 1.342 . S
N17 N18 1.388 . S
N18 Co1 1.993 1_554 S
N18 N17 1.388 . S
N18 C19 1.346 . S
C19 N18 1.346 . S
C19 C20 1.396 . S
C19 C29 1.510 1_544 S
C20 C16 1.401 . S
C20 C19 1.396 . S
C21 C16 1.499 . S
C21 H22 0.959 . S
C21 H23 0.960 . S
C21 H24 0.961 . S
H22 C21 0.959 . S
H23 C21 0.960 . S
H24 C21 0.961 . S
O25 Co0 1.967 . S
O25 C33 1.258 . S
O26 Co1 1.941 . S
O26 C33 1.266 1_556 S
H27 C29 0.959 1_545 S
H28 C29 0.961 . S
C29 C19 1.510 1_566 S
C29 H27 0.959 1_565 S
C29 H28 0.961 . S
C29 H30 0.960 . S
H30 C29 0.960 . S
H31 N11 0.862 . S
O32 Co0 1.920 . S
O32 C5 1.289 . S
C33 O25 1.258 . S
C33 O26 1.266 1_554 S
Co34 O37 1.970 1_545 S
Co34 N51 1.989 . S
Co34 O59 1.967 . S
Co34 O66 1.920 1_554 S
Co35 O38 1.966 1_545 S
Co35 N44 2.022 1_545 S
Co35 N52 1.993 . S
Co35 O60 1.941 . S
C36 O37 1.258 . S
C36 O38 1.263 . S
O37 Co34 1.970 1_565 S
O37 C36 1.258 . S
O38 Co35 1.966 1_565 S
O38 C36 1.263 . S
C39 O40 1.235 1_545 S
C39 O66 1.289 . S
O40 C39 1.235 1_565 S
C41 C43 1.400 . S
C41 N44 1.351 . S
C41 C46 1.501 . S
C42 C43 1.387 . S
C42 N45 1.341 1_565 S
C43 C41 1.400 . S
C43 C42 1.387 . S
N44 Co35 2.022 1_565 S
N44 C41 1.351 . S
N44 N45 1.365 1_565 S
N45 C42 1.341 1_545 S
N45 N44 1.365 1_545 S
N45 H65 0.862 . S
C46 C41 1.501 . S
C46 H47 0.961 . S
C46 H48 0.961 . S
C46 H49 0.960 . S
H47 C46 0.961 . S
H48 C46 0.961 . S
H49 C46 0.960 . S
C50 N51 1.342 . S
C50 C54 1.401 . S
C50 C55 1.499 1_554 S
N51 Co34 1.989 . S
N51 C50 1.342 . S
N51 N52 1.388 . S
N52 Co35 1.993 . S
N52 N51 1.388 . S
N52 C53 1.346 . S
C53 N52 1.346 . S
C53 C54 1.396 . S
C53 C63 1.510 1_545 S
C54 C50 1.401 . S
C54 C53 1.396 . S
C55 C50 1.499 1_556 S
C55 H56 0.959 . S
C55 H57 0.960 . S
C55 H58 0.961 . S
H56 C55 0.959 . S
H57 C55 0.960 . S
H58 C55 0.961 . S
O59 Co34 1.967 . S
O59 C67 1.258 . S
O60 Co35 1.941 . S
O60 C67 1.266 . S
H61 C63 0.959 1_545 S
H62 C63 0.961 . S
C63 C53 1.510 1_565 S
C63 H61 0.959 1_565 S
C63 H62 0.961 . S
C63 H64 0.960 . S
H64 C63 0.960 . S
H65 N45 0.862 . S
O66 Co34 1.920 1_556 S
O66 C39 1.289 . S
C67 O59 1.258 . S
C67 O60 1.266 . S
Co68 O71 1.970 . S
Co68 N85 1.989 . S
Co68 O93 1.967 . S
Co68 O100 1.920 . S
Co69 O72 1.966 . S
Co69 N78 2.022 . S
Co69 N86 1.993 . S
Co69 O94 1.941 . S
C70 O71 1.258 . S
C70 O72 1.263 . S
O71 Co68 1.970 . S
O71 C70 1.258 . S
O72 Co69 1.966 . S
O72 C70 1.263 . S
C73 O74 1.235 . S
C73 O100 1.289 . S
O74 C73 1.235 . S
C75 C77 1.400 . S
C75 N78 1.351 . S
C75 C80 1.501 . S
C76 C77 1.387 . S
C76 N79 1.341 . S
C77 C75 1.400 . S
C77 C76 1.387 . S
N78 Co69 2.022 . S
N78 C75 1.351 . S
N78 N79 1.365 . S
N79 C76 1.341 . S
N79 N78 1.365 . S
N79 H99 0.862 . S
C80 C75 1.501 . S
C80 H81 0.961 . S
C80 H82 0.961 . S
C80 H83 0.960 . S
H81 C80 0.961 . S
H82 C80 0.961 . S
H83 C80 0.960 . S
C84 N85 1.342 . S
C84 C88 1.401 . S
C84 C89 1.499 . S
N85 Co68 1.989 . S
N85 C84 1.342 . S
N85 N86 1.388 . S
N86 Co69 1.993 . S
N86 N85 1.388 . S
N86 C87 1.346 . S
C87 N86 1.346 . S
C87 C88 1.396 . S
C87 C97 1.510 . S
C88 C84 1.401 . S
C88 C87 1.396 . S
C89 C84 1.499 . S
C89 H90 0.959 . S
C89 H91 0.960 . S
C89 H92 0.961 . S
H90 C89 0.959 . S
H91 C89 0.960 . S
H92 C89 0.961 . S
O93 Co68 1.967 . S
O93 C101 1.258 . S
O94 Co69 1.941 . S
O94 C101 1.266 . S
H95 C97 0.959 . S
H96 C97 0.961 . S
C97 C87 1.510 . S
C97 H95 0.959 . S
C97 H96 0.961 . S
C97 H98 0.960 . S
H98 C97 0.960 . S
H99 N79 0.862 . S
O100 Co68 1.920 . S
O100 C73 1.289 . S
C101 O93 1.258 . S
C101 O94 1.266 . S
Co102 O105 1.970 . S
Co102 N119 1.989 . S
Co102 O127 1.967 . S
Co102 O134 1.920 . S
Co103 O106 1.966 . S
Co103 N112 2.022 . S
Co103 N120 1.993 . S
Co103 O128 1.941 . S
C104 O105 1.258 . S
C104 O106 1.263 . S
O105 Co102 1.970 . S
O105 C104 1.258 . S
O106 Co103 1.966 . S
O106 C104 1.263 . S
C107 O108 1.235 . S
C107 O134 1.289 . S
O108 C107 1.235 . S
C109 C111 1.400 . S
C109 N112 1.351 . S
C109 C114 1.501 . S
C110 C111 1.387 . S
C110 N113 1.341 . S
C111 C109 1.400 . S
C111 C110 1.387 . S
N112 Co103 2.022 . S
N112 C109 1.351 . S
N112 N113 1.365 . S
N113 C110 1.341 . S
N113 N112 1.365 . S
N113 H133 0.862 . S
C114 C109 1.501 . S
C114 H115 0.961 . S
C114 H116 0.961 . S
C114 H117 0.960 . S
H115 C114 0.961 . S
H116 C114 0.961 . S
H117 C114 0.960 . S
C118 N119 1.342 . S
C118 C122 1.401 . S
C118 C123 1.499 . S
N119 Co102 1.989 . S
N119 C118 1.342 . S
N119 N120 1.388 . S
N120 Co103 1.993 . S
N120 N119 1.388 . S
N120 C121 1.346 . S
C121 N120 1.346 . S
C121 C122 1.396 . S
C121 C131 1.510 . S
C122 C118 1.401 . S
C122 C121 1.396 . S
C123 C118 1.499 . S
C123 H124 0.959 . S
C123 H125 0.960 . S
C123 H126 0.961 . S
H124 C123 0.959 . S
H125 C123 0.960 . S
H126 C123 0.961 . S
O127 Co102 1.967 . S
O127 C135 1.258 . S
O128 Co103 1.941 . S
O128 C135 1.266 . S
H129 C131 0.959 . S
H130 C131 0.961 . S
C131 C121 1.510 . S
C131 H129 0.959 . S
C131 H130 0.961 . S
C131 H132 0.960 . S
H132 C131 0.960 . S
H133 N113 0.862 . S
O134 Co102 1.920 . S
O134 C107 1.289 . S
C135 O127 1.258 . S
C135 O128 1.266 . S
Co136 O139 1.970 1_545 S
Co136 N153 1.989 . S
Co136 O161 1.967 . S
Co136 O168 1.920 . S
Co137 O140 1.966 1_545 S
Co137 N146 2.022 1_545 S
Co137 N154 1.993 . S
Co137 O162 1.941 . S
C138 O139 1.258 . S
C138 O140 1.263 . S
O139 Co136 1.970 1_565 S
O139 C138 1.258 . S
O140 Co137 1.966 1_565 S
O140 C138 1.263 . S
C141 O142 1.235 1_545 S
C141 O168 1.289 . S
O142 C141 1.235 1_565 S
C143 C145 1.400 . S
C143 N146 1.351 . S
C143 C148 1.501 . S
C144 C145 1.387 . S
C144 N147 1.341 1_565 S
C145 C143 1.400 . S
C145 C144 1.387 . S
N146 Co137 2.022 1_565 S
N146 C143 1.351 . S
N146 N147 1.365 1_565 S
N147 C144 1.341 1_545 S
N147 N146 1.365 1_545 S
N147 H167 0.862 . S
C148 C143 1.501 . S
C148 H149 0.961 . S
C148 H150 0.961 . S
C148 H151 0.960 . S
H149 C148 0.961 . S
H150 C148 0.961 . S
H151 C148 0.960 . S
C152 N153 1.342 . S
C152 C156 1.401 . S
C152 C157 1.499 . S
N153 Co136 1.989 . S
N153 C152 1.342 . S
N153 N154 1.388 . S
N154 Co137 1.993 . S
N154 N153 1.388 . S
N154 C155 1.346 . S
C155 N154 1.346 . S
C155 C156 1.396 . S
C155 C165 1.510 1_545 S
C156 C152 1.401 . S
C156 C155 1.396 . S
C157 C152 1.499 . S
C157 H158 0.959 . S
C157 H159 0.960 . S
C157 H160 0.961 . S
H158 C157 0.959 . S
H159 C157 0.960 . S
H160 C157 0.961 . S
O161 Co136 1.967 . S
O161 C169 1.258 . S
O162 Co137 1.941 . S
O162 C169 1.266 . S
H163 C165 0.959 1_545 S
H164 C165 0.961 . S
C165 C155 1.510 1_565 S
C165 H163 0.959 1_565 S
C165 H164 0.961 . S
C165 H166 0.960 . S
H166 C165 0.960 . S
H167 N147 0.862 . S
O168 Co136 1.920 . S
O168 C141 1.289 . S
C169 O161 1.258 . S
C169 O162 1.266 . S
Co170 O173 1.970 1_545 S
Co170 N187 1.989 . S
Co170 O195 1.967 . S
Co170 O202 1.920 . S
Co171 O174 1.966 1_545 S
Co171 N180 2.022 1_545 S
Co171 N188 1.993 . S
Co171 O196 1.941 . S
C172 O173 1.258 . S
C172 O174 1.263 . S
O173 Co170 1.970 1_565 S
O173 C172 1.258 . S
O174 Co171 1.966 1_565 S
O174 C172 1.263 . S
C175 O176 1.235 1_545 S
C175 O202 1.289 . S
O176 C175 1.235 1_565 S
C177 C179 1.400 . S
C177 N180 1.351 . S
C177 C182 1.501 . S
C178 C179 1.387 . S
C178 N181 1.341 1_565 S
C179 C177 1.400 . S
C179 C178 1.387 . S
N180 Co171 2.022 1_565 S
N180 C177 1.351 . S
N180 N181 1.365 1_565 S
N181 C178 1.341 1_545 S
N181 N180 1.365 1_545 S
N181 H201 0.862 . S
C182 C177 1.501 . S
C182 H183 0.961 . S
C182 H184 0.961 . S
C182 H185 0.960 . S
H183 C182 0.961 . S
H184 C182 0.961 . S
H185 C182 0.960 . S
C186 N187 1.342 . S
C186 C190 1.401 . S
C186 C191 1.499 . S
N187 Co170 1.989 . S
N187 C186 1.342 . S
N187 N188 1.388 . S
N188 Co171 1.993 . S
N188 N187 1.388 . S
N188 C189 1.346 . S
C189 N188 1.346 . S
C189 C190 1.396 . S
C189 C199 1.510 1_545 S
C190 C186 1.401 . S
C190 C189 1.396 . S
C191 C186 1.499 . S
C191 H192 0.959 . S
C191 H193 0.960 . S
C191 H194 0.961 . S
H192 C191 0.959 . S
H193 C191 0.960 . S
H194 C191 0.961 . S
O195 Co170 1.967 . S
O195 C203 1.258 . S
O196 Co171 1.941 . S
O196 C203 1.266 . S
H197 C199 0.959 1_545 S
H198 C199 0.961 . S
C199 C189 1.510 1_565 S
C199 H197 0.959 1_565 S
C199 H198 0.961 . S
C199 H200 0.960 . S
H200 C199 0.960 . S
H201 N181 0.862 . S
O202 Co170 1.920 . S
O202 C175 1.289 . S
C203 O195 1.258 . S
C203 O196 1.266 . S
Co204 O207 1.970 . S
Co204 N221 1.989 . S
Co204 O229 1.967 . S
Co204 O236 1.920 . S
Co205 O208 1.966 1_556 S
Co205 N214 2.022 . S
Co205 N222 1.993 1_556 S
Co205 O230 1.941 . S
C206 O207 1.258 . S
C206 O208 1.263 . S
O207 Co204 1.970 . S
O207 C206 1.258 . S
O208 Co205 1.966 1_554 S
O208 C206 1.263 . S
C209 O210 1.235 . S
C209 O236 1.289 . S
O210 C209 1.235 . S
C211 C213 1.400 . S
C211 N214 1.351 . S
C211 C216 1.501 . S
C212 C213 1.387 . S
C212 N215 1.341 . S
C213 C211 1.400 . S
C213 C212 1.387 . S
N214 Co205 2.022 . S
N214 C211 1.351 . S
N214 N215 1.365 . S
N215 C212 1.341 . S
N215 N214 1.365 . S
N215 H235 0.862 . S
C216 C211 1.501 . S
C216 H217 0.961 . S
C216 H218 0.961 . S
C216 H219 0.960 . S
H217 C216 0.961 . S
H218 C216 0.961 . S
H219 C216 0.960 . S
C220 N221 1.342 . S
C220 C224 1.401 . S
C220 C225 1.499 . S
N221 Co204 1.989 . S
N221 C220 1.342 . S
N221 N222 1.388 . S
N222 Co205 1.993 1_554 S
N222 N221 1.388 . S
N222 C223 1.346 . S
C223 N222 1.346 . S
C223 C224 1.396 . S
C223 C233 1.510 1_554 S
C224 C220 1.401 . S
C224 C223 1.396 . S
C225 C220 1.499 . S
C225 H226 0.959 . S
C225 H227 0.960 . S
C225 H228 0.961 . S
H226 C225 0.959 . S
H227 C225 0.960 . S
H228 C225 0.961 . S
O229 Co204 1.967 . S
O229 C237 1.258 . S
O230 Co205 1.941 . S
O230 C237 1.266 1_556 S
H231 C233 0.959 . S
H232 C233 0.961 . S
C233 C223 1.510 1_556 S
C233 H231 0.959 . S
C233 H232 0.961 . S
C233 H234 0.960 . S
H234 C233 0.960 . S
H235 N215 0.862 . S
O236 Co204 1.920 . S
O236 C209 1.289 . S
C237 O229 1.258 . S
C237 O230 1.266 1_554 S
Co238 O241 1.970 . S
Co238 N255 1.989 . S
Co238 O263 1.967 . S
Co238 O270 1.920 1_554 S
Co239 O242 1.966 . S
Co239 N248 2.022 . S
Co239 N256 1.993 . S
Co239 O264 1.941 . S
C240 O241 1.258 . S
C240 O242 1.263 . S
O241 Co238 1.970 . S
O241 C240 1.258 . S
O242 Co239 1.966 . S
O242 C240 1.263 . S
C243 O244 1.235 . S
C243 O270 1.289 . S
O244 C243 1.235 . S
C245 C247 1.400 . S
C245 N248 1.351 . S
C245 C250 1.501 . S
C246 C247 1.387 . S
C246 N249 1.341 . S
C247 C245 1.400 . S
C247 C246 1.387 . S
N248 Co239 2.022 . S
N248 C245 1.351 . S
N248 N249 1.365 . S
N249 C246 1.341 . S
N249 N248 1.365 . S
N249 H269 0.862 . S
C250 C245 1.501 . S
C250 H251 0.961 . S
C250 H252 0.961 . S
C250 H253 0.960 . S
H251 C250 0.961 . S
H252 C250 0.961 . S
H253 C250 0.960 . S
C254 N255 1.342 . S
C254 C258 1.401 . S
C254 C259 1.499 1_554 S
N255 Co238 1.989 . S
N255 C254 1.342 . S
N255 N256 1.388 . S
N256 Co239 1.993 . S
N256 N255 1.388 . S
N256 C257 1.346 . S
C257 N256 1.346 . S
C257 C258 1.396 . S
C257 C267 1.510 . S
C258 C254 1.401 . S
C258 C257 1.396 . S
C259 C254 1.499 1_556 S
C259 H260 0.959 . S
C259 H261 0.960 . S
C259 H262 0.961 . S
H260 C259 0.959 . S
H261 C259 0.960 . S
H262 C259 0.961 . S
O263 Co238 1.967 . S
O263 C271 1.258 . S
O264 Co239 1.941 . S
O264 C271 1.266 . S
H265 C267 0.959 . S
H266 C267 0.961 . S
C267 C257 1.510 . S
C267 H265 0.959 . S
C267 H266 0.961 . S
C267 H268 0.960 . S
H268 C267 0.960 . S
H269 N249 0.862 . S
O270 Co238 1.920 1_556 S
O270 C243 1.289 . S
C271 O263 1.258 . S
C271 O264 1.266 . S
C272 C273 1.363 . S
C272 C278 1.379 . S
C272 N280 1.356 . S
C273 C272 1.363 . S
C273 C279 1.363 . S
C274 C275 1.363 . S
C274 C279 1.379 . S
C274 N281 1.356 . S
C275 C274 1.363 . S
C275 C278 1.363 . S
N276 C278 1.356 . S
N276 H288 0.984 . S
N276 H289 0.985 . S
N277 C279 1.356 . S
N277 H282 0.984 . S
N277 H283 0.985 . S
C278 C272 1.379 . S
C278 C275 1.363 . S
C278 N276 1.356 . S
C279 C273 1.363 . S
C279 C274 1.379 . S
C279 N277 1.356 . S
N280 C272 1.356 . S
N280 H286 0.984 . S
N280 H287 0.984 . S
N281 C274 1.356 . S
N281 H284 0.984 1_545 S
N281 H285 0.985 1_545 S
H282 N277 0.984 . S
H283 N277 0.985 . S
H284 N281 0.984 1_565 S
H285 N281 0.985 1_565 S
H286 N280 0.984 . S
H287 N280 0.984 . S
H288 N276 0.984 . S
H289 N276 0.985 . S
C290 C291 1.363 . S
C290 C296 1.379 . S
C290 N298 1.356 . S
C291 C290 1.363 . S
C291 C297 1.363 . S
C292 C293 1.363 . S
C292 C297 1.379 . S
C292 N299 1.356 . S
C293 C292 1.363 . S
C293 C296 1.363 . S
N294 C296 1.356 . S
N294 H306 0.984 . S
N294 H307 0.985 . S
N295 C297 1.356 . S
N295 H300 0.984 . S
N295 H301 0.985 . S
C296 C290 1.379 . S
C296 C293 1.363 . S
C296 N294 1.356 . S
C297 C291 1.363 . S
C297 C292 1.379 . S
C297 N295 1.356 . S
N298 C290 1.356 . S
N298 H304 0.984 . S
N298 H305 0.984 . S
N299 C292 1.356 . S
N299 H302 0.984 . S
N299 H303 0.985 . S
H300 N295 0.984 . S
H301 N295 0.985 . S
H302 N299 0.984 . S
H303 N299 0.985 . S
H304 N298 0.984 . S
H305 N298 0.984 . S
H306 N294 0.984 . S
H307 N294 0.985 . S
C308 C309 1.363 . S
C308 C314 1.379 . S
C308 N316 1.356 . S
C309 C308 1.363 . S
C309 C315 1.363 . S
C310 C311 1.363 . S
C310 C315 1.379 . S
C310 N317 1.356 . S
C311 C310 1.363 . S
C311 C314 1.363 . S
N312 C314 1.356 . S
N312 H324 0.984 . S
N312 H325 0.985 . S
N313 C315 1.356 . S
N313 H318 0.984 . S
N313 H319 0.985 . S
C314 C308 1.379 . S
C314 C311 1.363 . S
C314 N312 1.356 . S
C315 C309 1.363 . S
C315 C310 1.379 . S
C315 N313 1.356 . S
N316 C308 1.356 . S
N316 H322 0.984 . S
N316 H323 0.984 . S
N317 C310 1.356 . S
N317 H320 0.984 . S
N317 H321 0.985 . S
H318 N313 0.984 . S
H319 N313 0.985 . S
H320 N317 0.984 . S
H321 N317 0.985 . S
H322 N316 0.984 . S
H323 N316 0.984 . S
H324 N312 0.984 . S
H325 N312 0.985 . S
C326 C327 1.363 . S
C326 C332 1.379 . S
C326 N334 1.356 . S
C327 C326 1.363 . S
C327 C333 1.363 . S
C328 C329 1.363 . S
C328 C333 1.379 . S
C328 N335 1.356 . S
C329 C328 1.363 . S
C329 C332 1.363 . S
N330 C332 1.356 1_565 S
N330 H342 0.984 . S
N330 H343 0.985 . S
N331 C333 1.356 . S
N331 H336 0.984 . S
N331 H337 0.985 . S
C332 C326 1.379 . S
C332 C329 1.363 . S
C332 N330 1.356 1_545 S
C333 C327 1.363 . S
C333 C328 1.379 . S
C333 N331 1.356 . S
N334 C326 1.356 . S
N334 H340 0.984 . S
N334 H341 0.984 . S
N335 C328 1.356 . S
N335 H338 0.984 . S
N335 H339 0.985 . S
H336 N331 0.984 . S
H337 N331 0.985 . S
H338 N335 0.984 . S
H339 N335 0.985 . S
H340 N334 0.984 . S
H341 N334 0.984 . S
H342 N330 0.984 . S
H343 N330 0.985 . S
C344 C345 1.363 . S
C344 C350 1.379 . S
C344 N352 1.356 . S
C345 C344 1.363 . S
C345 C351 1.363 . S
C346 C347 1.363 . S
C346 C351 1.379 . S
C346 N353 1.356 . S
C347 C346 1.363 . S
C347 C350 1.363 . S
N348 C350 1.356 . S
N348 H360 0.984 . S
N348 H361 0.985 . S
N349 C351 1.356 . S
N349 H354 0.984 1_545 S
N349 H355 0.985 1_545 S
C350 C344 1.379 . S
C350 C347 1.363 . S
C350 N348 1.356 . S
C351 C345 1.363 . S
C351 C346 1.379 . S
C351 N349 1.356 . S
N352 C344 1.356 . S
N352 H358 0.984 . S
N352 H359 0.984 . S
N353 C346 1.356 . S
N353 H356 0.984 . S
N353 H357 0.985 . S
H354 N349 0.984 1_565 S
H355 N349 0.985 1_565 S
H356 N353 0.984 . S
H357 N353 0.985 . S
H358 N352 0.984 . S
H359 N352 0.984 . S
H360 N348 0.984 . S
H361 N348 0.985 . S
C362 C363 1.363 . S
C362 C368 1.379 . S
C362 N370 1.356 . S
C363 C362 1.363 . S
C363 C369 1.363 . S
C364 C365 1.363 . S
C364 C369 1.379 . S
C364 N371 1.356 . S
C365 C364 1.363 . S
C365 C368 1.363 . S
N366 C368 1.356 . S
N366 H378 0.984 . S
N366 H379 0.985 . S
N367 C369 1.356 . S
N367 H372 0.984 . S
N367 H373 0.985 . S
C368 C362 1.379 . S
C368 C365 1.363 . S
C368 N366 1.356 . S
C369 C363 1.363 . S
C369 C364 1.379 . S
C369 N367 1.356 . S
N370 C362 1.356 . S
N370 H376 0.984 . S
N370 H377 0.984 . S
N371 C364 1.356 . S
N371 H374 0.984 . S
N371 H375 0.985 . S
H372 N367 0.984 . S
H373 N367 0.985 . S
H374 N371 0.984 . S
H375 N371 0.985 . S
H376 N370 0.984 . S
H377 N370 0.984 . S
H378 N366 0.984 . S
H379 N366 0.985 . S
C380 C381 1.363 . S
C380 C386 1.379 . S
C380 N388 1.356 . S
C381 C380 1.363 . S
C381 C387 1.363 . S
C382 C383 1.363 . S
C382 C387 1.379 . S
C382 N389 1.356 . S
C383 C382 1.363 . S
C383 C386 1.363 . S
N384 C386 1.356 . S
N384 H396 0.984 . S
N384 H397 0.985 . S
N385 C387 1.356 . S
N385 H390 0.984 . S
N385 H391 0.985 . S
C386 C380 1.379 . S
C386 C383 1.363 . S
C386 N384 1.356 . S
C387 C381 1.363 . S
C387 C382 1.379 . S
C387 N385 1.356 . S
N388 C380 1.356 . S
N388 H394 0.984 . S
N388 H395 0.984 . S
N389 C382 1.356 . S
N389 H392 0.984 . S
N389 H393 0.985 . S
H390 N385 0.984 . S
H391 N385 0.985 . S
H392 N389 0.984 . S
H393 N389 0.985 . S
H394 N388 0.984 . S
H395 N388 0.984 . S
H396 N384 0.984 . S
H397 N384 0.985 . S
C398 C399 1.363 . S
C398 C404 1.379 . S
C398 N406 1.356 . S
C399 C398 1.363 . S
C399 C405 1.363 . S
C400 C401 1.363 . S
C400 C405 1.379 . S
C400 N407 1.356 . S
C401 C400 1.363 . S
C401 C404 1.363 . S
N402 C404 1.356 . S
N402 H414 0.984 . S
N402 H415 0.985 . S
N403 C405 1.356 . S
N403 H408 0.984 . S
N403 H409 0.985 . S
C404 C398 1.379 . S
C404 C401 1.363 . S
C404 N402 1.356 . S
C405 C399 1.363 . S
C405 C400 1.379 . S
C405 N403 1.356 . S
N406 C398 1.356 . S
N406 H412 0.984 . S
N406 H413 0.984 . S
N407 C400 1.356 . S
N407 H410 0.984 . S
N407 H411 0.985 . S
H408 N403 0.984 . S
H409 N403 0.985 . S
H410 N407 0.984 . S
H411 N407 0.985 . S
H412 N406 0.984 . S
H413 N406 0.984 . S
H414 N402 0.984 . S
H415 N402 0.985 . S
C416 C417 1.363 1_565 S
C416 C422 1.379 . S
C416 N424 1.356 . S
C417 C416 1.363 1_545 S
C417 C423 1.363 . S
C418 C419 1.363 . S
C418 C423 1.379 . S
C418 N425 1.356 . S
C419 C418 1.363 . S
C419 C422 1.363 1_545 S
N420 C422 1.356 . S
N420 H432 0.984 1_554 S
N420 H433 0.985 . S
N421 C423 1.356 . S
N421 H426 0.984 . S
N421 H427 0.985 . S
C422 C416 1.379 . S
C422 C419 1.363 1_565 S
C422 N420 1.356 . S
C423 C417 1.363 . S
C423 C418 1.379 . S
C423 N421 1.356 . S
N424 C416 1.356 . S
N424 H430 0.984 . S
N424 H431 0.984 . S
N425 C418 1.356 . S
N425 H428 0.984 . S
N425 H429 0.985 . S
H426 N421 0.984 . S
H427 N421 0.985 . S
H428 N425 0.984 . S
H429 N425 0.985 . S
H430 N424 0.984 . S
H431 N424 0.984 . S
H432 N420 0.984 1_556 S
H433 N420 0.985 . S
C434 C435 1.363 . S
C434 C440 1.379 . S
C434 N442 1.356 . S
C435 C434 1.363 . S
C435 C441 1.363 . S
C436 C437 1.363 . S
C436 C441 1.379 . S
C436 N443 1.356 . S
C437 C436 1.363 . S
C437 C440 1.363 . S
N438 C440 1.356 . S
N438 H450 0.984 . S
N438 H451 0.985 . S
N439 C441 1.356 . S
N439 H444 0.984 . S
N439 H445 0.985 . S
C440 C434 1.379 . S
C440 C437 1.363 . S
C440 N438 1.356 . S
C441 C435 1.363 . S
C441 C436 1.379 . S
C441 N439 1.356 . S
N442 C434 1.356 . S
N442 H448 0.984 . S
N442 H449 0.984 . S
N443 C436 1.356 . S
N443 H446 0.984 . S
N443 H447 0.985 . S
H444 N439 0.984 . S
H445 N439 0.985 . S
H446 N443 0.984 . S
H447 N443 0.985 . S
H448 N442 0.984 . S
H449 N442 0.984 . S
H450 N438 0.984 . S
H451 N438 0.985 . S
C452 C453 1.363 1_565 S
C452 C458 1.379 1_455 S
C452 N460 1.356 . S
C453 C452 1.363 1_545 S
C453 C459 1.363 . S
C454 C455 1.363 . S
C454 C459 1.379 1_655 S
C454 N461 1.356 . S
C455 C454 1.363 . S
C455 C458 1.363 1_545 S
N456 C458 1.356 . S
N456 H468 0.984 . S
N456 H469 0.985 . S
N457 C459 1.356 . S
N457 H462 0.984 . S
N457 H463 0.985 . S
C458 C452 1.379 1_655 S
C458 C455 1.363 1_565 S
C458 N456 1.356 . S
C459 C453 1.363 . S
C459 C454 1.379 1_455 S
C459 N457 1.356 . S
N460 C452 1.356 . S
N460 H466 0.984 . S
N460 H467 0.984 . S
N461 C454 1.356 . S
N461 H464 0.984 . S
N461 H465 0.985 . S
H462 N457 0.984 . S
H463 N457 0.985 . S
H464 N461 0.984 . S
H465 N461 0.985 . S
H466 N460 0.984 . S
H467 N460 0.984 . S
H468 N456 0.984 . S
H469 N456 0.985 . S
C470 C471 1.363 . S
C470 C476 1.379 1_655 S
C470 N478 1.356 . S
C471 C470 1.363 . S
C471 C477 1.363 . S
C472 C473 1.363 . S
C472 C477 1.379 1_455 S
C472 N479 1.356 . S
C473 C472 1.363 . S
C473 C476 1.363 . S
N474 C476 1.356 . S
N474 H486 0.984 . S
N474 H487 0.985 . S
N475 C477 1.356 . S
N475 H480 0.984 . S
N475 H481 0.985 . S
C476 C470 1.379 1_455 S
C476 C473 1.363 . S
C476 N474 1.356 . S
C477 C471 1.363 . S
C477 C472 1.379 1_655 S
C477 N475 1.356 . S
N478 C470 1.356 . S
N478 H484 0.984 1_554 S
N478 H485 0.984 . S
N479 C472 1.356 . S
N479 H482 0.984 . S
N479 H483 0.985 . S
H480 N475 0.984 . S
H481 N475 0.985 . S
H482 N479 0.984 . S
H483 N479 0.985 . S
H484 N478 0.984 1_556 S
H485 N478 0.984 . S
H486 N474 0.984 . S
H487 N474 0.985 . S
C488 C489 1.363 . S
C488 C494 1.379 . S
C488 N496 1.356 . S
C489 C488 1.363 . S
C489 C495 1.363 . S
C490 C491 1.363 . S
C490 C495 1.379 . S
C490 N497 1.356 1_554 S
C491 C490 1.363 . S
C491 C494 1.363 . S
N492 C494 1.356 . S
N492 H504 0.984 . S
N492 H505 0.985 . S
N493 C495 1.356 1_556 S
N493 H498 0.990 . S
N493 H499 0.985 . S
C494 C488 1.379 . S
C494 C491 1.363 . S
C494 N492 1.356 . S
C495 C489 1.363 . S
C495 C490 1.379 . S
C495 N493 1.356 1_554 S
N496 C488 1.356 . S
N496 H502 0.984 . S
N496 H503 0.984 . S
N497 C490 1.356 1_556 S
N497 H500 0.984 . S
N497 H501 0.985 . S
H498 N493 0.990 . S
H499 N493 0.985 . S
H500 N497 0.984 . S
H501 N497 0.985 . S
H502 N496 0.984 . S
H503 N496 0.984 . S
H504 N492 0.984 . S
H505 N492 0.985 . S
C506 C507 1.363 . S
C506 C512 1.379 . S
C506 N514 1.356 . S
C507 C506 1.363 . S
C507 C513 1.363 . S
C508 C509 1.363 . S
C508 C513 1.379 . S
C508 N515 1.356 . S
C509 C508 1.363 . S
C509 C512 1.363 . S
N510 C512 1.356 1_545 S
N510 H522 0.984 . S
N510 H523 0.985 1_545 S
N511 C513 1.356 . S
N511 H516 0.984 . S
N511 H517 0.985 . S
C512 C506 1.379 . S
C512 C509 1.363 . S
C512 N510 1.356 1_565 S
C513 C507 1.363 . S
C513 C508 1.379 . S
C513 N511 1.356 . S
N514 C506 1.356 . S
N514 H520 0.984 1_565 S
N514 H521 0.984 . S
N515 C508 1.356 . S
N515 H518 0.984 . S
N515 H519 0.985 . S
H516 N511 0.984 . S
H517 N511 0.985 . S
H518 N515 0.984 . S
H519 N515 0.985 . S
H520 N514 0.984 1_545 S
H521 N514 0.984 . S
H522 N510 0.984 . S
H523 N510 0.985 1_565 S
C524 C525 1.363 . S
C524 C530 1.379 . S
C524 N532 1.356 . S
C525 C524 1.363 . S
C525 C531 1.363 . S
C526 C527 1.363 . S
C526 C531 1.379 . S
C526 N533 1.356 1_565 S
C527 C526 1.363 . S
C527 C530 1.363 . S
N528 C530 1.356 . S
N528 H540 0.984 . S
N528 H541 0.985 . S
N529 C531 1.356 . S
N529 H534 0.984 . S
N529 H535 0.985 1_565 S
C530 C524 1.379 . S
C530 C527 1.363 . S
C530 N528 1.356 . S
C531 C525 1.363 . S
C531 C526 1.379 . S
C531 N529 1.356 . S
N532 C524 1.356 . S
N532 H538 0.984 . S
N532 H539 0.984 . S
N533 C526 1.356 1_545 S
N533 H536 0.984 1_545 S
N533 H537 0.985 . S
H534 N529 0.984 . S
H535 N529 0.985 1_545 S
H536 N533 0.984 1_565 S
H537 N533 0.985 . S
H538 N532 0.984 . S
H539 N532 0.984 . S
H540 N528 0.984 . S
H541 N528 0.985 . S
C542 C543 1.363 . S
C542 C548 1.379 . S
C542 N550 1.356 . S
C543 C542 1.363 . S
C543 C549 1.363 . S
C544 C545 1.363 . S
C544 C549 1.379 . S
C544 N551 1.356 . S
C545 C544 1.363 . S
C545 C548 1.363 . S
N546 C548 1.356 . S
N546 H558 0.984 . S
N546 H559 0.985 . S
N547 C549 1.356 . S
N547 H552 0.984 . S
N547 H553 0.985 . S
C548 C542 1.379 . S
C548 C545 1.363 . S
C548 N546 1.356 . S
C549 C543 1.363 . S
C549 C544 1.379 . S
C549 N547 1.356 . S
N550 C542 1.356 . S
N550 H556 0.984 . S
N550 H557 0.984 . S
N551 C544 1.356 . S
N551 H554 0.984 . S
N551 H555 0.985 . S
H552 N547 0.984 . S
H553 N547 0.985 . S
H554 N551 0.984 . S
H555 N551 0.985 . S
H556 N550 0.984 . S
H557 N550 0.984 . S
H558 N546 0.984 . S
H559 N546 0.985 . S
C560 C561 1.363 . S
C560 C566 1.379 . S
C560 N568 1.356 . S
C561 C560 1.363 . S
C561 C567 1.363 . S
C562 C563 1.363 . S
C562 C567 1.379 . S
C562 N569 1.356 . S
C563 C562 1.363 . S
C563 C566 1.363 . S
N564 C566 1.356 . S
N564 H576 0.984 1_565 S
N564 H577 0.985 . S
N565 C567 1.356 . S
N565 H570 0.984 . S
N565 H571 0.985 . S
C566 C560 1.379 . S
C566 C563 1.363 . S
C566 N564 1.356 . S
C567 C561 1.363 . S
C567 C562 1.379 . S
C567 N565 1.356 . S
N568 C560 1.356 . S
N568 H574 0.984 1_565 S
N568 H575 0.984 . S
N569 C562 1.356 . S
N569 H572 0.984 . S
N569 H573 0.985 . S
H570 N565 0.984 . S
H571 N565 0.985 . S
H572 N569 0.984 . S
H573 N569 0.985 . S
H574 N568 0.984 1_545 S
H575 N568 0.984 . S
H576 N564 0.984 1_545 S
H577 N564 0.985 . S
C578 C579 1.363 . S
C578 C584 1.379 . S
C578 N586 1.356 . S
C579 C578 1.363 . S
C579 C585 1.363 . S
C580 C581 1.363 . S
C580 C585 1.379 . S
C580 N587 1.356 . S
C581 C580 1.363 . S
C581 C584 1.363 . S
N582 C584 1.356 . S
N582 H594 0.984 . S
N582 H595 0.985 . S
N583 C585 1.356 . S
N583 H588 0.984 . S
N583 H589 0.985 . S
C584 C578 1.379 . S
C584 C581 1.363 . S
C584 N582 1.356 . S
C585 C579 1.363 . S
C585 C580 1.379 . S
C585 N583 1.356 . S
N586 C578 1.356 . S
N586 H592 0.984 . S
N586 H593 0.984 . S
N587 C580 1.356 . S
N587 H590 0.984 . S
N587 H591 0.985 . S
H588 N583 0.984 . S
H589 N583 0.985 . S
H590 N587 0.984 . S
H591 N587 0.985 . S
H592 N586 0.984 . S
H593 N586 0.984 . S
H594 N582 0.984 . S
H595 N582 0.985 . S
C596 C597 1.363 . S
C596 C602 1.379 . S
C596 N604 1.356 . S
C597 C596 1.363 . S
C597 C603 1.363 . S
C598 C599 1.363 . S
C598 C603 1.379 . S
C598 N605 1.356 . S
C599 C598 1.363 . S
C599 C602 1.363 . S
N600 C602 1.356 . S
N600 H612 0.984 . S
N600 H613 0.985 . S
N601 C603 1.356 . S
N601 H606 0.984 . S
N601 H607 0.985 . S
C602 C596 1.379 . S
C602 C599 1.363 . S
C602 N600 1.356 . S
C603 C597 1.363 . S
C603 C598 1.379 . S
C603 N601 1.356 . S
N604 C596 1.356 . S
N604 H610 0.984 . S
N604 H611 0.984 . S
N605 C598 1.356 . S
N605 H608 0.984 . S
N605 H609 0.985 . S
H606 N601 0.984 . S
H607 N601 0.985 . S
H608 N605 0.984 . S
H609 N605 0.985 . S
H610 N604 0.984 . S
H611 N604 0.984 . S
H612 N600 0.984 . S
H613 N600 0.985 . S
C614 C615 1.363 . S
C614 C620 1.379 . S
C614 N622 1.356 . S
C615 C614 1.363 . S
C615 C621 1.363 . S
C616 C617 1.363 . S
C616 C621 1.379 . S
C616 N623 1.356 . S
C617 C616 1.363 . S
C617 C620 1.363 . S
N618 C620 1.356 . S
N618 H630 0.984 . S
N618 H631 0.985 . S
N619 C621 1.356 . S
N619 H624 0.984 . S
N619 H625 0.985 1_565 S
C620 C614 1.379 . S
C620 C617 1.363 . S
C620 N618 1.356 . S
C621 C615 1.363 . S
C621 C616 1.379 . S
C621 N619 1.356 . S
N622 C614 1.356 . S
N622 H628 0.984 . S
N622 H629 0.984 . S
N623 C616 1.356 . S
N623 H626 0.984 . S
N623 H627 0.985 1_565 S
H624 N619 0.984 . S
H625 N619 0.985 1_545 S
H626 N623 0.984 . S
H627 N623 0.985 1_545 S
H628 N622 0.984 . S
H629 N622 0.984 . S
H630 N618 0.984 . S
H631 N618 0.985 . S
C273 C77 1.553 . S
C275 C5 1.575 . S
C291 C43 1.552 . S
C293 C107 1.575 . S
C309 C73 1.575 . S
C311 C9 1.552 . S
C327 C111 1.553 . S
C329 C39 1.575 . S
C345 C141 1.575 . S
C347 C213 1.552 . S
C363 C243 1.575 . S
C365 C179 1.553 . S
C381 C145 1.553 . S
C383 C209 1.575 . S
C399 C175 1.575 . S
C401 C247 1.552 . S
C417 C54 1.466 . S
C419 C20 1.466 . S
C435 C88 1.466 . S
C437 C122 1.466 . S
C453 C190 1.466 . S
C455 C156 1.466 . S
C471 C224 1.466 . S
C473 C258 1.466 . S
C489 C240 1.100 . S
C491 C33 1.062 . S
C507 C237 1.062 . S
C509 C36 1.100 . S
C525 C271 1.062 . S
C527 C2 1.100 . S
C543 C67 1.062 . S
C545 C206 1.100 . S
C561 C172 1.100 . S
C563 C101 1.062 . S
C579 C104 1.100 . S
C581 C169 1.062 . S
C597 C203 1.062 . S
C599 C70 1.100 . S
C615 C135 1.062 . S
C617 C138 1.100 . S
