# Generated by pormake.
# Topology neb, (4)-cn, num edge types: 1
# Building blocks:
#     Node 0, Type 0, BuildingBlock: UXUYUI_clean_sbu_0, # of connection points: 4
#     Node 1, Type 0, BuildingBlock: UXUYUI_clean_sbu_0, # of connection points: 4
#     Node 2, Type 0, BuildingBlock: UXUYUI_clean_sbu_0, # of connection points: 4
#     Node 3, Type 0, BuildingBlock: UXUYUI_clean_sbu_0, # of connection points: 4
#     Node 4, Type 0, BuildingBlock: UXUYUI_clean_sbu_0, # of connection points: 4
#     Node 5, Type 0, BuildingBlock: UXUYUI_clean_sbu_0, # of connection points: 4
#     Node 6, Type 0, BuildingBlock: UXUYUI_clean_sbu_0, # of connection points: 4
#     Node 7, Type 0, BuildingBlock: UXUYUI_clean_sbu_0, # of connection points: 4
#     Node 8, Type 0, BuildingBlock: UXUYUI_clean_sbu_0, # of connection points: 4
#     Node 9, Type 0, BuildingBlock: UXUYUI_clean_sbu_0, # of connection points: 4
#     Node 10, Type 0, BuildingBlock: UXUYUI_clean_sbu_0, # of connection points: 4
#     Node 11, Type 0, BuildingBlock: UXUYUI_clean_sbu_0, # of connection points: 4
#     Node 12, Type 0, BuildingBlock: UXUYUI_clean_sbu_0, # of connection points: 4
#     Node 13, Type 0, BuildingBlock: UXUYUI_clean_sbu_0, # of connection points: 4
#     Node 14, Type 0, BuildingBlock: UXUYUI_clean_sbu_0, # of connection points: 4
#     Node 15, Type 0, BuildingBlock: UXUYUI_clean_sbu_0, # of connection points: 4
#     Edge 16, Type (0, 0), BuildingBlock: AJUNOK_clean_linker_0, # of connection points: 2
#     Edge 17, Type (0, 0), BuildingBlock: AJUNOK_clean_linker_0, # of connection points: 2
#     Edge 18, Type (0, 0), BuildingBlock: AJUNOK_clean_linker_0, # of connection points: 2
#     Edge 19, Type (0, 0), BuildingBlock: AJUNOK_clean_linker_0, # of connection points: 2
#     Edge 20, Type (0, 0), BuildingBlock: AJUNOK_clean_linker_0, # of connection points: 2
#     Edge 21, Type (0, 0), BuildingBlock: AJUNOK_clean_linker_0, # of connection points: 2
#     Edge 22, Type (0, 0), BuildingBlock: AJUNOK_clean_linker_0, # of connection points: 2
#     Edge 23, Type (0, 0), BuildingBlock: AJUNOK_clean_linker_0, # of connection points: 2
#     Edge 24, Type (0, 0), BuildingBlock: AJUNOK_clean_linker_0, # of connection points: 2
#     Edge 25, Type (0, 0), BuildingBlock: AJUNOK_clean_linker_0, # of connection points: 2
#     Edge 26, Type (0, 0), BuildingBlock: AJUNOK_clean_linker_0, # of connection points: 2
#     Edge 27, Type (0, 0), BuildingBlock: AJUNOK_clean_linker_0, # of connection points: 2
#     Edge 28, Type (0, 0), BuildingBlock: AJUNOK_clean_linker_0, # of connection points: 2
#     Edge 29, Type (0, 0), BuildingBlock: AJUNOK_clean_linker_0, # of connection points: 2
#     Edge 30, Type (0, 0), BuildingBlock: AJUNOK_clean_linker_0, # of connection points: 2
#     Edge 31, Type (0, 0), BuildingBlock: AJUNOK_clean_linker_0, # of connection points: 2
#     Edge 32, Type (0, 0), BuildingBlock: AJUNOK_clean_linker_0, # of connection points: 2
#     Edge 33, Type (0, 0), BuildingBlock: AJUNOK_clean_linker_0, # of connection points: 2
#     Edge 34, Type (0, 0), BuildingBlock: AJUNOK_clean_linker_0, # of connection points: 2
#     Edge 35, Type (0, 0), BuildingBlock: AJUNOK_clean_linker_0, # of connection points: 2
#     Edge 36, Type (0, 0), BuildingBlock: AJUNOK_clean_linker_0, # of connection points: 2
#     Edge 37, Type (0, 0), BuildingBlock: AJUNOK_clean_linker_0, # of connection points: 2
#     Edge 38, Type (0, 0), BuildingBlock: AJUNOK_clean_linker_0, # of connection points: 2
#     Edge 39, Type (0, 0), BuildingBlock: AJUNOK_clean_linker_0, # of connection points: 2
#     Edge 40, Type (0, 0), BuildingBlock: AJUNOK_clean_linker_0, # of connection points: 2
#     Edge 41, Type (0, 0), BuildingBlock: AJUNOK_clean_linker_0, # of connection points: 2
#     Edge 42, Type (0, 0), BuildingBlock: AJUNOK_clean_linker_0, # of connection points: 2
#     Edge 43, Type (0, 0), BuildingBlock: AJUNOK_clean_linker_0, # of connection points: 2
#     Edge 44, Type (0, 0), BuildingBlock: AJUNOK_clean_linker_0, # of connection points: 2
#     Edge 45, Type (0, 0), BuildingBlock: AJUNOK_clean_linker_0, # of connection points: 2
#     Edge 46, Type (0, 0), BuildingBlock: AJUNOK_clean_linker_0, # of connection points: 2
#     Edge 47, Type (0, 0), BuildingBlock: AJUNOK_clean_linker_0, # of connection points: 2
# Relax obj value: 0.156
# Max RMSD: 0.184
# Mean RMSD: 0.183
data_MOF--net-neb--node1-UXUYUI_clean_sbu_0--edge1-AJUNOK_clean_linker_0
_symmetry_space_group_name_H-M    P1
_symmetry_Int_Tables_number       1
_symmetry_cell_setting            triclinic
loop_
_symmetry_equiv_pos_as_xyz
'x, y, z'
_cell_length_a     55.162961
_cell_length_b     26.201514
_cell_length_c     88.490638
_cell_angle_alpha  90.004244
_cell_angle_beta   89.975012
_cell_angle_gamma 90.005999
loop_
_atom_site_label
_atom_site_type_symbol
_atom_site_fract_x
_atom_site_fract_y
_atom_site_fract_z
_atom_type_partial_charge
Li0 Li 0.10814 0.11206 0.45563 0.0
Li1 Li 0.15141 0.145 0.4563 0.0
Li2 Li 0.12431 0.17076 0.43713 0.0
Li3 Li 0.13944 0.08549 0.4357 0.0
C4 C 0.11039 0.22942 0.45869 0.0
N5 N 0.09011 0.32532 0.45601 0.0
C6 C 0.12526 0.27255 0.45814 0.0
C7 C 0.08522 0.23497 0.45798 0.0
C8 C 0.11465 0.32074 0.45674 0.0
C9 C 0.07532 0.28383 0.45661 0.0
C10 C 0.14532 0.04127 0.46952 0.0
C11 C 0.16629 0.96745 0.47922 0.0
N12 N 0.15682 0.97673 0.49314 0.0
C13 C 0.13569 0.04991 0.4839 0.0
C14 C 0.16064 0.99956 0.46711 0.0
C15 C 0.14177 0.01693 0.49571 0.0
C16 C 0.06856 0.04699 0.46162 0.0
N17 N 0.0812 0.08755 0.46706 0.0
C18 C 0.05615 0.0904 0.48911 0.0
C19 C 0.07533 0.10961 0.48048 0.0
C20 C 0.04259 0.04865 0.48376 0.0
C21 C 0.04906 0.02694 0.4698 0.0
H22 H 0.07369 0.03013 0.45093 0.0
H23 H 0.08582 0.14161 0.48458 0.0
C24 C 0.1912 0.20695 0.46303 0.0
N25 N 0.1774 0.16882 0.46895 0.0
C26 C 0.2101 0.22835 0.47139 0.0
C27 C 0.20014 0.17163 0.49198 0.0
C28 C 0.18152 0.15094 0.48315 0.0
C29 C 0.21459 0.21122 0.48616 0.0
H30 H 0.18741 0.22106 0.4518 0.0
H31 H 0.17022 0.12124 0.48776 0.0
C32 C 0.09147 0.11389 0.42089 0.0
N33 N 0.06337 0.12736 0.39538 0.0
C34 C 0.10246 0.11971 0.40676 0.0
C35 C 0.06621 0.11465 0.42205 0.0
C36 C 0.08793 0.12659 0.394 0.0
C37 C 0.05231 0.12154 0.40902 0.0
C38 C 0.18216 0.13696 0.43161 0.0
C39 C 0.19522 0.16139 0.42017 0.0
C40 C 0.19344 0.09924 0.44029 0.0
C41 C 0.21935 0.14769 0.4176 0.0
C42 C 0.2176 0.08665 0.43739 0.0
N43 N 0.22995 0.11091 0.4262 0.0
C44 C 0.13653 0.25507 0.41964 0.0
C45 C 0.09416 0.24014 0.41956 0.0
C46 C 0.13389 0.29503 0.40937 0.0
N47 N 0.1169 0.22796 0.42432 0.0
C48 C 0.0907 0.27957 0.40911 0.0
C49 C 0.11079 0.30728 0.40386 0.0
H50 H 0.15435 0.24522 0.42377 0.0
H51 H 0.07873 0.21893 0.42368 0.0
C52 C 0.14005 0.98319 0.42548 0.0
N53 N 0.14786 0.03126 0.4224 0.0
C54 C 0.1431 0.94425 0.41484 0.0
C55 C 0.16269 0.00485 0.39825 0.0
C56 C 0.15921 0.04255 0.40917 0.0
C57 C 0.15427 0.95511 0.40092 0.0
H58 H 0.13058 0.9756 0.43595 0.0
H59 H 0.16467 0.08131 0.40679 0.0
O60 O 0.12042 0.18187 0.4596 0.0
O61 O 0.13924 0.07249 0.45772 0.0
O62 O 0.10532 0.10746 0.43354 0.0
O63 O 0.15844 0.14999 0.43414 0.0
H64 H 0.14478 0.26877 0.45861 0.0
H65 H 0.0735 0.20185 0.45829 0.0
H66 H 0.12593 0.35447 0.45619 0.0
H67 H 0.05588 0.28874 0.45596 0.0
H68 H 0.17816 0.93509 0.47753 0.0
H69 H 0.12398 0.08222 0.48598 0.0
H70 H 0.16807 0.99202 0.45601 0.0
H71 H 0.13456 0.02337 0.50692 0.0
H72 H 0.05228 0.10752 0.49999 0.0
H73 H 0.03909 0.99489 0.46521 0.0
H74 H 0.22111 0.25791 0.4663 0.0
H75 H 0.2029 0.15743 0.50334 0.0
H76 H 0.12199 0.11976 0.40571 0.0
H77 H 0.05745 0.11029 0.43293 0.0
H78 H 0.09619 0.13148 0.383 0.0
H79 H 0.03274 0.12239 0.40974 0.0
H80 H 0.18677 0.19046 0.41326 0.0
H81 H 0.18377 0.08006 0.44923 0.0
H82 H 0.22965 0.16625 0.40876 0.0
H83 H 0.22653 0.05759 0.44406 0.0
H84 H 0.14983 0.31527 0.40548 0.0
H85 H 0.07259 0.28829 0.40516 0.0
H86 H 0.1358 0.90672 0.4172 0.0
H87 H 0.1713 0.01479 0.38765 0.0
Li88 Li 0.1349 0.16928 0.8183 0.0
Li89 Li 0.12002 0.08398 0.81996 0.0
Li90 Li 0.15051 0.11038 0.7998 0.0
Li91 Li 0.10732 0.14268 0.79954 0.0
C92 C 0.17174 0.11741 0.83209 0.0
N93 N 0.20757 0.14 0.85282 0.0
C94 C 0.16599 0.12228 0.8474 0.0
C95 C 0.19573 0.12346 0.82732 0.0
C96 C 0.18435 0.13394 0.8577 0.0
C97 C 0.21358 0.13498 0.83799 0.0
C98 C 0.07743 0.13352 0.82443 0.0
C99 C 0.04225 0.08221 0.81875 0.0
N100 N 0.03015 0.10467 0.83038 0.0
C101 C 0.06466 0.15589 0.83637 0.0
C102 C 0.06617 0.09613 0.8156 0.0
C103 C 0.04078 0.14086 0.83918 0.0
C104 C 0.12197 0.25103 0.83648 0.0
N105 N 0.14203 0.22708 0.83108 0.0
C106 C 0.16762 0.28313 0.84533 0.0
C107 C 0.16466 0.2429 0.83508 0.0
C108 C 0.14712 0.30759 0.85132 0.0
C109 C 0.12407 0.29114 0.84672 0.0
H110 H 0.1042 0.23862 0.83293 0.0
H111 H 0.18044 0.22426 0.83046 0.0
C112 C 0.11323 0.98104 0.82903 0.0
N113 N 0.11169 0.03061 0.83341 0.0
C114 C 0.10965 0.94196 0.83954 0.0
C115 C 0.10284 0.00584 0.8588 0.0
C116 C 0.10627 0.0436 0.84789 0.0
C117 C 0.10472 0.95417 0.85472 0.0
H118 H 0.11794 0.9719 0.81748 0.0
H119 H 0.10547 0.08342 0.85107 0.0
C120 C 0.14813 0.22798 0.79657 0.0
N121 N 0.16823 0.32429 0.79874 0.0
C122 C 0.13328 0.27117 0.79619 0.0
C123 C 0.17321 0.23376 0.798 0.0
C124 C 0.14378 0.31953 0.79735 0.0
C125 C 0.18303 0.28279 0.79906 0.0
C126 C 0.11483 0.0453 0.78461 0.0
C127 C 0.12538 0.06232 0.77115 0.0
C128 C 0.09983 0.00233 0.78447 0.0
C129 C 0.12077 0.03585 0.75775 0.0
C130 C 0.09561 0.97702 0.77083 0.0
N131 N 0.1061 0.99412 0.75787 0.0
C132 C 0.18352 0.03491 0.79102 0.0
C133 C 0.18836 0.11237 0.7775 0.0
C134 C 0.20225 0.01222 0.78278 0.0
N135 N 0.17697 0.08405 0.78826 0.0
C136 C 0.20737 0.09134 0.7691 0.0
C137 C 0.21439 0.04053 0.77164 0.0
H138 H 0.17405 0.01329 0.79961 0.0
H139 H 0.1825 0.15103 0.77532 0.0
C140 C 0.06921 0.20875 0.79248 0.0
N141 N 0.08037 0.16568 0.78744 0.0
C142 C 0.04967 0.22962 0.78456 0.0
C143 C 0.05308 0.16108 0.76645 0.0
C144 C 0.07259 0.14157 0.77471 0.0
C145 C 0.04134 0.20566 0.77136 0.0
H146 H 0.07552 0.22693 0.80273 0.0
H147 H 0.08138 0.1073 0.77087 0.0
O148 O 0.15409 0.10586 0.82182 0.0
O149 O 0.10097 0.14762 0.82173 0.0
O150 O 0.13814 0.18027 0.79578 0.0
O151 O 0.11944 0.06996 0.79792 0.0
H152 H 0.14751 0.11773 0.85125 0.0
H153 H 0.20048 0.11957 0.81551 0.0
H154 H 0.18015 0.13823 0.86958 0.0
H155 H 0.23221 0.14001 0.83446 0.0
H156 H 0.03332 0.05348 0.81196 0.0
H157 H 0.07313 0.18436 0.84347 0.0
H158 H 0.07565 0.07801 0.80639 0.0
H159 H 0.03071 0.15789 0.84838 0.0
H160 H 0.18572 0.29497 0.84853 0.0
H161 H 0.10776 0.30834 0.85125 0.0
H162 H 0.11124 0.90263 0.83592 0.0
H163 H 0.09976 0.01711 0.87042 0.0
H164 H 0.11385 0.26742 0.79511 0.0
H165 H 0.18494 0.20075 0.79858 0.0
H166 H 0.13249 0.35328 0.79715 0.0
H167 H 0.2024 0.28781 0.80027 0.0
H168 H 0.13667 0.09605 0.77101 0.0
H169 H 0.09147 0.98877 0.79478 0.0
H170 H 0.12877 0.04863 0.74725 0.0
H171 H 0.084 0.94375 0.77055 0.0
H172 H 0.20734 0.97312 0.78517 0.0
H173 H 0.21623 0.11421 0.76053 0.0
H174 H 0.04102 0.26388 0.78878 0.0
H175 H 0.04746 0.14185 0.7562 0.0
Li176 Li 0.89965 0.89775 0.54864 0.0
Li177 Li 0.86814 0.92905 0.56705 0.0
Li178 Li 0.8834 0.84258 0.56875 0.0
Li179 Li 0.85616 0.86457 0.5488 0.0
C180 C 0.91752 0.89535 0.58195 0.0
N181 N 0.94783 0.86604 0.6052 0.0
C182 C 0.91068 0.9037 0.59695 0.0
C183 C 0.93981 0.87245 0.57874 0.0
C184 C 0.92625 0.88849 0.60856 0.0
C185 C 0.95488 0.85784 0.59067 0.0
C186 C 0.86209 0.98483 0.54223 0.0
C187 C 0.83192 0.05135 0.54109 0.0
N188 N 0.8497 0.08627 0.53853 0.0
C189 C 0.88003 0.0213 0.53945 0.0
C190 C 0.83781 0.99988 0.54293 0.0
C191 C 0.87342 0.07241 0.53766 0.0
C192 C 0.92953 0.90447 0.52228 0.0
N193 N 0.92668 0.91996 0.53684 0.0
C194 C 0.96112 0.97501 0.53484 0.0
C195 C 0.94212 0.95414 0.54326 0.0
C196 C 0.96435 0.96025 0.51973 0.0
C197 C 0.94854 0.92389 0.5135 0.0
H198 H 0.91687 0.87752 0.51744 0.0
H199 H 0.9393 0.96609 0.55482 0.0
C200 C 0.84176 0.98533 0.58925 0.0
N201 N 0.86026 0.98703 0.5791 0.0
C202 C 0.83836 0.02533 0.5995 0.0
C203 C 0.87308 0.06801 0.58864 0.0
C204 C 0.87582 0.02722 0.57863 0.0
C205 C 0.85427 0.06719 0.59934 0.0
H206 H 0.83023 0.95209 0.58983 0.0
H207 H 0.891 0.02657 0.57091 0.0
C208 C 0.9001 0.78126 0.5463 0.0
N209 N 0.92557 0.69052 0.54493 0.0
C210 C 0.88825 0.73486 0.54882 0.0
C211 C 0.92492 0.78146 0.54308 0.0
C212 C 0.90145 0.68941 0.54809 0.0
C213 C 0.93747 0.7352 0.54243 0.0
C214 C 0.82607 0.85121 0.57169 0.0
C215 C 0.82035 0.80084 0.57552 0.0
C216 C 0.80744 0.8857 0.56853 0.0
C217 C 0.79606 0.78578 0.576 0.0
C218 C 0.78338 0.86917 0.56911 0.0
N219 N 0.77824 0.81996 0.5728 0.0
C220 C 0.87597 0.79359 0.59616 0.0
C221 C 0.9098 0.75865 0.58336 0.0
C222 C 0.87858 0.75849 0.60788 0.0
N223 N 0.89102 0.79232 0.584 0.0
C224 C 0.91299 0.72243 0.59482 0.0
C225 C 0.89704 0.72172 0.6072 0.0
H226 H 0.86178 0.82193 0.59676 0.0
H227 H 0.92229 0.75955 0.57399 0.0
C228 C 0.82002 0.86906 0.52538 0.0
N229 N 0.83054 0.83919 0.53612 0.0
C230 C 0.80142 0.84957 0.51627 0.0
C231 C 0.80484 0.76918 0.52944 0.0
C232 C 0.82337 0.79005 0.5382 0.0
C233 C 0.79376 0.79881 0.51819 0.0
H234 H 0.82617 0.90787 0.52381 0.0
H235 H 0.83188 0.76704 0.54678 0.0
O236 O 0.90217 0.90824 0.57047 0.0
O237 O 0.86826 0.93469 0.54423 0.0
O238 O 0.88743 0.82615 0.5467 0.0
O239 O 0.84977 0.86658 0.57099 0.0
H240 H 0.8934 0.92116 0.59959 0.0
H241 H 0.94526 0.86546 0.56717 0.0
H242 H 0.92115 0.89437 0.62023 0.0
H243 H 0.97212 0.83977 0.58837 0.0
H244 H 0.8132 0.06353 0.54166 0.0
H245 H 0.89889 0.01041 0.53879 0.0
H246 H 0.82365 0.97215 0.54485 0.0
H247 H 0.88715 0.10107 0.53561 0.0
H248 H 0.97312 0.00258 0.54007 0.0
H249 H 0.95048 0.91172 0.50187 0.0
H250 H 0.82381 0.02303 0.60769 0.0
H251 H 0.88621 0.09872 0.58844 0.0
H252 H 0.86918 0.73386 0.55152 0.0
H253 H 0.93447 0.8169 0.54121 0.0
H254 H 0.89252 0.65327 0.55009 0.0
H255 H 0.95668 0.73483 0.53998 0.0
H256 H 0.83451 0.77339 0.57784 0.0
H257 H 0.81149 0.92484 0.56565 0.0
H258 H 0.7914 0.74686 0.57885 0.0
H259 H 0.7688 0.89548 0.56663 0.0
H260 H 0.86619 0.75996 0.61736 0.0
H261 H 0.92742 0.69464 0.59381 0.0
H262 H 0.79336 0.87366 0.5077 0.0
H263 H 0.79911 0.7303 0.53156 0.0
Li264 Li 0.88663 0.91828 0.1867 0.0
Li265 Li 0.85614 0.88772 0.2057 0.0
Li266 Li 0.89973 0.85673 0.20531 0.0
Li267 Li 0.87236 0.83077 0.18597 0.0
C268 C 0.89222 0.97771 0.21027 0.0
N269 N 0.90235 0.08092 0.21159 0.0
C270 C 0.87366 0.01281 0.21306 0.0
C271 C 0.91594 0.99511 0.20823 0.0
C272 C 0.87915 0.06483 0.21368 0.0
C273 C 0.92069 0.04743 0.20891 0.0
C274 C 0.83952 0.88263 0.17119 0.0
C275 C 0.80508 0.84142 0.15966 0.0
N276 N 0.81369 0.85441 0.14578 0.0
C277 C 0.84803 0.89557 0.15681 0.0
C278 C 0.81788 0.85529 0.17264 0.0
C279 C 0.8347 0.88098 0.1441 0.0
C280 C 0.91216 0.9763 0.16426 0.0
N281 N 0.89327 0.97566 0.17415 0.0
C282 C 0.87701 0.05183 0.16335 0.0
C283 C 0.87601 0.01266 0.17398 0.0
C284 C 0.8957 0.05238 0.15258 0.0
C285 C 0.91384 0.01487 0.15336 0.0
H286 H 0.92522 0.94558 0.16432 0.0
H287 H 0.86083 0.01038 0.18168 0.0
C288 C 0.83364 0.91907 0.23288 0.0
N289 N 0.8297 0.91052 0.21792 0.0
C290 C 0.8154 0.94038 0.24188 0.0
C291 C 0.78914 0.94209 0.22002 0.0
C292 C 0.80801 0.92165 0.21139 0.0
C293 C 0.79288 0.95233 0.2354 0.0
H294 H 0.85118 0.91054 0.23772 0.0
H295 H 0.80552 0.9158 0.19942 0.0
C296 C 0.92894 0.83849 0.18293 0.0
N297 N 0.97593 0.80195 0.1833 0.0
C298 C 0.93346 0.78657 0.1806 0.0
C299 C 0.94832 0.87183 0.18536 0.0
C300 C 0.95735 0.76886 0.18083 0.0
C301 C 0.97194 0.85261 0.18555 0.0
C302 C 0.85595 0.77256 0.20915 0.0
C303 C 0.86703 0.72546 0.2064 0.0
C304 C 0.83147 0.77413 0.21323 0.0
C305 C 0.85341 0.68073 0.20774 0.0
C306 C 0.81847 0.72855 0.21445 0.0
N307 N 0.82962 0.68319 0.21171 0.0
C308 C 0.93849 0.86714 0.22689 0.0
C309 C 0.93142 0.78346 0.21782 0.0
C310 C 0.95771 0.84968 0.23585 0.0
N311 N 0.9259 0.83402 0.21802 0.0
C312 C 0.95047 0.76443 0.22651 0.0
C313 C 0.964 0.79767 0.23564 0.0
H314 H 0.93357 0.90705 0.22707 0.0
H315 H 0.92123 0.75787 0.21072 0.0
C316 C 0.87923 0.78007 0.15876 0.0
N317 N 0.86474 0.77881 0.1712 0.0
C318 C 0.87577 0.74559 0.14697 0.0
C319 C 0.842 0.70951 0.16066 0.0
C320 C 0.84601 0.74508 0.17219 0.0
C321 C 0.85701 0.70963 0.14785 0.0
H322 H 0.89351 0.80816 0.15795 0.0
H323 H 0.83391 0.74611 0.18176 0.0
O324 O 0.88715 0.92667 0.20937 0.0
O325 O 0.85271 0.89519 0.18374 0.0
O326 O 0.90564 0.85645 0.18302 0.0
O327 O 0.86906 0.8168 0.2082 0.0
H328 H 0.85515 1.0002 0.21455 0.0
H329 H 0.93052 0.96857 0.20606 0.0
H330 H 0.86494 0.09241 0.21575 0.0
H331 H 0.93896 0.06142 0.2073 0.0
H332 H 0.7884 0.81993 0.16061 0.0
H333 H 0.8649 0.91609 0.15544 0.0
H334 H 0.81132 0.8438 0.18365 0.0
H335 H 0.84113 0.89056 0.1329 0.0
H336 H 0.86285 0.08046 0.16322 0.0
H337 H 0.92843 0.01393 0.14518 0.0
H338 H 0.81884 0.94763 0.25373 0.0
H339 H 0.77204 0.95122 0.21465 0.0
H340 H 0.91868 0.76005 0.1789 0.0
H341 H 0.94516 0.91206 0.1872 0.0
H342 H 0.9611 0.72874 0.17914 0.0
H343 H 0.9871 0.87796 0.18751 0.0
H344 H 0.88579 0.72338 0.20297 0.0
H345 H 0.82256 0.81008 0.21543 0.0
H346 H 0.86173 0.64408 0.20556 0.0
H347 H 0.79951 0.72925 0.21758 0.0
H348 H 0.96734 0.87644 0.24298 0.0
H349 H 0.95477 0.72414 0.22594 0.0
H350 H 0.88789 0.74662 0.13734 0.0
H351 H 0.82716 0.68264 0.16165 0.0
Li352 Li 0.14946 0.64034 0.95723 0.0
Li353 Li 0.10842 0.60758 0.95617 0.0
Li354 Li 0.13782 0.58278 0.93639 0.0
Li355 Li 0.12046 0.67049 0.93694 0.0
C356 C 0.15395 0.5382 0.96684 0.0
N357 N 0.18457 0.47845 0.98408 0.0
C358 C 0.14828 0.52762 0.98192 0.0
C359 C 0.17492 0.5175 0.96045 0.0
C360 C 0.16407 0.49759 0.99047 0.0
C361 C 0.19025 0.48764 0.96937 0.0
C362 C 0.10869 0.69656 0.97249 0.0
C363 C 0.08211 0.75288 0.98626 0.0
N364 N 0.08775 0.72791 0.99928 0.0
C365 C 0.11421 0.67145 0.98598 0.0
C366 C 0.09249 0.73756 0.97259 0.0
C367 C 0.10343 0.68786 0.99941 0.0
C368 C 0.18958 0.70279 0.9634 0.0
N369 N 0.17581 0.6649 0.96949 0.0
C370 C 0.19939 0.66704 0.99219 0.0
C371 C 0.18023 0.64721 0.98367 0.0
C372 C 0.21425 0.70537 0.98604 0.0
C373 C 0.20902 0.72343 0.97146 0.0
H374 H 0.18541 0.71718 0.95225 0.0
H375 H 0.16874 0.61832 0.98854 0.0
C376 C 0.08266 0.53257 0.97238 0.0
N377 N 0.08162 0.58207 0.96781 0.0
C378 C 0.06386 0.51149 0.98095 0.0
C379 C 0.04285 0.59221 0.97959 0.0
C380 C 0.06213 0.61184 0.97114 0.0
C381 C 0.04369 0.54153 0.98477 0.0
H382 H 0.09813 0.50939 0.96937 0.0
H383 H 0.06142 0.65078 0.96716 0.0
C384 C 0.17614 0.64846 0.9274 0.0
N385 N 0.21931 0.64696 0.91155 0.0
C386 C 0.17803 0.67367 0.91352 0.0
C387 C 0.19631 0.62317 0.93331 0.0
C388 C 0.19997 0.67225 0.90565 0.0
C389 C 0.21795 0.62269 0.92511 0.0
C390 C 0.07936 0.60807 0.93072 0.0
C391 C 0.0675 0.56744 0.92366 0.0
C392 C 0.06634 0.65182 0.93468 0.0
C393 C 0.04269 0.57127 0.92068 0.0
C394 C 0.04156 0.65417 0.93151 0.0
N395 N 0.03035 0.61419 0.92464 0.0
C396 C 0.14499 0.48149 0.92528 0.0
C397 C 0.15079 0.54855 0.90767 0.0
C398 C 0.14756 0.44513 0.9138 0.0
N399 N 0.14639 0.53209 0.92197 0.0
C400 C 0.15378 0.51365 0.89593 0.0
C401 C 0.1514 0.46122 0.89883 0.0
H402 H 0.14084 0.46947 0.93668 0.0
H403 H 0.15092 0.58891 0.90523 0.0
C404 C 0.11064 0.77334 0.92765 0.0
N405 N 0.11234 0.72363 0.92338 0.0
C406 C 0.10704 0.81131 0.91676 0.0
C407 C 0.10682 0.74594 0.89745 0.0
C408 C 0.11019 0.70933 0.90868 0.0
C409 C 0.10547 0.79767 0.90143 0.0
H410 H 0.11281 0.78357 0.93941 0.0
H411 H 0.11188 0.66947 0.90567 0.0
O412 O 0.13856 0.56715 0.95827 0.0
O413 O 0.11867 0.68039 0.95919 0.0
O414 O 0.15476 0.64951 0.93525 0.0
O415 O 0.10359 0.60474 0.93379 0.0
H416 H 0.13199 0.5429 0.98702 0.0
H417 H 0.17922 0.52397 0.94868 0.0
H418 H 0.16003 0.48951 1.00219 0.0
H419 H 0.2066 0.47157 0.96458 0.0
H420 H 0.06952 0.78451 0.98652 0.0
H421 H 0.12636 0.63912 0.98602 0.0
H422 H 0.08786 0.75708 0.96221 0.0
H423 H 0.10746 0.66863 0.00993 0.0
H424 H 0.20225 0.65312 1.00357 0.0
H425 H 0.21993 0.75306 0.9663 0.0
H426 H 0.06522 0.47221 0.98467 0.0
H427 H 0.02734 0.61632 0.9819 0.0
H428 H 0.16266 0.69388 0.90885 0.0
H429 H 0.19538 0.60473 0.94421 0.0
H430 H 0.20164 0.6913 0.89485 0.0
H431 H 0.23369 0.60321 0.92956 0.0
H432 H 0.07737 0.5333 0.92055 0.0
H433 H 0.07519 0.68342 0.94028 0.0
H434 H 0.03326 0.54012 0.91523 0.0
H435 H 0.03123 0.68772 0.93456 0.0
H436 H 0.14545 0.40504 0.91648 0.0
H437 H 0.15715 0.52766 0.88461 0.0
H438 H 0.10645 0.85097 0.9202 0.0
H439 H 0.10571 0.73407 0.88575 0.0
Li440 Li 0.1348 0.66991 0.31933 0.0
Li441 Li 0.11892 0.58581 0.32002 0.0
Li442 Li 0.14883 0.60894 0.30065 0.0
Li443 Li 0.10714 0.6444 0.30007 0.0
C444 C 0.16063 0.59755 0.33721 0.0
N445 N 0.17511 0.57797 0.36653 0.0
C446 C 0.14718 0.61652 0.34936 0.0
C447 C 0.18143 0.56862 0.33996 0.0
C448 C 0.15479 0.6062 0.3641 0.0
C449 C 0.18847 0.55917 0.35486 0.0
C450 C 0.07656 0.64015 0.32439 0.0
C451 C 0.04096 0.58882 0.31994 0.0
N452 N 0.02807 0.61954 0.32937 0.0
C453 C 0.06296 0.6712 0.33403 0.0
C454 C 0.06549 0.59856 0.31728 0.0
C455 C 0.03848 0.66015 0.33641 0.0
C456 C 0.125 0.75965 0.33494 0.0
N457 N 0.14319 0.72624 0.33194 0.0
C458 C 0.16945 0.76922 0.34925 0.0
C459 C 0.16531 0.73079 0.3386 0.0
C460 C 0.15061 0.80298 0.35304 0.0
C461 C 0.12833 0.79854 0.34549 0.0
H462 H 0.10763 0.75509 0.32943 0.0
H463 H 0.1795 0.70374 0.33595 0.0
C464 C 0.11815 0.4843 0.33092 0.0
N465 N 0.11012 0.53248 0.33366 0.0
C466 C 0.11581 0.4465 0.34199 0.0
C467 C 0.09632 0.50826 0.35825 0.0
C468 C 0.0989 0.54471 0.34687 0.0
C469 C 0.10541 0.45886 0.35601 0.0
H470 H 0.12737 0.47591 0.32042 0.0
H471 H 0.09309 0.58346 0.34893 0.0
C472 C 0.15321 0.72251 0.29749 0.0
N473 N 0.18278 0.80737 0.29948 0.0
C474 C 0.14375 0.77114 0.29479 0.0
C475 C 0.17772 0.71702 0.30115 0.0
C476 C 0.159 0.81358 0.29587 0.0
C477 C 0.19237 0.76038 0.3021 0.0
C478 C 0.11587 0.55373 0.28348 0.0
C479 C 0.12197 0.58593 0.27146 0.0
C480 C 0.10843 0.50375 0.28055 0.0
C481 C 0.12044 0.56752 0.25668 0.0
C482 C 0.10711 0.48678 0.2656 0.0
N483 N 0.1131 0.51874 0.25408 0.0
C484 C 0.18393 0.53608 0.29245 0.0
C485 C 0.18377 0.6096 0.27685 0.0
C486 C 0.20246 0.51426 0.28381 0.0
N487 N 0.175 0.58285 0.28883 0.0
C488 C 0.20237 0.58934 0.26795 0.0
C489 C 0.21181 0.54079 0.2713 0.0
H490 H 0.17646 0.51553 0.30198 0.0
H491 H 0.17622 0.64659 0.27415 0.0
C492 C 0.07589 0.71968 0.28939 0.0
N493 N 0.08086 0.66912 0.2879 0.0
C494 C 0.05716 0.74208 0.2811 0.0
C495 C 0.04828 0.65955 0.27027 0.0
C496 C 0.06723 0.63872 0.27877 0.0
C497 C 0.04325 0.71203 0.27124 0.0
H498 H 0.08634 0.74252 0.29719 0.0
H499 H 0.07088 0.59828 0.27813 0.0
O500 O 0.1534 0.60649 0.32266 0.0
O501 O 0.10055 0.65087 0.32198 0.0
O502 O 0.1385 0.68052 0.29691 0.0
O503 O 0.11753 0.57044 0.29808 0.0
H504 H 0.13095 0.63878 0.34745 0.0
H505 H 0.192 0.55356 0.33066 0.0
H506 H 0.14452 0.62055 0.37361 0.0
H507 H 0.20455 0.53683 0.35716 0.0
H508 H 0.03217 0.55679 0.3145 0.0
H509 H 0.07125 0.70348 0.33965 0.0
H510 H 0.07562 0.57395 0.3098 0.0
H511 H 0.02774 0.68386 0.34386 0.0
H512 H 0.18704 0.77209 0.35461 0.0
H513 H 0.11335 0.82379 0.3481 0.0
H514 H 0.12313 0.40878 0.33991 0.0
H515 H 0.08802 0.51901 0.36888 0.0
H516 H 0.12488 0.77617 0.2919 0.0
H517 H 0.18526 0.67972 0.30349 0.0
H518 H 0.15191 0.85146 0.29385 0.0
H519 H 0.21133 0.75671 0.30501 0.0
H520 H 0.12774 0.62475 0.27349 0.0
H521 H 0.10374 0.47833 0.28974 0.0
H522 H 0.12508 0.59201 0.24727 0.0
H523 H 0.10135 0.44818 0.26316 0.0
H524 H 0.20915 0.47669 0.28675 0.0
H525 H 0.20938 0.61159 0.25861 0.0
H526 H 0.05337 0.78234 0.28255 0.0
H527 H 0.03781 0.63497 0.26291 0.0
Li528 Li 0.89997 0.38902 0.04878 0.0
Li529 Li 0.86838 0.42047 0.06716 0.0
Li530 Li 0.88264 0.33328 0.06816 0.0
Li531 Li 0.85623 0.35742 0.04805 0.0
C532 C 0.9153 0.38372 0.08321 0.0
N533 N 0.9412 0.35287 0.1083 0.0
C534 C 0.90629 0.39322 0.0977 0.0
C535 C 0.93749 0.35865 0.08146 0.0
C536 C 0.91965 0.37727 0.11025 0.0
C537 C 0.95031 0.34337 0.0943 0.0
C538 C 0.8649 0.47788 0.0412 0.0
C539 C 0.83748 0.54706 0.0356 0.0
N540 N 0.85666 0.57948 0.03453 0.0
C541 C 0.88435 0.51181 0.0399 0.0
C542 C 0.84127 0.49554 0.0389 0.0
C543 C 0.87981 0.56305 0.03659 0.0
C544 C 0.92619 0.40942 0.02181 0.0
N545 N 0.92724 0.41084 0.03715 0.0
C546 C 0.96603 0.45151 0.03626 0.0
C547 C 0.94666 0.43113 0.04445 0.0
C548 C 0.96522 0.4519 0.02039 0.0
C549 C 0.94512 0.42975 0.01316 0.0
H550 H 0.91038 0.39361 0.0163 0.0
H551 H 0.94688 0.43255 0.05666 0.0
C552 C 0.84308 0.47337 0.0905 0.0
N553 N 0.86043 0.47766 0.07964 0.0
C554 C 0.83958 0.51256 0.10099 0.0
C555 C 0.87199 0.55968 0.08905 0.0
C556 C 0.87489 0.51959 0.07882 0.0
C557 C 0.85424 0.5563 0.1004 0.0
H558 H 0.83261 0.4387 0.09145 0.0
H559 H 0.88944 0.5209 0.07067 0.0
C560 C 0.89947 0.27314 0.04563 0.0
N561 N 0.92421 0.18157 0.04431 0.0
C562 C 0.88709 0.2271 0.04769 0.0
C563 C 0.9244 0.2726 0.0428 0.0
C564 C 0.89994 0.18121 0.04702 0.0
C565 C 0.93659 0.2259 0.04219 0.0
C566 C 0.82436 0.35425 0.07053 0.0
C567 C 0.8134 0.30848 0.07492 0.0
C568 C 0.80991 0.39565 0.06632 0.0
C569 C 0.78812 0.30492 0.07497 0.0
C570 C 0.78471 0.39061 0.06652 0.0
N571 N 0.77442 0.34571 0.0708 0.0
C572 C 0.87229 0.27862 0.09421 0.0
C573 C 0.90816 0.24793 0.08265 0.0
C574 C 0.87389 0.24158 0.10546 0.0
N575 N 0.88889 0.28045 0.08287 0.0
C576 C 0.9105 0.21014 0.09374 0.0
C577 C 0.89289 0.20608 0.10513 0.0
H578 H 0.85774 0.30615 0.09458 0.0
H579 H 0.92174 0.25118 0.07393 0.0
C580 C 0.82199 0.3609 0.02346 0.0
N581 N 0.83081 0.33288 0.03517 0.0
C582 C 0.80343 0.34135 0.01433 0.0
C583 C 0.80345 0.26469 0.02949 0.0
C584 C 0.82201 0.28555 0.03824 0.0
C585 C 0.79405 0.29242 0.01726 0.0
H586 H 0.82946 0.39823 0.02113 0.0
H587 H 0.82928 0.26404 0.0476 0.0
O588 O 0.90214 0.39768 0.0708 0.0
O589 O 0.86901 0.4275 0.04439 0.0
O590 O 0.8872 0.31845 0.04608 0.0
O591 O 0.8491 0.35821 0.07008 0.0
H592 H 0.88905 0.41222 0.09923 0.0
H593 H 0.94452 0.35026 0.07031 0.0
H594 H 0.91286 0.38414 0.12154 0.0
H595 H 0.96744 0.32364 0.09312 0.0
H596 H 0.81928 0.56125 0.03384 0.0
H597 H 0.90276 0.49895 0.04163 0.0
H598 H 0.82601 0.46977 0.03958 0.0
H599 H 0.89469 0.58976 0.03567 0.0
H600 H 0.9814 0.4671 0.04231 0.0
H601 H 0.94375 0.42937 1.00095 0.0
H602 H 0.82593 0.5082 0.1097 0.0
H603 H 0.88426 0.5919 0.08853 0.0
H604 H 0.86784 0.22679 0.04994 0.0
H605 H 0.93427 0.30783 0.04115 0.0
H606 H 0.89062 0.14532 0.04869 0.0
H607 H 0.95589 0.22491 0.04005 0.0
H608 H 0.82428 0.27579 0.07806 0.0
H609 H 0.8181 0.43136 0.06298 0.0
H610 H 0.7794 0.26966 0.07828 0.0
H611 H 0.77333 0.4224 0.06328 0.0
H612 H 0.86038 0.24072 0.11434 0.0
H613 H 0.92563 0.18383 0.09326 0.0
H614 H 0.79671 0.36391 0.00498 0.0
H615 H 0.79638 0.22739 0.03239 0.0
Li616 Li 0.87377 0.34076 0.68498 0.0
Li617 Li 0.90123 0.36161 0.70498 0.0
Li618 Li 0.85754 0.39513 0.70512 0.0
Li619 Li 0.88895 0.42694 0.6866 0.0
C620 C 0.85915 0.27692 0.7072 0.0
N621 N 0.83754 0.18184 0.70794 0.0
C622 C 0.8727 0.23327 0.70388 0.0
C623 C 0.83464 0.27224 0.71097 0.0
C624 C 0.86143 0.18554 0.70428 0.0
C625 C 0.82405 0.22381 0.71128 0.0
C626 C 0.93215 0.35987 0.68141 0.0
C627 C 0.97228 0.39498 0.68441 0.0
N628 N 0.98192 0.35075 0.67906 0.0
C629 C 0.94244 0.31482 0.67589 0.0
C630 C 0.94717 0.4003 0.68567 0.0
C631 C 0.96765 0.31093 0.6748 0.0
C632 C 0.88134 0.28909 0.65793 0.0
N633 N 0.86587 0.2903 0.66989 0.0
C634 C 0.84186 0.22391 0.65883 0.0
C635 C 0.84609 0.25922 0.6704 0.0
C636 C 0.85781 0.22152 0.64649 0.0
C637 C 0.87772 0.25477 0.64611 0.0
H638 H 0.89649 0.31517 0.65751 0.0
H639 H 0.83345 0.26202 0.67966 0.0
C640 C 0.9337 0.36044 0.73029 0.0
N641 N 0.92667 0.33545 0.71755 0.0
C642 C 0.95198 0.34013 0.73948 0.0
C643 C 0.95535 0.26889 0.72228 0.0
C644 C 0.937 0.29037 0.7135 0.0
C645 C 0.96292 0.29351 0.73556 0.0
H646 H 0.92496 0.39583 0.73341 0.0
H647 H 0.93097 0.27092 0.70343 0.0
C648 C 0.83965 0.39366 0.67176 0.0
N649 N 0.80938 0.36542 0.64838 0.0
C650 C 0.84689 0.40105 0.65679 0.0
C651 C 0.81699 0.37226 0.67487 0.0
C652 C 0.83134 0.38638 0.64511 0.0
C653 C 0.80194 0.35821 0.66288 0.0
C654 C 0.89531 0.48075 0.71308 0.0
C655 C 0.87737 0.5179 0.71492 0.0
C656 C 0.91962 0.49372 0.71534 0.0
C657 C 0.8841 0.56773 0.71866 0.0
C658 C 0.92562 0.54396 0.71908 0.0
N659 N 0.90788 0.57964 0.72063 0.0
C660 C 0.82758 0.39963 0.73141 0.0
C661 C 0.81497 0.45078 0.71076 0.0
C662 C 0.80829 0.41762 0.7402 0.0
N663 N 0.83051 0.41644 0.71698 0.0
C664 C 0.79562 0.47011 0.71918 0.0
C665 C 0.7921 0.45352 0.7341 0.0
H666 H 0.84036 0.37267 0.73611 0.0
H667 H 0.81789 0.46385 0.6993 0.0
C668 C 0.91329 0.48303 0.66333 0.0
N669 N 0.89635 0.48527 0.67449 0.0
C670 C 0.91565 0.52316 0.65301 0.0
C671 C 0.88299 0.56693 0.66579 0.0
C672 C 0.88131 0.5261 0.67586 0.0
C673 C 0.90013 0.56547 0.65406 0.0
H674 H 0.92415 0.4491 0.66191 0.0
H675 H 0.86719 0.52587 0.68432 0.0
O676 O 0.86987 0.32395 0.70701 0.0
O677 O 0.90751 0.36407 0.68282 0.0
O678 O 0.85493 0.40613 0.68332 0.0
O679 O 0.88904 0.43172 0.70944 0.0
H680 H 0.89163 0.23624 0.70086 0.0
H681 H 0.82387 0.30563 0.71353 0.0
H682 H 0.87166 0.15146 0.70165 0.0
H683 H 0.80508 0.2196 0.71413 0.0
H684 H 0.9841 0.42603 0.68767 0.0
H685 H 0.93112 0.2829 0.67266 0.0
H686 H 0.93949 0.43557 0.68978 0.0
H687 H 0.97586 0.2762 0.67063 0.0
H688 H 0.82617 0.19913 0.65944 0.0
H689 H 0.89059 0.25378 0.63686 0.0
H690 H 0.95722 0.36022 0.74966 0.0
H691 H 0.96364 0.23348 0.71865 0.0
H692 H 0.86446 0.41734 0.65423 0.0
H693 H 0.81124 0.36594 0.68642 0.0
H694 H 0.83675 0.39149 0.63346 0.0
H695 H 0.78441 0.3413 0.6651 0.0
H696 H 0.85847 0.50851 0.71334 0.0
H697 H 0.93373 0.46529 0.71433 0.0
H698 H 0.8704 0.59693 0.71999 0.0
H699 H 0.94437 0.55454 0.72081 0.0
H700 H 0.80636 0.40448 0.75174 0.0
H701 H 0.7835 0.4977 0.71408 0.0
H702 H 0.9286 0.51993 0.64386 0.0
H703 H 0.87052 0.59865 0.66687 0.0
Li704 Li 0.60512 0.10782 0.95588 0.0
Li705 Li 0.64822 0.14088 0.95506 0.0
Li706 Li 0.61691 0.16688 0.93528 0.0
Li707 Li 0.63226 0.08185 0.93676 0.0
C708 C 0.61327 0.20724 0.9704 0.0
N709 N 0.60637 0.26242 0.99665 0.0
C710 C 0.62383 0.19092 0.98392 0.0
C711 C 0.59926 0.25165 0.97021 0.0
C712 C 0.62013 0.21936 0.99707 0.0
C713 C 0.59594 0.27898 0.98361 0.0
C714 C 0.64627 0.02338 0.95832 0.0
C715 C 0.68134 0.96915 0.95577 0.0
N716 N 0.66664 0.92747 0.9558 0.0
C717 C 0.63151 0.98004 0.95839 0.0
C718 C 0.67139 0.01799 0.95703 0.0
C719 C 0.64215 0.93187 0.95707 0.0
C720 C 0.56645 0.04322 0.96314 0.0
N721 N 0.57861 0.08483 0.96835 0.0
C722 C 0.55277 0.08858 0.99007 0.0
C723 C 0.57209 0.1077 0.98154 0.0
C724 C 0.5398 0.04584 0.98491 0.0
C725 C 0.54693 0.02304 0.97125 0.0
H726 H 0.57191 0.02571 0.95261 0.0
H727 H 0.5818 0.14063 0.98556 0.0
C728 C 0.68441 0.21256 0.96216 0.0
N729 N 0.67529 0.16632 0.96619 0.0
C730 C 0.70401 0.23349 0.97003 0.0
C731 C 0.7044 0.15889 0.98609 0.0
C732 C 0.68478 0.13942 0.97792 0.0
C733 C 0.71436 0.20642 0.98211 0.0
H734 H 0.6764 0.23318 0.95282 0.0
H735 H 0.67693 0.10308 0.98104 0.0
C736 C 0.57436 0.11578 0.93141 0.0
N737 N 0.52655 0.14248 0.92639 0.0
C738 C 0.56078 0.09045 0.92039 0.0
C739 C 0.56361 0.15488 0.93984 0.0
C740 C 0.53664 0.10447 0.91803 0.0
C741 C 0.53942 0.16773 0.93715 0.0
C742 C 0.66622 0.1379 0.92111 0.0
C743 C 0.6569 0.13143 0.90655 0.0
C744 C 0.69127 0.13676 0.92343 0.0
C745 C 0.67287 0.12326 0.89453 0.0
C746 C 0.70663 0.12862 0.9111 0.0
N747 N 0.69719 0.12203 0.89704 0.0
C748 C 0.61336 0.26973 0.92581 0.0
C749 C 0.59948 0.20852 0.90808 0.0
C750 C 0.61027 0.30889 0.91526 0.0
N751 N 0.60825 0.22069 0.92197 0.0
C752 C 0.59628 0.24637 0.89716 0.0
C753 C 0.60202 0.29728 0.90062 0.0
H754 H 0.62068 0.27813 0.93687 0.0
H755 H 0.59599 0.16906 0.90525 0.0
C756 C 0.62057 0.99782 0.91884 0.0
N757 N 0.63999 0.02477 0.92392 0.0
C758 C 0.62363 0.95867 0.90834 0.0
C759 C 0.66679 0.97426 0.90879 0.0
C760 C 0.66291 0.01278 0.91945 0.0
C761 C 0.64691 0.94735 0.90293 0.0
H762 H 0.60259 0.00733 0.92279 0.0
H763 H 0.67819 0.03357 0.92394 0.0
O764 O 0.61708 0.18068 0.95731 0.0
O765 O 0.63616 0.0709 0.95924 0.0
O766 O 0.59808 0.10236 0.93374 0.0
O767 O 0.65095 0.1455 0.93305 0.0
H768 H 0.6344 0.15621 0.9843 0.0
H769 H 0.59101 0.26482 0.95982 0.0
H770 H 0.62811 0.20708 0.00763 0.0
H771 H 0.58511 0.31339 0.98364 0.0
H772 H 0.70074 0.9644 0.95467 0.0
H773 H 0.61203 0.98359 0.95934 0.0
H774 H 0.68305 0.0512 0.95674 0.0
H775 H 0.63095 0.89799 0.95703 0.0
H776 H 0.54826 0.10671 1.0007 0.0
H777 H 0.53738 0.99016 0.96682 0.0
H778 H 0.71117 0.27022 0.96661 0.0
H779 H 0.7115 0.13733 0.99554 0.0
H780 H 0.56881 0.06037 0.91368 0.0
H781 H 0.57369 0.1751 0.9484 0.0
H782 H 0.52594 0.08516 0.90953 0.0
H783 H 0.53089 0.19781 0.94362 0.0
H784 H 0.63756 0.13178 0.9046 0.0
H785 H 0.69873 0.14175 0.93464 0.0
H786 H 0.66592 0.11771 0.88322 0.0
H787 H 0.72606 0.12742 0.91273 0.0
H788 H 0.61492 0.34765 0.91837 0.0
H789 H 0.59053 0.23544 0.88592 0.0
H790 H 0.60788 0.93846 0.90414 0.0
H791 H 0.68507 0.96578 0.90509 0.0
Li792 Li 0.63637 0.16683 0.31909 0.0
Li793 Li 0.62162 0.083 0.31889 0.0
Li794 Li 0.65114 0.1086 0.2996 0.0
Li795 Li 0.60679 0.14224 0.29965 0.0
C796 C 0.67419 0.11488 0.33095 0.0
N797 N 0.71192 0.13759 0.35033 0.0
C798 C 0.67017 0.1171 0.34654 0.0
C799 C 0.69745 0.12356 0.32523 0.0
C800 C 0.68946 0.1289 0.35614 0.0
C801 C 0.71628 0.13509 0.33521 0.0
C802 C 0.58535 0.1347 0.33212 0.0
C803 C 0.5441 0.11464 0.3389 0.0
N804 N 0.55086 0.11107 0.35365 0.0
C805 C 0.59185 0.13137 0.34735 0.0
C806 C 0.56126 0.12665 0.32784 0.0
C807 C 0.57417 0.11913 0.35806 0.0
C808 C 0.62404 0.24687 0.33829 0.0
N809 N 0.64378 0.22367 0.33216 0.0
C810 C 0.6702 0.27915 0.34599 0.0
C811 C 0.66661 0.23991 0.3355 0.0
C812 C 0.65008 0.30222 0.3529 0.0
C813 C 0.62677 0.28624 0.34873 0.0
H814 H 0.60605 0.23452 0.33518 0.0
H815 H 0.68207 0.22242 0.33013 0.0
C816 C 0.63383 0.0032 0.33817 0.0
N817 N 0.61417 0.02577 0.33176 0.0
C818 C 0.63097 0.9639 0.34862 0.0
C819 C 0.5876 0.96985 0.34534 0.0
C820 C 0.59132 0.00901 0.33484 0.0
C821 C 0.60763 0.94739 0.35253 0.0
H822 H 0.65184 0.01609 0.33532 0.0
H823 H 0.57594 0.02623 0.32931 0.0
C824 C 0.64799 0.22761 0.2972 0.0
N825 N 0.66701 0.32483 0.2994 0.0
C826 C 0.63255 0.26978 0.29812 0.0
C827 C 0.67309 0.23483 0.29734 0.0
C828 C 0.64253 0.31864 0.29926 0.0
C829 C 0.68235 0.28431 0.29845 0.0
C830 C 0.60699 0.02613 0.29657 0.0
C831 C 0.61964 0.98002 0.2974 0.0
C832 C 0.58166 0.02583 0.29629 0.0
C833 C 0.60669 0.93424 0.29802 0.0
C834 C 0.56937 0.97925 0.29689 0.0
N835 N 0.58204 0.9348 0.29776 0.0
C836 C 0.68646 0.03787 0.29123 0.0
C837 C 0.68651 0.1118 0.27578 0.0
C838 C 0.70537 0.01661 0.28285 0.0
N839 N 0.67735 0.08444 0.28753 0.0
C840 C 0.70576 0.09229 0.26722 0.0
C841 C 0.71529 0.04401 0.27072 0.0
H842 H 0.679 0.01729 0.30075 0.0
H843 H 0.67884 0.14863 0.27302 0.0
C844 C 0.56743 0.20624 0.2931 0.0
N845 N 0.58064 0.16658 0.28759 0.0
C846 C 0.5485 0.22699 0.28461 0.0
C847 C 0.55695 0.16537 0.26497 0.0
C848 C 0.5758 0.14588 0.27383 0.0
C849 C 0.54317 0.20683 0.27028 0.0
H850 H 0.57175 0.222 0.30407 0.0
H851 H 0.5866 0.1143 0.26975 0.0
O852 O 0.65556 0.10313 0.32138 0.0
O853 O 0.6024 0.14663 0.32147 0.0
O854 O 0.63858 0.17942 0.29651 0.0
O855 O 0.61928 0.07144 0.29634 0.0
H856 H 0.65233 0.10993 0.35115 0.0
H857 H 0.7009 0.12183 0.31321 0.0
H858 H 0.68659 0.13109 0.36822 0.0
H859 H 0.73434 0.14219 0.33094 0.0
H860 H 0.52541 0.10799 0.33576 0.0
H861 H 0.61038 0.13796 0.35084 0.0
H862 H 0.55592 0.12913 0.31611 0.0
H863 H 0.57897 0.11605 0.36987 0.0
H864 H 0.68847 0.29138 0.34864 0.0
H865 H 0.61079 0.30331 0.35373 0.0
H866 H 0.64688 0.94734 0.35385 0.0
H867 H 0.56932 0.95725 0.3478 0.0
H868 H 0.61309 0.26477 0.29812 0.0
H869 H 0.68528 0.20253 0.29682 0.0
H870 H 0.63081 0.35162 0.30007 0.0
H871 H 0.70174 0.29048 0.29866 0.0
H872 H 0.63923 0.97958 0.29771 0.0
H873 H 0.57158 0.06119 0.29581 0.0
H874 H 0.61624 0.89826 0.29875 0.0
H875 H 0.54977 0.97845 0.29676 0.0
H876 H 0.71238 0.97938 0.2859 0.0
H877 H 0.71287 0.11425 0.25784 0.0
H878 H 0.53839 0.25901 0.2891 0.0
H879 H 0.55311 0.14799 0.25413 0.0
Li880 Li 0.35566 0.86031 0.0512 0.0
Li881 Li 0.38592 0.83252 0.07042 0.0
Li882 Li 0.37051 0.91697 0.07052 0.0
Li883 Li 0.39845 0.89409 0.05104 0.0
C884 C 0.33207 0.87132 0.08108 0.0
N885 N 0.29333 0.91132 0.09698 0.0
C886 C 0.33064 0.86503 0.09674 0.0
C887 C 0.31374 0.89783 0.07351 0.0
C888 C 0.31094 0.88562 0.10458 0.0
C889 C 0.2943 0.91772 0.08174 0.0
C890 C 0.38177 0.77339 0.04335 0.0
C891 C 0.38641 0.70384 0.02573 0.0
N892 N 0.37007 0.67605 0.03379 0.0
C893 C 0.36504 0.74412 0.05146 0.0
C894 C 0.39255 0.75314 0.03038 0.0
C895 C 0.35936 0.69501 0.04645 0.0
C896 C 0.32727 0.85078 0.02433 0.0
N897 N 0.32921 0.83689 0.03909 0.0
C898 C 0.29456 0.78257 0.03693 0.0
C899 C 0.31317 0.80395 0.04551 0.0
C900 C 0.29233 0.7954 0.0216 0.0
C901 C 0.30871 0.83061 0.01534 0.0
H902 H 0.34034 0.8769 0.01951 0.0
H903 H 0.31508 0.79359 0.05727 0.0
C904 C 0.39204 0.78851 0.09855 0.0
N905 N 0.39568 0.77863 0.08365 0.0
C906 C 0.39561 0.75041 0.10934 0.0
C907 C 0.40829 0.69348 0.08936 0.0
C908 C 0.40456 0.73285 0.07895 0.0
C909 C 0.40312 0.7017 0.10472 0.0
H910 H 0.3858 0.82583 0.10201 0.0
H911 H 0.40824 0.72638 0.06711 0.0
C912 C 0.36017 0.98032 0.04689 0.0
N913 N 0.34566 0.08067 0.04388 0.0
C914 C 0.37599 0.01988 0.05074 0.0
C915 C 0.33705 0.99171 0.04139 0.0
C916 C 0.36828 0.0704 0.04918 0.0
C917 C 0.33004 0.04272 0.03997 0.0
C918 C 0.42849 0.88399 0.07549 0.0
C919 C 0.44221 0.91172 0.08593 0.0
C920 C 0.43933 0.84405 0.06746 0.0
C921 C 0.46653 0.89897 0.08819 0.0
C922 C 0.46369 0.83246 0.07006 0.0
N923 N 0.47667 0.85992 0.08028 0.0
C924 C 0.37569 0.96747 0.09767 0.0
C925 C 0.34429 0.0046 0.08309 0.0
C926 C 0.37177 0.0024 0.10929 0.0
N927 N 0.36223 0.96939 0.08482 0.0
C928 C 0.33983 0.04063 0.09443 0.0
C929 C 0.35366 0.0396 0.10775 0.0
H930 H 0.38948 0.93849 0.09892 0.0
H931 H 0.33327 0.00464 0.07302 0.0
C932 C 0.4287 0.89842 0.02476 0.0
N933 N 0.42434 0.91866 0.03865 0.0
C934 C 0.44729 0.91812 0.0157 0.0
C935 C 0.45651 0.97887 0.03542 0.0
C936 C 0.4379 0.95788 0.04412 0.0
C937 C 0.46125 0.95932 0.02095 0.0
H938 H 0.41758 0.86736 0.02067 0.0
H939 H 0.43417 0.97308 0.05523 0.0
O940 O 0.35157 0.85285 0.07322 0.0
O941 O 0.38721 0.82206 0.04783 0.0
O942 O 0.36734 0.93065 0.0483 0.0
O943 O 0.40468 0.89648 0.07317 0.0
H944 H 0.34457 0.84464 0.10282 0.0
H945 H 0.31469 0.90379 0.06144 0.0
H946 H 0.30966 0.88121 0.11671 0.0
H947 H 0.28008 0.93856 0.07602 0.0
H948 H 0.39461 0.68769 0.01571 0.0
H949 H 0.35662 0.75902 0.06157 0.0
H950 H 0.40549 0.77532 0.02395 0.0
H951 H 0.34645 0.67197 0.05262 0.0
H952 H 0.28203 0.75618 0.04221 0.0
H953 H 0.30751 0.8414 1.00355 0.0
H954 H 0.3916 0.7584 0.12109 0.0
H955 H 0.41474 0.65676 0.08543 0.0
H956 H 0.39388 0.01166 0.05509 0.0
H957 H 0.32464 0.96145 0.03829 0.0
H958 H 0.38027 0.10143 0.05221 0.0
H959 H 0.31217 0.05214 0.03578 0.0
H960 H 0.43417 0.94293 0.09218 0.0
H961 H 0.42916 0.82218 0.0593 0.0
H962 H 0.47735 0.92014 0.09623 0.0
H963 H 0.47227 0.80165 0.06393 0.0
H964 H 0.38305 1.0008 0.11929 0.0
H965 H 0.32562 0.06865 0.09289 0.0
H966 H 0.45042 0.90203 0.00459 0.0
H967 H 0.46717 0.00997 0.03999 0.0
Li968 Li 0.38463 0.91357 0.68591 0.0
Li969 Li 0.35742 0.89227 0.7058 0.0
Li970 Li 0.40072 0.85876 0.70614 0.0
Li971 Li 0.36901 0.82769 0.68779 0.0
C972 C 0.40114 0.97584 0.70758 0.0
N973 N 0.42621 0.06722 0.70723 0.0
C974 C 0.38948 0.02088 0.70322 0.0
C975 C 0.42558 0.97734 0.71175 0.0
C976 C 0.40247 0.06666 0.7031 0.0
C977 C 0.43792 0.02391 0.71152 0.0
C978 C 0.32782 0.91002 0.68373 0.0
C979 C 0.28468 0.89909 0.68691 0.0
N980 N 0.28145 0.94997 0.68464 0.0
C981 C 0.32405 0.96221 0.6814 0.0
C982 C 0.30796 0.87817 0.68646 0.0
C983 C 0.30048 0.98166 0.6819 0.0
C984 C 0.3775 0.96692 0.6589 0.0
N985 N 0.3933 0.96313 0.67064 0.0
C986 C 0.41848 0.02784 0.65972 0.0
C987 C 0.41396 0.99156 0.67097 0.0
C988 C 0.4018 0.03412 0.64788 0.0
C989 C 0.38134 0.0024 0.64741 0.0
H990 H 0.36173 0.9425 0.65849 0.0
H991 H 0.42695 0.9863 0.67995 0.0
C992 C 0.31918 0.88427 0.72766 0.0
N993 N 0.33175 0.91698 0.71865 0.0
C994 C 0.30008 0.90214 0.73665 0.0
C995 C 0.30732 0.98699 0.72702 0.0
C996 C 0.32639 0.96761 0.71838 0.0
C997 C 0.29374 0.95413 0.73626 0.0
H998 H 0.324 0.84431 0.72791 0.0
H999 H 0.33663 0.993 0.71124 0.0
C1000 C 0.41808 0.85777 0.67248 0.0
N1001 N 0.44789 0.88082 0.64836 0.0
C1002 C 0.40997 0.85005 0.6577 0.0
C1003 C 0.44137 0.87691 0.67503 0.0
C1004 C 0.42532 0.86205 0.64565 0.0
C1005 C 0.45617 0.88837 0.66267 0.0
C1006 C 0.36353 0.77151 0.71206 0.0
C1007 C 0.38143 0.73609 0.71592 0.0
C1008 C 0.33979 0.75488 0.70957 0.0
C1009 C 0.37534 0.68446 0.71702 0.0
C1010 C 0.33442 0.70293 0.71076 0.0
N1011 N 0.35216 0.66908 0.71441 0.0
C1012 C 0.43006 0.85277 0.73259 0.0
C1013 C 0.44349 0.80315 0.71182 0.0
C1014 C 0.449 0.83418 0.74156 0.0
N1015 N 0.42767 0.83697 0.71804 0.0
C1016 C 0.46251 0.78321 0.72041 0.0
C1017 C 0.46533 0.79824 0.73556 0.0
H1018 H 0.41717 0.87961 0.73725 0.0
H1019 H 0.44095 0.79069 0.70028 0.0
C1020 C 0.34193 0.76972 0.66623 0.0
N1021 N 0.36109 0.7694 0.67589 0.0
C1022 C 0.33839 0.72917 0.65619 0.0
C1023 C 0.37428 0.68879 0.6663 0.0
C1024 C 0.37713 0.73005 0.67611 0.0
C1025 C 0.35481 0.68818 0.65607 0.0
H1026 H 0.32991 0.80224 0.66591 0.0
H1027 H 0.39269 0.73168 0.68353 0.0
O1028 O 0.38871 0.93064 0.70794 0.0
O1029 O 0.35082 0.89036 0.68356 0.0
O1030 O 0.40309 0.84765 0.6844 0.0
O1031 O 0.36925 0.82211 0.7106 0.0
H1032 H 0.37079 0.02042 0.69961 0.0
H1033 H 0.43499 0.94294 0.71504 0.0
H1034 H 0.39371 0.10169 0.69964 0.0
H1035 H 0.45684 0.02557 0.7147 0.0
H1036 H 0.26918 0.87488 0.68909 0.0
H1037 H 0.33918 0.98767 0.6795 0.0
H1038 H 0.31049 0.83777 0.68831 0.0
H1039 H 0.29734 0.022 0.68021 0.0
H1040 H 0.43483 0.05066 0.66025 0.0
H1041 H 0.36814 0.00577 0.6384 0.0
H1042 H 0.29056 0.87563 0.74392 0.0
H1043 H 0.30306 0.02726 0.7263 0.0
H1044 H 0.39193 0.83548 0.65557 0.0
H1045 H 0.4478 0.88348 0.68642 0.0
H1046 H 0.41925 0.85658 0.63414 0.0
H1047 H 0.47419 0.9035 0.66445 0.0
H1048 H 0.39986 0.7482 0.71797 0.0
H1049 H 0.32569 0.78172 0.70664 0.0
H1050 H 0.38905 0.65662 0.71991 0.0
H1051 H 0.31616 0.68952 0.70876 0.0
H1052 H 0.45081 0.84783 0.75305 0.0
H1053 H 0.47456 0.7554 0.71535 0.0
H1054 H 0.32329 0.73033 0.64838 0.0
H1055 H 0.38779 0.6588 0.66627 0.0
Li1056 Li 0.60784 0.60865 0.45582 0.0
Li1057 Li 0.64891 0.64216 0.45595 0.0
Li1058 Li 0.61982 0.66889 0.43597 0.0
Li1059 Li 0.63693 0.5822 0.43591 0.0
C1060 C 0.61198 0.70328 0.47151 0.0
N1061 N 0.59922 0.74681 0.4988 0.0
C1062 C 0.62151 0.68412 0.48498 0.0
C1063 C 0.59614 0.74487 0.47188 0.0
C1064 C 0.61479 0.70657 0.49867 0.0
C1065 C 0.58985 0.76627 0.48581 0.0
C1066 C 0.64751 0.53939 0.46901 0.0
C1067 C 0.67577 0.47535 0.47755 0.0
N1068 N 0.66597 0.47799 0.49164 0.0
C1069 C 0.63757 0.5411 0.48354 0.0
C1070 C 0.66662 0.50591 0.46595 0.0
C1071 C 0.64721 0.5099 0.49483 0.0
C1072 C 0.5797 0.53167 0.46905 0.0
N1073 N 0.58154 0.58326 0.4678 0.0
C1074 C 0.54643 0.59449 0.48332 0.0
C1075 C 0.5652 0.61474 0.47455 0.0
C1076 C 0.54443 0.54136 0.4851 0.0
C1077 C 0.56122 0.5098 0.4777 0.0
H1078 H 0.59275 0.5075 0.46339 0.0
H1079 H 0.56655 0.65552 0.47307 0.0
C1080 C 0.68248 0.71649 0.4646 0.0
N1081 N 0.67551 0.66785 0.46775 0.0
C1082 C 0.70186 0.73879 0.47236 0.0
C1083 C 0.70645 0.66069 0.48657 0.0
C1084 C 0.68702 0.6399 0.47853 0.0
C1085 C 0.71424 0.71062 0.48343 0.0
H1086 H 0.67302 0.73789 0.45597 0.0
H1087 H 0.68123 0.60153 0.48098 0.0
C1088 C 0.57833 0.61056 0.43055 0.0
N1089 N 0.52971 0.62546 0.42454 0.0
C1090 C 0.56579 0.5762 0.42135 0.0
C1091 C 0.56617 0.65255 0.43668 0.0
C1092 C 0.5412 0.5844 0.41844 0.0
C1093 C 0.54158 0.65938 0.43352 0.0
C1094 C 0.6776 0.64184 0.42914 0.0
C1095 C 0.6863 0.66833 0.41656 0.0
C1096 C 0.69292 0.60856 0.43694 0.0
C1097 C 0.71028 0.66097 0.41195 0.0
C1098 C 0.71679 0.6023 0.432 0.0
N1099 N 0.7249 0.6284 0.41971 0.0
C1100 C 0.61206 0.77123 0.42598 0.0
C1101 C 0.60589 0.70567 0.4079 0.0
C1102 C 0.60844 0.80861 0.41491 0.0
N1103 N 0.61099 0.72099 0.42222 0.0
C1104 C 0.60213 0.74162 0.39653 0.0
C1105 C 0.60376 0.79384 0.39992 0.0
H1106 H 0.61662 0.7822 0.43742 0.0
H1107 H 0.60554 0.66538 0.40523 0.0
C1108 C 0.64457 0.4799 0.42597 0.0
N1109 N 0.64603 0.53008 0.42219 0.0
C1110 C 0.64832 0.44231 0.41499 0.0
C1111 C 0.6554 0.50889 0.39659 0.0
C1112 C 0.65149 0.54509 0.40789 0.0
C1113 C 0.65347 0.45676 0.40003 0.0
H1114 H 0.63954 0.46913 0.43735 0.0
H1115 H 0.65194 0.58528 0.40514 0.0
O1116 O 0.61815 0.68182 0.45796 0.0
O1117 O 0.63828 0.56941 0.45774 0.0
O1118 O 0.60239 0.60289 0.4335 0.0
O1119 O 0.65412 0.64836 0.4337 0.0
H1120 H 0.63401 0.65244 0.48487 0.0
H1121 H 0.58865 0.76021 0.46153 0.0
H1122 H 0.622 0.69205 0.5092 0.0
H1123 H 0.57752 0.79833 0.48628 0.0
H1124 H 0.69063 0.44946 0.47536 0.0
H1125 H 0.62253 0.56609 0.4861 0.0
H1126 H 0.67435 0.50353 0.45473 0.0
H1127 H 0.63974 0.51098 0.50613 0.0
H1128 H 0.53346 0.6201 0.4885 0.0
H1129 H 0.56026 0.46866 0.47875 0.0
H1130 H 0.70732 0.77739 0.4696 0.0
H1131 H 0.71517 0.63805 0.49524 0.0
H1132 H 0.57498 0.54354 0.41652 0.0
H1133 H 0.57558 0.67959 0.4438 0.0
H1134 H 0.53126 0.55812 0.41134 0.0
H1135 H 0.53194 0.69167 0.4382 0.0
H1136 H 0.6746 0.69415 0.41039 0.0
H1137 H 0.68647 0.58793 0.4467 0.0
H1138 H 0.71726 0.68115 0.40221 0.0
H1139 H 0.72886 0.5767 0.43794 0.0
H1140 H 0.6104 0.84846 0.41791 0.0
H1141 H 0.5986 0.72874 0.3851 0.0
H1142 H 0.64607 0.40254 0.41802 0.0
H1143 H 0.65923 0.52153 0.38518 0.0
Li1144 Li 0.62122 0.58105 0.81848 0.0
Li1145 Li 0.63785 0.66693 0.81974 0.0
Li1146 Li 0.60842 0.64341 0.79961 0.0
Li1147 Li 0.6498 0.60885 0.79917 0.0
C1148 C 0.596 0.65212 0.83658 0.0
N1149 N 0.58177 0.66606 0.86625 0.0
C1150 C 0.61021 0.63312 0.84839 0.0
C1151 C 0.57451 0.67809 0.83987 0.0
C1152 C 0.60272 0.64058 0.8633 0.0
C1153 C 0.56763 0.68477 0.85494 0.0
C1154 C 0.67917 0.60928 0.82524 0.0
C1155 C 0.7171 0.65355 0.82181 0.0
N1156 N 0.72691 0.62586 0.83327 0.0
C1157 C 0.68962 0.5812 0.83698 0.0
C1158 C 0.69299 0.64573 0.81758 0.0
C1159 C 0.71379 0.59017 0.84088 0.0
C1160 C 0.63081 0.48998 0.83324 0.0
N1161 N 0.61272 0.52412 0.83078 0.0
C1162 C 0.5874 0.48212 0.84886 0.0
C1163 C 0.59105 0.52027 0.83803 0.0
C1164 C 0.60616 0.44746 0.85206 0.0
C1165 C 0.62789 0.45111 0.84385 0.0
H1166 H 0.64787 0.49411 0.82733 0.0
H1167 H 0.577 0.54816 0.83594 0.0
C1168 C 0.63939 0.76866 0.83021 0.0
N1169 N 0.64674 0.72029 0.83336 0.0
C1170 C 0.64217 0.80735 0.84096 0.0
C1171 C 0.66039 0.74588 0.85785 0.0
C1172 C 0.65748 0.70856 0.84676 0.0
C1173 C 0.65237 0.79579 0.85509 0.0
H1174 H 0.63047 0.77667 0.81958 0.0
H1175 H 0.66273 0.66971 0.84916 0.0
C1176 C 0.59902 0.54144 0.79294 0.0
N1177 N 0.55918 0.48144 0.78644 0.0
C1178 C 0.60099 0.50132 0.78261 0.0
C1179 C 0.57679 0.55104 0.79998 0.0
C1180 C 0.58064 0.47142 0.77947 0.0
C1181 C 0.55686 0.52027 0.79654 0.0
C1182 C 0.64763 0.71333 0.78692 0.0
C1183 C 0.63848 0.70972 0.77224 0.0
C1184 C 0.66484 0.75075 0.79034 0.0
C1185 C 0.64698 0.74317 0.76114 0.0
C1186 C 0.67288 0.78349 0.77893 0.0
N1187 N 0.66387 0.77904 0.76469 0.0
C1188 C 0.56908 0.70868 0.79373 0.0
C1189 C 0.57703 0.65027 0.77388 0.0
C1190 C 0.54973 0.72971 0.78566 0.0
N1191 N 0.5822 0.66963 0.78778 0.0
C1192 C 0.55799 0.67054 0.76535 0.0
C1193 C 0.54399 0.71059 0.77128 0.0
H1194 H 0.57375 0.72366 0.80473 0.0
H1195 H 0.58781 0.61932 0.76937 0.0
C1196 C 0.68904 0.54451 0.79269 0.0
N1197 N 0.67602 0.58393 0.78684 0.0
C1198 C 0.70804 0.52269 0.78449 0.0
C1199 C 0.69967 0.58149 0.76415 0.0
C1200 C 0.68094 0.60252 0.77282 0.0
C1201 C 0.71341 0.54075 0.76992 0.0
H1202 H 0.68459 0.52972 0.80376 0.0
H1203 H 0.67016 0.63306 0.76821 0.0
O1204 O 0.60306 0.64578 0.82187 0.0
O1205 O 0.65548 0.60103 0.82139 0.0
O1206 O 0.61887 0.5709 0.79609 0.0
O1207 O 0.63922 0.68165 0.79804 0.0
H1208 H 0.62685 0.61275 0.84607 0.0
H1209 H 0.56326 0.69294 0.83087 0.0
H1210 H 0.61357 0.62612 0.87254 0.0
H1211 H 0.55105 0.70484 0.85765 0.0
H1212 H 0.72801 0.68161 0.81596 0.0
H1213 H 0.67913 0.55292 0.84304 0.0
H1214 H 0.68524 0.66753 0.80843 0.0
H1215 H 0.72211 0.56878 0.84995 0.0
H1216 H 0.57053 0.48125 0.85511 0.0
H1217 H 0.64272 0.42489 0.84588 0.0
H1218 H 0.63536 0.84524 0.83853 0.0
H1219 H 0.66824 0.73556 0.86865 0.0
H1220 H 0.61809 0.49342 0.77707 0.0
H1221 H 0.57485 0.58193 0.80797 0.0
H1222 H 0.5819 0.44025 0.77149 0.0
H1223 H 0.53955 0.5273 0.80189 0.0
H1224 H 0.62526 0.68088 0.76937 0.0
H1225 H 0.67186 0.75459 0.80171 0.0
H1226 H 0.64018 0.74055 0.7497 0.0
H1227 H 0.68624 0.81253 0.78142 0.0
H1228 H 0.53958 0.76108 0.79051 0.0
H1229 H 0.55408 0.65481 0.75429 0.0
H1230 H 0.71845 0.49212 0.78954 0.0
H1231 H 0.70307 0.59637 0.75293 0.0
Li1232 Li 0.40163 0.3918 0.55056 0.0
Li1233 Li 0.37504 0.41454 0.57054 0.0
Li1234 Li 0.39056 0.32856 0.56893 0.0
Li1235 Li 0.35858 0.35847 0.55067 0.0
C1236 C 0.43131 0.41356 0.57174 0.0
N1237 N 0.47637 0.45865 0.56874 0.0
C1238 C 0.43365 0.46664 0.57249 0.0
C1239 C 0.45193 0.38342 0.56955 0.0
C1240 C 0.45658 0.4887 0.57094 0.0
C1241 C 0.47453 0.40694 0.56803 0.0
C1242 C 0.35712 0.47473 0.54887 0.0
C1243 C 0.31937 0.51967 0.54523 0.0
N1244 N 0.33048 0.56416 0.54906 0.0
C1245 C 0.36813 0.52096 0.55281 0.0
C1246 C 0.33251 0.47408 0.54509 0.0
C1247 C 0.35436 0.56571 0.55283 0.0
C1248 C 0.44345 0.38325 0.5313 0.0
N1249 N 0.42703 0.41601 0.53744 0.0
C1250 C 0.44771 0.48742 0.5266 0.0
C1251 C 0.42862 0.46713 0.53502 0.0
C1252 C 0.4653 0.45474 0.52048 0.0
C1253 C 0.46282 0.40192 0.52268 0.0
H1254 H 0.44178 0.34275 0.53329 0.0
H1255 H 0.41531 0.49235 0.53986 0.0
C1256 C 0.38293 0.46778 0.59741 0.0
N1257 N 0.36681 0.46443 0.58583 0.0
C1258 C 0.3791 0.50186 0.60926 0.0
C1259 C 0.34163 0.52782 0.59744 0.0
C1260 C 0.3461 0.49276 0.58584 0.0
C1261 C 0.3583 0.5326 0.60933 0.0
H1262 H 0.39886 0.4438 0.59748 0.0
H1263 H 0.33294 0.48808 0.57693 0.0
C1264 C 0.3953 0.27052 0.54519 0.0
N1265 N 0.40596 0.16755 0.54382 0.0
C1266 C 0.37749 0.23551 0.54085 0.0
C1267 C 0.41859 0.25317 0.5487 0.0
C1268 C 0.38323 0.18361 0.54025 0.0
C1269 C 0.4236 0.20097 0.54799 0.0
C1270 C 0.34163 0.35962 0.58436 0.0
C1271 C 0.34978 0.35269 0.59916 0.0
C1272 C 0.31838 0.37883 0.58175 0.0
C1273 C 0.33452 0.36558 0.61118 0.0
C1274 C 0.30366 0.39117 0.59407 0.0
N1275 N 0.31198 0.38441 0.6084 0.0
C1276 C 0.41806 0.27161 0.59051 0.0
C1277 C 0.38215 0.23233 0.5815 0.0
C1278 C 0.42162 0.23197 0.60086 0.0
N1279 N 0.39847 0.27116 0.58119 0.0
C1280 C 0.38499 0.19203 0.59166 0.0
C1281 C 0.40467 0.19204 0.60172 0.0
H1282 H 0.43045 0.30353 0.59029 0.0
H1283 H 0.36643 0.23364 0.57421 0.0
C1284 C 0.32911 0.35052 0.52441 0.0
N1285 N 0.33148 0.33596 0.53908 0.0
C1286 C 0.30984 0.33215 0.51569 0.0
C1287 C 0.29616 0.28337 0.53726 0.0
C1288 C 0.31552 0.30306 0.5456 0.0
C1289 C 0.29311 0.29804 0.52212 0.0
H1290 H 0.34228 0.37616 0.51947 0.0
H1291 H 0.31809 0.29147 0.55722 0.0
O1292 O 0.4089 0.39136 0.57271 0.0
O1293 O 0.37036 0.43052 0.54852 0.0
O1294 O 0.38989 0.3214 0.54615 0.0
O1295 O 0.35657 0.34876 0.57247 0.0
H1296 H 0.4179 0.49064 0.57403 0.0
H1297 H 0.45048 0.34236 0.5688 0.0
H1298 H 0.45862 0.52973 0.57139 0.0
H1299 H 0.4906 0.38409 0.56622 0.0
H1300 H 0.30032 0.51964 0.54233 0.0
H1301 H 0.38695 0.52227 0.55613 0.0
H1302 H 0.32355 0.43881 0.54215 0.0
H1303 H 0.36264 0.60164 0.55594 0.0
H1304 H 0.44871 0.5283 0.52489 0.0
H1305 H 0.476 0.37551 0.51809 0.0
H1306 H 0.39248 0.50472 0.61818 0.0
H1307 H 0.32525 0.55059 0.5972 0.0
H1308 H 0.35941 0.24817 0.53802 0.0
H1309 H 0.43254 0.27961 0.5522 0.0
H1310 H 0.36959 0.1561 0.53696 0.0
H1311 H 0.44149 0.187 0.5508 0.0
H1312 H 0.36781 0.33809 0.60134 0.0
H1313 H 0.31193 0.38483 0.57034 0.0
H1314 H 0.34063 0.36078 0.6227 0.0
H1315 H 0.28567 0.40637 0.59223 0.0
H1316 H 0.43718 0.23307 0.60831 0.0
H1317 H 0.37138 0.16226 0.59206 0.0
H1318 H 0.30831 0.34367 0.50398 0.0
H1319 H 0.28364 0.25707 0.54259 0.0
Li1320 Li 0.38472 0.41741 0.18697 0.0
Li1321 Li 0.35556 0.39163 0.2065 0.0
Li1322 Li 0.39825 0.35519 0.20647 0.0
Li1323 Li 0.36777 0.32831 0.18791 0.0
C1324 C 0.39992 0.47032 0.21331 0.0
N1325 N 0.42543 0.55671 0.22162 0.0
C1326 C 0.38758 0.51422 0.21794 0.0
C1327 C 0.42525 0.47008 0.21323 0.0
C1328 C 0.40079 0.5576 0.222 0.0
C1329 C 0.43782 0.51418 0.21738 0.0
C1330 C 0.3283 0.41375 0.18188 0.0
C1331 C 0.28473 0.40589 0.18245 0.0
N1332 N 0.28269 0.45517 0.1778 0.0
C1333 C 0.32576 0.46412 0.17693 0.0
C1334 C 0.30763 0.38419 0.1845 0.0
C1335 C 0.30255 0.48443 0.17499 0.0
C1336 C 0.40099 0.45521 0.15919 0.0
N1337 N 0.39359 0.47028 0.17315 0.0
C1338 C 0.39408 0.55776 0.16544 0.0
C1339 C 0.3903 0.52047 0.17649 0.0
C1340 C 0.4011 0.54314 0.1508 0.0
C1341 C 0.40511 0.49119 0.14784 0.0
H1342 H 0.40302 0.41502 0.15672 0.0
H1343 H 0.38365 0.5315 0.18748 0.0
C1344 C 0.31925 0.38738 0.22959 0.0
N1345 N 0.32941 0.41702 0.21867 0.0
C1346 C 0.29987 0.40587 0.23822 0.0
C1347 C 0.30189 0.48502 0.22428 0.0
C1348 C 0.32131 0.46522 0.21603 0.0
C1349 C 0.29082 0.45511 0.23547 0.0
H1350 H 0.32617 0.34937 0.23159 0.0
H1351 H 0.32992 0.48838 0.20747 0.0
C1352 C 0.42484 0.34565 0.17908 0.0
N1353 N 0.47188 0.33499 0.16875 0.0
C1354 C 0.43241 0.29973 0.17256 0.0
C1355 C 0.44108 0.38644 0.18006 0.0
C1356 C 0.4563 0.29498 0.1675 0.0
C1357 C 0.4648 0.38025 0.17485 0.0
C1358 C 0.35801 0.27161 0.21213 0.0
C1359 C 0.37382 0.23193 0.21589 0.0
C1360 C 0.33336 0.2613 0.21014 0.0
C1361 C 0.36478 0.18233 0.21726 0.0
C1362 C 0.32502 0.21121 0.2116 0.0
N1363 N 0.34078 0.17307 0.21509 0.0
C1364 C 0.43078 0.35288 0.23169 0.0
C1365 C 0.43743 0.2896 0.21302 0.0
C1366 C 0.45022 0.33429 0.24024 0.0
N1367 N 0.42496 0.33072 0.21827 0.0
C1368 C 0.45699 0.26993 0.22115 0.0
C1369 C 0.46372 0.29255 0.23489 0.0
H1370 H 0.4203 0.38494 0.23577 0.0
H1371 H 0.43188 0.27135 0.20265 0.0
C1372 C 0.34172 0.27821 0.16446 0.0
N1373 N 0.35883 0.27227 0.17538 0.0
C1374 C 0.33742 0.2392 0.15402 0.0
C1375 C 0.36814 0.18851 0.16642 0.0
C1376 C 0.37186 0.22845 0.17658 0.0
C1377 C 0.35091 0.19382 0.15485 0.0
H1378 H 0.33201 0.31389 0.16352 0.0
H1379 H 0.38587 0.22533 0.18506 0.0
O1380 O 0.38722 0.4274 0.20937 0.0
O1381 O 0.35089 0.39346 0.18407 0.0
O1382 O 0.40149 0.35085 0.18413 0.0
O1383 O 0.36659 0.32031 0.21052 0.0
H1384 H 0.36801 0.51497 0.21832 0.0
H1385 H 0.43517 0.43607 0.21017 0.0
H1386 H 0.39144 0.59194 0.22548 0.0
H1387 H 0.45743 0.51451 0.21731 0.0
H1388 H 0.26859 0.38352 0.18455 0.0
H1389 H 0.34152 0.48746 0.17473 0.0
H1390 H 0.30924 0.34494 0.18808 0.0
H1391 H 0.30033 0.52348 0.17128 0.0
H1392 H 0.39054 0.59739 0.16813 0.0
H1393 H 0.41088 0.47839 0.13677 0.0
H1394 H 0.29184 0.38175 0.24681 0.0
H1395 H 0.29577 0.52356 0.22203 0.0
H1396 H 0.42004 0.26793 0.17151 0.0
H1397 H 0.43535 0.42277 0.18456 0.0
H1398 H 0.46244 0.25951 0.16255 0.0
H1399 H 0.47755 0.41153 0.17557 0.0
H1400 H 0.39289 0.23923 0.21763 0.0
H1401 H 0.32081 0.29165 0.20751 0.0
H1402 H 0.37686 0.1512 0.22005 0.0
H1403 H 0.30601 0.20267 0.21 0.0
H1404 H 0.45477 0.35255 0.25084 0.0
H1405 H 0.46648 0.23677 0.21685 0.0
H1406 H 0.32409 0.24484 0.14519 0.0
H1407 H 0.37943 0.15479 0.1672 0.0
C1408 C 0.26915 0.22384 0.51229 0.0
C1409 C 0.27284 0.27691 0.51302 0.0
C1410 C 0.25028 0.20296 0.50363 0.0
C1411 C 0.23428 0.23438 0.49544 0.0
H1412 H 0.28119 0.19819 0.51828 0.0
H1413 H 0.24844 0.16183 0.50318 0.0
S1414 S 0.23486 0.3761 0.49482 0.0
N1415 N 0.25823 0.36057 0.50552 0.0
N1416 N 0.2225 0.3216 0.48948 0.0
C1417 C 0.2375 0.28763 0.49635 0.0
C1418 C 0.25683 0.30881 0.50508 0.0
C1419 C 1.00096 0.95235 0.50308 0.0
C1420 C 0.98389 0.98345 0.51044 0.0
C1421 C 0.01982 0.97371 0.49448 0.0
C1422 C 0.02219 0.027 0.49281 0.0
H1423 H 0.99997 0.91122 0.50418 0.0
H1424 H 0.03286 0.94823 0.4893 0.0
S1425 S 0.98051 0.12463 0.50865 0.0
N1426 N 0.96963 0.06981 0.51487 0.0
N1427 N 0.00462 0.11003 0.49845 0.0
C1428 C 0.00481 0.05839 0.49986 0.0
C1429 C 0.98578 0.03661 0.50872 0.0
C1430 C 0.27612 0.02074 0.75347 0.0
C1431 C 0.2733 0.97458 0.74548 0.0
C1432 C 0.257 0.04179 0.76187 0.0
C1433 C 0.23437 0.01731 0.76273 0.0
H1434 H 0.29331 0.04073 0.7533 0.0
H1435 H 0.26002 0.07729 0.76786 0.0
S1436 S 0.21692 0.89755 0.74323 0.0
N1437 N 0.24555 0.90644 0.73844 0.0
N1438 N 0.20983 0.94556 0.75449 0.0
C1439 C 0.23123 0.97126 0.75482 0.0
C1440 C 0.25063 0.94999 0.74615 0.0
C1441 C 0.0206 0.27971 0.75884 0.0
C1442 C 0.02076 0.22754 0.76265 0.0
C1443 C 1.00171 0.30088 0.75026 0.0
C1444 C 0.98224 0.27072 0.74517 0.0
H1445 H 0.03546 0.30416 0.76226 0.0
H1446 H 1.00264 0.34096 0.74731 0.0
S1447 S 0.97276 0.13331 0.75353 0.0
N1448 N 0.99892 0.14707 0.76161 0.0
N1449 N 0.96339 0.1868 0.74558 0.0
C1450 C 0.98186 0.2188 0.74927 0.0
C1451 C 1.00111 0.19725 0.75797 0.0
C1452 C 0.75227 0.80348 0.50655 0.0
C1453 C 0.77415 0.77676 0.50866 0.0
C1454 C 0.7331 0.78215 0.49823 0.0
C1455 C 0.73508 0.73328 0.49173 0.0
H1456 H 0.74973 0.84066 0.51167 0.0
H1457 H 0.71641 0.80362 0.49717 0.0
S1458 S 0.78949 0.65012 0.49247 0.0
N1459 N 0.79732 0.70057 0.50252 0.0
N1460 N 0.76132 0.66054 0.48697 0.0
C1461 C 0.7571 0.70683 0.49338 0.0
C1462 C 0.7766 0.72854 0.50182 0.0
C1463 C 0.73211 0.97415 0.25453 0.0
C1464 C 0.73528 0.02167 0.26167 0.0
C1465 C 0.75079 0.95209 0.24596 0.0
C1466 C 0.77343 0.97626 0.24453 0.0
H1467 H 0.71498 0.95418 0.25546 0.0
H1468 H 0.7476 0.91562 0.24054 0.0
S1469 S 0.79097 0.10077 0.26115 0.0
N1470 N 0.76269 0.09216 0.26674 0.0
N1471 N 0.79797 0.05021 0.25087 0.0
C1472 C 0.77688 0.02356 0.2517 0.0
C1473 C 0.75774 0.04643 0.2602 0.0
C1474 C 0.98117 0.73286 0.25355 0.0
C1475 C 0.98436 0.77755 0.24493 0.0
C1476 C 1.00025 0.71202 0.26202 0.0
C1477 C 0.02328 0.73507 0.26222 0.0
H1478 H 0.96372 0.71394 0.25383 0.0
H1479 H 0.99688 0.67781 0.26856 0.0
S1480 S 0.04159 0.85064 0.24083 0.0
N1481 N 0.01267 0.8429 0.23663 0.0
N1482 N 0.04849 0.80388 0.25258 0.0
C1483 C 0.02677 0.77963 0.25361 0.0
C1484 C 0.00734 0.80083 0.24497 0.0
C1485 C 0.25694 0.80242 0.00395 0.0
C1486 C 0.27307 0.7717 0.01222 0.0
C1487 C 0.23806 0.78068 0.99548 0.0
C1488 C 0.23471 0.72739 0.99488 0.0
H1489 H 0.25863 0.8436 0.00428 0.0
H1490 H 0.22574 0.80591 0.98957 0.0
S1491 S 0.27377 0.63022 0.01328 0.0
N1492 N 0.28552 0.68539 0.01855 0.0
N1493 N 0.25036 0.64444 1.00245 0.0
C1494 C 0.25117 0.69627 1.0028 0.0
C1495 C 0.27027 0.71843 0.01149 0.0
C1496 C 0.01401 0.47132 0.99044 0.0
C1497 C 0.02357 0.51971 0.99398 0.0
C1498 C 0.9951 0.44985 0.99896 0.0
C1499 C 0.98509 0.47575 0.01142 0.0
H1500 H 0.02106 0.44998 0.98092 0.0
H1501 H 0.98846 0.41238 0.99585 0.0
S1502 S 0.00351 0.60364 0.02538 0.0
N1503 N 0.02171 0.59267 0.01092 0.0
N1504 N 0.98579 0.55305 0.02664 0.0
C1505 C 0.9944 0.52428 0.01504 0.0
C1506 C 0.01367 0.5461 0.00638 0.0
C1507 C 0.27072 0.47456 0.26025 0.0
C1508 C 0.27014 0.47564 0.24436 0.0
C1509 C 0.25177 0.49546 0.26886 0.0
C1510 C 0.23146 0.51804 0.2619 0.0
H1511 H 0.28618 0.45835 0.26608 0.0
H1512 H 0.25325 0.49471 0.28106 0.0
S1513 S 0.22008 0.52551 0.22062 0.0
N1514 N 0.24692 0.49803 0.22201 0.0
N1515 N 0.21119 0.53668 0.23813 0.0
C1516 C 0.23041 0.51813 0.24601 0.0
C1517 C 0.24975 0.49708 0.23726 0.0
C1518 C 0.73442 0.27872 0.99594 0.0
C1519 C 0.73521 0.22805 0.99065 0.0
C1520 C 0.75364 0.2995 0.00433 0.0
C1521 C 0.77439 0.27043 0.00775 0.0
H1522 H 0.71862 0.30219 0.99383 0.0
H1523 H 0.752 0.33827 0.00846 0.0
S1524 S 0.78649 0.13774 0.99513 0.0
N1525 N 0.75918 0.15059 0.98851 0.0
N1526 N 0.79529 0.1896 0.0042 0.0
C1527 C 0.77566 0.22018 1.00217 0.0
C1528 C 0.75609 0.19902 0.99366 0.0
C1529 C 0.74991 0.54879 0.7531 0.0
C1530 C 0.73326 0.51742 0.76081 0.0
C1531 C 0.76882 0.52783 0.74449 0.0
C1532 C 0.77192 0.47467 0.74331 0.0
H1533 H 0.7485 0.58995 0.75386 0.0
H1534 H 0.78131 0.55345 0.73885 0.0
S1535 S 0.73229 0.37571 0.76024 0.0
N1536 N 0.72037 0.43027 0.7659 0.0
N1537 N 0.75616 0.39108 0.74993 0.0
C1538 C 0.75533 0.44283 0.75081 0.0
C1539 C 0.73596 0.46413 0.7595 0.0
C1540 C 0.51754 0.97156 0.99634 0.0
C1541 C 0.51921 0.02454 0.99381 0.0
C1542 C 0.4986 0.95066 0.00495 0.0
C1543 C 0.48067 0.98196 0.01143 0.0
H1544 H 0.53122 0.94607 0.99185 0.0
H1545 H 0.49824 0.9098 0.00681 0.0
S1546 S 0.47531 0.12227 0.00698 0.0
N1547 N 0.5002 0.1073 0.9976 0.0
N1548 N 0.46485 0.06808 0.01392 0.0
C1549 C 0.48182 0.0348 0.00874 0.0
C1550 C 0.50102 0.05606 0.99991 0.0
C1551 C 0.48149 0.26031 0.25918 0.0
C1552 C 0.48439 0.27179 0.24375 0.0
C1553 C 0.50054 0.23928 0.26764 0.0
C1554 C 0.52325 0.22904 0.26102 0.0
H1555 H 0.46422 0.2668 0.26469 0.0
H1556 H 0.49734 0.23032 0.27943 0.0
S1557 S 0.54081 0.25669 0.22137 0.0
N1558 N 0.5121 0.27421 0.22241 0.0
N1559 N 0.54794 0.2351 0.23832 0.0
C1560 C 0.5265 0.24128 0.24567 0.0
C1561 C 0.50709 0.26255 0.23705 0.0
C1562 C 0.50872 0.77132 0.73902 0.0
C1563 C 0.48513 0.77613 0.74498 0.0
C1564 C 0.5276 0.74987 0.74756 0.0
C1565 C 0.52368 0.73274 0.76242 0.0
H1566 H 0.51271 0.78465 0.72771 0.0
H1567 H 0.54548 0.74727 0.74255 0.0
S1568 S 0.46507 0.7328 0.78294 0.0
N1569 N 0.45873 0.75896 0.76642 0.0
N1570 N 0.49434 0.7197 0.78251 0.0
C1571 C 0.50022 0.73688 0.76849 0.0
C1572 C 0.48094 0.75833 0.75977 0.0
C1573 C 0.49157 0.45746 0.49734 0.0
C1574 C 0.4861 0.47596 0.51187 0.0
C1575 C 0.51054 0.47856 0.4888 0.0
C1576 C 0.52476 0.51886 0.49449 0.0
H1577 H 0.48078 0.42717 0.49242 0.0
H1578 H 0.51381 0.46384 0.47754 0.0
S1579 S 0.51952 0.57689 0.5326 0.0
N1580 N 0.49752 0.5342 0.53202 0.0
N1581 N 0.53321 0.57366 0.51602 0.0
C1582 C 0.51988 0.53669 0.50917 0.0
C1583 C 0.50056 0.51528 0.51784 0.0
C1584 C 0.14617 0.89239 0.36258 0.0
C1585 C 0.1536 0.84178 0.36513 0.0
C1586 C 0.14704 0.92892 0.37412 0.0
C1587 C 0.15523 0.91622 0.38871 0.0
H1588 H 0.13938 0.90374 0.3516 0.0
H1589 H 0.14059 0.96711 0.3717 0.0
S1590 S 0.17736 0.78936 0.40116 0.0
N1591 N 0.16975 0.78095 0.38328 0.0
N1592 N 0.17177 0.84996 0.40493 0.0
C1593 C 0.16316 0.86602 0.39135 0.0
C1594 C 0.16233 0.82878 0.37957 0.0
C1595 C 0.09675 0.33622 0.37835 0.0
C1596 C 0.10797 0.34758 0.39223 0.0
C1597 C 0.0958 0.37248 0.36667 0.0
C1598 C 0.10566 0.42155 0.3686 0.0
H1599 H 0.08929 0.29857 0.37635 0.0
H1600 H 0.08738 0.36205 0.35606 0.0
S1601 S 0.13643 0.47057 0.40293 0.0
N1602 N 0.12866 0.41155 0.40735 0.0
N1603 N 0.12685 0.47967 0.38546 0.0
C1604 C 0.11651 0.43363 0.38253 0.0
C1605 C 0.11768 0.39664 0.39433 0.0
C1606 C 0.16411 0.34186 0.87558 0.0
C1607 C 0.14951 0.34895 0.86271 0.0
C1608 C 0.16488 0.37853 0.88714 0.0
C1609 C 0.15125 0.42382 0.88618 0.0
H1610 H 0.17447 0.30703 0.87693 0.0
H1611 H 0.17613 0.37126 0.89694 0.0
S1612 S 0.11079 0.46136 0.85454 0.0
N1613 N 0.12193 0.40556 0.84938 0.0
N1614 N 0.12279 0.47368 0.87123 0.0
C1615 C 0.13694 0.43173 0.87322 0.0
C1616 C 0.1362 0.39451 0.86147 0.0
C1617 C 0.12139 0.83701 0.87775 0.0
C1618 C 0.1042 0.83719 0.88948 0.0
C1619 C 0.12114 0.87447 0.86648 0.0
C1620 C 0.10356 0.91343 0.86641 0.0
H1621 H 0.1355 0.80824 0.87747 0.0
H1622 H 0.13521 0.87355 0.85794 0.0
S1623 S 0.05323 0.92805 0.89395 0.0
N1624 N 0.06843 0.87778 0.90003 0.0
N1625 N 0.06755 0.94782 0.87863 0.0
C1626 C 0.0859 0.9133 0.87791 0.0
C1627 C 0.08632 0.87531 0.88949 0.0
C1628 C 0.85165 0.13149 0.63782 0.0
C1629 C 0.85435 0.18348 0.63425 0.0
C1630 C 0.85083 0.09426 0.62643 0.0
C1631 C 0.85261 0.1077 0.61106 0.0
H1632 H 0.8511 0.1193 0.64951 0.0
H1633 H 0.84972 0.05451 0.62972 0.0
S1634 S 0.85652 0.23923 0.59575 0.0
N1635 N 0.85648 0.24696 0.61427 0.0
N1636 N 0.85483 0.17705 0.59286 0.0
C1637 C 0.85418 0.15977 0.60734 0.0
C1638 C 0.85507 0.19762 0.61893 0.0
C1639 C 0.87823 0.61927 0.6352 0.0
C1640 C 0.90015 0.60563 0.64222 0.0
C1641 C 0.87753 0.65651 0.62387 0.0
C1642 C 0.89871 0.68183 0.61912 0.0
H1643 H 0.86147 0.60048 0.63834 0.0
H1644 H 0.86023 0.66518 0.61867 0.0
S1645 S 0.96057 0.66191 0.63448 0.0
N1646 N 0.94349 0.62115 0.64394 0.0
N1647 N 0.94216 0.69178 0.62271 0.0
C1648 C 0.92078 0.66872 0.62608 0.0
C1649 C 0.92149 0.63051 0.63761 0.0
C1650 C 0.85246 0.58219 0.12764 0.0
C1651 C 0.8525 0.59623 0.11228 0.0
C1652 C 0.85305 0.61916 0.1391 0.0
C1653 C 0.85378 0.67149 0.13562 0.0
H1654 H 0.85285 0.54229 0.13084 0.0
H1655 H 0.85386 0.60664 0.15076 0.0
S1656 S 0.85101 0.72838 0.09728 0.0
N1657 N 0.85104 0.66617 0.09426 0.0
N1658 N 0.85226 0.73563 0.1158 0.0
C1659 C 0.8528 0.68609 0.12034 0.0
C1660 C 0.85215 0.64849 0.10868 0.0
C1661 C 0.91577 0.11973 0.13666 0.0
C1662 C 0.89523 0.08993 0.14003 0.0
C1663 C 0.91513 0.15665 0.12514 0.0
C1664 C 0.89395 0.16487 0.11662 0.0
H1665 H 0.93224 0.11525 0.14319 0.0
H1666 H 0.9311 0.17975 0.12313 0.0
S1667 S 0.83648 0.09207 0.11964 0.0
N1668 N 0.85396 0.06783 0.13297 0.0
N1669 N 0.85276 0.13707 0.11141 0.0
C1670 C 0.87365 0.13397 0.11951 0.0
C1671 C 0.87429 0.09655 0.13119 0.0
C1672 C 0.64174 0.82273 0.88135 0.0
C1673 C 0.65265 0.83427 0.86738 0.0
C1674 C 0.64032 0.85925 0.89288 0.0
C1675 C 0.65009 0.90838 0.89096 0.0
H1676 H 0.63364 0.78558 0.88322 0.0
H1677 H 0.63136 0.84913 0.90336 0.0
S1678 S 0.6812 0.95719 0.85673 0.0
N1679 N 0.67385 0.89784 0.85238 0.0
N1680 N 0.67133 0.96652 0.87414 0.0
C1681 C 0.66152 0.92008 0.87718 0.0
C1682 C 0.66271 0.88306 0.86536 0.0
C1683 C 0.62191 0.36925 0.88682 0.0
C1684 C 0.60169 0.33711 0.88864 0.0
C1685 C 0.62303 0.40482 0.87504 0.0
C1686 C 0.60398 0.40983 0.86457 0.0
H1687 H 0.63732 0.36611 0.89435 0.0
H1688 H 0.63901 0.42867 0.87413 0.0
S1689 S 0.54658 0.33601 0.86461 0.0
N1690 N 0.56172 0.31389 0.87931 0.0
N1691 N 0.56409 0.38003 0.8569 0.0
C1692 C 0.58345 0.37854 0.86638 0.0
C1693 C 0.58229 0.34228 0.87843 0.0
C1694 C 0.63956 0.38806 0.36331 0.0
C1695 C 0.65299 0.34263 0.36451 0.0
C1696 C 0.64037 0.42517 0.37468 0.0
C1697 C 0.6545 0.41816 0.38776 0.0
H1698 H 0.62809 0.3947 0.35357 0.0
H1699 H 0.62927 0.45901 0.37341 0.0
S1700 S 0.69365 0.30665 0.39613 0.0
N1701 N 0.68126 0.29306 0.37962 0.0
N1702 N 0.68297 0.36323 0.40098 0.0
C1703 C 0.66842 0.37339 0.38896 0.0
C1704 C 0.66768 0.33562 0.37732 0.0
C1705 C 0.61734 0.82515 0.37463 0.0
C1706 C 0.60288 0.8322 0.38757 0.0
C1707 C 0.61824 0.86199 0.36318 0.0
C1708 C 0.60459 0.90718 0.36417 0.0
H1709 H 0.62861 0.79149 0.37352 0.0
H1710 H 0.62996 0.85535 0.35356 0.0
S1711 S 0.56308 0.94319 0.39539 0.0
N1712 N 0.5739 0.88693 0.40044 0.0
N1713 N 0.57578 0.95659 0.37895 0.0
C1714 C 0.58958 0.91423 0.37685 0.0
C1715 C 0.58876 0.87674 0.38857 0.0
C1716 C 0.34976 0.16771 0.12762 0.0
C1717 C 0.34863 0.15396 0.14299 0.0
C1718 C 0.35042 0.13049 0.11623 0.0
C1719 C 0.35002 0.0782 0.1198 0.0
H1720 H 0.35116 0.20748 0.12439 0.0
H1721 H 0.35225 0.1427 0.10459 0.0
S1722 S 0.34367 0.02236 0.15812 0.0
N1723 N 0.34465 0.08458 0.16105 0.0
N1724 N 0.34598 0.01464 0.13965 0.0
C1725 C 0.34771 0.06401 0.13506 0.0
C1726 C 0.347 0.10186 0.14664 0.0
C1727 C 0.41533 0.62783 0.14092 0.0
C1728 C 0.40283 0.5817 0.13852 0.0
C1729 C 0.41593 0.66594 0.12978 0.0
C1730 C 0.40411 0.65927 0.11583 0.0
H1731 H 0.42458 0.63465 0.15152 0.0
H1732 H 0.42556 0.70108 0.13215 0.0
S1733 S 0.36769 0.54684 0.10428 0.0
N1734 N 0.37762 0.53238 0.12135 0.0
N1735 N 0.3789 0.6038 0.10043 0.0
C1736 C 0.39169 0.61323 0.11325 0.0
C1737 C 0.39101 0.57452 0.12459 0.0
C1738 C 0.34997 0.65983 0.62918 0.0
C1739 C 0.35295 0.64711 0.64453 0.0
C1740 C 0.35077 0.62227 0.61789 0.0
C1741 C 0.35466 0.57069 0.62153 0.0
H1742 H 0.34797 0.69934 0.6258 0.0
H1743 H 0.34931 0.63396 0.60618 0.0
S1744 S 0.36015 0.51653 0.66009 0.0
N1745 N 0.35746 0.57862 0.66285 0.0
N1746 N 0.35916 0.50815 0.64161 0.0
C1747 C 0.35653 0.55716 0.63686 0.0
C1748 C 0.35564 0.59532 0.64836 0.0
C1749 C 0.40322 0.10027 0.60969 0.0
C1750 C 0.40649 0.15192 0.61355 0.0
C1751 C 0.40252 0.06219 0.62082 0.0
C1752 C 0.40511 0.0743 0.63623 0.0
H1753 H 0.40082 0.08928 0.59798 0.0
H1754 H 0.3996 0.02301 0.61736 0.0
S1755 S 0.4134 0.20379 0.65234 0.0
N1756 N 0.412 0.21319 0.63391 0.0
N1757 N 0.41082 0.14155 0.65479 0.0
C1758 C 0.40886 0.12561 0.64023 0.0
C1759 C 0.40952 0.16443 0.6289 0.0
loop_
_geom_bond_atom_site_label_1
_geom_bond_atom_site_label_2
_geom_bond_distance
_geom_bond_site_symmetry_2
_ccdc_geom_bond_type
Li0 N17 1.990 . S
Li0 O60 1.956 . S
Li0 O61 1.970 . S
Li0 O62 1.961 . S
Li1 N25 1.990 . S
Li1 O60 1.970 . S
Li1 O61 1.956 . S
Li1 O63 1.961 . S
Li2 N47 1.990 . S
Li2 O60 1.961 . S
Li2 O62 1.956 . S
Li2 O63 1.970 . S
Li3 N53 1.990 . S
Li3 O61 1.961 . S
Li3 O62 1.970 . S
Li3 O63 1.956 . S
C4 C6 1.348 . S
C4 C7 1.356 . S
C4 O60 1.325 . S
N5 C8 1.314 . S
N5 C9 1.279 . S
C6 C4 1.348 . S
C6 C8 1.353 . S
C6 H64 0.929 . S
C7 C4 1.356 . S
C7 C9 1.358 . S
C7 H65 0.930 . S
C8 N5 1.314 . S
C8 C6 1.353 . S
C8 H66 0.930 . S
C9 N5 1.279 . S
C9 C7 1.358 . S
C9 H67 0.930 . S
C10 C13 1.348 . S
C10 C14 1.369 . S
C10 O61 1.325 . S
C11 N12 1.279 . S
C11 C14 1.342 1_565 S
C11 H68 0.930 . S
N12 C11 1.279 . S
N12 C15 1.314 . S
C13 C10 1.348 . S
C13 C15 1.353 1_545 S
C13 H69 0.929 . S
C14 C10 1.369 . S
C14 C11 1.342 1_545 S
C14 H70 0.934 . S
C15 N12 1.314 . S
C15 C13 1.353 1_565 S
C15 H71 0.930 . S
C16 N17 1.314 . S
C16 C21 1.353 . S
C16 H22 0.930 . S
N17 Li0 1.990 . S
N17 C16 1.314 . S
N17 C19 1.279 . S
C18 C19 1.358 . S
C18 C20 1.356 . S
C18 H72 0.930 . S
C19 N17 1.279 . S
C19 C18 1.358 . S
C19 H23 0.930 . S
C20 C18 1.356 . S
C20 C21 1.348 . S
C21 C16 1.353 . S
C21 C20 1.348 . S
C21 H73 0.929 . S
H22 C16 0.930 . S
H23 C19 0.930 . S
C24 N25 1.314 . S
C24 C26 1.353 . S
C24 H30 0.930 . S
N25 Li1 1.990 . S
N25 C24 1.314 . S
N25 C28 1.279 . S
C26 C24 1.353 . S
C26 C29 1.348 . S
C26 H74 0.929 . S
C27 C28 1.358 . S
C27 C29 1.356 . S
C27 H75 0.930 . S
C28 N25 1.279 . S
C28 C27 1.358 . S
C28 H31 0.930 . S
C29 C26 1.348 . S
C29 C27 1.356 . S
H30 C24 0.930 . S
H31 C28 0.930 . S
C32 C34 1.348 . S
C32 C35 1.356 . S
C32 O62 1.325 . S
N33 C36 1.314 . S
N33 C37 1.279 . S
C34 C32 1.348 . S
C34 C36 1.353 . S
C34 H76 0.929 . S
C35 C32 1.356 . S
C35 C37 1.358 . S
C35 H77 0.930 . S
C36 N33 1.314 . S
C36 C34 1.353 . S
C36 H78 0.930 . S
C37 N33 1.279 . S
C37 C35 1.358 . S
C37 H79 0.930 . S
C38 C39 1.348 . S
C38 C40 1.356 . S
C38 O63 1.325 . S
C39 C38 1.348 . S
C39 C41 1.353 . S
C39 H80 0.929 . S
C40 C38 1.356 . S
C40 C42 1.358 . S
C40 H81 0.930 . S
C41 C39 1.353 . S
C41 N43 1.314 . S
C41 H82 0.930 . S
C42 C40 1.358 . S
C42 N43 1.279 . S
C42 H83 0.930 . S
N43 C41 1.314 . S
N43 C42 1.279 . S
C44 C46 1.353 . S
C44 N47 1.314 . S
C44 H50 0.930 . S
C45 N47 1.279 . S
C45 C48 1.358 . S
C45 H51 0.930 . S
C46 C44 1.353 . S
C46 C49 1.348 . S
C46 H84 0.929 . S
N47 Li2 1.990 . S
N47 C44 1.314 . S
N47 C45 1.279 . S
C48 C45 1.358 . S
C48 C49 1.356 . S
C48 H85 0.930 . S
C49 C46 1.348 . S
C49 C48 1.356 . S
H50 C44 0.930 . S
H51 C45 0.930 . S
C52 N53 1.314 1_565 S
C52 C54 1.353 . S
C52 H58 0.930 . S
N53 Li3 1.990 . S
N53 C52 1.314 1_545 S
N53 C56 1.279 . S
C54 C52 1.353 . S
C54 C57 1.348 . S
C54 H86 0.929 . S
C55 C56 1.358 1_565 S
C55 C57 1.356 . S
C55 H87 0.930 . S
C56 N53 1.279 . S
C56 C55 1.358 1_545 S
C56 H59 0.930 . S
C57 C54 1.348 . S
C57 C55 1.356 . S
H58 C52 0.930 . S
H59 C56 0.930 . S
O60 Li0 1.956 . S
O60 Li1 1.970 . S
O60 Li2 1.961 . S
O60 C4 1.325 . S
O61 Li0 1.970 . S
O61 Li1 1.956 . S
O61 Li3 1.961 . S
O61 C10 1.325 . S
O62 Li0 1.961 . S
O62 Li2 1.956 . S
O62 Li3 1.970 . S
O62 C32 1.325 . S
O63 Li1 1.961 . S
O63 Li2 1.970 . S
O63 Li3 1.956 . S
O63 C38 1.325 . S
H64 C6 0.929 . S
H65 C7 0.930 . S
H66 C8 0.930 . S
H67 C9 0.930 . S
H68 C11 0.930 . S
H69 C13 0.929 . S
H70 C14 0.934 . S
H71 C15 0.930 . S
H72 C18 0.930 . S
H73 C21 0.929 . S
H74 C26 0.929 . S
H75 C27 0.930 . S
H76 C34 0.929 . S
H77 C35 0.930 . S
H78 C36 0.930 . S
H79 C37 0.930 . S
H80 C39 0.929 . S
H81 C40 0.930 . S
H82 C41 0.930 . S
H83 C42 0.930 . S
H84 C46 0.929 . S
H85 C48 0.930 . S
H86 C54 0.929 . S
H87 C55 0.930 . S
Li88 N105 1.990 . S
Li88 O148 1.956 . S
Li88 O149 1.970 . S
Li88 O150 1.961 . S
Li89 N113 1.990 . S
Li89 O148 1.970 . S
Li89 O149 1.956 . S
Li89 O151 1.961 . S
Li90 N135 1.990 . S
Li90 O148 1.961 . S
Li90 O150 1.956 . S
Li90 O151 1.970 . S
Li91 N141 1.990 . S
Li91 O149 1.961 . S
Li91 O150 1.970 . S
Li91 O151 1.956 . S
C92 C94 1.348 . S
C92 C95 1.356 . S
C92 O148 1.325 . S
N93 C96 1.314 . S
N93 C97 1.279 . S
C94 C92 1.348 . S
C94 C96 1.353 . S
C94 H152 0.929 . S
C95 C92 1.356 . S
C95 C97 1.358 . S
C95 H153 0.930 . S
C96 N93 1.314 . S
C96 C94 1.353 . S
C96 H154 0.930 . S
C97 N93 1.279 . S
C97 C95 1.358 . S
C97 H155 0.930 . S
C98 C101 1.348 . S
C98 C102 1.356 . S
C98 O149 1.325 . S
C99 N100 1.279 . S
C99 C102 1.358 . S
C99 H156 0.930 . S
N100 C99 1.279 . S
N100 C103 1.314 . S
C101 C98 1.348 . S
C101 C103 1.353 . S
C101 H157 0.929 . S
C102 C98 1.356 . S
C102 C99 1.358 . S
C102 H158 0.930 . S
C103 N100 1.314 . S
C103 C101 1.353 . S
C103 H159 0.930 . S
C104 N105 1.314 . S
C104 C109 1.353 . S
C104 H110 0.930 . S
N105 Li88 1.990 . S
N105 C104 1.314 . S
N105 C107 1.279 . S
C106 C107 1.358 . S
C106 C108 1.356 . S
C106 H160 0.930 . S
C107 N105 1.279 . S
C107 C106 1.358 . S
C107 H111 0.930 . S
C108 C106 1.356 . S
C108 C109 1.348 . S
C109 C104 1.353 . S
C109 C108 1.348 . S
C109 H161 0.929 . S
H110 C104 0.930 . S
H111 C107 0.930 . S
C112 N113 1.314 1_565 S
C112 C114 1.353 . S
C112 H118 0.930 . S
N113 Li89 1.990 . S
N113 C112 1.314 1_545 S
N113 C116 1.279 . S
C114 C112 1.353 . S
C114 C117 1.348 . S
C114 H162 0.929 . S
C115 C116 1.358 1_565 S
C115 C117 1.356 . S
C115 H163 0.930 . S
C116 N113 1.279 . S
C116 C115 1.358 1_545 S
C116 H119 0.930 . S
C117 C114 1.348 . S
C117 C115 1.356 . S
H118 C112 0.930 . S
H119 C116 0.930 . S
C120 C122 1.348 . S
C120 C123 1.356 . S
C120 O150 1.325 . S
N121 C124 1.314 . S
N121 C125 1.279 . S
C122 C120 1.348 . S
C122 C124 1.353 . S
C122 H164 0.929 . S
C123 C120 1.356 . S
C123 C125 1.358 . S
C123 H165 0.930 . S
C124 N121 1.314 . S
C124 C122 1.353 . S
C124 H166 0.930 . S
C125 N121 1.279 . S
C125 C123 1.358 . S
C125 H167 0.930 . S
C126 C127 1.348 . S
C126 C128 1.369 . S
C126 O151 1.325 . S
C127 C126 1.348 . S
C127 C129 1.353 1_545 S
C127 H168 0.929 . S
C128 C126 1.369 . S
C128 C130 1.342 1_545 S
C128 H169 0.934 . S
C129 C127 1.353 1_565 S
C129 N131 1.314 . S
C129 H170 0.930 . S
C130 C128 1.342 1_565 S
C130 N131 1.279 . S
C130 H171 0.930 . S
N131 C129 1.314 . S
N131 C130 1.279 . S
C132 C134 1.353 . S
C132 N135 1.314 . S
C132 H138 0.930 . S
C133 N135 1.279 . S
C133 C136 1.358 . S
C133 H139 0.930 . S
C134 C132 1.353 . S
C134 C137 1.348 . S
C134 H172 0.929 . S
N135 Li90 1.990 . S
N135 C132 1.314 . S
N135 C133 1.279 . S
C136 C133 1.358 . S
C136 C137 1.356 . S
C136 H173 0.930 . S
C137 C134 1.348 . S
C137 C136 1.356 . S
H138 C132 0.930 . S
H139 C133 0.930 . S
C140 N141 1.314 . S
C140 C142 1.353 . S
C140 H146 0.930 . S
N141 Li91 1.990 . S
N141 C140 1.314 . S
N141 C144 1.279 . S
C142 C140 1.353 . S
C142 C145 1.348 . S
C142 H174 0.929 . S
C143 C144 1.358 . S
C143 C145 1.356 . S
C143 H175 0.930 . S
C144 N141 1.279 . S
C144 C143 1.358 . S
C144 H147 0.930 . S
C145 C142 1.348 . S
C145 C143 1.356 . S
H146 C140 0.930 . S
H147 C144 0.930 . S
O148 Li88 1.956 . S
O148 Li89 1.970 . S
O148 Li90 1.961 . S
O148 C92 1.325 . S
O149 Li88 1.970 . S
O149 Li89 1.956 . S
O149 Li91 1.961 . S
O149 C98 1.325 . S
O150 Li88 1.961 . S
O150 Li90 1.956 . S
O150 Li91 1.970 . S
O150 C120 1.325 . S
O151 Li89 1.961 . S
O151 Li90 1.970 . S
O151 Li91 1.956 . S
O151 C126 1.325 . S
H152 C94 0.929 . S
H153 C95 0.930 . S
H154 C96 0.930 . S
H155 C97 0.930 . S
H156 C99 0.930 . S
H157 C101 0.929 . S
H158 C102 0.930 . S
H159 C103 0.930 . S
H160 C106 0.930 . S
H161 C109 0.929 . S
H162 C114 0.929 . S
H163 C115 0.930 . S
H164 C122 0.929 . S
H165 C123 0.930 . S
H166 C124 0.930 . S
H167 C125 0.930 . S
H168 C127 0.929 . S
H169 C128 0.934 . S
H170 C129 0.930 . S
H171 C130 0.930 . S
H172 C134 0.929 . S
H173 C136 0.930 . S
H174 C142 0.929 . S
H175 C143 0.930 . S
Li176 N193 1.990 . S
Li176 O236 1.956 . S
Li176 O237 1.970 . S
Li176 O238 1.961 . S
Li177 N201 1.990 . S
Li177 O236 1.970 . S
Li177 O237 1.956 . S
Li177 O239 1.961 . S
Li178 N223 1.990 . S
Li178 O236 1.961 . S
Li178 O238 1.956 . S
Li178 O239 1.970 . S
Li179 N229 1.990 . S
Li179 O237 1.961 . S
Li179 O238 1.970 . S
Li179 O239 1.956 . S
C180 C182 1.348 . S
C180 C183 1.356 . S
C180 O236 1.325 . S
N181 C184 1.314 . S
N181 C185 1.279 . S
C182 C180 1.348 . S
C182 C184 1.353 . S
C182 H240 0.929 . S
C183 C180 1.356 . S
C183 C185 1.358 . S
C183 H241 0.930 . S
C184 N181 1.314 . S
C184 C182 1.353 . S
C184 H242 0.930 . S
C185 N181 1.279 . S
C185 C183 1.358 . S
C185 H243 0.930 . S
C186 C189 1.348 . S
C186 C190 1.356 . S
C186 O237 1.325 . S
C187 N188 1.279 . S
C187 C190 1.358 1_545 S
C187 H244 0.930 . S
N188 C187 1.279 . S
N188 C191 1.314 . S
C189 C186 1.348 . S
C189 C191 1.353 1_565 S
C189 H245 0.929 . S
C190 C186 1.356 . S
C190 C187 1.358 1_565 S
C190 H246 0.930 . S
C191 N188 1.314 . S
C191 C189 1.353 1_545 S
C191 H247 0.930 . S
C192 N193 1.314 . S
C192 C197 1.353 . S
C192 H198 0.930 . S
N193 Li176 1.990 . S
N193 C192 1.314 . S
N193 C195 1.279 . S
C194 C195 1.358 . S
C194 C196 1.356 . S
C194 H248 0.930 . S
C195 N193 1.279 . S
C195 C194 1.358 . S
C195 H199 0.930 . S
C196 C194 1.356 . S
C196 C197 1.348 . S
C197 C192 1.353 . S
C197 C196 1.348 . S
C197 H249 0.929 . S
H198 C192 0.930 . S
H199 C195 0.930 . S
C200 N201 1.314 . S
C200 C202 1.353 1_565 S
C200 H206 0.930 . S
N201 Li177 1.990 . S
N201 C200 1.314 . S
N201 C204 1.279 1_565 S
C202 C200 1.353 1_545 S
C202 C205 1.348 . S
C202 H250 0.929 . S
C203 C204 1.358 . S
C203 C205 1.356 . S
C203 H251 0.930 . S
C204 N201 1.279 1_545 S
C204 C203 1.358 . S
C204 H207 0.930 . S
C205 C202 1.348 . S
C205 C203 1.356 . S
H206 C200 0.930 . S
H207 C204 0.930 . S
C208 C210 1.348 . S
C208 C211 1.356 . S
C208 O238 1.325 . S
N209 C212 1.314 . S
N209 C213 1.279 . S
C210 C208 1.348 . S
C210 C212 1.353 . S
C210 H252 0.929 . S
C211 C208 1.356 . S
C211 C213 1.358 . S
C211 H253 0.930 . S
C212 N209 1.314 . S
C212 C210 1.353 . S
C212 H254 0.930 . S
C213 N209 1.279 . S
C213 C211 1.358 . S
C213 H255 0.930 . S
C214 C215 1.348 . S
C214 C216 1.356 . S
C214 O239 1.325 . S
C215 C214 1.348 . S
C215 C217 1.353 . S
C215 H256 0.929 . S
C216 C214 1.356 . S
C216 C218 1.358 . S
C216 H257 0.930 . S
C217 C215 1.353 . S
C217 N219 1.314 . S
C217 H258 0.930 . S
C218 C216 1.358 . S
C218 N219 1.279 . S
C218 H259 0.930 . S
N219 C217 1.314 . S
N219 C218 1.279 . S
C220 C222 1.353 . S
C220 N223 1.314 . S
C220 H226 0.930 . S
C221 N223 1.279 . S
C221 C224 1.358 . S
C221 H227 0.930 . S
C222 C220 1.353 . S
C222 C225 1.348 . S
C222 H260 0.929 . S
N223 Li178 1.990 . S
N223 C220 1.314 . S
N223 C221 1.279 . S
C224 C221 1.358 . S
C224 C225 1.356 . S
C224 H261 0.930 . S
C225 C222 1.348 . S
C225 C224 1.356 . S
H226 C220 0.930 . S
H227 C221 0.930 . S
C228 N229 1.314 . S
C228 C230 1.353 . S
C228 H234 0.930 . S
N229 Li179 1.990 . S
N229 C228 1.314 . S
N229 C232 1.279 . S
C230 C228 1.353 . S
C230 C233 1.348 . S
C230 H262 0.929 . S
C231 C232 1.358 . S
C231 C233 1.356 . S
C231 H263 0.930 . S
C232 N229 1.279 . S
C232 C231 1.358 . S
C232 H235 0.930 . S
C233 C230 1.348 . S
C233 C231 1.356 . S
H234 C228 0.930 . S
H235 C232 0.930 . S
O236 Li176 1.956 . S
O236 Li177 1.970 . S
O236 Li178 1.961 . S
O236 C180 1.325 . S
O237 Li176 1.970 . S
O237 Li177 1.956 . S
O237 Li179 1.961 . S
O237 C186 1.325 . S
O238 Li176 1.961 . S
O238 Li178 1.956 . S
O238 Li179 1.970 . S
O238 C208 1.325 . S
O239 Li177 1.961 . S
O239 Li178 1.970 . S
O239 Li179 1.956 . S
O239 C214 1.325 . S
H240 C182 0.929 . S
H241 C183 0.930 . S
H242 C184 0.930 . S
H243 C185 0.930 . S
H244 C187 0.930 . S
H245 C189 0.929 . S
H246 C190 0.930 . S
H247 C191 0.930 . S
H248 C194 0.930 . S
H249 C197 0.929 . S
H250 C202 0.929 . S
H251 C203 0.930 . S
H252 C210 0.929 . S
H253 C211 0.930 . S
H254 C212 0.930 . S
H255 C213 0.930 . S
H256 C215 0.929 . S
H257 C216 0.930 . S
H258 C217 0.930 . S
H259 C218 0.930 . S
H260 C222 0.929 . S
H261 C224 0.930 . S
H262 C230 0.929 . S
H263 C231 0.930 . S
Li264 N281 1.990 . S
Li264 O324 1.956 . S
Li264 O325 1.970 . S
Li264 O326 1.961 . S
Li265 N289 1.990 . S
Li265 O324 1.970 . S
Li265 O325 1.956 . S
Li265 O327 1.961 . S
Li266 N311 1.990 . S
Li266 O324 1.961 . S
Li266 O326 1.956 . S
Li266 O327 1.970 . S
Li267 N317 1.990 . S
Li267 O325 1.961 . S
Li267 O326 1.970 . S
Li267 O327 1.956 . S
C268 C270 1.348 . S
C268 C271 1.356 . S
C268 O324 1.325 . S
N269 C272 1.314 . S
N269 C273 1.279 . S
C270 C268 1.348 . S
C270 C272 1.353 1_565 S
C270 H328 0.929 . S
C271 C268 1.356 . S
C271 C273 1.358 1_565 S
C271 H329 0.930 . S
C272 N269 1.314 . S
C272 C270 1.353 1_545 S
C272 H330 0.930 . S
C273 N269 1.279 . S
C273 C271 1.358 1_545 S
C273 H331 0.930 . S
C274 C277 1.348 . S
C274 C278 1.356 . S
C274 O325 1.325 . S
C275 N276 1.279 . S
C275 C278 1.358 . S
C275 H332 0.930 . S
N276 C275 1.279 . S
N276 C279 1.314 . S
C277 C274 1.348 . S
C277 C279 1.353 . S
C277 H333 0.929 . S
C278 C274 1.356 . S
C278 C275 1.358 . S
C278 H334 0.930 . S
C279 N276 1.314 . S
C279 C277 1.353 . S
C279 H335 0.930 . S
C280 N281 1.314 . S
C280 C285 1.353 1_565 S
C280 H286 0.930 . S
N281 Li264 1.990 . S
N281 C280 1.314 . S
N281 C283 1.279 1_565 S
C282 C283 1.358 . S
C282 C284 1.356 . S
C282 H336 0.930 . S
C283 N281 1.279 1_545 S
C283 C282 1.358 . S
C283 H287 0.930 . S
C284 C282 1.356 . S
C284 C285 1.348 . S
C285 C280 1.353 1_545 S
C285 C284 1.348 . S
C285 H337 0.929 . S
H286 C280 0.930 . S
H287 C283 0.930 . S
C288 N289 1.314 . S
C288 C290 1.353 . S
C288 H294 0.930 . S
N289 Li265 1.990 . S
N289 C288 1.314 . S
N289 C292 1.279 . S
C290 C288 1.353 . S
C290 C293 1.348 . S
C290 H338 0.929 . S
C291 C292 1.358 . S
C291 C293 1.356 . S
C291 H339 0.930 . S
C292 N289 1.279 . S
C292 C291 1.358 . S
C292 H295 0.930 . S
C293 C290 1.348 . S
C293 C291 1.356 . S
H294 C288 0.930 . S
H295 C292 0.930 . S
C296 C298 1.348 . S
C296 C299 1.356 . S
C296 O326 1.325 . S
N297 C300 1.314 . S
N297 C301 1.279 . S
C298 C296 1.348 . S
C298 C300 1.353 . S
C298 H340 0.929 . S
C299 C296 1.356 . S
C299 C301 1.358 . S
C299 H341 0.930 . S
C300 N297 1.314 . S
C300 C298 1.353 . S
C300 H342 0.930 . S
C301 N297 1.279 . S
C301 C299 1.358 . S
C301 H343 0.930 . S
C302 C303 1.348 . S
C302 C304 1.356 . S
C302 O327 1.325 . S
C303 C302 1.348 . S
C303 C305 1.353 . S
C303 H344 0.929 . S
C304 C302 1.356 . S
C304 C306 1.358 . S
C304 H345 0.930 . S
C305 C303 1.353 . S
C305 N307 1.314 . S
C305 H346 0.930 . S
C306 C304 1.358 . S
C306 N307 1.279 . S
C306 H347 0.930 . S
N307 C305 1.314 . S
N307 C306 1.279 . S
C308 C310 1.353 . S
C308 N311 1.314 . S
C308 H314 0.930 . S
C309 N311 1.279 . S
C309 C312 1.358 . S
C309 H315 0.930 . S
C310 C308 1.353 . S
C310 C313 1.348 . S
C310 H348 0.929 . S
N311 Li266 1.990 . S
N311 C308 1.314 . S
N311 C309 1.279 . S
C312 C309 1.358 . S
C312 C313 1.356 . S
C312 H349 0.930 . S
C313 C310 1.348 . S
C313 C312 1.356 . S
H314 C308 0.930 . S
H315 C309 0.930 . S
C316 N317 1.314 . S
C316 C318 1.353 . S
C316 H322 0.930 . S
N317 Li267 1.990 . S
N317 C316 1.314 . S
N317 C320 1.279 . S
C318 C316 1.353 . S
C318 C321 1.348 . S
C318 H350 0.929 . S
C319 C320 1.358 . S
C319 C321 1.356 . S
C319 H351 0.930 . S
C320 N317 1.279 . S
C320 C319 1.358 . S
C320 H323 0.930 . S
C321 C318 1.348 . S
C321 C319 1.356 . S
H322 C316 0.930 . S
H323 C320 0.930 . S
O324 Li264 1.956 . S
O324 Li265 1.970 . S
O324 Li266 1.961 . S
O324 C268 1.325 . S
O325 Li264 1.970 . S
O325 Li265 1.956 . S
O325 Li267 1.961 . S
O325 C274 1.325 . S
O326 Li264 1.961 . S
O326 Li266 1.956 . S
O326 Li267 1.970 . S
O326 C296 1.325 . S
O327 Li265 1.961 . S
O327 Li266 1.970 . S
O327 Li267 1.956 . S
O327 C302 1.325 . S
H328 C270 0.929 . S
H329 C271 0.930 . S
H330 C272 0.930 . S
H331 C273 0.930 . S
H332 C275 0.930 . S
H333 C277 0.929 . S
H334 C278 0.930 . S
H335 C279 0.930 . S
H336 C282 0.930 . S
H337 C285 0.929 . S
H338 C290 0.929 . S
H339 C291 0.930 . S
H340 C298 0.929 . S
H341 C299 0.930 . S
H342 C300 0.930 . S
H343 C301 0.930 . S
H344 C303 0.929 . S
H345 C304 0.930 . S
H346 C305 0.930 . S
H347 C306 0.930 . S
H348 C310 0.929 . S
H349 C312 0.930 . S
H350 C318 0.929 . S
H351 C319 0.930 . S
Li352 N369 1.990 . S
Li352 O412 1.956 . S
Li352 O413 1.970 . S
Li352 O414 1.961 . S
Li353 N377 1.990 . S
Li353 O412 1.970 . S
Li353 O413 1.956 . S
Li353 O415 1.961 . S
Li354 N399 1.990 . S
Li354 O412 1.961 . S
Li354 O414 1.956 . S
Li354 O415 1.970 . S
Li355 N405 1.990 . S
Li355 O413 1.961 . S
Li355 O414 1.970 . S
Li355 O415 1.956 . S
C356 C358 1.348 . S
C356 C359 1.356 . S
C356 O412 1.325 . S
N357 C360 1.314 . S
N357 C361 1.279 . S
C358 C356 1.348 . S
C358 C360 1.353 . S
C358 H416 0.929 . S
C359 C356 1.356 . S
C359 C361 1.358 . S
C359 H417 0.930 . S
C360 N357 1.314 . S
C360 C358 1.353 . S
C360 H418 0.930 . S
C361 N357 1.279 . S
C361 C359 1.358 . S
C361 H419 0.930 . S
C362 C365 1.348 . S
C362 C366 1.356 . S
C362 O413 1.325 . S
C363 N364 1.279 . S
C363 C366 1.358 . S
C363 H420 0.930 . S
N364 C363 1.279 . S
N364 C367 1.314 . S
C365 C362 1.348 . S
C365 C367 1.353 . S
C365 H421 0.929 . S
C366 C362 1.356 . S
C366 C363 1.358 . S
C366 H422 0.930 . S
C367 N364 1.314 . S
C367 C365 1.353 . S
C367 H423 0.930 . S
C368 N369 1.314 . S
C368 C373 1.353 . S
C368 H374 0.930 . S
N369 Li352 1.990 . S
N369 C368 1.314 . S
N369 C371 1.279 . S
C370 C371 1.358 . S
C370 C372 1.356 . S
C370 H424 0.930 . S
C371 N369 1.279 . S
C371 C370 1.358 . S
C371 H375 0.930 . S
C372 C370 1.356 . S
C372 C373 1.348 . S
C373 C368 1.353 . S
C373 C372 1.348 . S
C373 H425 0.929 . S
H374 C368 0.930 . S
H375 C371 0.930 . S
C376 N377 1.314 . S
C376 C378 1.353 . S
C376 H382 0.930 . S
N377 Li353 1.990 . S
N377 C376 1.314 . S
N377 C380 1.279 . S
C378 C376 1.353 . S
C378 C381 1.348 . S
C378 H426 0.929 . S
C379 C380 1.358 . S
C379 C381 1.356 . S
C379 H427 0.930 . S
C380 N377 1.279 . S
C380 C379 1.358 . S
C380 H383 0.930 . S
C381 C378 1.348 . S
C381 C379 1.356 . S
H382 C376 0.930 . S
H383 C380 0.930 . S
C384 C386 1.348 . S
C384 C387 1.356 . S
C384 O414 1.325 . S
N385 C388 1.314 . S
N385 C389 1.279 . S
C386 C384 1.348 . S
C386 C388 1.353 . S
C386 H428 0.929 . S
C387 C384 1.356 . S
C387 C389 1.358 . S
C387 H429 0.930 . S
C388 N385 1.314 . S
C388 C386 1.353 . S
C388 H430 0.930 . S
C389 N385 1.279 . S
C389 C387 1.358 . S
C389 H431 0.930 . S
C390 C391 1.348 . S
C390 C392 1.356 . S
C390 O415 1.325 . S
C391 C390 1.348 . S
C391 C393 1.353 . S
C391 H432 0.929 . S
C392 C390 1.356 . S
C392 C394 1.358 . S
C392 H433 0.930 . S
C393 C391 1.353 . S
C393 N395 1.314 . S
C393 H434 0.930 . S
C394 C392 1.358 . S
C394 N395 1.279 . S
C394 H435 0.930 . S
N395 C393 1.314 . S
N395 C394 1.279 . S
C396 C398 1.353 . S
C396 N399 1.314 . S
C396 H402 0.930 . S
C397 N399 1.279 . S
C397 C400 1.358 . S
C397 H403 0.930 . S
C398 C396 1.353 . S
C398 C401 1.348 . S
C398 H436 0.929 . S
N399 Li354 1.990 . S
N399 C396 1.314 . S
N399 C397 1.279 . S
C400 C397 1.358 . S
C400 C401 1.356 . S
C400 H437 0.930 . S
C401 C398 1.348 . S
C401 C400 1.356 . S
H402 C396 0.930 . S
H403 C397 0.930 . S
C404 N405 1.314 . S
C404 C406 1.353 . S
C404 H410 0.930 . S
N405 Li355 1.990 . S
N405 C404 1.314 . S
N405 C408 1.279 . S
C406 C404 1.353 . S
C406 C409 1.348 . S
C406 H438 0.929 . S
C407 C408 1.358 . S
C407 C409 1.356 . S
C407 H439 0.930 . S
C408 N405 1.279 . S
C408 C407 1.358 . S
C408 H411 0.930 . S
C409 C406 1.348 . S
C409 C407 1.356 . S
H410 C404 0.930 . S
H411 C408 0.930 . S
O412 Li352 1.956 . S
O412 Li353 1.970 . S
O412 Li354 1.961 . S
O412 C356 1.325 . S
O413 Li352 1.970 . S
O413 Li353 1.956 . S
O413 Li355 1.961 . S
O413 C362 1.325 . S
O414 Li352 1.961 . S
O414 Li354 1.956 . S
O414 Li355 1.970 . S
O414 C384 1.325 . S
O415 Li353 1.961 . S
O415 Li354 1.970 . S
O415 Li355 1.956 . S
O415 C390 1.325 . S
H416 C358 0.929 . S
H417 C359 0.930 . S
H418 C360 0.930 . S
H419 C361 0.930 . S
H420 C363 0.930 . S
H421 C365 0.929 . S
H422 C366 0.930 . S
H423 C367 0.930 . S
H424 C370 0.930 . S
H425 C373 0.929 . S
H426 C378 0.929 . S
H427 C379 0.930 . S
H428 C386 0.929 . S
H429 C387 0.930 . S
H430 C388 0.930 . S
H431 C389 0.930 . S
H432 C391 0.929 . S
H433 C392 0.930 . S
H434 C393 0.930 . S
H435 C394 0.930 . S
H436 C398 0.929 . S
H437 C400 0.930 . S
H438 C406 0.929 . S
H439 C407 0.930 . S
Li440 N457 1.990 . S
Li440 O500 1.956 . S
Li440 O501 1.970 . S
Li440 O502 1.961 . S
Li441 N465 1.990 . S
Li441 O500 1.970 . S
Li441 O501 1.956 . S
Li441 O503 1.961 . S
Li442 N487 1.990 . S
Li442 O500 1.961 . S
Li442 O502 1.956 . S
Li442 O503 1.970 . S
Li443 N493 1.990 . S
Li443 O501 1.961 . S
Li443 O502 1.970 . S
Li443 O503 1.956 . S
C444 C446 1.348 . S
C444 C447 1.356 . S
C444 O500 1.325 . S
N445 C448 1.314 . S
N445 C449 1.279 . S
C446 C444 1.348 . S
C446 C448 1.353 . S
C446 H504 0.929 . S
C447 C444 1.356 . S
C447 C449 1.358 . S
C447 H505 0.930 . S
C448 N445 1.314 . S
C448 C446 1.353 . S
C448 H506 0.930 . S
C449 N445 1.279 . S
C449 C447 1.358 . S
C449 H507 0.930 . S
C450 C453 1.348 . S
C450 C454 1.356 . S
C450 O501 1.325 . S
C451 N452 1.279 . S
C451 C454 1.358 . S
C451 H508 0.930 . S
N452 C451 1.279 . S
N452 C455 1.314 . S
C453 C450 1.348 . S
C453 C455 1.353 . S
C453 H509 0.929 . S
C454 C450 1.356 . S
C454 C451 1.358 . S
C454 H510 0.930 . S
C455 N452 1.314 . S
C455 C453 1.353 . S
C455 H511 0.930 . S
C456 N457 1.314 . S
C456 C461 1.353 . S
C456 H462 0.930 . S
N457 Li440 1.990 . S
N457 C456 1.314 . S
N457 C459 1.279 . S
C458 C459 1.358 . S
C458 C460 1.356 . S
C458 H512 0.930 . S
C459 N457 1.279 . S
C459 C458 1.358 . S
C459 H463 0.930 . S
C460 C458 1.356 . S
C460 C461 1.348 . S
C461 C456 1.353 . S
C461 C460 1.348 . S
C461 H513 0.929 . S
H462 C456 0.930 . S
H463 C459 0.930 . S
C464 N465 1.314 . S
C464 C466 1.353 . S
C464 H470 0.930 . S
N465 Li441 1.990 . S
N465 C464 1.314 . S
N465 C468 1.279 . S
C466 C464 1.353 . S
C466 C469 1.348 . S
C466 H514 0.929 . S
C467 C468 1.358 . S
C467 C469 1.356 . S
C467 H515 0.930 . S
C468 N465 1.279 . S
C468 C467 1.358 . S
C468 H471 0.930 . S
C469 C466 1.348 . S
C469 C467 1.356 . S
H470 C464 0.930 . S
H471 C468 0.930 . S
C472 C474 1.348 . S
C472 C475 1.356 . S
C472 O502 1.325 . S
N473 C476 1.314 . S
N473 C477 1.279 . S
C474 C472 1.348 . S
C474 C476 1.353 . S
C474 H516 0.929 . S
C475 C472 1.356 . S
C475 C477 1.358 . S
C475 H517 0.930 . S
C476 N473 1.314 . S
C476 C474 1.353 . S
C476 H518 0.930 . S
C477 N473 1.279 . S
C477 C475 1.358 . S
C477 H519 0.930 . S
C478 C479 1.348 . S
C478 C480 1.356 . S
C478 O503 1.325 . S
C479 C478 1.348 . S
C479 C481 1.353 . S
C479 H520 0.929 . S
C480 C478 1.356 . S
C480 C482 1.358 . S
C480 H521 0.930 . S
C481 C479 1.353 . S
C481 N483 1.314 . S
C481 H522 0.930 . S
C482 C480 1.358 . S
C482 N483 1.279 . S
C482 H523 0.930 . S
N483 C481 1.314 . S
N483 C482 1.279 . S
C484 C486 1.353 . S
C484 N487 1.314 . S
C484 H490 0.930 . S
C485 N487 1.279 . S
C485 C488 1.358 . S
C485 H491 0.930 . S
C486 C484 1.353 . S
C486 C489 1.348 . S
C486 H524 0.929 . S
N487 Li442 1.990 . S
N487 C484 1.314 . S
N487 C485 1.279 . S
C488 C485 1.358 . S
C488 C489 1.356 . S
C488 H525 0.930 . S
C489 C486 1.348 . S
C489 C488 1.356 . S
H490 C484 0.930 . S
H491 C485 0.930 . S
C492 N493 1.314 . S
C492 C494 1.353 . S
C492 H498 0.930 . S
N493 Li443 1.990 . S
N493 C492 1.314 . S
N493 C496 1.279 . S
C494 C492 1.353 . S
C494 C497 1.348 . S
C494 H526 0.929 . S
C495 C496 1.358 . S
C495 C497 1.356 . S
C495 H527 0.930 . S
C496 N493 1.279 . S
C496 C495 1.358 . S
C496 H499 0.930 . S
C497 C494 1.348 . S
C497 C495 1.356 . S
H498 C492 0.930 . S
H499 C496 0.930 . S
O500 Li440 1.956 . S
O500 Li441 1.970 . S
O500 Li442 1.961 . S
O500 C444 1.325 . S
O501 Li440 1.970 . S
O501 Li441 1.956 . S
O501 Li443 1.961 . S
O501 C450 1.325 . S
O502 Li440 1.961 . S
O502 Li442 1.956 . S
O502 Li443 1.970 . S
O502 C472 1.325 . S
O503 Li441 1.961 . S
O503 Li442 1.970 . S
O503 Li443 1.956 . S
O503 C478 1.325 . S
H504 C446 0.929 . S
H505 C447 0.930 . S
H506 C448 0.930 . S
H507 C449 0.930 . S
H508 C451 0.930 . S
H509 C453 0.929 . S
H510 C454 0.930 . S
H511 C455 0.930 . S
H512 C458 0.930 . S
H513 C461 0.929 . S
H514 C466 0.929 . S
H515 C467 0.930 . S
H516 C474 0.929 . S
H517 C475 0.930 . S
H518 C476 0.930 . S
H519 C477 0.930 . S
H520 C479 0.929 . S
H521 C480 0.930 . S
H522 C481 0.930 . S
H523 C482 0.930 . S
H524 C486 0.929 . S
H525 C488 0.930 . S
H526 C494 0.929 . S
H527 C495 0.930 . S
Li528 N545 1.990 . S
Li528 O588 1.956 . S
Li528 O589 1.970 . S
Li528 O590 1.961 . S
Li529 N553 1.990 . S
Li529 O588 1.970 . S
Li529 O589 1.956 . S
Li529 O591 1.961 . S
Li530 N575 1.990 . S
Li530 O588 1.961 . S
Li530 O590 1.956 . S
Li530 O591 1.970 . S
Li531 N581 1.990 . S
Li531 O589 1.961 . S
Li531 O590 1.970 . S
Li531 O591 1.956 . S
C532 C534 1.348 . S
C532 C535 1.356 . S
C532 O588 1.325 . S
N533 C536 1.314 . S
N533 C537 1.279 . S
C534 C532 1.348 . S
C534 C536 1.353 . S
C534 H592 0.929 . S
C535 C532 1.356 . S
C535 C537 1.358 . S
C535 H593 0.930 . S
C536 N533 1.314 . S
C536 C534 1.353 . S
C536 H594 0.930 . S
C537 N533 1.279 . S
C537 C535 1.358 . S
C537 H595 0.930 . S
C538 C541 1.348 . S
C538 C542 1.356 . S
C538 O589 1.325 . S
C539 N540 1.279 . S
C539 C542 1.358 . S
C539 H596 0.930 . S
N540 C539 1.279 . S
N540 C543 1.314 . S
C541 C538 1.348 . S
C541 C543 1.353 . S
C541 H597 0.929 . S
C542 C538 1.356 . S
C542 C539 1.358 . S
C542 H598 0.930 . S
C543 N540 1.314 . S
C543 C541 1.353 . S
C543 H599 0.930 . S
C544 N545 1.314 . S
C544 C549 1.353 . S
C544 H550 0.930 . S
N545 Li528 1.990 . S
N545 C544 1.314 . S
N545 C547 1.279 . S
C546 C547 1.358 . S
C546 C548 1.356 . S
C546 H600 0.930 . S
C547 N545 1.279 . S
C547 C546 1.358 . S
C547 H551 0.930 . S
C548 C546 1.356 . S
C548 C549 1.348 . S
C549 C544 1.353 . S
C549 C548 1.348 . S
C549 H601 0.929 . S
H550 C544 0.930 . S
H551 C547 0.930 . S
C552 N553 1.314 . S
C552 C554 1.353 . S
C552 H558 0.930 . S
N553 Li529 1.990 . S
N553 C552 1.314 . S
N553 C556 1.279 . S
C554 C552 1.353 . S
C554 C557 1.348 . S
C554 H602 0.929 . S
C555 C556 1.358 . S
C555 C557 1.356 . S
C555 H603 0.930 . S
C556 N553 1.279 . S
C556 C555 1.358 . S
C556 H559 0.930 . S
C557 C554 1.348 . S
C557 C555 1.356 . S
H558 C552 0.930 . S
H559 C556 0.930 . S
C560 C562 1.348 . S
C560 C563 1.356 . S
C560 O590 1.325 . S
N561 C564 1.314 . S
N561 C565 1.279 . S
C562 C560 1.348 . S
C562 C564 1.353 . S
C562 H604 0.929 . S
C563 C560 1.356 . S
C563 C565 1.358 . S
C563 H605 0.930 . S
C564 N561 1.314 . S
C564 C562 1.353 . S
C564 H606 0.930 . S
C565 N561 1.279 . S
C565 C563 1.358 . S
C565 H607 0.930 . S
C566 C567 1.348 . S
C566 C568 1.356 . S
C566 O591 1.325 . S
C567 C566 1.348 . S
C567 C569 1.353 . S
C567 H608 0.929 . S
C568 C566 1.356 . S
C568 C570 1.358 . S
C568 H609 0.930 . S
C569 C567 1.353 . S
C569 N571 1.314 . S
C569 H610 0.930 . S
C570 C568 1.358 . S
C570 N571 1.279 . S
C570 H611 0.930 . S
N571 C569 1.314 . S
N571 C570 1.279 . S
C572 C574 1.353 . S
C572 N575 1.314 . S
C572 H578 0.930 . S
C573 N575 1.279 . S
C573 C576 1.358 . S
C573 H579 0.930 . S
C574 C572 1.353 . S
C574 C577 1.348 . S
C574 H612 0.929 . S
N575 Li530 1.990 . S
N575 C572 1.314 . S
N575 C573 1.279 . S
C576 C573 1.358 . S
C576 C577 1.356 . S
C576 H613 0.930 . S
C577 C574 1.348 . S
C577 C576 1.356 . S
H578 C572 0.930 . S
H579 C573 0.930 . S
C580 N581 1.314 . S
C580 C582 1.353 . S
C580 H586 0.930 . S
N581 Li531 1.990 . S
N581 C580 1.314 . S
N581 C584 1.279 . S
C582 C580 1.353 . S
C582 C585 1.348 . S
C582 H614 0.929 . S
C583 C584 1.358 . S
C583 C585 1.356 . S
C583 H615 0.930 . S
C584 N581 1.279 . S
C584 C583 1.358 . S
C584 H587 0.930 . S
C585 C582 1.348 . S
C585 C583 1.356 . S
H586 C580 0.930 . S
H587 C584 0.930 . S
O588 Li528 1.956 . S
O588 Li529 1.970 . S
O588 Li530 1.961 . S
O588 C532 1.325 . S
O589 Li528 1.970 . S
O589 Li529 1.956 . S
O589 Li531 1.961 . S
O589 C538 1.325 . S
O590 Li528 1.961 . S
O590 Li530 1.956 . S
O590 Li531 1.970 . S
O590 C560 1.325 . S
O591 Li529 1.961 . S
O591 Li530 1.970 . S
O591 Li531 1.956 . S
O591 C566 1.325 . S
H592 C534 0.929 . S
H593 C535 0.930 . S
H594 C536 0.930 . S
H595 C537 0.930 . S
H596 C539 0.930 . S
H597 C541 0.929 . S
H598 C542 0.930 . S
H599 C543 0.930 . S
H600 C546 0.930 . S
H601 C549 0.929 . S
H602 C554 0.929 . S
H603 C555 0.930 . S
H604 C562 0.929 . S
H605 C563 0.930 . S
H606 C564 0.930 . S
H607 C565 0.930 . S
H608 C567 0.929 . S
H609 C568 0.930 . S
H610 C569 0.930 . S
H611 C570 0.930 . S
H612 C574 0.929 . S
H613 C576 0.930 . S
H614 C582 0.929 . S
H615 C583 0.930 . S
Li616 N633 1.990 . S
Li616 O676 1.956 . S
Li616 O677 1.970 . S
Li616 O678 1.961 . S
Li617 N641 1.990 . S
Li617 O676 1.970 . S
Li617 O677 1.956 . S
Li617 O679 1.961 . S
Li618 N663 1.990 . S
Li618 O676 1.961 . S
Li618 O678 1.956 . S
Li618 O679 1.970 . S
Li619 N669 1.990 . S
Li619 O677 1.961 . S
Li619 O678 1.970 . S
Li619 O679 1.956 . S
C620 C622 1.348 . S
C620 C623 1.356 . S
C620 O676 1.325 . S
N621 C624 1.314 . S
N621 C625 1.279 . S
C622 C620 1.348 . S
C622 C624 1.353 . S
C622 H680 0.929 . S
C623 C620 1.356 . S
C623 C625 1.358 . S
C623 H681 0.930 . S
C624 N621 1.314 . S
C624 C622 1.353 . S
C624 H682 0.930 . S
C625 N621 1.279 . S
C625 C623 1.358 . S
C625 H683 0.930 . S
C626 C629 1.348 . S
C626 C630 1.356 . S
C626 O677 1.325 . S
C627 N628 1.279 . S
C627 C630 1.358 . S
C627 H684 0.930 . S
N628 C627 1.279 . S
N628 C631 1.314 . S
C629 C626 1.348 . S
C629 C631 1.353 . S
C629 H685 0.929 . S
C630 C626 1.356 . S
C630 C627 1.358 . S
C630 H686 0.930 . S
C631 N628 1.314 . S
C631 C629 1.353 . S
C631 H687 0.930 . S
C632 N633 1.314 . S
C632 C637 1.353 . S
C632 H638 0.930 . S
N633 Li616 1.990 . S
N633 C632 1.314 . S
N633 C635 1.279 . S
C634 C635 1.358 . S
C634 C636 1.356 . S
C634 H688 0.930 . S
C635 N633 1.279 . S
C635 C634 1.358 . S
C635 H639 0.930 . S
C636 C634 1.356 . S
C636 C637 1.348 . S
C637 C632 1.353 . S
C637 C636 1.348 . S
C637 H689 0.929 . S
H638 C632 0.930 . S
H639 C635 0.930 . S
C640 N641 1.314 . S
C640 C642 1.353 . S
C640 H646 0.930 . S
N641 Li617 1.990 . S
N641 C640 1.314 . S
N641 C644 1.279 . S
C642 C640 1.353 . S
C642 C645 1.348 . S
C642 H690 0.929 . S
C643 C644 1.358 . S
C643 C645 1.356 . S
C643 H691 0.930 . S
C644 N641 1.279 . S
C644 C643 1.358 . S
C644 H647 0.930 . S
C645 C642 1.348 . S
C645 C643 1.356 . S
H646 C640 0.930 . S
H647 C644 0.930 . S
C648 C650 1.348 . S
C648 C651 1.356 . S
C648 O678 1.325 . S
N649 C652 1.314 . S
N649 C653 1.279 . S
C650 C648 1.348 . S
C650 C652 1.353 . S
C650 H692 0.929 . S
C651 C648 1.356 . S
C651 C653 1.358 . S
C651 H693 0.930 . S
C652 N649 1.314 . S
C652 C650 1.353 . S
C652 H694 0.930 . S
C653 N649 1.279 . S
C653 C651 1.358 . S
C653 H695 0.930 . S
C654 C655 1.348 . S
C654 C656 1.356 . S
C654 O679 1.325 . S
C655 C654 1.348 . S
C655 C657 1.353 . S
C655 H696 0.929 . S
C656 C654 1.356 . S
C656 C658 1.358 . S
C656 H697 0.930 . S
C657 C655 1.353 . S
C657 N659 1.314 . S
C657 H698 0.930 . S
C658 C656 1.358 . S
C658 N659 1.279 . S
C658 H699 0.930 . S
N659 C657 1.314 . S
N659 C658 1.279 . S
C660 C662 1.353 . S
C660 N663 1.314 . S
C660 H666 0.930 . S
C661 N663 1.279 . S
C661 C664 1.358 . S
C661 H667 0.930 . S
C662 C660 1.353 . S
C662 C665 1.348 . S
C662 H700 0.929 . S
N663 Li618 1.990 . S
N663 C660 1.314 . S
N663 C661 1.279 . S
C664 C661 1.358 . S
C664 C665 1.356 . S
C664 H701 0.930 . S
C665 C662 1.348 . S
C665 C664 1.356 . S
H666 C660 0.930 . S
H667 C661 0.930 . S
C668 N669 1.314 . S
C668 C670 1.353 . S
C668 H674 0.930 . S
N669 Li619 1.990 . S
N669 C668 1.314 . S
N669 C672 1.279 . S
C670 C668 1.353 . S
C670 C673 1.348 . S
C670 H702 0.929 . S
C671 C672 1.358 . S
C671 C673 1.356 . S
C671 H703 0.930 . S
C672 N669 1.279 . S
C672 C671 1.358 . S
C672 H675 0.930 . S
C673 C670 1.348 . S
C673 C671 1.356 . S
H674 C668 0.930 . S
H675 C672 0.930 . S
O676 Li616 1.956 . S
O676 Li617 1.970 . S
O676 Li618 1.961 . S
O676 C620 1.325 . S
O677 Li616 1.970 . S
O677 Li617 1.956 . S
O677 Li619 1.961 . S
O677 C626 1.325 . S
O678 Li616 1.961 . S
O678 Li618 1.956 . S
O678 Li619 1.970 . S
O678 C648 1.325 . S
O679 Li617 1.961 . S
O679 Li618 1.970 . S
O679 Li619 1.956 . S
O679 C654 1.325 . S
H680 C622 0.929 . S
H681 C623 0.930 . S
H682 C624 0.930 . S
H683 C625 0.930 . S
H684 C627 0.930 . S
H685 C629 0.929 . S
H686 C630 0.930 . S
H687 C631 0.930 . S
H688 C634 0.930 . S
H689 C637 0.929 . S
H690 C642 0.929 . S
H691 C643 0.930 . S
H692 C650 0.929 . S
H693 C651 0.930 . S
H694 C652 0.930 . S
H695 C653 0.930 . S
H696 C655 0.929 . S
H697 C656 0.930 . S
H698 C657 0.930 . S
H699 C658 0.930 . S
H700 C662 0.929 . S
H701 C664 0.930 . S
H702 C670 0.929 . S
H703 C671 0.930 . S
Li704 N721 1.990 . S
Li704 O764 1.956 . S
Li704 O765 1.970 . S
Li704 O766 1.961 . S
Li705 N729 1.990 . S
Li705 O764 1.970 . S
Li705 O765 1.956 . S
Li705 O767 1.961 . S
Li706 N751 1.990 . S
Li706 O764 1.961 . S
Li706 O766 1.956 . S
Li706 O767 1.970 . S
Li707 N757 1.990 . S
Li707 O765 1.961 . S
Li707 O766 1.970 . S
Li707 O767 1.956 . S
C708 C710 1.348 . S
C708 C711 1.356 . S
C708 O764 1.325 . S
N709 C712 1.314 . S
N709 C713 1.279 . S
C710 C708 1.348 . S
C710 C712 1.353 . S
C710 H768 0.929 . S
C711 C708 1.356 . S
C711 C713 1.358 . S
C711 H769 0.930 . S
C712 N709 1.314 . S
C712 C710 1.353 . S
C712 H770 0.930 . S
C713 N709 1.279 . S
C713 C711 1.358 . S
C713 H771 0.930 . S
C714 C717 1.348 . S
C714 C718 1.369 . S
C714 O765 1.325 . S
C715 N716 1.279 . S
C715 C718 1.342 1_565 S
C715 H772 0.930 . S
N716 C715 1.279 . S
N716 C719 1.314 . S
C717 C714 1.348 . S
C717 C719 1.353 1_545 S
C717 H773 0.929 . S
C718 C714 1.369 . S
C718 C715 1.342 1_545 S
C718 H774 0.934 . S
C719 N716 1.314 . S
C719 C717 1.353 1_565 S
C719 H775 0.930 . S
C720 N721 1.314 . S
C720 C725 1.353 . S
C720 H726 0.930 . S
N721 Li704 1.990 . S
N721 C720 1.314 . S
N721 C723 1.279 . S
C722 C723 1.358 . S
C722 C724 1.356 . S
C722 H776 0.930 . S
C723 N721 1.279 . S
C723 C722 1.358 . S
C723 H727 0.930 . S
C724 C722 1.356 . S
C724 C725 1.348 . S
C725 C720 1.353 . S
C725 C724 1.348 . S
C725 H777 0.929 . S
H726 C720 0.930 . S
H727 C723 0.930 . S
C728 N729 1.314 . S
C728 C730 1.353 . S
C728 H734 0.930 . S
N729 Li705 1.990 . S
N729 C728 1.314 . S
N729 C732 1.279 . S
C730 C728 1.353 . S
C730 C733 1.348 . S
C730 H778 0.929 . S
C731 C732 1.358 . S
C731 C733 1.356 . S
C731 H779 0.930 . S
C732 N729 1.279 . S
C732 C731 1.358 . S
C732 H735 0.930 . S
C733 C730 1.348 . S
C733 C731 1.356 . S
H734 C728 0.930 . S
H735 C732 0.930 . S
C736 C738 1.348 . S
C736 C739 1.356 . S
C736 O766 1.325 . S
N737 C740 1.314 . S
N737 C741 1.279 . S
C738 C736 1.348 . S
C738 C740 1.353 . S
C738 H780 0.929 . S
C739 C736 1.356 . S
C739 C741 1.358 . S
C739 H781 0.930 . S
C740 N737 1.314 . S
C740 C738 1.353 . S
C740 H782 0.930 . S
C741 N737 1.279 . S
C741 C739 1.358 . S
C741 H783 0.930 . S
C742 C743 1.348 . S
C742 C744 1.356 . S
C742 O767 1.325 . S
C743 C742 1.348 . S
C743 C745 1.353 . S
C743 H784 0.929 . S
C744 C742 1.356 . S
C744 C746 1.358 . S
C744 H785 0.930 . S
C745 C743 1.353 . S
C745 N747 1.314 . S
C745 H786 0.930 . S
C746 C744 1.358 . S
C746 N747 1.279 . S
C746 H787 0.930 . S
N747 C745 1.314 . S
N747 C746 1.279 . S
C748 C750 1.353 . S
C748 N751 1.314 . S
C748 H754 0.930 . S
C749 N751 1.279 . S
C749 C752 1.358 . S
C749 H755 0.930 . S
C750 C748 1.353 . S
C750 C753 1.348 . S
C750 H788 0.929 . S
N751 Li706 1.990 . S
N751 C748 1.314 . S
N751 C749 1.279 . S
C752 C749 1.358 . S
C752 C753 1.356 . S
C752 H789 0.930 . S
C753 C750 1.348 . S
C753 C752 1.356 . S
H754 C748 0.930 . S
H755 C749 0.930 . S
C756 N757 1.314 1_565 S
C756 C758 1.353 . S
C756 H762 0.930 . S
N757 Li707 1.990 . S
N757 C756 1.314 1_545 S
N757 C760 1.279 . S
C758 C756 1.353 . S
C758 C761 1.348 . S
C758 H790 0.929 . S
C759 C760 1.358 1_565 S
C759 C761 1.356 . S
C759 H791 0.930 . S
C760 N757 1.279 . S
C760 C759 1.358 1_545 S
C760 H763 0.930 . S
C761 C758 1.348 . S
C761 C759 1.356 . S
H762 C756 0.930 . S
H763 C760 0.930 . S
O764 Li704 1.956 . S
O764 Li705 1.970 . S
O764 Li706 1.961 . S
O764 C708 1.325 . S
O765 Li704 1.970 . S
O765 Li705 1.956 . S
O765 Li707 1.961 . S
O765 C714 1.325 . S
O766 Li704 1.961 . S
O766 Li706 1.956 . S
O766 Li707 1.970 . S
O766 C736 1.325 . S
O767 Li705 1.961 . S
O767 Li706 1.970 . S
O767 Li707 1.956 . S
O767 C742 1.325 . S
H768 C710 0.929 . S
H769 C711 0.930 . S
H770 C712 0.930 . S
H771 C713 0.930 . S
H772 C715 0.930 . S
H773 C717 0.929 . S
H774 C718 0.934 . S
H775 C719 0.930 . S
H776 C722 0.930 . S
H777 C725 0.929 . S
H778 C730 0.929 . S
H779 C731 0.930 . S
H780 C738 0.929 . S
H781 C739 0.930 . S
H782 C740 0.930 . S
H783 C741 0.930 . S
H784 C743 0.929 . S
H785 C744 0.930 . S
H786 C745 0.930 . S
H787 C746 0.930 . S
H788 C750 0.929 . S
H789 C752 0.930 . S
H790 C758 0.929 . S
H791 C759 0.930 . S
Li792 N809 1.990 . S
Li792 O852 1.956 . S
Li792 O853 1.970 . S
Li792 O854 1.961 . S
Li793 N817 1.990 . S
Li793 O852 1.970 . S
Li793 O853 1.956 . S
Li793 O855 1.961 . S
Li794 N839 1.990 . S
Li794 O852 1.961 . S
Li794 O854 1.956 . S
Li794 O855 1.970 . S
Li795 N845 1.990 . S
Li795 O853 1.961 . S
Li795 O854 1.970 . S
Li795 O855 1.956 . S
C796 C798 1.348 . S
C796 C799 1.356 . S
C796 O852 1.325 . S
N797 C800 1.314 . S
N797 C801 1.279 . S
C798 C796 1.348 . S
C798 C800 1.353 . S
C798 H856 0.929 . S
C799 C796 1.356 . S
C799 C801 1.358 . S
C799 H857 0.930 . S
C800 N797 1.314 . S
C800 C798 1.353 . S
C800 H858 0.930 . S
C801 N797 1.279 . S
C801 C799 1.358 . S
C801 H859 0.930 . S
C802 C805 1.348 . S
C802 C806 1.356 . S
C802 O853 1.325 . S
C803 N804 1.279 . S
C803 C806 1.358 . S
C803 H860 0.930 . S
N804 C803 1.279 . S
N804 C807 1.314 . S
C805 C802 1.348 . S
C805 C807 1.353 . S
C805 H861 0.929 . S
C806 C802 1.356 . S
C806 C803 1.358 . S
C806 H862 0.930 . S
C807 N804 1.314 . S
C807 C805 1.353 . S
C807 H863 0.930 . S
C808 N809 1.314 . S
C808 C813 1.353 . S
C808 H814 0.930 . S
N809 Li792 1.990 . S
N809 C808 1.314 . S
N809 C811 1.279 . S
C810 C811 1.358 . S
C810 C812 1.356 . S
C810 H864 0.930 . S
C811 N809 1.279 . S
C811 C810 1.358 . S
C811 H815 0.930 . S
C812 C810 1.356 . S
C812 C813 1.348 . S
C813 C808 1.353 . S
C813 C812 1.348 . S
C813 H865 0.929 . S
H814 C808 0.930 . S
H815 C811 0.930 . S
C816 N817 1.314 1_565 S
C816 C818 1.353 . S
C816 H822 0.930 . S
N817 Li793 1.990 . S
N817 C816 1.314 1_545 S
N817 C820 1.279 . S
C818 C816 1.353 . S
C818 C821 1.348 . S
C818 H866 0.929 . S
C819 C820 1.358 1_565 S
C819 C821 1.356 . S
C819 H867 0.930 . S
C820 N817 1.279 . S
C820 C819 1.358 1_545 S
C820 H823 0.930 . S
C821 C818 1.348 . S
C821 C819 1.356 . S
H822 C816 0.930 . S
H823 C820 0.930 . S
C824 C826 1.348 . S
C824 C827 1.356 . S
C824 O854 1.325 . S
N825 C828 1.314 . S
N825 C829 1.279 . S
C826 C824 1.348 . S
C826 C828 1.353 . S
C826 H868 0.929 . S
C827 C824 1.356 . S
C827 C829 1.358 . S
C827 H869 0.930 . S
C828 N825 1.314 . S
C828 C826 1.353 . S
C828 H870 0.930 . S
C829 N825 1.279 . S
C829 C827 1.358 . S
C829 H871 0.930 . S
C830 C831 1.348 . S
C830 C832 1.369 . S
C830 O855 1.325 . S
C831 C830 1.348 . S
C831 C833 1.353 1_545 S
C831 H872 0.929 . S
C832 C830 1.369 . S
C832 C834 1.342 1_545 S
C832 H873 0.934 . S
C833 C831 1.353 1_565 S
C833 N835 1.314 . S
C833 H874 0.930 . S
C834 C832 1.342 1_565 S
C834 N835 1.279 . S
C834 H875 0.930 . S
N835 C833 1.314 . S
N835 C834 1.279 . S
C836 C838 1.353 . S
C836 N839 1.314 . S
C836 H842 0.930 . S
C837 N839 1.279 . S
C837 C840 1.358 . S
C837 H843 0.930 . S
C838 C836 1.353 . S
C838 C841 1.348 . S
C838 H876 0.929 . S
N839 Li794 1.990 . S
N839 C836 1.314 . S
N839 C837 1.279 . S
C840 C837 1.358 . S
C840 C841 1.356 . S
C840 H877 0.930 . S
C841 C838 1.348 . S
C841 C840 1.356 . S
H842 C836 0.930 . S
H843 C837 0.930 . S
C844 N845 1.314 . S
C844 C846 1.353 . S
C844 H850 0.930 . S
N845 Li795 1.990 . S
N845 C844 1.314 . S
N845 C848 1.279 . S
C846 C844 1.353 . S
C846 C849 1.348 . S
C846 H878 0.929 . S
C847 C848 1.358 . S
C847 C849 1.356 . S
C847 H879 0.930 . S
C848 N845 1.279 . S
C848 C847 1.358 . S
C848 H851 0.930 . S
C849 C846 1.348 . S
C849 C847 1.356 . S
H850 C844 0.930 . S
H851 C848 0.930 . S
O852 Li792 1.956 . S
O852 Li793 1.970 . S
O852 Li794 1.961 . S
O852 C796 1.325 . S
O853 Li792 1.970 . S
O853 Li793 1.956 . S
O853 Li795 1.961 . S
O853 C802 1.325 . S
O854 Li792 1.961 . S
O854 Li794 1.956 . S
O854 Li795 1.970 . S
O854 C824 1.325 . S
O855 Li793 1.961 . S
O855 Li794 1.970 . S
O855 Li795 1.956 . S
O855 C830 1.325 . S
H856 C798 0.929 . S
H857 C799 0.930 . S
H858 C800 0.930 . S
H859 C801 0.930 . S
H860 C803 0.930 . S
H861 C805 0.929 . S
H862 C806 0.930 . S
H863 C807 0.930 . S
H864 C810 0.930 . S
H865 C813 0.929 . S
H866 C818 0.929 . S
H867 C819 0.930 . S
H868 C826 0.929 . S
H869 C827 0.930 . S
H870 C828 0.930 . S
H871 C829 0.930 . S
H872 C831 0.929 . S
H873 C832 0.934 . S
H874 C833 0.930 . S
H875 C834 0.930 . S
H876 C838 0.929 . S
H877 C840 0.930 . S
H878 C846 0.929 . S
H879 C847 0.930 . S
Li880 N897 1.990 . S
Li880 O940 1.956 . S
Li880 O941 1.970 . S
Li880 O942 1.961 . S
Li881 N905 1.990 . S
Li881 O940 1.970 . S
Li881 O941 1.956 . S
Li881 O943 1.961 . S
Li882 N927 1.990 . S
Li882 O940 1.961 . S
Li882 O942 1.956 . S
Li882 O943 1.970 . S
Li883 N933 1.990 . S
Li883 O941 1.961 . S
Li883 O942 1.970 . S
Li883 O943 1.956 . S
C884 C886 1.348 . S
C884 C887 1.356 . S
C884 O940 1.325 . S
N885 C888 1.314 . S
N885 C889 1.279 . S
C886 C884 1.348 . S
C886 C888 1.353 . S
C886 H944 0.929 . S
C887 C884 1.356 . S
C887 C889 1.358 . S
C887 H945 0.930 . S
C888 N885 1.314 . S
C888 C886 1.353 . S
C888 H946 0.930 . S
C889 N885 1.279 . S
C889 C887 1.358 . S
C889 H947 0.930 . S
C890 C893 1.348 . S
C890 C894 1.356 . S
C890 O941 1.325 . S
C891 N892 1.279 . S
C891 C894 1.358 . S
C891 H948 0.930 . S
N892 C891 1.279 . S
N892 C895 1.314 . S
C893 C890 1.348 . S
C893 C895 1.353 . S
C893 H949 0.929 . S
C894 C890 1.356 . S
C894 C891 1.358 . S
C894 H950 0.930 . S
C895 N892 1.314 . S
C895 C893 1.353 . S
C895 H951 0.930 . S
C896 N897 1.314 . S
C896 C901 1.353 . S
C896 H902 0.930 . S
N897 Li880 1.990 . S
N897 C896 1.314 . S
N897 C899 1.279 . S
C898 C899 1.358 . S
C898 C900 1.356 . S
C898 H952 0.930 . S
C899 N897 1.279 . S
C899 C898 1.358 . S
C899 H903 0.930 . S
C900 C898 1.356 . S
C900 C901 1.348 . S
C901 C896 1.353 . S
C901 C900 1.348 . S
C901 H953 0.929 . S
H902 C896 0.930 . S
H903 C899 0.930 . S
C904 N905 1.314 . S
C904 C906 1.353 . S
C904 H910 0.930 . S
N905 Li881 1.990 . S
N905 C904 1.314 . S
N905 C908 1.279 . S
C906 C904 1.353 . S
C906 C909 1.348 . S
C906 H954 0.929 . S
C907 C908 1.358 . S
C907 C909 1.356 . S
C907 H955 0.930 . S
C908 N905 1.279 . S
C908 C907 1.358 . S
C908 H911 0.930 . S
C909 C906 1.348 . S
C909 C907 1.356 . S
H910 C904 0.930 . S
H911 C908 0.930 . S
C912 C914 1.348 . S
C912 C915 1.356 . S
C912 O942 1.325 . S
N913 C916 1.314 . S
N913 C917 1.279 . S
C914 C912 1.348 . S
C914 C916 1.353 1_565 S
C914 H956 0.929 . S
C915 C912 1.356 . S
C915 C917 1.358 1_565 S
C915 H957 0.930 . S
C916 N913 1.314 . S
C916 C914 1.353 1_545 S
C916 H958 0.930 . S
C917 N913 1.279 . S
C917 C915 1.358 1_545 S
C917 H959 0.930 . S
C918 C919 1.348 . S
C918 C920 1.356 . S
C918 O943 1.325 . S
C919 C918 1.348 . S
C919 C921 1.353 . S
C919 H960 0.929 . S
C920 C918 1.356 . S
C920 C922 1.358 . S
C920 H961 0.930 . S
C921 C919 1.353 . S
C921 N923 1.314 . S
C921 H962 0.930 . S
C922 C920 1.358 . S
C922 N923 1.279 . S
C922 H963 0.930 . S
N923 C921 1.314 . S
N923 C922 1.279 . S
C924 C926 1.353 1_565 S
C924 N927 1.314 . S
C924 H930 0.930 . S
C925 N927 1.279 1_545 S
C925 C928 1.358 . S
C925 H931 0.930 . S
C926 C924 1.353 1_545 S
C926 C929 1.348 . S
C926 H964 0.929 . S
N927 Li882 1.990 . S
N927 C924 1.314 . S
N927 C925 1.279 1_565 S
C928 C925 1.358 . S
C928 C929 1.356 . S
C928 H965 0.930 . S
C929 C926 1.348 . S
C929 C928 1.356 . S
H930 C924 0.930 . S
H931 C925 0.930 . S
C932 N933 1.314 . S
C932 C934 1.353 . S
C932 H938 0.930 . S
N933 Li883 1.990 . S
N933 C932 1.314 . S
N933 C936 1.279 . S
C934 C932 1.353 . S
C934 C937 1.348 . S
C934 H966 0.929 . S
C935 C936 1.358 . S
C935 C937 1.356 . S
C935 H967 0.930 . S
C936 N933 1.279 . S
C936 C935 1.358 . S
C936 H939 0.930 . S
C937 C934 1.348 . S
C937 C935 1.356 . S
H938 C932 0.930 . S
H939 C936 0.930 . S
O940 Li880 1.956 . S
O940 Li881 1.970 . S
O940 Li882 1.961 . S
O940 C884 1.325 . S
O941 Li880 1.970 . S
O941 Li881 1.956 . S
O941 Li883 1.961 . S
O941 C890 1.325 . S
O942 Li880 1.961 . S
O942 Li882 1.956 . S
O942 Li883 1.970 . S
O942 C912 1.325 . S
O943 Li881 1.961 . S
O943 Li882 1.970 . S
O943 Li883 1.956 . S
O943 C918 1.325 . S
H944 C886 0.929 . S
H945 C887 0.930 . S
H946 C888 0.930 . S
H947 C889 0.930 . S
H948 C891 0.930 . S
H949 C893 0.929 . S
H950 C894 0.930 . S
H951 C895 0.930 . S
H952 C898 0.930 . S
H953 C901 0.929 . S
H954 C906 0.929 . S
H955 C907 0.930 . S
H956 C914 0.929 . S
H957 C915 0.930 . S
H958 C916 0.930 . S
H959 C917 0.930 . S
H960 C919 0.929 . S
H961 C920 0.930 . S
H962 C921 0.930 . S
H963 C922 0.930 . S
H964 C926 0.929 . S
H965 C928 0.930 . S
H966 C934 0.929 . S
H967 C935 0.930 . S
Li968 N985 1.990 . S
Li968 O1028 1.956 . S
Li968 O1029 1.970 . S
Li968 O1030 1.961 . S
Li969 N993 1.990 . S
Li969 O1028 1.970 . S
Li969 O1029 1.956 . S
Li969 O1031 1.961 . S
Li970 N1015 1.990 . S
Li970 O1028 1.961 . S
Li970 O1030 1.956 . S
Li970 O1031 1.970 . S
Li971 N1021 1.990 . S
Li971 O1029 1.961 . S
Li971 O1030 1.970 . S
Li971 O1031 1.956 . S
C972 C974 1.348 . S
C972 C975 1.356 . S
C972 O1028 1.325 . S
N973 C976 1.314 . S
N973 C977 1.279 . S
C974 C972 1.348 . S
C974 C976 1.353 1_565 S
C974 H1032 0.929 . S
C975 C972 1.356 . S
C975 C977 1.358 1_565 S
C975 H1033 0.930 . S
C976 N973 1.314 . S
C976 C974 1.353 1_545 S
C976 H1034 0.930 . S
C977 N973 1.279 . S
C977 C975 1.358 1_545 S
C977 H1035 0.930 . S
C978 C981 1.348 . S
C978 C982 1.356 . S
C978 O1029 1.325 . S
C979 N980 1.279 . S
C979 C982 1.358 . S
C979 H1036 0.930 . S
N980 C979 1.279 . S
N980 C983 1.314 . S
C981 C978 1.348 . S
C981 C983 1.353 . S
C981 H1037 0.929 . S
C982 C978 1.356 . S
C982 C979 1.358 . S
C982 H1038 0.930 . S
C983 N980 1.314 . S
C983 C981 1.353 . S
C983 H1039 0.930 . S
C984 N985 1.314 . S
C984 C989 1.353 1_565 S
C984 H990 0.930 . S
N985 Li968 1.990 . S
N985 C984 1.314 . S
N985 C987 1.279 1_565 S
C986 C987 1.358 . S
C986 C988 1.356 . S
C986 H1040 0.930 . S
C987 N985 1.279 1_545 S
C987 C986 1.358 . S
C987 H991 0.930 . S
C988 C986 1.356 . S
C988 C989 1.348 . S
C989 C984 1.353 1_545 S
C989 C988 1.348 . S
C989 H1041 0.929 . S
H990 C984 0.930 . S
H991 C987 0.930 . S
C992 N993 1.314 . S
C992 C994 1.353 . S
C992 H998 0.930 . S
N993 Li969 1.990 . S
N993 C992 1.314 . S
N993 C996 1.279 . S
C994 C992 1.353 . S
C994 C997 1.348 . S
C994 H1042 0.929 . S
C995 C996 1.358 . S
C995 C997 1.356 . S
C995 H1043 0.930 . S
C996 N993 1.279 . S
C996 C995 1.358 . S
C996 H999 0.930 . S
C997 C994 1.348 . S
C997 C995 1.356 . S
H998 C992 0.930 . S
H999 C996 0.930 . S
C1000 C1002 1.348 . S
C1000 C1003 1.356 . S
C1000 O1030 1.325 . S
N1001 C1004 1.314 . S
N1001 C1005 1.279 . S
C1002 C1000 1.348 . S
C1002 C1004 1.353 . S
C1002 H1044 0.929 . S
C1003 C1000 1.356 . S
C1003 C1005 1.358 . S
C1003 H1045 0.930 . S
C1004 N1001 1.314 . S
C1004 C1002 1.353 . S
C1004 H1046 0.930 . S
C1005 N1001 1.279 . S
C1005 C1003 1.358 . S
C1005 H1047 0.930 . S
C1006 C1007 1.348 . S
C1006 C1008 1.356 . S
C1006 O1031 1.325 . S
C1007 C1006 1.348 . S
C1007 C1009 1.353 . S
C1007 H1048 0.929 . S
C1008 C1006 1.356 . S
C1008 C1010 1.358 . S
C1008 H1049 0.930 . S
C1009 C1007 1.353 . S
C1009 N1011 1.314 . S
C1009 H1050 0.930 . S
C1010 C1008 1.358 . S
C1010 N1011 1.279 . S
C1010 H1051 0.930 . S
N1011 C1009 1.314 . S
N1011 C1010 1.279 . S
C1012 C1014 1.353 . S
C1012 N1015 1.314 . S
C1012 H1018 0.930 . S
C1013 N1015 1.279 . S
C1013 C1016 1.358 . S
C1013 H1019 0.930 . S
C1014 C1012 1.353 . S
C1014 C1017 1.348 . S
C1014 H1052 0.929 . S
N1015 Li970 1.990 . S
N1015 C1012 1.314 . S
N1015 C1013 1.279 . S
C1016 C1013 1.358 . S
C1016 C1017 1.356 . S
C1016 H1053 0.930 . S
C1017 C1014 1.348 . S
C1017 C1016 1.356 . S
H1018 C1012 0.930 . S
H1019 C1013 0.930 . S
C1020 N1021 1.314 . S
C1020 C1022 1.353 . S
C1020 H1026 0.930 . S
N1021 Li971 1.990 . S
N1021 C1020 1.314 . S
N1021 C1024 1.279 . S
C1022 C1020 1.353 . S
C1022 C1025 1.348 . S
C1022 H1054 0.929 . S
C1023 C1024 1.358 . S
C1023 C1025 1.356 . S
C1023 H1055 0.930 . S
C1024 N1021 1.279 . S
C1024 C1023 1.358 . S
C1024 H1027 0.930 . S
C1025 C1022 1.348 . S
C1025 C1023 1.356 . S
H1026 C1020 0.930 . S
H1027 C1024 0.930 . S
O1028 Li968 1.956 . S
O1028 Li969 1.970 . S
O1028 Li970 1.961 . S
O1028 C972 1.325 . S
O1029 Li968 1.970 . S
O1029 Li969 1.956 . S
O1029 Li971 1.961 . S
O1029 C978 1.325 . S
O1030 Li968 1.961 . S
O1030 Li970 1.956 . S
O1030 Li971 1.970 . S
O1030 C1000 1.325 . S
O1031 Li969 1.961 . S
O1031 Li970 1.970 . S
O1031 Li971 1.956 . S
O1031 C1006 1.325 . S
H1032 C974 0.929 . S
H1033 C975 0.930 . S
H1034 C976 0.930 . S
H1035 C977 0.930 . S
H1036 C979 0.930 . S
H1037 C981 0.929 . S
H1038 C982 0.930 . S
H1039 C983 0.930 . S
H1040 C986 0.930 . S
H1041 C989 0.929 . S
H1042 C994 0.929 . S
H1043 C995 0.930 . S
H1044 C1002 0.929 . S
H1045 C1003 0.930 . S
H1046 C1004 0.930 . S
H1047 C1005 0.930 . S
H1048 C1007 0.929 . S
H1049 C1008 0.930 . S
H1050 C1009 0.930 . S
H1051 C1010 0.930 . S
H1052 C1014 0.929 . S
H1053 C1016 0.930 . S
H1054 C1022 0.929 . S
H1055 C1023 0.930 . S
Li1056 N1073 1.990 . S
Li1056 O1116 1.956 . S
Li1056 O1117 1.970 . S
Li1056 O1118 1.961 . S
Li1057 N1081 1.990 . S
Li1057 O1116 1.970 . S
Li1057 O1117 1.956 . S
Li1057 O1119 1.961 . S
Li1058 N1103 1.990 . S
Li1058 O1116 1.961 . S
Li1058 O1118 1.956 . S
Li1058 O1119 1.970 . S
Li1059 N1109 1.990 . S
Li1059 O1117 1.961 . S
Li1059 O1118 1.970 . S
Li1059 O1119 1.956 . S
C1060 C1062 1.348 . S
C1060 C1063 1.356 . S
C1060 O1116 1.325 . S
N1061 C1064 1.314 . S
N1061 C1065 1.279 . S
C1062 C1060 1.348 . S
C1062 C1064 1.353 . S
C1062 H1120 0.929 . S
C1063 C1060 1.356 . S
C1063 C1065 1.358 . S
C1063 H1121 0.930 . S
C1064 N1061 1.314 . S
C1064 C1062 1.353 . S
C1064 H1122 0.930 . S
C1065 N1061 1.279 . S
C1065 C1063 1.358 . S
C1065 H1123 0.930 . S
C1066 C1069 1.348 . S
C1066 C1070 1.356 . S
C1066 O1117 1.325 . S
C1067 N1068 1.279 . S
C1067 C1070 1.358 . S
C1067 H1124 0.930 . S
N1068 C1067 1.279 . S
N1068 C1071 1.314 . S
C1069 C1066 1.348 . S
C1069 C1071 1.353 . S
C1069 H1125 0.929 . S
C1070 C1066 1.356 . S
C1070 C1067 1.358 . S
C1070 H1126 0.930 . S
C1071 N1068 1.314 . S
C1071 C1069 1.353 . S
C1071 H1127 0.930 . S
C1072 N1073 1.314 . S
C1072 C1077 1.353 . S
C1072 H1078 0.930 . S
N1073 Li1056 1.990 . S
N1073 C1072 1.314 . S
N1073 C1075 1.279 . S
C1074 C1075 1.358 . S
C1074 C1076 1.356 . S
C1074 H1128 0.930 . S
C1075 N1073 1.279 . S
C1075 C1074 1.358 . S
C1075 H1079 0.930 . S
C1076 C1074 1.356 . S
C1076 C1077 1.348 . S
C1077 C1072 1.353 . S
C1077 C1076 1.348 . S
C1077 H1129 0.929 . S
H1078 C1072 0.930 . S
H1079 C1075 0.930 . S
C1080 N1081 1.314 . S
C1080 C1082 1.353 . S
C1080 H1086 0.930 . S
N1081 Li1057 1.990 . S
N1081 C1080 1.314 . S
N1081 C1084 1.279 . S
C1082 C1080 1.353 . S
C1082 C1085 1.348 . S
C1082 H1130 0.929 . S
C1083 C1084 1.358 . S
C1083 C1085 1.356 . S
C1083 H1131 0.930 . S
C1084 N1081 1.279 . S
C1084 C1083 1.358 . S
C1084 H1087 0.930 . S
C1085 C1082 1.348 . S
C1085 C1083 1.356 . S
H1086 C1080 0.930 . S
H1087 C1084 0.930 . S
C1088 C1090 1.348 . S
C1088 C1091 1.356 . S
C1088 O1118 1.325 . S
N1089 C1092 1.314 . S
N1089 C1093 1.279 . S
C1090 C1088 1.348 . S
C1090 C1092 1.353 . S
C1090 H1132 0.929 . S
C1091 C1088 1.356 . S
C1091 C1093 1.358 . S
C1091 H1133 0.930 . S
C1092 N1089 1.314 . S
C1092 C1090 1.353 . S
C1092 H1134 0.930 . S
C1093 N1089 1.279 . S
C1093 C1091 1.358 . S
C1093 H1135 0.930 . S
C1094 C1095 1.348 . S
C1094 C1096 1.356 . S
C1094 O1119 1.325 . S
C1095 C1094 1.348 . S
C1095 C1097 1.353 . S
C1095 H1136 0.929 . S
C1096 C1094 1.356 . S
C1096 C1098 1.358 . S
C1096 H1137 0.930 . S
C1097 C1095 1.353 . S
C1097 N1099 1.314 . S
C1097 H1138 0.930 . S
C1098 C1096 1.358 . S
C1098 N1099 1.279 . S
C1098 H1139 0.930 . S
N1099 C1097 1.314 . S
N1099 C1098 1.279 . S
C1100 C1102 1.353 . S
C1100 N1103 1.314 . S
C1100 H1106 0.930 . S
C1101 N1103 1.279 . S
C1101 C1104 1.358 . S
C1101 H1107 0.930 . S
C1102 C1100 1.353 . S
C1102 C1105 1.348 . S
C1102 H1140 0.929 . S
N1103 Li1058 1.990 . S
N1103 C1100 1.314 . S
N1103 C1101 1.279 . S
C1104 C1101 1.358 . S
C1104 C1105 1.356 . S
C1104 H1141 0.930 . S
C1105 C1102 1.348 . S
C1105 C1104 1.356 . S
H1106 C1100 0.930 . S
H1107 C1101 0.930 . S
C1108 N1109 1.314 . S
C1108 C1110 1.353 . S
C1108 H1114 0.930 . S
N1109 Li1059 1.990 . S
N1109 C1108 1.314 . S
N1109 C1112 1.279 . S
C1110 C1108 1.353 . S
C1110 C1113 1.348 . S
C1110 H1142 0.929 . S
C1111 C1112 1.358 . S
C1111 C1113 1.356 . S
C1111 H1143 0.930 . S
C1112 N1109 1.279 . S
C1112 C1111 1.358 . S
C1112 H1115 0.930 . S
C1113 C1110 1.348 . S
C1113 C1111 1.356 . S
H1114 C1108 0.930 . S
H1115 C1112 0.930 . S
O1116 Li1056 1.956 . S
O1116 Li1057 1.970 . S
O1116 Li1058 1.961 . S
O1116 C1060 1.325 . S
O1117 Li1056 1.970 . S
O1117 Li1057 1.956 . S
O1117 Li1059 1.961 . S
O1117 C1066 1.325 . S
O1118 Li1056 1.961 . S
O1118 Li1058 1.956 . S
O1118 Li1059 1.970 . S
O1118 C1088 1.325 . S
O1119 Li1057 1.961 . S
O1119 Li1058 1.970 . S
O1119 Li1059 1.956 . S
O1119 C1094 1.325 . S
H1120 C1062 0.929 . S
H1121 C1063 0.930 . S
H1122 C1064 0.930 . S
H1123 C1065 0.930 . S
H1124 C1067 0.930 . S
H1125 C1069 0.929 . S
H1126 C1070 0.930 . S
H1127 C1071 0.930 . S
H1128 C1074 0.930 . S
H1129 C1077 0.929 . S
H1130 C1082 0.929 . S
H1131 C1083 0.930 . S
H1132 C1090 0.929 . S
H1133 C1091 0.930 . S
H1134 C1092 0.930 . S
H1135 C1093 0.930 . S
H1136 C1095 0.929 . S
H1137 C1096 0.930 . S
H1138 C1097 0.930 . S
H1139 C1098 0.930 . S
H1140 C1102 0.929 . S
H1141 C1104 0.930 . S
H1142 C1110 0.929 . S
H1143 C1111 0.930 . S
Li1144 N1161 1.990 . S
Li1144 O1204 1.956 . S
Li1144 O1205 1.970 . S
Li1144 O1206 1.961 . S
Li1145 N1169 1.990 . S
Li1145 O1204 1.970 . S
Li1145 O1205 1.956 . S
Li1145 O1207 1.961 . S
Li1146 N1191 1.990 . S
Li1146 O1204 1.961 . S
Li1146 O1206 1.956 . S
Li1146 O1207 1.970 . S
Li1147 N1197 1.990 . S
Li1147 O1205 1.961 . S
Li1147 O1206 1.970 . S
Li1147 O1207 1.956 . S
C1148 C1150 1.348 . S
C1148 C1151 1.356 . S
C1148 O1204 1.325 . S
N1149 C1152 1.314 . S
N1149 C1153 1.279 . S
C1150 C1148 1.348 . S
C1150 C1152 1.353 . S
C1150 H1208 0.929 . S
C1151 C1148 1.356 . S
C1151 C1153 1.358 . S
C1151 H1209 0.930 . S
C1152 N1149 1.314 . S
C1152 C1150 1.353 . S
C1152 H1210 0.930 . S
C1153 N1149 1.279 . S
C1153 C1151 1.358 . S
C1153 H1211 0.930 . S
C1154 C1157 1.348 . S
C1154 C1158 1.356 . S
C1154 O1205 1.325 . S
C1155 N1156 1.279 . S
C1155 C1158 1.358 . S
C1155 H1212 0.930 . S
N1156 C1155 1.279 . S
N1156 C1159 1.314 . S
C1157 C1154 1.348 . S
C1157 C1159 1.353 . S
C1157 H1213 0.929 . S
C1158 C1154 1.356 . S
C1158 C1155 1.358 . S
C1158 H1214 0.930 . S
C1159 N1156 1.314 . S
C1159 C1157 1.353 . S
C1159 H1215 0.930 . S
C1160 N1161 1.314 . S
C1160 C1165 1.353 . S
C1160 H1166 0.930 . S
N1161 Li1144 1.990 . S
N1161 C1160 1.314 . S
N1161 C1163 1.279 . S
C1162 C1163 1.358 . S
C1162 C1164 1.356 . S
C1162 H1216 0.930 . S
C1163 N1161 1.279 . S
C1163 C1162 1.358 . S
C1163 H1167 0.930 . S
C1164 C1162 1.356 . S
C1164 C1165 1.348 . S
C1165 C1160 1.353 . S
C1165 C1164 1.348 . S
C1165 H1217 0.929 . S
H1166 C1160 0.930 . S
H1167 C1163 0.930 . S
C1168 N1169 1.314 . S
C1168 C1170 1.353 . S
C1168 H1174 0.930 . S
N1169 Li1145 1.990 . S
N1169 C1168 1.314 . S
N1169 C1172 1.279 . S
C1170 C1168 1.353 . S
C1170 C1173 1.348 . S
C1170 H1218 0.929 . S
C1171 C1172 1.358 . S
C1171 C1173 1.356 . S
C1171 H1219 0.930 . S
C1172 N1169 1.279 . S
C1172 C1171 1.358 . S
C1172 H1175 0.930 . S
C1173 C1170 1.348 . S
C1173 C1171 1.356 . S
H1174 C1168 0.930 . S
H1175 C1172 0.930 . S
C1176 C1178 1.348 . S
C1176 C1179 1.356 . S
C1176 O1206 1.325 . S
N1177 C1180 1.314 . S
N1177 C1181 1.279 . S
C1178 C1176 1.348 . S
C1178 C1180 1.353 . S
C1178 H1220 0.929 . S
C1179 C1176 1.356 . S
C1179 C1181 1.358 . S
C1179 H1221 0.930 . S
C1180 N1177 1.314 . S
C1180 C1178 1.353 . S
C1180 H1222 0.930 . S
C1181 N1177 1.279 . S
C1181 C1179 1.358 . S
C1181 H1223 0.930 . S
C1182 C1183 1.348 . S
C1182 C1184 1.356 . S
C1182 O1207 1.325 . S
C1183 C1182 1.348 . S
C1183 C1185 1.353 . S
C1183 H1224 0.929 . S
C1184 C1182 1.356 . S
C1184 C1186 1.358 . S
C1184 H1225 0.930 . S
C1185 C1183 1.353 . S
C1185 N1187 1.314 . S
C1185 H1226 0.930 . S
C1186 C1184 1.358 . S
C1186 N1187 1.279 . S
C1186 H1227 0.930 . S
N1187 C1185 1.314 . S
N1187 C1186 1.279 . S
C1188 C1190 1.353 . S
C1188 N1191 1.314 . S
C1188 H1194 0.930 . S
C1189 N1191 1.279 . S
C1189 C1192 1.358 . S
C1189 H1195 0.930 . S
C1190 C1188 1.353 . S
C1190 C1193 1.348 . S
C1190 H1228 0.929 . S
N1191 Li1146 1.990 . S
N1191 C1188 1.314 . S
N1191 C1189 1.279 . S
C1192 C1189 1.358 . S
C1192 C1193 1.356 . S
C1192 H1229 0.930 . S
C1193 C1190 1.348 . S
C1193 C1192 1.356 . S
H1194 C1188 0.930 . S
H1195 C1189 0.930 . S
C1196 N1197 1.314 . S
C1196 C1198 1.353 . S
C1196 H1202 0.930 . S
N1197 Li1147 1.990 . S
N1197 C1196 1.314 . S
N1197 C1200 1.279 . S
C1198 C1196 1.353 . S
C1198 C1201 1.348 . S
C1198 H1230 0.929 . S
C1199 C1200 1.358 . S
C1199 C1201 1.356 . S
C1199 H1231 0.930 . S
C1200 N1197 1.279 . S
C1200 C1199 1.358 . S
C1200 H1203 0.930 . S
C1201 C1198 1.348 . S
C1201 C1199 1.356 . S
H1202 C1196 0.930 . S
H1203 C1200 0.930 . S
O1204 Li1144 1.956 . S
O1204 Li1145 1.970 . S
O1204 Li1146 1.961 . S
O1204 C1148 1.325 . S
O1205 Li1144 1.970 . S
O1205 Li1145 1.956 . S
O1205 Li1147 1.961 . S
O1205 C1154 1.325 . S
O1206 Li1144 1.961 . S
O1206 Li1146 1.956 . S
O1206 Li1147 1.970 . S
O1206 C1176 1.325 . S
O1207 Li1145 1.961 . S
O1207 Li1146 1.970 . S
O1207 Li1147 1.956 . S
O1207 C1182 1.325 . S
H1208 C1150 0.929 . S
H1209 C1151 0.930 . S
H1210 C1152 0.930 . S
H1211 C1153 0.930 . S
H1212 C1155 0.930 . S
H1213 C1157 0.929 . S
H1214 C1158 0.930 . S
H1215 C1159 0.930 . S
H1216 C1162 0.930 . S
H1217 C1165 0.929 . S
H1218 C1170 0.929 . S
H1219 C1171 0.930 . S
H1220 C1178 0.929 . S
H1221 C1179 0.930 . S
H1222 C1180 0.930 . S
H1223 C1181 0.930 . S
H1224 C1183 0.929 . S
H1225 C1184 0.930 . S
H1226 C1185 0.930 . S
H1227 C1186 0.930 . S
H1228 C1190 0.929 . S
H1229 C1192 0.930 . S
H1230 C1198 0.929 . S
H1231 C1199 0.930 . S
Li1232 N1249 1.990 . S
Li1232 O1292 1.956 . S
Li1232 O1293 1.970 . S
Li1232 O1294 1.961 . S
Li1233 N1257 1.990 . S
Li1233 O1292 1.970 . S
Li1233 O1293 1.956 . S
Li1233 O1295 1.961 . S
Li1234 N1279 1.990 . S
Li1234 O1292 1.961 . S
Li1234 O1294 1.956 . S
Li1234 O1295 1.970 . S
Li1235 N1285 1.990 . S
Li1235 O1293 1.961 . S
Li1235 O1294 1.970 . S
Li1235 O1295 1.956 . S
C1236 C1238 1.348 . S
C1236 C1239 1.356 . S
C1236 O1292 1.325 . S
N1237 C1240 1.314 . S
N1237 C1241 1.279 . S
C1238 C1236 1.348 . S
C1238 C1240 1.353 . S
C1238 H1296 0.929 . S
C1239 C1236 1.356 . S
C1239 C1241 1.358 . S
C1239 H1297 0.930 . S
C1240 N1237 1.314 . S
C1240 C1238 1.353 . S
C1240 H1298 0.930 . S
C1241 N1237 1.279 . S
C1241 C1239 1.358 . S
C1241 H1299 0.930 . S
C1242 C1245 1.348 . S
C1242 C1246 1.356 . S
C1242 O1293 1.325 . S
C1243 N1244 1.279 . S
C1243 C1246 1.358 . S
C1243 H1300 0.930 . S
N1244 C1243 1.279 . S
N1244 C1247 1.314 . S
C1245 C1242 1.348 . S
C1245 C1247 1.353 . S
C1245 H1301 0.929 . S
C1246 C1242 1.356 . S
C1246 C1243 1.358 . S
C1246 H1302 0.930 . S
C1247 N1244 1.314 . S
C1247 C1245 1.353 . S
C1247 H1303 0.930 . S
C1248 N1249 1.314 . S
C1248 C1253 1.353 . S
C1248 H1254 0.930 . S
N1249 Li1232 1.990 . S
N1249 C1248 1.314 . S
N1249 C1251 1.279 . S
C1250 C1251 1.358 . S
C1250 C1252 1.356 . S
C1250 H1304 0.930 . S
C1251 N1249 1.279 . S
C1251 C1250 1.358 . S
C1251 H1255 0.930 . S
C1252 C1250 1.356 . S
C1252 C1253 1.348 . S
C1253 C1248 1.353 . S
C1253 C1252 1.348 . S
C1253 H1305 0.929 . S
H1254 C1248 0.930 . S
H1255 C1251 0.930 . S
C1256 N1257 1.314 . S
C1256 C1258 1.353 . S
C1256 H1262 0.930 . S
N1257 Li1233 1.990 . S
N1257 C1256 1.314 . S
N1257 C1260 1.279 . S
C1258 C1256 1.353 . S
C1258 C1261 1.348 . S
C1258 H1306 0.929 . S
C1259 C1260 1.358 . S
C1259 C1261 1.356 . S
C1259 H1307 0.930 . S
C1260 N1257 1.279 . S
C1260 C1259 1.358 . S
C1260 H1263 0.930 . S
C1261 C1258 1.348 . S
C1261 C1259 1.356 . S
H1262 C1256 0.930 . S
H1263 C1260 0.930 . S
C1264 C1266 1.348 . S
C1264 C1267 1.356 . S
C1264 O1294 1.325 . S
N1265 C1268 1.314 . S
N1265 C1269 1.279 . S
C1266 C1264 1.348 . S
C1266 C1268 1.353 . S
C1266 H1308 0.929 . S
C1267 C1264 1.356 . S
C1267 C1269 1.358 . S
C1267 H1309 0.930 . S
C1268 N1265 1.314 . S
C1268 C1266 1.353 . S
C1268 H1310 0.930 . S
C1269 N1265 1.279 . S
C1269 C1267 1.358 . S
C1269 H1311 0.930 . S
C1270 C1271 1.348 . S
C1270 C1272 1.356 . S
C1270 O1295 1.325 . S
C1271 C1270 1.348 . S
C1271 C1273 1.353 . S
C1271 H1312 0.929 . S
C1272 C1270 1.356 . S
C1272 C1274 1.358 . S
C1272 H1313 0.930 . S
C1273 C1271 1.353 . S
C1273 N1275 1.314 . S
C1273 H1314 0.930 . S
C1274 C1272 1.358 . S
C1274 N1275 1.279 . S
C1274 H1315 0.930 . S
N1275 C1273 1.314 . S
N1275 C1274 1.279 . S
C1276 C1278 1.353 . S
C1276 N1279 1.314 . S
C1276 H1282 0.930 . S
C1277 N1279 1.279 . S
C1277 C1280 1.358 . S
C1277 H1283 0.930 . S
C1278 C1276 1.353 . S
C1278 C1281 1.348 . S
C1278 H1316 0.929 . S
N1279 Li1234 1.990 . S
N1279 C1276 1.314 . S
N1279 C1277 1.279 . S
C1280 C1277 1.358 . S
C1280 C1281 1.356 . S
C1280 H1317 0.930 . S
C1281 C1278 1.348 . S
C1281 C1280 1.356 . S
H1282 C1276 0.930 . S
H1283 C1277 0.930 . S
C1284 N1285 1.314 . S
C1284 C1286 1.353 . S
C1284 H1290 0.930 . S
N1285 Li1235 1.990 . S
N1285 C1284 1.314 . S
N1285 C1288 1.279 . S
C1286 C1284 1.353 . S
C1286 C1289 1.348 . S
C1286 H1318 0.929 . S
C1287 C1288 1.358 . S
C1287 C1289 1.356 . S
C1287 H1319 0.930 . S
C1288 N1285 1.279 . S
C1288 C1287 1.358 . S
C1288 H1291 0.930 . S
C1289 C1286 1.348 . S
C1289 C1287 1.356 . S
H1290 C1284 0.930 . S
H1291 C1288 0.930 . S
O1292 Li1232 1.956 . S
O1292 Li1233 1.970 . S
O1292 Li1234 1.961 . S
O1292 C1236 1.325 . S
O1293 Li1232 1.970 . S
O1293 Li1233 1.956 . S
O1293 Li1235 1.961 . S
O1293 C1242 1.325 . S
O1294 Li1232 1.961 . S
O1294 Li1234 1.956 . S
O1294 Li1235 1.970 . S
O1294 C1264 1.325 . S
O1295 Li1233 1.961 . S
O1295 Li1234 1.970 . S
O1295 Li1235 1.956 . S
O1295 C1270 1.325 . S
H1296 C1238 0.929 . S
H1297 C1239 0.930 . S
H1298 C1240 0.930 . S
H1299 C1241 0.930 . S
H1300 C1243 0.930 . S
H1301 C1245 0.929 . S
H1302 C1246 0.930 . S
H1303 C1247 0.930 . S
H1304 C1250 0.930 . S
H1305 C1253 0.929 . S
H1306 C1258 0.929 . S
H1307 C1259 0.930 . S
H1308 C1266 0.929 . S
H1309 C1267 0.930 . S
H1310 C1268 0.930 . S
H1311 C1269 0.930 . S
H1312 C1271 0.929 . S
H1313 C1272 0.930 . S
H1314 C1273 0.930 . S
H1315 C1274 0.930 . S
H1316 C1278 0.929 . S
H1317 C1280 0.930 . S
H1318 C1286 0.929 . S
H1319 C1287 0.930 . S
Li1320 N1337 1.990 . S
Li1320 O1380 1.956 . S
Li1320 O1381 1.970 . S
Li1320 O1382 1.961 . S
Li1321 N1345 1.990 . S
Li1321 O1380 1.970 . S
Li1321 O1381 1.956 . S
Li1321 O1383 1.961 . S
Li1322 N1367 1.990 . S
Li1322 O1380 1.961 . S
Li1322 O1382 1.956 . S
Li1322 O1383 1.970 . S
Li1323 N1373 1.990 . S
Li1323 O1381 1.961 . S
Li1323 O1382 1.970 . S
Li1323 O1383 1.956 . S
C1324 C1326 1.348 . S
C1324 C1327 1.356 . S
C1324 O1380 1.325 . S
N1325 C1328 1.314 . S
N1325 C1329 1.279 . S
C1326 C1324 1.348 . S
C1326 C1328 1.353 . S
C1326 H1384 0.929 . S
C1327 C1324 1.356 . S
C1327 C1329 1.358 . S
C1327 H1385 0.930 . S
C1328 N1325 1.314 . S
C1328 C1326 1.353 . S
C1328 H1386 0.930 . S
C1329 N1325 1.279 . S
C1329 C1327 1.358 . S
C1329 H1387 0.930 . S
C1330 C1333 1.348 . S
C1330 C1334 1.356 . S
C1330 O1381 1.325 . S
C1331 N1332 1.279 . S
C1331 C1334 1.358 . S
C1331 H1388 0.930 . S
N1332 C1331 1.279 . S
N1332 C1335 1.314 . S
C1333 C1330 1.348 . S
C1333 C1335 1.353 . S
C1333 H1389 0.929 . S
C1334 C1330 1.356 . S
C1334 C1331 1.358 . S
C1334 H1390 0.930 . S
C1335 N1332 1.314 . S
C1335 C1333 1.353 . S
C1335 H1391 0.930 . S
C1336 N1337 1.314 . S
C1336 C1341 1.353 . S
C1336 H1342 0.930 . S
N1337 Li1320 1.990 . S
N1337 C1336 1.314 . S
N1337 C1339 1.279 . S
C1338 C1339 1.358 . S
C1338 C1340 1.356 . S
C1338 H1392 0.930 . S
C1339 N1337 1.279 . S
C1339 C1338 1.358 . S
C1339 H1343 0.930 . S
C1340 C1338 1.356 . S
C1340 C1341 1.348 . S
C1341 C1336 1.353 . S
C1341 C1340 1.348 . S
C1341 H1393 0.929 . S
H1342 C1336 0.930 . S
H1343 C1339 0.930 . S
C1344 N1345 1.314 . S
C1344 C1346 1.353 . S
C1344 H1350 0.930 . S
N1345 Li1321 1.990 . S
N1345 C1344 1.314 . S
N1345 C1348 1.279 . S
C1346 C1344 1.353 . S
C1346 C1349 1.348 . S
C1346 H1394 0.929 . S
C1347 C1348 1.358 . S
C1347 C1349 1.356 . S
C1347 H1395 0.930 . S
C1348 N1345 1.279 . S
C1348 C1347 1.358 . S
C1348 H1351 0.930 . S
C1349 C1346 1.348 . S
C1349 C1347 1.356 . S
H1350 C1344 0.930 . S
H1351 C1348 0.930 . S
C1352 C1354 1.348 . S
C1352 C1355 1.356 . S
C1352 O1382 1.325 . S
N1353 C1356 1.314 . S
N1353 C1357 1.279 . S
C1354 C1352 1.348 . S
C1354 C1356 1.353 . S
C1354 H1396 0.929 . S
C1355 C1352 1.356 . S
C1355 C1357 1.358 . S
C1355 H1397 0.930 . S
C1356 N1353 1.314 . S
C1356 C1354 1.353 . S
C1356 H1398 0.930 . S
C1357 N1353 1.279 . S
C1357 C1355 1.358 . S
C1357 H1399 0.930 . S
C1358 C1359 1.348 . S
C1358 C1360 1.356 . S
C1358 O1383 1.325 . S
C1359 C1358 1.348 . S
C1359 C1361 1.353 . S
C1359 H1400 0.929 . S
C1360 C1358 1.356 . S
C1360 C1362 1.358 . S
C1360 H1401 0.930 . S
C1361 C1359 1.353 . S
C1361 N1363 1.314 . S
C1361 H1402 0.930 . S
C1362 C1360 1.358 . S
C1362 N1363 1.279 . S
C1362 H1403 0.930 . S
N1363 C1361 1.314 . S
N1363 C1362 1.279 . S
C1364 C1366 1.353 . S
C1364 N1367 1.314 . S
C1364 H1370 0.930 . S
C1365 N1367 1.279 . S
C1365 C1368 1.358 . S
C1365 H1371 0.930 . S
C1366 C1364 1.353 . S
C1366 C1369 1.348 . S
C1366 H1404 0.929 . S
N1367 Li1322 1.990 . S
N1367 C1364 1.314 . S
N1367 C1365 1.279 . S
C1368 C1365 1.358 . S
C1368 C1369 1.356 . S
C1368 H1405 0.930 . S
C1369 C1366 1.348 . S
C1369 C1368 1.356 . S
H1370 C1364 0.930 . S
H1371 C1365 0.930 . S
C1372 N1373 1.314 . S
C1372 C1374 1.353 . S
C1372 H1378 0.930 . S
N1373 Li1323 1.990 . S
N1373 C1372 1.314 . S
N1373 C1376 1.279 . S
C1374 C1372 1.353 . S
C1374 C1377 1.348 . S
C1374 H1406 0.929 . S
C1375 C1376 1.358 . S
C1375 C1377 1.356 . S
C1375 H1407 0.930 . S
C1376 N1373 1.279 . S
C1376 C1375 1.358 . S
C1376 H1379 0.930 . S
C1377 C1374 1.348 . S
C1377 C1375 1.356 . S
H1378 C1372 0.930 . S
H1379 C1376 0.930 . S
O1380 Li1320 1.956 . S
O1380 Li1321 1.970 . S
O1380 Li1322 1.961 . S
O1380 C1324 1.325 . S
O1381 Li1320 1.970 . S
O1381 Li1321 1.956 . S
O1381 Li1323 1.961 . S
O1381 C1330 1.325 . S
O1382 Li1320 1.961 . S
O1382 Li1322 1.956 . S
O1382 Li1323 1.970 . S
O1382 C1352 1.325 . S
O1383 Li1321 1.961 . S
O1383 Li1322 1.970 . S
O1383 Li1323 1.956 . S
O1383 C1358 1.325 . S
H1384 C1326 0.929 . S
H1385 C1327 0.930 . S
H1386 C1328 0.930 . S
H1387 C1329 0.930 . S
H1388 C1331 0.930 . S
H1389 C1333 0.929 . S
H1390 C1334 0.930 . S
H1391 C1335 0.930 . S
H1392 C1338 0.930 . S
H1393 C1341 0.929 . S
H1394 C1346 0.929 . S
H1395 C1347 0.930 . S
H1396 C1354 0.929 . S
H1397 C1355 0.930 . S
H1398 C1356 0.930 . S
H1399 C1357 0.930 . S
H1400 C1359 0.929 . S
H1401 C1360 0.930 . S
H1402 C1361 0.930 . S
H1403 C1362 0.930 . S
H1404 C1366 0.929 . S
H1405 C1368 0.930 . S
H1406 C1374 0.929 . S
H1407 C1375 0.930 . S
C1408 C1409 1.369 . S
C1408 C1410 1.419 . S
C1408 H1412 0.930 . S
C1409 C1408 1.369 . S
C1409 C1418 1.429 . S
C1410 C1408 1.419 . S
C1410 C1411 1.363 . S
C1410 H1413 0.929 . S
C1411 C1410 1.363 . S
C1411 C1417 1.428 . S
H1412 C1408 0.930 . S
H1413 C1410 0.929 . S
S1414 N1415 1.613 . S
S1414 N1416 1.610 . S
N1415 S1414 1.613 . S
N1415 C1418 1.350 . S
N1416 S1414 1.610 . S
N1416 C1417 1.351 . S
C1417 C1411 1.428 . S
C1417 N1416 1.351 . S
C1417 C1418 1.434 . S
C1418 C1409 1.429 . S
C1418 N1415 1.350 . S
C1418 C1417 1.434 . S
C1419 C1420 1.369 1_455 S
C1419 C1421 1.419 . S
C1419 H1423 0.930 . S
C1420 C1419 1.369 1_655 S
C1420 C1429 1.429 1_565 S
C1421 C1419 1.419 . S
C1421 C1422 1.363 1_565 S
C1421 H1424 0.929 . S
C1422 C1421 1.363 1_545 S
C1422 C1428 1.428 1_455 S
H1423 C1419 0.930 . S
H1424 C1421 0.929 . S
S1425 N1426 1.613 . S
S1425 N1427 1.610 . S
N1426 S1425 1.613 . S
N1426 C1429 1.350 . S
N1427 S1425 1.610 . S
N1427 C1428 1.351 . S
C1428 C1422 1.428 1_655 S
C1428 N1427 1.351 . S
C1428 C1429 1.434 . S
C1429 C1420 1.429 1_545 S
C1429 N1426 1.350 . S
C1429 C1428 1.434 . S
C1430 C1431 1.369 1_545 S
C1430 C1432 1.419 . S
C1430 H1434 0.930 . S
C1431 C1430 1.369 1_565 S
C1431 C1440 1.429 . S
C1432 C1430 1.419 . S
C1432 C1433 1.363 . S
C1432 H1435 0.929 . S
C1433 C1432 1.363 . S
C1433 C1439 1.428 1_545 S
H1434 C1430 0.930 . S
H1435 C1432 0.929 . S
S1436 N1437 1.613 . S
S1436 N1438 1.610 . S
N1437 S1436 1.613 . S
N1437 C1440 1.350 . S
N1438 S1436 1.610 . S
N1438 C1439 1.351 . S
C1439 C1433 1.428 1_565 S
C1439 N1438 1.351 . S
C1439 C1440 1.434 . S
C1440 C1431 1.429 . S
C1440 N1437 1.350 . S
C1440 C1439 1.434 . S
C1441 C1442 1.369 . S
C1441 C1443 1.419 . S
C1441 H1445 0.930 . S
C1442 C1441 1.369 . S
C1442 C1451 1.429 1_455 S
C1443 C1441 1.419 . S
C1443 C1444 1.363 1_455 S
C1443 H1446 0.929 . S
C1444 C1443 1.363 1_655 S
C1444 C1450 1.428 . S
H1445 C1441 0.930 . S
H1446 C1443 0.929 . S
S1447 N1448 1.613 . S
S1447 N1449 1.610 . S
N1448 S1447 1.613 . S
N1448 C1451 1.350 . S
N1449 S1447 1.610 . S
N1449 C1450 1.351 . S
C1450 C1444 1.428 . S
C1450 N1449 1.351 . S
C1450 C1451 1.434 . S
C1451 C1442 1.429 1_655 S
C1451 N1448 1.350 . S
C1451 C1450 1.434 . S
C1452 C1453 1.369 . S
C1452 C1454 1.419 . S
C1452 H1456 0.930 . S
C1453 C1452 1.369 . S
C1453 C1462 1.429 . S
C1454 C1452 1.419 . S
C1454 C1455 1.363 . S
C1454 H1457 0.929 . S
C1455 C1454 1.363 . S
C1455 C1461 1.428 . S
H1456 C1452 0.930 . S
H1457 C1454 0.929 . S
S1458 N1459 1.613 . S
S1458 N1460 1.610 . S
N1459 S1458 1.613 . S
N1459 C1462 1.350 . S
N1460 S1458 1.610 . S
N1460 C1461 1.351 . S
C1461 C1455 1.428 . S
C1461 N1460 1.351 . S
C1461 C1462 1.434 . S
C1462 C1453 1.429 . S
C1462 N1459 1.350 . S
C1462 C1461 1.434 . S
C1463 C1464 1.369 1_565 S
C1463 C1465 1.419 . S
C1463 H1467 0.930 . S
C1464 C1463 1.369 1_545 S
C1464 C1473 1.429 . S
C1465 C1463 1.419 . S
C1465 C1466 1.363 . S
C1465 H1468 0.929 . S
C1466 C1465 1.363 . S
C1466 C1472 1.428 1_565 S
H1467 C1463 0.930 . S
H1468 C1465 0.929 . S
S1469 N1470 1.613 . S
S1469 N1471 1.610 . S
N1470 S1469 1.613 . S
N1470 C1473 1.350 . S
N1471 S1469 1.610 . S
N1471 C1472 1.351 . S
C1472 C1466 1.428 1_545 S
C1472 N1471 1.351 . S
C1472 C1473 1.434 . S
C1473 C1464 1.429 . S
C1473 N1470 1.350 . S
C1473 C1472 1.434 . S
C1474 C1475 1.369 . S
C1474 C1476 1.419 . S
C1474 H1478 0.930 . S
C1475 C1474 1.369 . S
C1475 C1484 1.429 1_655 S
C1476 C1474 1.419 . S
C1476 C1477 1.363 1_655 S
C1476 H1479 0.929 . S
C1477 C1476 1.363 1_455 S
C1477 C1483 1.428 . S
H1478 C1474 0.930 . S
H1479 C1476 0.929 . S
S1480 N1481 1.613 . S
S1480 N1482 1.610 . S
N1481 S1480 1.613 . S
N1481 C1484 1.350 . S
N1482 S1480 1.610 . S
N1482 C1483 1.351 . S
C1483 C1477 1.428 . S
C1483 N1482 1.351 . S
C1483 C1484 1.434 . S
C1484 C1475 1.429 1_455 S
C1484 N1481 1.350 . S
C1484 C1483 1.434 . S
C1485 C1486 1.369 1_556 S
C1485 C1487 1.419 . S
C1485 H1489 0.930 . S
C1486 C1485 1.369 1_554 S
C1486 C1495 1.429 . S
C1487 C1485 1.419 . S
C1487 C1488 1.363 . S
C1487 H1490 0.929 . S
C1488 C1487 1.363 . S
C1488 C1494 1.428 1_556 S
H1489 C1485 0.930 . S
H1490 C1487 0.929 . S
S1491 N1492 1.613 . S
S1491 N1493 1.610 . S
N1492 S1491 1.613 . S
N1492 C1495 1.350 . S
N1493 S1491 1.610 . S
N1493 C1494 1.351 . S
C1494 C1488 1.428 1_554 S
C1494 N1493 1.351 . S
C1494 C1495 1.434 . S
C1495 C1486 1.429 . S
C1495 N1492 1.350 . S
C1495 C1494 1.434 . S
C1496 C1497 1.347 1_655 S
C1496 C1498 1.438 . S
C1496 H1500 0.934 . S
C1497 C1496 1.347 1_455 S
C1497 C1506 1.429 1_556 S
C1498 C1496 1.438 . S
C1498 C1499 1.363 1_556 S
C1498 H1501 0.929 . S
C1499 C1498 1.363 1_554 S
C1499 C1505 1.428 1_655 S
H1500 C1496 0.934 . S
H1501 C1498 0.929 . S
S1502 N1503 1.613 . S
S1502 N1504 1.610 . S
N1503 S1502 1.613 . S
N1503 C1506 1.350 . S
N1504 S1502 1.610 . S
N1504 C1505 1.351 . S
C1505 C1499 1.428 1_455 S
C1505 N1504 1.351 . S
C1505 C1506 1.434 . S
C1506 C1497 1.429 1_554 S
C1506 N1503 1.350 . S
C1506 C1505 1.434 . S
C1507 C1508 1.369 . S
C1507 C1509 1.419 . S
C1507 H1511 0.930 . S
C1508 C1507 1.369 . S
C1508 C1517 1.429 . S
C1509 C1507 1.419 . S
C1509 C1510 1.363 . S
C1509 H1512 0.929 . S
C1510 C1509 1.363 . S
C1510 C1516 1.428 . S
H1511 C1507 0.930 . S
H1512 C1509 0.929 . S
S1513 N1514 1.613 . S
S1513 N1515 1.610 . S
N1514 S1513 1.613 . S
N1514 C1517 1.350 . S
N1515 S1513 1.610 . S
N1515 C1516 1.351 . S
C1516 C1510 1.428 . S
C1516 N1515 1.351 . S
C1516 C1517 1.434 . S
C1517 C1508 1.429 . S
C1517 N1514 1.350 . S
C1517 C1516 1.434 . S
C1518 C1519 1.369 . S
C1518 C1520 1.419 . S
C1518 H1522 0.930 . S
C1519 C1518 1.369 . S
C1519 C1528 1.429 1_556 S
C1520 C1518 1.419 . S
C1520 C1521 1.363 1_556 S
C1520 H1523 0.929 . S
C1521 C1520 1.363 1_554 S
C1521 C1527 1.428 . S
H1522 C1518 0.930 . S
H1523 C1520 0.929 . S
S1524 N1525 1.613 . S
S1524 N1526 1.610 . S
N1525 S1524 1.613 . S
N1525 C1528 1.350 . S
N1526 S1524 1.610 . S
N1526 C1527 1.351 . S
C1527 C1521 1.428 . S
C1527 N1526 1.351 . S
C1527 C1528 1.434 . S
C1528 C1519 1.429 1_554 S
C1528 N1525 1.350 . S
C1528 C1527 1.434 . S
C1529 C1530 1.369 . S
C1529 C1531 1.419 . S
C1529 H1533 0.930 . S
C1530 C1529 1.369 . S
C1530 C1539 1.429 . S
C1531 C1529 1.419 . S
C1531 C1532 1.363 . S
C1531 H1534 0.929 . S
C1532 C1531 1.363 . S
C1532 C1538 1.428 . S
H1533 C1529 0.930 . S
H1534 C1531 0.929 . S
S1535 N1536 1.613 . S
S1535 N1537 1.610 . S
N1536 S1535 1.613 . S
N1536 C1539 1.350 . S
N1537 S1535 1.610 . S
N1537 C1538 1.351 . S
C1538 C1532 1.428 . S
C1538 N1537 1.351 . S
C1538 C1539 1.434 . S
C1539 C1530 1.429 . S
C1539 N1536 1.350 . S
C1539 C1538 1.434 . S
C1540 C1541 1.369 1_565 S
C1540 C1542 1.419 . S
C1540 H1544 0.930 . S
C1541 C1540 1.369 1_545 S
C1541 C1550 1.429 1_556 S
C1542 C1540 1.419 . S
C1542 C1543 1.363 1_556 S
C1542 H1545 0.929 . S
C1543 C1542 1.363 1_554 S
C1543 C1549 1.428 1_565 S
H1544 C1540 0.930 . S
H1545 C1542 0.929 . S
S1546 N1547 1.613 . S
S1546 N1548 1.610 . S
N1547 S1546 1.613 . S
N1547 C1550 1.350 . S
N1548 S1546 1.610 . S
N1548 C1549 1.351 . S
C1549 C1543 1.428 1_545 S
C1549 N1548 1.351 . S
C1549 C1550 1.434 . S
C1550 C1541 1.429 1_554 S
C1550 N1547 1.350 . S
C1550 C1549 1.434 . S
C1551 C1552 1.369 . S
C1551 C1553 1.419 . S
C1551 H1555 0.930 . S
C1552 C1551 1.369 . S
C1552 C1561 1.429 . S
C1553 C1551 1.419 . S
C1553 C1554 1.363 . S
C1553 H1556 0.929 . S
C1554 C1553 1.363 . S
C1554 C1560 1.428 . S
H1555 C1551 0.930 . S
H1556 C1553 0.929 . S
S1557 N1558 1.613 . S
S1557 N1559 1.610 . S
N1558 S1557 1.613 . S
N1558 C1561 1.350 . S
N1559 S1557 1.610 . S
N1559 C1560 1.351 . S
C1560 C1554 1.428 . S
C1560 N1559 1.351 . S
C1560 C1561 1.434 . S
C1561 C1552 1.429 . S
C1561 N1558 1.350 . S
C1561 C1560 1.434 . S
C1562 C1563 1.369 . S
C1562 C1564 1.419 . S
C1562 H1566 0.930 . S
C1563 C1562 1.369 . S
C1563 C1572 1.429 . S
C1564 C1562 1.419 . S
C1564 C1565 1.363 . S
C1564 H1567 0.929 . S
C1565 C1564 1.363 . S
C1565 C1571 1.428 . S
H1566 C1562 0.930 . S
H1567 C1564 0.929 . S
S1568 N1569 1.613 . S
S1568 N1570 1.610 . S
N1569 S1568 1.613 . S
N1569 C1572 1.350 . S
N1570 S1568 1.610 . S
N1570 C1571 1.351 . S
C1571 C1565 1.428 . S
C1571 N1570 1.351 . S
C1571 C1572 1.434 . S
C1572 C1563 1.429 . S
C1572 N1569 1.350 . S
C1572 C1571 1.434 . S
C1573 C1574 1.369 . S
C1573 C1575 1.419 . S
C1573 H1577 0.930 . S
C1574 C1573 1.369 . S
C1574 C1583 1.429 . S
C1575 C1573 1.419 . S
C1575 C1576 1.363 . S
C1575 H1578 0.929 . S
C1576 C1575 1.363 . S
C1576 C1582 1.428 . S
H1577 C1573 0.930 . S
H1578 C1575 0.929 . S
S1579 N1580 1.613 . S
S1579 N1581 1.610 . S
N1580 S1579 1.613 . S
N1580 C1583 1.350 . S
N1581 S1579 1.610 . S
N1581 C1582 1.351 . S
C1582 C1576 1.428 . S
C1582 N1581 1.351 . S
C1582 C1583 1.434 . S
C1583 C1574 1.429 . S
C1583 N1580 1.350 . S
C1583 C1582 1.434 . S
C1584 C1585 1.369 . S
C1584 C1586 1.419 . S
C1584 H1588 0.930 . S
C1585 C1584 1.369 . S
C1585 C1594 1.429 . S
C1586 C1584 1.419 . S
C1586 C1587 1.363 . S
C1586 H1589 0.929 . S
C1587 C1586 1.363 . S
C1587 C1593 1.428 . S
H1588 C1584 0.930 . S
H1589 C1586 0.929 . S
S1590 N1591 1.613 . S
S1590 N1592 1.610 . S
N1591 S1590 1.613 . S
N1591 C1594 1.350 . S
N1592 S1590 1.610 . S
N1592 C1593 1.351 . S
C1593 C1587 1.428 . S
C1593 N1592 1.351 . S
C1593 C1594 1.434 . S
C1594 C1585 1.429 . S
C1594 N1591 1.350 . S
C1594 C1593 1.434 . S
C1595 C1596 1.369 . S
C1595 C1597 1.419 . S
C1595 H1599 0.930 . S
C1596 C1595 1.369 . S
C1596 C1605 1.429 . S
C1597 C1595 1.419 . S
C1597 C1598 1.363 . S
C1597 H1600 0.929 . S
C1598 C1597 1.363 . S
C1598 C1604 1.428 . S
H1599 C1595 0.930 . S
H1600 C1597 0.929 . S
S1601 N1602 1.613 . S
S1601 N1603 1.610 . S
N1602 S1601 1.613 . S
N1602 C1605 1.350 . S
N1603 S1601 1.610 . S
N1603 C1604 1.351 . S
C1604 C1598 1.428 . S
C1604 N1603 1.351 . S
C1604 C1605 1.434 . S
C1605 C1596 1.429 . S
C1605 N1602 1.350 . S
C1605 C1604 1.434 . S
C1606 C1607 1.369 . S
C1606 C1608 1.419 . S
C1606 H1610 0.930 . S
C1607 C1606 1.369 . S
C1607 C1616 1.429 . S
C1608 C1606 1.419 . S
C1608 C1609 1.363 . S
C1608 H1611 0.929 . S
C1609 C1608 1.363 . S
C1609 C1615 1.428 . S
H1610 C1606 0.930 . S
H1611 C1608 0.929 . S
S1612 N1613 1.613 . S
S1612 N1614 1.610 . S
N1613 S1612 1.613 . S
N1613 C1616 1.350 . S
N1614 S1612 1.610 . S
N1614 C1615 1.351 . S
C1615 C1609 1.428 . S
C1615 N1614 1.351 . S
C1615 C1616 1.434 . S
C1616 C1607 1.429 . S
C1616 N1613 1.350 . S
C1616 C1615 1.434 . S
C1617 C1618 1.369 . S
C1617 C1619 1.419 . S
C1617 H1621 0.930 . S
C1618 C1617 1.369 . S
C1618 C1627 1.429 . S
C1619 C1617 1.419 . S
C1619 C1620 1.363 . S
C1619 H1622 0.929 . S
C1620 C1619 1.363 . S
C1620 C1626 1.428 . S
H1621 C1617 0.930 . S
H1622 C1619 0.929 . S
S1623 N1624 1.613 . S
S1623 N1625 1.610 . S
N1624 S1623 1.613 . S
N1624 C1627 1.350 . S
N1625 S1623 1.610 . S
N1625 C1626 1.351 . S
C1626 C1620 1.428 . S
C1626 N1625 1.351 . S
C1626 C1627 1.434 . S
C1627 C1618 1.429 . S
C1627 N1624 1.350 . S
C1627 C1626 1.434 . S
C1628 C1629 1.369 . S
C1628 C1630 1.419 . S
C1628 H1632 0.930 . S
C1629 C1628 1.369 . S
C1629 C1638 1.429 . S
C1630 C1628 1.419 . S
C1630 C1631 1.363 . S
C1630 H1633 0.929 . S
C1631 C1630 1.363 . S
C1631 C1637 1.428 . S
H1632 C1628 0.930 . S
H1633 C1630 0.929 . S
S1634 N1635 1.613 . S
S1634 N1636 1.610 . S
N1635 S1634 1.613 . S
N1635 C1638 1.350 . S
N1636 S1634 1.610 . S
N1636 C1637 1.351 . S
C1637 C1631 1.428 . S
C1637 N1636 1.351 . S
C1637 C1638 1.434 . S
C1638 C1629 1.429 . S
C1638 N1635 1.350 . S
C1638 C1637 1.434 . S
C1639 C1640 1.369 . S
C1639 C1641 1.419 . S
C1639 H1643 0.930 . S
C1640 C1639 1.369 . S
C1640 C1649 1.429 . S
C1641 C1639 1.419 . S
C1641 C1642 1.363 . S
C1641 H1644 0.929 . S
C1642 C1641 1.363 . S
C1642 C1648 1.428 . S
H1643 C1639 0.930 . S
H1644 C1641 0.929 . S
S1645 N1646 1.613 . S
S1645 N1647 1.610 . S
N1646 S1645 1.613 . S
N1646 C1649 1.350 . S
N1647 S1645 1.610 . S
N1647 C1648 1.351 . S
C1648 C1642 1.428 . S
C1648 N1647 1.351 . S
C1648 C1649 1.434 . S
C1649 C1640 1.429 . S
C1649 N1646 1.350 . S
C1649 C1648 1.434 . S
C1650 C1651 1.369 . S
C1650 C1652 1.419 . S
C1650 H1654 0.930 . S
C1651 C1650 1.369 . S
C1651 C1660 1.429 . S
C1652 C1650 1.419 . S
C1652 C1653 1.363 . S
C1652 H1655 0.929 . S
C1653 C1652 1.363 . S
C1653 C1659 1.428 . S
H1654 C1650 0.930 . S
H1655 C1652 0.929 . S
S1656 N1657 1.613 . S
S1656 N1658 1.610 . S
N1657 S1656 1.613 . S
N1657 C1660 1.350 . S
N1658 S1656 1.610 . S
N1658 C1659 1.351 . S
C1659 C1653 1.428 . S
C1659 N1658 1.351 . S
C1659 C1660 1.434 . S
C1660 C1651 1.429 . S
C1660 N1657 1.350 . S
C1660 C1659 1.434 . S
C1661 C1662 1.369 . S
C1661 C1663 1.419 . S
C1661 H1665 0.930 . S
C1662 C1661 1.369 . S
C1662 C1671 1.429 . S
C1663 C1661 1.419 . S
C1663 C1664 1.363 . S
C1663 H1666 0.929 . S
C1664 C1663 1.363 . S
C1664 C1670 1.428 . S
H1665 C1661 0.930 . S
H1666 C1663 0.929 . S
S1667 N1668 1.613 . S
S1667 N1669 1.610 . S
N1668 S1667 1.613 . S
N1668 C1671 1.350 . S
N1669 S1667 1.610 . S
N1669 C1670 1.351 . S
C1670 C1664 1.428 . S
C1670 N1669 1.351 . S
C1670 C1671 1.434 . S
C1671 C1662 1.429 . S
C1671 N1668 1.350 . S
C1671 C1670 1.434 . S
C1672 C1673 1.369 . S
C1672 C1674 1.419 . S
C1672 H1676 0.930 . S
C1673 C1672 1.369 . S
C1673 C1682 1.429 . S
C1674 C1672 1.419 . S
C1674 C1675 1.363 . S
C1674 H1677 0.929 . S
C1675 C1674 1.363 . S
C1675 C1681 1.428 . S
H1676 C1672 0.930 . S
H1677 C1674 0.929 . S
S1678 N1679 1.613 . S
S1678 N1680 1.610 . S
N1679 S1678 1.613 . S
N1679 C1682 1.350 . S
N1680 S1678 1.610 . S
N1680 C1681 1.351 . S
C1681 C1675 1.428 . S
C1681 N1680 1.351 . S
C1681 C1682 1.434 . S
C1682 C1673 1.429 . S
C1682 N1679 1.350 . S
C1682 C1681 1.434 . S
C1683 C1684 1.369 . S
C1683 C1685 1.419 . S
C1683 H1687 0.930 . S
C1684 C1683 1.369 . S
C1684 C1693 1.429 . S
C1685 C1683 1.419 . S
C1685 C1686 1.363 . S
C1685 H1688 0.929 . S
C1686 C1685 1.363 . S
C1686 C1692 1.428 . S
H1687 C1683 0.930 . S
H1688 C1685 0.929 . S
S1689 N1690 1.613 . S
S1689 N1691 1.610 . S
N1690 S1689 1.613 . S
N1690 C1693 1.350 . S
N1691 S1689 1.610 . S
N1691 C1692 1.351 . S
C1692 C1686 1.428 . S
C1692 N1691 1.351 . S
C1692 C1693 1.434 . S
C1693 C1684 1.429 . S
C1693 N1690 1.350 . S
C1693 C1692 1.434 . S
C1694 C1695 1.369 . S
C1694 C1696 1.419 . S
C1694 H1698 0.930 . S
C1695 C1694 1.369 . S
C1695 C1704 1.429 . S
C1696 C1694 1.419 . S
C1696 C1697 1.363 . S
C1696 H1699 0.929 . S
C1697 C1696 1.363 . S
C1697 C1703 1.428 . S
H1698 C1694 0.930 . S
H1699 C1696 0.929 . S
S1700 N1701 1.613 . S
S1700 N1702 1.610 . S
N1701 S1700 1.613 . S
N1701 C1704 1.350 . S
N1702 S1700 1.610 . S
N1702 C1703 1.351 . S
C1703 C1697 1.428 . S
C1703 N1702 1.351 . S
C1703 C1704 1.434 . S
C1704 C1695 1.429 . S
C1704 N1701 1.350 . S
C1704 C1703 1.434 . S
C1705 C1706 1.369 . S
C1705 C1707 1.419 . S
C1705 H1709 0.930 . S
C1706 C1705 1.369 . S
C1706 C1715 1.429 . S
C1707 C1705 1.419 . S
C1707 C1708 1.363 . S
C1707 H1710 0.929 . S
C1708 C1707 1.363 . S
C1708 C1714 1.428 . S
H1709 C1705 0.930 . S
H1710 C1707 0.929 . S
S1711 N1712 1.613 . S
S1711 N1713 1.610 . S
N1712 S1711 1.613 . S
N1712 C1715 1.350 . S
N1713 S1711 1.610 . S
N1713 C1714 1.351 . S
C1714 C1708 1.428 . S
C1714 N1713 1.351 . S
C1714 C1715 1.434 . S
C1715 C1706 1.429 . S
C1715 N1712 1.350 . S
C1715 C1714 1.434 . S
C1716 C1717 1.369 . S
C1716 C1718 1.419 . S
C1716 H1720 0.930 . S
C1717 C1716 1.369 . S
C1717 C1726 1.429 . S
C1718 C1716 1.419 . S
C1718 C1719 1.363 . S
C1718 H1721 0.929 . S
C1719 C1718 1.363 . S
C1719 C1725 1.428 . S
H1720 C1716 0.930 . S
H1721 C1718 0.929 . S
S1722 N1723 1.613 . S
S1722 N1724 1.610 . S
N1723 S1722 1.613 . S
N1723 C1726 1.350 . S
N1724 S1722 1.610 . S
N1724 C1725 1.351 . S
C1725 C1719 1.428 . S
C1725 N1724 1.351 . S
C1725 C1726 1.434 . S
C1726 C1717 1.429 . S
C1726 N1723 1.350 . S
C1726 C1725 1.434 . S
C1727 C1728 1.369 . S
C1727 C1729 1.419 . S
C1727 H1731 0.930 . S
C1728 C1727 1.369 . S
C1728 C1737 1.429 . S
C1729 C1727 1.419 . S
C1729 C1730 1.363 . S
C1729 H1732 0.929 . S
C1730 C1729 1.363 . S
C1730 C1736 1.428 . S
H1731 C1727 0.930 . S
H1732 C1729 0.929 . S
S1733 N1734 1.613 . S
S1733 N1735 1.610 . S
N1734 S1733 1.613 . S
N1734 C1737 1.350 . S
N1735 S1733 1.610 . S
N1735 C1736 1.351 . S
C1736 C1730 1.428 . S
C1736 N1735 1.351 . S
C1736 C1737 1.434 . S
C1737 C1728 1.429 . S
C1737 N1734 1.350 . S
C1737 C1736 1.434 . S
C1738 C1739 1.369 . S
C1738 C1740 1.419 . S
C1738 H1742 0.930 . S
C1739 C1738 1.369 . S
C1739 C1748 1.429 . S
C1740 C1738 1.419 . S
C1740 C1741 1.363 . S
C1740 H1743 0.929 . S
C1741 C1740 1.363 . S
C1741 C1747 1.428 . S
H1742 C1738 0.930 . S
H1743 C1740 0.929 . S
S1744 N1745 1.613 . S
S1744 N1746 1.610 . S
N1745 S1744 1.613 . S
N1745 C1748 1.350 . S
N1746 S1744 1.610 . S
N1746 C1747 1.351 . S
C1747 C1741 1.428 . S
C1747 N1746 1.351 . S
C1747 C1748 1.434 . S
C1748 C1739 1.429 . S
C1748 N1745 1.350 . S
C1748 C1747 1.434 . S
C1749 C1750 1.369 . S
C1749 C1751 1.419 . S
C1749 H1753 0.930 . S
C1750 C1749 1.369 . S
C1750 C1759 1.429 . S
C1751 C1749 1.419 . S
C1751 C1752 1.363 . S
C1751 H1754 0.929 . S
C1752 C1751 1.363 . S
C1752 C1758 1.428 . S
H1753 C1749 0.930 . S
H1754 C1751 0.929 . S
S1755 N1756 1.613 . S
S1755 N1757 1.610 . S
N1756 S1755 1.613 . S
N1756 C1759 1.350 . S
N1757 S1755 1.610 . S
N1757 C1758 1.351 . S
C1758 C1752 1.428 . S
C1758 N1757 1.351 . S
C1758 C1759 1.434 . S
C1759 C1750 1.429 . S
C1759 N1756 1.350 . S
C1759 C1758 1.434 . S
C1409 C1289 1.787 . S
C1411 C29 1.784 . S
C1420 C196 1.778 . S
C1422 C20 1.790 . S
C1431 C997 1.787 . S
C1433 C137 1.784 . S
C1442 C145 1.791 . S
C1444 C645 1.779 . S
C1453 C233 1.778 . S
C1455 C1085 1.790 . S
C1464 C841 1.791 . S
C1466 C293 1.779 . S
C1475 C313 1.787 . S
C1477 C497 1.784 . S
C1486 C900 1.778 . S
C1488 C372 1.790 . S
C1497 C381 1.786 . S
C1499 C548 1.783 . S
C1508 C1349 1.782 . S
C1510 C489 1.787 . S
C1519 C733 1.789 . S
C1521 C585 1.781 . S
C1530 C1201 1.783 . S
C1532 C665 1.786 . S
C1541 C724 1.790 . S
C1543 C937 1.780 . S
C1552 C1369 1.783 . S
C1554 C849 1.786 . S
C1563 C1017 1.782 . S
C1565 C1193 1.788 . S
C1574 C1252 1.783 . S
C1576 C1076 1.786 . S
C1585 C460 1.121 . S
C1587 C57 1.130 . S
C1596 C49 1.131 . S
C1598 C469 1.122 . S
C1607 C108 1.131 . S
C1609 C401 1.122 . S
C1618 C409 1.130 . S
C1620 C117 1.125 . S
C1629 C636 1.133 . S
C1631 C205 1.139 . S
C1640 C673 1.137 . S
C1642 C225 1.136 . S
C1651 C557 1.140 . S
C1653 C321 1.134 . S
C1662 C284 1.134 . S
C1664 C577 1.133 . S
C1673 C1173 1.131 . S
C1675 C761 1.124 . S
C1684 C753 1.122 . S
C1686 C1164 1.130 . S
C1695 C812 1.121 . S
C1697 C1113 1.130 . S
C1706 C1105 1.131 . S
C1708 C821 1.122 . S
C1717 C1377 1.140 . S
C1719 C929 1.132 . S
C1728 C1340 1.130 . S
C1730 C909 1.138 . S
C1739 C1025 1.140 . S
C1741 C1261 1.133 . S
C1750 C1281 1.130 . S
C1752 C988 1.138 . S
