# Generated by pormake.
# Topology uox, (4)-cn, num edge types: 1
# Building blocks:
#     Node 0, Type 0, BuildingBlock: QUQFOY_clean_sbu_3, # of connection points: 4
#     Node 1, Type 0, BuildingBlock: QUQFOY_clean_sbu_3, # of connection points: 4
#     Node 2, Type 0, BuildingBlock: QUQFOY_clean_sbu_3, # of connection points: 4
#     Node 3, Type 0, BuildingBlock: QUQFOY_clean_sbu_3, # of connection points: 4
#     Node 4, Type 0, BuildingBlock: QUQFOY_clean_sbu_3, # of connection points: 4
#     Node 5, Type 0, BuildingBlock: QUQFOY_clean_sbu_3, # of connection points: 4
#     Node 6, Type 0, BuildingBlock: QUQFOY_clean_sbu_3, # of connection points: 4
#     Node 7, Type 0, BuildingBlock: QUQFOY_clean_sbu_3, # of connection points: 4
#     Node 8, Type 0, BuildingBlock: QUQFOY_clean_sbu_3, # of connection points: 4
#     Node 9, Type 0, BuildingBlock: QUQFOY_clean_sbu_3, # of connection points: 4
#     Node 10, Type 0, BuildingBlock: QUQFOY_clean_sbu_3, # of connection points: 4
#     Node 11, Type 0, BuildingBlock: QUQFOY_clean_sbu_3, # of connection points: 4
#     Node 12, Type 0, BuildingBlock: QUQFOY_clean_sbu_3, # of connection points: 4
#     Node 13, Type 0, BuildingBlock: QUQFOY_clean_sbu_3, # of connection points: 4
#     Node 14, Type 0, BuildingBlock: QUQFOY_clean_sbu_3, # of connection points: 4
#     Node 15, Type 0, BuildingBlock: QUQFOY_clean_sbu_3, # of connection points: 4
#     Node 16, Type 0, BuildingBlock: QUQFOY_clean_sbu_3, # of connection points: 4
#     Node 17, Type 0, BuildingBlock: QUQFOY_clean_sbu_3, # of connection points: 4
#     Node 18, Type 0, BuildingBlock: QUQFOY_clean_sbu_3, # of connection points: 4
#     Node 19, Type 0, BuildingBlock: QUQFOY_clean_sbu_3, # of connection points: 4
#     Node 20, Type 0, BuildingBlock: QUQFOY_clean_sbu_3, # of connection points: 4
#     Node 21, Type 0, BuildingBlock: QUQFOY_clean_sbu_3, # of connection points: 4
#     Node 22, Type 0, BuildingBlock: QUQFOY_clean_sbu_3, # of connection points: 4
#     Node 23, Type 0, BuildingBlock: QUQFOY_clean_sbu_3, # of connection points: 4
#     Node 24, Type 0, BuildingBlock: QUQFOY_clean_sbu_3, # of connection points: 4
#     Node 25, Type 0, BuildingBlock: QUQFOY_clean_sbu_3, # of connection points: 4
#     Node 26, Type 0, BuildingBlock: QUQFOY_clean_sbu_3, # of connection points: 4
#     Node 27, Type 0, BuildingBlock: QUQFOY_clean_sbu_3, # of connection points: 4
#     Node 28, Type 0, BuildingBlock: QUQFOY_clean_sbu_3, # of connection points: 4
#     Node 29, Type 0, BuildingBlock: QUQFOY_clean_sbu_3, # of connection points: 4
#     Node 30, Type 0, BuildingBlock: QUQFOY_clean_sbu_3, # of connection points: 4
#     Node 31, Type 0, BuildingBlock: QUQFOY_clean_sbu_3, # of connection points: 4
#     Edge 32, Type (0, 0), BuildingBlock: KIFKEQ_clean_linker_1, # of connection points: 2
#     Edge 33, Type (0, 0), BuildingBlock: KIFKEQ_clean_linker_1, # of connection points: 2
#     Edge 34, Type (0, 0), BuildingBlock: KIFKEQ_clean_linker_1, # of connection points: 2
#     Edge 35, Type (0, 0), BuildingBlock: KIFKEQ_clean_linker_1, # of connection points: 2
#     Edge 36, Type (0, 0), BuildingBlock: KIFKEQ_clean_linker_1, # of connection points: 2
#     Edge 37, Type (0, 0), BuildingBlock: KIFKEQ_clean_linker_1, # of connection points: 2
#     Edge 38, Type (0, 0), BuildingBlock: KIFKEQ_clean_linker_1, # of connection points: 2
#     Edge 39, Type (0, 0), BuildingBlock: KIFKEQ_clean_linker_1, # of connection points: 2
#     Edge 40, Type (0, 0), BuildingBlock: KIFKEQ_clean_linker_1, # of connection points: 2
#     Edge 41, Type (0, 0), BuildingBlock: KIFKEQ_clean_linker_1, # of connection points: 2
#     Edge 42, Type (0, 0), BuildingBlock: KIFKEQ_clean_linker_1, # of connection points: 2
#     Edge 43, Type (0, 0), BuildingBlock: KIFKEQ_clean_linker_1, # of connection points: 2
#     Edge 44, Type (0, 0), BuildingBlock: KIFKEQ_clean_linker_1, # of connection points: 2
#     Edge 45, Type (0, 0), BuildingBlock: KIFKEQ_clean_linker_1, # of connection points: 2
#     Edge 46, Type (0, 0), BuildingBlock: KIFKEQ_clean_linker_1, # of connection points: 2
#     Edge 47, Type (0, 0), BuildingBlock: KIFKEQ_clean_linker_1, # of connection points: 2
#     Edge 48, Type (0, 0), BuildingBlock: KIFKEQ_clean_linker_1, # of connection points: 2
#     Edge 49, Type (0, 0), BuildingBlock: KIFKEQ_clean_linker_1, # of connection points: 2
#     Edge 50, Type (0, 0), BuildingBlock: KIFKEQ_clean_linker_1, # of connection points: 2
#     Edge 51, Type (0, 0), BuildingBlock: KIFKEQ_clean_linker_1, # of connection points: 2
#     Edge 52, Type (0, 0), BuildingBlock: KIFKEQ_clean_linker_1, # of connection points: 2
#     Edge 53, Type (0, 0), BuildingBlock: KIFKEQ_clean_linker_1, # of connection points: 2
#     Edge 54, Type (0, 0), BuildingBlock: KIFKEQ_clean_linker_1, # of connection points: 2
#     Edge 55, Type (0, 0), BuildingBlock: KIFKEQ_clean_linker_1, # of connection points: 2
#     Edge 56, Type (0, 0), BuildingBlock: KIFKEQ_clean_linker_1, # of connection points: 2
#     Edge 57, Type (0, 0), BuildingBlock: KIFKEQ_clean_linker_1, # of connection points: 2
#     Edge 58, Type (0, 0), BuildingBlock: KIFKEQ_clean_linker_1, # of connection points: 2
#     Edge 59, Type (0, 0), BuildingBlock: KIFKEQ_clean_linker_1, # of connection points: 2
#     Edge 60, Type (0, 0), BuildingBlock: KIFKEQ_clean_linker_1, # of connection points: 2
#     Edge 61, Type (0, 0), BuildingBlock: KIFKEQ_clean_linker_1, # of connection points: 2
#     Edge 62, Type (0, 0), BuildingBlock: KIFKEQ_clean_linker_1, # of connection points: 2
#     Edge 63, Type (0, 0), BuildingBlock: KIFKEQ_clean_linker_1, # of connection points: 2
#     Edge 64, Type (0, 0), BuildingBlock: KIFKEQ_clean_linker_1, # of connection points: 2
#     Edge 65, Type (0, 0), BuildingBlock: KIFKEQ_clean_linker_1, # of connection points: 2
#     Edge 66, Type (0, 0), BuildingBlock: KIFKEQ_clean_linker_1, # of connection points: 2
#     Edge 67, Type (0, 0), BuildingBlock: KIFKEQ_clean_linker_1, # of connection points: 2
#     Edge 68, Type (0, 0), BuildingBlock: KIFKEQ_clean_linker_1, # of connection points: 2
#     Edge 69, Type (0, 0), BuildingBlock: KIFKEQ_clean_linker_1, # of connection points: 2
#     Edge 70, Type (0, 0), BuildingBlock: KIFKEQ_clean_linker_1, # of connection points: 2
#     Edge 71, Type (0, 0), BuildingBlock: KIFKEQ_clean_linker_1, # of connection points: 2
#     Edge 72, Type (0, 0), BuildingBlock: KIFKEQ_clean_linker_1, # of connection points: 2
#     Edge 73, Type (0, 0), BuildingBlock: KIFKEQ_clean_linker_1, # of connection points: 2
#     Edge 74, Type (0, 0), BuildingBlock: KIFKEQ_clean_linker_1, # of connection points: 2
#     Edge 75, Type (0, 0), BuildingBlock: KIFKEQ_clean_linker_1, # of connection points: 2
#     Edge 76, Type (0, 0), BuildingBlock: KIFKEQ_clean_linker_1, # of connection points: 2
#     Edge 77, Type (0, 0), BuildingBlock: KIFKEQ_clean_linker_1, # of connection points: 2
#     Edge 78, Type (0, 0), BuildingBlock: KIFKEQ_clean_linker_1, # of connection points: 2
#     Edge 79, Type (0, 0), BuildingBlock: KIFKEQ_clean_linker_1, # of connection points: 2
#     Edge 80, Type (0, 0), BuildingBlock: KIFKEQ_clean_linker_1, # of connection points: 2
#     Edge 81, Type (0, 0), BuildingBlock: KIFKEQ_clean_linker_1, # of connection points: 2
#     Edge 82, Type (0, 0), BuildingBlock: KIFKEQ_clean_linker_1, # of connection points: 2
#     Edge 83, Type (0, 0), BuildingBlock: KIFKEQ_clean_linker_1, # of connection points: 2
#     Edge 84, Type (0, 0), BuildingBlock: KIFKEQ_clean_linker_1, # of connection points: 2
#     Edge 85, Type (0, 0), BuildingBlock: KIFKEQ_clean_linker_1, # of connection points: 2
#     Edge 86, Type (0, 0), BuildingBlock: KIFKEQ_clean_linker_1, # of connection points: 2
#     Edge 87, Type (0, 0), BuildingBlock: KIFKEQ_clean_linker_1, # of connection points: 2
#     Edge 88, Type (0, 0), BuildingBlock: KIFKEQ_clean_linker_1, # of connection points: 2
#     Edge 89, Type (0, 0), BuildingBlock: KIFKEQ_clean_linker_1, # of connection points: 2
#     Edge 90, Type (0, 0), BuildingBlock: KIFKEQ_clean_linker_1, # of connection points: 2
#     Edge 91, Type (0, 0), BuildingBlock: KIFKEQ_clean_linker_1, # of connection points: 2
#     Edge 92, Type (0, 0), BuildingBlock: KIFKEQ_clean_linker_1, # of connection points: 2
#     Edge 93, Type (0, 0), BuildingBlock: KIFKEQ_clean_linker_1, # of connection points: 2
#     Edge 94, Type (0, 0), BuildingBlock: KIFKEQ_clean_linker_1, # of connection points: 2
#     Edge 95, Type (0, 0), BuildingBlock: KIFKEQ_clean_linker_1, # of connection points: 2
# Relax obj value: 0.059
# Max RMSD: 0.086
# Mean RMSD: 0.086
data_MOF--net-uox--node1-QUQFOY_clean_sbu_3--edge1-KIFKEQ_clean_linker_1
_symmetry_space_group_name_H-M    P1
_symmetry_Int_Tables_number       1
_symmetry_cell_setting            triclinic
loop_
_symmetry_equiv_pos_as_xyz
'x, y, z'
_cell_length_a     47.794178
_cell_length_b     47.799085
_cell_length_c     82.550045
_cell_angle_alpha  90.06668
_cell_angle_beta   90.008667
_cell_angle_gamma 90.00211
loop_
_atom_site_label
_atom_site_type_symbol
_atom_site_fract_x
_atom_site_fract_y
_atom_site_fract_z
_atom_type_partial_charge
C0 C 0.48901 0.03664 0.12443 0.0
O1 O 0.47618 0.02658 0.11228 0.0
Cd2 Cd 0.42875 0.00972 0.11341 0.0
O3 O 0.47747 0.03682 0.13834 0.0
Cd4 Cd 0.43318 0.02166 0.15107 0.0
C5 C 0.39651 0.06832 0.12873 0.0
O6 O 0.42295 0.97872 0.13592 0.0
O7 O 0.38904 -0.00305 0.14964 0.0
O8 O 0.45653 -0.00024 0.17405 0.0
C9 C 0.39795 0.97688 0.14101 0.0
O10 O 0.39964 0.05131 0.11697 0.0
C11 C 0.44524 0.01516 0.18475 0.0
O12 O 0.40812 0.06372 0.14238 0.0
O13 O 0.42887 0.03424 0.17975 0.0
C14 C 0.20013 0.2362 0.37439 0.0
O15 O 0.21003 0.22326 0.36224 0.0
Cd16 Cd 0.22636 0.17566 0.36347 0.0
O17 O 0.19985 0.22467 0.38829 0.0
Cd18 Cd 0.21456 0.18023 0.40099 0.0
C19 C 0.16741 0.14405 0.37865 0.0
O20 O 0.25755 0.16985 0.38595 0.0
O21 O 0.23915 0.13599 0.39959 0.0
O22 O 0.23647 0.2035 0.42403 0.0
C23 C 0.25936 0.1449 0.3911 0.0
O24 O 0.18443 0.14695 0.36689 0.0
C25 C 0.22094 0.19231 0.43468 0.0
O26 O 0.17223 0.15562 0.39229 0.0
O27 O 0.20181 0.17603 0.42962 0.0
C28 C -0.00515 0.94644 0.62194 0.0
O29 O 0.00812 0.956 0.60983 0.0
Cd30 Cd 0.0554 0.97327 0.61141 0.0
O31 O 0.00591 0.94681 0.63598 0.0
Cd32 Cd 0.0499 0.96221 0.64899 0.0
C33 C 0.0879 0.91551 0.62736 0.0
O34 O 0.06031 0.00501 0.63374 0.0
O35 O 0.09389 0.98716 0.64787 0.0
O36 O 0.02642 0.9843 0.67193 0.0
C37 C 0.08512 0.00708 0.63911 0.0
O38 O 0.08504 0.93221 0.61546 0.0
C39 C 0.03748 0.96877 0.68263 0.0
O40 O 0.07565 0.92026 0.6408 0.0
O41 O 0.05374 0.94958 0.67763 0.0
C42 C 0.285 0.74694 0.87273 0.0
O43 O 0.27559 0.75976 0.86042 0.0
Cd44 Cd 0.26043 0.80761 0.86125 0.0
O45 O 0.2852 0.75878 0.88657 0.0
Cd46 Cd 0.27057 0.80367 0.89907 0.0
C47 C 0.31883 0.83928 0.8772 0.0
O48 O 0.2283 0.81386 0.88335 0.0
O49 O 0.2457 0.8477 0.8975 0.0
O50 O 0.24791 0.7813 0.92219 0.0
C51 C 0.22607 0.83877 0.88856 0.0
O52 O 0.30316 0.83509 0.86495 0.0
C53 C 0.26374 0.7922 0.93281 0.0
O54 O 0.31257 0.82924 0.89102 0.0
O55 O 0.28326 0.80792 0.92771 0.0
C56 C 0.49196 0.94675 0.36346 0.0
O57 O 0.47933 0.95627 0.37582 0.0
Cd58 Cd 0.43168 0.97212 0.37524 0.0
O59 O 0.48014 0.94707 0.34962 0.0
Cd60 Cd 0.43552 0.96313 0.33736 0.0
C61 C 0.39945 0.91454 0.35857 0.0
O62 O 0.42503 0.00489 0.35358 0.0
O63 O 0.39124 0.98727 0.33949 0.0
O64 O 0.45741 0.98711 0.31453 0.0
C65 C 0.39999 0.00682 0.34855 0.0
O66 O 0.40376 0.92988 0.37095 0.0
C67 C 0.44666 0.97155 0.30372 0.0
O68 O 0.40963 0.92098 0.34481 0.0
O69 O 0.43131 0.95156 0.30858 0.0
C70 C 0.28459 0.2382 0.61412 0.0
O71 O 0.27507 0.22514 0.62631 0.0
Cd72 Cd 0.25869 0.17756 0.62512 0.0
O73 O 0.28448 0.22679 0.60017 0.0
Cd74 Cd 0.26947 0.18229 0.58758 0.0
C75 C 0.31716 0.14594 0.60937 0.0
O76 O 0.22684 0.17172 0.60294 0.0
O77 O 0.24522 0.13791 0.58919 0.0
O78 O 0.24686 0.20491 0.56455 0.0
C79 C 0.22509 0.14673 0.5978 0.0
O80 O 0.30046 0.14875 0.62129 0.0
C81 C 0.26245 0.19381 0.55388 0.0
O82 O 0.312 0.15764 0.59583 0.0
O83 O 0.2819 0.17793 0.55893 0.0
C84 C -0.0073 0.03525 0.86173 0.0
O85 O 0.00544 0.02553 0.87398 0.0
Cd86 Cd 0.05321 0.01011 0.87317 0.0
O87 O 0.00444 0.03529 0.84787 0.0
Cd88 Cd 0.04896 0.01974 0.83532 0.0
C89 C 0.08448 0.06846 0.85685 0.0
O90 O 0.05984 0.97784 0.85122 0.0
O91 O 0.0934 -0.00421 0.83711 0.0
O92 O 0.0266 -0.00386 0.81248 0.0
C93 C 0.08483 0.97609 0.84609 0.0
O94 O 0.08047 0.05286 0.86914 0.0
C95 C 0.03727 0.01175 0.80169 0.0
O96 O 0.07436 0.06206 0.84306 0.0
O97 O 0.05282 0.0316 0.80657 0.0
C98 C 0.19935 0.74676 0.1119 0.0
O99 O 0.20884 0.75943 0.12425 0.0
Cd100 Cd 0.22417 0.80719 0.12377 0.0
O101 O 0.19938 0.75864 0.09808 0.0
Cd102 Cd 0.21482 0.80345 0.08582 0.0
C103 C 0.16601 0.8388 0.10741 0.0
O104 O 0.25666 0.81362 0.10193 0.0
O105 O 0.23941 0.84761 0.0879 0.0
O106 O 0.23815 0.78134 0.0628 0.0
C107 C 0.25887 0.83864 0.09695 0.0
O108 O 0.18147 0.83458 0.11974 0.0
C109 C 0.22252 0.79228 0.05211 0.0
O110 O 0.17255 0.82887 0.09359 0.0
O111 O 0.20283 0.8079 0.05713 0.0
C112 C 0.49735 0.94971 0.86357 0.0
O113 O 0.51071 0.95843 0.87587 0.0
Cd114 Cd 0.5572 0.97719 0.87515 0.0
O115 O 0.50812 0.95111 0.84947 0.0
Cd116 Cd 0.55289 0.96719 0.8373 0.0
C117 C 0.59 0.91984 0.85924 0.0
O118 O 0.5613 0.00997 0.85319 0.0
O119 O 0.5956 -0.00592 0.83893 0.0
O120 O 0.52824 0.98543 0.81343 0.0
C121 C 0.58603 0.01329 0.84792 0.0
O122 O 0.58637 0.9358 0.87142 0.0
C123 C 0.54355 0.97264 0.80326 0.0
O124 O 0.57894 0.9255 0.84559 0.0
O125 O 0.56234 0.95668 0.80897 0.0
C126 C 0.78425 0.74624 0.61483 0.0
O127 O 0.77658 0.76122 0.62674 0.0
Cd128 Cd 0.75758 0.80768 0.62444 0.0
O129 O 0.78235 0.75543 0.60039 0.0
Cd130 Cd 0.76783 0.79927 0.58679 0.0
C131 C 0.81469 0.83918 0.60752 0.0
O132 O 0.72537 0.81022 0.60222 0.0
O133 O 0.74221 0.84301 0.58715 0.0
O134 O 0.7458 0.77561 0.5638 0.0
C135 C 0.72272 0.8346 0.59634 0.0
O136 O 0.79794 0.83756 0.61948 0.0
C137 C 0.76186 0.78611 0.55317 0.0
O138 O 0.80999 0.82557 0.59451 0.0
O139 O 0.78125 0.80204 0.55824 0.0
C140 C 0.98717 0.03789 0.36153 0.0
O141 O 0.97422 0.02799 0.37366 0.0
Cd142 Cd 0.92705 0.01073 0.3726 0.0
O143 O 0.97582 0.0378 0.34755 0.0
Cd144 Cd 0.93134 0.02187 0.33509 0.0
C145 C 0.89494 0.06907 0.35719 0.0
O146 O 0.92268 0.97864 0.35041 0.0
O147 O 0.88797 -0.00429 0.33699 0.0
O148 O 0.9566 0.00408 0.31133 0.0
C149 C 0.89768 0.97591 0.34548 0.0
O150 O 0.89754 0.05213 0.36901 0.0
C151 C 0.94112 0.01647 0.30109 0.0
O152 O 0.90691 0.06421 0.34369 0.0
O153 O 0.92189 0.03203 0.30671 0.0
C154 C 0.69673 0.23988 0.11369 0.0
O155 O 0.70684 0.2269 0.12576 0.0
Cd156 Cd 0.72483 0.17995 0.12421 0.0
O157 O 0.69696 0.2287 0.09967 0.0
Cd158 Cd 0.71322 0.18468 0.08693 0.0
C159 C 0.66697 0.1469 0.10882 0.0
O160 O 0.75686 0.17568 0.10196 0.0
O161 O 0.73928 0.14143 0.08832 0.0
O162 O 0.73109 0.21032 0.06337 0.0
C163 C 0.75935 0.15082 0.09672 0.0
O164 O 0.68405 0.14965 0.12057 0.0
C165 C 0.71857 0.19515 0.05301 0.0
O166 O 0.67131 0.15931 0.0954 0.0
O167 O 0.70281 0.17598 0.05848 0.0
C168 C 0.49742 0.03889 0.62432 0.0
O169 O 0.50987 0.02865 0.61208 0.0
Cd170 Cd 0.55696 0.01103 0.61282 0.0
O171 O 0.50924 0.03891 0.63815 0.0
Cd172 Cd 0.55386 0.0228 0.65027 0.0
C173 C 0.59022 0.06923 0.6277 0.0
O174 O 0.56207 0.97924 0.63507 0.0
O175 O 0.59706 -0.00341 0.64815 0.0
O176 O 0.52893 0.00533 0.67418 0.0
C177 C 0.58718 0.97664 0.63983 0.0
O178 O 0.58703 0.05214 0.61598 0.0
C179 C 0.54456 0.01781 0.68433 0.0
O180 O 0.57856 0.06475 0.64133 0.0
O181 O 0.56376 0.03325 0.67859 0.0
C182 C 0.70243 0.74434 0.37275 0.0
O183 O 0.71206 0.75768 0.36068 0.0
Cd184 Cd 0.72892 0.80509 0.36223 0.0
O185 O 0.70249 0.75539 0.3868 0.0
Cd186 Cd 0.71744 0.79948 0.39997 0.0
C187 C 0.67066 0.83708 0.37808 0.0
O188 O 0.76021 0.80997 0.38473 0.0
O189 O 0.74254 0.8435 0.39897 0.0
O190 O 0.7392 0.77602 0.42304 0.0
C191 C 0.76233 0.83479 0.39008 0.0
O192 O 0.68747 0.83429 0.36621 0.0
C193 C 0.72339 0.78697 0.43365 0.0
O194 O 0.67544 0.825 0.39156 0.0
O195 O 0.70427 0.8032 0.42856 0.0
C196 C 0.9868 0.9479 0.12155 0.0
O197 O 0.9727 0.95609 0.10941 0.0
Cd198 Cd 0.92632 0.9754 0.11093 0.0
O199 O 0.97674 0.9496 0.1358 0.0
Cd200 Cd 0.93214 0.96483 0.14832 0.0
C201 C 0.89399 0.91797 0.12665 0.0
O202 O 0.92309 0.00807 0.13298 0.0
O203 O 0.88904 0.99127 0.14706 0.0
O204 O 0.95726 0.98272 0.17212 0.0
C205 C 0.89842 0.011 0.1384 0.0
O206 O 0.89587 0.93505 0.11488 0.0
C207 C 0.94205 0.96991 0.18232 0.0
O208 O 0.90705 0.92251 0.13986 0.0
O209 O 0.92312 0.95404 0.17665 0.0
C210 C 0.78757 0.24094 0.87382 0.0
O211 O 0.77702 0.22813 0.8618 0.0
Cd212 Cd 0.75846 0.18139 0.86326 0.0
O213 O 0.78755 0.22971 0.88781 0.0
Cd214 Cd 0.77112 0.18581 0.90055 0.0
C215 C 0.81631 0.14761 0.87805 0.0
O216 O 0.72708 0.17731 0.88581 0.0
O217 O 0.74454 0.1429 0.89934 0.0
O218 O 0.75403 0.21138 0.92436 0.0
C219 C 0.72443 0.15247 0.89103 0.0
O220 O 0.799 0.15064 0.86644 0.0
C221 C 0.76675 0.19607 0.93455 0.0
O222 O 0.81243 0.15995 0.89155 0.0
O223 O 0.78229 0.17688 0.92886 0.0
C224 C 0.98861 0.53765 0.62297 0.0
O225 O 0.97451 0.5296 0.61079 0.0
Cd226 Cd 0.92769 0.51175 0.61217 0.0
O227 O 0.97842 0.5361 0.63721 0.0
Cd228 Cd 0.93409 0.52093 0.65025 0.0
C229 C 0.89594 0.56892 0.62933 0.0
O230 O 0.92383 0.4791 0.63413 0.0
O231 O 0.89052 0.4951 0.64919 0.0
O232 O 0.95738 0.49789 0.67298 0.0
C233 C 0.89927 0.47612 0.63973 0.0
O234 O 0.89936 0.5533 0.61698 0.0
C235 C 0.94689 0.51356 0.68382 0.0
O236 O 0.90728 0.56288 0.64287 0.0
O237 O 0.93101 0.53318 0.679 0.0
C238 C 0.69685 0.73925 0.87256 0.0
O239 O 0.70469 0.72546 0.86022 0.0
Cd240 Cd 0.72217 0.67855 0.86096 0.0
O241 O 0.69847 0.72864 0.88669 0.0
Cd242 Cd 0.71369 0.68347 0.89878 0.0
C243 C 0.66456 0.64744 0.87766 0.0
O244 O 0.75575 0.67404 0.8825 0.0
O245 O 0.73931 0.63993 0.89667 0.0
O246 O 0.73331 0.70769 0.92249 0.0
C247 C 0.7586 0.6492 0.88764 0.0
O248 O 0.68026 0.65039 0.86532 0.0
C249 C 0.72059 0.69258 0.93277 0.0
O250 O 0.67092 0.65863 0.89118 0.0
O251 O 0.70407 0.67413 0.9272 0.0
C252 C 0.49636 0.45035 0.1216 0.0
O253 O 0.51119 0.45817 0.10968 0.0
Cd254 Cd 0.55771 0.47699 0.11184 0.0
O255 O 0.50569 0.45214 0.13602 0.0
Cd256 Cd 0.54958 0.46685 0.14957 0.0
C257 C 0.58915 0.41977 0.1288 0.0
O258 O 0.5605 0.50914 0.13406 0.0
O259 O 0.59345 0.4923 0.14904 0.0
O260 O 0.52587 0.48957 0.17228 0.0
C261 C 0.58497 0.51175 0.13984 0.0
O262 O 0.58734 0.43648 0.11684 0.0
C263 C 0.5362 0.47378 0.1831 0.0
O264 O 0.57578 0.42456 0.14189 0.0
O265 O 0.55208 0.45416 0.17827 0.0
C266 C 0.78838 0.24962 0.37221 0.0
O267 O 0.77926 0.26256 0.35986 0.0
Cd268 Cd 0.76035 0.3092 0.36023 0.0
O269 O 0.78713 0.2608 0.38622 0.0
Cd270 Cd 0.77021 0.305 0.39854 0.0
C271 C 0.81672 0.34335 0.37655 0.0
O272 O 0.72778 0.31112 0.3822 0.0
O273 O 0.73933 0.34541 0.39785 0.0
O274 O 0.7541 0.27881 0.42234 0.0
C275 C 0.72193 0.33501 0.38797 0.0
O276 O 0.8006 0.33994 0.36442 0.0
C277 C 0.76571 0.29504 0.43252 0.0
O278 O 0.81143 0.33154 0.39004 0.0
O279 O 0.7802 0.31501 0.42683 0.0
C280 C 0.98947 0.45165 0.86451 0.0
O281 O 0.97469 0.45948 0.87646 0.0
Cd282 Cd 0.9279 0.47768 0.87415 0.0
O283 O 0.97988 0.45292 0.85013 0.0
Cd284 Cd 0.93565 0.46644 0.83662 0.0
C285 C 0.89668 0.41971 0.85794 0.0
O286 O 0.92449 0.50927 0.85168 0.0
O287 O 0.89163 0.49153 0.83694 0.0
O288 O 0.95922 0.48831 0.81363 0.0
C289 C 0.9 0.51146 0.84585 0.0
O290 O 0.89846 0.43682 0.86973 0.0
C291 C 0.94866 0.47229 0.80299 0.0
O292 O 0.90992 0.42416 0.84478 0.0
O293 O 0.93273 0.4529 0.80804 0.0
C294 C 0.78785 0.73726 0.11174 0.0
O295 O 0.77788 0.72454 0.12394 0.0
Cd296 Cd 0.76064 0.67733 0.12303 0.0
O297 O 0.78791 0.7256 0.09785 0.0
Cd298 Cd 0.77236 0.68093 0.08552 0.0
C299 C 0.81911 0.64474 0.10802 0.0
O300 O 0.72894 0.67242 0.1007 0.0
O301 O 0.74621 0.63762 0.0874 0.0
O302 O 0.75491 0.70608 0.06168 0.0
C303 C 0.72632 0.64736 0.09583 0.0
O304 O 0.80202 0.64767 0.11974 0.0
C305 C 0.76745 0.69061 0.05149 0.0
O306 O 0.8145 0.65649 0.09443 0.0
O307 O 0.78291 0.67136 0.05717 0.0
C308 C 0.49895 0.53933 0.36349 0.0
O309 O 0.51252 0.53001 0.37557 0.0
Cd310 Cd 0.55878 0.51018 0.37408 0.0
O311 O 0.50923 0.53788 0.34926 0.0
Cd312 Cd 0.55207 0.52064 0.33562 0.0
C313 C 0.59354 0.56563 0.35693 0.0
O314 O 0.5592 0.47841 0.35174 0.0
O315 O 0.59248 0.48965 0.33529 0.0
O316 O 0.52583 0.50092 0.31292 0.0
C317 C 0.58271 0.47244 0.3455 0.0
O318 O 0.59003 0.54962 0.36909 0.0
C319 C 0.53785 0.51553 0.30213 0.0
O320 O 0.58093 0.56089 0.34359 0.0
O321 O 0.55583 0.53324 0.30698 0.0
C322 C 0.69917 0.2478 0.61134 0.0
O323 O 0.70945 0.2604 0.62352 0.0
Cd324 Cd 0.72638 0.30774 0.62269 0.0
O325 O 0.69881 0.25958 0.5975 0.0
Cd326 Cd 0.71428 0.30427 0.58528 0.0
C327 C 0.66747 0.33994 0.60799 0.0
O328 O 0.75781 0.31333 0.60031 0.0
O329 O 0.73972 0.34793 0.58724 0.0
O330 O 0.73221 0.27946 0.56144 0.0
C331 C 0.75992 0.33846 0.59551 0.0
O332 O 0.68472 0.33706 0.61964 0.0
C333 C 0.71937 0.29467 0.55126 0.0
O334 O 0.672 0.32835 0.59433 0.0
O335 O 0.70348 0.31358 0.55696 0.0
C336 C -0.00104 0.44698 0.3623 0.0
O337 O 0.0117 0.4567 0.37458 0.0
Cd338 Cd 0.05909 0.47352 0.37385 0.0
O339 O 0.01071 0.44691 0.34845 0.0
Cd340 Cd 0.05563 0.46229 0.3364 0.0
C341 C 0.09179 0.41526 0.35861 0.0
O342 O 0.06435 0.50557 0.35176 0.0
O343 O 0.09911 0.48804 0.33855 0.0
O344 O 0.03084 0.48046 0.31264 0.0
C345 C 0.08945 0.508 0.34695 0.0
O346 O 0.08884 0.43224 0.3704 0.0
C347 C 0.04627 0.46798 0.3024 0.0
O348 O 0.07997 0.41994 0.34505 0.0
O349 O 0.06528 0.45217 0.30802 0.0
C350 C 0.28764 0.24674 0.11141 0.0
O351 O 0.27751 0.25962 0.12352 0.0
Cd352 Cd 0.26102 0.30697 0.12227 0.0
O353 O 0.28765 0.25807 0.09745 0.0
Cd354 Cd 0.27145 0.30188 0.08434 0.0
C355 C 0.3189 0.3392 0.10585 0.0
O356 O 0.22909 0.31176 0.10004 0.0
O357 O 0.24575 0.34548 0.08556 0.0
O358 O 0.24877 0.27798 0.06173 0.0
C359 C 0.2264 0.3365 0.09467 0.0
O360 O 0.30319 0.33503 0.11808 0.0
C361 C 0.2641 0.28873 0.05083 0.0
O362 O 0.31299 0.32866 0.09208 0.0
O363 O 0.28344 0.30506 0.05555 0.0
C364 C 0.4844 0.53923 0.86543 0.0
O365 O 0.47013 0.53187 0.87769 0.0
Cd366 Cd 0.42448 0.51057 0.8766 0.0
O367 O 0.47477 0.53614 0.85115 0.0
Cd368 Cd 0.43087 0.51949 0.83851 0.0
C369 C 0.3899 0.5654 0.85959 0.0
O370 O 0.42446 0.47715 0.85492 0.0
O371 O 0.39109 0.48796 0.83847 0.0
O372 O 0.45776 0.50337 0.81494 0.0
C373 C 0.40112 0.4708 0.84859 0.0
O374 O 0.39246 0.54926 0.87176 0.0
C375 C 0.44188 0.51509 0.80463 0.0
O376 O 0.40318 0.56051 0.84651 0.0
O377 O 0.42181 0.52964 0.81017 0.0
C378 C 0.19988 0.73822 0.61325 0.0
O379 O 0.20976 0.72584 0.62558 0.0
Cd380 Cd 0.22604 0.67833 0.62491 0.0
O381 O 0.20011 0.72628 0.59944 0.0
Cd382 Cd 0.21633 0.68199 0.58692 0.0
C383 C 0.16821 0.64591 0.60861 0.0
O384 O 0.2584 0.67233 0.60293 0.0
O385 O 0.24165 0.63829 0.58868 0.0
O386 O 0.23913 0.70508 0.56409 0.0
C387 C 0.26095 0.6474 0.59781 0.0
O388 O 0.1837 0.65039 0.6209 0.0
C389 C 0.22374 0.69404 0.5533 0.0
O390 O 0.1745 0.65589 0.59477 0.0
O391 O 0.20442 0.67784 0.55818 0.0
C392 C -0.0016 0.53664 0.12388 0.0
O393 O 0.01097 0.52654 0.11165 0.0
Cd394 Cd 0.05821 0.50926 0.11234 0.0
O395 O 0.01016 0.53673 0.13773 0.0
Cd396 Cd 0.05486 0.52093 0.14982 0.0
C397 C 0.09101 0.56763 0.12732 0.0
O398 O 0.06361 0.47754 0.13458 0.0
O399 O 0.09831 0.49523 0.14778 0.0
O400 O 0.03019 0.50293 0.17366 0.0
C401 C 0.08872 0.47521 0.13939 0.0
O402 O 0.08798 0.55056 0.11558 0.0
C403 C 0.04562 0.51557 0.18384 0.0
O404 O 0.07931 0.56306 0.14093 0.0
O405 O 0.06455 0.5314 0.17815 0.0
C406 C 0.19465 0.24705 0.87104 0.0
O407 O 0.20258 0.26112 0.85883 0.0
Cd408 Cd 0.22272 0.30708 0.86003 0.0
O409 O 0.19721 0.25686 0.88534 0.0
Cd410 Cd 0.21415 0.3004 0.89853 0.0
C411 C 0.16765 0.34119 0.8778 0.0
O412 O 0.25577 0.30792 0.88186 0.0
O413 O 0.2448 0.34088 0.89863 0.0
O414 O 0.23524 0.27525 0.92122 0.0
C415 C 0.26181 0.33133 0.88824 0.0
O416 O 0.18265 0.33708 0.86527 0.0
C417 C 0.22037 0.2869 0.93204 0.0
O418 O 0.1737 0.32965 0.89126 0.0
O419 O 0.20192 0.3041 0.92722 0.0
C420 C 0.48763 0.44646 0.62557 0.0
O421 O 0.47465 0.45663 0.61351 0.0
Cd422 Cd 0.42759 0.4743 0.61481 0.0
O423 O 0.47638 0.44641 0.63956 0.0
Cd424 Cd 0.4322 0.46234 0.65223 0.0
C425 C 0.39464 0.41623 0.63001 0.0
O426 O 0.42335 0.50591 0.63723 0.0
O427 O 0.38898 0.48861 0.65085 0.0
O428 O 0.4577 0.48005 0.67588 0.0
C429 C 0.39846 0.50853 0.64237 0.0
O430 O 0.39744 0.43336 0.6183 0.0
C431 C 0.44263 0.46725 0.68615 0.0
O432 O 0.40693 0.42053 0.64348 0.0
O433 O 0.42355 0.45146 0.68058 0.0
C434 C 0.28706 0.73767 0.3728 0.0
O435 O 0.2792 0.72301 0.3608 0.0
Cd436 Cd 0.26056 0.67639 0.36278 0.0
O437 O 0.28541 0.72811 0.38717 0.0
Cd438 Cd 0.27103 0.68402 0.40046 0.0
C439 C 0.3182 0.64522 0.37933 0.0
O440 O 0.22855 0.67327 0.38504 0.0
O441 O 0.24565 0.64014 0.39978 0.0
O442 O 0.24898 0.70746 0.42347 0.0
C443 C 0.22603 0.64874 0.39073 0.0
O444 O 0.30133 0.64691 0.36743 0.0
C445 C 0.26483 0.69665 0.43411 0.0
O446 O 0.31342 0.65843 0.39247 0.0
O447 O 0.28416 0.68065 0.42903 0.0
H448 H 0.46806 0.01879 0.28989 0.0
H449 H 0.43365 0.93767 0.27815 0.0
H450 H 0.47087 0.02996 0.26104 0.0
H451 H 0.43669 0.94881 0.24933 0.0
H452 H 0.46993 0.9698 0.19878 0.0
H453 H 0.47345 0.95916 0.22764 0.0
H454 H 0.43382 0.03791 0.23906 0.0
H455 H 0.43008 0.04854 0.21018 0.0
C456 C 0.46141 0.00323 0.28115 0.0
C457 C 0.45055 0.97737 0.28628 0.0
C458 C 0.46289 0.0097 0.26467 0.0
C459 C 0.45395 0.99028 0.25298 0.0
C460 C 0.44394 0.96409 0.25809 0.0
C461 C 0.44208 0.95776 0.27457 0.0
C462 C 0.46223 0.98498 0.20744 0.0
C463 C 0.44962 0.00997 0.20222 0.0
C464 C 0.46413 0.97881 0.22395 0.0
C465 C 0.45382 -0.00233 0.23556 0.0
C466 C 0.44212 0.02309 0.23036 0.0
C467 C 0.43987 0.02911 0.21384 0.0
H468 H 0.29665 0.18001 0.5286 0.0
H469 H 0.21607 0.2163 0.53967 0.0
H470 H 0.28614 0.18312 0.49969 0.0
H471 H 0.20554 0.21915 0.51074 0.0
H472 H 0.18699 0.1779 0.45996 0.0
H473 H 0.19727 0.18177 0.48889 0.0
H474 H 0.27683 0.21999 0.4778 0.0
H475 H 0.26653 0.21637 0.44888 0.0
C476 C 0.27682 0.18888 0.52486 0.0
C477 C 0.25716 0.19784 0.5364 0.0
C478 C 0.27087 0.19077 0.50832 0.0
C479 C 0.245 0.2013 0.50301 0.0
C480 C 0.22556 0.21077 0.51453 0.0
C481 C 0.23166 0.20926 0.53107 0.0
C482 C 0.20653 0.18741 0.4637 0.0
C483 C 0.22599 0.19675 0.45216 0.0
C484 C 0.21235 0.18974 0.48025 0.0
C485 C 0.23788 0.20109 0.48555 0.0
C486 C 0.25708 0.21096 0.47402 0.0
C487 C 0.2511 0.20901 0.45749 0.0
H488 H 0.01504 0.96492 0.78778 0.0
H489 H 0.05035 0.04568 0.7762 0.0
H490 H 0.01173 0.95399 0.7589 0.0
H491 H 0.04682 0.03477 0.74735 0.0
H492 H 0.0133 0.0144 0.69675 0.0
H493 H 0.00992 0.02497 0.72566 0.0
H494 H 0.04846 0.94564 0.73687 0.0
H495 H 0.05205 0.93507 0.70798 0.0
C496 C 0.02178 0.98046 0.77907 0.0
C497 C 0.03305 0.00613 0.78425 0.0
C498 C 0.02 0.97413 0.76257 0.0
C499 C 0.02907 -0.00649 0.75092 0.0
C500 C 0.03947 0.01954 0.75607 0.0
C501 C 0.04161 0.02572 0.77258 0.0
C502 C 0.02077 -0.00093 0.70539 0.0
C503 C 0.03305 0.97394 0.7001 0.0
C504 C 0.01895 0.00521 0.72191 0.0
C505 C 0.02901 0.98617 0.73347 0.0
C506 C 0.04035 0.9606 0.72821 0.0
C507 C 0.04251 0.95462 0.71168 0.0
H508 H 0.2179 0.76886 0.94715 0.0
H509 H 0.29794 0.80654 0.95801 0.0
H510 H 0.20775 0.76567 0.9761 0.0
H511 H 0.28778 0.80315 0.98696 0.0
H512 H 0.26898 0.76981 0.03792 0.0
H513 H 0.2794 0.76657 0.00898 0.0
H514 H 0.19876 0.80248 -0.0021 0.0
H515 H 0.18835 0.80592 0.02681 0.0
C516 C 0.23346 0.77616 0.95572 0.0
C517 C 0.25868 0.78806 0.95031 0.0
C518 C 0.22756 0.77445 0.97227 0.0
C519 C 0.24693 0.78424 0.98374 0.0
C520 C 0.27256 0.79525 0.97837 0.0
C521 C 0.27831 0.7973 0.96181 0.0
C522 C 0.25336 0.77676 0.0293 0.0
C523 C 0.22788 0.78821 0.03462 0.0
C524 C 0.25941 0.77502 0.01276 0.0
C525 C 0.23992 0.78433 0.00123 0.0
C526 C 0.21407 0.79494 0.00654 0.0
C527 C 0.20818 0.79703 0.02307 0.0
H528 H 0.58104 0.95849 0.77986 0.0
H529 H 0.50083 -0.00158 0.7869 0.0
H530 H 0.57946 0.97037 0.75114 0.0
H531 H 0.49914 0.00989 0.75795 0.0
H532 H 0.50097 -0.00645 0.70066 0.0
H533 H 0.49876 0.98229 0.72962 0.0
H534 H 0.58028 0.01925 0.73651 0.0
H535 H 0.58239 0.03092 0.70777 0.0
C536 C 0.56291 0.9695 0.77524 0.0
C537 C 0.5411 0.97761 0.78564 0.0
C538 C 0.56211 0.97643 0.75883 0.0
C539 C 0.53929 0.99122 0.75242 0.0
C540 C 0.51694 -0.00155 0.76264 0.0
C541 C 0.51795 0.99193 0.77917 0.0
C542 C 0.51825 -0.00047 0.70841 0.0
C543 C 0.54188 0.01305 0.70195 0.0
C544 C 0.51695 -0.00686 0.72494 0.0
C545 C 0.53946 -0.00029 0.73519 0.0
C546 C 0.56278 0.01373 0.7288 0.0
C547 C 0.56389 0.02054 0.71238 0.0
H548 H 0.68884 0.80103 0.45874 0.0
H549 H 0.7687 0.7628 0.44812 0.0
H550 H 0.69842 0.79695 0.48771 0.0
H551 H 0.77829 0.75893 0.47712 0.0
H552 H 0.79693 0.79893 0.52814 0.0
H553 H 0.78721 0.79537 0.49916 0.0
H554 H 0.70611 0.75999 0.50963 0.0
H555 H 0.71584 0.76333 0.53864 0.0
C556 C 0.7083 0.79151 0.46259 0.0
C557 C 0.72805 0.78233 0.45116 0.0
C558 C 0.71372 0.78905 0.47917 0.0
C559 C 0.73914 0.7777 0.48464 0.0
C560 C 0.75862 0.76795 0.47322 0.0
C561 C 0.75305 0.77006 0.45664 0.0
C562 C 0.77717 0.79007 0.52426 0.0
C563 C 0.75711 0.7815 0.53567 0.0
C564 C 0.77167 0.78792 0.50768 0.0
C565 C 0.74587 0.7775 0.50217 0.0
C566 C 0.72607 0.7683 0.51356 0.0
C567 C 0.73172 0.77008 0.53015 0.0
H568 H 0.98474 0.99179 0.28494 0.0
H569 H 0.90354 0.02942 0.27751 0.0
H570 H 0.98706 0.98005 0.25603 0.0
H571 H 0.90576 0.01727 0.24883 0.0
H572 H 0.90481 0.95572 0.20583 0.0
H573 H 0.90653 0.96787 0.23452 0.0
H574 H 0.98676 0.00742 0.2275 0.0
H575 H 0.98494 -0.00431 0.19858 0.0
C576 C 0.96753 -0.00227 0.27713 0.0
C577 C 0.94393 0.01146 0.28349 0.0
C578 C 0.96891 0.99106 0.26063 0.0
C579 C 0.94647 -0.00245 0.25031 0.0
C580 C 0.92319 0.0118 0.2566 0.0
C581 C 0.92202 0.01888 0.27299 0.0
C582 C 0.92296 0.96677 0.21039 0.0
C583 C 0.94469 0.97485 0.19994 0.0
C584 C 0.92384 0.97385 0.22679 0.0
C585 C 0.94666 0.98875 0.23313 0.0
C586 C 0.96896 -0.0041 0.22286 0.0
C587 C 0.96787 0.98923 0.20635 0.0
H588 H 0.78046 0.15871 0.95808 0.0
H589 H 0.74155 0.23933 0.95076 0.0
H590 H 0.76799 0.16051 0.98672 0.0
H591 H 0.7295 0.24123 0.97963 0.0
H592 H 0.74401 0.23864 0.03718 0.0
H593 H 0.75636 0.24101 0.00837 0.0
H594 H 0.71819 0.16029 0.00063 0.0
H595 H 0.70542 0.15802 0.02921 0.0
C596 C 0.76961 0.177 0.96262 0.0
C597 C 0.76188 0.19883 0.95216 0.0
C598 C 0.76234 0.17792 0.97899 0.0
C599 C 0.7476 0.20089 0.98528 0.0
C600 C 0.74089 0.22331 0.97502 0.0
C601 C 0.74775 0.22218 0.95854 0.0
C602 C 0.73797 0.22158 0.02927 0.0
C603 C 0.7238 0.19811 0.03545 0.0
C604 C 0.745 0.22298 0.01283 0.0
C605 C 0.73844 0.2007 0.00239 0.0
C606 C 0.72373 0.17759 0.00849 0.0
C607 C 0.71629 0.1764 0.02482 0.0
H608 H 0.934 0.54768 0.70931 0.0
H609 H 0.9701 0.46723 0.69771 0.0
H610 H 0.93828 0.53719 0.73815 0.0
H611 H 0.97417 0.45673 0.72659 0.0
H612 H 0.9348 0.43788 0.77778 0.0
H613 H 0.93811 0.44807 0.74884 0.0
H614 H 0.97538 0.52819 0.75972 0.0
H615 H 0.97226 0.518 0.78866 0.0
C616 C 0.94309 0.52788 0.71292 0.0
C617 C 0.95163 0.50825 0.70125 0.0
C618 C 0.94566 0.52194 0.72942 0.0
C619 C 0.95649 0.49611 0.73459 0.0
C620 C 0.96557 0.47671 0.72293 0.0
C621 C 0.96335 0.4828 0.70642 0.0
C622 C 0.94402 0.45751 0.77399 0.0
C623 C 0.95317 0.47718 0.78549 0.0
C624 C 0.94602 0.46328 0.75743 0.0
C625 C 0.95689 0.48897 0.75206 0.0
C626 C 0.9667 0.50833 0.76354 0.0
C627 C 0.96504 0.50241 0.78009 0.0
H628 H 0.74328 0.7344 0.03531 0.0
H629 H 0.78054 0.65301 0.0279 0.0
H630 H 0.73193 0.73687 0.00637 0.0
H631 H 0.76876 0.65538 -0.00083 0.0
H632 H 0.7068 0.6551 0.9562 0.0
H633 H 0.71938 0.65648 0.98482 0.0
H634 H 0.75947 0.73645 0.97786 0.0
H635 H 0.74732 0.73495 0.94899 0.0
C636 C 0.74923 0.71719 0.0275 0.0
C637 C 0.76273 0.69348 0.03387 0.0
C638 C 0.7428 0.71865 0.01097 0.0
C639 C 0.74928 0.69621 0.00065 0.0
C640 C 0.76332 0.67283 0.00695 0.0
C641 C 0.77018 0.67157 0.02336 0.0
C642 C 0.7181 0.67311 0.96076 0.0
C643 C 0.72615 0.69488 0.95034 0.0
C644 C 0.72542 0.67379 0.97712 0.0
C645 C 0.74055 0.69646 0.98346 0.0
C646 C 0.74778 0.71876 0.97322 0.0
C647 C 0.74087 0.71785 0.95674 0.0
H648 H 0.55317 0.54882 0.27677 0.0
H649 H 0.51121 0.4712 0.28809 0.0
H650 H 0.54865 0.53858 0.24787 0.0
H651 H 0.50699 0.46088 0.25917 0.0
H652 H 0.54783 0.43918 0.20853 0.0
H653 H 0.5441 0.4499 0.23741 0.0
H654 H 0.51091 0.5315 0.22594 0.0
H655 H 0.51434 0.52074 0.19704 0.0
C656 C 0.54271 0.52974 0.27308 0.0
C657 C 0.53263 0.51078 0.28469 0.0
C658 C 0.54002 0.52395 0.25655 0.0
C659 C 0.52756 0.49889 0.25132 0.0
C660 C 0.51685 0.48025 0.2629 0.0
C661 C 0.51915 0.48625 0.27943 0.0
C662 C 0.5394 0.45926 0.21217 0.0
C663 C 0.53147 0.47915 0.20053 0.0
C664 C 0.53715 0.46534 0.22869 0.0
C665 C 0.5273 0.49156 0.23387 0.0
C666 C 0.51874 0.5112 0.22225 0.0
C667 C 0.52059 0.50497 0.20573 0.0
H668 H 0.74539 0.25189 0.53509 0.0
H669 H 0.70478 0.33164 0.52769 0.0
H670 H 0.75708 0.24993 0.50618 0.0
H671 H 0.71683 0.32976 0.49899 0.0
H672 H 0.77787 0.33317 0.45597 0.0
H673 H 0.76571 0.33109 0.48462 0.0
H674 H 0.73034 0.24888 0.47772 0.0
H675 H 0.74213 0.25101 0.44883 0.0
C676 C 0.73877 0.26884 0.52728 0.0
C677 C 0.72425 0.29196 0.53365 0.0
C678 C 0.74541 0.26767 0.51078 0.0
C679 C 0.73807 0.28982 0.50047 0.0
C680 C 0.72298 0.31257 0.50676 0.0
C681 C 0.71595 0.31354 0.52316 0.0
C682 C 0.76774 0.31451 0.46055 0.0
C683 C 0.76085 0.29229 0.45013 0.0
C684 C 0.76064 0.31343 0.47693 0.0
C685 C 0.74688 0.28994 0.48329 0.0
C686 C 0.74096 0.2672 0.47307 0.0
C687 C 0.74766 0.26846 0.45657 0.0
H688 H 0.08395 0.45502 0.27886 0.0
H689 H 0.00295 0.4931 0.28629 0.0
H690 H 0.08197 0.46746 0.25022 0.0
H691 H 0.00087 0.50514 0.25744 0.0
H692 H 0.00261 0.49017 0.20009 0.0
H693 H 0.00087 0.4782 0.22896 0.0
H694 H 0.08167 0.51666 0.23594 0.0
H695 H 0.08332 0.52903 0.20729 0.0
C696 C 0.06557 0.46572 0.27434 0.0
C697 C 0.04364 0.47318 0.28483 0.0
C698 C 0.06454 0.47298 0.25798 0.0
C699 C 0.04138 0.48743 0.25172 0.0
C700 C 0.01893 0.49397 0.26202 0.0
C701 C 0.02017 0.48713 0.27849 0.0
C702 C 0.01983 0.49634 0.20785 0.0
C703 C 0.04313 0.51047 0.20144 0.0
C704 C 0.01879 0.48953 0.22432 0.0
C705 C 0.04126 0.49631 0.23456 0.0
C706 C 0.06423 0.51096 0.22823 0.0
C707 C 0.06506 0.51817 0.21186 0.0
H708 H 0.21774 0.26509 0.03722 0.0
H709 H 0.29777 0.3016 0.02516 0.0
H710 H 0.2067 0.26087 0.0084 0.0
H711 H 0.28676 0.29709 -0.00365 0.0
H712 H 0.26601 0.2624 0.94595 0.0
H713 H 0.27698 0.25923 0.97482 0.0
H714 H 0.19779 0.29784 0.98636 0.0
H715 H 0.18689 0.30132 0.95751 0.0
C716 C 0.23312 0.27187 0.02842 0.0
C717 C 0.25859 0.28379 0.03344 0.0
C718 C 0.22673 0.26956 0.01195 0.0
C719 C 0.24585 0.27871 0.00019 0.0
C720 C 0.27174 0.28967 0.00518 0.0
C721 C 0.27797 0.29237 0.02166 0.0
C722 C 0.25079 0.26989 0.95465 0.0
C723 C 0.22563 0.28221 0.94947 0.0
C724 C 0.25715 0.26819 0.97115 0.0
C725 C 0.23827 0.27836 0.98278 0.0
C726 C 0.21263 0.28966 0.97764 0.0
C727 C 0.20645 0.29175 0.96114 0.0
H728 H 0.40444 0.5276 0.78092 0.0
H729 H 0.48604 0.49097 0.78864 0.0
H730 H 0.40686 0.51502 0.75234 0.0
H731 H 0.48853 0.47877 0.75978 0.0
H732 H 0.48562 0.49339 0.70211 0.0
H733 H 0.48775 0.50549 0.73097 0.0
H734 H 0.40804 0.46519 0.73854 0.0
H735 H 0.406 0.45271 0.70991 0.0
C736 C 0.42307 0.51721 0.77648 0.0
C737 C 0.445 0.51015 0.78704 0.0
C738 C 0.42434 0.50988 0.76014 0.0
C739 C 0.44775 0.49572 0.75396 0.0
C740 C 0.47027 0.48969 0.76431 0.0
C741 C 0.4688 0.49663 0.78078 0.0
C742 C 0.46875 0.48682 0.70999 0.0
C743 C 0.44559 0.47219 0.70375 0.0
C744 C 0.47002 0.4937 0.72647 0.0
C745 C 0.44792 0.48649 0.73686 0.0
C746 C 0.42519 0.47123 0.7307 0.0
C747 C 0.42413 0.46397 0.71434 0.0
H748 H 0.26964 0.71797 0.53935 0.0
H749 H 0.18987 0.68028 0.52786 0.0
H750 H 0.27999 0.7222 0.51045 0.0
H751 H 0.2002 0.68473 0.49899 0.0
H752 H 0.21879 0.71957 0.4485 0.0
H753 H 0.20855 0.72234 0.47747 0.0
H754 H 0.28915 0.68603 0.48819 0.0
H755 H 0.29937 0.68302 0.45924 0.0
C756 C 0.25419 0.71089 0.53066 0.0
C757 C 0.22898 0.69869 0.53586 0.0
C758 C 0.26019 0.71321 0.51414 0.0
C759 C 0.24092 0.70375 0.50252 0.0
C760 C 0.21533 0.69241 0.50771 0.0
C761 C 0.20949 0.68973 0.52422 0.0
C762 C 0.23446 0.71249 0.45705 0.0
C763 C 0.25985 0.70097 0.45161 0.0
C764 C 0.22852 0.71395 0.47361 0.0
C765 C 0.24801 0.70431 0.48504 0.0
C766 C 0.27383 0.6938 0.47963 0.0
C767 C 0.27962 0.69197 0.46307 0.0
H768 H 0.411 0.92894 0.1244 0.0
H769 H 0.34147 0.97491 0.14476 0.0
H770 H 0.3783 0.89391 0.11372 0.0
H771 H 0.30911 0.94021 0.13399 0.0
H772 H 0.26121 0.89515 0.09354 0.0
H773 H 0.29599 0.92714 0.10458 0.0
H774 H 0.34134 0.85743 0.12492 0.0
H775 H 0.3062 0.82511 0.11397 0.0
C776 C 0.38882 0.93147 0.12666 0.0
C777 C 0.37878 0.95473 0.13533 0.0
C778 C 0.37019 0.91142 0.12061 0.0
C779 C 0.34126 0.91457 0.12295 0.0
C780 C 0.33132 0.93751 0.13188 0.0
C781 C 0.34988 0.95728 0.13809 0.0
C782 C 0.27863 0.88656 0.1003 0.0
C783 C 0.28091 0.85763 0.10297 0.0
C784 C 0.29845 0.9049 0.10667 0.0
C785 C 0.32117 0.89471 0.11567 0.0
C786 C 0.324 0.86574 0.11797 0.0
C787 C 0.30388 0.84733 0.11177 0.0
H788 H 0.30764 0.15816 0.37492 0.0
H789 H 0.26179 0.08851 0.39514 0.0
H790 H 0.34332 0.12568 0.36478 0.0
H791 H 0.29715 0.05634 0.38492 0.0
H792 H 0.34352 0.00849 0.34492 0.0
H793 H 0.311 0.04298 0.35571 0.0
H794 H 0.37991 0.08922 0.37637 0.0
H795 H 0.41279 0.05436 0.36565 0.0
C796 C 0.30527 0.136 0.37726 0.0
C797 C 0.28185 0.12585 0.38573 0.0
C798 C 0.3257 0.11749 0.37153 0.0
C799 C 0.32278 0.08857 0.37399 0.0
C800 C 0.29969 0.07854 0.38272 0.0
C801 C 0.27953 0.09699 0.38862 0.0
C802 C 0.35184 0.02603 0.3517 0.0
C803 C 0.38071 0.02866 0.35451 0.0
C804 C 0.33318 0.04568 0.35793 0.0
C805 C 0.343 0.06857 0.36694 0.0
C806 C 0.3719 0.07173 0.36942 0.0
C807 C 0.39063 0.05178 0.36335 0.0
H808 H 0.07227 0.05489 0.62234 0.0
H809 H 0.14139 0.0096 0.64361 0.0
H810 H 0.10507 0.09029 0.61221 0.0
H811 H 0.17383 0.04463 0.63339 0.0
H812 H 0.22318 0.09029 0.59395 0.0
H813 H 0.18804 0.05795 0.60418 0.0
H814 H 0.14125 0.12709 0.62415 0.0
H815 H 0.17674 0.15978 0.614 0.0
C816 C 0.09438 0.05257 0.62491 0.0
C817 C 0.10429 0.02941 0.63369 0.0
C818 C 0.11305 0.07284 0.61918 0.0
C819 C 0.14191 0.06997 0.62194 0.0
C820 C 0.15169 0.04712 0.63096 0.0
C821 C 0.13308 0.02714 0.63685 0.0
C822 C 0.20537 0.09869 0.60045 0.0
C823 C 0.2028 0.12757 0.60326 0.0
C824 C 0.18534 0.08015 0.60635 0.0
C825 C 0.16212 0.09008 0.61503 0.0
C826 C 0.15898 0.11899 0.61745 0.0
C827 C 0.1793 0.13761 0.61171 0.0
H828 H 0.07236 0.92824 0.8629 0.0
H829 H 0.14129 0.97479 0.84237 0.0
H830 H 0.10548 0.89347 0.87342 0.0
H831 H 0.17406 0.9404 0.85298 0.0
H832 H 0.22315 0.89512 0.89267 0.0
H833 H 0.1877 0.92702 0.88231 0.0
H834 H 0.14258 0.8574 0.86162 0.0
H835 H 0.17837 0.82517 0.87188 0.0
C836 C 0.0945 0.93098 0.86059 0.0
C837 C 0.10426 0.95428 0.85188 0.0
C838 C 0.11337 0.91108 0.86655 0.0
C839 C 0.14224 0.91447 0.86408 0.0
C840 C 0.1519 0.93751 0.85518 0.0
C841 C 0.13311 0.95711 0.84906 0.0
C842 C 0.20563 0.88652 0.88599 0.0
C843 C 0.20362 0.85765 0.88299 0.0
C844 C 0.18543 0.90482 0.88002 0.0
C845 C 0.16259 0.89462 0.8711 0.0
C846 C 0.16 0.8657 0.86851 0.0
C847 C 0.1805 0.84734 0.87431 0.0
H848 H 0.67676 0.16649 0.87429 0.0
H849 H 0.72038 0.09642 0.89569 0.0
H850 H 0.64086 0.13432 0.86388 0.0
H851 H 0.68498 0.06471 0.88515 0.0
H852 H 0.64209 0.0179 0.84349 0.0
H853 H 0.67341 0.05334 0.85439 0.0
H854 H 0.60329 0.09601 0.87617 0.0
H855 H 0.57153 0.06005 0.8654 0.0
C856 C 0.67857 0.14434 0.87686 0.0
C857 C 0.70148 0.13394 0.88569 0.0
C858 C 0.65803 0.12605 0.87097 0.0
C859 C 0.66043 0.09714 0.87364 0.0
C860 C 0.68288 0.08692 0.88282 0.0
C861 C 0.70308 0.10512 0.88888 0.0
C862 C 0.6332 0.03487 0.85051 0.0
C863 C 0.60436 0.03608 0.8537 0.0
C864 C 0.65118 0.05509 0.85678 0.0
C865 C 0.64069 0.07717 0.86618 0.0
C866 C 0.61176 0.07912 0.86892 0.0
C867 C 0.5937 0.05855 0.86282 0.0
H868 H 0.57211 0.92847 0.62394 0.0
H869 H 0.64374 0.97354 0.64245 0.0
H870 H 0.60347 0.89234 0.61306 0.0
H871 H 0.67472 0.93786 0.63146 0.0
H872 H 0.71959 0.8906 0.59092 0.0
H873 H 0.68525 0.92346 0.60154 0.0
H874 H 0.64113 0.85561 0.62467 0.0
H875 H 0.67588 0.82241 0.61417 0.0
C876 C 0.59445 0.93059 0.62574 0.0
C877 C 0.60548 0.95388 0.63397 0.0
C878 C 0.61232 0.90993 0.61957 0.0
C879 C 0.64143 0.91256 0.62133 0.0
C880 C 0.65234 0.93556 0.6298 0.0
C881 C 0.63457 0.9559 0.63614 0.0
C882 C 0.7025 0.88257 0.59817 0.0
C883 C 0.70054 0.85393 0.60182 0.0
C884 C 0.68292 0.90142 0.60428 0.0
C885 C 0.66075 0.89202 0.61399 0.0
C886 C 0.65806 0.86329 0.61717 0.0
C887 C 0.67796 0.84438 0.61123 0.0
H888 H 0.80972 0.82213 0.37284 0.0
H889 H 0.76441 0.89118 0.39423 0.0
H890 H 0.84423 0.85511 0.36191 0.0
H891 H 0.79855 0.92381 0.3832 0.0
H892 H 0.8412 0.97236 0.34227 0.0
H893 H 0.81009 0.93694 0.3534 0.0
H894 H 0.88104 0.89258 0.37302 0.0
H895 H 0.91251 0.9284 0.36199 0.0
C896 C 0.80723 0.84426 0.37528 0.0
C897 C 0.78429 0.85409 0.38431 0.0
C898 C 0.82699 0.86305 0.36909 0.0
C899 C 0.82382 0.89193 0.37163 0.0
C900 C 0.80125 0.90164 0.38093 0.0
C901 C 0.78179 0.88293 0.38729 0.0
C902 C 0.85027 0.95501 0.34887 0.0
C903 C 0.8793 0.95325 0.35135 0.0
C904 C 0.83243 0.93482 0.35529 0.0
C905 C 0.84321 0.91224 0.36415 0.0
C906 C 0.87229 0.90983 0.3662 0.0
C907 C 0.89021 0.93033 0.35995 0.0
H908 H 0.80726 0.16459 0.11332 0.0
H909 H 0.76284 0.09467 0.09222 0.0
H910 H 0.84314 0.13227 0.12355 0.0
H911 H 0.79823 0.0628 0.10257 0.0
H912 H 0.84241 0.01527 0.14326 0.0
H913 H 0.81073 0.05082 0.13289 0.0
H914 H 0.88028 0.09436 0.11112 0.0
H915 H 0.91238 0.05832 0.12137 0.0
C916 C 0.80526 0.14244 0.11079 0.0
C917 C 0.78215 0.13214 0.10207 0.0
C918 C 0.82578 0.12405 0.11658 0.0
C919 C 0.82318 0.09514 0.11393 0.0
C920 C 0.80049 0.085 0.10489 0.0
C921 C 0.7803 0.1033 0.09894 0.0
C922 C 0.85109 0.03246 0.13636 0.0
C923 C 0.87988 0.03388 0.13301 0.0
C924 C 0.83291 0.05275 0.13039 0.0
C925 C 0.84313 0.07511 0.12113 0.0
C926 C 0.872 0.07727 0.11826 0.0
C927 C 0.89026 0.05665 0.12407 0.0
H928 H 0.7622 0.39501 0.59258 0.0
H929 H 0.80824 0.32438 0.61151 0.0
H930 H 0.79728 0.4267 0.60355 0.0
H931 H 0.84374 0.35647 0.62236 0.0
H932 H 0.91251 0.42966 0.62179 0.0
H933 H 0.88003 0.39455 0.61092 0.0
H934 H 0.81097 0.43782 0.63346 0.0
H935 H 0.84311 0.47253 0.64444 0.0
C936 C 0.77993 0.38621 0.59897 0.0
C937 C 0.78238 0.3572 0.60128 0.0
C938 C 0.79993 0.40439 0.60529 0.0
C939 C 0.82301 0.39397 0.61388 0.0
C940 C 0.82609 0.36493 0.61575 0.0
C941 C 0.80578 0.34666 0.6096 0.0
C942 C 0.89041 0.4315 0.6245 0.0
C943 C 0.88032 0.45391 0.63388 0.0
C944 C 0.87192 0.41139 0.61835 0.0
C945 C 0.84308 0.41371 0.62129 0.0
C946 C 0.83312 0.43578 0.63091 0.0
C947 C 0.85155 0.45556 0.63723 0.0
H948 H 0.84394 0.51402 0.84055 0.0
H949 H 0.91222 0.55934 0.86275 0.0
H950 H 0.81106 0.54891 0.85056 0.0
H951 H 0.879 0.59462 0.87263 0.0
H952 H 0.80617 0.66337 0.87095 0.0
H953 H 0.84205 0.63142 0.86036 0.0
H954 H 0.79698 0.56122 0.8803 0.0
H955 H 0.76155 0.59278 0.89101 0.0
C956 C 0.85198 0.53157 0.84744 0.0
C957 C 0.88064 0.53384 0.85098 0.0
C958 C 0.83313 0.55147 0.8532 0.0
C959 C 0.84256 0.57425 0.86242 0.0
C960 C 0.87131 0.57721 0.86549 0.0
C961 C 0.89022 0.55701 0.85991 0.0
C962 C 0.80408 0.64112 0.87312 0.0
C963 C 0.78102 0.63055 0.88174 0.0
C964 C 0.8246 0.62294 0.86713 0.0
C965 C 0.82204 0.59395 0.86944 0.0
C966 C 0.79922 0.58349 0.87822 0.0
C967 C 0.77902 0.60159 0.8844 0.0
H968 H 0.67838 0.66222 0.11196 0.0
H969 H 0.72327 0.59081 0.09302 0.0
H970 H 0.64249 0.63073 0.12292 0.0
H971 H 0.68781 0.55969 0.10409 0.0
H972 H 0.64114 0.51454 0.14478 0.0
H973 H 0.67388 0.5488 0.13397 0.0
H974 H 0.60562 0.5933 0.11148 0.0
H975 H 0.57254 0.55866 0.12217 0.0
C976 C 0.68051 0.63989 0.11008 0.0
C977 C 0.70369 0.62896 0.10171 0.0
C978 C 0.65998 0.62196 0.11629 0.0
C979 C 0.66262 0.59287 0.11444 0.0
C980 C 0.6855 0.58205 0.10583 0.0
C981 C 0.70571 0.5999 0.09943 0.0
C982 C 0.63301 0.53169 0.13763 0.0
C983 C 0.60428 0.53381 0.13422 0.0
C984 C 0.65178 0.55122 0.1314 0.0
C985 C 0.64222 0.57349 0.12183 0.0
C986 C 0.61342 0.5763 0.11888 0.0
C987 C 0.59459 0.55646 0.12493 0.0
H988 H 0.69237 0.328 0.35992 0.0
H989 H 0.69738 0.37928 0.40295 0.0
H990 H 0.65532 0.35836 0.34932 0.0
H991 H 0.66016 0.40922 0.39248 0.0
H992 H 0.5766 0.44311 0.37364 0.0
H993 H 0.6074 0.4064 0.38412 0.0
H994 H 0.65735 0.41114 0.34065 0.0
H995 H 0.62691 0.44807 0.33026 0.0
C996 C 0.68524 0.34546 0.36721 0.0
C997 C 0.6978 0.35143 0.3822 0.0
C998 C 0.66417 0.36283 0.36113 0.0
C999 C 0.65497 0.38604 0.37011 0.0
C1000 C 0.66674 0.3913 0.38539 0.0
C1001 C 0.68812 0.37428 0.39133 0.0
C1002 C 0.59395 0.43605 0.36625 0.0
C1003 C 0.59951 0.44852 0.35119 0.0
C1004 C 0.61156 0.41515 0.37226 0.0
C1005 C 0.63466 0.40602 0.36317 0.0
C1006 C 0.63952 0.41767 0.34782 0.0
C1007 C 0.62223 0.43889 0.34194 0.0
H1008 H 0.07485 0.55599 0.36314 0.0
H1009 H 0.14599 0.51082 0.34409 0.0
H1010 H 0.10655 0.59175 0.37409 0.0
H1011 H 0.17731 0.54616 0.35515 0.0
H1012 H 0.223 0.59261 0.3957 0.0
H1013 H 0.18845 0.56003 0.385 0.0
H1014 H 0.14404 0.62846 0.36263 0.0
H1015 H 0.17897 0.66138 0.37322 0.0
C1016 C 0.09716 0.55377 0.36124 0.0
C1017 C 0.10796 0.53055 0.35284 0.0
C1018 C 0.11521 0.57423 0.36744 0.0
C1019 C 0.14428 0.57146 0.36555 0.0
C1020 C 0.15497 0.54855 0.35691 0.0
C1021 C 0.137 0.52841 0.35053 0.0
C1022 C 0.20581 0.60082 0.38859 0.0
C1023 C 0.2038 0.62954 0.38519 0.0
C1024 C 0.18611 0.58214 0.38243 0.0
C1025 C 0.16379 0.59179 0.37292 0.0
C1026 C 0.16109 0.62059 0.36998 0.0
C1027 C 0.18109 0.63933 0.37597 0.0
H1028 H 0.22295 0.39274 0.09034 0.0
H1029 H 0.17951 0.32293 0.11211 0.0
H1030 H 0.18813 0.4247 0.10136 0.0
H1031 H 0.14429 0.35524 0.12302 0.0
H1032 H 0.0745 0.42743 0.12286 0.0
H1033 H 0.1065 0.39206 0.11177 0.0
H1034 H 0.17681 0.43753 0.13138 0.0
H1035 H 0.14521 0.47247 0.14256 0.0
C1036 C 0.20584 0.38418 0.09736 0.0
C1037 C 0.20407 0.35534 0.10047 0.0
C1038 C 0.18598 0.4025 0.1037 0.0
C1039 C 0.16374 0.39238 0.1131 0.0
C1040 C 0.16128 0.36347 0.11576 0.0
C1041 C 0.18144 0.34508 0.10959 0.0
C1042 C 0.09677 0.42969 0.12488 0.0
C1043 C 0.10737 0.45278 0.13349 0.0
C1044 C 0.11499 0.40946 0.1186 0.0
C1045 C 0.14403 0.41232 0.12063 0.0
C1046 C 0.1545 0.43507 0.1295 0.0
C1047 C 0.13637 0.45498 0.13595 0.0
H1048 H 0.35823 0.44576 0.8326 0.0
H1049 H 0.40698 0.44086 0.87658 0.0
H1050 H 0.32803 0.40821 0.84234 0.0
H1051 H 0.3764 0.40339 0.88643 0.0
H1052 H 0.28612 0.37497 0.90401 0.0
H1053 H 0.32376 0.4051 0.89428 0.0
H1054 H 0.3296 0.35583 0.85055 0.0
H1055 H 0.29206 0.32534 0.86036 0.0
C1056 C 0.36265 0.43643 0.84427 0.0
C1057 C 0.38481 0.4463 0.85389 0.0
C1058 C 0.3455 0.41484 0.84979 0.0
C1059 C 0.34992 0.403 0.86512 0.0
C1060 C 0.37256 0.41229 0.87457 0.0
C1061 C 0.39005 0.43361 0.86892 0.0
C1062 C 0.29566 0.37036 0.89241 0.0
C1063 C 0.28608 0.34795 0.88288 0.0
C1064 C 0.31732 0.38747 0.88691 0.0
C1065 C 0.32951 0.38273 0.87169 0.0
C1066 C 0.32044 0.35991 0.86232 0.0
C1067 C 0.29906 0.34248 0.86794 0.0
H1068 H 0.34217 0.51203 0.64637 0.0
H1069 H 0.41255 0.55596 0.62554 0.0
H1070 H 0.3105 0.5471 0.63542 0.0
H1071 H 0.38049 0.59146 0.61469 0.0
H1072 H 0.3081 0.66116 0.615 0.0
H1073 H 0.34323 0.62893 0.62607 0.0
H1074 H 0.29847 0.55911 0.60534 0.0
H1075 H 0.26376 0.59098 0.59417 0.0
C1076 C 0.35093 0.52931 0.63957 0.0
C1077 C 0.37984 0.53114 0.6367 0.0
C1078 C 0.33276 0.54931 0.63327 0.0
C1079 C 0.34311 0.57176 0.62413 0.0
C1080 C 0.37209 0.5743 0.62174 0.0
C1081 C 0.39034 0.55399 0.62788 0.0
C1082 C 0.30593 0.63895 0.61273 0.0
C1083 C 0.28312 0.62856 0.60381 0.0
C1084 C 0.32604 0.6206 0.619 0.0
C1085 C 0.32332 0.59163 0.61663 0.0
C1086 C 0.30083 0.58137 0.60746 0.0
C1087 C 0.28104 0.59964 0.60103 0.0
H1088 H 0.36424 0.08169 0.10254 0.0
H1089 H 0.38934 0.11233 0.14964 0.0
H1090 H 0.33596 0.12339 0.09849 0.0
H1091 H 0.36161 0.15448 0.14537 0.0
H1092 H 0.2894 0.21514 0.13904 0.0
H1093 H 0.31414 0.1712 0.1433 0.0
H1094 H 0.34197 0.17244 0.0935 0.0
H1095 H 0.31665 0.21591 0.08911 0.0
C1096 C 0.36384 0.09737 0.11201 0.0
C1097 C 0.37915 0.09368 0.1264 0.0
C1098 C 0.3477 0.12137 0.10965 0.0
C1099 C 0.34656 0.14235 0.12157 0.0
C1100 C 0.3617 0.13856 0.13602 0.0
C1101 C 0.37776 0.11447 0.13843 0.0
C1102 C 0.3006 0.20592 0.12896 0.0
C1103 C 0.30106 0.21909 0.11374 0.0
C1104 C 0.31496 0.18082 0.13144 0.0
C1105 C 0.33019 0.16835 0.11878 0.0
C1106 C 0.33018 0.18126 0.10348 0.0
C1107 C 0.31573 0.20628 0.10097 0.0
H1108 H 0.12341 0.13761 0.39959 0.0
H1109 H 0.15333 0.11206 0.35243 0.0
H1110 H 0.08075 0.11066 0.39535 0.0
H1111 H 0.11108 0.08453 0.34839 0.0
H1112 H 0.01892 0.03942 0.38912 0.0
H1113 H 0.06324 0.06353 0.3933 0.0
H1114 H 0.06207 0.09125 0.3435 0.0
H1115 H 0.01819 0.06653 0.33918 0.0
C1116 C 0.121 0.12608 0.38837 0.0
C1117 C 0.14175 0.12712 0.37633 0.0
C1118 C 0.09661 0.11047 0.38598 0.0
C1119 C 0.09246 0.09543 0.37152 0.0
C1120 C 0.11338 0.09621 0.35957 0.0
C1121 C 0.13769 0.11191 0.36192 0.0
C1122 C 0.02822 0.05047 0.37902 0.0
C1123 C 0.01495 0.05106 0.36382 0.0
C1124 C 0.05354 0.06447 0.38146 0.0
C1125 C 0.06616 0.07948 0.36877 0.0
C1126 C 0.05314 0.07962 0.35349 0.0
C1127 C 0.02788 0.06553 0.35103 0.0
H1128 H 0.09492 0.87223 0.64872 0.0
H1129 H 0.12155 0.902 0.60176 0.0
H1130 H 0.12365 0.83054 0.64525 0.0
H1131 H 0.15082 0.86076 0.5985 0.0
H1132 H 0.17174 0.76817 0.59024 0.0
H1133 H 0.14581 0.81149 0.59386 0.0
H1134 H 0.17151 0.81458 0.64402 0.0
H1135 H 0.19687 0.77076 0.64053 0.0
C1136 C 0.10704 0.87 0.63771 0.0
C1137 C 0.10578 0.8904 0.62548 0.0
C1138 C 0.12369 0.84617 0.63577 0.0
C1139 C 0.13955 0.84227 0.62159 0.0
C1140 C 0.13854 0.86287 0.60947 0.0
C1141 C 0.12182 0.8866 0.61137 0.0
C1142 C 0.17208 0.77818 0.60202 0.0
C1143 C 0.18631 0.7659 0.61511 0.0
C1144 C 0.15729 0.80312 0.60408 0.0
C1145 C 0.15646 0.81648 0.61926 0.0
C1146 C 0.17131 0.80459 0.63224 0.0
C1147 C 0.18604 0.77957 0.6302 0.0
H1148 H 0.47785 0.92425 0.89077 0.0
H1149 H 0.45524 0.9437 0.84142 0.0
H1150 H 0.43475 0.89804 0.89402 0.0
H1151 H 0.41106 0.91897 0.8449 0.0
H1152 H 0.34964 0.84709 0.84981 0.0
H1153 H 0.39204 0.87466 0.84669 0.0
H1154 H 0.38691 0.89922 0.89708 0.0
H1155 H 0.34554 0.8701 0.90033 0.0
C1156 C 0.46332 0.92339 0.8807 0.0
C1157 C 0.46993 0.93596 0.86582 0.0
C1158 C 0.43844 0.90845 0.88258 0.0
C1159 C 0.4192 0.90621 0.86973 0.0
C1160 C 0.42554 0.9196 0.85498 0.0
C1161 C 0.45076 0.93403 0.85299 0.0
C1162 C 0.35768 0.85836 0.86021 0.0
C1163 C 0.3444 0.85632 0.87533 0.0
C1164 C 0.38189 0.87443 0.8584 0.0
C1165 C 0.39309 0.88938 0.87161 0.0
C1166 C 0.37941 0.8876 0.88669 0.0
C1167 C 0.35555 0.87101 0.88857 0.0
H1168 H 0.29133 0.78137 0.39396 0.0
H1169 H 0.31324 0.75574 0.34543 0.0
H1170 H 0.31638 0.8252 0.39006 0.0
H1171 H 0.33975 0.79866 0.34178 0.0
H1172 H 0.36954 0.88763 0.33504 0.0
H1173 H 0.33962 0.84672 0.3381 0.0
H1174 H 0.36157 0.84248 0.3889 0.0
H1175 H 0.39001 0.88427 0.38594 0.0
C1176 C 0.30156 0.78514 0.38246 0.0
C1177 C 0.30036 0.76515 0.37001 0.0
C1178 C 0.31618 0.81016 0.38024 0.0
C1179 C 0.33051 0.8155 0.36566 0.0
C1180 C 0.32872 0.79563 0.3531 0.0
C1181 C 0.31359 0.77089 0.3552 0.0
C1182 C 0.36789 0.8779 0.34684 0.0
C1183 C 0.38208 0.88914 0.36025 0.0
C1184 C 0.35082 0.85434 0.34861 0.0
C1185 C 0.348 0.84114 0.36378 0.0
C1186 C 0.36256 0.85234 0.37712 0.0
C1187 C 0.37913 0.8762 0.37541 0.0
H1188 H 0.36048 0.13948 0.58795 0.0
H1189 H 0.33195 0.11373 0.63534 0.0
H1190 H 0.40314 0.1123 0.59164 0.0
H1191 H 0.37419 0.08599 0.63881 0.0
H1192 H 0.46724 0.06765 0.64701 0.0
H1193 H 0.42336 0.09257 0.64321 0.0
H1194 H 0.42055 0.06506 0.59335 0.0
H1195 H 0.46489 0.04071 0.59702 0.0
C1196 C 0.36319 0.12787 0.5991 0.0
C1197 C 0.34284 0.12892 0.61138 0.0
C1198 C 0.38758 0.11213 0.60117 0.0
C1199 C 0.39212 0.09697 0.61553 0.0
C1200 C 0.37158 0.09776 0.62771 0.0
C1201 C 0.34728 0.11359 0.62568 0.0
C1202 C 0.4572 0.06673 0.63526 0.0
C1203 C 0.46966 0.05224 0.62231 0.0
C1204 C 0.43193 0.08095 0.6331 0.0
C1205 C 0.41844 0.08091 0.61796 0.0
C1206 C 0.43061 0.0659 0.6051 0.0
C1207 C 0.45594 0.05177 0.60724 0.0
H1208 H 0.09313 0.09872 0.88437 0.0
H1209 H 0.11397 0.09612 0.83351 0.0
H1210 H 0.12049 0.14123 0.88752 0.0
H1211 H 0.14283 0.13774 0.83675 0.0
H1212 H 0.16764 0.22878 0.84397 0.0
H1213 H 0.1414 0.18568 0.84049 0.0
H1214 H 0.16512 0.15989 0.88881 0.0
H1215 H 0.18992 0.20394 0.89256 0.0
C1216 C 0.10387 0.10711 0.87389 0.0
C1217 C 0.10133 0.09418 0.85869 0.0
C1218 C 0.11981 0.1314 0.87571 0.0
C1219 C 0.13411 0.14305 0.86242 0.0
C1220 C 0.13175 0.12981 0.84722 0.0
C1221 C 0.11531 0.10584 0.84535 0.0
C1222 C 0.16736 0.2138 0.85381 0.0
C1223 C 0.18074 0.21977 0.86856 0.0
C1224 C 0.15241 0.18893 0.85179 0.0
C1225 C 0.15094 0.16913 0.86437 0.0
C1226 C 0.16514 0.17483 0.87897 0.0
C1227 C 0.1796 0.19999 0.8811 0.0
H1228 H 0.13536 0.84697 0.13482 0.0
H1229 H 0.13868 0.86873 0.08412 0.0
H1230 H 0.09279 0.87424 0.13791 0.0
H1231 H 0.09702 0.89752 0.08732 0.0
H1232 H 0.00572 0.92202 0.09426 0.0
H1233 H 0.04904 0.89613 0.09076 0.0
H1234 H 0.07403 0.91875 0.13943 0.0
H1235 H 0.02978 0.94316 0.14317 0.0
C1236 C 0.12712 0.8579 0.12437 0.0
C1237 C 0.14027 0.85564 0.10922 0.0
C1238 C 0.1028 0.8738 0.12615 0.0
C1239 C 0.09133 0.88835 0.1129 0.0
C1240 C 0.10479 0.88626 0.09776 0.0
C1241 C 0.1288 0.86986 0.09591 0.0
C1242 C 0.02059 0.9216 0.10416 0.0
C1243 C 0.01432 0.93451 0.11901 0.0
C1244 C 0.04558 0.90684 0.10214 0.0
C1245 C 0.0652 0.90511 0.11482 0.0
C1246 C 0.05923 0.91894 0.1295 0.0
C1247 C 0.03396 0.93319 0.13163 0.0
H1248 H 0.69322 0.78198 0.89451 0.0
H1249 H 0.67086 0.75901 0.8456 0.0
H1250 H 0.66984 0.82689 0.89106 0.0
H1251 H 0.64595 0.80287 0.84242 0.0
H1252 H 0.61963 0.89235 0.83588 0.0
H1253 H 0.64826 0.85057 0.83901 0.0
H1254 H 0.62607 0.84714 0.88981 0.0
H1255 H 0.59907 0.88989 0.88677 0.0
C1256 C 0.68319 0.78654 0.88304 0.0
C1257 C 0.68391 0.76704 0.87033 0.0
C1258 C 0.66954 0.81219 0.88108 0.0
C1259 C 0.65571 0.81866 0.86647 0.0
C1260 C 0.65675 0.79909 0.85373 0.0
C1261 C 0.67092 0.77377 0.85558 0.0
C1262 C 0.62102 0.88264 0.84771 0.0
C1263 C 0.60713 0.89433 0.86108 0.0
C1264 C 0.63731 0.85856 0.84952 0.0
C1265 C 0.63954 0.84519 0.86468 0.0
C1266 C 0.62548 0.85701 0.87802 0.0
C1267 C 0.60974 0.88144 0.87627 0.0
H1268 H 0.9644 0.94203 0.59389 0.0
H1269 H 0.96246 0.92075 0.64477 0.0
H1270 H 0.91988 0.91796 0.58997 0.0
H1271 H 0.91851 0.89619 0.64076 0.0
H1272 H 0.85889 0.84309 0.58644 0.0
H1273 H 0.90146 0.8707 0.58968 0.0
H1274 H 0.86992 0.90352 0.63493 0.0
H1275 H 0.82784 0.87545 0.63193 0.0
C1276 C 0.95446 0.93231 0.60425 0.0
C1277 C 0.96703 0.93333 0.61965 0.0
C1278 C 0.92904 0.91834 0.60197 0.0
C1279 C 0.91564 0.90507 0.61504 0.0
C1280 C 0.92802 0.90651 0.63047 0.0
C1281 C 0.95335 0.92051 0.63275 0.0
C1282 C 0.86101 0.85627 0.59705 0.0
C1283 C 0.84004 0.85686 0.60898 0.0
C1284 C 0.88535 0.87224 0.59886 0.0
C1285 C 0.88918 0.88924 0.61261 0.0
C1286 C 0.86789 0.89028 0.62434 0.0
C1287 C 0.84368 0.87425 0.62257 0.0
H1288 H 0.79132 0.2177 0.34472 0.0
H1289 H 0.81595 0.21879 0.3951 0.0
H1290 H 0.81542 0.17324 0.34107 0.0
H1291 H 0.84069 0.17478 0.39133 0.0
H1292 H 0.86187 0.08339 0.38294 0.0
H1293 H 0.83424 0.12573 0.38646 0.0
H1294 H 0.86243 0.15559 0.33985 0.0
H1295 H 0.88944 0.11288 0.33611 0.0
C1296 C 0.80185 0.20846 0.35502 0.0
C1297 C 0.80174 0.22187 0.3702 0.0
C1298 C 0.81583 0.18305 0.3529 0.0
C1299 C 0.83014 0.17049 0.36588 0.0
C1300 C 0.8296 0.18366 0.38112 0.0
C1301 C 0.81551 0.209 0.38326 0.0
C1302 C 0.86214 0.09895 0.37342 0.0
C1303 C 0.87794 0.09475 0.35925 0.0
C1304 C 0.84638 0.12331 0.37548 0.0
C1305 C 0.84614 0.14413 0.36346 0.0
C1306 C 0.8618 0.13983 0.34925 0.0
C1307 C 0.87744 0.11539 0.34715 0.0
H1308 H 0.65405 0.11307 0.13442 0.0
H1309 H 0.62309 0.1402 0.08781 0.0
H1310 H 0.61267 0.08409 0.13798 0.0
H1311 H 0.58129 0.11177 0.09159 0.0
H1312 H 0.52008 0.06437 0.14713 0.0
H1313 H 0.56361 0.08971 0.14311 0.0
H1314 H 0.56473 0.06412 0.09289 0.0
H1315 H 0.52066 0.03934 0.09679 0.0
C1316 C 0.63837 0.11296 0.12495 0.0
C1317 C 0.64186 0.12907 0.11086 0.0
C1318 C 0.61457 0.0964 0.12703 0.0
C1319 C 0.59358 0.09565 0.1151 0.0
C1320 C 0.59721 0.11155 0.10092 0.0
C1321 C 0.6211 0.12802 0.09881 0.0
C1322 C 0.52968 0.06393 0.13525 0.0
C1323 C 0.51678 0.0499 0.12227 0.0
C1324 C 0.55476 0.07838 0.13296 0.0
C1325 C 0.56765 0.07905 0.11766 0.0
C1326 C 0.55513 0.06441 0.10477 0.0
C1327 C 0.52996 0.05002 0.10704 0.0
H1328 H 0.67024 0.21737 0.58882 0.0
H1329 H 0.69784 0.21543 0.63868 0.0
H1330 H 0.64508 0.1737 0.59289 0.0
H1331 H 0.67326 0.17131 0.64261 0.0
H1332 H 0.59778 0.11289 0.64875 0.0
H1333 H 0.62572 0.15489 0.64465 0.0
H1334 H 0.65084 0.12445 0.59753 0.0
H1335 H 0.62231 0.08281 0.60143 0.0
C1336 C 0.67128 0.20745 0.60059 0.0
C1337 C 0.68596 0.22 0.61344 0.0
C1338 C 0.65693 0.1823 0.60291 0.0
C1339 C 0.65703 0.16904 0.6181 0.0
C1340 C 0.67235 0.18122 0.63083 0.0
C1341 C 0.68662 0.20642 0.62854 0.0
C1342 C 0.60929 0.11512 0.63752 0.0
C1343 C 0.60768 0.09452 0.62539 0.0
C1344 C 0.62548 0.13914 0.63521 0.0
C1345 C 0.64055 0.14306 0.62076 0.0
C1346 C 0.63918 0.12229 0.60871 0.0
C1347 C 0.6229 0.09835 0.61098 0.0
H1348 H 0.52442 0.94427 0.39076 0.0
H1349 H 0.52238 0.91884 0.34051 0.0
H1350 H 0.56852 0.91947 0.39434 0.0
H1351 H 0.56601 0.89345 0.34421 0.0
H1352 H 0.65685 0.87025 0.35233 0.0
H1353 H 0.61522 0.89891 0.34891 0.0
H1354 H 0.58509 0.87193 0.39571 0.0
H1355 H 0.62715 0.84382 0.39935 0.0
C1356 C 0.53341 0.93348 0.38046 0.0
C1357 C 0.5198 0.9335 0.36535 0.0
C1358 C 0.5586 0.91907 0.38255 0.0
C1359 C 0.57074 0.90428 0.3696 0.0
C1360 C 0.55745 0.90487 0.3544 0.0
C1361 C 0.53233 0.91936 0.35229 0.0
C1362 C 0.64139 0.87044 0.36192 0.0
C1363 C 0.64533 0.85464 0.3761 0.0
C1364 C 0.61743 0.88681 0.35992 0.0
C1365 C 0.59674 0.88769 0.37201 0.0
C1366 C 0.60078 0.87206 0.38625 0.0
C1367 C 0.62482 0.85578 0.38829 0.0
H1368 H 0.81505 0.76855 0.08894 0.0
H1369 H 0.79039 0.76905 0.13932 0.0
H1370 H 0.83943 0.81272 0.09283 0.0
H1371 H 0.81422 0.81366 0.1431 0.0
H1372 H 0.85988 0.90403 0.10132 0.0
H1373 H 0.83215 0.86175 0.09793 0.0
H1374 H 0.86156 0.83147 0.14421 0.0
H1375 H 0.88878 0.87414 0.14781 0.0
C1376 C 0.81452 0.77824 0.10081 0.0
C1377 C 0.80084 0.76517 0.11383 0.0
C1378 C 0.82841 0.80367 0.10302 0.0
C1379 C 0.82886 0.81671 0.1183 0.0
C1380 C 0.81466 0.80395 0.13124 0.0
C1381 C 0.80082 0.77847 0.12904 0.0
C1382 C 0.86039 0.88842 0.11081 0.0
C1383 C 0.87666 0.89246 0.12482 0.0
C1384 C 0.84457 0.86409 0.10882 0.0
C1385 C 0.84471 0.84315 0.12076 0.0
C1386 C 0.86069 0.84734 0.13487 0.0
C1387 C 0.87645 0.87174 0.13689 0.0
H1388 H 0.96061 0.03752 0.88917 0.0
H1389 H 0.96202 0.06338 0.83901 0.0
H1390 H 0.91686 0.06277 0.89312 0.0
H1391 H 0.91873 0.08919 0.84308 0.0
H1392 H 0.86026 0.13981 0.89885 0.0
H1393 H 0.90152 0.11075 0.89475 0.0
H1394 H 0.86945 0.08461 0.84819 0.0
H1395 H 0.82857 0.11423 0.85207 0.0
C1396 C 0.95154 0.04847 0.87896 0.0
C1397 C 0.9649 0.04849 0.86379 0.0
C1398 C 0.92655 0.06313 0.88126 0.0
C1399 C 0.91438 0.07821 0.86846 0.0
C1400 C 0.92734 0.07757 0.85317 0.0
C1401 C 0.95227 0.06284 0.85085 0.0
C1402 C 0.86198 0.12784 0.88774 0.0
C1403 C 0.84115 0.12948 0.87576 0.0
C1404 C 0.88555 0.111 0.88544 0.0
C1405 C 0.88881 0.09532 0.87114 0.0
C1406 C 0.86781 0.09672 0.85924 0.0
C1407 C 0.8443 0.11363 0.86151 0.0
H1408 H 0.7873 0.70174 0.59419 0.0
H1409 H 0.8114 0.72894 0.64208 0.0
H1410 H 0.81203 0.65782 0.59831 0.0
H1411 H 0.83765 0.68588 0.64592 0.0
H1412 H 0.86753 0.59684 0.65317 0.0
H1413 H 0.83773 0.63794 0.65018 0.0
H1414 H 0.85699 0.64028 0.59897 0.0
H1415 H 0.8852 0.5984 0.60189 0.0
C1416 C 0.79796 0.6983 0.6056 0.0
C1417 C 0.79747 0.71877 0.61779 0.0
C1418 C 0.81241 0.67322 0.60793 0.0
C1419 C 0.8273 0.66827 0.62238 0.0
C1420 C 0.8262 0.68861 0.63472 0.0
C1421 C 0.81123 0.71343 0.6325 0.0
C1422 C 0.86527 0.60619 0.64129 0.0
C1423 C 0.87861 0.59438 0.62776 0.0
C1424 C 0.84829 0.62986 0.63956 0.0
C1425 C 0.84472 0.64256 0.6243 0.0
C1426 C 0.85849 0.6308 0.61084 0.0
C1427 C 0.87495 0.60687 0.61253 0.0
H1428 H 0.63449 0.63706 0.8503 0.0
H1429 H 0.63623 0.6202 0.90166 0.0
H1430 H 0.59154 0.61025 0.84773 0.0
H1431 H 0.59412 0.59184 0.89903 0.0
H1432 H 0.50263 0.56788 0.89198 0.0
H1433 H 0.54617 0.59363 0.89507 0.0
H1434 H 0.57232 0.56588 0.8475 0.0
H1435 H 0.52793 0.54163 0.84412 0.0
C1436 C 0.62582 0.62729 0.86102 0.0
C1437 C 0.63865 0.63078 0.87618 0.0
C1438 C 0.60127 0.61166 0.85954 0.0
C1439 C 0.58924 0.59861 0.87315 0.0
C1440 C 0.60236 0.60194 0.88831 0.0
C1441 C 0.62662 0.61808 0.88983 0.0
C1442 C 0.51779 0.5672 0.88223 0.0
C1443 C 0.51184 0.55287 0.86778 0.0
C1444 C 0.54289 0.58186 0.88402 0.0
C1445 C 0.56292 0.58207 0.87151 0.0
C1446 C 0.55722 0.56688 0.85725 0.0
C1447 C 0.53185 0.55273 0.85534 0.0
H1448 H 0.62463 0.40637 0.10409 0.0
H1449 H 0.59359 0.37568 0.14993 0.0
H1450 H 0.65251 0.36423 0.10087 0.0
H1451 H 0.62104 0.33303 0.14648 0.0
H1452 H 0.69274 0.27046 0.14172 0.0
H1453 H 0.6684 0.31477 0.14578 0.0
H1454 H 0.64503 0.31554 0.09521 0.0
H1455 H 0.66986 0.27174 0.09105 0.0
C1456 C 0.62368 0.3906 0.11348 0.0
C1457 C 0.60672 0.39437 0.12723 0.0
C1458 C 0.63959 0.36634 0.11159 0.0
C1459 C 0.63888 0.34513 0.12335 0.0
C1460 C 0.62231 0.34908 0.13726 0.0
C1461 C 0.60644 0.37346 0.13919 0.0
C1462 C 0.68259 0.2802 0.13144 0.0
C1463 C 0.68328 0.26752 0.11605 0.0
C1464 C 0.66847 0.3055 0.1338 0.0
C1465 C 0.6547 0.31869 0.12084 0.0
C1466 C 0.65573 0.30618 0.10542 0.0
C1467 C 0.66989 0.28095 0.10305 0.0
H1468 H 0.85942 0.35006 0.39833 0.0
H1469 H 0.83181 0.37591 0.35077 0.0
H1470 H 0.90239 0.37674 0.39483 0.0
H1471 H 0.87441 0.40323 0.34748 0.0
H1472 H 0.96618 0.44624 0.3895 0.0
H1473 H 0.92104 0.42336 0.39306 0.0
H1474 H 0.92344 0.39554 0.34324 0.0
H1475 H 0.96812 0.41904 0.33955 0.0
C1476 C 0.86236 0.36167 0.38719 0.0
C1477 C 0.84222 0.3607 0.3748 0.0
C1478 C 0.88695 0.37712 0.38523 0.0
C1479 C 0.89191 0.3921 0.37085 0.0
C1480 C 0.87149 0.39157 0.3586 0.0
C1481 C 0.84698 0.37601 0.36052 0.0
C1482 C 0.95697 0.43542 0.37927 0.0
C1483 C 0.97082 0.43443 0.36425 0.0
C1484 C 0.93117 0.42214 0.38134 0.0
C1485 C 0.91865 0.40748 0.36846 0.0
C1486 C 0.93227 0.40694 0.35337 0.0
C1487 C 0.958 0.42032 0.35127 0.0
H1488 H 0.89163 0.37537 0.83698 0.0
H1489 H 0.86185 0.40663 0.88301 0.0
H1490 H 0.8639 0.33298 0.84067 0.0
H1491 H 0.8337 0.36473 0.88647 0.0
H1492 H 0.81528 0.27246 0.89633 0.0
H1493 H 0.84064 0.31591 0.89206 0.0
H1494 H 0.81626 0.31544 0.84165 0.0
H1495 H 0.79139 0.27149 0.84582 0.0
C1496 C 0.87902 0.37332 0.84782 0.0
C1497 C 0.87914 0.39433 0.85975 0.0
C1498 C 0.86299 0.34909 0.84989 0.0
C1499 C 0.84666 0.34539 0.86391 0.0
C1500 C 0.84641 0.36666 0.87567 0.0
C1501 C 0.86249 0.39078 0.87364 0.0
C1502 C 0.81515 0.28167 0.88434 0.0
C1503 C 0.80132 0.26842 0.87141 0.0
C1504 C 0.82961 0.3067 0.88191 0.0
C1505 C 0.83052 0.31918 0.8665 0.0
C1506 C 0.81631 0.30618 0.85362 0.0
C1507 C 0.80187 0.28108 0.85604 0.0
H1508 H 0.96594 0.53821 0.09656 0.0
H1509 H 0.96802 0.56534 0.14652 0.0
H1510 H 0.92171 0.56266 0.09275 0.0
H1511 H 0.92423 0.59038 0.14258 0.0
H1512 H 0.83308 0.61259 0.13418 0.0
H1513 H 0.87497 0.58438 0.13796 0.0
H1514 H 0.90501 0.61011 0.09091 0.0
H1515 H 0.86276 0.63773 0.08692 0.0
C1516 C 0.95695 0.54932 0.10674 0.0
C1517 C 0.97059 0.54986 0.12183 0.0
C1518 C 0.93167 0.56351 0.10452 0.0
C1519 C 0.91949 0.57865 0.11732 0.0
C1520 C 0.93284 0.57867 0.13251 0.0
C1521 C 0.95805 0.56439 0.13475 0.0
C1522 C 0.84858 0.61221 0.12462 0.0
C1523 C 0.84457 0.62749 0.11026 0.0
C1524 C 0.87268 0.59611 0.12682 0.0
C1525 C 0.8934 0.59499 0.11476 0.0
C1526 C 0.88929 0.61015 0.10035 0.0
C1527 C 0.86513 0.62616 0.09812 0.0
H1528 H 0.6287 0.57818 0.38199 0.0
H1529 H 0.60023 0.60912 0.33564 0.0
H1530 H 0.65754 0.61967 0.3854 0.0
H1531 H 0.62854 0.6511 0.33929 0.0
H1532 H 0.69968 0.71346 0.34478 0.0
H1533 H 0.67569 0.669 0.34056 0.0
H1534 H 0.65094 0.66834 0.39091 0.0
H1535 H 0.67548 0.71223 0.39523 0.0
C1536 C 0.62855 0.59386 0.37252 0.0
C1537 C 0.612 0.59038 0.35858 0.0
C1538 C 0.64501 0.61774 0.37452 0.0
C1539 C 0.64523 0.63885 0.36269 0.0
C1540 C 0.62914 0.63511 0.34857 0.0
C1541 C 0.61276 0.61111 0.34652 0.0
C1542 C 0.68934 0.70369 0.35498 0.0
C1543 C 0.68949 0.71646 0.37034 0.0
C1544 C 0.67542 0.67829 0.35253 0.0
C1545 C 0.66129 0.66512 0.36537 0.0
C1546 C 0.66193 0.67766 0.38079 0.0
C1547 C 0.67591 0.70296 0.38325 0.0
H1548 H 0.65374 0.37198 0.63428 0.0
H1549 H 0.6233 0.3465 0.5872 0.0
H1550 H 0.61162 0.39968 0.63841 0.0
H1551 H 0.5808 0.37361 0.59155 0.0
H1552 H 0.51917 0.44493 0.59789 0.0
H1553 H 0.56347 0.42081 0.59362 0.0
H1554 H 0.5626 0.39305 0.64342 0.0
H1555 H 0.51877 0.41776 0.64782 0.0
C1556 C 0.63802 0.37218 0.62483 0.0
C1557 C 0.64189 0.35694 0.61042 0.0
C1558 C 0.61379 0.38798 0.62724 0.0
C1559 C 0.59277 0.38883 0.61534 0.0
C1560 C 0.59673 0.37375 0.60087 0.0
C1561 C 0.62104 0.35804 0.59843 0.0
C1562 C 0.52854 0.43387 0.60797 0.0
C1563 C 0.51537 0.43325 0.62319 0.0
C1564 C 0.55385 0.41987 0.60548 0.0
C1565 C 0.56654 0.40484 0.61814 0.0
C1566 C 0.55361 0.40469 0.63344 0.0
C1567 C 0.52837 0.41877 0.63595 0.0
H1568 H 0.09842 0.37144 0.33755 0.0
H1569 H 0.12489 0.4018 0.38446 0.0
H1570 H 0.12639 0.32937 0.3414 0.0
H1571 H 0.15345 0.36014 0.38809 0.0
H1572 H 0.1724 0.26737 0.39704 0.0
H1573 H 0.14751 0.31114 0.39302 0.0
H1574 H 0.17379 0.31239 0.34293 0.0
H1575 H 0.19811 0.26807 0.34684 0.0
C1576 C 0.11036 0.36925 0.34863 0.0
C1577 C 0.10926 0.38993 0.36074 0.0
C1578 C 0.12658 0.34521 0.35079 0.0
C1579 C 0.14218 0.34134 0.36506 0.0
C1580 C 0.14136 0.36222 0.37706 0.0
C1581 C 0.12505 0.38618 0.37494 0.0
C1582 C 0.17309 0.27705 0.38519 0.0
C1583 C 0.18717 0.26411 0.37224 0.0
C1584 C 0.1589 0.30227 0.3829 0.0
C1585 C 0.15854 0.31526 0.36763 0.0
C1586 C 0.17325 0.3027 0.35479 0.0
C1587 C 0.18737 0.27739 0.35706 0.0
H1588 H 0.3483 0.34883 0.13354 0.0
H1589 H 0.34665 0.36886 0.08257 0.0
H1590 H 0.39024 0.37691 0.1369 0.0
H1591 H 0.38773 0.39847 0.08602 0.0
H1592 H 0.4787 0.42404 0.09415 0.0
H1593 H 0.43562 0.39794 0.09016 0.0
H1594 H 0.40824 0.42171 0.13821 0.0
H1595 H 0.45223 0.44633 0.14246 0.0
C1596 C 0.35676 0.35956 0.12308 0.0
C1597 C 0.34427 0.35657 0.10778 0.0
C1598 C 0.38073 0.37593 0.12501 0.0
C1599 C 0.39249 0.39025 0.11177 0.0
C1600 C 0.37969 0.38743 0.09647 0.0
C1601 C 0.35603 0.37056 0.09448 0.0
C1602 C 0.46335 0.42385 0.1038 0.0
C1603 C 0.46889 0.4371 0.11865 0.0
C1604 C 0.4385 0.40896 0.10149 0.0
C1605 C 0.41831 0.40743 0.11388 0.0
C1606 C 0.4235 0.42171 0.12852 0.0
C1607 C 0.44862 0.43609 0.13094 0.0
H1608 H 0.28697 0.71465 0.84531 0.0
H1609 H 0.31113 0.71532 0.89578 0.0
H1610 H 0.30988 0.66948 0.84183 0.0
H1611 H 0.33459 0.67061 0.89219 0.0
H1612 H 0.38432 0.60831 0.83785 0.0
H1613 H 0.35689 0.65095 0.84095 0.0
H1614 H 0.32678 0.62168 0.88729 0.0
H1615 H 0.35475 0.57943 0.88441 0.0
C1616 C 0.29707 0.70514 0.85568 0.0
C1617 C 0.29726 0.71866 0.87082 0.0
C1618 C 0.31037 0.67932 0.85365 0.0
C1619 C 0.32419 0.66646 0.8667 0.0
C1620 C 0.32384 0.67972 0.88192 0.0
C1621 C 0.31049 0.70547 0.88396 0.0
C1622 C 0.37173 0.61089 0.84866 0.0
C1623 C 0.37191 0.59053 0.86093 0.0
C1624 C 0.35586 0.63528 0.8504 0.0
C1625 C 0.33972 0.6398 0.86441 0.0
C1626 C 0.33936 0.61909 0.87647 0.0
C1627 C 0.3553 0.59479 0.87478 0.0
H1628 H 0.00791 0.56302 0.59566 0.0
H1629 H 0.03152 0.54231 0.64468 0.0
H1630 H 0.05146 0.58844 0.59214 0.0
H1631 H 0.07604 0.56626 0.64092 0.0
H1632 H 0.13778 0.63781 0.63609 0.0
H1633 H 0.09524 0.61055 0.63929 0.0
H1634 H 0.09937 0.58668 0.58875 0.0
H1635 H 0.141 0.61548 0.58544 0.0
C1636 C 0.02273 0.56343 0.60559 0.0
C1637 C 0.01627 0.55077 0.62047 0.0
C1638 C 0.04786 0.57791 0.60355 0.0
C1639 C 0.06745 0.57962 0.61625 0.0
C1640 C 0.06129 0.56606 0.63098 0.0
C1641 C 0.03586 0.55208 0.63311 0.0
C1642 C 0.12954 0.62674 0.62568 0.0
C1643 C 0.14262 0.62888 0.6105 0.0
C1644 C 0.10523 0.61085 0.62752 0.0
C1645 C 0.09371 0.59618 0.6143 0.0
C1646 C 0.10717 0.59805 0.59916 0.0
C1647 C 0.13116 0.61446 0.59725 0.0
H1648 H 0.12329 0.58141 0.10115 0.0
H1649 H 0.09818 0.61126 0.14842 0.0
H1650 H 0.15179 0.62312 0.09742 0.0
H1651 H 0.12608 0.65333 0.14448 0.0
H1652 H 0.19799 0.71398 0.13905 0.0
H1653 H 0.17362 0.66969 0.1427 0.0
H1654 H 0.14619 0.67243 0.09284 0.0
H1655 H 0.17117 0.71629 0.08905 0.0
C1656 C 0.12374 0.59692 0.11073 0.0
C1657 C 0.10838 0.593 0.12508 0.0
C1658 C 0.14001 0.6209 0.10855 0.0
C1659 C 0.14123 0.6416 0.12064 0.0
C1660 C 0.12598 0.63761 0.13502 0.0
C1661 C 0.10981 0.61356 0.13724 0.0
C1662 C 0.18699 0.70501 0.12882 0.0
C1663 C 0.18646 0.71876 0.11377 0.0
C1664 C 0.17284 0.67971 0.13095 0.0
C1665 C 0.15774 0.6676 0.11811 0.0
C1666 C 0.15785 0.68099 0.10295 0.0
C1667 C 0.17209 0.70623 0.10079 0.0
H1668 H 0.13793 0.35265 0.85055 0.0
H1669 H 0.14065 0.37001 0.90186 0.0
H1670 H 0.09607 0.38091 0.84798 0.0
H1671 H 0.0995 0.39989 0.89921 0.0
H1672 H 0.00779 0.42501 0.8917 0.0
H1673 H 0.05142 0.39956 0.89529 0.0
H1674 H 0.07811 0.42564 0.84755 0.0
H1675 H 0.03365 0.44951 0.84367 0.0
C1676 C 0.12976 0.36291 0.86126 0.0
C1677 C 0.14255 0.35909 0.87641 0.0
C1678 C 0.10582 0.37939 0.85978 0.0
C1679 C 0.09431 0.39303 0.87335 0.0
C1680 C 0.10739 0.38943 0.88851 0.0
C1681 C 0.13108 0.37241 0.89005 0.0
C1682 C 0.02313 0.42546 0.88204 0.0
C1683 C 0.01726 0.43904 0.86735 0.0
C1684 C 0.04828 0.41096 0.88412 0.0
C1685 C 0.06839 0.41019 0.87166 0.0
C1686 C 0.06291 0.425 0.85725 0.0
C1687 C 0.03751 0.43894 0.85505 0.0
H1688 H 0.31183 0.26953 0.59138 0.0
H1689 H 0.28736 0.26979 0.64179 0.0
H1690 H 0.33708 0.31312 0.59543 0.0
H1691 H 0.31204 0.31391 0.64573 0.0
H1692 H 0.38808 0.37218 0.65086 0.0
H1693 H 0.35962 0.33043 0.64698 0.0
H1694 H 0.33171 0.36212 0.60071 0.0
H1695 H 0.36075 0.40347 0.60436 0.0
C1696 C 0.31148 0.27909 0.60328 0.0
C1697 C 0.29767 0.26606 0.61628 0.0
C1698 C 0.32588 0.3042 0.60559 0.0
C1699 C 0.32671 0.31699 0.62093 0.0
C1700 C 0.31222 0.30438 0.63382 0.0
C1701 C 0.2979 0.27918 0.63153 0.0
C1702 C 0.37584 0.37027 0.63986 0.0
C1703 C 0.37684 0.39111 0.62788 0.0
C1704 C 0.35935 0.34641 0.63769 0.0
C1705 C 0.34337 0.34289 0.62352 0.0
C1706 C 0.34408 0.36394 0.61165 0.0
C1707 C 0.36067 0.38772 0.61378 0.0
H1708 H 0.46646 0.56568 0.34094 0.0
H1709 H 0.4693 0.54421 0.39177 0.0
H1710 H 0.42256 0.59025 0.34525 0.0
H1711 H 0.42488 0.56823 0.39599 0.0
H1712 H 0.33162 0.60963 0.35464 0.0
H1713 H 0.37417 0.5824 0.35127 0.0
H1714 H 0.40584 0.61509 0.39652 0.0
H1715 H 0.36281 0.64183 0.40015 0.0
C1716 C 0.45758 0.56593 0.35301 0.0
C1717 C 0.47146 0.55299 0.36601 0.0
C1718 C 0.4323 0.57992 0.35547 0.0
C1719 C 0.42015 0.58122 0.37097 0.0
C1720 C 0.43384 0.56797 0.38394 0.0
C1721 C 0.45923 0.55404 0.38149 0.0
C1722 C 0.34759 0.61098 0.36392 0.0
C1723 C 0.34384 0.62805 0.37764 0.0
C1724 C 0.37208 0.59545 0.36193 0.0
C1725 C 0.39354 0.5967 0.37356 0.0
C1726 C 0.38962 0.6134 0.38742 0.0
C1727 C 0.36501 0.62886 0.38945 0.0
loop_
_geom_bond_atom_site_label_1
_geom_bond_atom_site_label_2
_geom_bond_distance
_geom_bond_site_symmetry_2
_ccdc_geom_bond_type
C0 O1 1.306 . S
C0 O3 1.160 . S
O1 C0 1.306 . S
O1 Cd2 2.228 . S
Cd2 O1 2.228 . S
Cd2 O6 2.273 . S
Cd2 O10 2.277 . S
O3 C0 1.160 . S
O3 Cd4 2.203 . S
Cd4 O3 2.203 . S
Cd4 O6 2.411 . S
Cd4 O7 2.333 . S
Cd4 O8 2.352 . S
Cd4 O12 2.277 . S
Cd4 O13 2.356 . S
C5 O10 1.209 . S
C5 O12 1.226 . S
O6 Cd2 2.273 . S
O6 Cd4 2.411 . S
O6 C9 1.320 . S
O7 Cd4 2.333 . S
O7 C9 1.214 . S
O8 Cd4 2.352 . S
O8 C11 1.258 . S
C9 O6 1.320 . S
C9 O7 1.214 . S
O10 Cd2 2.277 . S
O10 C5 1.209 . S
C11 O8 1.258 . S
C11 O13 1.282 . S
O12 Cd4 2.277 . S
O12 C5 1.226 . S
O13 Cd4 2.356 . S
O13 C11 1.282 . S
C14 O15 1.306 . S
C14 O17 1.160 . S
O15 C14 1.306 . S
O15 Cd16 2.228 . S
Cd16 O15 2.228 . S
Cd16 O20 2.273 . S
Cd16 O24 2.277 . S
O17 C14 1.160 . S
O17 Cd18 2.203 . S
Cd18 O17 2.203 . S
Cd18 O20 2.411 . S
Cd18 O21 2.333 . S
Cd18 O22 2.352 . S
Cd18 O26 2.277 . S
Cd18 O27 2.356 . S
C19 O24 1.209 . S
C19 O26 1.226 . S
O20 Cd16 2.273 . S
O20 Cd18 2.411 . S
O20 C23 1.320 . S
O21 Cd18 2.333 . S
O21 C23 1.214 . S
O22 Cd18 2.352 . S
O22 C25 1.258 . S
C23 O20 1.320 . S
C23 O21 1.214 . S
O24 Cd16 2.277 . S
O24 C19 1.209 . S
C25 O22 1.258 . S
C25 O27 1.282 . S
O26 Cd18 2.277 . S
O26 C19 1.226 . S
O27 Cd18 2.356 . S
O27 C25 1.282 . S
C28 O29 1.306 . S
C28 O31 1.160 . S
O29 C28 1.306 . S
O29 Cd30 2.228 . S
Cd30 O29 2.228 . S
Cd30 O34 2.273 . S
Cd30 O38 2.277 . S
O31 C28 1.160 . S
O31 Cd32 2.203 . S
Cd32 O31 2.203 . S
Cd32 O34 2.411 . S
Cd32 O35 2.333 . S
Cd32 O36 2.352 . S
Cd32 O40 2.277 . S
Cd32 O41 2.356 . S
C33 O38 1.209 . S
C33 O40 1.226 . S
O34 Cd30 2.273 . S
O34 Cd32 2.411 . S
O34 C37 1.320 . S
O35 Cd32 2.333 . S
O35 C37 1.214 . S
O36 Cd32 2.352 . S
O36 C39 1.258 . S
C37 O34 1.320 . S
C37 O35 1.214 . S
O38 Cd30 2.277 . S
O38 C33 1.209 . S
C39 O36 1.258 . S
C39 O41 1.282 . S
O40 Cd32 2.277 . S
O40 C33 1.226 . S
O41 Cd32 2.356 . S
O41 C39 1.282 . S
C42 O43 1.306 . S
C42 O45 1.160 . S
O43 C42 1.306 . S
O43 Cd44 2.228 . S
Cd44 O43 2.228 . S
Cd44 O48 2.273 . S
Cd44 O52 2.277 . S
O45 C42 1.160 . S
O45 Cd46 2.203 . S
Cd46 O45 2.203 . S
Cd46 O48 2.411 . S
Cd46 O49 2.333 . S
Cd46 O50 2.352 . S
Cd46 O54 2.277 . S
Cd46 O55 2.356 . S
C47 O52 1.209 . S
C47 O54 1.226 . S
O48 Cd44 2.273 . S
O48 Cd46 2.411 . S
O48 C51 1.320 . S
O49 Cd46 2.333 . S
O49 C51 1.214 . S
O50 Cd46 2.352 . S
O50 C53 1.258 . S
C51 O48 1.320 . S
C51 O49 1.214 . S
O52 Cd44 2.277 . S
O52 C47 1.209 . S
C53 O50 1.258 . S
C53 O55 1.282 . S
O54 Cd46 2.277 . S
O54 C47 1.226 . S
O55 Cd46 2.356 . S
O55 C53 1.282 . S
C56 O57 1.306 . S
C56 O59 1.160 . S
O57 C56 1.306 . S
O57 Cd58 2.228 . S
Cd58 O57 2.228 . S
Cd58 O62 2.273 . S
Cd58 O66 2.277 . S
O59 C56 1.160 . S
O59 Cd60 2.203 . S
Cd60 O59 2.203 . S
Cd60 O62 2.411 . S
Cd60 O63 2.333 . S
Cd60 O64 2.352 . S
Cd60 O68 2.277 . S
Cd60 O69 2.356 . S
C61 O66 1.209 . S
C61 O68 1.226 . S
O62 Cd58 2.273 . S
O62 Cd60 2.411 . S
O62 C65 1.320 . S
O63 Cd60 2.333 . S
O63 C65 1.214 . S
O64 Cd60 2.352 . S
O64 C67 1.258 . S
C65 O62 1.320 . S
C65 O63 1.214 . S
O66 Cd58 2.277 . S
O66 C61 1.209 . S
C67 O64 1.258 . S
C67 O69 1.282 . S
O68 Cd60 2.277 . S
O68 C61 1.226 . S
O69 Cd60 2.356 . S
O69 C67 1.282 . S
C70 O71 1.306 . S
C70 O73 1.160 . S
O71 C70 1.306 . S
O71 Cd72 2.228 . S
Cd72 O71 2.228 . S
Cd72 O76 2.273 . S
Cd72 O80 2.277 . S
O73 C70 1.160 . S
O73 Cd74 2.203 . S
Cd74 O73 2.203 . S
Cd74 O76 2.411 . S
Cd74 O77 2.333 . S
Cd74 O78 2.352 . S
Cd74 O82 2.277 . S
Cd74 O83 2.356 . S
C75 O80 1.209 . S
C75 O82 1.226 . S
O76 Cd72 2.273 . S
O76 Cd74 2.411 . S
O76 C79 1.320 . S
O77 Cd74 2.333 . S
O77 C79 1.214 . S
O78 Cd74 2.352 . S
O78 C81 1.258 . S
C79 O76 1.320 . S
C79 O77 1.214 . S
O80 Cd72 2.277 . S
O80 C75 1.209 . S
C81 O78 1.258 . S
C81 O83 1.282 . S
O82 Cd74 2.277 . S
O82 C75 1.226 . S
O83 Cd74 2.356 . S
O83 C81 1.282 . S
C84 O85 1.306 . S
C84 O87 1.160 . S
O85 C84 1.306 . S
O85 Cd86 2.228 . S
Cd86 O85 2.228 . S
Cd86 O90 2.273 . S
Cd86 O94 2.277 . S
O87 C84 1.160 . S
O87 Cd88 2.203 . S
Cd88 O87 2.203 . S
Cd88 O90 2.411 . S
Cd88 O91 2.333 . S
Cd88 O92 2.352 . S
Cd88 O96 2.277 . S
Cd88 O97 2.356 . S
C89 O94 1.209 . S
C89 O96 1.226 . S
O90 Cd86 2.273 . S
O90 Cd88 2.411 . S
O90 C93 1.320 . S
O91 Cd88 2.333 . S
O91 C93 1.214 . S
O92 Cd88 2.352 . S
O92 C95 1.258 . S
C93 O90 1.320 . S
C93 O91 1.214 . S
O94 Cd86 2.277 . S
O94 C89 1.209 . S
C95 O92 1.258 . S
C95 O97 1.282 . S
O96 Cd88 2.277 . S
O96 C89 1.226 . S
O97 Cd88 2.356 . S
O97 C95 1.282 . S
C98 O99 1.306 . S
C98 O101 1.160 . S
O99 C98 1.306 . S
O99 Cd100 2.228 . S
Cd100 O99 2.228 . S
Cd100 O104 2.273 . S
Cd100 O108 2.277 . S
O101 C98 1.160 . S
O101 Cd102 2.203 . S
Cd102 O101 2.203 . S
Cd102 O104 2.411 . S
Cd102 O105 2.333 . S
Cd102 O106 2.352 . S
Cd102 O110 2.277 . S
Cd102 O111 2.356 . S
C103 O108 1.209 . S
C103 O110 1.226 . S
O104 Cd100 2.273 . S
O104 Cd102 2.411 . S
O104 C107 1.320 . S
O105 Cd102 2.333 . S
O105 C107 1.214 . S
O106 Cd102 2.352 . S
O106 C109 1.258 . S
C107 O104 1.320 . S
C107 O105 1.214 . S
O108 Cd100 2.277 . S
O108 C103 1.209 . S
C109 O106 1.258 . S
C109 O111 1.282 . S
O110 Cd102 2.277 . S
O110 C103 1.226 . S
O111 Cd102 2.356 . S
O111 C109 1.282 . S
C112 O113 1.306 . S
C112 O115 1.160 . S
O113 C112 1.306 . S
O113 Cd114 2.228 . S
Cd114 O113 2.228 . S
Cd114 O118 2.273 . S
Cd114 O122 2.277 . S
O115 C112 1.160 . S
O115 Cd116 2.203 . S
Cd116 O115 2.203 . S
Cd116 O118 2.411 . S
Cd116 O119 2.333 . S
Cd116 O120 2.352 . S
Cd116 O124 2.277 . S
Cd116 O125 2.356 . S
C117 O122 1.209 . S
C117 O124 1.226 . S
O118 Cd114 2.273 . S
O118 Cd116 2.411 . S
O118 C121 1.320 . S
O119 Cd116 2.333 . S
O119 C121 1.214 . S
O120 Cd116 2.352 . S
O120 C123 1.258 . S
C121 O118 1.320 . S
C121 O119 1.214 . S
O122 Cd114 2.277 . S
O122 C117 1.209 . S
C123 O120 1.258 . S
C123 O125 1.282 . S
O124 Cd116 2.277 . S
O124 C117 1.226 . S
O125 Cd116 2.356 . S
O125 C123 1.282 . S
C126 O127 1.306 . S
C126 O129 1.160 . S
O127 C126 1.306 . S
O127 Cd128 2.228 . S
Cd128 O127 2.228 . S
Cd128 O132 2.273 . S
Cd128 O136 2.277 . S
O129 C126 1.160 . S
O129 Cd130 2.203 . S
Cd130 O129 2.203 . S
Cd130 O132 2.411 . S
Cd130 O133 2.333 . S
Cd130 O134 2.352 . S
Cd130 O138 2.277 . S
Cd130 O139 2.356 . S
C131 O136 1.209 . S
C131 O138 1.226 . S
O132 Cd128 2.273 . S
O132 Cd130 2.411 . S
O132 C135 1.320 . S
O133 Cd130 2.333 . S
O133 C135 1.214 . S
O134 Cd130 2.352 . S
O134 C137 1.258 . S
C135 O132 1.320 . S
C135 O133 1.214 . S
O136 Cd128 2.277 . S
O136 C131 1.209 . S
C137 O134 1.258 . S
C137 O139 1.282 . S
O138 Cd130 2.277 . S
O138 C131 1.226 . S
O139 Cd130 2.356 . S
O139 C137 1.282 . S
C140 O141 1.306 . S
C140 O143 1.160 . S
O141 C140 1.306 . S
O141 Cd142 2.228 . S
Cd142 O141 2.228 . S
Cd142 O146 2.273 . S
Cd142 O150 2.277 . S
O143 C140 1.160 . S
O143 Cd144 2.203 . S
Cd144 O143 2.203 . S
Cd144 O146 2.411 . S
Cd144 O147 2.333 . S
Cd144 O148 2.352 . S
Cd144 O152 2.277 . S
Cd144 O153 2.356 . S
C145 O150 1.209 . S
C145 O152 1.226 . S
O146 Cd142 2.273 . S
O146 Cd144 2.411 . S
O146 C149 1.320 . S
O147 Cd144 2.333 . S
O147 C149 1.214 . S
O148 Cd144 2.352 . S
O148 C151 1.258 . S
C149 O146 1.320 . S
C149 O147 1.214 . S
O150 Cd142 2.277 . S
O150 C145 1.209 . S
C151 O148 1.258 . S
C151 O153 1.282 . S
O152 Cd144 2.277 . S
O152 C145 1.226 . S
O153 Cd144 2.356 . S
O153 C151 1.282 . S
C154 O155 1.306 . S
C154 O157 1.160 . S
O155 C154 1.306 . S
O155 Cd156 2.228 . S
Cd156 O155 2.228 . S
Cd156 O160 2.273 . S
Cd156 O164 2.277 . S
O157 C154 1.160 . S
O157 Cd158 2.203 . S
Cd158 O157 2.203 . S
Cd158 O160 2.411 . S
Cd158 O161 2.333 . S
Cd158 O162 2.352 . S
Cd158 O166 2.277 . S
Cd158 O167 2.356 . S
C159 O164 1.209 . S
C159 O166 1.226 . S
O160 Cd156 2.273 . S
O160 Cd158 2.411 . S
O160 C163 1.320 . S
O161 Cd158 2.333 . S
O161 C163 1.214 . S
O162 Cd158 2.352 . S
O162 C165 1.258 . S
C163 O160 1.320 . S
C163 O161 1.214 . S
O164 Cd156 2.277 . S
O164 C159 1.209 . S
C165 O162 1.258 . S
C165 O167 1.282 . S
O166 Cd158 2.277 . S
O166 C159 1.226 . S
O167 Cd158 2.356 . S
O167 C165 1.282 . S
C168 O169 1.306 . S
C168 O171 1.160 . S
O169 C168 1.306 . S
O169 Cd170 2.228 . S
Cd170 O169 2.228 . S
Cd170 O174 2.273 . S
Cd170 O178 2.277 . S
O171 C168 1.160 . S
O171 Cd172 2.203 . S
Cd172 O171 2.203 . S
Cd172 O174 2.411 . S
Cd172 O175 2.333 . S
Cd172 O176 2.352 . S
Cd172 O180 2.277 . S
Cd172 O181 2.356 . S
C173 O178 1.209 . S
C173 O180 1.226 . S
O174 Cd170 2.273 . S
O174 Cd172 2.411 . S
O174 C177 1.320 . S
O175 Cd172 2.333 . S
O175 C177 1.214 . S
O176 Cd172 2.352 . S
O176 C179 1.258 . S
C177 O174 1.320 . S
C177 O175 1.214 . S
O178 Cd170 2.277 . S
O178 C173 1.209 . S
C179 O176 1.258 . S
C179 O181 1.282 . S
O180 Cd172 2.277 . S
O180 C173 1.226 . S
O181 Cd172 2.356 . S
O181 C179 1.282 . S
C182 O183 1.306 . S
C182 O185 1.160 . S
O183 C182 1.306 . S
O183 Cd184 2.228 . S
Cd184 O183 2.228 . S
Cd184 O188 2.273 . S
Cd184 O192 2.277 . S
O185 C182 1.160 . S
O185 Cd186 2.203 . S
Cd186 O185 2.203 . S
Cd186 O188 2.411 . S
Cd186 O189 2.333 . S
Cd186 O190 2.352 . S
Cd186 O194 2.277 . S
Cd186 O195 2.356 . S
C187 O192 1.209 . S
C187 O194 1.226 . S
O188 Cd184 2.273 . S
O188 Cd186 2.411 . S
O188 C191 1.320 . S
O189 Cd186 2.333 . S
O189 C191 1.214 . S
O190 Cd186 2.352 . S
O190 C193 1.258 . S
C191 O188 1.320 . S
C191 O189 1.214 . S
O192 Cd184 2.277 . S
O192 C187 1.209 . S
C193 O190 1.258 . S
C193 O195 1.282 . S
O194 Cd186 2.277 . S
O194 C187 1.226 . S
O195 Cd186 2.356 . S
O195 C193 1.282 . S
C196 O197 1.306 . S
C196 O199 1.160 . S
O197 C196 1.306 . S
O197 Cd198 2.228 . S
Cd198 O197 2.228 . S
Cd198 O202 2.273 . S
Cd198 O206 2.277 . S
O199 C196 1.160 . S
O199 Cd200 2.203 . S
Cd200 O199 2.203 . S
Cd200 O202 2.411 . S
Cd200 O203 2.333 . S
Cd200 O204 2.352 . S
Cd200 O208 2.277 . S
Cd200 O209 2.356 . S
C201 O206 1.209 . S
C201 O208 1.226 . S
O202 Cd198 2.273 . S
O202 Cd200 2.411 . S
O202 C205 1.320 . S
O203 Cd200 2.333 . S
O203 C205 1.214 . S
O204 Cd200 2.352 . S
O204 C207 1.258 . S
C205 O202 1.320 . S
C205 O203 1.214 . S
O206 Cd198 2.277 . S
O206 C201 1.209 . S
C207 O204 1.258 . S
C207 O209 1.282 . S
O208 Cd200 2.277 . S
O208 C201 1.226 . S
O209 Cd200 2.356 . S
O209 C207 1.282 . S
C210 O211 1.306 . S
C210 O213 1.160 . S
O211 C210 1.306 . S
O211 Cd212 2.228 . S
Cd212 O211 2.228 . S
Cd212 O216 2.273 . S
Cd212 O220 2.277 . S
O213 C210 1.160 . S
O213 Cd214 2.203 . S
Cd214 O213 2.203 . S
Cd214 O216 2.411 . S
Cd214 O217 2.333 . S
Cd214 O218 2.352 . S
Cd214 O222 2.277 . S
Cd214 O223 2.356 . S
C215 O220 1.209 . S
C215 O222 1.226 . S
O216 Cd212 2.273 . S
O216 Cd214 2.411 . S
O216 C219 1.320 . S
O217 Cd214 2.333 . S
O217 C219 1.214 . S
O218 Cd214 2.352 . S
O218 C221 1.258 . S
C219 O216 1.320 . S
C219 O217 1.214 . S
O220 Cd212 2.277 . S
O220 C215 1.209 . S
C221 O218 1.258 . S
C221 O223 1.282 . S
O222 Cd214 2.277 . S
O222 C215 1.226 . S
O223 Cd214 2.356 . S
O223 C221 1.282 . S
C224 O225 1.306 . S
C224 O227 1.160 . S
O225 C224 1.306 . S
O225 Cd226 2.228 . S
Cd226 O225 2.228 . S
Cd226 O230 2.273 . S
Cd226 O234 2.277 . S
O227 C224 1.160 . S
O227 Cd228 2.203 . S
Cd228 O227 2.203 . S
Cd228 O230 2.411 . S
Cd228 O231 2.333 . S
Cd228 O232 2.352 . S
Cd228 O236 2.277 . S
Cd228 O237 2.356 . S
C229 O234 1.209 . S
C229 O236 1.226 . S
O230 Cd226 2.273 . S
O230 Cd228 2.411 . S
O230 C233 1.320 . S
O231 Cd228 2.333 . S
O231 C233 1.214 . S
O232 Cd228 2.352 . S
O232 C235 1.258 . S
C233 O230 1.320 . S
C233 O231 1.214 . S
O234 Cd226 2.277 . S
O234 C229 1.209 . S
C235 O232 1.258 . S
C235 O237 1.282 . S
O236 Cd228 2.277 . S
O236 C229 1.226 . S
O237 Cd228 2.356 . S
O237 C235 1.282 . S
C238 O239 1.306 . S
C238 O241 1.160 . S
O239 C238 1.306 . S
O239 Cd240 2.228 . S
Cd240 O239 2.228 . S
Cd240 O244 2.273 . S
Cd240 O248 2.277 . S
O241 C238 1.160 . S
O241 Cd242 2.203 . S
Cd242 O241 2.203 . S
Cd242 O244 2.411 . S
Cd242 O245 2.333 . S
Cd242 O246 2.352 . S
Cd242 O250 2.277 . S
Cd242 O251 2.356 . S
C243 O248 1.209 . S
C243 O250 1.226 . S
O244 Cd240 2.273 . S
O244 Cd242 2.411 . S
O244 C247 1.320 . S
O245 Cd242 2.333 . S
O245 C247 1.214 . S
O246 Cd242 2.352 . S
O246 C249 1.258 . S
C247 O244 1.320 . S
C247 O245 1.214 . S
O248 Cd240 2.277 . S
O248 C243 1.209 . S
C249 O246 1.258 . S
C249 O251 1.282 . S
O250 Cd242 2.277 . S
O250 C243 1.226 . S
O251 Cd242 2.356 . S
O251 C249 1.282 . S
C252 O253 1.306 . S
C252 O255 1.160 . S
O253 C252 1.306 . S
O253 Cd254 2.228 . S
Cd254 O253 2.228 . S
Cd254 O258 2.273 . S
Cd254 O262 2.277 . S
O255 C252 1.160 . S
O255 Cd256 2.203 . S
Cd256 O255 2.203 . S
Cd256 O258 2.411 . S
Cd256 O259 2.333 . S
Cd256 O260 2.352 . S
Cd256 O264 2.277 . S
Cd256 O265 2.356 . S
C257 O262 1.209 . S
C257 O264 1.226 . S
O258 Cd254 2.273 . S
O258 Cd256 2.411 . S
O258 C261 1.320 . S
O259 Cd256 2.333 . S
O259 C261 1.214 . S
O260 Cd256 2.352 . S
O260 C263 1.258 . S
C261 O258 1.320 . S
C261 O259 1.214 . S
O262 Cd254 2.277 . S
O262 C257 1.209 . S
C263 O260 1.258 . S
C263 O265 1.282 . S
O264 Cd256 2.277 . S
O264 C257 1.226 . S
O265 Cd256 2.356 . S
O265 C263 1.282 . S
C266 O267 1.306 . S
C266 O269 1.160 . S
O267 C266 1.306 . S
O267 Cd268 2.228 . S
Cd268 O267 2.228 . S
Cd268 O272 2.273 . S
Cd268 O276 2.277 . S
O269 C266 1.160 . S
O269 Cd270 2.203 . S
Cd270 O269 2.203 . S
Cd270 O272 2.411 . S
Cd270 O273 2.333 . S
Cd270 O274 2.352 . S
Cd270 O278 2.277 . S
Cd270 O279 2.356 . S
C271 O276 1.209 . S
C271 O278 1.226 . S
O272 Cd268 2.273 . S
O272 Cd270 2.411 . S
O272 C275 1.320 . S
O273 Cd270 2.333 . S
O273 C275 1.214 . S
O274 Cd270 2.352 . S
O274 C277 1.258 . S
C275 O272 1.320 . S
C275 O273 1.214 . S
O276 Cd268 2.277 . S
O276 C271 1.209 . S
C277 O274 1.258 . S
C277 O279 1.282 . S
O278 Cd270 2.277 . S
O278 C271 1.226 . S
O279 Cd270 2.356 . S
O279 C277 1.282 . S
C280 O281 1.306 . S
C280 O283 1.160 . S
O281 C280 1.306 . S
O281 Cd282 2.228 . S
Cd282 O281 2.228 . S
Cd282 O286 2.273 . S
Cd282 O290 2.277 . S
O283 C280 1.160 . S
O283 Cd284 2.203 . S
Cd284 O283 2.203 . S
Cd284 O286 2.411 . S
Cd284 O287 2.333 . S
Cd284 O288 2.352 . S
Cd284 O292 2.277 . S
Cd284 O293 2.356 . S
C285 O290 1.209 . S
C285 O292 1.226 . S
O286 Cd282 2.273 . S
O286 Cd284 2.411 . S
O286 C289 1.320 . S
O287 Cd284 2.333 . S
O287 C289 1.214 . S
O288 Cd284 2.352 . S
O288 C291 1.258 . S
C289 O286 1.320 . S
C289 O287 1.214 . S
O290 Cd282 2.277 . S
O290 C285 1.209 . S
C291 O288 1.258 . S
C291 O293 1.282 . S
O292 Cd284 2.277 . S
O292 C285 1.226 . S
O293 Cd284 2.356 . S
O293 C291 1.282 . S
C294 O295 1.306 . S
C294 O297 1.160 . S
O295 C294 1.306 . S
O295 Cd296 2.228 . S
Cd296 O295 2.228 . S
Cd296 O300 2.273 . S
Cd296 O304 2.277 . S
O297 C294 1.160 . S
O297 Cd298 2.203 . S
Cd298 O297 2.203 . S
Cd298 O300 2.411 . S
Cd298 O301 2.333 . S
Cd298 O302 2.352 . S
Cd298 O306 2.277 . S
Cd298 O307 2.356 . S
C299 O304 1.209 . S
C299 O306 1.226 . S
O300 Cd296 2.273 . S
O300 Cd298 2.411 . S
O300 C303 1.320 . S
O301 Cd298 2.333 . S
O301 C303 1.214 . S
O302 Cd298 2.352 . S
O302 C305 1.258 . S
C303 O300 1.320 . S
C303 O301 1.214 . S
O304 Cd296 2.277 . S
O304 C299 1.209 . S
C305 O302 1.258 . S
C305 O307 1.282 . S
O306 Cd298 2.277 . S
O306 C299 1.226 . S
O307 Cd298 2.356 . S
O307 C305 1.282 . S
C308 O309 1.306 . S
C308 O311 1.160 . S
O309 C308 1.306 . S
O309 Cd310 2.228 . S
Cd310 O309 2.228 . S
Cd310 O314 2.273 . S
Cd310 O318 2.277 . S
O311 C308 1.160 . S
O311 Cd312 2.203 . S
Cd312 O311 2.203 . S
Cd312 O314 2.411 . S
Cd312 O315 2.333 . S
Cd312 O316 2.352 . S
Cd312 O320 2.277 . S
Cd312 O321 2.356 . S
C313 O318 1.209 . S
C313 O320 1.226 . S
O314 Cd310 2.273 . S
O314 Cd312 2.411 . S
O314 C317 1.320 . S
O315 Cd312 2.333 . S
O315 C317 1.214 . S
O316 Cd312 2.352 . S
O316 C319 1.258 . S
C317 O314 1.320 . S
C317 O315 1.214 . S
O318 Cd310 2.277 . S
O318 C313 1.209 . S
C319 O316 1.258 . S
C319 O321 1.282 . S
O320 Cd312 2.277 . S
O320 C313 1.226 . S
O321 Cd312 2.356 . S
O321 C319 1.282 . S
C322 O323 1.306 . S
C322 O325 1.160 . S
O323 C322 1.306 . S
O323 Cd324 2.228 . S
Cd324 O323 2.228 . S
Cd324 O328 2.273 . S
Cd324 O332 2.277 . S
O325 C322 1.160 . S
O325 Cd326 2.203 . S
Cd326 O325 2.203 . S
Cd326 O328 2.411 . S
Cd326 O329 2.333 . S
Cd326 O330 2.352 . S
Cd326 O334 2.277 . S
Cd326 O335 2.356 . S
C327 O332 1.209 . S
C327 O334 1.226 . S
O328 Cd324 2.273 . S
O328 Cd326 2.411 . S
O328 C331 1.320 . S
O329 Cd326 2.333 . S
O329 C331 1.214 . S
O330 Cd326 2.352 . S
O330 C333 1.258 . S
C331 O328 1.320 . S
C331 O329 1.214 . S
O332 Cd324 2.277 . S
O332 C327 1.209 . S
C333 O330 1.258 . S
C333 O335 1.282 . S
O334 Cd326 2.277 . S
O334 C327 1.226 . S
O335 Cd326 2.356 . S
O335 C333 1.282 . S
C336 O337 1.306 . S
C336 O339 1.160 . S
O337 C336 1.306 . S
O337 Cd338 2.228 . S
Cd338 O337 2.228 . S
Cd338 O342 2.273 . S
Cd338 O346 2.277 . S
O339 C336 1.160 . S
O339 Cd340 2.203 . S
Cd340 O339 2.203 . S
Cd340 O342 2.411 . S
Cd340 O343 2.333 . S
Cd340 O344 2.352 . S
Cd340 O348 2.277 . S
Cd340 O349 2.356 . S
C341 O346 1.209 . S
C341 O348 1.226 . S
O342 Cd338 2.273 . S
O342 Cd340 2.411 . S
O342 C345 1.320 . S
O343 Cd340 2.333 . S
O343 C345 1.214 . S
O344 Cd340 2.352 . S
O344 C347 1.258 . S
C345 O342 1.320 . S
C345 O343 1.214 . S
O346 Cd338 2.277 . S
O346 C341 1.209 . S
C347 O344 1.258 . S
C347 O349 1.282 . S
O348 Cd340 2.277 . S
O348 C341 1.226 . S
O349 Cd340 2.356 . S
O349 C347 1.282 . S
C350 O351 1.306 . S
C350 O353 1.160 . S
O351 C350 1.306 . S
O351 Cd352 2.228 . S
Cd352 O351 2.228 . S
Cd352 O356 2.273 . S
Cd352 O360 2.277 . S
O353 C350 1.160 . S
O353 Cd354 2.203 . S
Cd354 O353 2.203 . S
Cd354 O356 2.411 . S
Cd354 O357 2.333 . S
Cd354 O358 2.352 . S
Cd354 O362 2.277 . S
Cd354 O363 2.356 . S
C355 O360 1.209 . S
C355 O362 1.226 . S
O356 Cd352 2.273 . S
O356 Cd354 2.411 . S
O356 C359 1.320 . S
O357 Cd354 2.333 . S
O357 C359 1.214 . S
O358 Cd354 2.352 . S
O358 C361 1.258 . S
C359 O356 1.320 . S
C359 O357 1.214 . S
O360 Cd352 2.277 . S
O360 C355 1.209 . S
C361 O358 1.258 . S
C361 O363 1.282 . S
O362 Cd354 2.277 . S
O362 C355 1.226 . S
O363 Cd354 2.356 . S
O363 C361 1.282 . S
C364 O365 1.306 . S
C364 O367 1.160 . S
O365 C364 1.306 . S
O365 Cd366 2.228 . S
Cd366 O365 2.228 . S
Cd366 O370 2.273 . S
Cd366 O374 2.277 . S
O367 C364 1.160 . S
O367 Cd368 2.203 . S
Cd368 O367 2.203 . S
Cd368 O370 2.411 . S
Cd368 O371 2.333 . S
Cd368 O372 2.352 . S
Cd368 O376 2.277 . S
Cd368 O377 2.356 . S
C369 O374 1.209 . S
C369 O376 1.226 . S
O370 Cd366 2.273 . S
O370 Cd368 2.411 . S
O370 C373 1.320 . S
O371 Cd368 2.333 . S
O371 C373 1.214 . S
O372 Cd368 2.352 . S
O372 C375 1.258 . S
C373 O370 1.320 . S
C373 O371 1.214 . S
O374 Cd366 2.277 . S
O374 C369 1.209 . S
C375 O372 1.258 . S
C375 O377 1.282 . S
O376 Cd368 2.277 . S
O376 C369 1.226 . S
O377 Cd368 2.356 . S
O377 C375 1.282 . S
C378 O379 1.306 . S
C378 O381 1.160 . S
O379 C378 1.306 . S
O379 Cd380 2.228 . S
Cd380 O379 2.228 . S
Cd380 O384 2.273 . S
Cd380 O388 2.277 . S
O381 C378 1.160 . S
O381 Cd382 2.203 . S
Cd382 O381 2.203 . S
Cd382 O384 2.411 . S
Cd382 O385 2.333 . S
Cd382 O386 2.352 . S
Cd382 O390 2.277 . S
Cd382 O391 2.356 . S
C383 O388 1.209 . S
C383 O390 1.226 . S
O384 Cd380 2.273 . S
O384 Cd382 2.411 . S
O384 C387 1.320 . S
O385 Cd382 2.333 . S
O385 C387 1.214 . S
O386 Cd382 2.352 . S
O386 C389 1.258 . S
C387 O384 1.320 . S
C387 O385 1.214 . S
O388 Cd380 2.277 . S
O388 C383 1.209 . S
C389 O386 1.258 . S
C389 O391 1.282 . S
O390 Cd382 2.277 . S
O390 C383 1.226 . S
O391 Cd382 2.356 . S
O391 C389 1.282 . S
C392 O393 1.306 . S
C392 O395 1.160 . S
O393 C392 1.306 . S
O393 Cd394 2.228 . S
Cd394 O393 2.228 . S
Cd394 O398 2.273 . S
Cd394 O402 2.277 . S
O395 C392 1.160 . S
O395 Cd396 2.203 . S
Cd396 O395 2.203 . S
Cd396 O398 2.411 . S
Cd396 O399 2.333 . S
Cd396 O400 2.352 . S
Cd396 O404 2.277 . S
Cd396 O405 2.356 . S
C397 O402 1.209 . S
C397 O404 1.226 . S
O398 Cd394 2.273 . S
O398 Cd396 2.411 . S
O398 C401 1.320 . S
O399 Cd396 2.333 . S
O399 C401 1.214 . S
O400 Cd396 2.352 . S
O400 C403 1.258 . S
C401 O398 1.320 . S
C401 O399 1.214 . S
O402 Cd394 2.277 . S
O402 C397 1.209 . S
C403 O400 1.258 . S
C403 O405 1.282 . S
O404 Cd396 2.277 . S
O404 C397 1.226 . S
O405 Cd396 2.356 . S
O405 C403 1.282 . S
C406 O407 1.306 . S
C406 O409 1.160 . S
O407 C406 1.306 . S
O407 Cd408 2.228 . S
Cd408 O407 2.228 . S
Cd408 O412 2.273 . S
Cd408 O416 2.277 . S
O409 C406 1.160 . S
O409 Cd410 2.203 . S
Cd410 O409 2.203 . S
Cd410 O412 2.411 . S
Cd410 O413 2.333 . S
Cd410 O414 2.352 . S
Cd410 O418 2.277 . S
Cd410 O419 2.356 . S
C411 O416 1.209 . S
C411 O418 1.226 . S
O412 Cd408 2.273 . S
O412 Cd410 2.411 . S
O412 C415 1.320 . S
O413 Cd410 2.333 . S
O413 C415 1.214 . S
O414 Cd410 2.352 . S
O414 C417 1.258 . S
C415 O412 1.320 . S
C415 O413 1.214 . S
O416 Cd408 2.277 . S
O416 C411 1.209 . S
C417 O414 1.258 . S
C417 O419 1.282 . S
O418 Cd410 2.277 . S
O418 C411 1.226 . S
O419 Cd410 2.356 . S
O419 C417 1.282 . S
C420 O421 1.306 . S
C420 O423 1.160 . S
O421 C420 1.306 . S
O421 Cd422 2.228 . S
Cd422 O421 2.228 . S
Cd422 O426 2.273 . S
Cd422 O430 2.277 . S
O423 C420 1.160 . S
O423 Cd424 2.203 . S
Cd424 O423 2.203 . S
Cd424 O426 2.411 . S
Cd424 O427 2.333 . S
Cd424 O428 2.352 . S
Cd424 O432 2.277 . S
Cd424 O433 2.356 . S
C425 O430 1.209 . S
C425 O432 1.226 . S
O426 Cd422 2.273 . S
O426 Cd424 2.411 . S
O426 C429 1.320 . S
O427 Cd424 2.333 . S
O427 C429 1.214 . S
O428 Cd424 2.352 . S
O428 C431 1.258 . S
C429 O426 1.320 . S
C429 O427 1.214 . S
O430 Cd422 2.277 . S
O430 C425 1.209 . S
C431 O428 1.258 . S
C431 O433 1.282 . S
O432 Cd424 2.277 . S
O432 C425 1.226 . S
O433 Cd424 2.356 . S
O433 C431 1.282 . S
C434 O435 1.306 . S
C434 O437 1.160 . S
O435 C434 1.306 . S
O435 Cd436 2.228 . S
Cd436 O435 2.228 . S
Cd436 O440 2.273 . S
Cd436 O444 2.277 . S
O437 C434 1.160 . S
O437 Cd438 2.203 . S
Cd438 O437 2.203 . S
Cd438 O440 2.411 . S
Cd438 O441 2.333 . S
Cd438 O442 2.352 . S
Cd438 O446 2.277 . S
Cd438 O447 2.356 . S
C439 O444 1.209 . S
C439 O446 1.226 . S
O440 Cd436 2.273 . S
O440 Cd438 2.411 . S
O440 C443 1.320 . S
O441 Cd438 2.333 . S
O441 C443 1.214 . S
O442 Cd438 2.352 . S
O442 C445 1.258 . S
C443 O440 1.320 . S
C443 O441 1.214 . S
O444 Cd436 2.277 . S
O444 C439 1.209 . S
C445 O442 1.258 . S
C445 O447 1.282 . S
O446 Cd438 2.277 . S
O446 C439 1.226 . S
O447 Cd438 2.356 . S
O447 C445 1.282 . S
H448 C456 0.950 . S
H449 C461 0.950 . S
H450 C458 0.950 . S
H451 C460 0.950 . S
H452 C462 0.950 . S
H453 C464 0.950 . S
H454 C466 0.950 . S
H455 C467 0.950 . S
C456 H448 0.950 . S
C456 C457 1.386 1_545 S
C456 C458 1.391 . S
C457 C456 1.386 1_565 S
C457 C461 1.393 . S
C458 H450 0.950 . S
C458 C456 1.391 . S
C458 C459 1.400 1_545 S
C459 C458 1.400 1_565 S
C459 C460 1.398 . S
C459 C465 1.491 1_565 S
C460 H451 0.950 . S
C460 C459 1.398 . S
C460 C461 1.391 . S
C461 H449 0.950 . S
C461 C457 1.393 . S
C461 C460 1.391 . S
C462 H452 0.950 . S
C462 C463 1.386 1_565 S
C462 C464 1.391 . S
C463 C462 1.386 1_545 S
C463 C467 1.393 . S
C464 H453 0.950 . S
C464 C462 1.391 . S
C464 C465 1.400 1_565 S
C465 C459 1.491 1_545 S
C465 C464 1.400 1_545 S
C465 C466 1.398 . S
C466 H454 0.950 . S
C466 C465 1.398 . S
C466 C467 1.391 . S
C467 H455 0.950 . S
C467 C463 1.393 . S
C467 C466 1.391 . S
H468 C476 0.950 . S
H469 C481 0.950 . S
H470 C478 0.950 . S
H471 C480 0.950 . S
H472 C482 0.950 . S
H473 C484 0.950 . S
H474 C486 0.950 . S
H475 C487 0.950 . S
C476 H468 0.950 . S
C476 C477 1.386 . S
C476 C478 1.391 . S
C477 C476 1.386 . S
C477 C481 1.393 . S
C478 H470 0.950 . S
C478 C476 1.391 . S
C478 C479 1.400 . S
C479 C478 1.400 . S
C479 C480 1.398 . S
C479 C485 1.491 . S
C480 H471 0.950 . S
C480 C479 1.398 . S
C480 C481 1.391 . S
C481 H469 0.950 . S
C481 C477 1.393 . S
C481 C480 1.391 . S
C482 H472 0.950 . S
C482 C483 1.386 . S
C482 C484 1.391 . S
C483 C482 1.386 . S
C483 C487 1.393 . S
C484 H473 0.950 . S
C484 C482 1.391 . S
C484 C485 1.400 . S
C485 C479 1.491 . S
C485 C484 1.400 . S
C485 C486 1.398 . S
C486 H474 0.950 . S
C486 C485 1.398 . S
C486 C487 1.391 . S
C487 H475 0.950 . S
C487 C483 1.393 . S
C487 C486 1.391 . S
H488 C496 0.950 . S
H489 C501 0.950 . S
H490 C498 0.950 . S
H491 C500 0.950 . S
H492 C502 0.950 . S
H493 C504 0.950 . S
H494 C506 0.950 . S
H495 C507 0.950 . S
C496 H488 0.950 . S
C496 C497 1.386 1_565 S
C496 C498 1.391 . S
C497 C496 1.386 1_545 S
C497 C501 1.393 . S
C498 H490 0.950 . S
C498 C496 1.391 . S
C498 C499 1.400 1_565 S
C499 C498 1.400 1_545 S
C499 C500 1.398 . S
C499 C505 1.491 1_545 S
C500 H491 0.950 . S
C500 C499 1.398 . S
C500 C501 1.391 . S
C501 H489 0.950 . S
C501 C497 1.393 . S
C501 C500 1.391 . S
C502 H492 0.950 . S
C502 C503 1.386 1_545 S
C502 C504 1.391 . S
C503 C502 1.386 1_565 S
C503 C507 1.393 . S
C504 H493 0.950 . S
C504 C502 1.391 . S
C504 C505 1.400 1_545 S
C505 C499 1.491 1_565 S
C505 C504 1.400 1_565 S
C505 C506 1.398 . S
C506 H494 0.950 . S
C506 C505 1.398 . S
C506 C507 1.391 . S
C507 H495 0.950 . S
C507 C503 1.393 . S
C507 C506 1.391 . S
H508 C516 0.950 . S
H509 C521 0.950 . S
H510 C518 0.950 . S
H511 C520 0.950 . S
H512 C522 0.950 . S
H513 C524 0.950 . S
H514 C526 0.950 . S
H515 C527 0.950 . S
C516 H508 0.950 . S
C516 C517 1.386 . S
C516 C518 1.391 . S
C517 C516 1.386 . S
C517 C521 1.393 . S
C518 H510 0.950 . S
C518 C516 1.391 . S
C518 C519 1.400 . S
C519 C518 1.400 . S
C519 C520 1.398 . S
C519 C525 1.491 1_556 S
C520 H511 0.950 . S
C520 C519 1.398 . S
C520 C521 1.391 . S
C521 H509 0.950 . S
C521 C517 1.393 . S
C521 C520 1.391 . S
C522 H512 0.950 . S
C522 C523 1.386 . S
C522 C524 1.391 . S
C523 C522 1.386 . S
C523 C527 1.393 . S
C524 H513 0.950 . S
C524 C522 1.391 . S
C524 C525 1.400 . S
C525 C519 1.491 1_554 S
C525 C524 1.400 . S
C525 C526 1.398 . S
C526 H514 0.950 . S
C526 C525 1.398 . S
C526 C527 1.391 . S
C527 H515 0.950 . S
C527 C523 1.393 . S
C527 C526 1.391 . S
H528 C536 0.951 1_545 S
H529 C541 0.950 . S
H530 C538 0.950 . S
H531 C540 0.950 . S
H532 C542 0.951 1_565 S
H533 C544 0.950 . S
H534 C546 0.950 . S
H535 C547 0.950 . S
C536 H528 0.951 1_565 S
C536 C537 1.383 . S
C536 C538 1.392 1_565 S
C537 C536 1.383 . S
C537 C541 1.393 . S
C538 H530 0.950 . S
C538 C536 1.392 1_545 S
C538 C539 1.400 1_545 S
C539 C538 1.400 1_565 S
C539 C540 1.398 . S
C539 C545 1.491 1_565 S
C540 H531 0.950 . S
C540 C539 1.398 . S
C540 C541 1.391 . S
C541 H529 0.950 . S
C541 C537 1.393 . S
C541 C540 1.391 . S
C542 H532 0.951 1_545 S
C542 C543 1.383 . S
C542 C544 1.392 1_545 S
C543 C542 1.383 . S
C543 C547 1.393 . S
C544 H533 0.950 . S
C544 C542 1.392 1_565 S
C544 C545 1.400 1_565 S
C545 C539 1.491 1_545 S
C545 C544 1.400 1_545 S
C545 C546 1.398 . S
C546 H534 0.950 . S
C546 C545 1.398 . S
C546 C547 1.391 . S
C547 H535 0.950 . S
C547 C543 1.393 . S
C547 C546 1.391 . S
H548 C556 0.950 . S
H549 C561 0.950 . S
H550 C558 0.950 . S
H551 C560 0.950 . S
H552 C562 0.950 . S
H553 C564 0.950 . S
H554 C566 0.950 . S
H555 C567 0.950 . S
C556 H548 0.950 . S
C556 C557 1.386 . S
C556 C558 1.391 . S
C557 C556 1.386 . S
C557 C561 1.393 . S
C558 H550 0.950 . S
C558 C556 1.391 . S
C558 C559 1.400 . S
C559 C558 1.400 . S
C559 C560 1.398 . S
C559 C565 1.491 . S
C560 H551 0.950 . S
C560 C559 1.398 . S
C560 C561 1.391 . S
C561 H549 0.950 . S
C561 C557 1.393 . S
C561 C560 1.391 . S
C562 H552 0.950 . S
C562 C563 1.386 . S
C562 C564 1.391 . S
C563 C562 1.386 . S
C563 C567 1.393 . S
C564 H553 0.950 . S
C564 C562 1.391 . S
C564 C565 1.400 . S
C565 C559 1.491 . S
C565 C564 1.400 . S
C565 C566 1.398 . S
C566 H554 0.950 . S
C566 C565 1.398 . S
C566 C567 1.391 . S
C567 H555 0.950 . S
C567 C563 1.393 . S
C567 C566 1.391 . S
H568 C576 0.950 . S
H569 C581 0.950 . S
H570 C578 0.950 . S
H571 C580 0.950 1_565 S
H572 C582 0.950 . S
H573 C584 0.950 . S
H574 C586 0.950 1_545 S
H575 C587 0.950 . S
C576 H568 0.950 . S
C576 C577 1.386 . S
C576 C578 1.391 . S
C577 C576 1.386 . S
C577 C581 1.393 . S
C578 H570 0.950 . S
C578 C576 1.391 . S
C578 C579 1.400 . S
C579 C578 1.400 . S
C579 C580 1.398 . S
C579 C585 1.491 1_545 S
C580 H571 0.950 1_545 S
C580 C579 1.398 . S
C580 C581 1.391 . S
C581 H569 0.950 . S
C581 C577 1.393 . S
C581 C580 1.391 . S
C582 H572 0.950 . S
C582 C583 1.386 . S
C582 C584 1.391 . S
C583 C582 1.386 . S
C583 C587 1.393 . S
C584 H573 0.950 . S
C584 C582 1.391 . S
C584 C585 1.400 . S
C585 C579 1.491 1_565 S
C585 C584 1.400 . S
C585 C586 1.398 . S
C586 H574 0.950 1_565 S
C586 C585 1.398 . S
C586 C587 1.391 . S
C587 H575 0.950 . S
C587 C583 1.393 . S
C587 C586 1.391 . S
H588 C596 0.950 . S
H589 C601 0.950 . S
H590 C598 0.950 . S
H591 C600 0.950 . S
H592 C602 0.950 . S
H593 C604 0.950 . S
H594 C606 0.950 . S
H595 C607 0.950 . S
C596 H588 0.950 . S
C596 C597 1.386 . S
C596 C598 1.391 . S
C597 C596 1.386 . S
C597 C601 1.393 . S
C598 H590 0.950 . S
C598 C596 1.391 . S
C598 C599 1.400 . S
C599 C598 1.400 . S
C599 C600 1.398 . S
C599 C605 1.491 1_556 S
C600 H591 0.950 . S
C600 C599 1.398 . S
C600 C601 1.391 . S
C601 H589 0.950 . S
C601 C597 1.393 . S
C601 C600 1.391 . S
C602 H592 0.950 . S
C602 C603 1.386 . S
C602 C604 1.391 . S
C603 C602 1.386 . S
C603 C607 1.393 . S
C604 H593 0.950 . S
C604 C602 1.391 . S
C604 C605 1.400 . S
C605 C599 1.491 1_554 S
C605 C604 1.400 . S
C605 C606 1.398 . S
C606 H594 0.950 . S
C606 C605 1.398 . S
C606 C607 1.391 . S
C607 H595 0.950 . S
C607 C603 1.393 . S
C607 C606 1.391 . S
H608 C616 0.950 . S
H609 C621 0.950 . S
H610 C618 0.950 . S
H611 C620 0.950 . S
H612 C622 0.950 . S
H613 C624 0.950 . S
H614 C626 0.950 . S
H615 C627 0.950 . S
C616 H608 0.950 . S
C616 C617 1.386 . S
C616 C618 1.391 . S
C617 C616 1.386 . S
C617 C621 1.393 . S
C618 H610 0.950 . S
C618 C616 1.391 . S
C618 C619 1.400 . S
C619 C618 1.400 . S
C619 C620 1.398 . S
C619 C625 1.491 . S
C620 H611 0.950 . S
C620 C619 1.398 . S
C620 C621 1.391 . S
C621 H609 0.950 . S
C621 C617 1.393 . S
C621 C620 1.391 . S
C622 H612 0.950 . S
C622 C623 1.386 . S
C622 C624 1.391 . S
C623 C622 1.386 . S
C623 C627 1.393 . S
C624 H613 0.950 . S
C624 C622 1.391 . S
C624 C625 1.400 . S
C625 C619 1.491 . S
C625 C624 1.400 . S
C625 C626 1.398 . S
C626 H614 0.950 . S
C626 C625 1.398 . S
C626 C627 1.391 . S
C627 H615 0.950 . S
C627 C623 1.393 . S
C627 C626 1.391 . S
H628 C636 0.950 . S
H629 C641 0.950 . S
H630 C638 0.950 . S
H631 C640 0.950 . S
H632 C642 0.950 . S
H633 C644 0.950 . S
H634 C646 0.950 . S
H635 C647 0.950 . S
C636 H628 0.950 . S
C636 C637 1.386 . S
C636 C638 1.391 . S
C637 C636 1.386 . S
C637 C641 1.393 . S
C638 H630 0.950 . S
C638 C636 1.391 . S
C638 C639 1.400 . S
C639 C638 1.400 . S
C639 C640 1.398 . S
C639 C645 1.491 1_554 S
C640 H631 0.950 . S
C640 C639 1.398 . S
C640 C641 1.391 . S
C641 H629 0.950 . S
C641 C637 1.393 . S
C641 C640 1.391 . S
C642 H632 0.950 . S
C642 C643 1.386 . S
C642 C644 1.391 . S
C643 C642 1.386 . S
C643 C647 1.393 . S
C644 H633 0.950 . S
C644 C642 1.391 . S
C644 C645 1.400 . S
C645 C639 1.491 1_556 S
C645 C644 1.400 . S
C645 C646 1.398 . S
C646 H634 0.950 . S
C646 C645 1.398 . S
C646 C647 1.391 . S
C647 H635 0.950 . S
C647 C643 1.393 . S
C647 C646 1.391 . S
H648 C656 0.950 . S
H649 C661 0.950 . S
H650 C658 0.950 . S
H651 C660 0.950 . S
H652 C662 0.950 . S
H653 C664 0.950 . S
H654 C666 0.950 . S
H655 C667 0.950 . S
C656 H648 0.950 . S
C656 C657 1.386 . S
C656 C658 1.391 . S
C657 C656 1.386 . S
C657 C661 1.393 . S
C658 H650 0.950 . S
C658 C656 1.391 . S
C658 C659 1.400 . S
C659 C658 1.400 . S
C659 C660 1.398 . S
C659 C665 1.491 . S
C660 H651 0.950 . S
C660 C659 1.398 . S
C660 C661 1.391 . S
C661 H649 0.950 . S
C661 C657 1.393 . S
C661 C660 1.391 . S
C662 H652 0.950 . S
C662 C663 1.386 . S
C662 C664 1.391 . S
C663 C662 1.386 . S
C663 C667 1.393 . S
C664 H653 0.950 . S
C664 C662 1.391 . S
C664 C665 1.400 . S
C665 C659 1.491 . S
C665 C664 1.400 . S
C665 C666 1.398 . S
C666 H654 0.950 . S
C666 C665 1.398 . S
C666 C667 1.391 . S
C667 H655 0.950 . S
C667 C663 1.393 . S
C667 C666 1.391 . S
H668 C676 0.950 . S
H669 C681 0.950 . S
H670 C678 0.950 . S
H671 C680 0.950 . S
H672 C682 0.950 . S
H673 C684 0.950 . S
H674 C686 0.950 . S
H675 C687 0.950 . S
C676 H668 0.950 . S
C676 C677 1.386 . S
C676 C678 1.391 . S
C677 C676 1.386 . S
C677 C681 1.393 . S
C678 H670 0.950 . S
C678 C676 1.391 . S
C678 C679 1.400 . S
C679 C678 1.400 . S
C679 C680 1.398 . S
C679 C685 1.491 . S
C680 H671 0.950 . S
C680 C679 1.398 . S
C680 C681 1.391 . S
C681 H669 0.950 . S
C681 C677 1.393 . S
C681 C680 1.391 . S
C682 H672 0.950 . S
C682 C683 1.386 . S
C682 C684 1.391 . S
C683 C682 1.386 . S
C683 C687 1.393 . S
C684 H673 0.950 . S
C684 C682 1.391 . S
C684 C685 1.400 . S
C685 C679 1.491 . S
C685 C684 1.400 . S
C685 C686 1.398 . S
C686 H674 0.950 . S
C686 C685 1.398 . S
C686 C687 1.391 . S
C687 H675 0.950 . S
C687 C683 1.393 . S
C687 C686 1.391 . S
H688 C696 0.950 . S
H689 C701 0.950 . S
H690 C698 0.950 . S
H691 C700 0.950 . S
H692 C702 0.950 . S
H693 C704 0.950 . S
H694 C706 0.950 . S
H695 C707 0.950 . S
C696 H688 0.950 . S
C696 C697 1.386 . S
C696 C698 1.391 . S
C697 C696 1.386 . S
C697 C701 1.393 . S
C698 H690 0.950 . S
C698 C696 1.391 . S
C698 C699 1.400 . S
C699 C698 1.400 . S
C699 C700 1.398 . S
C699 C705 1.491 . S
C700 H691 0.950 . S
C700 C699 1.398 . S
C700 C701 1.391 . S
C701 H689 0.950 . S
C701 C697 1.393 . S
C701 C700 1.391 . S
C702 H692 0.950 . S
C702 C703 1.386 . S
C702 C704 1.391 . S
C703 C702 1.386 . S
C703 C707 1.393 . S
C704 H693 0.950 . S
C704 C702 1.391 . S
C704 C705 1.400 . S
C705 C699 1.491 . S
C705 C704 1.400 . S
C705 C706 1.398 . S
C706 H694 0.950 . S
C706 C705 1.398 . S
C706 C707 1.391 . S
C707 H695 0.950 . S
C707 C703 1.393 . S
C707 C706 1.391 . S
H708 C716 0.950 . S
H709 C721 0.950 . S
H710 C718 0.950 . S
H711 C720 0.950 . S
H712 C722 0.950 . S
H713 C724 0.950 . S
H714 C726 0.950 . S
H715 C727 0.950 . S
C716 H708 0.950 . S
C716 C717 1.386 . S
C716 C718 1.391 . S
C717 C716 1.386 . S
C717 C721 1.393 . S
C718 H710 0.950 . S
C718 C716 1.391 . S
C718 C719 1.400 . S
C719 C718 1.400 . S
C719 C720 1.398 . S
C719 C725 1.491 1_554 S
C720 H711 0.950 . S
C720 C719 1.398 . S
C720 C721 1.391 . S
C721 H709 0.950 . S
C721 C717 1.393 . S
C721 C720 1.391 . S
C722 H712 0.950 . S
C722 C723 1.386 . S
C722 C724 1.391 . S
C723 C722 1.386 . S
C723 C727 1.393 . S
C724 H713 0.950 . S
C724 C722 1.391 . S
C724 C725 1.400 . S
C725 C719 1.491 1_556 S
C725 C724 1.400 . S
C725 C726 1.398 . S
C726 H714 0.950 . S
C726 C725 1.398 . S
C726 C727 1.391 . S
C727 H715 0.950 . S
C727 C723 1.393 . S
C727 C726 1.391 . S
H728 C736 0.950 . S
H729 C741 0.950 . S
H730 C738 0.950 . S
H731 C740 0.950 . S
H732 C742 0.950 . S
H733 C744 0.950 . S
H734 C746 0.950 . S
H735 C747 0.950 . S
C736 H728 0.950 . S
C736 C737 1.386 . S
C736 C738 1.391 . S
C737 C736 1.386 . S
C737 C741 1.393 . S
C738 H730 0.950 . S
C738 C736 1.391 . S
C738 C739 1.400 . S
C739 C738 1.400 . S
C739 C740 1.398 . S
C739 C745 1.491 . S
C740 H731 0.950 . S
C740 C739 1.398 . S
C740 C741 1.391 . S
C741 H729 0.950 . S
C741 C737 1.393 . S
C741 C740 1.391 . S
C742 H732 0.950 . S
C742 C743 1.386 . S
C742 C744 1.391 . S
C743 C742 1.386 . S
C743 C747 1.393 . S
C744 H733 0.950 . S
C744 C742 1.391 . S
C744 C745 1.400 . S
C745 C739 1.491 . S
C745 C744 1.400 . S
C745 C746 1.398 . S
C746 H734 0.950 . S
C746 C745 1.398 . S
C746 C747 1.391 . S
C747 H735 0.950 . S
C747 C743 1.393 . S
C747 C746 1.391 . S
H748 C756 0.950 . S
H749 C761 0.950 . S
H750 C758 0.950 . S
H751 C760 0.950 . S
H752 C762 0.950 . S
H753 C764 0.950 . S
H754 C766 0.950 . S
H755 C767 0.950 . S
C756 H748 0.950 . S
C756 C757 1.386 . S
C756 C758 1.391 . S
C757 C756 1.386 . S
C757 C761 1.393 . S
C758 H750 0.950 . S
C758 C756 1.391 . S
C758 C759 1.400 . S
C759 C758 1.400 . S
C759 C760 1.398 . S
C759 C765 1.491 . S
C760 H751 0.950 . S
C760 C759 1.398 . S
C760 C761 1.391 . S
C761 H749 0.950 . S
C761 C757 1.393 . S
C761 C760 1.391 . S
C762 H752 0.950 . S
C762 C763 1.386 . S
C762 C764 1.391 . S
C763 C762 1.386 . S
C763 C767 1.393 . S
C764 H753 0.950 . S
C764 C762 1.391 . S
C764 C765 1.400 . S
C765 C759 1.491 . S
C765 C764 1.400 . S
C765 C766 1.398 . S
C766 H754 0.950 . S
C766 C765 1.398 . S
C766 C767 1.391 . S
C767 H755 0.950 . S
C767 C763 1.393 . S
C767 C766 1.391 . S
H768 C776 0.950 . S
H769 C781 0.950 . S
H770 C778 0.950 . S
H771 C780 0.950 . S
H772 C782 0.950 . S
H773 C784 0.950 . S
H774 C786 0.950 . S
H775 C787 0.950 . S
C776 H768 0.950 . S
C776 C777 1.386 . S
C776 C778 1.391 . S
C777 C776 1.386 . S
C777 C781 1.393 1_565 S
C778 H770 0.950 . S
C778 C776 1.391 . S
C778 C779 1.400 . S
C779 C778 1.400 . S
C779 C780 1.398 . S
C779 C785 1.491 . S
C780 H771 0.950 . S
C780 C779 1.398 . S
C780 C781 1.391 1_565 S
C781 H769 0.950 . S
C781 C777 1.393 1_545 S
C781 C780 1.391 1_545 S
C782 H772 0.950 . S
C782 C783 1.386 . S
C782 C784 1.391 . S
C783 C782 1.386 . S
C783 C787 1.393 . S
C784 H773 0.950 . S
C784 C782 1.391 . S
C784 C785 1.400 . S
C785 C779 1.491 . S
C785 C784 1.400 . S
C785 C786 1.398 . S
C786 H774 0.950 . S
C786 C785 1.398 . S
C786 C787 1.391 . S
C787 H775 0.950 . S
C787 C783 1.393 . S
C787 C786 1.391 . S
H788 C796 0.950 . S
H789 C801 0.950 . S
H790 C798 0.950 . S
H791 C800 0.950 . S
H792 C802 0.950 1_565 S
H793 C804 0.950 . S
H794 C806 0.950 . S
H795 C807 0.950 . S
C796 H788 0.950 . S
C796 C797 1.386 . S
C796 C798 1.391 . S
C797 C796 1.386 . S
C797 C801 1.393 . S
C798 H790 0.950 . S
C798 C796 1.391 . S
C798 C799 1.400 . S
C799 C798 1.400 . S
C799 C800 1.398 . S
C799 C805 1.491 . S
C800 H791 0.950 . S
C800 C799 1.398 . S
C800 C801 1.391 . S
C801 H789 0.950 . S
C801 C797 1.393 . S
C801 C800 1.391 . S
C802 H792 0.950 1_545 S
C802 C803 1.386 . S
C802 C804 1.391 . S
C803 C802 1.386 . S
C803 C807 1.393 . S
C804 H793 0.950 . S
C804 C802 1.391 . S
C804 C805 1.400 . S
C805 C799 1.491 . S
C805 C804 1.400 . S
C805 C806 1.398 . S
C806 H794 0.950 . S
C806 C805 1.398 . S
C806 C807 1.391 . S
C807 H795 0.950 . S
C807 C803 1.393 . S
C807 C806 1.391 . S
H808 C816 0.950 . S
H809 C821 0.950 . S
H810 C818 0.950 . S
H811 C820 0.950 . S
H812 C822 0.950 . S
H813 C824 0.950 . S
H814 C826 0.950 . S
H815 C827 0.950 . S
C816 H808 0.950 . S
C816 C817 1.386 . S
C816 C818 1.391 . S
C817 C816 1.386 . S
C817 C821 1.393 1_545 S
C818 H810 0.950 . S
C818 C816 1.391 . S
C818 C819 1.400 . S
C819 C818 1.400 . S
C819 C820 1.398 . S
C819 C825 1.491 . S
C820 H811 0.950 . S
C820 C819 1.398 . S
C820 C821 1.391 1_545 S
C821 H809 0.950 . S
C821 C817 1.393 1_565 S
C821 C820 1.391 1_565 S
C822 H812 0.950 . S
C822 C823 1.386 . S
C822 C824 1.391 . S
C823 C822 1.386 . S
C823 C827 1.393 . S
C824 H813 0.950 . S
C824 C822 1.391 . S
C824 C825 1.400 . S
C825 C819 1.491 . S
C825 C824 1.400 . S
C825 C826 1.398 . S
C826 H814 0.950 . S
C826 C825 1.398 . S
C826 C827 1.391 . S
C827 H815 0.950 . S
C827 C823 1.393 . S
C827 C826 1.391 . S
H828 C836 0.950 . S
H829 C841 0.950 . S
H830 C838 0.950 . S
H831 C840 0.950 . S
H832 C842 0.950 . S
H833 C844 0.950 . S
H834 C846 0.950 . S
H835 C847 0.950 . S
C836 H828 0.950 . S
C836 C837 1.386 . S
C836 C838 1.391 . S
C837 C836 1.386 . S
C837 C841 1.393 1_565 S
C838 H830 0.950 . S
C838 C836 1.391 . S
C838 C839 1.400 . S
C839 C838 1.400 . S
C839 C840 1.398 . S
C839 C845 1.491 . S
C840 H831 0.950 . S
C840 C839 1.398 . S
C840 C841 1.391 1_565 S
C841 H829 0.950 . S
C841 C837 1.393 1_545 S
C841 C840 1.391 1_545 S
C842 H832 0.950 . S
C842 C843 1.386 . S
C842 C844 1.391 . S
C843 C842 1.386 . S
C843 C847 1.393 . S
C844 H833 0.950 . S
C844 C842 1.391 . S
C844 C845 1.400 . S
C845 C839 1.491 . S
C845 C844 1.400 . S
C845 C846 1.398 . S
C846 H834 0.950 . S
C846 C845 1.398 . S
C846 C847 1.391 . S
C847 H835 0.950 . S
C847 C843 1.393 . S
C847 C846 1.391 . S
H848 C856 0.950 . S
H849 C861 0.950 . S
H850 C858 0.950 . S
H851 C860 0.950 . S
H852 C862 0.950 . S
H853 C864 0.950 . S
H854 C866 0.950 . S
H855 C867 0.950 . S
C856 H848 0.950 . S
C856 C857 1.386 . S
C856 C858 1.391 . S
C857 C856 1.386 . S
C857 C861 1.393 . S
C858 H850 0.950 . S
C858 C856 1.391 . S
C858 C859 1.400 . S
C859 C858 1.400 . S
C859 C860 1.398 . S
C859 C865 1.491 . S
C860 H851 0.950 . S
C860 C859 1.398 . S
C860 C861 1.391 . S
C861 H849 0.950 . S
C861 C857 1.393 . S
C861 C860 1.391 . S
C862 H852 0.950 . S
C862 C863 1.386 1_565 S
C862 C864 1.391 1_565 S
C863 C862 1.386 1_545 S
C863 C867 1.393 . S
C864 H853 0.950 . S
C864 C862 1.391 1_545 S
C864 C865 1.400 . S
C865 C859 1.491 . S
C865 C864 1.400 . S
C865 C866 1.398 . S
C866 H854 0.950 . S
C866 C865 1.398 . S
C866 C867 1.391 . S
C867 H855 0.950 . S
C867 C863 1.393 . S
C867 C866 1.391 . S
H868 C876 0.950 . S
H869 C881 0.950 . S
H870 C878 0.950 . S
H871 C880 0.950 . S
H872 C882 0.950 . S
H873 C884 0.950 . S
H874 C886 0.950 . S
H875 C887 0.950 . S
C876 H868 0.950 . S
C876 C877 1.386 . S
C876 C878 1.391 . S
C877 C876 1.386 . S
C877 C881 1.393 1_565 S
C878 H870 0.950 . S
C878 C876 1.391 . S
C878 C879 1.400 . S
C879 C878 1.400 . S
C879 C880 1.398 . S
C879 C885 1.491 . S
C880 H871 0.950 . S
C880 C879 1.398 . S
C880 C881 1.391 1_565 S
C881 H869 0.950 . S
C881 C877 1.393 1_545 S
C881 C880 1.391 1_545 S
C882 H872 0.950 . S
C882 C883 1.386 . S
C882 C884 1.391 . S
C883 C882 1.386 . S
C883 C887 1.393 . S
C884 H873 0.950 . S
C884 C882 1.391 . S
C884 C885 1.400 . S
C885 C879 1.491 . S
C885 C884 1.400 . S
C885 C886 1.398 . S
C886 H874 0.950 . S
C886 C885 1.398 . S
C886 C887 1.391 . S
C887 H875 0.950 . S
C887 C883 1.393 . S
C887 C886 1.391 . S
H888 C896 0.950 . S
H889 C901 0.950 . S
H890 C898 0.950 . S
H891 C900 0.950 . S
H892 C902 0.950 . S
H893 C904 0.950 . S
H894 C906 0.950 . S
H895 C907 0.950 . S
C896 H888 0.950 . S
C896 C897 1.386 . S
C896 C898 1.391 . S
C897 C896 1.386 . S
C897 C901 1.393 . S
C898 H890 0.950 . S
C898 C896 1.391 . S
C898 C899 1.400 . S
C899 C898 1.400 . S
C899 C900 1.398 . S
C899 C905 1.491 . S
C900 H891 0.950 . S
C900 C899 1.398 . S
C900 C901 1.391 . S
C901 H889 0.950 . S
C901 C897 1.393 . S
C901 C900 1.391 . S
C902 H892 0.950 . S
C902 C903 1.386 1_545 S
C902 C904 1.391 1_545 S
C903 C902 1.386 1_565 S
C903 C907 1.393 . S
C904 H893 0.950 . S
C904 C902 1.391 1_565 S
C904 C905 1.400 . S
C905 C899 1.491 . S
C905 C904 1.400 . S
C905 C906 1.398 . S
C906 H894 0.950 . S
C906 C905 1.398 . S
C906 C907 1.391 . S
C907 H895 0.950 . S
C907 C903 1.393 . S
C907 C906 1.391 . S
H908 C916 0.950 . S
H909 C921 0.950 . S
H910 C918 0.950 . S
H911 C920 0.950 . S
H912 C922 0.950 . S
H913 C924 0.950 . S
H914 C926 0.950 . S
H915 C927 0.950 . S
C916 H908 0.950 . S
C916 C917 1.386 . S
C916 C918 1.391 . S
C917 C916 1.386 . S
C917 C921 1.393 . S
C918 H910 0.950 . S
C918 C916 1.391 . S
C918 C919 1.400 . S
C919 C918 1.400 . S
C919 C920 1.398 . S
C919 C925 1.491 . S
C920 H911 0.950 . S
C920 C919 1.398 . S
C920 C921 1.391 . S
C921 H909 0.950 . S
C921 C917 1.393 . S
C921 C920 1.391 . S
C922 H912 0.950 . S
C922 C923 1.386 1_565 S
C922 C924 1.391 1_565 S
C923 C922 1.386 1_545 S
C923 C927 1.393 . S
C924 H913 0.950 . S
C924 C922 1.391 1_545 S
C924 C925 1.400 . S
C925 C919 1.491 . S
C925 C924 1.400 . S
C925 C926 1.398 . S
C926 H914 0.950 . S
C926 C925 1.398 . S
C926 C927 1.391 . S
C927 H915 0.950 . S
C927 C923 1.393 . S
C927 C926 1.391 . S
H928 C936 0.950 . S
H929 C941 0.950 . S
H930 C938 0.950 . S
H931 C940 0.950 . S
H932 C942 0.950 . S
H933 C944 0.950 . S
H934 C946 0.950 . S
H935 C947 0.950 . S
C936 H928 0.950 . S
C936 C937 1.386 . S
C936 C938 1.391 . S
C937 C936 1.386 . S
C937 C941 1.393 . S
C938 H930 0.950 . S
C938 C936 1.391 . S
C938 C939 1.400 . S
C939 C938 1.400 . S
C939 C940 1.398 . S
C939 C945 1.491 . S
C940 H931 0.950 . S
C940 C939 1.398 . S
C940 C941 1.391 . S
C941 H929 0.950 . S
C941 C937 1.393 . S
C941 C940 1.391 . S
C942 H932 0.950 . S
C942 C943 1.386 . S
C942 C944 1.391 . S
C943 C942 1.386 . S
C943 C947 1.393 . S
C944 H933 0.950 . S
C944 C942 1.391 . S
C944 C945 1.400 . S
C945 C939 1.491 . S
C945 C944 1.400 . S
C945 C946 1.398 . S
C946 H934 0.950 . S
C946 C945 1.398 . S
C946 C947 1.391 . S
C947 H935 0.950 . S
C947 C943 1.393 . S
C947 C946 1.391 . S
H948 C956 0.950 . S
H949 C961 0.950 . S
H950 C958 0.950 . S
H951 C960 0.950 . S
H952 C962 0.950 . S
H953 C964 0.950 . S
H954 C966 0.950 . S
H955 C967 0.950 . S
C956 H948 0.950 . S
C956 C957 1.386 . S
C956 C958 1.391 . S
C957 C956 1.386 . S
C957 C961 1.393 . S
C958 H950 0.950 . S
C958 C956 1.391 . S
C958 C959 1.400 . S
C959 C958 1.400 . S
C959 C960 1.398 . S
C959 C965 1.491 . S
C960 H951 0.950 . S
C960 C959 1.398 . S
C960 C961 1.391 . S
C961 H949 0.950 . S
C961 C957 1.393 . S
C961 C960 1.391 . S
C962 H952 0.950 . S
C962 C963 1.386 . S
C962 C964 1.391 . S
C963 C962 1.386 . S
C963 C967 1.393 . S
C964 H953 0.950 . S
C964 C962 1.391 . S
C964 C965 1.400 . S
C965 C959 1.491 . S
C965 C964 1.400 . S
C965 C966 1.398 . S
C966 H954 0.950 . S
C966 C965 1.398 . S
C966 C967 1.391 . S
C967 H955 0.950 . S
C967 C963 1.393 . S
C967 C966 1.391 . S
H968 C976 0.950 . S
H969 C981 0.950 . S
H970 C978 0.950 . S
H971 C980 0.950 . S
H972 C982 0.950 . S
H973 C984 0.950 . S
H974 C986 0.950 . S
H975 C987 0.950 . S
C976 H968 0.950 . S
C976 C977 1.386 . S
C976 C978 1.391 . S
C977 C976 1.386 . S
C977 C981 1.393 . S
C978 H970 0.950 . S
C978 C976 1.391 . S
C978 C979 1.400 . S
C979 C978 1.400 . S
C979 C980 1.398 . S
C979 C985 1.491 . S
C980 H971 0.950 . S
C980 C979 1.398 . S
C980 C981 1.391 . S
C981 H969 0.950 . S
C981 C977 1.393 . S
C981 C980 1.391 . S
C982 H972 0.950 . S
C982 C983 1.386 . S
C982 C984 1.391 . S
C983 C982 1.386 . S
C983 C987 1.393 . S
C984 H973 0.950 . S
C984 C982 1.391 . S
C984 C985 1.400 . S
C985 C979 1.491 . S
C985 C984 1.400 . S
C985 C986 1.398 . S
C986 H974 0.950 . S
C986 C985 1.398 . S
C986 C987 1.391 . S
C987 H975 0.950 . S
C987 C983 1.393 . S
C987 C986 1.391 . S
H988 C996 0.950 . S
H989 C1001 0.950 . S
H990 C998 0.950 . S
H991 C1000 0.950 . S
H992 C1002 0.950 . S
H993 C1004 0.950 . S
H994 C1006 0.950 . S
H995 C1007 0.950 . S
C996 H988 0.950 . S
C996 C997 1.386 . S
C996 C998 1.391 . S
C997 C996 1.386 . S
C997 C1001 1.393 . S
C998 H990 0.950 . S
C998 C996 1.391 . S
C998 C999 1.400 . S
C999 C998 1.400 . S
C999 C1000 1.398 . S
C999 C1005 1.491 . S
C1000 H991 0.950 . S
C1000 C999 1.398 . S
C1000 C1001 1.391 . S
C1001 H989 0.950 . S
C1001 C997 1.393 . S
C1001 C1000 1.391 . S
C1002 H992 0.950 . S
C1002 C1003 1.386 . S
C1002 C1004 1.391 . S
C1003 C1002 1.386 . S
C1003 C1007 1.393 . S
C1004 H993 0.950 . S
C1004 C1002 1.391 . S
C1004 C1005 1.400 . S
C1005 C999 1.491 . S
C1005 C1004 1.400 . S
C1005 C1006 1.398 . S
C1006 H994 0.950 . S
C1006 C1005 1.398 . S
C1006 C1007 1.391 . S
C1007 H995 0.950 . S
C1007 C1003 1.393 . S
C1007 C1006 1.391 . S
H1008 C1016 0.950 . S
H1009 C1021 0.950 . S
H1010 C1018 0.950 . S
H1011 C1020 0.950 . S
H1012 C1022 0.950 . S
H1013 C1024 0.950 . S
H1014 C1026 0.950 . S
H1015 C1027 0.950 . S
C1016 H1008 0.950 . S
C1016 C1017 1.386 . S
C1016 C1018 1.391 . S
C1017 C1016 1.386 . S
C1017 C1021 1.393 . S
C1018 H1010 0.950 . S
C1018 C1016 1.391 . S
C1018 C1019 1.400 . S
C1019 C1018 1.400 . S
C1019 C1020 1.398 . S
C1019 C1025 1.491 . S
C1020 H1011 0.950 . S
C1020 C1019 1.398 . S
C1020 C1021 1.391 . S
C1021 H1009 0.950 . S
C1021 C1017 1.393 . S
C1021 C1020 1.391 . S
C1022 H1012 0.950 . S
C1022 C1023 1.386 . S
C1022 C1024 1.391 . S
C1023 C1022 1.386 . S
C1023 C1027 1.393 . S
C1024 H1013 0.950 . S
C1024 C1022 1.391 . S
C1024 C1025 1.400 . S
C1025 C1019 1.491 . S
C1025 C1024 1.400 . S
C1025 C1026 1.398 . S
C1026 H1014 0.950 . S
C1026 C1025 1.398 . S
C1026 C1027 1.391 . S
C1027 H1015 0.950 . S
C1027 C1023 1.393 . S
C1027 C1026 1.391 . S
H1028 C1036 0.950 . S
H1029 C1041 0.950 . S
H1030 C1038 0.950 . S
H1031 C1040 0.950 . S
H1032 C1042 0.950 . S
H1033 C1044 0.950 . S
H1034 C1046 0.950 . S
H1035 C1047 0.950 . S
C1036 H1028 0.950 . S
C1036 C1037 1.386 . S
C1036 C1038 1.391 . S
C1037 C1036 1.386 . S
C1037 C1041 1.393 . S
C1038 H1030 0.950 . S
C1038 C1036 1.391 . S
C1038 C1039 1.400 . S
C1039 C1038 1.400 . S
C1039 C1040 1.398 . S
C1039 C1045 1.491 . S
C1040 H1031 0.950 . S
C1040 C1039 1.398 . S
C1040 C1041 1.391 . S
C1041 H1029 0.950 . S
C1041 C1037 1.393 . S
C1041 C1040 1.391 . S
C1042 H1032 0.950 . S
C1042 C1043 1.386 . S
C1042 C1044 1.391 . S
C1043 C1042 1.386 . S
C1043 C1047 1.393 . S
C1044 H1033 0.950 . S
C1044 C1042 1.391 . S
C1044 C1045 1.400 . S
C1045 C1039 1.491 . S
C1045 C1044 1.400 . S
C1045 C1046 1.398 . S
C1046 H1034 0.950 . S
C1046 C1045 1.398 . S
C1046 C1047 1.391 . S
C1047 H1035 0.950 . S
C1047 C1043 1.393 . S
C1047 C1046 1.391 . S
H1048 C1056 0.950 . S
H1049 C1061 0.950 . S
H1050 C1058 0.950 . S
H1051 C1060 0.950 . S
H1052 C1062 0.950 . S
H1053 C1064 0.950 . S
H1054 C1066 0.950 . S
H1055 C1067 0.950 . S
C1056 H1048 0.950 . S
C1056 C1057 1.386 . S
C1056 C1058 1.391 . S
C1057 C1056 1.386 . S
C1057 C1061 1.393 . S
C1058 H1050 0.950 . S
C1058 C1056 1.391 . S
C1058 C1059 1.400 . S
C1059 C1058 1.400 . S
C1059 C1060 1.398 . S
C1059 C1065 1.491 . S
C1060 H1051 0.950 . S
C1060 C1059 1.398 . S
C1060 C1061 1.391 . S
C1061 H1049 0.950 . S
C1061 C1057 1.393 . S
C1061 C1060 1.391 . S
C1062 H1052 0.950 . S
C1062 C1063 1.386 . S
C1062 C1064 1.391 . S
C1063 C1062 1.386 . S
C1063 C1067 1.393 . S
C1064 H1053 0.950 . S
C1064 C1062 1.391 . S
C1064 C1065 1.400 . S
C1065 C1059 1.491 . S
C1065 C1064 1.400 . S
C1065 C1066 1.398 . S
C1066 H1054 0.950 . S
C1066 C1065 1.398 . S
C1066 C1067 1.391 . S
C1067 H1055 0.950 . S
C1067 C1063 1.393 . S
C1067 C1066 1.391 . S
H1068 C1076 0.950 . S
H1069 C1081 0.950 . S
H1070 C1078 0.950 . S
H1071 C1080 0.950 . S
H1072 C1082 0.950 . S
H1073 C1084 0.950 . S
H1074 C1086 0.950 . S
H1075 C1087 0.950 . S
C1076 H1068 0.950 . S
C1076 C1077 1.386 . S
C1076 C1078 1.391 . S
C1077 C1076 1.386 . S
C1077 C1081 1.393 . S
C1078 H1070 0.950 . S
C1078 C1076 1.391 . S
C1078 C1079 1.400 . S
C1079 C1078 1.400 . S
C1079 C1080 1.398 . S
C1079 C1085 1.491 . S
C1080 H1071 0.950 . S
C1080 C1079 1.398 . S
C1080 C1081 1.391 . S
C1081 H1069 0.950 . S
C1081 C1077 1.393 . S
C1081 C1080 1.391 . S
C1082 H1072 0.950 . S
C1082 C1083 1.386 . S
C1082 C1084 1.391 . S
C1083 C1082 1.386 . S
C1083 C1087 1.393 . S
C1084 H1073 0.950 . S
C1084 C1082 1.391 . S
C1084 C1085 1.400 . S
C1085 C1079 1.491 . S
C1085 C1084 1.400 . S
C1085 C1086 1.398 . S
C1086 H1074 0.950 . S
C1086 C1085 1.398 . S
C1086 C1087 1.391 . S
C1087 H1075 0.950 . S
C1087 C1083 1.393 . S
C1087 C1086 1.391 . S
H1088 C1096 0.950 . S
H1089 C1101 0.950 . S
H1090 C1098 0.950 . S
H1091 C1100 0.950 . S
H1092 C1102 0.950 . S
H1093 C1104 0.950 . S
H1094 C1106 0.950 . S
H1095 C1107 0.950 . S
C1096 H1088 0.950 . S
C1096 C1097 1.386 . S
C1096 C1098 1.391 . S
C1097 C1096 1.386 . S
C1097 C1101 1.393 . S
C1098 H1090 0.950 . S
C1098 C1096 1.391 . S
C1098 C1099 1.400 . S
C1099 C1098 1.400 . S
C1099 C1100 1.398 . S
C1099 C1105 1.491 . S
C1100 H1091 0.950 . S
C1100 C1099 1.398 . S
C1100 C1101 1.391 . S
C1101 H1089 0.950 . S
C1101 C1097 1.393 . S
C1101 C1100 1.391 . S
C1102 H1092 0.950 . S
C1102 C1103 1.386 . S
C1102 C1104 1.391 . S
C1103 C1102 1.386 . S
C1103 C1107 1.393 . S
C1104 H1093 0.950 . S
C1104 C1102 1.391 . S
C1104 C1105 1.400 . S
C1105 C1099 1.491 . S
C1105 C1104 1.400 . S
C1105 C1106 1.398 . S
C1106 H1094 0.950 . S
C1106 C1105 1.398 . S
C1106 C1107 1.391 . S
C1107 H1095 0.950 . S
C1107 C1103 1.393 . S
C1107 C1106 1.391 . S
H1108 C1116 0.950 . S
H1109 C1121 0.950 . S
H1110 C1118 0.950 . S
H1111 C1120 0.950 . S
H1112 C1122 0.950 . S
H1113 C1124 0.950 . S
H1114 C1126 0.950 . S
H1115 C1127 0.950 . S
C1116 H1108 0.950 . S
C1116 C1117 1.386 . S
C1116 C1118 1.391 . S
C1117 C1116 1.386 . S
C1117 C1121 1.393 . S
C1118 H1110 0.950 . S
C1118 C1116 1.391 . S
C1118 C1119 1.400 . S
C1119 C1118 1.400 . S
C1119 C1120 1.398 . S
C1119 C1125 1.491 . S
C1120 H1111 0.950 . S
C1120 C1119 1.398 . S
C1120 C1121 1.391 . S
C1121 H1109 0.950 . S
C1121 C1117 1.393 . S
C1121 C1120 1.391 . S
C1122 H1112 0.950 . S
C1122 C1123 1.386 1_455 S
C1122 C1124 1.391 . S
C1123 C1122 1.386 1_655 S
C1123 C1127 1.393 . S
C1124 H1113 0.950 . S
C1124 C1122 1.391 . S
C1124 C1125 1.400 . S
C1125 C1119 1.491 . S
C1125 C1124 1.400 . S
C1125 C1126 1.398 . S
C1126 H1114 0.950 . S
C1126 C1125 1.398 . S
C1126 C1127 1.391 1_455 S
C1127 H1115 0.950 . S
C1127 C1123 1.393 . S
C1127 C1126 1.391 1_655 S
H1128 C1136 0.950 . S
H1129 C1141 0.950 . S
H1130 C1138 0.950 . S
H1131 C1140 0.950 . S
H1132 C1142 0.950 . S
H1133 C1144 0.950 . S
H1134 C1146 0.950 . S
H1135 C1147 0.950 . S
C1136 H1128 0.950 . S
C1136 C1137 1.386 . S
C1136 C1138 1.391 . S
C1137 C1136 1.386 . S
C1137 C1141 1.393 . S
C1138 H1130 0.950 . S
C1138 C1136 1.391 . S
C1138 C1139 1.400 . S
C1139 C1138 1.400 . S
C1139 C1140 1.398 . S
C1139 C1145 1.491 . S
C1140 H1131 0.950 . S
C1140 C1139 1.398 . S
C1140 C1141 1.391 . S
C1141 H1129 0.950 . S
C1141 C1137 1.393 . S
C1141 C1140 1.391 . S
C1142 H1132 0.950 . S
C1142 C1143 1.386 . S
C1142 C1144 1.391 . S
C1143 C1142 1.386 . S
C1143 C1147 1.393 . S
C1144 H1133 0.950 . S
C1144 C1142 1.391 . S
C1144 C1145 1.400 . S
C1145 C1139 1.491 . S
C1145 C1144 1.400 . S
C1145 C1146 1.398 . S
C1146 H1134 0.950 . S
C1146 C1145 1.398 . S
C1146 C1147 1.391 . S
C1147 H1135 0.950 . S
C1147 C1143 1.393 . S
C1147 C1146 1.391 . S
H1148 C1156 0.950 . S
H1149 C1161 0.950 . S
H1150 C1158 0.950 . S
H1151 C1160 0.950 . S
H1152 C1162 0.950 . S
H1153 C1164 0.950 . S
H1154 C1166 0.950 . S
H1155 C1167 0.950 . S
C1156 H1148 0.950 . S
C1156 C1157 1.386 . S
C1156 C1158 1.391 . S
C1157 C1156 1.386 . S
C1157 C1161 1.393 . S
C1158 H1150 0.950 . S
C1158 C1156 1.391 . S
C1158 C1159 1.400 . S
C1159 C1158 1.400 . S
C1159 C1160 1.398 . S
C1159 C1165 1.491 . S
C1160 H1151 0.950 . S
C1160 C1159 1.398 . S
C1160 C1161 1.391 . S
C1161 H1149 0.950 . S
C1161 C1157 1.393 . S
C1161 C1160 1.391 . S
C1162 H1152 0.950 . S
C1162 C1163 1.386 . S
C1162 C1164 1.391 . S
C1163 C1162 1.386 . S
C1163 C1167 1.393 . S
C1164 H1153 0.950 . S
C1164 C1162 1.391 . S
C1164 C1165 1.400 . S
C1165 C1159 1.491 . S
C1165 C1164 1.400 . S
C1165 C1166 1.398 . S
C1166 H1154 0.950 . S
C1166 C1165 1.398 . S
C1166 C1167 1.391 . S
C1167 H1155 0.950 . S
C1167 C1163 1.393 . S
C1167 C1166 1.391 . S
H1168 C1176 0.950 . S
H1169 C1181 0.950 . S
H1170 C1178 0.950 . S
H1171 C1180 0.950 . S
H1172 C1182 0.950 . S
H1173 C1184 0.950 . S
H1174 C1186 0.950 . S
H1175 C1187 0.950 . S
C1176 H1168 0.950 . S
C1176 C1177 1.386 . S
C1176 C1178 1.391 . S
C1177 C1176 1.386 . S
C1177 C1181 1.393 . S
C1178 H1170 0.950 . S
C1178 C1176 1.391 . S
C1178 C1179 1.400 . S
C1179 C1178 1.400 . S
C1179 C1180 1.398 . S
C1179 C1185 1.491 . S
C1180 H1171 0.950 . S
C1180 C1179 1.398 . S
C1180 C1181 1.391 . S
C1181 H1169 0.950 . S
C1181 C1177 1.393 . S
C1181 C1180 1.391 . S
C1182 H1172 0.950 . S
C1182 C1183 1.386 . S
C1182 C1184 1.391 . S
C1183 C1182 1.386 . S
C1183 C1187 1.393 . S
C1184 H1173 0.950 . S
C1184 C1182 1.391 . S
C1184 C1185 1.400 . S
C1185 C1179 1.491 . S
C1185 C1184 1.400 . S
C1185 C1186 1.398 . S
C1186 H1174 0.950 . S
C1186 C1185 1.398 . S
C1186 C1187 1.391 . S
C1187 H1175 0.950 . S
C1187 C1183 1.393 . S
C1187 C1186 1.391 . S
H1188 C1196 0.950 . S
H1189 C1201 0.950 . S
H1190 C1198 0.950 . S
H1191 C1200 0.950 . S
H1192 C1202 0.950 . S
H1193 C1204 0.950 . S
H1194 C1206 0.950 . S
H1195 C1207 0.950 . S
C1196 H1188 0.950 . S
C1196 C1197 1.386 . S
C1196 C1198 1.391 . S
C1197 C1196 1.386 . S
C1197 C1201 1.393 . S
C1198 H1190 0.950 . S
C1198 C1196 1.391 . S
C1198 C1199 1.400 . S
C1199 C1198 1.400 . S
C1199 C1200 1.398 . S
C1199 C1205 1.491 . S
C1200 H1191 0.950 . S
C1200 C1199 1.398 . S
C1200 C1201 1.391 . S
C1201 H1189 0.950 . S
C1201 C1197 1.393 . S
C1201 C1200 1.391 . S
C1202 H1192 0.950 . S
C1202 C1203 1.386 . S
C1202 C1204 1.391 . S
C1203 C1202 1.386 . S
C1203 C1207 1.393 . S
C1204 H1193 0.950 . S
C1204 C1202 1.391 . S
C1204 C1205 1.400 . S
C1205 C1199 1.491 . S
C1205 C1204 1.400 . S
C1205 C1206 1.398 . S
C1206 H1194 0.950 . S
C1206 C1205 1.398 . S
C1206 C1207 1.391 . S
C1207 H1195 0.950 . S
C1207 C1203 1.393 . S
C1207 C1206 1.391 . S
H1208 C1216 0.950 . S
H1209 C1221 0.950 . S
H1210 C1218 0.950 . S
H1211 C1220 0.950 . S
H1212 C1222 0.950 . S
H1213 C1224 0.950 . S
H1214 C1226 0.950 . S
H1215 C1227 0.950 . S
C1216 H1208 0.950 . S
C1216 C1217 1.386 . S
C1216 C1218 1.391 . S
C1217 C1216 1.386 . S
C1217 C1221 1.393 . S
C1218 H1210 0.950 . S
C1218 C1216 1.391 . S
C1218 C1219 1.400 . S
C1219 C1218 1.400 . S
C1219 C1220 1.398 . S
C1219 C1225 1.491 . S
C1220 H1211 0.950 . S
C1220 C1219 1.398 . S
C1220 C1221 1.391 . S
C1221 H1209 0.950 . S
C1221 C1217 1.393 . S
C1221 C1220 1.391 . S
C1222 H1212 0.950 . S
C1222 C1223 1.386 . S
C1222 C1224 1.391 . S
C1223 C1222 1.386 . S
C1223 C1227 1.393 . S
C1224 H1213 0.950 . S
C1224 C1222 1.391 . S
C1224 C1225 1.400 . S
C1225 C1219 1.491 . S
C1225 C1224 1.400 . S
C1225 C1226 1.398 . S
C1226 H1214 0.950 . S
C1226 C1225 1.398 . S
C1226 C1227 1.391 . S
C1227 H1215 0.950 . S
C1227 C1223 1.393 . S
C1227 C1226 1.391 . S
H1228 C1236 0.950 . S
H1229 C1241 0.950 . S
H1230 C1238 0.950 . S
H1231 C1240 0.950 . S
H1232 C1242 0.950 . S
H1233 C1244 0.950 . S
H1234 C1246 0.950 . S
H1235 C1247 0.950 . S
C1236 H1228 0.950 . S
C1236 C1237 1.386 . S
C1236 C1238 1.391 . S
C1237 C1236 1.386 . S
C1237 C1241 1.393 . S
C1238 H1230 0.950 . S
C1238 C1236 1.391 . S
C1238 C1239 1.400 . S
C1239 C1238 1.400 . S
C1239 C1240 1.398 . S
C1239 C1245 1.491 . S
C1240 H1231 0.950 . S
C1240 C1239 1.398 . S
C1240 C1241 1.391 . S
C1241 H1229 0.950 . S
C1241 C1237 1.393 . S
C1241 C1240 1.391 . S
C1242 H1232 0.950 . S
C1242 C1243 1.386 . S
C1242 C1244 1.391 1_655 S
C1243 C1242 1.386 . S
C1243 C1247 1.393 1_655 S
C1244 H1233 0.950 . S
C1244 C1242 1.391 1_455 S
C1244 C1245 1.400 . S
C1245 C1239 1.491 . S
C1245 C1244 1.400 . S
C1245 C1246 1.398 . S
C1246 H1234 0.950 . S
C1246 C1245 1.398 . S
C1246 C1247 1.391 . S
C1247 H1235 0.950 . S
C1247 C1243 1.393 1_455 S
C1247 C1246 1.391 . S
H1248 C1256 0.950 . S
H1249 C1261 0.950 . S
H1250 C1258 0.950 . S
H1251 C1260 0.950 . S
H1252 C1262 0.950 . S
H1253 C1264 0.950 . S
H1254 C1266 0.950 . S
H1255 C1267 0.950 . S
C1256 H1248 0.950 . S
C1256 C1257 1.386 . S
C1256 C1258 1.391 . S
C1257 C1256 1.386 . S
C1257 C1261 1.393 . S
C1258 H1250 0.950 . S
C1258 C1256 1.391 . S
C1258 C1259 1.400 . S
C1259 C1258 1.400 . S
C1259 C1260 1.398 . S
C1259 C1265 1.491 . S
C1260 H1251 0.950 . S
C1260 C1259 1.398 . S
C1260 C1261 1.391 . S
C1261 H1249 0.950 . S
C1261 C1257 1.393 . S
C1261 C1260 1.391 . S
C1262 H1252 0.950 . S
C1262 C1263 1.386 . S
C1262 C1264 1.391 . S
C1263 C1262 1.386 . S
C1263 C1267 1.393 . S
C1264 H1253 0.950 . S
C1264 C1262 1.391 . S
C1264 C1265 1.400 . S
C1265 C1259 1.491 . S
C1265 C1264 1.400 . S
C1265 C1266 1.398 . S
C1266 H1254 0.950 . S
C1266 C1265 1.398 . S
C1266 C1267 1.391 . S
C1267 H1255 0.950 . S
C1267 C1263 1.393 . S
C1267 C1266 1.391 . S
H1268 C1276 0.950 . S
H1269 C1281 0.950 . S
H1270 C1278 0.950 . S
H1271 C1280 0.950 . S
H1272 C1282 0.950 . S
H1273 C1284 0.950 . S
H1274 C1286 0.950 . S
H1275 C1287 0.950 . S
C1276 H1268 0.950 . S
C1276 C1277 1.386 1_655 S
C1276 C1278 1.391 . S
C1277 C1276 1.386 1_455 S
C1277 C1281 1.393 . S
C1278 H1270 0.950 . S
C1278 C1276 1.391 . S
C1278 C1279 1.400 . S
C1279 C1278 1.400 . S
C1279 C1280 1.398 . S
C1279 C1285 1.491 . S
C1280 H1271 0.950 . S
C1280 C1279 1.398 . S
C1280 C1281 1.391 1_655 S
C1281 H1269 0.950 . S
C1281 C1277 1.393 . S
C1281 C1280 1.391 1_455 S
C1282 H1272 0.950 . S
C1282 C1283 1.386 . S
C1282 C1284 1.391 . S
C1283 C1282 1.386 . S
C1283 C1287 1.393 . S
C1284 H1273 0.950 . S
C1284 C1282 1.391 . S
C1284 C1285 1.400 . S
C1285 C1279 1.491 . S
C1285 C1284 1.400 . S
C1285 C1286 1.398 . S
C1286 H1274 0.950 . S
C1286 C1285 1.398 . S
C1286 C1287 1.391 . S
C1287 H1275 0.950 . S
C1287 C1283 1.393 . S
C1287 C1286 1.391 . S
H1288 C1296 0.950 . S
H1289 C1301 0.950 . S
H1290 C1298 0.950 . S
H1291 C1300 0.950 . S
H1292 C1302 0.950 . S
H1293 C1304 0.950 . S
H1294 C1306 0.950 . S
H1295 C1307 0.950 . S
C1296 H1288 0.950 . S
C1296 C1297 1.386 . S
C1296 C1298 1.391 . S
C1297 C1296 1.386 . S
C1297 C1301 1.393 . S
C1298 H1290 0.950 . S
C1298 C1296 1.391 . S
C1298 C1299 1.400 . S
C1299 C1298 1.400 . S
C1299 C1300 1.398 . S
C1299 C1305 1.491 . S
C1300 H1291 0.950 . S
C1300 C1299 1.398 . S
C1300 C1301 1.391 . S
C1301 H1289 0.950 . S
C1301 C1297 1.393 . S
C1301 C1300 1.391 . S
C1302 H1292 0.950 . S
C1302 C1303 1.386 . S
C1302 C1304 1.391 . S
C1303 C1302 1.386 . S
C1303 C1307 1.393 . S
C1304 H1293 0.950 . S
C1304 C1302 1.391 . S
C1304 C1305 1.400 . S
C1305 C1299 1.491 . S
C1305 C1304 1.400 . S
C1305 C1306 1.398 . S
C1306 H1294 0.950 . S
C1306 C1305 1.398 . S
C1306 C1307 1.391 . S
C1307 H1295 0.950 . S
C1307 C1303 1.393 . S
C1307 C1306 1.391 . S
H1308 C1316 0.950 . S
H1309 C1321 0.950 . S
H1310 C1318 0.950 . S
H1311 C1320 0.950 . S
H1312 C1322 0.950 . S
H1313 C1324 0.950 . S
H1314 C1326 0.950 . S
H1315 C1327 0.950 . S
C1316 H1308 0.950 . S
C1316 C1317 1.386 . S
C1316 C1318 1.391 . S
C1317 C1316 1.386 . S
C1317 C1321 1.393 . S
C1318 H1310 0.950 . S
C1318 C1316 1.391 . S
C1318 C1319 1.400 . S
C1319 C1318 1.400 . S
C1319 C1320 1.398 . S
C1319 C1325 1.491 . S
C1320 H1311 0.950 . S
C1320 C1319 1.398 . S
C1320 C1321 1.391 . S
C1321 H1309 0.950 . S
C1321 C1317 1.393 . S
C1321 C1320 1.391 . S
C1322 H1312 0.950 . S
C1322 C1323 1.386 . S
C1322 C1324 1.391 . S
C1323 C1322 1.386 . S
C1323 C1327 1.393 . S
C1324 H1313 0.950 . S
C1324 C1322 1.391 . S
C1324 C1325 1.400 . S
C1325 C1319 1.491 . S
C1325 C1324 1.400 . S
C1325 C1326 1.398 . S
C1326 H1314 0.950 . S
C1326 C1325 1.398 . S
C1326 C1327 1.391 . S
C1327 H1315 0.950 . S
C1327 C1323 1.393 . S
C1327 C1326 1.391 . S
H1328 C1336 0.950 . S
H1329 C1341 0.950 . S
H1330 C1338 0.950 . S
H1331 C1340 0.950 . S
H1332 C1342 0.950 . S
H1333 C1344 0.950 . S
H1334 C1346 0.950 . S
H1335 C1347 0.950 . S
C1336 H1328 0.950 . S
C1336 C1337 1.386 . S
C1336 C1338 1.391 . S
C1337 C1336 1.386 . S
C1337 C1341 1.393 . S
C1338 H1330 0.950 . S
C1338 C1336 1.391 . S
C1338 C1339 1.400 . S
C1339 C1338 1.400 . S
C1339 C1340 1.398 . S
C1339 C1345 1.491 . S
C1340 H1331 0.950 . S
C1340 C1339 1.398 . S
C1340 C1341 1.391 . S
C1341 H1329 0.950 . S
C1341 C1337 1.393 . S
C1341 C1340 1.391 . S
C1342 H1332 0.950 . S
C1342 C1343 1.386 . S
C1342 C1344 1.391 . S
C1343 C1342 1.386 . S
C1343 C1347 1.393 . S
C1344 H1333 0.950 . S
C1344 C1342 1.391 . S
C1344 C1345 1.400 . S
C1345 C1339 1.491 . S
C1345 C1344 1.400 . S
C1345 C1346 1.398 . S
C1346 H1334 0.950 . S
C1346 C1345 1.398 . S
C1346 C1347 1.391 . S
C1347 H1335 0.950 . S
C1347 C1343 1.393 . S
C1347 C1346 1.391 . S
H1348 C1356 0.950 . S
H1349 C1361 0.950 . S
H1350 C1358 0.950 . S
H1351 C1360 0.950 . S
H1352 C1362 0.950 . S
H1353 C1364 0.950 . S
H1354 C1366 0.950 . S
H1355 C1367 0.950 . S
C1356 H1348 0.950 . S
C1356 C1357 1.386 . S
C1356 C1358 1.391 . S
C1357 C1356 1.386 . S
C1357 C1361 1.393 . S
C1358 H1350 0.950 . S
C1358 C1356 1.391 . S
C1358 C1359 1.400 . S
C1359 C1358 1.400 . S
C1359 C1360 1.398 . S
C1359 C1365 1.491 . S
C1360 H1351 0.950 . S
C1360 C1359 1.398 . S
C1360 C1361 1.391 . S
C1361 H1349 0.950 . S
C1361 C1357 1.393 . S
C1361 C1360 1.391 . S
C1362 H1352 0.950 . S
C1362 C1363 1.386 . S
C1362 C1364 1.391 . S
C1363 C1362 1.386 . S
C1363 C1367 1.393 . S
C1364 H1353 0.950 . S
C1364 C1362 1.391 . S
C1364 C1365 1.400 . S
C1365 C1359 1.491 . S
C1365 C1364 1.400 . S
C1365 C1366 1.398 . S
C1366 H1354 0.950 . S
C1366 C1365 1.398 . S
C1366 C1367 1.391 . S
C1367 H1355 0.950 . S
C1367 C1363 1.393 . S
C1367 C1366 1.391 . S
H1368 C1376 0.950 . S
H1369 C1381 0.950 . S
H1370 C1378 0.950 . S
H1371 C1380 0.950 . S
H1372 C1382 0.950 . S
H1373 C1384 0.950 . S
H1374 C1386 0.950 . S
H1375 C1387 0.950 . S
C1376 H1368 0.950 . S
C1376 C1377 1.386 . S
C1376 C1378 1.391 . S
C1377 C1376 1.386 . S
C1377 C1381 1.393 . S
C1378 H1370 0.950 . S
C1378 C1376 1.391 . S
C1378 C1379 1.400 . S
C1379 C1378 1.400 . S
C1379 C1380 1.398 . S
C1379 C1385 1.491 . S
C1380 H1371 0.950 . S
C1380 C1379 1.398 . S
C1380 C1381 1.391 . S
C1381 H1369 0.950 . S
C1381 C1377 1.393 . S
C1381 C1380 1.391 . S
C1382 H1372 0.950 . S
C1382 C1383 1.386 . S
C1382 C1384 1.391 . S
C1383 C1382 1.386 . S
C1383 C1387 1.393 . S
C1384 H1373 0.950 . S
C1384 C1382 1.391 . S
C1384 C1385 1.400 . S
C1385 C1379 1.491 . S
C1385 C1384 1.400 . S
C1385 C1386 1.398 . S
C1386 H1374 0.950 . S
C1386 C1385 1.398 . S
C1386 C1387 1.391 . S
C1387 H1375 0.950 . S
C1387 C1383 1.393 . S
C1387 C1386 1.391 . S
H1388 C1396 0.950 . S
H1389 C1401 0.950 . S
H1390 C1398 0.950 . S
H1391 C1400 0.950 . S
H1392 C1402 0.950 . S
H1393 C1404 0.950 . S
H1394 C1406 0.950 . S
H1395 C1407 0.950 . S
C1396 H1388 0.950 . S
C1396 C1397 1.386 1_655 S
C1396 C1398 1.391 . S
C1397 C1396 1.386 1_455 S
C1397 C1401 1.393 . S
C1398 H1390 0.950 . S
C1398 C1396 1.391 . S
C1398 C1399 1.400 . S
C1399 C1398 1.400 . S
C1399 C1400 1.398 . S
C1399 C1405 1.491 . S
C1400 H1391 0.950 . S
C1400 C1399 1.398 . S
C1400 C1401 1.391 1_655 S
C1401 H1389 0.950 . S
C1401 C1397 1.393 . S
C1401 C1400 1.391 1_455 S
C1402 H1392 0.950 . S
C1402 C1403 1.386 . S
C1402 C1404 1.391 . S
C1403 C1402 1.386 . S
C1403 C1407 1.393 . S
C1404 H1393 0.950 . S
C1404 C1402 1.391 . S
C1404 C1405 1.400 . S
C1405 C1399 1.491 . S
C1405 C1404 1.400 . S
C1405 C1406 1.398 . S
C1406 H1394 0.950 . S
C1406 C1405 1.398 . S
C1406 C1407 1.391 . S
C1407 H1395 0.950 . S
C1407 C1403 1.393 . S
C1407 C1406 1.391 . S
H1408 C1416 0.950 . S
H1409 C1421 0.950 . S
H1410 C1418 0.950 . S
H1411 C1420 0.950 . S
H1412 C1422 0.950 . S
H1413 C1424 0.950 . S
H1414 C1426 0.950 . S
H1415 C1427 0.950 . S
C1416 H1408 0.950 . S
C1416 C1417 1.386 . S
C1416 C1418 1.391 . S
C1417 C1416 1.386 . S
C1417 C1421 1.393 . S
C1418 H1410 0.950 . S
C1418 C1416 1.391 . S
C1418 C1419 1.400 . S
C1419 C1418 1.400 . S
C1419 C1420 1.398 . S
C1419 C1425 1.491 . S
C1420 H1411 0.950 . S
C1420 C1419 1.398 . S
C1420 C1421 1.391 . S
C1421 H1409 0.950 . S
C1421 C1417 1.393 . S
C1421 C1420 1.391 . S
C1422 H1412 0.950 . S
C1422 C1423 1.386 . S
C1422 C1424 1.391 . S
C1423 C1422 1.386 . S
C1423 C1427 1.393 . S
C1424 H1413 0.950 . S
C1424 C1422 1.391 . S
C1424 C1425 1.400 . S
C1425 C1419 1.491 . S
C1425 C1424 1.400 . S
C1425 C1426 1.398 . S
C1426 H1414 0.950 . S
C1426 C1425 1.398 . S
C1426 C1427 1.391 . S
C1427 H1415 0.950 . S
C1427 C1423 1.393 . S
C1427 C1426 1.391 . S
H1428 C1436 0.950 . S
H1429 C1441 0.950 . S
H1430 C1438 0.950 . S
H1431 C1440 0.950 . S
H1432 C1442 0.950 . S
H1433 C1444 0.950 . S
H1434 C1446 0.950 . S
H1435 C1447 0.950 . S
C1436 H1428 0.950 . S
C1436 C1437 1.386 . S
C1436 C1438 1.391 . S
C1437 C1436 1.386 . S
C1437 C1441 1.393 . S
C1438 H1430 0.950 . S
C1438 C1436 1.391 . S
C1438 C1439 1.400 . S
C1439 C1438 1.400 . S
C1439 C1440 1.398 . S
C1439 C1445 1.491 . S
C1440 H1431 0.950 . S
C1440 C1439 1.398 . S
C1440 C1441 1.391 . S
C1441 H1429 0.950 . S
C1441 C1437 1.393 . S
C1441 C1440 1.391 . S
C1442 H1432 0.950 . S
C1442 C1443 1.386 . S
C1442 C1444 1.391 . S
C1443 C1442 1.386 . S
C1443 C1447 1.393 . S
C1444 H1433 0.950 . S
C1444 C1442 1.391 . S
C1444 C1445 1.400 . S
C1445 C1439 1.491 . S
C1445 C1444 1.400 . S
C1445 C1446 1.398 . S
C1446 H1434 0.950 . S
C1446 C1445 1.398 . S
C1446 C1447 1.391 . S
C1447 H1435 0.950 . S
C1447 C1443 1.393 . S
C1447 C1446 1.391 . S
H1448 C1456 0.950 . S
H1449 C1461 0.950 . S
H1450 C1458 0.950 . S
H1451 C1460 0.950 . S
H1452 C1462 0.950 . S
H1453 C1464 0.950 . S
H1454 C1466 0.950 . S
H1455 C1467 0.950 . S
C1456 H1448 0.950 . S
C1456 C1457 1.386 . S
C1456 C1458 1.391 . S
C1457 C1456 1.386 . S
C1457 C1461 1.393 . S
C1458 H1450 0.950 . S
C1458 C1456 1.391 . S
C1458 C1459 1.400 . S
C1459 C1458 1.400 . S
C1459 C1460 1.398 . S
C1459 C1465 1.491 . S
C1460 H1451 0.950 . S
C1460 C1459 1.398 . S
C1460 C1461 1.391 . S
C1461 H1449 0.950 . S
C1461 C1457 1.393 . S
C1461 C1460 1.391 . S
C1462 H1452 0.950 . S
C1462 C1463 1.386 . S
C1462 C1464 1.391 . S
C1463 C1462 1.386 . S
C1463 C1467 1.393 . S
C1464 H1453 0.950 . S
C1464 C1462 1.391 . S
C1464 C1465 1.400 . S
C1465 C1459 1.491 . S
C1465 C1464 1.400 . S
C1465 C1466 1.398 . S
C1466 H1454 0.950 . S
C1466 C1465 1.398 . S
C1466 C1467 1.391 . S
C1467 H1455 0.950 . S
C1467 C1463 1.393 . S
C1467 C1466 1.391 . S
H1468 C1476 0.950 . S
H1469 C1481 0.950 . S
H1470 C1478 0.950 . S
H1471 C1480 0.950 . S
H1472 C1482 0.950 . S
H1473 C1484 0.950 . S
H1474 C1486 0.950 . S
H1475 C1487 0.950 . S
C1476 H1468 0.950 . S
C1476 C1477 1.386 . S
C1476 C1478 1.391 . S
C1477 C1476 1.386 . S
C1477 C1481 1.393 . S
C1478 H1470 0.950 . S
C1478 C1476 1.391 . S
C1478 C1479 1.400 . S
C1479 C1478 1.400 . S
C1479 C1480 1.398 . S
C1479 C1485 1.491 . S
C1480 H1471 0.950 . S
C1480 C1479 1.398 . S
C1480 C1481 1.391 . S
C1481 H1469 0.950 . S
C1481 C1477 1.393 . S
C1481 C1480 1.391 . S
C1482 H1472 0.950 . S
C1482 C1483 1.386 1_655 S
C1482 C1484 1.391 . S
C1483 C1482 1.386 1_455 S
C1483 C1487 1.393 . S
C1484 H1473 0.950 . S
C1484 C1482 1.391 . S
C1484 C1485 1.400 . S
C1485 C1479 1.491 . S
C1485 C1484 1.400 . S
C1485 C1486 1.398 . S
C1486 H1474 0.950 . S
C1486 C1485 1.398 . S
C1486 C1487 1.391 1_655 S
C1487 H1475 0.950 . S
C1487 C1483 1.393 . S
C1487 C1486 1.391 1_455 S
H1488 C1496 0.950 . S
H1489 C1501 0.950 . S
H1490 C1498 0.950 . S
H1491 C1500 0.950 . S
H1492 C1502 0.950 . S
H1493 C1504 0.950 . S
H1494 C1506 0.950 . S
H1495 C1507 0.950 . S
C1496 H1488 0.950 . S
C1496 C1497 1.386 . S
C1496 C1498 1.391 . S
C1497 C1496 1.386 . S
C1497 C1501 1.393 . S
C1498 H1490 0.950 . S
C1498 C1496 1.391 . S
C1498 C1499 1.400 . S
C1499 C1498 1.400 . S
C1499 C1500 1.398 . S
C1499 C1505 1.491 . S
C1500 H1491 0.950 . S
C1500 C1499 1.398 . S
C1500 C1501 1.391 . S
C1501 H1489 0.950 . S
C1501 C1497 1.393 . S
C1501 C1500 1.391 . S
C1502 H1492 0.950 . S
C1502 C1503 1.386 . S
C1502 C1504 1.391 . S
C1503 C1502 1.386 . S
C1503 C1507 1.393 . S
C1504 H1493 0.950 . S
C1504 C1502 1.391 . S
C1504 C1505 1.400 . S
C1505 C1499 1.491 . S
C1505 C1504 1.400 . S
C1505 C1506 1.398 . S
C1506 H1494 0.950 . S
C1506 C1505 1.398 . S
C1506 C1507 1.391 . S
C1507 H1495 0.950 . S
C1507 C1503 1.393 . S
C1507 C1506 1.391 . S
H1508 C1516 0.950 . S
H1509 C1521 0.950 1_455 S
H1510 C1518 0.950 . S
H1511 C1520 0.950 . S
H1512 C1522 0.950 . S
H1513 C1524 0.950 . S
H1514 C1526 0.950 . S
H1515 C1527 0.950 . S
C1516 H1508 0.950 . S
C1516 C1517 1.386 1_655 S
C1516 C1518 1.391 . S
C1517 C1516 1.386 1_455 S
C1517 C1521 1.393 1_455 S
C1518 H1510 0.950 . S
C1518 C1516 1.391 . S
C1518 C1519 1.400 . S
C1519 C1518 1.400 . S
C1519 C1520 1.398 . S
C1519 C1525 1.491 . S
C1520 H1511 0.950 . S
C1520 C1519 1.398 . S
C1520 C1521 1.391 . S
C1521 H1509 0.950 1_655 S
C1521 C1517 1.393 1_655 S
C1521 C1520 1.391 . S
C1522 H1512 0.950 . S
C1522 C1523 1.386 . S
C1522 C1524 1.391 . S
C1523 C1522 1.386 . S
C1523 C1527 1.393 . S
C1524 H1513 0.950 . S
C1524 C1522 1.391 . S
C1524 C1525 1.400 . S
C1525 C1519 1.491 . S
C1525 C1524 1.400 . S
C1525 C1526 1.398 . S
C1526 H1514 0.950 . S
C1526 C1525 1.398 . S
C1526 C1527 1.391 . S
C1527 H1515 0.950 . S
C1527 C1523 1.393 . S
C1527 C1526 1.391 . S
H1528 C1536 0.950 . S
H1529 C1541 0.950 . S
H1530 C1538 0.950 . S
H1531 C1540 0.950 . S
H1532 C1542 0.950 . S
H1533 C1544 0.950 . S
H1534 C1546 0.950 . S
H1535 C1547 0.950 . S
C1536 H1528 0.950 . S
C1536 C1537 1.386 . S
C1536 C1538 1.391 . S
C1537 C1536 1.386 . S
C1537 C1541 1.393 . S
C1538 H1530 0.950 . S
C1538 C1536 1.391 . S
C1538 C1539 1.400 . S
C1539 C1538 1.400 . S
C1539 C1540 1.398 . S
C1539 C1545 1.491 . S
C1540 H1531 0.950 . S
C1540 C1539 1.398 . S
C1540 C1541 1.391 . S
C1541 H1529 0.950 . S
C1541 C1537 1.393 . S
C1541 C1540 1.391 . S
C1542 H1532 0.950 . S
C1542 C1543 1.386 . S
C1542 C1544 1.391 . S
C1543 C1542 1.386 . S
C1543 C1547 1.393 . S
C1544 H1533 0.950 . S
C1544 C1542 1.391 . S
C1544 C1545 1.400 . S
C1545 C1539 1.491 . S
C1545 C1544 1.400 . S
C1545 C1546 1.398 . S
C1546 H1534 0.950 . S
C1546 C1545 1.398 . S
C1546 C1547 1.391 . S
C1547 H1535 0.950 . S
C1547 C1543 1.393 . S
C1547 C1546 1.391 . S
H1548 C1556 0.950 . S
H1549 C1561 0.950 . S
H1550 C1558 0.950 . S
H1551 C1560 0.950 . S
H1552 C1562 0.950 . S
H1553 C1564 0.950 . S
H1554 C1566 0.950 . S
H1555 C1567 0.950 . S
C1556 H1548 0.950 . S
C1556 C1557 1.386 . S
C1556 C1558 1.391 . S
C1557 C1556 1.386 . S
C1557 C1561 1.393 . S
C1558 H1550 0.950 . S
C1558 C1556 1.391 . S
C1558 C1559 1.400 . S
C1559 C1558 1.400 . S
C1559 C1560 1.398 . S
C1559 C1565 1.491 . S
C1560 H1551 0.950 . S
C1560 C1559 1.398 . S
C1560 C1561 1.391 . S
C1561 H1549 0.950 . S
C1561 C1557 1.393 . S
C1561 C1560 1.391 . S
C1562 H1552 0.950 . S
C1562 C1563 1.386 . S
C1562 C1564 1.391 . S
C1563 C1562 1.386 . S
C1563 C1567 1.393 . S
C1564 H1553 0.950 . S
C1564 C1562 1.391 . S
C1564 C1565 1.400 . S
C1565 C1559 1.491 . S
C1565 C1564 1.400 . S
C1565 C1566 1.398 . S
C1566 H1554 0.950 . S
C1566 C1565 1.398 . S
C1566 C1567 1.391 . S
C1567 H1555 0.950 . S
C1567 C1563 1.393 . S
C1567 C1566 1.391 . S
H1568 C1576 0.950 . S
H1569 C1581 0.950 . S
H1570 C1578 0.950 . S
H1571 C1580 0.950 . S
H1572 C1582 0.950 . S
H1573 C1584 0.950 . S
H1574 C1586 0.950 . S
H1575 C1587 0.950 . S
C1576 H1568 0.950 . S
C1576 C1577 1.386 . S
C1576 C1578 1.391 . S
C1577 C1576 1.386 . S
C1577 C1581 1.393 . S
C1578 H1570 0.950 . S
C1578 C1576 1.391 . S
C1578 C1579 1.400 . S
C1579 C1578 1.400 . S
C1579 C1580 1.398 . S
C1579 C1585 1.491 . S
C1580 H1571 0.950 . S
C1580 C1579 1.398 . S
C1580 C1581 1.391 . S
C1581 H1569 0.950 . S
C1581 C1577 1.393 . S
C1581 C1580 1.391 . S
C1582 H1572 0.950 . S
C1582 C1583 1.386 . S
C1582 C1584 1.391 . S
C1583 C1582 1.386 . S
C1583 C1587 1.393 . S
C1584 H1573 0.950 . S
C1584 C1582 1.391 . S
C1584 C1585 1.400 . S
C1585 C1579 1.491 . S
C1585 C1584 1.400 . S
C1585 C1586 1.398 . S
C1586 H1574 0.950 . S
C1586 C1585 1.398 . S
C1586 C1587 1.391 . S
C1587 H1575 0.950 . S
C1587 C1583 1.393 . S
C1587 C1586 1.391 . S
H1588 C1596 0.950 . S
H1589 C1601 0.950 . S
H1590 C1598 0.950 . S
H1591 C1600 0.950 . S
H1592 C1602 0.950 . S
H1593 C1604 0.950 . S
H1594 C1606 0.950 . S
H1595 C1607 0.950 . S
C1596 H1588 0.950 . S
C1596 C1597 1.386 . S
C1596 C1598 1.391 . S
C1597 C1596 1.386 . S
C1597 C1601 1.393 . S
C1598 H1590 0.950 . S
C1598 C1596 1.391 . S
C1598 C1599 1.400 . S
C1599 C1598 1.400 . S
C1599 C1600 1.398 . S
C1599 C1605 1.491 . S
C1600 H1591 0.950 . S
C1600 C1599 1.398 . S
C1600 C1601 1.391 . S
C1601 H1589 0.950 . S
C1601 C1597 1.393 . S
C1601 C1600 1.391 . S
C1602 H1592 0.950 . S
C1602 C1603 1.386 . S
C1602 C1604 1.391 . S
C1603 C1602 1.386 . S
C1603 C1607 1.393 . S
C1604 H1593 0.950 . S
C1604 C1602 1.391 . S
C1604 C1605 1.400 . S
C1605 C1599 1.491 . S
C1605 C1604 1.400 . S
C1605 C1606 1.398 . S
C1606 H1594 0.950 . S
C1606 C1605 1.398 . S
C1606 C1607 1.391 . S
C1607 H1595 0.950 . S
C1607 C1603 1.393 . S
C1607 C1606 1.391 . S
H1608 C1616 0.950 . S
H1609 C1621 0.950 . S
H1610 C1618 0.950 . S
H1611 C1620 0.950 . S
H1612 C1622 0.950 . S
H1613 C1624 0.950 . S
H1614 C1626 0.950 . S
H1615 C1627 0.950 . S
C1616 H1608 0.950 . S
C1616 C1617 1.386 . S
C1616 C1618 1.391 . S
C1617 C1616 1.386 . S
C1617 C1621 1.393 . S
C1618 H1610 0.950 . S
C1618 C1616 1.391 . S
C1618 C1619 1.400 . S
C1619 C1618 1.400 . S
C1619 C1620 1.398 . S
C1619 C1625 1.491 . S
C1620 H1611 0.950 . S
C1620 C1619 1.398 . S
C1620 C1621 1.391 . S
C1621 H1609 0.950 . S
C1621 C1617 1.393 . S
C1621 C1620 1.391 . S
C1622 H1612 0.950 . S
C1622 C1623 1.386 . S
C1622 C1624 1.391 . S
C1623 C1622 1.386 . S
C1623 C1627 1.393 . S
C1624 H1613 0.950 . S
C1624 C1622 1.391 . S
C1624 C1625 1.400 . S
C1625 C1619 1.491 . S
C1625 C1624 1.400 . S
C1625 C1626 1.398 . S
C1626 H1614 0.950 . S
C1626 C1625 1.398 . S
C1626 C1627 1.391 . S
C1627 H1615 0.950 . S
C1627 C1623 1.393 . S
C1627 C1626 1.391 . S
H1628 C1636 0.950 . S
H1629 C1641 0.950 . S
H1630 C1638 0.950 . S
H1631 C1640 0.950 . S
H1632 C1642 0.950 . S
H1633 C1644 0.950 . S
H1634 C1646 0.950 . S
H1635 C1647 0.950 . S
C1636 H1628 0.950 . S
C1636 C1637 1.386 . S
C1636 C1638 1.391 1_655 S
C1637 C1636 1.386 . S
C1637 C1641 1.393 1_655 S
C1638 H1630 0.950 . S
C1638 C1636 1.391 1_455 S
C1638 C1639 1.400 . S
C1639 C1638 1.400 . S
C1639 C1640 1.398 . S
C1639 C1645 1.491 . S
C1640 H1631 0.950 . S
C1640 C1639 1.398 . S
C1640 C1641 1.391 . S
C1641 H1629 0.950 . S
C1641 C1637 1.393 1_455 S
C1641 C1640 1.391 . S
C1642 H1632 0.950 . S
C1642 C1643 1.386 . S
C1642 C1644 1.391 . S
C1643 C1642 1.386 . S
C1643 C1647 1.393 . S
C1644 H1633 0.950 . S
C1644 C1642 1.391 . S
C1644 C1645 1.400 . S
C1645 C1639 1.491 . S
C1645 C1644 1.400 . S
C1645 C1646 1.398 . S
C1646 H1634 0.950 . S
C1646 C1645 1.398 . S
C1646 C1647 1.391 . S
C1647 H1635 0.950 . S
C1647 C1643 1.393 . S
C1647 C1646 1.391 . S
H1648 C1656 0.950 . S
H1649 C1661 0.950 . S
H1650 C1658 0.950 . S
H1651 C1660 0.950 . S
H1652 C1662 0.950 . S
H1653 C1664 0.950 . S
H1654 C1666 0.950 . S
H1655 C1667 0.950 . S
C1656 H1648 0.950 . S
C1656 C1657 1.386 . S
C1656 C1658 1.391 . S
C1657 C1656 1.386 . S
C1657 C1661 1.393 . S
C1658 H1650 0.950 . S
C1658 C1656 1.391 . S
C1658 C1659 1.400 . S
C1659 C1658 1.400 . S
C1659 C1660 1.398 . S
C1659 C1665 1.491 . S
C1660 H1651 0.950 . S
C1660 C1659 1.398 . S
C1660 C1661 1.391 . S
C1661 H1649 0.950 . S
C1661 C1657 1.393 . S
C1661 C1660 1.391 . S
C1662 H1652 0.950 . S
C1662 C1663 1.386 . S
C1662 C1664 1.391 . S
C1663 C1662 1.386 . S
C1663 C1667 1.393 . S
C1664 H1653 0.950 . S
C1664 C1662 1.391 . S
C1664 C1665 1.400 . S
C1665 C1659 1.491 . S
C1665 C1664 1.400 . S
C1665 C1666 1.398 . S
C1666 H1654 0.950 . S
C1666 C1665 1.398 . S
C1666 C1667 1.391 . S
C1667 H1655 0.950 . S
C1667 C1663 1.393 . S
C1667 C1666 1.391 . S
H1668 C1676 0.950 . S
H1669 C1681 0.950 . S
H1670 C1678 0.950 . S
H1671 C1680 0.950 . S
H1672 C1682 0.950 . S
H1673 C1684 0.950 . S
H1674 C1686 0.950 . S
H1675 C1687 0.950 . S
C1676 H1668 0.950 . S
C1676 C1677 1.386 . S
C1676 C1678 1.391 . S
C1677 C1676 1.386 . S
C1677 C1681 1.393 . S
C1678 H1670 0.950 . S
C1678 C1676 1.391 . S
C1678 C1679 1.400 . S
C1679 C1678 1.400 . S
C1679 C1680 1.398 . S
C1679 C1685 1.491 . S
C1680 H1671 0.950 . S
C1680 C1679 1.398 . S
C1680 C1681 1.391 . S
C1681 H1669 0.950 . S
C1681 C1677 1.393 . S
C1681 C1680 1.391 . S
C1682 H1672 0.950 . S
C1682 C1683 1.386 . S
C1682 C1684 1.391 1_655 S
C1683 C1682 1.386 . S
C1683 C1687 1.393 1_655 S
C1684 H1673 0.950 . S
C1684 C1682 1.391 1_455 S
C1684 C1685 1.400 . S
C1685 C1679 1.491 . S
C1685 C1684 1.400 . S
C1685 C1686 1.398 . S
C1686 H1674 0.950 . S
C1686 C1685 1.398 . S
C1686 C1687 1.391 . S
C1687 H1675 0.950 . S
C1687 C1683 1.393 1_455 S
C1687 C1686 1.391 . S
H1688 C1696 0.950 . S
H1689 C1701 0.950 . S
H1690 C1698 0.950 . S
H1691 C1700 0.950 . S
H1692 C1702 0.950 . S
H1693 C1704 0.950 . S
H1694 C1706 0.950 . S
H1695 C1707 0.950 . S
C1696 H1688 0.950 . S
C1696 C1697 1.386 . S
C1696 C1698 1.391 . S
C1697 C1696 1.386 . S
C1697 C1701 1.393 . S
C1698 H1690 0.950 . S
C1698 C1696 1.391 . S
C1698 C1699 1.400 . S
C1699 C1698 1.400 . S
C1699 C1700 1.398 . S
C1699 C1705 1.491 . S
C1700 H1691 0.950 . S
C1700 C1699 1.398 . S
C1700 C1701 1.391 . S
C1701 H1689 0.950 . S
C1701 C1697 1.393 . S
C1701 C1700 1.391 . S
C1702 H1692 0.950 . S
C1702 C1703 1.386 . S
C1702 C1704 1.391 . S
C1703 C1702 1.386 . S
C1703 C1707 1.393 . S
C1704 H1693 0.950 . S
C1704 C1702 1.391 . S
C1704 C1705 1.400 . S
C1705 C1699 1.491 . S
C1705 C1704 1.400 . S
C1705 C1706 1.398 . S
C1706 H1694 0.950 . S
C1706 C1705 1.398 . S
C1706 C1707 1.391 . S
C1707 H1695 0.950 . S
C1707 C1703 1.393 . S
C1707 C1706 1.391 . S
H1708 C1716 0.950 . S
H1709 C1721 0.950 . S
H1710 C1718 0.950 . S
H1711 C1720 0.950 . S
H1712 C1722 0.950 . S
H1713 C1724 0.950 . S
H1714 C1726 0.950 . S
H1715 C1727 0.950 . S
C1716 H1708 0.950 . S
C1716 C1717 1.386 . S
C1716 C1718 1.391 . S
C1717 C1716 1.386 . S
C1717 C1721 1.393 . S
C1718 H1710 0.950 . S
C1718 C1716 1.391 . S
C1718 C1719 1.400 . S
C1719 C1718 1.400 . S
C1719 C1720 1.398 . S
C1719 C1725 1.491 . S
C1720 H1711 0.950 . S
C1720 C1719 1.398 . S
C1720 C1721 1.391 . S
C1721 H1709 0.950 . S
C1721 C1717 1.393 . S
C1721 C1720 1.391 . S
C1722 H1712 0.950 . S
C1722 C1723 1.386 . S
C1722 C1724 1.391 . S
C1723 C1722 1.386 . S
C1723 C1727 1.393 . S
C1724 H1713 0.950 . S
C1724 C1722 1.391 . S
C1724 C1725 1.400 . S
C1725 C1719 1.491 . S
C1725 C1724 1.400 . S
C1725 C1726 1.398 . S
C1726 H1714 0.950 . S
C1726 C1725 1.398 . S
C1726 C1727 1.391 . S
C1727 H1715 0.950 . S
C1727 C1723 1.393 . S
C1727 C1726 1.391 . S
C457 C67 1.513 . S
C463 C11 1.506 . S
C477 C81 1.507 . S
C483 C25 1.516 . S
C497 C95 1.517 . S
C503 C39 1.508 . S
C517 C53 1.513 . S
C523 C109 1.506 . S
C537 C123 1.506 . S
C543 C179 1.511 . S
C557 C193 1.517 . S
C563 C137 1.512 . S
C577 C151 1.515 . S
C583 C207 1.515 . S
C597 C221 1.507 . S
C603 C165 1.509 . S
C617 C235 1.510 . S
C623 C291 1.517 . S
C637 C305 1.506 . S
C643 C249 1.510 . S
C657 C319 1.508 . S
C663 C263 1.517 . S
C677 C333 1.506 . S
C683 C277 1.510 . S
C697 C347 1.507 . S
C703 C403 1.510 . S
C717 C361 1.509 . S
C723 C417 1.517 . S
C737 C375 1.506 . S
C743 C431 1.510 . S
C757 C389 1.506 . S
C763 C445 1.512 . S
C777 C9 1.265 1_565 S
C783 C107 1.268 . S
C797 C23 1.265 . S
C803 C65 1.268 1_545 S
C817 C37 1.264 1_545 S
C823 C79 1.266 . S
C837 C93 1.264 1_565 S
C843 C51 1.265 . S
C857 C219 1.274 . S
C863 C121 1.277 1_545 S
C877 C177 1.276 1_565 S
C883 C135 1.278 . S
C897 C191 1.274 . S
C903 C149 1.277 1_565 S
C917 C163 1.276 . S
C923 C205 1.278 1_545 S
C937 C331 1.278 . S
C943 C233 1.277 . S
C957 C289 1.277 . S
C963 C247 1.278 . S
C977 C303 1.266 . S
C983 C261 1.269 . S
C997 C275 1.275 . S
C1003 C317 1.272 . S
C1017 C345 1.275 . S
C1023 C443 1.277 . S
C1037 C359 1.264 . S
C1043 C401 1.265 . S
C1057 C373 1.276 . S
C1063 C415 1.272 . S
C1077 C429 1.266 . S
C1083 C387 1.264 . S
C1097 C5 1.464 . S
C1103 C350 1.437 . S
C1117 C19 1.463 . S
C1123 C140 1.439 . S
C1137 C33 1.461 . S
C1143 C378 1.451 . S
C1157 C112 1.445 . S
C1163 C47 1.461 . S
C1177 C434 1.443 . S
C1183 C61 1.464 . S
C1197 C75 1.461 . S
C1203 C168 1.452 . S
C1217 C89 1.464 . S
C1223 C406 1.440 . S
C1237 C103 1.463 . S
C1243 C196 1.447 . S
C1257 C238 1.448 . S
C1263 C117 1.461 . S
C1277 C28 1.439 . S
C1283 C131 1.463 . S
C1297 C266 1.437 . S
C1303 C145 1.464 . S
C1317 C159 1.462 . S
C1323 C0 1.441 . S
C1337 C322 1.453 . S
C1343 C173 1.461 . S
C1357 C56 1.437 . S
C1363 C187 1.464 . S
C1377 C294 1.451 . S
C1383 C201 1.462 . S
C1397 C84 1.440 . S
C1403 C215 1.463 . S
C1417 C126 1.438 . S
C1423 C229 1.464 . S
C1437 C243 1.464 . S
C1443 C364 1.444 . S
C1457 C257 1.464 . S
C1463 C154 1.438 . S
C1477 C271 1.463 . S
C1483 C336 1.438 . S
C1497 C285 1.462 . S
C1503 C210 1.452 . S
C1517 C392 1.452 . S
C1523 C299 1.462 . S
C1537 C313 1.464 . S
C1543 C182 1.437 . S
C1557 C327 1.464 . S
C1563 C420 1.437 . S
C1577 C341 1.464 . S
C1583 C14 1.437 . S
C1597 C355 1.461 . S
C1603 C252 1.448 . S
C1617 C42 1.442 . S
C1623 C369 1.462 . S
C1637 C224 1.444 . S
C1643 C383 1.464 . S
C1657 C397 1.462 . S
C1663 C98 1.452 . S
C1677 C411 1.461 . S
C1683 C280 1.449 . S
C1697 C70 1.453 . S
C1703 C425 1.461 . S
C1717 C308 1.450 . S
C1723 C439 1.462 . S
