# Generated by pormake.
# Topology wnd, (6)-cn, num edge types: 1
# Building blocks:
#     Node 0, Type 0, BuildingBlock: JUFBIX_clean_sbu_0, # of connection points: 6
#     Node 1, Type 0, BuildingBlock: JUFBIX_clean_sbu_0, # of connection points: 6
#     Node 2, Type 0, BuildingBlock: JUFBIX_clean_sbu_0, # of connection points: 6
#     Node 3, Type 0, BuildingBlock: JUFBIX_clean_sbu_0, # of connection points: 6
#     Node 4, Type 0, BuildingBlock: JUFBIX_clean_sbu_0, # of connection points: 6
#     Node 5, Type 0, BuildingBlock: JUFBIX_clean_sbu_0, # of connection points: 6
#     Node 6, Type 0, BuildingBlock: JUFBIX_clean_sbu_0, # of connection points: 6
#     Node 7, Type 0, BuildingBlock: JUFBIX_clean_sbu_0, # of connection points: 6
#     Node 8, Type 0, BuildingBlock: JUFBIX_clean_sbu_0, # of connection points: 6
#     Node 9, Type 0, BuildingBlock: JUFBIX_clean_sbu_0, # of connection points: 6
#     Node 10, Type 0, BuildingBlock: JUFBIX_clean_sbu_0, # of connection points: 6
#     Node 11, Type 0, BuildingBlock: JUFBIX_clean_sbu_0, # of connection points: 6
#     Node 12, Type 0, BuildingBlock: JUFBIX_clean_sbu_0, # of connection points: 6
#     Node 13, Type 0, BuildingBlock: JUFBIX_clean_sbu_0, # of connection points: 6
#     Node 14, Type 0, BuildingBlock: JUFBIX_clean_sbu_0, # of connection points: 6
#     Node 15, Type 0, BuildingBlock: JUFBIX_clean_sbu_0, # of connection points: 6
#     Node 16, Type 0, BuildingBlock: JUFBIX_clean_sbu_0, # of connection points: 6
#     Node 17, Type 0, BuildingBlock: JUFBIX_clean_sbu_0, # of connection points: 6
#     Node 18, Type 0, BuildingBlock: JUFBIX_clean_sbu_0, # of connection points: 6
#     Node 19, Type 0, BuildingBlock: JUFBIX_clean_sbu_0, # of connection points: 6
#     Node 20, Type 0, BuildingBlock: JUFBIX_clean_sbu_0, # of connection points: 6
#     Node 21, Type 0, BuildingBlock: JUFBIX_clean_sbu_0, # of connection points: 6
#     Node 22, Type 0, BuildingBlock: JUFBIX_clean_sbu_0, # of connection points: 6
#     Node 23, Type 0, BuildingBlock: JUFBIX_clean_sbu_0, # of connection points: 6
#     Node 24, Type 0, BuildingBlock: JUFBIX_clean_sbu_0, # of connection points: 6
#     Node 25, Type 0, BuildingBlock: JUFBIX_clean_sbu_0, # of connection points: 6
#     Node 26, Type 0, BuildingBlock: JUFBIX_clean_sbu_0, # of connection points: 6
#     Node 27, Type 0, BuildingBlock: JUFBIX_clean_sbu_0, # of connection points: 6
#     Node 28, Type 0, BuildingBlock: JUFBIX_clean_sbu_0, # of connection points: 6
#     Node 29, Type 0, BuildingBlock: JUFBIX_clean_sbu_0, # of connection points: 6
#     Node 30, Type 0, BuildingBlock: JUFBIX_clean_sbu_0, # of connection points: 6
#     Node 31, Type 0, BuildingBlock: JUFBIX_clean_sbu_0, # of connection points: 6
#     Node 32, Type 0, BuildingBlock: JUFBIX_clean_sbu_0, # of connection points: 6
#     Node 33, Type 0, BuildingBlock: JUFBIX_clean_sbu_0, # of connection points: 6
#     Node 34, Type 0, BuildingBlock: JUFBIX_clean_sbu_0, # of connection points: 6
#     Node 35, Type 0, BuildingBlock: JUFBIX_clean_sbu_0, # of connection points: 6
#     Edge 36, Type (0, 0), BuildingBlock: CIFDUS_clean_linker_0, # of connection points: 2
#     Edge 37, Type (0, 0), BuildingBlock: CIFDUS_clean_linker_0, # of connection points: 2
#     Edge 38, Type (0, 0), BuildingBlock: CIFDUS_clean_linker_0, # of connection points: 2
#     Edge 39, Type (0, 0), BuildingBlock: CIFDUS_clean_linker_0, # of connection points: 2
#     Edge 40, Type (0, 0), BuildingBlock: CIFDUS_clean_linker_0, # of connection points: 2
#     Edge 41, Type (0, 0), BuildingBlock: CIFDUS_clean_linker_0, # of connection points: 2
#     Edge 42, Type (0, 0), BuildingBlock: CIFDUS_clean_linker_0, # of connection points: 2
#     Edge 43, Type (0, 0), BuildingBlock: CIFDUS_clean_linker_0, # of connection points: 2
#     Edge 44, Type (0, 0), BuildingBlock: CIFDUS_clean_linker_0, # of connection points: 2
#     Edge 45, Type (0, 0), BuildingBlock: CIFDUS_clean_linker_0, # of connection points: 2
#     Edge 46, Type (0, 0), BuildingBlock: CIFDUS_clean_linker_0, # of connection points: 2
#     Edge 47, Type (0, 0), BuildingBlock: CIFDUS_clean_linker_0, # of connection points: 2
#     Edge 48, Type (0, 0), BuildingBlock: CIFDUS_clean_linker_0, # of connection points: 2
#     Edge 49, Type (0, 0), BuildingBlock: CIFDUS_clean_linker_0, # of connection points: 2
#     Edge 50, Type (0, 0), BuildingBlock: CIFDUS_clean_linker_0, # of connection points: 2
#     Edge 51, Type (0, 0), BuildingBlock: CIFDUS_clean_linker_0, # of connection points: 2
#     Edge 52, Type (0, 0), BuildingBlock: CIFDUS_clean_linker_0, # of connection points: 2
#     Edge 53, Type (0, 0), BuildingBlock: CIFDUS_clean_linker_0, # of connection points: 2
#     Edge 54, Type (0, 0), BuildingBlock: CIFDUS_clean_linker_0, # of connection points: 2
#     Edge 55, Type (0, 0), BuildingBlock: CIFDUS_clean_linker_0, # of connection points: 2
#     Edge 56, Type (0, 0), BuildingBlock: CIFDUS_clean_linker_0, # of connection points: 2
#     Edge 57, Type (0, 0), BuildingBlock: CIFDUS_clean_linker_0, # of connection points: 2
#     Edge 58, Type (0, 0), BuildingBlock: CIFDUS_clean_linker_0, # of connection points: 2
#     Edge 59, Type (0, 0), BuildingBlock: CIFDUS_clean_linker_0, # of connection points: 2
#     Edge 60, Type (0, 0), BuildingBlock: CIFDUS_clean_linker_0, # of connection points: 2
#     Edge 61, Type (0, 0), BuildingBlock: CIFDUS_clean_linker_0, # of connection points: 2
#     Edge 62, Type (0, 0), BuildingBlock: CIFDUS_clean_linker_0, # of connection points: 2
#     Edge 63, Type (0, 0), BuildingBlock: CIFDUS_clean_linker_0, # of connection points: 2
#     Edge 64, Type (0, 0), BuildingBlock: CIFDUS_clean_linker_0, # of connection points: 2
#     Edge 65, Type (0, 0), BuildingBlock: CIFDUS_clean_linker_0, # of connection points: 2
#     Edge 66, Type (0, 0), BuildingBlock: CIFDUS_clean_linker_0, # of connection points: 2
#     Edge 67, Type (0, 0), BuildingBlock: CIFDUS_clean_linker_0, # of connection points: 2
#     Edge 68, Type (0, 0), BuildingBlock: CIFDUS_clean_linker_0, # of connection points: 2
#     Edge 69, Type (0, 0), BuildingBlock: CIFDUS_clean_linker_0, # of connection points: 2
#     Edge 70, Type (0, 0), BuildingBlock: CIFDUS_clean_linker_0, # of connection points: 2
#     Edge 71, Type (0, 0), BuildingBlock: CIFDUS_clean_linker_0, # of connection points: 2
#     Edge 72, Type (0, 0), BuildingBlock: CIFDUS_clean_linker_0, # of connection points: 2
#     Edge 73, Type (0, 0), BuildingBlock: CIFDUS_clean_linker_0, # of connection points: 2
#     Edge 74, Type (0, 0), BuildingBlock: CIFDUS_clean_linker_0, # of connection points: 2
#     Edge 75, Type (0, 0), BuildingBlock: CIFDUS_clean_linker_0, # of connection points: 2
#     Edge 76, Type (0, 0), BuildingBlock: CIFDUS_clean_linker_0, # of connection points: 2
#     Edge 77, Type (0, 0), BuildingBlock: CIFDUS_clean_linker_0, # of connection points: 2
#     Edge 78, Type (0, 0), BuildingBlock: CIFDUS_clean_linker_0, # of connection points: 2
#     Edge 79, Type (0, 0), BuildingBlock: CIFDUS_clean_linker_0, # of connection points: 2
#     Edge 80, Type (0, 0), BuildingBlock: CIFDUS_clean_linker_0, # of connection points: 2
#     Edge 81, Type (0, 0), BuildingBlock: CIFDUS_clean_linker_0, # of connection points: 2
#     Edge 82, Type (0, 0), BuildingBlock: CIFDUS_clean_linker_0, # of connection points: 2
#     Edge 83, Type (0, 0), BuildingBlock: CIFDUS_clean_linker_0, # of connection points: 2
#     Edge 84, Type (0, 0), BuildingBlock: CIFDUS_clean_linker_0, # of connection points: 2
#     Edge 85, Type (0, 0), BuildingBlock: CIFDUS_clean_linker_0, # of connection points: 2
#     Edge 86, Type (0, 0), BuildingBlock: CIFDUS_clean_linker_0, # of connection points: 2
#     Edge 87, Type (0, 0), BuildingBlock: CIFDUS_clean_linker_0, # of connection points: 2
#     Edge 88, Type (0, 0), BuildingBlock: CIFDUS_clean_linker_0, # of connection points: 2
#     Edge 89, Type (0, 0), BuildingBlock: CIFDUS_clean_linker_0, # of connection points: 2
#     Edge 90, Type (0, 0), BuildingBlock: CIFDUS_clean_linker_0, # of connection points: 2
#     Edge 91, Type (0, 0), BuildingBlock: CIFDUS_clean_linker_0, # of connection points: 2
#     Edge 92, Type (0, 0), BuildingBlock: CIFDUS_clean_linker_0, # of connection points: 2
#     Edge 93, Type (0, 0), BuildingBlock: CIFDUS_clean_linker_0, # of connection points: 2
#     Edge 94, Type (0, 0), BuildingBlock: CIFDUS_clean_linker_0, # of connection points: 2
#     Edge 95, Type (0, 0), BuildingBlock: CIFDUS_clean_linker_0, # of connection points: 2
#     Edge 96, Type (0, 0), BuildingBlock: CIFDUS_clean_linker_0, # of connection points: 2
#     Edge 97, Type (0, 0), BuildingBlock: CIFDUS_clean_linker_0, # of connection points: 2
#     Edge 98, Type (0, 0), BuildingBlock: CIFDUS_clean_linker_0, # of connection points: 2
#     Edge 99, Type (0, 0), BuildingBlock: CIFDUS_clean_linker_0, # of connection points: 2
#     Edge 100, Type (0, 0), BuildingBlock: CIFDUS_clean_linker_0, # of connection points: 2
#     Edge 101, Type (0, 0), BuildingBlock: CIFDUS_clean_linker_0, # of connection points: 2
#     Edge 102, Type (0, 0), BuildingBlock: CIFDUS_clean_linker_0, # of connection points: 2
#     Edge 103, Type (0, 0), BuildingBlock: CIFDUS_clean_linker_0, # of connection points: 2
#     Edge 104, Type (0, 0), BuildingBlock: CIFDUS_clean_linker_0, # of connection points: 2
#     Edge 105, Type (0, 0), BuildingBlock: CIFDUS_clean_linker_0, # of connection points: 2
#     Edge 106, Type (0, 0), BuildingBlock: CIFDUS_clean_linker_0, # of connection points: 2
#     Edge 107, Type (0, 0), BuildingBlock: CIFDUS_clean_linker_0, # of connection points: 2
#     Edge 108, Type (0, 0), BuildingBlock: CIFDUS_clean_linker_0, # of connection points: 2
#     Edge 109, Type (0, 0), BuildingBlock: CIFDUS_clean_linker_0, # of connection points: 2
#     Edge 110, Type (0, 0), BuildingBlock: CIFDUS_clean_linker_0, # of connection points: 2
#     Edge 111, Type (0, 0), BuildingBlock: CIFDUS_clean_linker_0, # of connection points: 2
#     Edge 112, Type (0, 0), BuildingBlock: CIFDUS_clean_linker_0, # of connection points: 2
#     Edge 113, Type (0, 0), BuildingBlock: CIFDUS_clean_linker_0, # of connection points: 2
#     Edge 114, Type (0, 0), BuildingBlock: CIFDUS_clean_linker_0, # of connection points: 2
#     Edge 115, Type (0, 0), BuildingBlock: CIFDUS_clean_linker_0, # of connection points: 2
#     Edge 116, Type (0, 0), BuildingBlock: CIFDUS_clean_linker_0, # of connection points: 2
#     Edge 117, Type (0, 0), BuildingBlock: CIFDUS_clean_linker_0, # of connection points: 2
#     Edge 118, Type (0, 0), BuildingBlock: CIFDUS_clean_linker_0, # of connection points: 2
#     Edge 119, Type (0, 0), BuildingBlock: CIFDUS_clean_linker_0, # of connection points: 2
#     Edge 120, Type (0, 0), BuildingBlock: CIFDUS_clean_linker_0, # of connection points: 2
#     Edge 121, Type (0, 0), BuildingBlock: CIFDUS_clean_linker_0, # of connection points: 2
#     Edge 122, Type (0, 0), BuildingBlock: CIFDUS_clean_linker_0, # of connection points: 2
#     Edge 123, Type (0, 0), BuildingBlock: CIFDUS_clean_linker_0, # of connection points: 2
#     Edge 124, Type (0, 0), BuildingBlock: CIFDUS_clean_linker_0, # of connection points: 2
#     Edge 125, Type (0, 0), BuildingBlock: CIFDUS_clean_linker_0, # of connection points: 2
#     Edge 126, Type (0, 0), BuildingBlock: CIFDUS_clean_linker_0, # of connection points: 2
#     Edge 127, Type (0, 0), BuildingBlock: CIFDUS_clean_linker_0, # of connection points: 2
#     Edge 128, Type (0, 0), BuildingBlock: CIFDUS_clean_linker_0, # of connection points: 2
#     Edge 129, Type (0, 0), BuildingBlock: CIFDUS_clean_linker_0, # of connection points: 2
#     Edge 130, Type (0, 0), BuildingBlock: CIFDUS_clean_linker_0, # of connection points: 2
#     Edge 131, Type (0, 0), BuildingBlock: CIFDUS_clean_linker_0, # of connection points: 2
#     Edge 132, Type (0, 0), BuildingBlock: CIFDUS_clean_linker_0, # of connection points: 2
#     Edge 133, Type (0, 0), BuildingBlock: CIFDUS_clean_linker_0, # of connection points: 2
#     Edge 134, Type (0, 0), BuildingBlock: CIFDUS_clean_linker_0, # of connection points: 2
#     Edge 135, Type (0, 0), BuildingBlock: CIFDUS_clean_linker_0, # of connection points: 2
#     Edge 136, Type (0, 0), BuildingBlock: CIFDUS_clean_linker_0, # of connection points: 2
#     Edge 137, Type (0, 0), BuildingBlock: CIFDUS_clean_linker_0, # of connection points: 2
#     Edge 138, Type (0, 0), BuildingBlock: CIFDUS_clean_linker_0, # of connection points: 2
#     Edge 139, Type (0, 0), BuildingBlock: CIFDUS_clean_linker_0, # of connection points: 2
#     Edge 140, Type (0, 0), BuildingBlock: CIFDUS_clean_linker_0, # of connection points: 2
#     Edge 141, Type (0, 0), BuildingBlock: CIFDUS_clean_linker_0, # of connection points: 2
#     Edge 142, Type (0, 0), BuildingBlock: CIFDUS_clean_linker_0, # of connection points: 2
#     Edge 143, Type (0, 0), BuildingBlock: CIFDUS_clean_linker_0, # of connection points: 2
# Relax obj value: 0.312
# Max RMSD: 0.233
# Mean RMSD: 0.233
data_MOF--net-wnd--node1-JUFBIX_clean_sbu_0--edge1-CIFDUS_clean_linker_0
_symmetry_space_group_name_H-M    P1
_symmetry_Int_Tables_number       1
_symmetry_cell_setting            triclinic
loop_
_symmetry_equiv_pos_as_xyz
'x, y, z'
_cell_length_a     29.750309
_cell_length_b     29.726274
_cell_length_c     143.94433
_cell_angle_alpha  89.976463
_cell_angle_beta   90.072966
_cell_angle_gamma 120.02478
loop_
_atom_site_label
_atom_site_type_symbol
_atom_site_fract_x
_atom_site_fract_y
_atom_site_fract_z
_atom_type_partial_charge
Co0 Co 0.46642 0.05053 0.0588 0.0
C1 C 0.49417 0.00634 0.04462 0.0
Co2 Co 0.49286 0.99725 0.0639 0.0
C3 C 0.47991 0.15155 0.05663 0.0
C4 C 0.41474 0.09716 0.04858 0.0
N5 N 0.45159 0.10057 0.05448 0.0
N6 N 0.46303 0.1802 0.05224 0.0
C7 C 0.4215 0.14627 0.04723 0.0
H8 H 0.51236 0.16772 0.06141 0.0
H9 H 0.38547 0.06155 0.04536 0.0
C10 C 0.46398 0.04544 0.07784 0.0
N11 N 0.50898 0.94791 0.06847 0.0
C12 C 0.53929 0.92966 0.06501 0.0
C13 C 0.48899 0.92068 0.07636 0.0
N14 N 0.53935 0.89284 0.07057 0.0
C15 C 0.50765 0.88733 0.07768 0.0
C16 C 0.57462 0.0945 0.06203 0.0
O17 O 0.45709 0.06683 0.07083 0.0
O18 O 0.47953 0.01281 0.07659 0.0
O19 O 0.56318 0.04953 0.06481 0.0
O20 O 0.53858 0.10242 0.05928 0.0
O21 O 0.50502 0.98424 0.05117 0.0
H22 H 0.46149 0.92386 0.08082 0.0
H23 H 0.56078 0.943 0.05858 0.0
O24 O 0.47561 0.03531 0.04664 0.0
O25 O 0.3941 0.99608 0.05837 0.0
O26 O 0.42314 0.94457 0.06284 0.0
C27 C 0.38549 0.95058 0.0604 0.0
H28 H 0.39859 0.15643 0.04278 0.0
H29 H 0.49728 0.85977 0.08332 0.0
Co30 Co 0.98846 0.43257 0.05653 0.0
C31 C 0.02653 0.49943 0.04181 0.0
Co32 Co 0.03641 0.51393 0.06122 0.0
C33 C 0.89736 0.33344 0.05635 0.0
C34 C 0.95518 0.33248 0.04767 0.0
N35 N 0.94625 0.36367 0.05323 0.0
N36 N 0.87504 0.28476 0.05295 0.0
C37 C 0.91135 0.2837 0.04751 0.0
H38 H 0.87863 0.3468 0.06117 0.0
H39 H 0.99104 0.34444 0.04397 0.0
C40 C 0.9949 0.44319 0.07576 0.0
N41 N 0.07708 0.58355 0.06467 0.0
C42 C 0.12243 0.6203 0.06093 0.0
C43 C 0.06513 0.6092 0.07104 0.0
N44 N 0.13902 0.66789 0.06466 0.0
C45 C 0.10296 0.66094 0.07103 0.0
C46 C 0.93411 0.4858 0.05863 0.0
O47 O 0.97495 0.41273 0.06894 0.0
O48 O 0.02551 0.49154 0.07422 0.0
O49 O 0.97779 0.52143 0.06148 0.0
O50 O 0.92927 0.4426 0.05612 0.0
O51 O 0.0457 0.53363 0.04823 0.0
H52 H 0.03069 0.59152 0.07533 0.0
H53 H 0.1423 0.61245 0.05542 0.0
O54 O 0.0012 0.45176 0.04402 0.0
O55 O 0.04922 0.42452 0.05697 0.0
O56 O 0.09527 0.50699 0.06083 0.0
C57 C 0.09305 0.46431 0.05889 0.0
H58 H 0.90628 0.25045 0.04357 0.0
H59 H 0.10418 0.69094 0.07546 0.0
Co60 Co 0.60805 0.58305 0.05617 0.0
C61 C 0.53786 0.5586 0.042 0.0
Co62 Co 0.53036 0.56154 0.06142 0.0
C63 C 0.70125 0.57886 0.0545 0.0
C64 C 0.70428 0.63957 0.04604 0.0
N65 N 0.67354 0.60151 0.052 0.0
N66 N 0.74806 0.60119 0.05037 0.0
C67 C 0.75043 0.63967 0.04507 0.0
H68 H 0.68781 0.54728 0.05945 0.0
H69 H 0.69388 0.66558 0.04265 0.0
C70 C 0.60458 0.58641 0.07541 0.0
N71 N 0.46379 0.54039 0.06566 0.0
C72 C 0.42652 0.54698 0.0616 0.0
C73 C 0.43987 0.50803 0.07285 0.0
N74 N 0.38019 0.51933 0.06589 0.0
C75 C 0.38847 0.49489 0.073 0.0
C76 C 0.54428 0.47688 0.05908 0.0
O77 O 0.63235 0.59089 0.06843 0.0
O78 O 0.55724 0.57398 0.07412 0.0
O79 O 0.51453 0.49253 0.06205 0.0
O80 O 0.58929 0.51026 0.0562 0.0
O81 O 0.50588 0.54974 0.04861 0.0
H82 H 0.45816 0.49327 0.07748 0.0
H83 H 0.43266 0.56969 0.05536 0.0
O84 O 0.58512 0.57538 0.04394 0.0
O85 O 0.62458 0.65548 0.05607 0.0
O86 O 0.54511 0.63041 0.06076 0.0
C87 C 0.58957 0.66641 0.05829 0.0
H88 H 0.78298 0.6657 0.04076 0.0
H89 H 0.35933 0.46903 0.07789 0.0
Co90 Co 1.00043 0.43339 0.47473 0.0
C91 C 0.05114 0.47034 0.45748 0.0
Co92 Co 0.05255 0.51786 0.47388 0.0
C93 C 0.90591 0.33908 0.47706 0.0
C94 C 0.96228 0.32524 0.47046 0.0
N95 N 0.95641 0.36247 0.47468 0.0
N96 N 0.87929 0.28938 0.47419 0.0
C97 C 0.9147 0.28019 0.47011 0.0
H98 H 0.88791 0.35966 0.48003 0.0
H99 H 0.99772 0.33161 0.46719 0.0
C100 C 0.00686 0.48022 0.49141 0.0
N101 N 0.09198 0.58941 0.47426 0.0
C102 C 0.14246 0.62331 0.47254 0.0
C103 C 0.07263 0.61889 0.47751 0.0
N104 N 0.15493 0.67268 0.47459 0.0
C105 C 0.11091 0.66968 0.47772 0.0
C106 C 0.95148 0.48766 0.46918 0.0
O107 O 0.98564 0.43588 0.48755 0.0
O108 O 0.03473 0.52009 0.48651 0.0
O109 O 0.99724 0.52524 0.46966 0.0
O110 O 0.94267 0.44255 0.47125 0.0
O111 O 0.07157 0.51496 0.46131 0.0
H112 H 0.03334 0.60412 0.47996 0.0
H113 H 0.1695 0.61181 0.47002 0.0
O114 O 0.01721 0.43079 0.46192 0.0
O115 O 0.05788 0.42547 0.47815 0.0
O116 O 0.10828 0.51051 0.47796 0.0
C117 C 0.1025 0.46559 0.47923 0.0
H118 H 0.90628 0.24458 0.46661 0.0
H119 H 0.10699 0.70155 0.4804 0.0
Co120 Co 0.61399 0.57942 0.47148 0.0
C121 C 0.59014 0.60047 0.45394 0.0
Co122 Co 0.53134 0.55486 0.46981 0.0
C123 C 0.70067 0.56516 0.47497 0.0
C124 C 0.72508 0.64179 0.46994 0.0
N125 N 0.68285 0.59756 0.47274 0.0
N126 N 0.75196 0.58666 0.47338 0.0
C127 C 0.76765 0.63513 0.4703 0.0
H128 H 0.67581 0.52508 0.47701 0.0
H129 H 0.72434 0.67535 0.46722 0.0
C130 C 0.55642 0.53922 0.48763 0.0
N131 N 0.46247 0.53442 0.46829 0.0
C132 C 0.42983 0.53868 0.47424 0.0
C133 C 0.43249 0.50623 0.46109 0.0
N134 N 0.38058 0.51334 0.47108 0.0
C135 C 0.38204 0.49304 0.46281 0.0
C136 C 0.55099 0.4761 0.46593 0.0
O137 O 0.60159 0.55826 0.48414 0.0
O138 O 0.51897 0.53264 0.48244 0.0
O139 O 0.51609 0.4884 0.46611 0.0
O140 O 0.59732 0.51018 0.46793 0.0
O141 O 0.54448 0.57866 0.45726 0.0
H142 H 0.4463 0.49483 0.45509 0.0
H143 H 0.44159 0.55838 0.48087 0.0
O144 O 0.62672 0.60261 0.45884 0.0
O145 O 0.62921 0.6474 0.47503 0.0
O146 O 0.54606 0.62095 0.47356 0.0
C147 C 0.59186 0.65663 0.47549 0.0
H148 H 0.80658 0.6629 0.46805 0.0
H149 H 0.34895 0.47038 0.45834 0.0
Co150 Co 0.47844 0.05355 0.47019 0.0
C151 C 0.46108 0.01254 0.45238 0.0
Co152 Co 0.50776 0.99942 0.46809 0.0
C153 C 0.48571 0.15187 0.47365 0.0
C154 C 0.40917 0.09494 0.46933 0.0
N155 N 0.45567 0.10082 0.4717 0.0
N156 N 0.46056 0.17851 0.4723 0.0
C157 C 0.41208 0.14265 0.46968 0.0
H158 H 0.52657 0.16997 0.47533 0.0
H159 H 0.37641 0.05904 0.4669 0.0
C160 C 0.51906 0.03627 0.48625 0.0
N161 N 0.53251 0.95457 0.46634 0.0
C162 C 0.52933 0.9175 0.47214 0.0
C163 C 0.56218 0.95531 0.4592 0.0
N164 N 0.55646 0.89558 0.46894 0.0
C165 C 0.57706 0.91908 0.46079 0.0
C166 C 0.58232 0.10011 0.46482 0.0
O167 O 0.49826 0.06098 0.48284 0.0
O168 O 0.52859 0.0079 0.48092 0.0
O169 O 0.57273 0.05374 0.46474 0.0
O170 O 0.5466 0.10966 0.46699 0.0
O171 O 0.485 0.99011 0.45544 0.0
H172 H 0.57299 0.98117 0.45329 0.0
H173 H 0.50851 0.90764 0.47867 0.0
O174 O 0.45666 0.04465 0.45756 0.0
O175 O 0.41158 0.99674 0.47337 0.0
O176 O 0.44332 0.94473 0.47138 0.0
C177 C 0.4054 0.95111 0.47336 0.0
H178 H 0.38161 0.1506 0.46772 0.0
H179 H 0.60055 0.91018 0.45625 0.0
Co180 Co 0.54198 0.03514 0.97033 0.0
C181 C 0.57171 0.99321 0.95594 0.0
Co182 Co 0.5727 0.98539 0.97518 0.0
C183 C 0.52417 0.12264 0.97062 0.0
C184 C 0.47904 0.06674 0.96019 0.0
N185 N 0.51549 0.07752 0.96676 0.0
N186 N 0.49413 0.14004 0.9668 0.0
C187 C 0.46573 0.10494 0.96023 0.0
H188 H 0.55094 0.14158 0.97631 0.0
H189 H 0.46241 0.03266 0.9558 0.0
C190 C 0.54419 0.02392 0.98979 0.0
N191 N 0.59651 0.94102 0.97858 0.0
C192 C 0.5754 0.89149 0.97562 0.0
C193 C 0.63602 0.94843 0.98418 0.0
N194 N 0.59961 0.86737 0.97916 0.0
C195 C 0.63818 0.90307 0.98452 0.0
C196 C 0.64841 0.08928 0.973 0.0
O197 O 0.53052 0.04419 0.98334 0.0
O198 O 0.56565 0.99781 0.98762 0.0
O199 O 0.64265 0.04479 0.97498 0.0
O200 O 0.60882 0.0929 0.97098 0.0
O201 O 0.57995 0.9722 0.96286 0.0
H202 H 0.66137 0.98427 0.9878 0.0
H203 H 0.54315 0.87353 0.97081 0.0
O204 O 0.55467 0.02452 0.95732 0.0
O205 O 0.47464 0.97768 0.96977 0.0
O206 O 0.5024 0.92755 0.97532 0.0
C207 C 0.46502 0.93348 0.97261 0.0
H208 H 0.43762 0.10695 0.95572 0.0
H209 H 0.66533 0.89661 0.9885 0.0
Co210 Co 0.99412 0.52333 0.9676 0.0
C211 C 0.03426 0.59708 0.95356 0.0
Co212 Co 0.04328 0.60284 0.97286 0.0
C213 C 0.90706 0.41889 0.96801 0.0
C214 C 0.96029 0.42863 0.95716 0.0
N215 N 0.95131 0.45487 0.96386 0.0
N216 N 0.88839 0.37119 0.96424 0.0
C217 C 0.92178 0.37714 0.9574 0.0
H218 H 0.88982 0.42721 0.9739 0.0
H219 H 0.99344 0.44559 0.95255 0.0
C220 C 0.00651 0.53353 0.98711 0.0
N221 N 0.08753 0.67046 0.97666 0.0
C222 C 0.13796 0.69948 0.97426 0.0
C223 C 0.0785 0.70116 0.98234 0.0
N224 N 0.16096 0.74683 0.97822 0.0
C225 C 0.12365 0.74839 0.98327 0.0
C226 C 0.93948 0.57461 0.9711 0.0
O227 O 0.98747 0.50054 0.98049 0.0
O228 O 0.03066 0.5815 0.98517 0.0
O229 O 0.98411 0.61358 0.97288 0.0
O230 O 0.93593 0.53158 0.96895 0.0
O231 O 0.0567 0.62525 0.96057 0.0
H232 H 0.0417 0.6898 0.98564 0.0
H233 H 0.15747 0.68634 0.96957 0.0
O234 O 0.00235 0.54867 0.9548 0.0
O235 O 0.05206 0.51452 0.96622 0.0
O236 O 0.1008 0.58999 0.97286 0.0
C237 C 0.09574 0.54848 0.96936 0.0
H238 H 0.91851 0.34651 0.95289 0.0
H239 H 0.12892 0.78089 0.98747 0.0
Co240 Co 0.50471 0.48808 0.9684 0.0
C241 C 0.43001 0.4539 0.95425 0.0
Co242 Co 0.42469 0.45835 0.97346 0.0
C243 C 0.60899 0.504 0.9684 0.0
C244 C 0.59824 0.548 0.95775 0.0
N245 N 0.57272 0.51275 0.96449 0.0
N246 N 0.6562 0.53287 0.96445 0.0
C247 C 0.64956 0.56058 0.95774 0.0
H248 H 0.6013 0.47827 0.97425 0.0
H249 H 0.58092 0.56452 0.95329 0.0
C250 C 0.49559 0.4919 0.98775 0.0
N251 N 0.35783 0.4365 0.9775 0.0
C252 C 0.32803 0.45606 0.97454 0.0
C253 C 0.33249 0.4068 0.9849 0.0
N254 N 0.2858 0.441 0.97991 0.0
C255 C 0.28824 0.40975 0.98643 0.0
C256 C 0.45222 0.38212 0.97207 0.0
O257 O 0.52829 0.50319 0.98118 0.0
O258 O 0.44773 0.47008 0.98579 0.0
O259 O 0.4138 0.3884 0.97401 0.0
O260 O 0.49495 0.42102 0.96959 0.0
O261 O 0.40102 0.44668 0.96119 0.0
H262 H 0.3469 0.38704 0.98924 0.0
H263 H 0.33922 0.48411 0.96896 0.0
O264 O 0.47862 0.47204 0.9556 0.0
O265 O 0.51517 0.55554 0.96736 0.0
O266 O 0.43744 0.52855 0.97291 0.0
C267 C 0.48071 0.56555 0.97009 0.0
H268 H 0.67962 0.58789 0.95313 0.0
H269 H 0.26116 0.39199 0.99211 0.0
Co270 Co 0.00241 0.51854 0.56324 0.0
C271 C 0.04544 0.55352 0.54541 0.0
Co272 Co 0.05325 0.60307 0.56178 0.0
C273 C 0.91288 0.413 0.56365 0.0
C274 C 0.98568 0.41683 0.56133 0.0
N275 N 0.96452 0.44656 0.5634 0.0
N276 N 0.90133 0.36369 0.56176 0.0
C277 C 0.94736 0.36638 0.56036 0.0
H278 H 0.88445 0.425 0.56473 0.0
H279 H 0.02628 0.43117 0.55989 0.0
C280 C 0.00482 0.56932 0.57921 0.0
N281 N 0.09476 0.6745 0.5614 0.0
C282 C 0.146 0.70137 0.55948 0.0
C283 C 0.08332 0.7102 0.56458 0.0
N284 N 0.16752 0.75226 0.56158 0.0
C285 C 0.12791 0.75801 0.5647 0.0
C286 C 0.94911 0.56674 0.55789 0.0
O287 O 0.9846 0.52374 0.57578 0.0
O288 O 0.03839 0.60778 0.57452 0.0
O289 O 0.99356 0.60755 0.55853 0.0
O290 O 0.94478 0.52258 0.55928 0.0
O291 O 0.06612 0.59849 0.54903 0.0
H292 H 0.04575 0.7015 0.56721 0.0
H293 H 0.16747 0.68341 0.55694 0.0
O294 O 0.01891 0.51412 0.55054 0.0
O295 O 0.06002 0.51483 0.56741 0.0
O296 O 0.11293 0.59728 0.56502 0.0
C297 C 0.10552 0.5531 0.56743 0.0
H298 H 0.95318 0.33497 0.55811 0.0
H299 H 0.13128 0.79348 0.56742 0.0
Co300 Co 0.51731 0.49186 0.55926 0.0
C301 C 0.48002 0.4971 0.54147 0.0
Co302 Co 0.43303 0.46035 0.55824 0.0
C303 C 0.62214 0.5056 0.56077 0.0
C304 C 0.61871 0.5707 0.55527 0.0
N305 N 0.58885 0.52287 0.55892 0.0
N306 N 0.6715 0.54118 0.55842 0.0
C307 C 0.66904 0.58197 0.55496 0.0
H308 H 0.61014 0.46737 0.56353 0.0
H309 H 0.60443 0.59509 0.55253 0.0
C310 C 0.46895 0.44887 0.57573 0.0
N311 N 0.36219 0.43433 0.5582 0.0
C312 C 0.33957 0.46195 0.55562 0.0
C313 C 0.32481 0.39254 0.56269 0.0
N314 N 0.29036 0.44059 0.55866 0.0
C315 C 0.28057 0.39649 0.56304 0.0
C316 C 0.46459 0.38869 0.55482 0.0
O317 O 0.51401 0.47295 0.57207 0.0
O318 O 0.43 0.44308 0.57108 0.0
O319 O 0.42447 0.39368 0.55532 0.0
O320 O 0.50932 0.42803 0.556 0.0
O321 O 0.43575 0.47567 0.54532 0.0
H322 H 0.3307 0.36369 0.56619 0.0
H323 H 0.36053 0.49995 0.55242 0.0
O324 O 0.51963 0.50852 0.54641 0.0
O325 O 0.52556 0.55587 0.56263 0.0
O326 O 0.44312 0.52834 0.56123 0.0
C327 C 0.48873 0.56527 0.56281 0.0
H328 H 0.70083 0.6166 0.55194 0.0
H329 H 0.24525 0.37082 0.56676 0.0
Co330 Co 0.54729 0.03764 0.55811 0.0
C331 C 0.54601 0.99445 0.54049 0.0
Co332 Co 0.57898 0.98489 0.55765 0.0
C333 C 0.52947 0.12613 0.55914 0.0
C334 C 0.46669 0.05673 0.55337 0.0
N335 N 0.51408 0.07598 0.55729 0.0
N336 N 0.4932 0.13847 0.55654 0.0
C337 C 0.45379 0.0947 0.55293 0.0
H338 H 0.56693 0.15317 0.56209 0.0
H339 H 0.44375 0.01795 0.55057 0.0
C340 C 0.58742 0.03358 0.57496 0.0
N341 N 0.60865 0.94332 0.55829 0.0
C342 C 0.58461 0.89146 0.55701 0.0
C343 C 0.65535 0.95622 0.56193 0.0
N344 N 0.61377 0.8711 0.55994 0.0
C345 C 0.65864 0.91198 0.56294 0.0
C346 C 0.65026 0.08962 0.55433 0.0
O347 O 0.56347 0.05397 0.57102 0.0
O348 O 0.59395 1.0003 0.57053 0.0
O349 O 0.64486 0.0444 0.55494 0.0
O350 O 0.61087 0.09516 0.55515 0.0
O351 O 0.56622 0.97118 0.54466 0.0
H352 H 0.68372 0.9947 0.56429 0.0
H353 H 0.5455 0.86882 0.55435 0.0
O354 O 0.53367 0.02274 0.5452 0.0
O355 O 0.48352 0.98032 0.56119 0.0
O356 O 0.51157 0.92549 0.56042 0.0
C357 C 0.47429 0.93411 0.56162 0.0
H358 H 0.41919 0.09096 0.54971 0.0
H359 H 0.6903 0.90988 0.56621 0.0
Co360 Co 0.13497 0.40199 0.39173 0.0
C361 C 0.16174 0.367 0.37622 0.0
Co362 Co 0.17008 0.35432 0.39531 0.0
C363 C 0.13083 0.49561 0.39099 0.0
C364 C 0.0672 0.43507 0.38347 0.0
N365 N 0.10848 0.44477 0.38878 0.0
N366 N 0.10586 0.51834 0.38718 0.0
C367 C 0.06534 0.48033 0.38251 0.0
H368 H 0.16525 0.5159 0.39526 0.0
H369 H 0.0412 0.39804 0.38027 0.0
C370 C 0.14091 0.39206 0.41071 0.0
N371 N 0.19913 0.31345 0.39824 0.0
C372 C 0.1906 0.26889 0.39418 0.0
C373 C 0.2362 0.32406 0.40467 0.0
N374 N 0.22116 0.25152 0.39777 0.0
C375 C 0.24992 0.2862 0.40437 0.0
C376 C 0.24404 0.45688 0.39337 0.0
O377 O 0.13002 0.41409 0.40429 0.0
O378 O 0.15846 0.36196 0.40854 0.0
O379 O 0.23622 0.41281 0.39586 0.0
O380 O 0.20517 0.46182 0.39126 0.0
O381 O 0.18031 0.34819 0.38207 0.0
H382 H 0.25258 0.35752 0.40922 0.0
H383 H 0.16313 0.25008 0.38858 0.0
O384 O 0.13926 0.39073 0.37917 0.0
O385 O 0.0655 0.34011 0.39208 0.0
O386 O 0.10455 0.29505 0.39458 0.0
C387 C 0.06316 0.29622 0.39311 0.0
H388 H 0.03757 0.48532 0.37843 0.0
H389 H 0.27824 0.28393 0.40877 0.0
Co390 Co 0.66668 0.78667 0.3911 0.0
C391 C 0.70503 0.85725 0.37671 0.0
Co392 Co 0.71803 0.86725 0.396 0.0
C393 C 0.5714 0.69062 0.38968 0.0
C394 C 0.62918 0.68905 0.38107 0.0
N395 N 0.62166 0.71936 0.3871 0.0
N396 N 0.54704 0.64389 0.38549 0.0
C397 C 0.58333 0.64239 0.38011 0.0
H398 H 0.55299 0.70351 0.39466 0.0
H399 H 0.66538 0.70032 0.37754 0.0
C400 C 0.67647 0.79127 0.41014 0.0
N401 N 0.75973 0.93558 0.40038 0.0
C402 C 0.79658 0.97954 0.39617 0.0
C403 C 0.75256 0.95188 0.40871 0.0
N404 N 0.81203 0.02235 0.40155 0.0
C405 C 0.78446 0.00462 0.40946 0.0
C406 C 0.61599 0.84231 0.39438 0.0
O407 O 0.65355 0.76261 0.40324 0.0
O408 O 0.70808 0.83958 0.40876 0.0
O409 O 0.66049 0.87657 0.39716 0.0
O410 O 0.60953 0.79921 0.39145 0.0
O411 O 0.72619 0.89115 0.38316 0.0
H412 H 0.7244 0.92731 0.41384 0.0
H413 H 0.81024 0.98044 0.38917 0.0
O414 O 0.679 0.8096 0.37887 0.0
O415 O 0.72617 0.7765 0.39076 0.0
O416 O 0.77582 0.85864 0.39473 0.0
C417 C 0.77127 0.81523 0.39245 0.0
H418 H 0.57695 0.6103 0.37568 0.0
H419 H 0.78687 0.02813 0.41538 0.0
Co420 Co 0.28867 0.93293 0.38896 0.0
C421 C 0.22575 0.90908 0.37383 0.0
Co422 Co 0.20722 0.9014 0.39307 0.0
C423 C 0.38536 0.93645 0.38887 0.0
C424 C 0.39027 0.9992 0.38079 0.0
N425 N 0.35729 0.95795 0.38597 0.0
N426 N 0.43438 0.96212 0.38569 0.0
C427 C 0.43803 0.002 0.38064 0.0
H428 H 0.37027 0.90286 0.39338 0.0
H429 H 0.38021 0.0253 0.37734 0.0
C430 C 0.27532 0.92675 0.40802 0.0
N431 N 0.13777 0.87393 0.39626 0.0
C432 C 0.10159 0.88324 0.39248 0.0
C433 C 0.11179 0.83665 0.40267 0.0
N434 N 0.05403 0.85282 0.39622 0.0
C435 C 0.06041 0.8235 0.40264 0.0
C436 C 0.23196 0.82471 0.39062 0.0
O437 O 0.30625 0.93581 0.40136 0.0
O438 O 0.22783 0.91201 0.40623 0.0
O439 O 0.1976 0.83454 0.39344 0.0
O440 O 0.27586 0.86219 0.38814 0.0
O441 O 0.18939 0.8916 0.37987 0.0
H442 H 0.12904 0.81963 0.40702 0.0
H443 H 0.10979 0.91105 0.38696 0.0
O444 O 0.27249 0.93067 0.37649 0.0
O445 O 0.29943 0.00268 0.38979 0.0
O446 O 0.21608 0.96823 0.39261 0.0
C447 C 0.26012 0.00818 0.39124 0.0
H448 H 0.47236 0.03048 0.37699 0.0
H449 H 0.03022 0.7951 0.40709 0.0
Co450 Co 0.66896 0.77271 0.80802 0.0
C451 C 0.72458 0.81199 0.79108 0.0
Co452 Co 0.72589 0.85623 0.80763 0.0
C453 C 0.56915 0.67659 0.80799 0.0
C454 C 0.63247 0.66685 0.80359 0.0
N455 N 0.62121 0.70259 0.80686 0.0
N456 N 0.54765 0.62601 0.80556 0.0
C457 C 0.58759 0.61995 0.80282 0.0
H458 H 0.54744 0.69463 0.81039 0.0
H459 H 0.67071 0.67478 0.80154 0.0
C460 C 0.67361 0.8165 0.82472 0.0
N461 N 0.77413 0.92572 0.80915 0.0
C462 C 0.79183 0.96694 0.80337 0.0
C463 C 0.79873 0.94557 0.8173 0.0
N464 N 0.82533 0.0115 0.80776 0.0
C465 C 0.82977 0.99808 0.81648 0.0
C466 C 0.6292 0.83804 0.80298 0.0
O467 O 0.65213 0.77185 0.82095 0.0
O468 O 0.70376 0.8558 0.81991 0.0
O469 O 0.67666 0.87303 0.80338 0.0
O470 O 0.61643 0.791 0.80474 0.0
O471 O 0.74785 0.85565 0.79523 0.0
H472 H 0.79488 0.92315 0.82347 0.0
H473 H 0.78059 0.96439 0.79615 0.0
O474 O 0.68751 0.77326 0.79518 0.0
O475 O 0.72159 0.75657 0.81134 0.0
O476 O 0.77575 0.84017 0.81188 0.0
C477 C 0.76709 0.79417 0.81278 0.0
H478 H 0.58448 0.58466 0.80005 0.0
H479 H 0.85546 0.02427 0.82177 0.0
Co480 Co 0.28142 0.92102 0.80575 0.0
C481 C 0.26014 0.93981 0.78765 0.0
Co482 Co 0.19866 0.89447 0.80309 0.0
C483 C 0.36984 0.9074 0.80907 0.0
C484 C 0.39331 0.98575 0.80533 0.0
N485 N 0.35106 0.93984 0.80743 0.0
N486 N 0.42173 0.93065 0.80781 0.0
C487 C 0.43667 0.98025 0.80556 0.0
H488 H 0.34547 0.86641 0.8105 0.0
H489 H 0.39232 0.0201 0.80317 0.0
C490 C 0.21971 0.8805 0.82142 0.0
N491 N 0.12948 0.87262 0.80114 0.0
C492 C 0.09489 0.87301 0.80714 0.0
C493 C 0.10121 0.84608 0.79367 0.0
N494 N 0.04607 0.84694 0.80376 0.0
C495 C 0.04989 0.83019 0.79527 0.0
C496 C 0.22027 0.8167 0.80017 0.0
O497 O 0.26661 0.90153 0.81864 0.0
O498 O 0.18429 0.87228 0.8156 0.0
O499 O 0.18523 0.82866 0.79956 0.0
O500 O 0.26552 0.85105 0.80271 0.0
O501 O 0.21386 0.91794 0.79066 0.0
H502 H 0.11673 0.83733 0.78758 0.0
H503 H 0.10501 0.89024 0.81399 0.0
O504 O 0.29593 0.94264 0.79291 0.0
O505 O 0.29491 0.98966 0.80874 0.0
O506 O 0.21147 0.96028 0.80663 0.0
C507 C 0.2564 0.99738 0.80867 0.0
H508 H 0.47582 0.01005 0.80384 0.0
H509 H 0.01787 0.80796 0.79056 0.0
Co510 Co 0.13661 0.39217 0.80478 0.0
C511 C 0.12721 0.3637 0.78605 0.0
Co512 Co 0.16466 0.33804 0.80142 0.0
C513 C 0.14591 0.49079 0.80919 0.0
C514 C 0.0693 0.43572 0.80459 0.0
N515 N 0.11514 0.44011 0.80701 0.0
N516 N 0.12192 0.51857 0.8079 0.0
C517 C 0.07339 0.48389 0.80511 0.0
H518 H 0.18669 0.50811 0.81088 0.0
H519 H 0.03647 0.40079 0.80187 0.0
C520 C 0.16891 0.36158 0.82034 0.0
N521 N 0.18843 0.29252 0.79896 0.0
C522 C 0.18309 0.25235 0.80416 0.0
C523 C 0.22095 0.29702 0.79204 0.0
N524 N 0.21161 0.23215 0.80083 0.0
C525 C 0.2353 0.26001 0.79317 0.0
C526 C 0.24292 0.43962 0.80101 0.0
O527 O 0.15271 0.39187 0.81767 0.0
O528 O 0.1765 0.33484 0.81432 0.0
O529 O 0.23277 0.39312 0.80019 0.0
O530 O 0.206 0.44835 0.80256 0.0
O531 O 0.15145 0.34074 0.78862 0.0
H532 H 0.23463 0.32642 0.78668 0.0
H533 H 0.1603 0.23949 0.81047 0.0
O534 O 0.1185 0.39029 0.79194 0.0
O535 O 0.06862 0.33579 0.80694 0.0
O536 O 0.0963 0.28272 0.80265 0.0
C537 C 0.05948 0.29014 0.80509 0.0
H538 H 0.04398 0.49316 0.80303 0.0
H539 H 0.26115 0.25407 0.78872 0.0
Co540 Co 0.22414 0.3733 0.30359 0.0
C541 C 0.24856 0.32886 0.28869 0.0
Co542 Co 0.25476 0.32276 0.30772 0.0
C543 C 0.2017 0.45746 0.3047 0.0
C544 C 0.16709 0.4086 0.29285 0.0
N545 N 0.19873 0.41639 0.30015 0.0
N546 N 0.17272 0.47523 0.30058 0.0
C547 C 0.1511 0.44466 0.2931 0.0
H548 H 0.2233 0.47289 0.31108 0.0
H549 H 0.15515 0.37764 0.28782 0.0
C550 C 0.23305 0.36447 0.32282 0.0
N551 N 0.27532 0.27575 0.31101 0.0
C552 C 0.2484 0.22563 0.30834 0.0
C553 C 0.30976 0.27771 0.31734 0.0
N554 N 0.26303 0.19579 0.31291 0.0
C555 C 0.3024 0.22821 0.31849 0.0
C556 C 0.33175 0.42536 0.30537 0.0
O557 O 0.21533 0.38317 0.31678 0.0
O558 O 0.25323 0.33811 0.32012 0.0
O559 O 0.32588 0.38024 0.30685 0.0
O560 O 0.29197 0.42981 0.304 0.0
O561 O 0.25715 0.30657 0.29536 0.0
H562 H 0.33607 0.31199 0.32126 0.0
H563 H 0.21672 0.21055 0.30339 0.0
O564 O 0.23437 0.36198 0.2905 0.0
O565 O 0.15604 0.31792 0.30323 0.0
O566 O 0.18311 0.26718 0.30861 0.0
C567 C 0.14587 0.27382 0.30615 0.0
H568 H 0.12567 0.44817 0.28813 0.0
H569 H 0.32213 0.21649 0.32341 0.0
Co570 Co 0.67497 0.86504 0.30224 0.0
C571 C 0.71626 0.93587 0.28749 0.0
Co572 Co 0.72466 0.94655 0.30665 0.0
C573 C 0.58904 0.75844 0.30285 0.0
C574 C 0.64339 0.77025 0.29209 0.0
N575 N 0.63311 0.79553 0.29879 0.0
N576 N 0.57176 0.71097 0.29901 0.0
C577 C 0.60594 0.7184 0.29222 0.0
H578 H 0.57079 0.76591 0.30869 0.0
H579 H 0.67662 0.78822 0.28751 0.0
C580 C 0.68687 0.88028 0.32156 0.0
N581 N 0.76797 0.01492 0.3101 0.0
C582 C 0.81836 0.04393 0.30769 0.0
C583 C 0.75875 0.04579 0.31569 0.0
N584 N 0.84126 0.09137 0.31161 0.0
C585 C 0.80385 0.09309 0.3166 0.0
C586 C 0.62009 0.91622 0.3048 0.0
O587 O 0.6667 0.84533 0.31528 0.0
O588 O 0.71245 0.92753 0.31915 0.0
O589 O 0.66454 0.95589 0.30641 0.0
O590 O 0.61687 0.87303 0.30292 0.0
O591 O 0.73787 0.96668 0.29422 0.0
H592 H 0.72201 0.03431 0.31903 0.0
H593 H 0.83806 0.0305 0.30312 0.0
O594 O 0.68498 0.88776 0.2892 0.0
O595 O 0.73273 0.85626 0.30167 0.0
O596 O 0.78297 0.93501 0.30688 0.0
C597 C 0.77703 0.89141 0.30435 0.0
H598 H 0.6038 0.68859 0.28763 0.0
H599 H 0.80911 0.12555 0.32081 0.0
Co600 Co 0.18039 0.81456 0.30225 0.0
C601 C 0.10968 0.78947 0.28766 0.0
Co602 Co 0.10144 0.7907 0.30677 0.0
C603 C 0.28572 0.83219 0.30299 0.0
C604 C 0.2723 0.86813 0.29125 0.0
N605 N 0.24818 0.8369 0.29857 0.0
N606 N 0.33236 0.85994 0.29879 0.0
C607 C 0.32398 0.88245 0.29138 0.0
H608 H 0.2794 0.81051 0.30937 0.0
H609 H 0.25382 0.88115 0.28631 0.0
C610 C 0.16665 0.81293 0.32152 0.0
N611 N 0.03468 0.77113 0.31032 0.0
C612 C 0.00804 0.795 0.30788 0.0
C613 C 0.00173 0.73069 0.31566 0.0
N614 N 0.95978 0.77114 0.31145 0.0
C615 C 0.9554 0.73042 0.31632 0.0
C616 C 0.12242 0.70983 0.30507 0.0
O617 O 0.20182 0.82799 0.3153 0.0
O618 O 0.1197 0.79318 0.31911 0.0
O619 O 0.08484 0.71851 0.30618 0.0
O620 O 0.16753 0.74741 0.30346 0.0
O621 O 0.08136 0.78723 0.2944 0.0
H622 H 0.01077 0.70315 0.31883 0.0
H623 H 0.02336 0.82863 0.30337 0.0
O624 O 0.15615 0.8 0.28933 0.0
O625 O 0.19467 0.88199 0.30115 0.0
O626 O 0.12094 0.8639 0.3075 0.0
C627 C 0.16577 0.89744 0.30455 0.0
H628 H 0.35317 0.90756 0.28643 0.0
H629 H 0.92134 0.70276 0.32014 0.0
Co630 Co 0.65745 0.82973 0.89823 0.0
C631 C 0.68843 0.84515 0.87984 0.0
Co632 Co 0.7069 0.91257 0.89462 0.0
C633 C 0.58079 0.72125 0.8962 0.0
C634 C 0.61906 0.73882 0.90941 0.0
N635 N 0.61606 0.76093 0.90142 0.0
N636 N 0.5621 0.67519 0.9006 0.0
C637 C 0.58595 0.68613 0.90892 0.0
H638 H 0.57011 0.72594 0.88923 0.0
H639 H 0.64456 0.75963 0.91515 0.0
C640 C 0.67062 0.89735 0.91274 0.0
N641 N 0.75191 0.98225 0.89178 0.0
C642 C 0.80281 0.00395 0.88959 0.0
C643 C 0.74513 0.02284 0.89372 0.0
N644 N 0.82848 0.05615 0.89044 0.0
C645 C 0.79211 0.06825 0.89293 0.0
C646 C 0.6032 0.87623 0.89155 0.0
O647 O 0.64944 0.84987 0.91038 0.0
O648 O 0.70063 0.93209 0.90704 0.0
O649 O 0.64749 0.91748 0.89127 0.0
O650 O 0.59947 0.8339 0.89432 0.0
O651 O 0.71081 0.89284 0.88219 0.0
H652 H 0.70941 0.01944 0.89629 0.0
H653 H 0.82184 0.98172 0.88824 0.0
O654 O 0.6647 0.81036 0.88596 0.0
O655 O 0.71492 0.82497 0.90202 0.0
O656 O 0.76578 0.90563 0.89794 0.0
C657 C 0.76018 0.86304 0.90096 0.0
H658 H 0.57952 0.65814 0.91431 0.0
H659 H 0.79947 0.10686 0.8946 0.0
Co660 Co 0.19859 0.83888 0.89522 0.0
C661 C 0.18439 0.85598 0.87673 0.0
Co662 Co 0.11671 0.81112 0.8916 0.0
C663 C 0.30668 0.86595 0.89356 0.0
C664 C 0.28889 0.88998 0.90639 0.0
N665 N 0.26702 0.86365 0.89848 0.0
N666 N 0.35239 0.89345 0.89806 0.0
C667 C 0.34128 0.90839 0.90615 0.0
H668 H 0.30241 0.84926 0.8867 0.0
H669 H 0.26817 0.89662 0.9119 0.0
C670 C 0.13059 0.78905 0.90985 0.0
N671 N 0.04757 0.78832 0.88888 0.0
C672 C 0.02559 0.81812 0.88761 0.0
C673 C 0.00725 0.73986 0.8902 0.0
N674 N 0.97357 0.7907 0.88848 0.0
C675 C 0.96175 0.74126 0.88999 0.0
C676 C 0.14629 0.73833 0.88889 0.0
O677 O 0.17806 0.81324 0.9075 0.0
O678 O 0.09661 0.78538 0.90406 0.0
O679 O 0.10837 0.74641 0.88824 0.0
O680 O 0.19015 0.7743 0.89175 0.0
O681 O 0.13684 0.83481 0.87912 0.0
H682 H 0.01081 0.70656 0.89208 0.0
H683 H 0.04737 0.86001 0.88703 0.0
O684 O 0.21834 0.86312 0.88283 0.0
O685 O 0.20716 0.90326 0.89864 0.0
O686 O 0.12669 0.87759 0.895 0.0
C687 C 0.17058 0.91292 0.89786 0.0
H688 H 0.36908 0.93073 0.91152 0.0
H689 H 0.92338 0.70918 0.89152 0.0
Co690 Co 0.1977 0.37505 0.8943 0.0
C691 C 0.18569 0.34486 0.87569 0.0
Co692 Co 0.22866 0.3239 0.89098 0.0
C693 C 0.1833 0.46131 0.89185 0.0
C694 C 0.13961 0.41504 0.90346 0.0
N695 N 0.17286 0.4187 0.89674 0.0
N696 N 0.15785 0.48434 0.89521 0.0
C697 C 0.13009 0.45555 0.90251 0.0
H698 H 0.20879 0.47501 0.88587 0.0
H699 H 0.1235 0.38499 0.90871 0.0
C700 C 0.24541 0.35899 0.9094 0.0
N701 N 0.2533 0.27911 0.88868 0.0
C702 C 0.2247 0.22802 0.88674 0.0
C703 C 0.30128 0.28735 0.89056 0.0
N704 N 0.25226 0.20364 0.88767 0.0
C705 C 0.3007 0.2409 0.88997 0.0
C706 C 0.30025 0.42698 0.88855 0.0
O707 O 0.22067 0.38137 0.9068 0.0
O708 O 0.25108 0.32947 0.90371 0.0
O709 O 0.29501 0.38196 0.88807 0.0
O710 O 0.26227 0.43196 0.89109 0.0
O711 O 0.20839 0.32024 0.87825 0.0
H712 H 0.33344 0.32376 0.89297 0.0
H713 H 0.18325 0.20799 0.88553 0.0
O714 O 0.17575 0.36978 0.88174 0.0
O715 O 0.13311 0.31906 0.89747 0.0
O716 O 0.16018 0.2653 0.8939 0.0
C717 C 0.12384 0.27297 0.89658 0.0
H718 H 0.10585 0.464 0.90693 0.0
H719 H 0.33242 0.23446 0.89174 0.0
Co720 Co 0.80512 0.7352 0.72576 0.0
C721 C 0.82724 0.69409 0.71038 0.0
Co722 Co 0.83647 0.68383 0.72944 0.0
C723 C 0.80433 0.83079 0.72462 0.0
C724 C 0.73898 0.77036 0.71742 0.0
N725 N 0.78078 0.77964 0.72252 0.0
N726 N 0.77935 0.85399 0.72098 0.0
C727 C 0.73785 0.81603 0.7165 0.0
H728 H 0.83915 0.85074 0.7288 0.0
H729 H 0.71163 0.7331 0.71444 0.0
C730 C 0.81101 0.72756 0.74467 0.0
N731 N 0.86525 0.64235 0.73297 0.0
C732 C 0.87216 0.60648 0.72831 0.0
C733 C 0.89096 0.64914 0.74105 0.0
N734 N 0.90148 0.5913 0.73319 0.0
C735 C 0.91274 0.618 0.74123 0.0
C736 C 0.91279 0.78557 0.72707 0.0
O737 O 0.80243 0.75095 0.73819 0.0
O738 O 0.82519 0.6947 0.74258 0.0
O739 O 0.90333 0.7412 0.72976 0.0
O740 O 0.87521 0.79228 0.72485 0.0
O741 O 0.84555 0.67494 0.71624 0.0
H742 H 0.89551 0.67658 0.74641 0.0
H743 H 0.85781 0.59336 0.72135 0.0
O744 O 0.80702 0.72013 0.71328 0.0
O745 O 0.73539 0.67576 0.72665 0.0
O746 O 0.76975 0.62599 0.72901 0.0
C747 C 0.72987 0.63056 0.72782 0.0
H748 H 0.70941 0.82114 0.71266 0.0
H749 H 0.93552 0.61556 0.74686 0.0
Co750 Co 0.33228 0.11127 0.72378 0.0
C751 C 0.37091 0.17498 0.70866 0.0
Co752 Co 0.38208 0.19284 0.72786 0.0
C753 C 0.23882 0.01442 0.72315 0.0
C754 C 0.29763 0.0109 0.71517 0.0
N755 N 0.2889 0.04283 0.72057 0.0
N756 N 0.21557 0.96627 0.71953 0.0
C757 C 0.25244 0.96347 0.71455 0.0
H758 H 0.21969 0.02872 0.72767 0.0
H759 H 0.33414 0.02163 0.71181 0.0
C760 C 0.34128 0.12324 0.74283 0.0
N761 N 0.42384 0.26208 0.73126 0.0
C762 C 0.46877 0.29916 0.72746 0.0
C763 C 0.41292 0.28681 0.73797 0.0
N764 N 0.48597 0.34611 0.73149 0.0
C765 C 0.45085 0.33835 0.73811 0.0
C766 C 0.28026 0.16763 0.72558 0.0
O767 O 0.3183 0.09252 0.73617 0.0
O768 O 0.37295 0.17107 0.74102 0.0
O769 O 0.32446 0.20219 0.72841 0.0
O770 O 0.27403 0.12372 0.72314 0.0
O771 O 0.38984 0.2116 0.71467 0.0
H772 H 0.37915 0.26857 0.74242 0.0
H773 H 0.48795 0.29201 0.72174 0.0
O774 O 0.3457 0.12833 0.71136 0.0
O775 O 0.3917 0.10105 0.72437 0.0
O776 O 0.4403 0.18454 0.72719 0.0
C777 C 0.43651 0.14072 0.7257 0.0
H778 H 0.24678 0.93009 0.71059 0.0
H779 H 0.45285 0.36767 0.74282 0.0
Co780 Co 0.95725 0.26902 0.72204 0.0
C781 C 0.89296 0.23983 0.70701 0.0
Co782 Co 0.87555 0.23625 0.72624 0.0
C783 C 0.05371 0.2706 0.72172 0.0
C784 C 0.05872 0.33261 0.7134 0.0
N785 N 0.02617 0.29312 0.71894 0.0
N786 N 0.10176 0.29376 0.71807 0.0
C787 C 0.10545 0.33327 0.71288 0.0
H788 H 0.03885 0.23771 0.72639 0.0
H789 H 0.04883 0.35853 0.70983 0.0
C790 C 0.94556 0.26869 0.74107 0.0
N791 N 0.80629 0.20859 0.72959 0.0
C792 C 0.76891 0.2154 0.72562 0.0
C793 C 0.78182 0.17364 0.73642 0.0
N794 N 0.72206 0.18566 0.72966 0.0
C795 C 0.73015 0.15939 0.73646 0.0
C796 C 0.90191 0.16046 0.72471 0.0
O797 O 0.97611 0.2768 0.73439 0.0
O798 O 0.89743 0.25109 0.73934 0.0
O799 O 0.86696 0.16994 0.72729 0.0
O800 O 0.94532 0.1981 0.72207 0.0
O801 O 0.85677 0.22297 0.71309 0.0
H802 H 0.80033 0.159 0.74102 0.0
H803 H 0.77576 0.24094 0.71977 0.0
O804 O 0.93981 0.26217 0.70962 0.0
O805 O 0.96624 0.33926 0.72193 0.0
O806 O 0.88279 0.30198 0.72506 0.0
C807 C 0.92535 0.34261 0.72317 0.0
H808 H 0.13897 0.35981 0.70882 0.0
H809 H 0.70096 0.13239 0.74123 0.0
Co810 Co 0.32157 0.10135 0.13936 0.0
C811 C 0.36457 0.13687 0.12167 0.0
Co812 Co 0.37422 0.18563 0.13832 0.0
C813 C 0.23178 0.00416 0.13525 0.0
C814 C 0.28262 0.99384 0.14441 0.0
N815 N 0.27823 0.03023 0.13954 0.0
N816 N 0.20651 0.95331 0.13737 0.0
C817 C 0.23847 0.9463 0.14306 0.0
H818 H 0.21598 0.0222 0.1308 0.0
H819 H 0.31479 0.00166 0.14893 0.0
C820 C 0.33651 0.14821 0.15629 0.0
N821 N 0.41383 0.25736 0.13852 0.0
C822 C 0.46402 0.29111 0.1365 0.0
C823 C 0.39583 0.28691 0.14229 0.0
N824 N 0.47751 0.34043 0.13885 0.0
C825 C 0.43445 0.33752 0.14246 0.0
C826 C 0.27073 0.15581 0.13571 0.0
O827 O 0.31329 0.10398 0.1524 0.0
O828 O 0.36274 0.18819 0.1513 0.0
O829 O 0.31704 0.19252 0.13545 0.0
O830 O 0.26222 0.11032 0.13737 0.0
O831 O 0.38703 0.18192 0.12538 0.0
H832 H 0.35762 0.27224 0.14525 0.0
H833 H 0.49035 0.27946 0.13368 0.0
O834 O 0.33155 0.0981 0.12637 0.0
O835 O 0.38111 0.09412 0.14136 0.0
O836 O 0.4315 0.17903 0.14106 0.0
C837 C 0.42625 0.13413 0.14181 0.0
H838 H 0.22938 0.91004 0.14638 0.0
H839 H 0.4317 0.36917 0.14558 0.0
Co840 Co 0.94121 0.2457 0.13757 0.0
C841 C 0.90523 0.25656 0.12005 0.0
Co842 Co 0.85692 0.21307 0.13642 0.0
C843 C 0.03981 0.25212 0.13953 0.0
C844 C 0.0473 0.3228 0.13421 0.0
N845 N 0.01243 0.27597 0.13766 0.0
N846 N 0.09018 0.28144 0.13713 0.0
C847 C 0.09513 0.32629 0.13388 0.0
H848 H 0.02248 0.21299 0.14222 0.0
H849 H 0.0379 0.35111 0.13153 0.0
C850 C 0.89398 0.20842 0.15426 0.0
N851 N 0.78532 0.17915 0.13655 0.0
C852 C 0.7513 0.1958 0.13503 0.0
C853 C 0.7562 0.1302 0.13979 0.0
N854 N 0.7022 0.1589 0.13721 0.0
C855 C 0.70547 0.11768 0.14017 0.0
C856 C 0.88965 0.142 0.13291 0.0
O857 O 0.93847 0.23041 0.15046 0.0
O858 O 0.85439 0.19636 0.14926 0.0
O859 O 0.85223 0.15055 0.13306 0.0
O860 O 0.9349 0.17936 0.1346 0.0
O861 O 0.8601 0.23182 0.12365 0.0
H862 H 0.77121 0.10602 0.14231 0.0
H863 H 0.76266 0.23472 0.13274 0.0
O864 O 0.94422 0.26298 0.12475 0.0
O865 O 0.94626 0.31062 0.1405 0.0
O866 O 0.86154 0.27576 0.13968 0.0
C867 C 0.90603 0.31528 0.14094 0.0
H868 H 0.12992 0.35806 0.13089 0.0
H869 H 0.67408 0.08213 0.14302 0.0
Co870 Co 0.7993 0.72282 0.13773 0.0
C871 C 0.7893 0.67561 0.12021 0.0
Co872 Co 0.83189 0.67106 0.13674 0.0
C873 C 0.79338 0.81586 0.13878 0.0
C874 C 0.72232 0.75119 0.13396 0.0
N875 N 0.76923 0.76404 0.13747 0.0
N876 N 0.76421 0.83637 0.13593 0.0
C877 C 0.71911 0.79549 0.133 0.0
H878 H 0.8327 0.83836 0.14135 0.0
H879 H 0.69387 0.71279 0.13157 0.0
C880 C 0.83575 0.7138 0.15457 0.0
N881 N 0.86521 0.63285 0.13714 0.0
C882 C 0.84811 0.58202 0.13566 0.0
C883 C 0.91369 0.65215 0.14056 0.0
N884 N 0.88423 0.56911 0.13806 0.0
C885 C 0.92544 0.61339 0.14111 0.0
C886 C 0.90327 0.77447 0.13311 0.0
O887 O 0.81383 0.73609 0.15065 0.0
O888 O 0.84803 0.68608 0.14966 0.0
O889 O 0.89477 0.72849 0.13337 0.0
O890 O 0.86599 0.78248 0.13478 0.0
O891 O 0.81358 0.65484 0.12388 0.0
H892 H 0.93809 0.69144 0.14303 0.0
H893 H 0.80943 0.55489 0.1332 0.0
O894 O 0.78291 0.70819 0.1249 0.0
O895 O 0.73393 0.66293 0.1406 0.0
O896 O 0.7691 0.61334 0.13997 0.0
C897 C 0.72942 0.61805 0.14109 0.0
H898 H 0.68736 0.79757 0.12976 0.0
H899 H 0.96057 0.61715 0.14409 0.0
Co900 Co 0.87935 0.71004 0.63706 0.0
C901 C 0.90518 0.66328 0.62248 0.0
Co902 Co 0.91001 0.6591 0.64146 0.0
C903 C 0.84471 0.78876 0.63703 0.0
C904 C 0.82363 0.74048 0.62496 0.0
N905 N 0.85067 0.75076 0.63297 0.0
N906 N 0.81468 0.80182 0.63184 0.0
C907 C 0.80196 0.77156 0.62423 0.0
H908 H 0.86022 0.80495 0.6438 0.0
H909 H 0.81804 0.71063 0.62004 0.0
C910 C 0.8878 0.70306 0.6563 0.0
N911 N 0.93348 0.6144 0.64503 0.0
C912 C 0.91029 0.56385 0.64252 0.0
C913 C 0.97401 0.62212 0.65036 0.0
N914 N 0.9342 0.53945 0.64609 0.0
C915 C 0.97471 0.57605 0.65099 0.0
C916 C 0.98583 0.76328 0.63885 0.0
O917 O 0.86994 0.7214 0.65018 0.0
O918 O 0.90771 0.6761 0.65375 0.0
O919 O 0.9801 0.7183 0.64047 0.0
O920 O 0.94609 0.76771 0.63735 0.0
O921 O 0.91314 0.64147 0.62928 0.0
H922 H 1.00109 0.65869 0.6536 0.0
H923 H 0.87683 0.54535 0.63798 0.0
O924 O 0.89112 0.69676 0.62406 0.0
O925 O 0.81242 0.65277 0.63685 0.0
O926 O 0.8397 0.60235 0.64244 0.0
C927 C 0.80248 0.60882 0.63986 0.0
H928 H 0.77822 0.77153 0.61853 0.0
H929 H 0.00245 0.56983 0.65483 0.0
Co930 Co 0.33244 0.20092 0.63607 0.0
C931 C 0.37714 0.26896 0.62098 0.0
Co932 Co 0.38197 0.28291 0.63996 0.0
C933 C 0.24587 0.09483 0.63675 0.0
C934 C 0.30207 0.10528 0.62645 0.0
N935 N 0.29086 0.13126 0.63287 0.0
N936 N 0.22887 0.0471 0.63306 0.0
C937 C 0.26421 0.05365 0.62657 0.0
H938 H 0.22662 0.10299 0.64233 0.0
H939 H 0.33611 0.12268 0.62206 0.0
C940 C 0.34053 0.22042 0.6552 0.0
N941 N 0.42479 0.35154 0.64313 0.0
C942 C 0.47561 0.37982 0.64103 0.0
C943 C 0.41454 0.3836 0.64817 0.0
N944 N 0.49782 0.42802 0.64461 0.0
C945 C 0.45954 0.43096 0.64906 0.0
C946 C 0.27798 0.2536 0.63725 0.0
O947 O 0.32245 0.18338 0.64929 0.0
O948 O 0.36616 0.26684 0.6524 0.0
O949 O 0.32268 0.29326 0.6387 0.0
O950 O 0.27424 0.20954 0.63611 0.0
O951 O 0.39868 0.30066 0.62758 0.0
H952 H 0.37712 0.37296 0.65113 0.0
H953 H 0.49606 0.36535 0.6369 0.0
O954 O 0.34434 0.22152 0.62289 0.0
O955 O 0.38977 0.1913 0.63612 0.0
O956 O 0.43994 0.27026 0.64122 0.0
C957 C 0.43374 0.22605 0.639 0.0
H958 H 0.26252 0.02341 0.62215 0.0
H959 H 0.46406 0.46438 0.65286 0.0
Co960 Co 0.84016 0.16164 0.63489 0.0
C961 C 0.76959 0.13106 0.62004 0.0
Co962 Co 0.75826 0.12702 0.63914 0.0
C963 C 0.9464 0.18179 0.63538 0.0
C964 C 0.93486 0.2261 0.62491 0.0
N965 N 0.90959 0.18985 0.63151 0.0
N966 N 0.99367 0.21189 0.63151 0.0
C967 C 0.98646 0.23982 0.62491 0.0
H968 H 0.93884 0.15509 0.64107 0.0
H969 H 0.91699 0.24204 0.62045 0.0
C970 C 0.82324 0.15506 0.65413 0.0
N971 N 0.68959 0.10186 0.64249 0.0
C972 C 0.66139 0.12449 0.64024 0.0
C973 C 0.65821 0.06155 0.648 0.0
N974 N 0.61406 0.10059 0.64419 0.0
C975 C 0.61152 0.0605 0.64902 0.0
C976 C 0.79137 0.0547 0.6376 0.0
O977 O 0.85931 0.17317 0.64803 0.0
O978 O 0.77636 0.13244 0.65153 0.0
O979 O 0.74999 0.05703 0.63891 0.0
O980 O 0.83333 0.09593 0.63569 0.0
O981 O 0.73852 0.12083 0.62674 0.0
H982 H 0.66901 0.03549 0.65125 0.0
H983 H 0.67535 0.15814 0.63577 0.0
O984 O 0.81778 0.14869 0.62179 0.0
O985 O 0.84843 0.22798 0.6343 0.0
O986 O 0.76974 0.19773 0.63956 0.0
C987 C 0.81312 0.2363 0.63715 0.0
H988 H 0.0162 0.26765 0.62033 0.0
H989 H 0.57892 0.03339 0.6532 0.0
Co990 Co 0.33934 0.18755 0.22815 0.0
C991 C 0.38036 0.22074 0.21025 0.0
Co992 Co 0.38916 0.27197 0.22655 0.0
C993 C 0.25044 0.08229 0.22928 0.0
C994 C 0.3227 0.08587 0.22646 0.0
N995 N 0.30186 0.11582 0.2286 0.0
N996 N 0.23867 0.03277 0.22759 0.0
C997 C 0.28431 0.03522 0.22588 0.0
H998 H 0.2222 0.09436 0.23055 0.0
H999 H 0.36297 0.10009 0.22474 0.0
C1000 C 0.34319 0.23965 0.24411 0.0
N1001 N 0.43081 0.34297 0.2257 0.0
C1002 C 0.4797 0.36671 0.2224 0.0
C1003 C 0.42545 0.38099 0.22971 0.0
N1004 N 0.50601 0.41763 0.22448 0.0
C1005 C 0.47195 0.42707 0.22902 0.0
C1006 C 0.28508 0.23515 0.22291 0.0
O1007 O 0.32311 0.19401 0.24071 0.0
O1008 O 0.37569 0.27824 0.23931 0.0
O1009 O 0.32945 0.27614 0.22341 0.0
O1010 O 0.28107 0.19113 0.22433 0.0
O1011 O 0.4007 0.26575 0.2138 0.0
H1012 H 0.39146 0.37489 0.23349 0.0
H1013 H 0.49733 0.346 0.21934 0.0
O1014 O 0.35431 0.18156 0.21543 0.0
O1015 O 0.39728 0.18437 0.23218 0.0
O1016 O 0.44931 0.26688 0.22975 0.0
C1017 C 0.44249 0.22301 0.23219 0.0
H1018 H 0.28954 0.00336 0.22367 0.0
H1019 H 0.48093 0.4638 0.23213 0.0
Co1020 Co 0.85391 0.16139 0.22579 0.0
C1021 C 0.81822 0.1693 0.2081 0.0
Co1022 Co 0.76968 0.12982 0.22472 0.0
C1023 C 0.9585 0.17433 0.22712 0.0
C1024 C 0.95556 0.24094 0.22232 0.0
N1025 N 0.92544 0.19229 0.22561 0.0
N1026 N 0.00797 0.21028 0.2249 0.0
C1027 C 0.00577 0.25202 0.22189 0.0
H1028 H 0.94621 0.13533 0.22949 0.0
H1029 H 0.94154 0.26606 0.21985 0.0
C1030 C 0.80445 0.116 0.24214 0.0
N1031 N 0.69904 0.10391 0.22448 0.0
C1032 C 0.67678 0.13149 0.2217 0.0
C1033 C 0.66111 0.06206 0.22888 0.0
N1034 N 0.62717 0.10998 0.2245 0.0
C1035 C 0.6168 0.06592 0.22896 0.0
C1036 C 0.80069 0.0586 0.22067 0.0
O1037 O 0.8496 0.1406 0.23852 0.0
O1038 O 0.76554 0.11032 0.23748 0.0
O1039 O 0.761 0.06402 0.2214 0.0
O1040 O 0.84569 0.09725 0.22213 0.0
O1041 O 0.77373 0.14736 0.21187 0.0
H1042 H 0.66657 0.03319 0.23248 0.0
H1043 H 0.69817 0.16956 0.21853 0.0
O1044 O 0.85751 0.18013 0.21307 0.0
O1045 O 0.86196 0.22551 0.22951 0.0
O1046 O 0.77932 0.19697 0.22808 0.0
C1047 C 0.82459 0.23418 0.22978 0.0
H1048 H 0.03758 0.28722 0.21903 0.0
H1049 H 0.581 0.04027 0.23255 0.0
Co1050 Co 0.88238 0.71136 0.22693 0.0
C1051 C 0.87366 0.67736 0.20869 0.0
Co1052 Co 0.91047 0.65615 0.22499 0.0
C1053 C 0.8645 0.79652 0.22347 0.0
C1054 C 0.82626 0.75372 0.23575 0.0
N1055 N 0.85803 0.75648 0.22882 0.0
N1056 N 0.83738 0.81828 0.22675 0.0
C1057 C 0.81335 0.7916 0.23447 0.0
H1058 H 0.88777 0.80877 0.21721 0.0
H1059 H 0.81288 0.72551 0.24132 0.0
C1060 C 0.92495 0.69431 0.24293 0.0
N1061 N 0.93327 0.6091 0.22326 0.0
C1062 C 0.91348 0.5617 0.22721 0.0
C1063 C 0.97167 0.61349 0.21768 0.0
N1064 N 0.93776 0.53632 0.2243 0.0
C1065 C 0.97468 0.56884 0.21834 0.0
C1066 C 0.98544 0.75908 0.22252 0.0
O1067 O 0.90316 0.71842 0.23967 0.0
O1068 O 0.92921 0.66185 0.2378 0.0
O1069 O 0.97828 0.71313 0.22256 0.0
O1070 O 0.94753 0.76622 0.22403 0.0
O1071 O 0.89374 0.65207 0.21215 0.0
H1072 H 0.99535 0.64659 0.2133 0.0
H1073 H 0.88181 0.54597 0.23214 0.0
O1074 O 0.86333 0.70509 0.21404 0.0
O1075 O 0.81687 0.65681 0.22991 0.0
O1076 O 0.84136 0.59968 0.22746 0.0
C1077 C 0.80624 0.61012 0.22964 0.0
H1078 H 0.78884 0.79947 0.23894 0.0
H1079 H 1.00085 0.56028 0.21453 0.0
H1080 H 0.37262 0.05287 0.11711 0.0
H1081 H 0.40222 0.20095 0.1065 0.0
H1082 H 0.43819 0.18646 0.09222 0.0
H1083 H 0.45995 0.13123 0.08274 0.0
H1084 H 0.43497 0.98526 0.09364 0.0
H1085 H 0.39953 0.99996 0.10797 0.0
C1086 C 0.38634 0.0817 0.11161 0.0
C1087 C 0.38352 0.12744 0.11275 0.0
C1088 C 0.40855 0.07382 0.10358 0.0
C1089 C 0.40317 0.16519 0.10572 0.0
C1090 C 0.42398 0.15698 0.0976 0.0
C1091 C 0.44718 0.10273 0.08828 0.0
C1092 C 0.44994 0.05699 0.08709 0.0
C1093 C 0.42684 0.11147 0.09646 0.0
C1094 C 0.43367 0.02084 0.09439 0.0
C1095 C 0.41293 0.02906 0.10254 0.0
H1096 H 0.98853 0.34912 0.11541 0.0
H1097 H 0.84038 0.22955 0.10502 0.0
H1098 H 0.85403 0.27923 0.09067 0.0
H1099 H 0.90889 0.35522 0.081 0.0
H1100 H 0.05543 0.47703 0.09154 0.0
H1101 H 0.04099 0.42846 0.10609 0.0
C1102 C 0.95946 0.33368 0.10996 0.0
C1103 C 0.91395 0.28504 0.11117 0.0
C1104 C 0.96695 0.36324 0.10187 0.0
C1105 C 0.87592 0.2664 0.10419 0.0
C1106 C 0.88366 0.29494 0.09602 0.0
C1107 C 0.93753 0.37152 0.08652 0.0
C1108 C 0.98338 0.41967 0.08518 0.0
C1109 C 0.92904 0.34328 0.09479 0.0
C1110 C 0.01974 0.44038 0.09242 0.0
C1111 C 0.01169 0.4123 0.10069 0.0
H1112 H 0.69233 0.58643 0.08064 0.0
H1113 H 0.57413 0.61677 0.09106 0.0
H1114 H 0.62224 0.64868 0.10568 0.0
H1115 H 0.69934 0.67084 0.11523 0.0
H1116 H 0.81513 0.63602 0.1052 0.0
H1117 H 0.76668 0.60335 0.0906 0.0
C1118 C 0.6768 0.59963 0.08613 0.0
C1119 C 0.62964 0.59939 0.08473 0.0
C1120 C 0.70462 0.61773 0.09452 0.0
C1121 C 0.60999 0.61621 0.09196 0.0
C1122 C 0.63776 0.63485 0.10029 0.0
C1123 C 0.71429 0.65653 0.10981 0.0
C1124 C 0.76148 0.65692 0.11121 0.0
C1125 C 0.68544 0.63647 0.10158 0.0
C1126 C 0.77937 0.63675 0.10425 0.0
C1127 C 0.75155 0.61794 0.09592 0.0
H1128 H 0.05822 0.38711 0.45147 0.0
H1129 H 0.08877 0.5392 0.4431 0.0
H1130 H 0.12217 0.52923 0.42817 0.0
H1131 H 0.1405 0.47669 0.41737 0.0
H1132 H 0.11454 0.32631 0.42579 0.0
H1133 H 0.08267 0.33663 0.44094 0.0
C1134 C 0.07186 0.41789 0.44634 0.0
C1135 C 0.07006 0.46353 0.44832 0.0
C1136 C 0.09246 0.41244 0.43786 0.0
C1137 C 0.08921 0.5036 0.44171 0.0
C1138 C 0.10847 0.49795 0.43319 0.0
C1139 C 0.12838 0.44628 0.42255 0.0
C1140 C 0.12975 0.40062 0.42043 0.0
C1141 C 0.11012 0.45254 0.43118 0.0
C1142 C 0.11433 0.36194 0.42726 0.0
C1143 C 0.0956 0.36767 0.43588 0.0
H1144 H 0.67477 0.69346 0.44944 0.0
H1145 H 0.5284 0.57254 0.43868 0.0
H1146 H 0.54152 0.62257 0.42445 0.0
H1147 H 0.5937 0.70015 0.41515 0.0
H1148 H 0.7386 0.82405 0.42582 0.0
H1149 H 0.72635 0.77406 0.44014 0.0
C1150 C 0.64624 0.67784 0.4439 0.0
C1151 C 0.60111 0.62879 0.44501 0.0
C1152 C 0.65328 0.70776 0.43584 0.0
C1153 C 0.56365 0.60974 0.43792 0.0
C1154 C 0.57101 0.6385 0.42982 0.0
C1155 C 0.62265 0.71657 0.42062 0.0
C1156 C 0.66718 0.76583 0.41939 0.0
C1157 C 0.61545 0.68758 0.42874 0.0
C1158 C 0.70385 0.7865 0.4266 0.0
C1159 C 0.69704 0.75764 0.43475 0.0
H1160 H 0.35896 0.92172 0.41346 0.0
H1161 H 0.24387 0.95681 0.42375 0.0
H1162 H 0.29301 0.98898 0.43834 0.0
H1163 H 0.37152 0.01111 0.44776 0.0
H1164 H 0.48458 0.97358 0.43723 0.0
H1165 H 0.43392 0.93949 0.42297 0.0
C1166 C 0.34418 0.93591 0.41893 0.0
C1167 C 0.29782 0.93702 0.41751 0.0
C1168 C 0.37296 0.95496 0.42714 0.0
C1169 C 0.27908 0.95506 0.4247 0.0
C1170 C 0.30757 0.97404 0.43298 0.0
C1171 C 0.38533 0.99605 0.44228 0.0
C1172 C 0.43239 0.99584 0.44346 0.0
C1173 C 0.35515 0.97516 0.43419 0.0
C1174 C 0.44898 0.9748 0.43644 0.0
C1175 C 0.41984 0.95501 0.42832 0.0
H1176 H 0.58096 0.91057 0.95149 0.0
H1177 H 0.59534 0.05042 0.93961 0.0
H1178 H 0.63066 0.03489 0.92527 0.0
H1179 H 0.6599 0.98198 0.91636 0.0
H1180 H 0.64315 0.8421 0.92872 0.0
H1181 H 0.60771 0.85817 0.94279 0.0
C1182 C 0.59154 0.93778 0.94577 0.0
C1183 C 0.58561 0.98178 0.94665 0.0
C1184 C 0.61246 0.92907 0.93771 0.0
C1185 C 0.59904 0.01607 0.9391 0.0
C1186 C 0.61979 0.00743 0.93095 0.0
C1187 C 0.64925 0.9556 0.92221 0.0
C1188 C 0.655 0.91128 0.92157 0.0
C1189 C 0.62743 0.96441 0.93024 0.0
C1190 C 0.63967 0.87664 0.92908 0.0
C1191 C 0.61906 0.88563 0.9371 0.0
H1192 H 0.04637 0.69373 0.91356 0.0
H1193 H 0.18338 0.81996 0.92606 0.0
H1194 H 0.16614 0.77049 0.94045 0.0
H1195 H 0.11419 0.69165 0.94931 0.0
H1196 H 0.97823 0.56251 0.93715 0.0
H1197 H 0.9937 0.61228 0.92267 0.0
C1198 C 0.0718 0.7106 0.91951 0.0
C1199 C 0.11567 0.76089 0.91882 0.0
C1200 C 0.06248 0.68106 0.92772 0.0
C1201 C 0.14917 0.7817 0.92647 0.0
C1202 C 0.13951 0.75328 0.93467 0.0
C1203 C 0.08774 0.67402 0.94351 0.0
C1204 C 0.04492 0.62327 0.94435 0.0
C1205 C 0.09668 0.70285 0.93533 0.0
C1206 C 0.01163 0.60125 0.93669 0.0
C1207 C 0.02027 0.62994 0.92845 0.0
H1208 H 0.33468 0.4364 0.94958 0.0
H1209 H 0.46809 0.43599 0.93797 0.0
H1210 H 0.42122 0.40279 0.92321 0.0
H1211 H 0.3412 0.37304 0.91366 0.0
H1212 H 0.21069 0.37827 0.92546 0.0
H1213 H 0.25718 0.40934 0.94018 0.0
C1214 C 0.35382 0.4292 0.94383 0.0
C1215 C 0.40496 0.43858 0.94492 0.0
C1216 C 0.32669 0.41014 0.93544 0.0
C1217 C 0.42899 0.42944 0.93733 0.0
C1218 C 0.40198 0.41005 0.92892 0.0
C1219 C 0.32274 0.38017 0.91952 0.0
C1220 C 0.27207 0.37237 0.91854 0.0
C1221 C 0.35056 0.39979 0.92792 0.0
C1222 C 0.24926 0.38333 0.92608 0.0
C1223 C 0.27598 0.4014 0.93448 0.0
H1224 H 0.90158 0.57467 0.61718 0.0
H1225 H 0.93795 0.72543 0.60687 0.0
H1226 H 0.97391 0.71 0.59265 0.0
H1227 H 0.99959 0.65542 0.58365 0.0
H1228 H 0.9605 0.50382 0.59396 0.0
H1229 H 0.92187 0.5183 0.60784 0.0
C1230 C 0.91676 0.60402 0.61177 0.0
C1231 C 0.9172 0.6513 0.6131 0.0
C1232 C 0.93789 0.59511 0.60374 0.0
C1233 C 0.93665 0.68861 0.60599 0.0
C1234 C 0.95779 0.67998 0.59792 0.0
C1235 C 0.9831 0.62576 0.58899 0.0
C1236 C 0.98399 0.57896 0.58788 0.0
C1237 C 0.95966 0.63384 0.59683 0.0
C1238 C 0.96099 0.54033 0.59471 0.0
C1239 C 0.93865 0.54852 0.60261 0.0
H1240 H 0.3837 0.35861 0.58088 0.0
H1241 H 0.53543 0.47477 0.59051 0.0
H1242 H 0.5215 0.42648 0.60503 0.0
H1243 H 0.4653 0.35305 0.61513 0.0
H1244 H 0.31482 0.23471 0.60541 0.0
H1245 H 0.32971 0.28136 0.59062 0.0
C1246 C 0.41355 0.37362 0.5862 0.0
C1247 C 0.46018 0.42099 0.58471 0.0
C1248 C 0.40578 0.34482 0.59441 0.0
C1249 C 0.49906 0.43896 0.59154 0.0
C1250 C 0.49115 0.41119 0.59981 0.0
C1251 C 0.43591 0.337 0.60973 0.0
C1252 C 0.38883 0.29042 0.61139 0.0
C1253 C 0.44463 0.36424 0.60133 0.0
C1254 C 0.35147 0.27008 0.60429 0.0
C1255 C 0.3598 0.29713 0.59588 0.0
H1256 H 0.68241 0.1296 0.61427 0.0
H1257 H 0.80446 0.10343 0.60452 0.0
H1258 H 0.75746 0.06928 0.58981 0.0
H1259 H 0.67932 0.04272 0.58013 0.0
H1260 H 0.55969 0.0731 0.58967 0.0
H1261 H 0.60783 0.10919 0.60418 0.0
C1262 C 0.69913 0.11696 0.60889 0.0
C1263 C 0.74694 0.11889 0.61052 0.0
C1264 C 0.6718 0.0973 0.60051 0.0
C1265 C 0.76812 0.1028 0.60343 0.0
C1266 C 0.74091 0.08277 0.59507 0.0
C1267 C 0.66352 0.05679 0.58543 0.0
C1268 C 0.61521 0.05403 0.58392 0.0
C1269 C 0.69224 0.0789 0.59362 0.0
C1270 C 0.59622 0.07405 0.59072 0.0
C1271 C 0.6239 0.09488 0.59898 0.0
H1272 H 0.81592 0.81495 0.7513 0.0
H1273 H 0.78018 0.66127 0.75967 0.0
H1274 H 0.7486 0.67338 0.7747 0.0
H1275 H 0.72696 0.72639 0.78511 0.0
H1276 H 0.76754 0.88172 0.7769 0.0
H1277 H 0.80085 0.87006 0.76207 0.0
C1278 C 0.80179 0.78424 0.75645 0.0
C1279 C 0.80025 0.73711 0.75434 0.0
C1280 C 0.78375 0.79155 0.76503 0.0
C1281 C 0.78221 0.69798 0.76114 0.0
C1282 C 0.76366 0.70477 0.76969 0.0
C1283 C 0.74277 0.75752 0.78004 0.0
C1284 C 0.74375 0.80456 0.78201 0.0
C1285 C 0.76333 0.75103 0.77164 0.0
C1286 C 0.76577 0.84506 0.7755 0.0
C1287 C 0.78497 0.83842 0.76704 0.0
H1288 H 0.34298 0.03456 0.78299 0.0
H1289 H 0.20142 0.90657 0.77212 0.0
H1290 H 0.2128 0.95398 0.75766 0.0
H1291 H 0.26136 0.03121 0.74822 0.0
H1292 H 0.40243 0.16164 0.75864 0.0
H1293 H 0.39204 0.11464 0.7733 0.0
C1294 C 0.31529 0.01683 0.77736 0.0
C1295 C 0.27189 0.96657 0.77854 0.0
C1296 C 0.3213 0.0452 0.76911 0.0
C1297 C 0.2354 0.94474 0.77133 0.0
C1298 C 0.24168 0.97202 0.76309 0.0
C1299 C 0.28993 0.04979 0.7537 0.0
C1300 C 0.33274 0.10005 0.7523 0.0
C1301 C 0.28412 0.02232 0.76195 0.0
C1302 C 0.36888 0.12332 0.75954 0.0
C1303 C 0.3632 0.09613 0.76788 0.0
H1304 H 0.03888 0.28336 0.74612 0.0
H1305 H 0.90635 0.28776 0.75716 0.0
H1306 H 0.95303 0.32205 0.77193 0.0
H1307 H 0.03276 0.3518 0.78155 0.0
H1308 H 0.16294 0.34448 0.77011 0.0
H1309 H 0.11631 0.31177 0.75545 0.0
C1310 C 0.01981 0.29164 0.75174 0.0
C1311 C 0.96906 0.28308 0.7505 0.0
C1312 C 0.04701 0.31188 0.76005 0.0
C1313 C 0.94511 0.29357 0.75793 0.0
C1314 C 0.97207 0.31368 0.76633 0.0
C1315 C 0.05121 0.34404 0.77577 0.0
C1316 C 0.10174 0.35153 0.77683 0.0
C1317 C 0.02335 0.32357 0.76743 0.0
C1318 C 0.12453 0.33975 0.7694 0.0
C1319 C 0.0977 0.32063 0.76106 0.0
H1320 H 0.24646 0.24163 0.28297 0.0
H1321 H 0.278 0.39185 0.27321 0.0
H1322 H 0.31206 0.378 0.2586 0.0
H1323 H 0.33726 0.3248 0.24905 0.0
H1324 H 0.30291 0.17371 0.25887 0.0
H1325 H 0.26642 0.18676 0.27316 0.0
C1326 C 0.26024 0.27122 0.27761 0.0
C1327 C 0.25987 0.31788 0.27919 0.0
C1328 C 0.28023 0.26321 0.26935 0.0
C1329 C 0.27741 0.3555 0.27214 0.0
C1330 C 0.29745 0.34778 0.26384 0.0
C1331 C 0.32228 0.29497 0.25437 0.0
C1332 C 0.3238 0.24871 0.253 0.0
C1333 C 0.30006 0.30223 0.26246 0.0
C1334 C 0.30281 0.20982 0.25982 0.0
C1335 C 0.2817 0.21718 0.26796 0.0
H1336 H 0.80214 0.02298 0.28177 0.0
H1337 H 0.65382 0.90098 0.27194 0.0
H1338 H 0.6675 0.94729 0.25713 0.0
H1339 H 0.72027 0.02469 0.2473 0.0
H1340 H 0.87035 0.14397 0.25701 0.0
H1341 H 0.85704 0.0968 0.27164 0.0
C1342 C 0.7729 0.00615 0.27636 0.0
C1343 C 0.72681 0.95855 0.27798 0.0
C1344 C 0.78107 0.03301 0.26792 0.0
C1345 C 0.6897 0.93721 0.27086 0.0
C1346 C 0.69736 0.964 0.26243 0.0
C1347 C 0.74987 0.04057 0.25266 0.0
C1348 C 0.79589 0.08846 0.25115 0.0
C1349 C 0.74252 0.01237 0.26095 0.0
C1350 C 0.83447 0.10767 0.25804 0.0
C1351 C 0.8269 0.08057 0.26639 0.0
H1352 H 0.01522 0.69823 0.24796 0.0
H1353 H 0.89672 0.72886 0.25808 0.0
H1354 H 0.94527 0.76361 0.27253 0.0
H1355 H 0.02101 0.78576 0.2822 0.0
H1356 H 0.14207 0.75871 0.27216 0.0
H1357 H 0.09358 0.72337 0.25763 0.0
C1358 C 0.99969 0.71174 0.25341 0.0
C1359 C 0.95181 0.70997 0.25204 0.0
C1360 C 0.02877 0.73328 0.2616 0.0
C1361 C 0.933 0.72914 0.25902 0.0
C1362 C 0.96095 0.74934 0.26725 0.0
C1363 C 0.03719 0.77249 0.27682 0.0
C1364 C 0.08525 0.77488 0.2783 0.0
C1365 C 0.00895 0.75189 0.26858 0.0
C1366 C 0.1055 0.75778 0.2712 0.0
C1367 C 0.07747 0.73708 0.26293 0.0
H1368 H 0.47621 0.05188 0.02988 0.0
H1369 H 0.5378 0.95204 0.03702 0.0
H1370 H 0.55962 0.94992 0.02067 0.0
H1371 H 0.56179 0.97719 1.00447 0.0
H1372 H 0.50016 0.07719 0.99746 0.0
H1373 H 0.47818 0.07888 1.01378 0.0
C1374 C 0.49425 0.02938 0.0279 0.0
C1375 C 0.50526 0.00199 0.03471 0.0
C1376 C 0.50701 0.02876 0.01854 0.0
C1377 C 0.52872 0.97326 0.03195 0.0
C1378 C 0.54135 0.97224 0.02261 0.0
C1379 C 0.54375 0.99963 1.00649 0.0
C1380 C 0.5328 0.02725 0.99972 0.0
C1381 C 0.53089 1.00007 0.01586 0.0
C1382 C 0.50917 0.05577 1.0025 0.0
C1383 C 0.49647 0.0566 1.01183 0.0
H1384 H 0.05149 0.59672 1.0019 0.0
H1385 H 0.95704 0.43489 0.99447 0.0
H1386 H 0.95659 0.41027 1.01074 0.0
H1387 H 0.98282 0.435 0.02701 0.0
H1388 H 0.0773 0.59711 0.03429 0.0
H1389 H 0.07833 0.6213 0.01802 0.0
C1390 C 0.03054 0.55595 1.00381 0.0
C1391 C 0.00406 0.51765 0.99695 0.0
C1392 C 0.03081 0.54219 1.01312 0.0
C1393 C 0.97753 0.46513 0.99959 0.0
C1394 C 0.97741 0.45108 1.00889 0.0
C1395 C 0.00395 0.47568 0.02505 0.0
C1396 C 0.03006 0.51424 0.03189 0.0
C1397 C 0.00399 0.48932 0.0157 0.0
C1398 C 0.057 0.56667 0.02919 0.0
C1399 C 0.05745 0.58051 0.0199 0.0
H1400 H 0.59884 0.57157 0.02711 0.0
H1401 H 0.4393 0.51648 0.03476 0.0
H1402 H 0.41247 0.49025 0.01863 0.0
H1403 H 0.43431 0.48152 1.00252 0.0
H1404 H 0.59398 0.53644 0.99498 0.0
H1405 H 0.62074 0.56374 1.01104 0.0
C1406 C 0.55812 0.55409 0.02528 0.0
C1407 C 0.52108 0.54607 0.03217 0.0
C1408 C 0.54302 0.53863 0.01606 0.0
C1409 C 0.4686 0.52329 0.02962 0.0
C1410 C 0.45326 0.50808 0.02041 0.0
C1411 C 0.47502 0.49925 1.00438 0.0
C1412 C 0.51213 0.50666 0.99754 0.0
C1413 C 0.49012 0.51519 1.0136 0.0
C1414 C 0.56464 0.53006 1.00009 0.0
C1415 C 0.57995 0.54581 1.00926 0.0
H1416 H 0.98827 0.4656 0.53521 0.0
H1417 H 0.10441 0.62776 0.53263 0.0
H1418 H 0.10043 0.6197 0.51573 0.0
H1419 H 0.06346 0.56725 0.50171 0.0
H1420 H 0.94766 0.40495 0.50415 0.0
H1421 H 0.9514 0.41277 0.52109 0.0
C1422 C 0.01316 0.49909 0.53096 0.0
C1423 C 0.04683 0.54721 0.53521 0.0
C1424 C 0.01014 0.49438 0.52122 0.0
C1425 C 0.07833 0.59025 0.52957 0.0
C1426 C 0.07587 0.58574 0.51989 0.0
C1427 C 0.03859 0.53359 0.50592 0.0
C1428 C 0.00504 0.4856 0.50163 0.0
C1429 C 0.04161 0.53815 0.51565 0.0
C1430 C 0.97359 0.44239 0.50725 0.0
C1431 C 0.97595 0.44678 0.51694 0.0
H1432 H 0.4689 0.51251 0.49774 0.0
H1433 H 0.6271 0.54521 0.50037 0.0
H1434 H 0.61766 0.53693 0.5172 0.0
H1435 H 0.5655 0.52196 0.53117 0.0
H1436 H 0.40684 0.48777 0.52878 0.0
H1437 H 0.41572 0.49568 0.51185 0.0
C1438 C 0.50117 0.51734 0.50199 0.0
C1439 C 0.54866 0.52941 0.49777 0.0
C1440 C 0.49563 0.51289 0.51171 0.0
C1441 C 0.59011 0.53585 0.5034 0.0
C1442 C 0.58484 0.53133 0.51304 0.0
C1443 C 0.53286 0.51656 0.52697 0.0
C1444 C 0.48565 0.50465 0.53126 0.0
C1445 C 0.53799 0.52034 0.51727 0.0
C1446 C 0.44367 0.49719 0.52567 0.0
C1447 C 0.44869 0.50153 0.51599 0.0
H1448 H 0.52559 0.05711 0.52985 0.0
H1449 H 0.5579 0.93118 0.52796 0.0
H1450 H 0.55498 0.93442 0.51095 0.0
H1451 H 0.5426 0.97315 0.49659 0.0
H1452 H 0.51213 0.10035 0.49891 0.0
H1453 H 0.5158 0.09685 0.51577 0.0
C1454 C 0.53166 0.03 0.52575 0.0
C1455 C 0.54146 0.99359 0.5302 0.0
C1456 C 0.53085 0.03273 0.51602 0.0
C1457 C 0.54994 0.95937 0.52473 0.0
C1458 C 0.54849 0.96138 0.515 0.0
C1459 C 0.53738 1.00049 0.50078 0.0
C1460 C 0.52711 0.037 0.49645 0.0
C1461 C 0.53914 0.99807 0.51056 0.0
C1462 C 0.52006 0.07184 0.50202 0.0
C1463 C 0.52194 0.06977 0.51168 0.0
H1464 H 0.16021 0.37654 0.33236 0.0
H1465 H 0.29652 0.36242 0.33605 0.0
H1466 H 0.28546 0.35882 0.35285 0.0
H1467 H 0.23597 0.3577 0.36663 0.0
H1468 H 0.0997 0.37193 0.36297 0.0
H1469 H 0.11132 0.37659 0.34617 0.0
C1470 C 0.18786 0.37356 0.33686 0.0
C1471 C 0.22912 0.36995 0.33296 0.0
C1472 C 0.1808 0.37053 0.34657 0.0
C1473 C 0.2643 0.36527 0.33888 0.0
C1474 C 0.25792 0.36291 0.3485 0.0
C1475 C 0.20856 0.36116 0.36213 0.0
C1476 C 0.16698 0.36416 0.36605 0.0
C1477 C 0.2159 0.36475 0.35244 0.0
C1478 C 0.13213 0.36948 0.36013 0.0
C1479 C 0.13881 0.37241 0.35051 0.0
H1480 H 0.66006 0.7913 0.36225 0.0
H1481 H 0.75569 0.95445 0.36866 0.0
H1482 H 0.75722 0.97557 0.35215 0.0
H1483 H 0.73136 0.94742 0.33599 0.0
H1484 H 0.63579 0.78403 0.32972 0.0
H1485 H 0.63399 0.76331 0.34622 0.0
C1486 C 0.68145 0.83164 0.36008 0.0
C1487 C 0.70791 0.87133 0.36673 0.0
C1488 C 0.68189 0.84335 0.35063 0.0
C1489 C 0.73516 0.92319 0.36373 0.0
C1490 C 0.73591 0.93522 0.35429 0.0
C1491 C 0.70989 0.90718 0.33821 0.0
C1492 C 0.6836 0.86724 0.33159 0.0
C1493 C 0.70933 0.89558 0.34769 0.0
C1494 C 0.65622 0.81547 0.33464 0.0
C1495 C 0.65531 0.80363 0.34407 0.0
H1496 H 0.23795 0.90112 0.33025 0.0
H1497 H 0.11668 0.74346 0.33513 0.0
H1498 H 0.11995 0.76029 0.3518 0.0
H1499 H 0.15583 0.82072 0.36503 0.0
H1500 H 0.27744 0.97829 0.36021 0.0
H1501 H 0.27459 0.96139 0.34354 0.0
C1502 C 0.2134 0.87025 0.33502 0.0
C1503 C 0.17796 0.82091 0.33154 0.0
C1504 C 0.2143 0.88071 0.34458 0.0
C1505 C 0.14496 0.78154 0.33772 0.0
C1506 C 0.1463 0.7913 0.34723 0.0
C1507 C 0.18068 0.85153 0.36028 0.0
C1508 C 0.21592 0.90091 0.36377 0.0
C1509 C 0.1801 0.84101 0.35073 0.0
C1510 C 0.24931 0.94018 0.35761 0.0
C1511 C 0.24818 0.93038 0.3481 0.0
H1512 H 0.65536 0.74985 0.83931 0.0
H1513 H 0.68327 0.90319 0.83253 0.0
H1514 H 0.69264 0.9261 0.8489 0.0
H1515 H 0.69749 0.9049 0.86507 0.0
H1516 H 0.66737 0.75163 0.87239 0.0
H1517 H 0.65504 0.72663 0.85594 0.0
C1518 C 0.66231 0.78777 0.84146 0.0
C1519 C 0.66862 0.82473 0.83471 0.0
C1520 C 0.6685 0.80119 0.85097 0.0
C1521 C 0.67833 0.87404 0.83758 0.0
C1522 C 0.68406 0.88737 0.84695 0.0
C1523 C 0.68875 0.86616 0.86307 0.0
C1524 C 0.68433 0.83052 0.86992 0.0
C1525 C 0.6804 0.85174 0.85368 0.0
C1526 C 0.67162 0.78002 0.86722 0.0
C1527 C 0.66425 0.76561 0.85783 0.0
H1528 H 0.12106 0.82583 0.86158 0.0
H1529 H 0.28251 0.91108 0.86955 0.0
H1530 H 0.30817 0.9244 0.85321 0.0
H1531 H 0.28472 0.91139 0.83654 0.0
H1532 H 0.12285 0.82509 0.82878 0.0
H1533 H 0.09776 0.81222 0.84508 0.0
C1534 C 0.16187 0.84777 0.85975 0.0
C1535 C 0.1997 0.8677 0.86681 0.0
C1536 C 0.17644 0.85461 0.85034 0.0
C1537 C 0.25246 0.89547 0.86428 0.0
C1538 C 0.26723 0.90293 0.85492 0.0
C1539 C 0.24401 0.88932 0.83842 0.0
C1540 C 0.20585 0.86916 0.83141 0.0
C1541 C 0.22958 0.88237 0.84787 0.0
C1542 C 0.15319 0.84106 0.834 0.0
C1543 C 0.13867 0.83379 0.84334 0.0
H1544 H 0.13827 0.39568 0.83538 0.0
H1545 H 0.21628 0.31162 0.82779 0.0
H1546 H 0.22619 0.29687 0.84414 0.0
H1547 H 0.21347 0.30821 0.86066 0.0
H1548 H 0.13508 0.39185 0.86828 0.0
H1549 H 0.12415 0.40568 0.85193 0.0
C1550 C 0.15772 0.37441 0.8373 0.0
C1551 C 0.17672 0.35511 0.83034 0.0
C1552 C 0.16286 0.36548 0.84675 0.0
C1553 C 0.20134 0.32711 0.83298 0.0
C1554 C 0.20695 0.31848 0.84234 0.0
C1555 C 0.19355 0.32903 0.85875 0.0
C1556 C 0.17507 0.3488 0.86573 0.0
C1557 C 0.18776 0.33736 0.8493 0.0
C1558 C 0.14963 0.37601 0.86309 0.0
C1559 C 0.14352 0.38419 0.85372 0.0
H1560 H 0.90906 0.70662 0.69988 0.0
H1561 H 0.75067 0.67304 0.69812 0.0
H1562 H 0.75603 0.67799 0.68119 0.0
H1563 H 0.8062 0.69247 0.66671 0.0
H1564 H 0.96485 0.72685 0.66853 0.0
H1565 H 0.95957 0.72248 0.68546 0.0
C1566 C 0.87554 0.69934 0.69576 0.0
C1567 C 0.82931 0.68852 0.70021 0.0
C1568 C 0.87938 0.70385 0.686 0.0
C1569 C 0.78652 0.68072 0.69481 0.0
C1570 C 0.78968 0.68406 0.68513 0.0
C1571 C 0.83983 0.70026 0.67085 0.0
C1572 C 0.88603 0.71077 0.6664 0.0
C1573 C 0.83612 0.69628 0.68062 0.0
C1574 C 0.92901 0.71932 0.67183 0.0
C1575 C 0.92589 0.71627 0.68151 0.0
H1576 H 0.36085 0.15486 0.66511 0.0
H1577 H 0.31598 0.2713 0.66789 0.0
H1578 H 0.32663 0.27227 0.68475 0.0
H1579 H 0.35032 0.24087 0.6988 0.0
H1580 H 0.39591 0.12497 0.69595 0.0
H1581 H 0.38501 0.12393 0.67911 0.0
C1582 C 0.35215 0.17933 0.66946 0.0
C1583 C 0.3365 0.21201 0.66533 0.0
C1584 C 0.36018 0.18105 0.67913 0.0
C1585 C 0.32711 0.24503 0.67098 0.0
C1586 C 0.33384 0.24612 0.6806 0.0
C1587 C 0.35913 0.21653 0.69444 0.0
C1588 C 0.37492 0.18388 0.69855 0.0
C1589 C 0.35121 0.21494 0.68476 0.0
C1590 C 0.38457 0.15112 0.69288 0.0
C1591 C 0.37771 0.14999 0.68327 0.0
H1592 H 0.90136 0.23739 0.66328 0.0
H1593 H 0.76531 0.0874 0.66754 0.0
H1594 H 0.77156 0.10142 0.6843 0.0
H1595 H 0.815 0.15713 0.69786 0.0
H1596 H 0.95106 0.30709 0.69359 0.0
H1597 H 0.94491 0.29295 0.67684 0.0
C1598 C 0.87383 0.20752 0.66792 0.0
C1599 C 0.83334 0.16134 0.66421 0.0
C1600 C 0.87686 0.21633 0.67756 0.0
C1601 C 0.79709 0.12326 0.67026 0.0
C1602 C 0.80033 0.13136 0.67984 0.0
C1603 C 0.84258 0.18694 0.69323 0.0
C1604 C 0.88302 0.23317 0.69693 0.0
C1605 C 0.8396 0.17806 0.68358 0.0
C1606 C 0.91933 0.27118 0.69088 0.0
C1607 C 0.91613 0.26303 0.6813 0.0
H1608 H 0.32332 0.13265 0.20011 0.0
H1609 H 0.43917 0.29487 0.19746 0.0
H1610 H 0.43442 0.28689 0.18056 0.0
H1611 H 0.39593 0.23472 0.16656 0.0
H1612 H 0.28004 0.07249 0.16909 0.0
H1613 H 0.28579 0.0799 0.18603 0.0
C1614 C 0.34801 0.16614 0.19584 0.0
C1615 C 0.38168 0.21429 0.20007 0.0
C1616 C 0.34451 0.1615 0.18611 0.0
C1617 C 0.41301 0.25734 0.19441 0.0
C1618 C 0.41012 0.25289 0.18474 0.0
C1619 C 0.3716 0.20098 0.1708 0.0
C1620 C 0.33729 0.15318 0.16654 0.0
C1621 C 0.37558 0.20535 0.18052 0.0
C1622 C 0.30655 0.10982 0.17218 0.0
C1623 C 0.31 0.11397 0.18186 0.0
H1624 H 0.80619 0.17698 0.16438 0.0
H1625 H 0.96875 0.22541 0.16713 0.0
H1626 H 0.95989 0.21988 0.18404 0.0
H1627 H 0.90624 0.20178 0.198 0.0
H1628 H 0.74366 0.15333 0.19524 0.0
H1629 H 0.75262 0.15928 0.17833 0.0
C1630 C 0.83969 0.18598 0.16866 0.0
C1631 C 0.88808 0.20135 0.16447 0.0
C1632 C 0.83447 0.18336 0.17837 0.0
C1633 C 0.93105 0.21326 0.17015 0.0
C1634 C 0.92605 0.21033 0.17983 0.0
C1635 C 0.87276 0.19291 0.19372 0.0
C1636 C 0.82432 0.17729 0.1979 0.0
C1637 C 0.87803 0.19574 0.18401 0.0
C1638 C 0.7814 0.16563 0.19222 0.0
C1639 C 0.78645 0.16878 0.18255 0.0
H1640 H 0.86438 0.65618 0.16499 0.0
H1641 H 0.82158 0.77463 0.16728 0.0
H1642 H 0.82793 0.77295 0.18423 0.0
H1643 H 0.84517 0.73709 0.19847 0.0
H1644 H 0.88643 0.6175 0.19585 0.0
H1645 H 0.88053 0.6201 0.17901 0.0
C1646 C 0.85678 0.68199 0.16917 0.0
C1647 C 0.84282 0.71573 0.16483 0.0
C1648 C 0.8597 0.68023 0.17889 0.0
C1649 C 0.83263 0.74843 0.17041 0.0
C1650 C 0.83606 0.74733 0.18012 0.0
C1651 C 0.85246 0.71131 0.19421 0.0
C1652 C 0.86611 0.67704 0.19847 0.0
C1653 C 0.84928 0.71314 0.18445 0.0
C1654 C 0.87577 0.64421 0.19281 0.0
C1655 C 0.87258 0.64576 0.18315 0.0
H1656 H 0.55505 0.85622 0.05433 0.0
H1657 H 0.57947 0.86005 0.08391 0.0
H1658 H 0.60625 0.79516 0.08245 0.0
H1659 H 0.61004 0.72801 0.07314 0.0
H1660 H 0.58374 0.7211 0.04366 0.0
H1661 H 0.57155 0.79681 0.0446 0.0
C1662 C 0.56756 0.84378 0.0604 0.0
C1663 C 0.56435 0.8623 0.06925 0.0
C1664 C 0.58242 0.80563 0.05952 0.0
C1665 C 0.58053 0.84561 0.07706 0.0
C1666 C 0.59598 0.80855 0.07623 0.0
C1667 C 0.60368 0.74451 0.06689 0.0
C1668 C 0.59879 0.71994 0.05832 0.0
C1669 C 0.5953 0.78694 0.06755 0.0
C1670 C 0.58893 0.74037 0.05029 0.0
C1671 C 0.58127 0.7832 0.05086 0.0
H1672 H 0.1546 0.76586 0.0653 0.0
H1673 H 0.2304 0.67768 0.05935 0.0
H1674 H 0.31231 0.75794 0.05681 0.0
H1675 H 0.36359 0.85258 0.05724 0.0
H1676 H 0.28991 0.94288 0.06299 0.0
H1677 H 0.20571 0.8624 0.06456 0.0
C1678 C 0.18908 0.76432 0.06344 0.0
C1679 C 0.18638 0.71567 0.06259 0.0
C1680 C 0.23629 0.81093 0.06195 0.0
C1681 C 0.23121 0.71435 0.06 0.0
C1682 C 0.27816 0.7603 0.05859 0.0
C1683 C 0.32904 0.85481 0.05876 0.0
C1684 C 0.33305 0.90366 0.06009 0.0
C1685 C 0.28127 0.80869 0.05967 0.0
C1686 C 0.28783 0.90582 0.06192 0.0
C1687 C 0.23982 0.85978 0.06288 0.0
H1688 H 0.18921 0.54395 0.05571 0.0
H1689 H 0.1063 0.3812 0.06282 0.0
H1690 H 0.18907 0.38354 0.06544 0.0
H1691 H 0.28505 0.43406 0.06671 0.0
H1692 H 0.36651 0.59619 0.05921 0.0
H1693 H 0.28407 0.59205 0.0557 0.0
C1694 C 0.18921 0.50879 0.05776 0.0
C1695 C 0.1418 0.46255 0.05917 0.0
C1696 C 0.23662 0.51057 0.05924 0.0
C1697 C 0.14234 0.41718 0.06168 0.0
C1698 C 0.18961 0.41867 0.06323 0.0
C1699 C 0.28455 0.46836 0.0643 0.0
C1700 C 0.33166 0.51559 0.06332 0.0
C1701 C 0.23696 0.46546 0.06222 0.0
C1702 C 0.33076 0.55952 0.06 0.0
C1703 C 0.28368 0.55716 0.05803 0.0
H1704 H 0.86225 0.45515 0.47881 0.0
H1705 H 0.95068 0.54951 0.45561 0.0
H1706 H 0.89498 0.58794 0.45467 0.0
H1707 H 0.82704 0.60103 0.46141 0.0
H1708 H 0.74061 0.51049 0.48509 0.0
H1709 H 0.78952 0.46429 0.48494 0.0
C1710 C 0.86803 0.48287 0.47338 0.0
C1711 C 0.90988 0.49921 0.46721 0.0
C1712 C 0.83716 0.50644 0.47314 0.0
C1713 C 0.91819 0.53613 0.46035 0.0
C1714 C 0.88679 0.5585 0.45988 0.0
C1715 C 0.81922 0.57151 0.46658 0.0
C1716 C 0.781 0.55983 0.47335 0.0
C1717 C 0.84736 0.54526 0.46643 0.0
C1718 C 0.77013 0.52031 0.47984 0.0
C1719 C 0.79799 0.49387 0.47975 0.0
H1720 H 0.43273 0.23406 0.46134 0.0
H1721 H 0.54246 0.24885 0.48243 0.0
H1722 H 0.58539 0.34348 0.48136 0.0
H1723 H 0.58894 0.4222 0.47497 0.0
H1724 H 0.47544 0.40647 0.45463 0.0
H1725 H 0.43721 0.31208 0.45475 0.0
C1726 C 0.4656 0.25788 0.46579 0.0
C1727 C 0.48404 0.23429 0.47201 0.0
C1728 C 0.48989 0.31219 0.46517 0.0
C1729 C 0.52756 0.26598 0.47756 0.0
C1730 C 0.55216 0.3201 0.47695 0.0
C1731 C 0.55668 0.39805 0.47041 0.0
C1732 C 0.53533 0.42101 0.46471 0.0
C1733 C 0.53359 0.34367 0.47079 0.0
C1734 C 0.4927 0.38944 0.459 0.0
C1735 C 0.47057 0.33554 0.45913 0.0
H1736 H 0.82307 0.22392 0.46044 0.0
H1737 H 0.81036 0.28728 0.48659 0.0
H1738 H 0.71578 0.24072 0.48515 0.0
H1739 H 0.6365 0.17803 0.47684 0.0
H1740 H 0.64951 0.10991 0.45131 0.0
H1741 H 0.74422 0.16325 0.45194 0.0
C1742 C 0.79958 0.22695 0.46588 0.0
C1743 C 0.82361 0.25853 0.47366 0.0
C1744 C 0.74536 0.20012 0.46499 0.0
C1745 C 0.79266 0.26312 0.48054 0.0
C1746 C 0.73866 0.23671 0.4797 0.0
C1747 C 0.66024 0.17633 0.47128 0.0
C1748 C 0.63658 0.14126 0.46394 0.0
C1749 C 0.71458 0.20503 0.47197 0.0
C1750 C 0.66731 0.13763 0.45692 0.0
C1751 C 0.72131 0.16749 0.45736 0.0
H1752 H 0.53088 0.3631 0.97469 0.0
H1753 H 0.36578 0.28565 0.96978 0.0
H1754 H 0.36384 0.20254 0.96798 0.0
H1755 H 0.41078 0.15342 0.96674 0.0
H1756 H 0.57555 0.23195 0.97198 0.0
H1757 H 0.57601 0.31329 0.97476 0.0
C1758 C 0.4943 0.32794 0.97331 0.0
C1759 C 0.44856 0.33055 0.97228 0.0
C1760 C 0.49361 0.28067 0.97228 0.0
C1761 C 0.40144 0.2846 0.97062 0.0
C1762 C 0.40045 0.23721 0.96953 0.0
C1763 C 0.44668 0.18839 0.96851 0.0
C1764 C 0.49323 0.18684 0.96906 0.0
C1765 C 0.44651 0.23501 0.97016 0.0
C1766 C 0.5393 0.23213 0.97154 0.0
C1767 C 0.53958 0.27865 0.97309 0.0
H1768 H 0.87441 0.27406 0.9644 0.0
H1769 H 0.79862 0.36228 0.97023 0.0
H1770 H 0.7186 0.28249 0.97417 0.0
H1771 H 0.66891 0.18778 0.97509 0.0
H1772 H 0.74344 0.09796 0.96961 0.0
H1773 H 0.82561 0.17828 0.96653 0.0
C1774 C 0.8403 0.27563 0.96654 0.0
C1775 C 0.84223 0.32397 0.96694 0.0
C1776 C 0.79444 0.22945 0.96888 0.0
C1777 C 0.79812 0.32565 0.96989 0.0
C1778 C 0.75236 0.28003 0.97212 0.0
C1779 C 0.70326 0.18571 0.97331 0.0
C1780 C 0.70003 0.13697 0.9725 0.0
C1781 C 0.74993 0.23177 0.97153 0.0
C1782 C 0.74499 0.135 0.97031 0.0
C1783 C 0.79181 0.18089 0.96847 0.0
H1784 H 0.75319 0.61598 0.96436 0.0
H1785 H 0.66593 0.45159 0.96999 0.0
H1786 H 0.74638 0.45105 0.9732 0.0
H1787 H 0.84133 0.49604 0.97349 0.0
H1788 H 0.92989 0.6609 0.96828 0.0
H1789 H 0.84913 0.66284 0.96593 0.0
C1790 C 0.75196 0.58014 0.9663 0.0
C1791 C 0.70371 0.53372 0.96685 0.0
C1792 C 0.79848 0.5803 0.96822 0.0
C1793 C 0.7025 0.48773 0.96955 0.0
C1794 C 0.74849 0.48741 0.97135 0.0
C1795 C 0.84303 0.53258 0.97192 0.0
C1796 C 0.89156 0.57823 0.97098 0.0
C1797 C 0.79665 0.53329 0.97059 0.0
C1798 C 0.89306 0.6253 0.96907 0.0
C1799 C 0.84689 0.62629 0.96766 0.0
H1800 H 0.23042 0.4385 0.57281 0.0
H1801 H 0.28636 0.5039 0.54569 0.0
H1802 H 0.24131 0.55361 0.5468 0.0
H1803 H 0.18093 0.57354 0.55508 0.0
H1804 H 0.12058 0.50332 0.58172 0.0
H1805 H 0.17359 0.46156 0.58139 0.0
C1806 C 0.23219 0.46312 0.56711 0.0
C1807 C 0.26095 0.46694 0.55912 0.0
C1808 C 0.2064 0.49162 0.56783 0.0
C1809 C 0.26415 0.50019 0.55188 0.0
C1810 C 0.23866 0.52876 0.55254 0.0
C1811 C 0.18108 0.55066 0.56095 0.0
C1812 C 0.14815 0.54231 0.56852 0.0
C1813 C 0.20945 0.52459 0.56046 0.0
C1814 C 0.14676 0.51103 0.57594 0.0
C1815 C 0.17635 0.48655 0.57567 0.0
H1816 H 0.58419 0.64894 0.56437 0.0
H1817 H 0.42235 0.60492 0.56264 0.0
H1818 H 0.44708 0.69699 0.5618 0.0
H1819 H 0.51526 0.78922 0.56083 0.0
H1820 H 0.6766 0.83002 0.56118 0.0
H1821 H 0.65108 0.73918 0.56326 0.0
C1822 C 0.55399 0.65914 0.56388 0.0
C1823 C 0.50141 0.62 0.56356 0.0
C1824 C 0.56848 0.71148 0.56305 0.0
C1825 C 0.46308 0.63429 0.56294 0.0
C1826 C 0.47726 0.68685 0.56239 0.0
C1827 C 0.54495 0.77839 0.56124 0.0
C1828 C 0.598 0.81683 0.56083 0.0
C1829 C 0.52996 0.72571 0.56226 0.0
C1830 C 0.63565 0.80168 0.56158 0.0
C1831 C 0.62109 0.74963 0.56274 0.0
H1832 H 0.3906 0.94611 0.56249 0.0
H1833 H 0.43443 0.82785 0.56253 0.0
H1834 H 0.34225 0.7603 0.56259 0.0
H1835 H 0.24968 0.73589 0.56225 0.0
H1836 H 0.20898 0.85646 0.56103 0.0
H1837 H 0.30028 0.92244 0.56179 0.0
C1838 C 0.3804 0.90561 0.56255 0.0
C1839 C 0.41953 0.8921 0.56252 0.0
C1840 C 0.32794 0.86752 0.56231 0.0
C1841 C 0.40513 0.83932 0.5626 0.0
C1842 C 0.35248 0.80079 0.56258 0.0
C1843 C 0.2606 0.7765 0.56202 0.0
C1844 C 0.22202 0.79096 0.5616 0.0
C1845 C 0.31355 0.81453 0.56232 0.0
C1846 C 0.23741 0.84401 0.56148 0.0
C1847 C 0.28972 0.88185 0.56188 0.0
H1848 H 0.18242 0.02887 0.38882 0.0
H1849 H 0.34658 0.10332 0.39457 0.0
H1850 H 0.3494 0.18654 0.39684 0.0
H1851 H 0.30357 0.23662 0.39804 0.0
H1852 H 0.1396 0.16086 0.39208 0.0
H1853 H 0.13835 0.07952 0.38896 0.0
C1854 C 0.21898 0.06335 0.39052 0.0
C1855 C 0.26417 0.05986 0.39163 0.0
C1856 C 0.2202 0.11069 0.3918 0.0
C1857 C 0.3113 0.10503 0.39368 0.0
C1858 C 0.31282 0.15249 0.39502 0.0
C1859 C 0.26764 0.20225 0.39606 0.0
C1860 C 0.22161 0.20466 0.39537 0.0
C1861 C 0.26728 0.15555 0.39425 0.0
C1862 C 0.17553 0.16012 0.39261 0.0
C1863 C 0.17476 0.11355 0.39087 0.0
H1864 H 0.96682 0.26402 0.4007 0.0
H1865 H 0.05207 0.2139 0.38351 0.0
H1866 H 0.97992 0.12475 0.38387 0.0
H1867 H 0.89639 0.05896 0.39045 0.0
H1868 H 0.81155 0.10775 0.40805 0.0
H1869 H 0.87895 0.19838 0.40619 0.0
C1870 C 0.96885 0.23373 0.39686 0.0
C1871 C 0.01464 0.24556 0.39208 0.0
C1872 C 0.9275 0.18177 0.39731 0.0
C1873 C 0.01717 0.20571 0.38725 0.0
C1874 C 0.976 0.15459 0.38748 0.0
C1875 C 0.89221 0.08945 0.39374 0.0
C1876 C 0.84924 0.07617 0.3995 0.0
C1877 C 0.93153 0.14179 0.3927 0.0
C1878 C 0.84474 0.11649 0.40375 0.0
C1879 C 0.88322 0.16857 0.40264 0.0
H1880 H 0.86921 0.89328 0.38962 0.0
H1881 H 0.78016 0.7281 0.3945 0.0
H1882 H 0.86073 0.72476 0.39575 0.0
H1883 H 0.95676 0.77037 0.39647 0.0
H1884 H 0.04455 0.93528 0.39132 0.0
H1885 H 0.96408 0.93718 0.38907 0.0
C1886 C 0.86734 0.8564 0.3909 0.0
C1887 C 0.8188 0.81105 0.39208 0.0
C1888 C 0.9136 0.85487 0.39159 0.0
C1889 C 0.81702 0.7635 0.39357 0.0
C1890 C 0.86308 0.76169 0.39433 0.0
C1891 C 0.95815 0.80664 0.39484 0.0
C1892 C 0.00656 0.85277 0.39415 0.0
C1893 C 0.91161 0.80734 0.39353 0.0
C1894 C 0.00788 0.89931 0.39184 0.0
C1895 C 0.96186 0.90043 0.39061 0.0
H1896 H 0.50816 0.95918 0.79762 0.0
H1897 H 0.40481 0.84446 0.81726 0.0
H1898 H 0.45614 0.80104 0.81661 0.0
H1899 H 0.53384 0.79858 0.8111 0.0
H1900 H 0.63878 0.91649 0.79208 0.0
H1901 H 0.58331 0.95527 0.79177 0.0
C1902 C 0.49702 0.92502 0.80184 0.0
C1903 C 0.45277 0.90557 0.80755 0.0
C1904 C 0.52688 0.90038 0.80146 0.0
C1905 C 0.43848 0.86033 0.81278 0.0
C1906 C 0.46791 0.83545 0.81242 0.0
C1907 C 0.54377 0.83199 0.80672 0.0
C1908 C 0.59011 0.85436 0.80155 0.0
C1909 C 0.51243 0.85527 0.80682 0.0
C1910 C 0.60316 0.89839 0.79608 0.0
C1911 C 0.57165 0.92083 0.79595 0.0
H1912 H 0.25387 0.76226 0.81035 0.0
H1913 H 0.15021 0.74761 0.78809 0.0
H1914 H 0.11036 0.65317 0.7885 0.0
H1915 H 0.10069 0.57482 0.79591 0.0
H1916 H 0.20115 0.58794 0.81861 0.0
H1917 H 0.24644 0.68285 0.81737 0.0
C1918 C 0.22352 0.73831 0.80544 0.0
C1919 C 0.20522 0.76164 0.79914 0.0
C1920 C 0.19943 0.68382 0.80595 0.0
C1921 C 0.16507 0.73032 0.79295 0.0
C1922 C 0.14197 0.67638 0.79324 0.0
C1923 C 0.13204 0.59841 0.80066 0.0
C1924 C 0.147 0.57441 0.80744 0.0
C1925 C 0.15784 0.6527 0.79988 0.0
C1926 C 0.1888 0.60558 0.81336 0.0
C1927 C 0.21475 0.65978 0.81264 0.0
H1928 H 0.46525 0.64065 0.8034 0.0
H1929 H 0.50774 0.52251 0.80704 0.0
H1930 H 0.41753 0.45496 0.80532 0.0
H1931 H 0.32715 0.42903 0.8028 0.0
H1932 H 0.28138 0.54512 0.80005 0.0
H1933 H 0.37248 0.61404 0.80141 0.0
C1934 C 0.45468 0.60019 0.80393 0.0
C1935 C 0.49349 0.58679 0.80525 0.0
C1936 C 0.40229 0.56121 0.80302 0.0
C1937 C 0.47899 0.53402 0.80584 0.0
C1938 C 0.42733 0.49528 0.8049 0.0
C1939 C 0.33696 0.46939 0.80241 0.0
C1940 C 0.29764 0.48194 0.80121 0.0
C1941 C 0.38882 0.50842 0.80341 0.0
C1942 C 0.31106 0.53447 0.80089 0.0
C1943 C 0.36306 0.57382 0.8017 0.0
H1944 H 0.08922 0.48695 0.29783 0.0
H1945 H 0.24298 0.56087 0.30976 0.0
H1946 H 0.23691 0.63769 0.3134 0.0
H1947 H 0.19223 0.68694 0.31173 0.0
H1948 H 0.03986 0.61639 0.29937 0.0
H1949 H 0.0405 0.53445 0.29746 0.0
C1950 C 0.12131 0.51987 0.30123 0.0
C1951 C 0.16683 0.51845 0.30341 0.0
C1952 C 0.11771 0.56426 0.30322 0.0
C1953 C 0.20756 0.56086 0.30804 0.0
C1954 C 0.2042 0.6049 0.31008 0.0
C1955 C 0.15877 0.65334 0.30873 0.0
C1956 C 0.11629 0.65757 0.30558 0.0
C1957 C 0.16005 0.60739 0.3075 0.0
C1958 C 0.07288 0.6138 0.30185 0.0
C1959 C 0.07355 0.56728 0.30068 0.0
H1960 H 0.35231 0.52304 0.30866 0.0
H1961 H 0.42704 0.43584 0.30119 0.0
H1962 H 0.50922 0.5174 0.29878 0.0
H1963 H 0.55805 0.61385 0.29792 0.0
H1964 H 0.48161 0.69917 0.3056 0.0
H1965 H 0.40179 0.61788 0.30886 0.0
C1966 C 0.38664 0.52172 0.30656 0.0
C1967 C 0.38343 0.47336 0.30502 0.0
C1968 C 0.43333 0.5685 0.30519 0.0
C1969 C 0.42848 0.47246 0.30244 0.0
C1970 C 0.47533 0.51912 0.30101 0.0
C1971 C 0.52389 0.61456 0.3003 0.0
C1972 C 0.52576 0.66268 0.30144 0.0
C1973 C 0.47795 0.56741 0.3022 0.0
C1974 C 0.48142 0.66291 0.30472 0.0
C1975 C 0.43566 0.61638 0.30654 0.0
H1976 H 0.4272 0.94527 0.29743 0.0
H1977 H 0.34701 0.78543 0.30638 0.0
H1978 H 0.43 0.79064 0.30982 0.0
H1979 H 0.52483 0.83833 0.3091 0.0
H1980 H 0.60648 0.99866 0.30042 0.0
H1981 H 0.52332 0.99602 0.29815 0.0
C1982 C 0.42807 0.91173 0.30016 0.0
C1983 C 0.38113 0.86476 0.30154 0.0
C1984 C 0.476 0.91519 0.30216 0.0
C1985 C 0.38258 0.82189 0.30527 0.0
C1986 C 0.42999 0.82484 0.3072 0.0
C1987 C 0.52448 0.87293 0.30681 0.0
C1988 C 0.57159 0.9185 0.30482 0.0
C1989 C 0.47684 0.87095 0.30551 0.0
C1990 C 0.57068 0.96322 0.302 0.0
C1991 C 0.52316 0.96153 0.30064 0.0
H1992 H 0.89882 0.76037 0.90132 0.0
H1993 H 0.97629 0.87151 0.87942 0.0
H1994 H 0.92171 0.91026 0.88239 0.0
H1995 H 0.84757 0.90781 0.8905 0.0
H1996 H 0.76897 0.79426 0.91207 0.0
H1997 H 0.8293 0.76184 0.91013 0.0
C1998 C 0.9033 0.79268 0.89713 0.0
C1999 C 0.94054 0.81239 0.89002 0.0
C2000 C 0.87224 0.81479 0.89894 0.0
C2001 C 0.94733 0.85545 0.88486 0.0
C2002 C 0.91636 0.87765 0.88658 0.0
C2003 C 0.84471 0.87704 0.89496 0.0
C2004 C 0.80413 0.85353 0.90145 0.0
C2005 C 0.87832 0.85729 0.89356 0.0
C2006 C 0.80014 0.81303 0.90706 0.0
C2007 C 0.83421 0.79413 0.90588 0.0
H2008 H 0.28001 0.15454 0.90003 0.0
H2009 H 0.17376 0.12925 0.87761 0.0
H2010 H 0.13266 0.03511 0.87979 0.0
H2011 H 0.13075 0.9604 0.88753 0.0
H2012 H 0.24027 0.98663 0.90944 0.0
H2013 H 0.27574 0.08038 0.90818 0.0
C2014 C 0.24839 0.12839 0.89554 0.0
C2015 C 0.23046 0.14852 0.88856 0.0
C2016 C 0.22501 0.07472 0.89688 0.0
C2017 C 0.18832 0.11434 0.88298 0.0
C2018 C 0.16476 0.0607 0.88426 0.0
C2019 C 0.16138 0.98668 0.89219 0.0
C2020 C 0.18275 0.96703 0.89861 0.0
C2021 C 0.18297 0.04048 0.89116 0.0
C2022 C 0.22316 0.00123 0.90449 0.0
C2023 C 0.24375 0.0547 0.90371 0.0
H2024 H 0.88279 0.13758 0.9018 0.0
H2025 H 0.89967 0.04882 0.87983 0.0
H2026 H 0.99436 0.10437 0.88051 0.0
H2027 H 0.07238 0.18188 0.88684 0.0
H2028 H 0.05323 0.27053 0.90861 0.0
H2029 H 0.95975 0.21102 0.90864 0.0
C2030 C 0.90711 0.13072 0.89709 0.0
C2031 C 0.88415 0.08969 0.89066 0.0
C2032 C 0.9613 0.16248 0.89758 0.0
C2033 C 0.91642 0.08036 0.8848 0.0
C2034 C 0.97054 0.11205 0.8852 0.0
C2035 C 0.04776 0.18725 0.89173 0.0
C2036 C 0.06967 0.23038 0.89775 0.0
C2037 C 0.9935 0.15352 0.89153 0.0
C2038 C 0.03726 0.23751 0.90394 0.0
C2039 C 0.98374 0.20374 0.90391 0.0
H2040 H 0.99077 0.43912 0.73063 0.0
H2041 H 0.85388 0.35414 0.71374 0.0
H2042 H 0.83623 0.42578 0.71458 0.0
H2043 H 0.85342 0.5082 0.7217 0.0
H2044 H 0.9893 0.59297 0.73886 0.0
H2045 H 0.01327 0.52664 0.73637 0.0
C2046 C 0.95808 0.43713 0.72692 0.0
C2047 C 0.92384 0.39148 0.7221 0.0
C2048 C 0.94713 0.47818 0.72765 0.0
C2049 C 0.88092 0.38899 0.71748 0.0
C2050 C 0.87054 0.42983 0.718 0.0
C2051 C 0.88875 0.51266 0.72474 0.0
C2052 C 0.91872 0.55517 0.73062 0.0
C2053 C 0.90238 0.47399 0.72332 0.0
C2054 C 0.96449 0.56005 0.73452 0.0
C2055 C 0.97856 0.52218 0.73305 0.0
H2056 H 0.50086 0.44325 0.73292 0.0
H2057 H 0.57703 0.3572 0.72558 0.0
H2058 H 0.65868 0.43834 0.7233 0.0
H2059 H 0.70939 0.53303 0.72429 0.0
H2060 H 0.63448 0.6206 0.73142 0.0
H2061 H 0.55107 0.53946 0.73287 0.0
C2062 C 0.53538 0.44236 0.73082 0.0
C2063 C 0.53298 0.39418 0.7295 0.0
C2064 C 0.58227 0.48932 0.72952 0.0
C2065 C 0.57773 0.39363 0.72659 0.0
C2066 C 0.62449 0.44003 0.72534 0.0
C2067 C 0.67479 0.53451 0.72613 0.0
C2068 C 0.67821 0.58276 0.72786 0.0
C2069 C 0.62733 0.48797 0.72692 0.0
C2070 C 0.63287 0.58398 0.73007 0.0
C2071 C 0.58529 0.53759 0.73093 0.0
H2072 H 0.53336 0.21874 0.72215 0.0
H2073 H 0.44775 0.0559 0.72917 0.0
H2074 H 0.52949 0.05495 0.73068 0.0
H2075 H 0.62566 0.10232 0.73091 0.0
H2076 H 0.70981 0.26476 0.72361 0.0
H2077 H 0.62808 0.26394 0.72121 0.0
C2078 C 0.53248 0.18287 0.72396 0.0
C2079 C 0.48461 0.13754 0.72566 0.0
C2080 C 0.57935 0.1827 0.72479 0.0
C2081 C 0.48409 0.09125 0.72784 0.0
C2082 C 0.53081 0.09082 0.72875 0.0
C2083 C 0.62597 0.13744 0.72878 0.0
C2084 C 0.67375 0.18372 0.72753 0.0
C2085 C 0.57871 0.13658 0.72739 0.0
C2086 C 0.67365 0.2287 0.72458 0.0
C2087 C 0.62694 0.22828 0.72326 0.0
H2088 H 0.28293 0.25154 0.13467 0.0
H2089 H 0.16456 0.0895 0.13569 0.0
H2090 H 0.09731 0.11443 0.13614 0.0
H2091 H 0.07342 0.18278 0.13662 0.0
H2092 H 0.19431 0.3442 0.1369 0.0
H2093 H 0.25983 0.31852 0.1356 0.0
C2094 C 0.24247 0.22132 0.13497 0.0
C2095 C 0.22879 0.16864 0.13515 0.0
C2096 C 0.20467 0.23589 0.13552 0.0
C2097 C 0.17608 0.13032 0.13551 0.0
C2098 C 0.13776 0.1446 0.13582 0.0
C2099 C 0.11403 0.21246 0.13654 0.0
C2100 C 0.12873 0.26559 0.13685 0.0
C2101 C 0.15176 0.19737 0.13595 0.0
C2102 C 0.1817 0.30322 0.13655 0.0
C2103 C 0.21926 0.28856 0.13583 0.0
H2104 H 0.79514 0.05836 0.13049 0.0
H2105 H 0.9564 0.10271 0.13381 0.0
H2106 H 0.93154 0.01059 0.13479 0.0
H2107 H 0.86312 0.91839 0.13555 0.0
H2108 H 0.70194 0.87783 0.13395 0.0
H2109 H 0.7281 0.96845 0.13154 0.0
C2110 C 0.82523 0.04828 0.13139 0.0
C2111 C 0.87763 0.08749 0.13212 0.0
C2112 C 0.81055 0.99601 0.13237 0.0
C2113 C 0.91582 0.07329 0.1332 0.0
C2114 C 0.90153 0.0207 0.13384 0.0
C2115 C 0.83352 0.92912 0.13481 0.0
C2116 C 0.78034 0.89071 0.13493 0.0
C2117 C 0.84882 0.9818 0.13363 0.0
C2118 C 0.74298 0.90598 0.13376 0.0
C2119 C 0.7579 0.95795 0.13241 0.0
H2120 H 0.12645 0.97111 0.13633 0.0
H2121 H 0.16811 0.85223 0.13343 0.0
H2122 H 0.07722 0.78734 0.1305 0.0
H2123 H 0.98664 0.76388 0.12995 0.0
H2124 H 0.94235 0.88029 0.13421 0.0
H2125 H 0.0343 0.94762 0.13511 0.0
C2126 C 0.11558 0.93113 0.1349 0.0
C2127 C 0.15367 0.91616 0.13508 0.0
C2128 C 0.06316 0.894 0.13345 0.0
C2129 C 0.13923 0.86423 0.13339 0.0
C2130 C 0.08746 0.82737 0.13169 0.0
C2131 C 0.99679 0.80402 0.13099 0.0
C2132 C 0.95759 0.81699 0.13209 0.0
C2133 C 0.04914 0.84172 0.13188 0.0
C2134 C 0.97174 0.86929 0.13334 0.0
C2135 C 0.02425 0.90765 0.13392 0.0
H2136 H 0.86637 0.89161 0.64154 0.0
H2137 H 0.72474 0.79623 0.6264 0.0
H2138 H 0.70114 0.86362 0.62763 0.0
H2139 H 0.72479 0.95409 0.63171 0.0
H2140 H 0.86761 0.0493 0.64656 0.0
H2141 H 0.88579 0.97807 0.64692 0.0
C2142 C 0.82993 0.88521 0.63867 0.0
C2143 C 0.79802 0.83915 0.63375 0.0
C2144 C 0.81664 0.92454 0.63932 0.0
C2145 C 0.75086 0.83175 0.63004 0.0
C2146 C 0.73709 0.87028 0.63077 0.0
C2147 C 0.75914 0.95863 0.6352 0.0
C2148 C 0.7948 0.00701 0.63907 0.0
C2149 C 0.77024 0.91751 0.6352 0.0
C2150 C 0.8396 0.01251 0.64348 0.0
C2151 C 0.85021 0.9718 0.64367 0.0
H2152 H 0.21426 0.94969 0.63247 0.0
H2153 H 0.13788 0.0369 0.63877 0.0
H2154 H 0.05675 0.95626 0.64168 0.0
H2155 H 0.00643 0.86147 0.64156 0.0
H2156 H 0.08125 0.77257 0.63545 0.0
H2157 H 0.16436 0.85346 0.63338 0.0
C2158 C 0.17981 0.95095 0.63447 0.0
C2159 C 0.18205 0.99934 0.63533 0.0
C2160 C 0.13315 0.90423 0.63615 0.0
C2161 C 0.13735 1.00036 0.63812 0.0
C2162 C 0.09087 0.95422 0.63973 0.0
C2163 C 0.04095 0.85965 0.63981 0.0
C2164 C 0.03756 0.81104 0.63855 0.0
C2165 C 0.0882 0.90603 0.63865 0.0
C2166 C 0.08283 0.80945 0.63646 0.0
C2167 C 0.13023 0.8557 0.63523 0.0
H2168 H 0.17981 0.17548 0.63988 0.0
H2169 H 0.2681 0.33912 0.63354 0.0
H2170 H 0.18715 0.34098 0.6314 0.0
H2171 H 0.09097 0.29456 0.63063 0.0
H2172 H 0.00422 0.13132 0.6373 0.0
H2173 H 0.08499 0.13089 0.64009 0.0
C2174 C 0.18148 0.21172 0.63806 0.0
C2175 C 0.22997 0.25704 0.63677 0.0
C2176 C 0.13502 0.21245 0.63689 0.0
C2177 C 0.23134 0.30374 0.63457 0.0
C2178 C 0.18505 0.30471 0.63331 0.0
C2179 C 0.08986 0.25895 0.63269 0.0
C2180 C 0.04156 0.21287 0.63368 0.0
C2181 C 0.13663 0.25909 0.63432 0.0
C2182 C 0.04071 0.16727 0.63654 0.0
C2183 C 0.08692 0.16697 0.63809 0.0
H2184 H 0.5176 0.24207 0.21989 0.0
H2185 H 0.45864 0.17646 0.24686 0.0
H2186 H 0.51178 0.13484 0.2469 0.0
H2187 H 0.56795 0.11014 0.23853 0.0
H2188 H 0.62295 0.17121 0.21114 0.0
H2189 H 0.5779 0.2211 0.21186 0.0
C2190 C 0.51813 0.22028 0.2259 0.0
C2191 C 0.48551 0.21308 0.23346 0.0
C2192 C 0.54657 0.19427 0.22563 0.0
C2193 C 0.4846 0.18324 0.24108 0.0
C2194 C 0.51423 0.15883 0.24103 0.0
C2195 C 0.56948 0.13387 0.23269 0.0
C2196 C 0.59781 0.13635 0.22473 0.0
C2197 C 0.54385 0.16255 0.2332 0.0
C2198 C 0.60089 0.16848 0.2173 0.0
C2199 C 0.57546 0.19716 0.21774 0.0
H2200 H 0.84208 0.45414 0.22693 0.0
H2201 H 0.0047 0.50144 0.22675 0.0
H2202 H 0.98344 0.41191 0.22968 0.0
H2203 H 0.91907 0.32031 0.23114 0.0
H2204 H 0.75565 0.2704 0.2301 0.0
H2205 H 0.7767 0.36122 0.22906 0.0
C2206 C 0.87274 0.44478 0.22767 0.0
C2207 C 0.92491 0.48414 0.22661 0.0
C2208 C 0.86007 0.39298 0.22915 0.0
C2209 C 0.96435 0.4716 0.22745 0.0
C2210 C 0.95219 0.42055 0.22916 0.0
C2211 C 0.88783 0.32907 0.23081 0.0
C2212 C 0.8358 0.28848 0.23067 0.0
C2213 C 0.90021 0.38089 0.22985 0.0
C2214 C 0.79601 0.30085 0.23023 0.0
C2215 C 0.80806 0.35274 0.22958 0.0
H2216 H 0.56784 0.48687 0.23725 0.0
H2217 H 0.56875 0.41888 0.21087 0.0
H2218 H 0.66378 0.46716 0.21077 0.0
H2219 H 0.74665 0.53156 0.21797 0.0
H2220 H 0.74469 0.60258 0.24393 0.0
H2221 H 0.65005 0.5494 0.24457 0.0
C2222 C 0.58886 0.4833 0.23142 0.0
C2223 C 0.56149 0.44995 0.22402 0.0
C2224 C 0.64326 0.51079 0.23145 0.0
C2225 C 0.5892 0.44458 0.21662 0.0
C2226 C 0.64341 0.4719 0.21658 0.0
C2227 C 0.72536 0.53402 0.22388 0.0
C2228 C 0.75208 0.56979 0.23099 0.0
C2229 C 0.67088 0.50505 0.22398 0.0
C2230 C 0.72448 0.57436 0.23848 0.0
C2231 C 0.67051 0.54455 0.23879 0.0
H2232 H 0.59637 0.42348 0.05588 0.0
H2233 H 0.4431 0.40233 0.05996 0.0
H2234 H 0.40441 0.3095 0.05764 0.0
H2235 H 0.413 0.23313 0.05453 0.0
H2236 H 0.56501 0.25118 0.05154 0.0
H2237 H 0.60509 0.34564 0.05328 0.0
C2238 C 0.5546 0.39845 0.05629 0.0
C2239 C 0.52294 0.4201 0.05811 0.0
C2240 C 0.53214 0.3443 0.05508 0.0
C2241 C 0.46873 0.38697 0.05864 0.0
C2242 C 0.44628 0.33367 0.05727 0.0
C2243 C 0.45481 0.258 0.05417 0.0
C2244 C 0.48604 0.23568 0.05283 0.0
C2245 C 0.47747 0.31186 0.05546 0.0
C2246 C 0.54032 0.26787 0.05256 0.0
C2247 C 0.56318 0.32176 0.05357 0.0
H2248 H 0.79185 0.29552 0.05588 0.0
H2249 H 0.84053 0.18153 0.05387 0.0
H2250 H 0.75172 0.11208 0.05714 0.0
H2251 H 0.65992 0.08402 0.06034 0.0
H2252 H 0.61159 0.19869 0.06166 0.0
H2253 H 0.70091 0.2679 0.05909 0.0
C2254 C 0.78315 0.25554 0.05626 0.0
C2255 C 0.82273 0.24366 0.05469 0.0
C2256 C 0.73217 0.21607 0.05807 0.0
C2257 C 0.81062 0.19154 0.05498 0.0
C2258 C 0.75996 0.15194 0.05691 0.0
C2259 C 0.66913 0.12423 0.06018 0.0
C2260 C 0.62932 0.1363 0.06126 0.0
C2261 C 0.72041 0.16377 0.05846 0.0
C2262 C 0.64158 0.18845 0.06087 0.0
C2263 C 0.6926 0.22802 0.05938 0.0
H2264 H 0.94448 0.58047 0.05688 0.0
H2265 H 0.8292 0.41744 0.05735 0.0
H2266 H 0.76048 0.43912 0.05492 0.0
H2267 H 0.734 0.5051 0.05251 0.0
H2268 H 0.85102 0.66719 0.05124 0.0
H2269 H 0.9188 0.64521 0.05405 0.0
C2270 C 0.90427 0.54957 0.05653 0.0
C2271 C 0.89174 0.49745 0.05741 0.0
C2272 C 0.86557 0.56224 0.05491 0.0
C2273 C 0.83964 0.45786 0.05674 0.0
C2274 C 0.80049 0.47026 0.05534 0.0
C2275 C 0.77438 0.53545 0.05289 0.0
C2276 C 0.78772 0.58771 0.05171 0.0
C2277 C 0.81309 0.52237 0.0544 0.0
C2278 C 0.84008 0.62677 0.05205 0.0
C2279 C 0.87868 0.61422 0.05371 0.0
H2280 H 0.28701 0.42817 0.47186 0.0
H2281 H 0.3734 0.5889 0.48006 0.0
H2282 H 0.29306 0.58558 0.48505 0.0
H2283 H 0.19793 0.54048 0.4847 0.0
H2284 H 0.11144 0.37995 0.47608 0.0
H2285 H 0.19229 0.37901 0.47386 0.0
C2286 C 0.28802 0.4621 0.47487 0.0
C2287 C 0.33536 0.50897 0.47545 0.0
C2288 C 0.24186 0.45985 0.47762 0.0
C2289 C 0.33704 0.55258 0.47954 0.0
C2290 C 0.29122 0.55068 0.48234 0.0
C2291 C 0.19676 0.50493 0.48255 0.0
C2292 C 0.149 0.46066 0.48038 0.0
C2293 C 0.2433 0.50505 0.48107 0.0
C2294 C 0.14782 0.4146 0.47775 0.0
C2295 C 0.19402 0.41417 0.47639 0.0
H2296 H 0.52411 0.68299 0.48227 0.0
H2297 H 0.67958 0.74817 0.47148 0.0
H2298 H 0.68473 0.83242 0.46954 0.0
H2299 H 0.63909 0.88218 0.46846 0.0
H2300 H 0.48228 0.81503 0.47862 0.0
H2301 H 0.48356 0.73682 0.48338 0.0
C2302 C 0.55959 0.71607 0.47972 0.0
C2303 C 0.60109 0.70951 0.47688 0.0
C2304 C 0.5616 0.76359 0.47837 0.0
C2305 C 0.64717 0.75251 0.47371 0.0
C2306 C 0.64987 0.80043 0.4725 0.0
C2307 C 0.60552 0.85054 0.47181 0.0
C2308 C 0.56029 0.85363 0.47302 0.0
C2309 C 0.60638 0.80557 0.47439 0.0
C2310 C 0.5174 0.81326 0.47759 0.0
C2311 C 0.51806 0.76853 0.48027 0.0
H2312 H 0.38547 0.85295 0.4757 0.0
H2313 H 0.31046 0.94501 0.47365 0.0
H2314 H 0.22549 0.8656 0.47359 0.0
H2315 H 0.1738 0.77083 0.47321 0.0
H2316 H 0.24907 0.67916 0.47552 0.0
H2317 H 0.33363 0.75844 0.47596 0.0
C2318 C 0.35055 0.8558 0.47531 0.0
C2319 C 0.3541 0.9047 0.47465 0.0
C2320 C 0.3023 0.81031 0.47511 0.0
C2321 C 0.30861 0.90777 0.47422 0.0
C2322 C 0.26016 0.86245 0.4741 0.0
C2323 C 0.20855 0.76802 0.47393 0.0
C2324 C 0.20501 0.71903 0.47436 0.0
C2325 C 0.25673 0.81361 0.47439 0.0
C2326 C 0.25065 0.71625 0.47505 0.0
C2327 C 0.29895 0.76156 0.47541 0.0
H2328 H 0.57662 0.64958 0.97135 0.0
H2329 H 0.41422 0.60392 0.97139 0.0
H2330 H 0.43713 0.69438 0.9741 0.0
H2331 H 0.50349 0.7858 0.97689 0.0
H2332 H 0.66525 0.82985 0.97771 0.0
H2333 H 0.64243 0.74013 0.97436 0.0
C2334 C 0.54619 0.65945 0.97184 0.0
C2335 C 0.49378 0.62026 0.97106 0.0
C2336 C 0.55958 0.711 0.97366 0.0
C2337 C 0.45481 0.6335 0.97191 0.0
C2338 C 0.46791 0.6851 0.97348 0.0
C2339 C 0.5337 0.77572 0.97627 0.0
C2340 C 0.58604 0.81432 0.9775 0.0
C2341 C 0.52016 0.72406 0.97444 0.0
C2342 C 0.62477 0.80068 0.97686 0.0
C2343 C 0.61172 0.74954 0.97489 0.0
H2344 H 0.24362 0.73325 0.977 0.0
H2345 H 0.19826 0.85008 0.97734 0.0
H2346 H 0.28884 0.91818 0.97529 0.0
H2347 H 0.38032 0.9442 0.9734 0.0
H2348 H 0.42739 0.82847 0.97388 0.0
H2349 H 0.33643 0.7598 0.97553 0.0
C2350 C 0.2537 0.77363 0.97657 0.0
C2351 C 0.21443 0.78678 0.97726 0.0
C2352 C 0.3059 0.8125 0.97552 0.0
C2353 C 0.22792 0.83922 0.97688 0.0
C2354 C 0.27958 0.87802 0.97567 0.0
C2355 C 0.37072 0.90391 0.9738 0.0
C2356 C 0.41043 0.89131 0.97342 0.0
C2357 C 0.31879 0.86506 0.97496 0.0
C2358 C 0.39745 0.83906 0.97412 0.0
C2359 C 0.34552 0.79989 0.97507 0.0
H2360 H 0.13837 0.53401 0.98472 0.0
H2361 H 0.14327 0.53183 0.95484 0.0
H2362 H 0.20405 0.4988 0.95545 0.0
H2363 H 0.252 0.46625 0.96455 0.0
H2364 H 0.2418 0.46224 0.99443 0.0
H2365 H 0.18605 0.50086 0.99382 0.0
C2366 C 0.15382 0.52728 0.97838 0.0
C2367 C 0.13781 0.53637 0.96975 0.0
C2368 C 0.18674 0.50612 0.9788 0.0
C2369 C 0.1562 0.52593 0.96154 0.0
C2370 C 0.19046 0.50668 0.9619 0.0
C2371 C 0.23766 0.47405 0.97091 0.0
C2372 C 0.25084 0.46128 0.97951 0.0
C2373 C 0.20536 0.49588 0.97049 0.0
C2374 C 0.23155 0.47098 0.98772 0.0
C2375 C 0.2001 0.49352 0.98738 0.0
H2376 H 0.77023 0.61942 0.55882 0.0
H2377 H 0.67625 0.45209 0.55841 0.0
H2378 H 0.75473 0.44531 0.55766 0.0
H2379 H 0.84968 0.48724 0.557 0.0
H2380 H 0.94256 0.65485 0.55683 0.0
H2381 H 0.86398 0.66111 0.55743 0.0
C2382 C 0.76659 0.58136 0.55842 0.0
C2383 C 0.71727 0.53636 0.5586 0.0
C2384 C 0.81152 0.57785 0.55772 0.0
C2385 C 0.71364 0.48739 0.55838 0.0
C2386 C 0.75848 0.4835 0.55785 0.0
C2387 C 0.85278 0.52518 0.55698 0.0
C2388 C 0.90191 0.57055 0.55687 0.0
C2389 C 0.80755 0.52853 0.55746 0.0
C2390 C 0.90524 0.61936 0.55686 0.0
C2391 C 0.86038 0.62298 0.55729 0.0
H2392 H 0.41364 0.15703 0.55684 0.0
H2393 H 0.58096 0.23279 0.5561 0.0
H2394 H 0.58627 0.31721 0.55489 0.0
H2395 H 0.54352 0.36873 0.55389 0.0
H2396 H 0.37607 0.29328 0.55446 0.0
H2397 H 0.37062 0.20853 0.55543 0.0
C2398 C 0.4513 0.1919 0.55631 0.0
C2399 C 0.49683 0.18853 0.55651 0.0
C2400 C 0.45397 0.24 0.55541 0.0
C2401 C 0.54535 0.23426 0.55607 0.0
C2402 C 0.54838 0.28247 0.55527 0.0
C2403 C 0.50569 0.33379 0.55413 0.0
C2404 C 0.46019 0.33724 0.55409 0.0
C2405 C 0.50293 0.28564 0.55488 0.0
C2406 C 0.41161 0.29159 0.55442 0.0
C2407 C 0.40852 0.24325 0.55506 0.0
H2408 H 0.8789 0.26396 0.56172 0.0
H2409 H 0.80987 0.36083 0.5582 0.0
H2410 H 0.72643 0.28411 0.5548 0.0
H2411 H 0.67325 0.18977 0.55298 0.0
H2412 H 0.7437 0.09389 0.55596 0.0
H2413 H 0.82772 0.17109 0.55888 0.0
C2414 C 0.84609 0.2688 0.56006 0.0
C2415 C 0.85115 0.31849 0.5602 0.0
C2416 C 0.79876 0.22486 0.55783 0.0
C2417 C 0.80734 0.32326 0.55828 0.0
C2418 C 0.75964 0.2794 0.55622 0.0
C2419 C 0.70713 0.18576 0.55412 0.0
C2420 C 0.70224 0.13616 0.55428 0.0
C2421 C 0.75502 0.23009 0.55596 0.0
C2422 C 0.74647 0.13163 0.55576 0.0
C2423 C 0.79439 0.17567 0.55753 0.0
H2424 H 0.20368 0.59963 0.3875 0.0
H2425 H 0.0427 0.5588 0.38781 0.0
H2426 H 0.06826 0.65063 0.38893 0.0
H2427 H 0.13573 0.74155 0.39002 0.0
H2428 H 0.29736 0.78445 0.38919 0.0
H2429 H 0.27222 0.69229 0.38811 0.0
C2430 C 0.1743 0.61094 0.38788 0.0
C2431 C 0.12129 0.57255 0.38765 0.0
C2432 C 0.18939 0.66387 0.38843 0.0
C2433 C 0.08359 0.58768 0.38793 0.0
C2434 C 0.09822 0.64008 0.38861 0.0
C2435 C 0.16565 0.7309 0.38964 0.0
C2436 C 0.2184 0.76973 0.38979 0.0
C2437 C 0.15092 0.67835 0.3889 0.0
C2438 C 0.25653 0.75524 0.38912 0.0
C2439 C 0.24213 0.70263 0.38851 0.0
H2440 H 0.46488 0.65793 0.3879 0.0
H2441 H 0.50889 0.54045 0.3857 0.0
H2442 H 0.41879 0.47255 0.38821 0.0
H2443 H 0.32834 0.44672 0.39112 0.0
H2444 H 0.28154 0.56248 0.39253 0.0
H2445 H 0.3722 0.6313 0.39029 0.0
C2446 C 0.45462 0.61744 0.38801 0.0
C2447 C 0.49351 0.60412 0.38667 0.0
C2448 C 0.4025 0.57856 0.38934 0.0
C2449 C 0.47964 0.55154 0.38666 0.0
C2450 C 0.42822 0.51281 0.38814 0.0
C2451 C 0.33785 0.48704 0.39101 0.0
C2452 C 0.29832 0.49955 0.39212 0.0
C2453 C 0.38947 0.5259 0.38952 0.0
C2454 C 0.31129 0.5519 0.39175 0.0
C2455 C 0.36307 0.59115 0.39046 0.0
H2456 H 0.41973 0.86578 0.38732 0.0
H2457 H 0.53715 0.02789 0.38783 0.0
H2458 H 0.60365 0.00464 0.39122 0.0
H2459 H 0.62802 0.93836 0.39385 0.0
H2460 H 0.51145 0.77582 0.39258 0.0
H2461 H 0.44429 0.79908 0.38986 0.0
C2462 C 0.45984 0.89596 0.38825 0.0
C2463 C 0.47368 0.94849 0.38738 0.0
C2464 C 0.49764 0.88221 0.39012 0.0
C2465 C 0.52584 0.98726 0.3884 0.0
C2466 C 0.56366 0.97396 0.39039 0.0
C2467 C 0.58781 0.90795 0.39309 0.0
C2468 C 0.57452 0.85543 0.3935 0.0
C2469 C 0.54993 0.92159 0.39127 0.0
C2470 C 0.52248 0.8165 0.39233 0.0
C2471 C 0.48421 0.82979 0.39075 0.0
H2472 H 0.95146 0.76213 0.80244 0.0
H2473 H 0.03618 0.91348 0.81513 0.0
H2474 H 0.95513 0.90509 0.82092 0.0
H2475 H 0.86031 0.86081 0.82019 0.0
H2476 H 0.77498 0.71109 0.80688 0.0
H2477 H 0.85613 0.71184 0.80374 0.0
C2478 C 0.95203 0.79299 0.80654 0.0
C2479 C 0.99938 0.83883 0.8082 0.0
C2480 C 0.90529 0.78803 0.80975 0.0
C2481 C 1.00007 0.878 0.81374 0.0
C2482 C 0.95379 0.87326 0.81702 0.0
C2483 C 0.85943 0.82768 0.81683 0.0
C2484 C 0.812 0.78633 0.81364 0.0
C2485 C 0.90615 0.82928 0.81477 0.0
C2486 C 0.81108 0.74333 0.80941 0.0
C2487 C 0.85751 0.7441 0.8075 0.0
H2488 H 0.18462 0.02089 0.81439 0.0
H2489 H 0.3422 0.09064 0.80448 0.0
H2490 H 0.3437 0.17285 0.80186 0.0
H2491 H 0.29559 0.22025 0.80037 0.0
H2492 H 0.13697 0.14836 0.80979 0.0
H2493 H 0.14043 0.07149 0.81468 0.0
C2494 C 0.21973 0.0545 0.81186 0.0
C2495 C 0.26307 0.04976 0.80954 0.0
C2496 C 0.2197 0.10082 0.81013 0.0
C2497 C 0.30848 0.09353 0.80636 0.0
C2498 C 0.30907 0.14027 0.80475 0.0
C2499 C 0.26194 0.1878 0.80353 0.0
C2500 C 0.21576 0.1895 0.80457 0.0
C2501 C 0.26416 0.1436 0.80626 0.0
C2502 C 0.17285 0.14788 0.80891 0.0
C2503 C 0.17477 0.10389 0.81167 0.0
H2504 H 0.018 0.20834 0.79354 0.0
H2505 H 0.98269 0.27364 0.81727 0.0
H2506 H 0.8991 0.19338 0.8191 0.0
H2507 H 0.84386 0.1006 0.81539 0.0
H2508 H 0.88001 0.0352 0.79186 0.0
H2509 H 0.95497 0.12032 0.78821 0.0
C2510 C 0.99159 0.20504 0.79904 0.0
C2511 C 0.00654 0.24575 0.80543 0.0
C2512 C 0.94397 0.15914 0.8 0.0
C2513 C 0.97187 0.2422 0.81236 0.0
C2514 C 0.92429 0.19646 0.8134 0.0
C2515 C 0.86742 0.10571 0.80931 0.0
C2516 C 0.85739 0.0622 0.80395 0.0
C2517 C 0.91095 0.15412 0.80747 0.0
C2518 C 0.88729 0.06852 0.79602 0.0
C2519 C 0.9304 0.11688 0.79404 0.0
H2520 H 0.11798 0.95503 0.30784 0.0
H2521 H 0.26813 0.96633 0.30554 0.0
H2522 H 0.31125 0.05845 0.30874 0.0
H2523 H 0.30775 0.1376 0.31163 0.0
H2524 H 0.15974 0.12996 0.31305 0.0
H2525 H 0.11465 0.03559 0.31084 0.0
C2526 C 0.16003 0.97783 0.30803 0.0
C2527 C 0.1895 0.95376 0.30633 0.0
C2528 C 0.18525 0.03173 0.30975 0.0
C2529 C 0.24417 0.98381 0.30664 0.0
C2530 C 0.26918 0.03667 0.30854 0.0
C2531 C 0.26569 0.11492 0.31157 0.0
C2532 C 0.23703 0.14016 0.31248 0.0
C2533 C 0.24026 0.06116 0.31004 0.0
C2534 C 0.18244 0.11092 0.31228 0.0
C2535 C 0.15671 0.0571 0.31102 0.0
H2536 H 0.06258 0.28666 0.30741 0.0
H2537 H 0.10651 0.16861 0.3073 0.0
H2538 H 0.01515 0.10107 0.30896 0.0
H2539 H 0.92292 0.07617 0.31043 0.0
H2540 H 0.88031 0.19503 0.31112 0.0
H2541 H 0.97148 0.26216 0.30933 0.0
C2542 C 0.0522 0.24611 0.3077 0.0
C2543 C 0.09112 0.23249 0.30715 0.0
C2544 C 1.0 0.2079 0.30881 0.0
C2545 C 0.07718 0.17994 0.30771 0.0
C2546 C 0.02502 0.14143 0.30865 0.0
C2547 C 0.93368 0.11678 0.31013 0.0
C2548 C 0.89504 0.13078 0.31083 0.0
C2549 C 0.98614 0.15501 0.30919 0.0
C2550 C 0.90946 0.1835 0.31064 0.0
C2551 C 0.96146 0.22175 0.30957 0.0
H2552 H 0.97501 0.86812 0.31024 0.0
H2553 H 0.85707 0.7062 0.3095 0.0
H2554 H 0.79041 0.72984 0.30682 0.0
H2555 H 0.76583 0.79592 0.30481 0.0
H2556 H 0.88192 0.95853 0.30629 0.0
H2557 H 0.94968 0.93532 0.30846 0.0
C2558 C 0.9347 0.83817 0.30943 0.0
C2559 C 0.92078 0.78549 0.31005 0.0
C2560 C 0.89659 0.85216 0.308 0.0
C2561 C 0.86846 0.74692 0.30915 0.0
C2562 C 0.8305 0.76043 0.30756 0.0
C2563 C 0.80601 0.82645 0.30552 0.0
C2564 C 0.81899 0.8789 0.3053 0.0
C2565 C 0.84416 0.81284 0.30698 0.0
C2566 C 0.87107 0.91789 0.3064 0.0
C2567 C 0.9097 0.90461 0.30766 0.0
H2568 H 0.3738 0.82767 0.88906 0.0
H2569 H 0.44364 0.98125 0.90085 0.0
H2570 H 0.53025 0.99327 0.89833 0.0
H2571 H 0.58491 0.95519 0.89479 0.0
H2572 H 0.514 0.79852 0.88428 0.0
H2573 H 0.42919 0.79281 0.88404 0.0
C2574 C 0.40812 0.86413 0.89084 0.0
C2575 C 0.40268 0.90329 0.89521 0.0
C2576 C 0.45753 0.87002 0.88965 0.0
C2577 C 0.4472 0.95032 0.89761 0.0
C2578 C 0.4966 0.95721 0.89616 0.0
C2579 C 0.55105 0.92043 0.89221 0.0
C2580 C 0.55532 0.87731 0.88959 0.0
C2581 C 0.50215 0.91663 0.89248 0.0
C2582 C 0.51128 0.83209 0.88638 0.0
C2583 C 0.46284 0.82873 0.88628 0.0
H2584 H 0.21926 0.71174 0.88582 0.0
H2585 H 0.05421 0.64753 0.88936 0.0
H2586 H 0.04247 0.56059 0.89093 0.0
H2587 H 0.08105 0.50525 0.89342 0.0
H2588 H 0.24574 0.5695 0.88993 0.0
H2589 H 0.256 0.65435 0.88617 0.0
C2590 C 0.18064 0.67852 0.88676 0.0
C2591 C 0.13784 0.68582 0.88765 0.0
C2592 C 0.17431 0.629 0.88779 0.0
C2593 C 0.08781 0.64267 0.8887 0.0
C2594 C 0.08109 0.59308 0.88967 0.0
C2595 C 0.11892 0.53794 0.89175 0.0
C2596 C 0.16268 0.53206 0.89208 0.0
C2597 C 0.12434 0.58621 0.8896 0.0
C2598 C 0.21167 0.57376 0.88972 0.0
C2599 C 0.21752 0.62208 0.88761 0.0
H2600 H 0.39284 0.44297 0.89465 0.0
H2601 H 0.31926 0.5166 0.88038 0.0
H2602 H 0.39829 0.60111 0.88183 0.0
H2603 H 0.48261 0.65495 0.88926 0.0
H2604 H 0.5538 0.58255 0.90466 0.0
H2605 H 0.48142 0.49661 0.90075 0.0
C2606 C 0.39494 0.47738 0.8916 0.0
C2607 C 0.35086 0.47401 0.88738 0.0
C2608 C 0.43954 0.52608 0.89288 0.0
C2609 C 0.35315 0.51869 0.88363 0.0
C2610 C 0.39807 0.56693 0.88452 0.0
C2611 C 0.48284 0.62036 0.89157 0.0
C2612 C 0.52303 0.62498 0.89733 0.0
C2613 C 0.44069 0.57131 0.88946 0.0
C2614 C 0.52265 0.57985 0.90037 0.0
C2615 C 0.48147 0.53076 0.8981 0.0
H2616 H 0.87693 0.93629 0.72133 0.0
H2617 H 0.71542 0.89334 0.72228 0.0
H2618 H 0.73984 0.98465 0.72376 0.0
H2619 H 0.80633 0.07589 0.72477 0.0
H2620 H 0.96847 0.12142 0.72313 0.0
H2621 H 0.94464 0.0296 0.722 0.0
C2622 C 0.8472 0.94704 0.72192 0.0
C2623 C 0.79434 0.90808 0.72173 0.0
C2624 C 0.86164 0.99984 0.72266 0.0
C2625 C 0.7562 0.92257 0.72233 0.0
C2626 C 0.77019 0.97471 0.72322 0.0
C2627 C 0.8367 0.06594 0.72422 0.0
C2628 C 0.88921 0.1055 0.72413 0.0
C2629 C 0.82269 0.01356 0.7234 0.0
C2630 C 0.92782 0.09173 0.72326 0.0
C2631 C 0.91415 0.03928 0.7226 0.0
H2632 H 0.99584 0.77261 0.72578 0.0
H2633 H 0.9517 0.89059 0.72531 0.0
H2634 H 0.04266 0.95757 0.72289 0.0
H2635 H 0.1343 0.98183 0.72083 0.0
H2636 H 0.17684 0.86285 0.72075 0.0
H2637 H 0.08618 0.79634 0.72334 0.0
C2638 C 0.00605 0.81303 0.72521 0.0
C2639 C 0.96727 0.82682 0.72582 0.0
C2640 C 0.05786 0.85081 0.72365 0.0
C2641 C 0.98098 0.87916 0.7249 0.0
C2642 C 0.03286 0.91733 0.72351 0.0
C2643 C 0.12365 0.94134 0.72144 0.0
C2644 C 0.16206 0.92709 0.72067 0.0
C2645 C 0.07155 0.90351 0.72287 0.0
C2646 C 0.14779 0.87451 0.72126 0.0
C2647 C 0.09614 0.83666 0.7228 0.0
H2648 H 0.29374 0.26405 0.72426 0.0
H2649 H 0.17462 0.10235 0.72395 0.0
H2650 H 0.10819 0.12744 0.72171 0.0
H2651 H 0.08463 0.19595 0.71973 0.0
H2652 H 0.20535 0.35683 0.71926 0.0
H2653 H 0.2709 0.33143 0.72184 0.0
C2654 C 0.25319 0.23413 0.72377 0.0
C2655 C 0.23904 0.18135 0.72438 0.0
C2656 C 0.2157 0.2488 0.72229 0.0
C2657 C 0.18646 0.1432 0.72354 0.0
C2658 C 0.14856 0.15758 0.72226 0.0
C2659 C 0.12529 0.22536 0.72024 0.0
C2660 C 0.14022 0.27832 0.71936 0.0
C2661 C 0.16279 0.21031 0.72161 0.0
C2662 C 0.19306 0.31597 0.71986 0.0
C2663 C 0.23042 0.30143 0.72138 0.0
H2664 H 0.6034 0.08081 0.13667 0.0
H2665 H 0.69782 0.24767 0.13891 0.0
H2666 H 0.61995 0.25414 0.14107 0.0
H2667 H 0.52578 0.21232 0.14259 0.0
H2668 H 0.43159 0.04513 0.14085 0.0
H2669 H 0.50963 0.03872 0.13871 0.0
C2670 C 0.60716 0.11861 0.13774 0.0
C2671 C 0.65649 0.16362 0.13769 0.0
C2672 C 0.56255 0.12188 0.13926 0.0
C2673 C 0.66041 0.21241 0.13881 0.0
C2674 C 0.61594 0.2161 0.14016 0.0
C2675 C 0.52224 0.17435 0.14185 0.0
C2676 C 0.473 0.12921 0.14189 0.0
C2677 C 0.56696 0.17103 0.14048 0.0
C2678 C 0.46909 0.0804 0.1409 0.0
C2679 C 0.5136 0.07675 0.1396 0.0
H2680 H 0.82783 0.33685 0.14161 0.0
H2681 H 0.99513 0.40949 0.14137 0.0
H2682 H 0.00261 0.4948 0.14007 0.0
H2683 H 0.96182 0.54758 0.13814 0.0
H2684 H 0.79475 0.47584 0.13888 0.0
H2685 H 0.78703 0.39053 0.14043 0.0
C2686 C 0.866 0.37136 0.14139 0.0
C2687 C 0.91089 0.3669 0.14158 0.0
C2688 C 0.87002 0.42009 0.1405 0.0
C2689 C 0.96 0.41193 0.14128 0.0
C2690 C 0.9643 0.46064 0.14046 0.0
C2691 C 0.92365 0.51353 0.13877 0.0
C2692 C 0.87899 0.51835 0.13843 0.0
C2693 C 0.91957 0.46499 0.13992 0.0
C2694 C 0.82982 0.4734 0.139 0.0
C2695 C 0.82537 0.42462 0.13999 0.0
H2696 H 0.70891 0.51854 0.14163 0.0
H2697 H 0.63461 0.61168 0.1414 0.0
H2698 H 0.54979 0.53308 0.1401 0.0
H2699 H 0.49778 0.4391 0.1384 0.0
H2700 H 0.57126 0.3454 0.13915 0.0
H2701 H 0.65627 0.42391 0.14041 0.0
C2702 C 0.67416 0.52173 0.1414 0.0
C2703 C 0.678 0.57088 0.14163 0.0
C2704 C 0.62577 0.4766 0.14051 0.0
C2705 C 0.63265 0.5743 0.1413 0.0
C2706 C 0.58424 0.52945 0.14047 0.0
C2707 C 0.53223 0.43562 0.13895 0.0
C2708 C 0.52802 0.38633 0.13876 0.0
C2709 C 0.58052 0.48058 0.13996 0.0
C2710 C 0.57333 0.38278 0.13918 0.0
C2711 C 0.62188 0.42762 0.14002 0.0
H2712 H 0.90865 0.32029 0.63866 0.0
H2713 H 0.74629 0.27466 0.63916 0.0
H2714 H 0.76973 0.3654 0.64194 0.0
H2715 H 0.83703 0.45765 0.64435 0.0
H2716 H 0.9986 0.50059 0.64458 0.0
H2717 H 0.97476 0.41047 0.6415 0.0
C2718 C 0.8782 0.33007 0.63929 0.0
C2719 C 0.82572 0.29082 0.63857 0.0
C2720 C 0.89194 0.38173 0.64111 0.0
C2721 C 0.78692 0.30417 0.63962 0.0
C2722 C 0.80036 0.356 0.64123 0.0
C2723 C 0.86694 0.4472 0.64369 0.0
C2724 C 0.91963 0.48582 0.64465 0.0
C2725 C 0.8528 0.39509 0.642 0.0
C2726 C 0.95792 0.4716 0.64394 0.0
C2727 C 0.94427 0.42016 0.64212 0.0
H2728 H 0.71928 0.62179 0.64021 0.0
H2729 H 0.76319 0.50388 0.64196 0.0
H2730 H 0.6716 0.43682 0.64362 0.0
H2731 H 0.57934 0.41243 0.64453 0.0
H2732 H 0.53699 0.53142 0.64327 0.0
H2733 H 0.62836 0.59799 0.64156 0.0
C2734 C 0.70891 0.58137 0.6409 0.0
C2735 C 0.7478 0.56762 0.64086 0.0
C2736 C 0.65669 0.54354 0.642 0.0
C2737 C 0.73384 0.51529 0.64194 0.0
C2738 C 0.68159 0.47707 0.64289 0.0
C2739 C 0.59022 0.45293 0.64383 0.0
C2740 C 0.55164 0.46717 0.64395 0.0
C2741 C 0.64274 0.49083 0.64291 0.0
C2742 C 0.56613 0.51977 0.64324 0.0
C2743 C 0.61822 0.55767 0.64221 0.0
H2744 H 0.63063 0.19846 0.64322 0.0
H2745 H 0.51033 0.03738 0.64376 0.0
H2746 H 0.44413 0.06268 0.64219 0.0
H2747 H 0.42066 0.12991 0.64041 0.0
H2748 H 0.53946 0.29174 0.64043 0.0
H2749 H 0.60644 0.26689 0.64202 0.0
C2750 C 0.5899 0.16899 0.64294 0.0
C2751 C 0.57529 0.116 0.64353 0.0
C2752 C 0.55205 0.18396 0.64213 0.0
C2753 C 0.52241 0.07826 0.64337 0.0
C2754 C 0.48465 0.09274 0.64243 0.0
C2755 C 0.46123 0.15992 0.64072 0.0
C2756 C 0.47515 0.21265 0.64019 0.0
C2757 C 0.49907 0.14537 0.64176 0.0
C2758 C 0.5278 0.25093 0.64079 0.0
C2759 C 0.56601 0.23668 0.64169 0.0
H2760 H 0.10697 0.28811 0.22513 0.0
H2761 H 0.01228 0.12085 0.22436 0.0
H2762 H 0.09045 0.11379 0.22311 0.0
H2763 H 0.18547 0.15556 0.22215 0.0
H2764 H 0.2785 0.32319 0.22214 0.0
H2765 H 0.20019 0.32957 0.22325 0.0
C2766 C 0.10299 0.24998 0.22452 0.0
C2767 C 0.05357 0.20513 0.22476 0.0
C2768 C 0.14766 0.24632 0.22349 0.0
C2769 C 0.04971 0.15607 0.22429 0.0
C2770 C 0.09438 0.15202 0.22347 0.0
C2771 C 0.18861 0.19352 0.22227 0.0
C2772 C 0.23775 0.23887 0.22208 0.0
C2773 C 0.1435 0.19696 0.22301 0.0
C2774 C 0.24117 0.28771 0.22224 0.0
C2775 C 0.19647 0.29141 0.22296 0.0
H2776 H 0.87535 0.03676 0.21576 0.0
H2777 H 0.71325 0.96445 0.22314 0.0
H2778 H 0.70907 0.88064 0.22472 0.0
H2779 H 0.7548 0.8313 0.22618 0.0
H2780 H 0.91703 0.90399 0.21917 0.0
H2781 H 0.91796 0.98448 0.21517 0.0
C2782 C 0.83885 0.00243 0.21754 0.0
C2783 C 0.7949 0.00681 0.21948 0.0
C2784 C 0.837 0.95476 0.21861 0.0
C2785 C 0.74765 0.96203 0.22163 0.0
C2786 C 0.74534 0.91421 0.22262 0.0
C2787 C 0.79008 0.86472 0.22368 0.0
C2788 C 0.83598 0.86243 0.22311 0.0
C2789 C 0.79028 0.91068 0.22148 0.0
C2790 C 0.88134 0.90521 0.21966 0.0
C2791 C 0.8819 0.95116 0.21743 0.0
H2792 H 0.00961 0.8586 0.2202 0.0
H2793 H 0.07828 0.76184 0.22423 0.0
H2794 H 0.16338 0.83927 0.22645 0.0
H2795 H 0.21588 0.93312 0.22843 0.0
H2796 H 0.14747 0.02991 0.22401 0.0
H2797 H 0.0634 0.95287 0.22122 0.0
C2798 C 0.0433 0.8544 0.22145 0.0
C2799 C 0.03779 0.80469 0.2221 0.0
C2800 C 0.09154 0.89874 0.22291 0.0
C2801 C 0.08171 0.79977 0.22365 0.0
C2802 C 0.13015 0.84393 0.22502 0.0
C2803 C 0.18294 0.93768 0.22672 0.0
C2804 C 0.18829 0.98747 0.22643 0.0
C2805 C 0.13516 0.89345 0.22486 0.0
C2806 C 0.14458 0.99223 0.22443 0.0
C2807 C 0.09656 0.9482 0.22272 0.0
loop_
_geom_bond_atom_site_label_1
_geom_bond_atom_site_label_2
_geom_bond_distance
_geom_bond_site_symmetry_2
_ccdc_geom_bond_type
Co0 N5 2.057 . S
Co0 O17 2.021 . S
Co0 O20 2.062 . S
Co0 O24 2.117 . S
Co0 O25 2.025 . S
C1 O21 1.259 1_545 S
C1 O24 1.258 . S
Co2 N11 2.057 . S
Co2 O18 2.117 1_565 S
Co2 O19 2.020 1_565 S
Co2 O21 2.021 . S
Co2 O26 2.062 . S
C3 N5 1.316 . S
C3 N6 1.347 . S
C3 H8 0.931 . S
C4 N5 1.375 . S
C4 C7 1.350 . S
C4 H9 0.930 . S
N5 Co0 2.057 . S
N5 C3 1.316 . S
N5 C4 1.375 . S
N6 C3 1.347 . S
N6 C7 1.373 . S
C7 C4 1.350 . S
C7 N6 1.373 . S
C7 H28 0.931 . S
H8 C3 0.931 . S
H9 C4 0.930 . S
C10 O17 1.259 . S
C10 O18 1.258 . S
N11 Co2 2.057 . S
N11 C12 1.316 . S
N11 C13 1.375 . S
C12 N11 1.316 . S
C12 N14 1.347 . S
C12 H23 0.931 . S
C13 N11 1.375 . S
C13 C15 1.350 . S
C13 H22 0.930 . S
N14 C12 1.347 . S
N14 C15 1.373 . S
C15 C13 1.350 . S
C15 N14 1.373 . S
C15 H29 0.931 . S
C16 O19 1.256 . S
C16 O20 1.255 . S
O17 Co0 2.021 . S
O17 C10 1.259 . S
O18 Co2 2.117 1_545 S
O18 C10 1.258 . S
O19 Co2 2.020 1_545 S
O19 C16 1.256 . S
O20 Co0 2.062 . S
O20 C16 1.255 . S
O21 C1 1.259 1_565 S
O21 Co2 2.021 . S
H22 C13 0.930 . S
H23 C12 0.931 . S
O24 Co0 2.117 . S
O24 C1 1.258 . S
O25 Co0 2.025 . S
O25 C27 1.245 1_545 S
O26 Co2 2.062 . S
O26 C27 1.255 . S
C27 O25 1.245 1_565 S
C27 O26 1.255 . S
H28 C7 0.931 . S
H29 C15 0.931 . S
Co30 N35 2.057 . S
Co30 O47 2.021 . S
Co30 O50 2.062 . S
Co30 O54 2.117 . S
Co30 O55 2.020 1_655 S
C31 O51 1.259 . S
C31 O54 1.258 1_455 S
Co32 N41 2.057 . S
Co32 O48 2.117 . S
Co32 O49 2.020 1_455 S
Co32 O51 2.021 . S
Co32 O56 2.062 . S
C33 N35 1.316 . S
C33 N36 1.347 . S
C33 H38 0.931 . S
C34 N35 1.375 . S
C34 C37 1.350 . S
C34 H39 0.930 . S
N35 Co30 2.057 . S
N35 C33 1.316 . S
N35 C34 1.375 . S
N36 C33 1.347 . S
N36 C37 1.373 . S
C37 C34 1.350 . S
C37 N36 1.373 . S
C37 H58 0.931 . S
H38 C33 0.931 . S
H39 C34 0.930 . S
C40 O47 1.259 1_455 S
C40 O48 1.258 . S
N41 Co32 2.057 . S
N41 C42 1.316 . S
N41 C43 1.375 . S
C42 N41 1.316 . S
C42 N44 1.347 . S
C42 H53 0.931 . S
C43 N41 1.375 . S
C43 C45 1.350 . S
C43 H52 0.930 . S
N44 C42 1.347 . S
N44 C45 1.373 . S
C45 C43 1.350 . S
C45 N44 1.373 . S
C45 H59 0.931 . S
C46 O49 1.256 . S
C46 O50 1.255 . S
O47 Co30 2.021 . S
O47 C40 1.259 1_655 S
O48 Co32 2.117 . S
O48 C40 1.258 . S
O49 Co32 2.020 1_655 S
O49 C46 1.256 . S
O50 Co30 2.062 . S
O50 C46 1.255 . S
O51 C31 1.259 . S
O51 Co32 2.021 . S
H52 C43 0.930 . S
H53 C42 0.931 . S
O54 Co30 2.117 . S
O54 C31 1.258 1_655 S
O55 Co30 2.020 1_455 S
O55 C57 1.256 . S
O56 Co32 2.062 . S
O56 C57 1.255 . S
C57 O55 1.256 . S
C57 O56 1.255 . S
H58 C37 0.931 . S
H59 C45 0.931 . S
Co60 N65 2.057 . S
Co60 O77 2.021 . S
Co60 O80 2.062 . S
Co60 O84 2.117 . S
Co60 O85 2.020 . S
C61 O81 1.259 . S
C61 O84 1.258 . S
Co62 N71 2.057 . S
Co62 O78 2.117 . S
Co62 O79 2.020 . S
Co62 O81 2.021 . S
Co62 O86 2.062 . S
C63 N65 1.316 . S
C63 N66 1.347 . S
C63 H68 0.931 . S
C64 N65 1.375 . S
C64 C67 1.350 . S
C64 H69 0.930 . S
N65 Co60 2.057 . S
N65 C63 1.316 . S
N65 C64 1.375 . S
N66 C63 1.347 . S
N66 C67 1.373 . S
C67 C64 1.350 . S
C67 N66 1.373 . S
C67 H88 0.931 . S
H68 C63 0.931 . S
H69 C64 0.930 . S
C70 O77 1.259 . S
C70 O78 1.258 . S
N71 Co62 2.057 . S
N71 C72 1.316 . S
N71 C73 1.375 . S
C72 N71 1.316 . S
C72 N74 1.347 . S
C72 H83 0.931 . S
C73 N71 1.375 . S
C73 C75 1.350 . S
C73 H82 0.930 . S
N74 C72 1.347 . S
N74 C75 1.373 . S
C75 C73 1.350 . S
C75 N74 1.373 . S
C75 H89 0.931 . S
C76 O79 1.256 . S
C76 O80 1.255 . S
O77 Co60 2.021 . S
O77 C70 1.259 . S
O78 Co62 2.117 . S
O78 C70 1.258 . S
O79 Co62 2.020 . S
O79 C76 1.256 . S
O80 Co60 2.062 . S
O80 C76 1.255 . S
O81 C61 1.259 . S
O81 Co62 2.021 . S
H82 C73 0.930 . S
H83 C72 0.931 . S
O84 Co60 2.117 . S
O84 C61 1.258 . S
O85 Co60 2.020 . S
O85 C87 1.256 . S
O86 Co62 2.062 . S
O86 C87 1.255 . S
C87 O85 1.256 . S
C87 O86 1.255 . S
H88 C67 0.931 . S
H89 C75 0.931 . S
Co90 N95 2.057 . S
Co90 O107 2.021 . S
Co90 O110 2.062 . S
Co90 O114 2.117 1_655 S
Co90 O115 2.020 1_655 S
C91 O111 1.259 . S
C91 O114 1.258 . S
Co92 N101 2.057 . S
Co92 O108 2.117 . S
Co92 O109 2.037 . S
Co92 O111 2.021 . S
Co92 O116 2.062 . S
C93 N95 1.316 . S
C93 N96 1.347 . S
C93 H98 0.931 . S
C94 N95 1.375 . S
C94 C97 1.350 . S
C94 H99 0.930 . S
N95 Co90 2.057 . S
N95 C93 1.316 . S
N95 C94 1.375 . S
N96 C93 1.347 . S
N96 C97 1.373 . S
C97 C94 1.350 . S
C97 N96 1.373 . S
C97 H118 0.931 . S
H98 C93 0.931 . S
H99 C94 0.930 . S
C100 O107 1.259 1_455 S
C100 O108 1.258 . S
N101 Co92 2.057 . S
N101 C102 1.316 . S
N101 C103 1.375 . S
C102 N101 1.316 . S
C102 N104 1.347 . S
C102 H113 0.931 . S
C103 N101 1.375 . S
C103 C105 1.350 . S
C103 H112 0.930 . S
N104 C102 1.347 . S
N104 C105 1.373 . S
C105 C103 1.350 . S
C105 N104 1.373 . S
C105 H119 0.931 . S
C106 O109 1.245 1_655 S
C106 O110 1.255 . S
O107 Co90 2.021 . S
O107 C100 1.259 1_655 S
O108 Co92 2.117 . S
O108 C100 1.258 . S
O109 Co92 2.037 . S
O109 C106 1.245 1_455 S
O110 Co90 2.062 . S
O110 C106 1.255 . S
O111 C91 1.259 . S
O111 Co92 2.021 . S
H112 C103 0.930 . S
H113 C102 0.931 . S
O114 Co90 2.117 1_455 S
O114 C91 1.258 . S
O115 Co90 2.020 1_455 S
O115 C117 1.256 . S
O116 Co92 2.062 . S
O116 C117 1.255 . S
C117 O115 1.256 . S
C117 O116 1.255 . S
H118 C97 0.931 . S
H119 C105 0.931 . S
Co120 N125 2.057 . S
Co120 O137 2.021 . S
Co120 O140 2.062 . S
Co120 O144 2.117 . S
Co120 O145 2.020 . S
C121 O141 1.259 . S
C121 O144 1.258 . S
Co122 N131 2.057 . S
Co122 O138 2.117 . S
Co122 O139 2.020 . S
Co122 O141 2.021 . S
Co122 O146 2.062 . S
C123 N125 1.316 . S
C123 N126 1.347 . S
C123 H128 0.931 . S
C124 N125 1.375 . S
C124 C127 1.350 . S
C124 H129 0.930 . S
N125 Co120 2.057 . S
N125 C123 1.316 . S
N125 C124 1.375 . S
N126 C123 1.347 . S
N126 C127 1.373 . S
C127 C124 1.350 . S
C127 N126 1.373 . S
C127 H148 0.931 . S
H128 C123 0.931 . S
H129 C124 0.930 . S
C130 O137 1.259 . S
C130 O138 1.258 . S
N131 Co122 2.057 . S
N131 C132 1.316 . S
N131 C133 1.375 . S
C132 N131 1.316 . S
C132 N134 1.347 . S
C132 H143 0.931 . S
C133 N131 1.375 . S
C133 C135 1.350 . S
C133 H142 0.930 . S
N134 C132 1.347 . S
N134 C135 1.373 . S
C135 C133 1.350 . S
C135 N134 1.373 . S
C135 H149 0.931 . S
C136 O139 1.256 . S
C136 O140 1.255 . S
O137 Co120 2.021 . S
O137 C130 1.259 . S
O138 Co122 2.117 . S
O138 C130 1.258 . S
O139 Co122 2.020 . S
O139 C136 1.256 . S
O140 Co120 2.062 . S
O140 C136 1.255 . S
O141 C121 1.259 . S
O141 Co122 2.021 . S
H142 C133 0.930 . S
H143 C132 0.931 . S
O144 Co120 2.117 . S
O144 C121 1.258 . S
O145 Co120 2.020 . S
O145 C147 1.256 . S
O146 Co122 2.062 . S
O146 C147 1.255 . S
C147 O145 1.256 . S
C147 O146 1.255 . S
H148 C127 0.931 . S
H149 C135 0.931 . S
Co150 N155 2.057 . S
Co150 O167 2.021 . S
Co150 O170 2.062 . S
Co150 O174 2.117 . S
Co150 O175 2.020 1_545 S
C151 O171 1.259 1_545 S
C151 O174 1.258 . S
Co152 N161 2.057 . S
Co152 O168 2.117 . S
Co152 O169 2.020 1_565 S
Co152 O171 2.021 . S
Co152 O176 2.062 . S
C153 N155 1.316 . S
C153 N156 1.347 . S
C153 H158 0.931 . S
C154 N155 1.375 . S
C154 C157 1.350 . S
C154 H159 0.930 . S
N155 Co150 2.057 . S
N155 C153 1.316 . S
N155 C154 1.375 . S
N156 C153 1.347 . S
N156 C157 1.373 . S
C157 C154 1.350 . S
C157 N156 1.373 . S
C157 H178 0.931 . S
H158 C153 0.931 . S
H159 C154 0.930 . S
C160 O167 1.259 . S
C160 O168 1.258 1_545 S
N161 Co152 2.057 . S
N161 C162 1.316 . S
N161 C163 1.375 . S
C162 N161 1.316 . S
C162 N164 1.347 . S
C162 H173 0.931 . S
C163 N161 1.375 . S
C163 C165 1.350 . S
C163 H172 0.930 . S
N164 C162 1.347 . S
N164 C165 1.373 . S
C165 C163 1.350 . S
C165 N164 1.373 . S
C165 H179 0.931 . S
C166 O169 1.256 . S
C166 O170 1.255 . S
O167 Co150 2.021 . S
O167 C160 1.259 . S
O168 Co152 2.117 . S
O168 C160 1.258 1_565 S
O169 Co152 2.020 1_545 S
O169 C166 1.256 . S
O170 Co150 2.062 . S
O170 C166 1.255 . S
O171 C151 1.259 1_565 S
O171 Co152 2.021 . S
H172 C163 0.930 . S
H173 C162 0.931 . S
O174 Co150 2.117 . S
O174 C151 1.258 . S
O175 Co150 2.020 1_565 S
O175 C177 1.256 . S
O176 Co152 2.062 . S
O176 C177 1.255 . S
C177 O175 1.256 . S
C177 O176 1.255 . S
H178 C157 0.931 . S
H179 C165 0.931 . S
Co180 N185 2.057 . S
Co180 O197 2.021 . S
Co180 O200 2.062 . S
Co180 O204 2.117 . S
Co180 O205 2.020 1_545 S
C181 O201 1.259 1_545 S
C181 O204 1.258 . S
Co182 N191 2.057 . S
Co182 O198 2.117 . S
Co182 O199 2.020 1_565 S
Co182 O201 2.021 . S
Co182 O206 2.062 . S
C183 N185 1.316 . S
C183 N186 1.347 . S
C183 H188 0.931 . S
C184 N185 1.375 . S
C184 C187 1.350 . S
C184 H189 0.930 . S
N185 Co180 2.057 . S
N185 C183 1.316 . S
N185 C184 1.375 . S
N186 C183 1.347 . S
N186 C187 1.373 . S
C187 C184 1.350 . S
C187 N186 1.373 . S
C187 H208 0.931 . S
H188 C183 0.931 . S
H189 C184 0.930 . S
C190 O197 1.259 . S
C190 O198 1.258 1_545 S
N191 Co182 2.057 . S
N191 C192 1.316 . S
N191 C193 1.375 . S
C192 N191 1.316 . S
C192 N194 1.347 . S
C192 H203 0.931 . S
C193 N191 1.375 . S
C193 C195 1.350 . S
C193 H202 0.930 . S
N194 C192 1.347 . S
N194 C195 1.373 . S
C195 C193 1.350 . S
C195 N194 1.373 . S
C195 H209 0.931 . S
C196 O199 1.256 . S
C196 O200 1.255 . S
O197 Co180 2.021 . S
O197 C190 1.259 . S
O198 Co182 2.117 . S
O198 C190 1.258 1_565 S
O199 Co182 2.020 1_545 S
O199 C196 1.256 . S
O200 Co180 2.062 . S
O200 C196 1.255 . S
O201 C181 1.259 1_565 S
O201 Co182 2.021 . S
H202 C193 0.930 . S
H203 C192 0.931 . S
O204 Co180 2.117 . S
O204 C181 1.258 . S
O205 Co180 2.020 1_565 S
O205 C207 1.256 . S
O206 Co182 2.062 . S
O206 C207 1.255 . S
C207 O205 1.256 . S
C207 O206 1.255 . S
H208 C187 0.931 . S
H209 C195 0.931 . S
Co210 N215 2.057 . S
Co210 O227 2.021 . S
Co210 O230 2.062 . S
Co210 O234 2.117 1_655 S
Co210 O235 2.020 1_655 S
C211 O231 1.259 . S
C211 O234 1.258 . S
Co212 N221 2.057 . S
Co212 O228 2.117 . S
Co212 O229 2.025 . S
Co212 O231 2.021 . S
Co212 O236 2.062 . S
C213 N215 1.316 . S
C213 N216 1.347 . S
C213 H218 0.931 . S
C214 N215 1.375 . S
C214 C217 1.350 . S
C214 H219 0.930 . S
N215 Co210 2.057 . S
N215 C213 1.316 . S
N215 C214 1.375 . S
N216 C213 1.347 . S
N216 C217 1.373 . S
C217 C214 1.350 . S
C217 N216 1.373 . S
C217 H238 0.931 . S
H218 C213 0.931 . S
H219 C214 0.930 . S
C220 O227 1.259 1_455 S
C220 O228 1.258 . S
N221 Co212 2.057 . S
N221 C222 1.316 . S
N221 C223 1.375 . S
C222 N221 1.316 . S
C222 N224 1.347 . S
C222 H233 0.931 . S
C223 N221 1.375 . S
C223 C225 1.350 . S
C223 H232 0.930 . S
N224 C222 1.347 . S
N224 C225 1.373 . S
C225 C223 1.350 . S
C225 N224 1.373 . S
C225 H239 0.931 . S
C226 O229 1.252 1_655 S
C226 O230 1.255 . S
O227 Co210 2.021 . S
O227 C220 1.259 1_655 S
O228 Co212 2.117 . S
O228 C220 1.258 . S
O229 Co212 2.025 . S
O229 C226 1.252 1_455 S
O230 Co210 2.062 . S
O230 C226 1.255 . S
O231 C211 1.259 . S
O231 Co212 2.021 . S
H232 C223 0.930 . S
H233 C222 0.931 . S
O234 Co210 2.117 1_455 S
O234 C211 1.258 . S
O235 Co210 2.020 1_455 S
O235 C237 1.256 . S
O236 Co212 2.062 . S
O236 C237 1.255 . S
C237 O235 1.256 . S
C237 O236 1.255 . S
H238 C217 0.931 . S
H239 C225 0.931 . S
Co240 N245 2.057 . S
Co240 O257 2.021 . S
Co240 O260 2.062 . S
Co240 O264 2.117 . S
Co240 O265 2.020 . S
C241 O261 1.259 . S
C241 O264 1.258 . S
Co242 N251 2.057 . S
Co242 O258 2.117 . S
Co242 O259 2.020 . S
Co242 O261 2.021 . S
Co242 O266 2.062 . S
C243 N245 1.316 . S
C243 N246 1.347 . S
C243 H248 0.931 . S
C244 N245 1.375 . S
C244 C247 1.350 . S
C244 H249 0.930 . S
N245 Co240 2.057 . S
N245 C243 1.316 . S
N245 C244 1.375 . S
N246 C243 1.347 . S
N246 C247 1.373 . S
C247 C244 1.350 . S
C247 N246 1.373 . S
C247 H268 0.931 . S
H248 C243 0.931 . S
H249 C244 0.930 . S
C250 O257 1.259 . S
C250 O258 1.258 . S
N251 Co242 2.057 . S
N251 C252 1.316 . S
N251 C253 1.375 . S
C252 N251 1.316 . S
C252 N254 1.347 . S
C252 H263 0.931 . S
C253 N251 1.375 . S
C253 C255 1.350 . S
C253 H262 0.930 . S
N254 C252 1.347 . S
N254 C255 1.373 . S
C255 C253 1.350 . S
C255 N254 1.373 . S
C255 H269 0.931 . S
C256 O259 1.256 . S
C256 O260 1.255 . S
O257 Co240 2.021 . S
O257 C250 1.259 . S
O258 Co242 2.117 . S
O258 C250 1.258 . S
O259 Co242 2.020 . S
O259 C256 1.256 . S
O260 Co240 2.062 . S
O260 C256 1.255 . S
O261 C241 1.259 . S
O261 Co242 2.021 . S
H262 C253 0.930 . S
H263 C252 0.931 . S
O264 Co240 2.117 . S
O264 C241 1.258 . S
O265 Co240 2.020 . S
O265 C267 1.256 . S
O266 Co242 2.062 . S
O266 C267 1.255 . S
C267 O265 1.256 . S
C267 O266 1.255 . S
H268 C247 0.931 . S
H269 C255 0.931 . S
Co270 N275 2.057 . S
Co270 O287 2.021 . S
Co270 O290 2.062 . S
Co270 O294 2.117 . S
Co270 O295 2.020 1_655 S
C271 O291 1.259 . S
C271 O294 1.258 1_455 S
Co272 N281 2.057 . S
Co272 O288 2.117 . S
Co272 O289 2.020 1_455 S
Co272 O291 2.021 . S
Co272 O296 2.062 . S
C273 N275 1.316 . S
C273 N276 1.347 . S
C273 H278 0.931 . S
C274 N275 1.375 . S
C274 C277 1.350 . S
C274 H279 0.930 . S
N275 Co270 2.057 . S
N275 C273 1.316 . S
N275 C274 1.375 . S
N276 C273 1.347 . S
N276 C277 1.373 . S
C277 C274 1.350 . S
C277 N276 1.373 . S
C277 H298 0.931 . S
H278 C273 0.931 . S
H279 C274 0.930 . S
C280 O287 1.259 1_455 S
C280 O288 1.258 . S
N281 Co272 2.057 . S
N281 C282 1.316 . S
N281 C283 1.375 . S
C282 N281 1.316 . S
C282 N284 1.347 . S
C282 H293 0.931 . S
C283 N281 1.375 . S
C283 C285 1.350 . S
C283 H292 0.930 . S
N284 C282 1.347 . S
N284 C285 1.373 . S
C285 C283 1.350 . S
C285 N284 1.373 . S
C285 H299 0.931 . S
C286 O289 1.256 . S
C286 O290 1.255 . S
O287 Co270 2.021 . S
O287 C280 1.259 1_655 S
O288 Co272 2.117 . S
O288 C280 1.258 . S
O289 Co272 2.020 1_655 S
O289 C286 1.256 . S
O290 Co270 2.062 . S
O290 C286 1.255 . S
O291 C271 1.259 . S
O291 Co272 2.021 . S
H292 C283 0.930 . S
H293 C282 0.931 . S
O294 Co270 2.117 . S
O294 C271 1.258 1_655 S
O295 Co270 2.020 1_455 S
O295 C297 1.256 . S
O296 Co272 2.062 . S
O296 C297 1.255 . S
C297 O295 1.256 . S
C297 O296 1.255 . S
H298 C277 0.931 . S
H299 C285 0.931 . S
Co300 N305 2.057 . S
Co300 O317 2.021 . S
Co300 O320 2.062 . S
Co300 O324 2.117 . S
Co300 O325 2.020 . S
C301 O321 1.259 . S
C301 O324 1.258 . S
Co302 N311 2.057 . S
Co302 O318 2.117 . S
Co302 O319 2.020 . S
Co302 O321 2.021 . S
Co302 O326 2.062 . S
C303 N305 1.316 . S
C303 N306 1.347 . S
C303 H308 0.931 . S
C304 N305 1.375 . S
C304 C307 1.350 . S
C304 H309 0.930 . S
N305 Co300 2.057 . S
N305 C303 1.316 . S
N305 C304 1.375 . S
N306 C303 1.347 . S
N306 C307 1.373 . S
C307 C304 1.350 . S
C307 N306 1.373 . S
C307 H328 0.931 . S
H308 C303 0.931 . S
H309 C304 0.930 . S
C310 O317 1.259 . S
C310 O318 1.258 . S
N311 Co302 2.057 . S
N311 C312 1.316 . S
N311 C313 1.375 . S
C312 N311 1.316 . S
C312 N314 1.347 . S
C312 H323 0.931 . S
C313 N311 1.375 . S
C313 C315 1.350 . S
C313 H322 0.930 . S
N314 C312 1.347 . S
N314 C315 1.373 . S
C315 C313 1.350 . S
C315 N314 1.373 . S
C315 H329 0.931 . S
C316 O319 1.256 . S
C316 O320 1.255 . S
O317 Co300 2.021 . S
O317 C310 1.259 . S
O318 Co302 2.117 . S
O318 C310 1.258 . S
O319 Co302 2.020 . S
O319 C316 1.256 . S
O320 Co300 2.062 . S
O320 C316 1.255 . S
O321 C301 1.259 . S
O321 Co302 2.021 . S
H322 C313 0.930 . S
H323 C312 0.931 . S
O324 Co300 2.117 . S
O324 C301 1.258 . S
O325 Co300 2.020 . S
O325 C327 1.256 . S
O326 Co302 2.062 . S
O326 C327 1.255 . S
C327 O325 1.256 . S
C327 O326 1.255 . S
H328 C307 0.931 . S
H329 C315 0.931 . S
Co330 N335 2.057 . S
Co330 O347 2.021 . S
Co330 O350 2.062 . S
Co330 O354 2.117 . S
Co330 O355 2.030 . S
C331 O351 1.259 1_545 S
C331 O354 1.258 . S
Co332 N341 2.057 . S
Co332 O348 2.117 1_565 S
Co332 O349 2.020 1_565 S
Co332 O351 2.021 . S
Co332 O356 2.062 . S
C333 N335 1.316 . S
C333 N336 1.347 . S
C333 H338 0.931 . S
C334 N335 1.375 . S
C334 C337 1.350 . S
C334 H339 0.930 . S
N335 Co330 2.057 . S
N335 C333 1.316 . S
N335 C334 1.375 . S
N336 C333 1.347 . S
N336 C337 1.373 . S
C337 C334 1.350 . S
C337 N336 1.373 . S
C337 H358 0.931 . S
H338 C333 0.931 . S
H339 C334 0.930 . S
C340 O347 1.259 . S
C340 O348 1.258 . S
N341 Co332 2.057 . S
N341 C342 1.316 . S
N341 C343 1.375 . S
C342 N341 1.316 . S
C342 N344 1.347 . S
C342 H353 0.931 . S
C343 N341 1.375 . S
C343 C345 1.350 . S
C343 H352 0.930 . S
N344 C342 1.347 . S
N344 C345 1.373 . S
C345 C343 1.350 . S
C345 N344 1.373 . S
C345 H359 0.931 . S
C346 O349 1.256 . S
C346 O350 1.255 . S
O347 Co330 2.021 . S
O347 C340 1.259 . S
O348 Co332 2.117 1_545 S
O348 C340 1.258 . S
O349 Co332 2.020 1_545 S
O349 C346 1.256 . S
O350 Co330 2.062 . S
O350 C346 1.255 . S
O351 C331 1.259 1_565 S
O351 Co332 2.021 . S
H352 C343 0.930 . S
H353 C342 0.931 . S
O354 Co330 2.117 . S
O354 C331 1.258 . S
O355 Co330 2.030 . S
O355 C357 1.235 1_545 S
O356 Co332 2.062 . S
O356 C357 1.255 . S
C357 O355 1.235 1_565 S
C357 O356 1.255 . S
H358 C337 0.931 . S
H359 C345 0.931 . S
Co360 N365 2.057 . S
Co360 O377 2.021 . S
Co360 O380 2.062 . S
Co360 O384 2.117 . S
Co360 O385 2.020 . S
C361 O381 1.259 . S
C361 O384 1.258 . S
Co362 N371 2.057 . S
Co362 O378 2.117 . S
Co362 O379 2.020 . S
Co362 O381 2.021 . S
Co362 O386 2.062 . S
C363 N365 1.316 . S
C363 N366 1.347 . S
C363 H368 0.931 . S
C364 N365 1.375 . S
C364 C367 1.350 . S
C364 H369 0.930 . S
N365 Co360 2.057 . S
N365 C363 1.316 . S
N365 C364 1.375 . S
N366 C363 1.347 . S
N366 C367 1.373 . S
C367 C364 1.350 . S
C367 N366 1.373 . S
C367 H388 0.931 . S
H368 C363 0.931 . S
H369 C364 0.930 . S
C370 O377 1.259 . S
C370 O378 1.258 . S
N371 Co362 2.057 . S
N371 C372 1.316 . S
N371 C373 1.375 . S
C372 N371 1.316 . S
C372 N374 1.347 . S
C372 H383 0.931 . S
C373 N371 1.375 . S
C373 C375 1.350 . S
C373 H382 0.930 . S
N374 C372 1.347 . S
N374 C375 1.373 . S
C375 C373 1.350 . S
C375 N374 1.373 . S
C375 H389 0.931 . S
C376 O379 1.256 . S
C376 O380 1.255 . S
O377 Co360 2.021 . S
O377 C370 1.259 . S
O378 Co362 2.117 . S
O378 C370 1.258 . S
O379 Co362 2.020 . S
O379 C376 1.256 . S
O380 Co360 2.062 . S
O380 C376 1.255 . S
O381 C361 1.259 . S
O381 Co362 2.021 . S
H382 C373 0.930 . S
H383 C372 0.931 . S
O384 Co360 2.117 . S
O384 C361 1.258 . S
O385 Co360 2.020 . S
O385 C387 1.256 . S
O386 Co362 2.062 . S
O386 C387 1.255 . S
C387 O385 1.256 . S
C387 O386 1.255 . S
H388 C367 0.931 . S
H389 C375 0.931 . S
Co390 N395 2.057 . S
Co390 O407 2.021 . S
Co390 O410 2.062 . S
Co390 O414 2.117 . S
Co390 O415 2.020 . S
C391 O411 1.259 . S
C391 O414 1.258 . S
Co392 N401 2.057 . S
Co392 O408 2.117 . S
Co392 O409 2.020 . S
Co392 O411 2.021 . S
Co392 O416 2.062 . S
C393 N395 1.316 . S
C393 N396 1.347 . S
C393 H398 0.931 . S
C394 N395 1.375 . S
C394 C397 1.350 . S
C394 H399 0.930 . S
N395 Co390 2.057 . S
N395 C393 1.316 . S
N395 C394 1.375 . S
N396 C393 1.347 . S
N396 C397 1.373 . S
C397 C394 1.350 . S
C397 N396 1.373 . S
C397 H418 0.931 . S
H398 C393 0.931 . S
H399 C394 0.930 . S
C400 O407 1.259 . S
C400 O408 1.258 . S
N401 Co392 2.057 . S
N401 C402 1.316 . S
N401 C403 1.375 . S
C402 N401 1.316 . S
C402 N404 1.347 1_565 S
C402 H413 0.931 . S
C403 N401 1.375 . S
C403 C405 1.350 1_565 S
C403 H412 0.930 . S
N404 C402 1.347 1_545 S
N404 C405 1.373 . S
C405 C403 1.350 1_545 S
C405 N404 1.373 . S
C405 H419 0.931 . S
C406 O409 1.256 . S
C406 O410 1.255 . S
O407 Co390 2.021 . S
O407 C400 1.259 . S
O408 Co392 2.117 . S
O408 C400 1.258 . S
O409 Co392 2.020 . S
O409 C406 1.256 . S
O410 Co390 2.062 . S
O410 C406 1.255 . S
O411 C391 1.259 . S
O411 Co392 2.021 . S
H412 C403 0.930 . S
H413 C402 0.931 . S
O414 Co390 2.117 . S
O414 C391 1.258 . S
O415 Co390 2.020 . S
O415 C417 1.256 . S
O416 Co392 2.062 . S
O416 C417 1.255 . S
C417 O415 1.256 . S
C417 O416 1.255 . S
H418 C397 0.931 . S
H419 C405 0.931 . S
Co420 N425 2.057 . S
Co420 O437 2.021 . S
Co420 O440 2.062 . S
Co420 O444 2.117 . S
Co420 O445 2.020 . S
C421 O441 1.259 . S
C421 O444 1.258 . S
Co422 N431 2.057 . S
Co422 O438 2.117 . S
Co422 O439 2.020 . S
Co422 O441 2.021 . S
Co422 O446 2.062 . S
C423 N425 1.316 . S
C423 N426 1.347 . S
C423 H428 0.931 . S
C424 N425 1.375 . S
C424 C427 1.350 . S
C424 H429 0.930 . S
N425 Co420 2.057 . S
N425 C423 1.316 . S
N425 C424 1.375 . S
N426 C423 1.347 . S
N426 C427 1.373 . S
C427 C424 1.350 . S
C427 N426 1.373 . S
C427 H448 0.931 . S
H428 C423 0.931 . S
H429 C424 0.930 . S
C430 O437 1.259 . S
C430 O438 1.258 . S
N431 Co422 2.057 . S
N431 C432 1.316 . S
N431 C433 1.375 . S
C432 N431 1.316 . S
C432 N434 1.347 . S
C432 H443 0.931 . S
C433 N431 1.375 . S
C433 C435 1.350 . S
C433 H442 0.930 . S
N434 C432 1.347 . S
N434 C435 1.373 . S
C435 C433 1.350 . S
C435 N434 1.373 . S
C435 H449 0.931 . S
C436 O439 1.256 . S
C436 O440 1.255 . S
O437 Co420 2.021 . S
O437 C430 1.259 . S
O438 Co422 2.117 . S
O438 C430 1.258 . S
O439 Co422 2.020 . S
O439 C436 1.256 . S
O440 Co420 2.062 . S
O440 C436 1.255 . S
O441 C421 1.259 . S
O441 Co422 2.021 . S
H442 C433 0.930 . S
H443 C432 0.931 . S
O444 Co420 2.117 . S
O444 C421 1.258 . S
O445 Co420 2.020 . S
O445 C447 1.256 . S
O446 Co422 2.062 . S
O446 C447 1.255 . S
C447 O445 1.256 . S
C447 O446 1.255 . S
H448 C427 0.931 . S
H449 C435 0.931 . S
Co450 N455 2.057 . S
Co450 O467 2.021 . S
Co450 O470 2.062 . S
Co450 O474 2.117 . S
Co450 O475 2.020 . S
C451 O471 1.259 . S
C451 O474 1.258 . S
Co452 N461 2.057 . S
Co452 O468 2.117 . S
Co452 O469 2.020 . S
Co452 O471 2.021 . S
Co452 O476 2.062 . S
C453 N455 1.316 . S
C453 N456 1.347 . S
C453 H458 0.931 . S
C454 N455 1.375 . S
C454 C457 1.350 . S
C454 H459 0.930 . S
N455 Co450 2.057 . S
N455 C453 1.316 . S
N455 C454 1.375 . S
N456 C453 1.347 . S
N456 C457 1.373 . S
C457 C454 1.350 . S
C457 N456 1.373 . S
C457 H478 0.931 . S
H458 C453 0.931 . S
H459 C454 0.930 . S
C460 O467 1.259 . S
C460 O468 1.258 . S
N461 Co452 2.057 . S
N461 C462 1.316 . S
N461 C463 1.375 . S
C462 N461 1.316 . S
C462 N464 1.347 1_565 S
C462 H473 0.931 . S
C463 N461 1.375 . S
C463 C465 1.350 1_565 S
C463 H472 0.930 . S
N464 C462 1.347 1_545 S
N464 C465 1.373 . S
C465 C463 1.350 1_545 S
C465 N464 1.373 . S
C465 H479 0.931 . S
C466 O469 1.256 . S
C466 O470 1.255 . S
O467 Co450 2.021 . S
O467 C460 1.259 . S
O468 Co452 2.117 . S
O468 C460 1.258 . S
O469 Co452 2.020 . S
O469 C466 1.256 . S
O470 Co450 2.062 . S
O470 C466 1.255 . S
O471 C451 1.259 . S
O471 Co452 2.021 . S
H472 C463 0.930 . S
H473 C462 0.931 . S
O474 Co450 2.117 . S
O474 C451 1.258 . S
O475 Co450 2.020 . S
O475 C477 1.256 . S
O476 Co452 2.062 . S
O476 C477 1.255 . S
C477 O475 1.256 . S
C477 O476 1.255 . S
H478 C457 0.931 . S
H479 C465 0.931 . S
Co480 N485 2.057 . S
Co480 O497 2.021 . S
Co480 O500 2.062 . S
Co480 O504 2.117 . S
Co480 O505 2.020 . S
C481 O501 1.259 . S
C481 O504 1.258 . S
Co482 N491 2.057 . S
Co482 O498 2.117 . S
Co482 O499 2.020 . S
Co482 O501 2.021 . S
Co482 O506 2.062 . S
C483 N485 1.316 . S
C483 N486 1.347 . S
C483 H488 0.931 . S
C484 N485 1.375 . S
C484 C487 1.350 . S
C484 H489 0.930 . S
N485 Co480 2.057 . S
N485 C483 1.316 . S
N485 C484 1.375 . S
N486 C483 1.347 . S
N486 C487 1.373 . S
C487 C484 1.350 . S
C487 N486 1.373 . S
C487 H508 0.931 . S
H488 C483 0.931 . S
H489 C484 0.930 . S
C490 O497 1.259 . S
C490 O498 1.258 . S
N491 Co482 2.057 . S
N491 C492 1.316 . S
N491 C493 1.375 . S
C492 N491 1.316 . S
C492 N494 1.347 . S
C492 H503 0.931 . S
C493 N491 1.375 . S
C493 C495 1.350 . S
C493 H502 0.930 . S
N494 C492 1.347 . S
N494 C495 1.373 . S
C495 C493 1.350 . S
C495 N494 1.373 . S
C495 H509 0.931 1_455 S
C496 O499 1.256 . S
C496 O500 1.255 . S
O497 Co480 2.021 . S
O497 C490 1.259 . S
O498 Co482 2.117 . S
O498 C490 1.258 . S
O499 Co482 2.020 . S
O499 C496 1.256 . S
O500 Co480 2.062 . S
O500 C496 1.255 . S
O501 C481 1.259 . S
O501 Co482 2.021 . S
H502 C493 0.930 . S
H503 C492 0.931 . S
O504 Co480 2.117 . S
O504 C481 1.258 . S
O505 Co480 2.020 . S
O505 C507 1.256 . S
O506 Co482 2.062 . S
O506 C507 1.255 . S
C507 O505 1.256 . S
C507 O506 1.255 . S
H508 C487 0.931 . S
H509 C495 0.931 1_655 S
Co510 N515 2.057 . S
Co510 O527 2.021 . S
Co510 O530 2.062 . S
Co510 O534 2.117 . S
Co510 O535 2.020 . S
C511 O531 1.259 . S
C511 O534 1.258 . S
Co512 N521 2.057 . S
Co512 O528 2.117 . S
Co512 O529 2.020 . S
Co512 O531 2.021 . S
Co512 O536 2.062 . S
C513 N515 1.316 . S
C513 N516 1.347 . S
C513 H518 0.931 . S
C514 N515 1.375 . S
C514 C517 1.350 . S
C514 H519 0.930 . S
N515 Co510 2.057 . S
N515 C513 1.316 . S
N515 C514 1.375 . S
N516 C513 1.347 . S
N516 C517 1.373 . S
C517 C514 1.350 . S
C517 N516 1.373 . S
C517 H538 0.931 . S
H518 C513 0.931 . S
H519 C514 0.930 . S
C520 O527 1.259 . S
C520 O528 1.258 . S
N521 Co512 2.057 . S
N521 C522 1.316 . S
N521 C523 1.375 . S
C522 N521 1.316 . S
C522 N524 1.347 . S
C522 H533 0.931 . S
C523 N521 1.375 . S
C523 C525 1.350 . S
C523 H532 0.930 . S
N524 C522 1.347 . S
N524 C525 1.373 . S
C525 C523 1.350 . S
C525 N524 1.373 . S
C525 H539 0.931 . S
C526 O529 1.256 . S
C526 O530 1.255 . S
O527 Co510 2.021 . S
O527 C520 1.259 . S
O528 Co512 2.117 . S
O528 C520 1.258 . S
O529 Co512 2.020 . S
O529 C526 1.256 . S
O530 Co510 2.062 . S
O530 C526 1.255 . S
O531 C511 1.259 . S
O531 Co512 2.021 . S
H532 C523 0.930 . S
H533 C522 0.931 . S
O534 Co510 2.117 . S
O534 C511 1.258 . S
O535 Co510 2.020 . S
O535 C537 1.256 . S
O536 Co512 2.062 . S
O536 C537 1.255 . S
C537 O535 1.256 . S
C537 O536 1.255 . S
H538 C517 0.931 . S
H539 C525 0.931 . S
Co540 N545 2.057 . S
Co540 O557 2.021 . S
Co540 O560 2.062 . S
Co540 O564 2.117 . S
Co540 O565 2.020 . S
C541 O561 1.259 . S
C541 O564 1.258 . S
Co542 N551 2.057 . S
Co542 O558 2.117 . S
Co542 O559 2.020 . S
Co542 O561 2.021 . S
Co542 O566 2.062 . S
C543 N545 1.316 . S
C543 N546 1.347 . S
C543 H548 0.931 . S
C544 N545 1.375 . S
C544 C547 1.350 . S
C544 H549 0.930 . S
N545 Co540 2.057 . S
N545 C543 1.316 . S
N545 C544 1.375 . S
N546 C543 1.347 . S
N546 C547 1.373 . S
C547 C544 1.350 . S
C547 N546 1.373 . S
C547 H568 0.931 . S
H548 C543 0.931 . S
H549 C544 0.930 . S
C550 O557 1.259 . S
C550 O558 1.258 . S
N551 Co542 2.057 . S
N551 C552 1.316 . S
N551 C553 1.375 . S
C552 N551 1.316 . S
C552 N554 1.347 . S
C552 H563 0.931 . S
C553 N551 1.375 . S
C553 C555 1.350 . S
C553 H562 0.930 . S
N554 C552 1.347 . S
N554 C555 1.373 . S
C555 C553 1.350 . S
C555 N554 1.373 . S
C555 H569 0.931 . S
C556 O559 1.256 . S
C556 O560 1.255 . S
O557 Co540 2.021 . S
O557 C550 1.259 . S
O558 Co542 2.117 . S
O558 C550 1.258 . S
O559 Co542 2.020 . S
O559 C556 1.256 . S
O560 Co540 2.062 . S
O560 C556 1.255 . S
O561 C541 1.259 . S
O561 Co542 2.021 . S
H562 C553 0.930 . S
H563 C552 0.931 . S
O564 Co540 2.117 . S
O564 C541 1.258 . S
O565 Co540 2.020 . S
O565 C567 1.256 . S
O566 Co542 2.062 . S
O566 C567 1.255 . S
C567 O565 1.256 . S
C567 O566 1.255 . S
H568 C547 0.931 . S
H569 C555 0.931 . S
Co570 N575 2.057 . S
Co570 O587 2.021 . S
Co570 O590 2.062 . S
Co570 O594 2.117 . S
Co570 O595 2.020 . S
C571 O591 1.259 . S
C571 O594 1.258 . S
Co572 N581 2.057 1_565 S
Co572 O588 2.117 . S
Co572 O589 2.020 . S
Co572 O591 2.021 . S
Co572 O596 2.062 . S
C573 N575 1.316 . S
C573 N576 1.347 . S
C573 H578 0.931 . S
C574 N575 1.375 . S
C574 C577 1.350 . S
C574 H579 0.930 . S
N575 Co570 2.057 . S
N575 C573 1.316 . S
N575 C574 1.375 . S
N576 C573 1.347 . S
N576 C577 1.373 . S
C577 C574 1.350 . S
C577 N576 1.373 . S
C577 H598 0.931 . S
H578 C573 0.931 . S
H579 C574 0.930 . S
C580 O587 1.259 . S
C580 O588 1.258 . S
N581 Co572 2.057 1_545 S
N581 C582 1.316 . S
N581 C583 1.375 . S
C582 N581 1.316 . S
C582 N584 1.347 . S
C582 H593 0.931 . S
C583 N581 1.375 . S
C583 C585 1.350 . S
C583 H592 0.930 . S
N584 C582 1.347 . S
N584 C585 1.373 . S
C585 C583 1.350 . S
C585 N584 1.373 . S
C585 H599 0.931 . S
C586 O589 1.256 . S
C586 O590 1.255 . S
O587 Co570 2.021 . S
O587 C580 1.259 . S
O588 Co572 2.117 . S
O588 C580 1.258 . S
O589 Co572 2.020 . S
O589 C586 1.256 . S
O590 Co570 2.062 . S
O590 C586 1.255 . S
O591 C571 1.259 . S
O591 Co572 2.021 . S
H592 C583 0.930 . S
H593 C582 0.931 . S
O594 Co570 2.117 . S
O594 C571 1.258 . S
O595 Co570 2.020 . S
O595 C597 1.256 . S
O596 Co572 2.062 . S
O596 C597 1.255 . S
C597 O595 1.256 . S
C597 O596 1.255 . S
H598 C577 0.931 . S
H599 C585 0.931 . S
Co600 N605 2.057 . S
Co600 O617 2.021 . S
Co600 O620 2.062 . S
Co600 O624 2.117 . S
Co600 O625 2.020 . S
C601 O621 1.259 . S
C601 O624 1.258 . S
Co602 N611 2.057 . S
Co602 O618 2.117 . S
Co602 O619 2.020 . S
Co602 O621 2.021 . S
Co602 O626 2.062 . S
C603 N605 1.316 . S
C603 N606 1.347 . S
C603 H608 0.931 . S
C604 N605 1.375 . S
C604 C607 1.350 . S
C604 H609 0.930 . S
N605 Co600 2.057 . S
N605 C603 1.316 . S
N605 C604 1.375 . S
N606 C603 1.347 . S
N606 C607 1.373 . S
C607 C604 1.350 . S
C607 N606 1.373 . S
C607 H628 0.931 . S
H608 C603 0.931 . S
H609 C604 0.930 . S
C610 O617 1.259 . S
C610 O618 1.258 . S
N611 Co602 2.057 . S
N611 C612 1.316 1_455 S
N611 C613 1.375 . S
C612 N611 1.316 1_655 S
C612 N614 1.347 . S
C612 H623 0.931 . S
C613 N611 1.375 . S
C613 C615 1.350 1_455 S
C613 H622 0.930 . S
N614 C612 1.347 . S
N614 C615 1.373 . S
C615 C613 1.350 1_655 S
C615 N614 1.373 . S
C615 H629 0.931 . S
C616 O619 1.256 . S
C616 O620 1.255 . S
O617 Co600 2.021 . S
O617 C610 1.259 . S
O618 Co602 2.117 . S
O618 C610 1.258 . S
O619 Co602 2.020 . S
O619 C616 1.256 . S
O620 Co600 2.062 . S
O620 C616 1.255 . S
O621 C601 1.259 . S
O621 Co602 2.021 . S
H622 C613 0.930 . S
H623 C612 0.931 . S
O624 Co600 2.117 . S
O624 C601 1.258 . S
O625 Co600 2.020 . S
O625 C627 1.256 . S
O626 Co602 2.062 . S
O626 C627 1.255 . S
C627 O625 1.256 . S
C627 O626 1.255 . S
H628 C607 0.931 . S
H629 C615 0.931 . S
Co630 N635 2.057 . S
Co630 O647 2.021 . S
Co630 O650 2.062 . S
Co630 O654 2.117 . S
Co630 O655 2.020 . S
C631 O651 1.259 . S
C631 O654 1.258 . S
Co632 N641 2.057 1_565 S
Co632 O648 2.117 . S
Co632 O649 2.020 . S
Co632 O651 2.021 . S
Co632 O656 2.062 . S
C633 N635 1.316 . S
C633 N636 1.347 . S
C633 H638 0.931 . S
C634 N635 1.375 . S
C634 C637 1.350 . S
C634 H639 0.930 . S
N635 Co630 2.057 . S
N635 C633 1.316 . S
N635 C634 1.375 . S
N636 C633 1.347 . S
N636 C637 1.373 . S
C637 C634 1.350 . S
C637 N636 1.373 . S
C637 H658 0.931 . S
H638 C633 0.931 . S
H639 C634 0.930 . S
C640 O647 1.259 . S
C640 O648 1.258 . S
N641 Co632 2.057 1_545 S
N641 C642 1.316 . S
N641 C643 1.375 . S
C642 N641 1.316 . S
C642 N644 1.347 . S
C642 H653 0.931 . S
C643 N641 1.375 . S
C643 C645 1.350 . S
C643 H652 0.930 . S
N644 C642 1.347 . S
N644 C645 1.373 . S
C645 C643 1.350 . S
C645 N644 1.373 . S
C645 H659 0.931 . S
C646 O649 1.256 . S
C646 O650 1.255 . S
O647 Co630 2.021 . S
O647 C640 1.259 . S
O648 Co632 2.117 . S
O648 C640 1.258 . S
O649 Co632 2.020 . S
O649 C646 1.256 . S
O650 Co630 2.062 . S
O650 C646 1.255 . S
O651 C631 1.259 . S
O651 Co632 2.021 . S
H652 C643 0.930 . S
H653 C642 0.931 . S
O654 Co630 2.117 . S
O654 C631 1.258 . S
O655 Co630 2.020 . S
O655 C657 1.256 . S
O656 Co632 2.062 . S
O656 C657 1.255 . S
C657 O655 1.256 . S
C657 O656 1.255 . S
H658 C637 0.931 . S
H659 C645 0.931 . S
Co660 N665 2.057 . S
Co660 O677 2.021 . S
Co660 O680 2.062 . S
Co660 O684 2.117 . S
Co660 O685 2.020 . S
C661 O681 1.259 . S
C661 O684 1.258 . S
Co662 N671 2.057 . S
Co662 O678 2.117 . S
Co662 O679 2.020 . S
Co662 O681 2.021 . S
Co662 O686 2.062 . S
C663 N665 1.316 . S
C663 N666 1.347 . S
C663 H668 0.931 . S
C664 N665 1.375 . S
C664 C667 1.350 . S
C664 H669 0.930 . S
N665 Co660 2.057 . S
N665 C663 1.316 . S
N665 C664 1.375 . S
N666 C663 1.347 . S
N666 C667 1.373 . S
C667 C664 1.350 . S
C667 N666 1.373 . S
C667 H688 0.931 . S
H668 C663 0.931 . S
H669 C664 0.930 . S
C670 O677 1.259 . S
C670 O678 1.258 . S
N671 Co662 2.057 . S
N671 C672 1.316 . S
N671 C673 1.375 . S
C672 N671 1.316 . S
C672 N674 1.347 1_455 S
C672 H683 0.931 . S
C673 N671 1.375 . S
C673 C675 1.350 1_455 S
C673 H682 0.930 . S
N674 C672 1.347 1_655 S
N674 C675 1.373 . S
C675 C673 1.350 1_655 S
C675 N674 1.373 . S
C675 H689 0.931 . S
C676 O679 1.256 . S
C676 O680 1.255 . S
O677 Co660 2.021 . S
O677 C670 1.259 . S
O678 Co662 2.117 . S
O678 C670 1.258 . S
O679 Co662 2.020 . S
O679 C676 1.256 . S
O680 Co660 2.062 . S
O680 C676 1.255 . S
O681 C661 1.259 . S
O681 Co662 2.021 . S
H682 C673 0.930 . S
H683 C672 0.931 . S
O684 Co660 2.117 . S
O684 C661 1.258 . S
O685 Co660 2.020 . S
O685 C687 1.256 . S
O686 Co662 2.062 . S
O686 C687 1.255 . S
C687 O685 1.256 . S
C687 O686 1.255 . S
H688 C667 0.931 . S
H689 C675 0.931 . S
Co690 N695 2.057 . S
Co690 O707 2.021 . S
Co690 O710 2.062 . S
Co690 O714 2.117 . S
Co690 O715 2.020 . S
C691 O711 1.259 . S
C691 O714 1.258 . S
Co692 N701 2.057 . S
Co692 O708 2.117 . S
Co692 O709 2.020 . S
Co692 O711 2.021 . S
Co692 O716 2.062 . S
C693 N695 1.316 . S
C693 N696 1.347 . S
C693 H698 0.931 . S
C694 N695 1.375 . S
C694 C697 1.350 . S
C694 H699 0.930 . S
N695 Co690 2.057 . S
N695 C693 1.316 . S
N695 C694 1.375 . S
N696 C693 1.347 . S
N696 C697 1.373 . S
C697 C694 1.350 . S
C697 N696 1.373 . S
C697 H718 0.931 . S
H698 C693 0.931 . S
H699 C694 0.930 . S
C700 O707 1.259 . S
C700 O708 1.258 . S
N701 Co692 2.057 . S
N701 C702 1.316 . S
N701 C703 1.375 . S
C702 N701 1.316 . S
C702 N704 1.347 . S
C702 H713 0.931 . S
C703 N701 1.375 . S
C703 C705 1.350 . S
C703 H712 0.930 . S
N704 C702 1.347 . S
N704 C705 1.373 . S
C705 C703 1.350 . S
C705 N704 1.373 . S
C705 H719 0.931 . S
C706 O709 1.256 . S
C706 O710 1.255 . S
O707 Co690 2.021 . S
O707 C700 1.259 . S
O708 Co692 2.117 . S
O708 C700 1.258 . S
O709 Co692 2.020 . S
O709 C706 1.256 . S
O710 Co690 2.062 . S
O710 C706 1.255 . S
O711 C691 1.259 . S
O711 Co692 2.021 . S
H712 C703 0.930 . S
H713 C702 0.931 . S
O714 Co690 2.117 . S
O714 C691 1.258 . S
O715 Co690 2.020 . S
O715 C717 1.256 . S
O716 Co692 2.062 . S
O716 C717 1.255 . S
C717 O715 1.256 . S
C717 O716 1.255 . S
H718 C697 0.931 . S
H719 C705 0.931 . S
Co720 N725 2.057 . S
Co720 O737 2.021 . S
Co720 O740 2.062 . S
Co720 O744 2.117 . S
Co720 O745 2.020 . S
C721 O741 1.259 . S
C721 O744 1.258 . S
Co722 N731 2.057 . S
Co722 O738 2.117 . S
Co722 O739 2.020 . S
Co722 O741 2.021 . S
Co722 O746 2.062 . S
C723 N725 1.316 . S
C723 N726 1.347 . S
C723 H728 0.931 . S
C724 N725 1.375 . S
C724 C727 1.350 . S
C724 H729 0.930 . S
N725 Co720 2.057 . S
N725 C723 1.316 . S
N725 C724 1.375 . S
N726 C723 1.347 . S
N726 C727 1.373 . S
C727 C724 1.350 . S
C727 N726 1.373 . S
C727 H748 0.931 . S
H728 C723 0.931 . S
H729 C724 0.930 . S
C730 O737 1.259 . S
C730 O738 1.258 . S
N731 Co722 2.057 . S
N731 C732 1.316 . S
N731 C733 1.375 . S
C732 N731 1.316 . S
C732 N734 1.347 . S
C732 H743 0.931 . S
C733 N731 1.375 . S
C733 C735 1.350 . S
C733 H742 0.930 . S
N734 C732 1.347 . S
N734 C735 1.373 . S
C735 C733 1.350 . S
C735 N734 1.373 . S
C735 H749 0.931 . S
C736 O739 1.256 . S
C736 O740 1.255 . S
O737 Co720 2.021 . S
O737 C730 1.259 . S
O738 Co722 2.117 . S
O738 C730 1.258 . S
O739 Co722 2.020 . S
O739 C736 1.256 . S
O740 Co720 2.062 . S
O740 C736 1.255 . S
O741 C721 1.259 . S
O741 Co722 2.021 . S
H742 C733 0.930 . S
H743 C732 0.931 . S
O744 Co720 2.117 . S
O744 C721 1.258 . S
O745 Co720 2.020 . S
O745 C747 1.256 . S
O746 Co722 2.062 . S
O746 C747 1.255 . S
C747 O745 1.256 . S
C747 O746 1.255 . S
H748 C727 0.931 . S
H749 C735 0.931 . S
Co750 N755 2.057 . S
Co750 O767 2.021 . S
Co750 O770 2.062 . S
Co750 O774 2.117 . S
Co750 O775 2.020 . S
C751 O771 1.259 . S
C751 O774 1.258 . S
Co752 N761 2.057 . S
Co752 O768 2.117 . S
Co752 O769 2.020 . S
Co752 O771 2.021 . S
Co752 O776 2.062 . S
C753 N755 1.316 1_565 S
C753 N756 1.347 . S
C753 H758 0.931 . S
C754 N755 1.375 . S
C754 C757 1.350 1_545 S
C754 H759 0.930 . S
N755 Co750 2.057 . S
N755 C753 1.316 1_545 S
N755 C754 1.375 . S
N756 C753 1.347 . S
N756 C757 1.373 . S
C757 C754 1.350 1_565 S
C757 N756 1.373 . S
C757 H778 0.931 . S
H758 C753 0.931 . S
H759 C754 0.930 . S
C760 O767 1.259 . S
C760 O768 1.258 . S
N761 Co752 2.057 . S
N761 C762 1.316 . S
N761 C763 1.375 . S
C762 N761 1.316 . S
C762 N764 1.347 . S
C762 H773 0.931 . S
C763 N761 1.375 . S
C763 C765 1.350 . S
C763 H772 0.930 . S
N764 C762 1.347 . S
N764 C765 1.373 . S
C765 C763 1.350 . S
C765 N764 1.373 . S
C765 H779 0.931 . S
C766 O769 1.256 . S
C766 O770 1.255 . S
O767 Co750 2.021 . S
O767 C760 1.259 . S
O768 Co752 2.117 . S
O768 C760 1.258 . S
O769 Co752 2.020 . S
O769 C766 1.256 . S
O770 Co750 2.062 . S
O770 C766 1.255 . S
O771 C751 1.259 . S
O771 Co752 2.021 . S
H772 C763 0.930 . S
H773 C762 0.931 . S
O774 Co750 2.117 . S
O774 C751 1.258 . S
O775 Co750 2.020 . S
O775 C777 1.256 . S
O776 Co752 2.062 . S
O776 C777 1.255 . S
C777 O775 1.256 . S
C777 O776 1.255 . S
H778 C757 0.931 . S
H779 C765 0.931 . S
Co780 N785 2.057 1_655 S
Co780 O797 2.021 . S
Co780 O800 2.062 . S
Co780 O804 2.117 . S
Co780 O805 2.020 . S
C781 O801 1.259 . S
C781 O804 1.258 . S
Co782 N791 2.057 . S
Co782 O798 2.117 . S
Co782 O799 2.020 . S
Co782 O801 2.021 . S
Co782 O806 2.062 . S
C783 N785 1.316 . S
C783 N786 1.347 . S
C783 H788 0.931 . S
C784 N785 1.375 . S
C784 C787 1.350 . S
C784 H789 0.930 . S
N785 Co780 2.057 1_455 S
N785 C783 1.316 . S
N785 C784 1.375 . S
N786 C783 1.347 . S
N786 C787 1.373 . S
C787 C784 1.350 . S
C787 N786 1.373 . S
C787 H808 0.931 . S
H788 C783 0.931 . S
H789 C784 0.930 . S
C790 O797 1.259 . S
C790 O798 1.258 . S
N791 Co782 2.057 . S
N791 C792 1.316 . S
N791 C793 1.375 . S
C792 N791 1.316 . S
C792 N794 1.347 . S
C792 H803 0.931 . S
C793 N791 1.375 . S
C793 C795 1.350 . S
C793 H802 0.930 . S
N794 C792 1.347 . S
N794 C795 1.373 . S
C795 C793 1.350 . S
C795 N794 1.373 . S
C795 H809 0.931 . S
C796 O799 1.256 . S
C796 O800 1.255 . S
O797 Co780 2.021 . S
O797 C790 1.259 . S
O798 Co782 2.117 . S
O798 C790 1.258 . S
O799 Co782 2.020 . S
O799 C796 1.256 . S
O800 Co780 2.062 . S
O800 C796 1.255 . S
O801 C781 1.259 . S
O801 Co782 2.021 . S
H802 C793 0.930 . S
H803 C792 0.931 . S
O804 Co780 2.117 . S
O804 C781 1.258 . S
O805 Co780 2.020 . S
O805 C807 1.256 . S
O806 Co782 2.062 . S
O806 C807 1.255 . S
C807 O805 1.256 . S
C807 O806 1.255 . S
H808 C787 0.931 . S
H809 C795 0.931 . S
Co810 N815 2.057 . S
Co810 O827 2.021 . S
Co810 O830 2.062 . S
Co810 O834 2.117 . S
Co810 O835 2.020 . S
C811 O831 1.259 . S
C811 O834 1.258 . S
Co812 N821 2.057 . S
Co812 O828 2.117 . S
Co812 O829 2.020 . S
Co812 O831 2.021 . S
Co812 O836 2.062 . S
C813 N815 1.316 . S
C813 N816 1.347 1_545 S
C813 H818 0.931 . S
C814 N815 1.375 . S
C814 C817 1.350 1_545 S
C814 H819 0.930 . S
N815 Co810 2.057 . S
N815 C813 1.316 . S
N815 C814 1.375 . S
N816 C813 1.347 1_565 S
N816 C817 1.373 . S
C817 C814 1.350 1_565 S
C817 N816 1.373 . S
C817 H838 0.931 . S
H818 C813 0.931 . S
H819 C814 0.930 . S
C820 O827 1.259 . S
C820 O828 1.258 . S
N821 Co812 2.057 . S
N821 C822 1.316 . S
N821 C823 1.375 . S
C822 N821 1.316 . S
C822 N824 1.347 . S
C822 H833 0.931 . S
C823 N821 1.375 . S
C823 C825 1.350 . S
C823 H832 0.930 . S
N824 C822 1.347 . S
N824 C825 1.373 . S
C825 C823 1.350 . S
C825 N824 1.373 . S
C825 H839 0.931 . S
C826 O829 1.256 . S
C826 O830 1.255 . S
O827 Co810 2.021 . S
O827 C820 1.259 . S
O828 Co812 2.117 . S
O828 C820 1.258 . S
O829 Co812 2.020 . S
O829 C826 1.256 . S
O830 Co810 2.062 . S
O830 C826 1.255 . S
O831 C811 1.259 . S
O831 Co812 2.021 . S
H832 C823 0.930 . S
H833 C822 0.931 . S
O834 Co810 2.117 . S
O834 C811 1.258 . S
O835 Co810 2.020 . S
O835 C837 1.256 . S
O836 Co812 2.062 . S
O836 C837 1.255 . S
C837 O835 1.256 . S
C837 O836 1.255 . S
H838 C817 0.931 . S
H839 C825 0.931 . S
Co840 N845 2.057 1_655 S
Co840 O857 2.021 . S
Co840 O860 2.062 . S
Co840 O864 2.117 . S
Co840 O865 2.020 . S
C841 O861 1.259 . S
C841 O864 1.258 . S
Co842 N851 2.057 . S
Co842 O858 2.117 . S
Co842 O859 2.020 . S
Co842 O861 2.021 . S
Co842 O866 2.062 . S
C843 N845 1.316 . S
C843 N846 1.347 . S
C843 H848 0.931 . S
C844 N845 1.375 . S
C844 C847 1.350 . S
C844 H849 0.930 . S
N845 Co840 2.057 1_455 S
N845 C843 1.316 . S
N845 C844 1.375 . S
N846 C843 1.347 . S
N846 C847 1.373 . S
C847 C844 1.350 . S
C847 N846 1.373 . S
C847 H868 0.931 . S
H848 C843 0.931 . S
H849 C844 0.930 . S
C850 O857 1.259 . S
C850 O858 1.258 . S
N851 Co842 2.057 . S
N851 C852 1.316 . S
N851 C853 1.375 . S
C852 N851 1.316 . S
C852 N854 1.347 . S
C852 H863 0.931 . S
C853 N851 1.375 . S
C853 C855 1.350 . S
C853 H862 0.930 . S
N854 C852 1.347 . S
N854 C855 1.373 . S
C855 C853 1.350 . S
C855 N854 1.373 . S
C855 H869 0.931 . S
C856 O859 1.256 . S
C856 O860 1.255 . S
O857 Co840 2.021 . S
O857 C850 1.259 . S
O858 Co842 2.117 . S
O858 C850 1.258 . S
O859 Co842 2.020 . S
O859 C856 1.256 . S
O860 Co840 2.062 . S
O860 C856 1.255 . S
O861 C841 1.259 . S
O861 Co842 2.021 . S
H862 C853 0.930 . S
H863 C852 0.931 . S
O864 Co840 2.117 . S
O864 C841 1.258 . S
O865 Co840 2.020 . S
O865 C867 1.256 . S
O866 Co842 2.062 . S
O866 C867 1.255 . S
C867 O865 1.256 . S
C867 O866 1.255 . S
H868 C847 0.931 . S
H869 C855 0.931 . S
Co870 N875 2.057 . S
Co870 O887 2.021 . S
Co870 O890 2.062 . S
Co870 O894 2.117 . S
Co870 O895 2.020 . S
C871 O891 1.259 . S
C871 O894 1.258 . S
Co872 N881 2.057 . S
Co872 O888 2.117 . S
Co872 O889 2.020 . S
Co872 O891 2.021 . S
Co872 O896 2.062 . S
C873 N875 1.316 . S
C873 N876 1.347 . S
C873 H878 0.931 . S
C874 N875 1.375 . S
C874 C877 1.350 . S
C874 H879 0.930 . S
N875 Co870 2.057 . S
N875 C873 1.316 . S
N875 C874 1.375 . S
N876 C873 1.347 . S
N876 C877 1.373 . S
C877 C874 1.350 . S
C877 N876 1.373 . S
C877 H898 0.931 . S
H878 C873 0.931 . S
H879 C874 0.930 . S
C880 O887 1.259 . S
C880 O888 1.258 . S
N881 Co872 2.057 . S
N881 C882 1.316 . S
N881 C883 1.375 . S
C882 N881 1.316 . S
C882 N884 1.347 . S
C882 H893 0.931 . S
C883 N881 1.375 . S
C883 C885 1.350 . S
C883 H892 0.930 . S
N884 C882 1.347 . S
N884 C885 1.373 . S
C885 C883 1.350 . S
C885 N884 1.373 . S
C885 H899 0.931 . S
C886 O889 1.256 . S
C886 O890 1.255 . S
O887 Co870 2.021 . S
O887 C880 1.259 . S
O888 Co872 2.117 . S
O888 C880 1.258 . S
O889 Co872 2.020 . S
O889 C886 1.256 . S
O890 Co870 2.062 . S
O890 C886 1.255 . S
O891 C871 1.259 . S
O891 Co872 2.021 . S
H892 C883 0.930 . S
H893 C882 0.931 . S
O894 Co870 2.117 . S
O894 C871 1.258 . S
O895 Co870 2.020 . S
O895 C897 1.256 . S
O896 Co872 2.062 . S
O896 C897 1.255 . S
C897 O895 1.256 . S
C897 O896 1.255 . S
H898 C877 0.931 . S
H899 C885 0.931 . S
Co900 N905 2.057 . S
Co900 O917 2.021 . S
Co900 O920 2.062 . S
Co900 O924 2.117 . S
Co900 O925 2.020 . S
C901 O921 1.259 . S
C901 O924 1.258 . S
Co902 N911 2.057 . S
Co902 O918 2.117 . S
Co902 O919 2.020 . S
Co902 O921 2.021 . S
Co902 O926 2.062 . S
C903 N905 1.316 . S
C903 N906 1.347 . S
C903 H908 0.931 . S
C904 N905 1.375 . S
C904 C907 1.350 . S
C904 H909 0.930 . S
N905 Co900 2.057 . S
N905 C903 1.316 . S
N905 C904 1.375 . S
N906 C903 1.347 . S
N906 C907 1.373 . S
C907 C904 1.350 . S
C907 N906 1.373 . S
C907 H928 0.931 . S
H908 C903 0.931 . S
H909 C904 0.930 . S
C910 O917 1.259 . S
C910 O918 1.258 . S
N911 Co902 2.057 . S
N911 C912 1.316 . S
N911 C913 1.375 . S
C912 N911 1.316 . S
C912 N914 1.347 . S
C912 H923 0.931 . S
C913 N911 1.375 . S
C913 C915 1.350 . S
C913 H922 0.930 . S
N914 C912 1.347 . S
N914 C915 1.373 . S
C915 C913 1.350 . S
C915 N914 1.373 . S
C915 H929 0.931 . S
C916 O919 1.256 . S
C916 O920 1.255 . S
O917 Co900 2.021 . S
O917 C910 1.259 . S
O918 Co902 2.117 . S
O918 C910 1.258 . S
O919 Co902 2.020 . S
O919 C916 1.256 . S
O920 Co900 2.062 . S
O920 C916 1.255 . S
O921 C901 1.259 . S
O921 Co902 2.021 . S
H922 C913 0.930 . S
H923 C912 0.931 . S
O924 Co900 2.117 . S
O924 C901 1.258 . S
O925 Co900 2.020 . S
O925 C927 1.256 . S
O926 Co902 2.062 . S
O926 C927 1.255 . S
C927 O925 1.256 . S
C927 O926 1.255 . S
H928 C907 0.931 . S
H929 C915 0.931 . S
Co930 N935 2.057 . S
Co930 O947 2.021 . S
Co930 O950 2.062 . S
Co930 O954 2.117 . S
Co930 O955 2.020 . S
C931 O951 1.259 . S
C931 O954 1.258 . S
Co932 N941 2.057 . S
Co932 O948 2.117 . S
Co932 O949 2.020 . S
Co932 O951 2.021 . S
Co932 O956 2.062 . S
C933 N935 1.316 . S
C933 N936 1.347 . S
C933 H938 0.931 . S
C934 N935 1.375 . S
C934 C937 1.350 . S
C934 H939 0.930 . S
N935 Co930 2.057 . S
N935 C933 1.316 . S
N935 C934 1.375 . S
N936 C933 1.347 . S
N936 C937 1.373 . S
C937 C934 1.350 . S
C937 N936 1.373 . S
C937 H958 0.931 . S
H938 C933 0.931 . S
H939 C934 0.930 . S
C940 O947 1.259 . S
C940 O948 1.258 . S
N941 Co932 2.057 . S
N941 C942 1.316 . S
N941 C943 1.375 . S
C942 N941 1.316 . S
C942 N944 1.347 . S
C942 H953 0.931 . S
C943 N941 1.375 . S
C943 C945 1.350 . S
C943 H952 0.930 . S
N944 C942 1.347 . S
N944 C945 1.373 . S
C945 C943 1.350 . S
C945 N944 1.373 . S
C945 H959 0.931 . S
C946 O949 1.256 . S
C946 O950 1.255 . S
O947 Co930 2.021 . S
O947 C940 1.259 . S
O948 Co932 2.117 . S
O948 C940 1.258 . S
O949 Co932 2.020 . S
O949 C946 1.256 . S
O950 Co930 2.062 . S
O950 C946 1.255 . S
O951 C931 1.259 . S
O951 Co932 2.021 . S
H952 C943 0.930 . S
H953 C942 0.931 . S
O954 Co930 2.117 . S
O954 C931 1.258 . S
O955 Co930 2.020 . S
O955 C957 1.256 . S
O956 Co932 2.062 . S
O956 C957 1.255 . S
C957 O955 1.256 . S
C957 O956 1.255 . S
H958 C937 0.931 . S
H959 C945 0.931 . S
Co960 N965 2.057 . S
Co960 O977 2.021 . S
Co960 O980 2.062 . S
Co960 O984 2.117 . S
Co960 O985 2.020 . S
C961 O981 1.259 . S
C961 O984 1.258 . S
Co962 N971 2.057 . S
Co962 O978 2.117 . S
Co962 O979 2.020 . S
Co962 O981 2.021 . S
Co962 O986 2.062 . S
C963 N965 1.316 . S
C963 N966 1.347 1_655 S
C963 H968 0.931 . S
C964 N965 1.375 . S
C964 C967 1.350 1_655 S
C964 H969 0.930 . S
N965 Co960 2.057 . S
N965 C963 1.316 . S
N965 C964 1.375 . S
N966 C963 1.347 1_455 S
N966 C967 1.373 . S
C967 C964 1.350 1_455 S
C967 N966 1.373 . S
C967 H988 0.931 . S
H968 C963 0.931 . S
H969 C964 0.930 . S
C970 O977 1.259 . S
C970 O978 1.258 . S
N971 Co962 2.057 . S
N971 C972 1.316 . S
N971 C973 1.375 . S
C972 N971 1.316 . S
C972 N974 1.347 . S
C972 H983 0.931 . S
C973 N971 1.375 . S
C973 C975 1.350 . S
C973 H982 0.930 . S
N974 C972 1.347 . S
N974 C975 1.373 . S
C975 C973 1.350 . S
C975 N974 1.373 . S
C975 H989 0.931 . S
C976 O979 1.256 . S
C976 O980 1.255 . S
O977 Co960 2.021 . S
O977 C970 1.259 . S
O978 Co962 2.117 . S
O978 C970 1.258 . S
O979 Co962 2.020 . S
O979 C976 1.256 . S
O980 Co960 2.062 . S
O980 C976 1.255 . S
O981 C961 1.259 . S
O981 Co962 2.021 . S
H982 C973 0.930 . S
H983 C972 0.931 . S
O984 Co960 2.117 . S
O984 C961 1.258 . S
O985 Co960 2.020 . S
O985 C987 1.256 . S
O986 Co962 2.062 . S
O986 C987 1.255 . S
C987 O985 1.256 . S
C987 O986 1.255 . S
H988 C967 0.931 . S
H989 C975 0.931 . S
Co990 N995 2.057 . S
Co990 O1007 2.021 . S
Co990 O1010 2.062 . S
Co990 O1014 2.117 . S
Co990 O1015 2.020 . S
C991 O1011 1.259 . S
C991 O1014 1.258 . S
Co992 N1001 2.057 . S
Co992 O1008 2.117 . S
Co992 O1009 2.020 . S
Co992 O1011 2.021 . S
Co992 O1016 2.062 . S
C993 N995 1.316 . S
C993 N996 1.347 . S
C993 H998 0.931 . S
C994 N995 1.375 . S
C994 C997 1.350 . S
C994 H999 0.930 . S
N995 Co990 2.057 . S
N995 C993 1.316 . S
N995 C994 1.375 . S
N996 C993 1.347 . S
N996 C997 1.373 . S
C997 C994 1.350 . S
C997 N996 1.373 . S
C997 H1018 0.931 1_545 S
H998 C993 0.931 . S
H999 C994 0.930 . S
C1000 O1007 1.259 . S
C1000 O1008 1.258 . S
N1001 Co992 2.057 . S
N1001 C1002 1.316 . S
N1001 C1003 1.375 . S
C1002 N1001 1.316 . S
C1002 N1004 1.347 . S
C1002 H1013 0.931 . S
C1003 N1001 1.375 . S
C1003 C1005 1.350 . S
C1003 H1012 0.930 . S
N1004 C1002 1.347 . S
N1004 C1005 1.373 . S
C1005 C1003 1.350 . S
C1005 N1004 1.373 . S
C1005 H1019 0.931 . S
C1006 O1009 1.256 . S
C1006 O1010 1.255 . S
O1007 Co990 2.021 . S
O1007 C1000 1.259 . S
O1008 Co992 2.117 . S
O1008 C1000 1.258 . S
O1009 Co992 2.020 . S
O1009 C1006 1.256 . S
O1010 Co990 2.062 . S
O1010 C1006 1.255 . S
O1011 C991 1.259 . S
O1011 Co992 2.021 . S
H1012 C1003 0.930 . S
H1013 C1002 0.931 . S
O1014 Co990 2.117 . S
O1014 C991 1.258 . S
O1015 Co990 2.020 . S
O1015 C1017 1.256 . S
O1016 Co992 2.062 . S
O1016 C1017 1.255 . S
C1017 O1015 1.256 . S
C1017 O1016 1.255 . S
H1018 C997 0.931 1_565 S
H1019 C1005 0.931 . S
Co1020 N1025 2.057 . S
Co1020 O1037 2.021 . S
Co1020 O1040 2.062 . S
Co1020 O1044 2.117 . S
Co1020 O1045 2.020 . S
C1021 O1041 1.259 . S
C1021 O1044 1.258 . S
Co1022 N1031 2.057 . S
Co1022 O1038 2.117 . S
Co1022 O1039 2.020 . S
Co1022 O1041 2.021 . S
Co1022 O1046 2.062 . S
C1023 N1025 1.316 . S
C1023 N1026 1.347 1_655 S
C1023 H1028 0.931 . S
C1024 N1025 1.375 . S
C1024 C1027 1.350 1_655 S
C1024 H1029 0.930 . S
N1025 Co1020 2.057 . S
N1025 C1023 1.316 . S
N1025 C1024 1.375 . S
N1026 C1023 1.347 1_455 S
N1026 C1027 1.373 . S
C1027 C1024 1.350 1_455 S
C1027 N1026 1.373 . S
C1027 H1048 0.931 . S
H1028 C1023 0.931 . S
H1029 C1024 0.930 . S
C1030 O1037 1.259 . S
C1030 O1038 1.258 . S
N1031 Co1022 2.057 . S
N1031 C1032 1.316 . S
N1031 C1033 1.375 . S
C1032 N1031 1.316 . S
C1032 N1034 1.347 . S
C1032 H1043 0.931 . S
C1033 N1031 1.375 . S
C1033 C1035 1.350 . S
C1033 H1042 0.930 . S
N1034 C1032 1.347 . S
N1034 C1035 1.373 . S
C1035 C1033 1.350 . S
C1035 N1034 1.373 . S
C1035 H1049 0.931 . S
C1036 O1039 1.256 . S
C1036 O1040 1.255 . S
O1037 Co1020 2.021 . S
O1037 C1030 1.259 . S
O1038 Co1022 2.117 . S
O1038 C1030 1.258 . S
O1039 Co1022 2.020 . S
O1039 C1036 1.256 . S
O1040 Co1020 2.062 . S
O1040 C1036 1.255 . S
O1041 C1021 1.259 . S
O1041 Co1022 2.021 . S
H1042 C1033 0.930 . S
H1043 C1032 0.931 . S
O1044 Co1020 2.117 . S
O1044 C1021 1.258 . S
O1045 Co1020 2.020 . S
O1045 C1047 1.256 . S
O1046 Co1022 2.062 . S
O1046 C1047 1.255 . S
C1047 O1045 1.256 . S
C1047 O1046 1.255 . S
H1048 C1027 0.931 . S
H1049 C1035 0.931 . S
Co1050 N1055 2.057 . S
Co1050 O1067 2.021 . S
Co1050 O1070 2.062 . S
Co1050 O1074 2.117 . S
Co1050 O1075 2.020 . S
C1051 O1071 1.259 . S
C1051 O1074 1.258 . S
Co1052 N1061 2.057 . S
Co1052 O1068 2.117 . S
Co1052 O1069 2.020 . S
Co1052 O1071 2.021 . S
Co1052 O1076 2.062 . S
C1053 N1055 1.316 . S
C1053 N1056 1.347 . S
C1053 H1058 0.931 . S
C1054 N1055 1.375 . S
C1054 C1057 1.350 . S
C1054 H1059 0.930 . S
N1055 Co1050 2.057 . S
N1055 C1053 1.316 . S
N1055 C1054 1.375 . S
N1056 C1053 1.347 . S
N1056 C1057 1.373 . S
C1057 C1054 1.350 . S
C1057 N1056 1.373 . S
C1057 H1078 0.931 . S
H1058 C1053 0.931 . S
H1059 C1054 0.930 . S
C1060 O1067 1.259 . S
C1060 O1068 1.258 . S
N1061 Co1052 2.057 . S
N1061 C1062 1.316 . S
N1061 C1063 1.375 . S
C1062 N1061 1.316 . S
C1062 N1064 1.347 . S
C1062 H1073 0.931 . S
C1063 N1061 1.375 . S
C1063 C1065 1.350 . S
C1063 H1072 0.930 . S
N1064 C1062 1.347 . S
N1064 C1065 1.373 . S
C1065 C1063 1.350 . S
C1065 N1064 1.373 . S
C1065 H1079 0.931 . S
C1066 O1069 1.256 . S
C1066 O1070 1.255 . S
O1067 Co1050 2.021 . S
O1067 C1060 1.259 . S
O1068 Co1052 2.117 . S
O1068 C1060 1.258 . S
O1069 Co1052 2.020 . S
O1069 C1066 1.256 . S
O1070 Co1050 2.062 . S
O1070 C1066 1.255 . S
O1071 C1051 1.259 . S
O1071 Co1052 2.021 . S
H1072 C1063 0.930 . S
H1073 C1062 0.931 . S
O1074 Co1050 2.117 . S
O1074 C1051 1.258 . S
O1075 Co1050 2.020 . S
O1075 C1077 1.256 . S
O1076 Co1052 2.062 . S
O1076 C1077 1.255 . S
C1077 O1075 1.256 . S
C1077 O1076 1.255 . S
H1078 C1057 0.931 . S
H1079 C1065 0.931 . S
H1080 C1086 0.930 . S
H1081 C1089 0.930 . S
H1082 C1090 0.930 . S
H1083 C1091 0.930 . S
H1084 C1094 0.930 . S
H1085 C1095 0.930 . S
C1086 H1080 0.930 . S
C1086 C1087 1.355 . S
C1086 C1088 1.415 . S
C1087 C1086 1.355 . S
C1087 C1089 1.419 . S
C1088 C1086 1.415 . S
C1088 C1093 1.425 . S
C1088 C1095 1.409 . S
C1089 H1081 0.930 . S
C1089 C1087 1.419 . S
C1089 C1090 1.362 . S
C1090 H1082 0.930 . S
C1090 C1089 1.362 . S
C1090 C1093 1.409 . S
C1091 H1083 0.930 . S
C1091 C1092 1.355 . S
C1091 C1093 1.415 . S
C1092 C1091 1.355 . S
C1092 C1094 1.419 . S
C1093 C1088 1.425 . S
C1093 C1090 1.409 . S
C1093 C1091 1.415 . S
C1094 H1084 0.930 . S
C1094 C1092 1.419 . S
C1094 C1095 1.362 . S
C1095 H1085 0.930 . S
C1095 C1088 1.409 . S
C1095 C1094 1.362 . S
H1096 C1102 0.930 . S
H1097 C1105 0.930 . S
H1098 C1106 0.930 1_455 S
H1099 C1107 0.910 1_455 S
H1100 C1110 0.930 . S
H1101 C1111 0.930 . S
C1102 H1096 0.930 . S
C1102 C1103 1.355 . S
C1102 C1104 1.415 . S
C1103 C1102 1.355 . S
C1103 C1105 1.419 . S
C1104 C1102 1.415 . S
C1104 C1109 1.425 . S
C1104 C1111 1.409 . S
C1105 H1097 0.930 . S
C1105 C1103 1.419 . S
C1105 C1106 1.362 . S
C1106 H1098 0.930 1_655 S
C1106 C1105 1.362 . S
C1106 C1109 1.409 . S
C1107 H1099 0.910 1_655 S
C1107 C1108 1.371 . S
C1107 C1109 1.418 . S
C1108 C1107 1.371 . S
C1108 C1110 1.419 . S
C1109 C1104 1.425 . S
C1109 C1106 1.409 . S
C1109 C1107 1.418 . S
C1110 H1100 0.930 . S
C1110 C1108 1.419 . S
C1110 C1111 1.362 . S
C1111 H1101 0.930 . S
C1111 C1104 1.409 . S
C1111 C1110 1.362 . S
H1112 C1118 0.930 . S
H1113 C1121 0.930 . S
H1114 C1122 0.930 . S
H1115 C1123 0.930 . S
H1116 C1126 0.930 . S
H1117 C1127 0.930 . S
C1118 H1112 0.930 . S
C1118 C1119 1.355 . S
C1118 C1120 1.415 . S
C1119 C1118 1.355 . S
C1119 C1121 1.419 . S
C1120 C1118 1.415 . S
C1120 C1125 1.425 . S
C1120 C1127 1.409 . S
C1121 H1113 0.930 . S
C1121 C1119 1.419 . S
C1121 C1122 1.362 . S
C1122 H1114 0.930 . S
C1122 C1121 1.362 . S
C1122 C1125 1.409 . S
C1123 H1115 0.930 . S
C1123 C1124 1.355 . S
C1123 C1125 1.415 . S
C1124 C1123 1.355 . S
C1124 C1126 1.419 . S
C1125 C1120 1.425 . S
C1125 C1122 1.409 . S
C1125 C1123 1.415 . S
C1126 H1116 0.930 . S
C1126 C1124 1.419 . S
C1126 C1127 1.362 . S
C1127 H1117 0.930 . S
C1127 C1120 1.409 . S
C1127 C1126 1.362 . S
H1128 C1134 0.930 . S
H1129 C1137 0.930 . S
H1130 C1138 0.930 . S
H1131 C1139 0.930 . S
H1132 C1142 0.930 . S
H1133 C1143 0.930 . S
C1134 H1128 0.930 . S
C1134 C1135 1.355 . S
C1134 C1136 1.415 . S
C1135 C1134 1.355 . S
C1135 C1137 1.419 . S
C1136 C1134 1.415 . S
C1136 C1141 1.425 . S
C1136 C1143 1.409 . S
C1137 H1129 0.930 . S
C1137 C1135 1.419 . S
C1137 C1138 1.362 . S
C1138 H1130 0.930 . S
C1138 C1137 1.362 . S
C1138 C1141 1.409 . S
C1139 H1131 0.930 . S
C1139 C1140 1.355 . S
C1139 C1141 1.415 . S
C1140 C1139 1.355 . S
C1140 C1142 1.419 . S
C1141 C1136 1.425 . S
C1141 C1138 1.409 . S
C1141 C1139 1.415 . S
C1142 H1132 0.930 . S
C1142 C1140 1.419 . S
C1142 C1143 1.362 . S
C1143 H1133 0.930 . S
C1143 C1136 1.409 . S
C1143 C1142 1.362 . S
H1144 C1150 0.930 . S
H1145 C1153 0.930 . S
H1146 C1154 0.930 . S
H1147 C1155 0.930 . S
H1148 C1158 0.930 . S
H1149 C1159 0.930 . S
C1150 H1144 0.930 . S
C1150 C1151 1.355 . S
C1150 C1152 1.415 . S
C1151 C1150 1.355 . S
C1151 C1153 1.419 . S
C1152 C1150 1.415 . S
C1152 C1157 1.425 . S
C1152 C1159 1.409 . S
C1153 H1145 0.930 . S
C1153 C1151 1.419 . S
C1153 C1154 1.362 . S
C1154 H1146 0.930 . S
C1154 C1153 1.362 . S
C1154 C1157 1.409 . S
C1155 H1147 0.930 . S
C1155 C1156 1.355 . S
C1155 C1157 1.415 . S
C1156 C1155 1.355 . S
C1156 C1158 1.419 . S
C1157 C1152 1.425 . S
C1157 C1154 1.409 . S
C1157 C1155 1.415 . S
C1158 H1148 0.930 . S
C1158 C1156 1.419 . S
C1158 C1159 1.362 . S
C1159 H1149 0.930 . S
C1159 C1152 1.409 . S
C1159 C1158 1.362 . S
H1160 C1166 0.930 . S
H1161 C1169 0.930 . S
H1162 C1170 0.930 . S
H1163 C1171 0.930 . S
H1164 C1174 0.930 1_545 S
H1165 C1175 0.930 . S
C1166 H1160 0.930 . S
C1166 C1167 1.355 . S
C1166 C1168 1.415 . S
C1167 C1166 1.355 . S
C1167 C1169 1.419 . S
C1168 C1166 1.415 . S
C1168 C1173 1.425 . S
C1168 C1175 1.409 . S
C1169 H1161 0.930 . S
C1169 C1167 1.419 . S
C1169 C1170 1.362 . S
C1170 H1162 0.930 . S
C1170 C1169 1.362 . S
C1170 C1173 1.409 . S
C1171 H1163 0.930 . S
C1171 C1172 1.355 . S
C1171 C1173 1.415 . S
C1172 C1171 1.355 . S
C1172 C1174 1.419 . S
C1173 C1168 1.425 . S
C1173 C1170 1.409 . S
C1173 C1171 1.415 . S
C1174 H1164 0.930 1_565 S
C1174 C1172 1.419 . S
C1174 C1175 1.362 . S
C1175 H1165 0.930 . S
C1175 C1168 1.409 . S
C1175 C1174 1.362 . S
H1176 C1182 0.930 . S
H1177 C1185 0.930 . S
H1178 C1186 0.930 . S
H1179 C1187 0.930 . S
H1180 C1190 0.930 . S
H1181 C1191 0.930 . S
C1182 H1176 0.930 . S
C1182 C1183 1.355 . S
C1182 C1184 1.415 . S
C1183 C1182 1.355 . S
C1183 C1185 1.419 1_565 S
C1184 C1182 1.415 . S
C1184 C1189 1.425 . S
C1184 C1191 1.409 . S
C1185 H1177 0.930 . S
C1185 C1183 1.419 1_545 S
C1185 C1186 1.362 . S
C1186 H1178 0.930 . S
C1186 C1185 1.362 . S
C1186 C1189 1.409 1_545 S
C1187 H1179 0.930 . S
C1187 C1188 1.355 . S
C1187 C1189 1.415 . S
C1188 C1187 1.355 . S
C1188 C1190 1.419 . S
C1189 C1184 1.425 . S
C1189 C1186 1.409 1_565 S
C1189 C1187 1.415 . S
C1190 H1180 0.930 . S
C1190 C1188 1.419 . S
C1190 C1191 1.362 . S
C1191 H1181 0.930 . S
C1191 C1184 1.409 . S
C1191 C1190 1.362 . S
H1192 C1198 0.930 . S
H1193 C1201 0.930 . S
H1194 C1202 0.930 . S
H1195 C1203 0.930 . S
H1196 C1206 0.930 1_655 S
H1197 C1207 0.930 . S
C1198 H1192 0.930 . S
C1198 C1199 1.355 . S
C1198 C1200 1.415 . S
C1199 C1198 1.355 . S
C1199 C1201 1.419 . S
C1200 C1198 1.415 . S
C1200 C1205 1.425 . S
C1200 C1207 1.409 . S
C1201 H1193 0.930 . S
C1201 C1199 1.419 . S
C1201 C1202 1.362 . S
C1202 H1194 0.930 . S
C1202 C1201 1.362 . S
C1202 C1205 1.409 . S
C1203 H1195 0.930 . S
C1203 C1204 1.355 . S
C1203 C1205 1.415 . S
C1204 C1203 1.355 . S
C1204 C1206 1.419 . S
C1205 C1200 1.425 . S
C1205 C1202 1.409 . S
C1205 C1203 1.415 . S
C1206 H1196 0.930 1_455 S
C1206 C1204 1.419 . S
C1206 C1207 1.362 . S
C1207 H1197 0.930 . S
C1207 C1200 1.409 . S
C1207 C1206 1.362 . S
H1208 C1214 0.930 . S
H1209 C1217 0.930 . S
H1210 C1218 0.930 . S
H1211 C1219 0.930 . S
H1212 C1222 0.930 . S
H1213 C1223 0.930 . S
C1214 H1208 0.930 . S
C1214 C1215 1.355 . S
C1214 C1216 1.415 . S
C1215 C1214 1.355 . S
C1215 C1217 1.419 . S
C1216 C1214 1.415 . S
C1216 C1221 1.425 . S
C1216 C1223 1.409 . S
C1217 H1209 0.930 . S
C1217 C1215 1.419 . S
C1217 C1218 1.362 . S
C1218 H1210 0.930 . S
C1218 C1217 1.362 . S
C1218 C1221 1.409 . S
C1219 H1211 0.930 . S
C1219 C1220 1.355 . S
C1219 C1221 1.415 . S
C1220 C1219 1.355 . S
C1220 C1222 1.419 . S
C1221 C1216 1.425 . S
C1221 C1218 1.409 . S
C1221 C1219 1.415 . S
C1222 H1212 0.930 . S
C1222 C1220 1.419 . S
C1222 C1223 1.362 . S
C1223 H1213 0.930 . S
C1223 C1216 1.409 . S
C1223 C1222 1.362 . S
H1224 C1230 0.930 . S
H1225 C1233 0.930 . S
H1226 C1234 0.930 . S
H1227 C1235 0.930 . S
H1228 C1238 0.930 . S
H1229 C1239 0.930 . S
C1230 H1224 0.930 . S
C1230 C1231 1.355 . S
C1230 C1232 1.415 . S
C1231 C1230 1.355 . S
C1231 C1233 1.419 . S
C1232 C1230 1.415 . S
C1232 C1237 1.425 . S
C1232 C1239 1.409 1_655 S
C1233 H1225 0.930 . S
C1233 C1231 1.419 . S
C1233 C1234 1.362 . S
C1234 H1226 0.930 . S
C1234 C1233 1.362 . S
C1234 C1237 1.409 . S
C1235 H1227 0.930 . S
C1235 C1236 1.355 . S
C1235 C1237 1.415 . S
C1236 C1235 1.355 . S
C1236 C1238 1.419 1_655 S
C1237 C1232 1.425 . S
C1237 C1234 1.409 . S
C1237 C1235 1.415 . S
C1238 H1228 0.930 . S
C1238 C1236 1.419 1_455 S
C1238 C1239 1.362 . S
C1239 H1229 0.930 . S
C1239 C1232 1.409 1_455 S
C1239 C1238 1.362 . S
H1240 C1246 0.930 . S
H1241 C1249 0.930 . S
H1242 C1250 0.930 . S
H1243 C1251 0.930 . S
H1244 C1254 0.930 . S
H1245 C1255 0.930 . S
C1246 H1240 0.930 . S
C1246 C1247 1.355 . S
C1246 C1248 1.415 . S
C1247 C1246 1.355 . S
C1247 C1249 1.419 . S
C1248 C1246 1.415 . S
C1248 C1253 1.425 . S
C1248 C1255 1.409 . S
C1249 H1241 0.930 . S
C1249 C1247 1.419 . S
C1249 C1250 1.362 . S
C1250 H1242 0.930 . S
C1250 C1249 1.362 . S
C1250 C1253 1.409 . S
C1251 H1243 0.930 . S
C1251 C1252 1.355 . S
C1251 C1253 1.415 . S
C1252 C1251 1.355 . S
C1252 C1254 1.419 . S
C1253 C1248 1.425 . S
C1253 C1250 1.409 . S
C1253 C1251 1.415 . S
C1254 H1244 0.930 . S
C1254 C1252 1.419 . S
C1254 C1255 1.362 . S
C1255 H1245 0.930 . S
C1255 C1248 1.409 . S
C1255 C1254 1.362 . S
H1256 C1262 0.930 . S
H1257 C1265 0.930 . S
H1258 C1266 0.930 . S
H1259 C1267 0.930 . S
H1260 C1270 0.930 . S
H1261 C1271 0.930 . S
C1262 H1256 0.930 . S
C1262 C1263 1.355 . S
C1262 C1264 1.415 . S
C1263 C1262 1.355 . S
C1263 C1265 1.419 . S
C1264 C1262 1.415 . S
C1264 C1269 1.425 . S
C1264 C1271 1.409 . S
C1265 H1257 0.930 . S
C1265 C1263 1.419 . S
C1265 C1266 1.362 . S
C1266 H1258 0.930 . S
C1266 C1265 1.362 . S
C1266 C1269 1.409 . S
C1267 H1259 0.930 . S
C1267 C1268 1.355 . S
C1267 C1269 1.415 . S
C1268 C1267 1.355 . S
C1268 C1270 1.419 . S
C1269 C1264 1.425 . S
C1269 C1266 1.409 . S
C1269 C1267 1.415 . S
C1270 H1260 0.930 . S
C1270 C1268 1.419 . S
C1270 C1271 1.362 . S
C1271 H1261 0.930 . S
C1271 C1264 1.409 . S
C1271 C1270 1.362 . S
H1272 C1278 0.930 . S
H1273 C1281 0.930 . S
H1274 C1282 0.930 . S
H1275 C1283 0.930 . S
H1276 C1286 0.930 . S
H1277 C1287 0.930 . S
C1278 H1272 0.930 . S
C1278 C1279 1.355 . S
C1278 C1280 1.415 . S
C1279 C1278 1.355 . S
C1279 C1281 1.419 . S
C1280 C1278 1.415 . S
C1280 C1285 1.425 . S
C1280 C1287 1.409 . S
C1281 H1273 0.930 . S
C1281 C1279 1.419 . S
C1281 C1282 1.362 . S
C1282 H1274 0.930 . S
C1282 C1281 1.362 . S
C1282 C1285 1.409 . S
C1283 H1275 0.930 . S
C1283 C1284 1.355 . S
C1283 C1285 1.415 . S
C1284 C1283 1.355 . S
C1284 C1286 1.419 . S
C1285 C1280 1.425 . S
C1285 C1282 1.409 . S
C1285 C1283 1.415 . S
C1286 H1276 0.930 . S
C1286 C1284 1.419 . S
C1286 C1287 1.362 . S
C1287 H1277 0.930 . S
C1287 C1280 1.409 . S
C1287 C1286 1.362 . S
H1288 C1294 0.930 . S
H1289 C1297 0.930 . S
H1290 C1298 0.930 . S
H1291 C1299 0.930 . S
H1292 C1302 0.930 . S
H1293 C1303 0.930 1_565 S
C1294 H1288 0.930 . S
C1294 C1295 1.355 . S
C1294 C1296 1.415 1_565 S
C1295 C1294 1.355 . S
C1295 C1297 1.419 . S
C1296 C1294 1.415 1_545 S
C1296 C1301 1.425 . S
C1296 C1303 1.409 . S
C1297 H1289 0.930 . S
C1297 C1295 1.419 . S
C1297 C1298 1.362 1_565 S
C1298 H1290 0.930 . S
C1298 C1297 1.362 1_545 S
C1298 C1301 1.409 . S
C1299 H1291 0.930 . S
C1299 C1300 1.355 . S
C1299 C1301 1.415 . S
C1300 C1299 1.355 . S
C1300 C1302 1.419 . S
C1301 C1296 1.425 . S
C1301 C1298 1.409 . S
C1301 C1299 1.415 . S
C1302 H1292 0.930 . S
C1302 C1300 1.419 . S
C1302 C1303 1.362 . S
C1303 H1293 0.930 1_545 S
C1303 C1296 1.409 . S
C1303 C1302 1.362 . S
H1304 C1310 0.930 . S
H1305 C1313 0.930 . S
H1306 C1314 0.930 . S
H1307 C1315 0.930 . S
H1308 C1318 0.930 . S
H1309 C1319 0.930 1_655 S
C1310 H1304 0.930 . S
C1310 C1311 1.355 . S
C1310 C1312 1.415 1_655 S
C1311 C1310 1.355 . S
C1311 C1313 1.419 . S
C1312 C1310 1.415 1_455 S
C1312 C1317 1.425 . S
C1312 C1319 1.409 . S
C1313 H1305 0.930 . S
C1313 C1311 1.419 . S
C1313 C1314 1.362 1_655 S
C1314 H1306 0.930 . S
C1314 C1313 1.362 1_455 S
C1314 C1317 1.409 . S
C1315 H1307 0.930 . S
C1315 C1316 1.355 . S
C1315 C1317 1.415 . S
C1316 C1315 1.355 . S
C1316 C1318 1.419 . S
C1317 C1312 1.425 . S
C1317 C1314 1.409 . S
C1317 C1315 1.415 . S
C1318 H1308 0.930 . S
C1318 C1316 1.419 . S
C1318 C1319 1.362 . S
C1319 H1309 0.930 1_455 S
C1319 C1312 1.409 . S
C1319 C1318 1.362 . S
H1320 C1326 0.930 . S
H1321 C1329 0.930 . S
H1322 C1330 0.930 . S
H1323 C1331 0.930 . S
H1324 C1334 0.930 . S
H1325 C1335 0.930 . S
C1326 H1320 0.930 . S
C1326 C1327 1.355 . S
C1326 C1328 1.415 . S
C1327 C1326 1.355 . S
C1327 C1329 1.419 . S
C1328 C1326 1.415 . S
C1328 C1333 1.425 . S
C1328 C1335 1.409 . S
C1329 H1321 0.930 . S
C1329 C1327 1.419 . S
C1329 C1330 1.362 . S
C1330 H1322 0.930 . S
C1330 C1329 1.362 . S
C1330 C1333 1.409 . S
C1331 H1323 0.930 . S
C1331 C1332 1.355 . S
C1331 C1333 1.415 . S
C1332 C1331 1.355 . S
C1332 C1334 1.419 . S
C1333 C1328 1.425 . S
C1333 C1330 1.409 . S
C1333 C1331 1.415 . S
C1334 H1324 0.930 . S
C1334 C1332 1.419 . S
C1334 C1335 1.362 . S
C1335 H1325 0.930 . S
C1335 C1328 1.409 . S
C1335 C1334 1.362 . S
H1336 C1342 0.921 1_545 S
H1337 C1345 0.930 . S
H1338 C1346 0.930 . S
H1339 C1347 0.930 . S
H1340 C1350 0.930 . S
H1341 C1351 0.930 . S
C1342 H1336 0.921 1_565 S
C1342 C1343 1.355 . S
C1342 C1344 1.415 1_565 S
C1343 C1342 1.355 . S
C1343 C1345 1.419 . S
C1344 C1342 1.415 1_545 S
C1344 C1349 1.425 . S
C1344 C1351 1.409 . S
C1345 H1337 0.930 . S
C1345 C1343 1.419 . S
C1345 C1346 1.362 . S
C1346 H1338 0.930 . S
C1346 C1345 1.362 . S
C1346 C1349 1.409 1_565 S
C1347 H1339 0.930 . S
C1347 C1348 1.355 . S
C1347 C1349 1.415 . S
C1348 C1347 1.355 . S
C1348 C1350 1.419 . S
C1349 C1344 1.425 . S
C1349 C1346 1.409 1_545 S
C1349 C1347 1.415 . S
C1350 H1340 0.930 . S
C1350 C1348 1.419 . S
C1350 C1351 1.362 . S
C1351 H1341 0.930 . S
C1351 C1344 1.409 . S
C1351 C1350 1.362 . S
H1352 C1358 0.930 . S
H1353 C1361 0.930 . S
H1354 C1362 0.930 . S
H1355 C1363 0.930 . S
H1356 C1366 0.930 . S
H1357 C1367 0.930 1_655 S
C1358 H1352 0.930 . S
C1358 C1359 1.355 . S
C1358 C1360 1.415 1_655 S
C1359 C1358 1.355 . S
C1359 C1361 1.419 . S
C1360 C1358 1.415 1_455 S
C1360 C1365 1.425 . S
C1360 C1367 1.409 . S
C1361 H1353 0.930 . S
C1361 C1359 1.419 . S
C1361 C1362 1.362 1_655 S
C1362 H1354 0.930 . S
C1362 C1361 1.362 1_455 S
C1362 C1365 1.409 . S
C1363 H1355 0.930 . S
C1363 C1364 1.355 . S
C1363 C1365 1.415 . S
C1364 C1363 1.355 . S
C1364 C1366 1.419 . S
C1365 C1360 1.425 . S
C1365 C1362 1.409 . S
C1365 C1363 1.415 . S
C1366 H1356 0.930 . S
C1366 C1364 1.419 . S
C1366 C1367 1.362 . S
C1367 H1357 0.930 1_455 S
C1367 C1360 1.409 . S
C1367 C1366 1.362 . S
H1368 C1374 0.930 . S
H1369 C1377 0.930 . S
H1370 C1378 0.930 . S
H1371 C1379 0.930 . S
H1372 C1382 0.930 . S
H1373 C1383 0.930 . S
C1374 H1368 0.930 . S
C1374 C1375 1.355 . S
C1374 C1376 1.415 . S
C1375 C1374 1.355 . S
C1375 C1377 1.419 1_545 S
C1376 C1374 1.415 . S
C1376 C1381 1.425 1_544 S
C1376 C1383 1.409 1_554 S
C1377 H1369 0.930 . S
C1377 C1375 1.419 1_565 S
C1377 C1378 1.362 . S
C1378 H1370 0.930 . S
C1378 C1377 1.362 . S
C1378 C1381 1.409 1_554 S
C1379 H1371 0.930 . S
C1379 C1380 1.355 1_565 S
C1379 C1381 1.415 . S
C1380 C1379 1.355 1_545 S
C1380 C1382 1.419 . S
C1381 C1376 1.425 1_566 S
C1381 C1378 1.409 1_556 S
C1381 C1379 1.415 . S
C1382 H1372 0.930 . S
C1382 C1380 1.419 . S
C1382 C1383 1.362 . S
C1383 H1373 0.930 . S
C1383 C1376 1.409 1_556 S
C1383 C1382 1.362 . S
H1384 C1390 0.930 . S
H1385 C1393 0.930 . S
H1386 C1394 0.930 . S
H1387 C1395 0.930 . S
H1388 C1398 0.930 . S
H1389 C1399 0.930 1_655 S
C1390 H1384 0.930 . S
C1390 C1391 1.355 . S
C1390 C1392 1.415 . S
C1391 C1390 1.355 . S
C1391 C1393 1.419 . S
C1392 C1390 1.415 . S
C1392 C1397 1.425 1_556 S
C1392 C1399 1.409 1_556 S
C1393 H1385 0.930 . S
C1393 C1391 1.419 . S
C1393 C1394 1.362 . S
C1394 H1386 0.930 . S
C1394 C1393 1.362 . S
C1394 C1397 1.409 1_556 S
C1395 H1387 0.930 . S
C1395 C1396 1.355 . S
C1395 C1397 1.415 . S
C1396 C1395 1.355 . S
C1396 C1398 1.419 . S
C1397 C1392 1.425 1_554 S
C1397 C1394 1.409 1_554 S
C1397 C1395 1.415 . S
C1398 H1388 0.930 . S
C1398 C1396 1.419 . S
C1398 C1399 1.362 . S
C1399 H1389 0.930 1_455 S
C1399 C1392 1.409 1_554 S
C1399 C1398 1.362 . S
H1400 C1406 0.930 . S
H1401 C1409 0.930 . S
H1402 C1410 0.930 . S
H1403 C1411 0.930 . S
H1404 C1414 0.930 . S
H1405 C1415 0.930 . S
C1406 H1400 0.930 . S
C1406 C1407 1.355 . S
C1406 C1408 1.415 . S
C1407 C1406 1.355 . S
C1407 C1409 1.419 . S
C1408 C1406 1.415 . S
C1408 C1413 1.425 1_554 S
C1408 C1415 1.409 1_554 S
C1409 H1401 0.930 . S
C1409 C1407 1.419 . S
C1409 C1410 1.362 . S
C1410 H1402 0.930 . S
C1410 C1409 1.362 . S
C1410 C1413 1.409 1_554 S
C1411 H1403 0.930 . S
C1411 C1412 1.355 . S
C1411 C1413 1.415 . S
C1412 C1411 1.355 . S
C1412 C1414 1.419 . S
C1413 C1408 1.425 1_556 S
C1413 C1410 1.409 1_556 S
C1413 C1411 1.415 . S
C1414 H1404 0.930 . S
C1414 C1412 1.419 . S
C1414 C1415 1.362 . S
C1415 H1405 0.930 . S
C1415 C1408 1.409 1_556 S
C1415 C1414 1.362 . S
H1416 C1422 0.930 . S
H1417 C1425 0.930 . S
H1418 C1426 0.930 . S
H1419 C1427 0.930 . S
H1420 C1430 0.930 . S
H1421 C1431 0.930 . S
C1422 H1416 0.930 . S
C1422 C1423 1.355 1_655 S
C1422 C1424 1.415 . S
C1423 C1422 1.355 1_455 S
C1423 C1425 1.419 . S
C1424 C1422 1.415 . S
C1424 C1429 1.425 1_655 S
C1424 C1431 1.409 . S
C1425 H1417 0.930 . S
C1425 C1423 1.419 . S
C1425 C1426 1.362 . S
C1426 H1418 0.930 . S
C1426 C1425 1.362 . S
C1426 C1429 1.409 . S
C1427 H1419 0.930 . S
C1427 C1428 1.355 . S
C1427 C1429 1.415 . S
C1428 C1427 1.355 . S
C1428 C1430 1.419 1_455 S
C1429 C1424 1.425 1_455 S
C1429 C1426 1.409 . S
C1429 C1427 1.415 . S
C1430 H1420 0.930 . S
C1430 C1428 1.419 1_655 S
C1430 C1431 1.362 . S
C1431 H1421 0.930 . S
C1431 C1424 1.409 . S
C1431 C1430 1.362 . S
H1432 C1438 0.930 . S
H1433 C1441 0.930 . S
H1434 C1442 0.930 . S
H1435 C1443 0.930 . S
H1436 C1446 0.930 . S
H1437 C1447 0.930 . S
C1438 H1432 0.930 . S
C1438 C1439 1.355 . S
C1438 C1440 1.415 . S
C1439 C1438 1.355 . S
C1439 C1441 1.419 . S
C1440 C1438 1.415 . S
C1440 C1445 1.425 . S
C1440 C1447 1.409 . S
C1441 H1433 0.930 . S
C1441 C1439 1.419 . S
C1441 C1442 1.362 . S
C1442 H1434 0.930 . S
C1442 C1441 1.362 . S
C1442 C1445 1.409 . S
C1443 H1435 0.930 . S
C1443 C1444 1.355 . S
C1443 C1445 1.415 . S
C1444 C1443 1.355 . S
C1444 C1446 1.419 . S
C1445 C1440 1.425 . S
C1445 C1442 1.409 . S
C1445 C1443 1.415 . S
C1446 H1436 0.930 . S
C1446 C1444 1.419 . S
C1446 C1447 1.362 . S
C1447 H1437 0.930 . S
C1447 C1440 1.409 . S
C1447 C1446 1.362 . S
H1448 C1454 0.930 . S
H1449 C1457 0.930 . S
H1450 C1458 0.930 . S
H1451 C1459 0.930 . S
H1452 C1462 0.930 . S
H1453 C1463 0.930 . S
C1454 H1448 0.930 . S
C1454 C1455 1.355 . S
C1454 C1456 1.415 . S
C1455 C1454 1.355 . S
C1455 C1457 1.419 1_545 S
C1456 C1454 1.415 . S
C1456 C1461 1.423 . S
C1456 C1463 1.409 . S
C1457 H1449 0.930 . S
C1457 C1455 1.419 1_565 S
C1457 C1458 1.362 . S
C1458 H1450 0.930 . S
C1458 C1457 1.362 . S
C1458 C1461 1.411 1_565 S
C1459 H1451 0.930 . S
C1459 C1460 1.355 1_565 S
C1459 C1461 1.415 1_565 S
C1460 C1459 1.355 1_545 S
C1460 C1462 1.419 . S
C1461 C1456 1.423 . S
C1461 C1458 1.411 1_545 S
C1461 C1459 1.415 1_545 S
C1462 H1452 0.930 . S
C1462 C1460 1.419 . S
C1462 C1463 1.362 . S
C1463 H1453 0.930 . S
C1463 C1456 1.409 . S
C1463 C1462 1.362 . S
H1464 C1470 0.930 . S
H1465 C1473 0.930 . S
H1466 C1474 0.930 . S
H1467 C1475 0.930 . S
H1468 C1478 0.930 . S
H1469 C1479 0.930 . S
C1470 H1464 0.930 . S
C1470 C1471 1.355 . S
C1470 C1472 1.415 . S
C1471 C1470 1.355 . S
C1471 C1473 1.419 . S
C1472 C1470 1.415 . S
C1472 C1477 1.425 . S
C1472 C1479 1.409 . S
C1473 H1465 0.930 . S
C1473 C1471 1.419 . S
C1473 C1474 1.362 . S
C1474 H1466 0.930 . S
C1474 C1473 1.362 . S
C1474 C1477 1.409 . S
C1475 H1467 0.930 . S
C1475 C1476 1.355 . S
C1475 C1477 1.415 . S
C1476 C1475 1.355 . S
C1476 C1478 1.419 . S
C1477 C1472 1.425 . S
C1477 C1474 1.409 . S
C1477 C1475 1.415 . S
C1478 H1468 0.930 . S
C1478 C1476 1.419 . S
C1478 C1479 1.362 . S
C1479 H1469 0.930 . S
C1479 C1472 1.409 . S
C1479 C1478 1.362 . S
H1480 C1486 0.930 . S
H1481 C1489 0.930 . S
H1482 C1490 0.930 . S
H1483 C1491 0.930 . S
H1484 C1494 0.930 . S
H1485 C1495 0.930 . S
C1486 H1480 0.930 . S
C1486 C1487 1.355 . S
C1486 C1488 1.415 . S
C1487 C1486 1.355 . S
C1487 C1489 1.419 . S
C1488 C1486 1.415 . S
C1488 C1493 1.425 . S
C1488 C1495 1.409 . S
C1489 H1481 0.930 . S
C1489 C1487 1.419 . S
C1489 C1490 1.362 . S
C1490 H1482 0.930 . S
C1490 C1489 1.362 . S
C1490 C1493 1.409 . S
C1491 H1483 0.930 . S
C1491 C1492 1.355 . S
C1491 C1493 1.415 . S
C1492 C1491 1.355 . S
C1492 C1494 1.419 . S
C1493 C1488 1.425 . S
C1493 C1490 1.409 . S
C1493 C1491 1.415 . S
C1494 H1484 0.930 . S
C1494 C1492 1.419 . S
C1494 C1495 1.362 . S
C1495 H1485 0.930 . S
C1495 C1488 1.409 . S
C1495 C1494 1.362 . S
H1496 C1502 0.930 . S
H1497 C1505 0.930 . S
H1498 C1506 0.930 . S
H1499 C1507 0.930 . S
H1500 C1510 0.930 . S
H1501 C1511 0.930 . S
C1502 H1496 0.930 . S
C1502 C1503 1.355 . S
C1502 C1504 1.415 . S
C1503 C1502 1.355 . S
C1503 C1505 1.419 . S
C1504 C1502 1.415 . S
C1504 C1509 1.425 . S
C1504 C1511 1.409 . S
C1505 H1497 0.930 . S
C1505 C1503 1.419 . S
C1505 C1506 1.362 . S
C1506 H1498 0.930 . S
C1506 C1505 1.362 . S
C1506 C1509 1.409 . S
C1507 H1499 0.930 . S
C1507 C1508 1.355 . S
C1507 C1509 1.415 . S
C1508 C1507 1.355 . S
C1508 C1510 1.419 . S
C1509 C1504 1.425 . S
C1509 C1506 1.409 . S
C1509 C1507 1.415 . S
C1510 H1500 0.930 . S
C1510 C1508 1.419 . S
C1510 C1511 1.362 . S
C1511 H1501 0.930 . S
C1511 C1504 1.409 . S
C1511 C1510 1.362 . S
H1512 C1518 0.930 . S
H1513 C1521 0.930 . S
H1514 C1522 0.930 . S
H1515 C1523 0.930 . S
H1516 C1526 0.930 . S
H1517 C1527 0.930 . S
C1518 H1512 0.930 . S
C1518 C1519 1.355 . S
C1518 C1520 1.415 . S
C1519 C1518 1.355 . S
C1519 C1521 1.419 . S
C1520 C1518 1.415 . S
C1520 C1525 1.425 . S
C1520 C1527 1.409 . S
C1521 H1513 0.930 . S
C1521 C1519 1.419 . S
C1521 C1522 1.362 . S
C1522 H1514 0.930 . S
C1522 C1521 1.362 . S
C1522 C1525 1.409 . S
C1523 H1515 0.930 . S
C1523 C1524 1.355 . S
C1523 C1525 1.415 . S
C1524 C1523 1.355 . S
C1524 C1526 1.419 . S
C1525 C1520 1.425 . S
C1525 C1522 1.409 . S
C1525 C1523 1.415 . S
C1526 H1516 0.930 . S
C1526 C1524 1.419 . S
C1526 C1527 1.362 . S
C1527 H1517 0.930 . S
C1527 C1520 1.409 . S
C1527 C1526 1.362 . S
H1528 C1534 0.930 . S
H1529 C1537 0.930 . S
H1530 C1538 0.930 . S
H1531 C1539 0.930 . S
H1532 C1542 0.930 . S
H1533 C1543 0.930 . S
C1534 H1528 0.930 . S
C1534 C1535 1.355 . S
C1534 C1536 1.415 . S
C1535 C1534 1.355 . S
C1535 C1537 1.419 . S
C1536 C1534 1.415 . S
C1536 C1541 1.425 . S
C1536 C1543 1.409 . S
C1537 H1529 0.930 . S
C1537 C1535 1.419 . S
C1537 C1538 1.362 . S
C1538 H1530 0.930 . S
C1538 C1537 1.362 . S
C1538 C1541 1.409 . S
C1539 H1531 0.930 . S
C1539 C1540 1.355 . S
C1539 C1541 1.415 . S
C1540 C1539 1.355 . S
C1540 C1542 1.419 . S
C1541 C1536 1.425 . S
C1541 C1538 1.409 . S
C1541 C1539 1.415 . S
C1542 H1532 0.930 . S
C1542 C1540 1.419 . S
C1542 C1543 1.362 . S
C1543 H1533 0.930 . S
C1543 C1536 1.409 . S
C1543 C1542 1.362 . S
H1544 C1550 0.930 . S
H1545 C1553 0.930 . S
H1546 C1554 0.930 . S
H1547 C1555 0.930 . S
H1548 C1558 0.930 . S
H1549 C1559 0.930 . S
C1550 H1544 0.930 . S
C1550 C1551 1.355 . S
C1550 C1552 1.415 . S
C1551 C1550 1.355 . S
C1551 C1553 1.419 . S
C1552 C1550 1.415 . S
C1552 C1557 1.425 . S
C1552 C1559 1.409 . S
C1553 H1545 0.930 . S
C1553 C1551 1.419 . S
C1553 C1554 1.362 . S
C1554 H1546 0.930 . S
C1554 C1553 1.362 . S
C1554 C1557 1.409 . S
C1555 H1547 0.930 . S
C1555 C1556 1.355 . S
C1555 C1557 1.415 . S
C1556 C1555 1.355 . S
C1556 C1558 1.419 . S
C1557 C1552 1.425 . S
C1557 C1554 1.409 . S
C1557 C1555 1.415 . S
C1558 H1548 0.930 . S
C1558 C1556 1.419 . S
C1558 C1559 1.362 . S
C1559 H1549 0.930 . S
C1559 C1552 1.409 . S
C1559 C1558 1.362 . S
H1560 C1566 0.930 . S
H1561 C1569 0.930 . S
H1562 C1570 0.930 . S
H1563 C1571 0.930 . S
H1564 C1574 0.930 . S
H1565 C1575 0.930 . S
C1566 H1560 0.930 . S
C1566 C1567 1.355 . S
C1566 C1568 1.415 . S
C1567 C1566 1.355 . S
C1567 C1569 1.419 . S
C1568 C1566 1.415 . S
C1568 C1573 1.425 . S
C1568 C1575 1.409 . S
C1569 H1561 0.930 . S
C1569 C1567 1.419 . S
C1569 C1570 1.362 . S
C1570 H1562 0.930 . S
C1570 C1569 1.362 . S
C1570 C1573 1.409 . S
C1571 H1563 0.930 . S
C1571 C1572 1.355 . S
C1571 C1573 1.415 . S
C1572 C1571 1.355 . S
C1572 C1574 1.419 . S
C1573 C1568 1.425 . S
C1573 C1570 1.409 . S
C1573 C1571 1.415 . S
C1574 H1564 0.930 . S
C1574 C1572 1.419 . S
C1574 C1575 1.362 . S
C1575 H1565 0.930 . S
C1575 C1568 1.409 . S
C1575 C1574 1.362 . S
H1576 C1582 0.930 . S
H1577 C1585 0.930 . S
H1578 C1586 0.930 . S
H1579 C1587 0.930 . S
H1580 C1590 0.930 . S
H1581 C1591 0.930 . S
C1582 H1576 0.930 . S
C1582 C1583 1.355 . S
C1582 C1584 1.415 . S
C1583 C1582 1.355 . S
C1583 C1585 1.419 . S
C1584 C1582 1.415 . S
C1584 C1589 1.425 . S
C1584 C1591 1.409 . S
C1585 H1577 0.930 . S
C1585 C1583 1.419 . S
C1585 C1586 1.362 . S
C1586 H1578 0.930 . S
C1586 C1585 1.362 . S
C1586 C1589 1.409 . S
C1587 H1579 0.930 . S
C1587 C1588 1.355 . S
C1587 C1589 1.415 . S
C1588 C1587 1.355 . S
C1588 C1590 1.419 . S
C1589 C1584 1.425 . S
C1589 C1586 1.409 . S
C1589 C1587 1.415 . S
C1590 H1580 0.930 . S
C1590 C1588 1.419 . S
C1590 C1591 1.362 . S
C1591 H1581 0.930 . S
C1591 C1584 1.409 . S
C1591 C1590 1.362 . S
H1592 C1598 0.930 . S
H1593 C1601 0.930 . S
H1594 C1602 0.930 . S
H1595 C1603 0.930 . S
H1596 C1606 0.930 . S
H1597 C1607 0.930 . S
C1598 H1592 0.930 . S
C1598 C1599 1.355 . S
C1598 C1600 1.415 . S
C1599 C1598 1.355 . S
C1599 C1601 1.419 . S
C1600 C1598 1.415 . S
C1600 C1605 1.425 . S
C1600 C1607 1.409 . S
C1601 H1593 0.930 . S
C1601 C1599 1.419 . S
C1601 C1602 1.362 . S
C1602 H1594 0.930 . S
C1602 C1601 1.362 . S
C1602 C1605 1.409 . S
C1603 H1595 0.930 . S
C1603 C1604 1.355 . S
C1603 C1605 1.415 . S
C1604 C1603 1.355 . S
C1604 C1606 1.419 . S
C1605 C1600 1.425 . S
C1605 C1602 1.409 . S
C1605 C1603 1.415 . S
C1606 H1596 0.930 . S
C1606 C1604 1.419 . S
C1606 C1607 1.362 . S
C1607 H1597 0.930 . S
C1607 C1600 1.409 . S
C1607 C1606 1.362 . S
H1608 C1614 0.930 . S
H1609 C1617 0.930 . S
H1610 C1618 0.930 . S
H1611 C1619 0.930 . S
H1612 C1622 0.930 . S
H1613 C1623 0.930 . S
C1614 H1608 0.930 . S
C1614 C1615 1.355 . S
C1614 C1616 1.415 . S
C1615 C1614 1.355 . S
C1615 C1617 1.419 . S
C1616 C1614 1.415 . S
C1616 C1621 1.425 . S
C1616 C1623 1.409 . S
C1617 H1609 0.930 . S
C1617 C1615 1.419 . S
C1617 C1618 1.362 . S
C1618 H1610 0.930 . S
C1618 C1617 1.362 . S
C1618 C1621 1.409 . S
C1619 H1611 0.930 . S
C1619 C1620 1.355 . S
C1619 C1621 1.415 . S
C1620 C1619 1.355 . S
C1620 C1622 1.419 . S
C1621 C1616 1.425 . S
C1621 C1618 1.409 . S
C1621 C1619 1.415 . S
C1622 H1612 0.930 . S
C1622 C1620 1.419 . S
C1622 C1623 1.362 . S
C1623 H1613 0.930 . S
C1623 C1616 1.409 . S
C1623 C1622 1.362 . S
H1624 C1630 0.930 . S
H1625 C1633 0.930 . S
H1626 C1634 0.930 . S
H1627 C1635 0.930 . S
H1628 C1638 0.930 . S
H1629 C1639 0.930 . S
C1630 H1624 0.930 . S
C1630 C1631 1.355 . S
C1630 C1632 1.415 . S
C1631 C1630 1.355 . S
C1631 C1633 1.419 . S
C1632 C1630 1.415 . S
C1632 C1637 1.425 . S
C1632 C1639 1.409 . S
C1633 H1625 0.930 . S
C1633 C1631 1.419 . S
C1633 C1634 1.362 . S
C1634 H1626 0.930 . S
C1634 C1633 1.362 . S
C1634 C1637 1.409 . S
C1635 H1627 0.930 . S
C1635 C1636 1.355 . S
C1635 C1637 1.415 . S
C1636 C1635 1.355 . S
C1636 C1638 1.419 . S
C1637 C1632 1.425 . S
C1637 C1634 1.409 . S
C1637 C1635 1.415 . S
C1638 H1628 0.930 . S
C1638 C1636 1.419 . S
C1638 C1639 1.362 . S
C1639 H1629 0.930 . S
C1639 C1632 1.409 . S
C1639 C1638 1.362 . S
H1640 C1646 0.930 . S
H1641 C1649 0.930 . S
H1642 C1650 0.930 . S
H1643 C1651 0.930 . S
H1644 C1654 0.930 . S
H1645 C1655 0.930 . S
C1646 H1640 0.930 . S
C1646 C1647 1.355 . S
C1646 C1648 1.415 . S
C1647 C1646 1.355 . S
C1647 C1649 1.419 . S
C1648 C1646 1.415 . S
C1648 C1653 1.425 . S
C1648 C1655 1.409 . S
C1649 H1641 0.930 . S
C1649 C1647 1.419 . S
C1649 C1650 1.362 . S
C1650 H1642 0.930 . S
C1650 C1649 1.362 . S
C1650 C1653 1.409 . S
C1651 H1643 0.930 . S
C1651 C1652 1.355 . S
C1651 C1653 1.415 . S
C1652 C1651 1.355 . S
C1652 C1654 1.419 . S
C1653 C1648 1.425 . S
C1653 C1650 1.409 . S
C1653 C1651 1.415 . S
C1654 H1644 0.930 . S
C1654 C1652 1.419 . S
C1654 C1655 1.362 . S
C1655 H1645 0.930 . S
C1655 C1648 1.409 . S
C1655 C1654 1.362 . S
H1656 C1662 0.930 . S
H1657 C1665 0.930 . S
H1658 C1666 0.930 . S
H1659 C1667 0.930 . S
H1660 C1670 0.930 . S
H1661 C1671 0.930 . S
C1662 H1656 0.930 . S
C1662 C1663 1.355 . S
C1662 C1664 1.415 . S
C1663 C1662 1.355 . S
C1663 C1665 1.419 . S
C1664 C1662 1.415 . S
C1664 C1669 1.425 . S
C1664 C1671 1.409 . S
C1665 H1657 0.930 . S
C1665 C1663 1.419 . S
C1665 C1666 1.362 . S
C1666 H1658 0.930 . S
C1666 C1665 1.362 . S
C1666 C1669 1.409 . S
C1667 H1659 0.930 . S
C1667 C1668 1.355 . S
C1667 C1669 1.415 . S
C1668 C1667 1.355 . S
C1668 C1670 1.419 . S
C1669 C1664 1.425 . S
C1669 C1666 1.409 . S
C1669 C1667 1.415 . S
C1670 H1660 0.930 . S
C1670 C1668 1.419 . S
C1670 C1671 1.362 . S
C1671 H1661 0.930 . S
C1671 C1664 1.409 . S
C1671 C1670 1.362 . S
H1672 C1678 0.930 . S
H1673 C1681 0.930 . S
H1674 C1682 0.930 . S
H1675 C1683 0.930 . S
H1676 C1686 0.930 . S
H1677 C1687 0.930 . S
C1678 H1672 0.930 . S
C1678 C1679 1.355 . S
C1678 C1680 1.415 . S
C1679 C1678 1.355 . S
C1679 C1681 1.419 . S
C1680 C1678 1.415 . S
C1680 C1685 1.425 . S
C1680 C1687 1.409 . S
C1681 H1673 0.930 . S
C1681 C1679 1.419 . S
C1681 C1682 1.362 . S
C1682 H1674 0.930 . S
C1682 C1681 1.362 . S
C1682 C1685 1.409 . S
C1683 H1675 0.930 . S
C1683 C1684 1.355 . S
C1683 C1685 1.415 . S
C1684 C1683 1.355 . S
C1684 C1686 1.419 . S
C1685 C1680 1.425 . S
C1685 C1682 1.409 . S
C1685 C1683 1.415 . S
C1686 H1676 0.930 . S
C1686 C1684 1.419 . S
C1686 C1687 1.362 . S
C1687 H1677 0.930 . S
C1687 C1680 1.409 . S
C1687 C1686 1.362 . S
H1688 C1694 0.930 . S
H1689 C1697 0.930 . S
H1690 C1698 0.930 . S
H1691 C1699 0.930 . S
H1692 C1702 0.930 . S
H1693 C1703 0.930 . S
C1694 H1688 0.930 . S
C1694 C1695 1.355 . S
C1694 C1696 1.415 . S
C1695 C1694 1.355 . S
C1695 C1697 1.419 . S
C1696 C1694 1.415 . S
C1696 C1701 1.425 . S
C1696 C1703 1.409 . S
C1697 H1689 0.930 . S
C1697 C1695 1.419 . S
C1697 C1698 1.362 . S
C1698 H1690 0.930 . S
C1698 C1697 1.362 . S
C1698 C1701 1.409 . S
C1699 H1691 0.930 . S
C1699 C1700 1.355 . S
C1699 C1701 1.415 . S
C1700 C1699 1.355 . S
C1700 C1702 1.419 . S
C1701 C1696 1.425 . S
C1701 C1698 1.409 . S
C1701 C1699 1.415 . S
C1702 H1692 0.930 . S
C1702 C1700 1.419 . S
C1702 C1703 1.362 . S
C1703 H1693 0.930 . S
C1703 C1696 1.409 . S
C1703 C1702 1.362 . S
H1704 C1710 0.930 . S
H1705 C1713 0.930 . S
H1706 C1714 0.930 . S
H1707 C1715 0.930 . S
H1708 C1718 0.930 . S
H1709 C1719 0.930 . S
C1710 H1704 0.930 . S
C1710 C1711 1.355 . S
C1710 C1712 1.415 . S
C1711 C1710 1.355 . S
C1711 C1713 1.419 . S
C1712 C1710 1.415 . S
C1712 C1717 1.425 . S
C1712 C1719 1.409 . S
C1713 H1705 0.930 . S
C1713 C1711 1.419 . S
C1713 C1714 1.362 . S
C1714 H1706 0.930 . S
C1714 C1713 1.362 . S
C1714 C1717 1.409 . S
C1715 H1707 0.930 . S
C1715 C1716 1.355 . S
C1715 C1717 1.415 . S
C1716 C1715 1.355 . S
C1716 C1718 1.419 . S
C1717 C1712 1.425 . S
C1717 C1714 1.409 . S
C1717 C1715 1.415 . S
C1718 H1708 0.930 . S
C1718 C1716 1.419 . S
C1718 C1719 1.362 . S
C1719 H1709 0.930 . S
C1719 C1712 1.409 . S
C1719 C1718 1.362 . S
H1720 C1726 0.930 . S
H1721 C1729 0.930 . S
H1722 C1730 0.930 . S
H1723 C1731 0.930 . S
H1724 C1734 0.930 . S
H1725 C1735 0.930 . S
C1726 H1720 0.930 . S
C1726 C1727 1.355 . S
C1726 C1728 1.415 . S
C1727 C1726 1.355 . S
C1727 C1729 1.419 . S
C1728 C1726 1.415 . S
C1728 C1733 1.425 . S
C1728 C1735 1.409 . S
C1729 H1721 0.930 . S
C1729 C1727 1.419 . S
C1729 C1730 1.362 . S
C1730 H1722 0.930 . S
C1730 C1729 1.362 . S
C1730 C1733 1.409 . S
C1731 H1723 0.930 . S
C1731 C1732 1.355 . S
C1731 C1733 1.415 . S
C1732 C1731 1.355 . S
C1732 C1734 1.419 . S
C1733 C1728 1.425 . S
C1733 C1730 1.409 . S
C1733 C1731 1.415 . S
C1734 H1724 0.930 . S
C1734 C1732 1.419 . S
C1734 C1735 1.362 . S
C1735 H1725 0.930 . S
C1735 C1728 1.409 . S
C1735 C1734 1.362 . S
H1736 C1742 0.930 . S
H1737 C1745 0.930 . S
H1738 C1746 0.930 . S
H1739 C1747 0.930 . S
H1740 C1750 0.930 . S
H1741 C1751 0.930 . S
C1742 H1736 0.930 . S
C1742 C1743 1.355 . S
C1742 C1744 1.415 . S
C1743 C1742 1.355 . S
C1743 C1745 1.419 . S
C1744 C1742 1.415 . S
C1744 C1749 1.425 . S
C1744 C1751 1.409 . S
C1745 H1737 0.930 . S
C1745 C1743 1.419 . S
C1745 C1746 1.362 . S
C1746 H1738 0.930 . S
C1746 C1745 1.362 . S
C1746 C1749 1.409 . S
C1747 H1739 0.930 . S
C1747 C1748 1.355 . S
C1747 C1749 1.415 . S
C1748 C1747 1.355 . S
C1748 C1750 1.419 . S
C1749 C1744 1.425 . S
C1749 C1746 1.409 . S
C1749 C1747 1.415 . S
C1750 H1740 0.930 . S
C1750 C1748 1.419 . S
C1750 C1751 1.362 . S
C1751 H1741 0.930 . S
C1751 C1744 1.409 . S
C1751 C1750 1.362 . S
H1752 C1758 0.930 . S
H1753 C1761 0.930 . S
H1754 C1762 0.930 . S
H1755 C1763 0.930 . S
H1756 C1766 0.930 . S
H1757 C1767 0.930 . S
C1758 H1752 0.930 . S
C1758 C1759 1.355 . S
C1758 C1760 1.415 . S
C1759 C1758 1.355 . S
C1759 C1761 1.419 . S
C1760 C1758 1.415 . S
C1760 C1765 1.425 . S
C1760 C1767 1.409 . S
C1761 H1753 0.930 . S
C1761 C1759 1.419 . S
C1761 C1762 1.362 . S
C1762 H1754 0.930 . S
C1762 C1761 1.362 . S
C1762 C1765 1.409 . S
C1763 H1755 0.930 . S
C1763 C1764 1.355 . S
C1763 C1765 1.415 . S
C1764 C1763 1.355 . S
C1764 C1766 1.419 . S
C1765 C1760 1.425 . S
C1765 C1762 1.409 . S
C1765 C1763 1.415 . S
C1766 H1756 0.930 . S
C1766 C1764 1.419 . S
C1766 C1767 1.362 . S
C1767 H1757 0.930 . S
C1767 C1760 1.409 . S
C1767 C1766 1.362 . S
H1768 C1774 0.930 . S
H1769 C1777 0.930 . S
H1770 C1778 0.930 . S
H1771 C1779 0.930 . S
H1772 C1782 0.930 . S
H1773 C1783 0.930 . S
C1774 H1768 0.930 . S
C1774 C1775 1.355 . S
C1774 C1776 1.415 . S
C1775 C1774 1.355 . S
C1775 C1777 1.419 . S
C1776 C1774 1.415 . S
C1776 C1781 1.425 . S
C1776 C1783 1.409 . S
C1777 H1769 0.930 . S
C1777 C1775 1.419 . S
C1777 C1778 1.362 . S
C1778 H1770 0.930 . S
C1778 C1777 1.362 . S
C1778 C1781 1.409 . S
C1779 H1771 0.930 . S
C1779 C1780 1.355 . S
C1779 C1781 1.415 . S
C1780 C1779 1.355 . S
C1780 C1782 1.419 . S
C1781 C1776 1.425 . S
C1781 C1778 1.409 . S
C1781 C1779 1.415 . S
C1782 H1772 0.930 . S
C1782 C1780 1.419 . S
C1782 C1783 1.362 . S
C1783 H1773 0.930 . S
C1783 C1776 1.409 . S
C1783 C1782 1.362 . S
H1784 C1790 0.930 . S
H1785 C1793 0.930 . S
H1786 C1794 0.930 . S
H1787 C1795 0.930 . S
H1788 C1798 0.930 . S
H1789 C1799 0.930 . S
C1790 H1784 0.930 . S
C1790 C1791 1.355 . S
C1790 C1792 1.415 . S
C1791 C1790 1.355 . S
C1791 C1793 1.419 . S
C1792 C1790 1.415 . S
C1792 C1797 1.425 . S
C1792 C1799 1.409 . S
C1793 H1785 0.930 . S
C1793 C1791 1.419 . S
C1793 C1794 1.362 . S
C1794 H1786 0.930 . S
C1794 C1793 1.362 . S
C1794 C1797 1.409 . S
C1795 H1787 0.930 . S
C1795 C1796 1.355 . S
C1795 C1797 1.415 . S
C1796 C1795 1.355 . S
C1796 C1798 1.419 . S
C1797 C1792 1.425 . S
C1797 C1794 1.409 . S
C1797 C1795 1.415 . S
C1798 H1788 0.930 . S
C1798 C1796 1.419 . S
C1798 C1799 1.362 . S
C1799 H1789 0.930 . S
C1799 C1792 1.409 . S
C1799 C1798 1.362 . S
H1800 C1806 0.930 . S
H1801 C1809 0.930 . S
H1802 C1810 0.930 . S
H1803 C1811 0.930 . S
H1804 C1814 0.930 . S
H1805 C1815 0.930 . S
C1806 H1800 0.930 . S
C1806 C1807 1.355 . S
C1806 C1808 1.415 . S
C1807 C1806 1.355 . S
C1807 C1809 1.419 . S
C1808 C1806 1.415 . S
C1808 C1813 1.425 . S
C1808 C1815 1.409 . S
C1809 H1801 0.930 . S
C1809 C1807 1.419 . S
C1809 C1810 1.362 . S
C1810 H1802 0.930 . S
C1810 C1809 1.362 . S
C1810 C1813 1.409 . S
C1811 H1803 0.930 . S
C1811 C1812 1.355 . S
C1811 C1813 1.415 . S
C1812 C1811 1.355 . S
C1812 C1814 1.419 . S
C1813 C1808 1.425 . S
C1813 C1810 1.409 . S
C1813 C1811 1.415 . S
C1814 H1804 0.930 . S
C1814 C1812 1.419 . S
C1814 C1815 1.362 . S
C1815 H1805 0.930 . S
C1815 C1808 1.409 . S
C1815 C1814 1.362 . S
H1816 C1822 0.930 . S
H1817 C1825 0.930 . S
H1818 C1826 0.930 . S
H1819 C1827 0.930 . S
H1820 C1830 0.930 . S
H1821 C1831 0.930 . S
C1822 H1816 0.930 . S
C1822 C1823 1.355 . S
C1822 C1824 1.415 . S
C1823 C1822 1.355 . S
C1823 C1825 1.419 . S
C1824 C1822 1.415 . S
C1824 C1829 1.425 . S
C1824 C1831 1.409 . S
C1825 H1817 0.930 . S
C1825 C1823 1.419 . S
C1825 C1826 1.362 . S
C1826 H1818 0.930 . S
C1826 C1825 1.362 . S
C1826 C1829 1.409 . S
C1827 H1819 0.930 . S
C1827 C1828 1.355 . S
C1827 C1829 1.415 . S
C1828 C1827 1.355 . S
C1828 C1830 1.419 . S
C1829 C1824 1.425 . S
C1829 C1826 1.409 . S
C1829 C1827 1.415 . S
C1830 H1820 0.930 . S
C1830 C1828 1.419 . S
C1830 C1831 1.362 . S
C1831 H1821 0.930 . S
C1831 C1824 1.409 . S
C1831 C1830 1.362 . S
H1832 C1838 0.930 . S
H1833 C1841 0.930 . S
H1834 C1842 0.930 . S
H1835 C1843 0.930 . S
H1836 C1846 0.930 . S
H1837 C1847 0.930 . S
C1838 H1832 0.930 . S
C1838 C1839 1.355 . S
C1838 C1840 1.415 . S
C1839 C1838 1.355 . S
C1839 C1841 1.419 . S
C1840 C1838 1.415 . S
C1840 C1845 1.425 . S
C1840 C1847 1.409 . S
C1841 H1833 0.930 . S
C1841 C1839 1.419 . S
C1841 C1842 1.362 . S
C1842 H1834 0.930 . S
C1842 C1841 1.362 . S
C1842 C1845 1.409 . S
C1843 H1835 0.930 . S
C1843 C1844 1.355 . S
C1843 C1845 1.415 . S
C1844 C1843 1.355 . S
C1844 C1846 1.419 . S
C1845 C1840 1.425 . S
C1845 C1842 1.409 . S
C1845 C1843 1.415 . S
C1846 H1836 0.930 . S
C1846 C1844 1.419 . S
C1846 C1847 1.362 . S
C1847 H1837 0.930 . S
C1847 C1840 1.409 . S
C1847 C1846 1.362 . S
H1848 C1854 0.930 1_565 S
H1849 C1857 0.930 . S
H1850 C1858 0.930 . S
H1851 C1859 0.930 . S
H1852 C1862 0.930 . S
H1853 C1863 0.930 . S
C1854 H1848 0.930 1_545 S
C1854 C1855 1.355 . S
C1854 C1856 1.415 . S
C1855 C1854 1.355 . S
C1855 C1857 1.419 . S
C1856 C1854 1.415 . S
C1856 C1861 1.425 . S
C1856 C1863 1.409 . S
C1857 H1849 0.930 . S
C1857 C1855 1.419 . S
C1857 C1858 1.362 . S
C1858 H1850 0.930 . S
C1858 C1857 1.362 . S
C1858 C1861 1.409 . S
C1859 H1851 0.930 . S
C1859 C1860 1.355 . S
C1859 C1861 1.415 . S
C1860 C1859 1.355 . S
C1860 C1862 1.419 . S
C1861 C1856 1.425 . S
C1861 C1858 1.409 . S
C1861 C1859 1.415 . S
C1862 H1852 0.930 . S
C1862 C1860 1.419 . S
C1862 C1863 1.362 . S
C1863 H1853 0.930 . S
C1863 C1856 1.409 . S
C1863 C1862 1.362 . S
H1864 C1870 0.930 . S
H1865 C1873 0.930 . S
H1866 C1874 0.919 1_455 S
H1867 C1875 0.930 . S
H1868 C1878 0.930 . S
H1869 C1879 0.930 . S
C1870 H1864 0.930 . S
C1870 C1871 1.355 1_655 S
C1870 C1872 1.415 . S
C1871 C1870 1.355 1_455 S
C1871 C1873 1.419 . S
C1872 C1870 1.415 . S
C1872 C1877 1.425 . S
C1872 C1879 1.409 . S
C1873 H1865 0.930 . S
C1873 C1871 1.419 . S
C1873 C1874 1.362 1_455 S
C1874 H1866 0.919 1_655 S
C1874 C1873 1.362 1_655 S
C1874 C1877 1.409 . S
C1875 H1867 0.930 . S
C1875 C1876 1.355 . S
C1875 C1877 1.415 . S
C1876 C1875 1.355 . S
C1876 C1878 1.419 . S
C1877 C1872 1.425 . S
C1877 C1874 1.409 . S
C1877 C1875 1.415 . S
C1878 H1868 0.930 . S
C1878 C1876 1.419 . S
C1878 C1879 1.362 . S
C1879 H1869 0.930 . S
C1879 C1872 1.409 . S
C1879 C1878 1.362 . S
H1880 C1886 0.930 . S
H1881 C1889 0.930 . S
H1882 C1890 0.930 . S
H1883 C1891 0.930 . S
H1884 C1894 0.930 . S
H1885 C1895 0.930 . S
C1886 H1880 0.930 . S
C1886 C1887 1.355 . S
C1886 C1888 1.415 . S
C1887 C1886 1.355 . S
C1887 C1889 1.419 . S
C1888 C1886 1.415 . S
C1888 C1893 1.425 . S
C1888 C1895 1.409 . S
C1889 H1881 0.930 . S
C1889 C1887 1.419 . S
C1889 C1890 1.362 . S
C1890 H1882 0.930 . S
C1890 C1889 1.362 . S
C1890 C1893 1.409 . S
C1891 H1883 0.930 . S
C1891 C1892 1.355 . S
C1891 C1893 1.415 . S
C1892 C1891 1.355 . S
C1892 C1894 1.419 . S
C1893 C1888 1.425 . S
C1893 C1890 1.409 . S
C1893 C1891 1.415 . S
C1894 H1884 0.930 . S
C1894 C1892 1.419 . S
C1894 C1895 1.362 . S
C1895 H1885 0.930 . S
C1895 C1888 1.409 . S
C1895 C1894 1.362 . S
H1896 C1902 0.930 . S
H1897 C1905 0.930 . S
H1898 C1906 0.930 . S
H1899 C1907 0.930 . S
H1900 C1910 0.930 . S
H1901 C1911 0.930 . S
C1902 H1896 0.930 . S
C1902 C1903 1.355 . S
C1902 C1904 1.415 . S
C1903 C1902 1.355 . S
C1903 C1905 1.419 . S
C1904 C1902 1.415 . S
C1904 C1909 1.425 . S
C1904 C1911 1.409 . S
C1905 H1897 0.930 . S
C1905 C1903 1.419 . S
C1905 C1906 1.362 . S
C1906 H1898 0.930 . S
C1906 C1905 1.362 . S
C1906 C1909 1.409 . S
C1907 H1899 0.930 . S
C1907 C1908 1.355 . S
C1907 C1909 1.415 . S
C1908 C1907 1.355 . S
C1908 C1910 1.419 . S
C1909 C1904 1.425 . S
C1909 C1906 1.409 . S
C1909 C1907 1.415 . S
C1910 H1900 0.930 . S
C1910 C1908 1.419 . S
C1910 C1911 1.362 . S
C1911 H1901 0.930 . S
C1911 C1904 1.409 . S
C1911 C1910 1.362 . S
H1912 C1918 0.930 . S
H1913 C1921 0.930 . S
H1914 C1922 0.930 . S
H1915 C1923 0.930 . S
H1916 C1926 0.930 . S
H1917 C1927 0.930 . S
C1918 H1912 0.930 . S
C1918 C1919 1.355 . S
C1918 C1920 1.415 . S
C1919 C1918 1.355 . S
C1919 C1921 1.419 . S
C1920 C1918 1.415 . S
C1920 C1925 1.425 . S
C1920 C1927 1.409 . S
C1921 H1913 0.930 . S
C1921 C1919 1.419 . S
C1921 C1922 1.362 . S
C1922 H1914 0.930 . S
C1922 C1921 1.362 . S
C1922 C1925 1.409 . S
C1923 H1915 0.930 . S
C1923 C1924 1.355 . S
C1923 C1925 1.415 . S
C1924 C1923 1.355 . S
C1924 C1926 1.419 . S
C1925 C1920 1.425 . S
C1925 C1922 1.409 . S
C1925 C1923 1.415 . S
C1926 H1916 0.930 . S
C1926 C1924 1.419 . S
C1926 C1927 1.362 . S
C1927 H1917 0.930 . S
C1927 C1920 1.409 . S
C1927 C1926 1.362 . S
H1928 C1934 0.930 . S
H1929 C1937 0.930 . S
H1930 C1938 0.930 . S
H1931 C1939 0.930 . S
H1932 C1942 0.930 . S
H1933 C1943 0.930 . S
C1934 H1928 0.930 . S
C1934 C1935 1.355 . S
C1934 C1936 1.415 . S
C1935 C1934 1.355 . S
C1935 C1937 1.419 . S
C1936 C1934 1.415 . S
C1936 C1941 1.425 . S
C1936 C1943 1.409 . S
C1937 H1929 0.930 . S
C1937 C1935 1.419 . S
C1937 C1938 1.362 . S
C1938 H1930 0.930 . S
C1938 C1937 1.362 . S
C1938 C1941 1.409 . S
C1939 H1931 0.930 . S
C1939 C1940 1.355 . S
C1939 C1941 1.415 . S
C1940 C1939 1.355 . S
C1940 C1942 1.419 . S
C1941 C1936 1.425 . S
C1941 C1938 1.409 . S
C1941 C1939 1.415 . S
C1942 H1932 0.930 . S
C1942 C1940 1.419 . S
C1942 C1943 1.362 . S
C1943 H1933 0.930 . S
C1943 C1936 1.409 . S
C1943 C1942 1.362 . S
H1944 C1950 0.930 . S
H1945 C1953 0.930 . S
H1946 C1954 0.930 . S
H1947 C1955 0.930 . S
H1948 C1958 0.930 . S
H1949 C1959 0.930 . S
C1950 H1944 0.930 . S
C1950 C1951 1.355 . S
C1950 C1952 1.415 . S
C1951 C1950 1.355 . S
C1951 C1953 1.419 . S
C1952 C1950 1.415 . S
C1952 C1957 1.425 . S
C1952 C1959 1.409 . S
C1953 H1945 0.930 . S
C1953 C1951 1.419 . S
C1953 C1954 1.362 . S
C1954 H1946 0.930 . S
C1954 C1953 1.362 . S
C1954 C1957 1.409 . S
C1955 H1947 0.930 . S
C1955 C1956 1.355 . S
C1955 C1957 1.415 . S
C1956 C1955 1.355 . S
C1956 C1958 1.419 . S
C1957 C1952 1.425 . S
C1957 C1954 1.409 . S
C1957 C1955 1.415 . S
C1958 H1948 0.930 . S
C1958 C1956 1.419 . S
C1958 C1959 1.362 . S
C1959 H1949 0.930 . S
C1959 C1952 1.409 . S
C1959 C1958 1.362 . S
H1960 C1966 0.930 . S
H1961 C1969 0.930 . S
H1962 C1970 0.930 . S
H1963 C1971 0.930 . S
H1964 C1974 0.930 . S
H1965 C1975 0.930 . S
C1966 H1960 0.930 . S
C1966 C1967 1.355 . S
C1966 C1968 1.415 . S
C1967 C1966 1.355 . S
C1967 C1969 1.419 . S
C1968 C1966 1.415 . S
C1968 C1973 1.425 . S
C1968 C1975 1.409 . S
C1969 H1961 0.930 . S
C1969 C1967 1.419 . S
C1969 C1970 1.362 . S
C1970 H1962 0.930 . S
C1970 C1969 1.362 . S
C1970 C1973 1.409 . S
C1971 H1963 0.930 . S
C1971 C1972 1.355 . S
C1971 C1973 1.415 . S
C1972 C1971 1.355 . S
C1972 C1974 1.419 . S
C1973 C1968 1.425 . S
C1973 C1970 1.409 . S
C1973 C1971 1.415 . S
C1974 H1964 0.930 . S
C1974 C1972 1.419 . S
C1974 C1975 1.362 . S
C1975 H1965 0.930 . S
C1975 C1968 1.409 . S
C1975 C1974 1.362 . S
H1976 C1982 0.930 . S
H1977 C1985 0.930 . S
H1978 C1986 0.930 . S
H1979 C1987 0.930 . S
H1980 C1990 0.930 . S
H1981 C1991 0.930 . S
C1982 H1976 0.930 . S
C1982 C1983 1.355 . S
C1982 C1984 1.415 . S
C1983 C1982 1.355 . S
C1983 C1985 1.419 . S
C1984 C1982 1.415 . S
C1984 C1989 1.425 . S
C1984 C1991 1.409 . S
C1985 H1977 0.930 . S
C1985 C1983 1.419 . S
C1985 C1986 1.362 . S
C1986 H1978 0.930 . S
C1986 C1985 1.362 . S
C1986 C1989 1.409 . S
C1987 H1979 0.930 . S
C1987 C1988 1.355 . S
C1987 C1989 1.415 . S
C1988 C1987 1.355 . S
C1988 C1990 1.419 . S
C1989 C1984 1.425 . S
C1989 C1986 1.409 . S
C1989 C1987 1.415 . S
C1990 H1980 0.930 . S
C1990 C1988 1.419 . S
C1990 C1991 1.362 . S
C1991 H1981 0.930 . S
C1991 C1984 1.409 . S
C1991 C1990 1.362 . S
H1992 C1998 0.930 . S
H1993 C2001 0.930 . S
H1994 C2002 0.930 . S
H1995 C2003 0.930 . S
H1996 C2006 0.930 . S
H1997 C2007 0.930 . S
C1998 H1992 0.930 . S
C1998 C1999 1.355 . S
C1998 C2000 1.415 . S
C1999 C1998 1.355 . S
C1999 C2001 1.419 . S
C2000 C1998 1.415 . S
C2000 C2005 1.425 . S
C2000 C2007 1.409 . S
C2001 H1993 0.930 . S
C2001 C1999 1.419 . S
C2001 C2002 1.362 . S
C2002 H1994 0.930 . S
C2002 C2001 1.362 . S
C2002 C2005 1.409 . S
C2003 H1995 0.930 . S
C2003 C2004 1.355 . S
C2003 C2005 1.415 . S
C2004 C2003 1.355 . S
C2004 C2006 1.419 . S
C2005 C2000 1.425 . S
C2005 C2002 1.409 . S
C2005 C2003 1.415 . S
C2006 H1996 0.930 . S
C2006 C2004 1.419 . S
C2006 C2007 1.362 . S
C2007 H1997 0.930 . S
C2007 C2000 1.409 . S
C2007 C2006 1.362 . S
H2008 C2014 0.930 . S
H2009 C2017 0.930 . S
H2010 C2018 0.930 . S
H2011 C2019 0.930 . S
H2012 C2022 0.930 1_565 S
H2013 C2023 0.930 . S
C2014 H2008 0.930 . S
C2014 C2015 1.355 . S
C2014 C2016 1.415 . S
C2015 C2014 1.355 . S
C2015 C2017 1.419 . S
C2016 C2014 1.415 . S
C2016 C2021 1.425 . S
C2016 C2023 1.409 . S
C2017 H2009 0.930 . S
C2017 C2015 1.419 . S
C2017 C2018 1.362 . S
C2018 H2010 0.930 . S
C2018 C2017 1.362 . S
C2018 C2021 1.409 . S
C2019 H2011 0.930 . S
C2019 C2020 1.355 . S
C2019 C2021 1.415 1_565 S
C2020 C2019 1.355 . S
C2020 C2022 1.419 1_565 S
C2021 C2016 1.425 . S
C2021 C2018 1.409 . S
C2021 C2019 1.415 1_545 S
C2022 H2012 0.930 1_545 S
C2022 C2020 1.419 1_545 S
C2022 C2023 1.362 . S
C2023 H2013 0.930 . S
C2023 C2016 1.409 . S
C2023 C2022 1.362 . S
H2024 C2030 0.930 . S
H2025 C2033 0.930 . S
H2026 C2034 0.930 . S
H2027 C2035 0.930 . S
H2028 C2038 0.930 . S
H2029 C2039 0.930 . S
C2030 H2024 0.930 . S
C2030 C2031 1.355 . S
C2030 C2032 1.415 . S
C2031 C2030 1.355 . S
C2031 C2033 1.419 . S
C2032 C2030 1.415 . S
C2032 C2037 1.425 . S
C2032 C2039 1.409 . S
C2033 H2025 0.930 . S
C2033 C2031 1.419 . S
C2033 C2034 1.362 . S
C2034 H2026 0.930 . S
C2034 C2033 1.362 . S
C2034 C2037 1.409 . S
C2035 H2027 0.930 . S
C2035 C2036 1.355 . S
C2035 C2037 1.415 1_455 S
C2036 C2035 1.355 . S
C2036 C2038 1.419 . S
C2037 C2032 1.425 . S
C2037 C2034 1.409 . S
C2037 C2035 1.415 1_655 S
C2038 H2028 0.930 . S
C2038 C2036 1.419 . S
C2038 C2039 1.362 1_455 S
C2039 H2029 0.930 . S
C2039 C2032 1.409 . S
C2039 C2038 1.362 1_655 S
H2040 C2046 0.930 . S
H2041 C2049 0.930 . S
H2042 C2050 0.930 . S
H2043 C2051 0.930 . S
H2044 C2054 0.930 . S
H2045 C2055 0.930 . S
C2046 H2040 0.930 . S
C2046 C2047 1.355 . S
C2046 C2048 1.415 . S
C2047 C2046 1.355 . S
C2047 C2049 1.419 . S
C2048 C2046 1.415 . S
C2048 C2053 1.425 . S
C2048 C2055 1.409 . S
C2049 H2041 0.930 . S
C2049 C2047 1.419 . S
C2049 C2050 1.362 . S
C2050 H2042 0.930 . S
C2050 C2049 1.362 . S
C2050 C2053 1.409 . S
C2051 H2043 0.930 . S
C2051 C2052 1.355 . S
C2051 C2053 1.415 . S
C2052 C2051 1.355 . S
C2052 C2054 1.419 . S
C2053 C2048 1.425 . S
C2053 C2050 1.409 . S
C2053 C2051 1.415 . S
C2054 H2044 0.930 . S
C2054 C2052 1.419 . S
C2054 C2055 1.362 . S
C2055 H2045 0.930 . S
C2055 C2048 1.409 . S
C2055 C2054 1.362 . S
H2056 C2062 0.930 . S
H2057 C2065 0.930 . S
H2058 C2066 0.930 . S
H2059 C2067 0.930 . S
H2060 C2070 0.930 . S
H2061 C2071 0.930 . S
C2062 H2056 0.930 . S
C2062 C2063 1.355 . S
C2062 C2064 1.415 . S
C2063 C2062 1.355 . S
C2063 C2065 1.419 . S
C2064 C2062 1.415 . S
C2064 C2069 1.425 . S
C2064 C2071 1.409 . S
C2065 H2057 0.930 . S
C2065 C2063 1.419 . S
C2065 C2066 1.362 . S
C2066 H2058 0.930 . S
C2066 C2065 1.362 . S
C2066 C2069 1.409 . S
C2067 H2059 0.930 . S
C2067 C2068 1.355 . S
C2067 C2069 1.415 . S
C2068 C2067 1.355 . S
C2068 C2070 1.419 . S
C2069 C2064 1.425 . S
C2069 C2066 1.409 . S
C2069 C2067 1.415 . S
C2070 H2060 0.930 . S
C2070 C2068 1.419 . S
C2070 C2071 1.362 . S
C2071 H2061 0.930 . S
C2071 C2064 1.409 . S
C2071 C2070 1.362 . S
H2072 C2078 0.930 . S
H2073 C2081 0.930 . S
H2074 C2082 0.930 . S
H2075 C2083 0.930 . S
H2076 C2086 0.930 . S
H2077 C2087 0.930 . S
C2078 H2072 0.930 . S
C2078 C2079 1.355 . S
C2078 C2080 1.415 . S
C2079 C2078 1.355 . S
C2079 C2081 1.419 . S
C2080 C2078 1.415 . S
C2080 C2085 1.425 . S
C2080 C2087 1.409 . S
C2081 H2073 0.930 . S
C2081 C2079 1.419 . S
C2081 C2082 1.362 . S
C2082 H2074 0.930 . S
C2082 C2081 1.362 . S
C2082 C2085 1.409 . S
C2083 H2075 0.930 . S
C2083 C2084 1.355 . S
C2083 C2085 1.415 . S
C2084 C2083 1.355 . S
C2084 C2086 1.419 . S
C2085 C2080 1.425 . S
C2085 C2082 1.409 . S
C2085 C2083 1.415 . S
C2086 H2076 0.930 . S
C2086 C2084 1.419 . S
C2086 C2087 1.362 . S
C2087 H2077 0.930 . S
C2087 C2080 1.409 . S
C2087 C2086 1.362 . S
H2088 C2094 0.930 . S
H2089 C2097 0.930 . S
H2090 C2098 0.930 . S
H2091 C2099 0.930 . S
H2092 C2102 0.930 . S
H2093 C2103 0.930 . S
C2094 H2088 0.930 . S
C2094 C2095 1.355 . S
C2094 C2096 1.415 . S
C2095 C2094 1.355 . S
C2095 C2097 1.419 . S
C2096 C2094 1.415 . S
C2096 C2101 1.425 . S
C2096 C2103 1.409 . S
C2097 H2089 0.930 . S
C2097 C2095 1.419 . S
C2097 C2098 1.362 . S
C2098 H2090 0.930 . S
C2098 C2097 1.362 . S
C2098 C2101 1.409 . S
C2099 H2091 0.930 . S
C2099 C2100 1.355 . S
C2099 C2101 1.415 . S
C2100 C2099 1.355 . S
C2100 C2102 1.419 . S
C2101 C2096 1.425 . S
C2101 C2098 1.409 . S
C2101 C2099 1.415 . S
C2102 H2092 0.930 . S
C2102 C2100 1.419 . S
C2102 C2103 1.362 . S
C2103 H2093 0.930 . S
C2103 C2096 1.409 . S
C2103 C2102 1.362 . S
H2104 C2110 0.930 . S
H2105 C2113 0.930 . S
H2106 C2114 0.930 . S
H2107 C2115 0.930 . S
H2108 C2118 0.930 . S
H2109 C2119 0.930 . S
C2110 H2104 0.930 . S
C2110 C2111 1.355 . S
C2110 C2112 1.415 1_545 S
C2111 C2110 1.355 . S
C2111 C2113 1.419 . S
C2112 C2110 1.415 1_565 S
C2112 C2117 1.425 . S
C2112 C2119 1.409 . S
C2113 H2105 0.930 . S
C2113 C2111 1.419 . S
C2113 C2114 1.362 . S
C2114 H2106 0.930 . S
C2114 C2113 1.362 . S
C2114 C2117 1.409 1_545 S
C2115 H2107 0.930 . S
C2115 C2116 1.355 . S
C2115 C2117 1.415 . S
C2116 C2115 1.355 . S
C2116 C2118 1.419 . S
C2117 C2112 1.425 . S
C2117 C2114 1.409 1_565 S
C2117 C2115 1.415 . S
C2118 H2108 0.930 . S
C2118 C2116 1.419 . S
C2118 C2119 1.362 . S
C2119 H2109 0.930 . S
C2119 C2112 1.409 . S
C2119 C2118 1.362 . S
H2120 C2126 0.930 . S
H2121 C2129 0.930 . S
H2122 C2130 0.930 . S
H2123 C2131 0.930 . S
H2124 C2134 0.930 . S
H2125 C2135 0.930 . S
C2126 H2120 0.930 . S
C2126 C2127 1.355 . S
C2126 C2128 1.415 . S
C2127 C2126 1.355 . S
C2127 C2129 1.419 . S
C2128 C2126 1.415 . S
C2128 C2133 1.425 . S
C2128 C2135 1.409 . S
C2129 H2121 0.930 . S
C2129 C2127 1.419 . S
C2129 C2130 1.362 . S
C2130 H2122 0.930 . S
C2130 C2129 1.362 . S
C2130 C2133 1.409 . S
C2131 H2123 0.930 . S
C2131 C2132 1.355 1_455 S
C2131 C2133 1.415 . S
C2132 C2131 1.355 1_655 S
C2132 C2134 1.419 . S
C2133 C2128 1.425 . S
C2133 C2130 1.409 . S
C2133 C2131 1.415 . S
C2134 H2124 0.930 . S
C2134 C2132 1.419 . S
C2134 C2135 1.362 1_655 S
C2135 H2125 0.930 . S
C2135 C2128 1.409 . S
C2135 C2134 1.362 1_455 S
H2136 C2142 0.930 . S
H2137 C2145 0.930 . S
H2138 C2146 0.930 . S
H2139 C2147 0.930 . S
H2140 C2150 0.930 . S
H2141 C2151 0.930 . S
C2142 H2136 0.930 . S
C2142 C2143 1.355 . S
C2142 C2144 1.415 . S
C2143 C2142 1.355 . S
C2143 C2145 1.419 . S
C2144 C2142 1.415 . S
C2144 C2149 1.425 . S
C2144 C2151 1.409 1_565 S
C2145 H2137 0.930 . S
C2145 C2143 1.419 . S
C2145 C2146 1.362 . S
C2146 H2138 0.930 . S
C2146 C2145 1.362 . S
C2146 C2149 1.409 . S
C2147 H2139 0.930 . S
C2147 C2148 1.355 1_565 S
C2147 C2149 1.415 . S
C2148 C2147 1.355 1_545 S
C2148 C2150 1.419 . S
C2149 C2144 1.425 . S
C2149 C2146 1.409 . S
C2149 C2147 1.415 . S
C2150 H2140 0.930 . S
C2150 C2148 1.419 . S
C2150 C2151 1.362 . S
C2151 H2141 0.930 . S
C2151 C2144 1.409 1_545 S
C2151 C2150 1.362 . S
H2152 C2158 0.930 . S
H2153 C2161 0.930 1_545 S
H2154 C2162 0.930 . S
H2155 C2163 0.930 . S
H2156 C2166 0.930 . S
H2157 C2167 0.930 . S
C2158 H2152 0.930 . S
C2158 C2159 1.355 . S
C2158 C2160 1.415 . S
C2159 C2158 1.355 . S
C2159 C2161 1.419 . S
C2160 C2158 1.415 . S
C2160 C2165 1.425 . S
C2160 C2167 1.409 . S
C2161 H2153 0.930 1_565 S
C2161 C2159 1.419 . S
C2161 C2162 1.362 . S
C2162 H2154 0.930 . S
C2162 C2161 1.362 . S
C2162 C2165 1.409 . S
C2163 H2155 0.930 . S
C2163 C2164 1.355 . S
C2163 C2165 1.415 . S
C2164 C2163 1.355 . S
C2164 C2166 1.419 . S
C2165 C2160 1.425 . S
C2165 C2162 1.409 . S
C2165 C2163 1.415 . S
C2166 H2156 0.930 . S
C2166 C2164 1.419 . S
C2166 C2167 1.362 . S
C2167 H2157 0.930 . S
C2167 C2160 1.409 . S
C2167 C2166 1.362 . S
H2168 C2174 0.930 . S
H2169 C2177 0.930 . S
H2170 C2178 0.930 . S
H2171 C2179 0.930 . S
H2172 C2182 0.930 . S
H2173 C2183 0.930 . S
C2174 H2168 0.930 . S
C2174 C2175 1.355 . S
C2174 C2176 1.415 . S
C2175 C2174 1.355 . S
C2175 C2177 1.419 . S
C2176 C2174 1.415 . S
C2176 C2181 1.425 . S
C2176 C2183 1.409 . S
C2177 H2169 0.930 . S
C2177 C2175 1.419 . S
C2177 C2178 1.362 . S
C2178 H2170 0.930 . S
C2178 C2177 1.362 . S
C2178 C2181 1.409 . S
C2179 H2171 0.930 . S
C2179 C2180 1.355 . S
C2179 C2181 1.415 . S
C2180 C2179 1.355 . S
C2180 C2182 1.419 . S
C2181 C2176 1.425 . S
C2181 C2178 1.409 . S
C2181 C2179 1.415 . S
C2182 H2172 0.930 . S
C2182 C2180 1.419 . S
C2182 C2183 1.362 . S
C2183 H2173 0.930 . S
C2183 C2176 1.409 . S
C2183 C2182 1.362 . S
H2184 C2190 0.930 . S
H2185 C2193 0.930 . S
H2186 C2194 0.930 . S
H2187 C2195 0.930 . S
H2188 C2198 0.930 . S
H2189 C2199 0.930 . S
C2190 H2184 0.930 . S
C2190 C2191 1.355 . S
C2190 C2192 1.415 . S
C2191 C2190 1.355 . S
C2191 C2193 1.419 . S
C2192 C2190 1.415 . S
C2192 C2197 1.425 . S
C2192 C2199 1.409 . S
C2193 H2185 0.930 . S
C2193 C2191 1.419 . S
C2193 C2194 1.362 . S
C2194 H2186 0.930 . S
C2194 C2193 1.362 . S
C2194 C2197 1.409 . S
C2195 H2187 0.930 . S
C2195 C2196 1.355 . S
C2195 C2197 1.415 . S
C2196 C2195 1.355 . S
C2196 C2198 1.419 . S
C2197 C2192 1.425 . S
C2197 C2194 1.409 . S
C2197 C2195 1.415 . S
C2198 H2188 0.930 . S
C2198 C2196 1.419 . S
C2198 C2199 1.362 . S
C2199 H2189 0.930 . S
C2199 C2192 1.409 . S
C2199 C2198 1.362 . S
H2200 C2206 0.930 . S
H2201 C2209 0.930 . S
H2202 C2210 0.930 . S
H2203 C2211 0.930 . S
H2204 C2214 0.930 . S
H2205 C2215 0.930 . S
C2206 H2200 0.930 . S
C2206 C2207 1.355 . S
C2206 C2208 1.415 . S
C2207 C2206 1.355 . S
C2207 C2209 1.419 . S
C2208 C2206 1.415 . S
C2208 C2213 1.425 . S
C2208 C2215 1.409 . S
C2209 H2201 0.930 . S
C2209 C2207 1.419 . S
C2209 C2210 1.362 . S
C2210 H2202 0.930 . S
C2210 C2209 1.362 . S
C2210 C2213 1.409 . S
C2211 H2203 0.930 . S
C2211 C2212 1.355 . S
C2211 C2213 1.415 . S
C2212 C2211 1.355 . S
C2212 C2214 1.419 . S
C2213 C2208 1.425 . S
C2213 C2210 1.409 . S
C2213 C2211 1.415 . S
C2214 H2204 0.930 . S
C2214 C2212 1.419 . S
C2214 C2215 1.362 . S
C2215 H2205 0.930 . S
C2215 C2208 1.409 . S
C2215 C2214 1.362 . S
H2216 C2222 0.930 . S
H2217 C2225 0.930 . S
H2218 C2226 0.930 . S
H2219 C2227 0.930 . S
H2220 C2230 0.930 . S
H2221 C2231 0.930 . S
C2222 H2216 0.930 . S
C2222 C2223 1.355 . S
C2222 C2224 1.415 . S
C2223 C2222 1.355 . S
C2223 C2225 1.419 . S
C2224 C2222 1.415 . S
C2224 C2229 1.425 . S
C2224 C2231 1.409 . S
C2225 H2217 0.930 . S
C2225 C2223 1.419 . S
C2225 C2226 1.362 . S
C2226 H2218 0.930 . S
C2226 C2225 1.362 . S
C2226 C2229 1.409 . S
C2227 H2219 0.930 . S
C2227 C2228 1.355 . S
C2227 C2229 1.415 . S
C2228 C2227 1.355 . S
C2228 C2230 1.419 . S
C2229 C2224 1.425 . S
C2229 C2226 1.409 . S
C2229 C2227 1.415 . S
C2230 H2220 0.930 . S
C2230 C2228 1.419 . S
C2230 C2231 1.362 . S
C2231 H2221 0.930 . S
C2231 C2224 1.409 . S
C2231 C2230 1.362 . S
H2232 C2238 0.930 . S
H2233 C2241 0.930 . S
H2234 C2242 0.930 . S
H2235 C2243 0.930 . S
H2236 C2246 0.930 . S
H2237 C2247 0.930 . S
C2238 H2232 0.930 . S
C2238 C2239 1.355 . S
C2238 C2240 1.415 . S
C2239 C2238 1.355 . S
C2239 C2241 1.419 . S
C2240 C2238 1.415 . S
C2240 C2245 1.425 . S
C2240 C2247 1.409 . S
C2241 H2233 0.930 . S
C2241 C2239 1.419 . S
C2241 C2242 1.362 . S
C2242 H2234 0.930 . S
C2242 C2241 1.362 . S
C2242 C2245 1.409 . S
C2243 H2235 0.930 . S
C2243 C2244 1.355 . S
C2243 C2245 1.415 . S
C2244 C2243 1.355 . S
C2244 C2246 1.419 . S
C2245 C2240 1.425 . S
C2245 C2242 1.409 . S
C2245 C2243 1.415 . S
C2246 H2236 0.930 . S
C2246 C2244 1.419 . S
C2246 C2247 1.362 . S
C2247 H2237 0.930 . S
C2247 C2240 1.409 . S
C2247 C2246 1.362 . S
H2248 C2254 0.930 . S
H2249 C2257 0.930 . S
H2250 C2258 0.930 . S
H2251 C2259 0.930 . S
H2252 C2262 0.930 . S
H2253 C2263 0.930 . S
C2254 H2248 0.930 . S
C2254 C2255 1.355 . S
C2254 C2256 1.415 . S
C2255 C2254 1.355 . S
C2255 C2257 1.419 . S
C2256 C2254 1.415 . S
C2256 C2261 1.425 . S
C2256 C2263 1.409 . S
C2257 H2249 0.930 . S
C2257 C2255 1.419 . S
C2257 C2258 1.362 . S
C2258 H2250 0.930 . S
C2258 C2257 1.362 . S
C2258 C2261 1.409 . S
C2259 H2251 0.930 . S
C2259 C2260 1.355 . S
C2259 C2261 1.415 . S
C2260 C2259 1.355 . S
C2260 C2262 1.419 . S
C2261 C2256 1.425 . S
C2261 C2258 1.409 . S
C2261 C2259 1.415 . S
C2262 H2252 0.930 . S
C2262 C2260 1.419 . S
C2262 C2263 1.362 . S
C2263 H2253 0.930 . S
C2263 C2256 1.409 . S
C2263 C2262 1.362 . S
H2264 C2270 0.930 . S
H2265 C2273 0.930 . S
H2266 C2274 0.930 . S
H2267 C2275 0.930 . S
H2268 C2278 0.930 . S
H2269 C2279 0.930 . S
C2270 H2264 0.930 . S
C2270 C2271 1.355 . S
C2270 C2272 1.415 . S
C2271 C2270 1.355 . S
C2271 C2273 1.419 . S
C2272 C2270 1.415 . S
C2272 C2277 1.425 . S
C2272 C2279 1.409 . S
C2273 H2265 0.930 . S
C2273 C2271 1.419 . S
C2273 C2274 1.362 . S
C2274 H2266 0.930 . S
C2274 C2273 1.362 . S
C2274 C2277 1.409 . S
C2275 H2267 0.930 . S
C2275 C2276 1.355 . S
C2275 C2277 1.415 . S
C2276 C2275 1.355 . S
C2276 C2278 1.419 . S
C2277 C2272 1.425 . S
C2277 C2274 1.409 . S
C2277 C2275 1.415 . S
C2278 H2268 0.930 . S
C2278 C2276 1.419 . S
C2278 C2279 1.362 . S
C2279 H2269 0.930 . S
C2279 C2272 1.409 . S
C2279 C2278 1.362 . S
H2280 C2286 0.930 . S
H2281 C2289 0.930 . S
H2282 C2290 0.930 . S
H2283 C2291 0.930 . S
H2284 C2294 0.930 . S
H2285 C2295 0.930 . S
C2286 H2280 0.930 . S
C2286 C2287 1.355 . S
C2286 C2288 1.415 . S
C2287 C2286 1.355 . S
C2287 C2289 1.419 . S
C2288 C2286 1.415 . S
C2288 C2293 1.425 . S
C2288 C2295 1.409 . S
C2289 H2281 0.930 . S
C2289 C2287 1.419 . S
C2289 C2290 1.362 . S
C2290 H2282 0.930 . S
C2290 C2289 1.362 . S
C2290 C2293 1.409 . S
C2291 H2283 0.930 . S
C2291 C2292 1.355 . S
C2291 C2293 1.415 . S
C2292 C2291 1.355 . S
C2292 C2294 1.419 . S
C2293 C2288 1.425 . S
C2293 C2290 1.409 . S
C2293 C2291 1.415 . S
C2294 H2284 0.930 . S
C2294 C2292 1.419 . S
C2294 C2295 1.362 . S
C2295 H2285 0.930 . S
C2295 C2288 1.409 . S
C2295 C2294 1.362 . S
H2296 C2302 0.930 . S
H2297 C2305 0.930 . S
H2298 C2306 0.930 . S
H2299 C2307 0.930 . S
H2300 C2310 0.930 . S
H2301 C2311 0.930 . S
C2302 H2296 0.930 . S
C2302 C2303 1.355 . S
C2302 C2304 1.415 . S
C2303 C2302 1.355 . S
C2303 C2305 1.419 . S
C2304 C2302 1.415 . S
C2304 C2309 1.425 . S
C2304 C2311 1.409 . S
C2305 H2297 0.930 . S
C2305 C2303 1.419 . S
C2305 C2306 1.362 . S
C2306 H2298 0.930 . S
C2306 C2305 1.362 . S
C2306 C2309 1.409 . S
C2307 H2299 0.930 . S
C2307 C2308 1.355 . S
C2307 C2309 1.415 . S
C2308 C2307 1.355 . S
C2308 C2310 1.419 . S
C2309 C2304 1.425 . S
C2309 C2306 1.409 . S
C2309 C2307 1.415 . S
C2310 H2300 0.930 . S
C2310 C2308 1.419 . S
C2310 C2311 1.362 . S
C2311 H2301 0.930 . S
C2311 C2304 1.409 . S
C2311 C2310 1.362 . S
H2312 C2318 0.930 . S
H2313 C2321 0.930 . S
H2314 C2322 0.930 . S
H2315 C2323 0.930 . S
H2316 C2326 0.930 . S
H2317 C2327 0.930 . S
C2318 H2312 0.930 . S
C2318 C2319 1.355 . S
C2318 C2320 1.415 . S
C2319 C2318 1.355 . S
C2319 C2321 1.419 . S
C2320 C2318 1.415 . S
C2320 C2325 1.425 . S
C2320 C2327 1.409 . S
C2321 H2313 0.930 . S
C2321 C2319 1.419 . S
C2321 C2322 1.362 . S
C2322 H2314 0.930 . S
C2322 C2321 1.362 . S
C2322 C2325 1.409 . S
C2323 H2315 0.930 . S
C2323 C2324 1.355 . S
C2323 C2325 1.415 . S
C2324 C2323 1.355 . S
C2324 C2326 1.419 . S
C2325 C2320 1.425 . S
C2325 C2322 1.409 . S
C2325 C2323 1.415 . S
C2326 H2316 0.930 . S
C2326 C2324 1.419 . S
C2326 C2327 1.362 . S
C2327 H2317 0.930 . S
C2327 C2320 1.409 . S
C2327 C2326 1.362 . S
H2328 C2334 0.930 . S
H2329 C2337 0.930 . S
H2330 C2338 0.930 . S
H2331 C2339 0.930 . S
H2332 C2342 0.930 . S
H2333 C2343 0.930 . S
C2334 H2328 0.930 . S
C2334 C2335 1.355 . S
C2334 C2336 1.415 . S
C2335 C2334 1.355 . S
C2335 C2337 1.419 . S
C2336 C2334 1.415 . S
C2336 C2341 1.425 . S
C2336 C2343 1.409 . S
C2337 H2329 0.930 . S
C2337 C2335 1.419 . S
C2337 C2338 1.362 . S
C2338 H2330 0.930 . S
C2338 C2337 1.362 . S
C2338 C2341 1.409 . S
C2339 H2331 0.930 . S
C2339 C2340 1.355 . S
C2339 C2341 1.415 . S
C2340 C2339 1.355 . S
C2340 C2342 1.419 . S
C2341 C2336 1.425 . S
C2341 C2338 1.409 . S
C2341 C2339 1.415 . S
C2342 H2332 0.930 . S
C2342 C2340 1.419 . S
C2342 C2343 1.362 . S
C2343 H2333 0.930 . S
C2343 C2336 1.409 . S
C2343 C2342 1.362 . S
H2344 C2350 0.930 . S
H2345 C2353 0.930 . S
H2346 C2354 0.930 . S
H2347 C2355 0.930 . S
H2348 C2358 0.930 . S
H2349 C2359 0.930 . S
C2350 H2344 0.930 . S
C2350 C2351 1.355 . S
C2350 C2352 1.415 . S
C2351 C2350 1.355 . S
C2351 C2353 1.419 . S
C2352 C2350 1.415 . S
C2352 C2357 1.425 . S
C2352 C2359 1.409 . S
C2353 H2345 0.930 . S
C2353 C2351 1.419 . S
C2353 C2354 1.362 . S
C2354 H2346 0.930 . S
C2354 C2353 1.362 . S
C2354 C2357 1.409 . S
C2355 H2347 0.930 . S
C2355 C2356 1.355 . S
C2355 C2357 1.415 . S
C2356 C2355 1.355 . S
C2356 C2358 1.419 . S
C2357 C2352 1.425 . S
C2357 C2354 1.409 . S
C2357 C2355 1.415 . S
C2358 H2348 0.930 . S
C2358 C2356 1.419 . S
C2358 C2359 1.362 . S
C2359 H2349 0.930 . S
C2359 C2352 1.409 . S
C2359 C2358 1.362 . S
H2360 C2366 0.930 . S
H2361 C2369 0.930 . S
H2362 C2370 0.930 . S
H2363 C2371 0.930 . S
H2364 C2374 0.930 . S
H2365 C2375 0.930 . S
C2366 H2360 0.930 . S
C2366 C2367 1.355 . S
C2366 C2368 1.415 . S
C2367 C2366 1.355 . S
C2367 C2369 1.419 . S
C2368 C2366 1.415 . S
C2368 C2373 1.425 . S
C2368 C2375 1.409 . S
C2369 H2361 0.930 . S
C2369 C2367 1.419 . S
C2369 C2370 1.362 . S
C2370 H2362 0.930 . S
C2370 C2369 1.362 . S
C2370 C2373 1.409 . S
C2371 H2363 0.930 . S
C2371 C2372 1.355 . S
C2371 C2373 1.415 . S
C2372 C2371 1.355 . S
C2372 C2374 1.419 . S
C2373 C2368 1.425 . S
C2373 C2370 1.409 . S
C2373 C2371 1.415 . S
C2374 H2364 0.930 . S
C2374 C2372 1.419 . S
C2374 C2375 1.362 . S
C2375 H2365 0.930 . S
C2375 C2368 1.409 . S
C2375 C2374 1.362 . S
H2376 C2382 0.930 . S
H2377 C2385 0.930 . S
H2378 C2386 0.930 . S
H2379 C2387 0.930 . S
H2380 C2390 0.930 . S
H2381 C2391 0.930 . S
C2382 H2376 0.930 . S
C2382 C2383 1.355 . S
C2382 C2384 1.415 . S
C2383 C2382 1.355 . S
C2383 C2385 1.419 . S
C2384 C2382 1.415 . S
C2384 C2389 1.425 . S
C2384 C2391 1.409 . S
C2385 H2377 0.930 . S
C2385 C2383 1.419 . S
C2385 C2386 1.362 . S
C2386 H2378 0.930 . S
C2386 C2385 1.362 . S
C2386 C2389 1.409 . S
C2387 H2379 0.930 . S
C2387 C2388 1.355 . S
C2387 C2389 1.415 . S
C2388 C2387 1.355 . S
C2388 C2390 1.419 . S
C2389 C2384 1.425 . S
C2389 C2386 1.409 . S
C2389 C2387 1.415 . S
C2390 H2380 0.930 . S
C2390 C2388 1.419 . S
C2390 C2391 1.362 . S
C2391 H2381 0.930 . S
C2391 C2384 1.409 . S
C2391 C2390 1.362 . S
H2392 C2398 0.930 . S
H2393 C2401 0.930 . S
H2394 C2402 0.930 . S
H2395 C2403 0.930 . S
H2396 C2406 0.930 . S
H2397 C2407 0.930 . S
C2398 H2392 0.930 . S
C2398 C2399 1.355 . S
C2398 C2400 1.415 . S
C2399 C2398 1.355 . S
C2399 C2401 1.419 . S
C2400 C2398 1.415 . S
C2400 C2405 1.425 . S
C2400 C2407 1.409 . S
C2401 H2393 0.930 . S
C2401 C2399 1.419 . S
C2401 C2402 1.362 . S
C2402 H2394 0.930 . S
C2402 C2401 1.362 . S
C2402 C2405 1.409 . S
C2403 H2395 0.930 . S
C2403 C2404 1.355 . S
C2403 C2405 1.415 . S
C2404 C2403 1.355 . S
C2404 C2406 1.419 . S
C2405 C2400 1.425 . S
C2405 C2402 1.409 . S
C2405 C2403 1.415 . S
C2406 H2396 0.930 . S
C2406 C2404 1.419 . S
C2406 C2407 1.362 . S
C2407 H2397 0.930 . S
C2407 C2400 1.409 . S
C2407 C2406 1.362 . S
H2408 C2414 0.930 . S
H2409 C2417 0.930 . S
H2410 C2418 0.930 . S
H2411 C2419 0.930 . S
H2412 C2422 0.930 . S
H2413 C2423 0.930 . S
C2414 H2408 0.930 . S
C2414 C2415 1.355 . S
C2414 C2416 1.415 . S
C2415 C2414 1.355 . S
C2415 C2417 1.419 . S
C2416 C2414 1.415 . S
C2416 C2421 1.425 . S
C2416 C2423 1.409 . S
C2417 H2409 0.930 . S
C2417 C2415 1.419 . S
C2417 C2418 1.362 . S
C2418 H2410 0.930 . S
C2418 C2417 1.362 . S
C2418 C2421 1.409 . S
C2419 H2411 0.930 . S
C2419 C2420 1.355 . S
C2419 C2421 1.415 . S
C2420 C2419 1.355 . S
C2420 C2422 1.419 . S
C2421 C2416 1.425 . S
C2421 C2418 1.409 . S
C2421 C2419 1.415 . S
C2422 H2412 0.930 . S
C2422 C2420 1.419 . S
C2422 C2423 1.362 . S
C2423 H2413 0.930 . S
C2423 C2416 1.409 . S
C2423 C2422 1.362 . S
H2424 C2430 0.930 . S
H2425 C2433 0.930 . S
H2426 C2434 0.930 . S
H2427 C2435 0.930 . S
H2428 C2438 0.930 . S
H2429 C2439 0.930 . S
C2430 H2424 0.930 . S
C2430 C2431 1.355 . S
C2430 C2432 1.415 . S
C2431 C2430 1.355 . S
C2431 C2433 1.419 . S
C2432 C2430 1.415 . S
C2432 C2437 1.425 . S
C2432 C2439 1.409 . S
C2433 H2425 0.930 . S
C2433 C2431 1.419 . S
C2433 C2434 1.362 . S
C2434 H2426 0.930 . S
C2434 C2433 1.362 . S
C2434 C2437 1.409 . S
C2435 H2427 0.930 . S
C2435 C2436 1.355 . S
C2435 C2437 1.415 . S
C2436 C2435 1.355 . S
C2436 C2438 1.419 . S
C2437 C2432 1.425 . S
C2437 C2434 1.409 . S
C2437 C2435 1.415 . S
C2438 H2428 0.930 . S
C2438 C2436 1.419 . S
C2438 C2439 1.362 . S
C2439 H2429 0.930 . S
C2439 C2432 1.409 . S
C2439 C2438 1.362 . S
H2440 C2446 0.930 . S
H2441 C2449 0.930 . S
H2442 C2450 0.930 . S
H2443 C2451 0.930 . S
H2444 C2454 0.930 . S
H2445 C2455 0.930 . S
C2446 H2440 0.930 . S
C2446 C2447 1.355 . S
C2446 C2448 1.415 . S
C2447 C2446 1.355 . S
C2447 C2449 1.419 . S
C2448 C2446 1.415 . S
C2448 C2453 1.425 . S
C2448 C2455 1.409 . S
C2449 H2441 0.930 . S
C2449 C2447 1.419 . S
C2449 C2450 1.362 . S
C2450 H2442 0.930 . S
C2450 C2449 1.362 . S
C2450 C2453 1.409 . S
C2451 H2443 0.930 . S
C2451 C2452 1.355 . S
C2451 C2453 1.415 . S
C2452 C2451 1.355 . S
C2452 C2454 1.419 . S
C2453 C2448 1.425 . S
C2453 C2450 1.409 . S
C2453 C2451 1.415 . S
C2454 H2444 0.930 . S
C2454 C2452 1.419 . S
C2454 C2455 1.362 . S
C2455 H2445 0.930 . S
C2455 C2448 1.409 . S
C2455 C2454 1.362 . S
H2456 C2462 0.930 . S
H2457 C2465 0.930 . S
H2458 C2466 0.930 . S
H2459 C2467 0.930 . S
H2460 C2470 0.930 . S
H2461 C2471 0.930 . S
C2462 H2456 0.930 . S
C2462 C2463 1.355 . S
C2462 C2464 1.415 . S
C2463 C2462 1.355 . S
C2463 C2465 1.419 . S
C2464 C2462 1.415 . S
C2464 C2469 1.425 . S
C2464 C2471 1.409 . S
C2465 H2457 0.930 . S
C2465 C2463 1.419 . S
C2465 C2466 1.362 . S
C2466 H2458 0.930 . S
C2466 C2465 1.362 . S
C2466 C2469 1.409 . S
C2467 H2459 0.930 . S
C2467 C2468 1.355 . S
C2467 C2469 1.415 . S
C2468 C2467 1.355 . S
C2468 C2470 1.419 . S
C2469 C2464 1.425 . S
C2469 C2466 1.409 . S
C2469 C2467 1.415 . S
C2470 H2460 0.930 . S
C2470 C2468 1.419 . S
C2470 C2471 1.362 . S
C2471 H2461 0.930 . S
C2471 C2464 1.409 . S
C2471 C2470 1.362 . S
H2472 C2478 0.930 . S
H2473 C2481 0.930 1_455 S
H2474 C2482 0.930 . S
H2475 C2483 0.930 . S
H2476 C2486 0.930 . S
H2477 C2487 0.930 . S
C2478 H2472 0.930 . S
C2478 C2479 1.355 . S
C2478 C2480 1.415 . S
C2479 C2478 1.355 . S
C2479 C2481 1.419 . S
C2480 C2478 1.415 . S
C2480 C2485 1.425 . S
C2480 C2487 1.409 . S
C2481 H2473 0.930 1_655 S
C2481 C2479 1.419 . S
C2481 C2482 1.362 . S
C2482 H2474 0.930 . S
C2482 C2481 1.362 . S
C2482 C2485 1.409 . S
C2483 H2475 0.930 . S
C2483 C2484 1.355 . S
C2483 C2485 1.415 . S
C2484 C2483 1.355 . S
C2484 C2486 1.419 . S
C2485 C2480 1.425 . S
C2485 C2482 1.409 . S
C2485 C2483 1.415 . S
C2486 H2476 0.930 . S
C2486 C2484 1.419 . S
C2486 C2487 1.362 . S
C2487 H2477 0.930 . S
C2487 C2480 1.409 . S
C2487 C2486 1.362 . S
H2488 C2494 0.930 . S
H2489 C2497 0.930 . S
H2490 C2498 0.930 . S
H2491 C2499 0.930 . S
H2492 C2502 0.930 . S
H2493 C2503 0.930 . S
C2494 H2488 0.930 . S
C2494 C2495 1.355 . S
C2494 C2496 1.415 . S
C2495 C2494 1.355 . S
C2495 C2497 1.419 1_545 S
C2496 C2494 1.415 . S
C2496 C2501 1.425 . S
C2496 C2503 1.409 . S
C2497 H2489 0.930 . S
C2497 C2495 1.419 1_565 S
C2497 C2498 1.362 1_565 S
C2498 H2490 0.930 . S
C2498 C2497 1.362 1_545 S
C2498 C2501 1.409 . S
C2499 H2491 0.930 . S
C2499 C2500 1.355 . S
C2499 C2501 1.415 . S
C2500 C2499 1.355 . S
C2500 C2502 1.419 . S
C2501 C2496 1.425 . S
C2501 C2498 1.409 . S
C2501 C2499 1.415 . S
C2502 H2492 0.930 . S
C2502 C2500 1.419 . S
C2502 C2503 1.362 . S
C2503 H2493 0.930 . S
C2503 C2496 1.409 . S
C2503 C2502 1.362 . S
H2504 C2510 0.930 . S
H2505 C2513 0.930 . S
H2506 C2514 0.930 . S
H2507 C2515 0.930 . S
H2508 C2518 0.930 . S
H2509 C2519 0.930 1_455 S
C2510 H2504 0.930 . S
C2510 C2511 1.355 . S
C2510 C2512 1.415 1_455 S
C2511 C2510 1.355 . S
C2511 C2513 1.419 1_455 S
C2512 C2510 1.415 1_655 S
C2512 C2517 1.425 . S
C2512 C2519 1.409 . S
C2513 H2505 0.930 . S
C2513 C2511 1.419 1_655 S
C2513 C2514 1.362 . S
C2514 H2506 0.930 . S
C2514 C2513 1.362 . S
C2514 C2517 1.409 . S
C2515 H2507 0.930 . S
C2515 C2516 1.355 . S
C2515 C2517 1.415 . S
C2516 C2515 1.355 . S
C2516 C2518 1.419 . S
C2517 C2512 1.425 . S
C2517 C2514 1.409 . S
C2517 C2515 1.415 . S
C2518 H2508 0.930 . S
C2518 C2516 1.419 . S
C2518 C2519 1.362 . S
C2519 H2509 0.930 1_655 S
C2519 C2512 1.409 . S
C2519 C2518 1.362 . S
H2520 C2526 0.930 . S
H2521 C2529 0.930 . S
H2522 C2530 0.930 . S
H2523 C2531 0.930 . S
H2524 C2534 0.930 . S
H2525 C2535 0.930 . S
C2526 H2520 0.930 . S
C2526 C2527 1.355 . S
C2526 C2528 1.415 1_565 S
C2527 C2526 1.355 . S
C2527 C2529 1.419 . S
C2528 C2526 1.415 1_545 S
C2528 C2533 1.425 . S
C2528 C2535 1.409 . S
C2529 H2521 0.930 . S
C2529 C2527 1.419 . S
C2529 C2530 1.362 1_565 S
C2530 H2522 0.930 . S
C2530 C2529 1.362 1_545 S
C2530 C2533 1.409 . S
C2531 H2523 0.930 . S
C2531 C2532 1.355 . S
C2531 C2533 1.415 . S
C2532 C2531 1.355 . S
C2532 C2534 1.419 . S
C2533 C2528 1.425 . S
C2533 C2530 1.409 . S
C2533 C2531 1.415 . S
C2534 H2524 0.930 . S
C2534 C2532 1.419 . S
C2534 C2535 1.362 . S
C2535 H2525 0.930 . S
C2535 C2528 1.409 . S
C2535 C2534 1.362 . S
H2536 C2542 0.930 . S
H2537 C2545 0.930 . S
H2538 C2546 0.930 . S
H2539 C2547 0.930 . S
H2540 C2550 0.930 . S
H2541 C2551 0.930 . S
C2542 H2536 0.930 . S
C2542 C2543 1.355 . S
C2542 C2544 1.415 . S
C2543 C2542 1.355 . S
C2543 C2545 1.419 . S
C2544 C2542 1.415 . S
C2544 C2549 1.425 1_455 S
C2544 C2551 1.409 1_455 S
C2545 H2537 0.930 . S
C2545 C2543 1.419 . S
C2545 C2546 1.362 1_455 S
C2546 H2538 0.930 . S
C2546 C2545 1.362 1_655 S
C2546 C2549 1.409 . S
C2547 H2539 0.930 . S
C2547 C2548 1.355 . S
C2547 C2549 1.415 . S
C2548 C2547 1.355 . S
C2548 C2550 1.419 . S
C2549 C2544 1.425 1_655 S
C2549 C2546 1.409 . S
C2549 C2547 1.415 . S
C2550 H2540 0.930 . S
C2550 C2548 1.419 . S
C2550 C2551 1.362 . S
C2551 H2541 0.930 . S
C2551 C2544 1.409 1_655 S
C2551 C2550 1.362 . S
H2552 C2558 0.930 . S
H2553 C2561 0.930 . S
H2554 C2562 0.930 . S
H2555 C2563 0.930 . S
H2556 C2566 0.930 . S
H2557 C2567 0.930 . S
C2558 H2552 0.930 . S
C2558 C2559 1.355 . S
C2558 C2560 1.415 . S
C2559 C2558 1.355 . S
C2559 C2561 1.419 . S
C2560 C2558 1.415 . S
C2560 C2565 1.425 . S
C2560 C2567 1.409 . S
C2561 H2553 0.930 . S
C2561 C2559 1.419 . S
C2561 C2562 1.362 . S
C2562 H2554 0.930 . S
C2562 C2561 1.362 . S
C2562 C2565 1.409 . S
C2563 H2555 0.930 . S
C2563 C2564 1.355 . S
C2563 C2565 1.415 . S
C2564 C2563 1.355 . S
C2564 C2566 1.419 . S
C2565 C2560 1.425 . S
C2565 C2562 1.409 . S
C2565 C2563 1.415 . S
C2566 H2556 0.930 . S
C2566 C2564 1.419 . S
C2566 C2567 1.362 . S
C2567 H2557 0.930 . S
C2567 C2560 1.409 . S
C2567 C2566 1.362 . S
H2568 C2574 0.930 . S
H2569 C2577 0.930 . S
H2570 C2578 0.930 . S
H2571 C2579 0.930 . S
H2572 C2582 0.930 . S
H2573 C2583 0.930 . S
C2574 H2568 0.930 . S
C2574 C2575 1.355 . S
C2574 C2576 1.415 . S
C2575 C2574 1.355 . S
C2575 C2577 1.419 . S
C2576 C2574 1.415 . S
C2576 C2581 1.425 . S
C2576 C2583 1.409 . S
C2577 H2569 0.930 . S
C2577 C2575 1.419 . S
C2577 C2578 1.362 . S
C2578 H2570 0.930 . S
C2578 C2577 1.362 . S
C2578 C2581 1.409 . S
C2579 H2571 0.930 . S
C2579 C2580 1.355 . S
C2579 C2581 1.415 . S
C2580 C2579 1.355 . S
C2580 C2582 1.419 . S
C2581 C2576 1.425 . S
C2581 C2578 1.409 . S
C2581 C2579 1.415 . S
C2582 H2572 0.930 . S
C2582 C2580 1.419 . S
C2582 C2583 1.362 . S
C2583 H2573 0.930 . S
C2583 C2576 1.409 . S
C2583 C2582 1.362 . S
H2584 C2590 0.930 . S
H2585 C2593 0.930 . S
H2586 C2594 0.930 . S
H2587 C2595 0.930 . S
H2588 C2598 0.930 . S
H2589 C2599 0.930 . S
C2590 H2584 0.930 . S
C2590 C2591 1.355 . S
C2590 C2592 1.415 . S
C2591 C2590 1.355 . S
C2591 C2593 1.419 . S
C2592 C2590 1.415 . S
C2592 C2597 1.425 . S
C2592 C2599 1.409 . S
C2593 H2585 0.930 . S
C2593 C2591 1.419 . S
C2593 C2594 1.362 . S
C2594 H2586 0.930 . S
C2594 C2593 1.362 . S
C2594 C2597 1.409 . S
C2595 H2587 0.930 . S
C2595 C2596 1.355 . S
C2595 C2597 1.415 . S
C2596 C2595 1.355 . S
C2596 C2598 1.419 . S
C2597 C2592 1.425 . S
C2597 C2594 1.409 . S
C2597 C2595 1.415 . S
C2598 H2588 0.930 . S
C2598 C2596 1.419 . S
C2598 C2599 1.362 . S
C2599 H2589 0.930 . S
C2599 C2592 1.409 . S
C2599 C2598 1.362 . S
H2600 C2606 0.930 . S
H2601 C2609 0.930 . S
H2602 C2610 0.930 . S
H2603 C2611 0.930 . S
H2604 C2614 0.930 . S
H2605 C2615 0.930 . S
C2606 H2600 0.930 . S
C2606 C2607 1.355 . S
C2606 C2608 1.415 . S
C2607 C2606 1.355 . S
C2607 C2609 1.419 . S
C2608 C2606 1.415 . S
C2608 C2613 1.425 . S
C2608 C2615 1.409 . S
C2609 H2601 0.930 . S
C2609 C2607 1.419 . S
C2609 C2610 1.362 . S
C2610 H2602 0.930 . S
C2610 C2609 1.362 . S
C2610 C2613 1.409 . S
C2611 H2603 0.930 . S
C2611 C2612 1.355 . S
C2611 C2613 1.415 . S
C2612 C2611 1.355 . S
C2612 C2614 1.419 . S
C2613 C2608 1.425 . S
C2613 C2610 1.409 . S
C2613 C2611 1.415 . S
C2614 H2604 0.930 . S
C2614 C2612 1.419 . S
C2614 C2615 1.362 . S
C2615 H2605 0.930 . S
C2615 C2608 1.409 . S
C2615 C2614 1.362 . S
H2616 C2622 0.930 . S
H2617 C2625 0.930 . S
H2618 C2626 0.930 . S
H2619 C2627 0.930 . S
H2620 C2630 0.930 . S
H2621 C2631 0.930 . S
C2622 H2616 0.930 . S
C2622 C2623 1.355 . S
C2622 C2624 1.415 . S
C2623 C2622 1.355 . S
C2623 C2625 1.419 . S
C2624 C2622 1.415 . S
C2624 C2629 1.425 . S
C2624 C2631 1.409 1_565 S
C2625 H2617 0.930 . S
C2625 C2623 1.419 . S
C2625 C2626 1.362 . S
C2626 H2618 0.930 . S
C2626 C2625 1.362 . S
C2626 C2629 1.409 . S
C2627 H2619 0.930 . S
C2627 C2628 1.355 . S
C2627 C2629 1.415 1_545 S
C2628 C2627 1.355 . S
C2628 C2630 1.419 . S
C2629 C2624 1.425 . S
C2629 C2626 1.409 . S
C2629 C2627 1.415 1_565 S
C2630 H2620 0.930 . S
C2630 C2628 1.419 . S
C2630 C2631 1.362 . S
C2631 H2621 0.930 . S
C2631 C2624 1.409 1_545 S
C2631 C2630 1.362 . S
H2632 C2638 0.930 . S
H2633 C2641 0.930 . S
H2634 C2642 0.930 . S
H2635 C2643 0.930 . S
H2636 C2646 0.930 . S
H2637 C2647 0.930 . S
C2638 H2632 0.930 . S
C2638 C2639 1.355 1_455 S
C2638 C2640 1.415 . S
C2639 C2638 1.355 1_655 S
C2639 C2641 1.419 . S
C2640 C2638 1.415 . S
C2640 C2645 1.425 . S
C2640 C2647 1.409 . S
C2641 H2633 0.930 . S
C2641 C2639 1.419 . S
C2641 C2642 1.362 1_655 S
C2642 H2634 0.930 . S
C2642 C2641 1.362 1_455 S
C2642 C2645 1.409 . S
C2643 H2635 0.930 . S
C2643 C2644 1.355 . S
C2643 C2645 1.415 . S
C2644 C2643 1.355 . S
C2644 C2646 1.419 . S
C2645 C2640 1.425 . S
C2645 C2642 1.409 . S
C2645 C2643 1.415 . S
C2646 H2636 0.930 . S
C2646 C2644 1.419 . S
C2646 C2647 1.362 . S
C2647 H2637 0.930 . S
C2647 C2640 1.409 . S
C2647 C2646 1.362 . S
H2648 C2654 0.930 . S
H2649 C2657 0.930 . S
H2650 C2658 0.930 . S
H2651 C2659 0.930 . S
H2652 C2662 0.930 . S
H2653 C2663 0.930 . S
C2654 H2648 0.930 . S
C2654 C2655 1.355 . S
C2654 C2656 1.415 . S
C2655 C2654 1.355 . S
C2655 C2657 1.419 . S
C2656 C2654 1.415 . S
C2656 C2661 1.425 . S
C2656 C2663 1.409 . S
C2657 H2649 0.930 . S
C2657 C2655 1.419 . S
C2657 C2658 1.362 . S
C2658 H2650 0.930 . S
C2658 C2657 1.362 . S
C2658 C2661 1.409 . S
C2659 H2651 0.930 . S
C2659 C2660 1.355 . S
C2659 C2661 1.415 . S
C2660 C2659 1.355 . S
C2660 C2662 1.419 . S
C2661 C2656 1.425 . S
C2661 C2658 1.409 . S
C2661 C2659 1.415 . S
C2662 H2652 0.930 . S
C2662 C2660 1.419 . S
C2662 C2663 1.362 . S
C2663 H2653 0.930 . S
C2663 C2656 1.409 . S
C2663 C2662 1.362 . S
H2664 C2670 0.930 . S
H2665 C2673 0.930 . S
H2666 C2674 0.930 . S
H2667 C2675 0.930 . S
H2668 C2678 0.930 . S
H2669 C2679 0.930 . S
C2670 H2664 0.930 . S
C2670 C2671 1.355 . S
C2670 C2672 1.415 . S
C2671 C2670 1.355 . S
C2671 C2673 1.419 . S
C2672 C2670 1.415 . S
C2672 C2677 1.425 . S
C2672 C2679 1.409 . S
C2673 H2665 0.930 . S
C2673 C2671 1.419 . S
C2673 C2674 1.362 . S
C2674 H2666 0.930 . S
C2674 C2673 1.362 . S
C2674 C2677 1.409 . S
C2675 H2667 0.930 . S
C2675 C2676 1.355 . S
C2675 C2677 1.415 . S
C2676 C2675 1.355 . S
C2676 C2678 1.419 . S
C2677 C2672 1.425 . S
C2677 C2674 1.409 . S
C2677 C2675 1.415 . S
C2678 H2668 0.930 . S
C2678 C2676 1.419 . S
C2678 C2679 1.362 . S
C2679 H2669 0.930 . S
C2679 C2672 1.409 . S
C2679 C2678 1.362 . S
H2680 C2686 0.930 . S
H2681 C2689 0.930 . S
H2682 C2690 0.930 . S
H2683 C2691 0.930 . S
H2684 C2694 0.930 . S
H2685 C2695 0.930 . S
C2686 H2680 0.930 . S
C2686 C2687 1.355 . S
C2686 C2688 1.415 . S
C2687 C2686 1.355 . S
C2687 C2689 1.419 . S
C2688 C2686 1.415 . S
C2688 C2693 1.425 . S
C2688 C2695 1.409 . S
C2689 H2681 0.930 . S
C2689 C2687 1.419 . S
C2689 C2690 1.362 . S
C2690 H2682 0.930 . S
C2690 C2689 1.362 . S
C2690 C2693 1.409 . S
C2691 H2683 0.930 . S
C2691 C2692 1.355 . S
C2691 C2693 1.415 . S
C2692 C2691 1.355 . S
C2692 C2694 1.419 . S
C2693 C2688 1.425 . S
C2693 C2690 1.409 . S
C2693 C2691 1.415 . S
C2694 H2684 0.930 . S
C2694 C2692 1.419 . S
C2694 C2695 1.362 . S
C2695 H2685 0.930 . S
C2695 C2688 1.409 . S
C2695 C2694 1.362 . S
H2696 C2702 0.930 . S
H2697 C2705 0.930 . S
H2698 C2706 0.930 . S
H2699 C2707 0.930 . S
H2700 C2710 0.930 . S
H2701 C2711 0.930 . S
C2702 H2696 0.930 . S
C2702 C2703 1.355 . S
C2702 C2704 1.415 . S
C2703 C2702 1.355 . S
C2703 C2705 1.419 . S
C2704 C2702 1.415 . S
C2704 C2709 1.425 . S
C2704 C2711 1.409 . S
C2705 H2697 0.930 . S
C2705 C2703 1.419 . S
C2705 C2706 1.362 . S
C2706 H2698 0.930 . S
C2706 C2705 1.362 . S
C2706 C2709 1.409 . S
C2707 H2699 0.930 . S
C2707 C2708 1.355 . S
C2707 C2709 1.415 . S
C2708 C2707 1.355 . S
C2708 C2710 1.419 . S
C2709 C2704 1.425 . S
C2709 C2706 1.409 . S
C2709 C2707 1.415 . S
C2710 H2700 0.930 . S
C2710 C2708 1.419 . S
C2710 C2711 1.362 . S
C2711 H2701 0.930 . S
C2711 C2704 1.409 . S
C2711 C2710 1.362 . S
H2712 C2718 0.930 . S
H2713 C2721 0.930 . S
H2714 C2722 0.930 . S
H2715 C2723 0.930 . S
H2716 C2726 0.930 . S
H2717 C2727 0.930 . S
C2718 H2712 0.930 . S
C2718 C2719 1.355 . S
C2718 C2720 1.415 . S
C2719 C2718 1.355 . S
C2719 C2721 1.419 . S
C2720 C2718 1.415 . S
C2720 C2725 1.425 . S
C2720 C2727 1.409 . S
C2721 H2713 0.930 . S
C2721 C2719 1.419 . S
C2721 C2722 1.362 . S
C2722 H2714 0.930 . S
C2722 C2721 1.362 . S
C2722 C2725 1.409 . S
C2723 H2715 0.930 . S
C2723 C2724 1.355 . S
C2723 C2725 1.415 . S
C2724 C2723 1.355 . S
C2724 C2726 1.419 . S
C2725 C2720 1.425 . S
C2725 C2722 1.409 . S
C2725 C2723 1.415 . S
C2726 H2716 0.930 . S
C2726 C2724 1.419 . S
C2726 C2727 1.362 . S
C2727 H2717 0.930 . S
C2727 C2720 1.409 . S
C2727 C2726 1.362 . S
H2728 C2734 0.930 . S
H2729 C2737 0.930 . S
H2730 C2738 0.930 . S
H2731 C2739 0.930 . S
H2732 C2742 0.930 . S
H2733 C2743 0.930 . S
C2734 H2728 0.930 . S
C2734 C2735 1.355 . S
C2734 C2736 1.415 . S
C2735 C2734 1.355 . S
C2735 C2737 1.419 . S
C2736 C2734 1.415 . S
C2736 C2741 1.425 . S
C2736 C2743 1.409 . S
C2737 H2729 0.930 . S
C2737 C2735 1.419 . S
C2737 C2738 1.362 . S
C2738 H2730 0.930 . S
C2738 C2737 1.362 . S
C2738 C2741 1.409 . S
C2739 H2731 0.930 . S
C2739 C2740 1.355 . S
C2739 C2741 1.415 . S
C2740 C2739 1.355 . S
C2740 C2742 1.419 . S
C2741 C2736 1.425 . S
C2741 C2738 1.409 . S
C2741 C2739 1.415 . S
C2742 H2732 0.930 . S
C2742 C2740 1.419 . S
C2742 C2743 1.362 . S
C2743 H2733 0.930 . S
C2743 C2736 1.409 . S
C2743 C2742 1.362 . S
H2744 C2750 0.930 . S
H2745 C2753 0.930 . S
H2746 C2754 0.930 . S
H2747 C2755 0.930 . S
H2748 C2758 0.930 . S
H2749 C2759 0.930 . S
C2750 H2744 0.930 . S
C2750 C2751 1.355 . S
C2750 C2752 1.415 . S
C2751 C2750 1.355 . S
C2751 C2753 1.419 . S
C2752 C2750 1.415 . S
C2752 C2757 1.425 . S
C2752 C2759 1.409 . S
C2753 H2745 0.930 . S
C2753 C2751 1.419 . S
C2753 C2754 1.362 . S
C2754 H2746 0.930 . S
C2754 C2753 1.362 . S
C2754 C2757 1.409 . S
C2755 H2747 0.930 . S
C2755 C2756 1.355 . S
C2755 C2757 1.415 . S
C2756 C2755 1.355 . S
C2756 C2758 1.419 . S
C2757 C2752 1.425 . S
C2757 C2754 1.409 . S
C2757 C2755 1.415 . S
C2758 H2748 0.930 . S
C2758 C2756 1.419 . S
C2758 C2759 1.362 . S
C2759 H2749 0.930 . S
C2759 C2752 1.409 . S
C2759 C2758 1.362 . S
H2760 C2766 0.930 . S
H2761 C2769 0.930 . S
H2762 C2770 0.930 . S
H2763 C2771 0.930 . S
H2764 C2774 0.930 . S
H2765 C2775 0.930 . S
C2766 H2760 0.930 . S
C2766 C2767 1.355 . S
C2766 C2768 1.415 . S
C2767 C2766 1.355 . S
C2767 C2769 1.419 . S
C2768 C2766 1.415 . S
C2768 C2773 1.425 . S
C2768 C2775 1.409 . S
C2769 H2761 0.930 . S
C2769 C2767 1.419 . S
C2769 C2770 1.362 . S
C2770 H2762 0.930 . S
C2770 C2769 1.362 . S
C2770 C2773 1.409 . S
C2771 H2763 0.930 . S
C2771 C2772 1.355 . S
C2771 C2773 1.415 . S
C2772 C2771 1.355 . S
C2772 C2774 1.419 . S
C2773 C2768 1.425 . S
C2773 C2770 1.409 . S
C2773 C2771 1.415 . S
C2774 H2764 0.930 . S
C2774 C2772 1.419 . S
C2774 C2775 1.362 . S
C2775 H2765 0.930 . S
C2775 C2768 1.409 . S
C2775 C2774 1.362 . S
H2776 C2782 0.930 . S
H2777 C2785 0.930 . S
H2778 C2786 0.930 . S
H2779 C2787 0.930 . S
H2780 C2790 0.930 . S
H2781 C2791 0.930 . S
C2782 H2776 0.930 . S
C2782 C2783 1.355 1_565 S
C2782 C2784 1.415 . S
C2783 C2782 1.355 1_545 S
C2783 C2785 1.419 . S
C2784 C2782 1.415 . S
C2784 C2789 1.425 . S
C2784 C2791 1.409 . S
C2785 H2777 0.930 . S
C2785 C2783 1.419 . S
C2785 C2786 1.362 . S
C2786 H2778 0.930 . S
C2786 C2785 1.362 . S
C2786 C2789 1.409 1_545 S
C2787 H2779 0.930 . S
C2787 C2788 1.355 . S
C2787 C2789 1.415 . S
C2788 C2787 1.355 . S
C2788 C2790 1.419 . S
C2789 C2784 1.425 . S
C2789 C2786 1.409 1_565 S
C2789 C2787 1.415 . S
C2790 H2780 0.930 . S
C2790 C2788 1.419 . S
C2790 C2791 1.362 . S
C2791 H2781 0.930 . S
C2791 C2784 1.409 . S
C2791 C2790 1.362 . S
H2792 C2798 0.930 . S
H2793 C2801 0.930 . S
H2794 C2802 0.930 . S
H2795 C2803 0.930 . S
H2796 C2806 0.930 1_545 S
H2797 C2807 0.930 . S
C2798 H2792 0.930 . S
C2798 C2799 1.355 . S
C2798 C2800 1.415 . S
C2799 C2798 1.355 . S
C2799 C2801 1.419 . S
C2800 C2798 1.415 . S
C2800 C2805 1.425 . S
C2800 C2807 1.409 . S
C2801 H2793 0.930 . S
C2801 C2799 1.419 . S
C2801 C2802 1.362 . S
C2802 H2794 0.930 . S
C2802 C2801 1.362 . S
C2802 C2805 1.409 . S
C2803 H2795 0.930 . S
C2803 C2804 1.355 . S
C2803 C2805 1.415 . S
C2804 C2803 1.355 . S
C2804 C2806 1.419 . S
C2805 C2800 1.425 . S
C2805 C2802 1.409 . S
C2805 C2803 1.415 . S
C2806 H2796 0.930 1_565 S
C2806 C2804 1.419 . S
C2806 C2807 1.362 . S
C2807 H2797 0.930 . S
C2807 C2800 1.409 . S
C2807 C2806 1.362 . S
C1087 C811 1.928 . S
C1092 C10 1.855 . S
C1103 C841 1.929 . S
C1108 C40 1.858 1_655 S
C1119 C70 1.856 . S
C1124 C871 1.928 . S
C1135 C91 1.883 . S
C1140 C370 1.801 . S
C1151 C121 1.909 . S
C1156 C400 1.828 . S
C1167 C430 1.877 . S
C1172 C151 1.940 1_565 S
C1183 C181 1.864 1_565 S
C1188 C640 1.925 . S
C1199 C670 1.919 . S
C1204 C211 1.855 . S
C1215 C241 1.810 . S
C1220 C700 1.895 . S
C1231 C901 1.866 . S
C1236 C280 1.934 1_655 S
C1247 C310 1.883 . S
C1252 C931 1.801 . S
C1263 C961 1.871 . S
C1268 C340 1.932 . S
C1279 C730 1.802 . S
C1284 C451 1.883 . S
C1295 C481 1.902 . S
C1300 C760 1.819 . S
C1311 C790 1.814 . S
C1316 C511 1.890 . S
C1327 C541 1.824 . S
C1332 C1000 1.896 . S
C1343 C571 1.876 . S
C1348 C1030 1.939 . S
C1359 C1060 1.886 . S
C1364 C601 1.800 . S
C1375 C1 1.613 . S
C1380 C190 1.613 . S
C1391 C220 1.604 . S
C1396 C31 1.604 . S
C1407 C61 1.610 . S
C1412 C250 1.610 . S
C1423 C271 1.600 . S
C1428 C100 1.600 . S
C1439 C130 1.578 . S
C1444 C301 1.578 . S
C1455 C331 1.598 . S
C1460 C160 1.598 . S
C1471 C550 1.610 . S
C1476 C361 1.610 . S
C1487 C391 1.614 . S
C1492 C580 1.614 . S
C1503 C610 1.612 . S
C1508 C421 1.612 . S
C1519 C460 1.611 . S
C1524 C631 1.611 . S
C1535 C661 1.611 . S
C1540 C490 1.611 . S
C1551 C520 1.611 . S
C1556 C691 1.611 . S
C1567 C721 1.604 . S
C1572 C910 1.604 . S
C1583 C940 1.607 . S
C1588 C751 1.607 . S
C1599 C970 1.603 . S
C1604 C781 1.603 . S
C1615 C991 1.604 . S
C1620 C820 1.604 . S
C1631 C850 1.595 . S
C1636 C1021 1.595 . S
C1647 C880 1.592 . S
C1652 C1051 1.592 . S
C1663 N14 1.258 . S
C1668 C87 1.225 . S
C1679 N44 1.264 . S
C1684 C27 1.216 . S
C1695 C57 1.260 . S
C1700 N74 1.283 . S
C1711 C106 1.325 . S
C1716 N126 1.278 . S
C1727 N156 1.265 . S
C1732 C136 1.320 . S
C1743 N96 1.268 . S
C1748 C166 1.320 . S
C1759 C256 1.233 . S
C1764 N186 1.276 . S
C1775 N216 1.271 . S
C1780 C196 1.223 . S
C1791 N246 1.276 . S
C1796 C226 1.231 . S
C1807 N314 1.326 . S
C1812 C297 1.353 . S
C1823 C327 1.372 . S
C1828 N344 1.351 . S
C1839 C357 1.368 . S
C1844 N284 1.342 . S
C1855 C447 1.275 1_545 S
C1860 N374 1.282 . S
C1871 C387 1.236 . S
C1876 N404 1.258 . S
C1887 C417 1.226 . S
C1892 N434 1.273 1_655 S
C1903 N486 1.268 . S
C1908 C466 1.320 . S
C1919 C496 1.327 . S
C1924 N516 1.282 . S
C1935 N456 1.315 . S
C1940 C526 1.353 . S
C1951 N546 1.276 . S
C1956 C616 1.281 . S
C1967 C556 1.270 . S
C1972 N576 1.283 . S
C1983 N606 1.281 . S
C1988 C586 1.251 . S
C1999 N674 1.348 . S
C2004 C657 1.369 . S
C2015 N704 1.326 . S
C2020 C687 1.354 . S
C2031 N644 1.303 . S
C2036 C717 1.339 . S
C2047 C807 1.219 . S
C2052 N734 1.260 . S
C2063 N764 1.274 . S
C2068 C747 1.227 . S
C2079 C777 1.281 . S
C2084 N794 1.279 . S
C2095 C826 1.356 . S
C2100 N846 1.321 . S
C2111 C856 1.322 . S
C2116 N876 1.268 . S
C2127 N816 1.300 . S
C2132 C886 1.343 . S
C2143 N906 1.261 . S
C2148 C976 1.218 . S
C2159 N936 1.283 1_565 S
C2164 C916 1.267 1_455 S
C2175 C946 1.280 . S
C2180 N966 1.274 . S
C2191 C1017 1.333 . S
C2196 N1034 1.293 . S
C2207 N1064 1.275 . S
C2212 C1047 1.327 . S
C2223 N1004 1.342 . S
C2228 C1077 1.364 . S
C2239 C76 0.991 . S
C2244 N6 0.988 . S
C2255 N36 1.031 . S
C2260 C16 0.996 . S
C2271 C46 1.047 . S
C2276 N66 1.037 . S
C2287 N134 0.783 . S
C2292 C117 0.819 . S
C2303 C147 0.910 . S
C2308 N164 0.902 . S
C2319 C177 0.889 . S
C2324 N104 0.867 . S
C2335 C267 1.032 . S
C2340 N194 1.048 . S
C2351 N224 1.046 . S
C2356 C207 1.039 . S
C2367 C237 1.000 . S
C2372 N254 0.985 . S
C2383 N306 0.829 . S
C2388 C286 0.861 . S
C2399 N336 0.859 . S
C2404 C316 0.851 . S
C2415 N276 0.901 . S
C2420 C346 0.909 . S
C2431 N366 1.000 . S
C2436 C436 1.035 . S
C2447 N396 1.048 . S
C2452 C376 1.027 . S
C2463 N426 1.044 . S
C2468 C406 1.014 . S
C2479 N494 0.890 1_655 S
C2484 C477 0.903 . S
C2495 C507 0.810 1_545 S
C2500 N524 0.792 . S
C2511 C537 0.905 . S
C2516 N464 0.892 . S
C2527 C627 1.012 . S
C2532 N554 0.985 . S
C2543 C567 1.022 . S
C2548 N584 0.990 . S
C2559 N614 1.040 . S
C2564 C597 1.046 . S
C2575 N666 0.902 . S
C2580 C646 0.886 . S
C2591 C676 0.888 . S
C2596 N696 0.904 . S
C2607 C706 0.811 . S
C2612 N636 0.794 . S
C2623 N726 1.048 . S
C2628 C796 1.032 . S
C2639 C736 1.030 . S
C2644 N756 1.048 . S
C2655 C766 0.992 . S
C2660 N786 0.987 . S
C2671 N854 0.917 . S
C2676 C837 0.916 . S
C2687 C867 0.812 . S
C2692 N884 0.778 . S
C2703 C897 0.864 . S
C2708 N824 0.833 . S
C2719 C987 1.048 . S
C2724 N914 1.026 . S
C2735 C927 1.047 . S
C2740 N944 1.037 . S
C2751 N974 0.984 . S
C2756 C957 1.006 . S
C2767 N1026 0.876 . S
C2772 C1006 0.895 . S
C2783 C1036 0.845 . S
C2788 N1056 0.851 . S
C2799 C1066 0.873 1_455 S
C2804 N996 0.845 1_565 S
