# Generated by pormake.
# Topology ulj, (4)-cn, num edge types: 1
# Building blocks:
#     Node 0, Type 0, BuildingBlock: MUDLON_clean_sbu_0, # of connection points: 4
#     Node 1, Type 0, BuildingBlock: MUDLON_clean_sbu_0, # of connection points: 4
#     Node 2, Type 0, BuildingBlock: MUDLON_clean_sbu_0, # of connection points: 4
#     Node 3, Type 0, BuildingBlock: MUDLON_clean_sbu_0, # of connection points: 4
#     Node 4, Type 0, BuildingBlock: MUDLON_clean_sbu_0, # of connection points: 4
#     Node 5, Type 0, BuildingBlock: MUDLON_clean_sbu_0, # of connection points: 4
#     Node 6, Type 0, BuildingBlock: MUDLON_clean_sbu_0, # of connection points: 4
#     Node 7, Type 0, BuildingBlock: MUDLON_clean_sbu_0, # of connection points: 4
#     Node 8, Type 0, BuildingBlock: MUDLON_clean_sbu_0, # of connection points: 4
#     Node 9, Type 0, BuildingBlock: MUDLON_clean_sbu_0, # of connection points: 4
#     Node 10, Type 0, BuildingBlock: MUDLON_clean_sbu_0, # of connection points: 4
#     Node 11, Type 0, BuildingBlock: MUDLON_clean_sbu_0, # of connection points: 4
#     Node 12, Type 0, BuildingBlock: MUDLON_clean_sbu_0, # of connection points: 4
#     Node 13, Type 0, BuildingBlock: MUDLON_clean_sbu_0, # of connection points: 4
#     Node 14, Type 0, BuildingBlock: MUDLON_clean_sbu_0, # of connection points: 4
#     Node 15, Type 0, BuildingBlock: MUDLON_clean_sbu_0, # of connection points: 4
#     Node 16, Type 0, BuildingBlock: MUDLON_clean_sbu_0, # of connection points: 4
#     Node 17, Type 0, BuildingBlock: MUDLON_clean_sbu_0, # of connection points: 4
#     Node 18, Type 0, BuildingBlock: MUDLON_clean_sbu_0, # of connection points: 4
#     Node 19, Type 0, BuildingBlock: MUDLON_clean_sbu_0, # of connection points: 4
#     Node 20, Type 0, BuildingBlock: MUDLON_clean_sbu_0, # of connection points: 4
#     Node 21, Type 0, BuildingBlock: MUDLON_clean_sbu_0, # of connection points: 4
#     Node 22, Type 0, BuildingBlock: MUDLON_clean_sbu_0, # of connection points: 4
#     Node 23, Type 0, BuildingBlock: MUDLON_clean_sbu_0, # of connection points: 4
#     Node 24, Type 0, BuildingBlock: MUDLON_clean_sbu_0, # of connection points: 4
#     Node 25, Type 0, BuildingBlock: MUDLON_clean_sbu_0, # of connection points: 4
#     Node 26, Type 0, BuildingBlock: MUDLON_clean_sbu_0, # of connection points: 4
#     Node 27, Type 0, BuildingBlock: MUDLON_clean_sbu_0, # of connection points: 4
#     Node 28, Type 0, BuildingBlock: MUDLON_clean_sbu_0, # of connection points: 4
#     Node 29, Type 0, BuildingBlock: MUDLON_clean_sbu_0, # of connection points: 4
#     Node 30, Type 0, BuildingBlock: MUDLON_clean_sbu_0, # of connection points: 4
#     Node 31, Type 0, BuildingBlock: MUDLON_clean_sbu_0, # of connection points: 4
#     Node 32, Type 0, BuildingBlock: MUDLON_clean_sbu_0, # of connection points: 4
#     Node 33, Type 0, BuildingBlock: MUDLON_clean_sbu_0, # of connection points: 4
#     Node 34, Type 0, BuildingBlock: MUDLON_clean_sbu_0, # of connection points: 4
#     Node 35, Type 0, BuildingBlock: MUDLON_clean_sbu_0, # of connection points: 4
#     Node 36, Type 0, BuildingBlock: MUDLON_clean_sbu_0, # of connection points: 4
#     Node 37, Type 0, BuildingBlock: MUDLON_clean_sbu_0, # of connection points: 4
#     Node 38, Type 0, BuildingBlock: MUDLON_clean_sbu_0, # of connection points: 4
#     Node 39, Type 0, BuildingBlock: MUDLON_clean_sbu_0, # of connection points: 4
#     Node 40, Type 0, BuildingBlock: MUDLON_clean_sbu_0, # of connection points: 4
#     Node 41, Type 0, BuildingBlock: MUDLON_clean_sbu_0, # of connection points: 4
#     Node 42, Type 0, BuildingBlock: MUDLON_clean_sbu_0, # of connection points: 4
#     Node 43, Type 0, BuildingBlock: MUDLON_clean_sbu_0, # of connection points: 4
#     Node 44, Type 0, BuildingBlock: MUDLON_clean_sbu_0, # of connection points: 4
#     Node 45, Type 0, BuildingBlock: MUDLON_clean_sbu_0, # of connection points: 4
#     Node 46, Type 0, BuildingBlock: MUDLON_clean_sbu_0, # of connection points: 4
#     Node 47, Type 0, BuildingBlock: MUDLON_clean_sbu_0, # of connection points: 4
#     Edge 48, Type (0, 0), BuildingBlock: KIFKEQ_clean_linker_1, # of connection points: 2
#     Edge 49, Type (0, 0), BuildingBlock: KIFKEQ_clean_linker_1, # of connection points: 2
#     Edge 50, Type (0, 0), BuildingBlock: KIFKEQ_clean_linker_1, # of connection points: 2
#     Edge 51, Type (0, 0), BuildingBlock: KIFKEQ_clean_linker_1, # of connection points: 2
#     Edge 52, Type (0, 0), BuildingBlock: KIFKEQ_clean_linker_1, # of connection points: 2
#     Edge 53, Type (0, 0), BuildingBlock: KIFKEQ_clean_linker_1, # of connection points: 2
#     Edge 54, Type (0, 0), BuildingBlock: KIFKEQ_clean_linker_1, # of connection points: 2
#     Edge 55, Type (0, 0), BuildingBlock: KIFKEQ_clean_linker_1, # of connection points: 2
#     Edge 56, Type (0, 0), BuildingBlock: KIFKEQ_clean_linker_1, # of connection points: 2
#     Edge 57, Type (0, 0), BuildingBlock: KIFKEQ_clean_linker_1, # of connection points: 2
#     Edge 58, Type (0, 0), BuildingBlock: KIFKEQ_clean_linker_1, # of connection points: 2
#     Edge 59, Type (0, 0), BuildingBlock: KIFKEQ_clean_linker_1, # of connection points: 2
#     Edge 60, Type (0, 0), BuildingBlock: KIFKEQ_clean_linker_1, # of connection points: 2
#     Edge 61, Type (0, 0), BuildingBlock: KIFKEQ_clean_linker_1, # of connection points: 2
#     Edge 62, Type (0, 0), BuildingBlock: KIFKEQ_clean_linker_1, # of connection points: 2
#     Edge 63, Type (0, 0), BuildingBlock: KIFKEQ_clean_linker_1, # of connection points: 2
#     Edge 64, Type (0, 0), BuildingBlock: KIFKEQ_clean_linker_1, # of connection points: 2
#     Edge 65, Type (0, 0), BuildingBlock: KIFKEQ_clean_linker_1, # of connection points: 2
#     Edge 66, Type (0, 0), BuildingBlock: KIFKEQ_clean_linker_1, # of connection points: 2
#     Edge 67, Type (0, 0), BuildingBlock: KIFKEQ_clean_linker_1, # of connection points: 2
#     Edge 68, Type (0, 0), BuildingBlock: KIFKEQ_clean_linker_1, # of connection points: 2
#     Edge 69, Type (0, 0), BuildingBlock: KIFKEQ_clean_linker_1, # of connection points: 2
#     Edge 70, Type (0, 0), BuildingBlock: KIFKEQ_clean_linker_1, # of connection points: 2
#     Edge 71, Type (0, 0), BuildingBlock: KIFKEQ_clean_linker_1, # of connection points: 2
#     Edge 72, Type (0, 0), BuildingBlock: KIFKEQ_clean_linker_1, # of connection points: 2
#     Edge 73, Type (0, 0), BuildingBlock: KIFKEQ_clean_linker_1, # of connection points: 2
#     Edge 74, Type (0, 0), BuildingBlock: KIFKEQ_clean_linker_1, # of connection points: 2
#     Edge 75, Type (0, 0), BuildingBlock: KIFKEQ_clean_linker_1, # of connection points: 2
#     Edge 76, Type (0, 0), BuildingBlock: KIFKEQ_clean_linker_1, # of connection points: 2
#     Edge 77, Type (0, 0), BuildingBlock: KIFKEQ_clean_linker_1, # of connection points: 2
#     Edge 78, Type (0, 0), BuildingBlock: KIFKEQ_clean_linker_1, # of connection points: 2
#     Edge 79, Type (0, 0), BuildingBlock: KIFKEQ_clean_linker_1, # of connection points: 2
#     Edge 80, Type (0, 0), BuildingBlock: KIFKEQ_clean_linker_1, # of connection points: 2
#     Edge 81, Type (0, 0), BuildingBlock: KIFKEQ_clean_linker_1, # of connection points: 2
#     Edge 82, Type (0, 0), BuildingBlock: KIFKEQ_clean_linker_1, # of connection points: 2
#     Edge 83, Type (0, 0), BuildingBlock: KIFKEQ_clean_linker_1, # of connection points: 2
#     Edge 84, Type (0, 0), BuildingBlock: KIFKEQ_clean_linker_1, # of connection points: 2
#     Edge 85, Type (0, 0), BuildingBlock: KIFKEQ_clean_linker_1, # of connection points: 2
#     Edge 86, Type (0, 0), BuildingBlock: KIFKEQ_clean_linker_1, # of connection points: 2
#     Edge 87, Type (0, 0), BuildingBlock: KIFKEQ_clean_linker_1, # of connection points: 2
#     Edge 88, Type (0, 0), BuildingBlock: KIFKEQ_clean_linker_1, # of connection points: 2
#     Edge 89, Type (0, 0), BuildingBlock: KIFKEQ_clean_linker_1, # of connection points: 2
#     Edge 90, Type (0, 0), BuildingBlock: KIFKEQ_clean_linker_1, # of connection points: 2
#     Edge 91, Type (0, 0), BuildingBlock: KIFKEQ_clean_linker_1, # of connection points: 2
#     Edge 92, Type (0, 0), BuildingBlock: KIFKEQ_clean_linker_1, # of connection points: 2
#     Edge 93, Type (0, 0), BuildingBlock: KIFKEQ_clean_linker_1, # of connection points: 2
#     Edge 94, Type (0, 0), BuildingBlock: KIFKEQ_clean_linker_1, # of connection points: 2
#     Edge 95, Type (0, 0), BuildingBlock: KIFKEQ_clean_linker_1, # of connection points: 2
#     Edge 96, Type (0, 0), BuildingBlock: KIFKEQ_clean_linker_1, # of connection points: 2
#     Edge 97, Type (0, 0), BuildingBlock: KIFKEQ_clean_linker_1, # of connection points: 2
#     Edge 98, Type (0, 0), BuildingBlock: KIFKEQ_clean_linker_1, # of connection points: 2
#     Edge 99, Type (0, 0), BuildingBlock: KIFKEQ_clean_linker_1, # of connection points: 2
#     Edge 100, Type (0, 0), BuildingBlock: KIFKEQ_clean_linker_1, # of connection points: 2
#     Edge 101, Type (0, 0), BuildingBlock: KIFKEQ_clean_linker_1, # of connection points: 2
#     Edge 102, Type (0, 0), BuildingBlock: KIFKEQ_clean_linker_1, # of connection points: 2
#     Edge 103, Type (0, 0), BuildingBlock: KIFKEQ_clean_linker_1, # of connection points: 2
#     Edge 104, Type (0, 0), BuildingBlock: KIFKEQ_clean_linker_1, # of connection points: 2
#     Edge 105, Type (0, 0), BuildingBlock: KIFKEQ_clean_linker_1, # of connection points: 2
#     Edge 106, Type (0, 0), BuildingBlock: KIFKEQ_clean_linker_1, # of connection points: 2
#     Edge 107, Type (0, 0), BuildingBlock: KIFKEQ_clean_linker_1, # of connection points: 2
#     Edge 108, Type (0, 0), BuildingBlock: KIFKEQ_clean_linker_1, # of connection points: 2
#     Edge 109, Type (0, 0), BuildingBlock: KIFKEQ_clean_linker_1, # of connection points: 2
#     Edge 110, Type (0, 0), BuildingBlock: KIFKEQ_clean_linker_1, # of connection points: 2
#     Edge 111, Type (0, 0), BuildingBlock: KIFKEQ_clean_linker_1, # of connection points: 2
#     Edge 112, Type (0, 0), BuildingBlock: KIFKEQ_clean_linker_1, # of connection points: 2
#     Edge 113, Type (0, 0), BuildingBlock: KIFKEQ_clean_linker_1, # of connection points: 2
#     Edge 114, Type (0, 0), BuildingBlock: KIFKEQ_clean_linker_1, # of connection points: 2
#     Edge 115, Type (0, 0), BuildingBlock: KIFKEQ_clean_linker_1, # of connection points: 2
#     Edge 116, Type (0, 0), BuildingBlock: KIFKEQ_clean_linker_1, # of connection points: 2
#     Edge 117, Type (0, 0), BuildingBlock: KIFKEQ_clean_linker_1, # of connection points: 2
#     Edge 118, Type (0, 0), BuildingBlock: KIFKEQ_clean_linker_1, # of connection points: 2
#     Edge 119, Type (0, 0), BuildingBlock: KIFKEQ_clean_linker_1, # of connection points: 2
#     Edge 120, Type (0, 0), BuildingBlock: KIFKEQ_clean_linker_1, # of connection points: 2
#     Edge 121, Type (0, 0), BuildingBlock: KIFKEQ_clean_linker_1, # of connection points: 2
#     Edge 122, Type (0, 0), BuildingBlock: KIFKEQ_clean_linker_1, # of connection points: 2
#     Edge 123, Type (0, 0), BuildingBlock: KIFKEQ_clean_linker_1, # of connection points: 2
#     Edge 124, Type (0, 0), BuildingBlock: KIFKEQ_clean_linker_1, # of connection points: 2
#     Edge 125, Type (0, 0), BuildingBlock: KIFKEQ_clean_linker_1, # of connection points: 2
#     Edge 126, Type (0, 0), BuildingBlock: KIFKEQ_clean_linker_1, # of connection points: 2
#     Edge 127, Type (0, 0), BuildingBlock: KIFKEQ_clean_linker_1, # of connection points: 2
#     Edge 128, Type (0, 0), BuildingBlock: KIFKEQ_clean_linker_1, # of connection points: 2
#     Edge 129, Type (0, 0), BuildingBlock: KIFKEQ_clean_linker_1, # of connection points: 2
#     Edge 130, Type (0, 0), BuildingBlock: KIFKEQ_clean_linker_1, # of connection points: 2
#     Edge 131, Type (0, 0), BuildingBlock: KIFKEQ_clean_linker_1, # of connection points: 2
#     Edge 132, Type (0, 0), BuildingBlock: KIFKEQ_clean_linker_1, # of connection points: 2
#     Edge 133, Type (0, 0), BuildingBlock: KIFKEQ_clean_linker_1, # of connection points: 2
#     Edge 134, Type (0, 0), BuildingBlock: KIFKEQ_clean_linker_1, # of connection points: 2
#     Edge 135, Type (0, 0), BuildingBlock: KIFKEQ_clean_linker_1, # of connection points: 2
#     Edge 136, Type (0, 0), BuildingBlock: KIFKEQ_clean_linker_1, # of connection points: 2
#     Edge 137, Type (0, 0), BuildingBlock: KIFKEQ_clean_linker_1, # of connection points: 2
#     Edge 138, Type (0, 0), BuildingBlock: KIFKEQ_clean_linker_1, # of connection points: 2
#     Edge 139, Type (0, 0), BuildingBlock: KIFKEQ_clean_linker_1, # of connection points: 2
#     Edge 140, Type (0, 0), BuildingBlock: KIFKEQ_clean_linker_1, # of connection points: 2
#     Edge 141, Type (0, 0), BuildingBlock: KIFKEQ_clean_linker_1, # of connection points: 2
#     Edge 142, Type (0, 0), BuildingBlock: KIFKEQ_clean_linker_1, # of connection points: 2
#     Edge 143, Type (0, 0), BuildingBlock: KIFKEQ_clean_linker_1, # of connection points: 2
# Relax obj value: 0.200
# Max RMSD: 0.250
# Mean RMSD: 0.237
data_MOF--net-ulj--node1-MUDLON_clean_sbu_0--edge1-KIFKEQ_clean_linker_1
_symmetry_space_group_name_H-M    P1
_symmetry_Int_Tables_number       1
_symmetry_cell_setting            triclinic
loop_
_symmetry_equiv_pos_as_xyz
'x, y, z'
_cell_length_a     67.310315
_cell_length_b     67.281234
_cell_length_c     67.272633
_cell_angle_alpha  89.997237
_cell_angle_beta   90.052706
_cell_angle_gamma 89.990439
loop_
_atom_site_label
_atom_site_type_symbol
_atom_site_fract_x
_atom_site_fract_y
_atom_site_fract_z
_atom_type_partial_charge
Mg0 Mg 0.13849 0.21833 0.3273 0.0
C1 C 0.11593 0.18847 0.34902 0.0
O2 O 0.13312 0.18941 0.35826 0.0
C3 C 0.14813 0.24962 0.29789 0.0
O4 O 0.15811 0.25541 0.31365 0.0
C5 C 0.12644 0.25468 0.3485 0.0
O6 O 0.11659 0.25601 0.33168 0.0
O7 O 0.13795 0.23996 0.35123 0.0
O8 O 0.11348 0.19896 0.33349 0.0
O9 O 0.16561 0.20107 0.3263 0.0
C10 C 0.16481 0.18414 0.31795 0.0
O11 O 0.1475 0.17744 0.31188 0.0
O12 O 0.13749 0.23402 0.29903 0.0
Mg13 Mg 0.47494 0.6111 0.93212 0.0
C14 C 0.44734 0.64819 0.93541 0.0
O15 O 0.4518 0.64832 0.95442 0.0
C16 C 0.48184 0.60815 0.97634 0.0
O17 O 0.46311 0.60278 0.9755 0.0
C18 C 0.51561 0.61091 0.91304 0.0
O19 O 0.5209 0.60727 0.93149 0.0
O20 O 0.49723 0.61192 0.90882 0.0
O21 O 0.45451 0.63476 0.92425 0.0
O22 O 0.45932 0.58287 0.9337 0.0
C23 C 0.44173 0.58245 0.94059 0.0
O24 O 0.43274 0.59934 0.94452 0.0
O25 O 0.49023 0.61427 0.96056 0.0
Mg26 Mg 0.87441 0.27612 0.31346 0.0
C27 C 0.89497 0.31034 0.33243 0.0
O28 O 0.87619 0.31443 0.33581 0.0
C29 C 0.87249 0.24285 0.28375 0.0
O30 O 0.86744 0.23336 0.30004 0.0
C31 C 0.87544 0.2568 0.35465 0.0
O32 O 0.87899 0.27509 0.36048 0.0
O33 O 0.87183 0.25348 0.33639 0.0
O34 O 0.89918 0.29513 0.32201 0.0
O35 O 0.84806 0.29417 0.30915 0.0
C36 C 0.83197 0.29325 0.31896 0.0
O37 O 0.83061 0.28093 0.33405 0.0
O38 O 0.87774 0.26099 0.28502 0.0
Mg39 Mg 0.5292 0.88459 0.93344 0.0
C40 C 0.54768 0.84319 0.93073 0.0
O41 O 0.531 0.83796 0.9394 0.0
C42 C 0.50025 0.89164 0.96561 0.0
O43 O 0.49247 0.90144 0.95061 0.0
C44 C 0.49148 0.86959 0.91688 0.0
O45 O 0.4937 0.85948 0.93343 0.0
O46 O 0.50478 0.88213 0.91203 0.0
O47 O 0.55082 0.86145 0.92704 0.0
O48 O 0.54462 0.913 0.93491 0.0
C49 C 0.56107 0.91228 0.94425 0.0
O50 O 0.56771 0.89484 0.95004 0.0
O51 O 0.51635 0.88211 0.96296 0.0
Mg52 Mg 0.13592 0.78863 0.17811 0.0
C53 C 0.11541 0.82264 0.15815 0.0
O54 O 0.13357 0.82434 0.1512 0.0
C55 C 0.1294 0.75821 0.21141 0.0
O56 O 0.12134 0.7476 0.19713 0.0
C57 C 0.12923 0.76741 0.13879 0.0
O58 O 0.12765 0.78581 0.13249 0.0
O59 O 0.13386 0.76427 0.15685 0.0
O60 O 0.11185 0.80921 0.171 0.0
O61 O 0.1643 0.80405 0.17847 0.0
C62 C 0.16476 0.82091 0.18702 0.0
O63 O 0.14802 0.82879 0.19323 0.0
O64 O 0.13495 0.77591 0.20779 0.0
Mg65 Mg 0.03977 0.61643 0.06607 0.0
C66 C 0.05551 0.6583 0.06957 0.0
O67 O 0.03683 0.66228 0.06553 0.0
C68 C 0.0328 0.60953 0.02177 0.0
O69 O 0.05168 0.60458 0.02217 0.0
C70 C 1.0006 0.62791 0.08287 0.0
O71 O 0.9983 0.63163 0.06385 0.0
O72 O 0.01699 0.62055 0.08879 0.0
O73 O 0.06117 0.64028 0.06981 0.0
O74 O 0.05469 0.58783 0.06717 0.0
C75 C 0.07317 0.58683 0.06335 0.0
O76 O 0.08326 0.6034 0.06116 0.0
O77 O 0.02473 0.61623 0.03746 0.0
Mg78 Mg 0.87339 0.72455 0.1839 0.0
C79 C 0.89365 0.69112 0.16415 0.0
O80 O 0.87607 0.69138 0.15564 0.0
C81 C 0.86629 0.75686 0.21297 0.0
O82 O 0.85646 0.76305 0.19726 0.0
C83 C 0.88783 0.75947 0.16161 0.0
O84 O 0.8984 0.75997 0.17803 0.0
O85 O 0.8749 0.74583 0.15953 0.0
O86 O 0.89719 0.70351 0.17799 0.0
O87 O 0.84511 0.70906 0.18646 0.0
C88 C 0.84491 0.69152 0.19354 0.0
O89 O 0.86185 0.68273 0.19762 0.0
O90 O 0.87602 0.74067 0.21183 0.0
Mg91 Mg 0.96744 0.89293 0.05731 0.0
C92 C 0.94464 0.85369 0.06246 0.0
O93 O 0.95871 0.84651 0.051 0.0
C94 C 0.99713 0.89615 0.02525 0.0
O95 O 0.00597 0.90472 0.04041 0.0
C96 C 0.00276 0.87447 0.07568 0.0
O97 O 0.99964 0.86349 0.05983 0.0
O98 O 0.99125 0.8891 0.07901 0.0
O99 O 0.94432 0.87222 0.06616 0.0
O100 O 0.95532 0.92285 0.05549 0.0
C101 C 0.93664 0.9257 0.05502 0.0
O102 O 0.92468 0.9106 0.05818 0.0
O103 O 0.98003 0.8885 0.02781 0.0
Mg104 Mg 0.31155 0.13245 0.21347 0.0
C105 C 0.3265 0.10741 0.18023 0.0
O106 O 0.33683 0.12379 0.17769 0.0
C107 C 0.28748 0.13525 0.251 0.0
O108 O 0.3051 0.13982 0.25805 0.0
C109 C 0.34674 0.11621 0.23485 0.0
O110 O 0.34054 0.10064 0.22483 0.0
O111 O 0.33784 0.13271 0.23242 0.0
O112 O 0.31353 0.10692 0.19393 0.0
O113 O 0.30709 0.1591 0.19594 0.0
C114 C 0.31713 0.17501 0.19756 0.0
O115 O 0.33225 0.17556 0.20991 0.0
O116 O 0.2858 0.13061 0.23274 0.0
Mg117 Mg 0.39117 0.43015 0.04453 0.0
C118 C 0.35007 0.43655 0.06439 0.0
O119 O 0.34787 0.45115 0.05162 0.0
C120 C 0.40643 0.45876 0.01604 0.0
O121 O 0.42076 0.44572 0.01851 0.0
C122 C 0.37701 0.39293 0.0244 0.0
O123 O 0.36307 0.39523 0.03785 0.0
O124 O 0.39171 0.40482 0.0244 0.0
O125 O 0.36617 0.42669 0.06457 0.0
O126 O 0.41769 0.43368 0.06251 0.0
C127 C 0.41867 0.45047 0.07113 0.0
O128 O 0.40388 0.46302 0.06883 0.0
O129 O 0.3903 0.45631 0.02558 0.0
Mg130 Mg 0.6861 0.36515 0.2199 0.0
C131 C 0.67561 0.39394 0.18748 0.0
O132 O 0.66942 0.37721 0.17954 0.0
C133 C 0.71084 0.34836 0.25166 0.0
O134 O 0.69502 0.33691 0.25151 0.0
C135 C 0.64379 0.37168 0.23471 0.0
O136 O 0.64171 0.37986 0.2171 0.0
O137 O 0.66013 0.36322 0.23904 0.0
O138 O 0.6843 0.39338 0.20427 0.0
O139 O 0.69012 0.34085 0.19903 0.0
C140 C 0.6821 0.32386 0.2009 0.0
O141 O 0.66913 0.32099 0.2152 0.0
O142 O 0.71154 0.36296 0.23967 0.0
Mg143 Mg 0.61019 0.07474 0.03112 0.0
C144 C 0.65171 0.07006 0.05031 0.0
O145 O 0.6545 0.05646 0.03659 0.0
C146 C 0.61113 0.03108 0.01908 0.0
O147 O 0.6119 0.02859 0.03843 0.0
C148 C 0.60499 0.09954 0.99392 0.0
O149 O 0.59725 0.08285 0.98738 0.0
O150 O 0.6105 0.10064 0.01196 0.0
O151 O 0.635 0.07879 0.05141 0.0
O152 O 0.58301 0.07186 0.04812 0.0
C153 C 0.58375 0.06222 0.06436 0.0
O154 O 0.60107 0.05595 0.07084 0.0
O155 O 0.61157 0.04861 0.01206 0.0
Mg156 Mg 0.31589 0.86806 0.2909 0.0
C157 C 0.3275 0.89612 0.32394 0.0
O158 O 0.33264 0.87915 0.33212 0.0
C159 C 0.28474 0.87342 0.25797 0.0
O160 O 0.29783 0.88575 0.2504 0.0
C161 C 0.35627 0.87437 0.27194 0.0
O162 O 0.3604 0.88155 0.28962 0.0
O163 O 0.33925 0.86679 0.26882 0.0
O164 O 0.31927 0.89596 0.30691 0.0
O165 O 0.31558 0.84274 0.31083 0.0
C166 C 0.30237 0.8429 0.32434 0.0
O167 O 0.29123 0.85881 0.32635 0.0
O168 O 0.28815 0.86539 0.27474 0.0
Mg169 Mg 0.12267 0.43121 0.9659 0.0
C170 C 0.16612 0.42713 0.95617 0.0
O171 O 0.16696 0.42563 0.97563 0.0
C172 C 0.12802 0.46494 0.99678 0.0
O173 O 0.14292 0.45423 0.00346 0.0
C174 C 0.11721 0.40873 0.00454 0.0
O175 O 0.10646 0.42447 0.00877 0.0
O176 O 0.12485 0.4072 0.98734 0.0
O177 O 0.14943 0.43043 0.94796 0.0
O178 O 0.09693 0.42882 0.94666 0.0
C179 C 0.09823 0.4356 0.92906 0.0
O180 O 0.11554 0.442 0.92271 0.0
O181 O 0.11842 0.45909 0.98159 0.0
Mg182 Mg 0.69209 0.63734 0.29177 0.0
C183 C 0.6763 0.60954 0.32272 0.0
O184 O 0.66937 0.62659 0.32924 0.0
C185 C 0.72407 0.63395 0.25952 0.0
O186 O 0.71039 0.62382 0.24996 0.0
C187 C 0.65178 0.63422 0.27142 0.0
O188 O 0.64604 0.62933 0.28943 0.0
O189 O 0.66975 0.63926 0.26858 0.0
O190 O 0.68744 0.60949 0.30745 0.0
O191 O 0.69224 0.66226 0.31215 0.0
C192 C 0.68681 0.67942 0.30647 0.0
O193 O 0.67862 0.68139 0.28884 0.0
O194 O 0.72068 0.63982 0.27715 0.0
Mg195 Mg 0.88866 0.07841 0.95292 0.0
C196 C 0.84814 0.07445 0.93162 0.0
O197 O 0.84561 0.0591 0.94342 0.0
C198 C 0.88366 0.04721 0.98546 0.0
O199 O 0.87683 0.06247 0.99553 0.0
C200 C 0.87257 0.11308 0.97612 0.0
O201 O 0.86008 0.11271 0.96112 0.0
O202 O 0.88706 0.10093 0.97624 0.0
O203 O 0.86447 0.08392 0.93216 0.0
O204 O 0.91656 0.07803 0.93674 0.0
C205 C 0.91648 0.06945 0.91989 0.0
O206 O 0.89946 0.0632 0.91262 0.0
O207 O 0.88808 0.04943 0.96721 0.0
Mg208 Mg 0.21887 0.32709 0.13968 0.0
C209 C 0.18135 0.33628 0.11692 0.0
O210 O 0.17569 0.34161 0.13483 0.0
C211 C 0.25067 0.30065 0.15299 0.0
O212 O 0.25136 0.31567 0.16547 0.0
C213 C 0.23482 0.36664 0.12563 0.0
O214 O 0.21845 0.3658 0.11503 0.0
O215 O 0.23829 0.35295 0.13822 0.0
O216 O 0.1985 0.3287 0.11461 0.0
O217 O 0.20296 0.32406 0.16758 0.0
C218 C 0.18941 0.31091 0.16836 0.0
O219 O 0.18483 0.30107 0.15212 0.0
O220 O 0.23802 0.30117 0.13893 0.0
Mg221 Mg 0.21361 0.68366 0.36568 0.0
C222 C 0.17853 0.66453 0.38567 0.0
O223 O 0.17696 0.65687 0.36777 0.0
C224 C 0.24673 0.71369 0.37077 0.0
O225 O 0.25752 0.69744 0.37003 0.0
C226 C 0.23439 0.64494 0.3766 0.0
O227 O 0.217 0.64137 0.38467 0.0
O228 O 0.23678 0.66087 0.36668 0.0
O229 O 0.19226 0.67707 0.38904 0.0
O230 O 0.19902 0.68688 0.33691 0.0
C231 C 0.18167 0.69439 0.33616 0.0
O232 O 0.17241 0.69852 0.35284 0.0
O233 O 0.22789 0.71223 0.37038 0.0
Mg234 Mg 0.9503 0.53164 0.86877 0.0
C235 C 0.95508 0.54647 0.91135 0.0
O236 O 0.9476 0.52895 0.91559 0.0
C237 C 0.90762 0.51677 0.86593 0.0
O238 O 0.90499 0.53404 0.85719 0.0
C239 C 0.97515 0.49452 0.8722 0.0
O240 O 0.95773 0.48721 0.8771 0.0
O241 O 0.97633 0.51264 0.86692 0.0
O242 O 0.95669 0.55165 0.89326 0.0
O243 O 0.94554 0.54866 0.84174 0.0
C244 C 0.94593 0.56756 0.84196 0.0
O245 O 0.95043 0.57677 0.85858 0.0
O246 O 0.92458 0.51261 0.87316 0.0
Mg247 Mg 0.79195 0.82485 0.37191 0.0
C248 C 0.82387 0.83927 0.39782 0.0
O249 O 0.82372 0.852 0.383 0.0
C250 C 0.76455 0.79691 0.35285 0.0
O251 O 0.7694 0.80938 0.33864 0.0
C252 C 0.76139 0.85827 0.36375 0.0
O253 O 0.7606 0.85083 0.34572 0.0
O254 O 0.77336 0.85084 0.37635 0.0
O255 O 0.81199 0.82459 0.3972 0.0
O256 O 0.80876 0.82494 0.34436 0.0
C257 C 0.82479 0.81495 0.34355 0.0
O258 O 0.83158 0.80664 0.35987 0.0
O259 O 0.77222 0.79929 0.36998 0.0
Mg260 Mg 0.56344 0.46612 0.37433 0.0
C261 C 0.56113 0.45596 0.41786 0.0
O262 O 0.56395 0.47524 0.41911 0.0
C263 C 0.59757 0.4886 0.35711 0.0
O264 O 0.59077 0.47906 0.34148 0.0
C265 C 0.53856 0.50245 0.38174 0.0
O266 O 0.55617 0.50913 0.38688 0.0
O267 O 0.53709 0.48486 0.37491 0.0
O268 O 0.56133 0.4478 0.40083 0.0
O269 O 0.565 0.44735 0.34801 0.0
C270 C 0.56987 0.42912 0.34929 0.0
O271 O 0.57221 0.42117 0.36698 0.0
O272 O 0.58937 0.48558 0.37388 0.0
Mg273 Mg 0.28313 0.68216 0.6389 0.0
C274 C 0.31786 0.66553 0.61716 0.0
O275 O 0.31537 0.65237 0.63137 0.0
C276 C 0.24781 0.70703 0.64451 0.0
O277 O 0.24418 0.6914 0.65565 0.0
C278 C 0.26331 0.65023 0.61666 0.0
O279 O 0.27265 0.66051 0.60295 0.0
O280 O 0.26505 0.65559 0.63473 0.0
O281 O 0.30682 0.68087 0.61698 0.0
O282 O 0.295 0.68699 0.66863 0.0
C283 C 0.3084 0.70028 0.66989 0.0
O284 O 0.31501 0.70845 0.65343 0.0
O285 O 0.26366 0.70732 0.63425 0.0
Mg286 Mg 0.93214 0.47104 0.63072 0.0
C287 C 0.94481 0.43711 0.60537 0.0
O288 O 0.95418 0.43314 0.62205 0.0
C289 C 0.89194 0.49029 0.63903 0.0
O290 O 0.88858 0.4734 0.64824 0.0
C291 C 0.95976 0.5052 0.62384 0.0
O292 O 0.94279 0.51299 0.61815 0.0
O293 O 0.95988 0.48761 0.63081 0.0
O294 O 0.93354 0.45226 0.60458 0.0
O295 O 0.92804 0.45305 0.65723 0.0
C296 C 0.91855 0.43677 0.65579 0.0
O297 O 0.91229 0.43098 0.63822 0.0
O298 O 0.90819 0.49261 0.6297 0.0
Mg299 Mg 0.07518 0.03236 0.63153 0.0
C300 C 0.0593 0.06351 0.60432 0.0
O301 O 0.05123 0.06869 0.62133 0.0
C302 C 0.11658 0.01642 0.64149 0.0
O303 O 0.11798 0.0335 0.65083 0.0
C304 C 0.04961 0.99599 0.62803 0.0
O305 O 0.06678 0.98876 0.6222 0.0
O306 O 0.04875 0.01397 0.63384 0.0
O307 O 0.0712 0.0488 0.604 0.0
O308 O 0.07798 0.0529 0.65631 0.0
C309 C 0.0889 0.06815 0.65403 0.0
O310 O 0.09712 0.07131 0.6366 0.0
O311 O 0.10093 0.01261 0.63157 0.0
Mg312 Mg 0.63498 0.72146 0.81858 0.0
C313 C 0.61689 0.68322 0.83257 0.0
O314 O 0.6357 0.68004 0.83671 0.0
C315 C 0.63632 0.7551 0.78942 0.0
O316 O 0.64084 0.76446 0.80596 0.0
C317 C 0.62597 0.73899 0.85917 0.0
O318 O 0.62282 0.72021 0.86347 0.0
O319 O 0.63246 0.74352 0.84202 0.0
O320 O 0.61201 0.69937 0.82402 0.0
O321 O 0.66349 0.70654 0.81645 0.0
C322 C 0.66415 0.69399 0.80232 0.0
O323 O 0.64807 0.6912 0.79157 0.0
O324 O 0.6319 0.73673 0.79024 0.0
Mg325 Mg 0.96623 0.1208 0.44788 0.0
C326 C 0.93127 0.1424 0.43078 0.0
O327 O 0.92927 0.12492 0.42231 0.0
C328 C 0.99815 0.11266 0.4771 0.0
O329 O 0.00551 0.10539 0.46055 0.0
C330 C 1.0 0.13986 0.42871 0.0
O331 O 0.99647 0.15068 0.44458 0.0
O332 O 0.98898 0.12489 0.42534 0.0
O333 O 0.94522 0.14495 0.44329 0.0
O334 O 0.95174 0.09199 0.44717 0.0
C335 C 0.93505 0.0902 0.45583 0.0
O336 O 0.92644 0.10612 0.46315 0.0
O337 O 0.98126 0.12117 0.47658 0.0
Mg338 Mg 0.34825 0.78285 0.83951 0.0
C339 C 0.36925 0.82114 0.84949 0.0
O340 O 0.35224 0.82415 0.85857 0.0
C341 C 0.35009 0.7638 0.79959 0.0
O342 O 0.36842 0.76164 0.80598 0.0
C343 C 0.37184 0.76022 0.8697 0.0
O344 O 0.37281 0.77826 0.87711 0.0
O345 O 0.36238 0.75745 0.85356 0.0
O346 O 0.37126 0.80563 0.83888 0.0
O347 O 0.32488 0.79104 0.86023 0.0
C348 C 0.30719 0.79715 0.85774 0.0
O349 O 0.29593 0.79956 0.8735 0.0
O350 O 0.33774 0.77308 0.81047 0.0
Mg351 Mg 0.03101 0.37238 0.45257 0.0
C352 C 0.06934 0.35419 0.44025 0.0
O353 O 0.0729 0.37316 0.43736 0.0
C354 C 0.99727 0.37831 0.48011 0.0
O355 O 0.99099 0.38732 0.46395 0.0
C356 C 0.9978 0.35732 0.42877 0.0
O357 O 0.99788 0.346 0.44469 0.0
O358 O 0.0107 0.37106 0.42734 0.0
O359 O 0.0528 0.34911 0.44785 0.0
O360 O 0.04633 0.40028 0.45762 0.0
C361 C 0.04965 0.4147 0.44592 0.0
O362 O 0.04344 0.4138 0.42743 0.0
O363 O 0.01384 0.36923 0.47967 0.0
Mg364 Mg 0.61866 0.29199 0.69025 0.0
C365 C 0.59786 0.32842 0.67671 0.0
O366 O 0.61521 0.32996 0.66789 0.0
C367 C 0.6214 0.25505 0.71569 0.0
O368 O 0.62321 0.24693 0.69803 0.0
C369 C 0.62557 0.263 0.65422 0.0
O370 O 0.64445 0.2626 0.65917 0.0
O371 O 0.61353 0.27358 0.66421 0.0
O372 O 0.59498 0.31394 0.68853 0.0
O373 O 0.64716 0.30715 0.69172 0.0
C374 C 0.64791 0.32166 0.70384 0.0
O375 O 0.63158 0.32695 0.71312 0.0
O376 O 0.61797 0.27362 0.71691 0.0
Mg377 Mg 0.53906 0.11884 0.57179 0.0
C378 C 0.55635 0.16056 0.57203 0.0
O379 O 0.53868 0.16492 0.56495 0.0
C380 C 0.51452 0.10326 0.53912 0.0
O381 O 0.51728 0.08783 0.55078 0.0
C382 C 0.50034 0.11859 0.59549 0.0
O383 O 0.49332 0.11089 0.57898 0.0
O384 O 0.51881 0.12231 0.59679 0.0
O385 O 0.56077 0.14246 0.57511 0.0
O386 O 0.55429 0.09039 0.571 0.0
C387 C 0.57308 0.08913 0.5695 0.0
O388 O 0.58384 0.10534 0.57102 0.0
O389 O 0.52223 0.11982 0.54408 0.0
Mg390 Mg 0.37623 0.22738 0.68528 0.0
C391 C 0.39936 0.18895 0.67853 0.0
O392 O 0.38222 0.18085 0.68311 0.0
C393 C 0.37547 0.26285 0.71262 0.0
O394 O 0.3687 0.27121 0.69631 0.0
C395 C 0.37942 0.2423 0.64304 0.0
O396 O 0.38449 0.22366 0.64016 0.0
O397 O 0.37383 0.24768 0.66027 0.0
O398 O 0.40113 0.20776 0.67912 0.0
O399 O 0.3496 0.21062 0.69226 0.0
C400 C 0.33893 0.19959 0.68125 0.0
O401 O 0.34331 0.19763 0.66232 0.0
O402 O 0.38103 0.24479 0.71202 0.0
Mg403 Mg 0.46234 0.38916 0.56368 0.0
C404 C 0.44632 0.34791 0.56508 0.0
O405 O 0.46545 0.34453 0.56312 0.0
C406 C 0.49835 0.39537 0.53844 0.0
O407 O 0.50503 0.40064 0.55602 0.0
C408 C 0.49047 0.39567 0.60017 0.0
O409 O 0.48946 0.41474 0.59611 0.0
O410 O 0.48088 0.38334 0.58953 0.0
O411 O 0.44016 0.36575 0.56446 0.0
O412 O 0.44844 0.41828 0.5629 0.0
C413 C 0.42972 0.42048 0.56149 0.0
O414 O 0.41817 0.40481 0.56296 0.0
O415 O 0.48076 0.38857 0.53706 0.0
Mg416 Mg 0.82799 0.64507 0.72172 0.0
C417 C 0.83155 0.61575 0.68796 0.0
O418 O 0.8366 0.63209 0.67856 0.0
C419 C 0.78925 0.63742 0.74481 0.0
O420 O 0.78945 0.62015 0.73571 0.0
C421 C 0.86969 0.63403 0.7337 0.0
O422 O 0.86928 0.62608 0.71587 0.0
O423 O 0.85488 0.64424 0.7395 0.0
O424 O 0.82638 0.61682 0.70611 0.0
O425 O 0.82575 0.66967 0.701 0.0
C426 C 0.81059 0.66909 0.68972 0.0
O427 O 0.79876 0.65359 0.69073 0.0
O428 O 0.80334 0.64962 0.74186 0.0
Mg429 Mg 0.8966 0.92779 0.54604 0.0
C430 C 0.85346 0.92753 0.5589 0.0
O431 O 0.85098 0.93254 0.54018 0.0
C432 C 0.89 0.96142 0.51579 0.0
O433 O 0.87757 0.94887 0.50747 0.0
C434 C 0.88236 0.8912 0.52393 0.0
O435 O 0.87241 0.88868 0.54052 0.0
O436 O 0.89441 0.90569 0.52257 0.0
O437 O 0.871 0.92522 0.56552 0.0
O438 O 0.92373 0.9259 0.56336 0.0
C439 C 0.92362 0.93389 0.58049 0.0
O440 O 0.90678 0.94084 0.58749 0.0
O441 O 0.8987 0.95665 0.53187 0.0
Mg442 Mg 0.2022 0.86922 0.71778 0.0
C443 C 0.1973 0.89993 0.68573 0.0
O444 O 0.19607 0.8836 0.6751 0.0
C445 C 0.22941 0.84405 0.74044 0.0
O446 O 0.21647 0.83177 0.7325 0.0
C447 C 0.15991 0.87601 0.73161 0.0
O448 O 0.1583 0.88335 0.71358 0.0
O449 O 0.17621 0.86799 0.73683 0.0
O450 O 0.20142 0.89854 0.70415 0.0
O451 O 0.20273 0.84653 0.69494 0.0
C452 C 0.18969 0.83314 0.69234 0.0
O453 O 0.17353 0.83328 0.70327 0.0
O454 O 0.22769 0.86254 0.73675 0.0
Mg455 Mg 0.11478 0.56881 0.53876 0.0
C456 C 0.15698 0.56709 0.55609 0.0
O457 O 0.16064 0.55631 0.54022 0.0
C458 C 0.0999 0.53967 0.51054 0.0
O459 O 0.0893 0.55578 0.50741 0.0
C460 C 0.12878 0.58555 0.50099 0.0
O461 O 0.1371 0.5679 0.50169 0.0
O462 O 0.11773 0.59095 0.51534 0.0
O463 O 0.13938 0.57317 0.55921 0.0
O464 O 0.08715 0.57029 0.55522 0.0
C465 C 0.08712 0.56206 0.57224 0.0
O466 O 0.10392 0.55505 0.57932 0.0
O467 O 0.11334 0.54017 0.52386 0.0
Mg468 Mg 0.80747 0.37575 0.79296 0.0
C469 C 0.82249 0.4018 0.82653 0.0
O470 O 0.82745 0.38436 0.83378 0.0
C471 C 0.77795 0.36952 0.76001 0.0
O472 O 0.79455 0.36495 0.75084 0.0
C473 C 0.84785 0.38128 0.77358 0.0
O474 O 0.85288 0.38647 0.79173 0.0
O475 O 0.83027 0.37524 0.77026 0.0
O476 O 0.81298 0.40258 0.8102 0.0
O477 O 0.80787 0.34913 0.81113 0.0
C478 C 0.79665 0.34841 0.8263 0.0
O479 O 0.78635 0.36427 0.83118 0.0
O480 O 0.77877 0.37554 0.77794 0.0
Mg481 Mg 0.62388 0.9424 0.46157 0.0
C482 C 0.64695 0.92711 0.42718 0.0
O483 O 0.63008 0.91745 0.42538 0.0
C484 C 0.62892 0.97228 0.49547 0.0
O485 O 0.63793 0.95735 0.50428 0.0
C486 C 0.64246 0.90993 0.48546 0.0
O487 O 0.65729 0.91522 0.47395 0.0
O488 O 0.62575 0.91851 0.48328 0.0
O489 O 0.64873 0.93975 0.44113 0.0
O490 O 0.59634 0.9423 0.44484 0.0
C491 C 0.5958 0.95326 0.42944 0.0
O492 O 0.61206 0.96258 0.42398 0.0
O493 O 0.62304 0.97032 0.47761 0.0
Mg494 Mg 0.198 0.13262 0.78792 0.0
C495 C 0.19343 0.08924 0.79803 0.0
O496 O 0.19568 0.08789 0.77867 0.0
C497 C 0.22219 0.13817 0.75082 0.0
O498 O 0.20448 0.14297 0.74417 0.0
C499 C 0.15638 0.12409 0.77298 0.0
O500 O 0.15551 0.11433 0.78986 0.0
O501 O 0.17179 0.13428 0.76905 0.0
O502 O 0.19494 0.1062 0.80621 0.0
O503 O 0.20235 0.15846 0.80665 0.0
C504 C 0.19624 0.17562 0.80166 0.0
O505 O 0.18542 0.17753 0.7855 0.0
O506 O 0.22393 0.13204 0.76864 0.0
Mg507 Mg 0.38795 0.57839 0.46631 0.0
C508 C 0.35036 0.57556 0.43967 0.0
O509 O 0.35003 0.55678 0.445 0.0
C510 C 0.3797 0.54535 0.49628 0.0
O511 O 0.3726 0.56012 0.50689 0.0
C512 C 0.37591 0.61374 0.49108 0.0
O513 O 0.36536 0.61713 0.475 0.0
O514 O 0.3878 0.59904 0.49126 0.0
O515 O 0.36414 0.58678 0.44609 0.0
O516 O 0.41585 0.57734 0.45017 0.0
C517 C 0.41543 0.56887 0.43326 0.0
O518 O 0.3982 0.56317 0.42606 0.0
O519 O 0.38545 0.54864 0.47857 0.0
Mg520 Mg 0.71823 0.82288 0.6337 0.0
C521 C 0.68463 0.83848 0.60845 0.0
O522 O 0.67977 0.84648 0.62559 0.0
C523 C 0.75189 0.79286 0.63219 0.0
O524 O 0.76252 0.80907 0.62993 0.0
C525 C 0.73787 0.86281 0.62565 0.0
O526 O 0.71975 0.86751 0.6201 0.0
O527 O 0.74106 0.84574 0.63309 0.0
O528 O 0.6997 0.82712 0.60762 0.0
O529 O 0.70052 0.82231 0.66065 0.0
C530 C 0.68537 0.81102 0.66054 0.0
O531 O 0.6806 0.80185 0.64396 0.0
O532 O 0.73306 0.79425 0.63313 0.0
Mg533 Mg 0.71187 0.18801 0.86914 0.0
C534 C 0.67248 0.18237 0.89161 0.0
O535 O 0.66445 0.18761 0.8746 0.0
C536 C 0.7467 0.21633 0.87083 0.0
O537 O 0.75619 0.20024 0.86515 0.0
C538 C 0.73054 0.1485 0.87897 0.0
O539 O 0.71423 0.14736 0.88961 0.0
O540 O 0.73305 0.16349 0.86772 0.0
O541 O 0.69129 0.18214 0.89332 0.0
O542 O 0.69631 0.19473 0.84164 0.0
C543 C 0.68384 0.18444 0.83187 0.0
O544 O 0.67947 0.16636 0.8378 0.0
O545 O 0.72825 0.2152 0.87473 0.0
Mg546 Mg 0.43549 0.03996 0.38046 0.0
C547 C 0.45065 0.07002 0.40882 0.0
O548 O 0.46119 0.0737 0.3928 0.0
C549 C 0.39582 0.0195 0.3717 0.0
O550 O 0.39145 0.03682 0.36381 0.0
C551 C 0.46496 0.00632 0.38269 0.0
O552 O 0.44854 0.99649 0.38648 0.0
O553 O 0.46391 0.02477 0.37869 0.0
O554 O 0.43718 0.05679 0.40793 0.0
O555 O 0.43098 0.05919 0.35496 0.0
C556 C 0.41966 0.07426 0.35621 0.0
O557 O 0.41164 0.07865 0.37346 0.0
O558 O 0.41247 0.01725 0.38037 0.0
Mg559 Mg 0.29589 0.32363 0.87138 0.0
C560 C 0.33045 0.33398 0.8975 0.0
O561 O 0.33496 0.34393 0.88131 0.0
C562 C 0.26815 0.2965 0.8519 0.0
O563 O 0.26965 0.31158 0.83957 0.0
C564 C 0.27934 0.36351 0.88488 0.0
O565 O 0.29759 0.36575 0.89141 0.0
O566 O 0.27494 0.34799 0.87502 0.0
O567 O 0.31497 0.32315 0.8975 0.0
O568 O 0.3135 0.32519 0.84439 0.0
C569 C 0.32884 0.31419 0.84347 0.0
O570 O 0.33394 0.30378 0.8592 0.0
O571 O 0.278 0.297 0.86803 0.0
Mg572 Mg 0.067 0.969 0.86484 0.0
C573 C 0.05014 0.93904 0.89287 0.0
O574 O 0.03954 0.9356 0.87682 0.0
C575 C 0.10928 0.98281 0.85775 0.0
O576 O 0.11125 0.96419 0.85223 0.0
C577 C 0.04146 0.00482 0.87111 0.0
O578 O 0.05864 0.01123 0.87781 0.0
O579 O 0.04049 0.98747 0.86362 0.0
O580 O 0.06386 0.95204 0.89213 0.0
O581 O 0.07049 0.94969 0.8391 0.0
C582 C 0.07749 0.93223 0.84112 0.0
O583 O 0.08091 0.92543 0.8591 0.0
O584 O 0.09271 0.98859 0.86474 0.0
Mg585 Mg 0.78468 0.18031 0.1277 0.0
C586 C 0.81923 0.16908 0.10261 0.0
O587 O 0.82198 0.15824 0.11863 0.0
C588 C 0.75416 0.20556 0.14548 0.0
O589 O 0.75489 0.18981 0.15701 0.0
C590 C 0.76622 0.14405 0.10873 0.0
O591 O 0.77998 0.14829 0.09558 0.0
O592 O 0.76514 0.15447 0.12449 0.0
O593 O 0.80462 0.18109 0.10221 0.0
O594 O 0.80246 0.18071 0.15474 0.0
C595 C 0.81721 0.19254 0.15483 0.0
O596 O 0.82132 0.20251 0.13855 0.0
O597 O 0.76547 0.20616 0.13034 0.0
Mg598 Mg 0.4329 0.96374 0.12629 0.0
C599 C 0.44817 0.93245 0.09866 0.0
O600 O 0.45917 0.92884 0.1144 0.0
C601 C 0.39469 0.9831 0.13963 0.0
O602 O 0.39634 0.96947 0.15352 0.0
C603 C 0.45996 0.99272 0.10915 0.0
O604 O 0.44571 0.99078 0.09592 0.0
O605 O 0.45885 0.98274 0.12516 0.0
O606 O 0.43487 0.94584 0.09963 0.0
O607 O 0.43147 0.94555 0.15292 0.0
C608 C 0.42412 0.92816 0.15206 0.0
O609 O 0.41874 0.921 0.13471 0.0
O610 O 0.40744 0.98355 0.12571 0.0
Mg611 Mg 0.57133 0.54134 0.13027 0.0
C612 C 0.5607 0.54801 0.08778 0.0
O613 O 0.55912 0.52861 0.08928 0.0
C614 C 0.60284 0.51713 0.14873 0.0
O615 O 0.5942 0.52577 0.16395 0.0
C616 C 0.54535 0.50523 0.1268 0.0
O617 O 0.56239 0.49783 0.12081 0.0
O618 O 0.54478 0.52312 0.1329 0.0
O619 O 0.56732 0.55772 0.10258 0.0
O620 O 0.57413 0.56163 0.15521 0.0
C621 C 0.58198 0.57869 0.15311 0.0
O622 O 0.58702 0.58465 0.13521 0.0
O623 O 0.59679 0.52135 0.1313 0.0
H624 H 0.15524 0.28999 0.17437 0.0
H625 H 0.20367 0.31815 0.20568 0.0
H626 H 0.14235 0.27725 0.20571 0.0
H627 H 0.19145 0.30466 0.23688 0.0
H628 H 0.16033 0.28782 0.29286 0.0
H629 H 0.1674 0.30494 0.2618 0.0
H630 H 0.14966 0.25251 0.22906 0.0
H631 H 0.14165 0.23586 0.26019 0.0
C632 C 0.16309 0.29351 0.18799 0.0
C633 C 0.1805 0.30502 0.18756 0.0
C634 C 0.1558 0.28607 0.20596 0.0
C635 C 0.16592 0.28969 0.22391 0.0
C636 C 0.18302 0.30176 0.22348 0.0
C637 C 0.19013 0.30946 0.20554 0.0
C638 C 0.15771 0.28007 0.27898 0.0
C639 C 0.15054 0.26047 0.27894 0.0
C640 C 0.16191 0.28983 0.26115 0.0
C641 C 0.15938 0.28009 0.24281 0.0
C642 C 0.15157 0.26065 0.24281 0.0
C643 C 0.14705 0.25101 0.26067 0.0
H644 H 0.53819 0.53168 0.05844 0.0
H645 H 0.56245 0.58779 0.07823 0.0
H646 H 0.51977 0.54877 0.03244 0.0
H647 H 0.54405 0.6049 0.05168 0.0
H648 H 0.52112 0.61687 0.9837 0.0
H649 H 0.54175 0.60397 0.0109 0.0
H650 H 0.49044 0.57494 0.03599 0.0
H651 H 0.4698 0.58792 0.00926 0.0
C652 C 0.53985 0.54763 0.05709 0.0
C653 C 0.55172 0.55838 0.07052 0.0
C654 C 0.52918 0.55741 0.04225 0.0
C655 C 0.53033 0.57814 0.04025 0.0
C656 C 0.54292 0.58889 0.05298 0.0
C657 C 0.55341 0.5791 0.06813 0.0
C658 C 0.51418 0.60807 0.99524 0.0
C659 C 0.49383 0.6033 0.9942 0.0
C660 C 0.52599 0.60072 0.01078 0.0
C661 C 0.51769 0.58827 0.02532 0.0
C662 C 0.49722 0.58432 0.0248 0.0
C663 C 0.4854 0.59186 0.00951 0.0
H664 H 0.87299 0.26053 0.24707 0.0
H665 H 0.86332 0.20406 0.27606 0.0
H666 H 0.8619 0.24632 0.21571 0.0
H667 H 0.85277 0.18965 0.24455 0.0
H668 H 0.85166 0.21354 0.15866 0.0
H669 H 0.86825 0.22363 0.18921 0.0
H670 H 0.82418 0.19195 0.22351 0.0
H671 H 0.80794 0.18137 0.19289 0.0
C672 C 0.86893 0.24496 0.24667 0.0
C673 C 0.86888 0.23349 0.26413 0.0
C674 C 0.86261 0.23675 0.22863 0.0
C675 C 0.85623 0.21685 0.22759 0.0
C676 C 0.85718 0.20513 0.24487 0.0
C677 C 0.86338 0.21336 0.26292 0.0
C678 C 0.84564 0.20852 0.17272 0.0
C679 C 0.82838 0.19676 0.17334 0.0
C680 C 0.8551 0.21441 0.19026 0.0
C681 C 0.84747 0.2088 0.20888 0.0
C682 C 0.83063 0.19639 0.20946 0.0
C683 C 0.82124 0.19038 0.19189 0.0
H684 H 0.518 0.88713 0.00189 0.0
H685 H 0.46161 0.89965 0.97395 0.0
H686 H 0.50358 0.89434 0.03433 0.0
H687 H 0.44683 0.90584 0.00636 0.0
H688 H 0.43635 0.94404 0.06166 0.0
H689 H 0.44769 0.93123 0.02994 0.0
H690 H 0.48183 0.88602 0.06037 0.0
H691 H 0.47112 0.89956 0.09224 0.0
C692 C 0.50239 0.89096 0.00277 0.0
C693 C 0.49098 0.89309 0.98543 0.0
C694 C 0.49405 0.895 0.02137 0.0
C695 C 0.47404 0.90094 0.02303 0.0
C696 C 0.4624 0.90186 0.00567 0.0
C697 C 0.47083 0.89817 0.98709 0.0
C698 C 0.44606 0.9312 0.06159 0.0
C699 C 0.45295 0.9229 0.07946 0.0
C700 C 0.45251 0.92374 0.04334 0.0
C701 C 0.46579 0.90758 0.04249 0.0
C702 C 0.47194 0.89871 0.06041 0.0
C703 C 0.46569 0.90638 0.07869 0.0
H704 H 0.20119 0.70254 0.30153 0.0
H705 H 0.14262 0.70141 0.3277 0.0
H706 H 0.18735 0.71751 0.27139 0.0
H707 H 0.12877 0.71597 0.2973 0.0
H708 H 0.1146 0.72393 0.22777 0.0
H709 H 0.12649 0.70678 0.25772 0.0
H710 H 0.16958 0.75326 0.26726 0.0
H711 H 0.15752 0.77064 0.2378 0.0
C712 C 0.18533 0.70512 0.3007 0.0
C713 C 0.173 0.70088 0.317 0.0
C714 C 0.17745 0.71379 0.28352 0.0
C715 C 0.15704 0.71797 0.28214 0.0
C716 C 0.14455 0.71284 0.29802 0.0
C717 C 0.15249 0.70457 0.31539 0.0
C718 C 0.12644 0.73059 0.23641 0.0
C719 C 0.13508 0.74866 0.23044 0.0
C720 C 0.13323 0.72077 0.2535 0.0
C721 C 0.14907 0.72863 0.2646 0.0
C722 C 0.15749 0.74681 0.25881 0.0
C723 C 0.15045 0.75682 0.24203 0.0
H724 H 0.99224 0.60836 0.01969 0.0
H725 H 0.0451 0.5985 0.98463 0.0
H726 H 0.97185 0.59554 0.99253 0.0
H727 H 0.02462 0.58584 0.95743 0.0
H728 H 0.97982 0.57839 0.90689 0.0
H729 H 0.99757 0.59646 0.93291 0.0
H730 H 0.96859 0.56073 0.97758 0.0
H731 H 0.95092 0.54249 0.9516 0.0
C732 C 0.9995 0.60378 0.00608 0.0
C733 C 0.02033 0.60435 0.00436 0.0
C734 C 0.98781 0.59633 0.99059 0.0
C735 C 0.99665 0.5896 0.97293 0.0
C736 C 0.01738 0.59105 0.97083 0.0
C737 C 0.02911 0.59823 0.98643 0.0
C738 C 0.97702 0.57454 0.92227 0.0
C739 C 0.96402 0.55892 0.92718 0.0
C740 C 0.98727 0.58483 0.93714 0.0
C741 C 0.98452 0.57994 0.95724 0.0
C742 C 0.97089 0.56491 0.96221 0.0
C743 C 0.96084 0.55442 0.94733 0.0
H744 H 0.85333 0.7948 0.21844 0.0
H745 H 0.87444 0.74335 0.25051 0.0
H746 H 0.84634 0.81153 0.24973 0.0
H747 H 0.86673 0.75974 0.28187 0.0
H748 H 0.86062 0.79709 0.33673 0.0
H749 H 0.87376 0.78537 0.30507 0.0
H750 H 0.82217 0.80915 0.275 0.0
H751 H 0.80948 0.82144 0.30647 0.0
C752 C 0.85656 0.78709 0.23221 0.0
C753 C 0.86428 0.76769 0.23201 0.0
C754 C 0.85243 0.79664 0.25017 0.0
C755 C 0.85569 0.78694 0.2684 0.0
C756 C 0.86421 0.7678 0.26818 0.0
C757 C 0.86856 0.75833 0.25017 0.0
C758 C 0.85226 0.80008 0.32329 0.0
C759 C 0.83396 0.81012 0.32414 0.0
C760 C 0.85972 0.79323 0.30515 0.0
C761 C 0.84898 0.79611 0.28743 0.0
C762 C 0.83104 0.80685 0.28824 0.0
C763 C 0.82368 0.81386 0.30635 0.0
H764 H 0.06243 0.9491 0.93026 0.0
H765 H 0.02541 0.90735 0.89853 0.0
H766 H 0.0506 0.93579 0.96167 0.0
H767 H 0.01413 0.89339 0.92999 0.0
H768 H 0.97866 0.89398 0.98903 0.0
H769 H 0.99297 0.9019 0.95669 0.0
H770 H 0.05064 0.90911 0.98415 0.0
H771 H 0.03608 0.90208 0.01648 0.0
C772 C 0.05206 0.9368 0.93 0.0
C773 C 0.04476 0.92939 0.9119 0.0
C774 C 0.04533 0.92904 0.94805 0.0
C775 C 0.0313 0.9135 0.94847 0.0
C776 C 0.02462 0.90559 0.9303 0.0
C777 C 0.0312 0.9135 0.91224 0.0
C778 C 0.99444 0.89696 0.98806 0.0
C779 C 0.0062 0.89763 0.00529 0.0
C780 C 0.00271 0.90144 0.9695 0.0
C781 C 0.02297 0.90644 0.96777 0.0
C782 C 0.0349 0.90588 0.98493 0.0
C783 C 0.02659 0.90169 0.00347 0.0
H784 H 0.24858 0.13122 0.23997 0.0
H785 H 0.28589 0.14581 0.29021 0.0
H786 H 0.2193 0.14018 0.25913 0.0
H787 H 0.2565 0.15436 0.30956 0.0
H788 H 0.2032 0.19667 0.32267 0.0
H789 H 0.23299 0.18158 0.30882 0.0
H790 H 0.19802 0.13235 0.28696 0.0
H791 H 0.16811 0.14768 0.30042 0.0
C792 C 0.25052 0.13597 0.25523 0.0
C793 C 0.26959 0.13801 0.26348 0.0
C794 C 0.23369 0.141 0.26629 0.0
C795 C 0.23555 0.14812 0.28586 0.0
C796 C 0.25458 0.14923 0.29442 0.0
C797 C 0.27142 0.14423 0.28335 0.0
C798 C 0.2019 0.18247 0.3152 0.0
C799 C 0.18324 0.17351 0.31242 0.0
C800 C 0.21902 0.17375 0.30733 0.0
C801 C 0.21786 0.15584 0.29659 0.0
C802 C 0.19936 0.14633 0.29483 0.0
C803 C 0.18223 0.15508 0.30264 0.0
H804 H 0.41082 0.57741 0.96635 0.0
H805 H 0.45361 0.54465 0.93153 0.0
H806 H 0.40063 0.54685 0.98269 0.0
H807 H 0.4428 0.51385 0.94721 0.0
H808 H 0.44113 0.47043 0.99912 0.0
H809 H 0.44734 0.49932 0.97862 0.0
H810 H 0.38518 0.51519 0.9819 0.0
H811 H 0.37912 0.4864 0.00328 0.0
C812 C 0.41771 0.56359 0.9618 0.0
C813 C 0.43321 0.56349 0.94781 0.0
C814 C 0.41179 0.54599 0.97114 0.0
C815 C 0.42108 0.52784 0.96654 0.0
C816 C 0.43568 0.52761 0.95155 0.0
C817 C 0.44178 0.54524 0.94241 0.0
C818 C 0.42872 0.47999 0.99542 0.0
C819 C 0.40963 0.47613 0.0029 0.0
C820 C 0.43226 0.49653 0.98345 0.0
C821 C 0.41676 0.50961 0.97839 0.0
C822 C 0.39753 0.50558 0.98564 0.0
C823 C 0.39402 0.48905 0.99783 0.0
H824 H 0.79478 0.29494 0.33559 0.0
H825 H 0.82937 0.31712 0.28626 0.0
H826 H 0.76527 0.31113 0.32201 0.0
H827 H 0.79992 0.33265 0.27242 0.0
H828 H 0.74614 0.36838 0.25599 0.0
H829 H 0.77522 0.35792 0.27507 0.0
H830 H 0.74351 0.30559 0.29458 0.0
H831 H 0.71444 0.31632 0.27615 0.0
C832 C 0.79613 0.30336 0.32194 0.0
C833 C 0.81441 0.30457 0.31195 0.0
C834 C 0.77919 0.31256 0.31408 0.0
C835 C 0.78014 0.32309 0.29601 0.0
C836 C 0.79862 0.32491 0.28647 0.0
C837 C 0.81553 0.31583 0.29437 0.0
C838 C 0.74534 0.35478 0.26457 0.0
C839 C 0.72802 0.34312 0.26442 0.0
C840 C 0.76203 0.34872 0.27543 0.0
C841 C 0.7618 0.33082 0.2863 0.0
C842 C 0.74421 0.31957 0.28665 0.0
C843 C 0.72753 0.32567 0.2759 0.0
H844 H 0.59665 0.91493 0.96338 0.0
H845 H 0.54832 0.95101 0.94129 0.0
H846 H 0.61118 0.94398 0.97926 0.0
H847 H 0.56285 0.98015 0.95745 0.0
H848 H 0.60148 0.03159 0.97945 0.0
H849 H 0.59153 0.00345 0.95873 0.0
H850 H 0.60127 0.96373 0.00822 0.0
H851 H 0.61134 0.9917 0.02883 0.0
C852 C 0.58921 0.92911 0.9617 0.0
C853 C 0.57118 0.93059 0.95123 0.0
C854 C 0.59752 0.94575 0.97091 0.0
C855 C 0.58804 0.96432 0.96987 0.0
C856 C 0.57058 0.96607 0.95847 0.0
C857 C 0.56222 0.94936 0.94925 0.0
C858 C 0.60177 0.01681 0.98583 0.0
C859 C 0.60717 0.0139 0.00584 0.0
C860 C 0.59592 1.00072 0.97398 0.0
C861 C 0.59555 0.98136 0.98182 0.0
C862 C 0.6016 0.97841 0.00163 0.0
C863 C 0.60729 0.99448 0.01349 0.0
H864 H 0.20096 0.80283 0.19049 0.0
H865 H 0.1715 0.85943 0.19769 0.0
H866 H 0.23084 0.8165 0.20604 0.0
H867 H 0.20155 0.87312 0.21294 0.0
H868 H 0.26798 0.8918 0.22562 0.0
H869 H 0.23992 0.87995 0.20549 0.0
H870 H 0.23477 0.82834 0.2432 0.0
H871 H 0.26233 0.8402 0.26347 0.0
C872 C 0.20102 0.81831 0.19494 0.0
C873 C 0.18385 0.83003 0.19301 0.0
C874 C 0.21807 0.82607 0.20394 0.0
C875 C 0.21838 0.84579 0.21081 0.0
C876 C 0.20168 0.85789 0.20772 0.0
C877 C 0.1845 0.85003 0.19905 0.0
C878 C 0.26077 0.87798 0.22964 0.0
C879 C 0.26731 0.86698 0.24618 0.0
C880 C 0.24478 0.87122 0.21812 0.0
C881 C 0.23539 0.85314 0.2227 0.0
C882 C 0.24194 0.84219 0.2392 0.0
C883 C 0.2576 0.8491 0.25091 0.0
H884 H 0.14606 0.48387 0.02817 0.0
H885 H 0.09399 0.486 0.99056 0.0
H886 H 0.13344 0.51236 0.04704 0.0
H887 H 0.08153 0.51423 0.00935 0.0
H888 H 0.05466 0.55102 0.05813 0.0
H889 H 0.06874 0.52089 0.04374 0.0
H890 H 0.12632 0.54899 0.04095 0.0
H891 H 0.1123 0.57919 0.05541 0.0
C892 C 0.13198 0.49042 0.0239 0.0
C893 C 0.12105 0.48267 0.00784 0.0
C894 C 0.12479 0.50671 0.03469 0.0
C895 C 0.10641 0.51537 0.0298 0.0
C896 C 0.09557 0.50766 0.0137 0.0
C897 C 0.10283 0.49158 0.00281 0.0
C898 C 0.0704 0.55069 0.05479 0.0
C899 C 0.08231 0.56759 0.05775 0.0
C900 C 0.07842 0.53347 0.04642 0.0
C901 C 0.09857 0.5327 0.04098 0.0
C902 C 0.11076 0.54915 0.04503 0.0
C903 C 0.10269 0.56646 0.05326 0.0
H904 H 0.80942 0.70972 0.20105 0.0
H905 H 0.83796 0.65219 0.20063 0.0
H906 H 0.77982 0.69483 0.21597 0.0
H907 H 0.80814 0.6373 0.21521 0.0
H908 H 0.7405 0.6193 0.2252 0.0
H909 H 0.76918 0.6326 0.207 0.0
H910 H 0.77637 0.67811 0.25161 0.0
H911 H 0.74817 0.66473 0.26997 0.0
C912 C 0.80923 0.69385 0.20376 0.0
C913 C 0.82605 0.68213 0.19978 0.0
C914 C 0.79235 0.68537 0.21239 0.0
C915 C 0.79182 0.66497 0.21683 0.0
C916 C 0.80819 0.65306 0.21187 0.0
C917 C 0.82524 0.6616 0.20359 0.0
C918 C 0.74833 0.63204 0.23117 0.0
C919 C 0.74211 0.64092 0.24904 0.0
C920 C 0.76468 0.63963 0.22077 0.0
C921 C 0.77478 0.65648 0.22784 0.0
C922 C 0.76866 0.66524 0.24574 0.0
C923 C 0.75263 0.65745 0.25632 0.0
H924 H 0.87336 0.03556 0.02312 0.0
H925 H 0.90701 0.01703 0.97167 0.0
H926 H 0.88573 0.00666 0.04152 0.0
H927 H 0.91944 0.98843 0.99012 0.0
H928 H 0.95674 0.95582 0.03666 0.0
H929 H 0.9427 0.98502 0.02036 0.0
H930 H 0.88408 0.96798 0.03989 0.0
H931 H 0.89805 0.93854 0.05611 0.0
C932 C 0.88321 0.02525 0.01568 0.0
C933 C 0.88922 0.02863 0.99594 0.0
C934 C 0.89028 0.00873 0.02622 0.0
C935 C 0.90373 0.99548 0.01731 0.0
C936 C 0.90931 0.99858 0.99744 0.0
C937 C 0.90204 0.01488 0.98683 0.0
C938 C 0.94089 0.9584 0.03775 0.0
C939 C 0.9285 0.94479 0.04761 0.0
C940 C 0.93285 0.97505 0.02827 0.0
C941 C 0.91228 0.97861 0.02867 0.0
C942 C 0.89998 0.96557 0.03935 0.0
C943 C 0.90799 0.94873 0.0486 0.0
H944 H 0.25335 0.26674 0.13042 0.0
H945 H 0.27637 0.29439 0.18364 0.0
H946 H 0.27218 0.23663 0.13805 0.0
H947 H 0.29454 0.26429 0.19157 0.0
H948 H 0.33462 0.21181 0.19731 0.0
H949 H 0.32118 0.24252 0.18344 0.0
H950 H 0.27011 0.21024 0.16161 0.0
H951 H 0.28383 0.1796 0.17481 0.0
C952 C 0.2625 0.26644 0.14367 0.0
C953 C 0.26324 0.28291 0.15648 0.0
C954 C 0.27322 0.24915 0.14811 0.0
C955 C 0.28483 0.24795 0.1655 0.0
C956 C 0.28603 0.26472 0.17791 0.0
C957 C 0.27543 0.28198 0.17343 0.0
C958 C 0.32068 0.21124 0.18929 0.0
C959 C 0.31023 0.19327 0.18735 0.0
C960 C 0.3129 0.22887 0.18143 0.0
C961 C 0.29444 0.22894 0.17156 0.0
C962 C 0.28446 0.21078 0.16889 0.0
C963 C 0.29228 0.19317 0.17662 0.0
H964 H 0.27662 0.83912 0.35541 0.0
H965 H 0.31698 0.80534 0.31865 0.0
H966 H 0.26498 0.80848 0.37079 0.0
H967 H 0.30496 0.77467 0.33364 0.0
H968 H 0.28652 0.72203 0.37001 0.0
H969 H 0.30223 0.75387 0.36273 0.0
H970 H 0.24439 0.78159 0.35953 0.0
H971 H 0.22876 0.74997 0.36727 0.0
C972 C 0.28316 0.82517 0.35075 0.0
C973 C 0.29756 0.82465 0.33564 0.0
C974 C 0.2764 0.80759 0.3595 0.0
C975 C 0.28382 0.78908 0.35328 0.0
C976 C 0.29902 0.78866 0.33893 0.0
C977 C 0.30586 0.80626 0.33025 0.0
C978 C 0.27717 0.735 0.36807 0.0
C979 C 0.25636 0.73341 0.36905 0.0
C980 C 0.28619 0.75322 0.36378 0.0
C981 C 0.27459 0.77027 0.36036 0.0
C982 C 0.25382 0.76884 0.36229 0.0
C983 C 0.24483 0.75065 0.36663 0.0
H984 H 0.01377 0.50657 0.86833 0.0
H985 H 0.97782 0.45584 0.88438 0.0
H986 H 0.04342 0.48892 0.87908 0.0
H987 H 0.0076 0.43799 0.89474 0.0
H988 H 0.05953 0.42965 0.94 0.0
H989 H 0.0299 0.44116 0.92276 0.0
H990 H 0.06612 0.46159 0.87386 0.0
H991 H 0.09586 0.45047 0.89133 0.0
C992 C 0.01223 0.49149 0.87375 0.0
C993 C 0.99339 0.48272 0.87572 0.0
C994 C 0.02927 0.4813 0.87983 0.0
C995 C 0.02789 0.46208 0.88795 0.0
C996 C 0.00915 0.4529 0.88887 0.0
C997 C 0.99209 0.46311 0.88283 0.0
C998 C 0.06117 0.43627 0.92542 0.0
C999 C 0.08009 0.43938 0.91717 0.0
C1000 C 0.04414 0.44279 0.91546 0.0
C1001 C 0.04565 0.45251 0.897 0.0
C1002 C 0.06448 0.4545 0.88822 0.0
C1003 C 0.08152 0.44802 0.8982 0.0
H1004 H 0.75014 0.76837 0.37842 0.0
H1005 H 0.74725 0.78827 0.31741 0.0
H1006 H 0.72759 0.74095 0.37037 0.0
H1007 H 0.7254 0.76089 0.30933 0.0
H1008 H 0.67702 0.71823 0.29953 0.0
H1009 H 0.69284 0.74762 0.31358 0.0
H1010 H 0.72835 0.71021 0.3519 0.0
H1011 H 0.71205 0.68092 0.33836 0.0
C1012 C 0.74468 0.76693 0.36334 0.0
C1013 C 0.75055 0.78047 0.34855 0.0
C1014 C 0.73181 0.75121 0.35871 0.0
C1015 C 0.72456 0.74875 0.33922 0.0
C1016 C 0.73028 0.76251 0.32459 0.0
C1017 C 0.74304 0.77815 0.3292 0.0
C1018 C 0.68789 0.71631 0.31125 0.0
C1019 C 0.69348 0.69722 0.31759 0.0
C1020 C 0.69708 0.73315 0.31922 0.0
C1021 C 0.7122 0.73128 0.33357 0.0
C1022 C 0.71674 0.71225 0.34093 0.0
C1023 C 0.70742 0.69541 0.33308 0.0
H1024 H 0.45362 0.57181 0.44715 0.0
H1025 H 0.41931 0.55194 0.3966 0.0
H1026 H 0.48347 0.55754 0.43245 0.0
H1027 H 0.44923 0.5381 0.38169 0.0
H1028 H 0.4996 0.49147 0.37763 0.0
H1029 H 0.47029 0.50989 0.38816 0.0
H1030 H 0.50749 0.55913 0.40591 0.0
H1031 H 0.53686 0.54052 0.3958 0.0
C1032 C 0.45251 0.56475 0.43272 0.0
C1033 C 0.43404 0.56285 0.42315 0.0
C1034 C 0.46965 0.55661 0.42424 0.0
C1035 C 0.46873 0.54648 0.40595 0.0
C1036 C 0.45041 0.54545 0.39596 0.0
C1037 C 0.43327 0.55352 0.40447 0.0
C1038 C 0.50152 0.50631 0.38356 0.0
C1039 C 0.52059 0.51445 0.386 0.0
C1040 C 0.48469 0.51694 0.38952 0.0
C1041 C 0.48652 0.53599 0.39799 0.0
C1042 C 0.50556 0.54439 0.39975 0.0
C1043 C 0.52239 0.53374 0.39383 0.0
H1044 H 0.21696 0.71295 0.67002 0.0
H1045 H 0.25015 0.7417 0.6232 0.0
H1046 H 0.19987 0.74386 0.677 0.0
H1047 H 0.23236 0.77263 0.62964 0.0
H1048 H 0.22355 0.82698 0.67104 0.0
H1049 H 0.23429 0.79651 0.65527 0.0
H1050 H 0.17745 0.76958 0.66832 0.0
H1051 H 0.16695 0.80008 0.68494 0.0
C1052 C 0.22028 0.72577 0.66087 0.0
C1053 C 0.23518 0.72495 0.64628 0.0
C1054 C 0.2103 0.74353 0.66477 0.0
C1055 C 0.21484 0.76088 0.65404 0.0
C1056 C 0.22878 0.75968 0.63849 0.0
C1057 C 0.23892 0.74192 0.63471 0.0
C1058 C 0.21318 0.8147 0.6703 0.0
C1059 C 0.19451 0.81587 0.67958 0.0
C1060 C 0.2193 0.79719 0.66105 0.0
C1061 C 0.20684 0.78043 0.66067 0.0
C1062 C 0.18759 0.78207 0.66871 0.0
C1063 C 0.18151 0.79959 0.67813 0.0
H1064 H 0.0823 0.54587 0.60913 0.0
H1065 H 0.0492 0.56794 0.55868 0.0
H1066 H 0.05153 0.53448 0.62438 0.0
H1067 H 0.01849 0.55613 0.57371 0.0
H1068 H 0.96424 0.54319 0.6103 0.0
H1069 H 0.99489 0.55971 0.60044 0.0
H1070 H 0.02841 0.50782 0.61802 0.0
H1071 H 0.99782 0.49148 0.62831 0.0
C1072 C 0.06844 0.54847 0.60137 0.0
C1073 C 0.06823 0.55767 0.58261 0.0
C1074 C 0.05081 0.54182 0.61007 0.0
C1075 C 0.03255 0.54418 0.60019 0.0
C1076 C 0.03225 0.55423 0.58184 0.0
C1077 C 0.04989 0.56094 0.57316 0.0
C1078 C 0.97818 0.53539 0.61231 0.0
C1079 C 0.97857 0.51595 0.61997 0.0
C1080 C 0.99574 0.54484 0.60654 0.0
C1081 C 0.01411 0.53505 0.60827 0.0
C1082 C 0.01456 0.5159 0.61667 0.0
C1083 C 0.99699 0.50647 0.6225 0.0
H1084 H 0.9284 0.95045 0.61726 0.0
H1085 H 0.96157 0.92807 0.56705 0.0
H1086 H 0.95907 0.96274 0.6321 0.0
H1087 H 0.99213 0.94078 0.58164 0.0
H1088 H 0.04651 0.95721 0.61634 0.0
H1089 H 0.01634 0.93897 0.60801 0.0
H1090 H 0.98106 0.98999 0.62463 0.0
H1091 H 0.01115 0.00802 0.63339 0.0
C1092 C 0.94226 0.94793 0.60949 0.0
C1093 C 0.9425 0.93846 0.59086 0.0
C1094 C 0.95983 0.9551 0.61795 0.0
C1095 C 0.97804 0.953 0.60796 0.0
C1096 C 0.97841 0.94253 0.58985 0.0
C1097 C 0.96084 0.9353 0.58142 0.0
C1098 C 0.03229 0.96443 0.61849 0.0
C1099 C 0.03125 0.98414 0.62537 0.0
C1100 C 0.015 0.954 0.61361 0.0
C1101 C 0.99627 0.96305 0.61547 0.0
C1102 C 0.9952 0.98245 0.62321 0.0
C1103 C 0.01249 0.99286 0.62814 0.0
H1104 H 0.69551 0.82146 0.69857 0.0
H1105 H 0.65146 0.78917 0.66478 0.0
H1106 H 0.68069 0.80949 0.72933 0.0
H1107 H 0.63629 0.77764 0.69556 0.0
H1108 H 0.63552 0.73851 0.75227 0.0
H1109 H 0.64481 0.75417 0.72101 0.0
H1110 H 0.65268 0.81023 0.75137 0.0
H1111 H 0.64389 0.79442 0.78274 0.0
C1112 C 0.68242 0.81213 0.69771 0.0
C1113 C 0.6748 0.80611 0.67922 0.0
C1114 C 0.67384 0.80533 0.71537 0.0
C1115 C 0.65737 0.79244 0.71495 0.0
C1116 C 0.64919 0.78722 0.69644 0.0
C1117 C 0.65782 0.79395 0.67879 0.0
C1118 C 0.63894 0.75424 0.75224 0.0
C1119 C 0.63914 0.76516 0.77004 0.0
C1120 C 0.6442 0.76327 0.73427 0.0
C1121 C 0.64967 0.78346 0.73366 0.0
C1122 C 0.64893 0.79458 0.75134 0.0
C1123 C 0.64376 0.78553 0.76932 0.0
H1124 H 0.03677 0.10177 0.48218 0.0
H1125 H 0.98329 0.11527 0.51494 0.0
H1126 H 0.05338 0.09247 0.51294 0.0
H1127 H 0.99966 0.10526 0.54571 0.0
H1128 H 0.03756 0.09756 0.60041 0.0
H1129 H 0.02443 0.11215 0.56996 0.0
H1130 H 0.05263 0.06569 0.53571 0.0
H1131 H 0.06631 0.05157 0.56608 0.0
C1132 C 0.02857 0.10282 0.496 0.0
C1133 C 0.00867 0.10913 0.49612 0.0
C1134 C 0.03807 0.09735 0.51364 0.0
C1135 C 0.02783 0.09784 0.53184 0.0
C1136 C 0.00811 0.10487 0.53203 0.0
C1137 C 0.99867 0.11055 0.51437 0.0
C1138 C 0.04114 0.0906 0.58634 0.0
C1139 C 0.05292 0.07335 0.58568 0.0
C1140 C 0.03349 0.09889 0.56888 0.0
C1141 C 0.0373 0.09005 0.55033 0.0
C1142 C 0.04958 0.07311 0.54966 0.0
C1143 C 0.05737 0.06492 0.56711 0.0
H1144 H 0.3124 0.76047 0.78419 0.0
H1145 H 0.37372 0.74591 0.77199 0.0
H1146 H 0.30245 0.74407 0.75326 0.0
H1147 H 0.36376 0.72956 0.74127 0.0
H1148 H 0.34022 0.72415 0.67721 0.0
H1149 H 0.34997 0.73935 0.70858 0.0
H1150 H 0.30144 0.70966 0.73818 0.0
H1151 H 0.29156 0.6944 0.70662 0.0
C1152 C 0.32375 0.75383 0.77492 0.0
C1153 C 0.34387 0.75454 0.78056 0.0
C1154 C 0.31803 0.7443 0.75729 0.0
C1155 C 0.33232 0.73549 0.74484 0.0
C1156 C 0.35241 0.73635 0.75044 0.0
C1157 C 0.35811 0.74569 0.7681 0.0
C1158 C 0.33169 0.72071 0.69041 0.0
C1159 C 0.31513 0.70803 0.6894 0.0
C1160 C 0.33733 0.72939 0.70842 0.0
C1161 C 0.32645 0.72576 0.72586 0.0
C1162 C 0.30999 0.7129 0.72494 0.0
C1163 C 0.30446 0.70402 0.70692 0.0
H1164 H 0.95897 0.3903 0.48521 0.0
H1165 H 0.01188 0.37424 0.5178 0.0
H1166 H 0.94323 0.40103 0.51598 0.0
H1167 H 0.99657 0.38574 0.54844 0.0
H1168 H 0.96268 0.40076 0.60334 0.0
H1169 H 0.97239 0.38254 0.5736 0.0
H1170 H 0.94661 0.42875 0.53708 0.0
H1171 H 0.93621 0.44644 0.5668 0.0
C1172 C 0.96716 0.38888 0.499 0.0
C1173 C 0.98672 0.38161 0.49908 0.0
C1174 C 0.9582 0.39517 0.51663 0.0
C1175 C 0.96871 0.39461 0.53471 0.0
C1176 C 0.9879 0.38625 0.53489 0.0
C1177 C 0.99676 0.37971 0.51728 0.0
C1178 C 0.95886 0.40686 0.58894 0.0
C1179 C 0.94882 0.42511 0.5874 0.0
C1180 C 0.96452 0.39647 0.57187 0.0
C1181 C 0.96049 0.40421 0.55287 0.0
C1182 C 0.94975 0.42213 0.55141 0.0
C1183 C 0.94388 0.43239 0.56848 0.0
H1184 H 0.6306 0.21551 0.718 0.0
H1185 H 0.62412 0.26824 0.75411 0.0
H1186 H 0.64401 0.19761 0.74654 0.0
H1187 H 0.63726 0.25022 0.78269 0.0
H1188 H 0.68834 0.22213 0.81775 0.0
H1189 H 0.67065 0.2381 0.79069 0.0
H1190 H 0.63744 0.18418 0.78028 0.0
H1191 H 0.6554 0.16793 0.80749 0.0
C1192 C 0.6317 0.2232 0.7321 0.0
C1193 C 0.6265 0.2434 0.7337 0.0
C1194 C 0.63932 0.21288 0.74849 0.0
C1195 C 0.64196 0.22256 0.7668 0.0
C1196 C 0.63575 0.24245 0.76866 0.0
C1197 C 0.62809 0.25274 0.75231 0.0
C1198 C 0.67729 0.21358 0.80974 0.0
C1199 C 0.67331 0.1937 0.81483 0.0
C1200 C 0.667 0.22285 0.79431 0.0
C1201 C 0.65246 0.2125 0.78347 0.0
C1202 C 0.64859 0.19253 0.78834 0.0
C1203 C 0.65886 0.18324 0.80393 0.0
H1204 H 0.48057 0.09653 0.41589 0.0
H1205 H 0.43422 0.06343 0.44551 0.0
H1206 H 0.49368 0.10696 0.44795 0.0
H1207 H 0.44711 0.07428 0.47763 0.0
H1208 H 0.49459 0.07034 0.52686 0.0
H1209 H 0.47664 0.0653 0.49603 0.0
H1210 H 0.48917 0.12583 0.47864 0.0
H1211 H 0.50763 0.13083 0.50965 0.0
C1212 C 0.47292 0.09179 0.42923 0.0
C1213 C 0.45651 0.0789 0.42813 0.0
C1214 C 0.48039 0.09789 0.44764 0.0
C1215 C 0.47161 0.09126 0.46538 0.0
C1216 C 0.45446 0.07935 0.46424 0.0
C1217 C 0.44699 0.07322 0.44582 0.0
C1218 C 0.49346 0.08267 0.51657 0.0
C1219 C 0.50268 0.10096 0.52068 0.0
C1220 C 0.48296 0.07982 0.49892 0.0
C1221 C 0.48137 0.09518 0.48486 0.0
C1222 C 0.49025 0.11365 0.48911 0.0
C1223 C 0.50076 0.11653 0.50688 0.0
H1224 H 0.36512 0.30162 0.71917 0.0
H1225 H 0.38099 0.24745 0.74981 0.0
H1226 H 0.35727 0.31726 0.75091 0.0
H1227 H 0.37255 0.26278 0.78136 0.0
H1228 H 0.36468 0.29621 0.83766 0.0
H1229 H 0.37977 0.28678 0.80614 0.0
H1230 H 0.33113 0.31456 0.77463 0.0
H1231 H 0.31647 0.32458 0.80614 0.0
C1232 C 0.36713 0.29311 0.73269 0.0
C1233 C 0.37352 0.27323 0.73194 0.0
C1234 C 0.3625 0.30204 0.75088 0.0
C1235 C 0.36404 0.29125 0.76873 0.0
C1236 C 0.37138 0.27167 0.768 0.0
C1237 C 0.37614 0.2628 0.74984 0.0
C1238 C 0.35739 0.30058 0.82398 0.0
C1239 C 0.33928 0.31097 0.82439 0.0
C1240 C 0.36598 0.29507 0.8059 0.0
C1241 C 0.35656 0.29964 0.7878 0.0
C1242 C 0.33895 0.31093 0.78823 0.0
C1243 C 0.33045 0.31661 0.80633 0.0
H1244 H 0.54783 0.41748 0.41965 0.0
H1245 H 0.56089 0.46848 0.45644 0.0
H1246 H 0.53484 0.39993 0.44866 0.0
H1247 H 0.54778 0.45104 0.48528 0.0
H1248 H 0.48751 0.39102 0.49933 0.0
H1249 H 0.50516 0.4034 0.47015 0.0
H1250 H 0.55349 0.42286 0.50767 0.0
H1251 H 0.53582 0.41073 0.53681 0.0
C1252 C 0.54816 0.42486 0.43395 0.0
C1253 C 0.55532 0.44443 0.43571 0.0
C1254 C 0.54059 0.41484 0.45054 0.0
C1255 C 0.5402 0.4241 0.46926 0.0
C1256 C 0.54806 0.44338 0.47112 0.0
C1257 C 0.55549 0.45344 0.45455 0.0
C1258 C 0.50204 0.39765 0.50132 0.0
C1259 C 0.51013 0.40008 0.52044 0.0
C1260 C 0.5122 0.40468 0.48458 0.0
C1261 C 0.53064 0.41432 0.48662 0.0
C1262 C 0.53916 0.41582 0.50563 0.0
C1263 C 0.52905 0.40876 0.52233 0.0
H1264 H 0.66922 0.66621 0.77339 0.0
H1265 H 0.70107 0.69784 0.81935 0.0
H1266 H 0.69995 0.65084 0.76252 0.0
H1267 H 0.73198 0.68198 0.8087 0.0
H1268 H 0.78359 0.67295 0.7636 0.0
H1269 H 0.75379 0.68466 0.78025 0.0
H1270 H 0.72595 0.6276 0.77058 0.0
H1271 H 0.75569 0.616 0.75339 0.0
C1272 C 0.68276 0.66969 0.78138 0.0
C1273 C 0.68272 0.68341 0.79713 0.0
C1274 C 0.7004 0.66071 0.77523 0.0
C1275 C 0.71846 0.66517 0.78471 0.0
C1276 C 0.71834 0.6784 0.80092 0.0
C1277 C 0.70064 0.68742 0.80709 0.0
C1278 C 0.77121 0.66279 0.76519 0.0
C1279 C 0.77194 0.6436 0.75693 0.0
C1280 C 0.75415 0.66948 0.7749 0.0
C1281 C 0.73741 0.65713 0.77665 0.0
C1282 C 0.73847 0.63761 0.76919 0.0
C1283 C 0.75555 0.63092 0.75942 0.0
H1284 H 0.86969 0.98087 0.48623 0.0
H1285 H 0.92278 0.98419 0.52227 0.0
H1286 H 0.87965 0.01143 0.46895 0.0
H1287 H 0.93275 0.0143 0.50481 0.0
H1288 H 0.95459 0.05461 0.45517 0.0
H1289 H 0.94273 0.0228 0.46806 0.0
H1290 H 0.88548 0.04895 0.48023 0.0
H1291 H 0.89736 0.08092 0.4676 0.0
C1292 C 0.88345 0.98809 0.49044 0.0
C1293 C 0.89542 0.98017 0.50565 0.0
C1294 C 0.88911 0.00553 0.48057 0.0
C1295 C 0.90704 0.01504 0.48545 0.0
C1296 C 0.91898 0.0071 0.5006 0.0
C1297 C 0.91317 0.98995 0.5107 0.0
C1298 C 0.93936 0.05351 0.46024 0.0
C1299 C 0.92695 0.07031 0.46051 0.0
C1300 C 0.93263 0.03534 0.46771 0.0
C1301 C 0.91326 0.03353 0.47526 0.0
C1302 C 0.90046 0.04997 0.47443 0.0
C1303 C 0.90729 0.06825 0.46727 0.0
H1304 H 0.25794 0.8647 0.76146 0.0
H1305 H 0.23494 0.80556 0.75142 0.0
H1306 H 0.27991 0.85152 0.78748 0.0
H1307 H 0.25663 0.79265 0.77729 0.0
H1308 H 0.26962 0.79023 0.8458 0.0
H1309 H 0.25377 0.8006 0.81495 0.0
H1310 H 0.30939 0.82493 0.79432 0.0
H1311 H 0.32551 0.8141 0.82539 0.0
C1312 C 0.25777 0.84891 0.76457 0.0
C1313 C 0.24446 0.83625 0.75456 0.0
C1314 C 0.27042 0.84136 0.77935 0.0
C1315 C 0.26984 0.8211 0.78443 0.0
C1316 C 0.25726 0.80835 0.77375 0.0
C1317 C 0.2448 0.81581 0.75895 0.0
C1318 C 0.27857 0.79748 0.83455 0.0
C1319 C 0.29878 0.80129 0.83791 0.0
C1320 C 0.26951 0.80338 0.81688 0.0
C1321 C 0.28036 0.81358 0.80229 0.0
C1322 C 0.30072 0.81712 0.8054 0.0
C1323 C 0.30994 0.8108 0.82304 0.0
H1324 H 0.11664 0.50264 0.51467 0.0
H1325 H 0.07305 0.53529 0.48059 0.0
H1326 H 0.1073 0.47218 0.49716 0.0
H1327 H 0.06348 0.50498 0.46354 0.0
H1328 H 0.05827 0.44949 0.4263 0.0
H1329 H 0.0734 0.47948 0.4402 0.0
H1330 H 0.07876 0.45035 0.49719 0.0
H1331 H 0.06418 0.42045 0.48332 0.0
C1332 C 0.10517 0.50335 0.50339 0.0
C1333 C 0.09548 0.52135 0.49916 0.0
C1334 C 0.09975 0.48589 0.49341 0.0
C1335 C 0.08456 0.48611 0.479 0.0
C1336 C 0.07539 0.50428 0.47435 0.0
C1337 C 0.08078 0.52166 0.4843 0.0
C1338 C 0.06286 0.44945 0.44174 0.0
C1339 C 0.05986 0.43261 0.45371 0.0
C1340 C 0.07146 0.46665 0.44973 0.0
C1341 C 0.07725 0.46735 0.46984 0.0
C1342 C 0.07476 0.45028 0.4816 0.0
C1343 C 0.0662 0.43315 0.47364 0.0
H1344 H 0.77136 0.35922 0.72129 0.0
H1345 H 0.74081 0.37066 0.77657 0.0
H1346 H 0.74 0.34988 0.7058 0.0
H1347 H 0.70953 0.36078 0.76126 0.0
H1348 H 0.65345 0.35541 0.72553 0.0
H1349 H 0.68465 0.36931 0.73742 0.0
H1350 H 0.71685 0.32286 0.70692 0.0
H1351 H 0.6856 0.30931 0.69453 0.0
C1352 C 0.75793 0.35984 0.73013 0.0
C1353 C 0.75861 0.36562 0.75021 0.0
C1354 C 0.73995 0.35434 0.72126 0.0
C1355 C 0.72221 0.35442 0.73228 0.0
C1356 C 0.72283 0.36077 0.75222 0.0
C1357 C 0.7408 0.36636 0.76106 0.0
C1358 C 0.66721 0.34829 0.72117 0.0
C1359 C 0.66703 0.33117 0.70918 0.0
C1360 C 0.68511 0.35619 0.72811 0.0
C1361 C 0.7033 0.34711 0.72335 0.0
C1362 C 0.70316 0.33039 0.71075 0.0
C1363 C 0.68523 0.32255 0.70368 0.0
H1364 H 0.60221 1.00075 0.4847 0.0
H1365 H 0.6417 0.98378 0.5325 0.0
H1366 H 0.5895 0.02796 0.50487 0.0
H1367 H 0.62902 0.01143 0.55262 0.0
H1368 H 0.61266 0.07982 0.56722 0.0
H1369 H 0.62755 0.05115 0.5504 0.0
H1370 H 0.56905 0.02805 0.53798 0.0
H1371 H 0.55414 0.05638 0.55489 0.0
C1372 C 0.60837 0.00296 0.49942 0.0
C1373 C 0.62293 0.99003 0.50702 0.0
C1374 C 0.60096 0.01846 0.51101 0.0
C1375 C 0.60812 0.0216 0.53036 0.0
C1376 C 0.62324 0.00925 0.53775 0.0
C1377 C 0.63047 0.99347 0.52623 0.0
C1378 C 0.603 0.06844 0.56122 0.0
C1379 C 0.58222 0.07046 0.56227 0.0
C1380 C 0.61153 0.05205 0.55164 0.0
C1381 C 0.59942 0.0376 0.5427 0.0
C1382 C 0.5787 0.03915 0.54455 0.0
C1383 C 0.57018 0.05532 0.55435 0.0
H1384 H 0.31172 0.17517 0.66285 0.0
H1385 H 0.3283 0.19877 0.72028 0.0
H1386 H 0.2843 0.15698 0.67842 0.0
H1387 H 0.30103 0.18092 0.7356 0.0
H1388 H 0.26129 0.1349 0.76169 0.0
H1389 H 0.29018 0.14718 0.74361 0.0
H1390 H 0.25231 0.16477 0.69482 0.0
H1391 H 0.22346 0.15221 0.71271 0.0
C1392 C 0.30955 0.17647 0.67875 0.0
C1393 C 0.3222 0.18846 0.69029 0.0
C1394 C 0.29384 0.16609 0.68765 0.0
C1395 C 0.29059 0.16737 0.70828 0.0
C1396 C 0.30334 0.17927 0.71975 0.0
C1397 C 0.31889 0.18968 0.71089 0.0
C1398 C 0.25915 0.14107 0.74697 0.0
C1399 C 0.24002 0.1428 0.73876 0.0
C1400 C 0.2757 0.14822 0.73666 0.0
C1401 C 0.2735 0.15722 0.7179 0.0
C1402 C 0.25453 0.15786 0.70919 0.0
C1403 C 0.23797 0.15075 0.71952 0.0
H1404 H 0.39064 0.43197 0.56042 0.0
H1405 H 0.44998 0.45241 0.54686 0.0
H1406 H 0.37689 0.46209 0.54517 0.0
H1407 H 0.43619 0.48218 0.53147 0.0
H1408 H 0.40331 0.51566 0.48197 0.0
H1409 H 0.41453 0.48597 0.49941 0.0
H1410 H 0.37804 0.50144 0.54978 0.0
H1411 H 0.3669 0.53152 0.53244 0.0
C1412 C 0.40074 0.44297 0.55442 0.0
C1413 C 0.4214 0.43974 0.55477 0.0
C1414 C 0.39286 0.46018 0.54572 0.0
C1415 C 0.40549 0.47427 0.53694 0.0
C1416 C 0.42613 0.47139 0.53792 0.0
C1417 C 0.43401 0.4544 0.54687 0.0
C1418 C 0.39744 0.51268 0.49665 0.0
C1419 C 0.38427 0.52603 0.50585 0.0
C1420 C 0.404 0.49574 0.50668 0.0
C1421 C 0.39733 0.49158 0.52601 0.0
C1422 C 0.38342 0.50436 0.53489 0.0
C1423 C 0.37707 0.52154 0.52496 0.0
H1424 H 0.78274 0.67011 0.66038 0.0
H1425 H 0.82548 0.70697 0.69099 0.0
H1426 H 0.77021 0.69912 0.64277 0.0
H1427 H 0.81253 0.73616 0.67381 0.0
H1428 H 0.73434 0.75743 0.64133 0.0
H1429 H 0.75043 0.72702 0.65221 0.0
H1430 H 0.80796 0.75403 0.64305 0.0
H1431 H 0.79177 0.78478 0.63264 0.0
C1432 C 0.78957 0.68441 0.66324 0.0
C1433 C 0.80495 0.68629 0.67724 0.0
C1434 C 0.78231 0.70106 0.65321 0.0
C1435 C 0.79014 0.72004 0.65707 0.0
C1436 C 0.80624 0.72176 0.67034 0.0
C1437 C 0.81362 0.70504 0.68027 0.0
C1438 C 0.75042 0.75684 0.64138 0.0
C1439 C 0.76175 0.77361 0.63626 0.0
C1440 C 0.75969 0.73932 0.64751 0.0
C1441 C 0.78053 0.73807 0.64859 0.0
C1442 C 0.79188 0.75458 0.64269 0.0
C1443 C 0.7826 0.77217 0.63659 0.0
H1444 H 0.80893 0.31128 0.81524 0.0
H1445 H 0.77634 0.34243 0.86093 0.0
H1446 H 0.79904 0.27967 0.82968 0.0
H1447 H 0.76698 0.31078 0.87583 0.0
H1448 H 0.72965 0.25297 0.87485 0.0
H1449 H 0.74441 0.285 0.86726 0.0
H1450 H 0.8009 0.25645 0.8564 0.0
H1451 H 0.78589 0.22421 0.86339 0.0
C1452 C 0.80002 0.31139 0.82864 0.0
C1453 C 0.7932 0.32937 0.83678 0.0
C1454 C 0.79442 0.29323 0.83702 0.0
C1455 C 0.78202 0.29262 0.85385 0.0
C1456 C 0.77619 0.31067 0.86264 0.0
C1457 C 0.78165 0.32883 0.85416 0.0
C1458 C 0.7453 0.25352 0.87116 0.0
C1459 C 0.75652 0.23599 0.86949 0.0
C1460 C 0.75383 0.27196 0.8669 0.0
C1461 C 0.77384 0.27334 0.86102 0.0
C1462 C 0.78536 0.2559 0.8605 0.0
C1463 C 0.77678 0.23742 0.86464 0.0
H1464 H 0.55833 0.9423 0.44085 0.0
H1465 H 0.5902 0.97426 0.39519 0.0
H1466 H 0.52695 0.95344 0.42666 0.0
H1467 H 0.5588 0.98497 0.38069 0.0
H1468 H 0.50178 0.02346 0.3813 0.0
H1469 H 0.53343 0.00833 0.39005 0.0
H1470 H 0.50412 0.9519 0.39905 0.0
H1471 H 0.47232 0.96718 0.39076 0.0
C1472 C 0.55864 0.95138 0.42755 0.0
C1473 C 0.57677 0.95758 0.41929 0.0
C1474 C 0.54062 0.9577 0.41934 0.0
C1475 C 0.54034 0.97028 0.40263 0.0
C1476 C 0.55849 0.97562 0.39379 0.0
C1477 C 0.57649 0.96938 0.40204 0.0
C1478 C 0.5021 0.00776 0.38488 0.0
C1479 C 0.48449 0.99658 0.3855 0.0
C1480 C 0.52029 0.99904 0.38981 0.0
C1481 C 0.52132 0.9789 0.39538 0.0
C1482 C 0.50381 0.96752 0.39515 0.0
C1483 C 0.4856 0.97626 0.39029 0.0
H1484 H 0.25876 0.26398 0.87478 0.0
H1485 H 0.24928 0.28984 0.81675 0.0
H1486 H 0.2387 0.23527 0.86514 0.0
H1487 H 0.22996 0.26108 0.80694 0.0
H1488 H 0.18449 0.21424 0.79687 0.0
H1489 H 0.19961 0.24383 0.81129 0.0
H1490 H 0.24069 0.20684 0.84406 0.0
H1491 H 0.22508 0.17732 0.83025 0.0
C1492 C 0.25242 0.26354 0.85999 0.0
C1493 C 0.25566 0.27918 0.84653 0.0
C1494 C 0.24098 0.24705 0.85442 0.0
C1495 C 0.23263 0.24582 0.83525 0.0
C1496 C 0.23575 0.26163 0.82194 0.0
C1497 C 0.24704 0.2781 0.82753 0.0
C1498 C 0.19654 0.21243 0.80739 0.0
C1499 C 0.20368 0.19343 0.81225 0.0
C1500 C 0.20533 0.22941 0.81556 0.0
C1501 C 0.2216 0.22779 0.82863 0.0
C1502 C 0.2281 0.20872 0.8342 0.0
C1503 C 0.21919 0.19175 0.82618 0.0
H1504 H 0.00275 0.99356 0.86547 0.0
H1505 H 0.03895 0.04292 0.88488 0.0
H1506 H 0.97296 0.01166 0.87515 0.0
H1507 H 0.00912 0.06124 0.89408 0.0
H1508 H 0.95441 0.0731 0.93424 0.0
H1509 H 0.98468 0.05937 0.91996 0.0
H1510 H 0.95151 0.03942 0.86868 0.0
H1511 H 0.92114 0.05269 0.88322 0.0
C1512 C 0.00434 0.00842 0.87145 0.0
C1513 C 0.02325 0.01671 0.87455 0.0
C1514 C 0.98723 0.01887 0.87693 0.0
C1515 C 0.98861 0.03789 0.88555 0.0
C1516 C 0.00751 0.0465 0.88784 0.0
C1517 C 0.02461 0.03602 0.88244 0.0
C1518 C 0.95362 0.06605 0.91978 0.0
C1519 C 0.93531 0.06383 0.90997 0.0
C1520 C 0.97101 0.05823 0.91153 0.0
C1521 C 0.97053 0.0481 0.89322 0.0
C1522 C 0.95237 0.04677 0.88298 0.0
C1523 C 0.93497 0.05451 0.89127 0.0
H1524 H 0.74797 0.24043 0.12501 0.0
H1525 H 0.73111 0.20916 0.17849 0.0
H1526 H 0.72785 0.26886 0.13539 0.0
H1527 H 0.7117 0.23756 0.18911 0.0
H1528 H 0.66787 0.28574 0.19991 0.0
H1529 H 0.68285 0.25701 0.18371 0.0
H1530 H 0.72892 0.29471 0.15964 0.0
H1531 H 0.71354 0.32344 0.17519 0.0
C1532 C 0.73994 0.23959 0.13893 0.0
C1533 C 0.74122 0.22255 0.15094 0.0
C1534 C 0.72848 0.25592 0.14494 0.0
C1535 C 0.71811 0.25557 0.16312 0.0
C1536 C 0.71912 0.23831 0.17486 0.0
C1537 C 0.73045 0.22202 0.16882 0.0
C1538 C 0.68101 0.28793 0.1909 0.0
C1539 C 0.68959 0.30687 0.18903 0.0
C1540 C 0.6897 0.27143 0.18171 0.0
C1541 C 0.7073 0.27343 0.17057 0.0
C1542 C 0.7153 0.29256 0.16792 0.0
C1543 C 0.70652 0.30907 0.17697 0.0
H1544 H 0.54572 0.07475 0.05718 0.0
H1545 H 0.57994 0.03443 0.09364 0.0
H1546 H 0.51511 0.06073 0.07048 0.0
H1547 H 0.54945 0.01988 0.10631 0.0
H1548 H 0.49086 0.00281 0.13388 0.0
H1549 H 0.52004 0.02278 0.12564 0.0
H1550 H 0.49757 0.03066 0.06593 0.0
H1551 H 0.4683 0.01148 0.07435 0.0
C1552 C 0.54671 0.06299 0.06814 0.0
C1553 C 0.56525 0.05558 0.0742 0.0
C1554 C 0.52916 0.05485 0.07567 0.0
C1555 C 0.52975 0.03894 0.08927 0.0
C1556 C 0.54835 0.03221 0.09603 0.0
C1557 C 0.56589 0.04051 0.08865 0.0
C1558 C 0.49212 0.00899 0.11906 0.0
C1559 C 0.4773 0.0055 0.10476 0.0
C1560 C 0.50887 0.02036 0.11431 0.0
C1561 C 0.51122 0.02836 0.0951 0.0
C1562 C 0.49616 0.02512 0.08097 0.0
C1563 C 0.4794 0.01392 0.08577 0.0
H1564 H 0.54043 0.47201 0.10411 0.0
H1565 H 0.50805 0.51378 0.14052 0.0
H1566 H 0.50937 0.4572 0.09326 0.0
H1567 H 0.47688 0.49835 0.13041 0.0
H1568 H 0.42735 0.48737 0.08511 0.0
H1569 H 0.45745 0.49844 0.10143 0.0
H1570 H 0.48048 0.43845 0.09981 0.0
H1571 H 0.45044 0.42751 0.08256 0.0
C1572 C 0.52667 0.47772 0.1102 0.0
C1573 C 0.52669 0.49425 0.12298 0.0
C1574 C 0.5088 0.46913 0.10405 0.0
C1575 C 0.49051 0.4767 0.11073 0.0
C1576 C 0.49063 0.49243 0.12454 0.0
C1577 C 0.50851 0.5012 0.13048 0.0
C1578 C 0.43875 0.47647 0.08835 0.0
C1579 C 0.43654 0.45657 0.08242 0.0
C1580 C 0.45601 0.4828 0.09792 0.0
C1581 C 0.47148 0.46937 0.10205 0.0
C1582 C 0.46902 0.44929 0.09663 0.0
C1583 C 0.45177 0.44298 0.08682 0.0
H1584 H 0.11543 0.29303 0.34341 0.0
H1585 H 0.12943 0.24986 0.38883 0.0
H1586 H 0.10597 0.31691 0.36892 0.0
H1587 H 0.11955 0.27384 0.41454 0.0
H1588 H 0.06609 0.31358 0.4421 0.0
H1589 H 0.08448 0.28933 0.42227 0.0
H1590 H 0.12084 0.33642 0.39836 0.0
H1591 H 0.10267 0.36066 0.41818 0.0
C1592 C 0.11671 0.28876 0.35889 0.0
C1593 C 0.12308 0.26961 0.36417 0.0
C1594 C 0.11142 0.30246 0.37349 0.0
C1595 C 0.11207 0.2972 0.39368 0.0
C1596 C 0.11894 0.27822 0.39906 0.0
C1597 C 0.12465 0.26459 0.38439 0.0
C1598 C 0.07831 0.31871 0.43298 0.0
C1599 C 0.08269 0.33909 0.43146 0.0
C1600 C 0.0889 0.30481 0.42172 0.0
C1601 C 0.10391 0.31108 0.40865 0.0
C1602 C 0.10919 0.33125 0.40819 0.0
C1603 C 0.09877 0.34511 0.41957 0.0
H1604 H 0.6226 0.64651 0.84882 0.0
H1605 H 0.57659 0.68872 0.83379 0.0
H1606 H 0.59811 0.62558 0.86528 0.0
H1607 H 0.55217 0.66803 0.8507 0.0
H1608 H 0.50961 0.62256 0.87445 0.0
H1609 H 0.53394 0.63705 0.85182 0.0
H1610 H 0.57989 0.62826 0.89585 0.0
H1611 H 0.55576 0.61341 0.9182 0.0
C1612 C 0.60722 0.65124 0.84887 0.0
C1613 C 0.60158 0.66939 0.84018 0.0
C1614 C 0.59319 0.63927 0.85839 0.0
C1615 C 0.5732 0.64521 0.85954 0.0
C1616 C 0.56739 0.66289 0.84996 0.0
C1617 C 0.58142 0.67482 0.84034 0.0
C1618 C 0.52498 0.6234 0.87915 0.0
C1619 C 0.5307 0.61698 0.89822 0.0
C1620 C 0.5389 0.63183 0.86622 0.0
C1621 C 0.55884 0.634 0.87207 0.0
C1622 C 0.56471 0.62665 0.89075 0.0
C1623 C 0.55082 0.61821 0.90364 0.0
H1624 H 0.87523 0.21719 0.3458 0.0
H1625 H 0.88358 0.25814 0.39457 0.0
H1626 H 0.88572 0.18989 0.36686 0.0
H1627 H 0.89344 0.23058 0.416 0.0
H1628 H 0.93859 0.1821 0.43578 0.0
H1629 H 0.92168 0.2097 0.41959 0.0
H1630 H 0.87931 0.16872 0.394 0.0
H1631 H 0.89676 0.14108 0.40956 0.0
C1632 C 0.87888 0.22032 0.36117 0.0
C1633 C 0.87876 0.23991 0.36842 0.0
C1634 C 0.8848 0.20458 0.37335 0.0
C1635 C 0.89059 0.20797 0.39317 0.0
C1636 C 0.88945 0.22745 0.40072 0.0
C1637 C 0.88365 0.24325 0.38847 0.0
C1638 C 0.92547 0.17903 0.42695 0.0
C1639 C 0.91917 0.15939 0.42373 0.0
C1640 C 0.91568 0.19489 0.41772 0.0
C1641 C 0.89922 0.19148 0.40524 0.0
C1642 C 0.89221 0.1719 0.40309 0.0
C1643 C 0.90214 0.15604 0.41212 0.0
H1644 H 0.45564 0.8575 0.93022 0.0
H1645 H 0.48633 0.87466 0.87656 0.0
H1646 H 0.42601 0.84991 0.91098 0.0
H1647 H 0.4564 0.86665 0.85704 0.0
H1648 H 0.40768 0.81728 0.83626 0.0
H1649 H 0.4373 0.83297 0.85036 0.0
H1650 H 0.40029 0.86786 0.88938 0.0
H1651 H 0.37073 0.85236 0.87535 0.0
C1652 C 0.456 0.85977 0.91428 0.0
C1653 C 0.47331 0.8666 0.90487 0.0
C1654 C 0.43896 0.85556 0.90328 0.0
C1655 C 0.43887 0.85777 0.88253 0.0
C1656 C 0.4561 0.86484 0.87303 0.0
C1657 C 0.47314 0.86948 0.88417 0.0
C1658 C 0.40582 0.82865 0.84749 0.0
C1659 C 0.38683 0.83332 0.85489 0.0
C1660 C 0.4228 0.83769 0.8555 0.0
C1661 C 0.42107 0.85144 0.87113 0.0
C1662 C 0.40204 0.85713 0.8775 0.0
C1663 C 0.38511 0.84825 0.86941 0.0
H1664 H 0.12796 0.72772 0.14783 0.0
H1665 H 0.1152 0.76948 0.10069 0.0
H1666 H 0.11253 0.70125 0.12847 0.0
H1667 H 0.10001 0.74293 0.08127 0.0
H1668 H 0.04829 0.69825 0.0704 0.0
H1669 H 0.069 0.72416 0.08485 0.0
H1670 H 0.11428 0.68067 0.09825 0.0
H1671 H 0.09344 0.65462 0.08396 0.0
C1672 C 0.12221 0.73119 0.13319 0.0
C1673 C 0.12264 0.75077 0.12591 0.0
C1674 C 0.11343 0.71598 0.12205 0.0
C1675 C 0.10487 0.72002 0.1034 0.0
C1676 C 0.10619 0.7394 0.09571 0.0
C1677 C 0.11501 0.75459 0.10682 0.0
C1678 C 0.06276 0.69422 0.07619 0.0
C1679 C 0.06912 0.67433 0.07615 0.0
C1680 C 0.0747 0.70911 0.08438 0.0
C1681 C 0.09327 0.70447 0.09279 0.0
C1682 C 0.09996 0.68469 0.0921 0.0
C1683 C 0.08805 0.66979 0.08381 0.0
H1684 H 0.88903 0.65969 0.13919 0.0
H1685 H 0.93388 0.69305 0.1708 0.0
H1686 H 0.91483 0.64112 0.12202 0.0
H1687 H 0.95983 0.67469 0.15318 0.0
H1688 H 0.00238 0.63016 0.12373 0.0
H1689 H 0.97644 0.64243 0.14621 0.0
H1690 H 0.93741 0.65129 0.09597 0.0
H1691 H 0.9629 0.63891 0.0738 0.0
C1692 C 0.90442 0.66294 0.14262 0.0
C1693 C 0.90941 0.67805 0.15613 0.0
C1694 C 0.91922 0.65233 0.13272 0.0
C1695 C 0.93939 0.65666 0.13596 0.0
C1696 C 0.94443 0.67094 0.1504 0.0
C1697 C 0.92957 0.68151 0.16043 0.0
C1698 C 0.98814 0.63449 0.11759 0.0
C1699 C 0.98471 0.63361 0.09698 0.0
C1700 C 0.97335 0.64162 0.13043 0.0
C1701 C 0.95484 0.64778 0.1229 0.0
C1702 C 0.95135 0.64637 0.10235 0.0
C1703 C 0.96607 0.6394 0.08958 0.0
H1704 H 0.88007 0.75615 0.12165 0.0
H1705 H 0.90502 0.79567 0.16568 0.0
H1706 H 0.89014 0.77932 0.0953 0.0
H1707 H 0.91482 0.81869 0.13957 0.0
H1708 H 0.91745 0.86357 0.09094 0.0
H1709 H 0.89995 0.84117 0.11335 0.0
H1710 H 0.9244 0.79068 0.08226 0.0
H1711 H 0.94204 0.81308 0.05975 0.0
C1712 C 0.88739 0.7699 0.12571 0.0
C1713 C 0.89184 0.77409 0.1457 0.0
C1714 C 0.89323 0.78308 0.11065 0.0
C1715 C 0.90321 0.80082 0.1154 0.0
C1716 C 0.90695 0.80526 0.13546 0.0
C1717 C 0.90145 0.792 0.15041 0.0
C1718 C 0.91885 0.84771 0.08861 0.0
C1719 C 0.9314 0.84013 0.07371 0.0
C1720 C 0.90885 0.83489 0.1015 0.0
C1721 C 0.91099 0.8142 0.09969 0.0
C1722 C 0.92241 0.80657 0.08396 0.0
C1723 C 0.93258 0.81941 0.07113 0.0
H1724 H 0.03611 0.85404 0.06622 0.0
H1725 H 0.00731 0.88389 0.1152 0.0
H1726 H 0.06337 0.84446 0.088 0.0
H1727 H 0.03473 0.87388 0.13726 0.0
H1728 H 0.07583 0.82318 0.16832 0.0
H1729 H 0.04857 0.8386 0.14967 0.0
H1730 H 0.09077 0.8629 0.10801 0.0
H1731 H 0.11793 0.84782 0.12656 0.0
C1732 C 0.03564 0.85861 0.08165 0.0
C1733 C 0.01958 0.86971 0.08901 0.0
C1734 C 0.0513 0.8532 0.09409 0.0
C1735 C 0.05116 0.85849 0.11428 0.0
C1736 C 0.03514 0.86962 0.12174 0.0
C1737 C 0.01956 0.87541 0.10912 0.0
C1738 C 0.0793 0.83211 0.1554 0.0
C1739 C 0.09905 0.83408 0.14882 0.0
C1740 C 0.06371 0.84099 0.14479 0.0
C1741 C 0.0676 0.85177 0.12733 0.0
C1742 C 0.08737 0.85451 0.12133 0.0
C1743 C 0.10292 0.84588 0.13201 0.0
H1744 H 0.35781 0.14262 0.26399 0.0
H1745 H 0.3697 0.08365 0.24153 0.0
H1746 H 0.3793 0.13597 0.29257 0.0
H1747 H 0.39059 0.07686 0.2701 0.0
H1748 H 0.43431 0.07004 0.31853 0.0
H1749 H 0.4206 0.08372 0.28791 0.0
H1750 H 0.37632 0.11539 0.32193 0.0
H1751 H 0.39038 0.10219 0.35254 0.0
C1752 C 0.36524 0.12837 0.26498 0.0
C1753 C 0.3619 0.1136 0.25059 0.0
C1754 C 0.37743 0.12451 0.28142 0.0
C1755 C 0.38658 0.10583 0.28374 0.0
C1756 C 0.38402 0.0915 0.26874 0.0
C1757 C 0.37187 0.09534 0.25239 0.0
C1758 C 0.42187 0.0802 0.3195 0.0
C1759 C 0.41326 0.0848 0.33796 0.0
C1760 C 0.41395 0.08798 0.30193 0.0
C1761 C 0.39717 0.10044 0.30241 0.0
C1762 C 0.38933 0.10598 0.32098 0.0
C1763 C 0.39733 0.09829 0.33856 0.0
H1764 H 0.34445 0.36991 0.01731 0.0
H1765 H 0.40205 0.38481 0.99325 0.0
H1766 H 0.33636 0.35199 0.98715 0.0
H1767 H 0.39425 0.36608 0.96318 0.0
H1768 H 0.32617 0.31536 0.9335 0.0
H1769 H 0.34097 0.32506 0.96516 0.0
H1770 H 0.37344 0.37187 0.93545 0.0
H1771 H 0.35933 0.36166 0.90389 0.0
C1772 C 0.35562 0.36895 0.00577 0.0
C1773 C 0.37379 0.37908 0.00758 0.0
C1774 C 0.35101 0.35849 0.98844 0.0
C1775 C 0.36455 0.35772 0.97254 0.0
C1776 C 0.38329 0.36672 0.97493 0.0
C1777 C 0.38783 0.37735 0.99223 0.0
C1778 C 0.33676 0.32747 0.93371 0.0
C1779 C 0.34138 0.33788 0.91621 0.0
C1780 C 0.34517 0.33313 0.95188 0.0
C1781 C 0.35823 0.34944 0.95298 0.0
C1782 C 0.36365 0.3591 0.93525 0.0
C1783 C 0.3554 0.35333 0.91709 0.0
H1784 H 0.64627 0.36216 0.27416 0.0
H1785 H 0.60777 0.39028 0.23111 0.0
H1786 H 0.62492 0.37369 0.30086 0.0
H1787 H 0.58598 0.40133 0.25786 0.0
H1788 H 0.5737 0.44321 0.31135 0.0
H1789 H 0.58828 0.42628 0.28299 0.0
H1790 H 0.59385 0.37258 0.31783 0.0
H1791 H 0.57978 0.38978 0.34646 0.0
C1792 C 0.63298 0.3704 0.27034 0.0
C1793 C 0.6289 0.37552 0.25049 0.0
C1794 C 0.62062 0.37694 0.28569 0.0
C1795 C 0.60379 0.38866 0.28158 0.0
C1796 C 0.59904 0.39269 0.26161 0.0
C1797 C 0.61146 0.38623 0.24625 0.0
C1798 C 0.57773 0.4277 0.3129 0.0
C1799 C 0.57578 0.41793 0.33126 0.0
C1800 C 0.58601 0.41791 0.29655 0.0
C1801 C 0.59244 0.39806 0.29812 0.0
C1802 C 0.58943 0.38797 0.31619 0.0
C1803 C 0.58125 0.3978 0.33258 0.0
H1804 H 0.62398 0.13459 0.00202 0.0
H1805 H 0.59849 0.10063 0.95378 0.0
H1806 H 0.63758 0.1582 0.97815 0.0
H1807 H 0.61237 0.12407 0.92996 0.0
H1808 H 0.63246 0.17482 0.8911 0.0
H1809 H 0.61287 0.15819 0.91674 0.0
H1810 H 0.66484 0.15506 0.95435 0.0
H1811 H 0.68429 0.17182 0.92896 0.0
C1812 C 0.62101 0.13231 0.98635 0.0
C1813 C 0.61037 0.11556 0.97979 0.0
C1814 C 0.6289 0.1458 0.97268 0.0
C1815 C 0.62628 0.14288 0.95216 0.0
C1816 C 0.61456 0.12684 0.94567 0.0
C1817 C 0.60669 0.11332 0.95934 0.0
C1818 C 0.63962 0.17087 0.90497 0.0
C1819 C 0.65998 0.17452 0.90792 0.0
C1820 C 0.62841 0.16125 0.91961 0.0
C1821 C 0.63731 0.15523 0.93755 0.0
C1822 C 0.65745 0.1597 0.94081 0.0
C1823 C 0.66865 0.16921 0.92618 0.0
H1824 H 0.39347 0.89086 0.27284 0.0
H1825 H 0.34982 0.86612 0.23272 0.0
H1826 H 0.41376 0.90084 0.24451 0.0
H1827 H 0.36968 0.8766 0.20453 0.0
H1828 H 0.41178 0.88965 0.15561 0.0
H1829 H 0.39909 0.87324 0.18529 0.0
H1830 H 0.4114 0.9261 0.21967 0.0
H1831 H 0.42468 0.9422 0.19019 0.0
C1832 C 0.38831 0.88735 0.258 0.0
C1833 C 0.36993 0.87787 0.25505 0.0
C1834 C 0.39988 0.89318 0.24175 0.0
C1835 C 0.39329 0.88973 0.22219 0.0
C1836 C 0.37539 0.87933 0.21933 0.0
C1837 C 0.3639 0.87341 0.23555 0.0
C1838 C 0.41207 0.89764 0.16958 0.0
C1839 C 0.41904 0.9173 0.1705 0.0
C1840 C 0.4047 0.88826 0.18659 0.0
C1841 C 0.40396 0.89841 0.20486 0.0
C1842 C 0.41191 0.91772 0.20594 0.0
C1843 C 0.41944 0.92703 0.18897 0.0
H1844 H 0.14237 0.34747 0.11632 0.0
H1845 H 0.19313 0.33852 0.07813 0.0
H1846 H 0.12384 0.36139 0.08846 0.0
H1847 H 0.175 0.35316 0.05051 0.0
H1848 H 0.13634 0.37304 1.00051 0.0
H1849 H 0.14902 0.35172 0.02693 0.0
H1850 H 0.12426 0.39162 0.07079 0.0
H1851 H 0.11096 0.41237 0.04444 0.0
C1852 C 0.14951 0.34832 0.10192 0.0
C1853 C 0.16926 0.34205 0.09947 0.0
C1854 C 0.13894 0.35643 0.08597 0.0
C1855 C 0.14797 0.35869 0.06724 0.0
C1856 C 0.16742 0.35148 0.0646 0.0
C1857 C 0.1779 0.34315 0.0805 0.0
C1858 C 0.13333 0.37705 0.0158 0.0
C1859 C 0.12276 0.39448 0.02037 0.0
C1860 C 0.14072 0.3649 0.03097 0.0
C1861 C 0.13788 0.37 0.05106 0.0
C1862 C 0.12655 0.387 0.05555 0.0
C1863 C 0.11899 0.39902 0.04039 0.0
H1864 H 0.61291 0.62217 0.27177 0.0
H1865 H 0.6606 0.63842 0.232 0.0
H1866 H 0.59268 0.61221 0.24336 0.0
H1867 H 0.64069 0.62796 0.20376 0.0
H1868 H 0.59855 0.61582 0.15415 0.0
H1869 H 0.61229 0.63303 0.18296 0.0
H1870 H 0.59337 0.58469 0.22077 0.0
H1871 H 0.57917 0.56783 0.19216 0.0
C1872 C 0.619 0.62384 0.25697 0.0
C1873 C 0.63846 0.6309 0.25419 0.0
C1874 C 0.60745 0.61801 0.24068 0.0
C1875 C 0.61511 0.61905 0.22126 0.0
C1876 C 0.63418 0.62712 0.21845 0.0
C1877 C 0.64569 0.63302 0.23471 0.0
C1878 C 0.59704 0.60904 0.16867 0.0
C1879 C 0.58793 0.59036 0.17081 0.0
C1880 C 0.60502 0.61885 0.18518 0.0
C1881 C 0.60415 0.61018 0.20419 0.0
C1882 C 0.59414 0.59196 0.20643 0.0
C1883 C 0.58608 0.5822 0.18996 0.0
H1884 H 0.8179 0.18855 0.06678 0.0
H1885 H 0.84682 0.13993 0.0972 0.0
H1886 H 0.83409 0.17876 0.03585 0.0
H1887 H 0.86227 0.12967 0.06632 0.0
H1888 H 0.83995 0.13628 0.98223 0.0
H1889 H 0.83 0.1528 0.01264 0.0
H1890 H 0.88523 0.1352 0.0404 0.0
H1891 H 0.89485 0.11786 0.01001 0.0
C1892 C 0.82784 0.17589 0.06691 0.0
C1893 C 0.8309 0.16491 0.08442 0.0
C1894 C 0.83703 0.17017 0.04914 0.0
C1895 C 0.84934 0.15325 0.04845 0.0
C1896 C 0.85312 0.14291 0.06623 0.0
C1897 C 0.8441 0.14873 0.08398 0.0
C1898 C 0.85013 0.13612 0.99471 0.0
C1899 C 0.8681 0.12552 0.99375 0.0
C1900 C 0.84447 0.14578 0.01218 0.0
C1901 C 0.85672 0.14528 0.02912 0.0
C1902 C 0.87523 0.13559 0.02779 0.0
C1903 C 0.88082 0.12575 0.01032 0.0
H1904 H 0.31305 0.45336 0.06803 0.0
H1905 H 0.34906 0.40458 0.08926 0.0
H1906 H 0.28463 0.44021 0.08638 0.0
H1907 H 0.32073 0.39115 0.10688 0.0
H1908 H 0.27017 0.37335 0.14475 0.0
H1909 H 0.29771 0.39392 0.1333 0.0
H1910 H 0.26252 0.41286 0.08295 0.0
H1911 H 0.23487 0.393 0.0948 0.0
C1912 C 0.31496 0.43994 0.07672 0.0
C1913 C 0.33329 0.42995 0.07703 0.0
C1914 C 0.29864 0.43233 0.08716 0.0
C1915 C 0.30029 0.41453 0.09805 0.0
C1916 C 0.31889 0.40504 0.09895 0.0
C1917 C 0.33516 0.41268 0.08865 0.0
C1918 C 0.26821 0.38222 0.13145 0.0
C1919 C 0.25041 0.38133 0.12056 0.0
C1920 C 0.28404 0.39392 0.1248 0.0
C1921 C 0.2825 0.40484 0.107 0.0
C1922 C 0.26426 0.40483 0.09679 0.0
C1923 C 0.24839 0.39329 0.10354 0.0
H1924 H 0.27335 0.64968 0.36558 0.0
H1925 H 0.23448 0.61133 0.39934 0.0
H1926 H 0.30205 0.63113 0.37773 0.0
H1927 H 0.26311 0.59319 0.41185 0.0
H1928 H 0.31798 0.55651 0.42373 0.0
H1929 H 0.2906 0.57129 0.40499 0.0
H1930 H 0.31885 0.6288 0.40922 0.0
H1931 H 0.34629 0.61404 0.42744 0.0
C1932 C 0.27089 0.63716 0.3754 0.0
C1933 C 0.25161 0.63212 0.38163 0.0
C1934 C 0.28737 0.62661 0.38248 0.0
C1935 C 0.28494 0.6108 0.39597 0.0
C1936 C 0.26557 0.60515 0.40137 0.0
C1937 C 0.24912 0.61566 0.39427 0.0
C1938 C 0.31843 0.57227 0.42048 0.0
C1939 C 0.33429 0.58409 0.4272 0.0
C1940 C 0.30269 0.58076 0.4098 0.0
C1941 C 0.30246 0.60126 0.40561 0.0
C1942 C 0.31862 0.61293 0.41188 0.0
C1943 C 0.33432 0.60446 0.42251 0.0
H1944 H 0.86942 0.52049 0.85232 0.0
H1945 H 0.91087 0.47758 0.87608 0.0
H1946 H 0.84558 0.49392 0.84599 0.0
H1947 H 0.88749 0.45104 0.86911 0.0
H1948 H 0.83962 0.40603 0.86313 0.0
H1949 H 0.85712 0.43497 0.8761 0.0
H1950 H 0.84229 0.46764 0.82277 0.0
H1951 H 0.82419 0.439 0.81023 0.0
C1952 C 0.87338 0.50542 0.85637 0.0
C1953 C 0.89212 0.50116 0.86456 0.0
C1954 C 0.85976 0.49015 0.8526 0.0
C1955 C 0.86462 0.47024 0.85682 0.0
C1956 C 0.88304 0.46616 0.86588 0.0
C1957 C 0.89656 0.48143 0.86978 0.0
C1958 C 0.83982 0.41952 0.85434 0.0
C1959 C 0.83066 0.42015 0.83557 0.0
C1960 C 0.84997 0.43609 0.86171 0.0
C1961 C 0.8514 0.45363 0.8504 0.0
C1962 C 0.84137 0.45453 0.83205 0.0
C1963 C 0.83104 0.43802 0.82477 0.0
H1964 H 0.68535 0.94049 0.42991 0.0
H1965 H 0.64756 0.90089 0.39631 0.0
H1966 H 0.71429 0.92799 0.41194 0.0
H1967 H 0.67639 0.88815 0.37875 0.0
H1968 H 0.73002 0.87365 0.34275 0.0
H1969 H 0.70315 0.89443 0.3555 0.0
H1970 H 0.73223 0.89678 0.41274 0.0
H1971 H 0.75918 0.87648 0.39994 0.0
C1972 C 0.68318 0.92931 0.41853 0.0
C1973 C 0.66417 0.92153 0.41469 0.0
C1974 C 0.69977 0.92208 0.4083 0.0
C1975 C 0.69769 0.90695 0.394 0.0
C1976 C 0.67854 0.89994 0.38949 0.0
C1977 C 0.66199 0.90715 0.3997 0.0
C1978 C 0.73085 0.87892 0.35794 0.0
C1979 C 0.74663 0.87319 0.37039 0.0
C1980 C 0.7154 0.89074 0.36528 0.0
C1981 C 0.71542 0.89711 0.3852 0.0
C1982 C 0.73179 0.89231 0.39728 0.0
C1983 C 0.7472 0.88051 0.38996 0.0
H1984 H 0.6177 0.49783 0.32327 0.0
H1985 H 0.61213 0.51468 0.38499 0.0
H1986 H 0.63972 0.52575 0.31753 0.0
H1987 H 0.63478 0.54252 0.37935 0.0
H1988 H 0.64863 0.6047 0.35198 0.0
H1989 H 0.63275 0.57399 0.36243 0.0
H1990 H 0.67141 0.54067 0.32347 0.0
H1991 H 0.68693 0.57155 0.31254 0.0
C1992 C 0.62145 0.5073 0.33573 0.0
C1993 C 0.61297 0.50412 0.35455 0.0
C1994 C 0.63426 0.52328 0.33247 0.0
C1995 C 0.63901 0.53648 0.34795 0.0
C1996 C 0.63122 0.5328 0.36702 0.0
C1997 C 0.61834 0.51678 0.37029 0.0
C1998 C 0.65396 0.59081 0.34584 0.0
C1999 C 0.66888 0.59062 0.33122 0.0
C2000 C 0.64492 0.57314 0.35195 0.0
C2001 C 0.65064 0.55483 0.34366 0.0
C2002 C 0.66637 0.55455 0.32988 0.0
C2003 C 0.67535 0.57225 0.32369 0.0
H2004 H 0.19677 0.55936 0.55237 0.0
H2005 H 0.15459 0.59193 0.58818 0.0
H2006 H 0.22405 0.57556 0.56992 0.0
H2007 H 0.1818 0.60844 0.60532 0.0
H2008 H 0.2351 0.63089 0.63907 0.0
H2009 H 0.21056 0.60669 0.6273 0.0
H2010 H 0.23647 0.60914 0.5686 0.0
H2011 H 0.26098 0.63279 0.58035 0.0
C2012 C 0.1933 0.56977 0.56415 0.0
C2013 C 0.17349 0.57456 0.56865 0.0
C2014 C 0.20894 0.57913 0.57415 0.0
C2015 C 0.20513 0.59351 0.58885 0.0
C2016 C 0.18531 0.59735 0.5942 0.0
C2017 C 0.16968 0.58797 0.58424 0.0
C2018 C 0.23572 0.62595 0.62375 0.0
C2019 C 0.24986 0.6339 0.6106 0.0
C2020 C 0.22162 0.61219 0.61698 0.0
C2021 C 0.22149 0.60602 0.59697 0.0
C2022 C 0.23624 0.61332 0.58415 0.0
C2023 C 0.25022 0.62707 0.59086 0.0
H2024 H 0.83222 0.57918 0.70569 0.0
H2025 H 0.83861 0.60814 0.64874 0.0
H2026 H 0.84311 0.54797 0.69108 0.0
H2027 H 0.84886 0.57673 0.63392 0.0
H2028 H 0.89712 0.52834 0.62595 0.0
H2029 H 0.87852 0.55762 0.6357 0.0
H2030 H 0.83771 0.52075 0.66885 0.0
H2031 H 0.85681 0.49136 0.65956 0.0
C2032 C 0.83547 0.57878 0.68993 0.0
C2033 C 0.83483 0.5962 0.67844 0.0
C2034 C 0.84163 0.56082 0.6815 0.0
C2035 C 0.84711 0.55985 0.66134 0.0
C2036 C 0.84518 0.57703 0.64958 0.0
C2037 C 0.8392 0.59502 0.65806 0.0
C2038 C 0.884 0.5264 0.63506 0.0
C2039 C 0.87862 0.50752 0.64219 0.0
C2040 C 0.87321 0.54323 0.64056 0.0
C2041 C 0.85666 0.54161 0.65322 0.0
C2042 C 0.85058 0.52258 0.65939 0.0
C2043 C 0.86146 0.50571 0.65395 0.0
H2044 H 0.19036 0.93497 0.70525 0.0
H2045 H 0.18811 0.908 0.647 0.0
H2046 H 0.1736 0.9643 0.69228 0.0
H2047 H 0.17176 0.93755 0.63391 0.0
H2048 H 0.11613 0.97795 0.6283 0.0
H2049 H 0.13892 0.95133 0.63724 0.0
H2050 H 0.17454 0.99296 0.67077 0.0
H2051 H 0.15145 0.01955 0.66218 0.0
C2052 C 0.18672 0.93548 0.68957 0.0
C2053 C 0.19039 0.91904 0.67722 0.0
C2054 C 0.17715 0.95236 0.68209 0.0
C2055 C 0.17111 0.95322 0.66207 0.0
C2056 C 0.17585 0.93723 0.64948 0.0
C2057 C 0.18535 0.92033 0.65697 0.0
C2058 C 0.12897 0.98151 0.63734 0.0
C2059 C 0.13184 1.00085 0.64467 0.0
C2060 C 0.14213 0.96624 0.6424 0.0
C2061 C 0.15853 0.96996 0.65485 0.0
C2062 C 0.1619 0.98951 0.66142 0.0
C2063 C 0.1487 0.00478 0.6564 0.0
H2064 H 0.62434 0.77897 0.85212 0.0
H2065 H 0.611 0.73478 0.89677 0.0
H2066 H 0.60766 0.8041 0.87192 0.0
H2067 H 0.59482 0.76014 0.91697 0.0
H2068 H 0.54255 0.8029 0.93 0.0
H2069 H 0.5643 0.77813 0.91519 0.0
H2070 H 0.60699 0.82401 0.90116 0.0
H2071 H 0.58489 0.8489 0.91542 0.0
C2072 C 0.61824 0.7747 0.86639 0.0
C2073 C 0.61882 0.7548 0.87274 0.0
C2074 C 0.60873 0.78917 0.87783 0.0
C2075 C 0.59968 0.78415 0.896 0.0
C2076 C 0.60126 0.76446 0.90287 0.0
C2077 C 0.61068 0.74994 0.89135 0.0
C2078 C 0.55667 0.80769 0.92395 0.0
C2079 C 0.56188 0.82791 0.9237 0.0
C2080 C 0.56924 0.79344 0.91556 0.0
C2081 C 0.5874 0.79905 0.90685 0.0
C2082 C 0.59297 0.81919 0.9074 0.0
C2083 C 0.58033 0.83346 0.91566 0.0
H2084 H 0.00705 0.12767 0.39031 0.0
H2085 H 0.03131 0.16349 0.43781 0.0
H2086 H 0.03531 0.13695 0.36909 0.0
H2087 H 0.05932 0.17243 0.41686 0.0
H2088 H 0.11661 0.16722 0.3834 0.0
H2089 H 0.08853 0.15323 0.4013 0.0
H2090 H 0.04918 0.1708 0.35378 0.0
H2091 H 0.07741 0.18506 0.33568 0.0
C2092 C 0.01842 0.1374 0.39623 0.0
C2093 C 0.01698 0.14486 0.41571 0.0
C2094 C 0.03449 0.14275 0.38409 0.0
C2095 C 0.04951 0.15528 0.39142 0.0
C2096 C 0.04807 0.16256 0.41091 0.0
C2097 C 0.03195 0.15752 0.42286 0.0
C2098 C 0.10206 0.16791 0.37656 0.0
C2099 C 0.09922 0.17752 0.35822 0.0
C2100 C 0.08598 0.15991 0.38686 0.0
C2101 C 0.0667 0.16115 0.37901 0.0
C2102 C 0.06393 0.16963 0.36012 0.0
C2103 C 0.08007 0.17784 0.34982 0.0
H2104 H 0.43827 0.65341 0.89624 0.0
H2105 H 0.42828 0.67895 0.95433 0.0
H2106 H 0.41933 0.6801 0.88111 0.0
H2107 H 0.4087 0.70551 0.93913 0.0
H2108 H 0.39605 0.76187 0.90228 0.0
H2109 H 0.41316 0.73452 0.9187 0.0
H2110 H 0.38662 0.69317 0.87731 0.0
H2111 H 0.36999 0.72062 0.86052 0.0
C2112 C 0.43185 0.66462 0.90584 0.0
C2113 C 0.43486 0.66404 0.92653 0.0
C2114 C 0.42084 0.67989 0.89714 0.0
C2115 C 0.41243 0.69498 0.90887 0.0
C2116 C 0.41519 0.69428 0.92961 0.0
C2117 C 0.42631 0.67899 0.93835 0.0
C2118 C 0.39383 0.74694 0.8967 0.0
C2119 C 0.38174 0.74345 0.88 0.0
C2120 C 0.40354 0.73122 0.90622 0.0
C2121 C 0.40132 0.71161 0.89934 0.0
C2122 C 0.38894 0.70811 0.88283 0.0
C2123 C 0.37932 0.72385 0.87324 0.0
H2124 H 1.00042 0.36521 0.38876 0.0
H2125 H 0.96129 0.34128 0.43362 0.0
H2126 H 0.97591 0.35662 0.36296 0.0
H2127 H 0.93688 0.3332 0.40812 0.0
H2128 H 0.88994 0.33878 0.36081 0.0
H2129 H 0.91515 0.3531 0.38249 0.0
H2130 H 0.96082 0.32124 0.35078 0.0
H2131 H 0.93552 0.30654 0.32905 0.0
C2132 C 0.98651 0.3584 0.39311 0.0
C2133 C 0.98274 0.35386 0.41315 0.0
C2134 C 0.97258 0.35341 0.37839 0.0
C2135 C 0.95452 0.34433 0.38361 0.0
C2136 C 0.95061 0.34036 0.40371 0.0
C2137 C 0.96462 0.3449 0.41828 0.0
C2138 C 0.90536 0.33502 0.35817 0.0
C2139 C 0.91068 0.3213 0.34333 0.0
C2140 C 0.91978 0.34324 0.37063 0.0
C2141 C 0.93987 0.33816 0.36837 0.0
C2142 C 0.94542 0.32545 0.35275 0.0
C2143 C 0.93093 0.31699 0.3404 0.0
H2144 H 0.5876 0.26148 0.64028 0.0
H2145 H 0.64539 0.23462 0.63245 0.0
H2146 H 0.57335 0.23787 0.61716 0.0
H2147 H 0.6311 0.2111 0.60867 0.0
H2148 H 0.59069 0.15656 0.59347 0.0
H2149 H 0.60935 0.18266 0.61014 0.0
H2150 H 0.57116 0.22693 0.58352 0.0
H2151 H 0.55207 0.20073 0.56734 0.0
C2152 C 0.59737 0.25071 0.63338 0.0
C2153 C 0.61764 0.24985 0.6384 0.0
C2154 C 0.58919 0.23723 0.61992 0.0
C2155 C 0.60104 0.22253 0.611 0.0
C2156 C 0.62149 0.22209 0.61544 0.0
C2157 C 0.62971 0.23563 0.62899 0.0
C2158 C 0.58644 0.17188 0.59091 0.0
C2159 C 0.56967 0.17653 0.57932 0.0
C2160 C 0.59725 0.18689 0.6004 0.0
C2161 C 0.59162 0.20692 0.59841 0.0
C2162 C 0.57564 0.21163 0.58574 0.0
C2163 C 0.56475 0.19661 0.57636 0.0
H2164 H 0.43631 0.2011 0.66686 0.0
H2165 H 0.39927 0.14886 0.67159 0.0
H2166 H 0.46153 0.18165 0.64975 0.0
H2167 H 0.4247 0.12931 0.65468 0.0
H2168 H 0.46017 0.11312 0.59724 0.0
H2169 H 0.43688 0.12824 0.62041 0.0
H2170 H 0.48579 0.15465 0.65255 0.0
H2171 H 0.50915 0.13976 0.62916 0.0
C2172 C 0.43368 0.18539 0.66455 0.0
C2173 C 0.41568 0.17659 0.67044 0.0
C2174 C 0.44821 0.1742 0.65484 0.0
C2175 C 0.44508 0.15394 0.65075 0.0
C2176 C 0.42744 0.14494 0.65738 0.0
C2177 C 0.41291 0.15613 0.66716 0.0
C2178 C 0.466 0.12191 0.60941 0.0
C2179 C 0.48651 0.1254 0.61121 0.0
C2180 C 0.45264 0.13049 0.62278 0.0
C2181 C 0.45947 0.14278 0.63824 0.0
C2182 C 0.48005 0.14549 0.64061 0.0
C2183 C 0.49343 0.13685 0.62727 0.0
H2184 H 0.40714 0.35044 0.57606 0.0
H2185 H 0.45516 0.30849 0.56852 0.0
H2186 H 0.38689 0.32443 0.59122 0.0
H2187 H 0.43517 0.28273 0.58397 0.0
H2188 H 0.39381 0.23629 0.60548 0.0
H2189 H 0.4064 0.26133 0.58253 0.0
H2190 H 0.3882 0.30764 0.62311 0.0
H2191 H 0.37524 0.28268 0.64582 0.0
C2192 C 0.41327 0.33561 0.57734 0.0
C2193 C 0.43286 0.33161 0.57127 0.0
C2194 C 0.4017 0.32073 0.58614 0.0
C2195 C 0.40945 0.30152 0.589 0.0
C2196 C 0.42861 0.29727 0.58185 0.0
C2197 C 0.44016 0.31212 0.57309 0.0
C2198 C 0.39212 0.25183 0.60933 0.0
C2199 C 0.38376 0.25745 0.62763 0.0
C2200 C 0.39945 0.26618 0.5962 0.0
C2201 C 0.39858 0.28649 0.60108 0.0
C2202 C 0.38901 0.29216 0.61878 0.0
C2203 C 0.38166 0.27781 0.63189 0.0
H2204 H 0.49271 0.35793 0.61473 0.0
H2205 H 0.51931 0.41608 0.62062 0.0
H2206 H 0.51752 0.34422 0.6371 0.0
H2207 H 0.54414 0.4023 0.64335 0.0
H2208 H 0.59995 0.36153 0.65344 0.0
H2209 H 0.57253 0.37986 0.63864 0.0
H2210 H 0.53072 0.34351 0.67102 0.0
H2211 H 0.55825 0.32489 0.68568 0.0
C2212 C 0.50368 0.36787 0.62104 0.0
C2213 C 0.50414 0.38807 0.6157 0.0
C2214 C 0.51783 0.36002 0.63404 0.0
C2215 C 0.53287 0.37214 0.64199 0.0
C2216 C 0.53286 0.39253 0.63731 0.0
C2217 C 0.51859 0.40044 0.62437 0.0
C2218 C 0.58493 0.35763 0.65769 0.0
C2219 C 0.58129 0.34156 0.67054 0.0
C2220 C 0.56919 0.36826 0.64929 0.0
C2221 C 0.54942 0.36304 0.6535 0.0
C2222 C 0.54579 0.34771 0.66726 0.0
C2223 C 0.56157 0.33712 0.67575 0.0
H2224 H 0.94308 0.60795 0.83808 0.0
H2225 H 0.93331 0.55309 0.80612 0.0
H2226 H 0.9285 0.62654 0.81056 0.0
H2227 H 0.91844 0.57161 0.77885 0.0
H2228 H 0.90148 0.60954 0.72725 0.0
H2229 H 0.9237 0.59536 0.75214 0.0
H2230 H 0.89495 0.63028 0.79768 0.0
H2231 H 0.87302 0.64473 0.77281 0.0
C2232 C 0.93802 0.59986 0.82511 0.0
C2233 C 0.9392 0.57901 0.82438 0.0
C2234 C 0.92958 0.61052 0.80938 0.0
C2235 C 0.92219 0.60057 0.79255 0.0
C2236 C 0.92419 0.57979 0.79147 0.0
C2237 C 0.93261 0.56913 0.80719 0.0
C2238 C 0.90015 0.61449 0.74251 0.0
C2239 C 0.8853 0.6281 0.74807 0.0
C2240 C 0.91281 0.60626 0.75679 0.0
C2241 C 0.91094 0.61148 0.77694 0.0
C2242 C 0.89691 0.62602 0.78229 0.0
C2243 C 0.88425 0.63425 0.76801 0.0
H2244 H 0.90178 0.8903 0.48821 0.0
H2245 H 0.85146 0.86531 0.51922 0.0
H2246 H 0.89086 0.87425 0.45761 0.0
H2247 H 0.84013 0.84992 0.48855 0.0
H2248 H 0.84812 0.871 0.40423 0.0
H2249 H 0.86482 0.88031 0.43474 0.0
H2250 H 0.84438 0.82615 0.4626 0.0
H2251 H 0.82697 0.81712 0.43201 0.0
C2252 C 0.88849 0.88123 0.48854 0.0
C2253 C 0.87738 0.87927 0.5061 0.0
C2254 C 0.88214 0.87212 0.47096 0.0
C2255 C 0.86443 0.86101 0.47049 0.0
C2256 C 0.85393 0.85819 0.48834 0.0
C2257 C 0.86038 0.86714 0.50595 0.0
C2258 C 0.84733 0.86092 0.41676 0.0
C2259 C 0.83602 0.84341 0.41573 0.0
C2260 C 0.8571 0.8662 0.43428 0.0
C2261 C 0.85594 0.85403 0.45124 0.0
C2262 C 0.84534 0.83603 0.44994 0.0
C2263 C 0.83545 0.83079 0.43237 0.0
H2264 H 0.1234 0.89305 0.72581 0.0
H2265 H 0.16115 0.86822 0.77147 0.0
H2266 H 0.0998 0.9037 0.75116 0.0
H2267 H 0.13802 0.87941 0.79677 0.0
H2268 H 0.09002 0.89363 0.83972 0.0
H2269 H 0.10647 0.87677 0.81221 0.0
H2270 H 0.09889 0.92913 0.77574 0.0
H2271 H 0.08186 0.94566 0.80298 0.0
C2272 C 0.12657 0.88967 0.74123 0.0
C2273 C 0.14426 0.87993 0.74661 0.0
C2274 C 0.1131 0.89591 0.75579 0.0
C2275 C 0.11706 0.89264 0.77607 0.0
C2276 C 0.13429 0.88201 0.78132 0.0
C2277 C 0.14768 0.87567 0.76678 0.0
C2278 C 0.09156 0.9014 0.8257 0.0
C2279 C 0.08479 0.92105 0.82361 0.0
C2280 C 0.10112 0.89178 0.80996 0.0
C2281 C 0.10429 0.90164 0.79179 0.0
C2282 C 0.09657 0.92095 0.7894 0.0
C2283 C 0.08686 0.9305 0.80509 0.0
H2284 H 0.12311 0.62594 0.49801 0.0
H2285 H 0.14324 0.57465 0.46503 0.0
H2286 H 0.13173 0.64734 0.46972 0.0
H2287 H 0.1517 0.59584 0.43706 0.0
H2288 H 0.15082 0.63499 0.38388 0.0
H2289 H 0.13542 0.61758 0.41162 0.0
H2290 H 0.16435 0.65731 0.45287 0.0
H2291 H 0.17978 0.67489 0.4251 0.0
C2292 C 0.12916 0.61924 0.48469 0.0
C2293 C 0.13259 0.59864 0.48376 0.0
C2294 C 0.13415 0.63147 0.46857 0.0
C2295 C 0.14229 0.62323 0.45117 0.0
C2296 C 0.14519 0.60259 0.45014 0.0
C2297 C 0.14049 0.59047 0.46626 0.0
C2298 C 0.15366 0.64027 0.39883 0.0
C2299 C 0.16677 0.65616 0.40228 0.0
C2300 C 0.14487 0.63024 0.41471 0.0
C2301 C 0.14888 0.63594 0.4344 0.0
C2302 C 0.16093 0.65264 0.43785 0.0
C2303 C 0.16984 0.66264 0.42193 0.0
H2304 H 0.88595 0.39558 0.77489 0.0
H2305 H 0.84029 0.3762 0.73405 0.0
H2306 H 0.90646 0.40605 0.74688 0.0
H2307 H 0.8604 0.38718 0.70624 0.0
H2308 H 0.90316 0.39934 0.65767 0.0
H2309 H 0.88938 0.38258 0.68663 0.0
H2310 H 0.90566 0.43275 0.72333 0.0
H2311 H 0.92005 0.44917 0.69448 0.0
C2312 C 0.88037 0.39336 0.75995 0.0
C2313 C 0.86141 0.38521 0.75672 0.0
C2314 C 0.89207 0.39948 0.7439 0.0
C2315 C 0.88504 0.39763 0.72428 0.0
C2316 C 0.86645 0.38862 0.72109 0.0
C2317 C 0.85482 0.38243 0.73709 0.0
C2318 C 0.90405 0.40666 0.67199 0.0
C2319 C 0.9125 0.42567 0.67376 0.0
C2320 C 0.89606 0.39709 0.68858 0.0
C2321 C 0.89615 0.4064 0.70729 0.0
C2322 C 0.90549 0.42502 0.70922 0.0
C2323 C 0.91366 0.43451 0.69264 0.0
H2324 H 0.61653 0.89854 0.51483 0.0
H2325 H 0.67638 0.88941 0.49351 0.0
H2326 H 0.62378 0.87779 0.54377 0.0
H2327 H 0.68373 0.86924 0.52248 0.0
H2328 H 0.69068 0.82477 0.57064 0.0
H2329 H 0.67765 0.8387 0.53983 0.0
H2330 H 0.64358 0.8814 0.57357 0.0
H2331 H 0.65614 0.86713 0.60434 0.0
C2332 C 0.63115 0.89196 0.5162 0.0
C2333 C 0.64592 0.89576 0.50194 0.0
C2334 C 0.63534 0.88017 0.53284 0.0
C2335 C 0.65437 0.87191 0.53552 0.0
C2336 C 0.66884 0.8751 0.5208 0.0
C2337 C 0.66466 0.88685 0.50423 0.0
C2338 C 0.68015 0.83691 0.57149 0.0
C2339 C 0.67464 0.845 0.58995 0.0
C2340 C 0.67276 0.84497 0.55382 0.0
C2341 C 0.65977 0.86135 0.55419 0.0
C2342 C 0.65342 0.86869 0.5727 0.0
C2343 C 0.66073 0.86058 0.59037 0.0
H2344 H 0.11945 0.09457 0.65632 0.0
H2345 H 0.07182 0.06916 0.69098 0.0
H2346 H 0.13221 0.11102 0.6857 0.0
H2347 H 0.084 0.08652 0.72041 0.0
H2348 H 0.12976 0.09363 0.77123 0.0
H2349 H 0.11036 0.08316 0.74271 0.0
H2350 H 0.12979 0.1352 0.71036 0.0
H2351 H 0.15011 0.14508 0.73871 0.0
C2352 C 0.1114 0.09289 0.67016 0.0
C2353 C 0.09476 0.08037 0.67136 0.0
C2354 C 0.11864 0.10249 0.68707 0.0
C2355 C 0.10926 0.10007 0.7056 0.0
C2356 C 0.0919 0.08841 0.70652 0.0
C2357 C 0.08482 0.07855 0.68963 0.0
C2358 C 0.12961 0.10305 0.75817 0.0
C2359 C 0.14167 0.12005 0.75713 0.0
C2360 C 0.11836 0.09708 0.74176 0.0
C2361 C 0.11865 0.10815 0.72401 0.0
C2362 C 0.1296 0.12599 0.72355 0.0
C2363 C 0.14112 0.13177 0.73987 0.0
H2364 H 0.34815 0.64277 0.49656 0.0
H2365 H 0.39395 0.61005 0.52749 0.0
H2366 H 0.33764 0.6576 0.52769 0.0
H2367 H 0.38386 0.6255 0.55871 0.0
H2368 H 0.33908 0.6316 0.6107 0.0
H2369 H 0.35638 0.62184 0.58061 0.0
H2370 H 0.34407 0.67937 0.55479 0.0
H2371 H 0.32608 0.68891 0.58478 0.0
C2372 C 0.35628 0.63906 0.50995 0.0
C2373 C 0.37174 0.62502 0.50954 0.0
C2374 C 0.35033 0.64771 0.52786 0.0
C2375 C 0.35978 0.64266 0.54582 0.0
C2376 C 0.37599 0.62945 0.54523 0.0
C2377 C 0.38188 0.62069 0.5273 0.0
C2378 C 0.34028 0.6423 0.59873 0.0
C2379 C 0.33097 0.66095 0.60007 0.0
C2380 C 0.35036 0.63674 0.58147 0.0
C2381 C 0.35152 0.64973 0.56513 0.0
C2382 C 0.34315 0.66883 0.56692 0.0
C2383 C 0.33294 0.67436 0.58417 0.0
H2384 H 0.81438 0.9266 0.54797 0.0
H2385 H 0.85334 0.91598 0.59794 0.0
H2386 H 0.78648 0.9138 0.567 0.0
H2387 H 0.82526 0.90361 0.6172 0.0
H2388 H 0.77754 0.85533 0.6304 0.0
H2389 H 0.80518 0.87399 0.61655 0.0
H2390 H 0.76432 0.91849 0.59471 0.0
H2391 H 0.73655 0.89952 0.60817 0.0
C2392 C 0.81693 0.92187 0.56315 0.0
C2393 C 0.83614 0.92213 0.57135 0.0
C2394 C 0.80088 0.91464 0.57414 0.0
C2395 C 0.80362 0.90756 0.59363 0.0
C2396 C 0.82268 0.90865 0.60213 0.0
C2397 C 0.83876 0.91584 0.59112 0.0
C2398 C 0.77444 0.86925 0.62294 0.0
C2399 C 0.75479 0.8758 0.6202 0.0
C2400 C 0.79034 0.88004 0.61506 0.0
C2401 C 0.78698 0.89766 0.60432 0.0
C2402 C 0.76741 0.90478 0.60258 0.0
C2403 C 0.75149 0.89397 0.61041 0.0
H2404 H 0.84669 0.10939 0.91104 0.0
H2405 H 0.8115 0.05768 0.92544 0.0
H2406 H 0.81808 0.12462 0.89528 0.0
H2407 H 0.78288 0.07264 0.9089 0.0
H2408 H 0.7318 0.11856 0.90629 0.0
H2409 H 0.7602 0.09851 0.91579 0.0
H2410 H 0.79489 0.12545 0.86893 0.0
H2411 H 0.76653 0.14619 0.85992 0.0
C2412 C 0.83293 0.10106 0.91048 0.0
C2413 C 0.83135 0.08238 0.91972 0.0
C2414 C 0.81649 0.10977 0.90127 0.0
C2415 C 0.79803 0.09997 0.90087 0.0
C2416 C 0.79673 0.08082 0.90924 0.0
C2417 C 0.81318 0.07217 0.91863 0.0
C2418 C 0.74539 0.12005 0.8978 0.0
C2419 C 0.74694 0.13418 0.88249 0.0
C2420 C 0.76171 0.1084 0.90319 0.0
C2421 C 0.77999 0.11043 0.89328 0.0
C2422 C 0.78119 0.12377 0.87718 0.0
C2423 C 0.76487 0.13557 0.8719 0.0
H2424 H 0.32747 0.93327 0.30738 0.0
H2425 H 0.34145 0.90187 0.36163 0.0
H2426 H 0.34158 0.96355 0.32127 0.0
H2427 H 0.35495 0.93232 0.37582 0.0
H2428 H 0.40326 0.98065 0.38089 0.0
H2429 H 0.38409 0.95164 0.37122 0.0
H2430 H 0.33945 0.98975 0.34506 0.0
H2431 H 0.35905 0.01885 0.35421 0.0
C2432 C 0.33318 0.93293 0.32244 0.0
C2433 C 0.33353 0.9151 0.33332 0.0
C2434 C 0.34119 0.95035 0.33047 0.0
C2435 C 0.3496 0.95039 0.34964 0.0
C2436 C 0.349 0.93276 0.36087 0.0
C2437 C 0.34114 0.91531 0.35277 0.0
C2438 C 0.38923 0.98289 0.37331 0.0
C2439 C 0.38279 0.00209 0.36818 0.0
C2440 C 0.37814 0.96621 0.36784 0.0
C2441 C 0.36023 0.96829 0.35724 0.0
C2442 C 0.35334 0.98756 0.3529 0.0
C2443 C 0.36452 0.00427 0.35827 0.0
H2444 H 0.23958 0.36168 0.87649 0.0
H2445 H 0.28306 0.396 0.90903 0.0
H2446 H 0.21301 0.38069 0.89201 0.0
H2447 H 0.25643 0.41523 0.92431 0.0
H2448 H 0.20371 0.41892 0.96904 0.0
H2449 H 0.23162 0.40703 0.94941 0.0
H2450 H 0.19662 0.4129 0.89587 0.0
H2451 H 0.1685 0.42455 0.91558 0.0
C2452 C 0.2435 0.37355 0.88664 0.0
C2453 C 0.26345 0.37714 0.8917 0.0
C2454 C 0.22824 0.38453 0.89547 0.0
C2455 C 0.23259 0.39935 0.90956 0.0
C2456 C 0.25259 0.40369 0.91376 0.0
C2457 C 0.26785 0.39273 0.90491 0.0
C2458 C 0.20202 0.41795 0.95306 0.0
C2459 C 0.1838 0.42249 0.94392 0.0
C2460 C 0.21809 0.41124 0.94176 0.0
C2461 C 0.21632 0.4089 0.92106 0.0
C2462 C 0.19837 0.41429 0.91181 0.0
C2463 C 0.1823 0.42106 0.92311 0.0
H2464 H 0.14521 0.97596 0.84002 0.0
H2465 H 0.10895 0.02291 0.86461 0.0
H2466 H 0.16903 1.00059 0.82823 0.0
H2467 H 0.13255 0.04749 0.85252 0.0
H2468 H 0.18581 0.05171 0.78451 0.0
H2469 H 0.16832 0.02522 0.8018 0.0
H2470 H 0.16588 0.06133 0.85484 0.0
H2471 H 0.18311 0.08804 0.83741 0.0
C2472 C 0.14243 0.9915 0.84314 0.0
C2473 C 0.12506 0.99746 0.8531 0.0
C2474 C 0.15604 0.00563 0.83628 0.0
C2475 C 0.15262 0.02603 0.83925 0.0
C2476 C 0.13576 0.0319 0.85012 0.0
C2477 C 0.12215 0.01779 0.85696 0.0
C2478 C 0.18185 0.05391 0.79996 0.0
C2479 C 0.1857 0.07209 0.8095 0.0
C2480 C 0.17189 0.03865 0.80992 0.0
C2481 C 0.16555 0.0412 0.82968 0.0
C2482 C 0.1703 0.059 0.83954 0.0
C2483 C 0.18029 0.07427 0.82957 0.0
H2484 H 0.65166 0.10061 0.07708 0.0
H2485 H 0.68979 0.05559 0.05176 0.0
H2486 H 0.67997 0.11519 0.09403 0.0
H2487 H 0.71815 0.06986 0.06932 0.0
H2488 H 0.76484 0.11994 0.07624 0.0
H2489 H 0.73756 0.09916 0.06524 0.0
H2490 H 0.70526 0.11305 0.11897 0.0
H2491 H 0.73252 0.13449 0.12976 0.0
C2492 C 0.66603 0.09356 0.07543 0.0
C2493 C 0.66848 0.07708 0.0628 0.0
C2494 C 0.68229 0.10186 0.08532 0.0
C2495 C 0.70144 0.09384 0.08295 0.0
C2496 C 0.70369 0.07666 0.0712 0.0
C2497 C 0.68741 0.06841 0.0612 0.0
C2498 C 0.75205 0.11841 0.08588 0.0
C2499 C 0.75078 0.12911 0.10378 0.0
C2500 C 0.73641 0.1063 0.07961 0.0
C2501 C 0.71908 0.10448 0.09112 0.0
C2502 C 0.71824 0.11436 0.10957 0.0
C2503 C 0.73392 0.12655 0.11583 0.0
H2504 H 0.36931 0.98953 0.17057 0.0
H2505 H 0.3873 0.0138 0.1139 0.0
H2506 H 0.3495 0.01899 0.17693 0.0
H2507 H 0.36687 0.04312 0.11999 0.0
H2508 H 0.3572 0.1023 0.15428 0.0
H2509 H 0.37012 0.07118 0.14143 0.0
H2510 H 0.32163 0.03949 0.16914 0.0
H2511 H 0.30903 0.07071 0.18258 0.0
C2512 C 0.36868 1.00096 0.15924 0.0
C2513 C 0.38013 0.99944 0.14186 0.0
C2514 C 0.35717 0.01785 0.16284 0.0
C2515 C 0.35671 0.03357 0.14906 0.0
C2516 C 0.36719 0.03147 0.13109 0.0
C2517 C 0.37881 0.01461 0.12755 0.0
C2518 C 0.34909 0.08876 0.15738 0.0
C2519 C 0.33225 0.08897 0.1697 0.0
C2520 C 0.35644 0.07086 0.14988 0.0
C2521 C 0.34704 0.05274 0.1544 0.0
C2522 C 0.32946 0.05312 0.16569 0.0
C2523 C 0.32216 0.07103 0.1733 0.0
H2524 H 0.68573 0.43139 0.19988 0.0
H2525 H 0.65178 0.40017 0.15517 0.0
H2526 H 0.67208 0.46287 0.18818 0.0
H2527 H 0.63769 0.43148 0.14391 0.0
H2528 H 0.62006 0.49193 0.12153 0.0
H2529 H 0.64172 0.46356 0.12852 0.0
H2530 H 0.64014 0.47794 0.19111 0.0
H2531 H 0.61915 0.50634 0.18411 0.0
C2532 C 0.67553 0.43125 0.18742 0.0
C2533 C 0.66967 0.41323 0.17863 0.0
C2534 C 0.66761 0.44929 0.18077 0.0
C2535 C 0.65355 0.44972 0.16527 0.0
C2536 C 0.64859 0.43178 0.15576 0.0
C2537 C 0.65659 0.41376 0.16233 0.0
C2538 C 0.62465 0.48919 0.13672 0.0
C2539 C 0.61774 0.50131 0.15227 0.0
C2540 C 0.63696 0.47287 0.14075 0.0
C2541 C 0.64263 0.46837 0.1604 0.0
C2542 C 0.63636 0.48105 0.17578 0.0
C2543 C 0.62412 0.4973 0.17176 0.0
loop_
_geom_bond_atom_site_label_1
_geom_bond_atom_site_label_2
_geom_bond_distance
_geom_bond_site_symmetry_2
_ccdc_geom_bond_type
Mg0 O7 2.141 . S
Mg0 O8 2.048 . S
Mg0 O9 2.048 . S
Mg0 O12 2.141 . S
C1 O2 1.313 . S
C1 O8 1.195 . S
O2 C1 1.313 . S
C3 O4 1.245 . S
C3 O12 1.289 . S
O4 C3 1.245 . S
C5 O6 1.245 . S
C5 O7 1.289 . S
O6 C5 1.245 . S
O7 Mg0 2.141 . S
O7 C5 1.289 . S
O8 Mg0 2.048 . S
O8 C1 1.195 . S
O9 Mg0 2.048 . S
O9 C10 1.195 . S
C10 O9 1.195 . S
C10 O11 1.313 . S
O11 C10 1.313 . S
O12 Mg0 2.141 . S
O12 C3 1.289 . S
Mg13 O20 2.141 . S
Mg13 O21 2.048 . S
Mg13 O22 2.048 . S
Mg13 O25 2.141 . S
C14 O15 1.313 . S
C14 O21 1.195 . S
O15 C14 1.313 . S
C16 O17 1.245 . S
C16 O25 1.289 . S
O17 C16 1.245 . S
C18 O19 1.245 . S
C18 O20 1.289 . S
O19 C18 1.245 . S
O20 Mg13 2.141 . S
O20 C18 1.289 . S
O21 Mg13 2.048 . S
O21 C14 1.195 . S
O22 Mg13 2.048 . S
O22 C23 1.195 . S
C23 O22 1.195 . S
C23 O24 1.313 . S
O24 C23 1.313 . S
O25 Mg13 2.141 . S
O25 C16 1.289 . S
Mg26 O33 2.141 . S
Mg26 O34 2.048 . S
Mg26 O35 2.048 . S
Mg26 O38 2.141 . S
C27 O28 1.313 . S
C27 O34 1.195 . S
O28 C27 1.313 . S
C29 O30 1.245 . S
C29 O38 1.289 . S
O30 C29 1.245 . S
C31 O32 1.245 . S
C31 O33 1.289 . S
O32 C31 1.245 . S
O33 Mg26 2.141 . S
O33 C31 1.289 . S
O34 Mg26 2.048 . S
O34 C27 1.195 . S
O35 Mg26 2.048 . S
O35 C36 1.195 . S
C36 O35 1.195 . S
C36 O37 1.313 . S
O37 C36 1.313 . S
O38 Mg26 2.141 . S
O38 C29 1.289 . S
Mg39 O46 2.141 . S
Mg39 O47 2.048 . S
Mg39 O48 2.048 . S
Mg39 O51 2.141 . S
C40 O41 1.313 . S
C40 O47 1.195 . S
O41 C40 1.313 . S
C42 O43 1.245 . S
C42 O51 1.289 . S
O43 C42 1.245 . S
C44 O45 1.245 . S
C44 O46 1.289 . S
O45 C44 1.245 . S
O46 Mg39 2.141 . S
O46 C44 1.289 . S
O47 Mg39 2.048 . S
O47 C40 1.195 . S
O48 Mg39 2.048 . S
O48 C49 1.195 . S
C49 O48 1.195 . S
C49 O50 1.313 . S
O50 C49 1.313 . S
O51 Mg39 2.141 . S
O51 C42 1.289 . S
Mg52 O59 2.141 . S
Mg52 O60 2.048 . S
Mg52 O61 2.048 . S
Mg52 O64 2.141 . S
C53 O54 1.313 . S
C53 O60 1.195 . S
O54 C53 1.313 . S
C55 O56 1.245 . S
C55 O64 1.289 . S
O56 C55 1.245 . S
C57 O58 1.245 . S
C57 O59 1.289 . S
O58 C57 1.245 . S
O59 Mg52 2.141 . S
O59 C57 1.289 . S
O60 Mg52 2.048 . S
O60 C53 1.195 . S
O61 Mg52 2.048 . S
O61 C62 1.195 . S
C62 O61 1.195 . S
C62 O63 1.313 . S
O63 C62 1.313 . S
O64 Mg52 2.141 . S
O64 C55 1.289 . S
Mg65 O72 2.141 . S
Mg65 O73 2.048 1_655 S
Mg65 O74 2.048 1_655 S
Mg65 O77 2.141 . S
C66 O67 1.313 . S
C66 O73 1.195 . S
O67 C66 1.313 . S
C68 O69 1.245 . S
C68 O77 1.289 . S
O69 C68 1.245 . S
C70 O71 1.245 . S
C70 O72 1.289 . S
O71 C70 1.245 . S
O72 Mg65 2.141 . S
O72 C70 1.289 . S
O73 Mg65 2.048 1_455 S
O73 C66 1.195 . S
O74 Mg65 2.048 1_455 S
O74 C75 1.195 . S
C75 O74 1.195 . S
C75 O76 1.313 . S
O76 C75 1.313 . S
O77 Mg65 2.141 . S
O77 C68 1.289 . S
Mg78 O85 2.141 . S
Mg78 O86 2.048 . S
Mg78 O87 2.048 . S
Mg78 O90 2.141 . S
C79 O80 1.313 . S
C79 O86 1.195 . S
O80 C79 1.313 . S
C81 O82 1.245 . S
C81 O90 1.289 . S
O82 C81 1.245 . S
C83 O84 1.245 . S
C83 O85 1.289 . S
O84 C83 1.245 . S
O85 Mg78 2.141 . S
O85 C83 1.289 . S
O86 Mg78 2.048 . S
O86 C79 1.195 . S
O87 Mg78 2.048 . S
O87 C88 1.195 . S
C88 O87 1.195 . S
C88 O89 1.313 . S
O89 C88 1.313 . S
O90 Mg78 2.141 . S
O90 C81 1.289 . S
Mg91 O98 2.141 . S
Mg91 O99 2.048 1_455 S
Mg91 O100 2.048 1_455 S
Mg91 O103 2.141 . S
C92 O93 1.313 . S
C92 O99 1.195 . S
O93 C92 1.313 . S
C94 O95 1.245 . S
C94 O103 1.289 . S
O95 C94 1.245 . S
C96 O97 1.245 . S
C96 O98 1.289 . S
O97 C96 1.245 . S
O98 Mg91 2.141 . S
O98 C96 1.289 . S
O99 Mg91 2.048 1_655 S
O99 C92 1.195 . S
O100 Mg91 2.048 1_655 S
O100 C101 1.195 . S
C101 O100 1.195 . S
C101 O102 1.313 . S
O102 C101 1.313 . S
O103 Mg91 2.141 . S
O103 C94 1.289 . S
Mg104 O111 2.141 . S
Mg104 O112 2.048 . S
Mg104 O113 2.048 . S
Mg104 O116 2.141 . S
C105 O106 1.313 . S
C105 O112 1.195 . S
O106 C105 1.313 . S
C107 O108 1.245 . S
C107 O116 1.289 . S
O108 C107 1.245 . S
C109 O110 1.245 . S
C109 O111 1.289 . S
O110 C109 1.245 . S
O111 Mg104 2.141 . S
O111 C109 1.289 . S
O112 Mg104 2.048 . S
O112 C105 1.195 . S
O113 Mg104 2.048 . S
O113 C114 1.195 . S
C114 O113 1.195 . S
C114 O115 1.313 . S
O115 C114 1.313 . S
O116 Mg104 2.141 . S
O116 C107 1.289 . S
Mg117 O124 2.141 . S
Mg117 O125 2.048 1_556 S
Mg117 O126 2.048 1_556 S
Mg117 O129 2.141 . S
C118 O119 1.313 . S
C118 O125 1.195 . S
O119 C118 1.313 . S
C120 O121 1.245 . S
C120 O129 1.289 . S
O121 C120 1.245 . S
C122 O123 1.245 . S
C122 O124 1.289 . S
O123 C122 1.245 . S
O124 Mg117 2.141 . S
O124 C122 1.289 . S
O125 Mg117 2.048 1_554 S
O125 C118 1.195 . S
O126 Mg117 2.048 1_554 S
O126 C127 1.195 . S
C127 O126 1.195 . S
C127 O128 1.313 . S
O128 C127 1.313 . S
O129 Mg117 2.141 . S
O129 C120 1.289 . S
Mg130 O137 2.141 . S
Mg130 O138 2.048 . S
Mg130 O139 2.048 . S
Mg130 O142 2.141 . S
C131 O132 1.313 . S
C131 O138 1.195 . S
O132 C131 1.313 . S
C133 O134 1.245 . S
C133 O142 1.289 . S
O134 C133 1.245 . S
C135 O136 1.245 . S
C135 O137 1.289 . S
O136 C135 1.245 . S
O137 Mg130 2.141 . S
O137 C135 1.289 . S
O138 Mg130 2.048 . S
O138 C131 1.195 . S
O139 Mg130 2.048 . S
O139 C140 1.195 . S
C140 O139 1.195 . S
C140 O141 1.313 . S
O141 C140 1.313 . S
O142 Mg130 2.141 . S
O142 C133 1.289 . S
Mg143 O150 2.141 . S
Mg143 O151 2.048 1_556 S
Mg143 O152 2.048 1_556 S
Mg143 O155 2.141 . S
C144 O145 1.313 . S
C144 O151 1.195 . S
O145 C144 1.313 . S
C146 O147 1.245 . S
C146 O155 1.289 . S
O147 C146 1.245 . S
C148 O149 1.245 . S
C148 O150 1.289 . S
O149 C148 1.245 . S
O150 Mg143 2.141 . S
O150 C148 1.289 . S
O151 Mg143 2.048 1_554 S
O151 C144 1.195 . S
O152 Mg143 2.048 1_554 S
O152 C153 1.195 . S
C153 O152 1.195 . S
C153 O154 1.313 . S
O154 C153 1.313 . S
O155 Mg143 2.141 . S
O155 C146 1.289 . S
Mg156 O163 2.141 . S
Mg156 O164 2.048 . S
Mg156 O165 2.048 . S
Mg156 O168 2.141 . S
C157 O158 1.313 . S
C157 O164 1.195 . S
O158 C157 1.313 . S
C159 O160 1.245 . S
C159 O168 1.289 . S
O160 C159 1.245 . S
C161 O162 1.245 . S
C161 O163 1.289 . S
O162 C161 1.245 . S
O163 Mg156 2.141 . S
O163 C161 1.289 . S
O164 Mg156 2.048 . S
O164 C157 1.195 . S
O165 Mg156 2.048 . S
O165 C166 1.195 . S
C166 O165 1.195 . S
C166 O167 1.313 . S
O167 C166 1.313 . S
O168 Mg156 2.141 . S
O168 C159 1.289 . S
Mg169 O176 2.141 . S
Mg169 O177 2.048 1_554 S
Mg169 O178 2.048 1_554 S
Mg169 O181 2.141 . S
C170 O171 1.313 . S
C170 O177 1.195 . S
O171 C170 1.313 . S
C172 O173 1.245 . S
C172 O181 1.289 . S
O173 C172 1.245 . S
C174 O175 1.245 . S
C174 O176 1.289 . S
O175 C174 1.245 . S
O176 Mg169 2.141 . S
O176 C174 1.289 . S
O177 Mg169 2.048 1_556 S
O177 C170 1.195 . S
O178 Mg169 2.048 1_556 S
O178 C179 1.195 . S
C179 O178 1.195 . S
C179 O180 1.313 . S
O180 C179 1.313 . S
O181 Mg169 2.141 . S
O181 C172 1.289 . S
Mg182 O189 2.141 . S
Mg182 O190 2.048 . S
Mg182 O191 2.048 . S
Mg182 O194 2.141 . S
C183 O184 1.313 . S
C183 O190 1.195 . S
O184 C183 1.313 . S
C185 O186 1.245 . S
C185 O194 1.289 . S
O186 C185 1.245 . S
C187 O188 1.245 . S
C187 O189 1.289 . S
O188 C187 1.245 . S
O189 Mg182 2.141 . S
O189 C187 1.289 . S
O190 Mg182 2.048 . S
O190 C183 1.195 . S
O191 Mg182 2.048 . S
O191 C192 1.195 . S
C192 O191 1.195 . S
C192 O193 1.313 . S
O193 C192 1.313 . S
O194 Mg182 2.141 . S
O194 C185 1.289 . S
Mg195 O202 2.141 . S
Mg195 O203 2.048 1_554 S
Mg195 O204 2.048 1_554 S
Mg195 O207 2.141 . S
C196 O197 1.313 . S
C196 O203 1.195 . S
O197 C196 1.313 . S
C198 O199 1.245 . S
C198 O207 1.289 . S
O199 C198 1.245 . S
C200 O201 1.245 . S
C200 O202 1.289 . S
O201 C200 1.245 . S
O202 Mg195 2.141 . S
O202 C200 1.289 . S
O203 Mg195 2.048 1_556 S
O203 C196 1.195 . S
O204 Mg195 2.048 1_556 S
O204 C205 1.195 . S
C205 O204 1.195 . S
C205 O206 1.313 . S
O206 C205 1.313 . S
O207 Mg195 2.141 . S
O207 C198 1.289 . S
Mg208 O215 2.141 . S
Mg208 O216 2.048 . S
Mg208 O217 2.048 . S
Mg208 O220 2.141 . S
C209 O210 1.313 . S
C209 O216 1.195 . S
O210 C209 1.313 . S
C211 O212 1.245 . S
C211 O220 1.289 . S
O212 C211 1.245 . S
C213 O214 1.245 . S
C213 O215 1.289 . S
O214 C213 1.245 . S
O215 Mg208 2.141 . S
O215 C213 1.289 . S
O216 Mg208 2.048 . S
O216 C209 1.195 . S
O217 Mg208 2.048 . S
O217 C218 1.195 . S
C218 O217 1.195 . S
C218 O219 1.313 . S
O219 C218 1.313 . S
O220 Mg208 2.141 . S
O220 C211 1.289 . S
Mg221 O228 2.141 . S
Mg221 O229 2.048 . S
Mg221 O230 2.048 . S
Mg221 O233 2.141 . S
C222 O223 1.313 . S
C222 O229 1.195 . S
O223 C222 1.313 . S
C224 O225 1.245 . S
C224 O233 1.289 . S
O225 C224 1.245 . S
C226 O227 1.245 . S
C226 O228 1.289 . S
O227 C226 1.245 . S
O228 Mg221 2.141 . S
O228 C226 1.289 . S
O229 Mg221 2.048 . S
O229 C222 1.195 . S
O230 Mg221 2.048 . S
O230 C231 1.195 . S
C231 O230 1.195 . S
C231 O232 1.313 . S
O232 C231 1.313 . S
O233 Mg221 2.141 . S
O233 C224 1.289 . S
Mg234 O241 2.141 . S
Mg234 O242 2.048 . S
Mg234 O243 2.048 . S
Mg234 O246 2.141 . S
C235 O236 1.313 . S
C235 O242 1.195 . S
O236 C235 1.313 . S
C237 O238 1.245 . S
C237 O246 1.289 . S
O238 C237 1.245 . S
C239 O240 1.245 . S
C239 O241 1.289 . S
O240 C239 1.245 . S
O241 Mg234 2.141 . S
O241 C239 1.289 . S
O242 Mg234 2.048 . S
O242 C235 1.195 . S
O243 Mg234 2.048 . S
O243 C244 1.195 . S
C244 O243 1.195 . S
C244 O245 1.313 . S
O245 C244 1.313 . S
O246 Mg234 2.141 . S
O246 C237 1.289 . S
Mg247 O254 2.141 . S
Mg247 O255 2.048 . S
Mg247 O256 2.048 . S
Mg247 O259 2.141 . S
C248 O249 1.313 . S
C248 O255 1.195 . S
O249 C248 1.313 . S
C250 O251 1.245 . S
C250 O259 1.289 . S
O251 C250 1.245 . S
C252 O253 1.245 . S
C252 O254 1.289 . S
O253 C252 1.245 . S
O254 Mg247 2.141 . S
O254 C252 1.289 . S
O255 Mg247 2.048 . S
O255 C248 1.195 . S
O256 Mg247 2.048 . S
O256 C257 1.195 . S
C257 O256 1.195 . S
C257 O258 1.313 . S
O258 C257 1.313 . S
O259 Mg247 2.141 . S
O259 C250 1.289 . S
Mg260 O267 2.141 . S
Mg260 O268 2.048 . S
Mg260 O269 2.048 . S
Mg260 O272 2.141 . S
C261 O262 1.313 . S
C261 O268 1.195 . S
O262 C261 1.313 . S
C263 O264 1.245 . S
C263 O272 1.289 . S
O264 C263 1.245 . S
C265 O266 1.245 . S
C265 O267 1.289 . S
O266 C265 1.245 . S
O267 Mg260 2.141 . S
O267 C265 1.289 . S
O268 Mg260 2.048 . S
O268 C261 1.195 . S
O269 Mg260 2.048 . S
O269 C270 1.195 . S
C270 O269 1.195 . S
C270 O271 1.313 . S
O271 C270 1.313 . S
O272 Mg260 2.141 . S
O272 C263 1.289 . S
Mg273 O280 2.141 . S
Mg273 O281 2.048 . S
Mg273 O282 2.048 . S
Mg273 O285 2.141 . S
C274 O275 1.313 . S
C274 O281 1.195 . S
O275 C274 1.313 . S
C276 O277 1.245 . S
C276 O285 1.289 . S
O277 C276 1.245 . S
C278 O279 1.245 . S
C278 O280 1.289 . S
O279 C278 1.245 . S
O280 Mg273 2.141 . S
O280 C278 1.289 . S
O281 Mg273 2.048 . S
O281 C274 1.195 . S
O282 Mg273 2.048 . S
O282 C283 1.195 . S
C283 O282 1.195 . S
C283 O284 1.313 . S
O284 C283 1.313 . S
O285 Mg273 2.141 . S
O285 C276 1.289 . S
Mg286 O293 2.141 . S
Mg286 O294 2.048 . S
Mg286 O295 2.048 . S
Mg286 O298 2.141 . S
C287 O288 1.313 . S
C287 O294 1.195 . S
O288 C287 1.313 . S
C289 O290 1.245 . S
C289 O298 1.289 . S
O290 C289 1.245 . S
C291 O292 1.245 . S
C291 O293 1.289 . S
O292 C291 1.245 . S
O293 Mg286 2.141 . S
O293 C291 1.289 . S
O294 Mg286 2.048 . S
O294 C287 1.195 . S
O295 Mg286 2.048 . S
O295 C296 1.195 . S
C296 O295 1.195 . S
C296 O297 1.313 . S
O297 C296 1.313 . S
O298 Mg286 2.141 . S
O298 C289 1.289 . S
Mg299 O306 2.141 1_545 S
Mg299 O307 2.048 . S
Mg299 O308 2.048 . S
Mg299 O311 2.141 1_545 S
C300 O301 1.313 . S
C300 O307 1.195 . S
O301 C300 1.313 . S
C302 O303 1.245 . S
C302 O311 1.289 . S
O303 C302 1.245 . S
C304 O305 1.245 . S
C304 O306 1.289 . S
O305 C304 1.245 . S
O306 Mg299 2.141 1_565 S
O306 C304 1.289 . S
O307 Mg299 2.048 . S
O307 C300 1.195 . S
O308 Mg299 2.048 . S
O308 C309 1.195 . S
C309 O308 1.195 . S
C309 O310 1.313 . S
O310 C309 1.313 . S
O311 Mg299 2.141 1_565 S
O311 C302 1.289 . S
Mg312 O319 2.141 . S
Mg312 O320 2.048 . S
Mg312 O321 2.048 . S
Mg312 O324 2.141 . S
C313 O314 1.313 . S
C313 O320 1.195 . S
O314 C313 1.313 . S
C315 O316 1.245 . S
C315 O324 1.289 . S
O316 C315 1.245 . S
C317 O318 1.245 . S
C317 O319 1.289 . S
O318 C317 1.245 . S
O319 Mg312 2.141 . S
O319 C317 1.289 . S
O320 Mg312 2.048 . S
O320 C313 1.195 . S
O321 Mg312 2.048 . S
O321 C322 1.195 . S
C322 O321 1.195 . S
C322 O323 1.313 . S
O323 C322 1.313 . S
O324 Mg312 2.141 . S
O324 C315 1.289 . S
Mg325 O332 2.141 . S
Mg325 O333 2.048 1_455 S
Mg325 O334 2.048 1_455 S
Mg325 O337 2.141 . S
C326 O327 1.313 . S
C326 O333 1.195 . S
O327 C326 1.313 . S
C328 O329 1.245 . S
C328 O337 1.289 . S
O329 C328 1.245 . S
C330 O331 1.245 . S
C330 O332 1.289 . S
O331 C330 1.245 . S
O332 Mg325 2.141 . S
O332 C330 1.289 . S
O333 Mg325 2.048 1_655 S
O333 C326 1.195 . S
O334 Mg325 2.048 1_655 S
O334 C335 1.195 . S
C335 O334 1.195 . S
C335 O336 1.313 . S
O336 C335 1.313 . S
O337 Mg325 2.141 . S
O337 C328 1.289 . S
Mg338 O345 2.141 . S
Mg338 O346 2.048 . S
Mg338 O347 2.048 . S
Mg338 O350 2.141 . S
C339 O340 1.313 . S
C339 O346 1.195 . S
O340 C339 1.313 . S
C341 O342 1.245 . S
C341 O350 1.289 . S
O342 C341 1.245 . S
C343 O344 1.245 . S
C343 O345 1.289 . S
O344 C343 1.245 . S
O345 Mg338 2.141 . S
O345 C343 1.289 . S
O346 Mg338 2.048 . S
O346 C339 1.195 . S
O347 Mg338 2.048 . S
O347 C348 1.195 . S
C348 O347 1.195 . S
C348 O349 1.313 . S
O349 C348 1.313 . S
O350 Mg338 2.141 . S
O350 C341 1.289 . S
Mg351 O358 2.141 . S
Mg351 O359 2.048 1_655 S
Mg351 O360 2.048 1_655 S
Mg351 O363 2.141 . S
C352 O353 1.313 . S
C352 O359 1.195 . S
O353 C352 1.313 . S
C354 O355 1.245 . S
C354 O363 1.289 . S
O355 C354 1.245 . S
C356 O357 1.245 . S
C356 O358 1.289 . S
O357 C356 1.245 . S
O358 Mg351 2.141 . S
O358 C356 1.289 . S
O359 Mg351 2.048 1_455 S
O359 C352 1.195 . S
O360 Mg351 2.048 1_455 S
O360 C361 1.195 . S
C361 O360 1.195 . S
C361 O362 1.313 . S
O362 C361 1.313 . S
O363 Mg351 2.141 . S
O363 C354 1.289 . S
Mg364 O371 2.141 . S
Mg364 O372 2.048 . S
Mg364 O373 2.048 . S
Mg364 O376 2.141 . S
C365 O366 1.313 . S
C365 O372 1.195 . S
O366 C365 1.313 . S
C367 O368 1.245 . S
C367 O376 1.289 . S
O368 C367 1.245 . S
C369 O370 1.245 . S
C369 O371 1.289 . S
O370 C369 1.245 . S
O371 Mg364 2.141 . S
O371 C369 1.289 . S
O372 Mg364 2.048 . S
O372 C365 1.195 . S
O373 Mg364 2.048 . S
O373 C374 1.195 . S
C374 O373 1.195 . S
C374 O375 1.313 . S
O375 C374 1.313 . S
O376 Mg364 2.141 . S
O376 C367 1.289 . S
Mg377 O384 2.141 . S
Mg377 O385 2.048 . S
Mg377 O386 2.048 . S
Mg377 O389 2.141 . S
C378 O379 1.313 . S
C378 O385 1.195 . S
O379 C378 1.313 . S
C380 O381 1.245 . S
C380 O389 1.289 . S
O381 C380 1.245 . S
C382 O383 1.245 . S
C382 O384 1.289 . S
O383 C382 1.245 . S
O384 Mg377 2.141 . S
O384 C382 1.289 . S
O385 Mg377 2.048 . S
O385 C378 1.195 . S
O386 Mg377 2.048 . S
O386 C387 1.195 . S
C387 O386 1.195 . S
C387 O388 1.313 . S
O388 C387 1.313 . S
O389 Mg377 2.141 . S
O389 C380 1.289 . S
Mg390 O397 2.141 . S
Mg390 O398 2.048 . S
Mg390 O399 2.048 . S
Mg390 O402 2.141 . S
C391 O392 1.313 . S
C391 O398 1.195 . S
O392 C391 1.313 . S
C393 O394 1.245 . S
C393 O402 1.289 . S
O394 C393 1.245 . S
C395 O396 1.245 . S
C395 O397 1.289 . S
O396 C395 1.245 . S
O397 Mg390 2.141 . S
O397 C395 1.289 . S
O398 Mg390 2.048 . S
O398 C391 1.195 . S
O399 Mg390 2.048 . S
O399 C400 1.195 . S
C400 O399 1.195 . S
C400 O401 1.313 . S
O401 C400 1.313 . S
O402 Mg390 2.141 . S
O402 C393 1.289 . S
Mg403 O410 2.141 . S
Mg403 O411 2.048 . S
Mg403 O412 2.048 . S
Mg403 O415 2.141 . S
C404 O405 1.313 . S
C404 O411 1.195 . S
O405 C404 1.313 . S
C406 O407 1.245 . S
C406 O415 1.289 . S
O407 C406 1.245 . S
C408 O409 1.245 . S
C408 O410 1.289 . S
O409 C408 1.245 . S
O410 Mg403 2.141 . S
O410 C408 1.289 . S
O411 Mg403 2.048 . S
O411 C404 1.195 . S
O412 Mg403 2.048 . S
O412 C413 1.195 . S
C413 O412 1.195 . S
C413 O414 1.313 . S
O414 C413 1.313 . S
O415 Mg403 2.141 . S
O415 C406 1.289 . S
Mg416 O423 2.141 . S
Mg416 O424 2.048 . S
Mg416 O425 2.048 . S
Mg416 O428 2.141 . S
C417 O418 1.313 . S
C417 O424 1.195 . S
O418 C417 1.313 . S
C419 O420 1.245 . S
C419 O428 1.289 . S
O420 C419 1.245 . S
C421 O422 1.245 . S
C421 O423 1.289 . S
O422 C421 1.245 . S
O423 Mg416 2.141 . S
O423 C421 1.289 . S
O424 Mg416 2.048 . S
O424 C417 1.195 . S
O425 Mg416 2.048 . S
O425 C426 1.195 . S
C426 O425 1.195 . S
C426 O427 1.313 . S
O427 C426 1.313 . S
O428 Mg416 2.141 . S
O428 C419 1.289 . S
Mg429 O436 2.141 . S
Mg429 O437 2.048 . S
Mg429 O438 2.048 . S
Mg429 O441 2.141 . S
C430 O431 1.313 . S
C430 O437 1.195 . S
O431 C430 1.313 . S
C432 O433 1.245 . S
C432 O441 1.289 . S
O433 C432 1.245 . S
C434 O435 1.245 . S
C434 O436 1.289 . S
O435 C434 1.245 . S
O436 Mg429 2.141 . S
O436 C434 1.289 . S
O437 Mg429 2.048 . S
O437 C430 1.195 . S
O438 Mg429 2.048 . S
O438 C439 1.195 . S
C439 O438 1.195 . S
C439 O440 1.313 . S
O440 C439 1.313 . S
O441 Mg429 2.141 . S
O441 C432 1.289 . S
Mg442 O449 2.141 . S
Mg442 O450 2.048 . S
Mg442 O451 2.048 . S
Mg442 O454 2.141 . S
C443 O444 1.313 . S
C443 O450 1.195 . S
O444 C443 1.313 . S
C445 O446 1.245 . S
C445 O454 1.289 . S
O446 C445 1.245 . S
C447 O448 1.245 . S
C447 O449 1.289 . S
O448 C447 1.245 . S
O449 Mg442 2.141 . S
O449 C447 1.289 . S
O450 Mg442 2.048 . S
O450 C443 1.195 . S
O451 Mg442 2.048 . S
O451 C452 1.195 . S
C452 O451 1.195 . S
C452 O453 1.313 . S
O453 C452 1.313 . S
O454 Mg442 2.141 . S
O454 C445 1.289 . S
Mg455 O462 2.141 . S
Mg455 O463 2.048 . S
Mg455 O464 2.048 . S
Mg455 O467 2.141 . S
C456 O457 1.313 . S
C456 O463 1.195 . S
O457 C456 1.313 . S
C458 O459 1.245 . S
C458 O467 1.289 . S
O459 C458 1.245 . S
C460 O461 1.245 . S
C460 O462 1.289 . S
O461 C460 1.245 . S
O462 Mg455 2.141 . S
O462 C460 1.289 . S
O463 Mg455 2.048 . S
O463 C456 1.195 . S
O464 Mg455 2.048 . S
O464 C465 1.195 . S
C465 O464 1.195 . S
C465 O466 1.313 . S
O466 C465 1.313 . S
O467 Mg455 2.141 . S
O467 C458 1.289 . S
Mg468 O475 2.141 . S
Mg468 O476 2.048 . S
Mg468 O477 2.048 . S
Mg468 O480 2.141 . S
C469 O470 1.313 . S
C469 O476 1.195 . S
O470 C469 1.313 . S
C471 O472 1.245 . S
C471 O480 1.289 . S
O472 C471 1.245 . S
C473 O474 1.245 . S
C473 O475 1.289 . S
O474 C473 1.245 . S
O475 Mg468 2.141 . S
O475 C473 1.289 . S
O476 Mg468 2.048 . S
O476 C469 1.195 . S
O477 Mg468 2.048 . S
O477 C478 1.195 . S
C478 O477 1.195 . S
C478 O479 1.313 . S
O479 C478 1.313 . S
O480 Mg468 2.141 . S
O480 C471 1.289 . S
Mg481 O488 2.141 . S
Mg481 O489 2.048 . S
Mg481 O490 2.048 . S
Mg481 O493 2.141 . S
C482 O483 1.313 . S
C482 O489 1.195 . S
O483 C482 1.313 . S
C484 O485 1.245 . S
C484 O493 1.289 . S
O485 C484 1.245 . S
C486 O487 1.245 . S
C486 O488 1.289 . S
O487 C486 1.245 . S
O488 Mg481 2.141 . S
O488 C486 1.289 . S
O489 Mg481 2.048 . S
O489 C482 1.195 . S
O490 Mg481 2.048 . S
O490 C491 1.195 . S
C491 O490 1.195 . S
C491 O492 1.313 . S
O492 C491 1.313 . S
O493 Mg481 2.141 . S
O493 C484 1.289 . S
Mg494 O501 2.141 . S
Mg494 O502 2.048 . S
Mg494 O503 2.048 . S
Mg494 O506 2.141 . S
C495 O496 1.313 . S
C495 O502 1.195 . S
O496 C495 1.313 . S
C497 O498 1.245 . S
C497 O506 1.289 . S
O498 C497 1.245 . S
C499 O500 1.245 . S
C499 O501 1.289 . S
O500 C499 1.245 . S
O501 Mg494 2.141 . S
O501 C499 1.289 . S
O502 Mg494 2.048 . S
O502 C495 1.195 . S
O503 Mg494 2.048 . S
O503 C504 1.195 . S
C504 O503 1.195 . S
C504 O505 1.313 . S
O505 C504 1.313 . S
O506 Mg494 2.141 . S
O506 C497 1.289 . S
Mg507 O514 2.141 . S
Mg507 O515 2.048 . S
Mg507 O516 2.048 . S
Mg507 O519 2.141 . S
C508 O509 1.313 . S
C508 O515 1.195 . S
O509 C508 1.313 . S
C510 O511 1.245 . S
C510 O519 1.289 . S
O511 C510 1.245 . S
C512 O513 1.245 . S
C512 O514 1.289 . S
O513 C512 1.245 . S
O514 Mg507 2.141 . S
O514 C512 1.289 . S
O515 Mg507 2.048 . S
O515 C508 1.195 . S
O516 Mg507 2.048 . S
O516 C517 1.195 . S
C517 O516 1.195 . S
C517 O518 1.313 . S
O518 C517 1.313 . S
O519 Mg507 2.141 . S
O519 C510 1.289 . S
Mg520 O527 2.141 . S
Mg520 O528 2.048 . S
Mg520 O529 2.048 . S
Mg520 O532 2.141 . S
C521 O522 1.313 . S
C521 O528 1.195 . S
O522 C521 1.313 . S
C523 O524 1.245 . S
C523 O532 1.289 . S
O524 C523 1.245 . S
C525 O526 1.245 . S
C525 O527 1.289 . S
O526 C525 1.245 . S
O527 Mg520 2.141 . S
O527 C525 1.289 . S
O528 Mg520 2.048 . S
O528 C521 1.195 . S
O529 Mg520 2.048 . S
O529 C530 1.195 . S
C530 O529 1.195 . S
C530 O531 1.313 . S
O531 C530 1.313 . S
O532 Mg520 2.141 . S
O532 C523 1.289 . S
Mg533 O540 2.141 . S
Mg533 O541 2.048 . S
Mg533 O542 2.048 . S
Mg533 O545 2.141 . S
C534 O535 1.313 . S
C534 O541 1.195 . S
O535 C534 1.313 . S
C536 O537 1.245 . S
C536 O545 1.289 . S
O537 C536 1.245 . S
C538 O539 1.245 . S
C538 O540 1.289 . S
O539 C538 1.245 . S
O540 Mg533 2.141 . S
O540 C538 1.289 . S
O541 Mg533 2.048 . S
O541 C534 1.195 . S
O542 Mg533 2.048 . S
O542 C543 1.195 . S
C543 O542 1.195 . S
C543 O544 1.313 . S
O544 C543 1.313 . S
O545 Mg533 2.141 . S
O545 C536 1.289 . S
Mg546 O553 2.141 1_545 S
Mg546 O554 2.048 . S
Mg546 O555 2.048 . S
Mg546 O558 2.141 1_545 S
C547 O548 1.313 . S
C547 O554 1.195 . S
O548 C547 1.313 . S
C549 O550 1.245 . S
C549 O558 1.289 . S
O550 C549 1.245 . S
C551 O552 1.245 . S
C551 O553 1.289 . S
O552 C551 1.245 . S
O553 Mg546 2.141 1_565 S
O553 C551 1.289 . S
O554 Mg546 2.048 . S
O554 C547 1.195 . S
O555 Mg546 2.048 . S
O555 C556 1.195 . S
C556 O555 1.195 . S
C556 O557 1.313 . S
O557 C556 1.313 . S
O558 Mg546 2.141 1_565 S
O558 C549 1.289 . S
Mg559 O566 2.141 . S
Mg559 O567 2.048 . S
Mg559 O568 2.048 . S
Mg559 O571 2.141 . S
C560 O561 1.313 . S
C560 O567 1.195 . S
O561 C560 1.313 . S
C562 O563 1.245 . S
C562 O571 1.289 . S
O563 C562 1.245 . S
C564 O565 1.245 . S
C564 O566 1.289 . S
O565 C564 1.245 . S
O566 Mg559 2.141 . S
O566 C564 1.289 . S
O567 Mg559 2.048 . S
O567 C560 1.195 . S
O568 Mg559 2.048 . S
O568 C569 1.195 . S
C569 O568 1.195 . S
C569 O570 1.313 . S
O570 C569 1.313 . S
O571 Mg559 2.141 . S
O571 C562 1.289 . S
Mg572 O579 2.141 1_565 S
Mg572 O580 2.048 . S
Mg572 O581 2.048 . S
Mg572 O584 2.141 1_565 S
C573 O574 1.313 . S
C573 O580 1.195 . S
O574 C573 1.313 . S
C575 O576 1.245 . S
C575 O584 1.289 . S
O576 C575 1.245 . S
C577 O578 1.245 . S
C577 O579 1.289 . S
O578 C577 1.245 . S
O579 Mg572 2.141 1_545 S
O579 C577 1.289 . S
O580 Mg572 2.048 . S
O580 C573 1.195 . S
O581 Mg572 2.048 . S
O581 C582 1.195 . S
C582 O581 1.195 . S
C582 O583 1.313 . S
O583 C582 1.313 . S
O584 Mg572 2.141 1_545 S
O584 C575 1.289 . S
Mg585 O592 2.141 . S
Mg585 O593 2.048 . S
Mg585 O594 2.048 . S
Mg585 O597 2.141 . S
C586 O587 1.313 . S
C586 O593 1.195 . S
O587 C586 1.313 . S
C588 O589 1.245 . S
C588 O597 1.289 . S
O589 C588 1.245 . S
C590 O591 1.245 . S
C590 O592 1.289 . S
O591 C590 1.245 . S
O592 Mg585 2.141 . S
O592 C590 1.289 . S
O593 Mg585 2.048 . S
O593 C586 1.195 . S
O594 Mg585 2.048 . S
O594 C595 1.195 . S
C595 O594 1.195 . S
C595 O596 1.313 . S
O596 C595 1.313 . S
O597 Mg585 2.141 . S
O597 C588 1.289 . S
Mg598 O605 2.141 1_565 S
Mg598 O606 2.048 . S
Mg598 O607 2.048 . S
Mg598 O610 2.141 1_565 S
C599 O600 1.313 . S
C599 O606 1.195 . S
O600 C599 1.313 . S
C601 O602 1.245 . S
C601 O610 1.289 . S
O602 C601 1.245 . S
C603 O604 1.245 . S
C603 O605 1.289 . S
O604 C603 1.245 . S
O605 Mg598 2.141 1_545 S
O605 C603 1.289 . S
O606 Mg598 2.048 . S
O606 C599 1.195 . S
O607 Mg598 2.048 . S
O607 C608 1.195 . S
C608 O607 1.195 . S
C608 O609 1.313 . S
O609 C608 1.313 . S
O610 Mg598 2.141 1_545 S
O610 C601 1.289 . S
Mg611 O618 2.141 . S
Mg611 O619 2.048 . S
Mg611 O620 2.048 . S
Mg611 O623 2.141 . S
C612 O613 1.313 . S
C612 O619 1.195 . S
O613 C612 1.313 . S
C614 O615 1.245 . S
C614 O623 1.289 . S
O615 C614 1.245 . S
C616 O617 1.245 . S
C616 O618 1.289 . S
O617 C616 1.245 . S
O618 Mg611 2.141 . S
O618 C616 1.289 . S
O619 Mg611 2.048 . S
O619 C612 1.195 . S
O620 Mg611 2.048 . S
O620 C621 1.195 . S
C621 O620 1.195 . S
C621 O622 1.313 . S
O622 C621 1.313 . S
O623 Mg611 2.141 . S
O623 C614 1.289 . S
H624 C632 0.950 . S
H625 C637 0.950 . S
H626 C634 0.950 . S
H627 C636 0.950 . S
H628 C638 0.950 . S
H629 C640 0.950 . S
H630 C642 0.950 . S
H631 C643 0.950 . S
C632 H624 0.950 . S
C632 C633 1.386 . S
C632 C634 1.391 . S
C633 C632 1.386 . S
C633 C637 1.393 . S
C634 H626 0.950 . S
C634 C632 1.391 . S
C634 C635 1.400 . S
C635 C634 1.400 . S
C635 C636 1.398 . S
C635 C641 1.491 . S
C636 H627 0.950 . S
C636 C635 1.398 . S
C636 C637 1.391 . S
C637 H625 0.950 . S
C637 C633 1.393 . S
C637 C636 1.391 . S
C638 H628 0.950 . S
C638 C639 1.386 . S
C638 C640 1.391 . S
C639 C638 1.386 . S
C639 C643 1.393 . S
C640 H629 0.950 . S
C640 C638 1.391 . S
C640 C641 1.400 . S
C641 C635 1.491 . S
C641 C640 1.400 . S
C641 C642 1.398 . S
C642 H630 0.950 . S
C642 C641 1.398 . S
C642 C643 1.391 . S
C643 H631 0.950 . S
C643 C639 1.393 . S
C643 C642 1.391 . S
H644 C652 0.950 . S
H645 C657 0.950 . S
H646 C654 0.950 1_556 S
H647 C656 0.950 . S
H648 C658 0.950 . S
H649 C660 0.950 . S
H650 C662 0.950 . S
H651 C663 0.950 . S
C652 H644 0.950 . S
C652 C653 1.386 . S
C652 C654 1.391 . S
C653 C652 1.386 . S
C653 C657 1.393 . S
C654 H646 0.950 1_554 S
C654 C652 1.391 . S
C654 C655 1.400 . S
C655 C654 1.400 . S
C655 C656 1.395 . S
C655 C661 1.494 1_554 S
C656 H647 0.950 . S
C656 C655 1.395 . S
C656 C657 1.391 . S
C657 H645 0.950 . S
C657 C653 1.393 . S
C657 C656 1.391 . S
C658 H648 0.950 . S
C658 C659 1.386 . S
C658 C660 1.391 . S
C659 C658 1.386 . S
C659 C663 1.393 . S
C660 H649 0.950 . S
C660 C658 1.391 . S
C660 C661 1.400 . S
C661 C655 1.494 1_556 S
C661 C660 1.400 . S
C661 C662 1.398 . S
C662 H650 0.950 . S
C662 C661 1.398 . S
C662 C663 1.391 . S
C663 H651 0.950 . S
C663 C659 1.393 . S
C663 C662 1.391 . S
H664 C672 0.950 . S
H665 C677 0.950 . S
H666 C674 0.950 . S
H667 C676 0.950 . S
H668 C678 0.950 . S
H669 C680 0.950 . S
H670 C682 0.950 . S
H671 C683 0.950 . S
C672 H664 0.950 . S
C672 C673 1.386 . S
C672 C674 1.391 . S
C673 C672 1.386 . S
C673 C677 1.393 . S
C674 H666 0.950 . S
C674 C672 1.391 . S
C674 C675 1.400 . S
C675 C674 1.400 . S
C675 C676 1.398 . S
C675 C681 1.491 . S
C676 H667 0.950 . S
C676 C675 1.398 . S
C676 C677 1.391 . S
C677 H665 0.950 . S
C677 C673 1.393 . S
C677 C676 1.391 . S
C678 H668 0.950 . S
C678 C679 1.386 . S
C678 C680 1.391 . S
C679 C678 1.386 . S
C679 C683 1.393 . S
C680 H669 0.950 . S
C680 C678 1.391 . S
C680 C681 1.400 . S
C681 C675 1.491 . S
C681 C680 1.400 . S
C681 C682 1.398 . S
C682 H670 0.950 . S
C682 C681 1.398 . S
C682 C683 1.391 . S
C683 H671 0.950 . S
C683 C679 1.393 . S
C683 C682 1.391 . S
H684 C692 0.950 . S
H685 C697 0.950 . S
H686 C694 0.950 . S
H687 C696 0.950 . S
H688 C698 0.950 . S
H689 C700 0.950 . S
H690 C702 0.950 . S
H691 C703 0.950 . S
C692 H684 0.950 . S
C692 C693 1.386 . S
C692 C694 1.391 . S
C693 C692 1.386 . S
C693 C697 1.393 . S
C694 H686 0.950 . S
C694 C692 1.391 . S
C694 C695 1.400 . S
C695 C694 1.400 . S
C695 C696 1.398 . S
C695 C701 1.491 1_556 S
C696 H687 0.950 . S
C696 C695 1.398 . S
C696 C697 1.391 . S
C697 H685 0.950 . S
C697 C693 1.393 . S
C697 C696 1.391 . S
C698 H688 0.950 . S
C698 C699 1.386 . S
C698 C700 1.391 . S
C699 C698 1.386 . S
C699 C703 1.393 . S
C700 H689 0.950 . S
C700 C698 1.391 . S
C700 C701 1.400 . S
C701 C695 1.491 1_554 S
C701 C700 1.400 . S
C701 C702 1.398 . S
C702 H690 0.950 . S
C702 C701 1.398 . S
C702 C703 1.391 . S
C703 H691 0.950 . S
C703 C699 1.393 . S
C703 C702 1.391 . S
H704 C712 0.950 . S
H705 C717 0.950 . S
H706 C714 0.950 . S
H707 C716 0.950 . S
H708 C718 0.950 . S
H709 C720 0.950 . S
H710 C722 0.950 . S
H711 C723 0.950 . S
C712 H704 0.950 . S
C712 C713 1.386 . S
C712 C714 1.391 . S
C713 C712 1.386 . S
C713 C717 1.393 . S
C714 H706 0.950 . S
C714 C712 1.391 . S
C714 C715 1.400 . S
C715 C714 1.400 . S
C715 C716 1.398 . S
C715 C721 1.491 . S
C716 H707 0.950 . S
C716 C715 1.398 . S
C716 C717 1.391 . S
C717 H705 0.950 . S
C717 C713 1.393 . S
C717 C716 1.391 . S
C718 H708 0.950 . S
C718 C719 1.386 . S
C718 C720 1.391 . S
C719 C718 1.386 . S
C719 C723 1.393 . S
C720 H709 0.950 . S
C720 C718 1.391 . S
C720 C721 1.400 . S
C721 C715 1.491 . S
C721 C720 1.400 . S
C721 C722 1.398 . S
C722 H710 0.950 . S
C722 C721 1.398 . S
C722 C723 1.391 . S
C723 H711 0.950 . S
C723 C719 1.393 . S
C723 C722 1.391 . S
H724 C732 0.950 . S
H725 C737 0.950 . S
H726 C734 0.950 . S
H727 C736 0.950 . S
H728 C738 0.950 . S
H729 C740 0.950 . S
H730 C742 0.950 1_554 S
H731 C743 0.950 . S
C732 H724 0.950 . S
C732 C733 1.386 . S
C732 C734 1.391 . S
C733 C732 1.386 . S
C733 C737 1.393 . S
C734 H726 0.950 . S
C734 C732 1.391 . S
C734 C735 1.400 . S
C735 C734 1.400 . S
C735 C736 1.398 . S
C735 C741 1.520 . S
C736 H727 0.950 . S
C736 C735 1.398 . S
C736 C737 1.391 . S
C737 H725 0.950 . S
C737 C733 1.393 . S
C737 C736 1.391 . S
C738 H728 0.950 . S
C738 C739 1.386 . S
C738 C740 1.391 . S
C739 C738 1.386 . S
C739 C743 1.393 . S
C740 H729 0.950 . S
C740 C738 1.391 . S
C740 C741 1.374 1_556 S
C741 C735 1.520 . S
C741 C740 1.374 1_554 S
C741 C742 1.394 1_554 S
C742 H730 0.950 1_556 S
C742 C741 1.394 1_556 S
C742 C743 1.391 . S
C743 H731 0.950 . S
C743 C739 1.393 . S
C743 C742 1.391 . S
H744 C752 0.950 . S
H745 C757 0.950 . S
H746 C754 0.950 . S
H747 C756 0.950 . S
H748 C758 0.950 . S
H749 C760 0.950 . S
H750 C762 0.950 . S
H751 C763 0.950 . S
C752 H744 0.950 . S
C752 C753 1.386 . S
C752 C754 1.391 . S
C753 C752 1.386 . S
C753 C757 1.393 . S
C754 H746 0.950 . S
C754 C752 1.391 . S
C754 C755 1.400 . S
C755 C754 1.400 . S
C755 C756 1.398 . S
C755 C761 1.491 . S
C756 H747 0.950 . S
C756 C755 1.398 . S
C756 C757 1.391 . S
C757 H745 0.950 . S
C757 C753 1.393 . S
C757 C756 1.391 . S
C758 H748 0.950 . S
C758 C759 1.386 . S
C758 C760 1.391 . S
C759 C758 1.386 . S
C759 C763 1.393 . S
C760 H749 0.950 . S
C760 C758 1.391 . S
C760 C761 1.400 . S
C761 C755 1.491 . S
C761 C760 1.400 . S
C761 C762 1.398 . S
C762 H750 0.950 . S
C762 C761 1.398 . S
C762 C763 1.391 . S
C763 H751 0.950 . S
C763 C759 1.393 . S
C763 C762 1.391 . S
H764 C772 0.950 . S
H765 C777 0.950 . S
H766 C774 0.950 . S
H767 C776 0.950 1_554 S
H768 C778 0.950 . S
H769 C780 0.950 . S
H770 C782 0.950 . S
H771 C783 0.950 . S
C772 H764 0.950 . S
C772 C773 1.386 . S
C772 C774 1.391 . S
C773 C772 1.386 . S
C773 C777 1.393 . S
C774 H766 0.950 . S
C774 C772 1.391 . S
C774 C775 1.400 . S
C775 C774 1.400 . S
C775 C776 1.398 . S
C775 C781 1.491 1_556 S
C776 H767 0.950 1_556 S
C776 C775 1.398 . S
C776 C777 1.391 . S
C777 H765 0.950 . S
C777 C773 1.393 . S
C777 C776 1.391 . S
C778 H768 0.950 . S
C778 C779 1.386 . S
C778 C780 1.391 . S
C779 C778 1.386 . S
C779 C783 1.393 . S
C780 H769 0.950 . S
C780 C778 1.391 . S
C780 C781 1.400 . S
C781 C775 1.491 1_554 S
C781 C780 1.400 . S
C781 C782 1.398 . S
C782 H770 0.950 . S
C782 C781 1.398 . S
C782 C783 1.391 . S
C783 H771 0.950 . S
C783 C779 1.393 . S
C783 C782 1.391 . S
H784 C792 0.950 . S
H785 C797 0.950 . S
H786 C794 0.950 . S
H787 C796 0.950 . S
H788 C798 0.950 . S
H789 C800 0.950 . S
H790 C802 0.950 . S
H791 C803 0.950 . S
C792 H784 0.950 . S
C792 C793 1.386 . S
C792 C794 1.391 . S
C793 C792 1.386 . S
C793 C797 1.393 . S
C794 H786 0.950 . S
C794 C792 1.391 . S
C794 C795 1.400 . S
C795 C794 1.400 . S
C795 C796 1.398 . S
C795 C801 1.491 . S
C796 H787 0.950 . S
C796 C795 1.398 . S
C796 C797 1.391 . S
C797 H785 0.950 . S
C797 C793 1.393 . S
C797 C796 1.391 . S
C798 H788 0.950 . S
C798 C799 1.386 . S
C798 C800 1.391 . S
C799 C798 1.386 . S
C799 C803 1.393 . S
C800 H789 0.950 . S
C800 C798 1.391 . S
C800 C801 1.400 . S
C801 C795 1.491 . S
C801 C800 1.400 . S
C801 C802 1.398 . S
C802 H790 0.950 . S
C802 C801 1.398 . S
C802 C803 1.391 . S
C803 H791 0.950 . S
C803 C799 1.393 . S
C803 C802 1.391 . S
H804 C812 0.950 . S
H805 C817 0.950 . S
H806 C814 0.950 . S
H807 C816 0.950 . S
H808 C818 0.950 . S
H809 C820 0.950 . S
H810 C822 0.950 . S
H811 C823 0.950 . S
C812 H804 0.950 . S
C812 C813 1.386 . S
C812 C814 1.391 . S
C813 C812 1.386 . S
C813 C817 1.393 . S
C814 H806 0.950 . S
C814 C812 1.391 . S
C814 C815 1.400 . S
C815 C814 1.400 . S
C815 C816 1.398 . S
C815 C821 1.491 . S
C816 H807 0.950 . S
C816 C815 1.398 . S
C816 C817 1.391 . S
C817 H805 0.950 . S
C817 C813 1.393 . S
C817 C816 1.391 . S
C818 H808 0.950 . S
C818 C819 1.386 . S
C818 C820 1.391 . S
C819 C818 1.386 . S
C819 C823 1.393 . S
C820 H809 0.950 . S
C820 C818 1.391 . S
C820 C821 1.400 . S
C821 C815 1.491 . S
C821 C820 1.400 . S
C821 C822 1.398 . S
C822 H810 0.950 . S
C822 C821 1.398 . S
C822 C823 1.391 . S
C823 H811 0.950 . S
C823 C819 1.393 . S
C823 C822 1.391 . S
H824 C832 0.950 . S
H825 C837 0.950 . S
H826 C834 0.950 . S
H827 C836 0.950 . S
H828 C838 0.950 . S
H829 C840 0.950 . S
H830 C842 0.950 . S
H831 C843 0.950 . S
C832 H824 0.950 . S
C832 C833 1.386 . S
C832 C834 1.391 . S
C833 C832 1.386 . S
C833 C837 1.393 . S
C834 H826 0.950 . S
C834 C832 1.391 . S
C834 C835 1.400 . S
C835 C834 1.400 . S
C835 C836 1.398 . S
C835 C841 1.491 . S
C836 H827 0.950 . S
C836 C835 1.398 . S
C836 C837 1.391 . S
C837 H825 0.950 . S
C837 C833 1.393 . S
C837 C836 1.391 . S
C838 H828 0.950 . S
C838 C839 1.386 . S
C838 C840 1.391 . S
C839 C838 1.386 . S
C839 C843 1.393 . S
C840 H829 0.950 . S
C840 C838 1.391 . S
C840 C841 1.400 . S
C841 C835 1.491 . S
C841 C840 1.400 . S
C841 C842 1.398 . S
C842 H830 0.950 . S
C842 C841 1.398 . S
C842 C843 1.391 . S
C843 H831 0.950 . S
C843 C839 1.393 . S
C843 C842 1.391 . S
H844 C852 0.950 . S
H845 C857 0.950 . S
H846 C854 0.950 . S
H847 C856 0.950 1_545 S
H848 C858 0.950 . S
H849 C860 0.950 . S
H850 C862 0.950 . S
H851 C863 0.950 . S
C852 H844 0.950 . S
C852 C853 1.386 . S
C852 C854 1.391 . S
C853 C852 1.386 . S
C853 C857 1.393 . S
C854 H846 0.950 . S
C854 C852 1.391 . S
C854 C855 1.379 1_565 S
C855 C854 1.379 1_545 S
C855 C856 1.396 1_545 S
C855 C861 1.513 . S
C856 H847 0.950 1_565 S
C856 C855 1.396 1_565 S
C856 C857 1.391 . S
C857 H845 0.950 . S
C857 C853 1.393 . S
C857 C856 1.391 . S
C858 H848 0.950 . S
C858 C859 1.386 . S
C858 C860 1.391 . S
C859 C858 1.386 . S
C859 C863 1.393 . S
C860 H849 0.950 . S
C860 C858 1.391 . S
C860 C861 1.400 . S
C861 C855 1.513 . S
C861 C860 1.400 . S
C861 C862 1.398 . S
C862 H850 0.950 . S
C862 C861 1.398 . S
C862 C863 1.391 . S
C863 H851 0.950 . S
C863 C859 1.393 . S
C863 C862 1.391 . S
H864 C872 0.950 . S
H865 C877 0.950 . S
H866 C874 0.950 . S
H867 C876 0.950 . S
H868 C878 0.950 . S
H869 C880 0.950 . S
H870 C882 0.950 . S
H871 C883 0.950 . S
C872 H864 0.950 . S
C872 C873 1.386 . S
C872 C874 1.391 . S
C873 C872 1.386 . S
C873 C877 1.393 . S
C874 H866 0.950 . S
C874 C872 1.391 . S
C874 C875 1.400 . S
C875 C874 1.400 . S
C875 C876 1.398 . S
C875 C881 1.491 . S
C876 H867 0.950 . S
C876 C875 1.398 . S
C876 C877 1.391 . S
C877 H865 0.950 . S
C877 C873 1.393 . S
C877 C876 1.391 . S
C878 H868 0.950 . S
C878 C879 1.386 . S
C878 C880 1.391 . S
C879 C878 1.386 . S
C879 C883 1.393 . S
C880 H869 0.950 . S
C880 C878 1.391 . S
C880 C881 1.400 . S
C881 C875 1.491 . S
C881 C880 1.400 . S
C881 C882 1.398 . S
C882 H870 0.950 . S
C882 C881 1.398 . S
C882 C883 1.391 . S
C883 H871 0.950 . S
C883 C879 1.393 . S
C883 C882 1.391 . S
H884 C892 0.950 . S
H885 C897 0.950 . S
H886 C894 0.950 . S
H887 C896 0.950 . S
H888 C898 0.950 . S
H889 C900 0.950 . S
H890 C902 0.950 . S
H891 C903 0.950 . S
C892 H884 0.950 . S
C892 C893 1.386 . S
C892 C894 1.391 . S
C893 C892 1.386 . S
C893 C897 1.393 . S
C894 H886 0.950 . S
C894 C892 1.391 . S
C894 C895 1.400 . S
C895 C894 1.400 . S
C895 C896 1.398 . S
C895 C901 1.491 . S
C896 H887 0.950 . S
C896 C895 1.398 . S
C896 C897 1.391 . S
C897 H885 0.950 . S
C897 C893 1.393 . S
C897 C896 1.391 . S
C898 H888 0.950 . S
C898 C899 1.386 . S
C898 C900 1.391 . S
C899 C898 1.386 . S
C899 C903 1.393 . S
C900 H889 0.950 . S
C900 C898 1.391 . S
C900 C901 1.400 . S
C901 C895 1.491 . S
C901 C900 1.400 . S
C901 C902 1.398 . S
C902 H890 0.950 . S
C902 C901 1.398 . S
C902 C903 1.391 . S
C903 H891 0.950 . S
C903 C899 1.393 . S
C903 C902 1.391 . S
H904 C912 0.950 . S
H905 C917 0.950 . S
H906 C914 0.950 . S
H907 C916 0.950 . S
H908 C918 0.950 . S
H909 C920 0.950 . S
H910 C922 0.950 . S
H911 C923 0.950 . S
C912 H904 0.950 . S
C912 C913 1.386 . S
C912 C914 1.391 . S
C913 C912 1.386 . S
C913 C917 1.393 . S
C914 H906 0.950 . S
C914 C912 1.391 . S
C914 C915 1.400 . S
C915 C914 1.400 . S
C915 C916 1.398 . S
C915 C921 1.491 . S
C916 H907 0.950 . S
C916 C915 1.398 . S
C916 C917 1.391 . S
C917 H905 0.950 . S
C917 C913 1.393 . S
C917 C916 1.391 . S
C918 H908 0.950 . S
C918 C919 1.386 . S
C918 C920 1.391 . S
C919 C918 1.386 . S
C919 C923 1.393 . S
C920 H909 0.950 . S
C920 C918 1.391 . S
C920 C921 1.400 . S
C921 C915 1.491 . S
C921 C920 1.400 . S
C921 C922 1.398 . S
C922 H910 0.950 . S
C922 C921 1.398 . S
C922 C923 1.391 . S
C923 H911 0.950 . S
C923 C919 1.393 . S
C923 C922 1.391 . S
H924 C932 0.950 . S
H925 C937 0.950 . S
H926 C934 0.950 . S
H927 C936 0.950 . S
H928 C938 0.950 . S
H929 C940 0.964 . S
H930 C942 0.950 . S
H931 C943 0.950 . S
C932 H924 0.950 . S
C932 C933 1.386 . S
C932 C934 1.391 . S
C933 C932 1.386 . S
C933 C937 1.393 . S
C934 H926 0.950 . S
C934 C932 1.391 . S
C934 C935 1.400 . S
C935 C934 1.400 . S
C935 C936 1.398 . S
C935 C941 1.491 1_545 S
C936 H927 0.950 . S
C936 C935 1.398 . S
C936 C937 1.391 . S
C937 H925 0.950 . S
C937 C933 1.393 . S
C937 C936 1.391 . S
C938 H928 0.950 . S
C938 C939 1.386 . S
C938 C940 1.391 . S
C939 C938 1.386 . S
C939 C943 1.393 . S
C940 H929 0.964 . S
C940 C938 1.391 . S
C940 C941 1.400 . S
C941 C935 1.491 1_565 S
C941 C940 1.400 . S
C941 C942 1.398 . S
C942 H930 0.950 . S
C942 C941 1.398 . S
C942 C943 1.391 . S
C943 H931 0.950 . S
C943 C939 1.393 . S
C943 C942 1.391 . S
H944 C952 0.950 . S
H945 C957 0.950 . S
H946 C954 0.950 . S
H947 C956 0.950 . S
H948 C958 0.950 . S
H949 C960 0.950 . S
H950 C962 0.950 . S
H951 C963 0.950 . S
C952 H944 0.950 . S
C952 C953 1.386 . S
C952 C954 1.391 . S
C953 C952 1.386 . S
C953 C957 1.393 . S
C954 H946 0.950 . S
C954 C952 1.391 . S
C954 C955 1.400 . S
C955 C954 1.400 . S
C955 C956 1.398 . S
C955 C961 1.491 . S
C956 H947 0.950 . S
C956 C955 1.398 . S
C956 C957 1.391 . S
C957 H945 0.950 . S
C957 C953 1.393 . S
C957 C956 1.391 . S
C958 H948 0.950 . S
C958 C959 1.386 . S
C958 C960 1.391 . S
C959 C958 1.386 . S
C959 C963 1.393 . S
C960 H949 0.950 . S
C960 C958 1.391 . S
C960 C961 1.400 . S
C961 C955 1.491 . S
C961 C960 1.400 . S
C961 C962 1.398 . S
C962 H950 0.950 . S
C962 C961 1.398 . S
C962 C963 1.391 . S
C963 H951 0.950 . S
C963 C959 1.393 . S
C963 C962 1.391 . S
H964 C972 0.950 . S
H965 C977 0.950 . S
H966 C974 0.950 . S
H967 C976 0.950 . S
H968 C978 0.950 . S
H969 C980 0.950 . S
H970 C982 0.950 . S
H971 C983 0.950 . S
C972 H964 0.950 . S
C972 C973 1.386 . S
C972 C974 1.391 . S
C973 C972 1.386 . S
C973 C977 1.393 . S
C974 H966 0.950 . S
C974 C972 1.391 . S
C974 C975 1.400 . S
C975 C974 1.400 . S
C975 C976 1.398 . S
C975 C981 1.491 . S
C976 H967 0.950 . S
C976 C975 1.398 . S
C976 C977 1.391 . S
C977 H965 0.950 . S
C977 C973 1.393 . S
C977 C976 1.391 . S
C978 H968 0.950 . S
C978 C979 1.386 . S
C978 C980 1.391 . S
C979 C978 1.386 . S
C979 C983 1.393 . S
C980 H969 0.950 . S
C980 C978 1.391 . S
C980 C981 1.400 . S
C981 C975 1.491 . S
C981 C980 1.400 . S
C981 C982 1.398 . S
C982 H970 0.950 . S
C982 C981 1.398 . S
C982 C983 1.391 . S
C983 H971 0.950 . S
C983 C979 1.393 . S
C983 C982 1.391 . S
H984 C992 0.950 . S
H985 C997 0.950 . S
H986 C994 0.950 . S
H987 C996 0.950 . S
H988 C998 0.950 . S
H989 C1000 0.950 . S
H990 C1002 0.950 . S
H991 C1003 0.950 . S
C992 H984 0.950 . S
C992 C993 1.386 . S
C992 C994 1.391 . S
C993 C992 1.386 . S
C993 C997 1.393 . S
C994 H986 0.950 . S
C994 C992 1.391 . S
C994 C995 1.400 . S
C995 C994 1.400 . S
C995 C996 1.398 . S
C995 C1001 1.491 1_655 S
C996 H987 0.950 . S
C996 C995 1.398 . S
C996 C997 1.391 . S
C997 H985 0.950 . S
C997 C993 1.393 . S
C997 C996 1.391 . S
C998 H988 0.950 . S
C998 C999 1.386 . S
C998 C1000 1.391 . S
C999 C998 1.386 . S
C999 C1003 1.393 . S
C1000 H989 0.950 . S
C1000 C998 1.391 . S
C1000 C1001 1.400 . S
C1001 C995 1.491 1_455 S
C1001 C1000 1.400 . S
C1001 C1002 1.398 . S
C1002 H990 0.950 . S
C1002 C1001 1.398 . S
C1002 C1003 1.391 . S
C1003 H991 0.950 . S
C1003 C999 1.393 . S
C1003 C1002 1.391 . S
H1004 C1012 0.950 . S
H1005 C1017 0.950 . S
H1006 C1014 0.950 . S
H1007 C1016 0.950 . S
H1008 C1018 0.950 . S
H1009 C1020 0.950 . S
H1010 C1022 0.950 . S
H1011 C1023 0.950 . S
C1012 H1004 0.950 . S
C1012 C1013 1.386 . S
C1012 C1014 1.391 . S
C1013 C1012 1.386 . S
C1013 C1017 1.393 . S
C1014 H1006 0.950 . S
C1014 C1012 1.391 . S
C1014 C1015 1.400 . S
C1015 C1014 1.400 . S
C1015 C1016 1.398 . S
C1015 C1021 1.491 . S
C1016 H1007 0.950 . S
C1016 C1015 1.398 . S
C1016 C1017 1.391 . S
C1017 H1005 0.950 . S
C1017 C1013 1.393 . S
C1017 C1016 1.391 . S
C1018 H1008 0.950 . S
C1018 C1019 1.386 . S
C1018 C1020 1.391 . S
C1019 C1018 1.386 . S
C1019 C1023 1.393 . S
C1020 H1009 0.950 . S
C1020 C1018 1.391 . S
C1020 C1021 1.400 . S
C1021 C1015 1.491 . S
C1021 C1020 1.400 . S
C1021 C1022 1.398 . S
C1022 H1010 0.950 . S
C1022 C1021 1.398 . S
C1022 C1023 1.391 . S
C1023 H1011 0.950 . S
C1023 C1019 1.393 . S
C1023 C1022 1.391 . S
H1024 C1032 0.950 . S
H1025 C1037 0.950 . S
H1026 C1034 0.950 . S
H1027 C1036 0.950 . S
H1028 C1038 0.950 . S
H1029 C1040 0.950 . S
H1030 C1042 0.950 . S
H1031 C1043 0.950 . S
C1032 H1024 0.950 . S
C1032 C1033 1.386 . S
C1032 C1034 1.391 . S
C1033 C1032 1.386 . S
C1033 C1037 1.393 . S
C1034 H1026 0.950 . S
C1034 C1032 1.391 . S
C1034 C1035 1.400 . S
C1035 C1034 1.400 . S
C1035 C1036 1.398 . S
C1035 C1041 1.491 . S
C1036 H1027 0.950 . S
C1036 C1035 1.398 . S
C1036 C1037 1.391 . S
C1037 H1025 0.950 . S
C1037 C1033 1.393 . S
C1037 C1036 1.391 . S
C1038 H1028 0.950 . S
C1038 C1039 1.386 . S
C1038 C1040 1.391 . S
C1039 C1038 1.386 . S
C1039 C1043 1.393 . S
C1040 H1029 0.950 . S
C1040 C1038 1.391 . S
C1040 C1041 1.400 . S
C1041 C1035 1.491 . S
C1041 C1040 1.400 . S
C1041 C1042 1.398 . S
C1042 H1030 0.950 . S
C1042 C1041 1.398 . S
C1042 C1043 1.391 . S
C1043 H1031 0.950 . S
C1043 C1039 1.393 . S
C1043 C1042 1.391 . S
H1044 C1052 0.950 . S
H1045 C1057 0.950 . S
H1046 C1054 0.950 . S
H1047 C1056 0.950 . S
H1048 C1058 0.950 . S
H1049 C1060 0.950 . S
H1050 C1062 0.950 . S
H1051 C1063 0.950 . S
C1052 H1044 0.950 . S
C1052 C1053 1.386 . S
C1052 C1054 1.391 . S
C1053 C1052 1.386 . S
C1053 C1057 1.393 . S
C1054 H1046 0.950 . S
C1054 C1052 1.391 . S
C1054 C1055 1.400 . S
C1055 C1054 1.400 . S
C1055 C1056 1.398 . S
C1055 C1061 1.491 . S
C1056 H1047 0.950 . S
C1056 C1055 1.398 . S
C1056 C1057 1.391 . S
C1057 H1045 0.950 . S
C1057 C1053 1.393 . S
C1057 C1056 1.391 . S
C1058 H1048 0.950 . S
C1058 C1059 1.386 . S
C1058 C1060 1.391 . S
C1059 C1058 1.386 . S
C1059 C1063 1.393 . S
C1060 H1049 0.950 . S
C1060 C1058 1.391 . S
C1060 C1061 1.400 . S
C1061 C1055 1.491 . S
C1061 C1060 1.400 . S
C1061 C1062 1.398 . S
C1062 H1050 0.950 . S
C1062 C1061 1.398 . S
C1062 C1063 1.391 . S
C1063 H1051 0.950 . S
C1063 C1059 1.393 . S
C1063 C1062 1.391 . S
H1064 C1072 0.950 . S
H1065 C1077 0.950 . S
H1066 C1074 0.950 . S
H1067 C1076 0.950 1_655 S
H1068 C1078 0.950 . S
H1069 C1080 0.950 . S
H1070 C1082 0.950 . S
H1071 C1083 0.950 . S
C1072 H1064 0.950 . S
C1072 C1073 1.386 . S
C1072 C1074 1.391 . S
C1073 C1072 1.386 . S
C1073 C1077 1.393 . S
C1074 H1066 0.950 . S
C1074 C1072 1.391 . S
C1074 C1075 1.398 . S
C1075 C1074 1.398 . S
C1075 C1076 1.397 . S
C1075 C1081 1.494 1_455 S
C1076 H1067 0.950 1_455 S
C1076 C1075 1.397 . S
C1076 C1077 1.391 . S
C1077 H1065 0.950 . S
C1077 C1073 1.393 . S
C1077 C1076 1.391 . S
C1078 H1068 0.950 . S
C1078 C1079 1.386 . S
C1078 C1080 1.391 . S
C1079 C1078 1.386 . S
C1079 C1083 1.393 . S
C1080 H1069 0.950 . S
C1080 C1078 1.391 . S
C1080 C1081 1.400 . S
C1081 C1075 1.494 1_655 S
C1081 C1080 1.400 . S
C1081 C1082 1.398 . S
C1082 H1070 0.950 . S
C1082 C1081 1.398 . S
C1082 C1083 1.391 . S
C1083 H1071 0.950 . S
C1083 C1079 1.393 . S
C1083 C1082 1.391 . S
H1084 C1092 0.950 . S
H1085 C1097 0.950 . S
H1086 C1094 0.950 . S
H1087 C1096 0.950 . S
H1088 C1098 0.950 . S
H1089 C1100 0.950 . S
H1090 C1102 0.950 . S
H1091 C1103 0.950 . S
C1092 H1084 0.950 . S
C1092 C1093 1.386 . S
C1092 C1094 1.391 . S
C1093 C1092 1.386 . S
C1093 C1097 1.393 . S
C1094 H1086 0.950 . S
C1094 C1092 1.391 . S
C1094 C1095 1.382 1_655 S
C1095 C1094 1.382 1_455 S
C1095 C1096 1.383 1_455 S
C1095 C1101 1.524 . S
C1096 H1087 0.950 . S
C1096 C1095 1.383 1_655 S
C1096 C1097 1.391 . S
C1097 H1085 0.950 . S
C1097 C1093 1.393 . S
C1097 C1096 1.391 . S
C1098 H1088 0.950 . S
C1098 C1099 1.386 . S
C1098 C1100 1.391 . S
C1099 C1098 1.386 . S
C1099 C1103 1.393 . S
C1100 H1089 0.950 . S
C1100 C1098 1.391 . S
C1100 C1101 1.400 . S
C1101 C1095 1.524 . S
C1101 C1100 1.400 . S
C1101 C1102 1.398 . S
C1102 H1090 0.950 . S
C1102 C1101 1.398 . S
C1102 C1103 1.391 . S
C1103 H1091 0.950 . S
C1103 C1099 1.393 . S
C1103 C1102 1.391 . S
H1104 C1112 0.950 . S
H1105 C1117 0.950 . S
H1106 C1114 0.950 . S
H1107 C1116 0.950 . S
H1108 C1118 0.950 . S
H1109 C1120 0.950 . S
H1110 C1122 0.950 . S
H1111 C1123 0.950 . S
C1112 H1104 0.950 . S
C1112 C1113 1.386 . S
C1112 C1114 1.391 . S
C1113 C1112 1.386 . S
C1113 C1117 1.393 . S
C1114 H1106 0.950 . S
C1114 C1112 1.391 . S
C1114 C1115 1.400 . S
C1115 C1114 1.400 . S
C1115 C1116 1.398 . S
C1115 C1121 1.491 . S
C1116 H1107 0.950 . S
C1116 C1115 1.398 . S
C1116 C1117 1.391 . S
C1117 H1105 0.950 . S
C1117 C1113 1.393 . S
C1117 C1116 1.391 . S
C1118 H1108 0.950 . S
C1118 C1119 1.386 . S
C1118 C1120 1.391 . S
C1119 C1118 1.386 . S
C1119 C1123 1.393 . S
C1120 H1109 0.950 . S
C1120 C1118 1.391 . S
C1120 C1121 1.400 . S
C1121 C1115 1.491 . S
C1121 C1120 1.400 . S
C1121 C1122 1.398 . S
C1122 H1110 0.950 . S
C1122 C1121 1.398 . S
C1122 C1123 1.391 . S
C1123 H1111 0.950 . S
C1123 C1119 1.393 . S
C1123 C1122 1.391 . S
H1124 C1132 0.950 . S
H1125 C1137 0.950 . S
H1126 C1134 0.950 . S
H1127 C1136 0.950 . S
H1128 C1138 0.950 . S
H1129 C1140 0.950 . S
H1130 C1142 0.950 . S
H1131 C1143 0.950 . S
C1132 H1124 0.950 . S
C1132 C1133 1.386 . S
C1132 C1134 1.391 . S
C1133 C1132 1.386 . S
C1133 C1137 1.393 . S
C1134 H1126 0.950 . S
C1134 C1132 1.391 . S
C1134 C1135 1.400 . S
C1135 C1134 1.400 . S
C1135 C1136 1.398 . S
C1135 C1141 1.491 . S
C1136 H1127 0.950 . S
C1136 C1135 1.398 . S
C1136 C1137 1.391 . S
C1137 H1125 0.950 . S
C1137 C1133 1.393 . S
C1137 C1136 1.391 . S
C1138 H1128 0.950 . S
C1138 C1139 1.386 . S
C1138 C1140 1.391 . S
C1139 C1138 1.386 . S
C1139 C1143 1.393 . S
C1140 H1129 0.950 . S
C1140 C1138 1.391 . S
C1140 C1141 1.400 . S
C1141 C1135 1.491 . S
C1141 C1140 1.400 . S
C1141 C1142 1.398 . S
C1142 H1130 0.950 . S
C1142 C1141 1.398 . S
C1142 C1143 1.391 . S
C1143 H1131 0.950 . S
C1143 C1139 1.393 . S
C1143 C1142 1.391 . S
H1144 C1152 0.950 . S
H1145 C1157 0.950 . S
H1146 C1154 0.950 . S
H1147 C1156 0.950 . S
H1148 C1158 0.950 . S
H1149 C1160 0.950 . S
H1150 C1162 0.950 . S
H1151 C1163 0.950 . S
C1152 H1144 0.950 . S
C1152 C1153 1.386 . S
C1152 C1154 1.391 . S
C1153 C1152 1.386 . S
C1153 C1157 1.393 . S
C1154 H1146 0.950 . S
C1154 C1152 1.391 . S
C1154 C1155 1.400 . S
C1155 C1154 1.400 . S
C1155 C1156 1.398 . S
C1155 C1161 1.491 . S
C1156 H1147 0.950 . S
C1156 C1155 1.398 . S
C1156 C1157 1.391 . S
C1157 H1145 0.950 . S
C1157 C1153 1.393 . S
C1157 C1156 1.391 . S
C1158 H1148 0.950 . S
C1158 C1159 1.386 . S
C1158 C1160 1.391 . S
C1159 C1158 1.386 . S
C1159 C1163 1.393 . S
C1160 H1149 0.950 . S
C1160 C1158 1.391 . S
C1160 C1161 1.400 . S
C1161 C1155 1.491 . S
C1161 C1160 1.400 . S
C1161 C1162 1.398 . S
C1162 H1150 0.950 . S
C1162 C1161 1.398 . S
C1162 C1163 1.391 . S
C1163 H1151 0.950 . S
C1163 C1159 1.393 . S
C1163 C1162 1.391 . S
H1164 C1172 0.950 . S
H1165 C1177 0.950 . S
H1166 C1174 0.950 . S
H1167 C1176 0.950 . S
H1168 C1178 0.950 . S
H1169 C1180 0.950 . S
H1170 C1182 0.950 . S
H1171 C1183 0.950 . S
C1172 H1164 0.950 . S
C1172 C1173 1.386 . S
C1172 C1174 1.391 . S
C1173 C1172 1.386 . S
C1173 C1177 1.393 . S
C1174 H1166 0.950 . S
C1174 C1172 1.391 . S
C1174 C1175 1.400 . S
C1175 C1174 1.400 . S
C1175 C1176 1.398 . S
C1175 C1181 1.491 . S
C1176 H1167 0.950 . S
C1176 C1175 1.398 . S
C1176 C1177 1.391 . S
C1177 H1165 0.950 . S
C1177 C1173 1.393 . S
C1177 C1176 1.391 . S
C1178 H1168 0.950 . S
C1178 C1179 1.386 . S
C1178 C1180 1.391 . S
C1179 C1178 1.386 . S
C1179 C1183 1.393 . S
C1180 H1169 0.950 . S
C1180 C1178 1.391 . S
C1180 C1181 1.400 . S
C1181 C1175 1.491 . S
C1181 C1180 1.400 . S
C1181 C1182 1.398 . S
C1182 H1170 0.950 . S
C1182 C1181 1.398 . S
C1182 C1183 1.391 . S
C1183 H1171 0.950 . S
C1183 C1179 1.393 . S
C1183 C1182 1.391 . S
H1184 C1192 0.950 . S
H1185 C1197 0.950 . S
H1186 C1194 0.950 . S
H1187 C1196 0.950 . S
H1188 C1198 0.950 . S
H1189 C1200 0.950 . S
H1190 C1202 0.950 . S
H1191 C1203 0.950 . S
C1192 H1184 0.950 . S
C1192 C1193 1.386 . S
C1192 C1194 1.391 . S
C1193 C1192 1.386 . S
C1193 C1197 1.393 . S
C1194 H1186 0.950 . S
C1194 C1192 1.391 . S
C1194 C1195 1.400 . S
C1195 C1194 1.400 . S
C1195 C1196 1.398 . S
C1195 C1201 1.491 . S
C1196 H1187 0.950 . S
C1196 C1195 1.398 . S
C1196 C1197 1.391 . S
C1197 H1185 0.950 . S
C1197 C1193 1.393 . S
C1197 C1196 1.391 . S
C1198 H1188 0.950 . S
C1198 C1199 1.386 . S
C1198 C1200 1.391 . S
C1199 C1198 1.386 . S
C1199 C1203 1.393 . S
C1200 H1189 0.950 . S
C1200 C1198 1.391 . S
C1200 C1201 1.400 . S
C1201 C1195 1.491 . S
C1201 C1200 1.400 . S
C1201 C1202 1.398 . S
C1202 H1190 0.950 . S
C1202 C1201 1.398 . S
C1202 C1203 1.391 . S
C1203 H1191 0.950 . S
C1203 C1199 1.393 . S
C1203 C1202 1.391 . S
H1204 C1212 0.950 . S
H1205 C1217 0.950 . S
H1206 C1214 0.950 . S
H1207 C1216 0.950 . S
H1208 C1218 0.950 . S
H1209 C1220 0.950 . S
H1210 C1222 0.950 . S
H1211 C1223 0.950 . S
C1212 H1204 0.950 . S
C1212 C1213 1.386 . S
C1212 C1214 1.391 . S
C1213 C1212 1.386 . S
C1213 C1217 1.393 . S
C1214 H1206 0.950 . S
C1214 C1212 1.391 . S
C1214 C1215 1.400 . S
C1215 C1214 1.400 . S
C1215 C1216 1.398 . S
C1215 C1221 1.491 . S
C1216 H1207 0.950 . S
C1216 C1215 1.398 . S
C1216 C1217 1.391 . S
C1217 H1205 0.950 . S
C1217 C1213 1.393 . S
C1217 C1216 1.391 . S
C1218 H1208 0.950 . S
C1218 C1219 1.386 . S
C1218 C1220 1.391 . S
C1219 C1218 1.386 . S
C1219 C1223 1.393 . S
C1220 H1209 0.950 . S
C1220 C1218 1.391 . S
C1220 C1221 1.400 . S
C1221 C1215 1.491 . S
C1221 C1220 1.400 . S
C1221 C1222 1.398 . S
C1222 H1210 0.950 . S
C1222 C1221 1.398 . S
C1222 C1223 1.391 . S
C1223 H1211 0.950 . S
C1223 C1219 1.393 . S
C1223 C1222 1.391 . S
H1224 C1232 0.950 . S
H1225 C1237 0.950 . S
H1226 C1234 0.950 . S
H1227 C1236 0.950 . S
H1228 C1238 0.950 . S
H1229 C1240 0.950 . S
H1230 C1242 0.950 . S
H1231 C1243 0.950 . S
C1232 H1224 0.950 . S
C1232 C1233 1.386 . S
C1232 C1234 1.391 . S
C1233 C1232 1.386 . S
C1233 C1237 1.393 . S
C1234 H1226 0.950 . S
C1234 C1232 1.391 . S
C1234 C1235 1.400 . S
C1235 C1234 1.400 . S
C1235 C1236 1.398 . S
C1235 C1241 1.491 . S
C1236 H1227 0.950 . S
C1236 C1235 1.398 . S
C1236 C1237 1.391 . S
C1237 H1225 0.950 . S
C1237 C1233 1.393 . S
C1237 C1236 1.391 . S
C1238 H1228 0.950 . S
C1238 C1239 1.386 . S
C1238 C1240 1.391 . S
C1239 C1238 1.386 . S
C1239 C1243 1.393 . S
C1240 H1229 0.950 . S
C1240 C1238 1.391 . S
C1240 C1241 1.400 . S
C1241 C1235 1.491 . S
C1241 C1240 1.400 . S
C1241 C1242 1.398 . S
C1242 H1230 0.950 . S
C1242 C1241 1.398 . S
C1242 C1243 1.391 . S
C1243 H1231 0.950 . S
C1243 C1239 1.393 . S
C1243 C1242 1.391 . S
H1244 C1252 0.950 . S
H1245 C1257 0.950 . S
H1246 C1254 0.950 . S
H1247 C1256 0.950 . S
H1248 C1258 0.950 . S
H1249 C1260 0.950 . S
H1250 C1262 0.950 . S
H1251 C1263 0.950 . S
C1252 H1244 0.950 . S
C1252 C1253 1.386 . S
C1252 C1254 1.391 . S
C1253 C1252 1.386 . S
C1253 C1257 1.393 . S
C1254 H1246 0.950 . S
C1254 C1252 1.391 . S
C1254 C1255 1.400 . S
C1255 C1254 1.400 . S
C1255 C1256 1.398 . S
C1255 C1261 1.491 . S
C1256 H1247 0.950 . S
C1256 C1255 1.398 . S
C1256 C1257 1.391 . S
C1257 H1245 0.950 . S
C1257 C1253 1.393 . S
C1257 C1256 1.391 . S
C1258 H1248 0.950 . S
C1258 C1259 1.386 . S
C1258 C1260 1.391 . S
C1259 C1258 1.386 . S
C1259 C1263 1.393 . S
C1260 H1249 0.950 . S
C1260 C1258 1.391 . S
C1260 C1261 1.400 . S
C1261 C1255 1.491 . S
C1261 C1260 1.400 . S
C1261 C1262 1.398 . S
C1262 H1250 0.950 . S
C1262 C1261 1.398 . S
C1262 C1263 1.391 . S
C1263 H1251 0.950 . S
C1263 C1259 1.393 . S
C1263 C1262 1.391 . S
H1264 C1272 0.950 . S
H1265 C1277 0.950 . S
H1266 C1274 0.950 . S
H1267 C1276 0.950 . S
H1268 C1278 0.950 . S
H1269 C1280 0.950 . S
H1270 C1282 0.950 . S
H1271 C1283 0.950 . S
C1272 H1264 0.950 . S
C1272 C1273 1.386 . S
C1272 C1274 1.391 . S
C1273 C1272 1.386 . S
C1273 C1277 1.393 . S
C1274 H1266 0.950 . S
C1274 C1272 1.391 . S
C1274 C1275 1.400 . S
C1275 C1274 1.400 . S
C1275 C1276 1.398 . S
C1275 C1281 1.491 . S
C1276 H1267 0.950 . S
C1276 C1275 1.398 . S
C1276 C1277 1.391 . S
C1277 H1265 0.950 . S
C1277 C1273 1.393 . S
C1277 C1276 1.391 . S
C1278 H1268 0.950 . S
C1278 C1279 1.386 . S
C1278 C1280 1.391 . S
C1279 C1278 1.386 . S
C1279 C1283 1.393 . S
C1280 H1269 0.950 . S
C1280 C1278 1.391 . S
C1280 C1281 1.400 . S
C1281 C1275 1.491 . S
C1281 C1280 1.400 . S
C1281 C1282 1.398 . S
C1282 H1270 0.950 . S
C1282 C1281 1.398 . S
C1282 C1283 1.391 . S
C1283 H1271 0.950 . S
C1283 C1279 1.393 . S
C1283 C1282 1.391 . S
H1284 C1292 0.950 . S
H1285 C1297 0.950 . S
H1286 C1294 0.950 . S
H1287 C1296 0.950 . S
H1288 C1298 0.950 . S
H1289 C1300 0.950 1_565 S
H1290 C1302 0.950 . S
H1291 C1303 0.950 . S
C1292 H1284 0.950 . S
C1292 C1293 1.386 . S
C1292 C1294 1.391 . S
C1293 C1292 1.386 . S
C1293 C1297 1.393 . S
C1294 H1286 0.950 . S
C1294 C1292 1.391 . S
C1294 C1295 1.400 . S
C1295 C1294 1.400 . S
C1295 C1296 1.398 . S
C1295 C1301 1.491 1_565 S
C1296 H1287 0.950 . S
C1296 C1295 1.398 . S
C1296 C1297 1.391 . S
C1297 H1285 0.950 . S
C1297 C1293 1.393 . S
C1297 C1296 1.391 . S
C1298 H1288 0.950 . S
C1298 C1299 1.386 . S
C1298 C1300 1.391 . S
C1299 C1298 1.386 . S
C1299 C1303 1.393 . S
C1300 H1289 0.950 1_545 S
C1300 C1298 1.391 . S
C1300 C1301 1.400 . S
C1301 C1295 1.491 1_545 S
C1301 C1300 1.400 . S
C1301 C1302 1.398 . S
C1302 H1290 0.950 . S
C1302 C1301 1.398 . S
C1302 C1303 1.391 . S
C1303 H1291 0.950 . S
C1303 C1299 1.393 . S
C1303 C1302 1.391 . S
H1304 C1312 0.950 . S
H1305 C1317 0.950 . S
H1306 C1314 0.950 . S
H1307 C1316 0.950 . S
H1308 C1318 0.950 . S
H1309 C1320 0.950 . S
H1310 C1322 0.950 . S
H1311 C1323 0.950 . S
C1312 H1304 0.950 . S
C1312 C1313 1.386 . S
C1312 C1314 1.391 . S
C1313 C1312 1.386 . S
C1313 C1317 1.393 . S
C1314 H1306 0.950 . S
C1314 C1312 1.391 . S
C1314 C1315 1.400 . S
C1315 C1314 1.400 . S
C1315 C1316 1.398 . S
C1315 C1321 1.491 . S
C1316 H1307 0.950 . S
C1316 C1315 1.398 . S
C1316 C1317 1.391 . S
C1317 H1305 0.950 . S
C1317 C1313 1.393 . S
C1317 C1316 1.391 . S
C1318 H1308 0.950 . S
C1318 C1319 1.386 . S
C1318 C1320 1.391 . S
C1319 C1318 1.386 . S
C1319 C1323 1.393 . S
C1320 H1309 0.950 . S
C1320 C1318 1.391 . S
C1320 C1321 1.400 . S
C1321 C1315 1.491 . S
C1321 C1320 1.400 . S
C1321 C1322 1.398 . S
C1322 H1310 0.950 . S
C1322 C1321 1.398 . S
C1322 C1323 1.391 . S
C1323 H1311 0.950 . S
C1323 C1319 1.393 . S
C1323 C1322 1.391 . S
H1324 C1332 0.950 . S
H1325 C1337 0.950 . S
H1326 C1334 0.950 . S
H1327 C1336 0.950 . S
H1328 C1338 0.950 . S
H1329 C1340 0.950 . S
H1330 C1342 0.950 . S
H1331 C1343 0.950 . S
C1332 H1324 0.950 . S
C1332 C1333 1.386 . S
C1332 C1334 1.391 . S
C1333 C1332 1.386 . S
C1333 C1337 1.393 . S
C1334 H1326 0.950 . S
C1334 C1332 1.391 . S
C1334 C1335 1.400 . S
C1335 C1334 1.400 . S
C1335 C1336 1.398 . S
C1335 C1341 1.491 . S
C1336 H1327 0.950 . S
C1336 C1335 1.398 . S
C1336 C1337 1.391 . S
C1337 H1325 0.950 . S
C1337 C1333 1.393 . S
C1337 C1336 1.391 . S
C1338 H1328 0.950 . S
C1338 C1339 1.386 . S
C1338 C1340 1.391 . S
C1339 C1338 1.386 . S
C1339 C1343 1.393 . S
C1340 H1329 0.950 . S
C1340 C1338 1.391 . S
C1340 C1341 1.400 . S
C1341 C1335 1.491 . S
C1341 C1340 1.400 . S
C1341 C1342 1.398 . S
C1342 H1330 0.950 . S
C1342 C1341 1.398 . S
C1342 C1343 1.391 . S
C1343 H1331 0.950 . S
C1343 C1339 1.393 . S
C1343 C1342 1.391 . S
H1344 C1352 0.950 . S
H1345 C1357 0.950 . S
H1346 C1354 0.950 . S
H1347 C1356 0.950 . S
H1348 C1358 0.950 . S
H1349 C1360 0.950 . S
H1350 C1362 0.950 . S
H1351 C1363 0.950 . S
C1352 H1344 0.950 . S
C1352 C1353 1.386 . S
C1352 C1354 1.391 . S
C1353 C1352 1.386 . S
C1353 C1357 1.393 . S
C1354 H1346 0.950 . S
C1354 C1352 1.391 . S
C1354 C1355 1.400 . S
C1355 C1354 1.400 . S
C1355 C1356 1.398 . S
C1355 C1361 1.491 . S
C1356 H1347 0.950 . S
C1356 C1355 1.398 . S
C1356 C1357 1.391 . S
C1357 H1345 0.950 . S
C1357 C1353 1.393 . S
C1357 C1356 1.391 . S
C1358 H1348 0.950 . S
C1358 C1359 1.386 . S
C1358 C1360 1.391 . S
C1359 C1358 1.386 . S
C1359 C1363 1.393 . S
C1360 H1349 0.950 . S
C1360 C1358 1.391 . S
C1360 C1361 1.400 . S
C1361 C1355 1.491 . S
C1361 C1360 1.400 . S
C1361 C1362 1.398 . S
C1362 H1350 0.950 . S
C1362 C1361 1.398 . S
C1362 C1363 1.391 . S
C1363 H1351 0.950 . S
C1363 C1359 1.393 . S
C1363 C1362 1.391 . S
H1364 C1372 0.950 . S
H1365 C1377 0.950 . S
H1366 C1374 0.950 . S
H1367 C1376 0.950 . S
H1368 C1378 0.950 . S
H1369 C1380 0.950 . S
H1370 C1382 0.950 1_565 S
H1371 C1383 0.950 . S
C1372 H1364 0.950 . S
C1372 C1373 1.386 . S
C1372 C1374 1.391 . S
C1373 C1372 1.386 . S
C1373 C1377 1.393 . S
C1374 H1366 0.950 . S
C1374 C1372 1.391 . S
C1374 C1375 1.400 . S
C1375 C1374 1.400 . S
C1375 C1376 1.398 . S
C1375 C1381 1.487 . S
C1376 H1367 0.950 . S
C1376 C1375 1.398 . S
C1376 C1377 1.391 . S
C1377 H1365 0.950 . S
C1377 C1373 1.393 . S
C1377 C1376 1.391 . S
C1378 H1368 0.950 . S
C1378 C1379 1.386 . S
C1378 C1380 1.391 . S
C1379 C1378 1.386 . S
C1379 C1383 1.393 . S
C1380 H1369 0.950 . S
C1380 C1378 1.391 . S
C1380 C1381 1.403 1_545 S
C1381 C1375 1.487 . S
C1381 C1380 1.403 1_565 S
C1381 C1382 1.399 1_565 S
C1382 H1370 0.950 1_545 S
C1382 C1381 1.399 1_545 S
C1382 C1383 1.391 . S
C1383 H1371 0.950 . S
C1383 C1379 1.393 . S
C1383 C1382 1.391 . S
H1384 C1392 0.950 . S
H1385 C1397 0.950 . S
H1386 C1394 0.950 . S
H1387 C1396 0.950 . S
H1388 C1398 0.950 . S
H1389 C1400 0.950 . S
H1390 C1402 0.950 . S
H1391 C1403 0.950 . S
C1392 H1384 0.950 . S
C1392 C1393 1.386 . S
C1392 C1394 1.391 . S
C1393 C1392 1.386 . S
C1393 C1397 1.393 . S
C1394 H1386 0.950 . S
C1394 C1392 1.391 . S
C1394 C1395 1.400 . S
C1395 C1394 1.400 . S
C1395 C1396 1.398 . S
C1395 C1401 1.491 . S
C1396 H1387 0.950 . S
C1396 C1395 1.398 . S
C1396 C1397 1.391 . S
C1397 H1385 0.950 . S
C1397 C1393 1.393 . S
C1397 C1396 1.391 . S
C1398 H1388 0.950 . S
C1398 C1399 1.386 . S
C1398 C1400 1.391 . S
C1399 C1398 1.386 . S
C1399 C1403 1.393 . S
C1400 H1389 0.950 . S
C1400 C1398 1.391 . S
C1400 C1401 1.400 . S
C1401 C1395 1.491 . S
C1401 C1400 1.400 . S
C1401 C1402 1.398 . S
C1402 H1390 0.950 . S
C1402 C1401 1.398 . S
C1402 C1403 1.391 . S
C1403 H1391 0.950 . S
C1403 C1399 1.393 . S
C1403 C1402 1.391 . S
H1404 C1412 0.950 . S
H1405 C1417 0.950 . S
H1406 C1414 0.950 . S
H1407 C1416 0.950 . S
H1408 C1418 0.950 . S
H1409 C1420 0.950 . S
H1410 C1422 0.950 . S
H1411 C1423 0.950 . S
C1412 H1404 0.950 . S
C1412 C1413 1.386 . S
C1412 C1414 1.391 . S
C1413 C1412 1.386 . S
C1413 C1417 1.393 . S
C1414 H1406 0.950 . S
C1414 C1412 1.391 . S
C1414 C1415 1.400 . S
C1415 C1414 1.400 . S
C1415 C1416 1.398 . S
C1415 C1421 1.491 . S
C1416 H1407 0.950 . S
C1416 C1415 1.398 . S
C1416 C1417 1.391 . S
C1417 H1405 0.950 . S
C1417 C1413 1.393 . S
C1417 C1416 1.391 . S
C1418 H1408 0.950 . S
C1418 C1419 1.386 . S
C1418 C1420 1.391 . S
C1419 C1418 1.386 . S
C1419 C1423 1.393 . S
C1420 H1409 0.950 . S
C1420 C1418 1.391 . S
C1420 C1421 1.400 . S
C1421 C1415 1.491 . S
C1421 C1420 1.400 . S
C1421 C1422 1.398 . S
C1422 H1410 0.950 . S
C1422 C1421 1.398 . S
C1422 C1423 1.391 . S
C1423 H1411 0.950 . S
C1423 C1419 1.393 . S
C1423 C1422 1.391 . S
H1424 C1432 0.950 . S
H1425 C1437 0.950 . S
H1426 C1434 0.950 . S
H1427 C1436 0.950 . S
H1428 C1438 0.950 . S
H1429 C1440 0.950 . S
H1430 C1442 0.950 . S
H1431 C1443 0.950 . S
C1432 H1424 0.950 . S
C1432 C1433 1.386 . S
C1432 C1434 1.391 . S
C1433 C1432 1.386 . S
C1433 C1437 1.393 . S
C1434 H1426 0.950 . S
C1434 C1432 1.391 . S
C1434 C1435 1.400 . S
C1435 C1434 1.400 . S
C1435 C1436 1.398 . S
C1435 C1441 1.491 . S
C1436 H1427 0.950 . S
C1436 C1435 1.398 . S
C1436 C1437 1.391 . S
C1437 H1425 0.950 . S
C1437 C1433 1.393 . S
C1437 C1436 1.391 . S
C1438 H1428 0.950 . S
C1438 C1439 1.386 . S
C1438 C1440 1.391 . S
C1439 C1438 1.386 . S
C1439 C1443 1.393 . S
C1440 H1429 0.950 . S
C1440 C1438 1.391 . S
C1440 C1441 1.400 . S
C1441 C1435 1.491 . S
C1441 C1440 1.400 . S
C1441 C1442 1.398 . S
C1442 H1430 0.950 . S
C1442 C1441 1.398 . S
C1442 C1443 1.391 . S
C1443 H1431 0.950 . S
C1443 C1439 1.393 . S
C1443 C1442 1.391 . S
H1444 C1452 0.950 . S
H1445 C1457 0.950 . S
H1446 C1454 0.950 . S
H1447 C1456 0.950 . S
H1448 C1458 0.950 . S
H1449 C1460 0.950 . S
H1450 C1462 0.950 . S
H1451 C1463 0.950 . S
C1452 H1444 0.950 . S
C1452 C1453 1.386 . S
C1452 C1454 1.391 . S
C1453 C1452 1.386 . S
C1453 C1457 1.393 . S
C1454 H1446 0.950 . S
C1454 C1452 1.391 . S
C1454 C1455 1.400 . S
C1455 C1454 1.400 . S
C1455 C1456 1.398 . S
C1455 C1461 1.491 . S
C1456 H1447 0.950 . S
C1456 C1455 1.398 . S
C1456 C1457 1.391 . S
C1457 H1445 0.950 . S
C1457 C1453 1.393 . S
C1457 C1456 1.391 . S
C1458 H1448 0.950 . S
C1458 C1459 1.386 . S
C1458 C1460 1.391 . S
C1459 C1458 1.386 . S
C1459 C1463 1.393 . S
C1460 H1449 0.950 . S
C1460 C1458 1.391 . S
C1460 C1461 1.400 . S
C1461 C1455 1.491 . S
C1461 C1460 1.400 . S
C1461 C1462 1.398 . S
C1462 H1450 0.950 . S
C1462 C1461 1.398 . S
C1462 C1463 1.391 . S
C1463 H1451 0.950 . S
C1463 C1459 1.393 . S
C1463 C1462 1.391 . S
H1464 C1472 0.950 . S
H1465 C1477 0.950 . S
H1466 C1474 0.950 . S
H1467 C1476 0.950 . S
H1468 C1478 0.950 . S
H1469 C1480 0.950 . S
H1470 C1482 0.950 . S
H1471 C1483 0.950 . S
C1472 H1464 0.950 . S
C1472 C1473 1.386 . S
C1472 C1474 1.391 . S
C1473 C1472 1.386 . S
C1473 C1477 1.393 . S
C1474 H1466 0.950 . S
C1474 C1472 1.391 . S
C1474 C1475 1.400 . S
C1475 C1474 1.400 . S
C1475 C1476 1.398 . S
C1475 C1481 1.491 . S
C1476 H1467 0.950 . S
C1476 C1475 1.398 . S
C1476 C1477 1.391 . S
C1477 H1465 0.950 . S
C1477 C1473 1.393 . S
C1477 C1476 1.391 . S
C1478 H1468 0.950 . S
C1478 C1479 1.386 . S
C1478 C1480 1.391 . S
C1479 C1478 1.386 . S
C1479 C1483 1.393 . S
C1480 H1469 0.950 . S
C1480 C1478 1.391 . S
C1480 C1481 1.400 . S
C1481 C1475 1.491 . S
C1481 C1480 1.400 . S
C1481 C1482 1.398 . S
C1482 H1470 0.950 . S
C1482 C1481 1.398 . S
C1482 C1483 1.391 . S
C1483 H1471 0.950 . S
C1483 C1479 1.393 . S
C1483 C1482 1.391 . S
H1484 C1492 0.950 . S
H1485 C1497 0.950 . S
H1486 C1494 0.950 . S
H1487 C1496 0.950 . S
H1488 C1498 0.950 . S
H1489 C1500 0.950 . S
H1490 C1502 0.950 . S
H1491 C1503 0.950 . S
C1492 H1484 0.950 . S
C1492 C1493 1.386 . S
C1492 C1494 1.391 . S
C1493 C1492 1.386 . S
C1493 C1497 1.393 . S
C1494 H1486 0.950 . S
C1494 C1492 1.391 . S
C1494 C1495 1.400 . S
C1495 C1494 1.400 . S
C1495 C1496 1.398 . S
C1495 C1501 1.491 . S
C1496 H1487 0.950 . S
C1496 C1495 1.398 . S
C1496 C1497 1.391 . S
C1497 H1485 0.950 . S
C1497 C1493 1.393 . S
C1497 C1496 1.391 . S
C1498 H1488 0.950 . S
C1498 C1499 1.386 . S
C1498 C1500 1.391 . S
C1499 C1498 1.386 . S
C1499 C1503 1.393 . S
C1500 H1489 0.950 . S
C1500 C1498 1.391 . S
C1500 C1501 1.400 . S
C1501 C1495 1.491 . S
C1501 C1500 1.400 . S
C1501 C1502 1.398 . S
C1502 H1490 0.950 . S
C1502 C1501 1.398 . S
C1502 C1503 1.391 . S
C1503 H1491 0.950 . S
C1503 C1499 1.393 . S
C1503 C1502 1.391 . S
H1504 C1512 0.950 . S
H1505 C1517 0.950 . S
H1506 C1514 0.950 . S
H1507 C1516 0.950 . S
H1508 C1518 0.950 . S
H1509 C1520 0.950 1_455 S
H1510 C1522 0.950 . S
H1511 C1523 0.950 . S
C1512 H1504 0.950 . S
C1512 C1513 1.386 . S
C1512 C1514 1.391 . S
C1513 C1512 1.386 . S
C1513 C1517 1.393 . S
C1514 H1506 0.950 . S
C1514 C1512 1.391 . S
C1514 C1515 1.400 . S
C1515 C1514 1.400 . S
C1515 C1516 1.398 . S
C1515 C1521 1.491 1_455 S
C1516 H1507 0.950 . S
C1516 C1515 1.398 . S
C1516 C1517 1.391 . S
C1517 H1505 0.950 . S
C1517 C1513 1.393 . S
C1517 C1516 1.391 . S
C1518 H1508 0.950 . S
C1518 C1519 1.386 . S
C1518 C1520 1.391 . S
C1519 C1518 1.386 . S
C1519 C1523 1.393 . S
C1520 H1509 0.950 1_655 S
C1520 C1518 1.391 . S
C1520 C1521 1.400 . S
C1521 C1515 1.491 1_655 S
C1521 C1520 1.400 . S
C1521 C1522 1.398 . S
C1522 H1510 0.950 . S
C1522 C1521 1.398 . S
C1522 C1523 1.391 . S
C1523 H1511 0.950 . S
C1523 C1519 1.393 . S
C1523 C1522 1.391 . S
H1524 C1532 0.950 . S
H1525 C1537 0.950 . S
H1526 C1534 0.950 . S
H1527 C1536 0.950 . S
H1528 C1538 0.950 . S
H1529 C1540 0.950 . S
H1530 C1542 0.950 . S
H1531 C1543 0.950 . S
C1532 H1524 0.950 . S
C1532 C1533 1.386 . S
C1532 C1534 1.391 . S
C1533 C1532 1.386 . S
C1533 C1537 1.393 . S
C1534 H1526 0.950 . S
C1534 C1532 1.391 . S
C1534 C1535 1.400 . S
C1535 C1534 1.400 . S
C1535 C1536 1.398 . S
C1535 C1541 1.491 . S
C1536 H1527 0.950 . S
C1536 C1535 1.398 . S
C1536 C1537 1.391 . S
C1537 H1525 0.950 . S
C1537 C1533 1.393 . S
C1537 C1536 1.391 . S
C1538 H1528 0.950 . S
C1538 C1539 1.386 . S
C1538 C1540 1.391 . S
C1539 C1538 1.386 . S
C1539 C1543 1.393 . S
C1540 H1529 0.950 . S
C1540 C1538 1.391 . S
C1540 C1541 1.400 . S
C1541 C1535 1.491 . S
C1541 C1540 1.400 . S
C1541 C1542 1.398 . S
C1542 H1530 0.950 . S
C1542 C1541 1.398 . S
C1542 C1543 1.391 . S
C1543 H1531 0.950 . S
C1543 C1539 1.393 . S
C1543 C1542 1.391 . S
H1544 C1552 0.950 . S
H1545 C1557 0.950 . S
H1546 C1554 0.950 . S
H1547 C1556 0.950 . S
H1548 C1558 0.950 . S
H1549 C1560 0.950 . S
H1550 C1562 0.950 . S
H1551 C1563 0.950 . S
C1552 H1544 0.950 . S
C1552 C1553 1.386 . S
C1552 C1554 1.391 . S
C1553 C1552 1.386 . S
C1553 C1557 1.393 . S
C1554 H1546 0.950 . S
C1554 C1552 1.391 . S
C1554 C1555 1.400 . S
C1555 C1554 1.400 . S
C1555 C1556 1.398 . S
C1555 C1561 1.491 . S
C1556 H1547 0.950 . S
C1556 C1555 1.398 . S
C1556 C1557 1.391 . S
C1557 H1545 0.950 . S
C1557 C1553 1.393 . S
C1557 C1556 1.391 . S
C1558 H1548 0.950 . S
C1558 C1559 1.386 . S
C1558 C1560 1.391 . S
C1559 C1558 1.386 . S
C1559 C1563 1.393 . S
C1560 H1549 0.950 . S
C1560 C1558 1.391 . S
C1560 C1561 1.400 . S
C1561 C1555 1.491 . S
C1561 C1560 1.400 . S
C1561 C1562 1.398 . S
C1562 H1550 0.950 . S
C1562 C1561 1.398 . S
C1562 C1563 1.391 . S
C1563 H1551 0.950 . S
C1563 C1559 1.393 . S
C1563 C1562 1.391 . S
H1564 C1572 0.950 . S
H1565 C1577 0.950 . S
H1566 C1574 0.950 . S
H1567 C1576 0.950 . S
H1568 C1578 0.950 . S
H1569 C1580 0.950 . S
H1570 C1582 0.950 . S
H1571 C1583 0.950 . S
C1572 H1564 0.950 . S
C1572 C1573 1.386 . S
C1572 C1574 1.391 . S
C1573 C1572 1.386 . S
C1573 C1577 1.393 . S
C1574 H1566 0.950 . S
C1574 C1572 1.391 . S
C1574 C1575 1.400 . S
C1575 C1574 1.400 . S
C1575 C1576 1.398 . S
C1575 C1581 1.491 . S
C1576 H1567 0.950 . S
C1576 C1575 1.398 . S
C1576 C1577 1.391 . S
C1577 H1565 0.950 . S
C1577 C1573 1.393 . S
C1577 C1576 1.391 . S
C1578 H1568 0.950 . S
C1578 C1579 1.386 . S
C1578 C1580 1.391 . S
C1579 C1578 1.386 . S
C1579 C1583 1.393 . S
C1580 H1569 0.950 . S
C1580 C1578 1.391 . S
C1580 C1581 1.400 . S
C1581 C1575 1.491 . S
C1581 C1580 1.400 . S
C1581 C1582 1.398 . S
C1582 H1570 0.950 . S
C1582 C1581 1.398 . S
C1582 C1583 1.391 . S
C1583 H1571 0.950 . S
C1583 C1579 1.393 . S
C1583 C1582 1.391 . S
H1584 C1592 0.950 . S
H1585 C1597 0.950 . S
H1586 C1594 0.950 . S
H1587 C1596 0.950 . S
H1588 C1598 0.950 . S
H1589 C1600 0.950 . S
H1590 C1602 0.950 . S
H1591 C1603 0.950 . S
C1592 H1584 0.950 . S
C1592 C1593 1.386 . S
C1592 C1594 1.391 . S
C1593 C1592 1.386 . S
C1593 C1597 1.393 . S
C1594 H1586 0.950 . S
C1594 C1592 1.391 . S
C1594 C1595 1.400 . S
C1595 C1594 1.400 . S
C1595 C1596 1.398 . S
C1595 C1601 1.491 . S
C1596 H1587 0.950 . S
C1596 C1595 1.398 . S
C1596 C1597 1.391 . S
C1597 H1585 0.950 . S
C1597 C1593 1.393 . S
C1597 C1596 1.391 . S
C1598 H1588 0.950 . S
C1598 C1599 1.386 . S
C1598 C1600 1.391 . S
C1599 C1598 1.386 . S
C1599 C1603 1.393 . S
C1600 H1589 0.950 . S
C1600 C1598 1.391 . S
C1600 C1601 1.400 . S
C1601 C1595 1.491 . S
C1601 C1600 1.400 . S
C1601 C1602 1.398 . S
C1602 H1590 0.950 . S
C1602 C1601 1.398 . S
C1602 C1603 1.391 . S
C1603 H1591 0.950 . S
C1603 C1599 1.393 . S
C1603 C1602 1.391 . S
H1604 C1612 0.950 . S
H1605 C1617 0.950 . S
H1606 C1614 0.950 . S
H1607 C1616 0.950 . S
H1608 C1618 0.950 . S
H1609 C1620 0.950 . S
H1610 C1622 0.950 . S
H1611 C1623 0.950 . S
C1612 H1604 0.950 . S
C1612 C1613 1.386 . S
C1612 C1614 1.391 . S
C1613 C1612 1.386 . S
C1613 C1617 1.393 . S
C1614 H1606 0.950 . S
C1614 C1612 1.391 . S
C1614 C1615 1.400 . S
C1615 C1614 1.400 . S
C1615 C1616 1.398 . S
C1615 C1621 1.491 . S
C1616 H1607 0.950 . S
C1616 C1615 1.398 . S
C1616 C1617 1.391 . S
C1617 H1605 0.950 . S
C1617 C1613 1.393 . S
C1617 C1616 1.391 . S
C1618 H1608 0.950 . S
C1618 C1619 1.386 . S
C1618 C1620 1.391 . S
C1619 C1618 1.386 . S
C1619 C1623 1.393 . S
C1620 H1609 0.950 . S
C1620 C1618 1.391 . S
C1620 C1621 1.400 . S
C1621 C1615 1.491 . S
C1621 C1620 1.400 . S
C1621 C1622 1.398 . S
C1622 H1610 0.950 . S
C1622 C1621 1.398 . S
C1622 C1623 1.391 . S
C1623 H1611 0.950 . S
C1623 C1619 1.393 . S
C1623 C1622 1.391 . S
H1624 C1632 0.950 . S
H1625 C1637 0.950 . S
H1626 C1634 0.950 . S
H1627 C1636 0.950 . S
H1628 C1638 0.950 . S
H1629 C1640 0.950 . S
H1630 C1642 0.950 . S
H1631 C1643 0.950 . S
C1632 H1624 0.950 . S
C1632 C1633 1.386 . S
C1632 C1634 1.391 . S
C1633 C1632 1.386 . S
C1633 C1637 1.393 . S
C1634 H1626 0.950 . S
C1634 C1632 1.391 . S
C1634 C1635 1.400 . S
C1635 C1634 1.400 . S
C1635 C1636 1.398 . S
C1635 C1641 1.491 . S
C1636 H1627 0.950 . S
C1636 C1635 1.398 . S
C1636 C1637 1.391 . S
C1637 H1625 0.950 . S
C1637 C1633 1.393 . S
C1637 C1636 1.391 . S
C1638 H1628 0.950 . S
C1638 C1639 1.386 . S
C1638 C1640 1.391 . S
C1639 C1638 1.386 . S
C1639 C1643 1.393 . S
C1640 H1629 0.950 . S
C1640 C1638 1.391 . S
C1640 C1641 1.400 . S
C1641 C1635 1.491 . S
C1641 C1640 1.400 . S
C1641 C1642 1.398 . S
C1642 H1630 0.950 . S
C1642 C1641 1.398 . S
C1642 C1643 1.391 . S
C1643 H1631 0.950 . S
C1643 C1639 1.393 . S
C1643 C1642 1.391 . S
H1644 C1652 0.950 . S
H1645 C1657 0.950 . S
H1646 C1654 0.950 . S
H1647 C1656 0.950 . S
H1648 C1658 0.950 . S
H1649 C1660 0.950 . S
H1650 C1662 0.950 . S
H1651 C1663 0.950 . S
C1652 H1644 0.950 . S
C1652 C1653 1.386 . S
C1652 C1654 1.391 . S
C1653 C1652 1.386 . S
C1653 C1657 1.393 . S
C1654 H1646 0.950 . S
C1654 C1652 1.391 . S
C1654 C1655 1.400 . S
C1655 C1654 1.400 . S
C1655 C1656 1.398 . S
C1655 C1661 1.491 . S
C1656 H1647 0.950 . S
C1656 C1655 1.398 . S
C1656 C1657 1.391 . S
C1657 H1645 0.950 . S
C1657 C1653 1.393 . S
C1657 C1656 1.391 . S
C1658 H1648 0.950 . S
C1658 C1659 1.386 . S
C1658 C1660 1.391 . S
C1659 C1658 1.386 . S
C1659 C1663 1.393 . S
C1660 H1649 0.950 . S
C1660 C1658 1.391 . S
C1660 C1661 1.400 . S
C1661 C1655 1.491 . S
C1661 C1660 1.400 . S
C1661 C1662 1.398 . S
C1662 H1650 0.950 . S
C1662 C1661 1.398 . S
C1662 C1663 1.391 . S
C1663 H1651 0.950 . S
C1663 C1659 1.393 . S
C1663 C1662 1.391 . S
H1664 C1672 0.950 . S
H1665 C1677 0.950 . S
H1666 C1674 0.950 . S
H1667 C1676 0.950 . S
H1668 C1678 0.950 . S
H1669 C1680 0.950 . S
H1670 C1682 0.950 . S
H1671 C1683 0.950 . S
C1672 H1664 0.950 . S
C1672 C1673 1.386 . S
C1672 C1674 1.391 . S
C1673 C1672 1.386 . S
C1673 C1677 1.393 . S
C1674 H1666 0.950 . S
C1674 C1672 1.391 . S
C1674 C1675 1.400 . S
C1675 C1674 1.400 . S
C1675 C1676 1.398 . S
C1675 C1681 1.491 . S
C1676 H1667 0.950 . S
C1676 C1675 1.398 . S
C1676 C1677 1.391 . S
C1677 H1665 0.950 . S
C1677 C1673 1.393 . S
C1677 C1676 1.391 . S
C1678 H1668 0.950 . S
C1678 C1679 1.386 . S
C1678 C1680 1.391 . S
C1679 C1678 1.386 . S
C1679 C1683 1.393 . S
C1680 H1669 0.950 . S
C1680 C1678 1.391 . S
C1680 C1681 1.400 . S
C1681 C1675 1.491 . S
C1681 C1680 1.400 . S
C1681 C1682 1.398 . S
C1682 H1670 0.950 . S
C1682 C1681 1.398 . S
C1682 C1683 1.391 . S
C1683 H1671 0.950 . S
C1683 C1679 1.393 . S
C1683 C1682 1.391 . S
H1684 C1692 0.950 . S
H1685 C1697 0.950 . S
H1686 C1694 0.950 . S
H1687 C1696 0.950 . S
H1688 C1698 0.950 . S
H1689 C1700 0.950 . S
H1690 C1702 0.950 . S
H1691 C1703 0.950 . S
C1692 H1684 0.950 . S
C1692 C1693 1.386 . S
C1692 C1694 1.391 . S
C1693 C1692 1.386 . S
C1693 C1697 1.393 . S
C1694 H1686 0.950 . S
C1694 C1692 1.391 . S
C1694 C1695 1.400 . S
C1695 C1694 1.400 . S
C1695 C1696 1.398 . S
C1695 C1701 1.491 . S
C1696 H1687 0.950 . S
C1696 C1695 1.398 . S
C1696 C1697 1.391 . S
C1697 H1685 0.950 . S
C1697 C1693 1.393 . S
C1697 C1696 1.391 . S
C1698 H1688 0.950 . S
C1698 C1699 1.386 . S
C1698 C1700 1.391 . S
C1699 C1698 1.386 . S
C1699 C1703 1.393 . S
C1700 H1689 0.950 . S
C1700 C1698 1.391 . S
C1700 C1701 1.400 . S
C1701 C1695 1.491 . S
C1701 C1700 1.400 . S
C1701 C1702 1.398 . S
C1702 H1690 0.950 . S
C1702 C1701 1.398 . S
C1702 C1703 1.391 . S
C1703 H1691 0.950 . S
C1703 C1699 1.393 . S
C1703 C1702 1.391 . S
H1704 C1712 0.950 . S
H1705 C1717 0.950 . S
H1706 C1714 0.950 . S
H1707 C1716 0.950 . S
H1708 C1718 0.950 . S
H1709 C1720 0.950 . S
H1710 C1722 0.950 . S
H1711 C1723 0.950 . S
C1712 H1704 0.950 . S
C1712 C1713 1.386 . S
C1712 C1714 1.391 . S
C1713 C1712 1.386 . S
C1713 C1717 1.393 . S
C1714 H1706 0.950 . S
C1714 C1712 1.391 . S
C1714 C1715 1.400 . S
C1715 C1714 1.400 . S
C1715 C1716 1.398 . S
C1715 C1721 1.491 . S
C1716 H1707 0.950 . S
C1716 C1715 1.398 . S
C1716 C1717 1.391 . S
C1717 H1705 0.950 . S
C1717 C1713 1.393 . S
C1717 C1716 1.391 . S
C1718 H1708 0.950 . S
C1718 C1719 1.386 . S
C1718 C1720 1.391 . S
C1719 C1718 1.386 . S
C1719 C1723 1.393 . S
C1720 H1709 0.950 . S
C1720 C1718 1.391 . S
C1720 C1721 1.400 . S
C1721 C1715 1.491 . S
C1721 C1720 1.400 . S
C1721 C1722 1.398 . S
C1722 H1710 0.950 . S
C1722 C1721 1.398 . S
C1722 C1723 1.391 . S
C1723 H1711 0.950 . S
C1723 C1719 1.393 . S
C1723 C1722 1.391 . S
H1724 C1732 0.950 . S
H1725 C1737 0.950 . S
H1726 C1734 0.950 . S
H1727 C1736 0.950 . S
H1728 C1738 0.950 . S
H1729 C1740 0.950 . S
H1730 C1742 0.950 . S
H1731 C1743 0.950 . S
C1732 H1724 0.950 . S
C1732 C1733 1.386 . S
C1732 C1734 1.391 . S
C1733 C1732 1.386 . S
C1733 C1737 1.393 . S
C1734 H1726 0.950 . S
C1734 C1732 1.391 . S
C1734 C1735 1.400 . S
C1735 C1734 1.400 . S
C1735 C1736 1.398 . S
C1735 C1741 1.491 . S
C1736 H1727 0.950 . S
C1736 C1735 1.398 . S
C1736 C1737 1.391 . S
C1737 H1725 0.950 . S
C1737 C1733 1.393 . S
C1737 C1736 1.391 . S
C1738 H1728 0.950 . S
C1738 C1739 1.386 . S
C1738 C1740 1.391 . S
C1739 C1738 1.386 . S
C1739 C1743 1.393 . S
C1740 H1729 0.950 . S
C1740 C1738 1.391 . S
C1740 C1741 1.400 . S
C1741 C1735 1.491 . S
C1741 C1740 1.400 . S
C1741 C1742 1.398 . S
C1742 H1730 0.950 . S
C1742 C1741 1.398 . S
C1742 C1743 1.391 . S
C1743 H1731 0.950 . S
C1743 C1739 1.393 . S
C1743 C1742 1.391 . S
H1744 C1752 0.950 . S
H1745 C1757 0.950 . S
H1746 C1754 0.950 . S
H1747 C1756 0.950 . S
H1748 C1758 0.950 . S
H1749 C1760 0.950 . S
H1750 C1762 0.950 . S
H1751 C1763 0.950 . S
C1752 H1744 0.950 . S
C1752 C1753 1.386 . S
C1752 C1754 1.391 . S
C1753 C1752 1.386 . S
C1753 C1757 1.393 . S
C1754 H1746 0.950 . S
C1754 C1752 1.391 . S
C1754 C1755 1.400 . S
C1755 C1754 1.400 . S
C1755 C1756 1.398 . S
C1755 C1761 1.491 . S
C1756 H1747 0.950 . S
C1756 C1755 1.398 . S
C1756 C1757 1.391 . S
C1757 H1745 0.950 . S
C1757 C1753 1.393 . S
C1757 C1756 1.391 . S
C1758 H1748 0.950 . S
C1758 C1759 1.386 . S
C1758 C1760 1.391 . S
C1759 C1758 1.386 . S
C1759 C1763 1.393 . S
C1760 H1749 0.950 . S
C1760 C1758 1.391 . S
C1760 C1761 1.400 . S
C1761 C1755 1.491 . S
C1761 C1760 1.400 . S
C1761 C1762 1.398 . S
C1762 H1750 0.950 . S
C1762 C1761 1.398 . S
C1762 C1763 1.391 . S
C1763 H1751 0.950 . S
C1763 C1759 1.393 . S
C1763 C1762 1.391 . S
H1764 C1772 0.950 . S
H1765 C1777 0.950 . S
H1766 C1774 0.950 . S
H1767 C1776 0.950 . S
H1768 C1778 0.950 . S
H1769 C1780 0.950 . S
H1770 C1782 0.950 . S
H1771 C1783 0.950 . S
C1772 H1764 0.950 . S
C1772 C1773 1.386 . S
C1772 C1774 1.391 . S
C1773 C1772 1.386 . S
C1773 C1777 1.393 . S
C1774 H1766 0.950 . S
C1774 C1772 1.391 . S
C1774 C1775 1.400 . S
C1775 C1774 1.400 . S
C1775 C1776 1.398 . S
C1775 C1781 1.491 . S
C1776 H1767 0.950 . S
C1776 C1775 1.398 . S
C1776 C1777 1.391 . S
C1777 H1765 0.950 . S
C1777 C1773 1.393 . S
C1777 C1776 1.391 . S
C1778 H1768 0.950 . S
C1778 C1779 1.386 . S
C1778 C1780 1.391 . S
C1779 C1778 1.386 . S
C1779 C1783 1.393 . S
C1780 H1769 0.950 . S
C1780 C1778 1.391 . S
C1780 C1781 1.400 . S
C1781 C1775 1.491 . S
C1781 C1780 1.400 . S
C1781 C1782 1.398 . S
C1782 H1770 0.950 . S
C1782 C1781 1.398 . S
C1782 C1783 1.391 . S
C1783 H1771 0.950 . S
C1783 C1779 1.393 . S
C1783 C1782 1.391 . S
H1784 C1792 0.950 . S
H1785 C1797 0.950 . S
H1786 C1794 0.950 . S
H1787 C1796 0.950 . S
H1788 C1798 0.950 . S
H1789 C1800 0.950 . S
H1790 C1802 0.950 . S
H1791 C1803 0.950 . S
C1792 H1784 0.950 . S
C1792 C1793 1.386 . S
C1792 C1794 1.391 . S
C1793 C1792 1.386 . S
C1793 C1797 1.393 . S
C1794 H1786 0.950 . S
C1794 C1792 1.391 . S
C1794 C1795 1.400 . S
C1795 C1794 1.400 . S
C1795 C1796 1.398 . S
C1795 C1801 1.491 . S
C1796 H1787 0.950 . S
C1796 C1795 1.398 . S
C1796 C1797 1.391 . S
C1797 H1785 0.950 . S
C1797 C1793 1.393 . S
C1797 C1796 1.391 . S
C1798 H1788 0.950 . S
C1798 C1799 1.386 . S
C1798 C1800 1.391 . S
C1799 C1798 1.386 . S
C1799 C1803 1.393 . S
C1800 H1789 0.950 . S
C1800 C1798 1.391 . S
C1800 C1801 1.400 . S
C1801 C1795 1.491 . S
C1801 C1800 1.400 . S
C1801 C1802 1.398 . S
C1802 H1790 0.950 . S
C1802 C1801 1.398 . S
C1802 C1803 1.391 . S
C1803 H1791 0.950 . S
C1803 C1799 1.393 . S
C1803 C1802 1.391 . S
H1804 C1812 0.950 . S
H1805 C1817 0.950 . S
H1806 C1814 0.950 . S
H1807 C1816 0.950 . S
H1808 C1818 0.950 . S
H1809 C1820 0.950 . S
H1810 C1822 0.950 . S
H1811 C1823 0.950 . S
C1812 H1804 0.950 . S
C1812 C1813 1.386 . S
C1812 C1814 1.391 . S
C1813 C1812 1.386 . S
C1813 C1817 1.393 . S
C1814 H1806 0.950 . S
C1814 C1812 1.391 . S
C1814 C1815 1.400 . S
C1815 C1814 1.400 . S
C1815 C1816 1.398 . S
C1815 C1821 1.491 . S
C1816 H1807 0.950 . S
C1816 C1815 1.398 . S
C1816 C1817 1.391 . S
C1817 H1805 0.950 . S
C1817 C1813 1.393 . S
C1817 C1816 1.391 . S
C1818 H1808 0.950 . S
C1818 C1819 1.386 . S
C1818 C1820 1.391 . S
C1819 C1818 1.386 . S
C1819 C1823 1.393 . S
C1820 H1809 0.950 . S
C1820 C1818 1.391 . S
C1820 C1821 1.400 . S
C1821 C1815 1.491 . S
C1821 C1820 1.400 . S
C1821 C1822 1.398 . S
C1822 H1810 0.950 . S
C1822 C1821 1.398 . S
C1822 C1823 1.391 . S
C1823 H1811 0.950 . S
C1823 C1819 1.393 . S
C1823 C1822 1.391 . S
H1824 C1832 0.950 . S
H1825 C1837 0.950 . S
H1826 C1834 0.950 . S
H1827 C1836 0.950 . S
H1828 C1838 0.950 . S
H1829 C1840 0.950 . S
H1830 C1842 0.950 . S
H1831 C1843 0.950 . S
C1832 H1824 0.950 . S
C1832 C1833 1.386 . S
C1832 C1834 1.391 . S
C1833 C1832 1.386 . S
C1833 C1837 1.393 . S
C1834 H1826 0.950 . S
C1834 C1832 1.391 . S
C1834 C1835 1.400 . S
C1835 C1834 1.400 . S
C1835 C1836 1.398 . S
C1835 C1841 1.491 . S
C1836 H1827 0.950 . S
C1836 C1835 1.398 . S
C1836 C1837 1.391 . S
C1837 H1825 0.950 . S
C1837 C1833 1.393 . S
C1837 C1836 1.391 . S
C1838 H1828 0.950 . S
C1838 C1839 1.386 . S
C1838 C1840 1.391 . S
C1839 C1838 1.386 . S
C1839 C1843 1.393 . S
C1840 H1829 0.950 . S
C1840 C1838 1.391 . S
C1840 C1841 1.400 . S
C1841 C1835 1.491 . S
C1841 C1840 1.400 . S
C1841 C1842 1.398 . S
C1842 H1830 0.950 . S
C1842 C1841 1.398 . S
C1842 C1843 1.391 . S
C1843 H1831 0.950 . S
C1843 C1839 1.393 . S
C1843 C1842 1.391 . S
H1844 C1852 0.950 . S
H1845 C1857 0.950 . S
H1846 C1854 0.950 . S
H1847 C1856 0.950 . S
H1848 C1858 0.950 . S
H1849 C1860 0.950 . S
H1850 C1862 0.950 . S
H1851 C1863 0.950 . S
C1852 H1844 0.950 . S
C1852 C1853 1.386 . S
C1852 C1854 1.391 . S
C1853 C1852 1.386 . S
C1853 C1857 1.393 . S
C1854 H1846 0.950 . S
C1854 C1852 1.391 . S
C1854 C1855 1.400 . S
C1855 C1854 1.400 . S
C1855 C1856 1.398 . S
C1855 C1861 1.491 . S
C1856 H1847 0.950 . S
C1856 C1855 1.398 . S
C1856 C1857 1.391 . S
C1857 H1845 0.950 . S
C1857 C1853 1.393 . S
C1857 C1856 1.391 . S
C1858 H1848 0.950 . S
C1858 C1859 1.386 . S
C1858 C1860 1.391 . S
C1859 C1858 1.386 . S
C1859 C1863 1.393 . S
C1860 H1849 0.950 . S
C1860 C1858 1.391 . S
C1860 C1861 1.400 . S
C1861 C1855 1.491 . S
C1861 C1860 1.400 . S
C1861 C1862 1.398 . S
C1862 H1850 0.950 . S
C1862 C1861 1.398 . S
C1862 C1863 1.391 . S
C1863 H1851 0.950 . S
C1863 C1859 1.393 . S
C1863 C1862 1.391 . S
H1864 C1872 0.950 . S
H1865 C1877 0.950 . S
H1866 C1874 0.950 . S
H1867 C1876 0.950 . S
H1868 C1878 0.950 . S
H1869 C1880 0.950 . S
H1870 C1882 0.950 . S
H1871 C1883 0.950 . S
C1872 H1864 0.950 . S
C1872 C1873 1.386 . S
C1872 C1874 1.391 . S
C1873 C1872 1.386 . S
C1873 C1877 1.393 . S
C1874 H1866 0.950 . S
C1874 C1872 1.391 . S
C1874 C1875 1.400 . S
C1875 C1874 1.400 . S
C1875 C1876 1.398 . S
C1875 C1881 1.491 . S
C1876 H1867 0.950 . S
C1876 C1875 1.398 . S
C1876 C1877 1.391 . S
C1877 H1865 0.950 . S
C1877 C1873 1.393 . S
C1877 C1876 1.391 . S
C1878 H1868 0.950 . S
C1878 C1879 1.386 . S
C1878 C1880 1.391 . S
C1879 C1878 1.386 . S
C1879 C1883 1.393 . S
C1880 H1869 0.950 . S
C1880 C1878 1.391 . S
C1880 C1881 1.400 . S
C1881 C1875 1.491 . S
C1881 C1880 1.400 . S
C1881 C1882 1.398 . S
C1882 H1870 0.950 . S
C1882 C1881 1.398 . S
C1882 C1883 1.391 . S
C1883 H1871 0.950 . S
C1883 C1879 1.393 . S
C1883 C1882 1.391 . S
H1884 C1892 0.950 . S
H1885 C1897 0.950 . S
H1886 C1894 0.950 . S
H1887 C1896 0.950 . S
H1888 C1898 0.950 . S
H1889 C1900 0.950 . S
H1890 C1902 0.950 . S
H1891 C1903 0.950 . S
C1892 H1884 0.950 . S
C1892 C1893 1.386 . S
C1892 C1894 1.391 . S
C1893 C1892 1.386 . S
C1893 C1897 1.393 . S
C1894 H1886 0.950 . S
C1894 C1892 1.391 . S
C1894 C1895 1.400 . S
C1895 C1894 1.400 . S
C1895 C1896 1.398 . S
C1895 C1901 1.491 . S
C1896 H1887 0.950 . S
C1896 C1895 1.398 . S
C1896 C1897 1.391 . S
C1897 H1885 0.950 . S
C1897 C1893 1.393 . S
C1897 C1896 1.391 . S
C1898 H1888 0.950 . S
C1898 C1899 1.386 . S
C1898 C1900 1.391 . S
C1899 C1898 1.386 . S
C1899 C1903 1.393 . S
C1900 H1889 0.950 . S
C1900 C1898 1.391 . S
C1900 C1901 1.400 . S
C1901 C1895 1.491 . S
C1901 C1900 1.400 . S
C1901 C1902 1.398 . S
C1902 H1890 0.950 . S
C1902 C1901 1.398 . S
C1902 C1903 1.391 . S
C1903 H1891 0.950 . S
C1903 C1899 1.393 . S
C1903 C1902 1.391 . S
H1904 C1912 0.950 . S
H1905 C1917 0.950 . S
H1906 C1914 0.950 . S
H1907 C1916 0.950 . S
H1908 C1918 0.950 . S
H1909 C1920 0.950 . S
H1910 C1922 0.950 . S
H1911 C1923 0.950 . S
C1912 H1904 0.950 . S
C1912 C1913 1.386 . S
C1912 C1914 1.391 . S
C1913 C1912 1.386 . S
C1913 C1917 1.393 . S
C1914 H1906 0.950 . S
C1914 C1912 1.391 . S
C1914 C1915 1.400 . S
C1915 C1914 1.400 . S
C1915 C1916 1.398 . S
C1915 C1921 1.491 . S
C1916 H1907 0.950 . S
C1916 C1915 1.398 . S
C1916 C1917 1.391 . S
C1917 H1905 0.950 . S
C1917 C1913 1.393 . S
C1917 C1916 1.391 . S
C1918 H1908 0.950 . S
C1918 C1919 1.386 . S
C1918 C1920 1.391 . S
C1919 C1918 1.386 . S
C1919 C1923 1.393 . S
C1920 H1909 0.950 . S
C1920 C1918 1.391 . S
C1920 C1921 1.400 . S
C1921 C1915 1.491 . S
C1921 C1920 1.400 . S
C1921 C1922 1.398 . S
C1922 H1910 0.950 . S
C1922 C1921 1.398 . S
C1922 C1923 1.391 . S
C1923 H1911 0.950 . S
C1923 C1919 1.393 . S
C1923 C1922 1.391 . S
H1924 C1932 0.950 . S
H1925 C1937 0.950 . S
H1926 C1934 0.950 . S
H1927 C1936 0.950 . S
H1928 C1938 0.950 . S
H1929 C1940 0.950 . S
H1930 C1942 0.950 . S
H1931 C1943 0.950 . S
C1932 H1924 0.950 . S
C1932 C1933 1.386 . S
C1932 C1934 1.391 . S
C1933 C1932 1.386 . S
C1933 C1937 1.393 . S
C1934 H1926 0.950 . S
C1934 C1932 1.391 . S
C1934 C1935 1.400 . S
C1935 C1934 1.400 . S
C1935 C1936 1.398 . S
C1935 C1941 1.491 . S
C1936 H1927 0.950 . S
C1936 C1935 1.398 . S
C1936 C1937 1.391 . S
C1937 H1925 0.950 . S
C1937 C1933 1.393 . S
C1937 C1936 1.391 . S
C1938 H1928 0.950 . S
C1938 C1939 1.386 . S
C1938 C1940 1.391 . S
C1939 C1938 1.386 . S
C1939 C1943 1.393 . S
C1940 H1929 0.950 . S
C1940 C1938 1.391 . S
C1940 C1941 1.400 . S
C1941 C1935 1.491 . S
C1941 C1940 1.400 . S
C1941 C1942 1.398 . S
C1942 H1930 0.950 . S
C1942 C1941 1.398 . S
C1942 C1943 1.391 . S
C1943 H1931 0.950 . S
C1943 C1939 1.393 . S
C1943 C1942 1.391 . S
H1944 C1952 0.950 . S
H1945 C1957 0.950 . S
H1946 C1954 0.950 . S
H1947 C1956 0.950 . S
H1948 C1958 0.950 . S
H1949 C1960 0.950 . S
H1950 C1962 0.950 . S
H1951 C1963 0.950 . S
C1952 H1944 0.950 . S
C1952 C1953 1.386 . S
C1952 C1954 1.391 . S
C1953 C1952 1.386 . S
C1953 C1957 1.393 . S
C1954 H1946 0.950 . S
C1954 C1952 1.391 . S
C1954 C1955 1.400 . S
C1955 C1954 1.400 . S
C1955 C1956 1.398 . S
C1955 C1961 1.491 . S
C1956 H1947 0.950 . S
C1956 C1955 1.398 . S
C1956 C1957 1.391 . S
C1957 H1945 0.950 . S
C1957 C1953 1.393 . S
C1957 C1956 1.391 . S
C1958 H1948 0.950 . S
C1958 C1959 1.386 . S
C1958 C1960 1.391 . S
C1959 C1958 1.386 . S
C1959 C1963 1.393 . S
C1960 H1949 0.950 . S
C1960 C1958 1.391 . S
C1960 C1961 1.400 . S
C1961 C1955 1.491 . S
C1961 C1960 1.400 . S
C1961 C1962 1.398 . S
C1962 H1950 0.950 . S
C1962 C1961 1.398 . S
C1962 C1963 1.391 . S
C1963 H1951 0.950 . S
C1963 C1959 1.393 . S
C1963 C1962 1.391 . S
H1964 C1972 0.950 . S
H1965 C1977 0.950 . S
H1966 C1974 0.950 . S
H1967 C1976 0.950 . S
H1968 C1978 0.950 . S
H1969 C1980 0.950 . S
H1970 C1982 0.950 . S
H1971 C1983 0.950 . S
C1972 H1964 0.950 . S
C1972 C1973 1.386 . S
C1972 C1974 1.391 . S
C1973 C1972 1.386 . S
C1973 C1977 1.393 . S
C1974 H1966 0.950 . S
C1974 C1972 1.391 . S
C1974 C1975 1.400 . S
C1975 C1974 1.400 . S
C1975 C1976 1.398 . S
C1975 C1981 1.491 . S
C1976 H1967 0.950 . S
C1976 C1975 1.398 . S
C1976 C1977 1.391 . S
C1977 H1965 0.950 . S
C1977 C1973 1.393 . S
C1977 C1976 1.391 . S
C1978 H1968 0.950 . S
C1978 C1979 1.386 . S
C1978 C1980 1.391 . S
C1979 C1978 1.386 . S
C1979 C1983 1.393 . S
C1980 H1969 0.950 . S
C1980 C1978 1.391 . S
C1980 C1981 1.400 . S
C1981 C1975 1.491 . S
C1981 C1980 1.400 . S
C1981 C1982 1.398 . S
C1982 H1970 0.950 . S
C1982 C1981 1.398 . S
C1982 C1983 1.391 . S
C1983 H1971 0.950 . S
C1983 C1979 1.393 . S
C1983 C1982 1.391 . S
H1984 C1992 0.950 . S
H1985 C1997 0.950 . S
H1986 C1994 0.950 . S
H1987 C1996 0.950 . S
H1988 C1998 0.950 . S
H1989 C2000 0.950 . S
H1990 C2002 0.950 . S
H1991 C2003 0.950 . S
C1992 H1984 0.950 . S
C1992 C1993 1.386 . S
C1992 C1994 1.391 . S
C1993 C1992 1.386 . S
C1993 C1997 1.393 . S
C1994 H1986 0.950 . S
C1994 C1992 1.391 . S
C1994 C1995 1.400 . S
C1995 C1994 1.400 . S
C1995 C1996 1.398 . S
C1995 C2001 1.491 . S
C1996 H1987 0.950 . S
C1996 C1995 1.398 . S
C1996 C1997 1.391 . S
C1997 H1985 0.950 . S
C1997 C1993 1.393 . S
C1997 C1996 1.391 . S
C1998 H1988 0.950 . S
C1998 C1999 1.386 . S
C1998 C2000 1.391 . S
C1999 C1998 1.386 . S
C1999 C2003 1.393 . S
C2000 H1989 0.950 . S
C2000 C1998 1.391 . S
C2000 C2001 1.400 . S
C2001 C1995 1.491 . S
C2001 C2000 1.400 . S
C2001 C2002 1.398 . S
C2002 H1990 0.950 . S
C2002 C2001 1.398 . S
C2002 C2003 1.391 . S
C2003 H1991 0.950 . S
C2003 C1999 1.393 . S
C2003 C2002 1.391 . S
H2004 C2012 0.950 . S
H2005 C2017 0.950 . S
H2006 C2014 0.950 . S
H2007 C2016 0.950 . S
H2008 C2018 0.950 . S
H2009 C2020 0.950 . S
H2010 C2022 0.950 . S
H2011 C2023 0.950 . S
C2012 H2004 0.950 . S
C2012 C2013 1.386 . S
C2012 C2014 1.391 . S
C2013 C2012 1.386 . S
C2013 C2017 1.393 . S
C2014 H2006 0.950 . S
C2014 C2012 1.391 . S
C2014 C2015 1.400 . S
C2015 C2014 1.400 . S
C2015 C2016 1.398 . S
C2015 C2021 1.491 . S
C2016 H2007 0.950 . S
C2016 C2015 1.398 . S
C2016 C2017 1.391 . S
C2017 H2005 0.950 . S
C2017 C2013 1.393 . S
C2017 C2016 1.391 . S
C2018 H2008 0.950 . S
C2018 C2019 1.386 . S
C2018 C2020 1.391 . S
C2019 C2018 1.386 . S
C2019 C2023 1.393 . S
C2020 H2009 0.950 . S
C2020 C2018 1.391 . S
C2020 C2021 1.400 . S
C2021 C2015 1.491 . S
C2021 C2020 1.400 . S
C2021 C2022 1.398 . S
C2022 H2010 0.950 . S
C2022 C2021 1.398 . S
C2022 C2023 1.391 . S
C2023 H2011 0.950 . S
C2023 C2019 1.393 . S
C2023 C2022 1.391 . S
H2024 C2032 0.950 . S
H2025 C2037 0.950 . S
H2026 C2034 0.950 . S
H2027 C2036 0.950 . S
H2028 C2038 0.950 . S
H2029 C2040 0.950 . S
H2030 C2042 0.950 . S
H2031 C2043 0.950 . S
C2032 H2024 0.950 . S
C2032 C2033 1.386 . S
C2032 C2034 1.391 . S
C2033 C2032 1.386 . S
C2033 C2037 1.393 . S
C2034 H2026 0.950 . S
C2034 C2032 1.391 . S
C2034 C2035 1.400 . S
C2035 C2034 1.400 . S
C2035 C2036 1.398 . S
C2035 C2041 1.491 . S
C2036 H2027 0.950 . S
C2036 C2035 1.398 . S
C2036 C2037 1.391 . S
C2037 H2025 0.950 . S
C2037 C2033 1.393 . S
C2037 C2036 1.391 . S
C2038 H2028 0.950 . S
C2038 C2039 1.386 . S
C2038 C2040 1.391 . S
C2039 C2038 1.386 . S
C2039 C2043 1.393 . S
C2040 H2029 0.950 . S
C2040 C2038 1.391 . S
C2040 C2041 1.400 . S
C2041 C2035 1.491 . S
C2041 C2040 1.400 . S
C2041 C2042 1.398 . S
C2042 H2030 0.950 . S
C2042 C2041 1.398 . S
C2042 C2043 1.391 . S
C2043 H2031 0.950 . S
C2043 C2039 1.393 . S
C2043 C2042 1.391 . S
H2044 C2052 0.950 . S
H2045 C2057 0.950 . S
H2046 C2054 0.950 . S
H2047 C2056 0.950 . S
H2048 C2058 0.950 . S
H2049 C2060 0.950 . S
H2050 C2062 0.950 . S
H2051 C2063 0.950 . S
C2052 H2044 0.950 . S
C2052 C2053 1.386 . S
C2052 C2054 1.391 . S
C2053 C2052 1.386 . S
C2053 C2057 1.393 . S
C2054 H2046 0.950 . S
C2054 C2052 1.391 . S
C2054 C2055 1.400 . S
C2055 C2054 1.400 . S
C2055 C2056 1.398 . S
C2055 C2061 1.491 . S
C2056 H2047 0.950 . S
C2056 C2055 1.398 . S
C2056 C2057 1.391 . S
C2057 H2045 0.950 . S
C2057 C2053 1.393 . S
C2057 C2056 1.391 . S
C2058 H2048 0.950 . S
C2058 C2059 1.386 . S
C2058 C2060 1.391 . S
C2059 C2058 1.386 . S
C2059 C2063 1.393 . S
C2060 H2049 0.950 . S
C2060 C2058 1.391 . S
C2060 C2061 1.400 . S
C2061 C2055 1.491 . S
C2061 C2060 1.400 . S
C2061 C2062 1.398 . S
C2062 H2050 0.950 . S
C2062 C2061 1.398 . S
C2062 C2063 1.391 . S
C2063 H2051 0.950 . S
C2063 C2059 1.393 . S
C2063 C2062 1.391 . S
H2064 C2072 0.950 . S
H2065 C2077 0.950 . S
H2066 C2074 0.950 . S
H2067 C2076 0.950 . S
H2068 C2078 0.950 . S
H2069 C2080 0.950 . S
H2070 C2082 0.950 . S
H2071 C2083 0.950 . S
C2072 H2064 0.950 . S
C2072 C2073 1.386 . S
C2072 C2074 1.391 . S
C2073 C2072 1.386 . S
C2073 C2077 1.393 . S
C2074 H2066 0.950 . S
C2074 C2072 1.391 . S
C2074 C2075 1.400 . S
C2075 C2074 1.400 . S
C2075 C2076 1.398 . S
C2075 C2081 1.491 . S
C2076 H2067 0.950 . S
C2076 C2075 1.398 . S
C2076 C2077 1.391 . S
C2077 H2065 0.950 . S
C2077 C2073 1.393 . S
C2077 C2076 1.391 . S
C2078 H2068 0.950 . S
C2078 C2079 1.386 . S
C2078 C2080 1.391 . S
C2079 C2078 1.386 . S
C2079 C2083 1.393 . S
C2080 H2069 0.950 . S
C2080 C2078 1.391 . S
C2080 C2081 1.400 . S
C2081 C2075 1.491 . S
C2081 C2080 1.400 . S
C2081 C2082 1.398 . S
C2082 H2070 0.950 . S
C2082 C2081 1.398 . S
C2082 C2083 1.391 . S
C2083 H2071 0.950 . S
C2083 C2079 1.393 . S
C2083 C2082 1.391 . S
H2084 C2092 0.950 . S
H2085 C2097 0.950 . S
H2086 C2094 0.950 . S
H2087 C2096 0.950 . S
H2088 C2098 0.950 . S
H2089 C2100 0.950 . S
H2090 C2102 0.950 . S
H2091 C2103 0.950 . S
C2092 H2084 0.950 . S
C2092 C2093 1.386 . S
C2092 C2094 1.391 . S
C2093 C2092 1.386 . S
C2093 C2097 1.393 . S
C2094 H2086 0.950 . S
C2094 C2092 1.391 . S
C2094 C2095 1.400 . S
C2095 C2094 1.400 . S
C2095 C2096 1.398 . S
C2095 C2101 1.491 . S
C2096 H2087 0.950 . S
C2096 C2095 1.398 . S
C2096 C2097 1.391 . S
C2097 H2085 0.950 . S
C2097 C2093 1.393 . S
C2097 C2096 1.391 . S
C2098 H2088 0.950 . S
C2098 C2099 1.386 . S
C2098 C2100 1.391 . S
C2099 C2098 1.386 . S
C2099 C2103 1.393 . S
C2100 H2089 0.950 . S
C2100 C2098 1.391 . S
C2100 C2101 1.400 . S
C2101 C2095 1.491 . S
C2101 C2100 1.400 . S
C2101 C2102 1.398 . S
C2102 H2090 0.950 . S
C2102 C2101 1.398 . S
C2102 C2103 1.391 . S
C2103 H2091 0.950 . S
C2103 C2099 1.393 . S
C2103 C2102 1.391 . S
H2104 C2112 0.950 . S
H2105 C2117 0.950 . S
H2106 C2114 0.950 . S
H2107 C2116 0.950 . S
H2108 C2118 0.950 . S
H2109 C2120 0.950 . S
H2110 C2122 0.950 . S
H2111 C2123 0.950 . S
C2112 H2104 0.950 . S
C2112 C2113 1.386 . S
C2112 C2114 1.391 . S
C2113 C2112 1.386 . S
C2113 C2117 1.393 . S
C2114 H2106 0.950 . S
C2114 C2112 1.391 . S
C2114 C2115 1.400 . S
C2115 C2114 1.400 . S
C2115 C2116 1.398 . S
C2115 C2121 1.491 . S
C2116 H2107 0.950 . S
C2116 C2115 1.398 . S
C2116 C2117 1.391 . S
C2117 H2105 0.950 . S
C2117 C2113 1.393 . S
C2117 C2116 1.391 . S
C2118 H2108 0.950 . S
C2118 C2119 1.386 . S
C2118 C2120 1.391 . S
C2119 C2118 1.386 . S
C2119 C2123 1.393 . S
C2120 H2109 0.950 . S
C2120 C2118 1.391 . S
C2120 C2121 1.400 . S
C2121 C2115 1.491 . S
C2121 C2120 1.400 . S
C2121 C2122 1.398 . S
C2122 H2110 0.950 . S
C2122 C2121 1.398 . S
C2122 C2123 1.391 . S
C2123 H2111 0.950 . S
C2123 C2119 1.393 . S
C2123 C2122 1.391 . S
H2124 C2132 0.950 . S
H2125 C2137 0.950 . S
H2126 C2134 0.950 . S
H2127 C2136 0.950 . S
H2128 C2138 0.950 . S
H2129 C2140 0.950 . S
H2130 C2142 0.950 . S
H2131 C2143 0.950 . S
C2132 H2124 0.950 . S
C2132 C2133 1.386 . S
C2132 C2134 1.391 . S
C2133 C2132 1.386 . S
C2133 C2137 1.393 . S
C2134 H2126 0.950 . S
C2134 C2132 1.391 . S
C2134 C2135 1.400 . S
C2135 C2134 1.400 . S
C2135 C2136 1.398 . S
C2135 C2141 1.491 . S
C2136 H2127 0.950 . S
C2136 C2135 1.398 . S
C2136 C2137 1.391 . S
C2137 H2125 0.950 . S
C2137 C2133 1.393 . S
C2137 C2136 1.391 . S
C2138 H2128 0.950 . S
C2138 C2139 1.386 . S
C2138 C2140 1.391 . S
C2139 C2138 1.386 . S
C2139 C2143 1.393 . S
C2140 H2129 0.950 . S
C2140 C2138 1.391 . S
C2140 C2141 1.400 . S
C2141 C2135 1.491 . S
C2141 C2140 1.400 . S
C2141 C2142 1.398 . S
C2142 H2130 0.950 . S
C2142 C2141 1.398 . S
C2142 C2143 1.391 . S
C2143 H2131 0.950 . S
C2143 C2139 1.393 . S
C2143 C2142 1.391 . S
H2144 C2152 0.950 . S
H2145 C2157 0.950 . S
H2146 C2154 0.950 . S
H2147 C2156 0.950 . S
H2148 C2158 0.950 . S
H2149 C2160 0.950 . S
H2150 C2162 0.950 . S
H2151 C2163 0.950 . S
C2152 H2144 0.950 . S
C2152 C2153 1.386 . S
C2152 C2154 1.391 . S
C2153 C2152 1.386 . S
C2153 C2157 1.393 . S
C2154 H2146 0.950 . S
C2154 C2152 1.391 . S
C2154 C2155 1.400 . S
C2155 C2154 1.400 . S
C2155 C2156 1.398 . S
C2155 C2161 1.491 . S
C2156 H2147 0.950 . S
C2156 C2155 1.398 . S
C2156 C2157 1.391 . S
C2157 H2145 0.950 . S
C2157 C2153 1.393 . S
C2157 C2156 1.391 . S
C2158 H2148 0.950 . S
C2158 C2159 1.386 . S
C2158 C2160 1.391 . S
C2159 C2158 1.386 . S
C2159 C2163 1.393 . S
C2160 H2149 0.950 . S
C2160 C2158 1.391 . S
C2160 C2161 1.400 . S
C2161 C2155 1.491 . S
C2161 C2160 1.400 . S
C2161 C2162 1.398 . S
C2162 H2150 0.950 . S
C2162 C2161 1.398 . S
C2162 C2163 1.391 . S
C2163 H2151 0.950 . S
C2163 C2159 1.393 . S
C2163 C2162 1.391 . S
H2164 C2172 0.950 . S
H2165 C2177 0.950 . S
H2166 C2174 0.950 . S
H2167 C2176 0.950 . S
H2168 C2178 0.950 . S
H2169 C2180 0.950 . S
H2170 C2182 0.950 . S
H2171 C2183 0.950 . S
C2172 H2164 0.950 . S
C2172 C2173 1.386 . S
C2172 C2174 1.391 . S
C2173 C2172 1.386 . S
C2173 C2177 1.393 . S
C2174 H2166 0.950 . S
C2174 C2172 1.391 . S
C2174 C2175 1.400 . S
C2175 C2174 1.400 . S
C2175 C2176 1.398 . S
C2175 C2181 1.491 . S
C2176 H2167 0.950 . S
C2176 C2175 1.398 . S
C2176 C2177 1.391 . S
C2177 H2165 0.950 . S
C2177 C2173 1.393 . S
C2177 C2176 1.391 . S
C2178 H2168 0.950 . S
C2178 C2179 1.386 . S
C2178 C2180 1.391 . S
C2179 C2178 1.386 . S
C2179 C2183 1.393 . S
C2180 H2169 0.950 . S
C2180 C2178 1.391 . S
C2180 C2181 1.400 . S
C2181 C2175 1.491 . S
C2181 C2180 1.400 . S
C2181 C2182 1.398 . S
C2182 H2170 0.950 . S
C2182 C2181 1.398 . S
C2182 C2183 1.391 . S
C2183 H2171 0.950 . S
C2183 C2179 1.393 . S
C2183 C2182 1.391 . S
H2184 C2192 0.950 . S
H2185 C2197 0.950 . S
H2186 C2194 0.950 . S
H2187 C2196 0.950 . S
H2188 C2198 0.950 . S
H2189 C2200 0.950 . S
H2190 C2202 0.950 . S
H2191 C2203 0.950 . S
C2192 H2184 0.950 . S
C2192 C2193 1.386 . S
C2192 C2194 1.391 . S
C2193 C2192 1.386 . S
C2193 C2197 1.393 . S
C2194 H2186 0.950 . S
C2194 C2192 1.391 . S
C2194 C2195 1.400 . S
C2195 C2194 1.400 . S
C2195 C2196 1.398 . S
C2195 C2201 1.491 . S
C2196 H2187 0.950 . S
C2196 C2195 1.398 . S
C2196 C2197 1.391 . S
C2197 H2185 0.950 . S
C2197 C2193 1.393 . S
C2197 C2196 1.391 . S
C2198 H2188 0.950 . S
C2198 C2199 1.386 . S
C2198 C2200 1.391 . S
C2199 C2198 1.386 . S
C2199 C2203 1.393 . S
C2200 H2189 0.950 . S
C2200 C2198 1.391 . S
C2200 C2201 1.400 . S
C2201 C2195 1.491 . S
C2201 C2200 1.400 . S
C2201 C2202 1.398 . S
C2202 H2190 0.950 . S
C2202 C2201 1.398 . S
C2202 C2203 1.391 . S
C2203 H2191 0.950 . S
C2203 C2199 1.393 . S
C2203 C2202 1.391 . S
H2204 C2212 0.950 . S
H2205 C2217 0.950 . S
H2206 C2214 0.950 . S
H2207 C2216 0.950 . S
H2208 C2218 0.950 . S
H2209 C2220 0.950 . S
H2210 C2222 0.950 . S
H2211 C2223 0.950 . S
C2212 H2204 0.950 . S
C2212 C2213 1.386 . S
C2212 C2214 1.391 . S
C2213 C2212 1.386 . S
C2213 C2217 1.393 . S
C2214 H2206 0.950 . S
C2214 C2212 1.391 . S
C2214 C2215 1.400 . S
C2215 C2214 1.400 . S
C2215 C2216 1.398 . S
C2215 C2221 1.491 . S
C2216 H2207 0.950 . S
C2216 C2215 1.398 . S
C2216 C2217 1.391 . S
C2217 H2205 0.950 . S
C2217 C2213 1.393 . S
C2217 C2216 1.391 . S
C2218 H2208 0.950 . S
C2218 C2219 1.386 . S
C2218 C2220 1.391 . S
C2219 C2218 1.386 . S
C2219 C2223 1.393 . S
C2220 H2209 0.950 . S
C2220 C2218 1.391 . S
C2220 C2221 1.400 . S
C2221 C2215 1.491 . S
C2221 C2220 1.400 . S
C2221 C2222 1.398 . S
C2222 H2210 0.950 . S
C2222 C2221 1.398 . S
C2222 C2223 1.391 . S
C2223 H2211 0.950 . S
C2223 C2219 1.393 . S
C2223 C2222 1.391 . S
H2224 C2232 0.950 . S
H2225 C2237 0.950 . S
H2226 C2234 0.950 . S
H2227 C2236 0.950 . S
H2228 C2238 0.950 . S
H2229 C2240 0.950 . S
H2230 C2242 0.950 . S
H2231 C2243 0.950 . S
C2232 H2224 0.950 . S
C2232 C2233 1.386 . S
C2232 C2234 1.391 . S
C2233 C2232 1.386 . S
C2233 C2237 1.393 . S
C2234 H2226 0.950 . S
C2234 C2232 1.391 . S
C2234 C2235 1.400 . S
C2235 C2234 1.400 . S
C2235 C2236 1.398 . S
C2235 C2241 1.491 . S
C2236 H2227 0.950 . S
C2236 C2235 1.398 . S
C2236 C2237 1.391 . S
C2237 H2225 0.950 . S
C2237 C2233 1.393 . S
C2237 C2236 1.391 . S
C2238 H2228 0.950 . S
C2238 C2239 1.386 . S
C2238 C2240 1.391 . S
C2239 C2238 1.386 . S
C2239 C2243 1.393 . S
C2240 H2229 0.950 . S
C2240 C2238 1.391 . S
C2240 C2241 1.400 . S
C2241 C2235 1.491 . S
C2241 C2240 1.400 . S
C2241 C2242 1.398 . S
C2242 H2230 0.950 . S
C2242 C2241 1.398 . S
C2242 C2243 1.391 . S
C2243 H2231 0.950 . S
C2243 C2239 1.393 . S
C2243 C2242 1.391 . S
H2244 C2252 0.950 . S
H2245 C2257 0.950 . S
H2246 C2254 0.950 . S
H2247 C2256 0.950 . S
H2248 C2258 0.950 . S
H2249 C2260 0.950 . S
H2250 C2262 0.950 . S
H2251 C2263 0.950 . S
C2252 H2244 0.950 . S
C2252 C2253 1.386 . S
C2252 C2254 1.391 . S
C2253 C2252 1.386 . S
C2253 C2257 1.393 . S
C2254 H2246 0.950 . S
C2254 C2252 1.391 . S
C2254 C2255 1.400 . S
C2255 C2254 1.400 . S
C2255 C2256 1.398 . S
C2255 C2261 1.491 . S
C2256 H2247 0.950 . S
C2256 C2255 1.398 . S
C2256 C2257 1.391 . S
C2257 H2245 0.950 . S
C2257 C2253 1.393 . S
C2257 C2256 1.391 . S
C2258 H2248 0.950 . S
C2258 C2259 1.386 . S
C2258 C2260 1.391 . S
C2259 C2258 1.386 . S
C2259 C2263 1.393 . S
C2260 H2249 0.950 . S
C2260 C2258 1.391 . S
C2260 C2261 1.400 . S
C2261 C2255 1.491 . S
C2261 C2260 1.400 . S
C2261 C2262 1.398 . S
C2262 H2250 0.950 . S
C2262 C2261 1.398 . S
C2262 C2263 1.391 . S
C2263 H2251 0.950 . S
C2263 C2259 1.393 . S
C2263 C2262 1.391 . S
H2264 C2272 0.950 . S
H2265 C2277 0.950 . S
H2266 C2274 0.950 . S
H2267 C2276 0.950 . S
H2268 C2278 0.950 . S
H2269 C2280 0.950 . S
H2270 C2282 0.950 . S
H2271 C2283 0.950 . S
C2272 H2264 0.950 . S
C2272 C2273 1.386 . S
C2272 C2274 1.391 . S
C2273 C2272 1.386 . S
C2273 C2277 1.393 . S
C2274 H2266 0.950 . S
C2274 C2272 1.391 . S
C2274 C2275 1.400 . S
C2275 C2274 1.400 . S
C2275 C2276 1.398 . S
C2275 C2281 1.491 . S
C2276 H2267 0.950 . S
C2276 C2275 1.398 . S
C2276 C2277 1.391 . S
C2277 H2265 0.950 . S
C2277 C2273 1.393 . S
C2277 C2276 1.391 . S
C2278 H2268 0.950 . S
C2278 C2279 1.386 . S
C2278 C2280 1.391 . S
C2279 C2278 1.386 . S
C2279 C2283 1.393 . S
C2280 H2269 0.950 . S
C2280 C2278 1.391 . S
C2280 C2281 1.400 . S
C2281 C2275 1.491 . S
C2281 C2280 1.400 . S
C2281 C2282 1.398 . S
C2282 H2270 0.950 . S
C2282 C2281 1.398 . S
C2282 C2283 1.391 . S
C2283 H2271 0.950 . S
C2283 C2279 1.393 . S
C2283 C2282 1.391 . S
H2284 C2292 0.950 . S
H2285 C2297 0.950 . S
H2286 C2294 0.950 . S
H2287 C2296 0.950 . S
H2288 C2298 0.950 . S
H2289 C2300 0.950 . S
H2290 C2302 0.950 . S
H2291 C2303 0.950 . S
C2292 H2284 0.950 . S
C2292 C2293 1.386 . S
C2292 C2294 1.391 . S
C2293 C2292 1.386 . S
C2293 C2297 1.393 . S
C2294 H2286 0.950 . S
C2294 C2292 1.391 . S
C2294 C2295 1.400 . S
C2295 C2294 1.400 . S
C2295 C2296 1.398 . S
C2295 C2301 1.491 . S
C2296 H2287 0.950 . S
C2296 C2295 1.398 . S
C2296 C2297 1.391 . S
C2297 H2285 0.950 . S
C2297 C2293 1.393 . S
C2297 C2296 1.391 . S
C2298 H2288 0.950 . S
C2298 C2299 1.386 . S
C2298 C2300 1.391 . S
C2299 C2298 1.386 . S
C2299 C2303 1.393 . S
C2300 H2289 0.950 . S
C2300 C2298 1.391 . S
C2300 C2301 1.400 . S
C2301 C2295 1.491 . S
C2301 C2300 1.400 . S
C2301 C2302 1.398 . S
C2302 H2290 0.950 . S
C2302 C2301 1.398 . S
C2302 C2303 1.391 . S
C2303 H2291 0.950 . S
C2303 C2299 1.393 . S
C2303 C2302 1.391 . S
H2304 C2312 0.950 . S
H2305 C2317 0.950 . S
H2306 C2314 0.950 . S
H2307 C2316 0.950 . S
H2308 C2318 0.950 . S
H2309 C2320 0.950 . S
H2310 C2322 0.950 . S
H2311 C2323 0.950 . S
C2312 H2304 0.950 . S
C2312 C2313 1.386 . S
C2312 C2314 1.391 . S
C2313 C2312 1.386 . S
C2313 C2317 1.393 . S
C2314 H2306 0.950 . S
C2314 C2312 1.391 . S
C2314 C2315 1.400 . S
C2315 C2314 1.400 . S
C2315 C2316 1.398 . S
C2315 C2321 1.491 . S
C2316 H2307 0.950 . S
C2316 C2315 1.398 . S
C2316 C2317 1.391 . S
C2317 H2305 0.950 . S
C2317 C2313 1.393 . S
C2317 C2316 1.391 . S
C2318 H2308 0.950 . S
C2318 C2319 1.386 . S
C2318 C2320 1.391 . S
C2319 C2318 1.386 . S
C2319 C2323 1.393 . S
C2320 H2309 0.950 . S
C2320 C2318 1.391 . S
C2320 C2321 1.400 . S
C2321 C2315 1.491 . S
C2321 C2320 1.400 . S
C2321 C2322 1.398 . S
C2322 H2310 0.950 . S
C2322 C2321 1.398 . S
C2322 C2323 1.391 . S
C2323 H2311 0.950 . S
C2323 C2319 1.393 . S
C2323 C2322 1.391 . S
H2324 C2332 0.950 . S
H2325 C2337 0.950 . S
H2326 C2334 0.950 . S
H2327 C2336 0.950 . S
H2328 C2338 0.950 . S
H2329 C2340 0.950 . S
H2330 C2342 0.950 . S
H2331 C2343 0.950 . S
C2332 H2324 0.950 . S
C2332 C2333 1.386 . S
C2332 C2334 1.391 . S
C2333 C2332 1.386 . S
C2333 C2337 1.393 . S
C2334 H2326 0.950 . S
C2334 C2332 1.391 . S
C2334 C2335 1.400 . S
C2335 C2334 1.400 . S
C2335 C2336 1.398 . S
C2335 C2341 1.491 . S
C2336 H2327 0.950 . S
C2336 C2335 1.398 . S
C2336 C2337 1.391 . S
C2337 H2325 0.950 . S
C2337 C2333 1.393 . S
C2337 C2336 1.391 . S
C2338 H2328 0.950 . S
C2338 C2339 1.386 . S
C2338 C2340 1.391 . S
C2339 C2338 1.386 . S
C2339 C2343 1.393 . S
C2340 H2329 0.950 . S
C2340 C2338 1.391 . S
C2340 C2341 1.400 . S
C2341 C2335 1.491 . S
C2341 C2340 1.400 . S
C2341 C2342 1.398 . S
C2342 H2330 0.950 . S
C2342 C2341 1.398 . S
C2342 C2343 1.391 . S
C2343 H2331 0.950 . S
C2343 C2339 1.393 . S
C2343 C2342 1.391 . S
H2344 C2352 0.950 . S
H2345 C2357 0.950 . S
H2346 C2354 0.950 . S
H2347 C2356 0.950 . S
H2348 C2358 0.950 . S
H2349 C2360 0.950 . S
H2350 C2362 0.950 . S
H2351 C2363 0.950 . S
C2352 H2344 0.950 . S
C2352 C2353 1.386 . S
C2352 C2354 1.391 . S
C2353 C2352 1.386 . S
C2353 C2357 1.393 . S
C2354 H2346 0.950 . S
C2354 C2352 1.391 . S
C2354 C2355 1.400 . S
C2355 C2354 1.400 . S
C2355 C2356 1.398 . S
C2355 C2361 1.491 . S
C2356 H2347 0.950 . S
C2356 C2355 1.398 . S
C2356 C2357 1.391 . S
C2357 H2345 0.950 . S
C2357 C2353 1.393 . S
C2357 C2356 1.391 . S
C2358 H2348 0.950 . S
C2358 C2359 1.386 . S
C2358 C2360 1.391 . S
C2359 C2358 1.386 . S
C2359 C2363 1.393 . S
C2360 H2349 0.950 . S
C2360 C2358 1.391 . S
C2360 C2361 1.400 . S
C2361 C2355 1.491 . S
C2361 C2360 1.400 . S
C2361 C2362 1.398 . S
C2362 H2350 0.950 . S
C2362 C2361 1.398 . S
C2362 C2363 1.391 . S
C2363 H2351 0.950 . S
C2363 C2359 1.393 . S
C2363 C2362 1.391 . S
H2364 C2372 0.950 . S
H2365 C2377 0.950 . S
H2366 C2374 0.950 . S
H2367 C2376 0.950 . S
H2368 C2378 0.950 . S
H2369 C2380 0.950 . S
H2370 C2382 0.950 . S
H2371 C2383 0.950 . S
C2372 H2364 0.950 . S
C2372 C2373 1.386 . S
C2372 C2374 1.391 . S
C2373 C2372 1.386 . S
C2373 C2377 1.393 . S
C2374 H2366 0.950 . S
C2374 C2372 1.391 . S
C2374 C2375 1.400 . S
C2375 C2374 1.400 . S
C2375 C2376 1.398 . S
C2375 C2381 1.491 . S
C2376 H2367 0.950 . S
C2376 C2375 1.398 . S
C2376 C2377 1.391 . S
C2377 H2365 0.950 . S
C2377 C2373 1.393 . S
C2377 C2376 1.391 . S
C2378 H2368 0.950 . S
C2378 C2379 1.386 . S
C2378 C2380 1.391 . S
C2379 C2378 1.386 . S
C2379 C2383 1.393 . S
C2380 H2369 0.950 . S
C2380 C2378 1.391 . S
C2380 C2381 1.400 . S
C2381 C2375 1.491 . S
C2381 C2380 1.400 . S
C2381 C2382 1.398 . S
C2382 H2370 0.950 . S
C2382 C2381 1.398 . S
C2382 C2383 1.391 . S
C2383 H2371 0.950 . S
C2383 C2379 1.393 . S
C2383 C2382 1.391 . S
H2384 C2392 0.950 . S
H2385 C2397 0.950 . S
H2386 C2394 0.950 . S
H2387 C2396 0.950 . S
H2388 C2398 0.950 . S
H2389 C2400 0.950 . S
H2390 C2402 0.950 . S
H2391 C2403 0.950 . S
C2392 H2384 0.950 . S
C2392 C2393 1.386 . S
C2392 C2394 1.391 . S
C2393 C2392 1.386 . S
C2393 C2397 1.393 . S
C2394 H2386 0.950 . S
C2394 C2392 1.391 . S
C2394 C2395 1.400 . S
C2395 C2394 1.400 . S
C2395 C2396 1.398 . S
C2395 C2401 1.491 . S
C2396 H2387 0.950 . S
C2396 C2395 1.398 . S
C2396 C2397 1.391 . S
C2397 H2385 0.950 . S
C2397 C2393 1.393 . S
C2397 C2396 1.391 . S
C2398 H2388 0.950 . S
C2398 C2399 1.386 . S
C2398 C2400 1.391 . S
C2399 C2398 1.386 . S
C2399 C2403 1.393 . S
C2400 H2389 0.950 . S
C2400 C2398 1.391 . S
C2400 C2401 1.400 . S
C2401 C2395 1.491 . S
C2401 C2400 1.400 . S
C2401 C2402 1.398 . S
C2402 H2390 0.950 . S
C2402 C2401 1.398 . S
C2402 C2403 1.391 . S
C2403 H2391 0.950 . S
C2403 C2399 1.393 . S
C2403 C2402 1.391 . S
H2404 C2412 0.950 . S
H2405 C2417 0.950 . S
H2406 C2414 0.950 . S
H2407 C2416 0.950 . S
H2408 C2418 0.950 . S
H2409 C2420 0.950 . S
H2410 C2422 0.950 . S
H2411 C2423 0.950 . S
C2412 H2404 0.950 . S
C2412 C2413 1.386 . S
C2412 C2414 1.391 . S
C2413 C2412 1.386 . S
C2413 C2417 1.393 . S
C2414 H2406 0.950 . S
C2414 C2412 1.391 . S
C2414 C2415 1.400 . S
C2415 C2414 1.400 . S
C2415 C2416 1.398 . S
C2415 C2421 1.491 . S
C2416 H2407 0.950 . S
C2416 C2415 1.398 . S
C2416 C2417 1.391 . S
C2417 H2405 0.950 . S
C2417 C2413 1.393 . S
C2417 C2416 1.391 . S
C2418 H2408 0.950 . S
C2418 C2419 1.386 . S
C2418 C2420 1.391 . S
C2419 C2418 1.386 . S
C2419 C2423 1.393 . S
C2420 H2409 0.950 . S
C2420 C2418 1.391 . S
C2420 C2421 1.400 . S
C2421 C2415 1.491 . S
C2421 C2420 1.400 . S
C2421 C2422 1.398 . S
C2422 H2410 0.950 . S
C2422 C2421 1.398 . S
C2422 C2423 1.391 . S
C2423 H2411 0.950 . S
C2423 C2419 1.393 . S
C2423 C2422 1.391 . S
H2424 C2432 0.950 . S
H2425 C2437 0.950 . S
H2426 C2434 0.950 . S
H2427 C2436 0.950 . S
H2428 C2438 0.950 . S
H2429 C2440 0.950 . S
H2430 C2442 0.950 . S
H2431 C2443 0.950 . S
C2432 H2424 0.950 . S
C2432 C2433 1.386 . S
C2432 C2434 1.391 . S
C2433 C2432 1.386 . S
C2433 C2437 1.393 . S
C2434 H2426 0.950 . S
C2434 C2432 1.391 . S
C2434 C2435 1.400 . S
C2435 C2434 1.400 . S
C2435 C2436 1.398 . S
C2435 C2441 1.491 . S
C2436 H2427 0.950 . S
C2436 C2435 1.398 . S
C2436 C2437 1.391 . S
C2437 H2425 0.950 . S
C2437 C2433 1.393 . S
C2437 C2436 1.391 . S
C2438 H2428 0.950 . S
C2438 C2439 1.386 . S
C2438 C2440 1.391 . S
C2439 C2438 1.386 . S
C2439 C2443 1.393 . S
C2440 H2429 0.950 . S
C2440 C2438 1.391 . S
C2440 C2441 1.400 . S
C2441 C2435 1.491 . S
C2441 C2440 1.400 . S
C2441 C2442 1.398 . S
C2442 H2430 0.950 . S
C2442 C2441 1.398 . S
C2442 C2443 1.391 . S
C2443 H2431 0.950 . S
C2443 C2439 1.393 . S
C2443 C2442 1.391 . S
H2444 C2452 0.950 . S
H2445 C2457 0.950 . S
H2446 C2454 0.950 . S
H2447 C2456 0.950 . S
H2448 C2458 0.950 . S
H2449 C2460 0.950 . S
H2450 C2462 0.950 . S
H2451 C2463 0.950 . S
C2452 H2444 0.950 . S
C2452 C2453 1.386 . S
C2452 C2454 1.391 . S
C2453 C2452 1.386 . S
C2453 C2457 1.393 . S
C2454 H2446 0.950 . S
C2454 C2452 1.391 . S
C2454 C2455 1.400 . S
C2455 C2454 1.400 . S
C2455 C2456 1.398 . S
C2455 C2461 1.491 . S
C2456 H2447 0.950 . S
C2456 C2455 1.398 . S
C2456 C2457 1.391 . S
C2457 H2445 0.950 . S
C2457 C2453 1.393 . S
C2457 C2456 1.391 . S
C2458 H2448 0.950 . S
C2458 C2459 1.386 . S
C2458 C2460 1.391 . S
C2459 C2458 1.386 . S
C2459 C2463 1.393 . S
C2460 H2449 0.950 . S
C2460 C2458 1.391 . S
C2460 C2461 1.400 . S
C2461 C2455 1.491 . S
C2461 C2460 1.400 . S
C2461 C2462 1.398 . S
C2462 H2450 0.950 . S
C2462 C2461 1.398 . S
C2462 C2463 1.391 . S
C2463 H2451 0.950 . S
C2463 C2459 1.393 . S
C2463 C2462 1.391 . S
H2464 C2472 0.950 . S
H2465 C2477 0.950 . S
H2466 C2474 0.950 . S
H2467 C2476 0.950 . S
H2468 C2478 0.950 . S
H2469 C2480 0.950 . S
H2470 C2482 0.950 . S
H2471 C2483 0.950 . S
C2472 H2464 0.950 . S
C2472 C2473 1.386 . S
C2472 C2474 1.391 . S
C2473 C2472 1.386 . S
C2473 C2477 1.393 . S
C2474 H2466 0.950 . S
C2474 C2472 1.391 . S
C2474 C2475 1.400 . S
C2475 C2474 1.400 . S
C2475 C2476 1.398 . S
C2475 C2481 1.491 . S
C2476 H2467 0.950 . S
C2476 C2475 1.398 . S
C2476 C2477 1.391 . S
C2477 H2465 0.950 . S
C2477 C2473 1.393 . S
C2477 C2476 1.391 . S
C2478 H2468 0.950 . S
C2478 C2479 1.386 . S
C2478 C2480 1.391 . S
C2479 C2478 1.386 . S
C2479 C2483 1.393 . S
C2480 H2469 0.950 . S
C2480 C2478 1.391 . S
C2480 C2481 1.400 . S
C2481 C2475 1.491 . S
C2481 C2480 1.400 . S
C2481 C2482 1.398 . S
C2482 H2470 0.950 . S
C2482 C2481 1.398 . S
C2482 C2483 1.391 . S
C2483 H2471 0.950 . S
C2483 C2479 1.393 . S
C2483 C2482 1.391 . S
H2484 C2492 0.950 . S
H2485 C2497 0.950 . S
H2486 C2494 0.950 . S
H2487 C2496 0.950 . S
H2488 C2498 0.950 . S
H2489 C2500 0.950 . S
H2490 C2502 0.950 . S
H2491 C2503 0.950 . S
C2492 H2484 0.950 . S
C2492 C2493 1.386 . S
C2492 C2494 1.391 . S
C2493 C2492 1.386 . S
C2493 C2497 1.393 . S
C2494 H2486 0.950 . S
C2494 C2492 1.391 . S
C2494 C2495 1.400 . S
C2495 C2494 1.400 . S
C2495 C2496 1.398 . S
C2495 C2501 1.491 . S
C2496 H2487 0.950 . S
C2496 C2495 1.398 . S
C2496 C2497 1.391 . S
C2497 H2485 0.950 . S
C2497 C2493 1.393 . S
C2497 C2496 1.391 . S
C2498 H2488 0.950 . S
C2498 C2499 1.386 . S
C2498 C2500 1.391 . S
C2499 C2498 1.386 . S
C2499 C2503 1.393 . S
C2500 H2489 0.950 . S
C2500 C2498 1.391 . S
C2500 C2501 1.400 . S
C2501 C2495 1.491 . S
C2501 C2500 1.400 . S
C2501 C2502 1.398 . S
C2502 H2490 0.950 . S
C2502 C2501 1.398 . S
C2502 C2503 1.391 . S
C2503 H2491 0.950 . S
C2503 C2499 1.393 . S
C2503 C2502 1.391 . S
H2504 C2512 0.950 . S
H2505 C2517 0.950 . S
H2506 C2514 0.950 . S
H2507 C2516 0.950 . S
H2508 C2518 0.950 . S
H2509 C2520 0.950 . S
H2510 C2522 0.950 . S
H2511 C2523 0.950 . S
C2512 H2504 0.950 . S
C2512 C2513 1.386 . S
C2512 C2514 1.391 . S
C2513 C2512 1.386 . S
C2513 C2517 1.393 . S
C2514 H2506 0.950 . S
C2514 C2512 1.391 . S
C2514 C2515 1.400 . S
C2515 C2514 1.400 . S
C2515 C2516 1.398 . S
C2515 C2521 1.491 . S
C2516 H2507 0.950 . S
C2516 C2515 1.398 . S
C2516 C2517 1.391 . S
C2517 H2505 0.950 . S
C2517 C2513 1.393 . S
C2517 C2516 1.391 . S
C2518 H2508 0.950 . S
C2518 C2519 1.386 . S
C2518 C2520 1.391 . S
C2519 C2518 1.386 . S
C2519 C2523 1.393 . S
C2520 H2509 0.950 . S
C2520 C2518 1.391 . S
C2520 C2521 1.400 . S
C2521 C2515 1.491 . S
C2521 C2520 1.400 . S
C2521 C2522 1.398 . S
C2522 H2510 0.950 . S
C2522 C2521 1.398 . S
C2522 C2523 1.391 . S
C2523 H2511 0.950 . S
C2523 C2519 1.393 . S
C2523 C2522 1.391 . S
H2524 C2532 0.950 . S
H2525 C2537 0.950 . S
H2526 C2534 0.950 . S
H2527 C2536 0.950 . S
H2528 C2538 0.950 . S
H2529 C2540 0.950 . S
H2530 C2542 0.950 . S
H2531 C2543 0.950 . S
C2532 H2524 0.950 . S
C2532 C2533 1.386 . S
C2532 C2534 1.391 . S
C2533 C2532 1.386 . S
C2533 C2537 1.393 . S
C2534 H2526 0.950 . S
C2534 C2532 1.391 . S
C2534 C2535 1.400 . S
C2535 C2534 1.400 . S
C2535 C2536 1.398 . S
C2535 C2541 1.491 . S
C2536 H2527 0.950 . S
C2536 C2535 1.398 . S
C2536 C2537 1.391 . S
C2537 H2525 0.950 . S
C2537 C2533 1.393 . S
C2537 C2536 1.391 . S
C2538 H2528 0.950 . S
C2538 C2539 1.386 . S
C2538 C2540 1.391 . S
C2539 C2538 1.386 . S
C2539 C2543 1.393 . S
C2540 H2529 0.950 . S
C2540 C2538 1.391 . S
C2540 C2541 1.400 . S
C2541 C2535 1.491 . S
C2541 C2540 1.400 . S
C2541 C2542 1.398 . S
C2542 H2530 0.950 . S
C2542 C2541 1.398 . S
C2542 C2543 1.391 . S
C2543 H2531 0.950 . S
C2543 C2539 1.393 . S
C2543 C2542 1.391 . S
C633 C218 1.479 . S
C639 C3 1.499 . S
C653 C612 1.550 . S
C659 C16 1.462 . S
C673 C29 1.530 . S
C679 C595 1.507 . S
C693 C42 1.373 . S
C699 C599 1.451 . S
C713 C231 1.567 . S
C719 C55 1.576 . S
C733 C68 1.499 . S
C739 C235 1.584 . S
C753 C81 1.620 . S
C759 C257 1.613 . S
C773 C573 1.499 . S
C779 C94 1.431 . S
C793 C107 1.499 . S
C799 C10 1.479 . S
C813 C23 1.578 . S
C819 C120 1.478 . S
C833 C36 1.435 . S
C839 C133 1.441 . S
C853 C49 1.609 . S
C859 C146 1.517 . S
C873 C62 1.507 . S
C879 C159 1.529 . S
C893 C172 1.388 . S
C899 C75 1.481 . S
C913 C88 1.459 . S
C919 C185 1.481 . S
C933 C198 1.407 . S
C939 C101 1.510 . S
C953 C211 1.495 . S
C959 C114 1.471 . S
C973 C166 1.434 . S
C979 C224 1.448 . S
C993 C239 1.452 . S
C999 C179 1.461 . S
C1013 C250 1.523 . S
C1019 C192 1.511 . S
C1033 C517 1.542 . S
C1039 C265 1.540 . S
C1053 C276 1.482 . S
C1059 C452 1.475 . S
C1073 C465 1.571 . S
C1079 C291 1.555 . S
C1093 C439 1.602 . S
C1099 C304 1.603 . S
C1113 C530 1.558 . S
C1119 C315 1.560 . S
C1133 C328 1.411 . S
C1139 C300 1.472 . S
C1153 C341 1.516 . S
C1159 C283 1.507 . S
C1173 C354 1.506 . S
C1179 C287 1.579 . S
C1193 C367 1.485 . S
C1199 C543 1.478 . S
C1213 C547 1.408 . S
C1219 C380 1.326 . S
C1233 C393 1.428 . S
C1239 C569 1.413 . S
C1253 C261 1.526 . S
C1259 C406 1.416 . S
C1273 C322 1.568 . S
C1279 C419 1.574 . S
C1293 C432 1.347 . S
C1299 C335 1.471 . S
C1313 C445 1.627 . S
C1319 C348 1.610 . S
C1333 C458 1.333 . S
C1339 C361 1.422 . S
C1353 C471 1.511 . S
C1359 C374 1.512 . S
C1373 C484 1.451 . S
C1379 C387 1.557 . S
C1393 C400 1.580 . S
C1399 C497 1.580 . S
C1413 C413 1.543 . S
C1419 C510 1.412 . S
C1433 C426 1.568 . S
C1439 C523 1.570 . S
C1453 C478 1.610 . S
C1459 C536 1.619 . S
C1473 C491 1.568 . S
C1479 C551 1.585 . S
C1493 C562 1.543 . S
C1499 C504 1.520 . S
C1513 C577 1.521 . S
C1519 C205 1.513 . S
C1533 C588 1.587 . S
C1539 C140 1.573 . S
C1553 C153 1.465 . S
C1559 C603 1.493 . S
C1573 C616 1.434 . S
C1579 C127 1.421 . S
C1593 C5 1.442 . S
C1599 C352 1.339 . S
C1613 C313 1.885 . S
C1619 C18 1.870 . S
C1633 C31 1.341 . S
C1639 C326 1.248 . S
C1653 C44 1.838 . S
C1659 C339 1.848 . S
C1673 C57 1.564 . S
C1679 C66 1.460 . S
C1693 C79 2.117 . S
C1699 C70 2.107 . S
C1713 C83 1.459 . S
C1719 C92 1.389 . S
C1733 C96 2.083 . S
C1739 C53 2.098 . S
C1753 C109 1.446 . S
C1759 C556 1.426 . S
C1773 C122 1.987 . S
C1779 C560 2.002 . S
C1793 C135 1.855 . S
C1799 C270 1.824 . S
C1813 C148 2.113 . S
C1819 C534 2.132 . S
C1833 C161 1.331 . S
C1839 C608 1.324 . S
C1853 C209 1.973 . S
C1859 C174 1.972 . S
C1873 C187 1.751 . S
C1879 C621 1.732 . S
C1893 C586 2.096 . S
C1899 C200 2.090 . S
C1913 C118 1.343 . S
C1919 C213 1.433 . S
C1933 C226 1.856 . S
C1939 C508 1.746 . S
C1953 C237 1.877 . S
C1959 C469 1.850 . S
C1973 C482 1.844 . S
C1979 C252 1.946 . S
C1993 C263 1.802 . S
C1999 C183 1.772 . S
C2013 C456 1.634 . S
C2019 C278 1.752 . S
C2033 C417 1.888 . S
C2039 C289 1.917 . S
C2053 C443 2.126 . S
C2059 C302 2.141 . S
C2073 C317 1.856 . S
C2079 C40 1.732 . S
C2093 C330 1.970 . S
C2099 C1 1.982 . S
C2113 C14 1.842 . S
C2119 C343 1.946 . S
C2133 C356 1.994 . S
C2139 C27 2.010 . S
C2153 C369 1.756 . S
C2159 C378 1.661 . S
C2173 C391 1.729 . S
C2179 C382 1.721 . S
C2193 C404 1.734 . S
C2199 C395 1.855 . S
C2213 C408 1.768 . S
C2219 C365 1.778 . S
C2233 C244 1.823 . S
C2239 C421 1.856 . S
C2253 C434 1.845 . S
C2259 C248 1.857 . S
C2273 C447 1.456 . S
C2279 C582 1.440 . S
C2293 C460 1.723 . S
C2299 C222 1.731 . S
C2313 C473 1.941 . S
C2319 C296 1.923 . S
C2333 C486 1.884 . S
C2339 C521 1.898 . S
C2353 C309 1.547 . S
C2359 C499 1.561 . S
C2373 C512 1.752 . S
C2379 C274 1.764 . S
C2393 C430 1.750 . S
C2399 C525 1.851 . S
C2413 C196 1.382 . S
C2419 C538 1.461 . S
C2433 C157 2.002 . S
C2439 C549 2.024 . S
C2453 C564 1.342 . S
C2459 C170 1.251 . S
C2473 C575 2.101 . S
C2479 C495 2.100 . S
C2493 C144 1.483 . S
C2499 C590 1.561 . S
C2513 C601 1.983 . S
C2519 C105 1.971 . S
C2533 C131 1.735 . S
C2539 C614 1.758 . S
