# Generated by pormake.
# Topology uku, (4)-cn, num edge types: 1
# Building blocks:
#     Node 0, Type 0, BuildingBlock: QUQFOY_clean_sbu_1, # of connection points: 4
#     Node 1, Type 0, BuildingBlock: QUQFOY_clean_sbu_1, # of connection points: 4
#     Node 2, Type 0, BuildingBlock: QUQFOY_clean_sbu_1, # of connection points: 4
#     Node 3, Type 0, BuildingBlock: QUQFOY_clean_sbu_1, # of connection points: 4
#     Node 4, Type 0, BuildingBlock: QUQFOY_clean_sbu_1, # of connection points: 4
#     Node 5, Type 0, BuildingBlock: QUQFOY_clean_sbu_1, # of connection points: 4
#     Node 6, Type 0, BuildingBlock: QUQFOY_clean_sbu_1, # of connection points: 4
#     Node 7, Type 0, BuildingBlock: QUQFOY_clean_sbu_1, # of connection points: 4
#     Node 8, Type 0, BuildingBlock: QUQFOY_clean_sbu_1, # of connection points: 4
#     Node 9, Type 0, BuildingBlock: QUQFOY_clean_sbu_1, # of connection points: 4
#     Node 10, Type 0, BuildingBlock: QUQFOY_clean_sbu_1, # of connection points: 4
#     Node 11, Type 0, BuildingBlock: QUQFOY_clean_sbu_1, # of connection points: 4
#     Edge 12, Type (0, 0), BuildingBlock: ZUJKAS_clean_linker_0, # of connection points: 2
#     Edge 13, Type (0, 0), BuildingBlock: ZUJKAS_clean_linker_0, # of connection points: 2
#     Edge 14, Type (0, 0), BuildingBlock: ZUJKAS_clean_linker_0, # of connection points: 2
#     Edge 15, Type (0, 0), BuildingBlock: ZUJKAS_clean_linker_0, # of connection points: 2
#     Edge 16, Type (0, 0), BuildingBlock: ZUJKAS_clean_linker_0, # of connection points: 2
#     Edge 17, Type (0, 0), BuildingBlock: ZUJKAS_clean_linker_0, # of connection points: 2
#     Edge 18, Type (0, 0), BuildingBlock: ZUJKAS_clean_linker_0, # of connection points: 2
#     Edge 19, Type (0, 0), BuildingBlock: ZUJKAS_clean_linker_0, # of connection points: 2
#     Edge 20, Type (0, 0), BuildingBlock: ZUJKAS_clean_linker_0, # of connection points: 2
#     Edge 21, Type (0, 0), BuildingBlock: ZUJKAS_clean_linker_0, # of connection points: 2
#     Edge 22, Type (0, 0), BuildingBlock: ZUJKAS_clean_linker_0, # of connection points: 2
#     Edge 23, Type (0, 0), BuildingBlock: ZUJKAS_clean_linker_0, # of connection points: 2
#     Edge 24, Type (0, 0), BuildingBlock: ZUJKAS_clean_linker_0, # of connection points: 2
#     Edge 25, Type (0, 0), BuildingBlock: ZUJKAS_clean_linker_0, # of connection points: 2
#     Edge 26, Type (0, 0), BuildingBlock: ZUJKAS_clean_linker_0, # of connection points: 2
#     Edge 27, Type (0, 0), BuildingBlock: ZUJKAS_clean_linker_0, # of connection points: 2
#     Edge 28, Type (0, 0), BuildingBlock: ZUJKAS_clean_linker_0, # of connection points: 2
#     Edge 29, Type (0, 0), BuildingBlock: ZUJKAS_clean_linker_0, # of connection points: 2
#     Edge 30, Type (0, 0), BuildingBlock: ZUJKAS_clean_linker_0, # of connection points: 2
#     Edge 31, Type (0, 0), BuildingBlock: ZUJKAS_clean_linker_0, # of connection points: 2
#     Edge 32, Type (0, 0), BuildingBlock: ZUJKAS_clean_linker_0, # of connection points: 2
#     Edge 33, Type (0, 0), BuildingBlock: ZUJKAS_clean_linker_0, # of connection points: 2
#     Edge 34, Type (0, 0), BuildingBlock: ZUJKAS_clean_linker_0, # of connection points: 2
#     Edge 35, Type (0, 0), BuildingBlock: ZUJKAS_clean_linker_0, # of connection points: 2
# Relax obj value: 0.261
# Max RMSD: 0.219
# Mean RMSD: 0.219
data_MOF--net-uku--node1-QUQFOY_clean_sbu_1--edge1-ZUJKAS_clean_linker_0
_symmetry_space_group_name_H-M    P1
_symmetry_Int_Tables_number       1
_symmetry_cell_setting            triclinic
loop_
_symmetry_equiv_pos_as_xyz
'x, y, z'
_cell_length_a     55.766995
_cell_length_b     55.761496
_cell_length_c     55.778849
_cell_angle_alpha  90.040713
_cell_angle_beta   89.980003
_cell_angle_gamma 90.018711
loop_
_atom_site_label
_atom_site_type_symbol
_atom_site_fract_x
_atom_site_fract_y
_atom_site_fract_z
_atom_type_partial_charge
O0 O 0.08273 0.1148 0.62264 0.0
Cd1 Cd 0.10322 0.1445 0.61565 0.0
Cd2 Cd 0.09048 0.15688 0.65979 0.0
O3 O 0.06652 0.12865 0.65594 0.0
O4 O 0.10128 0.15086 0.5806 0.0
O5 O 0.08468 0.17421 0.6082 0.0
C6 C 0.08776 0.16894 0.58584 0.0
C7 C 0.07977 0.19324 0.67762 0.0
C8 C 0.06788 0.11258 0.63977 0.0
C9 C 0.14262 0.14428 0.65032 0.0
O10 O 0.12602 0.14839 0.66539 0.0
O11 O 0.13806 0.14335 0.62802 0.0
O12 O 0.08121 0.17374 0.68992 0.0
O13 O 0.08296 0.19185 0.65474 0.0
O14 O 0.91795 0.89068 0.62389 0.0
Cd15 Cd 0.89799 0.86037 0.61759 0.0
Cd16 Cd 0.91115 0.84932 0.66156 0.0
O17 O 0.93562 0.87677 0.65634 0.0
O18 O 0.8993 0.8536 0.58252 0.0
O19 O 0.91704 0.831 0.60996 0.0
C20 C 0.91326 0.83583 0.58763 0.0
C21 C 0.92155 0.81265 0.67866 0.0
C22 C 0.93354 0.89289 0.64035 0.0
C23 C 0.8591 0.86141 0.65312 0.0
O24 O 0.87606 0.85893 0.66815 0.0
O25 O 0.86336 0.86048 0.63073 0.0
O26 O 0.9218 0.83216 0.69106 0.0
O27 O 0.91666 0.81408 0.6561 0.0
O28 O 0.0864 0.88874 0.37834 0.0
Cd29 Cd 0.10634 0.85839 0.38462 0.0
Cd30 Cd 0.09282 0.8473 0.34069 0.0
O31 O 0.0685 0.87483 0.34597 0.0
O32 O 0.1042 0.8513 0.41951 0.0
O33 O 0.08711 0.82895 0.3914 0.0
C34 C 0.09023 0.83366 0.41388 0.0
C35 C 0.08243 0.81155 0.32145 0.0
C36 C 0.07068 0.89093 0.362 0.0
C37 C 0.14516 0.85924 0.34943 0.0
O38 O 0.12803 0.85669 0.33461 0.0
O39 O 0.14112 0.85847 0.37185 0.0
O40 O 0.08336 0.83161 0.31002 0.0
O41 O 0.08592 0.81199 0.34432 0.0
O42 O 0.91284 0.10762 0.38005 0.0
Cd43 Cd 0.89219 0.13745 0.38658 0.0
Cd44 Cd 0.90572 0.14921 0.34274 0.0
O45 O 0.93056 0.12212 0.34783 0.0
O46 O 0.89436 0.14478 0.42148 0.0
O47 O 0.91074 0.16734 0.39314 0.0
C48 C 0.90785 0.16272 0.41566 0.0
C49 C 0.91533 0.18552 0.32419 0.0
C50 C 0.92864 0.10586 0.36372 0.0
C51 C 0.85358 0.13611 0.35117 0.0
O52 O 0.87074 0.13915 0.33647 0.0
O53 O 0.85748 0.13675 0.37362 0.0
O54 O 0.91495 0.16565 0.31238 0.0
O55 O 0.91176 0.18459 0.34703 0.0
O56 O 0.62527 0.07606 0.10894 0.0
Cd57 Cd 0.61778 0.09737 0.13807 0.0
Cd58 Cd 0.66165 0.08482 0.15061 0.0
O59 O 0.65814 0.05971 0.1235 0.0
O60 O 0.58249 0.0955 0.1431 0.0
O61 O 0.6091 0.08045 0.16848 0.0
C62 C 0.58696 0.08317 0.16219 0.0
C63 C 0.67874 0.07563 0.1877 0.0
C64 C 0.64221 0.06092 0.10723 0.0
C65 C 0.65259 0.13663 0.1366 0.0
O66 O 0.66755 0.11987 0.14049 0.0
O67 O 0.63021 0.13225 0.1366 0.0
O68 O 0.69142 0.07629 0.16839 0.0
O69 O 0.65589 0.07877 0.18576 0.0
O70 O 0.37924 0.91617 0.11121 0.0
Cd71 Cd 0.38605 0.89524 0.14071 0.0
Cd72 Cd 0.34169 0.90747 0.15199 0.0
O73 O 0.3457 0.93219 0.12458 0.0
O74 O 0.42122 0.89729 0.14625 0.0
O75 O 0.39419 0.91271 0.17099 0.0
C76 C 0.41642 0.91002 0.16502 0.0
C77 C 0.32369 0.91714 0.18853 0.0
C78 C 0.36218 0.93106 0.10886 0.0
C79 C 0.35166 0.85556 0.13896 0.0
O80 O 0.3364 0.87215 0.14241 0.0
O81 O 0.37397 0.86025 0.13922 0.0
O82 O 0.31146 0.91605 0.16895 0.0
O83 O 0.3466 0.91416 0.18715 0.0
O84 O 0.61969 0.91132 0.88698 0.0
Cd85 Cd 0.61097 0.89257 0.8566 0.0
Cd86 Cd 0.65552 0.90338 0.84335 0.0
O87 O 0.65352 0.92606 0.8728 0.0
O88 O 0.57618 0.89736 0.85043 0.0
O89 O 0.60494 0.91259 0.82754 0.0
C90 C 0.58239 0.91101 0.83275 0.0
C91 C 0.67498 0.91513 0.80814 0.0
C92 C 0.63775 0.92501 0.88927 0.0
C93 C 0.6431 0.85125 0.85378 0.0
O94 O 0.65896 0.86709 0.84966 0.0
O95 O 0.62119 0.85705 0.85607 0.0
O96 O 0.6866 0.91159 0.82777 0.0
O97 O 0.65191 0.91335 0.80875 0.0
O98 O 0.37673 0.08521 0.88937 0.0
Cd99 Cd 0.38221 0.10567 0.85924 0.0
Cd100 Cd 0.33902 0.09036 0.84793 0.0
O101 O 0.34567 0.06562 0.87475 0.0
O102 O 0.41725 0.10551 0.85201 0.0
O103 O 0.39003 0.0869 0.8298 0.0
C104 C 0.41231 0.09132 0.83434 0.0
C105 C 0.32226 0.08005 0.81104 0.0
C106 C 0.3613 0.06852 0.89111 0.0
C107 C 0.34476 0.14258 0.86087 0.0
O108 O 0.33069 0.12478 0.85849 0.0
O109 O 0.36733 0.13963 0.85945 0.0
O110 O 0.30999 0.07863 0.83058 0.0
O111 O 0.34455 0.08605 0.81254 0.0
O112 O 0.11237 0.62834 0.07732 0.0
Cd113 Cd 0.14208 0.62136 0.09793 0.0
Cd114 Cd 0.15324 0.6655 0.0851 0.0
O115 O 0.12573 0.66149 0.06051 0.0
O116 O 0.14666 0.58599 0.09653 0.0
O117 O 0.17201 0.61201 0.08042 0.0
C118 C 0.16548 0.59 0.08362 0.0
C119 C 0.19044 0.68201 0.07538 0.0
C120 C 0.10987 0.64518 0.0622 0.0
C121 C 0.14051 0.65634 0.13713 0.0
O122 O 0.14356 0.67139 0.12028 0.0
O123 O 0.14115 0.63396 0.13277 0.0
O124 O 0.1713 0.69497 0.07604 0.0
O125 O 0.18821 0.65922 0.0788 0.0
O126 O 0.1077 0.38094 0.91449 0.0
Cd127 Cd 0.13812 0.388 0.89501 0.0
Cd128 Cd 0.14957 0.34431 0.90848 0.0
O129 O 0.12226 0.34937 0.9332 0.0
O130 O 0.14412 0.42307 0.8975 0.0
O131 O 0.16779 0.39555 0.9137 0.0
C132 C 0.16236 0.4179 0.91083 0.0
C133 C 0.18547 0.32521 0.91846 0.0
C134 C 0.10574 0.36486 0.93048 0.0
C135 C 0.13746 0.3532 0.8561 0.0
O136 O 0.14004 0.33833 0.87319 0.0
O137 O 0.13818 0.37562 0.8602 0.0
O138 O 0.16546 0.31369 0.91768 0.0
O139 O 0.18492 0.34811 0.91506 0.0
O140 O 0.88724 0.62117 0.91612 0.0
Cd141 Cd 0.85793 0.61359 0.8953 0.0
Cd142 Cd 0.84411 0.65701 0.90851 0.0
O143 O 0.87184 0.65341 0.93305 0.0
O144 O 0.85206 0.5784 0.89692 0.0
O145 O 0.82815 0.60555 0.91347 0.0
C146 C 0.83374 0.58328 0.91027 0.0
C147 C 0.80714 0.67399 0.91828 0.0
C148 C 0.88859 0.63799 0.93143 0.0
C149 C 0.85802 0.64899 0.85657 0.0
O150 O 0.85351 0.66368 0.87341 0.0
O151 O 0.8591 0.6266 0.86069 0.0
O152 O 0.82654 0.68655 0.91836 0.0
O153 O 0.80887 0.65128 0.91418 0.0
O154 O 0.88748 0.37592 0.08816 0.0
Cd155 Cd 0.8563 0.38223 0.10671 0.0
Cd156 Cd 0.84539 0.33909 0.09139 0.0
O157 O 0.8728 0.34581 0.06718 0.0
O158 O 0.84898 0.41712 0.10444 0.0
O159 O 0.82775 0.38884 0.08623 0.0
C160 C 0.83206 0.41135 0.08967 0.0
C161 C 0.80968 0.32007 0.08045 0.0
C162 C 0.88947 0.36089 0.07115 0.0
C163 C 0.85637 0.34614 0.14423 0.0
O164 O 0.85483 0.33192 0.12646 0.0
O165 O 0.85485 0.36866 0.14104 0.0
O166 O 0.82979 0.30868 0.08085 0.0
O167 O 0.81006 0.3428 0.08477 0.0
H168 H 0.94393 0.19525 0.40857 0.0
H169 H 0.97468 0.20677 0.43769 0.0
H170 H 0.93624 0.16928 0.49325 0.0
H171 H 0.90553 0.15748 0.46431 0.0
H172 H 0.97599 0.22816 0.4885 0.0
H173 H 0.00145 0.13212 0.47953 0.0
H174 H 0.98199 0.14696 0.45839 0.0
H175 H 0.97059 0.13769 0.48704 0.0
C176 C 0.94159 0.19009 0.42714 0.0
C177 C 0.9225 0.17508 0.43405 0.0
C178 C 0.95918 0.19674 0.44376 0.0
C179 C 0.95784 0.18857 0.46748 0.0
C180 C 0.93762 0.17561 0.47494 0.0
H181 H 0.04823 0.19731 0.59164 0.0
H182 H 0.01858 0.20705 0.56097 0.0
C183 C 0.92009 0.16887 0.45836 0.0
C184 C 0.97913 0.19005 0.48325 0.0
H185 H 0.0222 0.15482 0.50844 0.0
C186 C 0.98622 0.21222 0.49285 0.0
C187 C 0.99266 0.16926 0.48843 0.0
C188 C 0.9865 0.14516 0.47769 0.0
C189 C 0.00624 0.21395 0.50817 0.0
C190 C 0.01921 0.19294 0.51405 0.0
C191 C 0.01233 0.17095 0.5039 0.0
C192 C 0.03933 0.19263 0.53149 0.0
C193 C 0.01338 0.23821 0.51774 0.0
C194 C 0.0612 0.18187 0.52511 0.0
C195 C 0.07802 0.17591 0.54268 0.0
C196 C 0.07333 0.18072 0.56696 0.0
C197 C 0.05243 0.19345 0.57307 0.0
C198 C 0.03546 0.19916 0.5555 0.0
H199 H 0.00682 0.25289 0.50599 0.0
H200 H 0.0053 0.24075 0.53575 0.0
H201 H 0.03316 0.23974 0.5195 0.0
H202 H 0.06458 0.17667 0.5067 0.0
H203 H 0.09401 0.16623 0.53738 0.0
H204 H 0.05263 0.80276 0.40729 0.0
H205 H 0.02183 0.79264 0.4369 0.0
H206 H 0.06281 0.82827 0.49188 0.0
H207 H 0.09359 0.83864 0.46247 0.0
H208 H 0.0208 0.77151 0.48854 0.0
H209 H 0.99872 0.86826 0.47825 0.0
H210 H 0.01696 0.85222 0.45686 0.0
H211 H 0.02952 0.86155 0.48499 0.0
C212 C 0.05551 0.80776 0.42583 0.0
C213 C 0.07537 0.82188 0.43246 0.0
C214 C 0.03788 0.80192 0.44272 0.0
C215 C 0.03996 0.80999 0.46644 0.0
C216 C 0.06088 0.82201 0.47359 0.0
H217 H 0.95241 0.80681 0.59278 0.0
H218 H 0.98098 0.79574 0.56152 0.0
C219 C 0.07844 0.82793 0.45674 0.0
C220 C 0.01888 0.80959 0.48254 0.0
H221 H 0.97771 0.84691 0.50797 0.0
C222 C 0.01123 0.78791 0.49277 0.0
C223 C 0.00622 0.83095 0.48758 0.0
C224 C 0.01306 0.85458 0.47624 0.0
C225 C 0.99154 0.78724 0.5086 0.0
C226 C 0.97948 0.80884 0.51436 0.0
C227 C 0.98688 0.83033 0.50355 0.0
C228 C 0.9599 0.81027 0.53236 0.0
C229 C 0.98377 0.76347 0.51886 0.0
C230 C 0.93824 0.82164 0.52639 0.0
C231 C 0.92204 0.82835 0.54429 0.0
C232 C 0.92716 0.82373 0.56851 0.0
C233 C 0.94788 0.81055 0.57428 0.0
C234 C 0.96422 0.80406 0.55636 0.0
H235 H 0.98945 0.74832 0.50722 0.0
H236 H 0.99226 0.76099 0.53667 0.0
H237 H 0.96401 0.76273 0.5212 0.0
H238 H 0.93453 0.82662 0.50799 0.0
H239 H 0.90618 0.83836 0.53925 0.0
H240 H 0.46281 0.91506 0.15081 0.0
H241 H 0.49172 0.94419 0.16519 0.0
H242 H 0.44287 0.96556 0.2213 0.0
H243 H 0.41314 0.93698 0.2061 0.0
H244 H 0.45719 0.00309 0.20002 0.0
H245 H 0.53868 0.95107 0.21716 0.0
H246 H 0.5287 0.94352 0.18764 0.0
H247 H 0.50997 0.93665 0.21318 0.0
C248 C 0.45838 0.92545 0.16661 0.0
C249 C 0.4356 0.92375 0.17724 0.0
C250 C 0.47512 0.94205 0.17501 0.0
C251 C 0.46977 0.95693 0.19464 0.0
C252 C 0.44751 0.95425 0.2062 0.0
H253 H 0.5893 0.05839 0.20462 0.0
H254 H 0.5592 0.03069 0.22068 0.0
C255 C 0.43055 0.93785 0.19754 0.0
C256 C 0.48603 0.97728 0.20056 0.0
H257 H 0.54535 0.99202 0.20137 0.0
C258 C 0.47645 0.00059 0.201 0.0
C259 C 0.51115 0.97432 0.20273 0.0
C260 C 0.5226 0.94997 0.20545 0.0
C261 C 0.49136 0.02087 0.20108 0.0
C262 C 0.51653 0.0178 0.19967 0.0
C263 C 0.52608 0.99457 0.20175 0.0
C264 C 0.53296 0.03776 0.19295 0.0
C265 C 0.47987 0.04534 0.20205 0.0
C266 C 0.5281 0.05149 0.1724 0.0
C267 C 0.54503 0.06761 0.1635 0.0
C268 C 0.56754 0.06996 0.17456 0.0
C269 C 0.5721 0.057 0.1957 0.0
C270 C 0.55493 0.0411 0.20485 0.0
H271 H 0.46351 0.04495 0.21342 0.0
H272 H 0.49231 0.05912 0.20926 0.0
H273 H 0.4742 0.05067 0.18374 0.0
H274 H 0.51173 0.04878 0.16232 0.0
H275 H 0.541 0.0771 0.14705 0.0
H276 H 0.59078 0.94825 0.80184 0.0
H277 H 0.56275 0.98052 0.79172 0.0
H278 H 0.506 0.94286 0.82822 0.0
H279 H 0.53379 0.91063 0.83855 0.0
H280 H 0.51078 0.9832 0.77074 0.0
H281 H 0.52295 0.0074 0.86672 0.0
H282 H 0.54353 0.98806 0.85089 0.0
H283 H 0.51513 0.97664 0.86092 0.0
C284 C 0.57216 0.94645 0.80707 0.0
C285 C 0.56458 0.92705 0.82134 0.0
C286 C 0.55618 0.96491 0.80123 0.0
C287 C 0.53244 0.96413 0.80948 0.0
C288 C 0.52432 0.94378 0.8218 0.0
H289 H 0.40758 0.05219 0.80524 0.0
H290 H 0.43908 0.02393 0.79427 0.0
C291 C 0.54025 0.92539 0.82771 0.0
C292 C 0.51728 0.98588 0.80868 0.0
H293 H 0.49314 0.02838 0.84535 0.0
C294 C 0.507 0.99326 0.78695 0.0
C295 C 0.51285 0.99919 0.82978 0.0
C296 C 0.52431 0.99263 0.85341 0.0
C297 C 0.49156 0.01324 0.78602 0.0
C298 C 0.4862 0.02584 0.80742 0.0
C299 C 0.49724 0.01881 0.82891 0.0
C300 C 0.46808 0.04533 0.80873 0.0
C301 C 0.48122 0.02065 0.76218 0.0
C302 C 0.47384 0.06711 0.82005 0.0
C303 C 0.45577 0.08314 0.82675 0.0
C304 C 0.4316 0.07774 0.82215 0.0
C305 C 0.42604 0.05694 0.80898 0.0
C306 C 0.44411 0.04078 0.80252 0.0
H307 H 0.49298 0.01497 0.74712 0.0
H308 H 0.46355 0.01183 0.75972 0.0
H309 H 0.47861 0.04037 0.76123 0.0
H310 H 0.49221 0.07102 0.82503 0.0
H311 H 0.46065 0.09906 0.83676 0.0
H312 H 0.14851 0.46435 0.91628 0.0
H313 H 0.16349 0.49317 0.94524 0.0
H314 H 0.21914 0.44367 0.9662 0.0
H315 H 0.20333 0.41405 0.93783 0.0
H316 H 0.19875 0.4587 0.00391 0.0
H317 H 0.2163 0.53939 0.95076 0.0
H318 H 0.18649 0.52978 0.94389 0.0
H319 H 0.21161 0.5106 0.93672 0.0
C320 C 0.16432 0.45975 0.92657 0.0
C321 C 0.17468 0.43686 0.92477 0.0
C322 C 0.17306 0.47642 0.94306 0.0
C323 C 0.19278 0.47089 0.95774 0.0
C324 C 0.20398 0.44846 0.95505 0.0
H325 H 0.20731 0.5913 0.05768 0.0
H326 H 0.22206 0.56062 0.02989 0.0
C327 C 0.19497 0.43156 0.93877 0.0
C328 C 0.19929 0.48727 0.97782 0.0
H329 H 0.20158 0.54672 0.99194 0.0
C330 C 0.20003 0.47791 0.0012 0.0
C331 C 0.20187 0.51232 0.97456 0.0
C332 C 0.20432 0.52348 0.95005 0.0
C333 C 0.20087 0.49303 0.02132 0.0
C334 C 0.19991 0.51819 0.01803 0.0
C335 C 0.20163 0.52747 0.99467 0.0
C336 C 0.19404 0.53496 0.03799 0.0
C337 C 0.20221 0.48175 0.04586 0.0
C338 C 0.17377 0.53063 0.05233 0.0
C339 C 0.16564 0.54789 0.06852 0.0
C340 C 0.17718 0.57021 0.07032 0.0
C341 C 0.19804 0.57426 0.05673 0.0
C342 C 0.20644 0.55675 0.04077 0.0
H343 H 0.21325 0.46518 0.04534 0.0
H344 H 0.20999 0.49419 0.05933 0.0
H345 H 0.18393 0.47648 0.05169 0.0
H346 H 0.16331 0.51443 0.05007 0.0
H347 H 0.14937 0.54426 0.0785 0.0
H348 H 0.83785 0.53486 0.90424 0.0
H349 H 0.82662 0.50388 0.93307 0.0
H350 H 0.79317 0.55744 0.97777 0.0
H351 H 0.80374 0.5884 0.94869 0.0
H352 H 0.84612 0.50559 0.97666 0.0
H353 H 0.74737 0.50176 0.98652 0.0
H354 H 0.76183 0.51559 0.96104 0.0
H355 H 0.75907 0.53166 0.98888 0.0
C356 C 0.82738 0.53993 0.91979 0.0
C357 C 0.82189 0.56411 0.92429 0.0
C358 C 0.82097 0.5222 0.93628 0.0
C359 C 0.80904 0.52829 0.95762 0.0
C360 C 0.80196 0.55218 0.96127 0.0
H361 H 0.83719 0.46001 0.0926 0.0
H362 H 0.82718 0.48917 0.06148 0.0
C363 C 0.80815 0.56992 0.94464 0.0
C364 C 0.80783 0.51069 0.97755 0.0
H365 H 0.77052 0.48424 0.01845 0.0
C366 C 0.82951 0.50076 0.98557 0.0
C367 C 0.78619 0.50441 0.98927 0.0
C368 C 0.76226 0.51373 0.98085 0.0
C369 C 0.83027 0.48511 0.00515 0.0
C370 C 0.80882 0.47952 0.01743 0.0
C371 C 0.78697 0.48891 0.00919 0.0
C372 C 0.80923 0.46352 0.03859 0.0
C373 C 0.85411 0.4746 0.01255 0.0
C374 C 0.8012 0.43978 0.03659 0.0
C375 C 0.80682 0.42304 0.05441 0.0
C376 C 0.82065 0.42983 0.0744 0.0
C377 C 0.8267 0.45414 0.07734 0.0
C378 C 0.821 0.47085 0.05958 0.0
H379 H 0.86794 0.47673 0.99836 0.0
H380 H 0.86057 0.4839 0.02892 0.0
H381 H 0.85228 0.45523 0.01678 0.0
H382 H 0.79209 0.43382 0.0205 0.0
H383 H 0.80181 0.40447 0.05163 0.0
H384 H 0.17315 0.10958 0.63412 0.0
H385 H 0.20803 0.09351 0.6557 0.0
H386 H 0.20104 0.14964 0.70852 0.0
H387 H 0.16562 0.16489 0.68777 0.0
H388 H 0.25177 0.10782 0.6719 0.0
H389 H 0.19161 0.09048 0.74861 0.0
H390 H 0.18049 0.09986 0.71977 0.0
H391 H 0.19157 0.12167 0.74092 0.0
C392 C 0.17946 0.11875 0.65005 0.0
C393 C 0.16661 0.13825 0.65952 0.0
C394 C 0.1993 0.10952 0.66239 0.0
C395 C 0.20663 0.11992 0.68413 0.0
C396 C 0.19519 0.14085 0.69221 0.0
H397 H 0.33105 0.10646 0.77122 0.0
H398 H 0.30443 0.11134 0.73694 0.0
C399 C 0.1751 0.14968 0.68026 0.0
C400 C 0.22477 0.10802 0.69952 0.0
H401 H 0.23362 0.08935 0.75694 0.0
C402 C 0.2478 0.10347 0.69043 0.0
C403 C 0.21934 0.10146 0.72342 0.0
C404 C 0.19432 0.10335 0.73365 0.0
C405 C 0.26594 0.09382 0.70508 0.0
C406 C 0.26107 0.08941 0.72963 0.0
C407 C 0.23764 0.09286 0.73824 0.0
C408 C 0.27996 0.08297 0.74738 0.0
C409 C 0.28998 0.08837 0.69395 0.0
C410 C 0.2754 0.06528 0.76479 0.0
C411 C 0.29012 0.06319 0.78494 0.0
C412 C 0.3101 0.07822 0.78768 0.0
C413 C 0.31593 0.09441 0.76932 0.0
C414 C 0.30076 0.09707 0.74955 0.0
H415 H 0.28793 0.08313 0.67484 0.0
H416 H 0.30129 0.10474 0.69445 0.0
H417 H 0.29942 0.07373 0.70357 0.0
H418 H 0.25958 0.05407 0.76355 0.0
H419 H 0.28528 0.05057 0.79889 0.0
H420 H 0.72164 0.92808 0.8024 0.0
H421 H 0.74569 0.92436 0.7661 0.0
H422 H 0.68267 0.90421 0.72608 0.0
H423 H 0.65833 0.90795 0.76253 0.0
H424 H 0.71958 0.87044 0.72455 0.0
H425 H 0.75503 0.96041 0.70281 0.0
H426 H 0.75803 0.95355 0.73409 0.0
H427 H 0.72859 0.95602 0.72107 0.0
C428 C 0.71274 0.92356 0.78574 0.0
C429 C 0.68813 0.91818 0.78534 0.0
C430 C 0.7265 0.9216 0.76494 0.0
C431 C 0.71594 0.9142 0.74333 0.0
C432 C 0.69111 0.91014 0.74254 0.0
H433 H 0.82193 0.88311 0.62925 0.0
H434 H 0.78318 0.89561 0.64623 0.0
C435 C 0.67724 0.91235 0.76336 0.0
C436 C 0.73156 0.90716 0.72303 0.0
H437 H 0.77958 0.92654 0.6904 0.0
C438 C 0.73226 0.88283 0.71655 0.0
C439 C 0.74799 0.92334 0.71247 0.0
C440 C 0.74724 0.94984 0.71779 0.0
C441 C 0.75024 0.87394 0.70137 0.0
C442 C 0.76792 0.88978 0.69255 0.0
C443 C 0.76607 0.91441 0.69737 0.0
C444 C 0.79015 0.8807 0.68132 0.0
C445 C 0.75095 0.84748 0.69584 0.0
C446 C 0.8067 0.86816 0.69545 0.0
C447 C 0.82878 0.86127 0.68597 0.0
C448 C 0.83471 0.86666 0.66208 0.0
C449 C 0.81778 0.87857 0.64767 0.0
C450 C 0.79572 0.88579 0.65732 0.0
H451 H 0.73309 0.83899 0.69836 0.0
H452 H 0.75707 0.84427 0.67717 0.0
H453 H 0.7638 0.83859 0.70816 0.0
H454 H 0.80281 0.86432 0.71409 0.0
H455 H 0.8414 0.85209 0.69752 0.0
H456 H 0.34245 0.90978 0.23338 0.0
H457 H 0.3198 0.90412 0.27067 0.0
H458 H 0.25427 0.92155 0.23357 0.0
H459 H 0.27664 0.92745 0.19648 0.0
H460 H 0.25684 0.93952 0.28172 0.0
H461 H 0.27875 0.84221 0.27433 0.0
H462 H 0.30333 0.86306 0.27568 0.0
H463 H 0.284 0.8628 0.24996 0.0
C464 C 0.3233 0.91301 0.23333 0.0
C465 C 0.31127 0.91873 0.21191 0.0
C466 C 0.31039 0.90964 0.25462 0.0
C467 C 0.28533 0.91199 0.25474 0.0
C468 C 0.2736 0.91956 0.23384 0.0
H469 H 0.16145 0.85123 0.30428 0.0
H470 H 0.1994 0.86397 0.28685 0.0
C471 C 0.28642 0.92286 0.21262 0.0
C472 C 0.27073 0.90408 0.27546 0.0
H473 H 0.24897 0.85319 0.30166 0.0
C474 C 0.25551 0.92075 0.28661 0.0
C475 C 0.26896 0.87951 0.28159 0.0
C476 C 0.28448 0.86074 0.26976 0.0
C477 C 0.23762 0.91331 0.30271 0.0
C478 C 0.23503 0.8886 0.30779 0.0
C479 C 0.25119 0.87213 0.2978 0.0
C480 C 0.21328 0.87919 0.31971 0.0
C481 C 0.22046 0.93162 0.31281 0.0
C482 C 0.20878 0.88302 0.34418 0.0
C483 C 0.18699 0.87559 0.35433 0.0
C484 C 0.16942 0.86445 0.34003 0.0
C485 C 0.1745 0.85991 0.31576 0.0
C486 C 0.19622 0.86713 0.30576 0.0
H487 H 0.22404 0.94996 0.3059 0.0
H488 H 0.20172 0.92663 0.30828 0.0
H489 H 0.22198 0.93195 0.33264 0.0
H490 H 0.22187 0.89215 0.35525 0.0
H491 H 0.18356 0.87935 0.37307 0.0
H492 H 0.65887 0.08338 0.23205 0.0
H493 H 0.68059 0.08941 0.26982 0.0
H494 H 0.74705 0.07182 0.23441 0.0
H495 H 0.72561 0.06552 0.19686 0.0
H496 H 0.74358 0.05433 0.28244 0.0
H497 H 0.72113 0.15144 0.27419 0.0
H498 H 0.69665 0.13046 0.27523 0.0
H499 H 0.71644 0.13065 0.24985 0.0
C500 C 0.67803 0.0802 0.23247 0.0
C501 C 0.69059 0.07431 0.21139 0.0
C502 C 0.6904 0.08378 0.25403 0.0
C503 C 0.71546 0.08149 0.25476 0.0
C504 C 0.72771 0.07377 0.2342 0.0
H505 H 0.83753 0.14405 0.30596 0.0
H506 H 0.79995 0.1308 0.28817 0.0
C507 C 0.71542 0.07024 0.21271 0.0
C508 C 0.72955 0.08963 0.27577 0.0
H509 H 0.75039 0.14082 0.30217 0.0
C510 C 0.74467 0.07314 0.28728 0.0
C511 C 0.73099 0.11425 0.28184 0.0
C512 C 0.71559 0.13284 0.26962 0.0
C513 C 0.7622 0.08081 0.30366 0.0
C514 C 0.76451 0.10556 0.30867 0.0
C515 C 0.74839 0.12185 0.29835 0.0
C516 C 0.78601 0.11524 0.32084 0.0
C517 C 0.77933 0.06268 0.31411 0.0
C518 C 0.79037 0.11138 0.34532 0.0
C519 C 0.81196 0.11909 0.35568 0.0
C520 C 0.82948 0.13054 0.34157 0.0
C521 C 0.82453 0.13511 0.3173 0.0
C522 C 0.80301 0.12762 0.30709 0.0
H523 H 0.77609 0.0443 0.30712 0.0
H524 H 0.79812 0.06786 0.30998 0.0
H525 H 0.77737 0.06234 0.3339 0.0
H526 H 0.77732 0.10203 0.35625 0.0
H527 H 0.81529 0.1153 0.37442 0.0
H528 H 0.62884 0.17423 0.11519 0.0
H529 H 0.64628 0.21261 0.10213 0.0
H530 H 0.71454 0.19167 0.13173 0.0
H531 H 0.69748 0.15366 0.14475 0.0
H532 H 0.6985 0.24083 0.14211 0.0
H533 H 0.6967 0.21586 0.0453 0.0
H534 H 0.66963 0.21318 0.06276 0.0
H535 H 0.69436 0.19351 0.06859 0.0
C536 C 0.64747 0.17799 0.11917 0.0
C537 C 0.66182 0.16085 0.13086 0.0
C538 C 0.65741 0.19982 0.11159 0.0
C539 C 0.68172 0.20479 0.11579 0.0
C540 C 0.69574 0.18812 0.12827 0.0
H541 H 0.80371 0.27292 0.06908 0.0
H542 H 0.76747 0.249 0.07423 0.0
C543 C 0.68595 0.16636 0.13566 0.0
C544 C 0.69336 0.22679 0.10659 0.0
H545 H 0.71954 0.24952 0.05613 0.0
C546 C 0.70261 0.24319 0.12325 0.0
C547 C 0.69878 0.22956 0.08199 0.0
C548 C 0.68949 0.21213 0.06349 0.0
C549 C 0.71838 0.26147 0.11617 0.0
C550 C 0.72479 0.26353 0.09169 0.0
C551 C 0.71442 0.24797 0.07483 0.0
C552 C 0.74498 0.27904 0.08408 0.0
C553 C 0.72944 0.27728 0.13518 0.0
C554 C 0.74407 0.30405 0.08681 0.0
C555 C 0.76486 0.31784 0.0839 0.0
C556 C 0.78682 0.30677 0.07823 0.0
C557 C 0.78714 0.28198 0.07364 0.0
C558 C 0.76641 0.26827 0.07651 0.0
H559 H 0.72502 0.27114 0.15361 0.0
H560 H 0.74925 0.2777 0.13321 0.0
H561 H 0.72269 0.29587 0.13307 0.0
H562 H 0.72759 0.31274 0.0923 0.0
H563 H 0.76401 0.33692 0.08746 0.0
H564 H 0.20036 0.72829 0.06335 0.0
H565 H 0.2381 0.74949 0.06913 0.0
H566 H 0.27227 0.68346 0.09036 0.0
H567 H 0.2343 0.66202 0.08474 0.0
H568 H 0.27625 0.71864 0.12417 0.0
H569 H 0.30277 0.75544 0.03629 0.0
H570 H 0.27172 0.76126 0.04228 0.0
H571 H 0.28195 0.73076 0.0392 0.0
C572 C 0.21604 0.7181 0.06858 0.0
C573 C 0.2143 0.6935 0.07374 0.0
C574 C 0.2377 0.73024 0.07171 0.0
C575 C 0.2581 0.71803 0.07996 0.0
C576 C 0.25679 0.69318 0.0838 0.0
H577 H 0.37494 0.81959 0.1146 0.0
H578 H 0.35758 0.78141 0.10084 0.0
C579 C 0.23509 0.68096 0.08053 0.0
C580 C 0.27925 0.732 0.08803 0.0
H581 H 0.31511 0.7787 0.07134 0.0
C582 C 0.28525 0.7313 0.11247 0.0
C583 C 0.29126 0.74831 0.07277 0.0
C584 C 0.28676 0.74881 0.04612 0.0
C585 C 0.30129 0.74794 0.1224 0.0
C586 C 0.31138 0.76581 0.10755 0.0
C587 C 0.30712 0.76514 0.08276 0.0
C588 C 0.32319 0.78727 0.1178 0.0
C589 C 0.30638 0.74702 0.14894 0.0
C590 C 0.30962 0.80303 0.13194 0.0
C591 C 0.31932 0.82475 0.13958 0.0
C592 C 0.34287 0.83119 0.1333 0.0
C593 C 0.35681 0.815 0.11986 0.0
C594 C 0.34693 0.79327 0.11194 0.0
H595 H 0.30393 0.7286 0.15612 0.0
H596 H 0.32492 0.75312 0.15293 0.0
H597 H 0.29367 0.75902 0.15845 0.0
H598 H 0.29114 0.79892 0.13633 0.0
H599 H 0.30813 0.83681 0.14992 0.0
H600 H 0.76616 0.66088 0.89528 0.0
H601 H 0.73174 0.68684 0.88705 0.0
H602 H 0.76048 0.74024 0.93511 0.0
H603 H 0.7956 0.71493 0.94226 0.0
H604 H 0.69591 0.71127 0.90882 0.0
H605 H 0.76297 0.77482 0.87213 0.0
H606 H 0.77093 0.7451 0.88188 0.0
H607 H 0.76747 0.76897 0.90339 0.0
C608 C 0.76478 0.67788 0.90459 0.0
C609 C 0.78368 0.68613 0.91908 0.0
C610 C 0.74512 0.69272 0.89984 0.0
C611 C 0.74396 0.71581 0.90983 0.0
C612 C 0.76143 0.72282 0.92657 0.0
H613 H 0.63177 0.82276 0.89166 0.0
H614 H 0.65363 0.78689 0.90443 0.0
C615 C 0.78138 0.70829 0.93081 0.0
C616 C 0.72638 0.73352 0.90053 0.0
H617 H 0.72301 0.78842 0.87393 0.0
C618 C 0.70177 0.72814 0.90111 0.0
C619 C 0.73409 0.75522 0.88984 0.0
C620 C 0.7603 0.76129 0.8865 0.0
C621 C 0.68464 0.74409 0.89165 0.0
C622 C 0.69236 0.76627 0.88197 0.0
C623 C 0.71699 0.77146 0.88132 0.0
C624 C 0.67564 0.78475 0.87246 0.0
C625 C 0.65862 0.73674 0.89163 0.0
C626 C 0.68039 0.79541 0.85012 0.0
C627 C 0.66849 0.8163 0.84324 0.0
C628 C 0.65111 0.82654 0.85823 0.0
C629 C 0.64484 0.81488 0.87963 0.0
C630 C 0.65728 0.7943 0.88688 0.0
H631 H 0.65668 0.71691 0.89185 0.0
H632 H 0.64982 0.74385 0.90801 0.0
H633 H 0.64905 0.74389 0.87572 0.0
H634 H 0.69438 0.78838 0.83861 0.0
H635 H 0.67367 0.8251 0.82671 0.0
H636 H 0.36771 0.18241 0.87886 0.0
H637 H 0.34909 0.22032 0.89159 0.0
H638 H 0.28009 0.19415 0.86856 0.0
H639 H 0.29831 0.15648 0.85593 0.0
H640 H 0.29394 0.24417 0.85432 0.0
H641 H 0.30147 0.22341 0.95182 0.0
H642 H 0.32744 0.22022 0.93282 0.0
H643 H 0.30266 0.20005 0.92941 0.0
C644 C 0.34862 0.18488 0.87627 0.0
C645 C 0.33445 0.16639 0.86651 0.0
C646 C 0.33803 0.20646 0.88365 0.0
C647 C 0.31323 0.20986 0.88116 0.0
C648 C 0.29927 0.1918 0.87066 0.0
H649 H 0.1918 0.2783 0.93037 0.0
H650 H 0.22783 0.25426 0.92434 0.0
C651 C 0.30972 0.17026 0.8635 0.0
C652 C 0.30119 0.23175 0.89006 0.0
H653 H 0.27709 0.25596 0.94088 0.0
C654 C 0.29072 0.24721 0.87326 0.0
C655 C 0.29693 0.23537 0.91477 0.0
C656 C 0.30759 0.21893 0.9334 0.0
C657 C 0.27501 0.2655 0.88045 0.0
C658 C 0.26984 0.26846 0.90513 0.0
C659 C 0.28128 0.25375 0.92202 0.0
C660 C 0.24994 0.28411 0.91316 0.0
C661 C 0.26275 0.28042 0.86149 0.0
C662 C 0.25077 0.30906 0.90994 0.0
C663 C 0.23012 0.32292 0.91343 0.0
C664 C 0.20839 0.31196 0.92008 0.0
C665 C 0.2082 0.28726 0.92506 0.0
C666 C 0.2288 0.27348 0.92168 0.0
H667 H 0.26647 0.27377 0.84308 0.0
H668 H 0.24304 0.28046 0.86436 0.0
H669 H 0.26913 0.29922 0.86273 0.0
H670 H 0.26703 0.31761 0.90363 0.0
H671 H 0.23084 0.34193 0.9095 0.0
H672 H 0.09003 0.76594 0.33819 0.0
H673 H 0.09552 0.72968 0.31388 0.0
H674 H 0.077 0.76948 0.25028 0.0
H675 H 0.07125 0.80555 0.27431 0.0
H676 H 0.05956 0.72107 0.25082 0.0
H677 H 0.15699 0.72851 0.27209 0.0
H678 H 0.13648 0.72583 0.29683 0.0
H679 H 0.13618 0.75238 0.27865 0.0
C680 C 0.0865 0.76679 0.31912 0.0
C681 C 0.08055 0.78869 0.3081 0.0
C682 C 0.08978 0.74609 0.30526 0.0
C683 C 0.0871 0.74704 0.28025 0.0
C684 C 0.07924 0.76839 0.26955 0.0
H685 H 0.14761 0.70146 0.15407 0.0
H686 H 0.13458 0.71811 0.19228 0.0
C687 C 0.07603 0.78903 0.28332 0.0
C688 C 0.09506 0.72705 0.26466 0.0
H689 H 0.14596 0.70204 0.24154 0.0
C690 C 0.07836 0.71638 0.24915 0.0
C691 C 0.11967 0.7212 0.26245 0.0
C692 C 0.13849 0.7326 0.27823 0.0
C693 C 0.08578 0.70099 0.23062 0.0
C694 C 0.11049 0.69616 0.22769 0.0
C695 C 0.12702 0.70571 0.24403 0.0
C696 C 0.11981 0.68482 0.20559 0.0
C697 C 0.06741 0.69136 0.21326 0.0
C698 C 0.11629 0.66038 0.20067 0.0
C699 C 0.12388 0.65068 0.17874 0.0
C700 C 0.1349 0.66539 0.16144 0.0
C701 C 0.13905 0.68966 0.1669 0.0
C702 C 0.13166 0.69922 0.18876 0.0
H703 H 0.04905 0.69802 0.21721 0.0
H704 H 0.07225 0.69655 0.19466 0.0
H705 H 0.06723 0.67147 0.2141 0.0
H706 H 0.10732 0.64897 0.21357 0.0
H707 H 0.1204 0.63194 0.17502 0.0
H708 H 0.06682 0.20129 0.72401 0.0
H709 H 0.07172 0.23835 0.74665 0.0
H710 H 0.09363 0.27513 0.68228 0.0
H711 H 0.0888 0.23791 0.65937 0.0
H712 H 0.12701 0.27761 0.71883 0.0
H713 H 0.03772 0.30278 0.75359 0.0
H714 H 0.04385 0.27154 0.75818 0.0
H715 H 0.04158 0.28309 0.72812 0.0
C716 C 0.07201 0.21741 0.71449 0.0
C717 C 0.07756 0.21663 0.68993 0.0
C718 C 0.07464 0.23866 0.72745 0.0
C719 C 0.08284 0.25958 0.71612 0.0
C720 C 0.0871 0.25923 0.69131 0.0
H721 H 0.11507 0.37627 0.81881 0.0
H722 H 0.10237 0.35849 0.78048 0.0
C723 C 0.08427 0.23796 0.67826 0.0
C724 C 0.09039 0.28032 0.73095 0.0
H725 H 0.07194 0.31528 0.77768 0.0
C726 C 0.11484 0.28635 0.73124 0.0
C727 C 0.07453 0.29189 0.74699 0.0
C728 C 0.04791 0.28717 0.74655 0.0
C729 C 0.12413 0.30211 0.74851 0.0
C730 C 0.10859 0.31193 0.76594 0.0
C731 C 0.08386 0.30753 0.7644 0.0
C732 C 0.11802 0.32376 0.78773 0.0
C733 C 0.15069 0.30721 0.74874 0.0
C734 C 0.13105 0.31012 0.80431 0.0
C735 C 0.13807 0.32006 0.82613 0.0
C736 C 0.13229 0.34392 0.83181 0.0
C737 C 0.11992 0.35789 0.81484 0.0
C738 C 0.1126 0.34777 0.79302 0.0
H739 H 0.1588 0.30437 0.73076 0.0
H740 H 0.15434 0.32589 0.75461 0.0
H741 H 0.1596 0.29483 0.7615 0.0
H742 H 0.13511 0.29146 0.80069 0.0
H743 H 0.1476 0.30884 0.8388 0.0
H744 H 0.89346 0.63409 0.82623 0.0
H745 H 0.90937 0.6565 0.79179 0.0
H746 H 0.85194 0.70785 0.79889 0.0
H747 H 0.83686 0.68631 0.83393 0.0
H748 H 0.89525 0.67263 0.74824 0.0
H749 H 0.90974 0.74954 0.80896 0.0
H750 H 0.90095 0.7204 0.81983 0.0
H751 H 0.87876 0.74103 0.80856 0.0
C752 C 0.884 0.64989 0.82005 0.0
C753 C 0.86416 0.65872 0.83282 0.0
C754 C 0.89312 0.6627 0.80045 0.0
C755 C 0.88229 0.68428 0.79329 0.0
C756 C 0.86107 0.69171 0.80464 0.0
H757 H 0.89606 0.77235 0.66922 0.0
H758 H 0.89119 0.73791 0.69568 0.0
C759 C 0.85234 0.6793 0.8245 0.0
C760 C 0.89394 0.70012 0.77536 0.0
H761 H 0.91124 0.75808 0.76702 0.0
C762 C 0.89906 0.69126 0.75235 0.0
C763 C 0.89979 0.72417 0.78098 0.0
C764 C 0.89729 0.73425 0.80601 0.0
C765 C 0.90861 0.70624 0.73442 0.0
C766 C 0.91233 0.73089 0.73947 0.0
C767 C 0.90827 0.73931 0.76287 0.0
C768 C 0.91879 0.74887 0.72079 0.0
C769 C 0.91473 0.69536 0.71043 0.0
C770 C 0.93602 0.76663 0.72578 0.0
C771 C 0.93808 0.78685 0.71115 0.0
C772 C 0.92349 0.78931 0.69083 0.0
C773 C 0.90778 0.77065 0.68461 0.0
C774 C 0.90512 0.75081 0.69969 0.0
H775 H 0.92032 0.67635 0.71246 0.0
H776 H 0.89856 0.69557 0.69884 0.0
H777 H 0.92933 0.70535 0.7013 0.0
H778 H 0.94689 0.76558 0.74184 0.0
H779 H 0.95031 0.80104 0.71629 0.0
H780 H 0.90644 0.23052 0.3419 0.0
H781 H 0.90011 0.26713 0.31841 0.0
H782 H 0.91999 0.22925 0.25399 0.0
H783 H 0.9265 0.19277 0.27721 0.0
H784 H 0.93644 0.2785 0.25644 0.0
H785 H 0.83891 0.26729 0.27559 0.0
H786 H 0.85895 0.26953 0.30075 0.0
H787 H 0.86032 0.24379 0.28148 0.0
C788 C 0.91008 0.23016 0.32283 0.0
C789 C 0.91665 0.20867 0.31134 0.0
C790 C 0.90633 0.25106 0.30944 0.0
C791 C 0.90918 0.25073 0.28444 0.0
C792 C 0.91761 0.22984 0.27327 0.0
H793 H 0.85034 0.3 0.15856 0.0
H794 H 0.86287 0.28184 0.19624 0.0
C795 C 0.92127 0.20898 0.28657 0.0
C796 C 0.90088 0.27091 0.26934 0.0
H797 H 0.84966 0.29523 0.24625 0.0
C798 C 0.91753 0.28267 0.25459 0.0
C799 C 0.87614 0.27606 0.26687 0.0
C800 C 0.85743 0.26349 0.28186 0.0
C801 C 0.90999 0.29858 0.23659 0.0
C802 C 0.8852 0.30279 0.23339 0.0
C803 C 0.86865 0.29204 0.24896 0.0
C804 C 0.87597 0.31491 0.21171 0.0
C805 C 0.92837 0.30951 0.22003 0.0
C806 C 0.87869 0.33968 0.20821 0.0
C807 C 0.87136 0.35024 0.18661 0.0
C808 C 0.86145 0.33606 0.16822 0.0
C809 C 0.85805 0.31141 0.17227 0.0
C810 C 0.86515 0.30099 0.19381 0.0
H811 H 0.94685 0.30329 0.22407 0.0
H812 H 0.92407 0.30494 0.20113 0.0
H813 H 0.92786 0.32934 0.22171 0.0
H814 H 0.88686 0.35071 0.22195 0.0
H815 H 0.87424 0.36927 0.18399 0.0
H816 H 0.06427 0.07685 0.60657 0.0
H817 H 0.04106 0.0399 0.60929 0.0
H818 H 0.01475 0.06125 0.67881 0.0
H819 H 0.03774 0.09862 0.67614 0.0
H820 H 0.04512 0.00415 0.6438 0.0
H821 H 0.95342 0.0433 0.64229 0.0
H822 H 0.9797 0.06024 0.63388 0.0
H823 H 0.97309 0.05504 0.66496 0.0
C824 C 0.05343 0.07384 0.6224 0.0
C825 C 0.05283 0.09074 0.64113 0.0
C826 C 0.04022 0.05266 0.62393 0.0
C827 C 0.02607 0.04793 0.64415 0.0
C828 C 0.02527 0.06475 0.66287 0.0
H829 H 0.96631 0.9057 0.67475 0.0
H830 H 0.98928 0.94307 0.67714 0.0
C831 C 0.03847 0.08605 0.66133 0.0
C832 C 0.0127 0.02504 0.64566 0.0
H833 H 0.95629 0.00136 0.64738 0.0
C834 C 0.02569 0.0035 0.64469 0.0
C835 C 0.98738 0.02433 0.64663 0.0
C836 C 0.97249 0.04692 0.64681 0.0
C837 C 0.01402 0.98121 0.6444 0.0
C838 C 0.98871 0.98049 0.64547 0.0
C839 C 0.97572 0.00202 0.6467 0.0
C840 C 0.97525 0.95765 0.64405 0.0
C841 C 0.02882 0.95866 0.64216 0.0
C842 C 0.9596 0.95362 0.62481 0.0
C843 C 0.94641 0.9324 0.62342 0.0
C844 C 0.94853 0.91479 0.64135 0.0
C845 C 0.96437 0.91882 0.66057 0.0
C846 C 0.97756 0.94012 0.66194 0.0
H847 H 0.04746 0.96255 0.63627 0.0
H848 H 0.02971 0.94963 0.65985 0.0
H849 H 0.02054 0.94601 0.62919 0.0
H850 H 0.95758 0.96695 0.61082 0.0
H851 H 0.93438 0.92993 0.60838 0.0
H852 H 0.96156 0.09371 0.32925 0.0
H853 H 0.98553 0.05698 0.32699 0.0
H854 H 0.95517 0.03293 0.3939 0.0
H855 H 0.93093 0.06928 0.39618 0.0
H856 H 0.01944 0.03872 0.3584 0.0
H857 H 0.94258 0.97631 0.34915 0.0
H858 H 0.93962 0.00832 0.34532 0.0
H859 H 0.94039 0.99551 0.3749 0.0
C860 C 0.96 0.08062 0.3435 0.0
C861 C 0.94418 0.08435 0.3628 0.0
C862 C 0.97369 0.05965 0.34216 0.0
C863 C 0.97174 0.04205 0.36003 0.0
C864 C 0.95649 0.04602 0.37962 0.0
H865 H 0.0689 0.92723 0.39487 0.0
H866 H 0.04496 0.96381 0.39314 0.0
C867 C 0.94276 0.0669 0.38096 0.0
C868 C 0.98587 0.01963 0.35842 0.0
H869 H 0.98061 0.95864 0.35761 0.0
C870 C 0.01097 0.02121 0.35805 0.0
C871 C 0.97475 0.99683 0.35759 0.0
C872 C 0.94785 0.99407 0.35651 0.0
C873 C 0.0253 0.00053 0.35762 0.0
C874 C 0.01418 0.97772 0.358 0.0
C875 C 0.98908 0.97615 0.3576 0.0
C876 C 0.02829 0.95526 0.35917 0.0
C877 C 0.0522 0.00331 0.35661 0.0
C878 C 0.0262 0.93792 0.34105 0.0
C879 C 0.03971 0.91682 0.34208 0.0
C880 C 0.05548 0.91269 0.36131 0.0
C881 C 0.05709 0.92991 0.37969 0.0
C882 C 0.04355 0.95092 0.37867 0.0
H883 H 0.05747 0.02118 0.34955 0.0
H884 H 0.05964 0.00158 0.37497 0.0
H885 H 0.06045 0.98924 0.34518 0.0
H886 H 0.01435 0.94086 0.32595 0.0
H887 H 0.038 0.90391 0.32766 0.0
H888 H 0.67499 0.9547 0.90181 0.0
H889 H 0.67995 0.9768 0.93949 0.0
H890 H 0.61201 0.94966 0.96453 0.0
H891 H 0.60699 0.92739 0.92726 0.0
H892 H 0.65062 0.0119 0.95945 0.0
H893 H 0.65744 0.93328 0.01972 0.0
H894 H 0.66065 0.93095 0.98758 0.0
H895 H 0.63132 0.93244 0.00094 0.0
C896 C 0.66111 0.95341 0.91537 0.0
C897 C 0.64064 0.93915 0.91157 0.0
C898 C 0.66402 0.96602 0.93687 0.0
C899 C 0.64659 0.96445 0.95496 0.0
C900 C 0.62596 0.95063 0.95103 0.0
H901 H 0.61047 0.0584 0.07011 0.0
H902 H 0.61393 0.03489 0.03342 0.0
C903 C 0.62303 0.93803 0.92961 0.0
C904 C 0.64941 0.97789 0.97767 0.0
H905 H 0.64942 0.97112 0.03851 0.0
C906 C 0.65065 0.00299 0.97673 0.0
C907 C 0.64982 0.9662 0.00018 0.0
C908 C 0.64999 0.93922 0.00223 0.0
C909 C 0.65117 0.01679 0.99777 0.0
C910 C 0.65005 0.00513 0.02027 0.0
C911 C 0.64996 0.98 0.02122 0.0
C912 C 0.6479 0.01878 0.04293 0.0
C913 C 0.65276 0.04372 0.99572 0.0
C914 C 0.66545 0.01682 0.06084 0.0
C915 C 0.66347 0.03015 0.08202 0.0
C916 C 0.6438 0.04555 0.08563 0.0
C917 C 0.62595 0.04689 0.06787 0.0
C918 C 0.62795 0.03358 0.04678 0.0
H919 H 0.66042 0.04928 0.97819 0.0
H920 H 0.63449 0.05147 0.99714 0.0
H921 H 0.66393 0.05141 0.0103 0.0
H922 H 0.68086 0.00528 0.05826 0.0
H923 H 0.67749 0.02867 0.09535 0.0
H924 H 0.39617 0.93523 0.07394 0.0
H925 H 0.39425 0.95902 0.03734 0.0
H926 H 0.32428 0.98498 0.05759 0.0
H927 H 0.32615 0.96143 0.09461 0.0
H928 H 0.36076 0.9554 0.00086 0.0
H929 H 0.36083 0.04659 0.04118 0.0
H930 H 0.36889 0.02013 0.05798 0.0
H931 H 0.33791 0.02681 0.05221 0.0
C932 C 0.38041 0.94612 0.07077 0.0
C933 C 0.36131 0.94645 0.08725 0.0
C934 C 0.37934 0.95967 0.04979 0.0
C935 C 0.35923 0.97389 0.04485 0.0
C936 C 0.34015 0.97442 0.06127 0.0
H937 H 0.32837 0.0341 0.90337 0.0
H938 H 0.3269 0.0106 0.94039 0.0
C939 C 0.34122 0.96089 0.08237 0.0
C940 C 0.35814 0.98754 0.02213 0.0
H941 H 0.35577 0.04419 0.99915 0.0
C942 C 0.35961 0.97482 0.00044 0.0
C943 C 0.35685 0.01286 0.02172 0.0
C944 C 0.35624 0.02748 0.04449 0.0
C945 C 0.35997 0.98675 0.97831 0.0
C946 C 0.35841 0.01205 0.97789 0.0
C947 C 0.35681 0.02477 -0.00043 0.0
C948 C 0.35939 0.02579 0.95521 0.0
C949 C 0.36272 0.97223 0.95563 0.0
C950 C 0.37798 0.0423 0.95143 0.0
C951 C 0.37881 0.05583 0.93042 0.0
C952 C 0.361 0.05318 0.91276 0.0
C953 C 0.34247 0.03647 0.91652 0.0
C954 C 0.34162 0.02297 0.93763 0.0
H955 H 0.36936 0.95382 0.95936 0.0
H956 H 0.34503 0.97068 0.94667 0.0
H957 H 0.3753 0.9811 0.943 0.0
H958 H 0.39186 0.04474 0.96481 0.0
H959 H 0.39333 0.06853 0.92813 0.0
H960 H 0.92577 0.6064 0.93458 0.0
H961 H 0.96292 0.6109 0.95718 0.0
H962 H 0.93856 0.67913 0.98426 0.0
H963 H 0.90101 0.67466 0.96188 0.0
H964 H 0.99673 0.64753 0.95249 0.0
H965 H 0.95963 0.64326 0.04497 0.0
H966 H 0.94266 0.63401 0.01902 0.0
H967 H 0.94632 0.66532 0.02564 0.0
C968 C 0.92815 0.6223 0.94549 0.0
C969 C 0.91037 0.64016 0.94645 0.0
C970 C 0.94945 0.62485 0.95834 0.0
C971 C 0.95342 0.64527 0.97247 0.0
C972 C 0.93567 0.66307 0.97372 0.0
H973 H 0.09576 0.68038 0.03075 0.0
H974 H 0.05801 0.68244 0.00832 0.0
C975 C 0.91426 0.6605 0.96089 0.0
C976 C 0.97647 0.64794 0.98535 0.0
H977 H 0.00122 0.65009 0.04125 0.0
C978 C 0.99775 0.64824 0.9719 0.0
C979 C 0.97766 0.64871 0.01066 0.0
C980 C 0.9554 0.64762 0.02601 0.0
C981 C 0.02028 0.64888 0.98309 0.0
C982 C 0.02147 0.64957 0.00839 0.0
C983 C 0.00018 0.64969 0.02184 0.0
C984 C 0.04459 0.64844 0.02136 0.0
C985 C 0.0426 0.64791 0.96782 0.0
C986 C 0.04942 0.62875 0.03619 0.0
C987 C 0.07082 0.62755 0.04903 0.0
C988 C 0.08786 0.64609 0.04738 0.0
C989 C 0.08309 0.66574 0.03231 0.0
C990 C 0.06156 0.66693 0.01945 0.0
H991 H 0.03858 0.64264 0.94903 0.0
H992 H 0.05113 0.66588 0.96753 0.0
H993 H 0.05574 0.635 0.97537 0.0
H994 H 0.03654 0.61429 0.03787 0.0
H995 H 0.07388 0.61214 0.06044 0.0
H996 H 0.09853 0.3406 0.97265 0.0
H997 H 0.06176 0.33924 0.99665 0.0
H998 H 0.02633 0.38468 0.94506 0.0
H999 H 0.06313 0.38689 0.92161 0.0
H1000 H 0.01688 0.39935 0.98854 0.0
H1001 H 0.00208 0.30116 0.9846 0.0
H1002 H 0.03067 0.30892 0.99711 0.0
H1003 H 0.02419 0.31609 0.96632 0.0
C1004 C 0.08287 0.35025 0.96644 0.0
C1005 C 0.08373 0.36383 0.94523 0.0
C1006 C 0.06181 0.3493 0.98006 0.0
C1007 C 0.04112 0.36147 0.97242 0.0
C1008 C 0.04203 0.37508 0.95129 0.0
H1009 H 0.89667 0.33906 0.0277 0.0
H1010 H 0.93321 0.33961 0.0033 0.0
C1011 C 0.06311 0.37634 0.9379 0.0
C1012 C 0.01865 0.36079 0.98667 0.0
H1013 H 0.97737 0.32311 0.01169 0.0
C1014 C 0.0082 0.38266 0.9935 0.0
C1015 C 0.00709 0.33904 0.99281 0.0
C1016 C 0.01643 0.31499 0.98462 0.0
C1017 C 0.98666 0.38341 0.00644 0.0
C1018 C 0.97568 0.36165 0.01353 0.0
C1019 C 0.98595 0.33977 0.00647 0.0
C1020 C 0.95357 0.36124 0.02832 0.0
C1021 C 0.97565 0.40755 0.01186 0.0
C1022 C 0.95299 0.37291 0.0506 0.0
C1023 C 0.93209 0.37293 0.06435 0.0
C1024 C 0.91147 0.36082 0.05635 0.0
C1025 C 0.91224 0.3486 0.03431 0.0
C1026 C 0.93311 0.34887 0.02038 0.0
H1027 H 0.98179 0.42143 0.99896 0.0
H1028 H 0.95576 0.40675 0.01129 0.0
H1029 H 0.98121 0.41337 0.03005 0.0
H1030 H 0.96877 0.38194 0.05744 0.0
H1031 H 0.93221 0.38222 0.08141 0.0
loop_
_geom_bond_atom_site_label_1
_geom_bond_atom_site_label_2
_geom_bond_distance
_geom_bond_site_symmetry_2
_ccdc_geom_bond_type
O0 Cd1 2.223 . S
O0 C8 1.315 . S
Cd1 O0 2.223 . S
Cd1 O4 2.297 . S
Cd1 O5 2.439 . S
Cd1 O11 2.240 . S
Cd2 O3 2.240 . S
Cd2 O10 2.223 . S
Cd2 O12 2.297 . S
Cd2 O13 2.439 . S
O3 Cd2 2.240 . S
O3 C8 1.279 . S
O4 Cd1 2.297 . S
O4 C6 1.247 . S
O5 Cd1 2.439 . S
O5 C6 1.208 . S
C6 O4 1.247 . S
C6 O5 1.208 . S
C7 O12 1.247 . S
C7 O13 1.208 . S
C8 O0 1.315 . S
C8 O3 1.279 . S
C9 O10 1.315 . S
C9 O11 1.279 . S
O10 Cd2 2.223 . S
O10 C9 1.315 . S
O11 Cd1 2.240 . S
O11 C9 1.279 . S
O12 Cd2 2.297 . S
O12 C7 1.247 . S
O13 Cd2 2.439 . S
O13 C7 1.208 . S
O14 Cd15 2.223 . S
O14 C22 1.315 . S
Cd15 O14 2.223 . S
Cd15 O18 2.297 . S
Cd15 O19 2.439 . S
Cd15 O25 2.240 . S
Cd16 O17 2.240 . S
Cd16 O24 2.223 . S
Cd16 O26 2.297 . S
Cd16 O27 2.439 . S
O17 Cd16 2.240 . S
O17 C22 1.279 . S
O18 Cd15 2.297 . S
O18 C20 1.247 . S
O19 Cd15 2.439 . S
O19 C20 1.208 . S
C20 O18 1.247 . S
C20 O19 1.208 . S
C21 O26 1.247 . S
C21 O27 1.208 . S
C22 O14 1.315 . S
C22 O17 1.279 . S
C23 O24 1.315 . S
C23 O25 1.279 . S
O24 Cd16 2.223 . S
O24 C23 1.315 . S
O25 Cd15 2.240 . S
O25 C23 1.279 . S
O26 Cd16 2.297 . S
O26 C21 1.247 . S
O27 Cd16 2.439 . S
O27 C21 1.208 . S
O28 Cd29 2.223 . S
O28 C36 1.315 . S
Cd29 O28 2.223 . S
Cd29 O32 2.297 . S
Cd29 O33 2.439 . S
Cd29 O39 2.240 . S
Cd30 O31 2.240 . S
Cd30 O38 2.223 . S
Cd30 O40 2.297 . S
Cd30 O41 2.439 . S
O31 Cd30 2.240 . S
O31 C36 1.279 . S
O32 Cd29 2.297 . S
O32 C34 1.247 . S
O33 Cd29 2.439 . S
O33 C34 1.208 . S
C34 O32 1.247 . S
C34 O33 1.208 . S
C35 O40 1.247 . S
C35 O41 1.208 . S
C36 O28 1.315 . S
C36 O31 1.279 . S
C37 O38 1.315 . S
C37 O39 1.279 . S
O38 Cd30 2.223 . S
O38 C37 1.315 . S
O39 Cd29 2.240 . S
O39 C37 1.279 . S
O40 Cd30 2.297 . S
O40 C35 1.247 . S
O41 Cd30 2.439 . S
O41 C35 1.208 . S
O42 Cd43 2.223 . S
O42 C50 1.315 . S
Cd43 O42 2.223 . S
Cd43 O46 2.297 . S
Cd43 O47 2.439 . S
Cd43 O53 2.240 . S
Cd44 O45 2.240 . S
Cd44 O52 2.223 . S
Cd44 O54 2.297 . S
Cd44 O55 2.439 . S
O45 Cd44 2.240 . S
O45 C50 1.279 . S
O46 Cd43 2.297 . S
O46 C48 1.247 . S
O47 Cd43 2.439 . S
O47 C48 1.208 . S
C48 O46 1.247 . S
C48 O47 1.208 . S
C49 O54 1.247 . S
C49 O55 1.208 . S
C50 O42 1.315 . S
C50 O45 1.279 . S
C51 O52 1.315 . S
C51 O53 1.279 . S
O52 Cd44 2.223 . S
O52 C51 1.315 . S
O53 Cd43 2.240 . S
O53 C51 1.279 . S
O54 Cd44 2.297 . S
O54 C49 1.247 . S
O55 Cd44 2.439 . S
O55 C49 1.208 . S
O56 Cd57 2.223 . S
O56 C64 1.315 . S
Cd57 O56 2.223 . S
Cd57 O60 2.297 . S
Cd57 O61 2.439 . S
Cd57 O67 2.240 . S
Cd58 O59 2.240 . S
Cd58 O66 2.223 . S
Cd58 O68 2.297 . S
Cd58 O69 2.439 . S
O59 Cd58 2.240 . S
O59 C64 1.279 . S
O60 Cd57 2.297 . S
O60 C62 1.247 . S
O61 Cd57 2.439 . S
O61 C62 1.208 . S
C62 O60 1.247 . S
C62 O61 1.208 . S
C63 O68 1.247 . S
C63 O69 1.208 . S
C64 O56 1.315 . S
C64 O59 1.279 . S
C65 O66 1.315 . S
C65 O67 1.279 . S
O66 Cd58 2.223 . S
O66 C65 1.315 . S
O67 Cd57 2.240 . S
O67 C65 1.279 . S
O68 Cd58 2.297 . S
O68 C63 1.247 . S
O69 Cd58 2.439 . S
O69 C63 1.208 . S
O70 Cd71 2.223 . S
O70 C78 1.315 . S
Cd71 O70 2.223 . S
Cd71 O74 2.297 . S
Cd71 O75 2.439 . S
Cd71 O81 2.240 . S
Cd72 O73 2.240 . S
Cd72 O80 2.223 . S
Cd72 O82 2.297 . S
Cd72 O83 2.439 . S
O73 Cd72 2.240 . S
O73 C78 1.279 . S
O74 Cd71 2.297 . S
O74 C76 1.247 . S
O75 Cd71 2.439 . S
O75 C76 1.208 . S
C76 O74 1.247 . S
C76 O75 1.208 . S
C77 O82 1.247 . S
C77 O83 1.208 . S
C78 O70 1.315 . S
C78 O73 1.279 . S
C79 O80 1.315 . S
C79 O81 1.279 . S
O80 Cd72 2.223 . S
O80 C79 1.315 . S
O81 Cd71 2.240 . S
O81 C79 1.279 . S
O82 Cd72 2.297 . S
O82 C77 1.247 . S
O83 Cd72 2.439 . S
O83 C77 1.208 . S
O84 Cd85 2.223 . S
O84 C92 1.315 . S
Cd85 O84 2.223 . S
Cd85 O88 2.297 . S
Cd85 O89 2.439 . S
Cd85 O95 2.240 . S
Cd86 O87 2.240 . S
Cd86 O94 2.223 . S
Cd86 O96 2.297 . S
Cd86 O97 2.439 . S
O87 Cd86 2.240 . S
O87 C92 1.279 . S
O88 Cd85 2.297 . S
O88 C90 1.247 . S
O89 Cd85 2.439 . S
O89 C90 1.208 . S
C90 O88 1.247 . S
C90 O89 1.208 . S
C91 O96 1.247 . S
C91 O97 1.208 . S
C92 O84 1.315 . S
C92 O87 1.279 . S
C93 O94 1.315 . S
C93 O95 1.279 . S
O94 Cd86 2.223 . S
O94 C93 1.315 . S
O95 Cd85 2.240 . S
O95 C93 1.279 . S
O96 Cd86 2.297 . S
O96 C91 1.247 . S
O97 Cd86 2.439 . S
O97 C91 1.208 . S
O98 Cd99 2.223 . S
O98 C106 1.315 . S
Cd99 O98 2.223 . S
Cd99 O102 2.297 . S
Cd99 O103 2.439 . S
Cd99 O109 2.240 . S
Cd100 O101 2.240 . S
Cd100 O108 2.223 . S
Cd100 O110 2.297 . S
Cd100 O111 2.439 . S
O101 Cd100 2.240 . S
O101 C106 1.279 . S
O102 Cd99 2.297 . S
O102 C104 1.247 . S
O103 Cd99 2.439 . S
O103 C104 1.208 . S
C104 O102 1.247 . S
C104 O103 1.208 . S
C105 O110 1.247 . S
C105 O111 1.208 . S
C106 O98 1.315 . S
C106 O101 1.279 . S
C107 O108 1.315 . S
C107 O109 1.279 . S
O108 Cd100 2.223 . S
O108 C107 1.315 . S
O109 Cd99 2.240 . S
O109 C107 1.279 . S
O110 Cd100 2.297 . S
O110 C105 1.247 . S
O111 Cd100 2.439 . S
O111 C105 1.208 . S
O112 Cd113 2.223 . S
O112 C120 1.315 . S
Cd113 O112 2.223 . S
Cd113 O116 2.297 . S
Cd113 O117 2.439 . S
Cd113 O123 2.240 . S
Cd114 O115 2.240 . S
Cd114 O122 2.223 . S
Cd114 O124 2.297 . S
Cd114 O125 2.439 . S
O115 Cd114 2.240 . S
O115 C120 1.279 . S
O116 Cd113 2.297 . S
O116 C118 1.247 . S
O117 Cd113 2.439 . S
O117 C118 1.208 . S
C118 O116 1.247 . S
C118 O117 1.208 . S
C119 O124 1.247 . S
C119 O125 1.208 . S
C120 O112 1.315 . S
C120 O115 1.279 . S
C121 O122 1.315 . S
C121 O123 1.279 . S
O122 Cd114 2.223 . S
O122 C121 1.315 . S
O123 Cd113 2.240 . S
O123 C121 1.279 . S
O124 Cd114 2.297 . S
O124 C119 1.247 . S
O125 Cd114 2.439 . S
O125 C119 1.208 . S
O126 Cd127 2.223 . S
O126 C134 1.315 . S
Cd127 O126 2.223 . S
Cd127 O130 2.297 . S
Cd127 O131 2.439 . S
Cd127 O137 2.240 . S
Cd128 O129 2.240 . S
Cd128 O136 2.223 . S
Cd128 O138 2.297 . S
Cd128 O139 2.439 . S
O129 Cd128 2.240 . S
O129 C134 1.279 . S
O130 Cd127 2.297 . S
O130 C132 1.247 . S
O131 Cd127 2.439 . S
O131 C132 1.208 . S
C132 O130 1.247 . S
C132 O131 1.208 . S
C133 O138 1.247 . S
C133 O139 1.208 . S
C134 O126 1.315 . S
C134 O129 1.279 . S
C135 O136 1.315 . S
C135 O137 1.279 . S
O136 Cd128 2.223 . S
O136 C135 1.315 . S
O137 Cd127 2.240 . S
O137 C135 1.279 . S
O138 Cd128 2.297 . S
O138 C133 1.247 . S
O139 Cd128 2.439 . S
O139 C133 1.208 . S
O140 Cd141 2.223 . S
O140 C148 1.315 . S
Cd141 O140 2.223 . S
Cd141 O144 2.297 . S
Cd141 O145 2.439 . S
Cd141 O151 2.240 . S
Cd142 O143 2.240 . S
Cd142 O150 2.223 . S
Cd142 O152 2.297 . S
Cd142 O153 2.439 . S
O143 Cd142 2.240 . S
O143 C148 1.279 . S
O144 Cd141 2.297 . S
O144 C146 1.247 . S
O145 Cd141 2.439 . S
O145 C146 1.208 . S
C146 O144 1.247 . S
C146 O145 1.208 . S
C147 O152 1.247 . S
C147 O153 1.208 . S
C148 O140 1.315 . S
C148 O143 1.279 . S
C149 O150 1.315 . S
C149 O151 1.279 . S
O150 Cd142 2.223 . S
O150 C149 1.315 . S
O151 Cd141 2.240 . S
O151 C149 1.279 . S
O152 Cd142 2.297 . S
O152 C147 1.247 . S
O153 Cd142 2.439 . S
O153 C147 1.208 . S
O154 Cd155 2.223 . S
O154 C162 1.315 . S
Cd155 O154 2.223 . S
Cd155 O158 2.297 . S
Cd155 O159 2.439 . S
Cd155 O165 2.240 . S
Cd156 O157 2.240 . S
Cd156 O164 2.223 . S
Cd156 O166 2.297 . S
Cd156 O167 2.439 . S
O157 Cd156 2.240 . S
O157 C162 1.279 . S
O158 Cd155 2.297 . S
O158 C160 1.247 . S
O159 Cd155 2.439 . S
O159 C160 1.208 . S
C160 O158 1.247 . S
C160 O159 1.208 . S
C161 O166 1.247 . S
C161 O167 1.208 . S
C162 O154 1.315 . S
C162 O157 1.279 . S
C163 O164 1.315 . S
C163 O165 1.279 . S
O164 Cd156 2.223 . S
O164 C163 1.315 . S
O165 Cd155 2.240 . S
O165 C163 1.279 . S
O166 Cd156 2.297 . S
O166 C161 1.247 . S
O167 Cd156 2.439 . S
O167 C161 1.208 . S
H168 C176 0.929 . S
H169 C178 0.930 1_455 S
H170 C180 0.930 . S
H171 C183 0.929 . S
H172 C186 0.930 . S
H173 C188 0.960 . S
H174 C188 0.960 . S
H175 C188 0.960 . S
C176 H168 0.929 . S
C176 C177 1.377 . S
C176 C178 1.384 . S
C177 C176 1.377 . S
C177 C183 1.390 . S
C178 H169 0.930 1_655 S
C178 C176 1.384 . S
C178 C179 1.372 . S
C179 C178 1.372 . S
C179 C180 1.400 . S
C179 C184 1.490 . S
C180 H170 0.930 . S
C180 C179 1.400 . S
C180 C183 1.386 . S
H181 C197 0.930 . S
H182 C198 0.931 1_655 S
C183 H171 0.929 . S
C183 C177 1.390 . S
C183 C180 1.386 . S
C184 C179 1.490 . S
C184 C186 1.395 1_655 S
C184 C187 1.403 . S
H185 C191 0.930 . S
C186 H172 0.930 . S
C186 C184 1.395 1_455 S
C186 C189 1.403 . S
C187 C184 1.403 . S
C187 C188 1.524 . S
C187 C191 1.400 . S
C188 H173 0.960 . S
C188 H174 0.960 . S
C188 H175 0.960 . S
C188 C187 1.524 . S
C189 C186 1.403 . S
C189 C190 1.392 . S
C189 C193 1.495 . S
C190 C189 1.392 . S
C190 C191 1.385 1_455 S
C190 C192 1.478 . S
C191 H185 0.930 . S
C191 C187 1.400 . S
C191 C190 1.385 1_655 S
C192 C190 1.478 . S
C192 C194 1.381 . S
C192 C198 1.383 . S
C193 C189 1.495 . S
C193 H199 0.959 . S
C193 H200 0.961 . S
C193 H201 0.960 . S
C194 C192 1.381 . S
C194 C195 1.394 . S
C194 H202 0.930 . S
C195 C194 1.394 . S
C195 C196 1.383 . S
C195 H203 0.929 . S
C196 C195 1.383 . S
C196 C197 1.377 . S
C197 H181 0.930 . S
C197 C196 1.377 . S
C197 C198 1.379 . S
C198 H182 0.931 1_455 S
C198 C192 1.383 . S
C198 C197 1.379 . S
H199 C193 0.959 . S
H200 C193 0.961 . S
H201 C193 0.960 . S
H202 C194 0.930 . S
H203 C195 0.929 . S
H204 C212 0.929 . S
H205 C214 0.930 1_655 S
H206 C216 0.930 . S
H207 C219 0.929 . S
H208 C222 0.930 . S
H209 C224 0.960 . S
H210 C224 0.960 . S
H211 C224 0.960 . S
C212 H204 0.929 . S
C212 C213 1.377 . S
C212 C214 1.384 . S
C213 C212 1.377 . S
C213 C219 1.390 . S
C214 H205 0.930 1_455 S
C214 C212 1.384 . S
C214 C215 1.372 . S
C215 C214 1.372 . S
C215 C216 1.400 . S
C215 C220 1.490 . S
C216 H206 0.930 . S
C216 C215 1.400 . S
C216 C219 1.386 . S
H217 C233 0.930 . S
H218 C234 0.965 . S
C219 H207 0.929 . S
C219 C213 1.390 . S
C219 C216 1.386 . S
C220 C215 1.490 . S
C220 C222 1.395 1_455 S
C220 C223 1.403 . S
H221 C227 0.930 . S
C222 H208 0.930 . S
C222 C220 1.395 1_655 S
C222 C225 1.403 . S
C223 C220 1.403 . S
C223 C224 1.524 . S
C223 C227 1.400 . S
C224 H209 0.960 . S
C224 H210 0.960 . S
C224 H211 0.960 . S
C224 C223 1.524 . S
C225 C222 1.403 . S
C225 C226 1.392 . S
C225 C229 1.495 . S
C226 C225 1.392 . S
C226 C227 1.385 1_655 S
C226 C228 1.478 . S
C227 H221 0.930 . S
C227 C223 1.400 . S
C227 C226 1.385 1_455 S
C228 C226 1.478 . S
C228 C230 1.381 . S
C228 C234 1.383 . S
C229 C225 1.495 . S
C229 H235 0.959 . S
C229 H236 0.961 . S
C229 H237 0.960 . S
C230 C228 1.381 . S
C230 C231 1.394 . S
C230 H238 0.930 . S
C231 C230 1.394 . S
C231 C232 1.383 . S
C231 H239 0.929 . S
C232 C231 1.383 . S
C232 C233 1.377 . S
C233 H217 0.930 . S
C233 C232 1.377 . S
C233 C234 1.379 . S
C234 H218 0.965 . S
C234 C228 1.383 . S
C234 C233 1.379 . S
H235 C229 0.959 . S
H236 C229 0.961 . S
H237 C229 0.960 . S
H238 C230 0.930 . S
H239 C231 0.929 . S
H240 C248 0.929 . S
H241 C250 0.930 . S
H242 C252 0.930 . S
H243 C255 0.929 . S
H244 C258 0.930 . S
H245 C260 0.960 . S
H246 C260 0.960 . S
H247 C260 0.960 . S
C248 H240 0.929 . S
C248 C249 1.377 . S
C248 C250 1.384 . S
C249 C248 1.377 . S
C249 C255 1.390 . S
C250 H241 0.930 . S
C250 C248 1.384 . S
C250 C251 1.372 . S
C251 C250 1.372 . S
C251 C252 1.400 . S
C251 C256 1.490 . S
C252 H242 0.930 . S
C252 C251 1.400 . S
C252 C255 1.386 . S
H253 C269 0.930 . S
H254 C270 0.931 . S
C255 H243 0.929 . S
C255 C249 1.390 . S
C255 C252 1.386 . S
C256 C251 1.490 . S
C256 C258 1.395 1_565 S
C256 C259 1.403 . S
H257 C263 0.930 . S
C258 H244 0.930 . S
C258 C256 1.395 1_545 S
C258 C261 1.403 . S
C259 C256 1.403 . S
C259 C260 1.524 . S
C259 C263 1.400 . S
C260 H245 0.960 . S
C260 H246 0.960 . S
C260 H247 0.960 . S
C260 C259 1.524 . S
C261 C258 1.403 . S
C261 C262 1.392 . S
C261 C265 1.495 . S
C262 C261 1.392 . S
C262 C263 1.385 1_545 S
C262 C264 1.478 . S
C263 H257 0.930 . S
C263 C259 1.400 . S
C263 C262 1.385 1_565 S
C264 C262 1.478 . S
C264 C266 1.381 . S
C264 C270 1.383 . S
C265 C261 1.495 . S
C265 H271 0.959 . S
C265 H272 0.961 . S
C265 H273 0.960 . S
C266 C264 1.381 . S
C266 C267 1.394 . S
C266 H274 0.930 . S
C267 C266 1.394 . S
C267 C268 1.383 . S
C267 H275 0.929 . S
C268 C267 1.383 . S
C268 C269 1.377 . S
C269 H253 0.930 . S
C269 C268 1.377 . S
C269 C270 1.379 . S
C270 H254 0.931 . S
C270 C264 1.383 . S
C270 C269 1.379 . S
H271 C265 0.959 . S
H272 C265 0.961 . S
H273 C265 0.960 . S
H274 C266 0.930 . S
H275 C267 0.929 . S
H276 C284 0.929 . S
H277 C286 0.930 1_545 S
H278 C288 0.930 . S
H279 C291 0.929 . S
H280 C294 0.930 . S
H281 C296 0.960 . S
H282 C296 0.960 . S
H283 C296 0.960 . S
C284 H276 0.929 . S
C284 C285 1.377 . S
C284 C286 1.384 . S
C285 C284 1.377 . S
C285 C291 1.390 . S
C286 H277 0.930 1_565 S
C286 C284 1.384 . S
C286 C287 1.372 . S
C287 C286 1.372 . S
C287 C288 1.400 . S
C287 C292 1.490 . S
C288 H278 0.930 . S
C288 C287 1.400 . S
C288 C291 1.386 . S
H289 C305 0.930 . S
H290 C306 0.931 1_565 S
C291 H279 0.929 . S
C291 C285 1.390 . S
C291 C288 1.386 . S
C292 C287 1.490 . S
C292 C294 1.395 1_565 S
C292 C295 1.403 . S
H293 C299 0.930 . S
C294 H280 0.930 . S
C294 C292 1.395 1_545 S
C294 C297 1.403 . S
C295 C292 1.403 . S
C295 C296 1.524 . S
C295 C299 1.400 . S
C296 H281 0.960 . S
C296 H282 0.960 . S
C296 H283 0.960 . S
C296 C295 1.524 . S
C297 C294 1.403 . S
C297 C298 1.392 . S
C297 C301 1.495 . S
C298 C297 1.392 . S
C298 C299 1.385 1_545 S
C298 C300 1.478 . S
C299 H293 0.930 . S
C299 C295 1.400 . S
C299 C298 1.385 1_565 S
C300 C298 1.478 . S
C300 C302 1.381 . S
C300 C306 1.383 . S
C301 C297 1.495 . S
C301 H307 0.959 . S
C301 H308 0.961 . S
C301 H309 0.960 . S
C302 C300 1.381 . S
C302 C303 1.394 . S
C302 H310 0.930 . S
C303 C302 1.394 . S
C303 C304 1.383 . S
C303 H311 0.929 . S
C304 C303 1.383 . S
C304 C305 1.377 . S
C305 H289 0.930 . S
C305 C304 1.377 . S
C305 C306 1.379 . S
C306 H290 0.931 1_545 S
C306 C300 1.383 . S
C306 C305 1.379 . S
H307 C301 0.959 . S
H308 C301 0.961 . S
H309 C301 0.960 . S
H310 C302 0.930 . S
H311 C303 0.929 . S
H312 C320 0.929 . S
H313 C322 0.930 . S
H314 C324 0.930 . S
H315 C327 0.929 . S
H316 C330 0.930 . S
H317 C332 0.960 . S
H318 C332 0.960 . S
H319 C332 0.960 . S
C320 H312 0.929 . S
C320 C321 1.377 . S
C320 C322 1.384 . S
C321 C320 1.377 . S
C321 C327 1.390 . S
C322 H313 0.930 . S
C322 C320 1.384 . S
C322 C323 1.372 . S
C323 C322 1.372 . S
C323 C324 1.400 . S
C323 C328 1.490 . S
C324 H314 0.930 . S
C324 C323 1.400 . S
C324 C327 1.386 . S
H325 C341 0.930 . S
H326 C342 0.931 . S
C327 H315 0.929 . S
C327 C321 1.390 . S
C327 C324 1.386 . S
C328 C323 1.490 . S
C328 C330 1.395 1_556 S
C328 C331 1.403 . S
H329 C335 0.930 . S
C330 H316 0.930 . S
C330 C328 1.395 1_554 S
C330 C333 1.403 . S
C331 C328 1.403 . S
C331 C332 1.524 . S
C331 C335 1.400 . S
C332 H317 0.960 . S
C332 H318 0.960 . S
C332 H319 0.960 . S
C332 C331 1.524 . S
C333 C330 1.403 . S
C333 C334 1.392 . S
C333 C337 1.495 . S
C334 C333 1.392 . S
C334 C335 1.385 1_554 S
C334 C336 1.478 . S
C335 H329 0.930 . S
C335 C331 1.400 . S
C335 C334 1.385 1_556 S
C336 C334 1.478 . S
C336 C338 1.381 . S
C336 C342 1.383 . S
C337 C333 1.495 . S
C337 H343 0.959 . S
C337 H344 0.961 . S
C337 H345 0.960 . S
C338 C336 1.381 . S
C338 C339 1.394 . S
C338 H346 0.930 . S
C339 C338 1.394 . S
C339 C340 1.383 . S
C339 H347 0.929 . S
C340 C339 1.383 . S
C340 C341 1.377 . S
C341 H325 0.930 . S
C341 C340 1.377 . S
C341 C342 1.379 . S
C342 H326 0.931 . S
C342 C336 1.383 . S
C342 C341 1.379 . S
H343 C337 0.959 . S
H344 C337 0.961 . S
H345 C337 0.960 . S
H346 C338 0.930 . S
H347 C339 0.929 . S
H348 C356 0.929 . S
H349 C358 0.930 . S
H350 C360 0.930 1_554 S
H351 C363 0.929 . S
H352 C366 0.930 . S
H353 C368 0.960 . S
H354 C368 0.960 . S
H355 C368 0.960 . S
C356 H348 0.929 . S
C356 C357 1.377 . S
C356 C358 1.384 . S
C357 C356 1.377 . S
C357 C363 1.390 . S
C358 H349 0.930 . S
C358 C356 1.384 . S
C358 C359 1.372 . S
C359 C358 1.372 . S
C359 C360 1.400 . S
C359 C364 1.490 . S
C360 H350 0.930 1_556 S
C360 C359 1.400 . S
C360 C363 1.386 . S
H361 C377 0.930 . S
H362 C378 0.931 . S
C363 H351 0.929 . S
C363 C357 1.390 . S
C363 C360 1.386 . S
C364 C359 1.490 . S
C364 C366 1.395 . S
C364 C367 1.403 . S
H365 C371 0.930 . S
C366 H352 0.930 . S
C366 C364 1.395 . S
C366 C369 1.403 1_556 S
C367 C364 1.403 . S
C367 C368 1.524 . S
C367 C371 1.400 1_556 S
C368 H353 0.960 . S
C368 H354 0.960 . S
C368 H355 0.960 . S
C368 C367 1.524 . S
C369 C366 1.403 1_554 S
C369 C370 1.392 . S
C369 C373 1.495 . S
C370 C369 1.392 . S
C370 C371 1.385 . S
C370 C372 1.478 . S
C371 H365 0.930 . S
C371 C367 1.400 1_554 S
C371 C370 1.385 . S
C372 C370 1.478 . S
C372 C374 1.381 . S
C372 C378 1.383 . S
C373 C369 1.495 . S
C373 H379 0.959 . S
C373 H380 0.961 . S
C373 H381 0.936 1_554 S
C374 C372 1.381 . S
C374 C375 1.394 . S
C374 H382 0.930 1_554 S
C375 C374 1.394 . S
C375 C376 1.383 . S
C375 H383 0.929 . S
C376 C375 1.383 . S
C376 C377 1.377 . S
C377 H361 0.930 . S
C377 C376 1.377 . S
C377 C378 1.379 . S
C378 H362 0.931 . S
C378 C372 1.383 . S
C378 C377 1.379 . S
H379 C373 0.959 . S
H380 C373 0.961 . S
H381 C373 0.936 1_556 S
H382 C374 0.930 1_556 S
H383 C375 0.929 . S
H384 C392 0.929 . S
H385 C394 0.930 . S
H386 C396 0.930 . S
H387 C399 0.929 . S
H388 C402 0.930 . S
H389 C404 0.960 . S
H390 C404 0.960 . S
H391 C404 0.960 . S
C392 H384 0.929 . S
C392 C393 1.377 . S
C392 C394 1.384 . S
C393 C392 1.377 . S
C393 C399 1.390 . S
C394 H385 0.930 . S
C394 C392 1.384 . S
C394 C395 1.372 . S
C395 C394 1.372 . S
C395 C396 1.400 . S
C395 C400 1.490 . S
C396 H386 0.930 . S
C396 C395 1.400 . S
C396 C399 1.386 . S
H397 C413 0.930 . S
H398 C414 0.931 . S
C399 H387 0.929 . S
C399 C393 1.390 . S
C399 C396 1.386 . S
C400 C395 1.490 . S
C400 C402 1.395 . S
C400 C403 1.403 . S
H401 C407 0.930 . S
C402 H388 0.930 . S
C402 C400 1.395 . S
C402 C405 1.403 . S
C403 C400 1.403 . S
C403 C404 1.524 . S
C403 C407 1.400 . S
C404 H389 0.960 . S
C404 H390 0.960 . S
C404 H391 0.960 . S
C404 C403 1.524 . S
C405 C402 1.403 . S
C405 C406 1.392 . S
C405 C409 1.495 . S
C406 C405 1.392 . S
C406 C407 1.385 . S
C406 C408 1.478 . S
C407 H401 0.930 . S
C407 C403 1.400 . S
C407 C406 1.385 . S
C408 C406 1.478 . S
C408 C410 1.381 . S
C408 C414 1.383 . S
C409 C405 1.495 . S
C409 H415 0.959 . S
C409 H416 0.961 . S
C409 H417 0.960 . S
C410 C408 1.381 . S
C410 C411 1.394 . S
C410 H418 0.930 . S
C411 C410 1.394 . S
C411 C412 1.383 . S
C411 H419 0.929 . S
C412 C411 1.383 . S
C412 C413 1.377 . S
C413 H397 0.930 . S
C413 C412 1.377 . S
C413 C414 1.379 . S
C414 H398 0.931 . S
C414 C408 1.383 . S
C414 C413 1.379 . S
H415 C409 0.959 . S
H416 C409 0.961 . S
H417 C409 0.960 . S
H418 C410 0.930 . S
H419 C411 0.929 . S
H420 C428 0.929 . S
H421 C430 0.930 . S
H422 C432 0.930 . S
H423 C435 0.929 . S
H424 C438 0.930 . S
H425 C440 0.960 . S
H426 C440 0.960 . S
H427 C440 0.960 . S
C428 H420 0.929 . S
C428 C429 1.377 . S
C428 C430 1.384 . S
C429 C428 1.377 . S
C429 C435 1.390 . S
C430 H421 0.930 . S
C430 C428 1.384 . S
C430 C431 1.372 . S
C431 C430 1.372 . S
C431 C432 1.400 . S
C431 C436 1.490 . S
C432 H422 0.930 . S
C432 C431 1.400 . S
C432 C435 1.386 . S
H433 C449 0.930 . S
H434 C450 0.931 . S
C435 H423 0.929 . S
C435 C429 1.390 . S
C435 C432 1.386 . S
C436 C431 1.490 . S
C436 C438 1.395 . S
C436 C439 1.403 . S
H437 C443 0.930 . S
C438 H424 0.930 . S
C438 C436 1.395 . S
C438 C441 1.403 . S
C439 C436 1.403 . S
C439 C440 1.524 . S
C439 C443 1.400 . S
C440 H425 0.960 . S
C440 H426 0.960 . S
C440 H427 0.960 . S
C440 C439 1.524 . S
C441 C438 1.403 . S
C441 C442 1.392 . S
C441 C445 1.495 . S
C442 C441 1.392 . S
C442 C443 1.385 . S
C442 C444 1.478 . S
C443 H437 0.930 . S
C443 C439 1.400 . S
C443 C442 1.385 . S
C444 C442 1.478 . S
C444 C446 1.381 . S
C444 C450 1.383 . S
C445 C441 1.495 . S
C445 H451 0.959 . S
C445 H452 0.961 . S
C445 H453 0.960 . S
C446 C444 1.381 . S
C446 C447 1.394 . S
C446 H454 0.930 . S
C447 C446 1.394 . S
C447 C448 1.383 . S
C447 H455 0.929 . S
C448 C447 1.383 . S
C448 C449 1.377 . S
C449 H433 0.930 . S
C449 C448 1.377 . S
C449 C450 1.379 . S
C450 H434 0.931 . S
C450 C444 1.383 . S
C450 C449 1.379 . S
H451 C445 0.959 . S
H452 C445 0.961 . S
H453 C445 0.960 . S
H454 C446 0.930 . S
H455 C447 0.929 . S
H456 C464 0.929 . S
H457 C466 0.930 . S
H458 C468 0.930 . S
H459 C471 0.929 . S
H460 C474 0.930 . S
H461 C476 0.960 . S
H462 C476 0.960 . S
H463 C476 0.960 . S
C464 H456 0.929 . S
C464 C465 1.377 . S
C464 C466 1.384 . S
C465 C464 1.377 . S
C465 C471 1.390 . S
C466 H457 0.930 . S
C466 C464 1.384 . S
C466 C467 1.372 . S
C467 C466 1.372 . S
C467 C468 1.400 . S
C467 C472 1.490 . S
C468 H458 0.930 . S
C468 C467 1.400 . S
C468 C471 1.386 . S
H469 C485 0.930 . S
H470 C486 0.931 . S
C471 H459 0.929 . S
C471 C465 1.390 . S
C471 C468 1.386 . S
C472 C467 1.490 . S
C472 C474 1.395 . S
C472 C475 1.403 . S
H473 C479 0.930 . S
C474 H460 0.930 . S
C474 C472 1.395 . S
C474 C477 1.403 . S
C475 C472 1.403 . S
C475 C476 1.524 . S
C475 C479 1.400 . S
C476 H461 0.960 . S
C476 H462 0.960 . S
C476 H463 0.960 . S
C476 C475 1.524 . S
C477 C474 1.403 . S
C477 C478 1.392 . S
C477 C481 1.495 . S
C478 C477 1.392 . S
C478 C479 1.385 . S
C478 C480 1.478 . S
C479 H473 0.930 . S
C479 C475 1.400 . S
C479 C478 1.385 . S
C480 C478 1.478 . S
C480 C482 1.381 . S
C480 C486 1.383 . S
C481 C477 1.495 . S
C481 H487 0.959 . S
C481 H488 0.961 . S
C481 H489 0.960 . S
C482 C480 1.381 . S
C482 C483 1.394 . S
C482 H490 0.930 . S
C483 C482 1.394 . S
C483 C484 1.383 . S
C483 H491 0.929 . S
C484 C483 1.383 . S
C484 C485 1.377 . S
C485 H469 0.930 . S
C485 C484 1.377 . S
C485 C486 1.379 . S
C486 H470 0.931 . S
C486 C480 1.383 . S
C486 C485 1.379 . S
H487 C481 0.959 . S
H488 C481 0.961 . S
H489 C481 0.960 . S
H490 C482 0.930 . S
H491 C483 0.929 . S
H492 C500 0.929 . S
H493 C502 0.930 . S
H494 C504 0.930 . S
H495 C507 0.929 . S
H496 C510 0.930 . S
H497 C512 0.960 . S
H498 C512 0.960 . S
H499 C512 0.960 . S
C500 H492 0.929 . S
C500 C501 1.377 . S
C500 C502 1.384 . S
C501 C500 1.377 . S
C501 C507 1.390 . S
C502 H493 0.930 . S
C502 C500 1.384 . S
C502 C503 1.372 . S
C503 C502 1.372 . S
C503 C504 1.400 . S
C503 C508 1.490 . S
C504 H494 0.930 . S
C504 C503 1.400 . S
C504 C507 1.386 . S
H505 C521 0.930 . S
H506 C522 0.931 . S
C507 H495 0.929 . S
C507 C501 1.390 . S
C507 C504 1.386 . S
C508 C503 1.490 . S
C508 C510 1.395 . S
C508 C511 1.403 . S
H509 C515 0.930 . S
C510 H496 0.930 . S
C510 C508 1.395 . S
C510 C513 1.403 . S
C511 C508 1.403 . S
C511 C512 1.524 . S
C511 C515 1.400 . S
C512 H497 0.960 . S
C512 H498 0.960 . S
C512 H499 0.960 . S
C512 C511 1.524 . S
C513 C510 1.403 . S
C513 C514 1.392 . S
C513 C517 1.495 . S
C514 C513 1.392 . S
C514 C515 1.385 . S
C514 C516 1.478 . S
C515 H509 0.930 . S
C515 C511 1.400 . S
C515 C514 1.385 . S
C516 C514 1.478 . S
C516 C518 1.381 . S
C516 C522 1.383 . S
C517 C513 1.495 . S
C517 H523 0.959 . S
C517 H524 0.961 . S
C517 H525 0.960 . S
C518 C516 1.381 . S
C518 C519 1.394 . S
C518 H526 0.930 . S
C519 C518 1.394 . S
C519 C520 1.383 . S
C519 H527 0.929 . S
C520 C519 1.383 . S
C520 C521 1.377 . S
C521 H505 0.930 . S
C521 C520 1.377 . S
C521 C522 1.379 . S
C522 H506 0.931 . S
C522 C516 1.383 . S
C522 C521 1.379 . S
H523 C517 0.959 . S
H524 C517 0.961 . S
H525 C517 0.960 . S
H526 C518 0.930 . S
H527 C519 0.929 . S
H528 C536 0.929 . S
H529 C538 0.930 . S
H530 C540 0.930 . S
H531 C543 0.929 . S
H532 C546 0.930 . S
H533 C548 0.960 . S
H534 C548 0.960 . S
H535 C548 0.960 . S
C536 H528 0.929 . S
C536 C537 1.377 . S
C536 C538 1.384 . S
C537 C536 1.377 . S
C537 C543 1.390 . S
C538 H529 0.930 . S
C538 C536 1.384 . S
C538 C539 1.372 . S
C539 C538 1.372 . S
C539 C540 1.400 . S
C539 C544 1.490 . S
C540 H530 0.930 . S
C540 C539 1.400 . S
C540 C543 1.386 . S
H541 C557 0.930 . S
H542 C558 0.931 . S
C543 H531 0.929 . S
C543 C537 1.390 . S
C543 C540 1.386 . S
C544 C539 1.490 . S
C544 C546 1.395 . S
C544 C547 1.403 . S
H545 C551 0.930 . S
C546 H532 0.930 . S
C546 C544 1.395 . S
C546 C549 1.403 . S
C547 C544 1.403 . S
C547 C548 1.524 . S
C547 C551 1.400 . S
C548 H533 0.960 . S
C548 H534 0.960 . S
C548 H535 0.960 . S
C548 C547 1.524 . S
C549 C546 1.403 . S
C549 C550 1.392 . S
C549 C553 1.495 . S
C550 C549 1.392 . S
C550 C551 1.385 . S
C550 C552 1.478 . S
C551 H545 0.930 . S
C551 C547 1.400 . S
C551 C550 1.385 . S
C552 C550 1.478 . S
C552 C554 1.381 . S
C552 C558 1.383 . S
C553 C549 1.495 . S
C553 H559 0.959 . S
C553 H560 0.961 . S
C553 H561 0.960 . S
C554 C552 1.381 . S
C554 C555 1.394 . S
C554 H562 0.930 . S
C555 C554 1.394 . S
C555 C556 1.383 . S
C555 H563 0.929 . S
C556 C555 1.383 . S
C556 C557 1.377 . S
C557 H541 0.930 . S
C557 C556 1.377 . S
C557 C558 1.379 . S
C558 H542 0.931 . S
C558 C552 1.383 . S
C558 C557 1.379 . S
H559 C553 0.959 . S
H560 C553 0.961 . S
H561 C553 0.960 . S
H562 C554 0.930 . S
H563 C555 0.929 . S
H564 C572 0.929 . S
H565 C574 0.930 . S
H566 C576 0.930 . S
H567 C579 0.929 . S
H568 C582 0.930 . S
H569 C584 0.960 . S
H570 C584 0.960 . S
H571 C584 0.960 . S
C572 H564 0.929 . S
C572 C573 1.377 . S
C572 C574 1.384 . S
C573 C572 1.377 . S
C573 C579 1.390 . S
C574 H565 0.930 . S
C574 C572 1.384 . S
C574 C575 1.372 . S
C575 C574 1.372 . S
C575 C576 1.400 . S
C575 C580 1.490 . S
C576 H566 0.930 . S
C576 C575 1.400 . S
C576 C579 1.386 . S
H577 C593 0.930 . S
H578 C594 0.931 . S
C579 H567 0.929 . S
C579 C573 1.390 . S
C579 C576 1.386 . S
C580 C575 1.490 . S
C580 C582 1.395 . S
C580 C583 1.403 . S
H581 C587 0.930 . S
C582 H568 0.930 . S
C582 C580 1.395 . S
C582 C585 1.403 . S
C583 C580 1.403 . S
C583 C584 1.524 . S
C583 C587 1.400 . S
C584 H569 0.960 . S
C584 H570 0.960 . S
C584 H571 0.960 . S
C584 C583 1.524 . S
C585 C582 1.403 . S
C585 C586 1.392 . S
C585 C589 1.495 . S
C586 C585 1.392 . S
C586 C587 1.385 . S
C586 C588 1.478 . S
C587 H581 0.930 . S
C587 C583 1.400 . S
C587 C586 1.385 . S
C588 C586 1.478 . S
C588 C590 1.381 . S
C588 C594 1.383 . S
C589 C585 1.495 . S
C589 H595 0.959 . S
C589 H596 0.961 . S
C589 H597 0.960 . S
C590 C588 1.381 . S
C590 C591 1.394 . S
C590 H598 0.930 . S
C591 C590 1.394 . S
C591 C592 1.383 . S
C591 H599 0.929 . S
C592 C591 1.383 . S
C592 C593 1.377 . S
C593 H577 0.930 . S
C593 C592 1.377 . S
C593 C594 1.379 . S
C594 H578 0.931 . S
C594 C588 1.383 . S
C594 C593 1.379 . S
H595 C589 0.959 . S
H596 C589 0.961 . S
H597 C589 0.960 . S
H598 C590 0.930 . S
H599 C591 0.929 . S
H600 C608 0.929 . S
H601 C610 0.930 . S
H602 C612 0.930 . S
H603 C615 0.929 . S
H604 C618 0.930 . S
H605 C620 0.960 . S
H606 C620 0.960 . S
H607 C620 0.960 . S
C608 H600 0.929 . S
C608 C609 1.377 . S
C608 C610 1.384 . S
C609 C608 1.377 . S
C609 C615 1.390 . S
C610 H601 0.930 . S
C610 C608 1.384 . S
C610 C611 1.372 . S
C611 C610 1.372 . S
C611 C612 1.400 . S
C611 C616 1.490 . S
C612 H602 0.930 . S
C612 C611 1.400 . S
C612 C615 1.386 . S
H613 C629 0.930 . S
H614 C630 0.931 . S
C615 H603 0.929 . S
C615 C609 1.390 . S
C615 C612 1.386 . S
C616 C611 1.490 . S
C616 C618 1.395 . S
C616 C619 1.403 . S
H617 C623 0.930 . S
C618 H604 0.930 . S
C618 C616 1.395 . S
C618 C621 1.403 . S
C619 C616 1.403 . S
C619 C620 1.524 . S
C619 C623 1.400 . S
C620 H605 0.960 . S
C620 H606 0.960 . S
C620 H607 0.960 . S
C620 C619 1.524 . S
C621 C618 1.403 . S
C621 C622 1.392 . S
C621 C625 1.495 . S
C622 C621 1.392 . S
C622 C623 1.385 . S
C622 C624 1.478 . S
C623 H617 0.930 . S
C623 C619 1.400 . S
C623 C622 1.385 . S
C624 C622 1.478 . S
C624 C626 1.381 . S
C624 C630 1.383 . S
C625 C621 1.495 . S
C625 H631 0.959 . S
C625 H632 0.961 . S
C625 H633 0.960 . S
C626 C624 1.381 . S
C626 C627 1.394 . S
C626 H634 0.930 . S
C627 C626 1.394 . S
C627 C628 1.383 . S
C627 H635 0.929 . S
C628 C627 1.383 . S
C628 C629 1.377 . S
C629 H613 0.930 . S
C629 C628 1.377 . S
C629 C630 1.379 . S
C630 H614 0.931 . S
C630 C624 1.383 . S
C630 C629 1.379 . S
H631 C625 0.959 . S
H632 C625 0.961 . S
H633 C625 0.960 . S
H634 C626 0.930 . S
H635 C627 0.929 . S
H636 C644 0.929 . S
H637 C646 0.930 . S
H638 C648 0.930 . S
H639 C651 0.929 . S
H640 C654 0.930 . S
H641 C656 0.960 . S
H642 C656 0.960 . S
H643 C656 0.960 . S
C644 H636 0.929 . S
C644 C645 1.377 . S
C644 C646 1.384 . S
C645 C644 1.377 . S
C645 C651 1.390 . S
C646 H637 0.930 . S
C646 C644 1.384 . S
C646 C647 1.372 . S
C647 C646 1.372 . S
C647 C648 1.400 . S
C647 C652 1.490 . S
C648 H638 0.930 . S
C648 C647 1.400 . S
C648 C651 1.386 . S
H649 C665 0.930 . S
H650 C666 0.931 . S
C651 H639 0.929 . S
C651 C645 1.390 . S
C651 C648 1.386 . S
C652 C647 1.490 . S
C652 C654 1.395 . S
C652 C655 1.403 . S
H653 C659 0.930 . S
C654 H640 0.930 . S
C654 C652 1.395 . S
C654 C657 1.403 . S
C655 C652 1.403 . S
C655 C656 1.524 . S
C655 C659 1.400 . S
C656 H641 0.960 . S
C656 H642 0.960 . S
C656 H643 0.960 . S
C656 C655 1.524 . S
C657 C654 1.403 . S
C657 C658 1.392 . S
C657 C661 1.495 . S
C658 C657 1.392 . S
C658 C659 1.385 . S
C658 C660 1.478 . S
C659 H653 0.930 . S
C659 C655 1.400 . S
C659 C658 1.385 . S
C660 C658 1.478 . S
C660 C662 1.381 . S
C660 C666 1.383 . S
C661 C657 1.495 . S
C661 H667 0.959 . S
C661 H668 0.961 . S
C661 H669 0.960 . S
C662 C660 1.381 . S
C662 C663 1.394 . S
C662 H670 0.930 . S
C663 C662 1.394 . S
C663 C664 1.383 . S
C663 H671 0.929 . S
C664 C663 1.383 . S
C664 C665 1.377 . S
C665 H649 0.930 . S
C665 C664 1.377 . S
C665 C666 1.379 . S
C666 H650 0.931 . S
C666 C660 1.383 . S
C666 C665 1.379 . S
H667 C661 0.959 . S
H668 C661 0.961 . S
H669 C661 0.960 . S
H670 C662 0.930 . S
H671 C663 0.929 . S
H672 C680 0.929 . S
H673 C682 0.930 . S
H674 C684 0.930 . S
H675 C687 0.929 . S
H676 C690 0.930 . S
H677 C692 0.960 . S
H678 C692 0.960 . S
H679 C692 0.960 . S
C680 H672 0.929 . S
C680 C681 1.377 . S
C680 C682 1.384 . S
C681 C680 1.377 . S
C681 C687 1.390 . S
C682 H673 0.930 . S
C682 C680 1.384 . S
C682 C683 1.372 . S
C683 C682 1.372 . S
C683 C684 1.400 . S
C683 C688 1.490 . S
C684 H674 0.930 . S
C684 C683 1.400 . S
C684 C687 1.386 . S
H685 C701 0.930 . S
H686 C702 0.931 . S
C687 H675 0.929 . S
C687 C681 1.390 . S
C687 C684 1.386 . S
C688 C683 1.490 . S
C688 C690 1.395 . S
C688 C691 1.403 . S
H689 C695 0.930 . S
C690 H676 0.930 . S
C690 C688 1.395 . S
C690 C693 1.403 . S
C691 C688 1.403 . S
C691 C692 1.524 . S
C691 C695 1.400 . S
C692 H677 0.960 . S
C692 H678 0.960 . S
C692 H679 0.960 . S
C692 C691 1.524 . S
C693 C690 1.403 . S
C693 C694 1.392 . S
C693 C697 1.495 . S
C694 C693 1.392 . S
C694 C695 1.385 . S
C694 C696 1.478 . S
C695 H689 0.930 . S
C695 C691 1.400 . S
C695 C694 1.385 . S
C696 C694 1.478 . S
C696 C698 1.381 . S
C696 C702 1.383 . S
C697 C693 1.495 . S
C697 H703 0.959 . S
C697 H704 0.961 . S
C697 H705 0.960 . S
C698 C696 1.381 . S
C698 C699 1.394 . S
C698 H706 0.930 . S
C699 C698 1.394 . S
C699 C700 1.383 . S
C699 H707 0.929 . S
C700 C699 1.383 . S
C700 C701 1.377 . S
C701 H685 0.930 . S
C701 C700 1.377 . S
C701 C702 1.379 . S
C702 H686 0.931 . S
C702 C696 1.383 . S
C702 C701 1.379 . S
H703 C697 0.959 . S
H704 C697 0.961 . S
H705 C697 0.960 . S
H706 C698 0.930 . S
H707 C699 0.929 . S
H708 C716 0.929 . S
H709 C718 0.930 . S
H710 C720 0.930 . S
H711 C723 0.929 . S
H712 C726 0.930 . S
H713 C728 0.960 . S
H714 C728 0.960 . S
H715 C728 0.960 . S
C716 H708 0.929 . S
C716 C717 1.377 . S
C716 C718 1.384 . S
C717 C716 1.377 . S
C717 C723 1.390 . S
C718 H709 0.930 . S
C718 C716 1.384 . S
C718 C719 1.372 . S
C719 C718 1.372 . S
C719 C720 1.400 . S
C719 C724 1.490 . S
C720 H710 0.930 . S
C720 C719 1.400 . S
C720 C723 1.386 . S
H721 C737 0.930 . S
H722 C738 0.931 . S
C723 H711 0.929 . S
C723 C717 1.390 . S
C723 C720 1.386 . S
C724 C719 1.490 . S
C724 C726 1.395 . S
C724 C727 1.403 . S
H725 C731 0.930 . S
C726 H712 0.930 . S
C726 C724 1.395 . S
C726 C729 1.403 . S
C727 C724 1.403 . S
C727 C728 1.524 . S
C727 C731 1.400 . S
C728 H713 0.960 . S
C728 H714 0.960 . S
C728 H715 0.960 . S
C728 C727 1.524 . S
C729 C726 1.403 . S
C729 C730 1.392 . S
C729 C733 1.495 . S
C730 C729 1.392 . S
C730 C731 1.385 . S
C730 C732 1.478 . S
C731 H725 0.930 . S
C731 C727 1.400 . S
C731 C730 1.385 . S
C732 C730 1.478 . S
C732 C734 1.381 . S
C732 C738 1.383 . S
C733 C729 1.495 . S
C733 H739 0.959 . S
C733 H740 0.961 . S
C733 H741 0.960 . S
C734 C732 1.381 . S
C734 C735 1.394 . S
C734 H742 0.930 . S
C735 C734 1.394 . S
C735 C736 1.383 . S
C735 H743 0.929 . S
C736 C735 1.383 . S
C736 C737 1.377 . S
C737 H721 0.930 . S
C737 C736 1.377 . S
C737 C738 1.379 . S
C738 H722 0.931 . S
C738 C732 1.383 . S
C738 C737 1.379 . S
H739 C733 0.959 . S
H740 C733 0.961 . S
H741 C733 0.960 . S
H742 C734 0.930 . S
H743 C735 0.929 . S
H744 C752 0.929 . S
H745 C754 0.930 . S
H746 C756 0.930 . S
H747 C759 0.929 . S
H748 C762 0.930 . S
H749 C764 0.960 . S
H750 C764 0.960 . S
H751 C764 0.960 . S
C752 H744 0.929 . S
C752 C753 1.377 . S
C752 C754 1.384 . S
C753 C752 1.377 . S
C753 C759 1.390 . S
C754 H745 0.930 . S
C754 C752 1.384 . S
C754 C755 1.372 . S
C755 C754 1.372 . S
C755 C756 1.400 . S
C755 C760 1.490 . S
C756 H746 0.930 . S
C756 C755 1.400 . S
C756 C759 1.386 . S
H757 C773 0.930 . S
H758 C774 0.931 . S
C759 H747 0.929 . S
C759 C753 1.390 . S
C759 C756 1.386 . S
C760 C755 1.490 . S
C760 C762 1.395 . S
C760 C763 1.403 . S
H761 C767 0.930 . S
C762 H748 0.930 . S
C762 C760 1.395 . S
C762 C765 1.403 . S
C763 C760 1.403 . S
C763 C764 1.524 . S
C763 C767 1.400 . S
C764 H749 0.960 . S
C764 H750 0.960 . S
C764 H751 0.960 . S
C764 C763 1.524 . S
C765 C762 1.403 . S
C765 C766 1.392 . S
C765 C769 1.495 . S
C766 C765 1.392 . S
C766 C767 1.385 . S
C766 C768 1.478 . S
C767 H761 0.930 . S
C767 C763 1.400 . S
C767 C766 1.385 . S
C768 C766 1.478 . S
C768 C770 1.381 . S
C768 C774 1.383 . S
C769 C765 1.495 . S
C769 H775 0.959 . S
C769 H776 0.961 . S
C769 H777 0.960 . S
C770 C768 1.381 . S
C770 C771 1.394 . S
C770 H778 0.930 . S
C771 C770 1.394 . S
C771 C772 1.383 . S
C771 H779 0.929 . S
C772 C771 1.383 . S
C772 C773 1.377 . S
C773 H757 0.930 . S
C773 C772 1.377 . S
C773 C774 1.379 . S
C774 H758 0.931 . S
C774 C768 1.383 . S
C774 C773 1.379 . S
H775 C769 0.959 . S
H776 C769 0.961 . S
H777 C769 0.960 . S
H778 C770 0.930 . S
H779 C771 0.929 . S
H780 C788 0.929 . S
H781 C790 0.930 . S
H782 C792 0.930 . S
H783 C795 0.929 . S
H784 C798 0.930 . S
H785 C800 0.960 . S
H786 C800 0.960 . S
H787 C800 0.960 . S
C788 H780 0.929 . S
C788 C789 1.377 . S
C788 C790 1.384 . S
C789 C788 1.377 . S
C789 C795 1.390 . S
C790 H781 0.930 . S
C790 C788 1.384 . S
C790 C791 1.372 . S
C791 C790 1.372 . S
C791 C792 1.400 . S
C791 C796 1.490 . S
C792 H782 0.930 . S
C792 C791 1.400 . S
C792 C795 1.386 . S
H793 C809 0.930 . S
H794 C810 0.931 . S
C795 H783 0.929 . S
C795 C789 1.390 . S
C795 C792 1.386 . S
C796 C791 1.490 . S
C796 C798 1.395 . S
C796 C799 1.403 . S
H797 C803 0.930 . S
C798 H784 0.930 . S
C798 C796 1.395 . S
C798 C801 1.403 . S
C799 C796 1.403 . S
C799 C800 1.524 . S
C799 C803 1.400 . S
C800 H785 0.960 . S
C800 H786 0.960 . S
C800 H787 0.960 . S
C800 C799 1.524 . S
C801 C798 1.403 . S
C801 C802 1.392 . S
C801 C805 1.495 . S
C802 C801 1.392 . S
C802 C803 1.385 . S
C802 C804 1.478 . S
C803 H797 0.930 . S
C803 C799 1.400 . S
C803 C802 1.385 . S
C804 C802 1.478 . S
C804 C806 1.381 . S
C804 C810 1.383 . S
C805 C801 1.495 . S
C805 H811 0.959 . S
C805 H812 0.961 . S
C805 H813 0.960 . S
C806 C804 1.381 . S
C806 C807 1.394 . S
C806 H814 0.930 . S
C807 C806 1.394 . S
C807 C808 1.383 . S
C807 H815 0.929 . S
C808 C807 1.383 . S
C808 C809 1.377 . S
C809 H793 0.930 . S
C809 C808 1.377 . S
C809 C810 1.379 . S
C810 H794 0.931 . S
C810 C804 1.383 . S
C810 C809 1.379 . S
H811 C805 0.959 . S
H812 C805 0.961 . S
H813 C805 0.960 . S
H814 C806 0.930 . S
H815 C807 0.929 . S
H816 C824 0.929 . S
H817 C826 0.930 . S
H818 C828 0.930 . S
H819 C831 0.929 . S
H820 C834 0.930 . S
H821 C836 0.960 . S
H822 C836 0.960 . S
H823 C836 0.960 . S
C824 H816 0.929 . S
C824 C825 1.377 . S
C824 C826 1.384 . S
C825 C824 1.377 . S
C825 C831 1.390 . S
C826 H817 0.930 . S
C826 C824 1.384 . S
C826 C827 1.372 . S
C827 C826 1.372 . S
C827 C828 1.400 . S
C827 C832 1.490 . S
C828 H818 0.930 . S
C828 C827 1.400 . S
C828 C831 1.386 . S
H829 C845 0.930 . S
H830 C846 0.931 . S
C831 H819 0.929 . S
C831 C825 1.390 . S
C831 C828 1.386 . S
C832 C827 1.490 . S
C832 C834 1.395 . S
C832 C835 1.403 1_455 S
H833 C839 0.930 . S
C834 H820 0.930 . S
C834 C832 1.395 . S
C834 C837 1.403 1_545 S
C835 C832 1.403 1_655 S
C835 C836 1.524 . S
C835 C839 1.400 1_545 S
C836 H821 0.960 . S
C836 H822 0.960 . S
C836 H823 0.960 . S
C836 C835 1.524 . S
C837 C834 1.403 1_565 S
C837 C838 1.392 1_455 S
C837 C841 1.495 . S
C838 C837 1.392 1_655 S
C838 C839 1.385 . S
C838 C840 1.478 . S
C839 H833 0.930 . S
C839 C835 1.400 1_565 S
C839 C838 1.385 . S
C840 C838 1.478 . S
C840 C842 1.381 . S
C840 C846 1.383 . S
C841 C837 1.495 . S
C841 H847 0.959 . S
C841 H848 0.961 . S
C841 H849 0.960 . S
C842 C840 1.381 . S
C842 C843 1.394 . S
C842 H850 0.930 . S
C843 C842 1.394 . S
C843 C844 1.383 . S
C843 H851 0.929 . S
C844 C843 1.383 . S
C844 C845 1.377 . S
C845 H829 0.930 . S
C845 C844 1.377 . S
C845 C846 1.379 . S
C846 H830 0.931 . S
C846 C840 1.383 . S
C846 C845 1.379 . S
H847 C841 0.959 . S
H848 C841 0.961 . S
H849 C841 0.960 . S
H850 C842 0.930 . S
H851 C843 0.929 . S
H852 C860 0.929 . S
H853 C862 0.930 1_455 S
H854 C864 0.930 . S
H855 C867 0.929 . S
H856 C870 0.930 . S
H857 C872 0.960 1_565 S
H858 C872 0.960 . S
H859 C872 0.960 . S
C860 H852 0.929 . S
C860 C861 1.377 . S
C860 C862 1.384 . S
C861 C860 1.377 . S
C861 C867 1.390 . S
C862 H853 0.930 1_655 S
C862 C860 1.384 . S
C862 C863 1.372 . S
C863 C862 1.372 . S
C863 C864 1.400 . S
C863 C868 1.490 . S
C864 H854 0.930 . S
C864 C863 1.400 . S
C864 C867 1.386 . S
H865 C881 0.930 . S
H866 C882 0.931 . S
C867 H855 0.929 . S
C867 C861 1.390 . S
C867 C864 1.386 . S
C868 C863 1.490 . S
C868 C870 1.395 1_655 S
C868 C871 1.403 . S
H869 C875 0.930 . S
C870 H856 0.930 . S
C870 C868 1.395 1_455 S
C870 C873 1.403 1_545 S
C871 C868 1.403 . S
C871 C872 1.524 . S
C871 C875 1.400 1_545 S
C872 H857 0.960 1_545 S
C872 H858 0.960 . S
C872 H859 0.960 . S
C872 C871 1.524 . S
C873 C870 1.403 1_565 S
C873 C874 1.392 . S
C873 C877 1.495 . S
C874 C873 1.392 . S
C874 C875 1.385 1_455 S
C874 C876 1.478 . S
C875 H869 0.930 . S
C875 C871 1.400 1_565 S
C875 C874 1.385 1_655 S
C876 C874 1.478 . S
C876 C878 1.381 . S
C876 C882 1.383 . S
C877 C873 1.495 . S
C877 H883 0.959 1_565 S
C877 H884 0.961 . S
C877 H885 0.960 . S
C878 C876 1.381 . S
C878 C879 1.394 . S
C878 H886 0.930 . S
C879 C878 1.394 . S
C879 C880 1.383 . S
C879 H887 0.929 . S
C880 C879 1.383 . S
C880 C881 1.377 . S
C881 H865 0.930 . S
C881 C880 1.377 . S
C881 C882 1.379 . S
C882 H866 0.931 . S
C882 C876 1.383 . S
C882 C881 1.379 . S
H883 C877 0.959 1_545 S
H884 C877 0.961 . S
H885 C877 0.960 . S
H886 C878 0.930 . S
H887 C879 0.929 . S
H888 C896 0.929 . S
H889 C898 0.930 . S
H890 C900 0.930 . S
H891 C903 0.929 . S
H892 C906 0.930 . S
H893 C908 0.960 1_554 S
H894 C908 0.960 . S
H895 C908 0.960 . S
C896 H888 0.929 . S
C896 C897 1.377 . S
C896 C898 1.384 . S
C897 C896 1.377 . S
C897 C903 1.390 . S
C898 H889 0.930 . S
C898 C896 1.384 . S
C898 C899 1.372 . S
C899 C898 1.372 . S
C899 C900 1.400 . S
C899 C904 1.490 . S
C900 H890 0.930 . S
C900 C899 1.400 . S
C900 C903 1.386 . S
H901 C917 0.930 . S
H902 C918 0.931 . S
C903 H891 0.929 . S
C903 C897 1.390 . S
C903 C900 1.386 . S
C904 C899 1.490 . S
C904 C906 1.395 1_565 S
C904 C907 1.403 . S
H905 C911 0.930 . S
C906 H892 0.930 . S
C906 C904 1.395 1_545 S
C906 C909 1.403 1_556 S
C907 C904 1.403 . S
C907 C908 1.524 . S
C907 C911 1.400 1_556 S
C908 H893 0.960 1_556 S
C908 H894 0.960 . S
C908 H895 0.960 . S
C908 C907 1.524 . S
C909 C906 1.403 1_554 S
C909 C910 1.392 . S
C909 C913 1.495 . S
C910 C909 1.392 . S
C910 C911 1.385 1_545 S
C910 C912 1.478 . S
C911 H905 0.930 . S
C911 C907 1.400 1_554 S
C911 C910 1.385 1_565 S
C912 C910 1.478 . S
C912 C914 1.381 . S
C912 C918 1.383 . S
C913 C909 1.495 . S
C913 H919 0.959 1_554 S
C913 H920 0.961 . S
C913 H921 0.960 . S
C914 C912 1.381 . S
C914 C915 1.394 . S
C914 H922 0.930 . S
C915 C914 1.394 . S
C915 C916 1.383 . S
C915 H923 0.929 . S
C916 C915 1.383 . S
C916 C917 1.377 . S
C917 H901 0.930 . S
C917 C916 1.377 . S
C917 C918 1.379 . S
C918 H902 0.931 . S
C918 C912 1.383 . S
C918 C917 1.379 . S
H919 C913 0.959 1_556 S
H920 C913 0.961 . S
H921 C913 0.960 . S
H922 C914 0.930 . S
H923 C915 0.929 . S
H924 C932 0.929 . S
H925 C934 0.930 . S
H926 C936 0.930 . S
H927 C939 0.929 . S
H928 C942 0.930 . S
H929 C944 0.960 . S
H930 C944 0.960 . S
H931 C944 0.960 . S
C932 H924 0.929 . S
C932 C933 1.377 . S
C932 C934 1.384 . S
C933 C932 1.377 . S
C933 C939 1.390 . S
C934 H925 0.930 . S
C934 C932 1.384 . S
C934 C935 1.372 . S
C935 C934 1.372 . S
C935 C936 1.400 . S
C935 C940 1.490 . S
C936 H926 0.930 . S
C936 C935 1.400 . S
C936 C939 1.386 . S
H937 C953 0.930 . S
H938 C954 0.931 . S
C939 H927 0.929 . S
C939 C933 1.390 . S
C939 C936 1.386 . S
C940 C935 1.490 . S
C940 C942 1.395 . S
C940 C943 1.403 1_565 S
H941 C947 0.930 . S
C942 H928 0.930 . S
C942 C940 1.395 . S
C942 C945 1.403 1_554 S
C943 C940 1.403 1_545 S
C943 C944 1.524 . S
C943 C947 1.400 1_554 S
C944 H929 0.960 . S
C944 H930 0.960 . S
C944 H931 0.960 . S
C944 C943 1.524 . S
C945 C942 1.403 1_556 S
C945 C946 1.392 1_565 S
C945 C949 1.495 . S
C946 C945 1.392 1_545 S
C946 C947 1.385 . S
C946 C948 1.478 . S
C947 H941 0.930 . S
C947 C943 1.400 1_556 S
C947 C946 1.385 . S
C948 C946 1.478 . S
C948 C950 1.381 . S
C948 C954 1.383 . S
C949 C945 1.495 . S
C949 H955 0.959 . S
C949 H956 0.961 . S
C949 H957 0.960 . S
C950 C948 1.381 . S
C950 C951 1.394 . S
C950 H958 0.930 . S
C951 C950 1.394 . S
C951 C952 1.383 . S
C951 H959 0.929 . S
C952 C951 1.383 . S
C952 C953 1.377 . S
C953 H937 0.930 . S
C953 C952 1.377 . S
C953 C954 1.379 . S
C954 H938 0.931 . S
C954 C948 1.383 . S
C954 C953 1.379 . S
H955 C949 0.959 . S
H956 C949 0.961 . S
H957 C949 0.960 . S
H958 C950 0.930 . S
H959 C951 0.929 . S
H960 C968 0.929 . S
H961 C970 0.930 . S
H962 C972 0.930 . S
H963 C975 0.929 . S
H964 C978 0.930 . S
H965 C980 0.960 . S
H966 C980 0.960 . S
H967 C980 0.960 . S
C968 H960 0.929 . S
C968 C969 1.377 . S
C968 C970 1.384 . S
C969 C968 1.377 . S
C969 C975 1.390 . S
C970 H961 0.930 . S
C970 C968 1.384 . S
C970 C971 1.372 . S
C971 C970 1.372 . S
C971 C972 1.400 . S
C971 C976 1.490 . S
C972 H962 0.930 . S
C972 C971 1.400 . S
C972 C975 1.386 . S
H973 C989 0.930 . S
H974 C990 0.931 . S
C975 H963 0.929 . S
C975 C969 1.390 . S
C975 C972 1.386 . S
C976 C971 1.490 . S
C976 C978 1.395 . S
C976 C979 1.403 1_556 S
H977 C983 0.930 . S
C978 H964 0.930 . S
C978 C976 1.395 . S
C978 C981 1.403 1_655 S
C979 C976 1.403 1_554 S
C979 C980 1.524 . S
C979 C983 1.400 1_655 S
C980 H965 0.960 . S
C980 H966 0.960 . S
C980 H967 0.960 . S
C980 C979 1.524 . S
C981 C978 1.403 1_455 S
C981 C982 1.392 1_556 S
C981 C985 1.495 . S
C982 C981 1.392 1_554 S
C982 C983 1.385 . S
C982 C984 1.478 . S
C983 H977 0.930 . S
C983 C979 1.400 1_455 S
C983 C982 1.385 . S
C984 C982 1.478 . S
C984 C986 1.381 . S
C984 C990 1.383 . S
C985 C981 1.495 . S
C985 H991 0.959 . S
C985 H992 0.961 . S
C985 H993 0.960 . S
C986 C984 1.381 . S
C986 C987 1.394 . S
C986 H994 0.930 . S
C987 C986 1.394 . S
C987 C988 1.383 . S
C987 H995 0.929 . S
C988 C987 1.383 . S
C988 C989 1.377 . S
C989 H973 0.930 . S
C989 C988 1.377 . S
C989 C990 1.379 . S
C990 H974 0.931 . S
C990 C984 1.383 . S
C990 C989 1.379 . S
H991 C985 0.959 . S
H992 C985 0.961 . S
H993 C985 0.960 . S
H994 C986 0.930 . S
H995 C987 0.929 . S
H996 C1004 0.929 . S
H997 C1006 0.930 1_554 S
H998 C1008 0.930 . S
H999 C1011 0.929 . S
H1000 C1014 0.930 . S
H1001 C1016 0.960 1_655 S
H1002 C1016 0.960 . S
H1003 C1016 0.960 . S
C1004 H996 0.929 . S
C1004 C1005 1.377 . S
C1004 C1006 1.384 . S
C1005 C1004 1.377 . S
C1005 C1011 1.390 . S
C1006 H997 0.930 1_556 S
C1006 C1004 1.384 . S
C1006 C1007 1.372 . S
C1007 C1006 1.372 . S
C1007 C1008 1.400 . S
C1007 C1012 1.490 . S
C1008 H998 0.930 . S
C1008 C1007 1.400 . S
C1008 C1011 1.386 . S
H1009 C1025 0.930 . S
H1010 C1026 0.931 1_556 S
C1011 H999 0.929 . S
C1011 C1005 1.390 . S
C1011 C1008 1.386 . S
C1012 C1007 1.490 . S
C1012 C1014 1.395 1_556 S
C1012 C1015 1.403 . S
H1013 C1019 0.930 . S
C1014 H1000 0.930 . S
C1014 C1012 1.395 1_554 S
C1014 C1017 1.403 1_455 S
C1015 C1012 1.403 . S
C1015 C1016 1.524 . S
C1015 C1019 1.400 1_455 S
C1016 H1001 0.960 1_455 S
C1016 H1002 0.960 . S
C1016 H1003 0.960 . S
C1016 C1015 1.524 . S
C1017 C1014 1.403 1_655 S
C1017 C1018 1.392 . S
C1017 C1021 1.495 . S
C1018 C1017 1.392 . S
C1018 C1019 1.385 1_554 S
C1018 C1020 1.478 . S
C1019 H1013 0.930 . S
C1019 C1015 1.400 1_655 S
C1019 C1018 1.385 1_556 S
C1020 C1018 1.478 . S
C1020 C1022 1.381 . S
C1020 C1026 1.383 . S
C1021 C1017 1.495 . S
C1021 H1027 0.959 1_655 S
C1021 H1028 0.961 . S
C1021 H1029 0.960 . S
C1022 C1020 1.381 . S
C1022 C1023 1.394 . S
C1022 H1030 0.930 . S
C1023 C1022 1.394 . S
C1023 C1024 1.383 . S
C1023 H1031 0.929 . S
C1024 C1023 1.383 . S
C1024 C1025 1.377 . S
C1025 H1009 0.930 . S
C1025 C1024 1.377 . S
C1025 C1026 1.379 . S
C1026 H1010 0.931 1_554 S
C1026 C1020 1.383 . S
C1026 C1025 1.379 . S
H1027 C1021 0.959 1_455 S
H1028 C1021 0.961 . S
H1029 C1021 0.960 . S
H1030 C1022 0.930 . S
H1031 C1023 0.929 . S
C177 C48 0.916 . S
C196 C6 0.939 . S
C213 C34 0.912 . S
C232 C20 0.914 . S
C249 C76 0.911 . S
C268 C62 0.897 . S
C285 C90 0.913 . S
C304 C104 0.918 . S
C321 C132 0.911 . S
C340 C118 0.887 . S
C357 C146 0.918 . S
C376 C160 0.880 . S
C393 C9 0.934 . S
C412 C105 0.940 . S
C429 C91 0.886 . S
C448 C23 0.916 . S
C465 C77 0.906 . S
C484 C37 0.943 . S
C501 C63 0.884 . S
C520 C51 0.949 . S
C537 C65 0.932 . S
C556 C161 0.833 . S
C573 C119 0.890 . S
C592 C79 0.906 . S
C609 C147 0.883 . S
C628 C93 0.940 . S
C645 C107 0.933 . S
C664 C133 0.833 . S
C681 C35 0.885 . S
C700 C121 0.952 . S
C717 C7 0.893 . S
C736 C135 0.899 . S
C753 C149 0.935 . S
C772 C21 0.933 . S
C789 C49 0.886 . S
C808 C163 0.956 . S
C825 C8 1.454 . S
C844 C22 1.455 . S
C861 C50 1.459 . S
C880 C36 1.437 . S
C897 C92 1.458 . S
C916 C64 1.441 . S
C933 C78 1.452 . S
C952 C106 1.462 . S
C969 C148 1.455 . S
C988 C120 1.449 . S
C1005 C134 1.459 . S
C1024 C162 1.435 . S
