# Generated by pormake.
# Topology umx, (4)-cn, num edge types: 1
# Building blocks:
#     Node 0, Type 0, BuildingBlock: MUDLON_clean_sbu_0, # of connection points: 4
#     Node 1, Type 0, BuildingBlock: MUDLON_clean_sbu_0, # of connection points: 4
#     Node 2, Type 0, BuildingBlock: MUDLON_clean_sbu_0, # of connection points: 4
#     Node 3, Type 0, BuildingBlock: MUDLON_clean_sbu_0, # of connection points: 4
#     Node 4, Type 0, BuildingBlock: MUDLON_clean_sbu_0, # of connection points: 4
#     Node 5, Type 0, BuildingBlock: MUDLON_clean_sbu_0, # of connection points: 4
#     Node 6, Type 0, BuildingBlock: MUDLON_clean_sbu_0, # of connection points: 4
#     Node 7, Type 0, BuildingBlock: MUDLON_clean_sbu_0, # of connection points: 4
#     Edge 8, Type (0, 0), BuildingBlock: XUDNAN_clean_linker_2, # of connection points: 2
#     Edge 9, Type (0, 0), BuildingBlock: XUDNAN_clean_linker_2, # of connection points: 2
#     Edge 10, Type (0, 0), BuildingBlock: XUDNAN_clean_linker_2, # of connection points: 2
#     Edge 11, Type (0, 0), BuildingBlock: XUDNAN_clean_linker_2, # of connection points: 2
#     Edge 12, Type (0, 0), BuildingBlock: XUDNAN_clean_linker_2, # of connection points: 2
#     Edge 13, Type (0, 0), BuildingBlock: XUDNAN_clean_linker_2, # of connection points: 2
#     Edge 14, Type (0, 0), BuildingBlock: XUDNAN_clean_linker_2, # of connection points: 2
#     Edge 15, Type (0, 0), BuildingBlock: XUDNAN_clean_linker_2, # of connection points: 2
#     Edge 16, Type (0, 0), BuildingBlock: XUDNAN_clean_linker_2, # of connection points: 2
#     Edge 17, Type (0, 0), BuildingBlock: XUDNAN_clean_linker_2, # of connection points: 2
#     Edge 18, Type (0, 0), BuildingBlock: XUDNAN_clean_linker_2, # of connection points: 2
#     Edge 19, Type (0, 0), BuildingBlock: XUDNAN_clean_linker_2, # of connection points: 2
#     Edge 20, Type (0, 0), BuildingBlock: XUDNAN_clean_linker_2, # of connection points: 2
#     Edge 21, Type (0, 0), BuildingBlock: XUDNAN_clean_linker_2, # of connection points: 2
#     Edge 22, Type (0, 0), BuildingBlock: XUDNAN_clean_linker_2, # of connection points: 2
#     Edge 23, Type (0, 0), BuildingBlock: XUDNAN_clean_linker_2, # of connection points: 2
# Relax obj value: 0.023
# Max RMSD: 0.223
# Mean RMSD: 0.222
data_MOF--net-umx--node1-MUDLON_clean_sbu_0--edge1-XUDNAN_clean_linker_2
_symmetry_space_group_name_H-M    P1
_symmetry_Int_Tables_number       1
_symmetry_cell_setting            triclinic
loop_
_symmetry_equiv_pos_as_xyz
'x, y, z'
_cell_length_a     40.751253
_cell_length_b     40.760356
_cell_length_c     29.851307
_cell_angle_alpha  90.469927
_cell_angle_beta   90.25032
_cell_angle_gamma 90.07302
loop_
_atom_site_label
_atom_site_type_symbol
_atom_site_fract_x
_atom_site_fract_y
_atom_site_fract_z
_atom_type_partial_charge
Mg0 Mg 0.19047 0.45065 0.0401 0.0
C1 C 0.12057 0.47169 0.05921 0.0
O2 O 0.1353 0.48883 0.09087 0.0
C3 C 0.23846 0.39939 0.0577 0.0
O4 O 0.25414 0.42692 0.06646 0.0
C5 C 0.19979 0.46317 0.13746 0.0
O6 O 0.18306 0.43558 0.13679 0.0
O7 O 0.20686 0.47662 0.10036 0.0
O8 O 0.13743 0.45263 0.0345 0.0
O9 O 0.20961 0.46924 0.97714 0.0
C10 C 0.19253 0.489 0.95397 0.0
O11 O 0.16519 0.50067 0.97095 0.0
O12 O 0.20863 0.4009 0.04538 0.0
Mg13 Mg 0.55434 0.17949 0.53251 0.0
C14 C 0.54775 0.2148 0.44413 0.0
O15 O 0.5767 0.22565 0.45681 0.0
C16 C 0.53325 0.17191 0.62643 0.0
O17 O 0.55167 0.14592 0.61969 0.0
C18 C 0.60143 0.23188 0.55197 0.0
O19 O 0.57284 0.24524 0.56094 0.0
O20 O 0.60223 0.20208 0.53929 0.0
O21 O 0.53167 0.19635 0.47038 0.0
O22 O 0.55803 0.12671 0.52652 0.0
C23 C 0.5315 0.11028 0.52581 0.0
O24 O 0.50342 0.12593 0.52893 0.0
O25 O 0.52826 0.19139 0.59405 0.0
Mg26 Mg 0.8164 0.54094 1.01605 0.0
C27 C 0.88894 0.53671 0.04236 0.0
O28 O 0.87786 0.54306 0.08275 0.0
C29 C 0.76747 0.59063 0.02915 0.0
O30 O 0.75212 0.56231 0.03128 0.0
C31 C 0.80084 0.53096 0.11261 0.0
O32 O 0.80945 0.56203 0.11238 0.0
O33 O 0.80097 0.51488 0.07584 0.0
O34 O 0.86907 0.5362 1.00945 0.0
O35 O 0.79533 0.52239 0.95376 0.0
C36 C 0.80952 0.53215 0.91837 0.0
O37 O 0.83543 0.55118 0.92238 0.0
O38 O 0.79824 0.59058 1.02248 0.0
Mg39 Mg 0.45389 0.81315 0.51934 0.0
C40 C 0.45592 0.77666 0.43072 0.0
O41 O 0.42615 0.76873 0.44338 0.0
C42 C 0.46755 0.81577 0.61475 0.0
O43 O 0.44585 0.83895 0.6073 0.0
C44 C 0.40043 0.76989 0.54464 0.0
O45 O 0.42724 0.75532 0.5588 0.0
O46 O 0.40312 0.79746 0.52537 0.0
O47 O 0.47411 0.79312 0.45743 0.0
O48 O 0.46175 0.8656 0.51552 0.0
C49 C 0.49205 0.87253 0.51178 0.0
O50 O 0.51327 0.84831 0.50983 0.0
O51 O 0.47781 0.79894 0.58157 0.0
Mg52 Mg 0.18618 0.54718 0.53532 0.0
C53 C 0.22297 0.54128 0.44778 0.0
O54 O 0.23334 0.57024 0.46129 0.0
C55 C 0.18926 0.5395 0.633 0.0
O56 O 0.17063 0.56541 0.62701 0.0
C57 C 0.23159 0.60116 0.55761 0.0
O58 O 0.24611 0.57526 0.57449 0.0
O59 O 0.2039 0.59747 0.53845 0.0
O60 O 0.20474 0.52463 0.47368 0.0
O61 O 0.13313 0.54495 0.52907 0.0
C62 C 0.11657 0.5249 0.55234 0.0
O63 O 0.13169 0.50659 0.58195 0.0
O64 O 0.20048 0.52466 0.59863 0.0
Mg65 Mg 0.45529 0.17923 0.04036 0.0
C66 C 0.46938 0.19022 0.13524 0.0
O67 O 0.44478 0.16933 0.13465 0.0
C68 C 0.47425 0.17246 0.94464 0.0
O69 O 0.46501 0.1425 0.95446 0.0
C70 C 0.40465 0.2272 0.05423 0.0
O71 O 0.43275 0.24266 0.05939 0.0
O72 O 0.40518 0.19668 0.0451 0.0
O73 O 0.48072 0.20012 0.09807 0.0
O74 O 0.46267 0.12675 0.04607 0.0
C75 C 0.49296 0.11944 0.04853 0.0
O76 O 0.51463 0.14334 0.04804 0.0
O77 O 0.47371 0.1944 0.97521 0.0
Mg78 Mg 0.81076 0.46073 0.5172 0.0
C79 C 0.8833 0.4646 0.54287 0.0
O80 O 0.87217 0.46057 0.58371 0.0
C81 C 0.76262 0.4072 0.51445 0.0
O82 O 0.74649 0.43234 0.49811 0.0
C83 C 0.79449 0.45627 0.42214 0.0
O84 O 0.80601 0.42722 0.43261 0.0
O85 O 0.79234 0.47806 0.45282 0.0
O86 O 0.8634 0.46371 0.51003 0.0
O87 O 0.79819 0.48777 0.57838 0.0
C88 C 0.77238 0.48115 0.60047 0.0
O89 O 0.7507 0.46089 0.58303 0.0
O90 O 0.7926 0.41095 0.52533 0.0
Mg91 Mg 0.54927 0.81149 0.02809 0.0
C92 C 0.53421 0.80172 0.12313 0.0
O93 O 0.56145 0.81901 0.12394 0.0
C94 C 0.5158 0.81668 0.9372 0.0
O95 O 0.50959 0.84637 0.95229 0.0
C96 C 0.59773 0.75957 0.04237 0.0
O97 O 0.56956 0.74458 0.04852 0.0
O98 O 0.59755 0.78995 0.03332 0.0
O99 O 0.52161 0.79421 0.08533 0.0
O100 O 0.55251 0.8644 0.03276 0.0
C101 C 0.52718 0.88092 0.04313 0.0
O102 O 0.49947 0.86543 0.05066 0.0
O103 O 0.53039 0.79647 0.96264 0.0
H104 H 0.18068 0.44476 0.22143 0.0
H105 H 0.24111 0.51558 0.15177 0.0
H106 H 0.25716 0.54043 0.22452 0.0
H107 H 0.15029 0.49997 0.30354 0.0
H108 H 0.15026 0.47031 0.34799 0.0
H109 H 0.14539 0.45694 0.29074 0.0
H110 H 0.19508 0.41788 0.29975 0.0
H111 H 0.20022 0.4313 0.35702 0.0
H112 H 0.23397 0.43422 0.31842 0.0
H113 H 0.265 0.55868 0.30471 0.0
H114 H 0.26162 0.57115 0.38552 0.0
H115 H 0.19544 0.48867 0.40273 0.0
C116 C 0.19754 0.46532 0.22139 0.0
C117 C 0.20977 0.47814 0.18085 0.0
C118 C 0.23145 0.50532 0.18237 0.0
C119 C 0.24081 0.5195 0.22354 0.0
C120 C 0.22826 0.50623 0.26286 0.0
C121 C 0.20697 0.47984 0.26209 0.0
C122 C 0.19563 0.47126 0.30887 0.0
C123 C 0.15818 0.47485 0.31301 0.0
C124 C 0.20691 0.43661 0.32176 0.0
C125 C 0.21353 0.49725 0.33611 0.0
C126 C 0.23248 0.51695 0.30898 0.0
C127 C 0.25039 0.54331 0.32628 0.0
C128 C 0.24831 0.55016 0.37231 0.0
C129 C 0.22832 0.53086 0.40062 0.0
C130 C 0.21122 0.50369 0.38219 0.0
H131 H 0.52655 0.12888 0.69502 0.0
H132 H 0.51277 0.23121 0.66097 0.0
H133 H 0.4971 0.24335 0.73955 0.0
H134 H 0.45801 0.12347 0.77124 0.0
H135 H 0.47924 0.09599 0.80843 0.0
H136 H 0.48881 0.09593 0.7496 0.0
H137 H 0.55006 0.10642 0.76882 0.0
H138 H 0.54063 0.10689 0.82768 0.0
H139 H 0.56117 0.14144 0.80295 0.0
H140 H 0.48599 0.24426 0.82395 0.0
H141 H 0.47473 0.23281 0.90391 0.0
H142 H 0.49401 0.12952 0.87996 0.0
C143 C 0.52005 0.15384 0.70396 0.0
C144 C 0.52096 0.17914 0.67199 0.0
C145 C 0.51206 0.21142 0.68495 0.0
C146 C 0.50334 0.21856 0.72952 0.0
C147 C 0.50329 0.19305 0.76043 0.0
C148 C 0.51096 0.16125 0.74793 0.0
C149 C 0.50864 0.13804 0.78702 0.0
C150 C 0.48209 0.11182 0.77856 0.0
C151 C 0.54212 0.12229 0.7972 0.0
C152 C 0.49866 0.1617 0.82372 0.0
C153 C 0.49598 0.1934 0.80803 0.0
C154 C 0.48778 0.21947 0.83644 0.0
C155 C 0.48162 0.21279 0.88181 0.0
C156 C 0.48333 0.18028 0.89802 0.0
C157 C 0.49223 0.1546 0.8685 0.0
H158 H 0.79672 0.51553 0.37864 0.0
H159 H 0.77585 0.41206 0.35854 0.0
H160 H 0.76988 0.42103 0.27734 0.0
H161 H 0.74219 0.54688 0.28755 0.0
H162 H 0.7712 0.5782 0.27216 0.0
H163 H 0.76896 0.56468 0.32942 0.0
H164 H 0.83107 0.55118 0.32804 0.0
H165 H 0.83345 0.56437 0.2708 0.0
H166 H 0.84667 0.52368 0.28561 0.0
H167 H 0.77208 0.43968 0.19793 0.0
H168 H 0.78196 0.4671 0.12572 0.0
H169 H 0.80234 0.5583 0.19679 0.0
C170 C 0.7899 0.49503 0.35724 0.0
C171 C 0.78645 0.46316 0.37484 0.0
C172 C 0.77849 0.4367 0.3457 0.0
C173 C 0.77495 0.44155 0.29954 0.0
C174 C 0.7795 0.47303 0.28295 0.0
C175 C 0.78663 0.49939 0.31085 0.0
C176 C 0.79322 0.53006 0.28395 0.0
C177 C 0.76734 0.55652 0.29386 0.0
C178 C 0.82818 0.54307 0.29262 0.0
C179 C 0.78954 0.51657 0.2367 0.0
C180 C 0.78123 0.48373 0.23687 0.0
C181 C 0.77816 0.46552 0.19731 0.0
C182 C 0.78392 0.48127 0.15646 0.0
C183 C 0.79284 0.51485 0.15551 0.0
C184 C 0.7953 0.53267 0.19627 0.0
H185 H 0.4808 0.85241 0.87635 0.0
H186 H 0.53668 0.76244 0.89001 0.0
H187 H 0.53018 0.75162 0.8088 0.0
H188 H 0.42298 0.82123 0.79261 0.0
H189 H 0.42136 0.85975 0.76347 0.0
H190 H 0.42924 0.85919 0.82288 0.0
H191 H 0.48281 0.89228 0.81074 0.0
H192 H 0.47528 0.89266 0.7513 0.0
H193 H 0.51339 0.87663 0.77272 0.0
H194 H 0.52024 0.75274 0.72435 0.0
H195 H 0.50449 0.76394 0.64563 0.0
H196 H 0.45472 0.85264 0.68917 0.0
C197 C 0.49139 0.83022 0.86245 0.0
C198 C 0.50927 0.8083 0.88958 0.0
C199 C 0.52274 0.77955 0.86995 0.0
C200 C 0.51927 0.77324 0.82381 0.0
C201 C 0.50204 0.79576 0.79787 0.0
C202 C 0.488 0.82347 0.81667 0.0
C203 C 0.47103 0.84408 0.78166 0.0
C204 C 0.43396 0.84617 0.7907 0.0
C205 C 0.48657 0.87843 0.77896 0.0
C206 C 0.4781 0.82395 0.74005 0.0
C207 C 0.49602 0.79616 0.74988 0.0
C208 C 0.50599 0.77431 0.71636 0.0
C209 C 0.49707 0.78093 0.67175 0.0
C210 C 0.47831 0.80909 0.66123 0.0
C211 C 0.46891 0.83079 0.69601 0.0
H212 H 0.81753 0.51458 0.65235 0.0
H213 H 0.72098 0.46956 0.65686 0.0
H214 H 0.71903 0.47928 0.73845 0.0
H215 H 0.84743 0.48086 0.75176 0.0
H216 H 0.87018 0.51669 0.76943 0.0
H217 H 0.86287 0.50914 0.71074 0.0
H218 H 0.83581 0.56633 0.70309 0.0
H219 H 0.84341 0.57425 0.76169 0.0
H220 H 0.80235 0.57744 0.73947 0.0
H221 H 0.72974 0.48928 0.82075 0.0
H222 H 0.75082 0.50265 0.89662 0.0
H223 H 0.83984 0.54169 0.83795 0.0
C224 C 0.79565 0.50742 0.67028 0.0
C225 C 0.76938 0.49137 0.64807 0.0
C226 C 0.7414 0.48199 0.67301 0.0
C227 C 0.74006 0.48734 0.71945 0.0
C228 C 0.76679 0.50231 0.7405 0.0
C229 C 0.79388 0.51261 0.71665 0.0
C230 C 0.81986 0.52695 0.74752 0.0
C231 C 0.85197 0.50722 0.74468 0.0
C232 C 0.82569 0.56341 0.73733 0.0
C233 C 0.80338 0.52261 0.79246 0.0
C234 C 0.77278 0.50836 0.78776 0.0
C235 C 0.75352 0.5008 0.82481 0.0
C236 C 0.76575 0.50832 0.86777 0.0
C237 C 0.79689 0.52333 0.87324 0.0
C238 C 0.81582 0.53047 0.83494 0.0
H239 H 0.55349 0.81827 0.20821 0.0
H240 H 0.48036 0.76193 0.13444 0.0
H241 H 0.45501 0.74542 0.206 0.0
H242 H 0.56224 0.76257 0.30221 0.0
H243 H 0.56665 0.79541 0.3426 0.0
H244 H 0.58011 0.8011 0.28576 0.0
H245 H 0.54308 0.8525 0.27899 0.0
H246 H 0.52969 0.84709 0.33581 0.0
H247 H 0.49991 0.84912 0.2911 0.0
H248 H 0.43623 0.73733 0.28571 0.0
H249 H 0.42395 0.74025 0.36655 0.0
H250 H 0.50967 0.8019 0.38768 0.0
C251 C 0.53231 0.80221 0.20698 0.0
C252 C 0.51896 0.7913 0.16567 0.0
C253 C 0.49103 0.77057 0.16567 0.0
C254 C 0.47656 0.76097 0.20614 0.0
C255 C 0.49036 0.77224 0.24627 0.0
C256 C 0.51758 0.79248 0.24693 0.0
C257 C 0.52676 0.80255 0.2943 0.0
C258 C 0.56097 0.78963 0.30695 0.0
C259 C 0.52472 0.84003 0.30039 0.0
C260 C 0.50015 0.78524 0.32027 0.0
C261 C 0.47956 0.76764 0.29202 0.0
C262 C 0.45234 0.75081 0.30815 0.0
C263 C 0.44559 0.7526 0.35417 0.0
C264 C 0.46591 0.77118 0.38356 0.0
C265 C 0.49389 0.78713 0.36629 0.0
H266 H 0.1621 0.53144 0.8966 0.0
H267 H 0.24071 0.45987 0.90321 0.0
H268 H 0.24975 0.46576 0.82181 0.0
H269 H 0.12878 0.50521 0.79373 0.0
H270 H 0.11899 0.54579 0.77428 0.0
H271 H 0.1203 0.53766 0.83342 0.0
H272 H 0.16284 0.58435 0.84496 0.0
H273 H 0.16141 0.59286 0.78586 0.0
H274 H 0.20011 0.58412 0.81265 0.0
H275 H 0.24699 0.47649 0.73783 0.0
H276 H 0.23519 0.49416 0.66014 0.0
H277 H 0.1593 0.55926 0.71015 0.0
C278 C 0.18157 0.51733 0.88116 0.0
C279 C 0.2007 0.4952 0.90639 0.0
C280 C 0.22582 0.47712 0.88469 0.0
C281 C 0.23108 0.48021 0.8384 0.0
C282 C 0.21122 0.50171 0.81435 0.0
C283 C 0.18725 0.52025 0.83517 0.0
C284 C 0.16867 0.54102 0.80183 0.0
C285 C 0.13202 0.53185 0.80076 0.0
C286 C 0.17357 0.57776 0.81193 0.0
C287 C 0.18558 0.53096 0.75885 0.0
C288 C 0.21003 0.50822 0.76659 0.0
C289 C 0.22812 0.49455 0.7315 0.0
C290 C 0.22118 0.50461 0.68748 0.0
C291 C 0.19647 0.52821 0.67906 0.0
C292 C 0.17857 0.54142 0.71541 0.0
H293 H 0.49703 0.18427 0.39929 0.0
H294 H 0.57386 0.25702 0.38314 0.0
H295 H 0.56004 0.26129 0.30286 0.0
H296 H 0.51126 0.14234 0.2991 0.0
H297 H 0.46875 0.13378 0.28679 0.0
H298 H 0.48198 0.13913 0.34396 0.0
H299 H 0.43904 0.18526 0.35537 0.0
H300 H 0.42542 0.17983 0.29827 0.0
H301 H 0.43856 0.2197 0.31786 0.0
H302 H 0.54131 0.25379 0.22278 0.0
H303 H 0.51752 0.2365 0.14989 0.0
H304 H 0.45314 0.16879 0.21878 0.0
C305 C 0.51043 0.20168 0.37914 0.0
C306 C 0.53645 0.2204 0.39759 0.0
C307 C 0.55378 0.24246 0.36981 0.0
C308 C 0.5461 0.24508 0.32413 0.0
C309 C 0.52095 0.22559 0.30672 0.0
C310 C 0.50317 0.20452 0.33344 0.0
C311 C 0.47864 0.18487 0.30601 0.0
C312 C 0.4856 0.14785 0.30916 0.0
C313 C 0.44332 0.19291 0.32022 0.0
C314 C 0.48587 0.19769 0.25962 0.0
C315 C 0.51021 0.22128 0.26068 0.0
C316 C 0.52195 0.23561 0.22159 0.0
C317 C 0.50839 0.22556 0.18034 0.0
C318 C 0.48341 0.20139 0.17859 0.0
C319 C 0.47202 0.18751 0.21891 0.0
H320 H 0.94006 0.54072 0.10257 0.0
H321 H 0.91563 0.50912 0.96715 0.0
H322 H 0.97183 0.488 0.95755 0.0
H323 H 0.02307 0.56718 0.07746 0.0
H324 H 0.03943 0.55347 0.13028 0.0
H325 H 0.99726 0.56635 0.12633 0.0
H326 H 0.97861 0.5104 0.15814 0.0
H327 H 0.0207 0.49722 0.16176 0.0
H328 H 0.99129 0.473 0.13061 0.0
H329 H 0.02964 0.46786 0.96375 0.0
H330 H 0.08716 0.45492 0.98275 0.0
H331 H 0.07482 0.50143 0.11297 0.0
C332 C 0.94659 0.52955 0.0708 0.0
C333 C 0.9234 0.52651 0.03567 0.0
C334 C 0.93297 0.51183 0.99454 0.0
C335 C 0.9648 0.49961 0.9888 0.0
C336 C 0.98688 0.50252 1.02432 0.0
C337 C 0.97838 0.51752 0.0643 0.0
C338 C 0.007 0.51794 0.09687 0.0
C339 C 0.0173 0.55334 0.10839 0.0
C340 C 0.9989 0.49847 0.13935 0.0
C341 C 0.0328 0.50066 0.069 0.0
C342 C 0.02058 0.49171 0.02742 0.0
C343 C 0.03958 0.47491 0.9961 0.0
C344 C 0.07216 0.46751 1.0073 0.0
C345 C 0.08547 0.47722 0.04929 0.0
C346 C 0.06537 0.49382 0.08055 0.0
H347 H 0.45575 0.92931 0.5198 0.0
H348 H 0.55523 0.89335 0.50252 0.0
H349 H 0.57591 0.95011 0.5035 0.0
H350 H 0.46448 0.00127 0.45029 0.0
H351 H 0.43947 0.0268 0.48595 0.0
H352 H 0.43222 0.98322 0.48312 0.0
H353 H 0.43901 0.97958 0.56931 0.0
H354 H 0.44636 0.02312 0.57238 0.0
H355 H 0.47599 0.99503 0.59536 0.0
H356 H 0.58622 0.01042 0.50799 0.0
H357 H 0.5852 0.07081 0.51448 0.0
H358 H 0.47918 0.0679 0.52841 0.0
C359 C 0.48185 0.93339 0.51598 0.0
C360 C 0.50384 0.90685 0.51106 0.0
C361 C 0.53785 0.91324 0.50634 0.0
C362 C 0.54989 0.94542 0.50685 0.0
C363 C 0.52763 0.971 0.51203 0.0
C364 C 0.49433 0.96543 0.5164 0.0
C365 C 0.4758 0.99739 0.52196 0.0
C366 C 0.45156 0.00246 0.483 0.0
C367 C 0.45826 0.99886 0.56746 0.0
C368 C 0.50392 0.02169 0.52018 0.0
C369 C 0.5336 0.00593 0.51445 0.0
C370 C 0.56312 0.0231 0.51233 0.0
C371 C 0.56229 0.05739 0.5161 0.0
C372 C 0.53213 0.0741 0.52186 0.0
C373 C 0.50263 0.05588 0.52388 0.0
H374 H 0.07134 0.49616 0.60718 0.0
H375 H 0.08206 0.54238 0.47755 0.0
H376 H 0.02383 0.53066 0.46054 0.0
H377 H 0.01737 0.43171 0.57287 0.0
H378 H 0.99272 0.43323 0.62283 0.0
H379 H 0.0352 0.44537 0.62518 0.0
H380 H 0.01869 0.50199 0.65809 0.0
H381 H 0.97617 0.48991 0.65624 0.0
H382 H 0.98921 0.52683 0.62861 0.0
H383 H 0.9656 0.51138 0.45602 0.0
H384 H 0.9092 0.49131 0.46726 0.0
H385 H 0.93535 0.46002 0.60148 0.0
C386 C 0.06138 0.50394 0.5753 0.0
C387 C 0.08121 0.52006 0.54357 0.0
C388 C 0.06726 0.5301 0.50238 0.0
C389 C 0.03428 0.5234 0.49233 0.0
C390 C 0.01554 0.50704 0.52407 0.0
C391 C 0.0284 0.49789 0.56499 0.0
C392 C 0.00271 0.48131 0.5936 0.0
C393 C 0.0126 0.4458 0.60423 0.0
C394 C 0.99632 0.5012 0.63668 0.0
C395 C 0.97347 0.48231 0.56217 0.0
C396 C 0.98154 0.49696 0.52209 0.0
C397 C 0.9589 0.50008 0.48737 0.0
C398 C 0.92696 0.48843 0.49403 0.0
C399 C 0.91783 0.47417 0.53531 0.0
C400 C 0.94155 0.47093 0.56965 0.0
H401 H 0.47564 0.92401 0.04877 0.0
H402 H 0.582 0.91965 0.04216 0.0
H403 H 0.58453 0.98013 0.04489 0.0
H404 H 0.4665 0.99392 0.97812 0.0
H405 H 0.43277 0.01108 1.00932 0.0
H406 H 0.43925 0.96739 1.00857 0.0
H407 H 0.44149 0.96725 0.09535 0.0
H408 H 0.43502 0.01096 0.09638 0.0
H409 H 0.47025 0.9937 0.12422 0.0
H410 H 0.5757 0.04061 0.04769 0.0
H411 H 0.55617 0.09771 0.0481 0.0
H412 H 0.4553 0.06321 0.05129 0.0
C413 C 0.49949 0.93575 0.0482 0.0
C414 C 0.52865 0.91712 0.04543 0.0
C415 C 0.55934 0.93343 0.04427 0.0
C416 C 0.56104 0.96776 0.0459 0.0
C417 C 0.53184 0.98537 0.04848 0.0
C418 C 0.50163 0.97001 0.04946 0.0
C419 C 0.47394 0.99479 0.05096 0.0
C420 C 0.45182 0.9916 1.00926 0.0
C421 C 0.45401 0.99147 0.09431 0.0
C422 C 0.49334 0.02651 0.05061 0.0
C423 C 0.52669 0.02044 0.0494 0.0
C424 C 0.54966 0.0457 0.04866 0.0
C425 C 0.53827 0.07807 0.04893 0.0
C426 C 0.50418 0.08497 0.04971 0.0
C427 C 0.48149 0.05875 0.05072 0.0
H428 H 0.30152 0.38987 0.08465 0.0
H429 H 0.21583 0.33768 0.03464 0.0
H430 H 0.24783 0.28601 0.03338 0.0
H431 H 0.35892 0.34997 1.01756 0.0
H432 H 0.39071 0.34954 0.05972 0.0
H433 H 0.36006 0.38121 0.06066 0.0
H434 H 0.34496 0.36591 0.14218 0.0
H435 H 0.3757 0.33418 0.14155 0.0
H436 H 0.33378 0.32421 0.15488 0.0
H437 H 0.29138 0.24065 0.0328 0.0
H438 H 0.3419 0.20673 0.0324 0.0
H439 H 0.39757 0.29023 0.08247 0.0
C440 C 0.28922 0.36756 0.07397 0.0
C441 C 0.25617 0.3678 0.05978 0.0
C442 C 0.24114 0.33803 0.04582 0.0
C443 C 0.25911 0.30858 0.04504 0.0
C444 C 0.29192 0.30939 0.05859 0.0
C445 C 0.30669 0.33818 0.07299 0.0
C446 C 0.34259 0.33327 0.08357 0.0
C447 C 0.36433 0.35476 0.05358 0.0
C448 C 0.34966 0.33977 0.13352 0.0
C449 C 0.34606 0.29735 0.07197 0.0
C450 C 0.31662 0.28374 0.05803 0.0
C451 C 0.31447 0.25103 0.04405 0.0
C452 C 0.34324 0.23195 0.04394 0.0
C453 C 0.37365 0.24585 0.05734 0.0
C454 C 0.37474 0.27882 0.07202 0.0
H455 H 0.69701 0.39952 0.52392 0.0
H456 H 0.78851 0.34529 0.52447 0.0
H457 H 0.75755 0.29367 0.53687 0.0
H458 H 0.65789 0.35322 0.61142 0.0
H459 H 0.61789 0.35594 0.58572 0.0
H460 H 0.64757 0.38807 0.57735 0.0
H461 H 0.642 0.38063 0.49126 0.0
H462 H 0.61229 0.34856 0.49936 0.0
H463 H 0.64851 0.34067 0.46655 0.0
H464 H 0.71515 0.24758 0.5444 0.0
H465 H 0.66595 0.21203 0.55055 0.0
H466 H 0.60387 0.29841 0.54929 0.0
C467 C 0.71062 0.37681 0.52659 0.0
C468 C 0.74508 0.37623 0.52285 0.0
C469 C 0.76204 0.34613 0.52721 0.0
C470 C 0.74467 0.31678 0.5342 0.0
C471 C 0.71054 0.31824 0.53748 0.0
C472 C 0.69383 0.34762 0.53426 0.0
C473 C 0.65727 0.34301 0.53912 0.0
C474 C 0.64441 0.36113 0.5809 0.0
C475 C 0.63896 0.35385 0.49654 0.0
C476 C 0.65578 0.3063 0.54485 0.0
C477 C 0.68664 0.29228 0.54365 0.0
C478 C 0.69093 0.25837 0.54596 0.0
C479 C 0.66291 0.2384 0.54938 0.0
C480 C 0.63118 0.25252 0.55089 0.0
C481 C 0.6278 0.28689 0.54901 0.0
H482 H 0.70305 0.59664 0.05081 0.0
H483 H 0.78917 0.65407 1.0174 0.0
H484 H 0.75581 0.70483 1.02148 0.0
H485 H 0.64663 0.64076 0.9863 0.0
H486 H 0.61361 0.6372 0.02595 0.0
H487 H 0.64492 0.60618 1.02351 0.0
H488 H 0.65718 0.61491 0.1081 0.0
H489 H 0.62583 0.64597 0.11084 0.0
H490 H 0.66709 0.65543 0.12873 0.0
H491 H 0.7114 0.74889 0.02482 0.0
H492 H 0.66049 0.78195 0.02738 0.0
H493 H 0.6048 0.69436 0.05903 0.0
C494 C 0.7151 0.61987 0.04472 0.0
C495 C 0.74869 0.62144 0.03373 0.0
C496 C 0.76343 0.65236 0.02598 0.0
C497 C 0.7447 0.68127 0.02826 0.0
C498 C 0.71144 0.67872 0.03866 0.0
C499 C 0.6969 0.64875 0.04698 0.0
C500 C 0.6606 0.65216 0.05581 0.0
C501 C 0.64026 0.63295 1.0208 0.0
C502 C 0.6522 0.64149 0.10372 0.0
C503 C 0.6567 0.68872 0.05032 0.0
C504 C 0.68623 0.70377 0.04072 0.0
C505 C 0.68821 0.73737 0.0327 0.0
C506 C 0.65919 0.75593 0.03419 0.0
C507 C 0.62868 0.74074 0.04346 0.0
C508 C 0.6277 0.70678 0.05205 0.0
H509 H 0.38839 0.71315 0.58873 0.0
H510 H 0.34089 0.78699 0.50716 0.0
H511 H 0.28966 0.7541 0.50731 0.0
H512 H 0.35558 0.64559 0.53376 0.0
H513 H 0.35134 0.62098 0.58329 0.0
H514 H 0.38241 0.65226 0.58115 0.0
H515 H 0.35919 0.67906 0.65343 0.0
H516 H 0.32803 0.64772 0.65591 0.0
H517 H 0.31647 0.69039 0.65563 0.0
H518 H 0.24537 0.7097 0.51063 0.0
H519 H 0.21269 0.65864 0.51689 0.0
H520 H 0.29055 0.61525 0.59631 0.0
C521 C 0.3671 0.72281 0.57149 0.0
C522 C 0.3686 0.75266 0.54798 0.0
C523 C 0.34021 0.76425 0.52562 0.0
C524 C 0.31104 0.74574 0.52555 0.0
C525 C 0.31071 0.71595 0.54831 0.0
C526 C 0.33803 0.70478 0.57112 0.0
C527 C 0.33245 0.67111 0.59045 0.0
C528 C 0.35688 0.64602 0.57098 0.0
C529 C 0.33412 0.67215 0.64191 0.0
C530 C 0.29794 0.66457 0.57408 0.0
C531 C 0.28556 0.69073 0.55019 0.0
C532 C 0.2547 0.68928 0.52979 0.0
C533 C 0.23633 0.6602 0.5335 0.0
C534 C 0.24904 0.63299 0.55717 0.0
C535 C 0.28 0.63563 0.57822 0.0
loop_
_geom_bond_atom_site_label_1
_geom_bond_atom_site_label_2
_geom_bond_distance
_geom_bond_site_symmetry_2
_ccdc_geom_bond_type
Mg0 O7 2.141 . S
Mg0 O8 2.048 . S
Mg0 O9 2.048 1_554 S
Mg0 O12 2.141 . S
C1 O2 1.313 . S
C1 O8 1.195 . S
O2 C1 1.313 . S
C3 O4 1.245 . S
C3 O12 1.289 . S
O4 C3 1.245 . S
C5 O6 1.245 . S
C5 O7 1.289 . S
O6 C5 1.245 . S
O7 Mg0 2.141 . S
O7 C5 1.289 . S
O8 Mg0 2.048 . S
O8 C1 1.195 . S
O9 Mg0 2.048 1_556 S
O9 C10 1.195 . S
C10 O9 1.195 . S
C10 O11 1.313 . S
O11 C10 1.313 . S
O12 Mg0 2.141 . S
O12 C3 1.289 . S
Mg13 O20 2.141 . S
Mg13 O21 2.048 . S
Mg13 O22 2.048 . S
Mg13 O25 2.141 . S
C14 O15 1.313 . S
C14 O21 1.195 . S
O15 C14 1.313 . S
C16 O17 1.245 . S
C16 O25 1.289 . S
O17 C16 1.245 . S
C18 O19 1.245 . S
C18 O20 1.289 . S
O19 C18 1.245 . S
O20 Mg13 2.141 . S
O20 C18 1.289 . S
O21 Mg13 2.048 . S
O21 C14 1.195 . S
O22 Mg13 2.048 . S
O22 C23 1.195 . S
C23 O22 1.195 . S
C23 O24 1.313 . S
O24 C23 1.313 . S
O25 Mg13 2.141 . S
O25 C16 1.289 . S
Mg26 O33 2.141 . S
Mg26 O34 2.048 . S
Mg26 O35 2.048 1_554 S
Mg26 O38 2.141 . S
C27 O28 1.313 . S
C27 O34 1.195 . S
O28 C27 1.313 . S
C29 O30 1.245 . S
C29 O38 1.289 . S
O30 C29 1.245 . S
C31 O32 1.245 . S
C31 O33 1.289 . S
O32 C31 1.245 . S
O33 Mg26 2.141 . S
O33 C31 1.289 . S
O34 Mg26 2.048 . S
O34 C27 1.195 . S
O35 Mg26 2.048 1_556 S
O35 C36 1.195 . S
C36 O35 1.195 . S
C36 O37 1.313 . S
O37 C36 1.313 . S
O38 Mg26 2.141 . S
O38 C29 1.289 . S
Mg39 O46 2.141 . S
Mg39 O47 2.048 . S
Mg39 O48 2.048 . S
Mg39 O51 2.141 . S
C40 O41 1.313 . S
C40 O47 1.195 . S
O41 C40 1.313 . S
C42 O43 1.245 . S
C42 O51 1.289 . S
O43 C42 1.245 . S
C44 O45 1.245 . S
C44 O46 1.289 . S
O45 C44 1.245 . S
O46 Mg39 2.141 . S
O46 C44 1.289 . S
O47 Mg39 2.048 . S
O47 C40 1.195 . S
O48 Mg39 2.048 . S
O48 C49 1.195 . S
C49 O48 1.195 . S
C49 O50 1.313 . S
O50 C49 1.313 . S
O51 Mg39 2.141 . S
O51 C42 1.289 . S
Mg52 O59 2.141 . S
Mg52 O60 2.048 . S
Mg52 O61 2.048 . S
Mg52 O64 2.141 . S
C53 O54 1.313 . S
C53 O60 1.195 . S
O54 C53 1.313 . S
C55 O56 1.245 . S
C55 O64 1.289 . S
O56 C55 1.245 . S
C57 O58 1.245 . S
C57 O59 1.289 . S
O58 C57 1.245 . S
O59 Mg52 2.141 . S
O59 C57 1.289 . S
O60 Mg52 2.048 . S
O60 C53 1.195 . S
O61 Mg52 2.048 . S
O61 C62 1.195 . S
C62 O61 1.195 . S
C62 O63 1.313 . S
O63 C62 1.313 . S
O64 Mg52 2.141 . S
O64 C55 1.289 . S
Mg65 O72 2.141 . S
Mg65 O73 2.048 . S
Mg65 O74 2.048 . S
Mg65 O77 2.141 1_554 S
C66 O67 1.313 . S
C66 O73 1.195 . S
O67 C66 1.313 . S
C68 O69 1.245 . S
C68 O77 1.289 . S
O69 C68 1.245 . S
C70 O71 1.245 . S
C70 O72 1.289 . S
O71 C70 1.245 . S
O72 Mg65 2.141 . S
O72 C70 1.289 . S
O73 Mg65 2.048 . S
O73 C66 1.195 . S
O74 Mg65 2.048 . S
O74 C75 1.195 . S
C75 O74 1.195 . S
C75 O76 1.313 . S
O76 C75 1.313 . S
O77 Mg65 2.141 1_556 S
O77 C68 1.289 . S
Mg78 O85 2.141 . S
Mg78 O86 2.048 . S
Mg78 O87 2.048 . S
Mg78 O90 2.141 . S
C79 O80 1.313 . S
C79 O86 1.195 . S
O80 C79 1.313 . S
C81 O82 1.245 . S
C81 O90 1.289 . S
O82 C81 1.245 . S
C83 O84 1.245 . S
C83 O85 1.289 . S
O84 C83 1.245 . S
O85 Mg78 2.141 . S
O85 C83 1.289 . S
O86 Mg78 2.048 . S
O86 C79 1.195 . S
O87 Mg78 2.048 . S
O87 C88 1.195 . S
C88 O87 1.195 . S
C88 O89 1.313 . S
O89 C88 1.313 . S
O90 Mg78 2.141 . S
O90 C81 1.289 . S
Mg91 O98 2.141 . S
Mg91 O99 2.048 . S
Mg91 O100 2.048 . S
Mg91 O103 2.141 1_554 S
C92 O93 1.313 . S
C92 O99 1.195 . S
O93 C92 1.313 . S
C94 O95 1.245 . S
C94 O103 1.289 . S
O95 C94 1.245 . S
C96 O97 1.245 . S
C96 O98 1.289 . S
O97 C96 1.245 . S
O98 Mg91 2.141 . S
O98 C96 1.289 . S
O99 Mg91 2.048 . S
O99 C92 1.195 . S
O100 Mg91 2.048 . S
O100 C101 1.195 . S
C101 O100 1.195 . S
C101 O102 1.313 . S
O102 C101 1.313 . S
O103 Mg91 2.141 1_556 S
O103 C94 1.289 . S
H104 C116 0.930 . S
H105 C118 0.930 . S
H106 C119 0.930 . S
H107 C123 0.959 . S
H108 C123 0.959 . S
H109 C123 0.961 . S
H110 C124 0.960 . S
H111 C124 0.961 . S
H112 C124 0.959 . S
H113 C127 0.929 . S
H114 C128 0.931 . S
H115 C130 0.930 . S
C116 H104 0.930 . S
C116 C117 1.399 . S
C116 C121 1.399 . S
C117 C116 1.399 . S
C117 C118 1.376 . S
C118 H105 0.930 . S
C118 C117 1.376 . S
C118 C119 1.388 . S
C119 H106 0.930 . S
C119 C118 1.388 . S
C119 C120 1.390 . S
C120 C119 1.390 . S
C120 C121 1.394 . S
C120 C126 1.465 . S
C121 C116 1.399 . S
C121 C120 1.394 . S
C121 C122 1.516 . S
C122 C121 1.516 . S
C122 C123 1.502 . S
C122 C124 1.561 . S
C122 C125 1.526 . S
C123 H107 0.959 . S
C123 H108 0.959 . S
C123 H109 0.961 . S
C123 C122 1.502 . S
C124 H110 0.960 . S
C124 H111 0.961 . S
C124 H112 0.959 . S
C124 C122 1.561 . S
C125 C122 1.526 . S
C125 C126 1.396 . S
C125 C130 1.390 . S
C126 C120 1.465 . S
C126 C125 1.396 . S
C126 C127 1.399 . S
C127 H113 0.929 . S
C127 C126 1.399 . S
C127 C128 1.385 . S
C128 H114 0.931 . S
C128 C127 1.385 . S
C128 C129 1.389 . S
C129 C128 1.389 . S
C129 C130 1.387 . S
C130 H115 0.930 . S
C130 C125 1.390 . S
C130 C129 1.387 . S
H131 C143 0.930 . S
H132 C145 0.930 . S
H133 C146 0.930 . S
H134 C150 0.959 . S
H135 C150 0.959 . S
H136 C150 0.961 . S
H137 C151 0.960 . S
H138 C151 0.961 . S
H139 C151 0.959 . S
H140 C154 0.929 . S
H141 C155 0.931 . S
H142 C157 0.930 . S
C143 H131 0.930 . S
C143 C144 1.399 . S
C143 C148 1.399 . S
C144 C143 1.399 . S
C144 C145 1.376 . S
C145 H132 0.930 . S
C145 C144 1.376 . S
C145 C146 1.388 . S
C146 H133 0.930 . S
C146 C145 1.388 . S
C146 C147 1.390 . S
C147 C146 1.390 . S
C147 C148 1.394 . S
C147 C153 1.465 . S
C148 C143 1.399 . S
C148 C147 1.394 . S
C148 C149 1.516 . S
C149 C148 1.516 . S
C149 C150 1.502 . S
C149 C151 1.561 . S
C149 C152 1.526 . S
C150 H134 0.959 . S
C150 H135 0.959 . S
C150 H136 0.961 . S
C150 C149 1.502 . S
C151 H137 0.960 . S
C151 H138 0.961 . S
C151 H139 0.959 . S
C151 C149 1.561 . S
C152 C149 1.526 . S
C152 C153 1.396 . S
C152 C157 1.390 . S
C153 C147 1.465 . S
C153 C152 1.396 . S
C153 C154 1.399 . S
C154 H140 0.929 . S
C154 C153 1.399 . S
C154 C155 1.385 . S
C155 H141 0.931 . S
C155 C154 1.385 . S
C155 C156 1.389 . S
C156 C155 1.389 . S
C156 C157 1.387 . S
C157 H142 0.930 . S
C157 C152 1.390 . S
C157 C156 1.387 . S
H158 C170 0.930 . S
H159 C172 0.930 . S
H160 C173 0.930 . S
H161 C177 0.959 . S
H162 C177 0.959 . S
H163 C177 0.961 . S
H164 C178 0.960 . S
H165 C178 0.961 . S
H166 C178 0.959 . S
H167 C181 0.929 . S
H168 C182 0.931 . S
H169 C184 0.930 . S
C170 H158 0.930 . S
C170 C171 1.399 . S
C170 C175 1.399 . S
C171 C170 1.399 . S
C171 C172 1.376 . S
C172 H159 0.930 . S
C172 C171 1.376 . S
C172 C173 1.388 . S
C173 H160 0.930 . S
C173 C172 1.388 . S
C173 C174 1.390 . S
C174 C173 1.390 . S
C174 C175 1.394 . S
C174 C180 1.465 . S
C175 C170 1.399 . S
C175 C174 1.394 . S
C175 C176 1.516 . S
C176 C175 1.516 . S
C176 C177 1.502 . S
C176 C178 1.561 . S
C176 C179 1.526 . S
C177 H161 0.959 . S
C177 H162 0.959 . S
C177 H163 0.961 . S
C177 C176 1.502 . S
C178 H164 0.960 . S
C178 H165 0.961 . S
C178 H166 0.959 . S
C178 C176 1.561 . S
C179 C176 1.526 . S
C179 C180 1.396 . S
C179 C184 1.390 . S
C180 C174 1.465 . S
C180 C179 1.396 . S
C180 C181 1.399 . S
C181 H167 0.929 . S
C181 C180 1.399 . S
C181 C182 1.385 . S
C182 H168 0.931 . S
C182 C181 1.385 . S
C182 C183 1.389 . S
C183 C182 1.389 . S
C183 C184 1.387 . S
C184 H169 0.930 . S
C184 C179 1.390 . S
C184 C183 1.387 . S
H185 C197 0.930 . S
H186 C199 0.930 . S
H187 C200 0.930 . S
H188 C204 0.959 . S
H189 C204 0.959 . S
H190 C204 0.961 . S
H191 C205 0.960 . S
H192 C205 0.961 . S
H193 C205 0.959 . S
H194 C208 0.929 . S
H195 C209 0.931 . S
H196 C211 0.930 . S
C197 H185 0.930 . S
C197 C198 1.399 . S
C197 C202 1.399 . S
C198 C197 1.399 . S
C198 C199 1.376 . S
C199 H186 0.930 . S
C199 C198 1.376 . S
C199 C200 1.388 . S
C200 H187 0.930 . S
C200 C199 1.388 . S
C200 C201 1.390 . S
C201 C200 1.390 . S
C201 C202 1.394 . S
C201 C207 1.465 . S
C202 C197 1.399 . S
C202 C201 1.394 . S
C202 C203 1.516 . S
C203 C202 1.516 . S
C203 C204 1.502 . S
C203 C205 1.561 . S
C203 C206 1.526 . S
C204 H188 0.959 . S
C204 H189 0.959 . S
C204 H190 0.961 . S
C204 C203 1.502 . S
C205 H191 0.960 . S
C205 H192 0.961 . S
C205 H193 0.959 . S
C205 C203 1.561 . S
C206 C203 1.526 . S
C206 C207 1.396 . S
C206 C211 1.390 . S
C207 C201 1.465 . S
C207 C206 1.396 . S
C207 C208 1.399 . S
C208 H194 0.929 . S
C208 C207 1.399 . S
C208 C209 1.385 . S
C209 H195 0.931 . S
C209 C208 1.385 . S
C209 C210 1.389 . S
C210 C209 1.389 . S
C210 C211 1.387 . S
C211 H196 0.930 . S
C211 C206 1.390 . S
C211 C210 1.387 . S
H212 C224 0.930 . S
H213 C226 0.930 . S
H214 C227 0.930 . S
H215 C231 0.959 . S
H216 C231 0.959 . S
H217 C231 0.961 . S
H218 C232 0.960 . S
H219 C232 0.961 . S
H220 C232 0.959 . S
H221 C235 0.929 . S
H222 C236 0.931 . S
H223 C238 0.930 . S
C224 H212 0.930 . S
C224 C225 1.399 . S
C224 C229 1.399 . S
C225 C224 1.399 . S
C225 C226 1.376 . S
C226 H213 0.930 . S
C226 C225 1.376 . S
C226 C227 1.388 . S
C227 H214 0.930 . S
C227 C226 1.388 . S
C227 C228 1.390 . S
C228 C227 1.390 . S
C228 C229 1.394 . S
C228 C234 1.465 . S
C229 C224 1.399 . S
C229 C228 1.394 . S
C229 C230 1.516 . S
C230 C229 1.516 . S
C230 C231 1.502 . S
C230 C232 1.561 . S
C230 C233 1.526 . S
C231 H215 0.959 . S
C231 H216 0.959 . S
C231 H217 0.961 . S
C231 C230 1.502 . S
C232 H218 0.960 . S
C232 H219 0.961 . S
C232 H220 0.959 . S
C232 C230 1.561 . S
C233 C230 1.526 . S
C233 C234 1.396 . S
C233 C238 1.390 . S
C234 C228 1.465 . S
C234 C233 1.396 . S
C234 C235 1.399 . S
C235 H221 0.929 . S
C235 C234 1.399 . S
C235 C236 1.385 . S
C236 H222 0.931 . S
C236 C235 1.385 . S
C236 C237 1.389 . S
C237 C236 1.389 . S
C237 C238 1.387 . S
C238 H223 0.930 . S
C238 C233 1.390 . S
C238 C237 1.387 . S
H239 C251 0.930 . S
H240 C253 0.930 . S
H241 C254 0.930 . S
H242 C258 0.959 . S
H243 C258 0.959 . S
H244 C258 0.961 . S
H245 C259 0.960 . S
H246 C259 0.961 . S
H247 C259 0.959 . S
H248 C262 0.929 . S
H249 C263 0.931 . S
H250 C265 0.930 . S
C251 H239 0.930 . S
C251 C252 1.399 . S
C251 C256 1.399 . S
C252 C251 1.399 . S
C252 C253 1.376 . S
C253 H240 0.930 . S
C253 C252 1.376 . S
C253 C254 1.388 . S
C254 H241 0.930 . S
C254 C253 1.388 . S
C254 C255 1.390 . S
C255 C254 1.390 . S
C255 C256 1.394 . S
C255 C261 1.465 . S
C256 C251 1.399 . S
C256 C255 1.394 . S
C256 C257 1.516 . S
C257 C256 1.516 . S
C257 C258 1.502 . S
C257 C259 1.561 . S
C257 C260 1.526 . S
C258 H242 0.959 . S
C258 H243 0.959 . S
C258 H244 0.961 . S
C258 C257 1.502 . S
C259 H245 0.960 . S
C259 H246 0.961 . S
C259 H247 0.959 . S
C259 C257 1.561 . S
C260 C257 1.526 . S
C260 C261 1.396 . S
C260 C265 1.390 . S
C261 C255 1.465 . S
C261 C260 1.396 . S
C261 C262 1.399 . S
C262 H248 0.929 . S
C262 C261 1.399 . S
C262 C263 1.385 . S
C263 H249 0.931 . S
C263 C262 1.385 . S
C263 C264 1.389 . S
C264 C263 1.389 . S
C264 C265 1.387 . S
C265 H250 0.930 . S
C265 C260 1.390 . S
C265 C264 1.387 . S
H266 C278 0.930 . S
H267 C280 0.930 . S
H268 C281 0.930 . S
H269 C285 0.959 . S
H270 C285 0.959 . S
H271 C285 0.961 . S
H272 C286 0.960 . S
H273 C286 0.961 . S
H274 C286 0.959 . S
H275 C289 0.929 . S
H276 C290 0.931 . S
H277 C292 0.930 . S
C278 H266 0.930 . S
C278 C279 1.399 . S
C278 C283 1.399 . S
C279 C278 1.399 . S
C279 C280 1.376 . S
C280 H267 0.930 . S
C280 C279 1.376 . S
C280 C281 1.388 . S
C281 H268 0.930 . S
C281 C280 1.388 . S
C281 C282 1.390 . S
C282 C281 1.390 . S
C282 C283 1.394 . S
C282 C288 1.465 . S
C283 C278 1.399 . S
C283 C282 1.394 . S
C283 C284 1.516 . S
C284 C283 1.516 . S
C284 C285 1.502 . S
C284 C286 1.561 . S
C284 C287 1.526 . S
C285 H269 0.959 . S
C285 H270 0.959 . S
C285 H271 0.961 . S
C285 C284 1.502 . S
C286 H272 0.960 . S
C286 H273 0.961 . S
C286 H274 0.959 . S
C286 C284 1.561 . S
C287 C284 1.526 . S
C287 C288 1.396 . S
C287 C292 1.390 . S
C288 C282 1.465 . S
C288 C287 1.396 . S
C288 C289 1.399 . S
C289 H275 0.929 . S
C289 C288 1.399 . S
C289 C290 1.385 . S
C290 H276 0.931 . S
C290 C289 1.385 . S
C290 C291 1.389 . S
C291 C290 1.389 . S
C291 C292 1.387 . S
C292 H277 0.930 . S
C292 C287 1.390 . S
C292 C291 1.387 . S
H293 C305 0.930 . S
H294 C307 0.930 . S
H295 C308 0.930 . S
H296 C312 0.959 . S
H297 C312 0.959 . S
H298 C312 0.961 . S
H299 C313 0.960 . S
H300 C313 0.961 . S
H301 C313 0.959 . S
H302 C316 0.929 . S
H303 C317 0.931 . S
H304 C319 0.930 . S
C305 H293 0.930 . S
C305 C306 1.399 . S
C305 C310 1.399 . S
C306 C305 1.399 . S
C306 C307 1.376 . S
C307 H294 0.930 . S
C307 C306 1.376 . S
C307 C308 1.388 . S
C308 H295 0.930 . S
C308 C307 1.388 . S
C308 C309 1.390 . S
C309 C308 1.390 . S
C309 C310 1.394 . S
C309 C315 1.465 . S
C310 C305 1.399 . S
C310 C309 1.394 . S
C310 C311 1.516 . S
C311 C310 1.516 . S
C311 C312 1.502 . S
C311 C313 1.561 . S
C311 C314 1.526 . S
C312 H296 0.959 . S
C312 H297 0.959 . S
C312 H298 0.961 . S
C312 C311 1.502 . S
C313 H299 0.960 . S
C313 H300 0.961 . S
C313 H301 0.959 . S
C313 C311 1.561 . S
C314 C311 1.526 . S
C314 C315 1.396 . S
C314 C319 1.390 . S
C315 C309 1.465 . S
C315 C314 1.396 . S
C315 C316 1.399 . S
C316 H302 0.929 . S
C316 C315 1.399 . S
C316 C317 1.385 . S
C317 H303 0.931 . S
C317 C316 1.385 . S
C317 C318 1.389 . S
C318 C317 1.389 . S
C318 C319 1.387 . S
C319 H304 0.930 . S
C319 C314 1.390 . S
C319 C318 1.387 . S
H320 C332 0.930 . S
H321 C334 0.930 . S
H322 C335 0.930 . S
H323 C339 0.959 . S
H324 C339 0.959 1_455 S
H325 C339 0.961 . S
H326 C340 0.960 1_655 S
H327 C340 0.961 . S
H328 C340 0.959 . S
H329 C343 0.929 . S
H330 C344 0.931 . S
H331 C346 0.930 . S
C332 H320 0.930 . S
C332 C333 1.399 . S
C332 C337 1.399 . S
C333 C332 1.399 . S
C333 C334 1.376 1_554 S
C334 H321 0.930 . S
C334 C333 1.376 1_556 S
C334 C335 1.388 . S
C335 H322 0.930 . S
C335 C334 1.388 . S
C335 C336 1.390 . S
C336 C335 1.390 . S
C336 C337 1.394 1_556 S
C336 C342 1.465 1_655 S
C337 C332 1.399 . S
C337 C336 1.394 1_554 S
C337 C338 1.540 . S
C338 C337 1.540 . S
C338 C339 1.505 . S
C338 C340 1.559 1_655 S
C338 C341 1.501 1_655 S
C339 H323 0.959 . S
C339 H324 0.959 1_655 S
C339 H325 0.961 . S
C339 C338 1.505 . S
C340 H326 0.960 1_455 S
C340 H327 0.961 . S
C340 H328 0.959 . S
C340 C338 1.559 1_455 S
C341 C338 1.501 1_455 S
C341 C342 1.396 1_554 S
C341 C346 1.390 . S
C342 C336 1.465 1_455 S
C342 C341 1.396 1_556 S
C342 C343 1.399 . S
C343 H329 0.929 . S
C343 C342 1.399 . S
C343 C344 1.385 . S
C344 H330 0.931 . S
C344 C343 1.385 . S
C344 C345 1.389 1_556 S
C345 C344 1.389 1_554 S
C345 C346 1.387 . S
C346 H331 0.930 . S
C346 C341 1.390 . S
C346 C345 1.387 . S
H347 C359 0.930 . S
H348 C361 0.930 . S
H349 C362 0.930 . S
H350 C366 0.959 . S
H351 C366 0.959 1_545 S
H352 C366 0.961 . S
H353 C367 0.962 1_565 S
H354 C367 0.959 . S
H355 C367 0.958 . S
H356 C370 0.929 . S
H357 C371 0.931 . S
H358 C373 0.930 . S
C359 H347 0.930 . S
C359 C360 1.399 . S
C359 C364 1.399 . S
C360 C359 1.399 . S
C360 C361 1.376 . S
C361 H348 0.930 . S
C361 C360 1.376 . S
C361 C362 1.388 . S
C362 H349 0.930 . S
C362 C361 1.388 . S
C362 C363 1.390 . S
C363 C362 1.390 . S
C363 C364 1.394 . S
C363 C369 1.465 1_565 S
C364 C359 1.399 . S
C364 C363 1.394 . S
C364 C365 1.516 . S
C365 C364 1.516 . S
C365 C366 1.502 . S
C365 C367 1.561 1_565 S
C365 C368 1.526 1_565 S
C366 H350 0.959 . S
C366 H351 0.959 1_565 S
C366 H352 0.961 . S
C366 C365 1.502 . S
C367 H353 0.962 1_545 S
C367 H354 0.959 . S
C367 H355 0.958 . S
C367 C365 1.561 1_545 S
C368 C365 1.526 1_545 S
C368 C369 1.396 . S
C368 C373 1.390 . S
C369 C363 1.465 1_545 S
C369 C368 1.396 . S
C369 C370 1.399 . S
C370 H356 0.929 . S
C370 C369 1.399 . S
C370 C371 1.385 . S
C371 H357 0.931 . S
C371 C370 1.385 . S
C371 C372 1.389 . S
C372 C371 1.389 . S
C372 C373 1.387 . S
C373 H358 0.930 . S
C373 C368 1.390 . S
C373 C372 1.387 . S
H374 C386 0.930 . S
H375 C388 0.930 . S
H376 C389 0.930 . S
H377 C393 0.959 . S
H378 C393 0.959 . S
H379 C393 0.961 1_455 S
H380 C394 0.960 . S
H381 C394 0.961 1_655 S
H382 C394 0.959 . S
H383 C397 0.929 . S
H384 C398 0.931 . S
H385 C400 0.930 . S
C386 H374 0.930 . S
C386 C387 1.399 . S
C386 C391 1.399 . S
C387 C386 1.399 . S
C387 C388 1.376 . S
C388 H375 0.930 . S
C388 C387 1.376 . S
C388 C389 1.388 . S
C389 H376 0.930 . S
C389 C388 1.388 . S
C389 C390 1.390 . S
C390 C389 1.390 . S
C390 C391 1.394 . S
C390 C396 1.465 1_455 S
C391 C386 1.399 . S
C391 C390 1.394 . S
C391 C392 1.503 1_455 S
C392 C391 1.503 1_655 S
C392 C393 1.504 . S
C392 C394 1.560 1_655 S
C392 C395 1.539 . S
C393 H377 0.959 . S
C393 H378 0.959 . S
C393 H379 0.961 1_655 S
C393 C392 1.504 . S
C394 H380 0.960 . S
C394 H381 0.961 1_455 S
C394 H382 0.959 . S
C394 C392 1.560 1_455 S
C395 C392 1.539 . S
C395 C396 1.396 . S
C395 C400 1.390 . S
C396 C390 1.465 1_655 S
C396 C395 1.396 . S
C396 C397 1.399 . S
C397 H383 0.929 . S
C397 C396 1.399 . S
C397 C398 1.385 . S
C398 H384 0.931 . S
C398 C397 1.385 . S
C398 C399 1.389 . S
C399 C398 1.389 . S
C399 C400 1.387 . S
C400 H385 0.930 . S
C400 C395 1.390 . S
C400 C399 1.387 . S
H401 C413 0.930 . S
H402 C415 0.930 . S
H403 C416 0.930 . S
H404 C420 0.959 . S
H405 C420 0.959 1_545 S
H406 C420 0.961 . S
H407 C421 0.960 1_565 S
H408 C421 0.961 . S
H409 C421 0.959 . S
H410 C424 0.929 . S
H411 C425 0.931 . S
H412 C427 0.930 . S
C413 H401 0.930 . S
C413 C414 1.399 1_556 S
C413 C418 1.399 . S
C414 C413 1.399 1_554 S
C414 C415 1.376 . S
C415 H402 0.930 . S
C415 C414 1.376 . S
C415 C416 1.388 . S
C416 H403 0.930 . S
C416 C415 1.388 . S
C416 C417 1.390 . S
C417 C416 1.390 . S
C417 C418 1.394 1_554 S
C417 C423 1.465 1_565 S
C418 C413 1.399 . S
C418 C417 1.394 1_556 S
C418 C419 1.490 1_565 S
C419 C418 1.490 1_545 S
C419 C420 1.500 1_545 S
C419 C421 1.566 . S
C419 C422 1.552 . S
C420 H404 0.959 . S
C420 H405 0.959 1_565 S
C420 H406 0.961 . S
C420 C419 1.500 1_565 S
C421 H407 0.960 1_545 S
C421 H408 0.961 . S
C421 H409 0.959 . S
C421 C419 1.566 . S
C422 C419 1.552 . S
C422 C423 1.396 1_556 S
C422 C427 1.390 . S
C423 C417 1.465 1_545 S
C423 C422 1.396 1_554 S
C423 C424 1.399 . S
C424 H410 0.929 . S
C424 C423 1.399 . S
C424 C425 1.385 . S
C425 H411 0.931 . S
C425 C424 1.385 . S
C425 C426 1.389 . S
C426 C425 1.389 . S
C426 C427 1.387 1_554 S
C427 H412 0.930 . S
C427 C422 1.390 . S
C427 C426 1.387 1_556 S
H428 C440 0.930 . S
H429 C442 0.930 . S
H430 C443 0.930 . S
H431 C447 0.959 . S
H432 C447 0.959 . S
H433 C447 0.961 . S
H434 C448 0.960 . S
H435 C448 0.961 . S
H436 C448 0.959 . S
H437 C451 0.929 . S
H438 C452 0.931 . S
H439 C454 0.930 . S
C440 H428 0.930 . S
C440 C441 1.399 . S
C440 C445 1.399 . S
C441 C440 1.399 . S
C441 C442 1.376 1_554 S
C442 H429 0.930 . S
C442 C441 1.376 1_556 S
C442 C443 1.388 . S
C443 H430 0.930 . S
C443 C442 1.388 . S
C443 C444 1.390 . S
C444 C443 1.390 . S
C444 C445 1.394 1_556 S
C444 C450 1.465 . S
C445 C440 1.399 . S
C445 C444 1.394 1_554 S
C445 C446 1.516 . S
C446 C445 1.516 . S
C446 C447 1.502 . S
C446 C448 1.561 . S
C446 C449 1.526 . S
C447 H431 0.959 . S
C447 H432 0.959 . S
C447 H433 0.961 . S
C447 C446 1.502 . S
C448 H434 0.960 . S
C448 H435 0.961 . S
C448 H436 0.959 . S
C448 C446 1.561 . S
C449 C446 1.526 . S
C449 C450 1.396 1_554 S
C449 C454 1.390 . S
C450 C444 1.465 . S
C450 C449 1.396 1_556 S
C450 C451 1.399 . S
C451 H437 0.929 . S
C451 C450 1.399 . S
C451 C452 1.385 . S
C452 H438 0.931 . S
C452 C451 1.385 . S
C452 C453 1.389 1_556 S
C453 C452 1.389 1_554 S
C453 C454 1.387 . S
C454 H439 0.930 . S
C454 C449 1.390 . S
C454 C453 1.387 . S
H455 C467 0.930 . S
H456 C469 0.930 . S
H457 C470 0.930 . S
H458 C474 0.959 . S
H459 C474 0.959 . S
H460 C474 0.961 . S
H461 C475 0.960 . S
H462 C475 0.961 . S
H463 C475 0.959 . S
H464 C478 0.929 . S
H465 C479 0.931 . S
H466 C481 0.930 . S
C467 H455 0.930 . S
C467 C468 1.399 . S
C467 C472 1.399 . S
C468 C467 1.399 . S
C468 C469 1.376 . S
C469 H456 0.930 . S
C469 C468 1.376 . S
C469 C470 1.388 . S
C470 H457 0.930 . S
C470 C469 1.388 . S
C470 C471 1.390 . S
C471 C470 1.390 . S
C471 C472 1.394 . S
C471 C477 1.465 . S
C472 C467 1.399 . S
C472 C471 1.394 . S
C472 C473 1.516 . S
C473 C472 1.516 . S
C473 C474 1.502 . S
C473 C475 1.561 . S
C473 C476 1.526 . S
C474 H458 0.959 . S
C474 H459 0.959 . S
C474 H460 0.961 . S
C474 C473 1.502 . S
C475 H461 0.960 . S
C475 H462 0.961 . S
C475 H463 0.959 . S
C475 C473 1.561 . S
C476 C473 1.526 . S
C476 C477 1.396 . S
C476 C481 1.390 . S
C477 C471 1.465 . S
C477 C476 1.396 . S
C477 C478 1.399 . S
C478 H464 0.929 . S
C478 C477 1.399 . S
C478 C479 1.385 . S
C479 H465 0.931 . S
C479 C478 1.385 . S
C479 C480 1.389 . S
C480 C479 1.389 . S
C480 C481 1.387 . S
C481 H466 0.930 . S
C481 C476 1.390 . S
C481 C480 1.387 . S
H482 C494 0.930 . S
H483 C496 0.930 . S
H484 C497 0.930 . S
H485 C501 0.959 . S
H486 C501 0.959 . S
H487 C501 0.961 . S
H488 C502 0.960 1_556 S
H489 C502 0.961 1_556 S
H490 C502 0.959 . S
H491 C505 0.929 . S
H492 C506 0.931 . S
H493 C508 0.930 . S
C494 H482 0.930 . S
C494 C495 1.399 1_556 S
C494 C499 1.399 1_556 S
C495 C494 1.399 1_554 S
C495 C496 1.376 . S
C496 H483 0.930 . S
C496 C495 1.376 . S
C496 C497 1.388 . S
C497 H484 0.930 . S
C497 C496 1.388 . S
C497 C498 1.390 . S
C498 C497 1.390 . S
C498 C499 1.394 . S
C498 C504 1.465 . S
C499 C494 1.399 1_554 S
C499 C498 1.394 . S
C499 C500 1.516 1_554 S
C500 C499 1.516 1_556 S
C500 C501 1.502 . S
C500 C502 1.561 1_556 S
C500 C503 1.526 1_556 S
C501 H485 0.959 . S
C501 H486 0.959 . S
C501 H487 0.961 . S
C501 C500 1.502 . S
C502 H488 0.960 1_554 S
C502 H489 0.961 1_554 S
C502 H490 0.959 . S
C502 C500 1.561 1_554 S
C503 C500 1.526 1_554 S
C503 C504 1.396 . S
C503 C508 1.390 1_554 S
C504 C498 1.465 . S
C504 C503 1.396 . S
C504 C505 1.399 . S
C505 H491 0.929 . S
C505 C504 1.399 . S
C505 C506 1.385 . S
C506 H492 0.931 . S
C506 C505 1.385 . S
C506 C507 1.389 . S
C507 C506 1.389 . S
C507 C508 1.387 1_554 S
C508 H493 0.930 . S
C508 C503 1.390 1_556 S
C508 C507 1.387 1_556 S
H509 C521 0.930 . S
H510 C523 0.930 . S
H511 C524 0.930 . S
H512 C528 0.959 . S
H513 C528 0.959 . S
H514 C528 0.961 . S
H515 C529 0.960 . S
H516 C529 0.961 . S
H517 C529 0.959 . S
H518 C532 0.929 . S
H519 C533 0.931 . S
H520 C535 0.930 . S
C521 H509 0.930 . S
C521 C522 1.399 . S
C521 C526 1.399 . S
C522 C521 1.399 . S
C522 C523 1.376 . S
C523 H510 0.930 . S
C523 C522 1.376 . S
C523 C524 1.388 . S
C524 H511 0.930 . S
C524 C523 1.388 . S
C524 C525 1.390 . S
C525 C524 1.390 . S
C525 C526 1.394 . S
C525 C531 1.465 . S
C526 C521 1.399 . S
C526 C525 1.394 . S
C526 C527 1.516 . S
C527 C526 1.516 . S
C527 C528 1.502 . S
C527 C529 1.561 . S
C527 C530 1.526 . S
C528 H512 0.959 . S
C528 H513 0.959 . S
C528 H514 0.961 . S
C528 C527 1.502 . S
C529 H515 0.960 . S
C529 H516 0.961 . S
C529 H517 0.959 . S
C529 C527 1.561 . S
C530 C527 1.526 . S
C530 C531 1.396 . S
C530 C535 1.390 . S
C531 C525 1.465 . S
C531 C530 1.396 . S
C531 C532 1.399 . S
C532 H518 0.929 . S
C532 C531 1.399 . S
C532 C533 1.385 . S
C533 H519 0.931 . S
C533 C532 1.385 . S
C533 C534 1.389 . S
C534 C533 1.389 . S
C534 C535 1.387 . S
C535 H520 0.930 . S
C535 C530 1.390 . S
C535 C534 1.387 . S
C117 C5 1.522 . S
C129 C53 1.522 . S
C144 C16 1.487 . S
C156 C68 1.459 . S
C171 C83 1.505 . S
C183 C31 1.505 . S
C198 C94 1.463 . S
C210 C42 1.502 . S
C225 C88 1.638 . S
C237 C36 1.629 . S
C252 C92 1.624 . S
C264 C40 1.570 . S
C279 C10 1.624 . S
C291 C55 1.625 . S
C306 C14 1.570 . S
C318 C66 1.622 . S
C333 C27 1.960 . S
C345 C1 1.918 . S
C360 C49 2.051 . S
C372 C23 2.018 . S
C387 C62 1.909 . S
C399 C79 1.956 . S
C414 C101 2.039 . S
C426 C75 2.029 . S
C441 C3 1.835 . S
C453 C70 1.919 . S
C468 C81 1.840 . S
C480 C18 1.919 . S
C495 C29 1.834 . S
C507 C96 1.923 . S
C522 C44 1.925 . S
C534 C57 1.869 . S
