# Generated by pormake.
# Topology zfj, (5)-cn, num edge types: 1
# Building blocks:
#     Node 0, Type 0, BuildingBlock: BEQFEK_clean_sbu_0, # of connection points: 5
#     Node 1, Type 0, BuildingBlock: BEQFEK_clean_sbu_0, # of connection points: 5
#     Node 2, Type 0, BuildingBlock: BEQFEK_clean_sbu_0, # of connection points: 5
#     Node 3, Type 0, BuildingBlock: BEQFEK_clean_sbu_0, # of connection points: 5
#     Node 4, Type 0, BuildingBlock: BEQFEK_clean_sbu_0, # of connection points: 5
#     Node 5, Type 0, BuildingBlock: BEQFEK_clean_sbu_0, # of connection points: 5
#     Node 6, Type 0, BuildingBlock: BEQFEK_clean_sbu_0, # of connection points: 5
#     Node 7, Type 0, BuildingBlock: BEQFEK_clean_sbu_0, # of connection points: 5
#     Node 8, Type 0, BuildingBlock: BEQFEK_clean_sbu_0, # of connection points: 5
#     Node 9, Type 0, BuildingBlock: BEQFEK_clean_sbu_0, # of connection points: 5
#     Node 10, Type 0, BuildingBlock: BEQFEK_clean_sbu_0, # of connection points: 5
#     Node 11, Type 0, BuildingBlock: BEQFEK_clean_sbu_0, # of connection points: 5
#     Node 12, Type 0, BuildingBlock: BEQFEK_clean_sbu_0, # of connection points: 5
#     Node 13, Type 0, BuildingBlock: BEQFEK_clean_sbu_0, # of connection points: 5
#     Node 14, Type 0, BuildingBlock: BEQFEK_clean_sbu_0, # of connection points: 5
#     Node 15, Type 0, BuildingBlock: BEQFEK_clean_sbu_0, # of connection points: 5
#     Edge 16, Type (0, 0), BuildingBlock: UVAHIK_clean_linker_0, # of connection points: 2
#     Edge 17, Type (0, 0), BuildingBlock: UVAHIK_clean_linker_0, # of connection points: 2
#     Edge 18, Type (0, 0), BuildingBlock: UVAHIK_clean_linker_0, # of connection points: 2
#     Edge 19, Type (0, 0), BuildingBlock: UVAHIK_clean_linker_0, # of connection points: 2
#     Edge 20, Type (0, 0), BuildingBlock: UVAHIK_clean_linker_0, # of connection points: 2
#     Edge 21, Type (0, 0), BuildingBlock: UVAHIK_clean_linker_0, # of connection points: 2
#     Edge 22, Type (0, 0), BuildingBlock: UVAHIK_clean_linker_0, # of connection points: 2
#     Edge 23, Type (0, 0), BuildingBlock: UVAHIK_clean_linker_0, # of connection points: 2
#     Edge 24, Type (0, 0), BuildingBlock: UVAHIK_clean_linker_0, # of connection points: 2
#     Edge 25, Type (0, 0), BuildingBlock: UVAHIK_clean_linker_0, # of connection points: 2
#     Edge 26, Type (0, 0), BuildingBlock: UVAHIK_clean_linker_0, # of connection points: 2
#     Edge 27, Type (0, 0), BuildingBlock: UVAHIK_clean_linker_0, # of connection points: 2
#     Edge 28, Type (0, 0), BuildingBlock: UVAHIK_clean_linker_0, # of connection points: 2
#     Edge 29, Type (0, 0), BuildingBlock: UVAHIK_clean_linker_0, # of connection points: 2
#     Edge 30, Type (0, 0), BuildingBlock: UVAHIK_clean_linker_0, # of connection points: 2
#     Edge 31, Type (0, 0), BuildingBlock: UVAHIK_clean_linker_0, # of connection points: 2
#     Edge 32, Type (0, 0), BuildingBlock: UVAHIK_clean_linker_0, # of connection points: 2
#     Edge 33, Type (0, 0), BuildingBlock: UVAHIK_clean_linker_0, # of connection points: 2
#     Edge 34, Type (0, 0), BuildingBlock: UVAHIK_clean_linker_0, # of connection points: 2
#     Edge 35, Type (0, 0), BuildingBlock: UVAHIK_clean_linker_0, # of connection points: 2
#     Edge 36, Type (0, 0), BuildingBlock: UVAHIK_clean_linker_0, # of connection points: 2
#     Edge 37, Type (0, 0), BuildingBlock: UVAHIK_clean_linker_0, # of connection points: 2
#     Edge 38, Type (0, 0), BuildingBlock: UVAHIK_clean_linker_0, # of connection points: 2
#     Edge 39, Type (0, 0), BuildingBlock: UVAHIK_clean_linker_0, # of connection points: 2
#     Edge 40, Type (0, 0), BuildingBlock: UVAHIK_clean_linker_0, # of connection points: 2
#     Edge 41, Type (0, 0), BuildingBlock: UVAHIK_clean_linker_0, # of connection points: 2
#     Edge 42, Type (0, 0), BuildingBlock: UVAHIK_clean_linker_0, # of connection points: 2
#     Edge 43, Type (0, 0), BuildingBlock: UVAHIK_clean_linker_0, # of connection points: 2
#     Edge 44, Type (0, 0), BuildingBlock: UVAHIK_clean_linker_0, # of connection points: 2
#     Edge 45, Type (0, 0), BuildingBlock: UVAHIK_clean_linker_0, # of connection points: 2
#     Edge 46, Type (0, 0), BuildingBlock: UVAHIK_clean_linker_0, # of connection points: 2
#     Edge 47, Type (0, 0), BuildingBlock: UVAHIK_clean_linker_0, # of connection points: 2
#     Edge 48, Type (0, 0), BuildingBlock: UVAHIK_clean_linker_0, # of connection points: 2
#     Edge 49, Type (0, 0), BuildingBlock: UVAHIK_clean_linker_0, # of connection points: 2
#     Edge 50, Type (0, 0), BuildingBlock: UVAHIK_clean_linker_0, # of connection points: 2
#     Edge 51, Type (0, 0), BuildingBlock: UVAHIK_clean_linker_0, # of connection points: 2
#     Edge 52, Type (0, 0), BuildingBlock: UVAHIK_clean_linker_0, # of connection points: 2
#     Edge 53, Type (0, 0), BuildingBlock: UVAHIK_clean_linker_0, # of connection points: 2
#     Edge 54, Type (0, 0), BuildingBlock: UVAHIK_clean_linker_0, # of connection points: 2
#     Edge 55, Type (0, 0), BuildingBlock: UVAHIK_clean_linker_0, # of connection points: 2
# Relax obj value: 0.251
# Max RMSD: 0.165
# Mean RMSD: 0.165
data_MOF--net-zfj--node1-BEQFEK_clean_sbu_0--edge1-UVAHIK_clean_linker_0
_symmetry_space_group_name_H-M    P1
_symmetry_Int_Tables_number       1
_symmetry_cell_setting            triclinic
loop_
_symmetry_equiv_pos_as_xyz
'x, y, z'
_cell_length_a     44.219945
_cell_length_b     44.207474
_cell_length_c     70.041544
_cell_angle_alpha  90.038409
_cell_angle_beta   90.02973
_cell_angle_gamma 90.004231
loop_
_atom_site_label
_atom_site_type_symbol
_atom_site_fract_x
_atom_site_fract_y
_atom_site_fract_z
_atom_type_partial_charge
Co0 Co 0.52698 0.21211 0.1457 0.0
Co1 Co 0.5539 0.15019 0.13358 0.0
C2 C 0.53111 0.1927 0.10436 0.0
O3 O 0.52542 0.21139 0.11764 0.0
O4 O 0.54145 0.16651 0.10815 0.0
C5 C 0.47885 0.25232 0.14355 0.0
O6 O 0.46767 0.22996 0.13339 0.0
C7 C 0.55613 0.08624 0.12265 0.0
C8 C 0.60107 0.07309 0.13373 0.0
C9 C 0.57532 0.06169 0.12508 0.0
N10 N 0.56973 0.1108 0.12995 0.0
N11 N 0.59681 0.10293 0.13618 0.0
C12 C 0.52595 0.08687 0.11295 0.0
H13 H 0.50786 0.09099 0.12357 0.0
H14 H 0.52138 0.06539 0.10526 0.0
H15 H 0.5253 0.10597 0.10269 0.0
C16 C 0.49136 0.17327 0.1716 0.0
N17 N 0.51059 0.17672 0.15686 0.0
N18 N 0.52213 0.15025 0.15221 0.0
C19 C 0.51085 0.12911 0.16421 0.0
C20 C 0.4907 0.14296 0.17665 0.0
C21 C 0.47542 0.19891 0.18127 0.0
H22 H 0.4921 0.2165 0.18537 0.0
H23 H 0.45923 0.20926 0.1711 0.0
H24 H 0.46271 0.19138 0.19405 0.0
O25 O 0.56943 0.21793 0.15375 0.0
O26 O 0.58802 0.17404 0.14379 0.0
H27 H 0.51897 0.08859 0.18075 0.0
H28 H 0.51099 0.08248 0.15598 0.0
C29 C 0.52284 0.09755 0.16616 0.0
H30 H 0.5474 0.09703 0.16316 0.0
H31 H 0.61197 0.1177 0.14278 0.0
O32 O 0.5038 0.24847 0.15222 0.0
C33 C 0.59153 0.19982 0.15158 0.0
Co34 Co 0.27809 0.5246 0.64454 0.0
Co35 Co 0.33974 0.55388 0.63354 0.0
C36 C 0.29868 0.53048 0.60355 0.0
O37 O 0.27981 0.52351 0.61648 0.0
O38 O 0.32423 0.54194 0.60781 0.0
C39 C 0.23814 0.47529 0.64273 0.0
O40 O 0.26046 0.46351 0.63282 0.0
C41 C 0.40333 0.56049 0.62153 0.0
C42 C 0.4162 0.60201 0.63716 0.0
C43 C 0.42748 0.57967 0.62529 0.0
N44 N 0.37907 0.57079 0.63107 0.0
N45 N 0.38682 0.59585 0.64013 0.0
C46 C 0.40296 0.5334 0.60866 0.0
H47 H 0.40597 0.51254 0.61722 0.0
H48 H 0.42141 0.53472 0.59795 0.0
H49 H 0.38088 0.53171 0.60125 0.0
C50 C 0.31754 0.48881 0.67012 0.0
N51 N 0.31358 0.50877 0.65582 0.0
N52 N 0.33971 0.52136 0.65157 0.0
C53 C 0.36109 0.51012 0.66337 0.0
C54 C 0.34778 0.48892 0.67535 0.0
C55 C 0.29222 0.47289 0.68012 0.0
H56 H 0.27297 0.48865 0.68216 0.0
H57 H 0.28434 0.45383 0.67109 0.0
H58 H 0.29945 0.46384 0.69417 0.0
O59 O 0.27124 0.56679 0.6529 0.0
O60 O 0.31466 0.58718 0.64368 0.0
H61 H 0.39326 0.54597 0.66648 0.0
H62 H 0.40614 0.50997 0.67572 0.0
C63 C 0.39307 0.52114 0.6642 0.0
H64 H 0.40438 0.51633 0.65046 0.0
H65 H 0.37224 0.60835 0.64879 0.0
O66 O 0.24187 0.50084 0.6507 0.0
C67 C 0.28856 0.58962 0.65115 0.0
Co68 Co 0.96307 0.28015 0.14618 0.0
Co69 Co 0.93547 0.34127 0.13254 0.0
C70 C 0.9599 0.29784 0.10439 0.0
O71 O 0.96582 0.27971 0.11797 0.0
O72 O 0.9487 0.32387 0.10768 0.0
C73 C 0.01264 0.24034 0.14754 0.0
O74 O 0.02473 0.26123 0.1366 0.0
C75 C 0.92754 0.40345 0.11774 0.0
C76 C 0.88803 0.41818 0.13469 0.0
C77 C 0.90877 0.428 0.12128 0.0
N78 N 0.91856 0.38038 0.12887 0.0
N79 N 0.89464 0.38921 0.13871 0.0
C80 C 0.95309 0.40164 0.10375 0.0
H81 H 0.97497 0.40342 0.1114 0.0
H82 H 0.95163 0.42006 0.09303 0.0
H83 H 0.95267 0.37949 0.09635 0.0
C84 C -0.00331 0.32121 0.17197 0.0
N85 N 0.97816 0.31637 0.15701 0.0
N86 N 0.96713 0.34238 0.15111 0.0
C87 C 0.97859 0.36473 0.16209 0.0
C88 C -0.00229 0.35207 0.17572 0.0
C89 C 0.00984 0.29639 0.18391 0.0
H90 H 0.99384 0.27712 0.18468 0.0
H91 H 0.03107 0.28834 0.17717 0.0
H92 H 0.01497 0.30425 0.1986 0.0
O93 O 0.9206 0.27403 0.15367 0.0
O94 O 0.90146 0.31698 0.14269 0.0
H95 H 0.94684 0.40103 0.16434 0.0
H96 H 0.9857 0.41224 0.16849 0.0
C97 C 0.97066 0.39746 0.15991 0.0
H98 H 0.97281 0.40407 0.14478 0.0
H99 H 0.88331 0.37571 0.1486 0.0
O100 O 0.98642 0.24469 0.1544 0.0
C101 C 0.89818 0.29148 0.15085 0.0
Co102 Co 0.20931 0.96025 0.64638 0.0
Co103 Co 0.14724 0.93398 0.63353 0.0
C104 C 0.19078 0.95615 0.60478 0.0
O105 O 0.20918 0.96184 0.61824 0.0
O106 O 0.16447 0.94589 0.60829 0.0
C107 C 0.24936 0.00909 0.6459 0.0
O108 O 0.22688 0.02139 0.6364 0.0
C109 C 0.08437 0.92834 0.61965 0.0
C110 C 0.06943 0.88806 0.63579 0.0
C111 C 0.05957 0.90986 0.62307 0.0
N112 N 0.10765 0.91815 0.63019 0.0
N113 N 0.09866 0.8938 0.63954 0.0
C114 C 0.08626 0.95468 0.60626 0.0
H115 H 0.10866 0.95513 0.5992 0.0
H116 H 0.08371 0.97608 0.61435 0.0
H117 H 0.06822 0.95347 0.59526 0.0
C118 C 0.16964 -0.00334 0.67164 0.0
N119 N 0.17374 0.97712 0.6571 0.0
N120 N 0.14738 0.9661 0.6518 0.0
C121 C 0.12564 0.97811 0.66301 0.0
C122 C 0.13902 -0.00199 0.67586 0.0
C123 C 0.19489 0.01075 0.68276 0.0
H124 H 0.21387 0.9945 0.68418 0.0
H125 H 0.20324 0.03089 0.67494 0.0
H126 H 0.18732 0.01796 0.69717 0.0
O127 O 0.21446 0.91772 0.6545 0.0
O128 O 0.17063 0.89976 0.64404 0.0
H129 H 0.09078 0.9448 0.66545 0.0
H130 H 0.07909 0.98244 0.67247 0.0
C131 C 0.09299 0.96927 0.66225 0.0
H132 H 0.08414 0.97327 0.64771 0.0
H133 H 0.11228 0.88155 0.64893 0.0
O134 O 0.24574 0.98311 0.65328 0.0
C135 C 0.19612 0.89585 0.6521 0.0
Co136 Co 0.52564 0.27741 0.86878 0.0
Co137 Co 0.55221 0.34034 0.87987 0.0
C138 C 0.53093 0.29906 0.90994 0.0
O139 O 0.52498 0.2799 0.89693 0.0
O140 O 0.54105 0.32523 0.90578 0.0
C141 C 0.47616 0.23783 0.87055 0.0
O142 O 0.46401 0.26096 0.87951 0.0
C143 C 0.56166 0.40441 0.89134 0.0
C144 C 0.59767 0.41696 0.87094 0.0
C145 C 0.57934 0.42859 0.88518 0.0
N146 N 0.56893 0.37996 0.88085 0.0
N147 N 0.59077 0.38758 0.86893 0.0
C148 C 0.53878 0.4041 0.90708 0.0
H149 H 0.53853 0.38173 0.91419 0.0
H150 H 0.51594 0.40812 0.90104 0.0
H151 H 0.5438 0.42192 0.9178 0.0
C152 C 0.48895 0.31561 0.84277 0.0
N153 N 0.50867 0.31226 0.85729 0.0
N154 N 0.51939 0.33894 0.86218 0.0
C155 C 0.50674 0.36015 0.85088 0.0
C156 C 0.48706 0.34609 0.83822 0.0
C157 C 0.47512 0.28981 0.83203 0.0
H158 H 0.49132 0.2707 0.8312 0.0
H159 H 0.45471 0.28196 0.83978 0.0
H160 H 0.46835 0.29667 0.8174 0.0
O161 O 0.56782 0.27128 0.86032 0.0
O162 O 0.58581 0.31567 0.86974 0.0
H163 H 0.53796 0.39637 0.84644 0.0
H164 H 0.49889 0.40668 0.84251 0.0
C165 C 0.51444 0.3931 0.85151 0.0
H166 H 0.51293 0.40132 0.8664 0.0
H167 H 0.60036 0.3729 0.85896 0.0
O168 O 0.50224 0.24075 0.86318 0.0
C169 C 0.58968 0.28976 0.86223 0.0
Co170 Co 0.21006 0.53264 0.36747 0.0
Co171 Co 0.148 0.55785 0.38098 0.0
C172 C 0.19271 0.53526 0.40913 0.0
O173 O 0.2111 0.53002 0.3956 0.0
O174 O 0.16632 0.54541 0.40576 0.0
C175 C 0.25106 0.48475 0.36683 0.0
O176 O 0.23036 0.473 0.37806 0.0
C177 C 0.0852 0.55902 0.39472 0.0
C178 C 0.06973 0.60304 0.38337 0.0
C179 C 0.06012 0.57778 0.39332 0.0
N180 N 0.10838 0.57245 0.38568 0.0
N181 N 0.0991 0.59894 0.3792 0.0
C182 C 0.08761 0.52954 0.40513 0.0
H183 H 0.11065 0.52677 0.41112 0.0
H184 H 0.08359 0.51055 0.39512 0.0
H185 H 0.07063 0.52827 0.41677 0.0
C186 C 0.17042 0.49683 0.34198 0.0
N187 N 0.17436 0.51576 0.35685 0.0
N188 N 0.1479 0.52631 0.36233 0.0
C189 C 0.12624 0.51451 0.35092 0.0
C190 C 0.13981 0.49521 0.33783 0.0
C191 C 0.19577 0.48206 0.33131 0.0
H192 H 0.21309 0.49923 0.32759 0.0
H193 H 0.20656 0.46494 0.34065 0.0
H194 H 0.18781 0.47055 0.31817 0.0
O195 O 0.21426 0.57549 0.35981 0.0
O196 O 0.17026 0.59276 0.37045 0.0
H197 H 0.08287 0.51886 0.33677 0.0
H198 H 0.08135 0.51439 0.36222 0.0
C199 C 0.09406 0.52506 0.3504 0.0
H200 H 0.09309 0.54994 0.35217 0.0
H201 H 0.11261 0.61392 0.37148 0.0
O202 O 0.24624 0.51042 0.35928 0.0
C203 C 0.19562 0.59706 0.36232 0.0
Co204 Co 0.96214 0.2105 0.86935 0.0
Co205 Co 0.93394 0.1488 0.8809 0.0
C206 C 0.95863 0.18965 0.91046 0.0
O207 O 0.96445 0.20866 0.89738 0.0
O208 O 0.94745 0.16387 0.90644 0.0
C209 C 0.01092 0.25085 0.87088 0.0
O210 O 0.023 0.22848 0.8806 0.0
C211 C 0.93007 0.08487 0.89164 0.0
C212 C 0.88648 0.07194 0.8785 0.0
C213 C 0.91108 0.0604 0.88831 0.0
N214 N 0.91747 0.1095 0.88377 0.0
N215 N 0.89113 0.10176 0.8763 0.0
C216 C 0.95911 0.08543 0.90265 0.0
H217 H 0.97755 0.0946 0.89364 0.0
H218 H 0.96529 0.06271 0.90811 0.0
H219 H 0.95658 0.1011 0.91493 0.0
C220 C -0.00291 0.17146 0.84304 0.0
N221 N 0.97772 0.17518 0.85769 0.0
N222 N 0.9653 0.14897 0.86199 0.0
C223 C 0.97594 0.12782 0.84978 0.0
C224 C -0.0033 0.14132 0.83758 0.0
C225 C 0.0128 0.19692 0.83307 0.0
H226 H -0.00312 0.21606 0.83107 0.0
H227 H 0.03178 0.20495 0.8421 0.0
H228 H 0.02188 0.18979 0.819 0.0
O229 O 0.91958 0.21711 0.86171 0.0
O230 O 0.89994 0.17372 0.8716 0.0
H231 H 0.93968 0.09562 0.84894 0.0
H232 H 0.97288 0.08405 0.83578 0.0
C233 C 0.96474 0.09587 0.84875 0.0
H234 H 0.97307 0.08319 0.8613 0.0
H235 H 0.87688 0.1166 0.86901 0.0
O236 O 0.98536 0.24697 0.86297 0.0
C237 C 0.89695 0.1997 0.86405 0.0
Co238 Co 0.27854 0.96738 0.36949 0.0
Co239 Co 0.33937 0.93716 0.38074 0.0
C240 C 0.29807 0.96053 0.4106 0.0
O241 O 0.27947 0.96788 0.3976 0.0
O242 O 0.32359 0.94899 0.40641 0.0
C243 C 0.23889 0.01631 0.37231 0.0
O244 O 0.26083 0.02674 0.38312 0.0
C245 C 0.40287 0.93196 0.39226 0.0
C246 C 0.41528 0.88795 0.37945 0.0
C247 C 0.42695 0.91232 0.38945 0.0
N248 N 0.3783 0.91997 0.38393 0.0
N249 N 0.38572 0.89344 0.37659 0.0
C250 C 0.40275 0.96107 0.40321 0.0
H251 H 0.40483 0.9804 0.39324 0.0
H252 H 0.42181 0.96187 0.41352 0.0
H253 H 0.38104 0.96367 0.41094 0.0
C254 C 0.31861 0.00254 0.34413 0.0
N255 N 0.31442 0.98279 0.3585 0.0
N256 N 0.34038 0.96989 0.36282 0.0
C257 C 0.36194 0.98089 0.35104 0.0
C258 C 0.34889 0.00216 0.33899 0.0
C259 C 0.29361 0.01999 0.33484 0.0
H260 H 0.27574 0.00413 0.32998 0.0
H261 H 0.28338 0.03545 0.34549 0.0
H262 H 0.30175 0.03365 0.32261 0.0
O263 O 0.27118 0.92552 0.36078 0.0
O264 O 0.31416 0.9043 0.37012 0.0
H265 H 0.40314 0.9735 0.33497 0.0
H266 H 0.40789 0.97723 0.36029 0.0
C267 C 0.39305 0.96785 0.34902 0.0
H268 H 0.39226 0.94293 0.35052 0.0
H269 H 0.37084 0.87949 0.36909 0.0
O270 O 0.24292 0.9918 0.36318 0.0
C271 C 0.28814 0.90241 0.36244 0.0
Co272 Co 0.47009 0.7819 0.87081 0.0
Co273 Co 0.43944 0.84279 0.88219 0.0
C274 C 0.46371 0.80275 0.91203 0.0
O275 O 0.47087 0.78399 0.89903 0.0
O276 O 0.45182 0.82813 0.90788 0.0
C277 C 0.5203 0.74353 0.87389 0.0
O278 O 0.52849 0.76426 0.88631 0.0
C279 C 0.42724 0.90517 0.89524 0.0
C280 C 0.39039 0.91806 0.87551 0.0
C281 C 0.40857 0.92905 0.89004 0.0
N282 N 0.42072 0.88139 0.88401 0.0
N283 N 0.39834 0.88911 0.87249 0.0
C284 C 0.45038 0.90458 0.91087 0.0
H285 H 0.47339 0.90428 0.90459 0.0
H286 H 0.4481 0.92444 0.92045 0.0
H287 H 0.44771 0.88364 0.91939 0.0
C288 C 0.50339 0.82239 0.84468 0.0
N289 N 0.48417 0.81786 0.8593 0.0
N290 N 0.4723 0.84386 0.86452 0.0
C291 C 0.48416 0.86599 0.85357 0.0
C292 C 0.50417 0.85314 0.84051 0.0
C293 C 0.51754 0.79722 0.8335 0.0
H294 H 0.50226 0.77733 0.83322 0.0
H295 H 0.53898 0.79043 0.84054 0.0
H296 H 0.52248 0.8042 0.81862 0.0
O297 O 0.42844 0.77314 0.86259 0.0
O298 O 0.40717 0.81607 0.872 0.0
H299 H 0.45329 0.90267 0.84957 0.0
H300 H 0.49272 0.91347 0.84805 0.0
C301 C 0.47622 0.89876 0.85551 0.0
H302 H 0.47598 0.90511 0.87077 0.0
H303 H 0.38907 0.87485 0.86215 0.0
O304 O 0.4961 0.74725 0.8644 0.0
C305 C 0.40525 0.78988 0.86453 0.0
Co306 Co 0.71036 0.46035 0.36738 0.0
Co307 Co 0.64955 0.43094 0.37951 0.0
C308 C 0.69107 0.45621 0.40865 0.0
O309 O 0.70957 0.46253 0.39541 0.0
O310 O 0.66543 0.44457 0.40486 0.0
C311 C 0.75036 0.50907 0.36917 0.0
O312 O 0.72857 0.52002 0.37989 0.0
C313 C 0.58569 0.42779 0.39022 0.0
C314 C 0.57328 0.38231 0.37969 0.0
C315 C 0.56141 0.40824 0.38786 0.0
N316 N 0.61054 0.41426 0.38331 0.0
N317 N 0.60312 0.38684 0.37741 0.0
C318 C 0.58572 0.45844 0.39935 0.0
H319 H 0.60596 0.46085 0.40859 0.0
H320 H 0.58717 0.4762 0.38824 0.0
H321 H 0.56498 0.46205 0.40798 0.0
C322 C 0.67025 0.4943 0.34137 0.0
N323 N 0.67446 0.47521 0.3561 0.0
N324 N 0.64856 0.46232 0.36058 0.0
C325 C 0.62708 0.47244 0.3484 0.0
C326 C 0.64004 0.49333 0.33606 0.0
C327 C 0.69513 0.51184 0.33205 0.0
H328 H 0.71294 0.49602 0.32705 0.0
H329 H 0.70548 0.52721 0.34271 0.0
H330 H 0.68686 0.52561 0.3199 0.0
O331 O 0.71741 0.41791 0.35967 0.0
O332 O 0.67455 0.39729 0.36976 0.0
H333 H 0.5969 0.43429 0.3496 0.0
H334 H 0.58783 0.46141 0.33133 0.0
C335 C 0.5963 0.4587 0.34615 0.0
H336 H 0.58018 0.47025 0.35579 0.0
H337 H 0.61818 0.37167 0.37111 0.0
O338 O 0.74615 0.48419 0.36047 0.0
C339 C 0.70047 0.39493 0.36201 0.0
Co340 Co 0.03482 0.71027 0.86555 0.0
Co341 Co 0.05781 0.64787 0.88017 0.0
C342 C 0.03465 0.69277 0.90756 0.0
O343 O 0.03076 0.71087 0.89368 0.0
O344 O 0.04434 0.666 0.90478 0.0
C345 C 0.98636 0.75061 0.86328 0.0
O346 O 0.97332 0.72899 0.87316 0.0
C347 C 0.06315 0.58535 0.89523 0.0
C348 C 0.10164 0.56893 0.87796 0.0
C349 C 0.0809 0.56008 0.89163 0.0
N350 N 0.07275 0.60797 0.88392 0.0
N351 N 0.09604 0.59808 0.87387 0.0
C352 C 0.03809 0.58823 0.9095 0.0
H353 H 0.01594 0.58638 0.90219 0.0
H354 H 0.03962 0.57022 0.92051 0.0
H355 H 0.03907 0.61069 0.9165 0.0
C356 C 0.00022 0.67084 0.83925 0.0
N357 N 0.01834 0.67485 0.8545 0.0
N358 N 0.02695 0.64834 0.86106 0.0
C359 C 0.01403 0.62648 0.85033 0.0
C360 C -0.00332 0.63999 0.83608 0.0
C361 C 0.98979 0.69609 0.82662 0.0
H362 H 0.00657 0.71473 0.8267 0.0
H363 H 0.96798 0.70496 0.8321 0.0
H364 H 0.98646 0.68823 0.81172 0.0
O365 O 0.07783 0.71432 0.85893 0.0
O366 O 0.09355 0.67043 0.87059 0.0
H367 H 0.04157 0.5868 0.84879 0.0
H368 H 0.0015 0.57959 0.84587 0.0
C369 C 0.01856 0.59334 0.85358 0.0
H370 H 0.01666 0.58836 0.86897 0.0
H371 H 0.10764 0.61103 0.86381 0.0
O372 O 0.01312 0.74663 0.8572 0.0
C373 C 0.09892 0.69556 0.8624 0.0
Co374 Co 0.78018 0.02453 0.36732 0.0
Co375 Co 0.84159 0.05073 0.38125 0.0
C376 C 0.7969 0.02761 0.40913 0.0
O377 O 0.77894 0.02203 0.39542 0.0
O378 O 0.82319 0.03823 0.406 0.0
C379 C 0.7392 0.97652 0.36698 0.0
O380 O 0.76017 0.96452 0.37791 0.0
C381 C 0.90411 0.05422 0.3956 0.0
C382 C 0.91828 0.09848 0.38393 0.0
C383 C 0.92844 0.07399 0.39442 0.0
N384 N 0.8808 0.0664 0.386 0.0
N385 N 0.88932 0.093 0.37928 0.0
C386 C 0.90246 0.02504 0.40641 0.0
H387 H 0.87903 0.02081 0.41133 0.0
H388 H 0.90909 0.00605 0.39698 0.0
H389 H 0.91808 0.02546 0.41882 0.0
C390 C 0.82066 0.98924 0.34218 0.0
N391 N 0.81622 0.00814 0.35699 0.0
N392 N 0.84244 0.01902 0.3627 0.0
C393 C 0.86447 0.00743 0.35151 0.0
C394 C 0.85138 0.98798 0.33828 0.0
C395 C 0.79565 0.97418 0.33134 0.0
H396 H 0.77849 0.99127 0.32719 0.0
H397 H 0.78449 0.95739 0.34073 0.0
H398 H 0.80403 0.96228 0.31845 0.0
O399 O 0.77528 0.06724 0.35956 0.0
O400 O 0.81882 0.08516 0.37051 0.0
H401 H 0.8972 0.0432 0.35262 0.0
H402 H 0.90855 0.01131 0.33821 0.0
C403 C 0.89656 0.01822 0.35142 0.0
H404 H 0.90867 0.00846 0.3638 0.0
H405 H 0.87554 0.1072 0.37118 0.0
O406 O 0.74421 0.00197 0.35919 0.0
C407 C 0.79354 0.08909 0.3622 0.0
Co408 Co 0.45856 0.70901 0.14735 0.0
Co409 Co 0.43374 0.64779 0.13215 0.0
C410 C 0.45752 0.69375 0.10531 0.0
O411 O 0.46226 0.71142 0.1193 0.0
O412 O 0.44715 0.66724 0.10796 0.0
C413 C 0.50613 0.75022 0.14923 0.0
O414 O 0.51837 0.72995 0.13788 0.0
C415 C 0.4324 0.58586 0.11686 0.0
C416 C 0.38806 0.57009 0.12751 0.0
C417 C 0.41338 0.5609 0.11745 0.0
N418 N 0.41905 0.60856 0.12642 0.0
N419 N 0.39237 0.59912 0.13249 0.0
C420 C 0.46208 0.58867 0.10671 0.0
H421 H 0.46501 0.61196 0.10117 0.0
H422 H 0.48085 0.58417 0.11679 0.0
H423 H 0.46354 0.57222 0.09477 0.0
C424 C 0.49362 0.66795 0.17236 0.0
N425 N 0.47501 0.67274 0.15744 0.0
N426 N 0.46461 0.6466 0.15123 0.0
C427 C 0.47619 0.62429 0.1622 0.0
C428 C 0.49516 0.63709 0.1758 0.0
C429 C 0.50839 0.69269 0.1836 0.0
H430 H 0.49121 0.70975 0.18776 0.0
H431 H 0.52542 0.70407 0.17449 0.0
H432 H 0.51999 0.68401 0.19651 0.0
O433 O 0.41547 0.71302 0.15444 0.0
O434 O 0.39853 0.66966 0.14258 0.0
H435 H 0.44104 0.59103 0.15961 0.0
H436 H 0.47169 0.57999 0.17511 0.0
C437 C 0.46584 0.59204 0.16172 0.0
H438 H 0.47697 0.58018 0.1497 0.0
H439 H 0.37739 0.61226 0.14045 0.0
O440 O 0.48039 0.74484 0.15652 0.0
C441 C 0.39395 0.6946 0.15118 0.0
Co442 Co 0.77931 0.46486 0.64414 0.0
Co443 Co 0.84092 0.4371 0.63158 0.0
C444 C 0.79905 0.46119 0.60261 0.0
O445 O 0.7805 0.46722 0.61594 0.0
O446 O 0.82495 0.45003 0.60628 0.0
C447 C 0.73926 0.51436 0.64411 0.0
O448 O 0.76128 0.52701 0.63437 0.0
C449 C 0.9037 0.42777 0.61804 0.0
C450 C 0.9175 0.38971 0.63656 0.0
C451 C 0.928 0.40924 0.62264 0.0
N452 N 0.88011 0.41983 0.62905 0.0
N453 N 0.8884 0.39675 0.63983 0.0
C454 C 0.90262 0.45208 0.60316 0.0
H455 H 0.90386 0.4746 0.6101 0.0
H456 H 0.92165 0.44982 0.59293 0.0
H457 H 0.88092 0.45089 0.59528 0.0
C458 C 0.81921 0.49839 0.6707 0.0
N459 N 0.81494 0.47988 0.65566 0.0
N460 N 0.84117 0.4691 0.65 0.0
C461 C 0.86315 0.48094 0.66109 0.0
C462 C 0.85 0.4998 0.6747 0.0
C463 C 0.79394 0.51122 0.68239 0.0
H464 H 0.77423 0.49572 0.68215 0.0
H465 H 0.7869 0.53319 0.67616 0.0
H466 H 0.801 0.51494 0.69741 0.0
O467 O 0.77255 0.42257 0.65156 0.0
O468 O 0.81584 0.40322 0.6413 0.0
H469 H 0.90068 0.4508 0.66407 0.0
H470 H 0.91047 0.49038 0.66664 0.0
C471 C 0.89608 0.47401 0.6588 0.0
H472 H 0.9022 0.47501 0.64353 0.0
H473 H 0.87442 0.38633 0.64986 0.0
O474 O 0.74327 0.48821 0.65116 0.0
C475 C 0.78997 0.40005 0.64899 0.0
Co476 Co 0.02277 0.77891 0.14191 0.0
Co477 Co 0.0532 0.84015 0.13148 0.0
C478 C 0.02784 0.80084 0.10118 0.0
O479 O 0.02098 0.78161 0.11391 0.0
O480 O 0.03982 0.82605 0.10568 0.0
C481 C 0.97377 0.7387 0.13917 0.0
O482 O 0.96268 0.76064 0.12863 0.0
C483 C 0.05822 0.9047 0.12243 0.0
C484 C 0.104 0.915 0.13334 0.0
C485 C 0.07862 0.92815 0.12529 0.0
N486 N 0.07082 0.87905 0.12887 0.0
N487 N 0.09839 0.88525 0.13504 0.0
C488 C 0.02783 0.90604 0.11302 0.0
H489 H 0.01013 0.89816 0.12304 0.0
H490 H 0.02243 0.92913 0.10786 0.0
H491 H 0.0276 0.89019 0.10072 0.0
C492 C 0.98904 0.81793 0.16872 0.0
N493 N 0.00827 0.81434 0.15399 0.0
N494 N 0.02145 0.84036 0.15015 0.0
C495 C 0.0113 0.86129 0.16269 0.0
C496 C 0.99018 0.84784 0.17466 0.0
C497 C 0.97123 0.7927 0.17744 0.0
H498 H 0.98688 0.77459 0.1822 0.0
H499 H 0.95602 0.78291 0.16648 0.0
H500 H 0.9573 0.80049 0.18965 0.0
O501 O 0.06496 0.7708 0.14968 0.0
O502 O 0.08623 0.81403 0.14087 0.0
H503 H 0.0215 0.90025 0.18029 0.0
H504 H 0.01435 0.90828 0.15563 0.0
C505 C 0.02509 0.89195 0.16551 0.0
H506 H 0.04969 0.89118 0.16267 0.0
H507 H 0.113 0.86936 0.14105 0.0
O508 O -0.0014 0.74286 0.14793 0.0
C509 C 0.08816 0.78761 0.14796 0.0
Co510 Co 0.70976 0.02863 0.64385 0.0
Co511 Co 0.64656 0.05297 0.63173 0.0
C512 C 0.6882 0.02948 0.60257 0.0
O513 O 0.70744 0.02497 0.61575 0.0
O514 O 0.66198 0.03973 0.60638 0.0
C515 C 0.75035 0.98001 0.64384 0.0
O516 O 0.72755 0.96664 0.63525 0.0
C517 C 0.58302 0.05995 0.61893 0.0
C518 C 0.56876 0.09804 0.63731 0.0
C519 C 0.55842 0.078 0.62361 0.0
N520 N 0.60669 0.0687 0.62965 0.0
N521 N 0.59807 0.09174 0.64038 0.0
C522 C 0.58429 0.03538 0.60421 0.0
H523 H 0.58318 0.013 0.61129 0.0
H524 H 0.56523 0.03732 0.59397 0.0
H525 H 0.60597 0.03657 0.59632 0.0
C526 C 0.6723 0.99466 0.67155 0.0
N527 N 0.67524 0.01257 0.65612 0.0
N528 N 0.64835 0.02172 0.65054 0.0
C529 C 0.62728 0.00933 0.66206 0.0
C530 C 0.64174 0.99188 0.67589 0.0
C531 C 0.6985 0.98382 0.68324 0.0
H532 H 0.71762 -4e-05 0.68215 0.0
H533 H 0.70607 0.96156 0.67769 0.0
H534 H 0.69215 0.98121 0.69847 0.0
O535 O 0.71518 0.07143 0.65062 0.0
O536 O 0.67054 0.0881 0.64077 0.0
H537 H 0.58831 0.03753 0.66515 0.0
H538 H 0.58067 -0.00246 0.66805 0.0
C539 C 0.594 0.01449 0.65998 0.0
H540 H 0.58764 0.01292 0.64476 0.0
H541 H 0.61205 0.10272 0.65019 0.0
O542 O 0.74679 0.00657 0.65039 0.0
C543 C 0.69647 0.09288 0.64805 0.0
C544 C 0.5301 0.18266 0.06889 0.0
C545 C 0.52732 0.20286 0.08431 0.0
C546 C 0.52809 0.19322 0.05005 0.0
C547 C 0.54098 0.26108 0.02147 0.0
H548 H 0.48973 0.22299 0.98357 0.0
C549 C 0.52957 0.31037 0.94524 0.0
C550 C 0.52745 0.28955 0.93013 0.0
C551 C 0.52741 0.30054 0.96423 0.0
C552 C 0.50452 0.2337 0.99387 0.0
H553 H 0.51973 0.24994 0.09193 0.0
H554 H 0.51677 0.26811 0.05925 0.0
H555 H 0.49087 0.20316 0.01606 0.0
H556 H 0.52139 0.24203 0.92321 0.0
H557 H 0.51877 0.22496 0.95594 0.0
H558 H 0.55554 0.29098 0.99934 0.0
C559 C 0.52049 0.24421 0.06171 0.0
C560 C 0.50505 0.22233 0.0125 0.0
C561 C 0.52204 0.23368 0.08045 0.0
C562 C 0.5229 0.25881 0.93444 0.0
C563 C 0.52116 0.24898 0.95333 0.0
C564 C 0.54083 0.27218 1.00279 0.0
C565 C 0.52373 0.22418 0.04632 0.0
C566 C 0.52328 0.23592 0.02648 0.0
C567 C 0.52347 0.26962 0.96853 0.0
C568 C 0.52265 0.25862 0.98868 0.0
H569 H 0.53412 0.15882 0.07136 0.0
H570 H 0.53074 0.17731 0.0384 0.0
H571 H 0.55546 0.27183 0.03195 0.0
H572 H 0.53291 0.33422 0.94241 0.0
H573 H 0.52879 0.31723 0.97551 0.0
C574 C 0.23417 0.52767 0.43296 0.0
C575 C 0.20314 0.53098 0.42907 0.0
C576 C 0.2446 0.52548 0.45173 0.0
C577 C 0.22125 0.54181 0.50167 0.0
H578 H 0.29257 0.49456 0.51402 0.0
C579 C 0.25909 0.51997 0.57894 0.0
C580 C 0.28939 0.52692 0.58331 0.0
C581 C 0.2492 0.51884 0.56005 0.0
C582 C 0.27275 0.50798 0.51071 0.0
H583 H 0.15861 0.53349 0.44187 0.0
H584 H 0.17664 0.5285 0.47465 0.0
H585 H 0.27296 0.49435 0.48142 0.0
H586 H 0.3333 0.537 0.57108 0.0
H587 H 0.31594 0.5344 0.53783 0.0
H588 H 0.22071 0.5547 0.53114 0.0
C589 C 0.19309 0.52858 0.46321 0.0
C590 C 0.26151 0.50798 0.49203 0.0
C591 C 0.18268 0.53122 0.44439 0.0
C592 C 0.30982 0.53168 0.56822 0.0
C593 C 0.29993 0.53011 0.54921 0.0
C594 C 0.23222 0.54141 0.52037 0.0
C595 C 0.22426 0.52608 0.46715 0.0
C596 C 0.23566 0.52504 0.48721 0.0
C597 C 0.26939 0.52421 0.54501 0.0
C598 C 0.25812 0.52459 0.52507 0.0
H599 H 0.25063 0.52759 0.42151 0.0
H600 H 0.26875 0.52414 0.4541 0.0
H601 H 0.20176 0.55576 0.49852 0.0
H602 H 0.24267 0.51608 0.59015 0.0
H603 H 0.22563 0.51388 0.5572 0.0
C604 C 0.95941 0.17872 0.94585 0.0
C605 C 0.96314 0.19909 0.93061 0.0
C606 C 0.96176 0.1888 0.96479 0.0
C607 C 0.95056 0.25656 0.99357 0.0
H608 H 0.00049 0.21754 0.03178 0.0
C609 C 0.9628 0.30753 0.06903 0.0
C610 C 0.96425 0.28732 0.08447 0.0
C611 C 0.96506 0.29691 0.05024 0.0
C612 C 0.98607 0.22851 0.02139 0.0
H613 H 0.973 0.24592 0.92343 0.0
H614 H 0.97651 0.26328 0.95626 0.0
H615 H -0.00093 0.1974 0.99931 0.0
H616 H 0.96953 0.24007 0.09222 0.0
H617 H 0.9723 0.22156 0.0597 0.0
H618 H 0.93659 0.28703 0.01552 0.0
C619 C 0.97178 0.2396 0.95358 0.0
C620 C 0.98538 0.21696 1.00277 0.0
C621 C 0.96988 0.22953 0.93475 0.0
C622 C 0.9685 0.25635 0.08069 0.0
C623 C 0.9703 0.2457 0.06195 0.0
C624 C 0.95085 0.26782 0.01221 0.0
C625 C 0.9674 0.21948 0.96879 0.0
C626 C 0.96773 0.23098 0.98868 0.0
C627 C 0.96835 0.26576 0.04642 0.0
C628 C 0.96868 0.25405 0.02641 0.0
H629 H 0.95427 0.15514 0.94316 0.0
H630 H 0.95825 0.17284 0.97631 0.0
H631 H 0.93648 0.26761 0.98301 0.0
H632 H 0.95976 0.33154 0.07145 0.0
H633 H 0.96412 0.31318 0.03871 0.0
C634 C 0.30918 0.96012 0.4459 0.0
C635 C 0.28859 0.96386 0.43081 0.0
C636 C 0.29934 0.96185 0.4649 0.0
C637 C 0.23336 0.98596 0.49494 0.0
H638 H 0.26925 0.9315 0.5319 0.0
C639 C 0.18111 0.95855 0.56932 0.0
C640 C 0.20129 0.96002 0.58482 0.0
C641 C 0.19182 0.96096 0.55054 0.0
C642 C 0.25914 0.94695 0.52174 0.0
H643 H 0.24149 0.97252 0.42389 0.0
H644 H 0.22432 0.97439 0.45665 0.0
H645 H 0.28845 0.93235 0.49931 0.0
H646 H 0.24855 0.9655 0.59266 0.0
H647 H 0.26701 0.96912 0.56004 0.0
H648 H 0.20334 -0.00035 0.51741 0.0
C649 C 0.24821 0.97102 0.45403 0.0
C650 C 0.27028 0.94764 0.50307 0.0
C651 C 0.25808 0.96971 0.43514 0.0
C652 C 0.2323 0.96425 0.58111 0.0
C653 C 0.24298 0.96618 0.56241 0.0
C654 C 0.22192 0.9849 0.51355 0.0
C655 C 0.26861 0.96696 0.46922 0.0
C656 C 0.25753 0.96712 0.48937 0.0
C657 C 0.22292 0.96437 0.54693 0.0
C658 C 0.23472 0.9654 0.52712 0.0
H659 H 0.33286 0.95577 0.44306 0.0
H660 H 0.31586 0.95916 0.47618 0.0
H661 H 0.2233 0.00173 0.48497 0.0
H662 H 0.15711 0.95536 0.57169 0.0
H663 H 0.17589 0.95941 0.53883 0.0
C664 C 0.47442 0.76337 0.93672 0.0
C665 C 0.46777 0.79366 0.93225 0.0
C666 C 0.47626 0.75384 0.95567 0.0
C667 C 0.45251 0.77599 1.00455 0.0
H668 H 0.50561 0.71003 0.0191 0.0
C669 C 0.46665 0.73637 0.08254 0.0
C670 C 0.46262 0.70518 0.08568 0.0
C671 C 0.46951 0.74777 0.06405 0.0
C672 C 0.4906 0.72838 0.01519 0.0
H673 H 0.45892 0.83796 0.9443 0.0
H674 H 0.46322 0.82158 0.97748 0.0
H675 H 0.50779 0.73016 0.98671 0.0
H676 H 0.45944 0.66141 0.0718 0.0
H677 H 0.46508 0.68143 0.03938 0.0
H678 H 0.43587 0.77447 0.03326 0.0
C679 C 0.46613 0.80494 0.96628 0.0
C680 C 0.49172 0.7399 0.99661 0.0
C681 C 0.46387 0.81442 0.94725 0.0
C682 C 0.46242 0.68554 0.06987 0.0
C683 C 0.46576 0.69696 0.05134 0.0
C684 C 0.45176 0.76478 0.0232 0.0
C685 C 0.47195 0.7744 0.97075 0.0
C686 C 0.47238 0.76361 0.99094 0.0
C687 C 0.46889 0.72823 0.04827 0.0
C688 C 0.47054 0.74065 0.02864 0.0
H689 H 0.4774 0.74666 0.92556 0.0
H690 H 0.4802 0.73007 0.95842 0.0
H691 H 0.43688 0.79382 1.00072 0.0
H692 H 0.46692 0.75218 0.09437 0.0
H693 H 0.47217 0.77193 0.06208 0.0
C694 C 0.68073 0.45751 0.44409 0.0
C695 C 0.70092 0.46074 0.42871 0.0
C696 C 0.69109 0.4602 0.46295 0.0
C697 C 0.75895 0.44937 0.49168 0.0
H698 H 0.72052 0.50108 0.52919 0.0
C699 C 0.80943 0.46305 0.56727 0.0
C700 C 0.789 0.46524 0.58256 0.0
C701 C 0.79912 0.46495 0.54838 0.0
C702 C 0.73133 0.48616 0.51901 0.0
H703 H 0.74774 0.46987 0.42118 0.0
H704 H 0.76559 0.47393 0.4539 0.0
H705 H 0.70036 0.49875 0.49677 0.0
H706 H 0.74171 0.47144 0.58995 0.0
H707 H 0.72377 0.47357 0.55733 0.0
H708 H 0.78924 0.4358 0.51383 0.0
C709 C 0.74184 0.46938 0.45138 0.0
C710 C 0.71976 0.48496 0.50042 0.0
C711 C 0.73149 0.46718 0.43263 0.0
C712 C 0.75818 0.46985 0.57854 0.0
C713 C 0.74785 0.47129 0.55973 0.0
C714 C 0.77022 0.45017 0.51032 0.0
C715 C 0.72186 0.46565 0.46673 0.0
C716 C 0.73353 0.46662 0.48658 0.0
C717 C 0.76809 0.46863 0.54435 0.0
C718 C 0.75661 0.46859 0.52428 0.0
H719 H 0.65707 0.45262 0.44157 0.0
H720 H 0.67524 0.45717 0.47458 0.0
H721 H 0.76982 0.4348 0.4813 0.0
H722 H 0.83334 0.45969 0.56987 0.0
H723 H 0.81553 0.46342 0.53696 0.0
C724 C 0.01617 0.76222 0.07618 0.0
C725 C 0.0236 0.79227 0.08086 0.0
C726 C 0.01439 0.75292 0.05718 0.0
C727 C 0.03973 0.77465 0.00858 0.0
H728 H 0.9855 0.70987 0.99351 0.0
C729 C 0.02613 0.73539 0.93044 0.0
C730 C 0.0295 0.70412 0.92723 0.0
C731 C 0.02328 0.74678 0.94894 0.0
C732 C 0.00083 0.72788 0.99756 0.0
H733 H 0.03387 0.83642 0.0691 0.0
H734 H 0.02969 0.82045 0.03578 0.0
H735 H 0.98296 0.73016 0.02586 0.0
H736 H 0.03157 0.66025 0.94101 0.0
H737 H 0.02589 0.68028 0.97347 0.0
H738 H 0.05702 0.77266 0.98003 0.0
C739 C 0.0261 0.80381 0.04688 0.0
C740 C -0.00049 0.7395 0.01612 0.0
C741 C 0.02828 0.81307 0.06599 0.0
C742 C 0.02908 0.68443 0.94298 0.0
C743 C 0.02573 0.69586 0.96154 0.0
C744 C 0.04069 0.76335 0.98994 0.0
C745 C 0.01953 0.77347 0.04223 0.0
C746 C 0.01925 0.76277 0.022 0.0
C747 C 0.02326 0.72719 0.96468 0.0
C748 C 0.0215 0.73963 0.98432 0.0
H749 H 0.01257 0.74544 0.08722 0.0
H750 H 0.00989 0.72928 0.05431 0.0
H751 H 0.05567 0.79214 0.01257 0.0
H752 H 0.02636 0.75127 0.91867 0.0
H753 H 0.02112 0.77098 0.95095 0.0
C754 C 0.80569 0.02544 0.44465 0.0
C755 C 0.78597 0.02324 0.42895 0.0
C756 C 0.79458 0.02288 0.46331 0.0
C757 C 0.72609 0.03545 0.49121 0.0
H758 H 0.76377 0.98429 0.52931 0.0
C759 C 0.67676 0.02581 0.56739 0.0
C760 C 0.69762 0.0244 0.5825 0.0
C761 C 0.68649 0.02274 0.54845 0.0
C762 C 0.75315 -0.00098 0.51894 0.0
H763 H 0.73915 0.01609 0.42062 0.0
H764 H 0.71996 0.01214 0.45308 0.0
H765 H 0.78385 0.98523 0.49687 0.0
H766 H 0.74509 0.01827 0.58949 0.0
H767 H 0.76203 0.01402 0.55677 0.0
H768 H 0.69611 0.05022 0.51324 0.0
C769 C 0.74394 0.01583 0.45094 0.0
C770 C 0.76465 -0.00057 0.50034 0.0
C771 C 0.75504 0.01795 0.43235 0.0
C772 C 0.7283 0.01934 0.57825 0.0
C773 C 0.73804 0.01665 0.55939 0.0
C774 C 0.71485 0.0354 0.50986 0.0
C775 C 0.76352 0.01852 0.46661 0.0
C776 C 0.75127 0.01771 0.48632 0.0
C777 C 0.71736 0.01853 0.54418 0.0
C778 C 0.7283 0.01729 0.52403 0.0
H779 H 0.82963 0.02944 0.44253 0.0
H780 H 0.81015 0.02515 0.47518 0.0
H781 H 0.71551 0.04999 0.4807 0.0
H782 H 0.65295 0.0295 0.57017 0.0
H783 H 0.66979 0.02376 0.53716 0.0
C784 C 0.54676 0.78753 0.14149 0.0
C785 C 0.51927 0.78081 0.15059 0.0
C786 C 0.55651 0.81746 0.13985 0.0
C787 C 0.54136 0.8958 0.15683 0.0
H788 H 0.56964 0.91807 0.10631 0.0
C789 C 0.54058 0.01846 0.13111 0.0
C790 C 0.56819 0.02924 0.12395 0.0
C791 C 0.53612 0.98754 0.13374 0.0
C792 C 0.56198 0.91208 0.12051 0.0
H793 H 0.48142 0.79991 0.16619 0.0
H794 H 0.49801 0.85194 0.16301 0.0
H795 H 0.56125 0.86487 0.11397 0.0
H796 H 0.61239 0.01641 0.1134 0.0
H797 H 0.6043 0.96199 0.11762 0.0
H798 H 0.54113 0.94318 0.16308 0.0
C799 C 0.51231 0.83423 0.15731 0.0
C800 C 0.55739 0.88165 0.12497 0.0
C801 C 0.5027 0.80434 0.15906 0.0
C802 C 0.59078 0.00853 0.11871 0.0
C803 C 0.58618 0.97752 0.12115 0.0
C804 C 0.54561 0.92619 0.15229 0.0
C805 C 0.53887 0.84122 0.14721 0.0
C806 C 0.54666 0.8732 0.14312 0.0
C807 C 0.55915 0.96689 0.12921 0.0
C808 C 0.55557 0.93459 0.13402 0.0
H809 H 0.56018 0.76983 0.13497 0.0
H810 H 0.57743 0.82205 0.13235 0.0
H811 H 0.53364 0.89004 0.17105 0.0
H812 H 0.52311 0.03393 0.13577 0.0
H813 H 0.51499 0.9798 0.13985 0.0
C814 C 0.6837 0.50923 0.64904 0.0
C815 C 0.7084 0.52703 0.64327 0.0
C816 C 0.65425 0.51841 0.64506 0.0
C817 C 0.60434 0.58062 0.63548 0.0
H818 H 0.55815 0.52143 0.60672 0.0
C819 C 0.47865 0.60018 0.61793 0.0
C820 C 0.45985 0.57514 0.62123 0.0
C821 C 0.51002 0.59663 0.61712 0.0
C822 C 0.57065 0.53814 0.61483 0.0
H823 H 0.7215 0.56947 0.63009 0.0
H824 H 0.66953 0.58592 0.62363 0.0
H825 H 0.61117 0.5117 0.61403 0.0
H826 H 0.45904 0.52685 0.62651 0.0
H827 H 0.5134 0.52058 0.62524 0.0
H828 H 0.56352 0.60637 0.63725 0.0
C829 C 0.67329 0.56464 0.63091 0.0
C830 C 0.60097 0.5326 0.61894 0.0
C831 C 0.70292 0.55523 0.63464 0.0
C832 C 0.47283 0.54639 0.62324 0.0
C833 C 0.50412 0.54285 0.62259 0.0
C834 C 0.5738 0.58601 0.63161 0.0
C835 C 0.64887 0.54577 0.63554 0.0
C836 C 0.61782 0.55346 0.62965 0.0
C837 C 0.52315 0.568 0.6199 0.0
C838 C 0.55642 0.56446 0.62163 0.0
H839 H 0.68707 0.48745 0.65579 0.0
H840 H 0.63563 0.50375 0.649 0.0
H841 H 0.61703 0.59697 0.64377 0.0
H842 H 0.46911 0.62264 0.61646 0.0
H843 H 0.52399 0.6164 0.61479 0.0
C844 C 0.94183 0.47301 0.11678 0.0
C845 C 0.91299 0.45991 0.1159 0.0
C846 C 0.94523 0.50427 0.11543 0.0
C847 C 0.90206 0.57377 0.12497 0.0
H848 H 0.97568 0.61139 0.10656 0.0
C849 C 0.93326 0.70282 0.12854 0.0
C850 C 0.96121 0.70788 0.1376 0.0
C851 C 0.92381 0.67337 0.12433 0.0
C852 C 0.95495 0.60113 0.11166 0.0
H853 H 0.86521 0.46882 0.11216 0.0
H854 H 0.87117 0.52359 0.10916 0.0
H855 H 0.96572 0.5584 0.09914 0.0
H856 H 0.00048 0.68602 0.15012 0.0
H857 H 0.98414 0.63482 0.14244 0.0
H858 H 0.89153 0.61688 0.13745 0.0
C859 C 0.89113 0.50979 0.11122 0.0
C860 C 0.94927 0.57082 0.1075 0.0
C861 C 0.88772 0.47847 0.11277 0.0
C862 C 0.97884 0.68293 0.14313 0.0
C863 C 0.96966 0.65365 0.13863 0.0
C864 C 0.90756 0.60429 0.12886 0.0
C865 C 0.91984 0.52313 0.11312 0.0
C866 C 0.92327 0.55647 0.11466 0.0
C867 C 0.94245 0.64871 0.12883 0.0
C868 C 0.93449 0.61784 0.12273 0.0
H869 H 0.96159 0.45939 0.11984 0.0
H870 H 0.96762 0.5137 0.11738 0.0
H871 H 0.88197 0.56344 0.13091 0.0
H872 H 0.91918 0.72163 0.12416 0.0
H873 H 0.90264 0.66992 0.11684 0.0
C874 C 0.80625 0.98571 0.64642 0.0
C875 C 0.78113 0.96741 0.6422 0.0
C876 C 0.83531 0.97617 0.64173 0.0
C877 C 0.88377 0.91236 0.63273 0.0
H878 H 0.92976 0.96937 0.60223 0.0
C879 C 0.00848 0.89002 0.61491 0.0
C880 C 0.02761 0.91486 0.61808 0.0
C881 C 0.97721 0.89407 0.61373 0.0
C882 C 0.91729 0.95324 0.61079 0.0
H883 H 0.76695 0.9239 0.63095 0.0
H884 H 0.81827 0.90687 0.62323 0.0
H885 H 0.87718 0.98032 0.61013 0.0
H886 H 0.02917 0.96338 0.62243 0.0
H887 H 0.97496 0.97051 0.62049 0.0
H888 H 0.92421 0.88604 0.63438 0.0
C889 C 0.81513 0.92879 0.62986 0.0
C890 C 0.88723 0.95949 0.61525 0.0
C891 C 0.78587 0.93852 0.63431 0.0
C892 C 0.01512 0.94394 0.61932 0.0
C893 C 0.98391 0.94798 0.61828 0.0
C894 C 0.91403 0.90626 0.62849 0.0
C895 C 0.8399 0.94799 0.633 0.0
C896 C 0.8705 0.93947 0.62664 0.0
C897 C 0.96452 0.92301 0.61597 0.0
C898 C 0.93135 0.92705 0.61788 0.0
H899 H 0.80343 0.00803 0.65255 0.0
H900 H 0.85423 0.9911 0.64457 0.0
H901 H 0.87121 0.89664 0.64156 0.0
H902 H 0.01765 0.86733 0.61401 0.0
H903 H 0.96294 0.87443 0.61167 0.0
C904 C 0.55206 0.70419 0.88968 0.0
C905 C 0.53525 0.71376 0.87377 0.0
C906 C 0.5611 0.67404 0.89133 0.0
C907 C 0.53687 0.59924 0.87416 0.0
H908 H 0.60861 0.57116 0.90059 0.0
C909 C 0.60221 0.47996 0.8869 0.0
C910 C 0.57687 0.46122 0.88952 0.0
C911 C 0.59918 0.51138 0.88708 0.0
C912 C 0.58854 0.57864 0.8931 0.0
H913 H 0.51721 0.70021 0.84629 0.0
H914 H 0.53401 0.64788 0.84878 0.0
H915 H 0.60229 0.62506 0.8942 0.0
H916 H 0.52851 0.46105 0.89486 0.0
H917 H 0.5236 0.51555 0.8964 0.0
H918 H 0.52355 0.55301 0.87236 0.0
C919 C 0.53918 0.66329 0.86036 0.0
C920 C 0.58481 0.60955 0.88956 0.0
C921 C 0.52977 0.69331 0.85884 0.0
C922 C 0.54872 0.47457 0.89338 0.0
C923 C 0.54576 0.50598 0.89381 0.0
C924 C 0.54071 0.56845 0.87754 0.0
C925 C 0.55381 0.65302 0.87698 0.0
C926 C 0.5589 0.62019 0.88004 0.0
C927 C 0.57071 0.52473 0.88994 0.0
C928 C 0.56649 0.55774 0.88712 0.0
H929 H 0.55658 0.71947 0.90144 0.0
H930 H 0.5722 0.66692 0.90436 0.0
H931 H 0.51633 0.60661 0.86715 0.0
H932 H 0.62419 0.47031 0.8838 0.0
H933 H 0.61884 0.52508 0.8839 0.0
C934 C 0.7865 0.54849 0.38089 0.0
C935 C 0.78119 0.52156 0.37072 0.0
C936 C 0.81602 0.5573 0.38538 0.0
C937 C 0.88866 0.52359 0.39553 0.0
H938 H 0.92429 0.60161 0.38415 0.0
C939 C 0.01634 0.54234 0.39323 0.0
C940 C 0.02825 0.57093 0.39756 0.0
C941 C 0.98521 0.53749 0.3937 0.0
C942 C 0.9145 0.57996 0.38787 0.0
H943 H 0.8027 0.48378 0.35626 0.0
H944 H 0.85404 0.49909 0.36428 0.0
H945 H 0.8713 0.59223 0.37625 0.0
H946 H 0.01733 0.61652 0.40653 0.0
H947 H 0.96277 0.60786 0.40788 0.0
H948 H 0.93154 0.51112 0.40717 0.0
C949 C 0.83535 0.51316 0.36888 0.0
C950 C 0.88426 0.57458 0.3832 0.0
C951 C 0.80597 0.50458 0.36418 0.0
C952 C 0.00862 0.59422 0.40321 0.0
C953 C 0.97744 0.58932 0.40383 0.0
C954 C 0.91871 0.52905 0.40043 0.0
C955 C 0.84054 0.5391 0.37995 0.0
C956 C 0.87144 0.54607 0.3865 0.0
C957 C 0.96534 0.56113 0.39852 0.0
C958 C 0.93226 0.55699 0.39615 0.0
H959 H 0.76784 0.56208 0.38606 0.0
H960 H 0.8196 0.5775 0.39386 0.0
H961 H 0.87897 0.50159 0.39855 0.0
H962 H 0.03075 0.52426 0.38817 0.0
H963 H 0.97671 0.51568 0.38913 0.0
C964 C 0.94596 0.01721 0.88265 0.0
C965 C 0.91808 0.02792 0.88941 0.0
C966 C 0.95051 0.98633 0.8799 0.0
C967 C 0.9246 0.91065 0.89223 0.0
H968 H 0.95536 0.88964 0.84207 0.0
C969 C 0.94437 0.78659 0.87086 0.0
C970 C 0.97247 0.78091 0.86221 0.0
C971 C 0.93362 0.81618 0.87259 0.0
C972 C 0.94694 0.89511 0.85617 0.0
H973 H 0.8734 0.01501 0.89906 0.0
H974 H 0.88165 0.96059 0.89465 0.0
H975 H 0.94644 0.94252 0.85011 0.0
H976 H 0.01043 0.80154 0.84752 0.0
H977 H 0.99207 0.85293 0.85082 0.0
H978 H 0.92614 0.86339 0.8986 0.0
C979 C 0.89991 0.97616 0.89155 0.0
C980 C 0.94186 0.92536 0.86076 0.0
C981 C 0.89523 0.00716 0.8941 0.0
C982 C 0.98872 0.80514 0.85431 0.0
C983 C 0.97808 0.83467 0.85612 0.0
C984 C 0.93002 0.88034 0.88772 0.0
C985 C 0.92728 0.96563 0.88388 0.0
C986 C 0.93114 0.93341 0.87892 0.0
C987 C 0.9508 0.84062 0.86572 0.0
C988 C 0.94173 0.87229 0.86973 0.0
H989 H 0.96363 0.03274 0.87837 0.0
H990 H 0.97189 0.97867 0.8741 0.0
H991 H 0.91632 0.91638 0.90633 0.0
H992 H 0.9312 0.76834 0.87696 0.0
H993 H 0.91224 0.81998 0.87973 0.0
C994 C 0.47176 0.94631 0.38791 0.0
C995 C 0.45945 0.91793 0.3923 0.0
C996 C 0.50298 0.95037 0.38751 0.0
C997 C 0.57303 0.90707 0.38022 0.0
H998 H 0.60996 0.98413 0.39275 0.0
C999 C 0.70191 0.93674 0.37654 0.0
C1000 C 0.70823 0.96413 0.36715 0.0
C1001 C 0.672 0.92798 0.37986 0.0
C1002 C 0.59986 0.96252 0.38917 0.0
H1003 H 0.46983 0.87171 0.40014 0.0
H1004 H 0.52467 0.87898 0.39999 0.0
H1005 H 0.55716 0.97521 0.40091 0.0
H1006 H 0.68823 0.00271 0.35268 0.0
H1007 H 0.63619 0.98751 0.35871 0.0
H1008 H 0.61619 0.8945 0.36865 0.0
C1009 C 0.51019 0.898 0.39661 0.0
C1010 C 0.56967 0.9574 0.39381 0.0
C1011 C 0.47887 0.89388 0.39686 0.0
C1012 C 0.68416 0.98157 0.36006 0.0
C1013 C 0.65437 0.97302 0.3636 0.0
C1014 C 0.60344 0.91207 0.37583 0.0
C1015 C 0.52259 0.92614 0.39152 0.0
C1016 C 0.55566 0.92993 0.38894 0.0
C1017 C 0.64811 0.94668 0.37401 0.0
C1018 C 0.61679 0.94012 0.37984 0.0
H1019 H 0.45743 0.96494 0.38362 0.0
H1020 H 0.51169 0.97216 0.38309 0.0
H1021 H 0.56286 0.88577 0.37607 0.0
H1022 H 0.72002 0.92276 0.38208 0.0
H1023 H 0.66758 0.90749 0.38786 0.0
C1024 C 0.48051 0.18175 0.86868 0.0
C1025 C 0.46275 0.20742 0.87243 0.0
C1026 C 0.47002 0.15303 0.87343 0.0
C1027 C 0.40641 0.10512 0.88007 0.0
H1028 H 0.45842 0.06096 0.91493 0.0
C1029 C 0.38517 0.9794 0.89618 0.0
C1030 C 0.41118 0.96129 0.89507 0.0
C1031 C 0.3877 0.01083 0.8976 0.0
C1032 C 0.44366 0.07293 0.90516 0.0
H1033 H 0.4193 0.223 0.88297 0.0
H1034 H 0.40054 0.17218 0.89071 0.0
H1035 H 0.46956 0.11369 0.90747 0.0
H1036 H 0.46018 0.96171 0.89442 0.0
H1037 H 0.46471 0.01616 0.8968 0.0
H1038 H 0.38164 0.06395 0.87666 0.0
C1039 C 0.42279 0.17468 0.88442 0.0
C1040 C 0.44999 0.10308 0.90099 0.0
C1041 C 0.43351 0.20361 0.87997 0.0
C1042 C 0.43974 0.97498 0.89597 0.0
C1043 C 0.4423 0.00632 0.89727 0.0
C1044 C 0.40031 0.07474 0.884 0.0
C1045 C 0.44139 0.14937 0.88169 0.0
C1046 C 0.4319 0.11909 0.88803 0.0
C1047 C 0.41632 0.0247 0.89766 0.0
C1048 C 0.41945 0.05805 0.89615 0.0
H1049 H 0.50312 0.18386 0.86289 0.0
H1050 H 0.48453 0.13365 0.87099 0.0
H1051 H 0.39224 0.11718 0.87 0.0
H1052 H 0.36288 0.9693 0.89534 0.0
H1053 H 0.36726 0.0243 0.89809 0.0
C1054 C 0.28715 0.44292 0.37444 0.0
C1055 C 0.28121 0.47067 0.36541 0.0
C1056 C 0.31669 0.43193 0.37563 0.0
C1057 C 0.38154 0.42807 0.38927 0.0
H1058 H 0.44175 0.44236 0.35007 0.0
C1059 C 0.51802 0.44269 0.3815 0.0
C1060 C 0.52886 0.41511 0.38868 0.0
C1061 C 0.48709 0.44717 0.37897 0.0
C1062 C 0.42513 0.43835 0.36115 0.0
H1063 H 0.30128 0.50779 0.34961 0.0
H1064 H 0.35267 0.48905 0.35203 0.0
H1065 H 0.38856 0.4517 0.34309 0.0
H1066 H 0.51611 0.3709 0.39928 0.0
H1067 H 0.46163 0.37906 0.39524 0.0
H1068 H 0.41841 0.41457 0.40726 0.0
C1069 C 0.33461 0.47548 0.35798 0.0
C1070 C 0.39472 0.44369 0.35717 0.0
C1071 C 0.3051 0.48635 0.35668 0.0
C1072 C 0.50819 0.39249 0.39393 0.0
C1073 C 0.47715 0.39712 0.39161 0.0
C1074 C 0.412 0.42239 0.39317 0.0
C1075 C 0.34085 0.44854 0.36789 0.0
C1076 C 0.37263 0.43926 0.37132 0.0
C1077 C 0.46646 0.42421 0.38363 0.0
C1078 C 0.43406 0.42815 0.37927 0.0
H1079 H 0.26914 0.43018 0.38116 0.0
H1080 H 0.32069 0.41079 0.38302 0.0
H1081 H 0.36518 0.42481 0.40058 0.0
H1082 H 0.53341 0.46019 0.3768 0.0
H1083 H 0.47932 0.46834 0.37293 0.0
C1084 C 0.05176 0.28657 0.88121 0.0
C1085 C 0.02332 0.2817 0.87274 0.0
C1086 C 0.06122 0.31589 0.88577 0.0
C1087 C 0.0302 0.3881 0.89975 0.0
H1088 H 0.10407 0.42492 0.88122 0.0
C1089 C 0.04647 0.51619 0.89637 0.0
C1090 C 0.0757 0.5284 0.8972 0.0
C1091 C 0.04219 0.48499 0.89749 0.0
C1092 C 0.08372 0.41481 0.88697 0.0
H1093 H 0.98315 0.30383 0.86161 0.0
H1094 H -0.00042 0.35477 0.86983 0.0
H1095 H 0.09355 0.37195 0.87398 0.0
H1096 H 0.1232 0.51808 0.90084 0.0
H1097 H 0.1157 0.46349 0.90353 0.0
H1098 H 0.02018 0.43062 0.91279 0.0
C1099 C 0.0144 0.3359 0.87297 0.0
C1100 C 0.07767 0.38455 0.88267 0.0
C1101 C 0.00517 0.30676 0.86814 0.0
C1102 C 0.10042 0.5091 0.90024 0.0
C1103 C 0.09612 0.47788 0.90159 0.0
C1104 C 0.03643 0.41816 0.90432 0.0
C1105 C 0.04216 0.34061 0.8822 0.0
C1106 C 0.05044 0.37131 0.88855 0.0
C1107 C 0.06705 0.46537 0.89954 0.0
C1108 C 0.06282 0.43219 0.89747 0.0
H1109 H 0.06624 0.26769 0.88488 0.0
H1110 H 0.08281 0.31913 0.89279 0.0
H1111 H 0.00926 0.37807 0.9047 0.0
H1112 H 0.02711 0.53044 0.89344 0.0
H1113 H 0.01954 0.47624 0.89548 0.0
C1114 C 0.97833 0.09344 0.40539 0.0
C1115 C 0.96028 0.06893 0.39966 0.0
C1116 C 0.00966 0.09019 0.40686 0.0
C1117 C 0.07161 0.033 0.40547 0.0
H1118 H 0.11627 0.09716 0.38026 0.0
C1119 C 0.18326 0.01185 0.36757 0.0
C1120 C 0.20806 0.02865 0.37428 0.0
C1121 C 0.15394 0.01995 0.37269 0.0
C1122 C 0.10409 0.0793 0.38754 0.0
H1123 H 0.96071 0.0218 0.39112 0.0
H1124 H 0.01499 0.01609 0.39355 0.0
H1125 H 0.06286 0.1045 0.3879 0.0
H1126 H 0.22149 0.06846 0.39034 0.0
H1127 H 0.16974 0.08312 0.39882 0.0
H1128 H 0.11251 0.00722 0.40399 0.0
C1129 C 0.00513 0.03761 0.39753 0.0
C1130 C 0.0736 0.0835 0.39205 0.0
C1131 C 0.97386 0.04081 0.3962 0.0
C1132 C 0.20281 0.05501 0.38504 0.0
C1133 C 0.17332 0.06339 0.38992 0.0
C1134 C 0.10188 0.02869 0.4007 0.0
C1135 C 0.02348 0.06247 0.40235 0.0
C1136 C 0.05681 0.06004 0.40059 0.0
C1137 C 0.14885 0.04526 0.38433 0.0
C1138 C 0.11807 0.0515 0.39126 0.0
H1139 H 0.96831 0.1154 0.40806 0.0
H1140 H 0.02311 0.10966 0.41087 0.0
H1141 H 0.05954 0.01476 0.41242 0.0
H1142 H 0.18648 0.99148 0.35921 0.0
H1143 H 0.13524 0.00597 0.36799 0.0
C1144 C 0.43973 0.288 0.13097 0.0
C1145 C 0.46659 0.28312 0.14129 0.0
C1146 C 0.43118 0.31728 0.12576 0.0
C1147 C 0.46545 0.38916 0.11406 0.0
H1148 H 0.38792 0.42606 0.12514 0.0
C1149 C 0.44845 0.51685 0.11666 0.0
C1150 C 0.42001 0.52923 0.11249 0.0
C1151 C 0.45294 0.4857 0.11576 0.0
C1152 C 0.40942 0.41589 0.12147 0.0
H1153 H 0.50454 0.30521 0.15522 0.0
H1154 H 0.48967 0.35614 0.14595 0.0
H1155 H 0.3967 0.37324 0.13367 0.0
H1156 H 0.37438 0.51915 0.10322 0.0
H1157 H 0.38239 0.46453 0.10119 0.0
H1158 H 0.4784 0.43157 0.10196 0.0
C1159 C 0.47546 0.33728 0.14179 0.0
C1160 C 0.41445 0.38574 0.1265 0.0
C1161 C 0.48378 0.30815 0.14722 0.0
C1162 C 0.39656 0.51008 0.10644 0.0
C1163 C 0.40109 0.47886 0.10542 0.0
C1164 C 0.46032 0.41911 0.10881 0.0
C1165 C 0.44959 0.34197 0.13058 0.0
C1166 C 0.44282 0.37252 0.12338 0.0
C1167 C 0.42906 0.46627 0.11068 0.0
C1168 C 0.4326 0.43313 0.11302 0.0
H1169 H 0.42598 0.26914 0.12626 0.0
H1170 H 0.41102 0.3205 0.1172 0.0
H1171 H 0.48733 0.37913 0.11117 0.0
H1172 H 0.46665 0.53086 0.122 0.0
H1173 H 0.47459 0.47678 0.12029 0.0
C1174 C 0.18227 0.48034 0.64597 0.0
C1175 C 0.20742 0.46247 0.64117 0.0
C1176 C 0.15315 0.47073 0.64142 0.0
C1177 C 0.10406 0.40811 0.63294 0.0
H1178 H 0.0594 0.46379 0.60069 0.0
C1179 C 0.97871 0.38732 0.61575 0.0
C1180 C 0.96015 0.41289 0.61769 0.0
C1181 C 0.0101 0.39049 0.61461 0.0
C1182 C 0.07147 0.44805 0.60976 0.0
H1183 H 0.22167 0.41961 0.62902 0.0
H1184 H 0.17022 0.40236 0.62163 0.0
H1185 H 0.11216 0.47422 0.60845 0.0
H1186 H 0.95969 0.46177 0.61998 0.0
H1187 H 0.01411 0.4674 0.61822 0.0
H1188 H 0.06303 0.38287 0.63534 0.0
C1189 C 0.1734 0.42403 0.62858 0.0
C1190 C 0.10165 0.45398 0.61411 0.0
C1191 C 0.20271 0.43389 0.63283 0.0
C1192 C 0.97334 0.44172 0.61783 0.0
C1193 C 0.00466 0.4449 0.61688 0.0
C1194 C 0.07364 0.40239 0.62885 0.0
C1195 C 0.14857 0.44286 0.63232 0.0
C1196 C 0.11791 0.43444 0.62607 0.0
C1197 C 0.02349 0.41929 0.61573 0.0
C1198 C 0.05678 0.42274 0.61761 0.0
H1199 H 0.18508 0.50246 0.6524 0.0
H1200 H 0.13418 0.48539 0.64464 0.0
H1201 H 0.11629 0.39281 0.64223 0.0
H1202 H 0.96899 0.36483 0.61574 0.0
H1203 H 0.02388 0.37033 0.61344 0.0
C1204 C 0.0467 0.97281 0.1331 0.0
C1205 C 0.07311 0.96096 0.1249 0.0
C1206 C 0.04373 0.00389 0.13592 0.0
C1207 C 0.07016 0.07802 0.12084 0.0
H1208 H 0.04554 0.10271 0.17168 0.0
C1209 C 0.05377 0.20363 0.13939 0.0
C1210 C 0.0267 0.21015 0.14905 0.0
C1211 C 0.06428 0.17388 0.13817 0.0
C1212 C 0.05227 0.09621 0.15739 0.0
H1213 H 0.11688 0.972 0.11294 0.0
H1214 H 0.11133 0.02675 0.11743 0.0
H1215 H 0.05259 0.04917 0.16459 0.0
H1216 H 0.9905 0.19093 0.16608 0.0
H1217 H 0.00837 0.13926 0.16366 0.0
H1218 H 0.06865 0.12486 0.11335 0.0
C1219 C 0.093 0.01193 0.12163 0.0
C1220 C 0.0563 0.06559 0.15335 0.0
C1221 C 0.09613 0.98075 0.11904 0.0
C1222 C 0.01138 0.18667 0.15846 0.0
C1223 C 0.02177 0.15699 0.15717 0.0
C1224 C 0.06579 0.10868 0.12481 0.0
C1225 C 0.06708 0.02364 0.13053 0.0
C1226 C 0.06473 0.05621 0.13496 0.0
C1227 C 0.04787 0.15011 0.14657 0.0
C1228 C 0.05624 0.11807 0.14305 0.0
H1229 H 0.02901 0.958 0.13827 0.0
H1230 H 0.02344 0.01245 0.14269 0.0
H1231 H 0.07664 0.07128 0.10654 0.0
H1232 H 0.06622 0.22129 0.13211 0.0
H1233 H 0.08479 0.16939 0.13022 0.0
C1234 C 0.28463 0.05076 0.63639 0.0
C1235 C 0.28006 0.0219 0.64433 0.0
C1236 C 0.31383 0.06066 0.63195 0.0
C1237 C 0.38536 0.03068 0.61657 0.0
H1238 H 0.42366 0.10255 0.63709 0.0
C1239 C 0.51357 0.04472 0.61915 0.0
C1240 C 0.5263 0.07375 0.6188 0.0
C1241 C 0.48229 0.04106 0.61841 0.0
C1242 C 0.41311 0.0828 0.6308 0.0
H1243 H 0.30257 0.98145 0.65471 0.0
H1244 H 0.3533 -0.00137 0.64666 0.0
H1245 H 0.37074 0.09207 0.64456 0.0
H1246 H 0.51673 0.12164 0.61657 0.0
H1247 H 0.4619 0.11528 0.61462 0.0
H1248 H 0.42736 0.02119 0.60278 0.0
C1249 C 0.33429 0.01345 0.64386 0.0
C1250 C 0.3829 0.07677 0.63522 0.0
C1251 C 0.30528 0.00378 0.64859 0.0
C1252 C 0.50735 0.099 0.61677 0.0
C1253 C 0.47601 0.09535 0.61583 0.0
C1254 C 0.41534 0.03691 0.6119 0.0
C1255 C 0.33869 0.04162 0.6351 0.0
C1256 C 0.36918 0.05019 0.62862 0.0
C1257 C 0.46307 0.06638 0.61724 0.0
C1258 C 0.42991 0.06251 0.61947 0.0
H1259 H 0.26561 0.06524 0.63301 0.0
H1260 H 0.31686 0.08256 0.62528 0.0
H1261 H 0.37493 0.01026 0.61108 0.0
H1262 H 0.52756 0.02493 0.62135 0.0
H1263 H 0.4732 0.01845 0.61995 0.0
C1264 C 0.84323 0.30232 0.15569 0.0
C1265 C 0.86748 0.28178 0.15651 0.0
C1266 C 0.81381 0.29277 0.15959 0.0
C1267 C 0.76735 0.22533 0.15648 0.0
H1268 H 0.70825 0.27319 0.18409 0.0
C1269 C 0.64431 0.18658 0.16078 0.0
C1270 C 0.62223 0.20883 0.15754 0.0
C1271 C 0.67417 0.19474 0.16452 0.0
C1272 C 0.72446 0.25967 0.17625 0.0
H1273 H 0.88001 0.23539 0.16282 0.0
H1274 H 0.82845 0.21868 0.1695 0.0
H1275 H 0.76127 0.28891 0.18378 0.0
H1276 H 0.61375 0.25708 0.15647 0.0
H1277 H 0.66623 0.27143 0.1624 0.0
H1278 H 0.73075 0.1968 0.14821 0.0
C1279 C 0.83232 0.24214 0.16574 0.0
C1280 C 0.75478 0.26861 0.17614 0.0
C1281 C 0.86181 0.25173 0.16198 0.0
C1282 C 0.63032 0.23946 0.15893 0.0
C1283 C 0.66037 0.24765 0.16243 0.0
C1284 C 0.7371 0.21653 0.15646 0.0
C1285 C 0.80799 0.26246 0.16428 0.0
C1286 C 0.77644 0.25168 0.16606 0.0
C1287 C 0.68276 0.22533 0.16482 0.0
C1288 C 0.71521 0.23374 0.16617 0.0
H1289 H 0.84683 0.32568 0.15164 0.0
H1290 H 0.79547 0.30886 0.15817 0.0
H1291 H 0.78344 0.21214 0.1483 0.0
H1292 H 0.63863 0.16277 0.16013 0.0
H1293 H 0.69066 0.17698 0.16679 0.0
C1294 C 0.24744 0.62514 0.66149 0.0
C1295 C 0.27802 0.61991 0.65715 0.0
C1296 C 0.23723 0.65442 0.66538 0.0
C1297 C 0.26223 0.7319 0.67785 0.0
H1298 H 0.19314 0.75649 0.64752 0.0
C1299 C 0.23498 0.85671 0.66041 0.0
C1300 C 0.20454 0.86496 0.65807 0.0
C1301 C 0.24276 0.82656 0.66396 0.0
C1302 C 0.21207 0.74997 0.65643 0.0
H1303 H 0.32215 0.64109 0.65449 0.0
H1304 H 0.30429 0.692 0.66121 0.0
H1305 H 0.20848 0.70377 0.64773 0.0
H1306 H 0.15828 0.84864 0.65899 0.0
H1307 H 0.17175 0.79644 0.6657 0.0
H1308 H 0.26608 0.7783 0.6863 0.0
C1309 C 0.28823 0.67351 0.66166 0.0
C1310 C 0.22086 0.71969 0.65653 0.0
C1311 C 0.29839 0.64434 0.65764 0.0
C1312 C 0.18199 0.84288 0.66039 0.0
C1313 C 0.18972 0.81292 0.66417 0.0
C1314 C 0.2533 0.76223 0.67786 0.0
C1315 C 0.25746 0.67896 0.66517 0.0
C1316 C 0.24631 0.71042 0.66697 0.0
C1317 C 0.2202 0.80421 0.66545 0.0
C1318 C 0.22838 0.7717 0.66691 0.0
H1319 H 0.2312 0.60679 0.66129 0.0
H1320 H 0.21342 0.65798 0.66821 0.0
H1321 H 0.28179 0.72528 0.68617 0.0
H1322 H 0.25284 0.87325 0.65868 0.0
H1323 H 0.26648 0.82061 0.66471 0.0
C1324 C 0.86073 0.24015 0.85359 0.0
C1325 C 0.86634 0.20982 0.85843 0.0
C1326 C 0.83127 0.24989 0.84974 0.0
C1327 C 0.75405 0.22329 0.83802 0.0
H1328 H 0.72877 0.29399 0.8666 0.0
C1329 C 0.629 0.25059 0.85481 0.0
C1330 C 0.62054 0.28111 0.85633 0.0
C1331 C 0.65919 0.24279 0.85144 0.0
C1332 C 0.73548 0.27457 0.85818 0.0
H1333 H 0.84563 0.16565 0.86213 0.0
H1334 H 0.79445 0.18269 0.8555 0.0
H1335 H 0.78163 0.27917 0.86677 0.0
H1336 H 0.63652 0.32738 0.85413 0.0
H1337 H 0.68877 0.31385 0.84773 0.0
H1338 H 0.70769 0.21844 0.82969 0.0
C1339 C 0.81276 0.19891 0.8546 0.0
C1340 C 0.76584 0.26608 0.8583 0.0
C1341 C 0.8421 0.18923 0.85858 0.0
C1342 C 0.64243 0.30364 0.85335 0.0
C1343 C 0.67243 0.29588 0.84976 0.0
C1344 C 0.72363 0.2319 0.8378 0.0
C1345 C 0.80695 0.22942 0.85049 0.0
C1346 C 0.77537 0.2401 0.84849 0.0
C1347 C 0.68137 0.2654 0.84933 0.0
C1348 C 0.71393 0.2574 0.84812 0.0
H1349 H 0.87892 0.25655 0.85328 0.0
H1350 H 0.82743 0.27351 0.84644 0.0
H1351 H 0.76086 0.2033 0.83017 0.0
H1352 H 0.61259 0.23274 0.85707 0.0
H1353 H 0.66533 0.21908 0.85134 0.0
C1354 C 0.24649 0.86765 0.35196 0.0
C1355 C 0.27721 0.87243 0.35614 0.0
C1356 C 0.23588 0.83857 0.3479 0.0
C1357 C 0.25968 0.76099 0.33486 0.0
H1358 H 0.1918 0.73666 0.36628 0.0
C1359 C 0.23377 0.63651 0.35338 0.0
C1360 C 0.20351 0.62804 0.35624 0.0
C1361 C 0.24115 0.66664 0.34952 0.0
C1362 C 0.21035 0.74311 0.35706 0.0
H1363 H 0.32115 0.85076 0.35827 0.0
H1364 H 0.30261 0.80019 0.35124 0.0
H1365 H 0.20723 0.78935 0.36575 0.0
H1366 H 0.1571 0.64398 0.356 0.0
H1367 H 0.16987 0.6962 0.34879 0.0
H1368 H 0.26313 0.71455 0.32644 0.0
C1369 C 0.28674 0.81886 0.35106 0.0
C1370 C 0.2192 0.77337 0.35678 0.0
C1371 C 0.2973 0.84782 0.35525 0.0
C1372 C 0.18069 0.64991 0.35419 0.0
C1373 C 0.18801 0.67988 0.35012 0.0
C1374 C 0.2507 0.73068 0.33503 0.0
C1375 C 0.25584 0.81382 0.34777 0.0
C1376 C 0.2443 0.78252 0.34598 0.0
C1377 C 0.21837 0.68879 0.34825 0.0
C1378 C 0.22627 0.7213 0.34643 0.0
H1379 H 0.23046 0.88616 0.35245 0.0
H1380 H 0.21196 0.83531 0.34526 0.0
H1381 H 0.27896 0.76753 0.32626 0.0
H1382 H 0.25184 0.62014 0.35488 0.0
H1383 H 0.26479 0.67276 0.34835 0.0
C1384 C 0.13896 0.73326 0.85385 0.0
C1385 C 0.13047 0.70319 0.85746 0.0
C1386 C 0.1693 0.74064 0.85077 0.0
C1387 C 0.24571 0.71141 0.86114 0.0
H1388 H 0.27089 0.77763 0.82852 0.0
C1389 C 0.37041 0.74751 0.85542 0.0
C1390 C 0.37517 0.7785 0.85879 0.0
C1391 C 0.34132 0.73657 0.8518 0.0
C1392 C 0.26413 0.75904 0.83765 0.0
H1393 H 0.14683 0.65704 0.85959 0.0
H1394 H 0.1995 0.66976 0.8537 0.0
H1395 H 0.2181 0.76129 0.82831 0.0
H1396 H 0.35341 0.82249 0.86 0.0
H1397 H 0.30278 0.80336 0.85361 0.0
H1398 H 0.29166 0.70938 0.8706 0.0
C1399 C 0.18294 0.68781 0.85381 0.0
C1400 C 0.23392 0.74977 0.8376 0.0
C1401 C 0.15271 0.6805 0.85711 0.0
C1402 C 0.35048 0.79846 0.8576 0.0
C1403 C 0.3215 0.78756 0.85378 0.0
C1404 C 0.27592 0.72049 0.86104 0.0
C1405 C 0.19172 0.71805 0.85103 0.0
C1406 C 0.22424 0.7262 0.84962 0.0
C1407 C 0.31654 0.75645 0.85124 0.0
C1408 C 0.28531 0.74474 0.84956 0.0
H1409 H 0.12235 0.75126 0.85407 0.0
H1410 H 0.17526 0.76421 0.84892 0.0
H1411 H 0.23903 0.69356 0.87084 0.0
H1412 H 0.38897 0.73157 0.8562 0.0
H1413 H 0.33809 0.71249 0.84975 0.0
C1414 C 0.75487 0.12823 0.35362 0.0
C1415 C 0.78527 0.11996 0.35614 0.0
C1416 C 0.74718 0.15834 0.34991 0.0
C1417 C 0.77784 0.23496 0.35727 0.0
H1418 H 0.70819 0.25926 0.32733 0.0
C1419 C 0.7418 0.35959 0.35181 0.0
C1420 C 0.71121 0.36462 0.35624 0.0
C1421 C 0.7522 0.33035 0.348 0.0
C1422 C 0.72775 0.25275 0.3357 0.0
H1423 H 0.83156 0.13619 0.3554 0.0
H1424 H 0.81825 0.18835 0.34843 0.0
H1425 H 0.72411 0.2063 0.32732 0.0
H1426 H 0.66728 0.34314 0.35915 0.0
H1427 H 0.68547 0.29229 0.35255 0.0
H1428 H 0.78121 0.28123 0.36588 0.0
C1429 C 0.80025 0.17192 0.34993 0.0
C1430 C 0.73679 0.22245 0.33576 0.0
C1431 C 0.80788 0.14198 0.35387 0.0
C1432 C 0.69103 0.34003 0.35594 0.0
C1433 C 0.70138 0.31091 0.35198 0.0
C1434 C 0.76895 0.26521 0.35709 0.0
C1435 C 0.76978 0.18064 0.34844 0.0
C1436 C 0.76164 0.21313 0.34682 0.0
C1437 C 0.73215 0.30568 0.34836 0.0
C1438 C 0.7435 0.27431 0.34659 0.0
H1439 H 0.73697 0.11172 0.35531 0.0
H1440 H 0.72347 0.1643 0.34903 0.0
H1441 H 0.79672 0.22856 0.36625 0.0
H1442 H 0.75788 0.37807 0.35186 0.0
H1443 H 0.77601 0.32695 0.3451 0.0
C1444 C 0.34074 0.67948 0.15805 0.0
C1445 C 0.36274 0.70233 0.15681 0.0
C1446 C 0.31059 0.68673 0.16158 0.0
C1447 C 0.2591 0.749 0.17645 0.0
H1448 H 0.20204 0.70664 0.14393 0.0
C1449 C 0.14281 0.79631 0.15511 0.0
C1450 C 0.11819 0.77628 0.15383 0.0
C1451 C 0.1717 0.78558 0.15931 0.0
C1452 C 0.21757 0.71829 0.15338 0.0
H1453 H 0.37064 0.75059 0.15904 0.0
H1454 H 0.31773 0.76343 0.16463 0.0
H1455 H 0.25474 0.69118 0.14424 0.0
H1456 H 0.1044 0.72939 0.15664 0.0
H1457 H 0.15514 0.71058 0.16382 0.0
H1458 H 0.22184 0.77697 0.18488 0.0
C1459 C 0.32387 0.73982 0.16325 0.0
C1460 C 0.24782 0.70943 0.15359 0.0
C1461 C 0.35418 0.73251 0.15994 0.0
C1462 C 0.12292 0.74538 0.15746 0.0
C1463 C 0.15194 0.73459 0.16151 0.0
C1464 C 0.22882 0.75801 0.17613 0.0
C1465 C 0.30163 0.71704 0.16369 0.0
C1466 C 0.26906 0.72495 0.16491 0.0
C1467 C 0.17665 0.75456 0.1622 0.0
C1468 C 0.20788 0.74302 0.16436 0.0
H1469 H 0.34673 0.65594 0.15602 0.0
H1470 H 0.29418 0.66857 0.16228 0.0
H1471 H 0.27478 0.7611 0.18556 0.0
H1472 H 0.13993 0.82029 0.15253 0.0
H1473 H 0.19036 0.80144 0.15955 0.0
C1474 C 0.68259 0.14654 0.65484 0.0
C1475 C 0.70498 0.12416 0.65311 0.0
C1476 C 0.69053 0.17656 0.65832 0.0
C1477 C 0.7544 0.22647 0.67272 0.0
H1478 H 0.71063 0.28581 0.64273 0.0
C1479 C 0.80005 0.34498 0.65402 0.0
C1480 C 0.77966 0.36938 0.65424 0.0
C1481 C 0.78994 0.31557 0.6574 0.0
C1482 C 0.72274 0.2696 0.65145 0.0
H1483 H 0.75321 0.11552 0.65424 0.0
H1484 H 0.76721 0.16814 0.6597 0.0
H1485 H 0.69488 0.23318 0.64196 0.0
H1486 H 0.73286 0.38219 0.65894 0.0
H1487 H 0.71519 0.33065 0.66467 0.0
H1488 H 0.78307 0.26304 0.68149 0.0
C1489 C 0.74344 0.16242 0.65878 0.0
C1490 C 0.7137 0.2394 0.65105 0.0
C1491 C 0.73545 0.13227 0.65552 0.0
C1492 C 0.74912 0.36387 0.6586 0.0
C1493 C 0.73897 0.3344 0.66181 0.0
C1494 C 0.76362 0.2567 0.67297 0.0
C1495 C 0.72108 0.18499 0.6599 0.0
C1496 C 0.7296 0.21739 0.66151 0.0
C1497 C 0.75921 0.30994 0.66093 0.0
C1498 C 0.74804 0.27847 0.66218 0.0
H1499 H 0.65886 0.14093 0.65332 0.0
H1500 H 0.67269 0.19323 0.65953 0.0
H1501 H 0.76685 0.21019 0.68118 0.0
H1502 H 0.82376 0.34847 0.65082 0.0
H1503 H 0.80598 0.29711 0.65647 0.0
C1504 C 0.35259 0.01136 0.30389 0.0
C1505 C 0.36314 0.01709 0.32242 0.0
C1506 C 0.36643 0.02502 0.28817 0.0
C1507 C 0.43712 0.06457 0.27351 0.0
H1508 H 0.38817 0.08902 0.23023 0.0
C1509 C 0.48254 0.13897 0.21187 0.0
C1510 C 0.47572 0.12907 0.19332 0.0
C1511 C 0.46891 0.12528 0.22766 0.0
C1512 C 0.40213 0.08211 0.24217 0.0
H1513 H 0.39634 0.04109 0.33926 0.0
H1514 H 0.42007 0.06593 0.31191 0.0
H1515 H 0.36405 0.0658 0.25786 0.0
H1516 H 0.44995 0.09708 0.17655 0.0
H1517 H 0.42556 0.07332 0.2042 0.0
H1518 H 0.47509 0.08166 0.25785 0.0
C1519 C 0.40151 0.05048 0.30935 0.0
C1520 C 0.38836 0.06868 0.258 0.0
C1521 C 0.38784 0.0365 0.32504 0.0
C1522 C 0.45524 0.1052 0.19076 0.0
C1523 C 0.44129 0.09174 0.20654 0.0
C1524 C 0.45081 0.07836 0.25777 0.0
C1525 C 0.39102 0.0449 0.29067 0.0
C1526 C 0.40568 0.05959 0.27388 0.0
C1527 C 0.44805 0.1016 0.22515 0.0
C1528 C 0.43348 0.08716 0.24191 0.0
H1529 H 0.33387 -0.00401 0.30156 0.0
H1530 H 0.35811 0.0196 0.27404 0.0
H1531 H 0.45132 0.05741 0.28526 0.0
H1532 H 0.49862 0.15711 0.21413 0.0
H1533 H 0.47443 0.13341 0.24183 0.0
C1534 C 0.48941 0.37517 0.80778 0.0
C1535 C 0.47215 0.3597 0.82142 0.0
C1536 C 0.47553 0.38832 0.79191 0.0
C1537 C 0.40414 0.38823 0.76362 0.0
H1538 H 0.43629 0.46419 0.7449 0.0
C1539 C 0.36268 0.44218 0.69299 0.0
C1540 C 0.3614 0.47381 0.69206 0.0
C1541 C 0.3757 0.4279 0.70881 0.0
C1542 C 0.42671 0.44317 0.75004 0.0
H1543 H 0.42713 0.34527 0.82925 0.0
H1544 H 0.40244 0.36911 0.80181 0.0
H1545 H 0.45906 0.44049 0.7726 0.0
H1546 H 0.37136 0.51549 0.70694 0.0
H1547 H 0.39332 0.49079 0.73486 0.0
H1548 H 0.37096 0.39164 0.74149 0.0
C1549 C 0.42679 0.37068 0.80309 0.0
C1550 C 0.44015 0.42926 0.7658 0.0
C1551 C 0.44081 0.3572 0.81886 0.0
C1552 C 0.37264 0.49102 0.70729 0.0
C1553 C 0.38533 0.47681 0.7232 0.0
C1554 C 0.39046 0.40233 0.74796 0.0
C1555 C 0.44397 0.38656 0.78943 0.0
C1556 C 0.42919 0.40151 0.77276 0.0
C1557 C 0.38729 0.44504 0.72413 0.0
C1558 C 0.40162 0.42998 0.74091 0.0
H1559 H 0.51373 0.37689 0.80933 0.0
H1560 H 0.48965 0.39965 0.78151 0.0
H1561 H 0.39524 0.36671 0.7684 0.0
H1562 H 0.35397 0.42855 0.68136 0.0
H1563 H 0.37712 0.40345 0.70886 0.0
C1564 C 0.10341 0.45797 0.32407 0.0
C1565 C 0.12536 0.48039 0.32128 0.0
C1566 C 0.08976 0.44386 0.30839 0.0
C1567 C 0.09954 0.43168 0.25608 0.0
H1568 H 0.01525 0.40809 0.25881 0.0
C1569 C 0.04289 0.36098 0.19653 0.0
C1570 C 0.0126 0.36725 0.19209 0.0
C1571 C 0.05671 0.37456 0.21232 0.0
C1572 C 0.03872 0.41481 0.25768 0.0
H1573 H 0.14964 0.50666 0.30026 0.0
H1574 H 0.12531 0.48279 0.2728 0.0
H1575 H 0.03869 0.43302 0.28595 0.0
H1576 H 0.97276 0.39213 0.20084 0.0
H1577 H -0.00287 0.41703 0.2278 0.0
H1578 H 0.09922 0.41465 0.22751 0.0
C1579 C 0.11924 0.47519 0.28698 0.0
C1580 C 0.05235 0.42873 0.27341 0.0
C1581 C 0.13308 0.489 0.30266 0.0
C1582 C -0.00365 0.38735 0.20372 0.0
C1583 C 0.01022 0.40122 0.21937 0.0
C1584 C 0.08583 0.41806 0.24027 0.0
C1585 C 0.0975 0.45228 0.28961 0.0
C1586 C 0.08296 0.43734 0.27285 0.0
C1587 C 0.04057 0.39492 0.22396 0.0
C1588 C 0.05523 0.40941 0.24084 0.0
H1589 H 0.09711 0.45113 0.33837 0.0
H1590 H 0.07346 0.42608 0.31102 0.0
H1591 H 0.12326 0.43755 0.25516 0.0
H1592 H 0.05588 0.34548 0.18779 0.0
H1593 H 0.07994 0.36872 0.21554 0.0
C1594 C 0.99418 0.11729 0.80536 0.0
C1595 C 0.01155 0.12782 0.82073 0.0
C1596 C 0.00816 0.10425 0.78947 0.0
C1597 C 0.08252 0.09703 0.76491 0.0
H1598 H 0.04333 0.02862 0.74067 0.0
C1599 C 0.12711 0.0448 0.69447 0.0
C1600 C 0.12473 0.01336 0.6923 0.0
C1601 C 0.11351 0.05929 0.71002 0.0
C1602 C 0.0548 0.0475 0.74735 0.0
H1603 H 0.05689 0.13385 0.83161 0.0
H1604 H 0.08157 0.11027 0.80408 0.0
H1605 H 0.01981 0.05245 0.76814 0.0
H1606 H 0.10754 0.97213 0.70487 0.0
H1607 H 0.08432 -0.00287 0.73226 0.0
H1608 H 0.11812 0.09128 0.74454 0.0
C1609 C 0.05718 0.11239 0.80406 0.0
C1610 C 0.04103 0.06151 0.76298 0.0
C1611 C 0.04313 0.12568 0.81988 0.0
C1612 C 0.10913 -0.00349 0.70609 0.0
C1613 C 0.09576 0.0109 0.72172 0.0
C1614 C 0.09644 0.08284 0.74936 0.0
C1615 C 0.03986 0.10134 0.78867 0.0
C1616 C 0.05466 0.08651 0.77197 0.0
C1617 C 0.09756 0.04253 0.72385 0.0
C1618 C 0.08276 0.05786 0.74037 0.0
H1619 H 0.96976 0.11924 0.80564 0.0
H1620 H 0.99409 0.09668 0.77776 0.0
H1621 H 0.09355 0.11643 0.77129 0.0
H1622 H 0.13917 0.05817 0.68398 0.0
H1623 H 0.1151 0.08368 0.71103 0.0
C1624 C 0.63788 0.94836 0.69874 0.0
C1625 C 0.62821 0.97714 0.6929 0.0
C1626 C 0.62582 0.93492 0.71513 0.0
C1627 C 0.58053 0.95335 0.75887 0.0
H1628 H 0.57138 0.8662 0.76143 0.0
C1629 C 0.50443 0.88898 0.81276 0.0
C1630 C 0.51981 0.868 0.82429 0.0
C1631 C 0.51896 0.90257 0.79727 0.0
C1632 C 0.57401 0.89055 0.76088 0.0
H1633 H 0.5987 0.01467 0.69987 0.0
H1634 H 0.57599 0.99054 0.72745 0.0
H1635 H 0.59336 0.88918 0.73297 0.0
H1636 H 0.56235 0.84462 0.82855 0.0
H1637 H 0.58733 0.86742 0.80079 0.0
H1638 H 0.55957 0.95445 0.78649 0.0
C1639 C 0.59356 0.97849 0.71985 0.0
C1640 C 0.58679 0.9038 0.74465 0.0
C1641 C 0.60612 0.99215 0.70373 0.0
C1642 C 0.5499 0.86056 0.81984 0.0
C1643 C 0.5642 0.87361 0.80405 0.0
C1644 C 0.56712 0.94011 0.77488 0.0
C1645 C 0.60337 0.94975 0.72592 0.0
C1646 C 0.59021 0.93544 0.74337 0.0
C1647 C 0.54886 0.89481 0.79272 0.0
C1648 C 0.56378 0.90865 0.776 0.0
H1649 H 0.65486 0.93624 0.69064 0.0
H1650 H 0.63446 0.91305 0.71943 0.0
H1651 H 0.5834 0.97766 0.75877 0.0
H1652 H 0.48099 0.89454 0.81549 0.0
H1653 H 0.50663 0.91864 0.78857 0.0
C1654 C 0.50166 0.62875 0.21081 0.0
C1655 C 0.5099 0.62164 0.19201 0.0
C1656 C 0.51547 0.61405 0.22617 0.0
C1657 C 0.58452 0.57372 0.23982 0.0
H1658 H 0.53594 0.54335 0.28171 0.0
C1659 C 0.63676 0.50325 0.30096 0.0
C1660 C 0.6255 0.50791 0.31944 0.0
C1661 C 0.62251 0.51652 0.28523 0.0
C1662 C 0.54993 0.55207 0.27028 0.0
H1663 H 0.53834 0.59347 0.17428 0.0
H1664 H 0.56298 0.56786 0.20121 0.0
H1665 H 0.51135 0.56773 0.25463 0.0
H1666 H 0.59058 0.52957 0.33616 0.0
H1667 H 0.56605 0.55361 0.30882 0.0
H1668 H 0.62316 0.55878 0.25557 0.0
C1669 C 0.546 0.58491 0.20409 0.0
C1670 C 0.53578 0.56593 0.25473 0.0
C1671 C 0.5319 0.59941 0.18872 0.0
C1672 C 0.59967 0.52581 0.32199 0.0
C1673 C 0.58554 0.53933 0.3063 0.0
C1674 C 0.59871 0.56014 0.25547 0.0
C1675 C 0.53791 0.5921 0.22298 0.0
C1676 C 0.55292 0.57692 0.23934 0.0
C1677 C 0.59674 0.53483 0.28769 0.0
C1678 C 0.58161 0.54914 0.27093 0.0
H1679 H 0.48444 0.64561 0.21361 0.0
H1680 H 0.50891 0.62018 0.24056 0.0
H1681 H 0.59833 0.58232 0.22827 0.0
H1682 H 0.65633 0.48897 0.29867 0.0
H1683 H 0.63144 0.51199 0.27113 0.0
C1684 C 0.88644 0.49939 0.70216 0.0
C1685 C 0.8648 0.51488 0.69118 0.0
C1686 C 0.90048 0.51357 0.71763 0.0
C1687 C 0.89015 0.56933 0.75443 0.0
H1688 H 0.97755 0.57604 0.75539 0.0
C1689 C 0.95204 0.63522 0.8142 0.0
C1690 C 0.98082 0.62527 0.81986 0.0
C1691 C 0.93759 0.62226 0.79842 0.0
C1692 C 0.95317 0.5739 0.75562 0.0
H1693 H 0.84044 0.5571 0.68805 0.0
H1694 H 0.86414 0.58149 0.71575 0.0
H1695 H 0.95273 0.55198 0.72829 0.0
H1696 H 0.01719 0.59415 0.8133 0.0
H1697 H 0.9913 0.57001 0.78677 0.0
H1698 H 0.89032 0.58985 0.78205 0.0
C1699 C 0.8705 0.55855 0.71207 0.0
C1700 C 0.939 0.56034 0.73996 0.0
C1701 C 0.85694 0.5446 0.6963 0.0
C1702 C -0.00527 0.60188 0.80955 0.0
C1703 C 0.98005 0.58846 0.79403 0.0
C1704 C 0.90433 0.58231 0.77031 0.0
C1705 C 0.89257 0.54321 0.72275 0.0
C1706 C 0.9074 0.55799 0.73923 0.0
C1707 C 0.95136 0.59863 0.78809 0.0
C1708 C 0.93609 0.58482 0.77115 0.0
H1709 H 0.8923 0.47617 0.69893 0.0
H1710 H 0.91718 0.50119 0.72583 0.0
H1711 H 0.86572 0.56749 0.75422 0.0
H1712 H 0.94074 0.65317 0.82193 0.0
H1713 H 0.9158 0.63119 0.7942 0.0
C1714 C 0.95785 0.88758 0.18957 0.0
C1715 C 0.97567 0.86157 0.19157 0.0
C1716 C 0.94464 0.9011 0.20557 0.0
C1717 C 0.92497 0.88624 0.25643 0.0
H1718 H 0.91816 0.97363 0.25854 0.0
C1719 C 0.88849 0.95144 0.3245 0.0
C1720 C 0.86622 0.97358 0.32174 0.0
C1721 C 0.90237 0.93765 0.30879 0.0
C1722 C 0.91976 0.94919 0.25809 0.0
H1723 H -0.00534 0.82969 0.21168 0.0
H1724 H 0.97225 0.85356 0.23978 0.0
H1725 H 0.94155 0.94978 0.23086 0.0
H1726 H 0.84148 -0.00045 0.30074 0.0
H1727 H 0.86589 0.97568 0.27319 0.0
H1728 H 0.90363 0.8859 0.2839 0.0
C1729 C 0.96754 0.8631 0.22586 0.0
C1730 C 0.93304 0.93546 0.24219 0.0
C1731 C 0.98047 0.84944 0.20981 0.0
C1732 C 0.85842 0.98225 0.30312 0.0
C1733 C 0.87252 0.96877 0.28743 0.0
C1734 C 0.91199 0.90002 0.27243 0.0
C1735 C 0.9494 0.88912 0.22396 0.0
C1736 C 0.93566 0.90377 0.24107 0.0
C1737 C 0.89452 0.94621 0.29009 0.0
C1738 C 0.90908 0.93162 0.27337 0.0
H1739 H 0.95398 0.89731 0.17558 0.0
H1740 H 0.93047 0.92079 0.20347 0.0
H1741 H 0.92611 0.86179 0.25598 0.0
H1742 H 0.89494 0.94465 0.33879 0.0
H1743 H 0.91947 0.92056 0.31125 0.0
loop_
_geom_bond_atom_site_label_1
_geom_bond_atom_site_label_2
_geom_bond_distance
_geom_bond_site_symmetry_2
_ccdc_geom_bond_type
Co0 O3 1.970 . S
Co0 N17 1.989 . S
Co0 O25 1.967 . S
Co0 O32 1.920 . S
Co1 O4 1.966 . S
Co1 N10 2.022 . S
Co1 N18 1.993 . S
Co1 O26 1.941 . S
C2 O3 1.258 . S
C2 O4 1.263 . S
O3 Co0 1.970 . S
O3 C2 1.258 . S
O4 Co1 1.966 . S
O4 C2 1.263 . S
C5 O6 1.235 . S
C5 O32 1.289 . S
O6 C5 1.235 . S
C7 C9 1.400 . S
C7 N10 1.351 . S
C7 C12 1.501 . S
C8 C9 1.387 . S
C8 N11 1.341 . S
C9 C7 1.400 . S
C9 C8 1.387 . S
N10 Co1 2.022 . S
N10 C7 1.351 . S
N10 N11 1.365 . S
N11 C8 1.341 . S
N11 N10 1.365 . S
N11 H31 0.862 . S
C12 C7 1.501 . S
C12 H13 0.961 . S
C12 H14 0.961 . S
C12 H15 0.960 . S
H13 C12 0.961 . S
H14 C12 0.961 . S
H15 C12 0.960 . S
C16 N17 1.342 . S
C16 C20 1.401 . S
C16 C21 1.499 . S
N17 Co0 1.989 . S
N17 C16 1.342 . S
N17 N18 1.388 . S
N18 Co1 1.993 . S
N18 N17 1.388 . S
N18 C19 1.346 . S
C19 N18 1.346 . S
C19 C20 1.396 . S
C19 C29 1.510 . S
C20 C16 1.401 . S
C20 C19 1.396 . S
C21 C16 1.499 . S
C21 H22 0.959 . S
C21 H23 0.960 . S
C21 H24 0.961 . S
H22 C21 0.959 . S
H23 C21 0.960 . S
H24 C21 0.961 . S
O25 Co0 1.967 . S
O25 C33 1.258 . S
O26 Co1 1.941 . S
O26 C33 1.266 . S
H27 C29 0.959 . S
H28 C29 0.961 . S
C29 C19 1.510 . S
C29 H27 0.959 . S
C29 H28 0.961 . S
C29 H30 0.960 . S
H30 C29 0.960 . S
H31 N11 0.862 . S
O32 Co0 1.920 . S
O32 C5 1.289 . S
C33 O25 1.258 . S
C33 O26 1.266 . S
Co34 O37 1.970 . S
Co34 N51 1.989 . S
Co34 O59 1.967 . S
Co34 O66 1.920 . S
Co35 O38 1.966 . S
Co35 N44 2.022 . S
Co35 N52 1.993 . S
Co35 O60 1.941 . S
C36 O37 1.258 . S
C36 O38 1.263 . S
O37 Co34 1.970 . S
O37 C36 1.258 . S
O38 Co35 1.966 . S
O38 C36 1.263 . S
C39 O40 1.235 . S
C39 O66 1.289 . S
O40 C39 1.235 . S
C41 C43 1.400 . S
C41 N44 1.351 . S
C41 C46 1.501 . S
C42 C43 1.387 . S
C42 N45 1.341 . S
C43 C41 1.400 . S
C43 C42 1.387 . S
N44 Co35 2.022 . S
N44 C41 1.351 . S
N44 N45 1.365 . S
N45 C42 1.341 . S
N45 N44 1.365 . S
N45 H65 0.862 . S
C46 C41 1.501 . S
C46 H47 0.961 . S
C46 H48 0.961 . S
C46 H49 0.960 . S
H47 C46 0.961 . S
H48 C46 0.961 . S
H49 C46 0.960 . S
C50 N51 1.342 . S
C50 C54 1.401 . S
C50 C55 1.499 . S
N51 Co34 1.989 . S
N51 C50 1.342 . S
N51 N52 1.388 . S
N52 Co35 1.993 . S
N52 N51 1.388 . S
N52 C53 1.346 . S
C53 N52 1.346 . S
C53 C54 1.396 . S
C53 C63 1.510 . S
C54 C50 1.401 . S
C54 C53 1.396 . S
C55 C50 1.499 . S
C55 H56 0.959 . S
C55 H57 0.960 . S
C55 H58 0.961 . S
H56 C55 0.959 . S
H57 C55 0.960 . S
H58 C55 0.961 . S
O59 Co34 1.967 . S
O59 C67 1.258 . S
O60 Co35 1.941 . S
O60 C67 1.266 . S
H61 C63 0.959 . S
H62 C63 0.961 . S
C63 C53 1.510 . S
C63 H61 0.959 . S
C63 H62 0.961 . S
C63 H64 0.960 . S
H64 C63 0.960 . S
H65 N45 0.862 . S
O66 Co34 1.920 . S
O66 C39 1.289 . S
C67 O59 1.258 . S
C67 O60 1.266 . S
Co68 O71 1.970 . S
Co68 N85 1.989 1_655 S
Co68 O93 1.967 . S
Co68 O100 1.920 . S
Co69 O72 1.966 . S
Co69 N78 2.022 . S
Co69 N86 1.993 1_655 S
Co69 O94 1.941 . S
C70 O71 1.258 . S
C70 O72 1.263 . S
O71 Co68 1.970 . S
O71 C70 1.258 . S
O72 Co69 1.966 . S
O72 C70 1.263 . S
C73 O74 1.235 . S
C73 O100 1.289 1_455 S
O74 C73 1.235 . S
C75 C77 1.400 . S
C75 N78 1.351 . S
C75 C80 1.501 1_655 S
C76 C77 1.387 . S
C76 N79 1.341 . S
C77 C75 1.400 . S
C77 C76 1.387 . S
N78 Co69 2.022 . S
N78 C75 1.351 . S
N78 N79 1.365 . S
N79 C76 1.341 . S
N79 N78 1.365 . S
N79 H99 0.862 . S
C80 C75 1.501 1_455 S
C80 H81 0.961 . S
C80 H82 0.961 . S
C80 H83 0.960 1_455 S
H81 C80 0.961 . S
H82 C80 0.961 . S
H83 C80 0.960 1_655 S
C84 N85 1.342 . S
C84 C88 1.401 . S
C84 C89 1.499 . S
N85 Co68 1.989 1_455 S
N85 C84 1.342 . S
N85 N86 1.388 . S
N86 Co69 1.993 1_455 S
N86 N85 1.388 . S
N86 C87 1.346 . S
C87 N86 1.346 . S
C87 C88 1.396 . S
C87 C97 1.510 . S
C88 C84 1.401 . S
C88 C87 1.396 . S
C89 C84 1.499 . S
C89 H90 0.959 . S
C89 H91 0.960 . S
C89 H92 0.961 . S
H90 C89 0.959 . S
H91 C89 0.960 . S
H92 C89 0.961 . S
O93 Co68 1.967 . S
O93 C101 1.258 . S
O94 Co69 1.941 . S
O94 C101 1.266 . S
H95 C97 0.959 . S
H96 C97 0.961 . S
C97 C87 1.510 . S
C97 H95 0.959 . S
C97 H96 0.961 . S
C97 H98 0.960 . S
H98 C97 0.960 . S
H99 N79 0.862 . S
O100 Co68 1.920 . S
O100 C73 1.289 1_655 S
C101 O93 1.258 . S
C101 O94 1.266 . S
Co102 O105 1.970 . S
Co102 N119 1.989 1_565 S
Co102 O127 1.967 . S
Co102 O134 1.920 . S
Co103 O106 1.966 . S
Co103 N112 2.022 . S
Co103 N120 1.993 1_565 S
Co103 O128 1.941 . S
C104 O105 1.258 . S
C104 O106 1.263 . S
O105 Co102 1.970 . S
O105 C104 1.258 . S
O106 Co103 1.966 . S
O106 C104 1.263 . S
C107 O108 1.235 . S
C107 O134 1.289 1_545 S
O108 C107 1.235 . S
C109 C111 1.400 . S
C109 N112 1.351 . S
C109 C114 1.501 1_565 S
C110 C111 1.387 . S
C110 N113 1.341 . S
C111 C109 1.400 . S
C111 C110 1.387 . S
N112 Co103 2.022 . S
N112 C109 1.351 . S
N112 N113 1.365 . S
N113 C110 1.341 . S
N113 N112 1.365 . S
N113 H133 0.862 . S
C114 C109 1.501 1_545 S
C114 H115 0.961 . S
C114 H116 0.961 . S
C114 H117 0.960 1_545 S
H115 C114 0.961 . S
H116 C114 0.961 . S
H117 C114 0.960 1_565 S
C118 N119 1.342 . S
C118 C122 1.401 . S
C118 C123 1.499 . S
N119 Co102 1.989 1_545 S
N119 C118 1.342 . S
N119 N120 1.388 . S
N120 Co103 1.993 1_545 S
N120 N119 1.388 . S
N120 C121 1.346 . S
C121 N120 1.346 . S
C121 C122 1.396 . S
C121 C131 1.510 . S
C122 C118 1.401 . S
C122 C121 1.396 . S
C123 C118 1.499 . S
C123 H124 0.959 . S
C123 H125 0.960 . S
C123 H126 0.961 . S
H124 C123 0.959 . S
H125 C123 0.960 . S
H126 C123 0.961 . S
O127 Co102 1.967 . S
O127 C135 1.258 . S
O128 Co103 1.941 . S
O128 C135 1.266 . S
H129 C131 0.959 . S
H130 C131 0.961 . S
C131 C121 1.510 . S
C131 H129 0.959 . S
C131 H130 0.961 . S
C131 H132 0.960 . S
H132 C131 0.960 . S
H133 N113 0.862 . S
O134 Co102 1.920 . S
O134 C107 1.289 1_565 S
C135 O127 1.258 . S
C135 O128 1.266 . S
Co136 O139 1.970 . S
Co136 N153 1.989 . S
Co136 O161 1.967 . S
Co136 O168 1.920 . S
Co137 O140 1.966 . S
Co137 N146 2.022 . S
Co137 N154 1.993 . S
Co137 O162 1.941 . S
C138 O139 1.258 . S
C138 O140 1.263 . S
O139 Co136 1.970 . S
O139 C138 1.258 . S
O140 Co137 1.966 . S
O140 C138 1.263 . S
C141 O142 1.235 . S
C141 O168 1.289 . S
O142 C141 1.235 . S
C143 C145 1.400 . S
C143 N146 1.351 . S
C143 C148 1.501 . S
C144 C145 1.387 . S
C144 N147 1.341 . S
C145 C143 1.400 . S
C145 C144 1.387 . S
N146 Co137 2.022 . S
N146 C143 1.351 . S
N146 N147 1.365 . S
N147 C144 1.341 . S
N147 N146 1.365 . S
N147 H167 0.862 . S
C148 C143 1.501 . S
C148 H149 0.961 . S
C148 H150 0.961 . S
C148 H151 0.960 . S
H149 C148 0.961 . S
H150 C148 0.961 . S
H151 C148 0.960 . S
C152 N153 1.342 . S
C152 C156 1.401 . S
C152 C157 1.499 . S
N153 Co136 1.989 . S
N153 C152 1.342 . S
N153 N154 1.388 . S
N154 Co137 1.993 . S
N154 N153 1.388 . S
N154 C155 1.346 . S
C155 N154 1.346 . S
C155 C156 1.396 . S
C155 C165 1.510 . S
C156 C152 1.401 . S
C156 C155 1.396 . S
C157 C152 1.499 . S
C157 H158 0.959 . S
C157 H159 0.960 . S
C157 H160 0.961 . S
H158 C157 0.959 . S
H159 C157 0.960 . S
H160 C157 0.961 . S
O161 Co136 1.967 . S
O161 C169 1.258 . S
O162 Co137 1.941 . S
O162 C169 1.266 . S
H163 C165 0.959 . S
H164 C165 0.961 . S
C165 C155 1.510 . S
C165 H163 0.959 . S
C165 H164 0.961 . S
C165 H166 0.960 . S
H166 C165 0.960 . S
H167 N147 0.862 . S
O168 Co136 1.920 . S
O168 C141 1.289 . S
C169 O161 1.258 . S
C169 O162 1.266 . S
Co170 O173 1.970 . S
Co170 N187 1.989 . S
Co170 O195 1.967 . S
Co170 O202 1.920 . S
Co171 O174 1.966 . S
Co171 N180 2.022 . S
Co171 N188 1.993 . S
Co171 O196 1.941 . S
C172 O173 1.258 . S
C172 O174 1.263 . S
O173 Co170 1.970 . S
O173 C172 1.258 . S
O174 Co171 1.966 . S
O174 C172 1.263 . S
C175 O176 1.235 . S
C175 O202 1.289 . S
O176 C175 1.235 . S
C177 C179 1.400 . S
C177 N180 1.351 . S
C177 C182 1.501 . S
C178 C179 1.387 . S
C178 N181 1.341 . S
C179 C177 1.400 . S
C179 C178 1.387 . S
N180 Co171 2.022 . S
N180 C177 1.351 . S
N180 N181 1.365 . S
N181 C178 1.341 . S
N181 N180 1.365 . S
N181 H201 0.862 . S
C182 C177 1.501 . S
C182 H183 0.961 . S
C182 H184 0.961 . S
C182 H185 0.960 . S
H183 C182 0.961 . S
H184 C182 0.961 . S
H185 C182 0.960 . S
C186 N187 1.342 . S
C186 C190 1.401 . S
C186 C191 1.499 . S
N187 Co170 1.989 . S
N187 C186 1.342 . S
N187 N188 1.388 . S
N188 Co171 1.993 . S
N188 N187 1.388 . S
N188 C189 1.346 . S
C189 N188 1.346 . S
C189 C190 1.396 . S
C189 C199 1.510 . S
C190 C186 1.401 . S
C190 C189 1.396 . S
C191 C186 1.499 . S
C191 H192 0.959 . S
C191 H193 0.960 . S
C191 H194 0.961 . S
H192 C191 0.959 . S
H193 C191 0.960 . S
H194 C191 0.961 . S
O195 Co170 1.967 . S
O195 C203 1.258 . S
O196 Co171 1.941 . S
O196 C203 1.266 . S
H197 C199 0.959 . S
H198 C199 0.961 . S
C199 C189 1.510 . S
C199 H197 0.959 . S
C199 H198 0.961 . S
C199 H200 0.960 . S
H200 C199 0.960 . S
H201 N181 0.862 . S
O202 Co170 1.920 . S
O202 C175 1.289 . S
C203 O195 1.258 . S
C203 O196 1.266 . S
Co204 O207 1.970 . S
Co204 N221 1.989 1_655 S
Co204 O229 1.967 . S
Co204 O236 1.920 . S
Co205 O208 1.966 . S
Co205 N214 2.022 . S
Co205 N222 1.993 1_655 S
Co205 O230 1.941 . S
C206 O207 1.258 . S
C206 O208 1.263 . S
O207 Co204 1.970 . S
O207 C206 1.258 . S
O208 Co205 1.966 . S
O208 C206 1.263 . S
C209 O210 1.235 . S
C209 O236 1.289 1_455 S
O210 C209 1.235 . S
C211 C213 1.400 . S
C211 N214 1.351 . S
C211 C216 1.501 1_655 S
C212 C213 1.387 . S
C212 N215 1.341 . S
C213 C211 1.400 . S
C213 C212 1.387 . S
N214 Co205 2.022 . S
N214 C211 1.351 . S
N214 N215 1.365 . S
N215 C212 1.341 . S
N215 N214 1.365 . S
N215 H235 0.862 . S
C216 C211 1.501 1_455 S
C216 H217 0.961 . S
C216 H218 0.961 . S
C216 H219 0.960 1_455 S
H217 C216 0.961 . S
H218 C216 0.961 . S
H219 C216 0.960 1_655 S
C220 N221 1.342 . S
C220 C224 1.401 . S
C220 C225 1.499 . S
N221 Co204 1.989 1_455 S
N221 C220 1.342 . S
N221 N222 1.388 . S
N222 Co205 1.993 1_455 S
N222 N221 1.388 . S
N222 C223 1.346 . S
C223 N222 1.346 . S
C223 C224 1.396 . S
C223 C233 1.510 . S
C224 C220 1.401 . S
C224 C223 1.396 . S
C225 C220 1.499 . S
C225 H226 0.959 . S
C225 H227 0.960 . S
C225 H228 0.961 . S
H226 C225 0.959 . S
H227 C225 0.960 . S
H228 C225 0.961 . S
O229 Co204 1.967 . S
O229 C237 1.258 . S
O230 Co205 1.941 . S
O230 C237 1.266 . S
H231 C233 0.959 . S
H232 C233 0.961 . S
C233 C223 1.510 . S
C233 H231 0.959 . S
C233 H232 0.961 . S
C233 H234 0.960 . S
H234 C233 0.960 . S
H235 N215 0.862 . S
O236 Co204 1.920 . S
O236 C209 1.289 1_655 S
C237 O229 1.258 . S
C237 O230 1.266 . S
Co238 O241 1.970 . S
Co238 N255 1.989 1_565 S
Co238 O263 1.967 . S
Co238 O270 1.920 . S
Co239 O242 1.966 . S
Co239 N248 2.022 . S
Co239 N256 1.993 1_565 S
Co239 O264 1.941 . S
C240 O241 1.258 . S
C240 O242 1.263 . S
O241 Co238 1.970 . S
O241 C240 1.258 . S
O242 Co239 1.966 . S
O242 C240 1.263 . S
C243 O244 1.235 . S
C243 O270 1.289 1_545 S
O244 C243 1.235 . S
C245 C247 1.400 . S
C245 N248 1.351 . S
C245 C250 1.501 1_565 S
C246 C247 1.387 . S
C246 N249 1.341 . S
C247 C245 1.400 . S
C247 C246 1.387 . S
N248 Co239 2.022 . S
N248 C245 1.351 . S
N248 N249 1.365 . S
N249 C246 1.341 . S
N249 N248 1.365 . S
N249 H269 0.862 . S
C250 C245 1.501 1_545 S
C250 H251 0.961 . S
C250 H252 0.961 . S
C250 H253 0.960 1_545 S
H251 C250 0.961 . S
H252 C250 0.961 . S
H253 C250 0.960 1_565 S
C254 N255 1.342 . S
C254 C258 1.401 . S
C254 C259 1.499 . S
N255 Co238 1.989 1_545 S
N255 C254 1.342 . S
N255 N256 1.388 . S
N256 Co239 1.993 1_545 S
N256 N255 1.388 . S
N256 C257 1.346 . S
C257 N256 1.346 . S
C257 C258 1.396 . S
C257 C267 1.510 . S
C258 C254 1.401 . S
C258 C257 1.396 . S
C259 C254 1.499 . S
C259 H260 0.959 . S
C259 H261 0.960 . S
C259 H262 0.961 . S
H260 C259 0.959 . S
H261 C259 0.960 . S
H262 C259 0.961 . S
O263 Co238 1.967 . S
O263 C271 1.258 . S
O264 Co239 1.941 . S
O264 C271 1.266 . S
H265 C267 0.959 . S
H266 C267 0.961 . S
C267 C257 1.510 . S
C267 H265 0.959 . S
C267 H266 0.961 . S
C267 H268 0.960 . S
H268 C267 0.960 . S
H269 N249 0.862 . S
O270 Co238 1.920 . S
O270 C243 1.289 1_565 S
C271 O263 1.258 . S
C271 O264 1.266 . S
Co272 O275 1.970 . S
Co272 N289 1.989 . S
Co272 O297 1.967 . S
Co272 O304 1.920 . S
Co273 O276 1.966 . S
Co273 N282 2.022 . S
Co273 N290 1.993 . S
Co273 O298 1.941 . S
C274 O275 1.258 . S
C274 O276 1.263 . S
O275 Co272 1.970 . S
O275 C274 1.258 . S
O276 Co273 1.966 . S
O276 C274 1.263 . S
C277 O278 1.235 . S
C277 O304 1.289 . S
O278 C277 1.235 . S
C279 C281 1.400 . S
C279 N282 1.351 . S
C279 C284 1.501 . S
C280 C281 1.387 . S
C280 N283 1.341 . S
C281 C279 1.400 . S
C281 C280 1.387 . S
N282 Co273 2.022 . S
N282 C279 1.351 . S
N282 N283 1.365 . S
N283 C280 1.341 . S
N283 N282 1.365 . S
N283 H303 0.862 . S
C284 C279 1.501 . S
C284 H285 0.961 . S
C284 H286 0.961 . S
C284 H287 0.960 . S
H285 C284 0.961 . S
H286 C284 0.961 . S
H287 C284 0.960 . S
C288 N289 1.342 . S
C288 C292 1.401 . S
C288 C293 1.499 . S
N289 Co272 1.989 . S
N289 C288 1.342 . S
N289 N290 1.388 . S
N290 Co273 1.993 . S
N290 N289 1.388 . S
N290 C291 1.346 . S
C291 N290 1.346 . S
C291 C292 1.396 . S
C291 C301 1.510 . S
C292 C288 1.401 . S
C292 C291 1.396 . S
C293 C288 1.499 . S
C293 H294 0.959 . S
C293 H295 0.960 . S
C293 H296 0.961 . S
H294 C293 0.959 . S
H295 C293 0.960 . S
H296 C293 0.961 . S
O297 Co272 1.967 . S
O297 C305 1.258 . S
O298 Co273 1.941 . S
O298 C305 1.266 . S
H299 C301 0.959 . S
H300 C301 0.961 . S
C301 C291 1.510 . S
C301 H299 0.959 . S
C301 H300 0.961 . S
C301 H302 0.960 . S
H302 C301 0.960 . S
H303 N283 0.862 . S
O304 Co272 1.920 . S
O304 C277 1.289 . S
C305 O297 1.258 . S
C305 O298 1.266 . S
Co306 O309 1.970 . S
Co306 N323 1.989 . S
Co306 O331 1.967 . S
Co306 O338 1.920 . S
Co307 O310 1.966 . S
Co307 N316 2.022 . S
Co307 N324 1.993 . S
Co307 O332 1.941 . S
C308 O309 1.258 . S
C308 O310 1.263 . S
O309 Co306 1.970 . S
O309 C308 1.258 . S
O310 Co307 1.966 . S
O310 C308 1.263 . S
C311 O312 1.235 . S
C311 O338 1.289 . S
O312 C311 1.235 . S
C313 C315 1.400 . S
C313 N316 1.351 . S
C313 C318 1.501 . S
C314 C315 1.387 . S
C314 N317 1.341 . S
C315 C313 1.400 . S
C315 C314 1.387 . S
N316 Co307 2.022 . S
N316 C313 1.351 . S
N316 N317 1.365 . S
N317 C314 1.341 . S
N317 N316 1.365 . S
N317 H337 0.862 . S
C318 C313 1.501 . S
C318 H319 0.961 . S
C318 H320 0.961 . S
C318 H321 0.960 . S
H319 C318 0.961 . S
H320 C318 0.961 . S
H321 C318 0.960 . S
C322 N323 1.342 . S
C322 C326 1.401 . S
C322 C327 1.499 . S
N323 Co306 1.989 . S
N323 C322 1.342 . S
N323 N324 1.388 . S
N324 Co307 1.993 . S
N324 N323 1.388 . S
N324 C325 1.346 . S
C325 N324 1.346 . S
C325 C326 1.396 . S
C325 C335 1.510 . S
C326 C322 1.401 . S
C326 C325 1.396 . S
C327 C322 1.499 . S
C327 H328 0.959 . S
C327 H329 0.960 . S
C327 H330 0.961 . S
H328 C327 0.959 . S
H329 C327 0.960 . S
H330 C327 0.961 . S
O331 Co306 1.967 . S
O331 C339 1.258 . S
O332 Co307 1.941 . S
O332 C339 1.266 . S
H333 C335 0.959 . S
H334 C335 0.961 . S
C335 C325 1.510 . S
C335 H333 0.959 . S
C335 H334 0.961 . S
C335 H336 0.960 . S
H336 C335 0.960 . S
H337 N317 0.862 . S
O338 Co306 1.920 . S
O338 C311 1.289 . S
C339 O331 1.258 . S
C339 O332 1.266 . S
Co340 O343 1.970 . S
Co340 N357 1.989 1_455 S
Co340 O365 1.967 . S
Co340 O372 1.920 . S
Co341 O344 1.966 . S
Co341 N350 2.022 . S
Co341 N358 1.993 1_455 S
Co341 O366 1.941 . S
C342 O343 1.258 . S
C342 O344 1.263 . S
O343 Co340 1.970 . S
O343 C342 1.258 . S
O344 Co341 1.966 . S
O344 C342 1.263 . S
C345 O346 1.235 . S
C345 O372 1.289 1_655 S
O346 C345 1.235 . S
C347 C349 1.400 . S
C347 N350 1.351 . S
C347 C352 1.501 1_455 S
C348 C349 1.387 . S
C348 N351 1.341 . S
C349 C347 1.400 . S
C349 C348 1.387 . S
N350 Co341 2.022 . S
N350 C347 1.351 . S
N350 N351 1.365 . S
N351 C348 1.341 . S
N351 N350 1.365 . S
N351 H371 0.862 . S
C352 C347 1.501 1_655 S
C352 H353 0.961 . S
C352 H354 0.961 . S
C352 H355 0.960 1_655 S
H353 C352 0.961 . S
H354 C352 0.961 . S
H355 C352 0.960 1_455 S
C356 N357 1.342 . S
C356 C360 1.401 . S
C356 C361 1.499 . S
N357 Co340 1.989 1_655 S
N357 C356 1.342 . S
N357 N358 1.388 . S
N358 Co341 1.993 1_655 S
N358 N357 1.388 . S
N358 C359 1.346 . S
C359 N358 1.346 . S
C359 C360 1.396 . S
C359 C369 1.510 . S
C360 C356 1.401 . S
C360 C359 1.396 . S
C361 C356 1.499 . S
C361 H362 0.959 . S
C361 H363 0.960 . S
C361 H364 0.961 . S
H362 C361 0.959 . S
H363 C361 0.960 . S
H364 C361 0.961 . S
O365 Co340 1.967 . S
O365 C373 1.258 . S
O366 Co341 1.941 . S
O366 C373 1.266 . S
H367 C369 0.959 . S
H368 C369 0.961 . S
C369 C359 1.510 . S
C369 H367 0.959 . S
C369 H368 0.961 . S
C369 H370 0.960 . S
H370 C369 0.960 . S
H371 N351 0.862 . S
O372 Co340 1.920 . S
O372 C345 1.289 1_455 S
C373 O365 1.258 . S
C373 O366 1.266 . S
Co374 O377 1.970 . S
Co374 N391 1.989 1_545 S
Co374 O399 1.967 . S
Co374 O406 1.920 . S
Co375 O378 1.966 . S
Co375 N384 2.022 . S
Co375 N392 1.993 1_545 S
Co375 O400 1.941 . S
C376 O377 1.258 . S
C376 O378 1.263 . S
O377 Co374 1.970 . S
O377 C376 1.258 . S
O378 Co375 1.966 . S
O378 C376 1.263 . S
C379 O380 1.235 . S
C379 O406 1.289 1_565 S
O380 C379 1.235 . S
C381 C383 1.400 . S
C381 N384 1.351 . S
C381 C386 1.501 1_545 S
C382 C383 1.387 . S
C382 N385 1.341 . S
C383 C381 1.400 . S
C383 C382 1.387 . S
N384 Co375 2.022 . S
N384 C381 1.351 . S
N384 N385 1.365 . S
N385 C382 1.341 . S
N385 N384 1.365 . S
N385 H405 0.862 . S
C386 C381 1.501 1_565 S
C386 H387 0.961 . S
C386 H388 0.961 . S
C386 H389 0.960 1_565 S
H387 C386 0.961 . S
H388 C386 0.961 . S
H389 C386 0.960 1_545 S
C390 N391 1.342 . S
C390 C394 1.401 . S
C390 C395 1.499 . S
N391 Co374 1.989 1_565 S
N391 C390 1.342 . S
N391 N392 1.388 . S
N392 Co375 1.993 1_565 S
N392 N391 1.388 . S
N392 C393 1.346 . S
C393 N392 1.346 . S
C393 C394 1.396 . S
C393 C403 1.510 . S
C394 C390 1.401 . S
C394 C393 1.396 . S
C395 C390 1.499 . S
C395 H396 0.959 . S
C395 H397 0.960 . S
C395 H398 0.961 . S
H396 C395 0.959 . S
H397 C395 0.960 . S
H398 C395 0.961 . S
O399 Co374 1.967 . S
O399 C407 1.258 . S
O400 Co375 1.941 . S
O400 C407 1.266 . S
H401 C403 0.959 . S
H402 C403 0.961 . S
C403 C393 1.510 . S
C403 H401 0.959 . S
C403 H402 0.961 . S
C403 H404 0.960 . S
H404 C403 0.960 . S
H405 N385 0.862 . S
O406 Co374 1.920 . S
O406 C379 1.289 1_545 S
C407 O399 1.258 . S
C407 O400 1.266 . S
Co408 O411 1.970 . S
Co408 N425 1.989 . S
Co408 O433 1.967 . S
Co408 O440 1.920 . S
Co409 O412 1.966 . S
Co409 N418 2.022 . S
Co409 N426 1.993 . S
Co409 O434 1.941 . S
C410 O411 1.258 . S
C410 O412 1.263 . S
O411 Co408 1.970 . S
O411 C410 1.258 . S
O412 Co409 1.966 . S
O412 C410 1.263 . S
C413 O414 1.235 . S
C413 O440 1.289 . S
O414 C413 1.235 . S
C415 C417 1.400 . S
C415 N418 1.351 . S
C415 C420 1.501 . S
C416 C417 1.387 . S
C416 N419 1.341 . S
C417 C415 1.400 . S
C417 C416 1.387 . S
N418 Co409 2.022 . S
N418 C415 1.351 . S
N418 N419 1.365 . S
N419 C416 1.341 . S
N419 N418 1.365 . S
N419 H439 0.862 . S
C420 C415 1.501 . S
C420 H421 0.961 . S
C420 H422 0.961 . S
C420 H423 0.960 . S
H421 C420 0.961 . S
H422 C420 0.961 . S
H423 C420 0.960 . S
C424 N425 1.342 . S
C424 C428 1.401 . S
C424 C429 1.499 . S
N425 Co408 1.989 . S
N425 C424 1.342 . S
N425 N426 1.388 . S
N426 Co409 1.993 . S
N426 N425 1.388 . S
N426 C427 1.346 . S
C427 N426 1.346 . S
C427 C428 1.396 . S
C427 C437 1.510 . S
C428 C424 1.401 . S
C428 C427 1.396 . S
C429 C424 1.499 . S
C429 H430 0.959 . S
C429 H431 0.960 . S
C429 H432 0.961 . S
H430 C429 0.959 . S
H431 C429 0.960 . S
H432 C429 0.961 . S
O433 Co408 1.967 . S
O433 C441 1.258 . S
O434 Co409 1.941 . S
O434 C441 1.266 . S
H435 C437 0.959 . S
H436 C437 0.961 . S
C437 C427 1.510 . S
C437 H435 0.959 . S
C437 H436 0.961 . S
C437 H438 0.960 . S
H438 C437 0.960 . S
H439 N419 0.862 . S
O440 Co408 1.920 . S
O440 C413 1.289 . S
C441 O433 1.258 . S
C441 O434 1.266 . S
Co442 O445 1.970 . S
Co442 N459 1.989 . S
Co442 O467 1.967 . S
Co442 O474 1.920 . S
Co443 O446 1.966 . S
Co443 N452 2.022 . S
Co443 N460 1.993 . S
Co443 O468 1.941 . S
C444 O445 1.258 . S
C444 O446 1.263 . S
O445 Co442 1.970 . S
O445 C444 1.258 . S
O446 Co443 1.966 . S
O446 C444 1.263 . S
C447 O448 1.235 . S
C447 O474 1.289 . S
O448 C447 1.235 . S
C449 C451 1.400 . S
C449 N452 1.351 . S
C449 C454 1.501 . S
C450 C451 1.387 . S
C450 N453 1.341 . S
C451 C449 1.400 . S
C451 C450 1.387 . S
N452 Co443 2.022 . S
N452 C449 1.351 . S
N452 N453 1.365 . S
N453 C450 1.341 . S
N453 N452 1.365 . S
N453 H473 0.862 . S
C454 C449 1.501 . S
C454 H455 0.961 . S
C454 H456 0.961 . S
C454 H457 0.960 . S
H455 C454 0.961 . S
H456 C454 0.961 . S
H457 C454 0.960 . S
C458 N459 1.342 . S
C458 C462 1.401 . S
C458 C463 1.499 . S
N459 Co442 1.989 . S
N459 C458 1.342 . S
N459 N460 1.388 . S
N460 Co443 1.993 . S
N460 N459 1.388 . S
N460 C461 1.346 . S
C461 N460 1.346 . S
C461 C462 1.396 . S
C461 C471 1.510 . S
C462 C458 1.401 . S
C462 C461 1.396 . S
C463 C458 1.499 . S
C463 H464 0.959 . S
C463 H465 0.960 . S
C463 H466 0.961 . S
H464 C463 0.959 . S
H465 C463 0.960 . S
H466 C463 0.961 . S
O467 Co442 1.967 . S
O467 C475 1.258 . S
O468 Co443 1.941 . S
O468 C475 1.266 . S
H469 C471 0.959 . S
H470 C471 0.961 . S
C471 C461 1.510 . S
C471 H469 0.959 . S
C471 H470 0.961 . S
C471 H472 0.960 . S
H472 C471 0.960 . S
H473 N453 0.862 . S
O474 Co442 1.920 . S
O474 C447 1.289 . S
C475 O467 1.258 . S
C475 O468 1.266 . S
Co476 O479 1.970 . S
Co476 N493 1.989 1_455 S
Co476 O501 1.967 . S
Co476 O508 1.920 . S
Co477 O480 1.966 . S
Co477 N486 2.022 . S
Co477 N494 1.993 1_455 S
Co477 O502 1.941 . S
C478 O479 1.258 . S
C478 O480 1.263 . S
O479 Co476 1.970 . S
O479 C478 1.258 . S
O480 Co477 1.966 . S
O480 C478 1.263 . S
C481 O482 1.235 . S
C481 O508 1.289 1_655 S
O482 C481 1.235 . S
C483 C485 1.400 . S
C483 N486 1.351 . S
C483 C488 1.501 1_455 S
C484 C485 1.387 . S
C484 N487 1.341 . S
C485 C483 1.400 . S
C485 C484 1.387 . S
N486 Co477 2.022 . S
N486 C483 1.351 . S
N486 N487 1.365 . S
N487 C484 1.341 . S
N487 N486 1.365 . S
N487 H507 0.862 . S
C488 C483 1.501 1_655 S
C488 H489 0.961 . S
C488 H490 0.961 . S
C488 H491 0.960 1_655 S
H489 C488 0.961 . S
H490 C488 0.961 . S
H491 C488 0.960 1_455 S
C492 N493 1.342 . S
C492 C496 1.401 . S
C492 C497 1.499 . S
N493 Co476 1.989 1_655 S
N493 C492 1.342 . S
N493 N494 1.388 . S
N494 Co477 1.993 1_655 S
N494 N493 1.388 . S
N494 C495 1.346 . S
C495 N494 1.346 . S
C495 C496 1.396 . S
C495 C505 1.510 . S
C496 C492 1.401 . S
C496 C495 1.396 . S
C497 C492 1.499 . S
C497 H498 0.959 . S
C497 H499 0.960 . S
C497 H500 0.961 . S
H498 C497 0.959 . S
H499 C497 0.960 . S
H500 C497 0.961 . S
O501 Co476 1.967 . S
O501 C509 1.258 . S
O502 Co477 1.941 . S
O502 C509 1.266 . S
H503 C505 0.959 . S
H504 C505 0.961 . S
C505 C495 1.510 . S
C505 H503 0.959 . S
C505 H504 0.961 . S
C505 H506 0.960 . S
H506 C505 0.960 . S
H507 N487 0.862 . S
O508 Co476 1.920 . S
O508 C481 1.289 1_455 S
C509 O501 1.258 . S
C509 O502 1.266 . S
Co510 O513 1.970 . S
Co510 N527 1.989 1_545 S
Co510 O535 1.967 . S
Co510 O542 1.920 . S
Co511 O514 1.966 . S
Co511 N520 2.022 . S
Co511 N528 1.993 1_545 S
Co511 O536 1.941 . S
C512 O513 1.258 . S
C512 O514 1.263 . S
O513 Co510 1.970 . S
O513 C512 1.258 . S
O514 Co511 1.966 . S
O514 C512 1.263 . S
C515 O516 1.235 . S
C515 O542 1.289 1_565 S
O516 C515 1.235 . S
C517 C519 1.400 . S
C517 N520 1.351 . S
C517 C522 1.501 1_545 S
C518 C519 1.387 . S
C518 N521 1.341 . S
C519 C517 1.400 . S
C519 C518 1.387 . S
N520 Co511 2.022 . S
N520 C517 1.351 . S
N520 N521 1.365 . S
N521 C518 1.341 . S
N521 N520 1.365 . S
N521 H541 0.862 . S
C522 C517 1.501 1_565 S
C522 H523 0.961 . S
C522 H524 0.961 . S
C522 H525 0.960 1_565 S
H523 C522 0.961 . S
H524 C522 0.961 . S
H525 C522 0.960 1_545 S
C526 N527 1.342 . S
C526 C530 1.401 . S
C526 C531 1.499 . S
N527 Co510 1.989 1_565 S
N527 C526 1.342 . S
N527 N528 1.388 . S
N528 Co511 1.993 1_565 S
N528 N527 1.388 . S
N528 C529 1.346 . S
C529 N528 1.346 . S
C529 C530 1.396 . S
C529 C539 1.510 . S
C530 C526 1.401 . S
C530 C529 1.396 . S
C531 C526 1.499 . S
C531 H532 0.959 . S
C531 H533 0.960 . S
C531 H534 0.961 . S
H532 C531 0.959 . S
H533 C531 0.960 . S
H534 C531 0.961 . S
O535 Co510 1.967 . S
O535 C543 1.258 . S
O536 Co511 1.941 . S
O536 C543 1.266 . S
H537 C539 0.959 . S
H538 C539 0.961 . S
C539 C529 1.510 . S
C539 H537 0.959 . S
C539 H538 0.961 . S
C539 H540 0.960 . S
H540 C539 0.960 . S
H541 N521 0.862 . S
O542 Co510 1.920 . S
O542 C515 1.289 1_545 S
C543 O535 1.258 . S
C543 O536 1.266 . S
C544 C545 1.349 . S
C544 C546 1.327 . S
C544 H569 0.950 . S
C545 C544 1.349 . S
C545 C561 1.349 . S
C546 C544 1.327 . S
C546 C565 1.429 . S
C546 H570 0.950 . S
C547 C564 1.574 1_554 S
C547 C566 1.368 . S
C547 H571 0.949 . S
H548 C552 0.949 . S
C549 C550 1.349 . S
C549 C551 1.327 . S
C549 H572 0.950 . S
C550 C549 1.349 . S
C550 C562 1.349 . S
C551 C549 1.327 . S
C551 C567 1.429 . S
C551 H573 0.950 . S
C552 H548 0.949 . S
C552 C560 1.574 1_556 S
C552 C568 1.368 . S
H553 C561 0.950 . S
H554 C559 0.950 . S
H555 C560 0.949 . S
H556 C562 0.950 . S
H557 C563 0.950 . S
H558 C564 0.949 . S
C559 H554 0.950 . S
C559 C561 1.327 . S
C559 C565 1.429 . S
C560 C552 1.574 1_554 S
C560 H555 0.949 . S
C560 C566 1.368 . S
C561 C545 1.349 . S
C561 H553 0.950 . S
C561 C559 1.327 . S
C562 C550 1.349 . S
C562 H556 0.950 . S
C562 C563 1.327 . S
C563 H557 0.950 . S
C563 C562 1.327 . S
C563 C567 1.429 . S
C564 C547 1.574 1_556 S
C564 H558 0.949 . S
C564 C568 1.368 . S
C565 C546 1.429 . S
C565 C559 1.429 . S
C565 C566 1.523 . S
C566 C547 1.368 . S
C566 C560 1.368 . S
C566 C565 1.523 . S
C567 C551 1.429 . S
C567 C563 1.429 . S
C567 C568 1.523 . S
C568 C552 1.368 . S
C568 C564 1.368 . S
C568 C567 1.523 . S
H569 C544 0.950 . S
H570 C546 0.950 . S
H571 C547 0.949 . S
H572 C549 0.950 . S
H573 C551 0.950 . S
C574 C575 1.349 . S
C574 C576 1.327 . S
C574 H599 0.950 . S
C575 C574 1.349 . S
C575 C591 1.349 . S
C576 C574 1.327 . S
C576 C595 1.429 . S
C576 H600 0.950 . S
C577 C594 1.574 . S
C577 C596 1.368 . S
C577 H601 0.949 . S
H578 C582 0.949 . S
C579 C580 1.349 . S
C579 C581 1.327 . S
C579 H602 0.950 . S
C580 C579 1.349 . S
C580 C592 1.349 . S
C581 C579 1.327 . S
C581 C597 1.429 . S
C581 H603 0.950 . S
C582 H578 0.949 . S
C582 C590 1.574 . S
C582 C598 1.368 . S
H583 C591 0.950 . S
H584 C589 0.950 . S
H585 C590 0.949 . S
H586 C592 0.950 . S
H587 C593 0.950 . S
H588 C594 0.949 . S
C589 H584 0.950 . S
C589 C591 1.327 . S
C589 C595 1.429 . S
C590 C582 1.574 . S
C590 H585 0.949 . S
C590 C596 1.368 . S
C591 C575 1.349 . S
C591 H583 0.950 . S
C591 C589 1.327 . S
C592 C580 1.349 . S
C592 H586 0.950 . S
C592 C593 1.327 . S
C593 H587 0.950 . S
C593 C592 1.327 . S
C593 C597 1.429 . S
C594 C577 1.574 . S
C594 H588 0.949 . S
C594 C598 1.368 . S
C595 C576 1.429 . S
C595 C589 1.429 . S
C595 C596 1.523 . S
C596 C577 1.368 . S
C596 C590 1.368 . S
C596 C595 1.523 . S
C597 C581 1.429 . S
C597 C593 1.429 . S
C597 C598 1.523 . S
C598 C582 1.368 . S
C598 C594 1.368 . S
C598 C597 1.523 . S
H599 C574 0.950 . S
H600 C576 0.950 . S
H601 C577 0.949 . S
H602 C579 0.950 . S
H603 C581 0.950 . S
C604 C605 1.349 1_455 S
C604 C606 1.327 . S
C604 H629 0.950 . S
C605 C604 1.349 1_655 S
C605 C621 1.349 . S
C606 C604 1.327 . S
C606 C625 1.429 1_455 S
C606 H630 0.950 . S
C607 C624 1.574 1_556 S
C607 C626 1.368 . S
C607 H631 0.949 . S
H608 C612 0.949 . S
C609 C610 1.349 . S
C609 C611 1.327 . S
C609 H632 0.950 . S
C610 C609 1.349 . S
C610 C622 1.349 1_655 S
C611 C609 1.327 . S
C611 C627 1.429 . S
C611 H633 0.950 . S
C612 H608 0.949 . S
C612 C620 1.574 1_554 S
C612 C628 1.368 1_455 S
H613 C621 0.950 . S
H614 C619 0.950 . S
H615 C620 0.949 . S
H616 C622 0.950 . S
H617 C623 0.950 . S
H618 C624 0.949 . S
C619 H614 0.950 . S
C619 C621 1.327 . S
C619 C625 1.429 . S
C620 C612 1.574 1_556 S
C620 H615 0.949 . S
C620 C626 1.368 1_455 S
C621 C605 1.349 . S
C621 H613 0.950 . S
C621 C619 1.327 . S
C622 C610 1.349 1_455 S
C622 H616 0.950 . S
C622 C623 1.327 . S
C623 H617 0.950 . S
C623 C622 1.327 . S
C623 C627 1.429 1_455 S
C624 C607 1.574 1_554 S
C624 H618 0.949 . S
C624 C628 1.368 . S
C625 C606 1.429 1_655 S
C625 C619 1.429 . S
C625 C626 1.523 . S
C626 C607 1.368 . S
C626 C620 1.368 1_655 S
C626 C625 1.523 . S
C627 C611 1.429 . S
C627 C623 1.429 1_655 S
C627 C628 1.523 . S
C628 C612 1.368 1_655 S
C628 C624 1.368 . S
C628 C627 1.523 . S
H629 C604 0.950 . S
H630 C606 0.950 . S
H631 C607 0.949 . S
H632 C609 0.950 . S
H633 C611 0.950 . S
C634 C635 1.349 . S
C634 C636 1.327 . S
C634 H659 0.950 . S
C635 C634 1.349 . S
C635 C651 1.349 1_565 S
C636 C634 1.327 . S
C636 C655 1.429 . S
C636 H660 0.950 . S
C637 C654 1.574 . S
C637 C656 1.368 1_545 S
C637 H661 0.949 . S
H638 C642 0.949 . S
C639 C640 1.349 1_545 S
C639 C641 1.327 . S
C639 H662 0.950 . S
C640 C639 1.349 1_565 S
C640 C652 1.349 . S
C641 C639 1.327 . S
C641 C657 1.429 1_545 S
C641 H663 0.950 . S
C642 H638 0.949 . S
C642 C650 1.574 . S
C642 C658 1.368 . S
H643 C651 0.950 . S
H644 C649 0.950 . S
H645 C650 0.949 . S
H646 C652 0.950 . S
H647 C653 0.950 . S
H648 C654 0.949 . S
C649 H644 0.950 . S
C649 C651 1.327 . S
C649 C655 1.429 1_545 S
C650 C642 1.574 . S
C650 H645 0.949 . S
C650 C656 1.368 . S
C651 C635 1.349 1_545 S
C651 H643 0.950 . S
C651 C649 1.327 . S
C652 C640 1.349 . S
C652 H646 0.950 . S
C652 C653 1.327 . S
C653 H647 0.950 . S
C653 C652 1.327 . S
C653 C657 1.429 . S
C654 C637 1.574 . S
C654 H648 0.949 . S
C654 C658 1.368 1_545 S
C655 C636 1.429 . S
C655 C649 1.429 1_565 S
C655 C656 1.523 . S
C656 C637 1.368 1_565 S
C656 C650 1.368 . S
C656 C655 1.523 . S
C657 C641 1.429 1_565 S
C657 C653 1.429 . S
C657 C658 1.523 . S
C658 C642 1.368 . S
C658 C654 1.368 1_565 S
C658 C657 1.523 . S
H659 C634 0.950 . S
H660 C636 0.950 . S
H661 C637 0.949 . S
H662 C639 0.950 . S
H663 C641 0.950 . S
C664 C665 1.349 . S
C664 C666 1.327 . S
C664 H689 0.950 . S
C665 C664 1.349 . S
C665 C681 1.349 . S
C666 C664 1.327 . S
C666 C685 1.429 . S
C666 H690 0.950 . S
C667 C684 1.574 1_556 S
C667 C686 1.368 . S
C667 H691 0.949 . S
H668 C672 0.949 . S
C669 C670 1.349 . S
C669 C671 1.327 . S
C669 H692 0.950 . S
C670 C669 1.349 . S
C670 C682 1.349 . S
C671 C669 1.327 . S
C671 C687 1.429 . S
C671 H693 0.950 . S
C672 H668 0.949 . S
C672 C680 1.574 1_554 S
C672 C688 1.368 . S
H673 C681 0.950 . S
H674 C679 0.950 . S
H675 C680 0.949 . S
H676 C682 0.950 . S
H677 C683 0.950 . S
H678 C684 0.949 . S
C679 H674 0.950 . S
C679 C681 1.327 . S
C679 C685 1.429 . S
C680 C672 1.574 1_556 S
C680 H675 0.949 . S
C680 C686 1.368 . S
C681 C665 1.349 . S
C681 H673 0.950 . S
C681 C679 1.327 . S
C682 C670 1.349 . S
C682 H676 0.950 . S
C682 C683 1.327 . S
C683 H677 0.950 . S
C683 C682 1.327 . S
C683 C687 1.429 . S
C684 C667 1.574 1_554 S
C684 H678 0.949 . S
C684 C688 1.368 . S
C685 C666 1.429 . S
C685 C679 1.429 . S
C685 C686 1.523 . S
C686 C667 1.368 . S
C686 C680 1.368 . S
C686 C685 1.523 . S
C687 C671 1.429 . S
C687 C683 1.429 . S
C687 C688 1.523 . S
C688 C672 1.368 . S
C688 C684 1.368 . S
C688 C687 1.523 . S
H689 C664 0.950 . S
H690 C666 0.950 . S
H691 C667 0.949 . S
H692 C669 0.950 . S
H693 C671 0.950 . S
C694 C695 1.349 . S
C694 C696 1.327 . S
C694 H719 0.950 . S
C695 C694 1.349 . S
C695 C711 1.349 . S
C696 C694 1.327 . S
C696 C715 1.429 . S
C696 H720 0.950 . S
C697 C714 1.574 . S
C697 C716 1.368 . S
C697 H721 0.949 . S
H698 C702 0.949 . S
C699 C700 1.349 . S
C699 C701 1.327 . S
C699 H722 0.950 . S
C700 C699 1.349 . S
C700 C712 1.349 . S
C701 C699 1.327 . S
C701 C717 1.429 . S
C701 H723 0.950 . S
C702 H698 0.949 . S
C702 C710 1.574 . S
C702 C718 1.368 . S
H703 C711 0.950 . S
H704 C709 0.950 . S
H705 C710 0.949 . S
H706 C712 0.950 . S
H707 C713 0.950 . S
H708 C714 0.949 . S
C709 H704 0.950 . S
C709 C711 1.327 . S
C709 C715 1.429 . S
C710 C702 1.574 . S
C710 H705 0.949 . S
C710 C716 1.368 . S
C711 C695 1.349 . S
C711 H703 0.950 . S
C711 C709 1.327 . S
C712 C700 1.349 . S
C712 H706 0.950 . S
C712 C713 1.327 . S
C713 H707 0.950 . S
C713 C712 1.327 . S
C713 C717 1.429 . S
C714 C697 1.574 . S
C714 H708 0.949 . S
C714 C718 1.368 . S
C715 C696 1.429 . S
C715 C709 1.429 . S
C715 C716 1.523 . S
C716 C697 1.368 . S
C716 C710 1.368 . S
C716 C715 1.523 . S
C717 C701 1.429 . S
C717 C713 1.429 . S
C717 C718 1.523 . S
C718 C702 1.368 . S
C718 C714 1.368 . S
C718 C717 1.523 . S
H719 C694 0.950 . S
H720 C696 0.950 . S
H721 C697 0.949 . S
H722 C699 0.950 . S
H723 C701 0.950 . S
C724 C725 1.349 1_655 S
C724 C726 1.327 . S
C724 H749 0.950 . S
C725 C724 1.349 1_455 S
C725 C741 1.349 . S
C726 C724 1.327 . S
C726 C745 1.429 1_655 S
C726 H750 0.950 . S
C727 C744 1.574 1_554 S
C727 C746 1.368 . S
C727 H751 0.949 . S
H728 C732 0.949 . S
C729 C730 1.349 . S
C729 C731 1.327 . S
C729 H752 0.950 . S
C730 C729 1.349 . S
C730 C742 1.349 1_455 S
C731 C729 1.327 . S
C731 C747 1.429 . S
C731 H753 0.950 . S
C732 H728 0.949 . S
C732 C740 1.574 1_556 S
C732 C748 1.368 1_655 S
H733 C741 0.950 . S
H734 C739 0.950 . S
H735 C740 0.949 . S
H736 C742 0.950 . S
H737 C743 0.950 . S
H738 C744 0.949 . S
C739 H734 0.950 . S
C739 C741 1.327 . S
C739 C745 1.429 . S
C740 C732 1.574 1_554 S
C740 H735 0.949 . S
C740 C746 1.368 1_655 S
C741 C725 1.349 . S
C741 H733 0.950 . S
C741 C739 1.327 . S
C742 C730 1.349 1_655 S
C742 H736 0.950 . S
C742 C743 1.327 . S
C743 H737 0.950 . S
C743 C742 1.327 . S
C743 C747 1.429 1_655 S
C744 C727 1.574 1_556 S
C744 H738 0.949 . S
C744 C748 1.368 . S
C745 C726 1.429 1_455 S
C745 C739 1.429 . S
C745 C746 1.523 . S
C746 C727 1.368 . S
C746 C740 1.368 1_455 S
C746 C745 1.523 . S
C747 C731 1.429 . S
C747 C743 1.429 1_455 S
C747 C748 1.523 . S
C748 C732 1.368 1_455 S
C748 C744 1.368 . S
C748 C747 1.523 . S
H749 C724 0.950 . S
H750 C726 0.950 . S
H751 C727 0.949 . S
H752 C729 0.950 . S
H753 C731 0.950 . S
C754 C755 1.349 1_565 S
C754 C756 1.327 . S
C754 H779 0.950 . S
C755 C754 1.349 1_545 S
C755 C771 1.349 . S
C756 C754 1.327 . S
C756 C775 1.429 1_565 S
C756 H780 0.950 . S
C757 C774 1.574 . S
C757 C776 1.368 . S
C757 H781 0.949 . S
H758 C762 0.949 . S
C759 C760 1.349 . S
C759 C761 1.327 . S
C759 H782 0.950 . S
C760 C759 1.349 . S
C760 C772 1.349 1_545 S
C761 C759 1.327 . S
C761 C777 1.429 . S
C761 H783 0.950 . S
C762 H758 0.949 . S
C762 C770 1.574 . S
C762 C778 1.368 1_565 S
H763 C771 0.950 . S
H764 C769 0.950 . S
H765 C770 0.949 . S
H766 C772 0.950 . S
H767 C773 0.950 . S
H768 C774 0.949 . S
C769 H764 0.950 . S
C769 C771 1.327 . S
C769 C775 1.429 . S
C770 C762 1.574 . S
C770 H765 0.949 . S
C770 C776 1.368 1_565 S
C771 C755 1.349 . S
C771 H763 0.950 . S
C771 C769 1.327 . S
C772 C760 1.349 1_565 S
C772 H766 0.950 . S
C772 C773 1.327 . S
C773 H767 0.950 . S
C773 C772 1.327 . S
C773 C777 1.429 1_565 S
C774 C757 1.574 . S
C774 H768 0.949 . S
C774 C778 1.368 . S
C775 C756 1.429 1_545 S
C775 C769 1.429 . S
C775 C776 1.523 . S
C776 C757 1.368 . S
C776 C770 1.368 1_545 S
C776 C775 1.523 . S
C777 C761 1.429 . S
C777 C773 1.429 1_545 S
C777 C778 1.523 . S
C778 C762 1.368 1_545 S
C778 C774 1.368 . S
C778 C777 1.523 . S
H779 C754 0.950 . S
H780 C756 0.950 . S
H781 C757 0.949 . S
H782 C759 0.950 . S
H783 C761 0.950 . S
C784 C785 1.349 . S
C784 C786 1.327 . S
C784 H809 0.950 . S
C785 C784 1.349 . S
C785 C801 1.349 . S
C786 C784 1.327 . S
C786 C805 1.429 . S
C786 H810 0.950 . S
C787 C804 1.574 . S
C787 C806 1.368 . S
C787 H811 0.949 . S
H788 C792 0.949 . S
C789 C790 1.349 . S
C789 C791 1.327 . S
C789 H812 0.950 . S
C790 C789 1.349 . S
C790 C802 1.349 . S
C791 C789 1.327 . S
C791 C807 1.429 . S
C791 H813 0.950 . S
C792 H788 0.949 . S
C792 C800 1.574 . S
C792 C808 1.368 . S
H793 C801 0.950 . S
H794 C799 0.950 . S
H795 C800 0.949 . S
H796 C802 0.950 . S
H797 C803 0.950 . S
H798 C804 0.949 . S
C799 H794 0.950 . S
C799 C801 1.327 . S
C799 C805 1.429 . S
C800 C792 1.574 . S
C800 H795 0.949 . S
C800 C806 1.368 . S
C801 C785 1.349 . S
C801 H793 0.950 . S
C801 C799 1.327 . S
C802 C790 1.349 . S
C802 H796 0.950 . S
C802 C803 1.327 . S
C803 H797 0.950 . S
C803 C802 1.327 . S
C803 C807 1.429 . S
C804 C787 1.574 . S
C804 H798 0.949 . S
C804 C808 1.368 . S
C805 C786 1.429 . S
C805 C799 1.429 . S
C805 C806 1.523 . S
C806 C787 1.368 . S
C806 C800 1.368 . S
C806 C805 1.523 . S
C807 C791 1.429 . S
C807 C803 1.429 . S
C807 C808 1.523 1_545 S
C808 C792 1.368 . S
C808 C804 1.368 . S
C808 C807 1.523 1_565 S
H809 C784 0.950 . S
H810 C786 0.950 . S
H811 C787 0.949 . S
H812 C789 0.950 . S
H813 C791 0.950 . S
C814 C815 1.349 . S
C814 C816 1.327 . S
C814 H839 0.950 . S
C815 C814 1.349 . S
C815 C831 1.349 . S
C816 C814 1.327 . S
C816 C835 1.429 . S
C816 H840 0.950 . S
C817 C834 1.574 . S
C817 C836 1.368 . S
C817 H841 0.949 . S
H818 C822 0.949 . S
C819 C820 1.349 . S
C819 C821 1.327 . S
C819 H842 0.950 . S
C820 C819 1.349 . S
C820 C832 1.349 . S
C821 C819 1.327 . S
C821 C837 1.429 . S
C821 H843 0.950 . S
C822 H818 0.949 . S
C822 C830 1.574 . S
C822 C838 1.368 . S
H823 C831 0.950 . S
H824 C829 0.950 . S
H825 C830 0.949 . S
H826 C832 0.950 . S
H827 C833 0.950 . S
H828 C834 0.949 . S
C829 H824 0.950 . S
C829 C831 1.327 . S
C829 C835 1.429 . S
C830 C822 1.574 . S
C830 H825 0.949 . S
C830 C836 1.368 . S
C831 C815 1.349 . S
C831 H823 0.950 . S
C831 C829 1.327 . S
C832 C820 1.349 . S
C832 H826 0.950 . S
C832 C833 1.327 . S
C833 H827 0.950 . S
C833 C832 1.327 . S
C833 C837 1.429 . S
C834 C817 1.574 . S
C834 H828 0.949 . S
C834 C838 1.368 . S
C835 C816 1.429 . S
C835 C829 1.429 . S
C835 C836 1.523 . S
C836 C817 1.368 . S
C836 C830 1.368 . S
C836 C835 1.523 . S
C837 C821 1.429 . S
C837 C833 1.429 . S
C837 C838 1.523 . S
C838 C822 1.368 . S
C838 C834 1.368 . S
C838 C837 1.523 . S
H839 C814 0.950 . S
H840 C816 0.950 . S
H841 C817 0.949 . S
H842 C819 0.950 . S
H843 C821 0.950 . S
C844 C845 1.349 1_455 S
C844 C846 1.327 . S
C844 H869 0.950 . S
C845 C844 1.349 1_655 S
C845 C861 1.349 . S
C846 C844 1.327 . S
C846 C865 1.429 1_455 S
C846 H870 0.950 . S
C847 C864 1.574 . S
C847 C866 1.368 . S
C847 H871 0.949 . S
H848 C852 0.949 . S
C849 C850 1.349 . S
C849 C851 1.327 . S
C849 H872 0.950 . S
C850 C849 1.349 . S
C850 C862 1.349 1_655 S
C851 C849 1.327 . S
C851 C867 1.429 . S
C851 H873 0.950 . S
C852 H848 0.949 . S
C852 C860 1.574 . S
C852 C868 1.368 1_455 S
H853 C861 0.950 . S
H854 C859 0.950 . S
H855 C860 0.949 . S
H856 C862 0.950 . S
H857 C863 0.950 . S
H858 C864 0.949 . S
C859 H854 0.950 . S
C859 C861 1.327 . S
C859 C865 1.429 . S
C860 C852 1.574 . S
C860 H855 0.949 . S
C860 C866 1.368 1_455 S
C861 C845 1.349 . S
C861 H853 0.950 . S
C861 C859 1.327 . S
C862 C850 1.349 1_455 S
C862 H856 0.950 . S
C862 C863 1.327 . S
C863 H857 0.950 . S
C863 C862 1.327 . S
C863 C867 1.429 1_455 S
C864 C847 1.574 . S
C864 H858 0.949 . S
C864 C868 1.368 . S
C865 C846 1.429 1_655 S
C865 C859 1.429 . S
C865 C866 1.523 . S
C866 C847 1.368 . S
C866 C860 1.368 1_655 S
C866 C865 1.523 . S
C867 C851 1.429 . S
C867 C863 1.429 1_655 S
C867 C868 1.523 . S
C868 C852 1.368 1_655 S
C868 C864 1.368 . S
C868 C867 1.523 . S
H869 C844 0.950 . S
H870 C846 0.950 . S
H871 C847 0.949 . S
H872 C849 0.950 . S
H873 C851 0.950 . S
C874 C875 1.349 1_545 S
C874 C876 1.327 . S
C874 H899 0.950 . S
C875 C874 1.349 1_565 S
C875 C891 1.349 . S
C876 C874 1.327 . S
C876 C895 1.429 1_545 S
C876 H900 0.950 . S
C877 C894 1.574 . S
C877 C896 1.368 . S
C877 H901 0.949 . S
H878 C882 0.949 . S
C879 C880 1.349 . S
C879 C881 1.327 . S
C879 H902 0.950 . S
C880 C879 1.349 . S
C880 C892 1.349 1_565 S
C881 C879 1.327 . S
C881 C897 1.429 . S
C881 H903 0.950 . S
C882 H878 0.949 . S
C882 C890 1.574 . S
C882 C898 1.368 1_545 S
H883 C891 0.950 . S
H884 C889 0.950 . S
H885 C890 0.949 . S
H886 C892 0.950 . S
H887 C893 0.950 . S
H888 C894 0.949 . S
C889 H884 0.950 . S
C889 C891 1.327 . S
C889 C895 1.429 . S
C890 C882 1.574 . S
C890 H885 0.949 . S
C890 C896 1.368 1_545 S
C891 C875 1.349 . S
C891 H883 0.950 . S
C891 C889 1.327 . S
C892 C880 1.349 1_545 S
C892 H886 0.950 . S
C892 C893 1.327 . S
C893 H887 0.950 . S
C893 C892 1.327 . S
C893 C897 1.429 1_545 S
C894 C877 1.574 . S
C894 H888 0.949 . S
C894 C898 1.368 . S
C895 C876 1.429 1_565 S
C895 C889 1.429 . S
C895 C896 1.523 . S
C896 C877 1.368 . S
C896 C890 1.368 1_565 S
C896 C895 1.523 . S
C897 C881 1.429 . S
C897 C893 1.429 1_565 S
C897 C898 1.523 1_455 S
C898 C882 1.368 1_565 S
C898 C894 1.368 . S
C898 C897 1.523 1_655 S
H899 C874 0.950 . S
H900 C876 0.950 . S
H901 C877 0.949 . S
H902 C879 0.950 . S
H903 C881 0.950 . S
C904 C905 1.349 . S
C904 C906 1.327 . S
C904 H929 0.950 . S
C905 C904 1.349 . S
C905 C921 1.349 . S
C906 C904 1.327 . S
C906 C925 1.429 . S
C906 H930 0.950 . S
C907 C924 1.574 . S
C907 C926 1.368 . S
C907 H931 0.949 . S
H908 C912 0.949 . S
C909 C910 1.349 . S
C909 C911 1.327 . S
C909 H932 0.950 . S
C910 C909 1.349 . S
C910 C922 1.349 . S
C911 C909 1.327 . S
C911 C927 1.429 . S
C911 H933 0.950 . S
C912 H908 0.949 . S
C912 C920 1.574 . S
C912 C928 1.368 . S
H913 C921 0.950 . S
H914 C919 0.950 . S
H915 C920 0.949 . S
H916 C922 0.950 . S
H917 C923 0.950 . S
H918 C924 0.949 . S
C919 H914 0.950 . S
C919 C921 1.327 . S
C919 C925 1.429 . S
C920 C912 1.574 . S
C920 H915 0.949 . S
C920 C926 1.368 . S
C921 C905 1.349 . S
C921 H913 0.950 . S
C921 C919 1.327 . S
C922 C910 1.349 . S
C922 H916 0.950 . S
C922 C923 1.327 . S
C923 H917 0.950 . S
C923 C922 1.327 . S
C923 C927 1.429 . S
C924 C907 1.574 . S
C924 H918 0.949 . S
C924 C928 1.368 . S
C925 C906 1.429 . S
C925 C919 1.429 . S
C925 C926 1.523 . S
C926 C907 1.368 . S
C926 C920 1.368 . S
C926 C925 1.523 . S
C927 C911 1.429 . S
C927 C923 1.429 . S
C927 C928 1.523 . S
C928 C912 1.368 . S
C928 C924 1.368 . S
C928 C927 1.523 . S
H929 C904 0.950 . S
H930 C906 0.950 . S
H931 C907 0.949 . S
H932 C909 0.950 . S
H933 C911 0.950 . S
C934 C935 1.349 . S
C934 C936 1.327 . S
C934 H959 0.950 . S
C935 C934 1.349 . S
C935 C951 1.349 . S
C936 C934 1.327 . S
C936 C955 1.429 . S
C936 H960 0.950 . S
C937 C954 1.574 . S
C937 C956 1.368 . S
C937 H961 0.949 . S
H938 C942 0.949 . S
C939 C940 1.349 . S
C939 C941 1.327 . S
C939 H962 0.950 . S
C940 C939 1.349 . S
C940 C952 1.349 . S
C941 C939 1.327 . S
C941 C957 1.429 . S
C941 H963 0.950 . S
C942 H938 0.949 . S
C942 C950 1.574 . S
C942 C958 1.368 . S
H943 C951 0.950 . S
H944 C949 0.950 . S
H945 C950 0.949 . S
H946 C952 0.950 . S
H947 C953 0.950 . S
H948 C954 0.949 . S
C949 H944 0.950 . S
C949 C951 1.327 . S
C949 C955 1.429 . S
C950 C942 1.574 . S
C950 H945 0.949 . S
C950 C956 1.368 . S
C951 C935 1.349 . S
C951 H943 0.950 . S
C951 C949 1.327 . S
C952 C940 1.349 . S
C952 H946 0.950 . S
C952 C953 1.327 . S
C953 H947 0.950 . S
C953 C952 1.327 . S
C953 C957 1.429 . S
C954 C937 1.574 . S
C954 H948 0.949 . S
C954 C958 1.368 . S
C955 C936 1.429 . S
C955 C949 1.429 . S
C955 C956 1.523 . S
C956 C937 1.368 . S
C956 C950 1.368 . S
C956 C955 1.523 . S
C957 C941 1.429 . S
C957 C953 1.429 . S
C957 C958 1.523 1_455 S
C958 C942 1.368 . S
C958 C954 1.368 . S
C958 C957 1.523 1_655 S
H959 C934 0.950 . S
H960 C936 0.950 . S
H961 C937 0.949 . S
H962 C939 0.950 . S
H963 C941 0.950 . S
C964 C965 1.349 1_455 S
C964 C966 1.327 . S
C964 H989 0.950 . S
C965 C964 1.349 1_655 S
C965 C981 1.349 . S
C966 C964 1.327 . S
C966 C985 1.429 1_455 S
C966 H990 0.950 . S
C967 C984 1.574 . S
C967 C986 1.368 . S
C967 H991 0.949 . S
H968 C972 0.950 . S
C969 C970 1.349 . S
C969 C971 1.327 . S
C969 H992 0.950 . S
C970 C969 1.349 . S
C970 C982 1.349 . S
C971 C969 1.327 . S
C971 C987 1.429 . S
C971 H993 0.950 . S
C972 H968 0.950 . S
C972 C980 1.574 . S
C972 C988 1.368 1_455 S
H973 C981 0.950 . S
H974 C979 0.950 . S
H975 C980 0.949 . S
H976 C982 0.951 . S
H977 C983 0.950 1_455 S
H978 C984 0.949 . S
C979 H974 0.950 . S
C979 C981 1.327 . S
C979 C985 1.429 . S
C980 C972 1.574 . S
C980 H975 0.949 . S
C980 C986 1.368 1_455 S
C981 C965 1.349 . S
C981 H973 0.950 . S
C981 C979 1.327 . S
C982 C970 1.349 . S
C982 H976 0.951 . S
C982 C983 1.327 . S
C983 H977 0.950 1_655 S
C983 C982 1.327 . S
C983 C987 1.429 . S
C984 C967 1.574 . S
C984 H978 0.949 . S
C984 C988 1.368 . S
C985 C966 1.429 1_655 S
C985 C979 1.429 . S
C985 C986 1.523 1_545 S
C986 C967 1.368 . S
C986 C980 1.368 1_655 S
C986 C985 1.523 1_565 S
C987 C971 1.429 . S
C987 C983 1.429 . S
C987 C988 1.523 . S
C988 C972 1.368 1_655 S
C988 C984 1.368 . S
C988 C987 1.523 . S
H989 C964 0.950 . S
H990 C966 0.950 . S
H991 C967 0.949 . S
H992 C969 0.950 . S
H993 C971 0.950 . S
C994 C995 1.349 1_545 S
C994 C996 1.327 . S
C994 H1019 0.950 . S
C995 C994 1.349 1_565 S
C995 C1011 1.349 . S
C996 C994 1.327 . S
C996 C1015 1.429 1_545 S
C996 H1020 0.950 . S
C997 C1014 1.574 . S
C997 C1016 1.368 . S
C997 H1021 0.949 . S
H998 C1002 0.949 . S
C999 C1000 1.349 . S
C999 C1001 1.327 . S
C999 H1022 0.950 . S
C1000 C999 1.349 . S
C1000 C1012 1.349 1_565 S
C1001 C999 1.327 . S
C1001 C1017 1.429 . S
C1001 H1023 0.950 . S
C1002 H998 0.949 . S
C1002 C1010 1.574 . S
C1002 C1018 1.368 1_545 S
H1003 C1011 0.950 . S
H1004 C1009 0.950 . S
H1005 C1010 0.949 . S
H1006 C1012 0.950 . S
H1007 C1013 0.950 . S
H1008 C1014 0.949 . S
C1009 H1004 0.950 . S
C1009 C1011 1.327 . S
C1009 C1015 1.429 . S
C1010 C1002 1.574 . S
C1010 H1005 0.949 . S
C1010 C1016 1.368 1_545 S
C1011 C995 1.349 . S
C1011 H1003 0.950 . S
C1011 C1009 1.327 . S
C1012 C1000 1.349 1_545 S
C1012 H1006 0.950 . S
C1012 C1013 1.327 . S
C1013 H1007 0.950 . S
C1013 C1012 1.327 . S
C1013 C1017 1.429 1_545 S
C1014 C997 1.574 . S
C1014 H1008 0.949 . S
C1014 C1018 1.368 . S
C1015 C996 1.429 1_565 S
C1015 C1009 1.429 . S
C1015 C1016 1.523 . S
C1016 C997 1.368 . S
C1016 C1010 1.368 1_565 S
C1016 C1015 1.523 . S
C1017 C1001 1.429 . S
C1017 C1013 1.429 1_565 S
C1017 C1018 1.523 . S
C1018 C1002 1.368 1_565 S
C1018 C1014 1.368 . S
C1018 C1017 1.523 . S
H1019 C994 0.950 . S
H1020 C996 0.950 . S
H1021 C997 0.949 . S
H1022 C999 0.950 . S
H1023 C1001 0.950 . S
C1024 C1025 1.349 . S
C1024 C1026 1.327 . S
C1024 H1049 0.950 . S
C1025 C1024 1.349 . S
C1025 C1041 1.349 . S
C1026 C1024 1.327 . S
C1026 C1045 1.429 . S
C1026 H1050 0.950 . S
C1027 C1044 1.574 . S
C1027 C1046 1.368 . S
C1027 H1051 0.949 . S
H1028 C1032 0.949 . S
C1029 C1030 1.349 . S
C1029 C1031 1.327 . S
C1029 H1052 0.950 . S
C1030 C1029 1.349 . S
C1030 C1042 1.349 . S
C1031 C1029 1.327 . S
C1031 C1047 1.429 . S
C1031 H1053 0.950 . S
C1032 H1028 0.949 . S
C1032 C1040 1.574 . S
C1032 C1048 1.368 . S
H1033 C1041 0.950 . S
H1034 C1039 0.950 . S
H1035 C1040 0.949 . S
H1036 C1042 0.950 . S
H1037 C1043 0.950 . S
H1038 C1044 0.949 . S
C1039 H1034 0.950 . S
C1039 C1041 1.327 . S
C1039 C1045 1.429 . S
C1040 C1032 1.574 . S
C1040 H1035 0.949 . S
C1040 C1046 1.368 . S
C1041 C1025 1.349 . S
C1041 H1033 0.950 . S
C1041 C1039 1.327 . S
C1042 C1030 1.349 . S
C1042 H1036 0.950 . S
C1042 C1043 1.327 . S
C1043 H1037 0.950 . S
C1043 C1042 1.327 . S
C1043 C1047 1.429 . S
C1044 C1027 1.574 . S
C1044 H1038 0.949 . S
C1044 C1048 1.368 . S
C1045 C1026 1.429 . S
C1045 C1039 1.429 . S
C1045 C1046 1.523 . S
C1046 C1027 1.368 . S
C1046 C1040 1.368 . S
C1046 C1045 1.523 . S
C1047 C1031 1.429 . S
C1047 C1043 1.429 . S
C1047 C1048 1.523 1_565 S
C1048 C1032 1.368 . S
C1048 C1044 1.368 . S
C1048 C1047 1.523 1_545 S
H1049 C1024 0.950 . S
H1050 C1026 0.950 . S
H1051 C1027 0.949 . S
H1052 C1029 0.950 . S
H1053 C1031 0.950 . S
C1054 C1055 1.349 . S
C1054 C1056 1.327 . S
C1054 H1079 0.950 . S
C1055 C1054 1.349 . S
C1055 C1071 1.349 . S
C1056 C1054 1.327 . S
C1056 C1075 1.429 . S
C1056 H1080 0.950 . S
C1057 C1074 1.574 . S
C1057 C1076 1.368 . S
C1057 H1081 0.949 . S
H1058 C1062 0.949 . S
C1059 C1060 1.349 . S
C1059 C1061 1.327 . S
C1059 H1082 0.950 . S
C1060 C1059 1.349 . S
C1060 C1072 1.349 . S
C1061 C1059 1.327 . S
C1061 C1077 1.429 . S
C1061 H1083 0.950 . S
C1062 H1058 0.949 . S
C1062 C1070 1.574 . S
C1062 C1078 1.368 . S
H1063 C1071 0.950 . S
H1064 C1069 0.950 . S
H1065 C1070 0.949 . S
H1066 C1072 0.950 . S
H1067 C1073 0.950 . S
H1068 C1074 0.949 . S
C1069 H1064 0.950 . S
C1069 C1071 1.327 . S
C1069 C1075 1.429 . S
C1070 C1062 1.574 . S
C1070 H1065 0.949 . S
C1070 C1076 1.368 . S
C1071 C1055 1.349 . S
C1071 H1063 0.950 . S
C1071 C1069 1.327 . S
C1072 C1060 1.349 . S
C1072 H1066 0.950 . S
C1072 C1073 1.327 . S
C1073 H1067 0.950 . S
C1073 C1072 1.327 . S
C1073 C1077 1.429 . S
C1074 C1057 1.574 . S
C1074 H1068 0.949 . S
C1074 C1078 1.368 . S
C1075 C1056 1.429 . S
C1075 C1069 1.429 . S
C1075 C1076 1.523 . S
C1076 C1057 1.368 . S
C1076 C1070 1.368 . S
C1076 C1075 1.523 . S
C1077 C1061 1.429 . S
C1077 C1073 1.429 . S
C1077 C1078 1.523 . S
C1078 C1062 1.368 . S
C1078 C1074 1.368 . S
C1078 C1077 1.523 . S
H1079 C1054 0.950 . S
H1080 C1056 0.950 . S
H1081 C1057 0.949 . S
H1082 C1059 0.950 . S
H1083 C1061 0.950 . S
C1084 C1085 1.349 . S
C1084 C1086 1.327 . S
C1084 H1109 0.950 . S
C1085 C1084 1.349 . S
C1085 C1101 1.349 1_455 S
C1086 C1084 1.327 . S
C1086 C1105 1.429 . S
C1086 H1110 0.950 . S
C1087 C1104 1.574 . S
C1087 C1106 1.368 1_655 S
C1087 H1111 0.949 . S
H1088 C1092 0.949 . S
C1089 C1090 1.349 1_655 S
C1089 C1091 1.327 . S
C1089 H1112 0.950 . S
C1090 C1089 1.349 1_455 S
C1090 C1102 1.349 . S
C1091 C1089 1.327 . S
C1091 C1107 1.429 1_655 S
C1091 H1113 0.950 . S
C1092 H1088 0.949 . S
C1092 C1100 1.574 . S
C1092 C1108 1.368 . S
H1093 C1101 0.950 . S
H1094 C1099 0.950 . S
H1095 C1100 0.949 . S
H1096 C1102 0.950 . S
H1097 C1103 0.950 . S
H1098 C1104 0.949 . S
C1099 H1094 0.950 . S
C1099 C1101 1.327 . S
C1099 C1105 1.429 1_655 S
C1100 C1092 1.574 . S
C1100 H1095 0.949 . S
C1100 C1106 1.368 . S
C1101 C1085 1.349 1_655 S
C1101 H1093 0.950 . S
C1101 C1099 1.327 . S
C1102 C1090 1.349 . S
C1102 H1096 0.950 . S
C1102 C1103 1.327 . S
C1103 H1097 0.950 . S
C1103 C1102 1.327 . S
C1103 C1107 1.429 . S
C1104 C1087 1.574 . S
C1104 H1098 0.949 . S
C1104 C1108 1.368 1_655 S
C1105 C1086 1.429 . S
C1105 C1099 1.429 1_455 S
C1105 C1106 1.523 . S
C1106 C1087 1.368 1_455 S
C1106 C1100 1.368 . S
C1106 C1105 1.523 . S
C1107 C1091 1.429 1_455 S
C1107 C1103 1.429 . S
C1107 C1108 1.523 . S
C1108 C1092 1.368 . S
C1108 C1104 1.368 1_455 S
C1108 C1107 1.523 . S
H1109 C1084 0.950 . S
H1110 C1086 0.950 . S
H1111 C1087 0.949 . S
H1112 C1089 0.950 . S
H1113 C1091 0.950 . S
C1114 C1115 1.349 . S
C1114 C1116 1.327 . S
C1114 H1139 0.950 . S
C1115 C1114 1.349 . S
C1115 C1131 1.349 1_545 S
C1116 C1114 1.327 . S
C1116 C1135 1.429 . S
C1116 H1140 0.950 . S
C1117 C1134 1.574 . S
C1117 C1136 1.368 1_565 S
C1117 H1141 0.949 . S
H1118 C1122 0.949 . S
C1119 C1120 1.349 1_565 S
C1119 C1121 1.327 . S
C1119 H1142 0.950 . S
C1120 C1119 1.349 1_545 S
C1120 C1132 1.349 . S
C1121 C1119 1.327 . S
C1121 C1137 1.429 1_565 S
C1121 H1143 0.950 . S
C1122 H1118 0.949 . S
C1122 C1130 1.574 . S
C1122 C1138 1.368 . S
H1123 C1131 0.950 . S
H1124 C1129 0.950 . S
H1125 C1130 0.949 . S
H1126 C1132 0.950 . S
H1127 C1133 0.950 . S
H1128 C1134 0.949 . S
C1129 H1124 0.950 . S
C1129 C1131 1.327 . S
C1129 C1135 1.429 1_565 S
C1130 C1122 1.574 . S
C1130 H1125 0.949 . S
C1130 C1136 1.368 . S
C1131 C1115 1.349 1_565 S
C1131 H1123 0.950 . S
C1131 C1129 1.327 . S
C1132 C1120 1.349 . S
C1132 H1126 0.950 . S
C1132 C1133 1.327 . S
C1133 H1127 0.950 . S
C1133 C1132 1.327 . S
C1133 C1137 1.429 . S
C1134 C1117 1.574 . S
C1134 H1128 0.949 . S
C1134 C1138 1.368 1_565 S
C1135 C1116 1.429 . S
C1135 C1129 1.429 1_545 S
C1135 C1136 1.523 1_655 S
C1136 C1117 1.368 1_545 S
C1136 C1130 1.368 . S
C1136 C1135 1.523 1_455 S
C1137 C1121 1.429 1_545 S
C1137 C1133 1.429 . S
C1137 C1138 1.523 . S
C1138 C1122 1.368 . S
C1138 C1134 1.368 1_545 S
C1138 C1137 1.523 . S
H1139 C1114 0.950 . S
H1140 C1116 0.950 . S
H1141 C1117 0.949 . S
H1142 C1119 0.950 . S
H1143 C1121 0.950 . S
C1144 C1145 1.349 . S
C1144 C1146 1.327 . S
C1144 H1169 0.950 . S
C1145 C1144 1.349 . S
C1145 C1161 1.349 . S
C1146 C1144 1.327 . S
C1146 C1165 1.429 . S
C1146 H1170 0.950 . S
C1147 C1164 1.574 . S
C1147 C1166 1.368 . S
C1147 H1171 0.949 . S
H1148 C1152 0.949 . S
C1149 C1150 1.349 . S
C1149 C1151 1.327 . S
C1149 H1172 0.950 . S
C1150 C1149 1.349 . S
C1150 C1162 1.349 . S
C1151 C1149 1.327 . S
C1151 C1167 1.429 . S
C1151 H1173 0.950 . S
C1152 H1148 0.949 . S
C1152 C1160 1.574 . S
C1152 C1168 1.368 . S
H1153 C1161 0.950 . S
H1154 C1159 0.950 . S
H1155 C1160 0.949 . S
H1156 C1162 0.950 . S
H1157 C1163 0.950 . S
H1158 C1164 0.949 . S
C1159 H1154 0.950 . S
C1159 C1161 1.327 . S
C1159 C1165 1.429 . S
C1160 C1152 1.574 . S
C1160 H1155 0.949 . S
C1160 C1166 1.368 . S
C1161 C1145 1.349 . S
C1161 H1153 0.950 . S
C1161 C1159 1.327 . S
C1162 C1150 1.349 . S
C1162 H1156 0.950 . S
C1162 C1163 1.327 . S
C1163 H1157 0.950 . S
C1163 C1162 1.327 . S
C1163 C1167 1.429 . S
C1164 C1147 1.574 . S
C1164 H1158 0.949 . S
C1164 C1168 1.368 . S
C1165 C1146 1.429 . S
C1165 C1159 1.429 . S
C1165 C1166 1.523 . S
C1166 C1147 1.368 . S
C1166 C1160 1.368 . S
C1166 C1165 1.523 . S
C1167 C1151 1.429 . S
C1167 C1163 1.429 . S
C1167 C1168 1.523 . S
C1168 C1152 1.368 . S
C1168 C1164 1.368 . S
C1168 C1167 1.523 . S
H1169 C1144 0.950 . S
H1170 C1146 0.950 . S
H1171 C1147 0.949 . S
H1172 C1149 0.950 . S
H1173 C1151 0.950 . S
C1174 C1175 1.349 . S
C1174 C1176 1.327 . S
C1174 H1199 0.950 . S
C1175 C1174 1.349 . S
C1175 C1191 1.349 . S
C1176 C1174 1.327 . S
C1176 C1195 1.429 . S
C1176 H1200 0.950 . S
C1177 C1194 1.574 . S
C1177 C1196 1.368 . S
C1177 H1201 0.949 . S
H1178 C1182 0.949 . S
C1179 C1180 1.349 . S
C1179 C1181 1.327 . S
C1179 H1202 0.950 . S
C1180 C1179 1.349 . S
C1180 C1192 1.349 . S
C1181 C1179 1.327 . S
C1181 C1197 1.429 . S
C1181 H1203 0.950 . S
C1182 H1178 0.949 . S
C1182 C1190 1.574 . S
C1182 C1198 1.368 . S
H1183 C1191 0.950 . S
H1184 C1189 0.950 . S
H1185 C1190 0.949 . S
H1186 C1192 0.950 . S
H1187 C1193 0.950 . S
H1188 C1194 0.949 . S
C1189 H1184 0.950 . S
C1189 C1191 1.327 . S
C1189 C1195 1.429 . S
C1190 C1182 1.574 . S
C1190 H1185 0.949 . S
C1190 C1196 1.368 . S
C1191 C1175 1.349 . S
C1191 H1183 0.950 . S
C1191 C1189 1.327 . S
C1192 C1180 1.349 . S
C1192 H1186 0.950 . S
C1192 C1193 1.327 . S
C1193 H1187 0.950 . S
C1193 C1192 1.327 . S
C1193 C1197 1.429 . S
C1194 C1177 1.574 . S
C1194 H1188 0.949 . S
C1194 C1198 1.368 . S
C1195 C1176 1.429 . S
C1195 C1189 1.429 . S
C1195 C1196 1.523 . S
C1196 C1177 1.368 . S
C1196 C1190 1.368 . S
C1196 C1195 1.523 . S
C1197 C1181 1.429 . S
C1197 C1193 1.429 . S
C1197 C1198 1.523 1_655 S
C1198 C1182 1.368 . S
C1198 C1194 1.368 . S
C1198 C1197 1.523 1_455 S
H1199 C1174 0.950 . S
H1200 C1176 0.950 . S
H1201 C1177 0.949 . S
H1202 C1179 0.950 . S
H1203 C1181 0.950 . S
C1204 C1205 1.349 . S
C1204 C1206 1.327 . S
C1204 H1229 0.950 . S
C1205 C1204 1.349 . S
C1205 C1221 1.349 1_455 S
C1206 C1204 1.327 . S
C1206 C1225 1.429 . S
C1206 H1230 0.950 . S
C1207 C1224 1.574 . S
C1207 C1226 1.368 1_655 S
C1207 H1231 0.949 . S
H1208 C1212 0.949 . S
C1209 C1210 1.347 1_655 S
C1209 C1211 1.327 . S
C1209 H1232 0.951 . S
C1210 C1209 1.347 1_455 S
C1210 C1222 1.349 . S
C1211 C1209 1.327 . S
C1211 C1227 1.429 1_655 S
C1211 H1233 0.950 . S
C1212 H1208 0.949 . S
C1212 C1220 1.574 . S
C1212 C1228 1.368 . S
H1213 C1221 0.950 . S
H1214 C1219 0.950 . S
H1215 C1220 0.949 . S
H1216 C1222 0.950 . S
H1217 C1223 0.950 . S
H1218 C1224 0.949 . S
C1219 H1214 0.950 . S
C1219 C1221 1.327 . S
C1219 C1225 1.429 1_655 S
C1220 C1212 1.574 . S
C1220 H1215 0.949 . S
C1220 C1226 1.368 . S
C1221 C1205 1.349 1_655 S
C1221 H1213 0.950 . S
C1221 C1219 1.327 . S
C1222 C1210 1.349 . S
C1222 H1216 0.950 . S
C1222 C1223 1.327 . S
C1223 H1217 0.950 . S
C1223 C1222 1.327 . S
C1223 C1227 1.429 . S
C1224 C1207 1.574 . S
C1224 H1218 0.949 . S
C1224 C1228 1.368 1_655 S
C1225 C1206 1.429 . S
C1225 C1219 1.429 1_455 S
C1225 C1226 1.523 1_565 S
C1226 C1207 1.368 1_455 S
C1226 C1220 1.368 . S
C1226 C1225 1.523 1_545 S
C1227 C1211 1.429 1_455 S
C1227 C1223 1.429 . S
C1227 C1228 1.523 . S
C1228 C1212 1.368 . S
C1228 C1224 1.368 1_455 S
C1228 C1227 1.523 . S
H1229 C1204 0.950 . S
H1230 C1206 0.950 . S
H1231 C1207 0.949 . S
H1232 C1209 0.951 . S
H1233 C1211 0.950 . S
C1234 C1235 1.349 . S
C1234 C1236 1.327 . S
C1234 H1259 0.950 . S
C1235 C1234 1.349 . S
C1235 C1251 1.349 1_545 S
C1236 C1234 1.327 . S
C1236 C1255 1.429 . S
C1236 H1260 0.950 . S
C1237 C1254 1.574 . S
C1237 C1256 1.368 1_565 S
C1237 H1261 0.949 . S
H1238 C1242 0.949 . S
C1239 C1240 1.349 1_565 S
C1239 C1241 1.327 . S
C1239 H1262 0.950 . S
C1240 C1239 1.349 1_545 S
C1240 C1252 1.349 . S
C1241 C1239 1.327 . S
C1241 C1257 1.429 1_565 S
C1241 H1263 0.950 . S
C1242 H1238 0.949 . S
C1242 C1250 1.574 . S
C1242 C1258 1.368 . S
H1243 C1251 0.950 . S
H1244 C1249 0.950 . S
H1245 C1250 0.949 . S
H1246 C1252 0.950 . S
H1247 C1253 0.950 . S
H1248 C1254 0.949 . S
C1249 H1244 0.950 . S
C1249 C1251 1.327 . S
C1249 C1255 1.429 1_565 S
C1250 C1242 1.574 . S
C1250 H1245 0.949 . S
C1250 C1256 1.368 . S
C1251 C1235 1.349 1_565 S
C1251 H1243 0.950 . S
C1251 C1249 1.327 . S
C1252 C1240 1.349 . S
C1252 H1246 0.950 . S
C1252 C1253 1.327 . S
C1253 H1247 0.950 . S
C1253 C1252 1.327 . S
C1253 C1257 1.429 . S
C1254 C1237 1.574 . S
C1254 H1248 0.949 . S
C1254 C1258 1.368 1_565 S
C1255 C1236 1.429 . S
C1255 C1249 1.429 1_545 S
C1255 C1256 1.523 . S
C1256 C1237 1.368 1_545 S
C1256 C1250 1.368 . S
C1256 C1255 1.523 . S
C1257 C1241 1.429 1_545 S
C1257 C1253 1.429 . S
C1257 C1258 1.523 . S
C1258 C1242 1.368 . S
C1258 C1254 1.368 1_545 S
C1258 C1257 1.523 . S
H1259 C1234 0.950 . S
H1260 C1236 0.950 . S
H1261 C1237 0.949 . S
H1262 C1239 0.950 . S
H1263 C1241 0.950 . S
C1264 C1265 1.349 . S
C1264 C1266 1.327 . S
C1264 H1289 0.950 . S
C1265 C1264 1.349 . S
C1265 C1281 1.349 . S
C1266 C1264 1.327 . S
C1266 C1285 1.429 . S
C1266 H1290 0.950 . S
C1267 C1284 1.574 . S
C1267 C1286 1.368 . S
C1267 H1291 0.949 . S
H1268 C1272 0.949 . S
C1269 C1270 1.349 . S
C1269 C1271 1.327 . S
C1269 H1292 0.950 . S
C1270 C1269 1.349 . S
C1270 C1282 1.349 . S
C1271 C1269 1.327 . S
C1271 C1287 1.429 . S
C1271 H1293 0.950 . S
C1272 H1268 0.949 . S
C1272 C1280 1.574 . S
C1272 C1288 1.368 . S
H1273 C1281 0.950 . S
H1274 C1279 0.950 . S
H1275 C1280 0.949 . S
H1276 C1282 0.950 . S
H1277 C1283 0.950 . S
H1278 C1284 0.949 . S
C1279 H1274 0.950 . S
C1279 C1281 1.327 . S
C1279 C1285 1.429 . S
C1280 C1272 1.574 . S
C1280 H1275 0.949 . S
C1280 C1286 1.368 . S
C1281 C1265 1.349 . S
C1281 H1273 0.950 . S
C1281 C1279 1.327 . S
C1282 C1270 1.349 . S
C1282 H1276 0.950 . S
C1282 C1283 1.327 . S
C1283 H1277 0.950 . S
C1283 C1282 1.327 . S
C1283 C1287 1.429 . S
C1284 C1267 1.574 . S
C1284 H1278 0.949 . S
C1284 C1288 1.368 . S
C1285 C1266 1.429 . S
C1285 C1279 1.429 . S
C1285 C1286 1.523 . S
C1286 C1267 1.368 . S
C1286 C1280 1.368 . S
C1286 C1285 1.523 . S
C1287 C1271 1.429 . S
C1287 C1283 1.429 . S
C1287 C1288 1.523 . S
C1288 C1272 1.368 . S
C1288 C1284 1.368 . S
C1288 C1287 1.523 . S
H1289 C1264 0.950 . S
H1290 C1266 0.950 . S
H1291 C1267 0.949 . S
H1292 C1269 0.950 . S
H1293 C1271 0.950 . S
C1294 C1295 1.349 . S
C1294 C1296 1.327 . S
C1294 H1319 0.950 . S
C1295 C1294 1.349 . S
C1295 C1311 1.349 . S
C1296 C1294 1.327 . S
C1296 C1315 1.429 . S
C1296 H1320 0.950 . S
C1297 C1314 1.574 . S
C1297 C1316 1.368 . S
C1297 H1321 0.949 . S
H1298 C1302 0.949 . S
C1299 C1300 1.349 . S
C1299 C1301 1.327 . S
C1299 H1322 0.950 . S
C1300 C1299 1.349 . S
C1300 C1312 1.349 . S
C1301 C1299 1.327 . S
C1301 C1317 1.429 . S
C1301 H1323 0.950 . S
C1302 H1298 0.949 . S
C1302 C1310 1.574 . S
C1302 C1318 1.368 . S
H1303 C1311 0.950 . S
H1304 C1309 0.950 . S
H1305 C1310 0.949 . S
H1306 C1312 0.950 . S
H1307 C1313 0.950 . S
H1308 C1314 0.949 . S
C1309 H1304 0.950 . S
C1309 C1311 1.327 . S
C1309 C1315 1.429 . S
C1310 C1302 1.574 . S
C1310 H1305 0.949 . S
C1310 C1316 1.368 . S
C1311 C1295 1.349 . S
C1311 H1303 0.950 . S
C1311 C1309 1.327 . S
C1312 C1300 1.349 . S
C1312 H1306 0.950 . S
C1312 C1313 1.327 . S
C1313 H1307 0.950 . S
C1313 C1312 1.327 . S
C1313 C1317 1.429 . S
C1314 C1297 1.574 . S
C1314 H1308 0.949 . S
C1314 C1318 1.368 . S
C1315 C1296 1.429 . S
C1315 C1309 1.429 . S
C1315 C1316 1.523 . S
C1316 C1297 1.368 . S
C1316 C1310 1.368 . S
C1316 C1315 1.523 . S
C1317 C1301 1.429 . S
C1317 C1313 1.429 . S
C1317 C1318 1.523 . S
C1318 C1302 1.368 . S
C1318 C1314 1.368 . S
C1318 C1317 1.523 . S
H1319 C1294 0.950 . S
H1320 C1296 0.950 . S
H1321 C1297 0.949 . S
H1322 C1299 0.950 . S
H1323 C1301 0.950 . S
C1324 C1325 1.349 . S
C1324 C1326 1.327 . S
C1324 H1349 0.950 . S
C1325 C1324 1.349 . S
C1325 C1341 1.349 . S
C1326 C1324 1.327 . S
C1326 C1345 1.429 . S
C1326 H1350 0.950 . S
C1327 C1344 1.574 . S
C1327 C1346 1.368 . S
C1327 H1351 0.949 . S
H1328 C1332 0.949 . S
C1329 C1330 1.349 . S
C1329 C1331 1.327 . S
C1329 H1352 0.950 . S
C1330 C1329 1.349 . S
C1330 C1342 1.349 . S
C1331 C1329 1.327 . S
C1331 C1347 1.429 . S
C1331 H1353 0.950 . S
C1332 H1328 0.949 . S
C1332 C1340 1.574 . S
C1332 C1348 1.368 . S
H1333 C1341 0.950 . S
H1334 C1339 0.950 . S
H1335 C1340 0.949 . S
H1336 C1342 0.950 . S
H1337 C1343 0.950 . S
H1338 C1344 0.949 . S
C1339 H1334 0.950 . S
C1339 C1341 1.327 . S
C1339 C1345 1.429 . S
C1340 C1332 1.574 . S
C1340 H1335 0.949 . S
C1340 C1346 1.368 . S
C1341 C1325 1.349 . S
C1341 H1333 0.950 . S
C1341 C1339 1.327 . S
C1342 C1330 1.349 . S
C1342 H1336 0.950 . S
C1342 C1343 1.327 . S
C1343 H1337 0.950 . S
C1343 C1342 1.327 . S
C1343 C1347 1.429 . S
C1344 C1327 1.574 . S
C1344 H1338 0.949 . S
C1344 C1348 1.368 . S
C1345 C1326 1.429 . S
C1345 C1339 1.429 . S
C1345 C1346 1.523 . S
C1346 C1327 1.368 . S
C1346 C1340 1.368 . S
C1346 C1345 1.523 . S
C1347 C1331 1.429 . S
C1347 C1343 1.429 . S
C1347 C1348 1.523 . S
C1348 C1332 1.368 . S
C1348 C1344 1.368 . S
C1348 C1347 1.523 . S
H1349 C1324 0.950 . S
H1350 C1326 0.950 . S
H1351 C1327 0.949 . S
H1352 C1329 0.950 . S
H1353 C1331 0.950 . S
C1354 C1355 1.349 . S
C1354 C1356 1.327 . S
C1354 H1379 0.950 . S
C1355 C1354 1.349 . S
C1355 C1371 1.349 . S
C1356 C1354 1.327 . S
C1356 C1375 1.429 . S
C1356 H1380 0.950 . S
C1357 C1374 1.574 . S
C1357 C1376 1.368 . S
C1357 H1381 0.949 . S
H1358 C1362 0.949 . S
C1359 C1360 1.349 . S
C1359 C1361 1.327 . S
C1359 H1382 0.950 . S
C1360 C1359 1.349 . S
C1360 C1372 1.349 . S
C1361 C1359 1.327 . S
C1361 C1377 1.429 . S
C1361 H1383 0.950 . S
C1362 H1358 0.949 . S
C1362 C1370 1.574 . S
C1362 C1378 1.368 . S
H1363 C1371 0.950 . S
H1364 C1369 0.950 . S
H1365 C1370 0.949 . S
H1366 C1372 0.950 . S
H1367 C1373 0.950 . S
H1368 C1374 0.949 . S
C1369 H1364 0.950 . S
C1369 C1371 1.327 . S
C1369 C1375 1.429 . S
C1370 C1362 1.574 . S
C1370 H1365 0.949 . S
C1370 C1376 1.368 . S
C1371 C1355 1.349 . S
C1371 H1363 0.950 . S
C1371 C1369 1.327 . S
C1372 C1360 1.349 . S
C1372 H1366 0.950 . S
C1372 C1373 1.327 . S
C1373 H1367 0.950 . S
C1373 C1372 1.327 . S
C1373 C1377 1.429 . S
C1374 C1357 1.574 . S
C1374 H1368 0.949 . S
C1374 C1378 1.368 . S
C1375 C1356 1.429 . S
C1375 C1369 1.429 . S
C1375 C1376 1.523 . S
C1376 C1357 1.368 . S
C1376 C1370 1.368 . S
C1376 C1375 1.523 . S
C1377 C1361 1.429 . S
C1377 C1373 1.429 . S
C1377 C1378 1.523 . S
C1378 C1362 1.368 . S
C1378 C1374 1.368 . S
C1378 C1377 1.523 . S
H1379 C1354 0.950 . S
H1380 C1356 0.950 . S
H1381 C1357 0.949 . S
H1382 C1359 0.950 . S
H1383 C1361 0.950 . S
C1384 C1385 1.349 . S
C1384 C1386 1.327 . S
C1384 H1409 0.950 . S
C1385 C1384 1.349 . S
C1385 C1401 1.349 . S
C1386 C1384 1.327 . S
C1386 C1405 1.429 . S
C1386 H1410 0.950 . S
C1387 C1404 1.574 . S
C1387 C1406 1.368 . S
C1387 H1411 0.949 . S
H1388 C1392 0.949 . S
C1389 C1390 1.349 . S
C1389 C1391 1.327 . S
C1389 H1412 0.950 . S
C1390 C1389 1.349 . S
C1390 C1402 1.349 . S
C1391 C1389 1.327 . S
C1391 C1407 1.429 . S
C1391 H1413 0.950 . S
C1392 H1388 0.949 . S
C1392 C1400 1.574 . S
C1392 C1408 1.368 . S
H1393 C1401 0.950 . S
H1394 C1399 0.950 . S
H1395 C1400 0.949 . S
H1396 C1402 0.950 . S
H1397 C1403 0.950 . S
H1398 C1404 0.949 . S
C1399 H1394 0.950 . S
C1399 C1401 1.327 . S
C1399 C1405 1.429 . S
C1400 C1392 1.574 . S
C1400 H1395 0.949 . S
C1400 C1406 1.368 . S
C1401 C1385 1.349 . S
C1401 H1393 0.950 . S
C1401 C1399 1.327 . S
C1402 C1390 1.349 . S
C1402 H1396 0.950 . S
C1402 C1403 1.327 . S
C1403 H1397 0.950 . S
C1403 C1402 1.327 . S
C1403 C1407 1.429 . S
C1404 C1387 1.574 . S
C1404 H1398 0.949 . S
C1404 C1408 1.368 . S
C1405 C1386 1.429 . S
C1405 C1399 1.429 . S
C1405 C1406 1.523 . S
C1406 C1387 1.368 . S
C1406 C1400 1.368 . S
C1406 C1405 1.523 . S
C1407 C1391 1.429 . S
C1407 C1403 1.429 . S
C1407 C1408 1.523 . S
C1408 C1392 1.368 . S
C1408 C1404 1.368 . S
C1408 C1407 1.523 . S
H1409 C1384 0.950 . S
H1410 C1386 0.950 . S
H1411 C1387 0.949 . S
H1412 C1389 0.950 . S
H1413 C1391 0.950 . S
C1414 C1415 1.349 . S
C1414 C1416 1.327 . S
C1414 H1439 0.950 . S
C1415 C1414 1.349 . S
C1415 C1431 1.349 . S
C1416 C1414 1.327 . S
C1416 C1435 1.429 . S
C1416 H1440 0.950 . S
C1417 C1434 1.574 . S
C1417 C1436 1.368 . S
C1417 H1441 0.949 . S
H1418 C1422 0.949 . S
C1419 C1420 1.349 . S
C1419 C1421 1.327 . S
C1419 H1442 0.950 . S
C1420 C1419 1.349 . S
C1420 C1432 1.349 . S
C1421 C1419 1.327 . S
C1421 C1437 1.429 . S
C1421 H1443 0.950 . S
C1422 H1418 0.949 . S
C1422 C1430 1.574 . S
C1422 C1438 1.368 . S
H1423 C1431 0.950 . S
H1424 C1429 0.950 . S
H1425 C1430 0.949 . S
H1426 C1432 0.950 . S
H1427 C1433 0.950 . S
H1428 C1434 0.949 . S
C1429 H1424 0.950 . S
C1429 C1431 1.327 . S
C1429 C1435 1.429 . S
C1430 C1422 1.574 . S
C1430 H1425 0.949 . S
C1430 C1436 1.368 . S
C1431 C1415 1.349 . S
C1431 H1423 0.950 . S
C1431 C1429 1.327 . S
C1432 C1420 1.349 . S
C1432 H1426 0.950 . S
C1432 C1433 1.327 . S
C1433 H1427 0.950 . S
C1433 C1432 1.327 . S
C1433 C1437 1.429 . S
C1434 C1417 1.574 . S
C1434 H1428 0.949 . S
C1434 C1438 1.368 . S
C1435 C1416 1.429 . S
C1435 C1429 1.429 . S
C1435 C1436 1.523 . S
C1436 C1417 1.368 . S
C1436 C1430 1.368 . S
C1436 C1435 1.523 . S
C1437 C1421 1.429 . S
C1437 C1433 1.429 . S
C1437 C1438 1.523 . S
C1438 C1422 1.368 . S
C1438 C1434 1.368 . S
C1438 C1437 1.523 . S
H1439 C1414 0.950 . S
H1440 C1416 0.950 . S
H1441 C1417 0.949 . S
H1442 C1419 0.950 . S
H1443 C1421 0.950 . S
C1444 C1445 1.349 . S
C1444 C1446 1.327 . S
C1444 H1469 0.950 . S
C1445 C1444 1.349 . S
C1445 C1461 1.349 . S
C1446 C1444 1.327 . S
C1446 C1465 1.429 . S
C1446 H1470 0.950 . S
C1447 C1464 1.574 . S
C1447 C1466 1.368 . S
C1447 H1471 0.949 . S
H1448 C1452 0.949 . S
C1449 C1450 1.349 . S
C1449 C1451 1.327 . S
C1449 H1472 0.950 . S
C1450 C1449 1.349 . S
C1450 C1462 1.349 . S
C1451 C1449 1.327 . S
C1451 C1467 1.429 . S
C1451 H1473 0.950 . S
C1452 H1448 0.949 . S
C1452 C1460 1.574 . S
C1452 C1468 1.368 . S
H1453 C1461 0.950 . S
H1454 C1459 0.950 . S
H1455 C1460 0.949 . S
H1456 C1462 0.950 . S
H1457 C1463 0.950 . S
H1458 C1464 0.949 . S
C1459 H1454 0.950 . S
C1459 C1461 1.327 . S
C1459 C1465 1.429 . S
C1460 C1452 1.574 . S
C1460 H1455 0.949 . S
C1460 C1466 1.368 . S
C1461 C1445 1.349 . S
C1461 H1453 0.950 . S
C1461 C1459 1.327 . S
C1462 C1450 1.349 . S
C1462 H1456 0.950 . S
C1462 C1463 1.327 . S
C1463 H1457 0.950 . S
C1463 C1462 1.327 . S
C1463 C1467 1.429 . S
C1464 C1447 1.574 . S
C1464 H1458 0.949 . S
C1464 C1468 1.368 . S
C1465 C1446 1.429 . S
C1465 C1459 1.429 . S
C1465 C1466 1.523 . S
C1466 C1447 1.368 . S
C1466 C1460 1.368 . S
C1466 C1465 1.523 . S
C1467 C1451 1.429 . S
C1467 C1463 1.429 . S
C1467 C1468 1.523 . S
C1468 C1452 1.368 . S
C1468 C1464 1.368 . S
C1468 C1467 1.523 . S
H1469 C1444 0.950 . S
H1470 C1446 0.950 . S
H1471 C1447 0.949 . S
H1472 C1449 0.950 . S
H1473 C1451 0.950 . S
C1474 C1475 1.349 . S
C1474 C1476 1.327 . S
C1474 H1499 0.950 . S
C1475 C1474 1.349 . S
C1475 C1491 1.349 . S
C1476 C1474 1.327 . S
C1476 C1495 1.429 . S
C1476 H1500 0.950 . S
C1477 C1494 1.574 . S
C1477 C1496 1.368 . S
C1477 H1501 0.949 . S
H1478 C1482 0.949 . S
C1479 C1480 1.349 . S
C1479 C1481 1.327 . S
C1479 H1502 0.950 . S
C1480 C1479 1.349 . S
C1480 C1492 1.349 . S
C1481 C1479 1.327 . S
C1481 C1497 1.429 . S
C1481 H1503 0.950 . S
C1482 H1478 0.949 . S
C1482 C1490 1.574 . S
C1482 C1498 1.368 . S
H1483 C1491 0.950 . S
H1484 C1489 0.950 . S
H1485 C1490 0.949 . S
H1486 C1492 0.950 . S
H1487 C1493 0.950 . S
H1488 C1494 0.949 . S
C1489 H1484 0.950 . S
C1489 C1491 1.327 . S
C1489 C1495 1.429 . S
C1490 C1482 1.574 . S
C1490 H1485 0.949 . S
C1490 C1496 1.368 . S
C1491 C1475 1.349 . S
C1491 H1483 0.950 . S
C1491 C1489 1.327 . S
C1492 C1480 1.349 . S
C1492 H1486 0.950 . S
C1492 C1493 1.327 . S
C1493 H1487 0.950 . S
C1493 C1492 1.327 . S
C1493 C1497 1.429 . S
C1494 C1477 1.574 . S
C1494 H1488 0.949 . S
C1494 C1498 1.368 . S
C1495 C1476 1.429 . S
C1495 C1489 1.429 . S
C1495 C1496 1.523 . S
C1496 C1477 1.368 . S
C1496 C1490 1.368 . S
C1496 C1495 1.523 . S
C1497 C1481 1.429 . S
C1497 C1493 1.429 . S
C1497 C1498 1.523 . S
C1498 C1482 1.368 . S
C1498 C1494 1.368 . S
C1498 C1497 1.523 . S
H1499 C1474 0.950 . S
H1500 C1476 0.950 . S
H1501 C1477 0.949 . S
H1502 C1479 0.950 . S
H1503 C1481 0.950 . S
C1504 C1505 1.349 . S
C1504 C1506 1.327 . S
C1504 H1529 0.950 . S
C1505 C1504 1.349 . S
C1505 C1521 1.349 . S
C1506 C1504 1.327 . S
C1506 C1525 1.429 . S
C1506 H1530 0.950 . S
C1507 C1524 1.574 . S
C1507 C1526 1.368 . S
C1507 H1531 0.949 . S
H1508 C1512 0.949 . S
C1509 C1510 1.349 . S
C1509 C1511 1.327 . S
C1509 H1532 0.950 . S
C1510 C1509 1.349 . S
C1510 C1522 1.349 . S
C1511 C1509 1.327 . S
C1511 C1527 1.429 . S
C1511 H1533 0.950 . S
C1512 H1508 0.949 . S
C1512 C1520 1.574 . S
C1512 C1528 1.368 . S
H1513 C1521 0.950 . S
H1514 C1519 0.950 . S
H1515 C1520 0.949 . S
H1516 C1522 0.950 . S
H1517 C1523 0.950 . S
H1518 C1524 0.949 . S
C1519 H1514 0.950 . S
C1519 C1521 1.327 . S
C1519 C1525 1.429 . S
C1520 C1512 1.574 . S
C1520 H1515 0.949 . S
C1520 C1526 1.368 . S
C1521 C1505 1.349 . S
C1521 H1513 0.950 . S
C1521 C1519 1.327 . S
C1522 C1510 1.349 . S
C1522 H1516 0.950 . S
C1522 C1523 1.327 . S
C1523 H1517 0.950 . S
C1523 C1522 1.327 . S
C1523 C1527 1.429 . S
C1524 C1507 1.574 . S
C1524 H1518 0.949 . S
C1524 C1528 1.368 . S
C1525 C1506 1.429 . S
C1525 C1519 1.429 . S
C1525 C1526 1.523 . S
C1526 C1507 1.368 . S
C1526 C1520 1.368 . S
C1526 C1525 1.523 . S
C1527 C1511 1.429 . S
C1527 C1523 1.429 . S
C1527 C1528 1.523 . S
C1528 C1512 1.368 . S
C1528 C1524 1.368 . S
C1528 C1527 1.523 . S
H1529 C1504 0.950 . S
H1530 C1506 0.950 . S
H1531 C1507 0.949 . S
H1532 C1509 0.950 . S
H1533 C1511 0.950 . S
C1534 C1535 1.349 . S
C1534 C1536 1.327 . S
C1534 H1559 0.950 . S
C1535 C1534 1.349 . S
C1535 C1551 1.349 . S
C1536 C1534 1.327 . S
C1536 C1555 1.429 . S
C1536 H1560 0.950 . S
C1537 C1554 1.574 . S
C1537 C1556 1.368 . S
C1537 H1561 0.949 . S
H1538 C1542 0.949 . S
C1539 C1540 1.349 . S
C1539 C1541 1.327 . S
C1539 H1562 0.950 . S
C1540 C1539 1.349 . S
C1540 C1552 1.349 . S
C1541 C1539 1.327 . S
C1541 C1557 1.429 . S
C1541 H1563 0.950 . S
C1542 H1538 0.949 . S
C1542 C1550 1.574 . S
C1542 C1558 1.368 . S
H1543 C1551 0.950 . S
H1544 C1549 0.950 . S
H1545 C1550 0.949 . S
H1546 C1552 0.950 . S
H1547 C1553 0.950 . S
H1548 C1554 0.949 . S
C1549 H1544 0.950 . S
C1549 C1551 1.327 . S
C1549 C1555 1.429 . S
C1550 C1542 1.574 . S
C1550 H1545 0.949 . S
C1550 C1556 1.368 . S
C1551 C1535 1.349 . S
C1551 H1543 0.950 . S
C1551 C1549 1.327 . S
C1552 C1540 1.349 . S
C1552 H1546 0.950 . S
C1552 C1553 1.327 . S
C1553 H1547 0.950 . S
C1553 C1552 1.327 . S
C1553 C1557 1.429 . S
C1554 C1537 1.574 . S
C1554 H1548 0.949 . S
C1554 C1558 1.368 . S
C1555 C1536 1.429 . S
C1555 C1549 1.429 . S
C1555 C1556 1.523 . S
C1556 C1537 1.368 . S
C1556 C1550 1.368 . S
C1556 C1555 1.523 . S
C1557 C1541 1.429 . S
C1557 C1553 1.429 . S
C1557 C1558 1.523 . S
C1558 C1542 1.368 . S
C1558 C1554 1.368 . S
C1558 C1557 1.523 . S
H1559 C1534 0.950 . S
H1560 C1536 0.950 . S
H1561 C1537 0.949 . S
H1562 C1539 0.950 . S
H1563 C1541 0.950 . S
C1564 C1565 1.349 . S
C1564 C1566 1.327 . S
C1564 H1589 0.950 . S
C1565 C1564 1.349 . S
C1565 C1581 1.349 . S
C1566 C1564 1.327 . S
C1566 C1585 1.429 . S
C1566 H1590 0.950 . S
C1567 C1584 1.574 . S
C1567 C1586 1.368 . S
C1567 H1591 0.949 . S
H1568 C1572 0.949 . S
C1569 C1570 1.349 . S
C1569 C1571 1.327 . S
C1569 H1592 0.950 . S
C1570 C1569 1.349 . S
C1570 C1582 1.349 . S
C1571 C1569 1.327 . S
C1571 C1587 1.429 . S
C1571 H1593 0.950 . S
C1572 H1568 0.949 . S
C1572 C1580 1.574 . S
C1572 C1588 1.368 . S
H1573 C1581 0.950 . S
H1574 C1579 0.950 . S
H1575 C1580 0.949 . S
H1576 C1582 0.950 . S
H1577 C1583 0.950 . S
H1578 C1584 0.949 . S
C1579 H1574 0.950 . S
C1579 C1581 1.327 . S
C1579 C1585 1.429 . S
C1580 C1572 1.574 . S
C1580 H1575 0.949 . S
C1580 C1586 1.368 . S
C1581 C1565 1.349 . S
C1581 H1573 0.950 . S
C1581 C1579 1.327 . S
C1582 C1570 1.349 . S
C1582 H1576 0.950 . S
C1582 C1583 1.327 . S
C1583 H1577 0.950 . S
C1583 C1582 1.327 . S
C1583 C1587 1.429 . S
C1584 C1567 1.574 . S
C1584 H1578 0.949 . S
C1584 C1588 1.368 . S
C1585 C1566 1.429 . S
C1585 C1579 1.429 . S
C1585 C1586 1.523 . S
C1586 C1567 1.368 . S
C1586 C1580 1.368 . S
C1586 C1585 1.523 . S
C1587 C1571 1.429 . S
C1587 C1583 1.429 . S
C1587 C1588 1.523 . S
C1588 C1572 1.368 . S
C1588 C1584 1.368 . S
C1588 C1587 1.523 . S
H1589 C1564 0.950 . S
H1590 C1566 0.950 . S
H1591 C1567 0.949 . S
H1592 C1569 0.950 . S
H1593 C1571 0.950 . S
C1594 C1595 1.349 . S
C1594 C1596 1.327 . S
C1594 H1619 0.950 . S
C1595 C1594 1.349 . S
C1595 C1611 1.349 . S
C1596 C1594 1.327 . S
C1596 C1615 1.429 . S
C1596 H1620 0.950 . S
C1597 C1614 1.574 . S
C1597 C1616 1.368 . S
C1597 H1621 0.949 . S
H1598 C1602 0.949 . S
C1599 C1600 1.349 . S
C1599 C1601 1.327 . S
C1599 H1622 0.950 . S
C1600 C1599 1.349 . S
C1600 C1612 1.349 . S
C1601 C1599 1.327 . S
C1601 C1617 1.429 . S
C1601 H1623 0.950 . S
C1602 H1598 0.949 . S
C1602 C1610 1.574 . S
C1602 C1618 1.368 . S
H1603 C1611 0.950 . S
H1604 C1609 0.950 . S
H1605 C1610 0.949 . S
H1606 C1612 0.950 . S
H1607 C1613 0.950 . S
H1608 C1614 0.949 . S
C1609 H1604 0.950 . S
C1609 C1611 1.327 . S
C1609 C1615 1.429 . S
C1610 C1602 1.574 . S
C1610 H1605 0.949 . S
C1610 C1616 1.368 . S
C1611 C1595 1.349 . S
C1611 H1603 0.950 . S
C1611 C1609 1.327 . S
C1612 C1600 1.349 . S
C1612 H1606 0.950 . S
C1612 C1613 1.327 . S
C1613 H1607 0.950 . S
C1613 C1612 1.327 . S
C1613 C1617 1.429 . S
C1614 C1597 1.574 . S
C1614 H1608 0.949 . S
C1614 C1618 1.368 . S
C1615 C1596 1.429 . S
C1615 C1609 1.429 . S
C1615 C1616 1.523 . S
C1616 C1597 1.368 . S
C1616 C1610 1.368 . S
C1616 C1615 1.523 . S
C1617 C1601 1.429 . S
C1617 C1613 1.429 . S
C1617 C1618 1.523 . S
C1618 C1602 1.368 . S
C1618 C1614 1.368 . S
C1618 C1617 1.523 . S
H1619 C1594 0.950 . S
H1620 C1596 0.950 . S
H1621 C1597 0.949 . S
H1622 C1599 0.950 . S
H1623 C1601 0.950 . S
C1624 C1625 1.349 . S
C1624 C1626 1.327 . S
C1624 H1649 0.950 . S
C1625 C1624 1.349 . S
C1625 C1641 1.349 . S
C1626 C1624 1.327 . S
C1626 C1645 1.429 . S
C1626 H1650 0.950 . S
C1627 C1644 1.574 . S
C1627 C1646 1.368 . S
C1627 H1651 0.949 . S
H1628 C1632 0.949 . S
C1629 C1630 1.349 . S
C1629 C1631 1.327 . S
C1629 H1652 0.950 . S
C1630 C1629 1.349 . S
C1630 C1642 1.349 . S
C1631 C1629 1.327 . S
C1631 C1647 1.429 . S
C1631 H1653 0.950 . S
C1632 H1628 0.949 . S
C1632 C1640 1.574 . S
C1632 C1648 1.368 . S
H1633 C1641 0.950 . S
H1634 C1639 0.950 . S
H1635 C1640 0.949 . S
H1636 C1642 0.950 . S
H1637 C1643 0.950 . S
H1638 C1644 0.949 . S
C1639 H1634 0.950 . S
C1639 C1641 1.327 . S
C1639 C1645 1.429 . S
C1640 C1632 1.574 . S
C1640 H1635 0.949 . S
C1640 C1646 1.368 . S
C1641 C1625 1.349 . S
C1641 H1633 0.950 . S
C1641 C1639 1.327 . S
C1642 C1630 1.349 . S
C1642 H1636 0.950 . S
C1642 C1643 1.327 . S
C1643 H1637 0.950 . S
C1643 C1642 1.327 . S
C1643 C1647 1.429 . S
C1644 C1627 1.574 . S
C1644 H1638 0.949 . S
C1644 C1648 1.368 . S
C1645 C1626 1.429 . S
C1645 C1639 1.429 . S
C1645 C1646 1.523 . S
C1646 C1627 1.368 . S
C1646 C1640 1.368 . S
C1646 C1645 1.523 . S
C1647 C1631 1.429 . S
C1647 C1643 1.429 . S
C1647 C1648 1.523 . S
C1648 C1632 1.368 . S
C1648 C1644 1.368 . S
C1648 C1647 1.523 . S
H1649 C1624 0.950 . S
H1650 C1626 0.950 . S
H1651 C1627 0.949 . S
H1652 C1629 0.950 . S
H1653 C1631 0.950 . S
C1654 C1655 1.349 . S
C1654 C1656 1.327 . S
C1654 H1679 0.950 . S
C1655 C1654 1.349 . S
C1655 C1671 1.349 . S
C1656 C1654 1.327 . S
C1656 C1675 1.429 . S
C1656 H1680 0.950 . S
C1657 C1674 1.574 . S
C1657 C1676 1.368 . S
C1657 H1681 0.949 . S
H1658 C1662 0.949 . S
C1659 C1660 1.349 . S
C1659 C1661 1.327 . S
C1659 H1682 0.950 . S
C1660 C1659 1.349 . S
C1660 C1672 1.349 . S
C1661 C1659 1.327 . S
C1661 C1677 1.429 . S
C1661 H1683 0.950 . S
C1662 H1658 0.949 . S
C1662 C1670 1.574 . S
C1662 C1678 1.368 . S
H1663 C1671 0.950 . S
H1664 C1669 0.950 . S
H1665 C1670 0.949 . S
H1666 C1672 0.950 . S
H1667 C1673 0.950 . S
H1668 C1674 0.949 . S
C1669 H1664 0.950 . S
C1669 C1671 1.327 . S
C1669 C1675 1.429 . S
C1670 C1662 1.574 . S
C1670 H1665 0.949 . S
C1670 C1676 1.368 . S
C1671 C1655 1.349 . S
C1671 H1663 0.950 . S
C1671 C1669 1.327 . S
C1672 C1660 1.349 . S
C1672 H1666 0.950 . S
C1672 C1673 1.327 . S
C1673 H1667 0.950 . S
C1673 C1672 1.327 . S
C1673 C1677 1.429 . S
C1674 C1657 1.574 . S
C1674 H1668 0.949 . S
C1674 C1678 1.368 . S
C1675 C1656 1.429 . S
C1675 C1669 1.429 . S
C1675 C1676 1.523 . S
C1676 C1657 1.368 . S
C1676 C1670 1.368 . S
C1676 C1675 1.523 . S
C1677 C1661 1.429 . S
C1677 C1673 1.429 . S
C1677 C1678 1.523 . S
C1678 C1662 1.368 . S
C1678 C1674 1.368 . S
C1678 C1677 1.523 . S
H1679 C1654 0.950 . S
H1680 C1656 0.950 . S
H1681 C1657 0.949 . S
H1682 C1659 0.950 . S
H1683 C1661 0.950 . S
C1684 C1685 1.349 . S
C1684 C1686 1.327 . S
C1684 H1709 0.950 . S
C1685 C1684 1.349 . S
C1685 C1701 1.349 . S
C1686 C1684 1.327 . S
C1686 C1705 1.429 . S
C1686 H1710 0.950 . S
C1687 C1704 1.574 . S
C1687 C1706 1.368 . S
C1687 H1711 0.949 . S
H1688 C1692 0.949 . S
C1689 C1690 1.349 . S
C1689 C1691 1.327 . S
C1689 H1712 0.950 . S
C1690 C1689 1.349 . S
C1690 C1702 1.349 . S
C1691 C1689 1.327 . S
C1691 C1707 1.429 . S
C1691 H1713 0.950 . S
C1692 H1688 0.949 . S
C1692 C1700 1.574 . S
C1692 C1708 1.368 . S
H1693 C1701 0.950 . S
H1694 C1699 0.950 . S
H1695 C1700 0.949 . S
H1696 C1702 0.950 . S
H1697 C1703 0.950 . S
H1698 C1704 0.949 . S
C1699 H1694 0.950 . S
C1699 C1701 1.327 . S
C1699 C1705 1.429 . S
C1700 C1692 1.574 . S
C1700 H1695 0.949 . S
C1700 C1706 1.368 . S
C1701 C1685 1.349 . S
C1701 H1693 0.950 . S
C1701 C1699 1.327 . S
C1702 C1690 1.349 . S
C1702 H1696 0.950 . S
C1702 C1703 1.327 . S
C1703 H1697 0.950 . S
C1703 C1702 1.327 . S
C1703 C1707 1.429 . S
C1704 C1687 1.574 . S
C1704 H1698 0.949 . S
C1704 C1708 1.368 . S
C1705 C1686 1.429 . S
C1705 C1699 1.429 . S
C1705 C1706 1.523 . S
C1706 C1687 1.368 . S
C1706 C1700 1.368 . S
C1706 C1705 1.523 . S
C1707 C1691 1.429 . S
C1707 C1703 1.429 . S
C1707 C1708 1.523 . S
C1708 C1692 1.368 . S
C1708 C1704 1.368 . S
C1708 C1707 1.523 . S
H1709 C1684 0.950 . S
H1710 C1686 0.950 . S
H1711 C1687 0.949 . S
H1712 C1689 0.950 . S
H1713 C1691 0.950 . S
C1714 C1715 1.349 . S
C1714 C1716 1.327 . S
C1714 H1739 0.950 . S
C1715 C1714 1.349 . S
C1715 C1731 1.349 . S
C1716 C1714 1.327 . S
C1716 C1735 1.429 . S
C1716 H1740 0.950 . S
C1717 C1734 1.574 . S
C1717 C1736 1.368 . S
C1717 H1741 0.949 . S
H1718 C1722 0.949 . S
C1719 C1720 1.349 . S
C1719 C1721 1.327 . S
C1719 H1742 0.950 . S
C1720 C1719 1.349 . S
C1720 C1732 1.349 . S
C1721 C1719 1.327 . S
C1721 C1737 1.429 . S
C1721 H1743 0.950 . S
C1722 H1718 0.949 . S
C1722 C1730 1.574 . S
C1722 C1738 1.368 . S
H1723 C1731 0.950 . S
H1724 C1729 0.950 . S
H1725 C1730 0.949 . S
H1726 C1732 0.950 . S
H1727 C1733 0.950 . S
H1728 C1734 0.949 . S
C1729 H1724 0.950 . S
C1729 C1731 1.327 . S
C1729 C1735 1.429 . S
C1730 C1722 1.574 . S
C1730 H1725 0.949 . S
C1730 C1736 1.368 . S
C1731 C1715 1.349 . S
C1731 H1723 0.950 . S
C1731 C1729 1.327 . S
C1732 C1720 1.349 . S
C1732 H1726 0.950 . S
C1732 C1733 1.327 . S
C1733 H1727 0.950 . S
C1733 C1732 1.327 . S
C1733 C1737 1.429 . S
C1734 C1717 1.574 . S
C1734 H1728 0.949 . S
C1734 C1738 1.368 . S
C1735 C1716 1.429 . S
C1735 C1729 1.429 . S
C1735 C1736 1.523 . S
C1736 C1717 1.368 . S
C1736 C1730 1.368 . S
C1736 C1735 1.523 . S
C1737 C1721 1.429 . S
C1737 C1733 1.429 . S
C1737 C1738 1.523 . S
C1738 C1722 1.368 . S
C1738 C1734 1.368 . S
C1738 C1737 1.523 . S
H1739 C1714 0.950 . S
H1740 C1716 0.950 . S
H1741 C1717 0.949 . S
H1742 C1719 0.950 . S
H1743 C1721 0.950 . S
C545 C2 1.471 . S
C550 C138 1.471 . S
C575 C172 1.471 . S
C580 C36 1.471 . S
C605 C206 1.471 . S
C610 C70 1.471 . S
C635 C240 1.471 . S
C640 C104 1.471 . S
C665 C274 1.471 . S
C670 C410 1.471 . S
C695 C308 1.471 . S
C700 C444 1.471 . S
C725 C478 1.471 . S
C730 C342 1.471 . S
C755 C376 1.471 . S
C760 C512 1.471 . S
C785 C413 0.621 . S
C790 C9 0.663 . S
C815 C447 0.621 . S
C820 C43 0.663 . S
C845 C77 0.663 . S
C850 C481 0.621 . S
C875 C515 0.621 . S
C880 C111 0.663 . S
C905 C277 0.621 . S
C910 C145 0.663 . S
C935 C311 0.621 . S
C940 C179 0.663 . S
C965 C213 0.663 . S
C970 C345 0.621 . S
C995 C247 0.663 . S
C1000 C379 0.621 . S
C1025 C141 0.621 . S
C1030 C281 0.663 . S
C1055 C175 0.621 . S
C1060 C315 0.663 . S
C1085 C209 0.621 . S
C1090 C349 0.663 . S
C1115 C383 0.663 . S
C1120 C243 0.621 . S
C1145 C5 0.621 . S
C1150 C417 0.663 . S
C1175 C39 0.621 . S
C1180 C451 0.663 . S
C1205 C485 0.663 . S
C1210 C73 0.621 . S
C1235 C107 0.621 . S
C1240 C519 0.663 . S
C1265 C101 2.201 . S
C1270 C33 2.201 . S
C1295 C67 2.201 . S
C1300 C135 2.201 . S
C1325 C237 2.201 . S
C1330 C169 2.201 . S
C1355 C271 2.201 . S
C1360 C203 2.201 . S
C1385 C373 2.201 . S
C1390 C305 2.201 . S
C1415 C407 2.201 . S
C1420 C339 2.201 . S
C1445 C441 2.201 . S
C1450 C509 2.201 . S
C1475 C543 2.201 . S
C1480 C475 2.201 . S
C1505 C258 1.684 . S
C1510 C20 1.684 . S
C1535 C156 1.684 . S
C1540 C54 1.684 . S
C1565 C190 1.684 . S
C1570 C88 1.684 . S
C1595 C224 1.684 . S
C1600 C122 1.684 . S
C1625 C530 1.684 . S
C1630 C292 1.684 . S
C1655 C428 1.684 . S
C1660 C326 1.684 . S
C1685 C462 1.684 . S
C1690 C360 1.684 . S
C1715 C496 1.684 . S
C1720 C394 1.684 . S
