# Generated by pormake.
# Topology msp, (4)-cn, num edge types: 1
# Building blocks:
#     Node 0, Type 0, BuildingBlock: GALJAG_clean_sbu_0, # of connection points: 4
#     Node 1, Type 0, BuildingBlock: GALJAG_clean_sbu_0, # of connection points: 4
#     Node 2, Type 0, BuildingBlock: GALJAG_clean_sbu_0, # of connection points: 4
#     Node 3, Type 0, BuildingBlock: GALJAG_clean_sbu_0, # of connection points: 4
#     Node 4, Type 0, BuildingBlock: GALJAG_clean_sbu_0, # of connection points: 4
#     Node 5, Type 0, BuildingBlock: GALJAG_clean_sbu_0, # of connection points: 4
#     Node 6, Type 0, BuildingBlock: GALJAG_clean_sbu_0, # of connection points: 4
#     Node 7, Type 0, BuildingBlock: GALJAG_clean_sbu_0, # of connection points: 4
#     Edge 8, Type (0, 0), BuildingBlock: AJUNOK_clean_linker_0, # of connection points: 2
#     Edge 9, Type (0, 0), BuildingBlock: AJUNOK_clean_linker_0, # of connection points: 2
#     Edge 10, Type (0, 0), BuildingBlock: AJUNOK_clean_linker_0, # of connection points: 2
#     Edge 11, Type (0, 0), BuildingBlock: AJUNOK_clean_linker_0, # of connection points: 2
#     Edge 12, Type (0, 0), BuildingBlock: AJUNOK_clean_linker_0, # of connection points: 2
#     Edge 13, Type (0, 0), BuildingBlock: AJUNOK_clean_linker_0, # of connection points: 2
#     Edge 14, Type (0, 0), BuildingBlock: AJUNOK_clean_linker_0, # of connection points: 2
#     Edge 15, Type (0, 0), BuildingBlock: AJUNOK_clean_linker_0, # of connection points: 2
#     Edge 16, Type (0, 0), BuildingBlock: AJUNOK_clean_linker_0, # of connection points: 2
#     Edge 17, Type (0, 0), BuildingBlock: AJUNOK_clean_linker_0, # of connection points: 2
#     Edge 18, Type (0, 0), BuildingBlock: AJUNOK_clean_linker_0, # of connection points: 2
#     Edge 19, Type (0, 0), BuildingBlock: AJUNOK_clean_linker_0, # of connection points: 2
#     Edge 20, Type (0, 0), BuildingBlock: AJUNOK_clean_linker_0, # of connection points: 2
#     Edge 21, Type (0, 0), BuildingBlock: AJUNOK_clean_linker_0, # of connection points: 2
#     Edge 22, Type (0, 0), BuildingBlock: AJUNOK_clean_linker_0, # of connection points: 2
#     Edge 23, Type (0, 0), BuildingBlock: AJUNOK_clean_linker_0, # of connection points: 2
# Relax obj value: 0.107
# Max RMSD: 0.183
# Mean RMSD: 0.183
data_MOF--net-msp--node1-GALJAG_clean_sbu_0--edge1-AJUNOK_clean_linker_0
_symmetry_space_group_name_H-M    P1
_symmetry_Int_Tables_number       1
_symmetry_cell_setting            triclinic
loop_
_symmetry_equiv_pos_as_xyz
'x, y, z'
_cell_length_a     15.995035
_cell_length_b     15.7059
_cell_length_c     32.013359
_cell_angle_alpha  89.889499
_cell_angle_beta   99.852299
_cell_angle_gamma 90.03101
loop_
_atom_site_label
_atom_site_type_symbol
_atom_site_fract_x
_atom_site_fract_y
_atom_site_fract_z
_atom_type_partial_charge
In0 In 0.07607 0.26863 0.37619 0.0
O1 O 0.96333 0.19534 0.34001 0.0
O2 O 0.9717 0.32856 0.32847 0.0
C3 C 0.17306 0.16093 0.42902 0.0
C4 C 0.1768 0.27504 0.31765 0.0
C5 C 0.03831 0.37474 0.4367 0.0
O6 O 0.0941 0.1482 0.41795 0.0
O7 O 0.20125 0.22571 0.41276 0.0
O8 O 0.08768 0.39648 0.41151 0.0
O9 O 0.00714 0.30114 0.43032 0.0
C10 C 0.93216 0.25974 0.31899 0.0
O11 O 0.16933 0.33817 0.34146 0.0
O12 O 0.13301 0.21051 0.32353 0.0
In13 In 0.47212 0.27131 0.63435 0.0
O14 O 0.58663 0.20192 0.67185 0.0
O15 O 0.57851 0.33598 0.67943 0.0
C16 C 0.38861 0.15443 0.58124 0.0
C17 C 0.36973 0.27505 0.69236 0.0
C18 C 0.48682 0.38842 0.5738 0.0
O19 O 0.46888 0.15843 0.58808 0.0
O20 O 0.35289 0.20649 0.60226 0.0
O21 O 0.4391 0.39914 0.60106 0.0
O22 O 0.52926 0.32028 0.57827 0.0
C23 C 0.61802 0.2681 0.6909 0.0
O24 O 0.37645 0.33786 0.66821 0.0
O25 O 0.41531 0.21155 0.6872 0.0
In26 In 0.93498 0.7107 0.63099 0.0
O27 O 0.84484 0.64445 0.66889 0.0
O28 O 0.85825 0.7801 0.67252 0.0
C29 C 0.97312 0.59509 0.57442 0.0
C30 C 0.07201 0.72653 0.69215 0.0
C31 C 0.8458 0.818 0.57526 0.0
O32 O 0.91886 0.58057 0.59806 0.0
O33 O 0.0095 0.66635 0.5805 0.0
O34 O 0.92442 0.82964 0.58814 0.0
O35 O 0.81474 0.75297 0.58993 0.0
C36 C 0.82264 0.71414 0.68374 0.0
O37 O 0.04977 0.78466 0.66505 0.0
O38 O 0.02725 0.66006 0.68705 0.0
In39 In 0.52755 0.73377 0.37201 0.0
O40 O 0.40963 0.8077 0.34281 0.0
O41 O 0.41936 0.67752 0.32545 0.0
C42 C 0.62579 0.83881 0.42548 0.0
C43 C 0.61761 0.73988 0.30897 0.0
C44 C 0.50399 0.61755 0.43143 0.0
O45 O 0.54599 0.8482 0.41728 0.0
O46 O 0.65424 0.77925 0.40565 0.0
O47 O 0.54974 0.60208 0.40368 0.0
O48 O 0.46862 0.68957 0.42782 0.0
C49 C 0.37745 0.746 0.32014 0.0
O50 O 0.61673 0.67389 0.33187 0.0
O51 O 0.57325 0.80135 0.31816 0.0
In52 In 0.52082 0.76802 0.87362 0.0
O53 O 0.59352 0.82331 0.8247 0.0
O54 O 0.57349 0.68849 0.82553 0.0
C55 C 0.51169 0.8925 0.93116 0.0
C56 C 0.36691 0.75891 0.82489 0.0
C57 C 0.62109 0.66376 0.92644 0.0
O58 O 0.55647 0.89978 0.90234 0.0
O59 O 0.47008 0.824 0.92984 0.0
O60 O 0.54103 0.65521 0.92009 0.0
O61 O 0.64836 0.72348 0.90607 0.0
C62 C 0.60446 0.7512 0.80867 0.0
O63 O 0.39529 0.69939 0.85016 0.0
O64 O 0.41472 0.823 0.82589 0.0
In65 In 0.94286 0.78144 0.12687 0.0
O66 O 0.06023 0.71108 0.16069 0.0
O67 O 0.04255 0.84069 0.17676 0.0
C68 C 0.85072 0.67253 0.07319 0.0
C69 C 0.84007 0.77554 0.18456 0.0
C70 C 0.97617 0.89809 0.06943 0.0
O71 O 0.93037 0.66372 0.08341 0.0
O72 O 0.81986 0.7347 0.09012 0.0
O73 O 0.92807 0.91425 0.09601 0.0
O74 O 0.00776 0.8243 0.07262 0.0
C75 C 0.08694 0.77413 0.18385 0.0
O76 O 0.84301 0.84026 0.16103 0.0
O77 O 0.89002 0.71577 0.17924 0.0
In78 In 0.4906 0.25095 0.12963 0.0
O79 O 0.39995 0.19115 0.16884 0.0
O80 O 0.44588 0.31697 0.18434 0.0
C81 C 0.50496 0.13461 0.06901 0.0
C82 C 0.64222 0.25045 0.18139 0.0
C83 C 0.39449 0.36192 0.07819 0.0
O84 O 0.46136 0.12096 0.09787 0.0
O85 O 0.54266 0.20553 0.07173 0.0
O86 O 0.47481 0.36734 0.08483 0.0
O87 O 0.36506 0.3031 0.09819 0.0
C88 C 0.39961 0.25597 0.19243 0.0
O89 O 0.61273 0.31688 0.16158 0.0
O90 O 0.59682 0.18483 0.17338 0.0
In91 In 0.05692 0.26211 0.88115 0.0
O92 O 0.14582 0.19859 0.84218 0.0
O93 O 0.10275 0.32504 0.82586 0.0
C94 C 0.03352 0.14323 0.93946 0.0
C95 C 0.90593 0.26693 0.82929 0.0
C96 C 0.15707 0.36893 0.93303 0.0
O97 O 0.0788 0.12973 0.91133 0.0
O98 O -5e-05 0.21622 0.93775 0.0
O99 O 0.07695 0.37653 0.92692 0.0
O100 O 0.18433 0.30937 0.91279 0.0
C101 C 0.14732 0.26256 0.81804 0.0
O102 O 0.93829 0.33333 0.84797 0.0
O103 O 0.94843 0.19977 0.83823 0.0
C104 C 0.0631 0.50759 0.48053 0.0
C105 C 0.02036 0.42962 0.47196 0.0
C106 C 0.04833 0.55971 0.5141 0.0
C107 C 0.99006 0.5362 0.5405 0.0
H108 H 0.1086 0.52864 0.46123 0.0
H109 H 0.08262 0.61933 0.51914 0.0
S110 S 0.86188 0.33796 0.53186 0.0
N111 N 0.91749 0.33106 0.49306 0.0
N112 N 0.88974 0.4291 0.55586 0.0
C113 C 0.94718 0.45819 0.53247 0.0
C114 C 0.9623 0.40497 0.49831 0.0
C115 C 0.54614 0.48453 0.47346 0.0
C116 C 0.49636 0.55876 0.46711 0.0
C117 C 0.54317 0.4305 0.50821 0.0
C118 C 0.49022 0.44836 0.53806 0.0
H119 H 0.58849 0.46829 0.45166 0.0
H120 H 0.58282 0.37417 0.51162 0.0
S121 S 0.34551 0.63375 0.5355 0.0
N122 N 0.39132 0.64662 0.49347 0.0
N123 N 0.38573 0.54519 0.55846 0.0
C124 C 0.43963 0.52207 0.53194 0.0
C125 C 0.44268 0.57713 0.49659 0.0
C126 C 0.46055 0.99857 0.0306 0.0
C127 C 0.50884 0.07388 0.03374 0.0
C128 C 0.46126 0.94121 0.99709 0.0
C129 C 0.51039 0.95654 0.96526 0.0
H130 H 0.42148 0.98372 0.05414 0.0
H131 H 0.42307 0.88407 0.99632 0.0
S132 S 0.64848 0.14443 0.95865 0.0
N133 N 0.60735 0.16081 1.00187 0.0
N134 N 0.60879 0.05294 0.93913 0.0
C135 C 0.55899 0.03165 0.96794 0.0
C136 C 0.55822 0.09022 1.00208 0.0
C137 C 0.95373 0.04022 0.03312 0.0
C138 C 0.99286 0.95971 0.03639 0.0
C139 C 0.96729 0.09879 1.00173 0.0
C140 C 0.02052 0.07939 0.97221 0.0
H141 H 0.91192 0.05825 0.05489 0.0
H142 H 0.93548 0.15983 1.00061 0.0
S143 S 0.13869 0.87735 0.96707 0.0
N144 N 0.08766 0.86377 0.00725 0.0
N145 N 0.11297 0.97366 0.9485 0.0
C146 C 0.06022 0.99917 0.97514 0.0
C147 C 0.04646 0.93948 0.00712 0.0
C148 C 0.75523 0.32843 0.23048 0.0
C149 C 0.7192 0.25078 0.21467 0.0
C150 C 0.82342 0.33056 0.26445 0.0
C151 C 0.85831 0.25514 0.28403 0.0
H152 H 0.72963 0.38825 0.21706 0.0
H153 H 0.84863 0.39204 0.27558 0.0
S154 S 0.79077 0.03493 0.25294 0.0
N155 N 0.72617 0.09619 0.22007 0.0
N156 N 0.854 0.10045 0.28386 0.0
C157 C 0.82389 0.177 0.26809 0.0
C158 C 0.75454 0.17477 0.23343 0.0
C159 C 0.73294 0.34263 0.74057 0.0
C160 C 0.69117 0.26635 0.72628 0.0
C161 C 0.80061 0.34318 0.77492 0.0
C162 C 0.82874 0.26748 0.7963 0.0
H163 H 0.7138 0.4024 0.72486 0.0
H164 H 0.83228 0.40296 0.78409 0.0
S165 S 0.73494 0.05261 0.77469 0.0
N166 N 0.6791 0.11429 0.73842 0.0
N167 N 0.80572 0.11539 0.80283 0.0
C168 C 0.78587 0.19132 0.78318 0.0
C169 C 0.71734 0.19069 0.74819 0.0
C170 C 0.20577 0.79868 0.72554 0.0
C171 C 0.14435 0.73555 0.72743 0.0
C172 C 0.27629 0.80682 0.75785 0.0
C173 C 0.2882 0.75204 0.79327 0.0
H174 H 0.20025 0.84123 0.69853 0.0
H175 H 0.32289 0.85529 0.75444 0.0
S176 S 0.14029 0.58314 0.81601 0.0
N177 N 0.09576 0.62234 0.7696 0.0
N178 N 0.2295 0.63679 0.82991 0.0
C179 C 0.22598 0.69034 0.79626 0.0
C180 C 0.15373 0.68234 0.76345 0.0
C181 C 0.27292 0.68436 0.26094 0.0
C182 C 0.301 0.75446 0.28698 0.0
C183 C 0.20441 0.69154 0.2274 0.0
C184 C 0.16118 0.76913 0.21853 0.0
H185 H 0.30459 0.62341 0.26614 0.0
H186 H 0.18519 0.63566 0.20837 0.0
S187 S 0.20876 0.97176 0.27761 0.0
N188 N 0.27962 0.90385 0.30187 0.0
N189 N 0.15092 0.91762 0.23893 0.0
C190 C 0.18823 0.83972 0.24449 0.0
C191 C 0.258 0.83231 0.2787 0.0
C192 C 0.28183 0.20092 0.2268 0.0
C193 C 0.34519 0.26222 0.22529 0.0
C194 C 0.2271 0.20688 0.25638 0.0
C195 C 0.23389 0.2739 0.28589 0.0
H196 H 0.27358 0.1483 0.20464 0.0
H197 H 0.17865 0.15857 0.2559 0.0
S198 S 0.39091 0.44976 0.29616 0.0
N199 N 0.41258 0.39191 0.25633 0.0
N200 N 0.30986 0.40235 0.31225 0.0
C201 C 0.29706 0.33568 0.28489 0.0
C202 C 0.35279 0.32988 0.25458 0.0
C203 C 0.31423 0.20484 0.75201 0.0
C204 C 0.31165 0.27382 0.72367 0.0
C205 C 0.25993 0.2011 0.78194 0.0
C206 C 0.20085 0.26615 0.78467 0.0
H207 H 0.35896 0.1533 0.75134 0.0
H208 H 0.26512 0.14719 0.80339 0.0
S209 S 0.16489 0.45811 0.71588 0.0
N210 N 0.24294 0.40709 0.69909 0.0
N211 N 0.14034 0.40005 0.7551 0.0
C212 C 0.19652 0.33489 0.75601 0.0
C213 C 0.25209 0.33876 0.7256 0.0
C214 C 0.70417 0.66623 0.77363 0.0
C215 C 0.65411 0.73975 0.77442 0.0
C216 C 0.75662 0.65635 0.74307 0.0
C217 C 0.76036 0.71976 0.71249 0.0
H218 H 0.70492 0.61731 0.7976 0.0
H219 H 0.79665 0.60044 0.74438 0.0
S220 S 0.62778 0.9144 0.69536 0.0
N221 N 0.6023 0.8705 0.73842 0.0
N222 N 0.7009 0.85208 0.68095 0.0
C223 C 0.70686 0.79096 0.71144 0.0
C224 C 0.65368 0.80102 0.74249 0.0
C225 C 0.79564 0.70412 0.24682 0.0
C226 C 0.78143 0.76778 0.21537 0.0
C227 C 0.74114 0.69406 0.27636 0.0
C228 C 0.67055 0.74748 0.27561 0.0
H229 H 0.8499 0.66207 0.24898 0.0
H230 H 0.75551 0.64524 0.30048 0.0
S231 S 0.59941 0.91739 0.19669 0.0
N232 N 0.68762 0.88042 0.18312 0.0
N233 N 0.58554 0.86228 0.23895 0.0
C234 C 0.65423 0.80999 0.24366 0.0
C235 C 0.70961 0.82001 0.21346 0.0
C236 C 0.37064 0.11478 0.50547 0.0
C237 C 0.33878 0.11306 0.5437 0.0
C238 C 0.31511 0.11785 0.46655 0.0
C239 C 0.22654 0.11758 0.46486 0.0
H240 H 0.43763 0.12546 0.50562 0.0
H241 H 0.34142 0.13014 0.4381 0.0
S242 S 0.11366 0.08697 0.55554 0.0
N243 N 0.21503 0.09141 0.57718 0.0
N244 N 0.11075 0.09559 0.50387 0.0
C245 C 0.19496 0.1009 0.5023 0.0
C246 C 0.25137 0.09896 0.54195 0.0
C247 C 0.8256 0.87241 0.50181 0.0
C248 C 0.79511 0.86535 0.54022 0.0
C249 C 0.76877 0.87744 0.46336 0.0
C250 C 0.68041 0.87659 0.46254 0.0
H251 H 0.89234 0.86256 0.50095 0.0
H252 H 0.79384 0.87178 0.4341 0.0
S253 S 0.57167 0.88463 0.55573 0.0
N254 N 0.67351 0.87662 0.57603 0.0
N255 N 0.56663 0.88807 0.50378 0.0
C256 C 0.65043 0.88437 0.50107 0.0
C257 C 0.70814 0.87793 0.5401 0.0
C258 C 0.71067 0.619 0.03875 0.0
C259 C 0.798 0.62756 0.03789 0.0
C260 C 0.65145 0.61601 1.0011 0.0
C261 C 0.67832 0.62323 0.96175 0.0
H262 H 0.68736 0.62462 0.06849 0.0
H263 H 0.58459 0.61981 0.00308 0.0
S264 S 0.90043 0.62208 0.94267 0.0
N265 N 0.90903 0.62328 0.99484 0.0
N266 N 0.79762 0.61936 0.92387 0.0
C267 C 0.76567 0.61792 0.96058 0.0
C268 C 0.82591 0.61965 0.99891 0.0
C269 C 0.25096 0.41038 0.04521 0.0
C270 C 0.33818 0.40527 0.04325 0.0
C271 C 0.18991 0.41309 0.00817 0.0
C272 C 0.21465 0.40954 0.96822 0.0
H273 H 0.2294 0.4025 0.07529 0.0
H274 H 0.12366 0.40645 0.01098 0.0
S275 S 0.43452 0.42136 0.94626 0.0
N276 N 0.44599 0.41707 0.9985 0.0
N277 N 0.33116 0.42061 0.92876 0.0
C278 C 0.30134 0.4182 0.96604 0.0
C279 C 0.36346 0.41656 0.00375 0.0
loop_
_geom_bond_atom_site_label_1
_geom_bond_atom_site_label_2
_geom_bond_distance
_geom_bond_site_symmetry_2
_ccdc_geom_bond_type
In0 O1 2.294 1_455 S
In0 O2 2.326 1_455 S
In0 O6 2.266 . S
In0 O7 2.326 . S
In0 O8 2.266 . S
In0 O9 2.326 1_455 S
In0 O11 2.294 . S
In0 O12 2.326 . S
O1 In0 2.294 1_655 S
O1 C10 1.240 . S
O2 In0 2.326 1_655 S
O2 C10 1.252 . S
C3 O6 1.252 . S
C3 O7 1.260 . S
C4 O11 1.240 . S
C4 O12 1.252 . S
C5 O8 1.252 . S
C5 O9 1.260 1_455 S
O6 In0 2.266 . S
O6 C3 1.252 . S
O7 In0 2.326 . S
O7 C3 1.260 . S
O8 In0 2.266 . S
O8 C5 1.252 . S
O9 In0 2.326 1_655 S
O9 C5 1.260 1_655 S
C10 O1 1.240 . S
C10 O2 1.252 . S
O11 In0 2.294 . S
O11 C4 1.240 . S
O12 In0 2.326 . S
O12 C4 1.252 . S
In13 O14 2.294 . S
In13 O15 2.326 . S
In13 O19 2.266 . S
In13 O20 2.326 . S
In13 O21 2.266 . S
In13 O22 2.326 . S
In13 O24 2.294 . S
In13 O25 2.326 . S
O14 In13 2.294 . S
O14 C23 1.240 . S
O15 In13 2.326 . S
O15 C23 1.252 . S
C16 O19 1.252 . S
C16 O20 1.260 . S
C17 O24 1.240 . S
C17 O25 1.252 . S
C18 O21 1.252 . S
C18 O22 1.260 . S
O19 In13 2.266 . S
O19 C16 1.252 . S
O20 In13 2.326 . S
O20 C16 1.260 . S
O21 In13 2.266 . S
O21 C18 1.252 . S
O22 In13 2.326 . S
O22 C18 1.260 . S
C23 O14 1.240 . S
C23 O15 1.252 . S
O24 In13 2.294 . S
O24 C17 1.240 . S
O25 In13 2.326 . S
O25 C17 1.252 . S
In26 O27 2.294 . S
In26 O28 2.326 . S
In26 O32 2.266 . S
In26 O33 2.326 1_655 S
In26 O34 2.266 . S
In26 O35 2.326 . S
In26 O37 2.294 1_655 S
In26 O38 2.326 1_655 S
O27 In26 2.294 . S
O27 C36 1.240 . S
O28 In26 2.326 . S
O28 C36 1.252 . S
C29 O32 1.252 . S
C29 O33 1.260 1_655 S
C30 O37 1.240 . S
C30 O38 1.252 . S
C31 O34 1.252 . S
C31 O35 1.260 . S
O32 In26 2.266 . S
O32 C29 1.252 . S
O33 In26 2.326 1_455 S
O33 C29 1.260 1_455 S
O34 In26 2.266 . S
O34 C31 1.252 . S
O35 In26 2.326 . S
O35 C31 1.260 . S
C36 O27 1.240 . S
C36 O28 1.252 . S
O37 In26 2.294 1_455 S
O37 C30 1.240 . S
O38 In26 2.326 1_455 S
O38 C30 1.252 . S
In39 O40 2.294 . S
In39 O41 2.326 . S
In39 O45 2.266 . S
In39 O46 2.326 . S
In39 O47 2.266 . S
In39 O48 2.326 . S
In39 O50 2.294 . S
In39 O51 2.326 . S
O40 In39 2.294 . S
O40 C49 1.240 . S
O41 In39 2.326 . S
O41 C49 1.252 . S
C42 O45 1.252 . S
C42 O46 1.260 . S
C43 O50 1.240 . S
C43 O51 1.252 . S
C44 O47 1.252 . S
C44 O48 1.260 . S
O45 In39 2.266 . S
O45 C42 1.252 . S
O46 In39 2.326 . S
O46 C42 1.260 . S
O47 In39 2.266 . S
O47 C44 1.252 . S
O48 In39 2.326 . S
O48 C44 1.260 . S
C49 O40 1.240 . S
C49 O41 1.252 . S
O50 In39 2.294 . S
O50 C43 1.240 . S
O51 In39 2.326 . S
O51 C43 1.252 . S
In52 O53 2.294 . S
In52 O54 2.326 . S
In52 O58 2.266 . S
In52 O59 2.326 . S
In52 O60 2.266 . S
In52 O61 2.326 . S
In52 O63 2.294 . S
In52 O64 2.326 . S
O53 In52 2.294 . S
O53 C62 1.240 . S
O54 In52 2.326 . S
O54 C62 1.252 . S
C55 O58 1.252 . S
C55 O59 1.260 . S
C56 O63 1.240 . S
C56 O64 1.252 . S
C57 O60 1.252 . S
C57 O61 1.260 . S
O58 In52 2.266 . S
O58 C55 1.252 . S
O59 In52 2.326 . S
O59 C55 1.260 . S
O60 In52 2.266 . S
O60 C57 1.252 . S
O61 In52 2.326 . S
O61 C57 1.260 . S
C62 O53 1.240 . S
C62 O54 1.252 . S
O63 In52 2.294 . S
O63 C56 1.240 . S
O64 In52 2.326 . S
O64 C56 1.252 . S
In65 O66 2.294 1_655 S
In65 O67 2.326 1_655 S
In65 O71 2.266 . S
In65 O72 2.326 . S
In65 O73 2.266 . S
In65 O74 2.326 1_655 S
In65 O76 2.294 . S
In65 O77 2.326 . S
O66 In65 2.294 1_455 S
O66 C75 1.240 . S
O67 In65 2.326 1_455 S
O67 C75 1.252 . S
C68 O71 1.252 . S
C68 O72 1.260 . S
C69 O76 1.240 . S
C69 O77 1.252 . S
C70 O73 1.252 . S
C70 O74 1.260 1_655 S
O71 In65 2.266 . S
O71 C68 1.252 . S
O72 In65 2.326 . S
O72 C68 1.260 . S
O73 In65 2.266 . S
O73 C70 1.252 . S
O74 In65 2.326 1_455 S
O74 C70 1.260 1_455 S
C75 O66 1.240 . S
C75 O67 1.252 . S
O76 In65 2.294 . S
O76 C69 1.240 . S
O77 In65 2.326 . S
O77 C69 1.252 . S
In78 O79 2.294 . S
In78 O80 2.326 . S
In78 O84 2.266 . S
In78 O85 2.326 . S
In78 O86 2.266 . S
In78 O87 2.326 . S
In78 O89 2.294 . S
In78 O90 2.326 . S
O79 In78 2.294 . S
O79 C88 1.240 . S
O80 In78 2.326 . S
O80 C88 1.252 . S
C81 O84 1.252 . S
C81 O85 1.260 . S
C82 O89 1.240 . S
C82 O90 1.252 . S
C83 O86 1.252 . S
C83 O87 1.260 . S
O84 In78 2.266 . S
O84 C81 1.252 . S
O85 In78 2.326 . S
O85 C81 1.260 . S
O86 In78 2.266 . S
O86 C83 1.252 . S
O87 In78 2.326 . S
O87 C83 1.260 . S
C88 O79 1.240 . S
C88 O80 1.252 . S
O89 In78 2.294 . S
O89 C82 1.240 . S
O90 In78 2.326 . S
O90 C82 1.252 . S
In91 O92 2.294 . S
In91 O93 2.326 . S
In91 O97 2.266 . S
In91 O98 2.326 1_455 S
In91 O99 2.266 . S
In91 O100 2.326 . S
In91 O102 2.294 1_455 S
In91 O103 2.326 1_455 S
O92 In91 2.294 . S
O92 C101 1.240 . S
O93 In91 2.326 . S
O93 C101 1.252 . S
C94 O97 1.252 . S
C94 O98 1.260 1_455 S
C95 O102 1.240 . S
C95 O103 1.252 . S
C96 O99 1.252 . S
C96 O100 1.260 . S
O97 In91 2.266 . S
O97 C94 1.252 . S
O98 In91 2.326 1_655 S
O98 C94 1.260 1_655 S
O99 In91 2.266 . S
O99 C96 1.252 . S
O100 In91 2.326 . S
O100 C96 1.260 . S
C101 O92 1.240 . S
C101 O93 1.252 . S
O102 In91 2.294 1_655 S
O102 C95 1.240 . S
O103 In91 2.326 1_655 S
O103 C95 1.252 . S
C104 C105 1.369 . S
C104 C106 1.419 . S
C104 H108 0.930 . S
C105 C104 1.369 . S
C105 C114 1.430 1_655 S
C106 C104 1.419 . S
C106 C107 1.363 1_655 S
C106 H109 0.929 . S
C107 C106 1.363 1_455 S
C107 C113 1.428 . S
H108 C104 0.930 . S
H109 C106 0.929 . S
S110 N111 1.613 1_455 S
S110 N112 1.610 . S
N111 S110 1.613 1_655 S
N111 C114 1.349 1_655 S
N112 S110 1.610 . S
N112 C113 1.351 . S
C113 C107 1.428 . S
C113 N112 1.351 . S
C113 C114 1.433 . S
C114 C105 1.430 1_455 S
C114 N111 1.349 1_455 S
C114 C113 1.433 . S
C115 C116 1.369 . S
C115 C117 1.419 . S
C115 H119 0.930 . S
C116 C115 1.369 . S
C116 C125 1.429 . S
C117 C115 1.419 . S
C117 C118 1.363 . S
C117 H120 0.929 . S
C118 C117 1.363 . S
C118 C124 1.428 . S
H119 C115 0.930 . S
H120 C117 0.929 . S
S121 N122 1.613 . S
S121 N123 1.610 . S
N122 S121 1.613 . S
N122 C125 1.350 . S
N123 S121 1.610 . S
N123 C124 1.351 . S
C124 C118 1.428 . S
C124 N123 1.351 . S
C124 C125 1.434 . S
C125 C116 1.429 . S
C125 N122 1.350 . S
C125 C124 1.434 . S
C126 C127 1.369 1_565 S
C126 C128 1.419 1_554 S
C126 H130 0.930 . S
C127 C126 1.369 1_545 S
C127 C136 1.429 . S
C128 C126 1.419 1_556 S
C128 C129 1.363 . S
C128 H131 0.929 . S
C129 C128 1.363 . S
C129 C135 1.428 1_565 S
H130 C126 0.930 . S
H131 C128 0.929 . S
S132 N133 1.613 1_556 S
S132 N134 1.610 . S
N133 S132 1.613 1_554 S
N133 C136 1.350 . S
N134 S132 1.610 . S
N134 C135 1.351 . S
C135 C129 1.428 1_545 S
C135 N134 1.351 . S
C135 C136 1.434 1_556 S
C136 C127 1.429 . S
C136 N133 1.350 . S
C136 C135 1.434 1_554 S
C137 C138 1.369 1_545 S
C137 C139 1.419 . S
C137 H141 0.930 . S
C138 C137 1.369 1_565 S
C138 C147 1.429 1_454 S
C139 C137 1.419 . S
C139 C140 1.363 1_454 S
C139 H142 0.929 . S
C140 C139 1.363 1_656 S
C140 C146 1.428 1_545 S
H141 C137 0.930 . S
H142 C139 0.929 . S
S143 N144 1.613 . S
S143 N145 1.610 . S
N144 S143 1.613 . S
N144 C147 1.350 . S
N145 S143 1.610 . S
N145 C146 1.351 . S
C146 C140 1.428 1_565 S
C146 N145 1.351 . S
C146 C147 1.434 . S
C147 C138 1.429 1_656 S
C147 N144 1.350 . S
C147 C146 1.434 . S
C148 C149 1.369 . S
C148 C150 1.419 . S
C148 H152 0.930 . S
C149 C148 1.369 . S
C149 C158 1.429 . S
C150 C148 1.419 . S
C150 C151 1.363 . S
C150 H153 0.929 . S
C151 C150 1.363 . S
C151 C157 1.428 . S
H152 C148 0.930 . S
H153 C150 0.929 . S
S154 N155 1.613 . S
S154 N156 1.610 . S
N155 S154 1.613 . S
N155 C158 1.350 . S
N156 S154 1.610 . S
N156 C157 1.351 . S
C157 C151 1.428 . S
C157 N156 1.351 . S
C157 C158 1.434 . S
C158 C149 1.429 . S
C158 N155 1.350 . S
C158 C157 1.434 . S
C159 C160 1.369 . S
C159 C161 1.419 . S
C159 H163 0.930 . S
C160 C159 1.369 . S
C160 C169 1.429 . S
C161 C159 1.419 . S
C161 C162 1.363 . S
C161 H164 0.929 . S
C162 C161 1.363 . S
C162 C168 1.428 . S
H163 C159 0.930 . S
H164 C161 0.929 . S
S165 N166 1.613 . S
S165 N167 1.610 . S
N166 S165 1.613 . S
N166 C169 1.350 . S
N167 S165 1.610 . S
N167 C168 1.351 . S
C168 C162 1.428 . S
C168 N167 1.351 . S
C168 C169 1.434 . S
C169 C160 1.429 . S
C169 N166 1.350 . S
C169 C168 1.434 . S
C170 C171 1.369 . S
C170 C172 1.419 . S
C170 H174 0.930 . S
C171 C170 1.369 . S
C171 C180 1.429 . S
C172 C170 1.419 . S
C172 C173 1.363 . S
C172 H175 0.929 . S
C173 C172 1.363 . S
C173 C179 1.428 . S
H174 C170 0.930 . S
H175 C172 0.929 . S
S176 N177 1.613 . S
S176 N178 1.610 . S
N177 S176 1.613 . S
N177 C180 1.350 . S
N178 S176 1.610 . S
N178 C179 1.351 . S
C179 C173 1.428 . S
C179 N178 1.351 . S
C179 C180 1.434 . S
C180 C171 1.429 . S
C180 N177 1.350 . S
C180 C179 1.434 . S
C181 C182 1.369 . S
C181 C183 1.419 . S
C181 H185 0.930 . S
C182 C181 1.369 . S
C182 C191 1.429 . S
C183 C181 1.419 . S
C183 C184 1.363 . S
C183 H186 0.929 . S
C184 C183 1.363 . S
C184 C190 1.428 . S
H185 C181 0.930 . S
H186 C183 0.929 . S
S187 N188 1.613 . S
S187 N189 1.610 . S
N188 S187 1.613 . S
N188 C191 1.350 . S
N189 S187 1.610 . S
N189 C190 1.351 . S
C190 C184 1.428 . S
C190 N189 1.351 . S
C190 C191 1.434 . S
C191 C182 1.429 . S
C191 N188 1.350 . S
C191 C190 1.434 . S
C192 C193 1.369 . S
C192 C194 1.419 . S
C192 H196 0.930 . S
C193 C192 1.369 . S
C193 C202 1.429 . S
C194 C192 1.419 . S
C194 C195 1.363 . S
C194 H197 0.929 . S
C195 C194 1.363 . S
C195 C201 1.428 . S
H196 C192 0.930 . S
H197 C194 0.929 . S
S198 N199 1.613 . S
S198 N200 1.610 . S
N199 S198 1.613 . S
N199 C202 1.350 . S
N200 S198 1.610 . S
N200 C201 1.351 . S
C201 C195 1.428 . S
C201 N200 1.351 . S
C201 C202 1.434 . S
C202 C193 1.429 . S
C202 N199 1.350 . S
C202 C201 1.434 . S
C203 C204 1.369 . S
C203 C205 1.419 . S
C203 H207 0.930 . S
C204 C203 1.369 . S
C204 C213 1.429 . S
C205 C203 1.419 . S
C205 C206 1.363 . S
C205 H208 0.929 . S
C206 C205 1.363 . S
C206 C212 1.428 . S
H207 C203 0.930 . S
H208 C205 0.929 . S
S209 N210 1.613 . S
S209 N211 1.610 . S
N210 S209 1.613 . S
N210 C213 1.350 . S
N211 S209 1.610 . S
N211 C212 1.351 . S
C212 C206 1.428 . S
C212 N211 1.351 . S
C212 C213 1.434 . S
C213 C204 1.429 . S
C213 N210 1.350 . S
C213 C212 1.434 . S
C214 C215 1.369 . S
C214 C216 1.419 . S
C214 H218 0.930 . S
C215 C214 1.369 . S
C215 C224 1.429 . S
C216 C214 1.419 . S
C216 C217 1.363 . S
C216 H219 0.929 . S
C217 C216 1.363 . S
C217 C223 1.428 . S
H218 C214 0.930 . S
H219 C216 0.929 . S
S220 N221 1.613 . S
S220 N222 1.610 . S
N221 S220 1.613 . S
N221 C224 1.350 . S
N222 S220 1.610 . S
N222 C223 1.351 . S
C223 C217 1.428 . S
C223 N222 1.351 . S
C223 C224 1.434 . S
C224 C215 1.429 . S
C224 N221 1.350 . S
C224 C223 1.434 . S
C225 C226 1.369 . S
C225 C227 1.419 . S
C225 H229 0.930 . S
C226 C225 1.369 . S
C226 C235 1.429 . S
C227 C225 1.419 . S
C227 C228 1.363 . S
C227 H230 0.929 . S
C228 C227 1.363 . S
C228 C234 1.428 . S
H229 C225 0.930 . S
H230 C227 0.929 . S
S231 N232 1.613 . S
S231 N233 1.610 . S
N232 S231 1.613 . S
N232 C235 1.350 . S
N233 S231 1.610 . S
N233 C234 1.351 . S
C234 C228 1.428 . S
C234 N233 1.351 . S
C234 C235 1.434 . S
C235 C226 1.429 . S
C235 N232 1.350 . S
C235 C234 1.434 . S
C236 C237 1.369 . S
C236 C238 1.419 . S
C236 H240 0.930 . S
C237 C236 1.369 . S
C237 C246 1.429 . S
C238 C236 1.419 . S
C238 C239 1.363 . S
C238 H241 0.929 . S
C239 C238 1.363 . S
C239 C245 1.428 . S
H240 C236 0.930 . S
H241 C238 0.929 . S
S242 N243 1.613 . S
S242 N244 1.610 . S
N243 S242 1.613 . S
N243 C246 1.350 . S
N244 S242 1.610 . S
N244 C245 1.351 . S
C245 C239 1.428 . S
C245 N244 1.351 . S
C245 C246 1.434 . S
C246 C237 1.429 . S
C246 N243 1.350 . S
C246 C245 1.434 . S
C247 C248 1.369 . S
C247 C249 1.419 . S
C247 H251 0.930 . S
C248 C247 1.369 . S
C248 C257 1.429 . S
C249 C247 1.419 . S
C249 C250 1.363 . S
C249 H252 0.929 . S
C250 C249 1.363 . S
C250 C256 1.428 . S
H251 C247 0.930 . S
H252 C249 0.929 . S
S253 N254 1.613 . S
S253 N255 1.610 . S
N254 S253 1.613 . S
N254 C257 1.350 . S
N255 S253 1.610 . S
N255 C256 1.351 . S
C256 C250 1.428 . S
C256 N255 1.351 . S
C256 C257 1.434 . S
C257 C248 1.429 . S
C257 N254 1.350 . S
C257 C256 1.434 . S
C258 C259 1.369 . S
C258 C260 1.419 1_554 S
C258 H262 0.930 . S
C259 C258 1.369 . S
C259 C268 1.429 . S
C260 C258 1.419 1_556 S
C260 C261 1.363 . S
C260 H263 0.929 . S
C261 C260 1.363 . S
C261 C267 1.428 . S
H262 C258 0.930 . S
H263 C260 0.929 . S
S264 N265 1.613 1_556 S
S264 N266 1.610 . S
N265 S264 1.613 1_554 S
N265 C268 1.350 . S
N266 S264 1.610 . S
N266 C267 1.351 . S
C267 C261 1.428 . S
C267 N266 1.351 . S
C267 C268 1.434 1_556 S
C268 C259 1.429 . S
C268 N265 1.350 . S
C268 C267 1.434 1_554 S
C269 C270 1.369 . S
C269 C271 1.419 . S
C269 H273 0.930 . S
C270 C269 1.369 . S
C270 C279 1.429 1_554 S
C271 C269 1.419 . S
C271 C272 1.363 1_554 S
C271 H274 0.929 . S
C272 C271 1.363 1_556 S
C272 C278 1.428 . S
H273 C269 0.930 . S
H274 C271 0.929 . S
S275 N276 1.613 . S
S275 N277 1.610 . S
N276 S275 1.613 . S
N276 C279 1.350 . S
N277 S275 1.610 . S
N277 C278 1.351 . S
C278 C272 1.428 . S
C278 N277 1.351 . S
C278 C279 1.434 . S
C279 C270 1.429 1_556 S
C279 N276 1.350 . S
C279 C278 1.434 . S
C105 C5 1.559 1_655 S
C107 C29 1.562 1_455 S
C116 C44 1.559 . S
C118 C18 1.561 . S
C127 C81 1.559 . S
C129 C55 1.561 . S
C138 C70 1.559 1_455 S
C140 C94 1.562 1_655 S
C149 C82 1.749 . S
C151 C10 1.753 . S
C160 C23 1.753 . S
C162 C95 1.750 . S
C171 C30 1.749 . S
C173 C56 1.754 . S
C182 C49 1.754 . S
C184 C75 1.749 . S
C193 C88 1.566 . S
C195 C4 1.565 . S
C204 C17 1.566 . S
C206 C101 1.565 . S
C215 C62 1.566 . S
C217 C36 1.565 . S
C226 C69 1.565 . S
C228 C43 1.566 . S
C237 C16 0.859 . S
C239 C3 0.865 . S
C248 C31 0.858 . S
C250 C42 0.864 . S
C259 C68 0.855 . S
C261 C57 0.856 . S
C270 C83 0.868 . S
C272 C96 0.862 . S
