# Generated by pormake.
# Topology ung, (4)-cn, num edge types: 1
# Building blocks:
#     Node 0, Type 0, BuildingBlock: CEKHIL_clean_sbu_0, # of connection points: 4
#     Node 1, Type 0, BuildingBlock: CEKHIL_clean_sbu_0, # of connection points: 4
#     Node 2, Type 0, BuildingBlock: CEKHIL_clean_sbu_0, # of connection points: 4
#     Node 3, Type 0, BuildingBlock: CEKHIL_clean_sbu_0, # of connection points: 4
#     Node 4, Type 0, BuildingBlock: CEKHIL_clean_sbu_0, # of connection points: 4
#     Node 5, Type 0, BuildingBlock: CEKHIL_clean_sbu_0, # of connection points: 4
#     Node 6, Type 0, BuildingBlock: CEKHIL_clean_sbu_0, # of connection points: 4
#     Node 7, Type 0, BuildingBlock: CEKHIL_clean_sbu_0, # of connection points: 4
#     Node 8, Type 0, BuildingBlock: CEKHIL_clean_sbu_0, # of connection points: 4
#     Node 9, Type 0, BuildingBlock: CEKHIL_clean_sbu_0, # of connection points: 4
#     Node 10, Type 0, BuildingBlock: CEKHIL_clean_sbu_0, # of connection points: 4
#     Node 11, Type 0, BuildingBlock: CEKHIL_clean_sbu_0, # of connection points: 4
#     Node 12, Type 0, BuildingBlock: CEKHIL_clean_sbu_0, # of connection points: 4
#     Node 13, Type 0, BuildingBlock: CEKHIL_clean_sbu_0, # of connection points: 4
#     Node 14, Type 0, BuildingBlock: CEKHIL_clean_sbu_0, # of connection points: 4
#     Node 15, Type 0, BuildingBlock: CEKHIL_clean_sbu_0, # of connection points: 4
#     Node 16, Type 0, BuildingBlock: CEKHIL_clean_sbu_0, # of connection points: 4
#     Node 17, Type 0, BuildingBlock: CEKHIL_clean_sbu_0, # of connection points: 4
#     Edge 18, Type (0, 0), BuildingBlock: UVAHIK_clean_linker_0, # of connection points: 2
#     Edge 19, Type (0, 0), BuildingBlock: UVAHIK_clean_linker_0, # of connection points: 2
#     Edge 20, Type (0, 0), BuildingBlock: UVAHIK_clean_linker_0, # of connection points: 2
#     Edge 21, Type (0, 0), BuildingBlock: UVAHIK_clean_linker_0, # of connection points: 2
#     Edge 22, Type (0, 0), BuildingBlock: UVAHIK_clean_linker_0, # of connection points: 2
#     Edge 23, Type (0, 0), BuildingBlock: UVAHIK_clean_linker_0, # of connection points: 2
#     Edge 24, Type (0, 0), BuildingBlock: UVAHIK_clean_linker_0, # of connection points: 2
#     Edge 25, Type (0, 0), BuildingBlock: UVAHIK_clean_linker_0, # of connection points: 2
#     Edge 26, Type (0, 0), BuildingBlock: UVAHIK_clean_linker_0, # of connection points: 2
#     Edge 27, Type (0, 0), BuildingBlock: UVAHIK_clean_linker_0, # of connection points: 2
#     Edge 28, Type (0, 0), BuildingBlock: UVAHIK_clean_linker_0, # of connection points: 2
#     Edge 29, Type (0, 0), BuildingBlock: UVAHIK_clean_linker_0, # of connection points: 2
#     Edge 30, Type (0, 0), BuildingBlock: UVAHIK_clean_linker_0, # of connection points: 2
#     Edge 31, Type (0, 0), BuildingBlock: UVAHIK_clean_linker_0, # of connection points: 2
#     Edge 32, Type (0, 0), BuildingBlock: UVAHIK_clean_linker_0, # of connection points: 2
#     Edge 33, Type (0, 0), BuildingBlock: UVAHIK_clean_linker_0, # of connection points: 2
#     Edge 34, Type (0, 0), BuildingBlock: UVAHIK_clean_linker_0, # of connection points: 2
#     Edge 35, Type (0, 0), BuildingBlock: UVAHIK_clean_linker_0, # of connection points: 2
#     Edge 36, Type (0, 0), BuildingBlock: UVAHIK_clean_linker_0, # of connection points: 2
#     Edge 37, Type (0, 0), BuildingBlock: UVAHIK_clean_linker_0, # of connection points: 2
#     Edge 38, Type (0, 0), BuildingBlock: UVAHIK_clean_linker_0, # of connection points: 2
#     Edge 39, Type (0, 0), BuildingBlock: UVAHIK_clean_linker_0, # of connection points: 2
#     Edge 40, Type (0, 0), BuildingBlock: UVAHIK_clean_linker_0, # of connection points: 2
#     Edge 41, Type (0, 0), BuildingBlock: UVAHIK_clean_linker_0, # of connection points: 2
#     Edge 42, Type (0, 0), BuildingBlock: UVAHIK_clean_linker_0, # of connection points: 2
#     Edge 43, Type (0, 0), BuildingBlock: UVAHIK_clean_linker_0, # of connection points: 2
#     Edge 44, Type (0, 0), BuildingBlock: UVAHIK_clean_linker_0, # of connection points: 2
#     Edge 45, Type (0, 0), BuildingBlock: UVAHIK_clean_linker_0, # of connection points: 2
#     Edge 46, Type (0, 0), BuildingBlock: UVAHIK_clean_linker_0, # of connection points: 2
#     Edge 47, Type (0, 0), BuildingBlock: UVAHIK_clean_linker_0, # of connection points: 2
#     Edge 48, Type (0, 0), BuildingBlock: UVAHIK_clean_linker_0, # of connection points: 2
#     Edge 49, Type (0, 0), BuildingBlock: UVAHIK_clean_linker_0, # of connection points: 2
#     Edge 50, Type (0, 0), BuildingBlock: UVAHIK_clean_linker_0, # of connection points: 2
#     Edge 51, Type (0, 0), BuildingBlock: UVAHIK_clean_linker_0, # of connection points: 2
#     Edge 52, Type (0, 0), BuildingBlock: UVAHIK_clean_linker_0, # of connection points: 2
#     Edge 53, Type (0, 0), BuildingBlock: UVAHIK_clean_linker_0, # of connection points: 2
# Relax obj value: 0.073
# Max RMSD: 0.188
# Mean RMSD: 0.184
data_MOF--net-ung--node1-CEKHIL_clean_sbu_0--edge1-UVAHIK_clean_linker_0
_symmetry_space_group_name_H-M    P1
_symmetry_Int_Tables_number       1
_symmetry_cell_setting            triclinic
loop_
_symmetry_equiv_pos_as_xyz
'x, y, z'
_cell_length_a     93.850124
_cell_length_b     94.051013
_cell_length_c     28.680038
_cell_angle_alpha  90.792954
_cell_angle_beta   90.953546
_cell_angle_gamma 119.93893
loop_
_atom_site_label
_atom_site_type_symbol
_atom_site_fract_x
_atom_site_fract_y
_atom_site_fract_z
_atom_type_partial_charge
Co0 Co 0.07245 0.62598 0.25557 0.0
O1 O 0.08279 0.6191 0.30072 0.0
O2 O 0.05634 0.60505 0.27998 0.0
C3 C 0.08322 0.65181 0.28271 0.0
O4 O 0.05769 0.62989 0.21102 0.0
Co5 Co 0.09481 0.65276 0.1869 0.0
O6 O 0.07384 0.65111 0.16564 0.0
C7 C 0.08739 0.61891 0.17055 0.0
C8 C 0.06847 0.60625 0.30575 0.0
C9 C 0.05975 0.64016 0.17897 0.0
O10 O 0.07758 0.61449 0.20485 0.0
O11 O 0.09641 0.63389 0.15934 0.0
O12 O 0.07033 0.64 0.30147 0.0
O13 O 0.09034 0.64741 0.25204 0.0
Co14 Co 0.49702 0.48525 0.23995 0.0
O15 O 0.51364 0.4901 0.19534 0.0
O16 O 0.50389 0.50655 0.21311 0.0
C17 C 0.48005 0.45955 0.2136 0.0
O18 O 0.47927 0.4835 0.2836 0.0
Co19 Co 0.49041 0.45813 0.31039 0.0
O20 O 0.47242 0.46192 0.32994 0.0
C21 C 0.51896 0.49093 0.3264 0.0
C22 C 0.51378 0.50373 0.1883 0.0
C23 C 0.47059 0.47369 0.31568 0.0
O24 O 0.51425 0.49592 0.29102 0.0
O25 O 0.51182 0.47589 0.33817 0.0
O26 O 0.47992 0.47187 0.19426 0.0
O27 O 0.49154 0.46319 0.24483 0.0
Co28 Co 0.62739 0.04879 0.26517 0.0
O29 O 0.60917 0.0368 0.30499 0.0
O30 O 0.62222 0.06378 0.29784 0.0
C31 C 0.6412 0.03602 0.28745 0.0
O32 O 0.64703 0.06534 0.22858 0.0
Co33 Co 0.63424 0.03034 0.1865 0.0
O34 O 0.65487 0.05153 0.18032 0.0
C35 C 0.60776 0.03821 0.17292 0.0
C36 C 0.61076 0.05081 0.31764 0.0
C37 C 0.65691 0.06481 0.19895 0.0
O38 O 0.61193 0.04621 0.21213 0.0
O39 O 0.61439 0.03004 0.15784 0.0
O40 O 0.64236 0.04831 0.3118 0.0
O41 O 0.63073 0.03096 0.25268 0.0
Co42 Co 0.05665 0.48722 0.73493 0.0
O43 O 0.04515 0.49544 0.69875 0.0
O44 O 0.07208 0.50883 0.71317 0.0
C45 C 0.04477 0.46234 0.70036 0.0
O46 O 0.07259 0.48203 0.76958 0.0
Co47 Co 0.03643 0.45838 0.80051 0.0
O48 O 0.05781 0.45951 0.81214 0.0
C49 C 0.04432 0.49157 0.8291 0.0
C50 C 0.05935 0.50835 0.69263 0.0
C51 C 0.07142 0.47086 0.79725 0.0
O52 O 0.05319 0.49705 0.79298 0.0
O53 O 0.03559 0.47627 0.8373 0.0
O54 O 0.05712 0.47474 0.68156 0.0
O55 O 0.03884 0.46567 0.73667 0.0
Co56 Co 0.62706 0.62401 0.76449 0.0
O57 O 0.60975 0.61761 0.80758 0.0
O58 O 0.62238 0.60353 0.79344 0.0
C59 C 0.64114 0.65033 0.78991 0.0
O60 O 0.6459 0.62773 0.72216 0.0
Co61 Co 0.63092 0.65002 0.6922 0.0
O62 O 0.65058 0.64867 0.67544 0.0
C63 C 0.6053 0.61553 0.67638 0.0
C64 C 0.61134 0.60504 0.81661 0.0
C65 C 0.65392 0.63786 0.68985 0.0
O66 O 0.61064 0.61154 0.7126 0.0
O67 O 0.61088 0.63041 0.66437 0.0
O68 O 0.64296 0.63917 0.81086 0.0
O69 O 0.62985 0.64499 0.75742 0.0
Co70 Co 0.49852 0.06257 0.73963 0.0
O71 O 0.51797 0.07329 0.70365 0.0
O72 O 0.50356 0.04648 0.71353 0.0
C73 C 0.48668 0.07609 0.70801 0.0
O74 O 0.47753 0.0472 0.77372 0.0
Co75 Co 0.49133 0.08324 0.80966 0.0
O76 O 0.47082 0.06239 0.81996 0.0
C77 C 0.51568 0.07356 0.83559 0.0
C78 C 0.51598 0.05888 0.69454 0.0
C79 C 0.46807 0.04859 0.80329 0.0
O80 O 0.51216 0.06515 0.7972 0.0
O81 O 0.50953 0.08262 0.84605 0.0
O82 O 0.48546 0.06314 0.68744 0.0
O83 O 0.49608 0.0813 0.74515 0.0
Co84 Co 0.72822 0.94369 0.55157 0.0
O85 O 0.72601 0.92474 0.5197 0.0
O86 O 0.74957 0.94528 0.54894 0.0
C87 C 0.71328 0.94926 0.50084 0.0
O88 O 0.73487 0.96514 0.58629 0.0
Co89 Co 0.69683 0.9419 0.59159 0.0
O90 O 0.71197 0.96546 0.60662 0.0
C91 C 0.71313 0.92695 0.64304 0.0
C92 C 0.7417 0.93109 0.52722 0.0
C93 C 0.72757 0.97225 0.60473 0.0
O94 O 0.72431 0.93228 0.61235 0.0
O95 O 0.70039 0.92858 0.63998 0.0
O96 O 0.72856 0.9539 0.49293 0.0
O97 O 0.70702 0.93968 0.53579 0.0
Co98 Co 0.15711 0.82992 0.56217 0.0
O99 O 0.17811 0.83874 0.5346 0.0
O100 O 0.16466 0.85234 0.54349 0.0
C101 C 0.14576 0.80621 0.52069 0.0
O102 O 0.13484 0.82398 0.58915 0.0
Co103 Co 0.14486 0.7985 0.61989 0.0
O104 O 0.12348 0.79766 0.61071 0.0
C105 C 0.16915 0.83055 0.66192 0.0
C106 C 0.17751 0.85201 0.52823 0.0
C107 C 0.12255 0.81046 0.60262 0.0
O108 O 0.16798 0.83764 0.62526 0.0
O109 O 0.16167 0.81493 0.66582 0.0
O110 O 0.14628 0.81914 0.5035 0.0
O111 O 0.15328 0.80836 0.56058 0.0
Co112 Co 0.29539 0.39213 0.56147 0.0
O113 O 0.28323 0.40093 0.53122 0.0
O114 O 0.27528 0.37445 0.53345 0.0
C115 C 0.31993 0.40984 0.53166 0.0
O116 O 0.30494 0.37869 0.58867 0.0
Co117 Co 0.32269 0.41406 0.63442 0.0
O118 O 0.32566 0.39469 0.63932 0.0
C119 C 0.28809 0.3986 0.66036 0.0
C120 C 0.27246 0.38593 0.51932 0.0
C121 C 0.3164 0.38098 0.61824 0.0
O122 O 0.28388 0.39043 0.62143 0.0
O123 O 0.30283 0.4099 0.67052 0.0
O124 O 0.30928 0.39694 0.50778 0.0
O125 O 0.31483 0.41251 0.57067 0.0
Co126 Co 0.7254 0.82922 0.0664 0.0
O127 O 0.71781 0.84335 0.04385 0.0
O128 O 0.74405 0.85071 0.05543 0.0
C129 C 0.70965 0.80786 0.0181 0.0
O130 O 0.73744 0.81748 0.08901 0.0
Co131 Co 0.70059 0.79692 0.11387 0.0
O132 O 0.71813 0.79145 0.10313 0.0
C133 C 0.71642 0.82811 0.16849 0.0
C134 C 0.73315 0.85452 0.04127 0.0
C135 C 0.7331 0.80254 0.09864 0.0
O136 O 0.72428 0.8357 0.13235 0.0
O137 O 0.70585 0.81274 0.16809 0.0
O138 O 0.72337 0.81999 0.00421 0.0
O139 O 0.70499 0.80988 0.05869 0.0
Co140 Co 0.29944 0.94651 0.1007 0.0
O141 O 0.28151 0.94149 0.14033 0.0
O142 O 0.29156 0.92495 0.12713 0.0
C143 C 0.31558 0.97195 0.13057 0.0
O144 O 0.31841 0.94855 0.06173 0.0
Co145 Co 0.30848 0.97445 0.03108 0.0
O146 O 0.32821 0.97226 0.0231 0.0
C147 C 0.27911 0.94233 0.01243 0.0
C148 C 0.28093 0.92771 0.14814 0.0
C149 C 0.32908 0.95979 0.03581 0.0
O150 O 0.28354 0.93655 0.04644 0.0
O151 O 0.28672 0.95755 0.00239 0.0
O152 O 0.3151 0.95939 0.15026 0.0
O153 O 0.30524 0.9686 0.09606 0.0
Co154 Co 0.15949 0.38146 0.04823 0.0
O155 O 0.17967 0.38792 0.01729 0.0
O156 O 0.16052 0.36212 0.02958 0.0
C157 C 0.15317 0.39808 0.00804 0.0
O158 O 0.13703 0.37025 0.07821 0.0
Co159 Co 0.15544 0.407 0.10731 0.0
O160 O 0.13199 0.3896 0.10717 0.0
C161 C 0.17445 0.3924 0.14621 0.0
C162 C 0.1746 0.3724 0.01208 0.0
C163 C 0.12747 0.37465 0.0974 0.0
O164 O 0.17043 0.38274 0.11019 0.0
O165 O 0.17068 0.4037 0.15022 0.0
O166 O 0.14971 0.38386 0.99071 0.0
O167 O 0.16143 0.40236 0.04721 0.0
Co168 Co 0.39598 0.28749 0.91235 0.0
O169 O 0.40638 0.28251 0.96215 0.0
O170 O 0.38028 0.26684 0.93981 0.0
C171 C 0.40566 0.31371 0.9349 0.0
O172 O 0.38126 0.28955 0.86297 0.0
Co173 Co 0.41851 0.3131 0.84197 0.0
O174 O 0.3975 0.30969 0.81465 0.0
C175 C 0.41247 0.27949 0.83308 0.0
C176 C 0.39237 0.26942 0.96827 0.0
C177 C 0.3834 0.29873 0.82786 0.0
O178 O 0.40237 0.27545 0.86662 0.0
O179 O 0.42122 0.29429 0.81999 0.0
O180 O 0.39252 0.30201 0.95295 0.0
O181 O 0.41351 0.30913 0.9074 0.0
Co182 Co 0.82646 0.14842 0.89786 0.0
O183 O 0.8442 0.15491 0.85631 0.0
O184 O 0.83238 0.16967 0.87233 0.0
C185 C 0.81157 0.12276 0.86798 0.0
O186 O 0.80741 0.14489 0.93891 0.0
Co187 Co 0.82043 0.12104 0.96659 0.0
O188 O 0.8014 0.12332 0.98437 0.0
C189 C 0.84733 0.15453 0.98674 0.0
C190 C 0.84341 0.16807 0.84947 0.0
C191 C 0.7988 0.13464 0.97028 0.0
O192 O 0.84256 0.15937 0.95123 0.0
O193 O 0.84084 0.13942 -0.00256 0.0
O194 O 0.81081 0.13486 0.84931 0.0
O195 O 0.82242 0.12675 0.90148 0.0
Co196 Co 0.95534 0.71402 0.92496 0.0
O197 O 0.93488 0.70304 0.95611 0.0
O198 O 0.95024 0.73003 0.95115 0.0
C199 C 0.96561 0.69933 0.95757 0.0
O200 O 0.97742 0.72954 0.89617 0.0
Co201 Co 0.96421 0.69459 0.85533 0.0
O202 O 0.98657 0.71393 0.86287 0.0
C203 C 0.9411 0.7055 0.82545 0.0
C204 C 0.93712 0.71745 0.96682 0.0
C205 C 0.98874 0.72784 0.87651 0.0
O206 O 0.94349 0.71294 0.86513 0.0
O207 O 0.94756 0.6967 0.8151 0.0
O208 O 0.96661 0.71198 0.97936 0.0
O209 O 0.95732 0.6951 0.91835 0.0
Co210 Co 0.38206 0.15001 0.40198 0.0
O211 O 0.37018 0.15525 0.35721 0.0
O212 O 0.39614 0.17194 0.37929 0.0
C213 C 0.37464 0.12506 0.37236 0.0
O214 O 0.39816 0.14803 0.44637 0.0
Co215 Co 0.36159 0.12133 0.4677 0.0
O216 O 0.38353 0.12577 0.49006 0.0
C217 C 0.3654 0.15358 0.48892 0.0
C218 C 0.38352 0.16922 0.35297 0.0
C219 C 0.39709 0.13794 0.4779 0.0
O220 O 0.37478 0.15923 0.45384 0.0
O221 O 0.35788 0.13838 0.49902 0.0
O222 O 0.38668 0.1381 0.35496 0.0
O223 O 0.36614 0.12759 0.40315 0.0
Co224 Co 0.95863 0.28152 0.42729 0.0
O225 O 0.93923 0.27431 0.46256 0.0
O226 O 0.95117 0.25949 0.44895 0.0
C227 C 0.97272 0.30619 0.46311 0.0
O228 O 0.97917 0.28564 0.39274 0.0
Co229 Co 0.96894 0.31124 0.36332 0.0
O230 O 0.98975 0.31071 0.36175 0.0
C231 C 0.94219 0.27872 0.33222 0.0
C232 C 0.93948 0.26083 0.46875 0.0
C233 C 0.99065 0.29805 0.37209 0.0
O234 O 0.94488 0.27256 0.3687 0.0
O235 O 0.94983 0.29413 0.32447 0.0
O236 O 0.97223 0.29342 0.4814 0.0
O237 O 0.9635 0.3034 0.42619 0.0
Co238 Co 0.82545 0.72332 0.39776 0.0
O239 O 0.84391 0.73506 0.35883 0.0
O240 O 0.83148 0.70826 0.36964 0.0
C241 C 0.81125 0.73487 0.36943 0.0
O242 O 0.80566 0.70705 0.43446 0.0
Co243 Co 0.81713 0.74209 0.47051 0.0
O244 O 0.79563 0.72145 0.47048 0.0
C245 C 0.84411 0.73557 0.49116 0.0
C246 C 0.84288 0.72109 0.34916 0.0
C247 C 0.79441 0.7079 0.45726 0.0
O248 O 0.84064 0.72734 0.45252 0.0
O249 O 0.83671 0.74322 0.50421 0.0
O250 O 0.81066 0.72226 0.34852 0.0
O251 O 0.82143 0.74103 0.4049 0.0
C252 C 0.05328 0.52044 0.85325 0.0
C253 C 0.0456 0.50376 0.8644 0.0
C254 C 0.05693 0.53239 0.88782 0.0
C255 C 0.06567 0.53934 0.0134 0.0
H256 H 0.06373 0.5789 0.99083 0.0
C257 C 0.07813 0.5894 0.15348 0.0
C258 C 0.08646 0.60582 0.13943 0.0
C259 C 0.07414 0.57664 0.12127 0.0
C260 C 0.06454 0.56801 -0.00265 0.0
H261 H 0.03483 0.48647 0.92016 0.0
H262 H 0.04105 0.50745 0.98069 0.0
H263 H 0.05239 0.55668 0.9324 0.0
H264 H 0.09829 0.62174 0.08145 0.0
H265 H 0.09137 0.59939 0.02528 0.0
H266 H 0.07774 0.55071 0.07865 0.0
C267 C 0.04449 0.51123 0.9452 0.0
C268 C 0.05797 0.55526 0.96403 0.0
C269 C 0.04079 0.49922 0.91048 0.0
C270 C 0.09181 0.60924 0.09336 0.0
C271 C 0.08772 0.59646 0.06109 0.0
C272 C 0.07217 0.55208 0.04689 0.0
C273 C 0.05296 0.52795 0.93435 0.0
C274 C 0.05862 0.54086 0.97148 0.0
C275 C 0.07835 0.58005 0.07441 0.0
C276 C 0.07181 0.56659 0.03891 0.0
H277 H 0.05705 0.52437 0.81802 0.0
H278 H 0.06357 0.54517 0.87834 0.0
H279 H 0.06658 0.52849 0.01981 0.0
H280 H 0.07396 0.58636 0.18886 0.0
H281 H 0.06693 0.5641 0.13247 0.0
C282 C 0.60283 0.58012 0.86575 0.0
C283 C 0.60129 0.59367 0.85316 0.0
C284 C 0.59361 0.57014 0.90223 0.0
C285 C 0.57179 0.57124 0.00714 0.0
H286 H 0.54908 0.52379 0.99591 0.0
C287 C 0.52392 0.52904 0.14017 0.0
C288 C 0.52446 0.51491 0.15232 0.0
C289 C 0.53358 0.53885 0.10409 0.0
C290 C 0.5555 0.53704 -0.00019 0.0
H291 H 0.58859 0.60716 0.86828 0.0
H292 H 0.57268 0.58989 0.93099 0.0
H293 H 0.56585 0.5402 0.93207 0.0
H294 H 0.53583 0.50019 0.13692 0.0
H295 H 0.55265 0.51728 0.07501 0.0
H296 H 0.56148 0.56812 0.07481 0.0
C297 C 0.58112 0.58704 0.91344 0.0
C298 C 0.56512 0.54642 0.96325 0.0
C299 C 0.5902 0.59688 0.87714 0.0
C300 C 0.53502 0.51095 0.12832 0.0
C301 C 0.54461 0.52068 0.09249 0.0
C302 C 0.56221 0.56188 0.04371 0.0
C303 C 0.58282 0.57367 0.9268 0.0
C304 C 0.57329 0.56362 0.96642 0.0
C305 C 0.54391 0.53466 0.07956 0.0
C306 C 0.55392 0.54467 0.04045 0.0
H307 H 0.61127 0.57735 0.8479 0.0
H308 H 0.59517 0.5599 0.91187 0.0
H309 H 0.57813 0.5845 0.01087 0.0
H310 H 0.51587 0.53237 0.15796 0.0
H311 H 0.5327 0.54951 0.09474 0.0
C312 C 0.59218 0.03277 0.0967 0.0
C313 C 0.59574 0.03968 0.14214 0.0
C314 C 0.58245 0.03587 0.06576 0.0
C315 C 0.57006 0.06664 0.04367 0.0
H316 H 0.53926 0.03382 0.95465 0.0
C317 C 0.52841 0.07813 0.91618 0.0
C318 C 0.52626 0.0715 0.87063 0.0
C319 C 0.53681 0.07452 0.95049 0.0
C320 C 0.54795 0.04317 0.97901 0.0
H321 H 0.5911 0.05458 0.19136 0.0
H322 H 0.57399 0.05979 0.13748 0.0
H323 H 0.55292 0.02604 0.01367 0.0
H324 H 0.53199 0.05649 0.82504 0.0
H325 H 0.54675 0.05041 0.88462 0.0
H326 H 0.56513 0.08378 0.00876 0.0
C327 C 0.57901 0.05225 0.12556 0.0
C328 C 0.55574 0.0387 0.01286 0.0
C329 C 0.58873 0.04915 0.15652 0.0
C330 C 0.53327 0.06171 0.8598 0.0
C331 C 0.54163 0.05811 0.89405 0.0
C332 C 0.56224 0.07111 0.00982 0.0
C333 C 0.57604 0.04592 0.07954 0.0
C334 C 0.56699 0.05041 0.04533 0.0
C335 C 0.54323 0.06421 0.93996 0.0
C336 C 0.55123 0.05945 0.97682 0.0
H337 H 0.59735 0.02542 0.08437 0.0
H338 H 0.5805 0.03091 0.03044 0.0
H339 H 0.57885 0.07601 0.06774 0.0
H340 H 0.52315 0.08568 0.92581 0.0
H341 H 0.53779 0.07935 0.98562 0.0
C342 C 0.5876 0.03714 0.37226 0.0
C343 C 0.60048 0.05171 0.35475 0.0
C344 C 0.57855 0.03762 0.40971 0.0
C345 C 0.58125 0.06345 0.51046 0.0
H346 H 0.53392 0.03488 0.5119 0.0
C347 C 0.54066 0.07104 0.64507 0.0
C348 C 0.52687 0.05697 0.66152 0.0
C349 C 0.55013 0.06975 0.61016 0.0
C350 C 0.54716 0.04273 0.5124 0.0
H351 H 0.61376 0.07824 0.36215 0.0
H352 H 0.5978 0.07909 0.42775 0.0
H353 H 0.54905 0.03447 0.44409 0.0
H354 H 0.51256 0.03044 0.65551 0.0
H355 H 0.5293 0.02814 0.59443 0.0
H356 H 0.57938 0.07174 0.57872 0.0
C357 C 0.59485 0.06729 0.41264 0.0
C358 C 0.55582 0.04256 0.47343 0.0
C359 C 0.6039 0.06682 0.37488 0.0
C360 C 0.52311 0.04149 0.64348 0.0
C361 C 0.53261 0.0402 0.60828 0.0
C362 C 0.5726 0.06359 0.54948 0.0
C363 C 0.58217 0.05267 0.43069 0.0
C364 C 0.57295 0.05299 0.47191 0.0
C365 C 0.54608 0.05436 0.59074 0.0
C366 C 0.55544 0.05332 0.55078 0.0
H367 H 0.58466 0.02529 0.35756 0.0
H368 H 0.56899 0.02613 0.42306 0.0
H369 H 0.59448 0.07139 0.51072 0.0
H370 H 0.54392 0.08316 0.65828 0.0
H371 H 0.56028 0.08092 0.59717 0.0
C372 C 0.08032 0.59444 0.36041 0.0
C373 C 0.06634 0.59419 0.34113 0.0
C374 C 0.07894 0.58456 0.3977 0.0
C375 C 0.05304 0.56479 0.4967 0.0
H376 H 0.07915 0.5434 0.50655 0.0
C377 C 0.04651 0.52058 0.64298 0.0
C378 C 0.06081 0.52089 0.65984 0.0
C379 C 0.04724 0.53042 0.60618 0.0
C380 C 0.07199 0.54952 0.50459 0.0
H381 H 0.03986 0.58298 0.34445 0.0
H382 H 0.03739 0.56555 0.41021 0.0
H383 H 0.07921 0.55698 0.43476 0.0
H384 H 0.08723 0.53244 0.65345 0.0
H385 H 0.08856 0.54983 0.58907 0.0
H386 H 0.04583 0.55733 0.56665 0.0
C387 C 0.04944 0.57354 0.39647 0.0
C388 C 0.07193 0.55719 0.46338 0.0
C389 C 0.05082 0.58338 0.35869 0.0
C390 C 0.07602 0.53195 0.64107 0.0
C391 C 0.07675 0.54176 0.60399 0.0
C392 C 0.05309 0.55711 0.53798 0.0
C393 C 0.06354 0.57425 0.41675 0.0
C394 C 0.06254 0.565 0.4591 0.0
C395 C 0.06229 0.54075 0.58537 0.0
C396 C 0.06265 0.54948 0.54242 0.0
H397 H 0.09245 0.6026 0.34745 0.0
H398 H 0.09004 0.58551 0.41279 0.0
H399 H 0.0459 0.57094 0.49466 0.0
H400 H 0.0346 0.51223 0.65696 0.0
H401 H 0.03588 0.52931 0.59253 0.0
C402 C 0.59004 0.60594 0.59961 0.0
C403 C 0.5937 0.60223 0.64398 0.0
C404 C 0.58167 0.59353 0.56583 0.0
C405 C 0.57445 0.55241 0.53433 0.0
H406 H 0.54331 0.55257 0.44414 0.0
C407 C 0.53471 0.49924 0.40274 0.0
C408 C 0.53165 0.50351 0.35841 0.0
C409 C 0.54381 0.51139 0.43668 0.0
C410 C 0.55217 0.55251 0.46872 0.0
H411 H 0.59029 0.58237 0.68872 0.0
H412 H 0.5754 0.56072 0.62995 0.0
H413 H 0.55415 0.57301 0.50759 0.0
H414 H 0.53715 0.52398 0.31358 0.0
H415 H 0.55307 0.54509 0.37273 0.0
H416 H 0.57229 0.53176 0.49553 0.0
C417 C 0.57942 0.57329 0.62097 0.0
C418 C 0.55832 0.56417 0.50514 0.0
C419 C 0.58783 0.5857 0.65476 0.0
C420 C 0.53905 0.52022 0.34756 0.0
C421 C 0.54809 0.53234 0.38149 0.0
C422 C 0.56823 0.54069 0.49797 0.0
C423 C 0.5767 0.57714 0.57575 0.0
C424 C 0.56956 0.56429 0.53828 0.0
C425 C 0.55 0.52802 0.42687 0.0
C426 C 0.5571 0.54068 0.4647 0.0
H427 H 0.59434 0.61851 0.59006 0.0
H428 H 0.57982 0.59691 0.53125 0.0
H429 H 0.58334 0.55237 0.55883 0.0
H430 H 0.52927 0.4865 0.41223 0.0
H431 H 0.54512 0.50772 0.47139 0.0
C432 C 0.71675 0.8293 0.25597 0.0
C433 C 0.72114 0.83744 0.21337 0.0
C434 C 0.72297 0.83807 0.29816 0.0
C435 C 0.75617 0.87793 0.34719 0.0
H436 H 0.72529 0.87002 0.44496 0.0
C437 C 0.75848 0.92711 0.46894 0.0
C438 C 0.74978 0.92227 0.51031 0.0
C439 C 0.76037 0.9157 0.44202 0.0
C440 C 0.7343 0.87216 0.41883 0.0
H441 H 0.73513 0.86127 0.18184 0.0
H442 H 0.74556 0.87651 0.25521 0.0
H443 H 0.71671 0.8515 0.37777 0.0
H444 H 0.73803 0.90277 0.55946 0.0
H445 H 0.74197 0.88299 0.51362 0.0
H446 H 0.77349 0.89914 0.3874 0.0
C447 C 0.73771 0.8633 0.25603 0.0
C448 C 0.7293 0.86153 0.38006 0.0
C449 C 0.73154 0.85457 0.21397 0.0
C450 C 0.74484 0.90668 0.52756 0.0
C451 C 0.74696 0.89535 0.5011 0.0
C452 C 0.76119 0.88859 0.38609 0.0
C453 C 0.73367 0.85514 0.29854 0.0
C454 C 0.73996 0.86467 0.343 0.0
C455 C 0.75358 0.89937 0.45643 0.0
C456 C 0.75009 0.88617 0.42147 0.0
H457 H 0.70889 0.8161 0.25675 0.0
H458 H 0.71963 0.83145 0.33043 0.0
H459 H 0.76477 0.88042 0.31954 0.0
H460 H 0.76215 0.93906 0.4549 0.0
H461 H 0.7655 0.91922 0.40776 0.0
C462 C 0.20561 0.86619 0.49747 0.0
C463 C 0.19005 0.86486 0.49951 0.0
C464 C 0.21613 0.87454 0.46147 0.0
C465 C 0.21293 0.88332 0.33955 0.0
H466 H 0.2606 0.90708 0.34803 0.0
C467 C 0.25406 0.91637 0.18571 0.0
C468 C 0.26902 0.91653 0.18152 0.0
C469 C 0.24403 0.90897 0.22336 0.0
C470 C 0.2473 0.90023 0.34512 0.0
H471 H 0.17378 0.87234 0.46803 0.0
H472 H 0.19235 0.88724 0.40492 0.0
H473 H 0.24482 0.89947 0.41927 0.0
H474 H 0.2849 0.90837 0.21179 0.0
H475 H 0.26721 0.89524 0.27834 0.0
H476 H 0.2154 0.88409 0.26545 0.0
C477 C 0.19628 0.88158 0.43091 0.0
C478 C 0.23826 0.896 0.38589 0.0
C479 C 0.18576 0.87327 0.46732 0.0
C480 C 0.27334 0.90826 0.21415 0.0
C481 C 0.26334 0.90097 0.25239 0.0
C482 C 0.22196 0.88757 0.29883 0.0
C483 C 0.21127 0.88168 0.42656 0.0
C484 C 0.22097 0.88749 0.38357 0.0
C485 C 0.24881 0.90168 0.25797 0.0
C486 C 0.23924 0.89606 0.30115 0.0
H487 H 0.20921 0.85982 0.52201 0.0
H488 H 0.22753 0.87433 0.4592 0.0
H489 H 0.19963 0.87641 0.33649 0.0
H490 H 0.25048 0.92269 0.16093 0.0
H491 H 0.23301 0.90983 0.2267 0.0
C492 C 0.25029 0.36812 0.46072 0.0
C493 C 0.25831 0.38252 0.48856 0.0
C494 C 0.23856 0.36624 0.42668 0.0
C495 C 0.21188 0.38263 0.38779 0.0
H496 H 0.22058 0.37302 0.263 0.0
C497 C 0.18874 0.40058 0.22482 0.0
C498 C 0.18319 0.3898 0.18578 0.0
C499 C 0.19627 0.39768 0.26303 0.0
C500 C 0.21777 0.37544 0.29766 0.0
H501 H 0.25967 0.40577 0.50482 0.0
H502 H 0.23916 0.40242 0.44613 0.0
H503 H 0.23548 0.37038 0.32967 0.0
H504 H 0.18133 0.3675 0.15638 0.0
H505 H 0.1943 0.36239 0.22325 0.0
H506 H 0.19436 0.38794 0.3559 0.0
C507 C 0.24191 0.39259 0.45026 0.0
C508 C 0.22628 0.37389 0.33587 0.0
C509 C 0.25374 0.39456 0.48369 0.0
C510 C 0.18552 0.37612 0.18573 0.0
C511 C 0.19299 0.37319 0.22406 0.0
C512 C 0.2033 0.38409 0.34966 0.0
C513 C 0.2345 0.37862 0.42061 0.0
C514 C 0.2237 0.37784 0.38119 0.0
C515 C 0.19839 0.3839 0.26327 0.0
C516 C 0.20643 0.3809 0.30404 0.0
H517 H 0.25363 0.35867 0.46373 0.0
H518 H 0.23294 0.35529 0.40444 0.0
H519 H 0.20951 0.38556 0.42243 0.0
H520 H 0.18723 0.41127 0.22603 0.0
H521 H 0.20059 0.40637 0.29224 0.0
C522 C 0.19906 0.36977 -0.00386 0.0
C523 C 0.18359 0.36715 0.98183 0.0
C524 C 0.20967 0.36922 0.96345 0.0
C525 C 0.21294 0.36144 0.83582 0.0
H526 H 0.25818 0.39548 0.85944 0.0
C527 C 0.26272 0.37743 0.69826 0.0
C528 C 0.27555 0.39378 0.69641 0.0
C529 C 0.25151 0.37243 0.73427 0.0
C530 C 0.24557 0.38608 0.85184 0.0
H531 H 0.16667 0.36146 0.92328 0.0
H532 H 0.18526 0.36121 0.86578 0.0
H533 H 0.23839 0.38877 0.91991 0.0
H534 H 0.28642 0.41785 0.72983 0.0
H535 H 0.26631 0.40946 0.79102 0.0
H536 H 0.21988 0.35975 0.76638 0.0
C537 C 0.18919 0.36301 0.90212 0.0
C538 C 0.2342 0.3819 0.88717 0.0
C539 C 0.17846 0.36315 0.93504 0.0
C540 C 0.27671 0.40514 0.7306 0.0
C541 C 0.26526 0.40024 0.766 0.0
C542 C 0.22424 0.36589 0.80009 0.0
C543 C 0.2052 0.36667 0.91559 0.0
C544 C 0.21765 0.36967 0.87956 0.0
C545 C 0.25262 0.38376 0.76877 0.0
C546 C 0.24068 0.37844 0.80739 0.0
H547 H 0.20326 0.37307 0.03216 0.0
H548 H 0.22167 0.37159 0.97553 0.0
H549 H 0.20043 0.35174 0.82869 0.0
H550 H 0.26166 0.36833 0.6727 0.0
H551 H 0.24221 0.35959 0.73545 0.0
C552 C 0.75126 0.87656 0.98764 0.0
C553 C 0.73748 0.8696 0.01603 0.0
C554 C 0.75233 0.88708 0.95215 0.0
C555 C 0.73259 0.90928 0.90005 0.0
H556 H 0.73708 0.89039 0.78402 0.0
C557 C 0.7064 0.91699 0.72499 0.0
C558 C 0.71618 0.92006 0.68568 0.0
C559 C 0.71074 0.91255 0.76696 0.0
C560 C 0.73603 0.89602 0.816 0.0
H561 H 0.71518 0.86966 0.03391 0.0
H562 H 0.71711 0.88807 0.97262 0.0
H563 H 0.74406 0.88254 0.85752 0.0
H564 H 0.73785 0.92022 0.65932 0.0
H565 H 0.7454 0.91269 0.73224 0.0
H566 H 0.72419 0.9225 0.85834 0.0
C567 C 0.72702 0.88541 0.97713 0.0
C568 C 0.74015 0.8916 0.85818 0.0
C569 C 0.72588 0.87481 0.01218 0.0
C570 C 0.73002 0.91799 0.68886 0.0
C571 C 0.73435 0.91362 0.73072 0.0
C572 C 0.72853 0.91377 0.85776 0.0
C573 C 0.73974 0.89087 0.94507 0.0
C574 C 0.73818 0.89794 0.90071 0.0
C575 C 0.72491 0.91108 0.77046 0.0
C576 C 0.72992 0.90695 0.81532 0.0
H577 H 0.76036 0.8727 0.98991 0.0
H578 H 0.76241 0.89134 0.9283 0.0
H579 H 0.73102 0.91441 0.9323 0.0
H580 H 0.69567 0.91846 0.72378 0.0
H581 H 0.70302 0.91035 0.79675 0.0
C582 C 0.25568 0.91404 0.99493 0.0
C583 C 0.26495 0.9306 0.98261 0.0
C584 C 0.2432 0.9026 0.96516 0.0
C585 C 0.21676 0.89825 0.86285 0.0
H586 H 0.21808 0.85823 0.83855 0.0
C587 C 0.18761 0.85831 0.69803 0.0
C588 C 0.17915 0.84114 0.70192 0.0
C589 C 0.1965 0.86846 0.73598 0.0
C590 C 0.21735 0.8692 0.8455 0.0
H591 H 0.26785 0.94823 0.93025 0.0
H592 H 0.24615 0.92818 0.87802 0.0
H593 H 0.23605 0.87759 0.89918 0.0
H594 H 0.17351 0.8212 0.74889 0.0
H595 H 0.18914 0.83905 0.81536 0.0
H596 H 0.1983 0.89 0.80842 0.0
C597 C 0.24848 0.9241 0.91093 0.0
C598 C 0.22764 0.88029 0.88023 0.0
C599 C 0.26099 0.93558 0.94074 0.0
C600 C 0.17993 0.83436 0.74463 0.0
C601 C 0.18888 0.84457 0.78269 0.0
C602 C 0.20647 0.88715 0.82814 0.0
C603 C 0.23969 0.90745 0.92245 0.0
C604 C 0.22766 0.89506 0.88868 0.0
C605 C 0.19717 0.86172 0.77875 0.0
C606 C 0.2069 0.87268 0.81852 0.0
H607 H 0.25824 0.9098 0.02723 0.0
H608 H 0.23643 0.8899 0.9753 0.0
H609 H 0.21632 0.9094 0.86915 0.0
H610 H 0.18736 0.86399 0.66566 0.0
H611 H 0.20304 0.88162 0.73161 0.0
C612 C 0.41827 0.26941 0.75869 0.0
C613 C 0.41175 0.26612 0.80358 0.0
C614 C 0.41374 0.25663 0.72607 0.0
C615 C 0.39359 0.21179 0.7082 0.0
H616 H 0.37686 0.22038 0.59374 0.0
C617 C 0.3599 0.16104 0.56818 0.0
C618 C 0.36556 0.16567 0.52276 0.0
C619 C 0.36383 0.17297 0.60329 0.0
C620 C 0.38157 0.21781 0.62532 0.0
H621 H 0.39696 0.24671 0.85112 0.0
H622 H 0.38918 0.22445 0.79414 0.0
H623 H 0.38997 0.2419 0.6538 0.0
H624 H 0.37836 0.18646 0.47761 0.0
H625 H 0.38533 0.20711 0.5386 0.0
H626 H 0.38545 0.18777 0.67942 0.0
C627 C 0.3976 0.23691 0.78405 0.0
C628 C 0.38916 0.23016 0.65959 0.0
C629 C 0.40204 0.24969 0.81664 0.0
C630 C 0.37392 0.18243 0.51231 0.0
C631 C 0.37788 0.19432 0.54735 0.0
C632 C 0.38611 0.19944 0.67371 0.0
C633 C 0.40276 0.24035 0.73789 0.0
C634 C 0.39533 0.22731 0.7012 0.0
C635 C 0.37345 0.18973 0.59359 0.0
C636 C 0.38009 0.20235 0.63176 0.0
H637 H 0.4259 0.2819 0.74755 0.0
H638 H 0.41818 0.25954 0.6909 0.0
H639 H 0.39824 0.20929 0.74001 0.0
H640 H 0.35334 0.14823 0.57739 0.0
H641 H 0.35989 0.16906 0.63841 0.0
C642 C 0.86809 0.17918 0.8008 0.0
C643 C 0.85423 0.17991 0.8152 0.0
C644 C 0.87732 0.1885 0.76394 0.0
C645 C 0.87333 0.20741 0.65786 0.0
H646 H 0.9208 0.22703 0.65717 0.0
C647 C 0.91378 0.24941 0.51333 0.0
C648 C 0.92773 0.24855 0.50055 0.0
C649 C 0.90403 0.24002 0.54942 0.0
C650 C 0.90752 0.22138 0.65658 0.0
H651 H 0.83953 0.19149 0.80371 0.0
H652 H 0.85587 0.20803 0.73876 0.0
H653 H 0.90612 0.21473 0.72805 0.0
H654 H 0.94189 0.2365 0.51356 0.0
H655 H 0.92467 0.21985 0.57688 0.0
H656 H 0.87477 0.21411 0.58633 0.0
C657 C 0.85943 0.20005 0.75596 0.0
C658 C 0.89913 0.21445 0.69727 0.0
C659 C 0.85019 0.19074 0.79332 0.0
C660 C 0.9312 0.23738 0.52271 0.0
C661 C 0.92145 0.228 0.55919 0.0
C662 C 0.88175 0.21437 0.61713 0.0
C663 C 0.87292 0.19878 0.74041 0.0
C664 C 0.88193 0.20731 0.69832 0.0
C665 C 0.90803 0.22958 0.5737 0.0
C666 C 0.89893 0.22138 0.61602 0.0
H667 H 0.87156 0.17099 0.81714 0.0
H668 H 0.88751 0.18709 0.75262 0.0
H669 H 0.86005 0.20174 0.65732 0.0
H670 H 0.91076 0.25788 0.49668 0.0
H671 H 0.89385 0.2416 0.55986 0.0
C672 C 0.9301 0.70271 0.74319 0.0
C673 C 0.93102 0.70802 0.78978 0.0
C674 C 0.9215 0.70625 0.70929 0.0
C675 C 0.90612 0.73489 0.68614 0.0
H676 H 0.87819 0.70215 0.59269 0.0
C677 C 0.85862 0.74093 0.56938 0.0
C678 C 0.85649 0.73512 0.52291 0.0
C679 C 0.86896 0.73872 0.60042 0.0
C680 C 0.88612 0.71151 0.61816 0.0
H681 H 0.92314 0.72078 0.83741 0.0
H682 H 0.90804 0.72667 0.77863 0.0
H683 H 0.89344 0.69558 0.64972 0.0
H684 H 0.86433 0.72325 0.47205 0.0
H685 H 0.88241 0.71959 0.52599 0.0
H686 H 0.89865 0.75076 0.65484 0.0
C687 C 0.91425 0.7201 0.76804 0.0
C688 C 0.89485 0.70773 0.65084 0.0
C689 C 0.92283 0.7166 0.80183 0.0
C690 C 0.8655 0.72772 0.50773 0.0
C691 C 0.87582 0.72553 0.53869 0.0
C692 C 0.89738 0.73866 0.65348 0.0
C693 C 0.91364 0.71515 0.7213 0.0
C694 C 0.90485 0.71934 0.68542 0.0
C695 C 0.8774 0.73068 0.58559 0.0
C696 C 0.88721 0.72698 0.6193 0.0
H697 H 0.93631 0.69614 0.73266 0.0
H698 H 0.92133 0.70235 0.67347 0.0
H699 H 0.91396 0.74421 0.71185 0.0
H700 H 0.85186 0.74666 0.58226 0.0
H701 H 0.86986 0.74274 0.63645 0.0
C702 C 0.86743 0.73455 0.29971 0.0
C703 C 0.85356 0.72008 0.31375 0.0
C704 C 0.87649 0.73429 0.26207 0.0
C705 C 0.88417 0.70698 0.18584 0.0
H706 H 0.89804 0.74264 0.09934 0.0
C707 C 0.91114 0.70498 0.01035 0.0
C708 C 0.92593 0.71905 -0.00082 0.0
C709 C 0.90168 0.70549 0.04651 0.0
C710 C 0.89435 0.73268 0.12336 0.0
H711 H 0.83862 0.69387 0.30063 0.0
H712 H 0.85439 0.69339 0.23411 0.0
H713 H 0.88317 0.7423 0.16868 0.0
H714 H 0.94194 0.74495 0.01517 0.0
H715 H 0.92531 0.74588 0.07881 0.0
H716 H 0.89527 0.69732 0.14033 0.0
C717 C 0.85835 0.70493 0.2526 0.0
C718 C 0.88588 0.73249 0.16315 0.0
C719 C 0.84931 0.70518 0.29065 0.0
C720 C 0.93058 0.73393 0.02301 0.0
C721 C 0.92107 0.73445 0.05941 0.0
C722 C 0.89257 0.70714 0.14597 0.0
C723 C 0.87183 0.71956 0.23731 0.0
C724 C 0.88074 0.71966 0.19493 0.0
C725 C 0.9068 0.72009 0.07238 0.0
C726 C 0.89774 0.71999 0.11432 0.0
H727 H 0.8711 0.7462 0.3172 0.0
H728 H 0.88705 0.74569 0.252 0.0
H729 H 0.8806 0.69706 0.20991 0.0
H730 H 0.90713 0.69336 0.99221 0.0
H731 H 0.89054 0.69434 0.05499 0.0
C732 C 0.39877 0.19554 0.30968 0.0
C733 C 0.38421 0.18078 0.31755 0.0
C734 C 0.39939 0.2056 0.2733 0.0
C735 C 0.37293 0.21332 0.19168 0.0
H736 H 0.41128 0.23137 0.11442 0.0
C737 C 0.37584 0.24403 0.01491 0.0
C738 C 0.39064 0.25857 0.00714 0.0
C739 C 0.37465 0.23428 0.05287 0.0
C740 C 0.40053 0.22652 0.13586 0.0
H741 H 0.35878 0.1652 0.29423 0.0
H742 H 0.35995 0.1825 0.23091 0.0
H743 H 0.41034 0.21588 0.18274 0.0
H744 H 0.41572 0.27435 0.03323 0.0
H745 H 0.41354 0.25761 0.09895 0.0
H746 H 0.36311 0.22395 0.14452 0.0
C747 C 0.37083 0.1865 0.25299 0.0
C748 C 0.40003 0.21771 0.17516 0.0
C749 C 0.3702 0.17652 0.28923 0.0
C750 C 0.40415 0.26315 0.03788 0.0
C751 C 0.40295 0.2535 0.07555 0.0
C752 C 0.37342 0.22213 0.1523 0.0
C753 C 0.38546 0.20106 0.2442 0.0
C754 C 0.38624 0.21102 0.20357 0.0
C755 C 0.38824 0.23893 0.08351 0.0
C756 C 0.38726 0.22888 0.12406 0.0
H757 H 0.40974 0.19915 0.33102 0.0
H758 H 0.4108 0.21687 0.26777 0.0
H759 H 0.36218 0.20846 0.21312 0.0
H760 H 0.36524 0.24021 0.99181 0.0
H761 H 0.36316 0.22304 0.05799 0.0
C762 C 0.92054 0.25051 0.30685 0.0
C763 C 0.93054 0.26714 0.29635 0.0
C764 C 0.91112 0.23901 0.272 0.0
C765 C 0.9103 0.23216 0.14585 0.0
H766 H 0.86734 0.19487 0.16914 0.0
C767 C 0.86846 0.18371 0.00537 0.0
C768 C 0.85967 0.16726 0.01902 0.0
C769 C 0.878 0.19621 0.0379 0.0
C770 C 0.87942 0.20513 0.16237 0.0
H771 H 0.9378 0.28488 0.24134 0.0
H772 H 0.92108 0.2647 0.1803 0.0
H773 H 0.88076 0.2168 0.22806 0.0
H774 H 0.85484 0.15096 0.07688 0.0
H775 H 0.87159 0.17285 0.13363 0.0
H776 H 0.90885 0.22044 0.07994 0.0
C777 C 0.92081 0.26059 0.21553 0.0
C778 C 0.88706 0.21771 0.19599 0.0
C779 C 0.93026 0.27215 0.25055 0.0
C780 C 0.86141 0.1635 0.06525 0.0
C781 C 0.87087 0.17603 0.09784 0.0
C782 C 0.9026 0.21959 0.11207 0.0
C783 C 0.91141 0.24386 0.22578 0.0
C784 C 0.90267 0.23127 0.18834 0.0
C785 C 0.87886 0.19252 0.08472 0.0
C786 C 0.88717 0.20587 0.12029 0.0
H787 H 0.92036 0.24622 0.34183 0.0
H788 H 0.90413 0.2262 0.28101 0.0
H789 H 0.92243 0.24234 0.13923 0.0
H790 H 0.86748 0.18702 0.96991 0.0
H791 H 0.88402 0.20882 0.02684 0.0
C792 C 0.0798 0.6729 0.32579 0.0
C793 C 0.08946 0.66898 0.29738 0.0
C794 C 0.08599 0.6888 0.34351 0.0
C795 C 0.12462 0.72482 0.37812 0.0
H796 H 0.0975 0.74505 0.38985 0.0
C797 C 0.13993 0.77738 0.51023 0.0
C798 C 0.13842 0.79059 0.49399 0.0
C799 C 0.1341 0.76308 0.48285 0.0
C800 C 0.10527 0.73963 0.38648 0.0
H801 H 0.11288 0.67865 0.26363 0.0
H802 H 0.12384 0.70667 0.29511 0.0
H803 H 0.08734 0.7197 0.3436 0.0
H804 H 0.12933 0.79912 0.4371 0.0
H805 H 0.11913 0.77414 0.3894 0.0
H806 H 0.14251 0.74469 0.4213 0.0
C807 C 0.1115 0.69734 0.30371 0.0
C808 C 0.09943 0.7251 0.36026 0.0
C809 C 0.10523 0.68138 0.2856 0.0
C810 C 0.13064 0.78912 0.45051 0.0
C811 C 0.12477 0.77481 0.42324 0.0
C812 C 0.13044 0.73933 0.4045 0.0
C813 C 0.10199 0.7011 0.33335 0.0
C814 C 0.10895 0.71744 0.35641 0.0
C815 C 0.1266 0.76173 0.43891 0.0
C816 C 0.12072 0.74673 0.40944 0.0
H817 H 0.06756 0.66359 0.33526 0.0
H818 H 0.07846 0.6913 0.36669 0.0
H819 H 0.13214 0.71908 0.37609 0.0
H820 H 0.14587 0.7782 0.54367 0.0
H821 H 0.13543 0.75305 0.49607 0.0
C822 C 0.44312 0.47161 0.31341 0.0
C823 C 0.45777 0.47578 0.33793 0.0
C824 C 0.42934 0.46942 0.33746 0.0
C825 C 0.41263 0.45824 0.45575 0.0
H826 H 0.37622 0.46095 0.39977 0.0
C827 C 0.34929 0.43238 0.54275 0.0
C828 C 0.3363 0.4211 0.51334 0.0
C829 C 0.36487 0.44258 0.52467 0.0
C830 C 0.38636 0.46025 0.41595 0.0
H831 H 0.47013 0.48212 0.40563 0.0
H832 H 0.44646 0.4793 0.44746 0.0
H833 H 0.40275 0.47382 0.36183 0.0
H834 H 0.3292 0.412 0.44195 0.0
H835 H 0.35619 0.42993 0.41048 0.0
H836 H 0.39611 0.44452 0.50956 0.0
C837 C 0.44526 0.4771 0.41006 0.0
C838 C 0.40153 0.46753 0.39412 0.0
C839 C 0.45889 0.47894 0.38613 0.0
C840 C 0.33901 0.42051 0.46552 0.0
C841 C 0.35442 0.43088 0.44738 0.0
C842 C 0.39755 0.4512 0.47786 0.0
C843 C 0.43007 0.47155 0.38641 0.0
C844 C 0.41474 0.46619 0.41298 0.0
C845 C 0.36754 0.4419 0.47678 0.0
C846 C 0.38414 0.45171 0.45746 0.0
H847 H 0.44197 0.46885 0.27627 0.0
H848 H 0.41787 0.46498 0.31795 0.0
H849 H 0.42234 0.45664 0.47111 0.0
H850 H 0.34751 0.43306 0.57975 0.0
H851 H 0.37482 0.45096 0.54804 0.0
C852 C 0.71187 0.96586 0.43586 0.0
C853 C 0.7044 0.95584 0.47404 0.0
C854 C 0.70414 0.97309 0.41206 0.0
C855 C 0.67441 0.98685 0.4302 0.0
H856 H 0.67629 0.99174 0.29594 0.0
C857 C 0.64647 0.01246 0.28009 0.0
C858 C 0.64967 0.02716 0.30265 0.0
C859 C 0.65313 0.00321 0.29812 0.0
C860 C 0.67557 0.99037 0.33341 0.0
H861 H 0.68275 0.94511 0.51646 0.0
H862 H 0.66914 0.95777 0.4747 0.0
H863 H 0.6868 0.97535 0.33262 0.0
H864 H 0.66299 0.04414 0.36024 0.0
H865 H 0.67469 0.02812 0.3913 0.0
H866 H 0.66319 0.00182 0.43112 0.0
C867 C 0.68108 0.96013 0.46349 0.0
C868 C 0.68169 0.9811 0.35443 0.0
C869 C 0.68881 0.95283 0.48724 0.0
C870 C 0.66018 0.03279 0.3423 0.0
C871 C 0.66679 0.02356 0.36031 0.0
C872 C 0.66838 -0.00384 0.40924 0.0
C873 C 0.68876 0.9705 0.42601 0.0
C874 C 0.68128 0.97935 0.40311 0.0
C875 C 0.66305 0.0085 0.33904 0.0
C876 C 0.66905 -0.00184 0.3607 0.0
H877 H 0.72389 0.9684 0.42482 0.0
H878 H 0.71046 0.98117 0.38372 0.0
H879 H 0.67409 0.9859 0.4678 0.0
H880 H 0.63843 0.00785 0.24941 0.0
H881 H 0.65002 0.99164 0.28103 0.0
C882 C 0.68651 0.08596 0.20185 0.0
C883 C 0.6707 0.08014 0.18267 0.0
C884 C 0.70019 0.0983 0.17981 0.0
C885 C 0.71275 0.11201 0.06179 0.0
H886 H 0.75367 0.14301 0.12542 0.0
C887 C 0.77461 0.13933 0.96846 0.0
C888 C 0.78566 0.13611 0.99342 0.0
C889 C 0.76082 0.13816 0.99045 0.0
C890 C 0.74229 0.13454 0.10703 0.0
H891 H 0.65644 0.08277 0.12693 0.0
H892 H 0.68037 0.10447 0.08827 0.0
H893 H 0.72815 0.13034 0.16839 0.0
H894 H 0.79176 0.13047 0.06132 0.0
H895 H 0.76806 0.12861 0.09944 0.0
H896 H 0.72703 0.11545 0.00119 0.0
C897 C 0.68227 0.0996 0.12029 0.0
C898 C 0.7277 0.12726 0.13166 0.0
C899 C 0.66859 0.08731 0.14252 0.0
C900 C 0.78334 0.13285 0.04115 0.0
C901 C 0.76982 0.13196 0.06314 0.0
C902 C 0.72736 0.11929 0.03717 0.0
C903 C 0.69826 0.10486 0.13786 0.0
C904 C 0.71289 0.11536 0.10983 0.0
C905 C 0.75813 0.13413 0.03785 0.0
C906 C 0.7424 0.13004 0.0601 0.0
H907 H 0.68835 0.08035 0.23238 0.0
H908 H 0.71233 0.10187 0.19394 0.0
H909 H 0.70159 0.10282 0.04393 0.0
H910 H 0.77616 0.14187 0.9316 0.0
H911 H 0.75201 0.13992 0.97013 0.0
C912 C 0.97135 0.68822 0.0287 0.0
C913 C 0.97157 0.68925 0.97999 0.0
C914 C 0.97733 0.67913 0.05111 0.0
C915 C 0.99224 0.64937 0.0301 0.0
H916 H 0.01542 0.66803 0.14811 0.0
C917 C 0.04555 0.64279 0.10861 0.0
C918 C 0.04531 0.63965 0.1564 0.0
C919 C 0.03311 0.64473 0.08786 0.0
C920 C 0.00872 0.6625 0.11563 0.0
H921 H 0.97792 0.68149 0.91611 0.0
H922 H 0.98946 0.66641 0.95529 0.0
H923 H 0.00105 0.68021 0.10966 0.0
H924 H 0.03163 0.63537 0.21971 0.0
H925 H 0.01003 0.63942 0.18354 0.0
H926 H 0.00126 0.63245 0.03507 0.0
C927 C 0.9841 0.67208 0.97635 0.0
C928 C 0.0004 0.66943 0.09347 0.0
C929 C 0.97764 0.68083 0.9538 0.0
C930 C 0.03201 0.63771 0.18274 0.0
C931 C 0.01973 0.64006 0.16217 0.0
C932 C 0.00091 0.64265 0.0519 0.0
C933 C 0.98419 0.67127 0.02545 0.0
C934 C 0.99216 0.66309 0.05013 0.0
C935 C 0.0204 0.64392 0.11478 0.0
C936 C 0.00933 0.64928 0.09462 0.0
H937 H 0.96642 0.69436 0.04961 0.0
H938 H 0.97664 0.6784 0.08871 0.0
H939 H 0.9858 0.64391 -0.0027 0.0
H940 H 0.05566 0.64426 0.08757 0.0
H941 H 0.03397 0.64786 0.0514 0.0
C942 C 0.42991 0.34053 0.95869 0.0
C943 C 0.41279 0.33058 0.95319 0.0
C944 C 0.43654 0.35498 0.98574 0.0
C945 C 0.43164 0.38752 0.03219 0.0
H946 H 0.45109 0.38361 0.14834 0.0
C947 C 0.45464 0.43858 0.17208 0.0
C948 C 0.4697 0.44286 0.19444 0.0
C949 C 0.44615 0.42393 0.14613 0.0
C950 C 0.44592 0.38503 0.1159 0.0
H951 H 0.38921 0.32838 0.9679 0.0
H952 H 0.40093 0.35412 0.01372 0.0
H953 H 0.44062 0.36138 0.08979 0.0
H954 H 0.48738 0.43505 0.20955 0.0
H955 H 0.47304 0.40984 0.16257 0.0
H956 H 0.43751 0.41138 0.05668 0.0
C957 C 0.40911 0.35054 -0.0021 0.0
C958 C 0.43991 0.3723 0.08256 0.0
C959 C 0.40246 0.3359 0.97181 0.0
C960 C 0.47571 0.43191 0.19278 0.0
C961 C 0.46743 0.41743 0.16588 0.0
C962 C 0.43797 0.40043 0.06505 0.0
C963 C 0.42612 0.35981 0.0064 0.0
C964 C 0.4328 0.37351 0.04055 0.0
C965 C 0.45279 0.41352 0.14105 0.0
C966 C 0.44522 0.39937 0.10735 0.0
H967 H 0.43809 0.33658 0.94491 0.0
H968 H 0.44972 0.36207 0.99201 0.0
H969 H 0.42612 0.38857 -0.0001 0.0
H970 H 0.44971 0.44681 0.17342 0.0
H971 H 0.43465 0.42107 0.12883 0.0
C972 C 0.98646 0.32362 0.53367 0.0
C973 C 0.98166 0.3224 0.48653 0.0
C974 C 0.99366 0.33869 0.55759 0.0
C975 C -0.00207 0.37992 0.5504 0.0
H976 H 0.0305 0.39062 0.64991 0.0
C977 C 0.04035 0.44427 0.6316 0.0
C978 C 0.03739 0.44588 0.67869 0.0
C979 C 0.03326 0.42886 0.60982 0.0
C980 C 0.02129 0.38763 0.62246 0.0
H981 H 0.98126 0.33596 0.4266 0.0
H982 H -0.0054 0.36254 0.46771 0.0
H983 H 0.01986 0.36475 0.6057 0.0
H984 H 0.02504 0.43275 0.74037 0.0
H985 H 0.01293 0.40543 0.70208 0.0
H986 H 0.00013 0.4033 0.56605 0.0
C987 C 0.99223 0.35177 0.48682 0.0
C988 C 0.01516 0.37286 0.59718 0.0
C989 C 0.98473 0.33659 0.46311 0.0
C990 C 0.02741 0.43178 0.70397 0.0
C991 C 0.02057 0.41625 0.68229 0.0
C992 C 0.00431 0.39481 0.57509 0.0
C993 C -0.0035 0.35294 0.53461 0.0
C994 C 0.00337 0.36881 0.56084 0.0
C995 C 0.02338 0.4148 0.63502 0.0
C996 C 0.01597 0.39869 0.61125 0.0
H997 H 0.98413 0.31282 0.55265 0.0
H998 H -0.00349 0.33903 0.59446 0.0
H999 H 0.98862 0.3771 0.52343 0.0
H1000 H 0.04795 0.45497 0.61127 0.0
H1001 H 0.03556 0.42789 0.57333 0.0
C1002 C 0.67756 0.63217 0.68782 0.0
C1003 C 0.66705 0.63668 0.6653 0.0
C1004 C 0.69095 0.63298 0.6642 0.0
C1005 C 0.70843 0.6381 0.54507 0.0
H1006 H 0.75047 0.66557 0.60863 0.0
C1007 C 0.76418 0.69066 0.46332 0.0
C1008 C 0.77987 0.69277 0.4719 0.0
C1009 C 0.75046 0.67788 0.48372 0.0
C1010 C 0.73885 0.65753 0.59067 0.0
H1011 H 0.66156 0.6444 0.59972 0.0
H1012 H 0.68456 0.64585 0.55922 0.0
H1013 H 0.72533 0.65309 0.65338 0.0
H1014 H 0.79367 0.68316 0.50748 0.0
H1015 H 0.76953 0.66101 0.54509 0.0
H1016 H 0.72186 0.64389 0.48183 0.0
C1017 C 0.68268 0.64166 0.59477 0.0
C1018 C 0.72444 0.65034 0.6163 0.0
C1019 C 0.66957 0.64106 0.61829 0.0
C1020 C 0.7816 0.68157 0.49996 0.0
C1021 C 0.76788 0.66901 0.52154 0.0
C1022 C 0.72278 0.64547 0.51946 0.0
C1023 C 0.69376 0.63798 0.61753 0.0
C1024 C 0.709 0.64129 0.59338 0.0
C1025 C 0.75223 0.66725 0.51412 0.0
C1026 C 0.73801 0.65587 0.54179 0.0
H1027 H 0.67584 0.6287 0.72402 0.0
H1028 H 0.69928 0.63004 0.68265 0.0
H1029 H 0.69675 0.63086 0.52652 0.0
H1030 H 0.76262 0.69926 0.44209 0.0
H1031 H 0.73856 0.67692 0.47793 0.0
C1032 C 0.42464 0.14013 0.47456 0.0
C1033 C 0.41207 0.13987 0.50094 0.0
C1034 C 0.43665 0.1376 0.4962 0.0
C1035 C 0.45557 0.13559 0.60741 0.0
H1036 H 0.45014 0.09475 0.55648 0.0
C1037 C 0.47601 0.0958 0.71023 0.0
C1038 C 0.48052 0.08589 0.68475 0.0
C1039 C 0.46994 0.10478 0.68702 0.0
C1040 C 0.45226 0.10638 0.57074 0.0
H1041 H 0.40285 0.13827 0.5705 0.0
H1042 H 0.42415 0.13444 0.60851 0.0
H1043 H 0.43758 0.10834 0.51618 0.0
H1044 H 0.48319 0.07828 0.61536 0.0
H1045 H 0.47366 0.09454 0.57499 0.0
H1046 H 0.4704 0.13375 0.66187 0.0
C1047 C 0.42468 0.13642 0.5713 0.0
C1048 C 0.44498 0.11415 0.5475 0.0
C1049 C 0.41249 0.13855 0.54958 0.0
C1050 C 0.47944 0.08555 0.63589 0.0
C1051 C 0.47387 0.09484 0.61274 0.0
C1052 C 0.46322 0.128 0.63026 0.0
C1053 C 0.4364 0.13518 0.54454 0.0
C1054 C 0.44635 0.12867 0.56593 0.0
C1055 C 0.46869 0.10434 0.63785 0.0
C1056 C 0.46145 0.11313 0.61259 0.0
H1057 H 0.42442 0.14096 0.43693 0.0
H1058 H 0.44559 0.13666 0.47492 0.0
H1059 H 0.45669 0.14675 0.62239 0.0
H1060 H 0.47679 0.09626 0.748 0.0
H1061 H 0.46589 0.11174 0.70774 0.0
C1062 C 0.34137 0.95029 0.9757 0.0
C1063 C 0.34303 0.95856 0.01829 0.0
C1064 C 0.35532 0.95361 0.95053 0.0
C1065 C 0.40144 0.97723 0.9557 0.0
H1066 H 0.39653 0.98917 0.82995 0.0
C1067 C 0.45005 0.03435 0.8694 0.0
C1068 C 0.4543 0.0337 0.82299 0.0
C1069 C 0.43727 0.02062 0.88951 0.0
C1070 C 0.39807 0.98554 0.86451 0.0
H1071 H 0.36028 0.97603 0.06936 0.0
H1072 H 0.3846 0.98177 0.02619 0.0
H1073 H 0.37213 0.97198 0.87449 0.0
H1074 H 0.44854 0.01805 0.76127 0.0
H1075 H 0.4254 -0.00607 0.79632 0.0
H1076 H 0.42743 0.99196 0.94679 0.0
C1077 C 0.3727 0.97251 0.01214 0.0
C1078 C 0.38409 0.97565 0.89013 0.0
C1079 C 0.35877 0.96923 0.03708 0.0
C1080 C 0.44549 0.01888 0.79708 0.0
C1081 C 0.43232 0.00513 0.81706 0.0
C1082 C 0.41539 0.98723 0.93026 0.0
C1083 C 0.37113 0.96532 0.96755 0.0
C1084 C 0.38562 0.97202 0.93684 0.0
C1085 C 0.42819 0.00591 0.8636 0.0
C1086 C 0.41382 0.99206 0.88521 0.0
H1087 H 0.32928 0.94227 0.96019 0.0
H1088 H 0.35368 0.94774 0.91656 0.0
H1089 H 0.40307 0.97438 0.99116 0.0
H1090 H 0.45672 0.04551 0.89052 0.0
H1091 H 0.43421 0.02165 0.9252 0.0
C1092 C 0.0892 0.47073 0.8616 0.0
C1093 C 0.08633 0.47089 0.81353 0.0
C1094 C 0.10119 0.46729 0.87803 0.0
C1095 C 0.11612 0.44055 0.84747 0.0
H1096 H 0.1469 0.46106 0.95191 0.0
C1097 C 0.14647 0.40732 0.93424 0.0
C1098 C 0.14878 0.40896 0.98287 0.0
C1099 C 0.14227 0.41749 0.90983 0.0
C1100 C 0.13824 0.45508 0.92304 0.0
H1101 H 0.09399 0.46833 0.7447 0.0
H1102 H 0.11477 0.4617 0.77354 0.0
H1103 H 0.13425 0.47551 0.91519 0.0
H1104 H 0.14866 0.4225 0.04432 0.0
H1105 H 0.14031 0.43964 0.00229 0.0
H1106 H 0.11887 0.41964 0.85703 0.0
C1107 C 0.10796 0.46459 0.79839 0.0
C1108 C 0.13118 0.46346 0.90171 0.0
C1109 C 0.09619 0.46844 0.78194 0.0
C1110 C 0.14696 0.42104 0.00676 0.0
C1111 C 0.14234 0.43097 0.98247 0.0
C1112 C 0.12289 0.43204 0.86929 0.0
C1113 C 0.11021 0.46354 0.84658 0.0
C1114 C 0.11987 0.45615 0.8642 0.0
C1115 C 0.13983 0.42926 0.93363 0.0
C1116 C 0.13384 0.43904 0.90793 0.0
H1117 H 0.08161 0.47251 0.88645 0.0
H1118 H 0.10255 0.46637 0.91528 0.0
H1119 H 0.10718 0.43452 0.81917 0.0
H1120 H 0.14808 0.39827 0.9149 0.0
H1121 H 0.14091 0.41605 0.87224 0.0
C1122 C 0.66157 0.67264 0.84299 0.0
C1123 C 0.64972 0.66754 0.80663 0.0
C1124 C 0.66825 0.68835 0.86298 0.0
C1125 C 0.67325 0.72943 0.84586 0.0
H1126 H 0.67703 0.73212 0.98101 0.0
C1127 C 0.6874 0.77849 0.00876 0.0
C1128 C 0.70127 0.7922 0.99142 0.0
C1129 C 0.68029 0.76343 0.98442 0.0
C1130 C 0.67586 0.73154 0.9433 0.0
H1131 H 0.63611 0.67502 0.76108 0.0
H1132 H 0.64763 0.70242 0.79639 0.0
H1133 H 0.66694 0.70573 0.94085 0.0
H1134 H 0.71837 0.80107 0.93463 0.0
H1135 H 0.70615 0.77485 0.89271 0.0
H1136 H 0.68188 0.75521 0.84844 0.0
C1137 C 0.65186 0.69435 0.80926 0.0
C1138 C 0.67033 0.71647 0.92025 0.0
C1139 C 0.64522 0.67865 0.78913 0.0
C1140 C 0.70766 0.79071 0.94887 0.0
C1141 C 0.7006 0.7757 0.92464 0.0
C1142 C 0.67875 0.7445 0.86894 0.0
C1143 C 0.66316 0.69922 0.84709 0.0
C1144 C 0.66908 0.71527 0.87128 0.0
C1145 C 0.68695 0.76186 0.94236 0.0
C1146 C 0.68021 0.74573 0.9179 0.0
H1147 H 0.66538 0.66436 0.85688 0.0
H1148 H 0.67722 0.69188 0.8914 0.0
H1149 H 0.67249 0.7289 0.80809 0.0
H1150 H 0.6822 0.77933 0.04143 0.0
H1151 H 0.66964 0.753 -0.00138 0.0
C1152 C 0.75479 -0.00285 0.62559 0.0
C1153 C 0.73758 0.98824 0.62938 0.0
C1154 C 0.76424 0.01138 0.65291 0.0
C1155 C 0.76356 0.03116 0.76276 0.0
H1156 H 0.79412 0.07213 0.70593 0.0
C1157 C 0.80432 0.09324 0.86442 0.0
C1158 C 0.80289 0.10625 0.84602 0.0
C1159 C 0.79736 0.07813 0.84021 0.0
C1160 C 0.78571 0.06072 0.72222 0.0
H1161 H 0.71683 0.98749 0.66425 0.0
H1162 H 0.73333 0.01218 0.7117 0.0
H1163 H 0.78026 0.0469 0.65794 0.0
H1164 H 0.79265 0.11356 0.78889 0.0
H1165 H 0.78072 0.08735 0.7468 0.0
H1166 H 0.76876 0.04508 0.82686 0.0
C1167 C 0.73948 0.00809 0.68789 0.0
C1168 C 0.77789 0.04633 0.6949 0.0
C1169 C 0.73003 -0.00596 0.66027 0.0
C1170 C 0.79403 0.10379 0.80389 0.0
C1171 C 0.7873 0.08885 0.77956 0.0
C1172 C 0.77155 0.04552 0.79022 0.0
C1173 C 0.75665 0.01676 0.68486 0.0
C1174 C 0.76643 0.03153 0.71472 0.0
C1175 C 0.78912 0.07599 0.79709 0.0
C1176 C 0.78234 0.06047 0.76985 0.0
H1177 H 0.76097 0.993 0.60215 0.0
H1178 H 0.77749 0.01796 0.64991 0.0
H1179 H 0.75486 0.01981 0.77881 0.0
H1180 H 0.81108 0.09483 0.89688 0.0
H1181 H 0.7988 0.0683 0.85442 0.0
C1182 C 0.09223 0.79696 0.60082 0.0
C1183 C 0.10738 0.80994 0.61727 0.0
C1184 C 0.07807 0.79209 0.62635 0.0
C1185 C 0.06084 0.79993 0.73413 0.0
H1186 H 0.04201 0.75289 0.74463 0.0
C1187 C 0.00357 0.75586 0.8429 0.0
C1188 C 0.00401 0.74241 0.86216 0.0
C1189 C 0.01673 0.76725 0.81674 0.0
C1190 C 0.0472 0.76604 0.74248 0.0
H1191 H 0.1195 0.82898 0.67064 0.0
H1192 H 0.09482 0.82023 0.71618 0.0
H1193 H 0.06216 0.7672 0.68615 0.0
H1194 H 0.01916 0.73135 0.87405 0.0
H1195 H 0.04225 0.75143 0.83 0.0
H1196 H 0.04589 0.79851 0.79194 0.0
C1197 C 0.09372 0.81401 0.68313 0.0
C1198 C 0.05855 0.77425 0.7082 0.0
C1199 C 0.10786 0.81908 0.65697 0.0
C1200 C 0.01844 0.74151 0.85911 0.0
C1201 C 0.0316 0.75293 0.83359 0.0
C1202 C 0.0493 0.79162 0.76861 0.0
C1203 C 0.07892 0.7998 0.66957 0.0
C1204 C 0.06562 0.79129 0.70359 0.0
C1205 C 0.0305 0.76535 0.80988 0.0
C1206 C 0.04258 0.77461 0.77354 0.0
H1207 H 0.09162 0.7897 0.57039 0.0
H1208 H 0.06675 0.78138 0.61427 0.0
H1209 H 0.06609 0.81307 0.73151 0.0
H1210 H 0.99253 0.75677 0.84454 0.0
H1211 H 0.01556 0.77672 0.79898 0.0
C1212 C 0.31591 0.35452 0.5996 0.0
C1213 C 0.31811 0.36685 0.632 0.0
C1214 C 0.31808 0.34149 0.61372 0.0
C1215 C 0.31776 0.31798 0.71419 0.0
H1216 H 0.35666 0.31927 0.66588 0.0
C1217 C 0.358 0.30073 0.82378 0.0
C1218 C 0.36911 0.2972 0.80174 0.0
C1219 C 0.34711 0.30359 0.7971 0.0
C1220 C 0.34544 0.31821 0.67906 0.0
H1221 H 0.32341 0.37484 0.70465 0.0
H1222 H 0.32671 0.35194 0.72932 0.0
H1223 H 0.34558 0.33476 0.62818 0.0
H1224 H 0.37669 0.29228 0.73553 0.0
H1225 H 0.35696 0.29613 0.68892 0.0
H1226 H 0.31765 0.30168 0.76557 0.0
C1227 C 0.32355 0.35243 0.69309 0.0
C1228 C 0.33915 0.32719 0.65733 0.0
C1229 C 0.32186 0.36561 0.67884 0.0
C1230 C 0.36821 0.29507 0.7531 0.0
C1231 C 0.35704 0.29749 0.72648 0.0
C1232 C 0.32382 0.30871 0.7354 0.0
C1233 C 0.32189 0.34038 0.66065 0.0
C1234 C 0.32571 0.3277 0.67595 0.0
C1235 C 0.34697 0.30268 0.74791 0.0
C1236 C 0.33823 0.30931 0.71949 0.0
H1237 H 0.31297 0.35521 0.56331 0.0
H1238 H 0.31688 0.33236 0.58811 0.0
H1239 H 0.30729 0.31816 0.72895 0.0
H1240 H 0.35867 0.30261 0.8613 0.0
H1241 H 0.33973 0.30771 0.81515 0.0
C1242 C 0.00347 0.2902 0.30997 0.0
C1243 C 0.00484 0.2974 0.35417 0.0
C1244 C 0.01753 0.29465 0.28408 0.0
C1245 C 0.05743 0.33181 0.27392 0.0
H1246 H 0.06369 0.30755 0.1736 0.0
C1247 C 0.09956 0.36625 0.12667 0.0
C1248 C 0.11148 0.362 0.11529 0.0
C1249 C 0.08613 0.35585 0.15313 0.0
C1250 C 0.06214 0.31444 0.20168 0.0
H1251 H 0.02174 0.31366 0.40798 0.0
H1252 H 0.04641 0.32082 0.36404 0.0
H1253 H 0.0424 0.2928 0.2309 0.0
H1254 H 0.11796 0.3429 0.11959 0.0
H1255 H 0.09444 0.32472 0.16637 0.0
H1256 H 0.07701 0.35338 0.24516 0.0
C1257 C 0.03453 0.31208 0.34862 0.0
C1258 C 0.04993 0.30602 0.23437 0.0
C1259 C 0.02046 0.30781 0.37414 0.0
C1260 C 0.10897 0.34651 0.12776 0.0
C1261 C 0.09551 0.3361 0.15463 0.0
C1262 C 0.06952 0.34015 0.24144 0.0
C1263 C 0.03316 0.30638 0.30216 0.0
C1264 C 0.04732 0.31466 0.2706 0.0
C1265 C 0.08436 0.34101 0.16922 0.0
C1266 C 0.07182 0.33165 0.2044 0.0
H1267 H 0.99147 0.28239 0.29363 0.0
H1268 H 0.01596 0.29006 0.24843 0.0
H1269 H 0.05564 0.33897 0.30066 0.0
H1270 H 0.10101 0.37798 0.11701 0.0
H1271 H 0.07747 0.35976 0.16268 0.0
C1272 C 0.80826 0.75963 0.35733 0.0
C1273 C 0.8027 0.7429 0.34874 0.0
C1274 C 0.80155 0.76758 0.33174 0.0
C1275 C 0.76564 0.75961 0.25764 0.0
H1276 H 0.79571 0.79998 0.19696 0.0
C1277 C 0.74205 0.78202 0.1096 0.0
C1278 C 0.7456 0.79836 0.11384 0.0
C1279 C 0.75097 0.77663 0.13589 0.0
C1280 C 0.78719 0.78878 0.21395 0.0
H1281 H 0.7853 0.72119 0.30871 0.0
H1282 H 0.77355 0.73491 0.26471 0.0
H1283 H 0.80643 0.78803 0.25332 0.0
H1284 H 0.76221 0.82224 0.14545 0.0
H1285 H 0.77782 0.81275 0.19182 0.0
H1286 H 0.74643 0.76017 0.21838 0.0
C1287 C 0.78306 0.74196 0.29091 0.0
C1288 C 0.79329 0.782 0.24637 0.0
C1289 C 0.78984 0.7341 0.31599 0.0
C1290 C 0.75929 0.80959 0.14132 0.0
C1291 C 0.76816 0.80414 0.16805 0.0
C1292 C 0.75958 0.76633 0.22537 0.0
C1293 C 0.78904 0.75884 0.2978 0.0
C1294 C 0.78258 0.76717 0.26784 0.0
C1295 C 0.76351 0.78742 0.16732 0.0
C1296 C 0.77029 0.7808 0.20243 0.0
H1297 H 0.81823 0.7667 0.38228 0.0
H1298 H 0.80628 0.78058 0.33801 0.0
H1299 H 0.75706 0.74834 0.27427 0.0
H1300 H 0.73166 0.77315 0.0883 0.0
H1301 H 0.74743 0.76377 0.13359 0.0
C1302 C 0.33445 0.99095 0.193 0.0
C1303 C 0.32502 0.98849 0.15201 0.0
C1304 C 0.34147 0.00591 0.21753 0.0
C1305 C 0.35334 0.04929 0.20845 0.0
H1306 H 0.34592 0.04686 0.34162 0.0
C1307 C 0.35536 0.09475 0.36451 0.0
C1308 C 0.37046 0.10865 0.35475 0.0
C1309 C 0.35084 0.07965 0.34255 0.0
C1310 C 0.34804 0.04769 0.30449 0.0
H1311 H 0.31625 -5e-05 0.10305 0.0
H1312 H 0.32861 0.02621 0.14595 0.0
H1313 H 0.33651 0.02163 0.29507 0.0
H1314 H 0.39314 0.11753 0.31725 0.0
H1315 H 0.38531 0.09126 0.27952 0.0
H1316 H 0.36455 0.07529 0.21756 0.0
C1317 C 0.33054 0.01654 0.15908 0.0
C1318 C 0.34282 0.0333 0.27796 0.0
C1319 C 0.32346 0.00153 0.13459 0.0
C1320 C 0.38131 0.10706 0.32487 0.0
C1321 C 0.37682 0.09205 0.30311 0.0
C1322 C 0.35863 0.06366 0.23498 0.0
C1323 C 0.33926 0.01871 0.20138 0.0
C1324 C 0.34537 0.03398 0.22967 0.0
C1325 C 0.36137 0.07832 0.3107 0.0
C1326 C 0.35599 0.06299 0.28321 0.0
H1327 H 0.33596 0.98113 0.20708 0.0
H1328 H 0.34839 0.00737 0.24961 0.0
H1329 H 0.35552 0.05015 0.17135 0.0
H1330 H 0.34681 0.09567 0.38754 0.0
H1331 H 0.33883 0.06923 0.34894 0.0
loop_
_geom_bond_atom_site_label_1
_geom_bond_atom_site_label_2
_geom_bond_distance
_geom_bond_site_symmetry_2
_ccdc_geom_bond_type
Co0 O1 2.216 . S
Co0 O2 2.091 . S
Co0 O4 2.004 . S
Co0 O10 2.021 . S
Co0 O12 2.137 . S
Co0 O13 2.244 . S
O1 Co0 2.216 . S
O1 C8 1.247 . S
O2 Co0 2.091 . S
O2 C8 1.261 . S
C3 O12 1.247 . S
C3 O13 1.272 . S
O4 Co0 2.004 . S
O4 C9 1.259 . S
Co5 O6 2.061 . S
Co5 O11 2.052 . S
Co5 O13 2.135 . S
O6 Co5 2.061 . S
O6 C9 1.235 . S
C7 O10 1.238 . S
C7 O11 1.241 . S
C8 O1 1.247 . S
C8 O2 1.261 . S
C9 O4 1.259 . S
C9 O6 1.235 . S
O10 Co0 2.021 . S
O10 C7 1.238 . S
O11 Co5 2.052 . S
O11 C7 1.241 . S
O12 Co0 2.137 . S
O12 C3 1.247 . S
O13 Co0 2.244 . S
O13 C3 1.272 . S
O13 Co5 2.135 . S
Co14 O15 2.216 . S
Co14 O16 2.091 . S
Co14 O18 2.004 . S
Co14 O24 2.021 . S
Co14 O26 2.137 . S
Co14 O27 2.244 . S
O15 Co14 2.216 . S
O15 C22 1.247 . S
O16 Co14 2.091 . S
O16 C22 1.261 . S
C17 O26 1.247 . S
C17 O27 1.272 . S
O18 Co14 2.004 . S
O18 C23 1.259 . S
Co19 O20 2.061 . S
Co19 O25 2.052 . S
Co19 O27 2.135 . S
O20 Co19 2.061 . S
O20 C23 1.235 . S
C21 O24 1.238 . S
C21 O25 1.241 . S
C22 O15 1.247 . S
C22 O16 1.261 . S
C23 O18 1.259 . S
C23 O20 1.235 . S
O24 Co14 2.021 . S
O24 C21 1.238 . S
O25 Co19 2.052 . S
O25 C21 1.241 . S
O26 Co14 2.137 . S
O26 C17 1.247 . S
O27 Co14 2.244 . S
O27 C17 1.272 . S
O27 Co19 2.135 . S
Co28 O29 2.216 . S
Co28 O30 2.091 . S
Co28 O32 2.004 . S
Co28 O38 2.021 . S
Co28 O40 2.137 . S
Co28 O41 2.244 . S
O29 Co28 2.216 . S
O29 C36 1.247 . S
O30 Co28 2.091 . S
O30 C36 1.261 . S
C31 O40 1.247 . S
C31 O41 1.272 . S
O32 Co28 2.004 . S
O32 C37 1.259 . S
Co33 O34 2.061 . S
Co33 O39 2.052 . S
Co33 O41 2.135 . S
O34 Co33 2.061 . S
O34 C37 1.235 . S
C35 O38 1.238 . S
C35 O39 1.241 . S
C36 O29 1.247 . S
C36 O30 1.261 . S
C37 O32 1.259 . S
C37 O34 1.235 . S
O38 Co28 2.021 . S
O38 C35 1.238 . S
O39 Co33 2.052 . S
O39 C35 1.241 . S
O40 Co28 2.137 . S
O40 C31 1.247 . S
O41 Co28 2.244 . S
O41 C31 1.272 . S
O41 Co33 2.135 . S
Co42 O43 2.216 . S
Co42 O44 2.091 . S
Co42 O46 2.004 . S
Co42 O52 2.021 . S
Co42 O54 2.137 . S
Co42 O55 2.244 . S
O43 Co42 2.216 . S
O43 C50 1.247 . S
O44 Co42 2.091 . S
O44 C50 1.261 . S
C45 O54 1.247 . S
C45 O55 1.272 . S
O46 Co42 2.004 . S
O46 C51 1.259 . S
Co47 O48 2.061 . S
Co47 O53 2.052 . S
Co47 O55 2.135 . S
O48 Co47 2.061 . S
O48 C51 1.235 . S
C49 O52 1.238 . S
C49 O53 1.241 . S
C50 O43 1.247 . S
C50 O44 1.261 . S
C51 O46 1.259 . S
C51 O48 1.235 . S
O52 Co42 2.021 . S
O52 C49 1.238 . S
O53 Co47 2.052 . S
O53 C49 1.241 . S
O54 Co42 2.137 . S
O54 C45 1.247 . S
O55 Co42 2.244 . S
O55 C45 1.272 . S
O55 Co47 2.135 . S
Co56 O57 2.216 . S
Co56 O58 2.091 . S
Co56 O60 2.004 . S
Co56 O66 2.021 . S
Co56 O68 2.137 . S
Co56 O69 2.244 . S
O57 Co56 2.216 . S
O57 C64 1.247 . S
O58 Co56 2.091 . S
O58 C64 1.261 . S
C59 O68 1.247 . S
C59 O69 1.272 . S
O60 Co56 2.004 . S
O60 C65 1.259 . S
Co61 O62 2.061 . S
Co61 O67 2.052 . S
Co61 O69 2.135 . S
O62 Co61 2.061 . S
O62 C65 1.235 . S
C63 O66 1.238 . S
C63 O67 1.241 . S
C64 O57 1.247 . S
C64 O58 1.261 . S
C65 O60 1.259 . S
C65 O62 1.235 . S
O66 Co56 2.021 . S
O66 C63 1.238 . S
O67 Co61 2.052 . S
O67 C63 1.241 . S
O68 Co56 2.137 . S
O68 C59 1.247 . S
O69 Co56 2.244 . S
O69 C59 1.272 . S
O69 Co61 2.135 . S
Co70 O71 2.216 . S
Co70 O72 2.091 . S
Co70 O74 2.004 . S
Co70 O80 2.021 . S
Co70 O82 2.137 . S
Co70 O83 2.244 . S
O71 Co70 2.216 . S
O71 C78 1.247 . S
O72 Co70 2.091 . S
O72 C78 1.261 . S
C73 O82 1.247 . S
C73 O83 1.272 . S
O74 Co70 2.004 . S
O74 C79 1.259 . S
Co75 O76 2.061 . S
Co75 O81 2.052 . S
Co75 O83 2.135 . S
O76 Co75 2.061 . S
O76 C79 1.235 . S
C77 O80 1.238 . S
C77 O81 1.241 . S
C78 O71 1.247 . S
C78 O72 1.261 . S
C79 O74 1.259 . S
C79 O76 1.235 . S
O80 Co70 2.021 . S
O80 C77 1.238 . S
O81 Co75 2.052 . S
O81 C77 1.241 . S
O82 Co70 2.137 . S
O82 C73 1.247 . S
O83 Co70 2.244 . S
O83 C73 1.272 . S
O83 Co75 2.135 . S
Co84 O85 2.216 . S
Co84 O86 2.091 . S
Co84 O88 2.004 . S
Co84 O94 2.021 . S
Co84 O96 2.137 . S
Co84 O97 2.244 . S
O85 Co84 2.216 . S
O85 C92 1.247 . S
O86 Co84 2.091 . S
O86 C92 1.261 . S
C87 O96 1.247 . S
C87 O97 1.272 . S
O88 Co84 2.004 . S
O88 C93 1.259 . S
Co89 O90 2.061 . S
Co89 O95 2.052 . S
Co89 O97 2.135 . S
O90 Co89 2.061 . S
O90 C93 1.235 . S
C91 O94 1.238 . S
C91 O95 1.241 . S
C92 O85 1.247 . S
C92 O86 1.261 . S
C93 O88 1.259 . S
C93 O90 1.235 . S
O94 Co84 2.021 . S
O94 C91 1.238 . S
O95 Co89 2.052 . S
O95 C91 1.241 . S
O96 Co84 2.137 . S
O96 C87 1.247 . S
O97 Co84 2.244 . S
O97 C87 1.272 . S
O97 Co89 2.135 . S
Co98 O99 2.216 . S
Co98 O100 2.091 . S
Co98 O102 2.004 . S
Co98 O108 2.021 . S
Co98 O110 2.137 . S
Co98 O111 2.244 . S
O99 Co98 2.216 . S
O99 C106 1.247 . S
O100 Co98 2.091 . S
O100 C106 1.261 . S
C101 O110 1.247 . S
C101 O111 1.272 . S
O102 Co98 2.004 . S
O102 C107 1.259 . S
Co103 O104 2.061 . S
Co103 O109 2.052 . S
Co103 O111 2.135 . S
O104 Co103 2.061 . S
O104 C107 1.235 . S
C105 O108 1.238 . S
C105 O109 1.241 . S
C106 O99 1.247 . S
C106 O100 1.261 . S
C107 O102 1.259 . S
C107 O104 1.235 . S
O108 Co98 2.021 . S
O108 C105 1.238 . S
O109 Co103 2.052 . S
O109 C105 1.241 . S
O110 Co98 2.137 . S
O110 C101 1.247 . S
O111 Co98 2.244 . S
O111 C101 1.272 . S
O111 Co103 2.135 . S
Co112 O113 2.216 . S
Co112 O114 2.091 . S
Co112 O116 2.004 . S
Co112 O122 2.021 . S
Co112 O124 2.137 . S
Co112 O125 2.244 . S
O113 Co112 2.216 . S
O113 C120 1.247 . S
O114 Co112 2.091 . S
O114 C120 1.261 . S
C115 O124 1.247 . S
C115 O125 1.272 . S
O116 Co112 2.004 . S
O116 C121 1.259 . S
Co117 O118 2.061 . S
Co117 O123 2.052 . S
Co117 O125 2.135 . S
O118 Co117 2.061 . S
O118 C121 1.235 . S
C119 O122 1.238 . S
C119 O123 1.241 . S
C120 O113 1.247 . S
C120 O114 1.261 . S
C121 O116 1.259 . S
C121 O118 1.235 . S
O122 Co112 2.021 . S
O122 C119 1.238 . S
O123 Co117 2.052 . S
O123 C119 1.241 . S
O124 Co112 2.137 . S
O124 C115 1.247 . S
O125 Co112 2.244 . S
O125 C115 1.272 . S
O125 Co117 2.135 . S
Co126 O127 2.216 . S
Co126 O128 2.091 . S
Co126 O130 2.004 . S
Co126 O136 2.021 . S
Co126 O138 2.137 . S
Co126 O139 2.244 . S
O127 Co126 2.216 . S
O127 C134 1.247 . S
O128 Co126 2.091 . S
O128 C134 1.261 . S
C129 O138 1.247 . S
C129 O139 1.272 . S
O130 Co126 2.004 . S
O130 C135 1.259 . S
Co131 O132 2.061 . S
Co131 O137 2.052 . S
Co131 O139 2.135 . S
O132 Co131 2.061 . S
O132 C135 1.235 . S
C133 O136 1.238 . S
C133 O137 1.241 . S
C134 O127 1.247 . S
C134 O128 1.261 . S
C135 O130 1.259 . S
C135 O132 1.235 . S
O136 Co126 2.021 . S
O136 C133 1.238 . S
O137 Co131 2.052 . S
O137 C133 1.241 . S
O138 Co126 2.137 . S
O138 C129 1.247 . S
O139 Co126 2.244 . S
O139 C129 1.272 . S
O139 Co131 2.135 . S
Co140 O141 2.216 . S
Co140 O142 2.091 . S
Co140 O144 2.004 . S
Co140 O150 2.021 . S
Co140 O152 2.137 . S
Co140 O153 2.244 . S
O141 Co140 2.216 . S
O141 C148 1.247 . S
O142 Co140 2.091 . S
O142 C148 1.261 . S
C143 O152 1.247 . S
C143 O153 1.272 . S
O144 Co140 2.004 . S
O144 C149 1.259 . S
Co145 O146 2.061 . S
Co145 O151 2.052 . S
Co145 O153 2.135 . S
O146 Co145 2.061 . S
O146 C149 1.235 . S
C147 O150 1.238 . S
C147 O151 1.241 . S
C148 O141 1.247 . S
C148 O142 1.261 . S
C149 O144 1.259 . S
C149 O146 1.235 . S
O150 Co140 2.021 . S
O150 C147 1.238 . S
O151 Co145 2.052 . S
O151 C147 1.241 . S
O152 Co140 2.137 . S
O152 C143 1.247 . S
O153 Co140 2.244 . S
O153 C143 1.272 . S
O153 Co145 2.135 . S
Co154 O155 2.216 . S
Co154 O156 2.091 . S
Co154 O158 2.004 . S
Co154 O164 2.021 . S
Co154 O166 2.137 . S
Co154 O167 2.244 . S
O155 Co154 2.216 . S
O155 C162 1.251 . S
O156 Co154 2.091 . S
O156 C162 1.265 . S
C157 O166 1.247 . S
C157 O167 1.272 . S
O158 Co154 2.004 . S
O158 C163 1.259 . S
Co159 O160 2.061 . S
Co159 O165 2.052 . S
Co159 O167 2.135 . S
O160 Co159 2.061 . S
O160 C163 1.235 . S
C161 O164 1.238 . S
C161 O165 1.241 . S
C162 O155 1.251 . S
C162 O156 1.265 . S
C163 O158 1.259 . S
C163 O160 1.235 . S
O164 Co154 2.021 . S
O164 C161 1.238 . S
O165 Co159 2.052 . S
O165 C161 1.241 . S
O166 Co154 2.137 . S
O166 C157 1.247 . S
O167 Co154 2.244 . S
O167 C157 1.272 . S
O167 Co159 2.135 . S
Co168 O169 2.216 . S
Co168 O170 2.091 . S
Co168 O172 2.004 . S
Co168 O178 2.021 . S
Co168 O180 2.137 . S
Co168 O181 2.244 . S
O169 Co168 2.216 . S
O169 C176 1.247 . S
O170 Co168 2.091 . S
O170 C176 1.261 . S
C171 O180 1.247 . S
C171 O181 1.272 . S
O172 Co168 2.004 . S
O172 C177 1.259 . S
Co173 O174 2.061 . S
Co173 O179 2.052 . S
Co173 O181 2.135 . S
O174 Co173 2.061 . S
O174 C177 1.235 . S
C175 O178 1.238 . S
C175 O179 1.241 . S
C176 O169 1.247 . S
C176 O170 1.261 . S
C177 O172 1.259 . S
C177 O174 1.235 . S
O178 Co168 2.021 . S
O178 C175 1.238 . S
O179 Co173 2.052 . S
O179 C175 1.241 . S
O180 Co168 2.137 . S
O180 C171 1.247 . S
O181 Co168 2.244 . S
O181 C171 1.272 . S
O181 Co173 2.135 . S
Co182 O183 2.216 . S
Co182 O184 2.091 . S
Co182 O186 2.004 . S
Co182 O192 2.021 . S
Co182 O194 2.137 . S
Co182 O195 2.244 . S
O183 Co182 2.216 . S
O183 C190 1.247 . S
O184 Co182 2.091 . S
O184 C190 1.261 . S
C185 O194 1.247 . S
C185 O195 1.272 . S
O186 Co182 2.004 . S
O186 C191 1.259 . S
Co187 O188 2.061 . S
Co187 O193 2.052 1_556 S
Co187 O195 2.135 . S
O188 Co187 2.061 . S
O188 C191 1.235 . S
C189 O192 1.238 . S
C189 O193 1.241 1_556 S
C190 O183 1.247 . S
C190 O184 1.261 . S
C191 O186 1.259 . S
C191 O188 1.235 . S
O192 Co182 2.021 . S
O192 C189 1.238 . S
O193 Co187 2.052 1_554 S
O193 C189 1.241 1_554 S
O194 Co182 2.137 . S
O194 C185 1.247 . S
O195 Co182 2.244 . S
O195 C185 1.272 . S
O195 Co187 2.135 . S
Co196 O197 2.216 . S
Co196 O198 2.091 . S
Co196 O200 2.004 . S
Co196 O206 2.021 . S
Co196 O208 2.137 . S
Co196 O209 2.244 . S
O197 Co196 2.216 . S
O197 C204 1.247 . S
O198 Co196 2.091 . S
O198 C204 1.261 . S
C199 O208 1.247 . S
C199 O209 1.272 . S
O200 Co196 2.004 . S
O200 C205 1.259 . S
Co201 O202 2.061 . S
Co201 O207 2.052 . S
Co201 O209 2.135 . S
O202 Co201 2.061 . S
O202 C205 1.235 . S
C203 O206 1.238 . S
C203 O207 1.241 . S
C204 O197 1.247 . S
C204 O198 1.261 . S
C205 O200 1.259 . S
C205 O202 1.235 . S
O206 Co196 2.021 . S
O206 C203 1.238 . S
O207 Co201 2.052 . S
O207 C203 1.241 . S
O208 Co196 2.137 . S
O208 C199 1.247 . S
O209 Co196 2.244 . S
O209 C199 1.272 . S
O209 Co201 2.135 . S
Co210 O211 2.216 . S
Co210 O212 2.091 . S
Co210 O214 2.004 . S
Co210 O220 2.021 . S
Co210 O222 2.137 . S
Co210 O223 2.244 . S
O211 Co210 2.216 . S
O211 C218 1.247 . S
O212 Co210 2.091 . S
O212 C218 1.261 . S
C213 O222 1.247 . S
C213 O223 1.272 . S
O214 Co210 2.004 . S
O214 C219 1.259 . S
Co215 O216 2.061 . S
Co215 O221 2.052 . S
Co215 O223 2.135 . S
O216 Co215 2.061 . S
O216 C219 1.235 . S
C217 O220 1.238 . S
C217 O221 1.241 . S
C218 O211 1.247 . S
C218 O212 1.261 . S
C219 O214 1.259 . S
C219 O216 1.235 . S
O220 Co210 2.021 . S
O220 C217 1.238 . S
O221 Co215 2.052 . S
O221 C217 1.241 . S
O222 Co210 2.137 . S
O222 C213 1.247 . S
O223 Co210 2.244 . S
O223 C213 1.272 . S
O223 Co215 2.135 . S
Co224 O225 2.216 . S
Co224 O226 2.091 . S
Co224 O228 2.004 . S
Co224 O234 2.021 . S
Co224 O236 2.137 . S
Co224 O237 2.244 . S
O225 Co224 2.216 . S
O225 C232 1.247 . S
O226 Co224 2.091 . S
O226 C232 1.261 . S
C227 O236 1.247 . S
C227 O237 1.272 . S
O228 Co224 2.004 . S
O228 C233 1.259 . S
Co229 O230 2.061 . S
Co229 O235 2.052 . S
Co229 O237 2.135 . S
O230 Co229 2.061 . S
O230 C233 1.235 . S
C231 O234 1.238 . S
C231 O235 1.241 . S
C232 O225 1.247 . S
C232 O226 1.261 . S
C233 O228 1.259 . S
C233 O230 1.235 . S
O234 Co224 2.021 . S
O234 C231 1.238 . S
O235 Co229 2.052 . S
O235 C231 1.241 . S
O236 Co224 2.137 . S
O236 C227 1.247 . S
O237 Co224 2.244 . S
O237 C227 1.272 . S
O237 Co229 2.135 . S
Co238 O239 2.216 . S
Co238 O240 2.091 . S
Co238 O242 2.004 . S
Co238 O248 2.021 . S
Co238 O250 2.137 . S
Co238 O251 2.244 . S
O239 Co238 2.216 . S
O239 C246 1.247 . S
O240 Co238 2.091 . S
O240 C246 1.261 . S
C241 O250 1.247 . S
C241 O251 1.272 . S
O242 Co238 2.004 . S
O242 C247 1.259 . S
Co243 O244 2.061 . S
Co243 O249 2.052 . S
Co243 O251 2.135 . S
O244 Co243 2.061 . S
O244 C247 1.235 . S
C245 O248 1.238 . S
C245 O249 1.241 . S
C246 O239 1.247 . S
C246 O240 1.261 . S
C247 O242 1.259 . S
C247 O244 1.235 . S
O248 Co238 2.021 . S
O248 C245 1.238 . S
O249 Co243 2.052 . S
O249 C245 1.241 . S
O250 Co238 2.137 . S
O250 C241 1.247 . S
O251 Co238 2.244 . S
O251 C241 1.272 . S
O251 Co243 2.135 . S
C252 C253 1.349 . S
C252 C254 1.327 . S
C252 H277 0.950 . S
C253 C252 1.349 . S
C253 C269 1.349 . S
C254 C252 1.327 . S
C254 C273 1.429 . S
C254 H278 0.950 . S
C255 C272 1.574 1_556 S
C255 C274 1.368 . S
C255 H279 0.949 . S
H256 C260 0.949 . S
C257 C258 1.349 . S
C257 C259 1.327 . S
C257 H280 0.950 . S
C258 C257 1.349 . S
C258 C270 1.349 . S
C259 C257 1.327 . S
C259 C275 1.429 . S
C259 H281 0.950 . S
C260 H256 0.949 . S
C260 C268 1.574 . S
C260 C276 1.368 1_556 S
H261 C269 0.950 . S
H262 C267 0.950 . S
H263 C268 0.949 . S
H264 C270 0.950 . S
H265 C271 0.950 . S
H266 C272 0.949 . S
C267 H262 0.950 . S
C267 C269 1.327 . S
C267 C273 1.429 . S
C268 C260 1.574 . S
C268 H263 0.949 . S
C268 C274 1.368 . S
C269 C253 1.349 . S
C269 H261 0.950 . S
C269 C267 1.327 . S
C270 C258 1.349 . S
C270 H264 0.950 . S
C270 C271 1.327 . S
C271 H265 0.950 . S
C271 C270 1.327 . S
C271 C275 1.429 . S
C272 C255 1.574 1_554 S
C272 H266 0.949 . S
C272 C276 1.368 . S
C273 C254 1.429 . S
C273 C267 1.429 . S
C273 C274 1.523 . S
C274 C255 1.368 . S
C274 C268 1.368 . S
C274 C273 1.523 . S
C275 C259 1.429 . S
C275 C271 1.429 . S
C275 C276 1.523 . S
C276 C260 1.368 1_554 S
C276 C272 1.368 . S
C276 C275 1.523 . S
H277 C252 0.950 . S
H278 C254 0.950 . S
H279 C255 0.949 . S
H280 C257 0.950 . S
H281 C259 0.950 . S
C282 C283 1.349 . S
C282 C284 1.327 . S
C282 H307 0.950 . S
C283 C282 1.349 . S
C283 C299 1.349 . S
C284 C282 1.327 . S
C284 C303 1.429 . S
C284 H308 0.950 . S
C285 C302 1.574 . S
C285 C304 1.368 1_554 S
C285 H309 0.949 . S
H286 C290 0.949 . S
C287 C288 1.349 . S
C287 C289 1.327 . S
C287 H310 0.950 . S
C288 C287 1.349 . S
C288 C300 1.349 . S
C289 C287 1.327 . S
C289 C305 1.429 . S
C289 H311 0.950 . S
C290 H286 0.949 . S
C290 C298 1.574 . S
C290 C306 1.368 1_556 S
H291 C299 0.950 . S
H292 C297 0.950 . S
H293 C298 0.949 . S
H294 C300 0.950 . S
H295 C301 0.950 . S
H296 C302 0.949 . S
C297 H292 0.950 . S
C297 C299 1.327 . S
C297 C303 1.429 . S
C298 C290 1.574 . S
C298 H293 0.949 . S
C298 C304 1.368 . S
C299 C283 1.349 . S
C299 H291 0.950 . S
C299 C297 1.327 . S
C300 C288 1.349 . S
C300 H294 0.950 . S
C300 C301 1.327 . S
C301 H295 0.950 . S
C301 C300 1.327 . S
C301 C305 1.429 . S
C302 C285 1.574 . S
C302 H296 0.949 . S
C302 C306 1.368 . S
C303 C284 1.429 . S
C303 C297 1.429 . S
C303 C304 1.523 . S
C304 C285 1.368 1_556 S
C304 C298 1.368 . S
C304 C303 1.523 . S
C305 C289 1.429 . S
C305 C301 1.429 . S
C305 C306 1.523 . S
C306 C290 1.368 1_554 S
C306 C302 1.368 . S
C306 C305 1.523 . S
H307 C282 0.950 . S
H308 C284 0.950 . S
H309 C285 0.949 . S
H310 C287 0.950 . S
H311 C289 0.950 . S
C312 C313 1.349 . S
C312 C314 1.327 . S
C312 H337 0.950 . S
C313 C312 1.349 . S
C313 C329 1.349 . S
C314 C312 1.327 . S
C314 C333 1.429 . S
C314 H338 0.950 . S
C315 C332 1.574 1_554 S
C315 C334 1.368 . S
C315 H339 0.949 . S
H316 C320 0.947 1_556 S
C317 C318 1.349 . S
C317 C319 1.327 . S
C317 H340 0.950 . S
C318 C317 1.349 . S
C318 C330 1.349 . S
C319 C317 1.327 . S
C319 C335 1.429 . S
C319 H341 0.950 . S
C320 H316 0.947 1_554 S
C320 C328 1.585 . S
C320 C336 1.360 1_554 S
H321 C329 0.950 . S
H322 C327 0.950 . S
H323 C328 0.949 . S
H324 C330 0.950 . S
H325 C331 0.950 . S
H326 C332 0.949 . S
C327 H322 0.950 . S
C327 C329 1.327 . S
C327 C333 1.429 . S
C328 C320 1.585 . S
C328 H323 0.949 . S
C328 C334 1.368 . S
C329 C313 1.349 . S
C329 H321 0.950 . S
C329 C327 1.327 . S
C330 C318 1.349 . S
C330 H324 0.950 . S
C330 C331 1.327 . S
C331 H325 0.950 . S
C331 C330 1.327 . S
C331 C335 1.429 . S
C332 C315 1.574 1_556 S
C332 H326 0.949 . S
C332 C336 1.368 . S
C333 C314 1.429 . S
C333 C327 1.429 . S
C333 C334 1.523 . S
C334 C315 1.368 . S
C334 C328 1.368 . S
C334 C333 1.523 . S
C335 C319 1.429 . S
C335 C331 1.429 . S
C335 C336 1.523 . S
C336 C320 1.360 1_556 S
C336 C332 1.368 . S
C336 C335 1.523 . S
H337 C312 0.950 . S
H338 C314 0.950 . S
H339 C315 0.949 . S
H340 C317 0.950 . S
H341 C319 0.950 . S
C342 C343 1.349 . S
C342 C344 1.327 . S
C342 H367 0.950 . S
C343 C342 1.349 . S
C343 C359 1.349 . S
C344 C342 1.327 . S
C344 C363 1.429 . S
C344 H368 0.950 . S
C345 C362 1.574 . S
C345 C364 1.368 . S
C345 H369 0.949 . S
H346 C350 0.949 . S
C347 C348 1.349 . S
C347 C349 1.327 . S
C347 H370 0.950 . S
C348 C347 1.349 . S
C348 C360 1.349 . S
C349 C347 1.327 . S
C349 C365 1.429 . S
C349 H371 0.950 . S
C350 H346 0.949 . S
C350 C358 1.574 . S
C350 C366 1.368 . S
H351 C359 0.950 . S
H352 C357 0.950 . S
H353 C358 0.949 . S
H354 C360 0.950 . S
H355 C361 0.950 . S
H356 C362 0.949 . S
C357 H352 0.950 . S
C357 C359 1.327 . S
C357 C363 1.429 . S
C358 C350 1.574 . S
C358 H353 0.949 . S
C358 C364 1.368 . S
C359 C343 1.349 . S
C359 H351 0.950 . S
C359 C357 1.327 . S
C360 C348 1.349 . S
C360 H354 0.950 . S
C360 C361 1.327 . S
C361 H355 0.950 . S
C361 C360 1.327 . S
C361 C365 1.429 . S
C362 C345 1.574 . S
C362 H356 0.949 . S
C362 C366 1.368 . S
C363 C344 1.429 . S
C363 C357 1.429 . S
C363 C364 1.523 . S
C364 C345 1.368 . S
C364 C358 1.368 . S
C364 C363 1.523 . S
C365 C349 1.429 . S
C365 C361 1.429 . S
C365 C366 1.523 . S
C366 C350 1.368 . S
C366 C362 1.368 . S
C366 C365 1.523 . S
H367 C342 0.950 . S
H368 C344 0.950 . S
H369 C345 0.949 . S
H370 C347 0.950 . S
H371 C349 0.950 . S
C372 C373 1.349 . S
C372 C374 1.327 . S
C372 H397 0.950 . S
C373 C372 1.349 . S
C373 C389 1.349 . S
C374 C372 1.327 . S
C374 C393 1.429 . S
C374 H398 0.950 . S
C375 C392 1.574 . S
C375 C394 1.368 . S
C375 H399 0.949 . S
H376 C380 0.949 . S
C377 C378 1.349 . S
C377 C379 1.327 . S
C377 H400 0.950 . S
C378 C377 1.349 . S
C378 C390 1.349 . S
C379 C377 1.327 . S
C379 C395 1.429 . S
C379 H401 0.950 . S
C380 H376 0.949 . S
C380 C388 1.574 . S
C380 C396 1.368 . S
H381 C389 0.950 . S
H382 C387 0.950 . S
H383 C388 0.949 . S
H384 C390 0.950 . S
H385 C391 0.950 . S
H386 C392 0.949 . S
C387 H382 0.950 . S
C387 C389 1.327 . S
C387 C393 1.429 . S
C388 C380 1.574 . S
C388 H383 0.949 . S
C388 C394 1.368 . S
C389 C373 1.349 . S
C389 H381 0.950 . S
C389 C387 1.327 . S
C390 C378 1.349 . S
C390 H384 0.950 . S
C390 C391 1.327 . S
C391 H385 0.950 . S
C391 C390 1.327 . S
C391 C395 1.429 . S
C392 C375 1.574 . S
C392 H386 0.949 . S
C392 C396 1.368 . S
C393 C374 1.429 . S
C393 C387 1.429 . S
C393 C394 1.523 . S
C394 C375 1.368 . S
C394 C388 1.368 . S
C394 C393 1.523 . S
C395 C379 1.429 . S
C395 C391 1.429 . S
C395 C396 1.523 . S
C396 C380 1.368 . S
C396 C392 1.368 . S
C396 C395 1.523 . S
H397 C372 0.950 . S
H398 C374 0.950 . S
H399 C375 0.949 . S
H400 C377 0.950 . S
H401 C379 0.950 . S
C402 C403 1.349 . S
C402 C404 1.327 . S
C402 H427 0.950 . S
C403 C402 1.349 . S
C403 C419 1.349 . S
C404 C402 1.327 . S
C404 C423 1.429 . S
C404 H428 0.950 . S
C405 C422 1.574 . S
C405 C424 1.368 . S
C405 H429 0.949 . S
H406 C410 0.949 . S
C407 C408 1.349 . S
C407 C409 1.327 . S
C407 H430 0.950 . S
C408 C407 1.349 . S
C408 C420 1.349 . S
C409 C407 1.327 . S
C409 C425 1.429 . S
C409 H431 0.950 . S
C410 H406 0.949 . S
C410 C418 1.574 . S
C410 C426 1.368 . S
H411 C419 0.950 . S
H412 C417 0.950 . S
H413 C418 0.949 . S
H414 C420 0.950 . S
H415 C421 0.950 . S
H416 C422 0.949 . S
C417 H412 0.950 . S
C417 C419 1.327 . S
C417 C423 1.429 . S
C418 C410 1.574 . S
C418 H413 0.949 . S
C418 C424 1.368 . S
C419 C403 1.349 . S
C419 H411 0.950 . S
C419 C417 1.327 . S
C420 C408 1.349 . S
C420 H414 0.950 . S
C420 C421 1.327 . S
C421 H415 0.950 . S
C421 C420 1.327 . S
C421 C425 1.429 . S
C422 C405 1.574 . S
C422 H416 0.949 . S
C422 C426 1.368 . S
C423 C404 1.429 . S
C423 C417 1.429 . S
C423 C424 1.523 . S
C424 C405 1.368 . S
C424 C418 1.368 . S
C424 C423 1.523 . S
C425 C409 1.429 . S
C425 C421 1.429 . S
C425 C426 1.523 . S
C426 C410 1.368 . S
C426 C422 1.368 . S
C426 C425 1.523 . S
H427 C402 0.950 . S
H428 C404 0.950 . S
H429 C405 0.949 . S
H430 C407 0.950 . S
H431 C409 0.950 . S
C432 C433 1.349 . S
C432 C434 1.327 . S
C432 H457 0.950 . S
C433 C432 1.349 . S
C433 C449 1.349 . S
C434 C432 1.327 . S
C434 C453 1.429 . S
C434 H458 0.950 . S
C435 C452 1.574 . S
C435 C454 1.368 . S
C435 H459 0.949 . S
H436 C440 0.949 . S
C437 C438 1.349 . S
C437 C439 1.327 . S
C437 H460 0.950 . S
C438 C437 1.349 . S
C438 C450 1.349 . S
C439 C437 1.327 . S
C439 C455 1.429 . S
C439 H461 0.950 . S
C440 H436 0.949 . S
C440 C448 1.574 . S
C440 C456 1.368 . S
H441 C449 0.950 . S
H442 C447 0.950 . S
H443 C448 0.949 . S
H444 C450 0.950 . S
H445 C451 0.950 . S
H446 C452 0.949 . S
C447 H442 0.950 . S
C447 C449 1.327 . S
C447 C453 1.429 . S
C448 C440 1.574 . S
C448 H443 0.949 . S
C448 C454 1.368 . S
C449 C433 1.349 . S
C449 H441 0.950 . S
C449 C447 1.327 . S
C450 C438 1.349 . S
C450 H444 0.950 . S
C450 C451 1.327 . S
C451 H445 0.950 . S
C451 C450 1.327 . S
C451 C455 1.429 . S
C452 C435 1.574 . S
C452 H446 0.949 . S
C452 C456 1.368 . S
C453 C434 1.429 . S
C453 C447 1.429 . S
C453 C454 1.523 . S
C454 C435 1.368 . S
C454 C448 1.368 . S
C454 C453 1.523 . S
C455 C439 1.429 . S
C455 C451 1.429 . S
C455 C456 1.523 . S
C456 C440 1.368 . S
C456 C452 1.368 . S
C456 C455 1.523 . S
H457 C432 0.950 . S
H458 C434 0.950 . S
H459 C435 0.949 . S
H460 C437 0.950 . S
H461 C439 0.950 . S
C462 C463 1.349 . S
C462 C464 1.327 . S
C462 H487 0.950 . S
C463 C462 1.349 . S
C463 C479 1.349 . S
C464 C462 1.327 . S
C464 C483 1.429 . S
C464 H488 0.950 . S
C465 C482 1.574 . S
C465 C484 1.368 . S
C465 H489 0.949 . S
H466 C470 0.949 . S
C467 C468 1.349 . S
C467 C469 1.327 . S
C467 H490 0.950 . S
C468 C467 1.349 . S
C468 C480 1.349 . S
C469 C467 1.327 . S
C469 C485 1.429 . S
C469 H491 0.950 . S
C470 H466 0.949 . S
C470 C478 1.574 . S
C470 C486 1.368 . S
H471 C479 0.950 . S
H472 C477 0.950 . S
H473 C478 0.949 . S
H474 C480 0.950 . S
H475 C481 0.950 . S
H476 C482 0.949 . S
C477 H472 0.950 . S
C477 C479 1.327 . S
C477 C483 1.429 . S
C478 C470 1.574 . S
C478 H473 0.949 . S
C478 C484 1.368 . S
C479 C463 1.349 . S
C479 H471 0.950 . S
C479 C477 1.327 . S
C480 C468 1.349 . S
C480 H474 0.950 . S
C480 C481 1.327 . S
C481 H475 0.950 . S
C481 C480 1.327 . S
C481 C485 1.429 . S
C482 C465 1.574 . S
C482 H476 0.949 . S
C482 C486 1.368 . S
C483 C464 1.429 . S
C483 C477 1.429 . S
C483 C484 1.523 . S
C484 C465 1.368 . S
C484 C478 1.368 . S
C484 C483 1.523 . S
C485 C469 1.429 . S
C485 C481 1.429 . S
C485 C486 1.523 . S
C486 C470 1.368 . S
C486 C482 1.368 . S
C486 C485 1.523 . S
H487 C462 0.950 . S
H488 C464 0.950 . S
H489 C465 0.949 . S
H490 C467 0.950 . S
H491 C469 0.950 . S
C492 C493 1.349 . S
C492 C494 1.327 . S
C492 H517 0.950 . S
C493 C492 1.349 . S
C493 C509 1.349 . S
C494 C492 1.327 . S
C494 C513 1.429 . S
C494 H518 0.950 . S
C495 C512 1.574 . S
C495 C514 1.368 . S
C495 H519 0.949 . S
H496 C500 0.949 . S
C497 C498 1.349 . S
C497 C499 1.327 . S
C497 H520 0.950 . S
C498 C497 1.349 . S
C498 C510 1.349 . S
C499 C497 1.327 . S
C499 C515 1.429 . S
C499 H521 0.950 . S
C500 H496 0.949 . S
C500 C508 1.574 . S
C500 C516 1.368 . S
H501 C509 0.950 . S
H502 C507 0.950 . S
H503 C508 0.949 . S
H504 C510 0.950 . S
H505 C511 0.950 . S
H506 C512 0.949 . S
C507 H502 0.950 . S
C507 C509 1.327 . S
C507 C513 1.429 . S
C508 C500 1.574 . S
C508 H503 0.949 . S
C508 C514 1.368 . S
C509 C493 1.349 . S
C509 H501 0.950 . S
C509 C507 1.327 . S
C510 C498 1.349 . S
C510 H504 0.950 . S
C510 C511 1.327 . S
C511 H505 0.950 . S
C511 C510 1.327 . S
C511 C515 1.429 . S
C512 C495 1.574 . S
C512 H506 0.949 . S
C512 C516 1.368 . S
C513 C494 1.429 . S
C513 C507 1.429 . S
C513 C514 1.523 . S
C514 C495 1.368 . S
C514 C508 1.368 . S
C514 C513 1.523 . S
C515 C499 1.429 . S
C515 C511 1.429 . S
C515 C516 1.523 . S
C516 C500 1.368 . S
C516 C512 1.368 . S
C516 C515 1.523 . S
H517 C492 0.950 . S
H518 C494 0.950 . S
H519 C495 0.949 . S
H520 C497 0.950 . S
H521 C499 0.950 . S
C522 C523 1.349 . S
C522 C524 1.327 . S
C522 H547 0.950 . S
C523 C522 1.349 . S
C523 C539 1.349 . S
C524 C522 1.327 . S
C524 C543 1.429 . S
C524 H548 0.950 . S
C525 C542 1.574 . S
C525 C544 1.368 . S
C525 H549 0.949 . S
H526 C530 0.949 . S
C527 C528 1.349 . S
C527 C529 1.327 . S
C527 H550 0.950 . S
C528 C527 1.349 . S
C528 C540 1.349 . S
C529 C527 1.327 . S
C529 C545 1.429 . S
C529 H551 0.950 . S
C530 H526 0.949 . S
C530 C538 1.574 . S
C530 C546 1.368 . S
H531 C539 0.950 . S
H532 C537 0.950 . S
H533 C538 0.949 . S
H534 C540 0.950 . S
H535 C541 0.950 . S
H536 C542 0.949 . S
C537 H532 0.950 . S
C537 C539 1.327 . S
C537 C543 1.429 . S
C538 C530 1.574 . S
C538 H533 0.949 . S
C538 C544 1.368 . S
C539 C523 1.349 . S
C539 H531 0.950 . S
C539 C537 1.327 . S
C540 C528 1.349 . S
C540 H534 0.950 . S
C540 C541 1.327 . S
C541 H535 0.950 . S
C541 C540 1.327 . S
C541 C545 1.429 . S
C542 C525 1.574 . S
C542 H536 0.949 . S
C542 C546 1.368 . S
C543 C524 1.429 . S
C543 C537 1.429 . S
C543 C544 1.523 . S
C544 C525 1.368 . S
C544 C538 1.368 . S
C544 C543 1.523 . S
C545 C529 1.429 . S
C545 C541 1.429 . S
C545 C546 1.523 . S
C546 C530 1.368 . S
C546 C542 1.368 . S
C546 C545 1.523 . S
H547 C522 0.950 . S
H548 C524 0.950 . S
H549 C525 0.949 . S
H550 C527 0.950 . S
H551 C529 0.950 . S
C552 C553 1.349 . S
C552 C554 1.327 . S
C552 H577 0.950 . S
C553 C552 1.349 . S
C553 C569 1.349 . S
C554 C552 1.327 . S
C554 C573 1.429 . S
C554 H578 0.950 . S
C555 C572 1.574 . S
C555 C574 1.368 . S
C555 H579 0.949 . S
H556 C560 0.949 . S
C557 C558 1.349 . S
C557 C559 1.327 . S
C557 H580 0.950 . S
C558 C557 1.349 . S
C558 C570 1.349 . S
C559 C557 1.327 . S
C559 C575 1.429 . S
C559 H581 0.950 . S
C560 H556 0.949 . S
C560 C568 1.574 . S
C560 C576 1.368 . S
H561 C569 0.950 . S
H562 C567 0.950 . S
H563 C568 0.949 . S
H564 C570 0.950 . S
H565 C571 0.950 . S
H566 C572 0.949 . S
C567 H562 0.950 . S
C567 C569 1.327 . S
C567 C573 1.429 . S
C568 C560 1.574 . S
C568 H563 0.949 . S
C568 C574 1.368 . S
C569 C553 1.349 . S
C569 H561 0.950 . S
C569 C567 1.327 . S
C570 C558 1.349 . S
C570 H564 0.950 . S
C570 C571 1.327 . S
C571 H565 0.950 . S
C571 C570 1.327 . S
C571 C575 1.429 . S
C572 C555 1.574 . S
C572 H566 0.949 . S
C572 C576 1.368 . S
C573 C554 1.429 . S
C573 C567 1.429 . S
C573 C574 1.523 . S
C574 C555 1.368 . S
C574 C568 1.368 . S
C574 C573 1.523 . S
C575 C559 1.429 . S
C575 C571 1.429 . S
C575 C576 1.523 . S
C576 C560 1.368 . S
C576 C572 1.368 . S
C576 C575 1.523 . S
H577 C552 0.950 . S
H578 C554 0.950 . S
H579 C555 0.949 . S
H580 C557 0.950 . S
H581 C559 0.950 . S
C582 C583 1.349 . S
C582 C584 1.327 . S
C582 H607 0.950 . S
C583 C582 1.349 . S
C583 C599 1.349 . S
C584 C582 1.327 . S
C584 C603 1.429 . S
C584 H608 0.950 . S
C585 C602 1.574 . S
C585 C604 1.368 . S
C585 H609 0.949 . S
H586 C590 0.949 . S
C587 C588 1.349 . S
C587 C589 1.327 . S
C587 H610 0.950 . S
C588 C587 1.349 . S
C588 C600 1.349 . S
C589 C587 1.327 . S
C589 C605 1.429 . S
C589 H611 0.950 . S
C590 H586 0.949 . S
C590 C598 1.574 . S
C590 C606 1.368 . S
H591 C599 0.950 1_554 S
H592 C597 0.950 . S
H593 C598 0.949 . S
H594 C600 0.950 . S
H595 C601 0.950 . S
H596 C602 0.949 . S
C597 H592 0.950 . S
C597 C599 1.327 . S
C597 C603 1.429 . S
C598 C590 1.574 . S
C598 H593 0.949 . S
C598 C604 1.368 . S
C599 C583 1.349 . S
C599 H591 0.950 1_556 S
C599 C597 1.327 . S
C600 C588 1.349 . S
C600 H594 0.950 . S
C600 C601 1.327 . S
C601 H595 0.950 . S
C601 C600 1.327 . S
C601 C605 1.429 . S
C602 C585 1.574 . S
C602 H596 0.949 . S
C602 C606 1.368 . S
C603 C584 1.429 . S
C603 C597 1.429 . S
C603 C604 1.523 . S
C604 C585 1.368 . S
C604 C598 1.368 . S
C604 C603 1.523 . S
C605 C589 1.429 . S
C605 C601 1.429 . S
C605 C606 1.523 . S
C606 C590 1.368 . S
C606 C602 1.368 . S
C606 C605 1.523 . S
H607 C582 0.950 . S
H608 C584 0.950 . S
H609 C585 0.949 . S
H610 C587 0.950 . S
H611 C589 0.950 . S
C612 C613 1.349 . S
C612 C614 1.327 . S
C612 H637 0.950 . S
C613 C612 1.349 . S
C613 C629 1.349 . S
C614 C612 1.327 . S
C614 C633 1.429 . S
C614 H638 0.950 . S
C615 C632 1.574 . S
C615 C634 1.368 . S
C615 H639 0.949 . S
H616 C620 0.949 . S
C617 C618 1.349 . S
C617 C619 1.327 . S
C617 H640 0.950 . S
C618 C617 1.349 . S
C618 C630 1.349 . S
C619 C617 1.327 . S
C619 C635 1.429 . S
C619 H641 0.950 . S
C620 H616 0.949 . S
C620 C628 1.574 . S
C620 C636 1.368 . S
H621 C629 0.950 . S
H622 C627 0.950 . S
H623 C628 0.949 . S
H624 C630 0.950 . S
H625 C631 0.950 . S
H626 C632 0.949 . S
C627 H622 0.950 . S
C627 C629 1.327 . S
C627 C633 1.429 . S
C628 C620 1.574 . S
C628 H623 0.949 . S
C628 C634 1.368 . S
C629 C613 1.349 . S
C629 H621 0.950 . S
C629 C627 1.327 . S
C630 C618 1.349 . S
C630 H624 0.950 . S
C630 C631 1.327 . S
C631 H625 0.950 . S
C631 C630 1.327 . S
C631 C635 1.429 . S
C632 C615 1.574 . S
C632 H626 0.949 . S
C632 C636 1.368 . S
C633 C614 1.429 . S
C633 C627 1.429 . S
C633 C634 1.523 . S
C634 C615 1.368 . S
C634 C628 1.368 . S
C634 C633 1.523 . S
C635 C619 1.429 . S
C635 C631 1.429 . S
C635 C636 1.523 . S
C636 C620 1.368 . S
C636 C632 1.368 . S
C636 C635 1.523 . S
H637 C612 0.950 . S
H638 C614 0.950 . S
H639 C615 0.949 . S
H640 C617 0.950 . S
H641 C619 0.950 . S
C642 C643 1.349 . S
C642 C644 1.327 . S
C642 H667 0.950 . S
C643 C642 1.349 . S
C643 C659 1.349 . S
C644 C642 1.327 . S
C644 C663 1.429 . S
C644 H668 0.950 . S
C645 C662 1.574 . S
C645 C664 1.368 . S
C645 H669 0.949 . S
H646 C650 0.949 . S
C647 C648 1.349 . S
C647 C649 1.327 . S
C647 H670 0.950 . S
C648 C647 1.349 . S
C648 C660 1.349 . S
C649 C647 1.327 . S
C649 C665 1.429 . S
C649 H671 0.950 . S
C650 H646 0.949 . S
C650 C658 1.574 . S
C650 C666 1.368 . S
H651 C659 0.950 . S
H652 C657 0.950 . S
H653 C658 0.949 . S
H654 C660 0.950 . S
H655 C661 0.950 . S
H656 C662 0.949 . S
C657 H652 0.950 . S
C657 C659 1.327 . S
C657 C663 1.429 . S
C658 C650 1.574 . S
C658 H653 0.949 . S
C658 C664 1.368 . S
C659 C643 1.349 . S
C659 H651 0.950 . S
C659 C657 1.327 . S
C660 C648 1.349 . S
C660 H654 0.950 . S
C660 C661 1.327 . S
C661 H655 0.950 . S
C661 C660 1.327 . S
C661 C665 1.429 . S
C662 C645 1.574 . S
C662 H656 0.949 . S
C662 C666 1.368 . S
C663 C644 1.429 . S
C663 C657 1.429 . S
C663 C664 1.523 . S
C664 C645 1.368 . S
C664 C658 1.368 . S
C664 C663 1.523 . S
C665 C649 1.429 . S
C665 C661 1.429 . S
C665 C666 1.523 . S
C666 C650 1.368 . S
C666 C662 1.368 . S
C666 C665 1.523 . S
H667 C642 0.950 . S
H668 C644 0.950 . S
H669 C645 0.949 . S
H670 C647 0.950 . S
H671 C649 0.950 . S
C672 C673 1.349 . S
C672 C674 1.327 . S
C672 H697 0.950 . S
C673 C672 1.349 . S
C673 C689 1.349 . S
C674 C672 1.327 . S
C674 C693 1.429 . S
C674 H698 0.950 . S
C675 C692 1.574 . S
C675 C694 1.368 . S
C675 H699 0.949 . S
H676 C680 0.949 . S
C677 C678 1.349 . S
C677 C679 1.327 . S
C677 H700 0.950 . S
C678 C677 1.349 . S
C678 C690 1.349 . S
C679 C677 1.327 . S
C679 C695 1.429 . S
C679 H701 0.950 . S
C680 H676 0.949 . S
C680 C688 1.574 . S
C680 C696 1.368 . S
H681 C689 0.950 . S
H682 C687 0.950 . S
H683 C688 0.949 . S
H684 C690 0.950 . S
H685 C691 0.950 . S
H686 C692 0.949 . S
C687 H682 0.950 . S
C687 C689 1.327 . S
C687 C693 1.429 . S
C688 C680 1.574 . S
C688 H683 0.949 . S
C688 C694 1.368 . S
C689 C673 1.349 . S
C689 H681 0.950 . S
C689 C687 1.327 . S
C690 C678 1.349 . S
C690 H684 0.950 . S
C690 C691 1.327 . S
C691 H685 0.950 . S
C691 C690 1.327 . S
C691 C695 1.429 . S
C692 C675 1.574 . S
C692 H686 0.949 . S
C692 C696 1.368 . S
C693 C674 1.429 . S
C693 C687 1.429 . S
C693 C694 1.523 . S
C694 C675 1.368 . S
C694 C688 1.368 . S
C694 C693 1.523 . S
C695 C679 1.429 . S
C695 C691 1.429 . S
C695 C696 1.523 . S
C696 C680 1.368 . S
C696 C692 1.368 . S
C696 C695 1.523 . S
H697 C672 0.950 . S
H698 C674 0.950 . S
H699 C675 0.949 . S
H700 C677 0.950 . S
H701 C679 0.950 . S
C702 C703 1.349 . S
C702 C704 1.327 . S
C702 H727 0.950 . S
C703 C702 1.349 . S
C703 C719 1.349 . S
C704 C702 1.327 . S
C704 C723 1.429 . S
C704 H728 0.950 . S
C705 C722 1.574 . S
C705 C724 1.368 . S
C705 H729 0.949 . S
H706 C710 0.949 . S
C707 C708 1.349 . S
C707 C709 1.327 . S
C707 H730 0.950 1_554 S
C708 C707 1.349 . S
C708 C720 1.349 . S
C709 C707 1.327 . S
C709 C725 1.429 . S
C709 H731 0.950 . S
C710 H706 0.949 . S
C710 C718 1.574 . S
C710 C726 1.368 . S
H711 C719 0.950 . S
H712 C717 0.950 . S
H713 C718 0.949 . S
H714 C720 0.950 . S
H715 C721 0.950 . S
H716 C722 0.949 . S
C717 H712 0.950 . S
C717 C719 1.327 . S
C717 C723 1.429 . S
C718 C710 1.574 . S
C718 H713 0.949 . S
C718 C724 1.368 . S
C719 C703 1.349 . S
C719 H711 0.950 . S
C719 C717 1.327 . S
C720 C708 1.349 . S
C720 H714 0.950 . S
C720 C721 1.327 . S
C721 H715 0.950 . S
C721 C720 1.327 . S
C721 C725 1.429 . S
C722 C705 1.574 . S
C722 H716 0.949 . S
C722 C726 1.368 . S
C723 C704 1.429 . S
C723 C717 1.429 . S
C723 C724 1.523 . S
C724 C705 1.368 . S
C724 C718 1.368 . S
C724 C723 1.523 . S
C725 C709 1.429 . S
C725 C721 1.429 . S
C725 C726 1.523 . S
C726 C710 1.368 . S
C726 C722 1.368 . S
C726 C725 1.523 . S
H727 C702 0.950 . S
H728 C704 0.950 . S
H729 C705 0.949 . S
H730 C707 0.950 1_556 S
H731 C709 0.950 . S
C732 C733 1.349 . S
C732 C734 1.327 . S
C732 H757 0.950 . S
C733 C732 1.349 . S
C733 C749 1.349 . S
C734 C732 1.327 . S
C734 C753 1.429 . S
C734 H758 0.950 . S
C735 C752 1.574 . S
C735 C754 1.368 . S
C735 H759 0.949 . S
H736 C740 0.949 . S
C737 C738 1.349 . S
C737 C739 1.327 . S
C737 H760 0.950 . S
C738 C737 1.349 . S
C738 C750 1.349 . S
C739 C737 1.327 . S
C739 C755 1.429 . S
C739 H761 0.950 . S
C740 H736 0.949 . S
C740 C748 1.574 . S
C740 C756 1.368 . S
H741 C749 0.950 . S
H742 C747 0.950 . S
H743 C748 0.949 . S
H744 C750 0.950 . S
H745 C751 0.950 . S
H746 C752 0.949 . S
C747 H742 0.950 . S
C747 C749 1.327 . S
C747 C753 1.429 . S
C748 C740 1.574 . S
C748 H743 0.949 . S
C748 C754 1.368 . S
C749 C733 1.349 . S
C749 H741 0.950 . S
C749 C747 1.327 . S
C750 C738 1.349 . S
C750 H744 0.950 . S
C750 C751 1.327 . S
C751 H745 0.950 . S
C751 C750 1.327 . S
C751 C755 1.429 . S
C752 C735 1.574 . S
C752 H746 0.949 . S
C752 C756 1.368 . S
C753 C734 1.429 . S
C753 C747 1.429 . S
C753 C754 1.523 . S
C754 C735 1.368 . S
C754 C748 1.368 . S
C754 C753 1.523 . S
C755 C739 1.429 . S
C755 C751 1.429 . S
C755 C756 1.523 . S
C756 C740 1.368 . S
C756 C752 1.368 . S
C756 C755 1.523 . S
H757 C732 0.950 . S
H758 C734 0.950 . S
H759 C735 0.949 . S
H760 C737 0.950 . S
H761 C739 0.950 . S
C762 C763 1.349 . S
C762 C764 1.327 . S
C762 H787 0.950 . S
C763 C762 1.349 . S
C763 C779 1.349 . S
C764 C762 1.327 . S
C764 C783 1.429 . S
C764 H788 0.950 . S
C765 C782 1.574 . S
C765 C784 1.368 . S
C765 H789 0.949 . S
H766 C770 0.949 . S
C767 C768 1.349 . S
C767 C769 1.327 . S
C767 H790 0.950 1_554 S
C768 C767 1.349 . S
C768 C780 1.349 . S
C769 C767 1.327 . S
C769 C785 1.429 . S
C769 H791 0.950 . S
C770 H766 0.949 . S
C770 C778 1.574 . S
C770 C786 1.368 . S
H771 C779 0.950 . S
H772 C777 0.950 . S
H773 C778 0.949 . S
H774 C780 0.950 . S
H775 C781 0.950 . S
H776 C782 0.949 . S
C777 H772 0.950 . S
C777 C779 1.327 . S
C777 C783 1.429 . S
C778 C770 1.574 . S
C778 H773 0.949 . S
C778 C784 1.368 . S
C779 C763 1.349 . S
C779 H771 0.950 . S
C779 C777 1.327 . S
C780 C768 1.349 . S
C780 H774 0.950 . S
C780 C781 1.327 . S
C781 H775 0.950 . S
C781 C780 1.327 . S
C781 C785 1.429 . S
C782 C765 1.574 . S
C782 H776 0.949 . S
C782 C786 1.368 . S
C783 C764 1.429 . S
C783 C777 1.429 . S
C783 C784 1.523 . S
C784 C765 1.368 . S
C784 C778 1.368 . S
C784 C783 1.523 . S
C785 C769 1.429 . S
C785 C781 1.429 . S
C785 C786 1.523 . S
C786 C770 1.368 . S
C786 C782 1.368 . S
C786 C785 1.523 . S
H787 C762 0.950 . S
H788 C764 0.950 . S
H789 C765 0.949 . S
H790 C767 0.950 1_556 S
H791 C769 0.950 . S
C792 C793 1.349 . S
C792 C794 1.327 . S
C792 H817 0.950 . S
C793 C792 1.349 . S
C793 C809 1.349 . S
C794 C792 1.327 . S
C794 C813 1.429 . S
C794 H818 0.950 . S
C795 C812 1.574 . S
C795 C814 1.368 . S
C795 H819 0.949 . S
H796 C800 0.949 . S
C797 C798 1.349 . S
C797 C799 1.327 . S
C797 H820 0.950 . S
C798 C797 1.349 . S
C798 C810 1.349 . S
C799 C797 1.327 . S
C799 C815 1.429 . S
C799 H821 0.950 . S
C800 H796 0.949 . S
C800 C808 1.574 . S
C800 C816 1.368 . S
H801 C809 0.950 . S
H802 C807 0.950 . S
H803 C808 0.949 . S
H804 C810 0.950 . S
H805 C811 0.950 . S
H806 C812 0.949 . S
C807 H802 0.950 . S
C807 C809 1.327 . S
C807 C813 1.429 . S
C808 C800 1.574 . S
C808 H803 0.949 . S
C808 C814 1.368 . S
C809 C793 1.349 . S
C809 H801 0.950 . S
C809 C807 1.327 . S
C810 C798 1.349 . S
C810 H804 0.950 . S
C810 C811 1.327 . S
C811 H805 0.950 . S
C811 C810 1.327 . S
C811 C815 1.429 . S
C812 C795 1.574 . S
C812 H806 0.949 . S
C812 C816 1.368 . S
C813 C794 1.429 . S
C813 C807 1.429 . S
C813 C814 1.523 . S
C814 C795 1.368 . S
C814 C808 1.368 . S
C814 C813 1.523 . S
C815 C799 1.429 . S
C815 C811 1.429 . S
C815 C816 1.523 . S
C816 C800 1.368 . S
C816 C812 1.368 . S
C816 C815 1.523 . S
H817 C792 0.950 . S
H818 C794 0.950 . S
H819 C795 0.949 . S
H820 C797 0.950 . S
H821 C799 0.950 . S
C822 C823 1.349 . S
C822 C824 1.327 . S
C822 H847 0.950 . S
C823 C822 1.349 . S
C823 C839 1.349 . S
C824 C822 1.327 . S
C824 C843 1.429 . S
C824 H848 0.950 . S
C825 C842 1.574 . S
C825 C844 1.368 . S
C825 H849 0.949 . S
H826 C830 0.949 . S
C827 C828 1.349 . S
C827 C829 1.327 . S
C827 H850 0.950 . S
C828 C827 1.349 . S
C828 C840 1.349 . S
C829 C827 1.327 . S
C829 C845 1.429 . S
C829 H851 0.950 . S
C830 H826 0.949 . S
C830 C838 1.574 . S
C830 C846 1.368 . S
H831 C839 0.950 . S
H832 C837 0.950 . S
H833 C838 0.949 . S
H834 C840 0.950 . S
H835 C841 0.950 . S
H836 C842 0.949 . S
C837 H832 0.950 . S
C837 C839 1.327 . S
C837 C843 1.429 . S
C838 C830 1.574 . S
C838 H833 0.949 . S
C838 C844 1.368 . S
C839 C823 1.349 . S
C839 H831 0.950 . S
C839 C837 1.327 . S
C840 C828 1.349 . S
C840 H834 0.950 . S
C840 C841 1.327 . S
C841 H835 0.950 . S
C841 C840 1.327 . S
C841 C845 1.429 . S
C842 C825 1.574 . S
C842 H836 0.949 . S
C842 C846 1.368 . S
C843 C824 1.429 . S
C843 C837 1.429 . S
C843 C844 1.523 . S
C844 C825 1.368 . S
C844 C838 1.368 . S
C844 C843 1.523 . S
C845 C829 1.429 . S
C845 C841 1.429 . S
C845 C846 1.523 . S
C846 C830 1.368 . S
C846 C842 1.368 . S
C846 C845 1.523 . S
H847 C822 0.950 . S
H848 C824 0.950 . S
H849 C825 0.949 . S
H850 C827 0.950 . S
H851 C829 0.950 . S
C852 C853 1.349 . S
C852 C854 1.327 . S
C852 H877 0.950 . S
C853 C852 1.349 . S
C853 C869 1.349 . S
C854 C852 1.327 . S
C854 C873 1.429 . S
C854 H878 0.916 1_565 S
C855 C872 1.574 . S
C855 C874 1.368 . S
C855 H879 0.949 . S
H856 C860 0.949 . S
C857 C858 1.349 . S
C857 C859 1.327 . S
C857 H880 0.950 . S
C858 C857 1.349 . S
C858 C870 1.349 . S
C859 C857 1.327 . S
C859 C875 1.429 . S
C859 H881 0.950 . S
C860 H856 0.949 . S
C860 C868 1.574 . S
C860 C876 1.368 . S
H861 C869 0.950 . S
H862 C867 0.950 . S
H863 C868 0.949 . S
H864 C870 0.950 . S
H865 C871 0.950 . S
H866 C872 0.949 . S
C867 H862 0.950 . S
C867 C869 1.327 . S
C867 C873 1.429 . S
C868 C860 1.574 . S
C868 H863 0.949 . S
C868 C874 1.368 1_545 S
C869 C853 1.349 . S
C869 H861 0.950 . S
C869 C867 1.327 . S
C870 C858 1.349 . S
C870 H864 0.950 . S
C870 C871 1.327 . S
C871 H865 0.950 . S
C871 C870 1.327 . S
C871 C875 1.429 . S
C872 C855 1.574 . S
C872 H866 0.949 . S
C872 C876 1.368 1_565 S
C873 C854 1.429 . S
C873 C867 1.429 . S
C873 C874 1.523 . S
C874 C855 1.368 . S
C874 C868 1.368 1_565 S
C874 C873 1.523 . S
C875 C859 1.429 . S
C875 C871 1.429 . S
C875 C876 1.523 . S
C876 C860 1.368 . S
C876 C872 1.368 1_545 S
C876 C875 1.523 . S
H877 C852 0.950 . S
H878 C854 0.916 1_545 S
H879 C855 0.949 . S
H880 C857 0.950 . S
H881 C859 0.950 . S
C882 C883 1.349 . S
C882 C884 1.327 . S
C882 H907 0.950 . S
C883 C882 1.349 . S
C883 C899 1.349 . S
C884 C882 1.327 . S
C884 C903 1.429 . S
C884 H908 0.950 . S
C885 C902 1.574 . S
C885 C904 1.368 . S
C885 H909 0.949 . S
H886 C890 0.949 . S
C887 C888 1.349 . S
C887 C889 1.327 . S
C887 H910 0.950 . S
C888 C887 1.349 . S
C888 C900 1.349 1_556 S
C889 C887 1.327 . S
C889 C905 1.429 1_556 S
C889 H911 0.950 . S
C890 H886 0.949 . S
C890 C898 1.574 . S
C890 C906 1.368 . S
H891 C899 0.950 . S
H892 C897 0.950 . S
H893 C898 0.949 . S
H894 C900 0.950 . S
H895 C901 0.950 . S
H896 C902 0.949 . S
C897 H892 0.950 . S
C897 C899 1.327 . S
C897 C903 1.429 . S
C898 C890 1.574 . S
C898 H893 0.949 . S
C898 C904 1.368 . S
C899 C883 1.349 . S
C899 H891 0.950 . S
C899 C897 1.327 . S
C900 C888 1.349 1_554 S
C900 H894 0.950 . S
C900 C901 1.327 . S
C901 H895 0.950 . S
C901 C900 1.327 . S
C901 C905 1.429 . S
C902 C885 1.574 . S
C902 H896 0.949 . S
C902 C906 1.368 . S
C903 C884 1.429 . S
C903 C897 1.429 . S
C903 C904 1.523 . S
C904 C885 1.368 . S
C904 C898 1.368 . S
C904 C903 1.523 . S
C905 C889 1.429 1_554 S
C905 C901 1.429 . S
C905 C906 1.523 . S
C906 C890 1.368 . S
C906 C902 1.368 . S
C906 C905 1.523 . S
H907 C882 0.950 . S
H908 C884 0.950 . S
H909 C885 0.949 . S
H910 C887 0.950 . S
H911 C889 0.950 . S
C912 C913 1.349 1_554 S
C912 C914 1.327 . S
C912 H937 0.950 . S
C913 C912 1.349 1_556 S
C913 C929 1.349 . S
C914 C912 1.327 . S
C914 C933 1.429 . S
C914 H938 0.950 . S
C915 C932 1.574 . S
C915 C934 1.368 . S
C915 H939 0.945 1_454 S
H916 C920 0.949 . S
C917 C918 1.349 . S
C917 C919 1.327 . S
C917 H940 0.950 . S
C918 C917 1.349 . S
C918 C930 1.349 . S
C919 C917 1.327 . S
C919 C935 1.429 . S
C919 H941 0.950 . S
C920 H916 0.949 . S
C920 C928 1.574 . S
C920 C936 1.368 . S
H921 C929 0.950 . S
H922 C927 0.950 . S
H923 C928 0.949 . S
H924 C930 0.950 . S
H925 C931 0.950 . S
H926 C932 0.949 . S
C927 H922 0.950 . S
C927 C929 1.327 . S
C927 C933 1.429 1_556 S
C928 C920 1.574 . S
C928 H923 0.949 . S
C928 C934 1.368 . S
C929 C913 1.349 . S
C929 H921 0.950 . S
C929 C927 1.327 . S
C930 C918 1.349 . S
C930 H924 0.950 . S
C930 C931 1.327 . S
C931 H925 0.950 . S
C931 C930 1.327 . S
C931 C935 1.429 . S
C932 C915 1.574 . S
C932 H926 0.949 . S
C932 C936 1.368 . S
C933 C914 1.429 . S
C933 C927 1.429 1_554 S
C933 C934 1.523 1_655 S
C934 C915 1.368 . S
C934 C928 1.368 . S
C934 C933 1.523 1_455 S
C935 C919 1.429 . S
C935 C931 1.429 . S
C935 C936 1.523 . S
C936 C920 1.368 . S
C936 C932 1.368 . S
C936 C935 1.523 . S
H937 C912 0.950 . S
H938 C914 0.950 . S
H939 C915 0.945 1_656 S
H940 C917 0.950 . S
H941 C919 0.950 . S
C942 C943 1.347 1_554 S
C942 C944 1.330 . S
C942 H967 0.949 1_554 S
C943 C942 1.347 1_556 S
C943 C959 1.349 . S
C944 C942 1.330 . S
C944 C963 1.429 . S
C944 H968 0.950 . S
C945 C962 1.574 . S
C945 C964 1.368 . S
C945 H969 0.949 . S
H946 C950 0.949 . S
C947 C948 1.349 . S
C947 C949 1.327 . S
C947 H970 0.950 . S
C948 C947 1.349 . S
C948 C960 1.349 . S
C949 C947 1.327 . S
C949 C965 1.429 . S
C949 H971 0.950 . S
C950 H946 0.949 . S
C950 C958 1.574 . S
C950 C966 1.368 . S
H951 C959 0.950 . S
H952 C957 0.950 . S
H953 C958 0.949 . S
H954 C960 0.950 . S
H955 C961 0.950 . S
H956 C962 0.949 . S
C957 H952 0.950 . S
C957 C959 1.327 1_554 S
C957 C963 1.429 . S
C958 C950 1.574 . S
C958 H953 0.949 . S
C958 C964 1.368 . S
C959 C943 1.349 . S
C959 H951 0.950 . S
C959 C957 1.327 1_556 S
C960 C948 1.349 . S
C960 H954 0.950 . S
C960 C961 1.327 . S
C961 H955 0.950 . S
C961 C960 1.327 . S
C961 C965 1.429 . S
C962 C945 1.574 . S
C962 H956 0.949 . S
C962 C966 1.368 . S
C963 C944 1.429 . S
C963 C957 1.429 . S
C963 C964 1.523 . S
C964 C945 1.368 . S
C964 C958 1.368 . S
C964 C963 1.523 . S
C965 C949 1.429 . S
C965 C961 1.429 . S
C965 C966 1.523 . S
C966 C950 1.368 . S
C966 C962 1.368 . S
C966 C965 1.523 . S
H967 C942 0.949 1_556 S
H968 C944 0.950 . S
H969 C945 0.949 . S
H970 C947 0.950 . S
H971 C949 0.950 . S
C972 C973 1.349 . S
C972 C974 1.327 . S
C972 H997 0.950 . S
C973 C972 1.349 . S
C973 C989 1.349 . S
C974 C972 1.327 . S
C974 C993 1.429 . S
C974 H998 0.950 1_655 S
C975 C992 1.574 . S
C975 C994 1.368 . S
C975 H999 0.949 1_455 S
H976 C980 0.949 . S
C977 C978 1.349 . S
C977 C979 1.327 . S
C977 H1000 0.950 . S
C978 C977 1.349 . S
C978 C990 1.349 . S
C979 C977 1.327 . S
C979 C995 1.429 . S
C979 H1001 0.950 . S
C980 H976 0.949 . S
C980 C988 1.574 . S
C980 C996 1.368 . S
H981 C989 0.950 . S
H982 C987 0.950 . S
H983 C988 0.949 . S
H984 C990 0.950 . S
H985 C991 0.950 . S
H986 C992 0.949 . S
C987 H982 0.950 . S
C987 C989 1.327 . S
C987 C993 1.429 . S
C988 C980 1.574 . S
C988 H983 0.949 . S
C988 C994 1.368 . S
C989 C973 1.349 . S
C989 H981 0.950 . S
C989 C987 1.327 . S
C990 C978 1.349 . S
C990 H984 0.950 . S
C990 C991 1.327 . S
C991 H985 0.950 . S
C991 C990 1.327 . S
C991 C995 1.429 . S
C992 C975 1.574 . S
C992 H986 0.949 . S
C992 C996 1.368 . S
C993 C974 1.429 . S
C993 C987 1.429 . S
C993 C994 1.523 1_655 S
C994 C975 1.368 . S
C994 C988 1.368 . S
C994 C993 1.523 1_455 S
C995 C979 1.429 . S
C995 C991 1.429 . S
C995 C996 1.523 . S
C996 C980 1.368 . S
C996 C992 1.368 . S
C996 C995 1.523 . S
H997 C972 0.950 . S
H998 C974 0.950 1_455 S
H999 C975 0.949 1_655 S
H1000 C977 0.950 . S
H1001 C979 0.950 . S
C1002 C1003 1.349 . S
C1002 C1004 1.327 . S
C1002 H1027 0.950 . S
C1003 C1002 1.349 . S
C1003 C1019 1.349 . S
C1004 C1002 1.327 . S
C1004 C1023 1.429 . S
C1004 H1028 0.950 . S
C1005 C1022 1.574 . S
C1005 C1024 1.368 . S
C1005 H1029 0.949 . S
H1006 C1010 0.949 . S
C1007 C1008 1.349 . S
C1007 C1009 1.327 . S
C1007 H1030 0.950 . S
C1008 C1007 1.349 . S
C1008 C1020 1.349 . S
C1009 C1007 1.327 . S
C1009 C1025 1.429 . S
C1009 H1031 0.950 . S
C1010 H1006 0.949 . S
C1010 C1018 1.574 . S
C1010 C1026 1.368 . S
H1011 C1019 0.950 . S
H1012 C1017 0.950 . S
H1013 C1018 0.949 . S
H1014 C1020 0.950 . S
H1015 C1021 0.950 . S
H1016 C1022 0.949 . S
C1017 H1012 0.950 . S
C1017 C1019 1.327 . S
C1017 C1023 1.429 . S
C1018 C1010 1.574 . S
C1018 H1013 0.949 . S
C1018 C1024 1.368 . S
C1019 C1003 1.349 . S
C1019 H1011 0.950 . S
C1019 C1017 1.327 . S
C1020 C1008 1.349 . S
C1020 H1014 0.950 . S
C1020 C1021 1.327 . S
C1021 H1015 0.950 . S
C1021 C1020 1.327 . S
C1021 C1025 1.429 . S
C1022 C1005 1.574 . S
C1022 H1016 0.949 . S
C1022 C1026 1.368 . S
C1023 C1004 1.429 . S
C1023 C1017 1.429 . S
C1023 C1024 1.523 . S
C1024 C1005 1.368 . S
C1024 C1018 1.368 . S
C1024 C1023 1.523 . S
C1025 C1009 1.429 . S
C1025 C1021 1.429 . S
C1025 C1026 1.523 . S
C1026 C1010 1.368 . S
C1026 C1022 1.368 . S
C1026 C1025 1.523 . S
H1027 C1002 0.950 . S
H1028 C1004 0.950 . S
H1029 C1005 0.949 . S
H1030 C1007 0.950 . S
H1031 C1009 0.950 . S
C1032 C1033 1.349 . S
C1032 C1034 1.327 . S
C1032 H1057 0.950 . S
C1033 C1032 1.349 . S
C1033 C1049 1.349 . S
C1034 C1032 1.327 . S
C1034 C1053 1.429 . S
C1034 H1058 0.950 . S
C1035 C1052 1.574 . S
C1035 C1054 1.368 . S
C1035 H1059 0.949 . S
H1036 C1040 0.949 . S
C1037 C1038 1.349 . S
C1037 C1039 1.327 . S
C1037 H1060 0.950 . S
C1038 C1037 1.349 . S
C1038 C1050 1.349 . S
C1039 C1037 1.327 . S
C1039 C1055 1.429 . S
C1039 H1061 0.950 . S
C1040 H1036 0.949 . S
C1040 C1048 1.574 . S
C1040 C1056 1.368 . S
H1041 C1049 0.950 . S
H1042 C1047 0.950 . S
H1043 C1048 0.949 . S
H1044 C1050 0.950 . S
H1045 C1051 0.950 . S
H1046 C1052 0.949 . S
C1047 H1042 0.950 . S
C1047 C1049 1.327 . S
C1047 C1053 1.429 . S
C1048 C1040 1.574 . S
C1048 H1043 0.949 . S
C1048 C1054 1.368 . S
C1049 C1033 1.349 . S
C1049 H1041 0.950 . S
C1049 C1047 1.327 . S
C1050 C1038 1.349 . S
C1050 H1044 0.950 . S
C1050 C1051 1.327 . S
C1051 H1045 0.950 . S
C1051 C1050 1.327 . S
C1051 C1055 1.429 . S
C1052 C1035 1.574 . S
C1052 H1046 0.949 . S
C1052 C1056 1.368 . S
C1053 C1034 1.429 . S
C1053 C1047 1.429 . S
C1053 C1054 1.523 . S
C1054 C1035 1.368 . S
C1054 C1048 1.368 . S
C1054 C1053 1.523 . S
C1055 C1039 1.429 . S
C1055 C1051 1.429 . S
C1055 C1056 1.523 . S
C1056 C1040 1.368 . S
C1056 C1052 1.368 . S
C1056 C1055 1.523 . S
H1057 C1032 0.950 . S
H1058 C1034 0.950 . S
H1059 C1035 0.949 . S
H1060 C1037 0.950 . S
H1061 C1039 0.950 . S
C1062 C1063 1.349 1_556 S
C1062 C1064 1.327 . S
C1062 H1087 0.950 . S
C1063 C1062 1.349 1_554 S
C1063 C1079 1.349 . S
C1064 C1062 1.327 . S
C1064 C1083 1.429 . S
C1064 H1088 0.950 . S
C1065 C1082 1.574 1_565 S
C1065 C1084 1.368 . S
C1065 H1089 0.949 . S
H1066 C1070 0.949 . S
C1067 C1068 1.349 . S
C1067 C1069 1.327 . S
C1067 H1090 0.950 . S
C1068 C1067 1.349 . S
C1068 C1080 1.349 . S
C1069 C1067 1.327 . S
C1069 C1085 1.429 . S
C1069 H1091 0.950 . S
C1070 H1066 0.949 . S
C1070 C1078 1.574 . S
C1070 C1086 1.368 . S
H1071 C1079 0.950 . S
H1072 C1077 0.950 . S
H1073 C1078 0.949 . S
H1074 C1080 0.950 . S
H1075 C1081 0.950 . S
H1076 C1082 0.945 . S
C1077 H1072 0.950 . S
C1077 C1079 1.327 . S
C1077 C1083 1.429 1_554 S
C1078 C1070 1.574 . S
C1078 H1073 0.949 . S
C1078 C1084 1.368 1_545 S
C1079 C1063 1.349 . S
C1079 H1071 0.950 . S
C1079 C1077 1.327 . S
C1080 C1068 1.349 . S
C1080 H1074 0.950 . S
C1080 C1081 1.327 . S
C1081 H1075 0.950 . S
C1081 C1080 1.327 . S
C1081 C1085 1.429 . S
C1082 C1065 1.574 1_545 S
C1082 H1076 0.945 . S
C1082 C1086 1.387 . S
C1083 C1064 1.429 . S
C1083 C1077 1.429 1_556 S
C1083 C1084 1.523 . S
C1084 C1065 1.368 . S
C1084 C1078 1.368 1_565 S
C1084 C1083 1.523 . S
C1085 C1069 1.429 . S
C1085 C1081 1.429 . S
C1085 C1086 1.523 . S
C1086 C1070 1.368 . S
C1086 C1082 1.387 . S
C1086 C1085 1.523 . S
H1087 C1062 0.950 . S
H1088 C1064 0.950 . S
H1089 C1065 0.949 . S
H1090 C1067 0.950 . S
H1091 C1069 0.950 . S
C1092 C1093 1.349 . S
C1092 C1094 1.327 . S
C1092 H1117 0.950 . S
C1093 C1092 1.349 . S
C1093 C1109 1.349 . S
C1094 C1092 1.327 . S
C1094 C1113 1.429 . S
C1094 H1118 0.950 . S
C1095 C1112 1.574 . S
C1095 C1114 1.368 . S
C1095 H1119 0.949 . S
H1096 C1100 0.949 . S
C1097 C1098 1.349 1_556 S
C1097 C1099 1.327 . S
C1097 H1120 0.950 . S
C1098 C1097 1.349 1_554 S
C1098 C1110 1.349 . S
C1099 C1097 1.327 . S
C1099 C1115 1.429 . S
C1099 H1121 0.950 . S
C1100 H1096 0.949 . S
C1100 C1108 1.574 . S
C1100 C1116 1.368 . S
H1101 C1109 0.950 . S
H1102 C1107 0.950 . S
H1103 C1108 0.949 . S
H1104 C1110 0.950 . S
H1105 C1111 0.950 . S
H1106 C1112 0.949 . S
C1107 H1102 0.950 . S
C1107 C1109 1.327 . S
C1107 C1113 1.429 . S
C1108 C1100 1.574 . S
C1108 H1103 0.949 . S
C1108 C1114 1.368 . S
C1109 C1093 1.349 . S
C1109 H1101 0.950 . S
C1109 C1107 1.327 . S
C1110 C1098 1.349 . S
C1110 H1104 0.950 . S
C1110 C1111 1.327 . S
C1111 H1105 0.950 . S
C1111 C1110 1.327 . S
C1111 C1115 1.429 1_554 S
C1112 C1095 1.574 . S
C1112 H1106 0.949 . S
C1112 C1116 1.368 . S
C1113 C1094 1.429 . S
C1113 C1107 1.429 . S
C1113 C1114 1.523 . S
C1114 C1095 1.368 . S
C1114 C1108 1.368 . S
C1114 C1113 1.523 . S
C1115 C1099 1.429 . S
C1115 C1111 1.429 1_556 S
C1115 C1116 1.523 . S
C1116 C1100 1.368 . S
C1116 C1112 1.368 . S
C1116 C1115 1.523 . S
H1117 C1092 0.950 . S
H1118 C1094 0.950 . S
H1119 C1095 0.949 . S
H1120 C1097 0.950 . S
H1121 C1099 0.950 . S
C1122 C1123 1.349 . S
C1122 C1124 1.327 . S
C1122 H1147 0.950 . S
C1123 C1122 1.349 . S
C1123 C1139 1.349 . S
C1124 C1122 1.327 . S
C1124 C1143 1.429 . S
C1124 H1148 0.950 . S
C1125 C1142 1.574 . S
C1125 C1144 1.368 . S
C1125 H1149 0.949 . S
H1126 C1130 0.949 . S
C1127 C1128 1.349 1_556 S
C1127 C1129 1.327 . S
C1127 H1150 0.950 . S
C1128 C1127 1.349 1_554 S
C1128 C1140 1.349 . S
C1129 C1127 1.327 . S
C1129 C1145 1.429 . S
C1129 H1151 0.950 . S
C1130 H1126 0.949 . S
C1130 C1138 1.574 . S
C1130 C1146 1.368 . S
H1131 C1139 0.950 . S
H1132 C1137 0.950 . S
H1133 C1138 0.949 . S
H1134 C1140 0.950 . S
H1135 C1141 0.950 1_554 S
H1136 C1142 0.949 . S
C1137 H1132 0.950 . S
C1137 C1139 1.327 . S
C1137 C1143 1.429 . S
C1138 C1130 1.574 . S
C1138 H1133 0.949 . S
C1138 C1144 1.368 . S
C1139 C1123 1.349 . S
C1139 H1131 0.950 . S
C1139 C1137 1.327 . S
C1140 C1128 1.349 . S
C1140 H1134 0.950 . S
C1140 C1141 1.327 1_554 S
C1141 H1135 0.950 1_556 S
C1141 C1140 1.327 1_556 S
C1141 C1145 1.429 . S
C1142 C1125 1.574 . S
C1142 H1136 0.949 . S
C1142 C1146 1.368 . S
C1143 C1124 1.429 . S
C1143 C1137 1.429 . S
C1143 C1144 1.523 . S
C1144 C1125 1.368 . S
C1144 C1138 1.368 . S
C1144 C1143 1.523 . S
C1145 C1129 1.429 . S
C1145 C1141 1.429 . S
C1145 C1146 1.523 . S
C1146 C1130 1.368 . S
C1146 C1142 1.368 . S
C1146 C1145 1.523 . S
H1147 C1122 0.950 . S
H1148 C1124 0.950 . S
H1149 C1125 0.949 . S
H1150 C1127 0.950 . S
H1151 C1129 0.950 . S
C1152 C1153 1.349 . S
C1152 C1154 1.327 . S
C1152 H1177 0.950 . S
C1153 C1152 1.349 . S
C1153 C1169 1.349 . S
C1154 C1152 1.327 . S
C1154 C1173 1.429 . S
C1154 H1178 0.950 . S
C1155 C1172 1.574 . S
C1155 C1174 1.368 . S
C1155 H1179 0.949 . S
H1156 C1160 0.949 . S
C1157 C1158 1.349 . S
C1157 C1159 1.327 . S
C1157 H1180 0.950 . S
C1158 C1157 1.349 . S
C1158 C1170 1.349 . S
C1159 C1157 1.327 . S
C1159 C1175 1.429 . S
C1159 H1181 0.950 . S
C1160 H1156 0.949 . S
C1160 C1168 1.574 . S
C1160 C1176 1.368 . S
H1161 C1169 0.950 1_565 S
H1162 C1167 0.950 . S
H1163 C1168 0.949 . S
H1164 C1170 0.950 . S
H1165 C1171 0.950 . S
H1166 C1172 0.949 . S
C1167 H1162 0.950 . S
C1167 C1169 1.327 . S
C1167 C1173 1.429 . S
C1168 C1160 1.574 . S
C1168 H1163 0.949 . S
C1168 C1174 1.368 . S
C1169 C1153 1.349 . S
C1169 H1161 0.950 1_545 S
C1169 C1167 1.327 . S
C1170 C1158 1.349 . S
C1170 H1164 0.950 . S
C1170 C1171 1.327 . S
C1171 H1165 0.950 . S
C1171 C1170 1.327 . S
C1171 C1175 1.429 . S
C1172 C1155 1.574 . S
C1172 H1166 0.949 . S
C1172 C1176 1.368 . S
C1173 C1154 1.429 . S
C1173 C1167 1.429 . S
C1173 C1174 1.523 . S
C1174 C1155 1.368 . S
C1174 C1168 1.368 . S
C1174 C1173 1.523 . S
C1175 C1159 1.429 . S
C1175 C1171 1.429 . S
C1175 C1176 1.523 . S
C1176 C1160 1.368 . S
C1176 C1172 1.368 . S
C1176 C1175 1.523 . S
H1177 C1152 0.950 . S
H1178 C1154 0.950 . S
H1179 C1155 0.949 . S
H1180 C1157 0.950 . S
H1181 C1159 0.950 . S
C1182 C1183 1.349 . S
C1182 C1184 1.327 . S
C1182 H1207 0.950 . S
C1183 C1182 1.349 . S
C1183 C1199 1.349 . S
C1184 C1182 1.327 . S
C1184 C1203 1.429 . S
C1184 H1208 0.950 . S
C1185 C1202 1.574 . S
C1185 C1204 1.368 . S
C1185 H1209 0.949 . S
H1186 C1190 0.949 . S
C1187 C1188 1.349 . S
C1187 C1189 1.327 . S
C1187 H1210 0.950 . S
C1188 C1187 1.349 . S
C1188 C1200 1.349 . S
C1189 C1187 1.327 . S
C1189 C1205 1.429 . S
C1189 H1211 0.950 . S
C1190 H1186 0.949 . S
C1190 C1198 1.574 . S
C1190 C1206 1.368 . S
H1191 C1199 0.950 . S
H1192 C1197 0.950 . S
H1193 C1198 0.949 . S
H1194 C1200 0.950 . S
H1195 C1201 0.950 . S
H1196 C1202 0.949 . S
C1197 H1192 0.950 . S
C1197 C1199 1.327 . S
C1197 C1203 1.429 . S
C1198 C1190 1.574 . S
C1198 H1193 0.949 . S
C1198 C1204 1.368 . S
C1199 C1183 1.349 . S
C1199 H1191 0.950 . S
C1199 C1197 1.327 . S
C1200 C1188 1.349 . S
C1200 H1194 0.950 . S
C1200 C1201 1.327 . S
C1201 H1195 0.950 . S
C1201 C1200 1.327 . S
C1201 C1205 1.429 . S
C1202 C1185 1.574 . S
C1202 H1196 0.949 . S
C1202 C1206 1.368 . S
C1203 C1184 1.429 . S
C1203 C1197 1.429 . S
C1203 C1204 1.523 . S
C1204 C1185 1.368 . S
C1204 C1198 1.368 . S
C1204 C1203 1.523 . S
C1205 C1189 1.429 . S
C1205 C1201 1.429 . S
C1205 C1206 1.523 . S
C1206 C1190 1.368 . S
C1206 C1202 1.368 . S
C1206 C1205 1.523 . S
H1207 C1182 0.950 . S
H1208 C1184 0.950 . S
H1209 C1185 0.949 . S
H1210 C1187 0.950 . S
H1211 C1189 0.950 . S
C1212 C1213 1.349 . S
C1212 C1214 1.327 . S
C1212 H1237 0.950 . S
C1213 C1212 1.349 . S
C1213 C1229 1.349 . S
C1214 C1212 1.327 . S
C1214 C1233 1.429 . S
C1214 H1238 0.950 . S
C1215 C1232 1.574 . S
C1215 C1234 1.368 . S
C1215 H1239 0.949 . S
H1216 C1220 0.949 . S
C1217 C1218 1.349 . S
C1217 C1219 1.327 . S
C1217 H1240 0.950 . S
C1218 C1217 1.349 . S
C1218 C1230 1.349 . S
C1219 C1217 1.327 . S
C1219 C1235 1.429 . S
C1219 H1241 0.950 . S
C1220 H1216 0.949 . S
C1220 C1228 1.574 . S
C1220 C1236 1.368 . S
H1221 C1229 0.950 . S
H1222 C1227 0.950 . S
H1223 C1228 0.949 . S
H1224 C1230 0.950 . S
H1225 C1231 0.950 . S
H1226 C1232 0.949 . S
C1227 H1222 0.950 . S
C1227 C1229 1.327 . S
C1227 C1233 1.429 . S
C1228 C1220 1.574 . S
C1228 H1223 0.949 . S
C1228 C1234 1.368 . S
C1229 C1213 1.349 . S
C1229 H1221 0.950 . S
C1229 C1227 1.327 . S
C1230 C1218 1.349 . S
C1230 H1224 0.950 . S
C1230 C1231 1.327 . S
C1231 H1225 0.950 . S
C1231 C1230 1.327 . S
C1231 C1235 1.429 . S
C1232 C1215 1.574 . S
C1232 H1226 0.949 . S
C1232 C1236 1.368 . S
C1233 C1214 1.429 . S
C1233 C1227 1.429 . S
C1233 C1234 1.523 . S
C1234 C1215 1.368 . S
C1234 C1228 1.368 . S
C1234 C1233 1.523 . S
C1235 C1219 1.429 . S
C1235 C1231 1.429 . S
C1235 C1236 1.523 . S
C1236 C1220 1.368 . S
C1236 C1232 1.368 . S
C1236 C1235 1.523 . S
H1237 C1212 0.950 . S
H1238 C1214 0.950 . S
H1239 C1215 0.949 . S
H1240 C1217 0.950 . S
H1241 C1219 0.950 . S
C1242 C1243 1.349 . S
C1242 C1244 1.327 . S
C1242 H1267 0.950 . S
C1243 C1242 1.349 . S
C1243 C1259 1.349 . S
C1244 C1242 1.327 . S
C1244 C1263 1.429 . S
C1244 H1268 0.950 . S
C1245 C1262 1.574 . S
C1245 C1264 1.368 . S
C1245 H1269 0.949 . S
H1246 C1250 0.949 . S
C1247 C1248 1.349 . S
C1247 C1249 1.327 . S
C1247 H1270 0.950 . S
C1248 C1247 1.349 . S
C1248 C1260 1.349 . S
C1249 C1247 1.327 . S
C1249 C1265 1.429 . S
C1249 H1271 0.950 . S
C1250 H1246 0.949 . S
C1250 C1258 1.574 . S
C1250 C1266 1.368 . S
H1251 C1259 0.950 . S
H1252 C1257 0.950 . S
H1253 C1258 0.949 . S
H1254 C1260 0.950 . S
H1255 C1261 0.950 . S
H1256 C1262 0.949 . S
C1257 H1252 0.950 . S
C1257 C1259 1.327 . S
C1257 C1263 1.429 . S
C1258 C1250 1.574 . S
C1258 H1253 0.949 . S
C1258 C1264 1.368 . S
C1259 C1243 1.349 . S
C1259 H1251 0.950 . S
C1259 C1257 1.327 . S
C1260 C1248 1.349 . S
C1260 H1254 0.950 . S
C1260 C1261 1.327 . S
C1261 H1255 0.950 . S
C1261 C1260 1.327 . S
C1261 C1265 1.429 . S
C1262 C1245 1.574 . S
C1262 H1256 0.949 . S
C1262 C1266 1.368 . S
C1263 C1244 1.429 . S
C1263 C1257 1.429 . S
C1263 C1264 1.523 . S
C1264 C1245 1.368 . S
C1264 C1258 1.368 . S
C1264 C1263 1.523 . S
C1265 C1249 1.429 . S
C1265 C1261 1.429 . S
C1265 C1266 1.523 . S
C1266 C1250 1.368 . S
C1266 C1262 1.368 . S
C1266 C1265 1.523 . S
H1267 C1242 0.950 . S
H1268 C1244 0.950 . S
H1269 C1245 0.949 . S
H1270 C1247 0.950 . S
H1271 C1249 0.950 . S
C1272 C1273 1.349 . S
C1272 C1274 1.327 . S
C1272 H1297 0.950 . S
C1273 C1272 1.349 . S
C1273 C1289 1.349 . S
C1274 C1272 1.327 . S
C1274 C1293 1.429 . S
C1274 H1298 0.950 . S
C1275 C1292 1.574 . S
C1275 C1294 1.368 . S
C1275 H1299 0.949 . S
H1276 C1280 0.949 . S
C1277 C1278 1.349 . S
C1277 C1279 1.327 . S
C1277 H1300 0.950 . S
C1278 C1277 1.349 . S
C1278 C1290 1.349 . S
C1279 C1277 1.327 . S
C1279 C1295 1.429 . S
C1279 H1301 0.950 . S
C1280 H1276 0.949 . S
C1280 C1288 1.574 . S
C1280 C1296 1.368 . S
H1281 C1289 0.950 . S
H1282 C1287 0.950 . S
H1283 C1288 0.949 . S
H1284 C1290 0.950 . S
H1285 C1291 0.950 . S
H1286 C1292 0.949 . S
C1287 H1282 0.950 . S
C1287 C1289 1.327 . S
C1287 C1293 1.429 . S
C1288 C1280 1.574 . S
C1288 H1283 0.949 . S
C1288 C1294 1.368 . S
C1289 C1273 1.349 . S
C1289 H1281 0.950 . S
C1289 C1287 1.327 . S
C1290 C1278 1.349 . S
C1290 H1284 0.950 . S
C1290 C1291 1.327 . S
C1291 H1285 0.950 . S
C1291 C1290 1.327 . S
C1291 C1295 1.429 . S
C1292 C1275 1.574 . S
C1292 H1286 0.949 . S
C1292 C1296 1.368 . S
C1293 C1274 1.429 . S
C1293 C1287 1.429 . S
C1293 C1294 1.523 . S
C1294 C1275 1.368 . S
C1294 C1288 1.368 . S
C1294 C1293 1.523 . S
C1295 C1279 1.429 . S
C1295 C1291 1.429 . S
C1295 C1296 1.523 . S
C1296 C1280 1.368 . S
C1296 C1292 1.368 . S
C1296 C1295 1.523 . S
H1297 C1272 0.950 . S
H1298 C1274 0.950 . S
H1299 C1275 0.949 . S
H1300 C1277 0.950 . S
H1301 C1279 0.950 . S
C1302 C1303 1.368 1_545 S
C1302 C1304 1.380 . S
C1302 H1327 0.880 1_545 S
C1303 C1302 1.368 1_565 S
C1303 C1319 1.349 1_565 S
C1304 C1302 1.380 . S
C1304 C1323 1.429 . S
C1304 H1328 0.950 . S
C1305 C1322 1.574 . S
C1305 C1324 1.368 . S
C1305 H1329 0.949 . S
H1306 C1310 0.949 . S
C1307 C1308 1.349 . S
C1307 C1309 1.327 . S
C1307 H1330 0.950 . S
C1308 C1307 1.349 . S
C1308 C1320 1.349 . S
C1309 C1307 1.327 . S
C1309 C1325 1.429 . S
C1309 H1331 0.950 . S
C1310 H1306 0.949 . S
C1310 C1318 1.574 . S
C1310 C1326 1.368 . S
H1311 C1319 0.950 . S
H1312 C1317 0.950 . S
H1313 C1318 0.949 . S
H1314 C1320 0.950 . S
H1315 C1321 0.950 . S
H1316 C1322 0.949 . S
C1317 H1312 0.950 . S
C1317 C1319 1.327 . S
C1317 C1323 1.429 . S
C1318 C1310 1.574 . S
C1318 H1313 0.949 . S
C1318 C1324 1.368 . S
C1319 C1303 1.349 1_545 S
C1319 H1311 0.950 . S
C1319 C1317 1.327 . S
C1320 C1308 1.349 . S
C1320 H1314 0.950 . S
C1320 C1321 1.327 . S
C1321 H1315 0.950 . S
C1321 C1320 1.327 . S
C1321 C1325 1.429 . S
C1322 C1305 1.574 . S
C1322 H1316 0.949 . S
C1322 C1326 1.368 . S
C1323 C1304 1.429 . S
C1323 C1317 1.429 . S
C1323 C1324 1.523 . S
C1324 C1305 1.368 . S
C1324 C1318 1.368 . S
C1324 C1323 1.523 . S
C1325 C1309 1.429 . S
C1325 C1321 1.429 . S
C1325 C1326 1.523 . S
C1326 C1310 1.368 . S
C1326 C1322 1.368 . S
C1326 C1325 1.523 . S
H1327 C1302 0.880 1_565 S
H1328 C1304 0.950 . S
H1329 C1305 0.949 . S
H1330 C1307 0.950 . S
H1331 C1309 0.950 . S
C253 C49 1.297 . S
C258 C7 1.297 . S
C283 C64 1.318 . S
C288 C22 1.318 . S
C313 C35 1.312 . S
C318 C77 1.313 . S
C343 C36 1.261 . S
C348 C78 1.261 . S
C373 C8 1.238 . S
C378 C50 1.238 . S
C403 C63 1.233 . S
C408 C21 1.234 . S
C433 C133 1.190 . S
C438 C92 1.201 . S
C463 C106 1.216 . S
C468 C148 1.216 . S
C493 C120 1.227 . S
C498 C161 1.216 . S
C523 C162 1.357 1_556 S
C528 C119 1.354 . S
C553 C134 1.342 1_556 S
C558 C91 1.329 . S
C583 C147 1.345 1_556 S
C588 C105 1.345 . S
C613 C175 1.296 . S
C618 C217 1.297 . S
C643 C190 1.322 . S
C648 C232 1.323 . S
C673 C203 1.322 . S
C678 C245 1.322 . S
C703 C246 1.261 . S
C708 C204 1.261 1_554 S
C733 C218 1.246 . S
C738 C176 1.246 1_554 S
C763 C231 1.237 . S
C768 C189 1.238 1_554 S
C793 C3 1.142 . S
C798 C101 1.143 . S
C823 C23 1.170 . S
C828 C115 1.188 . S
C853 C87 1.145 . S
C858 C31 1.145 . S
C883 C37 1.178 . S
C888 C191 1.177 . S
C913 C199 1.154 . S
C918 C9 1.138 . S
C943 C171 1.114 . S
C948 C17 1.115 . S
C973 C227 1.109 . S
C978 C45 1.110 . S
C1003 C65 1.182 . S
C1008 C247 1.182 . S
C1033 C219 1.138 . S
C1038 C73 1.155 . S
C1063 C149 1.148 . S
C1068 C79 1.149 . S
C1093 C51 1.109 . S
C1098 C157 1.126 . S
C1123 C59 1.084 . S
C1128 C129 1.084 . S
C1153 C93 1.105 1_545 S
C1158 C185 1.121 . S
C1183 C107 1.150 . S
C1188 C205 1.152 1_455 S
C1213 C121 1.147 . S
C1218 C177 1.146 . S
C1243 C233 1.204 1_455 S
C1248 C163 1.205 . S
C1273 C241 1.183 . S
C1278 C135 1.166 . S
C1303 C143 1.145 . S
C1308 C213 1.144 . S
