# Generated by pormake.
# Topology uof, (4)-cn, num edge types: 1
# Building blocks:
#     Node 0, Type 0, BuildingBlock: AZAVOO_clean_sbu_0, # of connection points: 4
#     Node 1, Type 0, BuildingBlock: AZAVOO_clean_sbu_0, # of connection points: 4
#     Node 2, Type 0, BuildingBlock: AZAVOO_clean_sbu_0, # of connection points: 4
#     Node 3, Type 0, BuildingBlock: AZAVOO_clean_sbu_0, # of connection points: 4
#     Node 4, Type 0, BuildingBlock: AZAVOO_clean_sbu_0, # of connection points: 4
#     Node 5, Type 0, BuildingBlock: AZAVOO_clean_sbu_0, # of connection points: 4
#     Node 6, Type 0, BuildingBlock: AZAVOO_clean_sbu_0, # of connection points: 4
#     Node 7, Type 0, BuildingBlock: AZAVOO_clean_sbu_0, # of connection points: 4
#     Node 8, Type 0, BuildingBlock: AZAVOO_clean_sbu_0, # of connection points: 4
#     Node 9, Type 0, BuildingBlock: AZAVOO_clean_sbu_0, # of connection points: 4
#     Node 10, Type 0, BuildingBlock: AZAVOO_clean_sbu_0, # of connection points: 4
#     Node 11, Type 0, BuildingBlock: AZAVOO_clean_sbu_0, # of connection points: 4
#     Edge 12, Type (0, 0), BuildingBlock: TEMPAE_clean_linker_10, # of connection points: 2
#     Edge 13, Type (0, 0), BuildingBlock: TEMPAE_clean_linker_10, # of connection points: 2
#     Edge 14, Type (0, 0), BuildingBlock: TEMPAE_clean_linker_10, # of connection points: 2
#     Edge 15, Type (0, 0), BuildingBlock: TEMPAE_clean_linker_10, # of connection points: 2
#     Edge 16, Type (0, 0), BuildingBlock: TEMPAE_clean_linker_10, # of connection points: 2
#     Edge 17, Type (0, 0), BuildingBlock: TEMPAE_clean_linker_10, # of connection points: 2
#     Edge 18, Type (0, 0), BuildingBlock: TEMPAE_clean_linker_10, # of connection points: 2
#     Edge 19, Type (0, 0), BuildingBlock: TEMPAE_clean_linker_10, # of connection points: 2
#     Edge 20, Type (0, 0), BuildingBlock: TEMPAE_clean_linker_10, # of connection points: 2
#     Edge 21, Type (0, 0), BuildingBlock: TEMPAE_clean_linker_10, # of connection points: 2
#     Edge 22, Type (0, 0), BuildingBlock: TEMPAE_clean_linker_10, # of connection points: 2
#     Edge 23, Type (0, 0), BuildingBlock: TEMPAE_clean_linker_10, # of connection points: 2
#     Edge 24, Type (0, 0), BuildingBlock: TEMPAE_clean_linker_10, # of connection points: 2
#     Edge 25, Type (0, 0), BuildingBlock: TEMPAE_clean_linker_10, # of connection points: 2
#     Edge 26, Type (0, 0), BuildingBlock: TEMPAE_clean_linker_10, # of connection points: 2
#     Edge 27, Type (0, 0), BuildingBlock: TEMPAE_clean_linker_10, # of connection points: 2
#     Edge 28, Type (0, 0), BuildingBlock: TEMPAE_clean_linker_10, # of connection points: 2
#     Edge 29, Type (0, 0), BuildingBlock: TEMPAE_clean_linker_10, # of connection points: 2
#     Edge 30, Type (0, 0), BuildingBlock: TEMPAE_clean_linker_10, # of connection points: 2
#     Edge 31, Type (0, 0), BuildingBlock: TEMPAE_clean_linker_10, # of connection points: 2
#     Edge 32, Type (0, 0), BuildingBlock: TEMPAE_clean_linker_10, # of connection points: 2
#     Edge 33, Type (0, 0), BuildingBlock: TEMPAE_clean_linker_10, # of connection points: 2
#     Edge 34, Type (0, 0), BuildingBlock: TEMPAE_clean_linker_10, # of connection points: 2
#     Edge 35, Type (0, 0), BuildingBlock: TEMPAE_clean_linker_10, # of connection points: 2
# Relax obj value: 0.245
# Max RMSD: 0.197
# Mean RMSD: 0.197
data_MOF--net-uof--node1-AZAVOO_clean_sbu_0--edge1-TEMPAE_clean_linker_10
_symmetry_space_group_name_H-M    P1
_symmetry_Int_Tables_number       1
_symmetry_cell_setting            triclinic
loop_
_symmetry_equiv_pos_as_xyz
'x, y, z'
_cell_length_a     32.068868
_cell_length_b     32.095757
_cell_length_c     62.745337
_cell_angle_alpha  89.990945
_cell_angle_beta   89.996511
_cell_angle_gamma 119.94706
loop_
_atom_site_label
_atom_site_type_symbol
_atom_site_fract_x
_atom_site_fract_y
_atom_site_fract_z
_atom_type_partial_charge
Mg0 Mg 0.25649 0.35048 0.20423 0.0
O1 O 0.28902 0.30403 0.19433 0.0
O2 O 0.36718 0.34237 0.20302 0.0
Mg3 Mg 0.38386 0.41252 0.21942 0.0
C4 C 0.33005 0.30659 0.19491 0.0
C5 C 0.16747 0.26015 0.18267 0.0
O6 O 0.20019 0.26337 0.16913 0.0
O7 O 0.2548 0.32678 0.23898 0.0
O8 O 0.33348 0.36701 0.24622 0.0
O9 O 0.28101 0.38846 0.1727 0.0
O10 O 0.32372 0.41137 0.20243 0.0
C11 C 0.28999 0.33835 0.25176 0.0
C12 C 0.32128 0.41646 0.18225 0.0
O13 O 0.1802 0.28901 0.19836 0.0
Mg14 Mg 0.90371 0.25709 0.54811 0.0
O15 O 0.98052 0.2879 0.53557 0.0
O16 O 0.02454 0.36567 0.5443 0.0
Mg17 Mg 0.97636 0.38325 0.56457 0.0
C18 C 0.01989 0.32803 0.53519 0.0
C19 C 0.89399 0.17407 0.51959 0.0
O20 O 0.9133 0.21058 0.50631 0.0
O21 O 0.93004 0.25121 0.58157 0.0
O22 O 0.97442 0.32963 0.58897 0.0
O23 O 0.88755 0.28539 0.51845 0.0
O24 O 0.91272 0.32588 0.54867 0.0
C25 C 0.95846 0.28559 0.59385 0.0
C26 C 0.90321 0.32537 0.52875 0.0
O27 O 0.88683 0.18152 0.53881 0.0
Mg28 Mg 0.63606 0.90418 0.88368 0.0
O29 O 0.68079 0.98145 0.87131 0.0
O30 O 0.64569 0.02394 0.88076 0.0
Mg31 Mg 0.58135 0.97498 0.90148 0.0
C32 C 0.67895 0.02031 0.87129 0.0
C33 C 0.71009 0.89558 0.85462 0.0
O34 O 0.69345 0.9155 0.84136 0.0
O35 O 0.66931 0.93026 0.91696 0.0
O36 O 0.63554 0.97481 0.92496 0.0
O37 O 0.5905 0.88814 0.85438 0.0
O38 O 0.57576 0.91219 0.88508 0.0
C39 C 0.66406 0.95904 0.9293 0.0
C40 C 0.56607 0.903 0.86519 0.0
O41 O 0.69498 0.88797 0.87375 0.0
Mg42 Mg 0.72469 0.64254 0.20302 0.0
O43 O 0.69237 0.68869 0.19251 0.0
O44 O 0.61483 0.65219 0.20212 0.0
Mg45 Mg 0.59842 0.58341 0.21975 0.0
C46 C 0.65169 0.68685 0.19328 0.0
C47 C 0.83338 0.69333 0.19795 0.0
O48 O 0.82179 0.65029 0.20498 0.0
O49 O 0.72907 0.66916 0.23745 0.0
O50 O 0.65082 0.63081 0.24562 0.0
O51 O 0.69783 0.60179 0.17227 0.0
O52 O 0.65704 0.58181 0.20255 0.0
C53 C 0.69478 0.65934 0.25053 0.0
C54 C 0.65813 0.57487 0.18244 0.0
O55 O 0.80016 0.70351 0.19547 0.0
Mg56 Mg 0.10636 0.73039 0.54533 0.0
O57 O 0.02945 0.69959 0.53303 0.0
O58 O 0.98553 0.62228 0.54254 0.0
Mg59 Mg 0.03436 0.60464 0.56241 0.0
C60 C 0.98998 0.65956 0.53314 0.0
C61 C 0.12007 0.81468 0.51654 0.0
O62 O 0.10509 0.77939 0.50269 0.0
O63 O 0.08071 0.73674 0.57887 0.0
O64 O 0.03801 0.65868 0.58699 0.0
O65 O 0.12181 0.70134 0.51565 0.0
O66 O 0.09743 0.66165 0.54609 0.0
C67 C 0.05383 0.70278 0.59167 0.0
C68 C 0.10646 0.66164 0.52615 0.0
O69 O 0.12298 0.80592 0.53608 0.0
Mg70 Mg 0.35576 0.1001 0.88821 0.0
O71 O 0.31038 0.02342 0.87527 0.0
O72 O 0.34429 0.97958 0.88434 0.0
Mg73 Mg 0.40853 0.02709 0.90537 0.0
C74 C 0.31154 0.98422 0.87495 0.0
C75 C 0.28222 0.10993 0.8594 0.0
O76 O 0.29789 0.08906 0.84617 0.0
O77 O 0.32185 0.07304 0.92129 0.0
O78 O 0.35433 0.02715 0.92894 0.0
O79 O 0.40153 0.11689 0.85899 0.0
O80 O 0.4154 0.09091 0.88937 0.0
C81 C 0.32628 0.04343 0.9334 0.0
C82 C 0.42534 0.10091 0.86953 0.0
O83 O 0.29777 0.11777 0.87846 0.0
Mg84 Mg 0.66331 0.73272 0.45071 0.0
O85 O 0.70999 0.70235 0.46305 0.0
O86 O 0.67534 0.62445 0.45436 0.0
Mg87 Mg 0.60789 0.60596 0.4352 0.0
C88 C 0.70897 0.66205 0.46321 0.0
C89 C 0.70676 0.83775 0.4623 0.0
O90 O 0.66057 0.82215 0.45985 0.0
O91 O 0.69281 0.73675 0.4168 0.0
O92 O 0.65715 0.65804 0.40971 0.0
O93 O 0.62028 0.70623 0.48088 0.0
O94 O 0.60339 0.66447 0.45091 0.0
C95 C 0.68511 0.70186 0.40447 0.0
C96 C 0.59469 0.6662 0.47077 0.0
O97 O 0.72213 0.80871 0.45897 0.0
Mg98 Mg 0.91896 0.66118 0.78714 0.0
O99 O 0.99447 0.70585 0.80126 0.0
O100 O 0.03823 0.67127 0.79321 0.0
Mg101 Mg 0.9913 0.60602 0.77251 0.0
C102 C 0.03348 0.70435 0.80218 0.0
C103 C 0.85726 0.70592 0.79752 0.0
O104 O 0.82602 0.6605 0.79372 0.0
O105 O 0.94897 0.69406 0.75412 0.0
O106 O 0.99267 0.65867 0.74772 0.0
O107 O 0.8986 0.61512 0.81654 0.0
O108 O 0.9267 0.6008 0.78691 0.0
C109 C 0.97793 0.68756 0.74243 0.0
C110 C 0.91405 0.59027 0.80648 0.0
O111 O 0.90182 0.72005 0.79562 0.0
Mg112 Mg 0.26676 0.89927 0.12914 0.0
O113 O 0.29715 0.97742 0.13954 0.0
O114 O 0.37532 0.01942 0.13104 0.0
Mg115 Mg 0.39427 0.9678 0.11431 0.0
C116 C 0.33749 0.01658 0.13918 0.0
C117 C 0.17861 0.8926 0.15355 0.0
O118 O 0.21221 0.9147 0.16803 0.0
O119 O 0.26469 0.92217 0.09452 0.0
O120 O 0.34354 0.96204 0.08755 0.0
O121 O 0.29199 0.88594 0.16054 0.0
O122 O 0.33487 0.90731 0.13086 0.0
C123 C 0.29999 0.94651 0.08188 0.0
C124 C 0.33261 0.89963 0.15103 0.0
O125 O 0.19021 0.88325 0.13554 0.0
Mg126 Mg 0.34357 0.25708 0.44769 0.0
O127 O 0.29805 0.28736 0.46162 0.0
O128 O 0.32996 0.36439 0.4518 0.0
Mg129 Mg 0.39388 0.3822 0.43026 0.0
C130 C 0.29832 0.3273 0.46173 0.0
C131 C 0.30489 0.15692 0.46567 0.0
O132 O 0.35193 0.17667 0.46671 0.0
O133 O 0.30762 0.24941 0.41502 0.0
O134 O 0.33983 0.32741 0.40687 0.0
O135 O 0.39213 0.287 0.47615 0.0
O136 O 0.40249 0.32582 0.44572 0.0
C137 C 0.31174 0.283 0.40269 0.0
C138 C 0.41519 0.32619 0.46517 0.0
O139 O 0.28731 0.18142 0.45791 0.0
Mg140 Mg 0.07875 0.34943 0.79229 0.0
O141 O 0.00158 0.30402 0.8044 0.0
O142 O 0.9591 0.33935 0.7953 0.0
Mg143 Mg 0.00919 0.40662 0.77623 0.0
C144 C 0.96254 0.30552 0.8043 0.0
C145 C 0.13882 0.30218 0.80131 0.0
O146 O 0.17066 0.34665 0.79621 0.0
O147 O 0.05286 0.31933 0.75849 0.0
O148 O 0.01174 0.35682 0.75101 0.0
O149 O 0.09532 0.39297 0.82237 0.0
O150 O 0.07147 0.41005 0.79218 0.0
C151 C 0.0266 0.32792 0.74592 0.0
C152 C 0.08147 0.41885 0.81206 0.0
O153 O 0.09447 0.28962 0.80078 0.0
Mg154 Mg 0.72795 0.09714 0.12613 0.0
O155 O 0.69478 0.01825 0.13611 0.0
O156 O 0.61617 0.97913 0.12824 0.0
Mg157 Mg 0.59987 0.03311 0.11205 0.0
C158 C 0.6535 0.98015 0.13597 0.0
C159 C 0.81656 0.09213 0.14613 0.0
O160 O 0.78372 0.06141 0.15927 0.0
O161 O 0.72772 0.07445 0.09134 0.0
O162 O 0.64874 0.03662 0.08482 0.0
O163 O 0.70526 0.11092 0.15801 0.0
O164 O 0.66104 0.09164 0.12874 0.0
C165 C 0.69189 0.05085 0.07889 0.0
C166 C 0.6644 0.09855 0.14899 0.0
O167 O 0.80415 0.11059 0.13125 0.0
C168 C 0.88243 0.08594 0.16477 0.0
C169 C 0.8682 0.10917 0.14994 0.0
C170 C 0.93122 0.10458 0.1699 0.0
C171 C 0.9664 0.14785 0.16023 0.0
C172 C 0.95236 0.17044 0.14469 0.0
C173 C 0.90352 0.15063 0.13962 0.0
C174 C 0.94492 0.07895 0.18621 0.0
C175 C 0.9887 0.21688 0.13415 0.0
C176 C 0.08087 0.23235 0.18987 0.0
C177 C 0.11565 0.22725 0.17842 0.0
C178 C 0.03197 0.20545 0.18455 0.0
C179 C 0.01729 0.17203 0.16757 0.0
C180 C 0.05185 0.16483 0.15667 0.0
C181 C 0.10074 0.19282 0.16212 0.0
C182 C 0.99632 0.21452 0.19647 0.0
C183 C 0.03741 0.12883 0.13876 0.0
H184 H 0.85538 0.05361 0.17266 0.0
H185 H 0.89289 0.1688 0.12813 0.0
H186 H 0.97507 0.07457 0.18022 0.0
H187 H 0.9575 0.10078 0.20098 0.0
H188 H 0.91425 0.04296 0.19033 0.0
H189 H 0.97227 0.22848 0.12158 0.0
H190 H 0.00526 0.24577 0.1463 0.0
H191 H 0.01807 0.21292 0.1269 0.0
H192 H 0.09199 0.25879 0.20251 0.0
H193 H 0.12734 0.18836 0.15333 0.0
H194 H 0.96646 0.18027 0.20276 0.0
H195 H 0.98033 0.22971 0.18541 0.0
H196 H 0.01319 0.23989 0.20997 0.0
H197 H 0.0067 0.09363 0.14371 0.0
H198 H 0.06755 0.12348 0.13361 0.0
H199 H 0.02535 0.14146 0.12486 0.0
C200 C 0.87838 0.1163 0.48981 0.0
C201 C 0.87544 0.12444 0.51159 0.0
C202 C 0.85564 0.06951 0.48145 0.0
C203 C 0.82951 0.02987 0.49522 0.0
C204 C 0.82872 0.03768 0.5174 0.0
C205 C 0.85164 0.0849 0.52532 0.0
C206 C 0.85739 0.06269 0.45772 0.0
C207 C 0.80158 0.99631 0.53263 0.0
C208 C 0.72149 0.91914 0.4725 0.0
C209 C 0.73925 0.88742 0.4699 0.0
C210 C 0.75069 0.96562 0.48055 0.0
C211 C 0.79894 0.98089 0.48621 0.0
C212 C 0.8174 0.94934 0.4834 0.0
C213 C 0.78733 0.90293 0.47523 0.0
C214 C 0.72968 0.99826 0.48319 0.0
C215 C 0.86866 0.96441 0.48928 0.0
H216 H 0.89698 0.14659 0.47908 0.0
H217 H 0.8495 0.09081 0.54219 0.0
H218 H 0.86757 0.03501 0.45437 0.0
H219 H 0.82113 0.04975 0.45079 0.0
H220 H 0.88328 0.09657 0.44953 0.0
H221 H 0.80869 0.00794 0.54955 0.0
H222 H 0.76236 0.97965 0.52964 0.0
H223 H 0.81146 0.96814 0.53001 0.0
H224 H 0.68446 0.90756 0.46838 0.0
H225 H 0.8013 0.8786 0.4733 0.0
H226 H 0.75129 0.03198 0.47405 0.0
H227 H 0.7311 0.00833 0.5002 0.0
H228 H 0.69173 0.98117 0.4777 0.0
H229 H 0.89392 0.99761 0.48054 0.0
H230 H 0.87785 0.93606 0.48568 0.0
H231 H 0.87441 0.97287 0.50655 0.0
C232 C 0.75391 0.8813 0.82506 0.0
C233 C 0.74099 0.87667 0.84667 0.0
C234 C 0.77778 0.8583 0.81668 0.0
C235 C 0.78905 0.83005 0.83024 0.0
C236 C 0.77852 0.82744 0.85228 0.0
C237 C 0.75462 0.85078 0.86023 0.0
C238 C 0.78862 0.86217 0.79311 0.0
C239 C 0.79019 0.79789 0.86729 0.0
C240 C 0.79101 0.72241 0.80645 0.0
C241 C 0.84047 0.73891 0.80497 0.0
C242 C 0.774 0.75199 0.8144 0.0
C243 C 0.80723 0.79934 0.82107 0.0
C244 C 0.85726 0.8166 0.81932 0.0
C245 C 0.87332 0.78616 0.81126 0.0
C246 C 0.72034 0.73225 0.81593 0.0
C247 C 0.89372 0.8669 0.82625 0.0
H248 H 0.74388 0.90152 0.81447 0.0
H249 H 0.74511 0.84727 0.87698 0.0
H250 H 0.82648 0.8715 0.79037 0.0
H251 H 0.76526 0.8269 0.78539 0.0
H252 H 0.78243 0.8896 0.78521 0.0
H253 H 0.78412 0.80342 0.88423 0.0
H254 H 0.76728 0.75917 0.86343 0.0
H255 H 0.82821 0.80704 0.86533 0.0
H256 H 0.76533 0.68604 0.80158 0.0
H257 H 0.91162 0.79918 0.81017 0.0
H258 H 0.71011 0.7555 0.80689 0.0
H259 H 0.70997 0.73227 0.8328 0.0
H260 H 0.69931 0.69499 0.80966 0.0
H261 H 0.88733 0.89354 0.81777 0.0
H262 H 0.93129 0.87544 0.82316 0.0
H263 H 0.88967 0.87116 0.84354 0.0
C264 C 0.91931 0.71488 0.19411 0.0
C265 C 0.88387 0.72805 0.19211 0.0
C266 C 0.96692 0.74608 0.1878 0.0
C267 C 0.97959 0.79177 0.17931 0.0
C268 C 0.94428 0.80579 0.17761 0.0
C269 C 0.89675 0.7737 0.18401 0.0
C270 C 0.0035 0.72972 0.18987 0.0
C271 C 0.95657 0.85433 0.16875 0.0
C272 C 0.11402 0.87936 0.17965 0.0
C273 C 0.12721 0.87281 0.15913 0.0
C274 C 0.06562 0.85529 0.1861 0.0
C275 C 0.02963 0.82387 0.1717 0.0
C276 C 0.04242 0.81934 0.15058 0.0
C277 C 0.09104 0.84393 0.14454 0.0
C278 C 0.05337 0.86141 0.20869 0.0
C279 C 0.00509 0.78632 0.13472 0.0
H280 H 0.90979 0.67976 0.20038 0.0
H281 H 0.86959 0.78421 0.18244 0.0
H282 H 0.01788 0.72869 0.17392 0.0
H283 H 0.0343 0.75562 0.19974 0.0
H284 H 0.98804 0.69349 0.19721 0.0
H285 H 0.92556 0.86068 0.16942 0.0
H286 H 0.98702 0.88329 0.17775 0.0
H287 H 0.9683 0.85715 0.15192 0.0
H288 H 0.14165 0.90194 0.19098 0.0
H289 H 0.1008 0.83891 0.1286 0.0
H290 H 0.04219 0.82777 0.21775 0.0
H291 H 0.0227 0.86823 0.2089 0.0
H292 H 0.08438 0.89141 0.21703 0.0
H293 H 0.99055 0.74841 0.13977 0.0
H294 H 0.02012 0.79057 0.1184 0.0
H295 H 0.9745 0.79324 0.13419 0.0
C296 C 0.22328 0.08638 0.47375 0.0
C297 C 0.27354 0.10713 0.47342 0.0
C298 C 0.19368 0.03906 0.48106 0.0
C299 C 0.21488 0.01191 0.48805 0.0
C300 C 0.26557 0.03281 0.48783 0.0
C301 C 0.29421 0.08012 0.48059 0.0
C302 C 0.13978 0.01803 0.48121 0.0
C303 C 0.28961 0.005 0.49505 0.0
C304 C 0.15141 0.90218 0.52377 0.0
C305 C 0.13872 0.86472 0.50912 0.0
C306 C 0.17391 0.95029 0.51699 0.0
C307 C 0.18449 0.96116 0.4951 0.0
C308 C 0.1699 0.92337 0.48015 0.0
C309 C 0.14691 0.8756 0.48733 0.0
C310 C 0.18825 0.98958 0.53337 0.0
C311 C 0.18088 0.93346 0.45669 0.0
H312 H 0.20704 0.10708 0.46832 0.0
H313 H 0.33299 0.09582 0.48041 0.0
H314 H 0.12261 0.98629 0.47053 0.0
H315 H 0.12544 0.00541 0.49748 0.0
H316 H 0.12901 0.04437 0.47595 0.0
H317 H 0.32948 0.02664 0.49405 0.0
H318 H 0.27944 0.99291 0.51177 0.0
H319 H 0.27715 0.97234 0.48509 0.0
H320 H 0.14479 0.89403 0.54061 0.0
H321 H 0.13716 0.8469 0.47588 0.0
H322 H 0.17648 0.01521 0.52828 0.0
H323 H 0.22802 0.01015 0.53485 0.0
H324 H 0.17266 0.97507 0.54931 0.0
H325 H 0.16842 0.95799 0.4508 0.0
H326 H 0.16373 0.9001 0.44696 0.0
H327 H 0.22038 0.95175 0.45418 0.0
C328 C 0.23684 0.12276 0.83009 0.0
C329 C 0.25189 0.12948 0.85144 0.0
C330 C 0.2134 0.14606 0.82158 0.0
C331 C 0.20488 0.17689 0.83472 0.0
C332 C 0.21766 0.1818 0.85656 0.0
C333 C 0.24095 0.15798 0.86466 0.0
C334 C 0.20001 0.13962 0.79826 0.0
C335 C 0.20905 0.21421 0.87111 0.0
C336 C 0.20414 0.28361 0.80918 0.0
C337 C 0.15491 0.26866 0.80881 0.0
C338 C 0.22064 0.25374 0.81729 0.0
C339 C 0.18712 0.20766 0.82523 0.0
C340 C 0.13728 0.19185 0.82453 0.0
C341 C 0.12172 0.22257 0.81631 0.0
C342 C 0.27412 0.2719 0.81768 0.0
C343 C 0.10051 0.14289 0.83279 0.0
H344 H 0.24475 0.10049 0.81979 0.0
H345 H 0.25218 0.16319 0.88121 0.0
H346 H 0.16227 0.13131 0.79615 0.0
H347 H 0.22337 0.17362 0.7896 0.0
H348 H 0.20413 0.11047 0.79082 0.0
H349 H 0.21685 0.2106 0.88805 0.0
H350 H 0.2324 0.25221 0.86619 0.0
H351 H 0.1712 0.20605 0.86984 0.0
H352 H 0.23006 0.31907 0.80336 0.0
H353 H 0.08361 0.21073 0.81608 0.0
H354 H 0.28217 0.2467 0.80894 0.0
H355 H 0.28632 0.27361 0.83437 0.0
H356 H 0.29534 0.30818 0.81044 0.0
H357 H 0.10502 0.11456 0.82479 0.0
H358 H 0.06302 0.13515 0.83026 0.0
H359 H 0.10613 0.14055 0.8501 0.0
C360 C 0.59897 0.56123 0.15368 0.0
C361 C 0.61238 0.5441 0.17142 0.0
C362 C 0.55032 0.53981 0.14761 0.0
C363 C 0.51502 0.50074 0.15966 0.0
C364 C 0.52956 0.47987 0.17584 0.0
C365 C 0.5781 0.50211 0.18161 0.0
C366 C 0.53651 0.56224 0.12987 0.0
C367 C 0.49339 0.43759 0.18888 0.0
C368 C 0.40017 0.49011 0.17956 0.0
C369 C 0.36631 0.44623 0.17059 0.0
C370 C 0.44878 0.51183 0.17394 0.0
C371 C 0.46377 0.48847 0.1592 0.0
C372 C 0.42881 0.44726 0.14814 0.0
C373 C 0.3801 0.42642 0.15401 0.0
C374 C 0.48459 0.55639 0.18586 0.0
C375 C 0.44311 0.42207 0.1319 0.0
H376 H 0.62556 0.59388 0.14582 0.0
H377 H 0.58875 0.4888 0.19525 0.0
H378 H 0.50412 0.53489 0.12125 0.0
H379 H 0.52813 0.58912 0.13668 0.0
H380 H 0.56648 0.58107 0.11831 0.0
H381 H 0.51082 0.42187 0.19878 0.0
H382 H 0.47391 0.44952 0.19966 0.0
H383 H 0.46638 0.40903 0.17843 0.0
H384 H 0.38922 0.50538 0.19233 0.0
H385 H 0.35383 0.39225 0.14714 0.0
H386 H 0.5117 0.58313 0.1748 0.0
H387 H 0.50402 0.54663 0.1977 0.0
H388 H 0.46684 0.57357 0.19448 0.0
H389 H 0.47554 0.44804 0.12288 0.0
H390 H 0.41333 0.40109 0.12051 0.0
H391 H 0.4516 0.39666 0.14018 0.0
C392 C 0.05421 0.60276 0.49877 0.0
C393 C 0.0875 0.61503 0.51539 0.0
C394 C 0.02263 0.55424 0.49369 0.0
C395 C 0.02496 0.51785 0.5055 0.0
C396 C 0.06269 0.53066 0.5204 0.0
C397 C 0.0932 0.5792 0.52531 0.0
C398 C 0.98363 0.5422 0.47742 0.0
C399 C 0.06732 0.49311 0.53305 0.0
C400 C 0.91783 0.40834 0.52781 0.0
C401 C 0.92178 0.37166 0.51771 0.0
C402 C 0.94785 0.45647 0.52208 0.0
C403 C 0.9833 0.46803 0.50614 0.0
C404 C 0.98375 0.4307 0.49429 0.0
C405 C 0.95269 0.38261 0.50021 0.0
C406 C 0.94525 0.49502 0.53486 0.0
C407 C 0.02025 0.44139 0.47693 0.0
H408 H 0.04951 0.63056 0.49125 0.0
H409 H 0.11903 0.58893 0.53817 0.0
H410 H 0.97447 0.50855 0.46876 0.0
H411 H 0.95067 0.53685 0.48565 0.0
H412 H 0.99452 0.57182 0.46571 0.0
H413 H 0.1021 0.50869 0.54174 0.0
H414 H 0.0377 0.47653 0.54489 0.0
H415 H 0.06432 0.46408 0.52246 0.0
H416 H 0.89377 0.39964 0.54132 0.0
H417 H 0.95602 0.35415 0.49252 0.0
H418 H 0.94683 0.52335 0.52421 0.0
H419 H 0.97654 0.51228 0.54582 0.0
H420 H 0.91183 0.48022 0.54453 0.0
H421 H 0.02824 0.47443 0.46802 0.0
H422 H 0.00758 0.41092 0.46555 0.0
H423 H 0.0543 0.44718 0.48418 0.0
C424 C 0.49423 0.08691 0.86916 0.0
C425 C 0.45387 0.08289 0.85875 0.0
C426 C 0.51348 0.05789 0.86331 0.0
C427 C 0.49095 0.02327 0.84695 0.0
C428 C 0.45325 0.02261 0.83493 0.0
C429 C 0.43513 0.05275 0.84095 0.0
C430 C 0.55451 0.0607 0.87628 0.0
C431 C 0.42874 0.98683 0.8172 0.0
C432 C 0.55822 0.95587 0.83857 0.0
C433 C 0.53755 0.92142 0.85476 0.0
C434 C 0.54023 0.98685 0.83399 0.0
C435 C 0.50069 0.98264 0.84583 0.0
C436 C 0.47627 0.94387 0.86027 0.0
C437 C 0.49543 0.91406 0.86474 0.0
C438 C 0.56688 0.02719 0.81827 0.0
C439 C 0.4333 0.93728 0.87293 0.0
H440 H 0.50862 0.11035 0.88291 0.0
H441 H 0.40352 0.04933 0.83303 0.0
H442 H 0.54068 0.02885 0.88689 0.0
H443 H 0.58211 0.06043 0.86573 0.0
H444 H 0.57205 0.09355 0.88634 0.0
H445 H 0.41024 -0.00088 0.806 0.0
H446 H 0.4548 0.9805 0.80816 0.0
H447 H 0.40128 0.95198 0.82412 0.0
H448 H 0.59124 0.96192 0.83105 0.0
H449 H 0.47966 0.88739 0.8773 0.0
H450 H 0.59337 0.05989 0.82697 0.0
H451 H 0.54197 0.03593 0.80968 0.0
H452 H 0.58685 0.01801 0.80646 0.0
H453 H 0.44535 0.96589 0.88521 0.0
H454 H 0.41458 0.90184 0.88109 0.0
H455 H 0.40715 0.94041 0.86245 0.0
C456 C 0.58441 0.60196 0.49569 0.0
C457 C 0.56377 0.62085 0.48185 0.0
C458 C 0.56092 0.55236 0.49994 0.0
C459 C 0.51599 0.5217 0.49015 0.0
C460 C 0.49259 0.54189 0.47843 0.0
C461 C 0.51719 0.59128 0.47417 0.0
C462 C 0.58685 0.53243 0.51271 0.0
C463 C 0.44419 0.51072 0.46808 0.0
C464 C 0.48751 0.40637 0.46283 0.0
C465 C 0.44892 0.37254 0.47501 0.0
C466 C 0.51304 0.45469 0.46891 0.0
C467 C 0.49887 0.46961 0.48747 0.0
C468 C 0.46275 0.43479 0.50089 0.0
C469 C 0.43811 0.38629 0.4945 0.0
C470 C 0.55191 0.49035 0.45425 0.0
C471 C 0.44702 0.44909 0.52091 0.0
H472 H 0.62087 0.62496 0.50136 0.0
H473 H 0.50157 0.60616 0.46336 0.0
H474 H 0.56123 0.50065 0.52217 0.0
H475 H 0.60614 0.52083 0.50167 0.0
H476 H 0.61378 0.55998 0.52363 0.0
H477 H 0.4277 0.53214 0.46258 0.0
H478 H 0.44863 0.49219 0.45406 0.0
H479 H 0.41905 0.48271 0.47929 0.0
H480 H 0.49588 0.39548 0.4478 0.0
H481 H 0.40795 0.36003 0.50385 0.0
H482 H 0.58419 0.51582 0.46347 0.0
H483 H 0.53847 0.51163 0.44574 0.0
H484 H 0.56286 0.47233 0.44218 0.0
H485 H 0.47801 0.47934 0.52909 0.0
H486 H 0.42889 0.41838 0.53214 0.0
H487 H 0.42112 0.46114 0.51666 0.0
C488 C 0.91937 0.51639 0.80682 0.0
C489 C 0.92672 0.55773 0.8175 0.0
C490 C 0.94364 0.49235 0.81307 0.0
C491 C 0.97685 0.51085 0.83019 0.0
C492 C 0.98049 0.54961 0.84244 0.0
C493 C 0.95514 0.57273 0.83593 0.0
C494 C 0.93782 0.45056 0.79973 0.0
C495 C 0.01473 0.56986 0.86101 0.0
C496 C 0.03088 0.43111 0.83844 0.0
C497 C 0.06698 0.45015 0.82287 0.0
C498 C 0.00394 0.45365 0.84308 0.0
C499 C 0.01381 0.49593 0.83187 0.0
C500 C 0.05433 0.51823 0.81818 0.0
C501 C 0.08007 0.49467 0.81367 0.0
C502 C 0.96167 0.42918 0.85805 0.0
C503 C 0.06691 0.56387 0.8062 0.0
H504 H 0.89724 0.5049 0.79258 0.0
H505 H 0.96109 0.60504 0.84408 0.0
H506 H 0.97024 0.46248 0.78963 0.0
H507 H 0.93427 0.42085 0.81001 0.0
H508 H 0.90587 0.4364 0.78913 0.0
H509 H 0.00375 0.58951 0.87217 0.0
H510 H 0.01691 0.54109 0.86987 0.0
H511 H 0.05127 0.59556 0.85498 0.0
H512 H 0.02044 0.39628 0.84535 0.0
H513 H 0.10799 0.50914 0.80158 0.0
H514 H 0.92861 0.40623 0.8487 0.0
H515 H 0.95598 0.45582 0.86693 0.0
H516 H 0.96667 0.40582 0.86961 0.0
H517 H 0.04007 0.55575 0.79338 0.0
H518 H 0.10316 0.58014 0.79879 0.0
H519 H 0.0659 0.59076 0.81696 0.0
C520 C 0.38903 0.94879 0.17996 0.0
C521 C 0.378 0.91713 0.16276 0.0
C522 C 0.43721 0.97943 0.18599 0.0
C523 C 0.47446 0.97814 0.17439 0.0
C524 C 0.46263 0.94155 0.15901 0.0
C525 C 0.41446 0.91163 0.15334 0.0
C526 C 0.44813 0.01647 0.20309 0.0
C527 C 0.50097 0.93795 0.14648 0.0
C528 C 0.58262 0.08647 0.15239 0.0
C529 C 0.61967 0.08116 0.16127 0.0
C530 C 0.53482 0.05665 0.15866 0.0
C531 C 0.524 0.02038 0.1741 0.0
C532 C 0.56197 0.01932 0.18515 0.0
C533 C 0.60974 0.04984 0.17853 0.0
C534 C 0.49569 0.05995 0.14667 0.0
C535 C 0.55217 0.98263 0.20229 0.0
H536 H 0.36075 0.95309 0.18725 0.0
H537 H 0.40566 0.88679 0.14014 0.0
H538 H 0.48204 0.02577 0.21158 0.0
H539 H 0.4523 0.04974 0.19569 0.0
H540 H 0.41829 0.00347 0.21484 0.0
H541 H 0.48591 0.90409 0.13714 0.0
H542 H 0.51843 0.96867 0.13524 0.0
H543 H 0.52921 0.93972 0.15725 0.0
H544 H 0.59055 0.11107 0.13916 0.0
H545 H 0.63846 0.04568 0.18542 0.0
H546 H 0.46805 0.05826 0.1578 0.0
H547 H 0.47764 0.02906 0.13555 0.0
H548 H 0.51013 0.09366 0.13724 0.0
H549 H 0.51867 0.97324 0.21116 0.0
H550 H 0.58264 0.99601 0.21372 0.0
H551 H 0.54788 0.94933 0.19487 0.0
C552 C 0.3728 0.10568 0.13982 0.0
C553 C 0.33997 0.06032 0.14805 0.0
C554 C 0.3733 0.14722 0.14717 0.0
C555 C 0.34108 0.14325 0.16351 0.0
C556 C 0.30896 0.09768 0.17236 0.0
C557 C 0.30837 0.05664 0.16431 0.0
C558 C 0.40728 0.19508 0.13703 0.0
C559 C 0.27491 0.09218 0.19018 0.0
C560 C 0.36789 0.25495 0.19494 0.0
C561 C 0.33438 0.26616 0.18629 0.0
C562 C 0.37057 0.21502 0.18767 0.0
C563 C 0.33987 0.18653 0.17098 0.0
C564 C 0.30696 0.19858 0.16177 0.0
C565 C 0.3042 0.23794 0.16973 0.0
C566 C 0.40531 0.20259 0.1982 0.0
C567 C 0.27445 0.16972 0.14359 0.0
H568 H 0.39706 0.10855 0.12713 0.0
H569 H 0.28327 0.02162 0.17084 0.0
H570 H 0.38637 0.2102 0.12952 0.0
H571 H 0.43066 0.22107 0.14933 0.0
H572 H 0.4305 0.19209 0.12469 0.0
H573 H 0.25429 0.05462 0.19613 0.0
H574 H 0.29525 0.11611 0.20366 0.0
H575 H 0.24902 0.10316 0.18455 0.0
H576 H 0.39106 0.27658 0.20786 0.0
H577 H 0.27866 0.2469 0.16286 0.0
H578 H 0.43011 0.20154 0.18617 0.0
H579 H 0.38515 0.16623 0.20542 0.0
H580 H 0.42703 0.22873 0.21083 0.0
H581 H 0.29617 0.16763 0.1303 0.0
H582 H 0.25279 0.18544 0.13746 0.0
H583 H 0.24949 0.13239 0.14892 0.0
C584 C 0.10859 0.36433 0.53037 0.0
C585 C 0.06167 0.33058 0.52411 0.0
C586 C 0.14853 0.36545 0.52065 0.0
C587 C 0.14123 0.33284 0.50396 0.0
C588 C 0.09394 0.29954 0.49721 0.0
C589 C 0.05467 0.29844 0.50755 0.0
C590 C 0.19843 0.4008 0.52854 0.0
C591 C 0.08479 0.26497 0.47911 0.0
C592 C 0.24455 0.36207 0.46616 0.0
C593 C 0.25964 0.33021 0.47314 0.0
C594 C 0.20605 0.36339 0.47607 0.0
C595 C 0.18299 0.33297 0.4937 0.0
C596 C 0.19897 0.3017 0.50119 0.0
C597 C 0.23676 0.30024 0.49063 0.0
C598 C 0.18925 0.39639 0.46734 0.0
C599 C 0.17592 0.26954 0.52026 0.0
H600 H 0.11407 0.38903 0.54327 0.0
H601 H 0.01842 0.27262 0.50254 0.0
H602 H 0.2165 0.38111 0.5343 0.0
H603 H 0.22054 0.42442 0.51531 0.0
H604 H 0.1979 0.4237 0.54169 0.0
H605 H 0.04592 0.24281 0.47522 0.0
H606 H 0.10435 0.2851 0.46463 0.0
H607 H 0.09866 0.24056 0.48333 0.0
H608 H 0.26193 0.38499 0.45251 0.0
H609 H 0.24864 0.27586 0.49615 0.0
H610 H 0.19065 0.42124 0.47997 0.0
H611 H 0.15121 0.3749 0.46211 0.0
H612 H 0.21133 0.41804 0.45362 0.0
H613 H 0.17651 0.29128 0.53413 0.0
H614 H 0.19437 0.24933 0.52478 0.0
H615 H 0.13767 0.24335 0.51676 0.0
C616 C 0.92463 0.24036 0.83143 0.0
C617 C 0.91956 0.26591 0.81448 0.0
C618 C 0.88425 0.20151 0.84079 0.0
C619 C 0.83787 0.1872 0.83262 0.0
C620 C 0.83251 0.21298 0.81555 0.0
C621 C 0.87346 0.2525 0.80685 0.0
C622 C 0.89126 0.17559 0.85933 0.0
C623 C 0.7837 0.19806 0.80613 0.0
C624 C 0.74332 0.05772 0.84372 0.0
C625 C 0.71766 0.06303 0.86056 0.0
C626 C 0.78159 0.098 0.834 0.0
C627 C 0.79516 0.14454 0.84169 0.0
C628 C 0.76906 0.15013 0.85856 0.0
C629 C 0.73017 0.10926 0.86763 0.0
C630 C 0.80789 0.09072 0.8157 0.0
C631 C 0.78316 0.19913 0.86747 0.0
H632 H 0.96024 0.25097 0.83748 0.0
H633 H 0.86952 0.27201 0.79362 0.0
H634 H 0.86899 0.17461 0.87306 0.0
H635 H 0.87916 0.13781 0.85484 0.0
H636 H 0.92944 0.19288 0.8645 0.0
H637 H 0.78567 0.22222 0.79301 0.0
H638 H 0.7674 0.16086 0.79985 0.0
H639 H 0.7592 0.19796 0.81863 0.0
H640 H 0.73339 0.02201 0.83809 0.0
H641 H 0.71056 0.11344 0.88074 0.0
H642 H 0.84567 0.10311 0.82034 0.0
H643 H 0.80893 0.11257 0.80178 0.0
H644 H 0.79082 0.05245 0.81073 0.0
H645 H 0.8202 0.21599 0.87403 0.0
H646 H 0.75843 0.19735 0.8803 0.0
H647 H 0.7834 0.22302 0.85464 0.0
C648 C 0.67967 0.93795 0.16131 0.0
C649 C 0.64911 0.93559 0.14483 0.0
C650 C 0.67724 0.89613 0.16943 0.0
C651 C 0.64415 0.851 0.16049 0.0
C652 C 0.61282 0.84833 0.14398 0.0
C653 C 0.61526 0.89071 0.13652 0.0
C654 C 0.71044 0.90031 0.18741 0.0
C655 C 0.57779 0.80093 0.13378 0.0
C656 C 0.67794 0.75425 0.16734 0.0
C657 C 0.64761 0.72697 0.18407 0.0
C658 C 0.67593 0.79373 0.15901 0.0
C659 C 0.64367 0.8069 0.168 0.0
C660 C 0.61257 0.77917 0.18475 0.0
C661 C 0.6145 0.73909 0.19241 0.0
C662 C 0.70885 0.82178 0.1408 0.0
C663 C 0.57846 0.79277 0.19503 0.0
H664 H 0.70533 0.97257 0.16798 0.0
H665 H 0.59171 0.88888 0.12371 0.0
H666 H 0.68928 0.8767 0.20084 0.0
H667 H 0.73546 0.88809 0.18193 0.0
H668 H 0.73204 0.93776 0.19339 0.0
H669 H 0.55516 0.80492 0.12145 0.0
H670 H 0.59782 0.78488 0.12625 0.0
H671 H 0.55387 0.77522 0.14605 0.0
H672 H 0.70322 0.74462 0.16072 0.0
H673 H 0.59119 0.7182 0.20544 0.0
H674 H 0.73492 0.85878 0.14614 0.0
H675 H 0.68768 0.82492 0.12754 0.0
H676 H 0.72928 0.80478 0.13462 0.0
H677 H 0.59927 0.82881 0.20248 0.0
H678 H 0.55564 0.76659 0.20745 0.0
H679 H 0.5547 0.79514 0.18284 0.0
C680 C 0.76166 0.62574 0.46672 0.0
C681 C 0.74853 0.65907 0.47374 0.0
C682 C 0.8005 0.6239 0.476 0.0
C683 C 0.82589 0.65531 0.49304 0.0
C684 C 0.81198 0.68819 0.50054 0.0
C685 C 0.77381 0.69009 0.49061 0.0
C686 C 0.81504 0.58915 0.46727 0.0
C687 C 0.83753 0.72148 0.519 0.0
C688 C 0.90117 0.62414 0.52925 0.0
C689 C 0.94786 0.65674 0.52228 0.0
C690 C 0.861 0.62316 0.51984 0.0
C691 C 0.8678 0.65468 0.50273 0.0
C692 C 0.91481 0.68659 0.49519 0.0
C693 C 0.95435 0.68765 0.50524 0.0
C694 C 0.81146 0.58937 0.52859 0.0
C695 C 0.92338 0.7199 0.47663 0.0
H696 H 0.74236 0.60194 0.45357 0.0
H697 H 0.76341 0.71558 0.49619 0.0
H698 H 0.85269 0.60928 0.46139 0.0
H699 H 0.81384 0.56474 0.48006 0.0
H700 H 0.79142 0.56706 0.45399 0.0
H701 H 0.82067 0.74314 0.52359 0.0
H702 H 0.83738 0.70039 0.53305 0.0
H703 H 0.87569 0.74638 0.51477 0.0
H704 H 0.8961 0.60038 0.54251 0.0
H705 H 0.99043 0.71255 0.49968 0.0
H706 H 0.78782 0.56539 0.51579 0.0
H707 H 0.79489 0.61034 0.53453 0.0
H708 H 0.81232 0.5668 0.54182 0.0
H709 H 0.90198 0.69901 0.46264 0.0
H710 H 0.96192 0.74052 0.47196 0.0
H711 H 0.91128 0.74577 0.4808 0.0
C712 C 0.25887 0.89563 0.87066 0.0
C713 C 0.2728 0.94235 0.8638 0.0
C714 C 0.22032 0.85554 0.86097 0.0
C715 C 0.19608 0.86245 0.84368 0.0
C716 C 0.21092 0.90951 0.83629 0.0
C717 C 0.24876 0.94898 0.84664 0.0
C718 C 0.20477 0.80594 0.86957 0.0
C719 C 0.18666 0.91818 0.81756 0.0
C720 C 0.12204 0.75707 0.80691 0.0
C721 C 0.07508 0.74324 0.81343 0.0
C722 C 0.16187 0.79591 0.81661 0.0
C723 C 0.15445 0.82054 0.83357 0.0
C724 C 0.10715 0.80579 0.84063 0.0
C725 C 0.06794 0.76766 0.83027 0.0
C726 C 0.21175 0.81134 0.80836 0.0
C727 C 0.09794 0.83047 0.85903 0.0
H728 H 0.27721 0.89046 0.88404 0.0
H729 H 0.2598 0.98509 0.84119 0.0
H730 H 0.16687 0.78879 0.87508 0.0
H731 H 0.20627 0.78285 0.8568 0.0
H732 H 0.22759 0.80677 0.88307 0.0
H733 H 0.20416 0.95682 0.81315 0.0
H734 H 0.18733 0.89749 0.80352 0.0
H735 H 0.14835 0.90531 0.82137 0.0
H736 H 0.12759 0.73846 0.79376 0.0
H737 H 0.03164 0.75673 0.83545 0.0
H738 H 0.23458 0.81028 0.82138 0.0
H739 H 0.22896 0.84904 0.80262 0.0
H740 H 0.21133 0.78819 0.7951 0.0
H741 H 0.11846 0.83039 0.87326 0.0
H742 H 0.05918 0.81292 0.86328 0.0
H743 H 0.11068 0.86857 0.85492 0.0
C744 C 0.28298 0.23613 0.36871 0.0
C745 C 0.28548 0.27194 0.38228 0.0
C746 C 0.2711 0.23539 0.34706 0.0
C747 C 0.26166 0.27123 0.33909 0.0
C748 C 0.25799 0.30322 0.35345 0.0
C749 C 0.2702 0.30331 0.37486 0.0
C750 C 0.27394 0.19976 0.33234 0.0
C751 C 0.24719 0.34145 0.34581 0.0
C752 C 0.32074 0.33339 0.28756 0.0
C753 C 0.28147 0.31826 0.27369 0.0
C754 C 0.31462 0.31665 0.30853 0.0
C755 C 0.26792 0.28352 0.316 0.0
C756 C 0.22812 0.26656 0.30196 0.0
C757 C 0.23531 0.2844 0.28095 0.0
C758 C 0.35825 0.33598 0.3229 0.0
C759 C 0.17787 0.23084 0.30924 0.0
H760 H 0.29441 0.21156 0.37447 0.0
H761 H 0.27117 0.33042 0.38551 0.0
H762 H 0.24549 0.1871 0.31995 0.0
H763 H 0.30929 0.21746 0.3241 0.0
H764 H 0.27041 0.1682 0.34121 0.0
H765 H 0.23753 0.35772 0.35918 0.0
H766 H 0.27945 0.37042 0.33771 0.0
H767 H 0.21729 0.32642 0.33411 0.0
H768 H 0.35667 0.35924 0.2822 0.0
H769 H 0.20476 0.27212 0.27032 0.0
H770 H 0.36131 0.30591 0.32993 0.0
H771 H 0.35439 0.35651 0.33623 0.0
H772 H 0.39226 0.36004 0.31432 0.0
H773 H 0.17797 0.20324 0.31986 0.0
H774 H 0.15357 0.21257 0.29553 0.0
H775 H 0.16289 0.2499 0.31842 0.0
C776 C 0.94358 0.23362 0.62627 0.0
C777 C 0.97302 0.27584 0.61481 0.0
C778 C 0.95307 0.22977 0.64789 0.0
C779 C 0.99247 0.26917 0.6581 0.0
C780 C 0.02506 0.30944 0.64589 0.0
C781 C 0.01499 0.31216 0.62443 0.0
C782 C 0.9187 0.18536 0.66019 0.0
C783 C 0.06785 0.35215 0.65596 0.0
C784 C 0.97935 0.31093 0.71242 0.0
C785 C 0.013 0.30525 0.72453 0.0
C786 C 0.96983 0.29596 0.6912 0.0
C787 C 0.99404 0.27397 0.68172 0.0
C788 C 0.02499 0.2643 0.69428 0.0
C789 C 0.03445 0.28042 0.71558 0.0
C790 C 0.9365 0.30713 0.67851 0.0
C791 C 0.05027 0.23951 0.685 0.0
H792 H 0.91152 0.20503 0.61883 0.0
H793 H 0.03874 0.3443 0.61546 0.0
H794 H 0.93821 0.17593 0.67211 0.0
H795 H 0.89266 0.19226 0.66891 0.0
H796 H 0.8981 0.15417 0.64943 0.0
H797 H 0.09257 0.37796 0.64386 0.0
H798 H 0.0551 0.37135 0.66645 0.0
H799 H 0.08843 0.34025 0.66598 0.0
H800 H 0.96156 0.32898 0.71926 0.0
H801 H 0.05992 0.27513 0.72488 0.0
H802 H 0.90866 0.27439 0.67032 0.0
H803 H 0.95734 0.33423 0.66607 0.0
H804 H 0.91812 0.32149 0.68864 0.0
H805 H 0.02751 0.21223 0.67297 0.0
H806 H 0.06022 0.22177 0.69763 0.0
H807 H 0.08385 0.26649 0.67701 0.0
C808 C 0.74433 0.04672 0.04984 0.0
C809 C 0.69917 0.03804 0.05699 0.0
C810 C 0.75016 0.03371 0.02906 0.0
C811 C 0.71002 0.01208 0.01515 0.0
C812 C 0.66436 0.00265 0.02246 0.0
C813 C 0.65957 0.01564 0.04318 0.0
C814 C 0.7993 0.04403 0.02187 0.0
C815 C 0.62047 0.97987 0.0082 0.0
C816 C 0.7084 0.02306 0.9558 0.0
C817 C 0.69051 0.97518 0.94959 0.0
C818 C 0.72111 0.03727 0.97699 0.0
C819 C 0.71511 0.00248 0.99238 0.0
C820 C 0.70258 0.95541 0.98569 0.0
C821 C 0.6904 0.94221 0.96422 0.0
C822 C 0.73498 0.088 0.98325 0.0
C823 C 0.69672 0.91755 0.00155 0.0
H824 H 0.77508 0.06366 0.06043 0.0
H825 H 0.62443 0.00856 0.04845 0.0
H826 H 0.79686 0.01268 0.01328 0.0
H827 H 0.81453 0.0748 0.01062 0.0
H828 H 0.8246 0.05315 0.03546 0.0
H829 H 0.58727 0.97335 0.01662 0.0
H830 H 0.62608 0.00358 0.99434 0.0
H831 H 0.61463 0.94504 0.00194 0.0
H832 H 0.70915 0.04874 0.94433 0.0
H833 H 0.67673 0.9052 0.95938 0.0
H834 H 0.76437 0.10242 0.9952 0.0
H835 H 0.70348 0.088 0.99058 0.0
H836 H 0.7467 0.11252 0.96927 0.0
H837 H 0.72515 0.93303 0.01395 0.0
H838 H 0.69788 0.88717 0.99365 0.0
H839 H 0.66142 0.90314 0.00966 0.0
C840 C 0.66645 0.67281 0.28545 0.0
C841 C 0.70502 0.68028 0.27231 0.0
C842 C 0.67361 0.68717 0.3068 0.0
C843 C 0.7207 0.71013 0.31537 0.0
C844 C 0.76033 0.721 0.30189 0.0
C845 C 0.75201 0.70568 0.28048 0.0
C846 C 0.63015 0.67479 0.32051 0.0
C847 C 0.81119 0.74647 0.31028 0.0
C848 C 0.7172 0.75233 0.37134 0.0
C849 C 0.70665 0.71082 0.38291 0.0
C850 C 0.72725 0.75521 0.34936 0.0
C851 C 0.72639 0.71561 0.33892 0.0
C852 C 0.72088 0.67604 0.35107 0.0
C853 C 0.71119 0.67422 0.37288 0.0
C854 C 0.73461 0.79873 0.33705 0.0
C855 C 0.7201 0.63315 0.34072 0.0
H856 H 0.63003 0.65414 0.27927 0.0
H857 H 0.78214 0.71222 0.27041 0.0
H858 H 0.62579 0.64774 0.33265 0.0
H859 H 0.63509 0.70712 0.32911 0.0
H860 H 0.59641 0.6599 0.31106 0.0
H861 H 0.83786 0.76301 0.29719 0.0
H862 H 0.81668 0.77483 0.3219 0.0
H863 H 0.81834 0.72021 0.31863 0.0
H864 H 0.71437 0.78103 0.37906 0.0
H865 H 0.70433 0.64256 0.38188 0.0
H866 H 0.70041 0.79056 0.32915 0.0
H867 H 0.76221 0.80836 0.32445 0.0
H868 H 0.74568 0.83024 0.34767 0.0
H869 H 0.68654 0.61294 0.33129 0.0
H870 H 0.72151 0.60828 0.35264 0.0
H871 H 0.75085 0.64489 0.32962 0.0
C872 C 0.00807 0.67491 0.62568 0.0
C873 C 0.04043 0.71337 0.61283 0.0
C874 C 0.99799 0.68226 0.64655 0.0
C875 C 0.0203 0.72949 0.65491 0.0
C876 C 0.05032 0.76898 0.64162 0.0
C877 C 0.06038 0.76044 0.62071 0.0
C878 C 0.96575 0.63887 0.66006 0.0
C879 C 0.07374 0.81999 0.6497 0.0
C880 C 0.96492 0.7225 0.70886 0.0
C881 C 0.9944 0.71194 0.72158 0.0
C882 C 0.97602 0.73446 0.6872 0.0
C883 C 0.01711 0.73538 0.67828 0.0
C884 C 0.04975 0.73049 0.69177 0.0
C885 C 0.03799 0.7189 0.71324 0.0
C886 C 0.94148 0.74159 0.67349 0.0
C887 C 0.09436 0.73183 0.6831 0.0
H888 H 0.99157 0.6384 0.61971 0.0
H889 H 0.08489 0.79049 0.61084 0.0
H890 H 0.98693 0.63559 0.67328 0.0
H891 H 0.93648 0.64305 0.66726 0.0
H892 H 0.9492 0.60488 0.65077 0.0
H893 H 0.08262 0.8459 0.63638 0.0
H894 H 0.05025 0.82479 0.66124 0.0
H895 H 0.10778 0.82891 0.65796 0.0
H896 H 0.93155 0.71793 0.71533 0.0
H897 H 0.06163 0.71216 0.7232 0.0
H898 H 0.91738 0.70765 0.66494 0.0
H899 H 0.96114 0.76991 0.66134 0.0
H900 H 0.9188 0.75154 0.6832 0.0
H901 H 0.08377 0.69885 0.6736 0.0
H902 H 0.11898 0.73373 0.696 0.0
H903 H 0.11429 0.76316 0.6724 0.0
C904 C 0.33032 0.97866 0.04561 0.0
C905 C 0.29174 0.9587 0.06004 0.0
C906 C 0.32508 0.99217 0.02506 0.0
C907 C 0.27996 0.98568 0.01855 0.0
C908 C 0.24068 0.96577 0.03295 0.0
C909 C 0.24699 0.95236 0.05359 0.0
C910 C 0.36798 0.01279 0.01021 0.0
C911 C 0.19222 0.9587 0.02657 0.0
C912 C 0.30205 0.05986 0.96886 0.0
C913 C 0.29942 0.02691 0.95357 0.0
C914 C 0.28981 0.04553 0.99023 0.0
C915 C 0.27456 0.99732 0.99611 0.0
C916 C 0.26594 0.96292 0.98009 0.0
C917 C 0.27891 0.97827 0.95902 0.0
C918 C 0.29884 0.08318 0.00677 0.0
C919 C 0.2491 0.91105 0.98549 0.0
H920 H 0.36504 0.98363 0.0503 0.0
H921 H 0.2171 0.93735 0.06469 0.0
H922 H 0.35983 0.98913 0.9961 0.0
H923 H 0.37595 0.04866 0.00439 0.0
H924 H 0.40084 0.01665 0.018 0.0
H925 H 0.1651 0.942 0.03948 0.0
H926 H 0.19569 0.99387 0.02237 0.0
H927 H 0.17878 0.93563 0.01218 0.0
H928 H 0.31787 0.09749 0.96461 0.0
H929 H 0.27635 0.95271 0.94705 0.0
H930 H 0.33421 0.09509 0.01444 0.0
H931 H 0.27096 0.06842 0.01942 0.0
H932 H 0.29953 0.11515 -0.00043 0.0
H933 H 0.27987 0.90816 0.99182 0.0
H934 H 0.2348 0.88747 0.97125 0.0
H935 H 0.2208 0.89761 0.99794 0.0
loop_
_geom_bond_atom_site_label_1
_geom_bond_atom_site_label_2
_geom_bond_distance
_geom_bond_site_symmetry_2
_ccdc_geom_bond_type
Mg0 O1 2.028 . S
Mg0 O7 1.986 . S
Mg0 O9 2.114 . S
Mg0 O10 2.251 . S
Mg0 O13 2.010 . S
O1 Mg0 2.028 . S
O1 C4 1.250 . S
O2 Mg3 2.028 . S
O2 C4 1.248 . S
Mg3 O2 2.028 . S
Mg3 O8 2.032 . S
Mg3 O10 2.079 . S
C4 O1 1.250 . S
C4 O2 1.248 . S
C5 O6 1.264 . S
C5 O13 1.249 . S
O6 C5 1.264 . S
O7 Mg0 1.986 . S
O7 C11 1.246 . S
O8 Mg3 2.032 . S
O8 C11 1.259 . S
O9 Mg0 2.114 . S
O9 C12 1.252 . S
O10 Mg0 2.251 . S
O10 Mg3 2.079 . S
O10 C12 1.273 . S
C11 O7 1.246 . S
C11 O8 1.259 . S
C12 O9 1.252 . S
C12 O10 1.273 . S
O13 Mg0 2.010 . S
O13 C5 1.249 . S
Mg14 O15 2.028 . S
Mg14 O21 1.986 . S
Mg14 O23 2.114 . S
Mg14 O24 2.251 . S
Mg14 O27 2.010 . S
O15 Mg14 2.028 . S
O15 C18 1.250 1_655 S
O16 Mg17 2.028 . S
O16 C18 1.248 . S
Mg17 O16 2.028 . S
Mg17 O22 2.032 . S
Mg17 O24 2.079 1_455 S
C18 O15 1.250 1_455 S
C18 O16 1.248 . S
C19 O20 1.264 . S
C19 O27 1.249 . S
O20 C19 1.264 . S
O21 Mg14 1.986 . S
O21 C25 1.246 . S
O22 Mg17 2.032 . S
O22 C25 1.259 1_455 S
O23 Mg14 2.114 . S
O23 C26 1.252 . S
O24 Mg14 2.251 . S
O24 Mg17 2.079 1_655 S
O24 C26 1.273 . S
C25 O21 1.246 . S
C25 O22 1.259 1_655 S
C26 O23 1.252 . S
C26 O24 1.273 . S
O27 Mg14 2.010 . S
O27 C19 1.249 . S
Mg28 O29 2.028 . S
Mg28 O35 1.986 . S
Mg28 O37 2.114 . S
Mg28 O38 2.251 . S
Mg28 O41 2.010 . S
O29 Mg28 2.028 . S
O29 C32 1.250 1_565 S
O30 Mg31 2.028 . S
O30 C32 1.248 . S
Mg31 O30 2.028 . S
Mg31 O36 2.032 . S
Mg31 O38 2.079 1_545 S
C32 O29 1.250 1_545 S
C32 O30 1.248 . S
C33 O34 1.264 . S
C33 O41 1.249 . S
O34 C33 1.264 . S
O35 Mg28 1.986 . S
O35 C39 1.246 . S
O36 Mg31 2.032 . S
O36 C39 1.259 1_545 S
O37 Mg28 2.114 . S
O37 C40 1.252 . S
O38 Mg28 2.251 . S
O38 Mg31 2.079 1_565 S
O38 C40 1.273 . S
C39 O35 1.246 . S
C39 O36 1.259 1_565 S
C40 O37 1.252 . S
C40 O38 1.273 . S
O41 Mg28 2.010 . S
O41 C33 1.249 . S
Mg42 O43 2.028 . S
Mg42 O49 1.986 . S
Mg42 O51 2.114 . S
Mg42 O52 2.251 . S
Mg42 O55 2.010 . S
O43 Mg42 2.028 . S
O43 C46 1.250 . S
O44 Mg45 2.028 . S
O44 C46 1.248 . S
Mg45 O44 2.028 . S
Mg45 O50 2.032 . S
Mg45 O52 2.079 . S
C46 O43 1.250 . S
C46 O44 1.248 . S
C47 O48 1.264 . S
C47 O55 1.249 . S
O48 C47 1.264 . S
O49 Mg42 1.986 . S
O49 C53 1.246 . S
O50 Mg45 2.032 . S
O50 C53 1.259 . S
O51 Mg42 2.114 . S
O51 C54 1.252 . S
O52 Mg42 2.251 . S
O52 Mg45 2.079 . S
O52 C54 1.273 . S
C53 O49 1.246 . S
C53 O50 1.259 . S
C54 O51 1.252 . S
C54 O52 1.273 . S
O55 Mg42 2.010 . S
O55 C47 1.249 . S
Mg56 O57 2.028 . S
Mg56 O63 1.986 . S
Mg56 O65 2.114 . S
Mg56 O66 2.251 . S
Mg56 O69 2.010 . S
O57 Mg56 2.028 . S
O57 C60 1.250 1_455 S
O58 Mg59 2.028 . S
O58 C60 1.248 . S
Mg59 O58 2.028 . S
Mg59 O64 2.032 . S
Mg59 O66 2.079 1_655 S
C60 O57 1.250 1_655 S
C60 O58 1.248 . S
C61 O62 1.264 . S
C61 O69 1.249 . S
O62 C61 1.264 . S
O63 Mg56 1.986 . S
O63 C67 1.246 . S
O64 Mg59 2.032 . S
O64 C67 1.259 1_655 S
O65 Mg56 2.114 . S
O65 C68 1.252 . S
O66 Mg56 2.251 . S
O66 Mg59 2.079 1_455 S
O66 C68 1.273 . S
C67 O63 1.246 . S
C67 O64 1.259 1_455 S
C68 O65 1.252 . S
C68 O66 1.273 . S
O69 Mg56 2.010 . S
O69 C61 1.249 . S
Mg70 O71 2.028 . S
Mg70 O77 1.986 . S
Mg70 O79 2.114 . S
Mg70 O80 2.251 . S
Mg70 O83 2.010 . S
O71 Mg70 2.028 . S
O71 C74 1.250 1_545 S
O72 Mg73 2.028 . S
O72 C74 1.248 . S
Mg73 O72 2.028 . S
Mg73 O78 2.032 . S
Mg73 O80 2.079 1_565 S
C74 O71 1.250 1_565 S
C74 O72 1.248 . S
C75 O76 1.264 . S
C75 O83 1.249 . S
O76 C75 1.264 . S
O77 Mg70 1.986 . S
O77 C81 1.246 . S
O78 Mg73 2.032 . S
O78 C81 1.259 1_565 S
O79 Mg70 2.114 . S
O79 C82 1.252 . S
O80 Mg70 2.251 . S
O80 Mg73 2.079 1_545 S
O80 C82 1.273 . S
C81 O77 1.246 . S
C81 O78 1.259 1_545 S
C82 O79 1.252 . S
C82 O80 1.273 . S
O83 Mg70 2.010 . S
O83 C75 1.249 . S
Mg84 O85 2.028 . S
Mg84 O91 1.986 . S
Mg84 O93 2.114 . S
Mg84 O94 2.251 . S
Mg84 O97 2.010 . S
O85 Mg84 2.028 . S
O85 C88 1.250 . S
O86 Mg87 2.028 . S
O86 C88 1.248 . S
Mg87 O86 2.028 . S
Mg87 O92 2.032 . S
Mg87 O94 2.079 . S
C88 O85 1.250 . S
C88 O86 1.248 . S
C89 O90 1.264 . S
C89 O97 1.249 . S
O90 C89 1.264 . S
O91 Mg84 1.986 . S
O91 C95 1.246 . S
O92 Mg87 2.032 . S
O92 C95 1.259 . S
O93 Mg84 2.114 . S
O93 C96 1.252 . S
O94 Mg84 2.251 . S
O94 Mg87 2.079 . S
O94 C96 1.273 . S
C95 O91 1.246 . S
C95 O92 1.259 . S
C96 O93 1.252 . S
C96 O94 1.273 . S
O97 Mg84 2.010 . S
O97 C89 1.249 . S
Mg98 O99 2.028 . S
Mg98 O105 1.986 . S
Mg98 O107 2.114 . S
Mg98 O108 2.251 . S
Mg98 O111 2.010 . S
O99 Mg98 2.028 . S
O99 C102 1.250 1_655 S
O100 Mg101 2.028 . S
O100 C102 1.248 . S
Mg101 O100 2.028 . S
Mg101 O106 2.032 . S
Mg101 O108 2.079 1_455 S
C102 O99 1.250 1_455 S
C102 O100 1.248 . S
C103 O104 1.264 . S
C103 O111 1.249 . S
O104 C103 1.264 . S
O105 Mg98 1.986 . S
O105 C109 1.246 . S
O106 Mg101 2.032 . S
O106 C109 1.259 1_455 S
O107 Mg98 2.114 . S
O107 C110 1.252 . S
O108 Mg98 2.251 . S
O108 Mg101 2.079 1_655 S
O108 C110 1.273 . S
C109 O105 1.246 . S
C109 O106 1.259 1_655 S
C110 O107 1.252 . S
C110 O108 1.273 . S
O111 Mg98 2.010 . S
O111 C103 1.249 . S
Mg112 O113 2.028 . S
Mg112 O119 1.986 . S
Mg112 O121 2.114 . S
Mg112 O122 2.251 . S
Mg112 O125 2.010 . S
O113 Mg112 2.028 . S
O113 C116 1.250 1_565 S
O114 Mg115 2.028 . S
O114 C116 1.248 . S
Mg115 O114 2.028 . S
Mg115 O120 2.032 . S
Mg115 O122 2.079 1_545 S
C116 O113 1.250 1_545 S
C116 O114 1.248 . S
C117 O118 1.264 . S
C117 O125 1.249 . S
O118 C117 1.264 . S
O119 Mg112 1.986 . S
O119 C123 1.246 . S
O120 Mg115 2.032 . S
O120 C123 1.259 1_545 S
O121 Mg112 2.114 . S
O121 C124 1.252 . S
O122 Mg112 2.251 . S
O122 Mg115 2.079 1_565 S
O122 C124 1.273 . S
C123 O119 1.246 . S
C123 O120 1.259 1_565 S
C124 O121 1.252 . S
C124 O122 1.273 . S
O125 Mg112 2.010 . S
O125 C117 1.249 . S
Mg126 O127 2.028 . S
Mg126 O133 1.986 . S
Mg126 O135 2.114 . S
Mg126 O136 2.251 . S
Mg126 O139 2.010 . S
O127 Mg126 2.028 . S
O127 C130 1.250 . S
O128 Mg129 2.028 . S
O128 C130 1.248 . S
Mg129 O128 2.028 . S
Mg129 O134 2.032 . S
Mg129 O136 2.079 . S
C130 O127 1.250 . S
C130 O128 1.248 . S
C131 O132 1.264 . S
C131 O139 1.249 . S
O132 C131 1.264 . S
O133 Mg126 1.986 . S
O133 C137 1.246 . S
O134 Mg129 2.032 . S
O134 C137 1.259 . S
O135 Mg126 2.114 . S
O135 C138 1.252 . S
O136 Mg126 2.251 . S
O136 Mg129 2.079 . S
O136 C138 1.273 . S
C137 O133 1.246 . S
C137 O134 1.259 . S
C138 O135 1.252 . S
C138 O136 1.273 . S
O139 Mg126 2.010 . S
O139 C131 1.249 . S
Mg140 O141 2.028 . S
Mg140 O147 1.986 . S
Mg140 O149 2.114 . S
Mg140 O150 2.251 . S
Mg140 O153 2.010 . S
O141 Mg140 2.028 . S
O141 C144 1.250 1_455 S
O142 Mg143 2.028 . S
O142 C144 1.248 . S
Mg143 O142 2.028 . S
Mg143 O148 2.032 . S
Mg143 O150 2.079 1_655 S
C144 O141 1.250 1_655 S
C144 O142 1.248 . S
C145 O146 1.264 . S
C145 O153 1.249 . S
O146 C145 1.264 . S
O147 Mg140 1.986 . S
O147 C151 1.246 . S
O148 Mg143 2.032 . S
O148 C151 1.259 1_655 S
O149 Mg140 2.114 . S
O149 C152 1.252 . S
O150 Mg140 2.251 . S
O150 Mg143 2.079 1_455 S
O150 C152 1.273 . S
C151 O147 1.246 . S
C151 O148 1.259 1_455 S
C152 O149 1.252 . S
C152 O150 1.273 . S
O153 Mg140 2.010 . S
O153 C145 1.249 . S
Mg154 O155 2.028 . S
Mg154 O161 1.986 . S
Mg154 O163 2.114 . S
Mg154 O164 2.251 . S
Mg154 O167 2.010 . S
O155 Mg154 2.028 . S
O155 C158 1.250 1_545 S
O156 Mg157 2.028 . S
O156 C158 1.248 . S
Mg157 O156 2.028 . S
Mg157 O162 2.032 . S
Mg157 O164 2.079 1_565 S
C158 O155 1.250 1_565 S
C158 O156 1.248 . S
C159 O160 1.264 . S
C159 O167 1.249 . S
O160 C159 1.264 . S
O161 Mg154 1.986 . S
O161 C165 1.246 . S
O162 Mg157 2.032 . S
O162 C165 1.259 1_565 S
O163 Mg154 2.114 . S
O163 C166 1.252 . S
O164 Mg154 2.251 . S
O164 Mg157 2.079 1_545 S
O164 C166 1.273 . S
C165 O161 1.246 . S
C165 O162 1.259 1_545 S
C166 O163 1.252 . S
C166 O164 1.273 . S
O167 Mg154 2.010 . S
O167 C159 1.249 . S
C168 C169 1.391 . S
C168 C170 1.394 . S
C168 H184 0.931 . S
C169 C168 1.391 . S
C169 C173 1.376 . S
C170 C168 1.394 . S
C170 C171 1.369 . S
C170 C174 1.531 . S
C171 C170 1.369 . S
C171 C172 1.410 . S
C171 C179 1.503 1_655 S
C172 C171 1.410 . S
C172 C173 1.392 . S
C172 C175 1.511 . S
C173 C169 1.376 . S
C173 C172 1.392 . S
C173 H185 0.929 . S
C174 C170 1.531 . S
C174 H186 0.960 . S
C174 H187 0.962 . S
C174 H188 0.960 . S
C175 C172 1.511 . S
C175 H189 0.961 . S
C175 H190 0.961 1_655 S
C175 H191 0.961 1_655 S
C176 C177 1.370 . S
C176 C178 1.363 . S
C176 H192 0.931 . S
C177 C176 1.370 . S
C177 C181 1.408 . S
C178 C176 1.363 . S
C178 C179 1.370 . S
C178 C182 1.524 1_455 S
C179 C171 1.503 1_455 S
C179 C178 1.370 . S
C179 C180 1.403 . S
C180 C179 1.403 . S
C180 C181 1.404 . S
C180 C183 1.539 . S
C181 C177 1.408 . S
C181 C180 1.404 . S
C181 H193 0.930 . S
C182 C178 1.524 1_655 S
C182 H194 0.956 . S
C182 H195 0.961 . S
C182 H196 0.961 1_655 S
C183 C180 1.539 . S
C183 H197 0.958 . S
C183 H198 0.961 . S
C183 H199 0.960 . S
H184 C168 0.931 . S
H185 C173 0.929 . S
H186 C174 0.960 . S
H187 C174 0.962 . S
H188 C174 0.960 . S
H189 C175 0.961 . S
H190 C175 0.961 1_455 S
H191 C175 0.961 1_455 S
H192 C176 0.931 . S
H193 C181 0.930 . S
H194 C182 0.956 . S
H195 C182 0.961 . S
H196 C182 0.961 1_455 S
H197 C183 0.958 . S
H198 C183 0.961 . S
H199 C183 0.960 . S
C200 C201 1.391 . S
C200 C202 1.394 . S
C200 H216 0.931 . S
C201 C200 1.391 . S
C201 C205 1.376 . S
C202 C200 1.394 . S
C202 C203 1.369 . S
C202 C206 1.531 . S
C203 C202 1.369 . S
C203 C204 1.410 . S
C203 C211 1.503 1_545 S
C204 C203 1.410 . S
C204 C205 1.392 . S
C204 C207 1.511 . S
C205 C201 1.376 . S
C205 C204 1.392 . S
C205 H217 0.929 . S
C206 C202 1.531 . S
C206 H218 0.960 . S
C206 H219 0.962 . S
C206 H220 0.960 . S
C207 C204 1.511 . S
C207 H221 0.961 . S
C207 H222 0.961 1_545 S
C207 H223 0.961 . S
C208 C209 1.370 . S
C208 C210 1.363 . S
C208 H224 0.931 . S
C209 C208 1.370 . S
C209 C213 1.408 . S
C210 C208 1.363 . S
C210 C211 1.370 . S
C210 C214 1.524 . S
C211 C203 1.503 1_565 S
C211 C210 1.370 . S
C211 C212 1.403 . S
C212 C211 1.403 . S
C212 C213 1.404 . S
C212 C215 1.539 . S
C213 C209 1.408 . S
C213 C212 1.404 . S
C213 H225 0.930 . S
C214 C210 1.524 . S
C214 H226 0.956 . S
C214 H227 0.961 . S
C214 H228 0.961 . S
C215 C212 1.539 . S
C215 H229 0.958 1_565 S
C215 H230 0.961 . S
C215 H231 0.960 1_565 S
H216 C200 0.931 . S
H217 C205 0.929 . S
H218 C206 0.960 . S
H219 C206 0.962 . S
H220 C206 0.960 . S
H221 C207 0.961 . S
H222 C207 0.961 1_565 S
H223 C207 0.961 . S
H224 C208 0.931 . S
H225 C213 0.930 . S
H226 C214 0.956 . S
H227 C214 0.961 . S
H228 C214 0.961 . S
H229 C215 0.958 1_545 S
H230 C215 0.961 . S
H231 C215 0.960 1_545 S
C232 C233 1.391 . S
C232 C234 1.394 . S
C232 H248 0.931 . S
C233 C232 1.391 . S
C233 C237 1.376 . S
C234 C232 1.394 . S
C234 C235 1.369 . S
C234 C238 1.531 . S
C235 C234 1.369 . S
C235 C236 1.410 . S
C235 C243 1.503 . S
C236 C235 1.410 . S
C236 C237 1.392 . S
C236 C239 1.511 . S
C237 C233 1.376 . S
C237 C236 1.392 . S
C237 H249 0.929 . S
C238 C234 1.531 . S
C238 H250 0.960 . S
C238 H251 0.962 . S
C238 H252 0.960 . S
C239 C236 1.511 . S
C239 H253 0.961 . S
C239 H254 0.961 . S
C239 H255 0.961 . S
C240 C241 1.370 . S
C240 C242 1.363 . S
C240 H256 0.931 . S
C241 C240 1.370 . S
C241 C245 1.408 . S
C242 C240 1.363 . S
C242 C243 1.370 . S
C242 C246 1.524 . S
C243 C235 1.503 . S
C243 C242 1.370 . S
C243 C244 1.403 . S
C244 C243 1.403 . S
C244 C245 1.404 . S
C244 C247 1.539 . S
C245 C241 1.408 . S
C245 C244 1.404 . S
C245 H257 0.930 . S
C246 C242 1.524 . S
C246 H258 0.956 . S
C246 H259 0.961 . S
C246 H260 0.961 . S
C247 C244 1.539 . S
C247 H261 0.958 . S
C247 H262 0.961 . S
C247 H263 0.960 . S
H248 C232 0.931 . S
H249 C237 0.929 . S
H250 C238 0.960 . S
H251 C238 0.962 . S
H252 C238 0.960 . S
H253 C239 0.961 . S
H254 C239 0.961 . S
H255 C239 0.961 . S
H256 C240 0.931 . S
H257 C245 0.930 . S
H258 C246 0.956 . S
H259 C246 0.961 . S
H260 C246 0.961 . S
H261 C247 0.958 . S
H262 C247 0.961 . S
H263 C247 0.960 . S
C264 C265 1.391 . S
C264 C266 1.394 . S
C264 H280 0.931 . S
C265 C264 1.391 . S
C265 C269 1.376 . S
C266 C264 1.394 . S
C266 C267 1.369 . S
C266 C270 1.531 . S
C267 C266 1.369 . S
C267 C268 1.410 . S
C267 C275 1.503 1_655 S
C268 C267 1.410 . S
C268 C269 1.392 . S
C268 C271 1.511 . S
C269 C265 1.376 . S
C269 C268 1.392 . S
C269 H281 0.929 . S
C270 C266 1.531 . S
C270 H282 0.952 1_655 S
C270 H283 0.962 . S
C270 H284 0.960 . S
C271 C268 1.511 . S
C271 H285 0.961 . S
C271 H286 0.965 . S
C271 H287 0.961 . S
C272 C273 1.370 . S
C272 C274 1.363 . S
C272 H288 0.931 . S
C273 C272 1.370 . S
C273 C277 1.408 . S
C274 C272 1.363 . S
C274 C275 1.370 . S
C274 C278 1.524 . S
C275 C267 1.503 1_455 S
C275 C274 1.370 . S
C275 C276 1.403 . S
C276 C275 1.403 . S
C276 C277 1.404 . S
C276 C279 1.530 1_455 S
C277 C273 1.408 . S
C277 C276 1.404 . S
C277 H289 0.930 . S
C278 C274 1.524 . S
C278 H290 0.956 . S
C278 H291 0.961 . S
C278 H292 0.961 . S
C279 C276 1.530 1_655 S
C279 H293 0.952 . S
C279 H294 0.960 1_655 S
C279 H295 0.977 . S
H280 C264 0.931 . S
H281 C269 0.929 . S
H282 C270 0.952 1_455 S
H283 C270 0.962 . S
H284 C270 0.960 . S
H285 C271 0.961 . S
H286 C271 0.965 . S
H287 C271 0.961 . S
H288 C272 0.931 . S
H289 C277 0.930 . S
H290 C278 0.956 . S
H291 C278 0.961 . S
H292 C278 0.961 . S
H293 C279 0.952 . S
H294 C279 0.960 1_455 S
H295 C279 0.977 . S
C296 C297 1.391 . S
C296 C298 1.394 . S
C296 H312 0.931 . S
C297 C296 1.391 . S
C297 C301 1.376 . S
C298 C296 1.394 . S
C298 C299 1.369 . S
C298 C302 1.531 . S
C299 C298 1.369 . S
C299 C300 1.410 . S
C299 C307 1.503 1_545 S
C300 C299 1.410 . S
C300 C301 1.392 . S
C300 C303 1.511 . S
C301 C297 1.376 . S
C301 C300 1.392 . S
C301 H313 0.929 . S
C302 C298 1.531 . S
C302 H314 0.960 1_545 S
C302 H315 0.962 . S
C302 H316 0.960 . S
C303 C300 1.511 . S
C303 H317 0.961 . S
C303 H318 0.961 . S
C303 H319 0.961 . S
C304 C305 1.370 . S
C304 C306 1.363 . S
C304 H320 0.931 . S
C305 C304 1.370 . S
C305 C309 1.408 . S
C306 C304 1.363 . S
C306 C307 1.370 . S
C306 C310 1.524 1_565 S
C307 C299 1.503 1_565 S
C307 C306 1.370 . S
C307 C308 1.403 . S
C308 C307 1.403 . S
C308 C309 1.404 . S
C308 C311 1.539 . S
C309 C305 1.408 . S
C309 C308 1.404 . S
C309 H321 0.930 . S
C310 C306 1.524 1_545 S
C310 H322 0.956 . S
C310 H323 0.961 . S
C310 H324 0.961 1_545 S
C311 C308 1.539 . S
C311 H325 0.958 . S
C311 H326 0.961 . S
C311 H327 0.960 . S
H312 C296 0.931 . S
H313 C301 0.929 . S
H314 C302 0.960 1_565 S
H315 C302 0.962 . S
H316 C302 0.960 . S
H317 C303 0.961 . S
H318 C303 0.961 . S
H319 C303 0.961 . S
H320 C304 0.931 . S
H321 C309 0.930 . S
H322 C310 0.956 . S
H323 C310 0.961 . S
H324 C310 0.961 1_565 S
H325 C311 0.958 . S
H326 C311 0.961 . S
H327 C311 0.960 . S
C328 C329 1.391 . S
C328 C330 1.394 . S
C328 H344 0.931 . S
C329 C328 1.391 . S
C329 C333 1.376 . S
C330 C328 1.394 . S
C330 C331 1.369 . S
C330 C334 1.531 . S
C331 C330 1.369 . S
C331 C332 1.410 . S
C331 C339 1.503 . S
C332 C331 1.410 . S
C332 C333 1.392 . S
C332 C335 1.511 . S
C333 C329 1.376 . S
C333 C332 1.392 . S
C333 H345 0.929 . S
C334 C330 1.531 . S
C334 H346 0.960 . S
C334 H347 0.962 . S
C334 H348 0.960 . S
C335 C332 1.511 . S
C335 H349 0.961 . S
C335 H350 0.961 . S
C335 H351 0.961 . S
C336 C337 1.370 . S
C336 C338 1.363 . S
C336 H352 0.931 . S
C337 C336 1.370 . S
C337 C341 1.408 . S
C338 C336 1.363 . S
C338 C339 1.370 . S
C338 C342 1.524 . S
C339 C331 1.503 . S
C339 C338 1.370 . S
C339 C340 1.403 . S
C340 C339 1.403 . S
C340 C341 1.404 . S
C340 C343 1.539 . S
C341 C337 1.408 . S
C341 C340 1.404 . S
C341 H353 0.930 . S
C342 C338 1.524 . S
C342 H354 0.956 . S
C342 H355 0.961 . S
C342 H356 0.961 . S
C343 C340 1.539 . S
C343 H357 0.958 . S
C343 H358 0.961 . S
C343 H359 0.960 . S
H344 C328 0.931 . S
H345 C333 0.929 . S
H346 C334 0.960 . S
H347 C334 0.962 . S
H348 C334 0.960 . S
H349 C335 0.961 . S
H350 C335 0.961 . S
H351 C335 0.961 . S
H352 C336 0.931 . S
H353 C341 0.930 . S
H354 C342 0.956 . S
H355 C342 0.961 . S
H356 C342 0.961 . S
H357 C343 0.958 . S
H358 C343 0.961 . S
H359 C343 0.960 . S
C360 C361 1.391 . S
C360 C362 1.394 . S
C360 H376 0.931 . S
C361 C360 1.391 . S
C361 C365 1.376 . S
C362 C360 1.394 . S
C362 C363 1.369 . S
C362 C366 1.531 . S
C363 C362 1.369 . S
C363 C364 1.410 . S
C363 C371 1.503 . S
C364 C363 1.410 . S
C364 C365 1.392 . S
C364 C367 1.511 . S
C365 C361 1.376 . S
C365 C364 1.392 . S
C365 H377 0.929 . S
C366 C362 1.531 . S
C366 H378 0.960 . S
C366 H379 0.962 . S
C366 H380 0.960 . S
C367 C364 1.511 . S
C367 H381 0.961 . S
C367 H382 0.961 . S
C367 H383 0.961 . S
C368 C369 1.370 . S
C368 C370 1.363 . S
C368 H384 0.931 . S
C369 C368 1.370 . S
C369 C373 1.408 . S
C370 C368 1.363 . S
C370 C371 1.370 . S
C370 C374 1.524 . S
C371 C363 1.503 . S
C371 C370 1.370 . S
C371 C372 1.403 . S
C372 C371 1.403 . S
C372 C373 1.404 . S
C372 C375 1.539 . S
C373 C369 1.408 . S
C373 C372 1.404 . S
C373 H385 0.930 . S
C374 C370 1.524 . S
C374 H386 0.956 . S
C374 H387 0.961 . S
C374 H388 0.961 . S
C375 C372 1.539 . S
C375 H389 0.958 . S
C375 H390 0.961 . S
C375 H391 0.960 . S
H376 C360 0.931 . S
H377 C365 0.929 . S
H378 C366 0.960 . S
H379 C366 0.962 . S
H380 C366 0.960 . S
H381 C367 0.961 . S
H382 C367 0.961 . S
H383 C367 0.961 . S
H384 C368 0.931 . S
H385 C373 0.930 . S
H386 C374 0.956 . S
H387 C374 0.961 . S
H388 C374 0.961 . S
H389 C375 0.958 . S
H390 C375 0.961 . S
H391 C375 0.960 . S
C392 C393 1.391 . S
C392 C394 1.394 1_455 S
C392 H408 0.933 1_455 S
C393 C392 1.391 . S
C393 C397 1.376 . S
C394 C392 1.394 1_655 S
C394 C395 1.369 1_655 S
C394 C398 1.531 . S
C395 C394 1.369 1_455 S
C395 C396 1.410 . S
C395 C403 1.503 1_455 S
C396 C395 1.410 . S
C396 C397 1.392 . S
C396 C399 1.511 . S
C397 C393 1.376 . S
C397 C396 1.392 . S
C397 H409 0.929 . S
C398 C394 1.531 . S
C398 H410 0.960 . S
C398 H411 0.962 . S
C398 H412 0.960 . S
C399 C396 1.511 . S
C399 H413 0.961 . S
C399 H414 0.961 . S
C399 H415 0.961 . S
C400 C401 1.370 . S
C400 C402 1.363 . S
C400 H416 0.931 . S
C401 C400 1.370 . S
C401 C405 1.408 . S
C402 C400 1.363 . S
C402 C403 1.370 . S
C402 C406 1.524 . S
C403 C395 1.503 1_655 S
C403 C402 1.370 . S
C403 C404 1.403 1_655 S
C404 C403 1.403 1_455 S
C404 C405 1.404 1_455 S
C404 C407 1.539 . S
C405 C401 1.408 . S
C405 C404 1.404 1_655 S
C405 H417 0.930 . S
C406 C402 1.524 . S
C406 H418 0.956 . S
C406 H419 0.961 . S
C406 H420 0.961 . S
C407 C404 1.539 . S
C407 H421 0.958 . S
C407 H422 0.961 . S
C407 H423 0.960 . S
H408 C392 0.933 1_655 S
H409 C397 0.929 . S
H410 C398 0.960 . S
H411 C398 0.962 . S
H412 C398 0.960 . S
H413 C399 0.961 . S
H414 C399 0.961 . S
H415 C399 0.961 . S
H416 C400 0.931 . S
H417 C405 0.930 . S
H418 C406 0.956 . S
H419 C406 0.961 . S
H420 C406 0.961 . S
H421 C407 0.958 . S
H422 C407 0.961 . S
H423 C407 0.960 . S
C424 C425 1.391 . S
C424 C426 1.394 . S
C424 H440 0.931 . S
C425 C424 1.391 . S
C425 C429 1.376 . S
C426 C424 1.394 . S
C426 C427 1.369 . S
C426 C430 1.531 . S
C427 C426 1.369 . S
C427 C428 1.410 1_545 S
C427 C435 1.503 1_545 S
C428 C427 1.410 1_565 S
C428 C429 1.392 1_565 S
C428 C431 1.511 . S
C429 C425 1.376 . S
C429 C428 1.392 1_545 S
C429 H441 0.929 1_545 S
C430 C426 1.531 . S
C430 H442 0.960 . S
C430 H443 0.962 . S
C430 H444 0.960 . S
C431 C428 1.511 . S
C431 H445 0.961 . S
C431 H446 0.961 . S
C431 H447 0.961 . S
C432 C433 1.370 . S
C432 C434 1.363 . S
C432 H448 0.931 . S
C433 C432 1.370 . S
C433 C437 1.408 . S
C434 C432 1.363 . S
C434 C435 1.370 . S
C434 C438 1.524 1_565 S
C435 C427 1.503 1_565 S
C435 C434 1.370 . S
C435 C436 1.403 . S
C436 C435 1.403 . S
C436 C437 1.404 . S
C436 C439 1.539 . S
C437 C433 1.408 . S
C437 C436 1.404 . S
C437 H449 0.930 . S
C438 C434 1.524 1_545 S
C438 H450 0.956 . S
C438 H451 0.961 . S
C438 H452 0.961 . S
C439 C436 1.539 . S
C439 H453 0.958 . S
C439 H454 0.961 . S
C439 H455 0.960 . S
H440 C424 0.931 . S
H441 C429 0.929 1_565 S
H442 C430 0.960 . S
H443 C430 0.962 . S
H444 C430 0.960 . S
H445 C431 0.961 . S
H446 C431 0.961 . S
H447 C431 0.961 . S
H448 C432 0.931 . S
H449 C437 0.930 . S
H450 C438 0.956 . S
H451 C438 0.961 . S
H452 C438 0.961 . S
H453 C439 0.958 . S
H454 C439 0.961 . S
H455 C439 0.960 . S
C456 C457 1.391 . S
C456 C458 1.394 . S
C456 H472 0.931 . S
C457 C456 1.391 . S
C457 C461 1.376 . S
C458 C456 1.394 . S
C458 C459 1.369 . S
C458 C462 1.531 . S
C459 C458 1.369 . S
C459 C460 1.410 . S
C459 C467 1.503 . S
C460 C459 1.410 . S
C460 C461 1.392 . S
C460 C463 1.511 . S
C461 C457 1.376 . S
C461 C460 1.392 . S
C461 H473 0.929 . S
C462 C458 1.531 . S
C462 H474 0.960 . S
C462 H475 0.962 . S
C462 H476 0.960 . S
C463 C460 1.511 . S
C463 H477 0.961 . S
C463 H478 0.961 . S
C463 H479 0.961 . S
C464 C465 1.370 . S
C464 C466 1.363 . S
C464 H480 0.931 . S
C465 C464 1.370 . S
C465 C469 1.408 . S
C466 C464 1.363 . S
C466 C467 1.370 . S
C466 C470 1.524 . S
C467 C459 1.503 . S
C467 C466 1.370 . S
C467 C468 1.403 . S
C468 C467 1.403 . S
C468 C469 1.404 . S
C468 C471 1.539 . S
C469 C465 1.408 . S
C469 C468 1.404 . S
C469 H481 0.930 . S
C470 C466 1.524 . S
C470 H482 0.956 . S
C470 H483 0.961 . S
C470 H484 0.961 . S
C471 C468 1.539 . S
C471 H485 0.958 . S
C471 H486 0.961 . S
C471 H487 0.960 . S
H472 C456 0.931 . S
H473 C461 0.929 . S
H474 C462 0.960 . S
H475 C462 0.962 . S
H476 C462 0.960 . S
H477 C463 0.961 . S
H478 C463 0.961 . S
H479 C463 0.961 . S
H480 C464 0.931 . S
H481 C469 0.930 . S
H482 C470 0.956 . S
H483 C470 0.961 . S
H484 C470 0.961 . S
H485 C471 0.958 . S
H486 C471 0.961 . S
H487 C471 0.960 . S
C488 C489 1.391 . S
C488 C490 1.394 . S
C488 H504 0.931 . S
C489 C488 1.391 . S
C489 C493 1.376 . S
C490 C488 1.394 . S
C490 C491 1.369 . S
C490 C494 1.531 . S
C491 C490 1.369 . S
C491 C492 1.410 1_655 S
C491 C499 1.503 1_655 S
C492 C491 1.410 1_455 S
C492 C493 1.392 1_455 S
C492 C495 1.511 . S
C493 C489 1.376 . S
C493 C492 1.392 1_655 S
C493 H505 0.929 . S
C494 C490 1.531 . S
C494 H506 0.960 . S
C494 H507 0.962 . S
C494 H508 0.960 . S
C495 C492 1.511 . S
C495 H509 0.961 . S
C495 H510 0.961 . S
C495 H511 0.961 . S
C496 C497 1.370 . S
C496 C498 1.363 1_455 S
C496 H512 0.931 1_455 S
C497 C496 1.370 . S
C497 C501 1.408 . S
C498 C496 1.363 1_655 S
C498 C499 1.370 1_655 S
C498 C502 1.524 . S
C499 C491 1.503 1_455 S
C499 C498 1.370 1_455 S
C499 C500 1.403 . S
C500 C499 1.403 . S
C500 C501 1.404 . S
C500 C503 1.539 . S
C501 C497 1.408 . S
C501 C500 1.404 . S
C501 H513 0.930 . S
C502 C498 1.524 . S
C502 H514 0.956 . S
C502 H515 0.961 . S
C502 H516 0.961 . S
C503 C500 1.539 . S
C503 H517 0.958 . S
C503 H518 0.961 . S
C503 H519 0.960 . S
H504 C488 0.931 . S
H505 C493 0.929 . S
H506 C494 0.960 . S
H507 C494 0.962 . S
H508 C494 0.960 . S
H509 C495 0.961 . S
H510 C495 0.961 . S
H511 C495 0.961 . S
H512 C496 0.931 1_655 S
H513 C501 0.930 . S
H514 C502 0.956 . S
H515 C502 0.961 . S
H516 C502 0.961 . S
H517 C503 0.958 . S
H518 C503 0.961 . S
H519 C503 0.960 . S
C520 C521 1.391 . S
C520 C522 1.394 1_565 S
C520 H536 0.931 1_565 S
C521 C520 1.391 . S
C521 C525 1.376 . S
C522 C520 1.394 1_545 S
C522 C523 1.369 1_545 S
C522 C526 1.531 . S
C523 C522 1.369 1_565 S
C523 C524 1.410 . S
C523 C531 1.503 1_565 S
C524 C523 1.410 . S
C524 C525 1.392 . S
C524 C527 1.511 . S
C525 C521 1.376 . S
C525 C524 1.392 . S
C525 H537 0.929 . S
C526 C522 1.531 . S
C526 H538 0.960 . S
C526 H539 0.962 . S
C526 H540 0.960 . S
C527 C524 1.511 . S
C527 H541 0.961 . S
C527 H542 0.961 . S
C527 H543 0.961 . S
C528 C529 1.370 . S
C528 C530 1.363 . S
C528 H544 0.931 . S
C529 C528 1.370 . S
C529 C533 1.408 . S
C530 C528 1.363 . S
C530 C531 1.370 . S
C530 C534 1.525 . S
C531 C523 1.503 1_545 S
C531 C530 1.370 . S
C531 C532 1.403 . S
C532 C531 1.403 . S
C532 C533 1.404 . S
C532 C535 1.539 . S
C533 C529 1.408 . S
C533 C532 1.404 . S
C533 H545 0.930 . S
C534 C530 1.525 . S
C534 H546 0.966 . S
C534 H547 0.953 1_545 S
C534 H548 0.958 . S
C535 C532 1.539 . S
C535 H549 0.958 . S
C535 H550 0.961 . S
C535 H551 0.960 1_545 S
H536 C520 0.931 1_545 S
H537 C525 0.929 . S
H538 C526 0.960 . S
H539 C526 0.962 . S
H540 C526 0.960 . S
H541 C527 0.961 . S
H542 C527 0.961 . S
H543 C527 0.961 . S
H544 C528 0.931 . S
H545 C533 0.930 . S
H546 C534 0.966 . S
H547 C534 0.953 1_565 S
H548 C534 0.958 . S
H549 C535 0.958 . S
H550 C535 0.961 . S
H551 C535 0.960 1_565 S
C552 C553 1.391 . S
C552 C554 1.394 . S
C552 H568 0.931 . S
C553 C552 1.391 . S
C553 C557 1.376 . S
C554 C552 1.394 . S
C554 C555 1.369 . S
C554 C558 1.531 . S
C555 C554 1.369 . S
C555 C556 1.410 . S
C555 C563 1.503 . S
C556 C555 1.410 . S
C556 C557 1.392 . S
C556 C559 1.511 . S
C557 C553 1.376 . S
C557 C556 1.392 . S
C557 H569 0.929 . S
C558 C554 1.531 . S
C558 H570 0.960 . S
C558 H571 0.962 . S
C558 H572 0.960 . S
C559 C556 1.511 . S
C559 H573 0.961 . S
C559 H574 0.961 . S
C559 H575 0.961 . S
C560 C561 1.370 . S
C560 C562 1.363 . S
C560 H576 0.931 . S
C561 C560 1.370 . S
C561 C565 1.408 . S
C562 C560 1.363 . S
C562 C563 1.370 . S
C562 C566 1.524 . S
C563 C555 1.503 . S
C563 C562 1.370 . S
C563 C564 1.403 . S
C564 C563 1.403 . S
C564 C565 1.404 . S
C564 C567 1.539 . S
C565 C561 1.408 . S
C565 C564 1.404 . S
C565 H577 0.930 . S
C566 C562 1.524 . S
C566 H578 0.956 . S
C566 H579 0.961 . S
C566 H580 0.961 . S
C567 C564 1.539 . S
C567 H581 0.958 . S
C567 H582 0.961 . S
C567 H583 0.960 . S
H568 C552 0.931 . S
H569 C557 0.929 . S
H570 C558 0.960 . S
H571 C558 0.962 . S
H572 C558 0.960 . S
H573 C559 0.961 . S
H574 C559 0.961 . S
H575 C559 0.961 . S
H576 C560 0.931 . S
H577 C565 0.930 . S
H578 C566 0.956 . S
H579 C566 0.961 . S
H580 C566 0.961 . S
H581 C567 0.958 . S
H582 C567 0.961 . S
H583 C567 0.960 . S
C584 C585 1.391 . S
C584 C586 1.394 . S
C584 H600 0.931 . S
C585 C584 1.391 . S
C585 C589 1.376 . S
C586 C584 1.394 . S
C586 C587 1.369 . S
C586 C590 1.531 . S
C587 C586 1.369 . S
C587 C588 1.410 . S
C587 C595 1.503 . S
C588 C587 1.410 . S
C588 C589 1.392 . S
C588 C591 1.511 . S
C589 C585 1.376 . S
C589 C588 1.392 . S
C589 H601 0.929 . S
C590 C586 1.531 . S
C590 H602 0.960 . S
C590 H603 0.962 . S
C590 H604 0.960 . S
C591 C588 1.511 . S
C591 H605 0.961 . S
C591 H606 0.961 . S
C591 H607 0.961 . S
C592 C593 1.370 . S
C592 C594 1.363 . S
C592 H608 0.931 . S
C593 C592 1.370 . S
C593 C597 1.408 . S
C594 C592 1.363 . S
C594 C595 1.370 . S
C594 C598 1.524 . S
C595 C587 1.503 . S
C595 C594 1.370 . S
C595 C596 1.403 . S
C596 C595 1.403 . S
C596 C597 1.404 . S
C596 C599 1.539 . S
C597 C593 1.408 . S
C597 C596 1.404 . S
C597 H609 0.930 . S
C598 C594 1.524 . S
C598 H610 0.956 . S
C598 H611 0.961 . S
C598 H612 0.961 . S
C599 C596 1.539 . S
C599 H613 0.958 . S
C599 H614 0.961 . S
C599 H615 0.960 . S
H600 C584 0.931 . S
H601 C589 0.929 . S
H602 C590 0.960 . S
H603 C590 0.962 . S
H604 C590 0.960 . S
H605 C591 0.961 . S
H606 C591 0.961 . S
H607 C591 0.961 . S
H608 C592 0.931 . S
H609 C597 0.930 . S
H610 C598 0.956 . S
H611 C598 0.961 . S
H612 C598 0.961 . S
H613 C599 0.958 . S
H614 C599 0.961 . S
H615 C599 0.960 . S
C616 C617 1.391 . S
C616 C618 1.394 . S
C616 H632 0.931 . S
C617 C616 1.391 . S
C617 C621 1.376 . S
C618 C616 1.394 . S
C618 C619 1.369 . S
C618 C622 1.531 . S
C619 C618 1.369 . S
C619 C620 1.410 . S
C619 C627 1.503 . S
C620 C619 1.410 . S
C620 C621 1.392 . S
C620 C623 1.511 . S
C621 C617 1.376 . S
C621 C620 1.392 . S
C621 H633 0.929 . S
C622 C618 1.531 . S
C622 H634 0.960 . S
C622 H635 0.962 . S
C622 H636 0.960 . S
C623 C620 1.511 . S
C623 H637 0.961 . S
C623 H638 0.961 . S
C623 H639 0.961 . S
C624 C625 1.370 . S
C624 C626 1.363 . S
C624 H640 0.931 . S
C625 C624 1.370 . S
C625 C629 1.408 . S
C626 C624 1.363 . S
C626 C627 1.370 . S
C626 C630 1.524 . S
C627 C619 1.503 . S
C627 C626 1.370 . S
C627 C628 1.403 . S
C628 C627 1.403 . S
C628 C629 1.404 . S
C628 C631 1.539 . S
C629 C625 1.408 . S
C629 C628 1.404 . S
C629 H641 0.930 . S
C630 C626 1.524 . S
C630 H642 0.956 . S
C630 H643 0.961 . S
C630 H644 0.961 . S
C631 C628 1.539 . S
C631 H645 0.958 . S
C631 H646 0.961 . S
C631 H647 0.960 . S
H632 C616 0.931 . S
H633 C621 0.929 . S
H634 C622 0.960 . S
H635 C622 0.962 . S
H636 C622 0.960 . S
H637 C623 0.961 . S
H638 C623 0.961 . S
H639 C623 0.961 . S
H640 C624 0.931 . S
H641 C629 0.930 . S
H642 C630 0.956 . S
H643 C630 0.961 . S
H644 C630 0.961 . S
H645 C631 0.958 . S
H646 C631 0.961 . S
H647 C631 0.960 . S
C648 C649 1.391 . S
C648 C650 1.394 . S
C648 H664 0.931 1_565 S
C649 C648 1.391 . S
C649 C653 1.376 . S
C650 C648 1.394 . S
C650 C651 1.369 . S
C650 C654 1.531 . S
C651 C650 1.369 . S
C651 C652 1.410 . S
C651 C659 1.503 . S
C652 C651 1.410 . S
C652 C653 1.392 . S
C652 C655 1.511 . S
C653 C649 1.376 . S
C653 C652 1.392 . S
C653 H665 0.929 . S
C654 C650 1.531 . S
C654 H666 0.960 . S
C654 H667 0.962 . S
C654 H668 0.960 . S
C655 C652 1.511 . S
C655 H669 0.961 . S
C655 H670 0.961 . S
C655 H671 0.961 . S
C656 C657 1.370 . S
C656 C658 1.363 . S
C656 H672 0.931 . S
C657 C656 1.370 . S
C657 C661 1.408 . S
C658 C656 1.363 . S
C658 C659 1.370 . S
C658 C662 1.524 . S
C659 C651 1.503 . S
C659 C658 1.370 . S
C659 C660 1.403 . S
C660 C659 1.403 . S
C660 C661 1.404 . S
C660 C663 1.539 . S
C661 C657 1.408 . S
C661 C660 1.404 . S
C661 H673 0.930 . S
C662 C658 1.524 . S
C662 H674 0.956 . S
C662 H675 0.961 . S
C662 H676 0.961 . S
C663 C660 1.539 . S
C663 H677 0.958 . S
C663 H678 0.961 . S
C663 H679 0.960 . S
H664 C648 0.931 1_545 S
H665 C653 0.929 . S
H666 C654 0.960 . S
H667 C654 0.962 . S
H668 C654 0.960 . S
H669 C655 0.961 . S
H670 C655 0.961 . S
H671 C655 0.961 . S
H672 C656 0.931 . S
H673 C661 0.930 . S
H674 C662 0.956 . S
H675 C662 0.961 . S
H676 C662 0.961 . S
H677 C663 0.958 . S
H678 C663 0.961 . S
H679 C663 0.960 . S
C680 C681 1.391 . S
C680 C682 1.394 . S
C680 H696 0.931 . S
C681 C680 1.391 . S
C681 C685 1.376 . S
C682 C680 1.394 . S
C682 C683 1.369 . S
C682 C686 1.531 . S
C683 C682 1.369 . S
C683 C684 1.410 . S
C683 C691 1.503 . S
C684 C683 1.410 . S
C684 C685 1.392 . S
C684 C687 1.511 . S
C685 C681 1.376 . S
C685 C684 1.392 . S
C685 H697 0.929 . S
C686 C682 1.531 . S
C686 H698 0.960 . S
C686 H699 0.962 . S
C686 H700 0.960 . S
C687 C684 1.511 . S
C687 H701 0.961 . S
C687 H702 0.961 . S
C687 H703 0.961 . S
C688 C689 1.370 . S
C688 C690 1.363 . S
C688 H704 0.931 . S
C689 C688 1.370 . S
C689 C693 1.408 . S
C690 C688 1.363 . S
C690 C691 1.370 . S
C690 C694 1.524 . S
C691 C683 1.503 . S
C691 C690 1.370 . S
C691 C692 1.403 . S
C692 C691 1.403 . S
C692 C693 1.404 . S
C692 C695 1.539 . S
C693 C689 1.408 . S
C693 C692 1.404 . S
C693 H705 0.930 1_655 S
C694 C690 1.524 . S
C694 H706 0.956 . S
C694 H707 0.961 . S
C694 H708 0.961 . S
C695 C692 1.539 . S
C695 H709 0.958 . S
C695 H710 0.961 . S
C695 H711 0.960 . S
H696 C680 0.931 . S
H697 C685 0.929 . S
H698 C686 0.960 . S
H699 C686 0.962 . S
H700 C686 0.960 . S
H701 C687 0.961 . S
H702 C687 0.961 . S
H703 C687 0.961 . S
H704 C688 0.931 . S
H705 C693 0.930 1_455 S
H706 C694 0.956 . S
H707 C694 0.961 . S
H708 C694 0.961 . S
H709 C695 0.958 . S
H710 C695 0.961 . S
H711 C695 0.960 . S
C712 C713 1.391 . S
C712 C714 1.394 . S
C712 H728 0.931 . S
C713 C712 1.391 . S
C713 C717 1.376 . S
C714 C712 1.394 . S
C714 C715 1.369 . S
C714 C718 1.531 . S
C715 C714 1.369 . S
C715 C716 1.410 . S
C715 C723 1.503 . S
C716 C715 1.410 . S
C716 C717 1.392 . S
C716 C719 1.511 . S
C717 C713 1.376 . S
C717 C716 1.392 . S
C717 H729 0.929 . S
C718 C714 1.531 . S
C718 H730 0.960 . S
C718 H731 0.962 . S
C718 H732 0.960 . S
C719 C716 1.511 . S
C719 H733 0.961 . S
C719 H734 0.961 . S
C719 H735 0.961 . S
C720 C721 1.370 . S
C720 C722 1.363 . S
C720 H736 0.931 . S
C721 C720 1.370 . S
C721 C725 1.408 . S
C722 C720 1.363 . S
C722 C723 1.370 . S
C722 C726 1.524 . S
C723 C715 1.503 . S
C723 C722 1.370 . S
C723 C724 1.403 . S
C724 C723 1.403 . S
C724 C725 1.404 . S
C724 C727 1.539 . S
C725 C721 1.408 . S
C725 C724 1.404 . S
C725 H737 0.930 . S
C726 C722 1.524 . S
C726 H738 0.956 . S
C726 H739 0.961 . S
C726 H740 0.961 . S
C727 C724 1.539 . S
C727 H741 0.958 . S
C727 H742 0.961 . S
C727 H743 0.960 . S
H728 C712 0.931 . S
H729 C717 0.929 . S
H730 C718 0.960 . S
H731 C718 0.962 . S
H732 C718 0.960 . S
H733 C719 0.961 . S
H734 C719 0.961 . S
H735 C719 0.961 . S
H736 C720 0.931 . S
H737 C725 0.930 . S
H738 C726 0.956 . S
H739 C726 0.961 . S
H740 C726 0.961 . S
H741 C727 0.958 . S
H742 C727 0.961 . S
H743 C727 0.960 . S
C744 C745 1.391 . S
C744 C746 1.394 . S
C744 H760 0.931 . S
C745 C744 1.391 . S
C745 C749 1.376 . S
C746 C744 1.394 . S
C746 C747 1.369 . S
C746 C750 1.531 . S
C747 C746 1.369 . S
C747 C748 1.410 . S
C747 C755 1.503 . S
C748 C747 1.410 . S
C748 C749 1.392 . S
C748 C751 1.511 . S
C749 C745 1.376 . S
C749 C748 1.392 . S
C749 H761 0.929 . S
C750 C746 1.531 . S
C750 H762 0.960 . S
C750 H763 0.962 . S
C750 H764 0.960 . S
C751 C748 1.511 . S
C751 H765 0.961 . S
C751 H766 0.961 . S
C751 H767 0.961 . S
C752 C753 1.370 . S
C752 C754 1.363 . S
C752 H768 0.931 . S
C753 C752 1.370 . S
C753 C757 1.408 . S
C754 C752 1.363 . S
C754 C755 1.370 . S
C754 C758 1.524 . S
C755 C747 1.503 . S
C755 C754 1.370 . S
C755 C756 1.403 . S
C756 C755 1.403 . S
C756 C757 1.404 . S
C756 C759 1.539 . S
C757 C753 1.408 . S
C757 C756 1.404 . S
C757 H769 0.930 . S
C758 C754 1.524 . S
C758 H770 0.956 . S
C758 H771 0.961 . S
C758 H772 0.961 . S
C759 C756 1.539 . S
C759 H773 0.958 . S
C759 H774 0.961 . S
C759 H775 0.960 . S
H760 C744 0.931 . S
H761 C749 0.929 . S
H762 C750 0.960 . S
H763 C750 0.962 . S
H764 C750 0.960 . S
H765 C751 0.961 . S
H766 C751 0.961 . S
H767 C751 0.961 . S
H768 C752 0.931 . S
H769 C757 0.930 . S
H770 C758 0.956 . S
H771 C758 0.961 . S
H772 C758 0.961 . S
H773 C759 0.958 . S
H774 C759 0.961 . S
H775 C759 0.960 . S
C776 C777 1.391 . S
C776 C778 1.394 . S
C776 H792 0.931 . S
C777 C776 1.391 . S
C777 C781 1.376 1_655 S
C778 C776 1.394 . S
C778 C779 1.369 . S
C778 C782 1.531 . S
C779 C778 1.369 . S
C779 C780 1.410 1_655 S
C779 C787 1.503 1_655 S
C780 C779 1.410 1_455 S
C780 C781 1.392 . S
C780 C783 1.511 . S
C781 C777 1.376 1_455 S
C781 C780 1.392 . S
C781 H793 0.929 . S
C782 C778 1.531 . S
C782 H794 0.960 . S
C782 H795 0.962 . S
C782 H796 0.960 . S
C783 C780 1.511 . S
C783 H797 0.961 . S
C783 H798 0.961 . S
C783 H799 0.961 . S
C784 C785 1.370 . S
C784 C786 1.363 . S
C784 H800 0.931 . S
C785 C784 1.370 . S
C785 C789 1.408 . S
C786 C784 1.363 . S
C786 C787 1.370 . S
C786 C790 1.524 . S
C787 C779 1.503 1_455 S
C787 C786 1.370 . S
C787 C788 1.403 . S
C788 C787 1.403 . S
C788 C789 1.404 . S
C788 C791 1.539 . S
C789 C785 1.408 . S
C789 C788 1.404 . S
C789 H801 0.930 . S
C790 C786 1.524 . S
C790 H802 0.956 1_455 S
C790 H803 0.961 . S
C790 H804 0.961 . S
C791 C788 1.539 . S
C791 H805 0.958 1_455 S
C791 H806 0.961 . S
C791 H807 0.960 . S
H792 C776 0.931 . S
H793 C781 0.929 . S
H794 C782 0.960 . S
H795 C782 0.962 . S
H796 C782 0.960 . S
H797 C783 0.961 . S
H798 C783 0.961 . S
H799 C783 0.961 . S
H800 C784 0.931 . S
H801 C789 0.930 . S
H802 C790 0.956 1_655 S
H803 C790 0.961 . S
H804 C790 0.961 . S
H805 C791 0.958 1_655 S
H806 C791 0.961 . S
H807 C791 0.960 . S
C808 C809 1.391 . S
C808 C810 1.394 1_545 S
C808 H824 0.931 1_545 S
C809 C808 1.391 . S
C809 C813 1.376 . S
C810 C808 1.394 1_565 S
C810 C811 1.369 . S
C810 C814 1.531 . S
C811 C810 1.369 . S
C811 C812 1.410 1_565 S
C811 C819 1.503 1_554 S
C812 C811 1.410 1_545 S
C812 C813 1.392 . S
C812 C815 1.511 . S
C813 C809 1.376 . S
C813 C812 1.392 . S
C813 H825 0.929 . S
C814 C810 1.531 . S
C814 H826 0.960 . S
C814 H827 0.962 . S
C814 H828 0.960 . S
C815 C812 1.511 . S
C815 H829 0.961 . S
C815 H830 0.961 1_554 S
C815 H831 0.961 1_545 S
C816 C817 1.370 1_545 S
C816 C818 1.363 . S
C816 H832 0.931 . S
C817 C816 1.370 1_565 S
C817 C821 1.408 . S
C818 C816 1.363 . S
C818 C819 1.370 1_545 S
C818 C822 1.524 . S
C819 C811 1.503 1_556 S
C819 C818 1.370 1_565 S
C819 C820 1.403 . S
C820 C819 1.403 . S
C820 C821 1.404 . S
C820 C823 1.539 . S
C821 C817 1.408 . S
C821 C820 1.404 . S
C821 H833 0.930 . S
C822 C818 1.524 . S
C822 H834 0.956 . S
C822 H835 0.961 . S
C822 H836 0.961 . S
C823 C820 1.539 . S
C823 H837 0.951 1_556 S
C823 H838 0.961 . S
C823 H839 0.960 1_556 S
H824 C808 0.931 1_565 S
H825 C813 0.929 . S
H826 C814 0.960 . S
H827 C814 0.962 . S
H828 C814 0.960 . S
H829 C815 0.961 . S
H830 C815 0.961 1_556 S
H831 C815 0.961 1_565 S
H832 C816 0.931 . S
H833 C821 0.930 . S
H834 C822 0.956 . S
H835 C822 0.961 . S
H836 C822 0.961 . S
H837 C823 0.951 1_554 S
H838 C823 0.961 . S
H839 C823 0.960 1_554 S
C840 C841 1.391 . S
C840 C842 1.394 . S
C840 H856 0.931 . S
C841 C840 1.391 . S
C841 C845 1.376 . S
C842 C840 1.394 . S
C842 C843 1.369 . S
C842 C846 1.531 . S
C843 C842 1.369 . S
C843 C844 1.410 . S
C843 C851 1.503 . S
C844 C843 1.410 . S
C844 C845 1.392 . S
C844 C847 1.511 . S
C845 C841 1.376 . S
C845 C844 1.392 . S
C845 H857 0.929 . S
C846 C842 1.531 . S
C846 H858 0.960 . S
C846 H859 0.962 . S
C846 H860 0.960 . S
C847 C844 1.511 . S
C847 H861 0.961 . S
C847 H862 0.961 . S
C847 H863 0.961 . S
C848 C849 1.370 . S
C848 C850 1.363 . S
C848 H864 0.931 . S
C849 C848 1.370 . S
C849 C853 1.408 . S
C850 C848 1.363 . S
C850 C851 1.370 . S
C850 C854 1.524 . S
C851 C843 1.503 . S
C851 C850 1.370 . S
C851 C852 1.403 . S
C852 C851 1.403 . S
C852 C853 1.404 . S
C852 C855 1.539 . S
C853 C849 1.408 . S
C853 C852 1.404 . S
C853 H865 0.930 . S
C854 C850 1.524 . S
C854 H866 0.956 . S
C854 H867 0.961 . S
C854 H868 0.961 . S
C855 C852 1.539 . S
C855 H869 0.958 . S
C855 H870 0.961 . S
C855 H871 0.960 . S
H856 C840 0.931 . S
H857 C845 0.929 . S
H858 C846 0.960 . S
H859 C846 0.962 . S
H860 C846 0.960 . S
H861 C847 0.961 . S
H862 C847 0.961 . S
H863 C847 0.961 . S
H864 C848 0.931 . S
H865 C853 0.930 . S
H866 C854 0.956 . S
H867 C854 0.961 . S
H868 C854 0.961 . S
H869 C855 0.958 . S
H870 C855 0.961 . S
H871 C855 0.960 . S
C872 C873 1.391 . S
C872 C874 1.394 . S
C872 H888 0.931 . S
C873 C872 1.391 . S
C873 C877 1.376 . S
C874 C872 1.394 . S
C874 C875 1.369 . S
C874 C878 1.531 1_455 S
C875 C874 1.369 . S
C875 C876 1.410 . S
C875 C883 1.503 . S
C876 C875 1.410 . S
C876 C877 1.392 . S
C876 C879 1.511 . S
C877 C873 1.376 . S
C877 C876 1.392 . S
C877 H889 0.929 . S
C878 C874 1.531 1_655 S
C878 H890 0.960 . S
C878 H891 0.962 . S
C878 H892 0.960 . S
C879 C876 1.511 . S
C879 H893 0.961 . S
C879 H894 0.961 . S
C879 H895 0.961 . S
C880 C881 1.370 . S
C880 C882 1.363 . S
C880 H896 0.931 . S
C881 C880 1.370 . S
C881 C885 1.408 1_655 S
C882 C880 1.363 . S
C882 C883 1.370 1_655 S
C882 C886 1.524 . S
C883 C875 1.503 . S
C883 C882 1.370 1_455 S
C883 C884 1.403 . S
C884 C883 1.403 . S
C884 C885 1.404 . S
C884 C887 1.539 . S
C885 C881 1.408 1_455 S
C885 C884 1.404 . S
C885 H897 0.930 . S
C886 C882 1.524 . S
C886 H898 0.956 . S
C886 H899 0.961 . S
C886 H900 0.961 . S
C887 C884 1.539 . S
C887 H901 0.958 . S
C887 H902 0.961 . S
C887 H903 0.960 . S
H888 C872 0.931 . S
H889 C877 0.929 . S
H890 C878 0.960 . S
H891 C878 0.962 . S
H892 C878 0.960 . S
H893 C879 0.961 . S
H894 C879 0.961 . S
H895 C879 0.961 . S
H896 C880 0.931 . S
H897 C885 0.930 . S
H898 C886 0.956 . S
H899 C886 0.961 . S
H900 C886 0.961 . S
H901 C887 0.958 . S
H902 C887 0.961 . S
H903 C887 0.960 . S
C904 C905 1.391 . S
C904 C906 1.394 . S
C904 H920 0.931 . S
C905 C904 1.391 . S
C905 C909 1.376 . S
C906 C904 1.394 . S
C906 C907 1.369 . S
C906 C910 1.531 . S
C907 C906 1.369 . S
C907 C908 1.410 1_565 S
C907 C915 1.504 1_554 S
C908 C907 1.410 1_545 S
C908 C909 1.392 1_545 S
C908 C911 1.511 . S
C909 C905 1.376 . S
C909 C908 1.392 1_565 S
C909 H921 0.929 1_565 S
C910 C906 1.531 . S
C910 H922 0.960 1_554 S
C910 H923 0.962 . S
C910 H924 0.960 . S
C911 C908 1.511 . S
C911 H925 0.961 . S
C911 H926 0.961 . S
C911 H927 0.961 . S
C912 C913 1.370 . S
C912 C914 1.363 . S
C912 H928 0.931 . S
C913 C912 1.370 . S
C913 C917 1.408 1_545 S
C914 C912 1.363 . S
C914 C915 1.369 1_545 S
C914 C918 1.524 . S
C915 C907 1.504 1_556 S
C915 C914 1.369 1_565 S
C915 C916 1.403 . S
C916 C915 1.403 . S
C916 C917 1.404 . S
C916 C919 1.539 . S
C917 C913 1.408 1_565 S
C917 C916 1.404 . S
C917 H929 0.930 . S
C918 C914 1.524 . S
C918 H930 0.956 1_556 S
C918 H931 0.961 1_556 S
C918 H932 0.961 . S
C919 C916 1.539 . S
C919 H933 0.958 . S
C919 H934 0.961 . S
C919 H935 0.960 . S
H920 C904 0.931 . S
H921 C909 0.929 1_545 S
H922 C910 0.960 1_556 S
H923 C910 0.962 . S
H924 C910 0.960 . S
H925 C911 0.961 . S
H926 C911 0.961 . S
H927 C911 0.961 . S
H928 C912 0.931 . S
H929 C917 0.930 . S
H930 C918 0.956 1_554 S
H931 C918 0.961 1_554 S
H932 C918 0.961 . S
H933 C919 0.958 . S
H934 C919 0.961 . S
H935 C919 0.960 . S
C169 C159 1.279 . S
C177 C5 1.299 . S
C201 C19 1.327 . S
C209 C89 1.284 . S
C233 C33 1.324 . S
C241 C103 1.298 . S
C265 C47 1.299 . S
C273 C117 1.266 . S
C297 C131 1.230 . S
C305 C61 1.280 . S
C329 C75 1.316 . S
C337 C145 1.301 . S
C361 C54 1.145 . S
C369 C12 1.097 . S
C393 C68 1.142 . S
C401 C26 1.104 . S
C425 C82 1.074 . S
C433 C40 1.109 . S
C457 C96 1.128 . S
C465 C138 1.114 . S
C489 C110 1.066 . S
C497 C152 1.118 . S
C521 C124 1.123 . S
C529 C166 1.116 . S
C553 C116 0.796 . S
C561 C4 0.756 . S
C585 C18 0.770 . S
C593 C130 0.769 . S
C617 C144 0.733 . S
C625 C32 0.737 . S
C649 C158 0.767 . S
C657 C46 0.735 . S
C681 C88 0.773 . S
C689 C60 0.769 . S
C713 C74 0.734 . S
C721 C102 0.770 . S
C745 C137 1.539 . S
C753 C11 1.526 . S
C777 C25 1.532 . S
C785 C151 1.529 . S
C809 C165 1.490 . S
C817 C39 1.526 . S
C841 C53 1.527 . S
C849 C95 1.509 . S
C873 C67 1.533 . S
C881 C109 1.510 . S
C905 C123 1.545 . S
C913 C81 1.519 . S
