# Generated by pormake.
# Topology wji, (4)-cn, num edge types: 1
# Building blocks:
#     Node 0, Type 0, BuildingBlock: ICAMEG_clean_sbu_1, # of connection points: 4
#     Node 1, Type 0, BuildingBlock: ICAMEG_clean_sbu_1, # of connection points: 4
#     Node 2, Type 0, BuildingBlock: ICAMEG_clean_sbu_1, # of connection points: 4
#     Node 3, Type 0, BuildingBlock: ICAMEG_clean_sbu_1, # of connection points: 4
#     Node 4, Type 0, BuildingBlock: ICAMEG_clean_sbu_1, # of connection points: 4
#     Node 5, Type 0, BuildingBlock: ICAMEG_clean_sbu_1, # of connection points: 4
#     Node 6, Type 0, BuildingBlock: ICAMEG_clean_sbu_1, # of connection points: 4
#     Node 7, Type 0, BuildingBlock: ICAMEG_clean_sbu_1, # of connection points: 4
#     Node 8, Type 0, BuildingBlock: ICAMEG_clean_sbu_1, # of connection points: 4
#     Node 9, Type 0, BuildingBlock: ICAMEG_clean_sbu_1, # of connection points: 4
#     Node 10, Type 0, BuildingBlock: ICAMEG_clean_sbu_1, # of connection points: 4
#     Node 11, Type 0, BuildingBlock: ICAMEG_clean_sbu_1, # of connection points: 4
#     Edge 12, Type (0, 0), BuildingBlock: UVAHIK_clean_linker_0, # of connection points: 2
#     Edge 13, Type (0, 0), BuildingBlock: UVAHIK_clean_linker_0, # of connection points: 2
#     Edge 14, Type (0, 0), BuildingBlock: UVAHIK_clean_linker_0, # of connection points: 2
#     Edge 15, Type (0, 0), BuildingBlock: UVAHIK_clean_linker_0, # of connection points: 2
#     Edge 16, Type (0, 0), BuildingBlock: UVAHIK_clean_linker_0, # of connection points: 2
#     Edge 17, Type (0, 0), BuildingBlock: UVAHIK_clean_linker_0, # of connection points: 2
#     Edge 18, Type (0, 0), BuildingBlock: UVAHIK_clean_linker_0, # of connection points: 2
#     Edge 19, Type (0, 0), BuildingBlock: UVAHIK_clean_linker_0, # of connection points: 2
#     Edge 20, Type (0, 0), BuildingBlock: UVAHIK_clean_linker_0, # of connection points: 2
#     Edge 21, Type (0, 0), BuildingBlock: UVAHIK_clean_linker_0, # of connection points: 2
#     Edge 22, Type (0, 0), BuildingBlock: UVAHIK_clean_linker_0, # of connection points: 2
#     Edge 23, Type (0, 0), BuildingBlock: UVAHIK_clean_linker_0, # of connection points: 2
#     Edge 24, Type (0, 0), BuildingBlock: UVAHIK_clean_linker_0, # of connection points: 2
#     Edge 25, Type (0, 0), BuildingBlock: UVAHIK_clean_linker_0, # of connection points: 2
#     Edge 26, Type (0, 0), BuildingBlock: UVAHIK_clean_linker_0, # of connection points: 2
#     Edge 27, Type (0, 0), BuildingBlock: UVAHIK_clean_linker_0, # of connection points: 2
#     Edge 28, Type (0, 0), BuildingBlock: UVAHIK_clean_linker_0, # of connection points: 2
#     Edge 29, Type (0, 0), BuildingBlock: UVAHIK_clean_linker_0, # of connection points: 2
#     Edge 30, Type (0, 0), BuildingBlock: UVAHIK_clean_linker_0, # of connection points: 2
#     Edge 31, Type (0, 0), BuildingBlock: UVAHIK_clean_linker_0, # of connection points: 2
#     Edge 32, Type (0, 0), BuildingBlock: UVAHIK_clean_linker_0, # of connection points: 2
#     Edge 33, Type (0, 0), BuildingBlock: UVAHIK_clean_linker_0, # of connection points: 2
#     Edge 34, Type (0, 0), BuildingBlock: UVAHIK_clean_linker_0, # of connection points: 2
#     Edge 35, Type (0, 0), BuildingBlock: UVAHIK_clean_linker_0, # of connection points: 2
# Relax obj value: 0.316
# Max RMSD: 0.212
# Mean RMSD: 0.212
data_MOF--net-wji--node1-ICAMEG_clean_sbu_1--edge1-UVAHIK_clean_linker_0
_symmetry_space_group_name_H-M    P1
_symmetry_Int_Tables_number       1
_symmetry_cell_setting            triclinic
loop_
_symmetry_equiv_pos_as_xyz
'x, y, z'
_cell_length_a     77.281326
_cell_length_b     77.27627
_cell_length_c     30.032736
_cell_angle_alpha  89.980239
_cell_angle_beta   90.047818
_cell_angle_gamma 119.99061
loop_
_atom_site_label
_atom_site_type_symbol
_atom_site_fract_x
_atom_site_fract_y
_atom_site_fract_z
_atom_type_partial_charge
Co0 Co 0.42728 0.34906 0.45972 0.0
Co1 Co 0.43777 0.32112 0.38705 0.0
O2 O 0.42559 0.32417 0.44108 0.0
C3 C 0.38464 0.33605 0.47514 0.0
O4 O 0.38627 0.3489 0.44448 0.0
C5 C 0.45379 0.3072 0.45982 0.0
O6 O 0.45964 0.32456 0.4788 0.0
O7 O 0.46402 0.34522 0.40174 0.0
O8 O 0.45538 0.36513 0.43815 0.0
H9 H 0.47852 0.34417 0.24684 0.0
H10 H 0.41486 0.31566 0.52362 0.0
O11 O 0.39927 0.33323 0.48283 0.0
H12 H 0.47444 0.37245 0.59071 0.0
H13 H 0.41591 0.39323 0.56496 0.0
H14 H 0.44231 0.38886 0.41853 0.0
H15 H 0.46109 0.37634 0.51919 0.0
H16 H 0.41471 0.36208 0.54138 0.0
O17 O 0.44548 0.30354 0.42154 0.0
H18 H 0.46271 0.34805 0.31455 0.0
H19 H 0.43918 0.28674 0.34602 0.0
H20 H 0.4439 0.42034 0.44088 0.0
H21 H 0.42755 0.31115 0.59547 0.0
H22 H 0.43063 0.42266 0.51457 0.0
H23 H 0.45761 0.33965 0.62941 0.0
O24 O 0.41734 0.35171 0.40031 0.0
H25 H 0.37567 0.25571 0.4194 0.0
H26 H 0.41261 0.30698 0.30516 0.0
H27 H 0.38008 0.27768 0.28614 0.0
H28 H 0.36141 0.25175 0.34345 0.0
H29 H 0.40815 0.28535 0.43713 0.0
H30 H 0.45485 0.28221 0.27883 0.0
H31 H 0.47462 0.31104 0.22863 0.0
O32 O 0.42966 0.33829 0.35215 0.0
C33 C 0.46832 0.36195 0.4193 0.0
C34 C 0.46989 0.33147 0.26837 0.0
C35 C 0.45663 0.29671 0.28637 0.0
N36 N 0.44992 0.31761 0.33396 0.0
C37 C 0.46086 0.33357 0.30667 0.0
C38 C 0.44783 0.29937 0.32441 0.0
C39 C 0.46771 0.31289 0.2582 0.0
C40 C 0.42783 0.3282 0.53837 0.0
N41 N 0.43721 0.34627 0.51717 0.0
C42 C 0.43499 0.32553 0.57899 0.0
C43 C 0.45188 0.34151 0.59797 0.0
C44 C 0.46134 0.35991 0.57625 0.0
C45 C 0.45377 0.36201 0.53563 0.0
C46 C 0.42177 0.39242 0.5328 0.0
C47 C 0.43656 0.38978 0.45071 0.0
C48 C 0.42112 0.37482 0.51925 0.0
N49 N 0.42849 0.37368 0.47865 0.0
C50 C 0.43748 0.40763 0.46316 0.0
C51 C 0.43002 0.40892 0.5045 0.0
C52 C 0.42069 0.34807 0.36073 0.0
C53 C 0.38368 0.26689 0.39412 0.0
C54 C 0.40453 0.29582 0.33035 0.0
C55 C 0.38614 0.27923 0.31935 0.0
C56 C 0.37568 0.26468 0.35151 0.0
N57 N 0.41232 0.29784 0.37217 0.0
C58 C 0.40211 0.28368 0.40392 0.0
Co59 Co 0.08402 0.42498 0.61533 0.0
Co60 Co 0.12387 0.43486 0.54947 0.0
O61 O 0.10793 0.42349 0.60301 0.0
C62 C 0.05561 0.38309 0.6409 0.0
O63 O 0.04349 0.38286 0.60992 0.0
C64 C 0.15267 0.45046 0.62437 0.0
O65 O 0.1407 0.45596 0.64237 0.0
O66 O 0.12632 0.4613 0.56287 0.0
O67 O 0.09509 0.45161 0.5854 0.0
H68 H 0.14385 0.47465 0.40769 0.0
H69 H 0.10429 0.41709 0.69011 0.0
O70 O 0.07279 0.3985 0.64594 0.0
H71 H 0.10502 0.4793 0.73045 0.0
H72 H 0.02677 0.41676 0.71084 0.0
H73 H 0.05829 0.43571 0.5627 0.0
H74 H 0.08934 0.46181 0.66048 0.0
H75 H 0.05765 0.41592 0.69498 0.0
O76 O 0.14872 0.44246 0.58576 0.0
H77 H 0.12331 0.45962 0.47478 0.0
H78 H 0.15976 0.43525 0.51199 0.0
H79 H 0.02744 0.4368 0.57716 0.0
H80 H 0.1198 0.43393 0.76079 0.0
H81 H 0.01146 0.42728 0.65169 0.0
H82 H 0.12034 0.46533 0.78126 0.0
O83 O 0.0725 0.41161 0.55774 0.0
H84 H 0.12508 0.37216 0.58775 0.0
H85 H 0.11356 0.40916 0.46854 0.0
H86 H 0.1098 0.37618 0.45216 0.0
H87 H 0.11564 0.35748 0.51198 0.0
H88 H 0.12851 0.40511 0.6028 0.0
H89 H 0.18082 0.45015 0.44553 0.0
H90 H 0.17285 0.46994 0.39274 0.0
O91 O 0.09902 0.4269 0.51221 0.0
C92 C 0.11237 0.46495 0.57222 0.0
C93 C 0.14744 0.46601 0.43037 0.0
C94 C 0.16821 0.45228 0.45164 0.0
N95 N 0.14025 0.44646 0.49702 0.0
C96 C 0.13583 0.45742 0.46833 0.0
C97 C 0.15627 0.44393 0.48927 0.0
C98 C 0.16372 0.46338 0.42203 0.0
C99 C 0.10417 0.43058 0.69906 0.0
N100 N 0.09581 0.43837 0.67122 0.0
C101 C 0.1131 0.44012 0.73903 0.0
C102 C 0.11344 0.45776 0.75044 0.0
C103 C 0.10487 0.46562 0.72192 0.0
C104 C 0.09608 0.45568 0.68223 0.0
C105 C 0.0336 0.42097 0.67825 0.0
C106 C 0.05145 0.43159 0.59524 0.0
C107 C 0.05109 0.42054 0.66908 0.0
N108 N 0.0598 0.42582 0.62797 0.0
C109 C 0.03397 0.43222 0.60323 0.0
C110 C 0.02502 0.42687 0.64504 0.0
C111 C 0.08014 0.41608 0.51886 0.0
C112 C 0.12255 0.38019 0.56138 0.0
C113 C 0.11605 0.40108 0.49481 0.0
C114 C 0.11394 0.38243 0.4853 0.0
C115 C 0.11723 0.37195 0.51887 0.0
N116 N 0.12135 0.4091 0.53654 0.0
C117 C 0.12452 0.39888 0.56967 0.0
Co118 Co 0.66197 0.0801 0.77781 0.0
Co119 Co 0.69473 0.1199 0.71473 0.0
O120 O 0.68826 0.10361 0.76862 0.0
C121 C 0.69201 0.07051 0.81908 0.0
O122 O 0.70713 0.08758 0.80619 0.0
C123 C 0.7081 0.14932 0.78886 0.0
O124 O 0.69001 0.13875 0.80529 0.0
O125 O 0.67158 0.12399 0.72558 0.0
O126 O 0.64851 0.09291 0.74569 0.0
H127 H 0.67936 0.14219 0.57029 0.0
H128 H 0.68862 0.10061 0.85566 0.0
O129 O 0.67406 0.06591 0.81034 0.0
H130 H 0.62597 0.10039 0.88705 0.0
H131 H 0.6089 0.0218 0.86416 0.0
H132 H 0.6265 0.05715 0.7201 0.0
H133 H 0.62957 0.0851 0.81835 0.0
H134 H 0.64175 0.05207 0.85348 0.0
O135 O 0.71238 0.14429 0.75177 0.0
H136 H 0.67152 0.12126 0.63759 0.0
H137 H 0.73202 0.15457 0.67948 0.0
H138 H 0.59344 0.02703 0.72944 0.0
H139 H 0.68552 0.11573 0.92496 0.0
H140 H 0.58445 0.00914 0.80191 0.0
H141 H 0.65403 0.11578 0.94108 0.0
O142 O 0.66486 0.0687 0.72128 0.0
H143 H 0.75736 0.11933 0.75763 0.0
H144 H 0.70958 0.10732 0.63641 0.0
H145 H 0.73796 0.10192 0.62282 0.0
H146 H 0.76214 0.10798 0.68365 0.0
H147 H 0.72861 0.12429 0.76999 0.0
H148 H 0.7405 0.17597 0.61284 0.0
H149 H 0.71407 0.16978 0.5576 0.0
O150 O 0.67741 0.0955 0.67645 0.0
C151 C 0.65357 0.11059 0.73324 0.0
C152 C 0.69101 0.145 0.59405 0.0
C153 C 0.72533 0.16398 0.61796 0.0
N154 N 0.70133 0.13659 0.6622 0.0
C155 C 0.68667 0.13316 0.63214 0.0
C156 C 0.72043 0.15184 0.65568 0.0
C157 C 0.71049 0.16049 0.58697 0.0
C158 C 0.67472 0.10012 0.86263 0.0
N159 N 0.65919 0.09156 0.83317 0.0
C160 C 0.67311 0.10891 0.90188 0.0
C161 C 0.65547 0.10898 0.91085 0.0
C162 C 0.63972 0.10036 0.88056 0.0
C163 C 0.64187 0.09171 0.84166 0.0
C164 C 0.61263 0.02949 0.83245 0.0
C165 C 0.62266 0.04952 0.75181 0.0
C166 C 0.63122 0.04661 0.82617 0.0
N167 N 0.63599 0.05646 0.7863 0.0
C168 C 0.60394 0.03244 0.75687 0.0
C169 C 0.59891 0.0224 0.79752 0.0
C170 C 0.66881 0.07655 0.68262 0.0
C171 C 0.74691 0.1166 0.73088 0.0
C172 C 0.71987 0.10975 0.66326 0.0
C173 C 0.736 0.10678 0.65526 0.0
C174 C 0.74957 0.11021 0.68938 0.0
N175 N 0.71728 0.11591 0.70414 0.0
C176 C 0.73061 0.11942 0.73765 0.0
Co177 Co 0.58984 0.66079 0.94654 0.0
Co178 Co 0.58051 0.69139 0.88143 0.0
O179 O 0.59169 0.68643 0.93488 0.0
C180 C 0.63185 0.67417 0.97128 0.0
O181 O 0.63236 0.66329 0.93825 0.0
C182 C 0.56527 0.70491 0.9565 0.0
O183 O 0.55963 0.68745 0.97474 0.0
O184 O 0.55391 0.66764 0.8947 0.0
O185 O 0.56322 0.64567 0.91628 0.0
H186 H 0.54065 0.67247 0.73968 0.0
H187 H 0.59779 0.68864 0.02191 0.0
O188 O 0.61628 0.67553 0.97767 0.0
H189 H 0.53532 0.62723 0.06103 0.0
H190 H 0.59763 0.611 0.04033 0.0
H191 H 0.5786 0.62444 0.89305 0.0
H192 H 0.55286 0.62924 0.99104 0.0
H193 H 0.59878 0.64294 0.02541 0.0
O194 O 0.57325 0.70882 0.9179 0.0
H195 H 0.55547 0.66647 0.80658 0.0
H196 H 0.58077 0.72732 0.84439 0.0
H197 H 0.57719 0.59228 0.90657 0.0
H198 H 0.58091 0.68712 0.09262 0.0
H199 H 0.58674 0.58539 0.98066 0.0
H200 H 0.54938 0.65629 0.11247 0.0
O201 O 0.60321 0.66277 0.88894 0.0
H202 H 0.64375 0.75464 0.92034 0.0
H203 H 0.60625 0.70671 0.80056 0.0
H204 H 0.63944 0.73565 0.78445 0.0
H205 H 0.6584 0.7599 0.84456 0.0
H206 H 0.61058 0.72539 0.9351 0.0
H207 H 0.56609 0.73396 0.77812 0.0
H208 H 0.54594 0.70642 0.72513 0.0
O209 O 0.5881 0.67434 0.84379 0.0
C210 C 0.55003 0.64992 0.90357 0.0
C211 C 0.54946 0.6846 0.76245 0.0
C212 C 0.56371 0.71911 0.78406 0.0
N213 N 0.56909 0.69656 0.82912 0.0
C214 C 0.55792 0.6813 0.80031 0.0
C215 C 0.57194 0.71525 0.82158 0.0
C216 C 0.55241 0.70365 0.75433 0.0
C217 C 0.58425 0.67506 0.0306 0.0
N218 N 0.57641 0.65902 1.00243 0.0
C219 C 0.57469 0.67433 0.07057 0.0
C220 C 0.55697 0.65704 0.08164 0.0
C221 C 0.54906 0.64074 0.05277 0.0
C222 C 0.55904 0.642 0.01308 0.0
C223 C 0.5934 0.61381 0.00792 0.0
C224 C 0.58273 0.62154 0.92541 0.0
C225 C 0.59402 0.63187 0.99928 0.0
N226 N 0.5887 0.63553 0.95843 0.0
C227 C 0.58192 0.6033 0.93286 0.0
C228 C 0.5873 0.59945 0.97443 0.0
C229 C 0.59877 0.6661 0.85017 0.0
C230 C 0.63561 0.74421 0.89384 0.0
C231 C 0.61443 0.71715 0.82695 0.0
C232 C 0.6332 0.73353 0.81759 0.0
C233 C 0.64383 0.74714 0.85133 0.0
N234 N 0.60644 0.71442 0.86869 0.0
C235 C 0.6168 0.72765 0.90198 0.0
Co236 Co 0.93635 0.58816 0.13235 0.0
Co237 Co 0.89764 0.57725 0.05989 0.0
O238 O 0.91315 0.58984 0.1135 0.0
C239 C 0.96645 0.6308 0.14627 0.0
O240 O 0.97783 0.62854 0.11714 0.0
C241 C 0.86851 0.56223 0.13392 0.0
O242 O 0.88087 0.55773 0.15384 0.0
O243 O 0.89562 0.55115 0.0753 0.0
O244 O 0.92402 0.55978 0.11238 0.0
H245 H 0.87954 0.53566 0.92084 0.0
H246 H 0.91634 0.60184 0.19592 0.0
O247 O 0.94882 0.61646 0.15368 0.0
H248 H 0.91301 0.54252 0.26589 0.0
H249 H 0.99223 0.60013 0.23734 0.0
H250 H 0.96072 0.57247 0.09206 0.0
H251 H 0.9296 0.55474 0.19337 0.0
H252 H 0.96232 0.60137 0.21355 0.0
O253 O 0.87239 0.56948 0.09459 0.0
H254 H 0.89949 0.55196 0.98804 0.0
H255 H 0.86159 0.57541 0.01902 0.0
H256 H 0.99057 0.57084 0.11462 0.0
H257 H 0.89988 0.59032 0.26883 0.0
H258 H 1.00654 0.58475 0.18773 0.0
H259 H 0.89804 0.56039 0.30421 0.0
O260 O 0.94868 0.59741 0.07254 0.0
H261 H 0.89411 0.63935 0.0908 0.0
H262 H 0.90819 0.60193 0.97733 0.0
H263 H 0.91117 0.63428 0.95755 0.0
H264 H 0.90404 0.65319 0.01447 0.0
H265 H 0.8915 0.60702 0.10929 0.0
H266 H 0.84114 0.55924 0.95236 0.0
H267 H 0.85013 0.53926 0.90266 0.0
O268 O 0.9228 0.58529 0.02469 0.0
C269 C 0.90789 0.54682 0.09356 0.0
C270 C 0.87551 0.54438 0.94215 0.0
C271 C 0.85394 0.55759 0.95989 0.0
N272 N 0.88179 0.56473 0.00717 0.0
C273 C 0.88678 0.55369 0.98016 0.0
C274 C 0.86554 0.56667 0.99763 0.0
C275 C 0.859 0.54639 0.932 0.0
C276 C 0.91583 0.58895 0.21132 0.0
N277 N 0.92398 0.579 0.19036 0.0
C278 C 0.9064 0.58244 0.25253 0.0
C279 C 0.90533 0.56562 0.27232 0.0
C280 C 0.9137 0.55557 0.2508 0.0
C281 C 0.923 0.5625 0.2096 0.0
C282 C 0.9854 0.59399 0.20543 0.0
C283 C 0.96755 0.5785 0.12398 0.0
C284 C 0.96846 0.59465 0.19177 0.0
N285 N 0.95975 0.58695 0.15148 0.0
C286 C 0.98446 0.57756 0.13656 0.0
C287 C 0.99342 0.58537 0.17758 0.0
C288 C 0.94157 0.59406 0.03307 0.0
C289 C 0.89721 0.63123 0.06568 0.0
C290 C 0.90516 0.61011 1.00235 0.0
C291 C 0.90682 0.6284 0.99091 0.0
C292 C 0.9028 0.639 0.02286 0.0
N293 N 0.89959 0.60255 0.04438 0.0
C294 C 0.8957 0.61289 0.07592 0.0
Co295 Co 0.35261 0.93221 0.2965 0.0
Co296 Co 0.32482 0.89336 0.22435 0.0
O297 O 0.32774 0.90895 0.27781 0.0
C298 C 0.34007 0.96233 0.30997 0.0
O299 O 0.35366 0.97362 0.28063 0.0
C300 C 0.31071 0.86434 0.29872 0.0
O301 O 0.32754 0.87675 0.31866 0.0
O302 O 0.34895 0.89142 0.2398 0.0
O303 O 0.36868 0.91988 0.27673 0.0
H304 H 0.34829 0.87513 0.08551 0.0
H305 H 0.31895 0.9123 0.36017 0.0
O306 O 0.33677 0.9447 0.31759 0.0
H307 H 0.37497 0.90914 0.4305 0.0
H308 H 0.39651 0.98827 0.40106 0.0
H309 H 0.39264 0.95654 0.25612 0.0
H310 H 0.3793 0.92557 0.35774 0.0
H311 H 0.36537 0.95831 0.37746 0.0
O312 O 0.30738 0.86814 0.25927 0.0
H313 H 0.35193 0.89515 0.15253 0.0
H314 H 0.29064 0.85722 0.18377 0.0
H315 H 0.42411 0.98644 0.2785 0.0
H316 H 0.31405 0.89602 0.43331 0.0
H317 H 0.42617 1.00252 0.35142 0.0
H318 H 0.34216 0.89426 0.46887 0.0
O319 O 0.35567 0.94443 0.23656 0.0
H320 H 0.25918 0.88978 0.25516 0.0
H321 H 0.31061 0.90376 0.14166 0.0
H322 H 0.2812 0.90666 0.12178 0.0
H323 H 0.25519 0.89957 0.17871 0.0
H324 H 0.28892 0.88724 0.27374 0.0
H325 H 0.28635 0.83668 0.11729 0.0
H326 H 0.3153 0.84566 0.06755 0.0
O327 O 0.34189 0.91848 0.18893 0.0
C328 C 0.36556 0.90377 0.25795 0.0
C329 C 0.33555 0.87111 0.10685 0.0
C330 C 0.30079 0.84951 0.12472 0.0
N331 N 0.32149 0.87744 0.17178 0.0
C332 C 0.33751 0.88242 0.14475 0.0
C333 C 0.30332 0.86116 0.16236 0.0
C334 C 0.31704 0.85456 0.09682 0.0
C335 C 0.33134 0.91183 0.37564 0.0
N336 N 0.34942 0.91994 0.35465 0.0
C337 C 0.32844 0.9025 0.41699 0.0
C338 C 0.3442 0.90148 0.43687 0.0
C339 C 0.3626 0.9098 0.41533 0.0
C340 C 0.36495 0.919 0.374 0.0
C341 C 0.39581 0.98139 0.36922 0.0
C342 C 0.39345 0.96342 0.28797 0.0
C343 C 0.37822 0.96442 0.35567 0.0
N344 N 0.37721 0.95565 0.31547 0.0
C345 C 0.4113 0.98036 0.30044 0.0
C346 C 0.41244 0.98938 0.34136 0.0
C347 C 0.35189 0.93726 0.19715 0.0
C348 C 0.27039 0.89286 0.23003 0.0
C349 C 0.29942 0.90075 0.16669 0.0
C350 C 0.28276 0.90236 0.1552 0.0
C351 C 0.26817 0.89837 0.18715 0.0
N352 N 0.30145 0.89525 0.20877 0.0
C353 C 0.28724 0.89139 0.24032 0.0
Co354 Co 0.66563 0.58812 0.38058 0.0
Co355 Co 0.69298 0.57689 0.45367 0.0
O356 O 0.69036 0.58959 0.39994 0.0
C357 C 0.67835 0.63074 0.36604 0.0
O358 O 0.66437 0.62845 0.39423 0.0
C359 C 0.70723 0.56182 0.38 0.0
O360 O 0.69048 0.55743 0.35972 0.0
O361 O 0.66886 0.55088 0.4379 0.0
O362 O 0.64934 0.55975 0.40046 0.0
H363 H 0.66877 0.53523 0.59249 0.0
H364 H 0.6995 0.60165 0.31756 0.0
O365 O 0.68174 0.61641 0.35937 0.0
H366 H 0.64358 0.5425 0.24697 0.0
H367 H 0.62229 0.60034 0.2743 0.0
H368 H 0.62552 0.57276 0.42019 0.0
H369 H 0.63906 0.55477 0.31929 0.0
H370 H 0.65326 0.60138 0.29882 0.0
O371 O 0.71046 0.569 0.41938 0.0
H372 H 0.6655 0.55166 0.5251 0.0
H373 H 0.72688 0.57474 0.49527 0.0
H374 H 0.59421 0.57135 0.3969 0.0
H375 H 0.7046 0.59009 0.24485 0.0
H376 H 0.59247 0.58522 0.32349 0.0
H377 H 0.67655 0.56024 0.20917 0.0
O378 O 0.66245 0.59744 0.44026 0.0
H379 H 0.7589 0.63876 0.42377 0.0
H380 H 0.70693 0.60148 0.53638 0.0
H381 H 0.73634 0.63373 0.55659 0.0
H382 H 0.76262 0.65256 0.5001 0.0
H383 H 0.72914 0.60655 0.40485 0.0
H384 H 0.73079 0.55843 0.56214 0.0
H385 H 0.70161 0.53857 0.61135 0.0
O386 O 0.67585 0.58506 0.48843 0.0
C387 C 0.65234 0.5467 0.41939 0.0
C388 C 0.68161 0.54389 0.57138 0.0
C389 C 0.71642 0.55689 0.55431 0.0
N390 N 0.69601 0.56426 0.50653 0.0
C391 C 0.67986 0.55327 0.53328 0.0
C392 C 0.7141 0.56605 0.51645 0.0
C393 C 0.70004 0.54576 0.58192 0.0
C394 C 0.68714 0.58879 0.30203 0.0
N395 N 0.66898 0.57891 0.32272 0.0
C396 C 0.69015 0.58226 0.26093 0.0
C397 C 0.67442 0.56549 0.24097 0.0
C398 C 0.65593 0.55551 0.2622 0.0
C399 C 0.65348 0.56246 0.3033 0.0
C400 C 0.62285 0.59423 0.30634 0.0
C401 C 0.62485 0.57878 0.38814 0.0
C402 C 0.64034 0.59477 0.32041 0.0
N403 N 0.64118 0.5871 0.36088 0.0
C404 C 0.60709 0.57795 0.37516 0.0
C405 C 0.60613 0.58574 0.33396 0.0
C406 C 0.66603 0.594 0.47983 0.0
C407 C 0.74757 0.63067 0.4487 0.0
C408 C 0.71824 0.60963 0.51154 0.0
C409 C 0.7349 0.62786 0.52322 0.0
C410 C 0.74964 0.63842 0.49152 0.0
N411 N 0.71636 0.60209 0.46952 0.0
C412 C 0.73071 0.61239 0.43822 0.0
Co413 Co 0.08219 0.65959 0.56455 0.0
Co414 Co 0.12284 0.69115 0.62738 0.0
O415 O 0.10616 0.68554 0.57422 0.0
C416 C 0.07307 0.6906 0.52707 0.0
O417 O 0.0903 0.70539 0.54035 0.0
C418 C 0.15108 0.70465 0.55128 0.0
O419 O 0.13914 0.68721 0.5331 0.0
O420 O 0.12608 0.66765 0.61432 0.0
O421 O 0.09473 0.64531 0.59432 0.0
H422 H 0.14524 0.67352 0.76878 0.0
H423 H 0.10204 0.6867 0.48703 0.0
O424 O 0.06824 0.67248 0.53435 0.0
H425 H 0.10046 0.62383 0.45014 0.0
H426 H 0.02267 0.60818 0.47822 0.0
H427 H 0.05908 0.62368 0.62087 0.0
H428 H 0.08624 0.62721 0.52075 0.0
H429 H 0.05344 0.64058 0.48939 0.0
O430 O 0.14723 0.70856 0.59009 0.0
H431 H 0.12394 0.66683 0.70245 0.0
H432 H 0.15837 0.7276 0.66312 0.0
H433 H 0.02845 0.59106 0.61099 0.0
H434 H 0.11604 0.68382 0.41584 0.0
H435 H 0.01003 0.58313 0.53923 0.0
H436 H 0.11542 0.65223 0.39695 0.0
O437 O 0.07145 0.66221 0.62224 0.0
H438 H 0.12393 0.75507 0.58945 0.0
H439 H 0.11152 0.70597 0.7078 0.0
H440 H 0.10721 0.73484 0.724 0.0
H441 H 0.11347 0.75968 0.66462 0.0
H442 H 0.12781 0.72583 0.57449 0.0
H443 H 0.18014 0.73492 0.7288 0.0
H444 H 0.17357 0.70778 0.78228 0.0
O445 O 0.09855 0.674 0.66606 0.0
C446 C 0.11234 0.64984 0.60614 0.0
C447 C 0.14822 0.68548 0.7458 0.0
C448 C 0.16782 0.71994 0.72333 0.0
N449 N 0.13982 0.69684 0.67918 0.0
C450 C 0.13618 0.6818 0.70826 0.0
C451 C 0.15547 0.7157 0.68615 0.0
C452 C 0.16412 0.7047 0.75333 0.0
C453 C 0.10125 0.67276 0.47887 0.0
N454 N 0.09295 0.65705 0.50793 0.0
C455 C 0.10941 0.67127 0.43855 0.0
C456 C 0.10911 0.65357 0.42804 0.0
C457 C 0.10073 0.63764 0.45787 0.0
C458 C 0.09272 0.63967 0.49788 0.0
C459 C 0.03059 0.61145 0.50961 0.0
C460 C 0.05121 0.62031 0.58946 0.0
C461 C 0.048 0.62978 0.51617 0.0
N462 N 0.05814 0.63396 0.55564 0.0
C463 C 0.03384 0.60182 0.5841 0.0
C464 C 0.0235 0.59739 0.54385 0.0
C465 C 0.07958 0.66573 0.6606 0.0
C466 C 0.12113 0.74433 0.61559 0.0
C467 C 0.11405 0.71656 0.68158 0.0
C468 C 0.11169 0.73295 0.69106 0.0
C469 C 0.11524 0.7469 0.65775 0.0
N470 N 0.11973 0.71408 0.64006 0.0
C471 C 0.12334 0.72776 0.60734 0.0
Co472 Co 0.42869 0.07863 0.7291 0.0
Co473 Co 0.43734 0.11893 0.7924 0.0
O474 O 0.42663 0.10253 0.73887 0.0
C475 C 0.38889 0.06978 0.69006 0.0
O476 O 0.39135 0.08705 0.70307 0.0
C477 C 0.45315 0.14812 0.71783 0.0
O478 O 0.46016 0.13722 0.70079 0.0
O479 O 0.4642 0.12233 0.77992 0.0
O480 O 0.4553 0.09105 0.75969 0.0
H481 H 0.47668 0.14096 0.93475 0.0
H482 H 0.42229 0.09939 0.65211 0.0
O483 O 0.40205 0.06483 0.69802 0.0
H484 H 0.48341 0.0973 0.61636 0.0
H485 H 0.42109 0.01949 0.64211 0.0
H486 H 0.44114 0.05526 0.78557 0.0
H487 H 0.46522 0.08258 0.68612 0.0
H488 H 0.41942 0.05023 0.65347 0.0
O489 O 0.4442 0.14334 0.75535 0.0
H490 H 0.46247 0.11989 0.86798 0.0
H491 H 0.43601 0.1542 0.82837 0.0
H492 H 0.44319 0.02466 0.77551 0.0
H493 H 0.4398 0.11396 0.58181 0.0
H494 H 0.43313 0.00656 0.70335 0.0
H495 H 0.47067 0.11306 0.56348 0.0
O496 O 0.41496 0.06761 0.78636 0.0
H497 H 0.37448 0.11981 0.75348 0.0
H498 H 0.41083 0.10714 0.87224 0.0
H499 H 0.37751 0.10258 0.88788 0.0
H500 H 0.3591 0.10897 0.82829 0.0
H501 H 0.40773 0.12393 0.73907 0.0
H502 H 0.45007 0.17574 0.89451 0.0
H503 H 0.4705 0.16912 0.94833 0.0
O504 O 0.43016 0.09452 0.8307 0.0
C505 C 0.46835 0.10864 0.77171 0.0
C506 C 0.46776 0.14396 0.91161 0.0
C507 C 0.45284 0.1635 0.88899 0.0
N508 N 0.44831 0.13572 0.84455 0.0
C509 C 0.45963 0.13205 0.87383 0.0
C510 C 0.44496 0.15128 0.85156 0.0
C511 C 0.46429 0.15977 0.91919 0.0
C512 C 0.4354 0.0985 0.64419 0.0
N513 N 0.44239 0.08971 0.67302 0.0
C514 C 0.4454 0.10697 0.60438 0.0
C515 C 0.46275 0.10651 0.59417 0.0
C516 C 0.4699 0.09768 0.62382 0.0
C517 C 0.45951 0.08936 0.66332 0.0
C518 C 0.42556 0.02727 0.67368 0.0
C519 C 0.43685 0.04754 0.75398 0.0
C520 C 0.4246 0.04466 0.68034 0.0
N521 N 0.43033 0.05462 0.72004 0.0
C522 C 0.43799 0.03019 0.74852 0.0
C523 C 0.43232 0.02002 0.70804 0.0
C524 C 0.41944 0.07557 0.82488 0.0
C525 C 0.38233 0.11694 0.7797 0.0
C526 C 0.40284 0.10971 0.84593 0.0
C527 C 0.38401 0.10722 0.85509 0.0
C528 C 0.37371 0.11084 0.82166 0.0
N529 N 0.41117 0.1156 0.8046 0.0
C530 C 0.40119 0.11928 0.77176 0.0
Co531 Co 0.35385 0.42505 0.89455 0.0
Co532 Co 0.32365 0.43469 0.96024 0.0
O533 O 0.32836 0.4234 0.90675 0.0
C534 C 0.34062 0.38319 0.86919 0.0
O535 O 0.35257 0.38308 0.9002 0.0
C536 C 0.31035 0.45017 0.88526 0.0
O537 O 0.3278 0.45569 0.86718 0.0
O538 O 0.34754 0.4612 0.94694 0.0
O539 O 0.36926 0.45172 0.92444 0.0
H540 H 0.34312 0.47445 0.10208 0.0
H541 H 0.3257 0.41694 0.81964 0.0
O542 O 0.33875 0.39853 0.86401 0.0
H543 H 0.38693 0.47937 0.77936 0.0
H544 H 0.40316 0.41715 0.79931 0.0
H545 H 0.39035 0.43605 0.94729 0.0
H546 H 0.38522 0.46196 0.8494 0.0
H547 H 0.37132 0.41609 0.81504 0.0
O548 O 0.30634 0.44219 0.92388 0.0
H549 H 0.34882 0.45952 0.03504 0.0
H550 H 0.288 0.43484 0.99754 0.0
H551 H 0.4224 0.43735 0.93296 0.0
H552 H 0.32693 0.43369 0.74889 0.0
H553 H 0.42897 0.42785 0.85852 0.0
H554 H 0.35767 0.4652 0.72845 0.0
O555 O 0.35207 0.41174 0.95218 0.0
H556 H 0.26 0.37181 0.92165 0.0
H557 H 0.30829 0.40895 0.04111 0.0
H558 H 0.27919 0.37589 0.05735 0.0
H559 H 0.25475 0.35711 0.9974 0.0
H560 H 0.28941 0.40484 0.90675 0.0
H561 H 0.28166 0.44964 0.06395 0.0
H562 H 0.30933 0.46954 0.11686 0.0
O563 O 0.3406 0.42685 0.99762 0.0
C564 C 0.36518 0.46496 0.93761 0.0
C565 C 0.33093 0.46576 0.07935 0.0
C566 C 0.29644 0.45186 0.05791 0.0
N567 N 0.31873 0.44621 0.01266 0.0
C568 C 0.33406 0.45723 0.04142 0.0
C569 C 0.30013 0.44356 0.02032 0.0
C570 C 0.31197 0.46302 0.0876 0.0
C571 C 0.33925 0.43048 0.81071 0.0
N572 N 0.35539 0.43838 0.8386 0.0
C573 C 0.33981 0.43996 0.7707 0.0
C574 C 0.35704 0.45767 0.75931 0.0
C575 C 0.37345 0.46564 0.78788 0.0
C576 C 0.37236 0.45574 0.82761 0.0
C577 C 0.40048 0.42135 0.83186 0.0
C578 C 0.39311 0.43193 0.91478 0.0
C579 C 0.38249 0.42079 0.84096 0.0
N580 N 0.379 0.42606 0.88202 0.0
C581 C 0.41128 0.43268 0.90687 0.0
C582 C 0.41495 0.42735 0.8651 0.0
C583 C 0.3488 0.41615 0.99103 0.0
C584 C 0.27051 0.37987 0.94807 0.0
C585 C 0.29778 0.40084 0.01479 0.0
C586 C 0.2813 0.38214 0.02422 0.0
C587 C 0.26759 0.37162 0.99058 0.0
N588 N 0.30049 0.40887 0.97307 0.0
C589 C 0.28716 0.39861 0.93987 0.0
Co590 Co 0.93454 0.34906 0.05028 0.0
Co591 Co 0.89611 0.32086 0.12278 0.0
O592 O 0.91143 0.3241 0.06879 0.0
C593 C 0.96442 0.33636 0.03514 0.0
O594 O 0.97555 0.34928 0.0658 0.0
C595 C 0.86631 0.30716 0.04976 0.0
O596 O 0.87788 0.32457 0.03106 0.0
O597 O 0.89392 0.34499 0.10855 0.0
O598 O 0.92231 0.36497 0.0717 0.0
H599 H 0.87819 0.34339 0.26349 0.0
H600 H 0.91382 0.31563 0.98634 0.0
O601 O 0.94693 0.3334 0.02733 0.0
H602 H 0.91065 0.37218 0.919 0.0
H603 H 0.99006 0.39353 0.94535 0.0
H604 H 0.95902 0.3889 0.09156 0.0
H605 H 0.92786 0.3762 0.99062 0.0
H606 H 0.96024 0.36225 0.9688 0.0
O607 O 0.87087 0.30337 0.08802 0.0
H608 H 0.89797 0.34753 0.19578 0.0
H609 H 0.8603 0.28632 0.16327 0.0
H610 H 0.98878 0.42051 0.06934 0.0
H611 H 0.89667 0.311 0.91439 0.0
H612 H 1.0045 0.42295 0.99576 0.0
H613 H 0.89492 0.33938 0.88032 0.0
O614 O 0.94708 0.3518 0.10979 0.0
H615 H 0.89294 0.25559 0.08931 0.0
H616 H 0.90708 0.30649 0.20438 0.0
H617 H 0.91035 0.27717 0.22287 0.0
H618 H 0.90318 0.25142 0.16515 0.0
H619 H 0.89006 0.28526 0.0721 0.0
H620 H 0.84001 0.28154 0.23043 0.0
H621 H 0.84897 0.31019 0.28116 0.0
O622 O 0.92133 0.33795 0.15789 0.0
C623 C 0.90624 0.36173 0.09086 0.0
C624 C 0.87417 0.33078 0.24172 0.0
C625 C 0.85272 0.29607 0.22313 0.0
N626 N 0.88037 0.31716 0.17585 0.0
C627 C 0.88535 0.33302 0.20342 0.0
C628 C 0.86423 0.29888 0.18511 0.0
C629 C 0.85777 0.31215 0.25159 0.0
C630 C 0.91332 0.32812 0.97154 0.0
N631 N 0.92187 0.34619 0.99272 0.0
C632 C 0.9035 0.32538 0.93086 0.0
C633 C 0.9025 0.34129 0.91181 0.0
C634 C 0.9113 0.35969 0.93351 0.0
C635 C 0.92095 0.36186 0.97419 0.0
C636 C 0.98333 0.39266 0.97747 0.0
C637 C 0.96575 0.38987 0.05943 0.0
C638 C 0.96645 0.37499 0.99094 0.0
N639 N 0.95786 0.37377 0.03148 0.0
C640 C 0.9826 0.4078 0.04705 0.0
C641 C 0.99143 0.40916 0.00577 0.0
C642 C 0.94008 0.34794 0.14935 0.0
C643 C 0.89606 0.26669 0.11477 0.0
C644 C 0.90404 0.29542 0.179 0.0
C645 C 0.90586 0.27881 0.18971 0.0
C646 C 0.90183 0.26436 0.15732 0.0
N647 N 0.8983 0.29755 0.13724 0.0
C648 C 0.8944 0.28349 0.10526 0.0
Co649 Co 0.59121 0.93184 0.21327 0.0
Co650 Co 0.58032 0.89307 0.28558 0.0
O651 O 0.59288 0.90861 0.232 0.0
C652 C 0.63382 0.96199 0.19957 0.0
O653 O 0.63155 0.97324 0.22906 0.0
C654 C 0.56516 0.86407 0.21124 0.0
O655 O 0.56065 0.87649 0.19165 0.0
O656 O 0.55423 0.89119 0.27059 0.0
O657 O 0.56285 0.91951 0.23317 0.0
H658 H 0.53908 0.87504 0.42507 0.0
H659 H 0.60493 0.91187 0.14966 0.0
O660 O 0.61952 0.94434 0.19202 0.0
H661 H 0.54568 0.90862 0.07944 0.0
H662 H 0.60318 0.98778 0.10852 0.0
H663 H 0.57551 0.95618 0.25366 0.0
H664 H 0.55784 0.92514 0.15209 0.0
H665 H 0.60443 0.95786 0.13219 0.0
O666 O 0.57241 0.86783 0.25059 0.0
H667 H 0.55527 0.895 0.35788 0.0
H668 H 0.57838 0.8569 0.32594 0.0
H669 H 0.57387 0.98604 0.23122 0.0
H670 H 0.59349 0.8955 0.07662 0.0
H671 H 0.58779 1.00205 0.15819 0.0
H672 H 0.5636 0.8937 0.04111 0.0
O673 O 0.60042 0.94411 0.27315 0.0
H674 H 0.6422 0.88928 0.25376 0.0
H675 H 0.60515 0.90348 0.36791 0.0
H676 H 0.63748 0.90631 0.38729 0.0
H677 H 0.6562 0.89911 0.33003 0.0
H678 H 0.60991 0.88682 0.23568 0.0
H679 H 0.56231 0.83643 0.39258 0.0
H680 H 0.54255 0.84551 0.44276 0.0
O681 O 0.58852 0.91824 0.32098 0.0
C682 C 0.54992 0.90348 0.25231 0.0
C683 C 0.5477 0.87096 0.40354 0.0
C684 C 0.56071 0.84927 0.38527 0.0
N685 N 0.56787 0.8772 0.33826 0.0
C686 C 0.55694 0.88224 0.36554 0.0
C687 C 0.56973 0.86089 0.34754 0.0
C688 C 0.54964 0.85439 0.41342 0.0
C689 C 0.59206 0.91138 0.13421 0.0
N690 N 0.58209 0.91951 0.15518 0.0
C691 C 0.58559 0.902 0.09292 0.0
C692 C 0.5688 0.90095 0.07306 0.0
C693 C 0.55872 0.90929 0.09458 0.0
C694 C 0.56561 0.91854 0.13586 0.0
C695 C 0.59704 0.98093 0.1404 0.0
C696 C 0.58154 0.96303 0.22177 0.0
C697 C 0.59771 0.96399 0.15399 0.0
N698 N 0.59 0.95525 0.19425 0.0
C699 C 0.58059 0.97994 0.20926 0.0
C700 C 0.58841 0.98893 0.16829 0.0
C701 C 0.59721 0.93701 0.31261 0.0
C702 C 0.63416 0.8924 0.27903 0.0
C703 C 0.61325 0.90042 0.34274 0.0
C704 C 0.63152 0.90199 0.35395 0.0
C705 C 0.64201 0.89794 0.32182 0.0
N706 N 0.6056 0.8949 0.30075 0.0
C707 C 0.61583 0.89098 0.26902 0.0
C708 C 0.35268 0.41336 0.074 0.0
C709 C 0.35553 0.40901 0.02999 0.0
C710 C 0.35945 0.40684 0.11023 0.0
C711 C 0.37494 0.36983 0.14111 0.0
H712 H 0.40018 0.40489 0.24188 0.0
C713 C 0.41583 0.3511 0.27846 0.0
C714 C 0.41361 0.35548 0.32288 0.0
C715 C 0.40876 0.35775 0.24312 0.0
C716 C 0.39296 0.39479 0.21428 0.0
H717 H 0.36797 0.39441 0.99007 0.0
H718 H 0.37972 0.38326 0.05274 0.0
H719 H 0.38739 0.41597 0.18046 0.0
H720 H 0.40234 0.37066 0.36444 0.0
H721 H 0.38986 0.38193 0.30316 0.0
H722 H 0.38046 0.34864 0.17483 0.0
C723 C 0.37201 0.39144 0.05944 0.0
C724 C 0.3856 0.40116 0.17899 0.0
C725 C 0.3653 0.39796 0.02333 0.0
C726 C 0.4043 0.36688 0.33082 0.0
C727 C 0.39725 0.37352 0.29551 0.0
C728 C 0.38227 0.36345 0.17638 0.0
C729 C 0.3692 0.39576 0.10343 0.0
C730 C 0.37656 0.38881 0.14178 0.0
C731 C 0.39929 0.369 0.25112 0.0
C732 C 0.39146 0.37585 0.21346 0.0
H733 H 0.34525 0.42183 0.08053 0.0
H734 H 0.35684 0.4103 0.14363 0.0
H735 H 0.36777 0.35974 0.11345 0.0
H736 H 0.423 0.34247 0.27086 0.0
H737 H 0.41091 0.35422 0.20942 0.0
C738 C 0.04544 0.39764 0.48665 0.0
C739 C 0.06625 0.40891 0.47995 0.0
C740 C 0.0322 0.39111 0.45059 0.0
C741 C 0.02809 0.40116 0.33139 0.0
H742 H 0.98112 0.34834 0.33479 0.0
C743 C 0.97524 0.36701 0.17935 0.0
C744 C 0.95455 0.35535 0.18723 0.0
C745 C 0.98893 0.37366 0.21467 0.0
C746 C 0.99401 0.36324 0.33346 0.0
H747 H 0.08929 0.42209 0.42936 0.0
H748 H 0.06613 0.41056 0.36635 0.0
H749 H 1.00494 0.35945 0.39613 0.0
H750 H 0.93217 0.3419 0.23917 0.0
H751 H 0.95599 0.35365 0.30064 0.0
H752 H 0.01711 0.40498 0.26876 0.0
C753 C 0.06009 0.40693 0.39975 0.0
C754 C 1.00773 0.36962 0.36871 0.0
C755 C 0.0734 0.41345 0.43594 0.0
C756 C 0.94796 0.35073 0.23161 0.0
C757 C 0.96167 0.35738 0.26696 0.0
C758 C 0.01435 0.39479 0.29613 0.0
C759 C 0.03929 0.39564 0.40659 0.0
C760 C 0.02495 0.3887 0.36829 0.0
C761 C 0.98237 0.36888 0.25901 0.0
C762 C 0.99706 0.37574 0.29668 0.0
H763 H 0.03926 0.39393 0.51992 0.0
H764 H 0.01631 0.38276 0.45732 0.0
H765 H 0.041 0.41605 0.33013 0.0
H766 H 0.98097 0.37099 0.14577 0.0
H767 H 1.00471 0.38226 0.20705 0.0
C768 C 0.61322 0.97212 0.3427 0.0
C769 C 0.6042 0.95142 0.35056 0.0
C770 C 0.62029 0.98578 0.37801 0.0
C771 C 0.63587 0.99081 0.49668 0.0
H772 H 0.63023 0.03792 0.49337 0.0
C773 C 0.65266 0.04199 0.64996 0.0
C774 C 0.6623 0.06282 0.64348 0.0
C775 C 0.64605 0.02884 0.61377 0.0
C776 C 0.63217 0.02498 0.49461 0.0
H777 H 0.59528 0.92901 0.40244 0.0
H778 H 0.60737 0.95281 0.46395 0.0
H779 H 0.6173 0.01402 0.43207 0.0
H780 H 0.67248 0.08601 0.59317 0.0
H781 H 0.66101 0.06299 0.52985 0.0
H782 H 0.65064 1.00171 0.5593 0.0
C783 C 0.6093 0.9585 0.43028 0.0
C784 C 0.62472 0.01123 0.45939 0.0
C785 C 0.60223 0.9448 0.39492 0.0
C786 C 0.66515 0.0701 0.59955 0.0
C787 C 0.65845 0.05688 0.56321 0.0
C788 C 0.64328 1.00453 0.53188 0.0
C789 C 0.61852 0.97921 0.42233 0.0
C790 C 0.62641 0.9939 0.45996 0.0
C791 C 0.64882 0.03605 0.56986 0.0
C792 C 0.64147 0.02178 0.53147 0.0
H793 H 0.61498 0.97787 0.30913 0.0
H794 H 0.62748 1.00158 0.3704 0.0
H795 H 0.63784 0.97789 0.49801 0.0
H796 H 0.65004 0.03571 0.68318 0.0
H797 H 0.63843 0.01293 0.62034 0.0
C798 C 0.64732 0.61046 0.50978 0.0
C799 C 0.65858 0.601 0.5177 0.0
C800 C 0.64073 0.61754 0.54511 0.0
C801 C 0.65085 0.6323 0.66432 0.0
H802 H 0.59856 0.62772 0.66025 0.0
C803 C 0.61668 0.64939 0.81758 0.0
C804 C 0.60579 0.65934 0.81109 0.0
C805 C 0.62309 0.64266 0.78137 0.0
C806 C 0.61331 0.62936 0.66172 0.0
H807 H 0.67135 0.59131 0.56971 0.0
H808 H 0.6597 0.60343 0.63118 0.0
H809 H 0.60946 0.61486 0.59871 0.0
H810 H 0.59315 0.66993 0.76073 0.0
H811 H 0.6045 0.65829 0.69744 0.0
H812 H 0.65468 0.64673 0.72735 0.0
C813 C 0.65624 0.60569 0.59748 0.0
C814 C 0.61958 0.62195 0.62636 0.0
C815 C 0.66284 0.59861 0.56212 0.0
C816 C 0.6015 0.66235 0.76714 0.0
C817 C 0.60791 0.65556 0.73079 0.0
C818 C 0.64457 0.63968 0.69964 0.0
C819 C 0.64517 0.61535 0.5895 0.0
C820 C 0.63842 0.62325 0.62719 0.0
C821 C 0.61883 0.64563 0.73743 0.0
C822 C 0.62568 0.63825 0.69898 0.0
H823 H 0.64365 0.61257 0.47615 0.0
H824 H 0.63245 0.62507 0.53749 0.0
H825 H 0.6656 0.63396 0.66587 0.0
H826 H 0.62017 0.64659 0.85079 0.0
H827 H 0.63114 0.6348 0.78795 0.0
C828 C 0.07364 0.66159 0.74384 0.0
C829 C 0.0661 0.65899 0.70017 0.0
C830 C 0.06063 0.65458 0.78052 0.0
C831 C 1.00764 0.61857 0.81006 0.0
H832 H 0.01994 0.64963 0.91864 0.0
C833 C 0.94925 0.59871 0.95073 0.0
C834 C 0.95595 0.60095 0.99509 0.0
C835 C 0.96289 0.60559 0.91529 0.0
C836 C 0.01635 0.64063 0.88876 0.0
H837 H 0.03876 0.64707 0.66134 0.0
H838 H 0.01638 0.63523 0.72473 0.0
H839 H 0.04349 0.66204 0.85665 0.0
H840 H 0.98246 0.61196 0.03646 0.0
H841 H 1.00606 0.62377 0.97491 0.0
H842 H 0.98049 0.59721 0.84202 0.0
C843 C 0.0323 0.64236 0.73082 0.0
C844 C 0.0299 0.64776 0.85315 0.0
C845 C 0.04523 0.64935 0.69431 0.0
C846 C 0.97666 0.6101 1.00289 0.0
C847 C 0.99027 0.61699 0.96749 0.0
C848 C 0.9941 0.61146 0.8456 0.0
C849 C 0.03975 0.64473 0.77446 0.0
C850 C 0.02568 0.6369 0.81316 0.0
C851 C 0.98361 0.6149 0.92317 0.0
C852 C 0.9982 0.62241 0.88541 0.0
H853 H 0.08959 0.66888 0.74972 0.0
H854 H 0.06694 0.65654 0.81359 0.0
H855 H 1.004 0.60956 0.78019 0.0
H856 H 0.93346 0.59177 0.94327 0.0
H857 H 0.95719 0.60389 0.88168 0.0
C858 C 0.41732 0.06939 0.90802 0.0
C859 C 0.41252 0.06197 0.86425 0.0
C860 C 0.41114 0.05629 0.94456 0.0
C861 C 0.39373 1.00316 0.97383 0.0
H862 H 0.37499 0.01559 0.0822 0.0
C863 C 0.35493 0.94486 0.11474 0.0
C864 C 0.35941 0.95159 0.15907 0.0
C865 C 0.36175 0.95847 0.07921 0.0
C866 C 0.38039 0.01196 0.05239 0.0
H867 H 0.39715 0.03474 0.82507 0.0
H868 H 0.38627 0.01219 0.88826 0.0
H869 H 0.38631 0.03916 0.02024 0.0
H870 H 0.37501 0.97814 0.20026 0.0
H871 H 0.38688 1.00167 0.13857 0.0
H872 H 0.38775 0.97594 0.00586 0.0
C873 C 0.3951 0.02809 0.89452 0.0
C874 C 0.38692 0.02553 0.01679 0.0
C875 C 0.40124 0.04112 0.85814 0.0
C876 C 0.37105 0.97231 0.16673 0.0
C877 C 0.37782 0.98589 0.13125 0.0
C878 C 0.38719 0.9896 0.00937 0.0
C879 C 0.40003 0.03543 0.93828 0.0
C880 C 0.39359 0.02128 0.97688 0.0
C881 C 0.37322 0.97919 0.08696 0.0
C882 C 0.38035 0.99376 0.04913 0.0
H883 H 0.42602 0.08532 0.91411 0.0
H884 H 0.41539 0.06251 0.97771 0.0
H885 H 0.39911 0.99949 0.94404 0.0
H886 H 0.34603 0.92906 0.10738 0.0
H887 H 0.35772 0.95274 0.04562 0.0
C888 C 0.6365 0.51075 0.44445 0.0
C889 C 0.63572 0.52562 0.41885 0.0
C890 C 0.62051 0.49102 0.44395 0.0
C891 C 0.5769 0.4555 0.37763 0.0
H892 H 0.55266 0.43109 0.49049 0.0
C893 C 0.4948 0.39587 0.44465 0.0
C894 C 0.48936 0.37864 0.41899 0.0
C895 C 0.51445 0.41167 0.44515 0.0
C896 C 0.55941 0.43763 0.45874 0.0
H897 H 0.61735 0.53116 0.37269 0.0
H898 H 0.58998 0.49692 0.37115 0.0
H899 H 0.58426 0.46283 0.4896 0.0
H900 H 0.5005 0.36484 0.373 0.0
H901 H 0.53496 0.393 0.37288 0.0
H902 H 0.55174 0.43056 0.34681 0.0
C903 C 0.60296 0.50049 0.39141 0.0
C904 C 0.57753 0.45571 0.45824 0.0
C905 C 0.61868 0.52019 0.39249 0.0
C906 C 0.50417 0.3778 0.39334 0.0
C907 C 0.52386 0.39389 0.39321 0.0
C908 C 0.55893 0.43725 0.37813 0.0
C909 C 0.60362 0.4857 0.41724 0.0
C910 C 0.58615 0.46512 0.41769 0.0
C911 C 0.52918 0.41092 0.41938 0.0
C912 C 0.54972 0.42844 0.41871 0.0
H913 H 0.64932 0.51439 0.46528 0.0
H914 H 0.62137 0.47989 0.4643 0.0
H915 H 0.58331 0.46237 0.34589 0.0
H916 H 0.48388 0.39729 0.46439 0.0
H917 H 0.51802 0.42476 0.46498 0.0
C918 C 0.13321 0.5016 0.58767 0.0
C919 C 0.11605 0.48555 0.56894 0.0
C920 C 0.1349 0.5205 0.59102 0.0
C921 C 0.10229 0.54341 0.58964 0.0
H922 H 0.15268 0.59324 0.59154 0.0
C923 C 0.13242 0.63378 0.58587 0.0
C924 C 0.11659 0.63333 0.60965 0.0
C925 C 0.13413 0.61659 0.58287 0.0
C926 C 0.13843 0.5795 0.59065 0.0
H927 H 0.08787 0.47675 0.53637 0.0
H928 H 0.09132 0.50976 0.53918 0.0
H929 H 0.15234 0.56204 0.57719 0.0
H930 H 0.09093 0.61528 0.65119 0.0
H931 H 0.09464 0.58584 0.64895 0.0
H932 H 0.08819 0.56067 0.6003 0.0
C933 C 0.10309 0.50781 0.55351 0.0
C934 C 0.13826 0.5615 0.58299 0.0
C935 C 0.10119 0.4889 0.55129 0.0
C936 C 0.10322 0.6159 0.6325 0.0
C937 C 0.10523 0.59895 0.63058 0.0
C938 C 0.10243 0.56133 0.59639 0.0
C939 C 0.11961 0.52375 0.57489 0.0
C940 C 0.12015 0.54316 0.58234 0.0
C941 C 0.12024 0.59874 0.60434 0.0
C942 C 0.12048 0.57968 0.59737 0.0
H943 H 0.14477 0.49928 0.60197 0.0
H944 H 0.14778 0.53225 0.60801 0.0
H945 H 0.08802 0.52969 0.59056 0.0
H946 H 0.14274 0.64703 0.56748 0.0
H947 H 0.14579 0.61708 0.56202 0.0
C948 C 0.50488 0.13029 0.75576 0.0
C949 C 0.48918 0.11296 0.77483 0.0
C950 C 0.52394 0.13242 0.75169 0.0
C951 C 0.54758 0.10057 0.75018 0.0
H952 H 0.59713 0.15125 0.74918 0.0
C953 C 0.62019 0.10242 0.70486 0.0
C954 C 0.63744 0.11534 0.72886 0.0
C955 C 0.60328 0.1045 0.70686 0.0
C956 C 0.58347 0.13693 0.74973 0.0
H957 H 0.48123 0.08498 0.80741 0.0
H958 H 0.51452 0.08918 0.80314 0.0
H959 H 0.56576 0.15044 0.76488 0.0
H960 H 0.6509 0.14083 0.77306 0.0
H961 H 0.62103 0.14403 0.77844 0.0
H962 H 0.56507 0.08685 0.73761 0.0
C963 C 0.51215 0.10075 0.7892 0.0
C964 C 0.56539 0.1365 0.75822 0.0
C965 C 0.49309 0.09842 0.79224 0.0
C966 C 0.63781 0.13089 0.7537 0.0
C967 C 0.62066 0.13268 0.7567 0.0
C968 C 0.56557 0.10097 0.74246 0.0
C969 C 0.52769 0.11739 0.76733 0.0
C970 C 0.54718 0.11826 0.75871 0.0
C971 C 0.60294 0.11912 0.73428 0.0
C972 C 0.58381 0.11913 0.74184 0.0
H973 H 0.50214 0.1416 0.74163 0.0
H974 H 0.53542 0.14539 0.73442 0.0
H975 H 0.53394 0.08624 0.74911 0.0
H976 H 0.61963 0.09032 0.68545 0.0
H977 H 0.59026 0.09419 0.68783 0.0
C978 C 0.5137 0.63392 0.92204 0.0
C979 C 0.52936 0.63323 0.90011 0.0
C980 C 0.49482 0.6167 0.9252 0.0
C981 C 0.47162 0.56127 0.91614 0.0
H982 H 0.42212 0.56199 0.9292 0.0
C983 C 0.39996 0.48914 0.96038 0.0
C984 C 0.38199 0.4856 0.94097 0.0
C985 C 0.41696 0.50805 0.95827 0.0
C986 C 0.43575 0.56144 0.92513 0.0
H987 H 0.5375 0.61466 0.86192 0.0
H988 H 0.50444 0.58514 0.86437 0.0
H989 H 0.45307 0.59306 0.91477 0.0
H990 H 0.3674 0.49895 0.90482 0.0
H991 H 0.39738 0.5319 0.89894 0.0
H992 H 0.45442 0.52972 0.9237 0.0
C993 C 0.5067 0.59848 0.88125 0.0
C994 C 0.45363 0.57938 0.91744 0.0
C995 C 0.52563 0.61548 0.87921 0.0
C996 C 0.38109 0.50145 0.92052 0.0
C997 C 0.3983 0.52033 0.91727 0.0
C998 C 0.4538 0.5434 0.9229 0.0
C999 C 0.49119 0.59857 0.90571 0.0
C1000 C 0.47186 0.57956 0.91288 0.0
C1001 C 0.41664 0.52378 0.93523 0.0
C1002 C 0.43558 0.54316 0.92795 0.0
H1003 H 0.51637 0.64743 0.93892 0.0
H1004 H 0.48343 0.61743 0.94465 0.0
H1005 H 0.48528 0.56065 0.91397 0.0
H1006 H 0.40095 0.47712 0.97657 0.0
H1007 H 0.43049 0.51016 0.97399 0.0
C1008 C 0.88638 0.37757 0.11787 0.0
C1009 C 0.9018 0.37836 0.09144 0.0
C1010 C 0.88276 0.39366 0.11841 0.0
C1011 C 0.89043 0.43731 0.0532 0.0
H1012 H 0.89253 0.46236 0.16644 0.0
C1013 C 0.91491 0.52014 0.11984 0.0
C1014 C 0.90326 0.52569 0.09398 0.0
C1015 C 0.91077 0.50038 0.12079 0.0
C1016 C 0.89171 0.45541 0.1346 0.0
H1017 H 0.92547 0.39688 0.04498 0.0
H1018 H 0.91877 0.42432 0.04508 0.0
H1019 H 0.89206 0.43044 0.16494 0.0
H1020 H 0.87816 0.51461 0.04835 0.0
H1021 H 0.87129 0.48 0.04914 0.0
H1022 H 0.89069 0.46255 0.02279 0.0
C1023 C 0.90945 0.4113 0.06524 0.0
C1024 C 0.8913 0.43709 0.13378 0.0
C1025 C 0.91331 0.3955 0.06534 0.0
C1026 C 0.88739 0.51088 0.06878 0.0
C1027 C 0.88346 0.49108 0.06917 0.0
C1028 C 0.89054 0.45547 0.05403 0.0
C1029 C 0.89422 0.41062 0.09184 0.0
C1030 C 0.89126 0.42818 0.09302 0.0
C1031 C 0.89508 0.48565 0.09536 0.0
C1032 C 0.89179 0.46499 0.0947 0.0
H1033 H 0.8773 0.36467 0.13857 0.0
H1034 H 0.87098 0.39283 0.13939 0.0
H1035 H 0.89029 0.43069 0.02132 0.0
H1036 H 0.92738 0.53106 0.13933 0.0
H1037 H 0.92022 0.49672 0.14063 0.0
C1038 C 0.38139 0.88378 0.232 0.0
C1039 C 0.3822 0.89933 0.25798 0.0
C1040 C 0.39748 0.88017 0.23174 0.0
C1041 C 0.44162 0.88859 0.29647 0.0
H1042 H 0.46509 0.88828 0.18264 0.0
C1043 C 0.51422 0.88374 0.27912 0.0
C1044 C 0.52886 0.89907 0.25252 0.0
C1045 C 0.49454 0.88018 0.27961 0.0
C1046 C 0.45858 0.88814 0.21466 0.0
H1047 H 0.40069 0.9232 0.30409 0.0
H1048 H 0.42823 0.91657 0.30429 0.0
H1049 H 0.43346 0.88834 0.18482 0.0
H1050 H 0.53406 0.92259 0.20554 0.0
H1051 H 0.49993 0.91604 0.20571 0.0
H1052 H 0.46704 0.88896 0.32629 0.0
C1053 C 0.41517 0.90713 0.28431 0.0
C1054 C 0.44043 0.88805 0.2159 0.0
C1055 C 0.39934 0.91096 0.284 0.0
C1056 C 0.52325 0.91053 0.22611 0.0
C1057 C 0.50362 0.90674 0.22602 0.0
C1058 C 0.45963 0.88839 0.29524 0.0
C1059 C 0.41449 0.8918 0.25805 0.0
C1060 C 0.43206 0.88884 0.2568 0.0
C1061 C 0.48906 0.89163 0.2529 0.0
C1062 C 0.46857 0.88874 0.25431 0.0
H1063 H 0.36849 0.87459 0.2114 0.0
H1064 H 0.3966 0.86827 0.21109 0.0
H1065 H 0.43542 0.88906 0.32848 0.0
H1066 H 0.518 0.87469 0.30003 0.0
H1067 H 0.4836 0.86846 0.30074 0.0
C1068 C 0.32026 0.36806 0.80059 0.0
C1069 C 0.33319 0.36797 0.83344 0.0
C1070 C 0.31686 0.35712 0.76136 0.0
C1071 C 0.32643 0.32023 0.70239 0.0
H1072 H 0.33882 0.35682 0.6035 0.0
C1073 C 0.36989 0.32032 0.54852 0.0
C1074 C 0.36853 0.32923 0.5088 0.0
C1075 C 0.35801 0.3186 0.5851 0.0
C1076 C 0.33476 0.34605 0.63019 0.0
H1077 H 0.35116 0.35482 0.85272 0.0
H1078 H 0.34545 0.33595 0.78405 0.0
H1079 H 0.33129 0.36533 0.67552 0.0
H1080 H 0.35188 0.34097 0.47459 0.0
H1081 H 0.33067 0.33737 0.53803 0.0
H1082 H 0.33074 0.30131 0.65707 0.0
C1083 C 0.33782 0.34437 0.78865 0.0
C1084 C 0.33046 0.351 0.67177 0.0
C1085 C 0.34117 0.35527 0.82802 0.0
C1086 C 0.35352 0.33434 0.50493 0.0
C1087 C 0.34146 0.33241 0.54145 0.0
C1088 C 0.33061 0.31519 0.66055 0.0
C1089 C 0.32637 0.34591 0.75407 0.0
C1090 C 0.32693 0.3385 0.70872 0.0
C1091 C 0.34431 0.32552 0.5827 0.0
C1092 C 0.33556 0.32841 0.62431 0.0
H1093 H 0.31364 0.37747 0.80401 0.0
H1094 H 0.30764 0.3583 0.73571 0.0
H1095 H 0.3235 0.31017 0.73011 0.0
H1096 H 0.38118 0.31605 0.55264 0.0
H1097 H 0.36075 0.3133 0.6162 0.0
C1098 C 0.99401 0.33494 0.00554 0.0
C1099 C 0.97383 0.32962 1.00161 0.0
C1100 C 1.00422 0.33304 0.96911 0.0
C1101 C 0.99798 0.31551 0.85028 0.0
H1102 H 0.04719 0.36583 0.83479 0.0
C1103 C 0.02726 0.35516 0.68232 0.0
C1104 C 0.04792 0.36795 0.67684 0.0
C1105 C 0.01978 0.34437 0.72183 0.0
C1106 C 0.03375 0.35145 0.8387 0.0
H1107 H 0.94802 0.31614 0.95779 0.0
H1108 H 0.96581 0.31344 0.89438 0.0
H1109 H 0.03115 0.35743 0.90682 0.0
H1110 H 0.07701 0.37772 0.70636 0.0
H1111 H 0.06394 0.35874 0.77492 0.0
H1112 H 1.00013 0.31032 0.78085 0.0
C1113 C 0.97385 0.31888 0.92546 0.0
C1114 C 0.02452 0.34657 0.88029 0.0
C1115 C 0.96362 0.32057 0.96195 0.0
C1116 C 0.06099 0.36824 0.70981 0.0
C1117 C 0.05351 0.35741 0.74919 0.0
C1118 C 1.00719 0.32048 0.80844 0.0
C1119 C 0.9945 0.32598 0.9279 0.0
C1120 C 1.00616 0.32886 0.88633 0.0
C1121 C 0.03281 0.34611 0.75651 0.0
C1122 C 0.02487 0.33881 0.80191 0.0
H1123 H 1.00226 0.34168 0.03584 0.0
H1124 H 0.02 0.33815 0.97256 0.0
H1125 H 0.98405 0.30157 0.85391 0.0
H1126 H 0.01679 0.35457 0.65754 0.0
H1127 H 1.00374 0.33588 0.72645 0.0
C1128 C 0.65049 0.95983 0.13024 0.0
C1129 C 0.64998 0.9713 0.16605 0.0
C1130 C 0.6616 0.96912 0.09214 0.0
C1131 C 0.69856 0.01652 0.03952 0.0
H1132 H 0.65926 0.99953 0.94497 0.0
C1133 C 0.70622 0.06693 0.89048 0.0
C1134 C 0.69507 0.05817 0.85182 0.0
C1135 C 0.7054 0.05496 0.92629 0.0
C1136 C 0.67077 1.00422 0.97012 0.0
H1137 H 0.66274 1.00143 0.19209 0.0
H1138 H 0.68225 0.01762 0.12547 0.0
H1139 H 0.65083 0.98098 0.0138 0.0
H1140 H 0.6758 0.0303 0.81815 0.0
H1141 H 0.6756 0.0093 0.87887 0.0
H1142 H 0.71854 0.03987 0.99578 0.0
C1143 C 0.67391 1.00145 0.12687 0.0
C1144 C 0.66582 0.99355 0.00991 0.0
C1145 C 0.66266 0.99215 0.16499 0.0
C1146 C 0.68443 0.03733 0.84788 0.0
C1147 C 0.68413 0.02535 0.88301 0.0
C1148 C 0.70372 0.02703 0.99915 0.0
C1149 C 0.67259 0.99004 0.08927 0.0
C1150 C 0.67946 0.99982 0.04536 0.0
C1151 C 0.69375 0.03397 0.92363 0.0
C1152 C 0.68968 0.02132 0.96424 0.0
H1153 H 0.64113 0.94371 0.13014 0.0
H1154 H 0.66054 0.95999 0.06375 0.0
H1155 H 0.70934 0.02162 0.06642 0.0
H1156 H 0.71433 0.08303 0.89436 0.0
H1157 H 0.71286 0.06229 0.95688 0.0
C1158 C 0.66341 0.67773 1.00372 0.0
C1159 C 0.64715 0.68103 0.00689 0.0
C1160 C 0.67545 0.68045 0.04089 0.0
C1161 C 0.68437 0.69771 0.16004 0.0
H1162 H 0.68978 0.65088 0.17588 0.0
C1163 C 0.67629 0.65824 0.32681 0.0
C1164 C 0.68584 0.64697 0.33259 0.0
C1165 C 0.67932 0.66936 0.28793 0.0
C1166 C 0.68892 0.66436 0.17188 0.0
H1167 H 0.6319 0.69149 0.05052 0.0
H1168 H 0.65232 0.69561 0.11514 0.0
H1169 H 0.68099 0.65785 0.10349 0.0
H1170 H 0.70797 0.64058 0.30482 0.0
H1171 H 0.7134 0.66017 0.23739 0.0
H1172 H 0.69103 0.70332 0.22968 0.0
C1173 C 0.65609 0.69119 0.08407 0.0
C1174 C 0.68388 0.6684 0.1301 0.0
C1175 C 0.64421 0.68866 0.04689 0.0
C1176 C 0.70013 0.64885 0.30107 0.0
C1177 C 0.7032 0.66 0.26231 0.0
C1178 C 0.68929 0.69357 0.20205 0.0
C1179 C 0.67136 0.68635 0.08208 0.0
C1180 C 0.68083 0.68472 0.12393 0.0
C1181 C 0.69202 0.66949 0.25424 0.0
C1182 C 0.69097 0.67646 0.20872 0.0
H1183 H 0.66626 0.6721 0.97323 0.0
H1184 H 0.68738 0.67703 0.03786 0.0
H1185 H 0.68253 0.71064 0.1563 0.0
H1186 H 0.66525 0.65719 0.35049 0.0
H1187 H 0.67043 0.67645 0.28276 0.0
C1188 C 0.06996 0.70501 0.45562 0.0
C1189 C 0.06104 0.69422 0.49456 0.0
C1190 C 0.05811 0.70426 0.41961 0.0
C1191 C 1.00727 0.66987 0.37617 0.0
H1192 H 0.02548 0.7073 0.27764 0.0
C1193 C 0.96385 0.64787 0.2145 0.0
C1194 C 0.97555 0.64715 0.17946 0.0
C1195 C 0.9729 0.65931 0.25239 0.0
C1196 C 0.02014 0.69684 0.30514 0.0
H1197 H 0.03305 0.67574 0.5285 0.0
H1198 H 0.0123 0.67571 0.46736 0.0
H1199 H 0.04345 0.71714 0.34861 0.0
H1200 H 1.00583 0.6598 0.15449 0.0
H1201 H 0.0216 0.67985 0.22075 0.0
H1202 H 0.98411 0.64958 0.33276 0.0
C1203 C 0.02836 0.6839 0.46322 0.0
C1204 C 0.03049 0.70236 0.34573 0.0
C1205 C 0.0402 0.68412 0.49859 0.0
C1206 C 0.99638 0.65989 0.181 0.0
C1207 C 1.00544 0.67145 0.21891 0.0
C1208 C 0.99677 0.66455 0.33613 0.0
C1209 C 0.03709 0.69303 0.4223 0.0
C1210 C 0.02452 0.68872 0.38147 0.0
C1211 C 0.9938 0.6704 0.25584 0.0
C1212 C 1.00335 0.67775 0.29986 0.0
H1213 H 0.08604 0.71267 0.45165 0.0
H1214 H 0.06552 0.71135 0.3888 0.0
H1215 H 1.00236 0.65864 0.40202 0.0
H1216 H 0.94774 0.63847 0.21419 0.0
H1217 H 0.96359 0.65846 0.28021 0.0
C1218 C 0.34119 0.99242 0.34448 0.0
C1219 C 0.333 0.97157 0.34317 0.0
C1220 C 0.33893 1.00161 0.38242 0.0
C1221 C 0.33778 0.9932 0.49961 0.0
H1222 H 0.33221 0.04007 0.51242 0.0
C1223 C 0.36255 0.03688 0.66167 0.0
C1224 C 0.37326 0.05771 0.65753 0.0
C1225 C 0.3508 0.02501 0.62647 0.0
C1226 C 0.33395 0.02706 0.50944 0.0
H1227 H 0.31391 0.94387 0.37837 0.0
H1228 H 0.31019 0.95996 0.44444 0.0
H1229 H 0.32359 0.02194 0.44165 0.0
H1230 H 0.37968 0.08269 0.61461 0.0
H1231 H 0.36028 0.06212 0.55201 0.0
H1232 H 0.34968 0.99888 0.56516 0.0
C1233 C 0.31855 0.96918 0.41641 0.0
C1234 C 0.32884 0.01662 0.46898 0.0
C1235 C 0.3207 0.95999 0.37849 0.0
C1236 C 0.37128 0.0666 0.61864 0.0
C1237 C 0.36007 0.05473 0.58279 0.0
C1238 C 0.34325 1.00379 0.53952 0.0
C1239 C 0.32849 0.99009 0.41961 0.0
C1240 C 0.33099 0.99975 0.46358 0.0
C1241 C 0.35026 0.03372 0.58561 0.0
C1242 C 0.34176 0.0211 0.54493 0.0
H1243 H 0.35064 1.00177 0.31775 0.0
H1244 H 0.34678 0.01777 0.38406 0.0
H1245 H 0.34 0.98048 0.49613 0.0
H1246 H 0.36385 0.02975 0.69156 0.0
H1247 H 0.34292 0.00895 0.63071 0.0
C1248 C 0.44584 0.27155 0.46884 0.0
C1249 C 0.4554 0.29135 0.48452 0.0
C1250 C 0.44633 0.25642 0.49365 0.0
C1251 C 0.45591 0.24478 0.60878 0.0
H1252 H 0.45696 0.20074 0.54978 0.0
C1253 C 0.46582 0.1718 0.65276 0.0
C1254 C 0.45455 0.16527 0.69219 0.0
C1255 C 0.46654 0.18746 0.62771 0.0
C1256 C 0.45689 0.21302 0.56697 0.0
H1257 H 0.47332 0.31077 0.53833 0.0
H1258 H 0.4747 0.28464 0.58076 0.0
H1259 H 0.45787 0.22756 0.50557 0.0
H1260 H 0.43507 0.17013 0.73599 0.0
H1261 H 0.43593 0.19701 0.69198 0.0
H1262 H 0.4556 0.23061 0.67021 0.0
C1263 C 0.46637 0.28061 0.54985 0.0
C1264 C 0.45711 0.22832 0.54145 0.0
C1265 C 0.46574 0.29569 0.52523 0.0
C1266 C 0.44406 0.17486 0.70601 0.0
C1267 C 0.44464 0.19041 0.68077 0.0
C1268 C 0.45583 0.22956 0.63429 0.0
C1269 C 0.4565 0.26068 0.53471 0.0
C1270 C 0.45656 0.24443 0.56193 0.0
C1271 C 0.45586 0.19693 0.64114 0.0
C1272 C 0.45625 0.21338 0.61382 0.0
H1273 H 0.43758 0.26761 0.43781 0.0
H1274 H 0.43828 0.24128 0.48105 0.0
H1275 H 0.45518 0.25672 0.62595 0.0
H1276 H 0.47413 0.16481 0.64113 0.0
H1277 H 0.47563 0.19222 0.59792 0.0
C1278 C 0.29678 0.45467 0.8129 0.0
C1279 C 0.29482 0.45177 0.85924 0.0
C1280 C 0.28176 0.45516 0.78775 0.0
C1281 C 0.22796 0.44166 0.79358 0.0
H1282 H 0.24151 0.47394 0.68655 0.0
C1283 C 0.17066 0.45503 0.69689 0.0
C1284 C 0.16975 0.45203 0.65053 0.0
C1285 C 0.18608 0.45542 0.7222 0.0
C1286 C 0.23749 0.46476 0.71622 0.0
H1287 H 0.27562 0.44752 0.91561 0.0
H1288 H 0.24983 0.44924 0.87228 0.0
H1289 H 0.26801 0.47442 0.73159 0.0
H1290 H 0.18463 0.44743 0.59441 0.0
H1291 H 0.21187 0.44862 0.63862 0.0
H1292 H 0.19743 0.43253 0.77855 0.0
C1293 C 0.26267 0.45051 0.85488 0.0
C1294 C 0.25269 0.46493 0.74207 0.0
C1295 C 0.27758 0.4497 0.87994 0.0
C1296 C 0.18488 0.4498 0.63002 0.0
C1297 C 0.20052 0.45054 0.6553 0.0
C1298 C 0.21281 0.44176 0.76809 0.0
C1299 C 0.26442 0.45308 0.80826 0.0
C1300 C 0.24819 0.45329 0.7811 0.0
C1301 C 0.20118 0.45315 0.70177 0.0
C1302 C 0.21738 0.45323 0.729 0.0
H1303 H 0.30976 0.4561 0.79573 0.0
H1304 H 0.28363 0.45675 0.752 0.0
H1305 H 0.22369 0.43215 0.82268 0.0
H1306 H 0.15922 0.45671 0.71386 0.0
H1307 H 0.18625 0.45761 0.75786 0.0
C1308 C 0.84313 0.29587 0.98387 0.0
C1309 C 0.8489 0.29141 0.02476 0.0
C1310 C 0.82747 0.28089 0.95897 0.0
C1311 C 0.78409 0.22882 0.96663 0.0
H1312 H 0.78853 0.23113 0.83797 0.0
C1313 C 0.71906 0.17302 0.8539 0.0
C1314 C 0.72387 0.16634 0.81476 0.0
C1315 C 0.734 0.18853 0.87924 0.0
C1316 C 0.78707 0.23008 0.87386 0.0
H1317 H 0.84259 0.26757 0.07148 0.0
H1318 H 0.81561 0.24141 0.02776 0.0
H1319 H 0.81501 0.25704 0.88274 0.0
H1320 H 0.7483 0.17079 0.7718 0.0
H1321 H 0.77432 0.19745 0.8163 0.0
H1322 H 0.75651 0.20145 0.95778 0.0
C1323 C 0.82288 0.25657 0.01522 0.0
C1324 C 0.80219 0.24519 0.89966 0.0
C1325 C 0.83846 0.2716 0.04031 0.0
C1326 C 0.744 0.17564 0.80153 0.0
C1327 C 0.75896 0.19105 0.82705 0.0
C1328 C 0.76902 0.21364 0.94083 0.0
C1329 C 0.81721 0.26096 0.97399 0.0
C1330 C 0.80095 0.24482 0.94647 0.0
C1331 C 0.75422 0.19772 0.86639 0.0
C1332 C 0.77026 0.21403 0.89401 0.0
H1333 H 0.85079 0.31096 0.97084 0.0
H1334 H 0.82337 0.28502 0.92791 0.0
H1335 H 0.78239 0.22805 1.00248 0.0
H1336 H 0.70372 0.16624 0.86509 0.0
H1337 H 0.72963 0.19341 0.9088 0.0
C1338 C 0.56097 0.84573 0.13947 0.0
C1339 C 0.5635 0.84674 0.18599 0.0
C1340 C 0.56058 0.83013 0.11498 0.0
C1341 C 0.55066 0.77851 0.12296 0.0
H1342 H 0.58394 0.79182 0.01773 0.0
C1343 C 0.56065 0.71864 0.02848 0.0
C1344 C 0.56371 0.72053 0.98217 0.0
C1345 C 0.56019 0.73377 0.05325 0.0
C1346 C 0.57424 0.78769 0.0465 0.0
H1347 H 0.56723 0.83182 0.24327 0.0
H1348 H 0.56607 0.80426 0.20048 0.0
H1349 H 0.58356 0.81831 0.06083 0.0
H1350 H 0.56828 0.7397 0.92548 0.0
H1351 H 0.56666 0.76567 0.96815 0.0
H1352 H 0.54085 0.74789 0.10824 0.0
C1353 C 0.56451 0.81568 0.18303 0.0
C1354 C 0.57414 0.80297 0.07139 0.0
C1355 C 0.56523 0.83149 0.20751 0.0
C1356 C 0.56598 0.73779 0.96114 0.0
C1357 C 0.56523 0.75281 0.98581 0.0
C1358 C 0.55051 0.76318 0.09769 0.0
C1359 C 0.5624 0.81494 0.13641 0.0
C1360 C 0.5624 0.79859 0.10999 0.0
C1361 C 0.56251 0.75114 0.03239 0.0
C1362 C 0.56236 0.76751 0.05909 0.0
H1363 H 0.55966 0.85722 0.12171 0.0
H1364 H 0.55877 0.82989 0.07918 0.0
H1365 H 0.54128 0.77463 0.15227 0.0
H1366 H 0.55905 0.70565 0.04589 0.0
H1367 H 0.55846 0.73196 0.089 0.0
C1368 C 0.73976 0.5617 0.37797 0.0
C1369 C 0.72302 0.56005 0.3556 0.0
C1370 C 0.75499 0.56087 0.35439 0.0
C1371 C 0.76671 0.54694 0.24316 0.0
H1372 H 0.82142 0.57942 0.2835 0.0
C1373 C 0.8359 0.56221 0.13663 0.0
C1374 C 0.85102 0.56045 0.15864 0.0
C1375 C 0.8199 0.56133 0.16056 0.0
C1376 C 0.8062 0.57015 0.27199 0.0
H1377 H 0.70927 0.55636 0.2907 0.0
H1378 H 0.73595 0.55561 0.2496 0.0
H1379 H 0.79448 0.57958 0.32524 0.0
H1380 H 0.8611 0.55637 0.22322 0.0
H1381 H 0.8334 0.55514 0.26483 0.0
H1382 H 0.7787 0.53806 0.18906 0.0
C1383 C 0.73718 0.55694 0.28549 0.0
C1384 C 0.79067 0.57014 0.29608 0.0
C1385 C 0.72185 0.55748 0.30913 0.0
C1386 C 0.8497 0.55771 0.20511 0.0
C1387 C 0.83389 0.55713 0.22906 0.0
C1388 C 0.78229 0.54719 0.21873 0.0
C1389 C 0.75405 0.55867 0.30768 0.0
C1390 C 0.77065 0.5585 0.28214 0.0
C1391 C 0.81881 0.55898 0.20713 0.0
C1392 C 0.80221 0.55875 0.23292 0.0
H1393 H 0.74111 0.56361 0.41377 0.0
H1394 H 0.76747 0.56187 0.37297 0.0
H1395 H 0.75155 0.53747 0.23162 0.0
H1396 H 0.83647 0.56437 0.1009 0.0
H1397 H 0.80859 0.56293 0.14273 0.0
C1398 C 0.18329 0.7375 0.54641 0.0
C1399 C 0.16821 0.72023 0.52544 0.0
C1400 C 0.19906 0.75244 0.52161 0.0
C1401 C 0.21222 0.77376 0.40904 0.0
H1402 H 0.26702 0.79654 0.44905 0.0
C1403 C 0.27824 0.83162 0.30153 0.0
C1404 C 0.29499 0.84688 0.32353 0.0
C1405 C 0.26311 0.81563 0.32549 0.0
C1406 C 0.25181 0.79063 0.43758 0.0
H1407 H 0.15791 0.70524 0.46178 0.0
H1408 H 0.18524 0.73144 0.41858 0.0
H1409 H 0.24012 0.7702 0.49253 0.0
H1410 H 0.30881 0.85733 0.38822 0.0
H1411 H 0.28231 0.83005 0.42996 0.0
H1412 H 0.22365 0.79449 0.35494 0.0
C1413 C 0.18489 0.73336 0.45423 0.0
C1414 C 0.23638 0.77542 0.46254 0.0
C1415 C 0.1693 0.71828 0.47909 0.0
C1416 C 0.29624 0.84574 0.37005 0.0
C1417 C 0.281 0.82994 0.39407 0.0
C1418 C 0.22761 0.78917 0.3844 0.0
C1419 C 0.19996 0.75063 0.47516 0.0
C1420 C 0.2164 0.76678 0.44855 0.0
C1421 C 0.26415 0.81461 0.37225 0.0
C1422 C 0.24769 0.79788 0.39823 0.0
H1423 H 0.18289 0.7395 0.58202 0.0
H1424 H 0.21035 0.76562 0.53868 0.0
H1425 H 0.19696 0.76758 0.39764 0.0
H1426 H 0.27683 0.832 0.2657 0.0
H1427 H 0.25064 0.80402 0.30718 0.0
loop_
_geom_bond_atom_site_label_1
_geom_bond_atom_site_label_2
_geom_bond_distance
_geom_bond_site_symmetry_2
_ccdc_geom_bond_type
Co0 O2 2.143 . S
Co0 O8 2.074 . S
Co0 O11 2.093 . S
Co0 O24 2.097 . S
Co0 N41 2.151 . S
Co0 N49 2.214 . S
Co1 O2 2.160 . S
Co1 O7 2.058 . S
Co1 O17 2.057 . S
Co1 O32 2.037 . S
Co1 N36 2.145 . S
Co1 N57 2.257 . S
O2 Co0 2.143 . S
O2 Co1 2.160 . S
C3 O4 1.278 . S
C3 O11 1.224 . S
O4 C3 1.278 . S
C5 O6 1.245 . S
C5 O17 1.232 . S
O6 C5 1.245 . S
O7 Co1 2.058 . S
O7 C33 1.269 . S
O8 Co0 2.074 . S
O8 C33 1.257 . S
H9 C34 0.930 . S
H10 C40 0.930 . S
O11 Co0 2.093 . S
O11 C3 1.224 . S
H12 C44 0.929 . S
H13 C46 0.930 . S
H14 C47 0.930 . S
H15 C45 0.929 . S
H16 C48 0.928 . S
O17 Co1 2.057 . S
O17 C5 1.232 . S
H18 C37 0.929 . S
H19 C38 0.929 . S
H20 C50 0.931 . S
H21 C42 0.929 . S
H22 C51 0.930 . S
H23 C43 0.931 . S
O24 Co0 2.097 . S
O24 C52 1.214 . S
H25 C53 0.929 . S
H26 C54 0.929 . S
H27 C55 0.930 . S
H28 C56 0.929 . S
H29 C58 0.930 . S
H30 C35 0.930 . S
H31 C39 0.930 . S
O32 Co1 2.037 . S
O32 C52 1.234 . S
C33 O7 1.269 . S
C33 O8 1.257 . S
C34 H9 0.930 . S
C34 C37 1.388 . S
C34 C39 1.418 . S
C35 H30 0.930 . S
C35 C38 1.404 . S
C35 C39 1.353 . S
N36 Co1 2.145 . S
N36 C37 1.397 . S
N36 C38 1.334 . S
C37 H18 0.929 . S
C37 C34 1.388 . S
C37 N36 1.397 . S
C38 H19 0.929 . S
C38 C35 1.404 . S
C38 N36 1.334 . S
C39 H31 0.930 . S
C39 C34 1.418 . S
C39 C35 1.353 . S
C40 H10 0.930 . S
C40 N41 1.330 . S
C40 C42 1.446 . S
N41 Co0 2.151 . S
N41 C40 1.330 . S
N41 C45 1.418 . S
C42 H21 0.929 . S
C42 C40 1.446 . S
C42 C43 1.332 . S
C43 H23 0.931 . S
C43 C42 1.332 . S
C43 C44 1.267 . S
C44 H12 0.929 . S
C44 C43 1.267 . S
C44 C45 1.251 . S
C45 H15 0.929 . S
C45 N41 1.418 . S
C45 C44 1.251 . S
C46 H13 0.930 . S
C46 C48 1.406 . S
C46 C51 1.261 . S
C47 H14 0.930 . S
C47 N49 1.325 . S
C47 C50 1.357 . S
C48 H16 0.928 . S
C48 C46 1.406 . S
C48 N49 1.261 . S
N49 Co0 2.214 . S
N49 C47 1.325 . S
N49 C48 1.261 . S
C50 H20 0.931 . S
C50 C47 1.357 . S
C50 C51 1.312 . S
C51 H22 0.930 . S
C51 C46 1.261 . S
C51 C50 1.312 . S
C52 O24 1.214 . S
C52 O32 1.234 . S
C53 H25 0.929 . S
C53 C56 1.391 . S
C53 C58 1.391 . S
C54 H26 0.929 . S
C54 C55 1.390 . S
C54 N57 1.391 . S
C55 H27 0.930 . S
C55 C54 1.390 . S
C55 C56 1.392 . S
C56 H28 0.929 . S
C56 C53 1.391 . S
C56 C55 1.392 . S
N57 Co1 2.257 . S
N57 C54 1.391 . S
N57 C58 1.388 . S
C58 H29 0.930 . S
C58 C53 1.391 . S
C58 N57 1.388 . S
Co59 O61 2.143 . S
Co59 O67 2.074 . S
Co59 O70 2.093 . S
Co59 O83 2.097 . S
Co59 N100 2.151 . S
Co59 N108 2.214 . S
Co60 O61 2.160 . S
Co60 O66 2.058 . S
Co60 O76 2.057 . S
Co60 O91 2.037 . S
Co60 N95 2.145 . S
Co60 N116 2.257 . S
O61 Co59 2.143 . S
O61 Co60 2.160 . S
C62 O63 1.278 . S
C62 O70 1.224 . S
O63 C62 1.278 . S
C64 O65 1.245 . S
C64 O76 1.232 . S
O65 C64 1.245 . S
O66 Co60 2.058 . S
O66 C92 1.269 . S
O67 Co59 2.074 . S
O67 C92 1.257 . S
H68 C93 0.930 . S
H69 C99 0.930 . S
O70 Co59 2.093 . S
O70 C62 1.224 . S
H71 C103 0.929 . S
H72 C105 0.930 . S
H73 C106 0.930 . S
H74 C104 0.929 . S
H75 C107 0.928 . S
O76 Co60 2.057 . S
O76 C64 1.232 . S
H77 C96 0.929 . S
H78 C97 0.929 . S
H79 C109 0.931 . S
H80 C101 0.929 . S
H81 C110 0.930 . S
H82 C102 0.931 . S
O83 Co59 2.097 . S
O83 C111 1.214 . S
H84 C112 0.929 . S
H85 C113 0.929 . S
H86 C114 0.930 . S
H87 C115 0.929 . S
H88 C117 0.930 . S
H89 C94 0.930 . S
H90 C98 0.930 . S
O91 Co60 2.037 . S
O91 C111 1.234 . S
C92 O66 1.269 . S
C92 O67 1.257 . S
C93 H68 0.930 . S
C93 C96 1.388 . S
C93 C98 1.418 . S
C94 H89 0.930 . S
C94 C97 1.404 . S
C94 C98 1.353 . S
N95 Co60 2.145 . S
N95 C96 1.397 . S
N95 C97 1.334 . S
C96 H77 0.929 . S
C96 C93 1.388 . S
C96 N95 1.397 . S
C97 H78 0.929 . S
C97 C94 1.404 . S
C97 N95 1.334 . S
C98 H90 0.930 . S
C98 C93 1.418 . S
C98 C94 1.353 . S
C99 H69 0.930 . S
C99 N100 1.330 . S
C99 C101 1.446 . S
N100 Co59 2.151 . S
N100 C99 1.330 . S
N100 C104 1.418 . S
C101 H80 0.929 . S
C101 C99 1.446 . S
C101 C102 1.332 . S
C102 H82 0.931 . S
C102 C101 1.332 . S
C102 C103 1.267 . S
C103 H71 0.929 . S
C103 C102 1.267 . S
C103 C104 1.251 . S
C104 H74 0.929 . S
C104 N100 1.418 . S
C104 C103 1.251 . S
C105 H72 0.930 . S
C105 C107 1.406 . S
C105 C110 1.261 . S
C106 H73 0.930 . S
C106 N108 1.325 . S
C106 C109 1.357 . S
C107 H75 0.928 . S
C107 C105 1.406 . S
C107 N108 1.261 . S
N108 Co59 2.214 . S
N108 C106 1.325 . S
N108 C107 1.261 . S
C109 H79 0.931 . S
C109 C106 1.357 . S
C109 C110 1.312 . S
C110 H81 0.930 . S
C110 C105 1.261 . S
C110 C109 1.312 . S
C111 O83 1.214 . S
C111 O91 1.234 . S
C112 H84 0.929 . S
C112 C115 1.391 . S
C112 C117 1.391 . S
C113 H85 0.929 . S
C113 C114 1.390 . S
C113 N116 1.391 . S
C114 H86 0.930 . S
C114 C113 1.390 . S
C114 C115 1.392 . S
C115 H87 0.929 . S
C115 C112 1.391 . S
C115 C114 1.392 . S
N116 Co60 2.257 . S
N116 C113 1.391 . S
N116 C117 1.388 . S
C117 H88 0.930 . S
C117 C112 1.391 . S
C117 N116 1.388 . S
Co118 O120 2.143 . S
Co118 O126 2.074 . S
Co118 O129 2.093 . S
Co118 O142 2.097 . S
Co118 N159 2.151 . S
Co118 N167 2.214 . S
Co119 O120 2.160 . S
Co119 O125 2.058 . S
Co119 O135 2.057 . S
Co119 O150 2.037 . S
Co119 N154 2.145 . S
Co119 N175 2.257 . S
O120 Co118 2.143 . S
O120 Co119 2.160 . S
C121 O122 1.278 . S
C121 O129 1.224 . S
O122 C121 1.278 . S
C123 O124 1.245 . S
C123 O135 1.232 . S
O124 C123 1.245 . S
O125 Co119 2.058 . S
O125 C151 1.269 . S
O126 Co118 2.074 . S
O126 C151 1.257 . S
H127 C152 0.930 . S
H128 C158 0.930 . S
O129 Co118 2.093 . S
O129 C121 1.224 . S
H130 C162 0.929 . S
H131 C164 0.930 . S
H132 C165 0.930 . S
H133 C163 0.929 . S
H134 C166 0.928 . S
O135 Co119 2.057 . S
O135 C123 1.232 . S
H136 C155 0.929 . S
H137 C156 0.929 . S
H138 C168 0.931 . S
H139 C160 0.929 . S
H140 C169 0.930 . S
H141 C161 0.931 . S
O142 Co118 2.097 . S
O142 C170 1.214 . S
H143 C171 0.929 . S
H144 C172 0.929 . S
H145 C173 0.930 . S
H146 C174 0.929 . S
H147 C176 0.930 . S
H148 C153 0.930 . S
H149 C157 0.930 . S
O150 Co119 2.037 . S
O150 C170 1.234 . S
C151 O125 1.269 . S
C151 O126 1.257 . S
C152 H127 0.930 . S
C152 C155 1.388 . S
C152 C157 1.418 . S
C153 H148 0.930 . S
C153 C156 1.404 . S
C153 C157 1.353 . S
N154 Co119 2.145 . S
N154 C155 1.397 . S
N154 C156 1.334 . S
C155 H136 0.929 . S
C155 C152 1.388 . S
C155 N154 1.397 . S
C156 H137 0.929 . S
C156 C153 1.404 . S
C156 N154 1.334 . S
C157 H149 0.930 . S
C157 C152 1.418 . S
C157 C153 1.353 . S
C158 H128 0.930 . S
C158 N159 1.330 . S
C158 C160 1.446 . S
N159 Co118 2.151 . S
N159 C158 1.330 . S
N159 C163 1.418 . S
C160 H139 0.929 . S
C160 C158 1.446 . S
C160 C161 1.332 . S
C161 H141 0.931 . S
C161 C160 1.332 . S
C161 C162 1.267 . S
C162 H130 0.929 . S
C162 C161 1.267 . S
C162 C163 1.251 . S
C163 H133 0.929 . S
C163 N159 1.418 . S
C163 C162 1.251 . S
C164 H131 0.930 . S
C164 C166 1.406 . S
C164 C169 1.261 . S
C165 H132 0.930 . S
C165 N167 1.325 . S
C165 C168 1.357 . S
C166 H134 0.928 . S
C166 C164 1.406 . S
C166 N167 1.261 . S
N167 Co118 2.214 . S
N167 C165 1.325 . S
N167 C166 1.261 . S
C168 H138 0.931 . S
C168 C165 1.357 . S
C168 C169 1.312 . S
C169 H140 0.930 . S
C169 C164 1.261 . S
C169 C168 1.312 . S
C170 O142 1.214 . S
C170 O150 1.234 . S
C171 H143 0.929 . S
C171 C174 1.391 . S
C171 C176 1.391 . S
C172 H144 0.929 . S
C172 C173 1.390 . S
C172 N175 1.391 . S
C173 H145 0.930 . S
C173 C172 1.390 . S
C173 C174 1.392 . S
C174 H146 0.929 . S
C174 C171 1.391 . S
C174 C173 1.392 . S
N175 Co119 2.257 . S
N175 C172 1.391 . S
N175 C176 1.388 . S
C176 H147 0.930 . S
C176 C171 1.391 . S
C176 N175 1.388 . S
Co177 O179 2.143 . S
Co177 O185 2.074 . S
Co177 O188 2.093 . S
Co177 O201 2.097 . S
Co177 N218 2.151 1_556 S
Co177 N226 2.214 . S
Co178 O179 2.160 . S
Co178 O184 2.058 . S
Co178 O194 2.057 . S
Co178 O209 2.037 . S
Co178 N213 2.145 . S
Co178 N234 2.257 . S
O179 Co177 2.143 . S
O179 Co178 2.160 . S
C180 O181 1.278 1_554 S
C180 O188 1.224 1_554 S
O181 C180 1.278 1_556 S
C182 O183 1.245 . S
C182 O194 1.232 . S
O183 C182 1.245 . S
O184 Co178 2.058 . S
O184 C210 1.269 . S
O185 Co177 2.074 . S
O185 C210 1.257 . S
H186 C211 0.930 . S
H187 C217 0.930 . S
O188 Co177 2.093 . S
O188 C180 1.224 1_556 S
H189 C221 0.929 . S
H190 C223 0.930 . S
H191 C224 0.930 . S
H192 C222 0.929 1_556 S
H193 C225 0.907 1_554 S
O194 Co178 2.057 . S
O194 C182 1.232 . S
H195 C214 0.929 . S
H196 C215 0.929 . S
H197 C227 0.931 . S
H198 C219 0.929 . S
H199 C228 0.930 . S
H200 C220 0.931 . S
O201 Co177 2.097 . S
O201 C229 1.214 . S
H202 C230 0.929 . S
H203 C231 0.929 . S
H204 C232 0.930 . S
H205 C233 0.929 . S
H206 C235 0.930 . S
H207 C212 0.930 . S
H208 C216 0.930 . S
O209 Co178 2.037 . S
O209 C229 1.234 . S
C210 O184 1.269 . S
C210 O185 1.257 . S
C211 H186 0.930 . S
C211 C214 1.388 . S
C211 C216 1.418 . S
C212 H207 0.930 . S
C212 C215 1.404 . S
C212 C216 1.353 . S
N213 Co178 2.145 . S
N213 C214 1.397 . S
N213 C215 1.334 . S
C214 H195 0.929 . S
C214 C211 1.388 . S
C214 N213 1.397 . S
C215 H196 0.929 . S
C215 C212 1.404 . S
C215 N213 1.334 . S
C216 H208 0.930 . S
C216 C211 1.418 . S
C216 C212 1.353 . S
C217 H187 0.930 . S
C217 N218 1.330 . S
C217 C219 1.446 . S
N218 Co177 2.151 1_554 S
N218 C217 1.330 . S
N218 C222 1.418 . S
C219 H198 0.929 . S
C219 C217 1.446 . S
C219 C220 1.332 . S
C220 H200 0.931 . S
C220 C219 1.332 . S
C220 C221 1.267 . S
C221 H189 0.929 . S
C221 C220 1.267 . S
C221 C222 1.251 . S
C222 H192 0.929 1_554 S
C222 N218 1.418 . S
C222 C221 1.251 . S
C223 H190 0.930 . S
C223 C225 1.406 . S
C223 C228 1.261 . S
C224 H191 0.930 . S
C224 N226 1.325 . S
C224 C227 1.357 . S
C225 H193 0.907 1_556 S
C225 C223 1.406 . S
C225 N226 1.261 . S
N226 Co177 2.214 . S
N226 C224 1.325 . S
N226 C225 1.261 . S
C227 H197 0.931 . S
C227 C224 1.357 . S
C227 C228 1.312 . S
C228 H199 0.930 . S
C228 C223 1.261 . S
C228 C227 1.312 . S
C229 O201 1.214 . S
C229 O209 1.234 . S
C230 H202 0.929 . S
C230 C233 1.391 . S
C230 C235 1.391 . S
C231 H203 0.929 . S
C231 C232 1.390 . S
C231 N234 1.391 . S
C232 H204 0.930 . S
C232 C231 1.390 . S
C232 C233 1.392 . S
C233 H205 0.929 . S
C233 C230 1.391 . S
C233 C232 1.392 . S
N234 Co178 2.257 . S
N234 C231 1.391 . S
N234 C235 1.388 . S
C235 H206 0.930 . S
C235 C230 1.391 . S
C235 N234 1.388 . S
Co236 O238 2.143 . S
Co236 O244 2.074 . S
Co236 O247 2.093 . S
Co236 O260 2.097 . S
Co236 N277 2.151 . S
Co236 N285 2.214 . S
Co237 O238 2.160 . S
Co237 O243 2.058 . S
Co237 O253 2.057 . S
Co237 O268 2.037 . S
Co237 N272 2.145 . S
Co237 N293 2.257 . S
O238 Co236 2.143 . S
O238 Co237 2.160 . S
C239 O240 1.278 . S
C239 O247 1.224 . S
O240 C239 1.278 . S
C241 O242 1.245 . S
C241 O253 1.232 . S
O242 C241 1.245 . S
O243 Co237 2.058 . S
O243 C269 1.269 . S
O244 Co236 2.074 . S
O244 C269 1.257 . S
H245 C270 0.930 . S
H246 C276 0.930 . S
O247 Co236 2.093 . S
O247 C239 1.224 . S
H248 C280 0.929 . S
H249 C282 0.930 . S
H250 C283 0.930 . S
H251 C281 0.929 . S
H252 C284 0.928 . S
O253 Co237 2.057 . S
O253 C241 1.232 . S
H254 C273 0.929 . S
H255 C274 0.929 . S
H256 C286 0.931 . S
H257 C278 0.929 . S
H258 C287 0.930 . S
H259 C279 0.931 . S
O260 Co236 2.097 . S
O260 C288 1.214 . S
H261 C289 0.929 . S
H262 C290 0.929 1_556 S
H263 C291 0.930 1_556 S
H264 C292 0.929 . S
H265 C294 0.930 . S
H266 C271 0.930 . S
H267 C275 0.930 . S
O268 Co237 2.037 . S
O268 C288 1.234 . S
C269 O243 1.269 . S
C269 O244 1.257 . S
C270 H245 0.930 . S
C270 C273 1.388 . S
C270 C275 1.418 . S
C271 H266 0.930 . S
C271 C274 1.404 1_556 S
C271 C275 1.353 . S
N272 Co237 2.145 . S
N272 C273 1.397 1_554 S
N272 C274 1.334 . S
C273 H254 0.929 . S
C273 C270 1.388 . S
C273 N272 1.397 1_556 S
C274 H255 0.929 . S
C274 C271 1.404 1_554 S
C274 N272 1.334 . S
C275 H267 0.930 . S
C275 C270 1.418 . S
C275 C271 1.353 . S
C276 H246 0.930 . S
C276 N277 1.330 . S
C276 C278 1.446 . S
N277 Co236 2.151 . S
N277 C276 1.330 . S
N277 C281 1.418 . S
C278 H257 0.929 . S
C278 C276 1.446 . S
C278 C279 1.332 . S
C279 H259 0.931 . S
C279 C278 1.332 . S
C279 C280 1.267 . S
C280 H248 0.929 . S
C280 C279 1.267 . S
C280 C281 1.251 . S
C281 H251 0.929 . S
C281 N277 1.418 . S
C281 C280 1.251 . S
C282 H249 0.930 . S
C282 C284 1.406 . S
C282 C287 1.261 . S
C283 H250 0.930 . S
C283 N285 1.325 . S
C283 C286 1.357 . S
C284 H252 0.928 . S
C284 C282 1.406 . S
C284 N285 1.261 . S
N285 Co236 2.214 . S
N285 C283 1.325 . S
N285 C284 1.261 . S
C286 H256 0.931 . S
C286 C283 1.357 . S
C286 C287 1.312 . S
C287 H258 0.930 . S
C287 C282 1.261 . S
C287 C286 1.312 . S
C288 O260 1.214 . S
C288 O268 1.234 . S
C289 H261 0.929 . S
C289 C292 1.391 . S
C289 C294 1.391 . S
C290 H262 0.929 1_554 S
C290 C291 1.390 . S
C290 N293 1.391 . S
C291 H263 0.930 1_554 S
C291 C290 1.390 . S
C291 C292 1.392 . S
C292 H264 0.929 . S
C292 C289 1.391 . S
C292 C291 1.392 . S
N293 Co237 2.257 . S
N293 C290 1.391 . S
N293 C294 1.388 . S
C294 H265 0.930 . S
C294 C289 1.391 . S
C294 N293 1.388 . S
Co295 O297 2.143 . S
Co295 O303 2.074 . S
Co295 O306 2.093 . S
Co295 O319 2.097 . S
Co295 N336 2.151 . S
Co295 N344 2.214 . S
Co296 O297 2.160 . S
Co296 O302 2.058 . S
Co296 O312 2.057 . S
Co296 O327 2.037 . S
Co296 N331 2.145 . S
Co296 N352 2.257 . S
O297 Co295 2.143 . S
O297 Co296 2.160 . S
C298 O299 1.278 . S
C298 O306 1.224 . S
O299 C298 1.278 . S
C300 O301 1.245 . S
C300 O312 1.232 . S
O301 C300 1.245 . S
O302 Co296 2.058 . S
O302 C328 1.269 . S
O303 Co295 2.074 . S
O303 C328 1.257 . S
H304 C329 0.930 . S
H305 C335 0.930 . S
O306 Co295 2.093 . S
O306 C298 1.224 . S
H307 C339 0.929 . S
H308 C341 0.930 . S
H309 C342 0.930 . S
H310 C340 0.929 . S
H311 C343 0.928 . S
O312 Co296 2.057 . S
O312 C300 1.232 . S
H313 C332 0.929 . S
H314 C333 0.929 . S
H315 C345 0.931 . S
H316 C337 0.929 . S
H317 C346 0.930 . S
H318 C338 0.931 . S
O319 Co295 2.097 . S
O319 C347 1.214 . S
H320 C348 0.929 . S
H321 C349 0.929 . S
H322 C350 0.930 . S
H323 C351 0.929 . S
H324 C353 0.930 . S
H325 C330 0.930 . S
H326 C334 0.930 . S
O327 Co296 2.037 . S
O327 C347 1.234 . S
C328 O302 1.269 . S
C328 O303 1.257 . S
C329 H304 0.930 . S
C329 C332 1.388 . S
C329 C334 1.418 . S
C330 H325 0.930 . S
C330 C333 1.404 . S
C330 C334 1.353 . S
N331 Co296 2.145 . S
N331 C332 1.397 . S
N331 C333 1.334 . S
C332 H313 0.929 . S
C332 C329 1.388 . S
C332 N331 1.397 . S
C333 H314 0.929 . S
C333 C330 1.404 . S
C333 N331 1.334 . S
C334 H326 0.930 . S
C334 C329 1.418 . S
C334 C330 1.353 . S
C335 H305 0.930 . S
C335 N336 1.330 . S
C335 C337 1.446 . S
N336 Co295 2.151 . S
N336 C335 1.330 . S
N336 C340 1.418 . S
C337 H316 0.929 . S
C337 C335 1.446 . S
C337 C338 1.332 . S
C338 H318 0.931 . S
C338 C337 1.332 . S
C338 C339 1.267 . S
C339 H307 0.929 . S
C339 C338 1.267 . S
C339 C340 1.251 . S
C340 H310 0.929 . S
C340 N336 1.418 . S
C340 C339 1.251 . S
C341 H308 0.930 . S
C341 C343 1.406 . S
C341 C346 1.261 . S
C342 H309 0.930 . S
C342 N344 1.325 . S
C342 C345 1.357 . S
C343 H311 0.928 . S
C343 C341 1.406 . S
C343 N344 1.261 . S
N344 Co295 2.214 . S
N344 C342 1.325 . S
N344 C343 1.261 . S
C345 H315 0.931 . S
C345 C342 1.357 . S
C345 C346 1.312 . S
C346 H317 0.930 . S
C346 C341 1.261 . S
C346 C345 1.312 . S
C347 O319 1.214 . S
C347 O327 1.234 . S
C348 H320 0.929 . S
C348 C351 1.391 . S
C348 C353 1.391 . S
C349 H321 0.929 . S
C349 C350 1.390 . S
C349 N352 1.391 . S
C350 H322 0.930 . S
C350 C349 1.390 . S
C350 C351 1.392 . S
C351 H323 0.929 . S
C351 C348 1.391 . S
C351 C350 1.392 . S
N352 Co296 2.257 . S
N352 C349 1.391 . S
N352 C353 1.388 . S
C353 H324 0.930 . S
C353 C348 1.391 . S
C353 N352 1.388 . S
Co354 O356 2.143 . S
Co354 O362 2.074 . S
Co354 O365 2.093 . S
Co354 O378 2.097 . S
Co354 N395 2.151 . S
Co354 N403 2.214 . S
Co355 O356 2.160 . S
Co355 O361 2.058 . S
Co355 O371 2.057 . S
Co355 O386 2.037 . S
Co355 N390 2.145 . S
Co355 N411 2.257 . S
O356 Co354 2.143 . S
O356 Co355 2.160 . S
C357 O358 1.278 . S
C357 O365 1.224 . S
O358 C357 1.278 . S
C359 O360 1.245 . S
C359 O371 1.232 . S
O360 C359 1.245 . S
O361 Co355 2.058 . S
O361 C387 1.269 . S
O362 Co354 2.074 . S
O362 C387 1.257 . S
H363 C388 0.930 . S
H364 C394 0.930 . S
O365 Co354 2.093 . S
O365 C357 1.224 . S
H366 C398 0.929 . S
H367 C400 0.930 . S
H368 C401 0.930 . S
H369 C399 0.929 . S
H370 C402 0.928 . S
O371 Co355 2.057 . S
O371 C359 1.232 . S
H372 C391 0.929 . S
H373 C392 0.929 . S
H374 C404 0.931 . S
H375 C396 0.929 . S
H376 C405 0.930 . S
H377 C397 0.931 . S
O378 Co354 2.097 . S
O378 C406 1.214 . S
H379 C407 0.929 . S
H380 C408 0.929 . S
H381 C409 0.930 . S
H382 C410 0.929 . S
H383 C412 0.930 . S
H384 C389 0.930 . S
H385 C393 0.930 . S
O386 Co355 2.037 . S
O386 C406 1.234 . S
C387 O361 1.269 . S
C387 O362 1.257 . S
C388 H363 0.930 . S
C388 C391 1.388 . S
C388 C393 1.418 . S
C389 H384 0.930 . S
C389 C392 1.404 . S
C389 C393 1.353 . S
N390 Co355 2.145 . S
N390 C391 1.397 . S
N390 C392 1.334 . S
C391 H372 0.929 . S
C391 C388 1.388 . S
C391 N390 1.397 . S
C392 H373 0.929 . S
C392 C389 1.404 . S
C392 N390 1.334 . S
C393 H385 0.930 . S
C393 C388 1.418 . S
C393 C389 1.353 . S
C394 H364 0.930 . S
C394 N395 1.330 . S
C394 C396 1.446 . S
N395 Co354 2.151 . S
N395 C394 1.330 . S
N395 C399 1.418 . S
C396 H375 0.929 . S
C396 C394 1.446 . S
C396 C397 1.332 . S
C397 H377 0.931 . S
C397 C396 1.332 . S
C397 C398 1.267 . S
C398 H366 0.929 . S
C398 C397 1.267 . S
C398 C399 1.251 . S
C399 H369 0.929 . S
C399 N395 1.418 . S
C399 C398 1.251 . S
C400 H367 0.930 . S
C400 C402 1.406 . S
C400 C405 1.261 . S
C401 H368 0.930 . S
C401 N403 1.325 . S
C401 C404 1.357 . S
C402 H370 0.928 . S
C402 C400 1.406 . S
C402 N403 1.261 . S
N403 Co354 2.214 . S
N403 C401 1.325 . S
N403 C402 1.261 . S
C404 H374 0.931 . S
C404 C401 1.357 . S
C404 C405 1.312 . S
C405 H376 0.930 . S
C405 C400 1.261 . S
C405 C404 1.312 . S
C406 O378 1.214 . S
C406 O386 1.234 . S
C407 H379 0.929 . S
C407 C410 1.391 . S
C407 C412 1.391 . S
C408 H380 0.929 . S
C408 C409 1.390 . S
C408 N411 1.391 . S
C409 H381 0.930 . S
C409 C408 1.390 . S
C409 C410 1.392 . S
C410 H382 0.929 . S
C410 C407 1.391 . S
C410 C409 1.392 . S
N411 Co355 2.257 . S
N411 C408 1.391 . S
N411 C412 1.388 . S
C412 H383 0.930 . S
C412 C407 1.391 . S
C412 N411 1.388 . S
Co413 O415 2.143 . S
Co413 O421 2.074 . S
Co413 O424 2.093 . S
Co413 O437 2.097 . S
Co413 N454 2.151 . S
Co413 N462 2.214 . S
Co414 O415 2.160 . S
Co414 O420 2.058 . S
Co414 O430 2.057 . S
Co414 O445 2.037 . S
Co414 N449 2.145 . S
Co414 N470 2.257 . S
O415 Co413 2.143 . S
O415 Co414 2.160 . S
C416 O417 1.278 . S
C416 O424 1.224 . S
O417 C416 1.278 . S
C418 O419 1.245 . S
C418 O430 1.232 . S
O419 C418 1.245 . S
O420 Co414 2.058 . S
O420 C446 1.269 . S
O421 Co413 2.074 . S
O421 C446 1.257 . S
H422 C447 0.930 . S
H423 C453 0.930 . S
O424 Co413 2.093 . S
O424 C416 1.224 . S
H425 C457 0.929 . S
H426 C459 0.930 . S
H427 C460 0.930 . S
H428 C458 0.929 . S
H429 C461 0.928 . S
O430 Co414 2.057 . S
O430 C418 1.232 . S
H431 C450 0.929 . S
H432 C451 0.929 . S
H433 C463 0.931 . S
H434 C455 0.929 . S
H435 C464 0.930 . S
H436 C456 0.931 . S
O437 Co413 2.097 . S
O437 C465 1.214 . S
H438 C466 0.929 . S
H439 C467 0.929 . S
H440 C468 0.930 . S
H441 C469 0.929 . S
H442 C471 0.930 . S
H443 C448 0.930 . S
H444 C452 0.930 . S
O445 Co414 2.037 . S
O445 C465 1.234 . S
C446 O420 1.269 . S
C446 O421 1.257 . S
C447 H422 0.930 . S
C447 C450 1.388 . S
C447 C452 1.418 . S
C448 H443 0.930 . S
C448 C451 1.404 . S
C448 C452 1.353 . S
N449 Co414 2.145 . S
N449 C450 1.397 . S
N449 C451 1.334 . S
C450 H431 0.929 . S
C450 C447 1.388 . S
C450 N449 1.397 . S
C451 H432 0.929 . S
C451 C448 1.404 . S
C451 N449 1.334 . S
C452 H444 0.930 . S
C452 C447 1.418 . S
C452 C448 1.353 . S
C453 H423 0.930 . S
C453 N454 1.330 . S
C453 C455 1.446 . S
N454 Co413 2.151 . S
N454 C453 1.330 . S
N454 C458 1.418 . S
C455 H434 0.929 . S
C455 C453 1.446 . S
C455 C456 1.332 . S
C456 H436 0.931 . S
C456 C455 1.332 . S
C456 C457 1.267 . S
C457 H425 0.929 . S
C457 C456 1.267 . S
C457 C458 1.251 . S
C458 H428 0.929 . S
C458 N454 1.418 . S
C458 C457 1.251 . S
C459 H426 0.930 . S
C459 C461 1.406 . S
C459 C464 1.261 . S
C460 H427 0.930 . S
C460 N462 1.325 . S
C460 C463 1.357 . S
C461 H429 0.928 . S
C461 C459 1.406 . S
C461 N462 1.261 . S
N462 Co413 2.214 . S
N462 C460 1.325 . S
N462 C461 1.261 . S
C463 H433 0.931 . S
C463 C460 1.357 . S
C463 C464 1.312 . S
C464 H435 0.930 . S
C464 C459 1.261 . S
C464 C463 1.312 . S
C465 O437 1.214 . S
C465 O445 1.234 . S
C466 H438 0.929 . S
C466 C469 1.391 . S
C466 C471 1.391 . S
C467 H439 0.929 . S
C467 C468 1.390 . S
C467 N470 1.391 . S
C468 H440 0.930 . S
C468 C467 1.390 . S
C468 C469 1.392 . S
C469 H441 0.929 . S
C469 C466 1.391 . S
C469 C468 1.392 . S
N470 Co414 2.257 . S
N470 C467 1.391 . S
N470 C471 1.388 . S
C471 H442 0.930 . S
C471 C466 1.391 . S
C471 N470 1.388 . S
Co472 O474 2.143 . S
Co472 O480 2.074 . S
Co472 O483 2.093 . S
Co472 O496 2.097 . S
Co472 N513 2.151 . S
Co472 N521 2.214 . S
Co473 O474 2.160 . S
Co473 O479 2.058 . S
Co473 O489 2.057 . S
Co473 O504 2.037 . S
Co473 N508 2.145 . S
Co473 N529 2.257 . S
O474 Co472 2.143 . S
O474 Co473 2.160 . S
C475 O476 1.278 . S
C475 O483 1.224 . S
O476 C475 1.278 . S
C477 O478 1.245 . S
C477 O489 1.232 . S
O478 C477 1.245 . S
O479 Co473 2.058 . S
O479 C505 1.269 . S
O480 Co472 2.074 . S
O480 C505 1.257 . S
H481 C506 0.930 . S
H482 C512 0.930 . S
O483 Co472 2.093 . S
O483 C475 1.224 . S
H484 C516 0.929 . S
H485 C518 0.930 . S
H486 C519 0.930 . S
H487 C517 0.929 . S
H488 C520 0.928 . S
O489 Co473 2.057 . S
O489 C477 1.232 . S
H490 C509 0.929 . S
H491 C510 0.929 . S
H492 C522 0.931 . S
H493 C514 0.929 . S
H494 C523 0.930 . S
H495 C515 0.931 . S
O496 Co472 2.097 . S
O496 C524 1.214 . S
H497 C525 0.929 . S
H498 C526 0.929 . S
H499 C527 0.930 . S
H500 C528 0.929 . S
H501 C530 0.930 . S
H502 C507 0.930 . S
H503 C511 0.930 . S
O504 Co473 2.037 . S
O504 C524 1.234 . S
C505 O479 1.269 . S
C505 O480 1.257 . S
C506 H481 0.930 . S
C506 C509 1.388 . S
C506 C511 1.418 . S
C507 H502 0.930 . S
C507 C510 1.404 . S
C507 C511 1.353 . S
N508 Co473 2.145 . S
N508 C509 1.397 . S
N508 C510 1.334 . S
C509 H490 0.929 . S
C509 C506 1.388 . S
C509 N508 1.397 . S
C510 H491 0.929 . S
C510 C507 1.404 . S
C510 N508 1.334 . S
C511 H503 0.930 . S
C511 C506 1.418 . S
C511 C507 1.353 . S
C512 H482 0.930 . S
C512 N513 1.330 . S
C512 C514 1.446 . S
N513 Co472 2.151 . S
N513 C512 1.330 . S
N513 C517 1.418 . S
C514 H493 0.929 . S
C514 C512 1.446 . S
C514 C515 1.332 . S
C515 H495 0.931 . S
C515 C514 1.332 . S
C515 C516 1.267 . S
C516 H484 0.929 . S
C516 C515 1.267 . S
C516 C517 1.251 . S
C517 H487 0.929 . S
C517 N513 1.418 . S
C517 C516 1.251 . S
C518 H485 0.930 . S
C518 C520 1.406 . S
C518 C523 1.261 . S
C519 H486 0.930 . S
C519 N521 1.325 . S
C519 C522 1.357 . S
C520 H488 0.928 . S
C520 C518 1.406 . S
C520 N521 1.261 . S
N521 Co472 2.214 . S
N521 C519 1.325 . S
N521 C520 1.261 . S
C522 H492 0.931 . S
C522 C519 1.357 . S
C522 C523 1.312 . S
C523 H494 0.930 . S
C523 C518 1.261 . S
C523 C522 1.312 . S
C524 O496 1.214 . S
C524 O504 1.234 . S
C525 H497 0.929 . S
C525 C528 1.391 . S
C525 C530 1.391 . S
C526 H498 0.929 . S
C526 C527 1.390 . S
C526 N529 1.391 . S
C527 H499 0.930 . S
C527 C526 1.390 . S
C527 C528 1.392 . S
C528 H500 0.929 . S
C528 C525 1.391 . S
C528 C527 1.392 . S
N529 Co473 2.257 . S
N529 C526 1.391 . S
N529 C530 1.388 . S
C530 H501 0.930 . S
C530 C525 1.391 . S
C530 N529 1.388 . S
Co531 O533 2.143 . S
Co531 O539 2.074 . S
Co531 O542 2.093 . S
Co531 O555 2.097 . S
Co531 N572 2.151 . S
Co531 N580 2.214 . S
Co532 O533 2.160 . S
Co532 O538 2.058 . S
Co532 O548 2.057 . S
Co532 O563 2.037 . S
Co532 N567 2.145 . S
Co532 N588 2.257 . S
O533 Co531 2.143 . S
O533 Co532 2.160 . S
C534 O535 1.278 . S
C534 O542 1.224 . S
O535 C534 1.278 . S
C536 O537 1.245 . S
C536 O548 1.232 . S
O537 C536 1.245 . S
O538 Co532 2.058 . S
O538 C564 1.269 . S
O539 Co531 2.074 . S
O539 C564 1.257 . S
H540 C565 0.930 . S
H541 C571 0.930 . S
O542 Co531 2.093 . S
O542 C534 1.224 . S
H543 C575 0.929 . S
H544 C577 0.930 . S
H545 C578 0.930 . S
H546 C576 0.929 . S
H547 C579 0.928 . S
O548 Co532 2.057 . S
O548 C536 1.232 . S
H549 C568 0.929 . S
H550 C569 0.929 . S
H551 C581 0.931 . S
H552 C573 0.929 . S
H553 C582 0.930 . S
H554 C574 0.931 . S
O555 Co531 2.097 . S
O555 C583 1.214 . S
H556 C584 0.929 . S
H557 C585 0.929 1_554 S
H558 C586 0.930 1_554 S
H559 C587 0.929 . S
H560 C589 0.930 . S
H561 C566 0.930 . S
H562 C570 0.930 . S
O563 Co532 2.037 . S
O563 C583 1.234 . S
C564 O538 1.269 . S
C564 O539 1.257 . S
C565 H540 0.930 . S
C565 C568 1.388 . S
C565 C570 1.418 . S
C566 H561 0.930 . S
C566 C569 1.404 1_554 S
C566 C570 1.353 . S
N567 Co532 2.145 . S
N567 C568 1.397 1_556 S
N567 C569 1.334 . S
C568 H549 0.929 . S
C568 C565 1.388 . S
C568 N567 1.397 1_554 S
C569 H550 0.929 . S
C569 C566 1.404 1_556 S
C569 N567 1.334 . S
C570 H562 0.930 . S
C570 C565 1.418 . S
C570 C566 1.353 . S
C571 H541 0.930 . S
C571 N572 1.330 . S
C571 C573 1.446 . S
N572 Co531 2.151 . S
N572 C571 1.330 . S
N572 C576 1.418 . S
C573 H552 0.929 . S
C573 C571 1.446 . S
C573 C574 1.332 . S
C574 H554 0.931 . S
C574 C573 1.332 . S
C574 C575 1.267 . S
C575 H543 0.929 . S
C575 C574 1.267 . S
C575 C576 1.251 . S
C576 H546 0.929 . S
C576 N572 1.418 . S
C576 C575 1.251 . S
C577 H544 0.930 . S
C577 C579 1.406 . S
C577 C582 1.261 . S
C578 H545 0.930 . S
C578 N580 1.325 . S
C578 C581 1.357 . S
C579 H547 0.928 . S
C579 C577 1.406 . S
C579 N580 1.261 . S
N580 Co531 2.214 . S
N580 C578 1.325 . S
N580 C579 1.261 . S
C581 H551 0.931 . S
C581 C578 1.357 . S
C581 C582 1.312 . S
C582 H553 0.930 . S
C582 C577 1.261 . S
C582 C581 1.312 . S
C583 O555 1.214 . S
C583 O563 1.234 . S
C584 H556 0.929 . S
C584 C587 1.391 . S
C584 C589 1.391 . S
C585 H557 0.929 1_556 S
C585 C586 1.390 . S
C585 N588 1.391 . S
C586 H558 0.930 1_556 S
C586 C585 1.390 . S
C586 C587 1.392 . S
C587 H559 0.929 . S
C587 C584 1.391 . S
C587 C586 1.392 . S
N588 Co532 2.257 . S
N588 C585 1.391 . S
N588 C589 1.388 . S
C589 H560 0.930 . S
C589 C584 1.391 . S
C589 N588 1.388 . S
Co590 O592 2.143 . S
Co590 O598 2.074 . S
Co590 O601 2.093 . S
Co590 O614 2.097 . S
Co590 N631 2.151 1_554 S
Co590 N639 2.214 . S
Co591 O592 2.160 . S
Co591 O597 2.058 . S
Co591 O607 2.057 . S
Co591 O622 2.037 . S
Co591 N626 2.145 . S
Co591 N647 2.257 . S
O592 Co590 2.143 . S
O592 Co591 2.160 . S
C593 O594 1.278 1_556 S
C593 O601 1.224 1_556 S
O594 C593 1.278 1_554 S
C595 O596 1.245 . S
C595 O607 1.232 . S
O596 C595 1.245 . S
O597 Co591 2.058 . S
O597 C623 1.269 . S
O598 Co590 2.074 . S
O598 C623 1.257 . S
H599 C624 0.930 . S
H600 C630 0.930 . S
O601 Co590 2.093 . S
O601 C593 1.224 1_554 S
H602 C634 0.929 . S
H603 C636 0.930 . S
H604 C637 0.930 . S
H605 C635 0.929 1_554 S
H606 C638 0.908 1_556 S
O607 Co591 2.057 . S
O607 C595 1.232 . S
H608 C627 0.929 . S
H609 C628 0.929 . S
H610 C640 0.931 . S
H611 C632 0.929 . S
H612 C641 0.930 . S
H613 C633 0.931 . S
O614 Co590 2.097 . S
O614 C642 1.214 . S
H615 C643 0.929 . S
H616 C644 0.929 . S
H617 C645 0.930 . S
H618 C646 0.929 . S
H619 C648 0.930 . S
H620 C625 0.930 . S
H621 C629 0.930 . S
O622 Co591 2.037 . S
O622 C642 1.234 . S
C623 O597 1.269 . S
C623 O598 1.257 . S
C624 H599 0.930 . S
C624 C627 1.388 . S
C624 C629 1.418 . S
C625 H620 0.930 . S
C625 C628 1.404 . S
C625 C629 1.353 . S
N626 Co591 2.145 . S
N626 C627 1.397 . S
N626 C628 1.334 . S
C627 H608 0.929 . S
C627 C624 1.388 . S
C627 N626 1.397 . S
C628 H609 0.929 . S
C628 C625 1.404 . S
C628 N626 1.334 . S
C629 H621 0.930 . S
C629 C624 1.418 . S
C629 C625 1.353 . S
C630 H600 0.930 . S
C630 N631 1.330 . S
C630 C632 1.446 . S
N631 Co590 2.151 1_556 S
N631 C630 1.330 . S
N631 C635 1.418 . S
C632 H611 0.929 . S
C632 C630 1.446 . S
C632 C633 1.332 . S
C633 H613 0.931 . S
C633 C632 1.332 . S
C633 C634 1.267 . S
C634 H602 0.929 . S
C634 C633 1.267 . S
C634 C635 1.251 . S
C635 H605 0.929 1_556 S
C635 N631 1.418 . S
C635 C634 1.251 . S
C636 H603 0.930 . S
C636 C638 1.406 . S
C636 C641 1.261 . S
C637 H604 0.930 . S
C637 N639 1.325 . S
C637 C640 1.357 . S
C638 H606 0.908 1_554 S
C638 C636 1.406 . S
C638 N639 1.261 . S
N639 Co590 2.214 . S
N639 C637 1.325 . S
N639 C638 1.261 . S
C640 H610 0.931 . S
C640 C637 1.357 . S
C640 C641 1.312 . S
C641 H612 0.930 . S
C641 C636 1.261 . S
C641 C640 1.312 . S
C642 O614 1.214 . S
C642 O622 1.234 . S
C643 H615 0.929 . S
C643 C646 1.391 . S
C643 C648 1.391 . S
C644 H616 0.929 . S
C644 C645 1.390 . S
C644 N647 1.391 . S
C645 H617 0.930 . S
C645 C644 1.390 . S
C645 C646 1.392 . S
C646 H618 0.929 . S
C646 C643 1.391 . S
C646 C645 1.392 . S
N647 Co591 2.257 . S
N647 C644 1.391 . S
N647 C648 1.388 . S
C648 H619 0.930 . S
C648 C643 1.391 . S
C648 N647 1.388 . S
Co649 O651 2.143 . S
Co649 O657 2.074 . S
Co649 O660 2.093 . S
Co649 O673 2.097 . S
Co649 N690 2.151 . S
Co649 N698 2.214 . S
Co650 O651 2.160 . S
Co650 O656 2.058 . S
Co650 O666 2.057 . S
Co650 O681 2.037 . S
Co650 N685 2.145 . S
Co650 N706 2.257 . S
O651 Co649 2.143 . S
O651 Co650 2.160 . S
C652 O653 1.278 . S
C652 O660 1.224 . S
O653 C652 1.278 . S
C654 O655 1.245 . S
C654 O666 1.232 . S
O655 C654 1.245 . S
O656 Co650 2.058 . S
O656 C682 1.269 . S
O657 Co649 2.074 . S
O657 C682 1.257 . S
H658 C683 0.930 . S
H659 C689 0.930 . S
O660 Co649 2.093 . S
O660 C652 1.224 . S
H661 C693 0.929 . S
H662 C695 0.930 . S
H663 C696 0.930 . S
H664 C694 0.929 . S
H665 C697 0.928 . S
O666 Co650 2.057 . S
O666 C654 1.232 . S
H667 C686 0.929 . S
H668 C687 0.929 . S
H669 C699 0.931 . S
H670 C691 0.929 . S
H671 C700 0.930 . S
H672 C692 0.931 . S
O673 Co649 2.097 . S
O673 C701 1.214 . S
H674 C702 0.929 . S
H675 C703 0.929 . S
H676 C704 0.930 . S
H677 C705 0.929 . S
H678 C707 0.930 . S
H679 C684 0.930 . S
H680 C688 0.930 . S
O681 Co650 2.037 . S
O681 C701 1.234 . S
C682 O656 1.269 . S
C682 O657 1.257 . S
C683 H658 0.930 . S
C683 C686 1.388 . S
C683 C688 1.418 . S
C684 H679 0.930 . S
C684 C687 1.404 . S
C684 C688 1.353 . S
N685 Co650 2.145 . S
N685 C686 1.397 . S
N685 C687 1.334 . S
C686 H667 0.929 . S
C686 C683 1.388 . S
C686 N685 1.397 . S
C687 H668 0.929 . S
C687 C684 1.404 . S
C687 N685 1.334 . S
C688 H680 0.930 . S
C688 C683 1.418 . S
C688 C684 1.353 . S
C689 H659 0.930 . S
C689 N690 1.330 . S
C689 C691 1.446 . S
N690 Co649 2.151 . S
N690 C689 1.330 . S
N690 C694 1.418 . S
C691 H670 0.929 . S
C691 C689 1.446 . S
C691 C692 1.332 . S
C692 H672 0.931 . S
C692 C691 1.332 . S
C692 C693 1.267 . S
C693 H661 0.929 . S
C693 C692 1.267 . S
C693 C694 1.251 . S
C694 H664 0.929 . S
C694 N690 1.418 . S
C694 C693 1.251 . S
C695 H662 0.930 . S
C695 C697 1.406 . S
C695 C700 1.261 . S
C696 H663 0.930 . S
C696 N698 1.325 . S
C696 C699 1.357 . S
C697 H665 0.928 . S
C697 C695 1.406 . S
C697 N698 1.261 . S
N698 Co649 2.214 . S
N698 C696 1.325 . S
N698 C697 1.261 . S
C699 H669 0.931 . S
C699 C696 1.357 . S
C699 C700 1.312 . S
C700 H671 0.930 . S
C700 C695 1.261 . S
C700 C699 1.312 . S
C701 O673 1.214 . S
C701 O681 1.234 . S
C702 H674 0.929 . S
C702 C705 1.391 . S
C702 C707 1.391 . S
C703 H675 0.929 . S
C703 C704 1.390 . S
C703 N706 1.391 . S
C704 H676 0.930 . S
C704 C703 1.390 . S
C704 C705 1.392 . S
C705 H677 0.929 . S
C705 C702 1.391 . S
C705 C704 1.392 . S
N706 Co650 2.257 . S
N706 C703 1.391 . S
N706 C707 1.388 . S
C707 H678 0.930 . S
C707 C702 1.391 . S
C707 N706 1.388 . S
C708 C709 1.349 . S
C708 C710 1.327 . S
C708 H733 0.950 . S
C709 C708 1.349 . S
C709 C725 1.349 . S
C710 C708 1.327 . S
C710 C729 1.429 . S
C710 H734 0.950 . S
C711 C728 1.574 . S
C711 C730 1.368 . S
C711 H735 0.949 . S
H712 C716 0.949 . S
C713 C714 1.349 . S
C713 C715 1.327 . S
C713 H736 0.950 . S
C714 C713 1.349 . S
C714 C726 1.349 . S
C715 C713 1.327 . S
C715 C731 1.429 . S
C715 H737 0.950 . S
C716 H712 0.949 . S
C716 C724 1.574 . S
C716 C732 1.368 . S
H717 C725 0.950 1_556 S
H718 C723 0.950 . S
H719 C724 0.949 . S
H720 C726 0.950 . S
H721 C727 0.950 . S
H722 C728 0.949 . S
C723 H718 0.950 . S
C723 C725 1.327 . S
C723 C729 1.429 . S
C724 C716 1.574 . S
C724 H719 0.949 . S
C724 C730 1.368 . S
C725 C709 1.349 . S
C725 H717 0.950 1_554 S
C725 C723 1.327 . S
C726 C714 1.349 . S
C726 H720 0.950 . S
C726 C727 1.327 . S
C727 H721 0.950 . S
C727 C726 1.327 . S
C727 C731 1.429 . S
C728 C711 1.574 . S
C728 H722 0.949 . S
C728 C732 1.368 . S
C729 C710 1.429 . S
C729 C723 1.429 . S
C729 C730 1.523 . S
C730 C711 1.368 . S
C730 C724 1.368 . S
C730 C729 1.523 . S
C731 C715 1.429 . S
C731 C727 1.429 . S
C731 C732 1.523 . S
C732 C716 1.368 . S
C732 C728 1.368 . S
C732 C731 1.523 . S
H733 C708 0.950 . S
H734 C710 0.950 . S
H735 C711 0.949 . S
H736 C713 0.950 . S
H737 C715 0.950 . S
C738 C739 1.349 . S
C738 C740 1.327 . S
C738 H763 0.950 . S
C739 C738 1.349 . S
C739 C755 1.349 . S
C740 C738 1.327 . S
C740 C759 1.429 . S
C740 H764 0.950 . S
C741 C758 1.574 . S
C741 C760 1.368 . S
C741 H765 0.949 . S
H742 C746 0.949 . S
C743 C744 1.349 . S
C743 C745 1.327 . S
C743 H766 0.950 . S
C744 C743 1.349 . S
C744 C756 1.349 . S
C745 C743 1.327 . S
C745 C761 1.429 . S
C745 H767 0.950 . S
C746 H742 0.949 . S
C746 C754 1.574 . S
C746 C762 1.368 . S
H747 C755 0.950 . S
H748 C753 0.950 . S
H749 C754 0.949 . S
H750 C756 0.950 . S
H751 C757 0.950 . S
H752 C758 0.949 . S
C753 H748 0.950 . S
C753 C755 1.327 . S
C753 C759 1.429 . S
C754 C746 1.574 . S
C754 H749 0.949 . S
C754 C760 1.368 1_655 S
C755 C739 1.349 . S
C755 H747 0.950 . S
C755 C753 1.327 . S
C756 C744 1.349 . S
C756 H750 0.950 . S
C756 C757 1.327 . S
C757 H751 0.950 . S
C757 C756 1.327 . S
C757 C761 1.429 . S
C758 C741 1.574 . S
C758 H752 0.949 . S
C758 C762 1.368 1_455 S
C759 C740 1.429 . S
C759 C753 1.429 . S
C759 C760 1.523 . S
C760 C741 1.368 . S
C760 C754 1.368 1_455 S
C760 C759 1.523 . S
C761 C745 1.429 . S
C761 C757 1.429 . S
C761 C762 1.523 . S
C762 C746 1.368 . S
C762 C758 1.368 1_655 S
C762 C761 1.523 . S
H763 C738 0.950 . S
H764 C740 0.950 . S
H765 C741 0.949 . S
H766 C743 0.950 . S
H767 C745 0.950 . S
C768 C769 1.349 . S
C768 C770 1.327 . S
C768 H793 0.950 . S
C769 C768 1.349 . S
C769 C785 1.349 . S
C770 C768 1.327 . S
C770 C789 1.429 . S
C770 H794 0.950 . S
C771 C788 1.574 . S
C771 C790 1.368 . S
C771 H795 0.949 . S
H772 C776 0.949 . S
C773 C774 1.349 . S
C773 C775 1.327 . S
C773 H796 0.950 . S
C774 C773 1.349 . S
C774 C786 1.349 . S
C775 C773 1.327 . S
C775 C791 1.429 . S
C775 H797 0.950 . S
C776 H772 0.949 . S
C776 C784 1.574 . S
C776 C792 1.368 . S
H777 C785 0.950 . S
H778 C783 0.950 . S
H779 C784 0.949 . S
H780 C786 0.950 . S
H781 C787 0.950 . S
H782 C788 0.949 . S
C783 H778 0.950 . S
C783 C785 1.327 . S
C783 C789 1.429 . S
C784 C776 1.574 . S
C784 H779 0.949 . S
C784 C790 1.368 1_545 S
C785 C769 1.349 . S
C785 H777 0.950 . S
C785 C783 1.327 . S
C786 C774 1.349 . S
C786 H780 0.950 . S
C786 C787 1.327 . S
C787 H781 0.950 . S
C787 C786 1.327 . S
C787 C791 1.429 . S
C788 C771 1.574 . S
C788 H782 0.949 . S
C788 C792 1.368 1_565 S
C789 C770 1.429 . S
C789 C783 1.429 . S
C789 C790 1.523 . S
C790 C771 1.368 . S
C790 C784 1.368 1_565 S
C790 C789 1.523 . S
C791 C775 1.429 . S
C791 C787 1.429 . S
C791 C792 1.523 . S
C792 C776 1.368 . S
C792 C788 1.368 1_545 S
C792 C791 1.523 . S
H793 C768 0.950 . S
H794 C770 0.950 . S
H795 C771 0.949 . S
H796 C773 0.950 . S
H797 C775 0.950 . S
C798 C799 1.349 . S
C798 C800 1.327 . S
C798 H823 0.950 . S
C799 C798 1.349 . S
C799 C815 1.349 . S
C800 C798 1.327 . S
C800 C819 1.429 . S
C800 H824 0.950 . S
C801 C818 1.574 . S
C801 C820 1.368 . S
C801 H825 0.949 . S
H802 C806 0.949 . S
C803 C804 1.349 . S
C803 C805 1.327 . S
C803 H826 0.950 . S
C804 C803 1.349 . S
C804 C816 1.349 . S
C805 C803 1.327 . S
C805 C821 1.429 . S
C805 H827 0.950 . S
C806 H802 0.949 . S
C806 C814 1.574 . S
C806 C822 1.368 . S
H807 C815 0.950 . S
H808 C813 0.950 . S
H809 C814 0.949 . S
H810 C816 0.950 . S
H811 C817 0.950 . S
H812 C818 0.949 . S
C813 H808 0.950 . S
C813 C815 1.327 . S
C813 C819 1.429 . S
C814 C806 1.574 . S
C814 H809 0.949 . S
C814 C820 1.368 . S
C815 C799 1.349 . S
C815 H807 0.950 . S
C815 C813 1.327 . S
C816 C804 1.349 . S
C816 H810 0.950 . S
C816 C817 1.327 . S
C817 H811 0.950 . S
C817 C816 1.327 . S
C817 C821 1.429 . S
C818 C801 1.574 . S
C818 H812 0.949 . S
C818 C822 1.368 . S
C819 C800 1.429 . S
C819 C813 1.429 . S
C819 C820 1.523 . S
C820 C801 1.368 . S
C820 C814 1.368 . S
C820 C819 1.523 . S
C821 C805 1.429 . S
C821 C817 1.429 . S
C821 C822 1.523 . S
C822 C806 1.368 . S
C822 C818 1.368 . S
C822 C821 1.523 . S
H823 C798 0.950 . S
H824 C800 0.950 . S
H825 C801 0.949 . S
H826 C803 0.950 . S
H827 C805 0.950 . S
C828 C829 1.349 . S
C828 C830 1.327 . S
C828 H853 0.950 . S
C829 C828 1.349 . S
C829 C845 1.349 . S
C830 C828 1.327 . S
C830 C849 1.429 . S
C830 H854 0.950 . S
C831 C848 1.574 1_455 S
C831 C850 1.368 . S
C831 H855 0.949 . S
H832 C836 0.949 . S
C833 C834 1.349 . S
C833 C835 1.327 . S
C833 H856 0.950 . S
C834 C833 1.349 . S
C834 C846 1.349 . S
C835 C833 1.327 . S
C835 C851 1.429 . S
C835 H857 0.950 . S
C836 H832 0.949 . S
C836 C844 1.574 1_655 S
C836 C852 1.368 . S
H837 C845 0.950 . S
H838 C843 0.950 . S
H839 C844 0.949 . S
H840 C846 0.950 . S
H841 C847 0.950 . S
H842 C848 0.949 . S
C843 H838 0.950 . S
C843 C845 1.327 . S
C843 C849 1.429 . S
C844 C836 1.574 1_455 S
C844 H839 0.949 . S
C844 C850 1.368 . S
C845 C829 1.349 . S
C845 H837 0.950 . S
C845 C843 1.327 . S
C846 C834 1.349 . S
C846 H840 0.950 . S
C846 C847 1.327 . S
C847 H841 0.950 . S
C847 C846 1.327 . S
C847 C851 1.429 . S
C848 C831 1.574 1_655 S
C848 H842 0.949 . S
C848 C852 1.368 . S
C849 C830 1.429 . S
C849 C843 1.429 . S
C849 C850 1.523 . S
C850 C831 1.368 . S
C850 C844 1.368 . S
C850 C849 1.523 . S
C851 C835 1.429 . S
C851 C847 1.429 . S
C851 C852 1.523 . S
C852 C836 1.368 . S
C852 C848 1.368 . S
C852 C851 1.523 . S
H853 C828 0.950 . S
H854 C830 0.950 . S
H855 C831 0.949 . S
H856 C833 0.950 . S
H857 C835 0.950 . S
C858 C859 1.349 . S
C858 C860 1.327 . S
C858 H883 0.950 . S
C859 C858 1.349 . S
C859 C875 1.349 . S
C860 C858 1.327 . S
C860 C879 1.429 . S
C860 H884 0.950 . S
C861 C878 1.561 1_546 S
C861 C880 1.389 . S
C861 H885 0.963 . S
H862 C866 0.963 . S
C863 C864 1.349 . S
C863 C865 1.327 . S
C863 H886 0.950 . S
C864 C863 1.349 . S
C864 C876 1.349 . S
C865 C863 1.327 . S
C865 C881 1.429 . S
C865 H887 0.950 . S
C866 H862 0.963 . S
C866 C874 1.561 1_564 S
C866 C882 1.389 . S
H867 C875 0.950 . S
H868 C873 0.950 . S
H869 C874 0.949 . S
H870 C876 0.950 . S
H871 C877 0.950 . S
H872 C878 0.949 . S
C873 H868 0.950 . S
C873 C875 1.327 . S
C873 C879 1.429 . S
C874 C866 1.561 1_546 S
C874 H869 0.949 . S
C874 C880 1.368 . S
C875 C859 1.349 . S
C875 H867 0.950 . S
C875 C873 1.327 . S
C876 C864 1.349 . S
C876 H870 0.950 . S
C876 C877 1.327 . S
C877 H871 0.950 . S
C877 C876 1.327 . S
C877 C881 1.429 . S
C878 C861 1.561 1_564 S
C878 H872 0.949 . S
C878 C882 1.368 . S
C879 C860 1.429 . S
C879 C873 1.429 . S
C879 C880 1.523 . S
C880 C861 1.389 . S
C880 C874 1.368 . S
C880 C879 1.523 . S
C881 C865 1.429 . S
C881 C877 1.429 . S
C881 C882 1.523 . S
C882 C866 1.389 . S
C882 C878 1.368 . S
C882 C881 1.523 . S
H883 C858 0.950 . S
H884 C860 0.950 . S
H885 C861 0.963 . S
H886 C863 0.950 . S
H887 C865 0.950 . S
C888 C889 1.349 . S
C888 C890 1.327 . S
C888 H913 0.950 . S
C889 C888 1.349 . S
C889 C905 1.349 . S
C890 C888 1.327 . S
C890 C909 1.429 . S
C890 H914 0.950 . S
C891 C908 1.574 . S
C891 C910 1.368 . S
C891 H915 0.949 . S
H892 C896 0.949 . S
C893 C894 1.349 . S
C893 C895 1.327 . S
C893 H916 0.950 . S
C894 C893 1.349 . S
C894 C906 1.349 . S
C895 C893 1.327 . S
C895 C911 1.429 . S
C895 H917 0.950 . S
C896 H892 0.949 . S
C896 C904 1.574 . S
C896 C912 1.368 . S
H897 C905 0.950 . S
H898 C903 0.950 . S
H899 C904 0.949 . S
H900 C906 0.950 . S
H901 C907 0.950 . S
H902 C908 0.949 . S
C903 H898 0.950 . S
C903 C905 1.327 . S
C903 C909 1.429 . S
C904 C896 1.574 . S
C904 H899 0.949 . S
C904 C910 1.368 . S
C905 C889 1.349 . S
C905 H897 0.950 . S
C905 C903 1.327 . S
C906 C894 1.349 . S
C906 H900 0.950 . S
C906 C907 1.327 . S
C907 H901 0.950 . S
C907 C906 1.327 . S
C907 C911 1.429 . S
C908 C891 1.574 . S
C908 H902 0.949 . S
C908 C912 1.368 . S
C909 C890 1.429 . S
C909 C903 1.429 . S
C909 C910 1.523 . S
C910 C891 1.368 . S
C910 C904 1.368 . S
C910 C909 1.523 . S
C911 C895 1.429 . S
C911 C907 1.429 . S
C911 C912 1.523 . S
C912 C896 1.368 . S
C912 C908 1.368 . S
C912 C911 1.523 . S
H913 C888 0.950 . S
H914 C890 0.950 . S
H915 C891 0.949 . S
H916 C893 0.950 . S
H917 C895 0.950 . S
C918 C919 1.349 . S
C918 C920 1.327 . S
C918 H943 0.950 . S
C919 C918 1.349 . S
C919 C935 1.349 . S
C920 C918 1.327 . S
C920 C939 1.429 . S
C920 H944 0.950 . S
C921 C938 1.574 . S
C921 C940 1.368 . S
C921 H945 0.949 . S
H922 C926 0.949 . S
C923 C924 1.349 . S
C923 C925 1.327 . S
C923 H946 0.950 . S
C924 C923 1.349 . S
C924 C936 1.349 . S
C925 C923 1.327 . S
C925 C941 1.429 . S
C925 H947 0.950 . S
C926 H922 0.949 . S
C926 C934 1.574 . S
C926 C942 1.368 . S
H927 C935 0.950 . S
H928 C933 0.950 . S
H929 C934 0.949 . S
H930 C936 0.950 . S
H931 C937 0.950 . S
H932 C938 0.949 . S
C933 H928 0.950 . S
C933 C935 1.327 . S
C933 C939 1.429 . S
C934 C926 1.574 . S
C934 H929 0.949 . S
C934 C940 1.368 . S
C935 C919 1.349 . S
C935 H927 0.950 . S
C935 C933 1.327 . S
C936 C924 1.349 . S
C936 H930 0.950 . S
C936 C937 1.327 . S
C937 H931 0.950 . S
C937 C936 1.327 . S
C937 C941 1.429 . S
C938 C921 1.574 . S
C938 H932 0.949 . S
C938 C942 1.368 . S
C939 C920 1.429 . S
C939 C933 1.429 . S
C939 C940 1.523 . S
C940 C921 1.368 . S
C940 C934 1.368 . S
C940 C939 1.523 . S
C941 C925 1.429 . S
C941 C937 1.429 . S
C941 C942 1.523 . S
C942 C926 1.368 . S
C942 C938 1.368 . S
C942 C941 1.523 . S
H943 C918 0.950 . S
H944 C920 0.950 . S
H945 C921 0.949 . S
H946 C923 0.950 . S
H947 C925 0.950 . S
C948 C949 1.349 . S
C948 C950 1.327 . S
C948 H973 0.950 . S
C949 C948 1.349 . S
C949 C965 1.349 . S
C950 C948 1.327 . S
C950 C969 1.429 . S
C950 H974 0.950 . S
C951 C968 1.574 . S
C951 C970 1.368 . S
C951 H975 0.949 . S
H952 C956 0.949 . S
C953 C954 1.349 . S
C953 C955 1.327 . S
C953 H976 0.950 . S
C954 C953 1.349 . S
C954 C966 1.349 . S
C955 C953 1.327 . S
C955 C971 1.429 . S
C955 H977 0.950 . S
C956 H952 0.949 . S
C956 C964 1.574 . S
C956 C972 1.368 . S
H957 C965 0.950 . S
H958 C963 0.950 . S
H959 C964 0.949 . S
H960 C966 0.950 . S
H961 C967 0.950 . S
H962 C968 0.949 . S
C963 H958 0.950 . S
C963 C965 1.327 . S
C963 C969 1.429 . S
C964 C956 1.574 . S
C964 H959 0.949 . S
C964 C970 1.368 . S
C965 C949 1.349 . S
C965 H957 0.950 . S
C965 C963 1.327 . S
C966 C954 1.349 . S
C966 H960 0.950 . S
C966 C967 1.327 . S
C967 H961 0.950 . S
C967 C966 1.327 . S
C967 C971 1.429 . S
C968 C951 1.574 . S
C968 H962 0.949 . S
C968 C972 1.368 . S
C969 C950 1.429 . S
C969 C963 1.429 . S
C969 C970 1.523 . S
C970 C951 1.368 . S
C970 C964 1.368 . S
C970 C969 1.523 . S
C971 C955 1.429 . S
C971 C967 1.429 . S
C971 C972 1.523 . S
C972 C956 1.368 . S
C972 C968 1.368 . S
C972 C971 1.523 . S
H973 C948 0.950 . S
H974 C950 0.950 . S
H975 C951 0.949 . S
H976 C953 0.950 . S
H977 C955 0.950 . S
C978 C979 1.349 . S
C978 C980 1.327 . S
C978 H1003 0.950 . S
C979 C978 1.349 . S
C979 C995 1.349 . S
C980 C978 1.327 . S
C980 C999 1.429 . S
C980 H1004 0.950 . S
C981 C998 1.574 . S
C981 C1000 1.368 . S
C981 H1005 0.949 . S
H982 C986 0.949 . S
C983 C984 1.349 . S
C983 C985 1.327 . S
C983 H1006 0.950 . S
C984 C983 1.349 . S
C984 C996 1.349 . S
C985 C983 1.327 . S
C985 C1001 1.429 . S
C985 H1007 0.950 . S
C986 H982 0.949 . S
C986 C994 1.574 . S
C986 C1002 1.368 . S
H987 C995 0.950 . S
H988 C993 0.950 . S
H989 C994 0.949 . S
H990 C996 0.950 . S
H991 C997 0.950 . S
H992 C998 0.949 . S
C993 H988 0.950 . S
C993 C995 1.327 . S
C993 C999 1.429 . S
C994 C986 1.574 . S
C994 H989 0.949 . S
C994 C1000 1.368 . S
C995 C979 1.349 . S
C995 H987 0.950 . S
C995 C993 1.327 . S
C996 C984 1.349 . S
C996 H990 0.950 . S
C996 C997 1.327 . S
C997 H991 0.950 . S
C997 C996 1.327 . S
C997 C1001 1.429 . S
C998 C981 1.574 . S
C998 H992 0.949 . S
C998 C1002 1.368 . S
C999 C980 1.429 . S
C999 C993 1.429 . S
C999 C1000 1.523 . S
C1000 C981 1.368 . S
C1000 C994 1.368 . S
C1000 C999 1.523 . S
C1001 C985 1.429 . S
C1001 C997 1.429 . S
C1001 C1002 1.523 . S
C1002 C986 1.368 . S
C1002 C998 1.368 . S
C1002 C1001 1.523 . S
H1003 C978 0.950 . S
H1004 C980 0.950 . S
H1005 C981 0.949 . S
H1006 C983 0.950 . S
H1007 C985 0.950 . S
C1008 C1009 1.349 . S
C1008 C1010 1.327 . S
C1008 H1033 0.950 . S
C1009 C1008 1.349 . S
C1009 C1025 1.349 . S
C1010 C1008 1.327 . S
C1010 C1029 1.429 . S
C1010 H1034 0.950 . S
C1011 C1028 1.574 . S
C1011 C1030 1.368 . S
C1011 H1035 0.949 . S
H1012 C1016 0.949 . S
C1013 C1014 1.349 . S
C1013 C1015 1.327 . S
C1013 H1036 0.950 . S
C1014 C1013 1.349 . S
C1014 C1026 1.349 . S
C1015 C1013 1.327 . S
C1015 C1031 1.429 . S
C1015 H1037 0.950 . S
C1016 H1012 0.949 . S
C1016 C1024 1.574 . S
C1016 C1032 1.368 . S
H1017 C1025 0.950 . S
H1018 C1023 0.950 . S
H1019 C1024 0.949 . S
H1020 C1026 0.950 . S
H1021 C1027 0.950 . S
H1022 C1028 0.949 . S
C1023 H1018 0.950 . S
C1023 C1025 1.327 . S
C1023 C1029 1.429 . S
C1024 C1016 1.574 . S
C1024 H1019 0.949 . S
C1024 C1030 1.368 . S
C1025 C1009 1.349 . S
C1025 H1017 0.950 . S
C1025 C1023 1.327 . S
C1026 C1014 1.349 . S
C1026 H1020 0.950 . S
C1026 C1027 1.327 . S
C1027 H1021 0.950 . S
C1027 C1026 1.327 . S
C1027 C1031 1.429 . S
C1028 C1011 1.574 . S
C1028 H1022 0.949 . S
C1028 C1032 1.368 . S
C1029 C1010 1.429 . S
C1029 C1023 1.429 . S
C1029 C1030 1.523 . S
C1030 C1011 1.368 . S
C1030 C1024 1.368 . S
C1030 C1029 1.523 . S
C1031 C1015 1.429 . S
C1031 C1027 1.429 . S
C1031 C1032 1.523 . S
C1032 C1016 1.368 . S
C1032 C1028 1.368 . S
C1032 C1031 1.523 . S
H1033 C1008 0.950 . S
H1034 C1010 0.950 . S
H1035 C1011 0.949 . S
H1036 C1013 0.950 . S
H1037 C1015 0.950 . S
C1038 C1039 1.349 . S
C1038 C1040 1.327 . S
C1038 H1063 0.950 . S
C1039 C1038 1.349 . S
C1039 C1055 1.349 . S
C1040 C1038 1.327 . S
C1040 C1059 1.429 . S
C1040 H1064 0.950 . S
C1041 C1058 1.574 . S
C1041 C1060 1.368 . S
C1041 H1065 0.949 . S
H1042 C1046 0.949 . S
C1043 C1044 1.349 . S
C1043 C1045 1.327 . S
C1043 H1066 0.950 . S
C1044 C1043 1.349 . S
C1044 C1056 1.349 . S
C1045 C1043 1.327 . S
C1045 C1061 1.429 . S
C1045 H1067 0.950 . S
C1046 H1042 0.949 . S
C1046 C1054 1.574 . S
C1046 C1062 1.368 . S
H1047 C1055 0.950 . S
H1048 C1053 0.950 . S
H1049 C1054 0.949 . S
H1050 C1056 0.950 . S
H1051 C1057 0.950 . S
H1052 C1058 0.949 . S
C1053 H1048 0.950 . S
C1053 C1055 1.327 . S
C1053 C1059 1.429 . S
C1054 C1046 1.574 . S
C1054 H1049 0.949 . S
C1054 C1060 1.368 . S
C1055 C1039 1.349 . S
C1055 H1047 0.950 . S
C1055 C1053 1.327 . S
C1056 C1044 1.349 . S
C1056 H1050 0.950 . S
C1056 C1057 1.327 . S
C1057 H1051 0.950 . S
C1057 C1056 1.327 . S
C1057 C1061 1.429 . S
C1058 C1041 1.574 . S
C1058 H1052 0.949 . S
C1058 C1062 1.368 . S
C1059 C1040 1.429 . S
C1059 C1053 1.429 . S
C1059 C1060 1.523 . S
C1060 C1041 1.368 . S
C1060 C1054 1.368 . S
C1060 C1059 1.523 . S
C1061 C1045 1.429 . S
C1061 C1057 1.429 . S
C1061 C1062 1.523 . S
C1062 C1046 1.368 . S
C1062 C1058 1.368 . S
C1062 C1061 1.523 . S
H1063 C1038 0.950 . S
H1064 C1040 0.950 . S
H1065 C1041 0.949 . S
H1066 C1043 0.950 . S
H1067 C1045 0.950 . S
C1068 C1069 1.349 . S
C1068 C1070 1.327 . S
C1068 H1093 0.950 . S
C1069 C1068 1.349 . S
C1069 C1085 1.349 . S
C1070 C1068 1.327 . S
C1070 C1089 1.429 . S
C1070 H1094 0.950 . S
C1071 C1088 1.574 . S
C1071 C1090 1.368 . S
C1071 H1095 0.949 . S
H1072 C1076 0.949 . S
C1073 C1074 1.349 . S
C1073 C1075 1.327 . S
C1073 H1096 0.950 . S
C1074 C1073 1.349 . S
C1074 C1086 1.349 . S
C1075 C1073 1.327 . S
C1075 C1091 1.429 . S
C1075 H1097 0.950 . S
C1076 H1072 0.949 . S
C1076 C1084 1.574 . S
C1076 C1092 1.368 . S
H1077 C1085 0.950 . S
H1078 C1083 0.950 . S
H1079 C1084 0.949 . S
H1080 C1086 0.950 . S
H1081 C1087 0.950 . S
H1082 C1088 0.949 . S
C1083 H1078 0.950 . S
C1083 C1085 1.327 . S
C1083 C1089 1.429 . S
C1084 C1076 1.574 . S
C1084 H1079 0.949 . S
C1084 C1090 1.368 . S
C1085 C1069 1.349 . S
C1085 H1077 0.950 . S
C1085 C1083 1.327 . S
C1086 C1074 1.349 . S
C1086 H1080 0.950 . S
C1086 C1087 1.327 . S
C1087 H1081 0.950 . S
C1087 C1086 1.327 . S
C1087 C1091 1.429 . S
C1088 C1071 1.574 . S
C1088 H1082 0.949 . S
C1088 C1092 1.368 . S
C1089 C1070 1.429 . S
C1089 C1083 1.429 . S
C1089 C1090 1.523 . S
C1090 C1071 1.368 . S
C1090 C1084 1.368 . S
C1090 C1089 1.523 . S
C1091 C1075 1.429 . S
C1091 C1087 1.429 . S
C1091 C1092 1.523 . S
C1092 C1076 1.368 . S
C1092 C1088 1.368 . S
C1092 C1091 1.523 . S
H1093 C1068 0.950 . S
H1094 C1070 0.950 . S
H1095 C1071 0.949 . S
H1096 C1073 0.950 . S
H1097 C1075 0.950 . S
C1098 C1099 1.349 . S
C1098 C1100 1.327 . S
C1098 H1123 0.950 1_556 S
C1099 C1098 1.349 . S
C1099 C1115 1.349 . S
C1100 C1098 1.327 . S
C1100 C1119 1.429 . S
C1100 H1124 0.950 . S
C1101 C1118 1.574 . S
C1101 C1120 1.368 . S
C1101 H1125 0.949 . S
H1102 C1106 0.949 . S
C1103 C1104 1.349 . S
C1103 C1105 1.327 . S
C1103 H1126 0.950 . S
C1104 C1103 1.349 . S
C1104 C1116 1.349 . S
C1105 C1103 1.327 . S
C1105 C1121 1.429 . S
C1105 H1127 0.950 . S
C1106 H1102 0.949 . S
C1106 C1114 1.574 . S
C1106 C1122 1.368 . S
H1107 C1115 0.950 . S
H1108 C1113 0.950 . S
H1109 C1114 0.949 . S
H1110 C1116 0.950 . S
H1111 C1117 0.950 . S
H1112 C1118 0.949 . S
C1113 H1108 0.950 . S
C1113 C1115 1.327 . S
C1113 C1119 1.429 . S
C1114 C1106 1.574 . S
C1114 H1109 0.949 . S
C1114 C1120 1.368 1_455 S
C1115 C1099 1.349 . S
C1115 H1107 0.950 . S
C1115 C1113 1.327 . S
C1116 C1104 1.349 . S
C1116 H1110 0.950 . S
C1116 C1117 1.327 . S
C1117 H1111 0.950 . S
C1117 C1116 1.327 . S
C1117 C1121 1.429 . S
C1118 C1101 1.574 . S
C1118 H1112 0.949 . S
C1118 C1122 1.368 1_655 S
C1119 C1100 1.429 . S
C1119 C1113 1.429 . S
C1119 C1120 1.523 . S
C1120 C1101 1.368 . S
C1120 C1114 1.368 1_655 S
C1120 C1119 1.523 . S
C1121 C1105 1.429 . S
C1121 C1117 1.429 . S
C1121 C1122 1.523 . S
C1122 C1106 1.368 . S
C1122 C1118 1.368 1_455 S
C1122 C1121 1.523 . S
H1123 C1098 0.950 1_554 S
H1124 C1100 0.950 . S
H1125 C1101 0.949 . S
H1126 C1103 0.950 . S
H1127 C1105 0.950 . S
C1128 C1129 1.349 . S
C1128 C1130 1.327 . S
C1128 H1153 0.950 . S
C1129 C1128 1.349 . S
C1129 C1145 1.349 . S
C1130 C1128 1.327 . S
C1130 C1149 1.429 . S
C1130 H1154 0.950 . S
C1131 C1148 1.591 1_554 S
C1131 C1150 1.363 1_545 S
C1131 H1155 0.949 . S
H1132 C1136 0.949 . S
C1133 C1134 1.349 . S
C1133 C1135 1.327 . S
C1133 H1156 0.950 . S
C1134 C1133 1.349 . S
C1134 C1146 1.349 . S
C1135 C1133 1.327 . S
C1135 C1151 1.429 . S
C1135 H1157 0.950 . S
C1136 H1132 0.949 . S
C1136 C1144 1.591 1_556 S
C1136 C1152 1.363 1_565 S
H1137 C1145 0.950 . S
H1138 C1143 0.950 . S
H1139 C1144 0.949 . S
H1140 C1146 0.950 . S
H1141 C1147 0.950 . S
H1142 C1148 0.949 . S
C1143 H1138 0.950 . S
C1143 C1145 1.327 . S
C1143 C1149 1.429 . S
C1144 C1136 1.591 1_554 S
C1144 H1139 0.949 . S
C1144 C1150 1.368 . S
C1145 C1129 1.349 . S
C1145 H1137 0.950 . S
C1145 C1143 1.327 . S
C1146 C1134 1.349 . S
C1146 H1140 0.950 . S
C1146 C1147 1.327 . S
C1147 H1141 0.950 . S
C1147 C1146 1.327 . S
C1147 C1151 1.429 . S
C1148 C1131 1.591 1_556 S
C1148 H1142 0.949 . S
C1148 C1152 1.368 . S
C1149 C1130 1.429 . S
C1149 C1143 1.429 . S
C1149 C1150 1.523 . S
C1150 C1131 1.363 1_565 S
C1150 C1144 1.368 . S
C1150 C1149 1.523 . S
C1151 C1135 1.429 . S
C1151 C1147 1.429 . S
C1151 C1152 1.523 . S
C1152 C1136 1.363 1_545 S
C1152 C1148 1.368 . S
C1152 C1151 1.523 . S
H1153 C1128 0.950 . S
H1154 C1130 0.950 . S
H1155 C1131 0.949 . S
H1156 C1133 0.950 . S
H1157 C1135 0.950 . S
C1158 C1159 1.349 . S
C1158 C1160 1.327 . S
C1158 H1183 0.950 1_554 S
C1159 C1158 1.349 . S
C1159 C1175 1.349 . S
C1160 C1158 1.327 . S
C1160 C1179 1.429 . S
C1160 H1184 0.950 . S
C1161 C1178 1.574 . S
C1161 C1180 1.368 . S
C1161 H1185 0.949 . S
H1162 C1166 0.949 . S
C1163 C1164 1.349 . S
C1163 C1165 1.327 . S
C1163 H1186 0.950 . S
C1164 C1163 1.349 . S
C1164 C1176 1.349 . S
C1165 C1163 1.327 . S
C1165 C1181 1.429 . S
C1165 H1187 0.950 . S
C1166 H1162 0.949 . S
C1166 C1174 1.574 . S
C1166 C1182 1.368 . S
H1167 C1175 0.950 . S
H1168 C1173 0.950 . S
H1169 C1174 0.949 . S
H1170 C1176 0.950 . S
H1171 C1177 0.950 . S
H1172 C1178 0.949 . S
C1173 H1168 0.950 . S
C1173 C1175 1.327 . S
C1173 C1179 1.429 . S
C1174 C1166 1.574 . S
C1174 H1169 0.949 . S
C1174 C1180 1.368 . S
C1175 C1159 1.349 . S
C1175 H1167 0.950 . S
C1175 C1173 1.327 . S
C1176 C1164 1.349 . S
C1176 H1170 0.950 . S
C1176 C1177 1.327 . S
C1177 H1171 0.950 . S
C1177 C1176 1.327 . S
C1177 C1181 1.429 . S
C1178 C1161 1.574 . S
C1178 H1172 0.949 . S
C1178 C1182 1.368 . S
C1179 C1160 1.429 . S
C1179 C1173 1.429 . S
C1179 C1180 1.523 . S
C1180 C1161 1.368 . S
C1180 C1174 1.368 . S
C1180 C1179 1.523 . S
C1181 C1165 1.429 . S
C1181 C1177 1.429 . S
C1181 C1182 1.523 . S
C1182 C1166 1.368 . S
C1182 C1178 1.368 . S
C1182 C1181 1.523 . S
H1183 C1158 0.950 1_556 S
H1184 C1160 0.950 . S
H1185 C1161 0.949 . S
H1186 C1163 0.950 . S
H1187 C1165 0.950 . S
C1188 C1189 1.349 . S
C1188 C1190 1.327 . S
C1188 H1213 0.950 . S
C1189 C1188 1.349 . S
C1189 C1205 1.349 . S
C1190 C1188 1.327 . S
C1190 C1209 1.429 . S
C1190 H1214 0.950 . S
C1191 C1208 1.574 . S
C1191 C1210 1.368 1_655 S
C1191 H1215 0.949 . S
H1192 C1196 0.949 . S
C1193 C1194 1.349 . S
C1193 C1195 1.327 . S
C1193 H1216 0.950 . S
C1194 C1193 1.349 . S
C1194 C1206 1.349 . S
C1195 C1193 1.327 . S
C1195 C1211 1.429 . S
C1195 H1217 0.950 . S
C1196 H1192 0.949 . S
C1196 C1204 1.574 . S
C1196 C1212 1.368 1_455 S
H1197 C1205 0.950 . S
H1198 C1203 0.950 . S
H1199 C1204 0.949 . S
H1200 C1206 0.950 . S
H1201 C1207 0.950 . S
H1202 C1208 0.949 . S
C1203 H1198 0.950 . S
C1203 C1205 1.327 . S
C1203 C1209 1.429 . S
C1204 C1196 1.574 . S
C1204 H1199 0.949 . S
C1204 C1210 1.368 . S
C1205 C1189 1.349 . S
C1205 H1197 0.950 . S
C1205 C1203 1.327 . S
C1206 C1194 1.349 . S
C1206 H1200 0.950 . S
C1206 C1207 1.327 . S
C1207 H1201 0.950 . S
C1207 C1206 1.327 . S
C1207 C1211 1.429 . S
C1208 C1191 1.574 . S
C1208 H1202 0.949 . S
C1208 C1212 1.368 . S
C1209 C1190 1.429 . S
C1209 C1203 1.429 . S
C1209 C1210 1.523 . S
C1210 C1191 1.368 1_455 S
C1210 C1204 1.368 . S
C1210 C1209 1.523 . S
C1211 C1195 1.429 . S
C1211 C1207 1.429 . S
C1211 C1212 1.523 . S
C1212 C1196 1.368 1_655 S
C1212 C1208 1.368 . S
C1212 C1211 1.523 . S
H1213 C1188 0.950 . S
H1214 C1190 0.950 . S
H1215 C1191 0.949 . S
H1216 C1193 0.950 . S
H1217 C1195 0.950 . S
C1218 C1219 1.349 . S
C1218 C1220 1.327 . S
C1218 H1243 0.950 . S
C1219 C1218 1.349 . S
C1219 C1235 1.349 . S
C1220 C1218 1.327 . S
C1220 C1239 1.429 . S
C1220 H1244 0.950 . S
C1221 C1238 1.574 . S
C1221 C1240 1.368 . S
C1221 H1245 0.949 . S
H1222 C1226 0.949 . S
C1223 C1224 1.349 . S
C1223 C1225 1.327 . S
C1223 H1246 0.950 . S
C1224 C1223 1.349 . S
C1224 C1236 1.349 . S
C1225 C1223 1.327 . S
C1225 C1241 1.429 . S
C1225 H1247 0.950 . S
C1226 H1222 0.949 . S
C1226 C1234 1.574 . S
C1226 C1242 1.368 . S
H1227 C1235 0.950 . S
H1228 C1233 0.950 . S
H1229 C1234 0.949 . S
H1230 C1236 0.950 . S
H1231 C1237 0.950 . S
H1232 C1238 0.949 . S
C1233 H1228 0.950 . S
C1233 C1235 1.327 . S
C1233 C1239 1.429 . S
C1234 C1226 1.574 . S
C1234 H1229 0.949 . S
C1234 C1240 1.368 1_545 S
C1235 C1219 1.349 . S
C1235 H1227 0.950 . S
C1235 C1233 1.327 . S
C1236 C1224 1.349 . S
C1236 H1230 0.950 . S
C1236 C1237 1.327 . S
C1237 H1231 0.950 . S
C1237 C1236 1.327 . S
C1237 C1241 1.429 . S
C1238 C1221 1.574 . S
C1238 H1232 0.949 . S
C1238 C1242 1.368 1_565 S
C1239 C1220 1.429 . S
C1239 C1233 1.429 . S
C1239 C1240 1.523 . S
C1240 C1221 1.368 . S
C1240 C1234 1.368 1_565 S
C1240 C1239 1.523 . S
C1241 C1225 1.429 . S
C1241 C1237 1.429 . S
C1241 C1242 1.523 . S
C1242 C1226 1.368 . S
C1242 C1238 1.368 1_545 S
C1242 C1241 1.523 . S
H1243 C1218 0.950 . S
H1244 C1220 0.950 . S
H1245 C1221 0.949 . S
H1246 C1223 0.950 . S
H1247 C1225 0.950 . S
C1248 C1249 1.349 . S
C1248 C1250 1.327 . S
C1248 H1273 0.950 . S
C1249 C1248 1.349 . S
C1249 C1265 1.349 . S
C1250 C1248 1.327 . S
C1250 C1269 1.429 . S
C1250 H1274 0.950 . S
C1251 C1268 1.574 . S
C1251 C1270 1.368 . S
C1251 H1275 0.949 . S
H1252 C1256 0.949 . S
C1253 C1254 1.349 . S
C1253 C1255 1.327 . S
C1253 H1276 0.950 . S
C1254 C1253 1.349 . S
C1254 C1266 1.349 . S
C1255 C1253 1.327 . S
C1255 C1271 1.429 . S
C1255 H1277 0.950 . S
C1256 H1252 0.949 . S
C1256 C1264 1.574 . S
C1256 C1272 1.368 . S
H1257 C1265 0.950 . S
H1258 C1263 0.950 . S
H1259 C1264 0.949 . S
H1260 C1266 0.950 . S
H1261 C1267 0.950 . S
H1262 C1268 0.949 . S
C1263 H1258 0.950 . S
C1263 C1265 1.327 . S
C1263 C1269 1.429 . S
C1264 C1256 1.574 . S
C1264 H1259 0.949 . S
C1264 C1270 1.368 . S
C1265 C1249 1.349 . S
C1265 H1257 0.950 . S
C1265 C1263 1.327 . S
C1266 C1254 1.349 . S
C1266 H1260 0.950 . S
C1266 C1267 1.327 . S
C1267 H1261 0.950 . S
C1267 C1266 1.327 . S
C1267 C1271 1.429 . S
C1268 C1251 1.574 . S
C1268 H1262 0.949 . S
C1268 C1272 1.368 . S
C1269 C1250 1.429 . S
C1269 C1263 1.429 . S
C1269 C1270 1.523 . S
C1270 C1251 1.368 . S
C1270 C1264 1.368 . S
C1270 C1269 1.523 . S
C1271 C1255 1.429 . S
C1271 C1267 1.429 . S
C1271 C1272 1.523 . S
C1272 C1256 1.368 . S
C1272 C1268 1.368 . S
C1272 C1271 1.523 . S
H1273 C1248 0.950 . S
H1274 C1250 0.950 . S
H1275 C1251 0.949 . S
H1276 C1253 0.950 . S
H1277 C1255 0.950 . S
C1278 C1279 1.349 . S
C1278 C1280 1.327 . S
C1278 H1303 0.950 . S
C1279 C1278 1.349 . S
C1279 C1295 1.349 . S
C1280 C1278 1.327 . S
C1280 C1299 1.429 . S
C1280 H1304 0.950 . S
C1281 C1298 1.574 . S
C1281 C1300 1.368 . S
C1281 H1305 0.949 . S
H1282 C1286 0.949 . S
C1283 C1284 1.349 . S
C1283 C1285 1.327 . S
C1283 H1306 0.950 . S
C1284 C1283 1.349 . S
C1284 C1296 1.349 . S
C1285 C1283 1.327 . S
C1285 C1301 1.429 . S
C1285 H1307 0.950 . S
C1286 H1282 0.949 . S
C1286 C1294 1.574 . S
C1286 C1302 1.368 . S
H1287 C1295 0.950 . S
H1288 C1293 0.950 . S
H1289 C1294 0.949 . S
H1290 C1296 0.950 . S
H1291 C1297 0.950 . S
H1292 C1298 0.949 . S
C1293 H1288 0.950 . S
C1293 C1295 1.327 . S
C1293 C1299 1.429 . S
C1294 C1286 1.574 . S
C1294 H1289 0.949 . S
C1294 C1300 1.368 . S
C1295 C1279 1.349 . S
C1295 H1287 0.950 . S
C1295 C1293 1.327 . S
C1296 C1284 1.349 . S
C1296 H1290 0.950 . S
C1296 C1297 1.327 . S
C1297 H1291 0.950 . S
C1297 C1296 1.327 . S
C1297 C1301 1.429 . S
C1298 C1281 1.574 . S
C1298 H1292 0.949 . S
C1298 C1302 1.368 . S
C1299 C1280 1.429 . S
C1299 C1293 1.429 . S
C1299 C1300 1.523 . S
C1300 C1281 1.368 . S
C1300 C1294 1.368 . S
C1300 C1299 1.523 . S
C1301 C1285 1.429 . S
C1301 C1297 1.429 . S
C1301 C1302 1.523 . S
C1302 C1286 1.368 . S
C1302 C1298 1.368 . S
C1302 C1301 1.523 . S
H1303 C1278 0.950 . S
H1304 C1280 0.950 . S
H1305 C1281 0.949 . S
H1306 C1283 0.950 . S
H1307 C1285 0.950 . S
C1308 C1309 1.349 1_556 S
C1308 C1310 1.327 . S
C1308 H1333 0.950 . S
C1309 C1308 1.349 1_554 S
C1309 C1325 1.349 . S
C1310 C1308 1.327 . S
C1310 C1329 1.429 . S
C1310 H1334 0.950 . S
C1311 C1328 1.574 . S
C1311 C1330 1.368 . S
C1311 H1335 0.949 . S
H1312 C1316 0.949 . S
C1313 C1314 1.349 . S
C1313 C1315 1.327 . S
C1313 H1336 0.950 . S
C1314 C1313 1.349 . S
C1314 C1326 1.349 . S
C1315 C1313 1.327 . S
C1315 C1331 1.429 . S
C1315 H1337 0.950 . S
C1316 H1312 0.949 . S
C1316 C1324 1.574 . S
C1316 C1332 1.368 . S
H1317 C1325 0.950 . S
H1318 C1323 0.950 . S
H1319 C1324 0.949 . S
H1320 C1326 0.950 . S
H1321 C1327 0.950 . S
H1322 C1328 0.949 . S
C1323 H1318 0.950 . S
C1323 C1325 1.327 . S
C1323 C1329 1.429 1_554 S
C1324 C1316 1.574 . S
C1324 H1319 0.949 . S
C1324 C1330 1.368 . S
C1325 C1309 1.349 . S
C1325 H1317 0.950 . S
C1325 C1323 1.327 . S
C1326 C1314 1.349 . S
C1326 H1320 0.950 . S
C1326 C1327 1.327 . S
C1327 H1321 0.950 . S
C1327 C1326 1.327 . S
C1327 C1331 1.429 . S
C1328 C1311 1.574 . S
C1328 H1322 0.949 . S
C1328 C1332 1.368 . S
C1329 C1310 1.429 . S
C1329 C1323 1.429 1_556 S
C1329 C1330 1.523 . S
C1330 C1311 1.368 . S
C1330 C1324 1.368 . S
C1330 C1329 1.523 . S
C1331 C1315 1.429 . S
C1331 C1327 1.429 . S
C1331 C1332 1.523 . S
C1332 C1316 1.368 . S
C1332 C1328 1.368 . S
C1332 C1331 1.523 . S
H1333 C1308 0.950 . S
H1334 C1310 0.950 . S
H1335 C1311 0.949 . S
H1336 C1313 0.950 . S
H1337 C1315 0.950 . S
C1338 C1339 1.349 . S
C1338 C1340 1.327 . S
C1338 H1363 0.950 . S
C1339 C1338 1.349 . S
C1339 C1355 1.349 . S
C1340 C1338 1.327 . S
C1340 C1359 1.429 . S
C1340 H1364 0.950 . S
C1341 C1358 1.574 . S
C1341 C1360 1.368 . S
C1341 H1365 0.949 . S
H1342 C1346 0.949 . S
C1343 C1344 1.349 1_554 S
C1343 C1345 1.327 . S
C1343 H1366 0.950 . S
C1344 C1343 1.349 1_556 S
C1344 C1356 1.349 . S
C1345 C1343 1.327 . S
C1345 C1361 1.429 . S
C1345 H1367 0.950 . S
C1346 H1342 0.949 . S
C1346 C1354 1.574 . S
C1346 C1362 1.368 . S
H1347 C1355 0.950 . S
H1348 C1353 0.950 . S
H1349 C1354 0.949 . S
H1350 C1356 0.950 . S
H1351 C1357 0.956 . S
H1352 C1358 0.949 . S
C1353 H1348 0.950 . S
C1353 C1355 1.327 . S
C1353 C1359 1.429 . S
C1354 C1346 1.574 . S
C1354 H1349 0.949 . S
C1354 C1360 1.368 . S
C1355 C1339 1.349 . S
C1355 H1347 0.950 . S
C1355 C1353 1.327 . S
C1356 C1344 1.349 . S
C1356 H1350 0.950 . S
C1356 C1357 1.340 . S
C1357 H1351 0.956 . S
C1357 C1356 1.340 . S
C1357 C1361 1.410 1_556 S
C1358 C1341 1.574 . S
C1358 H1352 0.949 . S
C1358 C1362 1.368 . S
C1359 C1340 1.429 . S
C1359 C1353 1.429 . S
C1359 C1360 1.523 . S
C1360 C1341 1.368 . S
C1360 C1354 1.368 . S
C1360 C1359 1.523 . S
C1361 C1345 1.429 . S
C1361 C1357 1.410 1_554 S
C1361 C1362 1.523 . S
C1362 C1346 1.368 . S
C1362 C1358 1.368 . S
C1362 C1361 1.523 . S
H1363 C1338 0.950 . S
H1364 C1340 0.950 . S
H1365 C1341 0.949 . S
H1366 C1343 0.950 . S
H1367 C1345 0.950 . S
C1368 C1369 1.349 . S
C1368 C1370 1.327 . S
C1368 H1393 0.950 . S
C1369 C1368 1.349 . S
C1369 C1385 1.349 . S
C1370 C1368 1.327 . S
C1370 C1389 1.429 . S
C1370 H1394 0.950 . S
C1371 C1388 1.574 . S
C1371 C1390 1.368 . S
C1371 H1395 0.949 . S
H1372 C1376 0.949 . S
C1373 C1374 1.349 . S
C1373 C1375 1.327 . S
C1373 H1396 0.950 . S
C1374 C1373 1.349 . S
C1374 C1386 1.349 . S
C1375 C1373 1.327 . S
C1375 C1391 1.429 . S
C1375 H1397 0.950 . S
C1376 H1372 0.949 . S
C1376 C1384 1.574 . S
C1376 C1392 1.368 . S
H1377 C1385 0.950 . S
H1378 C1383 0.950 . S
H1379 C1384 0.949 . S
H1380 C1386 0.950 . S
H1381 C1387 0.950 . S
H1382 C1388 0.949 . S
C1383 H1378 0.950 . S
C1383 C1385 1.327 . S
C1383 C1389 1.429 . S
C1384 C1376 1.574 . S
C1384 H1379 0.949 . S
C1384 C1390 1.368 . S
C1385 C1369 1.349 . S
C1385 H1377 0.950 . S
C1385 C1383 1.327 . S
C1386 C1374 1.349 . S
C1386 H1380 0.950 . S
C1386 C1387 1.327 . S
C1387 H1381 0.950 . S
C1387 C1386 1.327 . S
C1387 C1391 1.429 . S
C1388 C1371 1.574 . S
C1388 H1382 0.949 . S
C1388 C1392 1.368 . S
C1389 C1370 1.429 . S
C1389 C1383 1.429 . S
C1389 C1390 1.523 . S
C1390 C1371 1.368 . S
C1390 C1384 1.368 . S
C1390 C1389 1.523 . S
C1391 C1375 1.429 . S
C1391 C1387 1.429 . S
C1391 C1392 1.523 . S
C1392 C1376 1.368 . S
C1392 C1388 1.368 . S
C1392 C1391 1.523 . S
H1393 C1368 0.950 . S
H1394 C1370 0.950 . S
H1395 C1371 0.949 . S
H1396 C1373 0.950 . S
H1397 C1375 0.950 . S
C1398 C1399 1.349 . S
C1398 C1400 1.327 . S
C1398 H1423 0.950 . S
C1399 C1398 1.349 . S
C1399 C1415 1.349 . S
C1400 C1398 1.327 . S
C1400 C1419 1.429 . S
C1400 H1424 0.950 . S
C1401 C1418 1.574 . S
C1401 C1420 1.368 . S
C1401 H1425 0.949 . S
H1402 C1406 0.949 . S
C1403 C1404 1.349 . S
C1403 C1405 1.327 . S
C1403 H1426 0.950 . S
C1404 C1403 1.349 . S
C1404 C1416 1.349 . S
C1405 C1403 1.327 . S
C1405 C1421 1.429 . S
C1405 H1427 0.950 . S
C1406 H1402 0.949 . S
C1406 C1414 1.574 . S
C1406 C1422 1.368 . S
H1407 C1415 0.950 . S
H1408 C1413 0.950 . S
H1409 C1414 0.949 . S
H1410 C1416 0.950 . S
H1411 C1417 0.950 . S
H1412 C1418 0.949 . S
C1413 H1408 0.950 . S
C1413 C1415 1.327 . S
C1413 C1419 1.429 . S
C1414 C1406 1.574 . S
C1414 H1409 0.949 . S
C1414 C1420 1.368 . S
C1415 C1399 1.349 . S
C1415 H1407 0.950 . S
C1415 C1413 1.327 . S
C1416 C1404 1.349 . S
C1416 H1410 0.950 . S
C1416 C1417 1.327 . S
C1417 H1411 0.950 . S
C1417 C1416 1.327 . S
C1417 C1421 1.429 . S
C1418 C1401 1.574 . S
C1418 H1412 0.949 . S
C1418 C1422 1.368 . S
C1419 C1400 1.429 . S
C1419 C1413 1.429 . S
C1419 C1420 1.523 . S
C1420 C1401 1.368 . S
C1420 C1414 1.368 . S
C1420 C1419 1.523 . S
C1421 C1405 1.429 . S
C1421 C1417 1.429 . S
C1421 C1422 1.523 . S
C1422 C1406 1.368 . S
C1422 C1418 1.368 . S
C1422 C1421 1.523 . S
H1423 C1398 0.950 . S
H1424 C1400 0.950 . S
H1425 C1401 0.949 . S
H1426 C1403 0.950 . S
H1427 C1405 0.950 . S
C709 C583 2.134 1_554 S
C714 C52 2.134 . S
C739 C111 2.134 . S
C744 C642 2.134 . S
C769 C701 2.134 . S
C774 C170 2.134 . S
C799 C406 2.134 . S
C804 C229 2.134 . S
C829 C465 2.134 . S
C834 C288 2.134 1_556 S
C859 C524 2.134 . S
C864 C347 2.134 . S
C889 C387 1.554 . S
C894 C33 1.554 . S
C919 C92 1.554 . S
C924 C446 1.554 . S
C949 C505 1.554 . S
C954 C151 1.554 . S
C979 C210 1.554 . S
C984 C564 1.554 . S
C1009 C623 1.554 . S
C1014 C269 1.554 . S
C1039 C328 1.554 . S
C1044 C682 1.554 . S
C1069 C534 0.943 . S
C1074 C3 0.943 . S
C1099 C593 0.943 . S
C1104 C62 0.943 . S
C1129 C652 0.943 . S
C1134 C121 0.943 . S
C1159 C180 0.943 . S
C1164 C357 0.943 . S
C1189 C416 0.943 . S
C1194 C239 0.943 . S
C1219 C298 0.943 . S
C1224 C475 0.943 . S
C1249 C5 1.145 . S
C1254 C477 1.145 . S
C1279 C536 1.145 . S
C1284 C64 1.145 . S
C1309 C595 1.145 . S
C1314 C123 1.145 . S
C1339 C654 1.145 . S
C1344 C182 1.145 . S
C1369 C359 1.145 . S
C1374 C241 1.145 . S
C1399 C418 1.145 . S
C1404 C300 1.145 . S
