# Generated by pormake.
# Topology rob, (6)-cn, num edge types: 1
# Building blocks:
#     Node 0, Type 0, BuildingBlock: FUNLAD_clean_sbu_0, # of connection points: 6
#     Node 1, Type 0, BuildingBlock: FUNLAD_clean_sbu_0, # of connection points: 6
#     Node 2, Type 0, BuildingBlock: FUNLAD_clean_sbu_0, # of connection points: 6
#     Node 3, Type 0, BuildingBlock: FUNLAD_clean_sbu_0, # of connection points: 6
#     Edge 4, Type (0, 0), BuildingBlock: KIFKEQ_clean_linker_1, # of connection points: 2
#     Edge 5, Type (0, 0), BuildingBlock: KIFKEQ_clean_linker_1, # of connection points: 2
#     Edge 6, Type (0, 0), BuildingBlock: KIFKEQ_clean_linker_1, # of connection points: 2
#     Edge 7, Type (0, 0), BuildingBlock: KIFKEQ_clean_linker_1, # of connection points: 2
#     Edge 8, Type (0, 0), BuildingBlock: KIFKEQ_clean_linker_1, # of connection points: 2
#     Edge 9, Type (0, 0), BuildingBlock: KIFKEQ_clean_linker_1, # of connection points: 2
#     Edge 10, Type (0, 0), BuildingBlock: KIFKEQ_clean_linker_1, # of connection points: 2
#     Edge 11, Type (0, 0), BuildingBlock: KIFKEQ_clean_linker_1, # of connection points: 2
#     Edge 12, Type (0, 0), BuildingBlock: KIFKEQ_clean_linker_1, # of connection points: 2
#     Edge 13, Type (0, 0), BuildingBlock: KIFKEQ_clean_linker_1, # of connection points: 2
#     Edge 14, Type (0, 0), BuildingBlock: KIFKEQ_clean_linker_1, # of connection points: 2
#     Edge 15, Type (0, 0), BuildingBlock: KIFKEQ_clean_linker_1, # of connection points: 2
# Relax obj value: 0.139
# Max RMSD: 0.158
# Mean RMSD: 0.158
data_MOF--net-rob--node1-FUNLAD_clean_sbu_0--edge1-KIFKEQ_clean_linker_1
_symmetry_space_group_name_H-M    P1
_symmetry_Int_Tables_number       1
_symmetry_cell_setting            triclinic
loop_
_symmetry_equiv_pos_as_xyz
'x, y, z'
_cell_length_a     16.202888
_cell_length_b     40.93419
_cell_length_c     23.674815
_cell_angle_alpha  92.218436
_cell_angle_beta   89.9711
_cell_angle_gamma 89.986751
loop_
_atom_site_label
_atom_site_type_symbol
_atom_site_fract_x
_atom_site_fract_y
_atom_site_fract_z
_atom_type_partial_charge
C0 C 0.28949 0.25514 0.88076 0.0
N1 N 0.31228 0.33889 0.98733 0.0
C2 C 0.3836 0.34436 0.95886 0.0
C3 C 0.41664 0.37582 0.95747 0.0
C4 C 0.37689 0.40201 0.98655 0.0
C5 C 0.3032 0.39554 0.01555 0.0
C6 C 0.27157 0.3638 0.01498 0.0
Zn7 Zn 0.26738 0.2922 0.99032 0.0
C8 C 0.09428 0.28656 0.95473 0.0
N9 N 0.1794 0.19385 -0.00353 0.0
C10 C 0.22022 0.16901 0.96863 0.0
C11 C 0.1079 0.18834 0.0248 0.0
C12 C 0.07474 0.15687 0.02575 0.0
C13 C 0.11471 0.131 -0.00364 0.0
C14 C 0.18837 0.13729 0.96759 0.0
Zn15 Zn 0.22426 0.24056 -0.00644 0.0
O16 O 0.3008 0.28287 0.90546 0.0
C17 C 0.39736 0.24621 0.02916 0.0
O18 O 0.25901 0.232 0.9082 0.0
H19 H 0.07592 0.20844 0.04618 0.0
H20 H 0.41532 0.32424 0.93733 0.0
H21 H 0.27724 0.17382 0.94671 0.0
O22 O 0.3834 0.27582 0.01787 0.0
O23 O 0.34068 0.22505 0.02158 0.0
H24 H 0.21487 0.359 0.03729 0.0
O25 O 0.19073 0.2499 0.07842 0.0
O26 O 0.2327 0.30076 0.07567 0.0
O27 O 0.10824 0.25694 0.96595 0.0
O28 O 0.15097 0.30772 0.96236 0.0
C29 C 0.20211 0.27763 0.10311 0.0
H30 H 0.47261 0.37949 0.93357 0.0
H31 H 0.27078 0.41463 0.03942 0.0
H32 H 0.01742 0.15293 0.04805 0.0
H33 H 0.22119 0.11783 0.94484 0.0
C34 C 0.79352 0.75505 0.88177 0.0
N35 N 0.80967 0.8393 0.9877 0.0
C36 C 0.8886 0.84421 0.97037 0.0
C37 C 0.92142 0.87573 0.97013 0.0
C38 C 0.87226 0.90272 0.98696 0.0
C39 C 0.7904 0.89688 0.00369 0.0
C40 C 0.76052 0.86487 0.00419 0.0
Zn41 Zn 0.76559 0.79249 0.99049 0.0
C42 C 0.59417 0.78603 0.95202 0.0
N43 N 0.67986 0.69383 -0.00392 0.0
C44 C 0.72895 0.66822 0.97944 0.0
C45 C 0.60073 0.68899 0.0132 0.0
C46 C 0.56756 0.65751 0.01284 0.0
C47 C 0.61675 0.63072 -0.0043 0.0
C48 C 0.69868 0.63626 0.97943 0.0
Zn49 Zn 0.72404 0.74063 -0.00663 0.0
O50 O 0.80308 0.78292 0.90647 0.0
C51 C 0.89544 0.74707 0.03185 0.0
O52 O 0.7626 0.73179 0.90882 0.0
H53 H 0.5629 0.7096 0.02675 0.0
H54 H 0.92669 0.82359 0.95724 0.0
H55 H 0.79143 0.6726 0.96557 0.0
O56 O 0.8807 0.77658 0.02051 0.0
O57 O 0.83963 0.72563 0.0238 0.0
H58 H 0.698 0.86047 0.01796 0.0
O59 O 0.68656 0.75019 0.07738 0.0
O60 O 0.72702 0.80132 0.07504 0.0
O61 O 0.60894 0.75653 0.96337 0.0
O62 O 0.64999 0.80747 0.96004 0.0
C63 C 0.69612 0.77806 0.10209 0.0
H64 H 0.98523 0.87872 0.95781 0.0
H65 H 0.7494 0.91677 0.01605 0.0
H66 H 0.50427 0.6541 0.02615 0.0
H67 H 0.73822 0.61616 0.9656 0.0
C68 C 0.288 0.77737 0.60329 0.0
N69 N 0.30981 0.69375 0.49626 0.0
C70 C 0.38087 0.68805 0.52483 0.0
C71 C 0.41349 0.65651 0.52601 0.0
C72 C 0.37362 0.63049 0.4966 0.0
C73 C 0.30014 0.63718 0.46756 0.0
C74 C 0.26891 0.669 0.46835 0.0
Zn75 Zn 0.2659 0.74058 0.49342 0.0
C76 C 0.09269 0.74675 0.52866 0.0
N77 N 0.18005 0.83922 0.48763 0.0
C78 C 0.22107 0.86394 0.51552 0.0
C79 C 0.10901 0.84496 0.45907 0.0
C80 C 0.07654 0.87652 0.45788 0.0
C81 C 0.11654 0.90251 0.48727 0.0
C82 C 0.18999 0.89578 0.5163 0.0
Zn83 Zn 0.2239 0.79238 0.49046 0.0
O84 O 0.29895 0.74966 0.57843 0.0
C85 C 0.3971 0.78621 0.45522 0.0
O86 O 0.25812 0.80067 0.57594 0.0
H87 H 0.07706 0.82499 0.43733 0.0
H88 H 0.41274 0.70804 0.54657 0.0
H89 H 0.27755 0.85891 0.5379 0.0
O90 O 0.38245 0.75661 0.46621 0.0
O91 O 0.34082 0.80755 0.46288 0.0
H92 H 0.21243 0.67399 0.44596 0.0
O93 O 0.19085 0.78331 0.40546 0.0
O94 O 0.23164 0.73229 0.40793 0.0
O95 O 0.10734 0.77635 0.51765 0.0
O96 O 0.14897 0.72541 0.52102 0.0
C97 C 0.20177 0.7556 0.38059 0.0
H98 H 0.46928 0.65265 0.54997 0.0
H99 H 0.26763 0.61822 0.44347 0.0
H100 H 0.02076 0.88042 0.43392 0.0
H101 H 0.22259 0.91471 0.54038 0.0
C102 C 0.79445 0.27845 0.60201 0.0
N103 N 0.81265 0.19418 0.49637 0.0
C104 C 0.89187 0.18965 0.51354 0.0
C105 C 0.9257 0.15829 0.51354 0.0
C106 C 0.87707 0.1313 0.49671 0.0
C107 C 0.79508 0.13653 0.4803 0.0
C108 C 0.76415 0.16838 0.47995 0.0
Zn109 Zn 0.76718 0.24076 0.49347 0.0
C110 C 0.59577 0.24655 0.5321 0.0
N111 N 0.67888 0.33903 0.48754 0.0
C112 C 0.72732 0.36485 0.50396 0.0
C113 C 0.59964 0.34353 0.47037 0.0
C114 C 0.56573 0.37488 0.47039 0.0
C115 C 0.61429 0.40189 0.48722 0.0
C116 C 0.6963 0.39669 0.50362 0.0
Zn117 Zn 0.72439 0.29245 0.49045 0.0
O118 O 0.80454 0.25059 0.57738 0.0
C119 C 0.89581 0.28664 0.45181 0.0
O120 O 0.76293 0.30158 0.57495 0.0
H121 H 0.56234 0.32274 0.45701 0.0
H122 H 0.92923 0.21043 0.5269 0.0
H123 H 0.78989 0.36075 0.51787 0.0
O124 O 0.88177 0.2571 0.46327 0.0
O125 O 0.83948 0.30789 0.45979 0.0
H126 H 0.70159 0.17251 0.46603 0.0
O127 O 0.687 0.28261 0.40651 0.0
O128 O 0.72868 0.23163 0.409 0.0
O129 O 0.60978 0.2761 0.52067 0.0
O130 O 0.65211 0.22532 0.52409 0.0
C131 C 0.69713 0.25474 0.38191 0.0
H132 H 0.98903 0.15511 0.52694 0.0
H133 H 0.75598 0.11626 0.46668 0.0
H134 H 0.5024 0.37803 0.45699 0.0
H135 H 0.73536 0.41698 0.51724 0.0
H136 H 0.47484 0.60965 0.94492 0.0
H137 H 0.68113 0.57651 0.04251 0.0
H138 H 0.41821 0.55448 0.94075 0.0
H139 H 0.62286 0.52156 0.04129 0.0
H140 H 0.54051 0.41996 0.98646 0.0
H141 H 0.59814 0.47457 0.98573 0.0
H142 H 0.35203 0.5154 -0.00721 0.0
H143 H 0.29426 0.46077 0.98817 0.0
C144 C 0.50745 0.59051 0.96606 0.0
C145 C 0.58223 0.59723 -0.00599 0.0
C146 C 0.47486 0.55889 0.96404 0.0
C147 C 0.51556 0.53333 0.99086 0.0
C148 C 0.59037 0.5403 0.01916 0.0
C149 C 0.62368 0.57183 0.02024 0.0
C150 C 0.49841 0.4405 0.98668 0.0
C151 C 0.41241 0.43567 0.98714 0.0
C152 C 0.5317 0.47201 0.98732 0.0
C153 C 0.48004 0.49966 0.98944 0.0
C154 C 0.39405 0.49484 0.99028 0.0
C155 C 0.36075 0.46333 0.98864 0.0
H156 H 0.53709 0.6124 0.4965 0.0
H157 H 0.29068 0.57179 0.49422 0.0
H158 H 0.5945 0.55775 0.49678 0.0
H159 H 0.34829 0.5171 0.48917 0.0
H160 H 0.47156 0.42277 0.53734 0.0
H161 H 0.41434 0.47786 0.54113 0.0
H162 H 0.61918 0.51091 0.44081 0.0
H163 H 0.67799 0.45606 0.43994 0.0
C164 C 0.49491 0.59189 0.49606 0.0
C165 C 0.40893 0.59679 0.49561 0.0
C166 C 0.52807 0.56036 0.49514 0.0
C167 C 0.47632 0.53275 0.49274 0.0
C168 C 0.39036 0.53763 0.49188 0.0
C169 C 0.35716 0.56918 0.49378 0.0
C170 C 0.50405 0.44192 0.51614 0.0
C171 C 0.57911 0.43528 0.48842 0.0
C172 C 0.47113 0.47349 0.51796 0.0
C173 C 0.5118 0.49907 0.49117 0.0
C174 C 0.58675 0.49215 0.46295 0.0
C175 C 0.62037 0.46068 0.46207 0.0
H176 H 0.08334 0.09152 0.90377 0.0
H177 H 0.06541 0.09574 0.08566 0.0
H178 H 0.02187 0.03716 0.90073 0.0
H179 H 0.00803 0.04063 0.08343 0.0
H180 H 0.83718 0.95419 0.06128 0.0
H181 H 0.89188 1.00932 0.06184 0.0
H182 H 0.04579 0.9826 0.91809 0.0
H183 H 0.98546 0.92841 0.9143 0.0
C184 C 0.06708 0.08052 0.94316 0.0
C185 C 0.079 0.09771 -0.00508 0.0
C186 C 0.03225 0.04927 0.94157 0.0
C187 C 0.00992 0.03421 -0.00815 0.0
C188 C 0.02269 0.05152 0.04372 0.0
C189 C 0.05611 0.08303 0.04516 0.0
C190 C 0.8814 0.96017 0.02899 0.0
C191 C 0.90649 0.93659 0.98765 0.0
C192 C 0.91408 0.99179 0.02996 0.0
C193 C 0.97386 1.00063 0.99021 0.0
C194 C -0.0009 0.97703 0.94897 0.0
C195 C 0.96539 0.94558 0.94741 0.0
H196 H 0.01969 0.11033 0.44657 0.0
H197 H 0.8132 0.07719 0.54407 0.0
H198 H 0.07664 0.05518 0.44273 0.0
H199 H 0.87174 0.02229 0.54316 0.0
H200 H 0.95318 0.92075 0.48738 0.0
H201 H 0.89607 0.97545 0.48713 0.0
H202 H 0.14252 1.01588 0.49465 0.0
H203 H 0.19982 0.96114 0.48957 0.0
C204 C 0.98713 0.0912 0.46778 0.0
C205 C 0.91213 0.0979 0.49554 0.0
C206 C 0.01989 0.0596 0.46594 0.0
C207 C 0.97911 0.03405 0.49274 0.0
C208 C 0.90424 0.04103 0.52101 0.0
C209 C 0.87078 0.07252 0.52191 0.0
C210 C -0.00453 0.94122 0.48781 0.0
C211 C 0.08142 0.93625 0.48823 0.0
C212 C 0.96249 0.97278 0.48874 0.0
C213 C 0.0144 1.00034 0.49114 0.0
C214 C 0.10034 0.99538 0.49196 0.0
C215 C 0.13335 0.96381 0.49004 0.0
H216 H 0.69894 0.19762 0.31721 0.0
H217 H 0.64263 0.30067 0.31103 0.0
H218 H 0.65366 0.18975 0.21896 0.0
H219 H 0.59679 0.29278 0.21422 0.0
H220 H 0.53921 0.28174 0.03957 0.0
H221 H 0.63716 0.2792 0.11731 0.0
H222 H 0.51805 0.19166 0.17298 0.0
H223 H 0.42202 0.19359 0.09436 0.0
C224 C 0.67751 0.21858 0.29482 0.0
C225 C 0.67345 0.2497 0.32202 0.0
C226 C 0.65183 0.21407 0.23863 0.0
C227 C 0.62232 0.24066 0.20865 0.0
C228 C 0.62089 0.27187 0.23555 0.0
C229 C 0.6461 0.27634 0.29148 0.0
C230 C 0.53603 0.26125 0.06713 0.0
C231 C 0.47165 0.23838 0.0619 0.0
C232 C 0.59179 0.2599 0.11183 0.0
C233 C 0.58341 0.23589 0.1523 0.0
C234 C 0.52591 0.21058 0.14269 0.0
C235 C 0.47063 0.21173 0.09758 0.0
H236 H 0.69917 0.8349 0.16749 0.0
H237 H 0.64083 0.73199 0.17247 0.0
H238 H 0.65447 0.84249 0.26592 0.0
H239 H 0.59546 0.73962 0.26946 0.0
H240 H 0.538 0.75009 0.44419 0.0
H241 H 0.63598 0.75257 0.3664 0.0
H242 H 0.51933 0.84097 0.31224 0.0
H243 H 0.42334 0.8391 0.39093 0.0
C244 C 0.67738 0.81391 0.18964 0.0
C245 C 0.67262 0.78291 0.16206 0.0
C246 C 0.65204 0.81826 0.24595 0.0
C247 C 0.6221 0.79164 0.27565 0.0
C248 C 0.61993 0.76054 0.24836 0.0
C249 C 0.64486 0.75623 0.19232 0.0
C250 C 0.5354 0.77074 0.41696 0.0
C251 C 0.47167 0.79389 0.4226 0.0
C252 C 0.59116 0.77205 0.37223 0.0
C253 C 0.58343 0.79632 0.33213 0.0
C254 C 0.52669 0.82185 0.34221 0.0
C255 C 0.47142 0.82074 0.38737 0.0
H256 H 0.56782 0.83822 0.88622 0.0
H257 H 0.4524 0.75041 0.94402 0.0
H258 H 0.46843 0.84013 0.80959 0.0
H259 H 0.35098 0.75296 0.86838 0.0
H260 H 0.28549 0.83436 0.66814 0.0
H261 H 0.33159 0.84221 0.76616 0.0
H262 H 0.38664 0.73901 0.77105 0.0
H263 H 0.33981 0.73114 0.67447 0.0
C264 C 0.51897 0.82015 0.88407 0.0
C265 C 0.51922 0.7936 0.91992 0.0
C266 C 0.4617 0.8213 0.84016 0.0
C267 C 0.40349 0.7961 0.832 0.0
C268 C 0.39676 0.77217 0.87275 0.0
C269 C 0.45455 0.7708 0.91619 0.0
C270 C 0.30647 0.81334 0.69058 0.0
C271 C 0.31011 0.7822 0.66343 0.0
C272 C 0.33266 0.81784 0.74663 0.0
C273 C 0.36235 0.79124 0.77646 0.0
C274 C 0.36257 0.75995 0.7498 0.0
C275 C 0.33678 0.75549 0.69401 0.0
H276 H 0.57092 0.19444 0.59834 0.0
H277 H 0.45289 0.28151 0.53968 0.0
H278 H 0.47147 0.19232 0.67499 0.0
H279 H 0.35146 0.27873 0.61534 0.0
H280 H 0.2881 0.19792 0.81652 0.0
H281 H 0.33436 0.18986 0.71852 0.0
H282 H 0.38741 0.29317 0.71254 0.0
H283 H 0.34052 0.30123 0.8091 0.0
C284 C 0.5215 0.21229 0.60031 0.0
C285 C 0.52099 0.23872 0.56422 0.0
C286 C 0.4642 0.21101 0.64422 0.0
C287 C 0.40524 0.23596 0.65214 0.0
C288 C 0.39781 0.25971 0.61114 0.0
C289 C 0.45561 0.26122 0.5677 0.0
C290 C 0.30868 0.21891 0.79384 0.0
C291 C 0.31176 0.25014 0.82067 0.0
C292 C 0.33495 0.21429 0.73781 0.0
C293 C 0.36408 0.24087 0.70768 0.0
C294 C 0.36376 0.27224 0.73403 0.0
C295 C 0.33795 0.27681 0.7898 0.0
H296 H 0.03723 0.78268 0.03993 0.0
H297 H 0.92173 0.69486 0.09762 0.0
H298 H 0.13863 0.78009 0.11557 0.0
H299 H 0.02111 0.69292 0.17426 0.0
H300 H 0.20412 0.69861 0.3157 0.0
H301 H 0.15792 0.6908 0.2177 0.0
H302 H 0.10307 0.79402 0.2129 0.0
H303 H 0.15 0.80185 0.30945 0.0
C304 C 0.03505 0.76228 0.06774 0.0
C305 C 0.97037 0.73949 0.06397 0.0
C306 C 0.09283 0.76089 0.11118 0.0
C307 C 0.08608 0.73694 0.1519 0.0
C308 C 0.02785 0.71176 0.14371 0.0
C309 C 0.97059 0.71293 0.0998 0.0
C310 C 0.18316 0.71964 0.29329 0.0
C311 C 0.1796 0.75078 0.32046 0.0
C312 C 0.15692 0.71516 0.23724 0.0
C313 C 0.12726 0.74178 0.20744 0.0
C314 C 0.12712 0.77307 0.23412 0.0
C315 C 0.15297 0.7775 0.2899 0.0
H316 H 0.92068 0.33867 0.38538 0.0
H317 H 0.03865 0.25167 0.44434 0.0
H318 H 0.02009 0.34068 0.30868 0.0
H319 H 0.14 0.25431 0.3686 0.0
H320 H 0.15082 0.23162 0.17486 0.0
H321 H 0.10388 0.23978 0.2714 0.0
H322 H 0.15732 0.34305 0.2652 0.0
H323 H 0.20365 0.33489 0.16724 0.0
C324 C 0.97008 0.32082 0.38346 0.0
C325 C 0.97058 0.29443 0.41966 0.0
C326 C 0.02735 0.32203 0.33952 0.0
C327 C 0.08626 0.29705 0.33167 0.0
C328 C 0.09369 0.27335 0.37276 0.0
C329 C 0.03593 0.27192 0.41624 0.0
C330 C 0.15347 0.25605 0.1941 0.0
C331 C 0.1798 0.28268 0.16319 0.0
C332 C 0.12763 0.26068 0.24987 0.0
C333 C 0.12741 0.29207 0.27614 0.0
C334 C 0.15666 0.31861 0.24596 0.0
C335 C 0.18297 0.31393 0.18995 0.0
H336 H 0.84878 0.23245 0.67279 0.0
H337 H 0.79279 0.33554 0.66684 0.0
H338 H 0.89462 0.24023 0.76961 0.0
H339 H 0.83807 0.3433 0.76512 0.0
H340 H 0.06967 0.33925 0.8897 0.0
H341 H 0.97361 0.3413 0.81113 0.0
H342 H 0.85437 0.25372 0.86653 0.0
H343 H 0.95239 0.25106 0.94422 0.0
C344 C 0.84538 0.25677 0.6924 0.0
C345 C 0.81812 0.28344 0.66191 0.0
C346 C 0.87058 0.26117 0.74833 0.0
C347 C 0.86923 0.29237 0.77531 0.0
C348 C 0.83983 0.31899 0.7454 0.0
C349 C 0.81414 0.31454 0.68919 0.0
C350 C 0.02103 0.32112 0.88643 0.0
C351 C 0.01999 0.29443 0.92201 0.0
C352 C 0.96572 0.32234 0.84135 0.0
C353 C 0.90817 0.29706 0.83167 0.0
C354 C 0.89979 0.273 0.87206 0.0
C355 C 0.95558 0.27158 0.91673 0.0
H356 H 0.06645 0.69391 0.59305 0.0
H357 H 0.95178 0.78288 0.53963 0.0
H358 H 0.97046 0.69208 0.67173 0.0
H359 H 0.85379 0.78044 0.61743 0.0
H360 H 0.84886 0.8011 0.81135 0.0
H361 H 0.89428 0.79344 0.71438 0.0
H362 H 0.83525 0.69056 0.71801 0.0
H363 H 0.79048 0.69819 0.81642 0.0
C364 C 0.01836 0.71227 0.59657 0.0
C365 C 0.01811 0.7391 0.56129 0.0
C366 C 0.96309 0.71118 0.64173 0.0
C367 C 0.90634 0.73672 0.65177 0.0
C368 C 0.89862 0.76096 0.61163 0.0
C369 C 0.95437 0.76224 0.56689 0.0
C370 C 0.84483 0.77685 0.79152 0.0
C371 C 0.81704 0.75018 0.82181 0.0
C372 C 0.86979 0.77252 0.7355 0.0
C373 C 0.86764 0.74141 0.70824 0.0
C374 C 0.83768 0.71481 0.73795 0.0
C375 C 0.81229 0.71917 0.79425 0.0
loop_
_geom_bond_atom_site_label_1
_geom_bond_atom_site_label_2
_geom_bond_distance
_geom_bond_site_symmetry_2
_ccdc_geom_bond_type
C0 O16 1.251 . S
C0 O18 1.254 . S
N1 C2 1.333 1_554 S
N1 C6 1.307 . S
N1 Zn7 2.020 . S
C2 N1 1.333 1_556 S
C2 C3 1.379 . S
C2 H20 0.952 . S
C3 C2 1.379 . S
C3 C4 1.390 1_556 S
C3 H30 0.949 . S
C4 C3 1.390 1_554 S
C4 C5 1.357 . S
C5 C4 1.357 . S
C5 C6 1.370 . S
C5 H31 0.950 . S
C6 N1 1.307 . S
C6 C5 1.370 . S
C6 H24 0.948 . S
Zn7 N1 2.020 . S
Zn7 O16 2.039 1_554 S
Zn7 O22 2.034 . S
Zn7 O26 2.025 . S
Zn7 O28 2.024 1_554 S
C8 O27 1.246 . S
C8 O28 1.249 . S
N9 C10 1.307 . S
N9 C11 1.333 1_556 S
N9 Zn15 2.020 . S
C10 N9 1.307 . S
C10 C14 1.370 . S
C10 H21 0.948 . S
C11 N9 1.333 1_554 S
C11 C12 1.379 . S
C11 H19 0.952 . S
C12 C11 1.379 . S
C12 C13 1.390 1_554 S
C12 H32 0.949 . S
C13 C12 1.390 1_556 S
C13 C14 1.357 . S
C14 C10 1.370 . S
C14 C13 1.357 . S
C14 H33 0.950 . S
Zn15 N9 2.020 . S
Zn15 O18 2.040 . S
Zn15 O23 2.010 1_556 S
Zn15 O25 2.024 1_556 S
Zn15 O27 2.048 . S
O16 C0 1.251 . S
O16 Zn7 2.039 1_556 S
C17 O22 1.246 . S
C17 O23 1.249 . S
O18 C0 1.254 . S
O18 Zn15 2.040 . S
H19 C11 0.952 . S
H20 C2 0.952 . S
H21 C10 0.948 . S
O22 Zn7 2.034 . S
O22 C17 1.246 . S
O23 Zn15 2.010 1_554 S
O23 C17 1.249 . S
H24 C6 0.948 . S
O25 Zn15 2.024 1_554 S
O25 C29 1.251 . S
O26 Zn7 2.025 . S
O26 C29 1.254 . S
O27 C8 1.246 . S
O27 Zn15 2.048 . S
O28 Zn7 2.024 1_556 S
O28 C8 1.249 . S
C29 O25 1.251 . S
C29 O26 1.254 . S
H30 C3 0.949 . S
H31 C5 0.950 . S
H32 C12 0.949 . S
H33 C14 0.950 . S
C34 O50 1.251 . S
C34 O52 1.254 . S
N35 C36 1.333 1_554 S
N35 C40 1.307 . S
N35 Zn41 2.020 . S
C36 N35 1.333 1_556 S
C36 C37 1.379 . S
C36 H54 0.952 . S
C37 C36 1.379 . S
C37 C38 1.390 1_556 S
C37 H64 0.949 . S
C38 C37 1.390 1_554 S
C38 C39 1.357 . S
C39 C38 1.357 . S
C39 C40 1.370 . S
C39 H65 0.950 . S
C40 N35 1.307 . S
C40 C39 1.370 . S
C40 H58 0.948 . S
Zn41 N35 2.020 . S
Zn41 O50 2.039 1_554 S
Zn41 O56 2.034 . S
Zn41 O60 2.025 . S
Zn41 O62 2.024 1_554 S
C42 O61 1.246 . S
C42 O62 1.249 . S
N43 C44 1.307 . S
N43 C45 1.333 1_556 S
N43 Zn49 2.020 . S
C44 N43 1.307 . S
C44 C48 1.370 . S
C44 H55 0.948 . S
C45 N43 1.333 1_554 S
C45 C46 1.379 . S
C45 H53 0.952 . S
C46 C45 1.379 . S
C46 C47 1.390 1_554 S
C46 H66 0.949 . S
C47 C46 1.390 1_556 S
C47 C48 1.357 . S
C48 C44 1.370 . S
C48 C47 1.357 . S
C48 H67 0.950 . S
Zn49 N43 2.020 . S
Zn49 O52 2.040 . S
Zn49 O57 2.010 1_556 S
Zn49 O59 2.024 1_556 S
Zn49 O61 2.048 . S
O50 C34 1.251 . S
O50 Zn41 2.039 1_556 S
C51 O56 1.246 . S
C51 O57 1.249 . S
O52 C34 1.254 . S
O52 Zn49 2.040 . S
H53 C45 0.952 . S
H54 C36 0.952 . S
H55 C44 0.948 . S
O56 Zn41 2.034 . S
O56 C51 1.246 . S
O57 Zn49 2.010 1_554 S
O57 C51 1.249 . S
H58 C40 0.948 . S
O59 Zn49 2.024 1_554 S
O59 C63 1.251 . S
O60 Zn41 2.025 . S
O60 C63 1.254 . S
O61 C42 1.246 . S
O61 Zn49 2.048 . S
O62 Zn41 2.024 1_556 S
O62 C42 1.249 . S
C63 O59 1.251 . S
C63 O60 1.254 . S
H64 C37 0.949 . S
H65 C39 0.950 . S
H66 C46 0.949 . S
H67 C48 0.950 . S
C68 O84 1.251 . S
C68 O86 1.254 . S
N69 C70 1.333 . S
N69 C74 1.307 . S
N69 Zn75 2.020 . S
C70 N69 1.333 . S
C70 C71 1.379 . S
C70 H88 0.952 . S
C71 C70 1.379 . S
C71 C72 1.390 . S
C71 H98 0.949 . S
C72 C71 1.390 . S
C72 C73 1.357 . S
C73 C72 1.357 . S
C73 C74 1.370 . S
C73 H99 0.950 . S
C74 N69 1.307 . S
C74 C73 1.370 . S
C74 H92 0.948 . S
Zn75 N69 2.020 . S
Zn75 O84 2.039 . S
Zn75 O90 2.034 . S
Zn75 O94 2.025 . S
Zn75 O96 2.024 . S
C76 O95 1.246 . S
C76 O96 1.249 . S
N77 C78 1.307 . S
N77 C79 1.333 . S
N77 Zn83 2.020 . S
C78 N77 1.307 . S
C78 C82 1.370 . S
C78 H89 0.948 . S
C79 N77 1.333 . S
C79 C80 1.379 . S
C79 H87 0.952 . S
C80 C79 1.379 . S
C80 C81 1.390 . S
C80 H100 0.949 . S
C81 C80 1.390 . S
C81 C82 1.357 . S
C82 C78 1.370 . S
C82 C81 1.357 . S
C82 H101 0.950 . S
Zn83 N77 2.020 . S
Zn83 O86 2.025 . S
Zn83 O91 2.024 . S
Zn83 O93 2.039 . S
Zn83 O95 2.034 . S
O84 C68 1.251 . S
O84 Zn75 2.039 . S
C85 O90 1.246 . S
C85 O91 1.249 . S
O86 C68 1.254 . S
O86 Zn83 2.025 . S
H87 C79 0.952 . S
H88 C70 0.952 . S
H89 C78 0.948 . S
O90 Zn75 2.034 . S
O90 C85 1.246 . S
O91 Zn83 2.024 . S
O91 C85 1.249 . S
H92 C74 0.948 . S
O93 Zn83 2.039 . S
O93 C97 1.251 . S
O94 Zn75 2.025 . S
O94 C97 1.254 . S
O95 C76 1.246 . S
O95 Zn83 2.034 . S
O96 Zn75 2.024 . S
O96 C76 1.249 . S
C97 O93 1.251 . S
C97 O94 1.254 . S
H98 C71 0.949 . S
H99 C73 0.950 . S
H100 C80 0.949 . S
H101 C82 0.950 . S
C102 O118 1.251 . S
C102 O120 1.254 . S
N103 C104 1.333 . S
N103 C108 1.307 . S
N103 Zn109 2.020 . S
C104 N103 1.333 . S
C104 C105 1.379 . S
C104 H122 0.952 . S
C105 C104 1.379 . S
C105 C106 1.390 . S
C105 H132 0.949 . S
C106 C105 1.390 . S
C106 C107 1.357 . S
C107 C106 1.357 . S
C107 C108 1.370 . S
C107 H133 0.950 . S
C108 N103 1.307 . S
C108 C107 1.370 . S
C108 H126 0.948 . S
Zn109 N103 2.020 . S
Zn109 O118 2.039 . S
Zn109 O124 2.034 . S
Zn109 O128 2.025 . S
Zn109 O130 2.024 . S
C110 O129 1.246 . S
C110 O130 1.249 . S
N111 C112 1.307 . S
N111 C113 1.333 . S
N111 Zn117 2.020 . S
C112 N111 1.307 . S
C112 C116 1.370 . S
C112 H123 0.948 . S
C113 N111 1.333 . S
C113 C114 1.379 . S
C113 H121 0.952 . S
C114 C113 1.379 . S
C114 C115 1.390 . S
C114 H134 0.949 . S
C115 C114 1.390 . S
C115 C116 1.357 . S
C116 C112 1.370 . S
C116 C115 1.357 . S
C116 H135 0.950 . S
Zn117 N111 2.020 . S
Zn117 O120 2.025 . S
Zn117 O125 2.024 . S
Zn117 O127 2.039 . S
Zn117 O129 2.034 . S
O118 C102 1.251 . S
O118 Zn109 2.039 . S
C119 O124 1.246 . S
C119 O125 1.249 . S
O120 C102 1.254 . S
O120 Zn117 2.025 . S
H121 C113 0.952 . S
H122 C104 0.952 . S
H123 C112 0.948 . S
O124 Zn109 2.034 . S
O124 C119 1.246 . S
O125 Zn117 2.024 . S
O125 C119 1.249 . S
H126 C108 0.948 . S
O127 Zn117 2.039 . S
O127 C131 1.251 . S
O128 Zn109 2.025 . S
O128 C131 1.254 . S
O129 C110 1.246 . S
O129 Zn117 2.034 . S
O130 Zn109 2.024 . S
O130 C110 1.249 . S
C131 O127 1.251 . S
C131 O128 1.254 . S
H132 C105 0.949 . S
H133 C107 0.950 . S
H134 C114 0.949 . S
H135 C116 0.950 . S
H136 C144 0.950 . S
H137 C149 0.950 . S
H138 C146 0.950 . S
H139 C148 0.950 . S
H140 C150 0.950 . S
H141 C152 0.950 . S
H142 C154 0.950 . S
H143 C155 0.950 . S
C144 H136 0.950 . S
C144 C145 1.386 1_554 S
C144 C146 1.391 . S
C145 C144 1.386 1_556 S
C145 C149 1.393 . S
C146 H138 0.950 . S
C146 C144 1.391 . S
C146 C147 1.400 1_554 S
C147 C146 1.400 1_556 S
C147 C148 1.398 . S
C147 C153 1.491 1_556 S
C148 H139 0.950 . S
C148 C147 1.398 . S
C148 C149 1.391 . S
C149 H137 0.950 . S
C149 C145 1.393 . S
C149 C148 1.391 . S
C150 H140 0.950 . S
C150 C151 1.386 1_556 S
C150 C152 1.391 . S
C151 C150 1.386 1_554 S
C151 C155 1.393 . S
C152 H141 0.950 . S
C152 C150 1.391 . S
C152 C153 1.400 1_556 S
C153 C147 1.491 1_554 S
C153 C152 1.400 1_554 S
C153 C154 1.398 . S
C154 H142 0.950 . S
C154 C153 1.398 . S
C154 C155 1.391 . S
C155 H143 0.950 . S
C155 C151 1.393 . S
C155 C154 1.391 . S
H156 C164 0.950 . S
H157 C169 0.950 . S
H158 C166 0.950 . S
H159 C168 0.950 . S
H160 C170 0.950 . S
H161 C172 0.950 . S
H162 C174 0.950 . S
H163 C175 0.950 . S
C164 H156 0.950 . S
C164 C165 1.386 . S
C164 C166 1.391 . S
C165 C164 1.386 . S
C165 C169 1.393 . S
C166 H158 0.950 . S
C166 C164 1.391 . S
C166 C167 1.400 . S
C167 C166 1.400 . S
C167 C168 1.398 . S
C167 C173 1.491 . S
C168 H159 0.950 . S
C168 C167 1.398 . S
C168 C169 1.391 . S
C169 H157 0.950 . S
C169 C165 1.393 . S
C169 C168 1.391 . S
C170 H160 0.950 . S
C170 C171 1.386 . S
C170 C172 1.391 . S
C171 C170 1.386 . S
C171 C175 1.393 . S
C172 H161 0.950 . S
C172 C170 1.391 . S
C172 C173 1.400 . S
C173 C167 1.491 . S
C173 C172 1.400 . S
C173 C174 1.398 . S
C174 H162 0.950 . S
C174 C173 1.398 . S
C174 C175 1.391 . S
C175 H163 0.950 . S
C175 C171 1.393 . S
C175 C174 1.391 . S
H176 C184 0.950 . S
H177 C189 0.950 . S
H178 C186 0.950 1_565 S
H179 C188 0.950 . S
H180 C190 0.950 . S
H181 C192 0.950 1_545 S
H182 C194 0.950 . S
H183 C195 0.950 . S
C184 H176 0.950 . S
C184 C185 1.386 1_556 S
C184 C186 1.391 . S
C185 C184 1.386 1_554 S
C185 C189 1.393 . S
C186 H178 0.950 1_545 S
C186 C184 1.391 . S
C186 C187 1.400 1_556 S
C187 C186 1.400 1_554 S
C187 C188 1.398 1_455 S
C187 C193 1.491 1_444 S
C188 H179 0.950 . S
C188 C187 1.398 1_655 S
C188 C189 1.391 1_655 S
C189 H177 0.950 . S
C189 C185 1.393 . S
C189 C188 1.391 1_455 S
C190 H180 0.950 . S
C190 C191 1.386 1_554 S
C190 C192 1.391 . S
C191 C190 1.386 1_556 S
C191 C195 1.393 . S
C192 H181 0.950 1_565 S
C192 C190 1.391 . S
C192 C193 1.394 1_554 S
C193 C187 1.491 1_666 S
C193 C192 1.394 1_556 S
C193 C194 1.405 1_655 S
C194 H182 0.950 . S
C194 C193 1.405 1_455 S
C194 C195 1.391 1_455 S
C195 H183 0.950 . S
C195 C191 1.393 . S
C195 C194 1.391 1_655 S
H196 C204 0.950 . S
H197 C209 0.950 . S
H198 C206 0.950 . S
H199 C208 0.950 1_565 S
H200 C210 0.950 . S
H201 C212 0.950 . S
H202 C214 0.950 1_545 S
H203 C215 0.950 . S
C204 H196 0.950 . S
C204 C205 1.386 . S
C204 C206 1.391 1_655 S
C205 C204 1.386 . S
C205 C209 1.393 . S
C206 H198 0.950 . S
C206 C204 1.391 1_455 S
C206 C207 1.400 1_455 S
C207 C206 1.400 1_655 S
C207 C208 1.398 . S
C207 C213 1.491 1_645 S
C208 H199 0.950 1_545 S
C208 C207 1.398 . S
C208 C209 1.391 . S
C209 H197 0.950 . S
C209 C205 1.393 . S
C209 C208 1.391 . S
C210 H200 0.950 . S
C210 C211 1.386 . S
C210 C212 1.391 1_455 S
C211 C210 1.386 . S
C211 C215 1.393 . S
C212 H201 0.950 . S
C212 C210 1.391 1_655 S
C212 C213 1.400 1_655 S
C213 C207 1.491 1_465 S
C213 C212 1.400 1_455 S
C213 C214 1.398 . S
C214 H202 0.950 1_565 S
C214 C213 1.398 . S
C214 C215 1.391 . S
C215 H203 0.950 . S
C215 C211 1.393 . S
C215 C214 1.391 . S
H216 C224 0.950 . S
H217 C229 0.950 . S
H218 C226 0.950 . S
H219 C228 0.950 . S
H220 C230 0.950 . S
H221 C232 0.950 . S
H222 C234 0.950 . S
H223 C235 0.950 . S
C224 H216 0.950 . S
C224 C225 1.386 . S
C224 C226 1.391 . S
C225 C224 1.386 . S
C225 C229 1.393 . S
C226 H218 0.950 . S
C226 C224 1.391 . S
C226 C227 1.400 . S
C227 C226 1.400 . S
C227 C228 1.398 . S
C227 C233 1.491 . S
C228 H219 0.950 . S
C228 C227 1.398 . S
C228 C229 1.391 . S
C229 H217 0.950 . S
C229 C225 1.393 . S
C229 C228 1.391 . S
C230 H220 0.950 . S
C230 C231 1.386 . S
C230 C232 1.391 . S
C231 C230 1.386 . S
C231 C235 1.393 . S
C232 H221 0.950 . S
C232 C230 1.391 . S
C232 C233 1.400 . S
C233 C227 1.491 . S
C233 C232 1.400 . S
C233 C234 1.398 . S
C234 H222 0.950 . S
C234 C233 1.398 . S
C234 C235 1.391 . S
C235 H223 0.950 . S
C235 C231 1.393 . S
C235 C234 1.391 . S
H236 C244 0.950 . S
H237 C249 0.950 . S
H238 C246 0.950 . S
H239 C248 0.950 . S
H240 C250 0.950 . S
H241 C252 0.950 . S
H242 C254 0.950 . S
H243 C255 0.950 . S
C244 H236 0.950 . S
C244 C245 1.386 . S
C244 C246 1.391 . S
C245 C244 1.386 . S
C245 C249 1.393 . S
C246 H238 0.950 . S
C246 C244 1.391 . S
C246 C247 1.400 . S
C247 C246 1.400 . S
C247 C248 1.398 . S
C247 C253 1.491 . S
C248 H239 0.950 . S
C248 C247 1.398 . S
C248 C249 1.391 . S
C249 H237 0.950 . S
C249 C245 1.393 . S
C249 C248 1.391 . S
C250 H240 0.950 . S
C250 C251 1.386 . S
C250 C252 1.391 . S
C251 C250 1.386 . S
C251 C255 1.393 . S
C252 H241 0.950 . S
C252 C250 1.391 . S
C252 C253 1.400 . S
C253 C247 1.491 . S
C253 C252 1.400 . S
C253 C254 1.398 . S
C254 H242 0.950 . S
C254 C253 1.398 . S
C254 C255 1.391 . S
C255 H243 0.950 . S
C255 C251 1.393 . S
C255 C254 1.391 . S
H256 C264 0.950 . S
H257 C269 0.950 . S
H258 C266 0.950 . S
H259 C268 0.950 . S
H260 C270 0.950 . S
H261 C272 0.950 . S
H262 C274 0.950 . S
H263 C275 0.950 . S
C264 H256 0.950 . S
C264 C265 1.386 . S
C264 C266 1.391 . S
C265 C264 1.386 . S
C265 C269 1.393 . S
C266 H258 0.950 . S
C266 C264 1.391 . S
C266 C267 1.400 . S
C267 C266 1.400 . S
C267 C268 1.398 . S
C267 C273 1.491 . S
C268 H259 0.950 . S
C268 C267 1.398 . S
C268 C269 1.391 . S
C269 H257 0.950 . S
C269 C265 1.393 . S
C269 C268 1.391 . S
C270 H260 0.950 . S
C270 C271 1.386 . S
C270 C272 1.391 . S
C271 C270 1.386 . S
C271 C275 1.393 . S
C272 H261 0.950 . S
C272 C270 1.391 . S
C272 C273 1.400 . S
C273 C267 1.491 . S
C273 C272 1.400 . S
C273 C274 1.398 . S
C274 H262 0.950 . S
C274 C273 1.398 . S
C274 C275 1.391 . S
C275 H263 0.950 . S
C275 C271 1.393 . S
C275 C274 1.391 . S
H276 C284 0.950 . S
H277 C289 0.950 . S
H278 C286 0.950 . S
H279 C288 0.950 . S
H280 C290 0.950 . S
H281 C292 0.950 . S
H282 C294 0.950 . S
H283 C295 0.950 . S
C284 H276 0.950 . S
C284 C285 1.386 . S
C284 C286 1.391 . S
C285 C284 1.386 . S
C285 C289 1.393 . S
C286 H278 0.950 . S
C286 C284 1.391 . S
C286 C287 1.400 . S
C287 C286 1.400 . S
C287 C288 1.398 . S
C287 C293 1.491 . S
C288 H279 0.950 . S
C288 C287 1.398 . S
C288 C289 1.391 . S
C289 H277 0.950 . S
C289 C285 1.393 . S
C289 C288 1.391 . S
C290 H280 0.950 . S
C290 C291 1.386 . S
C290 C292 1.391 . S
C291 C290 1.386 . S
C291 C295 1.393 . S
C292 H281 0.950 . S
C292 C290 1.391 . S
C292 C293 1.400 . S
C293 C287 1.491 . S
C293 C292 1.400 . S
C293 C294 1.398 . S
C294 H282 0.950 . S
C294 C293 1.398 . S
C294 C295 1.391 . S
C295 H283 0.950 . S
C295 C291 1.393 . S
C295 C294 1.391 . S
H296 C304 0.950 . S
H297 C309 0.950 . S
H298 C306 0.950 . S
H299 C308 0.950 . S
H300 C310 0.950 . S
H301 C312 0.950 . S
H302 C314 0.950 . S
H303 C315 0.950 . S
C304 H296 0.950 . S
C304 C305 1.386 . S
C304 C306 1.391 . S
C305 C304 1.386 . S
C305 C309 1.393 . S
C306 H298 0.950 . S
C306 C304 1.391 . S
C306 C307 1.400 . S
C307 C306 1.400 . S
C307 C308 1.398 . S
C307 C313 1.491 1_655 S
C308 H299 0.950 . S
C308 C307 1.398 . S
C308 C309 1.391 . S
C309 H297 0.950 . S
C309 C305 1.393 . S
C309 C308 1.391 . S
C310 H300 0.950 . S
C310 C311 1.386 . S
C310 C312 1.391 . S
C311 C310 1.386 . S
C311 C315 1.393 . S
C312 H301 0.950 . S
C312 C310 1.391 . S
C312 C313 1.400 . S
C313 C307 1.491 1_455 S
C313 C312 1.400 . S
C313 C314 1.398 . S
C314 H302 0.950 . S
C314 C313 1.398 . S
C314 C315 1.391 . S
C315 H303 0.950 . S
C315 C311 1.393 . S
C315 C314 1.391 . S
H316 C324 0.950 . S
H317 C329 0.950 . S
H318 C326 0.950 . S
H319 C328 0.950 1_455 S
H320 C330 0.950 . S
H321 C332 0.950 . S
H322 C334 0.950 1_655 S
H323 C335 0.950 . S
C324 H316 0.950 . S
C324 C325 1.386 . S
C324 C326 1.391 . S
C325 C324 1.386 . S
C325 C329 1.393 . S
C326 H318 0.950 . S
C326 C324 1.391 . S
C326 C327 1.400 . S
C327 C326 1.400 . S
C327 C328 1.398 . S
C327 C333 1.491 1_655 S
C328 H319 0.950 1_655 S
C328 C327 1.398 . S
C328 C329 1.391 . S
C329 H317 0.950 . S
C329 C325 1.393 . S
C329 C328 1.391 . S
C330 H320 0.950 . S
C330 C331 1.386 . S
C330 C332 1.391 . S
C331 C330 1.386 . S
C331 C335 1.393 . S
C332 H321 0.950 . S
C332 C330 1.391 . S
C332 C333 1.400 . S
C333 C327 1.491 1_455 S
C333 C332 1.400 . S
C333 C334 1.398 . S
C334 H322 0.950 1_455 S
C334 C333 1.398 . S
C334 C335 1.391 . S
C335 H323 0.950 . S
C335 C331 1.393 . S
C335 C334 1.391 . S
H336 C344 0.950 . S
H337 C349 0.950 . S
H338 C346 0.950 . S
H339 C348 0.950 . S
H340 C350 0.950 . S
H341 C352 0.950 . S
H342 C354 0.950 . S
H343 C355 0.950 . S
C344 H336 0.950 . S
C344 C345 1.386 . S
C344 C346 1.391 . S
C345 C344 1.386 . S
C345 C349 1.393 . S
C346 H338 0.950 . S
C346 C344 1.391 . S
C346 C347 1.400 . S
C347 C346 1.400 . S
C347 C348 1.398 . S
C347 C353 1.491 1_655 S
C348 H339 0.950 . S
C348 C347 1.398 . S
C348 C349 1.391 . S
C349 H337 0.950 . S
C349 C345 1.393 . S
C349 C348 1.391 . S
C350 H340 0.950 . S
C350 C351 1.386 . S
C350 C352 1.391 . S
C351 C350 1.386 . S
C351 C355 1.393 . S
C352 H341 0.950 . S
C352 C350 1.391 . S
C352 C353 1.400 . S
C353 C347 1.491 1_455 S
C353 C352 1.400 . S
C353 C354 1.398 . S
C354 H342 0.950 . S
C354 C353 1.398 . S
C354 C355 1.391 . S
C355 H343 0.950 . S
C355 C351 1.393 . S
C355 C354 1.391 . S
H356 C364 0.950 . S
H357 C369 0.950 . S
H358 C366 0.950 1_655 S
H359 C368 0.950 . S
H360 C370 0.950 . S
H361 C372 0.950 1_455 S
H362 C374 0.950 . S
H363 C375 0.950 . S
C364 H356 0.950 . S
C364 C365 1.386 . S
C364 C366 1.391 . S
C365 C364 1.386 . S
C365 C369 1.393 . S
C366 H358 0.950 1_455 S
C366 C364 1.391 . S
C366 C367 1.400 . S
C367 C366 1.400 . S
C367 C368 1.398 . S
C367 C373 1.491 1_455 S
C368 H359 0.950 . S
C368 C367 1.398 . S
C368 C369 1.391 . S
C369 H357 0.950 . S
C369 C365 1.393 . S
C369 C368 1.391 . S
C370 H360 0.950 . S
C370 C371 1.386 . S
C370 C372 1.391 . S
C371 C370 1.386 . S
C371 C375 1.393 . S
C372 H361 0.950 1_655 S
C372 C370 1.391 . S
C372 C373 1.400 . S
C373 C367 1.491 1_655 S
C373 C372 1.400 . S
C373 C374 1.398 . S
C374 H362 0.950 . S
C374 C373 1.398 . S
C374 C375 1.391 . S
C375 H363 0.950 . S
C375 C371 1.393 . S
C375 C374 1.391 . S
C145 C47 1.631 . S
C151 C4 1.631 . S
C165 C72 1.636 . S
C171 C115 1.636 . S
C185 C13 1.637 1_554 S
C191 C38 1.637 1_556 S
C205 C106 1.636 . S
C211 C81 1.636 . S
C225 C131 1.012 . S
C231 C17 1.012 . S
C245 C63 1.007 . S
C251 C85 1.011 . S
C265 C42 1.005 . S
C271 C68 1.008 . S
C285 C110 1.010 . S
C291 C0 1.014 . S
C305 C51 1.003 . S
C311 C97 0.995 . S
C325 C119 1.013 . S
C331 C29 1.011 . S
C345 C102 1.013 . S
C351 C8 1.014 . S
C365 C76 1.004 . S
C371 C34 0.997 . S
