# Generated by pormake.
# Topology ukf, (4)-cn, num edge types: 1
# Building blocks:
#     Node 0, Type 0, BuildingBlock: TATPOV_clean_sbu_0, # of connection points: 4
#     Node 1, Type 0, BuildingBlock: TATPOV_clean_sbu_0, # of connection points: 4
#     Node 2, Type 0, BuildingBlock: TATPOV_clean_sbu_0, # of connection points: 4
#     Node 3, Type 0, BuildingBlock: TATPOV_clean_sbu_0, # of connection points: 4
#     Node 4, Type 0, BuildingBlock: TATPOV_clean_sbu_0, # of connection points: 4
#     Node 5, Type 0, BuildingBlock: TATPOV_clean_sbu_0, # of connection points: 4
#     Node 6, Type 0, BuildingBlock: TATPOV_clean_sbu_0, # of connection points: 4
#     Node 7, Type 0, BuildingBlock: TATPOV_clean_sbu_0, # of connection points: 4
#     Node 8, Type 0, BuildingBlock: TATPOV_clean_sbu_0, # of connection points: 4
#     Node 9, Type 0, BuildingBlock: TATPOV_clean_sbu_0, # of connection points: 4
#     Node 10, Type 0, BuildingBlock: TATPOV_clean_sbu_0, # of connection points: 4
#     Node 11, Type 0, BuildingBlock: TATPOV_clean_sbu_0, # of connection points: 4
#     Edge 12, Type (0, 0), BuildingBlock: XIVTED_clean_linker_0, # of connection points: 2
#     Edge 13, Type (0, 0), BuildingBlock: XIVTED_clean_linker_0, # of connection points: 2
#     Edge 14, Type (0, 0), BuildingBlock: XIVTED_clean_linker_0, # of connection points: 2
#     Edge 15, Type (0, 0), BuildingBlock: XIVTED_clean_linker_0, # of connection points: 2
#     Edge 16, Type (0, 0), BuildingBlock: XIVTED_clean_linker_0, # of connection points: 2
#     Edge 17, Type (0, 0), BuildingBlock: XIVTED_clean_linker_0, # of connection points: 2
#     Edge 18, Type (0, 0), BuildingBlock: XIVTED_clean_linker_0, # of connection points: 2
#     Edge 19, Type (0, 0), BuildingBlock: XIVTED_clean_linker_0, # of connection points: 2
#     Edge 20, Type (0, 0), BuildingBlock: XIVTED_clean_linker_0, # of connection points: 2
#     Edge 21, Type (0, 0), BuildingBlock: XIVTED_clean_linker_0, # of connection points: 2
#     Edge 22, Type (0, 0), BuildingBlock: XIVTED_clean_linker_0, # of connection points: 2
#     Edge 23, Type (0, 0), BuildingBlock: XIVTED_clean_linker_0, # of connection points: 2
#     Edge 24, Type (0, 0), BuildingBlock: XIVTED_clean_linker_0, # of connection points: 2
#     Edge 25, Type (0, 0), BuildingBlock: XIVTED_clean_linker_0, # of connection points: 2
#     Edge 26, Type (0, 0), BuildingBlock: XIVTED_clean_linker_0, # of connection points: 2
#     Edge 27, Type (0, 0), BuildingBlock: XIVTED_clean_linker_0, # of connection points: 2
#     Edge 28, Type (0, 0), BuildingBlock: XIVTED_clean_linker_0, # of connection points: 2
#     Edge 29, Type (0, 0), BuildingBlock: XIVTED_clean_linker_0, # of connection points: 2
#     Edge 30, Type (0, 0), BuildingBlock: XIVTED_clean_linker_0, # of connection points: 2
#     Edge 31, Type (0, 0), BuildingBlock: XIVTED_clean_linker_0, # of connection points: 2
#     Edge 32, Type (0, 0), BuildingBlock: XIVTED_clean_linker_0, # of connection points: 2
#     Edge 33, Type (0, 0), BuildingBlock: XIVTED_clean_linker_0, # of connection points: 2
#     Edge 34, Type (0, 0), BuildingBlock: XIVTED_clean_linker_0, # of connection points: 2
#     Edge 35, Type (0, 0), BuildingBlock: XIVTED_clean_linker_0, # of connection points: 2
# Relax obj value: 0.151
# Max RMSD: 0.164
# Mean RMSD: 0.164
data_MOF--net-ukf--node1-TATPOV_clean_sbu_0--edge1-XIVTED_clean_linker_0
_symmetry_space_group_name_H-M    P1
_symmetry_Int_Tables_number       1
_symmetry_cell_setting            triclinic
loop_
_symmetry_equiv_pos_as_xyz
'x, y, z'
_cell_length_a     31.330213
_cell_length_b     31.352941
_cell_length_c     65.552736
_cell_angle_alpha  90.017217
_cell_angle_beta   89.943621
_cell_angle_gamma 119.88236
loop_
_atom_site_label
_atom_site_type_symbol
_atom_site_fract_x
_atom_site_fract_y
_atom_site_fract_z
_atom_type_partial_charge
Zn0 Zn 0.37806 0.24913 0.01806 0.0
Zn1 Zn 0.37151 0.20825 0.0552 0.0
O2 O 0.30438 0.16382 0.04127 0.0
O3 O 0.30889 0.19792 0.01139 0.0
O4 O 0.36361 0.18254 0.08417 0.0
O5 O 0.39244 0.3133 0.0308 0.0
O6 O 0.3939 0.2809 0.0604 0.0
C7 C 0.28506 0.16385 0.02413 0.0
C8 C 0.44666 0.21238 0.02489 0.0
O9 O 0.42614 0.1996 0.04235 0.0
O10 O 0.43334 0.23423 0.0123 0.0
C11 C 0.39834 0.20732 0.09669 0.0
O12 O 0.4385 0.246 0.08996 0.0
C13 C 0.39951 0.31736 0.04986 0.0
Zn14 Zn 0.11247 0.36709 0.35166 0.0
Zn15 Zn 0.14556 0.36095 0.38901 0.0
O16 O 0.12429 0.29398 0.37505 0.0
O17 O 0.09594 0.29846 0.34487 0.0
O18 O 0.16125 0.35256 0.4183 0.0
O19 O 0.06135 0.38067 0.36362 0.0
O20 O 0.09463 0.38294 0.39343 0.0
C21 C 0.10591 0.27473 0.35777 0.0
C22 C 0.21709 0.43704 0.35929 0.0
O23 O 0.20921 0.41647 0.37674 0.0
O24 O 0.18232 0.42308 0.34647 0.0
C25 C 0.16755 0.38567 0.43115 0.0
O26 O 0.16732 0.42518 0.42463 0.0
C27 C 0.06384 0.38814 0.38265 0.0
Zn28 Zn 0.75306 0.14695 0.68591 0.0
Zn29 Zn 0.7707 0.16989 0.72492 0.0
O30 O 0.82403 0.15237 0.71586 0.0
O31 O 0.80447 0.12793 0.68404 0.0
O32 O 0.78402 0.18617 0.75496 0.0
O33 O 0.68455 0.09541 0.69219 0.0
O34 O 0.69794 0.11385 0.72482 0.0
C35 C 0.83165 0.13534 0.69939 0.0
C36 C 0.7783 0.24664 0.69383 0.0
O37 O 0.77958 0.23408 0.71223 0.0
O38 O 0.76893 0.21617 0.67949 0.0
C39 C 0.78133 0.15427 0.76768 0.0
O40 O 0.77098 0.11065 0.76098 0.0
C41 C 0.66934 0.08821 0.71042 0.0
Zn42 Zn 0.62064 0.73847 0.02103 0.0
Zn43 Zn 0.62262 0.7765 0.05835 0.0
O44 O 0.69141 0.82175 0.04589 0.0
O45 O 0.69045 0.79037 0.01572 0.0
O46 O 0.62732 0.80068 0.08738 0.0
O47 O 0.60489 0.6735 0.03342 0.0
O48 O 0.59984 0.70366 0.06307 0.0
C49 C 0.71279 0.82318 0.0291 0.0
C50 C 0.55051 0.77369 0.02678 0.0
O51 O 0.56907 0.78546 0.0446 0.0
O52 O 0.56569 0.75315 0.01433 0.0
C53 C 0.59145 0.77562 0.09939 0.0
O54 O 0.55188 0.73718 0.09215 0.0
C55 C 0.59544 0.66794 0.05231 0.0
Zn56 Zn 0.87307 0.61777 0.35 0.0
Zn57 Zn 0.8392 0.62372 0.38741 0.0
O58 O 0.86369 0.69159 0.37401 0.0
O59 O 0.89212 0.68754 0.34377 0.0
O60 O 0.82237 0.63188 0.41648 0.0
O61 O 0.92177 0.60118 0.36244 0.0
O62 O 0.8876 0.59879 0.39208 0.0
C63 C 0.8829 0.71139 0.35692 0.0
C64 C 0.76727 0.55107 0.35687 0.0
O65 O 0.77525 0.57096 0.37446 0.0
O66 O 0.8024 0.56398 0.34428 0.0
C67 C 0.8137 0.59796 0.42927 0.0
O68 O 0.81263 0.55775 0.42283 0.0
C69 C 0.91804 0.59275 0.38141 0.0
Zn70 Zn 0.22065 0.84794 0.67997 0.0
Zn71 Zn 0.2015 0.82935 0.7191 0.0
O72 O 0.15165 0.84958 0.70825 0.0
O73 O 0.17373 0.87262 0.67649 0.0
O74 O 0.18583 0.81815 0.74929 0.0
O75 O 0.29128 0.89412 0.68597 0.0
O76 O 0.2755 0.88149 0.71879 0.0
C77 C 0.14582 0.86669 0.69145 0.0
C78 C 0.18855 0.74735 0.69004 0.0
O79 O 0.18935 0.76236 0.70821 0.0
O80 O 0.19835 0.77645 0.67512 0.0
C81 C 0.2153 0.8147 0.76163 0.0
O82 O 0.25568 0.81725 0.75445 0.0
C83 C 0.30596 0.90243 0.70426 0.0
Zn84 Zn 0.73418 0.61974 0.65864 0.0
Zn85 Zn 0.77099 0.6195 0.62126 0.0
O86 O 0.81709 0.6892 0.63259 0.0
O87 O 0.78702 0.68968 0.66293 0.0
O88 O 0.79318 0.62037 0.59223 0.0
O89 O 0.66907 0.60396 0.64631 0.0
O90 O 0.69823 0.59683 0.61673 0.0
C91 C 0.81923 0.71137 0.64923 0.0
C92 C 0.76842 0.54891 0.65366 0.0
O93 O 0.77998 0.56682 0.63573 0.0
O94 O 0.74819 0.56465 0.666 0.0
C95 C 0.78887 0.6483 0.57932 0.0
O96 O 0.77359 0.67821 0.58564 0.0
C97 C 0.66294 0.59343 0.62752 0.0
Zn98 Zn 0.14987 0.76145 0.99496 0.0
Zn99 Zn 0.1717 0.77614 0.95572 0.0
O100 O 0.1538 0.82952 0.96395 0.0
O101 O 0.13067 0.81291 0.99603 0.0
O102 O 0.18681 0.78743 0.92553 0.0
O103 O 0.0989 0.6921 0.98949 0.0
O104 O 0.11641 0.70331 0.95674 0.0
C105 C 0.13746 0.83868 0.98025 0.0
C106 C 0.2496 0.78662 0.98682 0.0
O107 O 0.23651 0.78643 0.96838 0.0
O108 O 0.21948 0.77826 1.00123 0.0
C109 C 0.15403 0.78353 0.91303 0.0
O110 O 0.11061 0.77314 0.92006 0.0
C111 C 0.09156 0.67546 0.97148 0.0
Zn112 Zn 0.3812 0.15499 0.33043 0.0
Zn113 Zn 0.38463 0.17079 0.29102 0.0
O114 O 0.3125 0.14932 0.29945 0.0
O115 O 0.30898 0.12819 0.33168 0.0
O116 O 0.3872 0.18242 0.26054 0.0
O117 O 0.40804 0.11004 0.32657 0.0
O118 O 0.4071 0.11919 0.29334 0.0
C119 C 0.28799 0.13219 0.31593 0.0
C120 C 0.44903 0.25475 0.32062 0.0
O121 O 0.43701 0.23833 0.30248 0.0
O122 O 0.42821 0.22666 0.33568 0.0
C123 C 0.3588 0.14898 0.24818 0.0
O124 O 0.3256 0.106 0.25542 0.0
C125 C 0.41596 0.10008 0.30876 0.0
Zn126 Zn 0.24197 0.37711 0.66141 0.0
Zn127 Zn 0.20294 0.37411 0.6242 0.0
O128 O 0.15727 0.30554 0.63674 0.0
O129 O 0.18922 0.3079 0.66694 0.0
O130 O 0.17974 0.37093 0.59512 0.0
O131 O 0.30624 0.39117 0.64875 0.0
O132 O 0.27556 0.3964 0.61927 0.0
C133 C 0.15604 0.28506 0.65375 0.0
C134 C 0.20678 0.44703 0.65573 0.0
O135 O 0.1942 0.42766 0.63808 0.0
O136 O 0.22826 0.43272 0.66807 0.0
C137 C 0.18588 0.34378 0.58239 0.0
O138 O 0.20329 0.31583 0.58894 0.0
C139 C 0.31128 0.4002 0.62983 0.0
Zn140 Zn 0.84703 0.22482 1.0007 0.0
Zn141 Zn 0.83022 0.20762 0.9614 0.0
O142 O 0.84976 0.1571 0.9721 0.0
O143 O 0.87053 0.17706 1.00419 0.0
O144 O 0.81983 0.19256 0.93114 0.0
O145 O 0.89488 0.29515 0.99521 0.0
O146 O 0.88308 0.28145 0.96223 0.0
C147 C 0.86572 0.15021 0.989 0.0
C148 C 0.74723 0.19465 0.99003 0.0
O149 O 0.76292 0.19564 0.97196 0.0
O150 O 0.77568 0.20382 1.00513 0.0
C151 C 0.81684 0.22195 0.91861 0.0
O152 O 0.81961 0.26258 0.92555 0.0
C153 C 0.9042 0.31083 0.97706 0.0
Zn154 Zn 0.60685 0.83979 0.3327 0.0
Zn155 Zn 0.60118 0.81983 0.29302 0.0
O156 O 0.67222 0.83737 0.30117 0.0
O157 O 0.67727 0.85782 0.33357 0.0
O158 O 0.59763 0.80633 0.2627 0.0
O159 O 0.59 0.89213 0.32731 0.0
O160 O 0.58503 0.87598 0.29444 0.0
C161 C 0.69702 0.85259 0.31766 0.0
C162 C 0.5322 0.74089 0.3236 0.0
O163 O 0.54617 0.75478 0.3053 0.0
O164 O 0.55322 0.77023 0.33828 0.0
C165 C 0.62794 0.83899 0.25051 0.0
O166 O 0.66248 0.88102 0.25797 0.0
C167 C 0.58212 0.90068 0.30927 0.0
H168 H 0.1709 0.91687 0.95381 0.0
H169 H 0.23976 0.14714 0.98687 0.0
H170 H 0.09679 0.8637 0.01157 0.0
H171 H 0.22657 0.0792 0.04559 0.0
H172 H 0.18154 0.06681 0.97275 0.0
H173 H 0.18648 -0.00106 0.96255 0.0
C174 C 0.15636 0.92207 0.96801 0.0
C175 C 0.13382 0.88373 0.98222 0.0
C176 C 0.19098 0.06959 0.98876 0.0
C177 C 0.15135 0.97754 0.99239 0.0
C178 C 0.22387 0.11554 0.99693 0.0
C179 C 0.23953 0.11962 0.0173 0.0
C180 C 0.17387 0.0276 1.00106 0.0
C181 C 0.21664 0.07762 0.02968 0.0
C182 C 0.16507 0.96906 0.973 0.0
C183 C 0.11553 0.89254 1.00036 0.0
N184 N 0.18566 0.03315 0.02125 0.0
N185 N 0.12595 0.9388 1.00518 0.0
H186 H 0.0865 0.23395 0.31961 0.0
H187 H 0.22387 0.08773 0.34743 0.0
H188 H 0.12434 0.21212 0.38055 0.0
H189 H 0.23813 0.1611 0.29001 0.0
H190 H 0.15547 0.10034 0.35651 0.0
H191 H 0.10969 0.17525 0.30677 0.0
C192 C 0.09827 0.21578 0.33042 0.0
C193 C 0.10505 0.22921 0.35114 0.0
C194 C 0.1727 0.11243 0.34169 0.0
C195 C 0.13125 0.1619 0.33645 0.0
C196 C 0.21175 0.10528 0.33645 0.0
C197 C 0.2379 0.12504 0.31822 0.0
C198 C 0.15971 0.13942 0.32861 0.0
C199 C 0.21973 0.14627 0.30441 0.0
C200 C 0.11154 0.18232 0.32302 0.0
C201 C 0.11967 0.20378 0.3644 0.0
N202 N 0.18237 0.15399 0.3101 0.0
N203 N 0.13321 0.17199 0.35676 0.0
H204 H 0.84884 0.08422 0.66995 0.0
H205 H 0.07589 0.22444 0.6303 0.0
H206 H 0.91658 0.17803 0.72209 0.0
H207 H 0.13349 0.24194 0.69144 0.0
H208 H -0.0053 0.16525 0.64315 0.0
H209 H 0.92947 0.09864 0.65908 0.0
C210 C 0.8806 0.10711 0.67935 0.0
C211 C 0.87634 0.13145 0.69657 0.0
C212 C 0.02534 0.18045 0.65369 0.0
C213 C 0.96863 0.14911 0.68387 0.0
C214 C 0.07182 0.21462 0.64631 0.0
C215 C 0.1113 0.23913 0.65986 0.0
C216 C 0.01832 0.17134 0.67479 0.0
C217 C 0.10389 0.22464 0.68046 0.0
C218 C 0.92663 0.11561 0.67302 0.0
C219 C 0.91837 0.15941 0.70848 0.0
N220 N 0.05795 0.19285 0.68741 0.0
N221 N 0.96309 0.16842 0.70164 0.0
H222 H 0.75897 0.8462 0.99196 0.0
H223 H 0.90217 0.12761 0.02258 0.0
H224 H 0.77273 0.90227 0.05323 0.0
H225 H 0.84005 0.07208 0.96312 0.0
H226 H 0.88696 0.04595 0.03194 0.0
H227 H 0.82004 0.92837 0.98046 0.0
C228 C 0.77583 0.87539 1.00315 0.0
C229 C 0.75948 0.8677 0.02351 0.0
C230 C 0.87787 0.052 0.01667 0.0
C231 C 0.8294 0.96157 0.01035 0.0
C232 C 0.88651 0.09859 0.01127 0.0
C233 C 0.87071 0.10624 0.99226 0.0
C234 C 0.85335 0.01288 1.00297 0.0
C235 C 0.85176 0.06756 0.9781 0.0
C236 C 0.81064 0.9223 0.99651 0.0
C237 C 0.78332 0.90678 0.03731 0.0
N238 N 0.84254 0.02213 0.98391 0.0
N239 N 0.81643 0.95234 0.03039 0.0
H240 H 0.74477 0.82382 0.29046 0.0
H241 H 0.87103 0.77651 0.38086 0.0
H242 H 0.76186 0.89299 0.34916 0.0
H243 H 0.897 0.75063 0.31858 0.0
H244 H 0.84705 0.83497 0.36866 0.0
H245 H 0.81455 0.81229 0.29843 0.0
C246 C 0.76398 0.83776 0.30478 0.0
C247 C 0.74639 0.85776 0.31946 0.0
C248 C 0.85926 0.81754 0.35766 0.0
C249 C 0.8256 0.84408 0.32881 0.0
C250 C 0.87302 0.78412 0.36466 0.0
C251 C 0.88442 0.75742 0.35069 0.0
C252 C 0.85573 0.82322 0.33655 0.0
C253 C 0.88726 0.76948 0.32989 0.0
C254 C 0.80389 0.8312 0.30935 0.0
C255 C 0.77318 0.87588 0.33765 0.0
N256 N 0.87147 0.80037 0.32338 0.0
N257 N 0.81063 0.86747 0.34203 0.0
H258 H 0.89755 0.76996 0.62442 0.0
H259 H 0.06816 0.84293 0.71742 0.0
H260 H 0.84343 0.75951 0.68588 0.0
H261 H 0.12211 0.89991 0.65714 0.0
H262 H 0.98664 0.82717 0.70724 0.0
H263 H 0.9793 0.83186 0.63595 0.0
C264 C 0.90252 0.78157 0.64022 0.0
C265 C 0.86396 0.75832 0.65432 0.0
C266 C 0.01662 0.84437 0.69639 0.0
C267 C 0.9576 0.82831 0.66773 0.0
C268 C 0.06326 0.85341 0.70223 0.0
C269 C 0.10158 0.87113 0.6879 0.0
C270 C 0.00829 0.85231 0.67602 0.0
C271 C 0.09323 0.88476 0.66853 0.0
C272 C 0.94928 0.817 0.64684 0.0
C273 C 0.87239 0.77552 0.67455 0.0
N274 N 0.04717 0.87378 0.66297 0.0
N275 N 0.91863 0.80844 0.68078 0.0
H276 H 0.68352 0.199 0.96241 0.0
H277 H 0.49169 0.17475 0.04892 0.0
H278 H 0.69722 0.17284 0.02609 0.0
H279 H 0.49241 0.22675 0.98785 0.0
H280 H 0.55987 0.16181 0.03947 0.0
H281 H 0.60566 0.19639 0.97011 0.0
C282 C 0.66984 0.192 0.97793 0.0
C283 C 0.69717 0.18666 0.99366 0.0
C284 C 0.54494 0.17585 0.02811 0.0
C285 C 0.60848 0.18388 1.00258 0.0
C286 C 0.50599 0.18324 0.0335 0.0
C287 C 0.48656 0.20232 0.01922 0.0
C288 C 0.56454 0.18744 0.00828 0.0
C289 C 0.5065 0.21241 0.99943 0.0
C290 C 0.62557 0.19079 0.98234 0.0
C291 C 0.67769 0.17773 0.01351 0.0
N292 N 0.5445 0.20503 0.99457 0.0
N293 N 0.63475 0.17692 0.01742 0.0
H294 H 0.29777 0.48664 0.38413 0.0
H295 H 0.46546 0.674 0.29653 0.0
H296 H 0.24926 0.48078 0.32203 0.0
H297 H 0.50171 0.69558 0.36062 0.0
H298 H 0.39113 0.59627 0.30478 0.0
H299 H 0.37772 0.55687 0.37493 0.0
C300 C 0.30398 0.49989 0.36854 0.0
C301 C 0.26657 0.47799 0.35388 0.0
C302 C 0.41557 0.61793 0.31701 0.0
C303 C 0.358 0.55825 0.34324 0.0
C304 C 0.4581 0.66219 0.31229 0.0
C305 C 0.48966 0.69159 0.32791 0.0
C306 C 0.40471 0.60285 0.33746 0.0
C307 C 0.47823 0.67439 0.34809 0.0
C308 C 0.3496 0.54003 0.36331 0.0
C309 C 0.27682 0.49672 0.3339 0.0
N310 N 0.43663 0.63131 0.35228 0.0
N311 N 0.32146 0.5358 0.32919 0.0
H312 H 0.77854 0.31507 0.72013 0.0
H313 H 0.80078 0.4982 0.63022 0.0
H314 H 0.79353 0.29007 0.65641 0.0
H315 H 0.75612 0.50771 0.69162 0.0
H316 H 0.81034 0.42863 0.64065 0.0
H317 H 0.78253 0.39277 0.71098 0.0
C318 C 0.78318 0.32612 0.70426 0.0
C319 C 0.78525 0.2958 0.689 0.0
C320 C 0.79866 0.4461 0.65186 0.0
C321 C 0.7898 0.38445 0.67844 0.0
C322 C 0.79326 0.48589 0.64592 0.0
C323 C 0.7772 0.5086 0.66001 0.0
C324 C 0.78813 0.42896 0.67206 0.0
C325 C 0.76819 0.49109 0.68018 0.0
C326 C 0.78526 0.37035 0.69904 0.0
C327 C 0.79127 0.312 0.66868 0.0
N328 N 0.77361 0.45221 0.68559 0.0
N329 N 0.79315 0.35506 0.664 0.0
H330 H 0.31771 0.78595 0.96056 0.0
H331 H 0.50007 0.80606 0.05047 0.0
H332 H 0.29348 0.80275 0.02419 0.0
H333 H 0.50942 0.76229 0.9889 0.0
H334 H 0.43095 0.81663 0.04012 0.0
H335 H 0.3951 0.78929 0.96973 0.0
C336 C 0.32889 0.79088 0.97641 0.0
C337 C 0.29883 0.79361 0.99164 0.0
C338 C 0.4483 0.80493 0.02886 0.0
C339 C 0.38712 0.79732 1.00224 0.0
C340 C 0.48782 0.79895 0.03475 0.0
C341 C 0.51034 0.78285 0.02058 0.0
C342 C 0.43129 0.79497 0.00863 0.0
C343 C 0.49293 0.77435 1.0004 0.0
C344 C 0.37294 0.79257 0.98165 0.0
C345 C 0.3152 0.79999 0.01195 0.0
N346 N 0.45436 0.78035 0.99505 0.0
N347 N 0.35807 0.8014 0.01665 0.0
H348 H 0.51785 0.31866 0.29336 0.0
H349 H 0.68425 0.50682 0.38075 0.0
H350 H 0.47526 0.3048 0.35674 0.0
H351 H 0.73575 0.50716 0.31958 0.0
H352 H 0.60279 0.44022 0.37097 0.0
H353 H 0.59279 0.39593 0.30142 0.0
C354 C 0.52384 0.33221 0.30889 0.0
C355 C 0.49051 0.30492 0.32443 0.0
C356 C 0.63188 0.45508 0.35966 0.0
C357 C 0.57624 0.39299 0.33378 0.0
C358 C 0.67841 0.49311 0.36524 0.0
C359 C 0.71708 0.51232 0.35103 0.0
C360 C 0.62386 0.43619 0.33972 0.0
C361 C 0.70722 0.4932 0.33111 0.0
C362 C 0.56676 0.37617 0.31351 0.0
C363 C 0.5002 0.3243 0.3443 0.0
N364 N 0.66168 0.45608 0.32608 0.0
N365 N 0.54232 0.3669 0.34842 0.0
H366 H 0.22092 0.49069 0.69324 0.0
H367 H 0.16461 0.6979 0.65387 0.0
H368 H 0.17017 0.494 0.63234 0.0
H369 H 0.19437 0.68329 0.71699 0.0
H370 H 0.16204 0.62061 0.64626 0.0
H371 H 0.20803 0.55877 0.70269 0.0
C372 C 0.2069 0.50559 0.68185 0.0
C373 C 0.19702 0.48682 0.66189 0.0
C374 C 0.16863 0.63394 0.66183 0.0
C375 C 0.18219 0.56488 0.67267 0.0
C376 C 0.17012 0.67813 0.6662 0.0
C377 C 0.18018 0.69733 0.68608 0.0
C378 C 0.17787 0.60887 0.67738 0.0
C379 C 0.18658 0.66988 0.70145 0.0
C380 C 0.19938 0.54438 0.68731 0.0
C381 C 0.17855 0.5074 0.64787 0.0
N382 N 0.18594 0.62729 0.69673 0.0
N383 N 0.17211 0.54555 0.65349 0.0
H384 H 0.32112 0.1296 0.11642 0.0
H385 H 0.42983 0.22972 0.22789 0.0
H386 H 0.46193 0.25913 0.1275 0.0
H387 H 0.30083 0.08812 0.21748 0.0
H388 H 0.43974 0.24255 0.19106 0.0
H389 H 0.31102 0.11462 0.15328 0.0
C390 C 0.35001 0.15474 0.12656 0.0
C391 C 0.39243 0.19572 0.11881 0.0
C392 C 0.40925 0.20863 0.19681 0.0
C393 C 0.3809 0.17904 0.16102 0.0
C394 C 0.40347 0.20134 0.21787 0.0
C395 C 0.36443 0.15774 0.22584 0.0
C396 C 0.37563 0.17222 0.18352 0.0
C397 C 0.33152 0.12227 0.21205 0.0
C398 C 0.3442 0.14619 0.14761 0.0
C399 C 0.42861 0.22706 0.13272 0.0
N400 N 0.3378 0.13032 0.19158 0.0
N401 N 0.42191 0.21819 0.1531 0.0
H402 H 0.17238 0.31026 0.4505 0.0
H403 H 0.16396 0.40779 0.56274 0.0
H404 H 0.16962 0.44427 0.46246 0.0
H405 H 0.1922 0.28843 0.55142 0.0
H406 H 0.15895 0.41721 0.52595 0.0
H407 H 0.1742 0.298 0.48735 0.0
C408 C 0.17234 0.33719 0.46084 0.0
C409 C 0.17095 0.37842 0.45333 0.0
C410 C 0.1661 0.38885 0.53151 0.0
C411 C 0.1725 0.36434 0.49552 0.0
C412 C 0.16871 0.38328 0.55254 0.0
C413 C 0.17867 0.34735 0.56022 0.0
C414 C 0.17325 0.35814 0.51799 0.0
C415 C 0.18461 0.31675 0.54621 0.0
C416 C 0.17331 0.33013 0.48188 0.0
C417 C 0.17084 0.41202 0.46749 0.0
N418 N 0.18189 0.32288 0.5258 0.0
N419 N 0.17143 0.40415 0.48785 0.0
H420 H 0.80801 0.14057 0.89896 0.0
H421 H 0.79702 0.23842 0.78714 0.0
H422 H 0.81365 0.27891 0.88759 0.0
H423 H 0.78075 0.09555 0.79878 0.0
H424 H 0.80586 0.25501 0.82379 0.0
H425 H 0.80026 0.12436 0.86227 0.0
C426 C 0.80757 0.16754 0.88877 0.0
C427 C 0.81146 0.21119 0.89642 0.0
C428 C 0.8004 0.22004 0.81833 0.0
C429 C 0.80273 0.19287 0.85431 0.0
C430 C 0.79544 0.21056 0.79738 0.0
C431 C 0.78807 0.16547 0.78982 0.0
C432 C 0.79812 0.18425 0.83189 0.0
C433 C 0.78629 0.13079 0.80388 0.0
C434 C 0.80315 0.15825 0.8678 0.0
C435 C 0.8107 0.24475 0.88243 0.0
N436 N 0.79127 0.1409 0.8242 0.0
N437 N 0.80649 0.23492 0.86209 0.0
H438 H 0.52436 0.72434 0.12932 0.0
H439 H 0.68961 0.89862 0.2204 0.0
H440 H 0.66767 0.85198 0.12002 0.0
H441 H 0.55567 0.76035 0.22959 0.0
H442 H 0.6804 0.88483 0.18356 0.0
H443 H 0.53303 0.74015 0.16594 0.0
C444 C 0.55759 0.7559 0.13494 0.0
C445 C 0.5954 0.78683 0.12152 0.0
C446 C 0.65306 0.85749 0.19363 0.0
C447 C 0.60563 0.80505 0.16361 0.0
C448 C 0.65828 0.86532 0.2147 0.0
C449 C 0.62338 0.83056 0.22816 0.0
C450 C 0.6125 0.8147 0.18592 0.0
C451 C 0.58355 0.78811 0.21983 0.0
C452 C 0.56257 0.76479 0.15591 0.0
C453 C 0.6376 0.82711 0.12978 0.0
N454 N 0.57917 0.78146 0.19928 0.0
N455 N 0.64159 0.83503 0.15028 0.0
H456 H 0.78753 0.70559 0.54806 0.0
H457 H 0.80538 0.53691 0.46067 0.0
H458 H 0.80587 0.58034 0.56016 0.0
H459 H 0.81165 0.67516 0.4483 0.0
H460 H 0.80145 0.55041 0.49711 0.0
H461 H 0.79356 0.69397 0.5115 0.0
C462 C 0.79312 0.67581 0.54305 0.0
C463 C 0.79613 0.64385 0.55724 0.0
C464 C 0.80368 0.57782 0.48645 0.0
C465 C 0.80258 0.63006 0.51534 0.0
C466 C 0.80569 0.57004 0.46559 0.0
C467 C 0.80885 0.60496 0.45135 0.0
C468 C 0.80454 0.62074 0.49321 0.0
C469 C 0.80926 0.64724 0.45871 0.0
C470 C 0.79651 0.66918 0.52216 0.0
C471 C 0.80341 0.60593 0.54982 0.0
N472 N 0.80708 0.65392 0.47913 0.0
N473 N 0.8061 0.59994 0.5294 0.0
H474 H 0.23767 0.79948 0.89296 0.0
H475 H 0.13415 0.80534 0.78178 0.0
H476 H 0.09315 0.78023 0.88231 0.0
H477 H 0.27353 0.81237 0.79225 0.0
H478 H 0.1193 0.79827 0.81858 0.0
H479 H 0.2525 0.8069 0.85618 0.0
C480 C 0.20907 0.79692 0.88291 0.0
C481 C 0.16406 0.78917 0.89078 0.0
C482 C 0.15311 0.80129 0.81283 0.0
C483 C 0.18081 0.7976 0.84856 0.0
C484 C 0.16162 0.80533 0.79179 0.0
C485 C 0.20517 0.80944 0.78387 0.0
C486 C 0.18845 0.80153 0.82609 0.0
C487 C 0.23941 0.80922 0.79763 0.0
C488 C 0.21754 0.80107 0.86188 0.0
C489 C 0.12839 0.78612 0.87696 0.0
N490 N 0.23035 0.80543 0.81803 0.0
N491 N 0.13753 0.79034 0.85656 0.0
H492 H 0.51878 0.62731 0.07894 0.0
H493 H 0.37086 0.38573 0.04543 0.0
H494 H 0.61665 0.59522 0.04437 0.0
H495 H 0.48034 0.36059 0.07394 0.0
H496 H 0.41963 0.47315 0.05459 0.0
H497 H 0.4664 0.53895 0.08598 0.0
C498 C 0.53015 0.60186 0.07349 0.0
C499 C 0.57166 0.6181 0.06091 0.0
C500 C 0.43201 0.44805 0.0594 0.0
C501 C 0.51293 0.51837 0.06915 0.0
C502 C 0.40445 0.3985 0.05413 0.0
C503 C 0.42177 0.36639 0.05907 0.0
C504 C 0.47782 0.46546 0.06891 0.0
C505 C 0.46578 0.38447 0.07009 0.0
C506 C 0.50023 0.55174 0.07743 0.0
C507 C 0.58464 0.58382 0.05399 0.0
N508 N 0.49333 0.43338 0.07406 0.0
N509 N 0.5551 0.53529 0.05812 0.0
H510 H 0.01346 0.61603 0.37614 0.0
H511 H 0.96843 0.36374 0.3763 0.0
H512 H 0.87799 0.51225 0.40574 0.0
H513 H 0.1009 0.46714 0.40776 0.0
H514 H 0.93224 0.41552 0.38442 0.0
H515 H 0.04841 0.56357 0.38498 0.0
C516 C 0.99168 0.58285 0.38495 0.0
C517 C 0.94303 0.56819 0.39029 0.0
C518 C 0.96864 0.42591 0.39006 0.0
C519 C 0.98172 0.50789 0.39967 0.0
C520 C 0.98921 0.39661 0.38541 0.0
C521 C 0.03747 0.41143 0.39143 0.0
C522 C -0.00254 0.47103 0.39997 0.0
C523 C 0.06338 0.45452 0.40301 0.0
C524 C 0.01155 0.55318 0.39003 0.0
C525 C 0.91584 0.52472 0.40152 0.0
N526 N 0.04362 0.48386 0.40635 0.0
N527 N 0.93504 0.49508 0.40531 0.0
H528 H 0.6097 0.01041 0.68684 0.0
H529 H 0.35497 0.93036 0.74126 0.0
H530 H 0.60978 0.08554 0.74205 0.0
H531 H 0.37896 0.94099 0.67607 0.0
H532 H 0.44499 0.97148 0.74627 0.0
H533 H 0.52039 0.96298 0.68815 0.0
C534 C 0.59089 0.0164 0.69944 0.0
C535 C 0.617 0.05266 0.71412 0.0
C536 C 0.43006 0.96483 0.73096 0.0
C537 C 0.5147 -0.00119 0.71555 0.0
C538 C 0.37898 0.94165 0.72806 0.0
C539 C 0.35937 0.932 0.70821 0.0
C540 C 0.46098 0.9771 0.71387 0.0
C541 C 0.3921 0.94733 0.69166 0.0
C542 C 0.53994 0.98947 0.70012 0.0
C543 C 0.59078 0.05814 0.73035 0.0
N544 N 0.44107 0.96855 0.69488 0.0
N545 N 0.5406 0.03189 0.7305 0.0
H546 H 0.62131 0.51617 0.60128 0.0
H547 H 0.37882 0.37044 0.63434 0.0
H548 H 0.59084 0.61562 0.63546 0.0
H549 H 0.35598 0.48172 0.60617 0.0
H550 H 0.46651 0.41841 0.62537 0.0
H551 H 0.53278 0.46456 0.59435 0.0
C552 C 0.59618 0.52801 0.60668 0.0
C553 C 0.61292 0.56976 0.61911 0.0
C554 C 0.44184 0.43138 0.62061 0.0
C555 C 0.51301 0.51191 0.611 0.0
C556 C 0.39216 0.40429 0.62578 0.0
C557 C 0.36062 0.42234 0.62088 0.0
C558 C 0.45995 0.47742 0.61123 0.0
C559 C 0.3794 0.46662 0.61001 0.0
C560 C 0.54597 0.49853 0.60281 0.0
C561 C 0.57905 0.58338 0.62597 0.0
N562 N 0.42842 0.49365 0.60611 0.0
N563 N 0.53041 0.55427 0.6219 0.0
H564 H 0.08172 0.61791 0.93786 0.0
H565 H 0.956 0.37993 1.00568 0.0
H566 H 0.02449 0.61182 0.99843 0.0
H567 H 0.92456 0.3637 0.94105 0.0
H568 H -0.00165 0.46843 1.00171 0.0
H569 H 0.03579 0.52717 0.93682 0.0
C570 C 0.05889 0.59766 0.95073 0.0
C571 C 0.05763 0.62237 0.96843 0.0
C572 C 0.98228 0.44555 0.98836 0.0
C573 C 0.00655 0.51984 0.96743 0.0
C574 C 0.95831 0.39491 0.99056 0.0
C575 C 0.93599 0.36423 0.97371 0.0
C576 C 0.98456 0.46611 0.96915 0.0
C577 C 0.941 0.38612 0.95446 0.0
C578 C 0.03297 0.54611 0.95013 0.0
C579 C 0.02742 0.59444 0.98464 0.0
N580 N 0.96476 0.43608 0.95267 0.0
N581 N 0.00377 0.54478 0.98386 0.0
H582 H 0.59369 0.97272 0.3353 0.0
H583 H 0.43749 0.06631 0.27337 0.0
H584 H 0.53388 0.91139 0.27617 0.0
H585 H 0.44962 0.0658 0.33903 0.0
H586 H 0.48366 0.02171 0.27098 0.0
H587 H 0.5558 0.02375 0.33307 0.0
C588 C 0.57287 0.97029 0.32173 0.0
C589 C 0.56607 0.93707 0.30608 0.0
C590 C 0.47587 0.03143 0.28582 0.0
C591 C 0.52201 -0.00486 0.30354 0.0
C592 C 0.44952 0.05665 0.28722 0.0
C593 C 0.43974 0.06987 0.30642 0.0
C594 C 0.49301 0.02046 0.30373 0.0
C595 C 0.4562 0.05653 0.32388 0.0
C596 C 0.55109 -0.00067 0.3205 0.0
C597 C 0.53957 0.93629 0.28865 0.0
N598 N 0.48222 0.03296 0.32208 0.0
N599 N 0.51782 0.96459 0.28793 0.0
loop_
_geom_bond_atom_site_label_1
_geom_bond_atom_site_label_2
_geom_bond_distance
_geom_bond_site_symmetry_2
_ccdc_geom_bond_type
Zn0 O3 2.031 . S
Zn0 O5 2.049 . S
Zn0 O10 2.067 . S
Zn1 O2 1.962 . S
Zn1 O4 1.986 . S
Zn1 O6 1.996 . S
Zn1 O9 1.943 . S
O2 Zn1 1.962 . S
O2 C7 1.254 . S
O3 Zn0 2.031 . S
O3 C7 1.269 . S
O4 Zn1 1.986 . S
O4 C11 1.262 . S
O5 Zn0 2.049 . S
O5 C13 1.260 . S
O6 Zn1 1.996 . S
O6 C13 1.257 . S
C7 O2 1.254 . S
C7 O3 1.269 . S
C8 O9 1.249 . S
C8 O10 1.270 . S
O9 Zn1 1.943 . S
O9 C8 1.249 . S
O10 Zn0 2.067 . S
O10 C8 1.270 . S
C11 O4 1.262 . S
C11 O12 1.232 . S
O12 C11 1.232 . S
C13 O5 1.260 . S
C13 O6 1.257 . S
Zn14 O17 2.031 . S
Zn14 O19 2.049 . S
Zn14 O24 2.067 . S
Zn15 O16 1.962 . S
Zn15 O18 1.986 . S
Zn15 O20 1.996 . S
Zn15 O23 1.943 . S
O16 Zn15 1.962 . S
O16 C21 1.254 . S
O17 Zn14 2.031 . S
O17 C21 1.269 . S
O18 Zn15 1.986 . S
O18 C25 1.262 . S
O19 Zn14 2.049 . S
O19 C27 1.260 . S
O20 Zn15 1.996 . S
O20 C27 1.257 . S
C21 O16 1.254 . S
C21 O17 1.269 . S
C22 O23 1.249 . S
C22 O24 1.270 . S
O23 Zn15 1.943 . S
O23 C22 1.249 . S
O24 Zn14 2.067 . S
O24 C22 1.270 . S
C25 O18 1.262 . S
C25 O26 1.232 . S
O26 C25 1.232 . S
C27 O19 1.260 . S
C27 O20 1.257 . S
Zn28 O31 2.031 . S
Zn28 O33 2.049 . S
Zn28 O38 2.067 . S
Zn29 O30 1.962 . S
Zn29 O32 1.986 . S
Zn29 O34 1.996 . S
Zn29 O37 1.943 . S
O30 Zn29 1.962 . S
O30 C35 1.254 . S
O31 Zn28 2.031 . S
O31 C35 1.269 . S
O32 Zn29 1.986 . S
O32 C39 1.262 . S
O33 Zn28 2.049 . S
O33 C41 1.260 . S
O34 Zn29 1.996 . S
O34 C41 1.257 . S
C35 O30 1.254 . S
C35 O31 1.269 . S
C36 O37 1.249 . S
C36 O38 1.270 . S
O37 Zn29 1.943 . S
O37 C36 1.249 . S
O38 Zn28 2.067 . S
O38 C36 1.270 . S
C39 O32 1.262 . S
C39 O40 1.232 . S
O40 C39 1.232 . S
C41 O33 1.260 . S
C41 O34 1.257 . S
Zn42 O45 2.031 . S
Zn42 O47 2.049 . S
Zn42 O52 2.067 . S
Zn43 O44 1.962 . S
Zn43 O46 1.986 . S
Zn43 O48 1.996 . S
Zn43 O51 1.943 . S
O44 Zn43 1.962 . S
O44 C49 1.254 . S
O45 Zn42 2.031 . S
O45 C49 1.269 . S
O46 Zn43 1.986 . S
O46 C53 1.262 . S
O47 Zn42 2.049 . S
O47 C55 1.260 . S
O48 Zn43 1.996 . S
O48 C55 1.257 . S
C49 O44 1.254 . S
C49 O45 1.269 . S
C50 O51 1.249 . S
C50 O52 1.270 . S
O51 Zn43 1.943 . S
O51 C50 1.249 . S
O52 Zn42 2.067 . S
O52 C50 1.270 . S
C53 O46 1.262 . S
C53 O54 1.232 . S
O54 C53 1.232 . S
C55 O47 1.260 . S
C55 O48 1.257 . S
Zn56 O59 2.031 . S
Zn56 O61 2.049 . S
Zn56 O66 2.067 . S
Zn57 O58 1.962 . S
Zn57 O60 1.986 . S
Zn57 O62 1.996 . S
Zn57 O65 1.943 . S
O58 Zn57 1.962 . S
O58 C63 1.254 . S
O59 Zn56 2.031 . S
O59 C63 1.269 . S
O60 Zn57 1.986 . S
O60 C67 1.262 . S
O61 Zn56 2.049 . S
O61 C69 1.260 . S
O62 Zn57 1.996 . S
O62 C69 1.257 . S
C63 O58 1.254 . S
C63 O59 1.269 . S
C64 O65 1.249 . S
C64 O66 1.270 . S
O65 Zn57 1.943 . S
O65 C64 1.249 . S
O66 Zn56 2.067 . S
O66 C64 1.270 . S
C67 O60 1.262 . S
C67 O68 1.232 . S
O68 C67 1.232 . S
C69 O61 1.260 . S
C69 O62 1.257 . S
Zn70 O73 2.031 . S
Zn70 O75 2.049 . S
Zn70 O80 2.067 . S
Zn71 O72 1.962 . S
Zn71 O74 1.986 . S
Zn71 O76 1.996 . S
Zn71 O79 1.943 . S
O72 Zn71 1.962 . S
O72 C77 1.254 . S
O73 Zn70 2.031 . S
O73 C77 1.269 . S
O74 Zn71 1.986 . S
O74 C81 1.262 . S
O75 Zn70 2.049 . S
O75 C83 1.260 . S
O76 Zn71 1.996 . S
O76 C83 1.257 . S
C77 O72 1.254 . S
C77 O73 1.269 . S
C78 O79 1.249 . S
C78 O80 1.270 . S
O79 Zn71 1.943 . S
O79 C78 1.249 . S
O80 Zn70 2.067 . S
O80 C78 1.270 . S
C81 O74 1.262 . S
C81 O82 1.232 . S
O82 C81 1.232 . S
C83 O75 1.260 . S
C83 O76 1.257 . S
Zn84 O87 2.031 . S
Zn84 O89 2.049 . S
Zn84 O94 2.067 . S
Zn85 O86 1.962 . S
Zn85 O88 1.986 . S
Zn85 O90 1.996 . S
Zn85 O93 1.943 . S
O86 Zn85 1.962 . S
O86 C91 1.254 . S
O87 Zn84 2.031 . S
O87 C91 1.269 . S
O88 Zn85 1.986 . S
O88 C95 1.262 . S
O89 Zn84 2.049 . S
O89 C97 1.260 . S
O90 Zn85 1.996 . S
O90 C97 1.257 . S
C91 O86 1.254 . S
C91 O87 1.269 . S
C92 O93 1.249 . S
C92 O94 1.270 . S
O93 Zn85 1.943 . S
O93 C92 1.249 . S
O94 Zn84 2.067 . S
O94 C92 1.270 . S
C95 O88 1.262 . S
C95 O96 1.232 . S
O96 C95 1.232 . S
C97 O89 1.260 . S
C97 O90 1.257 . S
Zn98 O101 2.031 . S
Zn98 O103 2.049 . S
Zn98 O108 2.067 . S
Zn99 O100 1.962 . S
Zn99 O102 1.986 . S
Zn99 O104 1.996 . S
Zn99 O107 1.943 . S
O100 Zn99 1.962 . S
O100 C105 1.254 . S
O101 Zn98 2.031 . S
O101 C105 1.269 . S
O102 Zn99 1.986 . S
O102 C109 1.262 . S
O103 Zn98 2.049 . S
O103 C111 1.260 . S
O104 Zn99 1.996 . S
O104 C111 1.257 . S
C105 O100 1.254 . S
C105 O101 1.269 . S
C106 O107 1.249 . S
C106 O108 1.270 . S
O107 Zn99 1.943 . S
O107 C106 1.249 . S
O108 Zn98 2.067 . S
O108 C106 1.270 . S
C109 O102 1.262 . S
C109 O110 1.232 . S
O110 C109 1.232 . S
C111 O103 1.260 . S
C111 O104 1.257 . S
Zn112 O115 2.031 . S
Zn112 O117 2.049 . S
Zn112 O122 2.067 . S
Zn113 O114 1.962 . S
Zn113 O116 1.986 . S
Zn113 O118 1.996 . S
Zn113 O121 1.943 . S
O114 Zn113 1.962 . S
O114 C119 1.254 . S
O115 Zn112 2.031 . S
O115 C119 1.269 . S
O116 Zn113 1.986 . S
O116 C123 1.262 . S
O117 Zn112 2.049 . S
O117 C125 1.260 . S
O118 Zn113 1.996 . S
O118 C125 1.257 . S
C119 O114 1.254 . S
C119 O115 1.269 . S
C120 O121 1.249 . S
C120 O122 1.270 . S
O121 Zn113 1.943 . S
O121 C120 1.249 . S
O122 Zn112 2.067 . S
O122 C120 1.270 . S
C123 O116 1.262 . S
C123 O124 1.232 . S
O124 C123 1.232 . S
C125 O117 1.260 . S
C125 O118 1.257 . S
Zn126 O129 2.031 . S
Zn126 O131 2.049 . S
Zn126 O136 2.067 . S
Zn127 O128 1.962 . S
Zn127 O130 1.986 . S
Zn127 O132 1.996 . S
Zn127 O135 1.943 . S
O128 Zn127 1.962 . S
O128 C133 1.254 . S
O129 Zn126 2.031 . S
O129 C133 1.269 . S
O130 Zn127 1.986 . S
O130 C137 1.262 . S
O131 Zn126 2.049 . S
O131 C139 1.260 . S
O132 Zn127 1.996 . S
O132 C139 1.257 . S
C133 O128 1.254 . S
C133 O129 1.269 . S
C134 O135 1.249 . S
C134 O136 1.270 . S
O135 Zn127 1.943 . S
O135 C134 1.249 . S
O136 Zn126 2.067 . S
O136 C134 1.270 . S
C137 O130 1.262 . S
C137 O138 1.232 . S
O138 C137 1.232 . S
C139 O131 1.260 . S
C139 O132 1.257 . S
Zn140 O143 2.031 . S
Zn140 O145 2.049 . S
Zn140 O150 2.067 . S
Zn141 O142 1.962 . S
Zn141 O144 1.986 . S
Zn141 O146 1.996 . S
Zn141 O149 1.943 . S
O142 Zn141 1.962 . S
O142 C147 1.254 . S
O143 Zn140 2.031 . S
O143 C147 1.269 . S
O144 Zn141 1.986 . S
O144 C151 1.262 . S
O145 Zn140 2.049 . S
O145 C153 1.260 . S
O146 Zn141 1.996 . S
O146 C153 1.257 . S
C147 O142 1.254 . S
C147 O143 1.269 . S
C148 O149 1.249 . S
C148 O150 1.270 . S
O149 Zn141 1.943 . S
O149 C148 1.249 . S
O150 Zn140 2.067 . S
O150 C148 1.270 . S
C151 O144 1.262 . S
C151 O152 1.232 . S
O152 C151 1.232 . S
C153 O145 1.260 . S
C153 O146 1.257 . S
Zn154 O157 2.031 . S
Zn154 O159 2.049 . S
Zn154 O164 2.067 . S
Zn155 O156 1.962 . S
Zn155 O158 1.986 . S
Zn155 O160 1.996 . S
Zn155 O163 1.943 . S
O156 Zn155 1.962 . S
O156 C161 1.254 . S
O157 Zn154 2.031 . S
O157 C161 1.269 . S
O158 Zn155 1.986 . S
O158 C165 1.262 . S
O159 Zn154 2.049 . S
O159 C167 1.260 . S
O160 Zn155 1.996 . S
O160 C167 1.257 . S
C161 O156 1.254 . S
C161 O157 1.269 . S
C162 O163 1.249 . S
C162 O164 1.270 . S
O163 Zn155 1.943 . S
O163 C162 1.249 . S
O164 Zn154 2.067 . S
O164 C162 1.270 . S
C165 O158 1.262 . S
C165 O166 1.232 . S
O166 C165 1.232 . S
C167 O159 1.260 . S
C167 O160 1.257 . S
H168 C174 0.930 . S
H169 C178 0.930 . S
H170 C183 0.929 . S
H171 C181 0.929 . S
H172 C176 0.929 . S
H173 C182 0.929 . S
C174 H168 0.930 . S
C174 C175 1.367 . S
C174 C182 1.378 . S
C175 C174 1.367 . S
C175 C183 1.433 . S
C176 H172 0.929 . S
C176 C178 1.378 . S
C176 C180 1.350 . S
C177 C180 1.463 1_566 S
C177 C182 1.350 . S
C177 N185 1.427 . S
C178 H169 0.930 . S
C178 C176 1.378 . S
C178 C179 1.367 . S
C179 C178 1.367 . S
C179 C181 1.433 . S
C180 C176 1.350 . S
C180 C177 1.463 1_544 S
C180 N184 1.427 . S
C181 H171 0.929 . S
C181 C179 1.433 . S
C181 N184 1.384 . S
C182 H173 0.929 . S
C182 C174 1.378 . S
C182 C177 1.350 . S
C183 H170 0.929 . S
C183 C175 1.433 . S
C183 N185 1.384 . S
N184 C180 1.427 . S
N184 C181 1.384 . S
N185 C177 1.427 . S
N185 C183 1.384 . S
H186 C192 0.930 . S
H187 C196 0.930 . S
H188 C201 0.929 . S
H189 C199 0.929 . S
H190 C194 0.929 . S
H191 C200 0.929 . S
C192 H186 0.930 . S
C192 C193 1.367 . S
C192 C200 1.378 . S
C193 C192 1.367 . S
C193 C201 1.433 . S
C194 H190 0.929 . S
C194 C196 1.378 . S
C194 C198 1.350 . S
C195 C198 1.463 . S
C195 C200 1.350 . S
C195 N203 1.427 . S
C196 H187 0.930 . S
C196 C194 1.378 . S
C196 C197 1.367 . S
C197 C196 1.367 . S
C197 C199 1.433 . S
C198 C194 1.350 . S
C198 C195 1.463 . S
C198 N202 1.427 . S
C199 H189 0.929 . S
C199 C197 1.433 . S
C199 N202 1.384 . S
C200 H191 0.929 . S
C200 C192 1.378 . S
C200 C195 1.350 . S
C201 H188 0.929 . S
C201 C193 1.433 . S
C201 N203 1.384 . S
N202 C198 1.427 . S
N202 C199 1.384 . S
N203 C195 1.427 . S
N203 C201 1.384 . S
H204 C210 0.930 . S
H205 C214 0.930 . S
H206 C219 0.929 . S
H207 C217 0.929 . S
H208 C212 0.929 . S
H209 C218 0.929 . S
C210 H204 0.930 . S
C210 C211 1.367 . S
C210 C218 1.378 . S
C211 C210 1.367 . S
C211 C219 1.433 . S
C212 H208 0.929 . S
C212 C214 1.378 . S
C212 C216 1.350 . S
C213 C216 1.463 1_655 S
C213 C218 1.350 . S
C213 N221 1.427 . S
C214 H205 0.930 . S
C214 C212 1.378 . S
C214 C215 1.367 . S
C215 C214 1.367 . S
C215 C217 1.433 . S
C216 C212 1.350 . S
C216 C213 1.463 1_455 S
C216 N220 1.427 . S
C217 H207 0.929 . S
C217 C215 1.433 . S
C217 N220 1.384 . S
C218 H209 0.929 . S
C218 C210 1.378 . S
C218 C213 1.350 . S
C219 H206 0.929 . S
C219 C211 1.433 . S
C219 N221 1.384 . S
N220 C216 1.427 . S
N220 C217 1.384 . S
N221 C213 1.427 . S
N221 C219 1.384 . S
H222 C228 0.930 . S
H223 C232 0.930 . S
H224 C237 0.929 . S
H225 C235 0.929 . S
H226 C230 0.929 . S
H227 C236 0.929 . S
C228 H222 0.930 . S
C228 C229 1.367 . S
C228 C236 1.378 1_554 S
C229 C228 1.367 . S
C229 C237 1.433 . S
C230 H226 0.929 . S
C230 C232 1.378 1_554 S
C230 C234 1.350 1_554 S
C231 C234 1.463 1_564 S
C231 C236 1.350 1_554 S
C231 N239 1.427 . S
C232 H223 0.930 . S
C232 C230 1.378 1_556 S
C232 C233 1.367 . S
C233 C232 1.367 . S
C233 C235 1.433 . S
C234 C230 1.350 1_556 S
C234 C231 1.463 1_546 S
C234 N238 1.427 . S
C235 H225 0.929 . S
C235 C233 1.433 . S
C235 N238 1.384 . S
C236 H227 0.929 . S
C236 C228 1.378 1_556 S
C236 C231 1.350 1_556 S
C237 H224 0.929 . S
C237 C229 1.433 . S
C237 N239 1.384 . S
N238 C234 1.427 . S
N238 C235 1.384 . S
N239 C231 1.427 . S
N239 C237 1.384 . S
H240 C246 0.930 . S
H241 C250 0.930 . S
H242 C255 0.929 . S
H243 C253 0.929 . S
H244 C248 0.929 . S
H245 C254 0.929 . S
C246 H240 0.930 . S
C246 C247 1.367 . S
C246 C254 1.378 . S
C247 C246 1.367 . S
C247 C255 1.433 . S
C248 H244 0.929 . S
C248 C250 1.378 . S
C248 C252 1.350 . S
C249 C252 1.463 . S
C249 C254 1.350 . S
C249 N257 1.427 . S
C250 H241 0.930 . S
C250 C248 1.378 . S
C250 C251 1.367 . S
C251 C250 1.367 . S
C251 C253 1.433 . S
C252 C248 1.350 . S
C252 C249 1.463 . S
C252 N256 1.427 . S
C253 H243 0.929 . S
C253 C251 1.433 . S
C253 N256 1.384 . S
C254 H245 0.929 . S
C254 C246 1.378 . S
C254 C249 1.350 . S
C255 H242 0.929 . S
C255 C247 1.433 . S
C255 N257 1.384 . S
N256 C252 1.427 . S
N256 C253 1.384 . S
N257 C249 1.427 . S
N257 C255 1.384 . S
H258 C264 0.930 . S
H259 C268 0.930 . S
H260 C273 0.929 . S
H261 C271 0.929 . S
H262 C266 0.929 . S
H263 C272 0.929 . S
C264 H258 0.930 . S
C264 C265 1.367 . S
C264 C272 1.378 . S
C265 C264 1.367 . S
C265 C273 1.433 . S
C266 H262 0.929 . S
C266 C268 1.378 . S
C266 C270 1.350 . S
C267 C270 1.463 1_655 S
C267 C272 1.350 . S
C267 N275 1.427 . S
C268 H259 0.930 . S
C268 C266 1.378 . S
C268 C269 1.367 . S
C269 C268 1.367 . S
C269 C271 1.433 . S
C270 C266 1.350 . S
C270 C267 1.463 1_455 S
C270 N274 1.427 . S
C271 H261 0.929 . S
C271 C269 1.433 . S
C271 N274 1.384 . S
C272 H263 0.929 . S
C272 C264 1.378 . S
C272 C267 1.350 . S
C273 H260 0.929 . S
C273 C265 1.433 . S
C273 N275 1.384 . S
N274 C270 1.427 . S
N274 C271 1.384 . S
N275 C267 1.427 . S
N275 C273 1.384 . S
H276 C282 0.930 . S
H277 C286 0.930 . S
H278 C291 0.929 . S
H279 C289 0.929 . S
H280 C284 0.929 . S
H281 C290 0.929 . S
C282 H276 0.930 . S
C282 C283 1.367 . S
C282 C290 1.378 . S
C283 C282 1.367 . S
C283 C291 1.433 . S
C284 H280 0.929 . S
C284 C286 1.378 . S
C284 C288 1.350 . S
C285 C288 1.463 1_556 S
C285 C290 1.350 . S
C285 N293 1.427 . S
C286 H277 0.930 . S
C286 C284 1.378 . S
C286 C287 1.367 . S
C287 C286 1.367 . S
C287 C289 1.433 . S
C288 C284 1.350 . S
C288 C285 1.463 1_554 S
C288 N292 1.427 . S
C289 H279 0.929 . S
C289 C287 1.433 . S
C289 N292 1.384 . S
C290 H281 0.929 . S
C290 C282 1.378 . S
C290 C285 1.350 . S
C291 H278 0.929 . S
C291 C283 1.433 . S
C291 N293 1.384 . S
N292 C288 1.427 . S
N292 C289 1.384 . S
N293 C285 1.427 . S
N293 C291 1.384 . S
H294 C300 0.930 . S
H295 C304 0.930 . S
H296 C309 0.929 . S
H297 C307 0.929 . S
H298 C302 0.929 . S
H299 C308 0.929 . S
C300 H294 0.930 . S
C300 C301 1.367 . S
C300 C308 1.378 . S
C301 C300 1.367 . S
C301 C309 1.433 . S
C302 H298 0.929 . S
C302 C304 1.378 . S
C302 C306 1.350 . S
C303 C306 1.463 . S
C303 C308 1.350 . S
C303 N311 1.427 . S
C304 H295 0.930 . S
C304 C302 1.378 . S
C304 C305 1.367 . S
C305 C304 1.367 . S
C305 C307 1.433 . S
C306 C302 1.350 . S
C306 C303 1.463 . S
C306 N310 1.427 . S
C307 H297 0.929 . S
C307 C305 1.433 . S
C307 N310 1.384 . S
C308 H299 0.929 . S
C308 C300 1.378 . S
C308 C303 1.350 . S
C309 H296 0.929 . S
C309 C301 1.433 . S
C309 N311 1.384 . S
N310 C306 1.427 . S
N310 C307 1.384 . S
N311 C303 1.427 . S
N311 C309 1.384 . S
H312 C318 0.930 . S
H313 C322 0.930 . S
H314 C327 0.929 . S
H315 C325 0.929 . S
H316 C320 0.929 . S
H317 C326 0.929 . S
C318 H312 0.930 . S
C318 C319 1.367 . S
C318 C326 1.378 . S
C319 C318 1.367 . S
C319 C327 1.433 . S
C320 H316 0.929 . S
C320 C322 1.378 . S
C320 C324 1.350 . S
C321 C324 1.463 . S
C321 C326 1.350 . S
C321 N329 1.427 . S
C322 H313 0.930 . S
C322 C320 1.378 . S
C322 C323 1.367 . S
C323 C322 1.367 . S
C323 C325 1.433 . S
C324 C320 1.350 . S
C324 C321 1.463 . S
C324 N328 1.427 . S
C325 H315 0.929 . S
C325 C323 1.433 . S
C325 N328 1.384 . S
C326 H317 0.929 . S
C326 C318 1.378 . S
C326 C321 1.350 . S
C327 H314 0.929 . S
C327 C319 1.433 . S
C327 N329 1.384 . S
N328 C324 1.427 . S
N328 C325 1.384 . S
N329 C321 1.427 . S
N329 C327 1.384 . S
H330 C336 0.930 . S
H331 C340 0.930 . S
H332 C345 0.929 . S
H333 C343 0.929 . S
H334 C338 0.929 . S
H335 C344 0.929 . S
C336 H330 0.930 . S
C336 C337 1.367 . S
C336 C344 1.378 . S
C337 C336 1.367 . S
C337 C345 1.433 . S
C338 H334 0.929 . S
C338 C340 1.378 . S
C338 C342 1.350 . S
C339 C342 1.463 1_556 S
C339 C344 1.350 . S
C339 N347 1.417 1_556 S
C340 H331 0.930 . S
C340 C338 1.378 . S
C340 C341 1.367 . S
C341 C340 1.367 . S
C341 C343 1.433 . S
C342 C338 1.350 . S
C342 C339 1.463 1_554 S
C342 N346 1.417 1_554 S
C343 H333 0.929 . S
C343 C341 1.433 . S
C343 N346 1.367 1_554 S
C344 H335 0.929 . S
C344 C336 1.378 . S
C344 C339 1.350 . S
C345 H332 0.929 . S
C345 C337 1.433 . S
C345 N347 1.367 1_556 S
N346 C342 1.417 1_556 S
N346 C343 1.367 1_556 S
N347 C339 1.417 1_554 S
N347 C345 1.367 1_554 S
H348 C354 0.930 . S
H349 C358 0.930 . S
H350 C363 0.929 . S
H351 C361 0.929 . S
H352 C356 0.929 . S
H353 C362 0.929 . S
C354 H348 0.930 . S
C354 C355 1.367 . S
C354 C362 1.378 . S
C355 C354 1.367 . S
C355 C363 1.433 . S
C356 H352 0.929 . S
C356 C358 1.378 . S
C356 C360 1.350 . S
C357 C360 1.463 . S
C357 C362 1.350 . S
C357 N365 1.427 . S
C358 H349 0.930 . S
C358 C356 1.378 . S
C358 C359 1.367 . S
C359 C358 1.367 . S
C359 C361 1.433 . S
C360 C356 1.350 . S
C360 C357 1.463 . S
C360 N364 1.427 . S
C361 H351 0.929 . S
C361 C359 1.433 . S
C361 N364 1.384 . S
C362 H353 0.929 . S
C362 C354 1.378 . S
C362 C357 1.350 . S
C363 H350 0.929 . S
C363 C355 1.433 . S
C363 N365 1.384 . S
N364 C360 1.427 . S
N364 C361 1.384 . S
N365 C357 1.427 . S
N365 C363 1.384 . S
H366 C372 0.930 . S
H367 C376 0.930 . S
H368 C381 0.929 . S
H369 C379 0.929 . S
H370 C374 0.929 . S
H371 C380 0.929 . S
C372 H366 0.930 . S
C372 C373 1.367 . S
C372 C380 1.378 . S
C373 C372 1.367 . S
C373 C381 1.433 . S
C374 H370 0.929 . S
C374 C376 1.378 . S
C374 C378 1.350 . S
C375 C378 1.463 . S
C375 C380 1.350 . S
C375 N383 1.427 . S
C376 H367 0.930 . S
C376 C374 1.378 . S
C376 C377 1.367 . S
C377 C376 1.367 . S
C377 C379 1.433 . S
C378 C374 1.350 . S
C378 C375 1.463 . S
C378 N382 1.427 . S
C379 H369 0.929 . S
C379 C377 1.433 . S
C379 N382 1.384 . S
C380 H371 0.929 . S
C380 C372 1.378 . S
C380 C375 1.350 . S
C381 H368 0.929 . S
C381 C373 1.433 . S
C381 N383 1.384 . S
N382 C378 1.427 . S
N382 C379 1.384 . S
N383 C375 1.427 . S
N383 C381 1.384 . S
H384 C390 0.930 . S
H385 C394 0.930 . S
H386 C399 0.929 . S
H387 C397 0.929 . S
H388 C392 0.929 . S
H389 C398 0.929 . S
C390 H384 0.930 . S
C390 C391 1.367 . S
C390 C398 1.378 . S
C391 C390 1.367 . S
C391 C399 1.433 . S
C392 H388 0.929 . S
C392 C394 1.378 . S
C392 C396 1.350 . S
C393 C396 1.463 . S
C393 C398 1.350 . S
C393 N401 1.427 . S
C394 H385 0.930 . S
C394 C392 1.378 . S
C394 C395 1.367 . S
C395 C394 1.367 . S
C395 C397 1.433 . S
C396 C392 1.350 . S
C396 C393 1.463 . S
C396 N400 1.427 . S
C397 H387 0.929 . S
C397 C395 1.433 . S
C397 N400 1.384 . S
C398 H389 0.929 . S
C398 C390 1.378 . S
C398 C393 1.350 . S
C399 H386 0.929 . S
C399 C391 1.433 . S
C399 N401 1.384 . S
N400 C396 1.427 . S
N400 C397 1.384 . S
N401 C393 1.427 . S
N401 C399 1.384 . S
H402 C408 0.930 . S
H403 C412 0.930 . S
H404 C417 0.929 . S
H405 C415 0.929 . S
H406 C410 0.929 . S
H407 C416 0.929 . S
C408 H402 0.930 . S
C408 C409 1.367 . S
C408 C416 1.378 . S
C409 C408 1.367 . S
C409 C417 1.433 . S
C410 H406 0.929 . S
C410 C412 1.378 . S
C410 C414 1.350 . S
C411 C414 1.463 . S
C411 C416 1.350 . S
C411 N419 1.427 . S
C412 H403 0.930 . S
C412 C410 1.378 . S
C412 C413 1.367 . S
C413 C412 1.367 . S
C413 C415 1.433 . S
C414 C410 1.350 . S
C414 C411 1.463 . S
C414 N418 1.427 . S
C415 H405 0.929 . S
C415 C413 1.433 . S
C415 N418 1.384 . S
C416 H407 0.929 . S
C416 C408 1.378 . S
C416 C411 1.350 . S
C417 H404 0.929 . S
C417 C409 1.433 . S
C417 N419 1.384 . S
N418 C414 1.427 . S
N418 C415 1.384 . S
N419 C411 1.427 . S
N419 C417 1.384 . S
H420 C426 0.930 . S
H421 C430 0.930 . S
H422 C435 0.929 . S
H423 C433 0.929 . S
H424 C428 0.929 . S
H425 C434 0.929 . S
C426 H420 0.930 . S
C426 C427 1.367 . S
C426 C434 1.378 . S
C427 C426 1.367 . S
C427 C435 1.433 . S
C428 H424 0.929 . S
C428 C430 1.378 . S
C428 C432 1.350 . S
C429 C432 1.463 . S
C429 C434 1.350 . S
C429 N437 1.427 . S
C430 H421 0.930 . S
C430 C428 1.378 . S
C430 C431 1.367 . S
C431 C430 1.367 . S
C431 C433 1.433 . S
C432 C428 1.350 . S
C432 C429 1.463 . S
C432 N436 1.427 . S
C433 H423 0.929 . S
C433 C431 1.433 . S
C433 N436 1.384 . S
C434 H425 0.929 . S
C434 C426 1.378 . S
C434 C429 1.350 . S
C435 H422 0.929 . S
C435 C427 1.433 . S
C435 N437 1.384 . S
N436 C432 1.427 . S
N436 C433 1.384 . S
N437 C429 1.427 . S
N437 C435 1.384 . S
H438 C444 0.930 . S
H439 C448 0.930 . S
H440 C453 0.929 . S
H441 C451 0.929 . S
H442 C446 0.929 . S
H443 C452 0.929 . S
C444 H438 0.930 . S
C444 C445 1.367 . S
C444 C452 1.378 . S
C445 C444 1.367 . S
C445 C453 1.433 . S
C446 H442 0.929 . S
C446 C448 1.378 . S
C446 C450 1.350 . S
C447 C450 1.463 . S
C447 C452 1.350 . S
C447 N455 1.427 . S
C448 H439 0.930 . S
C448 C446 1.378 . S
C448 C449 1.367 . S
C449 C448 1.367 . S
C449 C451 1.433 . S
C450 C446 1.350 . S
C450 C447 1.463 . S
C450 N454 1.427 . S
C451 H441 0.929 . S
C451 C449 1.433 . S
C451 N454 1.384 . S
C452 H443 0.929 . S
C452 C444 1.378 . S
C452 C447 1.350 . S
C453 H440 0.929 . S
C453 C445 1.433 . S
C453 N455 1.384 . S
N454 C450 1.427 . S
N454 C451 1.384 . S
N455 C447 1.427 . S
N455 C453 1.384 . S
H456 C462 0.930 . S
H457 C466 0.930 . S
H458 C471 0.929 . S
H459 C469 0.929 . S
H460 C464 0.929 . S
H461 C470 0.929 . S
C462 H456 0.930 . S
C462 C463 1.367 . S
C462 C470 1.378 . S
C463 C462 1.367 . S
C463 C471 1.433 . S
C464 H460 0.929 . S
C464 C466 1.378 . S
C464 C468 1.350 . S
C465 C468 1.463 . S
C465 C470 1.350 . S
C465 N473 1.427 . S
C466 H457 0.930 . S
C466 C464 1.378 . S
C466 C467 1.367 . S
C467 C466 1.367 . S
C467 C469 1.433 . S
C468 C464 1.350 . S
C468 C465 1.463 . S
C468 N472 1.427 . S
C469 H459 0.929 . S
C469 C467 1.433 . S
C469 N472 1.384 . S
C470 H461 0.929 . S
C470 C462 1.378 . S
C470 C465 1.350 . S
C471 H458 0.929 . S
C471 C463 1.433 . S
C471 N473 1.384 . S
N472 C468 1.427 . S
N472 C469 1.384 . S
N473 C465 1.427 . S
N473 C471 1.384 . S
H474 C480 0.930 . S
H475 C484 0.930 . S
H476 C489 0.929 . S
H477 C487 0.929 . S
H478 C482 0.929 . S
H479 C488 0.929 . S
C480 H474 0.930 . S
C480 C481 1.367 . S
C480 C488 1.378 . S
C481 C480 1.367 . S
C481 C489 1.433 . S
C482 H478 0.929 . S
C482 C484 1.378 . S
C482 C486 1.350 . S
C483 C486 1.463 . S
C483 C488 1.350 . S
C483 N491 1.427 . S
C484 H475 0.930 . S
C484 C482 1.378 . S
C484 C485 1.367 . S
C485 C484 1.367 . S
C485 C487 1.433 . S
C486 C482 1.350 . S
C486 C483 1.463 . S
C486 N490 1.427 . S
C487 H477 0.929 . S
C487 C485 1.433 . S
C487 N490 1.384 . S
C488 H479 0.929 . S
C488 C480 1.378 . S
C488 C483 1.350 . S
C489 H476 0.929 . S
C489 C481 1.433 . S
C489 N491 1.384 . S
N490 C486 1.427 . S
N490 C487 1.384 . S
N491 C483 1.427 . S
N491 C489 1.384 . S
H492 C498 0.930 . S
H493 C502 0.930 . S
H494 C507 0.929 . S
H495 C505 0.929 . S
H496 C500 0.929 . S
H497 C506 0.929 . S
C498 H492 0.930 . S
C498 C499 1.367 . S
C498 C506 1.378 . S
C499 C498 1.367 . S
C499 C507 1.433 . S
C500 H496 0.929 . S
C500 C502 1.378 . S
C500 C504 1.350 . S
C501 C504 1.463 . S
C501 C506 1.350 . S
C501 N509 1.427 . S
C502 H493 0.930 . S
C502 C500 1.378 . S
C502 C503 1.367 . S
C503 C502 1.367 . S
C503 C505 1.433 . S
C504 C500 1.350 . S
C504 C501 1.463 . S
C504 N508 1.427 . S
C505 H495 0.929 . S
C505 C503 1.433 . S
C505 N508 1.384 . S
C506 H497 0.929 . S
C506 C498 1.378 . S
C506 C501 1.350 . S
C507 H494 0.929 . S
C507 C499 1.433 . S
C507 N509 1.384 . S
N508 C504 1.427 . S
N508 C505 1.384 . S
N509 C501 1.427 . S
N509 C507 1.384 . S
H510 C516 0.930 1_455 S
H511 C520 0.930 1_655 S
H512 C525 0.929 . S
H513 C523 0.929 . S
H514 C518 0.929 . S
H515 C524 0.929 . S
C516 H510 0.930 1_655 S
C516 C517 1.367 . S
C516 C524 1.378 1_655 S
C517 C516 1.367 . S
C517 C525 1.433 . S
C518 H514 0.929 . S
C518 C520 1.378 1_655 S
C518 C522 1.350 1_655 S
C519 C522 1.463 1_655 S
C519 C524 1.350 1_655 S
C519 N527 1.427 . S
C520 H511 0.930 1_455 S
C520 C518 1.378 1_455 S
C520 C521 1.367 . S
C521 C520 1.367 . S
C521 C523 1.433 . S
C522 C518 1.350 1_455 S
C522 C519 1.463 1_455 S
C522 N526 1.427 . S
C523 H513 0.929 . S
C523 C521 1.433 . S
C523 N526 1.384 . S
C524 H515 0.929 . S
C524 C516 1.378 1_455 S
C524 C519 1.350 1_455 S
C525 H512 0.929 . S
C525 C517 1.433 . S
C525 N527 1.384 . S
N526 C522 1.427 . S
N526 C523 1.384 . S
N527 C519 1.427 . S
N527 C525 1.384 . S
H528 C534 0.930 . S
H529 C538 0.930 . S
H530 C543 0.929 . S
H531 C541 0.929 . S
H532 C536 0.929 1_545 S
H533 C542 0.929 1_565 S
C534 H528 0.930 . S
C534 C535 1.367 . S
C534 C542 1.378 . S
C535 C534 1.367 . S
C535 C543 1.433 . S
C536 H532 0.929 1_565 S
C536 C538 1.378 . S
C536 C540 1.350 . S
C537 C540 1.463 1_545 S
C537 C542 1.350 . S
C537 N545 1.427 . S
C538 H529 0.930 . S
C538 C536 1.378 . S
C538 C539 1.367 . S
C539 C538 1.367 . S
C539 C541 1.433 . S
C540 C536 1.350 . S
C540 C537 1.463 1_565 S
C540 N544 1.427 . S
C541 H531 0.929 . S
C541 C539 1.433 . S
C541 N544 1.384 . S
C542 H533 0.929 1_545 S
C542 C534 1.378 . S
C542 C537 1.350 . S
C543 H530 0.929 . S
C543 C535 1.433 . S
C543 N545 1.384 . S
N544 C540 1.427 . S
N544 C541 1.384 . S
N545 C537 1.427 . S
N545 C543 1.384 . S
H546 C552 0.930 . S
H547 C556 0.930 . S
H548 C561 0.929 . S
H549 C559 0.929 . S
H550 C554 0.929 . S
H551 C560 0.929 . S
C552 H546 0.930 . S
C552 C553 1.367 . S
C552 C560 1.378 . S
C553 C552 1.367 . S
C553 C561 1.433 . S
C554 H550 0.929 . S
C554 C556 1.378 . S
C554 C558 1.350 . S
C555 C558 1.463 . S
C555 C560 1.350 . S
C555 N563 1.427 . S
C556 H547 0.930 . S
C556 C554 1.378 . S
C556 C557 1.367 . S
C557 C556 1.367 . S
C557 C559 1.433 . S
C558 C554 1.350 . S
C558 C555 1.463 . S
C558 N562 1.427 . S
C559 H549 0.929 . S
C559 C557 1.433 . S
C559 N562 1.384 . S
C560 H551 0.929 . S
C560 C552 1.378 . S
C560 C555 1.350 . S
C561 H548 0.929 . S
C561 C553 1.433 . S
C561 N563 1.384 . S
N562 C558 1.427 . S
N562 C559 1.384 . S
N563 C555 1.427 . S
N563 C561 1.384 . S
H564 C570 0.930 . S
H565 C574 0.930 . S
H566 C579 0.929 . S
H567 C577 0.929 . S
H568 C572 0.929 . S
H569 C578 0.929 . S
C570 H564 0.930 . S
C570 C571 1.367 . S
C570 C578 1.378 . S
C571 C570 1.367 . S
C571 C579 1.433 . S
C572 H568 0.929 . S
C572 C574 1.378 . S
C572 C576 1.350 . S
C573 C576 1.463 1_455 S
C573 C578 1.350 . S
C573 N581 1.427 . S
C574 H565 0.930 . S
C574 C572 1.378 . S
C574 C575 1.367 . S
C575 C574 1.367 . S
C575 C577 1.433 . S
C576 C572 1.350 . S
C576 C573 1.463 1_655 S
C576 N580 1.427 . S
C577 H567 0.929 . S
C577 C575 1.433 . S
C577 N580 1.384 . S
C578 H569 0.929 . S
C578 C570 1.378 . S
C578 C573 1.350 . S
C579 H566 0.929 . S
C579 C571 1.433 . S
C579 N581 1.384 . S
N580 C576 1.427 . S
N580 C577 1.384 . S
N581 C573 1.427 . S
N581 C579 1.384 . S
H582 C588 0.930 1_545 S
H583 C592 0.930 1_565 S
H584 C597 0.929 . S
H585 C595 0.929 . S
H586 C590 0.929 . S
H587 C596 0.929 . S
C588 H582 0.930 1_565 S
C588 C589 1.367 . S
C588 C596 1.378 1_565 S
C589 C588 1.367 . S
C589 C597 1.433 . S
C590 H586 0.929 . S
C590 C592 1.378 1_565 S
C590 C594 1.350 1_565 S
C591 C594 1.463 1_565 S
C591 C596 1.350 1_565 S
C591 N599 1.427 . S
C592 H583 0.930 1_545 S
C592 C590 1.378 1_545 S
C592 C593 1.367 . S
C593 C592 1.367 . S
C593 C595 1.433 . S
C594 C590 1.350 1_545 S
C594 C591 1.463 1_545 S
C594 N598 1.427 . S
C595 H585 0.929 . S
C595 C593 1.433 . S
C595 N598 1.384 . S
C596 H587 0.929 . S
C596 C588 1.378 1_545 S
C596 C591 1.350 1_545 S
C597 H584 0.929 . S
C597 C589 1.433 . S
C597 N599 1.384 . S
N598 C594 1.427 . S
N598 C595 1.384 . S
N599 C591 1.427 . S
N599 C597 1.384 . S
C175 C105 1.282 . S
C179 C7 1.292 . S
C193 C21 1.282 . S
C197 C119 1.290 . S
C211 C35 1.290 . S
C215 C133 1.282 . S
C229 C49 1.282 . S
C233 C147 1.291 . S
C247 C161 1.285 . S
C251 C63 1.289 . S
C265 C91 1.290 . S
C269 C77 1.283 . S
C283 C148 1.289 . S
C287 C8 1.297 . S
C301 C22 1.298 . S
C305 C162 1.296 . S
C319 C36 1.295 . S
C323 C92 1.298 . S
C337 C106 1.292 . S
C341 C50 1.298 . S
C355 C120 1.290 . S
C359 C64 1.298 . S
C373 C134 1.286 . S
C377 C78 1.288 . S
C391 C11 1.588 . S
C395 C123 1.588 . S
C409 C25 1.588 . S
C413 C137 1.588 . S
C427 C151 1.588 . S
C431 C39 1.588 . S
C445 C53 1.586 . S
C449 C165 1.585 . S
C463 C95 1.585 . S
C467 C67 1.587 . S
C481 C109 1.588 . S
C485 C81 1.588 . S
C499 C55 1.237 . S
C503 C13 1.220 . S
C517 C69 1.235 . S
C521 C27 1.236 . S
C535 C41 1.224 . S
C539 C83 1.240 . S
C553 C97 1.226 . S
C557 C139 1.222 . S
C571 C111 1.236 . S
C575 C153 1.220 . S
C589 C167 1.234 . S
C593 C125 1.238 . S
