# Generated by pormake.
# Topology mon, (4)-cn, num edge types: 1
# Building blocks:
#     Node 0, Type 0, BuildingBlock: QUQFOY_clean_sbu_3, # of connection points: 4
#     Node 1, Type 0, BuildingBlock: QUQFOY_clean_sbu_3, # of connection points: 4
#     Node 2, Type 0, BuildingBlock: QUQFOY_clean_sbu_3, # of connection points: 4
#     Node 3, Type 0, BuildingBlock: QUQFOY_clean_sbu_3, # of connection points: 4
#     Node 4, Type 0, BuildingBlock: QUQFOY_clean_sbu_3, # of connection points: 4
#     Node 5, Type 0, BuildingBlock: QUQFOY_clean_sbu_3, # of connection points: 4
#     Node 6, Type 0, BuildingBlock: QUQFOY_clean_sbu_3, # of connection points: 4
#     Node 7, Type 0, BuildingBlock: QUQFOY_clean_sbu_3, # of connection points: 4
#     Node 8, Type 0, BuildingBlock: QUQFOY_clean_sbu_3, # of connection points: 4
#     Node 9, Type 0, BuildingBlock: QUQFOY_clean_sbu_3, # of connection points: 4
#     Node 10, Type 0, BuildingBlock: QUQFOY_clean_sbu_3, # of connection points: 4
#     Node 11, Type 0, BuildingBlock: QUQFOY_clean_sbu_3, # of connection points: 4
#     Node 12, Type 0, BuildingBlock: QUQFOY_clean_sbu_3, # of connection points: 4
#     Node 13, Type 0, BuildingBlock: QUQFOY_clean_sbu_3, # of connection points: 4
#     Node 14, Type 0, BuildingBlock: QUQFOY_clean_sbu_3, # of connection points: 4
#     Node 15, Type 0, BuildingBlock: QUQFOY_clean_sbu_3, # of connection points: 4
#     Edge 16, Type (0, 0), BuildingBlock: UVAHIK_clean_linker_0, # of connection points: 2
#     Edge 17, Type (0, 0), BuildingBlock: UVAHIK_clean_linker_0, # of connection points: 2
#     Edge 18, Type (0, 0), BuildingBlock: UVAHIK_clean_linker_0, # of connection points: 2
#     Edge 19, Type (0, 0), BuildingBlock: UVAHIK_clean_linker_0, # of connection points: 2
#     Edge 20, Type (0, 0), BuildingBlock: UVAHIK_clean_linker_0, # of connection points: 2
#     Edge 21, Type (0, 0), BuildingBlock: UVAHIK_clean_linker_0, # of connection points: 2
#     Edge 22, Type (0, 0), BuildingBlock: UVAHIK_clean_linker_0, # of connection points: 2
#     Edge 23, Type (0, 0), BuildingBlock: UVAHIK_clean_linker_0, # of connection points: 2
#     Edge 24, Type (0, 0), BuildingBlock: UVAHIK_clean_linker_0, # of connection points: 2
#     Edge 25, Type (0, 0), BuildingBlock: UVAHIK_clean_linker_0, # of connection points: 2
#     Edge 26, Type (0, 0), BuildingBlock: UVAHIK_clean_linker_0, # of connection points: 2
#     Edge 27, Type (0, 0), BuildingBlock: UVAHIK_clean_linker_0, # of connection points: 2
#     Edge 28, Type (0, 0), BuildingBlock: UVAHIK_clean_linker_0, # of connection points: 2
#     Edge 29, Type (0, 0), BuildingBlock: UVAHIK_clean_linker_0, # of connection points: 2
#     Edge 30, Type (0, 0), BuildingBlock: UVAHIK_clean_linker_0, # of connection points: 2
#     Edge 31, Type (0, 0), BuildingBlock: UVAHIK_clean_linker_0, # of connection points: 2
#     Edge 32, Type (0, 0), BuildingBlock: UVAHIK_clean_linker_0, # of connection points: 2
#     Edge 33, Type (0, 0), BuildingBlock: UVAHIK_clean_linker_0, # of connection points: 2
#     Edge 34, Type (0, 0), BuildingBlock: UVAHIK_clean_linker_0, # of connection points: 2
#     Edge 35, Type (0, 0), BuildingBlock: UVAHIK_clean_linker_0, # of connection points: 2
#     Edge 36, Type (0, 0), BuildingBlock: UVAHIK_clean_linker_0, # of connection points: 2
#     Edge 37, Type (0, 0), BuildingBlock: UVAHIK_clean_linker_0, # of connection points: 2
#     Edge 38, Type (0, 0), BuildingBlock: UVAHIK_clean_linker_0, # of connection points: 2
#     Edge 39, Type (0, 0), BuildingBlock: UVAHIK_clean_linker_0, # of connection points: 2
#     Edge 40, Type (0, 0), BuildingBlock: UVAHIK_clean_linker_0, # of connection points: 2
#     Edge 41, Type (0, 0), BuildingBlock: UVAHIK_clean_linker_0, # of connection points: 2
#     Edge 42, Type (0, 0), BuildingBlock: UVAHIK_clean_linker_0, # of connection points: 2
#     Edge 43, Type (0, 0), BuildingBlock: UVAHIK_clean_linker_0, # of connection points: 2
#     Edge 44, Type (0, 0), BuildingBlock: UVAHIK_clean_linker_0, # of connection points: 2
#     Edge 45, Type (0, 0), BuildingBlock: UVAHIK_clean_linker_0, # of connection points: 2
#     Edge 46, Type (0, 0), BuildingBlock: UVAHIK_clean_linker_0, # of connection points: 2
#     Edge 47, Type (0, 0), BuildingBlock: UVAHIK_clean_linker_0, # of connection points: 2
# Relax obj value: 0.181
# Max RMSD: 0.173
# Mean RMSD: 0.173
data_MOF--net-mon--node1-QUQFOY_clean_sbu_3--edge1-UVAHIK_clean_linker_0
_symmetry_space_group_name_H-M    P1
_symmetry_Int_Tables_number       1
_symmetry_cell_setting            triclinic
loop_
_symmetry_equiv_pos_as_xyz
'x, y, z'
_cell_length_a     46.053665
_cell_length_b     45.828945
_cell_length_c     112.01672
_cell_angle_alpha  89.999755
_cell_angle_beta   90.158458
_cell_angle_gamma 90.060018
loop_
_atom_site_label
_atom_site_type_symbol
_atom_site_fract_x
_atom_site_fract_y
_atom_site_fract_z
_atom_type_partial_charge
C0 C 0.03657 0.95743 0.57429 0.0
O1 O 0.02718 0.94231 0.5656 0.0
Cd2 Cd -0.01696 0.9517 0.55516 0.0
O3 O 0.02279 -0.02004 0.57783 0.0
Cd4 Cd -0.02145 0.00739 0.57135 0.0
C5 C 0.93429 0.95146 0.57831 0.0
O6 O -0.014 0.00218 0.55018 0.0
O7 O 0.94285 0.01571 0.55499 0.0
O8 O 0.00373 0.05364 0.57396 0.0
C9 C 0.96148 0.01153 0.54685 0.0
O10 O 0.94276 0.93967 0.56863 0.0
C11 C -0.01531 0.06509 0.58064 0.0
O12 O 0.94537 0.97535 0.5819 0.0
O13 O 0.96298 0.04934 0.58334 0.0
C14 C 0.22924 0.79576 0.8306 0.0
O15 O 0.24451 0.79317 0.82125 0.0
Cd16 Cd 0.24443 0.75144 0.80868 0.0
O17 O 0.21025 0.77664 0.83341 0.0
Cd18 Cd 0.18809 0.73184 0.8242 0.0
C19 C 0.25109 0.69698 0.8301 0.0
O20 O 0.19471 0.7462 0.80379 0.0
O21 O 0.18481 0.70081 0.80592 0.0
O22 O 0.14011 0.75126 0.82888 0.0
C23 C 0.18984 0.72186 0.79889 0.0
O24 O 0.26185 0.71117 0.82136 0.0
C25 C 0.13025 0.72768 0.83325 0.0
O26 O 0.22499 0.70124 0.83339 0.0
O27 O 0.14755 0.70612 0.83365 0.0
C28 C 0.41994 -0.01361 0.0806 0.0
O29 O 0.42586 -0.00076 0.07087 0.0
Cd30 Cd 0.4693 -0.00818 0.05983 0.0
O31 O 0.43655 0.96655 0.08478 0.0
Cd32 Cd 0.48114 0.94012 0.07784 0.0
C33 C 0.52073 0.00088 0.08204 0.0
O34 O 0.47062 0.9406 0.05669 0.0
O35 O 0.51536 0.93255 0.06105 0.0
O36 O 0.45888 0.89358 0.08328 0.0
C37 C 0.49567 0.93354 0.05314 0.0
O38 O 0.50987 0.00972 0.0722 0.0
C39 C 0.48119 0.88339 0.08849 0.0
O40 O 0.51254 0.97691 0.0867 0.0
O41 O 0.50312 0.90013 0.08922 0.0
C42 C 0.22372 0.16603 0.32954 0.0
O43 O 0.20955 0.17155 0.32008 0.0
Cd44 Cd 0.21506 0.21535 0.3089 0.0
O45 O 0.24373 0.18312 0.33323 0.0
Cd46 Cd 0.2688 0.22806 0.3257 0.0
C47 C 0.20829 0.26678 0.33126 0.0
O48 O 0.26559 0.21674 0.30468 0.0
O49 O 0.27478 0.26177 0.30847 0.0
O50 O 0.31521 0.20534 0.33069 0.0
C51 C 0.27242 0.24166 0.30076 0.0
O52 O 0.19819 0.25571 0.32167 0.0
C53 C 0.32601 0.22771 0.33571 0.0
O54 O 0.23301 0.2591 0.33528 0.0
O55 O 0.30982 0.25008 0.3364 0.0
C56 C 0.04462 -0.0195 0.39525 0.0
O57 O 0.04066 -0.00397 0.40449 0.0
Cd58 Cd -0.00218 -0.00453 0.4163 0.0
O59 O 0.02648 0.96079 0.39218 0.0
Cd60 Cd -0.01824 0.93715 0.40056 0.0
C61 C 0.94509 -0.00107 0.39396 0.0
O62 O -0.00771 0.94576 0.42119 0.0
O63 O 0.94805 0.93339 0.41788 0.0
O64 O 0.00338 0.88909 0.39857 0.0
C65 C 0.96748 0.94021 0.42542 0.0
O66 O 0.95857 0.0105 0.40273 0.0
C67 C -0.01714 0.87804 0.39247 0.0
O68 O 0.95015 0.97267 0.39084 0.0
O69 O 0.96184 0.8948 0.3898 0.0
C70 C 0.2253 0.79512 0.64609 0.0
O71 O 0.21035 0.79025 0.65538 0.0
Cd72 Cd 0.21565 0.74834 0.66768 0.0
O73 O 0.24602 0.77808 0.64318 0.0
Cd74 Cd 0.2704 0.73397 0.65179 0.0
C75 C 0.21002 0.69453 0.64628 0.0
O76 O 0.26585 0.74633 0.67265 0.0
O77 O 0.27502 0.70108 0.66936 0.0
O78 O 0.31828 0.75501 0.64848 0.0
C79 C 0.27206 0.72154 0.67688 0.0
O80 O 0.19936 0.70709 0.65542 0.0
C81 C 0.32835 0.73353 0.64266 0.0
O82 O 0.23519 0.70131 0.64249 0.0
O83 O 0.31112 0.71237 0.64074 0.0
C84 C 0.41754 0.96251 0.89947 0.0
O85 O 0.42365 0.94508 0.90791 0.0
Cd86 Cd 0.46659 0.94711 0.91979 0.0
O87 O 0.43386 -0.0158 0.89701 0.0
Cd88 Cd 0.47839 0.00755 0.90565 0.0
C89 C 0.51886 0.94923 0.89775 0.0
O90 O 0.46692 -0.00351 0.92603 0.0
O91 O 0.51057 0.01158 0.92359 0.0
O92 O 0.45573 0.05506 0.90253 0.0
C93 C 0.49087 0.00344 0.93074 0.0
O94 O 0.50764 0.93576 0.90656 0.0
C95 C 0.47784 0.06673 0.89773 0.0
O96 O 0.51068 0.97489 0.89499 0.0
O97 O 0.50006 0.05066 0.89643 0.0
C98 C 0.23829 0.17275 0.14523 0.0
O99 O 0.25466 0.17654 0.15422 0.0
Cd100 Cd 0.25305 0.21781 0.167 0.0
O101 O 0.21758 0.19035 0.14284 0.0
Cd102 Cd 0.19385 0.23372 0.15254 0.0
C103 C 0.25355 0.27342 0.1459 0.0
O104 O 0.20366 0.21896 0.17274 0.0
O105 O 0.19001 0.26348 0.17114 0.0
O106 O 0.14716 0.21052 0.14834 0.0
C107 C 0.19728 0.24257 0.17792 0.0
O108 O 0.26616 0.25949 0.15429 0.0
C109 C 0.13475 0.23349 0.14458 0.0
O110 O 0.22741 0.26758 0.14299 0.0
O111 O 0.15005 0.25656 0.14424 0.0
C112 C 0.71753 0.29492 0.14912 0.0
O113 O 0.70145 0.28566 0.1575 0.0
Cd114 Cd 0.70881 0.24393 0.16963 0.0
O115 O 0.74084 0.28143 0.14633 0.0
Cd116 Cd 0.76693 0.23667 0.15373 0.0
C117 C 0.70951 0.19303 0.14711 0.0
O118 O 0.75876 0.24709 0.1744 0.0
O119 O 0.77378 0.20359 0.17137 0.0
O120 O 0.81361 0.26061 0.14992 0.0
C121 C 0.76668 0.22308 0.17883 0.0
O122 O 0.69783 0.20243 0.15666 0.0
C123 C 0.82518 0.23867 0.14491 0.0
O124 O 0.73354 0.20343 0.14342 0.0
O125 O 0.80932 0.21618 0.14366 0.0
C126 C 0.74926 0.67223 0.64738 0.0
O127 O 0.76273 0.68249 0.65635 0.0
Cd128 Cd 0.74856 0.72046 0.6694 0.0
O129 O 0.72444 0.68231 0.64435 0.0
Cd130 Cd 0.69234 0.72226 0.65229 0.0
C131 C 0.74473 0.77322 0.64784 0.0
O132 O 0.69893 0.71082 0.67294 0.0
O133 O 0.68176 0.75363 0.67014 0.0
O134 O 0.64698 0.69586 0.64864 0.0
C135 C 0.68897 0.73388 0.6775 0.0
O136 O 0.75616 0.7646 0.65758 0.0
C137 C 0.63538 0.71585 0.64239 0.0
O138 O 0.72273 0.76023 0.64341 0.0
O139 O 0.65068 0.73838 0.64039 0.0
C140 C 0.73646 0.28823 0.32796 0.0
O141 O 0.74975 0.28239 0.31835 0.0
Cd142 Cd 0.74238 0.23895 0.30726 0.0
O143 O 0.71638 0.27148 0.33181 0.0
Cd144 Cd 0.68987 0.22685 0.32458 0.0
C145 C 0.75005 0.18725 0.32956 0.0
O146 O 0.69152 0.23797 0.30353 0.0
O147 O 0.68227 0.19307 0.30743 0.0
O148 O 0.64509 0.25155 0.33023 0.0
C149 C 0.6844 0.21307 0.29967 0.0
O150 O 0.75972 0.19908 0.32006 0.0
C151 C 0.63325 0.2294 0.33497 0.0
O152 O 0.72538 0.19444 0.33372 0.0
O153 O 0.64811 0.20607 0.33522 0.0
C154 C 0.71066 0.67753 0.82596 0.0
O155 O 0.6983 0.68835 0.81684 0.0
Cd156 Cd 0.7148 0.72819 0.80527 0.0
O157 O 0.73476 0.68789 0.82973 0.0
Cd158 Cd 0.76734 0.72877 0.823 0.0
C159 C 0.71453 0.77823 0.82781 0.0
O160 O 0.76479 0.71814 0.80199 0.0
O161 O 0.77905 0.76164 0.80582 0.0
O162 O 0.81042 0.70062 0.82876 0.0
C163 C 0.77518 0.74177 0.79811 0.0
O164 O 0.70474 0.77107 0.81758 0.0
C165 C 0.82339 0.72189 0.83373 0.0
O166 O 0.73588 0.76468 0.83244 0.0
O167 O 0.80977 0.74594 0.83412 0.0
C168 C 0.54152 0.46758 0.07706 0.0
O169 O 0.53294 0.45195 0.06838 0.0
Cd170 Cd 0.49228 0.46083 0.05588 0.0
O171 O 0.52796 0.49089 0.07991 0.0
Cd172 Cd 0.48433 0.51846 0.07237 0.0
C173 C 0.43969 0.46061 0.07766 0.0
O174 O 0.49711 0.51145 0.05186 0.0
O175 O 0.45471 0.52968 0.05412 0.0
O176 O 0.50969 0.56326 0.07823 0.0
C177 C 0.47458 0.52175 0.04703 0.0
O178 O 0.45058 0.44877 0.06841 0.0
C179 C 0.48751 0.57548 0.08271 0.0
O180 O 0.44907 0.48512 0.08142 0.0
O181 O 0.46406 0.56089 0.08264 0.0
C182 C 0.93416 0.46727 0.58948 0.0
O183 O 0.92839 0.44827 0.58168 0.0
Cd184 Cd -0.01959 0.44107 0.57731 0.0
O185 O 0.96073 0.47125 0.59183 0.0
Cd186 Cd -0.00801 0.43567 0.57892 0.0
C187 C 0.03111 0.48006 0.58785 0.0
O188 O -0.02173 0.43992 0.55698 0.0
O189 O 0.02339 0.44663 0.56089 0.0
O190 O 0.9646 0.38923 0.58128 0.0
C191 C 0.00347 0.44482 0.55307 0.0
O192 O 0.00925 0.4874 0.58165 0.0
C193 C -0.01368 0.37502 0.58515 0.0
O194 O 0.0342 0.45314 0.58994 0.0
O195 O 0.01008 0.38886 0.58617 0.0
C196 C 0.52839 0.46928 0.88477 0.0
O197 O 0.53515 0.45234 0.8932 0.0
Cd198 Cd 0.48387 0.44504 0.89852 0.0
O199 O 0.50159 0.47209 0.88258 0.0
Cd200 Cd 0.4714 0.43928 0.8971 0.0
C201 C 0.43307 0.48419 0.88808 0.0
O202 O 0.48831 0.44636 0.91868 0.0
O203 O 0.4429 0.45334 0.91551 0.0
O204 O 0.49808 0.39305 0.89355 0.0
C205 C 0.46368 0.45226 0.92296 0.0
O206 O 0.45555 0.49126 0.89396 0.0
C207 C 0.47525 0.37777 0.89229 0.0
O208 O 0.42903 0.45725 0.88627 0.0
O209 O 0.45115 0.39101 0.89316 0.0
C210 C 0.91565 0.46195 0.39987 0.0
O211 O 0.92312 0.44595 0.40862 0.0
Cd212 Cd 0.9653 0.45224 0.42073 0.0
O213 O 0.93061 0.48435 0.39701 0.0
Cd214 Cd 0.97475 0.51054 0.40453 0.0
C215 C 0.01697 0.45167 0.39848 0.0
O216 O 0.96471 0.50265 0.42524 0.0
O217 O 0.00767 0.51887 0.42202 0.0
O218 O 0.95099 0.55749 0.40159 0.0
C219 C -0.01141 0.51126 0.42955 0.0
O220 O 0.00639 0.44 0.40784 0.0
C221 C 0.97101 0.56856 0.39527 0.0
O222 O 0.00797 0.47636 0.39477 0.0
O223 O -0.00737 0.55234 0.39295 0.0
C224 C 0.96697 0.10783 0.59254 0.0
C225 C -0.01321 0.09594 0.58437 0.0
C226 C 0.96753 0.13765 0.5952 0.0
C227 C 0.96008 0.20305 0.59249 0.0
H228 H 0.03174 0.24731 0.59121 0.0
C229 C 0.96169 0.3266 0.58327 0.0
C230 C -0.0155 0.34356 0.58788 0.0
C231 C 0.96138 0.2964 0.58497 0.0
C232 C 0.01149 0.23539 0.59183 0.0
H233 H 0.02317 0.10581 0.5728 0.0
H234 H 0.02361 0.15766 0.5771 0.0
H235 H 0.03353 0.19447 0.59102 0.0
H236 H 0.02399 0.34259 0.59844 0.0
H237 H 0.02289 0.29011 0.60183 0.0
H238 H 0.93809 0.24401 0.59361 0.0
C239 C 0.00805 0.14406 0.58172 0.0
C240 C 0.01251 0.20497 0.59152 0.0
C241 C 0.00768 0.11427 0.57918 0.0
C242 C 0.00631 0.32997 0.59466 0.0
C243 C 0.00575 0.29985 0.59654 0.0
C244 C 0.95907 0.2335 0.59297 0.0
C245 C -0.01225 0.15624 0.58966 0.0
C246 C -0.0132 0.1884 0.59152 0.0
C247 C -0.01636 0.28254 0.59149 0.0
C248 C -0.01527 0.25012 0.59234 0.0
H249 H 0.95071 0.09418 0.59674 0.0
H250 H 0.95191 0.14615 0.60151 0.0
H251 H 0.93978 0.1911 0.59242 0.0
H252 H 0.94464 0.3365 0.57797 0.0
H253 H 0.94423 0.28386 0.58078 0.0
C254 C 0.86795 0.69238 0.83811 0.0
C255 C 0.85385 0.71953 0.83784 0.0
C256 C 0.89772 0.69067 0.84052 0.0
C257 C 0.96175 0.73443 0.85089 0.0
H258 H 0.0041 0.68182 0.83018 0.0
C259 C 0.08188 0.74993 0.83772 0.0
C260 C 0.0996 0.72505 0.83701 0.0
C261 C 0.05229 0.74725 0.84022 0.0
C262 C -0.0074 0.69629 0.83617 0.0
H263 H 0.85964 0.76608 0.84039 0.0
H264 H 0.9115 0.76328 0.84422 0.0
H265 H 0.95134 0.68051 0.83031 0.0
H266 H 0.10039 0.67792 0.83875 0.0
H267 H 0.04853 0.67325 0.84296 0.0
H268 H 0.00331 0.75112 0.85626 0.0
C269 C 0.89965 0.74315 0.84283 0.0
C270 C 0.96228 0.6955 0.83629 0.0
C271 C 0.86985 0.7448 0.84056 0.0
C272 C 0.08729 0.6975 0.83923 0.0
C273 C 0.05761 0.6948 0.84159 0.0
C274 C -0.0079 0.73543 0.85067 0.0
C275 C 0.91413 0.71613 0.84257 0.0
C276 C 0.94641 0.71489 0.8435 0.0
C277 C 0.03973 0.71962 0.84193 0.0
C278 C 0.0078 0.71667 0.84316 0.0
H279 H 0.85615 0.67248 0.83615 0.0
H280 H 0.90798 0.66943 0.84051 0.0
H281 H 0.95032 0.7493 0.85673 0.0
H282 H 0.09074 0.77147 0.83609 0.0
H283 H 0.039 0.76674 0.84032 0.0
C284 C 0.46269 0.62132 0.08921 0.0
C285 C 0.48852 0.60591 0.0871 0.0
C286 C 0.46348 0.65096 0.09214 0.0
C287 C 0.51143 0.71531 0.08906 0.0
H288 H 0.45219 0.75259 0.10828 0.0
C289 C 0.50922 0.83974 0.09541 0.0
C290 C 0.48247 0.85258 0.09241 0.0
C291 C 0.51119 0.80965 0.0973 0.0
C292 C 0.4689 0.74244 0.10292 0.0
H293 H 0.53548 0.609 0.08707 0.0
H294 H 0.53695 0.66044 0.09257 0.0
H295 H 0.454 0.69939 0.1071 0.0
H296 H 0.43653 0.84426 0.08977 0.0
H297 H 0.43996 0.79178 0.09319 0.0
H298 H 0.52617 0.75835 0.08483 0.0
C299 C 0.516 0.64994 0.0916 0.0
C300 C 0.46989 0.71197 0.10218 0.0
C301 C 0.5152 0.62038 0.08852 0.0
C302 C 0.45746 0.835 0.09204 0.0
C303 C 0.4594 0.80496 0.09405 0.0
C304 C 0.51063 0.7457 0.08991 0.0
C305 C 0.49013 0.66581 0.09317 0.0
C306 C 0.49082 0.69802 0.09504 0.0
C307 C 0.48642 0.79186 0.09636 0.0
C308 C 0.48905 0.7596 0.09666 0.0
H309 H 0.44178 0.61079 0.08814 0.0
H310 H 0.44308 0.66244 0.09311 0.0
H311 H 0.52753 0.70551 0.08329 0.0
H312 H 0.52888 0.8527 0.09578 0.0
H313 H 0.53225 0.80016 0.09919 0.0
C314 C 0.58856 0.25717 0.34051 0.0
C315 C 0.60282 0.23031 0.33912 0.0
C316 C 0.55889 0.25809 0.34304 0.0
C317 C 0.49522 0.21207 0.35179 0.0
H318 H 0.45248 0.27019 0.33376 0.0
C319 C 0.37353 0.2028 0.33945 0.0
C320 C 0.35666 0.22834 0.33968 0.0
C321 C 0.40331 0.20395 0.34184 0.0
C322 C 0.46409 0.25413 0.33902 0.0
H323 H 0.59745 0.18335 0.33976 0.0
H324 H 0.54554 0.18487 0.34378 0.0
H325 H 0.50518 0.27061 0.33342 0.0
H326 H 0.35754 0.2749 0.34315 0.0
H327 H 0.40964 0.27691 0.34724 0.0
H328 H 0.45372 0.19486 0.35689 0.0
C329 C 0.55728 0.2053 0.34318 0.0
C330 C 0.49439 0.25439 0.33887 0.0
C331 C 0.58706 0.20439 0.34081 0.0
C332 C 0.36996 0.25485 0.34286 0.0
C333 C 0.39979 0.25604 0.34515 0.0
C334 C 0.46483 0.21164 0.35184 0.0
C335 C 0.54266 0.23218 0.34406 0.0
C336 C 0.51041 0.23317 0.34513 0.0
C337 C 0.41687 0.23071 0.34443 0.0
C338 C 0.44898 0.23249 0.34535 0.0
H339 H 0.60021 0.27753 0.33938 0.0
H340 H 0.54857 0.27919 0.34395 0.0
H341 H 0.50679 0.19568 0.35689 0.0
H342 H 0.3639 0.18202 0.33705 0.0
H343 H 0.41594 0.18411 0.34113 0.0
C344 C 0.96105 0.83483 0.38195 0.0
C345 C -0.01719 0.84669 0.38931 0.0
C346 C 0.95994 0.80475 0.37979 0.0
C347 C 0.95051 0.73995 0.38386 0.0
H348 H 0.02038 0.69288 0.38389 0.0
C349 C 0.94915 0.61837 0.39634 0.0
C350 C 0.96997 0.59946 0.39147 0.0
C351 C 0.94976 0.64816 0.39373 0.0
C352 C 0.00058 0.70557 0.38364 0.0
H353 H 0.02084 0.83641 0.39996 0.0
H354 H 0.01845 0.78422 0.39654 0.0
H355 H 0.0243 0.74564 0.38298 0.0
H356 H 0.00688 0.59669 0.37957 0.0
H357 H 0.00742 0.64859 0.37469 0.0
H358 H 0.92678 0.69984 0.38427 0.0
C359 C 0.00259 0.79799 0.39216 0.0
C360 C 0.00285 0.73597 0.38331 0.0
C361 C 0.00385 0.828 0.39421 0.0
C362 C -0.00932 0.61077 0.38353 0.0
C363 C -0.00891 0.64057 0.38081 0.0
C364 C 0.94823 0.70953 0.38404 0.0
C365 C -0.01957 0.78587 0.38504 0.0
C366 C -0.02211 0.75359 0.38377 0.0
C367 C 0.971 0.65977 0.38607 0.0
C368 C 0.97325 0.69194 0.38428 0.0
H369 H 0.94462 0.84871 0.37799 0.0
H370 H 0.94284 0.79629 0.37411 0.0
H371 H 0.93077 0.75271 0.38429 0.0
H372 H 0.93296 0.61036 0.40253 0.0
H373 H 0.93422 0.6622 0.39813 0.0
C374 C 0.37878 0.75357 0.64334 0.0
C375 C 0.3592 0.73252 0.63904 0.0
C376 C 0.4084 0.75131 0.64093 0.0
C377 C 0.46932 0.74913 0.63132 0.0
H378 H 0.50322 0.67185 0.63285 0.0
C379 C 0.5933 0.73449 0.63041 0.0
C380 C 0.60469 0.71411 0.63852 0.0
C381 C 0.56355 0.73498 0.62786 0.0
C382 C 0.49416 0.69363 0.63245 0.0
H383 H 0.35516 0.69326 0.62837 0.0
H384 H 0.40687 0.68975 0.62383 0.0
H385 H 0.45077 0.67728 0.63352 0.0
H386 H 0.59406 0.67757 0.65 0.0
H387 H 0.54226 0.67901 0.64593 0.0
H388 H 0.51265 0.76564 0.6311 0.0
C389 C 0.39943 0.70762 0.62934 0.0
C390 C 0.46396 0.69673 0.63265 0.0
C391 C 0.36976 0.70973 0.63188 0.0
C392 C 0.58596 0.69348 0.64366 0.0
C393 C 0.55618 0.69422 0.64126 0.0
C394 C 0.49949 0.74605 0.63128 0.0
C395 C 0.41923 0.72812 0.63402 0.0
C396 C 0.45115 0.72458 0.63236 0.0
C397 C 0.54446 0.71537 0.63351 0.0
C398 C 0.51237 0.71829 0.6321 0.0
H399 H 0.37137 0.77133 0.64894 0.0
H400 H 0.4229 0.76723 0.64488 0.0
H401 H 0.46027 0.77089 0.63082 0.0
H402 H 0.60726 0.75051 0.62622 0.0
H403 H 0.55548 0.75115 0.62164 0.0
C404 C 0.50334 0.33186 0.88862 0.0
C405 C 0.47657 0.34591 0.89032 0.0
C406 C 0.5046 0.30153 0.88737 0.0
C407 C 0.45886 0.23595 0.88156 0.0
H408 H 0.51983 0.19585 0.89895 0.0
C409 C 0.45269 0.11469 0.89514 0.0
C410 C 0.47813 0.09791 0.89435 0.0
C411 C 0.45339 0.14462 0.89281 0.0
C412 C 0.50293 0.20673 0.89389 0.0
H413 H 0.43008 0.33928 0.89182 0.0
H414 H 0.43231 0.28647 0.88993 0.0
H415 H 0.51956 0.24894 0.89828 0.0
H416 H 0.52408 0.09916 0.89017 0.0
H417 H 0.5253 0.15154 0.88616 0.0
H418 H 0.44174 0.19357 0.87755 0.0
C419 C 0.45232 0.29881 0.88932 0.0
C420 C 0.50278 0.23718 0.89349 0.0
C421 C 0.45105 0.32911 0.89049 0.0
C422 C 0.50412 0.11152 0.89088 0.0
C423 C 0.50487 0.14151 0.88864 0.0
C424 C 0.4589 0.20548 0.88205 0.0
C425 C 0.47913 0.2846 0.88787 0.0
C426 C 0.48052 0.25219 0.88745 0.0
C427 C 0.47958 0.15842 0.88973 0.0
C428 C 0.48074 0.19058 0.88834 0.0
H429 H 0.52337 0.34425 0.88837 0.0
H430 H 0.52557 0.29135 0.88608 0.0
H431 H 0.44169 0.24679 0.87665 0.0
H432 H 0.43231 0.10482 0.89778 0.0
H433 H 0.43361 0.15714 0.89383 0.0
C434 C 0.08829 0.20728 0.1401 0.0
C435 C 0.10352 0.23364 0.14145 0.0
C436 C 0.05829 0.20731 0.13821 0.0
C437 C -0.00468 0.25554 0.13076 0.0
H438 H 0.95214 0.19644 0.14801 0.0
C439 C 0.87305 0.26405 0.14246 0.0
C440 C 0.85622 0.23853 0.14153 0.0
C441 C 0.90301 0.26318 0.14049 0.0
C442 C 0.96387 0.21284 0.143 0.0
H443 H 0.09939 0.28075 0.14156 0.0
H444 H 0.04697 0.28086 0.13865 0.0
H445 H 0.00487 0.19534 0.14826 0.0
H446 H 0.85747 0.19233 0.13734 0.0
H447 H 0.9098 0.19082 0.134 0.0
H448 H 0.95395 0.27363 0.12595 0.0
C449 C 0.05818 0.26011 0.13877 0.0
C450 C -0.00582 0.21219 0.1431 0.0
C451 C 0.08827 0.26007 0.14051 0.0
C452 C 0.86982 0.21236 0.13816 0.0
C453 C 0.8998 0.21144 0.1363 0.0
C454 C 0.96493 0.25636 0.13077 0.0
C455 C 0.0427 0.2337 0.1378 0.0
C456 C 0.01036 0.23362 0.13705 0.0
C457 C 0.91678 0.23672 0.13766 0.0
C458 C 0.94892 0.2351 0.13696 0.0
H459 H 0.0995 0.18656 0.14067 0.0
H460 H 0.04727 0.18656 0.13722 0.0
H461 H 0.00699 0.27214 0.12584 0.0
H462 H 0.8632 0.28456 0.14502 0.0
H463 H 0.91557 0.28297 0.14167 0.0
C464 C -0.01784 0.96022 0.44517 0.0
C465 C 0.96037 0.9484 0.43782 0.0
C466 C -0.02449 0.97074 0.45648 0.0
C467 C 0.92509 0.96514 0.48121 0.0
H468 H 0.96158 0.03811 0.49047 0.0
C469 C 0.92553 0.0075 0.53005 0.0
C470 C 0.95408 0.01228 0.53406 0.0
C471 C 0.9198 0.00437 0.51782 0.0
C472 C 0.95101 0.01786 0.48798 0.0
H473 H 0.91462 0.93737 0.43676 0.0
H474 H 0.90303 0.95553 0.45681 0.0
H475 H 0.96376 0.02208 0.46973 0.0
H476 H -0.00137 0.01913 0.52856 0.0
H477 H -0.01136 0.01423 0.50734 0.0
H478 H 0.91356 0.96034 0.49964 0.0
C479 C 0.92521 0.9568 0.45366 0.0
C480 C 0.95233 0.00864 0.47615 0.0
C481 C 0.93186 0.9464 0.44222 0.0
C482 C -0.02355 0.01538 0.52569 0.0
C483 C 0.97068 0.01277 0.51354 0.0
C484 C 0.92377 0.9744 0.4931 0.0
C485 C 0.94692 0.9696 0.46078 0.0
C486 C 0.94047 -0.01837 0.47275 0.0
C487 C 0.94245 0.00663 0.50948 0.0
C488 C 0.93779 0.00025 0.49666 0.0
H489 H 0.00439 0.96193 0.4421 0.0
H490 H -0.00718 -0.02015 0.4619 0.0
H491 H 0.91576 0.94423 0.47881 0.0
H492 H 0.90793 0.0049 0.53635 0.0
H493 H 0.89785 -0.00033 0.51489 0.0
C494 C 0.2058 0.74116 0.77921 0.0
C495 C 0.19724 0.71723 0.7862 0.0
C496 C 0.21615 0.73701 0.76767 0.0
C497 C 0.21699 0.68752 0.74213 0.0
H498 H 0.28542 0.73244 0.73373 0.0
C499 C 0.26556 0.6878 0.69435 0.0
C500 C 0.26986 0.71609 0.68983 0.0
C501 C 0.26019 0.68353 0.70653 0.0
C502 C 0.26634 0.71971 0.73594 0.0
H503 H 0.1916 0.67024 0.78638 0.0
H504 H 0.20959 0.66301 0.766 0.0
H505 H 0.26763 0.73328 0.75419 0.0
H506 H 0.2732 0.76187 0.69453 0.0
H507 H 0.26409 0.75447 0.71566 0.0
H508 H 0.21524 0.67473 0.72373 0.0
C509 C 0.20838 0.68494 0.76956 0.0
C510 C 0.25613 0.72024 0.74764 0.0
C511 C 0.19808 0.68909 0.7812 0.0
C512 C 0.26991 0.73982 0.69775 0.0
C513 C 0.26487 0.73555 0.70988 0.0
C514 C 0.22722 0.68702 0.73038 0.0
C515 C 0.21814 0.70885 0.7628 0.0
C516 C 0.23083 0.70491 0.75077 0.0
C517 C 0.25948 0.70745 0.71438 0.0
C518 C 0.25148 0.70386 0.72711 0.0
H519 H 0.2052 0.76315 0.78274 0.0
H520 H 0.22287 0.75592 0.76256 0.0
H521 H 0.19744 0.6755 0.74431 0.0
H522 H 0.26535 0.66911 0.68843 0.0
H523 H 0.25626 0.66163 0.70978 0.0
C524 C 0.47963 0.92946 0.03202 0.0
C525 C 0.5023 0.93316 0.04028 0.0
C526 C 0.48471 0.9325 0.01984 0.0
C527 C 0.53057 0.972 -0.00079 0.0
H528 H 0.491 0.9238 0.97581 0.0
C529 C 0.52508 -0.00153 0.94818 0.0
C530 C 0.49703 -0.00418 0.94331 0.0
C531 C 0.53086 -0.01139 0.9598 0.0
C532 C 0.50223 0.93743 0.98224 0.0
H533 H 0.54834 0.94195 0.04227 0.0
H534 H 0.55719 0.9477 0.02081 0.0
H535 H 0.4928 0.90823 -0.00339 0.0
H536 H 0.45287 -0.01822 0.94691 0.0
H537 H 0.46289 0.9649 0.96702 0.0
H538 H 0.53894 0.0018 0.98485 0.0
C539 C 0.53552 0.94236 0.02384 0.0
C540 C 0.50332 0.92849 -0.00588 0.0
C541 C 0.53048 0.93891 0.03608 0.0
C542 C 0.47478 -0.01606 0.95035 0.0
C543 C 0.48056 0.97402 0.96185 0.0
C544 C 0.52946 -0.019 0.98728 0.0
C545 C 0.51255 0.93957 0.01563 0.0
C546 C 0.51657 0.94617 0.0028 0.0
C547 C 0.50871 0.97578 0.96664 0.0
C548 C 0.51433 0.96429 0.97878 0.0
H549 H 0.45772 0.92497 0.03501 0.0
H550 H 0.4665 0.93058 0.01375 0.0
H551 H 0.54079 -0.01386 0.00574 0.0
H552 H 0.54265 0.00756 0.94296 0.0
H553 H 0.55273 -0.00966 0.9633 0.0
C554 C 0.20335 0.27477 0.19594 0.0
C555 C 0.20469 0.24699 0.19063 0.0
C556 C 0.21318 0.27895 0.20766 0.0
C557 C 0.26232 0.24555 0.2298 0.0
H558 H 0.2175 0.28749 0.25349 0.0
C559 C 0.27309 0.22429 0.27975 0.0
C560 C 0.2714 0.24764 0.28783 0.0
C561 C 0.26895 0.22888 0.26758 0.0
C562 C 0.23055 0.27623 0.24691 0.0
H563 H 0.21625 0.20167 0.1936 0.0
H564 H 0.23303 0.2089 0.21395 0.0
H565 H 0.20102 0.28661 0.2327 0.0
H566 H 0.26495 0.29432 0.28947 0.0
H567 H 0.25735 0.30235 0.26803 0.0
H568 H 0.29132 0.23435 0.24402 0.0
C569 C 0.225 0.22757 0.20902 0.0
C570 C 0.22108 0.27567 0.23503 0.0
C571 C 0.21514 0.22339 0.19738 0.0
C572 C 0.26644 0.27594 0.28343 0.0
C573 C 0.26192 0.2805 0.2712 0.0
C574 C 0.27174 0.2461 0.24163 0.0
C575 C 0.22464 0.25545 0.21422 0.0
C576 C 0.2364 0.25953 0.22644 0.0
C577 C 0.26279 0.25691 0.26318 0.0
C578 C 0.25549 0.26067 0.25038 0.0
H579 H 0.19539 0.29337 0.19095 0.0
H580 H 0.2126 0.30066 0.21147 0.0
H581 H 0.27496 0.23353 0.22331 0.0
H582 H 0.27693 0.20225 0.28288 0.0
H583 H 0.2694 0.2102 0.26165 0.0
C584 C 0.74937 0.23855 0.19883 0.0
C585 C 0.7597 0.21622 0.19138 0.0
C586 C 0.73878 0.23217 0.21015 0.0
C587 C 0.74011 0.18093 0.2348 0.0
H588 H 0.66732 0.21885 0.24268 0.0
C589 C 0.69142 0.1786 0.28251 0.0
C590 C 0.68549 0.20682 0.28677 0.0
C591 C 0.69653 0.17397 0.27033 0.0
C592 C 0.68756 0.20798 0.2406 0.0
H593 H 0.76851 0.16981 0.19023 0.0
H594 H 0.75021 0.15869 0.21031 0.0
H595 H 0.68596 0.22167 0.22237 0.0
H596 H 0.6787 0.25191 0.28166 0.0
H597 H 0.6872 0.24385 0.26052 0.0
H598 H 0.74228 0.16837 0.25322 0.0
C599 C 0.75013 0.18108 0.20722 0.0
C600 C 0.69824 0.20963 0.229 0.0
C601 C 0.76063 0.18746 0.19577 0.0
C602 C 0.68327 0.22995 0.27862 0.0
C603 C 0.68798 0.22528 0.2665 0.0
C604 C 0.72942 0.17934 0.24647 0.0
C605 C 0.73838 0.20333 0.21435 0.0
C606 C 0.72513 0.19708 0.2261 0.0
C607 C 0.69526 0.19739 0.26225 0.0
C608 C 0.70357 0.1938 0.24956 0.0
H609 H 0.74863 0.26097 0.19578 0.0
H610 H 0.73051 0.24985 0.21558 0.0
H611 H 0.76088 0.17106 0.23277 0.0
H612 H 0.69337 0.1604 0.28862 0.0
H613 H 0.70199 0.15224 0.26727 0.0
C614 C 0.69528 0.7689 0.69464 0.0
C615 C 0.69479 0.74017 0.69022 0.0
C616 C 0.70597 0.77463 0.70614 0.0
C617 C 0.75707 0.74329 0.7276 0.0
H618 H 0.71757 0.78796 0.75203 0.0
C619 C 0.7754 0.72435 0.77717 0.0
C620 C 0.7746 0.74781 0.78519 0.0
C621 C 0.77019 0.7288 0.76506 0.0
C622 C 0.7292 0.776 0.74522 0.0
H623 H 0.70301 0.69482 0.69465 0.0
H624 H 0.72139 0.70481 0.71458 0.0
H625 H 0.6971 0.78558 0.73183 0.0
H626 H 0.76892 0.79459 0.78683 0.0
H627 H 0.7595 0.80243 0.76549 0.0
H628 H 0.78866 0.73293 0.74095 0.0
C629 C 0.71417 0.72294 0.70912 0.0
C630 C 0.71741 0.77456 0.73369 0.0
C631 C 0.70344 0.71723 0.69773 0.0
C632 C 0.76981 0.77614 0.7808 0.0
C633 C 0.7642 0.78058 0.76864 0.0
C634 C 0.76886 0.74481 0.73905 0.0
C635 C 0.71641 0.75172 0.7133 0.0
C636 C 0.73071 0.75727 0.72493 0.0
C637 C 0.76381 0.75683 0.7607 0.0
C638 C 0.75451 0.76028 0.74809 0.0
H639 H 0.68874 0.78701 0.68904 0.0
H640 H 0.7073 0.797 0.70922 0.0
H641 H 0.76811 0.73035 0.72091 0.0
H642 H 0.77904 0.70229 0.78032 0.0
H643 H 0.7697 0.70999 0.75921 0.0
C644 C 0.48328 0.45434 0.94367 0.0
C645 C 0.45987 0.45841 0.9358 0.0
C646 C 0.48038 0.46064 0.95577 0.0
C647 C 0.43946 0.50479 0.97703 0.0
H648 H 0.47548 0.45266 -4e-05 0.0
C649 C 0.44229 0.52315 0.02885 0.0
C650 C 0.46964 0.51809 0.03407 0.0
C651 C 0.43741 0.51635 0.01681 0.0
C652 C 0.46536 0.46746 -0.00634 0.0
H653 H 0.41498 0.47228 0.93442 0.0
H654 H 0.40992 0.48346 0.95573 0.0
H655 H 0.47289 0.43856 0.97903 0.0
H656 H 0.51365 0.50348 0.03064 0.0
H657 H 0.50516 0.49182 0.00978 0.0
H658 H 0.43249 0.53395 -0.00824 0.0
C659 C 0.43052 0.4754 0.95246 0.0
C660 C 0.46387 0.45939 0.98169 0.0
C661 C 0.43338 0.46888 0.9403 0.0
C662 C 0.49224 0.50734 0.02693 0.0
C663 C 0.48735 0.50048 0.015 0.0
C664 C 0.4409 0.51289 -0.01092 0.0
C665 C 0.45402 0.47125 0.96031 0.0
C666 C 0.45171 0.47831 0.97319 0.0
C667 C 0.45977 0.50426 0.00987 0.0
C668 C 0.45468 0.49463 -0.00258 0.0
H669 H 0.50401 0.44639 0.94049 0.0
H670 H 0.49904 0.45768 0.96156 0.0
H671 H 0.43002 0.51984 0.97065 0.0
H672 H 0.42449 0.53148 0.03415 0.0
H673 H 0.41596 0.51956 0.01304 0.0
C674 C -0.0134 0.44272 0.53198 0.0
C675 C 0.00874 0.44921 0.5402 0.0
C676 C -0.00946 0.44787 0.51984 0.0
C677 C 0.02983 0.49366 0.49882 0.0
H678 H -0.00152 0.43836 0.47594 0.0
C679 C 0.02312 0.5125 0.44703 0.0
C680 C -0.00451 0.50626 0.44228 0.0
C681 C 0.02975 0.50525 0.45889 0.0
C682 C 0.00742 0.45398 0.48222 0.0
H683 H 0.05254 0.46599 0.54215 0.0
H684 H 0.05936 0.4753 0.52075 0.0
H685 H 0.00198 0.42479 0.49692 0.0
H686 H 0.9529 0.48853 0.44635 0.0
H687 H 0.96449 0.47593 0.46684 0.0
H688 H 0.03441 0.52315 0.48403 0.0
C689 C 0.03899 0.46616 0.52379 0.0
C690 C 0.00941 0.44623 0.49422 0.0
C691 C 0.03513 0.46071 0.536 0.0
C692 C 0.97446 0.49345 0.44968 0.0
C693 C -0.01886 0.48603 0.46141 0.0
C694 C 0.0279 0.50143 0.48674 0.0
C695 C 0.01667 0.45977 0.51561 0.0
C696 C 0.01964 0.46633 0.50271 0.0
C697 C 0.00894 0.49138 0.46609 0.0
C698 C 0.01568 0.48198 0.47843 0.0
H699 H 0.96601 0.43387 0.53493 0.0
H700 H 0.97274 0.44317 0.51379 0.0
H701 H 0.03773 0.50962 0.50518 0.0
H702 H 0.03973 0.52242 0.44153 0.0
H703 H 0.05131 0.5097 0.46233 0.0
C704 C 0.22434 0.81935 0.62602 0.0
C705 C 0.21666 0.81941 0.63815 0.0
C706 C 0.212 0.8396 0.61816 0.0
C707 C 0.16926 0.90797 0.61621 0.0
H708 H 0.13069 0.86888 0.5899 0.0
C709 C 0.06849 0.9555 0.59244 0.0
C710 C 0.06338 0.94808 0.58046 0.0
C711 C 0.09238 0.94392 0.59855 0.0
C712 C 0.14178 0.88048 0.59699 0.0
H713 H 0.19196 0.84215 0.65174 0.0
H714 H 0.17065 0.87746 0.63806 0.0
H715 H 0.16502 0.84213 0.60214 0.0
H716 H 0.08035 0.92453 0.56521 0.0
H717 H 0.1225 0.90531 0.57568 0.0
H718 H 0.1456 0.94626 0.61117 0.0
C719 C 0.18607 0.86178 0.6346 0.0
C720 C 0.1615 0.86504 0.60403 0.0
C721 C 0.19811 0.84139 0.64242 0.0
C722 C 0.08346 0.93023 0.57452 0.0
C723 C 0.10756 0.91909 0.58054 0.0
C724 C 0.14971 0.92357 0.60907 0.0
C725 C 0.1921 0.86047 0.62233 0.0
C726 C 0.17494 0.8784 0.61387 0.0
C727 C 0.1119 0.92505 0.59273 0.0
C728 C 0.13521 0.90981 0.59954 0.0
H729 H 0.23863 0.80273 0.62247 0.0
H730 H 0.2172 0.83829 0.60875 0.0
H731 H 0.17949 0.91886 0.62371 0.0
H732 H 0.05334 0.96919 0.59725 0.0
H733 H 0.09478 0.94877 0.60796 0.0
C734 C 0.24316 0.81424 0.85065 0.0
C735 C 0.23591 0.81998 0.83874 0.0
C736 C 0.25588 0.83597 0.85769 0.0
C737 C 0.29703 0.90554 0.85382 0.0
H738 H 0.30116 0.8994 0.88823 0.0
C739 C 0.39417 0.95126 0.87999 0.0
C740 C 0.3916 0.95655 0.89224 0.0
C741 C 0.37046 0.94059 0.87351 0.0
C742 C 0.29996 0.90217 0.87865 0.0
H743 H 0.23369 0.85315 0.82504 0.0
H744 H 0.25348 0.89187 0.83756 0.0
H745 H 0.26545 0.87123 0.87746 0.0
H746 H 0.36226 0.95705 0.90727 0.0
H747 H 0.32014 0.9408 0.89585 0.0
H748 H 0.33034 0.93775 0.85505 0.0
C749 C 0.25109 0.87032 0.84138 0.0
C750 C 0.27969 0.88533 0.8724 0.0
C751 C 0.23933 0.84829 0.83423 0.0
C752 C 0.36463 0.95289 0.8978 0.0
C753 C 0.34064 0.94319 0.89125 0.0
C754 C 0.31664 0.92307 0.86009 0.0
C755 C 0.26086 0.86416 0.85305 0.0
C756 C 0.27871 0.88583 0.85985 0.0
C757 C 0.34343 0.93578 0.8791 0.0
C758 C 0.31927 0.92081 0.87257 0.0
H759 H 0.24103 0.79238 0.85424 0.0
H760 H 0.26335 0.82992 0.86651 0.0
H761 H 0.29738 0.90666 0.84417 0.0
H762 H 0.41496 0.95365 0.87559 0.0
H763 H 0.37395 0.93475 0.86427 0.0
C764 C 0.39618 0.00138 0.0996 0.0
C765 C 0.39426 -0.00399 0.08732 0.0
C766 C 0.37336 0.01517 0.10556 0.0
C767 C 0.30875 0.06178 0.09891 0.0
H768 H 0.30043 0.05724 0.13322 0.0
C769 C 0.25561 0.15412 0.12572 0.0
C770 C 0.24494 0.14845 0.13718 0.0
C771 C 0.26805 0.13169 0.11901 0.0
C772 C 0.30175 0.05849 0.1236 0.0
H773 H 0.36648 -0.00143 0.07175 0.0
H774 H 0.32576 0.02048 0.08224 0.0
H775 H 0.33162 0.02296 0.12313 0.0
H776 H 0.23689 0.11509 0.1504 0.0
H777 H 0.25637 0.07535 0.13838 0.0
H778 H 0.27768 0.09625 0.0993 0.0
C779 C 0.34531 0.01572 0.08725 0.0
C780 C 0.32033 0.03906 0.11779 0.0
C781 C 0.3685 0.00281 0.08123 0.0
C782 C 0.24503 0.11981 0.14154 0.0
C783 C 0.25664 0.09718 0.1347 0.0
C784 C 0.28954 0.08064 0.10467 0.0
C785 C 0.34776 0.02314 0.09942 0.0
C786 C 0.32489 0.04103 0.10541 0.0
C787 C 0.26946 0.10296 0.12353 0.0
C788 C 0.28647 0.08 0.11716 0.0
H789 H 0.41601 -0.00343 0.10444 0.0
H790 H 0.37654 0.02081 0.11485 0.0
H791 H 0.31165 0.06443 0.08939 0.0
H792 H 0.25615 0.17623 0.12231 0.0
H793 H 0.27801 0.1374 0.11059 0.0
C794 C 0.09723 -0.00952 0.39253 0.0
C795 C 0.06943 -0.01248 0.38757 0.0
C796 C 0.11989 0.00218 0.38578 0.0
C797 C 0.13787 0.03098 0.35508 0.0
H798 H 0.19063 0.07961 0.3733 0.0
C799 C 0.21078 0.11344 0.33087 0.0
C800 C 0.21553 0.14025 0.33657 0.0
C801 C 0.19932 0.08984 0.33719 0.0
C802 C 0.17586 0.06651 0.36801 0.0
H803 H 0.0433 -0.00644 0.37171 0.0
H804 H 0.08192 0.01583 0.36015 0.0
H805 H 0.15764 0.04764 0.38364 0.0
H806 H 0.21272 0.16362 0.35328 0.0
H807 H 0.19077 0.12344 0.36417 0.0
H808 H 0.15384 0.05214 0.33952 0.0
C809 C 0.08712 0.00799 0.369 0.0
C810 C 0.15721 0.04744 0.37398 0.0
C811 C 0.06477 -0.00468 0.37564 0.0
C812 C 0.20949 0.14296 0.34876 0.0
C813 C 0.19706 0.1197 0.355 0.0
C814 C 0.15583 0.05075 0.34913 0.0
C815 C 0.11489 0.01235 0.37407 0.0
C816 C 0.13742 0.0298 0.36763 0.0
C817 C 0.19121 0.0929 0.34925 0.0
C818 C 0.17469 0.06932 0.35551 0.0
H819 H 0.10124 -0.01556 0.40174 0.0
H820 H 0.14105 0.00408 0.38992 0.0
H821 H 0.12373 0.01724 0.34977 0.0
H822 H 0.21555 0.11089 0.32146 0.0
H823 H 0.1962 0.06946 0.33249 0.0
C824 C 0.91822 0.04568 0.39047 0.0
C825 C 0.92332 0.01643 0.38733 0.0
C826 C 0.89786 0.06234 0.38423 0.0
C827 C 0.85906 0.06649 0.35547 0.0
H828 H 0.81041 0.12136 0.37255 0.0
C829 C 0.75783 0.15169 0.34632 0.0
C830 C 0.76805 0.16537 0.3359 0.0
C831 C 0.77523 0.13169 0.35246 0.0
C832 C 0.82358 0.10592 0.36765 0.0
H833 H 0.91076 -0.01829 0.37518 0.0
H834 H 0.87499 0.01078 0.36436 0.0
H835 H 0.84307 0.08951 0.38364 0.0
H836 H 0.80452 0.16843 0.32372 0.0
H837 H 0.8349 0.13395 0.33452 0.0
H838 H 0.83933 0.08271 0.33947 0.0
C839 C 0.88705 0.02089 0.37157 0.0
C840 C 0.84257 0.08791 0.374 0.0
C841 C 0.90746 0.0042 0.37781 0.0
C842 C 0.79591 0.15829 0.3317 0.0
C843 C 0.81329 0.13834 0.33785 0.0
C844 C 0.84005 0.0845 0.34911 0.0
C845 C 0.88203 0.05017 0.3747 0.0
C846 C 0.86076 0.0682 0.36798 0.0
C847 C 0.80324 0.12493 0.34834 0.0
C848 C 0.82229 0.10464 0.35512 0.0
H849 H 0.93009 0.05587 0.39771 0.0
H850 H 0.89488 0.08495 0.38675 0.0
H851 H 0.87292 0.05171 0.35055 0.0
H852 H 0.73643 0.15652 0.34977 0.0
H853 H 0.76669 0.12146 0.36043 0.0
C854 C 0.54818 0.0152 0.10044 0.0
C855 C 0.54291 0.01883 0.08818 0.0
C856 C 0.56859 0.03265 0.10633 0.0
C857 C 0.60958 0.10225 0.103 0.0
H858 H 0.65257 0.0719 0.13011 0.0
C859 C 0.6992 0.16768 0.12772 0.0
C860 C 0.69424 0.17047 0.14004 0.0
C861 C 0.6831 0.14777 0.12093 0.0
C862 C 0.64071 0.08059 0.12254 0.0
H863 H 0.55548 0.04299 0.07238 0.0
H864 H 0.59191 0.07261 0.0825 0.0
H865 H 0.6204 0.03961 0.11888 0.0
H866 H 0.66937 0.15384 0.15499 0.0
H867 H 0.64181 0.11856 0.14316 0.0
H868 H 0.63052 0.14312 0.10662 0.0
C869 C 0.57965 0.057 0.08771 0.0
C870 C 0.62209 0.0622 0.11614 0.0
C871 C 0.55885 0.0399 0.08187 0.0
C872 C 0.67358 0.15228 0.14551 0.0
C873 C 0.65793 0.132 0.13876 0.0
C874 C 0.6286 0.12047 0.10928 0.0
C875 C 0.58463 0.05381 0.10004 0.0
C876 C 0.60589 0.07289 0.1064 0.0
C877 C 0.66223 0.12987 0.1264 0.0
C878 C 0.64399 0.10991 0.1192 0.0
H879 H 0.53608 -0.00071 0.10557 0.0
H880 H 0.57129 0.02988 0.11586 0.0
H881 H 0.59718 0.11151 0.09571 0.0
H882 H 0.71491 0.18147 0.12326 0.0
H883 H 0.68684 0.14641 0.1114 0.0
C884 C 0.68154 0.82145 0.82895 0.0
C885 C 0.69936 0.80099 0.83474 0.0
C886 C 0.66493 0.84111 0.83557 0.0
C887 C 0.65331 0.86987 0.86649 0.0
H888 H 0.57585 0.88502 0.85433 0.0
C889 C 0.55727 0.9111 0.89519 0.0
C890 C 0.54155 0.93482 0.89054 0.0
C891 C 0.57856 0.89739 0.88832 0.0
C892 C 0.59752 0.88119 0.85776 0.0
H893 H 0.71435 0.78551 0.85197 0.0
H894 H 0.68456 0.81884 0.86352 0.0
H895 H 0.60965 0.85662 0.8424 0.0
H896 H 0.53579 0.96275 0.87507 0.0
H897 H 0.57249 0.93819 0.86298 0.0
H898 H 0.64027 0.89338 0.88214 0.0
C899 C 0.68392 0.82044 0.85388 0.0
C900 C 0.61703 0.86507 0.85091 0.0
C901 C 0.70094 0.80116 0.84725 0.0
C902 C 0.54757 0.94457 0.87891 0.0
C903 C 0.56848 0.9305 0.87197 0.0
C904 C 0.63357 0.88557 0.87343 0.0
C905 C 0.66529 0.84036 0.84814 0.0
C906 C 0.64517 0.85903 0.85519 0.0
C907 C 0.58413 0.9068 0.87662 0.0
C908 C 0.60549 0.89124 0.86914 0.0
H909 H 0.68015 0.82204 0.8193 0.0
H910 H 0.65148 0.85661 0.83081 0.0
H911 H 0.67492 0.86618 0.87 0.0
H912 H 0.55321 0.9032 0.90414 0.0
H913 H 0.59022 0.87899 0.89206 0.0
C914 C 0.77728 0.81685 0.64706 0.0
C915 C 0.75874 0.79719 0.64117 0.0
C916 C 0.79303 0.83753 0.64061 0.0
C917 C 0.8011 0.87093 0.6103 0.0
H918 H 0.88033 0.88299 0.62108 0.0
C919 C 0.89398 0.91514 0.58057 0.0
C920 C 0.91164 0.93704 0.58556 0.0
C921 C 0.87303 0.90109 0.58751 0.0
C922 C 0.85816 0.88008 0.61804 0.0
H923 H 0.74143 0.78434 0.62394 0.0
H924 H 0.76972 0.81955 0.61261 0.0
H925 H 0.84759 0.85327 0.63296 0.0
H926 H 0.92101 0.96155 0.60169 0.0
H927 H 0.88481 0.93648 0.61387 0.0
H928 H 0.81251 0.89677 0.59504 0.0
C929 C 0.77162 0.81966 0.62224 0.0
C930 C 0.83926 0.86318 0.62488 0.0
C931 C 0.75546 0.79932 0.62873 0.0
C932 C 0.90774 0.94478 0.59759 0.0
C933 C 0.88711 0.9304 0.60457 0.0
C934 C 0.82019 0.88749 0.60337 0.0
C935 C 0.79107 0.83866 0.62807 0.0
C936 C 0.81051 0.85821 0.62108 0.0
C937 C 0.86966 0.90837 0.59961 0.0
C938 C 0.84892 0.89207 0.60715 0.0
H939 H 0.77996 0.81597 0.65667 0.0
H940 H 0.80715 0.8523 0.64545 0.0
H941 H 0.77901 0.86805 0.60719 0.0
H942 H 0.89636 0.90879 0.57131 0.0
H943 H 0.85998 0.884 0.58351 0.0
C944 C 0.72446 0.33241 0.13288 0.0
C945 C 0.70803 0.32104 0.14236 0.0
C946 C 0.71389 0.35586 0.12611 0.0
C947 C 0.6758 0.38806 0.10823 0.0
H948 H 0.62126 0.44321 0.12179 0.0
C949 C 0.57944 0.43036 0.08161 0.0
C950 C 0.56719 0.45782 0.08399 0.0
C951 C 0.60274 0.42006 0.08833 0.0
C952 C 0.63685 0.42851 0.11781 0.0
H953 H 0.66807 0.32617 0.15241 0.0
H954 H 0.64949 0.36586 0.14053 0.0
H955 H 0.65258 0.41506 0.1349 0.0
H956 H 0.57061 0.49648 0.09506 0.0
H957 H 0.61188 0.4786 0.10675 0.0
H958 H 0.66025 0.40168 0.09113 0.0
C959 C 0.6708 0.35741 0.1384 0.0
C960 C 0.65457 0.41199 0.12536 0.0
C961 C 0.68137 0.33425 0.14517 0.0
C962 C 0.57941 0.47513 0.09307 0.0
C963 C 0.60302 0.46485 0.09978 0.0
C964 C 0.65841 0.40491 0.10067 0.0
C965 C 0.68665 0.36831 0.12867 0.0
C966 C 0.67317 0.39049 0.12069 0.0
C967 C 0.61476 0.437 0.09757 0.0
C968 C 0.63766 0.42424 0.10539 0.0
H969 H 0.74519 0.32287 0.13054 0.0
H970 H 0.72684 0.36391 0.11875 0.0
H971 H 0.68987 0.37184 0.10427 0.0
H972 H 0.5706 0.41633 0.07472 0.0
H973 H 0.6106 0.39824 0.08652 0.0
C974 C 0.75999 0.33714 0.32919 0.0
C975 C 0.74577 0.31396 0.33493 0.0
C976 C 0.77233 0.35978 0.3358 0.0
C977 C 0.7786 0.39136 0.36648 0.0
H978 H 0.85572 0.41204 0.35548 0.0
C979 C 0.87065 0.43221 0.39702 0.0
C980 C 0.89011 0.4533 0.39265 0.0
C981 C 0.84839 0.42141 0.38979 0.0
C982 C 0.83401 0.40702 0.35857 0.0
H983 H 0.73199 0.29698 0.35205 0.0
H984 H 0.7545 0.33595 0.36369 0.0
H985 H 0.82501 0.38135 0.34313 0.0
H986 H 0.90054 0.48068 0.37746 0.0
H987 H 0.86169 0.46147 0.36474 0.0
H988 H 0.7886 0.41594 0.38226 0.0
C989 C 0.75561 0.33707 0.35405 0.0
C990 C 0.81629 0.3894 0.35147 0.0
C991 C 0.7428 0.31462 0.34739 0.0
C992 C 0.88597 0.46437 0.38107 0.0
C993 C 0.86382 0.45332 0.37378 0.0
C994 C 0.7965 0.40881 0.37364 0.0
C995 C 0.77124 0.3595 0.34835 0.0
C996 C 0.78854 0.38089 0.35541 0.0
C997 C 0.84521 0.43128 0.378 0.0
C998 C 0.82458 0.41636 0.36984 0.0
H999 H 0.7622 0.33745 0.31956 0.0
H1000 H 0.78346 0.37708 0.33108 0.0
H1001 H 0.7572 0.38566 0.36971 0.0
H1002 H 0.8731 0.42338 0.40593 0.0
H1003 H 0.83458 0.40425 0.39325 0.0
C1004 C 0.91909 0.50669 0.60348 0.0
C1005 C 0.91139 0.48544 0.59502 0.0
C1006 C 0.89831 0.52586 0.60793 0.0
C1007 C 0.8201 0.53787 0.6121 0.0
H1008 H 0.84516 0.61833 0.61532 0.0
C1009 C 0.74942 0.63446 0.63092 0.0
C1010 C 0.7638 0.64942 0.64019 0.0
C1011 C 0.76431 0.6137 0.62405 0.0
C1012 C 0.83781 0.59596 0.61441 0.0
H1013 H 0.87561 0.46692 0.5849 0.0
H1014 H 0.83912 0.50067 0.59273 0.0
H1015 H 0.87725 0.58289 0.606 0.0
H1016 H 0.805 0.65397 0.64955 0.0
H1017 H 0.83058 0.61843 0.63759 0.0
H1018 H 0.78073 0.55124 0.62079 0.0
C1019 C 0.8613 0.50237 0.5959 0.0
C1020 C 0.85622 0.57564 0.60915 0.0
C1021 C 0.88219 0.4831 0.59141 0.0
C1022 C 0.79314 0.64299 0.6425 0.0
C1023 C 0.80794 0.62271 0.6356 0.0
C1024 C 0.80153 0.55836 0.61736 0.0
C1025 C 0.86931 0.52433 0.60402 0.0
C1026 C 0.848 0.54619 0.60829 0.0
C1027 C 0.79384 0.60807 0.62624 0.0
C1028 C 0.81069 0.58737 0.61889 0.0
H1029 H 0.94134 0.50894 0.6065 0.0
H1030 H 0.90503 0.54212 0.6144 0.0
H1031 H 0.81319 0.51531 0.61153 0.0
H1032 H 0.72681 0.63887 0.62895 0.0
H1033 H 0.75301 0.60257 0.61688 0.0
C1034 C 0.66803 0.64466 0.8286 0.0
C1035 C 0.69577 0.65359 0.83241 0.0
C1036 C 0.65267 0.62354 0.83488 0.0
C1037 C 0.65803 0.56203 0.85518 0.0
H1038 H 0.57784 0.58167 0.86201 0.0
C1039 C 0.57933 0.48774 0.88237 0.0
C1040 C 0.55038 0.48675 0.87837 0.0
C1041 C 0.59922 0.50692 0.87712 0.0
C1042 C 0.60008 0.57568 0.86006 0.0
H1043 H 0.72954 0.64646 0.84563 0.0
H1044 H 0.70242 0.60893 0.85665 0.0
H1045 H 0.60915 0.61752 0.85253 0.0
H1046 H 0.51995 0.5039 0.86534 0.0
H1047 H 0.55465 0.53677 0.85604 0.0
H1048 H 0.64863 0.51982 0.86252 0.0
C1049 C 0.69276 0.61865 0.84877 0.0
C1050 C 0.61804 0.59629 0.8547 0.0
C1051 C 0.70818 0.64013 0.8425 0.0
C1052 C 0.54203 0.50434 0.86869 0.0
C1053 C 0.56188 0.52335 0.86343 0.0
C1054 C 0.63992 0.54122 0.86053 0.0
C1055 C 0.66463 0.61062 0.84512 0.0
C1056 C 0.64699 0.58951 0.85198 0.0
C1057 C 0.5905 0.52541 0.86776 0.0
C1058 C 0.61056 0.54767 0.86278 0.0
H1059 H 0.65778 0.65433 0.82084 0.0
H1060 H 0.63123 0.6174 0.83176 0.0
H1061 H 0.68027 0.55628 0.85314 0.0
H1062 H 0.58639 0.47445 0.88982 0.0
H1063 H 0.62108 0.50805 0.88068 0.0
C1064 C 0.38975 0.49807 0.87581 0.0
C1065 C 0.41304 0.5064 0.88319 0.0
C1066 C 0.37159 0.51909 0.87073 0.0
C1067 C 0.36978 0.59714 0.86261 0.0
H1068 H 0.28722 0.58285 0.859 0.0
C1069 C 0.25882 0.66148 0.84686 0.0
C1070 C 0.26928 0.67545 0.83655 0.0
C1071 C 0.27607 0.64133 0.85299 0.0
C1072 C 0.31018 0.58733 0.86004 0.0
H1073 H 0.43517 0.54328 0.89125 0.0
H1074 H 0.40316 0.57998 0.88256 0.0
H1075 H 0.31734 0.54726 0.86939 0.0
H1076 H 0.30607 0.679 0.82457 0.0
H1077 H 0.33589 0.64353 0.83513 0.0
H1078 H 0.36254 0.63747 0.85348 0.0
C1079 C 0.39924 0.55722 0.88051 0.0
C1080 C 0.32752 0.56675 0.86587 0.0
C1081 C 0.41748 0.53618 0.88556 0.0
C1082 C 0.29736 0.66875 0.83251 0.0
C1083 C 0.31456 0.64853 0.83861 0.0
C1084 C 0.35243 0.61775 0.85681 0.0
C1085 C 0.37622 0.54894 0.87296 0.0
C1086 C 0.35756 0.57132 0.86716 0.0
C1087 C 0.30414 0.6346 0.84893 0.0
C1088 C 0.32245 0.61302 0.85539 0.0
H1089 H 0.38581 0.47529 0.87378 0.0
H1090 H 0.35432 0.51196 0.86483 0.0
H1091 H 0.39288 0.60123 0.86333 0.0
H1092 H 0.23735 0.66622 0.85026 0.0
H1093 H 0.26751 0.63129 0.86099 0.0
C1094 C 0.0738 0.49308 0.60061 0.0
C1095 C 0.05144 0.50188 0.59285 0.0
C1096 C 0.09209 0.5137 0.6059 0.0
C1097 C 0.11902 0.58906 0.60327 0.0
H1098 H 0.13357 0.58136 0.63725 0.0
C1099 C 0.20204 0.66078 0.62891 0.0
C1100 C 0.19271 0.67208 0.63993 0.0
C1101 C 0.18538 0.63992 0.62287 0.0
C1102 C 0.12963 0.58385 0.62777 0.0
H1103 H 0.03117 0.53915 0.5843 0.0
H1104 H 0.06326 0.57524 0.59354 0.0
H1105 H 0.10348 0.54529 0.62704 0.0
H1106 H 0.15861 0.67016 0.65325 0.0
H1107 H 0.12972 0.63373 0.64273 0.0
H1108 H 0.14498 0.62786 0.60405 0.0
C1109 C 0.06664 0.55235 0.59549 0.0
C1110 C 0.11263 0.56306 0.6219 0.0
C1111 C 0.0482 0.5317 0.59025 0.0
C1112 C 0.16646 0.66193 0.64479 0.0
C1113 C 0.14996 0.64093 0.6388 0.0
C1114 C 0.13623 0.60977 0.60913 0.0
C1115 C 0.08854 0.54357 0.60349 0.0
C1116 C 0.10706 0.56548 0.6096 0.0
C1117 C 0.15921 0.62974 0.62777 0.0
C1118 C 0.14157 0.60745 0.62145 0.0
H1119 H 0.07694 0.47026 0.60277 0.0
H1120 H 0.10902 0.50626 0.6119 0.0
H1121 H 0.11524 0.59137 0.59377 0.0
H1122 H 0.22213 0.66815 0.62491 0.0
H1123 H 0.19317 0.63148 0.61444 0.0
C1124 C 0.04258 0.44013 0.37935 0.0
C1125 C 0.03933 0.43569 0.39168 0.0
C1126 C 0.06228 0.42334 0.3728 0.0
C1127 C 0.10432 0.35396 0.37487 0.0
H1128 H 0.14281 0.38442 0.34675 0.0
C1129 C 0.19584 0.29269 0.35023 0.0
C1130 C 0.19075 0.28818 0.33799 0.0
C1131 C 0.17842 0.31186 0.35674 0.0
C1132 C 0.1321 0.3757 0.35458 0.0
H1133 H 0.05512 0.41128 0.40693 0.0
H1134 H 0.09043 0.38313 0.39571 0.0
H1135 H 0.11132 0.41629 0.35844 0.0
H1136 H 0.16401 0.3009 0.32289 0.0
H1137 H 0.13402 0.33507 0.33427 0.0
H1138 H 0.12595 0.31363 0.37113 0.0
C1139 C 0.07699 0.39859 0.39092 0.0
C1140 C 0.11391 0.39384 0.36125 0.0
C1141 C 0.05689 0.41492 0.3974 0.0
C1142 C 0.16836 0.30382 0.33233 0.0
C1143 C 0.15132 0.32346 0.3388 0.0
C1144 C 0.12292 0.33605 0.36833 0.0
C1145 C 0.0796 0.40213 0.37848 0.0
C1146 C 0.09963 0.38318 0.37147 0.0
C1147 C 0.15598 0.32734 0.35109 0.0
C1148 C 0.13684 0.34671 0.3581 0.0
H1149 H 0.02918 0.45587 0.37468 0.0
H1150 H 0.06326 0.42649 0.36324 0.0
H1151 H 0.09323 0.34461 0.38247 0.0
H1152 H 0.21287 0.2809 0.35485 0.0
H1153 H 0.18247 0.31462 0.36621 0.0
C1154 C 0.40465 0.45703 0.09477 0.0
C1155 C 0.41668 0.445 0.08435 0.0
C1156 C 0.3841 0.44144 0.10139 0.0
C1157 C 0.33326 0.37857 0.09967 0.0
H1158 H 0.34258 0.37721 0.13407 0.0
C1159 C 0.25646 0.31222 0.13009 0.0
C1160 C 0.26982 0.29618 0.13929 0.0
C1161 C 0.2722 0.33299 0.12364 0.0
C1162 C 0.33973 0.37728 0.12447 0.0
H1163 H 0.41601 0.40732 0.0726 0.0
H1164 H 0.38064 0.38011 0.08419 0.0
H1165 H 0.37387 0.40841 0.12207 0.0
H1166 H 0.31019 0.28973 0.14899 0.0
H1167 H 0.33763 0.32551 0.13764 0.0
H1168 H 0.29994 0.34655 0.10203 0.0
C1169 C 0.38673 0.40175 0.08718 0.0
C1170 C 0.35743 0.39546 0.1176 0.0
C1171 C 0.40721 0.41731 0.08057 0.0
C1172 C 0.29915 0.3017 0.14199 0.0
C1173 C 0.31487 0.32241 0.13552 0.0
C1174 C 0.31559 0.36036 0.10654 0.0
C1175 C 0.37512 0.41348 0.09773 0.0
C1176 C 0.3547 0.39599 0.1051 0.0
C1177 C 0.30165 0.33818 0.12622 0.0
C1178 C 0.31891 0.35918 0.11901 0.0
H1179 H 0.41134 0.47836 0.09791 0.0
H1180 H 0.37531 0.45126 0.10939 0.0
H1181 H 0.33032 0.37874 0.09007 0.0
H1182 H 0.23386 0.30863 0.12782 0.0
H1183 H 0.26126 0.34502 0.11662 0.0
loop_
_geom_bond_atom_site_label_1
_geom_bond_atom_site_label_2
_geom_bond_distance
_geom_bond_site_symmetry_2
_ccdc_geom_bond_type
C0 O1 1.306 1_545 S
C0 O3 1.160 . S
O1 C0 1.306 1_565 S
O1 Cd2 2.228 . S
Cd2 O1 2.228 . S
Cd2 O6 2.273 1_565 S
Cd2 O10 2.277 1_455 S
O3 C0 1.160 . S
O3 Cd4 2.184 1_455 S
Cd4 O3 2.184 1_655 S
Cd4 O6 2.402 1_655 S
Cd4 O7 2.345 . S
Cd4 O8 2.334 1_655 S
Cd4 O12 2.300 . S
Cd4 O13 2.364 . S
C5 O10 1.209 . S
C5 O12 1.226 1_565 S
O6 Cd2 2.273 1_545 S
O6 Cd4 2.402 1_455 S
O6 C9 1.320 1_455 S
O7 Cd4 2.345 . S
O7 C9 1.214 . S
O8 Cd4 2.334 1_455 S
O8 C11 1.258 . S
C9 O6 1.320 1_655 S
C9 O7 1.214 . S
O10 Cd2 2.277 1_655 S
O10 C5 1.209 . S
C11 O8 1.258 . S
C11 O13 1.282 1_455 S
O12 Cd4 2.300 . S
O12 C5 1.226 1_545 S
O13 Cd4 2.364 . S
O13 C11 1.282 1_655 S
C14 O15 1.306 . S
C14 O17 1.160 . S
O15 C14 1.306 . S
O15 Cd16 2.228 . S
Cd16 O15 2.228 . S
Cd16 O20 2.273 . S
Cd16 O24 2.277 . S
O17 C14 1.160 . S
O17 Cd18 2.203 . S
Cd18 O17 2.203 . S
Cd18 O20 2.411 . S
Cd18 O21 2.333 . S
Cd18 O22 2.352 . S
Cd18 O26 2.277 . S
Cd18 O27 2.356 . S
C19 O24 1.209 . S
C19 O26 1.226 . S
O20 Cd16 2.273 . S
O20 Cd18 2.411 . S
O20 C23 1.320 . S
O21 Cd18 2.333 . S
O21 C23 1.214 . S
O22 Cd18 2.352 . S
O22 C25 1.258 . S
C23 O20 1.320 . S
C23 O21 1.214 . S
O24 Cd16 2.277 . S
O24 C19 1.209 . S
C25 O22 1.258 . S
C25 O27 1.282 . S
O26 Cd18 2.277 . S
O26 C19 1.226 . S
O27 Cd18 2.356 . S
O27 C25 1.282 . S
C28 O29 1.306 1_565 S
C28 O31 1.160 . S
O29 C28 1.306 1_545 S
O29 Cd30 2.228 . S
Cd30 O29 2.228 . S
Cd30 O34 2.273 1_545 S
Cd30 O38 2.277 . S
O31 C28 1.160 . S
O31 Cd32 2.203 . S
Cd32 O31 2.203 . S
Cd32 O34 2.411 . S
Cd32 O35 2.333 . S
Cd32 O36 2.352 . S
Cd32 O40 2.277 . S
Cd32 O41 2.356 . S
C33 O38 1.209 . S
C33 O40 1.226 1_545 S
O34 Cd30 2.273 1_565 S
O34 Cd32 2.411 . S
O34 C37 1.320 . S
O35 Cd32 2.333 . S
O35 C37 1.214 . S
O36 Cd32 2.352 . S
O36 C39 1.258 . S
C37 O34 1.320 . S
C37 O35 1.214 . S
O38 Cd30 2.277 . S
O38 C33 1.209 . S
C39 O36 1.258 . S
C39 O41 1.282 . S
O40 Cd32 2.277 . S
O40 C33 1.226 1_565 S
O41 Cd32 2.356 . S
O41 C39 1.282 . S
C42 O43 1.306 . S
C42 O45 1.160 . S
O43 C42 1.306 . S
O43 Cd44 2.228 . S
Cd44 O43 2.228 . S
Cd44 O48 2.273 . S
Cd44 O52 2.277 . S
O45 C42 1.160 . S
O45 Cd46 2.203 . S
Cd46 O45 2.203 . S
Cd46 O48 2.411 . S
Cd46 O49 2.333 . S
Cd46 O50 2.352 . S
Cd46 O54 2.277 . S
Cd46 O55 2.356 . S
C47 O52 1.209 . S
C47 O54 1.226 . S
O48 Cd44 2.273 . S
O48 Cd46 2.411 . S
O48 C51 1.320 . S
O49 Cd46 2.333 . S
O49 C51 1.214 . S
O50 Cd46 2.352 . S
O50 C53 1.258 . S
C51 O48 1.320 . S
C51 O49 1.214 . S
O52 Cd44 2.277 . S
O52 C47 1.209 . S
C53 O50 1.258 . S
C53 O55 1.282 . S
O54 Cd46 2.277 . S
O54 C47 1.226 . S
O55 Cd46 2.356 . S
O55 C53 1.282 . S
C56 O57 1.306 1_565 S
C56 O59 1.160 . S
O57 C56 1.306 1_545 S
O57 Cd58 2.228 . S
Cd58 O57 2.228 . S
Cd58 O62 2.273 1_545 S
Cd58 O66 2.277 1_455 S
O59 C56 1.160 . S
O59 Cd60 2.184 1_455 S
Cd60 O59 2.184 1_655 S
Cd60 O62 2.402 1_655 S
Cd60 O63 2.345 . S
Cd60 O64 2.334 1_655 S
Cd60 O68 2.300 . S
Cd60 O69 2.364 . S
C61 O66 1.209 . S
C61 O68 1.226 1_545 S
O62 Cd58 2.273 1_565 S
O62 Cd60 2.402 1_455 S
O62 C65 1.320 1_455 S
O63 Cd60 2.345 . S
O63 C65 1.214 . S
O64 Cd60 2.334 1_455 S
O64 C67 1.258 . S
C65 O62 1.320 1_655 S
C65 O63 1.214 . S
O66 Cd58 2.277 1_655 S
O66 C61 1.209 . S
C67 O64 1.258 . S
C67 O69 1.282 1_455 S
O68 Cd60 2.300 . S
O68 C61 1.226 1_565 S
O69 Cd60 2.364 . S
O69 C67 1.282 1_655 S
C70 O71 1.306 . S
C70 O73 1.160 . S
O71 C70 1.306 . S
O71 Cd72 2.228 . S
Cd72 O71 2.228 . S
Cd72 O76 2.273 . S
Cd72 O80 2.277 . S
O73 C70 1.160 . S
O73 Cd74 2.203 . S
Cd74 O73 2.203 . S
Cd74 O76 2.411 . S
Cd74 O77 2.333 . S
Cd74 O78 2.352 . S
Cd74 O82 2.277 . S
Cd74 O83 2.356 . S
C75 O80 1.209 . S
C75 O82 1.226 . S
O76 Cd72 2.273 . S
O76 Cd74 2.411 . S
O76 C79 1.320 . S
O77 Cd74 2.333 . S
O77 C79 1.214 . S
O78 Cd74 2.352 . S
O78 C81 1.258 . S
C79 O76 1.320 . S
C79 O77 1.214 . S
O80 Cd72 2.277 . S
O80 C75 1.209 . S
C81 O78 1.258 . S
C81 O83 1.282 . S
O82 Cd74 2.277 . S
O82 C75 1.226 . S
O83 Cd74 2.356 . S
O83 C81 1.282 . S
C84 O85 1.306 1_545 S
C84 O87 1.160 . S
O85 C84 1.306 1_565 S
O85 Cd86 2.228 . S
Cd86 O85 2.228 . S
Cd86 O90 2.273 1_565 S
Cd86 O94 2.277 . S
O87 C84 1.160 . S
O87 Cd88 2.203 . S
Cd88 O87 2.203 . S
Cd88 O90 2.411 . S
Cd88 O91 2.333 . S
Cd88 O92 2.352 . S
Cd88 O96 2.277 . S
Cd88 O97 2.356 . S
C89 O94 1.209 . S
C89 O96 1.226 1_565 S
O90 Cd86 2.273 1_545 S
O90 Cd88 2.411 . S
O90 C93 1.320 . S
O91 Cd88 2.333 . S
O91 C93 1.214 . S
O92 Cd88 2.352 . S
O92 C95 1.258 . S
C93 O90 1.320 . S
C93 O91 1.214 . S
O94 Cd86 2.277 . S
O94 C89 1.209 . S
C95 O92 1.258 . S
C95 O97 1.282 . S
O96 Cd88 2.277 . S
O96 C89 1.226 1_545 S
O97 Cd88 2.356 . S
O97 C95 1.282 . S
C98 O99 1.306 . S
C98 O101 1.160 . S
O99 C98 1.306 . S
O99 Cd100 2.228 . S
Cd100 O99 2.228 . S
Cd100 O104 2.273 . S
Cd100 O108 2.277 . S
O101 C98 1.160 . S
O101 Cd102 2.203 . S
Cd102 O101 2.203 . S
Cd102 O104 2.411 . S
Cd102 O105 2.333 . S
Cd102 O106 2.352 . S
Cd102 O110 2.277 . S
Cd102 O111 2.356 . S
C103 O108 1.209 . S
C103 O110 1.226 . S
O104 Cd100 2.273 . S
O104 Cd102 2.411 . S
O104 C107 1.320 . S
O105 Cd102 2.333 . S
O105 C107 1.214 . S
O106 Cd102 2.352 . S
O106 C109 1.258 . S
C107 O104 1.320 . S
C107 O105 1.214 . S
O108 Cd100 2.277 . S
O108 C103 1.209 . S
C109 O106 1.258 . S
C109 O111 1.282 . S
O110 Cd102 2.277 . S
O110 C103 1.226 . S
O111 Cd102 2.356 . S
O111 C109 1.282 . S
C112 O113 1.306 . S
C112 O115 1.160 . S
O113 C112 1.306 . S
O113 Cd114 2.228 . S
Cd114 O113 2.228 . S
Cd114 O118 2.273 . S
Cd114 O122 2.277 . S
O115 C112 1.160 . S
O115 Cd116 2.203 . S
Cd116 O115 2.203 . S
Cd116 O118 2.411 . S
Cd116 O119 2.333 . S
Cd116 O120 2.352 . S
Cd116 O124 2.277 . S
Cd116 O125 2.356 . S
C117 O122 1.209 . S
C117 O124 1.226 . S
O118 Cd114 2.273 . S
O118 Cd116 2.411 . S
O118 C121 1.320 . S
O119 Cd116 2.333 . S
O119 C121 1.214 . S
O120 Cd116 2.352 . S
O120 C123 1.258 . S
C121 O118 1.320 . S
C121 O119 1.214 . S
O122 Cd114 2.277 . S
O122 C117 1.209 . S
C123 O120 1.258 . S
C123 O125 1.282 . S
O124 Cd116 2.277 . S
O124 C117 1.226 . S
O125 Cd116 2.356 . S
O125 C123 1.282 . S
C126 O127 1.306 . S
C126 O129 1.160 . S
O127 C126 1.306 . S
O127 Cd128 2.228 . S
Cd128 O127 2.228 . S
Cd128 O132 2.273 . S
Cd128 O136 2.277 . S
O129 C126 1.160 . S
O129 Cd130 2.203 . S
Cd130 O129 2.203 . S
Cd130 O132 2.411 . S
Cd130 O133 2.333 . S
Cd130 O134 2.352 . S
Cd130 O138 2.277 . S
Cd130 O139 2.356 . S
C131 O136 1.209 . S
C131 O138 1.226 . S
O132 Cd128 2.273 . S
O132 Cd130 2.411 . S
O132 C135 1.320 . S
O133 Cd130 2.333 . S
O133 C135 1.214 . S
O134 Cd130 2.352 . S
O134 C137 1.258 . S
C135 O132 1.320 . S
C135 O133 1.214 . S
O136 Cd128 2.277 . S
O136 C131 1.209 . S
C137 O134 1.258 . S
C137 O139 1.282 . S
O138 Cd130 2.277 . S
O138 C131 1.226 . S
O139 Cd130 2.356 . S
O139 C137 1.282 . S
C140 O141 1.306 . S
C140 O143 1.160 . S
O141 C140 1.306 . S
O141 Cd142 2.228 . S
Cd142 O141 2.228 . S
Cd142 O146 2.273 . S
Cd142 O150 2.277 . S
O143 C140 1.160 . S
O143 Cd144 2.203 . S
Cd144 O143 2.203 . S
Cd144 O146 2.411 . S
Cd144 O147 2.333 . S
Cd144 O148 2.352 . S
Cd144 O152 2.277 . S
Cd144 O153 2.356 . S
C145 O150 1.209 . S
C145 O152 1.226 . S
O146 Cd142 2.273 . S
O146 Cd144 2.411 . S
O146 C149 1.320 . S
O147 Cd144 2.333 . S
O147 C149 1.214 . S
O148 Cd144 2.352 . S
O148 C151 1.258 . S
C149 O146 1.320 . S
C149 O147 1.214 . S
O150 Cd142 2.277 . S
O150 C145 1.209 . S
C151 O148 1.258 . S
C151 O153 1.282 . S
O152 Cd144 2.277 . S
O152 C145 1.226 . S
O153 Cd144 2.356 . S
O153 C151 1.282 . S
C154 O155 1.306 . S
C154 O157 1.160 . S
O155 C154 1.306 . S
O155 Cd156 2.228 . S
Cd156 O155 2.228 . S
Cd156 O160 2.273 . S
Cd156 O164 2.277 . S
O157 C154 1.160 . S
O157 Cd158 2.203 . S
Cd158 O157 2.203 . S
Cd158 O160 2.411 . S
Cd158 O161 2.333 . S
Cd158 O162 2.352 . S
Cd158 O166 2.277 . S
Cd158 O167 2.356 . S
C159 O164 1.209 . S
C159 O166 1.226 . S
O160 Cd156 2.273 . S
O160 Cd158 2.411 . S
O160 C163 1.320 . S
O161 Cd158 2.333 . S
O161 C163 1.214 . S
O162 Cd158 2.352 . S
O162 C165 1.258 . S
C163 O160 1.320 . S
C163 O161 1.214 . S
O164 Cd156 2.277 . S
O164 C159 1.209 . S
C165 O162 1.258 . S
C165 O167 1.282 . S
O166 Cd158 2.277 . S
O166 C159 1.226 . S
O167 Cd158 2.356 . S
O167 C165 1.282 . S
C168 O169 1.306 . S
C168 O171 1.160 . S
O169 C168 1.306 . S
O169 Cd170 2.228 . S
Cd170 O169 2.228 . S
Cd170 O174 2.273 . S
Cd170 O178 2.277 . S
O171 C168 1.160 . S
O171 Cd172 2.203 . S
Cd172 O171 2.203 . S
Cd172 O174 2.411 . S
Cd172 O175 2.333 . S
Cd172 O176 2.352 . S
Cd172 O180 2.277 . S
Cd172 O181 2.356 . S
C173 O178 1.209 . S
C173 O180 1.226 . S
O174 Cd170 2.273 . S
O174 Cd172 2.411 . S
O174 C177 1.320 . S
O175 Cd172 2.333 . S
O175 C177 1.214 . S
O176 Cd172 2.352 . S
O176 C179 1.258 . S
C177 O174 1.320 . S
C177 O175 1.214 . S
O178 Cd170 2.277 . S
O178 C173 1.209 . S
C179 O176 1.258 . S
C179 O181 1.282 . S
O180 Cd172 2.277 . S
O180 C173 1.226 . S
O181 Cd172 2.356 . S
O181 C179 1.282 . S
C182 O183 1.306 . S
C182 O185 1.160 . S
O183 C182 1.306 . S
O183 Cd184 2.228 . S
Cd184 O183 2.228 . S
Cd184 O188 2.273 . S
Cd184 O192 2.277 1_655 S
O185 C182 1.160 . S
O185 Cd186 2.203 1_655 S
Cd186 O185 2.203 1_455 S
Cd186 O188 2.411 1_455 S
Cd186 O189 2.333 . S
Cd186 O190 2.352 1_455 S
Cd186 O194 2.277 . S
Cd186 O195 2.356 . S
C187 O192 1.209 . S
C187 O194 1.226 . S
O188 Cd184 2.273 . S
O188 Cd186 2.411 1_655 S
O188 C191 1.320 1_655 S
O189 Cd186 2.333 . S
O189 C191 1.214 . S
O190 Cd186 2.352 1_655 S
O190 C193 1.258 . S
C191 O188 1.320 1_455 S
C191 O189 1.214 . S
O192 Cd184 2.277 1_455 S
O192 C187 1.209 . S
C193 O190 1.258 . S
C193 O195 1.282 1_655 S
O194 Cd186 2.277 . S
O194 C187 1.226 . S
O195 Cd186 2.356 . S
O195 C193 1.282 1_455 S
C196 O197 1.306 . S
C196 O199 1.160 . S
O197 C196 1.306 . S
O197 Cd198 2.228 . S
Cd198 O197 2.228 . S
Cd198 O202 2.273 . S
Cd198 O206 2.277 . S
O199 C196 1.160 . S
O199 Cd200 2.203 . S
Cd200 O199 2.203 . S
Cd200 O202 2.411 . S
Cd200 O203 2.333 . S
Cd200 O204 2.352 . S
Cd200 O208 2.277 . S
Cd200 O209 2.356 . S
C201 O206 1.209 . S
C201 O208 1.226 . S
O202 Cd198 2.273 . S
O202 Cd200 2.411 . S
O202 C205 1.320 . S
O203 Cd200 2.333 . S
O203 C205 1.214 . S
O204 Cd200 2.352 . S
O204 C207 1.258 . S
C205 O202 1.320 . S
C205 O203 1.214 . S
O206 Cd198 2.277 . S
O206 C201 1.209 . S
C207 O204 1.258 . S
C207 O209 1.282 . S
O208 Cd200 2.277 . S
O208 C201 1.226 . S
O209 Cd200 2.356 . S
O209 C207 1.282 . S
C210 O211 1.306 . S
C210 O213 1.160 . S
O211 C210 1.306 . S
O211 Cd212 2.228 . S
Cd212 O211 2.228 . S
Cd212 O216 2.273 . S
Cd212 O220 2.277 1_655 S
O213 C210 1.160 . S
O213 Cd214 2.203 1_655 S
Cd214 O213 2.203 1_455 S
Cd214 O216 2.411 1_455 S
Cd214 O217 2.333 . S
Cd214 O218 2.352 1_455 S
Cd214 O222 2.277 . S
Cd214 O223 2.356 . S
C215 O220 1.209 . S
C215 O222 1.226 . S
O216 Cd212 2.273 . S
O216 Cd214 2.411 1_655 S
O216 C219 1.320 1_655 S
O217 Cd214 2.333 . S
O217 C219 1.214 . S
O218 Cd214 2.352 1_655 S
O218 C221 1.258 . S
C219 O216 1.320 1_455 S
C219 O217 1.214 . S
O220 Cd212 2.277 1_455 S
O220 C215 1.209 . S
C221 O218 1.258 . S
C221 O223 1.282 1_655 S
O222 Cd214 2.277 . S
O222 C215 1.226 . S
O223 Cd214 2.356 . S
O223 C221 1.282 1_455 S
C224 C225 1.349 . S
C224 C226 1.327 . S
C224 H249 0.950 . S
C225 C224 1.349 . S
C225 C241 1.349 1_455 S
C226 C224 1.327 . S
C226 C245 1.429 . S
C226 H250 0.950 . S
C227 C244 1.574 . S
C227 C246 1.368 1_655 S
C227 H251 0.949 . S
H228 C232 0.949 . S
C229 C230 1.349 . S
C229 C231 1.327 . S
C229 H252 0.950 . S
C230 C229 1.349 . S
C230 C242 1.349 1_655 S
C231 C229 1.327 . S
C231 C247 1.430 . S
C231 H253 0.950 . S
C232 H228 0.949 . S
C232 C240 1.574 . S
C232 C248 1.368 . S
H233 C241 0.950 . S
H234 C239 0.950 . S
H235 C240 0.949 . S
H236 C242 0.950 . S
H237 C243 0.950 . S
H238 C244 0.949 . S
C239 H234 0.950 . S
C239 C241 1.327 . S
C239 C245 1.429 1_655 S
C240 C232 1.574 . S
C240 H235 0.949 . S
C240 C246 1.368 . S
C241 C225 1.349 1_655 S
C241 H233 0.950 . S
C241 C239 1.327 . S
C242 C230 1.349 1_455 S
C242 H236 0.950 . S
C242 C243 1.327 . S
C243 H237 0.950 . S
C243 C242 1.327 . S
C243 C247 1.427 1_455 S
C244 C227 1.574 . S
C244 H238 0.949 . S
C244 C248 1.368 1_655 S
C245 C226 1.429 . S
C245 C239 1.429 1_455 S
C245 C246 1.523 . S
C246 C227 1.368 1_455 S
C246 C240 1.368 . S
C246 C245 1.523 . S
C247 C231 1.430 . S
C247 C243 1.427 1_655 S
C247 C248 1.523 1_655 S
C248 C232 1.368 . S
C248 C244 1.368 1_455 S
C248 C247 1.523 1_455 S
H249 C224 0.950 . S
H250 C226 0.950 . S
H251 C227 0.949 . S
H252 C229 0.950 . S
H253 C231 0.950 . S
C254 C255 1.349 . S
C254 C256 1.327 . S
C254 H279 0.950 . S
C255 C254 1.349 . S
C255 C271 1.349 . S
C256 C254 1.327 . S
C256 C275 1.429 . S
C256 H280 0.950 . S
C257 C274 1.574 1_655 S
C257 C276 1.368 . S
C257 H281 0.949 . S
H258 C262 0.949 . S
C259 C260 1.349 . S
C259 C261 1.327 . S
C259 H282 0.950 . S
C260 C259 1.349 . S
C260 C272 1.349 . S
C261 C259 1.327 . S
C261 C277 1.429 . S
C261 H283 0.950 . S
C262 H258 0.949 . S
C262 C270 1.574 1_455 S
C262 C278 1.368 . S
H263 C271 0.950 . S
H264 C269 0.950 . S
H265 C270 0.949 . S
H266 C272 0.950 . S
H267 C273 0.950 . S
H268 C274 0.949 . S
C269 H264 0.950 . S
C269 C271 1.327 . S
C269 C275 1.429 . S
C270 C262 1.574 1_655 S
C270 H265 0.949 . S
C270 C276 1.368 . S
C271 C255 1.349 . S
C271 H263 0.950 . S
C271 C269 1.327 . S
C272 C260 1.349 . S
C272 H266 0.950 . S
C272 C273 1.327 . S
C273 H267 0.950 . S
C273 C272 1.327 . S
C273 C277 1.429 . S
C274 C257 1.574 1_455 S
C274 H268 0.949 . S
C274 C278 1.368 . S
C275 C256 1.429 . S
C275 C269 1.429 . S
C275 C276 1.523 . S
C276 C257 1.368 . S
C276 C270 1.368 . S
C276 C275 1.523 . S
C277 C261 1.429 . S
C277 C273 1.429 . S
C277 C278 1.523 . S
C278 C262 1.368 . S
C278 C274 1.368 . S
C278 C277 1.523 . S
H279 C254 0.950 . S
H280 C256 0.950 . S
H281 C257 0.949 . S
H282 C259 0.950 . S
H283 C261 0.950 . S
C284 C285 1.349 . S
C284 C286 1.327 . S
C284 H309 0.950 . S
C285 C284 1.349 . S
C285 C301 1.349 . S
C286 C284 1.327 . S
C286 C305 1.429 . S
C286 H310 0.950 . S
C287 C304 1.574 . S
C287 C306 1.368 . S
C287 H311 0.949 . S
H288 C292 0.949 . S
C289 C290 1.349 . S
C289 C291 1.327 . S
C289 H312 0.950 . S
C290 C289 1.349 . S
C290 C302 1.349 . S
C291 C289 1.327 . S
C291 C307 1.429 . S
C291 H313 0.950 . S
C292 H288 0.949 . S
C292 C300 1.574 . S
C292 C308 1.368 . S
H293 C301 0.950 . S
H294 C299 0.950 . S
H295 C300 0.949 . S
H296 C302 0.950 . S
H297 C303 0.950 . S
H298 C304 0.949 . S
C299 H294 0.950 . S
C299 C301 1.327 . S
C299 C305 1.429 . S
C300 C292 1.574 . S
C300 H295 0.949 . S
C300 C306 1.368 . S
C301 C285 1.349 . S
C301 H293 0.950 . S
C301 C299 1.327 . S
C302 C290 1.349 . S
C302 H296 0.950 . S
C302 C303 1.327 . S
C303 H297 0.950 . S
C303 C302 1.327 . S
C303 C307 1.429 . S
C304 C287 1.574 . S
C304 H298 0.949 . S
C304 C308 1.368 . S
C305 C286 1.429 . S
C305 C299 1.429 . S
C305 C306 1.523 . S
C306 C287 1.368 . S
C306 C300 1.368 . S
C306 C305 1.523 . S
C307 C291 1.429 . S
C307 C303 1.429 . S
C307 C308 1.523 . S
C308 C292 1.368 . S
C308 C304 1.368 . S
C308 C307 1.523 . S
H309 C284 0.950 . S
H310 C286 0.950 . S
H311 C287 0.949 . S
H312 C289 0.950 . S
H313 C291 0.950 . S
C314 C315 1.349 . S
C314 C316 1.327 . S
C314 H339 0.950 . S
C315 C314 1.349 . S
C315 C331 1.349 . S
C316 C314 1.327 . S
C316 C335 1.429 . S
C316 H340 0.950 . S
C317 C334 1.574 . S
C317 C336 1.368 . S
C317 H341 0.949 . S
H318 C322 0.949 . S
C319 C320 1.349 . S
C319 C321 1.327 . S
C319 H342 0.950 . S
C320 C319 1.349 . S
C320 C332 1.349 . S
C321 C319 1.327 . S
C321 C337 1.429 . S
C321 H343 0.950 . S
C322 H318 0.949 . S
C322 C330 1.574 . S
C322 C338 1.368 . S
H323 C331 0.950 . S
H324 C329 0.950 . S
H325 C330 0.949 . S
H326 C332 0.950 . S
H327 C333 0.950 . S
H328 C334 0.949 . S
C329 H324 0.950 . S
C329 C331 1.327 . S
C329 C335 1.429 . S
C330 C322 1.574 . S
C330 H325 0.949 . S
C330 C336 1.368 . S
C331 C315 1.349 . S
C331 H323 0.950 . S
C331 C329 1.327 . S
C332 C320 1.349 . S
C332 H326 0.950 . S
C332 C333 1.327 . S
C333 H327 0.950 . S
C333 C332 1.327 . S
C333 C337 1.429 . S
C334 C317 1.574 . S
C334 H328 0.949 . S
C334 C338 1.368 . S
C335 C316 1.429 . S
C335 C329 1.429 . S
C335 C336 1.523 . S
C336 C317 1.368 . S
C336 C330 1.368 . S
C336 C335 1.523 . S
C337 C321 1.429 . S
C337 C333 1.429 . S
C337 C338 1.523 . S
C338 C322 1.368 . S
C338 C334 1.368 . S
C338 C337 1.523 . S
H339 C314 0.950 . S
H340 C316 0.950 . S
H341 C317 0.949 . S
H342 C319 0.950 . S
H343 C321 0.950 . S
C344 C345 1.349 . S
C344 C346 1.327 . S
C344 H369 0.950 . S
C345 C344 1.349 . S
C345 C361 1.349 1_455 S
C346 C344 1.327 . S
C346 C365 1.429 . S
C346 H370 0.950 . S
C347 C364 1.574 . S
C347 C366 1.368 1_655 S
C347 H371 0.949 . S
H348 C352 0.949 . S
C349 C350 1.349 . S
C349 C351 1.327 . S
C349 H372 0.950 . S
C350 C349 1.349 . S
C350 C362 1.349 1_655 S
C351 C349 1.327 . S
C351 C367 1.430 . S
C351 H373 0.950 . S
C352 H348 0.949 . S
C352 C360 1.574 . S
C352 C368 1.368 . S
H353 C361 0.950 . S
H354 C359 0.950 . S
H355 C360 0.949 . S
H356 C362 0.950 . S
H357 C363 0.950 . S
H358 C364 0.949 . S
C359 H354 0.950 . S
C359 C361 1.327 . S
C359 C365 1.429 1_655 S
C360 C352 1.574 . S
C360 H355 0.949 . S
C360 C366 1.368 . S
C361 C345 1.349 1_655 S
C361 H353 0.950 . S
C361 C359 1.327 . S
C362 C350 1.349 1_455 S
C362 H356 0.950 . S
C362 C363 1.327 . S
C363 H357 0.950 . S
C363 C362 1.327 . S
C363 C367 1.427 1_455 S
C364 C347 1.574 . S
C364 H358 0.949 . S
C364 C368 1.368 1_655 S
C365 C346 1.429 . S
C365 C359 1.429 1_455 S
C365 C366 1.523 . S
C366 C347 1.368 1_455 S
C366 C360 1.368 . S
C366 C365 1.523 . S
C367 C351 1.430 . S
C367 C363 1.427 1_655 S
C367 C368 1.523 1_655 S
C368 C352 1.368 . S
C368 C364 1.368 1_455 S
C368 C367 1.523 1_455 S
H369 C344 0.950 . S
H370 C346 0.950 . S
H371 C347 0.949 . S
H372 C349 0.950 . S
H373 C351 0.950 . S
C374 C375 1.349 . S
C374 C376 1.327 . S
C374 H399 0.950 . S
C375 C374 1.349 . S
C375 C391 1.349 . S
C376 C374 1.327 . S
C376 C395 1.429 . S
C376 H400 0.950 . S
C377 C394 1.574 . S
C377 C396 1.368 . S
C377 H401 0.949 . S
H378 C382 0.949 . S
C379 C380 1.349 . S
C379 C381 1.327 . S
C379 H402 0.950 . S
C380 C379 1.349 . S
C380 C392 1.349 . S
C381 C379 1.327 . S
C381 C397 1.429 . S
C381 H403 0.950 . S
C382 H378 0.949 . S
C382 C390 1.574 . S
C382 C398 1.368 . S
H383 C391 0.950 . S
H384 C389 0.950 . S
H385 C390 0.949 . S
H386 C392 0.950 . S
H387 C393 0.950 . S
H388 C394 0.949 . S
C389 H384 0.950 . S
C389 C391 1.327 . S
C389 C395 1.429 . S
C390 C382 1.574 . S
C390 H385 0.949 . S
C390 C396 1.368 . S
C391 C375 1.349 . S
C391 H383 0.950 . S
C391 C389 1.327 . S
C392 C380 1.349 . S
C392 H386 0.950 . S
C392 C393 1.327 . S
C393 H387 0.950 . S
C393 C392 1.327 . S
C393 C397 1.429 . S
C394 C377 1.574 . S
C394 H388 0.949 . S
C394 C398 1.368 . S
C395 C376 1.429 . S
C395 C389 1.429 . S
C395 C396 1.523 . S
C396 C377 1.368 . S
C396 C390 1.368 . S
C396 C395 1.523 . S
C397 C381 1.429 . S
C397 C393 1.429 . S
C397 C398 1.523 . S
C398 C382 1.368 . S
C398 C394 1.368 . S
C398 C397 1.523 . S
H399 C374 0.950 . S
H400 C376 0.950 . S
H401 C377 0.949 . S
H402 C379 0.950 . S
H403 C381 0.950 . S
C404 C405 1.349 . S
C404 C406 1.327 . S
C404 H429 0.950 . S
C405 C404 1.349 . S
C405 C421 1.349 . S
C406 C404 1.327 . S
C406 C425 1.429 . S
C406 H430 0.950 . S
C407 C424 1.574 . S
C407 C426 1.368 . S
C407 H431 0.949 . S
H408 C412 0.949 . S
C409 C410 1.349 . S
C409 C411 1.327 . S
C409 H432 0.950 . S
C410 C409 1.349 . S
C410 C422 1.349 . S
C411 C409 1.327 . S
C411 C427 1.429 . S
C411 H433 0.950 . S
C412 H408 0.949 . S
C412 C420 1.574 . S
C412 C428 1.368 . S
H413 C421 0.950 . S
H414 C419 0.950 . S
H415 C420 0.949 . S
H416 C422 0.950 . S
H417 C423 0.950 . S
H418 C424 0.949 . S
C419 H414 0.950 . S
C419 C421 1.327 . S
C419 C425 1.429 . S
C420 C412 1.574 . S
C420 H415 0.949 . S
C420 C426 1.368 . S
C421 C405 1.349 . S
C421 H413 0.950 . S
C421 C419 1.327 . S
C422 C410 1.349 . S
C422 H416 0.950 . S
C422 C423 1.327 . S
C423 H417 0.950 . S
C423 C422 1.327 . S
C423 C427 1.429 . S
C424 C407 1.574 . S
C424 H418 0.949 . S
C424 C428 1.368 . S
C425 C406 1.429 . S
C425 C419 1.429 . S
C425 C426 1.523 . S
C426 C407 1.368 . S
C426 C420 1.368 . S
C426 C425 1.523 . S
C427 C411 1.429 . S
C427 C423 1.429 . S
C427 C428 1.523 . S
C428 C412 1.368 . S
C428 C424 1.368 . S
C428 C427 1.523 . S
H429 C404 0.950 . S
H430 C406 0.950 . S
H431 C407 0.949 . S
H432 C409 0.950 . S
H433 C411 0.950 . S
C434 C435 1.349 . S
C434 C436 1.327 . S
C434 H459 0.950 . S
C435 C434 1.349 . S
C435 C451 1.349 . S
C436 C434 1.327 . S
C436 C455 1.429 . S
C436 H460 0.950 . S
C437 C454 1.574 1_455 S
C437 C456 1.368 . S
C437 H461 0.949 . S
H438 C442 0.949 . S
C439 C440 1.349 . S
C439 C441 1.327 . S
C439 H462 0.950 . S
C440 C439 1.349 . S
C440 C452 1.349 . S
C441 C439 1.327 . S
C441 C457 1.429 . S
C441 H463 0.950 . S
C442 H438 0.949 . S
C442 C450 1.574 1_655 S
C442 C458 1.368 . S
H443 C451 0.950 . S
H444 C449 0.950 . S
H445 C450 0.949 . S
H446 C452 0.950 . S
H447 C453 0.950 . S
H448 C454 0.949 . S
C449 H444 0.950 . S
C449 C451 1.327 . S
C449 C455 1.429 . S
C450 C442 1.574 1_455 S
C450 H445 0.949 . S
C450 C456 1.368 . S
C451 C435 1.349 . S
C451 H443 0.950 . S
C451 C449 1.327 . S
C452 C440 1.349 . S
C452 H446 0.950 . S
C452 C453 1.327 . S
C453 H447 0.950 . S
C453 C452 1.327 . S
C453 C457 1.429 . S
C454 C437 1.574 1_655 S
C454 H448 0.949 . S
C454 C458 1.368 . S
C455 C436 1.429 . S
C455 C449 1.429 . S
C455 C456 1.523 . S
C456 C437 1.368 . S
C456 C450 1.368 . S
C456 C455 1.523 . S
C457 C441 1.429 . S
C457 C453 1.429 . S
C457 C458 1.523 . S
C458 C442 1.368 . S
C458 C454 1.368 . S
C458 C457 1.523 . S
H459 C434 0.950 . S
H460 C436 0.950 . S
H461 C437 0.949 . S
H462 C439 0.950 . S
H463 C441 0.950 . S
C464 C465 1.349 1_445 S
C464 C466 1.327 . S
C464 H489 0.950 . S
C465 C464 1.349 1_665 S
C465 C481 1.349 . S
C466 C464 1.327 . S
C466 C485 1.429 1_445 S
C466 H490 0.950 . S
C467 C484 1.574 . S
C467 C486 1.368 . S
C467 H491 0.949 . S
H468 C472 0.949 . S
C469 C470 1.349 1_565 S
C469 C471 1.327 . S
C469 H492 0.950 . S
C470 C469 1.349 1_545 S
C470 C482 1.349 1_655 S
C471 C469 1.327 . S
C471 C487 1.429 1_565 S
C471 H493 0.950 . S
C472 H468 0.949 . S
C472 C480 1.574 . S
C472 C488 1.368 1_455 S
H473 C481 0.950 . S
H474 C479 0.950 . S
H475 C480 0.949 . S
H476 C482 0.950 . S
H477 C483 0.950 . S
H478 C484 0.949 . S
C479 H474 0.950 . S
C479 C481 1.327 . S
C479 C485 1.429 . S
C480 C472 1.574 . S
C480 H475 0.949 . S
C480 C486 1.368 1_445 S
C481 C465 1.349 . S
C481 H473 0.950 . S
C481 C479 1.327 . S
C482 C470 1.349 1_455 S
C482 H476 0.950 . S
C482 C483 1.327 . S
C483 H477 0.950 . S
C483 C482 1.327 . S
C483 C487 1.429 1_455 S
C484 C467 1.574 . S
C484 H478 0.949 . S
C484 C488 1.368 1_565 S
C485 C466 1.429 1_665 S
C485 C479 1.429 . S
C485 C486 1.523 . S
C486 C467 1.368 . S
C486 C480 1.368 1_665 S
C486 C485 1.523 . S
C487 C471 1.429 1_545 S
C487 C483 1.429 1_655 S
C487 C488 1.523 . S
C488 C472 1.368 1_655 S
C488 C484 1.368 1_545 S
C488 C487 1.523 . S
H489 C464 0.950 . S
H490 C466 0.950 . S
H491 C467 0.949 . S
H492 C469 0.950 . S
H493 C471 0.950 . S
C494 C495 1.349 . S
C494 C496 1.327 . S
C494 H519 0.950 . S
C495 C494 1.349 . S
C495 C511 1.349 . S
C496 C494 1.327 . S
C496 C515 1.429 . S
C496 H520 0.950 . S
C497 C514 1.574 . S
C497 C516 1.368 . S
C497 H521 0.949 . S
H498 C502 0.949 . S
C499 C500 1.349 . S
C499 C501 1.327 . S
C499 H522 0.950 . S
C500 C499 1.349 . S
C500 C512 1.349 . S
C501 C499 1.327 . S
C501 C517 1.429 . S
C501 H523 0.950 . S
C502 H498 0.949 . S
C502 C510 1.574 . S
C502 C518 1.368 . S
H503 C511 0.950 . S
H504 C509 0.950 . S
H505 C510 0.949 . S
H506 C512 0.950 . S
H507 C513 0.950 . S
H508 C514 0.949 . S
C509 H504 0.950 . S
C509 C511 1.327 . S
C509 C515 1.429 . S
C510 C502 1.574 . S
C510 H505 0.949 . S
C510 C516 1.368 . S
C511 C495 1.349 . S
C511 H503 0.950 . S
C511 C509 1.327 . S
C512 C500 1.349 . S
C512 H506 0.950 . S
C512 C513 1.327 . S
C513 H507 0.950 . S
C513 C512 1.327 . S
C513 C517 1.429 . S
C514 C497 1.574 . S
C514 H508 0.949 . S
C514 C518 1.368 . S
C515 C496 1.429 . S
C515 C509 1.429 . S
C515 C516 1.523 . S
C516 C497 1.368 . S
C516 C510 1.368 . S
C516 C515 1.523 . S
C517 C501 1.429 . S
C517 C513 1.429 . S
C517 C518 1.523 . S
C518 C502 1.368 . S
C518 C514 1.368 . S
C518 C517 1.523 . S
H519 C494 0.950 . S
H520 C496 0.950 . S
H521 C497 0.949 . S
H522 C499 0.950 . S
H523 C501 0.950 . S
C524 C525 1.349 . S
C524 C526 1.327 . S
C524 H549 0.950 . S
C525 C524 1.349 . S
C525 C541 1.349 . S
C526 C524 1.327 . S
C526 C545 1.429 . S
C526 H550 0.950 . S
C527 C544 1.574 1_554 S
C527 C546 1.368 1_545 S
C527 H551 0.949 . S
H528 C532 0.949 . S
C529 C530 1.349 . S
C529 C531 1.327 . S
C529 H552 0.950 . S
C530 C529 1.349 . S
C530 C542 1.349 . S
C531 C529 1.327 . S
C531 C547 1.429 . S
C531 H553 0.950 . S
C532 H528 0.949 . S
C532 C540 1.574 1_556 S
C532 C548 1.368 1_565 S
H533 C541 0.950 1_545 S
H534 C539 0.955 . S
H535 C540 0.949 . S
H536 C542 0.950 1_565 S
H537 C543 0.955 . S
H538 C544 0.949 . S
C539 H534 0.955 . S
C539 C541 1.325 1_545 S
C539 C545 1.425 1_545 S
C540 C532 1.574 1_554 S
C540 H535 0.949 . S
C540 C546 1.368 . S
C541 C525 1.349 . S
C541 H533 0.950 1_565 S
C541 C539 1.325 1_565 S
C542 C530 1.349 . S
C542 H536 0.950 1_545 S
C542 C543 1.325 1_545 S
C543 H537 0.955 . S
C543 C542 1.325 1_565 S
C543 C547 1.425 1_565 S
C544 C527 1.574 1_556 S
C544 H538 0.949 . S
C544 C548 1.368 . S
C545 C526 1.429 . S
C545 C539 1.425 1_565 S
C545 C546 1.523 . S
C546 C527 1.368 1_565 S
C546 C540 1.368 . S
C546 C545 1.523 . S
C547 C531 1.429 . S
C547 C543 1.425 1_545 S
C547 C548 1.523 . S
C548 C532 1.368 1_545 S
C548 C544 1.368 . S
C548 C547 1.523 . S
H549 C524 0.950 . S
H550 C526 0.950 . S
H551 C527 0.949 . S
H552 C529 0.950 . S
H553 C531 0.950 . S
C554 C555 1.349 . S
C554 C556 1.327 . S
C554 H579 0.950 . S
C555 C554 1.349 . S
C555 C571 1.349 . S
C556 C554 1.327 . S
C556 C575 1.429 . S
C556 H580 0.950 . S
C557 C574 1.574 . S
C557 C576 1.368 . S
C557 H581 0.949 . S
H558 C562 0.949 . S
C559 C560 1.349 . S
C559 C561 1.327 . S
C559 H582 0.950 . S
C560 C559 1.349 . S
C560 C572 1.349 . S
C561 C559 1.327 . S
C561 C577 1.429 . S
C561 H583 0.950 . S
C562 H558 0.949 . S
C562 C570 1.574 . S
C562 C578 1.368 . S
H563 C571 0.950 . S
H564 C569 0.950 . S
H565 C570 0.949 . S
H566 C572 0.950 . S
H567 C573 0.950 . S
H568 C574 0.949 . S
C569 H564 0.950 . S
C569 C571 1.327 . S
C569 C575 1.429 . S
C570 C562 1.574 . S
C570 H565 0.949 . S
C570 C576 1.368 . S
C571 C555 1.349 . S
C571 H563 0.950 . S
C571 C569 1.327 . S
C572 C560 1.349 . S
C572 H566 0.950 . S
C572 C573 1.327 . S
C573 H567 0.950 . S
C573 C572 1.327 . S
C573 C577 1.429 . S
C574 C557 1.574 . S
C574 H568 0.949 . S
C574 C578 1.368 . S
C575 C556 1.429 . S
C575 C569 1.429 . S
C575 C576 1.523 . S
C576 C557 1.368 . S
C576 C570 1.368 . S
C576 C575 1.523 . S
C577 C561 1.429 . S
C577 C573 1.429 . S
C577 C578 1.523 . S
C578 C562 1.368 . S
C578 C574 1.368 . S
C578 C577 1.523 . S
H579 C554 0.950 . S
H580 C556 0.950 . S
H581 C557 0.949 . S
H582 C559 0.950 . S
H583 C561 0.950 . S
C584 C585 1.349 . S
C584 C586 1.327 . S
C584 H609 0.950 . S
C585 C584 1.349 . S
C585 C601 1.349 . S
C586 C584 1.327 . S
C586 C605 1.429 . S
C586 H610 0.950 . S
C587 C604 1.574 . S
C587 C606 1.368 . S
C587 H611 0.949 . S
H588 C592 0.949 . S
C589 C590 1.349 . S
C589 C591 1.327 . S
C589 H612 0.950 . S
C590 C589 1.349 . S
C590 C602 1.349 . S
C591 C589 1.327 . S
C591 C607 1.429 . S
C591 H613 0.950 . S
C592 H588 0.949 . S
C592 C600 1.574 . S
C592 C608 1.368 . S
H593 C601 0.950 . S
H594 C599 0.950 . S
H595 C600 0.949 . S
H596 C602 0.950 . S
H597 C603 0.950 . S
H598 C604 0.949 . S
C599 H594 0.950 . S
C599 C601 1.327 . S
C599 C605 1.429 . S
C600 C592 1.574 . S
C600 H595 0.949 . S
C600 C606 1.368 . S
C601 C585 1.349 . S
C601 H593 0.950 . S
C601 C599 1.327 . S
C602 C590 1.349 . S
C602 H596 0.950 . S
C602 C603 1.327 . S
C603 H597 0.950 . S
C603 C602 1.327 . S
C603 C607 1.429 . S
C604 C587 1.574 . S
C604 H598 0.949 . S
C604 C608 1.368 . S
C605 C586 1.429 . S
C605 C599 1.429 . S
C605 C606 1.523 . S
C606 C587 1.368 . S
C606 C600 1.368 . S
C606 C605 1.523 . S
C607 C591 1.429 . S
C607 C603 1.429 . S
C607 C608 1.523 . S
C608 C592 1.368 . S
C608 C604 1.368 . S
C608 C607 1.523 . S
H609 C584 0.950 . S
H610 C586 0.950 . S
H611 C587 0.949 . S
H612 C589 0.950 . S
H613 C591 0.950 . S
C614 C615 1.349 . S
C614 C616 1.327 . S
C614 H639 0.950 . S
C615 C614 1.349 . S
C615 C631 1.349 . S
C616 C614 1.327 . S
C616 C635 1.429 . S
C616 H640 0.950 . S
C617 C634 1.574 . S
C617 C636 1.368 . S
C617 H641 0.949 . S
H618 C622 0.949 . S
C619 C620 1.349 . S
C619 C621 1.327 . S
C619 H642 0.950 . S
C620 C619 1.349 . S
C620 C632 1.349 . S
C621 C619 1.327 . S
C621 C637 1.429 . S
C621 H643 0.950 . S
C622 H618 0.949 . S
C622 C630 1.574 . S
C622 C638 1.368 . S
H623 C631 0.950 . S
H624 C629 0.950 . S
H625 C630 0.949 . S
H626 C632 0.950 . S
H627 C633 0.950 . S
H628 C634 0.949 . S
C629 H624 0.950 . S
C629 C631 1.327 . S
C629 C635 1.429 . S
C630 C622 1.574 . S
C630 H625 0.949 . S
C630 C636 1.368 . S
C631 C615 1.349 . S
C631 H623 0.950 . S
C631 C629 1.327 . S
C632 C620 1.349 . S
C632 H626 0.950 . S
C632 C633 1.327 . S
C633 H627 0.950 . S
C633 C632 1.327 . S
C633 C637 1.429 . S
C634 C617 1.574 . S
C634 H628 0.949 . S
C634 C638 1.368 . S
C635 C616 1.429 . S
C635 C629 1.429 . S
C635 C636 1.523 . S
C636 C617 1.368 . S
C636 C630 1.368 . S
C636 C635 1.523 . S
C637 C621 1.429 . S
C637 C633 1.429 . S
C637 C638 1.523 . S
C638 C622 1.368 . S
C638 C634 1.368 . S
C638 C637 1.523 . S
H639 C614 0.950 . S
H640 C616 0.950 . S
H641 C617 0.949 . S
H642 C619 0.950 . S
H643 C621 0.950 . S
C644 C645 1.349 . S
C644 C646 1.327 . S
C644 H669 0.950 . S
C645 C644 1.349 . S
C645 C661 1.349 . S
C646 C644 1.327 . S
C646 C665 1.429 . S
C646 H670 0.950 . S
C647 C664 1.574 1_556 S
C647 C666 1.368 . S
C647 H671 0.949 . S
H648 C652 0.949 . S
C649 C650 1.349 . S
C649 C651 1.327 . S
C649 H672 0.950 . S
C650 C649 1.349 . S
C650 C662 1.349 . S
C651 C649 1.327 . S
C651 C667 1.429 . S
C651 H673 0.950 . S
C652 H648 0.949 . S
C652 C660 1.574 1_554 S
C652 C668 1.368 . S
H653 C661 0.950 . S
H654 C659 0.950 . S
H655 C660 0.949 . S
H656 C662 0.950 . S
H657 C663 0.950 . S
H658 C664 0.949 . S
C659 H654 0.950 . S
C659 C661 1.327 . S
C659 C665 1.429 . S
C660 C652 1.574 1_556 S
C660 H655 0.949 . S
C660 C666 1.368 . S
C661 C645 1.349 . S
C661 H653 0.950 . S
C661 C659 1.327 . S
C662 C650 1.349 . S
C662 H656 0.950 . S
C662 C663 1.327 . S
C663 H657 0.950 . S
C663 C662 1.327 . S
C663 C667 1.429 . S
C664 C647 1.574 1_554 S
C664 H658 0.949 . S
C664 C668 1.368 . S
C665 C646 1.429 . S
C665 C659 1.429 . S
C665 C666 1.523 . S
C666 C647 1.368 . S
C666 C660 1.368 . S
C666 C665 1.523 . S
C667 C651 1.429 . S
C667 C663 1.429 . S
C667 C668 1.523 . S
C668 C652 1.368 . S
C668 C664 1.368 . S
C668 C667 1.523 . S
H669 C644 0.950 . S
H670 C646 0.950 . S
H671 C647 0.949 . S
H672 C649 0.950 . S
H673 C651 0.950 . S
C674 C675 1.349 . S
C674 C676 1.327 . S
C674 H699 0.950 1_455 S
C675 C674 1.349 . S
C675 C691 1.349 . S
C676 C674 1.327 . S
C676 C695 1.429 . S
C676 H700 0.950 1_455 S
C677 C694 1.574 . S
C677 C696 1.368 . S
C677 H701 0.949 . S
H678 C682 0.946 1_655 S
C679 C680 1.349 . S
C679 C681 1.327 . S
C679 H702 0.950 . S
C680 C679 1.349 . S
C680 C692 1.349 . S
C681 C679 1.327 . S
C681 C697 1.429 . S
C681 H703 0.950 . S
C682 H678 0.946 1_455 S
C682 C690 1.574 . S
C682 C698 1.372 . S
H683 C691 0.950 . S
H684 C689 0.950 . S
H685 C690 0.946 1_655 S
H686 C692 0.950 1_655 S
H687 C693 0.950 1_655 S
H688 C694 0.949 . S
C689 H684 0.950 . S
C689 C691 1.327 . S
C689 C695 1.429 . S
C690 C682 1.574 . S
C690 H685 0.946 1_455 S
C690 C696 1.372 . S
C691 C675 1.349 . S
C691 H683 0.950 . S
C691 C689 1.327 . S
C692 C680 1.349 . S
C692 H686 0.950 1_455 S
C692 C693 1.327 . S
C693 H687 0.950 1_455 S
C693 C692 1.327 . S
C693 C697 1.429 . S
C694 C677 1.574 . S
C694 H688 0.949 . S
C694 C698 1.368 . S
C695 C676 1.429 . S
C695 C689 1.429 . S
C695 C696 1.523 . S
C696 C677 1.368 . S
C696 C690 1.372 . S
C696 C695 1.523 . S
C697 C681 1.429 . S
C697 C693 1.429 . S
C697 C698 1.523 . S
C698 C682 1.372 . S
C698 C694 1.368 . S
C698 C697 1.523 . S
H699 C674 0.950 1_655 S
H700 C676 0.950 1_655 S
H701 C677 0.949 . S
H702 C679 0.950 . S
H703 C681 0.950 . S
C704 C705 1.349 . S
C704 C706 1.327 . S
C704 H729 0.950 . S
C705 C704 1.349 . S
C705 C721 1.349 . S
C706 C704 1.327 . S
C706 C725 1.429 . S
C706 H730 0.950 . S
C707 C724 1.574 . S
C707 C726 1.368 . S
C707 H731 0.949 . S
H708 C712 0.949 . S
C709 C710 1.349 . S
C709 C711 1.327 . S
C709 H732 0.950 1_565 S
C710 C709 1.349 . S
C710 C722 1.349 . S
C711 C709 1.327 . S
C711 C727 1.429 . S
C711 H733 0.950 . S
C712 H708 0.949 . S
C712 C720 1.574 . S
C712 C728 1.368 . S
H713 C721 0.950 . S
H714 C719 0.950 . S
H715 C720 0.949 . S
H716 C722 0.950 . S
H717 C723 0.950 . S
H718 C724 0.949 . S
C719 H714 0.950 . S
C719 C721 1.327 . S
C719 C725 1.429 . S
C720 C712 1.574 . S
C720 H715 0.949 . S
C720 C726 1.368 . S
C721 C705 1.349 . S
C721 H713 0.950 . S
C721 C719 1.327 . S
C722 C710 1.349 . S
C722 H716 0.950 . S
C722 C723 1.327 . S
C723 H717 0.950 . S
C723 C722 1.327 . S
C723 C727 1.429 . S
C724 C707 1.574 . S
C724 H718 0.949 . S
C724 C728 1.368 . S
C725 C706 1.429 . S
C725 C719 1.429 . S
C725 C726 1.523 . S
C726 C707 1.368 . S
C726 C720 1.368 . S
C726 C725 1.523 . S
C727 C711 1.429 . S
C727 C723 1.429 . S
C727 C728 1.523 . S
C728 C712 1.368 . S
C728 C724 1.368 . S
C728 C727 1.523 . S
H729 C704 0.950 . S
H730 C706 0.950 . S
H731 C707 0.949 . S
H732 C709 0.950 1_545 S
H733 C711 0.950 . S
C734 C735 1.349 . S
C734 C736 1.327 . S
C734 H759 0.950 . S
C735 C734 1.349 . S
C735 C751 1.349 . S
C736 C734 1.327 . S
C736 C755 1.429 . S
C736 H760 0.950 . S
C737 C754 1.574 . S
C737 C756 1.368 . S
C737 H761 0.949 . S
H738 C742 0.949 . S
C739 C740 1.349 . S
C739 C741 1.327 . S
C739 H762 0.950 . S
C740 C739 1.349 . S
C740 C752 1.349 . S
C741 C739 1.327 . S
C741 C757 1.429 . S
C741 H763 0.950 . S
C742 H738 0.949 . S
C742 C750 1.574 . S
C742 C758 1.368 . S
H743 C751 0.950 . S
H744 C749 0.950 . S
H745 C750 0.949 . S
H746 C752 0.950 . S
H747 C753 0.950 . S
H748 C754 0.949 . S
C749 H744 0.950 . S
C749 C751 1.327 . S
C749 C755 1.429 . S
C750 C742 1.574 . S
C750 H745 0.949 . S
C750 C756 1.368 . S
C751 C735 1.349 . S
C751 H743 0.950 . S
C751 C749 1.327 . S
C752 C740 1.349 . S
C752 H746 0.950 . S
C752 C753 1.327 . S
C753 H747 0.950 . S
C753 C752 1.327 . S
C753 C757 1.429 . S
C754 C737 1.574 . S
C754 H748 0.949 . S
C754 C758 1.368 . S
C755 C736 1.429 . S
C755 C749 1.429 . S
C755 C756 1.523 . S
C756 C737 1.368 . S
C756 C750 1.368 . S
C756 C755 1.523 . S
C757 C741 1.429 . S
C757 C753 1.429 . S
C757 C758 1.523 . S
C758 C742 1.368 . S
C758 C754 1.368 . S
C758 C757 1.523 . S
H759 C734 0.950 . S
H760 C736 0.950 . S
H761 C737 0.949 . S
H762 C739 0.950 . S
H763 C741 0.950 . S
C764 C765 1.349 . S
C764 C766 1.327 . S
C764 H789 0.950 . S
C765 C764 1.349 . S
C765 C781 1.349 . S
C766 C764 1.327 . S
C766 C785 1.429 . S
C766 H790 0.950 . S
C767 C784 1.574 . S
C767 C786 1.368 . S
C767 H791 0.949 . S
H768 C772 0.949 . S
C769 C770 1.349 . S
C769 C771 1.327 . S
C769 H792 0.950 . S
C770 C769 1.349 . S
C770 C782 1.349 . S
C771 C769 1.327 . S
C771 C787 1.429 . S
C771 H793 0.950 . S
C772 H768 0.949 . S
C772 C780 1.574 . S
C772 C788 1.368 . S
H773 C781 0.950 . S
H774 C779 0.950 . S
H775 C780 0.949 . S
H776 C782 0.950 . S
H777 C783 0.950 . S
H778 C784 0.949 . S
C779 H774 0.950 . S
C779 C781 1.327 . S
C779 C785 1.429 . S
C780 C772 1.574 . S
C780 H775 0.949 . S
C780 C786 1.368 . S
C781 C765 1.349 . S
C781 H773 0.950 . S
C781 C779 1.327 . S
C782 C770 1.349 . S
C782 H776 0.950 . S
C782 C783 1.327 . S
C783 H777 0.950 . S
C783 C782 1.327 . S
C783 C787 1.429 . S
C784 C767 1.574 . S
C784 H778 0.949 . S
C784 C788 1.368 . S
C785 C766 1.429 . S
C785 C779 1.429 . S
C785 C786 1.523 . S
C786 C767 1.368 . S
C786 C780 1.368 . S
C786 C785 1.523 . S
C787 C771 1.429 . S
C787 C783 1.429 . S
C787 C788 1.523 . S
C788 C772 1.368 . S
C788 C784 1.368 . S
C788 C787 1.523 . S
H789 C764 0.950 . S
H790 C766 0.950 . S
H791 C767 0.949 . S
H792 C769 0.950 . S
H793 C771 0.950 . S
C794 C795 1.349 . S
C794 C796 1.327 . S
C794 H819 0.950 . S
C795 C794 1.349 . S
C795 C811 1.349 . S
C796 C794 1.327 . S
C796 C815 1.429 . S
C796 H820 0.950 . S
C797 C814 1.574 . S
C797 C816 1.368 . S
C797 H821 0.949 . S
H798 C802 0.949 . S
C799 C800 1.349 . S
C799 C801 1.327 . S
C799 H822 0.950 . S
C800 C799 1.349 . S
C800 C812 1.349 . S
C801 C799 1.327 . S
C801 C817 1.429 . S
C801 H823 0.950 . S
C802 H798 0.949 . S
C802 C810 1.574 . S
C802 C818 1.368 . S
H803 C811 0.950 . S
H804 C809 0.950 . S
H805 C810 0.949 . S
H806 C812 0.950 . S
H807 C813 0.950 . S
H808 C814 0.949 . S
C809 H804 0.950 . S
C809 C811 1.327 . S
C809 C815 1.429 . S
C810 C802 1.574 . S
C810 H805 0.949 . S
C810 C816 1.368 . S
C811 C795 1.349 . S
C811 H803 0.950 . S
C811 C809 1.327 . S
C812 C800 1.349 . S
C812 H806 0.950 . S
C812 C813 1.327 . S
C813 H807 0.950 . S
C813 C812 1.327 . S
C813 C817 1.429 . S
C814 C797 1.574 . S
C814 H808 0.949 . S
C814 C818 1.368 . S
C815 C796 1.429 . S
C815 C809 1.429 . S
C815 C816 1.523 . S
C816 C797 1.368 . S
C816 C810 1.368 . S
C816 C815 1.523 . S
C817 C801 1.429 . S
C817 C813 1.429 . S
C817 C818 1.523 . S
C818 C802 1.368 . S
C818 C814 1.368 . S
C818 C817 1.523 . S
H819 C794 0.950 . S
H820 C796 0.950 . S
H821 C797 0.949 . S
H822 C799 0.950 . S
H823 C801 0.950 . S
C824 C825 1.349 . S
C824 C826 1.327 . S
C824 H849 0.950 . S
C825 C824 1.349 . S
C825 C841 1.349 . S
C826 C824 1.327 . S
C826 C845 1.429 . S
C826 H850 0.950 . S
C827 C844 1.574 . S
C827 C846 1.368 . S
C827 H851 0.949 . S
H828 C832 0.949 . S
C829 C830 1.349 . S
C829 C831 1.327 . S
C829 H852 0.950 . S
C830 C829 1.349 . S
C830 C842 1.349 . S
C831 C829 1.327 . S
C831 C847 1.429 . S
C831 H853 0.950 . S
C832 H828 0.949 . S
C832 C840 1.574 . S
C832 C848 1.368 . S
H833 C841 0.950 1_565 S
H834 C839 0.950 . S
H835 C840 0.949 . S
H836 C842 0.950 . S
H837 C843 0.950 . S
H838 C844 0.949 . S
C839 H834 0.950 . S
C839 C841 1.327 . S
C839 C845 1.429 . S
C840 C832 1.574 . S
C840 H835 0.949 . S
C840 C846 1.368 . S
C841 C825 1.349 . S
C841 H833 0.950 1_545 S
C841 C839 1.327 . S
C842 C830 1.349 . S
C842 H836 0.950 . S
C842 C843 1.327 . S
C843 H837 0.950 . S
C843 C842 1.327 . S
C843 C847 1.429 . S
C844 C827 1.574 . S
C844 H838 0.949 . S
C844 C848 1.368 . S
C845 C826 1.429 . S
C845 C839 1.429 . S
C845 C846 1.523 . S
C846 C827 1.368 . S
C846 C840 1.368 . S
C846 C845 1.523 . S
C847 C831 1.429 . S
C847 C843 1.429 . S
C847 C848 1.523 . S
C848 C832 1.368 . S
C848 C844 1.368 . S
C848 C847 1.523 . S
H849 C824 0.950 . S
H850 C826 0.950 . S
H851 C827 0.949 . S
H852 C829 0.950 . S
H853 C831 0.950 . S
C854 C855 1.349 . S
C854 C856 1.327 . S
C854 H879 0.950 1_545 S
C855 C854 1.349 . S
C855 C871 1.349 . S
C856 C854 1.327 . S
C856 C875 1.429 . S
C856 H880 0.950 . S
C857 C874 1.574 . S
C857 C876 1.368 . S
C857 H881 0.949 . S
H858 C862 0.949 . S
C859 C860 1.349 . S
C859 C861 1.327 . S
C859 H882 0.950 . S
C860 C859 1.349 . S
C860 C872 1.349 . S
C861 C859 1.327 . S
C861 C877 1.429 . S
C861 H883 0.950 . S
C862 H858 0.949 . S
C862 C870 1.574 . S
C862 C878 1.368 . S
H863 C871 0.950 . S
H864 C869 0.950 . S
H865 C870 0.949 . S
H866 C872 0.950 . S
H867 C873 0.950 . S
H868 C874 0.949 . S
C869 H864 0.950 . S
C869 C871 1.327 . S
C869 C875 1.429 . S
C870 C862 1.574 . S
C870 H865 0.949 . S
C870 C876 1.368 . S
C871 C855 1.349 . S
C871 H863 0.950 . S
C871 C869 1.327 . S
C872 C860 1.349 . S
C872 H866 0.950 . S
C872 C873 1.327 . S
C873 H867 0.950 . S
C873 C872 1.327 . S
C873 C877 1.429 . S
C874 C857 1.574 . S
C874 H868 0.949 . S
C874 C878 1.368 . S
C875 C856 1.429 . S
C875 C869 1.429 . S
C875 C876 1.523 . S
C876 C857 1.368 . S
C876 C870 1.368 . S
C876 C875 1.523 . S
C877 C861 1.429 . S
C877 C873 1.429 . S
C877 C878 1.523 . S
C878 C862 1.368 . S
C878 C874 1.368 . S
C878 C877 1.523 . S
H879 C854 0.950 1_565 S
H880 C856 0.950 . S
H881 C857 0.949 . S
H882 C859 0.950 . S
H883 C861 0.950 . S
C884 C885 1.349 . S
C884 C886 1.327 . S
C884 H909 0.950 . S
C885 C884 1.349 . S
C885 C901 1.349 . S
C886 C884 1.327 . S
C886 C905 1.429 . S
C886 H910 0.950 . S
C887 C904 1.574 . S
C887 C906 1.368 . S
C887 H911 0.949 . S
H888 C892 0.949 . S
C889 C890 1.349 . S
C889 C891 1.327 . S
C889 H912 0.950 . S
C890 C889 1.349 . S
C890 C902 1.349 . S
C891 C889 1.327 . S
C891 C907 1.429 . S
C891 H913 0.950 . S
C892 H888 0.949 . S
C892 C900 1.574 . S
C892 C908 1.368 . S
H893 C901 0.950 . S
H894 C899 0.950 . S
H895 C900 0.949 . S
H896 C902 0.950 . S
H897 C903 0.950 . S
H898 C904 0.949 . S
C899 H894 0.950 . S
C899 C901 1.327 . S
C899 C905 1.429 . S
C900 C892 1.574 . S
C900 H895 0.949 . S
C900 C906 1.368 . S
C901 C885 1.349 . S
C901 H893 0.950 . S
C901 C899 1.327 . S
C902 C890 1.349 . S
C902 H896 0.950 . S
C902 C903 1.327 . S
C903 H897 0.950 . S
C903 C902 1.327 . S
C903 C907 1.429 . S
C904 C887 1.574 . S
C904 H898 0.949 . S
C904 C908 1.368 . S
C905 C886 1.429 . S
C905 C899 1.429 . S
C905 C906 1.523 . S
C906 C887 1.368 . S
C906 C900 1.368 . S
C906 C905 1.523 . S
C907 C891 1.429 . S
C907 C903 1.429 . S
C907 C908 1.523 . S
C908 C892 1.368 . S
C908 C904 1.368 . S
C908 C907 1.523 . S
H909 C884 0.950 . S
H910 C886 0.950 . S
H911 C887 0.949 . S
H912 C889 0.950 . S
H913 C891 0.950 . S
C914 C915 1.349 . S
C914 C916 1.327 . S
C914 H939 0.950 . S
C915 C914 1.349 . S
C915 C931 1.349 . S
C916 C914 1.327 . S
C916 C935 1.429 . S
C916 H940 0.950 . S
C917 C934 1.574 . S
C917 C936 1.368 . S
C917 H941 0.949 . S
H918 C922 0.949 . S
C919 C920 1.349 . S
C919 C921 1.327 . S
C919 H942 0.950 . S
C920 C919 1.349 . S
C920 C932 1.349 . S
C921 C919 1.327 . S
C921 C937 1.429 . S
C921 H943 0.950 . S
C922 H918 0.949 . S
C922 C930 1.574 . S
C922 C938 1.368 . S
H923 C931 0.950 . S
H924 C929 0.950 . S
H925 C930 0.949 . S
H926 C932 0.950 . S
H927 C933 0.950 . S
H928 C934 0.949 . S
C929 H924 0.950 . S
C929 C931 1.327 . S
C929 C935 1.429 . S
C930 C922 1.574 . S
C930 H925 0.949 . S
C930 C936 1.368 . S
C931 C915 1.349 . S
C931 H923 0.950 . S
C931 C929 1.327 . S
C932 C920 1.349 . S
C932 H926 0.950 . S
C932 C933 1.327 . S
C933 H927 0.950 . S
C933 C932 1.327 . S
C933 C937 1.429 . S
C934 C917 1.574 . S
C934 H928 0.949 . S
C934 C938 1.368 . S
C935 C916 1.429 . S
C935 C929 1.429 . S
C935 C936 1.523 . S
C936 C917 1.368 . S
C936 C930 1.368 . S
C936 C935 1.523 . S
C937 C921 1.429 . S
C937 C933 1.429 . S
C937 C938 1.523 . S
C938 C922 1.368 . S
C938 C934 1.368 . S
C938 C937 1.523 . S
H939 C914 0.950 . S
H940 C916 0.950 . S
H941 C917 0.949 . S
H942 C919 0.950 . S
H943 C921 0.950 . S
C944 C945 1.349 . S
C944 C946 1.327 . S
C944 H969 0.950 . S
C945 C944 1.349 . S
C945 C961 1.349 . S
C946 C944 1.327 . S
C946 C965 1.429 . S
C946 H970 0.950 . S
C947 C964 1.574 . S
C947 C966 1.368 . S
C947 H971 0.949 . S
H948 C952 0.949 . S
C949 C950 1.349 . S
C949 C951 1.327 . S
C949 H972 0.950 . S
C950 C949 1.349 . S
C950 C962 1.349 . S
C951 C949 1.327 . S
C951 C967 1.429 . S
C951 H973 0.950 . S
C952 H948 0.949 . S
C952 C960 1.574 . S
C952 C968 1.368 . S
H953 C961 0.950 . S
H954 C959 0.950 . S
H955 C960 0.949 . S
H956 C962 0.950 . S
H957 C963 0.950 . S
H958 C964 0.949 . S
C959 H954 0.950 . S
C959 C961 1.327 . S
C959 C965 1.429 . S
C960 C952 1.574 . S
C960 H955 0.949 . S
C960 C966 1.368 . S
C961 C945 1.349 . S
C961 H953 0.950 . S
C961 C959 1.327 . S
C962 C950 1.349 . S
C962 H956 0.950 . S
C962 C963 1.327 . S
C963 H957 0.950 . S
C963 C962 1.327 . S
C963 C967 1.429 . S
C964 C947 1.574 . S
C964 H958 0.949 . S
C964 C968 1.368 . S
C965 C946 1.429 . S
C965 C959 1.429 . S
C965 C966 1.523 . S
C966 C947 1.368 . S
C966 C960 1.368 . S
C966 C965 1.523 . S
C967 C951 1.429 . S
C967 C963 1.429 . S
C967 C968 1.523 . S
C968 C952 1.368 . S
C968 C964 1.368 . S
C968 C967 1.523 . S
H969 C944 0.950 . S
H970 C946 0.950 . S
H971 C947 0.949 . S
H972 C949 0.950 . S
H973 C951 0.950 . S
C974 C975 1.349 . S
C974 C976 1.327 . S
C974 H999 0.950 . S
C975 C974 1.349 . S
C975 C991 1.349 . S
C976 C974 1.327 . S
C976 C995 1.429 . S
C976 H1000 0.950 . S
C977 C994 1.574 . S
C977 C996 1.368 . S
C977 H1001 0.949 . S
H978 C982 0.949 . S
C979 C980 1.349 . S
C979 C981 1.327 . S
C979 H1002 0.950 . S
C980 C979 1.349 . S
C980 C992 1.349 . S
C981 C979 1.327 . S
C981 C997 1.429 . S
C981 H1003 0.950 . S
C982 H978 0.949 . S
C982 C990 1.574 . S
C982 C998 1.368 . S
H983 C991 0.950 . S
H984 C989 0.950 . S
H985 C990 0.949 . S
H986 C992 0.950 . S
H987 C993 0.950 . S
H988 C994 0.949 . S
C989 H984 0.950 . S
C989 C991 1.327 . S
C989 C995 1.429 . S
C990 C982 1.574 . S
C990 H985 0.949 . S
C990 C996 1.368 . S
C991 C975 1.349 . S
C991 H983 0.950 . S
C991 C989 1.327 . S
C992 C980 1.349 . S
C992 H986 0.950 . S
C992 C993 1.327 . S
C993 H987 0.950 . S
C993 C992 1.327 . S
C993 C997 1.429 . S
C994 C977 1.574 . S
C994 H988 0.949 . S
C994 C998 1.368 . S
C995 C976 1.429 . S
C995 C989 1.429 . S
C995 C996 1.523 . S
C996 C977 1.368 . S
C996 C990 1.368 . S
C996 C995 1.523 . S
C997 C981 1.429 . S
C997 C993 1.429 . S
C997 C998 1.523 . S
C998 C982 1.368 . S
C998 C994 1.368 . S
C998 C997 1.523 . S
H999 C974 0.950 . S
H1000 C976 0.950 . S
H1001 C977 0.949 . S
H1002 C979 0.950 . S
H1003 C981 0.950 . S
C1004 C1005 1.349 . S
C1004 C1006 1.327 . S
C1004 H1029 0.950 . S
C1005 C1004 1.349 . S
C1005 C1021 1.349 . S
C1006 C1004 1.327 . S
C1006 C1025 1.429 . S
C1006 H1030 0.950 . S
C1007 C1024 1.574 . S
C1007 C1026 1.368 . S
C1007 H1031 0.949 . S
H1008 C1012 0.949 . S
C1009 C1010 1.349 . S
C1009 C1011 1.327 . S
C1009 H1032 0.950 . S
C1010 C1009 1.349 . S
C1010 C1022 1.349 . S
C1011 C1009 1.327 . S
C1011 C1027 1.429 . S
C1011 H1033 0.950 . S
C1012 H1008 0.949 . S
C1012 C1020 1.574 . S
C1012 C1028 1.368 . S
H1013 C1021 0.950 . S
H1014 C1019 0.950 . S
H1015 C1020 0.949 . S
H1016 C1022 0.950 . S
H1017 C1023 0.950 . S
H1018 C1024 0.949 . S
C1019 H1014 0.950 . S
C1019 C1021 1.327 . S
C1019 C1025 1.429 . S
C1020 C1012 1.574 . S
C1020 H1015 0.949 . S
C1020 C1026 1.368 . S
C1021 C1005 1.349 . S
C1021 H1013 0.950 . S
C1021 C1019 1.327 . S
C1022 C1010 1.349 . S
C1022 H1016 0.950 . S
C1022 C1023 1.327 . S
C1023 H1017 0.950 . S
C1023 C1022 1.327 . S
C1023 C1027 1.429 . S
C1024 C1007 1.574 . S
C1024 H1018 0.949 . S
C1024 C1028 1.368 . S
C1025 C1006 1.429 . S
C1025 C1019 1.429 . S
C1025 C1026 1.523 . S
C1026 C1007 1.368 . S
C1026 C1020 1.368 . S
C1026 C1025 1.523 . S
C1027 C1011 1.429 . S
C1027 C1023 1.429 . S
C1027 C1028 1.523 . S
C1028 C1012 1.368 . S
C1028 C1024 1.368 . S
C1028 C1027 1.523 . S
H1029 C1004 0.950 . S
H1030 C1006 0.950 . S
H1031 C1007 0.949 . S
H1032 C1009 0.950 . S
H1033 C1011 0.950 . S
C1034 C1035 1.349 . S
C1034 C1036 1.327 . S
C1034 H1059 0.950 . S
C1035 C1034 1.349 . S
C1035 C1051 1.349 . S
C1036 C1034 1.327 . S
C1036 C1055 1.429 . S
C1036 H1060 0.950 . S
C1037 C1054 1.574 . S
C1037 C1056 1.368 . S
C1037 H1061 0.949 . S
H1038 C1042 0.949 . S
C1039 C1040 1.349 . S
C1039 C1041 1.327 . S
C1039 H1062 0.950 . S
C1040 C1039 1.349 . S
C1040 C1052 1.349 . S
C1041 C1039 1.327 . S
C1041 C1057 1.429 . S
C1041 H1063 0.950 . S
C1042 H1038 0.949 . S
C1042 C1050 1.574 . S
C1042 C1058 1.368 . S
H1043 C1051 0.950 . S
H1044 C1049 0.950 . S
H1045 C1050 0.949 . S
H1046 C1052 0.950 . S
H1047 C1053 0.950 . S
H1048 C1054 0.949 . S
C1049 H1044 0.950 . S
C1049 C1051 1.327 . S
C1049 C1055 1.429 . S
C1050 C1042 1.574 . S
C1050 H1045 0.949 . S
C1050 C1056 1.368 . S
C1051 C1035 1.349 . S
C1051 H1043 0.950 . S
C1051 C1049 1.327 . S
C1052 C1040 1.349 . S
C1052 H1046 0.950 . S
C1052 C1053 1.327 . S
C1053 H1047 0.950 . S
C1053 C1052 1.327 . S
C1053 C1057 1.429 . S
C1054 C1037 1.574 . S
C1054 H1048 0.949 . S
C1054 C1058 1.368 . S
C1055 C1036 1.429 . S
C1055 C1049 1.429 . S
C1055 C1056 1.523 . S
C1056 C1037 1.368 . S
C1056 C1050 1.368 . S
C1056 C1055 1.523 . S
C1057 C1041 1.429 . S
C1057 C1053 1.429 . S
C1057 C1058 1.523 . S
C1058 C1042 1.368 . S
C1058 C1054 1.368 . S
C1058 C1057 1.523 . S
H1059 C1034 0.950 . S
H1060 C1036 0.950 . S
H1061 C1037 0.949 . S
H1062 C1039 0.950 . S
H1063 C1041 0.950 . S
C1064 C1065 1.349 . S
C1064 C1066 1.327 . S
C1064 H1089 0.950 . S
C1065 C1064 1.349 . S
C1065 C1081 1.349 . S
C1066 C1064 1.327 . S
C1066 C1085 1.429 . S
C1066 H1090 0.950 . S
C1067 C1084 1.574 . S
C1067 C1086 1.368 . S
C1067 H1091 0.949 . S
H1068 C1072 0.949 . S
C1069 C1070 1.349 . S
C1069 C1071 1.327 . S
C1069 H1092 0.950 . S
C1070 C1069 1.349 . S
C1070 C1082 1.349 . S
C1071 C1069 1.327 . S
C1071 C1087 1.429 . S
C1071 H1093 0.950 . S
C1072 H1068 0.949 . S
C1072 C1080 1.574 . S
C1072 C1088 1.368 . S
H1073 C1081 0.950 . S
H1074 C1079 0.950 . S
H1075 C1080 0.949 . S
H1076 C1082 0.950 . S
H1077 C1083 0.950 . S
H1078 C1084 0.949 . S
C1079 H1074 0.950 . S
C1079 C1081 1.327 . S
C1079 C1085 1.429 . S
C1080 C1072 1.574 . S
C1080 H1075 0.949 . S
C1080 C1086 1.368 . S
C1081 C1065 1.349 . S
C1081 H1073 0.950 . S
C1081 C1079 1.327 . S
C1082 C1070 1.349 . S
C1082 H1076 0.950 . S
C1082 C1083 1.327 . S
C1083 H1077 0.950 . S
C1083 C1082 1.327 . S
C1083 C1087 1.429 . S
C1084 C1067 1.574 . S
C1084 H1078 0.949 . S
C1084 C1088 1.368 . S
C1085 C1066 1.429 . S
C1085 C1079 1.429 . S
C1085 C1086 1.523 . S
C1086 C1067 1.368 . S
C1086 C1080 1.368 . S
C1086 C1085 1.523 . S
C1087 C1071 1.429 . S
C1087 C1083 1.429 . S
C1087 C1088 1.523 . S
C1088 C1072 1.368 . S
C1088 C1084 1.368 . S
C1088 C1087 1.523 . S
H1089 C1064 0.950 . S
H1090 C1066 0.950 . S
H1091 C1067 0.949 . S
H1092 C1069 0.950 . S
H1093 C1071 0.950 . S
C1094 C1095 1.349 . S
C1094 C1096 1.327 . S
C1094 H1119 0.950 . S
C1095 C1094 1.349 . S
C1095 C1111 1.349 . S
C1096 C1094 1.327 . S
C1096 C1115 1.429 . S
C1096 H1120 0.950 . S
C1097 C1114 1.574 . S
C1097 C1116 1.368 . S
C1097 H1121 0.949 . S
H1098 C1102 0.949 . S
C1099 C1100 1.349 . S
C1099 C1101 1.327 . S
C1099 H1122 0.950 . S
C1100 C1099 1.349 . S
C1100 C1112 1.349 . S
C1101 C1099 1.327 . S
C1101 C1117 1.429 . S
C1101 H1123 0.950 . S
C1102 H1098 0.949 . S
C1102 C1110 1.574 . S
C1102 C1118 1.368 . S
H1103 C1111 0.950 . S
H1104 C1109 0.950 . S
H1105 C1110 0.949 . S
H1106 C1112 0.950 . S
H1107 C1113 0.950 . S
H1108 C1114 0.949 . S
C1109 H1104 0.950 . S
C1109 C1111 1.327 . S
C1109 C1115 1.429 . S
C1110 C1102 1.574 . S
C1110 H1105 0.949 . S
C1110 C1116 1.368 . S
C1111 C1095 1.349 . S
C1111 H1103 0.950 . S
C1111 C1109 1.327 . S
C1112 C1100 1.349 . S
C1112 H1106 0.950 . S
C1112 C1113 1.327 . S
C1113 H1107 0.950 . S
C1113 C1112 1.327 . S
C1113 C1117 1.429 . S
C1114 C1097 1.574 . S
C1114 H1108 0.949 . S
C1114 C1118 1.368 . S
C1115 C1096 1.429 . S
C1115 C1109 1.429 . S
C1115 C1116 1.523 . S
C1116 C1097 1.368 . S
C1116 C1110 1.368 . S
C1116 C1115 1.523 . S
C1117 C1101 1.429 . S
C1117 C1113 1.429 . S
C1117 C1118 1.523 . S
C1118 C1102 1.368 . S
C1118 C1114 1.368 . S
C1118 C1117 1.523 . S
H1119 C1094 0.950 . S
H1120 C1096 0.950 . S
H1121 C1097 0.949 . S
H1122 C1099 0.950 . S
H1123 C1101 0.950 . S
C1124 C1125 1.349 . S
C1124 C1126 1.327 . S
C1124 H1149 0.950 . S
C1125 C1124 1.349 . S
C1125 C1141 1.349 . S
C1126 C1124 1.327 . S
C1126 C1145 1.429 . S
C1126 H1150 0.950 . S
C1127 C1144 1.574 . S
C1127 C1146 1.368 . S
C1127 H1151 0.949 . S
H1128 C1132 0.949 . S
C1129 C1130 1.349 . S
C1129 C1131 1.327 . S
C1129 H1152 0.950 . S
C1130 C1129 1.349 . S
C1130 C1142 1.349 . S
C1131 C1129 1.327 . S
C1131 C1147 1.429 . S
C1131 H1153 0.950 . S
C1132 H1128 0.949 . S
C1132 C1140 1.574 . S
C1132 C1148 1.368 . S
H1133 C1141 0.950 . S
H1134 C1139 0.950 . S
H1135 C1140 0.949 . S
H1136 C1142 0.950 . S
H1137 C1143 0.950 . S
H1138 C1144 0.949 . S
C1139 H1134 0.950 . S
C1139 C1141 1.327 . S
C1139 C1145 1.429 . S
C1140 C1132 1.574 . S
C1140 H1135 0.949 . S
C1140 C1146 1.368 . S
C1141 C1125 1.349 . S
C1141 H1133 0.950 . S
C1141 C1139 1.327 . S
C1142 C1130 1.349 . S
C1142 H1136 0.950 . S
C1142 C1143 1.327 . S
C1143 H1137 0.950 . S
C1143 C1142 1.327 . S
C1143 C1147 1.429 . S
C1144 C1127 1.574 . S
C1144 H1138 0.949 . S
C1144 C1148 1.368 . S
C1145 C1126 1.429 . S
C1145 C1139 1.429 . S
C1145 C1146 1.523 . S
C1146 C1127 1.368 . S
C1146 C1140 1.368 . S
C1146 C1145 1.523 . S
C1147 C1131 1.429 . S
C1147 C1143 1.429 . S
C1147 C1148 1.523 . S
C1148 C1132 1.368 . S
C1148 C1144 1.368 . S
C1148 C1147 1.523 . S
H1149 C1124 0.950 . S
H1150 C1126 0.950 . S
H1151 C1127 0.949 . S
H1152 C1129 0.950 . S
H1153 C1131 0.950 . S
C1154 C1155 1.349 . S
C1154 C1156 1.327 . S
C1154 H1179 0.950 . S
C1155 C1154 1.349 . S
C1155 C1171 1.349 . S
C1156 C1154 1.327 . S
C1156 C1175 1.429 . S
C1156 H1180 0.950 . S
C1157 C1174 1.574 . S
C1157 C1176 1.368 . S
C1157 H1181 0.949 . S
H1158 C1162 0.949 . S
C1159 C1160 1.349 . S
C1159 C1161 1.327 . S
C1159 H1182 0.950 . S
C1160 C1159 1.349 . S
C1160 C1172 1.349 . S
C1161 C1159 1.327 . S
C1161 C1177 1.429 . S
C1161 H1183 0.950 . S
C1162 H1158 0.949 . S
C1162 C1170 1.574 . S
C1162 C1178 1.368 . S
H1163 C1171 0.950 . S
H1164 C1169 0.950 . S
H1165 C1170 0.949 . S
H1166 C1172 0.950 . S
H1167 C1173 0.950 . S
H1168 C1174 0.949 . S
C1169 H1164 0.950 . S
C1169 C1171 1.327 . S
C1169 C1175 1.429 . S
C1170 C1162 1.574 . S
C1170 H1165 0.949 . S
C1170 C1176 1.368 . S
C1171 C1155 1.349 . S
C1171 H1163 0.950 . S
C1171 C1169 1.327 . S
C1172 C1160 1.349 . S
C1172 H1166 0.950 . S
C1172 C1173 1.327 . S
C1173 H1167 0.950 . S
C1173 C1172 1.327 . S
C1173 C1177 1.429 . S
C1174 C1157 1.574 . S
C1174 H1168 0.949 . S
C1174 C1178 1.368 . S
C1175 C1156 1.429 . S
C1175 C1169 1.429 . S
C1175 C1176 1.523 . S
C1176 C1157 1.368 . S
C1176 C1170 1.368 . S
C1176 C1175 1.523 . S
C1177 C1161 1.429 . S
C1177 C1173 1.429 . S
C1177 C1178 1.523 . S
C1178 C1162 1.368 . S
C1178 C1174 1.368 . S
C1178 C1177 1.523 . S
H1179 C1154 0.950 . S
H1180 C1156 0.950 . S
H1181 C1157 0.949 . S
H1182 C1159 0.950 . S
H1183 C1161 0.950 . S
C225 C11 1.154 . S
C230 C193 1.154 . S
C255 C165 1.154 . S
C260 C25 1.154 . S
C285 C179 1.154 . S
C290 C39 1.154 . S
C315 C151 1.154 . S
C320 C53 1.154 . S
C345 C67 1.154 . S
C350 C221 1.154 . S
C375 C81 1.154 . S
C380 C137 1.154 . S
C405 C207 1.154 . S
C410 C95 1.154 . S
C435 C109 1.154 . S
C440 C123 1.154 . S
C465 C65 1.671 . S
C470 C9 1.671 . S
C495 C23 1.671 . S
C500 C79 1.671 . S
C525 C37 1.671 . S
C530 C93 1.671 . S
C555 C107 1.671 . S
C560 C51 1.671 . S
C585 C121 1.671 . S
C590 C149 1.671 . S
C615 C135 1.671 . S
C620 C163 1.671 . S
C645 C205 1.671 . S
C650 C177 1.671 . S
C675 C191 1.671 . S
C680 C219 1.671 . S
C705 C70 1.352 . S
C710 C0 1.352 1_565 S
C735 C14 1.352 . S
C740 C84 1.352 1_565 S
C765 C28 1.352 1_545 S
C770 C98 1.352 . S
C795 C56 1.352 1_545 S
C800 C42 1.352 . S
C825 C61 1.142 . S
C830 C145 1.142 . S
C855 C33 1.142 . S
C860 C117 1.142 . S
C885 C159 1.142 . S
C890 C89 1.142 . S
C915 C131 1.142 . S
C920 C5 1.142 . S
C945 C112 1.352 . S
C950 C168 1.352 . S
C975 C140 1.352 . S
C980 C210 1.352 . S
C1005 C182 1.352 . S
C1010 C126 1.352 . S
C1035 C154 1.352 . S
C1040 C196 1.352 . S
C1065 C201 1.142 . S
C1070 C19 1.142 . S
C1095 C187 1.141 . S
C1100 C75 1.141 . S
C1125 C215 1.141 . S
C1130 C47 1.141 . S
C1155 C173 1.142 . S
C1160 C103 1.142 . S
