# Generated by pormake.
# Topology tsi, (8)-cn, num edge types: 1
# Building blocks:
#     Node 0, Type 0, BuildingBlock: TAGTUT_clean_sbu_1, # of connection points: 8
#     Node 1, Type 0, BuildingBlock: TAGTUT_clean_sbu_1, # of connection points: 8
#     Node 2, Type 0, BuildingBlock: TAGTUT_clean_sbu_1, # of connection points: 8
#     Node 3, Type 0, BuildingBlock: TAGTUT_clean_sbu_1, # of connection points: 8
#     Edge 4, Type (0, 0), BuildingBlock: XIVTED_clean_linker_0, # of connection points: 2
#     Edge 5, Type (0, 0), BuildingBlock: XIVTED_clean_linker_0, # of connection points: 2
#     Edge 6, Type (0, 0), BuildingBlock: XIVTED_clean_linker_0, # of connection points: 2
#     Edge 7, Type (0, 0), BuildingBlock: XIVTED_clean_linker_0, # of connection points: 2
#     Edge 8, Type (0, 0), BuildingBlock: XIVTED_clean_linker_0, # of connection points: 2
#     Edge 9, Type (0, 0), BuildingBlock: XIVTED_clean_linker_0, # of connection points: 2
#     Edge 10, Type (0, 0), BuildingBlock: XIVTED_clean_linker_0, # of connection points: 2
#     Edge 11, Type (0, 0), BuildingBlock: XIVTED_clean_linker_0, # of connection points: 2
#     Edge 12, Type (0, 0), BuildingBlock: XIVTED_clean_linker_0, # of connection points: 2
#     Edge 13, Type (0, 0), BuildingBlock: XIVTED_clean_linker_0, # of connection points: 2
#     Edge 14, Type (0, 0), BuildingBlock: XIVTED_clean_linker_0, # of connection points: 2
#     Edge 15, Type (0, 0), BuildingBlock: XIVTED_clean_linker_0, # of connection points: 2
#     Edge 16, Type (0, 0), BuildingBlock: XIVTED_clean_linker_0, # of connection points: 2
#     Edge 17, Type (0, 0), BuildingBlock: XIVTED_clean_linker_0, # of connection points: 2
#     Edge 18, Type (0, 0), BuildingBlock: XIVTED_clean_linker_0, # of connection points: 2
#     Edge 19, Type (0, 0), BuildingBlock: XIVTED_clean_linker_0, # of connection points: 2
# Relax obj value: 0.135
# Max RMSD: 0.248
# Mean RMSD: 0.248
data_MOF--net-tsi--node1-TAGTUT_clean_sbu_1--edge1-XIVTED_clean_linker_0
_symmetry_space_group_name_H-M    P1
_symmetry_Int_Tables_number       1
_symmetry_cell_setting            triclinic
loop_
_symmetry_equiv_pos_as_xyz
'x, y, z'
_cell_length_a     15.477435
_cell_length_b     16.039326
_cell_length_c     66.93262
_cell_angle_alpha  94.055675
_cell_angle_beta   91.646713
_cell_angle_gamma 111.8696
loop_
_atom_site_label
_atom_site_type_symbol
_atom_site_fract_x
_atom_site_fract_y
_atom_site_fract_z
_atom_type_partial_charge
C0 C 0.05799 0.31807 0.43473 0.0
C1 C 0.01213 0.54798 0.4233 0.0
C2 C 0.81074 0.31944 0.35494 0.0
Mg3 Mg 0.15246 0.46983 0.40725 0.0
O4 O 0.0575 0.39808 0.38902 0.0
Mg5 Mg 0.92656 0.34175 0.39671 0.0
Mg6 Mg 0.03637 0.41525 0.36061 0.0
O7 O 0.01153 0.42327 0.33203 0.0
Mg8 Mg 0.93978 0.30788 0.32011 0.0
Mg9 Mg 0.13989 0.48138 0.32306 0.0
C10 C 0.26578 0.48967 0.36712 0.0
C11 C 0.08856 0.62547 0.35263 0.0
O12 O 0.98129 0.30421 0.42487 0.0
O13 O 0.13632 0.37517 0.42997 0.0
O14 O 0.94422 0.47667 0.41569 0.0
O15 O 0.09674 0.56484 0.41905 0.0
O16 O 0.2642 0.49801 0.38638 0.0
O17 O 0.19081 0.46288 0.35561 0.0
C18 C 0.97007 0.19996 0.36549 0.0
O19 O 0.01767 0.26583 0.35563 0.0
O20 O 0.92483 0.21177 0.38039 0.0
O21 O 0.0605 0.47837 0.2916 0.0
O22 O 0.92233 0.36281 0.29388 0.0
O23 O 0.15186 0.35354 0.30955 0.0
C24 C 0.97718 0.42689 0.28464 0.0
O25 O 0.02188 0.23121 0.309 0.0
O26 O 0.81869 0.27729 0.33843 0.0
C27 C 0.10687 0.26998 0.30468 0.0
O28 O 0.88241 0.37377 0.36563 0.0
O29 O 0.05483 0.56507 0.36494 0.0
O30 O 0.12351 0.60894 0.33641 0.0
C31 C 0.01689 0.79245 0.69996 0.0
C32 C 0.90594 0.95582 0.68774 0.0
C33 C 0.76329 0.78405 0.61443 0.0
Mg34 Mg 0.07556 0.94255 0.67189 0.0
O35 O 0.00142 0.83864 0.65475 0.0
Mg36 Mg 0.86806 0.77947 0.65994 0.0
Mg37 Mg -0.00971 0.8563 0.6263 0.0
O38 O 0.98243 0.88106 0.59785 0.0
Mg39 Mg 0.89875 0.80091 0.57857 0.0
Mg40 Mg 0.11832 0.93427 0.59337 0.0
C41 C 0.21496 0.94793 0.63758 0.0
C42 C 0.06043 0.07275 0.62297 0.0
O43 O 0.934 0.75686 0.69119 0.0
O44 O 0.08191 0.86028 0.69397 0.0
O45 O 0.8747 0.91949 0.67032 0.0
O46 O -0.0069 0.00338 0.68973 0.0
O47 O 0.20311 0.97919 0.65516 0.0
O48 O 0.146 0.89958 0.62537 0.0
C49 C 0.927 0.64027 0.63133 0.0
O50 O 0.97113 0.70596 0.62094 0.0
O51 O 0.88057 0.65089 0.6462 0.0
O52 O 0.07937 0.97127 0.56326 0.0
O53 O 0.9291 0.88785 0.55418 0.0
O54 O 0.10841 0.79967 0.57528 0.0
C55 C 0.00776 0.9493 0.55106 0.0
O56 O 0.95941 0.70339 0.57253 0.0
O57 O 0.77403 0.7759 0.59549 0.0
C58 C 0.0444 0.72456 0.56822 0.0
O59 O 0.83311 0.80807 0.62736 0.0
O60 O 0.0097 0.0055 0.63214 0.0
O61 O 0.11129 0.06306 0.60892 0.0
C62 C 0.49593 0.54757 0.92942 0.0
C63 C 0.45845 0.77147 0.91184 0.0
C64 C 0.28959 0.54813 0.84264 0.0
Mg65 Mg 0.60499 0.6956 0.90181 0.0
O66 O 0.52194 0.6146 0.88253 0.0
Mg67 Mg 0.38588 0.56135 0.88688 0.0
Mg68 Mg 0.51437 0.63934 0.85406 0.0
O69 O 0.50354 0.6572 0.82562 0.0
Mg70 Mg 0.42921 0.55373 0.80838 0.0
Mg71 Mg 0.63697 0.71652 0.8205 0.0
C72 C 0.74123 0.71242 0.86604 0.0
C73 C 0.57784 0.85549 0.84913 0.0
O74 O 0.42471 0.52489 0.91707 0.0
O75 O 0.57442 0.60951 0.92637 0.0
O76 O 0.39499 0.69601 0.9048 0.0
O77 O 0.54377 0.79279 0.90777 0.0
O78 O 0.73016 0.72112 0.88496 0.0
O79 O 0.67153 0.68719 0.85306 0.0
C80 C 0.44423 0.42289 0.85738 0.0
O81 O 0.49493 0.49014 0.84821 0.0
O82 O 0.39333 0.43258 0.87142 0.0
O83 O 0.57144 0.73977 0.78926 0.0
O84 O 0.42344 0.63653 0.78637 0.0
O85 O 0.63038 0.57662 0.80999 0.0
C86 C 0.48863 0.70442 0.78044 0.0
O87 O 0.51182 0.493 0.79056 0.0
O88 O 0.30131 0.51714 0.82502 0.0
C89 C 0.59903 0.54049 0.79256 0.0
O90 O 0.35872 0.596 0.85485 0.0
O91 O 0.5335 0.78967 0.85946 0.0
O92 O 0.62452 0.84501 0.83429 0.0
C93 C 0.51831 0.06622 0.19589 0.0
C94 C 0.38625 0.22286 0.17665 0.0
C95 C 0.226 0.00559 0.11415 0.0
Mg96 Mg 0.55313 0.18617 0.16063 0.0
O97 O 0.48166 0.0708 0.14867 0.0
Mg98 Mg 0.35375 0.01228 0.15785 0.0
Mg99 Mg 0.45569 0.07976 0.12019 0.0
O100 O 0.43341 0.098 0.09194 0.0
Mg101 Mg 0.33727 0.02869 0.07369 0.0
Mg102 Mg 0.56361 0.15628 0.08399 0.0
C103 C 0.68132 0.17554 0.12552 0.0
C104 C 0.52119 0.29522 0.11607 0.0
O105 O 0.43473 0.01476 0.18908 0.0
O106 O 0.57243 0.13072 0.18665 0.0
O107 O 0.34136 0.13939 0.17167 0.0
O108 O 0.47107 0.262 0.17225 0.0
O109 O 0.67325 0.21773 0.14202 0.0
O110 O 0.60975 0.12168 0.1147 0.0
C111 C 0.4046 0.86973 0.12776 0.0
O112 O 0.43743 0.93046 0.11549 0.0
O113 O 0.37039 0.88563 0.14414 0.0
O114 O 0.50684 0.19727 0.05649 0.0
O115 O 0.35159 0.12648 0.05185 0.0
O116 O 0.54541 0.02297 0.06425 0.0
C117 C 0.42928 0.1848 0.04715 0.0
O118 O 0.39263 0.93553 0.06062 0.0
O119 O 0.22671 -0.0014 0.09487 0.0
C120 C 0.47729 0.95241 0.05639 0.0
O121 O 0.30141 0.03131 0.12549 0.0
O122 O 0.47383 0.22848 0.12569 0.0
O123 O 0.56618 0.28472 0.10103 0.0
H124 H 0.12646 0.71087 0.44225 0.0
H125 H 0.9354 0.56009 0.54912 0.0
H126 H 0.87644 0.48012 0.44973 0.0
H127 H 0.17906 0.79748 0.54178 0.0
H128 H 0.91891 0.52453 0.51279 0.0
H129 H 0.14352 0.74743 0.47856 0.0
C130 C 0.07329 0.66958 0.45143 0.0
C131 C 0.00046 0.5916 0.44281 0.0
C132 C 0.97678 0.58375 0.51915 0.0
C133 C 0.0218 0.63113 0.48458 0.0
C134 C -0.01263 0.60319 0.53997 0.0
C135 C 0.05798 0.6827 0.54865 0.0
C136 C 0.03737 0.64399 0.50684 0.0
C137 C 0.12323 0.73564 0.53591 0.0
C138 C 0.08412 0.68955 0.47224 0.0
C139 C 0.93385 0.54081 0.45557 0.0
N140 N 0.11032 0.71626 0.51566 0.0
N141 N 0.94712 0.56044 0.4758 0.0
H142 H 0.52906 0.53653 0.75372 0.0
H143 H 0.97597 0.95986 0.72658 0.0
H144 H 0.77689 0.66413 0.79303 0.0
H145 H 0.72803 0.83235 0.6873 0.0
H146 H 0.90264 0.85452 0.75155 0.0
H147 H 0.60241 0.6419 0.72876 0.0
C148 C 0.59915 0.58575 0.75703 0.0
C149 C 0.64596 0.59221 0.7757 0.0
C150 C 0.86422 0.84993 0.73748 0.0
C151 C 0.7301 0.71385 0.74728 0.0
C152 C 0.90585 0.91068 0.72328 0.0
C153 C 0.85901 0.90422 0.70461 0.0
C154 C 0.77488 0.78263 0.73305 0.0
C155 C 0.76774 0.83915 0.70131 0.0
C156 C 0.64079 0.64652 0.74284 0.0
C157 C 0.73721 0.65732 0.77902 0.0
N158 N 0.7292 0.78064 0.71524 0.0
N159 N 0.77575 0.71586 0.76508 0.0
H160 H 0.62689 0.57218 0.9601 0.0
H161 H 0.28875 0.17187 0.01939 0.0
H162 H 0.33981 0.41411 0.94053 0.0
H163 H 0.57773 0.32903 0.03754 0.0
H164 H 0.302 0.26589 -0.00857 0.0
H165 H 0.60647 0.48876 0.98985 0.0
C166 C 0.55967 0.52008 0.96205 0.0
C167 C 0.48535 0.49964 0.94772 0.0
C168 C 0.36224 0.27968 0.00162 0.0
C169 C 0.46131 0.40406 0.98167 0.0
C170 C 0.3546 0.22614 0.01756 0.0
C171 C 0.43234 0.24191 0.03068 0.0
C172 C 0.44808 0.34916 -0.00108 0.0
C173 C 0.51605 0.31345 0.02768 0.0
C174 C 0.54791 0.47252 0.97904 0.0
C175 C 0.39943 0.43182 0.9511 0.0
N176 N 0.5217 0.36404 0.01209 0.0
N177 N 0.3899 0.38621 0.9677 0.0
H178 H 0.02464 0.35148 0.25153 0.0
H179 H 0.47229 0.14022 0.22939 0.0
H180 H 0.84143 0.48254 0.27124 0.0
H181 H 0.65526 0.01072 0.20862 0.0
H182 H 0.60489 0.25936 0.24757 0.0
H183 H 0.89247 0.23184 0.23331 0.0
C184 C 0.95753 0.35834 0.251 0.0
C185 C 0.94283 0.42409 0.26392 0.0
C186 C 0.61609 0.2039 0.23939 0.0
C187 C 0.79071 0.28648 0.24365 0.0
C188 C 0.53948 0.13352 0.22967 0.0
C189 C 0.55385 0.06842 0.21649 0.0
C190 C 0.7065 0.20557 0.23673 0.0
C191 C 0.64185 0.06196 0.21799 0.0
C192 C 0.88115 0.28774 0.24126 0.0
C193 C 0.85505 0.43081 0.26209 0.0
N194 N 0.71602 0.13214 0.22703 0.0
N195 N 0.78108 0.36041 0.25306 0.0
H196 H 0.48051 0.32183 0.21076 0.0
H197 H 0.01272 0.17022 0.27064 0.0
H198 H 0.20439 0.19707 0.18202 0.0
H199 H 0.28875 0.29541 0.29941 0.0
H200 H 0.08179 0.17198 0.2382 0.0
H201 H 0.41154 0.31972 0.24323 0.0
C202 C 0.40527 0.29803 0.21114 0.0
C203 C 0.34821 0.26007 0.19357 0.0
C204 C 0.12746 0.19729 0.25165 0.0
C205 C 0.26859 0.25305 0.23088 0.0
C206 C 0.08796 0.19402 0.27028 0.0
C207 C 0.14497 0.23227 0.28785 0.0
C208 C 0.2247 0.23887 0.25056 0.0
C209 C 0.24218 0.26476 0.28628 0.0
C210 C 0.36583 0.29456 0.22979 0.0
C211 C 0.25101 0.22753 0.19516 0.0
N212 N 0.27887 0.26864 0.26797 0.0
N213 N 0.21438 0.22347 0.21347 0.0
H214 H 0.05107 0.63905 0.69667 0.0
H215 H 0.45456 0.85789 0.78382 0.0
H216 H 0.06839 0.86258 0.7383 0.0
H217 H 0.43762 0.63492 0.74205 0.0
H218 H 0.31895 0.86762 0.76597 0.0
H219 H 0.18681 0.62952 0.71452 0.0
C220 C 0.07999 0.68261 0.71031 0.0
C221 C 0.0482 0.75139 0.71608 0.0
C222 C 0.34633 0.81799 0.76035 0.0
C223 C 0.20695 0.74507 0.7358 0.0
C224 C 0.42578 0.81451 0.77015 0.0
C225 C 0.45761 0.7458 0.76434 0.0
C226 C 0.299 0.75234 0.74461 0.0
C227 C 0.41588 0.68956 0.74687 0.0
C228 C 0.15951 0.67924 0.7201 0.0
C229 C 0.0901 0.80788 0.73351 0.0
N230 N 0.33737 0.69256 0.7379 0.0
N231 N 0.16865 0.80496 0.74248 0.0
H232 H 0.56715 0.93608 0.93095 0.0
H233 H 0.36215 0.79069 0.03709 0.0
H234 H 0.32003 0.70107 0.93764 0.0
H235 H 0.61514 0.01944 0.03037 0.0
H236 H 0.34841 0.75354 0.00082 0.0
H237 H 0.57949 0.97327 0.9672 0.0
C238 C 0.51362 0.89384 0.93992 0.0
C239 C 0.44324 0.81444 0.93112 0.0
C240 C 0.40769 0.81113 0.0073 0.0
C241 C 0.45899 0.85508 0.97285 0.0
C242 C 0.41657 0.83146 0.02809 0.0
C243 C 0.48945 0.90894 0.0369 0.0
C244 C 0.47199 0.8687 -0.00485 0.0
C245 C 0.55769 0.9591 0.02438 0.0
C246 C 0.5218 0.91423 0.96071 0.0
C247 C 0.37584 0.76271 0.94362 0.0
N248 N 0.54637 0.93909 0.00414 0.0
N249 N 0.3864 0.78298 0.96385 0.0
H250 H 0.90155 0.19965 0.44924 0.0
H251 H 0.16816 0.06669 0.53729 0.0
H252 H 0.20186 0.31086 0.459 0.0
H253 H 0.87044 0.94467 0.5237 0.0
H254 H 0.18321 0.15494 0.50857 0.0
H255 H 0.89079 0.10621 0.47654 0.0
C256 C 0.96563 0.20456 0.45711 0.0
C257 C 0.05306 0.26338 0.45175 0.0
C258 C 0.1147 0.10869 0.51183 0.0
C259 C 0.04059 0.15551 0.48324 0.0
C260 C 0.10581 0.05826 0.52825 0.0
C261 C 0.01755 -0.00123 0.53303 0.0
C262 C 0.03478 0.09984 0.50014 0.0
C263 C 0.93968 0.98995 0.52063 0.0
C264 C 0.95918 0.15074 0.47274 0.0
C265 C 0.13313 0.26662 0.46264 0.0
N266 N 0.95012 0.04046 0.50481 0.0
N267 N 0.12495 0.21324 0.47795 0.0
H268 H 0.87554 0.04375 0.38264 0.0
H269 H 0.17041 0.77564 0.33267 0.0
H270 H 0.08514 0.1537 0.34027 0.0
H271 H 0.98126 0.67574 0.37937 0.0
H272 H 0.1373 0.91294 0.33474 0.0
H273 H 0.90668 0.90517 0.38021 0.0
C274 C 0.92721 0.03844 0.37259 0.0
C275 C 0.97772 0.11086 0.36162 0.0
C276 C 0.10336 0.86131 0.34463 0.0
C277 C 0.01462 0.95226 0.35902 0.0
C278 C 0.12252 0.78285 0.34352 0.0
C279 C 0.07838 0.71367 0.35584 0.0
C280 C 0.03908 0.87091 0.35807 0.0
C281 C 0.01716 0.72725 0.36963 0.0
C282 C 0.94538 0.95935 0.37133 0.0
C283 C 0.0439 0.0997 0.34889 0.0
N284 N -0.00115 0.80405 0.37027 0.0
N285 N 0.06072 0.02217 0.34803 0.0
H286 H 0.36764 0.99093 0.66396 0.0
H287 H 0.59836 0.72396 0.59194 0.0
H288 H 0.27029 0.89045 0.60255 0.0
H289 H 0.72277 0.8534 0.65005 0.0
H290 H 0.46872 0.77215 0.59741 0.0
H291 H 0.49718 0.94037 0.65984 0.0
C292 C 0.37464 0.96045 0.64945 0.0
C293 C 0.307 0.94401 0.63364 0.0
C294 C 0.52397 0.78943 0.60909 0.0
C295 C 0.45354 0.88352 0.62909 0.0
C296 C 0.59757 0.76082 0.6061 0.0
C297 C 0.67287 0.78621 0.62044 0.0
C298 C 0.52531 0.8437 0.62657 0.0
C299 C 0.66708 0.83317 0.63853 0.0
C300 C 0.44797 0.93037 0.64722 0.0
C301 C 0.31991 0.90377 0.61523 0.0
N302 N 0.59528 0.86166 0.64099 0.0
N303 N 0.39088 0.8739 0.61356 0.0
H304 H 0.55767 0.3775 0.83151 0.0
H305 H 0.4638 0.90001 0.87511 0.0
H306 H 0.35884 0.26852 0.87602 0.0
H307 H 0.65959 0.0088 0.83004 0.0
H308 H 0.42658 0.03573 0.87623 0.0
H309 H 0.59324 0.24112 0.83028 0.0
C310 C 0.52043 0.32448 0.84081 0.0
C311 C 0.45528 0.33498 0.85393 0.0
C312 C 0.47807 0.03003 0.86618 0.0
C313 C 0.4971 0.17895 0.85286 0.0
C314 C 0.49998 0.9528 0.86565 0.0
C315 C 0.56485 0.94253 0.85242 0.0
C316 C 0.52123 0.09756 0.85338 0.0
C317 C 0.60899 0.01331 0.84046 0.0
C318 C 0.54136 0.24679 0.84022 0.0
C319 C 0.40965 0.26377 0.86568 0.0
N320 N 0.58603 0.08734 0.84116 0.0
N321 N 0.43186 0.18923 0.86496 0.0
H322 H 0.04883 0.89995 0.10078 0.0
H323 H 0.84466 0.2526 0.14907 0.0
H324 H 0.20689 0.11867 0.14443 0.0
H325 H 0.72071 0.06687 0.09678 0.0
H326 H 0.97242 0.19813 0.15014 0.0
H327 H 0.91525 0.94482 0.10397 0.0
C328 C 0.05408 0.95521 0.11166 0.0
C329 C 0.13899 0.00585 0.12233 0.0
C330 C 0.91752 0.16996 0.13836 0.0
C331 C -0.0118 0.06012 0.12541 0.0
C332 C 0.84509 0.20185 0.13754 0.0
C333 C 0.77083 0.1636 0.12294 0.0
C334 C 0.91551 0.09922 0.12454 0.0
C335 C 0.77571 0.09804 0.10843 0.0
C336 C 0.9785 0.98195 0.11319 0.0
C337 C 0.14241 0.07721 0.13613 0.0
N338 N 0.84607 0.06722 0.10976 0.0
N339 N 0.06856 0.10352 0.13699 0.0
H340 H 0.94731 0.11826 0.64891 0.0
H341 H 0.04045 0.59545 0.60523 0.0
H342 H 0.14556 0.22703 0.60428 0.0
H343 H 0.84573 0.48718 0.65052 0.0
H344 H 0.0776 0.4597 0.60407 0.0
H345 H 0.91175 0.25465 0.65017 0.0
C346 C 0.98443 0.17123 0.63959 0.0
C347 C 0.04943 0.16068 0.62643 0.0
C348 C 0.02636 0.46552 0.61418 0.0
C349 C 0.00761 0.31672 0.62753 0.0
C350 C 0.0045 0.54278 0.61473 0.0
C351 C 0.93995 0.5532 0.62803 0.0
C352 C 0.98349 0.39812 0.62703 0.0
C353 C 0.89608 0.48255 0.64004 0.0
C354 C 0.9635 0.24893 0.64019 0.0
C355 C 0.09489 0.23183 0.61466 0.0
N356 N 0.91899 0.40849 0.63933 0.0
N357 N 0.07269 0.30638 0.61539 0.0
H358 H 0.9053 0.77038 0.88885 0.0
H359 H 0.13684 0.50594 0.81631 0.0
H360 H 0.78302 0.64493 0.83032 0.0
H361 H 0.23467 0.60553 0.87774 0.0
H362 H 0.00744 0.55658 0.82057 0.0
H363 H 0.03492 0.72222 0.88334 0.0
C364 C 0.90653 0.73438 0.87461 0.0
C365 C 0.8318 0.71009 0.86015 0.0
C366 C 0.05672 0.56638 0.83316 0.0
C367 C 0.97941 0.65265 0.85396 0.0
C368 C 0.12999 0.53626 0.83086 0.0
C369 C 0.1977 0.55237 0.84664 0.0
C370 C 0.05124 0.61293 0.85135 0.0
C371 C 0.18497 0.59244 0.86508 0.0
C372 C 0.98014 0.7058 0.87159 0.0
C373 C 0.8382 0.66423 0.84195 0.0
N374 N 0.11403 0.62232 0.86684 0.0
N375 N 0.90999 0.63575 0.83946 0.0
H376 H 0.40652 0.33882 0.14181 0.0
H377 H 0.50974 0.82085 0.10029 0.0
H378 H 0.61342 0.4524 0.09912 0.0
H379 H 0.3267 0.71966 0.14794 0.0
H380 H 0.54314 0.68298 0.09846 0.0
H381 H 0.37594 0.47771 0.14422 0.0
C382 C 0.44692 0.39349 0.13325 0.0
C383 C 0.51285 0.38371 0.12028 0.0
C384 C 0.49537 0.69091 0.10926 0.0
C385 C 0.47615 0.54221 0.12252 0.0
C386 C 0.47558 0.76924 0.11018 0.0
C387 C 0.41555 0.7821 0.12434 0.0
C388 C 0.45455 0.62487 0.12253 0.0
C389 C 0.3738 0.71302 0.13685 0.0
C390 C 0.42867 0.47255 0.13446 0.0
C391 C 0.56183 0.45665 0.1093 0.0
N392 N 0.39432 0.63767 0.13569 0.0
N393 N 0.54199 0.53244 0.11055 0.0
H394 H 0.64749 0.24341 0.33136 0.0
H395 H 0.44276 0.59253 0.38126 0.0
H396 H 0.77048 0.4245 0.38436 0.0
H397 H 0.28569 0.37752 0.3367 0.0
H398 H 0.57576 0.54681 0.37806 0.0
H399 H 0.51932 0.29737 0.33078 0.0
C400 C 0.64673 0.29297 0.34314 0.0
C401 C 0.7209 0.33024 0.35779 0.0
C402 C 0.51284 0.51067 0.36866 0.0
C403 C 0.57579 0.39408 0.35678 0.0
C404 C 0.43758 0.53787 0.37021 0.0
C405 C 0.35308 0.48855 0.35926 0.0
C406 C 0.50327 0.4334 0.35613 0.0
C407 C 0.34982 0.41799 0.34523 0.0
C408 C 0.57407 0.3246 0.34261 0.0
C409 C 0.71559 0.39424 0.37266 0.0
N410 N 0.42337 0.39127 0.34433 0.0
N411 N 0.64505 0.42491 0.3716 0.0
loop_
_geom_bond_atom_site_label_1
_geom_bond_atom_site_label_2
_geom_bond_distance
_geom_bond_site_symmetry_2
_ccdc_geom_bond_type
C0 O12 1.241 1_455 S
C0 O13 1.280 . S
C1 O14 1.277 . S
C1 O15 1.245 1_655 S
C2 O26 1.247 . S
C2 O28 1.289 . S
Mg3 O4 1.926 . S
Mg3 O13 1.984 . S
Mg3 O15 1.988 . S
Mg3 O16 2.061 . S
O4 Mg3 1.926 . S
O4 Mg5 1.986 1_455 S
O4 Mg6 1.917 . S
Mg5 O4 1.986 1_655 S
Mg5 O12 2.042 . S
Mg5 O14 2.041 . S
Mg5 O20 2.038 . S
Mg5 O28 2.238 . S
Mg6 O4 1.917 . S
Mg6 O7 1.917 1_455 S
Mg6 O17 2.106 . S
Mg6 O19 2.079 . S
Mg6 O28 2.106 1_455 S
Mg6 O29 2.079 . S
O7 Mg6 1.917 1_655 S
O7 Mg8 1.926 . S
O7 Mg9 1.986 1_655 S
Mg8 O7 1.926 . S
Mg8 O22 1.984 . S
Mg8 O25 1.988 . S
Mg8 O26 2.061 . S
Mg9 O7 1.986 1_455 S
Mg9 O17 2.238 . S
Mg9 O21 2.042 . S
Mg9 O23 2.041 . S
Mg9 O30 2.038 . S
C10 O16 1.247 . S
C10 O17 1.289 . S
C11 O29 1.245 . S
C11 O30 1.274 . S
O12 C0 1.241 1_655 S
O12 Mg5 2.042 . S
O13 C0 1.280 . S
O13 Mg3 1.984 . S
O14 C1 1.277 . S
O14 Mg5 2.041 . S
O15 C1 1.245 1_455 S
O15 Mg3 1.988 . S
O16 Mg3 2.061 . S
O16 C10 1.247 . S
O17 Mg6 2.106 . S
O17 Mg9 2.238 . S
O17 C10 1.289 . S
C18 O19 1.245 1_655 S
C18 O20 1.274 . S
O19 Mg6 2.079 . S
O19 C18 1.245 1_455 S
O20 Mg5 2.038 . S
O20 C18 1.274 . S
O21 Mg9 2.042 . S
O21 C24 1.241 1_455 S
O22 Mg8 1.984 . S
O22 C24 1.280 . S
O23 Mg9 2.041 . S
O23 C27 1.277 . S
C24 O21 1.241 1_655 S
C24 O22 1.280 . S
O25 Mg8 1.988 . S
O25 C27 1.245 1_655 S
O26 C2 1.247 . S
O26 Mg8 2.061 . S
C27 O23 1.277 . S
C27 O25 1.245 1_455 S
O28 C2 1.289 . S
O28 Mg5 2.238 . S
O28 Mg6 2.106 1_655 S
O29 Mg6 2.079 . S
O29 C11 1.245 . S
O30 Mg9 2.038 . S
O30 C11 1.274 . S
C31 O43 1.241 1_455 S
C31 O44 1.280 . S
C32 O45 1.277 . S
C32 O46 1.245 1_655 S
C33 O57 1.247 . S
C33 O59 1.289 . S
Mg34 O35 1.926 . S
Mg34 O44 1.984 . S
Mg34 O46 1.988 . S
Mg34 O47 2.061 . S
O35 Mg34 1.926 . S
O35 Mg36 1.986 1_455 S
O35 Mg37 1.917 . S
Mg36 O35 1.986 1_655 S
Mg36 O43 2.042 . S
Mg36 O45 2.041 . S
Mg36 O51 2.038 . S
Mg36 O59 2.238 . S
Mg37 O35 1.917 . S
Mg37 O38 1.917 1_455 S
Mg37 O48 2.106 . S
Mg37 O50 2.079 1_455 S
Mg37 O59 2.106 1_455 S
Mg37 O60 2.079 . S
O38 Mg37 1.917 1_655 S
O38 Mg39 1.926 . S
O38 Mg40 1.986 1_655 S
Mg39 O38 1.926 . S
Mg39 O53 1.984 . S
Mg39 O56 1.988 . S
Mg39 O57 2.061 . S
Mg40 O38 1.986 1_455 S
Mg40 O48 2.238 . S
Mg40 O52 2.042 . S
Mg40 O54 2.041 . S
Mg40 O61 2.038 . S
C41 O47 1.247 . S
C41 O48 1.289 . S
C42 O60 1.245 . S
C42 O61 1.274 . S
O43 C31 1.241 1_655 S
O43 Mg36 2.042 . S
O44 C31 1.280 . S
O44 Mg34 1.984 . S
O45 C32 1.277 . S
O45 Mg36 2.041 . S
O46 C32 1.245 1_455 S
O46 Mg34 1.988 . S
O47 Mg34 2.061 . S
O47 C41 1.247 . S
O48 Mg37 2.106 . S
O48 Mg40 2.238 . S
O48 C41 1.289 . S
C49 O50 1.245 . S
C49 O51 1.274 . S
O50 Mg37 2.079 1_655 S
O50 C49 1.245 . S
O51 Mg36 2.038 . S
O51 C49 1.274 . S
O52 Mg40 2.042 . S
O52 C55 1.241 1_455 S
O53 Mg39 1.984 . S
O53 C55 1.280 . S
O54 Mg40 2.041 . S
O54 C58 1.277 . S
C55 O52 1.241 1_655 S
C55 O53 1.280 . S
O56 Mg39 1.988 . S
O56 C58 1.245 1_655 S
O57 C33 1.247 . S
O57 Mg39 2.061 . S
C58 O54 1.277 . S
C58 O56 1.245 1_455 S
O59 C33 1.289 . S
O59 Mg36 2.238 . S
O59 Mg37 2.106 1_655 S
O60 Mg37 2.079 . S
O60 C42 1.245 . S
O61 Mg40 2.038 . S
O61 C42 1.274 . S
C62 O74 1.241 . S
C62 O75 1.280 . S
C63 O76 1.277 . S
C63 O77 1.245 . S
C64 O88 1.247 . S
C64 O90 1.289 . S
Mg65 O66 1.926 . S
Mg65 O75 1.984 . S
Mg65 O77 1.988 . S
Mg65 O78 2.061 . S
O66 Mg65 1.926 . S
O66 Mg67 1.986 . S
O66 Mg68 1.917 . S
Mg67 O66 1.986 . S
Mg67 O74 2.042 . S
Mg67 O76 2.041 . S
Mg67 O82 2.038 . S
Mg67 O90 2.238 . S
Mg68 O66 1.917 . S
Mg68 O69 1.917 . S
Mg68 O79 2.106 . S
Mg68 O81 2.079 . S
Mg68 O90 2.106 . S
Mg68 O91 2.079 . S
O69 Mg68 1.917 . S
O69 Mg70 1.926 . S
O69 Mg71 1.986 . S
Mg70 O69 1.926 . S
Mg70 O84 1.984 . S
Mg70 O87 1.988 . S
Mg70 O88 2.061 . S
Mg71 O69 1.986 . S
Mg71 O79 2.238 . S
Mg71 O83 2.042 . S
Mg71 O85 2.041 . S
Mg71 O92 2.038 . S
C72 O78 1.247 . S
C72 O79 1.289 . S
C73 O91 1.245 . S
C73 O92 1.274 . S
O74 C62 1.241 . S
O74 Mg67 2.042 . S
O75 C62 1.280 . S
O75 Mg65 1.984 . S
O76 C63 1.277 . S
O76 Mg67 2.041 . S
O77 C63 1.245 . S
O77 Mg65 1.988 . S
O78 Mg65 2.061 . S
O78 C72 1.247 . S
O79 Mg68 2.106 . S
O79 Mg71 2.238 . S
O79 C72 1.289 . S
C80 O81 1.245 . S
C80 O82 1.274 . S
O81 Mg68 2.079 . S
O81 C80 1.245 . S
O82 Mg67 2.038 . S
O82 C80 1.274 . S
O83 Mg71 2.042 . S
O83 C86 1.241 . S
O84 Mg70 1.984 . S
O84 C86 1.280 . S
O85 Mg71 2.041 . S
O85 C89 1.277 . S
C86 O83 1.241 . S
C86 O84 1.280 . S
O87 Mg70 1.988 . S
O87 C89 1.245 . S
O88 C64 1.247 . S
O88 Mg70 2.061 . S
C89 O85 1.277 . S
C89 O87 1.245 . S
O90 C64 1.289 . S
O90 Mg67 2.238 . S
O90 Mg68 2.106 . S
O91 Mg68 2.079 . S
O91 C73 1.245 . S
O92 Mg71 2.038 . S
O92 C73 1.274 . S
C93 O105 1.241 . S
C93 O106 1.280 . S
C94 O107 1.277 . S
C94 O108 1.245 . S
C95 O119 1.247 . S
C95 O121 1.289 . S
Mg96 O97 1.926 . S
Mg96 O106 1.984 . S
Mg96 O108 1.988 . S
Mg96 O109 2.061 . S
O97 Mg96 1.926 . S
O97 Mg98 1.986 . S
O97 Mg99 1.917 . S
Mg98 O97 1.986 . S
Mg98 O105 2.042 . S
Mg98 O107 2.041 . S
Mg98 O113 2.038 . S
Mg98 O121 2.238 . S
Mg99 O97 1.917 . S
Mg99 O100 1.917 . S
Mg99 O110 2.106 . S
Mg99 O112 2.079 . S
Mg99 O121 2.106 . S
Mg99 O122 2.079 . S
O100 Mg99 1.917 . S
O100 Mg101 1.926 . S
O100 Mg102 1.986 . S
Mg101 O100 1.926 . S
Mg101 O115 1.984 . S
Mg101 O118 1.988 . S
Mg101 O119 2.061 . S
Mg102 O100 1.986 . S
Mg102 O110 2.238 . S
Mg102 O114 2.042 . S
Mg102 O116 2.041 . S
Mg102 O123 2.038 . S
C103 O109 1.247 . S
C103 O110 1.289 . S
C104 O122 1.245 . S
C104 O123 1.274 . S
O105 C93 1.241 . S
O105 Mg98 2.042 . S
O106 C93 1.280 . S
O106 Mg96 1.984 . S
O107 C94 1.277 . S
O107 Mg98 2.041 . S
O108 C94 1.245 . S
O108 Mg96 1.988 . S
O109 Mg96 2.061 . S
O109 C103 1.247 . S
O110 Mg99 2.106 . S
O110 Mg102 2.238 . S
O110 C103 1.289 . S
C111 O112 1.245 . S
C111 O113 1.274 . S
O112 Mg99 2.079 . S
O112 C111 1.245 . S
O113 Mg98 2.038 . S
O113 C111 1.274 . S
O114 Mg102 2.042 . S
O114 C117 1.241 . S
O115 Mg101 1.984 . S
O115 C117 1.280 . S
O116 Mg102 2.041 . S
O116 C120 1.277 . S
C117 O114 1.241 . S
C117 O115 1.280 . S
O118 Mg101 1.988 . S
O118 C120 1.245 . S
O119 C95 1.247 . S
O119 Mg101 2.061 . S
C120 O116 1.277 . S
C120 O118 1.245 . S
O121 C95 1.289 . S
O121 Mg98 2.238 . S
O121 Mg99 2.106 . S
O122 Mg99 2.079 . S
O122 C104 1.245 . S
O123 Mg102 2.038 . S
O123 C104 1.274 . S
H124 C130 0.930 1_455 S
H125 C134 0.930 . S
H126 C139 0.929 . S
H127 C137 0.929 . S
H128 C132 0.929 1_655 S
H129 C138 0.929 . S
C130 H124 0.930 1_655 S
C130 C131 1.367 . S
C130 C138 1.378 1_655 S
C131 C130 1.367 . S
C131 C139 1.433 . S
C132 H128 0.929 1_455 S
C132 C134 1.378 . S
C132 C136 1.350 . S
C133 C136 1.463 . S
C133 C138 1.350 . S
C133 N141 1.426 1_455 S
C134 H125 0.930 . S
C134 C132 1.378 . S
C134 C135 1.367 . S
C135 C134 1.367 . S
C135 C137 1.433 . S
C136 C132 1.350 . S
C136 C133 1.463 . S
C136 N140 1.427 . S
C137 H127 0.929 . S
C137 C135 1.433 . S
C137 N140 1.384 . S
C138 H129 0.929 . S
C138 C130 1.378 1_455 S
C138 C133 1.350 . S
C139 H126 0.929 . S
C139 C131 1.433 . S
C139 N141 1.384 . S
N140 C136 1.427 . S
N140 C137 1.384 . S
N141 C133 1.426 1_655 S
N141 C139 1.384 . S
H142 C148 0.930 . S
H143 C152 0.930 . S
H144 C157 0.929 . S
H145 C155 0.929 . S
H146 C150 0.929 . S
H147 C156 0.929 . S
C148 H142 0.930 . S
C148 C149 1.367 . S
C148 C156 1.378 . S
C149 C148 1.367 . S
C149 C157 1.433 . S
C150 H146 0.929 . S
C150 C152 1.378 . S
C150 C154 1.350 . S
C151 C154 1.463 . S
C151 C156 1.350 . S
C151 N159 1.427 . S
C152 H143 0.930 . S
C152 C150 1.378 . S
C152 C153 1.367 . S
C153 C152 1.367 . S
C153 C155 1.433 . S
C154 C150 1.350 . S
C154 C151 1.463 . S
C154 N158 1.427 . S
C155 H145 0.929 . S
C155 C153 1.433 . S
C155 N158 1.384 . S
C156 H147 0.929 . S
C156 C148 1.378 . S
C156 C151 1.350 . S
C157 H144 0.929 . S
C157 C149 1.433 . S
C157 N159 1.384 . S
N158 C154 1.427 . S
N158 C155 1.384 . S
N159 C151 1.427 . S
N159 C157 1.384 . S
H160 C166 0.930 . S
H161 C170 0.930 . S
H162 C175 0.929 . S
H163 C173 0.929 . S
H164 C168 0.929 . S
H165 C174 0.929 . S
C166 H160 0.930 . S
C166 C167 1.367 . S
C166 C174 1.378 . S
C167 C166 1.367 . S
C167 C175 1.433 . S
C168 H164 0.929 . S
C168 C170 1.378 . S
C168 C172 1.350 . S
C169 C172 1.463 1_556 S
C169 C174 1.350 . S
C169 N177 1.427 . S
C170 H161 0.930 . S
C170 C168 1.378 . S
C170 C171 1.367 . S
C171 C170 1.367 . S
C171 C173 1.433 . S
C172 C168 1.350 . S
C172 C169 1.463 1_554 S
C172 N176 1.427 . S
C173 H163 0.929 . S
C173 C171 1.433 . S
C173 N176 1.384 . S
C174 H165 0.929 . S
C174 C166 1.378 . S
C174 C169 1.350 . S
C175 H162 0.929 . S
C175 C167 1.433 . S
C175 N177 1.384 . S
N176 C172 1.427 . S
N176 C173 1.384 . S
N177 C169 1.427 . S
N177 C175 1.384 . S
H178 C184 0.930 . S
H179 C188 0.930 . S
H180 C193 0.929 . S
H181 C191 0.929 . S
H182 C186 0.929 . S
H183 C192 0.929 . S
C184 H178 0.930 . S
C184 C185 1.367 . S
C184 C192 1.378 . S
C185 C184 1.367 . S
C185 C193 1.433 . S
C186 H182 0.929 . S
C186 C188 1.378 . S
C186 C190 1.350 . S
C187 C190 1.463 . S
C187 C192 1.350 . S
C187 N195 1.427 . S
C188 H179 0.930 . S
C188 C186 1.378 . S
C188 C189 1.367 . S
C189 C188 1.367 . S
C189 C191 1.433 . S
C190 C186 1.350 . S
C190 C187 1.463 . S
C190 N194 1.427 . S
C191 H181 0.929 . S
C191 C189 1.433 . S
C191 N194 1.384 . S
C192 H183 0.929 . S
C192 C184 1.378 . S
C192 C187 1.350 . S
C193 H180 0.929 . S
C193 C185 1.433 . S
C193 N195 1.384 . S
N194 C190 1.427 . S
N194 C191 1.384 . S
N195 C187 1.427 . S
N195 C193 1.384 . S
H196 C202 0.930 . S
H197 C206 0.930 . S
H198 C211 0.929 . S
H199 C209 0.929 . S
H200 C204 0.929 . S
H201 C210 0.929 . S
C202 H196 0.930 . S
C202 C203 1.367 . S
C202 C210 1.378 . S
C203 C202 1.367 . S
C203 C211 1.433 . S
C204 H200 0.929 . S
C204 C206 1.378 . S
C204 C208 1.350 . S
C205 C208 1.463 . S
C205 C210 1.350 . S
C205 N213 1.427 . S
C206 H197 0.930 . S
C206 C204 1.378 . S
C206 C207 1.367 . S
C207 C206 1.367 . S
C207 C209 1.433 . S
C208 C204 1.350 . S
C208 C205 1.463 . S
C208 N212 1.427 . S
C209 H199 0.929 . S
C209 C207 1.433 . S
C209 N212 1.384 . S
C210 H201 0.929 . S
C210 C202 1.378 . S
C210 C205 1.350 . S
C211 H198 0.929 . S
C211 C203 1.433 . S
C211 N213 1.384 . S
N212 C208 1.427 . S
N212 C209 1.384 . S
N213 C205 1.427 . S
N213 C211 1.384 . S
H214 C220 0.930 . S
H215 C224 0.930 . S
H216 C229 0.929 . S
H217 C227 0.929 . S
H218 C222 0.929 . S
H219 C228 0.929 . S
C220 H214 0.930 . S
C220 C221 1.367 . S
C220 C228 1.378 . S
C221 C220 1.367 . S
C221 C229 1.433 . S
C222 H218 0.929 . S
C222 C224 1.378 . S
C222 C226 1.350 . S
C223 C226 1.463 . S
C223 C228 1.350 . S
C223 N231 1.427 . S
C224 H215 0.930 . S
C224 C222 1.378 . S
C224 C225 1.367 . S
C225 C224 1.367 . S
C225 C227 1.433 . S
C226 C222 1.350 . S
C226 C223 1.463 . S
C226 N230 1.427 . S
C227 H217 0.929 . S
C227 C225 1.433 . S
C227 N230 1.384 . S
C228 H219 0.929 . S
C228 C220 1.378 . S
C228 C223 1.350 . S
C229 H216 0.929 . S
C229 C221 1.433 . S
C229 N231 1.384 . S
N230 C226 1.427 . S
N230 C227 1.384 . S
N231 C223 1.427 . S
N231 C229 1.384 . S
H232 C238 0.930 . S
H233 C242 0.930 . S
H234 C247 0.929 . S
H235 C245 0.929 . S
H236 C240 0.929 . S
H237 C246 0.929 . S
C238 H232 0.930 . S
C238 C239 1.367 . S
C238 C246 1.378 . S
C239 C238 1.367 . S
C239 C247 1.433 . S
C240 H236 0.929 . S
C240 C242 1.378 . S
C240 C244 1.350 . S
C241 C244 1.463 1_566 S
C241 C246 1.350 . S
C241 N249 1.427 . S
C242 H233 0.930 . S
C242 C240 1.378 . S
C242 C243 1.367 . S
C243 C242 1.367 . S
C243 C245 1.433 . S
C244 C240 1.350 . S
C244 C241 1.463 1_544 S
C244 N248 1.427 . S
C245 H235 0.929 . S
C245 C243 1.433 . S
C245 N248 1.384 . S
C246 H237 0.929 . S
C246 C238 1.378 . S
C246 C241 1.350 . S
C247 H234 0.929 . S
C247 C239 1.433 . S
C247 N249 1.384 . S
N248 C244 1.427 . S
N248 C245 1.384 . S
N249 C241 1.427 . S
N249 C247 1.384 . S
H250 C256 0.930 1_655 S
H251 C260 0.930 . S
H252 C265 0.929 . S
H253 C263 0.929 . S
H254 C258 0.929 . S
H255 C264 0.929 . S
C256 H250 0.930 1_455 S
C256 C257 1.367 . S
C256 C264 1.378 1_455 S
C257 C256 1.367 . S
C257 C265 1.433 . S
C258 H254 0.929 . S
C258 C260 1.378 . S
C258 C262 1.344 1_455 S
C259 C262 1.462 1_445 S
C259 C264 1.350 1_455 S
C259 N267 1.424 1_545 S
C260 H251 0.930 . S
C260 C258 1.378 . S
C260 C261 1.367 1_455 S
C261 C260 1.367 1_655 S
C261 C263 1.433 . S
C262 C258 1.344 1_655 S
C262 C259 1.462 1_665 S
C262 N266 1.431 1_565 S
C263 H253 0.929 . S
C263 C261 1.433 . S
C263 N266 1.381 1_565 S
C264 H255 0.929 . S
C264 C256 1.378 1_655 S
C264 C259 1.350 1_655 S
C265 H252 0.929 . S
C265 C257 1.433 . S
C265 N267 1.381 1_545 S
N266 C262 1.431 1_545 S
N266 C263 1.381 1_545 S
N267 C259 1.424 1_565 S
N267 C265 1.381 1_565 S
H268 C274 0.930 . S
H269 C278 0.930 . S
H270 C283 0.929 1_545 S
H271 C281 0.929 . S
H272 C276 0.929 . S
H273 C282 0.929 . S
C274 H268 0.930 . S
C274 C275 1.367 . S
C274 C282 1.378 . S
C275 C274 1.367 . S
C275 C283 1.433 1_655 S
C276 H272 0.929 . S
C276 C278 1.378 . S
C276 C280 1.350 . S
C277 C280 1.463 . S
C277 C282 1.350 1_455 S
C277 N285 1.427 . S
C278 H269 0.930 . S
C278 C276 1.378 . S
C278 C279 1.367 . S
C279 C278 1.367 . S
C279 C281 1.433 1_455 S
C280 C276 1.350 . S
C280 C277 1.463 . S
C280 N284 1.427 1_455 S
C281 H271 0.929 . S
C281 C279 1.433 1_655 S
C281 N284 1.384 . S
C282 H273 0.929 . S
C282 C274 1.378 . S
C282 C277 1.350 1_655 S
C283 H270 0.929 1_565 S
C283 C275 1.433 1_455 S
C283 N285 1.384 . S
N284 C280 1.427 1_655 S
N284 C281 1.384 . S
N285 C277 1.427 . S
N285 C283 1.384 . S
H286 C292 0.930 . S
H287 C296 0.930 . S
H288 C301 0.929 . S
H289 C299 0.929 . S
H290 C294 0.929 . S
H291 C300 0.929 . S
C292 H286 0.930 . S
C292 C293 1.367 . S
C292 C300 1.378 . S
C293 C292 1.367 . S
C293 C301 1.433 . S
C294 H290 0.929 . S
C294 C296 1.378 . S
C294 C298 1.350 . S
C295 C298 1.463 . S
C295 C300 1.350 . S
C295 N303 1.427 . S
C296 H287 0.930 . S
C296 C294 1.378 . S
C296 C297 1.367 . S
C297 C296 1.367 . S
C297 C299 1.433 . S
C298 C294 1.350 . S
C298 C295 1.463 . S
C298 N302 1.427 . S
C299 H289 0.929 . S
C299 C297 1.433 . S
C299 N302 1.384 . S
C300 H291 0.929 . S
C300 C292 1.378 . S
C300 C295 1.350 . S
C301 H288 0.929 . S
C301 C293 1.433 . S
C301 N303 1.384 . S
N302 C298 1.427 . S
N302 C299 1.384 . S
N303 C295 1.427 . S
N303 C301 1.384 . S
H304 C310 0.930 . S
H305 C314 0.930 . S
H306 C319 0.929 . S
H307 C317 0.929 . S
H308 C312 0.929 . S
H309 C318 0.929 . S
C310 H304 0.930 . S
C310 C311 1.367 . S
C310 C318 1.378 . S
C311 C310 1.367 . S
C311 C319 1.433 . S
C312 H308 0.929 . S
C312 C314 1.378 . S
C312 C316 1.350 . S
C313 C316 1.463 . S
C313 C318 1.350 . S
C313 N321 1.427 . S
C314 H305 0.930 . S
C314 C312 1.378 . S
C314 C315 1.367 . S
C315 C314 1.367 . S
C315 C317 1.433 . S
C316 C312 1.350 . S
C316 C313 1.463 . S
C316 N320 1.427 . S
C317 H307 0.929 . S
C317 C315 1.433 . S
C317 N320 1.384 . S
C318 H309 0.929 . S
C318 C310 1.378 . S
C318 C313 1.350 . S
C319 H306 0.929 . S
C319 C311 1.433 . S
C319 N321 1.384 . S
N320 C316 1.427 . S
N320 C317 1.384 . S
N321 C313 1.427 . S
N321 C319 1.384 . S
H322 C328 0.930 . S
H323 C332 0.930 . S
H324 C337 0.929 . S
H325 C335 0.929 . S
H326 C330 0.929 1_455 S
H327 C336 0.929 1_655 S
C328 H322 0.930 . S
C328 C329 1.367 . S
C328 C336 1.378 . S
C329 C328 1.367 . S
C329 C337 1.433 . S
C330 H326 0.929 1_655 S
C330 C332 1.378 . S
C330 C334 1.350 . S
C331 C334 1.463 1_455 S
C331 C336 1.350 . S
C331 N339 1.427 . S
C332 H323 0.930 . S
C332 C330 1.378 . S
C332 C333 1.367 . S
C333 C332 1.367 . S
C333 C335 1.433 . S
C334 C330 1.350 . S
C334 C331 1.463 1_655 S
C334 N338 1.427 . S
C335 H325 0.929 . S
C335 C333 1.433 . S
C335 N338 1.384 . S
C336 H327 0.929 1_455 S
C336 C328 1.378 . S
C336 C331 1.350 . S
C337 H324 0.929 . S
C337 C329 1.433 . S
C337 N339 1.384 . S
N338 C334 1.427 . S
N338 C335 1.384 . S
N339 C331 1.427 . S
N339 C337 1.384 . S
H340 C346 0.930 . S
H341 C350 0.930 . S
H342 C355 0.929 . S
H343 C353 0.929 . S
H344 C348 0.929 . S
H345 C354 0.929 . S
C346 H340 0.930 . S
C346 C347 1.367 . S
C346 C354 1.378 . S
C347 C346 1.367 . S
C347 C355 1.433 1_455 S
C348 H344 0.929 . S
C348 C350 1.378 . S
C348 C352 1.350 . S
C349 C352 1.463 1_455 S
C349 C354 1.350 . S
C349 N357 1.427 1_455 S
C350 H341 0.930 . S
C350 C348 1.378 . S
C350 C351 1.367 . S
C351 C350 1.367 . S
C351 C353 1.433 1_655 S
C352 C348 1.350 . S
C352 C349 1.463 1_655 S
C352 N356 1.427 1_655 S
C353 H343 0.929 . S
C353 C351 1.433 1_455 S
C353 N356 1.384 . S
C354 H345 0.929 . S
C354 C346 1.378 . S
C354 C349 1.350 . S
C355 H342 0.929 . S
C355 C347 1.433 1_655 S
C355 N357 1.384 . S
N356 C352 1.427 1_455 S
N356 C353 1.384 . S
N357 C349 1.427 1_655 S
N357 C355 1.384 . S
H358 C364 0.930 . S
H359 C368 0.930 . S
H360 C373 0.929 . S
H361 C371 0.929 . S
H362 C366 0.929 . S
H363 C372 0.929 . S
C364 H358 0.930 . S
C364 C365 1.367 . S
C364 C372 1.378 . S
C365 C364 1.367 . S
C365 C373 1.433 . S
C366 H362 0.929 . S
C366 C368 1.378 . S
C366 C370 1.350 . S
C367 C370 1.463 1_655 S
C367 C372 1.350 . S
C367 N375 1.427 . S
C368 H359 0.930 . S
C368 C366 1.378 . S
C368 C369 1.367 . S
C369 C368 1.367 . S
C369 C371 1.433 . S
C370 C366 1.350 . S
C370 C367 1.463 1_455 S
C370 N374 1.427 . S
C371 H361 0.929 . S
C371 C369 1.433 . S
C371 N374 1.384 . S
C372 H363 0.929 . S
C372 C364 1.378 . S
C372 C367 1.350 . S
C373 H360 0.929 . S
C373 C365 1.433 . S
C373 N375 1.384 . S
N374 C370 1.427 . S
N374 C371 1.384 . S
N375 C367 1.427 . S
N375 C373 1.384 . S
H376 C382 0.930 . S
H377 C386 0.930 . S
H378 C391 0.929 . S
H379 C389 0.929 . S
H380 C384 0.929 . S
H381 C390 0.929 . S
C382 H376 0.930 . S
C382 C383 1.367 . S
C382 C390 1.378 . S
C383 C382 1.367 . S
C383 C391 1.433 . S
C384 H380 0.929 . S
C384 C386 1.378 . S
C384 C388 1.350 . S
C385 C388 1.463 . S
C385 C390 1.350 . S
C385 N393 1.427 . S
C386 H377 0.930 . S
C386 C384 1.378 . S
C386 C387 1.367 . S
C387 C386 1.367 . S
C387 C389 1.433 . S
C388 C384 1.350 . S
C388 C385 1.463 . S
C388 N392 1.427 . S
C389 H379 0.929 . S
C389 C387 1.433 . S
C389 N392 1.384 . S
C390 H381 0.929 . S
C390 C382 1.378 . S
C390 C385 1.350 . S
C391 H378 0.929 . S
C391 C383 1.433 . S
C391 N393 1.384 . S
N392 C388 1.427 . S
N392 C389 1.384 . S
N393 C385 1.427 . S
N393 C391 1.384 . S
H394 C400 0.930 . S
H395 C404 0.930 . S
H396 C409 0.929 . S
H397 C407 0.929 . S
H398 C402 0.929 . S
H399 C408 0.929 . S
C400 H394 0.930 . S
C400 C401 1.367 . S
C400 C408 1.378 . S
C401 C400 1.367 . S
C401 C409 1.433 . S
C402 H398 0.929 . S
C402 C404 1.378 . S
C402 C406 1.350 . S
C403 C406 1.463 . S
C403 C408 1.350 . S
C403 N411 1.427 . S
C404 H395 0.930 . S
C404 C402 1.378 . S
C404 C405 1.367 . S
C405 C404 1.367 . S
C405 C407 1.433 . S
C406 C402 1.350 . S
C406 C403 1.463 . S
C406 N410 1.427 . S
C407 H397 0.929 . S
C407 C405 1.433 . S
C407 N410 1.384 . S
C408 H399 0.929 . S
C408 C400 1.378 . S
C408 C403 1.350 . S
C409 H396 0.929 . S
C409 C401 1.433 . S
C409 N411 1.384 . S
N410 C406 1.427 . S
N410 C407 1.384 . S
N411 C403 1.427 . S
N411 C409 1.384 . S
C131 C1 1.283 . S
C135 C58 1.283 . S
C149 C89 1.878 . S
C153 C32 1.878 . S
C167 C62 1.314 . S
C171 C117 1.314 . S
C185 C24 1.405 . S
C189 C93 1.405 . S
C203 C94 1.860 . S
C207 C27 1.860 . S
C221 C31 1.413 . S
C225 C86 1.413 . S
C239 C63 1.265 . S
C243 C120 1.265 . S
C257 C0 1.289 . S
C261 C55 1.289 . S
C275 C18 1.671 1_565 S
C279 C11 1.671 . S
C293 C41 1.357 . S
C297 C33 1.357 . S
C311 C80 1.675 . S
C315 C73 1.675 1_545 S
C329 C95 1.360 . S
C333 C103 1.360 . S
C347 C42 1.674 1_545 S
C351 C49 1.674 . S
C365 C72 1.357 . S
C369 C64 1.357 . S
C383 C104 1.675 . S
C387 C111 1.675 1_565 S
C401 C2 1.357 . S
C405 C10 1.357 . S
