# Generated by pormake.
# Topology ukn, (4)-cn, num edge types: 1
# Building blocks:
#     Node 0, Type 0, BuildingBlock: QUQFOY_clean_sbu_3, # of connection points: 4
#     Node 1, Type 0, BuildingBlock: QUQFOY_clean_sbu_3, # of connection points: 4
#     Node 2, Type 0, BuildingBlock: QUQFOY_clean_sbu_3, # of connection points: 4
#     Node 3, Type 0, BuildingBlock: QUQFOY_clean_sbu_3, # of connection points: 4
#     Node 4, Type 0, BuildingBlock: QUQFOY_clean_sbu_3, # of connection points: 4
#     Node 5, Type 0, BuildingBlock: QUQFOY_clean_sbu_3, # of connection points: 4
#     Node 6, Type 0, BuildingBlock: QUQFOY_clean_sbu_3, # of connection points: 4
#     Node 7, Type 0, BuildingBlock: QUQFOY_clean_sbu_3, # of connection points: 4
#     Node 8, Type 0, BuildingBlock: QUQFOY_clean_sbu_3, # of connection points: 4
#     Node 9, Type 0, BuildingBlock: QUQFOY_clean_sbu_3, # of connection points: 4
#     Node 10, Type 0, BuildingBlock: QUQFOY_clean_sbu_3, # of connection points: 4
#     Node 11, Type 0, BuildingBlock: QUQFOY_clean_sbu_3, # of connection points: 4
#     Node 12, Type 0, BuildingBlock: QUQFOY_clean_sbu_3, # of connection points: 4
#     Node 13, Type 0, BuildingBlock: QUQFOY_clean_sbu_3, # of connection points: 4
#     Node 14, Type 0, BuildingBlock: QUQFOY_clean_sbu_3, # of connection points: 4
#     Node 15, Type 0, BuildingBlock: QUQFOY_clean_sbu_3, # of connection points: 4
#     Node 16, Type 0, BuildingBlock: QUQFOY_clean_sbu_3, # of connection points: 4
#     Node 17, Type 0, BuildingBlock: QUQFOY_clean_sbu_3, # of connection points: 4
#     Node 18, Type 0, BuildingBlock: QUQFOY_clean_sbu_3, # of connection points: 4
#     Node 19, Type 0, BuildingBlock: QUQFOY_clean_sbu_3, # of connection points: 4
#     Node 20, Type 0, BuildingBlock: QUQFOY_clean_sbu_3, # of connection points: 4
#     Node 21, Type 0, BuildingBlock: QUQFOY_clean_sbu_3, # of connection points: 4
#     Node 22, Type 0, BuildingBlock: QUQFOY_clean_sbu_3, # of connection points: 4
#     Node 23, Type 0, BuildingBlock: QUQFOY_clean_sbu_3, # of connection points: 4
#     Node 24, Type 0, BuildingBlock: QUQFOY_clean_sbu_3, # of connection points: 4
#     Node 25, Type 0, BuildingBlock: QUQFOY_clean_sbu_3, # of connection points: 4
#     Node 26, Type 0, BuildingBlock: QUQFOY_clean_sbu_3, # of connection points: 4
#     Node 27, Type 0, BuildingBlock: QUQFOY_clean_sbu_3, # of connection points: 4
#     Node 28, Type 0, BuildingBlock: QUQFOY_clean_sbu_3, # of connection points: 4
#     Node 29, Type 0, BuildingBlock: QUQFOY_clean_sbu_3, # of connection points: 4
#     Node 30, Type 0, BuildingBlock: QUQFOY_clean_sbu_3, # of connection points: 4
#     Node 31, Type 0, BuildingBlock: QUQFOY_clean_sbu_3, # of connection points: 4
#     Node 32, Type 0, BuildingBlock: QUQFOY_clean_sbu_3, # of connection points: 4
#     Node 33, Type 0, BuildingBlock: QUQFOY_clean_sbu_3, # of connection points: 4
#     Node 34, Type 0, BuildingBlock: QUQFOY_clean_sbu_3, # of connection points: 4
#     Node 35, Type 0, BuildingBlock: QUQFOY_clean_sbu_3, # of connection points: 4
#     Edge 36, Type (0, 0), BuildingBlock: UVAHIK_clean_linker_0, # of connection points: 2
#     Edge 37, Type (0, 0), BuildingBlock: UVAHIK_clean_linker_0, # of connection points: 2
#     Edge 38, Type (0, 0), BuildingBlock: UVAHIK_clean_linker_0, # of connection points: 2
#     Edge 39, Type (0, 0), BuildingBlock: UVAHIK_clean_linker_0, # of connection points: 2
#     Edge 40, Type (0, 0), BuildingBlock: UVAHIK_clean_linker_0, # of connection points: 2
#     Edge 41, Type (0, 0), BuildingBlock: UVAHIK_clean_linker_0, # of connection points: 2
#     Edge 42, Type (0, 0), BuildingBlock: UVAHIK_clean_linker_0, # of connection points: 2
#     Edge 43, Type (0, 0), BuildingBlock: UVAHIK_clean_linker_0, # of connection points: 2
#     Edge 44, Type (0, 0), BuildingBlock: UVAHIK_clean_linker_0, # of connection points: 2
#     Edge 45, Type (0, 0), BuildingBlock: UVAHIK_clean_linker_0, # of connection points: 2
#     Edge 46, Type (0, 0), BuildingBlock: UVAHIK_clean_linker_0, # of connection points: 2
#     Edge 47, Type (0, 0), BuildingBlock: UVAHIK_clean_linker_0, # of connection points: 2
#     Edge 48, Type (0, 0), BuildingBlock: UVAHIK_clean_linker_0, # of connection points: 2
#     Edge 49, Type (0, 0), BuildingBlock: UVAHIK_clean_linker_0, # of connection points: 2
#     Edge 50, Type (0, 0), BuildingBlock: UVAHIK_clean_linker_0, # of connection points: 2
#     Edge 51, Type (0, 0), BuildingBlock: UVAHIK_clean_linker_0, # of connection points: 2
#     Edge 52, Type (0, 0), BuildingBlock: UVAHIK_clean_linker_0, # of connection points: 2
#     Edge 53, Type (0, 0), BuildingBlock: UVAHIK_clean_linker_0, # of connection points: 2
#     Edge 54, Type (0, 0), BuildingBlock: UVAHIK_clean_linker_0, # of connection points: 2
#     Edge 55, Type (0, 0), BuildingBlock: UVAHIK_clean_linker_0, # of connection points: 2
#     Edge 56, Type (0, 0), BuildingBlock: UVAHIK_clean_linker_0, # of connection points: 2
#     Edge 57, Type (0, 0), BuildingBlock: UVAHIK_clean_linker_0, # of connection points: 2
#     Edge 58, Type (0, 0), BuildingBlock: UVAHIK_clean_linker_0, # of connection points: 2
#     Edge 59, Type (0, 0), BuildingBlock: UVAHIK_clean_linker_0, # of connection points: 2
#     Edge 60, Type (0, 0), BuildingBlock: UVAHIK_clean_linker_0, # of connection points: 2
#     Edge 61, Type (0, 0), BuildingBlock: UVAHIK_clean_linker_0, # of connection points: 2
#     Edge 62, Type (0, 0), BuildingBlock: UVAHIK_clean_linker_0, # of connection points: 2
#     Edge 63, Type (0, 0), BuildingBlock: UVAHIK_clean_linker_0, # of connection points: 2
#     Edge 64, Type (0, 0), BuildingBlock: UVAHIK_clean_linker_0, # of connection points: 2
#     Edge 65, Type (0, 0), BuildingBlock: UVAHIK_clean_linker_0, # of connection points: 2
#     Edge 66, Type (0, 0), BuildingBlock: UVAHIK_clean_linker_0, # of connection points: 2
#     Edge 67, Type (0, 0), BuildingBlock: UVAHIK_clean_linker_0, # of connection points: 2
#     Edge 68, Type (0, 0), BuildingBlock: UVAHIK_clean_linker_0, # of connection points: 2
#     Edge 69, Type (0, 0), BuildingBlock: UVAHIK_clean_linker_0, # of connection points: 2
#     Edge 70, Type (0, 0), BuildingBlock: UVAHIK_clean_linker_0, # of connection points: 2
#     Edge 71, Type (0, 0), BuildingBlock: UVAHIK_clean_linker_0, # of connection points: 2
#     Edge 72, Type (0, 0), BuildingBlock: UVAHIK_clean_linker_0, # of connection points: 2
#     Edge 73, Type (0, 0), BuildingBlock: UVAHIK_clean_linker_0, # of connection points: 2
#     Edge 74, Type (0, 0), BuildingBlock: UVAHIK_clean_linker_0, # of connection points: 2
#     Edge 75, Type (0, 0), BuildingBlock: UVAHIK_clean_linker_0, # of connection points: 2
#     Edge 76, Type (0, 0), BuildingBlock: UVAHIK_clean_linker_0, # of connection points: 2
#     Edge 77, Type (0, 0), BuildingBlock: UVAHIK_clean_linker_0, # of connection points: 2
#     Edge 78, Type (0, 0), BuildingBlock: UVAHIK_clean_linker_0, # of connection points: 2
#     Edge 79, Type (0, 0), BuildingBlock: UVAHIK_clean_linker_0, # of connection points: 2
#     Edge 80, Type (0, 0), BuildingBlock: UVAHIK_clean_linker_0, # of connection points: 2
#     Edge 81, Type (0, 0), BuildingBlock: UVAHIK_clean_linker_0, # of connection points: 2
#     Edge 82, Type (0, 0), BuildingBlock: UVAHIK_clean_linker_0, # of connection points: 2
#     Edge 83, Type (0, 0), BuildingBlock: UVAHIK_clean_linker_0, # of connection points: 2
#     Edge 84, Type (0, 0), BuildingBlock: UVAHIK_clean_linker_0, # of connection points: 2
#     Edge 85, Type (0, 0), BuildingBlock: UVAHIK_clean_linker_0, # of connection points: 2
#     Edge 86, Type (0, 0), BuildingBlock: UVAHIK_clean_linker_0, # of connection points: 2
#     Edge 87, Type (0, 0), BuildingBlock: UVAHIK_clean_linker_0, # of connection points: 2
#     Edge 88, Type (0, 0), BuildingBlock: UVAHIK_clean_linker_0, # of connection points: 2
#     Edge 89, Type (0, 0), BuildingBlock: UVAHIK_clean_linker_0, # of connection points: 2
#     Edge 90, Type (0, 0), BuildingBlock: UVAHIK_clean_linker_0, # of connection points: 2
#     Edge 91, Type (0, 0), BuildingBlock: UVAHIK_clean_linker_0, # of connection points: 2
#     Edge 92, Type (0, 0), BuildingBlock: UVAHIK_clean_linker_0, # of connection points: 2
#     Edge 93, Type (0, 0), BuildingBlock: UVAHIK_clean_linker_0, # of connection points: 2
#     Edge 94, Type (0, 0), BuildingBlock: UVAHIK_clean_linker_0, # of connection points: 2
#     Edge 95, Type (0, 0), BuildingBlock: UVAHIK_clean_linker_0, # of connection points: 2
#     Edge 96, Type (0, 0), BuildingBlock: UVAHIK_clean_linker_0, # of connection points: 2
#     Edge 97, Type (0, 0), BuildingBlock: UVAHIK_clean_linker_0, # of connection points: 2
#     Edge 98, Type (0, 0), BuildingBlock: UVAHIK_clean_linker_0, # of connection points: 2
#     Edge 99, Type (0, 0), BuildingBlock: UVAHIK_clean_linker_0, # of connection points: 2
#     Edge 100, Type (0, 0), BuildingBlock: UVAHIK_clean_linker_0, # of connection points: 2
#     Edge 101, Type (0, 0), BuildingBlock: UVAHIK_clean_linker_0, # of connection points: 2
#     Edge 102, Type (0, 0), BuildingBlock: UVAHIK_clean_linker_0, # of connection points: 2
#     Edge 103, Type (0, 0), BuildingBlock: UVAHIK_clean_linker_0, # of connection points: 2
#     Edge 104, Type (0, 0), BuildingBlock: UVAHIK_clean_linker_0, # of connection points: 2
#     Edge 105, Type (0, 0), BuildingBlock: UVAHIK_clean_linker_0, # of connection points: 2
#     Edge 106, Type (0, 0), BuildingBlock: UVAHIK_clean_linker_0, # of connection points: 2
#     Edge 107, Type (0, 0), BuildingBlock: UVAHIK_clean_linker_0, # of connection points: 2
# Relax obj value: 0.073
# Max RMSD: 0.095
# Mean RMSD: 0.094
data_MOF--net-ukn--node1-QUQFOY_clean_sbu_3--edge1-UVAHIK_clean_linker_0
_symmetry_space_group_name_H-M    P1
_symmetry_Int_Tables_number       1
_symmetry_cell_setting            triclinic
loop_
_symmetry_equiv_pos_as_xyz
'x, y, z'
_cell_length_a     139.40741
_cell_length_b     139.24816
_cell_length_c     34.62277
_cell_angle_alpha  89.987177
_cell_angle_beta   90.049004
_cell_angle_gamma 119.96467
loop_
_atom_site_label
_atom_site_type_symbol
_atom_site_fract_x
_atom_site_fract_y
_atom_site_fract_z
_atom_type_partial_charge
C0 C 0.07099 0.30622 0.13747 0.0
O1 O 0.07695 0.31394 0.11403 0.0
Cd2 Cd 0.08208 0.31245 0.05063 0.0
O3 O 0.06657 0.296 0.12778 0.0
Cd4 Cd 0.06521 0.28559 0.06628 0.0
C5 C 0.09286 0.29508 0.06739 0.0
O6 O 0.06444 0.29937 0.02755 0.0
O7 O 0.06559 0.28703 -0.0057 0.0
O8 O 0.04578 0.27272 0.08076 0.0
C9 C 0.06462 0.2956 -0.00532 0.0
O10 O 0.09415 0.30455 0.0588 0.0
C11 C 0.04587 0.26418 0.06848 0.0
O12 O 0.08325 0.28673 0.07264 0.0
O13 O 0.05519 0.26546 0.05823 0.0
C14 C 0.68546 0.76476 0.13653 0.0
O15 O 0.67776 0.76171 0.11182 0.0
Cd16 Cd 0.68007 0.76723 0.04647 0.0
O17 O 0.69561 0.77084 0.12692 0.0
Cd18 Cd 0.70579 0.77832 0.06416 0.0
C19 C 0.6957 0.79572 0.05726 0.0
O20 O 0.69336 0.76259 0.02496 0.0
O21 O 0.70403 0.77726 0.99282 0.0
O22 O 0.71908 0.77254 0.08186 0.0
C23 C 0.69696 0.767 0.99243 0.0
O24 O 0.68668 0.78717 0.04722 0.0
C25 C 0.72749 0.78114 0.06879 0.0
O26 O 0.70406 0.79489 0.06721 0.0
O27 O 0.72594 0.78885 0.05659 0.0
C28 C 0.22623 0.91684 0.12808 0.0
O29 O 0.22757 0.91133 0.10154 0.0
Cd30 Cd 0.22246 0.91024 0.03606 0.0
O31 O 0.22167 0.92265 0.12087 0.0
Cd32 Cd 0.21423 0.92677 0.06041 0.0
C33 C 0.1945 0.90013 0.04707 0.0
O34 O 0.2293 0.92905 0.0196 0.0
O35 O 0.21499 0.92681 0.98878 0.0
O36 O 0.22143 0.94609 0.07944 0.0
C37 C 0.22502 0.9292 0.98764 0.0
O38 O 0.20231 0.89883 0.03398 0.0
C39 C 0.21296 0.94651 0.0684 0.0
O40 O 0.19654 0.90936 0.06166 0.0
O41 O 0.20474 0.93749 0.0569 0.0
C42 C 0.30865 0.07699 0.85509 0.0
O43 O 0.31571 0.08206 0.88154 0.0
Cd44 Cd 0.3121 0.08382 0.94694 0.0
O45 O 0.29827 0.07191 0.86248 0.0
Cd46 Cd 0.28688 0.06857 0.9227 0.0
C47 C 0.29594 0.09587 0.93357 0.0
O48 O 0.29892 0.06543 0.96462 0.0
O49 O 0.28733 0.06863 -0.00577 0.0
O50 O 0.27404 0.04946 0.90354 0.0
C51 C 0.29464 0.06579 -0.00371 0.0
O52 O 0.30482 0.09652 0.94641 0.0
C53 C 0.26539 0.04954 0.91455 0.0
O54 O 0.28814 0.08674 0.92045 0.0
O55 O 0.26666 0.05876 0.926 0.0
C56 C 0.91403 0.22766 0.85126 0.0
O57 O 0.90868 0.22906 0.87822 0.0
Cd58 Cd 0.9082 0.22446 0.94415 0.0
O59 O 0.92002 0.22328 0.85813 0.0
Cd60 Cd 0.92457 0.2161 0.91804 0.0
C61 C 0.89806 0.19647 0.93478 0.0
O62 O 0.92705 0.23116 0.95964 0.0
O63 O 0.92522 0.21689 0.98955 0.0
O64 O 0.94379 0.22314 0.89838 0.0
C65 C 0.92735 0.22684 0.99134 0.0
O66 O 0.89686 0.20434 0.94802 0.0
C67 C 0.94403 0.21446 0.90805 0.0
O68 O 0.90711 0.19845 0.91899 0.0
O69 O 0.93495 0.20625 0.9191 0.0
C70 C 0.76428 0.68611 0.85255 0.0
O71 O 0.7626 0.67893 0.87821 0.0
Cd72 Cd 0.76676 0.68212 0.9447 0.0
O73 O 0.76873 0.69638 0.86133 0.0
Cd74 Cd 0.77559 0.70722 0.9232 0.0
C75 C 0.79482 0.69963 0.93828 0.0
O76 O 0.75997 0.69416 0.96141 0.0
O77 O 0.77382 0.70597 -0.00535 0.0
O78 O 0.76908 0.7199 0.904 0.0
C79 C 0.7638 0.69827 -0.00587 0.0
O80 O 0.7868 0.69043 0.94989 0.0
C81 C 0.77762 0.7286 0.91588 0.0
O82 O 0.79306 0.70705 0.92412 0.0
O83 O 0.78555 0.72743 0.92819 0.0
C84 C 0.91405 0.685 0.85263 0.0
O85 O 0.90853 0.67785 0.87834 0.0
Cd86 Cd 0.90725 0.68109 0.94466 0.0
O87 O 0.9198 0.69529 0.86121 0.0
Cd88 Cd 0.92362 0.70627 0.92267 0.0
C89 C 0.8968 0.69875 0.93632 0.0
O90 O 0.92587 0.69326 0.96276 0.0
O91 O 0.92366 0.70531 -0.00611 0.0
O92 O 0.94292 0.71879 0.90487 0.0
C93 C 0.9259 0.69756 -0.0051 0.0
O94 O 0.8956 0.68956 0.94832 0.0
C95 C 0.94303 0.72753 0.91612 0.0
O96 O 0.906 0.70614 0.92228 0.0
O97 O 0.93386 0.72645 0.92716 0.0
C98 C 0.30484 0.22973 0.84881 0.0
O99 O 0.31248 0.23273 0.8738 0.0
Cd100 Cd 0.31012 0.22703 0.93909 0.0
O101 O 0.29467 0.22356 0.85802 0.0
Cd102 Cd 0.28432 0.21576 0.92021 0.0
C103 C 0.29462 0.19854 0.92745 0.0
O104 O 0.29654 0.23114 0.96132 0.0
O105 O 0.28568 0.21614 0.99146 0.0
O106 O 0.27094 0.22151 0.90338 0.0
C107 C 0.29284 0.22635 0.99328 0.0
O108 O 0.30356 0.2071 0.93808 0.0
C109 C 0.26252 0.21267 0.91505 0.0
O110 O 0.28629 0.19933 0.9168 0.0
O111 O 0.26414 0.2049 0.92612 0.0
C112 C 0.76512 0.07945 0.85059 0.0
O113 O 0.764 0.08539 0.876 0.0
Cd114 Cd 0.76772 0.08601 0.94281 0.0
O115 O 0.76885 0.07302 0.85969 0.0
Cd116 Cd 0.77527 0.0687 0.92187 0.0
C117 C 0.79548 0.0951 0.93795 0.0
O118 O 0.75981 0.06697 0.95903 0.0
O119 O 0.77311 0.06805 0.99324 0.0
O120 O 0.76808 0.04932 0.90313 0.0
C121 C 0.76328 0.06629 0.99196 0.0
O122 O 0.78778 0.09679 0.94953 0.0
C123 C 0.77642 0.04884 0.91535 0.0
O124 O 0.79322 0.08582 0.92332 0.0
O125 O 0.78454 0.05781 0.92763 0.0
C126 C 0.68347 0.91914 0.13364 0.0
O127 O 0.67585 0.91433 0.10872 0.0
Cd128 Cd 0.67845 0.9108 0.04397 0.0
O129 O 0.69366 0.92326 0.12449 0.0
Cd130 Cd 0.70411 0.92588 0.06249 0.0
C131 C 0.69452 0.89848 0.0576 0.0
O132 O 0.69166 0.92854 0.02083 0.0
O133 O 0.7027 0.92452 0.99128 0.0
O134 O 0.71689 0.94517 0.07918 0.0
C135 C 0.69546 0.92745 0.98907 0.0
O136 O 0.68546 0.89781 0.04685 0.0
C137 C 0.72551 0.94519 0.06721 0.0
O138 O 0.70276 0.90776 0.06743 0.0
O139 O 0.72431 0.93597 0.05609 0.0
C140 C 0.07579 0.76693 0.13084 0.0
O141 O 0.08129 0.7655 0.10452 0.0
Cd142 Cd 0.08241 0.76995 0.03834 0.0
O143 O 0.06986 0.77136 0.12333 0.0
Cd144 Cd 0.06537 0.77838 0.06271 0.0
C145 C 0.09212 0.79799 0.04684 0.0
O146 O 0.06351 0.76313 0.02481 0.0
O147 O 0.06363 0.77603 0.99102 0.0
O148 O 0.04627 0.77153 0.08352 0.0
C149 C 0.06247 0.76642 0.99203 0.0
O150 O 0.09353 0.79011 0.03505 0.0
C151 C 0.04587 0.77996 0.07176 0.0
O152 O 0.08288 0.79601 0.06093 0.0
O153 O 0.05483 0.78802 0.05911 0.0
C154 C 0.22725 0.30665 0.12762 0.0
O155 O 0.22917 0.3139 0.10189 0.0
Cd156 Cd 0.22345 0.31087 0.03652 0.0
O157 O 0.22185 0.29629 0.11987 0.0
Cd158 Cd 0.21369 0.2849 0.05977 0.0
C159 C 0.1953 0.29386 0.05033 0.0
O160 O 0.2286 0.29771 0.01952 0.0
O161 O 0.21478 0.28537 0.98766 0.0
O162 O 0.22008 0.27218 0.07926 0.0
C163 C 0.22456 0.29353 0.98711 0.0
O164 O 0.20332 0.30286 0.03732 0.0
C165 C 0.21139 0.26347 0.0683 0.0
O166 O 0.19685 0.28618 0.06328 0.0
O167 O 0.20344 0.26467 0.05639 0.0
C168 C 0.74269 0.64375 0.4658 0.0
O169 O 0.74802 0.65076 0.43949 0.0
Cd170 Cd 0.74925 0.64716 0.37366 0.0
O171 O 0.73713 0.63339 0.45817 0.0
Cd172 Cd 0.73339 0.62218 0.39719 0.0
C173 C 0.76029 0.63009 0.38347 0.0
O174 O 0.73049 0.63475 0.35726 0.0
O175 O 0.73305 0.62303 0.32553 0.0
O176 O 0.71422 0.60924 0.41571 0.0
C177 C 0.73038 0.63049 0.32502 0.0
O178 O 0.76131 0.63914 0.37081 0.0
C179 C 0.71434 0.60063 0.40436 0.0
O180 O 0.75114 0.62266 0.39769 0.0
O181 O 0.72358 0.60198 0.39298 0.0
C182 C 0.35047 0.09768 0.46797 0.0
O183 O 0.34322 0.09552 0.44204 0.0
Cd184 Cd 0.34648 0.10062 0.37623 0.0
O185 O 0.36079 0.10298 0.45974 0.0
Cd186 Cd 0.37194 0.11091 0.39911 0.0
C187 C 0.36258 0.12892 0.38812 0.0
O188 O 0.35975 0.0956 0.35793 0.0
O189 O 0.37133 0.11027 0.32766 0.0
O190 O 0.38487 0.10476 0.4182 0.0
C191 C 0.36393 0.10014 0.32603 0.0
O192 O 0.35367 0.12059 0.37597 0.0
C193 C 0.3935 0.11352 0.40723 0.0
O194 O 0.3705 0.12773 0.4009 0.0
O195 O 0.39217 0.12143 0.39565 0.0
C196 C 0.89322 0.24957 0.46507 0.0
O197 O 0.89533 0.24428 0.4398 0.0
Cd198 Cd 0.88991 0.24191 0.37429 0.0
O199 O 0.88792 0.25455 0.45609 0.0
Cd200 Cd 0.88008 0.25746 0.39452 0.0
C201 C 0.86171 0.23019 0.38662 0.0
O202 O 0.89527 0.26012 0.35348 0.0
O203 O 0.88048 0.25664 0.32314 0.0
O204 O 0.88656 0.27673 0.41194 0.0
C205 C 0.89063 0.25946 0.3215 0.0
O206 O 0.86992 0.22935 0.3749 0.0
C207 C 0.87796 0.27677 0.40001 0.0
O208 O 0.86306 0.23946 0.39826 0.0
O209 O 0.86998 0.26757 0.38864 0.0
C210 C 0.97269 0.4108 0.18941 0.0
O211 O 0.97946 0.41656 0.2158 0.0
Cd212 Cd 0.97571 0.41696 0.28224 0.0
O213 O 0.96245 0.40436 0.19698 0.0
Cd214 Cd 0.95095 0.39999 0.25723 0.0
C215 C 0.95746 0.42654 0.27265 0.0
O216 O 0.96388 0.39809 0.29895 0.0
O217 O 0.95124 0.39964 0.32855 0.0
O218 O 0.93904 0.38062 0.23837 0.0
C219 C 0.95922 0.39776 0.33055 0.0
O220 O 0.96658 0.42794 0.28604 0.0
C221 C 0.93006 0.38018 0.24828 0.0
O222 O 0.95049 0.41737 0.25711 0.0
O223 O 0.93074 0.38921 0.25917 0.0
C224 C 0.58463 0.5633 0.18424 0.0
O225 O 0.57963 0.56549 0.21039 0.0
Cd226 Cd 0.57806 0.56099 0.27663 0.0
O227 O 0.58986 0.55817 0.19215 0.0
Cd228 Cd 0.59393 0.55092 0.25322 0.0
C229 C 0.56673 0.53261 0.26781 0.0
O230 O 0.59662 0.56651 0.29114 0.0
O231 O 0.59555 0.55314 0.32483 0.0
O232 O 0.61286 0.55699 0.23247 0.0
C233 C 0.59726 0.56296 0.32397 0.0
O234 O 0.56591 0.54091 0.27868 0.0
C235 C 0.61289 0.54839 0.24451 0.0
O236 O 0.57586 0.5339 0.25498 0.0
O237 O 0.60377 0.54057 0.25722 0.0
C238 C 0.42804 0.0198 0.19062 0.0
O239 O 0.42615 0.0126 0.21644 0.0
Cd240 Cd 0.43263 0.01607 0.28056 0.0
O241 O 0.43375 0.03016 0.19821 0.0
Cd242 Cd 0.44262 0.04141 0.25824 0.0
C243 C 0.46069 0.03207 0.26297 0.0
O244 O 0.42772 0.02931 0.30053 0.0
O245 O 0.4427 0.04053 0.33001 0.0
O246 O 0.43631 0.05433 0.24068 0.0
C247 C 0.43251 0.03335 0.3322 0.0
O248 O 0.45254 0.02315 0.27584 0.0
C249 C 0.44502 0.06296 0.25197 0.0
O250 O 0.45938 0.04007 0.25201 0.0
O251 O 0.45298 0.06166 0.26302 0.0
C252 C 0.58329 0.01872 0.18998 0.0
O253 O 0.57796 0.01164 0.21609 0.0
Cd254 Cd 0.5754 0.01545 0.28026 0.0
O255 O 0.58814 0.02911 0.19722 0.0
Cd256 Cd 0.59076 0.04056 0.25696 0.0
C257 C 0.56344 0.03154 0.26291 0.0
O258 O 0.59372 0.02852 0.29913 0.0
O259 O 0.59013 0.03983 0.32885 0.0
O260 O 0.60991 0.05341 0.23853 0.0
C261 C 0.59319 0.03268 0.33083 0.0
O262 O 0.56264 0.02263 0.27614 0.0
C263 C 0.60987 0.06207 0.2498 0.0
O264 O 0.57272 0.03941 0.25133 0.0
O265 O 0.60067 0.06081 0.26124 0.0
C266 C 0.97231 0.56042 0.19014 0.0
O267 O 0.97917 0.5618 0.21669 0.0
Cd268 Cd 0.97526 0.55683 0.28233 0.0
O269 O 0.96195 0.55587 0.19736 0.0
Cd270 Cd 0.95047 0.54851 0.25779 0.0
C271 C 0.95743 0.52883 0.27175 0.0
O272 O 0.96324 0.56367 0.29839 0.0
O273 O 0.95118 0.54944 0.32939 0.0
O274 O 0.93822 0.55556 0.23877 0.0
C275 C 0.95882 0.55948 0.33039 0.0
O276 O 0.96654 0.53665 0.28487 0.0
C277 C 0.92938 0.54703 0.24985 0.0
O278 O 0.95027 0.53086 0.25697 0.0
O279 O 0.93029 0.53886 0.26132 0.0
C280 C 0.43243 0.41244 0.19404 0.0
O281 O 0.43079 0.41819 0.21884 0.0
Cd282 Cd 0.43507 0.42027 0.28543 0.0
O283 O 0.43696 0.40674 0.2036 0.0
Cd284 Cd 0.444 0.40299 0.2656 0.0
C285 C 0.4632 0.43021 0.27748 0.0
O286 O 0.42871 0.40165 0.30185 0.0
O287 O 0.44118 0.40128 0.33692 0.0
O288 O 0.43715 0.38382 0.24549 0.0
C289 C 0.43178 0.40056 0.335 0.0
O290 O 0.45516 0.43158 0.28734 0.0
C291 C 0.44538 0.38329 0.25866 0.0
O292 O 0.46149 0.42077 0.26617 0.0
O293 O 0.45338 0.39221 0.27192 0.0
C294 C 0.34955 0.25148 0.466 0.0
O295 O 0.34218 0.24668 0.44024 0.0
Cd296 Cd 0.34543 0.24386 0.37538 0.0
O297 O 0.35984 0.25592 0.45783 0.0
Cd298 Cd 0.37088 0.25912 0.39683 0.0
C299 C 0.36173 0.23182 0.38907 0.0
O300 O 0.35862 0.2619 0.35462 0.0
O301 O 0.37006 0.25838 0.32541 0.0
O302 O 0.38336 0.27834 0.4153 0.0
C303 C 0.36272 0.26118 0.323 0.0
O304 O 0.35272 0.23112 0.37749 0.0
C305 C 0.39213 0.27855 0.40411 0.0
O306 O 0.36976 0.24106 0.40042 0.0
O307 O 0.39113 0.26943 0.39261 0.0
C308 C 0.73889 0.09603 0.46519 0.0
O309 O 0.74377 0.09373 0.43896 0.0
Cd310 Cd 0.74578 0.09925 0.37371 0.0
O311 O 0.7341 0.1016 0.45746 0.0
Cd312 Cd 0.73082 0.10954 0.39667 0.0
C313 C 0.75809 0.12753 0.38677 0.0
O314 O 0.72749 0.09418 0.35531 0.0
O315 O 0.73106 0.10902 0.32504 0.0
O316 O 0.71177 0.10351 0.41563 0.0
C317 C 0.72798 0.09879 0.32342 0.0
O318 O 0.75868 0.11922 0.37444 0.0
C319 C 0.71193 0.11228 0.40442 0.0
O320 O 0.74897 0.12635 0.39923 0.0
O321 O 0.72117 0.12013 0.39277 0.0
C322 C 0.89365 0.64229 0.46622 0.0
O323 O 0.89549 0.64926 0.4396 0.0
Cd324 Cd 0.89041 0.64547 0.37394 0.0
O325 O 0.88865 0.63189 0.45895 0.0
Cd326 Cd 0.88102 0.62045 0.39857 0.0
C327 C 0.86226 0.62868 0.38493 0.0
O328 O 0.89616 0.63267 0.35669 0.0
O329 O 0.88146 0.62086 0.3271 0.0
O330 O 0.88757 0.6078 0.4175 0.0
C331 C 0.89157 0.62829 0.32503 0.0
O332 O 0.87037 0.63762 0.37204 0.0
C333 C 0.87886 0.59907 0.40681 0.0
O334 O 0.86382 0.62115 0.39939 0.0
O335 O 0.87082 0.60022 0.3957 0.0
C336 C 0.41036 0.97717 0.80709 0.0
O337 O 0.41627 0.98434 0.782 0.0
Cd338 Cd 0.41781 0.98126 0.71589 0.0
O339 O 0.40449 0.96693 0.79798 0.0
Cd340 Cd 0.40119 0.95616 0.73629 0.0
C341 C 0.428 0.96344 0.72431 0.0
O342 O 0.39913 0.96943 0.69742 0.0
O343 O 0.40126 0.95758 0.66475 0.0
O344 O 0.38184 0.94371 0.75377 0.0
C345 C 0.39906 0.96537 0.66481 0.0
O346 O 0.42932 0.97268 0.71247 0.0
C347 C 0.38157 0.93499 0.74143 0.0
O348 O 0.41871 0.95607 0.73781 0.0
O349 O 0.39066 0.936 0.72989 0.0
C350 C 0.01702 0.43486 0.80578 0.0
O351 O 0.01004 0.43413 0.78069 0.0
Cd352 Cd 0.01274 0.43735 0.71339 0.0
O353 O 0.02702 0.438 0.79637 0.0
Cd354 Cd 0.03759 0.44439 0.734 0.0
C355 C 0.0319 0.46499 0.71824 0.0
O356 O 0.02361 0.42935 0.69534 0.0
O357 O 0.03615 0.44298 0.66301 0.0
O358 O 0.04941 0.43662 0.75051 0.0
C359 C 0.02793 0.43322 0.66286 0.0
O360 O 0.02251 0.4574 0.70628 0.0
C361 C 0.05831 0.44496 0.73877 0.0
O362 O 0.03876 0.46257 0.7334 0.0
O363 O 0.05767 0.45334 0.72808 0.0
C364 C 0.55624 0.57821 0.80002 0.0
O365 O 0.5569 0.57186 0.77511 0.0
Cd366 Cd 0.55363 0.57096 0.70776 0.0
O367 O 0.55311 0.58509 0.79038 0.0
Cd368 Cd 0.54713 0.58978 0.72796 0.0
C369 C 0.5262 0.56352 0.71042 0.0
O370 O 0.56216 0.59002 0.69288 0.0
O371 O 0.55068 0.59193 0.65713 0.0
O372 O 0.55485 0.60918 0.74747 0.0
C373 C 0.55968 0.59182 0.65972 0.0
O374 O 0.53363 0.56127 0.70022 0.0
C375 C 0.54679 0.61005 0.73449 0.0
O376 O 0.52881 0.57298 0.72434 0.0
O377 O 0.53854 0.60126 0.7217 0.0
C378 C 0.64088 0.74372 0.51939 0.0
O379 O 0.64825 0.74892 0.54478 0.0
Cd380 Cd 0.64507 0.7511 0.61023 0.0
O381 O 0.63059 0.73865 0.52806 0.0
Cd382 Cd 0.61988 0.73498 0.59015 0.0
C383 C 0.62764 0.76191 0.60068 0.0
O384 O 0.63289 0.73255 0.62929 0.0
O385 O 0.62136 0.73525 0.66168 0.0
O386 O 0.60763 0.71569 0.57149 0.0
C387 C 0.62889 0.73269 0.66181 0.0
O388 O 0.63689 0.76308 0.61163 0.0
C389 C 0.59887 0.71518 0.5844 0.0
O390 O 0.61996 0.75256 0.5886 0.0
O391 O 0.59974 0.72416 0.59678 0.0
C392 C 0.24826 0.89512 0.51283 0.0
O393 O 0.24226 0.89619 0.53808 0.0
Cd394 Cd 0.24113 0.89201 0.6046 0.0
O395 O 0.25459 0.89128 0.52198 0.0
Cd396 Cd 0.25873 0.88477 0.58438 0.0
C397 C 0.23248 0.86427 0.59859 0.0
O398 O 0.25998 0.8999 0.62274 0.0
O399 O 0.25857 0.88626 0.65582 0.0
O400 O 0.2783 0.89235 0.56802 0.0
C401 C 0.26027 0.89608 0.65548 0.0
O402 O 0.23063 0.87187 0.61016 0.0
C403 C 0.27878 0.88398 0.57992 0.0
O404 O 0.24182 0.86666 0.58432 0.0
O405 O 0.26974 0.87568 0.59074 0.0
C406 C 0.09781 0.35062 0.51563 0.0
O407 O 0.09732 0.34375 0.54081 0.0
Cd408 Cd 0.10179 0.34659 0.60721 0.0
O409 O 0.10147 0.3608 0.52429 0.0
Cd410 Cd 0.10891 0.37219 0.58478 0.0
C411 C 0.12941 0.36602 0.5981 0.0
O412 O 0.09443 0.35805 0.62318 0.0
O413 O 0.10679 0.37153 0.65636 0.0
O414 O 0.10124 0.38397 0.56649 0.0
C415 C 0.09766 0.3625 0.65583 0.0
O416 O 0.12189 0.35654 0.60969 0.0
C417 C 0.1096 0.39293 0.5778 0.0
O418 O 0.12695 0.37305 0.58475 0.0
O419 O 0.11795 0.39231 0.58898 0.0
C420 C 0.24999 0.35314 0.50608 0.0
O421 O 0.24379 0.34533 0.52886 0.0
Cd422 Cd 0.23984 0.34649 0.59462 0.0
O423 O 0.25532 0.36322 0.51735 0.0
Cd424 Cd 0.25783 0.3728 0.58125 0.0
C425 C 0.23079 0.36547 0.58834 0.0
O426 O 0.25795 0.35807 0.61753 0.0
O427 O 0.25769 0.3706 0.6526 0.0
O428 O 0.27748 0.3854 0.56842 0.0
C429 C 0.25819 0.36178 0.65091 0.0
O430 O 0.22892 0.35578 0.59684 0.0
C431 C 0.2775 0.39395 0.58139 0.0
O432 O 0.24045 0.37308 0.57879 0.0
O433 O 0.2682 0.39279 0.59109 0.0
C434 C 0.6385 0.89574 0.51578 0.0
O435 O 0.64588 0.89818 0.54141 0.0
Cd436 Cd 0.64276 0.89241 0.60662 0.0
O437 O 0.62821 0.89007 0.52409 0.0
Cd438 Cd 0.61733 0.88244 0.58545 0.0
C439 C 0.62611 0.86405 0.59538 0.0
O440 O 0.62978 0.89757 0.62706 0.0
O441 O 0.61827 0.88277 0.65684 0.0
O442 O 0.60478 0.88915 0.56769 0.0
C443 C 0.6257 0.89288 0.65886 0.0
O444 O 0.63518 0.87232 0.60672 0.0
C445 C 0.59605 0.88055 0.57897 0.0
O446 O 0.61822 0.86536 0.58316 0.0
O447 O 0.59712 0.87244 0.59005 0.0
C448 C 0.10078 0.74823 0.51507 0.0
O449 O 0.10011 0.75456 0.54001 0.0
Cd450 Cd 0.1037 0.75571 0.60713 0.0
O451 O 0.10407 0.74146 0.52456 0.0
Cd452 Cd 0.11018 0.73684 0.58678 0.0
C453 C 0.13115 0.7631 0.60323 0.0
O454 O 0.09531 0.73671 0.6225 0.0
O455 O 0.10699 0.73501 0.65784 0.0
O456 O 0.10235 0.71739 0.56788 0.0
C457 C 0.09797 0.73509 0.65564 0.0
O458 O 0.12374 0.76536 0.61362 0.0
C459 C 0.11044 0.71654 0.58065 0.0
O460 O 0.1285 0.7536 0.58951 0.0
O461 O 0.11875 0.72537 0.59295 0.0
C462 C 0.01566 0.58173 0.8051 0.0
O463 O 0.00859 0.5757 0.77986 0.0
Cd464 Cd 0.01161 0.57464 0.71326 0.0
O465 O 0.02581 0.58809 0.79593 0.0
Cd466 Cd 0.03644 0.59231 0.73357 0.0
C467 C 0.03072 0.56601 0.71928 0.0
O468 O 0.0225 0.59354 0.69565 0.0
O469 O 0.03479 0.59231 0.6623 0.0
O470 O 0.04836 0.61185 0.75063 0.0
C471 C 0.02666 0.594 0.66289 0.0
O472 O 0.02126 0.56414 0.70767 0.0
C473 C 0.05721 0.61241 0.73836 0.0
O474 O 0.03765 0.57538 0.7335 0.0
O475 O 0.05651 0.60342 0.72706 0.0
C476 C 0.40995 0.43262 0.80777 0.0
O477 O 0.41544 0.43138 0.78095 0.0
Cd478 Cd 0.41537 0.43476 0.71416 0.0
O479 O 0.40345 0.43641 0.80061 0.0
Cd480 Cd 0.39805 0.4426 0.74003 0.0
C481 C 0.4243 0.46261 0.71848 0.0
O482 O 0.39619 0.42713 0.70339 0.0
O483 O 0.39544 0.43945 0.66881 0.0
O484 O 0.37901 0.43573 0.76179 0.0
C485 C 0.3946 0.42998 0.67056 0.0
O486 O 0.42589 0.45485 0.70676 0.0
C487 C 0.37862 0.44422 0.75049 0.0
O488 O 0.41522 0.46044 0.73447 0.0
O489 O 0.38756 0.45226 0.73773 0.0
C490 C 0.56138 0.97626 0.80542 0.0
O491 O 0.56279 0.9835 0.78035 0.0
Cd492 Cd 0.55819 0.98063 0.71416 0.0
O493 O 0.5569 0.96602 0.79622 0.0
Cd494 Cd 0.54947 0.95536 0.73428 0.0
C495 C 0.53018 0.96303 0.72259 0.0
O496 O 0.5648 0.9686 0.69552 0.0
O497 O 0.55082 0.95683 0.66273 0.0
O498 O 0.55604 0.94254 0.75102 0.0
C499 C 0.56079 0.96463 0.66284 0.0
O500 O 0.53812 0.97226 0.71086 0.0
C501 C 0.5474 0.93392 0.73918 0.0
O502 O 0.53202 0.95557 0.73579 0.0
O503 O 0.53942 0.93519 0.72814 0.0
C504 C 0.1023 0.28384 0.06117 0.0
C505 C 0.10276 0.29387 0.07057 0.0
C506 C 0.11197 0.28313 0.06076 0.0
C507 C 0.14254 0.30146 0.05512 0.0
H508 H 0.14281 0.27435 0.07775 0.0
C509 C 0.17631 0.28576 0.07895 0.0
C510 C 0.18412 0.29255 0.05122 0.0
C511 C 0.16605 0.28528 0.08148 0.0
C512 C 0.14293 0.28203 0.07174 0.0
H513 H 0.11351 0.31079 0.08935 0.0
H514 H 0.13021 0.30944 0.09069 0.0
H515 H 0.12573 0.27489 0.08541 0.0
H516 H 0.18712 0.30363 0.00304 0.0
H517 H 0.16912 0.30238 0.00608 0.0
H518 H 0.15978 0.30881 0.04343 0.0
C519 C 0.12254 0.30224 0.0818 0.0
C520 C 0.13306 0.28229 0.07561 0.0
C521 C 0.11294 0.303 0.08136 0.0
C522 C 0.18132 0.29846 0.0251 0.0
C523 C 0.17102 0.2978 0.02709 0.0
C524 C 0.1524 0.30125 0.0519 0.0
C525 C 0.12226 0.29239 0.07048 0.0
C526 C 0.13273 0.29202 0.06725 0.0
C527 C 0.16333 0.29141 0.05587 0.0
C528 C 0.15273 0.29152 0.05983 0.0
H529 H 0.09454 0.27668 0.05261 0.0
H530 H 0.11141 0.27544 0.05153 0.0
H531 H 0.14263 0.30905 0.04762 0.0
H532 H 0.17827 0.28115 0.09956 0.0
H533 H 0.16043 0.28036 0.10429 0.0
C534 C 0.68703 0.80753 0.04774 0.0
C535 C 0.69633 0.80665 0.05799 0.0
C536 C 0.68743 0.81773 0.04921 0.0
C537 C 0.70651 0.84789 0.04935 0.0
H538 H 0.68096 0.84859 0.0901 0.0
C539 C 0.70521 0.88863 0.07027 0.0
C540 C 0.69535 0.88828 0.05888 0.0
C541 C 0.70584 0.87892 0.07166 0.0
C542 C 0.68812 0.84852 0.07835 0.0
H543 H 0.7134 0.8159 0.07741 0.0
H544 H 0.71406 0.83376 0.08014 0.0
H545 H 0.68117 0.83121 0.08969 0.0
H546 H 0.67846 0.87741 0.03962 0.0
H547 H 0.67961 0.86058 0.04177 0.0
H548 H 0.71341 0.86523 0.03775 0.0
C549 C 0.70649 0.82652 0.07073 0.0
C550 C 0.68824 0.83856 0.07811 0.0
C551 C 0.70609 0.81628 0.06933 0.0
C552 C 0.68617 0.87801 0.04872 0.0
C553 C 0.6868 0.86833 0.05018 0.0
C554 C 0.70639 0.85788 0.04959 0.0
C555 C 0.69713 0.82733 0.06097 0.0
C556 C 0.69736 0.83809 0.06312 0.0
C557 C 0.69662 0.86865 0.06182 0.0
C558 C 0.69712 0.85826 0.0636 0.0
H559 H 0.67939 0.80031 0.03867 0.0
H560 H 0.68014 0.81811 0.04084 0.0
H561 H 0.71362 0.84777 0.03734 0.0
H562 H 0.71243 0.89641 0.07828 0.0
H563 H 0.7135 0.87942 0.081 0.0
C564 C 0.11115 0.81181 0.02442 0.0
C565 C 0.10146 0.80953 0.04442 0.0
C566 C 0.12012 0.82258 0.02271 0.0
C567 C 0.1333 0.84901 0.07422 0.0
H568 H 0.15033 0.85962 0.97965 0.0
C569 C 0.17425 0.89132 0.06336 0.0
C570 C 0.18298 0.89076 0.04516 0.0
C571 C 0.16343 0.8823 0.06182 0.0
C572 C 0.14567 0.85677 0.0063 0.0
H573 H 0.0936 0.81682 0.07809 0.0
H574 H 0.10939 0.83572 0.07519 0.0
H575 H 0.1328 0.84218 0.97935 0.0
H576 H 0.18713 0.88031 0.01076 0.0
H577 H 0.16839 0.86468 0.00825 0.0
H578 H 0.14637 0.86349 0.10137 0.0
C579 C 0.10998 0.82911 0.06093 0.0
C580 C 0.13564 0.84679 0.00612 0.0
C581 C 0.10093 0.81831 0.06243 0.0
C582 C 0.18063 0.88105 0.02512 0.0
C583 C 0.16986 0.8721 0.02339 0.0
C584 C 0.14337 0.85903 0.0744 0.0
C585 C 0.11967 0.83135 0.04105 0.0
C586 C 0.1295 0.84265 0.04029 0.0
C587 C 0.16114 0.87261 0.04175 0.0
C588 C 0.1498 0.86284 0.04065 0.0
H589 H 0.11185 0.80527 0.01019 0.0
H590 H 0.12752 0.824 0.00768 0.0
H591 H 0.12878 0.846 0.10106 0.0
H592 H 0.17577 0.89868 0.07904 0.0
H593 H 0.15686 0.88293 0.07612 0.0
C594 C 0.28534 0.10569 0.9188 0.0
C595 C 0.29493 0.10596 0.93308 0.0
C596 C 0.28467 0.11539 0.9173 0.0
C597 C 0.30247 0.14574 0.91431 0.0
H598 H 0.27622 0.14639 0.94716 0.0
C599 C 0.30312 0.18671 0.94008 0.0
C600 C 0.29402 0.18762 0.92736 0.0
C601 C 0.30271 0.1765 0.93968 0.0
C602 C 0.28356 0.14631 0.93742 0.0
H603 H 0.31121 0.11662 0.95776 0.0
H604 H 0.30999 0.1334 0.9553 0.0
H605 H 0.27636 0.1289 0.94849 0.0
H606 H 0.27731 0.17843 0.90455 0.0
H607 H 0.27665 0.16057 0.90354 0.0
H608 H 0.3097 0.16309 0.9033 0.0
C609 C 0.30306 0.12575 0.94474 0.0
C610 C 0.28364 0.1363 0.9382 0.0
C611 C 0.30373 0.11609 0.94635 0.0
C612 C 0.28446 0.17802 0.91454 0.0
C613 C 0.28406 0.16778 0.91414 0.0
C614 C 0.30239 0.15571 0.91346 0.0
C615 C 0.29358 0.12554 0.92988 0.0
C616 C 0.29316 0.13596 0.92716 0.0
C617 C 0.29322 0.16693 0.92648 0.0
C618 C 0.29299 0.15615 0.9255 0.0
H619 H 0.27841 0.09802 0.90839 0.0
H620 H 0.27728 0.11498 0.90553 0.0
H621 H 0.30986 0.1457 0.90484 0.0
H622 H 0.31059 0.1939 0.9504 0.0
H623 H 0.30983 0.1761 0.95006 0.0
C624 C 0.81574 0.10339 0.92291 0.0
C625 C 0.80712 0.10416 0.94107 0.0
C626 C 0.82664 0.11222 0.92473 0.0
C627 C 0.84488 0.13775 0.9797 0.0
H628 H 0.86118 0.14828 0.88372 0.0
C629 C 0.87925 0.18267 0.95904 0.0
C630 C 0.88875 0.18493 0.93786 0.0
C631 C 0.87033 0.17189 0.96164 0.0
C632 C 0.85683 0.14533 0.91089 0.0
H633 H 0.80327 0.11472 0.97612 0.0
H634 H 0.82218 0.13003 0.97917 0.0
H635 H 0.84359 0.13083 0.8846 0.0
H636 H 0.89636 0.17758 0.90308 0.0
H637 H 0.88066 0.15867 0.90754 0.0
H638 H 0.85793 0.15239 0.00579 0.0
C639 C 0.82055 0.1226 0.96377 0.0
C640 C 0.84676 0.13534 0.9114 0.0
C641 C 0.80968 0.11384 0.96173 0.0
C642 C 0.88915 0.17612 0.91959 0.0
C643 C 0.88016 0.1653 0.92201 0.0
C644 C 0.85493 0.14772 0.9792 0.0
C645 C 0.82914 0.12194 0.94508 0.0
C646 C 0.84053 0.13162 0.94559 0.0
C647 C 0.87066 0.16309 0.94305 0.0
C648 C 0.86085 0.15178 0.94457 0.0
H649 H 0.81404 0.09604 0.90678 0.0
H650 H 0.83311 0.11147 0.91021 0.0
H651 H 0.84037 0.13498 0.00665 0.0
H652 H 0.87864 0.18924 0.97352 0.0
H653 H 0.86305 0.17049 0.97752 0.0
C654 C 0.81521 0.71097 0.92431 0.0
C655 C 0.80625 0.70154 0.94094 0.0
C656 C 0.82592 0.71249 0.92602 0.0
C657 C 0.84295 0.70328 0.97907 0.0
H658 H 0.86027 0.71072 0.88494 0.0
C659 C 0.87755 0.69304 0.95767 0.0
C660 C 0.88733 0.70075 0.93882 0.0
C661 C 0.86853 0.69475 0.9599 0.0
C662 C 0.85563 0.70882 0.91163 0.0
H663 H 0.80155 0.68641 0.97289 0.0
H664 H 0.82011 0.68903 0.97566 0.0
H665 H 0.84285 0.71092 0.88554 0.0
H666 H 0.8953 0.71636 0.90767 0.0
H667 H 0.87944 0.71931 0.91152 0.0
H668 H 0.85555 0.70091 0.00492 0.0
C669 C 0.81892 0.69531 0.96163 0.0
C670 C 0.84565 0.70894 0.91197 0.0
C671 C 0.80825 0.69377 0.95976 0.0
C672 C 0.88789 0.71025 0.92237 0.0
C673 C 0.8788 0.71193 0.92444 0.0
C674 C 0.85289 0.70316 0.97872 0.0
C675 C 0.82787 0.70466 0.94466 0.0
C676 C 0.83908 0.70589 0.94545 0.0
C677 C 0.86903 0.70419 0.94326 0.0
C678 C 0.8592 0.70566 0.94474 0.0
H679 H 0.81395 0.71712 0.90962 0.0
H680 H 0.83267 0.7198 0.91287 0.0
H681 H 0.83817 0.70112 0.00553 0.0
H682 H 0.87682 0.68563 0.97067 0.0
H683 H 0.86106 0.68854 0.97405 0.0
C684 C 0.84188 0.61783 0.39978 0.0
C685 C 0.85096 0.62714 0.38305 0.0
C686 C 0.83128 0.61659 0.39822 0.0
C687 C 0.81473 0.62627 0.34473 0.0
H688 H 0.79701 0.61868 0.43796 0.0
C689 C 0.77972 0.63611 0.36348 0.0
C690 C 0.76989 0.62829 0.38177 0.0
C691 C 0.78886 0.63458 0.36208 0.0
C692 C 0.80178 0.62063 0.41153 0.0
H693 H 0.85598 0.64238 0.35133 0.0
H694 H 0.83761 0.64023 0.34887 0.0
H695 H 0.81441 0.61841 0.43823 0.0
H696 H 0.76197 0.61267 0.41284 0.0
H697 H 0.77802 0.61001 0.41038 0.0
H698 H 0.80226 0.62873 0.31822 0.0
C699 C 0.83863 0.63383 0.36281 0.0
C700 C 0.81173 0.62047 0.41168 0.0
C701 C 0.84919 0.6351 0.3645 0.0
C702 C 0.76941 0.61886 0.39854 0.0
C703 C 0.77861 0.61735 0.39729 0.0
C704 C 0.8048 0.62643 0.34458 0.0
C705 C 0.82955 0.62458 0.37966 0.0
C706 C 0.81843 0.62354 0.37851 0.0
C707 C 0.78843 0.6252 0.379 0.0
C708 C 0.79834 0.62386 0.3782 0.0
H709 H 0.84296 0.61154 0.41426 0.0
H710 H 0.82443 0.60934 0.41128 0.0
H711 H 0.81959 0.62845 0.31848 0.0
H712 H 0.7804 0.64348 0.3503 0.0
H713 H 0.79636 0.64087 0.34832 0.0
C714 C 0.35462 0.14117 0.37467 0.0
C715 C 0.36348 0.13998 0.38821 0.0
C716 C 0.35516 0.15144 0.37596 0.0
C717 C 0.37427 0.1815 0.38222 0.0
H718 H 0.34787 0.18178 0.41576 0.0
C719 C 0.37235 0.22198 0.4033 0.0
C720 C 0.3627 0.2217 0.38965 0.0
C721 C 0.37305 0.21229 0.40439 0.0
C722 C 0.35528 0.18184 0.40601 0.0
H723 H 0.37998 0.14876 0.41301 0.0
H724 H 0.38088 0.16675 0.41534 0.0
H725 H 0.34806 0.16441 0.4152 0.0
H726 H 0.34632 0.21103 0.36574 0.0
H727 H 0.34759 0.19428 0.36733 0.0
H728 H 0.38144 0.19897 0.37271 0.0
C729 C 0.37354 0.1597 0.4036 0.0
C730 C 0.35539 0.17189 0.4057 0.0
C731 C 0.373 0.14938 0.4024 0.0
C732 C 0.35385 0.21156 0.37671 0.0
C733 C 0.35455 0.20192 0.37782 0.0
C734 C 0.37416 0.1915 0.38249 0.0
C735 C 0.36456 0.16079 0.3908 0.0
C736 C 0.36482 0.17156 0.39325 0.0
C737 C 0.36411 0.20214 0.39195 0.0
C738 C 0.36459 0.19174 0.39384 0.0
H739 H 0.34718 0.13415 0.36329 0.0
H740 H 0.34818 0.15205 0.36519 0.0
H741 H 0.38163 0.1815 0.37227 0.0
H742 H 0.37933 0.22965 0.41346 0.0
H743 H 0.3805 0.21271 0.41563 0.0
C744 C 0.84919 0.20994 0.37485 0.0
C745 C 0.85058 0.22016 0.38738 0.0
C746 C 0.83884 0.20035 0.37649 0.0
C747 C 0.80892 0.19009 0.38153 0.0
H748 H 0.80796 0.16313 0.41616 0.0
C749 C 0.76804 0.14798 0.40122 0.0
C750 C 0.76825 0.13858 0.38738 0.0
C751 C 0.77778 0.1583 0.40274 0.0
C752 C 0.80809 0.17056 0.40615 0.0
H753 H 0.84207 0.22832 0.4109 0.0
H754 H 0.82392 0.21147 0.41389 0.0
H755 H 0.82549 0.1805 0.41625 0.0
H756 H 0.77883 0.13275 0.36355 0.0
H757 H 0.79568 0.15066 0.36599 0.0
H758 H 0.79147 0.18004 0.37114 0.0
C759 C 0.83089 0.21095 0.40263 0.0
C760 C 0.81814 0.18052 0.4062 0.0
C761 C 0.84129 0.22058 0.40106 0.0
C762 C 0.77835 0.13977 0.37462 0.0
C763 C 0.78805 0.15004 0.37623 0.0
C764 C 0.79883 0.18009 0.38149 0.0
C765 C 0.82959 0.20071 0.39072 0.0
C766 C 0.81871 0.19036 0.39324 0.0
C767 C 0.7879 0.1594 0.39062 0.0
C768 C 0.79836 0.17019 0.39316 0.0
H769 H 0.85612 0.20929 0.36389 0.0
H770 H 0.83808 0.19264 0.36638 0.0
H771 H 0.80911 0.19752 0.37119 0.0
H772 H 0.76039 0.14736 0.41124 0.0
H773 H 0.77742 0.16536 0.41413 0.0
C774 C 0.96249 0.51489 0.29449 0.0
C775 C 0.95526 0.51728 0.27376 0.0
C776 C 0.96063 0.50409 0.29625 0.0
C777 C 0.9476 0.47774 0.24429 0.0
H778 H 0.95306 0.4668 0.34006 0.0
C779 C 0.94599 0.43531 0.25577 0.0
C780 C 0.95512 0.4358 0.27496 0.0
C781 C 0.94414 0.44431 0.2572 0.0
C782 C 0.95152 0.46974 0.31309 0.0
H783 H 0.94035 0.51015 0.23874 0.0
H784 H 0.93715 0.4912 0.24169 0.0
H785 H 0.95318 0.48437 0.33963 0.0
H786 H 0.96935 0.44605 0.31125 0.0
H787 H 0.96615 0.46164 0.31356 0.0
H788 H 0.94626 0.46324 0.21755 0.0
C789 C 0.94426 0.49775 0.2565 0.0
C790 C 0.95159 0.47979 0.31284 0.0
C791 C 0.94608 0.50858 0.25495 0.0
C792 C 0.96224 0.44538 0.29608 0.0
C793 C 0.96035 0.4543 0.2977 0.0
C794 C 0.94754 0.46766 0.24452 0.0
C795 C 0.95152 0.4954 0.27723 0.0
C796 C 0.94994 0.48405 0.27826 0.0
C797 C 0.95133 0.45391 0.27816 0.0
C798 C 0.94981 0.46372 0.27874 0.0
H799 H 0.96964 0.52137 0.30934 0.0
H800 H 0.96647 0.50258 0.31194 0.0
H801 H 0.94636 0.48084 0.21716 0.0
H802 H 0.94036 0.42805 0.23925 0.0
H803 H 0.93709 0.44376 0.24201 0.0
C804 C 0.55707 0.51202 0.25573 0.0
C805 C 0.55677 0.52141 0.26911 0.0
C806 C 0.54745 0.50159 0.25555 0.0
C807 C 0.51712 0.48901 0.25444 0.0
H808 H 0.51642 0.46232 0.29088 0.0
C809 C 0.4763 0.45023 0.29091 0.0
C810 C 0.47455 0.43994 0.27764 0.0
C811 C 0.48676 0.45965 0.28882 0.0
C812 C 0.51653 0.46969 0.28017 0.0
H813 H 0.54617 0.5271 0.29387 0.0
H814 H 0.52954 0.50901 0.29375 0.0
H815 H 0.53406 0.47985 0.28888 0.0
H816 H 0.48257 0.43143 0.25293 0.0
H817 H 0.50095 0.44802 0.24924 0.0
H818 H 0.49966 0.47899 0.24608 0.0
C819 C 0.53715 0.50971 0.28278 0.0
C820 C 0.52661 0.4797 0.27902 0.0
C821 C 0.54671 0.52009 0.28304 0.0
C822 C 0.48363 0.43923 0.26332 0.0
C823 C 0.49415 0.44871 0.26129 0.0
C824 C 0.5071 0.47905 0.2556 0.0
C825 C 0.53736 0.50037 0.26858 0.0
C826 C 0.52695 0.48951 0.26691 0.0
C827 C 0.49576 0.45905 0.27339 0.0
C828 C 0.50664 0.46933 0.26925 0.0
H829 H 0.56469 0.51275 0.24487 0.0
H830 H 0.54785 0.49453 0.24436 0.0
H831 H 0.51715 0.49636 0.24404 0.0
H832 H 0.46956 0.45109 0.30249 0.0
H833 H 0.48778 0.46745 0.29916 0.0
C834 C 0.54302 0.02354 0.27085 0.0
C835 C 0.55336 0.03254 0.26035 0.0
C836 C 0.53343 0.02426 0.26783 0.0
C837 C 0.52318 0.04392 0.26411 0.0
H838 H 0.49657 0.01834 0.22533 0.0
C839 C 0.48103 0.04272 0.24714 0.0
C840 C 0.47171 0.03294 0.26023 0.0
C841 C 0.49135 0.04335 0.24423 0.0
C842 C 0.50391 0.02553 0.23643 0.0
H843 H 0.56171 0.04943 0.23876 0.0
H844 H 0.54485 0.05067 0.23352 0.0
H845 H 0.51399 0.01826 0.22544 0.0
H846 H 0.46599 0.01621 0.28082 0.0
H847 H 0.4839 0.01735 0.27597 0.0
H848 H 0.51299 0.05111 0.27565 0.0
C849 C 0.54424 0.04307 0.24421 0.0
C850 C 0.51389 0.02548 0.23649 0.0
C851 C 0.55388 0.04234 0.24708 0.0
C852 C 0.47296 0.02386 0.27048 0.0
C853 C 0.48322 0.02448 0.26745 0.0
C854 C 0.51316 0.04397 0.26407 0.0
C855 C 0.53391 0.034 0.2543 0.0
C856 C 0.52359 0.03457 0.25107 0.0
C857 C 0.49253 0.03419 0.25412 0.0
C858 C 0.50338 0.03467 0.25097 0.0
H859 H 0.5423 0.01587 0.28132 0.0
H860 H 0.52562 0.01719 0.2765 0.0
H861 H 0.5305 0.05103 0.27572 0.0
H862 H 0.48036 0.04987 0.23901 0.0
H863 H 0.49836 0.05093 0.2337 0.0
C864 C 0.43684 0.95191 0.73904 0.0
C865 C 0.43744 0.9614 0.72228 0.0
C866 C 0.44593 0.95021 0.73739 0.0
C867 C 0.47184 0.95887 0.68339 0.0
H868 H 0.48204 0.95149 0.77704 0.0
C869 C 0.5166 0.96883 0.70241 0.0
C870 C 0.51872 0.96109 0.72084 0.0
C871 C 0.5059 0.96719 0.70092 0.0
C872 C 0.47919 0.95336 0.75049 0.0
H873 H 0.44803 0.97649 0.69039 0.0
H874 H 0.46377 0.97355 0.6877 0.0
H875 H 0.46452 0.95154 0.77736 0.0
H876 H 0.5112 0.94549 0.7521 0.0
H877 H 0.49241 0.94266 0.74956 0.0
H878 H 0.4866 0.96098 0.65675 0.0
C879 C 0.45627 0.96736 0.70177 0.0
C880 C 0.46916 0.95339 0.75068 0.0
C881 C 0.44726 0.96908 0.7036 0.0
C882 C 0.50985 0.95162 0.73767 0.0
C883 C 0.4991 0.95001 0.73636 0.0
C884 C 0.48183 0.95885 0.68321 0.0
C885 C 0.45573 0.95792 0.71865 0.0
C886 C 0.46555 0.95644 0.71738 0.0
C887 C 0.49703 0.95778 0.7179 0.0
C888 C 0.48576 0.95639 0.71701 0.0
H889 H 0.42939 0.94583 0.75366 0.0
H890 H 0.44526 0.94284 0.75053 0.0
H891 H 0.46915 0.96102 0.65706 0.0
H892 H 0.52323 0.97622 0.68916 0.0
H893 H 0.5046 0.97343 0.68704 0.0
C894 C 0.02673 0.5475 0.69474 0.0
C895 C 0.03355 0.55711 0.7162 0.0
C896 C 0.02915 0.53895 0.69226 0.0
C897 C 0.0427 0.52626 0.74422 0.0
H898 H 0.03798 0.51022 0.64803 0.0
C899 C 0.0439 0.48525 0.73399 0.0
C900 C 0.03469 0.4767 0.71482 0.0
C901 C 0.04608 0.4962 0.7319 0.0
C902 C 0.03935 0.51463 0.6751 0.0
H903 H 0.04836 0.5653 0.75163 0.0
H904 H 0.05252 0.5502 0.74755 0.0
H905 H 0.03762 0.52755 0.64854 0.0
H906 H 0.02072 0.47303 0.67758 0.0
H907 H 0.02448 0.49199 0.67409 0.0
H908 H 0.04401 0.51309 0.77102 0.0
C909 C 0.04531 0.54936 0.73265 0.0
C910 C 0.03914 0.52454 0.67538 0.0
C911 C 0.04293 0.55801 0.73487 0.0
C912 C 0.02787 0.47938 0.69281 0.0
C913 C 0.03009 0.49029 0.6905 0.0
C914 C 0.0429 0.51631 0.74395 0.0
C915 C 0.03842 0.53974 0.71134 0.0
C916 C 0.04045 0.53027 0.71014 0.0
C917 C 0.03915 0.49881 0.71024 0.0
C918 C 0.04085 0.51021 0.70958 0.0
H919 H 0.01945 0.54654 0.67993 0.0
H920 H 0.02359 0.53157 0.67612 0.0
H921 H 0.04369 0.53048 0.77148 0.0
H922 H 0.04932 0.48345 0.75116 0.0
H923 H 0.05315 0.50262 0.74729 0.0
C924 C 0.44264 0.47671 0.69162 0.0
C925 C 0.43326 0.47426 0.71384 0.0
C926 C 0.45131 0.4876 0.68807 0.0
C927 C 0.46466 0.51418 0.73828 0.0
H928 H 0.48051 0.52461 0.64142 0.0
C929 C 0.506 0.55585 0.72531 0.0
C930 C 0.51442 0.55482 0.70676 0.0
C931 C 0.49498 0.54722 0.7235 0.0
C932 C 0.47616 0.52183 0.66866 0.0
H933 H 0.42556 0.48138 0.74934 0.0
H934 H 0.44083 0.50048 0.74329 0.0
H935 H 0.46301 0.50714 0.64316 0.0
H936 H 0.51781 0.5441 0.67074 0.0
H937 H 0.49873 0.52918 0.66767 0.0
H938 H 0.47804 0.52869 0.76401 0.0
C939 C 0.44142 0.49391 0.72869 0.0
C940 C 0.46615 0.51183 0.66966 0.0
C941 C 0.43268 0.48299 0.73203 0.0
C942 C 0.51155 0.54516 0.68549 0.0
C943 C 0.50058 0.53663 0.68343 0.0
C944 C 0.4747 0.5242 0.73728 0.0
C945 C 0.45084 0.49631 0.70677 0.0
C946 C 0.46048 0.50772 0.7047 0.0
C947 C 0.49218 0.5375 0.70272 0.0
C948 C 0.48072 0.52794 0.70268 0.0
H949 H 0.44336 0.47021 0.67716 0.0
H950 H 0.45852 0.48915 0.67148 0.0
H951 H 0.46051 0.51119 0.76576 0.0
H952 H 0.50794 0.56319 0.74192 0.0
H953 H 0.48867 0.54813 0.73851 0.0
C954 C 0.61523 0.84352 0.58254 0.0
C955 C 0.6248 0.85282 0.59696 0.0
C956 C 0.6141 0.83296 0.58442 0.0
C957 C 0.62486 0.81711 0.63626 0.0
H958 H 0.61534 0.79807 0.54598 0.0
C959 C 0.63409 0.78165 0.61797 0.0
C960 C 0.62592 0.77158 0.60194 0.0
C961 C 0.63263 0.79085 0.61899 0.0
C962 C 0.61784 0.80321 0.57164 0.0
H963 H 0.64069 0.85827 0.62466 0.0
H964 H 0.63873 0.83995 0.62768 0.0
H965 H 0.61513 0.81552 0.54472 0.0
H966 H 0.60975 0.76329 0.57452 0.0
H967 H 0.60722 0.77945 0.57634 0.0
H968 H 0.62778 0.80495 0.66297 0.0
C969 C 0.63203 0.84078 0.61534 0.0
C970 C 0.61772 0.8132 0.57091 0.0
C971 C 0.63319 0.85131 0.61331 0.0
C972 C 0.61621 0.77092 0.58705 0.0
C973 C 0.61478 0.78018 0.58793 0.0
C974 C 0.62498 0.80715 0.637 0.0
C975 C 0.62248 0.83148 0.601 0.0
C976 C 0.62147 0.82037 0.60293 0.0
C977 C 0.62298 0.79024 0.60397 0.0
C978 C 0.62171 0.80021 0.60441 0.0
H979 H 0.60861 0.8444 0.56979 0.0
H980 H 0.60661 0.82594 0.5733 0.0
H981 H 0.62758 0.82234 0.66169 0.0
H982 H 0.64167 0.78247 0.62966 0.0
H983 H 0.63919 0.79853 0.63097 0.0
C984 C 0.14586 0.78139 0.62827 0.0
C985 C 0.14294 0.77177 0.60668 0.0
C986 C 0.15685 0.78988 0.63036 0.0
C987 C 0.18266 0.80243 0.57634 0.0
H988 H 0.19436 0.81914 0.67112 0.0
C989 C 0.22443 0.84401 0.58338 0.0
C990 C 0.22359 0.85255 0.60194 0.0
C991 C 0.21581 0.833 0.58603 0.0
C992 C 0.19122 0.81454 0.64446 0.0
H993 H 0.14932 0.76343 0.57089 0.0
H994 H 0.16863 0.77844 0.57429 0.0
H995 H 0.17694 0.80158 0.67247 0.0
H996 H 0.21315 0.85619 0.63843 0.0
H997 H 0.19822 0.83711 0.64299 0.0
H998 H 0.19676 0.81564 0.54813 0.0
C999 C 0.16234 0.77934 0.58957 0.0
C1000 C 0.18126 0.8045 0.64523 0.0
C1001 C 0.15131 0.77075 0.58776 0.0
C1002 C 0.21406 0.84983 0.62369 0.0
C1003 C 0.20554 0.83887 0.62661 0.0
C1004 C 0.19265 0.81251 0.57558 0.0
C1005 C 0.1652 0.78901 0.61077 0.0
C1006 C 0.17668 0.79853 0.61097 0.0
C1007 C 0.20628 0.83034 0.60769 0.0
C1008 C 0.19681 0.81884 0.60942 0.0
H1009 H 0.13963 0.78244 0.64331 0.0
H1010 H 0.15875 0.7973 0.64642 0.0
H1011 H 0.17929 0.79804 0.54945 0.0
H1012 H 0.23167 0.84584 0.5664 0.0
H1013 H 0.2166 0.82658 0.57122 0.0
C1014 C 0.21169 0.36039 0.60912 0.0
C1015 C 0.22161 0.3679 0.59059 0.0
C1016 C 0.20302 0.36263 0.61201 0.0
C1017 C 0.19064 0.37723 0.56585 0.0
H1018 H 0.17454 0.37095 0.66247 0.0
C1019 C 0.14959 0.37818 0.58177 0.0
C1020 C 0.1411 0.36871 0.59997 0.0
C1021 C 0.16053 0.38031 0.58261 0.0
C1022 C 0.17895 0.37275 0.6353 0.0
H1023 H 0.23017 0.38362 0.56026 0.0
H1024 H 0.21483 0.38742 0.56485 0.0
H1025 H 0.1918 0.37054 0.65984 0.0
H1026 H 0.13751 0.35418 0.634 0.0
H1027 H 0.15642 0.35786 0.63528 0.0
H1028 H 0.17751 0.37898 0.54094 0.0
C1029 C 0.21387 0.37985 0.57729 0.0
C1030 C 0.18882 0.37252 0.63382 0.0
C1031 C 0.22264 0.37768 0.57478 0.0
C1032 C 0.14382 0.36155 0.6196 0.0
C1033 C 0.1547 0.36371 0.62066 0.0
C1034 C 0.1807 0.37742 0.56729 0.0
C1035 C 0.20402 0.37237 0.59618 0.0
C1036 C 0.19457 0.3744 0.59882 0.0
C1037 C 0.16318 0.37307 0.60205 0.0
C1038 C 0.17457 0.3748 0.60176 0.0
H1039 H 0.21061 0.35279 0.62167 0.0
H1040 H 0.19545 0.35662 0.6262 0.0
H1041 H 0.19491 0.37868 0.53848 0.0
H1042 H 0.14776 0.38386 0.56639 0.0
H1043 H 0.16691 0.38761 0.56811 0.0
C1044 C 0.03539 0.24605 0.03395 0.0
C1045 C 0.03544 0.25382 0.06002 0.0
C1046 C 0.02544 0.23781 0.01797 0.0
C1047 C 0.99484 0.22419 0.02416 0.0
H1048 H -0.00385 0.22687 0.91247 0.0
C1049 C 0.96463 0.224 0.90219 0.0
C1050 C 0.95465 0.21463 0.9132 0.0
C1051 C 0.97474 0.22551 0.91575 0.0
C1052 C -0.00433 0.2259 0.94357 0.0
H1053 H 0.02505 0.25837 0.0927 0.0
H1054 H 0.0077 0.24392 0.06532 0.0
H1055 H 0.01328 0.23516 0.94995 0.0
H1056 H 0.94748 0.19898 0.94403 0.0
H1057 H 0.96514 0.20167 0.96785 0.0
H1058 H 0.97722 0.21549 0.01795 0.0
C1059 C 0.01534 0.24422 0.05696 0.0
C1060 C 0.00547 0.23056 0.96504 0.0
C1061 C 0.02528 0.25253 0.07258 0.0
C1062 C 0.95503 0.20633 0.93516 0.0
C1063 C 0.96513 0.20789 0.94902 0.0
C1064 C 0.98504 0.21944 0.00267 0.0
C1065 C 0.01536 0.23709 0.02824 0.0
C1066 C 0.00514 0.23011 0.00564 0.0
C1067 C 0.97504 0.2177 0.94076 0.0
C1068 C 0.98535 0.22061 0.96225 0.0
H1069 H 0.04308 0.24681 0.02372 0.0
H1070 H 0.02568 0.23235 -0.0038 0.0
H1071 H 0.99435 0.22366 0.05538 0.0
H1072 H 0.96462 0.23053 0.88522 0.0
H1073 H 0.98223 0.23319 0.909 0.0
C1074 C 0.78568 0.74756 0.94459 0.0
C1075 C 0.77755 0.7391 0.92145 0.0
C1076 C 0.78419 0.75619 0.95805 0.0
C1077 C 0.76664 0.76927 0.9493 0.0
H1078 H 0.76827 0.77037 0.06122 0.0
C1079 C 0.74576 0.78886 0.0353 0.0
C1080 C 0.73801 0.78125 0.06162 0.0
C1081 C 0.75416 0.7872 0.02047 0.0
C1082 C 0.7679 0.77028 0.02996 0.0
H1083 H 0.76205 0.73364 0.89123 0.0
H1084 H 0.75948 0.7487 0.91444 0.0
H1085 H 0.77646 0.76117 0.02544 0.0
H1086 H 0.73365 0.76662 0.09598 0.0
H1087 H 0.74831 0.7638 0.0705 0.0
H1088 H 0.75747 0.77777 0.95397 0.0
C1089 C 0.76699 0.74868 0.92234 0.0
C1090 C 0.77267 0.76509 0.0094 0.0
C1091 C 0.76844 0.74 0.90913 0.0
C1092 C 0.73946 0.7726 0.07562 0.0
C1093 C 0.74791 0.77101 0.06109 0.0
C1094 C 0.76192 0.77452 0.96986 0.0
C1095 C 0.7746 0.75659 0.9483 0.0
C1096 C 0.77172 0.76415 0.96894 0.0
C1097 C 0.75503 0.77799 0.03206 0.0
C1098 C 0.76213 0.7747 0.01048 0.0
H1099 H 0.79283 0.74713 0.95448 0.0
H1100 H 0.79026 0.76226 0.9776 0.0
H1101 H 0.76586 0.76876 0.91814 0.0
H1102 H 0.74488 0.79563 0.02399 0.0
H1103 H 0.75961 0.7928 -0.0015 0.0
C1104 C 0.22272 0.96715 0.07458 0.0
C1105 C 0.21342 0.95726 0.06242 0.0
C1106 C 0.22456 0.97736 0.06079 0.0
C1107 C 0.2255 -0.00144 0.0326 0.0
H1108 H 0.22469 -0.00213 0.92056 0.0
C1109 C 0.24678 0.03886 0.9456 0.0
C1110 C 0.25487 0.03907 0.92078 0.0
C1111 C 0.23834 0.02879 0.96013 0.0
C1112 C 0.22482 -0.00182 0.95183 0.0
H1113 H 0.19823 0.95037 0.02897 0.0
H1114 H 0.2015 0.96822 0.00472 0.0
H1115 H 0.21602 0.98051 0.95678 0.0
H1116 H 0.25979 0.02887 0.88863 0.0
H1117 H 0.24498 0.01134 0.91348 0.0
H1118 H 0.23484 0.01622 0.02759 0.0
C1119 C 0.2074 0.96805 0.02469 0.0
C1120 C 0.21979 0.98825 0.97262 0.0
C1121 C 0.20551 0.95784 0.0388 0.0
C1122 C 0.25371 0.02898 0.9078 0.0
C1123 C 0.24519 0.01892 0.92198 0.0
C1124 C 0.23044 0.00849 0.01182 0.0
C1125 C 0.21716 0.97787 0.03435 0.0
C1126 C 0.22043 0.98833 0.01318 0.0
C1127 C 0.23773 0.01876 0.94966 0.0
C1128 C 0.2305 0.00839 0.97119 0.0
H1129 H 0.22895 0.96698 0.09282 0.0
H1130 H 0.23218 0.98478 0.06864 0.0
H1131 H 0.22606 -0.00114 0.06383 0.0
H1132 H 0.24744 0.04649 0.9561 0.0
H1133 H 0.23262 0.02889 0.98106 0.0
C1134 C 0.96363 0.73888 0.91072 0.0
C1135 C 0.95358 0.73793 0.92287 0.0
C1136 C 0.97368 0.74734 0.92515 0.0
C1137 C 0.98403 0.76241 0.01451 0.0
H1138 H 0.01206 0.77663 0.96011 0.0
C1139 C 0.03457 0.78745 0.04224 0.0
C1140 C 0.03516 0.77957 0.06608 0.0
C1141 C 0.02437 0.78553 0.02805 0.0
C1142 C 0.0043 0.77292 0.97575 0.0
H1143 H 0.94623 0.74566 0.95704 0.0
H1144 H 0.96381 0.76038 0.98246 0.0
H1145 H 0.99479 0.76783 0.92348 0.0
H1146 H 0.02544 0.76412 0.09696 0.0
H1147 H 0.00766 0.76085 0.07262 0.0
H1148 H 0.99356 0.76697 0.06677 0.0
C1149 C 0.96389 0.75454 0.96196 0.0
C1150 C 0.99442 0.76781 0.95473 0.0
C1151 C 0.95384 0.74614 0.94719 0.0
C1152 C 0.02527 0.77032 0.07853 0.0
C1153 C 0.01507 0.76846 0.06465 0.0
C1154 C 0.99392 0.76742 0.03553 0.0
C1155 C 0.97387 0.75496 0.95224 0.0
C1156 C 0.9842 0.76221 0.9739 0.0
C1157 C 0.01457 0.77579 0.03785 0.0
C1158 C 0.00415 0.77243 0.01634 0.0
H1159 H 0.9637 0.73269 0.89196 0.0
H1160 H 0.98123 0.74741 0.91724 0.0
H1161 H 0.97628 0.75807 0.03011 0.0
H1162 H 0.04204 0.79469 0.03222 0.0
H1163 H 0.02421 0.79139 0.00783 0.0
C1164 C 0.24404 0.20436 0.94735 0.0
C1165 C 0.25186 0.21228 0.92196 0.0
C1166 C 0.23543 0.20568 0.96208 0.0
C1167 C 0.22123 0.2222 0.95378 0.0
H1168 H 0.2229 0.22309 0.06569 0.0
C1169 C 0.20318 0.24446 0.03992 0.0
C1170 C 0.21133 0.25289 0.06309 0.0
C1171 C 0.20463 0.2358 0.02641 0.0
C1172 C 0.22221 0.22274 0.0345 0.0
H1173 H 0.25615 0.22713 0.88907 0.0
H1174 H 0.24111 0.22938 0.91436 0.0
H1175 H 0.23158 0.21446 0.02932 0.0
H1176 H 0.22678 0.25824 0.0935 0.0
H1177 H 0.22927 0.24314 0.07025 0.0
H1178 H 0.21249 0.23112 0.95884 0.0
C1179 C 0.24162 0.22218 0.92312 0.0
C1180 C 0.2271 0.21771 0.01363 0.0
C1181 C 0.25028 0.22092 0.90871 0.0
C1182 C 0.22038 0.2519 0.07555 0.0
C1183 C 0.22178 0.24321 0.06232 0.0
C1184 C 0.21629 0.22716 0.97465 0.0
C1185 C 0.23441 0.21486 0.95129 0.0
C1186 C 0.22705 0.2178 0.973 0.0
C1187 C 0.21418 0.23536 0.03618 0.0
C1188 C 0.21712 0.22789 0.01516 0.0
H1189 H 0.24502 0.19759 0.95806 0.0
H1190 H 0.22991 0.19984 0.9834 0.0
H1191 H 0.22099 0.2223 0.92252 0.0
H1192 H 0.19607 0.24495 0.02992 0.0
H1193 H 0.19856 0.22978 0.00672 0.0
C1194 C 0.76664 0.02819 0.90897 0.0
C1195 C 0.77595 0.03808 0.92117 0.0
C1196 C 0.76491 0.01796 0.92217 0.0
C1197 C 0.76419 0.99674 0.94847 0.0
H1198 H 0.76574 0.99698 0.0604 0.0
C1199 C 0.74375 0.95608 0.03384 0.0
C1200 C 0.73588 0.95574 0.06004 0.0
C1201 C 0.75201 0.96622 0.01906 0.0
C1202 C 0.7654 0.99679 0.02913 0.0
H1203 H 0.79123 0.04495 0.95408 0.0
H1204 H 0.78815 0.02706 0.97723 0.0
H1205 H 0.77403 0.01448 0.0251 0.0
H1206 H 0.73114 0.96575 0.09418 0.0
H1207 H 0.74561 0.98341 0.06889 0.0
H1208 H 0.75501 0.97906 0.95266 0.0
C1209 C 0.78215 0.02725 0.95775 0.0
C1210 C 0.77022 0.0068 0.00886 0.0
C1211 C 0.78394 0.03748 0.94428 0.0
C1212 C 0.73706 0.96575 0.07393 0.0
C1213 C 0.74539 0.97588 0.05951 0.0
C1214 C 0.75945 0.98673 0.96873 0.0
C1215 C 0.77242 0.01742 0.94801 0.0
C1216 C 0.76932 0.00689 0.9684 0.0
C1217 C 0.75263 0.97619 0.03066 0.0
C1218 C 0.75966 0.98666 0.00935 0.0
H1219 H 0.76035 0.02838 0.89111 0.0
H1220 H 0.75729 0.01054 0.9143 0.0
H1221 H 0.76345 0.99656 0.9173 0.0
H1222 H 0.74306 0.94851 0.02258 0.0
H1223 H 0.75756 0.96623 -0.00282 0.0
C1224 C 0.62365 0.54045 0.2751 0.0
C1225 C 0.62339 0.54838 0.25062 0.0
C1226 C 0.63371 0.54213 0.28991 0.0
C1227 C 0.66431 0.55985 0.28394 0.0
H1228 H 0.66283 0.55976 0.39587 0.0
C1229 C 0.69376 0.5889 0.40938 0.0
C1230 C 0.70394 0.59006 0.39781 0.0
C1231 C 0.68383 0.58026 0.39483 0.0
C1232 C 0.66337 0.55969 0.36466 0.0
H1233 H 0.63352 0.56363 0.21912 0.0
H1234 H 0.65104 0.5665 0.24457 0.0
H1235 H 0.64576 0.55091 0.35816 0.0
H1236 H 0.71164 0.58248 0.36476 0.0
H1237 H 0.69428 0.56744 0.3392 0.0
H1238 H 0.68191 0.56921 0.29043 0.0
C1239 C 0.6435 0.55903 0.25259 0.0
C1240 C 0.6536 0.55455 0.34303 0.0
C1241 C 0.63344 0.5574 0.23806 0.0
C1242 C 0.70394 0.58185 0.37412 0.0
C1243 C 0.69401 0.57327 0.35926 0.0
C1244 C 0.67408 0.56492 0.30558 0.0
C1245 C 0.64369 0.5517 0.28012 0.0
C1246 C 0.65397 0.55494 0.30242 0.0
C1247 C 0.68389 0.57266 0.36823 0.0
C1248 C 0.6737 0.56525 0.34614 0.0
H1249 H 0.61605 0.53338 0.28521 0.0
H1250 H 0.63363 0.53627 0.31066 0.0
H1251 H 0.66484 0.56022 0.25271 0.0
H1252 H 0.69349 0.59507 0.42767 0.0
H1253 H 0.67618 0.58006 0.40217 0.0
C1254 C 0.43616 0.07466 0.24592 0.0
C1255 C 0.44508 0.07348 0.25863 0.0
C1256 C 0.43466 0.0832 0.26025 0.0
C1257 C 0.43931 0.09814 0.35006 0.0
H1258 H 0.4251 0.11202 0.29564 0.0
C1259 C 0.41231 0.12174 0.37745 0.0
C1260 C 0.40409 0.11368 0.40143 0.0
C1261 C 0.42089 0.12029 0.36333 0.0
C1262 C 0.42928 0.10842 0.31131 0.0
H1263 H 0.45999 0.0809 0.29364 0.0
H1264 H 0.45732 0.09579 0.31883 0.0
H1265 H 0.43391 0.10355 0.25905 0.0
H1266 H 0.39907 0.09839 0.43259 0.0
H1267 H 0.41407 0.09591 0.40835 0.0
H1268 H 0.43418 0.10251 0.4023 0.0
C1269 C 0.45145 0.09005 0.29801 0.0
C1270 C 0.43423 0.10349 0.2903 0.0
C1271 C 0.45301 0.08157 0.28336 0.0
C1272 C 0.40525 0.10472 0.41404 0.0
C1273 C 0.41388 0.10332 0.40022 0.0
C1274 C 0.43429 0.10301 0.37107 0.0
C1275 C 0.44202 0.09068 0.28779 0.0
C1276 C 0.43895 0.09796 0.30944 0.0
C1277 C 0.42149 0.11082 0.37332 0.0
C1278 C 0.42887 0.10785 0.35189 0.0
H1279 H 0.42993 0.06858 0.22681 0.0
H1280 H 0.42728 0.08342 0.25194 0.0
H1281 H 0.44281 0.09387 0.36569 0.0
H1282 H 0.41167 0.12876 0.36728 0.0
H1283 H 0.42673 0.12627 0.34304 0.0
C1284 C 0.87044 0.28763 0.36729 0.0
C1285 C 0.87808 0.28731 0.39305 0.0
C1286 C 0.87222 0.29774 0.35255 0.0
C1287 C 0.88931 0.32831 0.36188 0.0
H1288 H 0.89079 0.32789 0.25002 0.0
C1289 C 0.91927 0.35955 0.24178 0.0
C1290 C 0.91976 0.36944 0.25356 0.0
C1291 C 0.91078 0.34932 0.25491 0.0
C1292 C 0.89028 0.32812 0.28119 0.0
H1293 H 0.89295 0.29737 0.42652 0.0
H1294 H 0.89598 0.31499 0.40129 0.0
H1295 H 0.88188 0.31045 0.28575 0.0
H1296 H 0.9112 0.3763 0.28559 0.0
H1297 H 0.89643 0.35842 0.30872 0.0
H1298 H 0.89826 0.34599 0.35744 0.0
C1299 C 0.88865 0.30745 0.39223 0.0
C1300 C 0.8851 0.31814 0.30167 0.0
C1301 C 0.88694 0.29734 0.40661 0.0
C1302 C 0.91108 0.36883 0.27608 0.0
C1303 C 0.90265 0.35861 0.28956 0.0
C1304 C 0.8944 0.33829 0.34138 0.0
C1305 C 0.88159 0.30772 0.36375 0.0
C1306 C 0.88492 0.31815 0.34229 0.0
C1307 C 0.90267 0.34879 0.2803 0.0
C1308 C 0.89529 0.3383 0.30091 0.0
H1309 H 0.86351 0.28004 0.35632 0.0
H1310 H 0.86659 0.29772 0.33096 0.0
H1311 H 0.88924 0.32855 0.39315 0.0
H1312 H 0.92582 0.35974 0.22437 0.0
H1313 H 0.91106 0.34191 0.24742 0.0
C1314 C 0.70143 0.12058 0.3743 0.0
C1315 C 0.70154 0.11251 0.39845 0.0
C1316 C 0.69142 0.11918 0.3601 0.0
C1317 C 0.67115 0.10738 0.30813 0.0
H1318 H 0.64313 0.0931 0.36262 0.0
C1319 C 0.63041 0.07369 0.24333 0.0
C1320 C 0.62035 0.07259 0.25609 0.0
C1321 C 0.64047 0.08223 0.25744 0.0
C1322 C 0.65088 0.0973 0.34695 0.0
H1323 H 0.69123 0.09728 0.4298 0.0
H1324 H 0.6738 0.09491 0.40541 0.0
H1325 H 0.66041 0.10168 0.39917 0.0
H1326 H 0.61296 0.08016 0.29088 0.0
H1327 H 0.63056 0.09504 0.31566 0.0
H1328 H 0.66161 0.10248 0.2559 0.0
C1329 C 0.68142 0.10228 0.39722 0.0
C1330 C 0.66077 0.10212 0.36793 0.0
C1331 C 0.69142 0.10361 0.41112 0.0
C1332 C 0.62058 0.08076 0.28058 0.0
C1333 C 0.63064 0.08924 0.29499 0.0
C1334 C 0.66125 0.10248 0.28716 0.0
C1335 C 0.68134 0.10978 0.37017 0.0
C1336 C 0.671 0.10686 0.34873 0.0
C1337 C 0.64066 0.08979 0.28479 0.0
C1338 C 0.65102 0.09704 0.30634 0.0
H1339 H 0.70909 0.12755 0.36409 0.0
H1340 H 0.69159 0.12517 0.33969 0.0
H1341 H 0.67889 0.11089 0.29244 0.0
H1342 H 0.63051 0.06755 0.2244 0.0
H1343 H 0.64803 0.08238 0.24914 0.0
C1344 C 0.88797 0.58757 0.41279 0.0
C1345 C 0.87891 0.58859 0.40049 0.0
C1346 C 0.88954 0.57908 0.39841 0.0
C1347 C 0.88991 0.5587 0.36836 0.0
H1348 H 0.88989 0.55975 0.25635 0.0
C1349 C 0.91067 0.53944 0.27982 0.0
C1350 C 0.91907 0.54739 0.25605 0.0
C1351 C 0.90237 0.54128 0.29434 0.0
C1352 C 0.8898 0.55924 0.28758 0.0
H1353 H 0.86385 0.58091 0.36624 0.0
H1354 H 0.86667 0.56614 0.34092 0.0
H1355 H 0.8814 0.56849 0.29329 0.0
H1356 H 0.9247 0.56292 0.22573 0.0
H1357 H 0.91014 0.56604 0.2506 0.0
H1358 H 0.89885 0.54998 0.36268 0.0
C1359 C 0.87258 0.57195 0.36147 0.0
C1360 C 0.88486 0.56416 0.30877 0.0
C1361 C 0.87094 0.58037 0.3762 0.0
C1362 C 0.91837 0.55666 0.24408 0.0
C1363 C 0.91 0.55843 0.25827 0.0
C1364 C 0.89475 0.55368 0.34717 0.0
C1365 C 0.88212 0.5715 0.37122 0.0
C1366 C 0.88523 0.56429 0.34938 0.0
C1367 C 0.90222 0.55101 0.28493 0.0
C1368 C 0.8951 0.55425 0.30659 0.0
H1369 H 0.89423 0.59375 0.43154 0.0
H1370 H 0.897 0.57898 0.40635 0.0
H1371 H 0.89026 0.55862 0.39961 0.0
H1372 H 0.91096 0.53219 0.28951 0.0
H1373 H 0.8964 0.53536 0.31447 0.0
C1374 C 0.4357 0.36269 0.25072 0.0
C1375 C 0.44481 0.37249 0.26462 0.0
C1376 C 0.43368 0.35237 0.26396 0.0
C1377 C 0.43238 0.33094 0.29102 0.0
H1378 H 0.43206 0.33049 0.40308 0.0
C1379 C 0.41074 0.28975 0.3734 0.0
C1380 C 0.4025 0.28919 0.39826 0.0
C1381 C 0.41913 0.29999 0.35983 0.0
C1382 C 0.43222 0.33049 0.3718 0.0
H1383 H 0.45947 0.37909 0.30079 0.0
H1384 H 0.45589 0.36104 0.32399 0.0
H1385 H 0.44094 0.3482 0.36902 0.0
H1386 H 0.39721 0.29894 0.43129 0.0
H1387 H 0.41189 0.31678 0.40808 0.0
H1388 H 0.42312 0.31323 0.29381 0.0
C1389 C 0.45028 0.36137 0.30312 0.0
C1390 C 0.43739 0.34063 0.35225 0.0
C1391 C 0.45235 0.3717 0.2896 0.0
C1392 C 0.40341 0.2991 0.41206 0.0
C1393 C 0.41186 0.30933 0.39883 0.0
C1394 C 0.42729 0.3208 0.31056 0.0
C1395 C 0.44069 0.35163 0.29157 0.0
C1396 C 0.43719 0.34096 0.31166 0.0
C1397 C 0.41952 0.30986 0.3713 0.0
C1398 C 0.42683 0.32047 0.35116 0.0
H1399 H 0.42975 0.36302 0.23142 0.0
H1400 H 0.42619 0.34502 0.25464 0.0
H1401 H 0.43216 0.33094 0.25974 0.0
H1402 H 0.41028 0.28226 0.36226 0.0
H1403 H 0.425 0.30017 0.33898 0.0
C1404 C 0.29946 0.89398 0.576 0.0
C1405 C 0.28953 0.88458 0.58725 0.0
C1406 C 0.30958 0.89584 0.59066 0.0
C1407 C 0.33059 0.89656 0.61986 0.0
H1408 H 0.32948 0.89544 0.73186 0.0
C1409 C 0.37052 0.91661 0.70897 0.0
C1410 C 0.37092 0.92473 0.73411 0.0
C1411 C 0.36041 0.90844 0.69375 0.0
C1412 C 0.32991 0.89566 0.70061 0.0
H1413 H 0.28251 0.86928 0.62014 0.0
H1414 H 0.30021 0.87259 0.64593 0.0
H1415 H 0.31227 0.8871 0.69477 0.0
H1416 H 0.36098 0.93001 0.766 0.0
H1417 H 0.34335 0.91569 0.7399 0.0
H1418 H 0.34822 0.90562 0.62573 0.0
C1419 C 0.30013 0.87854 0.62598 0.0
C1420 C 0.32007 0.89082 0.67934 0.0
C1421 C 0.29001 0.87663 0.611 0.0
C1422 C 0.36094 0.92389 0.7466 0.0
C1423 C 0.35083 0.91565 0.7317 0.0
C1424 C 0.34043 0.9013 0.64111 0.0
C1425 C 0.30997 0.88836 0.61708 0.0
C1426 C 0.32031 0.89155 0.63879 0.0
C1427 C 0.35052 0.90816 0.7038 0.0
C1428 C 0.34018 0.90122 0.68173 0.0
H1429 H 0.29936 0.90025 0.55771 0.0
H1430 H 0.31702 0.90351 0.58341 0.0
H1431 H 0.33101 0.89718 0.58865 0.0
H1432 H 0.37806 0.91701 0.69885 0.0
H1433 H 0.36038 0.90268 0.67265 0.0
C1434 C 0.06884 0.4348 0.74292 0.0
C1435 C 0.06835 0.4442 0.73122 0.0
C1436 C 0.07694 0.43273 0.72797 0.0
C1437 C 0.09161 0.43686 0.6382 0.0
H1438 H 0.10563 0.42268 0.69194 0.0
C1439 C 0.11674 0.41153 0.60831 0.0
C1440 C 0.10889 0.40305 0.58454 0.0
C1441 C 0.11466 0.41965 0.62321 0.0
C1442 C 0.10195 0.42681 0.67651 0.0
H1443 H 0.07653 0.45929 0.69718 0.0
H1444 H 0.0906 0.45559 0.67081 0.0
H1445 H 0.09711 0.43138 0.72901 0.0
H1446 H 0.09324 0.39704 0.5547 0.0
H1447 H 0.08971 0.41131 0.58017 0.0
H1448 H 0.09593 0.43175 0.58573 0.0
C1449 C 0.08468 0.44981 0.69139 0.0
C1450 C 0.09701 0.43171 0.69775 0.0
C1451 C 0.07666 0.45195 0.70671 0.0
C1452 C 0.09943 0.40345 0.57302 0.0
C1453 C 0.09742 0.41164 0.58756 0.0
C1454 C 0.09644 0.43183 0.61696 0.0
C1455 C 0.08464 0.43998 0.70077 0.0
C1456 C 0.09154 0.43653 0.67881 0.0
C1457 C 0.10478 0.41952 0.61414 0.0
C1458 C 0.1014 0.42652 0.63593 0.0
H1459 H 0.06256 0.42869 0.76181 0.0
H1460 H 0.07667 0.42506 0.7356 0.0
H1461 H 0.08737 0.44042 0.6228 0.0
H1462 H 0.12413 0.41148 0.61767 0.0
H1463 H 0.12053 0.4257 0.64329 0.0
C1464 C 0.5401 0.62195 0.70429 0.0
C1465 C 0.54775 0.62101 0.72823 0.0
C1466 C 0.54234 0.63231 0.69053 0.0
C1467 C 0.56071 0.66265 0.70104 0.0
H1468 H 0.55988 0.66285 0.58901 0.0
C1469 C 0.58803 0.69457 0.57725 0.0
C1470 C 0.58876 0.70438 0.59126 0.0
C1471 C 0.57994 0.68427 0.59132 0.0
C1472 C 0.56004 0.66291 0.62029 0.0
H1473 H 0.56325 0.63027 0.75928 0.0
H1474 H 0.56709 0.64835 0.73568 0.0
H1475 H 0.55137 0.6452 0.62355 0.0
H1476 H 0.58098 0.71103 0.62858 0.0
H1477 H 0.56688 0.69301 0.65331 0.0
H1478 H 0.56984 0.68035 0.6977 0.0
C1479 C 0.55939 0.64108 0.72735 0.0
C1480 C 0.5551 0.65282 0.64011 0.0
C1481 C 0.5572 0.63072 0.74082 0.0
C1482 C 0.58066 0.70362 0.61725 0.0
C1483 C 0.57263 0.69332 0.63165 0.0
C1484 C 0.56555 0.67274 0.68123 0.0
C1485 C 0.5522 0.64194 0.70083 0.0
C1486 C 0.55569 0.65258 0.68064 0.0
C1487 C 0.57246 0.68358 0.6199 0.0
C1488 C 0.56556 0.67297 0.64061 0.0
H1489 H 0.53272 0.61464 0.69413 0.0
H1490 H 0.53659 0.63274 0.67051 0.0
H1491 H 0.56124 0.66271 0.73226 0.0
H1492 H 0.59414 0.69488 0.55718 0.0
H1493 H 0.58005 0.67692 0.58182 0.0
C1494 C 0.36747 0.4521 0.72287 0.0
C1495 C 0.36793 0.44389 0.74515 0.0
C1496 C 0.35736 0.45034 0.70831 0.0
C1497 C 0.32688 0.43185 0.71138 0.0
H1498 H 0.329 0.43404 0.59962 0.0
C1499 C 0.29816 0.40524 0.58014 0.0
C1500 C 0.28796 0.40413 0.59115 0.0
C1501 C 0.30801 0.41343 0.5968 0.0
C1502 C 0.32828 0.43352 0.6308 0.0
H1503 H 0.35806 0.42798 0.77319 0.0
H1504 H 0.34043 0.42497 0.74815 0.0
H1505 H 0.34585 0.44242 0.63858 0.0
H1506 H 0.28016 0.41129 0.6259 0.0
H1507 H 0.29737 0.42551 0.65525 0.0
H1508 H 0.30932 0.42244 0.70344 0.0
C1509 C 0.34787 0.43273 0.74167 0.0
C1510 C 0.33792 0.43839 0.65316 0.0
C1511 C 0.35798 0.43444 0.75596 0.0
C1512 C 0.28789 0.41191 0.61685 0.0
C1513 C 0.29772 0.42002 0.63387 0.0
C1514 C 0.31724 0.42708 0.68902 0.0
C1515 C 0.34753 0.44041 0.71615 0.0
C1516 C 0.33732 0.43727 0.69361 0.0
C1517 C 0.30782 0.42059 0.62504 0.0
C1518 C 0.31787 0.42754 0.64846 0.0
H1519 H 0.37498 0.45952 0.71421 0.0
H1520 H 0.35731 0.45647 0.68916 0.0
H1521 H 0.32618 0.43091 0.74248 0.0
H1522 H 0.29849 0.39938 0.56037 0.0
H1523 H 0.31566 0.41363 0.58956 0.0
C1524 C 0.57759 0.87305 0.61086 0.0
C1525 C 0.58571 0.8808 0.58581 0.0
C1526 C 0.56938 0.87496 0.62591 0.0
C1527 C 0.55673 0.89289 0.61913 0.0
H1528 H 0.55834 0.89324 0.73105 0.0
C1529 C 0.53922 0.91522 0.70842 0.0
C1530 C 0.54738 0.92344 0.73216 0.0
C1531 C 0.54062 0.90665 0.69365 0.0
C1532 C 0.55768 0.89306 0.69985 0.0
H1533 H 0.59089 0.89599 0.55376 0.0
H1534 H 0.57652 0.89923 0.57956 0.0
H1535 H 0.56642 0.88415 0.69384 0.0
H1536 H 0.56287 0.92852 0.76201 0.0
H1537 H 0.56525 0.91354 0.73662 0.0
H1538 H 0.54856 0.90235 0.62508 0.0
C1539 C 0.57652 0.89173 0.58784 0.0
C1540 C 0.56221 0.88777 0.67851 0.0
C1541 C 0.58479 0.88989 0.57312 0.0
C1542 C 0.55645 0.92234 0.74369 0.0
C1543 C 0.5578 0.91372 0.72922 0.0
C1544 C 0.55211 0.89809 0.64047 0.0
C1545 C 0.56905 0.88456 0.61576 0.0
C1546 C 0.56215 0.88799 0.63789 0.0
C1547 C 0.55014 0.90607 0.70274 0.0
C1548 C 0.5529 0.89859 0.68101 0.0
H1549 H 0.57806 0.86595 0.62113 0.0
H1550 H 0.56365 0.86922 0.64701 0.0
H1551 H 0.5565 0.89313 0.58788 0.0
H1552 H 0.53211 0.9158 0.69908 0.0
H1553 H 0.53452 0.90079 0.67367 0.0
C1554 C 0.06781 0.6331 0.74309 0.0
C1555 C 0.06728 0.62321 0.73105 0.0
C1556 C 0.07599 0.6433 0.72855 0.0
C1557 C 0.09625 0.66441 0.69952 0.0
H1558 H 0.09572 0.66378 0.58743 0.0
C1559 C 0.11701 0.7047 0.612 0.0
C1560 C 0.10943 0.70559 0.58752 0.0
C1561 C 0.11464 0.69439 0.62671 0.0
C1562 C 0.09606 0.66407 0.6187 0.0
H1563 H 0.07544 0.61633 0.69678 0.0
H1564 H 0.08965 0.63415 0.67116 0.0
H1565 H 0.08678 0.64639 0.62363 0.0
H1566 H 0.09396 0.69627 0.55637 0.0
H1567 H 0.08991 0.67828 0.58157 0.0
H1568 H 0.10509 0.68209 0.6946 0.0
C1569 C 0.0837 0.63399 0.69167 0.0
C1570 C 0.09103 0.65413 0.63944 0.0
C1571 C 0.0756 0.6238 0.70657 0.0
C1572 C 0.09995 0.69586 0.57523 0.0
C1573 C 0.09764 0.68555 0.58962 0.0
C1574 C 0.1014 0.67435 0.67878 0.0
C1575 C 0.08372 0.64378 0.70143 0.0
C1576 C 0.09078 0.65421 0.68005 0.0
C1577 C 0.10473 0.68478 0.6168 0.0
C1578 C 0.10106 0.67428 0.63817 0.0
H1579 H 0.06153 0.63292 0.76196 0.0
H1580 H 0.07577 0.65071 0.73647 0.0
H1581 H 0.09621 0.66471 0.73078 0.0
H1582 H 0.12441 0.71203 0.62195 0.0
H1583 H 0.12031 0.69401 0.64725 0.0
C1584 C 0.09527 0.3614 0.72756 0.0
C1585 C 0.0925 0.35622 0.6913 0.0
C1586 C 0.09091 0.35515 0.76115 0.0
C1587 C 0.06957 0.32708 0.79618 0.0
H1588 H 0.08965 0.33479 0.88312 0.0
C1589 C 0.06535 0.29775 0.92277 0.0
C1590 C 0.06609 0.30221 0.95974 0.0
C1591 C 0.06742 0.30438 0.89003 0.0
C1592 C 0.08395 0.33261 0.85908 0.0
H1593 H 0.08288 0.34052 0.66151 0.0
H1594 H 0.0757 0.32961 0.71974 0.0
H1595 H 0.09543 0.34662 0.82618 0.0
H1596 H 0.06934 0.31699 0.99155 0.0
H1597 H 0.07322 0.32857 0.93444 0.0
H1598 H 0.05835 0.31273 0.8289 0.0
C1599 C 0.08093 0.3385 0.72258 0.0
C1600 C 0.0872 0.33942 0.82659 0.0
C1601 C 0.08512 0.34476 0.6891 0.0
C1602 C 0.06872 0.31332 0.96342 0.0
C1603 C 0.07097 0.31996 0.93085 0.0
C1604 C 0.06642 0.32016 0.82846 0.0
C1605 C 0.08386 0.34358 0.75907 0.0
C1606 C 0.08008 0.33672 0.79462 0.0
C1607 C 0.07044 0.31558 0.894 0.0
C1608 C 0.07361 0.32288 0.86003 0.0
H1609 H 0.10087 0.37025 0.72996 0.0
H1610 H 0.09317 0.35937 0.78873 0.0
H1611 H 0.06379 0.32484 0.77242 0.0
H1612 H 0.0633 0.2892 0.9192 0.0
H1613 H 0.06703 0.30088 0.86174 0.0
C1614 C 0.69337 0.76698 0.92165 0.0
C1615 C 0.69124 0.76121 0.95672 0.0
C1616 C 0.68688 0.76181 0.88918 0.0
C1617 C 0.65894 0.73968 0.865 0.0
H1618 H 0.67021 0.74584 0.76024 0.0
C1619 C 0.63222 0.73591 0.73284 0.0
C1620 C 0.63459 0.73259 0.69754 0.0
C1621 C 0.63872 0.73726 0.76536 0.0
C1622 C 0.66693 0.74388 0.78932 0.0
H1623 H 0.68119 0.7453 0.98471 0.0
H1624 H 0.66996 0.73625 0.92789 0.0
H1625 H 0.68314 0.7522 0.81425 0.0
H1626 H 0.64506 0.72731 0.66914 0.0
H1627 H 0.65628 0.72954 0.72602 0.0
H1628 H 0.64272 0.73144 0.84006 0.0
C1629 C 0.67647 0.74482 0.9257 0.0
C1630 C 0.67434 0.74764 0.82023 0.0
C1631 C 0.68294 0.75 0.95815 0.0
C1632 C 0.64313 0.73002 0.69589 0.0
C1633 C 0.64959 0.73134 0.72838 0.0
C1634 C 0.65152 0.73592 0.83409 0.0
C1635 C 0.67819 0.75076 0.89119 0.0
C1636 C 0.67042 0.74575 0.85838 0.0
C1637 C 0.64765 0.73527 0.76314 0.0
C1638 C 0.65544 0.73816 0.79594 0.0
H1639 H 0.69974 0.77562 0.91969 0.0
H1640 H 0.68835 0.76663 0.86306 0.0
H1641 H 0.65566 0.73819 0.8941 0.0
H1642 H 0.62568 0.73793 0.73496 0.0
H1643 H 0.63707 0.74039 0.79168 0.0
C1644 C 0.24171 0.93214 0.95155 0.0
C1645 C 0.2305 0.92922 0.95123 0.0
C1646 C 0.24661 0.9307 0.91865 0.0
C1647 C 0.24285 0.925 0.81354 0.0
H1648 H 0.26016 0.91067 0.83283 0.0
C1649 C 0.26141 0.91246 0.68888 0.0
C1650 C 0.25974 0.90166 0.69091 0.0
C1651 C 0.25956 0.91731 0.72113 0.0
C1652 C 0.25534 0.91466 0.82698 0.0
H1653 H 0.21578 0.9231 0.9157 0.0
H1654 H 0.22428 0.92039 0.85829 0.0
H1655 H 0.25336 0.9167 0.88703 0.0
H1656 H 0.25537 0.88765 0.72869 0.0
H1657 H 0.25197 0.89604 0.78496 0.0
H1658 H 0.24438 0.92248 0.75351 0.0
C1659 C 0.22933 0.92391 0.88385 0.0
C1660 C 0.25155 0.91824 0.85801 0.0
C1661 C 0.22444 0.92541 0.91677 0.0
C1662 C 0.25671 0.89599 0.72629 0.0
C1663 C 0.25481 0.90082 0.75855 0.0
C1664 C 0.24661 0.92139 0.7825 0.0
C1665 C 0.24039 0.92626 0.88479 0.0
C1666 C 0.24515 0.92333 0.85164 0.0
C1667 C 0.25597 0.91143 0.75604 0.0
C1668 C 0.25277 0.91605 0.78891 0.0
H1669 H 0.24662 0.93523 0.97762 0.0
H1670 H 0.25521 0.93282 0.92002 0.0
H1671 H 0.23802 0.92898 0.8077 0.0
H1672 H 0.26386 0.91708 0.66205 0.0
H1673 H 0.26073 0.92558 0.71852 0.0
C1674 C 0.2977 0.07003 0.06682 0.0
C1675 C 0.30007 0.06603 0.03308 0.0
C1676 C 0.30419 0.07204 0.09981 0.0
C1677 C 0.32501 0.06703 0.14701 0.0
H1678 H 0.33603 0.09672 0.18731 0.0
C1679 C 0.34973 0.08381 0.28928 0.0
C1680 C 0.35833 0.09491 0.28951 0.0
C1681 C 0.34317 0.07931 0.25647 0.0
C1682 C 0.3331 0.08845 0.17612 0.0
H1683 H 0.31048 0.06013 0.00823 0.0
H1684 H 0.32179 0.06363 0.06591 0.0
H1685 H 0.32238 0.08995 0.13555 0.0
H1686 H 0.36736 0.10975 0.2548 0.0
H1687 H 0.35586 0.10187 0.1974 0.0
H1688 H 0.33583 0.0656 0.18774 0.0
C1689 C 0.31496 0.06525 0.06682 0.0
C1690 C 0.32516 0.08451 0.14695 0.0
C1691 C 0.30852 0.06331 0.03377 0.0
C1692 C 0.36073 0.1012 0.25555 0.0
C1693 C 0.35412 0.09672 0.22281 0.0
C1694 C 0.33291 0.07095 0.17655 0.0
C1695 C 0.31309 0.06999 0.09966 0.0
C1696 C 0.32105 0.07378 0.13209 0.0
C1697 C 0.34508 0.08585 0.22342 0.0
C1698 C 0.33706 0.08172 0.19119 0.0
H1699 H 0.29119 0.07212 0.0672 0.0
H1700 H 0.30249 0.07554 0.12504 0.0
H1701 H 0.32196 0.05873 0.13598 0.0
H1702 H 0.34775 0.07873 0.315 0.0
H1703 H 0.33624 0.07091 0.25772 0.0
C1704 C 0.88952 0.2547 0.25145 0.0
C1705 C 0.89587 0.25902 0.28512 0.0
C1706 C 0.89414 0.2527 0.21883 0.0
C1707 C 0.92022 0.25864 0.17185 0.0
H1708 H 0.90253 0.22881 0.13149 0.0
C1709 C 0.9288 0.24282 0.02866 0.0
C1710 C 0.92685 0.2319 0.02813 0.0
C1711 C 0.92655 0.24706 0.06176 0.0
C1712 C 0.90761 0.23713 0.1427 0.0
H1713 H 0.91221 0.26541 0.31025 0.0
H1714 H 0.92027 0.26196 0.25314 0.0
H1715 H 0.89524 0.23507 0.18357 0.0
H1716 H 0.9218 0.21711 0.06256 0.0
H1717 H 0.91784 0.22454 0.12044 0.0
H1718 H 0.9326 0.26065 0.13075 0.0
C1719 C 0.91174 0.26007 0.25204 0.0
C1720 C 0.90337 0.24076 0.17208 0.0
C1721 C 0.9071 0.26199 0.28475 0.0
C1722 C 0.92331 0.22554 0.06205 0.0
C1723 C 0.92098 0.22975 0.09507 0.0
C1724 C 0.92443 0.25503 0.14211 0.0
C1725 C 0.9052 0.25509 0.21923 0.0
C1726 C 0.90963 0.25154 0.18692 0.0
C1727 C 0.92226 0.24042 0.0948 0.0
C1728 C 0.91816 0.24422 0.12741 0.0
H1729 H 0.88086 0.25239 0.25083 0.0
H1730 H 0.88898 0.24899 0.19362 0.0
H1731 H 0.9252 0.26699 0.18285 0.0
H1732 H 0.9316 0.24794 0.00297 0.0
H1733 H 0.92758 0.2553 0.06076 0.0
C1734 C 0.72704 0.64417 0.29004 0.0
C1735 C 0.73003 0.63592 0.28896 0.0
C1736 C 0.72819 0.65048 0.25731 0.0
C1737 C 0.7333 0.65251 0.15179 0.0
H1738 H 0.74819 0.68415 0.17157 0.0
C1739 C 0.74691 0.68373 0.0273 0.0
C1740 C 0.7579 0.69248 0.02958 0.0
C1741 C 0.74173 0.67719 0.05957 0.0
C1742 C 0.74402 0.67534 0.1656 0.0
H1743 H 0.73593 0.62734 0.2523 0.0
H1744 H 0.73813 0.6385 0.1952 0.0
H1745 H 0.74205 0.67124 0.2256 0.0
H1746 H 0.77189 0.70166 0.06785 0.0
H1747 H 0.76292 0.69013 0.12416 0.0
H1748 H 0.73579 0.65663 0.09182 0.0
C1749 C 0.73479 0.64003 0.22122 0.0
C1750 C 0.74038 0.66793 0.19652 0.0
C1751 C 0.73358 0.63366 0.25396 0.0
C1752 C 0.76342 0.69496 0.06525 0.0
C1753 C 0.75825 0.68838 0.09754 0.0
C1754 C 0.73696 0.65992 0.12087 0.0
C1755 C 0.73239 0.64871 0.22289 0.0
C1756 C 0.73515 0.65644 0.18995 0.0
C1757 C 0.74745 0.67925 0.09474 0.0
C1758 C 0.74254 0.67142 0.12747 0.0
H1759 H 0.72414 0.64599 0.31656 0.0
H1760 H 0.72606 0.65696 0.25925 0.0
H1761 H 0.7292 0.6437 0.14583 0.0
H1762 H 0.74241 0.68171 0.00024 0.0
H1763 H 0.73333 0.67035 0.05674 0.0
C1764 C 0.92771 0.68304 0.03093 0.0
C1765 C 0.92548 0.69183 0.03119 0.0
C1766 C 0.92567 0.67645 0.06366 0.0
C1767 C 0.9069 0.66666 0.14504 0.0
H1768 H 0.92549 0.65543 0.18429 0.0
C1769 C 0.89023 0.63129 0.25456 0.0
C1770 C 0.89667 0.63372 0.28819 0.0
C1771 C 0.89462 0.63778 0.22152 0.0
C1772 C 0.92024 0.6585 0.1735 0.0
H1773 H 0.92009 0.7011 0.0666 0.0
H1774 H 0.91647 0.68952 0.12381 0.0
H1775 H 0.93232 0.66918 0.13214 0.0
H1776 H 0.91298 0.64423 0.31277 0.0
H1777 H 0.92064 0.65551 0.25492 0.0
H1778 H 0.89483 0.65606 0.18618 0.0
C1779 C 0.91969 0.68768 0.09812 0.0
C1780 C 0.92412 0.66633 0.14375 0.0
C1781 C 0.92181 0.69433 0.06548 0.0
C1782 C 0.9078 0.64223 0.28732 0.0
C1783 C 0.91221 0.64865 0.25418 0.0
C1784 C 0.90299 0.65878 0.17439 0.0
C1785 C 0.9213 0.6785 0.0971 0.0
C1786 C 0.9175 0.67052 0.12944 0.0
C1787 C 0.90554 0.64672 0.22147 0.0
C1788 C 0.90961 0.65463 0.18893 0.0
H1789 H 0.93061 0.68097 0.00495 0.0
H1790 H 0.92695 0.6694 0.0621 0.0
H1791 H 0.90157 0.66963 0.13413 0.0
H1792 H 0.88165 0.62474 0.25432 0.0
H1793 H 0.88936 0.63603 0.1964 0.0
C1794 C 0.29663 0.2251 0.06309 0.0
C1795 C 0.29873 0.2315 0.02952 0.0
C1796 C 0.30341 0.22954 0.09548 0.0
C1797 C 0.3244 0.25537 0.14201 0.0
H1798 H 0.33524 0.23657 0.1826 0.0
C1799 C 0.34862 0.26322 0.28516 0.0
C1800 C 0.35717 0.26065 0.28618 0.0
C1801 C 0.34219 0.26114 0.252 0.0
C1802 C 0.33238 0.24196 0.17131 0.0
H1803 H 0.30902 0.24779 0.00439 0.0
H1804 H 0.32083 0.25553 0.06106 0.0
H1805 H 0.3217 0.22979 0.13048 0.0
H1806 H 0.3662 0.25463 0.25252 0.0
H1807 H 0.35493 0.25098 0.1945 0.0
H1808 H 0.33515 0.26755 0.18302 0.0
C1809 C 0.31399 0.24709 0.06227 0.0
C1810 C 0.3245 0.23801 0.1419 0.0
C1811 C 0.30726 0.24263 0.0298 0.0
C1812 C 0.35961 0.25661 0.25267 0.0
C1813 C 0.35313 0.25447 0.21957 0.0
C1814 C 0.33224 0.25929 0.17174 0.0
C1815 C 0.31234 0.24047 0.09494 0.0
C1816 C 0.32041 0.24466 0.12703 0.0
C1817 C 0.34416 0.25642 0.21934 0.0
C1818 C 0.3363 0.25262 0.18658 0.0
H1819 H 0.29007 0.21652 0.06382 0.0
H1820 H 0.30185 0.22432 0.1206 0.0
H1821 H 0.32137 0.26065 0.13102 0.0
H1822 H 0.3466 0.26642 0.31051 0.0
H1823 H 0.3353 0.26268 0.25267 0.0
C1824 C 0.74638 0.0643 0.02387 0.0
C1825 C 0.75724 0.06619 0.02698 0.0
C1826 C 0.74107 0.06558 0.0559 0.0
C1827 C 0.74255 0.0687 0.16232 0.0
H1828 H 0.72839 0.08618 0.14308 0.0
C1829 C 0.72472 0.08204 0.28671 0.0
C1830 C 0.72789 0.09333 0.28686 0.0
C1831 C 0.72612 0.07715 0.25366 0.0
C1832 C 0.7323 0.08128 0.1489 0.0
H1833 H 0.77085 0.07032 0.06641 0.0
H1834 H 0.76165 0.07274 0.12233 0.0
H1835 H 0.7353 0.08021 0.089 0.0
H1836 H 0.73439 0.10821 0.25196 0.0
H1837 H 0.73701 0.09973 0.19434 0.0
H1838 H 0.74005 0.07026 0.22234 0.0
C1839 C 0.75718 0.07016 0.09523 0.0
C1840 C 0.73615 0.07775 0.11791 0.0
C1841 C 0.76248 0.06882 0.06317 0.0
C1842 C 0.73189 0.09949 0.25269 0.0
C1843 C 0.73334 0.09461 0.21964 0.0
C1844 C 0.73871 0.07225 0.19331 0.0
C1845 C 0.74653 0.06882 0.09167 0.0
C1846 C 0.74148 0.07158 0.12434 0.0
C1847 C 0.73075 0.08347 0.22014 0.0
C1848 C 0.73372 0.07874 0.18697 0.0
H1849 H 0.74209 0.06213 -0.00361 0.0
H1850 H 0.73278 0.06428 0.05245 0.0
H1851 H 0.74652 0.06386 0.16815 0.0
H1852 H 0.72148 0.07705 0.31255 0.0
H1853 H 0.72384 0.06849 0.25468 0.0
C1854 C 0.64009 0.90899 0.69605 0.0
C1855 C 0.63139 0.89794 0.69546 0.0
C1856 C 0.64664 0.91333 0.72899 0.0
C1857 C 0.65631 0.90387 0.80987 0.0
H1858 H 0.66768 0.93365 0.84978 0.0
C1859 C 0.6918 0.92233 0.91927 0.0
C1860 C 0.68968 0.92671 0.95258 0.0
C1861 C 0.68515 0.92008 0.88657 0.0
C1862 C 0.66456 0.92532 0.83887 0.0
H1863 H 0.62222 0.883 0.72963 0.0
H1864 H 0.63368 0.89061 0.78726 0.0
H1865 H 0.65395 0.92692 0.79763 0.0
H1866 H 0.67948 0.93291 0.97699 0.0
H1867 H 0.66788 0.92899 0.91981 0.0
H1868 H 0.66682 0.90221 0.85099 0.0
C1869 C 0.63551 0.89585 0.76203 0.0
C1870 C 0.65674 0.92149 0.80907 0.0
C1871 C 0.62892 0.89152 0.72916 0.0
C1872 C 0.68125 0.92946 0.95178 0.0
C1873 C 0.67465 0.92727 0.91901 0.0
C1874 C 0.66416 0.90772 0.83936 0.0
C1875 C 0.64462 0.90669 0.76184 0.0
C1876 C 0.65253 0.91071 0.79442 0.0
C1877 C 0.67633 0.92226 0.88655 0.0
C1878 C 0.66836 0.91847 0.85414 0.0
H1879 H 0.64214 0.91415 0.67055 0.0
H1880 H 0.65362 0.9217 0.72802 0.0
H1881 H 0.65333 0.89559 0.79872 0.0
H1882 H 0.69829 0.9202 0.91897 0.0
H1883 H 0.68672 0.91637 0.86164 0.0
C1884 C 0.08508 0.74014 0.68724 0.0
C1885 C 0.09216 0.73572 0.69018 0.0
C1886 C 0.08021 0.74161 0.72012 0.0
C1887 C 0.08408 0.74447 0.82589 0.0
H1888 H 0.05581 0.74356 0.82232 0.0
C1889 C 0.06464 0.7516 0.96022 0.0
C1890 C 0.06292 0.7607 0.95687 0.0
C1891 C 0.06657 0.74701 0.92754 0.0
C1892 C 0.0637 0.74382 0.82356 0.0
H1893 H 0.09929 0.72884 0.72932 0.0
H1894 H 0.0904 0.73096 0.78684 0.0
H1895 H 0.06214 0.7377 0.76596 0.0
H1896 H 0.06116 0.77164 0.91659 0.0
H1897 H 0.06438 0.7634 0.85898 0.0
H1898 H 0.0855 0.75041 0.88377 0.0
C1899 C 0.0889 0.73366 0.7593 0.0
C1900 C 0.06738 0.74053 0.79135 0.0
C1901 C 0.09395 0.73238 0.72639 0.0
C1902 C 0.06251 0.76468 0.91998 0.0
C1903 C 0.06431 0.75995 0.88711 0.0
C1904 C 0.08031 0.74755 0.85823 0.0
C1905 C 0.08215 0.73852 0.75666 0.0
C1906 C 0.07771 0.74099 0.79192 0.0
C1907 C 0.06666 0.75129 0.89086 0.0
C1908 C 0.07018 0.74738 0.85714 0.0
H1909 H 0.08359 0.74284 0.65965 0.0
H1910 H 0.07525 0.74556 0.71691 0.0
H1911 H 0.09217 0.74518 0.82724 0.0
H1912 H 0.06494 0.7483 0.98824 0.0
H1913 H 0.06829 0.74027 0.93097 0.0
C1914 C 0.22534 0.29521 0.9149 0.0
C1915 C 0.22972 0.2997 0.95135 0.0
C1916 C 0.22965 0.30166 0.88161 0.0
C1917 C 0.24134 0.32975 0.85085 0.0
H1918 H 0.25292 0.32224 0.76124 0.0
C1919 C 0.25882 0.35965 0.72234 0.0
C1920 C 0.2566 0.35494 0.68533 0.0
C1921 C 0.25667 0.35296 0.75493 0.0
C1922 C 0.24957 0.3244 0.78579 0.0
H1923 H 0.24232 0.31427 0.98143 0.0
H1924 H 0.24958 0.32553 0.92346 0.0
H1925 H 0.24662 0.30986 0.81712 0.0
H1926 H 0.25052 0.33963 0.65309 0.0
H1927 H 0.24628 0.32792 0.70967 0.0
H1928 H 0.2437 0.34394 0.81954 0.0
C1929 C 0.24289 0.31704 0.92071 0.0
C1930 C 0.24603 0.31732 0.81774 0.0
C1931 C 0.23873 0.31058 0.95378 0.0
C1932 C 0.25238 0.34349 0.68135 0.0
C1933 C 0.25002 0.33678 0.71387 0.0
C1934 C 0.24466 0.3367 0.81872 0.0
C1935 C 0.23826 0.3127 0.88453 0.0
C1936 C 0.24194 0.31999 0.85047 0.0
C1937 C 0.25203 0.3414 0.75113 0.0
C1938 C 0.24885 0.33414 0.78576 0.0
H1939 H 0.21842 0.28684 0.91224 0.0
H1940 H 0.22597 0.29819 0.85382 0.0
H1941 H 0.23809 0.33188 0.87579 0.0
H1942 H 0.26217 0.36848 0.72611 0.0
H1943 H 0.25858 0.35686 0.78309 0.0
C1944 C 0.013 0.41698 0.62779 0.0
C1945 C 0.02197 0.42789 0.62695 0.0
C1946 C 0.00638 0.41239 0.59515 0.0
C1947 C -0.00319 0.42113 0.51259 0.0
H1948 H 0.98612 0.3914 0.47316 0.0
C1949 C 0.96191 0.40199 0.40111 0.0
C1950 C 0.96469 0.39827 0.36753 0.0
C1951 C 0.96829 0.40418 0.43449 0.0
C1952 C 0.98904 0.3997 0.48403 0.0
H1953 H 0.03144 0.44234 0.5908 0.0
H1954 H 0.01976 0.43433 0.53382 0.0
H1955 H -0.00046 0.39835 0.52642 0.0
H1956 H 0.97576 0.39313 0.34324 0.0
H1957 H 0.98684 0.39686 0.4018 0.0
H1958 H 0.98635 0.42252 0.4705 0.0
C1959 C 0.01785 0.42938 0.55983 0.0
C1960 C -0.00332 0.40366 0.51439 0.0
C1961 C 0.02455 0.43393 0.59233 0.0
C1962 C 0.97348 0.39607 0.36868 0.0
C1963 C 0.97979 0.39814 0.40219 0.0
C1964 C 0.9891 0.41714 0.48268 0.0
C1965 C 0.00856 0.41867 0.56128 0.0
C1966 C 0.00068 0.41444 0.52869 0.0
C1967 C 0.97746 0.40255 0.43494 0.0
C1968 C 0.98516 0.40641 0.46806 0.0
H1969 H 0.01087 0.41211 0.65406 0.0
H1970 H -0.00076 0.40413 0.59699 0.0
H1971 H -0.00034 0.42942 0.52347 0.0
H1972 H 0.95515 0.40372 0.40112 0.0
H1973 H 0.96627 0.40746 0.45961 0.0
C1974 C 0.59551 0.57801 0.35597 0.0
C1975 C 0.59687 0.5687 0.35919 0.0
C1976 C 0.59354 0.58259 0.38866 0.0
C1977 C 0.59552 0.58502 0.49312 0.0
H1978 H 0.56723 0.58399 0.48719 0.0
C1979 C 0.57281 0.5871 0.62823 0.0
C1980 C 0.56577 0.59156 0.62543 0.0
C1981 C 0.57802 0.58605 0.5955 0.0
C1982 C 0.57528 0.58462 0.48921 0.0
H1983 H 0.59804 0.55737 0.3993 0.0
H1984 H 0.59476 0.56556 0.45688 0.0
H1985 H 0.5744 0.57931 0.43071 0.0
H1986 H 0.55905 0.59895 0.58678 0.0
H1987 H 0.56854 0.59759 0.52961 0.0
H1988 H 0.59654 0.59049 0.5514 0.0
C1989 C 0.59513 0.5692 0.42886 0.0
C1990 C 0.57933 0.58185 0.45687 0.0
C1991 C 0.59695 0.5645 0.396 0.0
C1992 C 0.56435 0.59537 0.58957 0.0
C1993 C 0.56974 0.59452 0.55685 0.0
C1994 C 0.59157 0.588 0.52536 0.0
C1995 C 0.59308 0.57806 0.42521 0.0
C1996 C 0.58938 0.58186 0.45877 0.0
C1997 C 0.57647 0.58964 0.55928 0.0
C1998 C 0.58129 0.58763 0.52402 0.0
H1999 H 0.59547 0.58149 0.32801 0.0
H2000 H 0.59205 0.58947 0.3853 0.0
H2001 H 0.60334 0.58515 0.49502 0.0
H2002 H 0.57401 0.58404 0.65553 0.0
H2003 H 0.58294 0.58205 0.59851 0.0
C2004 C 0.40231 0.96869 0.5938 0.0
C2005 C 0.39926 0.97127 0.62924 0.0
C2006 C 0.40396 0.97532 0.56143 0.0
C2007 C 0.41179 0.00392 0.53762 0.0
H2008 H 0.40468 0.99254 0.43309 0.0
C2009 C 0.41598 0.01978 0.36933 0.0
C2010 C 0.42726 0.02789 0.36884 0.0
C2011 C 0.41123 0.01342 0.40231 0.0
C2012 C 0.40659 0.99586 0.46215 0.0
H2013 H 0.39479 0.98232 0.65806 0.0
H2014 H 0.39753 0.9938 0.60145 0.0
H2015 H 0.39809 0.97966 0.48732 0.0
H2016 H 0.44227 0.03618 0.40309 0.0
H2017 H 0.434 0.02497 0.46075 0.0
H2018 H 0.42034 0.02011 0.51243 0.0
C2019 C 0.39889 0.98681 0.59887 0.0
C2020 C 0.40292 0.98847 0.49314 0.0
C2021 C 0.39727 0.98021 0.6312 0.0
C2022 C 0.43356 0.02997 0.40265 0.0
C2023 C 0.42881 0.02357 0.43568 0.0
C2024 C 0.41547 0.01131 0.50663 0.0
C2025 C 0.40254 0.98462 0.56396 0.0
C2026 C 0.4056 0.99242 0.53116 0.0
C2027 C 0.41767 0.01504 0.43545 0.0
C2028 C 0.41303 0.00734 0.46856 0.0
H2029 H 0.40388 0.96184 0.59145 0.0
H2030 H 0.40684 0.97347 0.53495 0.0
H2031 H 0.4141 0.00721 0.56661 0.0
H2032 H 0.41088 0.01809 0.34379 0.0
H2033 H 0.40258 0.00706 0.40156 0.0
C2034 C 0.56076 0.96804 0.59193 0.0
C2035 C 0.5664 0.97066 0.62737 0.0
C2036 C 0.56562 0.97477 0.55969 0.0
C2037 C 0.58587 0.00356 0.53625 0.0
H2038 H 0.58176 0.99229 0.43159 0.0
C2039 C 0.58914 0.02937 0.40151 0.0
C2040 C 0.59335 0.02739 0.36749 0.0
C2041 C 0.58781 0.02306 0.43457 0.0
C2042 C 0.58313 0.99559 0.46068 0.0
H2043 H 0.58182 0.98191 0.65633 0.0
H2044 H 0.59033 0.99356 0.59995 0.0
H2045 H 0.57583 0.97939 0.48566 0.0
H2046 H 0.60025 0.01791 0.34208 0.0
H2047 H 0.59807 0.00706 0.39989 0.0
H2048 H 0.59311 0.01975 0.51122 0.0
C2049 C 0.58208 0.98646 0.59727 0.0
C2050 C 0.57962 0.98818 0.49159 0.0
C2051 C 0.57722 0.97976 0.62946 0.0
C2052 C 0.59684 0.01951 0.36779 0.0
C2053 C 0.59555 0.01326 0.4008 0.0
C2054 C 0.58938 0.01097 0.50532 0.0
C2055 C 0.57622 0.98421 0.56235 0.0
C2056 C 0.58081 0.99208 0.52966 0.0
C2057 C 0.59071 0.01473 0.43415 0.0
C2058 C 0.58791 0.00704 0.46721 0.0
H2059 H 0.55242 0.96108 0.58947 0.0
H2060 H 0.56087 0.97287 0.53321 0.0
H2061 H 0.58679 0.0068 0.56529 0.0
H2062 H 0.5864 0.0354 0.40209 0.0
H2063 H 0.58399 0.02435 0.4598 0.0
C2064 C 0.97249 0.57628 0.36627 0.0
C2065 C 0.96422 0.56505 0.36674 0.0
C2066 C 0.97877 0.58126 0.39923 0.0
C2067 C -0.0039 0.5863 0.46025 0.0
H2068 H 0.98465 0.57908 0.5646 0.0
C2069 C 0.02328 0.59081 0.59187 0.0
C2070 C 0.02066 0.59372 0.62749 0.0
C2071 C 0.01662 0.58915 0.55957 0.0
C2072 C 0.98798 0.58133 0.53566 0.0
H2073 H 0.95559 0.55039 0.40254 0.0
H2074 H 0.9667 0.55903 0.46003 0.0
H2075 H 0.97183 0.57283 0.51029 0.0
H2076 H 0.00948 0.59791 0.65677 0.0
H2077 H -0.00202 0.59521 0.60025 0.0
H2078 H 0.01225 0.59481 0.48559 0.0
C2079 C 0.96826 0.56403 0.43433 0.0
C2080 C 0.98063 0.57763 0.50455 0.0
C2081 C 0.96192 0.55906 0.40136 0.0
C2082 C 0.01163 0.59554 0.62975 0.0
C2083 C 0.00501 0.59394 0.59746 0.0
C2084 C 0.00345 0.59003 0.49135 0.0
C2085 C 0.97695 0.5751 0.43328 0.0
C2086 C 0.98462 0.57992 0.46649 0.0
C2087 C 0.00726 0.59044 0.56229 0.0
C2088 C -0.00052 0.58743 0.52937 0.0
H2089 H 0.97434 0.58114 0.34006 0.0
H2090 H 0.98524 0.58987 0.39776 0.0
H2091 H -0.00054 0.5881 0.43126 0.0
H2092 H 0.0302 0.58935 0.58929 0.0
H2093 H 0.01853 0.58636 0.53296 0.0
C2094 C 0.41818 0.40459 0.36675 0.0
C2095 C 0.42583 0.40086 0.36965 0.0
C2096 C 0.41309 0.4057 0.39967 0.0
C2097 C 0.417 0.40883 0.50543 0.0
H2098 H 0.38795 0.40621 0.5019 0.0
C2099 C 0.39696 0.41518 0.6395 0.0
C2100 C 0.39493 0.42406 0.63573 0.0
C2101 C 0.39895 0.41055 0.607 0.0
C2102 C 0.39605 0.40693 0.50314 0.0
H2103 H 0.43376 0.39482 0.40877 0.0
H2104 H 0.42448 0.39628 0.46637 0.0
H2105 H 0.39478 0.40081 0.44568 0.0
H2106 H 0.39257 0.43452 0.59492 0.0
H2107 H 0.39589 0.42622 0.53768 0.0
H2108 H 0.41814 0.41477 0.56316 0.0
C2109 C 0.4227 0.39874 0.43883 0.0
C2110 C 0.40001 0.40391 0.471 0.0
C2111 C 0.42798 0.39784 0.40588 0.0
C2112 C 0.39418 0.42773 0.59863 0.0
C2113 C 0.39603 0.42297 0.56598 0.0
C2114 C 0.41295 0.41162 0.53771 0.0
C2115 C 0.41536 0.40291 0.43622 0.0
C2116 C 0.41063 0.40502 0.47151 0.0
C2117 C 0.39876 0.41459 0.57011 0.0
C2118 C 0.40253 0.41085 0.53661 0.0
H2119 H 0.41641 0.40703 0.33915 0.0
H2120 H 0.40767 0.40914 0.39645 0.0
H2121 H 0.42529 0.41004 0.50675 0.0
H2122 H 0.39752 0.41211 0.66768 0.0
H2123 H 0.40097 0.40404 0.61073 0.0
C2124 C 0.0686 0.30293 0.20897 0.0
C2125 C 0.06965 0.30948 0.17669 0.0
C2126 C 0.06941 0.30717 0.24626 0.0
C2127 C 0.08268 0.33422 0.29436 0.0
H2128 H 0.06719 0.3173 0.38509 0.0
C2129 C 0.0928 0.35316 0.44798 0.0
C2130 C 0.09366 0.34641 0.47635 0.0
C2131 C 0.08845 0.34881 0.4115 0.0
C2132 C 0.0716 0.32212 0.35997 0.0
H2133 H 0.07127 0.32508 0.15784 0.0
H2134 H 0.07241 0.33232 0.22256 0.0
H2135 H 0.06147 0.30888 0.32118 0.0
H2136 H 0.09073 0.32983 0.48842 0.0
H2137 H 0.08339 0.32241 0.42518 0.0
H2138 H 0.09301 0.34734 0.33301 0.0
C2139 C 0.07134 0.3241 0.2193 0.0
C2140 C 0.06832 0.31729 0.32345 0.0
C2141 C 0.07064 0.31993 0.18226 0.0
C2142 C 0.09015 0.33528 0.46741 0.0
C2143 C 0.08582 0.33096 0.43119 0.0
C2144 C 0.08596 0.33904 0.33081 0.0
C2145 C 0.07119 0.31796 0.25166 0.0
C2146 C 0.07393 0.32325 0.29031 0.0
C2147 C 0.08487 0.33764 0.40286 0.0
C2148 C 0.08059 0.33297 0.36405 0.0
H2149 H 0.06784 0.29485 0.2054 0.0
H2150 H 0.06928 0.30225 0.27069 0.0
H2151 H 0.0873 0.33898 0.26942 0.0
H2152 H 0.09538 0.36174 0.45401 0.0
H2153 H 0.08778 0.35414 0.39021 0.0
C2154 C 0.63877 0.74452 0.44779 0.0
C2155 C 0.64455 0.7437 0.47957 0.0
C2156 C 0.64322 0.74596 0.41059 0.0
C2157 C 0.67023 0.75499 0.36158 0.0
H2158 H 0.65171 0.74405 0.27053 0.0
C2159 C 0.68764 0.76882 0.20735 0.0
C2160 C 0.68232 0.76139 0.17692 0.0
C2161 C 0.68337 0.76612 0.24485 0.0
C2162 C 0.65705 0.74702 0.29561 0.0
H2163 H 0.65907 0.74297 0.49754 0.0
H2164 H 0.6665 0.74482 0.43286 0.0
H2165 H 0.6432 0.73968 0.33389 0.0
H2166 H 0.66893 0.74505 0.1618 0.0
H2167 H 0.66189 0.74004 0.22725 0.0
H2168 H 0.68411 0.76189 0.32341 0.0
C2169 C 0.65884 0.74492 0.43639 0.0
C2170 C 0.65212 0.74467 0.33207 0.0
C2171 C 0.65452 0.74374 0.47346 0.0
C2172 C 0.6731 0.75097 0.18482 0.0
C2173 C 0.669 0.74817 0.22229 0.0
C2174 C 0.67516 0.75717 0.32516 0.0
C2175 C 0.65343 0.74637 0.40454 0.0
C2176 C 0.65864 0.74866 0.36558 0.0
C2177 C 0.67384 0.75583 0.25263 0.0
C2178 C 0.66865 0.75326 0.29164 0.0
H2179 H 0.6311 0.74458 0.45189 0.0
H2180 H 0.63886 0.74715 0.3869 0.0
H2181 H 0.67554 0.75841 0.38658 0.0
H2182 H 0.69471 0.77695 0.20181 0.0
H2183 H 0.68728 0.77229 0.26729 0.0
C2184 C 0.23691 0.91164 0.17278 0.0
C2185 C 0.23008 0.9163 0.16744 0.0
C2186 C 0.24017 0.91044 0.20964 0.0
C2187 C 0.24252 0.91968 0.31086 0.0
H2188 H 0.24093 0.89157 0.33262 0.0
C2189 C 0.24191 0.9041 0.4648 0.0
C2190 C 0.24779 0.89854 0.47271 0.0
C2191 C 0.24105 0.90715 0.42722 0.0
C2192 C 0.24161 0.89953 0.32684 0.0
H2193 H 0.22157 0.92365 0.19669 0.0
H2194 H 0.22714 0.92137 0.26162 0.0
H2195 H 0.2367 0.89529 0.268 0.0
H2196 H 0.25755 0.89199 0.44725 0.0
H2197 H 0.25599 0.89731 0.38106 0.0
H2198 H 0.24722 0.9238 0.37007 0.0
C2199 C 0.23006 0.91876 0.237 0.0
C2200 C 0.23916 0.90166 0.28983 0.0
C2201 C 0.22683 0.92003 0.19988 0.0
C2202 C 0.25294 0.89624 0.44209 0.0
C2203 C 0.25202 0.89925 0.40424 0.0
C2204 C 0.24495 0.91753 0.34794 0.0
C2205 C 0.23663 0.91379 0.24224 0.0
C2206 C 0.23951 0.91173 0.28147 0.0
C2207 C 0.24601 0.90469 0.39647 0.0
C2208 C 0.24441 0.90738 0.3564 0.0
H2209 H 0.23972 0.90882 0.14841 0.0
H2210 H 0.24543 0.90682 0.21258 0.0
H2211 H 0.24304 0.92757 0.30518 0.0
H2212 H 0.23786 0.90606 0.48764 0.0
H2213 H 0.23623 0.91117 0.42215 0.0
C2214 C 0.33526 0.08791 0.51594 0.0
C2215 C 0.34667 0.09416 0.50808 0.0
C2216 C 0.33145 0.085 0.55368 0.0
C2217 C 0.33964 0.09391 0.65364 0.0
H2218 H 0.3139 0.0655 0.67811 0.0
C2219 C 0.30554 0.07351 0.78355 0.0
C2220 C 0.31276 0.07737 0.81539 0.0
C2221 C 0.30975 0.07466 0.74605 0.0
C2222 C 0.32104 0.07349 0.6716 0.0
H2223 H 0.36304 0.10197 0.53378 0.0
H2224 H 0.35635 0.09679 0.60005 0.0
H2225 H 0.32155 0.06902 0.61281 0.0
H2226 H 0.33002 0.08503 0.83289 0.0
H2227 H 0.33724 0.08692 0.76801 0.0
H2228 H 0.33909 0.09844 0.71221 0.0
C2229 C 0.35037 0.09428 0.5768 0.0
C2230 C 0.32544 0.07551 0.63428 0.0
C2231 C 0.35421 0.0972 0.53887 0.0
C2232 C 0.3242 0.08208 0.80905 0.0
C2233 C 0.32838 0.08321 0.7718 0.0
C2234 C 0.33527 0.09189 0.6909 0.0
C2235 C 0.33894 0.08824 0.5846 0.0
C2236 C 0.33474 0.08577 0.62483 0.0
C2237 C 0.32124 0.0797 0.73984 0.0
C2238 C 0.32589 0.08169 0.70025 0.0
H2239 H 0.32919 0.08539 0.49297 0.0
H2240 H 0.32259 0.0805 0.55868 0.0
H2241 H 0.34667 0.10197 0.64713 0.0
H2242 H 0.29669 0.06984 0.78747 0.0
H2243 H 0.30405 0.07192 0.72189 0.0
C2244 C 0.91794 0.22904 0.77983 0.0
C2245 C 0.91311 0.23121 0.81178 0.0
C2246 C 0.91664 0.23219 0.74265 0.0
C2247 C 0.8981 0.23878 0.6869 0.0
H2248 H 0.92212 0.25123 0.61275 0.0
C2249 C 0.89292 0.25328 0.53607 0.0
C2250 C 0.89679 0.24956 0.50532 0.0
C2251 C 0.89573 0.25234 0.57419 0.0
C2252 C 0.91533 0.24773 0.63313 0.0
H2253 H 0.90338 0.2387 0.82976 0.0
H2254 H 0.90124 0.24423 0.76547 0.0
H2255 H 0.92542 0.24668 0.67774 0.0
H2256 H 0.90701 0.24236 0.4904 0.0
H2257 H 0.91176 0.24068 0.5564 0.0
H2258 H 0.88796 0.23967 0.64227 0.0
C2259 C 0.90585 0.23992 0.76889 0.0
C2260 C 0.91721 0.24508 0.67026 0.0
C2261 C 0.90714 0.23678 0.80583 0.0
C2262 C 0.90382 0.24526 0.51337 0.0
C2263 C 0.90664 0.24438 0.55127 0.0
C2264 C 0.89622 0.24142 0.64983 0.0
C2265 C 0.91047 0.23757 0.73682 0.0
C2266 C 0.9086 0.24052 0.69747 0.0
C2267 C 0.9025 0.24775 0.58215 0.0
C2268 C 0.90478 0.24584 0.62243 0.0
H2269 H 0.9226 0.22478 0.78344 0.0
H2270 H 0.92023 0.2302 0.71841 0.0
H2271 H 0.89125 0.23513 0.70702 0.0
H2272 H 0.88752 0.25665 0.53081 0.0
H2273 H 0.89251 0.25512 0.59745 0.0
C2274 C 0.76343 0.6898 0.78177 0.0
C2275 C 0.76095 0.68228 0.81233 0.0
C2276 C 0.76046 0.68594 0.74385 0.0
C2277 C 0.74208 0.66075 0.68699 0.0
H2278 H 0.76428 0.67494 0.60721 0.0
C2279 C 0.73956 0.64077 0.5375 0.0
C2280 C 0.74319 0.64792 0.50547 0.0
C2281 C 0.74083 0.64508 0.57493 0.0
C2282 C 0.75792 0.67096 0.62902 0.0
H2283 H 0.7532 0.66479 0.82702 0.0
H2284 H 0.74819 0.65817 0.76136 0.0
H2285 H 0.76806 0.68263 0.6722 0.0
H2286 H 0.7505 0.66513 0.48752 0.0
H2287 H 0.75255 0.67251 0.55225 0.0
H2288 H 0.73201 0.64899 0.6438 0.0
C2289 C 0.7523 0.66702 0.76656 0.0
C2290 C 0.76009 0.6754 0.66624 0.0
C2291 C 0.75528 0.67085 0.80424 0.0
C2292 C 0.74776 0.65938 0.51154 0.0
C2293 C 0.74898 0.66364 0.54871 0.0
C2294 C 0.73991 0.65631 0.64971 0.0
C2295 C 0.75491 0.6745 0.73589 0.0
C2296 C 0.75223 0.67029 0.69572 0.0
C2297 C 0.74573 0.65658 0.58088 0.0
C2298 C 0.74784 0.66134 0.62038 0.0
H2299 H 0.76776 0.69865 0.78705 0.0
H2300 H 0.76251 0.6919 0.72076 0.0
H2301 H 0.73581 0.6567 0.70904 0.0
H2302 H 0.73601 0.63192 0.53374 0.0
H2303 H 0.7383 0.63943 0.59922 0.0
C2304 C 0.9041 0.65797 0.51193 0.0
C2305 C 0.89727 0.64651 0.5059 0.0
C2306 C 0.90706 0.66226 0.54911 0.0
C2307 C 0.90875 0.65499 0.65026 0.0
H2308 H 0.90676 0.68126 0.67235 0.0
C2309 C 0.90794 0.66966 0.80464 0.0
C2310 C 0.91362 0.68111 0.81253 0.0
C2311 C 0.90708 0.66578 0.76702 0.0
C2312 C 0.90754 0.67404 0.66651 0.0
H2313 H 0.88847 0.63052 0.53429 0.0
H2314 H 0.89357 0.63807 0.59974 0.0
H2315 H 0.9029 0.67353 0.6074 0.0
H2316 H 0.92304 0.69745 0.78696 0.0
H2317 H 0.92155 0.69062 0.72081 0.0
H2318 H 0.91324 0.65543 0.70964 0.0
C2319 C 0.89669 0.6437 0.57542 0.0
C2320 C 0.9053 0.66959 0.62931 0.0
C2321 C 0.89373 0.63938 0.53799 0.0
C2322 C 0.91859 0.68859 0.78184 0.0
C2323 C 0.91769 0.68468 0.74399 0.0
C2324 C 0.91099 0.65945 0.68752 0.0
C2325 C 0.90324 0.65521 0.58132 0.0
C2326 C 0.90583 0.65998 0.62081 0.0
C2327 C 0.91187 0.67323 0.73622 0.0
C2328 C 0.91032 0.66897 0.6961 0.0
H2329 H 0.9071 0.6637 0.48787 0.0
H2330 H 0.91231 0.67113 0.55263 0.0
H2331 H 0.90938 0.64768 0.64447 0.0
H2332 H 0.90401 0.66364 0.82752 0.0
H2333 H 0.9024 0.65692 0.76197 0.0
C2334 C 0.31743 0.24361 0.80111 0.0
C2335 C 0.30809 0.23325 0.80856 0.0
C2336 C 0.32156 0.24655 0.7637 0.0
C2337 C 0.31526 0.23811 0.66033 0.0
H2338 H 0.34725 0.25516 0.65166 0.0
C2339 C 0.33603 0.25172 0.51207 0.0
C2340 C 0.34588 0.25155 0.50583 0.0
C2341 C 0.33171 0.25053 0.54917 0.0
C2342 C 0.33831 0.25029 0.65344 0.0
H2343 H 0.29551 0.21792 0.78289 0.0
H2344 H 0.30297 0.22279 0.7175 0.0
H2345 H 0.33875 0.25063 0.715 0.0
H2346 H 0.35912 0.25024 0.53338 0.0
H2347 H 0.35137 0.24766 0.5983 0.0
H2348 H 0.31486 0.23715 0.59882 0.0
C2349 C 0.30697 0.22883 0.74028 0.0
C2350 C 0.33339 0.24785 0.68991 0.0
C2351 C 0.30268 0.226 0.77774 0.0
C2352 C 0.35155 0.25049 0.53754 0.0
C2353 C 0.34709 0.24904 0.57473 0.0
C2354 C 0.32019 0.24038 0.62386 0.0
C2355 C 0.31661 0.23906 0.73293 0.0
C2356 C 0.32179 0.24176 0.69389 0.0
C2357 C 0.337 0.24885 0.58091 0.0
C2358 C 0.33179 0.24654 0.61989 0.0
H2359 H 0.32168 0.2494 0.82442 0.0
H2360 H 0.32876 0.25463 0.75911 0.0
H2361 H 0.30631 0.23351 0.66208 0.0
H2362 H 0.33156 0.25266 0.48808 0.0
H2363 H 0.32413 0.25079 0.55281 0.0
C2364 C 0.7625 0.07348 0.78085 0.0
C2365 C 0.76173 0.07996 0.81046 0.0
C2366 C 0.75903 0.074 0.74331 0.0
C2367 C 0.74149 0.08238 0.68896 0.0
H2368 H 0.76027 0.08506 0.6024 0.0
C2369 C 0.73723 0.09738 0.53707 0.0
C2370 C 0.73928 0.09246 0.50509 0.0
C2371 C 0.73886 0.09472 0.57461 0.0
C2372 C 0.75484 0.08415 0.62618 0.0
H2373 H 0.75675 0.09212 0.82367 0.0
H2374 H 0.75087 0.09306 0.75865 0.0
H2375 H 0.76531 0.0823 0.66712 0.0
H2376 H 0.74394 0.08038 0.48744 0.0
H2377 H 0.74657 0.07565 0.55252 0.0
H2378 H 0.73109 0.08438 0.64802 0.0
C2379 C 0.75397 0.08745 0.76441 0.0
C2380 C 0.75773 0.08256 0.66326 0.0
C2381 C 0.75744 0.08696 0.80169 0.0
C2382 C 0.74245 0.08446 0.51143 0.0
C2383 C 0.74402 0.08177 0.54876 0.0
C2384 C 0.73859 0.08396 0.65185 0.0
C2385 C 0.75469 0.08097 0.7348 0.0
C2386 C 0.75116 0.08178 0.6951 0.0
C2387 C 0.74251 0.08706 0.58075 0.0
C2388 C 0.74528 0.08495 0.62009 0.0
H2389 H 0.76573 0.06799 0.78667 0.0
H2390 H 0.75963 0.06886 0.72104 0.0
H2391 H 0.73618 0.08166 0.71292 0.0
H2392 H 0.73478 0.10357 0.53309 0.0
H2393 H 0.73768 0.09897 0.59871 0.0
C2394 C 0.67079 0.9204 0.181 0.0
C2395 C 0.68019 0.91947 0.17379 0.0
C2396 C 0.66662 0.91922 0.21835 0.0
C2397 C 0.67287 0.91717 0.32189 0.0
H2398 H 0.64086 0.90196 0.33017 0.0
C2399 C 0.65198 0.90962 0.46995 0.0
C2400 C 0.64217 0.89953 0.47601 0.0
C2401 C 0.6563 0.91284 0.43289 0.0
C2402 C 0.6498 0.90611 0.3285 0.0
H2403 H 0.69283 0.91688 0.19981 0.0
H2404 H 0.68531 0.91429 0.26507 0.0
H2405 H 0.64943 0.90605 0.26693 0.0
H2406 H 0.62901 0.88498 0.44825 0.0
H2407 H 0.63678 0.89031 0.38338 0.0
H2408 H 0.67322 0.91655 0.38339 0.0
C2409 C 0.6813 0.91627 0.24216 0.0
C2410 C 0.65476 0.90866 0.29208 0.0
C2411 C 0.68562 0.91773 0.20478 0.0
C2412 C 0.63655 0.89284 0.4442 0.0
C2413 C 0.64101 0.89594 0.40706 0.0
C2414 C 0.66791 0.91444 0.35829 0.0
C2415 C 0.6716 0.91677 0.24928 0.0
C2416 C 0.66637 0.91426 0.28825 0.0
C2417 C 0.65106 0.90591 0.40103 0.0
C2418 C 0.6563 0.9089 0.36213 0.0
H2419 H 0.66653 0.92186 0.15754 0.0
H2420 H 0.65937 0.92003 0.22276 0.0
H2421 H 0.68182 0.92159 0.32025 0.0
H2422 H 0.6564 0.915 0.49404 0.0
H2423 H 0.66383 0.92072 0.42939 0.0
C2424 C 0.0925 0.75522 0.4666 0.0
C2425 C 0.09732 0.74867 0.47499 0.0
C2426 C 0.0891 0.75575 0.42926 0.0
C2427 C 0.0944 0.75265 0.32842 0.0
H2428 H 0.06689 0.75264 0.31094 0.0
C2429 C 0.07345 0.76726 0.20281 0.0
C2430 C 0.07643 0.76328 0.17037 0.0
C2431 C 0.07498 0.76432 0.24005 0.0
C2432 C 0.07463 0.75275 0.31542 0.0
H2433 H 0.10229 0.73748 0.45055 0.0
H2434 H 0.09638 0.7385 0.38471 0.0
H2435 H 0.07149 0.7493 0.37579 0.0
H2436 H 0.08272 0.75259 0.15141 0.0
H2437 H 0.08515 0.74734 0.21584 0.0
H2438 H 0.09771 0.75637 0.26842 0.0
C2439 C 0.09527 0.74322 0.40738 0.0
C2440 C 0.07725 0.7508 0.35247 0.0
C2441 C 0.09864 0.74262 0.44501 0.0
C2442 C 0.08051 0.75597 0.17581 0.0
C2443 C 0.08196 0.75298 0.21279 0.0
C2444 C 0.09181 0.75464 0.29143 0.0
C2445 C 0.09046 0.74979 0.39923 0.0
C2446 C 0.08722 0.75085 0.3594 0.0
C2447 C 0.07944 0.75729 0.24536 0.0
C2448 C 0.08194 0.7548 0.28456 0.0
H2449 H 0.09133 0.75999 0.48892 0.0
H2450 H 0.08559 0.76103 0.42378 0.0
H2451 H 0.10222 0.75292 0.33301 0.0
H2452 H 0.07027 0.7729 0.19949 0.0
H2453 H 0.07302 0.76783 0.26462 0.0
C2454 C 0.22498 0.30504 0.19943 0.0
C2455 C 0.23134 0.31057 0.16694 0.0
C2456 C 0.22831 0.30976 0.23616 0.0
C2457 C 0.24659 0.33714 0.28247 0.0
H2458 H 0.23902 0.31926 0.37514 0.0
C2459 C 0.24912 0.35534 0.43478 0.0
C2460 C 0.25096 0.35013 0.46624 0.0
C2461 C 0.24805 0.35099 0.39755 0.0
C2462 C 0.24141 0.32444 0.34962 0.0
H2463 H 0.24648 0.32489 0.14724 0.0
H2464 H 0.25261 0.33279 0.21119 0.0
H2465 H 0.23496 0.31029 0.31259 0.0
H2466 H 0.25397 0.33695 0.48378 0.0
H2467 H 0.25286 0.32981 0.41886 0.0
H2468 H 0.25348 0.35131 0.31948 0.0
C2469 C 0.2448 0.32512 0.20854 0.0
C2470 C 0.23887 0.31924 0.3136 0.0
C2471 C 0.24136 0.32054 0.17189 0.0
C2472 C 0.25245 0.34102 0.45982 0.0
C2473 C 0.25167 0.33686 0.42266 0.0
C2474 C 0.24932 0.34235 0.31848 0.0
C2475 C 0.23817 0.31998 0.24108 0.0
C2476 C 0.24133 0.32551 0.27951 0.0
C2477 C 0.24903 0.34151 0.39119 0.0
C2478 C 0.24668 0.33607 0.35259 0.0
H2479 H 0.21719 0.29738 0.19622 0.0
H2480 H 0.2229 0.30559 0.26038 0.0
H2481 H 0.24845 0.34227 0.25698 0.0
H2482 H 0.24785 0.36232 0.43928 0.0
H2483 H 0.24593 0.35476 0.37418 0.0
C2484 C 0.01848 0.42821 0.87192 0.0
C2485 C 0.01319 0.43183 0.84603 0.0
C2486 C 0.01412 0.42456 0.90895 0.0
C2487 C 0.98814 0.41519 0.9655 0.0
H2488 H 0.00763 0.42254 0.05384 0.0
C2489 C 0.9873 0.42098 0.14007 0.0
C2490 C 0.97698 0.41183 0.14968 0.0
C2491 C 0.99165 0.42209 0.10311 0.0
C2492 C 0.00206 0.42047 0.0295 0.0
H2493 H -0.0005 0.43494 0.8391 0.0
H2494 H 0.99223 0.42907 0.9036 0.0
H2495 H 0.01549 0.42742 0.98936 0.0
H2496 H 0.96313 0.3966 0.12803 0.0
H2497 H 0.97087 0.39838 0.06328 0.0
H2498 H 0.97474 0.40888 0.00572 0.0
C2499 C -0.00055 0.42857 0.89516 0.0
C2500 C 0.00658 0.42313 0.99241 0.0
C2501 C 0.00369 0.43205 0.85821 0.0
C2502 C 0.97108 0.40378 0.12138 0.0
C2503 C 0.97551 0.40482 0.0843 0.0
C2504 C 0.98363 0.41267 0.0026 0.0
C2505 C 0.00447 0.4246 0.92085 0.0
C2506 C -0.00032 0.42075 0.96 0.0
C2507 C 0.98587 0.41401 0.07475 0.0
C2508 C 0.99054 0.41551 0.03514 0.0
H2509 H 0.02578 0.4279 0.8632 0.0
H2510 H 0.01818 0.42151 0.92792 0.0
H2511 H 0.98255 0.41297 0.94114 0.0
H2512 H 0.99202 0.42742 0.16105 0.0
H2513 H -0.00052 0.42944 0.09665 0.0
C2514 C 0.58085 0.57468 0.13792 0.0
C2515 C 0.58399 0.56665 0.14426 0.0
C2516 C 0.57907 0.57721 0.10064 0.0
C2517 C 0.56779 0.57463 0.02415 0.0
H2518 H 0.58556 0.57615 0.93586 0.0
C2519 C 0.55939 0.58463 0.86931 0.0
C2520 C 0.55966 0.57774 0.84016 0.0
C2521 C 0.56304 0.58426 0.9067 0.0
C2522 C 0.5805 0.5757 0.96028 0.0
H2523 H 0.58819 0.55532 0.11635 0.0
H2524 H 0.58488 0.5596 0.05078 0.0
H2525 H 0.5911 0.57376 0.00045 0.0
H2526 H 0.56389 0.56499 0.82768 0.0
H2527 H 0.57011 0.56434 0.89241 0.0
H2528 H 0.55714 0.57645 0.98394 0.0
C2529 C 0.58391 0.56402 0.07482 0.0
C2530 C 0.58366 0.57431 -0.00279 0.0
C2531 C 0.58578 0.56154 0.11232 0.0
C2532 C 0.56358 0.57046 0.84928 0.0
C2533 C 0.56726 0.57013 0.88639 0.0
C2534 C 0.56466 0.57605 0.98725 0.0
C2535 C 0.5803 0.57171 0.06871 0.0
C2536 C 0.57728 0.57365 0.02952 0.0
C2537 C 0.56708 0.57705 0.91546 0.0
C2538 C 0.5709 0.57646 0.95489 0.0
H2539 H 0.57958 0.57892 0.16189 0.0
H2540 H 0.57657 0.58337 0.09689 0.0
H2541 H 0.56259 0.57397 0.04836 0.0
H2542 H 0.55644 0.59034 0.86322 0.0
H2543 H 0.56285 0.58971 0.92861 0.0
C2544 C 0.41559 0.0047 0.14578 0.0
C2545 C 0.42378 0.01584 0.15129 0.0
C2546 C 0.41232 0.0004 0.10874 0.0
C2547 C 0.41328 0.00768 0.00574 0.0
H2548 H 0.41228 0.97961 0.98957 0.0
C2549 C 0.41673 0.99236 0.8557 0.0
C2550 C 0.41031 0.981 0.84692 0.0
C2551 C 0.41684 0.99621 0.89286 0.0
C2552 C 0.41231 0.98734 -0.0063 0.0
H2553 H 0.43457 0.03136 0.12228 0.0
H2554 H 0.42894 0.02377 0.0571 0.0
H2555 H 0.41525 0.98741 0.05427 0.0
H2556 H 0.39887 0.9648 0.87042 0.0
H2557 H 0.39906 0.97159 0.93582 0.0
H2558 H 0.41055 0.00769 0.94491 0.0
C2559 C 0.42499 0.0184 0.08164 0.0
C2560 C 0.41404 0.99183 0.03077 0.0
C2561 C 0.42825 0.02275 0.11891 0.0
C2562 C 0.40393 0.97358 0.87628 0.0
C2563 C 0.40406 0.97747 0.91369 0.0
C2564 C 0.41153 0.00318 0.96863 0.0
C2565 C 0.4172 0.00711 0.07625 0.0
C2566 C 0.41468 0.00211 0.03713 0.0
C2567 C 0.41054 0.98884 0.92231 0.0
C2568 C 0.41121 0.99304 0.96213 0.0
H2569 H 0.41184 -0.00081 0.17014 0.0
H2570 H 0.40611 0.99173 0.10554 0.0
H2571 H 0.41358 0.01554 0.00985 0.0
H2572 H 0.42177 -0.00167 0.83388 0.0
H2573 H 0.42208 0.00498 0.89868 0.0
C2574 C 0.56328 0.97246 0.87534 0.0
C2575 C 0.56511 0.98001 0.84544 0.0
C2576 C 0.56665 0.97626 0.91311 0.0
C2577 C 0.58491 0.00165 0.96963 0.0
H2578 H 0.56371 0.98662 0.05165 0.0
C2579 C 0.58663 0.02156 0.11839 0.0
C2580 C 0.5835 0.01458 0.15083 0.0
C2581 C 0.58571 0.01718 0.08128 0.0
C2582 C 0.5698 0.99082 0.0292 0.0
H2583 H 0.57212 -0.0025 0.83173 0.0
H2584 H 0.57779 0.004 0.89709 0.0
H2585 H 0.55968 0.97887 0.98677 0.0
H2586 H 0.57764 -0.00231 0.16998 0.0
H2587 H 0.5762 0.99016 0.10571 0.0
H2588 H 0.59491 0.01376 0.01206 0.0
C2589 C 0.57391 0.99518 0.8915 0.0
C2590 C 0.5675 0.98636 0.99203 0.0
C2591 C 0.57055 0.99141 0.85398 0.0
C2592 C 0.57995 0.00328 0.14557 0.0
C2593 C 0.57908 -0.00107 0.10871 0.0
C2594 C 0.58721 0.00613 0.00684 0.0
C2595 C 0.57196 0.98767 0.92155 0.0
C2596 C 0.57495 0.9918 0.96172 0.0
C2597 C 0.5817 0.00576 0.0761 0.0
C2598 C 0.57962 0.00082 0.03692 0.0
H2599 H 0.55916 0.96364 0.86968 0.0
H2600 H 0.5651 0.97028 0.93571 0.0
H2601 H 0.59089 0.00596 0.94694 0.0
H2602 H 0.5894 0.0303 0.12153 0.0
H2603 H 0.58774 0.02264 0.05662 0.0
C2604 C 0.00038 0.57528 0.85325 0.0
C2605 C 0.0118 0.58125 0.84524 0.0
C2606 C -0.00349 0.57447 0.89083 0.0
C2607 C 0.00479 0.57539 0.99127 0.0
H2608 H 0.97815 0.57674 0.01254 0.0
C2609 C 0.96966 0.56083 0.11832 0.0
C2610 C 0.97666 0.56419 0.15073 0.0
C2611 C 0.97411 0.56397 0.08115 0.0
C2612 C 0.98554 0.57625 0.00698 0.0
H2613 H 0.02809 0.59121 0.87054 0.0
H2614 H 0.02127 0.58973 0.93672 0.0
H2615 H 0.98602 0.58074 0.94758 0.0
H2616 H 0.99377 0.57395 0.16965 0.0
H2617 H 0.00142 0.57952 0.10538 0.0
H2618 H 0.00422 0.57068 0.05031 0.0
C2619 C 0.01536 0.58565 0.91362 0.0
C2620 C 0.99007 0.57857 0.96986 0.0
C2621 C 0.01926 0.58653 0.87577 0.0
C2622 C 0.98813 0.57106 0.1453 0.0
C2623 C 0.99255 0.57423 0.10839 0.0
C2624 C 0.00026 0.57304 0.02833 0.0
C2625 C 0.00393 0.57957 0.92147 0.0
C2626 C -0.00032 0.57806 0.96154 0.0
C2627 C 0.98563 0.57058 0.07582 0.0
C2628 C 0.99054 0.57337 0.03655 0.0
H2629 H 0.99437 0.57113 0.83048 0.0
H2630 H 0.98768 0.56958 0.89598 0.0
H2631 H 0.01209 0.57475 0.98561 0.0
H2632 H 0.96079 0.55554 0.12157 0.0
H2633 H 0.96857 0.56096 0.05657 0.0
C2634 C 0.42232 0.41727 0.14549 0.0
C2635 C 0.42895 0.41254 0.15374 0.0
C2636 C 0.41936 0.41798 0.10765 0.0
C2637 C 0.4288 0.41965 0.00859 0.0
H2638 H 0.39963 0.41486 0.98282 0.0
C2639 C 0.41711 0.42378 0.85322 0.0
C2640 C 0.41115 0.42937 0.84739 0.0
C2641 C 0.41857 0.42079 0.89017 0.0
C2642 C 0.40783 0.41633 0.98968 0.0
H2643 H 0.43744 0.40457 0.12866 0.0
H2644 H 0.43226 0.40585 0.06199 0.0
H2645 H 0.40328 0.41065 0.04785 0.0
H2646 H 0.4019 0.43604 0.87594 0.0
H2647 H 0.40464 0.43095 0.94106 0.0
H2648 H 0.43345 0.42553 0.95081 0.0
C2649 C 0.42943 0.40906 0.08511 0.0
C2650 C 0.40991 0.41387 0.02681 0.0
C2651 C 0.43235 0.40828 0.12322 0.0
C2652 C 0.40654 0.43175 0.87949 0.0
C2653 C 0.40805 0.42878 0.9167 0.0
C2654 C 0.42673 0.42213 0.97153 0.0
C2655 C 0.42297 0.414 0.077 0.0
C2656 C 0.42045 0.41561 0.03673 0.0
C2657 C 0.41418 0.42336 0.9224 0.0
C2658 C 0.41625 0.42056 0.96172 0.0
H2659 H 0.41949 0.42058 0.16827 0.0
H2660 H 0.4145 0.42196 0.10232 0.0
H2661 H 0.43705 0.42127 0.01556 0.0
H2662 H 0.42067 0.42167 0.82917 0.0
H2663 H 0.42313 0.41642 0.89345 0.0
loop_
_geom_bond_atom_site_label_1
_geom_bond_atom_site_label_2
_geom_bond_distance
_geom_bond_site_symmetry_2
_ccdc_geom_bond_type
C0 O1 1.306 . S
C0 O3 1.160 . S
O1 C0 1.306 . S
O1 Cd2 2.228 . S
Cd2 O1 2.228 . S
Cd2 O6 2.273 . S
Cd2 O10 2.277 . S
O3 C0 1.160 . S
O3 Cd4 2.203 . S
Cd4 O3 2.203 . S
Cd4 O6 2.411 . S
Cd4 O7 2.333 1_554 S
Cd4 O8 2.352 . S
Cd4 O12 2.277 . S
Cd4 O13 2.356 . S
C5 O10 1.209 . S
C5 O12 1.226 . S
O6 Cd2 2.273 . S
O6 Cd4 2.411 . S
O6 C9 1.336 . S
O7 Cd4 2.333 1_556 S
O7 C9 1.213 1_556 S
O8 Cd4 2.352 . S
O8 C11 1.258 . S
C9 O6 1.336 . S
C9 O7 1.213 1_554 S
O10 Cd2 2.277 . S
O10 C5 1.209 . S
C11 O8 1.258 . S
C11 O13 1.282 . S
O12 Cd4 2.277 . S
O12 C5 1.226 . S
O13 Cd4 2.356 . S
O13 C11 1.282 . S
C14 O15 1.306 . S
C14 O17 1.160 . S
O15 C14 1.306 . S
O15 Cd16 2.228 . S
Cd16 O15 2.228 . S
Cd16 O20 2.273 . S
Cd16 O24 2.277 . S
O17 C14 1.160 . S
O17 Cd18 2.203 . S
Cd18 O17 2.203 . S
Cd18 O20 2.411 . S
Cd18 O21 2.333 1_554 S
Cd18 O22 2.352 . S
Cd18 O26 2.277 . S
Cd18 O27 2.356 . S
C19 O24 1.209 . S
C19 O26 1.226 . S
O20 Cd16 2.273 . S
O20 Cd18 2.411 . S
O20 C23 1.337 . S
O21 Cd18 2.333 1_556 S
O21 C23 1.213 1_556 S
O22 Cd18 2.352 . S
O22 C25 1.258 . S
C23 O20 1.337 . S
C23 O21 1.213 1_554 S
O24 Cd16 2.277 . S
O24 C19 1.209 . S
C25 O22 1.258 . S
C25 O27 1.282 . S
O26 Cd18 2.277 . S
O26 C19 1.226 . S
O27 Cd18 2.356 . S
O27 C25 1.282 . S
C28 O29 1.306 . S
C28 O31 1.160 . S
O29 C28 1.306 . S
O29 Cd30 2.228 . S
Cd30 O29 2.228 . S
Cd30 O34 2.273 . S
Cd30 O38 2.277 . S
O31 C28 1.160 . S
O31 Cd32 2.203 . S
Cd32 O31 2.203 . S
Cd32 O34 2.411 . S
Cd32 O35 2.333 1_554 S
Cd32 O36 2.352 . S
Cd32 O40 2.277 . S
Cd32 O41 2.356 . S
C33 O38 1.209 . S
C33 O40 1.226 . S
O34 Cd30 2.273 . S
O34 Cd32 2.411 . S
O34 C37 1.340 . S
O35 Cd32 2.333 1_556 S
O35 C37 1.212 1_556 S
O36 Cd32 2.352 . S
O36 C39 1.258 . S
C37 O34 1.340 . S
C37 O35 1.212 1_554 S
O38 Cd30 2.277 . S
O38 C33 1.209 . S
C39 O36 1.258 . S
C39 O41 1.282 . S
O40 Cd32 2.277 . S
O40 C33 1.226 . S
O41 Cd32 2.356 . S
O41 C39 1.282 . S
C42 O43 1.306 . S
C42 O45 1.160 . S
O43 C42 1.306 . S
O43 Cd44 2.228 . S
Cd44 O43 2.228 . S
Cd44 O48 2.273 . S
Cd44 O52 2.277 . S
O45 C42 1.160 . S
O45 Cd46 2.203 . S
Cd46 O45 2.203 . S
Cd46 O48 2.411 . S
Cd46 O49 2.333 1_556 S
Cd46 O50 2.352 . S
Cd46 O54 2.277 . S
Cd46 O55 2.356 . S
C47 O52 1.209 . S
C47 O54 1.226 . S
O48 Cd44 2.273 . S
O48 Cd46 2.411 . S
O48 C51 1.336 . S
O49 Cd46 2.333 1_554 S
O49 C51 1.213 1_554 S
O50 Cd46 2.352 . S
O50 C53 1.258 . S
C51 O48 1.336 . S
C51 O49 1.213 1_556 S
O52 Cd44 2.277 . S
O52 C47 1.209 . S
C53 O50 1.258 . S
C53 O55 1.282 . S
O54 Cd46 2.277 . S
O54 C47 1.226 . S
O55 Cd46 2.356 . S
O55 C53 1.282 . S
C56 O57 1.306 . S
C56 O59 1.160 . S
O57 C56 1.306 . S
O57 Cd58 2.228 . S
Cd58 O57 2.228 . S
Cd58 O62 2.273 . S
Cd58 O66 2.277 . S
O59 C56 1.160 . S
O59 Cd60 2.203 . S
Cd60 O59 2.203 . S
Cd60 O62 2.411 . S
Cd60 O63 2.333 1_556 S
Cd60 O64 2.352 . S
Cd60 O68 2.277 . S
Cd60 O69 2.356 . S
C61 O66 1.209 . S
C61 O68 1.226 . S
O62 Cd58 2.273 . S
O62 Cd60 2.411 . S
O62 C65 1.340 . S
O63 Cd60 2.333 1_554 S
O63 C65 1.212 1_554 S
O64 Cd60 2.352 . S
O64 C67 1.258 . S
C65 O62 1.340 . S
C65 O63 1.212 1_556 S
O66 Cd58 2.277 . S
O66 C61 1.209 . S
C67 O64 1.258 . S
C67 O69 1.282 . S
O68 Cd60 2.277 . S
O68 C61 1.226 . S
O69 Cd60 2.356 . S
O69 C67 1.282 . S
C70 O71 1.306 . S
C70 O73 1.160 . S
O71 C70 1.306 . S
O71 Cd72 2.228 . S
Cd72 O71 2.228 . S
Cd72 O76 2.273 . S
Cd72 O80 2.277 . S
O73 C70 1.160 . S
O73 Cd74 2.203 . S
Cd74 O73 2.203 . S
Cd74 O76 2.411 . S
Cd74 O77 2.333 1_556 S
Cd74 O78 2.352 . S
Cd74 O82 2.277 . S
Cd74 O83 2.356 . S
C75 O80 1.209 . S
C75 O82 1.226 . S
O76 Cd72 2.273 . S
O76 Cd74 2.411 . S
O76 C79 1.337 . S
O77 Cd74 2.333 1_554 S
O77 C79 1.213 1_554 S
O78 Cd74 2.352 . S
O78 C81 1.258 . S
C79 O76 1.337 . S
C79 O77 1.213 1_556 S
O80 Cd72 2.277 . S
O80 C75 1.209 . S
C81 O78 1.258 . S
C81 O83 1.282 . S
O82 Cd74 2.277 . S
O82 C75 1.226 . S
O83 Cd74 2.356 . S
O83 C81 1.282 . S
C84 O85 1.306 . S
C84 O87 1.160 . S
O85 C84 1.306 . S
O85 Cd86 2.228 . S
Cd86 O85 2.228 . S
Cd86 O90 2.273 . S
Cd86 O94 2.277 . S
O87 C84 1.160 . S
O87 Cd88 2.203 . S
Cd88 O87 2.203 . S
Cd88 O90 2.411 . S
Cd88 O91 2.333 1_556 S
Cd88 O92 2.352 . S
Cd88 O96 2.277 . S
Cd88 O97 2.356 . S
C89 O94 1.209 . S
C89 O96 1.226 . S
O90 Cd86 2.273 . S
O90 Cd88 2.411 . S
O90 C93 1.336 . S
O91 Cd88 2.333 1_554 S
O91 C93 1.213 1_554 S
O92 Cd88 2.352 . S
O92 C95 1.258 . S
C93 O90 1.336 . S
C93 O91 1.213 1_556 S
O94 Cd86 2.277 . S
O94 C89 1.209 . S
C95 O92 1.258 . S
C95 O97 1.282 . S
O96 Cd88 2.277 . S
O96 C89 1.226 . S
O97 Cd88 2.356 . S
O97 C95 1.282 . S
C98 O99 1.306 . S
C98 O101 1.160 . S
O99 C98 1.306 . S
O99 Cd100 2.228 . S
Cd100 O99 2.228 . S
Cd100 O104 2.273 . S
Cd100 O108 2.277 . S
O101 C98 1.160 . S
O101 Cd102 2.203 . S
Cd102 O101 2.203 . S
Cd102 O104 2.411 . S
Cd102 O105 2.333 1_556 S
Cd102 O106 2.352 . S
Cd102 O110 2.277 . S
Cd102 O111 2.356 . S
C103 O108 1.209 . S
C103 O110 1.226 . S
O104 Cd100 2.273 . S
O104 Cd102 2.411 . S
O104 C107 1.337 . S
O105 Cd102 2.333 1_554 S
O105 C107 1.213 1_554 S
O106 Cd102 2.352 . S
O106 C109 1.258 . S
C107 O104 1.337 . S
C107 O105 1.213 1_556 S
O108 Cd100 2.277 . S
O108 C103 1.209 . S
C109 O106 1.258 . S
C109 O111 1.282 . S
O110 Cd102 2.277 . S
O110 C103 1.226 . S
O111 Cd102 2.356 . S
O111 C109 1.282 . S
C112 O113 1.306 . S
C112 O115 1.160 . S
O113 C112 1.306 . S
O113 Cd114 2.228 . S
Cd114 O113 2.228 . S
Cd114 O118 2.273 . S
Cd114 O122 2.277 . S
O115 C112 1.160 . S
O115 Cd116 2.203 . S
Cd116 O115 2.203 . S
Cd116 O118 2.411 . S
Cd116 O119 2.333 1_556 S
Cd116 O120 2.352 . S
Cd116 O124 2.277 . S
Cd116 O125 2.356 . S
C117 O122 1.209 . S
C117 O124 1.226 . S
O118 Cd114 2.273 . S
O118 Cd116 2.411 . S
O118 C121 1.340 . S
O119 Cd116 2.333 1_554 S
O119 C121 1.212 1_554 S
O120 Cd116 2.352 . S
O120 C123 1.258 . S
C121 O118 1.340 . S
C121 O119 1.212 1_556 S
O122 Cd114 2.277 . S
O122 C117 1.209 . S
C123 O120 1.258 . S
C123 O125 1.282 . S
O124 Cd116 2.277 . S
O124 C117 1.226 . S
O125 Cd116 2.356 . S
O125 C123 1.282 . S
C126 O127 1.306 . S
C126 O129 1.160 . S
O127 C126 1.306 . S
O127 Cd128 2.228 . S
Cd128 O127 2.228 . S
Cd128 O132 2.273 . S
Cd128 O136 2.277 . S
O129 C126 1.160 . S
O129 Cd130 2.203 . S
Cd130 O129 2.203 . S
Cd130 O132 2.411 . S
Cd130 O133 2.333 1_554 S
Cd130 O134 2.352 . S
Cd130 O138 2.277 . S
Cd130 O139 2.356 . S
C131 O136 1.209 . S
C131 O138 1.226 . S
O132 Cd128 2.273 . S
O132 Cd130 2.411 . S
O132 C135 1.336 . S
O133 Cd130 2.333 1_556 S
O133 C135 1.213 1_556 S
O134 Cd130 2.352 . S
O134 C137 1.258 . S
C135 O132 1.336 . S
C135 O133 1.213 1_554 S
O136 Cd128 2.277 . S
O136 C131 1.209 . S
C137 O134 1.258 . S
C137 O139 1.282 . S
O138 Cd130 2.277 . S
O138 C131 1.226 . S
O139 Cd130 2.356 . S
O139 C137 1.282 . S
C140 O141 1.306 . S
C140 O143 1.160 . S
O141 C140 1.306 . S
O141 Cd142 2.228 . S
Cd142 O141 2.228 . S
Cd142 O146 2.273 . S
Cd142 O150 2.277 . S
O143 C140 1.160 . S
O143 Cd144 2.203 . S
Cd144 O143 2.203 . S
Cd144 O146 2.411 . S
Cd144 O147 2.333 1_554 S
Cd144 O148 2.352 . S
Cd144 O152 2.277 . S
Cd144 O153 2.356 . S
C145 O150 1.209 . S
C145 O152 1.226 . S
O146 Cd142 2.273 . S
O146 Cd144 2.411 . S
O146 C149 1.340 . S
O147 Cd144 2.333 1_556 S
O147 C149 1.212 1_556 S
O148 Cd144 2.352 . S
O148 C151 1.258 . S
C149 O146 1.340 . S
C149 O147 1.212 1_554 S
O150 Cd142 2.277 . S
O150 C145 1.209 . S
C151 O148 1.258 . S
C151 O153 1.282 . S
O152 Cd144 2.277 . S
O152 C145 1.226 . S
O153 Cd144 2.356 . S
O153 C151 1.282 . S
C154 O155 1.306 . S
C154 O157 1.160 . S
O155 C154 1.306 . S
O155 Cd156 2.228 . S
Cd156 O155 2.228 . S
Cd156 O160 2.273 . S
Cd156 O164 2.277 . S
O157 C154 1.160 . S
O157 Cd158 2.203 . S
Cd158 O157 2.203 . S
Cd158 O160 2.411 . S
Cd158 O161 2.333 1_554 S
Cd158 O162 2.352 . S
Cd158 O166 2.277 . S
Cd158 O167 2.356 . S
C159 O164 1.209 . S
C159 O166 1.226 . S
O160 Cd156 2.273 . S
O160 Cd158 2.411 . S
O160 C163 1.337 . S
O161 Cd158 2.333 1_556 S
O161 C163 1.213 1_556 S
O162 Cd158 2.352 . S
O162 C165 1.258 . S
C163 O160 1.337 . S
C163 O161 1.213 1_554 S
O164 Cd156 2.277 . S
O164 C159 1.209 . S
C165 O162 1.258 . S
C165 O167 1.282 . S
O166 Cd158 2.277 . S
O166 C159 1.226 . S
O167 Cd158 2.356 . S
O167 C165 1.282 . S
C168 O169 1.306 . S
C168 O171 1.160 . S
O169 C168 1.306 . S
O169 Cd170 2.228 . S
Cd170 O169 2.228 . S
Cd170 O174 2.273 . S
Cd170 O178 2.277 . S
O171 C168 1.160 . S
O171 Cd172 2.203 . S
Cd172 O171 2.203 . S
Cd172 O174 2.411 . S
Cd172 O175 2.333 . S
Cd172 O176 2.352 . S
Cd172 O180 2.277 . S
Cd172 O181 2.356 . S
C173 O178 1.209 . S
C173 O180 1.226 . S
O174 Cd170 2.273 . S
O174 Cd172 2.411 . S
O174 C177 1.320 . S
O175 Cd172 2.333 . S
O175 C177 1.214 . S
O176 Cd172 2.352 . S
O176 C179 1.258 . S
C177 O174 1.320 . S
C177 O175 1.214 . S
O178 Cd170 2.277 . S
O178 C173 1.209 . S
C179 O176 1.258 . S
C179 O181 1.282 . S
O180 Cd172 2.277 . S
O180 C173 1.226 . S
O181 Cd172 2.356 . S
O181 C179 1.282 . S
C182 O183 1.306 . S
C182 O185 1.160 . S
O183 C182 1.306 . S
O183 Cd184 2.228 . S
Cd184 O183 2.228 . S
Cd184 O188 2.273 . S
Cd184 O192 2.277 . S
O185 C182 1.160 . S
O185 Cd186 2.203 . S
Cd186 O185 2.203 . S
Cd186 O188 2.411 . S
Cd186 O189 2.333 . S
Cd186 O190 2.352 . S
Cd186 O194 2.277 . S
Cd186 O195 2.356 . S
C187 O192 1.209 . S
C187 O194 1.226 . S
O188 Cd184 2.273 . S
O188 Cd186 2.411 . S
O188 C191 1.320 . S
O189 Cd186 2.333 . S
O189 C191 1.214 . S
O190 Cd186 2.352 . S
O190 C193 1.258 . S
C191 O188 1.320 . S
C191 O189 1.214 . S
O192 Cd184 2.277 . S
O192 C187 1.209 . S
C193 O190 1.258 . S
C193 O195 1.282 . S
O194 Cd186 2.277 . S
O194 C187 1.226 . S
O195 Cd186 2.356 . S
O195 C193 1.282 . S
C196 O197 1.306 . S
C196 O199 1.160 . S
O197 C196 1.306 . S
O197 Cd198 2.228 . S
Cd198 O197 2.228 . S
Cd198 O202 2.273 . S
Cd198 O206 2.277 . S
O199 C196 1.160 . S
O199 Cd200 2.203 . S
Cd200 O199 2.203 . S
Cd200 O202 2.411 . S
Cd200 O203 2.333 . S
Cd200 O204 2.352 . S
Cd200 O208 2.277 . S
Cd200 O209 2.356 . S
C201 O206 1.209 . S
C201 O208 1.226 . S
O202 Cd198 2.273 . S
O202 Cd200 2.411 . S
O202 C205 1.320 . S
O203 Cd200 2.333 . S
O203 C205 1.214 . S
O204 Cd200 2.352 . S
O204 C207 1.258 . S
C205 O202 1.320 . S
C205 O203 1.214 . S
O206 Cd198 2.277 . S
O206 C201 1.209 . S
C207 O204 1.258 . S
C207 O209 1.282 . S
O208 Cd200 2.277 . S
O208 C201 1.226 . S
O209 Cd200 2.356 . S
O209 C207 1.282 . S
C210 O211 1.306 . S
C210 O213 1.160 . S
O211 C210 1.306 . S
O211 Cd212 2.228 . S
Cd212 O211 2.228 . S
Cd212 O216 2.273 . S
Cd212 O220 2.277 . S
O213 C210 1.160 . S
O213 Cd214 2.203 . S
Cd214 O213 2.203 . S
Cd214 O216 2.411 . S
Cd214 O217 2.333 . S
Cd214 O218 2.352 . S
Cd214 O222 2.277 . S
Cd214 O223 2.356 . S
C215 O220 1.209 . S
C215 O222 1.226 . S
O216 Cd212 2.273 . S
O216 Cd214 2.411 . S
O216 C219 1.320 . S
O217 Cd214 2.333 . S
O217 C219 1.214 . S
O218 Cd214 2.352 . S
O218 C221 1.258 . S
C219 O216 1.320 . S
C219 O217 1.214 . S
O220 Cd212 2.277 . S
O220 C215 1.209 . S
C221 O218 1.258 . S
C221 O223 1.282 . S
O222 Cd214 2.277 . S
O222 C215 1.226 . S
O223 Cd214 2.356 . S
O223 C221 1.282 . S
C224 O225 1.306 . S
C224 O227 1.160 . S
O225 C224 1.306 . S
O225 Cd226 2.228 . S
Cd226 O225 2.228 . S
Cd226 O230 2.273 . S
Cd226 O234 2.277 . S
O227 C224 1.160 . S
O227 Cd228 2.203 . S
Cd228 O227 2.203 . S
Cd228 O230 2.411 . S
Cd228 O231 2.333 . S
Cd228 O232 2.352 . S
Cd228 O236 2.277 . S
Cd228 O237 2.356 . S
C229 O234 1.209 . S
C229 O236 1.226 . S
O230 Cd226 2.273 . S
O230 Cd228 2.411 . S
O230 C233 1.320 . S
O231 Cd228 2.333 . S
O231 C233 1.214 . S
O232 Cd228 2.352 . S
O232 C235 1.258 . S
C233 O230 1.320 . S
C233 O231 1.214 . S
O234 Cd226 2.277 . S
O234 C229 1.209 . S
C235 O232 1.258 . S
C235 O237 1.282 . S
O236 Cd228 2.277 . S
O236 C229 1.226 . S
O237 Cd228 2.356 . S
O237 C235 1.282 . S
C238 O239 1.306 . S
C238 O241 1.160 . S
O239 C238 1.306 . S
O239 Cd240 2.228 . S
Cd240 O239 2.228 . S
Cd240 O244 2.273 . S
Cd240 O248 2.277 . S
O241 C238 1.160 . S
O241 Cd242 2.203 . S
Cd242 O241 2.203 . S
Cd242 O244 2.411 . S
Cd242 O245 2.333 . S
Cd242 O246 2.352 . S
Cd242 O250 2.277 . S
Cd242 O251 2.356 . S
C243 O248 1.209 . S
C243 O250 1.226 . S
O244 Cd240 2.273 . S
O244 Cd242 2.411 . S
O244 C247 1.320 . S
O245 Cd242 2.333 . S
O245 C247 1.214 . S
O246 Cd242 2.352 . S
O246 C249 1.258 . S
C247 O244 1.320 . S
C247 O245 1.214 . S
O248 Cd240 2.277 . S
O248 C243 1.209 . S
C249 O246 1.258 . S
C249 O251 1.282 . S
O250 Cd242 2.277 . S
O250 C243 1.226 . S
O251 Cd242 2.356 . S
O251 C249 1.282 . S
C252 O253 1.306 . S
C252 O255 1.160 . S
O253 C252 1.306 . S
O253 Cd254 2.228 . S
Cd254 O253 2.228 . S
Cd254 O258 2.273 . S
Cd254 O262 2.277 . S
O255 C252 1.160 . S
O255 Cd256 2.203 . S
Cd256 O255 2.203 . S
Cd256 O258 2.411 . S
Cd256 O259 2.333 . S
Cd256 O260 2.352 . S
Cd256 O264 2.277 . S
Cd256 O265 2.356 . S
C257 O262 1.209 . S
C257 O264 1.226 . S
O258 Cd254 2.273 . S
O258 Cd256 2.411 . S
O258 C261 1.320 . S
O259 Cd256 2.333 . S
O259 C261 1.214 . S
O260 Cd256 2.352 . S
O260 C263 1.258 . S
C261 O258 1.320 . S
C261 O259 1.214 . S
O262 Cd254 2.277 . S
O262 C257 1.209 . S
C263 O260 1.258 . S
C263 O265 1.282 . S
O264 Cd256 2.277 . S
O264 C257 1.226 . S
O265 Cd256 2.356 . S
O265 C263 1.282 . S
C266 O267 1.306 . S
C266 O269 1.160 . S
O267 C266 1.306 . S
O267 Cd268 2.228 . S
Cd268 O267 2.228 . S
Cd268 O272 2.273 . S
Cd268 O276 2.277 . S
O269 C266 1.160 . S
O269 Cd270 2.203 . S
Cd270 O269 2.203 . S
Cd270 O272 2.411 . S
Cd270 O273 2.333 . S
Cd270 O274 2.352 . S
Cd270 O278 2.277 . S
Cd270 O279 2.356 . S
C271 O276 1.209 . S
C271 O278 1.226 . S
O272 Cd268 2.273 . S
O272 Cd270 2.411 . S
O272 C275 1.320 . S
O273 Cd270 2.333 . S
O273 C275 1.214 . S
O274 Cd270 2.352 . S
O274 C277 1.258 . S
C275 O272 1.320 . S
C275 O273 1.214 . S
O276 Cd268 2.277 . S
O276 C271 1.209 . S
C277 O274 1.258 . S
C277 O279 1.282 . S
O278 Cd270 2.277 . S
O278 C271 1.226 . S
O279 Cd270 2.356 . S
O279 C277 1.282 . S
C280 O281 1.306 . S
C280 O283 1.160 . S
O281 C280 1.306 . S
O281 Cd282 2.228 . S
Cd282 O281 2.228 . S
Cd282 O286 2.273 . S
Cd282 O290 2.277 . S
O283 C280 1.160 . S
O283 Cd284 2.203 . S
Cd284 O283 2.203 . S
Cd284 O286 2.411 . S
Cd284 O287 2.333 . S
Cd284 O288 2.352 . S
Cd284 O292 2.277 . S
Cd284 O293 2.356 . S
C285 O290 1.209 . S
C285 O292 1.226 . S
O286 Cd282 2.273 . S
O286 Cd284 2.411 . S
O286 C289 1.320 . S
O287 Cd284 2.333 . S
O287 C289 1.214 . S
O288 Cd284 2.352 . S
O288 C291 1.258 . S
C289 O286 1.320 . S
C289 O287 1.214 . S
O290 Cd282 2.277 . S
O290 C285 1.209 . S
C291 O288 1.258 . S
C291 O293 1.282 . S
O292 Cd284 2.277 . S
O292 C285 1.226 . S
O293 Cd284 2.356 . S
O293 C291 1.282 . S
C294 O295 1.306 . S
C294 O297 1.160 . S
O295 C294 1.306 . S
O295 Cd296 2.228 . S
Cd296 O295 2.228 . S
Cd296 O300 2.273 . S
Cd296 O304 2.277 . S
O297 C294 1.160 . S
O297 Cd298 2.203 . S
Cd298 O297 2.203 . S
Cd298 O300 2.411 . S
Cd298 O301 2.333 . S
Cd298 O302 2.352 . S
Cd298 O306 2.277 . S
Cd298 O307 2.356 . S
C299 O304 1.209 . S
C299 O306 1.226 . S
O300 Cd296 2.273 . S
O300 Cd298 2.411 . S
O300 C303 1.320 . S
O301 Cd298 2.333 . S
O301 C303 1.214 . S
O302 Cd298 2.352 . S
O302 C305 1.258 . S
C303 O300 1.320 . S
C303 O301 1.214 . S
O304 Cd296 2.277 . S
O304 C299 1.209 . S
C305 O302 1.258 . S
C305 O307 1.282 . S
O306 Cd298 2.277 . S
O306 C299 1.226 . S
O307 Cd298 2.356 . S
O307 C305 1.282 . S
C308 O309 1.306 . S
C308 O311 1.160 . S
O309 C308 1.306 . S
O309 Cd310 2.228 . S
Cd310 O309 2.228 . S
Cd310 O314 2.273 . S
Cd310 O318 2.277 . S
O311 C308 1.160 . S
O311 Cd312 2.203 . S
Cd312 O311 2.203 . S
Cd312 O314 2.411 . S
Cd312 O315 2.333 . S
Cd312 O316 2.352 . S
Cd312 O320 2.277 . S
Cd312 O321 2.356 . S
C313 O318 1.209 . S
C313 O320 1.226 . S
O314 Cd310 2.273 . S
O314 Cd312 2.411 . S
O314 C317 1.320 . S
O315 Cd312 2.333 . S
O315 C317 1.214 . S
O316 Cd312 2.352 . S
O316 C319 1.258 . S
C317 O314 1.320 . S
C317 O315 1.214 . S
O318 Cd310 2.277 . S
O318 C313 1.209 . S
C319 O316 1.258 . S
C319 O321 1.282 . S
O320 Cd312 2.277 . S
O320 C313 1.226 . S
O321 Cd312 2.356 . S
O321 C319 1.282 . S
C322 O323 1.306 . S
C322 O325 1.160 . S
O323 C322 1.306 . S
O323 Cd324 2.228 . S
Cd324 O323 2.228 . S
Cd324 O328 2.273 . S
Cd324 O332 2.277 . S
O325 C322 1.160 . S
O325 Cd326 2.203 . S
Cd326 O325 2.203 . S
Cd326 O328 2.411 . S
Cd326 O329 2.333 . S
Cd326 O330 2.352 . S
Cd326 O334 2.277 . S
Cd326 O335 2.356 . S
C327 O332 1.209 . S
C327 O334 1.226 . S
O328 Cd324 2.273 . S
O328 Cd326 2.411 . S
O328 C331 1.320 . S
O329 Cd326 2.333 . S
O329 C331 1.214 . S
O330 Cd326 2.352 . S
O330 C333 1.258 . S
C331 O328 1.320 . S
C331 O329 1.214 . S
O332 Cd324 2.277 . S
O332 C327 1.209 . S
C333 O330 1.258 . S
C333 O335 1.282 . S
O334 Cd326 2.277 . S
O334 C327 1.226 . S
O335 Cd326 2.356 . S
O335 C333 1.282 . S
C336 O337 1.306 . S
C336 O339 1.160 . S
O337 C336 1.306 . S
O337 Cd338 2.228 . S
Cd338 O337 2.228 . S
Cd338 O342 2.273 . S
Cd338 O346 2.277 . S
O339 C336 1.160 . S
O339 Cd340 2.203 . S
Cd340 O339 2.203 . S
Cd340 O342 2.411 . S
Cd340 O343 2.333 . S
Cd340 O344 2.352 . S
Cd340 O348 2.277 . S
Cd340 O349 2.356 . S
C341 O346 1.209 . S
C341 O348 1.226 . S
O342 Cd338 2.273 . S
O342 Cd340 2.411 . S
O342 C345 1.320 . S
O343 Cd340 2.333 . S
O343 C345 1.214 . S
O344 Cd340 2.352 . S
O344 C347 1.258 . S
C345 O342 1.320 . S
C345 O343 1.214 . S
O346 Cd338 2.277 . S
O346 C341 1.209 . S
C347 O344 1.258 . S
C347 O349 1.282 . S
O348 Cd340 2.277 . S
O348 C341 1.226 . S
O349 Cd340 2.356 . S
O349 C347 1.282 . S
C350 O351 1.306 . S
C350 O353 1.160 . S
O351 C350 1.306 . S
O351 Cd352 2.228 . S
Cd352 O351 2.228 . S
Cd352 O356 2.273 . S
Cd352 O360 2.277 . S
O353 C350 1.160 . S
O353 Cd354 2.203 . S
Cd354 O353 2.203 . S
Cd354 O356 2.411 . S
Cd354 O357 2.333 . S
Cd354 O358 2.352 . S
Cd354 O362 2.277 . S
Cd354 O363 2.356 . S
C355 O360 1.209 . S
C355 O362 1.226 . S
O356 Cd352 2.273 . S
O356 Cd354 2.411 . S
O356 C359 1.320 . S
O357 Cd354 2.333 . S
O357 C359 1.214 . S
O358 Cd354 2.352 . S
O358 C361 1.258 . S
C359 O356 1.320 . S
C359 O357 1.214 . S
O360 Cd352 2.277 . S
O360 C355 1.209 . S
C361 O358 1.258 . S
C361 O363 1.282 . S
O362 Cd354 2.277 . S
O362 C355 1.226 . S
O363 Cd354 2.356 . S
O363 C361 1.282 . S
C364 O365 1.306 . S
C364 O367 1.160 . S
O365 C364 1.306 . S
O365 Cd366 2.228 . S
Cd366 O365 2.228 . S
Cd366 O370 2.273 . S
Cd366 O374 2.277 . S
O367 C364 1.160 . S
O367 Cd368 2.203 . S
Cd368 O367 2.203 . S
Cd368 O370 2.411 . S
Cd368 O371 2.333 . S
Cd368 O372 2.352 . S
Cd368 O376 2.277 . S
Cd368 O377 2.356 . S
C369 O374 1.209 . S
C369 O376 1.226 . S
O370 Cd366 2.273 . S
O370 Cd368 2.411 . S
O370 C373 1.320 . S
O371 Cd368 2.333 . S
O371 C373 1.214 . S
O372 Cd368 2.352 . S
O372 C375 1.258 . S
C373 O370 1.320 . S
C373 O371 1.214 . S
O374 Cd366 2.277 . S
O374 C369 1.209 . S
C375 O372 1.258 . S
C375 O377 1.282 . S
O376 Cd368 2.277 . S
O376 C369 1.226 . S
O377 Cd368 2.356 . S
O377 C375 1.282 . S
C378 O379 1.306 . S
C378 O381 1.160 . S
O379 C378 1.306 . S
O379 Cd380 2.228 . S
Cd380 O379 2.228 . S
Cd380 O384 2.273 . S
Cd380 O388 2.277 . S
O381 C378 1.160 . S
O381 Cd382 2.203 . S
Cd382 O381 2.203 . S
Cd382 O384 2.411 . S
Cd382 O385 2.333 . S
Cd382 O386 2.352 . S
Cd382 O390 2.277 . S
Cd382 O391 2.356 . S
C383 O388 1.209 . S
C383 O390 1.226 . S
O384 Cd380 2.273 . S
O384 Cd382 2.411 . S
O384 C387 1.320 . S
O385 Cd382 2.333 . S
O385 C387 1.214 . S
O386 Cd382 2.352 . S
O386 C389 1.258 . S
C387 O384 1.320 . S
C387 O385 1.214 . S
O388 Cd380 2.277 . S
O388 C383 1.209 . S
C389 O386 1.258 . S
C389 O391 1.282 . S
O390 Cd382 2.277 . S
O390 C383 1.226 . S
O391 Cd382 2.356 . S
O391 C389 1.282 . S
C392 O393 1.306 . S
C392 O395 1.160 . S
O393 C392 1.306 . S
O393 Cd394 2.228 . S
Cd394 O393 2.228 . S
Cd394 O398 2.273 . S
Cd394 O402 2.277 . S
O395 C392 1.160 . S
O395 Cd396 2.203 . S
Cd396 O395 2.203 . S
Cd396 O398 2.411 . S
Cd396 O399 2.333 . S
Cd396 O400 2.352 . S
Cd396 O404 2.277 . S
Cd396 O405 2.356 . S
C397 O402 1.209 . S
C397 O404 1.226 . S
O398 Cd394 2.273 . S
O398 Cd396 2.411 . S
O398 C401 1.320 . S
O399 Cd396 2.333 . S
O399 C401 1.214 . S
O400 Cd396 2.352 . S
O400 C403 1.258 . S
C401 O398 1.320 . S
C401 O399 1.214 . S
O402 Cd394 2.277 . S
O402 C397 1.209 . S
C403 O400 1.258 . S
C403 O405 1.282 . S
O404 Cd396 2.277 . S
O404 C397 1.226 . S
O405 Cd396 2.356 . S
O405 C403 1.282 . S
C406 O407 1.306 . S
C406 O409 1.160 . S
O407 C406 1.306 . S
O407 Cd408 2.228 . S
Cd408 O407 2.228 . S
Cd408 O412 2.273 . S
Cd408 O416 2.277 . S
O409 C406 1.160 . S
O409 Cd410 2.203 . S
Cd410 O409 2.203 . S
Cd410 O412 2.411 . S
Cd410 O413 2.333 . S
Cd410 O414 2.352 . S
Cd410 O418 2.277 . S
Cd410 O419 2.356 . S
C411 O416 1.209 . S
C411 O418 1.226 . S
O412 Cd408 2.273 . S
O412 Cd410 2.411 . S
O412 C415 1.320 . S
O413 Cd410 2.333 . S
O413 C415 1.214 . S
O414 Cd410 2.352 . S
O414 C417 1.258 . S
C415 O412 1.320 . S
C415 O413 1.214 . S
O416 Cd408 2.277 . S
O416 C411 1.209 . S
C417 O414 1.258 . S
C417 O419 1.282 . S
O418 Cd410 2.277 . S
O418 C411 1.226 . S
O419 Cd410 2.356 . S
O419 C417 1.282 . S
C420 O421 1.306 . S
C420 O423 1.160 . S
O421 C420 1.306 . S
O421 Cd422 2.228 . S
Cd422 O421 2.228 . S
Cd422 O426 2.273 . S
Cd422 O430 2.277 . S
O423 C420 1.160 . S
O423 Cd424 2.203 . S
Cd424 O423 2.203 . S
Cd424 O426 2.411 . S
Cd424 O427 2.333 . S
Cd424 O428 2.352 . S
Cd424 O432 2.277 . S
Cd424 O433 2.356 . S
C425 O430 1.209 . S
C425 O432 1.226 . S
O426 Cd422 2.273 . S
O426 Cd424 2.411 . S
O426 C429 1.320 . S
O427 Cd424 2.333 . S
O427 C429 1.214 . S
O428 Cd424 2.352 . S
O428 C431 1.258 . S
C429 O426 1.320 . S
C429 O427 1.214 . S
O430 Cd422 2.277 . S
O430 C425 1.209 . S
C431 O428 1.258 . S
C431 O433 1.282 . S
O432 Cd424 2.277 . S
O432 C425 1.226 . S
O433 Cd424 2.356 . S
O433 C431 1.282 . S
C434 O435 1.306 . S
C434 O437 1.160 . S
O435 C434 1.306 . S
O435 Cd436 2.228 . S
Cd436 O435 2.228 . S
Cd436 O440 2.273 . S
Cd436 O444 2.277 . S
O437 C434 1.160 . S
O437 Cd438 2.203 . S
Cd438 O437 2.203 . S
Cd438 O440 2.411 . S
Cd438 O441 2.333 . S
Cd438 O442 2.352 . S
Cd438 O446 2.277 . S
Cd438 O447 2.356 . S
C439 O444 1.209 . S
C439 O446 1.226 . S
O440 Cd436 2.273 . S
O440 Cd438 2.411 . S
O440 C443 1.320 . S
O441 Cd438 2.333 . S
O441 C443 1.214 . S
O442 Cd438 2.352 . S
O442 C445 1.258 . S
C443 O440 1.320 . S
C443 O441 1.214 . S
O444 Cd436 2.277 . S
O444 C439 1.209 . S
C445 O442 1.258 . S
C445 O447 1.282 . S
O446 Cd438 2.277 . S
O446 C439 1.226 . S
O447 Cd438 2.356 . S
O447 C445 1.282 . S
C448 O449 1.306 . S
C448 O451 1.160 . S
O449 C448 1.306 . S
O449 Cd450 2.228 . S
Cd450 O449 2.228 . S
Cd450 O454 2.273 . S
Cd450 O458 2.277 . S
O451 C448 1.160 . S
O451 Cd452 2.203 . S
Cd452 O451 2.203 . S
Cd452 O454 2.411 . S
Cd452 O455 2.333 . S
Cd452 O456 2.352 . S
Cd452 O460 2.277 . S
Cd452 O461 2.356 . S
C453 O458 1.209 . S
C453 O460 1.226 . S
O454 Cd450 2.273 . S
O454 Cd452 2.411 . S
O454 C457 1.320 . S
O455 Cd452 2.333 . S
O455 C457 1.214 . S
O456 Cd452 2.352 . S
O456 C459 1.258 . S
C457 O454 1.320 . S
C457 O455 1.214 . S
O458 Cd450 2.277 . S
O458 C453 1.209 . S
C459 O456 1.258 . S
C459 O461 1.282 . S
O460 Cd452 2.277 . S
O460 C453 1.226 . S
O461 Cd452 2.356 . S
O461 C459 1.282 . S
C462 O463 1.306 . S
C462 O465 1.160 . S
O463 C462 1.306 . S
O463 Cd464 2.228 . S
Cd464 O463 2.228 . S
Cd464 O468 2.273 . S
Cd464 O472 2.277 . S
O465 C462 1.160 . S
O465 Cd466 2.203 . S
Cd466 O465 2.203 . S
Cd466 O468 2.411 . S
Cd466 O469 2.333 . S
Cd466 O470 2.352 . S
Cd466 O474 2.277 . S
Cd466 O475 2.356 . S
C467 O472 1.209 . S
C467 O474 1.226 . S
O468 Cd464 2.273 . S
O468 Cd466 2.411 . S
O468 C471 1.320 . S
O469 Cd466 2.333 . S
O469 C471 1.214 . S
O470 Cd466 2.352 . S
O470 C473 1.258 . S
C471 O468 1.320 . S
C471 O469 1.214 . S
O472 Cd464 2.277 . S
O472 C467 1.209 . S
C473 O470 1.258 . S
C473 O475 1.282 . S
O474 Cd466 2.277 . S
O474 C467 1.226 . S
O475 Cd466 2.356 . S
O475 C473 1.282 . S
C476 O477 1.306 . S
C476 O479 1.160 . S
O477 C476 1.306 . S
O477 Cd478 2.228 . S
Cd478 O477 2.228 . S
Cd478 O482 2.273 . S
Cd478 O486 2.277 . S
O479 C476 1.160 . S
O479 Cd480 2.203 . S
Cd480 O479 2.203 . S
Cd480 O482 2.411 . S
Cd480 O483 2.333 . S
Cd480 O484 2.352 . S
Cd480 O488 2.277 . S
Cd480 O489 2.356 . S
C481 O486 1.209 . S
C481 O488 1.226 . S
O482 Cd478 2.273 . S
O482 Cd480 2.411 . S
O482 C485 1.320 . S
O483 Cd480 2.333 . S
O483 C485 1.214 . S
O484 Cd480 2.352 . S
O484 C487 1.258 . S
C485 O482 1.320 . S
C485 O483 1.214 . S
O486 Cd478 2.277 . S
O486 C481 1.209 . S
C487 O484 1.258 . S
C487 O489 1.282 . S
O488 Cd480 2.277 . S
O488 C481 1.226 . S
O489 Cd480 2.356 . S
O489 C487 1.282 . S
C490 O491 1.306 . S
C490 O493 1.160 . S
O491 C490 1.306 . S
O491 Cd492 2.228 . S
Cd492 O491 2.228 . S
Cd492 O496 2.273 . S
Cd492 O500 2.277 . S
O493 C490 1.160 . S
O493 Cd494 2.203 . S
Cd494 O493 2.203 . S
Cd494 O496 2.411 . S
Cd494 O497 2.333 . S
Cd494 O498 2.352 . S
Cd494 O502 2.277 . S
Cd494 O503 2.356 . S
C495 O500 1.209 . S
C495 O502 1.226 . S
O496 Cd492 2.273 . S
O496 Cd494 2.411 . S
O496 C499 1.320 . S
O497 Cd494 2.333 . S
O497 C499 1.214 . S
O498 Cd494 2.352 . S
O498 C501 1.258 . S
C499 O496 1.320 . S
C499 O497 1.214 . S
O500 Cd492 2.277 . S
O500 C495 1.209 . S
C501 O498 1.258 . S
C501 O503 1.282 . S
O502 Cd494 2.277 . S
O502 C495 1.226 . S
O503 Cd494 2.356 . S
O503 C501 1.282 . S
C504 C505 1.349 . S
C504 C506 1.327 . S
C504 H529 0.950 . S
C505 C504 1.349 . S
C505 C521 1.349 . S
C506 C504 1.327 . S
C506 C525 1.429 . S
C506 H530 0.950 . S
C507 C524 1.574 . S
C507 C526 1.368 . S
C507 H531 0.949 . S
H508 C512 0.949 . S
C509 C510 1.349 . S
C509 C511 1.327 . S
C509 H532 0.950 . S
C510 C509 1.349 . S
C510 C522 1.349 . S
C511 C509 1.327 . S
C511 C527 1.429 . S
C511 H533 0.950 . S
C512 H508 0.949 . S
C512 C520 1.574 . S
C512 C528 1.368 . S
H513 C521 0.950 . S
H514 C519 0.950 . S
H515 C520 0.949 . S
H516 C522 0.950 . S
H517 C523 0.950 . S
H518 C524 0.949 . S
C519 H514 0.950 . S
C519 C521 1.327 . S
C519 C525 1.429 . S
C520 C512 1.574 . S
C520 H515 0.949 . S
C520 C526 1.368 . S
C521 C505 1.349 . S
C521 H513 0.950 . S
C521 C519 1.327 . S
C522 C510 1.349 . S
C522 H516 0.950 . S
C522 C523 1.327 . S
C523 H517 0.950 . S
C523 C522 1.327 . S
C523 C527 1.429 . S
C524 C507 1.574 . S
C524 H518 0.949 . S
C524 C528 1.368 . S
C525 C506 1.429 . S
C525 C519 1.429 . S
C525 C526 1.523 . S
C526 C507 1.368 . S
C526 C520 1.368 . S
C526 C525 1.523 . S
C527 C511 1.429 . S
C527 C523 1.429 . S
C527 C528 1.523 . S
C528 C512 1.368 . S
C528 C524 1.368 . S
C528 C527 1.523 . S
H529 C504 0.950 . S
H530 C506 0.950 . S
H531 C507 0.949 . S
H532 C509 0.950 . S
H533 C511 0.950 . S
C534 C535 1.349 . S
C534 C536 1.327 . S
C534 H559 0.950 . S
C535 C534 1.349 . S
C535 C551 1.349 . S
C536 C534 1.327 . S
C536 C555 1.429 . S
C536 H560 0.950 . S
C537 C554 1.574 . S
C537 C556 1.368 . S
C537 H561 0.949 . S
H538 C542 0.949 . S
C539 C540 1.349 . S
C539 C541 1.327 . S
C539 H562 0.950 . S
C540 C539 1.349 . S
C540 C552 1.349 . S
C541 C539 1.327 . S
C541 C557 1.429 . S
C541 H563 0.950 . S
C542 H538 0.949 . S
C542 C550 1.574 . S
C542 C558 1.368 . S
H543 C551 0.950 . S
H544 C549 0.950 . S
H545 C550 0.949 . S
H546 C552 0.950 . S
H547 C553 0.950 . S
H548 C554 0.949 . S
C549 H544 0.950 . S
C549 C551 1.327 . S
C549 C555 1.429 . S
C550 C542 1.574 . S
C550 H545 0.949 . S
C550 C556 1.368 . S
C551 C535 1.349 . S
C551 H543 0.950 . S
C551 C549 1.327 . S
C552 C540 1.349 . S
C552 H546 0.950 . S
C552 C553 1.327 . S
C553 H547 0.950 . S
C553 C552 1.327 . S
C553 C557 1.429 . S
C554 C537 1.574 . S
C554 H548 0.949 . S
C554 C558 1.368 . S
C555 C536 1.429 . S
C555 C549 1.429 . S
C555 C556 1.523 . S
C556 C537 1.368 . S
C556 C550 1.368 . S
C556 C555 1.523 . S
C557 C541 1.429 . S
C557 C553 1.429 . S
C557 C558 1.523 . S
C558 C542 1.368 . S
C558 C554 1.368 . S
C558 C557 1.523 . S
H559 C534 0.950 . S
H560 C536 0.950 . S
H561 C537 0.949 . S
H562 C539 0.950 . S
H563 C541 0.950 . S
C564 C565 1.349 . S
C564 C566 1.327 . S
C564 H589 0.950 . S
C565 C564 1.349 . S
C565 C581 1.349 . S
C566 C564 1.327 . S
C566 C585 1.429 . S
C566 H590 0.950 . S
C567 C584 1.574 . S
C567 C586 1.368 . S
C567 H591 0.949 . S
H568 C572 0.949 . S
C569 C570 1.349 . S
C569 C571 1.327 . S
C569 H592 0.950 . S
C570 C569 1.349 . S
C570 C582 1.349 . S
C571 C569 1.327 . S
C571 C587 1.429 . S
C571 H593 0.950 . S
C572 H568 0.949 . S
C572 C580 1.574 . S
C572 C588 1.368 . S
H573 C581 0.950 . S
H574 C579 0.950 . S
H575 C580 0.949 . S
H576 C582 0.950 . S
H577 C583 0.950 . S
H578 C584 0.949 . S
C579 H574 0.950 . S
C579 C581 1.327 . S
C579 C585 1.429 . S
C580 C572 1.574 . S
C580 H575 0.949 . S
C580 C586 1.368 . S
C581 C565 1.349 . S
C581 H573 0.950 . S
C581 C579 1.327 . S
C582 C570 1.349 . S
C582 H576 0.950 . S
C582 C583 1.327 . S
C583 H577 0.950 . S
C583 C582 1.327 . S
C583 C587 1.429 . S
C584 C567 1.574 . S
C584 H578 0.949 . S
C584 C588 1.368 . S
C585 C566 1.429 . S
C585 C579 1.429 . S
C585 C586 1.523 . S
C586 C567 1.368 . S
C586 C580 1.368 . S
C586 C585 1.523 . S
C587 C571 1.429 . S
C587 C583 1.429 . S
C587 C588 1.523 . S
C588 C572 1.368 . S
C588 C584 1.368 . S
C588 C587 1.523 . S
H589 C564 0.950 . S
H590 C566 0.950 . S
H591 C567 0.949 . S
H592 C569 0.950 . S
H593 C571 0.950 . S
C594 C595 1.349 . S
C594 C596 1.327 . S
C594 H619 0.950 . S
C595 C594 1.349 . S
C595 C611 1.349 . S
C596 C594 1.327 . S
C596 C615 1.429 . S
C596 H620 0.950 . S
C597 C614 1.574 . S
C597 C616 1.368 . S
C597 H621 0.949 . S
H598 C602 0.949 . S
C599 C600 1.349 . S
C599 C601 1.327 . S
C599 H622 0.950 . S
C600 C599 1.349 . S
C600 C612 1.349 . S
C601 C599 1.327 . S
C601 C617 1.429 . S
C601 H623 0.950 . S
C602 H598 0.949 . S
C602 C610 1.574 . S
C602 C618 1.368 . S
H603 C611 0.950 . S
H604 C609 0.950 . S
H605 C610 0.949 . S
H606 C612 0.950 . S
H607 C613 0.950 . S
H608 C614 0.949 . S
C609 H604 0.950 . S
C609 C611 1.327 . S
C609 C615 1.429 . S
C610 C602 1.574 . S
C610 H605 0.949 . S
C610 C616 1.368 . S
C611 C595 1.349 . S
C611 H603 0.950 . S
C611 C609 1.327 . S
C612 C600 1.349 . S
C612 H606 0.950 . S
C612 C613 1.327 . S
C613 H607 0.950 . S
C613 C612 1.327 . S
C613 C617 1.429 . S
C614 C597 1.574 . S
C614 H608 0.949 . S
C614 C618 1.368 . S
C615 C596 1.429 . S
C615 C609 1.429 . S
C615 C616 1.523 . S
C616 C597 1.368 . S
C616 C610 1.368 . S
C616 C615 1.523 . S
C617 C601 1.429 . S
C617 C613 1.429 . S
C617 C618 1.523 . S
C618 C602 1.368 . S
C618 C614 1.368 . S
C618 C617 1.523 . S
H619 C594 0.950 . S
H620 C596 0.950 . S
H621 C597 0.949 . S
H622 C599 0.950 . S
H623 C601 0.950 . S
C624 C625 1.349 . S
C624 C626 1.327 . S
C624 H649 0.950 . S
C625 C624 1.349 . S
C625 C641 1.349 . S
C626 C624 1.327 . S
C626 C645 1.429 . S
C626 H650 0.950 . S
C627 C644 1.574 . S
C627 C646 1.368 . S
C627 H651 0.949 . S
H628 C632 0.949 . S
C629 C630 1.349 . S
C629 C631 1.327 . S
C629 H652 0.950 . S
C630 C629 1.349 . S
C630 C642 1.349 . S
C631 C629 1.327 . S
C631 C647 1.429 . S
C631 H653 0.950 . S
C632 H628 0.949 . S
C632 C640 1.574 . S
C632 C648 1.368 . S
H633 C641 0.950 . S
H634 C639 0.950 . S
H635 C640 0.949 . S
H636 C642 0.950 . S
H637 C643 0.950 . S
H638 C644 0.949 . S
C639 H634 0.950 . S
C639 C641 1.327 . S
C639 C645 1.429 . S
C640 C632 1.574 . S
C640 H635 0.949 . S
C640 C646 1.368 . S
C641 C625 1.349 . S
C641 H633 0.950 . S
C641 C639 1.327 . S
C642 C630 1.349 . S
C642 H636 0.950 . S
C642 C643 1.327 . S
C643 H637 0.950 . S
C643 C642 1.327 . S
C643 C647 1.429 . S
C644 C627 1.574 . S
C644 H638 0.949 . S
C644 C648 1.368 . S
C645 C626 1.429 . S
C645 C639 1.429 . S
C645 C646 1.523 . S
C646 C627 1.368 . S
C646 C640 1.368 . S
C646 C645 1.523 . S
C647 C631 1.429 . S
C647 C643 1.429 . S
C647 C648 1.523 . S
C648 C632 1.368 . S
C648 C644 1.368 . S
C648 C647 1.523 . S
H649 C624 0.950 . S
H650 C626 0.950 . S
H651 C627 0.949 . S
H652 C629 0.950 . S
H653 C631 0.950 . S
C654 C655 1.349 . S
C654 C656 1.327 . S
C654 H679 0.950 . S
C655 C654 1.349 . S
C655 C671 1.349 . S
C656 C654 1.327 . S
C656 C675 1.429 . S
C656 H680 0.950 . S
C657 C674 1.574 . S
C657 C676 1.368 . S
C657 H681 0.949 . S
H658 C662 0.949 . S
C659 C660 1.349 . S
C659 C661 1.327 . S
C659 H682 0.950 . S
C660 C659 1.349 . S
C660 C672 1.349 . S
C661 C659 1.327 . S
C661 C677 1.429 . S
C661 H683 0.950 . S
C662 H658 0.949 . S
C662 C670 1.574 . S
C662 C678 1.368 . S
H663 C671 0.950 . S
H664 C669 0.950 . S
H665 C670 0.949 . S
H666 C672 0.950 . S
H667 C673 0.950 . S
H668 C674 0.949 . S
C669 H664 0.950 . S
C669 C671 1.327 . S
C669 C675 1.429 . S
C670 C662 1.574 . S
C670 H665 0.949 . S
C670 C676 1.368 . S
C671 C655 1.349 . S
C671 H663 0.950 . S
C671 C669 1.327 . S
C672 C660 1.349 . S
C672 H666 0.950 . S
C672 C673 1.327 . S
C673 H667 0.950 . S
C673 C672 1.327 . S
C673 C677 1.429 . S
C674 C657 1.574 . S
C674 H668 0.949 . S
C674 C678 1.368 . S
C675 C656 1.429 . S
C675 C669 1.429 . S
C675 C676 1.523 . S
C676 C657 1.368 . S
C676 C670 1.368 . S
C676 C675 1.523 . S
C677 C661 1.429 . S
C677 C673 1.429 . S
C677 C678 1.523 . S
C678 C662 1.368 . S
C678 C674 1.368 . S
C678 C677 1.523 . S
H679 C654 0.950 . S
H680 C656 0.950 . S
H681 C657 0.949 . S
H682 C659 0.950 . S
H683 C661 0.950 . S
C684 C685 1.349 . S
C684 C686 1.327 . S
C684 H709 0.950 . S
C685 C684 1.349 . S
C685 C701 1.349 . S
C686 C684 1.327 . S
C686 C705 1.429 . S
C686 H710 0.950 . S
C687 C704 1.574 . S
C687 C706 1.368 . S
C687 H711 0.949 . S
H688 C692 0.949 . S
C689 C690 1.349 . S
C689 C691 1.327 . S
C689 H712 0.950 . S
C690 C689 1.349 . S
C690 C702 1.349 . S
C691 C689 1.327 . S
C691 C707 1.429 . S
C691 H713 0.950 . S
C692 H688 0.949 . S
C692 C700 1.574 . S
C692 C708 1.368 . S
H693 C701 0.950 . S
H694 C699 0.950 . S
H695 C700 0.949 . S
H696 C702 0.950 . S
H697 C703 0.950 . S
H698 C704 0.949 . S
C699 H694 0.950 . S
C699 C701 1.327 . S
C699 C705 1.429 . S
C700 C692 1.574 . S
C700 H695 0.949 . S
C700 C706 1.368 . S
C701 C685 1.349 . S
C701 H693 0.950 . S
C701 C699 1.327 . S
C702 C690 1.349 . S
C702 H696 0.950 . S
C702 C703 1.327 . S
C703 H697 0.950 . S
C703 C702 1.327 . S
C703 C707 1.429 . S
C704 C687 1.574 . S
C704 H698 0.949 . S
C704 C708 1.368 . S
C705 C686 1.429 . S
C705 C699 1.429 . S
C705 C706 1.523 . S
C706 C687 1.368 . S
C706 C700 1.368 . S
C706 C705 1.523 . S
C707 C691 1.429 . S
C707 C703 1.429 . S
C707 C708 1.523 . S
C708 C692 1.368 . S
C708 C704 1.368 . S
C708 C707 1.523 . S
H709 C684 0.950 . S
H710 C686 0.950 . S
H711 C687 0.949 . S
H712 C689 0.950 . S
H713 C691 0.950 . S
C714 C715 1.349 . S
C714 C716 1.327 . S
C714 H739 0.950 . S
C715 C714 1.349 . S
C715 C731 1.349 . S
C716 C714 1.327 . S
C716 C735 1.429 . S
C716 H740 0.950 . S
C717 C734 1.574 . S
C717 C736 1.368 . S
C717 H741 0.949 . S
H718 C722 0.949 . S
C719 C720 1.349 . S
C719 C721 1.327 . S
C719 H742 0.950 . S
C720 C719 1.349 . S
C720 C732 1.349 . S
C721 C719 1.327 . S
C721 C737 1.429 . S
C721 H743 0.950 . S
C722 H718 0.949 . S
C722 C730 1.574 . S
C722 C738 1.368 . S
H723 C731 0.950 . S
H724 C729 0.950 . S
H725 C730 0.949 . S
H726 C732 0.950 . S
H727 C733 0.950 . S
H728 C734 0.949 . S
C729 H724 0.950 . S
C729 C731 1.327 . S
C729 C735 1.429 . S
C730 C722 1.574 . S
C730 H725 0.949 . S
C730 C736 1.368 . S
C731 C715 1.349 . S
C731 H723 0.950 . S
C731 C729 1.327 . S
C732 C720 1.349 . S
C732 H726 0.950 . S
C732 C733 1.327 . S
C733 H727 0.950 . S
C733 C732 1.327 . S
C733 C737 1.429 . S
C734 C717 1.574 . S
C734 H728 0.949 . S
C734 C738 1.368 . S
C735 C716 1.429 . S
C735 C729 1.429 . S
C735 C736 1.523 . S
C736 C717 1.368 . S
C736 C730 1.368 . S
C736 C735 1.523 . S
C737 C721 1.429 . S
C737 C733 1.429 . S
C737 C738 1.523 . S
C738 C722 1.368 . S
C738 C734 1.368 . S
C738 C737 1.523 . S
H739 C714 0.950 . S
H740 C716 0.950 . S
H741 C717 0.949 . S
H742 C719 0.950 . S
H743 C721 0.950 . S
C744 C745 1.349 . S
C744 C746 1.327 . S
C744 H769 0.950 . S
C745 C744 1.349 . S
C745 C761 1.349 . S
C746 C744 1.327 . S
C746 C765 1.429 . S
C746 H770 0.950 . S
C747 C764 1.574 . S
C747 C766 1.368 . S
C747 H771 0.949 . S
H748 C752 0.949 . S
C749 C750 1.349 . S
C749 C751 1.327 . S
C749 H772 0.950 . S
C750 C749 1.349 . S
C750 C762 1.349 . S
C751 C749 1.327 . S
C751 C767 1.429 . S
C751 H773 0.950 . S
C752 H748 0.949 . S
C752 C760 1.574 . S
C752 C768 1.368 . S
H753 C761 0.950 . S
H754 C759 0.950 . S
H755 C760 0.949 . S
H756 C762 0.950 . S
H757 C763 0.950 . S
H758 C764 0.949 . S
C759 H754 0.950 . S
C759 C761 1.327 . S
C759 C765 1.429 . S
C760 C752 1.574 . S
C760 H755 0.949 . S
C760 C766 1.368 . S
C761 C745 1.349 . S
C761 H753 0.950 . S
C761 C759 1.327 . S
C762 C750 1.349 . S
C762 H756 0.950 . S
C762 C763 1.327 . S
C763 H757 0.950 . S
C763 C762 1.327 . S
C763 C767 1.429 . S
C764 C747 1.574 . S
C764 H758 0.949 . S
C764 C768 1.368 . S
C765 C746 1.429 . S
C765 C759 1.429 . S
C765 C766 1.523 . S
C766 C747 1.368 . S
C766 C760 1.368 . S
C766 C765 1.523 . S
C767 C751 1.429 . S
C767 C763 1.429 . S
C767 C768 1.523 . S
C768 C752 1.368 . S
C768 C764 1.368 . S
C768 C767 1.523 . S
H769 C744 0.950 . S
H770 C746 0.950 . S
H771 C747 0.949 . S
H772 C749 0.950 . S
H773 C751 0.950 . S
C774 C775 1.349 . S
C774 C776 1.327 . S
C774 H799 0.950 . S
C775 C774 1.349 . S
C775 C791 1.349 . S
C776 C774 1.327 . S
C776 C795 1.429 . S
C776 H800 0.950 . S
C777 C794 1.574 . S
C777 C796 1.368 . S
C777 H801 0.949 . S
H778 C782 0.949 . S
C779 C780 1.349 . S
C779 C781 1.327 . S
C779 H802 0.950 . S
C780 C779 1.349 . S
C780 C792 1.349 . S
C781 C779 1.327 . S
C781 C797 1.429 . S
C781 H803 0.950 . S
C782 H778 0.949 . S
C782 C790 1.574 . S
C782 C798 1.368 . S
H783 C791 0.950 . S
H784 C789 0.950 . S
H785 C790 0.949 . S
H786 C792 0.950 . S
H787 C793 0.950 . S
H788 C794 0.949 . S
C789 H784 0.950 . S
C789 C791 1.327 . S
C789 C795 1.429 . S
C790 C782 1.574 . S
C790 H785 0.949 . S
C790 C796 1.368 . S
C791 C775 1.349 . S
C791 H783 0.950 . S
C791 C789 1.327 . S
C792 C780 1.349 . S
C792 H786 0.950 . S
C792 C793 1.327 . S
C793 H787 0.950 . S
C793 C792 1.327 . S
C793 C797 1.429 . S
C794 C777 1.574 . S
C794 H788 0.949 . S
C794 C798 1.368 . S
C795 C776 1.429 . S
C795 C789 1.429 . S
C795 C796 1.523 . S
C796 C777 1.368 . S
C796 C790 1.368 . S
C796 C795 1.523 . S
C797 C781 1.429 . S
C797 C793 1.429 . S
C797 C798 1.523 . S
C798 C782 1.368 . S
C798 C794 1.368 . S
C798 C797 1.523 . S
H799 C774 0.950 . S
H800 C776 0.950 . S
H801 C777 0.949 . S
H802 C779 0.950 . S
H803 C781 0.950 . S
C804 C805 1.349 . S
C804 C806 1.327 . S
C804 H829 0.950 . S
C805 C804 1.349 . S
C805 C821 1.349 . S
C806 C804 1.327 . S
C806 C825 1.429 . S
C806 H830 0.950 . S
C807 C824 1.574 . S
C807 C826 1.368 . S
C807 H831 0.949 . S
H808 C812 0.949 . S
C809 C810 1.349 . S
C809 C811 1.327 . S
C809 H832 0.950 . S
C810 C809 1.349 . S
C810 C822 1.349 . S
C811 C809 1.327 . S
C811 C827 1.429 . S
C811 H833 0.950 . S
C812 H808 0.949 . S
C812 C820 1.574 . S
C812 C828 1.368 . S
H813 C821 0.950 . S
H814 C819 0.950 . S
H815 C820 0.949 . S
H816 C822 0.950 . S
H817 C823 0.950 . S
H818 C824 0.949 . S
C819 H814 0.950 . S
C819 C821 1.327 . S
C819 C825 1.429 . S
C820 C812 1.574 . S
C820 H815 0.949 . S
C820 C826 1.368 . S
C821 C805 1.349 . S
C821 H813 0.950 . S
C821 C819 1.327 . S
C822 C810 1.349 . S
C822 H816 0.950 . S
C822 C823 1.327 . S
C823 H817 0.950 . S
C823 C822 1.327 . S
C823 C827 1.429 . S
C824 C807 1.574 . S
C824 H818 0.949 . S
C824 C828 1.368 . S
C825 C806 1.429 . S
C825 C819 1.429 . S
C825 C826 1.523 . S
C826 C807 1.368 . S
C826 C820 1.368 . S
C826 C825 1.523 . S
C827 C811 1.429 . S
C827 C823 1.429 . S
C827 C828 1.523 . S
C828 C812 1.368 . S
C828 C824 1.368 . S
C828 C827 1.523 . S
H829 C804 0.950 . S
H830 C806 0.950 . S
H831 C807 0.949 . S
H832 C809 0.950 . S
H833 C811 0.950 . S
C834 C835 1.349 . S
C834 C836 1.327 . S
C834 H859 0.950 . S
C835 C834 1.349 . S
C835 C851 1.349 . S
C836 C834 1.327 . S
C836 C855 1.429 . S
C836 H860 0.950 . S
C837 C854 1.574 . S
C837 C856 1.368 . S
C837 H861 0.949 . S
H838 C842 0.949 . S
C839 C840 1.349 . S
C839 C841 1.327 . S
C839 H862 0.950 . S
C840 C839 1.349 . S
C840 C852 1.349 . S
C841 C839 1.327 . S
C841 C857 1.429 . S
C841 H863 0.950 . S
C842 H838 0.949 . S
C842 C850 1.574 . S
C842 C858 1.368 . S
H843 C851 0.950 . S
H844 C849 0.950 . S
H845 C850 0.949 . S
H846 C852 0.950 . S
H847 C853 0.950 . S
H848 C854 0.949 . S
C849 H844 0.950 . S
C849 C851 1.327 . S
C849 C855 1.429 . S
C850 C842 1.574 . S
C850 H845 0.949 . S
C850 C856 1.368 . S
C851 C835 1.349 . S
C851 H843 0.950 . S
C851 C849 1.327 . S
C852 C840 1.349 . S
C852 H846 0.950 . S
C852 C853 1.327 . S
C853 H847 0.950 . S
C853 C852 1.327 . S
C853 C857 1.429 . S
C854 C837 1.574 . S
C854 H848 0.949 . S
C854 C858 1.368 . S
C855 C836 1.429 . S
C855 C849 1.429 . S
C855 C856 1.523 . S
C856 C837 1.368 . S
C856 C850 1.368 . S
C856 C855 1.523 . S
C857 C841 1.429 . S
C857 C853 1.429 . S
C857 C858 1.523 . S
C858 C842 1.368 . S
C858 C854 1.368 . S
C858 C857 1.523 . S
H859 C834 0.950 . S
H860 C836 0.950 . S
H861 C837 0.949 . S
H862 C839 0.950 . S
H863 C841 0.950 . S
C864 C865 1.349 . S
C864 C866 1.327 . S
C864 H889 0.950 . S
C865 C864 1.349 . S
C865 C881 1.349 . S
C866 C864 1.327 . S
C866 C885 1.429 . S
C866 H890 0.950 . S
C867 C884 1.574 . S
C867 C886 1.368 . S
C867 H891 0.949 . S
H868 C872 0.949 . S
C869 C870 1.349 . S
C869 C871 1.327 . S
C869 H892 0.950 . S
C870 C869 1.349 . S
C870 C882 1.349 . S
C871 C869 1.327 . S
C871 C887 1.429 . S
C871 H893 0.950 . S
C872 H868 0.949 . S
C872 C880 1.574 . S
C872 C888 1.368 . S
H873 C881 0.950 . S
H874 C879 0.950 . S
H875 C880 0.949 . S
H876 C882 0.950 . S
H877 C883 0.950 . S
H878 C884 0.949 . S
C879 H874 0.950 . S
C879 C881 1.327 . S
C879 C885 1.429 . S
C880 C872 1.574 . S
C880 H875 0.949 . S
C880 C886 1.368 . S
C881 C865 1.349 . S
C881 H873 0.950 . S
C881 C879 1.327 . S
C882 C870 1.349 . S
C882 H876 0.950 . S
C882 C883 1.327 . S
C883 H877 0.950 . S
C883 C882 1.327 . S
C883 C887 1.429 . S
C884 C867 1.574 . S
C884 H878 0.949 . S
C884 C888 1.368 . S
C885 C866 1.429 . S
C885 C879 1.429 . S
C885 C886 1.523 . S
C886 C867 1.368 . S
C886 C880 1.368 . S
C886 C885 1.523 . S
C887 C871 1.429 . S
C887 C883 1.429 . S
C887 C888 1.523 . S
C888 C872 1.368 . S
C888 C884 1.368 . S
C888 C887 1.523 . S
H889 C864 0.950 . S
H890 C866 0.950 . S
H891 C867 0.949 . S
H892 C869 0.950 . S
H893 C871 0.950 . S
C894 C895 1.349 . S
C894 C896 1.327 . S
C894 H919 0.950 . S
C895 C894 1.349 . S
C895 C911 1.349 . S
C896 C894 1.327 . S
C896 C915 1.429 . S
C896 H920 0.950 . S
C897 C914 1.574 . S
C897 C916 1.368 . S
C897 H921 0.949 . S
H898 C902 0.949 . S
C899 C900 1.349 . S
C899 C901 1.327 . S
C899 H922 0.950 . S
C900 C899 1.349 . S
C900 C912 1.349 . S
C901 C899 1.327 . S
C901 C917 1.429 . S
C901 H923 0.950 . S
C902 H898 0.949 . S
C902 C910 1.574 . S
C902 C918 1.368 . S
H903 C911 0.950 . S
H904 C909 0.950 . S
H905 C910 0.949 . S
H906 C912 0.950 . S
H907 C913 0.950 . S
H908 C914 0.949 . S
C909 H904 0.950 . S
C909 C911 1.327 . S
C909 C915 1.429 . S
C910 C902 1.574 . S
C910 H905 0.949 . S
C910 C916 1.368 . S
C911 C895 1.349 . S
C911 H903 0.950 . S
C911 C909 1.327 . S
C912 C900 1.349 . S
C912 H906 0.950 . S
C912 C913 1.327 . S
C913 H907 0.950 . S
C913 C912 1.327 . S
C913 C917 1.429 . S
C914 C897 1.574 . S
C914 H908 0.949 . S
C914 C918 1.368 . S
C915 C896 1.429 . S
C915 C909 1.429 . S
C915 C916 1.523 . S
C916 C897 1.368 . S
C916 C910 1.368 . S
C916 C915 1.523 . S
C917 C901 1.429 . S
C917 C913 1.429 . S
C917 C918 1.523 . S
C918 C902 1.368 . S
C918 C914 1.368 . S
C918 C917 1.523 . S
H919 C894 0.950 . S
H920 C896 0.950 . S
H921 C897 0.949 . S
H922 C899 0.950 . S
H923 C901 0.950 . S
C924 C925 1.349 . S
C924 C926 1.327 . S
C924 H949 0.950 . S
C925 C924 1.349 . S
C925 C941 1.349 . S
C926 C924 1.327 . S
C926 C945 1.429 . S
C926 H950 0.950 . S
C927 C944 1.574 . S
C927 C946 1.368 . S
C927 H951 0.949 . S
H928 C932 0.949 . S
C929 C930 1.349 . S
C929 C931 1.327 . S
C929 H952 0.950 . S
C930 C929 1.349 . S
C930 C942 1.349 . S
C931 C929 1.327 . S
C931 C947 1.429 . S
C931 H953 0.950 . S
C932 H928 0.949 . S
C932 C940 1.574 . S
C932 C948 1.368 . S
H933 C941 0.950 . S
H934 C939 0.950 . S
H935 C940 0.949 . S
H936 C942 0.950 . S
H937 C943 0.950 . S
H938 C944 0.949 . S
C939 H934 0.950 . S
C939 C941 1.327 . S
C939 C945 1.429 . S
C940 C932 1.574 . S
C940 H935 0.949 . S
C940 C946 1.368 . S
C941 C925 1.349 . S
C941 H933 0.950 . S
C941 C939 1.327 . S
C942 C930 1.349 . S
C942 H936 0.950 . S
C942 C943 1.327 . S
C943 H937 0.950 . S
C943 C942 1.327 . S
C943 C947 1.429 . S
C944 C927 1.574 . S
C944 H938 0.949 . S
C944 C948 1.368 . S
C945 C926 1.429 . S
C945 C939 1.429 . S
C945 C946 1.523 . S
C946 C927 1.368 . S
C946 C940 1.368 . S
C946 C945 1.523 . S
C947 C931 1.429 . S
C947 C943 1.429 . S
C947 C948 1.523 . S
C948 C932 1.368 . S
C948 C944 1.368 . S
C948 C947 1.523 . S
H949 C924 0.950 . S
H950 C926 0.950 . S
H951 C927 0.949 . S
H952 C929 0.950 . S
H953 C931 0.950 . S
C954 C955 1.349 . S
C954 C956 1.327 . S
C954 H979 0.950 . S
C955 C954 1.349 . S
C955 C971 1.349 . S
C956 C954 1.327 . S
C956 C975 1.429 . S
C956 H980 0.950 . S
C957 C974 1.574 . S
C957 C976 1.368 . S
C957 H981 0.949 . S
H958 C962 0.949 . S
C959 C960 1.349 . S
C959 C961 1.327 . S
C959 H982 0.950 . S
C960 C959 1.349 . S
C960 C972 1.349 . S
C961 C959 1.327 . S
C961 C977 1.429 . S
C961 H983 0.950 . S
C962 H958 0.949 . S
C962 C970 1.574 . S
C962 C978 1.368 . S
H963 C971 0.950 . S
H964 C969 0.950 . S
H965 C970 0.949 . S
H966 C972 0.950 . S
H967 C973 0.950 . S
H968 C974 0.949 . S
C969 H964 0.950 . S
C969 C971 1.327 . S
C969 C975 1.429 . S
C970 C962 1.574 . S
C970 H965 0.949 . S
C970 C976 1.368 . S
C971 C955 1.349 . S
C971 H963 0.950 . S
C971 C969 1.327 . S
C972 C960 1.349 . S
C972 H966 0.950 . S
C972 C973 1.327 . S
C973 H967 0.950 . S
C973 C972 1.327 . S
C973 C977 1.429 . S
C974 C957 1.574 . S
C974 H968 0.949 . S
C974 C978 1.368 . S
C975 C956 1.429 . S
C975 C969 1.429 . S
C975 C976 1.523 . S
C976 C957 1.368 . S
C976 C970 1.368 . S
C976 C975 1.523 . S
C977 C961 1.429 . S
C977 C973 1.429 . S
C977 C978 1.523 . S
C978 C962 1.368 . S
C978 C974 1.368 . S
C978 C977 1.523 . S
H979 C954 0.950 . S
H980 C956 0.950 . S
H981 C957 0.949 . S
H982 C959 0.950 . S
H983 C961 0.950 . S
C984 C985 1.349 . S
C984 C986 1.327 . S
C984 H1009 0.950 . S
C985 C984 1.349 . S
C985 C1001 1.349 . S
C986 C984 1.327 . S
C986 C1005 1.429 . S
C986 H1010 0.950 . S
C987 C1004 1.574 . S
C987 C1006 1.368 . S
C987 H1011 0.949 . S
H988 C992 0.949 . S
C989 C990 1.349 . S
C989 C991 1.327 . S
C989 H1012 0.950 . S
C990 C989 1.349 . S
C990 C1002 1.349 . S
C991 C989 1.327 . S
C991 C1007 1.429 . S
C991 H1013 0.950 . S
C992 H988 0.949 . S
C992 C1000 1.574 . S
C992 C1008 1.368 . S
H993 C1001 0.950 . S
H994 C999 0.950 . S
H995 C1000 0.949 . S
H996 C1002 0.950 . S
H997 C1003 0.950 . S
H998 C1004 0.949 . S
C999 H994 0.950 . S
C999 C1001 1.327 . S
C999 C1005 1.429 . S
C1000 C992 1.574 . S
C1000 H995 0.949 . S
C1000 C1006 1.368 . S
C1001 C985 1.349 . S
C1001 H993 0.950 . S
C1001 C999 1.327 . S
C1002 C990 1.349 . S
C1002 H996 0.950 . S
C1002 C1003 1.327 . S
C1003 H997 0.950 . S
C1003 C1002 1.327 . S
C1003 C1007 1.429 . S
C1004 C987 1.574 . S
C1004 H998 0.949 . S
C1004 C1008 1.368 . S
C1005 C986 1.429 . S
C1005 C999 1.429 . S
C1005 C1006 1.523 . S
C1006 C987 1.368 . S
C1006 C1000 1.368 . S
C1006 C1005 1.523 . S
C1007 C991 1.429 . S
C1007 C1003 1.429 . S
C1007 C1008 1.523 . S
C1008 C992 1.368 . S
C1008 C1004 1.368 . S
C1008 C1007 1.523 . S
H1009 C984 0.950 . S
H1010 C986 0.950 . S
H1011 C987 0.949 . S
H1012 C989 0.950 . S
H1013 C991 0.950 . S
C1014 C1015 1.349 . S
C1014 C1016 1.327 . S
C1014 H1039 0.950 . S
C1015 C1014 1.349 . S
C1015 C1031 1.349 . S
C1016 C1014 1.327 . S
C1016 C1035 1.429 . S
C1016 H1040 0.950 . S
C1017 C1034 1.574 . S
C1017 C1036 1.368 . S
C1017 H1041 0.949 . S
H1018 C1022 0.949 . S
C1019 C1020 1.349 . S
C1019 C1021 1.327 . S
C1019 H1042 0.950 . S
C1020 C1019 1.349 . S
C1020 C1032 1.349 . S
C1021 C1019 1.327 . S
C1021 C1037 1.429 . S
C1021 H1043 0.950 . S
C1022 H1018 0.949 . S
C1022 C1030 1.574 . S
C1022 C1038 1.368 . S
H1023 C1031 0.950 . S
H1024 C1029 0.950 . S
H1025 C1030 0.949 . S
H1026 C1032 0.950 . S
H1027 C1033 0.950 . S
H1028 C1034 0.949 . S
C1029 H1024 0.950 . S
C1029 C1031 1.327 . S
C1029 C1035 1.429 . S
C1030 C1022 1.574 . S
C1030 H1025 0.949 . S
C1030 C1036 1.368 . S
C1031 C1015 1.349 . S
C1031 H1023 0.950 . S
C1031 C1029 1.327 . S
C1032 C1020 1.349 . S
C1032 H1026 0.950 . S
C1032 C1033 1.327 . S
C1033 H1027 0.950 . S
C1033 C1032 1.327 . S
C1033 C1037 1.429 . S
C1034 C1017 1.574 . S
C1034 H1028 0.949 . S
C1034 C1038 1.368 . S
C1035 C1016 1.429 . S
C1035 C1029 1.429 . S
C1035 C1036 1.523 . S
C1036 C1017 1.368 . S
C1036 C1030 1.368 . S
C1036 C1035 1.523 . S
C1037 C1021 1.429 . S
C1037 C1033 1.429 . S
C1037 C1038 1.523 . S
C1038 C1022 1.368 . S
C1038 C1034 1.368 . S
C1038 C1037 1.523 . S
H1039 C1014 0.950 . S
H1040 C1016 0.950 . S
H1041 C1017 0.949 . S
H1042 C1019 0.950 . S
H1043 C1021 0.950 . S
C1044 C1045 1.349 . S
C1044 C1046 1.327 . S
C1044 H1069 0.943 1_554 S
C1045 C1044 1.349 . S
C1045 C1061 1.349 . S
C1046 C1044 1.327 . S
C1046 C1065 1.429 . S
C1046 H1070 0.950 1_554 S
C1047 C1064 1.574 1_455 S
C1047 C1066 1.368 . S
C1047 H1071 0.949 . S
H1048 C1052 0.949 . S
C1049 C1050 1.349 . S
C1049 C1051 1.327 . S
C1049 H1072 0.945 1_556 S
C1050 C1049 1.349 . S
C1050 C1062 1.349 . S
C1051 C1049 1.327 . S
C1051 C1067 1.429 . S
C1051 H1073 0.950 1_556 S
C1052 H1048 0.949 . S
C1052 C1060 1.574 1_655 S
C1052 C1068 1.368 . S
H1053 C1061 0.950 . S
H1054 C1059 0.950 . S
H1055 C1060 0.949 . S
H1056 C1062 0.950 . S
H1057 C1063 0.950 . S
H1058 C1064 0.949 . S
C1059 H1054 0.950 . S
C1059 C1061 1.327 . S
C1059 C1065 1.429 . S
C1060 C1052 1.574 1_455 S
C1060 H1055 0.949 . S
C1060 C1066 1.368 1_556 S
C1061 C1045 1.349 . S
C1061 H1053 0.950 . S
C1061 C1059 1.327 . S
C1062 C1050 1.349 . S
C1062 H1056 0.950 . S
C1062 C1063 1.327 . S
C1063 H1057 0.950 . S
C1063 C1062 1.327 . S
C1063 C1067 1.429 . S
C1064 C1047 1.574 1_655 S
C1064 H1058 0.949 . S
C1064 C1068 1.368 1_554 S
C1065 C1046 1.429 . S
C1065 C1059 1.429 . S
C1065 C1066 1.523 . S
C1066 C1047 1.368 . S
C1066 C1060 1.368 1_554 S
C1066 C1065 1.523 . S
C1067 C1051 1.429 . S
C1067 C1063 1.429 . S
C1067 C1068 1.523 . S
C1068 C1052 1.368 . S
C1068 C1064 1.368 1_556 S
C1068 C1067 1.523 . S
H1069 C1044 0.943 1_556 S
H1070 C1046 0.950 1_556 S
H1071 C1047 0.949 . S
H1072 C1049 0.945 1_554 S
H1073 C1051 0.950 1_554 S
C1074 C1075 1.349 . S
C1074 C1076 1.338 . S
C1074 H1099 0.950 1_556 S
C1075 C1074 1.349 . S
C1075 C1091 1.349 . S
C1076 C1074 1.338 . S
C1076 C1095 1.447 . S
C1076 H1100 0.920 1_556 S
C1077 C1094 1.574 . S
C1077 C1096 1.368 . S
C1077 H1101 0.949 . S
H1078 C1082 0.949 . S
C1079 C1080 1.349 . S
C1079 C1081 1.338 . S
C1079 H1102 0.950 1_554 S
C1080 C1079 1.349 . S
C1080 C1092 1.349 . S
C1081 C1079 1.338 . S
C1081 C1097 1.447 . S
C1081 H1103 0.920 1_554 S
C1082 H1078 0.949 . S
C1082 C1090 1.574 . S
C1082 C1098 1.368 . S
H1083 C1091 0.950 . S
H1084 C1089 0.950 . S
H1085 C1090 0.949 . S
H1086 C1092 0.950 . S
H1087 C1093 0.950 . S
H1088 C1094 0.949 . S
C1089 H1084 0.950 . S
C1089 C1091 1.327 . S
C1089 C1095 1.429 . S
C1090 C1082 1.574 . S
C1090 H1085 0.949 . S
C1090 C1096 1.368 1_554 S
C1091 C1075 1.349 . S
C1091 H1083 0.950 . S
C1091 C1089 1.327 . S
C1092 C1080 1.349 . S
C1092 H1086 0.950 . S
C1092 C1093 1.327 . S
C1093 H1087 0.950 . S
C1093 C1092 1.327 . S
C1093 C1097 1.429 . S
C1094 C1077 1.574 . S
C1094 H1088 0.949 . S
C1094 C1098 1.368 1_556 S
C1095 C1076 1.447 . S
C1095 C1089 1.429 . S
C1095 C1096 1.523 . S
C1096 C1077 1.368 . S
C1096 C1090 1.368 1_556 S
C1096 C1095 1.523 . S
C1097 C1081 1.447 . S
C1097 C1093 1.429 . S
C1097 C1098 1.523 . S
C1098 C1082 1.368 . S
C1098 C1094 1.368 1_554 S
C1098 C1097 1.523 . S
H1099 C1074 0.950 1_554 S
H1100 C1076 0.920 1_554 S
H1101 C1077 0.949 . S
H1102 C1079 0.950 1_556 S
H1103 C1081 0.920 1_556 S
C1104 C1105 1.349 . S
C1104 C1106 1.327 . S
C1104 H1129 0.950 1_554 S
C1105 C1104 1.349 . S
C1105 C1121 1.349 . S
C1106 C1104 1.327 . S
C1106 C1125 1.429 . S
C1106 H1130 0.950 1_554 S
C1107 C1124 1.574 1_565 S
C1107 C1126 1.368 . S
C1107 H1131 0.949 . S
H1108 C1112 0.949 . S
C1109 C1110 1.349 . S
C1109 C1111 1.327 . S
C1109 H1132 0.950 1_556 S
C1110 C1109 1.349 . S
C1110 C1122 1.349 . S
C1111 C1109 1.327 . S
C1111 C1127 1.429 . S
C1111 H1133 0.950 1_556 S
C1112 H1108 0.949 . S
C1112 C1120 1.574 1_545 S
C1112 C1128 1.368 . S
H1113 C1121 0.950 . S
H1114 C1119 0.950 . S
H1115 C1120 0.949 . S
H1116 C1122 0.950 . S
H1117 C1123 0.950 . S
H1118 C1124 0.949 . S
C1119 H1114 0.950 . S
C1119 C1121 1.327 . S
C1119 C1125 1.429 . S
C1120 C1112 1.574 1_565 S
C1120 H1115 0.949 . S
C1120 C1126 1.368 1_556 S
C1121 C1105 1.349 . S
C1121 H1113 0.950 . S
C1121 C1119 1.327 . S
C1122 C1110 1.349 . S
C1122 H1116 0.950 . S
C1122 C1123 1.327 . S
C1123 H1117 0.950 . S
C1123 C1122 1.327 . S
C1123 C1127 1.429 . S
C1124 C1107 1.574 1_545 S
C1124 H1118 0.949 . S
C1124 C1128 1.368 1_554 S
C1125 C1106 1.429 . S
C1125 C1119 1.429 . S
C1125 C1126 1.523 . S
C1126 C1107 1.368 . S
C1126 C1120 1.368 1_554 S
C1126 C1125 1.523 . S
C1127 C1111 1.429 . S
C1127 C1123 1.429 . S
C1127 C1128 1.523 . S
C1128 C1112 1.368 . S
C1128 C1124 1.368 1_556 S
C1128 C1127 1.523 . S
H1129 C1104 0.950 1_556 S
H1130 C1106 0.950 1_556 S
H1131 C1107 0.949 . S
H1132 C1109 0.950 1_554 S
H1133 C1111 0.950 1_554 S
C1134 C1135 1.349 . S
C1134 C1136 1.327 . S
C1134 H1159 0.950 . S
C1135 C1134 1.349 . S
C1135 C1151 1.349 . S
C1136 C1134 1.327 . S
C1136 C1155 1.429 . S
C1136 H1160 0.950 . S
C1137 C1154 1.579 1_655 S
C1137 C1156 1.368 . S
C1137 H1161 0.949 . S
H1138 C1142 0.949 . S
C1139 C1140 1.349 . S
C1139 C1141 1.327 . S
C1139 H1162 0.950 . S
C1140 C1139 1.349 . S
C1140 C1152 1.349 . S
C1141 C1139 1.327 . S
C1141 C1157 1.429 . S
C1141 H1163 0.950 . S
C1142 H1138 0.949 . S
C1142 C1150 1.581 1_455 S
C1142 C1158 1.368 . S
H1143 C1151 0.950 . S
H1144 C1149 0.950 . S
H1145 C1150 0.949 . S
H1146 C1152 0.950 . S
H1147 C1153 0.950 . S
H1148 C1154 0.949 . S
C1149 H1144 0.950 . S
C1149 C1151 1.327 . S
C1149 C1155 1.429 . S
C1150 C1142 1.581 1_655 S
C1150 H1145 0.949 . S
C1150 C1156 1.361 1_554 S
C1151 C1135 1.349 . S
C1151 H1143 0.950 . S
C1151 C1149 1.327 . S
C1152 C1140 1.349 . S
C1152 H1146 0.950 . S
C1152 C1153 1.327 . S
C1153 H1147 0.950 . S
C1153 C1152 1.327 . S
C1153 C1157 1.429 . S
C1154 C1137 1.579 1_455 S
C1154 H1148 0.949 . S
C1154 C1158 1.363 1_556 S
C1155 C1136 1.429 . S
C1155 C1149 1.429 . S
C1155 C1156 1.523 . S
C1156 C1137 1.368 . S
C1156 C1150 1.361 1_556 S
C1156 C1155 1.523 . S
C1157 C1141 1.429 . S
C1157 C1153 1.429 . S
C1157 C1158 1.523 . S
C1158 C1142 1.368 . S
C1158 C1154 1.363 1_554 S
C1158 C1157 1.523 . S
H1159 C1134 0.950 . S
H1160 C1136 0.950 . S
H1161 C1137 0.949 . S
H1162 C1139 0.950 . S
H1163 C1141 0.950 . S
C1164 C1165 1.349 . S
C1164 C1166 1.337 . S
C1164 H1189 0.950 1_556 S
C1165 C1164 1.349 . S
C1165 C1181 1.349 . S
C1166 C1164 1.337 . S
C1166 C1185 1.447 . S
C1166 H1190 0.921 1_556 S
C1167 C1184 1.574 . S
C1167 C1186 1.368 . S
C1167 H1191 0.949 . S
H1168 C1172 0.949 . S
C1169 C1170 1.349 . S
C1169 C1171 1.337 . S
C1169 H1192 0.950 1_554 S
C1170 C1169 1.349 . S
C1170 C1182 1.349 . S
C1171 C1169 1.337 . S
C1171 C1187 1.447 . S
C1171 H1193 0.921 1_554 S
C1172 H1168 0.949 . S
C1172 C1180 1.574 . S
C1172 C1188 1.368 . S
H1173 C1181 0.950 . S
H1174 C1179 0.950 . S
H1175 C1180 0.949 . S
H1176 C1182 0.950 . S
H1177 C1183 0.950 . S
H1178 C1184 0.949 . S
C1179 H1174 0.950 . S
C1179 C1181 1.327 . S
C1179 C1185 1.429 . S
C1180 C1172 1.574 . S
C1180 H1175 0.949 . S
C1180 C1186 1.368 1_554 S
C1181 C1165 1.349 . S
C1181 H1173 0.950 . S
C1181 C1179 1.327 . S
C1182 C1170 1.349 . S
C1182 H1176 0.950 . S
C1182 C1183 1.327 . S
C1183 H1177 0.950 . S
C1183 C1182 1.327 . S
C1183 C1187 1.429 . S
C1184 C1167 1.574 . S
C1184 H1178 0.949 . S
C1184 C1188 1.368 1_556 S
C1185 C1166 1.447 . S
C1185 C1179 1.429 . S
C1185 C1186 1.523 . S
C1186 C1167 1.368 . S
C1186 C1180 1.368 1_556 S
C1186 C1185 1.523 . S
C1187 C1171 1.447 . S
C1187 C1183 1.429 . S
C1187 C1188 1.523 . S
C1188 C1172 1.368 . S
C1188 C1184 1.368 1_554 S
C1188 C1187 1.523 . S
H1189 C1164 0.950 1_554 S
H1190 C1166 0.921 1_554 S
H1191 C1167 0.949 . S
H1192 C1169 0.950 1_556 S
H1193 C1171 0.921 1_556 S
C1194 C1195 1.349 . S
C1194 C1196 1.327 . S
C1194 H1219 0.950 . S
C1195 C1194 1.349 . S
C1195 C1211 1.349 . S
C1196 C1194 1.327 . S
C1196 C1215 1.429 . S
C1196 H1220 0.950 1_556 S
C1197 C1214 1.574 1_545 S
C1197 C1216 1.368 . S
C1197 H1221 0.949 . S
H1198 C1202 0.949 . S
C1199 C1200 1.349 . S
C1199 C1201 1.327 . S
C1199 H1222 0.950 . S
C1200 C1199 1.349 . S
C1200 C1212 1.349 . S
C1201 C1199 1.327 . S
C1201 C1217 1.429 . S
C1201 H1223 0.950 1_554 S
C1202 H1198 0.949 . S
C1202 C1210 1.574 1_565 S
C1202 C1218 1.368 . S
H1203 C1211 0.950 . S
H1204 C1209 0.950 . S
H1205 C1210 0.949 . S
H1206 C1212 0.950 . S
H1207 C1213 0.950 . S
H1208 C1214 0.949 . S
C1209 H1204 0.950 . S
C1209 C1211 1.327 . S
C1209 C1215 1.429 . S
C1210 C1202 1.574 1_545 S
C1210 H1205 0.949 . S
C1210 C1216 1.368 1_554 S
C1211 C1195 1.349 . S
C1211 H1203 0.950 . S
C1211 C1209 1.327 . S
C1212 C1200 1.349 . S
C1212 H1206 0.950 . S
C1212 C1213 1.327 . S
C1213 H1207 0.950 . S
C1213 C1212 1.327 . S
C1213 C1217 1.429 . S
C1214 C1197 1.574 1_565 S
C1214 H1208 0.949 . S
C1214 C1218 1.368 1_556 S
C1215 C1196 1.429 . S
C1215 C1209 1.429 . S
C1215 C1216 1.523 . S
C1216 C1197 1.368 . S
C1216 C1210 1.368 1_556 S
C1216 C1215 1.523 . S
C1217 C1201 1.429 . S
C1217 C1213 1.429 . S
C1217 C1218 1.523 . S
C1218 C1202 1.368 . S
C1218 C1214 1.368 1_554 S
C1218 C1217 1.523 . S
H1219 C1194 0.950 . S
H1220 C1196 0.950 1_554 S
H1221 C1197 0.949 . S
H1222 C1199 0.950 . S
H1223 C1201 0.950 1_556 S
C1224 C1225 1.349 . S
C1224 C1226 1.327 . S
C1224 H1249 0.950 . S
C1225 C1224 1.349 . S
C1225 C1241 1.349 . S
C1226 C1224 1.327 . S
C1226 C1245 1.429 . S
C1226 H1250 0.950 . S
C1227 C1244 1.574 . S
C1227 C1246 1.368 . S
C1227 H1251 0.949 . S
H1228 C1232 0.949 . S
C1229 C1230 1.349 . S
C1229 C1231 1.327 . S
C1229 H1252 0.950 . S
C1230 C1229 1.349 . S
C1230 C1242 1.349 . S
C1231 C1229 1.327 . S
C1231 C1247 1.429 . S
C1231 H1253 0.950 . S
C1232 H1228 0.949 . S
C1232 C1240 1.574 . S
C1232 C1248 1.368 . S
H1233 C1241 0.950 . S
H1234 C1239 0.950 . S
H1235 C1240 0.949 . S
H1236 C1242 0.950 . S
H1237 C1243 0.950 . S
H1238 C1244 0.949 . S
C1239 H1234 0.950 . S
C1239 C1241 1.327 . S
C1239 C1245 1.429 . S
C1240 C1232 1.574 . S
C1240 H1235 0.949 . S
C1240 C1246 1.368 . S
C1241 C1225 1.349 . S
C1241 H1233 0.950 . S
C1241 C1239 1.327 . S
C1242 C1230 1.349 . S
C1242 H1236 0.950 . S
C1242 C1243 1.327 . S
C1243 H1237 0.950 . S
C1243 C1242 1.327 . S
C1243 C1247 1.429 . S
C1244 C1227 1.574 . S
C1244 H1238 0.949 . S
C1244 C1248 1.368 . S
C1245 C1226 1.429 . S
C1245 C1239 1.429 . S
C1245 C1246 1.523 . S
C1246 C1227 1.368 . S
C1246 C1240 1.368 . S
C1246 C1245 1.523 . S
C1247 C1231 1.429 . S
C1247 C1243 1.429 . S
C1247 C1248 1.523 . S
C1248 C1232 1.368 . S
C1248 C1244 1.368 . S
C1248 C1247 1.523 . S
H1249 C1224 0.950 . S
H1250 C1226 0.950 . S
H1251 C1227 0.949 . S
H1252 C1229 0.950 . S
H1253 C1231 0.950 . S
C1254 C1255 1.349 . S
C1254 C1256 1.327 . S
C1254 H1279 0.950 . S
C1255 C1254 1.349 . S
C1255 C1271 1.349 . S
C1256 C1254 1.327 . S
C1256 C1275 1.429 . S
C1256 H1280 0.950 . S
C1257 C1274 1.574 . S
C1257 C1276 1.368 . S
C1257 H1281 0.949 . S
H1258 C1262 0.949 . S
C1259 C1260 1.349 . S
C1259 C1261 1.327 . S
C1259 H1282 0.950 . S
C1260 C1259 1.349 . S
C1260 C1272 1.349 . S
C1261 C1259 1.327 . S
C1261 C1277 1.429 . S
C1261 H1283 0.950 . S
C1262 H1258 0.949 . S
C1262 C1270 1.574 . S
C1262 C1278 1.368 . S
H1263 C1271 0.950 . S
H1264 C1269 0.950 . S
H1265 C1270 0.949 . S
H1266 C1272 0.950 . S
H1267 C1273 0.950 . S
H1268 C1274 0.949 . S
C1269 H1264 0.950 . S
C1269 C1271 1.327 . S
C1269 C1275 1.429 . S
C1270 C1262 1.574 . S
C1270 H1265 0.949 . S
C1270 C1276 1.368 . S
C1271 C1255 1.349 . S
C1271 H1263 0.950 . S
C1271 C1269 1.327 . S
C1272 C1260 1.349 . S
C1272 H1266 0.950 . S
C1272 C1273 1.327 . S
C1273 H1267 0.950 . S
C1273 C1272 1.327 . S
C1273 C1277 1.429 . S
C1274 C1257 1.574 . S
C1274 H1268 0.949 . S
C1274 C1278 1.368 . S
C1275 C1256 1.429 . S
C1275 C1269 1.429 . S
C1275 C1276 1.523 . S
C1276 C1257 1.368 . S
C1276 C1270 1.368 . S
C1276 C1275 1.523 . S
C1277 C1261 1.429 . S
C1277 C1273 1.429 . S
C1277 C1278 1.523 . S
C1278 C1262 1.368 . S
C1278 C1274 1.368 . S
C1278 C1277 1.523 . S
H1279 C1254 0.950 . S
H1280 C1256 0.950 . S
H1281 C1257 0.949 . S
H1282 C1259 0.950 . S
H1283 C1261 0.950 . S
C1284 C1285 1.349 . S
C1284 C1286 1.327 . S
C1284 H1309 0.950 . S
C1285 C1284 1.349 . S
C1285 C1301 1.349 . S
C1286 C1284 1.327 . S
C1286 C1305 1.429 . S
C1286 H1310 0.950 . S
C1287 C1304 1.574 . S
C1287 C1306 1.368 . S
C1287 H1311 0.949 . S
H1288 C1292 0.949 . S
C1289 C1290 1.349 . S
C1289 C1291 1.327 . S
C1289 H1312 0.950 . S
C1290 C1289 1.349 . S
C1290 C1302 1.349 . S
C1291 C1289 1.327 . S
C1291 C1307 1.429 . S
C1291 H1313 0.950 . S
C1292 H1288 0.949 . S
C1292 C1300 1.574 . S
C1292 C1308 1.368 . S
H1293 C1301 0.950 . S
H1294 C1299 0.950 . S
H1295 C1300 0.949 . S
H1296 C1302 0.950 . S
H1297 C1303 0.950 . S
H1298 C1304 0.949 . S
C1299 H1294 0.950 . S
C1299 C1301 1.327 . S
C1299 C1305 1.429 . S
C1300 C1292 1.574 . S
C1300 H1295 0.949 . S
C1300 C1306 1.368 . S
C1301 C1285 1.349 . S
C1301 H1293 0.950 . S
C1301 C1299 1.327 . S
C1302 C1290 1.349 . S
C1302 H1296 0.950 . S
C1302 C1303 1.327 . S
C1303 H1297 0.950 . S
C1303 C1302 1.327 . S
C1303 C1307 1.429 . S
C1304 C1287 1.574 . S
C1304 H1298 0.949 . S
C1304 C1308 1.368 . S
C1305 C1286 1.429 . S
C1305 C1299 1.429 . S
C1305 C1306 1.523 . S
C1306 C1287 1.368 . S
C1306 C1300 1.368 . S
C1306 C1305 1.523 . S
C1307 C1291 1.429 . S
C1307 C1303 1.429 . S
C1307 C1308 1.523 . S
C1308 C1292 1.368 . S
C1308 C1304 1.368 . S
C1308 C1307 1.523 . S
H1309 C1284 0.950 . S
H1310 C1286 0.950 . S
H1311 C1287 0.949 . S
H1312 C1289 0.950 . S
H1313 C1291 0.950 . S
C1314 C1315 1.349 . S
C1314 C1316 1.327 . S
C1314 H1339 0.950 . S
C1315 C1314 1.349 . S
C1315 C1331 1.349 . S
C1316 C1314 1.327 . S
C1316 C1335 1.429 . S
C1316 H1340 0.950 . S
C1317 C1334 1.574 . S
C1317 C1336 1.368 . S
C1317 H1341 0.949 . S
H1318 C1322 0.949 . S
C1319 C1320 1.349 . S
C1319 C1321 1.327 . S
C1319 H1342 0.950 . S
C1320 C1319 1.349 . S
C1320 C1332 1.349 . S
C1321 C1319 1.327 . S
C1321 C1337 1.429 . S
C1321 H1343 0.950 . S
C1322 H1318 0.949 . S
C1322 C1330 1.574 . S
C1322 C1338 1.368 . S
H1323 C1331 0.950 . S
H1324 C1329 0.950 . S
H1325 C1330 0.949 . S
H1326 C1332 0.950 . S
H1327 C1333 0.950 . S
H1328 C1334 0.949 . S
C1329 H1324 0.950 . S
C1329 C1331 1.327 . S
C1329 C1335 1.429 . S
C1330 C1322 1.574 . S
C1330 H1325 0.949 . S
C1330 C1336 1.368 . S
C1331 C1315 1.349 . S
C1331 H1323 0.950 . S
C1331 C1329 1.327 . S
C1332 C1320 1.349 . S
C1332 H1326 0.950 . S
C1332 C1333 1.327 . S
C1333 H1327 0.950 . S
C1333 C1332 1.327 . S
C1333 C1337 1.429 . S
C1334 C1317 1.574 . S
C1334 H1328 0.949 . S
C1334 C1338 1.368 . S
C1335 C1316 1.429 . S
C1335 C1329 1.429 . S
C1335 C1336 1.523 . S
C1336 C1317 1.368 . S
C1336 C1330 1.368 . S
C1336 C1335 1.523 . S
C1337 C1321 1.429 . S
C1337 C1333 1.429 . S
C1337 C1338 1.523 . S
C1338 C1322 1.368 . S
C1338 C1334 1.368 . S
C1338 C1337 1.523 . S
H1339 C1314 0.950 . S
H1340 C1316 0.950 . S
H1341 C1317 0.949 . S
H1342 C1319 0.950 . S
H1343 C1321 0.950 . S
C1344 C1345 1.349 . S
C1344 C1346 1.327 . S
C1344 H1369 0.950 . S
C1345 C1344 1.349 . S
C1345 C1361 1.349 . S
C1346 C1344 1.327 . S
C1346 C1365 1.429 . S
C1346 H1370 0.950 . S
C1347 C1364 1.574 . S
C1347 C1366 1.368 . S
C1347 H1371 0.949 . S
H1348 C1352 0.949 . S
C1349 C1350 1.349 . S
C1349 C1351 1.327 . S
C1349 H1372 0.950 . S
C1350 C1349 1.349 . S
C1350 C1362 1.349 . S
C1351 C1349 1.327 . S
C1351 C1367 1.429 . S
C1351 H1373 0.950 . S
C1352 H1348 0.949 . S
C1352 C1360 1.574 . S
C1352 C1368 1.368 . S
H1353 C1361 0.950 . S
H1354 C1359 0.950 . S
H1355 C1360 0.949 . S
H1356 C1362 0.950 . S
H1357 C1363 0.950 . S
H1358 C1364 0.949 . S
C1359 H1354 0.950 . S
C1359 C1361 1.327 . S
C1359 C1365 1.429 . S
C1360 C1352 1.574 . S
C1360 H1355 0.949 . S
C1360 C1366 1.368 . S
C1361 C1345 1.349 . S
C1361 H1353 0.950 . S
C1361 C1359 1.327 . S
C1362 C1350 1.349 . S
C1362 H1356 0.950 . S
C1362 C1363 1.327 . S
C1363 H1357 0.950 . S
C1363 C1362 1.327 . S
C1363 C1367 1.429 . S
C1364 C1347 1.574 . S
C1364 H1358 0.949 . S
C1364 C1368 1.368 . S
C1365 C1346 1.429 . S
C1365 C1359 1.429 . S
C1365 C1366 1.523 . S
C1366 C1347 1.368 . S
C1366 C1360 1.368 . S
C1366 C1365 1.523 . S
C1367 C1351 1.429 . S
C1367 C1363 1.429 . S
C1367 C1368 1.523 . S
C1368 C1352 1.368 . S
C1368 C1364 1.368 . S
C1368 C1367 1.523 . S
H1369 C1344 0.950 . S
H1370 C1346 0.950 . S
H1371 C1347 0.949 . S
H1372 C1349 0.950 . S
H1373 C1351 0.950 . S
C1374 C1375 1.349 . S
C1374 C1376 1.327 . S
C1374 H1399 0.950 . S
C1375 C1374 1.349 . S
C1375 C1391 1.349 . S
C1376 C1374 1.327 . S
C1376 C1395 1.429 . S
C1376 H1400 0.950 . S
C1377 C1394 1.574 . S
C1377 C1396 1.368 . S
C1377 H1401 0.949 . S
H1378 C1382 0.949 . S
C1379 C1380 1.349 . S
C1379 C1381 1.327 . S
C1379 H1402 0.950 . S
C1380 C1379 1.349 . S
C1380 C1392 1.349 . S
C1381 C1379 1.327 . S
C1381 C1397 1.429 . S
C1381 H1403 0.950 . S
C1382 H1378 0.949 . S
C1382 C1390 1.574 . S
C1382 C1398 1.368 . S
H1383 C1391 0.950 . S
H1384 C1389 0.950 . S
H1385 C1390 0.949 . S
H1386 C1392 0.950 . S
H1387 C1393 0.950 . S
H1388 C1394 0.949 . S
C1389 H1384 0.950 . S
C1389 C1391 1.327 . S
C1389 C1395 1.429 . S
C1390 C1382 1.574 . S
C1390 H1385 0.949 . S
C1390 C1396 1.368 . S
C1391 C1375 1.349 . S
C1391 H1383 0.950 . S
C1391 C1389 1.327 . S
C1392 C1380 1.349 . S
C1392 H1386 0.950 . S
C1392 C1393 1.327 . S
C1393 H1387 0.950 . S
C1393 C1392 1.327 . S
C1393 C1397 1.429 . S
C1394 C1377 1.574 . S
C1394 H1388 0.949 . S
C1394 C1398 1.368 . S
C1395 C1376 1.429 . S
C1395 C1389 1.429 . S
C1395 C1396 1.523 . S
C1396 C1377 1.368 . S
C1396 C1390 1.368 . S
C1396 C1395 1.523 . S
C1397 C1381 1.429 . S
C1397 C1393 1.429 . S
C1397 C1398 1.523 . S
C1398 C1382 1.368 . S
C1398 C1394 1.368 . S
C1398 C1397 1.523 . S
H1399 C1374 0.950 . S
H1400 C1376 0.950 . S
H1401 C1377 0.949 . S
H1402 C1379 0.950 . S
H1403 C1381 0.950 . S
C1404 C1405 1.349 . S
C1404 C1406 1.327 . S
C1404 H1429 0.950 . S
C1405 C1404 1.349 . S
C1405 C1421 1.349 . S
C1406 C1404 1.327 . S
C1406 C1425 1.429 . S
C1406 H1430 0.950 . S
C1407 C1424 1.574 . S
C1407 C1426 1.368 . S
C1407 H1431 0.949 . S
H1408 C1412 0.949 . S
C1409 C1410 1.349 . S
C1409 C1411 1.327 . S
C1409 H1432 0.950 . S
C1410 C1409 1.349 . S
C1410 C1422 1.349 . S
C1411 C1409 1.327 . S
C1411 C1427 1.429 . S
C1411 H1433 0.950 . S
C1412 H1408 0.949 . S
C1412 C1420 1.574 . S
C1412 C1428 1.368 . S
H1413 C1421 0.950 . S
H1414 C1419 0.950 . S
H1415 C1420 0.949 . S
H1416 C1422 0.950 . S
H1417 C1423 0.950 . S
H1418 C1424 0.949 . S
C1419 H1414 0.950 . S
C1419 C1421 1.327 . S
C1419 C1425 1.429 . S
C1420 C1412 1.574 . S
C1420 H1415 0.949 . S
C1420 C1426 1.368 . S
C1421 C1405 1.349 . S
C1421 H1413 0.950 . S
C1421 C1419 1.327 . S
C1422 C1410 1.349 . S
C1422 H1416 0.950 . S
C1422 C1423 1.327 . S
C1423 H1417 0.950 . S
C1423 C1422 1.327 . S
C1423 C1427 1.429 . S
C1424 C1407 1.574 . S
C1424 H1418 0.949 . S
C1424 C1428 1.368 . S
C1425 C1406 1.429 . S
C1425 C1419 1.429 . S
C1425 C1426 1.523 . S
C1426 C1407 1.368 . S
C1426 C1420 1.368 . S
C1426 C1425 1.523 . S
C1427 C1411 1.429 . S
C1427 C1423 1.429 . S
C1427 C1428 1.523 . S
C1428 C1412 1.368 . S
C1428 C1424 1.368 . S
C1428 C1427 1.523 . S
H1429 C1404 0.950 . S
H1430 C1406 0.950 . S
H1431 C1407 0.949 . S
H1432 C1409 0.950 . S
H1433 C1411 0.950 . S
C1434 C1435 1.349 . S
C1434 C1436 1.327 . S
C1434 H1459 0.950 . S
C1435 C1434 1.349 . S
C1435 C1451 1.349 . S
C1436 C1434 1.327 . S
C1436 C1455 1.429 . S
C1436 H1460 0.950 . S
C1437 C1454 1.574 . S
C1437 C1456 1.368 . S
C1437 H1461 0.949 . S
H1438 C1442 0.949 . S
C1439 C1440 1.349 . S
C1439 C1441 1.327 . S
C1439 H1462 0.950 . S
C1440 C1439 1.349 . S
C1440 C1452 1.349 . S
C1441 C1439 1.327 . S
C1441 C1457 1.429 . S
C1441 H1463 0.950 . S
C1442 H1438 0.949 . S
C1442 C1450 1.574 . S
C1442 C1458 1.368 . S
H1443 C1451 0.950 . S
H1444 C1449 0.950 . S
H1445 C1450 0.949 . S
H1446 C1452 0.950 . S
H1447 C1453 0.950 . S
H1448 C1454 0.949 . S
C1449 H1444 0.950 . S
C1449 C1451 1.327 . S
C1449 C1455 1.429 . S
C1450 C1442 1.574 . S
C1450 H1445 0.949 . S
C1450 C1456 1.368 . S
C1451 C1435 1.349 . S
C1451 H1443 0.950 . S
C1451 C1449 1.327 . S
C1452 C1440 1.349 . S
C1452 H1446 0.950 . S
C1452 C1453 1.327 . S
C1453 H1447 0.950 . S
C1453 C1452 1.327 . S
C1453 C1457 1.429 . S
C1454 C1437 1.574 . S
C1454 H1448 0.949 . S
C1454 C1458 1.368 . S
C1455 C1436 1.429 . S
C1455 C1449 1.429 . S
C1455 C1456 1.523 . S
C1456 C1437 1.368 . S
C1456 C1450 1.368 . S
C1456 C1455 1.523 . S
C1457 C1441 1.429 . S
C1457 C1453 1.429 . S
C1457 C1458 1.523 . S
C1458 C1442 1.368 . S
C1458 C1454 1.368 . S
C1458 C1457 1.523 . S
H1459 C1434 0.950 . S
H1460 C1436 0.950 . S
H1461 C1437 0.949 . S
H1462 C1439 0.950 . S
H1463 C1441 0.950 . S
C1464 C1465 1.349 . S
C1464 C1466 1.327 . S
C1464 H1489 0.950 . S
C1465 C1464 1.349 . S
C1465 C1481 1.349 . S
C1466 C1464 1.327 . S
C1466 C1485 1.429 . S
C1466 H1490 0.950 . S
C1467 C1484 1.574 . S
C1467 C1486 1.368 . S
C1467 H1491 0.949 . S
H1468 C1472 0.949 . S
C1469 C1470 1.349 . S
C1469 C1471 1.327 . S
C1469 H1492 0.950 . S
C1470 C1469 1.349 . S
C1470 C1482 1.349 . S
C1471 C1469 1.327 . S
C1471 C1487 1.429 . S
C1471 H1493 0.950 . S
C1472 H1468 0.949 . S
C1472 C1480 1.574 . S
C1472 C1488 1.368 . S
H1473 C1481 0.950 . S
H1474 C1479 0.950 . S
H1475 C1480 0.949 . S
H1476 C1482 0.950 . S
H1477 C1483 0.950 . S
H1478 C1484 0.949 . S
C1479 H1474 0.950 . S
C1479 C1481 1.327 . S
C1479 C1485 1.429 . S
C1480 C1472 1.574 . S
C1480 H1475 0.949 . S
C1480 C1486 1.368 . S
C1481 C1465 1.349 . S
C1481 H1473 0.950 . S
C1481 C1479 1.327 . S
C1482 C1470 1.349 . S
C1482 H1476 0.950 . S
C1482 C1483 1.327 . S
C1483 H1477 0.950 . S
C1483 C1482 1.327 . S
C1483 C1487 1.429 . S
C1484 C1467 1.574 . S
C1484 H1478 0.949 . S
C1484 C1488 1.368 . S
C1485 C1466 1.429 . S
C1485 C1479 1.429 . S
C1485 C1486 1.523 . S
C1486 C1467 1.368 . S
C1486 C1480 1.368 . S
C1486 C1485 1.523 . S
C1487 C1471 1.429 . S
C1487 C1483 1.429 . S
C1487 C1488 1.523 . S
C1488 C1472 1.368 . S
C1488 C1484 1.368 . S
C1488 C1487 1.523 . S
H1489 C1464 0.950 . S
H1490 C1466 0.950 . S
H1491 C1467 0.949 . S
H1492 C1469 0.950 . S
H1493 C1471 0.950 . S
C1494 C1495 1.349 . S
C1494 C1496 1.327 . S
C1494 H1519 0.950 . S
C1495 C1494 1.349 . S
C1495 C1511 1.349 . S
C1496 C1494 1.327 . S
C1496 C1515 1.429 . S
C1496 H1520 0.950 . S
C1497 C1514 1.574 . S
C1497 C1516 1.368 . S
C1497 H1521 0.949 . S
H1498 C1502 0.949 . S
C1499 C1500 1.349 . S
C1499 C1501 1.327 . S
C1499 H1522 0.950 . S
C1500 C1499 1.349 . S
C1500 C1512 1.349 . S
C1501 C1499 1.327 . S
C1501 C1517 1.429 . S
C1501 H1523 0.950 . S
C1502 H1498 0.949 . S
C1502 C1510 1.574 . S
C1502 C1518 1.368 . S
H1503 C1511 0.950 . S
H1504 C1509 0.950 . S
H1505 C1510 0.949 . S
H1506 C1512 0.950 . S
H1507 C1513 0.950 . S
H1508 C1514 0.949 . S
C1509 H1504 0.950 . S
C1509 C1511 1.327 . S
C1509 C1515 1.429 . S
C1510 C1502 1.574 . S
C1510 H1505 0.949 . S
C1510 C1516 1.368 . S
C1511 C1495 1.349 . S
C1511 H1503 0.950 . S
C1511 C1509 1.327 . S
C1512 C1500 1.349 . S
C1512 H1506 0.950 . S
C1512 C1513 1.327 . S
C1513 H1507 0.950 . S
C1513 C1512 1.327 . S
C1513 C1517 1.429 . S
C1514 C1497 1.574 . S
C1514 H1508 0.949 . S
C1514 C1518 1.368 . S
C1515 C1496 1.429 . S
C1515 C1509 1.429 . S
C1515 C1516 1.523 . S
C1516 C1497 1.368 . S
C1516 C1510 1.368 . S
C1516 C1515 1.523 . S
C1517 C1501 1.429 . S
C1517 C1513 1.429 . S
C1517 C1518 1.523 . S
C1518 C1502 1.368 . S
C1518 C1514 1.368 . S
C1518 C1517 1.523 . S
H1519 C1494 0.950 . S
H1520 C1496 0.950 . S
H1521 C1497 0.949 . S
H1522 C1499 0.950 . S
H1523 C1501 0.950 . S
C1524 C1525 1.349 . S
C1524 C1526 1.327 . S
C1524 H1549 0.950 . S
C1525 C1524 1.349 . S
C1525 C1541 1.349 . S
C1526 C1524 1.327 . S
C1526 C1545 1.429 . S
C1526 H1550 0.950 . S
C1527 C1544 1.574 . S
C1527 C1546 1.368 . S
C1527 H1551 0.949 . S
H1528 C1532 0.949 . S
C1529 C1530 1.349 . S
C1529 C1531 1.327 . S
C1529 H1552 0.950 . S
C1530 C1529 1.349 . S
C1530 C1542 1.349 . S
C1531 C1529 1.327 . S
C1531 C1547 1.429 . S
C1531 H1553 0.950 . S
C1532 H1528 0.949 . S
C1532 C1540 1.574 . S
C1532 C1548 1.368 . S
H1533 C1541 0.950 . S
H1534 C1539 0.950 . S
H1535 C1540 0.949 . S
H1536 C1542 0.950 . S
H1537 C1543 0.950 . S
H1538 C1544 0.949 . S
C1539 H1534 0.950 . S
C1539 C1541 1.327 . S
C1539 C1545 1.429 . S
C1540 C1532 1.574 . S
C1540 H1535 0.949 . S
C1540 C1546 1.368 . S
C1541 C1525 1.349 . S
C1541 H1533 0.950 . S
C1541 C1539 1.327 . S
C1542 C1530 1.349 . S
C1542 H1536 0.950 . S
C1542 C1543 1.327 . S
C1543 H1537 0.950 . S
C1543 C1542 1.327 . S
C1543 C1547 1.429 . S
C1544 C1527 1.574 . S
C1544 H1538 0.949 . S
C1544 C1548 1.368 . S
C1545 C1526 1.429 . S
C1545 C1539 1.429 . S
C1545 C1546 1.523 . S
C1546 C1527 1.368 . S
C1546 C1540 1.368 . S
C1546 C1545 1.523 . S
C1547 C1531 1.429 . S
C1547 C1543 1.429 . S
C1547 C1548 1.523 . S
C1548 C1532 1.368 . S
C1548 C1544 1.368 . S
C1548 C1547 1.523 . S
H1549 C1524 0.950 . S
H1550 C1526 0.950 . S
H1551 C1527 0.949 . S
H1552 C1529 0.950 . S
H1553 C1531 0.950 . S
C1554 C1555 1.349 . S
C1554 C1556 1.327 . S
C1554 H1579 0.950 . S
C1555 C1554 1.349 . S
C1555 C1571 1.349 . S
C1556 C1554 1.327 . S
C1556 C1575 1.429 . S
C1556 H1580 0.950 . S
C1557 C1574 1.574 . S
C1557 C1576 1.368 . S
C1557 H1581 0.949 . S
H1558 C1562 0.949 . S
C1559 C1560 1.349 . S
C1559 C1561 1.327 . S
C1559 H1582 0.950 . S
C1560 C1559 1.349 . S
C1560 C1572 1.349 . S
C1561 C1559 1.327 . S
C1561 C1577 1.429 . S
C1561 H1583 0.950 . S
C1562 H1558 0.949 . S
C1562 C1570 1.574 . S
C1562 C1578 1.368 . S
H1563 C1571 0.950 . S
H1564 C1569 0.950 . S
H1565 C1570 0.949 . S
H1566 C1572 0.950 . S
H1567 C1573 0.950 . S
H1568 C1574 0.949 . S
C1569 H1564 0.950 . S
C1569 C1571 1.327 . S
C1569 C1575 1.429 . S
C1570 C1562 1.574 . S
C1570 H1565 0.949 . S
C1570 C1576 1.368 . S
C1571 C1555 1.349 . S
C1571 H1563 0.950 . S
C1571 C1569 1.327 . S
C1572 C1560 1.349 . S
C1572 H1566 0.950 . S
C1572 C1573 1.327 . S
C1573 H1567 0.950 . S
C1573 C1572 1.327 . S
C1573 C1577 1.429 . S
C1574 C1557 1.574 . S
C1574 H1568 0.949 . S
C1574 C1578 1.368 . S
C1575 C1556 1.429 . S
C1575 C1569 1.429 . S
C1575 C1576 1.523 . S
C1576 C1557 1.368 . S
C1576 C1570 1.368 . S
C1576 C1575 1.523 . S
C1577 C1561 1.429 . S
C1577 C1573 1.429 . S
C1577 C1578 1.523 . S
C1578 C1562 1.368 . S
C1578 C1574 1.368 . S
C1578 C1577 1.523 . S
H1579 C1554 0.950 . S
H1580 C1556 0.950 . S
H1581 C1557 0.949 . S
H1582 C1559 0.950 . S
H1583 C1561 0.950 . S
C1584 C1585 1.349 . S
C1584 C1586 1.327 . S
C1584 H1609 0.950 . S
C1585 C1584 1.349 . S
C1585 C1601 1.349 . S
C1586 C1584 1.327 . S
C1586 C1605 1.429 . S
C1586 H1610 0.950 . S
C1587 C1604 1.574 . S
C1587 C1606 1.368 . S
C1587 H1611 0.949 . S
H1588 C1592 0.949 . S
C1589 C1590 1.349 . S
C1589 C1591 1.327 . S
C1589 H1612 0.950 . S
C1590 C1589 1.349 . S
C1590 C1602 1.349 . S
C1591 C1589 1.327 . S
C1591 C1607 1.429 . S
C1591 H1613 0.950 . S
C1592 H1588 0.949 . S
C1592 C1600 1.574 . S
C1592 C1608 1.368 . S
H1593 C1601 0.950 . S
H1594 C1599 0.950 . S
H1595 C1600 0.949 . S
H1596 C1602 0.950 . S
H1597 C1603 0.950 . S
H1598 C1604 0.949 . S
C1599 H1594 0.950 . S
C1599 C1601 1.327 . S
C1599 C1605 1.429 . S
C1600 C1592 1.574 . S
C1600 H1595 0.949 . S
C1600 C1606 1.368 . S
C1601 C1585 1.349 . S
C1601 H1593 0.950 . S
C1601 C1599 1.327 . S
C1602 C1590 1.349 . S
C1602 H1596 0.950 . S
C1602 C1603 1.327 . S
C1603 H1597 0.950 . S
C1603 C1602 1.327 . S
C1603 C1607 1.429 . S
C1604 C1587 1.574 . S
C1604 H1598 0.949 . S
C1604 C1608 1.368 . S
C1605 C1586 1.429 . S
C1605 C1599 1.429 . S
C1605 C1606 1.523 . S
C1606 C1587 1.368 . S
C1606 C1600 1.368 . S
C1606 C1605 1.523 . S
C1607 C1591 1.429 . S
C1607 C1603 1.429 . S
C1607 C1608 1.523 . S
C1608 C1592 1.368 . S
C1608 C1604 1.368 . S
C1608 C1607 1.523 . S
H1609 C1584 0.950 . S
H1610 C1586 0.950 . S
H1611 C1587 0.949 . S
H1612 C1589 0.950 . S
H1613 C1591 0.950 . S
C1614 C1615 1.349 . S
C1614 C1616 1.327 . S
C1614 H1639 0.950 . S
C1615 C1614 1.349 . S
C1615 C1631 1.349 . S
C1616 C1614 1.327 . S
C1616 C1635 1.429 . S
C1616 H1640 0.950 . S
C1617 C1634 1.574 . S
C1617 C1636 1.368 . S
C1617 H1641 0.949 . S
H1618 C1622 0.949 . S
C1619 C1620 1.349 . S
C1619 C1621 1.327 . S
C1619 H1642 0.950 . S
C1620 C1619 1.349 . S
C1620 C1632 1.349 . S
C1621 C1619 1.327 . S
C1621 C1637 1.429 . S
C1621 H1643 0.950 . S
C1622 H1618 0.949 . S
C1622 C1630 1.574 . S
C1622 C1638 1.368 . S
H1623 C1631 0.950 . S
H1624 C1629 0.950 . S
H1625 C1630 0.949 . S
H1626 C1632 0.950 . S
H1627 C1633 0.950 . S
H1628 C1634 0.949 . S
C1629 H1624 0.950 . S
C1629 C1631 1.327 . S
C1629 C1635 1.429 . S
C1630 C1622 1.574 . S
C1630 H1625 0.949 . S
C1630 C1636 1.368 . S
C1631 C1615 1.349 . S
C1631 H1623 0.950 . S
C1631 C1629 1.327 . S
C1632 C1620 1.349 . S
C1632 H1626 0.950 . S
C1632 C1633 1.327 . S
C1633 H1627 0.950 . S
C1633 C1632 1.327 . S
C1633 C1637 1.429 . S
C1634 C1617 1.574 . S
C1634 H1628 0.949 . S
C1634 C1638 1.368 . S
C1635 C1616 1.429 . S
C1635 C1629 1.429 . S
C1635 C1636 1.523 . S
C1636 C1617 1.368 . S
C1636 C1630 1.368 . S
C1636 C1635 1.523 . S
C1637 C1621 1.429 . S
C1637 C1633 1.429 . S
C1637 C1638 1.523 . S
C1638 C1622 1.368 . S
C1638 C1634 1.368 . S
C1638 C1637 1.523 . S
H1639 C1614 0.950 . S
H1640 C1616 0.950 . S
H1641 C1617 0.949 . S
H1642 C1619 0.950 . S
H1643 C1621 0.950 . S
C1644 C1645 1.349 . S
C1644 C1646 1.327 . S
C1644 H1669 0.950 . S
C1645 C1644 1.349 . S
C1645 C1661 1.349 . S
C1646 C1644 1.327 . S
C1646 C1665 1.429 . S
C1646 H1670 0.950 . S
C1647 C1664 1.574 . S
C1647 C1666 1.368 . S
C1647 H1671 0.949 . S
H1648 C1652 0.949 . S
C1649 C1650 1.349 . S
C1649 C1651 1.327 . S
C1649 H1672 0.950 . S
C1650 C1649 1.349 . S
C1650 C1662 1.349 . S
C1651 C1649 1.327 . S
C1651 C1667 1.429 . S
C1651 H1673 0.950 . S
C1652 H1648 0.949 . S
C1652 C1660 1.574 . S
C1652 C1668 1.368 . S
H1653 C1661 0.950 . S
H1654 C1659 0.950 . S
H1655 C1660 0.949 . S
H1656 C1662 0.950 . S
H1657 C1663 0.950 . S
H1658 C1664 0.949 . S
C1659 H1654 0.950 . S
C1659 C1661 1.327 . S
C1659 C1665 1.429 . S
C1660 C1652 1.574 . S
C1660 H1655 0.949 . S
C1660 C1666 1.368 . S
C1661 C1645 1.349 . S
C1661 H1653 0.950 . S
C1661 C1659 1.327 . S
C1662 C1650 1.349 . S
C1662 H1656 0.950 . S
C1662 C1663 1.327 . S
C1663 H1657 0.950 . S
C1663 C1662 1.327 . S
C1663 C1667 1.429 . S
C1664 C1647 1.574 . S
C1664 H1658 0.949 . S
C1664 C1668 1.368 . S
C1665 C1646 1.429 . S
C1665 C1659 1.429 . S
C1665 C1666 1.523 . S
C1666 C1647 1.368 . S
C1666 C1660 1.368 . S
C1666 C1665 1.523 . S
C1667 C1651 1.429 . S
C1667 C1663 1.429 . S
C1667 C1668 1.523 . S
C1668 C1652 1.368 . S
C1668 C1664 1.368 . S
C1668 C1667 1.523 . S
H1669 C1644 0.950 . S
H1670 C1646 0.950 . S
H1671 C1647 0.949 . S
H1672 C1649 0.950 . S
H1673 C1651 0.950 . S
C1674 C1675 1.349 . S
C1674 C1676 1.327 . S
C1674 H1699 0.950 . S
C1675 C1674 1.349 . S
C1675 C1691 1.349 . S
C1676 C1674 1.327 . S
C1676 C1695 1.429 . S
C1676 H1700 0.950 . S
C1677 C1694 1.574 . S
C1677 C1696 1.368 . S
C1677 H1701 0.949 . S
H1678 C1682 0.949 . S
C1679 C1680 1.349 . S
C1679 C1681 1.327 . S
C1679 H1702 0.950 . S
C1680 C1679 1.349 . S
C1680 C1692 1.349 . S
C1681 C1679 1.327 . S
C1681 C1697 1.429 . S
C1681 H1703 0.950 . S
C1682 H1678 0.949 . S
C1682 C1690 1.574 . S
C1682 C1698 1.368 . S
H1683 C1691 0.950 . S
H1684 C1689 0.950 . S
H1685 C1690 0.949 . S
H1686 C1692 0.950 . S
H1687 C1693 0.950 . S
H1688 C1694 0.949 . S
C1689 H1684 0.950 . S
C1689 C1691 1.327 . S
C1689 C1695 1.429 . S
C1690 C1682 1.574 . S
C1690 H1685 0.949 . S
C1690 C1696 1.368 . S
C1691 C1675 1.349 . S
C1691 H1683 0.950 . S
C1691 C1689 1.327 . S
C1692 C1680 1.349 . S
C1692 H1686 0.950 . S
C1692 C1693 1.327 . S
C1693 H1687 0.950 . S
C1693 C1692 1.327 . S
C1693 C1697 1.429 . S
C1694 C1677 1.574 . S
C1694 H1688 0.949 . S
C1694 C1698 1.368 . S
C1695 C1676 1.429 . S
C1695 C1689 1.429 . S
C1695 C1696 1.523 . S
C1696 C1677 1.368 . S
C1696 C1690 1.368 . S
C1696 C1695 1.523 . S
C1697 C1681 1.429 . S
C1697 C1693 1.429 . S
C1697 C1698 1.523 . S
C1698 C1682 1.368 . S
C1698 C1694 1.368 . S
C1698 C1697 1.523 . S
H1699 C1674 0.950 . S
H1700 C1676 0.950 . S
H1701 C1677 0.949 . S
H1702 C1679 0.950 . S
H1703 C1681 0.950 . S
C1704 C1705 1.349 . S
C1704 C1706 1.327 . S
C1704 H1729 0.950 . S
C1705 C1704 1.349 . S
C1705 C1721 1.349 . S
C1706 C1704 1.327 . S
C1706 C1725 1.429 . S
C1706 H1730 0.950 . S
C1707 C1724 1.574 . S
C1707 C1726 1.368 . S
C1707 H1731 0.949 . S
H1708 C1712 0.949 . S
C1709 C1710 1.349 . S
C1709 C1711 1.327 . S
C1709 H1732 0.950 . S
C1710 C1709 1.349 . S
C1710 C1722 1.349 . S
C1711 C1709 1.327 . S
C1711 C1727 1.429 . S
C1711 H1733 0.950 . S
C1712 H1708 0.949 . S
C1712 C1720 1.574 . S
C1712 C1728 1.368 . S
H1713 C1721 0.950 . S
H1714 C1719 0.950 . S
H1715 C1720 0.949 . S
H1716 C1722 0.950 . S
H1717 C1723 0.950 . S
H1718 C1724 0.949 . S
C1719 H1714 0.950 . S
C1719 C1721 1.327 . S
C1719 C1725 1.429 . S
C1720 C1712 1.574 . S
C1720 H1715 0.949 . S
C1720 C1726 1.368 . S
C1721 C1705 1.349 . S
C1721 H1713 0.950 . S
C1721 C1719 1.327 . S
C1722 C1710 1.349 . S
C1722 H1716 0.950 . S
C1722 C1723 1.327 . S
C1723 H1717 0.950 . S
C1723 C1722 1.327 . S
C1723 C1727 1.429 . S
C1724 C1707 1.574 . S
C1724 H1718 0.949 . S
C1724 C1728 1.368 . S
C1725 C1706 1.429 . S
C1725 C1719 1.429 . S
C1725 C1726 1.523 . S
C1726 C1707 1.368 . S
C1726 C1720 1.368 . S
C1726 C1725 1.523 . S
C1727 C1711 1.429 . S
C1727 C1723 1.429 . S
C1727 C1728 1.523 . S
C1728 C1712 1.368 . S
C1728 C1724 1.368 . S
C1728 C1727 1.523 . S
H1729 C1704 0.950 . S
H1730 C1706 0.950 . S
H1731 C1707 0.949 . S
H1732 C1709 0.950 . S
H1733 C1711 0.950 . S
C1734 C1735 1.349 . S
C1734 C1736 1.327 . S
C1734 H1759 0.950 . S
C1735 C1734 1.349 . S
C1735 C1751 1.349 . S
C1736 C1734 1.327 . S
C1736 C1755 1.429 . S
C1736 H1760 0.950 . S
C1737 C1754 1.574 . S
C1737 C1756 1.368 . S
C1737 H1761 0.949 . S
H1738 C1742 0.949 . S
C1739 C1740 1.349 . S
C1739 C1741 1.327 . S
C1739 H1762 0.931 1_554 S
C1740 C1739 1.349 . S
C1740 C1752 1.349 . S
C1741 C1739 1.327 . S
C1741 C1757 1.429 . S
C1741 H1763 0.950 . S
C1742 H1738 0.949 . S
C1742 C1750 1.574 . S
C1742 C1758 1.368 . S
H1743 C1751 0.950 . S
H1744 C1749 0.950 . S
H1745 C1750 0.949 . S
H1746 C1752 0.950 . S
H1747 C1753 0.950 . S
H1748 C1754 0.949 . S
C1749 H1744 0.950 . S
C1749 C1751 1.327 . S
C1749 C1755 1.429 . S
C1750 C1742 1.574 . S
C1750 H1745 0.949 . S
C1750 C1756 1.368 . S
C1751 C1735 1.349 . S
C1751 H1743 0.950 . S
C1751 C1749 1.327 . S
C1752 C1740 1.349 . S
C1752 H1746 0.950 . S
C1752 C1753 1.327 . S
C1753 H1747 0.950 . S
C1753 C1752 1.327 . S
C1753 C1757 1.429 . S
C1754 C1737 1.574 . S
C1754 H1748 0.949 . S
C1754 C1758 1.368 . S
C1755 C1736 1.429 . S
C1755 C1749 1.429 . S
C1755 C1756 1.523 . S
C1756 C1737 1.368 . S
C1756 C1750 1.368 . S
C1756 C1755 1.523 . S
C1757 C1741 1.429 . S
C1757 C1753 1.429 . S
C1757 C1758 1.523 . S
C1758 C1742 1.368 . S
C1758 C1754 1.368 . S
C1758 C1757 1.523 . S
H1759 C1734 0.950 . S
H1760 C1736 0.950 . S
H1761 C1737 0.949 . S
H1762 C1739 0.931 1_556 S
H1763 C1741 0.950 . S
C1764 C1765 1.349 . S
C1764 C1766 1.327 . S
C1764 H1789 0.950 . S
C1765 C1764 1.349 . S
C1765 C1781 1.349 . S
C1766 C1764 1.327 . S
C1766 C1785 1.429 . S
C1766 H1790 0.950 . S
C1767 C1784 1.574 . S
C1767 C1786 1.368 . S
C1767 H1791 0.949 . S
H1768 C1772 0.949 . S
C1769 C1770 1.349 . S
C1769 C1771 1.327 . S
C1769 H1792 0.950 . S
C1770 C1769 1.349 . S
C1770 C1782 1.349 . S
C1771 C1769 1.327 . S
C1771 C1787 1.429 . S
C1771 H1793 0.950 . S
C1772 H1768 0.949 . S
C1772 C1780 1.574 . S
C1772 C1788 1.368 . S
H1773 C1781 0.950 . S
H1774 C1779 0.950 . S
H1775 C1780 0.949 . S
H1776 C1782 0.950 . S
H1777 C1783 0.950 . S
H1778 C1784 0.949 . S
C1779 H1774 0.950 . S
C1779 C1781 1.327 . S
C1779 C1785 1.429 . S
C1780 C1772 1.574 . S
C1780 H1775 0.949 . S
C1780 C1786 1.368 . S
C1781 C1765 1.349 . S
C1781 H1773 0.950 . S
C1781 C1779 1.327 . S
C1782 C1770 1.349 . S
C1782 H1776 0.950 . S
C1782 C1783 1.327 . S
C1783 H1777 0.950 . S
C1783 C1782 1.327 . S
C1783 C1787 1.429 . S
C1784 C1767 1.574 . S
C1784 H1778 0.949 . S
C1784 C1788 1.368 . S
C1785 C1766 1.429 . S
C1785 C1779 1.429 . S
C1785 C1786 1.523 . S
C1786 C1767 1.368 . S
C1786 C1780 1.368 . S
C1786 C1785 1.523 . S
C1787 C1771 1.429 . S
C1787 C1783 1.429 . S
C1787 C1788 1.523 . S
C1788 C1772 1.368 . S
C1788 C1784 1.368 . S
C1788 C1787 1.523 . S
H1789 C1764 0.950 . S
H1790 C1766 0.950 . S
H1791 C1767 0.949 . S
H1792 C1769 0.950 . S
H1793 C1771 0.950 . S
C1794 C1795 1.349 . S
C1794 C1796 1.327 . S
C1794 H1819 0.950 . S
C1795 C1794 1.349 . S
C1795 C1811 1.349 . S
C1796 C1794 1.327 . S
C1796 C1815 1.429 . S
C1796 H1820 0.950 . S
C1797 C1814 1.574 . S
C1797 C1816 1.368 . S
C1797 H1821 0.949 . S
H1798 C1802 0.949 . S
C1799 C1800 1.349 . S
C1799 C1801 1.327 . S
C1799 H1822 0.950 . S
C1800 C1799 1.349 . S
C1800 C1812 1.349 . S
C1801 C1799 1.327 . S
C1801 C1817 1.429 . S
C1801 H1823 0.950 . S
C1802 H1798 0.949 . S
C1802 C1810 1.574 . S
C1802 C1818 1.368 . S
H1803 C1811 0.950 . S
H1804 C1809 0.950 . S
H1805 C1810 0.949 . S
H1806 C1812 0.950 . S
H1807 C1813 0.950 . S
H1808 C1814 0.949 . S
C1809 H1804 0.950 . S
C1809 C1811 1.327 . S
C1809 C1815 1.429 . S
C1810 C1802 1.574 . S
C1810 H1805 0.949 . S
C1810 C1816 1.368 . S
C1811 C1795 1.349 . S
C1811 H1803 0.950 . S
C1811 C1809 1.327 . S
C1812 C1800 1.349 . S
C1812 H1806 0.950 . S
C1812 C1813 1.327 . S
C1813 H1807 0.950 . S
C1813 C1812 1.327 . S
C1813 C1817 1.429 . S
C1814 C1797 1.574 . S
C1814 H1808 0.949 . S
C1814 C1818 1.368 . S
C1815 C1796 1.429 . S
C1815 C1809 1.429 . S
C1815 C1816 1.523 . S
C1816 C1797 1.368 . S
C1816 C1810 1.368 . S
C1816 C1815 1.523 . S
C1817 C1801 1.429 . S
C1817 C1813 1.429 . S
C1817 C1818 1.523 . S
C1818 C1802 1.368 . S
C1818 C1814 1.368 . S
C1818 C1817 1.523 . S
H1819 C1794 0.950 . S
H1820 C1796 0.950 . S
H1821 C1797 0.949 . S
H1822 C1799 0.950 . S
H1823 C1801 0.950 . S
C1824 C1825 1.349 . S
C1824 C1826 1.327 . S
C1824 H1849 0.927 1_554 S
C1825 C1824 1.349 . S
C1825 C1841 1.349 . S
C1826 C1824 1.327 . S
C1826 C1845 1.429 . S
C1826 H1850 0.950 . S
C1827 C1844 1.574 . S
C1827 C1846 1.368 . S
C1827 H1851 0.949 . S
H1828 C1832 0.949 . S
C1829 C1830 1.349 . S
C1829 C1831 1.327 . S
C1829 H1852 0.950 . S
C1830 C1829 1.349 . S
C1830 C1842 1.349 . S
C1831 C1829 1.327 . S
C1831 C1847 1.429 . S
C1831 H1853 0.950 . S
C1832 H1828 0.949 . S
C1832 C1840 1.574 . S
C1832 C1848 1.368 . S
H1833 C1841 0.950 . S
H1834 C1839 0.950 . S
H1835 C1840 0.949 . S
H1836 C1842 0.950 . S
H1837 C1843 0.950 . S
H1838 C1844 0.949 . S
C1839 H1834 0.950 . S
C1839 C1841 1.327 . S
C1839 C1845 1.429 . S
C1840 C1832 1.574 . S
C1840 H1835 0.949 . S
C1840 C1846 1.368 . S
C1841 C1825 1.349 . S
C1841 H1833 0.950 . S
C1841 C1839 1.327 . S
C1842 C1830 1.349 . S
C1842 H1836 0.950 . S
C1842 C1843 1.327 . S
C1843 H1837 0.950 . S
C1843 C1842 1.327 . S
C1843 C1847 1.429 . S
C1844 C1827 1.574 . S
C1844 H1838 0.949 . S
C1844 C1848 1.368 . S
C1845 C1826 1.429 . S
C1845 C1839 1.429 . S
C1845 C1846 1.523 . S
C1846 C1827 1.368 . S
C1846 C1840 1.368 . S
C1846 C1845 1.523 . S
C1847 C1831 1.429 . S
C1847 C1843 1.429 . S
C1847 C1848 1.523 . S
C1848 C1832 1.368 . S
C1848 C1844 1.368 . S
C1848 C1847 1.523 . S
H1849 C1824 0.927 1_556 S
H1850 C1826 0.950 . S
H1851 C1827 0.949 . S
H1852 C1829 0.950 . S
H1853 C1831 0.950 . S
C1854 C1855 1.349 . S
C1854 C1856 1.327 . S
C1854 H1879 0.950 . S
C1855 C1854 1.349 . S
C1855 C1871 1.349 . S
C1856 C1854 1.327 . S
C1856 C1875 1.429 . S
C1856 H1880 0.950 . S
C1857 C1874 1.574 . S
C1857 C1876 1.368 . S
C1857 H1881 0.949 . S
H1858 C1862 0.949 . S
C1859 C1860 1.349 . S
C1859 C1861 1.327 . S
C1859 H1882 0.950 . S
C1860 C1859 1.349 . S
C1860 C1872 1.349 . S
C1861 C1859 1.327 . S
C1861 C1877 1.429 . S
C1861 H1883 0.950 . S
C1862 H1858 0.949 . S
C1862 C1870 1.574 . S
C1862 C1878 1.368 . S
H1863 C1871 0.950 . S
H1864 C1869 0.950 . S
H1865 C1870 0.949 . S
H1866 C1872 0.950 . S
H1867 C1873 0.950 . S
H1868 C1874 0.949 . S
C1869 H1864 0.950 . S
C1869 C1871 1.327 . S
C1869 C1875 1.429 . S
C1870 C1862 1.574 . S
C1870 H1865 0.949 . S
C1870 C1876 1.368 . S
C1871 C1855 1.349 . S
C1871 H1863 0.950 . S
C1871 C1869 1.327 . S
C1872 C1860 1.349 . S
C1872 H1866 0.950 . S
C1872 C1873 1.327 . S
C1873 H1867 0.950 . S
C1873 C1872 1.327 . S
C1873 C1877 1.429 . S
C1874 C1857 1.574 . S
C1874 H1868 0.949 . S
C1874 C1878 1.368 . S
C1875 C1856 1.429 . S
C1875 C1869 1.429 . S
C1875 C1876 1.523 . S
C1876 C1857 1.368 . S
C1876 C1870 1.368 . S
C1876 C1875 1.523 . S
C1877 C1861 1.429 . S
C1877 C1873 1.429 . S
C1877 C1878 1.523 . S
C1878 C1862 1.368 . S
C1878 C1874 1.368 . S
C1878 C1877 1.523 . S
H1879 C1854 0.950 . S
H1880 C1856 0.950 . S
H1881 C1857 0.949 . S
H1882 C1859 0.950 . S
H1883 C1861 0.950 . S
C1884 C1885 1.349 . S
C1884 C1886 1.327 . S
C1884 H1909 0.950 . S
C1885 C1884 1.349 . S
C1885 C1901 1.349 . S
C1886 C1884 1.327 . S
C1886 C1905 1.429 . S
C1886 H1910 0.950 . S
C1887 C1904 1.574 . S
C1887 C1906 1.368 . S
C1887 H1911 0.949 . S
H1888 C1892 0.949 . S
C1889 C1890 1.349 . S
C1889 C1891 1.327 . S
C1889 H1912 0.950 . S
C1890 C1889 1.349 . S
C1890 C1902 1.349 . S
C1891 C1889 1.327 . S
C1891 C1907 1.429 . S
C1891 H1913 0.950 . S
C1892 H1888 0.949 . S
C1892 C1900 1.574 . S
C1892 C1908 1.368 . S
H1893 C1901 0.950 . S
H1894 C1899 0.950 . S
H1895 C1900 0.949 . S
H1896 C1902 0.950 . S
H1897 C1903 0.950 . S
H1898 C1904 0.949 . S
C1899 H1894 0.950 . S
C1899 C1901 1.327 . S
C1899 C1905 1.429 . S
C1900 C1892 1.574 . S
C1900 H1895 0.949 . S
C1900 C1906 1.368 . S
C1901 C1885 1.349 . S
C1901 H1893 0.950 . S
C1901 C1899 1.327 . S
C1902 C1890 1.349 . S
C1902 H1896 0.950 . S
C1902 C1903 1.327 . S
C1903 H1897 0.950 . S
C1903 C1902 1.327 . S
C1903 C1907 1.429 . S
C1904 C1887 1.574 . S
C1904 H1898 0.949 . S
C1904 C1908 1.368 . S
C1905 C1886 1.429 . S
C1905 C1899 1.429 . S
C1905 C1906 1.523 . S
C1906 C1887 1.368 . S
C1906 C1900 1.368 . S
C1906 C1905 1.523 . S
C1907 C1891 1.429 . S
C1907 C1903 1.429 . S
C1907 C1908 1.523 . S
C1908 C1892 1.368 . S
C1908 C1904 1.368 . S
C1908 C1907 1.523 . S
H1909 C1884 0.950 . S
H1910 C1886 0.950 . S
H1911 C1887 0.949 . S
H1912 C1889 0.950 . S
H1913 C1891 0.950 . S
C1914 C1915 1.349 . S
C1914 C1916 1.327 . S
C1914 H1939 0.950 . S
C1915 C1914 1.349 . S
C1915 C1931 1.349 . S
C1916 C1914 1.327 . S
C1916 C1935 1.429 . S
C1916 H1940 0.950 . S
C1917 C1934 1.574 . S
C1917 C1936 1.368 . S
C1917 H1941 0.949 . S
H1918 C1922 0.949 . S
C1919 C1920 1.349 . S
C1919 C1921 1.327 . S
C1919 H1942 0.950 . S
C1920 C1919 1.349 . S
C1920 C1932 1.349 . S
C1921 C1919 1.327 . S
C1921 C1937 1.429 . S
C1921 H1943 0.950 . S
C1922 H1918 0.949 . S
C1922 C1930 1.574 . S
C1922 C1938 1.368 . S
H1923 C1931 0.950 . S
H1924 C1929 0.950 . S
H1925 C1930 0.949 . S
H1926 C1932 0.950 . S
H1927 C1933 0.950 . S
H1928 C1934 0.949 . S
C1929 H1924 0.950 . S
C1929 C1931 1.327 . S
C1929 C1935 1.429 . S
C1930 C1922 1.574 . S
C1930 H1925 0.949 . S
C1930 C1936 1.368 . S
C1931 C1915 1.349 . S
C1931 H1923 0.950 . S
C1931 C1929 1.327 . S
C1932 C1920 1.349 . S
C1932 H1926 0.950 . S
C1932 C1933 1.327 . S
C1933 H1927 0.950 . S
C1933 C1932 1.327 . S
C1933 C1937 1.429 . S
C1934 C1917 1.574 . S
C1934 H1928 0.949 . S
C1934 C1938 1.368 . S
C1935 C1916 1.429 . S
C1935 C1929 1.429 . S
C1935 C1936 1.523 . S
C1936 C1917 1.368 . S
C1936 C1930 1.368 . S
C1936 C1935 1.523 . S
C1937 C1921 1.429 . S
C1937 C1933 1.429 . S
C1937 C1938 1.523 . S
C1938 C1922 1.368 . S
C1938 C1934 1.368 . S
C1938 C1937 1.523 . S
H1939 C1914 0.950 . S
H1940 C1916 0.950 . S
H1941 C1917 0.949 . S
H1942 C1919 0.950 . S
H1943 C1921 0.950 . S
C1944 C1945 1.349 . S
C1944 C1946 1.327 . S
C1944 H1969 0.950 . S
C1945 C1944 1.349 . S
C1945 C1961 1.349 . S
C1946 C1944 1.327 . S
C1946 C1965 1.429 . S
C1946 H1970 0.950 . S
C1947 C1964 1.574 . S
C1947 C1966 1.368 . S
C1947 H1971 0.949 . S
H1948 C1952 0.949 . S
C1949 C1950 1.349 . S
C1949 C1951 1.327 . S
C1949 H1972 0.950 . S
C1950 C1949 1.349 . S
C1950 C1962 1.349 . S
C1951 C1949 1.327 . S
C1951 C1967 1.429 . S
C1951 H1973 0.950 . S
C1952 H1948 0.949 . S
C1952 C1960 1.574 . S
C1952 C1968 1.368 . S
H1953 C1961 0.950 . S
H1954 C1959 0.950 . S
H1955 C1960 0.949 . S
H1956 C1962 0.950 . S
H1957 C1963 0.950 . S
H1958 C1964 0.949 . S
C1959 H1954 0.950 . S
C1959 C1961 1.327 . S
C1959 C1965 1.429 . S
C1960 C1952 1.574 . S
C1960 H1955 0.949 . S
C1960 C1966 1.368 1_655 S
C1961 C1945 1.349 . S
C1961 H1953 0.950 . S
C1961 C1959 1.327 . S
C1962 C1950 1.349 . S
C1962 H1956 0.950 . S
C1962 C1963 1.327 . S
C1963 H1957 0.950 . S
C1963 C1962 1.327 . S
C1963 C1967 1.429 . S
C1964 C1947 1.574 . S
C1964 H1958 0.949 . S
C1964 C1968 1.368 1_455 S
C1965 C1946 1.429 . S
C1965 C1959 1.429 . S
C1965 C1966 1.523 . S
C1966 C1947 1.368 . S
C1966 C1960 1.368 1_455 S
C1966 C1965 1.523 . S
C1967 C1951 1.429 . S
C1967 C1963 1.429 . S
C1967 C1968 1.523 . S
C1968 C1952 1.368 . S
C1968 C1964 1.368 1_655 S
C1968 C1967 1.523 . S
H1969 C1944 0.950 . S
H1970 C1946 0.950 . S
H1971 C1947 0.949 . S
H1972 C1949 0.950 . S
H1973 C1951 0.950 . S
C1974 C1975 1.349 . S
C1974 C1976 1.327 . S
C1974 H1999 0.950 . S
C1975 C1974 1.349 . S
C1975 C1991 1.349 . S
C1976 C1974 1.327 . S
C1976 C1995 1.429 . S
C1976 H2000 0.950 . S
C1977 C1994 1.574 . S
C1977 C1996 1.368 . S
C1977 H2001 0.949 . S
H1978 C1982 0.949 . S
C1979 C1980 1.349 . S
C1979 C1981 1.327 . S
C1979 H2002 0.950 . S
C1980 C1979 1.349 . S
C1980 C1992 1.349 . S
C1981 C1979 1.327 . S
C1981 C1997 1.429 . S
C1981 H2003 0.950 . S
C1982 H1978 0.949 . S
C1982 C1990 1.574 . S
C1982 C1998 1.368 . S
H1983 C1991 0.950 . S
H1984 C1989 0.950 . S
H1985 C1990 0.949 . S
H1986 C1992 0.950 . S
H1987 C1993 0.950 . S
H1988 C1994 0.949 . S
C1989 H1984 0.950 . S
C1989 C1991 1.327 . S
C1989 C1995 1.429 . S
C1990 C1982 1.574 . S
C1990 H1985 0.949 . S
C1990 C1996 1.368 . S
C1991 C1975 1.349 . S
C1991 H1983 0.950 . S
C1991 C1989 1.327 . S
C1992 C1980 1.349 . S
C1992 H1986 0.950 . S
C1992 C1993 1.327 . S
C1993 H1987 0.950 . S
C1993 C1992 1.327 . S
C1993 C1997 1.429 . S
C1994 C1977 1.574 . S
C1994 H1988 0.949 . S
C1994 C1998 1.368 . S
C1995 C1976 1.429 . S
C1995 C1989 1.429 . S
C1995 C1996 1.523 . S
C1996 C1977 1.368 . S
C1996 C1990 1.368 . S
C1996 C1995 1.523 . S
C1997 C1981 1.429 . S
C1997 C1993 1.429 . S
C1997 C1998 1.523 . S
C1998 C1982 1.368 . S
C1998 C1994 1.368 . S
C1998 C1997 1.523 . S
H1999 C1974 0.950 . S
H2000 C1976 0.950 . S
H2001 C1977 0.949 . S
H2002 C1979 0.950 . S
H2003 C1981 0.950 . S
C2004 C2005 1.349 . S
C2004 C2006 1.327 . S
C2004 H2029 0.950 . S
C2005 C2004 1.349 . S
C2005 C2021 1.349 . S
C2006 C2004 1.327 . S
C2006 C2025 1.429 . S
C2006 H2030 0.950 . S
C2007 C2024 1.618 . S
C2007 C2026 1.368 . S
C2007 H2031 0.949 . S
H2008 C2012 0.949 . S
C2009 C2010 1.349 . S
C2009 C2011 1.327 . S
C2009 H2032 0.950 . S
C2010 C2009 1.349 . S
C2010 C2022 1.349 . S
C2011 C2009 1.327 . S
C2011 C2027 1.429 . S
C2011 H2033 0.950 . S
C2012 H2008 0.949 . S
C2012 C2020 1.615 . S
C2012 C2028 1.368 . S
H2013 C2021 0.950 . S
H2014 C2019 0.950 . S
H2015 C2020 0.921 . S
H2016 C2022 0.950 . S
H2017 C2023 0.950 . S
H2018 C2024 0.920 . S
C2019 H2014 0.950 . S
C2019 C2021 1.327 . S
C2019 C2025 1.429 . S
C2020 C2012 1.615 . S
C2020 H2015 0.921 . S
C2020 C2026 1.369 1_545 S
C2021 C2005 1.349 . S
C2021 H2013 0.950 . S
C2021 C2019 1.327 . S
C2022 C2010 1.349 . S
C2022 H2016 0.950 . S
C2022 C2023 1.327 . S
C2023 H2017 0.950 . S
C2023 C2022 1.327 . S
C2023 C2027 1.429 . S
C2024 C2007 1.618 . S
C2024 H2018 0.920 . S
C2024 C2028 1.369 1_565 S
C2025 C2006 1.429 . S
C2025 C2019 1.429 . S
C2025 C2026 1.523 . S
C2026 C2007 1.368 . S
C2026 C2020 1.369 1_565 S
C2026 C2025 1.523 . S
C2027 C2011 1.429 . S
C2027 C2023 1.429 . S
C2027 C2028 1.523 . S
C2028 C2012 1.368 . S
C2028 C2024 1.369 1_545 S
C2028 C2027 1.523 . S
H2029 C2004 0.950 . S
H2030 C2006 0.950 . S
H2031 C2007 0.949 . S
H2032 C2009 0.950 . S
H2033 C2011 0.950 . S
C2034 C2035 1.349 . S
C2034 C2036 1.327 . S
C2034 H2059 0.950 . S
C2035 C2034 1.349 . S
C2035 C2051 1.349 . S
C2036 C2034 1.327 . S
C2036 C2055 1.429 . S
C2036 H2060 0.950 . S
C2037 C2054 1.574 . S
C2037 C2056 1.368 1_545 S
C2037 H2061 0.949 . S
H2038 C2042 0.949 . S
C2039 C2040 1.349 . S
C2039 C2041 1.327 . S
C2039 H2062 0.950 . S
C2040 C2039 1.349 . S
C2040 C2052 1.349 . S
C2041 C2039 1.327 . S
C2041 C2057 1.429 . S
C2041 H2063 0.950 . S
C2042 H2038 0.949 . S
C2042 C2050 1.574 . S
C2042 C2058 1.368 1_565 S
H2043 C2051 0.950 . S
H2044 C2049 0.950 1_545 S
H2045 C2050 0.949 . S
H2046 C2052 0.950 . S
H2047 C2053 0.950 1_565 S
H2048 C2054 0.949 . S
C2049 H2044 0.950 1_565 S
C2049 C2051 1.327 . S
C2049 C2055 1.429 . S
C2050 C2042 1.574 . S
C2050 H2045 0.949 . S
C2050 C2056 1.368 . S
C2051 C2035 1.349 . S
C2051 H2043 0.950 . S
C2051 C2049 1.327 . S
C2052 C2040 1.349 . S
C2052 H2046 0.950 . S
C2052 C2053 1.327 . S
C2053 H2047 0.950 1_545 S
C2053 C2052 1.327 . S
C2053 C2057 1.429 . S
C2054 C2037 1.574 . S
C2054 H2048 0.949 . S
C2054 C2058 1.368 . S
C2055 C2036 1.429 . S
C2055 C2049 1.429 . S
C2055 C2056 1.523 . S
C2056 C2037 1.368 1_565 S
C2056 C2050 1.368 . S
C2056 C2055 1.523 . S
C2057 C2041 1.429 . S
C2057 C2053 1.429 . S
C2057 C2058 1.523 . S
C2058 C2042 1.368 1_545 S
C2058 C2054 1.368 . S
C2058 C2057 1.523 . S
H2059 C2034 0.950 . S
H2060 C2036 0.950 . S
H2061 C2037 0.949 . S
H2062 C2039 0.950 . S
H2063 C2041 0.950 . S
C2064 C2065 1.349 . S
C2064 C2066 1.327 . S
C2064 H2089 0.950 . S
C2065 C2064 1.349 . S
C2065 C2081 1.349 . S
C2066 C2064 1.327 . S
C2066 C2085 1.429 . S
C2066 H2090 0.950 . S
C2067 C2084 1.574 . S
C2067 C2086 1.368 1_455 S
C2067 H2091 0.949 . S
H2068 C2072 0.949 . S
C2069 C2070 1.349 . S
C2069 C2071 1.327 . S
C2069 H2092 0.950 . S
C2070 C2069 1.349 . S
C2070 C2082 1.349 . S
C2071 C2069 1.327 . S
C2071 C2087 1.429 . S
C2071 H2093 0.950 . S
C2072 H2068 0.949 . S
C2072 C2080 1.574 . S
C2072 C2088 1.368 1_655 S
H2073 C2081 0.950 . S
H2074 C2079 0.950 . S
H2075 C2080 0.949 . S
H2076 C2082 0.950 . S
H2077 C2083 0.950 . S
H2078 C2084 0.949 . S
C2079 H2074 0.950 . S
C2079 C2081 1.327 . S
C2079 C2085 1.429 . S
C2080 C2072 1.574 . S
C2080 H2075 0.949 . S
C2080 C2086 1.368 . S
C2081 C2065 1.349 . S
C2081 H2073 0.950 . S
C2081 C2079 1.327 . S
C2082 C2070 1.349 . S
C2082 H2076 0.950 . S
C2082 C2083 1.327 . S
C2083 H2077 0.950 . S
C2083 C2082 1.327 . S
C2083 C2087 1.429 . S
C2084 C2067 1.574 . S
C2084 H2078 0.949 . S
C2084 C2088 1.368 . S
C2085 C2066 1.429 . S
C2085 C2079 1.429 . S
C2085 C2086 1.523 . S
C2086 C2067 1.368 1_655 S
C2086 C2080 1.368 . S
C2086 C2085 1.523 . S
C2087 C2071 1.429 . S
C2087 C2083 1.429 . S
C2087 C2088 1.523 . S
C2088 C2072 1.368 1_455 S
C2088 C2084 1.368 . S
C2088 C2087 1.523 . S
H2089 C2064 0.950 . S
H2090 C2066 0.950 . S
H2091 C2067 0.949 . S
H2092 C2069 0.950 . S
H2093 C2071 0.950 . S
C2094 C2095 1.349 . S
C2094 C2096 1.327 . S
C2094 H2119 0.950 . S
C2095 C2094 1.349 . S
C2095 C2111 1.349 . S
C2096 C2094 1.327 . S
C2096 C2115 1.429 . S
C2096 H2120 0.950 . S
C2097 C2114 1.574 . S
C2097 C2116 1.368 . S
C2097 H2121 0.949 . S
H2098 C2102 0.949 . S
C2099 C2100 1.349 . S
C2099 C2101 1.327 . S
C2099 H2122 0.950 . S
C2100 C2099 1.349 . S
C2100 C2112 1.349 . S
C2101 C2099 1.327 . S
C2101 C2117 1.429 . S
C2101 H2123 0.950 . S
C2102 H2098 0.949 . S
C2102 C2110 1.574 . S
C2102 C2118 1.368 . S
H2103 C2111 0.950 . S
H2104 C2109 0.950 . S
H2105 C2110 0.949 . S
H2106 C2112 0.950 . S
H2107 C2113 0.950 . S
H2108 C2114 0.949 . S
C2109 H2104 0.950 . S
C2109 C2111 1.327 . S
C2109 C2115 1.429 . S
C2110 C2102 1.574 . S
C2110 H2105 0.949 . S
C2110 C2116 1.368 . S
C2111 C2095 1.349 . S
C2111 H2103 0.950 . S
C2111 C2109 1.327 . S
C2112 C2100 1.349 . S
C2112 H2106 0.950 . S
C2112 C2113 1.327 . S
C2113 H2107 0.950 . S
C2113 C2112 1.327 . S
C2113 C2117 1.429 . S
C2114 C2097 1.574 . S
C2114 H2108 0.949 . S
C2114 C2118 1.368 . S
C2115 C2096 1.429 . S
C2115 C2109 1.429 . S
C2115 C2116 1.523 . S
C2116 C2097 1.368 . S
C2116 C2110 1.368 . S
C2116 C2115 1.523 . S
C2117 C2101 1.429 . S
C2117 C2113 1.429 . S
C2117 C2118 1.523 . S
C2118 C2102 1.368 . S
C2118 C2114 1.368 . S
C2118 C2117 1.523 . S
H2119 C2094 0.950 . S
H2120 C2096 0.950 . S
H2121 C2097 0.949 . S
H2122 C2099 0.950 . S
H2123 C2101 0.950 . S
C2124 C2125 1.349 . S
C2124 C2126 1.327 . S
C2124 H2149 0.950 . S
C2125 C2124 1.349 . S
C2125 C2141 1.349 . S
C2126 C2124 1.327 . S
C2126 C2145 1.429 . S
C2126 H2150 0.950 . S
C2127 C2144 1.574 . S
C2127 C2146 1.368 . S
C2127 H2151 0.949 . S
H2128 C2132 0.949 . S
C2129 C2130 1.349 . S
C2129 C2131 1.327 . S
C2129 H2152 0.950 . S
C2130 C2129 1.349 . S
C2130 C2142 1.349 . S
C2131 C2129 1.327 . S
C2131 C2147 1.429 . S
C2131 H2153 0.950 . S
C2132 H2128 0.949 . S
C2132 C2140 1.574 . S
C2132 C2148 1.368 . S
H2133 C2141 0.950 . S
H2134 C2139 0.950 . S
H2135 C2140 0.949 . S
H2136 C2142 0.950 . S
H2137 C2143 0.950 . S
H2138 C2144 0.949 . S
C2139 H2134 0.950 . S
C2139 C2141 1.327 . S
C2139 C2145 1.429 . S
C2140 C2132 1.574 . S
C2140 H2135 0.949 . S
C2140 C2146 1.368 . S
C2141 C2125 1.349 . S
C2141 H2133 0.950 . S
C2141 C2139 1.327 . S
C2142 C2130 1.349 . S
C2142 H2136 0.950 . S
C2142 C2143 1.327 . S
C2143 H2137 0.950 . S
C2143 C2142 1.327 . S
C2143 C2147 1.429 . S
C2144 C2127 1.574 . S
C2144 H2138 0.949 . S
C2144 C2148 1.368 . S
C2145 C2126 1.429 . S
C2145 C2139 1.429 . S
C2145 C2146 1.523 . S
C2146 C2127 1.368 . S
C2146 C2140 1.368 . S
C2146 C2145 1.523 . S
C2147 C2131 1.429 . S
C2147 C2143 1.429 . S
C2147 C2148 1.523 . S
C2148 C2132 1.368 . S
C2148 C2144 1.368 . S
C2148 C2147 1.523 . S
H2149 C2124 0.950 . S
H2150 C2126 0.950 . S
H2151 C2127 0.949 . S
H2152 C2129 0.950 . S
H2153 C2131 0.950 . S
C2154 C2155 1.349 . S
C2154 C2156 1.327 . S
C2154 H2179 0.950 . S
C2155 C2154 1.349 . S
C2155 C2171 1.349 . S
C2156 C2154 1.327 . S
C2156 C2175 1.429 . S
C2156 H2180 0.950 . S
C2157 C2174 1.574 . S
C2157 C2176 1.368 . S
C2157 H2181 0.949 . S
H2158 C2162 0.949 . S
C2159 C2160 1.349 . S
C2159 C2161 1.327 . S
C2159 H2182 0.950 . S
C2160 C2159 1.349 . S
C2160 C2172 1.349 . S
C2161 C2159 1.327 . S
C2161 C2177 1.429 . S
C2161 H2183 0.950 . S
C2162 H2158 0.949 . S
C2162 C2170 1.574 . S
C2162 C2178 1.368 . S
H2163 C2171 0.950 . S
H2164 C2169 0.950 . S
H2165 C2170 0.949 . S
H2166 C2172 0.950 . S
H2167 C2173 0.950 . S
H2168 C2174 0.949 . S
C2169 H2164 0.950 . S
C2169 C2171 1.327 . S
C2169 C2175 1.429 . S
C2170 C2162 1.574 . S
C2170 H2165 0.949 . S
C2170 C2176 1.368 . S
C2171 C2155 1.349 . S
C2171 H2163 0.950 . S
C2171 C2169 1.327 . S
C2172 C2160 1.349 . S
C2172 H2166 0.950 . S
C2172 C2173 1.327 . S
C2173 H2167 0.950 . S
C2173 C2172 1.327 . S
C2173 C2177 1.429 . S
C2174 C2157 1.574 . S
C2174 H2168 0.949 . S
C2174 C2178 1.368 . S
C2175 C2156 1.429 . S
C2175 C2169 1.429 . S
C2175 C2176 1.523 . S
C2176 C2157 1.368 . S
C2176 C2170 1.368 . S
C2176 C2175 1.523 . S
C2177 C2161 1.429 . S
C2177 C2173 1.429 . S
C2177 C2178 1.523 . S
C2178 C2162 1.368 . S
C2178 C2174 1.368 . S
C2178 C2177 1.523 . S
H2179 C2154 0.950 . S
H2180 C2156 0.950 . S
H2181 C2157 0.949 . S
H2182 C2159 0.950 . S
H2183 C2161 0.950 . S
C2184 C2185 1.349 . S
C2184 C2186 1.327 . S
C2184 H2209 0.950 . S
C2185 C2184 1.349 . S
C2185 C2201 1.349 . S
C2186 C2184 1.327 . S
C2186 C2205 1.429 . S
C2186 H2210 0.950 . S
C2187 C2204 1.574 . S
C2187 C2206 1.368 . S
C2187 H2211 0.949 . S
H2188 C2192 0.949 . S
C2189 C2190 1.349 . S
C2189 C2191 1.327 . S
C2189 H2212 0.950 . S
C2190 C2189 1.349 . S
C2190 C2202 1.349 . S
C2191 C2189 1.327 . S
C2191 C2207 1.429 . S
C2191 H2213 0.950 . S
C2192 H2188 0.949 . S
C2192 C2200 1.574 . S
C2192 C2208 1.368 . S
H2193 C2201 0.950 . S
H2194 C2199 0.950 . S
H2195 C2200 0.949 . S
H2196 C2202 0.950 . S
H2197 C2203 0.950 . S
H2198 C2204 0.949 . S
C2199 H2194 0.950 . S
C2199 C2201 1.327 . S
C2199 C2205 1.429 . S
C2200 C2192 1.574 . S
C2200 H2195 0.949 . S
C2200 C2206 1.368 . S
C2201 C2185 1.349 . S
C2201 H2193 0.950 . S
C2201 C2199 1.327 . S
C2202 C2190 1.349 . S
C2202 H2196 0.950 . S
C2202 C2203 1.327 . S
C2203 H2197 0.950 . S
C2203 C2202 1.327 . S
C2203 C2207 1.429 . S
C2204 C2187 1.574 . S
C2204 H2198 0.949 . S
C2204 C2208 1.368 . S
C2205 C2186 1.429 . S
C2205 C2199 1.429 . S
C2205 C2206 1.523 . S
C2206 C2187 1.368 . S
C2206 C2200 1.368 . S
C2206 C2205 1.523 . S
C2207 C2191 1.429 . S
C2207 C2203 1.429 . S
C2207 C2208 1.523 . S
C2208 C2192 1.368 . S
C2208 C2204 1.368 . S
C2208 C2207 1.523 . S
H2209 C2184 0.950 . S
H2210 C2186 0.950 . S
H2211 C2187 0.949 . S
H2212 C2189 0.950 . S
H2213 C2191 0.950 . S
C2214 C2215 1.349 . S
C2214 C2216 1.327 . S
C2214 H2239 0.950 . S
C2215 C2214 1.349 . S
C2215 C2231 1.349 . S
C2216 C2214 1.327 . S
C2216 C2235 1.429 . S
C2216 H2240 0.950 . S
C2217 C2234 1.574 . S
C2217 C2236 1.368 . S
C2217 H2241 0.949 . S
H2218 C2222 0.949 . S
C2219 C2220 1.349 . S
C2219 C2221 1.327 . S
C2219 H2242 0.950 . S
C2220 C2219 1.349 . S
C2220 C2232 1.349 . S
C2221 C2219 1.327 . S
C2221 C2237 1.429 . S
C2221 H2243 0.950 . S
C2222 H2218 0.949 . S
C2222 C2230 1.574 . S
C2222 C2238 1.368 . S
H2223 C2231 0.950 . S
H2224 C2229 0.950 . S
H2225 C2230 0.949 . S
H2226 C2232 0.950 . S
H2227 C2233 0.950 . S
H2228 C2234 0.949 . S
C2229 H2224 0.950 . S
C2229 C2231 1.327 . S
C2229 C2235 1.429 . S
C2230 C2222 1.574 . S
C2230 H2225 0.949 . S
C2230 C2236 1.368 . S
C2231 C2215 1.349 . S
C2231 H2223 0.950 . S
C2231 C2229 1.327 . S
C2232 C2220 1.349 . S
C2232 H2226 0.950 . S
C2232 C2233 1.327 . S
C2233 H2227 0.950 . S
C2233 C2232 1.327 . S
C2233 C2237 1.429 . S
C2234 C2217 1.574 . S
C2234 H2228 0.949 . S
C2234 C2238 1.368 . S
C2235 C2216 1.429 . S
C2235 C2229 1.429 . S
C2235 C2236 1.523 . S
C2236 C2217 1.368 . S
C2236 C2230 1.368 . S
C2236 C2235 1.523 . S
C2237 C2221 1.429 . S
C2237 C2233 1.429 . S
C2237 C2238 1.523 . S
C2238 C2222 1.368 . S
C2238 C2234 1.368 . S
C2238 C2237 1.523 . S
H2239 C2214 0.950 . S
H2240 C2216 0.950 . S
H2241 C2217 0.949 . S
H2242 C2219 0.950 . S
H2243 C2221 0.950 . S
C2244 C2245 1.349 . S
C2244 C2246 1.327 . S
C2244 H2269 0.950 . S
C2245 C2244 1.349 . S
C2245 C2261 1.349 . S
C2246 C2244 1.327 . S
C2246 C2265 1.429 . S
C2246 H2270 0.950 . S
C2247 C2264 1.574 . S
C2247 C2266 1.368 . S
C2247 H2271 0.949 . S
H2248 C2252 0.949 . S
C2249 C2250 1.349 . S
C2249 C2251 1.327 . S
C2249 H2272 0.950 . S
C2250 C2249 1.349 . S
C2250 C2262 1.349 . S
C2251 C2249 1.327 . S
C2251 C2267 1.429 . S
C2251 H2273 0.950 . S
C2252 H2248 0.949 . S
C2252 C2260 1.574 . S
C2252 C2268 1.368 . S
H2253 C2261 0.950 . S
H2254 C2259 0.950 . S
H2255 C2260 0.949 . S
H2256 C2262 0.950 . S
H2257 C2263 0.950 . S
H2258 C2264 0.949 . S
C2259 H2254 0.950 . S
C2259 C2261 1.327 . S
C2259 C2265 1.429 . S
C2260 C2252 1.574 . S
C2260 H2255 0.949 . S
C2260 C2266 1.368 . S
C2261 C2245 1.349 . S
C2261 H2253 0.950 . S
C2261 C2259 1.327 . S
C2262 C2250 1.349 . S
C2262 H2256 0.950 . S
C2262 C2263 1.327 . S
C2263 H2257 0.950 . S
C2263 C2262 1.327 . S
C2263 C2267 1.429 . S
C2264 C2247 1.574 . S
C2264 H2258 0.949 . S
C2264 C2268 1.368 . S
C2265 C2246 1.429 . S
C2265 C2259 1.429 . S
C2265 C2266 1.523 . S
C2266 C2247 1.368 . S
C2266 C2260 1.368 . S
C2266 C2265 1.523 . S
C2267 C2251 1.429 . S
C2267 C2263 1.429 . S
C2267 C2268 1.523 . S
C2268 C2252 1.368 . S
C2268 C2264 1.368 . S
C2268 C2267 1.523 . S
H2269 C2244 0.950 . S
H2270 C2246 0.950 . S
H2271 C2247 0.949 . S
H2272 C2249 0.950 . S
H2273 C2251 0.950 . S
C2274 C2275 1.349 . S
C2274 C2276 1.327 . S
C2274 H2299 0.950 . S
C2275 C2274 1.349 . S
C2275 C2291 1.349 . S
C2276 C2274 1.327 . S
C2276 C2295 1.429 . S
C2276 H2300 0.950 . S
C2277 C2294 1.574 . S
C2277 C2296 1.368 . S
C2277 H2301 0.949 . S
H2278 C2282 0.949 . S
C2279 C2280 1.349 . S
C2279 C2281 1.327 . S
C2279 H2302 0.950 . S
C2280 C2279 1.349 . S
C2280 C2292 1.349 . S
C2281 C2279 1.327 . S
C2281 C2297 1.429 . S
C2281 H2303 0.950 . S
C2282 H2278 0.949 . S
C2282 C2290 1.574 . S
C2282 C2298 1.368 . S
H2283 C2291 0.950 . S
H2284 C2289 0.950 . S
H2285 C2290 0.949 . S
H2286 C2292 0.950 . S
H2287 C2293 0.950 . S
H2288 C2294 0.949 . S
C2289 H2284 0.950 . S
C2289 C2291 1.327 . S
C2289 C2295 1.429 . S
C2290 C2282 1.574 . S
C2290 H2285 0.949 . S
C2290 C2296 1.368 . S
C2291 C2275 1.349 . S
C2291 H2283 0.950 . S
C2291 C2289 1.327 . S
C2292 C2280 1.349 . S
C2292 H2286 0.950 . S
C2292 C2293 1.327 . S
C2293 H2287 0.950 . S
C2293 C2292 1.327 . S
C2293 C2297 1.429 . S
C2294 C2277 1.574 . S
C2294 H2288 0.949 . S
C2294 C2298 1.368 . S
C2295 C2276 1.429 . S
C2295 C2289 1.429 . S
C2295 C2296 1.523 . S
C2296 C2277 1.368 . S
C2296 C2290 1.368 . S
C2296 C2295 1.523 . S
C2297 C2281 1.429 . S
C2297 C2293 1.429 . S
C2297 C2298 1.523 . S
C2298 C2282 1.368 . S
C2298 C2294 1.368 . S
C2298 C2297 1.523 . S
H2299 C2274 0.950 . S
H2300 C2276 0.950 . S
H2301 C2277 0.949 . S
H2302 C2279 0.950 . S
H2303 C2281 0.950 . S
C2304 C2305 1.349 . S
C2304 C2306 1.327 . S
C2304 H2329 0.950 . S
C2305 C2304 1.349 . S
C2305 C2321 1.349 . S
C2306 C2304 1.327 . S
C2306 C2325 1.429 . S
C2306 H2330 0.950 . S
C2307 C2324 1.574 . S
C2307 C2326 1.368 . S
C2307 H2331 0.949 . S
H2308 C2312 0.949 . S
C2309 C2310 1.349 . S
C2309 C2311 1.327 . S
C2309 H2332 0.950 . S
C2310 C2309 1.349 . S
C2310 C2322 1.349 . S
C2311 C2309 1.327 . S
C2311 C2327 1.429 . S
C2311 H2333 0.950 . S
C2312 H2308 0.949 . S
C2312 C2320 1.574 . S
C2312 C2328 1.368 . S
H2313 C2321 0.950 . S
H2314 C2319 0.950 . S
H2315 C2320 0.949 . S
H2316 C2322 0.950 . S
H2317 C2323 0.950 . S
H2318 C2324 0.949 . S
C2319 H2314 0.950 . S
C2319 C2321 1.327 . S
C2319 C2325 1.429 . S
C2320 C2312 1.574 . S
C2320 H2315 0.949 . S
C2320 C2326 1.368 . S
C2321 C2305 1.349 . S
C2321 H2313 0.950 . S
C2321 C2319 1.327 . S
C2322 C2310 1.349 . S
C2322 H2316 0.950 . S
C2322 C2323 1.327 . S
C2323 H2317 0.950 . S
C2323 C2322 1.327 . S
C2323 C2327 1.429 . S
C2324 C2307 1.574 . S
C2324 H2318 0.949 . S
C2324 C2328 1.368 . S
C2325 C2306 1.429 . S
C2325 C2319 1.429 . S
C2325 C2326 1.523 . S
C2326 C2307 1.368 . S
C2326 C2320 1.368 . S
C2326 C2325 1.523 . S
C2327 C2311 1.429 . S
C2327 C2323 1.429 . S
C2327 C2328 1.523 . S
C2328 C2312 1.368 . S
C2328 C2324 1.368 . S
C2328 C2327 1.523 . S
H2329 C2304 0.950 . S
H2330 C2306 0.950 . S
H2331 C2307 0.949 . S
H2332 C2309 0.950 . S
H2333 C2311 0.950 . S
C2334 C2335 1.349 . S
C2334 C2336 1.327 . S
C2334 H2359 0.950 . S
C2335 C2334 1.349 . S
C2335 C2351 1.349 . S
C2336 C2334 1.327 . S
C2336 C2355 1.429 . S
C2336 H2360 0.950 . S
C2337 C2354 1.574 . S
C2337 C2356 1.368 . S
C2337 H2361 0.949 . S
H2338 C2342 0.949 . S
C2339 C2340 1.349 . S
C2339 C2341 1.327 . S
C2339 H2362 0.950 . S
C2340 C2339 1.349 . S
C2340 C2352 1.349 . S
C2341 C2339 1.327 . S
C2341 C2357 1.429 . S
C2341 H2363 0.950 . S
C2342 H2338 0.949 . S
C2342 C2350 1.574 . S
C2342 C2358 1.368 . S
H2343 C2351 0.950 . S
H2344 C2349 0.950 . S
H2345 C2350 0.949 . S
H2346 C2352 0.950 . S
H2347 C2353 0.950 . S
H2348 C2354 0.949 . S
C2349 H2344 0.950 . S
C2349 C2351 1.327 . S
C2349 C2355 1.429 . S
C2350 C2342 1.574 . S
C2350 H2345 0.949 . S
C2350 C2356 1.368 . S
C2351 C2335 1.349 . S
C2351 H2343 0.950 . S
C2351 C2349 1.327 . S
C2352 C2340 1.349 . S
C2352 H2346 0.950 . S
C2352 C2353 1.327 . S
C2353 H2347 0.950 . S
C2353 C2352 1.327 . S
C2353 C2357 1.429 . S
C2354 C2337 1.574 . S
C2354 H2348 0.949 . S
C2354 C2358 1.368 . S
C2355 C2336 1.429 . S
C2355 C2349 1.429 . S
C2355 C2356 1.523 . S
C2356 C2337 1.368 . S
C2356 C2350 1.368 . S
C2356 C2355 1.523 . S
C2357 C2341 1.429 . S
C2357 C2353 1.429 . S
C2357 C2358 1.523 . S
C2358 C2342 1.368 . S
C2358 C2354 1.368 . S
C2358 C2357 1.523 . S
H2359 C2334 0.950 . S
H2360 C2336 0.950 . S
H2361 C2337 0.949 . S
H2362 C2339 0.950 . S
H2363 C2341 0.950 . S
C2364 C2365 1.349 . S
C2364 C2366 1.327 . S
C2364 H2389 0.950 . S
C2365 C2364 1.349 . S
C2365 C2381 1.349 . S
C2366 C2364 1.327 . S
C2366 C2385 1.429 . S
C2366 H2390 0.950 . S
C2367 C2384 1.574 . S
C2367 C2386 1.368 . S
C2367 H2391 0.949 . S
H2368 C2372 0.949 . S
C2369 C2370 1.349 . S
C2369 C2371 1.327 . S
C2369 H2392 0.950 . S
C2370 C2369 1.349 . S
C2370 C2382 1.349 . S
C2371 C2369 1.327 . S
C2371 C2387 1.429 . S
C2371 H2393 0.950 . S
C2372 H2368 0.949 . S
C2372 C2380 1.574 . S
C2372 C2388 1.368 . S
H2373 C2381 0.950 . S
H2374 C2379 0.950 . S
H2375 C2380 0.949 . S
H2376 C2382 0.950 . S
H2377 C2383 0.950 . S
H2378 C2384 0.949 . S
C2379 H2374 0.950 . S
C2379 C2381 1.327 . S
C2379 C2385 1.429 . S
C2380 C2372 1.574 . S
C2380 H2375 0.949 . S
C2380 C2386 1.368 . S
C2381 C2365 1.349 . S
C2381 H2373 0.950 . S
C2381 C2379 1.327 . S
C2382 C2370 1.349 . S
C2382 H2376 0.950 . S
C2382 C2383 1.327 . S
C2383 H2377 0.950 . S
C2383 C2382 1.327 . S
C2383 C2387 1.429 . S
C2384 C2367 1.574 . S
C2384 H2378 0.949 . S
C2384 C2388 1.368 . S
C2385 C2366 1.429 . S
C2385 C2379 1.429 . S
C2385 C2386 1.523 . S
C2386 C2367 1.368 . S
C2386 C2380 1.368 . S
C2386 C2385 1.523 . S
C2387 C2371 1.429 . S
C2387 C2383 1.429 . S
C2387 C2388 1.523 . S
C2388 C2372 1.368 . S
C2388 C2384 1.368 . S
C2388 C2387 1.523 . S
H2389 C2364 0.950 . S
H2390 C2366 0.950 . S
H2391 C2367 0.949 . S
H2392 C2369 0.950 . S
H2393 C2371 0.950 . S
C2394 C2395 1.349 . S
C2394 C2396 1.327 . S
C2394 H2419 0.950 . S
C2395 C2394 1.349 . S
C2395 C2411 1.349 . S
C2396 C2394 1.327 . S
C2396 C2415 1.429 . S
C2396 H2420 0.950 . S
C2397 C2414 1.574 . S
C2397 C2416 1.368 . S
C2397 H2421 0.949 . S
H2398 C2402 0.949 . S
C2399 C2400 1.349 . S
C2399 C2401 1.327 . S
C2399 H2422 0.950 . S
C2400 C2399 1.349 . S
C2400 C2412 1.349 . S
C2401 C2399 1.327 . S
C2401 C2417 1.429 . S
C2401 H2423 0.950 . S
C2402 H2398 0.949 . S
C2402 C2410 1.574 . S
C2402 C2418 1.368 . S
H2403 C2411 0.950 . S
H2404 C2409 0.950 . S
H2405 C2410 0.949 . S
H2406 C2412 0.950 . S
H2407 C2413 0.950 . S
H2408 C2414 0.949 . S
C2409 H2404 0.950 . S
C2409 C2411 1.327 . S
C2409 C2415 1.429 . S
C2410 C2402 1.574 . S
C2410 H2405 0.949 . S
C2410 C2416 1.368 . S
C2411 C2395 1.349 . S
C2411 H2403 0.950 . S
C2411 C2409 1.327 . S
C2412 C2400 1.349 . S
C2412 H2406 0.950 . S
C2412 C2413 1.327 . S
C2413 H2407 0.950 . S
C2413 C2412 1.327 . S
C2413 C2417 1.429 . S
C2414 C2397 1.574 . S
C2414 H2408 0.949 . S
C2414 C2418 1.368 . S
C2415 C2396 1.429 . S
C2415 C2409 1.429 . S
C2415 C2416 1.523 . S
C2416 C2397 1.368 . S
C2416 C2410 1.368 . S
C2416 C2415 1.523 . S
C2417 C2401 1.429 . S
C2417 C2413 1.429 . S
C2417 C2418 1.523 . S
C2418 C2402 1.368 . S
C2418 C2414 1.368 . S
C2418 C2417 1.523 . S
H2419 C2394 0.950 . S
H2420 C2396 0.950 . S
H2421 C2397 0.949 . S
H2422 C2399 0.950 . S
H2423 C2401 0.950 . S
C2424 C2425 1.349 . S
C2424 C2426 1.327 . S
C2424 H2449 0.950 . S
C2425 C2424 1.349 . S
C2425 C2441 1.349 . S
C2426 C2424 1.327 . S
C2426 C2445 1.429 . S
C2426 H2450 0.950 . S
C2427 C2444 1.574 . S
C2427 C2446 1.368 . S
C2427 H2451 0.949 . S
H2428 C2432 0.949 . S
C2429 C2430 1.349 . S
C2429 C2431 1.327 . S
C2429 H2452 0.950 . S
C2430 C2429 1.349 . S
C2430 C2442 1.349 . S
C2431 C2429 1.327 . S
C2431 C2447 1.429 . S
C2431 H2453 0.950 . S
C2432 H2428 0.949 . S
C2432 C2440 1.574 . S
C2432 C2448 1.368 . S
H2433 C2441 0.950 . S
H2434 C2439 0.950 . S
H2435 C2440 0.949 . S
H2436 C2442 0.950 . S
H2437 C2443 0.950 . S
H2438 C2444 0.949 . S
C2439 H2434 0.950 . S
C2439 C2441 1.327 . S
C2439 C2445 1.429 . S
C2440 C2432 1.574 . S
C2440 H2435 0.949 . S
C2440 C2446 1.368 . S
C2441 C2425 1.349 . S
C2441 H2433 0.950 . S
C2441 C2439 1.327 . S
C2442 C2430 1.349 . S
C2442 H2436 0.950 . S
C2442 C2443 1.327 . S
C2443 H2437 0.950 . S
C2443 C2442 1.327 . S
C2443 C2447 1.429 . S
C2444 C2427 1.574 . S
C2444 H2438 0.949 . S
C2444 C2448 1.368 . S
C2445 C2426 1.429 . S
C2445 C2439 1.429 . S
C2445 C2446 1.523 . S
C2446 C2427 1.368 . S
C2446 C2440 1.368 . S
C2446 C2445 1.523 . S
C2447 C2431 1.429 . S
C2447 C2443 1.429 . S
C2447 C2448 1.523 . S
C2448 C2432 1.368 . S
C2448 C2444 1.368 . S
C2448 C2447 1.523 . S
H2449 C2424 0.950 . S
H2450 C2426 0.950 . S
H2451 C2427 0.949 . S
H2452 C2429 0.950 . S
H2453 C2431 0.950 . S
C2454 C2455 1.349 . S
C2454 C2456 1.327 . S
C2454 H2479 0.950 . S
C2455 C2454 1.349 . S
C2455 C2471 1.349 . S
C2456 C2454 1.327 . S
C2456 C2475 1.429 . S
C2456 H2480 0.950 . S
C2457 C2474 1.574 . S
C2457 C2476 1.368 . S
C2457 H2481 0.949 . S
H2458 C2462 0.949 . S
C2459 C2460 1.349 . S
C2459 C2461 1.327 . S
C2459 H2482 0.950 . S
C2460 C2459 1.349 . S
C2460 C2472 1.349 . S
C2461 C2459 1.327 . S
C2461 C2477 1.429 . S
C2461 H2483 0.950 . S
C2462 H2458 0.949 . S
C2462 C2470 1.574 . S
C2462 C2478 1.368 . S
H2463 C2471 0.950 . S
H2464 C2469 0.950 . S
H2465 C2470 0.949 . S
H2466 C2472 0.950 . S
H2467 C2473 0.950 . S
H2468 C2474 0.949 . S
C2469 H2464 0.950 . S
C2469 C2471 1.327 . S
C2469 C2475 1.429 . S
C2470 C2462 1.574 . S
C2470 H2465 0.949 . S
C2470 C2476 1.368 . S
C2471 C2455 1.349 . S
C2471 H2463 0.950 . S
C2471 C2469 1.327 . S
C2472 C2460 1.349 . S
C2472 H2466 0.950 . S
C2472 C2473 1.327 . S
C2473 H2467 0.950 . S
C2473 C2472 1.327 . S
C2473 C2477 1.429 . S
C2474 C2457 1.574 . S
C2474 H2468 0.949 . S
C2474 C2478 1.368 . S
C2475 C2456 1.429 . S
C2475 C2469 1.429 . S
C2475 C2476 1.523 . S
C2476 C2457 1.368 . S
C2476 C2470 1.368 . S
C2476 C2475 1.523 . S
C2477 C2461 1.429 . S
C2477 C2473 1.429 . S
C2477 C2478 1.523 . S
C2478 C2462 1.368 . S
C2478 C2474 1.368 . S
C2478 C2477 1.523 . S
H2479 C2454 0.950 . S
H2480 C2456 0.950 . S
H2481 C2457 0.949 . S
H2482 C2459 0.950 . S
H2483 C2461 0.950 . S
C2484 C2485 1.349 . S
C2484 C2486 1.327 . S
C2484 H2509 0.950 . S
C2485 C2484 1.349 . S
C2485 C2501 1.349 . S
C2486 C2484 1.327 . S
C2486 C2505 1.429 . S
C2486 H2510 0.950 . S
C2487 C2504 1.555 1_456 S
C2487 C2506 1.406 . S
C2487 H2511 0.971 . S
H2488 C2492 0.971 . S
C2489 C2490 1.349 . S
C2489 C2491 1.327 . S
C2489 H2512 0.950 . S
C2490 C2489 1.349 . S
C2490 C2502 1.349 . S
C2491 C2489 1.327 . S
C2491 C2507 1.429 . S
C2491 H2513 0.950 . S
C2492 H2488 0.971 . S
C2492 C2500 1.553 1_654 S
C2492 C2508 1.411 . S
H2493 C2501 0.950 . S
H2494 C2499 0.950 . S
H2495 C2500 0.949 . S
H2496 C2502 0.950 . S
H2497 C2503 0.950 . S
H2498 C2504 0.949 . S
C2499 H2494 0.950 . S
C2499 C2501 1.327 . S
C2499 C2505 1.429 . S
C2500 C2492 1.553 1_456 S
C2500 H2495 0.949 . S
C2500 C2506 1.368 . S
C2501 C2485 1.349 . S
C2501 H2493 0.950 . S
C2501 C2499 1.327 . S
C2502 C2490 1.349 . S
C2502 H2496 0.950 . S
C2502 C2503 1.327 . S
C2503 H2497 0.950 . S
C2503 C2502 1.327 . S
C2503 C2507 1.429 . S
C2504 C2487 1.555 1_654 S
C2504 H2498 0.949 . S
C2504 C2508 1.368 . S
C2505 C2486 1.429 . S
C2505 C2499 1.429 . S
C2505 C2506 1.523 . S
C2506 C2487 1.406 . S
C2506 C2500 1.368 . S
C2506 C2505 1.523 . S
C2507 C2491 1.429 . S
C2507 C2503 1.429 . S
C2507 C2508 1.523 . S
C2508 C2492 1.411 . S
C2508 C2504 1.368 . S
C2508 C2507 1.523 . S
H2509 C2484 0.950 . S
H2510 C2486 0.950 . S
H2511 C2487 0.971 . S
H2512 C2489 0.950 . S
H2513 C2491 0.950 . S
C2514 C2515 1.349 . S
C2514 C2516 1.327 . S
C2514 H2539 0.950 . S
C2515 C2514 1.349 . S
C2515 C2531 1.349 . S
C2516 C2514 1.327 . S
C2516 C2535 1.429 . S
C2516 H2540 0.950 . S
C2517 C2534 1.574 1_554 S
C2517 C2536 1.368 . S
C2517 H2541 0.949 . S
H2518 C2522 0.949 . S
C2519 C2520 1.349 . S
C2519 C2521 1.327 . S
C2519 H2542 0.950 . S
C2520 C2519 1.349 . S
C2520 C2532 1.349 . S
C2521 C2519 1.327 . S
C2521 C2537 1.429 . S
C2521 H2543 0.950 . S
C2522 H2518 0.949 . S
C2522 C2530 1.574 1_556 S
C2522 C2538 1.368 . S
H2523 C2531 0.950 . S
H2524 C2529 0.950 . S
H2525 C2530 0.949 . S
H2526 C2532 0.950 . S
H2527 C2533 0.950 . S
H2528 C2534 0.949 . S
C2529 H2524 0.950 . S
C2529 C2531 1.327 . S
C2529 C2535 1.429 . S
C2530 C2522 1.574 1_554 S
C2530 H2525 0.949 . S
C2530 C2536 1.368 . S
C2531 C2515 1.349 . S
C2531 H2523 0.950 . S
C2531 C2529 1.327 . S
C2532 C2520 1.349 . S
C2532 H2526 0.950 . S
C2532 C2533 1.327 . S
C2533 H2527 0.950 . S
C2533 C2532 1.327 . S
C2533 C2537 1.429 . S
C2534 C2517 1.574 1_556 S
C2534 H2528 0.949 . S
C2534 C2538 1.368 . S
C2535 C2516 1.429 . S
C2535 C2529 1.429 . S
C2535 C2536 1.523 . S
C2536 C2517 1.368 . S
C2536 C2530 1.368 . S
C2536 C2535 1.523 . S
C2537 C2521 1.429 . S
C2537 C2533 1.429 . S
C2537 C2538 1.523 . S
C2538 C2522 1.368 . S
C2538 C2534 1.368 . S
C2538 C2537 1.523 . S
H2539 C2514 0.950 . S
H2540 C2516 0.950 . S
H2541 C2517 0.949 . S
H2542 C2519 0.950 . S
H2543 C2521 0.950 . S
C2544 C2545 1.349 . S
C2544 C2546 1.327 . S
C2544 H2569 0.950 . S
C2545 C2544 1.349 . S
C2545 C2561 1.349 . S
C2546 C2544 1.327 . S
C2546 C2565 1.429 . S
C2546 H2570 0.923 1_545 S
C2547 C2564 1.574 1_554 S
C2547 C2566 1.368 . S
C2547 H2571 0.949 . S
H2548 C2552 0.949 . S
C2549 C2550 1.349 . S
C2549 C2551 1.327 . S
C2549 H2572 0.950 . S
C2550 C2549 1.349 . S
C2550 C2562 1.349 . S
C2551 C2549 1.327 . S
C2551 C2567 1.429 . S
C2551 H2573 0.926 1_565 S
C2552 H2548 0.949 . S
C2552 C2560 1.574 1_556 S
C2552 C2568 1.368 . S
H2553 C2561 0.950 . S
H2554 C2559 0.950 . S
H2555 C2560 0.949 . S
H2556 C2562 0.950 . S
H2557 C2563 0.950 . S
H2558 C2564 0.949 . S
C2559 H2554 0.950 . S
C2559 C2561 1.327 . S
C2559 C2565 1.429 . S
C2560 C2552 1.574 1_554 S
C2560 H2555 0.949 . S
C2560 C2566 1.368 1_565 S
C2561 C2545 1.349 . S
C2561 H2553 0.950 . S
C2561 C2559 1.327 . S
C2562 C2550 1.349 . S
C2562 H2556 0.950 . S
C2562 C2563 1.327 . S
C2563 H2557 0.950 . S
C2563 C2562 1.327 . S
C2563 C2567 1.429 . S
C2564 C2547 1.574 1_556 S
C2564 H2558 0.949 . S
C2564 C2568 1.368 1_545 S
C2565 C2546 1.429 . S
C2565 C2559 1.429 . S
C2565 C2566 1.523 . S
C2566 C2547 1.368 . S
C2566 C2560 1.368 1_545 S
C2566 C2565 1.523 . S
C2567 C2551 1.429 . S
C2567 C2563 1.429 . S
C2567 C2568 1.523 . S
C2568 C2552 1.368 . S
C2568 C2564 1.368 1_565 S
C2568 C2567 1.523 . S
H2569 C2544 0.950 . S
H2570 C2546 0.923 1_565 S
H2571 C2547 0.949 . S
H2572 C2549 0.950 . S
H2573 C2551 0.926 1_545 S
C2574 C2575 1.349 . S
C2574 C2576 1.327 . S
C2574 H2599 0.950 . S
C2575 C2574 1.349 . S
C2575 C2591 1.349 . S
C2576 C2574 1.327 . S
C2576 C2595 1.429 . S
C2576 H2600 0.950 . S
C2577 C2594 1.574 1_556 S
C2577 C2596 1.368 1_545 S
C2577 H2601 0.949 . S
H2578 C2582 0.949 . S
C2579 C2580 1.349 . S
C2579 C2581 1.327 . S
C2579 H2602 0.950 . S
C2580 C2579 1.349 . S
C2580 C2592 1.349 . S
C2581 C2579 1.327 . S
C2581 C2597 1.429 . S
C2581 H2603 0.950 . S
C2582 H2578 0.949 . S
C2582 C2590 1.574 1_554 S
C2582 C2598 1.368 1_565 S
H2583 C2591 0.950 . S
H2584 C2589 0.950 . S
H2585 C2590 0.949 . S
H2586 C2592 0.950 . S
H2587 C2593 0.950 . S
H2588 C2594 0.949 . S
C2589 H2584 0.950 . S
C2589 C2591 1.327 . S
C2589 C2595 1.429 . S
C2590 C2582 1.574 1_556 S
C2590 H2585 0.949 . S
C2590 C2596 1.368 . S
C2591 C2575 1.349 . S
C2591 H2583 0.950 . S
C2591 C2589 1.327 . S
C2592 C2580 1.349 . S
C2592 H2586 0.950 . S
C2592 C2593 1.327 . S
C2593 H2587 0.950 . S
C2593 C2592 1.327 . S
C2593 C2597 1.429 . S
C2594 C2577 1.574 1_554 S
C2594 H2588 0.949 . S
C2594 C2598 1.368 . S
C2595 C2576 1.429 . S
C2595 C2589 1.429 . S
C2595 C2596 1.523 . S
C2596 C2577 1.368 1_565 S
C2596 C2590 1.368 . S
C2596 C2595 1.523 . S
C2597 C2581 1.429 . S
C2597 C2593 1.429 . S
C2597 C2598 1.523 . S
C2598 C2582 1.368 1_545 S
C2598 C2594 1.368 . S
C2598 C2597 1.523 . S
H2599 C2574 0.950 . S
H2600 C2576 0.950 . S
H2601 C2577 0.949 . S
H2602 C2579 0.950 . S
H2603 C2581 0.950 . S
C2604 C2605 1.349 . S
C2604 C2606 1.327 . S
C2604 H2629 0.950 . S
C2605 C2604 1.349 . S
C2605 C2621 1.349 . S
C2606 C2604 1.327 . S
C2606 C2625 1.429 . S
C2606 H2630 0.950 . S
C2607 C2624 1.574 1_456 S
C2607 C2626 1.368 . S
C2607 H2631 0.949 . S
H2608 C2612 0.949 . S
C2609 C2610 1.349 . S
C2609 C2611 1.327 . S
C2609 H2632 0.950 . S
C2610 C2609 1.349 . S
C2610 C2622 1.349 . S
C2611 C2609 1.327 . S
C2611 C2627 1.429 . S
C2611 H2633 0.950 . S
C2612 H2608 0.949 . S
C2612 C2620 1.574 1_654 S
C2612 C2628 1.368 . S
H2613 C2621 0.950 . S
H2614 C2619 0.950 . S
H2615 C2620 0.949 . S
H2616 C2622 0.950 . S
H2617 C2623 0.950 . S
H2618 C2624 0.949 . S
C2619 H2614 0.950 . S
C2619 C2621 1.327 . S
C2619 C2625 1.429 . S
C2620 C2612 1.574 1_456 S
C2620 H2615 0.949 . S
C2620 C2626 1.368 . S
C2621 C2605 1.349 . S
C2621 H2613 0.950 . S
C2621 C2619 1.327 . S
C2622 C2610 1.349 . S
C2622 H2616 0.950 . S
C2622 C2623 1.327 . S
C2623 H2617 0.950 . S
C2623 C2622 1.327 . S
C2623 C2627 1.429 . S
C2624 C2607 1.574 1_654 S
C2624 H2618 0.949 . S
C2624 C2628 1.368 . S
C2625 C2606 1.429 . S
C2625 C2619 1.429 . S
C2625 C2626 1.523 . S
C2626 C2607 1.368 . S
C2626 C2620 1.368 . S
C2626 C2625 1.523 . S
C2627 C2611 1.429 . S
C2627 C2623 1.429 . S
C2627 C2628 1.523 . S
C2628 C2612 1.368 . S
C2628 C2624 1.368 . S
C2628 C2627 1.523 . S
H2629 C2604 0.950 . S
H2630 C2606 0.950 . S
H2631 C2607 0.949 . S
H2632 C2609 0.950 . S
H2633 C2611 0.950 . S
C2634 C2635 1.349 . S
C2634 C2636 1.327 . S
C2634 H2659 0.950 . S
C2635 C2634 1.349 . S
C2635 C2651 1.349 . S
C2636 C2634 1.327 . S
C2636 C2655 1.429 . S
C2636 H2660 0.950 . S
C2637 C2654 1.574 1_554 S
C2637 C2656 1.368 . S
C2637 H2661 0.949 . S
H2638 C2642 0.949 . S
C2639 C2640 1.349 . S
C2639 C2641 1.327 . S
C2639 H2662 0.950 . S
C2640 C2639 1.349 . S
C2640 C2652 1.349 . S
C2641 C2639 1.327 . S
C2641 C2657 1.429 . S
C2641 H2663 0.950 . S
C2642 H2638 0.949 . S
C2642 C2650 1.574 1_556 S
C2642 C2658 1.368 . S
H2643 C2651 0.950 . S
H2644 C2649 0.950 . S
H2645 C2650 0.949 . S
H2646 C2652 0.950 . S
H2647 C2653 0.950 . S
H2648 C2654 0.949 . S
C2649 H2644 0.950 . S
C2649 C2651 1.327 . S
C2649 C2655 1.429 . S
C2650 C2642 1.574 1_554 S
C2650 H2645 0.949 . S
C2650 C2656 1.368 . S
C2651 C2635 1.349 . S
C2651 H2643 0.950 . S
C2651 C2649 1.327 . S
C2652 C2640 1.349 . S
C2652 H2646 0.950 . S
C2652 C2653 1.327 . S
C2653 H2647 0.950 . S
C2653 C2652 1.327 . S
C2653 C2657 1.429 . S
C2654 C2637 1.574 1_556 S
C2654 H2648 0.949 . S
C2654 C2658 1.368 . S
C2655 C2636 1.429 . S
C2655 C2649 1.429 . S
C2655 C2656 1.523 . S
C2656 C2637 1.368 . S
C2656 C2650 1.368 . S
C2656 C2655 1.523 . S
C2657 C2641 1.429 . S
C2657 C2653 1.429 . S
C2657 C2658 1.523 . S
C2658 C2642 1.368 . S
C2658 C2654 1.368 . S
C2658 C2657 1.523 . S
H2659 C2634 0.950 . S
H2660 C2636 0.950 . S
H2661 C2637 0.949 . S
H2662 C2639 0.950 . S
H2663 C2641 0.950 . S
C505 C5 1.277 . S
C510 C159 1.277 . S
C535 C19 1.277 . S
C540 C131 1.277 . S
C565 C145 1.277 . S
C570 C33 1.277 . S
C595 C47 1.277 . S
C600 C103 1.277 . S
C625 C117 1.277 . S
C630 C61 1.277 . S
C655 C75 1.277 . S
C660 C89 1.277 . S
C685 C327 1.277 . S
C690 C173 1.277 . S
C715 C187 1.277 . S
C720 C299 1.277 . S
C745 C201 1.277 . S
C750 C313 1.277 . S
C775 C271 1.277 . S
C780 C215 1.277 . S
C805 C229 1.277 . S
C810 C285 1.277 . S
C835 C257 1.277 . S
C840 C243 1.277 . S
C865 C341 1.277 . S
C870 C495 1.277 . S
C895 C467 1.277 . S
C900 C355 1.277 . S
C925 C481 1.277 . S
C930 C369 1.277 . S
C955 C439 1.277 . S
C960 C383 1.277 . S
C985 C453 1.277 . S
C990 C397 1.277 . S
C1015 C425 1.277 . S
C1020 C411 1.277 . S
C1045 C11 1.292 . S
C1050 C67 1.292 . S
C1075 C81 1.290 . S
C1080 C25 1.290 . S
C1105 C39 1.292 . S
C1110 C53 1.292 . S
C1135 C95 1.292 . S
C1140 C151 1.292 . S
C1165 C109 1.290 . S
C1170 C165 1.290 . S
C1195 C123 1.292 . S
C1200 C137 1.292 . S
C1225 C235 1.292 . S
C1230 C179 1.292 . S
C1255 C249 1.290 . S
C1260 C193 1.290 . S
C1285 C207 1.291 . S
C1290 C221 1.291 . S
C1315 C319 1.292 . S
C1320 C263 1.292 . S
C1345 C333 1.290 . S
C1350 C277 1.290 . S
C1375 C291 1.292 . S
C1380 C305 1.292 . S
C1405 C403 1.292 . S
C1410 C347 1.292 . S
C1435 C361 1.290 . S
C1440 C417 1.290 . S
C1465 C375 1.292 . S
C1470 C389 1.292 . S
C1495 C487 1.292 . S
C1500 C431 1.292 . S
C1525 C445 1.290 . S
C1530 C501 1.290 . S
C1555 C473 1.291 . S
C1560 C459 1.291 . S
C1585 C415 0.919 . S
C1590 C9 0.905 1_556 S
C1615 C23 0.904 1_556 S
C1620 C387 0.920 . S
C1645 C37 0.902 1_556 S
C1650 C401 0.920 . S
C1675 C51 0.905 1_554 S
C1680 C191 0.919 . S
C1705 C205 0.920 . S
C1710 C65 0.902 1_554 S
C1735 C177 0.919 . S
C1740 C79 0.904 1_554 S
C1765 C93 0.905 1_554 S
C1770 C331 0.919 . S
C1795 C107 0.904 1_554 S
C1800 C303 0.920 . S
C1825 C121 0.902 1_554 S
C1830 C317 0.920 . S
C1855 C443 0.919 . S
C1860 C135 0.905 1_556 S
C1885 C457 0.920 . S
C1890 C149 0.902 1_556 S
C1915 C163 0.904 1_556 S
C1920 C429 0.919 . S
C1945 C359 0.919 . S
C1950 C219 0.919 . S
C1975 C233 0.920 . S
C1980 C373 0.920 . S
C2005 C345 0.919 . S
C2010 C247 0.919 . S
C2035 C499 0.919 . S
C2040 C261 0.919 . S
C2065 C275 0.919 . S
C2070 C471 0.919 . S
C2095 C289 0.920 . S
C2100 C485 0.920 . S
C2125 C0 1.744 . S
C2130 C406 1.744 . S
C2155 C378 1.744 . S
C2160 C14 1.744 . S
C2185 C28 1.744 . S
C2190 C392 1.744 . S
C2215 C182 1.744 . S
C2220 C42 1.744 . S
C2245 C56 1.744 . S
C2250 C196 1.744 . S
C2275 C70 1.744 . S
C2280 C168 1.744 . S
C2305 C322 1.744 . S
C2310 C84 1.744 . S
C2335 C98 1.744 . S
C2340 C294 1.744 . S
C2365 C112 1.744 . S
C2370 C308 1.744 . S
C2395 C126 1.744 . S
C2400 C434 1.744 . S
C2425 C448 1.744 . S
C2430 C140 1.744 . S
C2455 C154 1.744 . S
C2460 C420 1.744 . S
C2485 C350 1.744 . S
C2490 C210 1.744 . S
C2515 C224 1.744 . S
C2520 C364 1.744 . S
C2545 C238 1.744 . S
C2550 C336 1.744 . S
C2575 C490 1.744 . S
C2580 C252 1.744 . S
C2605 C462 1.744 . S
C2610 C266 1.744 . S
C2635 C280 1.744 . S
C2640 C476 1.744 . S
