# Generated by pormake.
# Topology vbn, (6)-cn, num edge types: 1
# Building blocks:
#     Node 0, Type 0, BuildingBlock: MIDCAF_clean_sbu_0, # of connection points: 6
#     Node 1, Type 0, BuildingBlock: MIDCAF_clean_sbu_0, # of connection points: 6
#     Node 2, Type 0, BuildingBlock: MIDCAF_clean_sbu_0, # of connection points: 6
#     Node 3, Type 0, BuildingBlock: MIDCAF_clean_sbu_0, # of connection points: 6
#     Node 4, Type 0, BuildingBlock: MIDCAF_clean_sbu_0, # of connection points: 6
#     Node 5, Type 0, BuildingBlock: MIDCAF_clean_sbu_0, # of connection points: 6
#     Node 6, Type 0, BuildingBlock: MIDCAF_clean_sbu_0, # of connection points: 6
#     Node 7, Type 0, BuildingBlock: MIDCAF_clean_sbu_0, # of connection points: 6
#     Edge 8, Type (0, 0), BuildingBlock: EZIPEK_clean_linker_0, # of connection points: 2
#     Edge 9, Type (0, 0), BuildingBlock: EZIPEK_clean_linker_0, # of connection points: 2
#     Edge 10, Type (0, 0), BuildingBlock: EZIPEK_clean_linker_0, # of connection points: 2
#     Edge 11, Type (0, 0), BuildingBlock: EZIPEK_clean_linker_0, # of connection points: 2
#     Edge 12, Type (0, 0), BuildingBlock: EZIPEK_clean_linker_0, # of connection points: 2
#     Edge 13, Type (0, 0), BuildingBlock: EZIPEK_clean_linker_0, # of connection points: 2
#     Edge 14, Type (0, 0), BuildingBlock: EZIPEK_clean_linker_0, # of connection points: 2
#     Edge 15, Type (0, 0), BuildingBlock: EZIPEK_clean_linker_0, # of connection points: 2
#     Edge 16, Type (0, 0), BuildingBlock: EZIPEK_clean_linker_0, # of connection points: 2
#     Edge 17, Type (0, 0), BuildingBlock: EZIPEK_clean_linker_0, # of connection points: 2
#     Edge 18, Type (0, 0), BuildingBlock: EZIPEK_clean_linker_0, # of connection points: 2
#     Edge 19, Type (0, 0), BuildingBlock: EZIPEK_clean_linker_0, # of connection points: 2
#     Edge 20, Type (0, 0), BuildingBlock: EZIPEK_clean_linker_0, # of connection points: 2
#     Edge 21, Type (0, 0), BuildingBlock: EZIPEK_clean_linker_0, # of connection points: 2
#     Edge 22, Type (0, 0), BuildingBlock: EZIPEK_clean_linker_0, # of connection points: 2
#     Edge 23, Type (0, 0), BuildingBlock: EZIPEK_clean_linker_0, # of connection points: 2
#     Edge 24, Type (0, 0), BuildingBlock: EZIPEK_clean_linker_0, # of connection points: 2
#     Edge 25, Type (0, 0), BuildingBlock: EZIPEK_clean_linker_0, # of connection points: 2
#     Edge 26, Type (0, 0), BuildingBlock: EZIPEK_clean_linker_0, # of connection points: 2
#     Edge 27, Type (0, 0), BuildingBlock: EZIPEK_clean_linker_0, # of connection points: 2
#     Edge 28, Type (0, 0), BuildingBlock: EZIPEK_clean_linker_0, # of connection points: 2
#     Edge 29, Type (0, 0), BuildingBlock: EZIPEK_clean_linker_0, # of connection points: 2
#     Edge 30, Type (0, 0), BuildingBlock: EZIPEK_clean_linker_0, # of connection points: 2
#     Edge 31, Type (0, 0), BuildingBlock: EZIPEK_clean_linker_0, # of connection points: 2
# Relax obj value: 0.265
# Max RMSD: 0.222
# Mean RMSD: 0.222
data_MOF--net-vbn--node1-MIDCAF_clean_sbu_0--edge1-EZIPEK_clean_linker_0
_symmetry_space_group_name_H-M    P1
_symmetry_Int_Tables_number       1
_symmetry_cell_setting            triclinic
loop_
_symmetry_equiv_pos_as_xyz
'x, y, z'
_cell_length_a     18.518325
_cell_length_b     20.158569
_cell_length_c     33.800534
_cell_angle_alpha  90.244403
_cell_angle_beta   89.832714
_cell_angle_gamma 90.247148
loop_
_atom_site_label
_atom_site_type_symbol
_atom_site_fract_x
_atom_site_fract_y
_atom_site_fract_z
_atom_type_partial_charge
Zn0 Zn 0.28971 0.36824 0.43492 0.0
Zn1 Zn 0.46485 0.23849 0.36685 0.0
Zn2 Zn 0.36693 0.30746 0.39389 0.0
C3 C 0.33038 0.17697 0.3493 0.0
C4 C 0.45902 0.35363 0.32064 0.0
O5 O 0.42442 0.34611 0.44481 0.0
O6 O 0.35483 0.42977 0.46264 0.0
C7 C 0.23026 0.24996 0.44182 0.0
O8 O 0.30761 0.21808 0.3758 0.0
O9 O 0.39703 0.17554 0.34141 0.0
O10 O 0.5015 0.30798 0.33088 0.0
O11 O 0.39837 0.36025 0.33897 0.0
O12 O 0.2402 0.2987 0.46462 0.0
O13 O 0.26759 0.24543 0.40944 0.0
O14 O 0.34156 0.39604 0.36036 0.0
O15 O 0.23803 0.40981 0.39117 0.0
C16 C 0.28124 0.42648 0.36398 0.0
O17 O 0.46194 0.29228 0.43447 0.0
O18 O 0.53065 0.21236 0.41054 0.0
C19 C 0.41486 0.40095 0.46363 0.0
C20 C 0.51696 0.25359 0.43768 0.0
Zn21 Zn 0.04651 0.22127 0.89328 0.0
Zn22 Zn 0.26096 0.08637 0.91423 0.0
Zn23 Zn 0.14331 0.1496 0.89883 0.0
C24 C 0.23674 0.07346 0.84505 0.0
C25 C 0.28435 0.2041 0.94474 0.0
O26 O 0.06603 0.13498 0.95076 0.0
O27 O 1.00497 0.22831 0.94748 0.0
C28 C 0.0256 0.12427 0.83519 0.0
O29 O 0.16923 0.07449 0.85322 0.0
O30 O 0.27088 0.12251 0.85836 0.0
O31 O 0.29279 0.14542 0.95653 0.0
O32 O 0.23755 0.21672 0.91729 0.0
O33 O 0.99165 0.16396 0.85722 0.0
O34 O 0.09343 0.1152 0.84196 0.0
O35 O 0.19027 0.25038 0.8922 0.0
O36 O 0.09401 0.29805 0.86721 0.0
C37 C 0.16053 0.30021 0.8749 0.0
O38 O 0.11835 0.08579 0.94606 0.0
O39 O 0.19729 0.00861 0.9283 0.0
C40 C 0.0183 0.17484 0.96526 0.0
C41 C 0.14032 0.02545 0.94626 0.0
Zn42 Zn 0.97451 0.23697 0.61801 0.0
Zn43 Zn 0.77771 0.09744 0.57207 0.0
Zn44 Zn 0.8646 0.16599 0.59744 0.0
C45 C 0.76645 0.07129 0.6444 0.0
C46 C 0.73572 0.20941 0.54425 0.0
O47 O 0.95402 0.16318 0.5508 0.0
O48 O 0.03955 0.2323 0.5705 0.0
C49 C 0.94668 0.14304 0.67783 0.0
O50 O 0.83335 0.08624 0.63935 0.0
O51 O 0.72166 0.10019 0.62241 0.0
O52 O 0.74425 0.153 0.52883 0.0
O53 O 0.77002 0.22466 0.57629 0.0
O54 O 0.99552 0.18263 0.66637 0.0
O55 O 0.89126 0.13152 0.65617 0.0
O56 O 0.81384 0.26271 0.60506 0.0
O57 O 0.91028 0.31588 0.62744 0.0
C58 C 0.84296 0.31445 0.62095 0.0
O59 O 0.91054 0.10835 0.55156 0.0
O60 O 0.84073 0.02013 0.55974 0.0
C61 C 0.01509 0.19279 0.54471 0.0
C62 C 0.8984 0.04598 0.54707 0.0
Zn63 Zn 0.54536 0.24129 0.12284 0.0
Zn64 Zn 0.75057 0.36534 0.06844 0.0
Zn65 Zn 0.65123 0.30103 0.09653 0.0
C66 C 0.73373 0.42138 0.13857 0.0
C67 C 0.8018 0.24232 0.05973 0.0
O68 O 0.55915 0.29704 0.05215 0.0
O69 O 0.48094 0.2252 0.07648 0.0
C70 C 0.55661 0.34608 0.17268 0.0
O71 O 0.67534 0.3871 0.13491 0.0
O72 O 0.78698 0.40926 0.11637 0.0
O73 O 0.81048 0.2979 0.04345 0.0
O74 O 0.7482 0.2334 0.08393 0.0
O75 O 0.50955 0.30463 0.16172 0.0
O76 O 0.61667 0.35041 0.15331 0.0
O77 O 0.69528 0.20345 0.1094 0.0
O78 O 0.60498 0.17119 0.14736 0.0
C79 C 0.6676 0.1616 0.13387 0.0
O80 O 0.60987 0.34433 0.04371 0.0
O81 O 0.69009 0.42488 0.03646 0.0
C82 C 0.49968 0.26376 0.04894 0.0
C83 C 0.62928 0.40006 0.02869 0.0
Zn84 Zn 0.75273 0.60562 0.57706 0.0
Zn85 Zn 0.53624 0.72935 0.61416 0.0
Zn86 Zn 0.64729 0.67271 0.59406 0.0
C87 C 0.65445 0.81706 0.62647 0.0
C88 C 0.54907 0.6325 0.6691 0.0
O89 O 0.61431 0.62077 0.5424 0.0
O90 O 0.69099 0.53796 0.5493 0.0
C91 C 0.79469 0.72949 0.5573 0.0
O92 O 0.68818 0.77388 0.60523 0.0
O93 O 0.58994 0.80589 0.63668 0.0
O94 O 0.50064 0.66959 0.65533 0.0
O95 O 0.61024 0.62859 0.65102 0.0
O96 O 0.80738 0.67064 0.54677 0.0
O97 O 0.74023 0.74215 0.58013 0.0
O98 O 0.67031 0.588 0.63423 0.0
O99 O 0.78822 0.5812 0.63045 0.0
C100 C 0.72963 0.56009 0.6449 0.0
O101 O 0.5627 0.66915 0.54534 0.0
O102 O 0.47704 0.73721 0.5651 0.0
C103 C 0.63389 0.56109 0.53463 0.0
C104 C 0.50234 0.699 0.53889 0.0
Zn105 Zn 0.79055 0.86869 0.05291 0.0
Zn106 Zn 0.9767 0.72954 0.12394 0.0
Zn107 Zn 0.87181 0.79927 0.09737 0.0
C108 C 0.84276 0.66301 0.13944 0.0
C109 C 0.96393 0.84379 0.17236 0.0
O110 O 0.92285 0.83689 0.04369 0.0
O111 O 0.85312 0.90973 0.01331 0.0
C112 C 0.72549 0.74583 0.05741 0.0
O113 O 0.81702 0.7073 0.116 0.0
O114 O 0.91013 0.66101 0.14508 0.0
O115 O 1.00632 0.79711 0.16333 0.0
O116 O 0.90562 0.85204 0.15226 0.0
O117 O 0.72556 0.79821 0.03722 0.0
O118 O 0.77357 0.73668 0.08449 0.0
O119 O 0.84885 0.88614 0.13342 0.0
O120 O 0.76165 0.92671 0.09616 0.0
C121 C 0.79883 0.92867 0.12735 0.0
O122 O 0.96504 0.78532 0.05593 0.0
O123 O 0.04366 0.71288 0.07861 0.0
C124 C 0.91289 0.88103 0.01683 0.0
C125 C 0.02338 0.75134 0.05153 0.0
Zn126 Zn 0.25175 0.8893 0.43108 0.0
Zn127 Zn 0.03954 0.75833 0.37391 0.0
Zn128 Zn 0.14991 0.81667 0.39859 0.0
C129 C 0.16019 0.67374 0.36474 0.0
C130 C 0.05654 0.858 0.32117 0.0
O131 O 0.11162 0.86185 0.45197 0.0
O132 O 0.19442 0.9335 0.47288 0.0
C133 C 0.30303 0.76019 0.43158 0.0
O134 O 0.19049 0.71695 0.38749 0.0
O135 O 0.09742 0.68416 0.35185 0.0
O136 O 1.00735 0.81981 0.33344 0.0
O137 O 0.11663 0.8618 0.34042 0.0
O138 O 0.31702 0.81763 0.44439 0.0
O139 O 0.24442 0.74904 0.41179 0.0
O140 O 0.17333 0.89919 0.35841 0.0
O141 O 0.27182 0.94367 0.38455 0.0
C142 C 0.22445 0.94254 0.35783 0.0
O143 O 0.05813 0.81685 0.4427 0.0
O144 O 0.97449 0.74806 0.42072 0.0
C145 C 0.13229 0.90825 0.47559 0.0
C146 C 0.99712 0.78675 0.44742 0.0
Zn147 Zn 0.2469 0.54653 0.93985 0.0
Zn148 Zn 0.48252 0.73523 0.87872 0.0
Zn149 Zn 0.37194 0.66445 0.89966 0.0
C150 C 0.35489 0.81546 0.87826 0.0
C151 C 0.45894 0.63361 0.82135 0.0
O152 O 0.41381 0.61595 0.95097 0.0
O153 O 0.34681 0.52544 0.9631 0.0
C154 C 0.22167 0.70168 0.93602 0.0
O155 O 0.32448 0.76407 0.89363 0.0
O156 O 0.421 0.81406 0.86882 0.0
O157 O 0.504 0.67659 0.83316 0.0
O158 O 0.40052 0.62393 0.84107 0.0
O159 O 0.21134 0.64121 0.94461 0.0
O160 O 0.27743 0.72111 0.91638 0.0
O161 O 0.34046 0.58419 0.8592 0.0
O162 O 0.33458 0.51572 0.90861 0.0
C163 C 0.3293 0.52534 0.87214 0.0
O164 O 0.46309 0.66526 0.94364 0.0
O165 O 0.5497 0.73377 0.92498 0.0
C166 C 0.40324 0.56045 0.9687 0.0
C167 C 0.52437 0.69387 0.95013 0.0
C168 C 0.17894 0.05259 0.33986 0.0
C169 C 0.22457 -0.0013 0.3303 0.0
C170 C 0.31449 0.07622 0.30594 0.0
C171 C 0.28289 0.12534 0.33063 0.0
N172 N 0.16949 0.17182 0.35105 0.0
N173 N 0.32816 0.95801 0.29534 0.0
C174 C 0.20938 0.11756 0.34121 0.0
C175 C 0.28889 0.01036 0.30908 0.0
N176 N 0.10827 0.04052 0.34856 0.0
N177 N 0.36699 0.09292 0.27937 0.0
H178 H 0.30893 0.90936 0.29748 0.0
H179 H 0.37999 0.96287 0.28359 0.0
H180 H 0.38105 0.14233 0.27414 0.0
H181 H 0.38901 0.05922 0.25928 0.0
H182 H 0.071 0.07689 0.3561 0.0
H183 H 0.08634 -0.00698 0.34587 0.0
H184 H 0.11665 0.16985 0.36147 0.0
H185 H 0.18894 0.21974 0.34611 0.0
C186 C 0.17168 0.42476 0.87264 0.0
C187 C 0.20209 0.36118 0.86483 0.0
C188 C 0.31376 0.41492 0.84226 0.0
C189 C 0.28325 0.47735 0.85117 0.0
N190 N 0.1766 0.54276 0.85898 0.0
N191 N 0.29312 0.29782 0.82998 0.0
C192 C 0.20911 0.4822 0.85981 0.0
C193 C 0.27043 0.35673 0.84564 0.0
N194 N 0.11105 0.43109 0.89551 0.0
N195 N 0.38536 0.41147 0.83287 0.0
H196 H 0.26141 0.25497 0.83038 0.0
H197 H 0.3401 0.29313 0.81321 0.0
H198 H 0.41654 0.45425 0.82871 0.0
H199 H 0.41372 0.36706 0.83086 0.0
H200 H 0.09103 0.47686 0.90474 0.0
H201 H 0.08567 0.39124 0.9094 0.0
H202 H 0.12117 0.5491 0.86277 0.0
H203 H 0.20466 0.58538 0.85036 0.0
C204 C 0.78766 0.46676 0.68043 0.0
C205 C 0.72928 0.48981 0.65764 0.0
C206 C 0.73816 0.39453 0.6143 0.0
C207 C 0.79849 0.37105 0.63567 0.0
N208 N 0.85847 0.37148 0.69952 0.0
N209 N 0.62542 0.45299 0.62121 0.0
C210 C 0.81628 0.40269 0.67234 0.0
C211 C 0.69576 0.44512 0.63131 0.0
N212 N 0.81752 0.50742 0.70828 0.0
N213 N 0.72572 0.37498 0.57636 0.0
H214 H 0.59312 0.48743 0.63601 0.0
H215 H 0.59865 0.41954 0.60264 0.0
H216 H 0.76385 0.34813 0.56035 0.0
H217 H 0.68356 0.39421 0.55955 0.0
H218 H 0.86538 0.4964 0.72298 0.0
H219 H 0.79489 0.55347 0.7151 0.0
H220 H 0.86886 0.39132 0.72747 0.0
H221 H 0.87555 0.32257 0.69601 0.0
C222 C 0.78329 0.10271 0.15118 0.0
C223 C 0.70702 0.10103 0.14604 0.0
C224 C 0.70877 -0.01539 0.16537 0.0
C225 C 0.78207 0.98219 0.15523 0.0
N226 N 0.89406 0.0395 0.14485 0.0
N227 N 0.5975 0.03288 0.14406 0.0
C228 C 0.82145 0.04178 0.15134 0.0
C229 C 0.66895 0.04041 0.15324 0.0
N230 N 0.8186 0.16146 0.15689 0.0
N231 N 0.67629 0.9296 0.18066 0.0
H232 H 0.56754 0.06794 0.1288 0.0
H233 H 0.57038 -0.01232 0.14664 0.0
H234 H 0.7061 0.88699 0.18684 0.0
H235 H 0.62272 0.92919 0.19028 0.0
H236 H 0.87347 0.16416 0.16349 0.0
H237 H 0.79139 0.20644 0.1597 0.0
H238 H 0.92457 0.08091 0.13681 0.0
H239 H 0.92244 -0.00507 0.14627 0.0
C240 C 0.78856 0.95084 0.66238 0.0
C241 C 0.74224 0.0067 0.66167 0.0
C242 C 0.64164 0.93826 0.64134 0.0
C243 C 0.68722 0.88164 0.63887 0.0
N244 N 0.7982 0.83038 0.66054 0.0
N245 N 0.62148 0.04336 0.67416 0.0
C246 C 0.75937 0.88652 0.65345 0.0
C247 C 0.66733 -0.00435 0.66058 0.0
N248 N 0.85922 0.95934 0.67236 0.0
N249 N 0.57667 0.94008 0.62229 0.0
H250 H 0.64112 0.08664 0.68754 0.0
H251 H 0.56567 0.0364 0.6755 0.0
H252 H 0.55945 0.90309 0.60279 0.0
H253 H 0.54472 0.98253 0.62158 0.0
H254 H 0.8983 0.92269 0.66944 0.0
H255 H 0.87802 0.00391 0.68428 0.0
H256 H 0.84911 0.83047 0.67346 0.0
H257 H 0.77687 0.78286 0.65689 0.0
C258 C 0.7229 0.602 0.14923 0.0
C259 C 0.79702 0.60983 0.158 0.0
C260 C 0.80175 0.49642 0.18259 0.0
C261 C 0.73701 0.48338 0.16205 0.0
N262 N 0.62274 0.52531 0.13995 0.0
N263 N 0.88335 0.58022 0.20829 0.0
C264 C 0.69245 0.53708 0.15064 0.0
C265 C 0.82938 0.562 0.18303 0.0
N266 N 0.68132 0.65662 0.14333 0.0
N267 N 0.83883 0.44504 0.1989 0.0
H268 H 0.89816 0.62981 0.2123 0.0
H269 H 0.90614 0.54811 0.22878 0.0
H270 H 0.81717 0.39711 0.19968 0.0
H271 H 0.89091 0.44959 0.21018 0.0
H272 H 0.62587 0.65493 0.13861 0.0
H273 H 0.70142 0.70431 0.14837 0.0
H274 H 0.58999 0.55984 0.126 0.0
H275 H 0.5974 0.48051 0.14648 0.0
C276 C 0.18892 0.49398 0.3342 0.0
C277 C 0.26295 0.48704 0.34181 0.0
C278 C 0.27211 0.60775 0.34727 0.0
C279 C 0.19621 0.61039 0.35382 0.0
N280 N 0.08355 0.54785 0.35978 0.0
N281 N 0.37923 0.53951 0.3506 0.0
C282 C 0.15415 0.55168 0.34801 0.0
C283 C 0.30637 0.54473 0.34597 0.0
N284 N 0.15118 0.44186 0.3187 0.0
N285 N 0.3108 0.66444 0.34076 0.0
H286 H 0.40665 0.49506 0.34637 0.0
H287 H 0.41175 0.57928 0.35931 0.0
H288 H 0.28654 0.71081 0.3383 0.0
H289 H 0.36529 0.66418 0.33297 0.0
H290 H 0.09686 0.44521 0.31091 0.0
H291 H 0.17719 0.39805 0.31032 0.0
H292 H 0.05356 0.50404 0.35811 0.0
H293 H 0.05792 0.58447 0.37639 0.0
C294 C 0.24265 0.94986 0.82964 0.0
C295 C 0.27465 0.00712 0.8464 0.0
C296 C 0.35157 0.93709 0.88733 0.0
C297 C 0.31692 0.87948 0.87251 0.0
N298 N 0.22511 0.83033 0.83112 0.0
N299 N 0.38883 0.04825 0.8717 0.0
C300 C 0.26095 0.88555 0.84411 0.0
C301 C 0.33794 -0.00089 0.86961 0.0
N302 N 0.20357 0.95703 0.79599 0.0
N303 N 0.39734 0.93262 0.91883 0.0
H304 H 0.38818 0.08944 0.85317 0.0
H305 H 0.43773 0.04269 0.8865 0.0
H306 H 0.4069 0.88792 0.93337 0.0
H307 H 0.41896 0.97422 0.93299 0.0
H308 H 0.18553 0.91731 0.77884 0.0
H309 H 0.19846 0.00345 0.78267 0.0
H310 H 0.17888 0.83231 0.8137 0.0
H311 H 0.23823 0.78261 0.84029 0.0
C312 C 0.47133 0.44925 0.52325 0.0
C313 C 0.47606 0.43385 0.48267 0.0
C314 C 0.59189 0.49184 0.47798 0.0
C315 C 0.58126 0.51571 0.51686 0.0
N316 N 0.50569 0.52457 0.5753 0.0
N317 N 0.53405 0.44982 0.41916 0.0
C318 C 0.51955 0.49655 0.53923 0.0
C319 C 0.53493 0.4568 0.45937 0.0
N320 N 0.42174 0.41756 0.54661 0.0
N321 N 0.65564 0.5033 0.45869 0.0
H322 H 0.49295 0.42547 0.40382 0.0
H323 H 0.57093 0.47392 0.40082 0.0
H324 H 0.69756 0.53123 0.47098 0.0
H325 H 0.66888 0.48065 0.43187 0.0
H326 H 0.4209 0.42173 0.57734 0.0
H327 H 0.38618 0.38169 0.53559 0.0
H328 H 0.45701 0.51777 0.59022 0.0
H329 H 0.54018 0.55823 0.58915 0.0
C330 C 0.02399 0.94838 0.02269 0.0
C331 C 0.97674 0.91025 0.99847 0.0
C332 C 0.04707 0.93739 0.93975 0.0
C333 C 0.09393 0.97538 0.96417 0.0
N334 N 0.14021 0.00297 0.02848 0.0
N335 N 0.94885 0.85745 0.93634 0.0
C336 C 0.08675 0.97596 0.00563 0.0
C337 C 0.99017 0.90104 0.95765 0.0
N338 N 1.0067 0.9616 0.06135 0.0
N339 N 0.0548 0.93902 0.89951 0.0
H340 H 0.90573 0.83127 0.94877 0.0
H341 H 0.96047 0.84333 0.90737 0.0
H342 H 0.09759 0.96316 0.88546 0.0
H343 H 0.01728 0.91907 0.87988 0.0
H344 H 0.03509 -0.00477 0.07892 0.0
H345 H 0.96035 0.94349 0.07524 0.0
H346 H 0.14153 -0.00088 0.05918 0.0
H347 H 0.18711 0.02345 0.01631 0.0
C348 C 0.99604 0.96234 0.55189 0.0
C349 C 0.95395 0.00567 0.52832 0.0
C350 C 0.03082 -0.01408 0.47118 0.0
C351 C 0.07518 0.94541 0.4952 0.0
N352 N 0.10624 0.89789 0.55788 0.0
N353 N 0.9322 0.06373 0.46727 0.0
C354 C 0.05954 0.93422 0.53548 0.0
C355 C 0.97145 0.01868 0.48839 0.0
N356 N 0.97544 0.9488 0.5899 0.0
N357 N 0.04441 -0.0086 0.43151 0.0
H358 H 0.88435 0.08469 0.47771 0.0
H359 H 0.94864 0.08305 0.44018 0.0
H360 H 0.0909 0.97295 0.41804 0.0
H361 H 1.00779 0.01097 0.41144 0.0
H362 H 0.99922 0.91286 0.60752 0.0
H363 H 0.93152 0.97148 0.60355 0.0
H364 H 0.10164 0.89175 0.58831 0.0
H365 H 0.15283 0.87643 0.54614 0.0
C366 C 0.47318 0.51878 0.02499 0.0
C367 C 0.46667 0.52685 0.98395 0.0
C368 C 0.57364 0.45876 0.97205 0.0
C369 C 0.57365 0.44319 0.01268 0.0
N370 N 0.52093 0.45345 0.07805 0.0
N371 N 0.50811 0.50501 0.91709 0.0
C372 C 0.52291 0.47195 0.03928 0.0
C373 C 0.51653 0.4975 0.957 0.0
N374 N 0.43307 0.55722 0.05018 0.0
N375 N 0.62841 0.43708 0.94811 0.0
H376 H 0.47108 0.53739 0.90463 0.0
H377 H 0.53614 0.4773 0.89606 0.0
H378 H 0.66943 0.40604 0.95804 0.0
H379 H 0.63609 0.45328 0.91919 0.0
H380 H 0.44151 0.55946 0.0806 0.0
H381 H 0.39597 0.59215 0.04018 0.0
H382 H 0.47982 0.46755 0.09724 0.0
H383 H 0.5575 0.42083 0.09067 0.0
C384 C 0.46552 0.40374 0.21414 0.0
C385 C 0.53914 0.38601 0.20871 0.0
C386 C 0.55657 0.40144 0.27967 0.0
C387 C 0.48121 0.3935 0.28546 0.0
N388 N 0.36164 0.40189 0.25767 0.0
N389 N 0.65817 0.37532 0.23767 0.0
C390 C 0.4347 0.40147 0.25266 0.0
C391 C 0.58654 0.38954 0.2416 0.0
N392 N 0.42491 0.41991 0.18203 0.0
N393 N 0.5992 0.41595 0.31137 0.0
H394 H 0.68314 0.36666 0.21067 0.0
H395 H 0.69249 0.369 0.26171 0.0
H396 H 0.57696 0.42298 0.33944 0.0
H397 H 0.65402 0.42718 0.309 0.0
H398 H 0.37263 0.43853 0.18397 0.0
H399 H 0.44679 0.42014 0.15364 0.0
H400 H 0.32515 0.39729 0.23442 0.0
H401 H 0.33733 0.40647 0.28521 0.0
C402 C 0.91959 0.1289 0.78833 0.0
C403 C 0.98776 0.10175 0.79816 0.0
C404 C 1.00679 0.0725 0.72891 0.0
C405 C 0.95075 0.11685 0.71847 0.0
N406 N 0.84874 0.18396 0.73845 0.0
N407 N 0.0604 0.00882 0.78178 0.0
C408 C 0.90423 0.14268 0.74815 0.0
C409 C 0.0219 0.06196 0.76961 0.0
N410 N 0.86829 0.13728 0.81697 0.0
N411 N 0.0471 0.04261 0.70012 0.0
H412 H 0.06671 -0.00153 0.81184 0.0
H413 H 0.07576 0.97112 0.76238 0.0
H414 H 0.03482 0.04687 0.67011 0.0
H415 H 0.09365 0.01564 0.70621 0.0
H416 H 0.81573 0.15243 0.81099 0.0
H417 H 0.87547 0.11965 0.84568 0.0
H418 H 0.81941 0.21065 0.75947 0.0
H419 H 0.83469 0.19488 0.70938 0.0
C420 C 0.42981 0.58811 0.75261 0.0
C421 C 0.47817 0.59622 0.7847 0.0
C422 C 0.58119 0.59803 0.73959 0.0
C423 C 0.53257 0.5981 0.70709 0.0
N424 N 0.41755 0.55908 0.68325 0.0
N425 N 0.59659 0.57029 0.80879 0.0
C426 C 0.45918 0.58059 0.71399 0.0
C427 C 0.55283 0.58638 0.77792 0.0
N428 N 0.35696 0.59209 0.75798 0.0
N429 N 0.652 0.61563 0.73535 0.0
H430 H 0.57571 0.56208 0.83712 0.0
H431 H 0.65096 0.55839 0.80516 0.0
H432 H 0.67587 0.62774 0.70857 0.0
H433 H 0.68621 0.6231 0.75941 0.0
H434 H 0.32069 0.5955 0.73457 0.0
H435 H 0.33256 0.59381 0.78563 0.0
H436 H 0.36508 0.54115 0.68684 0.0
H437 H 0.43909 0.55274 0.65496 0.0
C438 C 0.93783 0.89832 0.23919 0.0
C439 C 0.98507 0.88605 0.20684 0.0
C440 C 0.0896 0.89196 0.25084 0.0
C441 C 0.04166 0.89424 0.28365 0.0
N442 N 0.92815 0.93552 0.30748 0.0
N443 N 0.10308 0.90718 0.17992 0.0
C444 C 0.96855 0.91124 0.27692 0.0
C445 C 0.06018 0.89652 0.21218 0.0
N446 N 0.86489 0.89187 0.23528 0.0
N447 N 0.16131 0.87977 0.25585 0.0
H448 H 0.08136 0.91047 0.15149 0.0
H449 H 0.15769 0.91941 0.18198 0.0
H450 H 0.18562 0.87766 0.2834 0.0
H451 H 0.19621 0.86932 0.23243 0.0
H452 H 0.82952 0.89243 0.25932 0.0
H453 H 0.83964 0.88293 0.20844 0.0
H454 H 0.87561 0.95282 0.30398 0.0
H455 H 0.9508 0.94432 0.33532 0.0
C456 C 0.64026 0.28694 0.46009 0.0
C457 C 0.56994 0.26407 0.46995 0.0
C458 C 0.60892 0.24594 0.53824 0.0
C459 C 0.68134 0.25232 0.52546 0.0
N460 N 0.76773 0.28809 0.47708 0.0
N461 N 0.48333 0.23027 0.51935 0.0
C462 C 0.69731 0.27744 0.48745 0.0
C463 C 0.55249 0.24781 0.50967 0.0
N464 N 0.65194 0.3177 0.42466 0.0
N465 N 0.59519 0.23592 0.57747 0.0
H466 H 0.44094 0.23189 0.49914 0.0
H467 H 0.46813 0.21168 0.54682 0.0
H468 H 0.63668 0.23474 0.5983 0.0
H469 H 0.54362 0.23473 0.58974 0.0
H470 H 0.70054 0.34035 0.41691 0.0
H471 H 0.61065 0.32572 0.4043 0.0
H472 H 0.78488 0.29868 0.44843 0.0
H473 H 0.80945 0.2844 0.49767 0.0
C474 C 0.98888 0.1956 0.03628 0.0
C475 C 0.9748 0.1593 0.00125 0.0
C476 C 0.84807 0.14493 0.02125 0.0
C477 C 0.85917 0.19237 0.05165 0.0
N478 N 0.94077 0.24572 0.0966 0.0
N479 N 0.90069 0.07987 0.96731 0.0
C480 C 0.93054 0.21053 0.06246 0.0
C481 C 0.90754 0.12646 0.99648 0.0
N482 N 0.05716 0.21903 0.04271 0.0
N483 N 0.77978 0.12198 0.01452 0.0
H484 H 0.94434 0.06646 0.9494 0.0
H485 H 0.85448 0.05138 0.96275 0.0
H486 H 0.73697 0.13414 0.03334 0.0
H487 H 0.76541 0.09172 0.9908 0.0
H488 H 0.07158 0.25044 0.06588 0.0
H489 H 0.10014 0.20614 0.02415 0.0
H490 H 0.99102 0.25944 0.10765 0.0
H491 H 0.89761 0.25802 0.11515 0.0
C492 C 0.12362 0.14555 0.50963 0.0
C493 C 0.05805 0.18158 0.50784 0.0
C494 C 0.09761 0.23405 0.44622 0.0
C495 C 0.16743 0.20686 0.45173 0.0
N496 N 0.24102 0.12203 0.47946 0.0
N497 N 0.97224 0.23978 0.46796 0.0
C498 C 0.17781 0.15654 0.48012 0.0
C499 C 0.0413 0.21838 0.47354 0.0
N500 N 0.13445 0.10314 0.54042 0.0
N501 N 0.08764 0.27956 0.41693 0.0
H502 H 0.93076 0.22864 0.48783 0.0
H503 H 0.95467 0.26315 0.44237 0.0
H504 H 0.12808 0.29058 0.39637 0.0
H505 H 0.04101 0.30758 0.41364 0.0
H506 H 0.18246 0.07809 0.54556 0.0
H507 H 0.09397 0.09295 0.56113 0.0
H508 H 0.25281 0.08284 0.49824 0.0
H509 H 0.28004 0.1306 0.45765 0.0
C510 C 0.46545 0.25461 0.97646 0.0
C511 C 0.44834 0.27487 0.01563 0.0
C512 C 0.32001 0.28274 0.99799 0.0
C513 C 0.33595 0.25366 0.96092 0.0
N514 N 0.42202 0.234 0.90939 0.0
N515 N 0.36562 0.33164 0.05897 0.0
C516 C 0.4086 0.24828 0.94821 0.0
C517 C 0.37747 0.29717 0.0247 0.0
N518 N 0.53458 0.23695 0.96715 0.0
N519 N 0.24949 0.29188 0.00845 0.0
H520 H 0.40737 0.34349 0.0785 0.0
H521 H 0.31648 0.35346 0.06626 0.0
H522 H 0.20754 0.28377 0.98838 0.0
H523 H 0.23264 0.30544 0.03674 0.0
H524 H 0.54945 0.21524 0.94038 0.0
H525 H 0.57722 0.24183 0.98702 0.0
H526 H 0.47342 0.2331 0.89688 0.0
H527 H 0.38006 0.22866 0.88901 0.0
C528 C 0.38663 0.66025 0.5074 0.0
C529 C 0.45809 0.68549 0.5028 0.0
C530 C 0.42886 0.72077 0.43543 0.0
C531 C 0.35496 0.70792 0.44346 0.0
N532 N 0.26809 0.64168 0.47775 0.0
N533 N 0.55336 0.71999 0.45867 0.0
C534 C 0.3358 0.66845 0.47619 0.0
C535 C 0.48165 0.70799 0.46516 0.0
N536 N 0.36693 0.63155 0.54237 0.0
N537 N 0.44646 0.75071 0.40053 0.0
H538 H 0.59251 0.71232 0.48022 0.0
H539 H 0.57504 0.73368 0.43149 0.0
H540 H 0.40751 0.75921 0.37885 0.0
H541 H 0.49786 0.76749 0.39307 0.0
H542 H 0.31437 0.61754 0.54946 0.0
H543 H 0.40386 0.623 0.56501 0.0
H544 H 0.25033 0.60953 0.49976 0.0
H545 H 0.23166 0.64751 0.45455 0.0
C546 C 0.13786 0.79115 0.01974 0.0
C547 C 0.06906 0.76062 0.01584 0.0
C548 C 0.09612 0.73556 0.94652 0.0
C549 C 0.16976 0.74863 0.95407 0.0
N550 N 0.26068 0.7998 0.9947 0.0
N551 N 0.97835 0.70993 0.97434 0.0
C552 C 0.19021 0.78191 0.9893 0.0
C553 C 0.04604 0.73624 0.9785 0.0
N554 N 0.15262 0.82876 0.05248 0.0
N555 N 0.07586 0.71939 0.90892 0.0
H556 H 0.94019 0.7102 0.99709 0.0
H557 H 0.96086 0.68534 0.94896 0.0
H558 H 0.11346 0.71831 0.8858 0.0
H559 H 0.0224 0.71323 0.90016 0.0
H560 H 0.19945 0.85696 0.05576 0.0
H561 H 0.11466 0.83656 0.07491 0.0
H562 H 0.28162 0.81629 0.02155 0.0
H563 H 0.29876 0.79674 0.972 0.0
C564 C 0.88015 0.82511 0.47684 0.0
C565 C 0.95059 0.79947 0.48269 0.0
C566 C 0.91811 0.77347 0.55119 0.0
C567 C 0.84446 0.78065 0.5413 0.0
N568 N 0.75432 0.82396 0.49796 0.0
N569 N 0.0403 0.75616 0.52716 0.0
C570 C 0.8254 0.81196 0.50553 0.0
C571 C 0.97147 0.77766 0.52083 0.0
N572 N 0.86608 0.86129 0.44371 0.0
N573 N 0.93559 0.75904 0.58935 0.0
H574 H 0.08067 0.75889 0.50568 0.0
H575 H 0.05683 0.7332 0.5531 0.0
H576 H 0.89578 0.75454 0.61115 0.0
H577 H 0.98835 0.75757 0.59984 0.0
H578 H 0.81738 0.88543 0.43877 0.0
H579 H 0.90608 0.87209 0.42283 0.0
H580 H 0.73494 0.83932 0.47063 0.0
H581 H 0.71446 0.81663 0.51943 0.0
C582 C 0.59572 0.72119 0.05315 0.0
C583 C 0.66723 0.69814 0.04763 0.0
C584 C 0.63336 0.64753 0.98453 0.0
C585 C 0.56581 0.68047 0.9869 0.0
N586 N 0.47288 0.72762 0.02829 0.0
N587 N 0.74569 0.61869 0.01788 0.0
C588 C 0.54321 0.70921 0.02322 0.0
C589 C 0.68238 0.65289 0.01685 0.0
N590 N 0.58113 0.76098 0.08495 0.0
N591 N 0.65157 0.6142 0.95072 0.0
H592 H 0.78132 0.62399 0.04162 0.0
H593 H 0.75976 0.58198 0.99757 0.0
H594 H 0.61554 0.60812 0.92728 0.0
H595 H 0.70227 0.59387 0.94547 0.0
H596 H 0.53296 0.78655 0.08898 0.0
H597 H 0.61969 0.77015 0.1068 0.0
H598 H 0.45176 0.74415 0.05512 0.0
H599 H 0.43393 0.72124 0.0064 0.0
loop_
_geom_bond_atom_site_label_1
_geom_bond_atom_site_label_2
_geom_bond_distance
_geom_bond_site_symmetry_2
_ccdc_geom_bond_type
Zn0 O6 1.920 . S
Zn0 O12 1.898 . S
Zn0 O15 1.905 . S
Zn1 O9 1.905 . S
Zn1 O10 1.898 . S
Zn1 O18 1.920 . S
Zn2 O5 2.080 . S
Zn2 O8 2.114 . S
Zn2 O11 2.120 . S
Zn2 O13 2.120 . S
Zn2 O14 2.114 . S
Zn2 O17 2.080 . S
C3 O8 1.166 . S
C3 O9 1.182 . S
C4 O10 1.167 . S
C4 O11 1.299 . S
O5 Zn2 2.080 . S
O5 C19 1.305 . S
O6 Zn0 1.920 . S
O6 C19 1.234 . S
C7 O12 1.167 . S
C7 O13 1.299 . S
O8 Zn2 2.114 . S
O8 C3 1.166 . S
O9 Zn1 1.905 . S
O9 C3 1.182 . S
O10 Zn1 1.898 . S
O10 C4 1.167 . S
O11 Zn2 2.120 . S
O11 C4 1.299 . S
O12 Zn0 1.898 . S
O12 C7 1.167 . S
O13 Zn2 2.120 . S
O13 C7 1.299 . S
O14 Zn2 2.114 . S
O14 C16 1.166 . S
O15 Zn0 1.905 . S
O15 C16 1.182 . S
C16 O14 1.166 . S
C16 O15 1.182 . S
O17 Zn2 2.080 . S
O17 C20 1.305 . S
O18 Zn1 1.920 . S
O18 C20 1.234 . S
C19 O5 1.305 . S
C19 O6 1.234 . S
C20 O17 1.305 . S
C20 O18 1.234 . S
Zn21 O27 1.920 1_455 S
Zn21 O33 1.898 . S
Zn21 O36 1.905 . S
Zn22 O30 1.905 . S
Zn22 O31 1.898 . S
Zn22 O39 1.920 . S
Zn23 O26 2.080 . S
Zn23 O29 2.114 . S
Zn23 O32 2.120 . S
Zn23 O34 2.120 . S
Zn23 O35 2.114 . S
Zn23 O38 2.080 . S
C24 O29 1.166 . S
C24 O30 1.182 . S
C25 O31 1.167 . S
C25 O32 1.299 . S
O26 Zn23 2.080 . S
O26 C40 1.305 1_455 S
O27 Zn21 1.920 1_655 S
O27 C40 1.234 . S
C28 O33 1.167 . S
C28 O34 1.299 . S
O29 Zn23 2.114 . S
O29 C24 1.166 . S
O30 Zn22 1.905 . S
O30 C24 1.182 . S
O31 Zn22 1.898 . S
O31 C25 1.167 . S
O32 Zn23 2.120 . S
O32 C25 1.299 . S
O33 Zn21 1.898 . S
O33 C28 1.167 . S
O34 Zn23 2.120 . S
O34 C28 1.299 . S
O35 Zn23 2.114 . S
O35 C37 1.166 . S
O36 Zn21 1.905 . S
O36 C37 1.182 . S
C37 O35 1.166 . S
C37 O36 1.182 . S
O38 Zn23 2.080 . S
O38 C41 1.305 . S
O39 Zn22 1.920 . S
O39 C41 1.234 . S
C40 O26 1.305 1_655 S
C40 O27 1.234 . S
C41 O38 1.305 . S
C41 O39 1.234 . S
Zn42 O48 1.920 1_655 S
Zn42 O54 1.898 . S
Zn42 O57 1.905 . S
Zn43 O51 1.905 . S
Zn43 O52 1.898 . S
Zn43 O60 1.920 . S
Zn44 O47 2.080 . S
Zn44 O50 2.114 . S
Zn44 O53 2.120 . S
Zn44 O55 2.120 . S
Zn44 O56 2.114 . S
Zn44 O59 2.080 . S
C45 O50 1.166 . S
C45 O51 1.182 . S
C46 O52 1.167 . S
C46 O53 1.299 . S
O47 Zn44 2.080 . S
O47 C61 1.305 1_655 S
O48 Zn42 1.920 1_455 S
O48 C61 1.234 . S
C49 O54 1.167 . S
C49 O55 1.299 . S
O50 Zn44 2.114 . S
O50 C45 1.166 . S
O51 Zn43 1.905 . S
O51 C45 1.182 . S
O52 Zn43 1.898 . S
O52 C46 1.167 . S
O53 Zn44 2.120 . S
O53 C46 1.299 . S
O54 Zn42 1.898 . S
O54 C49 1.167 . S
O55 Zn44 2.120 . S
O55 C49 1.299 . S
O56 Zn44 2.114 . S
O56 C58 1.166 . S
O57 Zn42 1.905 . S
O57 C58 1.182 . S
C58 O56 1.166 . S
C58 O57 1.182 . S
O59 Zn44 2.080 . S
O59 C62 1.305 . S
O60 Zn43 1.920 . S
O60 C62 1.234 . S
C61 O47 1.305 1_455 S
C61 O48 1.234 . S
C62 O59 1.305 . S
C62 O60 1.234 . S
Zn63 O69 1.920 . S
Zn63 O75 1.898 . S
Zn63 O78 1.905 . S
Zn64 O72 1.905 . S
Zn64 O73 1.898 . S
Zn64 O81 1.920 . S
Zn65 O68 2.080 . S
Zn65 O71 2.114 . S
Zn65 O74 2.120 . S
Zn65 O76 2.120 . S
Zn65 O77 2.114 . S
Zn65 O80 2.080 . S
C66 O71 1.166 . S
C66 O72 1.182 . S
C67 O73 1.167 . S
C67 O74 1.299 . S
O68 Zn65 2.080 . S
O68 C82 1.305 . S
O69 Zn63 1.920 . S
O69 C82 1.234 . S
C70 O75 1.167 . S
C70 O76 1.299 . S
O71 Zn65 2.114 . S
O71 C66 1.166 . S
O72 Zn64 1.905 . S
O72 C66 1.182 . S
O73 Zn64 1.898 . S
O73 C67 1.167 . S
O74 Zn65 2.120 . S
O74 C67 1.299 . S
O75 Zn63 1.898 . S
O75 C70 1.167 . S
O76 Zn65 2.120 . S
O76 C70 1.299 . S
O77 Zn65 2.114 . S
O77 C79 1.166 . S
O78 Zn63 1.905 . S
O78 C79 1.182 . S
C79 O77 1.166 . S
C79 O78 1.182 . S
O80 Zn65 2.080 . S
O80 C83 1.305 . S
O81 Zn64 1.920 . S
O81 C83 1.234 . S
C82 O68 1.305 . S
C82 O69 1.234 . S
C83 O80 1.305 . S
C83 O81 1.234 . S
Zn84 O90 1.920 . S
Zn84 O96 1.898 . S
Zn84 O99 1.905 . S
Zn85 O93 1.905 . S
Zn85 O94 1.898 . S
Zn85 O102 1.920 . S
Zn86 O89 2.080 . S
Zn86 O92 2.114 . S
Zn86 O95 2.120 . S
Zn86 O97 2.120 . S
Zn86 O98 2.114 . S
Zn86 O101 2.080 . S
C87 O92 1.166 . S
C87 O93 1.182 . S
C88 O94 1.167 . S
C88 O95 1.299 . S
O89 Zn86 2.080 . S
O89 C103 1.305 . S
O90 Zn84 1.920 . S
O90 C103 1.234 . S
C91 O96 1.167 . S
C91 O97 1.299 . S
O92 Zn86 2.114 . S
O92 C87 1.166 . S
O93 Zn85 1.905 . S
O93 C87 1.182 . S
O94 Zn85 1.898 . S
O94 C88 1.167 . S
O95 Zn86 2.120 . S
O95 C88 1.299 . S
O96 Zn84 1.898 . S
O96 C91 1.167 . S
O97 Zn86 2.120 . S
O97 C91 1.299 . S
O98 Zn86 2.114 . S
O98 C100 1.166 . S
O99 Zn84 1.905 . S
O99 C100 1.182 . S
C100 O98 1.166 . S
C100 O99 1.182 . S
O101 Zn86 2.080 . S
O101 C104 1.305 . S
O102 Zn85 1.920 . S
O102 C104 1.234 . S
C103 O89 1.305 . S
C103 O90 1.234 . S
C104 O101 1.305 . S
C104 O102 1.234 . S
Zn105 O111 1.920 . S
Zn105 O117 1.898 . S
Zn105 O120 1.905 . S
Zn106 O114 1.905 . S
Zn106 O115 1.898 . S
Zn106 O123 1.920 1_655 S
Zn107 O110 2.080 . S
Zn107 O113 2.114 . S
Zn107 O116 2.120 . S
Zn107 O118 2.120 . S
Zn107 O119 2.114 . S
Zn107 O122 2.080 . S
C108 O113 1.166 . S
C108 O114 1.182 . S
C109 O115 1.167 . S
C109 O116 1.299 . S
O110 Zn107 2.080 . S
O110 C124 1.305 . S
O111 Zn105 1.920 . S
O111 C124 1.234 . S
C112 O117 1.167 . S
C112 O118 1.299 . S
O113 Zn107 2.114 . S
O113 C108 1.166 . S
O114 Zn106 1.905 . S
O114 C108 1.182 . S
O115 Zn106 1.898 . S
O115 C109 1.167 . S
O116 Zn107 2.120 . S
O116 C109 1.299 . S
O117 Zn105 1.898 . S
O117 C112 1.167 . S
O118 Zn107 2.120 . S
O118 C112 1.299 . S
O119 Zn107 2.114 . S
O119 C121 1.166 . S
O120 Zn105 1.905 . S
O120 C121 1.182 . S
C121 O119 1.166 . S
C121 O120 1.182 . S
O122 Zn107 2.080 . S
O122 C125 1.305 1_655 S
O123 Zn106 1.920 1_455 S
O123 C125 1.234 . S
C124 O110 1.305 . S
C124 O111 1.234 . S
C125 O122 1.305 1_455 S
C125 O123 1.234 . S
Zn126 O132 1.920 . S
Zn126 O138 1.898 . S
Zn126 O141 1.905 . S
Zn127 O135 1.905 . S
Zn127 O136 1.898 . S
Zn127 O144 1.920 1_455 S
Zn128 O131 2.080 . S
Zn128 O134 2.114 . S
Zn128 O137 2.120 . S
Zn128 O139 2.120 . S
Zn128 O140 2.114 . S
Zn128 O143 2.080 . S
C129 O134 1.166 . S
C129 O135 1.182 . S
C130 O136 1.167 . S
C130 O137 1.299 . S
O131 Zn128 2.080 . S
O131 C145 1.305 . S
O132 Zn126 1.920 . S
O132 C145 1.234 . S
C133 O138 1.167 . S
C133 O139 1.299 . S
O134 Zn128 2.114 . S
O134 C129 1.166 . S
O135 Zn127 1.905 . S
O135 C129 1.182 . S
O136 Zn127 1.898 . S
O136 C130 1.167 . S
O137 Zn128 2.120 . S
O137 C130 1.299 . S
O138 Zn126 1.898 . S
O138 C133 1.167 . S
O139 Zn128 2.120 . S
O139 C133 1.299 . S
O140 Zn128 2.114 . S
O140 C142 1.166 . S
O141 Zn126 1.905 . S
O141 C142 1.182 . S
C142 O140 1.166 . S
C142 O141 1.182 . S
O143 Zn128 2.080 . S
O143 C146 1.305 1_455 S
O144 Zn127 1.920 1_655 S
O144 C146 1.234 . S
C145 O131 1.305 . S
C145 O132 1.234 . S
C146 O143 1.305 1_655 S
C146 O144 1.234 . S
Zn147 O153 1.920 . S
Zn147 O159 1.898 . S
Zn147 O162 1.905 . S
Zn148 O156 1.905 . S
Zn148 O157 1.898 . S
Zn148 O165 1.920 . S
Zn149 O152 2.080 . S
Zn149 O155 2.114 . S
Zn149 O158 2.120 . S
Zn149 O160 2.120 . S
Zn149 O161 2.114 . S
Zn149 O164 2.080 . S
C150 O155 1.166 . S
C150 O156 1.182 . S
C151 O157 1.167 . S
C151 O158 1.299 . S
O152 Zn149 2.080 . S
O152 C166 1.305 . S
O153 Zn147 1.920 . S
O153 C166 1.234 . S
C154 O159 1.167 . S
C154 O160 1.299 . S
O155 Zn149 2.114 . S
O155 C150 1.166 . S
O156 Zn148 1.905 . S
O156 C150 1.182 . S
O157 Zn148 1.898 . S
O157 C151 1.167 . S
O158 Zn149 2.120 . S
O158 C151 1.299 . S
O159 Zn147 1.898 . S
O159 C154 1.167 . S
O160 Zn149 2.120 . S
O160 C154 1.299 . S
O161 Zn149 2.114 . S
O161 C163 1.166 . S
O162 Zn147 1.905 . S
O162 C163 1.182 . S
C163 O161 1.166 . S
C163 O162 1.182 . S
O164 Zn149 2.080 . S
O164 C167 1.305 . S
O165 Zn148 1.920 . S
O165 C167 1.234 . S
C166 O152 1.305 . S
C166 O153 1.234 . S
C167 O164 1.305 . S
C167 O165 1.234 . S
C168 C169 1.371 . S
C168 C174 1.379 . S
C168 N176 1.356 1_545 S
C169 C168 1.371 . S
C169 C175 1.369 . S
C170 C171 1.363 . S
C170 C175 1.379 . S
C170 N177 1.356 . S
C171 C170 1.363 . S
C171 C174 1.363 . S
N172 C174 1.356 . S
N172 H184 0.984 . S
N172 H185 0.985 . S
N173 C175 1.356 1_565 S
N173 H178 0.984 . S
N173 H179 0.985 . S
C174 C168 1.379 . S
C174 C171 1.363 . S
C174 N172 1.356 . S
C175 C169 1.369 . S
C175 C170 1.379 . S
C175 N173 1.356 1_545 S
N176 C168 1.356 1_565 S
N176 H182 0.984 1_565 S
N176 H183 0.984 . S
N177 C170 1.356 . S
N177 H180 0.984 . S
N177 H181 0.985 . S
H178 N173 0.984 . S
H179 N173 0.985 . S
H180 N177 0.984 . S
H181 N177 0.985 . S
H182 N176 0.984 1_545 S
H183 N176 0.984 . S
H184 N172 0.984 . S
H185 N172 0.985 . S
C186 C187 1.363 . S
C186 C192 1.379 . S
C186 N194 1.356 . S
C187 C186 1.363 . S
C187 C193 1.363 . S
C188 C189 1.363 . S
C188 C193 1.379 . S
C188 N195 1.356 . S
C189 C188 1.363 . S
C189 C192 1.363 . S
N190 C192 1.356 . S
N190 H202 0.984 . S
N190 H203 0.985 . S
N191 C193 1.356 . S
N191 H196 0.984 . S
N191 H197 0.985 . S
C192 C186 1.379 . S
C192 C189 1.363 . S
C192 N190 1.356 . S
C193 C187 1.363 . S
C193 C188 1.379 . S
C193 N191 1.356 . S
N194 C186 1.356 . S
N194 H200 0.984 . S
N194 H201 0.984 . S
N195 C188 1.356 . S
N195 H198 0.984 . S
N195 H199 0.985 . S
H196 N191 0.984 . S
H197 N191 0.985 . S
H198 N195 0.984 . S
H199 N195 0.985 . S
H200 N194 0.984 . S
H201 N194 0.984 . S
H202 N190 0.984 . S
H203 N190 0.985 . S
C204 C205 1.363 . S
C204 C210 1.379 . S
C204 N212 1.356 . S
C205 C204 1.363 . S
C205 C211 1.363 . S
C206 C207 1.363 . S
C206 C211 1.379 . S
C206 N213 1.356 . S
C207 C206 1.363 . S
C207 C210 1.363 . S
N208 C210 1.356 . S
N208 H220 0.984 . S
N208 H221 0.985 . S
N209 C211 1.356 . S
N209 H214 0.984 . S
N209 H215 0.985 . S
C210 C204 1.379 . S
C210 C207 1.363 . S
C210 N208 1.356 . S
C211 C205 1.363 . S
C211 C206 1.379 . S
C211 N209 1.356 . S
N212 C204 1.356 . S
N212 H218 0.984 . S
N212 H219 0.984 . S
N213 C206 1.356 . S
N213 H216 0.984 . S
N213 H217 0.985 . S
H214 N209 0.984 . S
H215 N209 0.985 . S
H216 N213 0.984 . S
H217 N213 0.985 . S
H218 N212 0.984 . S
H219 N212 0.984 . S
H220 N208 0.984 . S
H221 N208 0.985 . S
C222 C223 1.363 . S
C222 C228 1.379 . S
C222 N230 1.356 . S
C223 C222 1.363 . S
C223 C229 1.363 . S
C224 C225 1.366 . S
C224 C229 1.379 . S
C224 N231 1.356 1_545 S
C225 C224 1.366 . S
C225 C228 1.374 . S
N226 C228 1.356 . S
N226 H238 0.984 . S
N226 H239 0.985 1_545 S
N227 C229 1.356 . S
N227 H232 0.984 . S
N227 H233 0.985 . S
C228 C222 1.379 . S
C228 C225 1.374 . S
C228 N226 1.356 . S
C229 C223 1.363 . S
C229 C224 1.379 . S
C229 N227 1.356 . S
N230 C222 1.356 . S
N230 H236 0.984 . S
N230 H237 0.984 . S
N231 C224 1.356 1_565 S
N231 H234 0.984 . S
N231 H235 0.985 . S
H232 N227 0.984 . S
H233 N227 0.985 . S
H234 N231 0.984 . S
H235 N231 0.985 . S
H236 N230 0.984 . S
H237 N230 0.984 . S
H238 N226 0.984 . S
H239 N226 0.985 1_565 S
C240 C241 1.374 . S
C240 C246 1.379 . S
C240 N248 1.356 . S
C241 C240 1.374 . S
C241 C247 1.366 . S
C242 C243 1.363 . S
C242 C247 1.379 . S
C242 N249 1.356 . S
C243 C242 1.363 . S
C243 C246 1.363 . S
N244 C246 1.356 . S
N244 H256 0.984 . S
N244 H257 0.985 . S
N245 C247 1.356 1_545 S
N245 H250 0.984 . S
N245 H251 0.985 . S
C246 C240 1.379 . S
C246 C243 1.363 . S
C246 N244 1.356 . S
C247 C241 1.366 . S
C247 C242 1.379 . S
C247 N245 1.356 1_565 S
N248 C240 1.356 . S
N248 H254 0.984 . S
N248 H255 0.984 1_565 S
N249 C242 1.356 . S
N249 H252 0.984 . S
N249 H253 0.985 . S
H250 N245 0.984 . S
H251 N245 0.985 . S
H252 N249 0.984 . S
H253 N249 0.985 . S
H254 N248 0.984 . S
H255 N248 0.984 1_545 S
H256 N244 0.984 . S
H257 N244 0.985 . S
C258 C259 1.363 . S
C258 C264 1.379 . S
C258 N266 1.356 . S
C259 C258 1.363 . S
C259 C265 1.363 . S
C260 C261 1.363 . S
C260 C265 1.379 . S
C260 N267 1.356 . S
C261 C260 1.363 . S
C261 C264 1.363 . S
N262 C264 1.356 . S
N262 H274 0.984 . S
N262 H275 0.985 . S
N263 C265 1.356 . S
N263 H268 0.984 . S
N263 H269 0.985 . S
C264 C258 1.379 . S
C264 C261 1.363 . S
C264 N262 1.356 . S
C265 C259 1.363 . S
C265 C260 1.379 . S
C265 N263 1.356 . S
N266 C258 1.356 . S
N266 H272 0.984 . S
N266 H273 0.984 . S
N267 C260 1.356 . S
N267 H270 0.984 . S
N267 H271 0.985 . S
H268 N263 0.984 . S
H269 N263 0.985 . S
H270 N267 0.984 . S
H271 N267 0.985 . S
H272 N266 0.984 . S
H273 N266 0.984 . S
H274 N262 0.984 . S
H275 N262 0.985 . S
C276 C277 1.363 . S
C276 C282 1.379 . S
C276 N284 1.356 . S
C277 C276 1.363 . S
C277 C283 1.363 . S
C278 C279 1.363 . S
C278 C283 1.379 . S
C278 N285 1.356 . S
C279 C278 1.363 . S
C279 C282 1.363 . S
N280 C282 1.356 . S
N280 H292 0.984 . S
N280 H293 0.985 . S
N281 C283 1.356 . S
N281 H286 0.984 . S
N281 H287 0.985 . S
C282 C276 1.379 . S
C282 C279 1.363 . S
C282 N280 1.356 . S
C283 C277 1.363 . S
C283 C278 1.379 . S
C283 N281 1.356 . S
N284 C276 1.356 . S
N284 H290 0.984 . S
N284 H291 0.984 . S
N285 C278 1.356 . S
N285 H288 0.984 . S
N285 H289 0.985 . S
H286 N281 0.984 . S
H287 N281 0.985 . S
H288 N285 0.984 . S
H289 N285 0.985 . S
H290 N284 0.984 . S
H291 N284 0.984 . S
H292 N280 0.984 . S
H293 N280 0.985 . S
C294 C295 1.374 . S
C294 C300 1.379 . S
C294 N302 1.356 . S
C295 C294 1.374 . S
C295 C301 1.367 . S
C296 C297 1.363 . S
C296 C301 1.379 . S
C296 N303 1.356 . S
C297 C296 1.363 . S
C297 C300 1.363 . S
N298 C300 1.356 . S
N298 H310 0.984 . S
N298 H311 0.985 . S
N299 C301 1.356 1_545 S
N299 H304 0.984 . S
N299 H305 0.985 . S
C300 C294 1.379 . S
C300 C297 1.363 . S
C300 N298 1.356 . S
C301 C295 1.367 . S
C301 C296 1.379 . S
C301 N299 1.356 1_565 S
N302 C294 1.356 . S
N302 H308 0.984 . S
N302 H309 0.984 1_565 S
N303 C296 1.356 . S
N303 H306 0.984 . S
N303 H307 0.985 . S
H304 N299 0.984 . S
H305 N299 0.985 . S
H306 N303 0.984 . S
H307 N303 0.985 . S
H308 N302 0.984 . S
H309 N302 0.984 1_545 S
H310 N298 0.984 . S
H311 N298 0.985 . S
C312 C313 1.363 . S
C312 C318 1.379 . S
C312 N320 1.356 . S
C313 C312 1.363 . S
C313 C319 1.363 . S
C314 C315 1.363 . S
C314 C319 1.379 . S
C314 N321 1.356 . S
C315 C314 1.363 . S
C315 C318 1.363 . S
N316 C318 1.356 . S
N316 H328 0.984 . S
N316 H329 0.985 . S
N317 C319 1.356 . S
N317 H322 0.984 . S
N317 H323 0.985 . S
C318 C312 1.379 . S
C318 C315 1.363 . S
C318 N316 1.356 . S
C319 C313 1.363 . S
C319 C314 1.379 . S
C319 N317 1.356 . S
N320 C312 1.356 . S
N320 H326 0.984 . S
N320 H327 0.984 . S
N321 C314 1.356 . S
N321 H324 0.984 . S
N321 H325 0.985 . S
H322 N317 0.984 . S
H323 N317 0.985 . S
H324 N321 0.984 . S
H325 N321 0.985 . S
H326 N320 0.984 . S
H327 N320 0.984 . S
H328 N316 0.984 . S
H329 N316 0.985 . S
C330 C331 1.363 1_455 S
C330 C336 1.379 1_564 S
C330 N338 1.356 . S
C331 C330 1.363 1_655 S
C331 C337 1.363 . S
C332 C333 1.363 1_655 S
C332 C337 1.379 1_546 S
C332 N339 1.356 . S
C333 C332 1.363 1_455 S
C333 C336 1.363 . S
N334 C336 1.356 . S
N334 H346 0.986 . S
N334 H347 0.985 . S
N335 C337 1.356 . S
N335 H340 0.984 . S
N335 H341 0.986 . S
C336 C330 1.379 1_546 S
C336 C333 1.363 . S
C336 N334 1.356 . S
C337 C331 1.363 . S
C337 C332 1.379 1_564 S
C337 N335 1.356 . S
N338 C330 1.356 . S
N338 H344 0.984 . S
N338 H345 0.984 . S
N339 C332 1.356 . S
N339 H342 0.984 . S
N339 H343 0.985 . S
H340 N335 0.984 . S
H341 N335 0.986 . S
H342 N339 0.984 . S
H343 N339 0.985 . S
H344 N338 0.984 . S
H345 N338 0.984 . S
H346 N334 0.986 . S
H347 N334 0.985 . S
C348 C349 1.363 1_565 S
C348 C354 1.379 1_655 S
C348 N356 1.356 . S
C349 C348 1.363 1_545 S
C349 C355 1.363 . S
C350 C351 1.363 1_545 S
C350 C355 1.379 1_455 S
C350 N357 1.356 . S
C351 C350 1.363 1_565 S
C351 C354 1.363 . S
N352 C354 1.356 . S
N352 H364 0.984 . S
N352 H365 0.985 . S
N353 C355 1.356 . S
N353 H358 0.984 . S
N353 H359 0.985 . S
C354 C348 1.379 1_455 S
C354 C351 1.363 . S
C354 N352 1.356 . S
C355 C349 1.363 . S
C355 C350 1.379 1_655 S
C355 N353 1.356 . S
N356 C348 1.356 . S
N356 H362 0.984 . S
N356 H363 0.984 1_565 S
N357 C350 1.356 . S
N357 H360 0.984 1_545 S
N357 H361 0.985 . S
H358 N353 0.984 . S
H359 N353 0.985 . S
H360 N357 0.984 1_565 S
H361 N357 0.985 . S
H362 N356 0.984 . S
H363 N356 0.984 1_545 S
H364 N352 0.984 . S
H365 N352 0.985 . S
C366 C367 1.363 1_554 S
C366 C372 1.379 . S
C366 N374 1.356 . S
C367 C366 1.363 1_556 S
C367 C373 1.363 . S
C368 C369 1.363 1_556 S
C368 C373 1.379 . S
C368 N375 1.356 . S
C369 C368 1.363 1_554 S
C369 C372 1.363 . S
N370 C372 1.356 . S
N370 H382 0.984 . S
N370 H383 0.985 . S
N371 C373 1.356 . S
N371 H376 0.984 . S
N371 H377 0.985 . S
C372 C366 1.379 . S
C372 C369 1.363 . S
C372 N370 1.356 . S
C373 C367 1.363 . S
C373 C368 1.379 . S
C373 N371 1.356 . S
N374 C366 1.356 . S
N374 H380 0.984 . S
N374 H381 0.984 1_554 S
N375 C368 1.356 . S
N375 H378 0.984 1_556 S
N375 H379 0.985 . S
H376 N371 0.984 . S
H377 N371 0.985 . S
H378 N375 0.984 1_554 S
H379 N375 0.985 . S
H380 N374 0.984 . S
H381 N374 0.984 1_556 S
H382 N370 0.984 . S
H383 N370 0.985 . S
C384 C385 1.363 . S
C384 C390 1.379 . S
C384 N392 1.356 . S
C385 C384 1.363 . S
C385 C391 1.363 . S
C386 C387 1.363 . S
C386 C391 1.379 . S
C386 N393 1.356 . S
C387 C386 1.363 . S
C387 C390 1.363 . S
N388 C390 1.356 . S
N388 H400 0.984 . S
N388 H401 0.985 . S
N389 C391 1.356 . S
N389 H394 0.984 . S
N389 H395 0.985 . S
C390 C384 1.379 . S
C390 C387 1.363 . S
C390 N388 1.356 . S
C391 C385 1.363 . S
C391 C386 1.379 . S
C391 N389 1.356 . S
N392 C384 1.356 . S
N392 H398 0.984 . S
N392 H399 0.984 . S
N393 C386 1.356 . S
N393 H396 0.984 . S
N393 H397 0.985 . S
H394 N389 0.984 . S
H395 N389 0.985 . S
H396 N393 0.984 . S
H397 N393 0.985 . S
H398 N392 0.984 . S
H399 N392 0.984 . S
H400 N388 0.984 . S
H401 N388 0.985 . S
C402 C403 1.363 1_655 S
C402 C408 1.379 . S
C402 N410 1.356 . S
C403 C402 1.363 1_455 S
C403 C409 1.363 . S
C404 C405 1.363 1_455 S
C404 C409 1.379 . S
C404 N411 1.356 . S
C405 C404 1.363 1_655 S
C405 C408 1.363 . S
N406 C408 1.356 . S
N406 H418 0.984 . S
N406 H419 0.985 . S
N407 C409 1.356 . S
N407 H412 0.984 . S
N407 H413 0.985 . S
C408 C402 1.379 . S
C408 C405 1.363 . S
C408 N406 1.356 . S
C409 C403 1.363 . S
C409 C404 1.379 . S
C409 N407 1.356 . S
N410 C402 1.356 . S
N410 H416 0.984 . S
N410 H417 0.984 1_655 S
N411 C404 1.356 . S
N411 H414 0.984 1_455 S
N411 H415 0.985 . S
H412 N407 0.984 . S
H413 N407 0.985 . S
H414 N411 0.984 1_655 S
H415 N411 0.985 . S
H416 N410 0.984 . S
H417 N410 0.984 1_455 S
H418 N406 0.984 . S
H419 N406 0.985 . S
C420 C421 1.363 . S
C420 C426 1.379 . S
C420 N428 1.356 . S
C421 C420 1.363 . S
C421 C427 1.363 . S
C422 C423 1.363 . S
C422 C427 1.379 . S
C422 N429 1.356 . S
C423 C422 1.363 . S
C423 C426 1.363 . S
N424 C426 1.356 . S
N424 H436 0.984 . S
N424 H437 0.985 . S
N425 C427 1.356 . S
N425 H430 0.984 . S
N425 H431 0.985 . S
C426 C420 1.379 . S
C426 C423 1.363 . S
C426 N424 1.356 . S
C427 C421 1.363 . S
C427 C422 1.379 . S
C427 N425 1.356 . S
N428 C420 1.356 . S
N428 H434 0.984 . S
N428 H435 0.984 . S
N429 C422 1.356 . S
N429 H432 0.984 . S
N429 H433 0.985 . S
H430 N425 0.984 . S
H431 N425 0.985 . S
H432 N429 0.984 . S
H433 N429 0.985 . S
H434 N428 0.984 . S
H435 N428 0.984 . S
H436 N424 0.984 . S
H437 N424 0.985 . S
C438 C439 1.363 . S
C438 C444 1.379 . S
C438 N446 1.356 . S
C439 C438 1.363 . S
C439 C445 1.363 1_655 S
C440 C441 1.363 . S
C440 C445 1.379 . S
C440 N447 1.356 . S
C441 C440 1.363 . S
C441 C444 1.363 1_455 S
N442 C444 1.356 . S
N442 H454 0.984 . S
N442 H455 0.985 1_655 S
N443 C445 1.356 . S
N443 H448 0.984 1_455 S
N443 H449 0.985 . S
C444 C438 1.379 . S
C444 C441 1.363 1_655 S
C444 N442 1.356 . S
C445 C439 1.363 1_455 S
C445 C440 1.379 . S
C445 N443 1.356 . S
N446 C438 1.356 . S
N446 H452 0.984 . S
N446 H453 0.984 . S
N447 C440 1.356 . S
N447 H450 0.984 . S
N447 H451 0.985 . S
H448 N443 0.984 1_655 S
H449 N443 0.985 . S
H450 N447 0.984 . S
H451 N447 0.985 . S
H452 N446 0.984 . S
H453 N446 0.984 . S
H454 N442 0.984 . S
H455 N442 0.985 1_455 S
C456 C457 1.363 . S
C456 C462 1.379 . S
C456 N464 1.356 . S
C457 C456 1.363 . S
C457 C463 1.363 . S
C458 C459 1.363 . S
C458 C463 1.379 . S
C458 N465 1.356 . S
C459 C458 1.363 . S
C459 C462 1.363 . S
N460 C462 1.356 . S
N460 H472 0.984 . S
N460 H473 0.985 . S
N461 C463 1.356 . S
N461 H466 0.984 . S
N461 H467 0.985 . S
C462 C456 1.379 . S
C462 C459 1.363 . S
C462 N460 1.356 . S
C463 C457 1.363 . S
C463 C458 1.379 . S
C463 N461 1.356 . S
N464 C456 1.356 . S
N464 H470 0.984 . S
N464 H471 0.984 . S
N465 C458 1.356 . S
N465 H468 0.984 . S
N465 H469 0.985 . S
H466 N461 0.984 . S
H467 N461 0.985 . S
H468 N465 0.984 . S
H469 N465 0.985 . S
H470 N464 0.984 . S
H471 N464 0.984 . S
H472 N460 0.984 . S
H473 N460 0.985 . S
C474 C475 1.363 . S
C474 C480 1.379 1_556 S
C474 N482 1.356 . S
C475 C474 1.363 . S
C475 C481 1.363 . S
C476 C477 1.363 1_556 S
C476 C481 1.379 . S
C476 N483 1.356 . S
C477 C476 1.363 1_554 S
C477 C480 1.363 . S
N478 C480 1.356 . S
N478 H490 0.984 . S
N478 H491 0.985 . S
N479 C481 1.356 . S
N479 H484 0.984 . S
N479 H485 0.985 . S
C480 C474 1.379 1_554 S
C480 C477 1.363 . S
C480 N478 1.356 . S
C481 C475 1.363 . S
C481 C476 1.379 . S
C481 N479 1.356 . S
N482 C474 1.356 . S
N482 H488 0.984 1_556 S
N482 H489 0.984 . S
N483 C476 1.356 . S
N483 H486 0.984 1_556 S
N483 H487 0.985 . S
H484 N479 0.984 . S
H485 N479 0.985 . S
H486 N483 0.984 1_554 S
H487 N483 0.985 . S
H488 N482 0.984 1_554 S
H489 N482 0.984 . S
H490 N478 0.984 . S
H491 N478 0.985 . S
C492 C493 1.363 . S
C492 C498 1.379 . S
C492 N500 1.356 . S
C493 C492 1.363 . S
C493 C499 1.363 . S
C494 C495 1.363 . S
C494 C499 1.379 . S
C494 N501 1.356 . S
C495 C494 1.363 . S
C495 C498 1.363 . S
N496 C498 1.356 . S
N496 H508 0.984 . S
N496 H509 0.985 . S
N497 C499 1.356 . S
N497 H502 0.984 1_455 S
N497 H503 0.985 . S
C498 C492 1.379 . S
C498 C495 1.363 . S
C498 N496 1.356 . S
C499 C493 1.363 . S
C499 C494 1.379 . S
C499 N497 1.356 . S
N500 C492 1.356 . S
N500 H506 0.984 . S
N500 H507 0.984 . S
N501 C494 1.356 . S
N501 H504 0.984 . S
N501 H505 0.985 . S
H502 N497 0.984 1_655 S
H503 N497 0.985 . S
H504 N501 0.984 . S
H505 N501 0.985 . S
H506 N500 0.984 . S
H507 N500 0.984 . S
H508 N496 0.984 . S
H509 N496 0.985 . S
C510 C511 1.363 . S
C510 C516 1.379 . S
C510 N518 1.356 . S
C511 C510 1.363 . S
C511 C517 1.363 . S
C512 C513 1.363 1_554 S
C512 C517 1.379 . S
C512 N519 1.356 1_554 S
C513 C512 1.363 1_556 S
C513 C516 1.363 1_556 S
N514 C516 1.356 1_556 S
N514 H526 0.984 . S
N514 H527 0.985 . S
N515 C517 1.356 . S
N515 H520 0.984 . S
N515 H521 0.985 . S
C516 C510 1.379 . S
C516 C513 1.363 1_554 S
C516 N514 1.356 1_554 S
C517 C511 1.363 . S
C517 C512 1.379 . S
C517 N515 1.356 . S
N518 C510 1.356 . S
N518 H524 0.984 . S
N518 H525 0.984 . S
N519 C512 1.356 1_556 S
N519 H522 0.984 . S
N519 H523 0.985 . S
H520 N515 0.984 . S
H521 N515 0.985 . S
H522 N519 0.984 . S
H523 N519 0.985 . S
H524 N518 0.984 . S
H525 N518 0.984 . S
H526 N514 0.984 . S
H527 N514 0.985 . S
C528 C529 1.363 . S
C528 C534 1.379 . S
C528 N536 1.356 . S
C529 C528 1.363 . S
C529 C535 1.363 . S
C530 C531 1.363 . S
C530 C535 1.379 . S
C530 N537 1.356 . S
C531 C530 1.363 . S
C531 C534 1.363 . S
N532 C534 1.356 . S
N532 H544 0.984 . S
N532 H545 0.985 . S
N533 C535 1.356 . S
N533 H538 0.984 . S
N533 H539 0.985 . S
C534 C528 1.379 . S
C534 C531 1.363 . S
C534 N532 1.356 . S
C535 C529 1.363 . S
C535 C530 1.379 . S
C535 N533 1.356 . S
N536 C528 1.356 . S
N536 H542 0.984 . S
N536 H543 0.984 . S
N537 C530 1.356 . S
N537 H540 0.984 . S
N537 H541 0.985 . S
H538 N533 0.984 . S
H539 N533 0.985 . S
H540 N537 0.984 . S
H541 N537 0.985 . S
H542 N536 0.984 . S
H543 N536 0.984 . S
H544 N532 0.984 . S
H545 N532 0.985 . S
C546 C547 1.363 . S
C546 C552 1.379 . S
C546 N554 1.356 . S
C547 C546 1.363 . S
C547 C553 1.364 . S
C548 C549 1.363 . S
C548 C553 1.378 1_556 S
C548 N555 1.356 . S
C549 C548 1.363 . S
C549 C552 1.363 1_556 S
N550 C552 1.356 . S
N550 H562 0.984 . S
N550 H563 0.985 . S
N551 C553 1.356 1_556 S
N551 H556 0.984 1_456 S
N551 H557 0.985 1_455 S
C552 C546 1.379 . S
C552 C549 1.363 1_554 S
C552 N550 1.356 . S
C553 C547 1.364 . S
C553 C548 1.378 1_554 S
C553 N551 1.356 1_554 S
N554 C546 1.356 . S
N554 H560 0.984 . S
N554 H561 0.984 . S
N555 C548 1.356 . S
N555 H558 0.984 . S
N555 H559 0.985 . S
H556 N551 0.984 1_654 S
H557 N551 0.985 1_655 S
H558 N555 0.984 . S
H559 N555 0.985 . S
H560 N554 0.984 . S
H561 N554 0.984 . S
H562 N550 0.984 . S
H563 N550 0.985 . S
C564 C565 1.363 . S
C564 C570 1.379 . S
C564 N572 1.356 . S
C565 C564 1.363 . S
C565 C571 1.363 . S
C566 C567 1.363 . S
C566 C571 1.379 . S
C566 N573 1.356 . S
C567 C566 1.363 . S
C567 C570 1.363 . S
N568 C570 1.356 . S
N568 H580 0.984 . S
N568 H581 0.985 . S
N569 C571 1.356 . S
N569 H574 0.984 1_655 S
N569 H575 0.985 . S
C570 C564 1.379 . S
C570 C567 1.363 . S
C570 N568 1.356 . S
C571 C565 1.363 . S
C571 C566 1.379 . S
C571 N569 1.356 . S
N572 C564 1.356 . S
N572 H578 0.984 . S
N572 H579 0.984 . S
N573 C566 1.356 . S
N573 H576 0.984 . S
N573 H577 0.985 . S
H574 N569 0.984 1_455 S
H575 N569 0.985 . S
H576 N573 0.984 . S
H577 N573 0.985 . S
H578 N572 0.984 . S
H579 N572 0.984 . S
H580 N568 0.984 . S
H581 N568 0.985 . S
C582 C583 1.368 . S
C582 C588 1.362 1_554 S
C582 N590 1.372 . S
C583 C582 1.368 . S
C583 C589 1.363 1_554 S
C584 C585 1.363 . S
C584 C589 1.379 . S
C584 N591 1.356 . S
C585 C584 1.363 . S
C585 C588 1.363 . S
N586 C588 1.356 . S
N586 H598 0.984 . S
N586 H599 0.985 . S
N587 C589 1.356 1_554 S
N587 H592 0.984 . S
N587 H593 0.985 1_554 S
C588 C582 1.362 1_556 S
C588 C585 1.363 . S
C588 N586 1.356 . S
C589 C583 1.363 1_556 S
C589 C584 1.379 . S
C589 N587 1.356 1_556 S
N590 C582 1.372 . S
N590 H596 0.984 . S
N590 H597 0.984 . S
N591 C584 1.356 . S
N591 H594 0.984 . S
N591 H595 0.985 . S
H592 N587 0.984 . S
H593 N587 0.985 1_556 S
H594 N591 0.984 . S
H595 N591 0.985 . S
H596 N590 0.984 . S
H597 N590 0.984 . S
H598 N586 0.984 . S
H599 N586 0.985 . S
C169 C142 1.191 1_545 S
C171 C3 1.451 . S
C187 C37 1.451 . S
C189 C163 1.203 . S
C205 C100 1.203 . S
C207 C58 1.451 . S
C223 C79 1.451 . S
C225 C121 1.191 1_545 S
C241 C45 1.191 1_565 S
C243 C87 1.451 . S
C259 C108 1.451 . S
C261 C66 1.203 . S
C277 C16 1.203 . S
C279 C129 1.451 . S
C295 C24 1.191 1_565 S
C297 C150 1.451 . S
C313 C19 0.789 . S
C315 C103 0.789 . S
C331 C124 0.789 . S
C333 C41 0.789 . S
C349 C62 0.789 . S
C351 C145 0.789 . S
C367 C166 0.789 . S
C369 C83 0.789 . S
C385 C70 1.277 . S
C387 C4 1.277 . S
C403 C28 1.277 . S
C405 C49 1.277 . S
C421 C151 1.277 . S
C423 C88 1.277 . S
C439 C109 1.277 . S
C441 C130 1.277 . S
C457 C20 1.661 . S
C459 C46 1.568 . S
C475 C40 1.661 . S
C477 C67 1.568 . S
C493 C61 1.661 . S
C495 C7 1.568 . S
C511 C82 1.661 . S
C513 C25 1.568 . S
C529 C104 1.661 . S
C531 C133 1.568 . S
C547 C125 1.661 . S
C549 C154 1.568 . S
C565 C146 1.661 . S
C567 C91 1.568 . S
C583 C112 1.568 . S
C585 C167 1.661 . S
