# Generated by pormake.
# Topology uoy, (4)-cn, num edge types: 1
# Building blocks:
#     Node 0, Type 0, BuildingBlock: KUFVIS_clean_sbu_0, # of connection points: 4
#     Node 1, Type 0, BuildingBlock: KUFVIS_clean_sbu_0, # of connection points: 4
#     Node 2, Type 0, BuildingBlock: KUFVIS_clean_sbu_0, # of connection points: 4
#     Node 3, Type 0, BuildingBlock: KUFVIS_clean_sbu_0, # of connection points: 4
#     Node 4, Type 0, BuildingBlock: KUFVIS_clean_sbu_0, # of connection points: 4
#     Node 5, Type 0, BuildingBlock: KUFVIS_clean_sbu_0, # of connection points: 4
#     Node 6, Type 0, BuildingBlock: KUFVIS_clean_sbu_0, # of connection points: 4
#     Node 7, Type 0, BuildingBlock: KUFVIS_clean_sbu_0, # of connection points: 4
#     Node 8, Type 0, BuildingBlock: KUFVIS_clean_sbu_0, # of connection points: 4
#     Node 9, Type 0, BuildingBlock: KUFVIS_clean_sbu_0, # of connection points: 4
#     Node 10, Type 0, BuildingBlock: KUFVIS_clean_sbu_0, # of connection points: 4
#     Node 11, Type 0, BuildingBlock: KUFVIS_clean_sbu_0, # of connection points: 4
#     Node 12, Type 0, BuildingBlock: KUFVIS_clean_sbu_0, # of connection points: 4
#     Node 13, Type 0, BuildingBlock: KUFVIS_clean_sbu_0, # of connection points: 4
#     Node 14, Type 0, BuildingBlock: KUFVIS_clean_sbu_0, # of connection points: 4
#     Node 15, Type 0, BuildingBlock: KUFVIS_clean_sbu_0, # of connection points: 4
#     Edge 16, Type (0, 0), BuildingBlock: ZUJKAS_clean_linker_0, # of connection points: 2
#     Edge 17, Type (0, 0), BuildingBlock: ZUJKAS_clean_linker_0, # of connection points: 2
#     Edge 18, Type (0, 0), BuildingBlock: ZUJKAS_clean_linker_0, # of connection points: 2
#     Edge 19, Type (0, 0), BuildingBlock: ZUJKAS_clean_linker_0, # of connection points: 2
#     Edge 20, Type (0, 0), BuildingBlock: ZUJKAS_clean_linker_0, # of connection points: 2
#     Edge 21, Type (0, 0), BuildingBlock: ZUJKAS_clean_linker_0, # of connection points: 2
#     Edge 22, Type (0, 0), BuildingBlock: ZUJKAS_clean_linker_0, # of connection points: 2
#     Edge 23, Type (0, 0), BuildingBlock: ZUJKAS_clean_linker_0, # of connection points: 2
#     Edge 24, Type (0, 0), BuildingBlock: ZUJKAS_clean_linker_0, # of connection points: 2
#     Edge 25, Type (0, 0), BuildingBlock: ZUJKAS_clean_linker_0, # of connection points: 2
#     Edge 26, Type (0, 0), BuildingBlock: ZUJKAS_clean_linker_0, # of connection points: 2
#     Edge 27, Type (0, 0), BuildingBlock: ZUJKAS_clean_linker_0, # of connection points: 2
#     Edge 28, Type (0, 0), BuildingBlock: ZUJKAS_clean_linker_0, # of connection points: 2
#     Edge 29, Type (0, 0), BuildingBlock: ZUJKAS_clean_linker_0, # of connection points: 2
#     Edge 30, Type (0, 0), BuildingBlock: ZUJKAS_clean_linker_0, # of connection points: 2
#     Edge 31, Type (0, 0), BuildingBlock: ZUJKAS_clean_linker_0, # of connection points: 2
#     Edge 32, Type (0, 0), BuildingBlock: ZUJKAS_clean_linker_0, # of connection points: 2
#     Edge 33, Type (0, 0), BuildingBlock: ZUJKAS_clean_linker_0, # of connection points: 2
#     Edge 34, Type (0, 0), BuildingBlock: ZUJKAS_clean_linker_0, # of connection points: 2
#     Edge 35, Type (0, 0), BuildingBlock: ZUJKAS_clean_linker_0, # of connection points: 2
#     Edge 36, Type (0, 0), BuildingBlock: ZUJKAS_clean_linker_0, # of connection points: 2
#     Edge 37, Type (0, 0), BuildingBlock: ZUJKAS_clean_linker_0, # of connection points: 2
#     Edge 38, Type (0, 0), BuildingBlock: ZUJKAS_clean_linker_0, # of connection points: 2
#     Edge 39, Type (0, 0), BuildingBlock: ZUJKAS_clean_linker_0, # of connection points: 2
#     Edge 40, Type (0, 0), BuildingBlock: ZUJKAS_clean_linker_0, # of connection points: 2
#     Edge 41, Type (0, 0), BuildingBlock: ZUJKAS_clean_linker_0, # of connection points: 2
#     Edge 42, Type (0, 0), BuildingBlock: ZUJKAS_clean_linker_0, # of connection points: 2
#     Edge 43, Type (0, 0), BuildingBlock: ZUJKAS_clean_linker_0, # of connection points: 2
#     Edge 44, Type (0, 0), BuildingBlock: ZUJKAS_clean_linker_0, # of connection points: 2
#     Edge 45, Type (0, 0), BuildingBlock: ZUJKAS_clean_linker_0, # of connection points: 2
#     Edge 46, Type (0, 0), BuildingBlock: ZUJKAS_clean_linker_0, # of connection points: 2
#     Edge 47, Type (0, 0), BuildingBlock: ZUJKAS_clean_linker_0, # of connection points: 2
# Relax obj value: 0.051
# Max RMSD: 0.081
# Mean RMSD: 0.081
data_MOF--net-uoy--node1-KUFVIS_clean_sbu_0--edge1-ZUJKAS_clean_linker_0
_symmetry_space_group_name_H-M    P1
_symmetry_Int_Tables_number       1
_symmetry_cell_setting            triclinic
loop_
_symmetry_equiv_pos_as_xyz
'x, y, z'
_cell_length_a     35.797667
_cell_length_b     35.780114
_cell_length_c     136.7418
_cell_angle_alpha  89.979559
_cell_angle_beta   89.947352
_cell_angle_gamma 89.990338
loop_
_atom_site_label
_atom_site_type_symbol
_atom_site_fract_x
_atom_site_fract_y
_atom_site_fract_z
_atom_type_partial_charge
Mn0 Mn 0.26402 0.11142 0.18475 0.0
Mn1 Mn 0.20685 0.18039 0.19258 0.0
C2 C 0.26095 0.1253 0.20125 0.0
C3 C 0.32262 0.0913 0.17928 0.0
C4 C 0.17893 0.10401 0.1862 0.0
O5 O 0.2539 0.14112 0.17236 0.0
O6 O 0.21865 0.1879 0.17848 0.0
C7 C 0.2565 0.24613 0.19065 0.0
N8 N 0.23414 0.22403 0.19626 0.0
C9 C 0.24279 0.26387 0.21026 0.0
C10 C 0.26576 0.28718 0.20461 0.0
C11 C 0.27267 0.27823 0.19476 0.0
C12 C 0.22697 0.23258 0.20572 0.0
H13 H 0.26195 0.2393 0.18309 0.0
C14 C 0.23592 0.17175 0.17142 0.0
O15 O 0.29255 0.07234 0.17736 0.0
O16 O 0.31836 0.12248 0.18396 0.0
N17 N 0.19399 0.17656 0.20613 0.0
C18 C 0.17483 0.14896 0.21082 0.0
C19 C 0.16764 0.15226 0.22088 0.0
C20 C 0.18012 0.18392 0.22599 0.0
C21 C 0.1998 0.21196 0.22101 0.0
C22 C 0.20591 0.20726 0.21097 0.0
H23 H 0.16535 0.12449 0.20692 0.0
O24 O 0.2716 0.09251 0.1983 0.0
O25 O 0.25139 0.14886 0.19442 0.0
O26 O 0.21078 0.08949 0.18438 0.0
O27 O 0.17497 0.13755 0.18916 0.0
C28 C 0.21458 0.2438 0.22567 0.0
C29 C 0.23601 0.26978 0.22029 0.0
H30 H 0.27865 0.31171 0.20778 0.0
H31 H 0.29053 0.29597 0.19037 0.0
H32 H 0.15263 0.1304 0.22468 0.0
H33 H 0.17484 0.18618 0.23377 0.0
H34 H 0.2103 0.24819 0.23343 0.0
H35 H 0.24787 0.29374 0.224 0.0
Mn36 Mn 0.89381 0.75952 0.43504 0.0
Mn37 Mn 0.81916 0.70575 0.44039 0.0
C38 C 0.87388 0.75319 0.45107 0.0
C39 C 0.91852 0.81774 0.43069 0.0
C40 C 0.89571 0.67379 0.43576 0.0
O41 O 0.86852 0.75351 0.4218 0.0
O42 O 0.81855 0.71942 0.42634 0.0
C43 C 0.7595 0.76168 0.43712 0.0
N44 N 0.77691 0.73669 0.44309 0.0
C45 C 0.73107 0.74589 0.45573 0.0
C46 C 0.71255 0.77164 0.44971 0.0
C47 C 0.72697 0.77974 0.44039 0.0
C48 C 0.76365 0.72917 0.45213 0.0
H49 H 0.77026 0.76766 0.4299 0.0
C50 C 0.83782 0.73689 0.4199 0.0
O51 O 0.93672 0.78703 0.42894 0.0
O52 O 0.88591 0.81448 0.43471 0.0
N53 N 0.81578 0.69085 0.4538 0.0
C54 C 0.83826 0.66712 0.4589 0.0
C55 C 0.82855 0.65723 0.46852 0.0
C56 C 0.79549 0.67119 0.47269 0.0
C57 C 0.77267 0.69532 0.46725 0.0
C58 C 0.78413 0.70473 0.45778 0.0
H59 H 0.86336 0.65583 0.45566 0.0
O60 O 0.90794 0.76326 0.44915 0.0
O61 O 0.8526 0.74717 0.44356 0.0
O62 O 0.9124 0.70502 0.43451 0.0
O63 O 0.86107 0.67126 0.43791 0.0
C64 C 0.73898 0.71039 0.47084 0.0
C65 C 0.71846 0.73605 0.46514 0.0
H66 H 0.68729 0.78541 0.45218 0.0
H67 H 0.71288 0.79964 0.4357 0.0
H68 H 0.84631 0.63858 0.47266 0.0
H69 H 0.78795 0.66328 0.48008 0.0
H70 H 0.7289 0.70291 0.47805 0.0
H71 H 0.69308 0.74812 0.46809 0.0
Mn72 Mn 0.23928 0.40566 0.68474 0.0
Mn73 Mn 0.29202 0.33159 0.69127 0.0
C74 C 0.24211 0.38694 0.70091 0.0
C75 C 0.18181 0.42954 0.67949 0.0
C76 C 0.32469 0.40769 0.68633 0.0
O77 O 0.2483 0.37906 0.67177 0.0
O78 O 0.2801 0.32851 0.67711 0.0
C79 C 0.23615 0.27163 0.68836 0.0
N80 N 0.26028 0.29025 0.69432 0.0
C81 C 0.24526 0.25016 0.70789 0.0
C82 C 0.2204 0.23041 0.70189 0.0
C83 C 0.21575 0.24127 0.6921 0.0
C84 C 0.26478 0.28019 0.70377 0.0
H85 H 0.23247 0.27991 0.68083 0.0
C86 C 0.26437 0.34763 0.67033 0.0
O87 O 0.21263 0.44812 0.67821 0.0
O88 O 0.18465 0.39696 0.68356 0.0
N89 N 0.30503 0.33109 0.70484 0.0
C90 C 0.32893 0.354 0.70975 0.0
C91 C 0.33601 0.34746 0.71971 0.0
C92 C 0.31872 0.31729 0.72448 0.0
C93 C 0.29455 0.29386 0.71924 0.0
C94 C 0.28865 0.30168 0.70933 0.0
H95 H 0.34238 0.37717 0.70612 0.0
O96 O 0.23211 0.42077 0.69873 0.0
O97 O 0.25017 0.36541 0.69358 0.0
O98 O 0.29364 0.42452 0.68492 0.0
O99 O 0.32694 0.37301 0.6885 0.0
C100 C 0.27582 0.26327 0.72349 0.0
C101 C 0.2511 0.2415 0.71783 0.0
H102 H 0.20457 0.20702 0.70475 0.0
H103 H 0.1965 0.22627 0.68743 0.0
H104 H 0.35472 0.36565 0.7237 0.0
H105 H 0.32408 0.31246 0.73217 0.0
H106 H 0.27983 0.25654 0.73114 0.0
H107 H 0.23645 0.21839 0.72122 0.0
Mn108 Mn 0.60469 0.74138 0.93474 0.0
Mn109 Mn 0.67991 0.79148 0.94175 0.0
C110 C 0.62223 0.74294 0.951 0.0
C111 C 0.57945 0.68489 0.92922 0.0
C112 C 0.60505 0.82671 0.93671 0.0
O113 O 0.63218 0.75043 0.92189 0.0
O114 O 0.68329 0.78012 0.92757 0.0
C115 C 0.73818 0.73387 0.93876 0.0
N116 N 0.7202 0.75839 0.94476 0.0
C117 C 0.75991 0.74209 0.95829 0.0
C118 C 0.77898 0.71681 0.95225 0.0
C119 C 0.76799 0.71261 0.94245 0.0
C120 C 0.7304 0.76249 0.95421 0.0
H121 H 0.72981 0.73054 0.93123 0.0
C122 C 0.66424 0.76543 0.92064 0.0
O123 O 0.56193 0.71635 0.92794 0.0
O124 O 0.61187 0.68657 0.9334 0.0
N125 N 0.68041 0.80386 0.95537 0.0
C126 C 0.65802 0.82811 0.96034 0.0
C127 C 0.66478 0.83489 0.97029 0.0
C128 C 0.69467 0.81695 0.97501 0.0
C129 C 0.7175 0.79231 0.96973 0.0
C130 C 0.70949 0.78676 0.95981 0.0
H131 H 0.63513 0.84213 0.95674 0.0
O132 O 0.58834 0.73398 0.94862 0.0
O133 O 0.64464 0.7506 0.94382 0.0
O134 O 0.58746 0.79626 0.93506 0.0
O135 O 0.63963 0.82781 0.93903 0.0
C136 C 0.74769 0.77278 0.97393 0.0
C137 C 0.76872 0.74751 0.96823 0.0
H138 H 0.80195 0.70031 0.95507 0.0
H139 H 0.78247 0.69305 0.93775 0.0
H140 H 0.64702 0.85392 0.97432 0.0
H141 H 0.69973 0.82219 0.9827 0.0
H142 H 0.7548 0.77671 0.98155 0.0
H143 H 0.79149 0.73225 0.97158 0.0
Mn144 Mn 0.26622 0.4024 0.06201 0.0
Mn145 Mn 0.21569 0.32695 0.0554 0.0
C146 C 0.26519 0.38331 0.04588 0.0
C147 C 0.3226 0.4276 0.06757 0.0
C148 C 0.18105 0.40269 0.05982 0.0
O149 O 0.25614 0.37648 0.07501 0.0
O150 O 0.22629 0.32493 0.06966 0.0
C151 C 0.27259 0.26847 0.05895 0.0
N152 N 0.24852 0.28605 0.05277 0.0
C153 C 0.26537 0.24509 0.03953 0.0
C154 C 0.29018 0.2264 0.04577 0.0
C155 C 0.29387 0.23822 0.05552 0.0
C156 C 0.24489 0.27504 0.04336 0.0
H157 H 0.27555 0.27751 0.06645 0.0
C158 C 0.2407 0.34478 0.07649 0.0
O159 O 0.2913 0.4456 0.0686 0.0
O160 O 0.32083 0.39477 0.0636 0.0
N161 N 0.2039 0.32516 0.04176 0.0
C162 C 0.18003 0.34723 0.03658 0.0
C163 C 0.17377 0.33963 0.02664 0.0
C164 C 0.19184 0.30926 0.02216 0.0
C165 C 0.21606 0.28677 0.02766 0.0
C166 C 0.22106 0.29559 0.03755 0.0
H167 H 0.16596 0.37052 0.03999 0.0
O168 O 0.27447 0.41731 0.04808 0.0
O169 O 0.25701 0.36161 0.05318 0.0
O170 O 0.21162 0.42014 0.0614 0.0
O171 O 0.17965 0.36788 0.05774 0.0
C172 C 0.23574 0.25619 0.0237 0.0
C173 C 0.26053 0.2355 0.02961 0.0
H174 H 0.30672 0.20312 0.04314 0.0
H175 H 0.31308 0.22404 0.06037 0.0
H176 H 0.15506 0.35713 0.02244 0.0
H177 H 0.18701 0.30358 0.01448 0.0
H178 H 0.2323 0.24853 0.01609 0.0
H179 H 0.2759 0.2124 0.02645 0.0
Mn180 Mn 0.60509 0.76262 0.31134 0.0
Mn181 Mn 0.68067 0.71448 0.30373 0.0
C182 C 0.62155 0.76232 0.29496 0.0
C183 C 0.57942 0.81833 0.31727 0.0
C184 C 0.60732 0.67745 0.30944 0.0
O185 O 0.63404 0.75351 0.32395 0.0
O186 O 0.68602 0.72656 0.31781 0.0
C187 C 0.73838 0.77315 0.30588 0.0
N188 N 0.71969 0.74828 0.30015 0.0
C189 C 0.75676 0.76477 0.28612 0.0
C190 C 0.77653 0.79043 0.29187 0.0
C191 C 0.7672 0.79473 0.30179 0.0
C192 C 0.72823 0.74415 0.29058 0.0
H193 H 0.73133 0.77649 0.31351 0.0
C194 C 0.66701 0.74025 0.32491 0.0
O195 O 0.56254 0.78651 0.31852 0.0
O196 O 0.61139 0.81749 0.31284 0.0
N197 N 0.67896 0.70177 0.29014 0.0
C198 C 0.65602 0.67714 0.28548 0.0
C199 C 0.66089 0.6705 0.27544 0.0
C200 C 0.68948 0.68895 0.27031 0.0
C201 C 0.71294 0.71391 0.27528 0.0
C202 C 0.70675 0.71942 0.28529 0.0
H203 H 0.6341 0.66276 0.28939 0.0
O204 O 0.58763 0.77047 0.29755 0.0
O205 O 0.64438 0.75456 0.30202 0.0
O206 O 0.58888 0.70748 0.31098 0.0
O207 O 0.64182 0.67723 0.30702 0.0
C208 C 0.74204 0.73375 0.27068 0.0
C209 C 0.76395 0.75915 0.27609 0.0
H210 H 0.79877 0.80714 0.28875 0.0
H211 H 0.78223 0.81458 0.30628 0.0
H212 H 0.64267 0.65119 0.27166 0.0
H213 H 0.69306 0.68386 0.26256 0.0
H214 H 0.74753 0.73005 0.26294 0.0
H215 H 0.78593 0.7746 0.27244 0.0
Mn216 Mn 0.24997 0.11009 0.56174 0.0
Mn217 Mn 0.30404 0.18428 0.55612 0.0
C218 C 0.25474 0.1302 0.5457 0.0
C219 C 0.19218 0.08572 0.56657 0.0
C220 C 0.3355 0.10739 0.56069 0.0
O221 O 0.25755 0.1354 0.57493 0.0
O222 O 0.29064 0.18595 0.57021 0.0
C223 C 0.24859 0.24459 0.55913 0.0
N224 N 0.27327 0.22648 0.55321 0.0
C225 C 0.26129 0.26919 0.53999 0.0
C226 C 0.23588 0.28844 0.54596 0.0
C227 C 0.22942 0.276 0.55556 0.0
C228 C 0.27952 0.23805 0.54395 0.0
H229 H 0.24355 0.23513 0.56652 0.0
C230 C 0.27379 0.16643 0.57672 0.0
O231 O 0.22298 0.06718 0.5679 0.0
O232 O 0.19513 0.11855 0.56264 0.0
N233 N 0.31856 0.18628 0.54266 0.0
C234 C 0.34241 0.16341 0.53771 0.0
C235 C 0.35148 0.17162 0.52795 0.0
C236 C 0.33617 0.20334 0.52342 0.0
C237 C 0.31153 0.22636 0.52866 0.0
C238 C 0.30371 0.2169 0.53838 0.0
H239 H 0.35452 0.13917 0.54118 0.0
O240 O 0.24442 0.09623 0.54765 0.0
O241 O 0.26197 0.15122 0.5532 0.0
O242 O 0.30416 0.09086 0.56183 0.0
O243 O 0.3383 0.14222 0.55876 0.0
C244 C 0.29422 0.25817 0.5246 0.0
C245 C 0.26893 0.27941 0.53024 0.0
H246 H 0.221 0.31265 0.54322 0.0
H247 H 0.20974 0.29062 0.5602 0.0
H248 H 0.37038 0.15365 0.52394 0.0
H249 H 0.34344 0.20966 0.51591 0.0
H250 H 0.29985 0.26634 0.51712 0.0
H251 H 0.25537 0.30345 0.52699 0.0
Mn252 Mn 0.90226 0.7385 0.8124 0.0
Mn253 Mn 0.82826 0.78981 0.80512 0.0
C254 C 0.88598 0.74083 0.79605 0.0
C255 C 0.92592 0.68121 0.81788 0.0
C256 C 0.90321 0.82388 0.81061 0.0
O257 O 0.87399 0.74754 0.82512 0.0
O258 O 0.82373 0.7782 0.81927 0.0
C259 C 0.76908 0.7329 0.80775 0.0
N260 N 0.78777 0.75731 0.80188 0.0
C261 C 0.74884 0.74179 0.78813 0.0
C262 C 0.72903 0.71663 0.79405 0.0
C263 C 0.73928 0.71209 0.80389 0.0
C264 C 0.7783 0.76172 0.79238 0.0
H265 H 0.77687 0.7293 0.81532 0.0
C266 C 0.84212 0.76303 0.82627 0.0
O267 O 0.94399 0.71221 0.81937 0.0
O268 O 0.89393 0.68387 0.81353 0.0
N269 N 0.82886 0.80249 0.79152 0.0
C270 C 0.85191 0.82654 0.78669 0.0
C271 C 0.84595 0.83359 0.77671 0.0
C272 C 0.81618 0.81614 0.77183 0.0
C273 C 0.79266 0.7917 0.77697 0.0
C274 C 0.79991 0.78584 0.78691 0.0
H275 H 0.87471 0.84019 0.79042 0.0
O276 O 0.91956 0.73133 0.79859 0.0
O277 O 0.86317 0.7486 0.80315 0.0
O278 O 0.92032 0.79316 0.8123 0.0
O279 O 0.86885 0.82547 0.80809 0.0
C280 C 0.76251 0.77267 0.7726 0.0
C281 C 0.74078 0.74755 0.77816 0.0
H282 H 0.70607 0.70049 0.7911 0.0
H283 H 0.72423 0.69261 0.8085 0.0
H284 H 0.86423 0.85246 0.77279 0.0
H285 H 0.81174 0.82159 0.76413 0.0
H286 H 0.75596 0.77688 0.76495 0.0
H287 H 0.71805 0.73266 0.77468 0.0
Mn288 Mn 0.75767 0.61421 0.6855 0.0
Mn289 Mn 0.7044 0.68909 0.69103 0.0
C290 C 0.75339 0.63506 0.70151 0.0
C291 C 0.81523 0.58912 0.68069 0.0
C292 C 0.67217 0.61213 0.68695 0.0
O293 O 0.74974 0.63867 0.6722 0.0
O294 O 0.71679 0.68918 0.6769 0.0
C295 C 0.75975 0.74881 0.68719 0.0
N296 N 0.73539 0.73158 0.69338 0.0
C297 C 0.74539 0.77816 0.70577 0.0
C298 C 0.7705 0.79651 0.69953 0.0
C299 C 0.77789 0.78161 0.69022 0.0
C300 C 0.72858 0.74529 0.7024 0.0
H301 H 0.76517 0.73769 0.67998 0.0
C302 C 0.73331 0.66957 0.67037 0.0
O303 O 0.78428 0.57073 0.67948 0.0
O304 O 0.81254 0.62221 0.68448 0.0
N305 N 0.69077 0.69299 0.70452 0.0
C306 C 0.66764 0.67066 0.70985 0.0
C307 C 0.65851 0.68084 0.71948 0.0
C308 C 0.6726 0.71423 0.72344 0.0
C309 C 0.6961 0.7369 0.71776 0.0
C310 C 0.70478 0.72496 0.70829 0.0
H311 H 0.65623 0.64531 0.70678 0.0
O312 O 0.76346 0.60098 0.69963 0.0
O313 O 0.74634 0.65597 0.69397 0.0
O314 O 0.70329 0.5954 0.6856 0.0
O315 O 0.66978 0.64695 0.68891 0.0
C316 C 0.71124 0.77089 0.72112 0.0
C317 C 0.73628 0.79124 0.71519 0.0
H318 H 0.78432 0.82198 0.70181 0.0
H319 H 0.79728 0.79556 0.68536 0.0
H320 H 0.64036 0.66319 0.72382 0.0
H321 H 0.66528 0.72213 0.73084 0.0
H322 H 0.70428 0.78137 0.72833 0.0
H323 H 0.74842 0.81687 0.71795 0.0
Mn324 Mn 0.39678 0.26005 0.93546 0.0
Mn325 Mn 0.32285 0.2045 0.9403 0.0
C326 C 0.3747 0.25432 0.9513 0.0
C327 C 0.42067 0.31842 0.93091 0.0
C328 C 0.40094 0.1744 0.9368 0.0
O329 O 0.37391 0.25233 0.922 0.0
O330 O 0.32462 0.21652 0.92615 0.0
C331 C 0.2627 0.25864 0.93582 0.0
N332 N 0.27941 0.23465 0.94219 0.0
C333 C 0.23121 0.24452 0.95418 0.0
C334 C 0.21336 0.26921 0.94773 0.0
C335 C 0.22931 0.27646 0.93853 0.0
C336 C 0.26464 0.22794 0.95111 0.0
H337 H 0.2747 0.26403 0.92871 0.0
C338 C 0.34436 0.2342 0.91985 0.0
O339 O 0.44007 0.28803 0.92977 0.0
O340 O 0.38743 0.31472 0.93455 0.0
N341 N 0.31712 0.19087 0.95375 0.0
C342 C 0.33892 0.16799 0.9593 0.0
C343 C 0.32757 0.15893 0.96884 0.0
C344 C 0.2936 0.17282 0.97249 0.0
C345 C 0.27146 0.19601 0.9666 0.0
C346 C 0.28448 0.20454 0.95721 0.0
H347 H 0.36476 0.15679 0.95646 0.0
O348 O 0.40864 0.26541 0.94965 0.0
O349 O 0.35454 0.24722 0.94362 0.0
O350 O 0.41684 0.20601 0.93547 0.0
O351 O 0.36611 0.17099 0.93864 0.0
C352 C 0.237 0.21104 0.96966 0.0
C353 C 0.21713 0.23566 0.96351 0.0
H354 H 0.18748 0.28282 0.94977 0.0
H355 H 0.21577 0.29556 0.93352 0.0
H356 H 0.3448 0.141 0.97334 0.0
H357 H 0.28483 0.16559 0.97984 0.0
H358 H 0.22572 0.20422 0.9768 0.0
H359 H 0.19108 0.24766 0.96605 0.0
Mn360 Mn 0.7456 0.90182 0.18475 0.0
Mn361 Mn 0.79772 0.82699 0.19103 0.0
C362 C 0.75142 0.88473 0.20101 0.0
C363 C 0.68785 0.92702 0.18019 0.0
C364 C 0.8313 0.90157 0.18512 0.0
O365 O 0.75077 0.87353 0.17189 0.0
O366 O 0.78306 0.82313 0.17709 0.0
C367 C 0.74001 0.76815 0.18921 0.0
N368 N 0.76586 0.78651 0.1947 0.0
C369 C 0.75388 0.74675 0.20855 0.0
C370 C 0.72725 0.72729 0.20303 0.0
C371 C 0.72021 0.73812 0.19332 0.0
C372 C 0.77269 0.77647 0.20406 0.0
H373 H 0.73454 0.77639 0.18175 0.0
C374 C 0.76619 0.84182 0.17042 0.0
O375 O 0.7189 0.94412 0.17813 0.0
O376 O 0.69051 0.89509 0.18461 0.0
N377 N 0.81344 0.82711 0.20439 0.0
C378 C 0.83852 0.85005 0.20887 0.0
C379 C 0.84843 0.84331 0.21864 0.0
C380 C 0.83265 0.81296 0.22368 0.0
C381 C 0.80665 0.78991 0.21894 0.0
C382 C 0.79809 0.79782 0.20917 0.0
H383 H 0.85102 0.8732 0.205 0.0
O384 O 0.74226 0.91869 0.19869 0.0
O385 O 0.75722 0.86214 0.19375 0.0
O386 O 0.80048 0.91903 0.18391 0.0
O387 O 0.83303 0.8672 0.1876 0.0
C388 C 0.78872 0.75954 0.22354 0.0
C389 C 0.76217 0.73814 0.21837 0.0
H390 H 0.71188 0.70415 0.20618 0.0
H391 H 0.69959 0.72333 0.18902 0.0
H392 H 0.86836 0.86133 0.22226 0.0
H393 H 0.84059 0.80775 0.23119 0.0
H394 H 0.79481 0.75265 0.23108 0.0
H395 H 0.74815 0.71524 0.22203 0.0
Mn396 Mn 0.10354 0.24111 0.43542 0.0
Mn397 Mn 0.17646 0.29514 0.44207 0.0
C398 C 0.12076 0.24564 0.45168 0.0
C399 C 0.08043 0.18293 0.43049 0.0
C400 C 0.10062 0.32679 0.43661 0.0
O401 O 0.13124 0.24898 0.42256 0.0
O402 O 0.18018 0.28306 0.42792 0.0
C403 C 0.23696 0.23964 0.43939 0.0
N404 N 0.21793 0.2638 0.44526 0.0
C405 C 0.2577 0.24956 0.45894 0.0
C406 C 0.27786 0.22467 0.45303 0.0
C407 C 0.26735 0.21961 0.44322 0.0
C408 C 0.22763 0.26867 0.45473 0.0
H409 H 0.22895 0.23566 0.43185 0.0
C410 C 0.16199 0.2663 0.42114 0.0
O411 O 0.0621 0.21353 0.42869 0.0
O412 O 0.1124 0.18637 0.43482 0.0
N413 N 0.17638 0.30854 0.45562 0.0
C414 C 0.15312 0.33242 0.46043 0.0
C415 C 0.15927 0.3399 0.47038 0.0
C416 C 0.18943 0.32302 0.47525 0.0
C417 C 0.21322 0.29887 0.47011 0.0
C418 C 0.20576 0.29254 0.46019 0.0
H419 H 0.12996 0.34556 0.45672 0.0
O420 O 0.08713 0.23542 0.44936 0.0
O421 O 0.14287 0.25313 0.44442 0.0
O422 O 0.08445 0.29547 0.43505 0.0
O423 O 0.13486 0.32954 0.43915 0.0
C424 C 0.24387 0.2806 0.47444 0.0
C425 C 0.26601 0.25584 0.46888 0.0
H426 H 0.30129 0.20914 0.45596 0.0
H427 H 0.28267 0.20034 0.43862 0.0
H428 H 0.14079 0.35859 0.4743 0.0
H429 H 0.19397 0.3287 0.48293 0.0
H430 H 0.25036 0.28498 0.48209 0.0
H431 H 0.28916 0.24152 0.47234 0.0
Mn432 Mn 0.76926 0.90354 0.56187 0.0
Mn433 Mn 0.71817 0.82972 0.55436 0.0
C434 C 0.76807 0.88716 0.54552 0.0
C435 C 0.82599 0.92713 0.56767 0.0
C436 C 0.68408 0.90481 0.55978 0.0
O437 O 0.75917 0.87527 0.57455 0.0
O438 O 0.72918 0.82492 0.56852 0.0
C439 C 0.77467 0.77019 0.55707 0.0
N440 N 0.75059 0.78909 0.55115 0.0
C441 C 0.76622 0.75002 0.53743 0.0
C442 C 0.79104 0.73 0.54338 0.0
C443 C 0.79536 0.74022 0.55324 0.0
C444 C 0.74641 0.77967 0.54165 0.0
H445 H 0.77808 0.77794 0.56465 0.0
C446 C 0.74385 0.84324 0.57559 0.0
O447 O 0.79492 0.94533 0.56894 0.0
O448 O 0.82378 0.89507 0.56332 0.0
N449 N 0.70611 0.8306 0.54073 0.0
C450 C 0.68242 0.85389 0.53586 0.0
C451 C 0.67563 0.84798 0.52586 0.0
C452 C 0.69294 0.81802 0.52101 0.0
C453 C 0.71702 0.79428 0.52619 0.0
C454 C 0.72266 0.8015 0.53614 0.0
H455 H 0.66885 0.8768 0.53957 0.0
O456 O 0.77756 0.92072 0.54809 0.0
O457 O 0.75967 0.86443 0.55257 0.0
O458 O 0.71477 0.92184 0.56152 0.0
O459 O 0.68248 0.8704 0.55729 0.0
C460 C 0.73587 0.76391 0.52185 0.0
C461 C 0.76066 0.74198 0.52745 0.0
H462 H 0.80707 0.70689 0.54046 0.0
H463 H 0.81457 0.725 0.55787 0.0
H464 H 0.65704 0.86644 0.52191 0.0
H465 H 0.68765 0.8136 0.5133 0.0
H466 H 0.73178 0.75734 0.5142 0.0
H467 H 0.77543 0.71909 0.52399 0.0
Mn468 Mn 0.11006 0.25736 0.81112 0.0
Mn469 Mn 0.18296 0.20238 0.80498 0.0
C470 C 0.128 0.25174 0.79492 0.0
C471 C 0.08725 0.31583 0.81595 0.0
C472 C 0.10649 0.17179 0.81036 0.0
O473 O 0.13694 0.24995 0.82409 0.0
O474 O 0.18652 0.21618 0.81901 0.0
C475 C 0.24403 0.25744 0.80732 0.0
N476 N 0.22499 0.2327 0.80163 0.0
C477 C 0.26609 0.24388 0.78801 0.0
C478 C 0.28627 0.26933 0.79373 0.0
C479 C 0.2751 0.27623 0.80342 0.0
C480 C 0.23534 0.22603 0.79228 0.0
H481 H 0.23553 0.2628 0.81477 0.0
C482 C 0.16797 0.23339 0.82565 0.0
O483 O 0.06844 0.28541 0.8176 0.0
O484 O 0.11941 0.31206 0.81171 0.0
N485 N 0.18313 0.18741 0.79156 0.0
C486 C 0.15943 0.16364 0.78687 0.0
C487 C 0.16628 0.15424 0.77706 0.0
C488 C 0.19753 0.16913 0.77222 0.0
C489 C 0.22143 0.19367 0.77719 0.0
C490 C 0.2133 0.20185 0.78697 0.0
H491 H 0.13554 0.15187 0.79058 0.0
O492 O 0.09442 0.2625 0.79714 0.0
O493 O 0.14985 0.24455 0.80225 0.0
O494 O 0.09032 0.20331 0.81157 0.0
O495 O 0.14099 0.16863 0.8081 0.0
C496 C 0.25285 0.21055 0.77281 0.0
C497 C 0.275 0.23583 0.77819 0.0
H498 H 0.31022 0.28392 0.79075 0.0
H499 H 0.29044 0.29595 0.80787 0.0
H500 H 0.14763 0.13541 0.77326 0.0
H501 H 0.20278 0.16161 0.76467 0.0
H502 H 0.26001 0.20462 0.76527 0.0
H503 H 0.29872 0.24908 0.7747 0.0
Mn504 Mn 0.74746 0.61004 0.06098 0.0
Mn505 Mn 0.80273 0.68433 0.05633 0.0
C506 C 0.75351 0.63243 0.04518 0.0
C507 C 0.68906 0.58602 0.06538 0.0
C508 C 0.83304 0.6063 0.05989 0.0
O509 O 0.75465 0.63284 0.07446 0.0
O510 O 0.78984 0.68276 0.07044 0.0
C511 C 0.74824 0.74448 0.06054 0.0
N512 N 0.77256 0.72765 0.05427 0.0
C513 C 0.763 0.77544 0.04215 0.0
C514 C 0.73797 0.7934 0.04849 0.0
C515 C 0.7304 0.77772 0.05771 0.0
C516 C 0.7796 0.74217 0.04534 0.0
H517 H 0.74259 0.73269 0.06766 0.0
C518 C 0.77212 0.66275 0.07667 0.0
O519 O 0.7194 0.56659 0.06656 0.0
O520 O 0.69282 0.61933 0.06179 0.0
N521 N 0.817 0.68977 0.04292 0.0
C522 C 0.84008 0.6678 0.03746 0.0
C523 C 0.8494 0.67882 0.02791 0.0
C524 C 0.8355 0.71262 0.02414 0.0
C525 C 0.81208 0.73492 0.02994 0.0
C526 C 0.80332 0.72222 0.03934 0.0
H527 H 0.85125 0.64207 0.04038 0.0
O528 O 0.74255 0.59839 0.04676 0.0
O529 O 0.76035 0.65244 0.05291 0.0
O530 O 0.80149 0.59012 0.06103 0.0
O531 O 0.83632 0.64123 0.05817 0.0
C532 C 0.79704 0.76922 0.02676 0.0
C533 C 0.77214 0.78922 0.0328 0.0
H534 H 0.72432 0.81916 0.04636 0.0
H535 H 0.71104 0.79135 0.06263 0.0
H536 H 0.86749 0.66146 0.02348 0.0
H537 H 0.84291 0.72112 0.01679 0.0
H538 H 0.80404 0.78024 0.01961 0.0
H539 H 0.76012 0.81514 0.03018 0.0
Mn540 Mn 0.40152 0.24189 0.31338 0.0
Mn541 Mn 0.33137 0.29845 0.30601 0.0
C542 C 0.38458 0.24281 0.29708 0.0
C543 C 0.42205 0.18405 0.3193 0.0
C544 C 0.40906 0.32669 0.31109 0.0
O545 O 0.37447 0.25406 0.32605 0.0
O546 O 0.32629 0.28826 0.32028 0.0
C547 C 0.26593 0.24926 0.30908 0.0
N548 N 0.28703 0.27102 0.30306 0.0
C549 C 0.2446 0.26138 0.28965 0.0
C550 C 0.22228 0.23905 0.29573 0.0
C551 C 0.23304 0.23292 0.30548 0.0
C552 C 0.27677 0.27741 0.29368 0.0
H553 H 0.27415 0.24443 0.31657 0.0
C554 C 0.34392 0.27193 0.32724 0.0
O555 O 0.44192 0.21414 0.32042 0.0
O556 O 0.38994 0.18789 0.31505 0.0
N557 N 0.33283 0.30992 0.29235 0.0
C558 C 0.35962 0.32848 0.28719 0.0
C559 C 0.35447 0.33482 0.27715 0.0
C560 C 0.32182 0.32215 0.27253 0.0
C561 C 0.29463 0.30313 0.27799 0.0
C562 C 0.30118 0.29784 0.28799 0.0
H563 H 0.38484 0.33813 0.29071 0.0
O564 O 0.41768 0.232 0.29973 0.0
O565 O 0.36229 0.25345 0.3041 0.0
O566 O 0.42398 0.29497 0.31285 0.0
O567 O 0.37489 0.33042 0.30867 0.0
C568 C 0.26187 0.28817 0.27384 0.0
C569 C 0.23684 0.26736 0.27967 0.0
H570 H 0.19712 0.22603 0.29295 0.0
H571 H 0.21607 0.21554 0.3102 0.0
H572 H 0.37568 0.34934 0.27297 0.0
H573 H 0.31812 0.32677 0.26476 0.0
H574 H 0.25605 0.29182 0.26612 0.0
H575 H 0.21216 0.25534 0.27635 0.0
H576 H 0.21208 0.27766 0.08243 0.0
H577 H 0.21114 0.2516 0.09887 0.0
H578 H 0.26602 0.35013 0.10993 0.0
H579 H 0.26755 0.3766 0.0934 0.0
H580 H 0.29734 0.28258 0.11658 0.0
H581 H 0.14359 0.28395 0.12155 0.0
H582 H 0.15842 0.26111 0.11052 0.0
H583 H 0.16675 0.31033 0.11206 0.0
C584 C 0.22381 0.29406 0.08833 0.0
C585 C 0.2397 0.32944 0.08657 0.0
C586 C 0.22306 0.2791 0.09775 0.0
C587 C 0.23793 0.2992 0.10563 0.0
C588 C 0.25415 0.33431 0.10393 0.0
H589 H 0.20489 0.23928 0.16663 0.0
H590 H 0.20659 0.27113 0.15086 0.0
C591 C 0.25494 0.34939 0.09449 0.0
C592 C 0.23732 0.28288 0.11558 0.0
H593 H 0.17864 0.24812 0.13304 0.0
C594 C 0.27142 0.27529 0.12023 0.0
C595 C 0.20343 0.27378 0.12034 0.0
C596 C 0.16595 0.28302 0.11592 0.0
C597 C 0.27255 0.25787 0.12942 0.0
C598 C 0.23868 0.2473 0.13399 0.0
C599 C 0.20458 0.25584 0.12946 0.0
C600 C 0.23794 0.22769 0.14353 0.0
C601 C 0.30995 0.25123 0.1342 0.0
C602 C 0.25453 0.19238 0.1446 0.0
C603 C 0.25365 0.17399 0.15362 0.0
C604 C 0.2359 0.19049 0.16173 0.0
C605 C 0.21879 0.22565 0.16056 0.0
C606 C 0.21975 0.24398 0.15155 0.0
H607 H 0.33198 0.2695 0.13105 0.0
H608 H 0.30844 0.25623 0.1422 0.0
H609 H 0.31844 0.22175 0.133 0.0
H610 H 0.268 0.17895 0.13844 0.0
H611 H 0.26696 0.1469 0.15423 0.0
H612 H 0.77441 0.70349 0.4131 0.0
H613 H 0.74834 0.70626 0.39671 0.0
H614 H 0.83981 0.776 0.38733 0.0
H615 H 0.86636 0.77374 0.40386 0.0
H616 H 0.76643 0.80121 0.38152 0.0
H617 H 0.79117 0.65206 0.37249 0.0
H618 H 0.7675 0.65928 0.38392 0.0
H619 H 0.8147 0.67545 0.38243 0.0
C620 C 0.78927 0.71934 0.40759 0.0
C621 C 0.82273 0.7382 0.40982 0.0
C622 C 0.77429 0.72077 0.3982 0.0
C623 C 0.79243 0.74089 0.39081 0.0
C624 C 0.82556 0.76014 0.39296 0.0
H625 H 0.73876 0.72086 0.32941 0.0
H626 H 0.76945 0.72351 0.34525 0.0
C627 C 0.84072 0.7587 0.40239 0.0
C628 C 0.77625 0.7419 0.38087 0.0
H629 H 0.7504 0.68563 0.36193 0.0
C630 C 0.76315 0.77606 0.37718 0.0
C631 C 0.77234 0.70905 0.37523 0.0
C632 C 0.78746 0.67191 0.37866 0.0
C633 C 0.74531 0.77805 0.36805 0.0
C634 C 0.7401 0.7449 0.36259 0.0
C635 C 0.75404 0.71093 0.36619 0.0
C636 C 0.72117 0.74475 0.35297 0.0
C637 C 0.73258 0.81559 0.36429 0.0
C638 C 0.68363 0.75558 0.35207 0.0
C639 C 0.6658 0.75415 0.34297 0.0
C640 C 0.68519 0.74154 0.33465 0.0
C641 C 0.72279 0.73057 0.33564 0.0
C642 C 0.74051 0.73213 0.3447 0.0
H643 H 0.74683 0.83895 0.36812 0.0
H644 H 0.73787 0.8182 0.35632 0.0
H645 H 0.70208 0.8185 0.36555 0.0
H646 H 0.66799 0.76469 0.35842 0.0
H647 H 0.63684 0.76272 0.34248 0.0
H648 H 0.22162 0.15197 0.59091 0.0
H649 H 0.21494 0.18343 0.60674 0.0
H650 H 0.31493 0.24704 0.60095 0.0
H651 H 0.32102 0.21682 0.58506 0.0
H652 H 0.25717 0.18715 0.62258 0.0
H653 H 0.24341 0.3295 0.60734 0.0
H654 H 0.24162 0.28826 0.59977 0.0
H655 H 0.28592 0.30785 0.60336 0.0
C656 C 0.24226 0.17253 0.59305 0.0
C657 C 0.27163 0.18219 0.5867 0.0
C658 C 0.23834 0.19058 0.60207 0.0
C659 C 0.26382 0.2184 0.60491 0.0
C660 C 0.29415 0.22669 0.59877 0.0
H661 H 0.31187 0.2954 0.6629 0.0
H662 H 0.3088 0.26467 0.64703 0.0
C663 C 0.29779 0.20912 0.58972 0.0
C664 C 0.25925 0.23841 0.61434 0.0
H665 H 0.25816 0.32564 0.62446 0.0
C666 C 0.25697 0.21743 0.62299 0.0
C667 C 0.25801 0.27794 0.61486 0.0
C668 C 0.25694 0.30215 0.60582 0.0
C669 C 0.25518 0.23488 0.63216 0.0
C670 C 0.25696 0.27438 0.63272 0.0
C671 C 0.25751 0.29537 0.62405 0.0
C672 C 0.25943 0.29435 0.6422 0.0
C673 C 0.25115 0.21072 0.64115 0.0
C674 C 0.23392 0.32279 0.64458 0.0
C675 C 0.23612 0.34112 0.6536 0.0
C676 C 0.26377 0.33111 0.66042 0.0
C677 C 0.2899 0.3034 0.65788 0.0
C678 C 0.28799 0.28554 0.64883 0.0
H679 H 0.23749 0.18367 0.63939 0.0
H680 H 0.27928 0.2044 0.64413 0.0
H681 H 0.23455 0.22496 0.64692 0.0
H682 H 0.21188 0.33034 0.63952 0.0
H683 H 0.21554 0.36229 0.65535 0.0
H684 H 0.77374 0.7909 0.83136 0.0
H685 H 0.74414 0.79038 0.84738 0.0
H686 H 0.8402 0.7347 0.85958 0.0
H687 H 0.87027 0.73464 0.84346 0.0
H688 H 0.77023 0.70328 0.86515 0.0
H689 H 0.77354 0.85696 0.87062 0.0
H690 H 0.75285 0.84263 0.85927 0.0
H691 H 0.80154 0.83368 0.86148 0.0
C692 C 0.78885 0.77865 0.83742 0.0
C693 C 0.82463 0.76304 0.83611 0.0
C694 C 0.77182 0.77852 0.8466 0.0
C695 C 0.79021 0.76302 0.85467 0.0
C696 C 0.82568 0.74698 0.85342 0.0
H697 H 0.73212 0.79366 0.91528 0.0
H698 H 0.76171 0.79152 0.89927 0.0
C699 C 0.84283 0.74707 0.84421 0.0
C700 C 0.77204 0.76335 0.86439 0.0
H701 H 0.73687 0.82185 0.88182 0.0
C702 C 0.76304 0.72915 0.86884 0.0
C703 C 0.76299 0.79719 0.86918 0.0
C704 C 0.7735 0.83472 0.86495 0.0
C705 C 0.74469 0.72791 0.87791 0.0
C706 C 0.73471 0.76178 0.88256 0.0
C707 C 0.74417 0.79594 0.87817 0.0
C708 C 0.71607 0.76255 0.89223 0.0
C709 C 0.73676 0.69044 0.88253 0.0
C710 C 0.68027 0.74732 0.89355 0.0
C711 C 0.66307 0.74845 0.90275 0.0
C712 C 0.68137 0.76503 0.91075 0.0
C713 C 0.71706 0.78065 0.90931 0.0
C714 C 0.73414 0.77947 0.90015 0.0
H715 H 0.75358 0.66777 0.87914 0.0
H716 H 0.74266 0.6911 0.8905 0.0
H717 H 0.70678 0.68352 0.88154 0.0
H718 H 0.66558 0.73474 0.88747 0.0
H719 H 0.63557 0.73624 0.90358 0.0
H720 H 0.71861 0.77347 0.58027 0.0
H721 H 0.71828 0.74333 0.59621 0.0
H722 H 0.76803 0.84129 0.60912 0.0
H723 H 0.76898 0.87193 0.59307 0.0
H724 H 0.80112 0.77242 0.61501 0.0
H725 H 0.64667 0.76985 0.61862 0.0
H726 H 0.66381 0.74975 0.60746 0.0
H727 H 0.67045 0.79876 0.60977 0.0
C728 C 0.72937 0.78888 0.58647 0.0
C729 C 0.74351 0.82539 0.58537 0.0
C730 C 0.72906 0.77152 0.59559 0.0
C731 C 0.74259 0.7903 0.60384 0.0
C732 C 0.75728 0.82645 0.60281 0.0
H733 H 0.70278 0.73501 0.66398 0.0
H734 H 0.70676 0.76257 0.64778 0.0
C735 C 0.75769 0.84393 0.59365 0.0
C736 C 0.74126 0.77195 0.61353 0.0
H737 H 0.68106 0.7348 0.63027 0.0
C738 C 0.77492 0.76426 0.61838 0.0
C739 C 0.70697 0.76159 0.6179 0.0
C740 C 0.66988 0.77068 0.61323 0.0
C741 C 0.77521 0.74613 0.62749 0.0
C742 C 0.74094 0.73501 0.63175 0.0
C743 C 0.70731 0.74296 0.62692 0.0
C744 C 0.73899 0.71737 0.64153 0.0
C745 C 0.81204 0.7398 0.63259 0.0
C746 C 0.75545 0.68243 0.64337 0.0
C747 C 0.75331 0.6664 0.6527 0.0
C748 C 0.73446 0.68501 0.66031 0.0
C749 C 0.71753 0.71973 0.65833 0.0
C750 C 0.71976 0.73565 0.64906 0.0
H751 H 0.83472 0.75711 0.62938 0.0
H752 H 0.80975 0.7463 0.64051 0.0
H753 H 0.82009 0.70999 0.63185 0.0
H754 H 0.76984 0.66755 0.63759 0.0
H755 H 0.76659 0.63962 0.65395 0.0
H756 H 0.29898 0.18327 0.91112 0.0
H757 H 0.27112 0.18662 0.89489 0.0
H758 H 0.32857 0.29061 0.88949 0.0
H759 H 0.35764 0.28681 0.90568 0.0
H760 H 0.22432 0.23862 0.8882 0.0
H761 H 0.35071 0.23428 0.86466 0.0
H762 H 0.35217 0.22348 0.87754 0.0
H763 H 0.35093 0.27131 0.87351 0.0
C764 C 0.30612 0.20663 0.90643 0.0
C765 C 0.33058 0.23475 0.90967 0.0
C766 C 0.29009 0.20854 0.89717 0.0
C767 C 0.29791 0.23872 0.89094 0.0
C768 C 0.32273 0.26666 0.89408 0.0
H769 H 0.15339 0.28363 0.84032 0.0
H770 H 0.18442 0.28799 0.85623 0.0
C771 C 0.33926 0.2645 0.90334 0.0
C772 C 0.27854 0.24137 0.88139 0.0
H773 H 0.29298 0.24511 0.85674 0.0
C774 C 0.23932 0.24006 0.88131 0.0
C775 C 0.29818 0.24307 0.87242 0.0
C776 C 0.34032 0.24277 0.87199 0.0
C777 C 0.21918 0.23961 0.87252 0.0
C778 C 0.23879 0.24168 0.86355 0.0
C779 C 0.27799 0.24372 0.86363 0.0
C780 C 0.21949 0.23941 0.85398 0.0
C781 C 0.17724 0.23545 0.87293 0.0
C782 C 0.22939 0.21116 0.84736 0.0
C783 C 0.21218 0.20896 0.83824 0.0
C784 C 0.18448 0.23486 0.83555 0.0
C785 C 0.17427 0.26297 0.84223 0.0
C786 C 0.19191 0.26544 0.85133 0.0
H787 H 0.16776 0.22445 0.88012 0.0
H788 H 0.16407 0.26322 0.87185 0.0
H789 H 0.16707 0.21642 0.8671 0.0
H790 H 0.25054 0.19074 0.84926 0.0
H791 H 0.22066 0.18691 0.83329 0.0
H792 H 0.82145 0.70912 0.08567 0.0
H793 H 0.81585 0.73752 0.10181 0.0
H794 H 0.7122 0.67866 0.10655 0.0
H795 H 0.71829 0.64905 0.09047 0.0
H796 H 0.76241 0.78376 0.10802 0.0
H797 H 0.76597 0.65799 0.1318 0.0
H798 H 0.77817 0.65633 0.11901 0.0
H799 H 0.72993 0.65709 0.12269 0.0
C800 C 0.79772 0.70176 0.0902 0.0
C801 C 0.77037 0.67674 0.08682 0.0
C802 C 0.79449 0.71812 0.09941 0.0
C803 C 0.76374 0.71007 0.10541 0.0
C804 C 0.73657 0.68469 0.10213 0.0
H805 H 0.71566 0.85605 0.15579 0.0
H806 H 0.71114 0.82453 0.13992 0.0
C807 C 0.74006 0.66784 0.09294 0.0
C808 C 0.75974 0.72967 0.11491 0.0
H809 H 0.75404 0.71583 0.13954 0.0
C810 C 0.76053 0.76893 0.11492 0.0
C811 C 0.7574 0.71024 0.12389 0.0
C812 C 0.75815 0.6681 0.1244 0.0
C813 C 0.76003 0.78932 0.12368 0.0
C814 C 0.75753 0.76989 0.13266 0.0
C815 C 0.75577 0.73066 0.13264 0.0
C816 C 0.75961 0.78938 0.14221 0.0
C817 C 0.76382 0.8313 0.12322 0.0
C818 C 0.78783 0.77958 0.14884 0.0
C819 C 0.79009 0.79701 0.15793 0.0
C820 C 0.76431 0.82489 0.16058 0.0
C821 C 0.7362 0.83501 0.15391 0.0
C822 C 0.73365 0.81709 0.14483 0.0
H823 H 0.77484 0.84078 0.11603 0.0
H824 H 0.73594 0.84425 0.12427 0.0
H825 H 0.78266 0.84173 0.12905 0.0
H826 H 0.80823 0.75836 0.14697 0.0
H827 H 0.81218 0.78864 0.16288 0.0
H828 H 0.21082 0.31729 0.41375 0.0
H829 H 0.23986 0.31788 0.39763 0.0
H830 H 0.18075 0.21691 0.39002 0.0
H831 H 0.15035 0.21695 0.40608 0.0
H832 H 0.28588 0.26945 0.38976 0.0
H833 H 0.15986 0.27947 0.36638 0.0
H834 H 0.1581 0.28614 0.37944 0.0
H835 H 0.15911 0.23973 0.37437 0.0
C836 C 0.2037 0.29535 0.40862 0.0
C837 C 0.17818 0.26711 0.41118 0.0
C838 C 0.22037 0.29572 0.3994 0.0
C839 C 0.21222 0.26771 0.39255 0.0
C840 C 0.18678 0.23937 0.39508 0.0
H841 H 0.3571 0.22397 0.34244 0.0
H842 H 0.32553 0.22218 0.35827 0.0
C843 C 0.16957 0.23931 0.40428 0.0
C844 C 0.23166 0.26769 0.38295 0.0
H845 H 0.2174 0.26764 0.35827 0.0
C846 C 0.27088 0.26918 0.38287 0.0
C847 C 0.21209 0.26779 0.37396 0.0
C848 C 0.16998 0.26858 0.37351 0.0
C849 C 0.29108 0.27087 0.37409 0.0
C850 C 0.27158 0.26973 0.3651 0.0
C851 C 0.23236 0.26822 0.36516 0.0
C852 C 0.29118 0.27089 0.35553 0.0
C853 C 0.33301 0.275 0.37457 0.0
C854 C 0.28173 0.29825 0.34859 0.0
C855 C 0.29924 0.29893 0.33946 0.0
C856 C 0.3268 0.2724 0.3371 0.0
C857 C 0.33643 0.24518 0.34408 0.0
C858 C 0.31849 0.24419 0.35316 0.0
H859 H 0.3421 0.28682 0.38169 0.0
H860 H 0.34615 0.24707 0.37378 0.0
H861 H 0.34357 0.29331 0.36862 0.0
H862 H 0.26069 0.31909 0.35024 0.0
H863 H 0.29114 0.32024 0.33425 0.0
H864 H 0.28832 0.19257 0.20684 0.0
H865 H 0.30305 0.21357 0.22322 0.0
H866 H 0.28754 0.10052 0.23372 0.0
H867 H 0.26237 0.08299 0.21782 0.0
H868 H 0.27426 0.13377 0.24743 0.0
H869 H 0.39633 0.21342 0.23528 0.0
H870 H 0.35693 0.23601 0.22994 0.0
H871 H 0.36839 0.1882 0.22664 0.0
C872 C 0.28504 0.17324 0.21284 0.0
C873 C 0.27092 0.13731 0.21124 0.0
C874 C 0.29581 0.18456 0.22217 0.0
C875 C 0.29807 0.15864 0.22988 0.0
C876 C 0.28578 0.12176 0.2281 0.0
H877 H 0.42506 0.24076 0.28028 0.0
H878 H 0.40592 0.21572 0.26453 0.0
C879 C 0.27164 0.11148 0.21895 0.0
C880 C 0.31271 0.16989 0.23974 0.0
H881 H 0.37203 0.23026 0.25113 0.0
C882 C 0.29665 0.15395 0.24816 0.0
C883 C 0.3426 0.1956 0.241 0.0
C884 C 0.36726 0.20875 0.2327 0.0
C885 C 0.30958 0.16248 0.25759 0.0
C886 C 0.33579 0.19194 0.25885 0.0
C887 C 0.35157 0.20812 0.25043 0.0
C888 C 0.348 0.20596 0.2687 0.0
C889 C 0.29625 0.13784 0.26586 0.0
C890 C 0.32283 0.20834 0.27658 0.0
C891 C 0.33511 0.21906 0.28585 0.0
C892 C 0.3713 0.23285 0.28721 0.0
C893 C 0.39638 0.23179 0.27934 0.0
C894 C 0.38516 0.21773 0.27026 0.0
H895 H 0.29074 0.10897 0.26323 0.0
H896 H 0.31706 0.13602 0.27185 0.0
H897 H 0.26941 0.14876 0.26875 0.0
H898 H 0.29368 0.20141 0.27572 0.0
H899 H 0.31634 0.21605 0.29198 0.0
H900 H 0.90277 0.73134 0.46858 0.0
H901 H 0.88211 0.75155 0.48489 0.0
H902 H 0.79256 0.81459 0.4717 0.0
H903 H 0.81266 0.7938 0.45553 0.0
H904 H 0.88066 0.82246 0.49137 0.0
H905 H 0.73666 0.76564 0.49369 0.0
H906 H 0.77265 0.74604 0.48601 0.0
H907 H 0.74752 0.78716 0.48216 0.0
C908 C 0.87806 0.74863 0.46925 0.0
C909 C 0.85853 0.76011 0.46088 0.0
C910 C 0.86637 0.76027 0.47853 0.0
C911 C 0.83533 0.78404 0.47955 0.0
C912 C 0.81572 0.79524 0.47116 0.0
H913 H 0.7449 0.91526 0.528 0.0
H914 H 0.76239 0.89243 0.51162 0.0
C915 C 0.8272 0.78334 0.46191 0.0
C916 C 0.82544 0.79988 0.48924 0.0
H917 H 0.75277 0.81241 0.50508 0.0
C918 C 0.85282 0.81981 0.49443 0.0
C919 C 0.78909 0.79662 0.49323 0.0
C920 C 0.75973 0.77247 0.48854 0.0
C921 C 0.84466 0.83666 0.50345 0.0
C922 C 0.80815 0.83382 0.5073 0.0
C923 C 0.78068 0.81449 0.50207 0.0
C924 C 0.79847 0.84857 0.51705 0.0
C925 C 0.87491 0.85774 0.50878 0.0
C926 C 0.8128 0.83117 0.52543 0.0
C927 C 0.8025 0.84377 0.53469 0.0
C928 C 0.77742 0.87364 0.5357 0.0
C929 C 0.76377 0.89173 0.52733 0.0
C930 C 0.77379 0.87883 0.51803 0.0
H931 H 0.89924 0.86375 0.50398 0.0
H932 H 0.8639 0.8845 0.51172 0.0
H933 H 0.88476 0.84073 0.51506 0.0
H934 H 0.83157 0.80753 0.52479 0.0
H935 H 0.81408 0.83012 0.54108 0.0
H936 H 0.19388 0.33112 0.70464 0.0
H937 H 0.17421 0.30727 0.72058 0.0
H938 H 0.25006 0.38389 0.73475 0.0
H939 H 0.2678 0.40943 0.71874 0.0
H940 H 0.20737 0.27219 0.73402 0.0
H941 H 0.1598 0.40537 0.75023 0.0
H942 H 0.17237 0.40146 0.73751 0.0
H943 H 0.20789 0.4081 0.74669 0.0
C944 C 0.20622 0.34282 0.71119 0.0
C945 C 0.23267 0.3716 0.71055 0.0
C946 C 0.19496 0.32927 0.72029 0.0
C947 C 0.21006 0.34419 0.72892 0.0
C948 C 0.23702 0.37273 0.72824 0.0
H949 H 0.18886 0.2926 0.79035 0.0
H950 H 0.20998 0.31167 0.77408 0.0
C951 C 0.24754 0.38699 0.71912 0.0
C952 C 0.19811 0.3291 0.73856 0.0
H953 H 0.16666 0.35405 0.76123 0.0
C954 C 0.19858 0.29019 0.73995 0.0
C955 C 0.18561 0.3524 0.74627 0.0
C956 C 0.18096 0.39408 0.74507 0.0
C957 C 0.18814 0.27403 0.74888 0.0
C958 C 0.17689 0.29738 0.75667 0.0
C959 C 0.17587 0.33623 0.75527 0.0
C960 C 0.16609 0.28235 0.76637 0.0
C961 C 0.18988 0.23216 0.74994 0.0
C962 C 0.13462 0.25923 0.76743 0.0
C963 C 0.12283 0.24791 0.77673 0.0
C964 C 0.14263 0.25925 0.78507 0.0
C965 C 0.17406 0.28231 0.78399 0.0
C966 C 0.18586 0.29354 0.77472 0.0
H967 H 0.20794 0.21914 0.74427 0.0
H968 H 0.20064 0.22444 0.75724 0.0
H969 H 0.16134 0.22041 0.74919 0.0
H970 H 0.11847 0.25098 0.76109 0.0
H971 H 0.09795 0.2309 0.77744 0.0
H972 H 0.77566 0.60478 0.02761 0.0
H973 H 0.75662 0.62715 0.01137 0.0
H974 H 0.69534 0.71731 0.02488 0.0
H975 H 0.7148 0.69531 0.04101 0.0
H976 H 0.68485 0.63049 0.00513 0.0
H977 H 0.74638 0.77273 0.00289 0.0
H978 H 0.76518 0.73599 0.01046 0.0
H979 H 0.72471 0.7619 0.01441 0.0
C980 C 0.75904 0.62999 0.02704 0.0
C981 C 0.7476 0.64908 0.03548 0.0
C982 C 0.74808 0.64267 0.0178 0.0
C983 C 0.72507 0.6743 0.01689 0.0
C984 C 0.71406 0.69361 0.02535 0.0
H985 H 0.59553 0.76751 0.96854 0.0
H986 H 0.61877 0.75028 0.9849 0.0
C987 C 0.72522 0.68107 0.03457 0.0
C988 C 0.70949 0.68486 0.00723 0.0
H989 H 0.69997 0.75775 0.99131 0.0
C990 C 0.68855 0.65819 0.00206 0.0
C991 C 0.71413 0.72104 0.00323 0.0
C992 C 0.73904 0.74962 0.00797 0.0
C993 C 0.67202 0.66689 0.99304 0.0
C994 C 0.67634 0.70319 0.98916 0.0
C995 C 0.69675 0.72998 0.99435 0.0
C996 C 0.66176 0.71324 0.97942 0.0
C997 C 0.64974 0.6374 0.98774 0.0
C998 C 0.6785 0.69825 0.97103 0.0
C999 C 0.66564 0.70835 0.96178 0.0
C1000 C 0.63617 0.7339 0.9608 0.0
C1001 C 0.61877 0.74828 0.96918 0.0
C1002 C 0.63192 0.73844 0.97847 0.0
H1003 H 0.643 0.61326 0.99255 0.0
H1004 H 0.62332 0.64938 0.98487 0.0
H1005 H 0.66618 0.62697 0.98142 0.0
H1006 H 0.70174 0.67898 0.97164 0.0
H1007 H 0.67873 0.69619 0.95538 0.0
H1008 H 0.31122 0.32589 0.04165 0.0
H1009 H 0.32847 0.30227 0.02543 0.0
H1010 H 0.25809 0.38553 0.01199 0.0
H1011 H 0.24088 0.40938 0.02829 0.0
H1012 H 0.25085 0.3028 0.00577 0.0
H1013 H 0.39436 0.36228 0.00443 0.0
H1014 H 0.38022 0.33963 0.0156 0.0
H1015 H 0.35776 0.38216 0.01192 0.0
C1016 C 0.29921 0.33885 0.03522 0.0
C1017 C 0.27395 0.36861 0.03613 0.0
C1018 C 0.30933 0.32563 0.026 0.0
C1019 C 0.29462 0.34231 0.01756 0.0
C1020 C 0.26968 0.37239 0.01845 0.0
H1021 H 0.3115 0.29209 0.95581 0.0
H1022 H 0.28986 0.31039 0.97209 0.0
C1023 C 0.25984 0.38589 0.0277 0.0
C1024 C 0.30486 0.32768 0.00784 0.0
H1025 H 0.37711 0.32147 0.99165 0.0
C1026 C 0.2784 0.30679 0.00267 0.0
C1027 C 0.34092 0.33293 0.00388 0.0
C1028 C 0.37005 0.35564 0.00918 0.0
C1029 C 0.28735 0.2901 0.99369 0.0
C1030 C 0.32322 0.2958 0.9896 0.0
C1031 C 0.34963 0.31701 0.99478 0.0
C1032 C 0.33371 0.28102 0.97983 0.0
C1033 C 0.25907 0.26498 0.98891 0.0
C1034 C 0.36569 0.25862 0.97874 0.0
C1035 C 0.37812 0.2483 0.96943 0.0
C1036 C 0.35847 0.25977 0.96108 0.0
C1037 C 0.32619 0.28163 0.96217 0.0
C1038 C 0.31387 0.29213 0.97147 0.0
H1039 H 0.23643 0.2567 0.99403 0.0
H1040 H 0.24613 0.27965 0.98262 0.0
H1041 H 0.27307 0.23935 0.98619 0.0
H1042 H 0.38161 0.25002 0.98509 0.0
H1043 H 0.40354 0.23209 0.96872 0.0
H1044 H 0.67421 0.81398 0.29134 0.0
H1045 H 0.69586 0.83661 0.27547 0.0
H1046 H 0.62208 0.75865 0.26104 0.0
H1047 H 0.59866 0.73781 0.27703 0.0
H1048 H 0.73177 0.80597 0.26183 0.0
H1049 H 0.59657 0.8492 0.24604 0.0
H1050 H 0.60126 0.83585 0.25869 0.0
H1051 H 0.59587 0.80076 0.24934 0.0
C1052 C 0.6626 0.80185 0.28475 0.0
C1053 C 0.63528 0.77387 0.28532 0.0
C1054 C 0.67489 0.8148 0.27569 0.0
C1055 C 0.66019 0.79989 0.26701 0.0
C1056 C 0.633 0.77154 0.2676 0.0
H1057 H 0.70824 0.82559 0.20561 0.0
H1058 H 0.689 0.80469 0.22187 0.0
C1059 C 0.61997 0.75926 0.27671 0.0
C1060 C 0.6745 0.81321 0.25741 0.0
H1061 H 0.64789 0.845 0.23492 0.0
C1062 C 0.71333 0.81434 0.25596 0.0
C1063 C 0.65059 0.82527 0.24979 0.0
C1064 C 0.60881 0.82813 0.25108 0.0
C1065 C 0.72891 0.82568 0.24704 0.0
C1066 C 0.70501 0.83653 0.23933 0.0
C1067 C 0.66619 0.83615 0.24081 0.0
C1068 C 0.71944 0.8478 0.22959 0.0
C1069 C 0.77078 0.82513 0.24594 0.0
C1070 C 0.74319 0.87884 0.22853 0.0
C1071 C 0.75481 0.89034 0.21922 0.0
C1072 C 0.74302 0.87078 0.21089 0.0
C1073 C 0.71897 0.8401 0.21197 0.0
C1074 C 0.70758 0.82848 0.22123 0.0
H1075 H 0.78422 0.80621 0.25133 0.0
H1076 H 0.77876 0.81608 0.2385 0.0
H1077 H 0.78185 0.85373 0.24712 0.0
H1078 H 0.75193 0.89473 0.23486 0.0
H1079 H 0.77254 0.91472 0.21851 0.0
H1080 H 0.17671 0.19801 0.45573 0.0
H1081 H 0.19994 0.17919 0.47179 0.0
H1082 H 0.1217 0.25463 0.48554 0.0
H1083 H 0.09683 0.27156 0.4694 0.0
H1084 H 0.23397 0.21362 0.4852 0.0
H1085 H 0.10091 0.16468 0.50126 0.0
H1086 H 0.10514 0.1768 0.48852 0.0
H1087 H 0.09791 0.21264 0.49759 0.0
C1088 C 0.1645 0.21045 0.46222 0.0
C1089 C 0.13548 0.23658 0.46141 0.0
C1090 C 0.1777 0.19968 0.47138 0.0
C1091 C 0.1622 0.21493 0.47993 0.0
C1092 C 0.13335 0.24149 0.4791 0.0
H1093 H 0.21342 0.19133 0.54155 0.0
H1094 H 0.19407 0.21381 0.52542 0.0
C1095 C 0.11946 0.25155 0.4699 0.0
C1096 C 0.1771 0.20354 0.48964 0.0
H1097 H 0.15204 0.17146 0.51225 0.0
C1098 C 0.21594 0.20457 0.4911 0.0
C1099 C 0.15378 0.19078 0.49733 0.0
C1100 C 0.11219 0.18575 0.49607 0.0
C1101 C 0.232 0.19424 0.50005 0.0
C1102 C 0.20866 0.1824 0.50778 0.0
C1103 C 0.16986 0.18105 0.50634 0.0
C1104 C 0.22373 0.17089 0.51742 0.0
C1105 C 0.27378 0.19671 0.50118 0.0
C1106 C 0.24711 0.13949 0.51826 0.0
C1107 C 0.25855 0.12693 0.52748 0.0
C1108 C 0.2471 0.14585 0.53595 0.0
C1109 C 0.22379 0.1772 0.53509 0.0
C1110 C 0.2124 0.18978 0.5259 0.0
H1111 H 0.28665 0.21499 0.49553 0.0
H1112 H 0.28102 0.20765 0.50849 0.0
H1113 H 0.28608 0.16837 0.50046 0.0
H1114 H 0.25545 0.12397 0.51182 0.0
H1115 H 0.27574 0.1021 0.52802 0.0
H1116 H 0.73252 0.60609 0.71907 0.0
H1117 H 0.7529 0.62708 0.73532 0.0
H1118 H 0.81432 0.71745 0.72195 0.0
H1119 H 0.79343 0.69691 0.70583 0.0
H1120 H 0.82442 0.62963 0.74158 0.0
H1121 H 0.76454 0.77251 0.74409 0.0
H1122 H 0.74524 0.73607 0.73652 0.0
H1123 H 0.7858 0.76177 0.73252 0.0
C1124 C 0.74951 0.63103 0.71969 0.0
C1125 C 0.76049 0.65065 0.71128 0.0
C1126 C 0.76125 0.64291 0.72893 0.0
C1127 C 0.78461 0.67427 0.72989 0.0
C1128 C 0.79532 0.69399 0.72146 0.0
H1129 H 0.91407 0.76513 0.77863 0.0
H1130 H 0.89174 0.74812 0.76218 0.0
C1131 C 0.78334 0.68228 0.71224 0.0
C1132 C 0.80049 0.68438 0.73956 0.0
H1133 H 0.81093 0.75676 0.75558 0.0
C1134 C 0.82109 0.65732 0.74469 0.0
C1135 C 0.79631 0.72051 0.74361 0.0
C1136 C 0.77155 0.74945 0.73896 0.0
C1137 C 0.83765 0.66558 0.75374 0.0
C1138 C 0.83378 0.70185 0.75767 0.0
C1139 C 0.81382 0.72903 0.7525 0.0
C1140 C 0.84809 0.71146 0.76746 0.0
C1141 C 0.85941 0.63566 0.75902 0.0
C1142 C 0.83063 0.69667 0.77578 0.0
C1143 C 0.84294 0.7067 0.78508 0.0
C1144 C 0.87258 0.73197 0.7862 0.0
C1145 C 0.8907 0.74612 0.77789 0.0
C1146 C 0.87809 0.73638 0.76855 0.0
H1147 H 0.8659 0.61154 0.75419 0.0
H1148 H 0.88595 0.64721 0.76194 0.0
H1149 H 0.84272 0.62534 0.76531 0.0
H1150 H 0.80722 0.67768 0.77507 0.0
H1151 H 0.82929 0.69471 0.79143 0.0
H1152 H 0.17227 0.02812 0.18295 0.0
H1153 H 0.11427 0.99181 0.18148 0.0
H1154 H 0.04965 0.09242 0.18523 0.0
H1155 H 0.10681 0.12875 0.1867 0.0
H1156 H 0.05481 0.9884 0.19598 0.0
H1157 H 0.00478 0.04363 0.16039 0.0
H1158 H 0.05284 0.04749 0.16428 0.0
H1159 H 0.01813 0.07879 0.16909 0.0
C1160 C 0.14572 0.04255 0.18338 0.0
C1161 C 0.14436 0.08142 0.18493 0.0
C1162 C 0.11263 0.02176 0.18255 0.0
C1163 C 0.07768 0.03953 0.18311 0.0
C1164 C 0.07628 0.07823 0.1846 0.0
H1165 H 0.84314 0.97755 0.18392 0.0
H1166 H 0.90335 0.01017 0.18321 0.0
C1167 C 0.10914 0.09892 0.1855 0.0
C1168 C 0.04243 0.01774 0.18264 0.0
H1169 H 0.961 0.00883 0.16981 0.0
C1170 C 0.03445 0.9925 0.1902 0.0
C1171 C 0.01575 0.02352 0.17516 0.0
C1172 C 0.02331 0.04959 0.16671 0.0
C1173 C 1.00006 0.97361 0.19065 0.0
C1174 C 0.97327 0.97942 0.18317 0.0
C1175 C 0.98146 0.00442 0.17555 0.0
C1176 C 0.93668 0.95969 0.18314 0.0
C1177 C 0.9923 0.94862 0.19931 0.0
C1178 C 0.93533 0.92053 0.18307 0.0
C1179 C 0.9011 0.90187 0.18354 0.0
C1180 C 0.86726 0.92192 0.18395 0.0
C1181 C 0.86859 0.96121 0.18363 0.0
C1182 C 0.90299 0.9799 0.18323 0.0
H1183 H 0.01056 0.95553 0.20562 0.0
H1184 H 0.96271 0.95087 0.20168 0.0
H1185 H 0.99784 0.91916 0.19723 0.0
H1186 H 0.96083 0.9043 0.18272 0.0
H1187 H 0.90127 0.8716 0.18364 0.0
H1188 H 0.02486 0.3355 0.43382 0.0
H1189 H 0.98981 0.39429 0.43272 0.0
H1190 H 0.09201 0.45656 0.43614 0.0
H1191 H 0.12721 0.39843 0.43722 0.0
H1192 H 0.98848 0.4527 0.44739 0.0
H1193 H 0.04231 0.50385 0.41171 0.0
H1194 H 0.04574 0.45551 0.41542 0.0
H1195 H 0.07752 0.48959 0.42029 0.0
C1196 C 0.03995 0.36168 0.43425 0.0
C1197 C 0.07894 0.36207 0.43559 0.0
C1198 C 0.01985 0.39525 0.43364 0.0
C1199 C 0.03839 0.42977 0.43422 0.0
C1200 C 0.07722 0.43026 0.4355 0.0
H1201 H 0.97204 0.66423 0.43477 0.0
H1202 H 0.00657 0.60502 0.43436 0.0
C1203 C 0.09727 0.39686 0.43617 0.0
C1204 C 0.01714 0.4654 0.43396 0.0
H1205 H 0.00681 0.54677 0.42114 0.0
C1206 C 0.99222 0.47316 0.44161 0.0
C1207 C 0.02245 0.49221 0.42648 0.0
C1208 C 0.04821 0.48489 0.41795 0.0
C1209 C 0.97296 0.50733 0.4421 0.0
C1210 C 0.97802 0.53412 0.43457 0.0
C1211 C 1.00295 0.52629 0.42691 0.0
C1212 C 0.9572 0.5701 0.43448 0.0
C1213 C 0.94817 0.51479 0.45082 0.0
C1214 C 0.91803 0.57021 0.43443 0.0
C1215 C 0.89829 0.60385 0.43473 0.0
C1216 C 0.91722 0.63836 0.43494 0.0
C1217 C 0.95653 0.63825 0.43464 0.0
C1218 C 0.97631 0.60442 0.43441 0.0
H1219 H 0.95589 0.49696 0.45716 0.0
H1220 H 0.94969 0.54453 0.4531 0.0
H1221 H 0.9188 0.50832 0.44886 0.0
H1222 H 0.90263 0.54417 0.4342 0.0
H1223 H 0.86805 0.60271 0.43483 0.0
H1224 H 0.33425 0.48381 0.68457 0.0
H1225 H 0.39336 0.51842 0.684 0.0
H1226 H 0.45453 0.41496 0.68603 0.0
H1227 H 0.39602 0.38017 0.6866 0.0
H1228 H 0.45195 0.51579 0.69874 0.0
H1229 H 0.50201 0.46955 0.66222 0.0
H1230 H 0.45366 0.46607 0.66591 0.0
H1231 H 0.48724 0.43279 0.67031 0.0
C1232 C 0.36025 0.46836 0.68481 0.0
C1233 C 0.36022 0.42913 0.68561 0.0
C1234 C 0.39401 0.48821 0.6845 0.0
C1235 C 0.42832 0.46921 0.68485 0.0
C1236 C 0.4284 0.43014 0.68559 0.0
H1237 H 0.66285 0.53589 0.68533 0.0
H1238 H 0.60387 0.50106 0.68494 0.0
C1239 C 0.3948 0.41032 0.68597 0.0
C1240 C 0.46412 0.49016 0.68487 0.0
H1241 H 0.54498 0.50329 0.67201 0.0
C1242 C 0.47221 0.51329 0.69287 0.0
C1243 C 0.49066 0.48646 0.67726 0.0
C1244 C 0.48299 0.46262 0.66839 0.0
C1245 C 0.5064 0.53241 0.69355 0.0
C1246 C 0.53285 0.52908 0.68588 0.0
C1247 C 0.52475 0.50584 0.67788 0.0
C1248 C 0.5687 0.55012 0.68595 0.0
C1249 C 0.5142 0.55522 0.7026 0.0
C1250 C 0.56858 0.58927 0.68644 0.0
C1251 C 0.60212 0.60919 0.68672 0.0
C1252 C 0.63673 0.59048 0.68638 0.0
C1253 C 0.6368 0.55124 0.68563 0.0
C1254 C 0.6031 0.53128 0.6854 0.0
H1255 H 0.49678 0.54595 0.70888 0.0
H1256 H 0.54407 0.55337 0.70474 0.0
H1257 H 0.50746 0.58496 0.70112 0.0
H1258 H 0.54245 0.60453 0.68659 0.0
H1259 H 0.60079 0.63938 0.68719 0.0
H1260 H 0.47747 0.16706 0.93546 0.0
H1261 H 0.51372 0.10886 0.93475 0.0
H1262 H 0.4119 0.04484 0.93618 0.0
H1263 H 0.37555 0.10233 0.9369 0.0
H1264 H 0.51177 0.04794 0.94913 0.0
H1265 H 0.46865 1.00219 0.91201 0.0
H1266 H 0.46426 0.04999 0.91611 0.0
H1267 H 0.43107 0.01541 0.92002 0.0
C1268 C 0.46276 0.14062 0.93557 0.0
C1269 C 0.42352 0.13954 0.93621 0.0
C1270 C 0.48353 0.1074 0.93518 0.0
C1271 C 0.46543 0.07258 0.93528 0.0
C1272 C 0.42639 0.07141 0.93593 0.0
H1273 H 0.52946 0.83838 0.93455 0.0
H1274 H 0.49635 0.8983 0.93425 0.0
C1275 C 0.40567 0.10443 0.93639 0.0
C1276 C 0.48716 0.03725 0.93506 0.0
H1277 H 0.50132 0.95787 0.92168 0.0
C1278 C 0.5098 0.02835 0.9431 0.0
C1279 C 0.48419 0.01164 0.92723 0.0
C1280 C 0.46098 0.02027 0.9183 0.0
C1281 C 0.52889 0.99407 0.94362 0.0
C1282 C 0.52599 0.96839 0.93577 0.0
C1283 C 0.50351 0.97748 0.9277 0.0
C1284 C 0.54618 0.93204 0.93578 0.0
C1285 C 0.551 0.98523 0.95273 0.0
C1286 C 0.58524 0.93104 0.93654 0.0
C1287 C 0.60421 0.89691 0.93677 0.0
C1288 C 0.5846 0.86286 0.93612 0.0
C1289 C 0.54549 0.86396 0.93509 0.0
C1290 C 0.5265 0.89822 0.93492 0.0
H1291 H 0.54167 1.00237 0.95905 0.0
H1292 H 0.54849 0.95524 0.95471 0.0
H1293 H 0.58092 0.99153 0.95139 0.0
H1294 H 0.60115 0.95673 0.93694 0.0
H1295 H 0.63434 0.89731 0.93747 0.0
H1296 H 0.11015 0.37456 0.0582 0.0
H1297 H 0.05114 0.40869 0.05856 0.0
H1298 H 0.11073 0.51204 0.06284 0.0
H1299 H 0.17021 0.4782 0.06247 0.0
H1300 H 0.02177 0.45625 0.0738 0.0
H1301 H 0.04305 0.5313 0.03863 0.0
H1302 H 0.06995 0.49059 0.04201 0.0
H1303 H 0.08049 0.53524 0.04732 0.0
C1304 C 0.1109 0.40457 0.05922 0.0
C1305 C 0.14514 0.4236 0.06026 0.0
C1306 C 0.07703 0.424 0.05944 0.0
C1307 C 0.07657 0.4629 0.06062 0.0
C1308 C 0.11052 0.48204 0.06179 0.0
H1309 H 0.90479 0.63222 0.06054 0.0
H1310 H 0.96246 0.59626 0.06111 0.0
C1311 C 0.1445 0.4626 0.06161 0.0
C1312 C 0.04047 0.48333 0.06062 0.0
H1313 H 0.98973 0.54773 0.04787 0.0
C1314 C 0.01465 0.47622 0.06813 0.0
C1315 C 0.03129 0.50924 0.0532 0.0
C1316 C 0.05744 0.51696 0.04478 0.0
C1317 C 0.98018 0.49503 0.06854 0.0
C1318 C 0.97095 0.521 0.06111 0.0
C1319 C 0.99677 0.52785 0.05357 0.0
C1320 C 0.93524 0.5423 0.06112 0.0
C1321 C 0.95449 0.4877 0.07708 0.0
C1322 C 0.90051 0.52398 0.06091 0.0
C1323 C 0.86718 0.54457 0.06065 0.0
C1324 C 0.86799 0.58389 0.06047 0.0
C1325 C 0.90291 0.60201 0.06065 0.0
C1326 C 0.93605 0.58148 0.06098 0.0
H1327 H 0.96967 0.47514 0.08336 0.0
H1328 H 0.94078 0.51386 0.07957 0.0
H1329 H 0.9324 0.46778 0.07481 0.0
H1330 H 0.89915 0.49375 0.06078 0.0
H1331 H 0.84086 0.52966 0.06044 0.0
H1332 H 0.53218 0.66371 0.31182 0.0
H1333 H 0.50097 0.60283 0.31273 0.0
H1334 H 0.60724 0.54725 0.30991 0.0
H1335 H 0.63871 0.60765 0.30899 0.0
H1336 H 0.50565 0.54427 0.29789 0.0
H1337 H 0.55732 0.49718 0.3342 0.0
H1338 H 0.5576 0.54569 0.33052 0.0
H1339 H 0.59215 0.51409 0.32581 0.0
C1340 C 0.54899 0.63858 0.31147 0.0
C1341 C 0.58803 0.64074 0.31034 0.0
C1342 C 0.53109 0.6038 0.31198 0.0
C1343 C 0.55185 0.57054 0.31151 0.0
C1344 C 0.59075 0.57255 0.31045 0.0
H1345 H 0.48582 0.33393 0.31229 0.0
H1346 H 0.52211 0.39228 0.31227 0.0
C1347 C 0.60864 0.60722 0.30987 0.0
C1348 C 0.53273 0.53372 0.31165 0.0
H1349 H 0.52264 0.45341 0.32495 0.0
C1350 C 0.50925 0.52444 0.30382 0.0
C1351 C 0.53793 0.50769 0.31932 0.0
C1352 C 0.56239 0.51658 0.32799 0.0
C1353 C 0.49087 0.4898 0.30342 0.0
C1354 C 0.49528 0.46406 0.31122 0.0
C1355 C 0.51924 0.47311 0.31899 0.0
C1356 C 0.47375 0.42852 0.31161 0.0
C1357 C 0.46733 0.48091 0.29457 0.0
C1358 C 0.43462 0.42952 0.31153 0.0
C1359 C 0.41396 0.39647 0.31149 0.0
C1360 C 0.43186 0.3614 0.31167 0.0
C1361 C 0.47113 0.36038 0.31212 0.0
C1362 C 0.49189 0.3937 0.3121 0.0
H1363 H 0.47611 0.49758 0.28811 0.0
H1364 H 0.46898 0.45079 0.29267 0.0
H1365 H 0.43774 0.4879 0.29616 0.0
H1366 H 0.41994 0.45599 0.31144 0.0
H1367 H 0.38378 0.39854 0.31128 0.0
H1368 H 0.67343 0.98043 0.56233 0.0
H1369 H 0.61403 0.01417 0.56313 0.0
H1370 H 0.55415 0.91031 0.55999 0.0
H1371 H 0.61312 0.87652 0.55893 0.0
H1372 H 0.52641 0.96317 0.54809 0.0
H1373 H 0.54064 0.02142 0.58547 0.0
H1374 H 0.57879 0.03349 0.57756 0.0
H1375 H 0.57117 0.98538 0.58084 0.0
C1376 C 0.64765 0.9647 0.56187 0.0
C1377 C 0.64823 0.92567 0.56059 0.0
C1378 C 0.61364 0.98404 0.5624 0.0
C1379 C 0.57952 0.96474 0.56179 0.0
C1380 C 0.58006 0.92584 0.56051 0.0
H1381 H 0.34381 0.03107 0.56227 0.0
H1382 H 0.40231 0.99547 0.56278 0.0
C1383 C 0.61393 0.90654 0.55992 0.0
C1384 C 0.54321 0.98501 0.56209 0.0
H1385 H 0.49035 0.04483 0.57585 0.0
C1386 C 0.51844 0.9808 0.5542 0.0
C1387 C 0.5327 0.00798 0.57007 0.0
C1388 C 0.55704 0.01211 0.57901 0.0
C1389 C 0.48392 0.99949 0.55397 0.0
C1390 C 0.47368 0.02278 0.56188 0.0
C1391 C 0.49829 0.02692 0.56979 0.0
C1392 C 0.43808 0.04409 0.56191 0.0
C1393 C 0.45901 0.99493 0.54515 0.0
C1394 C 0.43882 0.0832 0.56145 0.0
C1395 C 0.40555 0.10361 0.56115 0.0
C1396 C 0.37067 0.08536 0.56139 0.0
C1397 C 0.37006 0.04609 0.56206 0.0
C1398 C 0.40347 0.02567 0.5623 0.0
H1399 H 0.47398 0.9819 0.5389 0.0
H1400 H 0.43501 0.97676 0.54711 0.0
H1401 H 0.44774 0.02239 0.54278 0.0
H1402 H 0.46523 0.09797 0.56117 0.0
H1403 H 0.40727 0.13378 0.56068 0.0
H1404 H 0.03015 0.16366 0.81183 0.0
H1405 H 0.99461 0.10512 0.8128 0.0
H1406 H 0.09726 0.04224 0.81211 0.0
H1407 H 0.13294 0.10014 0.81113 0.0
H1408 H 0.99823 0.0443 0.79861 0.0
H1409 H 0.03918 0.99896 0.83594 0.0
H1410 H 0.04354 0.04677 0.83183 0.0
H1411 H 0.07717 0.01237 0.82808 0.0
C1412 C 0.0452 0.13741 0.81198 0.0
C1413 C 0.08447 0.13675 0.81141 0.0
C1414 C 0.02483 0.10399 0.81251 0.0
C1415 C 0.04334 0.06938 0.81265 0.0
C1416 C 0.08244 0.06864 0.81218 0.0
H1417 H 0.9788 0.83482 0.81313 0.0
H1418 H 0.01239 0.8945 0.81362 0.0
C1419 C 0.10277 0.10188 0.81156 0.0
C1420 C 0.02195 0.03384 0.81279 0.0
H1421 H 0.00716 0.95451 0.82617 0.0
C1422 C 0.99989 0.02477 0.80466 0.0
C1423 C 0.02454 0.00828 0.82066 0.0
C1424 C 0.04713 0.01707 0.82967 0.0
C1425 C 0.98093 0.99045 0.80408 0.0
C1426 C 0.98334 0.96487 0.81197 0.0
C1427 C 0.00533 0.97406 0.82013 0.0
C1428 C 0.96291 0.92866 0.81193 0.0
C1429 C 0.95943 0.98149 0.79489 0.0
C1430 C 0.9239 0.928 0.81103 0.0
C1431 C 0.90468 0.89404 0.81068 0.0
C1432 C 0.92397 0.85981 0.81137 0.0
C1433 C 0.96302 0.86055 0.81256 0.0
C1434 C 0.98227 0.89466 0.81285 0.0
H1435 H 0.96924 0.99848 0.78858 0.0
H1436 H 0.962 0.95146 0.79296 0.0
H1437 H 0.92944 0.9879 0.79607 0.0
H1438 H 0.90821 0.95382 0.81057 0.0
H1439 H 0.8746 0.89473 0.80987 0.0
H1440 H 0.66865 0.97785 0.166 0.0
H1441 H 0.60686 0.00552 0.16314 0.0
H1442 H 0.56277 0.94342 0.18765 0.0
H1443 H 0.62345 0.91401 0.19004 0.0
H1444 H 0.51438 0.94216 0.17424 0.0
H1445 H 0.56106 0.0894 0.1773 0.0
H1446 H 0.58302 0.0651 0.16739 0.0
H1447 H 0.59178 0.05075 0.17981 0.0
C1448 C 0.64563 0.97012 0.17073 0.0
C1449 C 0.65084 0.94387 0.17825 0.0
C1450 C 0.61037 0.9862 0.16916 0.0
C1451 C 0.58008 0.97737 0.17532 0.0
C1452 C 0.58546 0.95085 0.18277 0.0
H1453 H 0.38705 0.10892 0.1886 0.0
H1454 H 0.44847 0.08084 0.18646 0.0
C1455 C 0.62026 0.93405 0.18415 0.0
C1456 C 0.54264 0.9953 0.17414 0.0
H1457 H 0.49783 0.07958 0.17323 0.0
C1458 C 0.51082 0.97226 0.17404 0.0
C1459 C 0.53773 0.03461 0.17392 0.0
C1460 C 0.57017 0.06141 0.17471 0.0
C1461 C 0.47448 0.98718 0.17411 0.0
C1462 C 0.46957 0.02648 0.17374 0.0
C1463 C 0.50141 0.04949 0.17346 0.0
C1464 C 0.43203 0.04451 0.17454 0.0
C1465 C 0.44201 0.96054 0.17516 0.0
C1466 C 0.40206 0.03417 0.16845 0.0
C1467 C 0.3664 0.04954 0.16987 0.0
C1468 C 0.36041 0.07657 0.17716 0.0
C1469 C 0.39078 0.08826 0.18289 0.0
C1470 C 0.42603 0.0722 0.18166 0.0
H1471 H 0.45097 0.93309 0.17815 0.0
H1472 H 0.42013 0.97215 0.18005 0.0
H1473 H 0.42954 0.95541 0.16786 0.0
H1474 H 0.40606 0.01393 0.16267 0.0
H1475 H 0.34355 0.0403 0.16528 0.0
H1476 H 0.90248 0.8825 0.44007 0.0
H1477 H 0.93012 0.9439 0.43751 0.0
H1478 H 0.99735 0.89956 0.41399 0.0
H1479 H 0.97136 0.83712 0.41704 0.0
H1480 H 0.03817 0.94253 0.42376 0.0
H1481 H 0.90817 0.02145 0.41821 0.0
H1482 H 0.90577 0.99865 0.42984 0.0
H1483 H 0.90852 0.97113 0.41878 0.0
C1484 C 0.92294 0.88588 0.4343 0.0
C1485 C 0.93458 0.85509 0.4287 0.0
C1486 C 0.93848 0.9212 0.43276 0.0
C1487 C 0.96503 0.92698 0.42533 0.0
C1488 C 0.97669 0.8961 0.41971 0.0
H1489 H 0.02798 0.16327 0.41676 0.0
H1490 H 1.00217 0.10071 0.41376 0.0
C1491 C 0.96183 0.86042 0.42144 0.0
C1492 C 0.98214 0.96468 0.42391 0.0
H1493 H 0.96144 0.0579 0.4237 0.0
C1494 C 0.02126 0.96768 0.42357 0.0
C1495 C 0.96044 0.99778 0.42334 0.0
C1496 C 0.91843 0.99699 0.42244 0.0
C1497 C 0.03915 1.00262 0.42323 0.0
C1498 C 0.01746 0.03574 0.42376 0.0
C1499 C 0.97833 0.03274 0.42353 0.0
C1500 C 0.03462 0.07346 0.42509 0.0
C1501 C 0.08113 1.00338 0.42223 0.0
C1502 C 0.06122 0.07934 0.43248 0.0
C1503 C 0.07665 0.1147 0.43399 0.0
C1504 C 0.06488 0.14546 0.4284 0.0
C1505 C 0.03766 0.14001 0.42115 0.0
C1506 C 0.02289 0.10426 0.41945 0.0
H1507 H 0.09125 0.97882 0.41802 0.0
H1508 H 0.09094 0.02915 0.41851 0.0
H1509 H 0.094 1.00187 0.4296 0.0
H1510 H 0.06965 0.0567 0.43724 0.0
H1511 H 0.09706 0.11815 0.43977 0.0
H1512 H 0.11554 0.39245 0.67844 0.0
H1513 H 0.05322 0.41898 0.67637 0.0
H1514 H 0.10118 0.52913 0.67373 0.0
H1515 H 0.16386 0.50249 0.6755 0.0
H1516 H 0.02 0.46626 0.68842 0.0
H1517 H 0.02686 0.53196 0.65178 0.0
H1518 H 0.06177 0.49941 0.65603 0.0
H1519 H 0.06334 0.54762 0.65977 0.0
C1520 C 0.1129 0.42226 0.67724 0.0
C1521 C 0.14465 0.44538 0.67713 0.0
C1522 C 0.07721 0.43741 0.67606 0.0
C1523 C 0.07236 0.47605 0.67479 0.0
C1524 C 0.10412 0.49915 0.67446 0.0
H1525 H 0.88302 0.62403 0.68081 0.0
H1526 H 0.9447 0.59575 0.67859 0.0
C1527 C 0.13997 0.48391 0.67553 0.0
C1528 C 0.034 0.4922 0.67467 0.0
H1529 H 0.97486 0.5491 0.66184 0.0
C1530 C 0.01007 0.48403 0.68254 0.0
C1531 C 0.02095 0.51553 0.66703 0.0
C1532 C 0.04444 0.52387 0.65813 0.0
C1533 C 0.97388 0.499 0.68307 0.0
C1534 C 0.96109 0.52269 0.67551 0.0
C1535 C 0.9848 0.53087 0.66762 0.0
C1536 C 0.92352 0.54011 0.67592 0.0
C1537 C 0.9498 0.49015 0.69184 0.0
C1538 C 0.89113 0.5183 0.67494 0.0
C1539 C 0.85575 0.53442 0.67615 0.0
C1540 C 0.85223 0.57258 0.67843 0.0
C1541 C 0.88475 0.59453 0.6791 0.0
C1542 C 0.92004 0.57846 0.67781 0.0
H1543 H 0.9659 0.47637 0.69778 0.0
H1544 H 0.93689 0.51605 0.69478 0.0
H1545 H 0.92691 0.4711 0.68959 0.0
H1546 H 0.89327 0.48867 0.67342 0.0
H1547 H 0.83127 0.51677 0.67559 0.0
H1548 H 0.38263 0.3843 0.92996 0.0
H1549 H 0.40799 0.44685 0.9273 0.0
H1550 H 0.51866 0.40033 0.92446 0.0
H1551 H 0.49321 0.33743 0.92682 0.0
H1552 H 0.45585 0.48299 0.93858 0.0
H1553 H 0.51786 0.47076 0.90161 0.0
H1554 H 0.48633 0.43613 0.90651 0.0
H1555 H 0.53496 0.4358 0.90987 0.0
C1556 C 0.41231 0.3873 0.92862 0.0
C1557 C 0.43592 0.35589 0.92858 0.0
C1558 C 0.42678 0.42312 0.92711 0.0
C1559 C 0.46519 0.42841 0.92554 0.0
C1560 C 0.4888 0.397 0.92539 0.0
H1561 H 0.61351 0.61678 0.92905 0.0
H1562 H 0.58421 0.55548 0.92715 0.0
C1563 C 0.47426 0.36104 0.92681 0.0
C1564 C 0.48068 0.46695 0.92485 0.0
H1565 H 0.53599 0.52428 0.911 0.0
C1566 C 0.47298 0.4921 0.93248 0.0
C1567 C 0.5031 0.47894 0.9169 0.0
C1568 C 0.51076 0.45411 0.90821 0.0
C1569 C 0.48779 0.52843 0.93251 0.0
C1570 C 0.51078 0.54009 0.92468 0.0
C1571 C 0.51828 0.51522 0.91699 0.0
C1572 C 0.52875 0.57743 0.92467 0.0
C1573 C 0.47969 0.5538 0.94107 0.0
C1574 C 0.5074 0.61013 0.92363 0.0
C1575 C 0.52412 0.64532 0.92466 0.0
C1576 C 0.56242 0.6483 0.92681 0.0
C1577 C 0.58392 0.61546 0.92744 0.0
C1578 C 0.56726 0.58039 0.92634 0.0
H1579 H 0.4662 0.53866 0.94723 0.0
H1580 H 0.50586 0.56691 0.94376 0.0
H1581 H 0.46067 0.57653 0.93869 0.0
H1582 H 0.47764 0.60837 0.92228 0.0
H1583 H 0.50682 0.67007 0.92414 0.0
H1584 H 0.66972 0.51321 0.06911 0.0
H1585 H 0.60656 0.48784 0.07121 0.0
H1586 H 0.5608 0.59905 0.06906 0.0
H1587 H 0.62349 0.62436 0.06665 0.0
H1588 H 0.55064 0.49937 0.08452 0.0
H1589 H 0.50423 0.54563 0.04778 0.0
H1590 H 0.55254 0.54682 0.05148 0.0
H1591 H 0.52099 0.58329 0.05523 0.0
C1592 C 0.64619 0.53224 0.06913 0.0
C1593 C 0.65154 0.57072 0.06759 0.0
C1594 C 0.61012 0.51772 0.07034 0.0
C1595 C 0.57883 0.54144 0.07006 0.0
C1596 C 0.58436 0.58007 0.06901 0.0
H1597 H 0.33817 0.50099 0.07162 0.0
H1598 H 0.40012 0.52955 0.07346 0.0
C1599 C 0.62028 0.59452 0.0677 0.0
C1600 C 0.5404 0.52579 0.07062 0.0
H1601 H 0.45754 0.5212 0.05828 0.0
C1602 C 0.53031 0.5041 0.07878 0.0
C1603 C 0.51386 0.53182 0.0631 0.0
C1604 C 0.52349 0.55283 0.05386 0.0
C1605 C 0.49432 0.48865 0.07965 0.0
C1606 C 0.46786 0.49497 0.07217 0.0
C1607 C 0.47781 0.5168 0.06406 0.0
C1608 C 0.43034 0.47739 0.07226 0.0
C1609 C 0.48472 0.46585 0.08858 0.0
C1610 C 0.42687 0.43863 0.07107 0.0
C1611 C 0.39166 0.42234 0.06994 0.0
C1612 C 0.35919 0.44449 0.07001 0.0
C1613 C 0.36262 0.48317 0.07159 0.0
C1614 C 0.39797 0.49952 0.07261 0.0
H1615 H 0.50495 0.47049 0.09462 0.0
H1616 H 0.4562 0.47272 0.09123 0.0
H1617 H 0.48522 0.43573 0.08665 0.0
H1618 H 0.45151 0.42112 0.07062 0.0
H1619 H 0.38997 0.39246 0.06873 0.0
H1620 H 0.3826 0.11904 0.32044 0.0
H1621 H 0.40699 0.05594 0.32286 0.0
H1622 H 0.51829 0.10062 0.32592 0.0
H1623 H 0.49382 0.16398 0.32382 0.0
H1624 H 0.45373 0.02098 0.31113 0.0
H1625 H 0.518 0.02659 0.34788 0.0
H1626 H 0.48679 0.06247 0.34349 0.0
H1627 H 0.53531 0.06267 0.33999 0.0
C1628 C 0.41218 0.11551 0.32183 0.0
C1629 C 0.43629 0.14652 0.32196 0.0
C1630 C 0.4261 0.07938 0.3232 0.0
C1631 C 0.46446 0.07338 0.32468 0.0
C1632 C 0.48848 0.10445 0.32505 0.0
H1633 H 0.61261 0.88686 0.31764 0.0
H1634 H 0.58297 0.94748 0.32049 0.0
C1635 C 0.47448 0.1407 0.32379 0.0
C1636 C 0.47957 0.0346 0.3249 0.0
H1637 H 0.53613 0.97499 0.33768 0.0
C1638 C 0.47128 0.01081 0.31702 0.0
C1639 C 0.5026 0.02123 0.33256 0.0
C1640 C 0.51089 0.04446 0.3415 0.0
C1641 C 0.48617 0.97458 0.31644 0.0
C1642 C 0.50989 0.96162 0.32397 0.0
C1643 C 0.51788 0.98506 0.33192 0.0
C1644 C 0.52819 0.92452 0.32335 0.0
C1645 C 0.47745 0.95073 0.30764 0.0
C1646 C 0.50735 0.89146 0.32427 0.0
C1647 C 0.52426 0.85664 0.3227 0.0
C1648 C 0.56224 0.85442 0.32012 0.0
C1649 C 0.58326 0.88759 0.31957 0.0
C1650 C 0.56643 0.92227 0.32122 0.0
H1651 H 0.46284 0.96673 0.30182 0.0
H1652 H 0.50352 0.93876 0.30454 0.0
H1653 H 0.45927 0.92712 0.30989 0.0
H1654 H 0.4778 0.89267 0.32596 0.0
H1655 H 0.50733 0.83162 0.32317 0.0
H1656 H 0.89209 0.89007 0.56916 0.0
H1657 H 0.95424 0.91671 0.57143 0.0
H1658 H 0.90596 0.02683 0.57378 0.0
H1659 H 0.84341 1.00006 0.57183 0.0
H1660 H 0.98719 0.96368 0.55925 0.0
H1661 H 0.9803 0.03051 0.59575 0.0
H1662 H 0.94545 0.99775 0.59157 0.0
H1663 H 0.94378 0.04583 0.58771 0.0
C1664 C 0.89461 0.91989 0.57036 0.0
C1665 C 0.86284 0.94298 0.57032 0.0
C1666 C 0.9302 0.9351 0.57164 0.0
C1667 C 0.93492 0.97377 0.57286 0.0
C1668 C 0.9031 0.99682 0.5731 0.0
H1669 H 0.12457 0.12099 0.5662 0.0
H1670 H 0.06274 0.09318 0.56856 0.0
C1671 C 0.86733 0.98152 0.57193 0.0
C1672 C 0.97322 0.98999 0.57295 0.0
H1673 H 0.03235 0.04726 0.58564 0.0
C1674 C 0.99712 0.98161 0.56509 0.0
C1675 C 0.98624 0.01355 0.58054 0.0
C1676 C 0.96274 0.02217 0.58941 0.0
C1677 C 0.0333 0.99656 0.56452 0.0
C1678 C 0.04608 0.02044 0.57203 0.0
C1679 C 0.02239 0.02887 0.57991 0.0
C1680 C 0.08368 0.03771 0.57158 0.0
C1681 C 0.05738 0.98743 0.55578 0.0
C1682 C 0.11595 0.01583 0.57272 0.0
C1683 C 0.15139 0.03166 0.57142 0.0
C1684 C 0.15509 0.0696 0.5689 0.0
C1685 C 0.12269 0.09165 0.56809 0.0
C1686 C 0.08732 0.07587 0.56946 0.0
H1687 H 0.04133 0.97335 0.54988 0.0
H1688 H 0.07019 0.01325 0.55276 0.0
H1689 H 0.08037 0.96856 0.55808 0.0
H1690 H 0.11366 0.98634 0.5744 0.0
H1691 H 0.17578 0.01394 0.5721 0.0
H1692 H 0.89272 0.61348 0.81544 0.0
H1693 H 0.92078 0.55177 0.81727 0.0
H1694 H 0.02332 0.60224 0.82717 0.0
H1695 H 0.99532 0.66456 0.82536 0.0
H1696 H 0.98684 0.53077 0.80667 0.0
H1697 H 1.003 0.51445 0.84691 0.0
H1698 H 0.9703 0.54699 0.84154 0.0
H1699 H 0.01926 0.55764 0.84166 0.0
C1700 C 0.92107 0.61158 0.81816 0.0
C1701 C 0.94185 0.64401 0.82022 0.0
C1702 C 0.93705 0.57622 0.8192 0.0
C1703 C 0.97403 0.57239 0.8224 0.0
C1704 C 0.99454 0.60457 0.82481 0.0
H1705 H 0.11998 0.38322 0.81232 0.0
H1706 H 0.09314 0.44542 0.81461 0.0
C1707 C 0.97855 0.64014 0.82375 0.0
C1708 C 0.99182 0.53493 0.82232 0.0
H1709 H 0.02871 0.46672 0.83693 0.0
C1710 C 0.996 0.51678 0.81328 0.0
C1711 C 1.00352 0.5167 0.83097 0.0
C1712 C 0.99866 0.53468 0.84085 0.0
C1713 C 0.01182 0.481 0.81265 0.0
C1714 C 0.02393 0.4629 0.82128 0.0
C1715 C 0.0195 0.48081 0.83034 0.0
C1716 C 0.04142 0.4254 0.82088 0.0
C1717 C 0.01525 0.46254 0.80277 0.0
C1718 C 0.02149 0.39358 0.82386 0.0
C1719 C 0.03669 0.35783 0.82252 0.0
C1720 C 0.07216 0.35344 0.81823 0.0
C1721 C 0.09255 0.38556 0.81562 0.0
C1722 C 0.07729 0.42116 0.81692 0.0
H1723 H 0.99902 0.4775 0.79706 0.0
H1724 H 0.04505 0.46219 0.80052 0.0
H1725 H 0.00545 0.43312 0.80313 0.0
H1726 H 0.9937 0.39636 0.82692 0.0
H1727 H 0.02032 0.33367 0.82462 0.0
loop_
_geom_bond_atom_site_label_1
_geom_bond_atom_site_label_2
_geom_bond_distance
_geom_bond_site_symmetry_2
_ccdc_geom_bond_type
Mn0 O5 2.095 . S
Mn0 O15 2.162 . S
Mn0 O16 2.297 . S
Mn0 O24 2.385 . S
Mn0 O25 2.209 . S
Mn0 O26 2.094 . S
Mn1 O6 2.121 . S
Mn1 N8 2.257 . S
Mn1 N17 2.282 . S
Mn1 O25 2.215 . S
Mn1 O27 2.117 . S
C2 O24 1.234 . S
C2 O25 1.283 . S
C3 O15 1.281 . S
C3 O16 1.236 . S
C4 O26 1.240 . S
C4 O27 1.264 . S
O5 Mn0 2.095 . S
O5 C14 1.250 . S
O6 Mn1 2.121 . S
O6 C14 1.258 . S
C7 N8 1.326 . S
C7 C11 1.460 . S
C7 H13 0.929 . S
N8 Mn1 2.257 . S
N8 C7 1.326 . S
N8 C12 1.362 . S
C9 C10 1.258 . S
C9 C12 1.431 . S
C9 C29 1.449 . S
C10 C9 1.258 . S
C10 C11 1.477 . S
C10 H30 0.931 . S
C11 C7 1.460 . S
C11 C10 1.477 . S
C11 H31 0.930 . S
C12 N8 1.362 . S
C12 C9 1.431 . S
C12 C22 1.476 . S
H13 C7 0.929 . S
C14 O5 1.250 . S
C14 O6 1.258 . S
O15 Mn0 2.162 . S
O15 C3 1.281 . S
O16 Mn0 2.297 . S
O16 C3 1.236 . S
N17 Mn1 2.282 . S
N17 C18 1.328 . S
N17 C22 1.318 . S
C18 N17 1.328 . S
C18 C19 1.457 . S
C18 H23 0.929 . S
C19 C18 1.457 . S
C19 C20 1.291 . S
C19 H32 0.931 . S
C20 C19 1.291 . S
C20 C21 1.373 . S
C20 H33 0.929 . S
C21 C20 1.373 . S
C21 C22 1.396 . S
C21 C28 1.403 . S
C22 C12 1.476 . S
C22 N17 1.318 . S
C22 C21 1.396 . S
H23 C18 0.929 . S
O24 Mn0 2.385 . S
O24 C2 1.234 . S
O25 Mn0 2.209 . S
O25 Mn1 2.215 . S
O25 C2 1.283 . S
O26 Mn0 2.094 . S
O26 C4 1.240 . S
O27 Mn1 2.117 . S
O27 C4 1.264 . S
C28 C21 1.403 . S
C28 C29 1.399 . S
C28 H34 0.929 . S
C29 C9 1.449 . S
C29 C28 1.399 . S
C29 H35 0.930 . S
H30 C10 0.931 . S
H31 C11 0.930 . S
H32 C19 0.931 . S
H33 C20 0.929 . S
H34 C28 0.929 . S
H35 C29 0.930 . S
Mn36 O41 2.095 . S
Mn36 O51 2.162 . S
Mn36 O52 2.297 . S
Mn36 O60 2.385 . S
Mn36 O61 2.209 . S
Mn36 O62 2.094 . S
Mn37 O42 2.121 . S
Mn37 N44 2.257 . S
Mn37 N53 2.282 . S
Mn37 O61 2.215 . S
Mn37 O63 2.117 . S
C38 O60 1.234 . S
C38 O61 1.283 . S
C39 O51 1.281 . S
C39 O52 1.236 . S
C40 O62 1.240 . S
C40 O63 1.264 . S
O41 Mn36 2.095 . S
O41 C50 1.250 . S
O42 Mn37 2.121 . S
O42 C50 1.258 . S
C43 N44 1.326 . S
C43 C47 1.460 . S
C43 H49 0.929 . S
N44 Mn37 2.257 . S
N44 C43 1.326 . S
N44 C48 1.362 . S
C45 C46 1.258 . S
C45 C48 1.431 . S
C45 C65 1.449 . S
C46 C45 1.258 . S
C46 C47 1.477 . S
C46 H66 0.931 . S
C47 C43 1.460 . S
C47 C46 1.477 . S
C47 H67 0.930 . S
C48 N44 1.362 . S
C48 C45 1.431 . S
C48 C58 1.476 . S
H49 C43 0.929 . S
C50 O41 1.250 . S
C50 O42 1.258 . S
O51 Mn36 2.162 . S
O51 C39 1.281 . S
O52 Mn36 2.297 . S
O52 C39 1.236 . S
N53 Mn37 2.282 . S
N53 C54 1.328 . S
N53 C58 1.318 . S
C54 N53 1.328 . S
C54 C55 1.457 . S
C54 H59 0.929 . S
C55 C54 1.457 . S
C55 C56 1.291 . S
C55 H68 0.931 . S
C56 C55 1.291 . S
C56 C57 1.373 . S
C56 H69 0.929 . S
C57 C56 1.373 . S
C57 C58 1.396 . S
C57 C64 1.403 . S
C58 C48 1.476 . S
C58 N53 1.318 . S
C58 C57 1.396 . S
H59 C54 0.929 . S
O60 Mn36 2.385 . S
O60 C38 1.234 . S
O61 Mn36 2.209 . S
O61 Mn37 2.215 . S
O61 C38 1.283 . S
O62 Mn36 2.094 . S
O62 C40 1.240 . S
O63 Mn37 2.117 . S
O63 C40 1.264 . S
C64 C57 1.403 . S
C64 C65 1.399 . S
C64 H70 0.929 . S
C65 C45 1.449 . S
C65 C64 1.399 . S
C65 H71 0.930 . S
H66 C46 0.931 . S
H67 C47 0.930 . S
H68 C55 0.931 . S
H69 C56 0.929 . S
H70 C64 0.929 . S
H71 C65 0.930 . S
Mn72 O77 2.095 . S
Mn72 O87 2.162 . S
Mn72 O88 2.297 . S
Mn72 O96 2.385 . S
Mn72 O97 2.209 . S
Mn72 O98 2.094 . S
Mn73 O78 2.121 . S
Mn73 N80 2.257 . S
Mn73 N89 2.282 . S
Mn73 O97 2.215 . S
Mn73 O99 2.117 . S
C74 O96 1.234 . S
C74 O97 1.283 . S
C75 O87 1.281 . S
C75 O88 1.236 . S
C76 O98 1.240 . S
C76 O99 1.264 . S
O77 Mn72 2.095 . S
O77 C86 1.250 . S
O78 Mn73 2.121 . S
O78 C86 1.258 . S
C79 N80 1.326 . S
C79 C83 1.460 . S
C79 H85 0.929 . S
N80 Mn73 2.257 . S
N80 C79 1.326 . S
N80 C84 1.362 . S
C81 C82 1.258 . S
C81 C84 1.431 . S
C81 C101 1.449 . S
C82 C81 1.258 . S
C82 C83 1.477 . S
C82 H102 0.931 . S
C83 C79 1.460 . S
C83 C82 1.477 . S
C83 H103 0.930 . S
C84 N80 1.362 . S
C84 C81 1.431 . S
C84 C94 1.476 . S
H85 C79 0.929 . S
C86 O77 1.250 . S
C86 O78 1.258 . S
O87 Mn72 2.162 . S
O87 C75 1.281 . S
O88 Mn72 2.297 . S
O88 C75 1.236 . S
N89 Mn73 2.282 . S
N89 C90 1.328 . S
N89 C94 1.318 . S
C90 N89 1.328 . S
C90 C91 1.457 . S
C90 H95 0.929 . S
C91 C90 1.457 . S
C91 C92 1.291 . S
C91 H104 0.931 . S
C92 C91 1.291 . S
C92 C93 1.373 . S
C92 H105 0.929 . S
C93 C92 1.373 . S
C93 C94 1.396 . S
C93 C100 1.403 . S
C94 C84 1.476 . S
C94 N89 1.318 . S
C94 C93 1.396 . S
H95 C90 0.929 . S
O96 Mn72 2.385 . S
O96 C74 1.234 . S
O97 Mn72 2.209 . S
O97 Mn73 2.215 . S
O97 C74 1.283 . S
O98 Mn72 2.094 . S
O98 C76 1.240 . S
O99 Mn73 2.117 . S
O99 C76 1.264 . S
C100 C93 1.403 . S
C100 C101 1.399 . S
C100 H106 0.929 . S
C101 C81 1.449 . S
C101 C100 1.399 . S
C101 H107 0.930 . S
H102 C82 0.931 . S
H103 C83 0.930 . S
H104 C91 0.931 . S
H105 C92 0.929 . S
H106 C100 0.929 . S
H107 C101 0.930 . S
Mn108 O113 2.095 . S
Mn108 O123 2.162 . S
Mn108 O124 2.297 . S
Mn108 O132 2.385 . S
Mn108 O133 2.209 . S
Mn108 O134 2.094 . S
Mn109 O114 2.121 . S
Mn109 N116 2.257 . S
Mn109 N125 2.282 . S
Mn109 O133 2.215 . S
Mn109 O135 2.117 . S
C110 O132 1.234 . S
C110 O133 1.283 . S
C111 O123 1.281 . S
C111 O124 1.236 . S
C112 O134 1.240 . S
C112 O135 1.264 . S
O113 Mn108 2.095 . S
O113 C122 1.250 . S
O114 Mn109 2.121 . S
O114 C122 1.258 . S
C115 N116 1.326 . S
C115 C119 1.460 . S
C115 H121 0.929 . S
N116 Mn109 2.257 . S
N116 C115 1.326 . S
N116 C120 1.362 . S
C117 C118 1.258 . S
C117 C120 1.431 . S
C117 C137 1.449 . S
C118 C117 1.258 . S
C118 C119 1.477 . S
C118 H138 0.931 . S
C119 C115 1.460 . S
C119 C118 1.477 . S
C119 H139 0.930 . S
C120 N116 1.362 . S
C120 C117 1.431 . S
C120 C130 1.476 . S
H121 C115 0.929 . S
C122 O113 1.250 . S
C122 O114 1.258 . S
O123 Mn108 2.162 . S
O123 C111 1.281 . S
O124 Mn108 2.297 . S
O124 C111 1.236 . S
N125 Mn109 2.282 . S
N125 C126 1.328 . S
N125 C130 1.318 . S
C126 N125 1.328 . S
C126 C127 1.457 . S
C126 H131 0.929 . S
C127 C126 1.457 . S
C127 C128 1.291 . S
C127 H140 0.931 . S
C128 C127 1.291 . S
C128 C129 1.373 . S
C128 H141 0.929 . S
C129 C128 1.373 . S
C129 C130 1.396 . S
C129 C136 1.403 . S
C130 C120 1.476 . S
C130 N125 1.318 . S
C130 C129 1.396 . S
H131 C126 0.929 . S
O132 Mn108 2.385 . S
O132 C110 1.234 . S
O133 Mn108 2.209 . S
O133 Mn109 2.215 . S
O133 C110 1.283 . S
O134 Mn108 2.094 . S
O134 C112 1.240 . S
O135 Mn109 2.117 . S
O135 C112 1.264 . S
C136 C129 1.403 . S
C136 C137 1.399 . S
C136 H142 0.929 . S
C137 C117 1.449 . S
C137 C136 1.399 . S
C137 H143 0.930 . S
H138 C118 0.931 . S
H139 C119 0.930 . S
H140 C127 0.931 . S
H141 C128 0.929 . S
H142 C136 0.929 . S
H143 C137 0.930 . S
Mn144 O149 2.095 . S
Mn144 O159 2.162 . S
Mn144 O160 2.297 . S
Mn144 O168 2.385 . S
Mn144 O169 2.209 . S
Mn144 O170 2.094 . S
Mn145 O150 2.121 . S
Mn145 N152 2.257 . S
Mn145 N161 2.282 . S
Mn145 O169 2.215 . S
Mn145 O171 2.117 . S
C146 O168 1.234 . S
C146 O169 1.283 . S
C147 O159 1.281 . S
C147 O160 1.236 . S
C148 O170 1.240 . S
C148 O171 1.264 . S
O149 Mn144 2.095 . S
O149 C158 1.250 . S
O150 Mn145 2.121 . S
O150 C158 1.258 . S
C151 N152 1.326 . S
C151 C155 1.460 . S
C151 H157 0.929 . S
N152 Mn145 2.257 . S
N152 C151 1.326 . S
N152 C156 1.362 . S
C153 C154 1.258 . S
C153 C156 1.431 . S
C153 C173 1.449 . S
C154 C153 1.258 . S
C154 C155 1.477 . S
C154 H174 0.931 . S
C155 C151 1.460 . S
C155 C154 1.477 . S
C155 H175 0.930 . S
C156 N152 1.362 . S
C156 C153 1.431 . S
C156 C166 1.476 . S
H157 C151 0.929 . S
C158 O149 1.250 . S
C158 O150 1.258 . S
O159 Mn144 2.162 . S
O159 C147 1.281 . S
O160 Mn144 2.297 . S
O160 C147 1.236 . S
N161 Mn145 2.282 . S
N161 C162 1.328 . S
N161 C166 1.318 . S
C162 N161 1.328 . S
C162 C163 1.457 . S
C162 H167 0.929 . S
C163 C162 1.457 . S
C163 C164 1.291 . S
C163 H176 0.931 . S
C164 C163 1.291 . S
C164 C165 1.373 . S
C164 H177 0.929 . S
C165 C164 1.373 . S
C165 C166 1.396 . S
C165 C172 1.403 . S
C166 C156 1.476 . S
C166 N161 1.318 . S
C166 C165 1.396 . S
H167 C162 0.929 . S
O168 Mn144 2.385 . S
O168 C146 1.234 . S
O169 Mn144 2.209 . S
O169 Mn145 2.215 . S
O169 C146 1.283 . S
O170 Mn144 2.094 . S
O170 C148 1.240 . S
O171 Mn145 2.117 . S
O171 C148 1.264 . S
C172 C165 1.403 . S
C172 C173 1.399 . S
C172 H178 0.929 . S
C173 C153 1.449 . S
C173 C172 1.399 . S
C173 H179 0.930 . S
H174 C154 0.931 . S
H175 C155 0.930 . S
H176 C163 0.931 . S
H177 C164 0.929 . S
H178 C172 0.929 . S
H179 C173 0.930 . S
Mn180 O185 2.095 . S
Mn180 O195 2.162 . S
Mn180 O196 2.297 . S
Mn180 O204 2.385 . S
Mn180 O205 2.209 . S
Mn180 O206 2.094 . S
Mn181 O186 2.121 . S
Mn181 N188 2.257 . S
Mn181 N197 2.282 . S
Mn181 O205 2.215 . S
Mn181 O207 2.117 . S
C182 O204 1.234 . S
C182 O205 1.283 . S
C183 O195 1.281 . S
C183 O196 1.236 . S
C184 O206 1.240 . S
C184 O207 1.264 . S
O185 Mn180 2.095 . S
O185 C194 1.250 . S
O186 Mn181 2.121 . S
O186 C194 1.258 . S
C187 N188 1.326 . S
C187 C191 1.460 . S
C187 H193 0.929 . S
N188 Mn181 2.257 . S
N188 C187 1.326 . S
N188 C192 1.362 . S
C189 C190 1.258 . S
C189 C192 1.431 . S
C189 C209 1.449 . S
C190 C189 1.258 . S
C190 C191 1.477 . S
C190 H210 0.931 . S
C191 C187 1.460 . S
C191 C190 1.477 . S
C191 H211 0.930 . S
C192 N188 1.362 . S
C192 C189 1.431 . S
C192 C202 1.476 . S
H193 C187 0.929 . S
C194 O185 1.250 . S
C194 O186 1.258 . S
O195 Mn180 2.162 . S
O195 C183 1.281 . S
O196 Mn180 2.297 . S
O196 C183 1.236 . S
N197 Mn181 2.282 . S
N197 C198 1.328 . S
N197 C202 1.318 . S
C198 N197 1.328 . S
C198 C199 1.457 . S
C198 H203 0.929 . S
C199 C198 1.457 . S
C199 C200 1.291 . S
C199 H212 0.931 . S
C200 C199 1.291 . S
C200 C201 1.373 . S
C200 H213 0.929 . S
C201 C200 1.373 . S
C201 C202 1.396 . S
C201 C208 1.403 . S
C202 C192 1.476 . S
C202 N197 1.318 . S
C202 C201 1.396 . S
H203 C198 0.929 . S
O204 Mn180 2.385 . S
O204 C182 1.234 . S
O205 Mn180 2.209 . S
O205 Mn181 2.215 . S
O205 C182 1.283 . S
O206 Mn180 2.094 . S
O206 C184 1.240 . S
O207 Mn181 2.117 . S
O207 C184 1.264 . S
C208 C201 1.403 . S
C208 C209 1.399 . S
C208 H214 0.929 . S
C209 C189 1.449 . S
C209 C208 1.399 . S
C209 H215 0.930 . S
H210 C190 0.931 . S
H211 C191 0.930 . S
H212 C199 0.931 . S
H213 C200 0.929 . S
H214 C208 0.929 . S
H215 C209 0.930 . S
Mn216 O221 2.095 . S
Mn216 O231 2.162 . S
Mn216 O232 2.297 . S
Mn216 O240 2.385 . S
Mn216 O241 2.209 . S
Mn216 O242 2.094 . S
Mn217 O222 2.121 . S
Mn217 N224 2.257 . S
Mn217 N233 2.282 . S
Mn217 O241 2.215 . S
Mn217 O243 2.117 . S
C218 O240 1.234 . S
C218 O241 1.283 . S
C219 O231 1.281 . S
C219 O232 1.236 . S
C220 O242 1.240 . S
C220 O243 1.264 . S
O221 Mn216 2.095 . S
O221 C230 1.250 . S
O222 Mn217 2.121 . S
O222 C230 1.258 . S
C223 N224 1.326 . S
C223 C227 1.460 . S
C223 H229 0.929 . S
N224 Mn217 2.257 . S
N224 C223 1.326 . S
N224 C228 1.362 . S
C225 C226 1.258 . S
C225 C228 1.431 . S
C225 C245 1.449 . S
C226 C225 1.258 . S
C226 C227 1.477 . S
C226 H246 0.931 . S
C227 C223 1.460 . S
C227 C226 1.477 . S
C227 H247 0.930 . S
C228 N224 1.362 . S
C228 C225 1.431 . S
C228 C238 1.476 . S
H229 C223 0.929 . S
C230 O221 1.250 . S
C230 O222 1.258 . S
O231 Mn216 2.162 . S
O231 C219 1.281 . S
O232 Mn216 2.297 . S
O232 C219 1.236 . S
N233 Mn217 2.282 . S
N233 C234 1.328 . S
N233 C238 1.318 . S
C234 N233 1.328 . S
C234 C235 1.457 . S
C234 H239 0.929 . S
C235 C234 1.457 . S
C235 C236 1.291 . S
C235 H248 0.931 . S
C236 C235 1.291 . S
C236 C237 1.373 . S
C236 H249 0.929 . S
C237 C236 1.373 . S
C237 C238 1.396 . S
C237 C244 1.403 . S
C238 C228 1.476 . S
C238 N233 1.318 . S
C238 C237 1.396 . S
H239 C234 0.929 . S
O240 Mn216 2.385 . S
O240 C218 1.234 . S
O241 Mn216 2.209 . S
O241 Mn217 2.215 . S
O241 C218 1.283 . S
O242 Mn216 2.094 . S
O242 C220 1.240 . S
O243 Mn217 2.117 . S
O243 C220 1.264 . S
C244 C237 1.403 . S
C244 C245 1.399 . S
C244 H250 0.929 . S
C245 C225 1.449 . S
C245 C244 1.399 . S
C245 H251 0.930 . S
H246 C226 0.931 . S
H247 C227 0.930 . S
H248 C235 0.931 . S
H249 C236 0.929 . S
H250 C244 0.929 . S
H251 C245 0.930 . S
Mn252 O257 2.095 . S
Mn252 O267 2.162 . S
Mn252 O268 2.297 . S
Mn252 O276 2.385 . S
Mn252 O277 2.209 . S
Mn252 O278 2.094 . S
Mn253 O258 2.121 . S
Mn253 N260 2.257 . S
Mn253 N269 2.282 . S
Mn253 O277 2.215 . S
Mn253 O279 2.117 . S
C254 O276 1.234 . S
C254 O277 1.283 . S
C255 O267 1.281 . S
C255 O268 1.236 . S
C256 O278 1.240 . S
C256 O279 1.264 . S
O257 Mn252 2.095 . S
O257 C266 1.250 . S
O258 Mn253 2.121 . S
O258 C266 1.258 . S
C259 N260 1.326 . S
C259 C263 1.460 . S
C259 H265 0.929 . S
N260 Mn253 2.257 . S
N260 C259 1.326 . S
N260 C264 1.362 . S
C261 C262 1.258 . S
C261 C264 1.431 . S
C261 C281 1.449 . S
C262 C261 1.258 . S
C262 C263 1.477 . S
C262 H282 0.931 . S
C263 C259 1.460 . S
C263 C262 1.477 . S
C263 H283 0.930 . S
C264 N260 1.362 . S
C264 C261 1.431 . S
C264 C274 1.476 . S
H265 C259 0.929 . S
C266 O257 1.250 . S
C266 O258 1.258 . S
O267 Mn252 2.162 . S
O267 C255 1.281 . S
O268 Mn252 2.297 . S
O268 C255 1.236 . S
N269 Mn253 2.282 . S
N269 C270 1.328 . S
N269 C274 1.318 . S
C270 N269 1.328 . S
C270 C271 1.457 . S
C270 H275 0.929 . S
C271 C270 1.457 . S
C271 C272 1.291 . S
C271 H284 0.931 . S
C272 C271 1.291 . S
C272 C273 1.373 . S
C272 H285 0.929 . S
C273 C272 1.373 . S
C273 C274 1.396 . S
C273 C280 1.403 . S
C274 C264 1.476 . S
C274 N269 1.318 . S
C274 C273 1.396 . S
H275 C270 0.929 . S
O276 Mn252 2.385 . S
O276 C254 1.234 . S
O277 Mn252 2.209 . S
O277 Mn253 2.215 . S
O277 C254 1.283 . S
O278 Mn252 2.094 . S
O278 C256 1.240 . S
O279 Mn253 2.117 . S
O279 C256 1.264 . S
C280 C273 1.403 . S
C280 C281 1.399 . S
C280 H286 0.929 . S
C281 C261 1.449 . S
C281 C280 1.399 . S
C281 H287 0.930 . S
H282 C262 0.931 . S
H283 C263 0.930 . S
H284 C271 0.931 . S
H285 C272 0.929 . S
H286 C280 0.929 . S
H287 C281 0.930 . S
Mn288 O293 2.095 . S
Mn288 O303 2.162 . S
Mn288 O304 2.297 . S
Mn288 O312 2.385 . S
Mn288 O313 2.209 . S
Mn288 O314 2.094 . S
Mn289 O294 2.121 . S
Mn289 N296 2.257 . S
Mn289 N305 2.282 . S
Mn289 O313 2.215 . S
Mn289 O315 2.117 . S
C290 O312 1.234 . S
C290 O313 1.283 . S
C291 O303 1.281 . S
C291 O304 1.236 . S
C292 O314 1.240 . S
C292 O315 1.264 . S
O293 Mn288 2.095 . S
O293 C302 1.250 . S
O294 Mn289 2.121 . S
O294 C302 1.258 . S
C295 N296 1.326 . S
C295 C299 1.460 . S
C295 H301 0.929 . S
N296 Mn289 2.257 . S
N296 C295 1.326 . S
N296 C300 1.362 . S
C297 C298 1.258 . S
C297 C300 1.431 . S
C297 C317 1.449 . S
C298 C297 1.258 . S
C298 C299 1.477 . S
C298 H318 0.931 . S
C299 C295 1.460 . S
C299 C298 1.477 . S
C299 H319 0.930 . S
C300 N296 1.362 . S
C300 C297 1.431 . S
C300 C310 1.476 . S
H301 C295 0.929 . S
C302 O293 1.250 . S
C302 O294 1.258 . S
O303 Mn288 2.162 . S
O303 C291 1.281 . S
O304 Mn288 2.297 . S
O304 C291 1.236 . S
N305 Mn289 2.282 . S
N305 C306 1.328 . S
N305 C310 1.318 . S
C306 N305 1.328 . S
C306 C307 1.457 . S
C306 H311 0.929 . S
C307 C306 1.457 . S
C307 C308 1.291 . S
C307 H320 0.931 . S
C308 C307 1.291 . S
C308 C309 1.373 . S
C308 H321 0.929 . S
C309 C308 1.373 . S
C309 C310 1.396 . S
C309 C316 1.403 . S
C310 C300 1.476 . S
C310 N305 1.318 . S
C310 C309 1.396 . S
H311 C306 0.929 . S
O312 Mn288 2.385 . S
O312 C290 1.234 . S
O313 Mn288 2.209 . S
O313 Mn289 2.215 . S
O313 C290 1.283 . S
O314 Mn288 2.094 . S
O314 C292 1.240 . S
O315 Mn289 2.117 . S
O315 C292 1.264 . S
C316 C309 1.403 . S
C316 C317 1.399 . S
C316 H322 0.929 . S
C317 C297 1.449 . S
C317 C316 1.399 . S
C317 H323 0.930 . S
H318 C298 0.931 . S
H319 C299 0.930 . S
H320 C307 0.931 . S
H321 C308 0.929 . S
H322 C316 0.929 . S
H323 C317 0.930 . S
Mn324 O329 2.095 . S
Mn324 O339 2.162 . S
Mn324 O340 2.297 . S
Mn324 O348 2.385 . S
Mn324 O349 2.209 . S
Mn324 O350 2.094 . S
Mn325 O330 2.121 . S
Mn325 N332 2.257 . S
Mn325 N341 2.282 . S
Mn325 O349 2.215 . S
Mn325 O351 2.117 . S
C326 O348 1.234 . S
C326 O349 1.283 . S
C327 O339 1.281 . S
C327 O340 1.236 . S
C328 O350 1.240 . S
C328 O351 1.264 . S
O329 Mn324 2.095 . S
O329 C338 1.250 . S
O330 Mn325 2.121 . S
O330 C338 1.258 . S
C331 N332 1.326 . S
C331 C335 1.460 . S
C331 H337 0.929 . S
N332 Mn325 2.257 . S
N332 C331 1.326 . S
N332 C336 1.362 . S
C333 C334 1.258 . S
C333 C336 1.431 . S
C333 C353 1.449 . S
C334 C333 1.258 . S
C334 C335 1.477 . S
C334 H354 0.931 . S
C335 C331 1.460 . S
C335 C334 1.477 . S
C335 H355 0.930 . S
C336 N332 1.362 . S
C336 C333 1.431 . S
C336 C346 1.476 . S
H337 C331 0.929 . S
C338 O329 1.250 . S
C338 O330 1.258 . S
O339 Mn324 2.162 . S
O339 C327 1.281 . S
O340 Mn324 2.297 . S
O340 C327 1.236 . S
N341 Mn325 2.282 . S
N341 C342 1.328 . S
N341 C346 1.318 . S
C342 N341 1.328 . S
C342 C343 1.457 . S
C342 H347 0.929 . S
C343 C342 1.457 . S
C343 C344 1.291 . S
C343 H356 0.931 . S
C344 C343 1.291 . S
C344 C345 1.373 . S
C344 H357 0.929 . S
C345 C344 1.373 . S
C345 C346 1.396 . S
C345 C352 1.403 . S
C346 C336 1.476 . S
C346 N341 1.318 . S
C346 C345 1.396 . S
H347 C342 0.929 . S
O348 Mn324 2.385 . S
O348 C326 1.234 . S
O349 Mn324 2.209 . S
O349 Mn325 2.215 . S
O349 C326 1.283 . S
O350 Mn324 2.094 . S
O350 C328 1.240 . S
O351 Mn325 2.117 . S
O351 C328 1.264 . S
C352 C345 1.403 . S
C352 C353 1.399 . S
C352 H358 0.929 . S
C353 C333 1.449 . S
C353 C352 1.399 . S
C353 H359 0.930 . S
H354 C334 0.931 . S
H355 C335 0.930 . S
H356 C343 0.931 . S
H357 C344 0.929 . S
H358 C352 0.929 . S
H359 C353 0.930 . S
Mn360 O365 2.095 . S
Mn360 O375 2.162 . S
Mn360 O376 2.297 . S
Mn360 O384 2.385 . S
Mn360 O385 2.209 . S
Mn360 O386 2.094 . S
Mn361 O366 2.121 . S
Mn361 N368 2.257 . S
Mn361 N377 2.282 . S
Mn361 O385 2.215 . S
Mn361 O387 2.117 . S
C362 O384 1.234 . S
C362 O385 1.283 . S
C363 O375 1.281 . S
C363 O376 1.236 . S
C364 O386 1.240 . S
C364 O387 1.264 . S
O365 Mn360 2.095 . S
O365 C374 1.250 . S
O366 Mn361 2.121 . S
O366 C374 1.258 . S
C367 N368 1.326 . S
C367 C371 1.460 . S
C367 H373 0.929 . S
N368 Mn361 2.257 . S
N368 C367 1.326 . S
N368 C372 1.362 . S
C369 C370 1.258 . S
C369 C372 1.431 . S
C369 C389 1.449 . S
C370 C369 1.258 . S
C370 C371 1.477 . S
C370 H390 0.931 . S
C371 C367 1.460 . S
C371 C370 1.477 . S
C371 H391 0.930 . S
C372 N368 1.362 . S
C372 C369 1.431 . S
C372 C382 1.476 . S
H373 C367 0.929 . S
C374 O365 1.250 . S
C374 O366 1.258 . S
O375 Mn360 2.162 . S
O375 C363 1.281 . S
O376 Mn360 2.297 . S
O376 C363 1.236 . S
N377 Mn361 2.282 . S
N377 C378 1.328 . S
N377 C382 1.318 . S
C378 N377 1.328 . S
C378 C379 1.457 . S
C378 H383 0.929 . S
C379 C378 1.457 . S
C379 C380 1.291 . S
C379 H392 0.931 . S
C380 C379 1.291 . S
C380 C381 1.373 . S
C380 H393 0.929 . S
C381 C380 1.373 . S
C381 C382 1.396 . S
C381 C388 1.403 . S
C382 C372 1.476 . S
C382 N377 1.318 . S
C382 C381 1.396 . S
H383 C378 0.929 . S
O384 Mn360 2.385 . S
O384 C362 1.234 . S
O385 Mn360 2.209 . S
O385 Mn361 2.215 . S
O385 C362 1.283 . S
O386 Mn360 2.094 . S
O386 C364 1.240 . S
O387 Mn361 2.117 . S
O387 C364 1.264 . S
C388 C381 1.403 . S
C388 C389 1.399 . S
C388 H394 0.929 . S
C389 C369 1.449 . S
C389 C388 1.399 . S
C389 H395 0.930 . S
H390 C370 0.931 . S
H391 C371 0.930 . S
H392 C379 0.931 . S
H393 C380 0.929 . S
H394 C388 0.929 . S
H395 C389 0.930 . S
Mn396 O401 2.095 . S
Mn396 O411 2.162 . S
Mn396 O412 2.297 . S
Mn396 O420 2.385 . S
Mn396 O421 2.209 . S
Mn396 O422 2.094 . S
Mn397 O402 2.121 . S
Mn397 N404 2.257 . S
Mn397 N413 2.282 . S
Mn397 O421 2.215 . S
Mn397 O423 2.117 . S
C398 O420 1.234 . S
C398 O421 1.283 . S
C399 O411 1.281 . S
C399 O412 1.236 . S
C400 O422 1.240 . S
C400 O423 1.264 . S
O401 Mn396 2.095 . S
O401 C410 1.250 . S
O402 Mn397 2.121 . S
O402 C410 1.258 . S
C403 N404 1.326 . S
C403 C407 1.460 . S
C403 H409 0.929 . S
N404 Mn397 2.257 . S
N404 C403 1.326 . S
N404 C408 1.362 . S
C405 C406 1.258 . S
C405 C408 1.431 . S
C405 C425 1.449 . S
C406 C405 1.258 . S
C406 C407 1.477 . S
C406 H426 0.931 . S
C407 C403 1.460 . S
C407 C406 1.477 . S
C407 H427 0.930 . S
C408 N404 1.362 . S
C408 C405 1.431 . S
C408 C418 1.476 . S
H409 C403 0.929 . S
C410 O401 1.250 . S
C410 O402 1.258 . S
O411 Mn396 2.162 . S
O411 C399 1.281 . S
O412 Mn396 2.297 . S
O412 C399 1.236 . S
N413 Mn397 2.282 . S
N413 C414 1.328 . S
N413 C418 1.318 . S
C414 N413 1.328 . S
C414 C415 1.457 . S
C414 H419 0.929 . S
C415 C414 1.457 . S
C415 C416 1.291 . S
C415 H428 0.931 . S
C416 C415 1.291 . S
C416 C417 1.373 . S
C416 H429 0.929 . S
C417 C416 1.373 . S
C417 C418 1.396 . S
C417 C424 1.403 . S
C418 C408 1.476 . S
C418 N413 1.318 . S
C418 C417 1.396 . S
H419 C414 0.929 . S
O420 Mn396 2.385 . S
O420 C398 1.234 . S
O421 Mn396 2.209 . S
O421 Mn397 2.215 . S
O421 C398 1.283 . S
O422 Mn396 2.094 . S
O422 C400 1.240 . S
O423 Mn397 2.117 . S
O423 C400 1.264 . S
C424 C417 1.403 . S
C424 C425 1.399 . S
C424 H430 0.929 . S
C425 C405 1.449 . S
C425 C424 1.399 . S
C425 H431 0.930 . S
H426 C406 0.931 . S
H427 C407 0.930 . S
H428 C415 0.931 . S
H429 C416 0.929 . S
H430 C424 0.929 . S
H431 C425 0.930 . S
Mn432 O437 2.095 . S
Mn432 O447 2.162 . S
Mn432 O448 2.297 . S
Mn432 O456 2.385 . S
Mn432 O457 2.209 . S
Mn432 O458 2.094 . S
Mn433 O438 2.121 . S
Mn433 N440 2.257 . S
Mn433 N449 2.282 . S
Mn433 O457 2.215 . S
Mn433 O459 2.117 . S
C434 O456 1.234 . S
C434 O457 1.283 . S
C435 O447 1.281 . S
C435 O448 1.236 . S
C436 O458 1.240 . S
C436 O459 1.264 . S
O437 Mn432 2.095 . S
O437 C446 1.250 . S
O438 Mn433 2.121 . S
O438 C446 1.258 . S
C439 N440 1.326 . S
C439 C443 1.460 . S
C439 H445 0.929 . S
N440 Mn433 2.257 . S
N440 C439 1.326 . S
N440 C444 1.362 . S
C441 C442 1.258 . S
C441 C444 1.431 . S
C441 C461 1.449 . S
C442 C441 1.258 . S
C442 C443 1.477 . S
C442 H462 0.931 . S
C443 C439 1.460 . S
C443 C442 1.477 . S
C443 H463 0.930 . S
C444 N440 1.362 . S
C444 C441 1.431 . S
C444 C454 1.476 . S
H445 C439 0.929 . S
C446 O437 1.250 . S
C446 O438 1.258 . S
O447 Mn432 2.162 . S
O447 C435 1.281 . S
O448 Mn432 2.297 . S
O448 C435 1.236 . S
N449 Mn433 2.282 . S
N449 C450 1.328 . S
N449 C454 1.318 . S
C450 N449 1.328 . S
C450 C451 1.457 . S
C450 H455 0.929 . S
C451 C450 1.457 . S
C451 C452 1.291 . S
C451 H464 0.931 . S
C452 C451 1.291 . S
C452 C453 1.373 . S
C452 H465 0.929 . S
C453 C452 1.373 . S
C453 C454 1.396 . S
C453 C460 1.403 . S
C454 C444 1.476 . S
C454 N449 1.318 . S
C454 C453 1.396 . S
H455 C450 0.929 . S
O456 Mn432 2.385 . S
O456 C434 1.234 . S
O457 Mn432 2.209 . S
O457 Mn433 2.215 . S
O457 C434 1.283 . S
O458 Mn432 2.094 . S
O458 C436 1.240 . S
O459 Mn433 2.117 . S
O459 C436 1.264 . S
C460 C453 1.403 . S
C460 C461 1.399 . S
C460 H466 0.929 . S
C461 C441 1.449 . S
C461 C460 1.399 . S
C461 H467 0.930 . S
H462 C442 0.931 . S
H463 C443 0.930 . S
H464 C451 0.931 . S
H465 C452 0.929 . S
H466 C460 0.929 . S
H467 C461 0.930 . S
Mn468 O473 2.095 . S
Mn468 O483 2.162 . S
Mn468 O484 2.297 . S
Mn468 O492 2.385 . S
Mn468 O493 2.209 . S
Mn468 O494 2.094 . S
Mn469 O474 2.121 . S
Mn469 N476 2.257 . S
Mn469 N485 2.282 . S
Mn469 O493 2.215 . S
Mn469 O495 2.117 . S
C470 O492 1.234 . S
C470 O493 1.283 . S
C471 O483 1.281 . S
C471 O484 1.236 . S
C472 O494 1.240 . S
C472 O495 1.264 . S
O473 Mn468 2.095 . S
O473 C482 1.250 . S
O474 Mn469 2.121 . S
O474 C482 1.258 . S
C475 N476 1.326 . S
C475 C479 1.460 . S
C475 H481 0.929 . S
N476 Mn469 2.257 . S
N476 C475 1.326 . S
N476 C480 1.362 . S
C477 C478 1.258 . S
C477 C480 1.431 . S
C477 C497 1.449 . S
C478 C477 1.258 . S
C478 C479 1.477 . S
C478 H498 0.931 . S
C479 C475 1.460 . S
C479 C478 1.477 . S
C479 H499 0.930 . S
C480 N476 1.362 . S
C480 C477 1.431 . S
C480 C490 1.476 . S
H481 C475 0.929 . S
C482 O473 1.250 . S
C482 O474 1.258 . S
O483 Mn468 2.162 . S
O483 C471 1.281 . S
O484 Mn468 2.297 . S
O484 C471 1.236 . S
N485 Mn469 2.282 . S
N485 C486 1.328 . S
N485 C490 1.318 . S
C486 N485 1.328 . S
C486 C487 1.457 . S
C486 H491 0.929 . S
C487 C486 1.457 . S
C487 C488 1.291 . S
C487 H500 0.931 . S
C488 C487 1.291 . S
C488 C489 1.373 . S
C488 H501 0.929 . S
C489 C488 1.373 . S
C489 C490 1.396 . S
C489 C496 1.403 . S
C490 C480 1.476 . S
C490 N485 1.318 . S
C490 C489 1.396 . S
H491 C486 0.929 . S
O492 Mn468 2.385 . S
O492 C470 1.234 . S
O493 Mn468 2.209 . S
O493 Mn469 2.215 . S
O493 C470 1.283 . S
O494 Mn468 2.094 . S
O494 C472 1.240 . S
O495 Mn469 2.117 . S
O495 C472 1.264 . S
C496 C489 1.403 . S
C496 C497 1.399 . S
C496 H502 0.929 . S
C497 C477 1.449 . S
C497 C496 1.399 . S
C497 H503 0.930 . S
H498 C478 0.931 . S
H499 C479 0.930 . S
H500 C487 0.931 . S
H501 C488 0.929 . S
H502 C496 0.929 . S
H503 C497 0.930 . S
Mn504 O509 2.095 . S
Mn504 O519 2.162 . S
Mn504 O520 2.297 . S
Mn504 O528 2.385 . S
Mn504 O529 2.209 . S
Mn504 O530 2.094 . S
Mn505 O510 2.121 . S
Mn505 N512 2.257 . S
Mn505 N521 2.282 . S
Mn505 O529 2.215 . S
Mn505 O531 2.117 . S
C506 O528 1.234 . S
C506 O529 1.283 . S
C507 O519 1.281 . S
C507 O520 1.236 . S
C508 O530 1.240 . S
C508 O531 1.264 . S
O509 Mn504 2.095 . S
O509 C518 1.250 . S
O510 Mn505 2.121 . S
O510 C518 1.258 . S
C511 N512 1.326 . S
C511 C515 1.460 . S
C511 H517 0.929 . S
N512 Mn505 2.257 . S
N512 C511 1.326 . S
N512 C516 1.362 . S
C513 C514 1.258 . S
C513 C516 1.431 . S
C513 C533 1.449 . S
C514 C513 1.258 . S
C514 C515 1.477 . S
C514 H534 0.931 . S
C515 C511 1.460 . S
C515 C514 1.477 . S
C515 H535 0.930 . S
C516 N512 1.362 . S
C516 C513 1.431 . S
C516 C526 1.476 . S
H517 C511 0.929 . S
C518 O509 1.250 . S
C518 O510 1.258 . S
O519 Mn504 2.162 . S
O519 C507 1.281 . S
O520 Mn504 2.297 . S
O520 C507 1.236 . S
N521 Mn505 2.282 . S
N521 C522 1.328 . S
N521 C526 1.318 . S
C522 N521 1.328 . S
C522 C523 1.457 . S
C522 H527 0.929 . S
C523 C522 1.457 . S
C523 C524 1.291 . S
C523 H536 0.931 . S
C524 C523 1.291 . S
C524 C525 1.373 . S
C524 H537 0.929 . S
C525 C524 1.373 . S
C525 C526 1.396 . S
C525 C532 1.403 . S
C526 C516 1.476 . S
C526 N521 1.318 . S
C526 C525 1.396 . S
H527 C522 0.929 . S
O528 Mn504 2.385 . S
O528 C506 1.234 . S
O529 Mn504 2.209 . S
O529 Mn505 2.215 . S
O529 C506 1.283 . S
O530 Mn504 2.094 . S
O530 C508 1.240 . S
O531 Mn505 2.117 . S
O531 C508 1.264 . S
C532 C525 1.403 . S
C532 C533 1.399 . S
C532 H538 0.929 . S
C533 C513 1.449 . S
C533 C532 1.399 . S
C533 H539 0.930 . S
H534 C514 0.931 . S
H535 C515 0.930 . S
H536 C523 0.931 . S
H537 C524 0.929 . S
H538 C532 0.929 . S
H539 C533 0.930 . S
Mn540 O545 2.095 . S
Mn540 O555 2.162 . S
Mn540 O556 2.297 . S
Mn540 O564 2.385 . S
Mn540 O565 2.209 . S
Mn540 O566 2.094 . S
Mn541 O546 2.121 . S
Mn541 N548 2.257 . S
Mn541 N557 2.282 . S
Mn541 O565 2.215 . S
Mn541 O567 2.117 . S
C542 O564 1.234 . S
C542 O565 1.283 . S
C543 O555 1.281 . S
C543 O556 1.236 . S
C544 O566 1.240 . S
C544 O567 1.264 . S
O545 Mn540 2.095 . S
O545 C554 1.250 . S
O546 Mn541 2.121 . S
O546 C554 1.258 . S
C547 N548 1.326 . S
C547 C551 1.460 . S
C547 H553 0.929 . S
N548 Mn541 2.257 . S
N548 C547 1.326 . S
N548 C552 1.362 . S
C549 C550 1.258 . S
C549 C552 1.431 . S
C549 C569 1.449 . S
C550 C549 1.258 . S
C550 C551 1.477 . S
C550 H570 0.931 . S
C551 C547 1.460 . S
C551 C550 1.477 . S
C551 H571 0.930 . S
C552 N548 1.362 . S
C552 C549 1.431 . S
C552 C562 1.476 . S
H553 C547 0.929 . S
C554 O545 1.250 . S
C554 O546 1.258 . S
O555 Mn540 2.162 . S
O555 C543 1.281 . S
O556 Mn540 2.297 . S
O556 C543 1.236 . S
N557 Mn541 2.282 . S
N557 C558 1.328 . S
N557 C562 1.318 . S
C558 N557 1.328 . S
C558 C559 1.457 . S
C558 H563 0.929 . S
C559 C558 1.457 . S
C559 C560 1.291 . S
C559 H572 0.931 . S
C560 C559 1.291 . S
C560 C561 1.373 . S
C560 H573 0.929 . S
C561 C560 1.373 . S
C561 C562 1.396 . S
C561 C568 1.403 . S
C562 C552 1.476 . S
C562 N557 1.318 . S
C562 C561 1.396 . S
H563 C558 0.929 . S
O564 Mn540 2.385 . S
O564 C542 1.234 . S
O565 Mn540 2.209 . S
O565 Mn541 2.215 . S
O565 C542 1.283 . S
O566 Mn540 2.094 . S
O566 C544 1.240 . S
O567 Mn541 2.117 . S
O567 C544 1.264 . S
C568 C561 1.403 . S
C568 C569 1.399 . S
C568 H574 0.929 . S
C569 C549 1.449 . S
C569 C568 1.399 . S
C569 H575 0.930 . S
H570 C550 0.931 . S
H571 C551 0.930 . S
H572 C559 0.931 . S
H573 C560 0.929 . S
H574 C568 0.929 . S
H575 C569 0.930 . S
H576 C584 0.929 . S
H577 C586 0.930 . S
H578 C588 0.930 . S
H579 C591 0.929 . S
H580 C594 0.930 . S
H581 C596 0.960 . S
H582 C596 0.960 . S
H583 C596 0.960 . S
C584 H576 0.929 . S
C584 C585 1.377 . S
C584 C586 1.384 . S
C585 C584 1.377 . S
C585 C591 1.390 . S
C586 H577 0.930 . S
C586 C584 1.384 . S
C586 C587 1.372 . S
C587 C586 1.372 . S
C587 C588 1.400 . S
C587 C592 1.490 . S
C588 H578 0.930 . S
C588 C587 1.400 . S
C588 C591 1.386 . S
H589 C605 0.930 . S
H590 C606 0.931 . S
C591 H579 0.929 . S
C591 C585 1.390 . S
C591 C588 1.386 . S
C592 C587 1.490 . S
C592 C594 1.395 . S
C592 C595 1.403 . S
H593 C599 0.930 . S
C594 H580 0.930 . S
C594 C592 1.395 . S
C594 C597 1.403 . S
C595 C592 1.403 . S
C595 C596 1.524 . S
C595 C599 1.400 . S
C596 H581 0.960 . S
C596 H582 0.960 . S
C596 H583 0.960 . S
C596 C595 1.524 . S
C597 C594 1.403 . S
C597 C598 1.392 . S
C597 C601 1.495 . S
C598 C597 1.392 . S
C598 C599 1.385 . S
C598 C600 1.478 . S
C599 H593 0.930 . S
C599 C595 1.400 . S
C599 C598 1.385 . S
C600 C598 1.478 . S
C600 C602 1.381 . S
C600 C606 1.383 . S
C601 C597 1.495 . S
C601 H607 0.959 . S
C601 H608 0.961 . S
C601 H609 0.960 . S
C602 C600 1.381 . S
C602 C603 1.394 . S
C602 H610 0.930 . S
C603 C602 1.394 . S
C603 C604 1.383 . S
C603 H611 0.929 . S
C604 C603 1.383 . S
C604 C605 1.377 . S
C605 H589 0.930 . S
C605 C604 1.377 . S
C605 C606 1.379 . S
C606 H590 0.931 . S
C606 C600 1.383 . S
C606 C605 1.379 . S
H607 C601 0.959 . S
H608 C601 0.961 . S
H609 C601 0.960 . S
H610 C602 0.930 . S
H611 C603 0.929 . S
H612 C620 0.929 . S
H613 C622 0.930 . S
H614 C624 0.930 . S
H615 C627 0.929 . S
H616 C630 0.930 . S
H617 C632 0.960 . S
H618 C632 0.960 . S
H619 C632 0.960 . S
C620 H612 0.929 . S
C620 C621 1.377 . S
C620 C622 1.384 . S
C621 C620 1.377 . S
C621 C627 1.390 . S
C622 H613 0.930 . S
C622 C620 1.384 . S
C622 C623 1.372 . S
C623 C622 1.372 . S
C623 C624 1.400 . S
C623 C628 1.490 . S
C624 H614 0.930 . S
C624 C623 1.400 . S
C624 C627 1.386 . S
H625 C641 0.930 . S
H626 C642 0.931 . S
C627 H615 0.929 . S
C627 C621 1.390 . S
C627 C624 1.386 . S
C628 C623 1.490 . S
C628 C630 1.395 . S
C628 C631 1.403 . S
H629 C635 0.930 . S
C630 H616 0.930 . S
C630 C628 1.395 . S
C630 C633 1.403 . S
C631 C628 1.403 . S
C631 C632 1.524 . S
C631 C635 1.400 . S
C632 H617 0.960 . S
C632 H618 0.960 . S
C632 H619 0.960 . S
C632 C631 1.524 . S
C633 C630 1.403 . S
C633 C634 1.392 . S
C633 C637 1.495 . S
C634 C633 1.392 . S
C634 C635 1.385 . S
C634 C636 1.478 . S
C635 H629 0.930 . S
C635 C631 1.400 . S
C635 C634 1.385 . S
C636 C634 1.478 . S
C636 C638 1.381 . S
C636 C642 1.383 . S
C637 C633 1.495 . S
C637 H643 0.959 . S
C637 H644 0.961 . S
C637 H645 0.960 . S
C638 C636 1.381 . S
C638 C639 1.394 . S
C638 H646 0.930 . S
C639 C638 1.394 . S
C639 C640 1.383 . S
C639 H647 0.929 . S
C640 C639 1.383 . S
C640 C641 1.377 . S
C641 H625 0.930 . S
C641 C640 1.377 . S
C641 C642 1.379 . S
C642 H626 0.931 . S
C642 C636 1.383 . S
C642 C641 1.379 . S
H643 C637 0.959 . S
H644 C637 0.961 . S
H645 C637 0.960 . S
H646 C638 0.930 . S
H647 C639 0.929 . S
H648 C656 0.929 . S
H649 C658 0.930 . S
H650 C660 0.930 . S
H651 C663 0.929 . S
H652 C666 0.930 . S
H653 C668 0.960 . S
H654 C668 0.960 . S
H655 C668 0.960 . S
C656 H648 0.929 . S
C656 C657 1.377 . S
C656 C658 1.384 . S
C657 C656 1.377 . S
C657 C663 1.390 . S
C658 H649 0.930 . S
C658 C656 1.384 . S
C658 C659 1.372 . S
C659 C658 1.372 . S
C659 C660 1.400 . S
C659 C664 1.490 . S
C660 H650 0.930 . S
C660 C659 1.400 . S
C660 C663 1.386 . S
H661 C677 0.930 . S
H662 C678 0.931 . S
C663 H651 0.929 . S
C663 C657 1.390 . S
C663 C660 1.386 . S
C664 C659 1.490 . S
C664 C666 1.395 . S
C664 C667 1.403 . S
H665 C671 0.930 . S
C666 H652 0.930 . S
C666 C664 1.395 . S
C666 C669 1.403 . S
C667 C664 1.403 . S
C667 C668 1.524 . S
C667 C671 1.400 . S
C668 H653 0.960 . S
C668 H654 0.960 . S
C668 H655 0.960 . S
C668 C667 1.524 . S
C669 C666 1.403 . S
C669 C670 1.392 . S
C669 C673 1.495 . S
C670 C669 1.392 . S
C670 C671 1.385 . S
C670 C672 1.478 . S
C671 H665 0.930 . S
C671 C667 1.400 . S
C671 C670 1.385 . S
C672 C670 1.478 . S
C672 C674 1.381 . S
C672 C678 1.383 . S
C673 C669 1.495 . S
C673 H679 0.959 . S
C673 H680 0.961 . S
C673 H681 0.960 . S
C674 C672 1.381 . S
C674 C675 1.394 . S
C674 H682 0.930 . S
C675 C674 1.394 . S
C675 C676 1.383 . S
C675 H683 0.929 . S
C676 C675 1.383 . S
C676 C677 1.377 . S
C677 H661 0.930 . S
C677 C676 1.377 . S
C677 C678 1.379 . S
C678 H662 0.931 . S
C678 C672 1.383 . S
C678 C677 1.379 . S
H679 C673 0.959 . S
H680 C673 0.961 . S
H681 C673 0.960 . S
H682 C674 0.930 . S
H683 C675 0.929 . S
H684 C692 0.929 . S
H685 C694 0.930 . S
H686 C696 0.930 . S
H687 C699 0.929 . S
H688 C702 0.930 . S
H689 C704 0.960 . S
H690 C704 0.960 . S
H691 C704 0.960 . S
C692 H684 0.929 . S
C692 C693 1.377 . S
C692 C694 1.384 . S
C693 C692 1.377 . S
C693 C699 1.390 . S
C694 H685 0.930 . S
C694 C692 1.384 . S
C694 C695 1.372 . S
C695 C694 1.372 . S
C695 C696 1.400 . S
C695 C700 1.490 . S
C696 H686 0.930 . S
C696 C695 1.400 . S
C696 C699 1.386 . S
H697 C713 0.930 . S
H698 C714 0.931 . S
C699 H687 0.929 . S
C699 C693 1.390 . S
C699 C696 1.386 . S
C700 C695 1.490 . S
C700 C702 1.395 . S
C700 C703 1.403 . S
H701 C707 0.930 . S
C702 H688 0.930 . S
C702 C700 1.395 . S
C702 C705 1.403 . S
C703 C700 1.403 . S
C703 C704 1.524 . S
C703 C707 1.400 . S
C704 H689 0.960 . S
C704 H690 0.960 . S
C704 H691 0.960 . S
C704 C703 1.524 . S
C705 C702 1.403 . S
C705 C706 1.392 . S
C705 C709 1.495 . S
C706 C705 1.392 . S
C706 C707 1.385 . S
C706 C708 1.478 . S
C707 H701 0.930 . S
C707 C703 1.400 . S
C707 C706 1.385 . S
C708 C706 1.478 . S
C708 C710 1.381 . S
C708 C714 1.383 . S
C709 C705 1.495 . S
C709 H715 0.959 . S
C709 H716 0.961 . S
C709 H717 0.960 . S
C710 C708 1.381 . S
C710 C711 1.394 . S
C710 H718 0.930 . S
C711 C710 1.394 . S
C711 C712 1.383 . S
C711 H719 0.929 . S
C712 C711 1.383 . S
C712 C713 1.377 . S
C713 H697 0.930 . S
C713 C712 1.377 . S
C713 C714 1.379 . S
C714 H698 0.931 . S
C714 C708 1.383 . S
C714 C713 1.379 . S
H715 C709 0.959 . S
H716 C709 0.961 . S
H717 C709 0.960 . S
H718 C710 0.930 . S
H719 C711 0.929 . S
H720 C728 0.929 . S
H721 C730 0.930 . S
H722 C732 0.930 . S
H723 C735 0.929 . S
H724 C738 0.930 . S
H725 C740 0.960 . S
H726 C740 0.960 . S
H727 C740 0.960 . S
C728 H720 0.929 . S
C728 C729 1.377 . S
C728 C730 1.384 . S
C729 C728 1.377 . S
C729 C735 1.390 . S
C730 H721 0.930 . S
C730 C728 1.384 . S
C730 C731 1.372 . S
C731 C730 1.372 . S
C731 C732 1.400 . S
C731 C736 1.490 . S
C732 H722 0.930 . S
C732 C731 1.400 . S
C732 C735 1.386 . S
H733 C749 0.930 . S
H734 C750 0.931 . S
C735 H723 0.929 . S
C735 C729 1.390 . S
C735 C732 1.386 . S
C736 C731 1.490 . S
C736 C738 1.395 . S
C736 C739 1.403 . S
H737 C743 0.930 . S
C738 H724 0.930 . S
C738 C736 1.395 . S
C738 C741 1.403 . S
C739 C736 1.403 . S
C739 C740 1.524 . S
C739 C743 1.400 . S
C740 H725 0.960 . S
C740 H726 0.960 . S
C740 H727 0.960 . S
C740 C739 1.524 . S
C741 C738 1.403 . S
C741 C742 1.392 . S
C741 C745 1.495 . S
C742 C741 1.392 . S
C742 C743 1.385 . S
C742 C744 1.478 . S
C743 H737 0.930 . S
C743 C739 1.400 . S
C743 C742 1.385 . S
C744 C742 1.478 . S
C744 C746 1.381 . S
C744 C750 1.383 . S
C745 C741 1.495 . S
C745 H751 0.959 . S
C745 H752 0.961 . S
C745 H753 0.960 . S
C746 C744 1.381 . S
C746 C747 1.394 . S
C746 H754 0.930 . S
C747 C746 1.394 . S
C747 C748 1.383 . S
C747 H755 0.929 . S
C748 C747 1.383 . S
C748 C749 1.377 . S
C749 H733 0.930 . S
C749 C748 1.377 . S
C749 C750 1.379 . S
C750 H734 0.931 . S
C750 C744 1.383 . S
C750 C749 1.379 . S
H751 C745 0.959 . S
H752 C745 0.961 . S
H753 C745 0.960 . S
H754 C746 0.930 . S
H755 C747 0.929 . S
H756 C764 0.929 . S
H757 C766 0.930 . S
H758 C768 0.930 . S
H759 C771 0.929 . S
H760 C774 0.930 . S
H761 C776 0.960 . S
H762 C776 0.960 . S
H763 C776 0.960 . S
C764 H756 0.929 . S
C764 C765 1.377 . S
C764 C766 1.384 . S
C765 C764 1.377 . S
C765 C771 1.390 . S
C766 H757 0.930 . S
C766 C764 1.384 . S
C766 C767 1.372 . S
C767 C766 1.372 . S
C767 C768 1.400 . S
C767 C772 1.490 . S
C768 H758 0.930 . S
C768 C767 1.400 . S
C768 C771 1.386 . S
H769 C785 0.930 . S
H770 C786 0.931 . S
C771 H759 0.929 . S
C771 C765 1.390 . S
C771 C768 1.386 . S
C772 C767 1.490 . S
C772 C774 1.395 . S
C772 C775 1.403 . S
H773 C779 0.930 . S
C774 H760 0.930 . S
C774 C772 1.395 . S
C774 C777 1.403 . S
C775 C772 1.403 . S
C775 C776 1.524 . S
C775 C779 1.400 . S
C776 H761 0.960 . S
C776 H762 0.960 . S
C776 H763 0.960 . S
C776 C775 1.524 . S
C777 C774 1.403 . S
C777 C778 1.392 . S
C777 C781 1.495 . S
C778 C777 1.392 . S
C778 C779 1.385 . S
C778 C780 1.478 . S
C779 H773 0.930 . S
C779 C775 1.400 . S
C779 C778 1.385 . S
C780 C778 1.478 . S
C780 C782 1.381 . S
C780 C786 1.383 . S
C781 C777 1.495 . S
C781 H787 0.959 . S
C781 H788 0.961 . S
C781 H789 0.960 . S
C782 C780 1.381 . S
C782 C783 1.394 . S
C782 H790 0.930 . S
C783 C782 1.394 . S
C783 C784 1.383 . S
C783 H791 0.929 . S
C784 C783 1.383 . S
C784 C785 1.377 . S
C785 H769 0.930 . S
C785 C784 1.377 . S
C785 C786 1.379 . S
C786 H770 0.931 . S
C786 C780 1.383 . S
C786 C785 1.379 . S
H787 C781 0.959 . S
H788 C781 0.961 . S
H789 C781 0.960 . S
H790 C782 0.930 . S
H791 C783 0.929 . S
H792 C800 0.929 . S
H793 C802 0.930 . S
H794 C804 0.930 . S
H795 C807 0.929 . S
H796 C810 0.930 . S
H797 C812 0.960 . S
H798 C812 0.960 . S
H799 C812 0.960 . S
C800 H792 0.929 . S
C800 C801 1.377 . S
C800 C802 1.384 . S
C801 C800 1.377 . S
C801 C807 1.390 . S
C802 H793 0.930 . S
C802 C800 1.384 . S
C802 C803 1.372 . S
C803 C802 1.372 . S
C803 C804 1.400 . S
C803 C808 1.490 . S
C804 H794 0.930 . S
C804 C803 1.400 . S
C804 C807 1.386 . S
H805 C821 0.930 . S
H806 C822 0.931 . S
C807 H795 0.929 . S
C807 C801 1.390 . S
C807 C804 1.386 . S
C808 C803 1.490 . S
C808 C810 1.395 . S
C808 C811 1.403 . S
H809 C815 0.930 . S
C810 H796 0.930 . S
C810 C808 1.395 . S
C810 C813 1.403 . S
C811 C808 1.403 . S
C811 C812 1.524 . S
C811 C815 1.400 . S
C812 H797 0.960 . S
C812 H798 0.960 . S
C812 H799 0.960 . S
C812 C811 1.524 . S
C813 C810 1.403 . S
C813 C814 1.392 . S
C813 C817 1.495 . S
C814 C813 1.392 . S
C814 C815 1.385 . S
C814 C816 1.478 . S
C815 H809 0.930 . S
C815 C811 1.400 . S
C815 C814 1.385 . S
C816 C814 1.478 . S
C816 C818 1.381 . S
C816 C822 1.383 . S
C817 C813 1.495 . S
C817 H823 0.959 . S
C817 H824 0.961 . S
C817 H825 0.960 . S
C818 C816 1.381 . S
C818 C819 1.394 . S
C818 H826 0.930 . S
C819 C818 1.394 . S
C819 C820 1.383 . S
C819 H827 0.929 . S
C820 C819 1.383 . S
C820 C821 1.377 . S
C821 H805 0.930 . S
C821 C820 1.377 . S
C821 C822 1.379 . S
C822 H806 0.931 . S
C822 C816 1.383 . S
C822 C821 1.379 . S
H823 C817 0.959 . S
H824 C817 0.961 . S
H825 C817 0.960 . S
H826 C818 0.930 . S
H827 C819 0.929 . S
H828 C836 0.929 . S
H829 C838 0.930 . S
H830 C840 0.930 . S
H831 C843 0.929 . S
H832 C846 0.930 . S
H833 C848 0.960 . S
H834 C848 0.960 . S
H835 C848 0.960 . S
C836 H828 0.929 . S
C836 C837 1.377 . S
C836 C838 1.384 . S
C837 C836 1.377 . S
C837 C843 1.390 . S
C838 H829 0.930 . S
C838 C836 1.384 . S
C838 C839 1.372 . S
C839 C838 1.372 . S
C839 C840 1.400 . S
C839 C844 1.490 . S
C840 H830 0.930 . S
C840 C839 1.400 . S
C840 C843 1.386 . S
H841 C857 0.930 . S
H842 C858 0.931 . S
C843 H831 0.929 . S
C843 C837 1.390 . S
C843 C840 1.386 . S
C844 C839 1.490 . S
C844 C846 1.395 . S
C844 C847 1.403 . S
H845 C851 0.930 . S
C846 H832 0.930 . S
C846 C844 1.395 . S
C846 C849 1.403 . S
C847 C844 1.403 . S
C847 C848 1.524 . S
C847 C851 1.400 . S
C848 H833 0.960 . S
C848 H834 0.960 . S
C848 H835 0.960 . S
C848 C847 1.524 . S
C849 C846 1.403 . S
C849 C850 1.392 . S
C849 C853 1.495 . S
C850 C849 1.392 . S
C850 C851 1.385 . S
C850 C852 1.478 . S
C851 H845 0.930 . S
C851 C847 1.400 . S
C851 C850 1.385 . S
C852 C850 1.478 . S
C852 C854 1.381 . S
C852 C858 1.383 . S
C853 C849 1.495 . S
C853 H859 0.959 . S
C853 H860 0.961 . S
C853 H861 0.960 . S
C854 C852 1.381 . S
C854 C855 1.394 . S
C854 H862 0.930 . S
C855 C854 1.394 . S
C855 C856 1.383 . S
C855 H863 0.929 . S
C856 C855 1.383 . S
C856 C857 1.377 . S
C857 H841 0.930 . S
C857 C856 1.377 . S
C857 C858 1.379 . S
C858 H842 0.931 . S
C858 C852 1.383 . S
C858 C857 1.379 . S
H859 C853 0.959 . S
H860 C853 0.961 . S
H861 C853 0.960 . S
H862 C854 0.930 . S
H863 C855 0.929 . S
H864 C872 0.929 . S
H865 C874 0.930 . S
H866 C876 0.930 . S
H867 C879 0.929 . S
H868 C882 0.930 . S
H869 C884 0.960 . S
H870 C884 0.960 . S
H871 C884 0.960 . S
C872 H864 0.929 . S
C872 C873 1.377 . S
C872 C874 1.384 . S
C873 C872 1.377 . S
C873 C879 1.390 . S
C874 H865 0.930 . S
C874 C872 1.384 . S
C874 C875 1.372 . S
C875 C874 1.372 . S
C875 C876 1.400 . S
C875 C880 1.490 . S
C876 H866 0.930 . S
C876 C875 1.400 . S
C876 C879 1.386 . S
H877 C893 0.930 . S
H878 C894 0.931 . S
C879 H867 0.929 . S
C879 C873 1.390 . S
C879 C876 1.386 . S
C880 C875 1.490 . S
C880 C882 1.395 . S
C880 C883 1.403 . S
H881 C887 0.930 . S
C882 H868 0.930 . S
C882 C880 1.395 . S
C882 C885 1.403 . S
C883 C880 1.403 . S
C883 C884 1.524 . S
C883 C887 1.400 . S
C884 H869 0.960 . S
C884 H870 0.960 . S
C884 H871 0.960 . S
C884 C883 1.524 . S
C885 C882 1.403 . S
C885 C886 1.392 . S
C885 C889 1.495 . S
C886 C885 1.392 . S
C886 C887 1.385 . S
C886 C888 1.478 . S
C887 H881 0.930 . S
C887 C883 1.400 . S
C887 C886 1.385 . S
C888 C886 1.478 . S
C888 C890 1.381 . S
C888 C894 1.383 . S
C889 C885 1.495 . S
C889 H895 0.959 . S
C889 H896 0.961 . S
C889 H897 0.960 . S
C890 C888 1.381 . S
C890 C891 1.394 . S
C890 H898 0.930 . S
C891 C890 1.394 . S
C891 C892 1.383 . S
C891 H899 0.929 . S
C892 C891 1.383 . S
C892 C893 1.377 . S
C893 H877 0.930 . S
C893 C892 1.377 . S
C893 C894 1.379 . S
C894 H878 0.931 . S
C894 C888 1.383 . S
C894 C893 1.379 . S
H895 C889 0.959 . S
H896 C889 0.961 . S
H897 C889 0.960 . S
H898 C890 0.930 . S
H899 C891 0.929 . S
H900 C908 0.929 . S
H901 C910 0.930 . S
H902 C912 0.930 . S
H903 C915 0.929 . S
H904 C918 0.930 . S
H905 C920 0.960 . S
H906 C920 0.960 . S
H907 C920 0.960 . S
C908 H900 0.929 . S
C908 C909 1.377 . S
C908 C910 1.384 . S
C909 C908 1.377 . S
C909 C915 1.390 . S
C910 H901 0.930 . S
C910 C908 1.384 . S
C910 C911 1.372 . S
C911 C910 1.372 . S
C911 C912 1.400 . S
C911 C916 1.490 . S
C912 H902 0.930 . S
C912 C911 1.400 . S
C912 C915 1.386 . S
H913 C929 0.930 . S
H914 C930 0.931 . S
C915 H903 0.929 . S
C915 C909 1.390 . S
C915 C912 1.386 . S
C916 C911 1.490 . S
C916 C918 1.395 . S
C916 C919 1.403 . S
H917 C923 0.930 . S
C918 H904 0.930 . S
C918 C916 1.395 . S
C918 C921 1.403 . S
C919 C916 1.403 . S
C919 C920 1.524 . S
C919 C923 1.400 . S
C920 H905 0.960 . S
C920 H906 0.960 . S
C920 H907 0.960 . S
C920 C919 1.524 . S
C921 C918 1.403 . S
C921 C922 1.392 . S
C921 C925 1.495 . S
C922 C921 1.392 . S
C922 C923 1.385 . S
C922 C924 1.478 . S
C923 H917 0.930 . S
C923 C919 1.400 . S
C923 C922 1.385 . S
C924 C922 1.478 . S
C924 C926 1.381 . S
C924 C930 1.383 . S
C925 C921 1.495 . S
C925 H931 0.959 . S
C925 H932 0.961 . S
C925 H933 0.960 . S
C926 C924 1.381 . S
C926 C927 1.394 . S
C926 H934 0.930 . S
C927 C926 1.394 . S
C927 C928 1.383 . S
C927 H935 0.929 . S
C928 C927 1.383 . S
C928 C929 1.377 . S
C929 H913 0.930 . S
C929 C928 1.377 . S
C929 C930 1.379 . S
C930 H914 0.931 . S
C930 C924 1.383 . S
C930 C929 1.379 . S
H931 C925 0.959 . S
H932 C925 0.961 . S
H933 C925 0.960 . S
H934 C926 0.930 . S
H935 C927 0.929 . S
H936 C944 0.929 . S
H937 C946 0.930 . S
H938 C948 0.930 . S
H939 C951 0.929 . S
H940 C954 0.930 . S
H941 C956 0.960 . S
H942 C956 0.960 . S
H943 C956 0.960 . S
C944 H936 0.929 . S
C944 C945 1.377 . S
C944 C946 1.384 . S
C945 C944 1.377 . S
C945 C951 1.390 . S
C946 H937 0.930 . S
C946 C944 1.384 . S
C946 C947 1.372 . S
C947 C946 1.372 . S
C947 C948 1.400 . S
C947 C952 1.490 . S
C948 H938 0.930 . S
C948 C947 1.400 . S
C948 C951 1.386 . S
H949 C965 0.930 . S
H950 C966 0.931 . S
C951 H939 0.929 . S
C951 C945 1.390 . S
C951 C948 1.386 . S
C952 C947 1.490 . S
C952 C954 1.395 . S
C952 C955 1.403 . S
H953 C959 0.930 . S
C954 H940 0.930 . S
C954 C952 1.395 . S
C954 C957 1.403 . S
C955 C952 1.403 . S
C955 C956 1.524 . S
C955 C959 1.400 . S
C956 H941 0.960 . S
C956 H942 0.960 . S
C956 H943 0.960 . S
C956 C955 1.524 . S
C957 C954 1.403 . S
C957 C958 1.392 . S
C957 C961 1.495 . S
C958 C957 1.392 . S
C958 C959 1.385 . S
C958 C960 1.478 . S
C959 H953 0.930 . S
C959 C955 1.400 . S
C959 C958 1.385 . S
C960 C958 1.478 . S
C960 C962 1.381 . S
C960 C966 1.383 . S
C961 C957 1.495 . S
C961 H967 0.959 . S
C961 H968 0.961 . S
C961 H969 0.960 . S
C962 C960 1.381 . S
C962 C963 1.394 . S
C962 H970 0.930 . S
C963 C962 1.394 . S
C963 C964 1.383 . S
C963 H971 0.929 . S
C964 C963 1.383 . S
C964 C965 1.377 . S
C965 H949 0.930 . S
C965 C964 1.377 . S
C965 C966 1.379 . S
C966 H950 0.931 . S
C966 C960 1.383 . S
C966 C965 1.379 . S
H967 C961 0.959 . S
H968 C961 0.961 . S
H969 C961 0.960 . S
H970 C962 0.930 . S
H971 C963 0.929 . S
H972 C980 0.929 . S
H973 C982 0.930 . S
H974 C984 0.930 . S
H975 C987 0.929 . S
H976 C990 0.930 . S
H977 C992 0.960 . S
H978 C992 0.960 . S
H979 C992 0.960 . S
C980 H972 0.929 . S
C980 C981 1.377 . S
C980 C982 1.384 . S
C981 C980 1.377 . S
C981 C987 1.390 . S
C982 H973 0.930 . S
C982 C980 1.384 . S
C982 C983 1.372 . S
C983 C982 1.372 . S
C983 C984 1.400 . S
C983 C988 1.490 . S
C984 H974 0.930 . S
C984 C983 1.400 . S
C984 C987 1.386 . S
H985 C1001 0.930 . S
H986 C1002 0.931 . S
C987 H975 0.929 . S
C987 C981 1.390 . S
C987 C984 1.386 . S
C988 C983 1.490 . S
C988 C990 1.395 . S
C988 C991 1.403 . S
H989 C995 0.930 . S
C990 H976 0.930 . S
C990 C988 1.395 . S
C990 C993 1.403 1_554 S
C991 C988 1.403 . S
C991 C992 1.524 . S
C991 C995 1.400 1_554 S
C992 H977 0.960 . S
C992 H978 0.960 . S
C992 H979 0.960 . S
C992 C991 1.524 . S
C993 C990 1.403 1_556 S
C993 C994 1.392 . S
C993 C997 1.495 . S
C994 C993 1.392 . S
C994 C995 1.385 . S
C994 C996 1.478 . S
C995 H989 0.930 . S
C995 C991 1.400 1_556 S
C995 C994 1.385 . S
C996 C994 1.478 . S
C996 C998 1.381 . S
C996 C1002 1.383 . S
C997 C993 1.495 . S
C997 H1003 0.959 . S
C997 H1004 0.961 . S
C997 H1005 0.960 . S
C998 C996 1.381 . S
C998 C999 1.394 . S
C998 H1006 0.930 . S
C999 C998 1.394 . S
C999 C1000 1.383 . S
C999 H1007 0.929 . S
C1000 C999 1.383 . S
C1000 C1001 1.377 . S
C1001 H985 0.930 . S
C1001 C1000 1.377 . S
C1001 C1002 1.379 . S
C1002 H986 0.931 . S
C1002 C996 1.383 . S
C1002 C1001 1.379 . S
H1003 C997 0.959 . S
H1004 C997 0.961 . S
H1005 C997 0.960 . S
H1006 C998 0.930 . S
H1007 C999 0.929 . S
H1008 C1016 0.929 . S
H1009 C1018 0.930 . S
H1010 C1020 0.930 . S
H1011 C1023 0.929 . S
H1012 C1026 0.930 . S
H1013 C1028 0.960 . S
H1014 C1028 0.960 . S
H1015 C1028 0.960 . S
C1016 H1008 0.929 . S
C1016 C1017 1.377 . S
C1016 C1018 1.384 . S
C1017 C1016 1.377 . S
C1017 C1023 1.390 . S
C1018 H1009 0.930 . S
C1018 C1016 1.384 . S
C1018 C1019 1.372 . S
C1019 C1018 1.372 . S
C1019 C1020 1.400 . S
C1019 C1024 1.490 . S
C1020 H1010 0.930 . S
C1020 C1019 1.400 . S
C1020 C1023 1.386 . S
H1021 C1037 0.930 . S
H1022 C1038 0.931 . S
C1023 H1011 0.929 . S
C1023 C1017 1.390 . S
C1023 C1020 1.386 . S
C1024 C1019 1.490 . S
C1024 C1026 1.395 . S
C1024 C1027 1.403 . S
H1025 C1031 0.930 . S
C1026 H1012 0.930 . S
C1026 C1024 1.395 . S
C1026 C1029 1.403 1_554 S
C1027 C1024 1.403 . S
C1027 C1028 1.524 . S
C1027 C1031 1.400 1_554 S
C1028 H1013 0.960 . S
C1028 H1014 0.960 . S
C1028 H1015 0.960 . S
C1028 C1027 1.524 . S
C1029 C1026 1.403 1_556 S
C1029 C1030 1.392 . S
C1029 C1033 1.495 . S
C1030 C1029 1.392 . S
C1030 C1031 1.385 . S
C1030 C1032 1.478 . S
C1031 H1025 0.930 . S
C1031 C1027 1.400 1_556 S
C1031 C1030 1.385 . S
C1032 C1030 1.478 . S
C1032 C1034 1.381 . S
C1032 C1038 1.383 . S
C1033 C1029 1.495 . S
C1033 H1039 0.959 . S
C1033 H1040 0.961 . S
C1033 H1041 0.960 . S
C1034 C1032 1.381 . S
C1034 C1035 1.394 . S
C1034 H1042 0.930 . S
C1035 C1034 1.394 . S
C1035 C1036 1.383 . S
C1035 H1043 0.929 . S
C1036 C1035 1.383 . S
C1036 C1037 1.377 . S
C1037 H1021 0.930 . S
C1037 C1036 1.377 . S
C1037 C1038 1.379 . S
C1038 H1022 0.931 . S
C1038 C1032 1.383 . S
C1038 C1037 1.379 . S
H1039 C1033 0.959 . S
H1040 C1033 0.961 . S
H1041 C1033 0.960 . S
H1042 C1034 0.930 . S
H1043 C1035 0.929 . S
H1044 C1052 0.929 . S
H1045 C1054 0.930 . S
H1046 C1056 0.930 . S
H1047 C1059 0.929 . S
H1048 C1062 0.930 . S
H1049 C1064 0.960 . S
H1050 C1064 0.960 . S
H1051 C1064 0.960 . S
C1052 H1044 0.929 . S
C1052 C1053 1.377 . S
C1052 C1054 1.384 . S
C1053 C1052 1.377 . S
C1053 C1059 1.390 . S
C1054 H1045 0.930 . S
C1054 C1052 1.384 . S
C1054 C1055 1.372 . S
C1055 C1054 1.372 . S
C1055 C1056 1.400 . S
C1055 C1060 1.490 . S
C1056 H1046 0.930 . S
C1056 C1055 1.400 . S
C1056 C1059 1.386 . S
H1057 C1073 0.930 . S
H1058 C1074 0.931 . S
C1059 H1047 0.929 . S
C1059 C1053 1.390 . S
C1059 C1056 1.386 . S
C1060 C1055 1.490 . S
C1060 C1062 1.395 . S
C1060 C1063 1.403 . S
H1061 C1067 0.930 . S
C1062 H1048 0.930 . S
C1062 C1060 1.395 . S
C1062 C1065 1.403 . S
C1063 C1060 1.403 . S
C1063 C1064 1.524 . S
C1063 C1067 1.400 . S
C1064 H1049 0.960 . S
C1064 H1050 0.960 . S
C1064 H1051 0.960 . S
C1064 C1063 1.524 . S
C1065 C1062 1.403 . S
C1065 C1066 1.392 . S
C1065 C1069 1.495 . S
C1066 C1065 1.392 . S
C1066 C1067 1.385 . S
C1066 C1068 1.478 . S
C1067 H1061 0.930 . S
C1067 C1063 1.400 . S
C1067 C1066 1.385 . S
C1068 C1066 1.478 . S
C1068 C1070 1.381 . S
C1068 C1074 1.383 . S
C1069 C1065 1.495 . S
C1069 H1075 0.959 . S
C1069 H1076 0.961 . S
C1069 H1077 0.960 . S
C1070 C1068 1.381 . S
C1070 C1071 1.394 . S
C1070 H1078 0.930 . S
C1071 C1070 1.394 . S
C1071 C1072 1.383 . S
C1071 H1079 0.929 . S
C1072 C1071 1.383 . S
C1072 C1073 1.377 . S
C1073 H1057 0.930 . S
C1073 C1072 1.377 . S
C1073 C1074 1.379 . S
C1074 H1058 0.931 . S
C1074 C1068 1.383 . S
C1074 C1073 1.379 . S
H1075 C1069 0.959 . S
H1076 C1069 0.961 . S
H1077 C1069 0.960 . S
H1078 C1070 0.930 . S
H1079 C1071 0.929 . S
H1080 C1088 0.929 . S
H1081 C1090 0.930 . S
H1082 C1092 0.930 . S
H1083 C1095 0.929 . S
H1084 C1098 0.930 . S
H1085 C1100 0.960 . S
H1086 C1100 0.960 . S
H1087 C1100 0.960 . S
C1088 H1080 0.929 . S
C1088 C1089 1.377 . S
C1088 C1090 1.384 . S
C1089 C1088 1.377 . S
C1089 C1095 1.390 . S
C1090 H1081 0.930 . S
C1090 C1088 1.384 . S
C1090 C1091 1.372 . S
C1091 C1090 1.372 . S
C1091 C1092 1.400 . S
C1091 C1096 1.490 . S
C1092 H1082 0.930 . S
C1092 C1091 1.400 . S
C1092 C1095 1.386 . S
H1093 C1109 0.930 . S
H1094 C1110 0.931 . S
C1095 H1083 0.929 . S
C1095 C1089 1.390 . S
C1095 C1092 1.386 . S
C1096 C1091 1.490 . S
C1096 C1098 1.395 . S
C1096 C1099 1.403 . S
H1097 C1103 0.930 . S
C1098 H1084 0.930 . S
C1098 C1096 1.395 . S
C1098 C1101 1.403 . S
C1099 C1096 1.403 . S
C1099 C1100 1.524 . S
C1099 C1103 1.400 . S
C1100 H1085 0.960 . S
C1100 H1086 0.960 . S
C1100 H1087 0.960 . S
C1100 C1099 1.524 . S
C1101 C1098 1.403 . S
C1101 C1102 1.392 . S
C1101 C1105 1.495 . S
C1102 C1101 1.392 . S
C1102 C1103 1.385 . S
C1102 C1104 1.478 . S
C1103 H1097 0.930 . S
C1103 C1099 1.400 . S
C1103 C1102 1.385 . S
C1104 C1102 1.478 . S
C1104 C1106 1.381 . S
C1104 C1110 1.383 . S
C1105 C1101 1.495 . S
C1105 H1111 0.959 . S
C1105 H1112 0.961 . S
C1105 H1113 0.960 . S
C1106 C1104 1.381 . S
C1106 C1107 1.394 . S
C1106 H1114 0.930 . S
C1107 C1106 1.394 . S
C1107 C1108 1.383 . S
C1107 H1115 0.929 . S
C1108 C1107 1.383 . S
C1108 C1109 1.377 . S
C1109 H1093 0.930 . S
C1109 C1108 1.377 . S
C1109 C1110 1.379 . S
C1110 H1094 0.931 . S
C1110 C1104 1.383 . S
C1110 C1109 1.379 . S
H1111 C1105 0.959 . S
H1112 C1105 0.961 . S
H1113 C1105 0.960 . S
H1114 C1106 0.930 . S
H1115 C1107 0.929 . S
H1116 C1124 0.929 . S
H1117 C1126 0.930 . S
H1118 C1128 0.930 . S
H1119 C1131 0.929 . S
H1120 C1134 0.930 . S
H1121 C1136 0.960 . S
H1122 C1136 0.960 . S
H1123 C1136 0.960 . S
C1124 H1116 0.929 . S
C1124 C1125 1.377 . S
C1124 C1126 1.384 . S
C1125 C1124 1.377 . S
C1125 C1131 1.390 . S
C1126 H1117 0.930 . S
C1126 C1124 1.384 . S
C1126 C1127 1.372 . S
C1127 C1126 1.372 . S
C1127 C1128 1.400 . S
C1127 C1132 1.490 . S
C1128 H1118 0.930 . S
C1128 C1127 1.400 . S
C1128 C1131 1.386 . S
H1129 C1145 0.930 . S
H1130 C1146 0.931 . S
C1131 H1119 0.929 . S
C1131 C1125 1.390 . S
C1131 C1128 1.386 . S
C1132 C1127 1.490 . S
C1132 C1134 1.395 . S
C1132 C1135 1.403 . S
H1133 C1139 0.930 . S
C1134 H1120 0.930 . S
C1134 C1132 1.395 . S
C1134 C1137 1.403 . S
C1135 C1132 1.403 . S
C1135 C1136 1.524 . S
C1135 C1139 1.400 . S
C1136 H1121 0.960 . S
C1136 H1122 0.960 . S
C1136 H1123 0.960 . S
C1136 C1135 1.524 . S
C1137 C1134 1.403 . S
C1137 C1138 1.392 . S
C1137 C1141 1.495 . S
C1138 C1137 1.392 . S
C1138 C1139 1.385 . S
C1138 C1140 1.478 . S
C1139 H1133 0.930 . S
C1139 C1135 1.400 . S
C1139 C1138 1.385 . S
C1140 C1138 1.478 . S
C1140 C1142 1.381 . S
C1140 C1146 1.383 . S
C1141 C1137 1.495 . S
C1141 H1147 0.959 . S
C1141 H1148 0.961 . S
C1141 H1149 0.960 . S
C1142 C1140 1.381 . S
C1142 C1143 1.394 . S
C1142 H1150 0.930 . S
C1143 C1142 1.394 . S
C1143 C1144 1.383 . S
C1143 H1151 0.929 . S
C1144 C1143 1.383 . S
C1144 C1145 1.377 . S
C1145 H1129 0.930 . S
C1145 C1144 1.377 . S
C1145 C1146 1.379 . S
C1146 H1130 0.931 . S
C1146 C1140 1.383 . S
C1146 C1145 1.379 . S
H1147 C1141 0.959 . S
H1148 C1141 0.961 . S
H1149 C1141 0.960 . S
H1150 C1142 0.930 . S
H1151 C1143 0.929 . S
H1152 C1160 0.929 . S
H1153 C1162 0.930 . S
H1154 C1164 0.930 . S
H1155 C1167 0.929 . S
H1156 C1170 0.930 . S
H1157 C1172 0.960 . S
H1158 C1172 0.960 1_455 S
H1159 C1172 0.960 1_455 S
C1160 H1152 0.929 . S
C1160 C1161 1.377 . S
C1160 C1162 1.384 . S
C1161 C1160 1.377 . S
C1161 C1167 1.390 . S
C1162 H1153 0.930 . S
C1162 C1160 1.384 . S
C1162 C1163 1.372 . S
C1163 C1162 1.372 . S
C1163 C1164 1.400 . S
C1163 C1168 1.490 . S
C1164 H1154 0.930 . S
C1164 C1163 1.400 . S
C1164 C1167 1.386 . S
H1165 C1181 0.930 . S
H1166 C1182 0.931 . S
C1167 H1155 0.929 . S
C1167 C1161 1.390 . S
C1167 C1164 1.386 . S
C1168 C1163 1.490 . S
C1168 C1170 1.395 1_545 S
C1168 C1171 1.425 . S
H1169 C1175 0.930 . S
C1170 H1156 0.930 . S
C1170 C1168 1.395 1_565 S
C1170 C1173 1.403 . S
C1171 C1168 1.425 . S
C1171 C1172 1.522 1_455 S
C1171 C1175 1.379 1_455 S
C1172 H1157 0.960 . S
C1172 H1158 0.960 1_655 S
C1172 H1159 0.960 1_655 S
C1172 C1171 1.522 1_655 S
C1173 C1170 1.403 . S
C1173 C1174 1.392 1_455 S
C1173 C1177 1.495 . S
C1174 C1173 1.392 1_655 S
C1174 C1175 1.385 1_565 S
C1174 C1176 1.478 . S
C1175 H1169 0.930 . S
C1175 C1171 1.379 1_655 S
C1175 C1174 1.385 1_545 S
C1176 C1174 1.478 . S
C1176 C1178 1.381 . S
C1176 C1182 1.383 . S
C1177 C1173 1.495 . S
C1177 H1183 0.959 . S
C1177 H1184 0.961 1_455 S
C1177 H1185 0.960 1_455 S
C1178 C1176 1.381 . S
C1178 C1179 1.394 . S
C1178 H1186 0.930 . S
C1179 C1178 1.394 . S
C1179 C1180 1.383 . S
C1179 H1187 0.929 . S
C1180 C1179 1.383 . S
C1180 C1181 1.377 . S
C1181 H1165 0.930 . S
C1181 C1180 1.377 . S
C1181 C1182 1.379 . S
C1182 H1166 0.931 . S
C1182 C1176 1.383 . S
C1182 C1181 1.379 . S
H1183 C1177 0.959 . S
H1184 C1177 0.961 1_655 S
H1185 C1177 0.960 1_655 S
H1186 C1178 0.930 . S
H1187 C1179 0.929 . S
H1188 C1196 0.929 . S
H1189 C1198 0.930 . S
H1190 C1200 0.930 . S
H1191 C1203 0.929 . S
H1192 C1206 0.930 . S
H1193 C1208 0.960 . S
H1194 C1208 0.960 . S
H1195 C1208 0.960 . S
C1196 H1188 0.929 . S
C1196 C1197 1.377 . S
C1196 C1198 1.384 . S
C1197 C1196 1.377 . S
C1197 C1203 1.390 . S
C1198 H1189 0.930 . S
C1198 C1196 1.384 . S
C1198 C1199 1.372 . S
C1199 C1198 1.372 . S
C1199 C1200 1.400 . S
C1199 C1204 1.490 . S
C1200 H1190 0.930 . S
C1200 C1199 1.400 . S
C1200 C1203 1.386 . S
H1201 C1217 0.930 . S
H1202 C1218 0.931 . S
C1203 H1191 0.929 . S
C1203 C1197 1.390 . S
C1203 C1200 1.386 . S
C1204 C1199 1.490 . S
C1204 C1206 1.395 1_455 S
C1204 C1207 1.403 . S
H1205 C1211 0.930 . S
C1206 H1192 0.930 . S
C1206 C1204 1.395 1_655 S
C1206 C1209 1.403 . S
C1207 C1204 1.403 . S
C1207 C1208 1.524 . S
C1207 C1211 1.400 . S
C1208 H1193 0.960 . S
C1208 H1194 0.960 . S
C1208 H1195 0.960 . S
C1208 C1207 1.524 . S
C1209 C1206 1.403 . S
C1209 C1210 1.392 . S
C1209 C1213 1.495 . S
C1210 C1209 1.392 . S
C1210 C1211 1.385 1_655 S
C1210 C1212 1.478 . S
C1211 H1205 0.930 . S
C1211 C1207 1.400 . S
C1211 C1210 1.385 1_455 S
C1212 C1210 1.478 . S
C1212 C1214 1.381 . S
C1212 C1218 1.383 . S
C1213 C1209 1.495 . S
C1213 H1219 0.959 . S
C1213 H1220 0.961 . S
C1213 H1221 0.960 . S
C1214 C1212 1.381 . S
C1214 C1215 1.394 . S
C1214 H1222 0.930 . S
C1215 C1214 1.394 . S
C1215 C1216 1.383 . S
C1215 H1223 0.929 . S
C1216 C1215 1.383 . S
C1216 C1217 1.377 . S
C1217 H1201 0.930 . S
C1217 C1216 1.377 . S
C1217 C1218 1.379 . S
C1218 H1202 0.931 . S
C1218 C1212 1.383 . S
C1218 C1217 1.379 . S
H1219 C1213 0.959 . S
H1220 C1213 0.961 . S
H1221 C1213 0.960 . S
H1222 C1214 0.930 . S
H1223 C1215 0.929 . S
H1224 C1232 0.929 . S
H1225 C1234 0.930 . S
H1226 C1236 0.930 . S
H1227 C1239 0.929 . S
H1228 C1242 0.930 . S
H1229 C1244 0.960 . S
H1230 C1244 0.960 . S
H1231 C1244 0.960 . S
C1232 H1224 0.929 . S
C1232 C1233 1.377 . S
C1232 C1234 1.384 . S
C1233 C1232 1.377 . S
C1233 C1239 1.390 . S
C1234 H1225 0.930 . S
C1234 C1232 1.384 . S
C1234 C1235 1.372 . S
C1235 C1234 1.372 . S
C1235 C1236 1.400 . S
C1235 C1240 1.490 . S
C1236 H1226 0.930 . S
C1236 C1235 1.400 . S
C1236 C1239 1.386 . S
H1237 C1253 0.930 . S
H1238 C1254 0.931 . S
C1239 H1227 0.929 . S
C1239 C1233 1.390 . S
C1239 C1236 1.386 . S
C1240 C1235 1.490 . S
C1240 C1242 1.395 . S
C1240 C1243 1.403 . S
H1241 C1247 0.930 . S
C1242 H1228 0.930 . S
C1242 C1240 1.395 . S
C1242 C1245 1.403 . S
C1243 C1240 1.403 . S
C1243 C1244 1.524 . S
C1243 C1247 1.400 . S
C1244 H1229 0.960 . S
C1244 H1230 0.960 . S
C1244 H1231 0.960 . S
C1244 C1243 1.524 . S
C1245 C1242 1.403 . S
C1245 C1246 1.392 . S
C1245 C1249 1.495 . S
C1246 C1245 1.392 . S
C1246 C1247 1.385 . S
C1246 C1248 1.478 . S
C1247 H1241 0.930 . S
C1247 C1243 1.400 . S
C1247 C1246 1.385 . S
C1248 C1246 1.478 . S
C1248 C1250 1.381 . S
C1248 C1254 1.383 . S
C1249 C1245 1.495 . S
C1249 H1255 0.959 . S
C1249 H1256 0.961 . S
C1249 H1257 0.960 . S
C1250 C1248 1.381 . S
C1250 C1251 1.394 . S
C1250 H1258 0.930 . S
C1251 C1250 1.394 . S
C1251 C1252 1.383 . S
C1251 H1259 0.929 . S
C1252 C1251 1.383 . S
C1252 C1253 1.377 . S
C1253 H1237 0.930 . S
C1253 C1252 1.377 . S
C1253 C1254 1.379 . S
C1254 H1238 0.931 . S
C1254 C1248 1.383 . S
C1254 C1253 1.379 . S
H1255 C1249 0.959 . S
H1256 C1249 0.961 . S
H1257 C1249 0.960 . S
H1258 C1250 0.930 . S
H1259 C1251 0.929 . S
H1260 C1268 0.929 . S
H1261 C1270 0.930 . S
H1262 C1272 0.930 . S
H1263 C1275 0.929 . S
H1264 C1278 0.930 . S
H1265 C1280 0.960 1_565 S
H1266 C1280 0.960 . S
H1267 C1280 0.960 . S
C1268 H1260 0.929 . S
C1268 C1269 1.377 . S
C1268 C1270 1.384 . S
C1269 C1268 1.377 . S
C1269 C1275 1.390 . S
C1270 H1261 0.930 . S
C1270 C1268 1.384 . S
C1270 C1271 1.372 . S
C1271 C1270 1.372 . S
C1271 C1272 1.400 . S
C1271 C1276 1.490 . S
C1272 H1262 0.930 . S
C1272 C1271 1.400 . S
C1272 C1275 1.386 . S
H1273 C1289 0.930 . S
H1274 C1290 0.931 . S
C1275 H1263 0.929 . S
C1275 C1269 1.390 . S
C1275 C1272 1.386 . S
C1276 C1271 1.490 . S
C1276 C1278 1.395 . S
C1276 C1279 1.403 . S
H1277 C1283 0.930 . S
C1278 H1264 0.930 . S
C1278 C1276 1.395 . S
C1278 C1281 1.403 1_545 S
C1279 C1276 1.403 . S
C1279 C1280 1.524 . S
C1279 C1283 1.400 1_545 S
C1280 H1265 0.960 1_545 S
C1280 H1266 0.960 . S
C1280 H1267 0.960 . S
C1280 C1279 1.524 . S
C1281 C1278 1.403 1_565 S
C1281 C1282 1.392 . S
C1281 C1285 1.495 . S
C1282 C1281 1.392 . S
C1282 C1283 1.385 . S
C1282 C1284 1.478 . S
C1283 H1277 0.930 . S
C1283 C1279 1.400 1_565 S
C1283 C1282 1.385 . S
C1284 C1282 1.478 . S
C1284 C1286 1.381 . S
C1284 C1290 1.383 . S
C1285 C1281 1.495 . S
C1285 H1291 0.959 1_565 S
C1285 H1292 0.961 . S
C1285 H1293 0.960 . S
C1286 C1284 1.381 . S
C1286 C1287 1.394 . S
C1286 H1294 0.930 . S
C1287 C1286 1.394 . S
C1287 C1288 1.383 . S
C1287 H1295 0.929 . S
C1288 C1287 1.383 . S
C1288 C1289 1.377 . S
C1289 H1273 0.930 . S
C1289 C1288 1.377 . S
C1289 C1290 1.379 . S
C1290 H1274 0.931 . S
C1290 C1284 1.383 . S
C1290 C1289 1.379 . S
H1291 C1285 0.959 1_545 S
H1292 C1285 0.961 . S
H1293 C1285 0.960 . S
H1294 C1286 0.930 . S
H1295 C1287 0.929 . S
H1296 C1304 0.929 . S
H1297 C1306 0.930 . S
H1298 C1308 0.930 . S
H1299 C1311 0.929 . S
H1300 C1314 0.930 . S
H1301 C1316 0.960 . S
H1302 C1316 0.960 . S
H1303 C1316 0.960 . S
C1304 H1296 0.929 . S
C1304 C1305 1.377 . S
C1304 C1306 1.384 . S
C1305 C1304 1.377 . S
C1305 C1311 1.390 . S
C1306 H1297 0.930 . S
C1306 C1304 1.384 . S
C1306 C1307 1.372 . S
C1307 C1306 1.372 . S
C1307 C1308 1.400 . S
C1307 C1312 1.490 . S
C1308 H1298 0.930 . S
C1308 C1307 1.400 . S
C1308 C1311 1.386 . S
H1309 C1325 0.930 . S
H1310 C1326 0.931 . S
C1311 H1299 0.929 . S
C1311 C1305 1.390 . S
C1311 C1308 1.386 . S
C1312 C1307 1.490 . S
C1312 C1314 1.395 . S
C1312 C1315 1.403 . S
H1313 C1319 0.930 . S
C1314 H1300 0.930 . S
C1314 C1312 1.395 . S
C1314 C1317 1.403 1_455 S
C1315 C1312 1.403 . S
C1315 C1316 1.524 . S
C1315 C1319 1.400 1_455 S
C1316 H1301 0.960 . S
C1316 H1302 0.960 . S
C1316 H1303 0.960 . S
C1316 C1315 1.524 . S
C1317 C1314 1.403 1_655 S
C1317 C1318 1.392 . S
C1317 C1321 1.495 . S
C1318 C1317 1.392 . S
C1318 C1319 1.385 . S
C1318 C1320 1.478 . S
C1319 H1313 0.930 . S
C1319 C1315 1.400 1_655 S
C1319 C1318 1.385 . S
C1320 C1318 1.478 . S
C1320 C1322 1.381 . S
C1320 C1326 1.383 . S
C1321 C1317 1.495 . S
C1321 H1327 0.959 . S
C1321 H1328 0.961 . S
C1321 H1329 0.960 . S
C1322 C1320 1.381 . S
C1322 C1323 1.394 . S
C1322 H1330 0.930 . S
C1323 C1322 1.394 . S
C1323 C1324 1.383 . S
C1323 H1331 0.929 . S
C1324 C1323 1.383 . S
C1324 C1325 1.377 . S
C1325 H1309 0.930 . S
C1325 C1324 1.377 . S
C1325 C1326 1.379 . S
C1326 H1310 0.931 . S
C1326 C1320 1.383 . S
C1326 C1325 1.379 . S
H1327 C1321 0.959 . S
H1328 C1321 0.961 . S
H1329 C1321 0.960 . S
H1330 C1322 0.930 . S
H1331 C1323 0.929 . S
H1332 C1340 0.929 . S
H1333 C1342 0.930 . S
H1334 C1344 0.930 . S
H1335 C1347 0.929 . S
H1336 C1350 0.930 . S
H1337 C1352 0.960 . S
H1338 C1352 0.960 . S
H1339 C1352 0.960 . S
C1340 H1332 0.929 . S
C1340 C1341 1.377 . S
C1340 C1342 1.384 . S
C1341 C1340 1.377 . S
C1341 C1347 1.390 . S
C1342 H1333 0.930 . S
C1342 C1340 1.384 . S
C1342 C1343 1.372 . S
C1343 C1342 1.372 . S
C1343 C1344 1.400 . S
C1343 C1348 1.490 . S
C1344 H1334 0.930 . S
C1344 C1343 1.400 . S
C1344 C1347 1.386 . S
H1345 C1361 0.930 . S
H1346 C1362 0.931 . S
C1347 H1335 0.929 . S
C1347 C1341 1.390 . S
C1347 C1344 1.386 . S
C1348 C1343 1.490 . S
C1348 C1350 1.395 . S
C1348 C1351 1.403 . S
H1349 C1355 0.930 . S
C1350 H1336 0.930 . S
C1350 C1348 1.395 . S
C1350 C1353 1.403 . S
C1351 C1348 1.403 . S
C1351 C1352 1.524 . S
C1351 C1355 1.400 . S
C1352 H1337 0.960 . S
C1352 H1338 0.960 . S
C1352 H1339 0.960 . S
C1352 C1351 1.524 . S
C1353 C1350 1.403 . S
C1353 C1354 1.392 . S
C1353 C1357 1.495 . S
C1354 C1353 1.392 . S
C1354 C1355 1.385 . S
C1354 C1356 1.478 . S
C1355 H1349 0.930 . S
C1355 C1351 1.400 . S
C1355 C1354 1.385 . S
C1356 C1354 1.478 . S
C1356 C1358 1.381 . S
C1356 C1362 1.383 . S
C1357 C1353 1.495 . S
C1357 H1363 0.959 . S
C1357 H1364 0.961 . S
C1357 H1365 0.960 . S
C1358 C1356 1.381 . S
C1358 C1359 1.394 . S
C1358 H1366 0.930 . S
C1359 C1358 1.394 . S
C1359 C1360 1.383 . S
C1359 H1367 0.929 . S
C1360 C1359 1.383 . S
C1360 C1361 1.377 . S
C1361 H1345 0.930 . S
C1361 C1360 1.377 . S
C1361 C1362 1.379 . S
C1362 H1346 0.931 . S
C1362 C1356 1.383 . S
C1362 C1361 1.379 . S
H1363 C1357 0.959 . S
H1364 C1357 0.961 . S
H1365 C1357 0.960 . S
H1366 C1358 0.930 . S
H1367 C1359 0.929 . S
H1368 C1376 0.929 . S
H1369 C1378 0.930 . S
H1370 C1380 0.930 . S
H1371 C1383 0.929 . S
H1372 C1386 0.930 . S
H1373 C1388 0.960 . S
H1374 C1388 0.960 . S
H1375 C1388 0.960 . S
C1376 H1368 0.929 . S
C1376 C1377 1.377 . S
C1376 C1378 1.384 . S
C1377 C1376 1.377 . S
C1377 C1383 1.390 . S
C1378 H1369 0.930 . S
C1378 C1376 1.384 . S
C1378 C1379 1.372 . S
C1379 C1378 1.372 . S
C1379 C1380 1.400 . S
C1379 C1384 1.490 . S
C1380 H1370 0.930 . S
C1380 C1379 1.400 . S
C1380 C1383 1.386 . S
H1381 C1397 0.930 . S
H1382 C1398 0.931 . S
C1383 H1371 0.929 . S
C1383 C1377 1.390 . S
C1383 C1380 1.386 . S
C1384 C1379 1.490 . S
C1384 C1386 1.395 . S
C1384 C1387 1.403 1_565 S
H1385 C1391 0.930 . S
C1386 H1372 0.930 . S
C1386 C1384 1.395 . S
C1386 C1389 1.403 . S
C1387 C1384 1.403 1_545 S
C1387 C1388 1.524 . S
C1387 C1391 1.400 . S
C1388 H1373 0.960 . S
C1388 H1374 0.960 . S
C1388 H1375 0.960 . S
C1388 C1387 1.524 . S
C1389 C1386 1.403 . S
C1389 C1390 1.392 1_565 S
C1389 C1393 1.495 . S
C1390 C1389 1.392 1_545 S
C1390 C1391 1.385 . S
C1390 C1392 1.478 . S
C1391 H1385 0.930 . S
C1391 C1387 1.400 . S
C1391 C1390 1.385 . S
C1392 C1390 1.478 . S
C1392 C1394 1.381 . S
C1392 C1398 1.383 . S
C1393 C1389 1.495 . S
C1393 H1399 0.959 . S
C1393 H1400 0.961 . S
C1393 H1401 0.960 . S
C1394 C1392 1.381 . S
C1394 C1395 1.394 . S
C1394 H1402 0.930 . S
C1395 C1394 1.394 . S
C1395 C1396 1.383 . S
C1395 H1403 0.929 . S
C1396 C1395 1.383 . S
C1396 C1397 1.377 . S
C1397 H1381 0.930 . S
C1397 C1396 1.377 . S
C1397 C1398 1.379 . S
C1398 H1382 0.931 . S
C1398 C1392 1.383 . S
C1398 C1397 1.379 . S
H1399 C1393 0.959 . S
H1400 C1393 0.961 . S
H1401 C1393 0.960 . S
H1402 C1394 0.930 . S
H1403 C1395 0.929 . S
H1404 C1412 0.929 . S
H1405 C1414 0.930 1_655 S
H1406 C1416 0.930 . S
H1407 C1419 0.929 . S
H1408 C1422 0.930 . S
H1409 C1424 0.960 . S
H1410 C1424 0.960 . S
H1411 C1424 0.960 . S
C1412 H1404 0.929 . S
C1412 C1413 1.377 . S
C1412 C1414 1.384 . S
C1413 C1412 1.377 . S
C1413 C1419 1.390 . S
C1414 H1405 0.930 1_455 S
C1414 C1412 1.384 . S
C1414 C1415 1.372 . S
C1415 C1414 1.372 . S
C1415 C1416 1.400 . S
C1415 C1420 1.490 . S
C1416 H1406 0.930 . S
C1416 C1415 1.400 . S
C1416 C1419 1.386 . S
H1417 C1433 0.930 . S
H1418 C1434 0.931 1_455 S
C1419 H1407 0.929 . S
C1419 C1413 1.390 . S
C1419 C1416 1.386 . S
C1420 C1415 1.490 . S
C1420 C1422 1.395 . S
C1420 C1423 1.403 . S
H1421 C1427 0.930 . S
C1422 H1408 0.930 . S
C1422 C1420 1.395 . S
C1422 C1425 1.403 1_445 S
C1423 C1420 1.403 . S
C1423 C1424 1.524 . S
C1423 C1427 1.400 1_445 S
C1424 H1409 0.960 . S
C1424 H1410 0.960 . S
C1424 H1411 0.960 . S
C1424 C1423 1.524 . S
C1425 C1422 1.403 1_665 S
C1425 C1426 1.392 . S
C1425 C1429 1.495 . S
C1426 C1425 1.392 . S
C1426 C1427 1.385 . S
C1426 C1428 1.478 . S
C1427 H1421 0.930 . S
C1427 C1423 1.400 1_665 S
C1427 C1426 1.385 . S
C1428 C1426 1.478 . S
C1428 C1430 1.381 . S
C1428 C1434 1.383 . S
C1429 C1425 1.495 . S
C1429 H1435 0.959 . S
C1429 H1436 0.961 . S
C1429 H1437 0.960 . S
C1430 C1428 1.381 . S
C1430 C1431 1.394 . S
C1430 H1438 0.930 . S
C1431 C1430 1.394 . S
C1431 C1432 1.383 . S
C1431 H1439 0.929 . S
C1432 C1431 1.383 . S
C1432 C1433 1.377 . S
C1433 H1417 0.930 . S
C1433 C1432 1.377 . S
C1433 C1434 1.379 . S
C1434 H1418 0.931 1_655 S
C1434 C1428 1.383 . S
C1434 C1433 1.379 . S
H1435 C1429 0.959 . S
H1436 C1429 0.961 . S
H1437 C1429 0.960 . S
H1438 C1430 0.930 . S
H1439 C1431 0.929 . S
H1440 C1448 0.929 . S
H1441 C1450 0.930 . S
H1442 C1452 0.930 . S
H1443 C1455 0.929 . S
H1444 C1458 0.930 . S
H1445 C1460 0.960 . S
H1446 C1460 0.960 . S
H1447 C1460 0.960 . S
C1448 H1440 0.929 . S
C1448 C1449 1.377 . S
C1448 C1450 1.384 . S
C1449 C1448 1.377 . S
C1449 C1455 1.390 . S
C1450 H1441 0.930 . S
C1450 C1448 1.384 . S
C1450 C1451 1.372 . S
C1451 C1450 1.372 . S
C1451 C1452 1.400 . S
C1451 C1456 1.490 . S
C1452 H1442 0.930 . S
C1452 C1451 1.400 . S
C1452 C1455 1.386 . S
H1453 C1469 0.930 . S
H1454 C1470 0.931 . S
C1455 H1443 0.929 . S
C1455 C1449 1.390 . S
C1455 C1452 1.386 . S
C1456 C1451 1.490 . S
C1456 C1458 1.395 . S
C1456 C1459 1.403 1_565 S
H1457 C1463 0.930 . S
C1458 H1444 0.930 . S
C1458 C1456 1.395 . S
C1458 C1461 1.403 . S
C1459 C1456 1.403 1_545 S
C1459 C1460 1.524 . S
C1459 C1463 1.400 . S
C1460 H1445 0.960 . S
C1460 H1446 0.960 . S
C1460 H1447 0.960 . S
C1460 C1459 1.524 . S
C1461 C1458 1.403 . S
C1461 C1462 1.392 1_565 S
C1461 C1465 1.495 . S
C1462 C1461 1.392 1_545 S
C1462 C1463 1.385 . S
C1462 C1464 1.478 . S
C1463 H1457 0.930 . S
C1463 C1459 1.400 . S
C1463 C1462 1.385 . S
C1464 C1462 1.478 . S
C1464 C1466 1.381 . S
C1464 C1470 1.383 . S
C1465 C1461 1.495 . S
C1465 H1471 0.959 . S
C1465 H1472 0.961 . S
C1465 H1473 0.960 . S
C1466 C1464 1.381 . S
C1466 C1467 1.394 . S
C1466 H1474 0.930 . S
C1467 C1466 1.394 . S
C1467 C1468 1.383 . S
C1467 H1475 0.929 . S
C1468 C1467 1.383 . S
C1468 C1469 1.377 . S
C1469 H1453 0.930 . S
C1469 C1468 1.377 . S
C1469 C1470 1.379 . S
C1470 H1454 0.931 . S
C1470 C1464 1.383 . S
C1470 C1469 1.379 . S
H1471 C1465 0.959 . S
H1472 C1465 0.961 . S
H1473 C1465 0.960 . S
H1474 C1466 0.930 . S
H1475 C1467 0.929 . S
H1476 C1484 0.929 . S
H1477 C1486 0.930 . S
H1478 C1488 0.930 . S
H1479 C1491 0.929 . S
H1480 C1494 0.930 . S
H1481 C1496 0.960 1_545 S
H1482 C1496 0.960 . S
H1483 C1496 0.960 . S
C1484 H1476 0.929 . S
C1484 C1485 1.377 . S
C1484 C1486 1.384 . S
C1485 C1484 1.377 . S
C1485 C1491 1.390 . S
C1486 H1477 0.930 . S
C1486 C1484 1.384 . S
C1486 C1487 1.372 . S
C1487 C1486 1.372 . S
C1487 C1488 1.400 . S
C1487 C1492 1.490 . S
C1488 H1478 0.930 . S
C1488 C1487 1.400 . S
C1488 C1491 1.386 . S
H1489 C1505 0.930 . S
H1490 C1506 0.931 . S
C1491 H1479 0.929 . S
C1491 C1485 1.390 . S
C1491 C1488 1.386 . S
C1492 C1487 1.490 . S
C1492 C1494 1.395 1_655 S
C1492 C1495 1.403 . S
H1493 C1499 0.930 . S
C1494 H1480 0.930 . S
C1494 C1492 1.395 1_455 S
C1494 C1497 1.403 1_565 S
C1495 C1492 1.403 . S
C1495 C1496 1.524 . S
C1495 C1499 1.400 1_565 S
C1496 H1481 0.960 1_565 S
C1496 H1482 0.960 . S
C1496 H1483 0.960 . S
C1496 C1495 1.524 . S
C1497 C1494 1.403 1_545 S
C1497 C1498 1.392 . S
C1497 C1501 1.495 . S
C1498 C1497 1.392 . S
C1498 C1499 1.385 1_455 S
C1498 C1500 1.478 . S
C1499 H1493 0.930 . S
C1499 C1495 1.400 1_545 S
C1499 C1498 1.385 1_655 S
C1500 C1498 1.478 . S
C1500 C1502 1.381 . S
C1500 C1506 1.383 . S
C1501 C1497 1.495 . S
C1501 H1507 0.959 1_545 S
C1501 H1508 0.961 . S
C1501 H1509 0.960 . S
C1502 C1500 1.381 . S
C1502 C1503 1.394 . S
C1502 H1510 0.930 . S
C1503 C1502 1.394 . S
C1503 C1504 1.383 . S
C1503 H1511 0.929 . S
C1504 C1503 1.383 . S
C1504 C1505 1.377 . S
C1505 H1489 0.930 . S
C1505 C1504 1.377 . S
C1505 C1506 1.379 . S
C1506 H1490 0.931 . S
C1506 C1500 1.383 . S
C1506 C1505 1.379 . S
H1507 C1501 0.959 1_565 S
H1508 C1501 0.961 . S
H1509 C1501 0.960 . S
H1510 C1502 0.930 . S
H1511 C1503 0.929 . S
H1512 C1520 0.929 . S
H1513 C1522 0.930 . S
H1514 C1524 0.930 . S
H1515 C1527 0.929 . S
H1516 C1530 0.930 . S
H1517 C1532 0.960 . S
H1518 C1532 0.960 . S
H1519 C1532 0.960 . S
C1520 H1512 0.929 . S
C1520 C1521 1.377 . S
C1520 C1522 1.384 . S
C1521 C1520 1.377 . S
C1521 C1527 1.390 . S
C1522 H1513 0.930 . S
C1522 C1520 1.384 . S
C1522 C1523 1.372 . S
C1523 C1522 1.372 . S
C1523 C1524 1.400 . S
C1523 C1528 1.490 . S
C1524 H1514 0.930 . S
C1524 C1523 1.400 . S
C1524 C1527 1.386 . S
H1525 C1541 0.930 . S
H1526 C1542 0.931 . S
C1527 H1515 0.929 . S
C1527 C1521 1.390 . S
C1527 C1524 1.386 . S
C1528 C1523 1.490 . S
C1528 C1530 1.395 . S
C1528 C1531 1.403 . S
H1529 C1535 0.930 . S
C1530 H1516 0.930 . S
C1530 C1528 1.395 . S
C1530 C1533 1.403 1_455 S
C1531 C1528 1.403 . S
C1531 C1532 1.524 . S
C1531 C1535 1.400 1_455 S
C1532 H1517 0.960 . S
C1532 H1518 0.960 . S
C1532 H1519 0.960 . S
C1532 C1531 1.524 . S
C1533 C1530 1.403 1_655 S
C1533 C1534 1.392 . S
C1533 C1537 1.495 . S
C1534 C1533 1.392 . S
C1534 C1535 1.385 . S
C1534 C1536 1.478 . S
C1535 H1529 0.930 . S
C1535 C1531 1.400 1_655 S
C1535 C1534 1.385 . S
C1536 C1534 1.478 . S
C1536 C1538 1.381 . S
C1536 C1542 1.383 . S
C1537 C1533 1.495 . S
C1537 H1543 0.959 . S
C1537 H1544 0.961 . S
C1537 H1545 0.960 . S
C1538 C1536 1.381 . S
C1538 C1539 1.394 . S
C1538 H1546 0.930 . S
C1539 C1538 1.394 . S
C1539 C1540 1.383 . S
C1539 H1547 0.929 . S
C1540 C1539 1.383 . S
C1540 C1541 1.377 . S
C1541 H1525 0.930 . S
C1541 C1540 1.377 . S
C1541 C1542 1.379 . S
C1542 H1526 0.931 . S
C1542 C1536 1.383 . S
C1542 C1541 1.379 . S
H1543 C1537 0.959 . S
H1544 C1537 0.961 . S
H1545 C1537 0.960 . S
H1546 C1538 0.930 . S
H1547 C1539 0.929 . S
H1548 C1556 0.929 . S
H1549 C1558 0.930 . S
H1550 C1560 0.930 . S
H1551 C1563 0.929 . S
H1552 C1566 0.930 . S
H1553 C1568 0.960 . S
H1554 C1568 0.960 . S
H1555 C1568 0.960 . S
C1556 H1548 0.929 . S
C1556 C1557 1.377 . S
C1556 C1558 1.384 . S
C1557 C1556 1.377 . S
C1557 C1563 1.390 . S
C1558 H1549 0.930 . S
C1558 C1556 1.384 . S
C1558 C1559 1.372 . S
C1559 C1558 1.372 . S
C1559 C1560 1.400 . S
C1559 C1564 1.490 . S
C1560 H1550 0.930 . S
C1560 C1559 1.400 . S
C1560 C1563 1.386 . S
H1561 C1577 0.930 . S
H1562 C1578 0.931 . S
C1563 H1551 0.929 . S
C1563 C1557 1.390 . S
C1563 C1560 1.386 . S
C1564 C1559 1.490 . S
C1564 C1566 1.395 . S
C1564 C1567 1.403 . S
H1565 C1571 0.930 . S
C1566 H1552 0.930 . S
C1566 C1564 1.395 . S
C1566 C1569 1.403 . S
C1567 C1564 1.403 . S
C1567 C1568 1.524 . S
C1567 C1571 1.400 . S
C1568 H1553 0.960 . S
C1568 H1554 0.960 . S
C1568 H1555 0.960 . S
C1568 C1567 1.524 . S
C1569 C1566 1.403 . S
C1569 C1570 1.392 . S
C1569 C1573 1.495 . S
C1570 C1569 1.392 . S
C1570 C1571 1.385 . S
C1570 C1572 1.478 . S
C1571 H1565 0.930 . S
C1571 C1567 1.400 . S
C1571 C1570 1.385 . S
C1572 C1570 1.478 . S
C1572 C1574 1.381 . S
C1572 C1578 1.383 . S
C1573 C1569 1.495 . S
C1573 H1579 0.959 . S
C1573 H1580 0.961 . S
C1573 H1581 0.960 . S
C1574 C1572 1.381 . S
C1574 C1575 1.394 . S
C1574 H1582 0.930 . S
C1575 C1574 1.394 . S
C1575 C1576 1.383 . S
C1575 H1583 0.929 . S
C1576 C1575 1.383 . S
C1576 C1577 1.377 . S
C1577 H1561 0.930 . S
C1577 C1576 1.377 . S
C1577 C1578 1.379 . S
C1578 H1562 0.931 . S
C1578 C1572 1.383 . S
C1578 C1577 1.379 . S
H1579 C1573 0.959 . S
H1580 C1573 0.961 . S
H1581 C1573 0.960 . S
H1582 C1574 0.930 . S
H1583 C1575 0.929 . S
H1584 C1592 0.929 . S
H1585 C1594 0.930 . S
H1586 C1596 0.930 . S
H1587 C1599 0.929 . S
H1588 C1602 0.930 . S
H1589 C1604 0.960 . S
H1590 C1604 0.960 . S
H1591 C1604 0.960 . S
C1592 H1584 0.929 . S
C1592 C1593 1.377 . S
C1592 C1594 1.384 . S
C1593 C1592 1.377 . S
C1593 C1599 1.390 . S
C1594 H1585 0.930 . S
C1594 C1592 1.384 . S
C1594 C1595 1.372 . S
C1595 C1594 1.372 . S
C1595 C1596 1.400 . S
C1595 C1600 1.490 . S
C1596 H1586 0.930 . S
C1596 C1595 1.400 . S
C1596 C1599 1.386 . S
H1597 C1613 0.930 . S
H1598 C1614 0.931 . S
C1599 H1587 0.929 . S
C1599 C1593 1.390 . S
C1599 C1596 1.386 . S
C1600 C1595 1.490 . S
C1600 C1602 1.395 . S
C1600 C1603 1.403 . S
H1601 C1607 0.930 . S
C1602 H1588 0.930 . S
C1602 C1600 1.395 . S
C1602 C1605 1.403 . S
C1603 C1600 1.403 . S
C1603 C1604 1.524 . S
C1603 C1607 1.400 . S
C1604 H1589 0.960 . S
C1604 H1590 0.960 . S
C1604 H1591 0.960 . S
C1604 C1603 1.524 . S
C1605 C1602 1.403 . S
C1605 C1606 1.392 . S
C1605 C1609 1.495 . S
C1606 C1605 1.392 . S
C1606 C1607 1.385 . S
C1606 C1608 1.478 . S
C1607 H1601 0.930 . S
C1607 C1603 1.400 . S
C1607 C1606 1.385 . S
C1608 C1606 1.478 . S
C1608 C1610 1.381 . S
C1608 C1614 1.383 . S
C1609 C1605 1.495 . S
C1609 H1615 0.959 . S
C1609 H1616 0.961 . S
C1609 H1617 0.960 . S
C1610 C1608 1.381 . S
C1610 C1611 1.394 . S
C1610 H1618 0.930 . S
C1611 C1610 1.394 . S
C1611 C1612 1.383 . S
C1611 H1619 0.929 . S
C1612 C1611 1.383 . S
C1612 C1613 1.377 . S
C1613 H1597 0.930 . S
C1613 C1612 1.377 . S
C1613 C1614 1.379 . S
C1614 H1598 0.931 . S
C1614 C1608 1.383 . S
C1614 C1613 1.379 . S
H1615 C1609 0.959 . S
H1616 C1609 0.961 . S
H1617 C1609 0.960 . S
H1618 C1610 0.930 . S
H1619 C1611 0.929 . S
H1620 C1628 0.929 . S
H1621 C1630 0.930 . S
H1622 C1632 0.930 . S
H1623 C1635 0.929 . S
H1624 C1638 0.930 . S
H1625 C1640 0.960 . S
H1626 C1640 0.960 . S
H1627 C1640 0.960 . S
C1628 H1620 0.929 . S
C1628 C1629 1.377 . S
C1628 C1630 1.384 . S
C1629 C1628 1.377 . S
C1629 C1635 1.390 . S
C1630 H1621 0.930 . S
C1630 C1628 1.384 . S
C1630 C1631 1.372 . S
C1631 C1630 1.372 . S
C1631 C1632 1.400 . S
C1631 C1636 1.490 . S
C1632 H1622 0.930 . S
C1632 C1631 1.400 . S
C1632 C1635 1.386 . S
H1633 C1649 0.930 . S
H1634 C1650 0.931 . S
C1635 H1623 0.929 . S
C1635 C1629 1.390 . S
C1635 C1632 1.386 . S
C1636 C1631 1.490 . S
C1636 C1638 1.395 . S
C1636 C1639 1.403 . S
H1637 C1643 0.930 . S
C1638 H1624 0.930 . S
C1638 C1636 1.395 . S
C1638 C1641 1.403 1_545 S
C1639 C1636 1.403 . S
C1639 C1640 1.524 . S
C1639 C1643 1.400 1_545 S
C1640 H1625 0.960 . S
C1640 H1626 0.960 . S
C1640 H1627 0.960 . S
C1640 C1639 1.524 . S
C1641 C1638 1.403 1_565 S
C1641 C1642 1.392 . S
C1641 C1645 1.495 . S
C1642 C1641 1.392 . S
C1642 C1643 1.385 . S
C1642 C1644 1.478 . S
C1643 H1637 0.930 . S
C1643 C1639 1.400 1_565 S
C1643 C1642 1.385 . S
C1644 C1642 1.478 . S
C1644 C1646 1.381 . S
C1644 C1650 1.383 . S
C1645 C1641 1.495 . S
C1645 H1651 0.959 . S
C1645 H1652 0.961 . S
C1645 H1653 0.960 . S
C1646 C1644 1.381 . S
C1646 C1647 1.394 . S
C1646 H1654 0.930 . S
C1647 C1646 1.394 . S
C1647 C1648 1.383 . S
C1647 H1655 0.929 . S
C1648 C1647 1.383 . S
C1648 C1649 1.377 . S
C1649 H1633 0.930 . S
C1649 C1648 1.377 . S
C1649 C1650 1.379 . S
C1650 H1634 0.931 . S
C1650 C1644 1.383 . S
C1650 C1649 1.379 . S
H1651 C1645 0.959 . S
H1652 C1645 0.961 . S
H1653 C1645 0.960 . S
H1654 C1646 0.930 . S
H1655 C1647 0.929 . S
H1656 C1664 0.929 . S
H1657 C1666 0.930 . S
H1658 C1668 0.930 . S
H1659 C1671 0.929 . S
H1660 C1674 0.930 . S
H1661 C1676 0.960 . S
H1662 C1676 0.960 . S
H1663 C1676 0.960 . S
C1664 H1656 0.929 . S
C1664 C1665 1.377 . S
C1664 C1666 1.384 . S
C1665 C1664 1.377 . S
C1665 C1671 1.390 . S
C1666 H1657 0.930 . S
C1666 C1664 1.384 . S
C1666 C1667 1.372 . S
C1667 C1666 1.372 . S
C1667 C1668 1.400 . S
C1667 C1672 1.490 . S
C1668 H1658 0.930 . S
C1668 C1667 1.400 . S
C1668 C1671 1.386 . S
H1669 C1685 0.930 . S
H1670 C1686 0.931 . S
C1671 H1659 0.929 . S
C1671 C1665 1.390 . S
C1671 C1668 1.386 . S
C1672 C1667 1.490 . S
C1672 C1674 1.395 . S
C1672 C1675 1.403 1_565 S
H1673 C1679 0.930 . S
C1674 H1660 0.930 . S
C1674 C1672 1.395 . S
C1674 C1677 1.403 1_655 S
C1675 C1672 1.403 1_545 S
C1675 C1676 1.524 . S
C1675 C1679 1.400 1_655 S
C1676 H1661 0.960 . S
C1676 H1662 0.960 . S
C1676 H1663 0.960 . S
C1676 C1675 1.524 . S
C1677 C1674 1.403 1_455 S
C1677 C1678 1.392 1_565 S
C1677 C1681 1.495 . S
C1678 C1677 1.392 1_545 S
C1678 C1679 1.385 . S
C1678 C1680 1.478 . S
C1679 H1673 0.930 . S
C1679 C1675 1.400 1_455 S
C1679 C1678 1.385 . S
C1680 C1678 1.478 . S
C1680 C1682 1.381 . S
C1680 C1686 1.383 . S
C1681 C1677 1.495 . S
C1681 H1687 0.959 . S
C1681 H1688 0.961 . S
C1681 H1689 0.960 . S
C1682 C1680 1.381 . S
C1682 C1683 1.394 . S
C1682 H1690 0.930 . S
C1683 C1682 1.394 . S
C1683 C1684 1.383 . S
C1683 H1691 0.929 . S
C1684 C1683 1.383 . S
C1684 C1685 1.377 . S
C1685 H1669 0.930 . S
C1685 C1684 1.377 . S
C1685 C1686 1.379 . S
C1686 H1670 0.931 . S
C1686 C1680 1.383 . S
C1686 C1685 1.379 . S
H1687 C1681 0.959 . S
H1688 C1681 0.961 . S
H1689 C1681 0.960 . S
H1690 C1682 0.930 . S
H1691 C1683 0.929 . S
H1692 C1700 0.929 . S
H1693 C1702 0.930 . S
H1694 C1704 0.930 . S
H1695 C1707 0.929 . S
H1696 C1710 0.930 . S
H1697 C1712 0.960 . S
H1698 C1712 0.960 . S
H1699 C1712 0.960 . S
C1700 H1692 0.929 . S
C1700 C1701 1.377 . S
C1700 C1702 1.384 . S
C1701 C1700 1.377 . S
C1701 C1707 1.390 . S
C1702 H1693 0.930 . S
C1702 C1700 1.384 . S
C1702 C1703 1.372 . S
C1703 C1702 1.372 . S
C1703 C1704 1.400 . S
C1703 C1708 1.490 . S
C1704 H1694 0.930 . S
C1704 C1703 1.400 . S
C1704 C1707 1.386 . S
H1705 C1721 0.930 . S
H1706 C1722 0.931 . S
C1707 H1695 0.929 . S
C1707 C1701 1.390 . S
C1707 C1704 1.386 . S
C1708 C1703 1.490 . S
C1708 C1710 1.395 . S
C1708 C1711 1.403 . S
H1709 C1715 0.930 . S
C1710 H1696 0.930 . S
C1710 C1708 1.395 . S
C1710 C1713 1.403 1_655 S
C1711 C1708 1.403 . S
C1711 C1712 1.524 . S
C1711 C1715 1.400 1_655 S
C1712 H1697 0.960 . S
C1712 H1698 0.960 . S
C1712 H1699 0.960 . S
C1712 C1711 1.524 . S
C1713 C1710 1.403 1_455 S
C1713 C1714 1.392 . S
C1713 C1717 1.495 . S
C1714 C1713 1.392 . S
C1714 C1715 1.385 . S
C1714 C1716 1.478 . S
C1715 H1709 0.930 . S
C1715 C1711 1.400 1_455 S
C1715 C1714 1.385 . S
C1716 C1714 1.478 . S
C1716 C1718 1.381 . S
C1716 C1722 1.383 . S
C1717 C1713 1.495 . S
C1717 H1723 0.959 . S
C1717 H1724 0.961 . S
C1717 H1725 0.960 . S
C1718 C1716 1.381 . S
C1718 C1719 1.394 . S
C1718 H1726 0.930 . S
C1719 C1718 1.394 . S
C1719 C1720 1.383 . S
C1719 H1727 0.929 . S
C1720 C1719 1.383 . S
C1720 C1721 1.377 . S
C1721 H1705 0.930 . S
C1721 C1720 1.377 . S
C1721 C1722 1.379 . S
C1722 H1706 0.931 . S
C1722 C1716 1.383 . S
C1722 C1721 1.379 . S
H1723 C1717 0.959 . S
H1724 C1717 0.961 . S
H1725 C1717 0.960 . S
H1726 C1718 0.930 . S
H1727 C1719 0.929 . S
C585 C158 1.191 . S
C604 C14 1.216 . S
C621 C50 1.190 . S
C640 C194 1.217 . S
C657 C230 1.195 . S
C676 C86 1.202 . S
C693 C266 1.192 . S
C712 C122 1.214 . S
C729 C446 1.191 . S
C748 C302 1.215 . S
C765 C338 1.191 . S
C784 C482 1.195 . S
C801 C518 1.190 . S
C820 C374 1.204 . S
C837 C410 1.192 . S
C856 C554 1.189 . S
C873 C2 1.264 . S
C892 C542 1.276 . S
C909 C38 1.264 . S
C928 C434 1.258 . S
C945 C74 1.256 . S
C964 C470 1.259 . S
C981 C506 1.265 . S
C1000 C110 1.268 . S
C1017 C146 1.264 . S
C1036 C326 1.278 . S
C1053 C182 1.255 . S
C1072 C362 1.246 . S
C1089 C398 1.259 . S
C1108 C218 1.274 . S
C1125 C290 1.265 . S
C1144 C254 1.267 . S
C1161 C4 1.650 . S
C1180 C364 1.642 . S
C1197 C400 1.651 . S
C1216 C40 1.642 . S
C1233 C76 1.651 . S
C1252 C292 1.642 . S
C1269 C328 1.651 . S
C1288 C112 1.642 . S
C1305 C148 1.650 . S
C1324 C508 1.651 . S
C1341 C184 1.651 . S
C1360 C544 1.641 . S
C1377 C436 1.651 . S
C1396 C220 1.648 . S
C1413 C472 1.651 . S
C1432 C256 1.643 . S
C1449 C363 1.358 . S
C1468 C3 1.355 . S
C1485 C39 1.358 . S
C1504 C399 1.355 . S
C1521 C75 1.358 . S
C1540 C291 1.354 . S
C1557 C327 1.358 . S
C1576 C111 1.354 . S
C1593 C507 1.358 . S
C1612 C147 1.357 . S
C1629 C543 1.358 . S
C1648 C183 1.354 . S
C1665 C435 1.358 . S
C1684 C219 1.354 . S
C1701 C255 1.358 . S
C1720 C471 1.354 . S
