# Generated by pormake.
# Topology fcj, (5)-cn, num edge types: 1
# Building blocks:
#     Node 0, Type 0, BuildingBlock: BEQFEK_clean_sbu_0, # of connection points: 5
#     Node 1, Type 0, BuildingBlock: BEQFEK_clean_sbu_0, # of connection points: 5
#     Node 2, Type 0, BuildingBlock: BEQFEK_clean_sbu_0, # of connection points: 5
#     Node 3, Type 0, BuildingBlock: BEQFEK_clean_sbu_0, # of connection points: 5
#     Node 4, Type 0, BuildingBlock: BEQFEK_clean_sbu_0, # of connection points: 5
#     Node 5, Type 0, BuildingBlock: BEQFEK_clean_sbu_0, # of connection points: 5
#     Node 6, Type 0, BuildingBlock: BEQFEK_clean_sbu_0, # of connection points: 5
#     Node 7, Type 0, BuildingBlock: BEQFEK_clean_sbu_0, # of connection points: 5
#     Node 8, Type 0, BuildingBlock: BEQFEK_clean_sbu_0, # of connection points: 5
#     Node 9, Type 0, BuildingBlock: BEQFEK_clean_sbu_0, # of connection points: 5
#     Node 10, Type 0, BuildingBlock: BEQFEK_clean_sbu_0, # of connection points: 5
#     Node 11, Type 0, BuildingBlock: BEQFEK_clean_sbu_0, # of connection points: 5
#     Node 12, Type 0, BuildingBlock: BEQFEK_clean_sbu_0, # of connection points: 5
#     Node 13, Type 0, BuildingBlock: BEQFEK_clean_sbu_0, # of connection points: 5
#     Node 14, Type 0, BuildingBlock: BEQFEK_clean_sbu_0, # of connection points: 5
#     Node 15, Type 0, BuildingBlock: BEQFEK_clean_sbu_0, # of connection points: 5
#     Node 16, Type 0, BuildingBlock: BEQFEK_clean_sbu_0, # of connection points: 5
#     Node 17, Type 0, BuildingBlock: BEQFEK_clean_sbu_0, # of connection points: 5
#     Node 18, Type 0, BuildingBlock: BEQFEK_clean_sbu_0, # of connection points: 5
#     Node 19, Type 0, BuildingBlock: BEQFEK_clean_sbu_0, # of connection points: 5
#     Node 20, Type 0, BuildingBlock: BEQFEK_clean_sbu_0, # of connection points: 5
#     Node 21, Type 0, BuildingBlock: BEQFEK_clean_sbu_0, # of connection points: 5
#     Node 22, Type 0, BuildingBlock: BEQFEK_clean_sbu_0, # of connection points: 5
#     Node 23, Type 0, BuildingBlock: BEQFEK_clean_sbu_0, # of connection points: 5
#     Edge 24, Type (0, 0), BuildingBlock: TEMPAE_clean_linker_10, # of connection points: 2
#     Edge 25, Type (0, 0), BuildingBlock: TEMPAE_clean_linker_10, # of connection points: 2
#     Edge 26, Type (0, 0), BuildingBlock: TEMPAE_clean_linker_10, # of connection points: 2
#     Edge 27, Type (0, 0), BuildingBlock: TEMPAE_clean_linker_10, # of connection points: 2
#     Edge 28, Type (0, 0), BuildingBlock: TEMPAE_clean_linker_10, # of connection points: 2
#     Edge 29, Type (0, 0), BuildingBlock: TEMPAE_clean_linker_10, # of connection points: 2
#     Edge 30, Type (0, 0), BuildingBlock: TEMPAE_clean_linker_10, # of connection points: 2
#     Edge 31, Type (0, 0), BuildingBlock: TEMPAE_clean_linker_10, # of connection points: 2
#     Edge 32, Type (0, 0), BuildingBlock: TEMPAE_clean_linker_10, # of connection points: 2
#     Edge 33, Type (0, 0), BuildingBlock: TEMPAE_clean_linker_10, # of connection points: 2
#     Edge 34, Type (0, 0), BuildingBlock: TEMPAE_clean_linker_10, # of connection points: 2
#     Edge 35, Type (0, 0), BuildingBlock: TEMPAE_clean_linker_10, # of connection points: 2
#     Edge 36, Type (0, 0), BuildingBlock: TEMPAE_clean_linker_10, # of connection points: 2
#     Edge 37, Type (0, 0), BuildingBlock: TEMPAE_clean_linker_10, # of connection points: 2
#     Edge 38, Type (0, 0), BuildingBlock: TEMPAE_clean_linker_10, # of connection points: 2
#     Edge 39, Type (0, 0), BuildingBlock: TEMPAE_clean_linker_10, # of connection points: 2
#     Edge 40, Type (0, 0), BuildingBlock: TEMPAE_clean_linker_10, # of connection points: 2
#     Edge 41, Type (0, 0), BuildingBlock: TEMPAE_clean_linker_10, # of connection points: 2
#     Edge 42, Type (0, 0), BuildingBlock: TEMPAE_clean_linker_10, # of connection points: 2
#     Edge 43, Type (0, 0), BuildingBlock: TEMPAE_clean_linker_10, # of connection points: 2
#     Edge 44, Type (0, 0), BuildingBlock: TEMPAE_clean_linker_10, # of connection points: 2
#     Edge 45, Type (0, 0), BuildingBlock: TEMPAE_clean_linker_10, # of connection points: 2
#     Edge 46, Type (0, 0), BuildingBlock: TEMPAE_clean_linker_10, # of connection points: 2
#     Edge 47, Type (0, 0), BuildingBlock: TEMPAE_clean_linker_10, # of connection points: 2
#     Edge 48, Type (0, 0), BuildingBlock: TEMPAE_clean_linker_10, # of connection points: 2
#     Edge 49, Type (0, 0), BuildingBlock: TEMPAE_clean_linker_10, # of connection points: 2
#     Edge 50, Type (0, 0), BuildingBlock: TEMPAE_clean_linker_10, # of connection points: 2
#     Edge 51, Type (0, 0), BuildingBlock: TEMPAE_clean_linker_10, # of connection points: 2
#     Edge 52, Type (0, 0), BuildingBlock: TEMPAE_clean_linker_10, # of connection points: 2
#     Edge 53, Type (0, 0), BuildingBlock: TEMPAE_clean_linker_10, # of connection points: 2
#     Edge 54, Type (0, 0), BuildingBlock: TEMPAE_clean_linker_10, # of connection points: 2
#     Edge 55, Type (0, 0), BuildingBlock: TEMPAE_clean_linker_10, # of connection points: 2
#     Edge 56, Type (0, 0), BuildingBlock: TEMPAE_clean_linker_10, # of connection points: 2
#     Edge 57, Type (0, 0), BuildingBlock: TEMPAE_clean_linker_10, # of connection points: 2
#     Edge 58, Type (0, 0), BuildingBlock: TEMPAE_clean_linker_10, # of connection points: 2
#     Edge 59, Type (0, 0), BuildingBlock: TEMPAE_clean_linker_10, # of connection points: 2
#     Edge 60, Type (0, 0), BuildingBlock: TEMPAE_clean_linker_10, # of connection points: 2
#     Edge 61, Type (0, 0), BuildingBlock: TEMPAE_clean_linker_10, # of connection points: 2
#     Edge 62, Type (0, 0), BuildingBlock: TEMPAE_clean_linker_10, # of connection points: 2
#     Edge 63, Type (0, 0), BuildingBlock: TEMPAE_clean_linker_10, # of connection points: 2
#     Edge 64, Type (0, 0), BuildingBlock: TEMPAE_clean_linker_10, # of connection points: 2
#     Edge 65, Type (0, 0), BuildingBlock: TEMPAE_clean_linker_10, # of connection points: 2
#     Edge 66, Type (0, 0), BuildingBlock: TEMPAE_clean_linker_10, # of connection points: 2
#     Edge 67, Type (0, 0), BuildingBlock: TEMPAE_clean_linker_10, # of connection points: 2
#     Edge 68, Type (0, 0), BuildingBlock: TEMPAE_clean_linker_10, # of connection points: 2
#     Edge 69, Type (0, 0), BuildingBlock: TEMPAE_clean_linker_10, # of connection points: 2
#     Edge 70, Type (0, 0), BuildingBlock: TEMPAE_clean_linker_10, # of connection points: 2
#     Edge 71, Type (0, 0), BuildingBlock: TEMPAE_clean_linker_10, # of connection points: 2
#     Edge 72, Type (0, 0), BuildingBlock: TEMPAE_clean_linker_10, # of connection points: 2
#     Edge 73, Type (0, 0), BuildingBlock: TEMPAE_clean_linker_10, # of connection points: 2
#     Edge 74, Type (0, 0), BuildingBlock: TEMPAE_clean_linker_10, # of connection points: 2
#     Edge 75, Type (0, 0), BuildingBlock: TEMPAE_clean_linker_10, # of connection points: 2
#     Edge 76, Type (0, 0), BuildingBlock: TEMPAE_clean_linker_10, # of connection points: 2
#     Edge 77, Type (0, 0), BuildingBlock: TEMPAE_clean_linker_10, # of connection points: 2
#     Edge 78, Type (0, 0), BuildingBlock: TEMPAE_clean_linker_10, # of connection points: 2
#     Edge 79, Type (0, 0), BuildingBlock: TEMPAE_clean_linker_10, # of connection points: 2
#     Edge 80, Type (0, 0), BuildingBlock: TEMPAE_clean_linker_10, # of connection points: 2
#     Edge 81, Type (0, 0), BuildingBlock: TEMPAE_clean_linker_10, # of connection points: 2
#     Edge 82, Type (0, 0), BuildingBlock: TEMPAE_clean_linker_10, # of connection points: 2
#     Edge 83, Type (0, 0), BuildingBlock: TEMPAE_clean_linker_10, # of connection points: 2
# Relax obj value: 0.323
# Max RMSD: 0.218
# Mean RMSD: 0.218
data_MOF--net-fcj--node1-BEQFEK_clean_sbu_0--edge1-TEMPAE_clean_linker_10
_symmetry_space_group_name_H-M    P1
_symmetry_Int_Tables_number       1
_symmetry_cell_setting            triclinic
loop_
_symmetry_equiv_pos_as_xyz
'x, y, z'
_cell_length_a     52.69948
_cell_length_b     52.686578
_cell_length_c     52.701747
_cell_angle_alpha  89.975307
_cell_angle_beta   90.004024
_cell_angle_gamma 89.994267
loop_
_atom_site_label
_atom_site_type_symbol
_atom_site_fract_x
_atom_site_fract_y
_atom_site_fract_z
_atom_type_partial_charge
Co0 Co 0.0963 0.1654 0.3231 0.0
Co1 Co 0.06002 0.20842 0.34211 0.0
C2 C 0.04033 0.16035 0.31805 0.0
O3 O 0.06262 0.15131 0.31562 0.0
O4 O 0.03657 0.18215 0.32794 0.0
C5 C 0.1235 0.12574 0.29697 0.0
O6 O 0.1034 0.12449 0.28227 0.0
C7 C 0.01802 0.23321 0.36943 0.0
C8 C 0.03242 0.27252 0.37239 0.0
C9 C 0.01193 0.25721 0.37846 0.0
N10 N 0.04115 0.23437 0.35869 0.0
N11 N 0.04967 0.25786 0.36064 0.0
C12 C 0.0016 0.21005 0.36875 0.0
H13 H 0.01249 0.1935 0.37594 0.0
H14 H 0.98391 0.21239 0.37983 0.0
H15 H 0.99639 0.20603 0.34877 0.0
C16 C 0.11428 0.16835 0.37544 0.0
N17 N 0.09857 0.17598 0.35692 0.0
N18 N 0.08343 0.19381 0.36557 0.0
C19 C 0.08897 0.19795 0.39028 0.0
C20 C 0.10855 0.18173 0.39735 0.0
C21 C 0.13588 0.1503 0.37127 0.0
H22 H 0.14717 0.15675 0.35473 0.0
H23 H 0.12823 0.13117 0.36691 0.0
H24 H 0.14873 0.14907 0.38785 0.0
O25 O 0.10282 0.19365 0.29993 0.0
O26 O 0.07789 0.22492 0.31288 0.0
H27 H 0.07959 0.23618 0.39984 0.0
H28 H 0.08173 0.21511 0.42688 0.0
C29 C 0.07558 0.21672 0.4068 0.0
H30 H 0.05481 0.21355 0.40563 0.0
H31 H 0.06718 0.26394 0.35367 0.0
O32 O 0.12335 0.1407 0.31583 0.0
C33 C 0.09448 0.21615 0.29761 0.0
Co34 Co 0.57032 0.34736 0.0658 0.0
Co35 Co 0.52957 0.31397 0.09379 0.0
C36 C 0.57728 0.29117 0.07412 0.0
O37 O 0.58469 0.31271 0.06597 0.0
O38 O 0.55621 0.28874 0.08569 0.0
C39 C 0.61818 0.3744 0.06321 0.0
O40 O 0.62444 0.36127 0.08347 0.0
C41 C 0.50146 0.27473 0.12205 0.0
C42 C 0.46897 0.29665 0.13697 0.0
C43 C 0.47975 0.27268 0.13684 0.0
N44 N 0.50374 0.29897 0.11438 0.0
N45 N 0.48416 0.31191 0.12323 0.0
C46 C 0.51809 0.25367 0.11275 0.0
H47 H 0.52121 0.25591 0.09207 0.0
H48 H 0.53675 0.25477 0.12244 0.0
H49 H 0.50956 0.23474 0.11612 0.0
C50 C 0.56562 0.37726 0.1128 0.0
N51 N 0.55914 0.35733 0.09828 0.0
N52 N 0.54403 0.34226 0.11126 0.0
C53 C 0.54183 0.35144 0.13514 0.0
C54 C 0.55553 0.37386 0.13677 0.0
C55 C 0.57909 0.40048 0.10345 0.0
H56 H 0.5762 0.40294 0.08277 0.0
H57 H 0.59959 0.39879 0.10765 0.0
H58 H 0.57198 0.41763 0.11341 0.0
O59 O 0.54198 0.34833 0.04206 0.0
O60 O 0.51294 0.3243 0.06096 0.0
H61 H 0.50853 0.34433 0.15704 0.0
H62 H 0.53747 0.34323 0.17496 0.0
C63 C 0.52866 0.3382 0.1565 0.0
H64 H 0.52944 0.31734 0.15383 0.0
H65 H 0.48108 0.33116 0.11971 0.0
O66 O 0.59663 0.37091 0.05295 0.0
C67 C 0.52019 0.33799 0.04233 0.0
Co68 Co 0.40477 0.83187 0.82294 0.0
Co69 Co 0.44175 0.78891 0.8415 0.0
C70 C 0.46052 0.83919 0.82106 0.0
O71 O 0.43813 0.84774 0.81768 0.0
O72 O 0.46438 0.81707 0.83018 0.0
C73 C 0.37274 0.86545 0.7944 0.0
O74 O 0.39017 0.86293 0.77674 0.0
C75 C 0.4813 0.76294 0.87213 0.0
C76 C 0.4707 0.72294 0.8653 0.0
C77 C 0.48819 0.73808 0.8778 0.0
N78 N 0.46068 0.76233 0.85705 0.0
N79 N 0.45444 0.73837 0.85317 0.0
C80 C 0.49457 0.78679 0.87999 0.0
H81 H 0.4897 0.8027 0.86719 0.0
H82 H 0.4884 0.792 0.89943 0.0
H83 H 0.51543 0.78394 0.88013 0.0
C84 C 0.38503 0.82549 0.87437 0.0
N85 N 0.40177 0.81945 0.85617 0.0
N86 N 0.41621 0.80069 0.86406 0.0
C87 C 0.40858 0.79375 0.88754 0.0
C88 C 0.38877 0.8095 0.89486 0.0
C89 C 0.36444 0.8448 0.87117 0.0
H90 H 0.35065 0.83781 0.85689 0.0
H91 H 0.3727 0.86283 0.86412 0.0
H92 H 0.3542 0.84852 0.88912 0.0
O93 O 0.4007 0.80456 0.79783 0.0
O94 O 0.42687 0.77408 0.8103 0.0
H95 H 0.41853 0.75455 0.89066 0.0
H96 H 0.40905 0.76909 0.92036 0.0
C97 C 0.41943 0.77207 0.90228 0.0
H98 H 0.43967 0.776 0.90649 0.0
H99 H 0.43914 0.73254 0.84204 0.0
O100 O 0.3763 0.85523 0.81592 0.0
C101 C 0.41069 0.78284 0.79468 0.0
Co102 Co 0.91852 0.64804 0.57477 0.0
Co103 Co 0.95995 0.68454 0.59707 0.0
C104 C 0.91143 0.7041 0.57372 0.0
O105 O 0.90325 0.68177 0.56914 0.0
O106 O 0.93277 0.70775 0.58459 0.0
C107 C 0.88332 0.61893 0.54469 0.0
O108 O 0.88414 0.63834 0.52905 0.0
C109 C 0.98321 0.72552 0.62723 0.0
C110 C 0.02284 0.71196 0.62985 0.0
C111 C 0.00697 0.73172 0.63683 0.0
N112 N 0.98506 0.70304 0.61528 0.0
N113 N 0.00874 0.695 0.61705 0.0
C114 C 0.95976 0.74151 0.62687 0.0
H115 H 0.95675 0.74857 0.60729 0.0
H116 H 0.9431 0.72972 0.63207 0.0
H117 H 0.9611 0.7581 0.63968 0.0
C118 C 0.92102 0.62721 0.62624 0.0
N119 N 0.92856 0.64406 0.60867 0.0
N120 N 0.9463 0.65873 0.61831 0.0
C121 C 0.95076 0.65139 0.64248 0.0
C122 C 0.93475 0.63131 0.6482 0.0
C123 C 0.90191 0.6067 0.62154 0.0
H124 H 0.88413 0.61525 0.6142 0.0
H125 H 0.89768 0.5957 0.63899 0.0
H126 H 0.90936 0.59358 0.60688 0.0
O127 O 0.94751 0.64433 0.5516 0.0
O128 O 0.97708 0.67024 0.56657 0.0
H129 H 0.98923 0.66022 0.65156 0.0
H130 H 0.96929 0.6547 0.67895 0.0
C131 C 0.97003 0.66314 0.65966 0.0
H132 H 0.96657 0.68386 0.66095 0.0
H133 H 0.01534 0.67808 0.60916 0.0
O134 O 0.89532 0.62011 0.56553 0.0
C135 C 0.96942 0.65431 0.55011 0.0
Co136 Co 0.60629 0.30966 0.67352 0.0
Co137 Co 0.56665 0.27236 0.64905 0.0
C138 C 0.5507 0.32156 0.67302 0.0
O139 O 0.57353 0.3273 0.67871 0.0
O140 O 0.54539 0.30104 0.66132 0.0
C141 C 0.63487 0.35131 0.69693 0.0
O142 O 0.61305 0.36027 0.70501 0.0
C143 C 0.52325 0.25162 0.62032 0.0
C144 C 0.53779 0.21371 0.6098 0.0
C145 C 0.5169 0.2295 0.6075 0.0
N146 N 0.54695 0.2491 0.62945 0.0
N147 N 0.55553 0.22643 0.62303 0.0
C148 C 0.50639 0.27364 0.62637 0.0
H149 H 0.50436 0.27497 0.64727 0.0
H150 H 0.51539 0.29143 0.61957 0.0
H151 H 0.48722 0.2717 0.61799 0.0
C152 C 0.62726 0.30799 0.6223 0.0
N153 N 0.61025 0.30012 0.63953 0.0
N154 N 0.59366 0.28503 0.62859 0.0
C155 C 0.59942 0.28327 0.60364 0.0
C156 C 0.62082 0.29789 0.59893 0.0
C157 C 0.64958 0.32451 0.62841 0.0
H158 H 0.65993 0.31638 0.64482 0.0
H159 H 0.64279 0.34372 0.63375 0.0
H160 H 0.66298 0.32608 0.61228 0.0
O161 O 0.60747 0.28002 0.69576 0.0
O162 O 0.57895 0.25345 0.67982 0.0
H163 H 0.58621 0.24886 0.58692 0.0
H164 H 0.58935 0.27477 0.56476 0.0
C165 C 0.5837 0.2696 0.58438 0.0
H166 H 0.56336 0.27418 0.58724 0.0
H167 H 0.57345 0.21955 0.62792 0.0
O168 O 0.63527 0.33116 0.68374 0.0
C169 C 0.59545 0.25914 0.69658 0.0
Co170 Co 0.42513 0.85557 0.42567 0.0
Co171 Co 0.46634 0.81912 0.40256 0.0
C172 C 0.41575 0.80018 0.42256 0.0
O173 O 0.40786 0.8225 0.42765 0.0
O174 O 0.43769 0.79643 0.41295 0.0
C175 C 0.3915 0.88496 0.45731 0.0
O176 O 0.39186 0.86502 0.47229 0.0
C177 C 0.4897 0.77807 0.37234 0.0
C178 C 0.52876 0.79271 0.36786 0.0
C179 C 0.5132 0.77243 0.36176 0.0
N180 N 0.49135 0.80079 0.38387 0.0
N181 N 0.51472 0.80943 0.38106 0.0
C182 C 0.46691 0.76127 0.37422 0.0
H183 H 0.46368 0.75666 0.39447 0.0
H184 H 0.44996 0.77161 0.36718 0.0
H185 H 0.46919 0.74323 0.36371 0.0
C186 C 0.43168 0.88059 0.37655 0.0
N187 N 0.43744 0.86191 0.39289 0.0
N188 N 0.45444 0.8468 0.38261 0.0
C189 C 0.45981 0.8554 0.35902 0.0
C190 C 0.44574 0.8772 0.35469 0.0
C191 C 0.41263 0.90105 0.38165 0.0
H192 H 0.39465 0.8924 0.38836 0.0
H193 H 0.40872 0.91262 0.3645 0.0
H194 H 0.41993 0.9136 0.39688 0.0
O195 O 0.45273 0.85517 0.45046 0.0
O196 O 0.48318 0.83107 0.43435 0.0
H197 H 0.4977 0.84614 0.34823 0.0
H198 H 0.47664 0.8516 0.32181 0.0
C199 C 0.47813 0.84325 0.3411 0.0
H200 H 0.47443 0.82256 0.3401 0.0
H201 H 0.52115 0.82664 0.38845 0.0
O202 O 0.40315 0.88408 0.43625 0.0
C203 C 0.47455 0.84505 0.45208 0.0
Co204 Co 0.90097 0.6774 0.17471 0.0
Co205 Co 0.93667 0.72052 0.15405 0.0
C206 C 0.95668 0.67135 0.17646 0.0
O207 O 0.93458 0.66222 0.18017 0.0
O208 O 0.95983 0.69331 0.16671 0.0
C209 C 0.87026 0.64379 0.20479 0.0
O210 O 0.88849 0.64616 0.22164 0.0
C211 C 0.97581 0.74518 0.12185 0.0
C212 C 0.96414 0.78531 0.12544 0.0
C213 C 0.98204 0.76968 0.11416 0.0
N214 N 0.95513 0.74645 0.13682 0.0
N215 N 0.94828 0.77048 0.13879 0.0
C216 C 0.9897 0.72112 0.11596 0.0
H217 H 0.98521 0.70615 0.12993 0.0
H218 H 0.98377 0.71422 0.09698 0.0
H219 H 0.0105 0.72445 0.1157 0.0
C220 C 0.88115 0.68063 0.12303 0.0
N221 N 0.89744 0.68829 0.14102 0.0
N222 N 0.91141 0.70698 0.13217 0.0
C223 C 0.90393 0.71219 0.1082 0.0
C224 C 0.88472 0.69542 0.10163 0.0
C225 C 0.86139 0.6606 0.12701 0.0
H226 H 0.84717 0.66762 0.14084 0.0
H227 H 0.87039 0.64333 0.13502 0.0
H228 H 0.85152 0.65558 0.10916 0.0
O229 O 0.89702 0.70565 0.19868 0.0
O230 O 0.92155 0.73671 0.18451 0.0
H231 H 0.91335 0.75124 0.10252 0.0
H232 H 0.90431 0.7346 0.0738 0.0
C233 C 0.91459 0.73298 0.09212 0.0
H234 H 0.93491 0.72906 0.0883 0.0
H235 H 0.93278 0.77678 0.14938 0.0
O236 O 0.87281 0.65413 0.18318 0.0
C237 C 0.90607 0.72789 0.20081 0.0
Co238 Co 0.08663 0.15645 0.93594 0.0
Co239 Co 0.0454 0.19104 0.91004 0.0
C240 C 0.09206 0.21305 0.93389 0.0
O241 O 0.10044 0.19103 0.93935 0.0
O242 O 0.07091 0.21599 0.92254 0.0
C243 C 0.134 0.12741 0.93883 0.0
O244 O 0.14169 0.14035 0.91896 0.0
C245 C 0.01776 0.23218 0.88356 0.0
C246 C 0.9846 0.2113 0.86862 0.0
C247 C 0.99562 0.23514 0.86951 0.0
N248 N 0.01989 0.20759 0.89016 0.0
N249 N -6e-05 0.19528 0.88126 0.0
C250 C 0.03494 0.25256 0.89333 0.0
H251 H 0.03712 0.25028 0.91412 0.0
H252 H 0.05395 0.25048 0.88451 0.0
H253 H 0.02746 0.27185 0.88958 0.0
C254 C 0.08296 0.13009 0.88665 0.0
N255 N 0.07661 0.1492 0.90231 0.0
N256 N 0.0612 0.16485 0.89038 0.0
C257 C 0.05856 0.15683 0.86612 0.0
C258 C 0.07239 0.13463 0.86305 0.0
C259 C 0.09571 0.10604 0.89488 0.0
H260 H 0.09268 0.10265 0.9154 0.0
H261 H 0.11627 0.10732 0.89079 0.0
H262 H 0.08811 0.08956 0.88418 0.0
O263 O 0.05752 0.15324 0.95854 0.0
O264 O 0.02749 0.17651 0.94042 0.0
H265 H 0.02391 0.16401 0.84644 0.0
H266 H 0.05174 0.16616 0.8269 0.0
C267 C 0.04393 0.17047 0.84599 0.0
H268 H 0.04454 0.19124 0.84927 0.0
H269 H 0.99665 0.17596 0.88411 0.0
O270 O 0.11226 0.13183 0.9483 0.0
C271 C 0.03507 0.16203 0.95829 0.0
Co272 Co 0.31319 0.09551 0.1621 0.0
Co273 Co 0.33784 0.0605 0.20367 0.0
C274 C 0.31785 0.03898 0.15532 0.0
O275 O 0.31159 0.06097 0.14736 0.0
O276 O 0.32854 0.03595 0.17679 0.0
C277 C 0.31161 0.12586 0.11533 0.0
O278 O 0.33176 0.11324 0.10783 0.0
C279 C 0.36903 0.02194 0.22964 0.0
C280 C 0.36993 0.03749 0.26861 0.0
C281 C 0.37803 0.01723 0.25396 0.0
N282 N 0.35634 0.04409 0.22999 0.0
N283 N 0.35709 0.05332 0.25327 0.0
C284 C 0.36996 0.00477 0.20706 0.0
H285 H 0.37615 0.01572 0.19016 0.0
H286 H 0.38268 0.9883 0.20999 0.0
H287 H 0.35057 0.99755 0.20324 0.0
C288 C 0.36166 0.12323 0.16962 0.0
N289 N 0.34603 0.10356 0.17428 0.0
N290 N 0.35701 0.0882 0.19067 0.0
C291 C 0.38037 0.09725 0.19619 0.0
C292 C 0.38396 0.11957 0.18284 0.0
C293 C 0.3548 0.14655 0.15492 0.0
H294 H 0.33417 0.15032 0.15623 0.0
H295 H 0.36042 0.14388 0.13486 0.0
H296 H 0.36519 0.16337 0.1622 0.0
O297 O 0.28871 0.09729 0.19011 0.0
O298 O 0.30564 0.07232 0.21952 0.0
H299 H 0.39202 0.08738 0.23367 0.0
H300 H 0.41794 0.09356 0.21219 0.0
C301 C 0.39879 0.08495 0.2139 0.0
H302 H 0.39994 0.06434 0.2098 0.0
H303 H 0.34839 0.07024 0.25879 0.0
O304 O 0.3015 0.12068 0.13662 0.0
C305 C 0.28791 0.08686 0.21186 0.0
Co306 Co 0.64112 0.56344 0.9475 0.0
Co307 Co 0.68175 0.59239 0.98016 0.0
C308 C 0.69561 0.56788 0.93087 0.0
O309 O 0.67293 0.56003 0.92762 0.0
O310 O 0.70169 0.58115 0.95019 0.0
C311 C 0.61131 0.54113 0.90626 0.0
O312 O 0.63253 0.54001 0.89324 0.0
C313 C 0.7248 0.62317 0.99883 0.0
C314 C 0.7099 0.63552 0.03606 0.0
C315 C 0.73082 0.63731 0.02025 0.0
N316 N 0.70121 0.61387 0.00177 0.0
N317 N 0.69248 0.62129 0.02406 0.0
C318 C 0.74194 0.61592 0.9774 0.0
H319 H 0.74221 0.59495 0.97568 0.0
H320 H 0.7343 0.62379 0.95942 0.0
H321 H 0.76166 0.6226 0.98027 0.0
C322 C 0.61565 0.6127 0.95021 0.0
N323 N 0.63507 0.59736 0.95629 0.0
N324 N 0.65196 0.6101 0.96954 0.0
C325 C 0.6439 0.63437 0.97183 0.0
C326 C 0.62045 0.63657 0.96005 0.0
C327 C 0.594 0.60503 0.93345 0.0
H328 H 0.60158 0.59694 0.91557 0.0
H329 H 0.58144 0.62123 0.92869 0.0
H330 H 0.58272 0.5901 0.9431 0.0
O331 O 0.64377 0.54247 0.97802 0.0
O332 O 0.6739 0.56137 0.00063 0.0
H333 H 0.65665 0.65312 0.00533 0.0
H334 H 0.65113 0.67414 0.97908 0.0
C335 C 0.65849 0.65517 0.98448 0.0
H336 H 0.67886 0.65382 0.97937 0.0
H337 H 0.67469 0.61632 0.03122 0.0
O338 O 0.61155 0.55009 0.92863 0.0
C339 C 0.65799 0.54348 0.99743 0.0
Co340 Co 0.17107 0.89597 0.67703 0.0
Co341 Co 0.15146 0.93262 0.71961 0.0
C342 C 0.17033 0.95186 0.6691 0.0
O343 O 0.17489 0.92958 0.66078 0.0
O344 O 0.16105 0.9554 0.69116 0.0
C345 C 0.19818 0.86633 0.63959 0.0
O346 O 0.21423 0.88542 0.63925 0.0
C347 C 0.12063 0.97276 0.74259 0.0
C348 C 0.12713 0.96587 0.78341 0.0
C349 C 0.11502 0.9822 0.76663 0.0
N350 N 0.13548 0.95218 0.74528 0.0
N351 N 0.13915 0.94806 0.7697 0.0
C352 C 0.11135 0.98202 0.71742 0.0
H353 H 0.11098 0.96617 0.70355 0.0
H354 H 0.09207 0.99033 0.71918 0.0
H355 H 0.12453 0.99674 0.71014 0.0
C356 C 0.12053 0.87407 0.68451 0.0
N357 N 0.13817 0.89156 0.6901 0.0
N358 N 0.12973 0.90621 0.70845 0.0
C359 C 0.10634 0.89822 0.7153 0.0
C360 C 0.09987 0.87762 0.70026 0.0
C361 C 0.12371 0.85388 0.6648 0.0
H362 H 0.13019 0.86257 0.64676 0.0
H363 H 0.10576 0.84348 0.66135 0.0
H364 H 0.13839 0.84023 0.67122 0.0
O365 O 0.19674 0.89302 0.70409 0.0
O366 O 0.18351 0.91916 0.73433 0.0
H367 H 0.10232 0.91014 0.75386 0.0
H368 H 0.07321 0.89866 0.7395 0.0
C369 C 0.0909 0.90961 0.73618 0.0
H370 H 0.08595 0.92943 0.73111 0.0
H371 H 0.15023 0.93335 0.77698 0.0
O372 O 0.17845 0.86784 0.65331 0.0
C373 C 0.19969 0.90344 0.72566 0.0
Co374 Co 0.84722 0.42433 0.41566 0.0
Co375 Co 0.81017 0.40413 0.45734 0.0
C376 C 0.79152 0.42431 0.4071 0.0
O377 O 0.81392 0.42882 0.39911 0.0
O378 O 0.78768 0.4146 0.42893 0.0
C379 C 0.87762 0.45303 0.38055 0.0
O380 O 0.85888 0.46946 0.38139 0.0
C381 C 0.7711 0.37106 0.47876 0.0
C382 C 0.77567 0.37825 0.51978 0.0
C383 C 0.76125 0.36466 0.50242 0.0
N384 N 0.7902 0.3876 0.48221 0.0
N385 N 0.79288 0.39179 0.50675 0.0
C386 C 0.76381 0.36092 0.45327 0.0
H387 H 0.77996 0.36263 0.43985 0.0
H388 H 0.75789 0.34075 0.45471 0.0
H389 H 0.74778 0.37225 0.44564 0.0
C390 C 0.86893 0.37352 0.42225 0.0
N391 N 0.85136 0.39108 0.42791 0.0
N392 N 0.83657 0.3824 0.44604 0.0
C393 C 0.84459 0.35896 0.45274 0.0
C394 C 0.86528 0.35268 0.43774 0.0
C395 C 0.88945 0.37704 0.40292 0.0
H396 H 0.88107 0.384 0.38491 0.0
H397 H 0.89985 0.35912 0.39925 0.0
H398 H 0.90304 0.39153 0.40989 0.0
O399 O 0.85014 0.44927 0.4434 0.0
O400 O 0.82376 0.43555 0.47317 0.0
H401 H 0.84536 0.32661 0.47797 0.0
H402 H 0.81426 0.3368 0.46783 0.0
C403 C 0.83338 0.34339 0.47363 0.0
H404 H 0.83121 0.35521 0.4909 0.0
H405 H 0.80635 0.40402 0.51456 0.0
O406 O 0.87558 0.43226 0.39258 0.0
C407 C 0.83969 0.45177 0.465 0.0
Co408 Co 0.81877 0.39954 0.83515 0.0
Co409 Co 0.84151 0.43562 0.7936 0.0
C410 C 0.81602 0.45551 0.8411 0.0
O411 O 0.81208 0.43322 0.84967 0.0
O412 O 0.82717 0.45912 0.81987 0.0
C413 C 0.78755 0.37043 0.86906 0.0
O414 O 0.77162 0.38951 0.86703 0.0
C415 C 0.86856 0.47797 0.76845 0.0
C416 C 0.87823 0.46023 0.73168 0.0
C417 C 0.88045 0.48257 0.74534 0.0
N418 N 0.86007 0.45388 0.76844 0.0
N419 N 0.86591 0.44344 0.74641 0.0
C420 C 0.86275 0.49659 0.78908 0.0
H421 H 0.84194 0.49717 0.79204 0.0
H422 H 0.8716 0.49007 0.80705 0.0
H423 H 0.86927 0.51603 0.7845 0.0
C424 C 0.87051 0.37951 0.83476 0.0
N425 N 0.85302 0.39604 0.82635 0.0
N426 N 0.86305 0.41064 0.80875 0.0
C427 C 0.88751 0.40361 0.80537 0.0
C428 C 0.89295 0.38379 0.82185 0.0
C429 C 0.8651 0.35879 0.85346 0.0
H430 H 0.85023 0.34614 0.8456 0.0
H431 H 0.8577 0.36722 0.87128 0.0
H432 H 0.88215 0.34725 0.85779 0.0
O433 O 0.7967 0.39487 0.8056 0.0
O434 O 0.81224 0.41979 0.77555 0.0
H435 H 0.89997 0.40954 0.76732 0.0
H436 H 0.92524 0.40941 0.7904 0.0
C437 C 0.90538 0.41544 0.78678 0.0
H438 H 0.90409 0.43641 0.78798 0.0
H439 H 0.86119 0.42489 0.74133 0.0
O440 O 0.80908 0.37189 0.85837 0.0
C441 C 0.79579 0.40386 0.78325 0.0
Co442 Co 0.34215 0.07965 0.58575 0.0
Co443 Co 0.30607 0.0962 0.5416 0.0
C444 C 0.28647 0.07562 0.59154 0.0
O445 O 0.30863 0.07292 0.60087 0.0
O446 O 0.28317 0.0846 0.5693 0.0
C447 C 0.37354 0.05486 0.62366 0.0
O448 O 0.35629 0.03685 0.62344 0.0
C449 C 0.26603 0.12669 0.51825 0.0
C450 C 0.27031 0.11664 0.47782 0.0
C451 C 0.25548 0.13087 0.49433 0.0
N452 N 0.28577 0.11073 0.51569 0.0
N453 N 0.28832 0.10489 0.49149 0.0
C454 C 0.25866 0.13812 0.54315 0.0
H455 H 0.27482 0.13724 0.55665 0.0
H456 H 0.25268 0.15815 0.54062 0.0
H457 H 0.24271 0.12712 0.5514 0.0
C458 C 0.36022 0.13184 0.5791 0.0
N459 N 0.34411 0.11304 0.57312 0.0
N460 N 0.33035 0.1199 0.55349 0.0
C461 C 0.33797 0.14314 0.54577 0.0
C462 C 0.35691 0.15156 0.56204 0.0
C463 C 0.38036 0.12968 0.59904 0.0
H464 H 0.37192 0.12233 0.61686 0.0
H465 H 0.38959 0.14812 0.60299 0.0
H466 H 0.39504 0.1161 0.59247 0.0
O467 O 0.34819 0.05435 0.55859 0.0
O468 O 0.32259 0.06567 0.52715 0.0
H469 H 0.3278 0.14275 0.50644 0.0
H470 H 0.34035 0.17287 0.51756 0.0
C471 C 0.32834 0.15629 0.52255 0.0
H472 H 0.30869 0.16295 0.52606 0.0
H473 H 0.30211 0.09259 0.48438 0.0
O474 O 0.37013 0.07454 0.6102 0.0
C475 C 0.3391 0.05072 0.53651 0.0
Co476 Co 0.67149 0.60172 0.32641 0.0
Co477 Co 0.65281 0.56738 0.28181 0.0
C478 C 0.67239 0.54567 0.33118 0.0
O479 O 0.67631 0.56752 0.34081 0.0
O480 O 0.6632 0.54321 0.30893 0.0
C481 C 0.699 0.63106 0.36347 0.0
O482 O 0.71645 0.61339 0.3612 0.0
C483 C 0.62062 0.52923 0.25798 0.0
C484 C 0.62762 0.53621 0.21726 0.0
C485 C 0.61437 0.5206 0.23384 0.0
N486 N 0.63681 0.54877 0.25558 0.0
N487 N 0.64087 0.55293 0.23122 0.0
C488 C 0.61058 0.52038 0.28302 0.0
H489 H 0.61132 0.53605 0.29708 0.0
H490 H 0.59077 0.51349 0.28111 0.0
H491 H 0.62266 0.50467 0.29017 0.0
C492 C 0.62028 0.62267 0.32055 0.0
N493 N 0.63832 0.60593 0.31398 0.0
N494 N 0.63049 0.59264 0.29438 0.0
C495 C 0.60728 0.60106 0.28745 0.0
C496 C 0.60004 0.62016 0.30405 0.0
C497 C 0.62325 0.64209 0.34107 0.0
H498 H 0.63758 0.65628 0.33503 0.0
H499 H 0.63009 0.6328 0.35867 0.0
H500 H 0.60517 0.65205 0.3451 0.0
O501 O 0.69694 0.60687 0.29931 0.0
O502 O 0.68428 0.58234 0.26754 0.0
H503 H 0.60548 0.59149 0.24804 0.0
H504 H 0.57608 0.60393 0.26095 0.0
C505 C 0.59285 0.59178 0.26487 0.0
H506 H 0.58634 0.57209 0.26845 0.0
H507 H 0.65284 0.56704 0.22416 0.0
O508 O 0.67827 0.62869 0.35145 0.0
C509 C 0.70008 0.5979 0.27712 0.0
Co510 Co 0.14595 0.93257 0.05325 0.0
Co511 Co 0.18513 0.90385 0.01872 0.0
C512 C 0.20087 0.92385 0.06858 0.0
O513 O 0.17858 0.93251 0.07222 0.0
O514 O 0.20629 0.91142 0.04861 0.0
C515 C 0.11348 0.9341 0.09712 0.0
O516 O 0.12518 0.91299 0.10339 0.0
C517 C 0.22664 0.87308 0.99716 0.0
C518 C 0.21035 0.86216 0.96009 0.0
C519 C 0.23166 0.85939 0.97523 0.0
N520 N 0.20321 0.88302 0.99524 0.0
N521 N 0.19362 0.87645 0.97303 0.0
C522 C 0.24464 0.87924 0.01824 0.0
H523 H 0.24528 0.90012 0.02076 0.0
H524 H 0.23758 0.87069 0.03614 0.0
H525 H 0.26415 0.87245 0.01439 0.0
C526 C 0.11598 0.88617 0.04257 0.0
N527 N 0.13721 0.90022 0.04048 0.0
N528 N 0.15457 0.88701 0.02835 0.0
C529 C 0.14551 0.86338 0.02415 0.0
C530 C 0.12064 0.86232 0.03263 0.0
C531 C 0.09166 0.89508 0.05427 0.0
H532 H 0.0902 0.91601 0.05334 0.0
H533 H 0.09081 0.88859 0.07426 0.0
H534 H 0.07505 0.88692 0.04432 0.0
O535 O 0.14903 0.9562 0.02484 0.0
O536 O 0.17828 0.93705 0.00108 0.0
H537 H 0.15888 0.8429 0.99192 0.0
H538 H 0.15293 0.82339 0.01915 0.0
C539 C 0.16044 0.84203 0.01288 0.0
H540 H 0.18071 0.84364 0.01829 0.0
H541 H 0.17571 0.88195 0.96661 0.0
O542 O 0.11954 0.94548 0.07673 0.0
C543 C 0.16337 0.95562 0.00544 0.0
Co544 Co 0.19723 0.32125 0.10728 0.0
Co545 Co 0.23064 0.34894 0.06623 0.0
C546 C 0.18031 0.32649 0.05289 0.0
O547 O 0.17694 0.31869 0.07558 0.0
O548 O 0.20007 0.33902 0.04669 0.0
C549 C 0.15651 0.29751 0.1367 0.0
O550 O 0.1459 0.29192 0.11485 0.0
C551 C 0.24982 0.37852 0.02265 0.0
C552 C 0.28782 0.38955 0.03658 0.0
C553 C 0.27167 0.39163 0.01595 0.0
N554 N 0.25282 0.3695 0.04634 0.0
N555 N 0.27556 0.37619 0.05453 0.0
C556 C 0.2278 0.37186 0.00602 0.0
H557 H 0.22589 0.35091 0.00538 0.0
H558 H 0.21015 0.37974 0.01435 0.0
H559 H 0.23012 0.37893 0.98636 0.0
C560 C 0.20241 0.37039 0.13258 0.0
N561 N 0.20767 0.35478 0.11315 0.0
N562 N 0.2211 0.36703 0.09604 0.0
C563 C 0.22428 0.39124 0.10393 0.0
C564 C 0.21294 0.3939 0.12752 0.0
C565 C 0.18583 0.36338 0.15459 0.0
H566 H 0.19508 0.34796 0.16555 0.0
H567 H 0.16739 0.35619 0.14743 0.0
H568 H 0.18219 0.37969 0.16735 0.0
O569 O 0.22675 0.29877 0.10435 0.0
O570 O 0.24964 0.31693 0.07393 0.0
H571 H 0.25792 0.40921 0.0904 0.0
H572 H 0.23215 0.43078 0.09624 0.0
C573 C 0.23708 0.41166 0.08893 0.0
H574 H 0.23158 0.41024 0.06867 0.0
H575 H 0.28287 0.37122 0.07225 0.0
O576 O 0.17754 0.30928 0.13701 0.0
C577 C 0.24594 0.29902 0.08975 0.0
Co578 Co 0.66394 0.17001 0.90481 0.0
Co579 Co 0.70748 0.1532 0.94163 0.0
C580 C 0.65572 0.16941 0.96036 0.0
O581 O 0.64715 0.17343 0.93807 0.0
O582 O 0.67829 0.16144 0.96394 0.0
C583 C 0.63063 0.19711 0.87088 0.0
O584 O 0.63419 0.21612 0.88661 0.0
C585 C 0.73072 0.12062 0.97982 0.0
C586 C 0.77098 0.13201 0.97741 0.0
C587 C 0.75451 0.11596 0.99029 0.0
N588 N 0.73324 0.1385 0.96182 0.0
N589 N 0.75731 0.14523 0.96043 0.0
C590 C 0.7061 0.10764 0.98542 0.0
H591 H 0.69308 0.10924 0.96894 0.0
H592 H 0.70928 0.08732 0.99001 0.0
H593 H 0.69692 0.11702 0.00188 0.0
C594 C 0.6735 0.11918 0.88441 0.0
N595 N 0.67843 0.13754 0.90132 0.0
N596 N 0.69789 0.13076 0.91538 0.0
C597 C 0.70658 0.10809 0.90713 0.0
C598 C 0.69111 0.09995 0.88748 0.0
C599 C 0.65337 0.1209 0.86447 0.0
H600 H 0.63547 0.12791 0.87301 0.0
H601 H 0.64975 0.10229 0.85546 0.0
H602 H 0.65956 0.13452 0.84966 0.0
O603 O 0.68997 0.19699 0.90178 0.0
O604 O 0.72083 0.18549 0.92801 0.0
H605 H 0.73613 0.07982 0.90405 0.0
H606 H 0.72513 0.08629 0.93577 0.0
C607 C 0.72967 0.09499 0.91715 0.0
H608 H 0.74513 0.10898 0.92004 0.0
H609 H 0.76437 0.15891 0.94797 0.0
O610 O 0.64035 0.17567 0.87606 0.0
C611 C 0.7114 0.20107 0.91216 0.0
Co612 Co 0.57072 0.93963 0.64583 0.0
Co613 Co 0.59516 0.97746 0.68464 0.0
C614 C 0.57312 0.9277 0.70136 0.0
O615 O 0.5671 0.92175 0.67867 0.0
O616 O 0.58424 0.94862 0.70639 0.0
C617 C 0.55773 0.89433 0.6152 0.0
O618 O 0.56174 0.87986 0.6351 0.0
C619 C 0.62602 0.99887 0.72596 0.0
C620 C 0.63365 0.0374 0.71113 0.0
C621 C 0.63846 0.02142 0.73144 0.0
N622 N 0.61473 0.00135 0.70323 0.0
N623 N 0.6194 0.02437 0.69446 0.0
C624 C 0.62262 0.97624 0.74276 0.0
H625 H 0.6292 0.95897 0.73267 0.0
H626 H 0.63277 0.97813 0.76105 0.0
H627 H 0.60211 0.97392 0.74679 0.0
C628 C 0.62139 0.94277 0.62342 0.0
N629 N 0.60429 0.95014 0.64077 0.0
N630 N 0.61525 0.96528 0.65728 0.0
C631 C 0.64009 0.96749 0.65122 0.0
C632 C 0.6447 0.95315 0.62965 0.0
C633 C 0.61532 0.92637 0.601 0.0
H634 H 0.59787 0.93345 0.59166 0.0
H635 H 0.61191 0.90665 0.60754 0.0
H636 H 0.63086 0.92637 0.58681 0.0
O637 O 0.54756 0.96855 0.64544 0.0
O638 O 0.5638 0.99569 0.67318 0.0
H639 H 0.6563 0.00183 0.66529 0.0
H640 H 0.679 0.97662 0.66068 0.0
C641 C 0.6594 0.98109 0.66695 0.0
H642 H 0.65718 0.97565 0.68715 0.0
H643 H 0.61274 0.03121 0.6771 0.0
O644 O 0.56017 0.91823 0.61703 0.0
C645 C 0.54662 0.98948 0.65734 0.0
Co646 Co 0.82008 0.82563 0.39941 0.0
Co647 Co 0.78057 0.84717 0.43787 0.0
C648 C 0.82997 0.82414 0.45495 0.0
O649 O 0.83711 0.81967 0.43226 0.0
O650 O 0.80879 0.83486 0.45958 0.0
C651 C 0.8607 0.80187 0.36957 0.0
O652 O 0.86773 0.78984 0.39025 0.0
C653 C 0.76152 0.88026 0.47798 0.0
C654 C 0.7201 0.87619 0.47311 0.0
C655 C 0.73834 0.88815 0.48789 0.0
N656 N 0.75693 0.86449 0.45849 0.0
N657 N 0.73218 0.86215 0.45563 0.0
C658 C 0.78767 0.88831 0.48556 0.0
H659 H 0.80108 0.88569 0.46953 0.0
H660 H 0.78776 0.9085 0.49159 0.0
H661 H 0.79425 0.87632 0.50158 0.0
C662 C 0.81647 0.87725 0.37935 0.0
N663 N 0.80948 0.8595 0.39619 0.0
N664 N 0.79258 0.86906 0.41183 0.0
C665 C 0.7882 0.8935 0.40528 0.0
C666 C 0.80351 0.89951 0.38468 0.0
C667 C 0.8339 0.87218 0.35747 0.0
H668 H 0.82608 0.85632 0.34608 0.0
H669 H 0.85279 0.86638 0.36475 0.0
H670 H 0.8361 0.88879 0.34482 0.0
O671 O 0.79123 0.80225 0.39657 0.0
O672 O 0.76288 0.81671 0.42409 0.0
H673 H 0.7517 0.90124 0.42136 0.0
H674 H 0.76747 0.92886 0.40824 0.0
C675 C 0.77025 0.91084 0.41878 0.0
H676 H 0.77799 0.91534 0.4378 0.0
H677 H 0.72356 0.85091 0.44179 0.0
O678 O 0.84222 0.81727 0.3705 0.0
C679 C 0.76984 0.80053 0.40757 0.0
Co680 Co 0.92652 0.05861 0.14137 0.0
Co681 Co 0.90325 0.02211 0.18203 0.0
C682 C 0.92784 0.07128 0.19667 0.0
O683 O 0.93315 0.07662 0.17368 0.0
O684 O 0.91606 0.05097 0.20244 0.0
C685 C 0.94027 0.10372 0.11183 0.0
O686 O 0.9384 0.11679 0.13297 0.0
C687 C 0.86951 0.00587 0.22316 0.0
C688 C 0.87338 0.96423 0.22083 0.0
C689 C 0.8616 0.98334 0.23468 0.0
N690 N 0.88509 0.0 0.20382 0.0
N691 N 0.88724 0.97511 0.20246 0.0
C692 C 0.86202 0.03257 0.22925 0.0
H693 H 0.86607 0.04526 0.21293 0.0
H694 H 0.8415 0.03357 0.23389 0.0
H695 H 0.87319 0.03936 0.24575 0.0
C696 C 0.87459 0.05663 0.1218 0.0
N697 N 0.89224 0.04935 0.13864 0.0
N698 N 0.88199 0.03373 0.15521 0.0
C699 C 0.85723 0.03054 0.14927 0.0
C700 C 0.85178 0.04524 0.12811 0.0
C701 C 0.87975 0.07372 0.09967 0.0
H702 H 0.89609 0.06622 0.08873 0.0
H703 H 0.88479 0.0929 0.10672 0.0
H704 H 0.86322 0.07518 0.08675 0.0
O705 O 0.94823 0.02838 0.13927 0.0
O706 O 0.93322 0.00276 0.1692 0.0
H707 H 0.84769 0.99607 0.16862 0.0
H708 H 0.82107 0.01159 0.15335 0.0
C709 C 0.83895 0.01465 0.16405 0.0
H710 H 0.83435 0.0244 0.1821 0.0
H711 H 0.8984 0.96559 0.18916 0.0
O712 O 0.9362 0.07997 0.11209 0.0
C713 C 0.94913 0.00775 0.15172 0.0
Co714 Co 0.32747 0.67869 0.59766 0.0
Co715 Co 0.28776 0.65431 0.56077 0.0
C716 C 0.33449 0.68048 0.54131 0.0
O717 O 0.34203 0.68545 0.56377 0.0
O718 O 0.31396 0.66826 0.53732 0.0
C719 C 0.36349 0.70916 0.62604 0.0
O720 O 0.36287 0.72494 0.60673 0.0
C721 C 0.26329 0.62654 0.51876 0.0
C722 C 0.22794 0.6136 0.53731 0.0
C723 C 0.24121 0.61277 0.51464 0.0
N724 N 0.2632 0.63473 0.54292 0.0
N725 N 0.24202 0.62697 0.55386 0.0
C726 C 0.28284 0.63424 0.49968 0.0
H727 H 0.28424 0.65523 0.49953 0.0
H728 H 0.30159 0.62654 0.5054 0.0
H729 H 0.27811 0.62782 0.48024 0.0
C730 C 0.32804 0.62717 0.61824 0.0
N731 N 0.31928 0.64432 0.60156 0.0
N732 N 0.3032 0.63336 0.58596 0.0
C733 C 0.3017 0.60843 0.59199 0.0
C734 C 0.31751 0.60377 0.61256 0.0
C735 C 0.34466 0.63371 0.64036 0.0
H736 H 0.33643 0.65019 0.65051 0.0
H737 H 0.36377 0.63914 0.63337 0.0
H738 H 0.34647 0.61783 0.65404 0.0
O739 O 0.29752 0.70005 0.60221 0.0
O740 O 0.26907 0.68389 0.57576 0.0
H741 H 0.26625 0.59101 0.58317 0.0
H742 H 0.2929 0.56962 0.58211 0.0
C743 C 0.28649 0.5892 0.57771 0.0
H744 H 0.28819 0.59262 0.55703 0.0
H745 H 0.23714 0.63091 0.57264 0.0
O746 O 0.35098 0.68862 0.62492 0.0
C747 C 0.27563 0.70042 0.59215 0.0
Co748 Co 0.07406 0.57762 0.35034 0.0
Co749 Co 0.09494 0.5373 0.31177 0.0
C750 C 0.07449 0.58784 0.29463 0.0
O751 O 0.06966 0.59476 0.31732 0.0
O752 O 0.08452 0.5663 0.28984 0.0
C753 C 0.04557 0.61273 0.38129 0.0
O754 O 0.02943 0.613 0.36229 0.0
C755 C 0.12387 0.51345 0.27016 0.0
C756 C 0.126 0.47383 0.28386 0.0
C757 C 0.13319 0.48956 0.26406 0.0
N758 N 0.11196 0.51185 0.29267 0.0
N759 N 0.11331 0.48814 0.30072 0.0
C760 C 0.12392 0.53688 0.25412 0.0
H761 H 0.10401 0.54217 0.24997 0.0
H762 H 0.13265 0.55273 0.26489 0.0
H763 H 0.13393 0.53417 0.23586 0.0
C764 C 0.12522 0.57196 0.37108 0.0
N765 N 0.10738 0.56573 0.35401 0.0
N766 N 0.11651 0.54861 0.33834 0.0
C767 C 0.14069 0.54333 0.34512 0.0
C768 C 0.14686 0.55807 0.36599 0.0
C769 C 0.12122 0.59035 0.39236 0.0
H770 H 0.11489 0.60885 0.38455 0.0
H771 H 0.13869 0.59322 0.4037 0.0
H772 H 0.10606 0.58304 0.405 0.0
O773 O 0.04949 0.54968 0.35258 0.0
O774 O 0.0634 0.52119 0.32494 0.0
H775 H 0.14988 0.50548 0.33401 0.0
H776 H 0.1772 0.52546 0.33954 0.0
C777 C 0.15763 0.52492 0.33176 0.0
H778 H 0.15813 0.52944 0.31122 0.0
H779 H 0.10545 0.48172 0.31773 0.0
O780 O 0.06596 0.60009 0.37921 0.0
C781 C 0.04716 0.52853 0.34124 0.0
Co782 Co 0.42157 0.40966 0.84258 0.0
Co783 Co 0.4069 0.45521 0.80749 0.0
C784 C 0.42796 0.40547 0.78725 0.0
O785 O 0.42919 0.3952 0.80912 0.0
O786 O 0.41979 0.42809 0.78437 0.0
C787 C 0.44481 0.37 0.87275 0.0
O788 O 0.46153 0.36853 0.85432 0.0
C789 C 0.37801 0.47952 0.7669 0.0
C790 C 0.38677 0.52 0.77326 0.0
C791 C 0.37357 0.50374 0.75726 0.0
N792 N 0.39313 0.48161 0.78732 0.0
N793 N 0.39824 0.50584 0.79108 0.0
C794 C 0.3673 0.45475 0.7581 0.0
H795 H 0.36725 0.44079 0.77389 0.0
H796 H 0.34769 0.4573 0.75082 0.0
H797 H 0.3794 0.44706 0.74268 0.0
C798 C 0.36886 0.41625 0.85898 0.0
N799 N 0.38825 0.42245 0.84368 0.0
N800 N 0.38212 0.44257 0.83027 0.0
C801 C 0.35877 0.45039 0.83734 0.0
C802 C 0.34948 0.43371 0.85553 0.0
C803 C 0.37029 0.39582 0.87871 0.0
H804 H 0.38331 0.40199 0.89406 0.0
H805 H 0.37802 0.37823 0.87012 0.0
H806 H 0.35153 0.39157 0.88712 0.0
O807 O 0.44683 0.43646 0.84985 0.0
O808 O 0.43627 0.46949 0.82608 0.0
H809 H 0.36003 0.49017 0.82916 0.0
H810 H 0.32913 0.47877 0.83929 0.0
C811 C 0.34637 0.47419 0.82809 0.0
H812 H 0.3409 0.47172 0.80793 0.0
H813 H 0.40975 0.51266 0.80568 0.0
O814 O 0.42609 0.38497 0.87043 0.0
C815 C 0.45075 0.45909 0.84236 0.0
C816 C 0.21231 0.15035 0.50312 0.0
C817 C 0.2325 0.1453 0.48644 0.0
C818 C 0.18952 0.16111 0.49432 0.0
C819 C 0.18639 0.16573 0.46807 0.0
C820 C 0.207 0.16162 0.45132 0.0
C821 C 0.22982 0.15189 0.46078 0.0
C822 C 0.16843 0.16609 0.51304 0.0
C823 C 0.20446 0.16579 0.42304 0.0
C824 C 0.12568 0.1555 0.43226 0.0
C825 C 0.12214 0.17961 0.42172 0.0
C826 C 0.14527 0.15104 0.44962 0.0
C827 C 0.16102 0.17147 0.45716 0.0
C828 C 0.1549 0.19651 0.44951 0.0
C829 C 0.13565 0.2003 0.43144 0.0
C830 C 0.151 0.12402 0.45727 0.0
C831 C 0.17026 0.21894 0.45845 0.0
H832 H 0.21347 0.14487 0.5228 0.0
H833 H 0.24528 0.14835 0.44769 0.0
H834 H 0.15636 0.18227 0.50701 0.0
H835 H 0.15624 0.149 0.51454 0.0
H836 H 0.17615 0.17015 0.53223 0.0
H837 H 0.22258 0.16252 0.41277 0.0
H838 H 0.18996 0.15265 0.41524 0.0
H839 H 0.19801 0.18541 0.41905 0.0
H840 H 0.11483 0.13963 0.42489 0.0
H841 H 0.13265 0.21903 0.42346 0.0
H842 H 0.15392 0.12267 0.47804 0.0
H843 H 0.16881 0.11773 0.44793 0.0
H844 H 0.13556 0.11075 0.45178 0.0
H845 H 0.17553 0.21677 0.47873 0.0
H846 H 0.15968 0.23702 0.45597 0.0
H847 H 0.18805 0.22016 0.44727 0.0
C848 C 0.54102 0.40112 0.17285 0.0
C849 C 0.56075 0.39002 0.15898 0.0
C850 C 0.54611 0.4208 0.19015 0.0
C851 C 0.57137 0.42955 0.19307 0.0
C852 C 0.59146 0.41682 0.18058 0.0
C853 C 0.58587 0.39699 0.16394 0.0
C854 C 0.52434 0.43335 0.20383 0.0
C855 C 0.61868 0.42553 0.18299 0.0
C856 C 0.58782 0.49859 0.20171 0.0
C857 C 0.59887 0.4985 0.2259 0.0
C858 C 0.577 0.47659 0.19149 0.0
C859 C 0.57685 0.45397 0.20599 0.0
C860 C 0.58605 0.45424 0.2312 0.0
C861 C 0.59739 0.4764 0.24072 0.0
C862 C 0.56767 0.47708 0.16437 0.0
C863 C 0.58569 0.43066 0.24746 0.0
H864 H 0.52159 0.39555 0.16905 0.0
H865 H 0.60112 0.38787 0.15356 0.0
H866 H 0.5296 0.43785 0.22371 0.0
H867 H 0.51956 0.45147 0.19424 0.0
H868 H 0.50713 0.42116 0.20389 0.0
H869 H 0.63215 0.41244 0.17341 0.0
H870 H 0.62075 0.44464 0.17437 0.0
H871 H 0.62416 0.4271 0.20324 0.0
H872 H 0.58872 0.51563 0.19019 0.0
H873 H 0.60641 0.47568 0.25912 0.0
H874 H 0.54843 0.46868 0.16305 0.0
H875 H 0.58048 0.46547 0.15233 0.0
H876 H 0.56703 0.49663 0.15649 0.0
H877 H 0.56781 0.41988 0.2447 0.0
H878 H 0.58777 0.4353 0.26792 0.0
H879 H 0.60165 0.41809 0.24194 0.0
C880 C 0.35216 0.78972 0.91646 0.0
C881 C 0.37173 0.80763 0.91685 0.0
C882 C 0.33004 0.79361 0.93076 0.0
C883 C 0.32766 0.81602 0.94542 0.0
C884 C 0.34879 0.83238 0.94827 0.0
C885 C 0.37069 0.82794 0.93387 0.0
C886 C 0.30812 0.77549 0.92752 0.0
C887 C 0.34718 0.85634 0.96387 0.0
C888 C 0.26486 0.85073 0.9431 0.0
C889 C 0.25547 0.8468 0.96758 0.0
C890 C 0.28804 0.84024 0.93555 0.0
C891 C 0.30208 0.8252 0.95291 0.0
C892 C 0.29216 0.82026 0.97736 0.0
C893 C 0.26885 0.83114 0.98443 0.0
C894 C 0.29795 0.84626 0.90932 0.0
C895 C 0.30638 0.80403 0.99619 0.0
H896 H 0.35305 0.77412 0.90307 0.0
H897 H 0.3859 0.84181 0.9339 0.0
H898 H 0.29781 0.77277 0.94567 0.0
H899 H 0.29453 0.78351 0.91357 0.0
H900 H 0.31456 0.75671 0.92043 0.0
H901 H 0.36628 0.8643 0.96795 0.0
H902 H 0.33613 0.8708 0.95326 0.0
H903 H 0.33726 0.85281 0.98208 0.0
H904 H 0.25441 0.86275 0.93005 0.0
H905 H 0.26115 0.82752 0.00315 0.0
H906 H 0.30443 0.82877 0.89956 0.0
H907 H 0.31449 0.85918 0.91098 0.0
H908 H 0.28344 0.85566 0.89724 0.0
H909 H 0.31212 0.78582 0.98732 0.0
H910 H 0.29492 0.79991 0.01339 0.0
H911 H 0.324 0.8139 0.00211 0.0
C912 C 0.88644 0.51328 0.71019 0.0
C913 C 0.89132 0.50642 0.73537 0.0
C914 C 0.89655 0.53557 0.69987 0.0
C915 C 0.91204 0.55138 0.71512 0.0
C916 C 0.91739 0.54439 0.7405 0.0
C917 C 0.9071 0.52179 0.7503 0.0
C918 C 0.89042 0.54228 0.67265 0.0
C919 C 0.93391 0.56073 0.75721 0.0
C920 C 0.9504 0.59483 0.67319 0.0
C921 C 0.93377 0.61538 0.67104 0.0
C922 C 0.94489 0.57464 0.68965 0.0
C923 C 0.92222 0.57525 0.70409 0.0
C924 C 0.90683 0.59729 0.70384 0.0
C925 C 0.91273 0.6171 0.68708 0.0
C926 C 0.96182 0.55154 0.68936 0.0
C927 C 0.88268 0.59884 0.71914 0.0
H928 H 0.8744 0.5013 0.69858 0.0
H929 H 0.91164 0.51601 0.7695 0.0
H930 H 0.87994 0.56053 0.67198 0.0
H931 H 0.90818 0.5448 0.66163 0.0
H932 H 0.87872 0.52752 0.66319 0.0
H933 H 0.936 0.55276 0.77662 0.0
H934 H 0.95303 0.56273 0.74864 0.0
H935 H 0.92572 0.58007 0.75869 0.0
H936 H 0.9665 0.59354 0.66044 0.0
H937 H 0.89981 0.633 0.68506 0.0
H938 H 0.95288 0.53655 0.67757 0.0
H939 H 0.9643 0.54375 0.70875 0.0
H940 H 0.9808 0.55587 0.68127 0.0
H941 H 0.86783 0.58711 0.70991 0.0
H942 H 0.87556 0.61864 0.72054 0.0
H943 H 0.88562 0.59127 0.73857 0.0
C944 C 0.73843 0.33804 0.53387 0.0
C945 C 0.73934 0.34838 0.50938 0.0
C946 C 0.71647 0.32632 0.54305 0.0
C947 C 0.69491 0.32431 0.52714 0.0
C948 C 0.69631 0.3328 0.50171 0.0
C949 C 0.71834 0.34524 0.49326 0.0
C950 C 0.71579 0.31788 0.57047 0.0
C951 C 0.67407 0.33028 0.48384 0.0
C952 C 0.64602 0.28468 0.56113 0.0
C953 C 0.63342 0.30371 0.57468 0.0
C954 C 0.66431 0.2911 0.54281 0.0
C955 C 0.67026 0.317 0.53868 0.0
C956 C 0.65532 0.33611 0.55025 0.0
C957 C 0.63682 0.32914 0.56793 0.0
C958 C 0.67893 0.27024 0.52979 0.0
C959 C 0.66089 0.36397 0.54642 0.0
H960 H 0.75462 0.34014 0.54639 0.0
H961 H 0.71832 0.35362 0.47456 0.0
H962 H 0.70212 0.32982 0.58116 0.0
H963 H 0.70924 0.29794 0.57189 0.0
H964 H 0.73463 0.31939 0.5798 0.0
H965 H 0.68045 0.33 0.46375 0.0
H966 H 0.66302 0.31278 0.48773 0.0
H967 H 0.66124 0.34678 0.48629 0.0
H968 H 0.64308 0.26496 0.56624 0.0
H969 H 0.62665 0.34374 0.57829 0.0
H970 H 0.69728 0.26731 0.53968 0.0
H971 H 0.68314 0.2754 0.50981 0.0
H972 H 0.66832 0.25202 0.5301 0.0
H973 H 0.67921 0.36876 0.55565 0.0
H974 H 0.64588 0.37628 0.55465 0.0
H975 H 0.66273 0.36843 0.52595 0.0
C976 C 0.38217 0.98354 0.28642 0.0
C977 C 0.39097 0.99451 0.26393 0.0
C978 C 0.39458 0.96272 0.29726 0.0
C979 C 0.41656 0.95277 0.28538 0.0
C980 C 0.42548 0.96365 0.2625 0.0
C981 C 0.41261 0.98458 0.25207 0.0
C982 C 0.38445 0.95176 0.32176 0.0
C983 C 0.44894 0.95367 0.24947 0.0
C984 C 0.45507 0.91848 0.33468 0.0
C985 C 0.44528 0.89393 0.33241 0.0
C986 C 0.44799 0.93753 0.31755 0.0
C987 C 0.43049 0.93176 0.29799 0.0
C988 C 0.42267 0.90631 0.29416 0.0
C989 C 0.43016 0.88759 0.31157 0.0
C990 C 0.45698 0.96433 0.32219 0.0
C991 C 0.40419 0.89936 0.27343 0.0
H992 H 0.36549 0.99133 0.29562 0.0
H993 H 0.41985 0.99359 0.23505 0.0
H994 H 0.38105 0.93109 0.31964 0.0
H995 H 0.39866 0.95428 0.33709 0.0
H996 H 0.36645 0.96092 0.3278 0.0
H997 H 0.4519 0.96254 0.23057 0.0
H998 H 0.46583 0.95756 0.26141 0.0
H999 H 0.44768 0.93279 0.24706 0.0
H1000 H 0.46662 0.92323 0.35104 0.0
H1001 H 0.42247 0.86856 0.31013 0.0
H1002 H 0.44154 0.97535 0.33135 0.0
H1003 H 0.46177 0.9739 0.30408 0.0
H1004 H 0.47385 0.96484 0.33482 0.0
H1005 H 0.38483 0.9054 0.2791 0.0
H1006 H 0.40388 0.87858 0.2699 0.0
H1007 H 0.40896 0.90928 0.25549 0.0
C1008 C 0.84811 0.71201 0.07752 0.0
C1009 C 0.86842 0.69502 0.07903 0.0
C1010 C 0.82686 0.70632 0.06254 0.0
C1011 C 0.82614 0.68307 0.04906 0.0
C1012 C 0.84807 0.66756 0.04808 0.0
C1013 C 0.86903 0.67374 0.06322 0.0
C1014 C 0.804 0.7235 0.06392 0.0
C1015 C 0.84826 0.64278 0.03372 0.0
C1016 C 0.76439 0.64661 0.05176 0.0
C1017 C 0.75506 0.64953 0.02709 0.0
C1018 C 0.78734 0.65771 0.05908 0.0
C1019 C 0.80131 0.67226 0.04127 0.0
C1020 C 0.79173 0.67577 0.01643 0.0
C1021 C 0.76856 0.6644 0.00963 0.0
C1022 C 0.79692 0.65319 0.08574 0.0
C1023 C 0.80599 0.69134 0.99708 0.0
H1024 H 0.84772 0.72838 0.08999 0.0
H1025 H 0.88481 0.66059 0.06464 0.0
H1026 H 0.79435 0.7248 0.04527 0.0
H1027 H 0.79022 0.71556 0.07773 0.0
H1028 H 0.80925 0.74291 0.07026 0.0
H1029 H 0.86789 0.63578 0.03054 0.0
H1030 H 0.83781 0.62825 0.04484 0.0
H1031 H 0.83863 0.64476 0.01512 0.0
H1032 H 0.75389 0.63518 0.06528 0.0
H1033 H 0.76092 0.66727 0.99075 0.0
H1034 H 0.80212 0.67139 0.09494 0.0
H1035 H 0.81421 0.64122 0.08498 0.0
H1036 H 0.78267 0.64344 0.09784 0.0
H1037 H 0.80923 0.71079 0.00445 0.0
H1038 H 0.79569 0.69267 0.97874 0.0
H1039 H 0.82491 0.6828 0.99359 0.0
C1040 C 0.09155 0.00728 0.79895 0.0
C1041 C 0.10166 0.00578 0.77439 0.0
C1042 C 0.08322 0.03042 0.80901 0.0
C1043 C 0.08451 0.05263 0.79394 0.0
C1044 C 0.0926 0.05091 0.76841 0.0
C1045 C 0.10157 0.0276 0.75907 0.0
C1046 C 0.07504 0.0314 0.83648 0.0
C1047 C 0.09355 0.07401 0.75149 0.0
C1048 C 0.05435 0.10859 0.82759 0.0
C1049 C 0.07545 0.11833 0.84047 0.0
C1050 C 0.05719 0.08846 0.81029 0.0
C1051 C 0.08155 0.07775 0.8064 0.0
C1052 C 0.10307 0.08912 0.81777 0.0
C1053 C 0.09973 0.10951 0.83439 0.0
C1054 C 0.03395 0.07751 0.79769 0.0
C1055 C 0.12941 0.07831 0.81435 0.0
H1056 H 0.09135 0.99051 0.81088 0.0
H1057 H 0.10989 0.02712 0.74035 0.0
H1058 H 0.08913 0.0424 0.84763 0.0
H1059 H 0.05652 0.04121 0.83829 0.0
H1060 H 0.07333 0.01219 0.84502 0.0
H1061 H 0.09402 0.06866 0.73111 0.0
H1062 H 0.07696 0.08654 0.75487 0.0
H1063 H 0.11093 0.0851 0.75574 0.0
H1064 H 0.03555 0.1155 0.83225 0.0
H1065 H 0.11606 0.11751 0.84402 0.0
H1066 H 0.028 0.06009 0.80792 0.0
H1067 H 0.03806 0.07213 0.77775 0.0
H1068 H 0.01784 0.09112 0.79794 0.0
H1069 H 0.13041 0.05926 0.8233 0.0
H1070 H 0.14425 0.09051 0.82304 0.0
H1071 H 0.13382 0.07594 0.79393 0.0
C1072 C 0.41904 0.13942 0.15926 0.0
C1073 C 0.40596 0.13664 0.18215 0.0
C1074 C 0.43468 0.16045 0.15503 0.0
C1075 C 0.43689 0.17923 0.17412 0.0
C1076 C 0.42537 0.17533 0.19811 0.0
C1077 C 0.40993 0.15394 0.20185 0.0
C1078 C 0.44679 0.16375 0.12927 0.0
C1079 C 0.42736 0.19486 0.21894 0.0
C1080 C 0.48424 0.23179 0.16069 0.0
C1081 C 0.46876 0.24969 0.14851 0.0
C1082 C 0.47405 0.20905 0.17011 0.0
C1083 C 0.44776 0.20434 0.16742 0.0
C1084 C 0.43187 0.22298 0.15631 0.0
C1085 C 0.44258 0.24551 0.1471 0.0
C1086 C 0.49149 0.18972 0.18204 0.0
C1087 C 0.40368 0.2187 0.15315 0.0
H1088 H 0.41559 0.12604 0.14401 0.0
H1089 H 0.39938 0.15181 0.2194 0.0
H1090 H 0.43654 0.17874 0.11859 0.0
H1091 H 0.46682 0.16991 0.13121 0.0
H1092 H 0.44624 0.14597 0.11796 0.0
H1093 H 0.42153 0.18698 0.23762 0.0
H1094 H 0.44701 0.20224 0.22048 0.0
H1095 H 0.4148 0.21115 0.21442 0.0
H1096 H 0.5044 0.23544 0.16255 0.0
H1097 H 0.43057 0.25947 0.13791 0.0
H1098 H 0.49279 0.17278 0.1696 0.0
H1099 H 0.48378 0.18329 0.20054 0.0
H1100 H 0.51093 0.19732 0.18503 0.0
H1101 H 0.40038 0.20267 0.1399 0.0
H1102 H 0.39379 0.23572 0.14561 0.0
H1103 H 0.39499 0.21348 0.1716 0.0
C1104 C 0.6127 0.67869 0.94026 0.0
C1105 C 0.60454 0.65921 0.95633 0.0
C1106 C 0.59533 0.69646 0.93068 0.0
C1107 C 0.56933 0.69428 0.93718 0.0
C1108 C 0.56163 0.67615 0.95547 0.0
C1109 C 0.57943 0.65879 0.96486 0.0
C1110 C 0.60434 0.71583 0.91161 0.0
C1111 C 0.53415 0.67314 0.96296 0.0
C1112 C 0.51914 0.74082 0.9142 0.0
C1113 C 0.51005 0.72832 0.89252 0.0
C1114 C 0.53914 0.73053 0.92857 0.0
C1115 C 0.54979 0.70697 0.92134 0.0
C1116 C 0.54079 0.6944 0.89937 0.0
C1117 C 0.52111 0.70526 0.88525 0.0
C1118 C 0.5483 0.74445 0.95185 0.0
C1119 C 0.55147 0.66909 0.89107 0.0
H1120 H 0.63218 0.67881 0.93361 0.0
H1121 H 0.57328 0.64359 0.97731 0.0
H1122 H 0.59926 0.70939 0.89222 0.0
H1123 H 0.59498 0.73442 0.91481 0.0
H1124 H 0.62524 0.71846 0.91245 0.0
H1125 H 0.53198 0.66133 0.9803 0.0
H1126 H 0.5252 0.69188 0.96636 0.0
H1127 H 0.52365 0.66383 0.94726 0.0
H1128 H 0.51018 0.75818 0.9205 0.0
H1129 H 0.51419 0.6955 0.86852 0.0
H1130 H 0.56933 0.74547 0.95203 0.0
H1131 H 0.54239 0.73396 0.96911 0.0
H1132 H 0.54053 0.76402 0.95294 0.0
H1133 H 0.57229 0.67054 0.88835 0.0
H1134 H 0.54284 0.66222 0.87311 0.0
H1135 H 0.54806 0.65465 0.90603 0.0
C1136 C 0.05723 0.86559 0.68492 0.0
C1137 C 0.07756 0.86096 0.70131 0.0
C1138 C 0.0407 0.84588 0.67801 0.0
C1139 C 0.04503 0.82111 0.68755 0.0
C1140 C 0.06387 0.81718 0.70632 0.0
C1141 C 0.08003 0.83724 0.71292 0.0
C1142 C 0.02062 0.85096 0.65825 0.0
C1143 C 0.06908 0.79115 0.71708 0.0
C1144 C 0.00224 0.76555 0.67006 0.0
C1145 C 0.01543 0.75528 0.64937 0.0
C1146 C 0.0112 0.78742 0.68246 0.0
C1147 C 0.03405 0.79886 0.67415 0.0
C1148 C 0.04735 0.78845 0.65323 0.0
C1149 C 0.03789 0.76678 0.64118 0.0
C1150 C 0.9966 0.79792 0.70473 0.0
C1151 C 0.07188 0.7999 0.64377 0.0
H1152 H 0.05568 0.88395 0.67572 0.0
H1153 H 0.09608 0.83374 0.72533 0.0
H1154 H 0.02747 0.84424 0.6395 0.0
H1155 H 0.00289 0.84051 0.66269 0.0
H1156 H 0.01623 0.87153 0.6567 0.0
H1157 H 0.08073 0.79214 0.73463 0.0
H1158 H 0.05114 0.78104 0.72139 0.0
H1159 H 0.07958 0.77973 0.70284 0.0
H1160 H 0.9853 0.75614 0.67695 0.0
H1161 H 0.04815 0.75873 0.62526 0.0
H1162 H 0.99345 0.81861 0.70234 0.0
H1163 H 0.00779 0.79531 0.72237 0.0
H1164 H 0.97793 0.78843 0.70717 0.0
H1165 H 0.06895 0.82015 0.63878 0.0
H1166 H 0.07943 0.78989 0.62683 0.0
H1167 H 0.08643 0.7991 0.65897 0.0
C1168 C 0.97699 0.25339 0.4106 0.0
C1169 C 0.98815 0.26625 0.39015 0.0
C1170 C 0.95498 0.26291 0.42231 0.0
C1171 C 0.94426 0.28592 0.4135 0.0
C1172 C 0.95554 0.29887 0.39279 0.0
C1173 C 0.97738 0.2889 0.38147 0.0
C1174 C 0.94358 0.24872 0.44442 0.0
C1175 C 0.94479 0.32352 0.38279 0.0
C1176 C 0.87757 0.31009 0.4224 0.0
C1177 C 0.88201 0.33042 0.43883 0.0
C1178 C 0.89726 0.29333 0.41601 0.0
C1179 C 0.92183 0.29741 0.42615 0.0
C1180 C 0.92553 0.31634 0.44486 0.0
C1181 C 0.9055 0.33275 0.45092 0.0
C1182 C 0.89244 0.27319 0.39625 0.0
C1183 C 0.95134 0.32128 0.45626 0.0
H1184 H 0.98582 0.23628 0.41784 0.0
H1185 H 0.98613 0.29889 0.36574 0.0
H1186 H 0.94584 0.26006 0.462 0.0
H1187 H 0.92294 0.24587 0.44144 0.0
H1188 H 0.95269 0.22992 0.44735 0.0
H1189 H 0.95545 0.33077 0.36611 0.0
H1190 H 0.92466 0.32089 0.37721 0.0
H1191 H 0.94532 0.33818 0.39789 0.0
H1192 H 0.8594 0.30864 0.41286 0.0
H1193 H 0.90885 0.34879 0.46337 0.0
H1194 H 0.90245 0.25532 0.40113 0.0
H1195 H 0.89985 0.2798 0.37767 0.0
H1196 H 0.87187 0.26914 0.39411 0.0
H1197 H 0.96103 0.30322 0.46105 0.0
H1198 H 0.95007 0.33315 0.47364 0.0
H1199 H 0.96331 0.33142 0.4422 0.0
C1200 C -0.00092 0.27712 0.84717 0.0
C1201 C 0.98421 0.25866 0.85927 0.0
C1202 C 0.98818 0.29974 0.83815 0.0
C1203 C 0.96178 0.30372 0.84108 0.0
C1204 C 0.94659 0.2847 0.85252 0.0
C1205 C 0.958 0.26238 0.86138 0.0
C1206 C 0.00488 0.31949 0.82587 0.0
C1207 C 0.91832 0.28813 0.85592 0.0
C1208 C 0.92934 0.36725 0.84648 0.0
C1209 C 0.91593 0.36805 0.82362 0.0
C1210 C 0.94639 0.34747 0.85154 0.0
C1211 C 0.94978 0.32803 0.8333 0.0
C1212 C 0.93801 0.33015 0.80921 0.0
C1213 C 0.92113 0.35026 0.80464 0.0
C1214 C 0.95874 0.34609 0.87734 0.0
C1215 C 0.9412 0.30992 0.78921 0.0
H1216 H 0.01924 0.27385 0.84472 0.0
H1217 H 0.94643 0.24801 0.87052 0.0
H1218 H 0.99751 0.32437 0.80676 0.0
H1219 H 0.0046 0.33716 0.83732 0.0
H1220 H 0.02485 0.31301 0.824 0.0
H1221 H 0.90912 0.27113 0.86435 0.0
H1222 H 0.9146 0.30464 0.86845 0.0
H1223 H 0.90922 0.29216 0.83736 0.0
H1224 H 0.92508 0.38107 0.86112 0.0
H1225 H 0.91049 0.35092 0.78703 0.0
H1226 H 0.979 0.34063 0.87564 0.0
H1227 H 0.94913 0.33132 0.88889 0.0
H1228 H 0.95749 0.36444 0.88765 0.0
H1229 H 0.96127 0.3037 0.78793 0.0
H1230 H 0.9349 0.31662 0.77024 0.0
H1231 H 0.92967 0.29309 0.79445 0.0
C1232 C 0.39446 0.17095 0.54175 0.0
C1233 C 0.37454 0.173 0.55916 0.0
C1234 C 0.41692 0.18482 0.54524 0.0
C1235 C 0.41931 0.20079 0.56673 0.0
C1236 C 0.39794 0.20525 0.58241 0.0
C1237 C 0.3757 0.19124 0.57838 0.0
C1238 C 0.43909 0.17979 0.52785 0.0
C1239 C 0.39954 0.22228 0.60538 0.0
C1240 C 0.48192 0.19859 0.60188 0.0
C1241 C 0.49235 0.2223 0.59613 0.0
C1242 C 0.45833 0.19134 0.59209 0.0
C1243 C 0.44494 0.20816 0.57589 0.0
C1244 C 0.45578 0.23185 0.56935 0.0
C1245 C 0.47947 0.23865 0.57956 0.0
C1246 C 0.44743 0.16595 0.59984 0.0
C1247 C 0.44223 0.25007 0.55188 0.0
H1248 H 0.39351 0.15663 0.52701 0.0
H1249 H 0.36023 0.19257 0.5919 0.0
H1250 H 0.44995 0.19744 0.52414 0.0
H1251 H 0.45214 0.16605 0.53706 0.0
H1252 H 0.43283 0.17163 0.50945 0.0
H1253 H 0.38042 0.22755 0.61253 0.0
H1254 H 0.4098 0.21219 0.62077 0.0
H1255 H 0.41025 0.23986 0.60101 0.0
H1256 H 0.49198 0.18593 0.61462 0.0
H1257 H 0.48796 0.25671 0.57456 0.0
H1258 H 0.44116 0.15508 0.58294 0.0
H1259 H 0.43056 0.16907 0.61203 0.0
H1260 H 0.46127 0.15421 0.61057 0.0
H1261 H 0.43739 0.24049 0.53378 0.0
H1262 H 0.45382 0.26716 0.54764 0.0
H1263 H 0.42413 0.25624 0.56067 0.0
C1264 C 0.55934 0.63579 0.32116 0.0
C1265 C 0.57834 0.6376 0.30275 0.0
C1266 C 0.54407 0.6568 0.32693 0.0
C1267 C 0.5483 0.68007 0.31413 0.0
C1268 C 0.56558 0.681 0.29356 0.0
C1269 C 0.58051 0.65963 0.28813 0.0
C1270 C 0.5256 0.65488 0.34873 0.0
C1271 C 0.57065 0.70535 0.27937 0.0
C1272 C 0.50722 0.73735 0.33004 0.0
C1273 C 0.52172 0.74891 0.34911 0.0
C1274 C 0.51551 0.71486 0.31831 0.0
C1275 C 0.539 0.70408 0.32562 0.0
C1276 C 0.55396 0.71614 0.34444 0.0
C1277 C 0.54513 0.7384 0.35589 0.0
C1278 C 0.49918 0.70261 0.29824 0.0
C1279 C 0.57918 0.70534 0.35284 0.0
H1280 H 0.55802 0.61874 0.33261 0.0
H1281 H 0.59553 0.66098 0.27412 0.0
H1282 H 0.53414 0.66367 0.36586 0.0
H1283 H 0.5078 0.66525 0.34443 0.0
H1284 H 0.52091 0.63482 0.35324 0.0
H1285 H 0.58039 0.70179 0.26101 0.0
H1286 H 0.55278 0.71583 0.27568 0.0
H1287 H 0.58301 0.71774 0.29109 0.0
H1288 H 0.48953 0.74602 0.32412 0.0
H1289 H 0.55643 0.74745 0.37052 0.0
H1290 H 0.49418 0.683 0.30406 0.0
H1291 H 0.50988 0.70118 0.28017 0.0
H1292 H 0.4814 0.71338 0.29474 0.0
H1293 H 0.57614 0.68662 0.36198 0.0
H1294 H 0.58912 0.71789 0.36655 0.0
H1295 H 0.59176 0.70233 0.33623 0.0
C1296 C 0.01385 0.76432 0.07878 0.0
C1297 C 0.00377 0.77875 0.09877 0.0
C1298 C 0.03444 0.77331 0.06441 0.0
C1299 C 0.04466 0.79754 0.06978 0.0
C1300 C 0.03425 0.81237 0.08961 0.0
C1301 C 0.01403 0.80275 0.10388 0.0
C1302 C 0.0451 0.75703 0.0434 0.0
C1303 C 0.04439 0.83852 0.09577 0.0
C1304 C 0.10992 0.82223 0.05464 0.0
C1305 C 0.10409 0.84008 0.03589 0.0
C1306 C 0.09113 0.80594 0.06409 0.0
C1307 C 0.06603 0.80801 0.0547 0.0
C1308 C 0.06086 0.82413 0.03382 0.0
C1309 C 0.08012 0.83994 0.02455 0.0
C1310 C 0.09752 0.78861 0.08598 0.0
C1311 C 0.03439 0.82697 0.02326 0.0
H1312 H 0.00541 0.74627 0.07391 0.0
H1313 H 0.00629 0.81407 0.11921 0.0
H1314 H 0.04212 0.76651 0.02484 0.0
H1315 H 0.06587 0.75464 0.0459 0.0
H1316 H 0.03611 0.73797 0.04274 0.0
H1317 H 0.03385 0.84772 0.11153 0.0
H1318 H 0.0647 0.83726 0.10118 0.0
H1319 H 0.04316 0.85094 0.0788 0.0
H1320 H 0.12853 0.82251 0.06342 0.0
H1321 H 0.0758 0.85381 0.00996 0.0
H1322 H 0.08799 0.76996 0.08381 0.0
H1323 H 0.09065 0.79725 0.10391 0.0
H1324 H 0.1183 0.78551 0.08767 0.0
H1325 H 0.02487 0.80829 0.02158 0.0
H1326 H 0.03448 0.83631 0.00435 0.0
H1327 H 0.02294 0.8388 0.0364 0.0
C1328 C 0.1673 0.49508 0.23129 0.0
C1329 C 0.14694 0.4811 0.24119 0.0
C1330 C 0.18127 0.48597 0.21048 0.0
C1331 C 0.17499 0.46212 0.19985 0.0
C1332 C 0.15428 0.44809 0.20972 0.0
C1333 C 0.14056 0.45776 0.23028 0.0
C1334 C 0.20321 0.50142 0.20047 0.0
C1335 C 0.14706 0.42242 0.19914 0.0
C1336 C 0.19256 0.43548 0.13593 0.0
C1337 C 0.20982 0.41671 0.14325 0.0
C1338 C 0.18294 0.45268 0.15384 0.0
C1339 C 0.1907 0.45063 0.1795 0.0
C1340 C 0.21026 0.43346 0.18621 0.0
C1341 C 0.2196 0.41663 0.16791 0.0
C1342 C 0.16245 0.47102 0.14588 0.0
C1343 C 0.2192 0.43072 0.21329 0.0
H1344 H 0.17283 0.51272 0.2403 0.0
H1345 H 0.12491 0.44689 0.23804 0.0
H1346 H 0.22133 0.49203 0.20562 0.0
H1347 H 0.20247 0.50256 0.17946 0.0
H1348 H 0.20335 0.52097 0.20834 0.0
H1349 H 0.12957 0.41471 0.20802 0.0
H1350 H 0.14402 0.42367 0.17835 0.0
H1351 H 0.16274 0.40875 0.20244 0.0
H1352 H 0.18495 0.43531 0.11681 0.0
H1353 H 0.23291 0.40192 0.17341 0.0
H1354 H 0.16496 0.48966 0.15534 0.0
H1355 H 0.14369 0.4634 0.15165 0.0
H1356 H 0.16228 0.47392 0.125 0.0
H1357 H 0.22184 0.44956 0.22227 0.0
H1358 H 0.23731 0.41999 0.21453 0.0
H1359 H 0.20461 0.42035 0.2244 0.0
C1360 C 0.71054 0.08142 0.8492 0.0
C1361 C 0.69436 0.07852 0.87001 0.0
C1362 C 0.70648 0.06742 0.82694 0.0
C1363 C 0.68566 0.05047 0.82573 0.0
C1364 C 0.67149 0.04514 0.84794 0.0
C1365 C 0.67605 0.05933 0.86994 0.0
C1366 C 0.72221 0.07345 0.80379 0.0
C1367 C 0.64932 0.02702 0.84759 0.0
C1368 C 0.64585 0.05213 0.76608 0.0
C1369 C 0.65166 0.02881 0.75492 0.0
C1370 C 0.65725 0.05954 0.78884 0.0
C1371 C 0.67508 0.0432 0.80067 0.0
C1372 C 0.68173 0.01996 0.78898 0.0
C1373 C 0.66992 0.01303 0.7661 0.0
C1374 C 0.64925 0.08441 0.80067 0.0
C1375 C 0.70092 0.00231 0.80084 0.0
H1376 H 0.72455 0.0965 0.84935 0.0
H1377 H 0.66348 0.05738 0.88611 0.0
H1378 H 0.72588 0.05613 0.79241 0.0
H1379 H 0.71166 0.08702 0.79161 0.0
H1380 H 0.74064 0.08225 0.80902 0.0
H1381 H 0.64371 0.02119 0.86706 0.0
H1382 H 0.63282 0.03646 0.8385 0.0
H1383 H 0.65382 0.0098 0.83637 0.0
H1384 H 0.63178 0.06434 0.75731 0.0
H1385 H 0.67495 0.9953 0.75696 0.0
H1386 H 0.66598 0.09547 0.80705 0.0
H1387 H 0.63729 0.08042 0.81752 0.0
H1388 H 0.63807 0.09636 0.78737 0.0
H1389 H 0.7188 0.01265 0.80488 0.0
H1390 H 0.70526 0.98579 0.78848 0.0
H1391 H 0.69358 0.99516 0.81923 0.0
C1392 C 0.67543 0.92214 0.61284 0.0
C1393 C 0.66893 0.94752 0.61697 0.0
C1394 C 0.69307 0.91558 0.59418 0.0
C1395 C 0.70494 0.93505 0.57996 0.0
C1396 C 0.70122 0.96078 0.58683 0.0
C1397 C 0.68282 0.9668 0.60516 0.0
C1398 C 0.69645 0.88788 0.58762 0.0
C1399 C 0.71478 0.98194 0.57316 0.0
C1400 C 0.74888 0.90655 0.53094 0.0
C1401 C 0.73246 0.90449 0.51004 0.0
C1402 C 0.7412 0.919 0.55322 0.0
C1403 C 0.71616 0.92847 0.555 0.0
C1404 C 0.70004 0.9277 0.53352 0.0
C1405 C 0.70854 0.91607 0.51126 0.0
C1406 C 0.75939 0.92038 0.57529 0.0
C1407 C 0.67297 0.93717 0.53461 0.0
H1408 H 0.66489 0.90733 0.62252 0.0
H1409 H 0.67796 0.98648 0.60873 0.0
H1410 H 0.68759 0.88398 0.56891 0.0
H1411 H 0.71686 0.88308 0.58611 0.0
H1412 H 0.68762 0.87515 0.60193 0.0
H1413 H 0.71508 -0.00041 0.58469 0.0
H1414 H 0.73457 0.97641 0.56852 0.0
H1415 H 0.70484 0.98612 0.55508 0.0
H1416 H 0.76716 0.8973 0.53073 0.0
H1417 H 0.69582 0.91489 0.49514 0.0
H1418 H 0.75718 0.90321 0.58726 0.0
H1419 H 0.75575 0.9373 0.58729 0.0
H1420 H 0.77936 0.92097 0.56857 0.0
H1421 H 0.66191 0.92532 0.54807 0.0
H1422 H 0.66345 0.93648 0.51581 0.0
H1423 H 0.67236 0.95698 0.54163 0.0
C1424 C 0.83698 0.95378 0.26197 0.0
C1425 C 0.84576 0.97855 0.25764 0.0
C1426 C 0.82597 0.94683 0.28509 0.0
C1427 C 0.8226 0.96537 0.30424 0.0
C1428 C 0.82913 0.99092 0.29924 0.0
C1429 C 0.84127 0.9971 0.27629 0.0
C1430 C 0.81998 0.91912 0.28963 0.0
C1431 C 0.82472 0.01164 0.3185 0.0
C1432 C 0.78604 0.93319 0.35634 0.0
C1433 C 0.80622 0.92359 0.37069 0.0
C1434 C 0.79066 0.9503 0.3364 0.0
C1435 C 0.81603 0.95677 0.33029 0.0
C1436 C 0.83592 0.94963 0.3469 0.0
C1437 C 0.8306 0.93349 0.3673 0.0
C1438 C 0.76878 0.9593 0.32033 0.0
C1439 C 0.86325 0.95618 0.34132 0.0
H1440 H 0.8399 0.93927 0.2477 0.0
H1441 H 0.84812 0.01621 0.27392 0.0
H1442 H 0.83278 0.91158 0.30454 0.0
H1443 H 0.80022 0.9168 0.29641 0.0
H1444 H 0.82245 0.90741 0.27228 0.0
H1445 H 0.82015 0.02984 0.30888 0.0
H1446 H 0.8091 0.0069 0.33181 0.0
H1447 H 0.84232 0.01468 0.32964 0.0
H1448 H 0.76708 0.92575 0.35924 0.0
H1449 H 0.84605 0.92625 0.37883 0.0
H1450 H 0.767 0.94702 0.30333 0.0
H1451 H 0.77198 0.97906 0.31372 0.0
H1452 H 0.75059 0.95844 0.33096 0.0
H1453 H 0.86942 0.94627 0.32378 0.0
H1454 H 0.87616 0.95057 0.35702 0.0
H1455 H 0.86531 0.97684 0.33802 0.0
C1456 C 0.81877 0.07526 0.11423 0.0
C1457 C 0.8273 0.05018 0.11566 0.0
C1458 C 0.80121 0.08255 0.09573 0.0
C1459 C 0.79168 0.06409 0.07869 0.0
C1460 C 0.79762 0.03814 0.08246 0.0
C1461 C 0.81577 0.03145 0.10082 0.0
C1462 C 0.79545 0.11045 0.09248 0.0
C1463 C 0.78688 0.01781 0.06543 0.0
C1464 C 0.74573 0.09267 0.0313 0.0
C1465 C 0.76222 0.09885 0.01129 0.0
C1466 C 0.75447 0.07919 0.0526 0.0
C1467 C 0.78046 0.07274 0.05434 0.0
C1468 C 0.79689 0.07792 0.03371 0.0
C1469 C 0.78748 0.09065 0.01241 0.0
C1470 C 0.73615 0.07333 0.07382 0.0
C1471 C 0.8249 0.07182 0.03484 0.0
H1472 H 0.82775 0.08961 0.12594 0.0
H1473 H 0.82241 0.01201 0.10209 0.0
H1474 H 0.80517 0.11762 0.07521 0.0
H1475 H 0.77482 0.11353 0.0899 0.0
H1476 H 0.80196 0.12186 0.10897 0.0
H1477 H 0.78836 0.99873 0.07429 0.0
H1478 H 0.76668 0.02174 0.06091 0.0
H1479 H 0.79757 0.01751 0.04731 0.0
H1480 H 0.72638 0.09939 0.0312 0.0
H1481 H 0.80033 0.09515 0.99697 0.0
H1482 H 0.73717 0.08853 0.08833 0.0
H1483 H 0.74088 0.05507 0.0832 0.0
H1484 H 0.7163 0.07243 0.06676 0.0
H1485 H 0.83409 0.08392 0.04942 0.0
H1486 H 0.83458 0.07518 0.01642 0.0
H1487 H 0.82791 0.05175 0.0404 0.0
C1488 C 0.35052 0.53714 0.73324 0.0
C1489 C 0.35942 0.51208 0.73434 0.0
C1490 C 0.34063 0.54728 0.71077 0.0
C1491 C 0.33901 0.53181 0.68887 0.0
C1492 C 0.34623 0.50598 0.69026 0.0
C1493 C 0.35686 0.49655 0.71284 0.0
C1494 C 0.33349 0.57507 0.7101 0.0
C1495 C 0.34415 0.48865 0.66757 0.0
C1496 C 0.3024 0.56701 0.63834 0.0
C1497 C 0.32228 0.57986 0.6263 0.0
C1498 C 0.30756 0.54876 0.65712 0.0
C1499 C 0.33306 0.54393 0.66412 0.0
C1500 C 0.35307 0.55491 0.64994 0.0
C1501 C 0.34736 0.57253 0.63092 0.0
C1502 C 0.28575 0.53647 0.67098 0.0
C1503 C 0.38055 0.55038 0.65671 0.0
H1504 H 0.35223 0.54927 0.74976 0.0
H1505 H 0.36427 0.47744 0.71295 0.0
H1506 H 0.34623 0.58534 0.69684 0.0
H1507 H 0.31382 0.57739 0.70302 0.0
H1508 H 0.33488 0.58417 0.72906 0.0
H1509 H 0.34352 0.46839 0.6734 0.0
H1510 H 0.32697 0.493 0.65619 0.0
H1511 H 0.36095 0.49132 0.65518 0.0
H1512 H 0.28296 0.57255 0.63451 0.0
H1513 H 0.36264 0.5823 0.62117 0.0
H1514 H 0.28263 0.54637 0.68929 0.0
H1515 H 0.29002 0.51628 0.67525 0.0
H1516 H 0.2679 0.5375 0.65981 0.0
H1517 H 0.3848 0.5596 0.67516 0.0
H1518 H 0.3937 0.55819 0.64219 0.0
H1519 H 0.38437 0.52981 0.65887 0.0
C1520 C 0.1856 0.58023 0.38 0.0
C1521 C 0.17025 0.55864 0.38108 0.0
C1522 C 0.20218 0.58602 0.39995 0.0
C1523 C 0.20304 0.56985 0.4214 0.0
C1524 C 0.18967 0.54652 0.4211 0.0
C1525 C 0.17326 0.54121 0.40083 0.0
C1526 C 0.21633 0.61092 0.39936 0.0
C1527 C 0.19019 0.52869 0.4435 0.0
C1528 C 0.24784 0.58663 0.47543 0.0
C1529 C 0.23186 0.60118 0.49095 0.0
C1530 C 0.23879 0.57597 0.45274 0.0
C1531 C 0.21316 0.57981 0.44572 0.0
C1532 C 0.19684 0.59395 0.46176 0.0
C1533 C 0.2064 0.60436 0.48421 0.0
C1534 C 0.2566 0.56083 0.4362 0.0
C1535 C 0.16937 0.59863 0.45497 0.0
H1536 H 0.18292 0.59374 0.36469 0.0
H1537 H 0.16106 0.52465 0.40162 0.0
H1538 H 0.20622 0.62493 0.4114 0.0
H1539 H 0.23578 0.6087 0.40709 0.0
H1540 H 0.21761 0.61872 0.37981 0.0
H1541 H 0.18335 0.50944 0.43829 0.0
H1542 H 0.20961 0.52711 0.45146 0.0
H1543 H 0.17767 0.53625 0.45866 0.0
H1544 H 0.26735 0.58348 0.48112 0.0
H1545 H 0.19403 0.61549 0.49632 0.0
H1546 H 0.25843 0.57007 0.41737 0.0
H1547 H 0.2488 0.54155 0.43294 0.0
H1548 H 0.2758 0.55902 0.44472 0.0
H1549 H 0.16833 0.61037 0.43752 0.0
H1550 H 0.15889 0.6086 0.4703 0.0
H1551 H 0.15959 0.58041 0.45098 0.0
C1552 C 0.26184 0.41851 0.97788 0.0
C1553 C 0.27857 0.40261 0.99114 0.0
C1554 C 0.26841 0.42831 0.95395 0.0
C1555 C 0.29221 0.42197 0.94323 0.0
C1556 C 0.30937 0.40643 0.95696 0.0
C1557 C 0.30235 0.39708 0.98079 0.0
C1558 C 0.24985 0.4451 0.94003 0.0
C1559 C 0.33487 0.39892 0.9462 0.0
C1560 C 0.30964 0.41765 0.87434 0.0
C1561 C 0.32786 0.43688 0.87289 0.0
C1562 C 0.29532 0.41424 0.89648 0.0
C1563 C 0.2994 0.43063 0.91739 0.0
C1564 C 0.3152 0.45219 0.91452 0.0
C1565 C 0.32943 0.45501 0.8922 0.0
C1566 C 0.2785 0.39116 0.8986 0.0
C1567 C 0.31973 0.47037 0.93616 0.0
H1568 H 0.24368 0.4233 0.98627 0.0
H1569 H 0.31529 0.38484 0.99111 0.0
H1570 H 0.25916 0.46314 0.93442 0.0
H1571 H 0.24356 0.43559 0.92234 0.0
H1572 H 0.23286 0.44955 0.95168 0.0
H1573 H 0.34674 0.3885 0.96018 0.0
H1574 H 0.33197 0.3865 0.92946 0.0
H1575 H 0.34552 0.41591 0.93978 0.0
H1576 H 0.3086 0.40365 0.85928 0.0
H1577 H 0.34365 0.46984 0.89098 0.0
H1578 H 0.26086 0.3956 0.90915 0.0
H1579 H 0.28871 0.37611 0.90923 0.0
H1580 H 0.27336 0.38351 0.87964 0.0
H1581 H 0.30195 0.47407 0.94679 0.0
H1582 H 0.32758 0.48872 0.92935 0.0
H1583 H 0.33357 0.46184 0.94956 0.0
C1584 C 0.15506 0.29746 0.18413 0.0
C1585 C 0.14489 0.28921 0.16093 0.0
C1586 C 0.14565 0.28833 0.2073 0.0
C1587 C 0.1257 0.27037 0.20729 0.0
C1588 C 0.11464 0.26276 0.184 0.0
C1589 C 0.12432 0.27234 0.16108 0.0
C1590 C 0.15784 0.29706 0.23171 0.0
C1591 C 0.09337 0.24358 0.18321 0.0
C1592 C 0.12354 0.22241 0.26079 0.0
C1593 C 0.10343 0.23145 0.27575 0.0
C1594 C 0.1311 0.23512 0.23872 0.0
C1595 C 0.11829 0.25753 0.23131 0.0
C1596 C 0.09842 0.26721 0.24661 0.0
C1597 C 0.09122 0.25406 0.26871 0.0
C1598 C 0.15252 0.22423 0.22305 0.0
C1599 C 0.08444 0.29113 0.23932 0.0
H1600 H 0.17079 0.31069 0.18425 0.0
H1601 H 0.11628 0.26596 0.14326 0.0
H1602 H 0.14315 0.303 0.24556 0.0
H1603 H 0.16852 0.28109 0.24035 0.0
H1604 H 0.17115 0.31313 0.22866 0.0
H1605 H 0.08531 0.24139 0.16386 0.0
H1606 H 0.10054 0.22484 0.18962 0.0
H1607 H 0.07794 0.24921 0.19637 0.0
H1608 H 0.13324 0.20506 0.2661 0.0
H1609 H 0.07564 0.26115 0.28011 0.0
H1610 H 0.16779 0.23854 0.22075 0.0
H1611 H 0.14552 0.21938 0.2038 0.0
H1612 H 0.16083 0.20689 0.23173 0.0
H1613 H 0.09805 0.30694 0.23652 0.0
H1614 H 0.07029 0.29685 0.25387 0.0
H1615 H 0.07445 0.28821 0.22102 0.0
C1616 C 0.47164 0.34323 0.90144 0.0
C1617 C 0.45023 0.35861 0.8979 0.0
C1618 C 0.47971 0.33646 0.92592 0.0
C1619 C 0.4662 0.34557 0.94731 0.0
C1620 C 0.44342 0.35933 0.94376 0.0
C1621 C 0.43562 0.36555 0.91909 0.0
C1622 C 0.5038 0.32125 0.9289 0.0
C1623 C 0.42845 0.36942 0.966 0.0
C1624 C 0.48612 0.32243 0.01287 0.0
C1625 C 0.50395 0.34101 0.01964 0.0
C1626 C 0.47319 0.32378 0.98954 0.0
C1627 C 0.47805 0.34433 0.97289 0.0
C1628 C 0.49518 0.36368 0.98023 0.0
C1629 C 0.50799 0.36169 0.0034 0.0
C1630 C 0.45518 0.30274 0.98227 0.0
C1631 C 0.50059 0.38617 0.96325 0.0
H1632 H 0.48283 0.33747 0.88517 0.0
H1633 H 0.41888 0.37722 0.91658 0.0
H1634 H 0.51929 0.33392 0.93545 0.0
H1635 H 0.50133 0.30621 0.94343 0.0
H1636 H 0.50976 0.31228 0.91078 0.0
H1637 H 0.40926 0.37601 0.96026 0.0
H1638 H 0.42639 0.35474 0.98095 0.0
H1639 H 0.43877 0.3857 0.9745 0.0
H1640 H 0.48307 0.30631 0.02529 0.0
H1641 H 0.52158 0.37623 0.00864 0.0
H1642 H 0.4633 0.29181 0.96621 0.0
H1643 H 0.43681 0.31068 0.97575 0.0
H1644 H 0.45157 0.28948 0.99826 0.0
H1645 H 0.50958 0.37961 0.94539 0.0
H1646 H 0.5134 0.40022 0.97237 0.0
H1647 H 0.48263 0.39587 0.95808 0.0
C1648 C 0.3823 0.77386 0.75798 0.0
C1649 C 0.40474 0.76865 0.77127 0.0
C1650 C 0.37736 0.76248 0.73449 0.0
C1651 C 0.39554 0.74584 0.72379 0.0
C1652 C 0.41807 0.74016 0.73727 0.0
C1653 C 0.4223 0.75147 0.76103 0.0
C1654 C 0.35283 0.76857 0.72094 0.0
C1655 C 0.43801 0.72278 0.72627 0.0
C1656 C 0.37013 0.70258 0.67247 0.0
C1657 C 0.37507 0.71679 0.65046 0.0
C1658 C 0.37764 0.71129 0.69642 0.0
C1659 C 0.39078 0.73459 0.6984 0.0
C1660 C 0.39728 0.74824 0.67617 0.0
C1661 C 0.38917 0.73926 0.65242 0.0
C1662 C 0.37013 0.6963 0.71968 0.0
C1663 C 0.41176 0.77292 0.67754 0.0
H1664 H 0.36862 0.78705 0.76589 0.0
H1665 H 0.4398 0.7476 0.77112 0.0
H1666 H 0.35695 0.77815 0.70265 0.0
H1667 H 0.34243 0.7508 0.71652 0.0
H1668 H 0.34026 0.78107 0.73234 0.0
H1669 H 0.45411 0.71968 0.73952 0.0
H1670 H 0.42956 0.70411 0.72146 0.0
H1671 H 0.44549 0.73102 0.7084 0.0
H1672 H 0.35932 0.68515 0.6712 0.0
H1673 H 0.39325 0.75022 0.6355 0.0
H1674 H 0.35574 0.7071 0.73062 0.0
H1675 H 0.38672 0.69342 0.7323 0.0
H1676 H 0.36203 0.67746 0.71478 0.0
H1677 H 0.39961 0.78774 0.68627 0.0
H1678 H 0.41785 0.77964 0.65851 0.0
H1679 H 0.42878 0.77075 0.68974 0.0
C1680 C 0.01616 0.63771 0.40903 0.0
C1681 C 0.0384 0.62339 0.4063 0.0
C1682 C 0.00738 0.64487 0.43315 0.0
C1683 C 0.02102 0.63722 0.45503 0.0
C1684 C 0.04416 0.62391 0.45232 0.0
C1685 C 0.05266 0.61731 0.42798 0.0
C1686 C 0.98284 0.6595 0.43526 0.0
C1687 C 0.05917 0.61524 0.47515 0.0
C1688 C 0.00277 0.66644 0.51848 0.0
C1689 C 0.98505 0.64873 0.52748 0.0
C1690 C 0.01503 0.66283 0.49506 0.0
C1691 C 0.00969 0.6408 0.48062 0.0
C1692 C 0.99271 0.62233 0.49023 0.0
C1693 C 0.98046 0.62662 0.51343 0.0
C1694 C 0.03282 0.68304 0.48529 0.0
C1695 C 0.98688 0.59833 0.47566 0.0
H1696 H 0.00516 0.64269 0.39238 0.0
H1697 H 0.06992 0.6063 0.4261 0.0
H1698 H 0.96794 0.64709 0.44347 0.0
H1699 H 0.98518 0.67594 0.44819 0.0
H1700 H 0.97612 0.66651 0.41654 0.0
H1701 H 0.07808 0.6076 0.46982 0.0
H1702 H 0.06187 0.63112 0.48869 0.0
H1703 H 0.04848 0.60015 0.48522 0.0
H1704 H 0.00622 0.68368 0.52916 0.0
H1705 H 0.9669 0.61279 0.52038 0.0
H1706 H 0.02463 0.69188 0.46802 0.0
H1707 H 0.05127 0.67454 0.47979 0.0
H1708 H 0.03632 0.69816 0.49956 0.0
H1709 H 0.97733 0.60318 0.45753 0.0
H1710 H 0.97442 0.58521 0.48648 0.0
H1711 H 0.00473 0.58824 0.47087 0.0
C1712 C 0.60926 0.22534 0.8392 0.0
C1713 C 0.61952 0.20159 0.8454 0.0
C1714 C 0.6025 0.23121 0.81411 0.0
C1715 C 0.60636 0.213 0.79471 0.0
C1716 C 0.61515 0.18844 0.80111 0.0
C1717 C 0.62146 0.18298 0.82641 0.0
C1718 C 0.59274 0.2575 0.80813 0.0
C1719 C 0.61959 0.16849 0.78104 0.0
C1720 C 0.57886 0.22971 0.73002 0.0
C1721 C 0.59925 0.24287 0.7191 0.0
C1722 C 0.5811 0.2188 0.7543 0.0
C1723 C 0.60436 0.22086 0.76764 0.0
C1724 C 0.62548 0.23251 0.75582 0.0
C1725 C 0.6226 0.24353 0.73181 0.0
C1726 C 0.55814 0.20661 0.7663 0.0
C1727 C 0.65079 0.23468 0.76912 0.0
H1728 H 0.6074 0.23973 0.85377 0.0
H1729 H 0.62914 0.16449 0.83101 0.0
H1730 H 0.60745 0.26822 0.79754 0.0
H1731 H 0.57566 0.2564 0.79588 0.0
H1732 H 0.58788 0.26832 0.82556 0.0
H1733 H 0.62297 0.14943 0.78942 0.0
H1734 H 0.60318 0.16734 0.76792 0.0
H1735 H 0.63644 0.17379 0.76957 0.0
H1736 H 0.56071 0.22936 0.72034 0.0
H1737 H 0.63846 0.25355 0.72332 0.0
H1738 H 0.55072 0.21919 0.78147 0.0
H1739 H 0.56326 0.18828 0.77529 0.0
H1740 H 0.54275 0.20327 0.75229 0.0
H1741 H 0.649 0.24764 0.78562 0.0
H1742 H 0.66588 0.24212 0.75642 0.0
H1743 H 0.65684 0.2159 0.77648 0.0
C1744 C 0.54138 0.85834 0.58856 0.0
C1745 C 0.5501 0.8834 0.59049 0.0
C1746 C 0.53177 0.849 0.56549 0.0
C1747 C 0.53104 0.86512 0.54396 0.0
C1748 C 0.54129 0.88987 0.54548 0.0
C1749 C 0.55058 0.89872 0.5687 0.0
C1750 C 0.52103 0.82247 0.56455 0.0
C1751 C 0.54102 0.90764 0.52296 0.0
C1752 C 0.51483 0.84173 0.47758 0.0
C1753 C 0.48929 0.84903 0.47568 0.0
C1754 C 0.52863 0.84604 0.50004 0.0
C1755 C 0.51649 0.85772 0.52098 0.0
C1756 C 0.49055 0.86441 0.51936 0.0
C1757 C 0.47735 0.86007 0.49677 0.0
C1758 C 0.5563 0.83876 0.50112 0.0
C1759 C 0.47684 0.87683 0.54128 0.0
H1760 H 0.54112 0.84634 0.60527 0.0
H1761 H 0.55762 0.91801 0.5699 0.0
H1762 H 0.50003 0.82347 0.56348 0.0
H1763 H 0.52774 0.81237 0.54734 0.0
H1764 H 0.52631 0.81119 0.58156 0.0
H1765 H 0.55235 0.92508 0.52642 0.0
H1766 H 0.54857 0.89799 0.50585 0.0
H1767 H 0.52118 0.91334 0.51875 0.0
H1768 H 0.52415 0.83307 0.46143 0.0
H1769 H 0.45753 0.86548 0.49567 0.0
H1770 H 0.56017 0.82725 0.51832 0.0
H1771 H 0.56812 0.85614 0.50246 0.0
H1772 H 0.56233 0.82784 0.48414 0.0
H1773 H 0.47902 0.86525 0.55873 0.0
H1774 H 0.45626 0.8794 0.53747 0.0
H1775 H 0.48529 0.89573 0.54515 0.0
C1776 C 0.88995 0.77617 0.34221 0.0
C1777 C 0.87168 0.79535 0.34454 0.0
C1778 C 0.89777 0.76764 0.3182 0.0
C1779 C 0.88694 0.77849 0.29611 0.0
C1780 C 0.86965 0.79888 0.29835 0.0
C1781 C 0.8623 0.8071 0.32252 0.0
C1782 C 0.91654 0.74606 0.31651 0.0
C1783 C 0.85763 0.81094 0.27529 0.0
C1784 C 0.91524 0.76304 0.23156 0.0
C1785 C 0.89996 0.74261 0.22391 0.0
C1786 C 0.91121 0.77509 0.255 0.0
C1787 C 0.89131 0.76663 0.27093 0.0
C1788 C 0.87533 0.74659 0.26291 0.0
C1789 C 0.8799 0.7348 0.23956 0.0
C1790 C 0.92862 0.79638 0.263 0.0
C1791 C 0.85365 0.73726 0.2792 0.0
H1792 H 0.89746 0.76714 0.3591 0.0
H1793 H 0.84832 0.82209 0.32405 0.0
H1794 H 0.9067 0.72871 0.30975 0.0
H1795 H 0.93167 0.75055 0.30257 0.0
H1796 H 0.92549 0.74182 0.33512 0.0
H1797 H 0.84695 0.82847 0.28011 0.0
H1798 H 0.87227 0.81571 0.26093 0.0
H1799 H 0.84431 0.79728 0.26639 0.0
H1800 H 0.93088 0.76907 0.21963 0.0
H1801 H 0.86791 0.71913 0.23374 0.0
H1802 H 0.93918 0.79075 0.28033 0.0
H1803 H 0.91741 0.81353 0.26785 0.0
H1804 H 0.94252 0.80142 0.24798 0.0
H1805 H 0.86109 0.72998 0.29751 0.0
H1806 H 0.84263 0.72189 0.26989 0.0
H1807 H 0.84057 0.75317 0.2836 0.0
C1808 C 0.99298 0.16454 0.98088 0.0
C1809 C 0.01805 0.15559 0.97977 0.0
C1810 C 0.97722 0.15854 0.00159 0.0
C1811 C 0.98682 0.14333 0.02158 0.0
C1812 C 0.01211 0.1344 0.02058 0.0
C1813 C 0.02733 0.14058 -0.00026 0.0
C1814 C 0.9503 0.1683 0.00205 0.0
C1815 C 0.02312 0.11809 0.04147 0.0
C1816 C 0.95991 0.14003 0.08816 0.0
C1817 C 0.94869 0.11591 0.08797 0.0
C1818 C 0.97094 0.15014 0.06609 0.0
C1819 C 0.97055 0.1358 0.04335 0.0
C1820 C 0.95763 0.11228 0.04266 0.0
C1821 C 0.94693 0.10259 0.06498 0.0
C1822 C 0.9845 0.17532 0.06756 0.0
C1823 C 0.95661 0.09647 0.01878 0.0
H1824 H 0.98566 0.17618 0.96558 0.0
H1825 H 0.04667 0.13359 -0.00079 0.0
H1826 H 0.93684 0.1521 0.00235 0.0
H1827 H 0.94697 0.17945 0.01958 0.0
H1828 H 0.9459 0.18042 0.98537 0.0
H1829 H 0.04333 0.11319 0.03806 0.0
H1830 H 0.02171 0.12811 0.05993 0.0
H1831 H 0.01213 0.10021 0.04316 0.0
H1832 H 0.96117 0.15051 0.10581 0.0
H1833 H 0.9379 0.0841 0.06457 0.0
H1834 H 0.97946 0.18745 0.0511 0.0
H1835 H 0.0053 0.17209 0.06688 0.0
H1836 H 0.97996 0.18572 0.08532 0.0
H1837 H 0.95122 0.10834 0.00225 0.0
H1838 H 0.94294 0.08051 0.02041 0.0
H1839 H 0.9757 0.08848 0.01486 0.0
C1840 C 0.24935 0.11169 0.2233 0.0
C1841 C 0.26517 0.09078 0.22779 0.0
C1842 C 0.22673 0.11489 0.23684 0.0
C1843 C 0.21951 0.09651 0.25507 0.0
C1844 C 0.23554 0.07552 0.26 0.0
C1845 C 0.25834 0.073 0.24641 0.0
C1846 C 0.21038 0.13783 0.23138 0.0
C1847 C 0.22829 0.05544 0.2791 0.0
C1848 C 0.1704 0.12077 0.30134 0.0
C1849 C 0.14775 0.11399 0.28905 0.0
C1850 C 0.19403 0.11386 0.29131 0.0
C1851 C 0.19502 0.0995 0.26868 0.0
C1852 C 0.17224 0.09079 0.25737 0.0
C1853 C 0.14883 0.09829 0.26762 0.0
C1854 C 0.21786 0.12366 0.30387 0.0
C1855 C 0.17257 0.07496 0.23351 0.0
H1856 H 0.25462 0.12558 0.20905 0.0
H1857 H 0.27042 0.0567 0.24981 0.0
H1858 H 0.19166 0.13166 0.22398 0.0
H1859 H 0.20688 0.14859 0.24913 0.0
H1860 H 0.21919 0.15081 0.21729 0.0
H1861 H 0.24329 0.04081 0.28141 0.0
H1862 H 0.22448 0.06423 0.29783 0.0
H1863 H 0.21052 0.04594 0.27297 0.0
H1864 H 0.1698 0.13274 0.31804 0.0
H1865 H 0.13141 0.09272 0.25819 0.0
H1866 H 0.22634 0.13877 0.29189 0.0
H1867 H 0.23217 0.10833 0.30572 0.0
H1868 H 0.21404 0.13168 0.32298 0.0
H1869 H 0.17842 0.08696 0.21722 0.0
H1870 H 0.15366 0.06669 0.22924 0.0
H1871 H 0.18658 0.05933 0.2352 0.0
C1872 C 0.63425 0.51326 0.02438 0.0
C1873 C 0.65749 0.52174 0.01485 0.0
C1874 C 0.63218 0.4894 0.03594 0.0
C1875 C 0.65371 0.47332 0.03701 0.0
C1876 C 0.67761 0.4825 0.0288 0.0
C1877 C 0.67927 0.50685 0.01804 0.0
C1878 C 0.6065 0.48068 0.04519 0.0
C1879 C 0.7009 0.46584 0.02921 0.0
C1880 C 0.64368 0.41265 0.0745 0.0
C1881 C 0.63277 0.39711 0.05588 0.0
C1882 C 0.65201 0.43727 0.06851 0.0
C1883 C 0.65009 0.44603 0.04318 0.0
C1884 C 0.64141 0.42937 0.02394 0.0
C1885 C 0.63243 0.40526 0.03062 0.0
C1886 C 0.6607 0.45454 0.08963 0.0
C1887 C 0.63987 0.43763 0.99654 0.0
H1888 H 0.61744 0.52486 0.02178 0.0
H1889 H 0.69717 0.51337 0.01025 0.0
H1890 H 0.59871 0.46636 0.03187 0.0
H1891 H 0.60816 0.47153 0.06409 0.0
H1892 H 0.59276 0.49662 0.04656 0.0
H1893 H 0.71858 0.47702 0.02653 0.0
H1894 H 0.70225 0.45518 0.0473 0.0
H1895 H 0.69957 0.45172 0.01365 0.0
H1896 H 0.64392 0.40637 0.09409 0.0
H1897 H 0.62419 0.39311 0.01619 0.0
H1898 H 0.64528 0.46815 0.0942 0.0
H1899 H 0.67751 0.46577 0.08379 0.0
H1900 H 0.66542 0.44376 0.10713 0.0
H1901 H 0.62423 0.45154 0.99425 0.0
H1902 H 0.63626 0.4214 0.98358 0.0
H1903 H 0.65773 0.44711 0.99067 0.0
C1904 C 0.2374 0.87642 0.73499 0.0
C1905 C 0.22346 0.89856 0.73975 0.0
C1906 C 0.26127 0.87259 0.74608 0.0
C1907 C 0.27171 0.89162 0.76193 0.0
C1908 C 0.2575 0.91378 0.76729 0.0
C1909 C 0.23338 0.91689 0.75632 0.0
C1910 C 0.27558 0.84842 0.74034 0.0
C1911 C 0.26816 0.93463 0.78379 0.0
C1912 C 0.32643 0.87022 0.80344 0.0
C1913 C 0.3474 0.87575 0.78795 0.0
C1914 C 0.30168 0.8762 0.79571 0.0
C1915 C 0.29783 0.88844 0.77212 0.0
C1916 C 0.31902 0.89557 0.75718 0.0
C1917 C 0.34356 0.88892 0.76517 0.0
C1918 C 0.27962 0.86799 0.81205 0.0
C1919 C 0.3157 0.90915 0.73216 0.0
H1920 H 0.22975 0.86214 0.72231 0.0
H1921 H 0.22278 0.93416 0.75987 0.0
H1922 H 0.29318 0.85292 0.72969 0.0
H1923 H 0.28133 0.83895 0.75825 0.0
H1924 H 0.26416 0.83486 0.72893 0.0
H1925 H 0.25419 0.95005 0.7872 0.0
H1926 H 0.27431 0.92685 0.80235 0.0
H1927 H 0.28518 0.94291 0.77456 0.0
H1928 H 0.32918 0.86001 0.82107 0.0
H1929 H 0.35968 0.89344 0.75321 0.0
H1930 H 0.26912 0.85252 0.80236 0.0
H1931 H 0.26613 0.88391 0.81483 0.0
H1932 H 0.28585 0.86102 0.83095 0.0
H1933 H 0.30687 0.89612 0.71819 0.0
H1934 H 0.33405 0.91592 0.7243 0.0
H1935 H 0.30281 0.92564 0.73442 0.0
C1936 C 0.86716 0.48896 0.47512 0.0
C1937 C 0.84509 0.4749 0.47996 0.0
C1938 C 0.87171 0.51204 0.48751 0.0
C1939 C 0.85354 0.52155 0.50487 0.0
C1940 C 0.83139 0.50729 0.51016 0.0
C1941 C 0.82754 0.48397 0.4978 0.0
C1942 C 0.89582 0.52644 0.48172 0.0
C1943 C 0.81145 0.51701 0.52828 0.0
C1944 C 0.87813 0.57205 0.54976 0.0
C1945 C 0.87233 0.59441 0.53644 0.0
C1946 C 0.87119 0.54819 0.54024 0.0
C1947 C 0.85777 0.54665 0.51705 0.0
C1948 C 0.85045 0.5692 0.50434 0.0
C1949 C 0.858 0.59282 0.51409 0.0
C1950 C 0.87958 0.52462 0.55424 0.0
C1951 C 0.83568 0.56833 0.47981 0.0
H1952 H 0.88086 0.48198 0.46146 0.0
H1953 H 0.81034 0.47329 0.50145 0.0
H1954 H 0.89113 0.545 0.47294 0.0
H1955 H 0.90632 0.5304 0.49953 0.0
H1956 H 0.90852 0.51587 0.46863 0.0
H1957 H 0.79574 0.50322 0.53102 0.0
H1958 H 0.82007 0.52122 0.54701 0.0
H1959 H 0.8034 0.53503 0.52094 0.0
H1960 H 0.88919 0.57305 0.56706 0.0
H1961 H 0.85326 0.61001 0.50382 0.0
H1962 H 0.89419 0.51456 0.54288 0.0
H1963 H 0.86342 0.51138 0.55679 0.0
H1964 H 0.88773 0.52906 0.57317 0.0
H1965 H 0.84785 0.56048 0.46453 0.0
H1966 H 0.82898 0.58742 0.47387 0.0
H1967 H 0.81902 0.5556 0.48174 0.0
C1968 C 0.75817 0.37665 0.77423 0.0
C1969 C 0.77409 0.3967 0.76688 0.0
C1970 C 0.73613 0.37088 0.76058 0.0
C1971 C 0.72972 0.38554 0.73901 0.0
C1972 C 0.74598 0.4054 0.73103 0.0
C1973 C 0.76806 0.41072 0.74505 0.0
C1974 C 0.71944 0.34935 0.76958 0.0
C1975 C 0.73972 0.42139 0.7081 0.0
C1976 C 0.68225 0.35302 0.69608 0.0
C1977 C 0.65918 0.36282 0.70513 0.0
C1978 C 0.70552 0.36137 0.70588 0.0
C1979 C 0.70576 0.37998 0.72521 0.0
C1980 C 0.68265 0.39105 0.73335 0.0
C1981 C 0.6596 0.38233 0.72319 0.0
C1982 C 0.72973 0.34916 0.69661 0.0
C1983 C 0.68216 0.41107 0.75383 0.0
H1984 H 0.76272 0.36558 0.79097 0.0
H1985 H 0.7802 0.42631 0.73931 0.0
H1986 H 0.70038 0.35673 0.77463 0.0
H1987 H 0.71684 0.33529 0.75414 0.0
H1988 H 0.72745 0.33945 0.78639 0.0
H1989 H 0.75496 0.43526 0.70363 0.0
H1990 H 0.73663 0.4091 0.6913 0.0
H1991 H 0.72182 0.43193 0.71148 0.0
H1992 H 0.68217 0.33812 0.68192 0.0
H1993 H 0.64189 0.39014 0.73015 0.0
H1994 H 0.73763 0.33684 0.71176 0.0
H1995 H 0.7442 0.36381 0.69223 0.0
H1996 H 0.72661 0.33738 0.67941 0.0
H1997 H 0.68761 0.4024 0.77224 0.0
H1998 H 0.66309 0.41981 0.75595 0.0
H1999 H 0.69614 0.42624 0.74963 0.0
C2000 C 0.36542 0.91031 0.48793 0.0
C2001 C 0.38085 0.90938 0.46629 0.0
C2002 C 0.35731 0.93363 0.49797 0.0
C2003 C 0.36521 0.95656 0.48633 0.0
C2004 C 0.3802 0.95572 0.46408 0.0
C2005 C 0.38765 0.93215 0.45421 0.0
C2006 C 0.3409 0.93377 0.52145 0.0
C2007 C 0.38929 0.97972 0.4513 0.0
C2008 C 0.33109 0.01793 0.50305 0.0
C2009 C 0.34667 0.02766 0.52232 0.0
C2010 C 0.33688 0.99482 0.49109 0.0
C2011 C 0.35902 0.98139 0.49827 0.0
C2012 C 0.37522 0.99152 0.51716 0.0
C2013 C 0.36874 0.01441 0.5291 0.0
C2014 C 0.31899 0.98445 0.47126 0.0
C2015 C 0.39926 0.97802 0.525 0.0
H2016 H 0.35998 0.8928 0.49727 0.0
H2017 H 0.39967 0.93164 0.43753 0.0
H2018 H 0.35159 0.94217 0.53752 0.0
H2019 H 0.32385 0.94572 0.51834 0.0
H2020 H 0.33469 0.91438 0.52696 0.0
H2021 H 0.39964 0.97581 0.43336 0.0
H2022 H 0.37303 0.99238 0.44707 0.0
H2023 H 0.40214 0.99019 0.4643 0.0
H2024 H 0.31389 0.02796 0.49785 0.0
H2025 H 0.38093 0.02188 0.54389 0.0
H2026 H 0.31133 0.96589 0.47764 0.0
H2027 H 0.3293 0.98106 0.45324 0.0
H2028 H 0.30284 0.99746 0.46745 0.0
H2029 H 0.39455 0.95923 0.53324 0.0
H2030 H 0.41034 0.98897 0.5392 0.0
H2031 H 0.41143 0.9746 0.50816 0.0
C2032 C 0.84278 0.61901 0.23459 0.0
C2033 C 0.84533 0.6332 0.21224 0.0
C2034 C 0.81875 0.61155 0.24339 0.0
C2035 C 0.79677 0.61891 0.22976 0.0
C2036 C 0.7993 0.63244 0.2067 0.0
C2037 C 0.82356 0.6392 0.1981 0.0
C2038 C 0.81684 0.5966 0.26776 0.0
C2039 C 0.77634 0.64098 0.19181 0.0
C2040 C 0.73377 0.58732 0.24538 0.0
C2041 C 0.72361 0.60427 0.26321 0.0
C2042 C 0.75754 0.59185 0.23419 0.0
C2043 C 0.77115 0.61412 0.2406 0.0
C2044 C 0.76051 0.63174 0.25788 0.0
C2045 C 0.73701 0.62647 0.26918 0.0
C2046 C 0.76848 0.57243 0.2162 0.0
C2047 C 0.77416 0.65599 0.26477 0.0
H2048 H 0.85953 0.61417 0.24551 0.0
H2049 H 0.82532 0.65026 0.18085 0.0
H2050 H 0.808 0.60852 0.28268 0.0
H2051 H 0.80452 0.57974 0.26506 0.0
H2052 H 0.8357 0.59016 0.27466 0.0
H2053 H 0.78158 0.64963 0.17331 0.0
H2054 H 0.76342 0.62475 0.18825 0.0
H2055 H 0.76559 0.65519 0.20303 0.0
H2056 H 0.72361 0.57001 0.24091 0.0
H2057 H 0.72918 0.63968 0.28286 0.0
H2058 H 0.78627 0.56456 0.22425 0.0
H2059 H 0.77341 0.58146 0.19784 0.0
H2060 H 0.75514 0.55652 0.21254 0.0
H2061 H 0.79226 0.65146 0.27452 0.0
H2062 H 0.76267 0.66834 0.27742 0.0
H2063 H 0.77895 0.66681 0.24735 0.0
C2064 C 0.14102 0.98832 0.98016 0.0
C2065 C 0.16386 0.97818 0.98906 0.0
C2066 C 0.14031 0.01235 0.96877 0.0
C2067 C 0.16286 0.02692 0.96722 0.0
C2068 C 0.18623 0.01619 0.97508 0.0
C2069 C 0.18649 0.99169 0.98566 0.0
C2070 C 0.11512 0.02275 0.9599 0.0
C2071 C 0.21055 0.03127 0.97427 0.0
C2072 C 0.15669 0.08724 0.9283 0.0
C2073 C 0.14714 0.10399 0.94662 0.0
C2074 C 0.1633 0.06224 0.93485 0.0
C2075 C 0.16107 0.05427 0.96042 0.0
C2076 C 0.15379 0.07197 0.97929 0.0
C2077 C 0.14645 0.09649 0.97208 0.0
C2078 C 0.17046 0.04386 0.91409 0.0
C2079 C 0.15198 0.06453 0.00691 0.0
H2080 H 0.12356 0.97777 0.98289 0.0
H2081 H 0.20408 0.98387 0.99294 0.0
H2082 H 0.10869 0.03784 0.97309 0.0
H2083 H 0.11702 0.0314 0.94079 0.0
H2084 H 0.10023 0.00783 0.95912 0.0
H2085 H 0.22749 0.01907 0.97726 0.0
H2086 H 0.21256 0.04132 0.95588 0.0
H2087 H 0.21014 0.0459 0.98941 0.0
H2088 H 0.15713 0.09301 0.90856 0.0
H2089 H 0.13919 0.10954 0.98624 0.0
H2090 H 0.15418 0.03105 0.91029 0.0
H2091 H 0.18671 0.03183 0.91994 0.0
H2092 H 0.17542 0.0538 0.89616 0.0
H2093 H 0.13536 0.05191 0.00972 0.0
H2094 H 0.14977 0.0813 0.01948 0.0
H2095 H 0.16915 0.05385 0.01282 0.0
C2096 C 0.32314 0.16722 0.09548 0.0
C2097 C 0.3044 0.14991 0.10301 0.0
C2098 C 0.31686 0.19256 0.08995 0.0
C2099 C 0.29116 0.20032 0.09109 0.0
C2100 C 0.272 0.18219 0.09634 0.0
C2101 C 0.27892 0.15732 0.10274 0.0
C2102 C 0.33792 0.21136 0.08511 0.0
C2103 C 0.24428 0.18945 0.09689 0.0
C2104 C 0.26981 0.26538 0.11248 0.0
C2105 C 0.2624 0.27646 0.08953 0.0
C2106 C 0.2812 0.24134 0.11298 0.0
C2107 C 0.28429 0.2277 0.09001 0.0
C2108 C 0.27796 0.23937 0.06664 0.0
C2109 C 0.26738 0.26387 0.06666 0.0
C2110 C 0.28848 0.22994 0.13825 0.0
C2111 C 0.28043 0.22529 0.04183 0.0
H2112 H 0.3429 0.16154 0.09581 0.0
H2113 H 0.26444 0.14387 0.1085 0.0
H2114 H 0.33299 0.22433 0.06928 0.0
H2115 H 0.3407 0.22318 0.10231 0.0
H2116 H 0.35616 0.20177 0.08065 0.0
H2117 H 0.2317 0.17254 0.09757 0.0
H2118 H 0.24043 0.20125 0.11389 0.0
H2119 H 0.23931 0.20091 0.07993 0.0
H2120 H 0.26592 0.2752 0.13014 0.0
H2121 H 0.26129 0.27237 0.04893 0.0
H2122 H 0.3077 0.22141 0.13723 0.0
H2123 H 0.27497 0.21457 0.1432 0.0
H2124 H 0.28823 0.24424 0.15374 0.0
H2125 H 0.29911 0.21568 0.04051 0.0
H2126 H 0.27814 0.23808 0.02523 0.0
H2127 H 0.26561 0.21035 0.04084 0.0
C2128 C 0.75661 0.34415 0.89376 0.0
C2129 C 0.77902 0.34582 0.87955 0.0
C2130 C 0.7468 0.32047 0.90107 0.0
C2131 C 0.75946 0.29798 0.89352 0.0
C2132 C 0.78258 0.2996 0.87998 0.0
C2133 C 0.7922 0.3235 0.87339 0.0
C2134 C 0.7224 0.31948 0.91605 0.0
C2135 C 0.79646 0.27608 0.87127 0.0
C2136 C 0.74248 0.23491 0.92411 0.0
C2137 C 0.72474 0.22518 0.90679 0.0
C2138 C 0.75382 0.2587 0.92017 0.0
C2139 C 0.74764 0.2728 0.89816 0.0
C2140 C 0.7302 0.26279 0.88033 0.0
C2141 C 0.71877 0.23922 0.885 0.0
C2142 C 0.77202 0.26896 0.93978 0.0
C2143 C 0.72352 0.27704 0.85636 0.0
H2144 H 0.74644 0.36133 0.89872 0.0
H2145 H 0.8095 0.32458 0.86232 0.0
H2146 H 0.70708 0.3114 0.90408 0.0
H2147 H 0.7246 0.30688 0.93278 0.0
H2148 H 0.71634 0.33856 0.92266 0.0
H2149 H 0.81504 0.28059 0.86238 0.0
H2150 H 0.79975 0.26305 0.88747 0.0
H2151 H 0.78466 0.26575 0.85723 0.0
H2152 H 0.74697 0.22426 0.94112 0.0
H2153 H 0.70515 0.23175 0.87151 0.0
H2154 H 0.76478 0.28723 0.94733 0.0
H2155 H 0.79072 0.27286 0.93096 0.0
H2156 H 0.77481 0.25562 0.95587 0.0
H2157 H 0.71468 0.29552 0.86122 0.0
H2158 H 0.71019 0.26627 0.84409 0.0
H2159 H 0.74098 0.28116 0.84534 0.0
C2160 C 0.40384 0.02774 0.64829 0.0
C2161 C 0.39874 0.05042 0.63536 0.0
C2162 C 0.42873 0.02127 0.65523 0.0
C2163 C 0.44898 0.03779 0.64888 0.0
C2164 C 0.4437 0.06161 0.63769 0.0
C2165 C 0.41862 0.0677 0.6312 0.0
C2166 C 0.43354 0.99589 0.66765 0.0
C2167 C 0.46469 0.07981 0.63065 0.0
C2168 C 0.51457 0.02054 0.67388 0.0
C2169 C 0.52375 0.00539 0.65402 0.0
C2170 C 0.4905 0.03202 0.67229 0.0
C2171 C 0.47557 0.0284 0.65023 0.0
C2172 C 0.48548 0.01438 0.62958 0.0
C2173 C 0.50935 0.00296 0.63179 0.0
C2174 C 0.48055 0.04681 0.69469 0.0
C2175 C 0.47039 0.01042 0.60551 0.0
H2176 H 0.38857 0.01443 0.65191 0.0
H2177 H 0.41488 0.08545 0.62154 0.0
H2178 H 0.44246 0.98286 0.65371 0.0
H2179 H 0.44687 0.99797 0.6838 0.0
H2180 H 0.41575 0.987 0.67463 0.0
H2181 H 0.45728 0.09899 0.62596 0.0
H2182 H 0.47864 0.08155 0.6463 0.0
H2183 H 0.47496 0.07239 0.61383 0.0
H2184 H 0.52556 0.02232 0.69117 0.0
H2185 H 0.51647 0.99145 0.6163 0.0
H2186 H 0.46527 0.03579 0.70409 0.0
H2187 H 0.47216 0.06508 0.68841 0.0
H2188 H 0.49563 0.05076 0.70888 0.0
H2189 H 0.4532 0.999 0.60972 0.0
H2190 H 0.48151 0.00048 0.59063 0.0
H2191 H 0.46394 0.02894 0.59782 0.0
C2192 C 0.72816 0.65903 0.38845 0.0
C2193 C 0.70501 0.65559 0.37582 0.0
C2194 C 0.73587 0.68324 0.39647 0.0
C2195 C 0.72018 0.70449 0.39143 0.0
C2196 C 0.69607 0.70089 0.38022 0.0
C2197 C 0.6887 0.67645 0.37272 0.0
C2198 C 0.76151 0.68626 0.40888 0.0
C2199 C 0.67882 0.72303 0.37441 0.0
C2200 C 0.73857 0.76755 0.42138 0.0
C2201 C 0.75411 0.77791 0.40242 0.0
C2202 C 0.7268 0.74385 0.41794 0.0
C2203 C 0.7304 0.73056 0.39487 0.0
C2204 C 0.74494 0.74165 0.37519 0.0
C2205 C 0.75679 0.76508 0.3793 0.0
C2206 C 0.71164 0.73249 0.43943 0.0
C2207 C 0.74877 0.72836 0.35008 0.0
H2208 H 0.74074 0.64298 0.3912 0.0
H2209 H 0.67067 0.674 0.36317 0.0
H2210 H 0.77471 0.69574 0.39549 0.0
H2211 H 0.76002 0.69845 0.42598 0.0
H2212 H 0.76985 0.66771 0.41447 0.0
H2213 H 0.65945 0.71677 0.36893 0.0
H2214 H 0.67733 0.73589 0.391 0.0
H2215 H 0.68694 0.73421 0.35851 0.0
H2216 H 0.73664 0.77733 0.43937 0.0
H2217 H 0.76866 0.77313 0.36454 0.0
H2218 H 0.72187 0.71578 0.44715 0.0
H2219 H 0.69295 0.72572 0.43252 0.0
H2220 H 0.70851 0.74626 0.45508 0.0
H2221 H 0.75977 0.71065 0.35303 0.0
H2222 H 0.75909 0.74038 0.33616 0.0
H2223 H 0.73019 0.72294 0.3418 0.0
C2224 C 0.98654 0.98314 0.16665 0.0
C2225 C 0.97047 0.99048 0.1468 0.0
C2226 C 0.00988 0.97128 0.16155 0.0
C2227 C 0.01676 0.96606 0.13609 0.0
C2228 C -0.00047 0.97166 0.11622 0.0
C2229 C 0.97681 0.9843 0.12178 0.0
C2230 C 0.02793 0.96613 0.18318 0.0
C2231 C 0.00573 0.9656 0.08891 0.0
C2232 C 0.08468 0.96793 0.11287 0.0
C2233 C 0.09041 0.94211 0.11072 0.0
C2234 C 0.06133 0.97593 0.12276 0.0
C2235 C 0.04292 0.9576 0.12973 0.0
C2236 C 0.04896 0.93144 0.12835 0.0
C2237 C 0.07288 0.924 0.11923 0.0
C2238 C 0.05597 0.00403 0.12472 0.0
C2239 C 0.02966 0.91128 0.13481 0.0
H2240 H 0.98168 0.98827 0.18597 0.0
H2241 H 0.96427 0.99 0.10649 0.0
H2242 H 0.03574 0.94663 0.18189 0.0
H2243 H 0.04418 0.97948 0.182 0.0
H2244 H 0.01867 0.96851 0.20197 0.0
H2245 H 0.98897 0.96784 0.07631 0.0
H2246 H 0.02091 0.9785 0.08209 0.0
H2247 H 0.01291 0.94588 0.08719 0.0
H2248 H 0.09834 0.9819 0.10639 0.0
H2249 H 0.07725 0.90399 0.11736 0.0
H2250 H 0.04807 0.00867 0.14367 0.0
H2251 H 0.0416 0.00951 0.11035 0.0
H2252 H 0.07328 0.01566 0.12157 0.0
H2253 H 0.01964 0.91589 0.15273 0.0
H2254 H 0.03848 0.89221 0.13666 0.0
H2255 H 0.01518 0.91045 0.11954 0.0
C2256 C 0.24133 0.73128 0.58046 0.0
C2257 C 0.25873 0.72196 0.59832 0.0
C2258 C 0.22841 0.75426 0.58468 0.0
C2259 C 0.2328 0.76792 0.60741 0.0
C2260 C 0.24927 0.75779 0.62607 0.0
C2261 C 0.26212 0.73505 0.62122 0.0
C2262 C 0.2111 0.76454 0.56431 0.0
C2263 C 0.25414 0.77149 0.65078 0.0
C2264 C 0.22714 0.83937 0.61325 0.0
C2265 C 0.20483 0.84179 0.62754 0.0
C2266 C 0.23558 0.81547 0.60503 0.0
C2267 C 0.22149 0.79348 0.61144 0.0
C2268 C 0.19816 0.79597 0.62446 0.0
C2269 C 0.19005 0.82011 0.63224 0.0
C2270 C 0.26039 0.81363 0.59081 0.0
C2271 C 0.18259 0.77303 0.63171 0.0
H2272 H 0.2388 0.72132 0.56264 0.0
H2273 H 0.27541 0.72781 0.63517 0.0
H2274 H 0.19263 0.77037 0.57255 0.0
H2275 H 0.2198 0.7817 0.55573 0.0
H2276 H 0.20759 0.75046 0.54903 0.0
H2277 H 0.26609 0.76019 0.66398 0.0
H2278 H 0.26388 0.78976 0.64696 0.0
H2279 H 0.23593 0.77594 0.66035 0.0
H2280 H 0.23854 0.85602 0.60929 0.0
H2281 H 0.17267 0.82176 0.6431 0.0
H2282 H 0.25827 0.80129 0.57389 0.0
H2283 H 0.27497 0.80486 0.60323 0.0
H2284 H 0.2674 0.83252 0.58459 0.0
H2285 H 0.1805 0.75998 0.61534 0.0
H2286 H 0.1634 0.77834 0.63865 0.0
H2287 H 0.19249 0.76242 0.64698 0.0
C2288 C 0.01472 0.49668 0.32736 0.0
C2289 C 0.02403 0.51334 0.34591 0.0
C2290 C 0.99112 0.48464 0.33042 0.0
C2291 C 0.97681 0.48909 0.35271 0.0
C2292 C 0.98666 0.50505 0.37194 0.0
C2293 C 0.01004 0.51713 0.36821 0.0
C2294 C 0.98108 0.46796 0.30941 0.0
C2295 C 0.97222 0.5099 0.39623 0.0
C2296 C 0.90524 0.48309 0.35623 0.0
C2297 C 0.90248 0.46027 0.36963 0.0
C2298 C 0.92935 0.49194 0.34913 0.0
C2299 C 0.95118 0.47778 0.35592 0.0
C2300 C 0.94841 0.45406 0.36818 0.0
C2301 C 0.92408 0.44551 0.37472 0.0
C2302 C 0.93152 0.51711 0.3356 0.0
C2303 C 0.9712 0.43848 0.37591 0.0
H2304 H 0.02537 0.49386 0.30999 0.0
H2305 H 0.01724 0.52987 0.38268 0.0
H2306 H 0.97558 0.44911 0.31702 0.0
H2307 H 0.96375 0.47665 0.30119 0.0
H2308 H 0.99518 0.46519 0.29399 0.0
H2309 H 0.98316 0.52171 0.40984 0.0
H2310 H 0.95412 0.51974 0.39191 0.0
H2311 H 0.96739 0.49164 0.40555 0.0
H2312 H 0.88864 0.49448 0.352 0.0
H2313 H 0.92217 0.42779 0.38498 0.0
H2314 H 0.9444 0.51546 0.31903 0.0
H2315 H 0.93983 0.5314 0.34864 0.0
H2316 H 0.91281 0.52422 0.32897 0.0
H2317 H 0.98461 0.43646 0.35982 0.0
H2318 H 0.96578 0.41925 0.38266 0.0
H2319 H 0.98146 0.44834 0.39142 0.0
C2320 C 0.56443 0.53454 0.90897 0.0
C2321 C 0.58721 0.53144 0.89552 0.0
C2322 C 0.54159 0.52437 0.89988 0.0
C2323 C 0.54151 0.51067 0.8768 0.0
C2324 C 0.56428 0.50806 0.86275 0.0
C2325 C 0.58688 0.51852 0.87227 0.0
C2326 C 0.51769 0.52768 0.91535 0.0
C2327 C 0.56491 0.49357 0.83805 0.0
C2328 C 0.49053 0.46063 0.86818 0.0
C2329 C 0.47337 0.47287 0.85188 0.0
C2330 C 0.51274 0.47274 0.87638 0.0
C2331 C 0.51793 0.49779 0.86819 0.0
C2332 C 0.50059 0.51044 0.85203 0.0
C2333 C 0.47851 0.49781 0.84402 0.0
C2334 C 0.53076 0.45862 0.89365 0.0
C2335 C 0.50543 0.53723 0.84309 0.0
H2336 H 0.56444 0.54466 0.92687 0.0
H2337 H 0.60437 0.51611 0.86172 0.0
H2338 H 0.50236 0.53579 0.90342 0.0
H2339 H 0.51103 0.50891 0.92221 0.0
H2340 H 0.52062 0.54024 0.93202 0.0
H2341 H 0.58378 0.49449 0.82871 0.0
H2342 H 0.56015 0.47335 0.84158 0.0
H2343 H 0.55043 0.50118 0.82479 0.0
H2344 H 0.48681 0.44136 0.87436 0.0
H2345 H 0.46539 0.50743 0.83144 0.0
H2346 H 0.53338 0.4693 0.9116 0.0
H2347 H 0.54966 0.45703 0.88451 0.0
H2348 H 0.5239 0.43923 0.89832 0.0
H2349 H 0.50753 0.55007 0.85964 0.0
H2350 H 0.48991 0.54452 0.83083 0.0
H2351 H 0.52348 0.53801 0.83228 0.0
C2352 C 0.93308 0.08169 0.24279 0.0
C2353 C 0.93787 0.0876 0.21724 0.0
C2354 C 0.94578 0.09446 0.26242 0.0
C2355 C 0.9638 0.1134 0.2563 0.0
C2356 C 0.96738 0.12064 0.23067 0.0
C2357 C 0.9543 0.10773 0.21147 0.0
C2358 C 0.94108 0.08657 0.28955 0.0
C2359 C 0.98638 0.14083 0.22335 0.0
C2360 C 0.99501 0.15787 0.30353 0.0
C2361 C 0.0189 0.1464 0.30636 0.0
C2362 C 0.97609 0.14656 0.28854 0.0
C2363 C 0.9813 0.12339 0.276 0.0
C2364 C 0.00471 0.11091 0.28022 0.0
C2365 C 0.02315 0.1225 0.29541 0.0
C2366 C 0.95116 0.16018 0.28488 0.0
C2367 C 0.011 0.08608 0.26731 0.0
H2368 H 0.92016 0.06638 0.24749 0.0
H2369 H 0.95797 0.11263 0.19183 0.0
H2370 H 0.95739 0.07517 0.29644 0.0
H2371 H 0.93942 0.10343 0.30203 0.0
H2372 H 0.9236 0.07493 0.29145 0.0
H2373 H 0.98521 0.14586 0.2029 0.0
H2374 H 0.98334 0.15827 0.23473 0.0
H2375 H 0.00586 0.13394 0.22741 0.0
H2376 H 0.99146 0.17626 0.31199 0.0
H2377 H 0.04141 0.1133 0.29771 0.0
H2378 H 0.93504 0.14669 0.28603 0.0
H2379 H 0.95072 0.16894 0.26574 0.0
H2380 H 0.94834 0.1754 0.29919 0.0
H2381 H 0.99567 0.07203 0.27056 0.0
H2382 H 0.02918 0.07789 0.27413 0.0
H2383 H 0.01245 0.08914 0.24652 0.0
C2384 C 0.58149 0.24388 0.07043 0.0
C2385 C 0.59159 0.26823 0.06644 0.0
C2386 C 0.59168 0.22264 0.05798 0.0
C2387 C 0.61228 0.22596 0.04112 0.0
C2388 C 0.6241 0.25001 0.03905 0.0
C2389 C 0.61369 0.27081 0.05185 0.0
C2390 C 0.57907 0.19715 0.06134 0.0
C2391 C 0.6464 0.25432 0.02154 0.0
C2392 C 0.65081 0.17606 0.00715 0.0
C2393 C 0.64079 0.17806 0.98252 0.0
C2394 C 0.64015 0.18972 0.02737 0.0
C2395 C 0.61921 0.20583 0.0227 0.0
C2396 C 0.60742 0.20575 0.99855 0.0
C2397 C 0.61828 0.19174 0.97877 0.0
C2398 C 0.65272 0.18859 0.05307 0.0
C2399 C 0.5848 0.22243 0.99285 0.0
H2400 H 0.56472 0.24154 0.08204 0.0
H2401 H 0.62198 0.28944 0.04903 0.0
H2402 H 0.56591 0.19374 0.04527 0.0
H2403 H 0.59326 0.18159 0.06141 0.0
H2404 H 0.56793 0.19631 0.07922 0.0
H2405 H 0.65481 0.27351 0.02389 0.0
H2406 H 0.66138 0.23996 0.02502 0.0
H2407 H 0.64013 0.25223 0.00154 0.0
H2408 H 0.66793 0.16511 0.01038 0.0
H2409 H 0.61012 0.19307 0.95993 0.0
H2410 H 0.63845 0.18943 0.06853 0.0
H2411 H 0.66554 0.20515 0.05527 0.0
H2412 H 0.66421 0.17105 0.05531 0.0
H2413 H 0.57004 0.22017 0.00768 0.0
H2414 H 0.57622 0.21808 0.9741 0.0
H2415 H 0.5908 0.24263 0.99288 0.0
C2416 C 0.54872 0.89036 0.71739 0.0
C2417 C 0.56414 0.91145 0.7225 0.0
C2418 C 0.53585 0.87777 0.73695 0.0
C2419 C 0.53862 0.88635 0.76225 0.0
C2420 C 0.55591 0.9061 0.76782 0.0
C2421 C 0.56844 0.91848 0.74784 0.0
C2422 C 0.51775 0.85658 0.73023 0.0
C2423 C 0.55983 0.91538 0.79462 0.0
C2424 C 0.47795 0.87734 0.79911 0.0
C2425 C 0.48223 0.85385 0.81088 0.0
C2426 C 0.49687 0.889 0.78458 0.0
C2427 C 0.52076 0.87699 0.78192 0.0
C2428 C 0.526 0.8545 0.79562 0.0
C2429 C 0.50662 0.84312 0.80993 0.0
C2430 C 0.49059 0.91317 0.77046 0.0
C2431 C 0.55142 0.84146 0.79373 0.0
H2432 H 0.54552 0.88449 0.69794 0.0
H2433 H 0.58064 0.93444 0.75207 0.0
H2434 H 0.52105 0.83987 0.7426 0.0
H2435 H 0.49794 0.863 0.73341 0.0
H2436 H 0.51965 0.85054 0.71012 0.0
H2437 H 0.57724 0.92714 0.79637 0.0
H2438 H 0.54333 0.92711 0.80041 0.0
H2439 H 0.56114 0.89921 0.80805 0.0
H2440 H 0.45931 0.886 0.80001 0.0
H2441 H 0.51024 0.82511 0.81921 0.0
H2442 H 0.48981 0.90923 0.74979 0.0
H2443 H 0.50555 0.92763 0.77358 0.0
H2444 H 0.47205 0.92129 0.77639 0.0
H2445 H 0.55265 0.83124 0.77537 0.0
H2446 H 0.55422 0.82747 0.80926 0.0
H2447 H 0.56713 0.85547 0.79426 0.0
C2448 C 0.90789 0.75058 0.56398 0.0
C2449 C 0.8974 0.72609 0.56314 0.0
C2450 C 0.89725 0.77056 0.54991 0.0
C2451 C 0.87576 0.76584 0.53455 0.0
C2452 C 0.86399 0.74169 0.53513 0.0
C2453 C 0.87489 0.72215 0.54949 0.0
C2454 C 0.91004 0.79619 0.55017 0.0
C2455 C 0.84089 0.73592 0.51915 0.0
C2456 C 0.83612 0.81583 0.50138 0.0
C2457 C 0.84487 0.81352 0.47631 0.0
C2458 C 0.84715 0.8017 0.5211 0.0
C2459 C 0.86727 0.78483 0.51552 0.0
C2460 C 0.87744 0.78393 0.49067 0.0
C2461 C 0.86619 0.79837 0.47139 0.0
C2462 C 0.83614 0.80358 0.54746 0.0
C2463 C 0.89905 0.7663 0.48399 0.0
H2464 H 0.92516 0.75393 0.57457 0.0
H2465 H 0.86644 0.7034 0.54892 0.0
H2466 H 0.92083 0.7988 0.53229 0.0
H2467 H 0.89579 0.81166 0.55127 0.0
H2468 H 0.92344 0.79811 0.56633 0.0
H2469 H 0.83273 0.71696 0.52345 0.0
H2470 H 0.82602 0.75049 0.5222 0.0
H2471 H 0.84615 0.73645 0.49876 0.0
H2472 H 0.81983 0.82772 0.50546 0.0
H2473 H 0.87329 0.79663 0.45217 0.0
H2474 H 0.85142 0.8042 0.56193 0.0
H2475 H 0.82443 0.78652 0.55137 0.0
H2476 H 0.82395 0.82064 0.54969 0.0
H2477 H 0.915 0.76876 0.49749 0.0
H2478 H 0.90622 0.76954 0.46443 0.0
H2479 H 0.89254 0.74632 0.48548 0.0
C2480 C 0.44202 0.40435 0.74181 0.0
C2481 C 0.43943 0.39209 0.76534 0.0
C2482 C 0.45715 0.39388 0.72253 0.0
C2483 C 0.46998 0.37072 0.727 0.0
C2484 C 0.46584 0.35735 0.74994 0.0
C2485 C 0.45055 0.36815 0.76878 0.0
C2486 C 0.46072 0.40845 0.69813 0.0
C2487 C 0.47902 0.33245 0.75536 0.0
C2488 C 0.50437 0.33157 0.67752 0.0
C2489 C 0.52977 0.33752 0.68296 0.0
C2490 C 0.4844 0.34351 0.69048 0.0
C2491 C 0.49002 0.36175 0.70934 0.0
C2492 C 0.51548 0.36926 0.71348 0.0
C2493 C 0.53503 0.35712 0.70018 0.0
C2494 C 0.45746 0.33538 0.68516 0.0
C2495 C 0.52227 0.38883 0.7333 0.0
H2496 H 0.43329 0.42274 0.73883 0.0
H2497 H 0.44843 0.35837 0.78675 0.0
H2498 H 0.47962 0.41773 0.69825 0.0
H2499 H 0.46012 0.39553 0.68153 0.0
H2500 H 0.44604 0.42339 0.69568 0.0
H2501 H 0.47205 0.32341 0.77309 0.0
H2502 H 0.47619 0.31902 0.73941 0.0
H2503 H 0.49973 0.33573 0.75726 0.0
H2504 H 0.50004 0.31684 0.66391 0.0
H2505 H 0.55455 0.3621 0.70435 0.0
H2506 H 0.44469 0.35209 0.68407 0.0
H2507 H 0.4506 0.3232 0.70091 0.0
H2508 H 0.45593 0.32446 0.6672 0.0
H2509 H 0.5106 0.40617 0.73082 0.0
H2510 H 0.54263 0.39425 0.73253 0.0
H2511 H 0.51815 0.38112 0.75247 0.0
C2512 C 0.36908 0.70788 0.52402 0.0
C2513 C 0.34835 0.69178 0.51957 0.0
C2514 C 0.37974 0.72227 0.50438 0.0
C2515 C 0.36958 0.7204 0.47958 0.0
C2516 C 0.34991 0.70284 0.47452 0.0
C2517 C 0.33948 0.68876 0.49462 0.0
C2518 C 0.40087 0.74065 0.51055 0.0
C2519 C 0.33892 0.69996 0.44824 0.0
C2520 C 0.37766 0.78225 0.44437 0.0
C2521 C 0.40076 0.77819 0.43177 0.0
C2522 C 0.36619 0.76285 0.4585 0.0
C2523 C 0.37799 0.73875 0.45989 0.0
C2524 C 0.3999 0.73379 0.44521 0.0
C2525 C 0.41108 0.75361 0.43134 0.0
C2526 C 0.34264 0.76886 0.47369 0.0
C2527 C 0.41274 0.70819 0.44574 0.0
H2528 H 0.3763 0.71021 0.54314 0.0
H2529 H 0.32371 0.67616 0.49086 0.0
H2530 H 0.41708 0.73782 0.49744 0.0
H2531 H 0.39402 0.7604 0.50796 0.0
H2532 H 0.4078 0.73853 0.53035 0.0
H2533 H 0.32702 0.68263 0.44655 0.0
H2534 H 0.32693 0.71669 0.4438 0.0
H2535 H 0.35421 0.69915 0.43379 0.0
H2536 H 0.36928 0.80104 0.44456 0.0
H2537 H 0.42874 0.75013 0.4215 0.0
H2538 H 0.34751 0.7695 0.49417 0.0
H2539 H 0.32814 0.75383 0.47111 0.0
H2540 H 0.33419 0.7874 0.46827 0.0
H2541 H 0.42344 0.70614 0.46376 0.0
H2542 H 0.42625 0.70588 0.42973 0.0
H2543 H 0.39856 0.69265 0.44499 0.0
C2544 C 0.00319 0.66856 0.18618 0.0
C2545 C 0.97892 0.65754 0.18671 0.0
C2546 C 0.02331 0.65797 0.20009 0.0
C2547 C 0.01892 0.63602 0.21492 0.0
C2548 C 0.99505 0.62375 0.2139 0.0
C2549 C 0.97538 0.63459 0.19972 0.0
C2550 C 0.04868 0.67125 0.20023 0.0
C2551 C 0.98964 0.60016 0.2293 0.0
C2552 C 0.06818 0.59574 0.24811 0.0
C2553 C 0.06502 0.60363 0.27336 0.0
C2554 C 0.05483 0.60753 0.2283 0.0
C2555 C 0.03783 0.6275 0.23397 0.0
C2556 C 0.03629 0.63699 0.25905 0.0
C2557 C 0.05 0.62503 0.27842 0.0
C2558 C 0.05749 0.59731 0.20168 0.0
C2559 C 0.01851 0.65843 0.26587 0.0
H2560 H 0.00622 0.68615 0.17594 0.0
H2561 H 0.95682 0.62573 0.19999 0.0
H2562 H 0.05074 0.68214 0.21811 0.0
H2563 H 0.06446 0.65732 0.19943 0.0
H2564 H 0.05058 0.68466 0.18407 0.0
H2565 H 0.97083 0.59178 0.22477 0.0
H2566 H 0.00446 0.5856 0.2259 0.0
H2567 H 0.99004 0.6049 0.24982 0.0
H2568 H 0.08004 0.57953 0.24389 0.0
H2569 H 0.04766 0.63154 0.29778 0.0
H2570 H 0.05802 0.613 0.18763 0.0
H2571 H 0.04083 0.58527 0.19714 0.0
H2572 H 0.07489 0.5856 0.1995 0.0
H2573 H 0.02107 0.67463 0.25268 0.0
H2574 H 0.02146 0.66526 0.28559 0.0
H2575 H 0.99858 0.65186 0.26403 0.0
C2576 C 0.14332 0.3005 0.03856 0.0
C2577 C 0.16279 0.31768 0.03269 0.0
C2578 C 0.13022 0.2876 0.01935 0.0
C2579 C 0.13667 0.29207 0.99364 0.0
C2580 C 0.15457 0.3111 0.98752 0.0
C2581 C 0.16743 0.32371 0.00715 0.0
C2582 C 0.11095 0.26768 0.02669 0.0
C2583 C 0.16159 0.31679 0.96035 0.0
C2584 C 0.12991 0.23237 0.95465 0.0
C2585 C 0.10561 0.23539 0.94424 0.0
C2586 C 0.14096 0.2515 0.96941 0.0
C2587 C 0.12739 0.27426 0.97385 0.0
C2588 C 0.10382 0.27833 0.96166 0.0
C2589 C 0.09317 0.25881 0.94696 0.0
C2590 C 0.16635 0.24653 0.98177 0.0
C2591 C 0.08896 0.3025 0.96559 0.0
H2592 H 0.13927 0.29594 0.0582 0.0
H2593 H 0.18205 0.33731 0.00236 0.0
H2594 H 0.09331 0.27002 0.01546 0.0
H2595 H 0.11868 0.24855 0.02245 0.0
H2596 H 0.10607 0.2685 0.04718 0.0
H2597 H 0.17197 0.33507 0.95858 0.0
H2598 H 0.17397 0.30143 0.953 0.0
H2599 H 0.14445 0.31749 0.94815 0.0
H2600 H 0.13984 0.21449 0.95235 0.0
H2601 H 0.07444 0.2614 0.93893 0.0
H2602 H 0.16378 0.24459 0.00259 0.0
H2603 H 0.17941 0.2627 0.97848 0.0
H2604 H 0.17545 0.22894 0.97454 0.0
H2605 H 0.07983 0.30202 0.98456 0.0
H2606 H 0.07387 0.30486 0.95106 0.0
H2607 H 0.10161 0.31931 0.96506 0.0
C2608 C 0.24706 0.92706 0.07958 0.0
C2609 C 0.22161 0.93211 0.0857 0.0
C2610 C 0.26692 0.93993 0.09182 0.0
C2611 C 0.26112 0.9582 0.11058 0.0
C2612 C 0.23568 0.96146 0.1186 0.0
C2613 C 0.21624 0.94832 0.10611 0.0
C2614 C 0.29385 0.93545 0.08317 0.0
C2615 C 0.2287 0.98048 0.13888 0.0
C2616 C 0.30799 0.99251 0.15287 0.0
C2617 C 0.30877 0.01646 0.14115 0.0
C2618 C 0.29408 0.97247 0.14215 0.0
C2619 C 0.28067 0.97656 0.11927 0.0
C2620 C 0.28334 -9e-05 0.10622 0.0
C2621 C 0.29739 0.01956 0.1173 0.0
C2622 C 0.29214 0.94768 0.15638 0.0
C2623 C 0.26965 0.00493 0.08153 0.0
H2624 H 0.25151 0.91422 0.06418 0.0
H2625 H 0.19669 0.95205 0.11132 0.0
H2626 H 0.29977 0.95117 0.07047 0.0
H2627 H 0.30708 0.93518 0.09954 0.0
H2628 H 0.29574 0.91732 0.07257 0.0
H2629 H 0.20855 0.97875 0.14483 0.0
H2630 H 0.24094 0.97801 0.15582 0.0
H2631 H 0.23184 -1e-05 0.13158 0.0
H2632 H 0.31683 0.98982 0.17123 0.0
H2633 H 0.29821 0.03785 0.10791 0.0
H2634 H 0.29258 0.93131 0.14317 0.0
H2635 H 0.27382 0.94703 0.16672 0.0
H2636 H 0.30771 0.94552 0.17044 0.0
H2637 H 0.273 0.98922 0.06794 0.0
H2638 H 0.27573 0.02302 0.07256 0.0
H2639 H 0.24891 0.00592 0.08508 0.0
C2640 C 0.8013 0.5008 0.84269 0.0
C2641 C 0.8046 0.47727 0.85478 0.0
C2642 C 0.78633 0.51991 0.85373 0.0
C2643 C 0.77437 0.51528 0.87733 0.0
C2644 C 0.77915 0.4923 0.89042 0.0
C2645 C 0.79422 0.47362 0.87901 0.0
C2646 C 0.78199 0.5443 0.83935 0.0
C2647 C 0.76697 0.48669 0.91577 0.0
C2648 C 0.74143 0.56428 0.91833 0.0
C2649 C 0.71582 0.55858 0.91362 0.0
C2650 C 0.76093 0.55162 0.90531 0.0
C2651 C 0.75464 0.53285 0.8872 0.0
C2652 C 0.72888 0.52854 0.88087 0.0
C2653 C 0.7098 0.5415 0.8941 0.0
C2654 C 0.78817 0.55709 0.91225 0.0
C2655 C 0.72136 0.50885 0.86145 0.0
H2656 H 0.80923 0.50386 0.82398 0.0
H2657 H 0.79691 0.45565 0.88866 0.0
H2658 H 0.76275 0.54403 0.8308 0.0
H2659 H 0.78292 0.56089 0.85228 0.0
H2660 H 0.79607 0.54692 0.82389 0.0
H2661 H 0.77433 0.46893 0.92442 0.0
H2662 H 0.7703 0.50257 0.92917 0.0
H2663 H 0.74614 0.48477 0.91329 0.0
H2664 H 0.74634 0.57773 0.93305 0.0
H2665 H 0.69012 0.53716 0.89002 0.0
H2666 H 0.80018 0.55832 0.895 0.0
H2667 H 0.79566 0.54134 0.92405 0.0
H2668 H 0.79006 0.57503 0.92316 0.0
H2669 H 0.73235 0.51144 0.8437 0.0
H2670 H 0.7008 0.50966 0.85683 0.0
H2671 H 0.72576 0.48963 0.86888 0.0
C2672 C 0.26838 0.05053 0.62742 0.0
C2673 C 0.26446 0.06471 0.60524 0.0
C2674 C 0.24898 0.03552 0.63765 0.0
C2675 C 0.22498 0.03488 0.62556 0.0
C2676 C 0.2202 0.05089 0.60455 0.0
C2677 C 0.24006 0.06557 0.59454 0.0
C2678 C 0.25482 0.01884 0.66024 0.0
C2679 C 0.19468 0.05122 0.59155 0.0
C2680 C 0.19446 0.97048 0.63281 0.0
C2681 C 0.17948 0.9741 0.65451 0.0
C2682 C 0.20804 0.99066 0.62207 0.0
C2683 C 0.20637 0.0151 0.63312 0.0
C2684 C 0.18943 0.01939 0.65347 0.0
C2685 C 0.17624 0.99879 0.66403 0.0
C2686 C 0.22578 0.98531 0.60019 0.0
C2687 C 0.18663 0.0453 0.66534 0.0
H2688 H 0.28706 0.04992 0.63601 0.0
H2689 H 0.23672 0.07673 0.57758 0.0
H2690 H 0.24008 0.02114 0.67508 0.0
H2691 H 0.2547 0.99863 0.65429 0.0
H2692 H 0.27363 0.02317 0.66872 0.0
H2693 H 0.19248 0.06807 0.57906 0.0
H2694 H 0.19266 0.03392 0.57973 0.0
H2695 H 0.17906 0.05112 0.60567 0.0
H2696 H 0.1969 0.95156 0.62512 0.0
H2697 H 0.16443 0.00188 0.68058 0.0
H2698 H 0.24572 0.98705 0.60675 0.0
H2699 H 0.22293 -0.00062 0.5848 0.0
H2700 H 0.22304 0.96598 0.59225 0.0
H2701 H 0.20335 0.04923 0.67752 0.0
H2702 H 0.16931 0.04661 0.67729 0.0
H2703 H 0.18587 0.0603 0.65057 0.0
C2704 C 0.69617 0.52573 0.36698 0.0
C2705 C 0.68216 0.52291 0.34453 0.0
C2706 C 0.7103 0.50553 0.37692 0.0
C2707 C 0.7102 0.48182 0.36427 0.0
C2708 C 0.69424 0.47814 0.343 0.0
C2709 C 0.68046 0.49879 0.33329 0.0
C2710 C 0.72693 0.51021 0.3998 0.0
C2711 C 0.69308 0.45296 0.32941 0.0
C2712 C 0.77366 0.44939 0.37109 0.0
C2713 C 0.76957 0.43412 0.39251 0.0
C2714 C 0.75389 0.46367 0.36051 0.0
C2715 C 0.72937 0.46241 0.37142 0.0
C2716 C 0.72454 0.44514 0.39139 0.0
C2717 C 0.74475 0.43124 0.40181 0.0
C2718 C 0.75982 0.48173 0.33903 0.0
C2719 C 0.69849 0.44272 0.40305 0.0
H2720 H 0.6974 0.54417 0.37601 0.0
H2721 H 0.66941 0.49629 0.31612 0.0
H2722 H 0.72399 0.49517 0.41423 0.0
H2723 H 0.74717 0.50956 0.39403 0.0
H2724 H 0.72314 0.52893 0.40872 0.0
H2725 H 0.67615 0.4516 0.31693 0.0
H2726 H 0.71027 0.4507 0.31746 0.0
H2727 H 0.69274 0.43699 0.34314 0.0
H2728 H 0.79268 0.45154 0.36355 0.0
H2729 H 0.74129 0.41918 0.41812 0.0
H2730 H 0.7586 0.50157 0.346 0.0
H2731 H 0.74576 0.4796 0.32352 0.0
H2732 H 0.77911 0.47863 0.3311 0.0
H2733 H 0.69502 0.45911 0.41579 0.0
H2734 H 0.69662 0.42504 0.41438 0.0
H2735 H 0.68356 0.44293 0.38821 0.0
loop_
_geom_bond_atom_site_label_1
_geom_bond_atom_site_label_2
_geom_bond_distance
_geom_bond_site_symmetry_2
_ccdc_geom_bond_type
Co0 O3 1.970 . S
Co0 N17 1.989 . S
Co0 O25 1.967 . S
Co0 O32 1.920 . S
Co1 O4 1.966 . S
Co1 N10 2.022 . S
Co1 N18 1.993 . S
Co1 O26 1.941 . S
C2 O3 1.258 . S
C2 O4 1.263 . S
O3 Co0 1.970 . S
O3 C2 1.258 . S
O4 Co1 1.966 . S
O4 C2 1.263 . S
C5 O6 1.235 . S
C5 O32 1.289 . S
O6 C5 1.235 . S
C7 C9 1.400 . S
C7 N10 1.351 . S
C7 C12 1.501 . S
C8 C9 1.387 . S
C8 N11 1.341 . S
C9 C7 1.400 . S
C9 C8 1.387 . S
N10 Co1 2.022 . S
N10 C7 1.351 . S
N10 N11 1.365 . S
N11 C8 1.341 . S
N11 N10 1.365 . S
N11 H31 0.862 . S
C12 C7 1.501 . S
C12 H13 0.961 . S
C12 H14 0.961 . S
C12 H15 0.960 1_455 S
H13 C12 0.961 . S
H14 C12 0.961 . S
H15 C12 0.960 1_655 S
C16 N17 1.342 . S
C16 C20 1.401 . S
C16 C21 1.499 . S
N17 Co0 1.989 . S
N17 C16 1.342 . S
N17 N18 1.388 . S
N18 Co1 1.993 . S
N18 N17 1.388 . S
N18 C19 1.346 . S
C19 N18 1.346 . S
C19 C20 1.396 . S
C19 C29 1.510 . S
C20 C16 1.401 . S
C20 C19 1.396 . S
C21 C16 1.499 . S
C21 H22 0.959 . S
C21 H23 0.960 . S
C21 H24 0.961 . S
H22 C21 0.959 . S
H23 C21 0.960 . S
H24 C21 0.961 . S
O25 Co0 1.967 . S
O25 C33 1.258 . S
O26 Co1 1.941 . S
O26 C33 1.266 . S
H27 C29 0.959 . S
H28 C29 0.961 . S
C29 C19 1.510 . S
C29 H27 0.959 . S
C29 H28 0.961 . S
C29 H30 0.960 . S
H30 C29 0.960 . S
H31 N11 0.862 . S
O32 Co0 1.920 . S
O32 C5 1.289 . S
C33 O25 1.258 . S
C33 O26 1.266 . S
Co34 O37 1.970 . S
Co34 N51 1.989 . S
Co34 O59 1.967 . S
Co34 O66 1.920 . S
Co35 O38 1.966 . S
Co35 N44 2.022 . S
Co35 N52 1.993 . S
Co35 O60 1.941 . S
C36 O37 1.258 . S
C36 O38 1.263 . S
O37 Co34 1.970 . S
O37 C36 1.258 . S
O38 Co35 1.966 . S
O38 C36 1.263 . S
C39 O40 1.235 . S
C39 O66 1.289 . S
O40 C39 1.235 . S
C41 C43 1.400 . S
C41 N44 1.351 . S
C41 C46 1.501 . S
C42 C43 1.387 . S
C42 N45 1.341 . S
C43 C41 1.400 . S
C43 C42 1.387 . S
N44 Co35 2.022 . S
N44 C41 1.351 . S
N44 N45 1.365 . S
N45 C42 1.341 . S
N45 N44 1.365 . S
N45 H65 0.862 . S
C46 C41 1.501 . S
C46 H47 0.961 . S
C46 H48 0.961 . S
C46 H49 0.960 . S
H47 C46 0.961 . S
H48 C46 0.961 . S
H49 C46 0.960 . S
C50 N51 1.342 . S
C50 C54 1.401 . S
C50 C55 1.499 . S
N51 Co34 1.989 . S
N51 C50 1.342 . S
N51 N52 1.388 . S
N52 Co35 1.993 . S
N52 N51 1.388 . S
N52 C53 1.346 . S
C53 N52 1.346 . S
C53 C54 1.396 . S
C53 C63 1.510 . S
C54 C50 1.401 . S
C54 C53 1.396 . S
C55 C50 1.499 . S
C55 H56 0.959 . S
C55 H57 0.960 . S
C55 H58 0.961 . S
H56 C55 0.959 . S
H57 C55 0.960 . S
H58 C55 0.961 . S
O59 Co34 1.967 . S
O59 C67 1.258 . S
O60 Co35 1.941 . S
O60 C67 1.266 . S
H61 C63 0.959 . S
H62 C63 0.961 . S
C63 C53 1.510 . S
C63 H61 0.959 . S
C63 H62 0.961 . S
C63 H64 0.960 . S
H64 C63 0.960 . S
H65 N45 0.862 . S
O66 Co34 1.920 . S
O66 C39 1.289 . S
C67 O59 1.258 . S
C67 O60 1.266 . S
Co68 O71 1.970 . S
Co68 N85 1.989 . S
Co68 O93 1.967 . S
Co68 O100 1.920 . S
Co69 O72 1.966 . S
Co69 N78 2.022 . S
Co69 N86 1.993 . S
Co69 O94 1.941 . S
C70 O71 1.258 . S
C70 O72 1.263 . S
O71 Co68 1.970 . S
O71 C70 1.258 . S
O72 Co69 1.966 . S
O72 C70 1.263 . S
C73 O74 1.235 . S
C73 O100 1.289 . S
O74 C73 1.235 . S
C75 C77 1.400 . S
C75 N78 1.351 . S
C75 C80 1.501 . S
C76 C77 1.387 . S
C76 N79 1.341 . S
C77 C75 1.400 . S
C77 C76 1.387 . S
N78 Co69 2.022 . S
N78 C75 1.351 . S
N78 N79 1.365 . S
N79 C76 1.341 . S
N79 N78 1.365 . S
N79 H99 0.862 . S
C80 C75 1.501 . S
C80 H81 0.961 . S
C80 H82 0.961 . S
C80 H83 0.960 . S
H81 C80 0.961 . S
H82 C80 0.961 . S
H83 C80 0.960 . S
C84 N85 1.342 . S
C84 C88 1.401 . S
C84 C89 1.499 . S
N85 Co68 1.989 . S
N85 C84 1.342 . S
N85 N86 1.388 . S
N86 Co69 1.993 . S
N86 N85 1.388 . S
N86 C87 1.346 . S
C87 N86 1.346 . S
C87 C88 1.396 . S
C87 C97 1.510 . S
C88 C84 1.401 . S
C88 C87 1.396 . S
C89 C84 1.499 . S
C89 H90 0.959 . S
C89 H91 0.960 . S
C89 H92 0.961 . S
H90 C89 0.959 . S
H91 C89 0.960 . S
H92 C89 0.961 . S
O93 Co68 1.967 . S
O93 C101 1.258 . S
O94 Co69 1.941 . S
O94 C101 1.266 . S
H95 C97 0.959 . S
H96 C97 0.961 . S
C97 C87 1.510 . S
C97 H95 0.959 . S
C97 H96 0.961 . S
C97 H98 0.960 . S
H98 C97 0.960 . S
H99 N79 0.862 . S
O100 Co68 1.920 . S
O100 C73 1.289 . S
C101 O93 1.258 . S
C101 O94 1.266 . S
Co102 O105 1.970 . S
Co102 N119 1.989 . S
Co102 O127 1.967 . S
Co102 O134 1.920 . S
Co103 O106 1.966 . S
Co103 N112 2.022 . S
Co103 N120 1.993 . S
Co103 O128 1.941 . S
C104 O105 1.258 . S
C104 O106 1.263 . S
O105 Co102 1.970 . S
O105 C104 1.258 . S
O106 Co103 1.966 . S
O106 C104 1.263 . S
C107 O108 1.235 . S
C107 O134 1.289 . S
O108 C107 1.235 . S
C109 C111 1.400 . S
C109 N112 1.351 . S
C109 C114 1.501 . S
C110 C111 1.387 1_455 S
C110 N113 1.341 1_455 S
C111 C109 1.400 . S
C111 C110 1.387 1_655 S
N112 Co103 2.022 . S
N112 C109 1.351 . S
N112 N113 1.365 . S
N113 C110 1.341 1_655 S
N113 N112 1.365 . S
N113 H133 0.862 1_655 S
C114 C109 1.501 . S
C114 H115 0.961 . S
C114 H116 0.961 . S
C114 H117 0.960 . S
H115 C114 0.961 . S
H116 C114 0.961 . S
H117 C114 0.960 . S
C118 N119 1.342 . S
C118 C122 1.401 . S
C118 C123 1.499 . S
N119 Co102 1.989 . S
N119 C118 1.342 . S
N119 N120 1.388 . S
N120 Co103 1.993 . S
N120 N119 1.388 . S
N120 C121 1.346 . S
C121 N120 1.346 . S
C121 C122 1.396 . S
C121 C131 1.510 . S
C122 C118 1.401 . S
C122 C121 1.396 . S
C123 C118 1.499 . S
C123 H124 0.959 . S
C123 H125 0.960 . S
C123 H126 0.961 . S
H124 C123 0.959 . S
H125 C123 0.960 . S
H126 C123 0.961 . S
O127 Co102 1.967 . S
O127 C135 1.258 . S
O128 Co103 1.941 . S
O128 C135 1.266 . S
H129 C131 0.959 . S
H130 C131 0.961 . S
C131 C121 1.510 . S
C131 H129 0.959 . S
C131 H130 0.961 . S
C131 H132 0.960 . S
H132 C131 0.960 . S
H133 N113 0.862 1_455 S
O134 Co102 1.920 . S
O134 C107 1.289 . S
C135 O127 1.258 . S
C135 O128 1.266 . S
Co136 O139 1.970 . S
Co136 N153 1.989 . S
Co136 O161 1.967 . S
Co136 O168 1.920 . S
Co137 O140 1.966 . S
Co137 N146 2.022 . S
Co137 N154 1.993 . S
Co137 O162 1.941 . S
C138 O139 1.258 . S
C138 O140 1.263 . S
O139 Co136 1.970 . S
O139 C138 1.258 . S
O140 Co137 1.966 . S
O140 C138 1.263 . S
C141 O142 1.235 . S
C141 O168 1.289 . S
O142 C141 1.235 . S
C143 C145 1.400 . S
C143 N146 1.351 . S
C143 C148 1.501 . S
C144 C145 1.387 . S
C144 N147 1.341 . S
C145 C143 1.400 . S
C145 C144 1.387 . S
N146 Co137 2.022 . S
N146 C143 1.351 . S
N146 N147 1.365 . S
N147 C144 1.341 . S
N147 N146 1.365 . S
N147 H167 0.862 . S
C148 C143 1.501 . S
C148 H149 0.961 . S
C148 H150 0.961 . S
C148 H151 0.960 . S
H149 C148 0.961 . S
H150 C148 0.961 . S
H151 C148 0.960 . S
C152 N153 1.342 . S
C152 C156 1.401 . S
C152 C157 1.499 . S
N153 Co136 1.989 . S
N153 C152 1.342 . S
N153 N154 1.388 . S
N154 Co137 1.993 . S
N154 N153 1.388 . S
N154 C155 1.346 . S
C155 N154 1.346 . S
C155 C156 1.396 . S
C155 C165 1.510 . S
C156 C152 1.401 . S
C156 C155 1.396 . S
C157 C152 1.499 . S
C157 H158 0.959 . S
C157 H159 0.960 . S
C157 H160 0.961 . S
H158 C157 0.959 . S
H159 C157 0.960 . S
H160 C157 0.961 . S
O161 Co136 1.967 . S
O161 C169 1.258 . S
O162 Co137 1.941 . S
O162 C169 1.266 . S
H163 C165 0.959 . S
H164 C165 0.961 . S
C165 C155 1.510 . S
C165 H163 0.959 . S
C165 H164 0.961 . S
C165 H166 0.960 . S
H166 C165 0.960 . S
H167 N147 0.862 . S
O168 Co136 1.920 . S
O168 C141 1.289 . S
C169 O161 1.258 . S
C169 O162 1.266 . S
Co170 O173 1.970 . S
Co170 N187 1.989 . S
Co170 O195 1.967 . S
Co170 O202 1.920 . S
Co171 O174 1.966 . S
Co171 N180 2.022 . S
Co171 N188 1.993 . S
Co171 O196 1.941 . S
C172 O173 1.258 . S
C172 O174 1.263 . S
O173 Co170 1.970 . S
O173 C172 1.258 . S
O174 Co171 1.966 . S
O174 C172 1.263 . S
C175 O176 1.235 . S
C175 O202 1.289 . S
O176 C175 1.235 . S
C177 C179 1.400 . S
C177 N180 1.351 . S
C177 C182 1.501 . S
C178 C179 1.387 . S
C178 N181 1.341 . S
C179 C177 1.400 . S
C179 C178 1.387 . S
N180 Co171 2.022 . S
N180 C177 1.351 . S
N180 N181 1.365 . S
N181 C178 1.341 . S
N181 N180 1.365 . S
N181 H201 0.862 . S
C182 C177 1.501 . S
C182 H183 0.961 . S
C182 H184 0.961 . S
C182 H185 0.960 . S
H183 C182 0.961 . S
H184 C182 0.961 . S
H185 C182 0.960 . S
C186 N187 1.342 . S
C186 C190 1.401 . S
C186 C191 1.499 . S
N187 Co170 1.989 . S
N187 C186 1.342 . S
N187 N188 1.388 . S
N188 Co171 1.993 . S
N188 N187 1.388 . S
N188 C189 1.346 . S
C189 N188 1.346 . S
C189 C190 1.396 . S
C189 C199 1.510 . S
C190 C186 1.401 . S
C190 C189 1.396 . S
C191 C186 1.499 . S
C191 H192 0.959 . S
C191 H193 0.960 . S
C191 H194 0.961 . S
H192 C191 0.959 . S
H193 C191 0.960 . S
H194 C191 0.961 . S
O195 Co170 1.967 . S
O195 C203 1.258 . S
O196 Co171 1.941 . S
O196 C203 1.266 . S
H197 C199 0.959 . S
H198 C199 0.961 . S
C199 C189 1.510 . S
C199 H197 0.959 . S
C199 H198 0.961 . S
C199 H200 0.960 . S
H200 C199 0.960 . S
H201 N181 0.862 . S
O202 Co170 1.920 . S
O202 C175 1.289 . S
C203 O195 1.258 . S
C203 O196 1.266 . S
Co204 O207 1.970 . S
Co204 N221 1.989 . S
Co204 O229 1.967 . S
Co204 O236 1.920 . S
Co205 O208 1.966 . S
Co205 N214 2.022 . S
Co205 N222 1.993 . S
Co205 O230 1.941 . S
C206 O207 1.258 . S
C206 O208 1.263 . S
O207 Co204 1.970 . S
O207 C206 1.258 . S
O208 Co205 1.966 . S
O208 C206 1.263 . S
C209 O210 1.235 . S
C209 O236 1.289 . S
O210 C209 1.235 . S
C211 C213 1.400 . S
C211 N214 1.351 . S
C211 C216 1.501 . S
C212 C213 1.387 . S
C212 N215 1.341 . S
C213 C211 1.400 . S
C213 C212 1.387 . S
N214 Co205 2.022 . S
N214 C211 1.351 . S
N214 N215 1.365 . S
N215 C212 1.341 . S
N215 N214 1.365 . S
N215 H235 0.862 . S
C216 C211 1.501 . S
C216 H217 0.961 . S
C216 H218 0.961 . S
C216 H219 0.960 1_655 S
H217 C216 0.961 . S
H218 C216 0.961 . S
H219 C216 0.960 1_455 S
C220 N221 1.342 . S
C220 C224 1.401 . S
C220 C225 1.499 . S
N221 Co204 1.989 . S
N221 C220 1.342 . S
N221 N222 1.388 . S
N222 Co205 1.993 . S
N222 N221 1.388 . S
N222 C223 1.346 . S
C223 N222 1.346 . S
C223 C224 1.396 . S
C223 C233 1.510 . S
C224 C220 1.401 . S
C224 C223 1.396 . S
C225 C220 1.499 . S
C225 H226 0.959 . S
C225 H227 0.960 . S
C225 H228 0.961 . S
H226 C225 0.959 . S
H227 C225 0.960 . S
H228 C225 0.961 . S
O229 Co204 1.967 . S
O229 C237 1.258 . S
O230 Co205 1.941 . S
O230 C237 1.266 . S
H231 C233 0.959 . S
H232 C233 0.961 . S
C233 C223 1.510 . S
C233 H231 0.959 . S
C233 H232 0.961 . S
C233 H234 0.960 . S
H234 C233 0.960 . S
H235 N215 0.862 . S
O236 Co204 1.920 . S
O236 C209 1.289 . S
C237 O229 1.258 . S
C237 O230 1.266 . S
Co238 O241 1.970 . S
Co238 N255 1.989 . S
Co238 O263 1.967 . S
Co238 O270 1.920 . S
Co239 O242 1.966 . S
Co239 N248 2.022 . S
Co239 N256 1.993 . S
Co239 O264 1.941 . S
C240 O241 1.258 . S
C240 O242 1.263 . S
O241 Co238 1.970 . S
O241 C240 1.258 . S
O242 Co239 1.966 . S
O242 C240 1.263 . S
C243 O244 1.235 . S
C243 O270 1.289 . S
O244 C243 1.235 . S
C245 C247 1.400 . S
C245 N248 1.351 . S
C245 C250 1.501 . S
C246 C247 1.387 1_655 S
C246 N249 1.341 1_655 S
C247 C245 1.400 . S
C247 C246 1.387 1_455 S
N248 Co239 2.022 . S
N248 C245 1.351 . S
N248 N249 1.365 . S
N249 C246 1.341 1_455 S
N249 N248 1.365 . S
N249 H269 0.862 1_455 S
C250 C245 1.501 . S
C250 H251 0.961 . S
C250 H252 0.961 . S
C250 H253 0.960 . S
H251 C250 0.961 . S
H252 C250 0.961 . S
H253 C250 0.960 . S
C254 N255 1.342 . S
C254 C258 1.401 . S
C254 C259 1.499 . S
N255 Co238 1.989 . S
N255 C254 1.342 . S
N255 N256 1.388 . S
N256 Co239 1.993 . S
N256 N255 1.388 . S
N256 C257 1.346 . S
C257 N256 1.346 . S
C257 C258 1.396 . S
C257 C267 1.510 . S
C258 C254 1.401 . S
C258 C257 1.396 . S
C259 C254 1.499 . S
C259 H260 0.959 . S
C259 H261 0.960 . S
C259 H262 0.961 . S
H260 C259 0.959 . S
H261 C259 0.960 . S
H262 C259 0.961 . S
O263 Co238 1.967 . S
O263 C271 1.258 . S
O264 Co239 1.941 . S
O264 C271 1.266 . S
H265 C267 0.959 . S
H266 C267 0.961 . S
C267 C257 1.510 . S
C267 H265 0.959 . S
C267 H266 0.961 . S
C267 H268 0.960 . S
H268 C267 0.960 . S
H269 N249 0.862 1_655 S
O270 Co238 1.920 . S
O270 C243 1.289 . S
C271 O263 1.258 . S
C271 O264 1.266 . S
Co272 O275 1.970 . S
Co272 N289 1.989 . S
Co272 O297 1.967 . S
Co272 O304 1.920 . S
Co273 O276 1.966 . S
Co273 N282 2.022 . S
Co273 N290 1.993 . S
Co273 O298 1.941 . S
C274 O275 1.258 . S
C274 O276 1.263 . S
O275 Co272 1.970 . S
O275 C274 1.258 . S
O276 Co273 1.966 . S
O276 C274 1.263 . S
C277 O278 1.235 . S
C277 O304 1.289 . S
O278 C277 1.235 . S
C279 C281 1.400 . S
C279 N282 1.351 . S
C279 C284 1.501 . S
C280 C281 1.387 . S
C280 N283 1.341 . S
C281 C279 1.400 . S
C281 C280 1.387 . S
N282 Co273 2.022 . S
N282 C279 1.351 . S
N282 N283 1.365 . S
N283 C280 1.341 . S
N283 N282 1.365 . S
N283 H303 0.862 . S
C284 C279 1.501 . S
C284 H285 0.961 . S
C284 H286 0.961 . S
C284 H287 0.960 1_545 S
H285 C284 0.961 . S
H286 C284 0.961 . S
H287 C284 0.960 1_565 S
C288 N289 1.342 . S
C288 C292 1.401 . S
C288 C293 1.499 . S
N289 Co272 1.989 . S
N289 C288 1.342 . S
N289 N290 1.388 . S
N290 Co273 1.993 . S
N290 N289 1.388 . S
N290 C291 1.346 . S
C291 N290 1.346 . S
C291 C292 1.396 . S
C291 C301 1.510 . S
C292 C288 1.401 . S
C292 C291 1.396 . S
C293 C288 1.499 . S
C293 H294 0.959 . S
C293 H295 0.960 . S
C293 H296 0.961 . S
H294 C293 0.959 . S
H295 C293 0.960 . S
H296 C293 0.961 . S
O297 Co272 1.967 . S
O297 C305 1.258 . S
O298 Co273 1.941 . S
O298 C305 1.266 . S
H299 C301 0.959 . S
H300 C301 0.961 . S
C301 C291 1.510 . S
C301 H299 0.959 . S
C301 H300 0.961 . S
C301 H302 0.960 . S
H302 C301 0.960 . S
H303 N283 0.862 . S
O304 Co272 1.920 . S
O304 C277 1.289 . S
C305 O297 1.258 . S
C305 O298 1.266 . S
Co306 O309 1.970 . S
Co306 N323 1.989 . S
Co306 O331 1.967 . S
Co306 O338 1.920 . S
Co307 O310 1.966 . S
Co307 N316 2.022 . S
Co307 N324 1.993 . S
Co307 O332 1.941 . S
C308 O309 1.258 . S
C308 O310 1.263 . S
O309 Co306 1.970 . S
O309 C308 1.258 . S
O310 Co307 1.966 . S
O310 C308 1.263 . S
C311 O312 1.235 . S
C311 O338 1.289 . S
O312 C311 1.235 . S
C313 C315 1.400 . S
C313 N316 1.351 . S
C313 C318 1.501 . S
C314 C315 1.387 1_554 S
C314 N317 1.341 1_554 S
C315 C313 1.400 . S
C315 C314 1.387 1_556 S
N316 Co307 2.022 . S
N316 C313 1.351 . S
N316 N317 1.365 . S
N317 C314 1.341 1_556 S
N317 N316 1.365 . S
N317 H337 0.862 1_556 S
C318 C313 1.501 . S
C318 H319 0.961 . S
C318 H320 0.961 . S
C318 H321 0.960 . S
H319 C318 0.961 . S
H320 C318 0.961 . S
H321 C318 0.960 . S
C322 N323 1.342 . S
C322 C326 1.401 . S
C322 C327 1.499 . S
N323 Co306 1.989 . S
N323 C322 1.342 . S
N323 N324 1.388 . S
N324 Co307 1.993 . S
N324 N323 1.388 . S
N324 C325 1.346 . S
C325 N324 1.346 . S
C325 C326 1.396 . S
C325 C335 1.510 . S
C326 C322 1.401 . S
C326 C325 1.396 . S
C327 C322 1.499 . S
C327 H328 0.959 . S
C327 H329 0.960 . S
C327 H330 0.961 . S
H328 C327 0.959 . S
H329 C327 0.960 . S
H330 C327 0.961 . S
O331 Co306 1.967 . S
O331 C339 1.258 . S
O332 Co307 1.941 . S
O332 C339 1.266 . S
H333 C335 0.959 . S
H334 C335 0.961 . S
C335 C325 1.510 . S
C335 H333 0.959 . S
C335 H334 0.961 . S
C335 H336 0.960 . S
H336 C335 0.960 . S
H337 N317 0.862 1_554 S
O338 Co306 1.920 . S
O338 C311 1.289 . S
C339 O331 1.258 . S
C339 O332 1.266 . S
Co340 O343 1.970 . S
Co340 N357 1.989 . S
Co340 O365 1.967 . S
Co340 O372 1.920 . S
Co341 O344 1.966 . S
Co341 N350 2.022 . S
Co341 N358 1.993 . S
Co341 O366 1.941 . S
C342 O343 1.258 . S
C342 O344 1.263 . S
O343 Co340 1.970 . S
O343 C342 1.258 . S
O344 Co341 1.966 . S
O344 C342 1.263 . S
C345 O346 1.235 . S
C345 O372 1.289 . S
O346 C345 1.235 . S
C347 C349 1.400 . S
C347 N350 1.351 . S
C347 C352 1.501 . S
C348 C349 1.387 . S
C348 N351 1.341 . S
C349 C347 1.400 . S
C349 C348 1.387 . S
N350 Co341 2.022 . S
N350 C347 1.351 . S
N350 N351 1.365 . S
N351 C348 1.341 . S
N351 N350 1.365 . S
N351 H371 0.862 . S
C352 C347 1.501 . S
C352 H353 0.961 . S
C352 H354 0.961 . S
C352 H355 0.960 1_565 S
H353 C352 0.961 . S
H354 C352 0.961 . S
H355 C352 0.960 1_545 S
C356 N357 1.342 . S
C356 C360 1.401 . S
C356 C361 1.499 . S
N357 Co340 1.989 . S
N357 C356 1.342 . S
N357 N358 1.388 . S
N358 Co341 1.993 . S
N358 N357 1.388 . S
N358 C359 1.346 . S
C359 N358 1.346 . S
C359 C360 1.396 . S
C359 C369 1.510 . S
C360 C356 1.401 . S
C360 C359 1.396 . S
C361 C356 1.499 . S
C361 H362 0.959 . S
C361 H363 0.960 . S
C361 H364 0.961 . S
H362 C361 0.959 . S
H363 C361 0.960 . S
H364 C361 0.961 . S
O365 Co340 1.967 . S
O365 C373 1.258 . S
O366 Co341 1.941 . S
O366 C373 1.266 . S
H367 C369 0.959 . S
H368 C369 0.961 . S
C369 C359 1.510 . S
C369 H367 0.959 . S
C369 H368 0.961 . S
C369 H370 0.960 . S
H370 C369 0.960 . S
H371 N351 0.862 . S
O372 Co340 1.920 . S
O372 C345 1.289 . S
C373 O365 1.258 . S
C373 O366 1.266 . S
Co374 O377 1.970 . S
Co374 N391 1.989 . S
Co374 O399 1.967 . S
Co374 O406 1.920 . S
Co375 O378 1.966 . S
Co375 N384 2.022 . S
Co375 N392 1.993 . S
Co375 O400 1.941 . S
C376 O377 1.258 . S
C376 O378 1.263 . S
O377 Co374 1.970 . S
O377 C376 1.258 . S
O378 Co375 1.966 . S
O378 C376 1.263 . S
C379 O380 1.235 . S
C379 O406 1.289 . S
O380 C379 1.235 . S
C381 C383 1.400 . S
C381 N384 1.351 . S
C381 C386 1.501 . S
C382 C383 1.387 . S
C382 N385 1.341 . S
C383 C381 1.400 . S
C383 C382 1.387 . S
N384 Co375 2.022 . S
N384 C381 1.351 . S
N384 N385 1.365 . S
N385 C382 1.341 . S
N385 N384 1.365 . S
N385 H405 0.862 . S
C386 C381 1.501 . S
C386 H387 0.961 . S
C386 H388 0.961 . S
C386 H389 0.960 . S
H387 C386 0.961 . S
H388 C386 0.961 . S
H389 C386 0.960 . S
C390 N391 1.342 . S
C390 C394 1.401 . S
C390 C395 1.499 . S
N391 Co374 1.989 . S
N391 C390 1.342 . S
N391 N392 1.388 . S
N392 Co375 1.993 . S
N392 N391 1.388 . S
N392 C393 1.346 . S
C393 N392 1.346 . S
C393 C394 1.396 . S
C393 C403 1.510 . S
C394 C390 1.401 . S
C394 C393 1.396 . S
C395 C390 1.499 . S
C395 H396 0.959 . S
C395 H397 0.960 . S
C395 H398 0.961 . S
H396 C395 0.959 . S
H397 C395 0.960 . S
H398 C395 0.961 . S
O399 Co374 1.967 . S
O399 C407 1.258 . S
O400 Co375 1.941 . S
O400 C407 1.266 . S
H401 C403 0.959 . S
H402 C403 0.961 . S
C403 C393 1.510 . S
C403 H401 0.959 . S
C403 H402 0.961 . S
C403 H404 0.960 . S
H404 C403 0.960 . S
H405 N385 0.862 . S
O406 Co374 1.920 . S
O406 C379 1.289 . S
C407 O399 1.258 . S
C407 O400 1.266 . S
Co408 O411 1.970 . S
Co408 N425 1.989 . S
Co408 O433 1.967 . S
Co408 O440 1.920 . S
Co409 O412 1.966 . S
Co409 N418 2.022 . S
Co409 N426 1.993 . S
Co409 O434 1.941 . S
C410 O411 1.258 . S
C410 O412 1.263 . S
O411 Co408 1.970 . S
O411 C410 1.258 . S
O412 Co409 1.966 . S
O412 C410 1.263 . S
C413 O414 1.235 . S
C413 O440 1.289 . S
O414 C413 1.235 . S
C415 C417 1.400 . S
C415 N418 1.351 . S
C415 C420 1.501 . S
C416 C417 1.387 . S
C416 N419 1.341 . S
C417 C415 1.400 . S
C417 C416 1.387 . S
N418 Co409 2.022 . S
N418 C415 1.351 . S
N418 N419 1.365 . S
N419 C416 1.341 . S
N419 N418 1.365 . S
N419 H439 0.862 . S
C420 C415 1.501 . S
C420 H421 0.961 . S
C420 H422 0.961 . S
C420 H423 0.960 . S
H421 C420 0.961 . S
H422 C420 0.961 . S
H423 C420 0.960 . S
C424 N425 1.342 . S
C424 C428 1.401 . S
C424 C429 1.499 . S
N425 Co408 1.989 . S
N425 C424 1.342 . S
N425 N426 1.388 . S
N426 Co409 1.993 . S
N426 N425 1.388 . S
N426 C427 1.346 . S
C427 N426 1.346 . S
C427 C428 1.396 . S
C427 C437 1.510 . S
C428 C424 1.401 . S
C428 C427 1.396 . S
C429 C424 1.499 . S
C429 H430 0.959 . S
C429 H431 0.960 . S
C429 H432 0.961 . S
H430 C429 0.959 . S
H431 C429 0.960 . S
H432 C429 0.961 . S
O433 Co408 1.967 . S
O433 C441 1.258 . S
O434 Co409 1.941 . S
O434 C441 1.266 . S
H435 C437 0.959 . S
H436 C437 0.961 . S
C437 C427 1.510 . S
C437 H435 0.959 . S
C437 H436 0.961 . S
C437 H438 0.960 . S
H438 C437 0.960 . S
H439 N419 0.862 . S
O440 Co408 1.920 . S
O440 C413 1.289 . S
C441 O433 1.258 . S
C441 O434 1.266 . S
Co442 O445 1.970 . S
Co442 N459 1.989 . S
Co442 O467 1.967 . S
Co442 O474 1.920 . S
Co443 O446 1.966 . S
Co443 N452 2.022 . S
Co443 N460 1.993 . S
Co443 O468 1.941 . S
C444 O445 1.258 . S
C444 O446 1.263 . S
O445 Co442 1.970 . S
O445 C444 1.258 . S
O446 Co443 1.966 . S
O446 C444 1.263 . S
C447 O448 1.235 . S
C447 O474 1.289 . S
O448 C447 1.235 . S
C449 C451 1.400 . S
C449 N452 1.351 . S
C449 C454 1.501 . S
C450 C451 1.387 . S
C450 N453 1.341 . S
C451 C449 1.400 . S
C451 C450 1.387 . S
N452 Co443 2.022 . S
N452 C449 1.351 . S
N452 N453 1.365 . S
N453 C450 1.341 . S
N453 N452 1.365 . S
N453 H473 0.862 . S
C454 C449 1.501 . S
C454 H455 0.961 . S
C454 H456 0.961 . S
C454 H457 0.960 . S
H455 C454 0.961 . S
H456 C454 0.961 . S
H457 C454 0.960 . S
C458 N459 1.342 . S
C458 C462 1.401 . S
C458 C463 1.499 . S
N459 Co442 1.989 . S
N459 C458 1.342 . S
N459 N460 1.388 . S
N460 Co443 1.993 . S
N460 N459 1.388 . S
N460 C461 1.346 . S
C461 N460 1.346 . S
C461 C462 1.396 . S
C461 C471 1.510 . S
C462 C458 1.401 . S
C462 C461 1.396 . S
C463 C458 1.499 . S
C463 H464 0.959 . S
C463 H465 0.960 . S
C463 H466 0.961 . S
H464 C463 0.959 . S
H465 C463 0.960 . S
H466 C463 0.961 . S
O467 Co442 1.967 . S
O467 C475 1.258 . S
O468 Co443 1.941 . S
O468 C475 1.266 . S
H469 C471 0.959 . S
H470 C471 0.961 . S
C471 C461 1.510 . S
C471 H469 0.959 . S
C471 H470 0.961 . S
C471 H472 0.960 . S
H472 C471 0.960 . S
H473 N453 0.862 . S
O474 Co442 1.920 . S
O474 C447 1.289 . S
C475 O467 1.258 . S
C475 O468 1.266 . S
Co476 O479 1.970 . S
Co476 N493 1.989 . S
Co476 O501 1.967 . S
Co476 O508 1.920 . S
Co477 O480 1.966 . S
Co477 N486 2.022 . S
Co477 N494 1.993 . S
Co477 O502 1.941 . S
C478 O479 1.258 . S
C478 O480 1.263 . S
O479 Co476 1.970 . S
O479 C478 1.258 . S
O480 Co477 1.966 . S
O480 C478 1.263 . S
C481 O482 1.235 . S
C481 O508 1.289 . S
O482 C481 1.235 . S
C483 C485 1.400 . S
C483 N486 1.351 . S
C483 C488 1.501 . S
C484 C485 1.387 . S
C484 N487 1.341 . S
C485 C483 1.400 . S
C485 C484 1.387 . S
N486 Co477 2.022 . S
N486 C483 1.351 . S
N486 N487 1.365 . S
N487 C484 1.341 . S
N487 N486 1.365 . S
N487 H507 0.862 . S
C488 C483 1.501 . S
C488 H489 0.961 . S
C488 H490 0.961 . S
C488 H491 0.960 . S
H489 C488 0.961 . S
H490 C488 0.961 . S
H491 C488 0.960 . S
C492 N493 1.342 . S
C492 C496 1.401 . S
C492 C497 1.499 . S
N493 Co476 1.989 . S
N493 C492 1.342 . S
N493 N494 1.388 . S
N494 Co477 1.993 . S
N494 N493 1.388 . S
N494 C495 1.346 . S
C495 N494 1.346 . S
C495 C496 1.396 . S
C495 C505 1.510 . S
C496 C492 1.401 . S
C496 C495 1.396 . S
C497 C492 1.499 . S
C497 H498 0.959 . S
C497 H499 0.960 . S
C497 H500 0.961 . S
H498 C497 0.959 . S
H499 C497 0.960 . S
H500 C497 0.961 . S
O501 Co476 1.967 . S
O501 C509 1.258 . S
O502 Co477 1.941 . S
O502 C509 1.266 . S
H503 C505 0.959 . S
H504 C505 0.961 . S
C505 C495 1.510 . S
C505 H503 0.959 . S
C505 H504 0.961 . S
C505 H506 0.960 . S
H506 C505 0.960 . S
H507 N487 0.862 . S
O508 Co476 1.920 . S
O508 C481 1.289 . S
C509 O501 1.258 . S
C509 O502 1.266 . S
Co510 O513 1.970 . S
Co510 N527 1.989 . S
Co510 O535 1.967 . S
Co510 O542 1.920 . S
Co511 O514 1.966 . S
Co511 N520 2.022 . S
Co511 N528 1.993 . S
Co511 O536 1.941 . S
C512 O513 1.258 . S
C512 O514 1.263 . S
O513 Co510 1.970 . S
O513 C512 1.258 . S
O514 Co511 1.966 . S
O514 C512 1.263 . S
C515 O516 1.235 . S
C515 O542 1.289 . S
O516 C515 1.235 . S
C517 C519 1.400 . S
C517 N520 1.351 . S
C517 C522 1.501 . S
C518 C519 1.387 1_556 S
C518 N521 1.341 1_556 S
C519 C517 1.400 . S
C519 C518 1.387 1_554 S
N520 Co511 2.022 . S
N520 C517 1.351 . S
N520 N521 1.365 . S
N521 C518 1.341 1_554 S
N521 N520 1.365 . S
N521 H541 0.862 1_554 S
C522 C517 1.501 . S
C522 H523 0.961 . S
C522 H524 0.961 . S
C522 H525 0.960 . S
H523 C522 0.961 . S
H524 C522 0.961 . S
H525 C522 0.960 . S
C526 N527 1.342 . S
C526 C530 1.401 . S
C526 C531 1.499 . S
N527 Co510 1.989 . S
N527 C526 1.342 . S
N527 N528 1.388 . S
N528 Co511 1.993 . S
N528 N527 1.388 . S
N528 C529 1.346 . S
C529 N528 1.346 . S
C529 C530 1.396 . S
C529 C539 1.510 . S
C530 C526 1.401 . S
C530 C529 1.396 . S
C531 C526 1.499 . S
C531 H532 0.959 . S
C531 H533 0.960 . S
C531 H534 0.961 . S
H532 C531 0.959 . S
H533 C531 0.960 . S
H534 C531 0.961 . S
O535 Co510 1.967 . S
O535 C543 1.258 . S
O536 Co511 1.941 . S
O536 C543 1.266 . S
H537 C539 0.959 . S
H538 C539 0.961 . S
C539 C529 1.510 . S
C539 H537 0.959 . S
C539 H538 0.961 . S
C539 H540 0.960 . S
H540 C539 0.960 . S
H541 N521 0.862 1_556 S
O542 Co510 1.920 . S
O542 C515 1.289 . S
C543 O535 1.258 . S
C543 O536 1.266 . S
Co544 O547 1.970 . S
Co544 N561 1.989 . S
Co544 O569 1.967 . S
Co544 O576 1.920 . S
Co545 O548 1.966 . S
Co545 N554 2.022 . S
Co545 N562 1.993 . S
Co545 O570 1.941 . S
C546 O547 1.258 . S
C546 O548 1.263 . S
O547 Co544 1.970 . S
O547 C546 1.258 . S
O548 Co545 1.966 . S
O548 C546 1.263 . S
C549 O550 1.235 . S
C549 O576 1.289 . S
O550 C549 1.235 . S
C551 C553 1.400 . S
C551 N554 1.351 . S
C551 C556 1.501 . S
C552 C553 1.387 . S
C552 N555 1.341 . S
C553 C551 1.400 . S
C553 C552 1.387 . S
N554 Co545 2.022 . S
N554 C551 1.351 . S
N554 N555 1.365 . S
N555 C552 1.341 . S
N555 N554 1.365 . S
N555 H575 0.862 . S
C556 C551 1.501 . S
C556 H557 0.961 . S
C556 H558 0.961 . S
C556 H559 0.960 1_554 S
H557 C556 0.961 . S
H558 C556 0.961 . S
H559 C556 0.960 1_556 S
C560 N561 1.342 . S
C560 C564 1.401 . S
C560 C565 1.499 . S
N561 Co544 1.989 . S
N561 C560 1.342 . S
N561 N562 1.388 . S
N562 Co545 1.993 . S
N562 N561 1.388 . S
N562 C563 1.346 . S
C563 N562 1.346 . S
C563 C564 1.396 . S
C563 C573 1.510 . S
C564 C560 1.401 . S
C564 C563 1.396 . S
C565 C560 1.499 . S
C565 H566 0.959 . S
C565 H567 0.960 . S
C565 H568 0.961 . S
H566 C565 0.959 . S
H567 C565 0.960 . S
H568 C565 0.961 . S
O569 Co544 1.967 . S
O569 C577 1.258 . S
O570 Co545 1.941 . S
O570 C577 1.266 . S
H571 C573 0.959 . S
H572 C573 0.961 . S
C573 C563 1.510 . S
C573 H571 0.959 . S
C573 H572 0.961 . S
C573 H574 0.960 . S
H574 C573 0.960 . S
H575 N555 0.862 . S
O576 Co544 1.920 . S
O576 C549 1.289 . S
C577 O569 1.258 . S
C577 O570 1.266 . S
Co578 O581 1.970 . S
Co578 N595 1.989 . S
Co578 O603 1.967 . S
Co578 O610 1.920 . S
Co579 O582 1.966 . S
Co579 N588 2.022 . S
Co579 N596 1.993 . S
Co579 O604 1.941 . S
C580 O581 1.258 . S
C580 O582 1.263 . S
O581 Co578 1.970 . S
O581 C580 1.258 . S
O582 Co579 1.966 . S
O582 C580 1.263 . S
C583 O584 1.235 . S
C583 O610 1.289 . S
O584 C583 1.235 . S
C585 C587 1.400 . S
C585 N588 1.351 . S
C585 C590 1.501 . S
C586 C587 1.387 . S
C586 N589 1.341 . S
C587 C585 1.400 . S
C587 C586 1.387 . S
N588 Co579 2.022 . S
N588 C585 1.351 . S
N588 N589 1.365 . S
N589 C586 1.341 . S
N589 N588 1.365 . S
N589 H609 0.862 . S
C590 C585 1.501 . S
C590 H591 0.961 . S
C590 H592 0.961 . S
C590 H593 0.960 1_556 S
H591 C590 0.961 . S
H592 C590 0.961 . S
H593 C590 0.960 1_554 S
C594 N595 1.342 . S
C594 C598 1.401 . S
C594 C599 1.499 . S
N595 Co578 1.989 . S
N595 C594 1.342 . S
N595 N596 1.388 . S
N596 Co579 1.993 . S
N596 N595 1.388 . S
N596 C597 1.346 . S
C597 N596 1.346 . S
C597 C598 1.396 . S
C597 C607 1.510 . S
C598 C594 1.401 . S
C598 C597 1.396 . S
C599 C594 1.499 . S
C599 H600 0.959 . S
C599 H601 0.960 . S
C599 H602 0.961 . S
H600 C599 0.959 . S
H601 C599 0.960 . S
H602 C599 0.961 . S
O603 Co578 1.967 . S
O603 C611 1.258 . S
O604 Co579 1.941 . S
O604 C611 1.266 . S
H605 C607 0.959 . S
H606 C607 0.961 . S
C607 C597 1.510 . S
C607 H605 0.959 . S
C607 H606 0.961 . S
C607 H608 0.960 . S
H608 C607 0.960 . S
H609 N589 0.862 . S
O610 Co578 1.920 . S
O610 C583 1.289 . S
C611 O603 1.258 . S
C611 O604 1.266 . S
Co612 O615 1.970 . S
Co612 N629 1.989 . S
Co612 O637 1.967 . S
Co612 O644 1.920 . S
Co613 O616 1.966 . S
Co613 N622 2.022 . S
Co613 N630 1.993 . S
Co613 O638 1.941 . S
C614 O615 1.258 . S
C614 O616 1.263 . S
O615 Co612 1.970 . S
O615 C614 1.258 . S
O616 Co613 1.966 . S
O616 C614 1.263 . S
C617 O618 1.235 . S
C617 O644 1.289 . S
O618 C617 1.235 . S
C619 C621 1.400 . S
C619 N622 1.351 . S
C619 C624 1.501 . S
C620 C621 1.387 1_545 S
C620 N623 1.341 1_545 S
C621 C619 1.400 . S
C621 C620 1.387 1_565 S
N622 Co613 2.022 . S
N622 C619 1.351 . S
N622 N623 1.365 . S
N623 C620 1.341 1_565 S
N623 N622 1.365 . S
N623 H643 0.862 1_565 S
C624 C619 1.501 . S
C624 H625 0.961 . S
C624 H626 0.961 . S
C624 H627 0.960 . S
H625 C624 0.961 . S
H626 C624 0.961 . S
H627 C624 0.960 . S
C628 N629 1.342 . S
C628 C632 1.401 . S
C628 C633 1.499 . S
N629 Co612 1.989 . S
N629 C628 1.342 . S
N629 N630 1.388 . S
N630 Co613 1.993 . S
N630 N629 1.388 . S
N630 C631 1.346 . S
C631 N630 1.346 . S
C631 C632 1.396 . S
C631 C641 1.510 . S
C632 C628 1.401 . S
C632 C631 1.396 . S
C633 C628 1.499 . S
C633 H634 0.959 . S
C633 H635 0.960 . S
C633 H636 0.961 . S
H634 C633 0.959 . S
H635 C633 0.960 . S
H636 C633 0.961 . S
O637 Co612 1.967 . S
O637 C645 1.258 . S
O638 Co613 1.941 . S
O638 C645 1.266 . S
H639 C641 0.959 . S
H640 C641 0.961 . S
C641 C631 1.510 . S
C641 H639 0.959 . S
C641 H640 0.961 . S
C641 H642 0.960 . S
H642 C641 0.960 . S
H643 N623 0.862 1_545 S
O644 Co612 1.920 . S
O644 C617 1.289 . S
C645 O637 1.258 . S
C645 O638 1.266 . S
Co646 O649 1.970 . S
Co646 N663 1.989 . S
Co646 O671 1.967 . S
Co646 O678 1.920 . S
Co647 O650 1.966 . S
Co647 N656 2.022 . S
Co647 N664 1.993 . S
Co647 O672 1.941 . S
C648 O649 1.258 . S
C648 O650 1.263 . S
O649 Co646 1.970 . S
O649 C648 1.258 . S
O650 Co647 1.966 . S
O650 C648 1.263 . S
C651 O652 1.235 . S
C651 O678 1.289 . S
O652 C651 1.235 . S
C653 C655 1.400 . S
C653 N656 1.351 . S
C653 C658 1.501 . S
C654 C655 1.387 . S
C654 N657 1.341 . S
C655 C653 1.400 . S
C655 C654 1.387 . S
N656 Co647 2.022 . S
N656 C653 1.351 . S
N656 N657 1.365 . S
N657 C654 1.341 . S
N657 N656 1.365 . S
N657 H677 0.862 . S
C658 C653 1.501 . S
C658 H659 0.961 . S
C658 H660 0.961 . S
C658 H661 0.960 . S
H659 C658 0.961 . S
H660 C658 0.961 . S
H661 C658 0.960 . S
C662 N663 1.342 . S
C662 C666 1.401 . S
C662 C667 1.499 . S
N663 Co646 1.989 . S
N663 C662 1.342 . S
N663 N664 1.388 . S
N664 Co647 1.993 . S
N664 N663 1.388 . S
N664 C665 1.346 . S
C665 N664 1.346 . S
C665 C666 1.396 . S
C665 C675 1.510 . S
C666 C662 1.401 . S
C666 C665 1.396 . S
C667 C662 1.499 . S
C667 H668 0.959 . S
C667 H669 0.960 . S
C667 H670 0.961 . S
H668 C667 0.959 . S
H669 C667 0.960 . S
H670 C667 0.961 . S
O671 Co646 1.967 . S
O671 C679 1.258 . S
O672 Co647 1.941 . S
O672 C679 1.266 . S
H673 C675 0.959 . S
H674 C675 0.961 . S
C675 C665 1.510 . S
C675 H673 0.959 . S
C675 H674 0.961 . S
C675 H676 0.960 . S
H676 C675 0.960 . S
H677 N657 0.862 . S
O678 Co646 1.920 . S
O678 C651 1.289 . S
C679 O671 1.258 . S
C679 O672 1.266 . S
Co680 O683 1.970 . S
Co680 N697 1.989 . S
Co680 O705 1.967 . S
Co680 O712 1.920 . S
Co681 O684 1.966 . S
Co681 N690 2.022 . S
Co681 N698 1.993 . S
Co681 O706 1.941 . S
C682 O683 1.258 . S
C682 O684 1.263 . S
O683 Co680 1.970 . S
O683 C682 1.258 . S
O684 Co681 1.966 . S
O684 C682 1.263 . S
C685 O686 1.235 . S
C685 O712 1.289 . S
O686 C685 1.235 . S
C687 C689 1.400 . S
C687 N690 1.351 . S
C687 C692 1.501 . S
C688 C689 1.387 1_565 S
C688 N691 1.341 1_565 S
C689 C687 1.400 . S
C689 C688 1.387 1_545 S
N690 Co681 2.022 . S
N690 C687 1.351 . S
N690 N691 1.365 . S
N691 C688 1.341 1_545 S
N691 N690 1.365 . S
N691 H711 0.862 1_545 S
C692 C687 1.501 . S
C692 H693 0.961 . S
C692 H694 0.961 . S
C692 H695 0.960 . S
H693 C692 0.961 . S
H694 C692 0.961 . S
H695 C692 0.960 . S
C696 N697 1.342 . S
C696 C700 1.401 . S
C696 C701 1.499 . S
N697 Co680 1.989 . S
N697 C696 1.342 . S
N697 N698 1.388 . S
N698 Co681 1.993 . S
N698 N697 1.388 . S
N698 C699 1.346 . S
C699 N698 1.346 . S
C699 C700 1.396 . S
C699 C709 1.510 . S
C700 C696 1.401 . S
C700 C699 1.396 . S
C701 C696 1.499 . S
C701 H702 0.959 . S
C701 H703 0.960 . S
C701 H704 0.961 . S
H702 C701 0.959 . S
H703 C701 0.960 . S
H704 C701 0.961 . S
O705 Co680 1.967 . S
O705 C713 1.258 . S
O706 Co681 1.941 . S
O706 C713 1.266 . S
H707 C709 0.959 . S
H708 C709 0.961 . S
C709 C699 1.510 . S
C709 H707 0.959 . S
C709 H708 0.961 . S
C709 H710 0.960 . S
H710 C709 0.960 . S
H711 N691 0.862 1_565 S
O712 Co680 1.920 . S
O712 C685 1.289 . S
C713 O705 1.258 . S
C713 O706 1.266 . S
Co714 O717 1.970 . S
Co714 N731 1.989 . S
Co714 O739 1.967 . S
Co714 O746 1.920 . S
Co715 O718 1.966 . S
Co715 N724 2.022 . S
Co715 N732 1.993 . S
Co715 O740 1.941 . S
C716 O717 1.258 . S
C716 O718 1.263 . S
O717 Co714 1.970 . S
O717 C716 1.258 . S
O718 Co715 1.966 . S
O718 C716 1.263 . S
C719 O720 1.235 . S
C719 O746 1.289 . S
O720 C719 1.235 . S
C721 C723 1.400 . S
C721 N724 1.351 . S
C721 C726 1.501 . S
C722 C723 1.387 . S
C722 N725 1.341 . S
C723 C721 1.400 . S
C723 C722 1.387 . S
N724 Co715 2.022 . S
N724 C721 1.351 . S
N724 N725 1.365 . S
N725 C722 1.341 . S
N725 N724 1.365 . S
N725 H745 0.862 . S
C726 C721 1.501 . S
C726 H727 0.961 . S
C726 H728 0.961 . S
C726 H729 0.960 . S
H727 C726 0.961 . S
H728 C726 0.961 . S
H729 C726 0.960 . S
C730 N731 1.342 . S
C730 C734 1.401 . S
C730 C735 1.499 . S
N731 Co714 1.989 . S
N731 C730 1.342 . S
N731 N732 1.388 . S
N732 Co715 1.993 . S
N732 N731 1.388 . S
N732 C733 1.346 . S
C733 N732 1.346 . S
C733 C734 1.396 . S
C733 C743 1.510 . S
C734 C730 1.401 . S
C734 C733 1.396 . S
C735 C730 1.499 . S
C735 H736 0.959 . S
C735 H737 0.960 . S
C735 H738 0.961 . S
H736 C735 0.959 . S
H737 C735 0.960 . S
H738 C735 0.961 . S
O739 Co714 1.967 . S
O739 C747 1.258 . S
O740 Co715 1.941 . S
O740 C747 1.266 . S
H741 C743 0.959 . S
H742 C743 0.961 . S
C743 C733 1.510 . S
C743 H741 0.959 . S
C743 H742 0.961 . S
C743 H744 0.960 . S
H744 C743 0.960 . S
H745 N725 0.862 . S
O746 Co714 1.920 . S
O746 C719 1.289 . S
C747 O739 1.258 . S
C747 O740 1.266 . S
Co748 O751 1.970 . S
Co748 N765 1.989 . S
Co748 O773 1.967 . S
Co748 O780 1.920 . S
Co749 O752 1.966 . S
Co749 N758 2.022 . S
Co749 N766 1.993 . S
Co749 O774 1.941 . S
C750 O751 1.258 . S
C750 O752 1.263 . S
O751 Co748 1.970 . S
O751 C750 1.258 . S
O752 Co749 1.966 . S
O752 C750 1.263 . S
C753 O754 1.235 . S
C753 O780 1.289 . S
O754 C753 1.235 . S
C755 C757 1.400 . S
C755 N758 1.351 . S
C755 C760 1.501 . S
C756 C757 1.387 . S
C756 N759 1.341 . S
C757 C755 1.400 . S
C757 C756 1.387 . S
N758 Co749 2.022 . S
N758 C755 1.351 . S
N758 N759 1.365 . S
N759 C756 1.341 . S
N759 N758 1.365 . S
N759 H779 0.862 . S
C760 C755 1.501 . S
C760 H761 0.961 . S
C760 H762 0.961 . S
C760 H763 0.960 . S
H761 C760 0.961 . S
H762 C760 0.961 . S
H763 C760 0.960 . S
C764 N765 1.342 . S
C764 C768 1.401 . S
C764 C769 1.499 . S
N765 Co748 1.989 . S
N765 C764 1.342 . S
N765 N766 1.388 . S
N766 Co749 1.993 . S
N766 N765 1.388 . S
N766 C767 1.346 . S
C767 N766 1.346 . S
C767 C768 1.396 . S
C767 C777 1.510 . S
C768 C764 1.401 . S
C768 C767 1.396 . S
C769 C764 1.499 . S
C769 H770 0.959 . S
C769 H771 0.960 . S
C769 H772 0.961 . S
H770 C769 0.959 . S
H771 C769 0.960 . S
H772 C769 0.961 . S
O773 Co748 1.967 . S
O773 C781 1.258 . S
O774 Co749 1.941 . S
O774 C781 1.266 . S
H775 C777 0.959 . S
H776 C777 0.961 . S
C777 C767 1.510 . S
C777 H775 0.959 . S
C777 H776 0.961 . S
C777 H778 0.960 . S
H778 C777 0.960 . S
H779 N759 0.862 . S
O780 Co748 1.920 . S
O780 C753 1.289 . S
C781 O773 1.258 . S
C781 O774 1.266 . S
Co782 O785 1.970 . S
Co782 N799 1.989 . S
Co782 O807 1.967 . S
Co782 O814 1.920 . S
Co783 O786 1.966 . S
Co783 N792 2.022 . S
Co783 N800 1.993 . S
Co783 O808 1.941 . S
C784 O785 1.258 . S
C784 O786 1.263 . S
O785 Co782 1.970 . S
O785 C784 1.258 . S
O786 Co783 1.966 . S
O786 C784 1.263 . S
C787 O788 1.235 . S
C787 O814 1.289 . S
O788 C787 1.235 . S
C789 C791 1.400 . S
C789 N792 1.351 . S
C789 C794 1.501 . S
C790 C791 1.387 . S
C790 N793 1.341 . S
C791 C789 1.400 . S
C791 C790 1.387 . S
N792 Co783 2.022 . S
N792 C789 1.351 . S
N792 N793 1.365 . S
N793 C790 1.341 . S
N793 N792 1.365 . S
N793 H813 0.862 . S
C794 C789 1.501 . S
C794 H795 0.961 . S
C794 H796 0.961 . S
C794 H797 0.960 . S
H795 C794 0.961 . S
H796 C794 0.961 . S
H797 C794 0.960 . S
C798 N799 1.342 . S
C798 C802 1.401 . S
C798 C803 1.499 . S
N799 Co782 1.989 . S
N799 C798 1.342 . S
N799 N800 1.388 . S
N800 Co783 1.993 . S
N800 N799 1.388 . S
N800 C801 1.346 . S
C801 N800 1.346 . S
C801 C802 1.396 . S
C801 C811 1.510 . S
C802 C798 1.401 . S
C802 C801 1.396 . S
C803 C798 1.499 . S
C803 H804 0.959 . S
C803 H805 0.960 . S
C803 H806 0.961 . S
H804 C803 0.959 . S
H805 C803 0.960 . S
H806 C803 0.961 . S
O807 Co782 1.967 . S
O807 C815 1.258 . S
O808 Co783 1.941 . S
O808 C815 1.266 . S
H809 C811 0.959 . S
H810 C811 0.961 . S
C811 C801 1.510 . S
C811 H809 0.959 . S
C811 H810 0.961 . S
C811 H812 0.960 . S
H812 C811 0.960 . S
H813 N793 0.862 . S
O814 Co782 1.920 . S
O814 C787 1.289 . S
C815 O807 1.258 . S
C815 O808 1.266 . S
C816 C817 1.391 . S
C816 C818 1.394 . S
C816 H832 0.931 . S
C817 C816 1.391 . S
C817 C821 1.376 . S
C818 C816 1.394 . S
C818 C819 1.369 . S
C818 C822 1.531 . S
C819 C818 1.369 . S
C819 C820 1.410 . S
C819 C827 1.503 . S
C820 C819 1.410 . S
C820 C821 1.392 . S
C820 C823 1.511 . S
C821 C817 1.376 . S
C821 C820 1.392 . S
C821 H833 0.929 . S
C822 C818 1.531 . S
C822 H834 0.960 . S
C822 H835 0.962 . S
C822 H836 0.960 . S
C823 C820 1.511 . S
C823 H837 0.961 . S
C823 H838 0.961 . S
C823 H839 0.961 . S
C824 C825 1.370 . S
C824 C826 1.363 . S
C824 H840 0.931 . S
C825 C824 1.370 . S
C825 C829 1.408 . S
C826 C824 1.363 . S
C826 C827 1.370 . S
C826 C830 1.524 . S
C827 C819 1.503 . S
C827 C826 1.370 . S
C827 C828 1.403 . S
C828 C827 1.403 . S
C828 C829 1.404 . S
C828 C831 1.539 . S
C829 C825 1.408 . S
C829 C828 1.404 . S
C829 H841 0.930 . S
C830 C826 1.524 . S
C830 H842 0.956 . S
C830 H843 0.961 . S
C830 H844 0.961 . S
C831 C828 1.539 . S
C831 H845 0.958 . S
C831 H846 0.961 . S
C831 H847 0.960 . S
H832 C816 0.931 . S
H833 C821 0.929 . S
H834 C822 0.960 . S
H835 C822 0.962 . S
H836 C822 0.960 . S
H837 C823 0.961 . S
H838 C823 0.961 . S
H839 C823 0.961 . S
H840 C824 0.931 . S
H841 C829 0.930 . S
H842 C830 0.956 . S
H843 C830 0.961 . S
H844 C830 0.961 . S
H845 C831 0.958 . S
H846 C831 0.961 . S
H847 C831 0.960 . S
C848 C849 1.391 . S
C848 C850 1.394 . S
C848 H864 0.931 . S
C849 C848 1.391 . S
C849 C853 1.376 . S
C850 C848 1.394 . S
C850 C851 1.369 . S
C850 C854 1.531 . S
C851 C850 1.369 . S
C851 C852 1.410 . S
C851 C859 1.503 . S
C852 C851 1.410 . S
C852 C853 1.392 . S
C852 C855 1.511 . S
C853 C849 1.376 . S
C853 C852 1.392 . S
C853 H865 0.929 . S
C854 C850 1.531 . S
C854 H866 0.960 . S
C854 H867 0.962 . S
C854 H868 0.960 . S
C855 C852 1.511 . S
C855 H869 0.961 . S
C855 H870 0.961 . S
C855 H871 0.961 . S
C856 C857 1.370 . S
C856 C858 1.363 . S
C856 H872 0.931 . S
C857 C856 1.370 . S
C857 C861 1.408 . S
C858 C856 1.363 . S
C858 C859 1.370 . S
C858 C862 1.524 . S
C859 C851 1.503 . S
C859 C858 1.370 . S
C859 C860 1.403 . S
C860 C859 1.403 . S
C860 C861 1.404 . S
C860 C863 1.539 . S
C861 C857 1.408 . S
C861 C860 1.404 . S
C861 H873 0.930 . S
C862 C858 1.524 . S
C862 H874 0.956 . S
C862 H875 0.961 . S
C862 H876 0.961 . S
C863 C860 1.539 . S
C863 H877 0.958 . S
C863 H878 0.961 . S
C863 H879 0.960 . S
H864 C848 0.931 . S
H865 C853 0.929 . S
H866 C854 0.960 . S
H867 C854 0.962 . S
H868 C854 0.960 . S
H869 C855 0.961 . S
H870 C855 0.961 . S
H871 C855 0.961 . S
H872 C856 0.931 . S
H873 C861 0.930 . S
H874 C862 0.956 . S
H875 C862 0.961 . S
H876 C862 0.961 . S
H877 C863 0.958 . S
H878 C863 0.961 . S
H879 C863 0.960 . S
C880 C881 1.391 . S
C880 C882 1.394 . S
C880 H896 0.931 . S
C881 C880 1.391 . S
C881 C885 1.376 . S
C882 C880 1.394 . S
C882 C883 1.369 . S
C882 C886 1.531 . S
C883 C882 1.369 . S
C883 C884 1.410 . S
C883 C891 1.503 . S
C884 C883 1.410 . S
C884 C885 1.392 . S
C884 C887 1.511 . S
C885 C881 1.376 . S
C885 C884 1.392 . S
C885 H897 0.929 . S
C886 C882 1.531 . S
C886 H898 0.960 . S
C886 H899 0.962 . S
C886 H900 0.960 . S
C887 C884 1.511 . S
C887 H901 0.961 . S
C887 H902 0.961 . S
C887 H903 0.961 . S
C888 C889 1.370 1_556 S
C888 C890 1.363 . S
C888 H904 0.931 . S
C889 C888 1.370 1_554 S
C889 C893 1.408 . S
C890 C888 1.363 . S
C890 C891 1.370 . S
C890 C894 1.524 . S
C891 C883 1.503 . S
C891 C890 1.370 . S
C891 C892 1.403 . S
C892 C891 1.403 . S
C892 C893 1.404 1_556 S
C892 C895 1.539 1_556 S
C893 C889 1.408 . S
C893 C892 1.404 1_554 S
C893 H905 0.930 . S
C894 C890 1.524 . S
C894 H906 0.956 . S
C894 H907 0.961 . S
C894 H908 0.961 . S
C895 C892 1.539 1_554 S
C895 H909 0.958 . S
C895 H910 0.961 . S
C895 H911 0.960 1_554 S
H896 C880 0.931 . S
H897 C885 0.929 . S
H898 C886 0.960 . S
H899 C886 0.962 . S
H900 C886 0.960 . S
H901 C887 0.961 . S
H902 C887 0.961 . S
H903 C887 0.961 . S
H904 C888 0.931 . S
H905 C893 0.930 . S
H906 C894 0.956 . S
H907 C894 0.961 . S
H908 C894 0.961 . S
H909 C895 0.958 . S
H910 C895 0.961 . S
H911 C895 0.960 1_556 S
C912 C913 1.391 . S
C912 C914 1.394 . S
C912 H928 0.931 . S
C913 C912 1.391 . S
C913 C917 1.376 . S
C914 C912 1.394 . S
C914 C915 1.369 . S
C914 C918 1.531 . S
C915 C914 1.369 . S
C915 C916 1.410 . S
C915 C923 1.503 . S
C916 C915 1.410 . S
C916 C917 1.392 . S
C916 C919 1.511 . S
C917 C913 1.376 . S
C917 C916 1.392 . S
C917 H929 0.929 . S
C918 C914 1.531 . S
C918 H930 0.960 . S
C918 H931 0.962 . S
C918 H932 0.960 . S
C919 C916 1.511 . S
C919 H933 0.961 . S
C919 H934 0.961 . S
C919 H935 0.961 . S
C920 C921 1.370 . S
C920 C922 1.363 . S
C920 H936 0.931 . S
C921 C920 1.370 . S
C921 C925 1.408 . S
C922 C920 1.363 . S
C922 C923 1.370 . S
C922 C926 1.524 . S
C923 C915 1.503 . S
C923 C922 1.370 . S
C923 C924 1.403 . S
C924 C923 1.403 . S
C924 C925 1.404 . S
C924 C927 1.539 . S
C925 C921 1.408 . S
C925 C924 1.404 . S
C925 H937 0.930 . S
C926 C922 1.524 . S
C926 H938 0.956 . S
C926 H939 0.961 . S
C926 H940 0.961 . S
C927 C924 1.539 . S
C927 H941 0.958 . S
C927 H942 0.961 . S
C927 H943 0.960 . S
H928 C912 0.931 . S
H929 C917 0.929 . S
H930 C918 0.960 . S
H931 C918 0.962 . S
H932 C918 0.960 . S
H933 C919 0.961 . S
H934 C919 0.961 . S
H935 C919 0.961 . S
H936 C920 0.931 . S
H937 C925 0.930 . S
H938 C926 0.956 . S
H939 C926 0.961 . S
H940 C926 0.961 . S
H941 C927 0.958 . S
H942 C927 0.961 . S
H943 C927 0.960 . S
C944 C945 1.391 . S
C944 C946 1.394 . S
C944 H960 0.931 . S
C945 C944 1.391 . S
C945 C949 1.376 . S
C946 C944 1.394 . S
C946 C947 1.369 . S
C946 C950 1.531 . S
C947 C946 1.369 . S
C947 C948 1.410 . S
C947 C955 1.503 . S
C948 C947 1.410 . S
C948 C949 1.392 . S
C948 C951 1.511 . S
C949 C945 1.376 . S
C949 C948 1.392 . S
C949 H961 0.929 . S
C950 C946 1.531 . S
C950 H962 0.960 . S
C950 H963 0.962 . S
C950 H964 0.960 . S
C951 C948 1.511 . S
C951 H965 0.961 . S
C951 H966 0.961 . S
C951 H967 0.961 . S
C952 C953 1.370 . S
C952 C954 1.363 . S
C952 H968 0.931 . S
C953 C952 1.370 . S
C953 C957 1.408 . S
C954 C952 1.363 . S
C954 C955 1.370 . S
C954 C958 1.524 . S
C955 C947 1.503 . S
C955 C954 1.370 . S
C955 C956 1.403 . S
C956 C955 1.403 . S
C956 C957 1.404 . S
C956 C959 1.539 . S
C957 C953 1.408 . S
C957 C956 1.404 . S
C957 H969 0.930 . S
C958 C954 1.524 . S
C958 H970 0.956 . S
C958 H971 0.961 . S
C958 H972 0.961 . S
C959 C956 1.539 . S
C959 H973 0.958 . S
C959 H974 0.961 . S
C959 H975 0.960 . S
H960 C944 0.931 . S
H961 C949 0.929 . S
H962 C950 0.960 . S
H963 C950 0.962 . S
H964 C950 0.960 . S
H965 C951 0.961 . S
H966 C951 0.961 . S
H967 C951 0.961 . S
H968 C952 0.931 . S
H969 C957 0.930 . S
H970 C958 0.956 . S
H971 C958 0.961 . S
H972 C958 0.961 . S
H973 C959 0.958 . S
H974 C959 0.961 . S
H975 C959 0.960 . S
C976 C977 1.391 . S
C976 C978 1.394 . S
C976 H992 0.931 . S
C977 C976 1.391 . S
C977 C981 1.376 . S
C978 C976 1.394 . S
C978 C979 1.369 . S
C978 C982 1.531 . S
C979 C978 1.369 . S
C979 C980 1.410 . S
C979 C987 1.503 . S
C980 C979 1.410 . S
C980 C981 1.392 . S
C980 C983 1.511 . S
C981 C977 1.376 . S
C981 C980 1.392 . S
C981 H993 0.929 . S
C982 C978 1.531 . S
C982 H994 0.960 . S
C982 H995 0.962 . S
C982 H996 0.960 . S
C983 C980 1.511 . S
C983 H997 0.961 . S
C983 H998 0.961 . S
C983 H999 0.961 . S
C984 C985 1.370 . S
C984 C986 1.363 . S
C984 H1000 0.931 . S
C985 C984 1.370 . S
C985 C989 1.408 . S
C986 C984 1.363 . S
C986 C987 1.370 . S
C986 C990 1.524 . S
C987 C979 1.503 . S
C987 C986 1.370 . S
C987 C988 1.403 . S
C988 C987 1.403 . S
C988 C989 1.404 . S
C988 C991 1.539 . S
C989 C985 1.408 . S
C989 C988 1.404 . S
C989 H1001 0.930 . S
C990 C986 1.524 . S
C990 H1002 0.956 . S
C990 H1003 0.961 . S
C990 H1004 0.961 . S
C991 C988 1.539 . S
C991 H1005 0.958 . S
C991 H1006 0.961 . S
C991 H1007 0.960 . S
H992 C976 0.931 . S
H993 C981 0.929 . S
H994 C982 0.960 . S
H995 C982 0.962 . S
H996 C982 0.960 . S
H997 C983 0.961 . S
H998 C983 0.961 . S
H999 C983 0.961 . S
H1000 C984 0.931 . S
H1001 C989 0.930 . S
H1002 C990 0.956 . S
H1003 C990 0.961 . S
H1004 C990 0.961 . S
H1005 C991 0.958 . S
H1006 C991 0.961 . S
H1007 C991 0.960 . S
C1008 C1009 1.391 . S
C1008 C1010 1.394 . S
C1008 H1024 0.931 . S
C1009 C1008 1.391 . S
C1009 C1013 1.376 . S
C1010 C1008 1.394 . S
C1010 C1011 1.369 . S
C1010 C1014 1.531 . S
C1011 C1010 1.369 . S
C1011 C1012 1.410 . S
C1011 C1019 1.503 . S
C1012 C1011 1.410 . S
C1012 C1013 1.392 . S
C1012 C1015 1.511 . S
C1013 C1009 1.376 . S
C1013 C1012 1.392 . S
C1013 H1025 0.929 . S
C1014 C1010 1.531 . S
C1014 H1026 0.960 . S
C1014 H1027 0.962 . S
C1014 H1028 0.960 . S
C1015 C1012 1.511 . S
C1015 H1029 0.961 . S
C1015 H1030 0.961 . S
C1015 H1031 0.961 . S
C1016 C1017 1.370 1_554 S
C1016 C1018 1.363 . S
C1016 H1032 0.931 . S
C1017 C1016 1.370 1_556 S
C1017 C1021 1.408 . S
C1018 C1016 1.363 . S
C1018 C1019 1.370 . S
C1018 C1022 1.524 . S
C1019 C1011 1.503 . S
C1019 C1018 1.370 . S
C1019 C1020 1.403 . S
C1020 C1019 1.403 . S
C1020 C1021 1.404 1_554 S
C1020 C1023 1.539 1_554 S
C1021 C1017 1.408 . S
C1021 C1020 1.404 1_556 S
C1021 H1033 0.930 . S
C1022 C1018 1.524 . S
C1022 H1034 0.956 . S
C1022 H1035 0.961 . S
C1022 H1036 0.961 . S
C1023 C1020 1.539 1_556 S
C1023 H1037 0.958 1_556 S
C1023 H1038 0.961 . S
C1023 H1039 0.960 1_556 S
H1024 C1008 0.931 . S
H1025 C1013 0.929 . S
H1026 C1014 0.960 . S
H1027 C1014 0.962 . S
H1028 C1014 0.960 . S
H1029 C1015 0.961 . S
H1030 C1015 0.961 . S
H1031 C1015 0.961 . S
H1032 C1016 0.931 . S
H1033 C1021 0.930 . S
H1034 C1022 0.956 . S
H1035 C1022 0.961 . S
H1036 C1022 0.961 . S
H1037 C1023 0.958 1_554 S
H1038 C1023 0.961 . S
H1039 C1023 0.960 1_554 S
C1040 C1041 1.391 . S
C1040 C1042 1.394 . S
C1040 H1056 0.931 1_545 S
C1041 C1040 1.391 . S
C1041 C1045 1.376 . S
C1042 C1040 1.394 . S
C1042 C1043 1.369 . S
C1042 C1046 1.531 . S
C1043 C1042 1.369 . S
C1043 C1044 1.410 . S
C1043 C1051 1.503 . S
C1044 C1043 1.410 . S
C1044 C1045 1.392 . S
C1044 C1047 1.511 . S
C1045 C1041 1.376 . S
C1045 C1044 1.392 . S
C1045 H1057 0.929 . S
C1046 C1042 1.531 . S
C1046 H1058 0.960 . S
C1046 H1059 0.962 . S
C1046 H1060 0.960 . S
C1047 C1044 1.511 . S
C1047 H1061 0.961 . S
C1047 H1062 0.961 . S
C1047 H1063 0.961 . S
C1048 C1049 1.370 . S
C1048 C1050 1.363 . S
C1048 H1064 0.931 . S
C1049 C1048 1.370 . S
C1049 C1053 1.408 . S
C1050 C1048 1.363 . S
C1050 C1051 1.370 . S
C1050 C1054 1.524 . S
C1051 C1043 1.503 . S
C1051 C1050 1.370 . S
C1051 C1052 1.403 . S
C1052 C1051 1.403 . S
C1052 C1053 1.404 . S
C1052 C1055 1.539 . S
C1053 C1049 1.408 . S
C1053 C1052 1.404 . S
C1053 H1065 0.930 . S
C1054 C1050 1.524 . S
C1054 H1066 0.956 . S
C1054 H1067 0.961 . S
C1054 H1068 0.961 . S
C1055 C1052 1.539 . S
C1055 H1069 0.958 . S
C1055 H1070 0.961 . S
C1055 H1071 0.960 . S
H1056 C1040 0.931 1_565 S
H1057 C1045 0.929 . S
H1058 C1046 0.960 . S
H1059 C1046 0.962 . S
H1060 C1046 0.960 . S
H1061 C1047 0.961 . S
H1062 C1047 0.961 . S
H1063 C1047 0.961 . S
H1064 C1048 0.931 . S
H1065 C1053 0.930 . S
H1066 C1054 0.956 . S
H1067 C1054 0.961 . S
H1068 C1054 0.961 . S
H1069 C1055 0.958 . S
H1070 C1055 0.961 . S
H1071 C1055 0.960 . S
C1072 C1073 1.391 . S
C1072 C1074 1.394 . S
C1072 H1088 0.931 . S
C1073 C1072 1.391 . S
C1073 C1077 1.376 . S
C1074 C1072 1.394 . S
C1074 C1075 1.369 . S
C1074 C1078 1.531 . S
C1075 C1074 1.369 . S
C1075 C1076 1.410 . S
C1075 C1083 1.503 . S
C1076 C1075 1.410 . S
C1076 C1077 1.392 . S
C1076 C1079 1.511 . S
C1077 C1073 1.376 . S
C1077 C1076 1.392 . S
C1077 H1089 0.929 . S
C1078 C1074 1.531 . S
C1078 H1090 0.960 . S
C1078 H1091 0.962 . S
C1078 H1092 0.960 . S
C1079 C1076 1.511 . S
C1079 H1093 0.961 . S
C1079 H1094 0.961 . S
C1079 H1095 0.961 . S
C1080 C1081 1.370 . S
C1080 C1082 1.363 . S
C1080 H1096 0.931 . S
C1081 C1080 1.370 . S
C1081 C1085 1.408 . S
C1082 C1080 1.363 . S
C1082 C1083 1.370 . S
C1082 C1086 1.524 . S
C1083 C1075 1.503 . S
C1083 C1082 1.370 . S
C1083 C1084 1.403 . S
C1084 C1083 1.403 . S
C1084 C1085 1.404 . S
C1084 C1087 1.539 . S
C1085 C1081 1.408 . S
C1085 C1084 1.404 . S
C1085 H1097 0.930 . S
C1086 C1082 1.524 . S
C1086 H1098 0.956 . S
C1086 H1099 0.961 . S
C1086 H1100 0.961 . S
C1087 C1084 1.539 . S
C1087 H1101 0.958 . S
C1087 H1102 0.961 . S
C1087 H1103 0.960 . S
H1088 C1072 0.931 . S
H1089 C1077 0.929 . S
H1090 C1078 0.960 . S
H1091 C1078 0.962 . S
H1092 C1078 0.960 . S
H1093 C1079 0.961 . S
H1094 C1079 0.961 . S
H1095 C1079 0.961 . S
H1096 C1080 0.931 . S
H1097 C1085 0.930 . S
H1098 C1086 0.956 . S
H1099 C1086 0.961 . S
H1100 C1086 0.961 . S
H1101 C1087 0.958 . S
H1102 C1087 0.961 . S
H1103 C1087 0.960 . S
C1104 C1105 1.391 . S
C1104 C1106 1.394 . S
C1104 H1120 0.931 . S
C1105 C1104 1.391 . S
C1105 C1109 1.376 . S
C1106 C1104 1.394 . S
C1106 C1107 1.369 . S
C1106 C1110 1.531 . S
C1107 C1106 1.369 . S
C1107 C1108 1.410 . S
C1107 C1115 1.503 . S
C1108 C1107 1.410 . S
C1108 C1109 1.392 . S
C1108 C1111 1.511 . S
C1109 C1105 1.376 . S
C1109 C1108 1.392 . S
C1109 H1121 0.929 . S
C1110 C1106 1.531 . S
C1110 H1122 0.960 . S
C1110 H1123 0.962 . S
C1110 H1124 0.960 . S
C1111 C1108 1.511 . S
C1111 H1125 0.961 . S
C1111 H1126 0.961 . S
C1111 H1127 0.961 . S
C1112 C1113 1.370 . S
C1112 C1114 1.363 . S
C1112 H1128 0.931 . S
C1113 C1112 1.370 . S
C1113 C1117 1.408 . S
C1114 C1112 1.363 . S
C1114 C1115 1.370 . S
C1114 C1118 1.524 . S
C1115 C1107 1.503 . S
C1115 C1114 1.370 . S
C1115 C1116 1.403 . S
C1116 C1115 1.403 . S
C1116 C1117 1.404 . S
C1116 C1119 1.539 . S
C1117 C1113 1.408 . S
C1117 C1116 1.404 . S
C1117 H1129 0.930 . S
C1118 C1114 1.524 . S
C1118 H1130 0.956 . S
C1118 H1131 0.961 . S
C1118 H1132 0.961 . S
C1119 C1116 1.539 . S
C1119 H1133 0.958 . S
C1119 H1134 0.961 . S
C1119 H1135 0.960 . S
H1120 C1104 0.931 . S
H1121 C1109 0.929 . S
H1122 C1110 0.960 . S
H1123 C1110 0.962 . S
H1124 C1110 0.960 . S
H1125 C1111 0.961 . S
H1126 C1111 0.961 . S
H1127 C1111 0.961 . S
H1128 C1112 0.931 . S
H1129 C1117 0.930 . S
H1130 C1118 0.956 . S
H1131 C1118 0.961 . S
H1132 C1118 0.961 . S
H1133 C1119 0.958 . S
H1134 C1119 0.961 . S
H1135 C1119 0.960 . S
C1136 C1137 1.391 . S
C1136 C1138 1.394 . S
C1136 H1152 0.931 . S
C1137 C1136 1.391 . S
C1137 C1141 1.376 . S
C1138 C1136 1.394 . S
C1138 C1139 1.369 . S
C1138 C1142 1.531 . S
C1139 C1138 1.369 . S
C1139 C1140 1.410 . S
C1139 C1147 1.503 . S
C1140 C1139 1.410 . S
C1140 C1141 1.392 . S
C1140 C1143 1.511 . S
C1141 C1137 1.376 . S
C1141 C1140 1.392 . S
C1141 H1153 0.929 . S
C1142 C1138 1.531 . S
C1142 H1154 0.960 . S
C1142 H1155 0.962 . S
C1142 H1156 0.960 . S
C1143 C1140 1.511 . S
C1143 H1157 0.961 . S
C1143 H1158 0.961 . S
C1143 H1159 0.961 . S
C1144 C1145 1.370 1_455 S
C1144 C1146 1.363 . S
C1144 H1160 0.931 1_455 S
C1145 C1144 1.370 1_655 S
C1145 C1149 1.408 1_655 S
C1146 C1144 1.363 . S
C1146 C1147 1.370 . S
C1146 C1150 1.524 . S
C1147 C1139 1.503 . S
C1147 C1146 1.370 . S
C1147 C1148 1.403 . S
C1148 C1147 1.403 . S
C1148 C1149 1.404 . S
C1148 C1151 1.539 . S
C1149 C1145 1.408 1_455 S
C1149 C1148 1.404 . S
C1149 H1161 0.930 1_455 S
C1150 C1146 1.524 . S
C1150 H1162 0.956 . S
C1150 H1163 0.961 . S
C1150 H1164 0.961 . S
C1151 C1148 1.539 . S
C1151 H1165 0.958 . S
C1151 H1166 0.961 . S
C1151 H1167 0.960 . S
H1152 C1136 0.931 . S
H1153 C1141 0.929 . S
H1154 C1142 0.960 . S
H1155 C1142 0.962 . S
H1156 C1142 0.960 . S
H1157 C1143 0.961 . S
H1158 C1143 0.961 . S
H1159 C1143 0.961 . S
H1160 C1144 0.931 1_655 S
H1161 C1149 0.930 1_655 S
H1162 C1150 0.956 . S
H1163 C1150 0.961 . S
H1164 C1150 0.961 . S
H1165 C1151 0.958 . S
H1166 C1151 0.961 . S
H1167 C1151 0.960 . S
C1168 C1169 1.391 . S
C1168 C1170 1.394 . S
C1168 H1184 0.931 1_655 S
C1169 C1168 1.391 . S
C1169 C1173 1.376 . S
C1170 C1168 1.394 . S
C1170 C1171 1.369 . S
C1170 C1174 1.531 . S
C1171 C1170 1.369 . S
C1171 C1172 1.410 . S
C1171 C1179 1.503 . S
C1172 C1171 1.410 . S
C1172 C1173 1.392 . S
C1172 C1175 1.511 . S
C1173 C1169 1.376 . S
C1173 C1172 1.392 . S
C1173 H1185 0.929 . S
C1174 C1170 1.531 . S
C1174 H1186 0.960 . S
C1174 H1187 0.962 . S
C1174 H1188 0.960 . S
C1175 C1172 1.511 . S
C1175 H1189 0.961 . S
C1175 H1190 0.961 . S
C1175 H1191 0.961 . S
C1176 C1177 1.370 . S
C1176 C1178 1.363 . S
C1176 H1192 0.931 . S
C1177 C1176 1.370 . S
C1177 C1181 1.408 . S
C1178 C1176 1.363 . S
C1178 C1179 1.370 . S
C1178 C1182 1.524 . S
C1179 C1171 1.503 . S
C1179 C1178 1.370 . S
C1179 C1180 1.403 . S
C1180 C1179 1.403 . S
C1180 C1181 1.404 . S
C1180 C1183 1.539 . S
C1181 C1177 1.408 . S
C1181 C1180 1.404 . S
C1181 H1193 0.930 . S
C1182 C1178 1.524 . S
C1182 H1194 0.956 . S
C1182 H1195 0.961 . S
C1182 H1196 0.961 . S
C1183 C1180 1.539 . S
C1183 H1197 0.958 . S
C1183 H1198 0.961 . S
C1183 H1199 0.960 . S
H1184 C1168 0.931 1_455 S
H1185 C1173 0.929 . S
H1186 C1174 0.960 . S
H1187 C1174 0.962 . S
H1188 C1174 0.960 . S
H1189 C1175 0.961 . S
H1190 C1175 0.961 . S
H1191 C1175 0.961 . S
H1192 C1176 0.931 . S
H1193 C1181 0.930 . S
H1194 C1182 0.956 . S
H1195 C1182 0.961 . S
H1196 C1182 0.961 . S
H1197 C1183 0.958 . S
H1198 C1183 0.961 . S
H1199 C1183 0.960 . S
C1200 C1201 1.391 . S
C1200 C1202 1.394 1_455 S
C1200 H1216 0.931 . S
C1201 C1200 1.391 . S
C1201 C1205 1.376 1_455 S
C1202 C1200 1.394 1_655 S
C1202 C1203 1.369 . S
C1202 C1206 1.531 1_655 S
C1203 C1202 1.369 . S
C1203 C1204 1.410 . S
C1203 C1211 1.503 . S
C1204 C1203 1.410 . S
C1204 C1205 1.392 . S
C1204 C1207 1.511 . S
C1205 C1201 1.376 1_655 S
C1205 C1204 1.392 . S
C1205 H1217 0.929 . S
C1206 C1202 1.531 1_455 S
C1206 H1218 0.960 1_455 S
C1206 H1219 0.962 . S
C1206 H1220 0.960 . S
C1207 C1204 1.511 . S
C1207 H1221 0.961 . S
C1207 H1222 0.961 . S
C1207 H1223 0.961 . S
C1208 C1209 1.370 . S
C1208 C1210 1.363 . S
C1208 H1224 0.931 . S
C1209 C1208 1.370 . S
C1209 C1213 1.408 . S
C1210 C1208 1.363 . S
C1210 C1211 1.370 . S
C1210 C1214 1.524 . S
C1211 C1203 1.503 . S
C1211 C1210 1.370 . S
C1211 C1212 1.403 . S
C1212 C1211 1.403 . S
C1212 C1213 1.404 . S
C1212 C1215 1.539 . S
C1213 C1209 1.408 . S
C1213 C1212 1.404 . S
C1213 H1225 0.930 . S
C1214 C1210 1.524 . S
C1214 H1226 0.956 . S
C1214 H1227 0.961 . S
C1214 H1228 0.961 . S
C1215 C1212 1.539 . S
C1215 H1229 0.958 . S
C1215 H1230 0.961 . S
C1215 H1231 0.960 . S
H1216 C1200 0.931 . S
H1217 C1205 0.929 . S
H1218 C1206 0.960 1_655 S
H1219 C1206 0.962 . S
H1220 C1206 0.960 . S
H1221 C1207 0.961 . S
H1222 C1207 0.961 . S
H1223 C1207 0.961 . S
H1224 C1208 0.931 . S
H1225 C1213 0.930 . S
H1226 C1214 0.956 . S
H1227 C1214 0.961 . S
H1228 C1214 0.961 . S
H1229 C1215 0.958 . S
H1230 C1215 0.961 . S
H1231 C1215 0.960 . S
C1232 C1233 1.391 . S
C1232 C1234 1.394 . S
C1232 H1248 0.931 . S
C1233 C1232 1.391 . S
C1233 C1237 1.376 . S
C1234 C1232 1.394 . S
C1234 C1235 1.369 . S
C1234 C1238 1.531 . S
C1235 C1234 1.369 . S
C1235 C1236 1.410 . S
C1235 C1243 1.503 . S
C1236 C1235 1.410 . S
C1236 C1237 1.392 . S
C1236 C1239 1.511 . S
C1237 C1233 1.376 . S
C1237 C1236 1.392 . S
C1237 H1249 0.929 . S
C1238 C1234 1.531 . S
C1238 H1250 0.960 . S
C1238 H1251 0.962 . S
C1238 H1252 0.960 . S
C1239 C1236 1.511 . S
C1239 H1253 0.961 . S
C1239 H1254 0.961 . S
C1239 H1255 0.961 . S
C1240 C1241 1.370 . S
C1240 C1242 1.363 . S
C1240 H1256 0.931 . S
C1241 C1240 1.370 . S
C1241 C1245 1.408 . S
C1242 C1240 1.363 . S
C1242 C1243 1.370 . S
C1242 C1246 1.524 . S
C1243 C1235 1.503 . S
C1243 C1242 1.370 . S
C1243 C1244 1.403 . S
C1244 C1243 1.403 . S
C1244 C1245 1.404 . S
C1244 C1247 1.539 . S
C1245 C1241 1.408 . S
C1245 C1244 1.404 . S
C1245 H1257 0.930 . S
C1246 C1242 1.524 . S
C1246 H1258 0.956 . S
C1246 H1259 0.961 . S
C1246 H1260 0.961 . S
C1247 C1244 1.539 . S
C1247 H1261 0.958 . S
C1247 H1262 0.961 . S
C1247 H1263 0.960 . S
H1248 C1232 0.931 . S
H1249 C1237 0.929 . S
H1250 C1238 0.960 . S
H1251 C1238 0.962 . S
H1252 C1238 0.960 . S
H1253 C1239 0.961 . S
H1254 C1239 0.961 . S
H1255 C1239 0.961 . S
H1256 C1240 0.931 . S
H1257 C1245 0.930 . S
H1258 C1246 0.956 . S
H1259 C1246 0.961 . S
H1260 C1246 0.961 . S
H1261 C1247 0.958 . S
H1262 C1247 0.961 . S
H1263 C1247 0.960 . S
C1264 C1265 1.391 . S
C1264 C1266 1.394 . S
C1264 H1280 0.931 . S
C1265 C1264 1.391 . S
C1265 C1269 1.376 . S
C1266 C1264 1.394 . S
C1266 C1267 1.369 . S
C1266 C1270 1.531 . S
C1267 C1266 1.369 . S
C1267 C1268 1.410 . S
C1267 C1275 1.503 . S
C1268 C1267 1.410 . S
C1268 C1269 1.392 . S
C1268 C1271 1.511 . S
C1269 C1265 1.376 . S
C1269 C1268 1.392 . S
C1269 H1281 0.929 . S
C1270 C1266 1.531 . S
C1270 H1282 0.960 . S
C1270 H1283 0.962 . S
C1270 H1284 0.960 . S
C1271 C1268 1.511 . S
C1271 H1285 0.961 . S
C1271 H1286 0.961 . S
C1271 H1287 0.961 . S
C1272 C1273 1.370 . S
C1272 C1274 1.363 . S
C1272 H1288 0.931 . S
C1273 C1272 1.370 . S
C1273 C1277 1.408 . S
C1274 C1272 1.363 . S
C1274 C1275 1.370 . S
C1274 C1278 1.524 . S
C1275 C1267 1.503 . S
C1275 C1274 1.370 . S
C1275 C1276 1.403 . S
C1276 C1275 1.403 . S
C1276 C1277 1.404 . S
C1276 C1279 1.539 . S
C1277 C1273 1.408 . S
C1277 C1276 1.404 . S
C1277 H1289 0.930 . S
C1278 C1274 1.524 . S
C1278 H1290 0.956 . S
C1278 H1291 0.961 . S
C1278 H1292 0.961 . S
C1279 C1276 1.539 . S
C1279 H1293 0.958 . S
C1279 H1294 0.961 . S
C1279 H1295 0.960 . S
H1280 C1264 0.931 . S
H1281 C1269 0.929 . S
H1282 C1270 0.960 . S
H1283 C1270 0.962 . S
H1284 C1270 0.960 . S
H1285 C1271 0.961 . S
H1286 C1271 0.961 . S
H1287 C1271 0.961 . S
H1288 C1272 0.931 . S
H1289 C1277 0.930 . S
H1290 C1278 0.956 . S
H1291 C1278 0.961 . S
H1292 C1278 0.961 . S
H1293 C1279 0.958 . S
H1294 C1279 0.961 . S
H1295 C1279 0.960 . S
C1296 C1297 1.391 . S
C1296 C1298 1.394 . S
C1296 H1312 0.931 . S
C1297 C1296 1.391 . S
C1297 C1301 1.377 . S
C1298 C1296 1.394 . S
C1298 C1299 1.369 . S
C1298 C1302 1.531 . S
C1299 C1298 1.369 . S
C1299 C1300 1.410 . S
C1299 C1307 1.503 . S
C1300 C1299 1.410 . S
C1300 C1301 1.397 . S
C1300 C1303 1.511 . S
C1301 C1297 1.377 . S
C1301 C1300 1.397 . S
C1301 H1313 0.923 1_455 S
C1302 C1298 1.531 . S
C1302 H1314 0.960 . S
C1302 H1315 0.962 . S
C1302 H1316 0.960 . S
C1303 C1300 1.511 . S
C1303 H1317 0.961 1_455 S
C1303 H1318 0.961 . S
C1303 H1319 0.961 . S
C1304 C1305 1.370 . S
C1304 C1306 1.363 . S
C1304 H1320 0.931 . S
C1305 C1304 1.370 . S
C1305 C1309 1.408 . S
C1306 C1304 1.363 . S
C1306 C1307 1.370 . S
C1306 C1310 1.524 . S
C1307 C1299 1.503 . S
C1307 C1306 1.370 . S
C1307 C1308 1.403 . S
C1308 C1307 1.403 . S
C1308 C1309 1.404 . S
C1308 C1311 1.539 . S
C1309 C1305 1.408 . S
C1309 C1308 1.404 . S
C1309 H1321 0.930 . S
C1310 C1306 1.524 . S
C1310 H1322 0.956 . S
C1310 H1323 0.961 . S
C1310 H1324 0.961 . S
C1311 C1308 1.539 . S
C1311 H1325 0.958 . S
C1311 H1326 0.961 . S
C1311 H1327 0.960 . S
H1312 C1296 0.931 . S
H1313 C1301 0.923 1_655 S
H1314 C1302 0.960 . S
H1315 C1302 0.962 . S
H1316 C1302 0.960 . S
H1317 C1303 0.961 1_655 S
H1318 C1303 0.961 . S
H1319 C1303 0.961 . S
H1320 C1304 0.931 . S
H1321 C1309 0.930 . S
H1322 C1310 0.956 . S
H1323 C1310 0.961 . S
H1324 C1310 0.961 . S
H1325 C1311 0.958 . S
H1326 C1311 0.961 . S
H1327 C1311 0.960 . S
C1328 C1329 1.391 . S
C1328 C1330 1.394 . S
C1328 H1344 0.931 . S
C1329 C1328 1.391 . S
C1329 C1333 1.376 . S
C1330 C1328 1.394 . S
C1330 C1331 1.369 . S
C1330 C1334 1.531 . S
C1331 C1330 1.369 . S
C1331 C1332 1.410 . S
C1331 C1339 1.503 . S
C1332 C1331 1.410 . S
C1332 C1333 1.392 . S
C1332 C1335 1.511 . S
C1333 C1329 1.376 . S
C1333 C1332 1.392 . S
C1333 H1345 0.929 . S
C1334 C1330 1.531 . S
C1334 H1346 0.960 . S
C1334 H1347 0.962 . S
C1334 H1348 0.960 . S
C1335 C1332 1.511 . S
C1335 H1349 0.961 . S
C1335 H1350 0.961 . S
C1335 H1351 0.961 . S
C1336 C1337 1.370 . S
C1336 C1338 1.363 . S
C1336 H1352 0.931 . S
C1337 C1336 1.370 . S
C1337 C1341 1.408 . S
C1338 C1336 1.363 . S
C1338 C1339 1.370 . S
C1338 C1342 1.524 . S
C1339 C1331 1.503 . S
C1339 C1338 1.370 . S
C1339 C1340 1.403 . S
C1340 C1339 1.403 . S
C1340 C1341 1.404 . S
C1340 C1343 1.539 . S
C1341 C1337 1.408 . S
C1341 C1340 1.404 . S
C1341 H1353 0.930 . S
C1342 C1338 1.524 . S
C1342 H1354 0.956 . S
C1342 H1355 0.961 . S
C1342 H1356 0.961 . S
C1343 C1340 1.539 . S
C1343 H1357 0.958 . S
C1343 H1358 0.961 . S
C1343 H1359 0.960 . S
H1344 C1328 0.931 . S
H1345 C1333 0.929 . S
H1346 C1334 0.960 . S
H1347 C1334 0.962 . S
H1348 C1334 0.960 . S
H1349 C1335 0.961 . S
H1350 C1335 0.961 . S
H1351 C1335 0.961 . S
H1352 C1336 0.931 . S
H1353 C1341 0.930 . S
H1354 C1342 0.956 . S
H1355 C1342 0.961 . S
H1356 C1342 0.961 . S
H1357 C1343 0.958 . S
H1358 C1343 0.961 . S
H1359 C1343 0.960 . S
C1360 C1361 1.391 . S
C1360 C1362 1.394 . S
C1360 H1376 0.931 . S
C1361 C1360 1.391 . S
C1361 C1365 1.376 . S
C1362 C1360 1.394 . S
C1362 C1363 1.369 . S
C1362 C1366 1.531 . S
C1363 C1362 1.369 . S
C1363 C1364 1.410 . S
C1363 C1371 1.503 . S
C1364 C1363 1.410 . S
C1364 C1365 1.392 . S
C1364 C1367 1.511 . S
C1365 C1361 1.376 . S
C1365 C1364 1.392 . S
C1365 H1377 0.929 . S
C1366 C1362 1.531 . S
C1366 H1378 0.960 . S
C1366 H1379 0.962 . S
C1366 H1380 0.960 . S
C1367 C1364 1.511 . S
C1367 H1381 0.961 . S
C1367 H1382 0.961 . S
C1367 H1383 0.961 . S
C1368 C1369 1.370 1_545 S
C1368 C1370 1.363 . S
C1368 H1384 0.931 1_545 S
C1369 C1368 1.370 1_565 S
C1369 C1373 1.408 1_565 S
C1370 C1368 1.363 . S
C1370 C1371 1.370 . S
C1370 C1374 1.524 . S
C1371 C1363 1.503 . S
C1371 C1370 1.370 . S
C1371 C1372 1.403 . S
C1372 C1371 1.403 . S
C1372 C1373 1.404 . S
C1372 C1375 1.539 . S
C1373 C1369 1.408 1_545 S
C1373 C1372 1.404 . S
C1373 H1385 0.930 . S
C1374 C1370 1.524 . S
C1374 H1386 0.956 . S
C1374 H1387 0.961 . S
C1374 H1388 0.961 . S
C1375 C1372 1.539 . S
C1375 H1389 0.958 . S
C1375 H1390 0.961 . S
C1375 H1391 0.960 . S
H1376 C1360 0.931 . S
H1377 C1365 0.929 . S
H1378 C1366 0.960 . S
H1379 C1366 0.962 . S
H1380 C1366 0.960 . S
H1381 C1367 0.961 . S
H1382 C1367 0.961 . S
H1383 C1367 0.961 . S
H1384 C1368 0.931 1_565 S
H1385 C1373 0.930 . S
H1386 C1374 0.956 . S
H1387 C1374 0.961 . S
H1388 C1374 0.961 . S
H1389 C1375 0.958 . S
H1390 C1375 0.961 . S
H1391 C1375 0.960 . S
C1392 C1393 1.391 . S
C1392 C1394 1.394 . S
C1392 H1408 0.931 . S
C1393 C1392 1.391 . S
C1393 C1397 1.376 . S
C1394 C1392 1.394 . S
C1394 C1395 1.369 . S
C1394 C1398 1.531 . S
C1395 C1394 1.369 . S
C1395 C1396 1.410 . S
C1395 C1403 1.503 . S
C1396 C1395 1.410 . S
C1396 C1397 1.392 . S
C1396 C1399 1.511 . S
C1397 C1393 1.376 . S
C1397 C1396 1.392 . S
C1397 H1409 0.929 . S
C1398 C1394 1.531 . S
C1398 H1410 0.960 . S
C1398 H1411 0.962 . S
C1398 H1412 0.960 . S
C1399 C1396 1.511 . S
C1399 H1413 0.961 . S
C1399 H1414 0.961 . S
C1399 H1415 0.961 . S
C1400 C1401 1.370 . S
C1400 C1402 1.363 . S
C1400 H1416 0.931 . S
C1401 C1400 1.370 . S
C1401 C1405 1.408 . S
C1402 C1400 1.363 . S
C1402 C1403 1.370 . S
C1402 C1406 1.524 . S
C1403 C1395 1.503 . S
C1403 C1402 1.370 . S
C1403 C1404 1.403 . S
C1404 C1403 1.403 . S
C1404 C1405 1.404 . S
C1404 C1407 1.539 . S
C1405 C1401 1.408 . S
C1405 C1404 1.404 . S
C1405 H1417 0.930 . S
C1406 C1402 1.524 . S
C1406 H1418 0.956 . S
C1406 H1419 0.961 . S
C1406 H1420 0.961 . S
C1407 C1404 1.539 . S
C1407 H1421 0.958 . S
C1407 H1422 0.961 . S
C1407 H1423 0.960 . S
H1408 C1392 0.931 . S
H1409 C1397 0.929 . S
H1410 C1398 0.960 . S
H1411 C1398 0.962 . S
H1412 C1398 0.960 . S
H1413 C1399 0.961 . S
H1414 C1399 0.961 . S
H1415 C1399 0.961 . S
H1416 C1400 0.931 . S
H1417 C1405 0.930 . S
H1418 C1406 0.956 . S
H1419 C1406 0.961 . S
H1420 C1406 0.961 . S
H1421 C1407 0.958 . S
H1422 C1407 0.961 . S
H1423 C1407 0.960 . S
C1424 C1425 1.391 1_565 S
C1424 C1426 1.394 . S
C1424 H1440 0.931 . S
C1425 C1424 1.391 1_545 S
C1425 C1429 1.376 . S
C1426 C1424 1.394 . S
C1426 C1427 1.369 . S
C1426 C1430 1.531 . S
C1427 C1426 1.369 . S
C1427 C1428 1.410 . S
C1427 C1435 1.503 . S
C1428 C1427 1.410 . S
C1428 C1429 1.392 1_565 S
C1428 C1431 1.511 . S
C1429 C1425 1.376 . S
C1429 C1428 1.392 1_545 S
C1429 H1441 0.929 . S
C1430 C1426 1.531 . S
C1430 H1442 0.960 . S
C1430 H1443 0.962 . S
C1430 H1444 0.960 . S
C1431 C1428 1.511 . S
C1431 H1445 0.961 . S
C1431 H1446 0.961 . S
C1431 H1447 0.961 . S
C1432 C1433 1.370 . S
C1432 C1434 1.363 . S
C1432 H1448 0.931 . S
C1433 C1432 1.370 . S
C1433 C1437 1.408 . S
C1434 C1432 1.363 . S
C1434 C1435 1.370 . S
C1434 C1438 1.524 . S
C1435 C1427 1.503 . S
C1435 C1434 1.370 . S
C1435 C1436 1.403 . S
C1436 C1435 1.403 . S
C1436 C1437 1.404 . S
C1436 C1439 1.539 . S
C1437 C1433 1.408 . S
C1437 C1436 1.404 . S
C1437 H1449 0.930 . S
C1438 C1434 1.524 . S
C1438 H1450 0.956 . S
C1438 H1451 0.961 . S
C1438 H1452 0.961 . S
C1439 C1436 1.539 . S
C1439 H1453 0.958 . S
C1439 H1454 0.961 . S
C1439 H1455 0.960 . S
H1440 C1424 0.931 . S
H1441 C1429 0.929 . S
H1442 C1430 0.960 . S
H1443 C1430 0.962 . S
H1444 C1430 0.960 . S
H1445 C1431 0.961 . S
H1446 C1431 0.961 . S
H1447 C1431 0.961 . S
H1448 C1432 0.931 . S
H1449 C1437 0.930 . S
H1450 C1438 0.956 . S
H1451 C1438 0.961 . S
H1452 C1438 0.961 . S
H1453 C1439 0.958 . S
H1454 C1439 0.961 . S
H1455 C1439 0.960 . S
C1456 C1457 1.391 . S
C1456 C1458 1.394 . S
C1456 H1472 0.931 . S
C1457 C1456 1.391 . S
C1457 C1461 1.376 . S
C1458 C1456 1.394 . S
C1458 C1459 1.369 . S
C1458 C1462 1.531 . S
C1459 C1458 1.369 . S
C1459 C1460 1.410 . S
C1459 C1467 1.503 . S
C1460 C1459 1.410 . S
C1460 C1461 1.392 . S
C1460 C1463 1.511 . S
C1461 C1457 1.376 . S
C1461 C1460 1.392 . S
C1461 H1473 0.929 . S
C1462 C1458 1.531 . S
C1462 H1474 0.960 . S
C1462 H1475 0.962 . S
C1462 H1476 0.960 . S
C1463 C1460 1.511 . S
C1463 H1477 0.961 . S
C1463 H1478 0.961 . S
C1463 H1479 0.961 . S
C1464 C1465 1.370 . S
C1464 C1466 1.363 . S
C1464 H1480 0.931 . S
C1465 C1464 1.370 . S
C1465 C1469 1.408 . S
C1466 C1464 1.363 . S
C1466 C1467 1.370 . S
C1466 C1470 1.524 . S
C1467 C1459 1.503 . S
C1467 C1466 1.370 . S
C1467 C1468 1.403 . S
C1468 C1467 1.403 . S
C1468 C1469 1.404 . S
C1468 C1471 1.539 . S
C1469 C1465 1.408 . S
C1469 C1468 1.404 . S
C1469 H1481 0.930 1_554 S
C1470 C1466 1.524 . S
C1470 H1482 0.956 . S
C1470 H1483 0.961 . S
C1470 H1484 0.961 . S
C1471 C1468 1.539 . S
C1471 H1485 0.958 . S
C1471 H1486 0.961 . S
C1471 H1487 0.960 . S
H1472 C1456 0.931 . S
H1473 C1461 0.929 . S
H1474 C1462 0.960 . S
H1475 C1462 0.962 . S
H1476 C1462 0.960 . S
H1477 C1463 0.961 . S
H1478 C1463 0.961 . S
H1479 C1463 0.961 . S
H1480 C1464 0.931 . S
H1481 C1469 0.930 1_556 S
H1482 C1470 0.956 . S
H1483 C1470 0.961 . S
H1484 C1470 0.961 . S
H1485 C1471 0.958 . S
H1486 C1471 0.961 . S
H1487 C1471 0.960 . S
C1488 C1489 1.391 . S
C1488 C1490 1.394 . S
C1488 H1504 0.931 . S
C1489 C1488 1.391 . S
C1489 C1493 1.376 . S
C1490 C1488 1.394 . S
C1490 C1491 1.369 . S
C1490 C1494 1.531 . S
C1491 C1490 1.369 . S
C1491 C1492 1.410 . S
C1491 C1499 1.503 . S
C1492 C1491 1.410 . S
C1492 C1493 1.392 . S
C1492 C1495 1.511 . S
C1493 C1489 1.376 . S
C1493 C1492 1.392 . S
C1493 H1505 0.929 . S
C1494 C1490 1.531 . S
C1494 H1506 0.960 . S
C1494 H1507 0.962 . S
C1494 H1508 0.960 . S
C1495 C1492 1.511 . S
C1495 H1509 0.961 . S
C1495 H1510 0.961 . S
C1495 H1511 0.961 . S
C1496 C1497 1.370 . S
C1496 C1498 1.363 . S
C1496 H1512 0.931 . S
C1497 C1496 1.370 . S
C1497 C1501 1.408 . S
C1498 C1496 1.363 . S
C1498 C1499 1.370 . S
C1498 C1502 1.524 . S
C1499 C1491 1.503 . S
C1499 C1498 1.370 . S
C1499 C1500 1.403 . S
C1500 C1499 1.403 . S
C1500 C1501 1.404 . S
C1500 C1503 1.539 . S
C1501 C1497 1.408 . S
C1501 C1500 1.404 . S
C1501 H1513 0.930 . S
C1502 C1498 1.524 . S
C1502 H1514 0.956 . S
C1502 H1515 0.961 . S
C1502 H1516 0.961 . S
C1503 C1500 1.539 . S
C1503 H1517 0.958 . S
C1503 H1518 0.961 . S
C1503 H1519 0.960 . S
H1504 C1488 0.931 . S
H1505 C1493 0.929 . S
H1506 C1494 0.960 . S
H1507 C1494 0.962 . S
H1508 C1494 0.960 . S
H1509 C1495 0.961 . S
H1510 C1495 0.961 . S
H1511 C1495 0.961 . S
H1512 C1496 0.931 . S
H1513 C1501 0.930 . S
H1514 C1502 0.956 . S
H1515 C1502 0.961 . S
H1516 C1502 0.961 . S
H1517 C1503 0.958 . S
H1518 C1503 0.961 . S
H1519 C1503 0.960 . S
C1520 C1521 1.391 . S
C1520 C1522 1.394 . S
C1520 H1536 0.931 . S
C1521 C1520 1.391 . S
C1521 C1525 1.376 . S
C1522 C1520 1.394 . S
C1522 C1523 1.369 . S
C1522 C1526 1.531 . S
C1523 C1522 1.369 . S
C1523 C1524 1.410 . S
C1523 C1531 1.503 . S
C1524 C1523 1.410 . S
C1524 C1525 1.392 . S
C1524 C1527 1.511 . S
C1525 C1521 1.376 . S
C1525 C1524 1.392 . S
C1525 H1537 0.929 . S
C1526 C1522 1.531 . S
C1526 H1538 0.960 . S
C1526 H1539 0.962 . S
C1526 H1540 0.960 . S
C1527 C1524 1.511 . S
C1527 H1541 0.961 . S
C1527 H1542 0.961 . S
C1527 H1543 0.961 . S
C1528 C1529 1.370 . S
C1528 C1530 1.363 . S
C1528 H1544 0.931 . S
C1529 C1528 1.370 . S
C1529 C1533 1.408 . S
C1530 C1528 1.363 . S
C1530 C1531 1.370 . S
C1530 C1534 1.524 . S
C1531 C1523 1.503 . S
C1531 C1530 1.370 . S
C1531 C1532 1.403 . S
C1532 C1531 1.403 . S
C1532 C1533 1.404 . S
C1532 C1535 1.539 . S
C1533 C1529 1.408 . S
C1533 C1532 1.404 . S
C1533 H1545 0.930 . S
C1534 C1530 1.524 . S
C1534 H1546 0.956 . S
C1534 H1547 0.961 . S
C1534 H1548 0.961 . S
C1535 C1532 1.539 . S
C1535 H1549 0.958 . S
C1535 H1550 0.961 . S
C1535 H1551 0.960 . S
H1536 C1520 0.931 . S
H1537 C1525 0.929 . S
H1538 C1526 0.960 . S
H1539 C1526 0.962 . S
H1540 C1526 0.960 . S
H1541 C1527 0.961 . S
H1542 C1527 0.961 . S
H1543 C1527 0.961 . S
H1544 C1528 0.931 . S
H1545 C1533 0.930 . S
H1546 C1534 0.956 . S
H1547 C1534 0.961 . S
H1548 C1534 0.961 . S
H1549 C1535 0.958 . S
H1550 C1535 0.961 . S
H1551 C1535 0.960 . S
C1552 C1553 1.391 . S
C1552 C1554 1.394 . S
C1552 H1568 0.931 . S
C1553 C1552 1.391 . S
C1553 C1557 1.376 . S
C1554 C1552 1.394 . S
C1554 C1555 1.369 . S
C1554 C1558 1.531 . S
C1555 C1554 1.369 . S
C1555 C1556 1.410 . S
C1555 C1563 1.503 . S
C1556 C1555 1.410 . S
C1556 C1557 1.392 . S
C1556 C1559 1.511 . S
C1557 C1553 1.376 . S
C1557 C1556 1.392 . S
C1557 H1569 0.929 1_556 S
C1558 C1554 1.531 . S
C1558 H1570 0.960 . S
C1558 H1571 0.962 . S
C1558 H1572 0.960 . S
C1559 C1556 1.511 . S
C1559 H1573 0.961 1_556 S
C1559 H1574 0.961 . S
C1559 H1575 0.961 . S
C1560 C1561 1.370 . S
C1560 C1562 1.363 . S
C1560 H1576 0.931 . S
C1561 C1560 1.370 . S
C1561 C1565 1.408 . S
C1562 C1560 1.363 . S
C1562 C1563 1.370 . S
C1562 C1566 1.524 . S
C1563 C1555 1.503 . S
C1563 C1562 1.370 . S
C1563 C1564 1.403 . S
C1564 C1563 1.403 . S
C1564 C1565 1.404 . S
C1564 C1567 1.539 . S
C1565 C1561 1.408 . S
C1565 C1564 1.404 . S
C1565 H1577 0.930 . S
C1566 C1562 1.524 . S
C1566 H1578 0.956 . S
C1566 H1579 0.961 . S
C1566 H1580 0.961 . S
C1567 C1564 1.539 . S
C1567 H1581 0.958 . S
C1567 H1582 0.961 . S
C1567 H1583 0.960 . S
H1568 C1552 0.931 . S
H1569 C1557 0.929 1_554 S
H1570 C1558 0.960 . S
H1571 C1558 0.962 . S
H1572 C1558 0.960 . S
H1573 C1559 0.961 1_554 S
H1574 C1559 0.961 . S
H1575 C1559 0.961 . S
H1576 C1560 0.931 . S
H1577 C1565 0.930 . S
H1578 C1566 0.956 . S
H1579 C1566 0.961 . S
H1580 C1566 0.961 . S
H1581 C1567 0.958 . S
H1582 C1567 0.961 . S
H1583 C1567 0.960 . S
C1584 C1585 1.391 . S
C1584 C1586 1.394 . S
C1584 H1600 0.931 . S
C1585 C1584 1.391 . S
C1585 C1589 1.376 . S
C1586 C1584 1.394 . S
C1586 C1587 1.369 . S
C1586 C1590 1.531 . S
C1587 C1586 1.369 . S
C1587 C1588 1.410 . S
C1587 C1595 1.503 . S
C1588 C1587 1.410 . S
C1588 C1589 1.392 . S
C1588 C1591 1.511 . S
C1589 C1585 1.376 . S
C1589 C1588 1.392 . S
C1589 H1601 0.929 . S
C1590 C1586 1.531 . S
C1590 H1602 0.960 . S
C1590 H1603 0.962 . S
C1590 H1604 0.960 . S
C1591 C1588 1.511 . S
C1591 H1605 0.961 . S
C1591 H1606 0.961 . S
C1591 H1607 0.961 . S
C1592 C1593 1.370 . S
C1592 C1594 1.363 . S
C1592 H1608 0.931 . S
C1593 C1592 1.370 . S
C1593 C1597 1.408 . S
C1594 C1592 1.363 . S
C1594 C1595 1.370 . S
C1594 C1598 1.524 . S
C1595 C1587 1.503 . S
C1595 C1594 1.370 . S
C1595 C1596 1.403 . S
C1596 C1595 1.403 . S
C1596 C1597 1.404 . S
C1596 C1599 1.539 . S
C1597 C1593 1.408 . S
C1597 C1596 1.404 . S
C1597 H1609 0.930 . S
C1598 C1594 1.524 . S
C1598 H1610 0.956 . S
C1598 H1611 0.961 . S
C1598 H1612 0.961 . S
C1599 C1596 1.539 . S
C1599 H1613 0.958 . S
C1599 H1614 0.961 . S
C1599 H1615 0.960 . S
H1600 C1584 0.931 . S
H1601 C1589 0.929 . S
H1602 C1590 0.960 . S
H1603 C1590 0.962 . S
H1604 C1590 0.960 . S
H1605 C1591 0.961 . S
H1606 C1591 0.961 . S
H1607 C1591 0.961 . S
H1608 C1592 0.931 . S
H1609 C1597 0.930 . S
H1610 C1598 0.956 . S
H1611 C1598 0.961 . S
H1612 C1598 0.961 . S
H1613 C1599 0.958 . S
H1614 C1599 0.961 . S
H1615 C1599 0.960 . S
C1616 C1617 1.391 . S
C1616 C1618 1.394 . S
C1616 H1632 0.931 . S
C1617 C1616 1.391 . S
C1617 C1621 1.376 . S
C1618 C1616 1.394 . S
C1618 C1619 1.369 . S
C1618 C1622 1.531 . S
C1619 C1618 1.369 . S
C1619 C1620 1.410 . S
C1619 C1627 1.503 . S
C1620 C1619 1.410 . S
C1620 C1621 1.392 . S
C1620 C1623 1.511 . S
C1621 C1617 1.376 . S
C1621 C1620 1.392 . S
C1621 H1633 0.929 . S
C1622 C1618 1.531 . S
C1622 H1634 0.960 . S
C1622 H1635 0.962 . S
C1622 H1636 0.960 . S
C1623 C1620 1.511 . S
C1623 H1637 0.961 . S
C1623 H1638 0.961 . S
C1623 H1639 0.961 . S
C1624 C1625 1.370 . S
C1624 C1626 1.363 . S
C1624 H1640 0.931 . S
C1625 C1624 1.370 . S
C1625 C1629 1.408 . S
C1626 C1624 1.363 . S
C1626 C1627 1.370 1_554 S
C1626 C1630 1.524 1_554 S
C1627 C1619 1.503 . S
C1627 C1626 1.370 1_556 S
C1627 C1628 1.403 . S
C1628 C1627 1.403 . S
C1628 C1629 1.404 1_556 S
C1628 C1631 1.539 . S
C1629 C1625 1.408 . S
C1629 C1628 1.404 1_554 S
C1629 H1641 0.930 . S
C1630 C1626 1.524 1_556 S
C1630 H1642 0.956 . S
C1630 H1643 0.961 . S
C1630 H1644 0.961 1_556 S
C1631 C1628 1.539 . S
C1631 H1645 0.958 . S
C1631 H1646 0.961 . S
C1631 H1647 0.960 . S
H1632 C1616 0.931 . S
H1633 C1621 0.929 . S
H1634 C1622 0.960 . S
H1635 C1622 0.962 . S
H1636 C1622 0.960 . S
H1637 C1623 0.961 . S
H1638 C1623 0.961 . S
H1639 C1623 0.961 . S
H1640 C1624 0.931 . S
H1641 C1629 0.930 . S
H1642 C1630 0.956 . S
H1643 C1630 0.961 . S
H1644 C1630 0.961 1_554 S
H1645 C1631 0.958 . S
H1646 C1631 0.961 . S
H1647 C1631 0.960 . S
C1648 C1649 1.391 . S
C1648 C1650 1.394 . S
C1648 H1664 0.931 . S
C1649 C1648 1.391 . S
C1649 C1653 1.376 . S
C1650 C1648 1.394 . S
C1650 C1651 1.369 . S
C1650 C1654 1.531 . S
C1651 C1650 1.369 . S
C1651 C1652 1.410 . S
C1651 C1659 1.503 . S
C1652 C1651 1.410 . S
C1652 C1653 1.392 . S
C1652 C1655 1.511 . S
C1653 C1649 1.376 . S
C1653 C1652 1.392 . S
C1653 H1665 0.929 . S
C1654 C1650 1.531 . S
C1654 H1666 0.960 . S
C1654 H1667 0.962 . S
C1654 H1668 0.960 . S
C1655 C1652 1.511 . S
C1655 H1669 0.961 . S
C1655 H1670 0.961 . S
C1655 H1671 0.961 . S
C1656 C1657 1.370 . S
C1656 C1658 1.363 . S
C1656 H1672 0.931 . S
C1657 C1656 1.370 . S
C1657 C1661 1.408 . S
C1658 C1656 1.363 . S
C1658 C1659 1.370 . S
C1658 C1662 1.524 . S
C1659 C1651 1.503 . S
C1659 C1658 1.370 . S
C1659 C1660 1.403 . S
C1660 C1659 1.403 . S
C1660 C1661 1.404 . S
C1660 C1663 1.539 . S
C1661 C1657 1.408 . S
C1661 C1660 1.404 . S
C1661 H1673 0.930 . S
C1662 C1658 1.524 . S
C1662 H1674 0.956 . S
C1662 H1675 0.961 . S
C1662 H1676 0.961 . S
C1663 C1660 1.539 . S
C1663 H1677 0.958 . S
C1663 H1678 0.961 . S
C1663 H1679 0.960 . S
H1664 C1648 0.931 . S
H1665 C1653 0.929 . S
H1666 C1654 0.960 . S
H1667 C1654 0.962 . S
H1668 C1654 0.960 . S
H1669 C1655 0.961 . S
H1670 C1655 0.961 . S
H1671 C1655 0.961 . S
H1672 C1656 0.931 . S
H1673 C1661 0.930 . S
H1674 C1662 0.956 . S
H1675 C1662 0.961 . S
H1676 C1662 0.961 . S
H1677 C1663 0.958 . S
H1678 C1663 0.961 . S
H1679 C1663 0.960 . S
C1680 C1681 1.391 . S
C1680 C1682 1.394 . S
C1680 H1696 0.931 . S
C1681 C1680 1.391 . S
C1681 C1685 1.376 . S
C1682 C1680 1.394 . S
C1682 C1683 1.369 . S
C1682 C1686 1.531 . S
C1683 C1682 1.369 . S
C1683 C1684 1.410 . S
C1683 C1691 1.503 . S
C1684 C1683 1.410 . S
C1684 C1685 1.392 . S
C1684 C1687 1.511 . S
C1685 C1681 1.376 . S
C1685 C1684 1.392 . S
C1685 H1697 0.929 . S
C1686 C1682 1.531 . S
C1686 H1698 0.960 1_455 S
C1686 H1699 0.962 . S
C1686 H1700 0.963 . S
C1687 C1684 1.511 . S
C1687 H1701 0.961 . S
C1687 H1702 0.961 . S
C1687 H1703 0.961 . S
C1688 C1689 1.370 1_455 S
C1688 C1690 1.363 . S
C1688 H1704 0.931 . S
C1689 C1688 1.370 1_655 S
C1689 C1693 1.408 . S
C1690 C1688 1.363 . S
C1690 C1691 1.370 . S
C1690 C1694 1.524 . S
C1691 C1683 1.503 . S
C1691 C1690 1.370 . S
C1691 C1692 1.403 1_455 S
C1692 C1691 1.403 1_655 S
C1692 C1693 1.404 . S
C1692 C1695 1.539 . S
C1693 C1689 1.408 . S
C1693 C1692 1.404 . S
C1693 H1705 0.930 . S
C1694 C1690 1.524 . S
C1694 H1706 0.956 . S
C1694 H1707 0.961 . S
C1694 H1708 0.961 . S
C1695 C1692 1.539 . S
C1695 H1709 0.958 . S
C1695 H1710 0.961 . S
C1695 H1711 0.960 . S
H1696 C1680 0.931 . S
H1697 C1685 0.929 . S
H1698 C1686 0.960 1_655 S
H1699 C1686 0.962 . S
H1700 C1686 0.963 . S
H1701 C1687 0.961 . S
H1702 C1687 0.961 . S
H1703 C1687 0.961 . S
H1704 C1688 0.931 . S
H1705 C1693 0.930 . S
H1706 C1694 0.956 . S
H1707 C1694 0.961 . S
H1708 C1694 0.961 . S
H1709 C1695 0.958 . S
H1710 C1695 0.961 . S
H1711 C1695 0.960 . S
C1712 C1713 1.391 . S
C1712 C1714 1.394 . S
C1712 H1728 0.931 . S
C1713 C1712 1.391 . S
C1713 C1717 1.376 . S
C1714 C1712 1.394 . S
C1714 C1715 1.369 . S
C1714 C1718 1.531 . S
C1715 C1714 1.369 . S
C1715 C1716 1.410 . S
C1715 C1723 1.503 . S
C1716 C1715 1.410 . S
C1716 C1717 1.392 . S
C1716 C1719 1.511 . S
C1717 C1713 1.376 . S
C1717 C1716 1.392 . S
C1717 H1729 0.929 . S
C1718 C1714 1.531 . S
C1718 H1730 0.960 . S
C1718 H1731 0.962 . S
C1718 H1732 0.960 . S
C1719 C1716 1.511 . S
C1719 H1733 0.961 . S
C1719 H1734 0.961 . S
C1719 H1735 0.961 . S
C1720 C1721 1.370 . S
C1720 C1722 1.363 . S
C1720 H1736 0.931 . S
C1721 C1720 1.370 . S
C1721 C1725 1.408 . S
C1722 C1720 1.363 . S
C1722 C1723 1.370 . S
C1722 C1726 1.524 . S
C1723 C1715 1.503 . S
C1723 C1722 1.370 . S
C1723 C1724 1.403 . S
C1724 C1723 1.403 . S
C1724 C1725 1.404 . S
C1724 C1727 1.539 . S
C1725 C1721 1.408 . S
C1725 C1724 1.404 . S
C1725 H1737 0.930 . S
C1726 C1722 1.524 . S
C1726 H1738 0.956 . S
C1726 H1739 0.961 . S
C1726 H1740 0.961 . S
C1727 C1724 1.539 . S
C1727 H1741 0.958 . S
C1727 H1742 0.961 . S
C1727 H1743 0.960 . S
H1728 C1712 0.931 . S
H1729 C1717 0.929 . S
H1730 C1718 0.960 . S
H1731 C1718 0.962 . S
H1732 C1718 0.960 . S
H1733 C1719 0.961 . S
H1734 C1719 0.961 . S
H1735 C1719 0.961 . S
H1736 C1720 0.931 . S
H1737 C1725 0.930 . S
H1738 C1726 0.956 . S
H1739 C1726 0.961 . S
H1740 C1726 0.961 . S
H1741 C1727 0.958 . S
H1742 C1727 0.961 . S
H1743 C1727 0.960 . S
C1744 C1745 1.391 . S
C1744 C1746 1.394 . S
C1744 H1760 0.931 . S
C1745 C1744 1.391 . S
C1745 C1749 1.376 . S
C1746 C1744 1.394 . S
C1746 C1747 1.369 . S
C1746 C1750 1.531 . S
C1747 C1746 1.369 . S
C1747 C1748 1.410 . S
C1747 C1755 1.503 . S
C1748 C1747 1.410 . S
C1748 C1749 1.392 . S
C1748 C1751 1.511 . S
C1749 C1745 1.376 . S
C1749 C1748 1.392 . S
C1749 H1761 0.929 . S
C1750 C1746 1.531 . S
C1750 H1762 0.960 . S
C1750 H1763 0.962 . S
C1750 H1764 0.960 . S
C1751 C1748 1.511 . S
C1751 H1765 0.961 . S
C1751 H1766 0.961 . S
C1751 H1767 0.961 . S
C1752 C1753 1.370 . S
C1752 C1754 1.363 . S
C1752 H1768 0.931 . S
C1753 C1752 1.370 . S
C1753 C1757 1.408 . S
C1754 C1752 1.363 . S
C1754 C1755 1.370 . S
C1754 C1758 1.524 . S
C1755 C1747 1.503 . S
C1755 C1754 1.370 . S
C1755 C1756 1.403 . S
C1756 C1755 1.403 . S
C1756 C1757 1.404 . S
C1756 C1759 1.539 . S
C1757 C1753 1.408 . S
C1757 C1756 1.404 . S
C1757 H1769 0.930 . S
C1758 C1754 1.524 . S
C1758 H1770 0.956 . S
C1758 H1771 0.961 . S
C1758 H1772 0.961 . S
C1759 C1756 1.539 . S
C1759 H1773 0.958 . S
C1759 H1774 0.961 . S
C1759 H1775 0.960 . S
H1760 C1744 0.931 . S
H1761 C1749 0.929 . S
H1762 C1750 0.960 . S
H1763 C1750 0.962 . S
H1764 C1750 0.960 . S
H1765 C1751 0.961 . S
H1766 C1751 0.961 . S
H1767 C1751 0.961 . S
H1768 C1752 0.931 . S
H1769 C1757 0.930 . S
H1770 C1758 0.956 . S
H1771 C1758 0.961 . S
H1772 C1758 0.961 . S
H1773 C1759 0.958 . S
H1774 C1759 0.961 . S
H1775 C1759 0.960 . S
C1776 C1777 1.391 . S
C1776 C1778 1.394 . S
C1776 H1792 0.931 . S
C1777 C1776 1.391 . S
C1777 C1781 1.376 . S
C1778 C1776 1.394 . S
C1778 C1779 1.369 . S
C1778 C1782 1.531 . S
C1779 C1778 1.369 . S
C1779 C1780 1.410 . S
C1779 C1787 1.503 . S
C1780 C1779 1.410 . S
C1780 C1781 1.392 . S
C1780 C1783 1.511 . S
C1781 C1777 1.376 . S
C1781 C1780 1.392 . S
C1781 H1793 0.929 . S
C1782 C1778 1.531 . S
C1782 H1794 0.960 . S
C1782 H1795 0.962 . S
C1782 H1796 0.960 . S
C1783 C1780 1.511 . S
C1783 H1797 0.961 . S
C1783 H1798 0.961 . S
C1783 H1799 0.961 . S
C1784 C1785 1.370 . S
C1784 C1786 1.363 . S
C1784 H1800 0.931 . S
C1785 C1784 1.370 . S
C1785 C1789 1.408 . S
C1786 C1784 1.363 . S
C1786 C1787 1.370 . S
C1786 C1790 1.524 . S
C1787 C1779 1.503 . S
C1787 C1786 1.370 . S
C1787 C1788 1.403 . S
C1788 C1787 1.403 . S
C1788 C1789 1.404 . S
C1788 C1791 1.539 . S
C1789 C1785 1.408 . S
C1789 C1788 1.404 . S
C1789 H1801 0.930 . S
C1790 C1786 1.524 . S
C1790 H1802 0.956 . S
C1790 H1803 0.961 . S
C1790 H1804 0.961 . S
C1791 C1788 1.539 . S
C1791 H1805 0.958 . S
C1791 H1806 0.961 . S
C1791 H1807 0.960 . S
H1792 C1776 0.931 . S
H1793 C1781 0.929 . S
H1794 C1782 0.960 . S
H1795 C1782 0.962 . S
H1796 C1782 0.960 . S
H1797 C1783 0.961 . S
H1798 C1783 0.961 . S
H1799 C1783 0.961 . S
H1800 C1784 0.931 . S
H1801 C1789 0.930 . S
H1802 C1790 0.956 . S
H1803 C1790 0.961 . S
H1804 C1790 0.961 . S
H1805 C1791 0.958 . S
H1806 C1791 0.961 . S
H1807 C1791 0.960 . S
C1808 C1809 1.391 1_655 S
C1808 C1810 1.394 . S
C1808 H1824 0.931 . S
C1809 C1808 1.391 1_455 S
C1809 C1813 1.376 . S
C1810 C1808 1.394 . S
C1810 C1811 1.369 1_556 S
C1810 C1814 1.531 . S
C1811 C1810 1.369 1_554 S
C1811 C1812 1.410 1_655 S
C1811 C1819 1.503 . S
C1812 C1811 1.410 1_455 S
C1812 C1813 1.392 1_554 S
C1812 C1815 1.511 . S
C1813 C1809 1.376 . S
C1813 C1812 1.392 1_556 S
C1813 H1825 0.929 . S
C1814 C1810 1.531 . S
C1814 H1826 0.960 1_556 S
C1814 H1827 0.968 . S
C1814 H1828 0.960 . S
C1815 C1812 1.511 . S
C1815 H1829 0.961 . S
C1815 H1830 0.961 . S
C1815 H1831 0.961 . S
C1816 C1817 1.370 . S
C1816 C1818 1.363 . S
C1816 H1832 0.931 . S
C1817 C1816 1.370 . S
C1817 C1821 1.408 . S
C1818 C1816 1.363 . S
C1818 C1819 1.370 . S
C1818 C1822 1.524 . S
C1819 C1811 1.503 . S
C1819 C1818 1.370 . S
C1819 C1820 1.403 . S
C1820 C1819 1.403 . S
C1820 C1821 1.404 . S
C1820 C1823 1.539 . S
C1821 C1817 1.408 . S
C1821 C1820 1.404 . S
C1821 H1833 0.930 . S
C1822 C1818 1.524 . S
C1822 H1834 0.956 . S
C1822 H1835 0.961 1_655 S
C1822 H1836 0.961 . S
C1823 C1820 1.539 . S
C1823 H1837 0.958 . S
C1823 H1838 0.961 . S
C1823 H1839 0.960 . S
H1824 C1808 0.931 . S
H1825 C1813 0.929 . S
H1826 C1814 0.960 1_554 S
H1827 C1814 0.968 . S
H1828 C1814 0.960 . S
H1829 C1815 0.961 . S
H1830 C1815 0.961 . S
H1831 C1815 0.961 . S
H1832 C1816 0.931 . S
H1833 C1821 0.930 . S
H1834 C1822 0.956 . S
H1835 C1822 0.961 1_455 S
H1836 C1822 0.961 . S
H1837 C1823 0.958 . S
H1838 C1823 0.961 . S
H1839 C1823 0.960 . S
C1840 C1841 1.391 . S
C1840 C1842 1.394 . S
C1840 H1856 0.931 . S
C1841 C1840 1.391 . S
C1841 C1845 1.376 . S
C1842 C1840 1.394 . S
C1842 C1843 1.369 . S
C1842 C1846 1.531 . S
C1843 C1842 1.369 . S
C1843 C1844 1.410 . S
C1843 C1851 1.503 . S
C1844 C1843 1.410 . S
C1844 C1845 1.392 . S
C1844 C1847 1.511 . S
C1845 C1841 1.376 . S
C1845 C1844 1.392 . S
C1845 H1857 0.929 . S
C1846 C1842 1.531 . S
C1846 H1858 0.960 . S
C1846 H1859 0.962 . S
C1846 H1860 0.960 . S
C1847 C1844 1.511 . S
C1847 H1861 0.961 . S
C1847 H1862 0.961 . S
C1847 H1863 0.961 . S
C1848 C1849 1.370 . S
C1848 C1850 1.363 . S
C1848 H1864 0.931 . S
C1849 C1848 1.370 . S
C1849 C1853 1.408 . S
C1850 C1848 1.363 . S
C1850 C1851 1.370 . S
C1850 C1854 1.524 . S
C1851 C1843 1.503 . S
C1851 C1850 1.370 . S
C1851 C1852 1.403 . S
C1852 C1851 1.403 . S
C1852 C1853 1.404 . S
C1852 C1855 1.539 . S
C1853 C1849 1.408 . S
C1853 C1852 1.404 . S
C1853 H1865 0.930 . S
C1854 C1850 1.524 . S
C1854 H1866 0.956 . S
C1854 H1867 0.961 . S
C1854 H1868 0.961 . S
C1855 C1852 1.539 . S
C1855 H1869 0.958 . S
C1855 H1870 0.961 . S
C1855 H1871 0.960 . S
H1856 C1840 0.931 . S
H1857 C1845 0.929 . S
H1858 C1846 0.960 . S
H1859 C1846 0.962 . S
H1860 C1846 0.960 . S
H1861 C1847 0.961 . S
H1862 C1847 0.961 . S
H1863 C1847 0.961 . S
H1864 C1848 0.931 . S
H1865 C1853 0.930 . S
H1866 C1854 0.956 . S
H1867 C1854 0.961 . S
H1868 C1854 0.961 . S
H1869 C1855 0.958 . S
H1870 C1855 0.961 . S
H1871 C1855 0.960 . S
C1872 C1873 1.391 . S
C1872 C1874 1.394 1_556 S
C1872 H1888 0.938 . S
C1873 C1872 1.391 . S
C1873 C1877 1.376 . S
C1874 C1872 1.394 1_554 S
C1874 C1875 1.369 . S
C1874 C1878 1.531 . S
C1875 C1874 1.369 . S
C1875 C1876 1.410 1_554 S
C1875 C1883 1.503 . S
C1876 C1875 1.410 1_556 S
C1876 C1877 1.392 . S
C1876 C1879 1.511 . S
C1877 C1873 1.376 . S
C1877 C1876 1.392 . S
C1877 H1889 0.929 . S
C1878 C1874 1.531 . S
C1878 H1890 0.960 . S
C1878 H1891 0.962 . S
C1878 H1892 0.960 . S
C1879 C1876 1.511 . S
C1879 H1893 0.961 . S
C1879 H1894 0.961 . S
C1879 H1895 0.961 . S
C1880 C1881 1.370 . S
C1880 C1882 1.363 . S
C1880 H1896 0.931 . S
C1881 C1880 1.370 . S
C1881 C1885 1.408 . S
C1882 C1880 1.363 . S
C1882 C1883 1.370 . S
C1882 C1886 1.524 . S
C1883 C1875 1.503 . S
C1883 C1882 1.370 . S
C1883 C1884 1.403 . S
C1884 C1883 1.403 . S
C1884 C1885 1.404 . S
C1884 C1887 1.539 1_554 S
C1885 C1881 1.408 . S
C1885 C1884 1.404 . S
C1885 H1897 0.930 . S
C1886 C1882 1.524 . S
C1886 H1898 0.956 . S
C1886 H1899 0.961 . S
C1886 H1900 0.961 . S
C1887 C1884 1.539 1_556 S
C1887 H1901 0.958 . S
C1887 H1902 0.961 . S
C1887 H1903 0.960 . S
H1888 C1872 0.938 . S
H1889 C1877 0.929 . S
H1890 C1878 0.960 . S
H1891 C1878 0.962 . S
H1892 C1878 0.960 . S
H1893 C1879 0.961 . S
H1894 C1879 0.961 . S
H1895 C1879 0.961 . S
H1896 C1880 0.931 . S
H1897 C1885 0.930 . S
H1898 C1886 0.956 . S
H1899 C1886 0.961 . S
H1900 C1886 0.961 . S
H1901 C1887 0.958 . S
H1902 C1887 0.961 . S
H1903 C1887 0.960 . S
C1904 C1905 1.391 . S
C1904 C1906 1.394 . S
C1904 H1920 0.931 . S
C1905 C1904 1.391 . S
C1905 C1909 1.376 . S
C1906 C1904 1.394 . S
C1906 C1907 1.369 . S
C1906 C1910 1.531 . S
C1907 C1906 1.369 . S
C1907 C1908 1.410 . S
C1907 C1915 1.503 . S
C1908 C1907 1.410 . S
C1908 C1909 1.392 . S
C1908 C1911 1.511 . S
C1909 C1905 1.376 . S
C1909 C1908 1.392 . S
C1909 H1921 0.929 . S
C1910 C1906 1.531 . S
C1910 H1922 0.960 . S
C1910 H1923 0.962 . S
C1910 H1924 0.960 . S
C1911 C1908 1.511 . S
C1911 H1925 0.961 . S
C1911 H1926 0.961 . S
C1911 H1927 0.961 . S
C1912 C1913 1.370 . S
C1912 C1914 1.363 . S
C1912 H1928 0.931 . S
C1913 C1912 1.370 . S
C1913 C1917 1.408 . S
C1914 C1912 1.363 . S
C1914 C1915 1.370 . S
C1914 C1918 1.524 . S
C1915 C1907 1.503 . S
C1915 C1914 1.370 . S
C1915 C1916 1.403 . S
C1916 C1915 1.403 . S
C1916 C1917 1.404 . S
C1916 C1919 1.539 . S
C1917 C1913 1.408 . S
C1917 C1916 1.404 . S
C1917 H1929 0.930 . S
C1918 C1914 1.524 . S
C1918 H1930 0.956 . S
C1918 H1931 0.961 . S
C1918 H1932 0.961 . S
C1919 C1916 1.539 . S
C1919 H1933 0.958 . S
C1919 H1934 0.961 . S
C1919 H1935 0.960 . S
H1920 C1904 0.931 . S
H1921 C1909 0.929 . S
H1922 C1910 0.960 . S
H1923 C1910 0.962 . S
H1924 C1910 0.960 . S
H1925 C1911 0.961 . S
H1926 C1911 0.961 . S
H1927 C1911 0.961 . S
H1928 C1912 0.931 . S
H1929 C1917 0.930 . S
H1930 C1918 0.956 . S
H1931 C1918 0.961 . S
H1932 C1918 0.961 . S
H1933 C1919 0.958 . S
H1934 C1919 0.961 . S
H1935 C1919 0.960 . S
C1936 C1937 1.391 . S
C1936 C1938 1.394 . S
C1936 H1952 0.931 . S
C1937 C1936 1.391 . S
C1937 C1941 1.376 . S
C1938 C1936 1.394 . S
C1938 C1939 1.369 . S
C1938 C1942 1.531 . S
C1939 C1938 1.369 . S
C1939 C1940 1.410 . S
C1939 C1947 1.503 . S
C1940 C1939 1.410 . S
C1940 C1941 1.392 . S
C1940 C1943 1.511 . S
C1941 C1937 1.376 . S
C1941 C1940 1.392 . S
C1941 H1953 0.929 . S
C1942 C1938 1.531 . S
C1942 H1954 0.960 . S
C1942 H1955 0.962 . S
C1942 H1956 0.960 . S
C1943 C1940 1.511 . S
C1943 H1957 0.961 . S
C1943 H1958 0.961 . S
C1943 H1959 0.961 . S
C1944 C1945 1.370 . S
C1944 C1946 1.363 . S
C1944 H1960 0.931 . S
C1945 C1944 1.370 . S
C1945 C1949 1.408 . S
C1946 C1944 1.363 . S
C1946 C1947 1.370 . S
C1946 C1950 1.524 . S
C1947 C1939 1.503 . S
C1947 C1946 1.370 . S
C1947 C1948 1.403 . S
C1948 C1947 1.403 . S
C1948 C1949 1.404 . S
C1948 C1951 1.539 . S
C1949 C1945 1.408 . S
C1949 C1948 1.404 . S
C1949 H1961 0.930 . S
C1950 C1946 1.524 . S
C1950 H1962 0.956 . S
C1950 H1963 0.961 . S
C1950 H1964 0.961 . S
C1951 C1948 1.539 . S
C1951 H1965 0.958 . S
C1951 H1966 0.961 . S
C1951 H1967 0.960 . S
H1952 C1936 0.931 . S
H1953 C1941 0.929 . S
H1954 C1942 0.960 . S
H1955 C1942 0.962 . S
H1956 C1942 0.960 . S
H1957 C1943 0.961 . S
H1958 C1943 0.961 . S
H1959 C1943 0.961 . S
H1960 C1944 0.931 . S
H1961 C1949 0.930 . S
H1962 C1950 0.956 . S
H1963 C1950 0.961 . S
H1964 C1950 0.961 . S
H1965 C1951 0.958 . S
H1966 C1951 0.961 . S
H1967 C1951 0.960 . S
C1968 C1969 1.391 . S
C1968 C1970 1.394 . S
C1968 H1984 0.931 . S
C1969 C1968 1.391 . S
C1969 C1973 1.376 . S
C1970 C1968 1.394 . S
C1970 C1971 1.369 . S
C1970 C1974 1.531 . S
C1971 C1970 1.369 . S
C1971 C1972 1.410 . S
C1971 C1979 1.503 . S
C1972 C1971 1.410 . S
C1972 C1973 1.392 . S
C1972 C1975 1.511 . S
C1973 C1969 1.376 . S
C1973 C1972 1.392 . S
C1973 H1985 0.929 . S
C1974 C1970 1.531 . S
C1974 H1986 0.960 . S
C1974 H1987 0.962 . S
C1974 H1988 0.960 . S
C1975 C1972 1.511 . S
C1975 H1989 0.961 . S
C1975 H1990 0.961 . S
C1975 H1991 0.961 . S
C1976 C1977 1.370 . S
C1976 C1978 1.363 . S
C1976 H1992 0.931 . S
C1977 C1976 1.370 . S
C1977 C1981 1.408 . S
C1978 C1976 1.363 . S
C1978 C1979 1.370 . S
C1978 C1982 1.524 . S
C1979 C1971 1.503 . S
C1979 C1978 1.370 . S
C1979 C1980 1.403 . S
C1980 C1979 1.403 . S
C1980 C1981 1.404 . S
C1980 C1983 1.539 . S
C1981 C1977 1.408 . S
C1981 C1980 1.404 . S
C1981 H1993 0.930 . S
C1982 C1978 1.524 . S
C1982 H1994 0.956 . S
C1982 H1995 0.961 . S
C1982 H1996 0.961 . S
C1983 C1980 1.539 . S
C1983 H1997 0.958 . S
C1983 H1998 0.961 . S
C1983 H1999 0.960 . S
H1984 C1968 0.931 . S
H1985 C1973 0.929 . S
H1986 C1974 0.960 . S
H1987 C1974 0.962 . S
H1988 C1974 0.960 . S
H1989 C1975 0.961 . S
H1990 C1975 0.961 . S
H1991 C1975 0.961 . S
H1992 C1976 0.931 . S
H1993 C1981 0.930 . S
H1994 C1982 0.956 . S
H1995 C1982 0.961 . S
H1996 C1982 0.961 . S
H1997 C1983 0.958 . S
H1998 C1983 0.961 . S
H1999 C1983 0.960 . S
C2000 C2001 1.391 . S
C2000 C2002 1.394 . S
C2000 H2016 0.931 . S
C2001 C2000 1.391 . S
C2001 C2005 1.376 . S
C2002 C2000 1.394 . S
C2002 C2003 1.369 . S
C2002 C2006 1.531 . S
C2003 C2002 1.369 . S
C2003 C2004 1.410 . S
C2003 C2011 1.503 . S
C2004 C2003 1.410 . S
C2004 C2005 1.392 . S
C2004 C2007 1.511 . S
C2005 C2001 1.376 . S
C2005 C2004 1.392 . S
C2005 H2017 0.929 . S
C2006 C2002 1.531 . S
C2006 H2018 0.960 . S
C2006 H2019 0.962 . S
C2006 H2020 0.960 . S
C2007 C2004 1.511 . S
C2007 H2021 0.961 . S
C2007 H2022 0.961 . S
C2007 H2023 0.961 . S
C2008 C2009 1.370 . S
C2008 C2010 1.396 . S
C2008 H2024 0.931 . S
C2009 C2008 1.370 . S
C2009 C2013 1.408 . S
C2010 C2008 1.396 . S
C2010 C2011 1.343 1_545 S
C2010 C2014 1.519 1_545 S
C2011 C2003 1.503 . S
C2011 C2010 1.343 1_565 S
C2011 C2012 1.403 . S
C2012 C2011 1.403 . S
C2012 C2013 1.404 1_565 S
C2012 C2015 1.539 . S
C2013 C2009 1.408 . S
C2013 C2012 1.404 1_545 S
C2013 H2025 0.930 . S
C2014 C2010 1.519 1_565 S
C2014 H2026 0.956 . S
C2014 H2027 0.961 . S
C2014 H2028 0.961 1_565 S
C2015 C2012 1.539 . S
C2015 H2029 0.958 . S
C2015 H2030 0.961 . S
C2015 H2031 0.960 . S
H2016 C2000 0.931 . S
H2017 C2005 0.929 . S
H2018 C2006 0.960 . S
H2019 C2006 0.962 . S
H2020 C2006 0.960 . S
H2021 C2007 0.961 . S
H2022 C2007 0.961 . S
H2023 C2007 0.961 . S
H2024 C2008 0.931 . S
H2025 C2013 0.930 . S
H2026 C2014 0.956 . S
H2027 C2014 0.961 . S
H2028 C2014 0.961 1_545 S
H2029 C2015 0.958 . S
H2030 C2015 0.961 . S
H2031 C2015 0.960 . S
C2032 C2033 1.391 . S
C2032 C2034 1.394 . S
C2032 H2048 0.931 . S
C2033 C2032 1.391 . S
C2033 C2037 1.376 . S
C2034 C2032 1.394 . S
C2034 C2035 1.369 . S
C2034 C2038 1.531 . S
C2035 C2034 1.369 . S
C2035 C2036 1.410 . S
C2035 C2043 1.503 . S
C2036 C2035 1.410 . S
C2036 C2037 1.392 . S
C2036 C2039 1.511 . S
C2037 C2033 1.376 . S
C2037 C2036 1.392 . S
C2037 H2049 0.929 . S
C2038 C2034 1.531 . S
C2038 H2050 0.960 . S
C2038 H2051 0.962 . S
C2038 H2052 0.960 . S
C2039 C2036 1.511 . S
C2039 H2053 0.961 . S
C2039 H2054 0.961 . S
C2039 H2055 0.961 . S
C2040 C2041 1.370 . S
C2040 C2042 1.363 . S
C2040 H2056 0.931 . S
C2041 C2040 1.370 . S
C2041 C2045 1.408 . S
C2042 C2040 1.363 . S
C2042 C2043 1.370 . S
C2042 C2046 1.524 . S
C2043 C2035 1.503 . S
C2043 C2042 1.370 . S
C2043 C2044 1.403 . S
C2044 C2043 1.403 . S
C2044 C2045 1.404 . S
C2044 C2047 1.539 . S
C2045 C2041 1.408 . S
C2045 C2044 1.404 . S
C2045 H2057 0.930 . S
C2046 C2042 1.524 . S
C2046 H2058 0.956 . S
C2046 H2059 0.961 . S
C2046 H2060 0.961 . S
C2047 C2044 1.539 . S
C2047 H2061 0.958 . S
C2047 H2062 0.961 . S
C2047 H2063 0.960 . S
H2048 C2032 0.931 . S
H2049 C2037 0.929 . S
H2050 C2038 0.960 . S
H2051 C2038 0.962 . S
H2052 C2038 0.960 . S
H2053 C2039 0.961 . S
H2054 C2039 0.961 . S
H2055 C2039 0.961 . S
H2056 C2040 0.931 . S
H2057 C2045 0.930 . S
H2058 C2046 0.956 . S
H2059 C2046 0.961 . S
H2060 C2046 0.961 . S
H2061 C2047 0.958 . S
H2062 C2047 0.961 . S
H2063 C2047 0.960 . S
C2064 C2065 1.391 . S
C2064 C2066 1.394 1_564 S
C2064 H2080 0.931 . S
C2065 C2064 1.391 . S
C2065 C2069 1.376 . S
C2066 C2064 1.394 1_546 S
C2066 C2067 1.369 . S
C2066 C2070 1.531 . S
C2067 C2066 1.369 . S
C2067 C2068 1.410 1_556 S
C2067 C2075 1.503 . S
C2068 C2067 1.410 1_554 S
C2068 C2069 1.392 1_545 S
C2068 C2071 1.511 . S
C2069 C2065 1.376 . S
C2069 C2068 1.392 1_565 S
C2069 H2081 0.929 . S
C2070 C2066 1.531 . S
C2070 H2082 0.960 . S
C2070 H2083 0.962 . S
C2070 H2084 0.960 . S
C2071 C2068 1.511 . S
C2071 H2085 0.961 . S
C2071 H2086 0.961 1_554 S
C2071 H2087 0.961 . S
C2072 C2073 1.370 . S
C2072 C2074 1.363 . S
C2072 H2088 0.931 . S
C2073 C2072 1.370 . S
C2073 C2077 1.408 . S
C2074 C2072 1.363 . S
C2074 C2075 1.370 . S
C2074 C2078 1.524 . S
C2075 C2067 1.503 . S
C2075 C2074 1.370 . S
C2075 C2076 1.403 . S
C2076 C2075 1.403 . S
C2076 C2077 1.404 . S
C2076 C2079 1.539 1_556 S
C2077 C2073 1.408 . S
C2077 C2076 1.404 . S
C2077 H2089 0.930 . S
C2078 C2074 1.524 . S
C2078 H2090 0.956 . S
C2078 H2091 0.961 . S
C2078 H2092 0.961 . S
C2079 C2076 1.539 1_554 S
C2079 H2093 0.958 . S
C2079 H2094 0.961 . S
C2079 H2095 0.960 . S
H2080 C2064 0.931 . S
H2081 C2069 0.929 . S
H2082 C2070 0.960 . S
H2083 C2070 0.962 . S
H2084 C2070 0.960 . S
H2085 C2071 0.961 . S
H2086 C2071 0.961 1_556 S
H2087 C2071 0.961 . S
H2088 C2072 0.931 . S
H2089 C2077 0.930 . S
H2090 C2078 0.956 . S
H2091 C2078 0.961 . S
H2092 C2078 0.961 . S
H2093 C2079 0.958 . S
H2094 C2079 0.961 . S
H2095 C2079 0.960 . S
C2096 C2097 1.391 . S
C2096 C2098 1.394 . S
C2096 H2112 0.931 . S
C2097 C2096 1.391 . S
C2097 C2101 1.376 . S
C2098 C2096 1.394 . S
C2098 C2099 1.369 . S
C2098 C2102 1.531 . S
C2099 C2098 1.369 . S
C2099 C2100 1.410 . S
C2099 C2107 1.503 . S
C2100 C2099 1.410 . S
C2100 C2101 1.392 . S
C2100 C2103 1.511 . S
C2101 C2097 1.376 . S
C2101 C2100 1.392 . S
C2101 H2113 0.929 . S
C2102 C2098 1.531 . S
C2102 H2114 0.960 . S
C2102 H2115 0.962 . S
C2102 H2116 0.960 . S
C2103 C2100 1.511 . S
C2103 H2117 0.961 . S
C2103 H2118 0.961 . S
C2103 H2119 0.961 . S
C2104 C2105 1.370 . S
C2104 C2106 1.363 . S
C2104 H2120 0.931 . S
C2105 C2104 1.370 . S
C2105 C2109 1.408 . S
C2106 C2104 1.363 . S
C2106 C2107 1.370 . S
C2106 C2110 1.524 . S
C2107 C2099 1.503 . S
C2107 C2106 1.370 . S
C2107 C2108 1.403 . S
C2108 C2107 1.403 . S
C2108 C2109 1.404 . S
C2108 C2111 1.539 . S
C2109 C2105 1.408 . S
C2109 C2108 1.404 . S
C2109 H2121 0.930 . S
C2110 C2106 1.524 . S
C2110 H2122 0.956 . S
C2110 H2123 0.961 . S
C2110 H2124 0.961 . S
C2111 C2108 1.539 . S
C2111 H2125 0.958 . S
C2111 H2126 0.961 . S
C2111 H2127 0.960 . S
H2112 C2096 0.931 . S
H2113 C2101 0.929 . S
H2114 C2102 0.960 . S
H2115 C2102 0.962 . S
H2116 C2102 0.960 . S
H2117 C2103 0.961 . S
H2118 C2103 0.961 . S
H2119 C2103 0.961 . S
H2120 C2104 0.931 . S
H2121 C2109 0.930 . S
H2122 C2110 0.956 . S
H2123 C2110 0.961 . S
H2124 C2110 0.961 . S
H2125 C2111 0.958 . S
H2126 C2111 0.961 . S
H2127 C2111 0.960 . S
C2128 C2129 1.391 . S
C2128 C2130 1.394 . S
C2128 H2144 0.931 . S
C2129 C2128 1.391 . S
C2129 C2133 1.376 . S
C2130 C2128 1.394 . S
C2130 C2131 1.369 . S
C2130 C2134 1.531 . S
C2131 C2130 1.369 . S
C2131 C2132 1.410 . S
C2131 C2139 1.503 . S
C2132 C2131 1.410 . S
C2132 C2133 1.392 . S
C2132 C2135 1.511 . S
C2133 C2129 1.376 . S
C2133 C2132 1.392 . S
C2133 H2145 0.929 . S
C2134 C2130 1.531 . S
C2134 H2146 0.960 . S
C2134 H2147 0.962 . S
C2134 H2148 0.960 . S
C2135 C2132 1.511 . S
C2135 H2149 0.961 . S
C2135 H2150 0.961 . S
C2135 H2151 0.961 . S
C2136 C2137 1.370 . S
C2136 C2138 1.363 . S
C2136 H2152 0.931 . S
C2137 C2136 1.370 . S
C2137 C2141 1.408 . S
C2138 C2136 1.363 . S
C2138 C2139 1.370 . S
C2138 C2142 1.524 . S
C2139 C2131 1.503 . S
C2139 C2138 1.370 . S
C2139 C2140 1.403 . S
C2140 C2139 1.403 . S
C2140 C2141 1.404 . S
C2140 C2143 1.539 . S
C2141 C2137 1.408 . S
C2141 C2140 1.404 . S
C2141 H2153 0.930 . S
C2142 C2138 1.524 . S
C2142 H2154 0.956 . S
C2142 H2155 0.961 . S
C2142 H2156 0.961 . S
C2143 C2140 1.539 . S
C2143 H2157 0.958 . S
C2143 H2158 0.961 . S
C2143 H2159 0.960 . S
H2144 C2128 0.931 . S
H2145 C2133 0.929 . S
H2146 C2134 0.960 . S
H2147 C2134 0.962 . S
H2148 C2134 0.960 . S
H2149 C2135 0.961 . S
H2150 C2135 0.961 . S
H2151 C2135 0.961 . S
H2152 C2136 0.931 . S
H2153 C2141 0.930 . S
H2154 C2142 0.956 . S
H2155 C2142 0.961 . S
H2156 C2142 0.961 . S
H2157 C2143 0.958 . S
H2158 C2143 0.961 . S
H2159 C2143 0.960 . S
C2160 C2161 1.391 . S
C2160 C2162 1.394 . S
C2160 H2176 0.931 . S
C2161 C2160 1.391 . S
C2161 C2165 1.376 . S
C2162 C2160 1.394 . S
C2162 C2163 1.369 . S
C2162 C2166 1.531 . S
C2163 C2162 1.369 . S
C2163 C2164 1.410 . S
C2163 C2171 1.503 . S
C2164 C2163 1.410 . S
C2164 C2165 1.392 . S
C2164 C2167 1.511 1_545 S
C2165 C2161 1.376 . S
C2165 C2164 1.392 . S
C2165 H2177 0.929 . S
C2166 C2162 1.531 . S
C2166 H2178 0.960 . S
C2166 H2179 0.962 . S
C2166 H2180 0.960 . S
C2167 C2164 1.511 1_565 S
C2167 H2181 0.969 . S
C2167 H2182 0.961 . S
C2167 H2183 0.961 . S
C2168 C2169 1.370 1_545 S
C2168 C2170 1.363 . S
C2168 H2184 0.931 . S
C2169 C2168 1.370 1_565 S
C2169 C2173 1.408 . S
C2170 C2168 1.363 . S
C2170 C2171 1.370 . S
C2170 C2174 1.524 . S
C2171 C2163 1.503 . S
C2171 C2170 1.370 . S
C2171 C2172 1.403 1_545 S
C2172 C2171 1.403 1_565 S
C2172 C2173 1.404 . S
C2172 C2175 1.539 . S
C2173 C2169 1.408 . S
C2173 C2172 1.404 . S
C2173 H2185 0.930 . S
C2174 C2170 1.524 . S
C2174 H2186 0.956 . S
C2174 H2187 0.961 . S
C2174 H2188 0.961 . S
C2175 C2172 1.539 . S
C2175 H2189 0.958 . S
C2175 H2190 0.961 . S
C2175 H2191 0.960 . S
H2176 C2160 0.931 . S
H2177 C2165 0.929 . S
H2178 C2166 0.960 . S
H2179 C2166 0.962 . S
H2180 C2166 0.960 . S
H2181 C2167 0.969 . S
H2182 C2167 0.961 . S
H2183 C2167 0.961 . S
H2184 C2168 0.931 . S
H2185 C2173 0.930 . S
H2186 C2174 0.956 . S
H2187 C2174 0.961 . S
H2188 C2174 0.961 . S
H2189 C2175 0.958 . S
H2190 C2175 0.961 . S
H2191 C2175 0.960 . S
C2192 C2193 1.391 . S
C2192 C2194 1.394 . S
C2192 H2208 0.931 . S
C2193 C2192 1.391 . S
C2193 C2197 1.376 . S
C2194 C2192 1.394 . S
C2194 C2195 1.369 . S
C2194 C2198 1.531 . S
C2195 C2194 1.369 . S
C2195 C2196 1.410 . S
C2195 C2203 1.503 . S
C2196 C2195 1.410 . S
C2196 C2197 1.392 . S
C2196 C2199 1.511 . S
C2197 C2193 1.376 . S
C2197 C2196 1.392 . S
C2197 H2209 0.929 . S
C2198 C2194 1.531 . S
C2198 H2210 0.960 . S
C2198 H2211 0.962 . S
C2198 H2212 0.960 . S
C2199 C2196 1.511 . S
C2199 H2213 0.961 . S
C2199 H2214 0.961 . S
C2199 H2215 0.961 . S
C2200 C2201 1.370 . S
C2200 C2202 1.363 . S
C2200 H2216 0.931 . S
C2201 C2200 1.370 . S
C2201 C2205 1.408 . S
C2202 C2200 1.363 . S
C2202 C2203 1.370 . S
C2202 C2206 1.524 . S
C2203 C2195 1.503 . S
C2203 C2202 1.370 . S
C2203 C2204 1.403 . S
C2204 C2203 1.403 . S
C2204 C2205 1.404 . S
C2204 C2207 1.539 . S
C2205 C2201 1.408 . S
C2205 C2204 1.404 . S
C2205 H2217 0.930 . S
C2206 C2202 1.524 . S
C2206 H2218 0.956 . S
C2206 H2219 0.961 . S
C2206 H2220 0.961 . S
C2207 C2204 1.539 . S
C2207 H2221 0.958 . S
C2207 H2222 0.961 . S
C2207 H2223 0.960 . S
H2208 C2192 0.931 . S
H2209 C2197 0.929 . S
H2210 C2198 0.960 . S
H2211 C2198 0.962 . S
H2212 C2198 0.960 . S
H2213 C2199 0.961 . S
H2214 C2199 0.961 . S
H2215 C2199 0.961 . S
H2216 C2200 0.931 . S
H2217 C2205 0.930 . S
H2218 C2206 0.956 . S
H2219 C2206 0.961 . S
H2220 C2206 0.961 . S
H2221 C2207 0.958 . S
H2222 C2207 0.961 . S
H2223 C2207 0.960 . S
C2224 C2225 1.391 . S
C2224 C2226 1.394 1_645 S
C2224 H2240 0.931 . S
C2225 C2224 1.391 . S
C2225 C2229 1.376 . S
C2226 C2224 1.394 1_465 S
C2226 C2227 1.369 . S
C2226 C2230 1.531 . S
C2227 C2226 1.369 . S
C2227 C2228 1.412 1_455 S
C2227 C2235 1.503 . S
C2228 C2227 1.412 1_655 S
C2228 C2229 1.388 1_565 S
C2228 C2231 1.513 1_655 S
C2229 C2225 1.376 . S
C2229 C2228 1.388 1_545 S
C2229 H2241 0.929 . S
C2230 C2226 1.531 . S
C2230 H2242 0.960 . S
C2230 H2243 0.962 1_565 S
C2230 H2244 0.960 . S
C2231 C2228 1.513 1_455 S
C2231 H2245 0.961 . S
C2231 H2246 0.961 . S
C2231 H2247 0.961 . S
C2232 C2233 1.370 . S
C2232 C2234 1.363 . S
C2232 H2248 0.931 . S
C2233 C2232 1.370 . S
C2233 C2237 1.408 . S
C2234 C2232 1.363 . S
C2234 C2235 1.370 . S
C2234 C2238 1.524 1_565 S
C2235 C2227 1.503 . S
C2235 C2234 1.370 . S
C2235 C2236 1.403 . S
C2236 C2235 1.403 . S
C2236 C2237 1.404 . S
C2236 C2239 1.539 . S
C2237 C2233 1.408 . S
C2237 C2236 1.404 . S
C2237 H2249 0.930 . S
C2238 C2234 1.524 1_545 S
C2238 H2250 0.956 . S
C2238 H2251 0.961 . S
C2238 H2252 0.961 . S
C2239 C2236 1.539 . S
C2239 H2253 0.958 . S
C2239 H2254 0.961 . S
C2239 H2255 0.960 . S
H2240 C2224 0.931 . S
H2241 C2229 0.929 . S
H2242 C2230 0.960 . S
H2243 C2230 0.962 1_545 S
H2244 C2230 0.960 . S
H2245 C2231 0.961 . S
H2246 C2231 0.961 . S
H2247 C2231 0.961 . S
H2248 C2232 0.931 . S
H2249 C2237 0.930 . S
H2250 C2238 0.956 . S
H2251 C2238 0.961 . S
H2252 C2238 0.961 . S
H2253 C2239 0.958 . S
H2254 C2239 0.961 . S
H2255 C2239 0.960 . S
C2256 C2257 1.391 . S
C2256 C2258 1.394 . S
C2256 H2272 0.931 . S
C2257 C2256 1.391 . S
C2257 C2261 1.376 . S
C2258 C2256 1.394 . S
C2258 C2259 1.369 . S
C2258 C2262 1.531 . S
C2259 C2258 1.369 . S
C2259 C2260 1.410 . S
C2259 C2267 1.503 . S
C2260 C2259 1.410 . S
C2260 C2261 1.392 . S
C2260 C2263 1.511 . S
C2261 C2257 1.376 . S
C2261 C2260 1.392 . S
C2261 H2273 0.929 . S
C2262 C2258 1.531 . S
C2262 H2274 0.960 . S
C2262 H2275 0.962 . S
C2262 H2276 0.960 . S
C2263 C2260 1.511 . S
C2263 H2277 0.961 . S
C2263 H2278 0.961 . S
C2263 H2279 0.961 . S
C2264 C2265 1.370 . S
C2264 C2266 1.363 . S
C2264 H2280 0.931 . S
C2265 C2264 1.370 . S
C2265 C2269 1.408 . S
C2266 C2264 1.363 . S
C2266 C2267 1.370 . S
C2266 C2270 1.524 . S
C2267 C2259 1.503 . S
C2267 C2266 1.370 . S
C2267 C2268 1.403 . S
C2268 C2267 1.403 . S
C2268 C2269 1.404 . S
C2268 C2271 1.539 . S
C2269 C2265 1.408 . S
C2269 C2268 1.404 . S
C2269 H2281 0.930 . S
C2270 C2266 1.524 . S
C2270 H2282 0.956 . S
C2270 H2283 0.961 . S
C2270 H2284 0.961 . S
C2271 C2268 1.539 . S
C2271 H2285 0.958 . S
C2271 H2286 0.961 . S
C2271 H2287 0.960 . S
H2272 C2256 0.931 . S
H2273 C2261 0.929 . S
H2274 C2262 0.960 . S
H2275 C2262 0.962 . S
H2276 C2262 0.960 . S
H2277 C2263 0.961 . S
H2278 C2263 0.961 . S
H2279 C2263 0.961 . S
H2280 C2264 0.931 . S
H2281 C2269 0.930 . S
H2282 C2270 0.956 . S
H2283 C2270 0.961 . S
H2284 C2270 0.961 . S
H2285 C2271 0.958 . S
H2286 C2271 0.961 . S
H2287 C2271 0.960 . S
C2288 C2289 1.391 . S
C2288 C2290 1.394 . S
C2288 H2304 0.931 . S
C2289 C2288 1.391 . S
C2289 C2293 1.376 . S
C2290 C2288 1.394 . S
C2290 C2291 1.369 1_455 S
C2290 C2294 1.531 1_455 S
C2291 C2290 1.369 1_655 S
C2291 C2292 1.410 . S
C2291 C2299 1.503 . S
C2292 C2291 1.410 . S
C2292 C2293 1.392 1_655 S
C2292 C2295 1.511 . S
C2293 C2289 1.376 . S
C2293 C2292 1.392 1_455 S
C2293 H2305 0.929 . S
C2294 C2290 1.531 1_655 S
C2294 H2306 0.960 . S
C2294 H2307 0.962 . S
C2294 H2308 0.960 1_655 S
C2295 C2292 1.511 . S
C2295 H2309 0.961 . S
C2295 H2310 0.961 . S
C2295 H2311 0.961 . S
C2296 C2297 1.370 . S
C2296 C2298 1.363 . S
C2296 H2312 0.931 . S
C2297 C2296 1.370 . S
C2297 C2301 1.408 . S
C2298 C2296 1.363 . S
C2298 C2299 1.370 . S
C2298 C2302 1.524 . S
C2299 C2291 1.503 . S
C2299 C2298 1.370 . S
C2299 C2300 1.403 . S
C2300 C2299 1.403 . S
C2300 C2301 1.404 . S
C2300 C2303 1.539 . S
C2301 C2297 1.408 . S
C2301 C2300 1.404 . S
C2301 H2313 0.930 . S
C2302 C2298 1.524 . S
C2302 H2314 0.956 . S
C2302 H2315 0.961 . S
C2302 H2316 0.961 . S
C2303 C2300 1.539 . S
C2303 H2317 0.958 . S
C2303 H2318 0.961 . S
C2303 H2319 0.960 . S
H2304 C2288 0.931 . S
H2305 C2293 0.929 . S
H2306 C2294 0.960 . S
H2307 C2294 0.962 . S
H2308 C2294 0.960 1_455 S
H2309 C2295 0.961 . S
H2310 C2295 0.961 . S
H2311 C2295 0.961 . S
H2312 C2296 0.931 . S
H2313 C2301 0.930 . S
H2314 C2302 0.956 . S
H2315 C2302 0.961 . S
H2316 C2302 0.961 . S
H2317 C2303 0.958 . S
H2318 C2303 0.961 . S
H2319 C2303 0.960 . S
C2320 C2321 1.391 . S
C2320 C2322 1.394 . S
C2320 H2336 0.931 . S
C2321 C2320 1.391 . S
C2321 C2325 1.376 . S
C2322 C2320 1.394 . S
C2322 C2323 1.369 . S
C2322 C2326 1.531 . S
C2323 C2322 1.369 . S
C2323 C2324 1.410 . S
C2323 C2331 1.503 . S
C2324 C2323 1.410 . S
C2324 C2325 1.392 . S
C2324 C2327 1.511 . S
C2325 C2321 1.376 . S
C2325 C2324 1.392 . S
C2325 H2337 0.929 . S
C2326 C2322 1.531 . S
C2326 H2338 0.960 . S
C2326 H2339 0.962 . S
C2326 H2340 0.960 . S
C2327 C2324 1.511 . S
C2327 H2341 0.961 . S
C2327 H2342 0.961 . S
C2327 H2343 0.961 . S
C2328 C2329 1.370 . S
C2328 C2330 1.363 . S
C2328 H2344 0.931 . S
C2329 C2328 1.370 . S
C2329 C2333 1.408 . S
C2330 C2328 1.363 . S
C2330 C2331 1.370 . S
C2330 C2334 1.524 . S
C2331 C2323 1.503 . S
C2331 C2330 1.370 . S
C2331 C2332 1.403 . S
C2332 C2331 1.403 . S
C2332 C2333 1.404 . S
C2332 C2335 1.539 . S
C2333 C2329 1.408 . S
C2333 C2332 1.404 . S
C2333 H2345 0.930 . S
C2334 C2330 1.524 . S
C2334 H2346 0.956 . S
C2334 H2347 0.961 . S
C2334 H2348 0.961 . S
C2335 C2332 1.539 . S
C2335 H2349 0.958 . S
C2335 H2350 0.961 . S
C2335 H2351 0.960 . S
H2336 C2320 0.931 . S
H2337 C2325 0.929 . S
H2338 C2326 0.960 . S
H2339 C2326 0.962 . S
H2340 C2326 0.960 . S
H2341 C2327 0.961 . S
H2342 C2327 0.961 . S
H2343 C2327 0.961 . S
H2344 C2328 0.931 . S
H2345 C2333 0.930 . S
H2346 C2334 0.956 . S
H2347 C2334 0.961 . S
H2348 C2334 0.961 . S
H2349 C2335 0.958 . S
H2350 C2335 0.961 . S
H2351 C2335 0.960 . S
C2352 C2353 1.391 . S
C2352 C2354 1.394 . S
C2352 H2368 0.931 . S
C2353 C2352 1.391 . S
C2353 C2357 1.376 . S
C2354 C2352 1.394 . S
C2354 C2355 1.369 . S
C2354 C2358 1.531 . S
C2355 C2354 1.369 . S
C2355 C2356 1.410 . S
C2355 C2363 1.503 1_655 S
C2356 C2355 1.410 . S
C2356 C2357 1.392 . S
C2356 C2359 1.511 1_655 S
C2357 C2353 1.376 . S
C2357 C2356 1.392 . S
C2357 H2369 0.929 . S
C2358 C2354 1.531 . S
C2358 H2370 0.960 . S
C2358 H2371 0.962 . S
C2358 H2372 0.960 . S
C2359 C2356 1.511 1_455 S
C2359 H2373 0.961 . S
C2359 H2374 0.961 . S
C2359 H2375 0.961 . S
C2360 C2361 1.370 . S
C2360 C2362 1.363 . S
C2360 H2376 0.931 . S
C2361 C2360 1.370 . S
C2361 C2365 1.408 . S
C2362 C2360 1.363 . S
C2362 C2363 1.370 . S
C2362 C2366 1.524 . S
C2363 C2355 1.503 1_455 S
C2363 C2362 1.370 . S
C2363 C2364 1.403 . S
C2364 C2363 1.403 . S
C2364 C2365 1.404 . S
C2364 C2367 1.539 1_455 S
C2365 C2361 1.408 . S
C2365 C2364 1.404 . S
C2365 H2377 0.930 . S
C2366 C2362 1.524 . S
C2366 H2378 0.956 1_455 S
C2366 H2379 0.961 . S
C2366 H2380 0.961 . S
C2367 C2364 1.539 1_655 S
C2367 H2381 0.958 . S
C2367 H2382 0.961 1_655 S
C2367 H2383 0.960 . S
H2368 C2352 0.931 . S
H2369 C2357 0.929 . S
H2370 C2358 0.960 . S
H2371 C2358 0.962 . S
H2372 C2358 0.960 . S
H2373 C2359 0.961 . S
H2374 C2359 0.961 . S
H2375 C2359 0.961 . S
H2376 C2360 0.931 . S
H2377 C2365 0.930 . S
H2378 C2366 0.956 1_655 S
H2379 C2366 0.961 . S
H2380 C2366 0.961 . S
H2381 C2367 0.958 . S
H2382 C2367 0.961 1_455 S
H2383 C2367 0.960 . S
C2384 C2385 1.391 . S
C2384 C2386 1.394 . S
C2384 H2400 0.931 . S
C2385 C2384 1.391 . S
C2385 C2389 1.376 . S
C2386 C2384 1.394 . S
C2386 C2387 1.369 . S
C2386 C2390 1.531 . S
C2387 C2386 1.369 . S
C2387 C2388 1.410 . S
C2387 C2395 1.503 1_554 S
C2388 C2387 1.410 . S
C2388 C2389 1.392 . S
C2388 C2391 1.511 1_554 S
C2389 C2385 1.376 . S
C2389 C2388 1.392 . S
C2389 H2401 0.929 . S
C2390 C2386 1.531 . S
C2390 H2402 0.960 . S
C2390 H2403 0.962 . S
C2390 H2404 0.960 . S
C2391 C2388 1.511 1_556 S
C2391 H2405 0.961 . S
C2391 H2406 0.961 . S
C2391 H2407 0.961 . S
C2392 C2393 1.370 . S
C2392 C2394 1.363 . S
C2392 H2408 0.931 . S
C2393 C2392 1.370 . S
C2393 C2397 1.408 . S
C2394 C2392 1.363 . S
C2394 C2395 1.370 . S
C2394 C2398 1.524 1_556 S
C2395 C2387 1.503 1_556 S
C2395 C2394 1.370 . S
C2395 C2396 1.403 . S
C2396 C2395 1.403 . S
C2396 C2397 1.404 . S
C2396 C2399 1.539 . S
C2397 C2393 1.408 . S
C2397 C2396 1.404 . S
C2397 H2409 0.930 . S
C2398 C2394 1.524 1_554 S
C2398 H2410 0.956 . S
C2398 H2411 0.961 . S
C2398 H2412 0.961 . S
C2399 C2396 1.539 . S
C2399 H2413 0.958 . S
C2399 H2414 0.961 . S
C2399 H2415 0.960 . S
H2400 C2384 0.931 . S
H2401 C2389 0.929 . S
H2402 C2390 0.960 . S
H2403 C2390 0.962 . S
H2404 C2390 0.960 . S
H2405 C2391 0.961 . S
H2406 C2391 0.961 . S
H2407 C2391 0.961 . S
H2408 C2392 0.931 . S
H2409 C2397 0.930 . S
H2410 C2398 0.956 . S
H2411 C2398 0.961 . S
H2412 C2398 0.961 . S
H2413 C2399 0.958 . S
H2414 C2399 0.961 . S
H2415 C2399 0.960 . S
C2416 C2417 1.391 . S
C2416 C2418 1.394 . S
C2416 H2432 0.931 . S
C2417 C2416 1.391 . S
C2417 C2421 1.376 . S
C2418 C2416 1.394 . S
C2418 C2419 1.369 . S
C2418 C2422 1.531 . S
C2419 C2418 1.369 . S
C2419 C2420 1.410 . S
C2419 C2427 1.503 . S
C2420 C2419 1.410 . S
C2420 C2421 1.392 . S
C2420 C2423 1.511 . S
C2421 C2417 1.376 . S
C2421 C2420 1.392 . S
C2421 H2433 0.929 . S
C2422 C2418 1.531 . S
C2422 H2434 0.960 . S
C2422 H2435 0.962 . S
C2422 H2436 0.960 . S
C2423 C2420 1.511 . S
C2423 H2437 0.961 . S
C2423 H2438 0.961 . S
C2423 H2439 0.961 . S
C2424 C2425 1.370 . S
C2424 C2426 1.363 . S
C2424 H2440 0.931 . S
C2425 C2424 1.370 . S
C2425 C2429 1.408 . S
C2426 C2424 1.363 . S
C2426 C2427 1.370 . S
C2426 C2430 1.524 . S
C2427 C2419 1.503 . S
C2427 C2426 1.370 . S
C2427 C2428 1.403 . S
C2428 C2427 1.403 . S
C2428 C2429 1.404 . S
C2428 C2431 1.539 . S
C2429 C2425 1.408 . S
C2429 C2428 1.404 . S
C2429 H2441 0.930 . S
C2430 C2426 1.524 . S
C2430 H2442 0.956 . S
C2430 H2443 0.961 . S
C2430 H2444 0.961 . S
C2431 C2428 1.539 . S
C2431 H2445 0.958 . S
C2431 H2446 0.961 . S
C2431 H2447 0.960 . S
H2432 C2416 0.931 . S
H2433 C2421 0.929 . S
H2434 C2422 0.960 . S
H2435 C2422 0.962 . S
H2436 C2422 0.960 . S
H2437 C2423 0.961 . S
H2438 C2423 0.961 . S
H2439 C2423 0.961 . S
H2440 C2424 0.931 . S
H2441 C2429 0.930 . S
H2442 C2430 0.956 . S
H2443 C2430 0.961 . S
H2444 C2430 0.961 . S
H2445 C2431 0.958 . S
H2446 C2431 0.961 . S
H2447 C2431 0.960 . S
C2448 C2449 1.391 . S
C2448 C2450 1.394 . S
C2448 H2464 0.931 . S
C2449 C2448 1.391 . S
C2449 C2453 1.376 . S
C2450 C2448 1.394 . S
C2450 C2451 1.369 . S
C2450 C2454 1.531 . S
C2451 C2450 1.369 . S
C2451 C2452 1.410 . S
C2451 C2459 1.503 . S
C2452 C2451 1.410 . S
C2452 C2453 1.392 . S
C2452 C2455 1.511 . S
C2453 C2449 1.376 . S
C2453 C2452 1.392 . S
C2453 H2465 0.929 . S
C2454 C2450 1.531 . S
C2454 H2466 0.960 . S
C2454 H2467 0.962 . S
C2454 H2468 0.960 . S
C2455 C2452 1.511 . S
C2455 H2469 0.961 . S
C2455 H2470 0.961 . S
C2455 H2471 0.961 . S
C2456 C2457 1.370 . S
C2456 C2458 1.363 . S
C2456 H2472 0.931 . S
C2457 C2456 1.370 . S
C2457 C2461 1.408 . S
C2458 C2456 1.363 . S
C2458 C2459 1.370 . S
C2458 C2462 1.524 . S
C2459 C2451 1.503 . S
C2459 C2458 1.370 . S
C2459 C2460 1.403 . S
C2460 C2459 1.403 . S
C2460 C2461 1.404 . S
C2460 C2463 1.539 . S
C2461 C2457 1.408 . S
C2461 C2460 1.404 . S
C2461 H2473 0.930 . S
C2462 C2458 1.524 . S
C2462 H2474 0.956 . S
C2462 H2475 0.961 . S
C2462 H2476 0.961 . S
C2463 C2460 1.539 . S
C2463 H2477 0.958 . S
C2463 H2478 0.961 . S
C2463 H2479 0.960 . S
H2464 C2448 0.931 . S
H2465 C2453 0.929 . S
H2466 C2454 0.960 . S
H2467 C2454 0.962 . S
H2468 C2454 0.960 . S
H2469 C2455 0.961 . S
H2470 C2455 0.961 . S
H2471 C2455 0.961 . S
H2472 C2456 0.931 . S
H2473 C2461 0.930 . S
H2474 C2462 0.956 . S
H2475 C2462 0.961 . S
H2476 C2462 0.961 . S
H2477 C2463 0.958 . S
H2478 C2463 0.961 . S
H2479 C2463 0.960 . S
C2480 C2481 1.391 . S
C2480 C2482 1.394 . S
C2480 H2496 0.931 . S
C2481 C2480 1.391 . S
C2481 C2485 1.376 . S
C2482 C2480 1.394 . S
C2482 C2483 1.369 . S
C2482 C2486 1.531 . S
C2483 C2482 1.369 . S
C2483 C2484 1.410 . S
C2483 C2491 1.503 . S
C2484 C2483 1.410 . S
C2484 C2485 1.392 . S
C2484 C2487 1.511 . S
C2485 C2481 1.376 . S
C2485 C2484 1.392 . S
C2485 H2497 0.929 . S
C2486 C2482 1.531 . S
C2486 H2498 0.960 . S
C2486 H2499 0.962 . S
C2486 H2500 0.960 . S
C2487 C2484 1.511 . S
C2487 H2501 0.961 . S
C2487 H2502 0.961 . S
C2487 H2503 0.961 . S
C2488 C2489 1.370 . S
C2488 C2490 1.363 . S
C2488 H2504 0.931 . S
C2489 C2488 1.370 . S
C2489 C2493 1.408 . S
C2490 C2488 1.363 . S
C2490 C2491 1.370 . S
C2490 C2494 1.524 . S
C2491 C2483 1.503 . S
C2491 C2490 1.370 . S
C2491 C2492 1.403 . S
C2492 C2491 1.403 . S
C2492 C2493 1.404 . S
C2492 C2495 1.539 . S
C2493 C2489 1.408 . S
C2493 C2492 1.404 . S
C2493 H2505 0.930 . S
C2494 C2490 1.524 . S
C2494 H2506 0.956 . S
C2494 H2507 0.961 . S
C2494 H2508 0.961 . S
C2495 C2492 1.539 . S
C2495 H2509 0.958 . S
C2495 H2510 0.961 . S
C2495 H2511 0.960 . S
H2496 C2480 0.931 . S
H2497 C2485 0.929 . S
H2498 C2486 0.960 . S
H2499 C2486 0.962 . S
H2500 C2486 0.960 . S
H2501 C2487 0.961 . S
H2502 C2487 0.961 . S
H2503 C2487 0.961 . S
H2504 C2488 0.931 . S
H2505 C2493 0.930 . S
H2506 C2494 0.956 . S
H2507 C2494 0.961 . S
H2508 C2494 0.961 . S
H2509 C2495 0.958 . S
H2510 C2495 0.961 . S
H2511 C2495 0.960 . S
C2512 C2513 1.391 . S
C2512 C2514 1.394 . S
C2512 H2528 0.931 . S
C2513 C2512 1.391 . S
C2513 C2517 1.376 . S
C2514 C2512 1.394 . S
C2514 C2515 1.369 . S
C2514 C2518 1.531 . S
C2515 C2514 1.369 . S
C2515 C2516 1.410 . S
C2515 C2523 1.503 . S
C2516 C2515 1.410 . S
C2516 C2517 1.392 . S
C2516 C2519 1.511 . S
C2517 C2513 1.376 . S
C2517 C2516 1.392 . S
C2517 H2529 0.929 . S
C2518 C2514 1.531 . S
C2518 H2530 0.960 . S
C2518 H2531 0.962 . S
C2518 H2532 0.960 . S
C2519 C2516 1.511 . S
C2519 H2533 0.961 . S
C2519 H2534 0.961 . S
C2519 H2535 0.961 . S
C2520 C2521 1.370 . S
C2520 C2522 1.363 . S
C2520 H2536 0.931 . S
C2521 C2520 1.370 . S
C2521 C2525 1.408 . S
C2522 C2520 1.363 . S
C2522 C2523 1.370 . S
C2522 C2526 1.524 . S
C2523 C2515 1.503 . S
C2523 C2522 1.370 . S
C2523 C2524 1.403 . S
C2524 C2523 1.403 . S
C2524 C2525 1.404 . S
C2524 C2527 1.539 . S
C2525 C2521 1.408 . S
C2525 C2524 1.404 . S
C2525 H2537 0.930 . S
C2526 C2522 1.524 . S
C2526 H2538 0.956 . S
C2526 H2539 0.961 . S
C2526 H2540 0.961 . S
C2527 C2524 1.539 . S
C2527 H2541 0.958 . S
C2527 H2542 0.961 . S
C2527 H2543 0.960 . S
H2528 C2512 0.931 . S
H2529 C2517 0.929 . S
H2530 C2518 0.960 . S
H2531 C2518 0.962 . S
H2532 C2518 0.960 . S
H2533 C2519 0.961 . S
H2534 C2519 0.961 . S
H2535 C2519 0.961 . S
H2536 C2520 0.931 . S
H2537 C2525 0.930 . S
H2538 C2526 0.956 . S
H2539 C2526 0.961 . S
H2540 C2526 0.961 . S
H2541 C2527 0.958 . S
H2542 C2527 0.961 . S
H2543 C2527 0.960 . S
C2544 C2545 1.391 . S
C2544 C2546 1.394 1_655 S
C2544 H2560 0.931 . S
C2545 C2544 1.391 . S
C2545 C2549 1.376 . S
C2546 C2544 1.394 1_455 S
C2546 C2547 1.369 1_455 S
C2546 C2550 1.531 . S
C2547 C2546 1.369 1_655 S
C2547 C2548 1.410 . S
C2547 C2555 1.503 1_655 S
C2548 C2547 1.410 . S
C2548 C2549 1.392 . S
C2548 C2551 1.511 . S
C2549 C2545 1.376 . S
C2549 C2548 1.392 . S
C2549 H2561 0.929 . S
C2550 C2546 1.531 . S
C2550 H2562 0.960 . S
C2550 H2563 0.962 . S
C2550 H2564 0.960 . S
C2551 C2548 1.511 . S
C2551 H2565 0.961 . S
C2551 H2566 0.961 . S
C2551 H2567 0.961 . S
C2552 C2553 1.370 . S
C2552 C2554 1.363 . S
C2552 H2568 0.931 . S
C2553 C2552 1.370 . S
C2553 C2557 1.408 . S
C2554 C2552 1.363 . S
C2554 C2555 1.370 . S
C2554 C2558 1.524 . S
C2555 C2547 1.503 1_455 S
C2555 C2554 1.370 . S
C2555 C2556 1.403 . S
C2556 C2555 1.403 . S
C2556 C2557 1.404 . S
C2556 C2559 1.539 . S
C2557 C2553 1.408 . S
C2557 C2556 1.404 . S
C2557 H2569 0.930 . S
C2558 C2554 1.524 . S
C2558 H2570 0.956 . S
C2558 H2571 0.961 1_455 S
C2558 H2572 0.961 . S
C2559 C2556 1.539 . S
C2559 H2573 0.958 . S
C2559 H2574 0.961 . S
C2559 H2575 0.960 1_455 S
H2560 C2544 0.931 . S
H2561 C2549 0.929 . S
H2562 C2550 0.960 . S
H2563 C2550 0.962 . S
H2564 C2550 0.960 . S
H2565 C2551 0.961 . S
H2566 C2551 0.961 . S
H2567 C2551 0.961 . S
H2568 C2552 0.931 . S
H2569 C2557 0.930 . S
H2570 C2558 0.956 . S
H2571 C2558 0.961 1_655 S
H2572 C2558 0.961 . S
H2573 C2559 0.958 . S
H2574 C2559 0.961 . S
H2575 C2559 0.960 1_655 S
C2576 C2577 1.391 . S
C2576 C2578 1.394 . S
C2576 H2592 0.931 . S
C2577 C2576 1.391 . S
C2577 C2581 1.376 . S
C2578 C2576 1.394 . S
C2578 C2579 1.369 . S
C2578 C2582 1.531 . S
C2579 C2578 1.369 . S
C2579 C2580 1.410 . S
C2579 C2587 1.503 1_554 S
C2580 C2579 1.410 . S
C2580 C2581 1.392 . S
C2580 C2583 1.511 1_554 S
C2581 C2577 1.376 . S
C2581 C2580 1.392 . S
C2581 H2593 0.929 . S
C2582 C2578 1.531 . S
C2582 H2594 0.960 . S
C2582 H2595 0.962 . S
C2582 H2596 0.960 . S
C2583 C2580 1.511 1_556 S
C2583 H2597 0.961 . S
C2583 H2598 0.961 . S
C2583 H2599 0.961 . S
C2584 C2585 1.370 . S
C2584 C2586 1.363 . S
C2584 H2600 0.931 . S
C2585 C2584 1.370 . S
C2585 C2589 1.408 . S
C2586 C2584 1.363 . S
C2586 C2587 1.370 . S
C2586 C2590 1.524 . S
C2587 C2579 1.503 1_556 S
C2587 C2586 1.370 . S
C2587 C2588 1.403 . S
C2588 C2587 1.403 . S
C2588 C2589 1.404 . S
C2588 C2591 1.539 1_556 S
C2589 C2585 1.408 . S
C2589 C2588 1.404 . S
C2589 H2601 0.930 . S
C2590 C2586 1.524 . S
C2590 H2602 0.956 . S
C2590 H2603 0.961 . S
C2590 H2604 0.961 . S
C2591 C2588 1.539 1_554 S
C2591 H2605 0.958 . S
C2591 H2606 0.961 . S
C2591 H2607 0.960 . S
H2592 C2576 0.931 . S
H2593 C2581 0.929 . S
H2594 C2582 0.960 . S
H2595 C2582 0.962 . S
H2596 C2582 0.960 . S
H2597 C2583 0.961 . S
H2598 C2583 0.961 . S
H2599 C2583 0.961 . S
H2600 C2584 0.931 . S
H2601 C2589 0.930 . S
H2602 C2590 0.956 . S
H2603 C2590 0.961 . S
H2604 C2590 0.961 . S
H2605 C2591 0.958 . S
H2606 C2591 0.961 . S
H2607 C2591 0.960 . S
C2608 C2609 1.391 . S
C2608 C2610 1.394 . S
C2608 H2624 0.931 . S
C2609 C2608 1.391 . S
C2609 C2613 1.376 . S
C2610 C2608 1.394 . S
C2610 C2611 1.369 . S
C2610 C2614 1.531 . S
C2611 C2610 1.369 . S
C2611 C2612 1.410 . S
C2611 C2619 1.503 1_565 S
C2612 C2611 1.410 . S
C2612 C2613 1.392 . S
C2612 C2615 1.511 1_565 S
C2613 C2609 1.376 . S
C2613 C2612 1.392 . S
C2613 H2625 0.929 . S
C2614 C2610 1.531 . S
C2614 H2626 0.960 1_565 S
C2614 H2627 0.962 . S
C2614 H2628 0.960 . S
C2615 C2612 1.511 1_545 S
C2615 H2629 0.961 1_545 S
C2615 H2630 0.961 . S
C2615 H2631 0.961 . S
C2616 C2617 1.370 . S
C2616 C2618 1.360 1_545 S
C2616 H2632 0.931 . S
C2617 C2616 1.370 . S
C2617 C2621 1.408 . S
C2618 C2616 1.360 1_565 S
C2618 C2619 1.368 1_565 S
C2618 C2622 1.530 . S
C2619 C2611 1.503 1_545 S
C2619 C2618 1.368 1_545 S
C2619 C2620 1.403 . S
C2620 C2619 1.403 . S
C2620 C2621 1.404 . S
C2620 C2623 1.539 . S
C2621 C2617 1.408 . S
C2621 C2620 1.404 . S
C2621 H2633 0.930 . S
C2622 C2618 1.530 . S
C2622 H2634 0.956 . S
C2622 H2635 0.961 . S
C2622 H2636 0.961 . S
C2623 C2620 1.539 . S
C2623 H2637 0.958 . S
C2623 H2638 0.961 . S
C2623 H2639 0.960 . S
H2624 C2608 0.931 . S
H2625 C2613 0.929 . S
H2626 C2614 0.960 1_545 S
H2627 C2614 0.962 . S
H2628 C2614 0.960 . S
H2629 C2615 0.961 1_565 S
H2630 C2615 0.961 . S
H2631 C2615 0.961 . S
H2632 C2616 0.931 . S
H2633 C2621 0.930 . S
H2634 C2622 0.956 . S
H2635 C2622 0.961 . S
H2636 C2622 0.961 . S
H2637 C2623 0.958 . S
H2638 C2623 0.961 . S
H2639 C2623 0.960 . S
C2640 C2641 1.391 . S
C2640 C2642 1.394 . S
C2640 H2656 0.931 . S
C2641 C2640 1.391 . S
C2641 C2645 1.376 . S
C2642 C2640 1.394 . S
C2642 C2643 1.369 . S
C2642 C2646 1.531 . S
C2643 C2642 1.369 . S
C2643 C2644 1.410 . S
C2643 C2651 1.503 . S
C2644 C2643 1.410 . S
C2644 C2645 1.392 . S
C2644 C2647 1.511 . S
C2645 C2641 1.376 . S
C2645 C2644 1.392 . S
C2645 H2657 0.929 . S
C2646 C2642 1.531 . S
C2646 H2658 0.960 . S
C2646 H2659 0.962 . S
C2646 H2660 0.960 . S
C2647 C2644 1.511 . S
C2647 H2661 0.961 . S
C2647 H2662 0.961 . S
C2647 H2663 0.961 . S
C2648 C2649 1.370 . S
C2648 C2650 1.363 . S
C2648 H2664 0.931 . S
C2649 C2648 1.370 . S
C2649 C2653 1.408 . S
C2650 C2648 1.363 . S
C2650 C2651 1.370 . S
C2650 C2654 1.524 . S
C2651 C2643 1.503 . S
C2651 C2650 1.370 . S
C2651 C2652 1.403 . S
C2652 C2651 1.403 . S
C2652 C2653 1.404 . S
C2652 C2655 1.539 . S
C2653 C2649 1.408 . S
C2653 C2652 1.404 . S
C2653 H2665 0.930 . S
C2654 C2650 1.524 . S
C2654 H2666 0.956 . S
C2654 H2667 0.961 . S
C2654 H2668 0.961 . S
C2655 C2652 1.539 . S
C2655 H2669 0.958 . S
C2655 H2670 0.961 . S
C2655 H2671 0.960 . S
H2656 C2640 0.931 . S
H2657 C2645 0.929 . S
H2658 C2646 0.960 . S
H2659 C2646 0.962 . S
H2660 C2646 0.960 . S
H2661 C2647 0.961 . S
H2662 C2647 0.961 . S
H2663 C2647 0.961 . S
H2664 C2648 0.931 . S
H2665 C2653 0.930 . S
H2666 C2654 0.956 . S
H2667 C2654 0.961 . S
H2668 C2654 0.961 . S
H2669 C2655 0.958 . S
H2670 C2655 0.961 . S
H2671 C2655 0.960 . S
C2672 C2673 1.391 . S
C2672 C2674 1.394 . S
C2672 H2688 0.931 . S
C2673 C2672 1.391 . S
C2673 C2677 1.376 . S
C2674 C2672 1.394 . S
C2674 C2675 1.369 . S
C2674 C2678 1.531 . S
C2675 C2674 1.369 . S
C2675 C2676 1.410 . S
C2675 C2683 1.503 1_545 S
C2676 C2675 1.410 . S
C2676 C2677 1.392 . S
C2676 C2679 1.511 1_545 S
C2677 C2673 1.376 . S
C2677 C2676 1.392 . S
C2677 H2689 0.929 . S
C2678 C2674 1.531 . S
C2678 H2690 0.960 . S
C2678 H2691 0.962 . S
C2678 H2692 0.960 . S
C2679 C2676 1.511 1_565 S
C2679 H2693 0.961 . S
C2679 H2694 0.961 . S
C2679 H2695 0.961 1_565 S
C2680 C2681 1.370 . S
C2680 C2682 1.363 . S
C2680 H2696 0.931 . S
C2681 C2680 1.370 . S
C2681 C2685 1.408 . S
C2682 C2680 1.363 . S
C2682 C2683 1.370 . S
C2682 C2686 1.524 . S
C2683 C2675 1.503 1_565 S
C2683 C2682 1.370 . S
C2683 C2684 1.403 1_565 S
C2684 C2683 1.403 1_545 S
C2684 C2685 1.404 1_545 S
C2684 C2687 1.539 . S
C2685 C2681 1.408 . S
C2685 C2684 1.404 1_565 S
C2685 H2697 0.930 . S
C2686 C2682 1.524 . S
C2686 H2698 0.956 . S
C2686 H2699 0.961 . S
C2686 H2700 0.961 . S
C2687 C2684 1.539 . S
C2687 H2701 0.958 . S
C2687 H2702 0.961 . S
C2687 H2703 0.960 . S
H2688 C2672 0.931 . S
H2689 C2677 0.929 . S
H2690 C2678 0.960 . S
H2691 C2678 0.962 . S
H2692 C2678 0.960 . S
H2693 C2679 0.961 . S
H2694 C2679 0.961 . S
H2695 C2679 0.961 1_545 S
H2696 C2680 0.931 . S
H2697 C2685 0.930 . S
H2698 C2686 0.956 . S
H2699 C2686 0.961 . S
H2700 C2686 0.961 . S
H2701 C2687 0.958 . S
H2702 C2687 0.961 . S
H2703 C2687 0.960 . S
C2704 C2705 1.391 . S
C2704 C2706 1.394 . S
C2704 H2720 0.931 . S
C2705 C2704 1.391 . S
C2705 C2709 1.376 . S
C2706 C2704 1.394 . S
C2706 C2707 1.369 . S
C2706 C2710 1.531 . S
C2707 C2706 1.369 . S
C2707 C2708 1.410 . S
C2707 C2715 1.503 . S
C2708 C2707 1.410 . S
C2708 C2709 1.392 . S
C2708 C2711 1.511 . S
C2709 C2705 1.376 . S
C2709 C2708 1.392 . S
C2709 H2721 0.929 . S
C2710 C2706 1.531 . S
C2710 H2722 0.960 . S
C2710 H2723 0.962 . S
C2710 H2724 0.960 . S
C2711 C2708 1.511 . S
C2711 H2725 0.961 . S
C2711 H2726 0.961 . S
C2711 H2727 0.961 . S
C2712 C2713 1.370 . S
C2712 C2714 1.363 . S
C2712 H2728 0.931 . S
C2713 C2712 1.370 . S
C2713 C2717 1.408 . S
C2714 C2712 1.363 . S
C2714 C2715 1.370 . S
C2714 C2718 1.524 . S
C2715 C2707 1.503 . S
C2715 C2714 1.370 . S
C2715 C2716 1.403 . S
C2716 C2715 1.403 . S
C2716 C2717 1.404 . S
C2716 C2719 1.539 . S
C2717 C2713 1.408 . S
C2717 C2716 1.404 . S
C2717 H2729 0.930 . S
C2718 C2714 1.524 . S
C2718 H2730 0.956 . S
C2718 H2731 0.961 . S
C2718 H2732 0.961 . S
C2719 C2716 1.539 . S
C2719 H2733 0.958 . S
C2719 H2734 0.961 . S
C2719 H2735 0.960 . S
H2720 C2704 0.931 . S
H2721 C2709 0.929 . S
H2722 C2710 0.960 . S
H2723 C2710 0.962 . S
H2724 C2710 0.960 . S
H2725 C2711 0.961 . S
H2726 C2711 0.961 . S
H2727 C2711 0.961 . S
H2728 C2712 0.931 . S
H2729 C2717 0.930 . S
H2730 C2718 0.956 . S
H2731 C2718 0.961 . S
H2732 C2718 0.961 . S
H2733 C2719 0.958 . S
H2734 C2719 0.961 . S
H2735 C2719 0.960 . S
C817 C451 1.546 . S
C825 C20 1.639 . S
C849 C54 1.627 . S
C857 C485 1.505 . S
C881 C88 1.640 . S
C889 C519 1.518 . S
C913 C417 1.524 . S
C921 C122 1.635 . S
C945 C383 1.463 . S
C953 C156 1.624 . S
C977 C281 1.540 1_565 S
C985 C190 1.638 . S
C1009 C224 1.646 . S
C1017 C315 1.524 . S
C1041 C349 1.456 1_545 S
C1049 C258 1.622 . S
C1073 C292 1.607 . S
C1081 C43 1.487 . S
C1105 C326 1.613 . S
C1113 C77 1.491 . S
C1137 C360 1.615 . S
C1145 C111 1.493 . S
C1169 C9 1.458 1_655 S
C1177 C394 1.622 . S
C1201 C247 1.526 . S
C1209 C428 1.634 . S
C1233 C462 1.645 . S
C1241 C145 1.524 . S
C1265 C496 1.608 . S
C1273 C179 1.488 . S
C1297 C213 1.526 1_455 S
C1305 C530 1.634 . S
C1329 C757 1.507 . S
C1337 C564 1.631 . S
C1361 C598 1.633 . S
C1369 C621 1.513 . S
C1393 C632 1.616 . S
C1401 C655 1.497 . S
C1425 C689 1.456 . S
C1433 C666 1.622 . S
C1457 C700 1.631 . S
C1465 C587 1.511 1_554 S
C1489 C791 1.456 . S
C1497 C734 1.622 . S
C1521 C768 1.607 . S
C1529 C723 1.486 . S
C1553 C553 1.530 1_556 S
C1561 C802 1.635 . S
C1585 C549 1.236 . S
C1593 C33 1.210 . S
C1617 C787 1.230 . S
C1625 C67 1.207 . S
C1649 C101 1.190 . S
C1657 C719 1.227 . S
C1681 C753 1.214 . S
C1689 C135 1.212 . S
C1713 C583 1.202 . S
C1721 C169 1.217 . S
C1745 C617 1.237 . S
C1753 C203 1.206 . S
C1777 C651 1.225 . S
C1785 C237 1.208 . S
C1809 C271 1.232 . S
C1817 C685 1.205 . S
C1841 C305 1.200 . S
C1849 C5 1.225 . S
C1873 C339 1.205 . S
C1881 C39 1.215 . S
C1905 C373 1.203 . S
C1913 C73 1.224 . S
C1937 C407 1.188 . S
C1945 C107 1.226 . S
C1969 C441 1.193 . S
C1977 C141 1.226 . S
C2001 C175 1.211 . S
C2009 C475 1.213 . S
C2033 C209 1.213 . S
C2041 C509 1.212 . S
C2065 C543 1.199 . S
C2073 C243 1.218 . S
C2097 C277 1.239 . S
C2105 C577 1.207 . S
C2129 C413 1.235 . S
C2137 C611 1.206 . S
C2161 C447 1.231 . S
C2169 C645 1.207 . S
C2193 C481 1.217 . S
C2201 C679 1.211 . S
C2225 C713 1.232 . S
C2233 C515 1.212 . S
C2257 C747 1.237 . S
C2265 C345 1.204 . S
C2289 C781 1.240 . S
C2297 C379 1.205 . S
C2321 C311 1.187 . S
C2329 C815 1.227 . S
C2353 C682 1.188 . S
C2361 C2 1.188 . S
C2385 C36 1.179 . S
C2393 C580 1.184 . S
C2417 C614 1.195 . S
C2425 C70 1.190 . S
C2449 C104 1.189 . S
C2457 C648 1.188 . S
C2481 C784 1.168 . S
C2489 C138 1.178 . S
C2513 C716 1.191 . S
C2521 C172 1.189 . S
C2545 C206 1.171 . S
C2553 C750 1.181 . S
C2577 C546 1.180 . S
C2585 C240 1.182 . S
C2609 C512 1.167 . S
C2617 C274 1.179 . S
C2641 C410 1.166 . S
C2649 C308 1.178 . S
C2673 C444 1.195 . S
C2681 C342 1.190 . S
C2705 C478 1.193 . S
C2713 C376 1.188 . S
