# Generated by pormake.
# Topology fnd, (5)-cn, num edge types: 1
# Building blocks:
#     Node 0, Type 0, BuildingBlock: BEQFEK_clean_sbu_0, # of connection points: 5
#     Node 1, Type 0, BuildingBlock: BEQFEK_clean_sbu_0, # of connection points: 5
#     Node 2, Type 0, BuildingBlock: BEQFEK_clean_sbu_0, # of connection points: 5
#     Node 3, Type 0, BuildingBlock: BEQFEK_clean_sbu_0, # of connection points: 5
#     Node 4, Type 0, BuildingBlock: BEQFEK_clean_sbu_0, # of connection points: 5
#     Node 5, Type 0, BuildingBlock: BEQFEK_clean_sbu_0, # of connection points: 5
#     Node 6, Type 0, BuildingBlock: BEQFEK_clean_sbu_0, # of connection points: 5
#     Node 7, Type 0, BuildingBlock: BEQFEK_clean_sbu_0, # of connection points: 5
#     Node 8, Type 0, BuildingBlock: BEQFEK_clean_sbu_0, # of connection points: 5
#     Node 9, Type 0, BuildingBlock: BEQFEK_clean_sbu_0, # of connection points: 5
#     Node 10, Type 0, BuildingBlock: BEQFEK_clean_sbu_0, # of connection points: 5
#     Node 11, Type 0, BuildingBlock: BEQFEK_clean_sbu_0, # of connection points: 5
#     Node 12, Type 0, BuildingBlock: BEQFEK_clean_sbu_0, # of connection points: 5
#     Node 13, Type 0, BuildingBlock: BEQFEK_clean_sbu_0, # of connection points: 5
#     Node 14, Type 0, BuildingBlock: BEQFEK_clean_sbu_0, # of connection points: 5
#     Node 15, Type 0, BuildingBlock: BEQFEK_clean_sbu_0, # of connection points: 5
#     Node 16, Type 0, BuildingBlock: BEQFEK_clean_sbu_0, # of connection points: 5
#     Node 17, Type 0, BuildingBlock: BEQFEK_clean_sbu_0, # of connection points: 5
#     Edge 18, Type (0, 0), BuildingBlock: XUDNAN_clean_linker_2, # of connection points: 2
#     Edge 19, Type (0, 0), BuildingBlock: XUDNAN_clean_linker_2, # of connection points: 2
#     Edge 20, Type (0, 0), BuildingBlock: XUDNAN_clean_linker_2, # of connection points: 2
#     Edge 21, Type (0, 0), BuildingBlock: XUDNAN_clean_linker_2, # of connection points: 2
#     Edge 22, Type (0, 0), BuildingBlock: XUDNAN_clean_linker_2, # of connection points: 2
#     Edge 23, Type (0, 0), BuildingBlock: XUDNAN_clean_linker_2, # of connection points: 2
#     Edge 24, Type (0, 0), BuildingBlock: XUDNAN_clean_linker_2, # of connection points: 2
#     Edge 25, Type (0, 0), BuildingBlock: XUDNAN_clean_linker_2, # of connection points: 2
#     Edge 26, Type (0, 0), BuildingBlock: XUDNAN_clean_linker_2, # of connection points: 2
#     Edge 27, Type (0, 0), BuildingBlock: XUDNAN_clean_linker_2, # of connection points: 2
#     Edge 28, Type (0, 0), BuildingBlock: XUDNAN_clean_linker_2, # of connection points: 2
#     Edge 29, Type (0, 0), BuildingBlock: XUDNAN_clean_linker_2, # of connection points: 2
#     Edge 30, Type (0, 0), BuildingBlock: XUDNAN_clean_linker_2, # of connection points: 2
#     Edge 31, Type (0, 0), BuildingBlock: XUDNAN_clean_linker_2, # of connection points: 2
#     Edge 32, Type (0, 0), BuildingBlock: XUDNAN_clean_linker_2, # of connection points: 2
#     Edge 33, Type (0, 0), BuildingBlock: XUDNAN_clean_linker_2, # of connection points: 2
#     Edge 34, Type (0, 0), BuildingBlock: XUDNAN_clean_linker_2, # of connection points: 2
#     Edge 35, Type (0, 0), BuildingBlock: XUDNAN_clean_linker_2, # of connection points: 2
#     Edge 36, Type (0, 0), BuildingBlock: XUDNAN_clean_linker_2, # of connection points: 2
#     Edge 37, Type (0, 0), BuildingBlock: XUDNAN_clean_linker_2, # of connection points: 2
#     Edge 38, Type (0, 0), BuildingBlock: XUDNAN_clean_linker_2, # of connection points: 2
#     Edge 39, Type (0, 0), BuildingBlock: XUDNAN_clean_linker_2, # of connection points: 2
#     Edge 40, Type (0, 0), BuildingBlock: XUDNAN_clean_linker_2, # of connection points: 2
#     Edge 41, Type (0, 0), BuildingBlock: XUDNAN_clean_linker_2, # of connection points: 2
#     Edge 42, Type (0, 0), BuildingBlock: XUDNAN_clean_linker_2, # of connection points: 2
#     Edge 43, Type (0, 0), BuildingBlock: XUDNAN_clean_linker_2, # of connection points: 2
#     Edge 44, Type (0, 0), BuildingBlock: XUDNAN_clean_linker_2, # of connection points: 2
#     Edge 45, Type (0, 0), BuildingBlock: XUDNAN_clean_linker_2, # of connection points: 2
#     Edge 46, Type (0, 0), BuildingBlock: XUDNAN_clean_linker_2, # of connection points: 2
#     Edge 47, Type (0, 0), BuildingBlock: XUDNAN_clean_linker_2, # of connection points: 2
#     Edge 48, Type (0, 0), BuildingBlock: XUDNAN_clean_linker_2, # of connection points: 2
#     Edge 49, Type (0, 0), BuildingBlock: XUDNAN_clean_linker_2, # of connection points: 2
#     Edge 50, Type (0, 0), BuildingBlock: XUDNAN_clean_linker_2, # of connection points: 2
#     Edge 51, Type (0, 0), BuildingBlock: XUDNAN_clean_linker_2, # of connection points: 2
#     Edge 52, Type (0, 0), BuildingBlock: XUDNAN_clean_linker_2, # of connection points: 2
#     Edge 53, Type (0, 0), BuildingBlock: XUDNAN_clean_linker_2, # of connection points: 2
#     Edge 54, Type (0, 0), BuildingBlock: XUDNAN_clean_linker_2, # of connection points: 2
#     Edge 55, Type (0, 0), BuildingBlock: XUDNAN_clean_linker_2, # of connection points: 2
#     Edge 56, Type (0, 0), BuildingBlock: XUDNAN_clean_linker_2, # of connection points: 2
#     Edge 57, Type (0, 0), BuildingBlock: XUDNAN_clean_linker_2, # of connection points: 2
#     Edge 58, Type (0, 0), BuildingBlock: XUDNAN_clean_linker_2, # of connection points: 2
#     Edge 59, Type (0, 0), BuildingBlock: XUDNAN_clean_linker_2, # of connection points: 2
#     Edge 60, Type (0, 0), BuildingBlock: XUDNAN_clean_linker_2, # of connection points: 2
#     Edge 61, Type (0, 0), BuildingBlock: XUDNAN_clean_linker_2, # of connection points: 2
#     Edge 62, Type (0, 0), BuildingBlock: XUDNAN_clean_linker_2, # of connection points: 2
# Relax obj value: 0.146
# Max RMSD: 0.197
# Mean RMSD: 0.197
data_MOF--net-fnd--node1-BEQFEK_clean_sbu_0--edge1-XUDNAN_clean_linker_2
_symmetry_space_group_name_H-M    P1
_symmetry_Int_Tables_number       1
_symmetry_cell_setting            triclinic
loop_
_symmetry_equiv_pos_as_xyz
'x, y, z'
_cell_length_a     80.124273
_cell_length_b     80.111011
_cell_length_c     19.229356
_cell_angle_alpha  90.058251
_cell_angle_beta   89.942194
_cell_angle_gamma 120.01023
loop_
_atom_site_label
_atom_site_type_symbol
_atom_site_fract_x
_atom_site_fract_y
_atom_site_fract_z
_atom_type_partial_charge
Co0 Co 0.10653 0.21341 0.51043 0.0
Co1 Co 0.10322 0.20968 0.35032 0.0
C2 C 0.12181 0.19161 0.43075 0.0
O3 O 0.11879 0.19764 0.48799 0.0
O4 O 0.11654 0.19532 0.37318 0.0
C5 C 0.12716 0.22387 0.63793 0.0
O6 O 0.14172 0.22598 0.5999 0.0
C7 C 0.11275 0.21266 0.2006 0.0
C8 C 0.08865 0.21541 0.15748 0.0
C9 C 0.10543 0.21552 0.13923 0.0
N10 N 0.10103 0.21144 0.2529 0.0
N11 N 0.08658 0.21289 0.2266 0.0
C12 C 0.13007 0.21037 0.2092 0.0
H13 H 0.12792 0.2005 0.25261 0.0
H14 H 0.14285 0.22457 0.22115 0.0
H15 H 0.13295 0.20456 0.16111 0.0
C16 C 0.1282 0.25554 0.47294 0.0
N17 N 0.11766 0.2366 0.45694 0.0
N18 N 0.1163 0.23477 0.38884 0.0
C19 C 0.12593 0.25239 0.35956 0.0
C20 C 0.13378 0.26607 0.41166 0.0
C21 C 0.13374 0.2634 0.545 0.0
H22 H 0.14575 0.26138 0.5631 0.0
H23 H 0.13859 0.27903 0.54634 0.0
H24 H 0.12134 0.25551 0.58074 0.0
O25 O 0.07789 0.19787 0.49861 0.0
O26 O 0.07658 0.1953 0.38401 0.0
H27 H 0.1362 0.27185 0.2713 0.0
H28 H 0.13621 0.2495 0.26028 0.0
C29 C 0.12824 0.25619 0.28297 0.0
H30 H 0.11386 0.2497 0.25822 0.0
H31 H 0.07549 0.21255 0.25618 0.0
O32 O 0.11118 0.21929 0.60916 0.0
C33 C 0.0682 0.19161 0.44272 0.0
Co34 Co 0.78118 0.89491 0.54579 0.0
Co35 Co 0.79107 0.89269 0.3902 0.0
C36 C 0.80488 0.93067 0.46344 0.0
O37 O 0.79668 0.92236 0.51995 0.0
O38 O 0.80384 0.92099 0.40925 0.0
C39 C 0.78161 0.90532 0.68687 0.0
O40 O 0.79826 0.92007 0.66834 0.0
C41 C 0.78886 0.89661 0.23956 0.0
C42 C 0.7934 0.87317 0.20096 0.0
C43 C 0.78895 0.887 0.1799 0.0
N44 N 0.79293 0.88871 0.29382 0.0
N45 N 0.79604 0.87499 0.27023 0.0
C46 C 0.78296 0.91155 0.24588 0.0
H47 H 0.77827 0.91204 0.29981 0.0
H48 H 0.77119 0.90856 0.20872 0.0
H49 H 0.79548 0.92585 0.23285 0.0
C50 C 0.74137 0.87144 0.49175 0.0
N51 N 0.76061 0.88142 0.48251 0.0
N52 N 0.76461 0.87998 0.41713 0.0
C53 C 0.74795 0.86875 0.38285 0.0
C54 C 0.73269 0.86309 0.42886 0.0
C55 C 0.73164 0.87023 0.55952 0.0
H56 H 0.73831 0.88472 0.58385 0.0
H57 H 0.71598 0.86463 0.55257 0.0
H58 H 0.73376 0.86057 0.59519 0.0
O59 O 0.79774 0.88307 0.5496 0.0
O60 O 0.80461 0.88115 0.43927 0.0
H61 H 0.73243 0.8491 0.2984 0.0
H62 H 0.74886 0.87362 0.27331 0.0
C63 C 0.74667 0.86193 0.30947 0.0
H64 H 0.75796 0.85809 0.29989 0.0
H65 H 0.79894 0.86617 0.30188 0.0
O66 O 0.77132 0.89291 0.64133 0.0
C67 C 0.80598 0.87828 0.50354 0.0
Co68 Co 0.10855 0.89705 0.50834 0.0
Co69 Co 0.10507 0.89602 0.34878 0.0
C70 C 0.06996 0.88032 0.4303 0.0
O71 O 0.0803 0.88464 0.48504 0.0
O72 O 0.07756 0.88386 0.37002 0.0
C73 C 0.09668 0.88765 0.64929 0.0
O74 O 0.08169 0.889 0.62988 0.0
C75 C 0.10043 0.88735 0.19809 0.0
C76 C 0.13093 0.9055 0.16616 0.0
C77 C 0.11288 0.89203 0.14212 0.0
N78 N 0.11085 0.89747 0.25331 0.0
N79 N 0.12896 0.90847 0.23357 0.0
C80 C 0.07957 0.87225 0.20085 0.0
H81 H 0.07565 0.86583 0.25357 0.0
H82 H 0.07621 0.86078 0.1618 0.0
H83 H 0.07076 0.87904 0.18906 0.0
C84 C 0.13297 0.87978 0.4726 0.0
N85 N 0.12077 0.88614 0.45627 0.0
N86 N 0.11608 0.88258 0.39071 0.0
C87 C 0.12365 0.8723 0.36396 0.0
C88 C 0.13528 0.8705 0.41433 0.0
C89 C 0.14346 0.88447 0.54058 0.0
H90 H 0.14366 0.89713 0.56496 0.0
H91 H 0.13593 0.87203 0.57639 0.0
H92 H 0.15855 0.88778 0.53315 0.0
O93 O 0.12158 0.92517 0.49367 0.0
O94 O 0.11843 0.92347 0.3791 0.0
H95 H 0.12783 0.87198 0.25395 0.0
H96 H 0.1174 0.84854 0.2951 0.0
C97 C 0.11768 0.86253 0.29462 0.0
H98 H 0.10305 0.85972 0.28134 0.0
H99 H 0.14014 0.91741 0.26708 0.0
O100 O 0.11005 0.89129 0.60607 0.0
C101 C 0.12425 0.93335 0.43482 0.0
Co102 Co 0.22468 0.11461 0.43917 0.0
Co103 Co 0.2099 0.10562 0.59383 0.0
C104 C 0.19763 0.12697 0.50066 0.0
O105 O 0.20762 0.1253 0.45251 0.0
O106 O 0.19719 0.12061 0.56203 0.0
C107 C 0.23158 0.12915 0.29832 0.0
O108 O 0.22536 0.14072 0.31868 0.0
C109 C 0.20507 0.10683 0.7494 0.0
C110 C 0.2022 0.07859 0.77424 0.0
C111 C 0.2031 0.09468 0.80481 0.0
N112 N 0.20558 0.09822 0.68967 0.0
N113 N 0.20366 0.0813 0.70536 0.0
C114 C 0.206 0.12594 0.75226 0.0
H115 H 0.20212 0.12942 0.7011 0.0
H116 H 0.22089 0.13735 0.76518 0.0
H117 H 0.19615 0.12584 0.79311 0.0
C118 C 0.26245 0.13067 0.50863 0.0
N119 N 0.24316 0.12261 0.51035 0.0
N120 N 0.23719 0.11928 0.5754 0.0
C121 C 0.25271 0.12538 0.61721 0.0
C122 C 0.26916 0.13279 0.57629 0.0
C123 C 0.27401 0.13553 0.4431 0.0
H124 H 0.2698 0.14379 0.40808 0.0
H125 H 0.28971 0.14404 0.45385 0.0
H126 H 0.2707 0.12198 0.41597 0.0
O127 O 0.20872 0.08661 0.43857 0.0
O128 O 0.19705 0.08 0.54538 0.0
H129 H 0.26629 0.1284 0.71762 0.0
H130 H 0.24471 0.13014 0.71799 0.0
C131 C 0.25177 0.12265 0.69435 0.0
H132 H 0.24306 0.10708 0.70659 0.0
H133 H 0.20388 0.07175 0.66901 0.0
O134 O 0.23523 0.11983 0.34353 0.0
C135 C 0.19811 0.07455 0.48422 0.0
Co136 Co 0.88878 0.11209 0.48087 0.0
Co137 Co 0.89685 0.10317 0.63344 0.0
C138 C 0.87417 0.07115 0.5378 0.0
O139 O 0.87653 0.08376 0.49234 0.0
O140 O 0.88088 0.07598 0.59952 0.0
C141 C 0.875 0.1057 0.33867 0.0
O142 O 0.86346 0.08774 0.35735 0.0
C143 C 0.89771 0.09754 0.7908 0.0
C144 C 0.92306 0.12613 0.81171 0.0
C145 C 0.9091 0.10968 0.84465 0.0
N146 N 0.90461 0.10683 0.72962 0.0
N147 N 0.91989 0.12375 0.74318 0.0
C148 C 0.88094 0.07751 0.79684 0.0
H149 H 0.87814 0.06987 0.74628 0.0
H150 H 0.86786 0.07806 0.81195 0.0
H151 H 0.88376 0.06946 0.83772 0.0
C152 C 0.87497 0.13507 0.56106 0.0
N153 N 0.88215 0.12305 0.55556 0.0
N154 N 0.88355 0.1172 0.61797 0.0
C155 C 0.876 0.12408 0.66458 0.0
C156 C 0.87088 0.13631 0.6311 0.0
C157 C 0.87306 0.14567 0.50045 0.0
H158 H 0.88273 0.14654 0.45757 0.0
H159 H 0.85799 0.13778 0.48117 0.0
H160 H 0.8766 0.16043 0.51597 0.0
O161 O 0.91635 0.12239 0.47951 0.0
O162 O 0.9226 0.11549 0.58412 0.0
H163 H 0.88337 0.1248 0.77204 0.0
H164 H 0.85826 0.11716 0.75698 0.0
C165 C 0.87088 0.11643 0.73714 0.0
H166 H 0.86717 0.10114 0.73756 0.0
H167 H 0.92782 0.13406 0.70542 0.0
O168 O 0.88403 0.11838 0.38531 0.0
C169 C 0.92815 0.12254 0.52359 0.0
Co170 Co 0.89124 0.78618 0.48874 0.0
Co171 Co 0.90064 0.79507 0.64744 0.0
C172 C 0.93185 0.81276 0.5468 0.0
O173 O 0.91879 0.80472 0.50097 0.0
O174 O 0.92779 0.8099 0.61141 0.0
C175 C 0.90283 0.77657 0.36437 0.0
O176 O 0.91613 0.77742 0.4065 0.0
C177 C 0.91008 0.79504 0.798 0.0
C178 C 0.88487 0.79517 0.84399 0.0
C179 C 0.90113 0.79419 0.8615 0.0
N180 N 0.89924 0.79606 0.74645 0.0
N181 N 0.88438 0.7964 0.77461 0.0
C182 C 0.92776 0.79363 0.78508 0.0
H183 H 0.94069 0.80748 0.79941 0.0
H184 H 0.92888 0.7908 0.72925 0.0
H185 H 0.92744 0.78197 0.81714 0.0
C186 C 0.87443 0.74601 0.53966 0.0
N187 N 0.88357 0.76519 0.55031 0.0
N188 N 0.88768 0.76877 0.61688 0.0
C189 C 0.88108 0.75186 0.65077 0.0
C190 C 0.87251 0.73689 0.60295 0.0
C191 C 0.86739 0.73667 0.47024 0.0
H192 H 0.862 0.74474 0.43969 0.0
H193 H 0.87958 0.73707 0.44132 0.0
H194 H 0.85578 0.72143 0.4759 0.0
O195 O 0.87671 0.79974 0.50585 0.0
O196 O 0.88602 0.80771 0.61527 0.0
H197 H 0.87689 0.75658 0.75731 0.0
H198 H 0.8783 0.73503 0.74324 0.0
C199 C 0.88402 0.75016 0.72671 0.0
H200 H 0.89962 0.75821 0.73812 0.0
H201 H 0.87351 0.79681 0.74625 0.0
O202 O 0.88916 0.77848 0.38944 0.0
C203 C 0.877 0.80838 0.56181 0.0
Co204 Co 0.78017 0.55205 0.86378 0.0
Co205 Co 0.76908 0.54331 0.70644 0.0
C206 C 0.79056 0.52689 0.78527 0.0
O207 O 0.79139 0.53563 0.84156 0.0
O208 O 0.78215 0.52853 0.73163 0.0
C209 C 0.80101 0.56356 0.99506 0.0
O210 O 0.81559 0.56416 0.96154 0.0
C211 C 0.77876 0.54534 0.55722 0.0
C212 C 0.75275 0.54314 0.50886 0.0
C213 C 0.77101 0.54627 0.49352 0.0
N214 N 0.76588 0.54244 0.60758 0.0
N215 N 0.75026 0.54082 0.57809 0.0
C216 C 0.79786 0.54676 0.57035 0.0
H217 H 0.79723 0.53846 0.61705 0.0
H218 H 0.80897 0.56202 0.57951 0.0
H219 H 0.80227 0.54119 0.52525 0.0
C220 C 0.80152 0.59242 0.80879 0.0
N221 N 0.78944 0.57327 0.8014 0.0
N222 N 0.78406 0.56952 0.73583 0.0
C223 C 0.7922 0.58622 0.70003 0.0
C224 C 0.80376 0.60119 0.74448 0.0
C225 C 0.81178 0.60179 0.87481 0.0
H226 H 0.82197 0.59669 0.88767 0.0
H227 H 0.81989 0.61774 0.87024 0.0
H228 H 0.80119 0.59745 0.91787 0.0
O229 O 0.75158 0.53638 0.86069 0.0
O230 O 0.74318 0.53091 0.74964 0.0
H231 H 0.79228 0.60317 0.61257 0.0
H232 H 0.79786 0.58464 0.59221 0.0
C233 C 0.78866 0.58819 0.62484 0.0
H234 H 0.77333 0.57834 0.61188 0.0
H235 H 0.73814 0.53881 0.6055 0.0
O236 O 0.78582 0.55992 0.96213 0.0
C237 C 0.73867 0.52911 0.81377 0.0
Co238 Co 0.4495 0.22766 0.86323 0.0
Co239 Co 0.46083 0.22497 0.70912 0.0
C240 C 0.47379 0.26315 0.77951 0.0
O241 O 0.46492 0.25504 0.83545 0.0
O242 O 0.47343 0.25326 0.72685 0.0
C243 C 0.45096 0.23737 0.00436 0.0
O244 O 0.46823 0.25087 0.98495 0.0
C245 C 0.46126 0.22912 0.55664 0.0
C246 C 0.46228 0.20325 0.52315 0.0
C247 C 0.46037 0.21844 0.49856 0.0
N248 N 0.46331 0.22044 0.61319 0.0
N249 N 0.46445 0.20529 0.59255 0.0
C250 C 0.45769 0.24575 0.55927 0.0
H251 H 0.45195 0.24655 0.61094 0.0
H252 H 0.44749 0.24448 0.51779 0.0
H253 H 0.47153 0.25929 0.55062 0.0
C254 C 0.41014 0.2029 0.80601 0.0
N255 N 0.42944 0.21344 0.79878 0.0
N256 N 0.43413 0.21222 0.73407 0.0
C257 C 0.41788 0.20078 0.69811 0.0
C258 C 0.40217 0.19442 0.74246 0.0
C259 C 0.39983 0.20012 0.87363 0.0
H260 H 0.40583 0.19438 0.91275 0.0
H261 H 0.40245 0.2143 0.89282 0.0
H262 H 0.3841 0.19009 0.86848 0.0
O263 O 0.46639 0.21638 0.87048 0.0
O264 O 0.47428 0.21382 0.76213 0.0
H265 H 0.42566 0.18917 0.61184 0.0
H266 H 0.40238 0.18733 0.60257 0.0
C267 C 0.41727 0.19648 0.62204 0.0
H268 H 0.42376 0.21015 0.5926 0.0
H269 H 0.46549 0.19566 0.62628 0.0
O270 O 0.43944 0.22594 0.95866 0.0
C271 C 0.47516 0.21146 0.82719 0.0
Co272 Co 0.78003 0.2336 0.88421 0.0
Co273 Co 0.76825 0.22449 0.7296 0.0
C274 C 0.73806 0.21372 0.83068 0.0
O275 O 0.7517 0.22113 0.87485 0.0
O276 O 0.74155 0.21331 0.76619 0.0
C277 C 0.77562 0.21843 0.01929 0.0
O278 O 0.76803 0.20191 0.986 0.0
C279 C 0.75705 0.2157 0.58046 0.0
C280 C 0.78516 0.22172 0.53751 0.0
C281 C 0.76635 0.21587 0.5193 0.0
N282 N 0.76981 0.22087 0.63279 0.0
N283 N 0.78659 0.22464 0.60645 0.0
C284 C 0.7366 0.21094 0.58927 0.0
H285 H 0.73634 0.22428 0.60291 0.0
H286 H 0.72992 0.20066 0.63298 0.0
H287 H 0.72813 0.20465 0.54106 0.0
C288 C 0.8011 0.21267 0.84976 0.0
N289 N 0.78902 0.2193 0.83533 0.0
N290 N 0.7811 0.21283 0.77445 0.0
C291 C 0.78638 0.20036 0.75056 0.0
C292 C 0.80001 0.20029 0.79593 0.0
C293 C 0.81424 0.21948 0.91144 0.0
H294 H 0.81531 0.23285 0.93296 0.0
H295 H 0.80831 0.20827 0.95254 0.0
H296 H 0.82884 0.22236 0.89683 0.0
O297 O 0.79204 0.25987 0.85042 0.0
O298 O 0.78281 0.25349 0.74042 0.0
H299 H 0.78399 0.19215 0.64277 0.0
H300 H 0.77463 0.17232 0.70291 0.0
C301 C 0.77601 0.18657 0.69217 0.0
H302 H 0.76143 0.18474 0.68531 0.0
H303 H 0.79913 0.2294 0.6357 0.0
O304 O 0.78356 0.23408 0.98516 0.0
C305 C 0.79151 0.26554 0.78932 0.0
Co306 Co 0.89091 0.44721 0.75942 0.0
Co307 Co 0.87732 0.4378 0.91554 0.0
C308 C 0.86444 0.4595 0.82853 0.0
O309 O 0.87378 0.45779 0.77815 0.0
O310 O 0.86473 0.45311 0.88898 0.0
C311 C 0.89353 0.45994 0.61951 0.0
O312 O 0.87879 0.46168 0.63923 0.0
C313 C 0.876 0.44147 0.06915 0.0
C314 C 0.87357 0.41379 0.10031 0.0
C315 C 0.87655 0.43118 0.12638 0.0
N316 N 0.87346 0.43081 0.01172 0.0
N317 N 0.87134 0.41404 0.03119 0.0
C318 C 0.8802 0.46189 0.06818 0.0
H319 H 0.88399 0.46795 0.01485 0.0
H320 H 0.89206 0.47086 0.10481 0.0
H321 H 0.86717 0.46224 0.08562 0.0
C322 C 0.92928 0.46243 0.82547 0.0
N323 N 0.91 0.45473 0.82918 0.0
N324 N 0.90446 0.451 0.89463 0.0
C325 C 0.92018 0.4562 0.93452 0.0
C326 C 0.93636 0.46349 0.89217 0.0
C327 C 0.9403 0.46718 0.75868 0.0
H328 H 0.93334 0.45459 0.72316 0.0
H329 H 0.93974 0.4793 0.73311 0.0
H330 H 0.95555 0.47119 0.7672 0.0
O331 O 0.8749 0.41895 0.75653 0.0
O332 O 0.86434 0.4126 0.86526 0.0
H333 H 0.91098 0.43918 0.02727 0.0
H334 H 0.93452 0.46034 0.03439 0.0
C335 C 0.91991 0.4545 0.01207 0.0
H336 H 0.91368 0.46286 0.03456 0.0
H337 H 0.86982 0.40329 0.99675 0.0
O338 O 0.90197 0.455 0.66415 0.0
C339 C 0.86475 0.40702 0.80355 0.0
Co340 Co 0.56217 0.44492 0.78913 0.0
Co341 Co 0.55927 0.43532 0.94741 0.0
C342 C 0.5447 0.40375 0.84958 0.0
O343 O 0.55065 0.41665 0.80256 0.0
O344 O 0.54628 0.40827 0.91374 0.0
C345 C 0.54084 0.43488 0.66596 0.0
O346 O 0.5278 0.42238 0.70879 0.0
C347 C 0.54954 0.42667 0.0986 0.0
C348 C 0.57363 0.45337 0.14238 0.0
C349 C 0.55718 0.43644 0.16137 0.0
N350 N 0.56093 0.43765 0.04624 0.0
N351 N 0.57535 0.45345 0.0731 0.0
C352 C 0.53141 0.40788 0.08695 0.0
H353 H 0.52779 0.40557 0.03082 0.0
H354 H 0.51927 0.40762 0.11579 0.0
H355 H 0.53342 0.39593 0.1058 0.0
C356 C 0.54437 0.46753 0.83808 0.0
N357 N 0.55057 0.45495 0.8486 0.0
N358 N 0.5469 0.4487 0.91285 0.0
C359 C 0.53681 0.4559 0.94419 0.0
C360 C 0.53512 0.46862 0.89856 0.0
C361 C 0.54922 0.47946 0.77336 0.0
H362 H 0.56193 0.48017 0.74734 0.0
H363 H 0.53689 0.47265 0.73672 0.0
H364 H 0.55246 0.49432 0.78551 0.0
O365 O 0.58986 0.45755 0.80694 0.0
O366 O 0.58713 0.44906 0.9179 0.0
H367 H 0.53735 0.45787 0.05532 0.0
H368 H 0.51372 0.44929 0.01695 0.0
C369 C 0.52734 0.44889 0.01345 0.0
H370 H 0.52379 0.43381 0.02111 0.0
H371 H 0.58618 0.46454 0.04381 0.0
O372 O 0.55711 0.44752 0.69004 0.0
C373 C 0.5975 0.45732 0.86457 0.0
Co374 Co 0.56197 0.12057 0.85753 0.0
Co375 Co 0.56305 0.12521 0.01901 0.0
C376 C 0.59926 0.14316 0.93711 0.0
O377 O 0.58972 0.13695 0.88097 0.0
O378 O 0.5908 0.13946 0.99581 0.0
C379 C 0.57502 0.11266 0.73111 0.0
O380 O 0.58913 0.11453 0.77108 0.0
C381 C 0.57023 0.12124 0.1659 0.0
C382 C 0.54802 0.12557 0.21744 0.0
C383 C 0.56276 0.12171 0.23079 0.0
N384 N 0.56027 0.1246 0.11714 0.0
N385 N 0.54711 0.1273 0.14826 0.0
C386 C 0.58552 0.11634 0.14901 0.0
H387 H 0.58388 0.11103 0.09469 0.0
H388 H 0.5848 0.10525 0.18534 0.0
H389 H 0.59988 0.12951 0.1538 0.0
C390 C 0.53927 0.07914 0.89725 0.0
N391 N 0.55004 0.09797 0.91355 0.0
N392 N 0.55062 0.09988 0.98166 0.0
C393 C 0.54025 0.0823 0.01087 0.0
C394 C 0.5328 0.06857 0.95842 0.0
C395 C 0.53502 0.07161 0.82437 0.0
H396 H 0.54876 0.07571 0.79729 0.0
H397 H 0.52574 0.05569 0.82294 0.0
H398 H 0.52789 0.07841 0.79605 0.0
O399 O 0.54859 0.13577 0.86901 0.0
O400 O 0.55054 0.13935 0.98361 0.0
H401 H 0.52431 0.06384 0.09772 0.0
H402 H 0.54893 0.08186 0.11555 0.0
C403 C 0.53573 0.07888 0.08688 0.0
H404 H 0.53087 0.08877 0.10634 0.0
H405 H 0.53733 0.13006 0.12217 0.0
O406 O 0.56114 0.11389 0.75792 0.0
C407 C 0.5454 0.1424 0.92461 0.0
Co408 Co 0.44048 0.88038 0.17383 0.0
Co409 Co 0.43602 0.87377 0.01293 0.0
C410 C 0.45831 0.86039 0.09561 0.0
O411 O 0.45432 0.86614 0.15162 0.0
O412 O 0.45246 0.8628 0.03701 0.0
C413 C 0.46176 0.89082 0.30018 0.0
O414 O 0.47488 0.89032 0.26062 0.0
C415 C 0.44621 0.87667 0.86479 0.0
C416 C 0.41887 0.87055 0.81508 0.0
C417 C 0.43769 0.8753 0.8003 0.0
N418 N 0.43303 0.87306 0.91458 0.0
N419 N 0.41668 0.86922 0.88451 0.0
C420 C 0.46681 0.88283 0.88022 0.0
H421 H 0.46898 0.87026 0.8746 0.0
H422 H 0.4705 0.88823 0.9344 0.0
H423 H 0.47659 0.89428 0.84363 0.0
C424 C 0.45612 0.9212 0.1276 0.0
N425 N 0.44873 0.90223 0.11469 0.0
N426 N 0.44654 0.89932 0.04708 0.0
C427 C 0.45223 0.91626 0.01494 0.0
C428 C 0.45848 0.93069 0.06477 0.0
C429 C 0.45995 0.92979 0.19891 0.0
H430 H 0.4472 0.9212 0.23251 0.0
H431 H 0.47228 0.92909 0.22192 0.0
H432 H 0.46334 0.94502 0.19777 0.0
O433 O 0.41206 0.86259 0.1653 0.0
O434 O 0.41003 0.8573 0.05156 0.0
H435 H 0.43736 0.90922 0.91738 0.0
H436 H 0.45716 0.93374 0.92226 0.0
C437 C 0.45213 0.91864 0.93771 0.0
H438 H 0.46186 0.91426 0.91342 0.0
H439 H 0.40413 0.86604 0.9115 0.0
O440 O 0.44612 0.88803 0.27285 0.0
C441 C 0.40219 0.85421 0.1113 0.0
Co442 Co 0.12124 0.56099 0.15876 0.0
Co443 Co 0.12773 0.56359 0.99799 0.0
C444 C 0.14155 0.59908 0.08304 0.0
O445 O 0.13587 0.58917 0.13862 0.0
O446 O 0.13902 0.591 0.02393 0.0
C447 C 0.11042 0.57138 0.2853 0.0
O448 O 0.11071 0.5849 0.24585 0.0
C449 C 0.12348 0.57045 0.85063 0.0
C450 C 0.13214 0.55125 0.79929 0.0
C451 C 0.12549 0.56392 0.78564 0.0
N452 N 0.12855 0.56185 0.89957 0.0
N453 N 0.13388 0.55055 0.86854 0.0
C454 C 0.11557 0.5834 0.86743 0.0
H455 H 0.11058 0.58138 0.92226 0.0
H456 H 0.10345 0.58048 0.83216 0.0
H457 H 0.12712 0.59863 0.86083 0.0
C458 C 0.0803 0.53684 0.1125 0.0
N459 N 0.0993 0.54805 0.09938 0.0
N460 N 0.10209 0.54895 0.03162 0.0
C461 C 0.08499 0.53823 -0.00037 0.0
C462 C 0.07061 0.53042 0.0496 0.0
C463 C 0.07173 0.53273 0.18388 0.0
H464 H 0.07481 0.54647 0.20878 0.0
H465 H 0.05591 0.52285 0.18267 0.0
H466 H 0.07864 0.52635 0.21593 0.0
O467 O 0.13832 0.54958 0.14852 0.0
O468 O 0.14341 0.55294 0.03478 0.0
H469 H 0.06844 0.521 0.91168 0.0
H470 H 0.08302 0.54641 0.89554 0.0
C471 C 0.08248 0.53404 0.92323 0.0
H472 H 0.09415 0.53173 0.90346 0.0
H473 H 0.13834 0.54205 0.89472 0.0
O474 O 0.11354 0.55874 0.25787 0.0
C475 C 0.14625 0.54769 0.0939 0.0
Co476 Co 0.44636 0.55693 0.21717 0.0
Co477 Co 0.43632 0.56285 0.06416 0.0
C478 C 0.40493 0.54071 0.16136 0.0
O479 O 0.41782 0.54391 0.20678 0.0
O480 O 0.4094 0.54677 0.0988 0.0
C481 C 0.44044 0.54287 0.35866 0.0
O482 O 0.42276 0.53047 0.33946 0.0
C483 C 0.43062 0.5633 0.90688 0.0
C484 C 0.45907 0.58887 0.88596 0.0
C485 C 0.44263 0.57487 0.85318 0.0
N486 N 0.43993 0.57022 0.96796 0.0
N487 N 0.45678 0.58558 0.95441 0.0
C488 C 0.41071 0.54634 0.90078 0.0
H489 H 0.40305 0.54343 0.95132 0.0
H490 H 0.41153 0.5334 0.88574 0.0
H491 H 0.40256 0.54899 0.85983 0.0
C492 C 0.47011 0.54359 0.13822 0.0
N493 N 0.45747 0.55004 0.14345 0.0
N494 N 0.45086 0.5503 0.08127 0.0
C495 C 0.45777 0.54263 0.03536 0.0
C496 C 0.47095 0.53876 0.06865 0.0
C497 C 0.48164 0.54308 0.1984 0.0
H498 H 0.48197 0.55266 0.24068 0.0
H499 H 0.47487 0.52814 0.21886 0.0
H500 H 0.4966 0.54764 0.18188 0.0
O501 O 0.45606 0.58454 0.2166 0.0
O502 O 0.44813 0.58876 0.1107 0.0
H503 H 0.45708 0.54825 0.92674 0.0
H504 H 0.45014 0.52354 0.94659 0.0
C505 C 0.44931 0.53629 0.96425 0.0
H506 H 0.43395 0.53234 0.96529 0.0
H507 H 0.46708 0.59356 0.99214 0.0
O508 O 0.45296 0.55268 0.31253 0.0
C509 C 0.45544 0.59538 0.17004 0.0
Co510 Co 0.55108 0.77208 0.1471 0.0
Co511 Co 0.53998 0.77299 0.30214 0.0
C512 C 0.52886 0.79195 0.19897 0.0
O513 O 0.53631 0.78579 0.15448 0.0
O514 O 0.52937 0.78892 0.26395 0.0
C515 C 0.5605 0.78713 0.00806 0.0
O516 O 0.56181 0.80295 0.03355 0.0
C517 C 0.53508 0.77661 0.45703 0.0
C518 C 0.53438 0.74967 0.48788 0.0
C519 C 0.53319 0.7651 0.51398 0.0
N520 N 0.53719 0.76813 0.39967 0.0
N521 N 0.53685 0.75214 0.41907 0.0
C522 C 0.53437 0.7949 0.45697 0.0
H523 H 0.53134 0.79815 0.40393 0.0
H524 H 0.54853 0.80691 0.47425 0.0
H525 H 0.52326 0.79382 0.49411 0.0
C526 C 0.59038 0.78872 0.21035 0.0
N527 N 0.57126 0.7822 0.21313 0.0
N528 N 0.5664 0.78319 0.27779 0.0
C529 C 0.58225 0.79054 0.31796 0.0
C530 C 0.59794 0.79407 0.277 0.0
C531 C 0.60088 0.78886 0.14587 0.0
H532 H 0.59118 0.7768 0.11121 0.0
H533 H 0.60556 0.80259 0.11768 0.0
H534 H 0.61384 0.78783 0.1587 0.0
O535 O 0.53365 0.74415 0.16137 0.0
O536 O 0.52426 0.74631 0.2671 0.0
H537 H 0.57712 0.78115 0.4238 0.0
H538 H 0.59722 0.80522 0.41207 0.0
C539 C 0.58247 0.79473 0.39395 0.0
H540 H 0.57287 0.80069 0.40421 0.0
H541 H 0.53837 0.74284 0.38504 0.0
O542 O 0.55921 0.77413 0.04928 0.0
C543 C 0.52317 0.7363 0.21431 0.0
Co544 Co 0.22556 0.77965 0.13263 0.0
Co545 Co 0.22866 0.76866 0.28863 0.0
C546 C 0.20642 0.73801 0.18808 0.0
O547 O 0.21099 0.75137 0.14353 0.0
O548 O 0.21203 0.74192 0.2512 0.0
C549 C 0.20539 0.77346 0.00352 0.0
O550 O 0.19071 0.7607 0.0403 0.0
C551 C 0.22195 0.7589 0.44187 0.0
C552 C 0.24562 0.78622 0.48365 0.0
C553 C 0.22966 0.76905 0.50387 0.0
N554 N 0.23255 0.77003 0.38815 0.0
N555 N 0.24687 0.7861 0.41404 0.0
C556 C 0.20521 0.73891 0.43348 0.0
H557 H 0.2069 0.73223 0.38541 0.0
H558 H 0.19166 0.73937 0.42909 0.0
H559 H 0.20404 0.7299 0.4791 0.0
C560 C 0.21273 0.80446 0.20553 0.0
N561 N 0.21855 0.79129 0.20375 0.0
N562 N 0.21759 0.78452 0.26678 0.0
C563 C 0.20973 0.79199 0.30957 0.0
C564 C 0.20706 0.80559 0.27351 0.0
C565 C 0.21339 0.81601 0.14349 0.0
H566 H 0.2234 0.81593 0.10374 0.0
H567 H 0.19879 0.80949 0.12022 0.0
H568 H 0.21809 0.83109 0.15878 0.0
O569 O 0.25267 0.78762 0.13945 0.0
O570 O 0.25552 0.77988 0.24796 0.0
H571 H 0.21306 0.79066 0.41968 0.0
H572 H 0.18921 0.78527 0.39328 0.0
C573 C 0.20173 0.78357 0.3795 0.0
H574 H 0.19675 0.76798 0.37879 0.0
H575 H 0.25702 0.79747 0.38375 0.0
O576 O 0.22113 0.78471 0.03449 0.0
C577 C 0.26277 0.7867 0.18844 0.0
Co578 Co 0.22928 0.44966 0.14904 0.0
Co579 Co 0.22609 0.45966 0.30387 0.0
C580 C 0.26451 0.47335 0.23385 0.0
O581 O 0.25646 0.46505 0.17711 0.0
O582 O 0.2546 0.47249 0.2872 0.0
C583 C 0.23939 0.45153 0.00801 0.0
O584 O 0.25271 0.4689 0.02728 0.0
C585 C 0.2301 0.45967 0.45602 0.0
C586 C 0.20335 0.45893 0.48971 0.0
C587 C 0.2191 0.45798 0.51403 0.0
N588 N 0.2211 0.46131 0.39967 0.0
N589 N 0.20538 0.46135 0.4204 0.0
C590 C 0.24759 0.4575 0.45327 0.0
H591 H 0.24858 0.45161 0.40216 0.0
H592 H 0.24732 0.448 0.49574 0.0
H593 H 0.2606 0.4719 0.46001 0.0
C594 C 0.20803 0.40995 0.20479 0.0
N595 N 0.21565 0.42912 0.21203 0.0
N596 N 0.21381 0.43309 0.27706 0.0
C597 C 0.20456 0.41638 0.31304 0.0
C598 C 0.20071 0.40121 0.26851 0.0
C599 C 0.2084 0.4004 0.13839 0.0
H600 H 0.2018 0.40465 0.09634 0.0
H601 H 0.22359 0.4055 0.12354 0.0
H602 H 0.20049 0.38446 0.14322 0.0
O603 O 0.21785 0.46644 0.14332 0.0
O604 O 0.21503 0.47348 0.25253 0.0
H605 H 0.19406 0.42336 0.40455 0.0
H606 H 0.19203 0.39995 0.40757 0.0
C607 C 0.20116 0.41504 0.38992 0.0
H608 H 0.21516 0.42118 0.4172 0.0
H609 H 0.19544 0.46187 0.38675 0.0
O610 O 0.22791 0.44001 0.05353 0.0
C611 C 0.21287 0.47492 0.18769 0.0
H612 H 0.18211 0.14428 0.58451 0.0
H613 H 0.18518 0.12802 0.37111 0.0
H614 H 0.1654 0.14168 0.33283 0.0
H615 H 0.13261 0.13522 0.57556 0.0
H616 H 0.13744 0.15587 0.62768 0.0
H617 H 0.15128 0.14402 0.64071 0.0
H618 H 0.18284 0.17638 0.62066 0.0
H619 H 0.1691 0.18832 0.60756 0.0
H620 H 0.18578 0.1897 0.54171 0.0
H621 H 0.14603 0.15708 0.3152 0.0
H622 H 0.12846 0.17483 0.31868 0.0
H623 H 0.13789 0.18263 0.54187 0.0
C624 C 0.17847 0.1435 0.52994 0.0
C625 C 0.18529 0.13512 0.4809 0.0
C626 C 0.18034 0.13452 0.40975 0.0
C627 C 0.16899 0.14215 0.38731 0.0
C628 C 0.16268 0.15046 0.4364 0.0
C629 C 0.16721 0.15132 0.50615 0.0
C630 C 0.15898 0.16183 0.54686 0.0
C631 C 0.1442 0.14843 0.6009 0.0
C632 C 0.17514 0.18015 0.58121 0.0
C633 C 0.14929 0.16675 0.48879 0.0
C634 C 0.15155 0.15986 0.42576 0.0
C635 C 0.14414 0.16259 0.36419 0.0
C636 C 0.13421 0.17278 0.36674 0.0
C637 C 0.13184 0.18028 0.43039 0.0
C638 C 0.13942 0.17708 0.49235 0.0
H639 H 0.85729 0.03801 0.61875 0.0
H640 H 0.86909 0.05804 0.40481 0.0
H641 H 0.85303 0.02459 0.36353 0.0
H642 H 0.86426 0.99702 0.59528 0.0
H643 H 0.8448 0.98146 0.65247 0.0
H644 H 0.85755 0.00714 0.66642 0.0
H645 H 0.82532 0.0073 0.66068 0.0
H646 H 0.81249 0.98162 0.64673 0.0
H647 H 0.81 0.99728 0.58561 0.0
H648 H 0.83616 0.98925 0.344 0.0
H649 H 0.81823 0.9537 0.34809 0.0
H650 H 0.81633 0.95595 0.57358 0.0
C651 C 0.85652 0.03532 0.56331 0.0
C652 C 0.86439 0.05072 0.51515 0.0
C653 C 0.863 0.04657 0.44291 0.0
C654 C 0.85397 0.02757 0.41874 0.0
C655 C 0.84628 0.01276 0.46726 0.0
C656 C 0.84734 0.01632 0.53799 0.0
C657 C 0.83747 0.99757 0.57855 0.0
C658 C 0.85188 0.99569 0.62597 0.0
C659 C 0.8203 0.99585 0.62035 0.0
C660 C 0.83078 0.98307 0.51946 0.0
C661 C 0.83614 0.99217 0.45578 0.0
C662 C 0.83182 0.9819 0.39355 0.0
C663 C 0.82166 0.96171 0.3964 0.0
C664 C 0.81582 0.95201 0.46103 0.0
C665 C 0.82048 0.96292 0.52327 0.0
H666 H 0.96648 0.82603 0.61828 0.0
H667 H 0.94253 0.82726 0.41679 0.0
H668 H 0.97502 0.84521 0.36779 0.0
H669 H 0.00958 0.87453 0.60466 0.0
H670 H 0.02514 0.86737 0.64649 0.0
H671 H 0.9999 0.85549 0.66843 0.0
H672 H 0.99669 0.8225 0.63807 0.0
H673 H 0.02188 0.8343 0.61564 0.0
H674 H 0.00398 0.81891 0.55322 0.0
H675 H 0.00928 0.86089 0.33685 0.0
H676 H 0.04445 0.87533 0.32738 0.0
H677 H 0.04745 0.86503 0.54771 0.0
C678 C 0.96814 0.83038 0.56425 0.0
C679 C 0.95187 0.82515 0.52157 0.0
C680 C 0.95467 0.83094 0.45075 0.0
C681 C 0.97311 0.84121 0.42218 0.0
C682 C 0.98877 0.84576 0.46488 0.0
C683 C 0.98662 0.84074 0.53445 0.0
C684 C 0.00611 0.84708 0.56753 0.0
C685 C 0.01044 0.86201 0.62519 0.0
C686 C 0.00722 0.82965 0.59524 0.0
C687 C 0.01934 0.85614 0.50533 0.0
C688 C 0.00894 0.85518 0.44682 0.0
C689 C 0.01767 0.86193 0.38239 0.0
C690 C 0.03767 0.87004 0.37751 0.0
C691 C 0.04877 0.87143 0.43677 0.0
C692 C 0.03941 0.86436 0.50155 0.0
H693 H 0.81987 0.8598 0.42111 0.0
H694 H 0.81707 0.87545 0.63544 0.0
H695 H 0.835 0.85943 0.6727 0.0
H696 H 0.813 0.81288 0.4584 0.0
H697 H 0.82937 0.81395 0.39186 0.0
H698 H 0.81674 0.82711 0.38127 0.0
H699 H 0.84924 0.85875 0.36413 0.0
H700 H 0.86197 0.84569 0.3745 0.0
H701 H 0.86775 0.86613 0.42941 0.0
H702 H 0.85321 0.84196 0.68709 0.0
H703 H 0.8701 0.82349 0.67841 0.0
H704 H 0.86054 0.81827 0.45509 0.0
C705 C 0.82312 0.85996 0.47585 0.0
C706 C 0.81709 0.86895 0.52534 0.0
C707 C 0.8215 0.86866 0.59653 0.0
C708 C 0.8317 0.85962 0.61825 0.0
C709 C 0.83733 0.85083 0.56824 0.0
C710 C 0.83318 0.85086 0.49857 0.0
C711 C 0.84061 0.84002 0.45577 0.0
C712 C 0.82393 0.82245 0.41971 0.0
C713 C 0.85579 0.85345 0.40283 0.0
C714 C 0.84959 0.83391 0.51237 0.0
C715 C 0.84759 0.84039 0.57675 0.0
C716 C 0.85485 0.83677 0.637 0.0
C717 C 0.86445 0.82626 0.63142 0.0
C718 C 0.86664 0.81935 0.56606 0.0
C719 C 0.85903 0.82324 0.50584 0.0
H720 H 0.17991 0.04278 0.57046 0.0
H721 H 0.1906 0.05971 0.35309 0.0
H722 H 0.17219 0.02565 0.31815 0.0
H723 H 0.18492 0.00093 0.55268 0.0
H724 H 0.16611 0.98656 0.61396 0.0
H725 H 0.17948 0.01241 0.62279 0.0
H726 H 0.14762 0.01332 0.61996 0.0
H727 H 0.13415 0.98747 0.61114 0.0
H728 H 0.13127 0.00245 0.54799 0.0
H729 H 0.15316 0.99022 0.30568 0.0
H730 H 0.13518 0.95492 0.31623 0.0
H731 H 0.13704 0.96013 0.54152 0.0
C732 C 0.17825 0.03931 0.51555 0.0
C733 C 0.18669 0.05395 0.46455 0.0
C734 C 0.18435 0.04879 0.3932 0.0
C735 C 0.17385 0.02946 0.37272 0.0
C736 C 0.16583 0.01541 0.4241 0.0
C737 C 0.16792 0.02 0.49402 0.0
C738 C 0.15827 0.00191 0.53836 0.0
C739 C 0.17308 1.00037 0.58467 0.0
C740 C 0.14185 0.00126 0.58193 0.0
C741 C 0.15053 0.98652 0.48227 0.0
C742 C 0.15499 0.9947 0.41683 0.0
C743 C 0.14954 0.98359 0.35661 0.0
C744 C 0.1393 0.96352 0.36325 0.0
C745 C 0.13466 0.95467 0.42972 0.0
C746 C 0.14035 0.96641 0.48999 0.0
H747 H 0.96117 0.13869 0.60501 0.0
H748 H 0.94092 0.12491 0.39175 0.0
H749 H 0.97434 0.13986 0.35049 0.0
H750 H 0.00139 0.185 0.5674 0.0
H751 H 0.01746 0.18351 0.6294 0.0
H752 H 0.99183 0.1704 0.64438 0.0
H753 H 0.99264 0.13858 0.65477 0.0
H754 H 0.0183 0.15162 0.64011 0.0
H755 H 0.00288 0.13148 0.58519 0.0
H756 H 0.00909 0.1571 0.33031 0.0
H757 H 0.04434 0.17629 0.33141 0.0
H758 H 0.0436 0.18021 0.55692 0.0
C759 C 0.96384 0.1386 0.54983 0.0
C760 C 0.94843 0.1306 0.5016 0.0
C761 C 0.95247 0.13101 0.42966 0.0
C762 C 0.97141 0.13941 0.40561 0.0
C763 C 0.98625 0.14745 0.45401 0.0
C764 C 0.98283 0.14718 0.52456 0.0
C765 C 0.0017 0.15778 0.56444 0.0
C766 C 0.00318 0.17521 0.60372 0.0
C767 C 0.00401 0.14404 0.61406 0.0
C768 C 0.01613 0.16414 0.50501 0.0
C769 C 0.00676 0.15784 0.44202 0.0
C770 C 0.01666 0.16205 0.37927 0.0
C771 C 0.03674 0.17304 0.38059 0.0
C772 C 0.04686 0.17981 0.44428 0.0
C773 C 0.03634 0.17522 0.50742 0.0
H774 H 0.85289 0.47952 0.91589 0.0
H775 H 0.84733 0.45758 0.7055 0.0
H776 H 0.82719 0.47149 0.67397 0.0
H777 H 0.80406 0.47222 0.9289 0.0
H778 H 0.8115 0.49425 0.97639 0.0
H779 H 0.82493 0.48181 0.98462 0.0
H780 H 0.85613 0.51285 0.94807 0.0
H781 H 0.84279 0.52536 0.93967 0.0
H782 H 0.85662 0.52446 0.86722 0.0
H783 H 0.80839 0.48795 0.6629 0.0
H784 H 0.79225 0.50708 0.6723 0.0
H785 H 0.80992 0.51947 0.88872 0.0
C786 C 0.84727 0.47755 0.86349 0.0
C787 C 0.85183 0.4676 0.81298 0.0
C788 C 0.84433 0.46542 0.74475 0.0
C789 C 0.83273 0.47314 0.72636 0.0
C790 C 0.82872 0.48309 0.77667 0.0
C791 C 0.83573 0.4854 0.8438 0.0
C792 C 0.82967 0.49744 0.88654 0.0
C793 C 0.81677 0.48572 0.94774 0.0
C794 C 0.84736 0.51614 0.91185 0.0
C795 C 0.81834 0.50155 0.83261 0.0
C796 C 0.81791 0.49297 0.76987 0.0
C797 C 0.80857 0.49474 0.71177 0.0
C798 C 0.79945 0.50569 0.71767 0.0
C799 C 0.79981 0.51487 0.78115 0.0
C800 C 0.80935 0.51265 0.83945 0.0
H801 H 0.4825 0.28889 0.88701 0.0
H802 H 0.49077 0.28572 0.66503 0.0
H803 H 0.51005 0.32121 0.66008 0.0
H804 H 0.478 0.33139 0.88244 0.0
H805 H 0.49095 0.34105 0.96261 0.0
H806 H 0.47769 0.31537 0.94888 0.0
H807 H 0.50859 0.31364 0.97284 0.0
H808 H 0.52198 0.33933 0.98644 0.0
H809 H 0.53003 0.32842 0.92259 0.0
H810 H 0.52801 0.35675 0.67845 0.0
H811 H 0.54386 0.39037 0.71849 0.0
H812 H 0.52462 0.37084 0.9296 0.0
C813 C 0.48829 0.29563 0.83723 0.0
C814 C 0.48507 0.28448 0.7763 0.0
C815 C 0.49304 0.29392 0.71239 0.0
C816 C 0.50401 0.31408 0.70904 0.0
C817 C 0.50696 0.32459 0.77006 0.0
C818 C 0.49937 0.31574 0.83299 0.0
C819 C 0.50483 0.33046 0.89088 0.0
C820 C 0.48679 0.3295 0.92308 0.0
C821 C 0.51709 0.3278 0.94646 0.0
C822 C 0.51662 0.34899 0.85052 0.0
C823 C 0.51761 0.34521 0.78093 0.0
C824 C 0.5274 0.3599 0.73283 0.0
C825 C 0.53636 0.37898 0.75627 0.0
C826 C 0.53557 0.38331 0.82738 0.0
C827 C 0.52561 0.36803 0.8751 0.0
H828 H 0.70365 0.19349 0.75802 0.0
H829 H 0.72709 0.21428 0.96434 0.0
H830 H 0.69438 0.19904 0.01229 0.0
H831 H 0.6617 0.19971 0.77744 0.0
H832 H 0.64589 0.17807 0.72985 0.0
H833 H 0.67127 0.19118 0.71013 0.0
H834 H 0.67319 0.16023 0.73087 0.0
H835 H 0.64783 0.14708 0.75088 0.0
H836 H 0.66504 0.14767 0.81258 0.0
H837 H 0.65958 0.18076 0.04016 0.0
H838 H 0.62417 0.16101 0.04513 0.0
H839 H 0.6226 0.15204 0.82169 0.0
C840 C 0.70188 0.19496 0.81312 0.0
C841 C 0.71804 0.20512 0.85716 0.0
C842 C 0.71504 0.2066 0.92919 0.0
C843 C 0.69648 0.19798 0.9572 0.0
C844 C 0.68093 0.18793 0.91275 0.0
C845 C 0.68333 0.18641 0.84226 0.0
C846 C 0.66399 0.17447 0.80666 0.0
C847 C 0.66051 0.18658 0.75284 0.0
C848 C 0.66243 0.15628 0.7733 0.0
C849 C 0.65049 0.16944 0.86838 0.0
C850 C 0.66061 0.17739 0.92897 0.0
C851 C 0.65144 0.17452 0.99303 0.0
C852 C 0.63131 0.16324 0.99532 0.0
C853 C 0.62055 0.15499 0.93388 0.0
C854 C 0.63036 0.15819 0.86962 0.0
H855 H 0.49161 0.19389 0.75234 0.0
H856 H 0.48376 0.20879 0.96254 0.0
H857 H 0.50131 0.19332 0.00861 0.0
H858 H 0.48491 0.14738 0.79401 0.0
H859 H 0.50294 0.14892 0.73407 0.0
H860 H 0.49033 0.1618 0.7164 0.0
H861 H 0.52289 0.19376 0.70711 0.0
H862 H 0.5356 0.18097 0.72461 0.0
H863 H 0.53976 0.20116 0.77823 0.0
H864 H 0.51894 0.17596 0.03292 0.0
H865 H 0.53576 0.15741 0.03467 0.0
H866 H 0.5323 0.15311 0.80915 0.0
C867 C 0.49371 0.19402 0.808 0.0
C868 C 0.4863 0.20261 0.85375 0.0
C869 C 0.48925 0.20231 0.92633 0.0
C870 C 0.49923 0.19358 0.95311 0.0
C871 C 0.5062 0.18515 0.90679 0.0
C872 C 0.50361 0.18527 0.83582 0.0
C873 C 0.51227 0.17475 0.79793 0.0
C874 C 0.49668 0.15717 0.75828 0.0
C875 C 0.5286 0.18848 0.74909 0.0
C876 C 0.52002 0.16866 0.85886 0.0
C877 C 0.51638 0.17491 0.92102 0.0
C878 C 0.52194 0.17102 0.98463 0.0
C879 C 0.5315 0.16043 0.98495 0.0
C880 C 0.53541 0.15376 0.92203 0.0
C881 C 0.52957 0.15799 0.85813 0.0
H882 H 0.8052 0.2946 0.88522 0.0
H883 H 0.80023 0.284 0.66265 0.0
H884 H 0.81795 0.31921 0.64147 0.0
H885 H 0.7988 0.3362 0.88076 0.0
H886 H 0.8158 0.34834 0.94999 0.0
H887 H 0.80241 0.3224 0.94695 0.0
H888 H 0.83438 0.32165 0.94949 0.0
H889 H 0.84786 0.34758 0.95235 0.0
H890 H 0.85258 0.33487 0.88479 0.0
H891 H 0.83766 0.35571 0.64553 0.0
H892 H 0.8564 0.39041 0.67399 0.0
H893 H 0.84742 0.37659 0.89405 0.0
C894 C 0.80776 0.29962 0.8319 0.0
C895 C 0.80138 0.28653 0.77553 0.0
C896 C 0.80495 0.29376 0.70664 0.0
C897 C 0.81502 0.31372 0.69413 0.0
C898 C 0.82125 0.3262 0.75107 0.0
C899 C 0.81761 0.3194 0.81855 0.0
C900 C 0.82584 0.33572 0.87078 0.0
C901 C 0.80975 0.33566 0.91469 0.0
C902 C 0.84107 0.3349 0.91706 0.0
C903 C 0.83492 0.35284 0.82221 0.0
C904 C 0.83217 0.34708 0.75337 0.0
C905 C 0.83977 0.36038 0.69924 0.0
C906 C 0.85044 0.38005 0.71597 0.0
C907 C 0.85332 0.38625 0.78627 0.0
C908 C 0.84535 0.37237 0.83981 0.0
H909 H 0.62438 0.47335 0.75978 0.0
H910 H 0.61886 0.46379 0.98304 0.0
H911 H 0.65427 0.48101 0.99386 0.0
H912 H 0.6656 0.46688 0.73739 0.0
H913 H 0.6766 0.48537 0.67197 0.0
H914 H 0.65078 0.47218 0.68157 0.0
H915 H 0.65073 0.50428 0.69759 0.0
H916 H 0.67656 0.51756 0.68821 0.0
H917 H 0.66547 0.52089 0.76454 0.0
H918 H 0.69017 0.49994 0.98116 0.0
H919 H 0.72423 0.51834 0.9454 0.0
H920 H 0.70654 0.51513 0.72998 0.0
C921 C 0.63059 0.47483 0.81097 0.0
C922 C 0.61878 0.46721 0.87058 0.0
C923 C 0.62755 0.46944 0.93655 0.0
C924 C 0.64766 0.47923 0.94329 0.0
C925 C 0.65884 0.48663 0.88358 0.0
C926 C 0.65065 0.48447 0.81864 0.0
C927 C 0.66596 0.49376 0.76279 0.0
C928 C 0.66465 0.47864 0.71035 0.0
C929 C 0.66459 0.51009 0.72614 0.0
C930 C 0.68404 0.50157 0.80658 0.0
C931 C 0.67959 0.49734 0.87612 0.0
C932 C 0.69384 0.50328 0.92682 0.0
C933 C 0.71317 0.51378 0.90592 0.0
C934 C 0.71812 0.51818 0.83481 0.0
C935 C 0.70328 0.51195 0.78467 0.0
H936 H 0.47032 0.84911 0.21182 0.0
H937 H 0.47231 0.84941 0.98588 0.0
H938 H 0.49098 0.83264 0.98946 0.0
H939 H 0.51844 0.85682 0.2401 0.0
H940 H 0.51154 0.84093 0.31411 0.0
H941 H 0.49866 0.85344 0.29457 0.0
H942 H 0.46658 0.82089 0.29109 0.0
H943 H 0.47935 0.80827 0.31053 0.0
H944 H 0.46439 0.80201 0.2341 0.0
H945 H 0.50872 0.81565 0.01595 0.0
H946 H 0.52463 0.79884 0.06337 0.0
H947 H 0.51141 0.80889 0.27341 0.0
C948 C 0.47476 0.84573 0.16309 0.0
C949 C 0.46983 0.85061 0.09849 0.0
C950 C 0.47585 0.84583 0.03597 0.0
C951 C 0.4865 0.83632 0.03743 0.0
C952 C 0.49101 0.83166 0.10177 0.0
C953 C 0.48537 0.83615 0.16352 0.0
C954 C 0.49189 0.8291 0.22544 0.0
C955 C 0.50597 0.84609 0.27125 0.0
C956 C 0.47451 0.81418 0.26777 0.0
C957 C 0.502 0.81987 0.18859 0.0
C958 C 0.50132 0.82163 0.1173 0.0
C959 C 0.50942 0.81421 0.07167 0.0
C960 C 0.51846 0.80467 0.09942 0.0
C961 C 0.51937 0.80252 0.17239 0.0
C962 C 0.51101 0.8103 0.21752 0.0
H963 H 0.19346 0.7038 0.26199 0.0
H964 H 0.19415 0.72638 0.0557 0.0
H965 H 0.17753 0.69362 0.00872 0.0
H966 H 0.20194 0.66609 0.20704 0.0
H967 H 0.18582 0.64858 0.26915 0.0
H968 H 0.19729 0.67392 0.28905 0.0
H969 H 0.16392 0.67074 0.31112 0.0
H970 H 0.15236 0.64536 0.2916 0.0
H971 H 0.1457 0.66059 0.24445 0.0
H972 H 0.16264 0.65913 0.98092 0.0
H973 H 0.14811 0.62386 0.97569 0.0
H974 H 0.15564 0.62242 0.199 0.0
C975 C 0.18995 0.70182 0.20714 0.0
C976 C 0.19522 0.71781 0.16283 0.0
C977 C 0.19035 0.71451 0.09116 0.0
C978 C 0.18089 0.6959 0.06362 0.0
C979 C 0.17617 0.68054 0.10818 0.0
C980 C 0.18031 0.68316 0.17847 0.0
C981 C 0.1736 0.66392 0.21412 0.0
C982 C 0.19069 0.66309 0.24676 0.0
C983 C 0.15797 0.65992 0.26854 0.0
C984 C 0.16535 0.65027 0.15256 0.0
C985 C 0.16707 0.66026 0.09206 0.0
C986 C 0.16105 0.65106 0.02797 0.0
C987 C 0.15289 0.63102 0.02551 0.0
C988 C 0.1507 0.62033 0.08685 0.0
C989 C 0.15702 0.63016 0.15123 0.0
H990 H 0.37181 0.52421 0.08096 0.0
H991 H 0.39187 0.53491 0.29496 0.0
H992 H 0.3584 0.51926 0.33622 0.0
H993 H 0.33182 0.5323 0.10526 0.0
H994 H 0.31595 0.5132 0.04738 0.0
H995 H 0.34163 0.52537 0.03372 0.0
H996 H 0.34079 0.49263 0.0381 0.0
H997 H 0.31511 0.48037 0.05158 0.0
H998 H 0.33034 0.47714 0.11252 0.0
H999 H 0.32287 0.50322 0.35535 0.0
H1000 H 0.28729 0.4861 0.35027 0.0
H1001 H 0.28998 0.48485 0.12481 0.0
C1002 C 0.36914 0.52323 0.13643 0.0
C1003 C 0.38454 0.53075 0.18455 0.0
C1004 C 0.38039 0.52912 0.25684 0.0
C1005 C 0.36139 0.52032 0.281 0.0
C1006 C 0.34658 0.51309 0.2324 0.0
C1007 C 0.35016 0.5143 0.16167 0.0
C1008 C 0.33149 0.50501 0.1208 0.0
C1009 C 0.33015 0.51986 0.07404 0.0
C1010 C 0.32931 0.48776 0.07825 0.0
C1011 C 0.31696 0.4985 0.17967 0.0
C1012 C 0.32597 0.50343 0.24359 0.0
C1013 C 0.3156 0.4992 0.3056 0.0
C1014 C 0.29541 0.48952 0.30222 0.0
C1015 C 0.28583 0.48406 0.23728 0.0
C1016 C 0.29684 0.4887 0.17535 0.0
H1017 H 0.15434 0.53188 0.2082 0.0
H1018 H 0.16567 0.54267 0.98686 0.0
H1019 H 0.18446 0.52612 0.98869 0.0
H1020 H 0.20159 0.53826 0.25354 0.0
H1021 H 0.19191 0.51923 0.31732 0.0
H1022 H 0.17986 0.53268 0.30006 0.0
H1023 H 0.14829 0.50088 0.27319 0.0
H1024 H 0.16026 0.48734 0.29008 0.0
H1025 H 0.1484 0.48476 0.2079 0.0
H1026 H 0.20044 0.50711 0.01139 0.0
H1027 H 0.21399 0.48756 0.0553 0.0
H1028 H 0.1933 0.48921 0.26277 0.0
C1029 C 0.16093 0.53093 0.1603 0.0
C1030 C 0.15846 0.53861 0.09739 0.0
C1031 C 0.16727 0.53694 0.03578 0.0
C1032 C 0.17802 0.52755 0.03617 0.0
C1033 C 0.17996 0.51995 0.0986 0.0
C1034 C 0.17182 0.5216 0.1597 0.0
C1035 C 0.17592 0.51173 0.21923 0.0
C1036 C 0.18804 0.52635 0.27588 0.0
C1037 C 0.15709 0.4952 0.24935 0.0
C1038 C 0.18742 0.50412 0.1816 0.0
C1039 C 0.18954 0.50907 0.11205 0.0
C1040 C 0.19902 0.50325 0.06587 0.0
C1041 C 0.20661 0.49207 0.09135 0.0
C1042 C 0.20477 0.48686 0.16254 0.0
C1043 C 0.19509 0.49308 0.20823 0.0
H1044 H 0.51358 0.70948 0.1088 0.0
H1045 H 0.50398 0.71506 0.32803 0.0
H1046 H 0.48445 0.67984 0.33786 0.0
H1047 H 0.46516 0.66815 0.07525 0.0
H1048 H 0.47393 0.65685 0.01588 0.0
H1049 H 0.48652 0.68272 0.02437 0.0
H1050 H 0.51802 0.68258 0.0532 0.0
H1051 H 0.50553 0.65673 0.04503 0.0
H1052 H 0.51824 0.668 0.12418 0.0
H1053 H 0.46861 0.64444 0.32796 0.0
H1054 H 0.45517 0.61027 0.29635 0.0
H1055 H 0.47297 0.62669 0.08221 0.0
C1056 C 0.50719 0.70329 0.15864 0.0
C1057 C 0.51037 0.71511 0.21762 0.0
C1058 C 0.50176 0.70641 0.28196 0.0
C1059 C 0.49062 0.68637 0.2882 0.0
C1060 C 0.48797 0.67516 0.22951 0.0
C1061 C 0.49578 0.68322 0.16572 0.0
C1062 C 0.49088 0.66769 0.11135 0.0
C1063 C 0.47838 0.66893 0.05328 0.0
C1064 C 0.50926 0.66882 0.08172 0.0
C1065 C 0.47949 0.6497 0.15512 0.0
C1066 C 0.47808 0.65444 0.22316 0.0
C1067 C 0.46934 0.6405 0.27466 0.0
C1068 C 0.46183 0.62116 0.25627 0.0
C1069 C 0.4629 0.61588 0.18682 0.0
C1070 C 0.47167 0.63034 0.13543 0.0
H1071 H 0.37763 0.84844 0.22199 0.0
H1072 H 0.37905 0.82936 0.01147 0.0
H1073 H 0.344 0.80795 0.0146 0.0
H1074 H 0.33824 0.80144 0.2862 0.0
H1075 H 0.32749 0.81238 0.33786 0.0
H1076 H 0.35314 0.82512 0.32272 0.0
H1077 H 0.3511 0.85406 0.27286 0.0
H1078 H 0.32549 0.84144 0.28782 0.0
H1079 H 0.33482 0.85018 0.20199 0.0
H1080 H 0.3092 0.79112 0.03403 0.0
H1081 H 0.27563 0.77921 0.06988 0.0
H1082 H 0.29531 0.80782 0.26934 0.0
C1083 C 0.37058 0.83951 0.17708 0.0
C1084 C 0.38117 0.8406 0.11651 0.0
C1085 C 0.37134 0.82887 0.05844 0.0
C1086 C 0.3514 0.81655 0.05974 0.0
C1087 C 0.34138 0.816 0.11956 0.0
C1088 C 0.35052 0.82706 0.17737 0.0
C1089 C 0.33594 0.82443 0.23318 0.0
C1090 C 0.33888 0.8153 0.29889 0.0
C1091 C 0.3369 0.84367 0.24991 0.0
C1092 C 0.31722 0.81056 0.19672 0.0
C1093 C 0.32086 0.80585 0.1314 0.0
C1094 C 0.30613 0.79442 0.08541 0.0
C1095 C 0.28713 0.78779 0.10615 0.0
C1096 C 0.28295 0.79248 0.17245 0.0
C1097 C 0.29817 0.80372 0.21894 0.0
H1098 H 0.12735 0.29644 0.41806 0.0
H1099 H 0.17128 0.2813 0.37711 0.0
H1100 H 0.19373 0.31474 0.33893 0.0
H1101 H 0.13651 0.32572 0.27238 0.0
H1102 H 0.13244 0.34353 0.31423 0.0
H1103 H 0.12054 0.31915 0.34618 0.0
H1104 H 0.13484 0.33128 0.46891 0.0
H1105 H 0.14656 0.35576 0.43765 0.0
H1106 H 0.16053 0.34657 0.47881 0.0
H1107 H 0.21018 0.34873 0.29534 0.0
H1108 H 0.22051 0.38201 0.25688 0.0
H1109 H 0.1659 0.37521 0.32515 0.0
C1110 C 0.14192 0.30045 0.40313 0.0
C1111 C 0.1479 0.28663 0.40165 0.0
C1112 C 0.16675 0.29197 0.37972 0.0
C1113 C 0.17949 0.31083 0.35767 0.0
C1114 C 0.17308 0.32411 0.35797 0.0
C1115 C 0.15483 0.31926 0.38091 0.0
C1116 C 0.15123 0.33602 0.37259 0.0
C1117 C 0.13417 0.33078 0.32341 0.0
C1118 C 0.14811 0.34281 0.44373 0.0
C1119 C 0.17014 0.35087 0.34018 0.0
C1120 C 0.18255 0.34372 0.33235 0.0
C1121 C 0.20066 0.35456 0.3018 0.0
C1122 C 0.20635 0.37333 0.27967 0.0
C1123 C 0.19397 0.38101 0.28823 0.0
C1124 C 0.17562 0.3696 0.31847 0.0
H1125 H 0.63216 0.8245 0.23136 0.0
H1126 H 0.60773 0.77758 0.38002 0.0
H1127 H 0.63981 0.78963 0.43306 0.0
H1128 H 0.67901 0.82625 0.21097 0.0
H1129 H 0.69233 0.85217 0.20471 0.0
H1130 H 0.66774 0.83892 0.1747 0.0
H1131 H 0.65896 0.85927 0.25558 0.0
H1132 H 0.68344 0.87244 0.28636 0.0
H1133 H 0.66392 0.86024 0.3474 0.0
H1134 H 0.67374 0.80794 0.47545 0.0
H1135 H 0.70816 0.8306 0.50046 0.0
H1136 H 0.71088 0.8658 0.325 0.0
C1137 C 0.63375 0.81659 0.27404 0.0
C1138 C 0.6176 0.80016 0.30192 0.0
C1139 C 0.62 0.79027 0.35842 0.0
C1140 C 0.63813 0.79698 0.38873 0.0
C1141 C 0.65373 0.81355 0.36157 0.0
C1142 C 0.65181 0.82314 0.30507 0.0
C1143 C 0.67081 0.84106 0.28803 0.0
C1144 C 0.67789 0.8395 0.21528 0.0
C1145 C 0.66917 0.85933 0.29477 0.0
C1146 C 0.68354 0.84018 0.34446 0.0
C1147 C 0.6734 0.82415 0.38615 0.0
C1148 C 0.68189 0.82048 0.44291 0.0
C1149 C 0.70135 0.83346 0.45708 0.0
C1150 C 0.71202 0.84986 0.41474 0.0
C1151 C 0.70299 0.85325 0.35782 0.0
H1152 H 0.18695 0.82178 0.20963 0.0
H1153 H 0.21268 0.81997 0.40622 0.0
H1154 H 0.19608 0.83476 0.46455 0.0
H1155 H 0.19698 0.87202 0.24946 0.0
H1156 H 0.17623 0.86845 0.20075 0.0
H1157 H 0.189 0.85624 0.17495 0.0
H1158 H 0.15704 0.82361 0.18188 0.0
H1159 H 0.1443 0.83565 0.20956 0.0
H1160 H 0.1436 0.8167 0.26215 0.0
H1161 H 0.17049 0.84274 0.50308 0.0
H1162 H 0.14805 0.85488 0.516 0.0
H1163 H 0.15097 0.86483 0.29282 0.0
C1164 C 0.18963 0.82486 0.26442 0.0
C1165 C 0.20011 0.81825 0.30387 0.0
C1166 C 0.20338 0.82321 0.37548 0.0
C1167 C 0.19427 0.83196 0.40919 0.0
C1168 C 0.18317 0.83721 0.36959 0.0
C1169 C 0.18189 0.83502 0.29822 0.0
C1170 C 0.1709 0.84411 0.26738 0.0
C1171 C 0.18406 0.86123 0.22037 0.0
C1172 C 0.1529 0.82912 0.22792 0.0
C1173 C 0.16546 0.85079 0.3331 0.0
C1174 C 0.17209 0.84602 0.39147 0.0
C1175 C 0.16618 0.84771 0.45789 0.0
C1176 C 0.15358 0.85499 0.46477 0.0
C1177 C 0.14791 0.86171 0.40613 0.0
C1178 C 0.15433 0.85969 0.33945 0.0
H1179 H 0.37137 0.20022 0.75465 0.0
H1180 H 0.38744 0.15838 0.68948 0.0
H1181 H 0.35461 0.13741 0.64319 0.0
H1182 H 0.3209 0.16427 0.80452 0.0
H1183 H 0.31167 0.17932 0.77365 0.0
H1184 H 0.33588 0.19014 0.80714 0.0
H1185 H 0.34887 0.20911 0.69203 0.0
H1186 H 0.32477 0.19816 0.65779 0.0
H1187 H 0.34316 0.19616 0.61077 0.0
H1188 H 0.32158 0.12295 0.59221 0.0
H1189 H 0.28889 0.11409 0.55076 0.0
H1190 H 0.29344 0.16436 0.65338 0.0
C1191 C 0.36773 0.1864 0.73225 0.0
C1192 C 0.3818 0.18083 0.72516 0.0
C1193 C 0.37676 0.16282 0.6949 0.0
C1194 C 0.35821 0.15086 0.66853 0.0
C1195 C 0.3448 0.15703 0.67392 0.0
C1196 C 0.34917 0.17419 0.70616 0.0
C1197 C 0.33225 0.17767 0.70304 0.0
C1198 C 0.32473 0.17785 0.77646 0.0
C1199 C 0.33759 0.19638 0.66354 0.0
C1200 C 0.31791 0.16006 0.66245 0.0
C1201 C 0.32547 0.14837 0.64609 0.0
C1202 C 0.31537 0.13182 0.60562 0.0
C1203 C 0.29694 0.12696 0.58197 0.0
C1204 C 0.28885 0.13854 0.59933 0.0
C1205 C 0.29941 0.15526 0.64006 0.0
H1206 H 0.80965 0.1897 0.67124 0.0
H1207 H 0.81735 0.18844 0.89455 0.0
H1208 H 0.83926 0.17587 0.87401 0.0
H1209 H 0.80336 0.14155 0.65122 0.0
H1210 H 0.81346 0.1466 0.56481 0.0
H1211 H 0.80091 0.15847 0.5966 0.0
H1212 H 0.83098 0.19154 0.56946 0.0
H1213 H 0.84382 0.1798 0.53927 0.0
H1214 H 0.85386 0.19753 0.60763 0.0
H1215 H 0.86338 0.16696 0.82566 0.0
H1216 H 0.87947 0.15252 0.76131 0.0
H1217 H 0.84612 0.14824 0.57732 0.0
C1218 C 0.81521 0.18631 0.71667 0.0
C1219 C 0.81187 0.1908 0.78483 0.0
C1220 C 0.82033 0.1864 0.84153 0.0
C1221 C 0.83267 0.17894 0.83045 0.0
C1222 C 0.83562 0.17491 0.76256 0.0
C1223 C 0.82637 0.17757 0.70704 0.0
C1224 C 0.8298 0.16957 0.64039 0.0
C1225 C 0.81075 0.15306 0.61158 0.0
C1226 C 0.84023 0.18557 0.586 0.0
C1227 C 0.84274 0.16225 0.6671 0.0
C1228 C 0.84653 0.16623 0.73709 0.0
C1229 C 0.85974 0.16285 0.77176 0.0
C1230 C 0.8686 0.15433 0.73474 0.0
C1231 C 0.86331 0.14801 0.66503 0.0
C1232 C 0.85048 0.15252 0.63049 0.0
H1233 H 0.80559 0.63489 0.78589 0.0
H1234 H 0.83277 0.61182 0.65221 0.0
H1235 H 0.85381 0.64423 0.60284 0.0
H1236 H 0.80432 0.66675 0.66244 0.0
H1237 H 0.80948 0.68594 0.72298 0.0
H1238 H 0.79767 0.66133 0.75267 0.0
H1239 H 0.82434 0.67024 0.84512 0.0
H1240 H 0.83613 0.69494 0.81624 0.0
H1241 H 0.84923 0.68208 0.81829 0.0
H1242 H 0.87031 0.67843 0.56258 0.0
H1243 H 0.8826 0.713 0.53845 0.0
H1244 H 0.84454 0.71407 0.6965 0.0
C1245 C 0.81633 0.63687 0.74748 0.0
C1246 C 0.81781 0.62106 0.72308 0.0
C1247 C 0.83162 0.62391 0.67163 0.0
C1248 C 0.84357 0.6422 0.6433 0.0
C1249 C 0.8415 0.65749 0.66709 0.0
C1250 C 0.82837 0.65511 0.71841 0.0
C1251 C 0.82858 0.67384 0.73242 0.0
C1252 C 0.80884 0.67184 0.71667 0.0
C1253 C 0.83495 0.68068 0.80748 0.0
C1254 C 0.84369 0.687 0.68045 0.0
C1255 C 0.85098 0.67727 0.64342 0.0
C1256 C 0.86482 0.68625 0.59155 0.0
C1257 C 0.87161 0.7058 0.57785 0.0
C1258 C 0.86455 0.71608 0.61588 0.0
C1259 C 0.8503 0.70651 0.66733 0.0
H1260 H 0.0471 0.53807 0.97063 0.0
H1261 H 0.0478 0.49377 0.09748 0.0
H1262 H 0.01378 0.47112 0.06552 0.0
H1263 H 0.99818 0.52598 0.01239 0.0
H1264 H 0.99333 0.53132 0.92623 0.0
H1265 H 0.01755 0.54378 0.9598 0.0
H1266 H 0.02916 0.53278 0.8524 0.0
H1267 H 0.00491 0.52003 0.81901 0.0
H1268 H 0.01802 0.50745 0.83249 0.0
H1269 H 0.98026 0.45315 0.01597 0.0
H1270 H 0.9482 0.44205 0.96364 0.0
H1271 H 0.96901 0.49841 0.87168 0.0
C1272 C 0.03995 0.52363 0.99207 0.0
C1273 C 0.04984 0.51756 0.03674 0.0
C1274 C 0.04025 0.49864 0.06385 0.0
C1275 C 0.02106 0.48569 0.04548 0.0
C1276 C 0.01176 0.49201 0.00025 0.0
C1277 C 0.02079 0.51062 0.97468 0.0
C1278 C 0.00745 0.51393 0.92823 0.0
C1279 C 0.00392 0.52968 0.95849 0.0
C1280 C 0.01536 0.51884 0.85361 0.0
C1281 C 0.98945 0.49428 0.93165 0.0
C1282 C 0.99233 0.48179 0.97285 0.0
C1283 C 0.97781 0.46283 0.98401 0.0
C1284 C 0.95971 0.45665 0.95403 0.0
C1285 C 0.95624 0.46946 0.91428 0.0
C1286 C 0.9714 0.48836 0.90166 0.0
H1287 H 0.48667 0.51722 0.12472 0.0
H1288 H 0.48509 0.54598 0.93539 0.0
H1289 H 0.4994 0.52991 0.8708 0.0
H1290 H 0.53667 0.52751 0.08037 0.0
H1291 H 0.53308 0.50605 0.12396 0.0
H1292 H 0.52095 0.51845 0.15488 0.0
H1293 H 0.48826 0.48668 0.14414 0.0
H1294 H 0.50023 0.47432 0.11146 0.0
H1295 H 0.48128 0.47444 0.06147 0.0
H1296 H 0.50701 0.50483 0.82458 0.0
H1297 H 0.51915 0.48269 0.80367 0.0
H1298 H 0.52951 0.48223 0.02554 0.0
C1299 C 0.48967 0.52064 0.07025 0.0
C1300 C 0.48321 0.53184 0.03455 0.0
C1301 C 0.48809 0.53607 0.9632 0.0
C1302 C 0.49661 0.52729 0.92595 0.0
C1303 C 0.50174 0.51552 0.96183 0.0
C1304 C 0.49964 0.51323 0.03303 0.0
C1305 C 0.50872 0.50176 0.05958 0.0
C1306 C 0.52588 0.51419 0.10753 0.0
C1307 C 0.49372 0.48321 0.09633 0.0
C1308 C 0.51532 0.49727 0.99157 0.0
C1309 C 0.51046 0.50475 0.93583 0.0
C1310 C 0.51206 0.49987 0.86772 0.0
C1311 C 0.51936 0.48744 0.85628 0.0
C1312 C 0.52624 0.48096 0.91213 0.0
C1313 C 0.52427 0.4863 0.98082 0.0
H1314 H 0.53788 0.04198 0.02943 0.0
H1315 H 0.49626 0.04887 0.90767 0.0
H1316 H 0.47192 0.01462 0.92856 0.0
H1317 H 0.52364 0.99399 0.96921 0.0
H1318 H 0.52759 0.98608 0.05214 0.0
H1319 H 0.54143 0.01113 0.0283 0.0
H1320 H 0.53026 0.02038 0.14117 0.0
H1321 H 0.51617 0.99532 0.16489 0.0
H1322 H 0.50485 0.00985 0.15859 0.0
H1323 H 0.45217 0.97998 0.96386 0.0
H1324 H 0.43913 0.94615 0.0012 0.0
H1325 H 0.49373 0.96141 0.09811 0.0
C1326 C 0.52364 0.03615 0.00704 0.0
C1327 C 0.51882 0.04784 0.96673 0.0
C1328 C 0.50015 0.03995 0.93808 0.0
C1329 C 0.48625 0.02062 0.95016 0.0
C1330 C 0.49135 0.00947 0.99084 0.0
C1331 C 0.50965 0.01686 0.0182 0.0
C1332 C 0.51158 0.0016 0.05813 0.0
C1333 C 0.52697 0.99798 0.02494 0.0
C1334 C 0.51597 0.00712 0.13528 0.0
C1335 C 0.49152 0.98444 0.04871 0.0
C1336 C 0.48003 0.98938 0.01036 0.0
C1337 C 0.46103 0.97594 0.99382 0.0
C1338 C 0.45374 0.95683 0.0153 0.0
C1339 C 0.46549 0.95133 0.05218 0.0
C1340 C 0.48446 0.96538 0.07044 0.0
H1341 H 0.0975 0.21051 0.72943 0.0
H1342 H 0.15996 0.2401 0.71813 0.0
H1343 H 0.16159 0.24141 0.84696 0.0
H1344 H 0.09348 0.23578 0.87606 0.0
H1345 H 0.07298 0.21463 0.91149 0.0
H1346 H 0.07708 0.21673 0.81904 0.0
H1347 H 0.07667 0.18415 0.81824 0.0
H1348 H 0.07266 0.18198 0.91074 0.0
H1349 H 0.09289 0.18099 0.87435 0.0
H1350 H 0.15591 0.23997 0.97748 0.0
H1351 H 0.14358 0.23485 0.09787 0.0
H1352 H 0.08493 0.20421 0.01987 0.0
C1353 C 0.11157 0.21744 0.75382 0.0
C1354 C 0.12862 0.22535 0.71409 0.0
C1355 C 0.14673 0.234 0.74795 0.0
C1356 C 0.14778 0.23481 0.82086 0.0
C1357 C 0.13059 0.22673 0.85846 0.0
C1358 C 0.11285 0.21814 0.8259 0.0
C1359 C 0.09645 0.20999 0.87741 0.0
C1360 C 0.08429 0.21988 0.87059 0.0
C1361 C 0.08394 0.18797 0.86971 0.0
C1362 C 0.1077 0.21542 0.94441 0.0
C1363 C 0.12736 0.22514 0.93271 0.0
C1364 C 0.14055 0.23205 0.98725 0.0
C1365 C 0.13341 0.22883 0.05548 0.0
C1366 C 0.11329 0.21852 0.06817 0.0
C1367 C 0.10038 0.21191 0.01174 0.0
H1368 H 0.80141 0.92792 0.79822 0.0
H1369 H 0.75024 0.874 0.74355 0.0
H1370 H 0.74433 0.86535 0.86764 0.0
H1371 H 0.81802 0.90989 0.92326 0.0
H1372 H 0.82679 0.93001 0.98239 0.0
H1373 H 0.82528 0.93369 0.89096 0.0
H1374 H 0.80387 0.94877 0.91634 0.0
H1375 H 0.80547 0.94533 0.00823 0.0
H1376 H 0.78221 0.93552 0.96721 0.0
H1377 H 0.74721 0.85992 0.99315 0.0
H1378 H 0.75743 0.8593 0.11408 0.0
H1379 H 0.80576 0.91716 0.08947 0.0
C1380 C 0.78864 0.91455 0.81244 0.0
C1381 C 0.77631 0.90163 0.76118 0.0
C1382 C 0.75988 0.88416 0.78188 0.0
C1383 C 0.75638 0.87912 0.85229 0.0
C1384 C 0.76924 0.89185 0.90135 0.0
C1385 C 0.78487 0.90936 0.88254 0.0
C1386 C 0.79738 0.91968 0.94488 0.0
C1387 C 0.81808 0.92353 0.93473 0.0
C1388 C 0.79721 0.93844 0.96006 0.0
C1389 C 0.78687 0.90481 0.00099 0.0
C1390 C 0.77057 0.88893 0.97484 0.0
C1391 C 0.75962 0.87246 0.01474 0.0
C1392 C 0.76556 0.87217 0.08296 0.0
C1393 C 0.78215 0.88827 0.11041 0.0
C1394 C 0.79275 0.90489 0.06956 0.0
H1395 H 0.07512 0.886 0.76228 0.0
H1396 H 0.12219 0.87734 0.69772 0.0
H1397 H 0.12704 0.87108 0.81904 0.0
H1398 H 0.09697 0.91255 0.90511 0.0
H1399 H 0.07598 0.90298 0.96029 0.0
H1400 H 0.07326 0.90254 0.86754 0.0
H1401 H 0.05009 0.86558 0.87148 0.0
H1402 H 0.05277 0.86591 0.96469 0.0
H1403 H 0.05785 0.85034 0.91213 0.0
H1404 H 0.13087 0.87174 0.94521 0.0
H1405 H 0.13368 0.87978 0.07003 0.0
H1406 H 0.08408 0.88763 0.05541 0.0
C1407 C 0.08606 0.88222 0.77355 0.0
C1408 C 0.09826 0.88214 0.72082 0.0
C1409 C 0.1127 0.87753 0.73747 0.0
C1410 C 0.11544 0.87376 0.80612 0.0
C1411 C 0.10354 0.87449 0.8573 0.0
C1412 C 0.08905 0.8785 0.842 0.0
C1413 C 0.08 0.88093 0.90758 0.0
C1414 C 0.08167 0.90093 0.91025 0.0
C1415 C 0.05893 0.86472 0.91435 0.0
C1416 C 0.09255 0.87894 0.96189 0.0
C1417 C 0.1057 0.87472 0.93169 0.0
C1418 C 0.12033 0.87449 0.96985 0.0
C1419 C 0.12189 0.87917 0.04041 0.0
C1420 C 0.10889 0.88397 0.07174 0.0
C1421 C 0.09374 0.88335 0.03267 0.0
H1422 H 0.21978 0.12874 0.88398 0.0
H1423 H 0.18768 0.06621 0.90045 0.0
H1424 H 0.19242 0.06876 0.02662 0.0
H1425 H 0.25413 0.13792 0.01205 0.0
H1426 H 0.25454 0.15882 0.04899 0.0
H1427 H 0.2481 0.15271 0.95906 0.0
H1428 H 0.21569 0.15179 0.97926 0.0
H1429 H 0.22221 0.15832 0.06896 0.0
H1430 H 0.19985 0.13689 0.04767 0.0
H1431 H 0.20372 0.0773 0.14664 0.0
H1432 H 0.21545 0.0917 0.26182 0.0
H1433 H 0.23714 0.14887 0.17443 0.0
C1434 C 0.21312 0.11558 0.91389 0.0
C1435 C 0.20333 0.09724 0.88145 0.0
C1436 C 0.1954 0.08045 0.9235 0.0
C1437 C 0.19801 0.0817 0.99544 0.0
C1438 C 0.20826 0.09987 0.02529 0.0
C1439 C 0.21522 0.11655 0.9866 0.0
C1440 C 0.22555 0.13421 0.03306 0.0
C1441 C 0.24684 0.14664 0.01201 0.0
C1442 C 0.2152 0.146 0.0322 0.0
C1443 C 0.22358 0.12472 0.10333 0.0
C1444 C 0.21382 0.10489 0.09687 0.0
C1445 C 0.2111 0.09281 0.15282 0.0
C1446 C 0.21803 0.10116 0.21788 0.0
C1447 C 0.22725 0.12139 0.22691 0.0
C1448 C 0.23012 0.13336 0.1688 0.0
H1449 H 0.87592 0.089 0.92698 0.0
H1450 H 0.93779 0.12809 0.93802 0.0
H1451 H 0.93512 0.1321 0.06314 0.0
H1452 H 0.86181 0.11236 0.04736 0.0
H1453 H 0.84319 0.09094 0.08891 0.0
H1454 H 0.8495 0.09003 -0.00039 0.0
H1455 H 0.85641 0.06251 0.02858 0.0
H1456 H 0.84967 0.06299 0.11767 0.0
H1457 H 0.8729 0.06573 0.0979 0.0
H1458 H 0.92579 0.13526 0.18234 0.0
H1459 H 0.91128 0.13189 0.29782 0.0
H1460 H 0.85585 0.08813 0.2168 0.0
C1461 C 0.88901 0.09785 0.9557 0.0
C1462 C 0.9071 0.10825 0.92177 0.0
C1463 C 0.92373 0.12008 0.96217 0.0
C1464 C 0.92239 0.12252 0.03348 0.0
C1465 C 0.90436 0.11276 0.06461 0.0
C1466 C 0.88802 0.10018 0.0279 0.0
C1467 C 0.87049 0.09128 0.07549 0.0
C1468 C 0.85536 0.09647 0.05137 0.0
C1469 C 0.86186 0.06932 0.0802 0.0
C1470 C 0.8796 0.1011 0.14402 0.0
C1471 C 0.89909 0.1137 0.13576 0.0
C1472 C 0.9106 0.12522 0.18993 0.0
C1473 C 0.90214 0.12336 0.25523 0.0
C1474 C 0.88241 0.10977 0.26643 0.0
C1475 C 0.87096 0.09863 0.20974 0.0
H1476 H 0.87634 0.76971 0.26195 0.0
H1477 H 0.93571 0.78433 0.29496 0.0
H1478 H 0.94167 0.78882 0.16861 0.0
H1479 H 0.86991 0.74369 0.09576 0.0
H1480 H 0.85494 0.75243 0.05992 0.0
H1481 H 0.85503 0.74876 0.15233 0.0
H1482 H 0.86389 0.78421 0.17369 0.0
H1483 H 0.86401 0.78805 0.08149 0.0
H1484 H 0.88504 0.8034 0.13268 0.0
H1485 H 0.94216 0.79585 0.04013 0.0
H1486 H 0.93628 0.80173 0.91955 0.0
H1487 H 0.87601 0.7801 0.96988 0.0
C1488 C 0.89048 0.77349 0.24247 0.0
C1489 C 0.90554 0.77666 0.28828 0.0
C1490 C 0.92389 0.78168 0.2608 0.0
C1491 C 0.92745 0.78434 0.18909 0.0
C1492 C 0.91243 0.78159 0.14545 0.0
C1493 C 0.89421 0.77594 0.171 0.0
C1494 C 0.88071 0.77448 0.11343 0.0
C1495 C 0.86417 0.7536 0.10486 0.0
C1496 C 0.87297 0.78837 0.12611 0.0
C1497 C 0.89432 0.78077 0.05196 0.0
C1498 C 0.91254 0.78481 0.07124 0.0
C1499 C 0.92778 0.79217 0.02392 0.0
C1500 C 0.92423 0.79529 0.95492 0.0
C1501 C 0.90551 0.79082 0.93365 0.0
C1502 C 0.89048 0.78348 0.9835 0.0
H1503 H 0.76969 0.54748 0.08009 0.0
H1504 H 0.83216 0.5808 0.08288 0.0
H1505 H 0.83157 0.58051 0.21188 0.0
H1506 H 0.76066 0.56874 0.23037 0.0
H1507 H 0.74073 0.54617 0.25972 0.0
H1508 H 0.74627 0.55015 0.16836 0.0
H1509 H 0.74892 0.51922 0.16293 0.0
H1510 H 0.74351 0.5152 0.25434 0.0
H1511 H 0.76525 0.51675 0.22075 0.0
H1512 H 0.82366 0.57715 0.34101 0.0
H1513 H 0.80959 0.56943 0.45835 0.0
H1514 H 0.7525 0.5354 0.36894 0.0
C1515 C 0.78326 0.55497 0.10774 0.0
C1516 C 0.80099 0.56441 0.07172 0.0
C1517 C 0.81844 0.57361 0.10971 0.0
C1518 C 0.81822 0.57352 0.18281 0.0
C1519 C 0.80045 0.5639 0.21671 0.0
C1520 C 0.78331 0.55467 0.18026 0.0
C1521 C 0.76618 0.54453 0.22847 0.0
C1522 C 0.75267 0.5529 0.2213 0.0
C1523 C 0.75533 0.52263 0.21586 0.0
C1524 C 0.7763 0.54956 0.29801 0.0
C1525 C 0.79603 0.56087 0.29031 0.0
C1526 C 0.80827 0.5679 0.34757 0.0
C1527 C 0.80012 0.56311 0.41433 0.0
C1528 C 0.77996 0.55099 0.42336 0.0
C1529 C 0.768 0.54435 0.36404 0.0
H1530 H 0.47802 0.24819 0.40587 0.0
H1531 H 0.42854 0.19111 0.43293 0.0
H1532 H 0.41821 0.1918 0.31231 0.0
H1533 H 0.45515 0.26747 0.28626 0.0
H1534 H 0.47662 0.28019 0.2341 0.0
H1535 H 0.47853 0.27651 0.32558 0.0
H1536 H 0.49867 0.2602 0.29706 0.0
H1537 H 0.49687 0.26388 0.20577 0.0
H1538 H 0.48902 0.23997 0.23817 0.0
H1539 H 0.41464 0.19751 0.1872 0.0
H1540 H 0.41957 0.20646 0.0631 0.0
H1541 H 0.47227 0.25929 0.11488 0.0
C1542 C 0.46481 0.23608 0.38648 0.0
C1543 C 0.4539 0.21967 0.42815 0.0
C1544 C 0.43697 0.20381 0.40128 0.0
C1545 C 0.43095 0.20414 0.3332 0.0
C1546 C 0.44213 0.22041 0.29269 0.0
C1547 C 0.45878 0.23605 0.31805 0.0
C1548 C 0.46928 0.25077 0.26135 0.0
C1549 C 0.46993 0.26987 0.27782 0.0
C1550 C 0.48966 0.25387 0.24992 0.0
C1551 C 0.45625 0.24069 0.19986 0.0
C1552 C 0.44044 0.22341 0.21945 0.0
C1553 C 0.42686 0.21109 0.17126 0.0
C1554 C 0.42978 0.21632 0.10085 0.0
C1555 C 0.44631 0.23357 0.07922 0.0
C1556 C 0.45943 0.24607 0.12978 0.0
H1557 H 0.76937 0.19348 0.42064 0.0
H1558 H 0.75044 0.23486 0.4553 0.0
H1559 H 0.74803 0.23792 0.32818 0.0
H1560 H 0.79907 0.21564 0.28617 0.0
H1561 H 0.79361 0.19459 0.23538 0.0
H1562 H 0.79029 0.19261 0.32807 0.0
H1563 H 0.75451 0.16625 0.31309 0.0
H1564 H 0.75779 0.16771 0.22008 0.0
H1565 H 0.739 0.17086 0.25835 0.0
H1566 H 0.75462 0.24167 0.20078 0.0
H1567 H 0.76409 0.24167 0.07853 0.0
H1568 H 0.77648 0.19602 0.12491 0.0
C1569 C 0.76389 0.2025 0.40118 0.0
C1570 C 0.75976 0.21371 0.44701 0.0
C1571 C 0.75316 0.22582 0.42059 0.0
C1572 C 0.75191 0.22774 0.34862 0.0
C1573 C 0.75693 0.21712 0.30448 0.0
C1574 C 0.76221 0.20427 0.32967 0.0
C1575 C 0.76815 0.19558 0.2714 0.0
C1576 C 0.78901 0.19987 0.28087 0.0
C1577 C 0.75402 0.17381 0.26537 0.0
C1578 C 0.76642 0.20634 0.20985 0.0
C1579 C 0.75995 0.21871 0.23012 0.0
C1580 C 0.75916 0.23166 0.18392 0.0
C1581 C 0.7648 0.23174 0.11496 0.0
C1582 C 0.77093 0.2188 0.09286 0.0
C1583 C 0.77159 0.20585 0.14069 0.0
H1584 H 0.8755 0.46652 0.51097 0.0
H1585 H 0.92062 0.45331 0.55833 0.0
H1586 H 0.92369 0.44834 0.43337 0.0
H1587 H 0.85211 0.43124 0.39008 0.0
H1588 H 0.84582 0.44486 0.33192 0.0
H1589 H 0.84944 0.45088 0.42282 0.0
H1590 H 0.8753 0.48599 0.39286 0.0
H1591 H 0.87161 0.48016 0.30152 0.0
H1592 H 0.89542 0.49039 0.33833 0.0
H1593 H 0.91821 0.43963 0.30815 0.0
H1594 H 0.90592 0.4296 0.18886 0.0
H1595 H 0.86471 0.44893 0.22083 0.0
C1596 C 0.88645 0.46316 0.49497 0.0
C1597 C 0.89785 0.46033 0.54449 0.0
C1598 C 0.91179 0.45564 0.5214 0.0
C1599 C 0.91365 0.4528 0.45048 0.0
C1600 C 0.90164 0.45495 0.40335 0.0
C1601 C 0.8885 0.4603 0.42442 0.0
C1602 C 0.87613 0.45996 0.36413 0.0
C1603 C 0.85461 0.44589 0.37811 0.0
C1604 C 0.87984 0.48034 0.34828 0.0
C1605 C 0.88376 0.45271 0.3065 0.0
C1606 C 0.89862 0.45013 0.3302 0.0
C1607 C 0.90689 0.44197 0.28859 0.0
C1608 C 0.89972 0.43619 0.22121 0.0
C1609 C 0.88448 0.43864 0.19599 0.0
C1610 C 0.87661 0.44728 0.23872 0.0
H1611 H 0.56036 0.46121 0.56326 0.0
H1612 H 0.51491 0.4022 0.59773 0.0
H1613 H 0.51268 0.39621 0.47121 0.0
H1614 H 0.54011 0.46814 0.39978 0.0
H1615 H 0.56368 0.48282 0.36215 0.0
H1616 H 0.56049 0.48276 0.45495 0.0
H1617 H 0.58677 0.4733 0.4727 0.0
H1618 H 0.58989 0.47314 0.38011 0.0
H1619 H 0.58416 0.45199 0.43066 0.0
H1620 H 0.51861 0.39557 0.34238 0.0
H1621 H 0.5296 0.40125 0.22129 0.0
H1622 H 0.56918 0.46148 0.27031 0.0
C1623 C 0.5497 0.44714 0.54404 0.0
C1624 C 0.53782 0.43218 0.59017 0.0
C1625 C 0.52406 0.41393 0.5632 0.0
C1626 C 0.52273 0.41035 0.49144 0.0
C1627 C 0.535 0.42529 0.44739 0.0
C1628 C 0.54795 0.44342 0.47257 0.0
C1629 C 0.5598 0.45685 0.4145 0.0
C1630 C 0.55577 0.47363 0.40743 0.0
C1631 C 0.58143 0.46424 0.42515 0.0
C1632 C 0.55191 0.44327 0.35311 0.0
C1633 C 0.53766 0.42514 0.37293 0.0
C1634 C 0.52934 0.4099 0.32576 0.0
C1635 C 0.53562 0.41336 0.25628 0.0
C1636 C 0.54989 0.43203 0.23428 0.0
C1637 C 0.55804 0.44705 0.28417 0.0
H1638 H 0.54617 0.10226 0.63572 0.0
H1639 H 0.60695 0.12066 0.65459 0.0
H1640 H 0.61003 0.12229 0.52667 0.0
H1641 H 0.53765 0.0731 0.47502 0.0
H1642 H 0.521 0.07999 0.44116 0.0
H1643 H 0.5232 0.07818 0.53376 0.0
H1644 H 0.53052 0.11338 0.54866 0.0
H1645 H 0.52849 0.11535 0.4563 0.0
H1646 H 0.5502 0.13241 0.50083 0.0
H1647 H 0.60737 0.12619 0.39801 0.0
H1648 H 0.59874 0.1301 0.27868 0.0
H1649 H 0.53934 0.10737 0.34344 0.0
C1650 C 0.56004 0.10627 0.61289 0.0
C1651 C 0.57631 0.11133 0.65496 0.0
C1652 C 0.59425 0.11658 0.62327 0.0
C1653 C 0.59615 0.11757 0.55066 0.0
C1654 C 0.57992 0.11294 0.51065 0.0
C1655 C 0.56214 0.10711 0.54063 0.0
C1656 C 0.54717 0.10384 0.48632 0.0
C1657 C 0.53132 0.08251 0.48393 0.0
C1658 C 0.5386 0.11704 0.49879 0.0
C1659 C 0.55947 0.10954 0.42143 0.0
C1660 C 0.57828 0.11458 0.43632 0.0
C1661 C 0.59256 0.12171 0.38532 0.0
C1662 C 0.58746 0.12371 0.3173 0.0
C1663 C 0.56821 0.11846 0.30092 0.0
C1664 C 0.55412 0.11123 0.35395 0.0
H1665 H 0.44008 0.89688 0.39618 0.0
H1666 H 0.48776 0.88596 0.37678 0.0
H1667 H 0.48835 0.88284 0.50431 0.0
H1668 H 0.4565 0.92446 0.56143 0.0
H1669 H 0.43218 0.91441 0.59327 0.0
H1670 H 0.43692 0.91774 0.5012 0.0
H1671 H 0.41234 0.88158 0.48067 0.0
H1672 H 0.40768 0.87808 0.57256 0.0
H1673 H 0.41536 0.86356 0.52589 0.0
H1674 H 0.48074 0.87651 0.63188 0.0
H1675 H 0.46748 0.87036 0.75057 0.0
H1676 H 0.42618 0.88749 0.6877 0.0
C1677 C 0.4509 0.89422 0.41886 0.0
C1678 C 0.46387 0.89166 0.3766 0.0
C1679 C 0.47776 0.88811 0.40818 0.0
C1680 C 0.47819 0.88626 0.48057 0.0
C1681 C 0.46483 0.88832 0.52062 0.0
C1682 C 0.45166 0.89255 0.49098 0.0
C1683 C 0.43836 0.89329 0.54523 0.0
C1684 C 0.44116 0.91369 0.5506 0.0
C1685 C 0.41719 0.87823 0.53017 0.0
C1686 C 0.44567 0.88817 0.60963 0.0
C1687 C 0.46098 0.88542 0.59452 0.0
C1688 C 0.46917 0.87923 0.64485 0.0
C1689 C 0.46164 0.87596 0.71259 0.0
C1690 C 0.44623 0.87912 0.72957 0.0
C1691 C 0.43818 0.88524 0.67694 0.0
H1692 H 0.10635 0.54432 0.38111 0.0
H1693 H 0.11193 0.60088 0.36215 0.0
H1694 H 0.11386 0.6043 0.48991 0.0
H1695 H 0.07762 0.53036 0.54417 0.0
H1696 H 0.08956 0.51795 0.57681 0.0
H1697 H 0.08642 0.51914 0.4845 0.0
H1698 H 0.12324 0.53406 0.46659 0.0
H1699 H 0.12651 0.53308 0.5587 0.0
H1700 H 0.1396 0.5557 0.51316 0.0
H1701 H 0.11965 0.60333 0.61823 0.0
H1702 H 0.12648 0.59707 0.73712 0.0
H1703 H 0.11527 0.54041 0.67273 0.0
C1704 C 0.10758 0.55726 0.40385 0.0
C1705 C 0.10899 0.57232 0.36168 0.0
C1706 C 0.11071 0.58909 0.39343 0.0
C1707 C 0.11184 0.59118 0.46599 0.0
C1708 C 0.11096 0.57627 0.50599 0.0
C1709 C 0.10857 0.55951 0.47608 0.0
C1710 C 0.10901 0.54607 0.53026 0.0
C1711 C 0.08949 0.52727 0.53416 0.0
C1712 C 0.12558 0.542 0.51632 0.0
C1713 C 0.11267 0.55815 0.59499 0.0
C1714 C 0.11364 0.57547 0.58013 0.0
C1715 C 0.11833 0.58956 0.63094 0.0
C1716 C 0.12201 0.58577 0.69878 0.0
C1717 C 0.1208 0.56797 0.71529 0.0
C1718 C 0.11604 0.55406 0.66231 0.0
H1719 H 0.42282 0.54181 0.77019 0.0
H1720 H 0.45979 0.60406 0.76115 0.0
H1721 H 0.46389 0.60201 0.6357 0.0
H1722 H 0.44728 0.52951 0.6491 0.0
H1723 H 0.42631 0.51044 0.60684 0.0
H1724 H 0.42496 0.51629 0.69638 0.0
H1725 H 0.39651 0.5218 0.66774 0.0
H1726 H 0.39744 0.51548 0.5784 0.0
H1727 H 0.39909 0.53822 0.59901 0.0
H1728 H 0.46774 0.59341 0.5166 0.0
H1729 H 0.46531 0.57941 0.40083 0.0
H1730 H 0.42312 0.52298 0.47962 0.0
C1731 C 0.43118 0.55508 0.74176 0.0
C1732 C 0.44101 0.57312 0.77622 0.0
C1733 C 0.45223 0.59004 0.73641 0.0
C1734 C 0.45471 0.58906 0.66497 0.0
C1735 C 0.44558 0.57108 0.63327 0.0
C1736 C 0.43352 0.55443 0.66946 0.0
C1737 C 0.42532 0.53704 0.62131 0.0
C1738 C 0.43133 0.52246 0.64484 0.0
C1739 C 0.40328 0.52758 0.61631 0.0
C1740 C 0.435 0.54659 0.55313 0.0
C1741 C 0.44688 0.56619 0.56204 0.0
C1742 C 0.45824 0.57812 0.50844 0.0
C1743 C 0.45691 0.56996 0.44297 0.0
C1744 C 0.44402 0.55009 0.43108 0.0
C1745 C 0.43306 0.53821 0.48723 0.0
H1746 H 0.57151 0.80971 0.88952 0.0
H1747 H 0.53362 0.7516 0.96498 0.0
H1748 H 0.5193 0.74176 0.84884 0.0
H1749 H 0.53817 0.81164 0.76335 0.0
H1750 H 0.55642 0.82404 0.69803 0.0
H1751 H 0.56282 0.82759 0.7889 0.0
H1752 H 0.58837 0.8173 0.76811 0.0
H1753 H 0.58231 0.81413 0.67713 0.0
H1754 H 0.58126 0.79452 0.72659 0.0
H1755 H 0.50929 0.7376 0.72761 0.0
H1756 H 0.50822 0.73747 0.59988 0.0
H1757 H 0.55368 0.79737 0.59619 0.0
C1758 C 0.5602 0.79495 0.88121 0.0
C1759 C 0.55368 0.78141 0.93611 0.0
C1760 C 0.53899 0.76217 0.92351 0.0
C1761 C 0.53055 0.75649 0.85795 0.0
C1762 C 0.53709 0.77015 0.80512 0.0
C1763 C 0.55187 0.78885 0.81513 0.0
C1764 C 0.55741 0.7999 0.74693 0.0
C1765 C 0.55347 0.8168 0.74949 0.0
C1766 C 0.57859 0.80686 0.72861 0.0
C1767 C 0.54368 0.78431 0.69722 0.0
C1768 C 0.53176 0.76748 0.73278 0.0
C1769 C 0.51844 0.7507 0.69904 0.0
C1770 C 0.51791 0.75078 0.62656 0.0
C1771 C 0.53071 0.76744 0.58853 0.0
C1772 C 0.54336 0.78463 0.62421 0.0
H1773 H 0.24993 0.78313 0.62424 0.0
H1774 H 0.19153 0.748 0.54727 0.0
H1775 H 0.17904 0.74553 0.66602 0.0
H1776 H 0.24311 0.75946 0.79176 0.0
H1777 H 0.25844 0.78175 0.83667 0.0
H1778 H 0.2627 0.77924 0.7463 0.0
H1779 H 0.26046 0.80966 0.71759 0.0
H1780 H 0.25587 0.81208 0.80769 0.0
H1781 H 0.23913 0.81048 0.74185 0.0
H1782 H 0.17281 0.74793 0.79414 0.0
H1783 H 0.17357 0.75384 0.92061 0.0
H1784 H 0.23591 0.78903 0.91219 0.0
C1785 C 0.23451 0.77462 0.63236 0.0
C1786 C 0.22182 0.76526 0.57606 0.0
C1787 C 0.20172 0.75461 0.58918 0.0
C1788 C 0.19442 0.75339 0.65668 0.0
C1789 C 0.20736 0.76307 0.71056 0.0
C1790 C 0.22699 0.77342 0.69912 0.0
C1791 C 0.23783 0.78305 0.76528 0.0
C1792 C 0.25131 0.77541 0.78624 0.0
C1793 C 0.24898 0.80512 0.75761 0.0
C1794 C 0.22123 0.77655 0.81589 0.0
C1795 C 0.20375 0.76501 0.78341 0.0
C1796 C 0.18641 0.75698 0.81999 0.0
C1797 C 0.18699 0.76049 0.89182 0.0
C1798 C 0.20477 0.77203 0.92642 0.0
C1799 C 0.22205 0.78038 0.88734 0.0
H1800 H 0.24861 0.47733 0.60607 0.0
H1801 H 0.19329 0.4254 0.58003 0.0
H1802 H 0.19489 0.41574 0.70087 0.0
H1803 H 0.27047 0.45716 0.72674 0.0
H1804 H 0.28196 0.47886 0.77824 0.0
H1805 H 0.27801 0.48018 0.68661 0.0
H1806 H 0.25951 0.49828 0.71398 0.0
H1807 H 0.26346 0.49705 0.8054 0.0
H1808 H 0.23929 0.48757 0.77284 0.0
H1809 H 0.20105 0.4131 0.82598 0.0
H1810 H 0.20983 0.4189 0.95004 0.0
H1811 H 0.26057 0.47338 0.89717 0.0
C1812 C 0.23712 0.46375 0.62573 0.0
C1813 C 0.22092 0.45195 0.58437 0.0
C1814 C 0.20581 0.43452 0.61151 0.0
C1815 C 0.20668 0.42888 0.67967 0.0
C1816 C 0.2227 0.44094 0.71991 0.0
C1817 C 0.23761 0.45808 0.69421 0.0
C1818 C 0.25204 0.46944 0.75071 0.0
C1819 C 0.27179 0.47153 0.7346 0.0
C1820 C 0.25365 0.48925 0.76135 0.0
C1821 C 0.2426 0.45631 0.8125 0.0
C1822 C 0.22594 0.43974 0.79322 0.0
C1823 C 0.21417 0.42592 0.8417 0.0
C1824 C 0.21929 0.42935 0.91208 0.0
C1825 C 0.23587 0.44661 0.93335 0.0
C1826 C 0.24788 0.45999 0.88254 0.0
loop_
_geom_bond_atom_site_label_1
_geom_bond_atom_site_label_2
_geom_bond_distance
_geom_bond_site_symmetry_2
_ccdc_geom_bond_type
Co0 O3 1.970 . S
Co0 N17 1.989 . S
Co0 O25 1.967 . S
Co0 O32 1.920 . S
Co1 O4 1.966 . S
Co1 N10 2.022 . S
Co1 N18 1.993 . S
Co1 O26 1.941 . S
C2 O3 1.258 . S
C2 O4 1.263 . S
O3 Co0 1.970 . S
O3 C2 1.258 . S
O4 Co1 1.966 . S
O4 C2 1.263 . S
C5 O6 1.235 . S
C5 O32 1.289 . S
O6 C5 1.235 . S
C7 C9 1.400 . S
C7 N10 1.351 . S
C7 C12 1.501 . S
C8 C9 1.387 . S
C8 N11 1.341 . S
C9 C7 1.400 . S
C9 C8 1.387 . S
N10 Co1 2.022 . S
N10 C7 1.351 . S
N10 N11 1.365 . S
N11 C8 1.341 . S
N11 N10 1.365 . S
N11 H31 0.862 . S
C12 C7 1.501 . S
C12 H13 0.961 . S
C12 H14 0.961 . S
C12 H15 0.960 . S
H13 C12 0.961 . S
H14 C12 0.961 . S
H15 C12 0.960 . S
C16 N17 1.342 . S
C16 C20 1.401 . S
C16 C21 1.499 . S
N17 Co0 1.989 . S
N17 C16 1.342 . S
N17 N18 1.388 . S
N18 Co1 1.993 . S
N18 N17 1.388 . S
N18 C19 1.346 . S
C19 N18 1.346 . S
C19 C20 1.396 . S
C19 C29 1.510 . S
C20 C16 1.401 . S
C20 C19 1.396 . S
C21 C16 1.499 . S
C21 H22 0.959 . S
C21 H23 0.960 . S
C21 H24 0.961 . S
H22 C21 0.959 . S
H23 C21 0.960 . S
H24 C21 0.961 . S
O25 Co0 1.967 . S
O25 C33 1.258 . S
O26 Co1 1.941 . S
O26 C33 1.266 . S
H27 C29 0.959 . S
H28 C29 0.961 . S
C29 C19 1.510 . S
C29 H27 0.959 . S
C29 H28 0.961 . S
C29 H30 0.960 . S
H30 C29 0.960 . S
H31 N11 0.862 . S
O32 Co0 1.920 . S
O32 C5 1.289 . S
C33 O25 1.258 . S
C33 O26 1.266 . S
Co34 O37 1.970 . S
Co34 N51 1.989 . S
Co34 O59 1.967 . S
Co34 O66 1.920 . S
Co35 O38 1.966 . S
Co35 N44 2.022 . S
Co35 N52 1.993 . S
Co35 O60 1.941 . S
C36 O37 1.258 . S
C36 O38 1.263 . S
O37 Co34 1.970 . S
O37 C36 1.258 . S
O38 Co35 1.966 . S
O38 C36 1.263 . S
C39 O40 1.235 . S
C39 O66 1.289 . S
O40 C39 1.235 . S
C41 C43 1.400 . S
C41 N44 1.351 . S
C41 C46 1.501 . S
C42 C43 1.387 . S
C42 N45 1.341 . S
C43 C41 1.400 . S
C43 C42 1.387 . S
N44 Co35 2.022 . S
N44 C41 1.351 . S
N44 N45 1.365 . S
N45 C42 1.341 . S
N45 N44 1.365 . S
N45 H65 0.862 . S
C46 C41 1.501 . S
C46 H47 0.961 . S
C46 H48 0.961 . S
C46 H49 0.960 . S
H47 C46 0.961 . S
H48 C46 0.961 . S
H49 C46 0.960 . S
C50 N51 1.342 . S
C50 C54 1.401 . S
C50 C55 1.499 . S
N51 Co34 1.989 . S
N51 C50 1.342 . S
N51 N52 1.388 . S
N52 Co35 1.993 . S
N52 N51 1.388 . S
N52 C53 1.346 . S
C53 N52 1.346 . S
C53 C54 1.396 . S
C53 C63 1.510 . S
C54 C50 1.401 . S
C54 C53 1.396 . S
C55 C50 1.499 . S
C55 H56 0.959 . S
C55 H57 0.960 . S
C55 H58 0.961 . S
H56 C55 0.959 . S
H57 C55 0.960 . S
H58 C55 0.961 . S
O59 Co34 1.967 . S
O59 C67 1.258 . S
O60 Co35 1.941 . S
O60 C67 1.266 . S
H61 C63 0.959 . S
H62 C63 0.961 . S
C63 C53 1.510 . S
C63 H61 0.959 . S
C63 H62 0.961 . S
C63 H64 0.960 . S
H64 C63 0.960 . S
H65 N45 0.862 . S
O66 Co34 1.920 . S
O66 C39 1.289 . S
C67 O59 1.258 . S
C67 O60 1.266 . S
Co68 O71 1.970 . S
Co68 N85 1.989 . S
Co68 O93 1.967 . S
Co68 O100 1.920 . S
Co69 O72 1.966 . S
Co69 N78 2.022 . S
Co69 N86 1.993 . S
Co69 O94 1.941 . S
C70 O71 1.258 . S
C70 O72 1.263 . S
O71 Co68 1.970 . S
O71 C70 1.258 . S
O72 Co69 1.966 . S
O72 C70 1.263 . S
C73 O74 1.235 . S
C73 O100 1.289 . S
O74 C73 1.235 . S
C75 C77 1.400 . S
C75 N78 1.351 . S
C75 C80 1.501 . S
C76 C77 1.387 . S
C76 N79 1.341 . S
C77 C75 1.400 . S
C77 C76 1.387 . S
N78 Co69 2.022 . S
N78 C75 1.351 . S
N78 N79 1.365 . S
N79 C76 1.341 . S
N79 N78 1.365 . S
N79 H99 0.862 . S
C80 C75 1.501 . S
C80 H81 0.961 . S
C80 H82 0.961 . S
C80 H83 0.960 . S
H81 C80 0.961 . S
H82 C80 0.961 . S
H83 C80 0.960 . S
C84 N85 1.342 . S
C84 C88 1.401 . S
C84 C89 1.499 . S
N85 Co68 1.989 . S
N85 C84 1.342 . S
N85 N86 1.388 . S
N86 Co69 1.993 . S
N86 N85 1.388 . S
N86 C87 1.346 . S
C87 N86 1.346 . S
C87 C88 1.396 . S
C87 C97 1.510 . S
C88 C84 1.401 . S
C88 C87 1.396 . S
C89 C84 1.499 . S
C89 H90 0.959 . S
C89 H91 0.960 . S
C89 H92 0.961 . S
H90 C89 0.959 . S
H91 C89 0.960 . S
H92 C89 0.961 . S
O93 Co68 1.967 . S
O93 C101 1.258 . S
O94 Co69 1.941 . S
O94 C101 1.266 . S
H95 C97 0.959 . S
H96 C97 0.961 . S
C97 C87 1.510 . S
C97 H95 0.959 . S
C97 H96 0.961 . S
C97 H98 0.960 . S
H98 C97 0.960 . S
H99 N79 0.862 . S
O100 Co68 1.920 . S
O100 C73 1.289 . S
C101 O93 1.258 . S
C101 O94 1.266 . S
Co102 O105 1.970 . S
Co102 N119 1.989 . S
Co102 O127 1.967 . S
Co102 O134 1.920 . S
Co103 O106 1.966 . S
Co103 N112 2.022 . S
Co103 N120 1.993 . S
Co103 O128 1.941 . S
C104 O105 1.258 . S
C104 O106 1.263 . S
O105 Co102 1.970 . S
O105 C104 1.258 . S
O106 Co103 1.966 . S
O106 C104 1.263 . S
C107 O108 1.235 . S
C107 O134 1.289 . S
O108 C107 1.235 . S
C109 C111 1.400 . S
C109 N112 1.351 . S
C109 C114 1.501 . S
C110 C111 1.387 . S
C110 N113 1.341 . S
C111 C109 1.400 . S
C111 C110 1.387 . S
N112 Co103 2.022 . S
N112 C109 1.351 . S
N112 N113 1.365 . S
N113 C110 1.341 . S
N113 N112 1.365 . S
N113 H133 0.862 . S
C114 C109 1.501 . S
C114 H115 0.961 . S
C114 H116 0.961 . S
C114 H117 0.960 . S
H115 C114 0.961 . S
H116 C114 0.961 . S
H117 C114 0.960 . S
C118 N119 1.342 . S
C118 C122 1.401 . S
C118 C123 1.499 . S
N119 Co102 1.989 . S
N119 C118 1.342 . S
N119 N120 1.388 . S
N120 Co103 1.993 . S
N120 N119 1.388 . S
N120 C121 1.346 . S
C121 N120 1.346 . S
C121 C122 1.396 . S
C121 C131 1.510 . S
C122 C118 1.401 . S
C122 C121 1.396 . S
C123 C118 1.499 . S
C123 H124 0.959 . S
C123 H125 0.960 . S
C123 H126 0.961 . S
H124 C123 0.959 . S
H125 C123 0.960 . S
H126 C123 0.961 . S
O127 Co102 1.967 . S
O127 C135 1.258 . S
O128 Co103 1.941 . S
O128 C135 1.266 . S
H129 C131 0.959 . S
H130 C131 0.961 . S
C131 C121 1.510 . S
C131 H129 0.959 . S
C131 H130 0.961 . S
C131 H132 0.960 . S
H132 C131 0.960 . S
H133 N113 0.862 . S
O134 Co102 1.920 . S
O134 C107 1.289 . S
C135 O127 1.258 . S
C135 O128 1.266 . S
Co136 O139 1.970 . S
Co136 N153 1.989 . S
Co136 O161 1.967 . S
Co136 O168 1.920 . S
Co137 O140 1.966 . S
Co137 N146 2.022 . S
Co137 N154 1.993 . S
Co137 O162 1.941 . S
C138 O139 1.258 . S
C138 O140 1.263 . S
O139 Co136 1.970 . S
O139 C138 1.258 . S
O140 Co137 1.966 . S
O140 C138 1.263 . S
C141 O142 1.235 . S
C141 O168 1.289 . S
O142 C141 1.235 . S
C143 C145 1.400 . S
C143 N146 1.351 . S
C143 C148 1.501 . S
C144 C145 1.387 . S
C144 N147 1.341 . S
C145 C143 1.400 . S
C145 C144 1.387 . S
N146 Co137 2.022 . S
N146 C143 1.351 . S
N146 N147 1.365 . S
N147 C144 1.341 . S
N147 N146 1.365 . S
N147 H167 0.862 . S
C148 C143 1.501 . S
C148 H149 0.961 . S
C148 H150 0.961 . S
C148 H151 0.960 . S
H149 C148 0.961 . S
H150 C148 0.961 . S
H151 C148 0.960 . S
C152 N153 1.342 . S
C152 C156 1.401 . S
C152 C157 1.499 . S
N153 Co136 1.989 . S
N153 C152 1.342 . S
N153 N154 1.388 . S
N154 Co137 1.993 . S
N154 N153 1.388 . S
N154 C155 1.346 . S
C155 N154 1.346 . S
C155 C156 1.396 . S
C155 C165 1.510 . S
C156 C152 1.401 . S
C156 C155 1.396 . S
C157 C152 1.499 . S
C157 H158 0.959 . S
C157 H159 0.960 . S
C157 H160 0.961 . S
H158 C157 0.959 . S
H159 C157 0.960 . S
H160 C157 0.961 . S
O161 Co136 1.967 . S
O161 C169 1.258 . S
O162 Co137 1.941 . S
O162 C169 1.266 . S
H163 C165 0.959 . S
H164 C165 0.961 . S
C165 C155 1.510 . S
C165 H163 0.959 . S
C165 H164 0.961 . S
C165 H166 0.960 . S
H166 C165 0.960 . S
H167 N147 0.862 . S
O168 Co136 1.920 . S
O168 C141 1.289 . S
C169 O161 1.258 . S
C169 O162 1.266 . S
Co170 O173 1.970 . S
Co170 N187 1.989 . S
Co170 O195 1.967 . S
Co170 O202 1.920 . S
Co171 O174 1.966 . S
Co171 N180 2.022 . S
Co171 N188 1.993 . S
Co171 O196 1.941 . S
C172 O173 1.258 . S
C172 O174 1.263 . S
O173 Co170 1.970 . S
O173 C172 1.258 . S
O174 Co171 1.966 . S
O174 C172 1.263 . S
C175 O176 1.235 . S
C175 O202 1.289 . S
O176 C175 1.235 . S
C177 C179 1.400 . S
C177 N180 1.351 . S
C177 C182 1.501 . S
C178 C179 1.387 . S
C178 N181 1.341 . S
C179 C177 1.400 . S
C179 C178 1.387 . S
N180 Co171 2.022 . S
N180 C177 1.351 . S
N180 N181 1.365 . S
N181 C178 1.341 . S
N181 N180 1.365 . S
N181 H201 0.862 . S
C182 C177 1.501 . S
C182 H183 0.961 . S
C182 H184 0.961 . S
C182 H185 0.960 . S
H183 C182 0.961 . S
H184 C182 0.961 . S
H185 C182 0.960 . S
C186 N187 1.342 . S
C186 C190 1.401 . S
C186 C191 1.499 . S
N187 Co170 1.989 . S
N187 C186 1.342 . S
N187 N188 1.388 . S
N188 Co171 1.993 . S
N188 N187 1.388 . S
N188 C189 1.346 . S
C189 N188 1.346 . S
C189 C190 1.396 . S
C189 C199 1.510 . S
C190 C186 1.401 . S
C190 C189 1.396 . S
C191 C186 1.499 . S
C191 H192 0.959 . S
C191 H193 0.960 . S
C191 H194 0.961 . S
H192 C191 0.959 . S
H193 C191 0.960 . S
H194 C191 0.961 . S
O195 Co170 1.967 . S
O195 C203 1.258 . S
O196 Co171 1.941 . S
O196 C203 1.266 . S
H197 C199 0.959 . S
H198 C199 0.961 . S
C199 C189 1.510 . S
C199 H197 0.959 . S
C199 H198 0.961 . S
C199 H200 0.960 . S
H200 C199 0.960 . S
H201 N181 0.862 . S
O202 Co170 1.920 . S
O202 C175 1.289 . S
C203 O195 1.258 . S
C203 O196 1.266 . S
Co204 O207 1.970 . S
Co204 N221 1.989 . S
Co204 O229 1.967 . S
Co204 O236 1.920 . S
Co205 O208 1.966 . S
Co205 N214 2.022 . S
Co205 N222 1.993 . S
Co205 O230 1.941 . S
C206 O207 1.258 . S
C206 O208 1.263 . S
O207 Co204 1.970 . S
O207 C206 1.258 . S
O208 Co205 1.966 . S
O208 C206 1.263 . S
C209 O210 1.235 . S
C209 O236 1.289 . S
O210 C209 1.235 . S
C211 C213 1.400 . S
C211 N214 1.351 . S
C211 C216 1.501 . S
C212 C213 1.387 . S
C212 N215 1.341 . S
C213 C211 1.400 . S
C213 C212 1.387 . S
N214 Co205 2.022 . S
N214 C211 1.351 . S
N214 N215 1.365 . S
N215 C212 1.341 . S
N215 N214 1.365 . S
N215 H235 0.862 . S
C216 C211 1.501 . S
C216 H217 0.961 . S
C216 H218 0.961 . S
C216 H219 0.960 . S
H217 C216 0.961 . S
H218 C216 0.961 . S
H219 C216 0.960 . S
C220 N221 1.342 . S
C220 C224 1.401 . S
C220 C225 1.499 . S
N221 Co204 1.989 . S
N221 C220 1.342 . S
N221 N222 1.388 . S
N222 Co205 1.993 . S
N222 N221 1.388 . S
N222 C223 1.346 . S
C223 N222 1.346 . S
C223 C224 1.396 . S
C223 C233 1.510 . S
C224 C220 1.401 . S
C224 C223 1.396 . S
C225 C220 1.499 . S
C225 H226 0.959 . S
C225 H227 0.960 . S
C225 H228 0.961 . S
H226 C225 0.959 . S
H227 C225 0.960 . S
H228 C225 0.961 . S
O229 Co204 1.967 . S
O229 C237 1.258 . S
O230 Co205 1.941 . S
O230 C237 1.266 . S
H231 C233 0.959 . S
H232 C233 0.961 . S
C233 C223 1.510 . S
C233 H231 0.959 . S
C233 H232 0.961 . S
C233 H234 0.960 . S
H234 C233 0.960 . S
H235 N215 0.862 . S
O236 Co204 1.920 . S
O236 C209 1.289 . S
C237 O229 1.258 . S
C237 O230 1.266 . S
Co238 O241 1.970 . S
Co238 N255 1.989 . S
Co238 O263 1.967 . S
Co238 O270 1.920 . S
Co239 O242 1.966 . S
Co239 N248 2.022 . S
Co239 N256 1.993 . S
Co239 O264 1.941 . S
C240 O241 1.258 . S
C240 O242 1.263 . S
O241 Co238 1.970 . S
O241 C240 1.258 . S
O242 Co239 1.966 . S
O242 C240 1.263 . S
C243 O244 1.235 . S
C243 O270 1.289 . S
O244 C243 1.235 . S
C245 C247 1.400 . S
C245 N248 1.351 . S
C245 C250 1.501 . S
C246 C247 1.387 . S
C246 N249 1.341 . S
C247 C245 1.400 . S
C247 C246 1.387 . S
N248 Co239 2.022 . S
N248 C245 1.351 . S
N248 N249 1.365 . S
N249 C246 1.341 . S
N249 N248 1.365 . S
N249 H269 0.862 . S
C250 C245 1.501 . S
C250 H251 0.961 . S
C250 H252 0.961 . S
C250 H253 0.960 . S
H251 C250 0.961 . S
H252 C250 0.961 . S
H253 C250 0.960 . S
C254 N255 1.342 . S
C254 C258 1.401 . S
C254 C259 1.499 . S
N255 Co238 1.989 . S
N255 C254 1.342 . S
N255 N256 1.388 . S
N256 Co239 1.993 . S
N256 N255 1.388 . S
N256 C257 1.346 . S
C257 N256 1.346 . S
C257 C258 1.396 . S
C257 C267 1.510 . S
C258 C254 1.401 . S
C258 C257 1.396 . S
C259 C254 1.499 . S
C259 H260 0.959 . S
C259 H261 0.960 . S
C259 H262 0.961 . S
H260 C259 0.959 . S
H261 C259 0.960 . S
H262 C259 0.961 . S
O263 Co238 1.967 . S
O263 C271 1.258 . S
O264 Co239 1.941 . S
O264 C271 1.266 . S
H265 C267 0.959 . S
H266 C267 0.961 . S
C267 C257 1.510 . S
C267 H265 0.959 . S
C267 H266 0.961 . S
C267 H268 0.960 . S
H268 C267 0.960 . S
H269 N249 0.862 . S
O270 Co238 1.920 . S
O270 C243 1.289 . S
C271 O263 1.258 . S
C271 O264 1.266 . S
Co272 O275 1.970 . S
Co272 N289 1.989 . S
Co272 O297 1.967 . S
Co272 O304 1.920 . S
Co273 O276 1.966 . S
Co273 N282 2.022 . S
Co273 N290 1.993 . S
Co273 O298 1.941 . S
C274 O275 1.258 . S
C274 O276 1.263 . S
O275 Co272 1.970 . S
O275 C274 1.258 . S
O276 Co273 1.966 . S
O276 C274 1.263 . S
C277 O278 1.235 . S
C277 O304 1.289 . S
O278 C277 1.235 . S
C279 C281 1.400 . S
C279 N282 1.351 . S
C279 C284 1.501 . S
C280 C281 1.387 . S
C280 N283 1.341 . S
C281 C279 1.400 . S
C281 C280 1.387 . S
N282 Co273 2.022 . S
N282 C279 1.351 . S
N282 N283 1.365 . S
N283 C280 1.341 . S
N283 N282 1.365 . S
N283 H303 0.862 . S
C284 C279 1.501 . S
C284 H285 0.961 . S
C284 H286 0.961 . S
C284 H287 0.960 . S
H285 C284 0.961 . S
H286 C284 0.961 . S
H287 C284 0.960 . S
C288 N289 1.342 . S
C288 C292 1.401 . S
C288 C293 1.499 . S
N289 Co272 1.989 . S
N289 C288 1.342 . S
N289 N290 1.388 . S
N290 Co273 1.993 . S
N290 N289 1.388 . S
N290 C291 1.346 . S
C291 N290 1.346 . S
C291 C292 1.396 . S
C291 C301 1.510 . S
C292 C288 1.401 . S
C292 C291 1.396 . S
C293 C288 1.499 . S
C293 H294 0.959 . S
C293 H295 0.960 . S
C293 H296 0.961 . S
H294 C293 0.959 . S
H295 C293 0.960 . S
H296 C293 0.961 . S
O297 Co272 1.967 . S
O297 C305 1.258 . S
O298 Co273 1.941 . S
O298 C305 1.266 . S
H299 C301 0.959 . S
H300 C301 0.961 . S
C301 C291 1.510 . S
C301 H299 0.959 . S
C301 H300 0.961 . S
C301 H302 0.960 . S
H302 C301 0.960 . S
H303 N283 0.862 . S
O304 Co272 1.920 . S
O304 C277 1.289 . S
C305 O297 1.258 . S
C305 O298 1.266 . S
Co306 O309 1.970 . S
Co306 N323 1.989 . S
Co306 O331 1.967 . S
Co306 O338 1.920 . S
Co307 O310 1.966 . S
Co307 N316 2.022 1_556 S
Co307 N324 1.993 . S
Co307 O332 1.941 . S
C308 O309 1.258 . S
C308 O310 1.263 . S
O309 Co306 1.970 . S
O309 C308 1.258 . S
O310 Co307 1.966 . S
O310 C308 1.263 . S
C311 O312 1.235 . S
C311 O338 1.289 . S
O312 C311 1.235 . S
C313 C315 1.400 . S
C313 N316 1.351 . S
C313 C318 1.501 . S
C314 C315 1.387 . S
C314 N317 1.341 . S
C315 C313 1.400 . S
C315 C314 1.387 . S
N316 Co307 2.022 1_554 S
N316 C313 1.351 . S
N316 N317 1.365 . S
N317 C314 1.341 . S
N317 N316 1.365 . S
N317 H337 0.862 . S
C318 C313 1.501 . S
C318 H319 0.961 . S
C318 H320 0.961 . S
C318 H321 0.960 . S
H319 C318 0.961 . S
H320 C318 0.961 . S
H321 C318 0.960 . S
C322 N323 1.342 . S
C322 C326 1.401 . S
C322 C327 1.499 . S
N323 Co306 1.989 . S
N323 C322 1.342 . S
N323 N324 1.388 . S
N324 Co307 1.993 . S
N324 N323 1.388 . S
N324 C325 1.346 . S
C325 N324 1.346 . S
C325 C326 1.396 . S
C325 C335 1.510 1_556 S
C326 C322 1.401 . S
C326 C325 1.396 . S
C327 C322 1.499 . S
C327 H328 0.959 . S
C327 H329 0.960 . S
C327 H330 0.961 . S
H328 C327 0.959 . S
H329 C327 0.960 . S
H330 C327 0.961 . S
O331 Co306 1.967 . S
O331 C339 1.258 . S
O332 Co307 1.941 . S
O332 C339 1.266 . S
H333 C335 0.959 . S
H334 C335 0.961 . S
C335 C325 1.510 1_554 S
C335 H333 0.959 . S
C335 H334 0.961 . S
C335 H336 0.960 . S
H336 C335 0.960 . S
H337 N317 0.862 . S
O338 Co306 1.920 . S
O338 C311 1.289 . S
C339 O331 1.258 . S
C339 O332 1.266 . S
Co340 O343 1.970 . S
Co340 N357 1.989 . S
Co340 O365 1.967 . S
Co340 O372 1.920 . S
Co341 O344 1.966 . S
Co341 N350 2.022 1_556 S
Co341 N358 1.993 . S
Co341 O366 1.941 . S
C342 O343 1.258 . S
C342 O344 1.263 . S
O343 Co340 1.970 . S
O343 C342 1.258 . S
O344 Co341 1.966 . S
O344 C342 1.263 . S
C345 O346 1.235 . S
C345 O372 1.289 . S
O346 C345 1.235 . S
C347 C349 1.400 . S
C347 N350 1.351 . S
C347 C352 1.501 . S
C348 C349 1.387 . S
C348 N351 1.341 . S
C349 C347 1.400 . S
C349 C348 1.387 . S
N350 Co341 2.022 1_554 S
N350 C347 1.351 . S
N350 N351 1.365 . S
N351 C348 1.341 . S
N351 N350 1.365 . S
N351 H371 0.862 . S
C352 C347 1.501 . S
C352 H353 0.961 . S
C352 H354 0.961 . S
C352 H355 0.960 . S
H353 C352 0.961 . S
H354 C352 0.961 . S
H355 C352 0.960 . S
C356 N357 1.342 . S
C356 C360 1.401 . S
C356 C361 1.499 . S
N357 Co340 1.989 . S
N357 C356 1.342 . S
N357 N358 1.388 . S
N358 Co341 1.993 . S
N358 N357 1.388 . S
N358 C359 1.346 . S
C359 N358 1.346 . S
C359 C360 1.396 . S
C359 C369 1.510 1_556 S
C360 C356 1.401 . S
C360 C359 1.396 . S
C361 C356 1.499 . S
C361 H362 0.959 . S
C361 H363 0.960 . S
C361 H364 0.961 . S
H362 C361 0.959 . S
H363 C361 0.960 . S
H364 C361 0.961 . S
O365 Co340 1.967 . S
O365 C373 1.258 . S
O366 Co341 1.941 . S
O366 C373 1.266 . S
H367 C369 0.959 . S
H368 C369 0.961 . S
C369 C359 1.510 1_554 S
C369 H367 0.959 . S
C369 H368 0.961 . S
C369 H370 0.960 . S
H370 C369 0.960 . S
H371 N351 0.862 . S
O372 Co340 1.920 . S
O372 C345 1.289 . S
C373 O365 1.258 . S
C373 O366 1.266 . S
Co374 O377 1.970 . S
Co374 N391 1.989 . S
Co374 O399 1.967 . S
Co374 O406 1.920 . S
Co375 O378 1.966 . S
Co375 N384 2.022 1_556 S
Co375 N392 1.993 . S
Co375 O400 1.941 . S
C376 O377 1.258 . S
C376 O378 1.263 . S
O377 Co374 1.970 . S
O377 C376 1.258 . S
O378 Co375 1.966 . S
O378 C376 1.263 . S
C379 O380 1.235 . S
C379 O406 1.289 . S
O380 C379 1.235 . S
C381 C383 1.400 . S
C381 N384 1.351 . S
C381 C386 1.501 . S
C382 C383 1.387 . S
C382 N385 1.341 . S
C383 C381 1.400 . S
C383 C382 1.387 . S
N384 Co375 2.022 1_554 S
N384 C381 1.351 . S
N384 N385 1.365 . S
N385 C382 1.341 . S
N385 N384 1.365 . S
N385 H405 0.862 . S
C386 C381 1.501 . S
C386 H387 0.961 . S
C386 H388 0.961 . S
C386 H389 0.960 . S
H387 C386 0.961 . S
H388 C386 0.961 . S
H389 C386 0.960 . S
C390 N391 1.342 . S
C390 C394 1.401 . S
C390 C395 1.499 . S
N391 Co374 1.989 . S
N391 C390 1.342 . S
N391 N392 1.388 . S
N392 Co375 1.993 . S
N392 N391 1.388 . S
N392 C393 1.346 . S
C393 N392 1.346 . S
C393 C394 1.396 . S
C393 C403 1.510 1_556 S
C394 C390 1.401 . S
C394 C393 1.396 . S
C395 C390 1.499 . S
C395 H396 0.959 . S
C395 H397 0.960 . S
C395 H398 0.961 . S
H396 C395 0.959 . S
H397 C395 0.960 . S
H398 C395 0.961 . S
O399 Co374 1.967 . S
O399 C407 1.258 . S
O400 Co375 1.941 . S
O400 C407 1.266 . S
H401 C403 0.959 . S
H402 C403 0.961 . S
C403 C393 1.510 1_554 S
C403 H401 0.959 . S
C403 H402 0.961 . S
C403 H404 0.960 . S
H404 C403 0.960 . S
H405 N385 0.862 . S
O406 Co374 1.920 . S
O406 C379 1.289 . S
C407 O399 1.258 . S
C407 O400 1.266 . S
Co408 O411 1.970 . S
Co408 N425 1.989 . S
Co408 O433 1.967 . S
Co408 O440 1.920 . S
Co409 O412 1.966 . S
Co409 N418 2.022 1_554 S
Co409 N426 1.993 . S
Co409 O434 1.941 . S
C410 O411 1.258 . S
C410 O412 1.263 . S
O411 Co408 1.970 . S
O411 C410 1.258 . S
O412 Co409 1.966 . S
O412 C410 1.263 . S
C413 O414 1.235 . S
C413 O440 1.289 . S
O414 C413 1.235 . S
C415 C417 1.400 . S
C415 N418 1.351 . S
C415 C420 1.501 . S
C416 C417 1.387 . S
C416 N419 1.341 . S
C417 C415 1.400 . S
C417 C416 1.387 . S
N418 Co409 2.022 1_556 S
N418 C415 1.351 . S
N418 N419 1.365 . S
N419 C416 1.341 . S
N419 N418 1.365 . S
N419 H439 0.862 . S
C420 C415 1.501 . S
C420 H421 0.961 . S
C420 H422 0.961 . S
C420 H423 0.960 . S
H421 C420 0.961 . S
H422 C420 0.961 . S
H423 C420 0.960 . S
C424 N425 1.342 . S
C424 C428 1.401 . S
C424 C429 1.499 . S
N425 Co408 1.989 . S
N425 C424 1.342 . S
N425 N426 1.388 . S
N426 Co409 1.993 . S
N426 N425 1.388 . S
N426 C427 1.346 . S
C427 N426 1.346 . S
C427 C428 1.396 . S
C427 C437 1.510 1_554 S
C428 C424 1.401 . S
C428 C427 1.396 . S
C429 C424 1.499 . S
C429 H430 0.959 . S
C429 H431 0.960 . S
C429 H432 0.961 . S
H430 C429 0.959 . S
H431 C429 0.960 . S
H432 C429 0.961 . S
O433 Co408 1.967 . S
O433 C441 1.258 . S
O434 Co409 1.941 . S
O434 C441 1.266 . S
H435 C437 0.959 . S
H436 C437 0.961 . S
C437 C427 1.510 1_556 S
C437 H435 0.959 . S
C437 H436 0.961 . S
C437 H438 0.960 . S
H438 C437 0.960 . S
H439 N419 0.862 . S
O440 Co408 1.920 . S
O440 C413 1.289 . S
C441 O433 1.258 . S
C441 O434 1.266 . S
Co442 O445 1.970 . S
Co442 N459 1.989 . S
Co442 O467 1.967 . S
Co442 O474 1.920 . S
Co443 O446 1.966 . S
Co443 N452 2.022 1_554 S
Co443 N460 1.993 . S
Co443 O468 1.941 . S
C444 O445 1.258 . S
C444 O446 1.263 . S
O445 Co442 1.970 . S
O445 C444 1.258 . S
O446 Co443 1.966 . S
O446 C444 1.263 . S
C447 O448 1.235 . S
C447 O474 1.289 . S
O448 C447 1.235 . S
C449 C451 1.400 . S
C449 N452 1.351 . S
C449 C454 1.501 . S
C450 C451 1.387 . S
C450 N453 1.341 . S
C451 C449 1.400 . S
C451 C450 1.387 . S
N452 Co443 2.022 1_556 S
N452 C449 1.351 . S
N452 N453 1.365 . S
N453 C450 1.341 . S
N453 N452 1.365 . S
N453 H473 0.862 . S
C454 C449 1.501 . S
C454 H455 0.961 . S
C454 H456 0.961 . S
C454 H457 0.960 . S
H455 C454 0.961 . S
H456 C454 0.961 . S
H457 C454 0.960 . S
C458 N459 1.342 . S
C458 C462 1.401 . S
C458 C463 1.499 . S
N459 Co442 1.989 . S
N459 C458 1.342 . S
N459 N460 1.388 . S
N460 Co443 1.993 . S
N460 N459 1.388 . S
N460 C461 1.346 . S
C461 N460 1.346 . S
C461 C462 1.396 . S
C461 C471 1.510 1_554 S
C462 C458 1.401 . S
C462 C461 1.396 . S
C463 C458 1.499 . S
C463 H464 0.959 . S
C463 H465 0.960 . S
C463 H466 0.961 . S
H464 C463 0.959 . S
H465 C463 0.960 . S
H466 C463 0.961 . S
O467 Co442 1.967 . S
O467 C475 1.258 . S
O468 Co443 1.941 . S
O468 C475 1.266 . S
H469 C471 0.959 . S
H470 C471 0.961 . S
C471 C461 1.510 1_556 S
C471 H469 0.959 . S
C471 H470 0.961 . S
C471 H472 0.960 . S
H472 C471 0.960 . S
H473 N453 0.862 . S
O474 Co442 1.920 . S
O474 C447 1.289 . S
C475 O467 1.258 . S
C475 O468 1.266 . S
Co476 O479 1.970 . S
Co476 N493 1.989 . S
Co476 O501 1.967 . S
Co476 O508 1.920 . S
Co477 O480 1.966 . S
Co477 N486 2.022 1_554 S
Co477 N494 1.993 . S
Co477 O502 1.941 . S
C478 O479 1.258 . S
C478 O480 1.263 . S
O479 Co476 1.970 . S
O479 C478 1.258 . S
O480 Co477 1.966 . S
O480 C478 1.263 . S
C481 O482 1.235 . S
C481 O508 1.289 . S
O482 C481 1.235 . S
C483 C485 1.400 . S
C483 N486 1.351 . S
C483 C488 1.501 . S
C484 C485 1.387 . S
C484 N487 1.341 . S
C485 C483 1.400 . S
C485 C484 1.387 . S
N486 Co477 2.022 1_556 S
N486 C483 1.351 . S
N486 N487 1.365 . S
N487 C484 1.341 . S
N487 N486 1.365 . S
N487 H507 0.862 . S
C488 C483 1.501 . S
C488 H489 0.961 . S
C488 H490 0.961 . S
C488 H491 0.960 . S
H489 C488 0.961 . S
H490 C488 0.961 . S
H491 C488 0.960 . S
C492 N493 1.342 . S
C492 C496 1.401 . S
C492 C497 1.499 . S
N493 Co476 1.989 . S
N493 C492 1.342 . S
N493 N494 1.388 . S
N494 Co477 1.993 . S
N494 N493 1.388 . S
N494 C495 1.346 . S
C495 N494 1.346 . S
C495 C496 1.396 . S
C495 C505 1.510 1_554 S
C496 C492 1.401 . S
C496 C495 1.396 . S
C497 C492 1.499 . S
C497 H498 0.959 . S
C497 H499 0.960 . S
C497 H500 0.961 . S
H498 C497 0.959 . S
H499 C497 0.960 . S
H500 C497 0.961 . S
O501 Co476 1.967 . S
O501 C509 1.258 . S
O502 Co477 1.941 . S
O502 C509 1.266 . S
H503 C505 0.959 . S
H504 C505 0.961 . S
C505 C495 1.510 1_556 S
C505 H503 0.959 . S
C505 H504 0.961 . S
C505 H506 0.960 . S
H506 C505 0.960 . S
H507 N487 0.862 . S
O508 Co476 1.920 . S
O508 C481 1.289 . S
C509 O501 1.258 . S
C509 O502 1.266 . S
Co510 O513 1.970 . S
Co510 N527 1.989 . S
Co510 O535 1.967 . S
Co510 O542 1.920 . S
Co511 O514 1.966 . S
Co511 N520 2.022 . S
Co511 N528 1.993 . S
Co511 O536 1.941 . S
C512 O513 1.258 . S
C512 O514 1.263 . S
O513 Co510 1.970 . S
O513 C512 1.258 . S
O514 Co511 1.966 . S
O514 C512 1.263 . S
C515 O516 1.235 . S
C515 O542 1.289 . S
O516 C515 1.235 . S
C517 C519 1.400 . S
C517 N520 1.351 . S
C517 C522 1.501 . S
C518 C519 1.387 . S
C518 N521 1.341 . S
C519 C517 1.400 . S
C519 C518 1.387 . S
N520 Co511 2.022 . S
N520 C517 1.351 . S
N520 N521 1.365 . S
N521 C518 1.341 . S
N521 N520 1.365 . S
N521 H541 0.862 . S
C522 C517 1.501 . S
C522 H523 0.961 . S
C522 H524 0.961 . S
C522 H525 0.960 . S
H523 C522 0.961 . S
H524 C522 0.961 . S
H525 C522 0.960 . S
C526 N527 1.342 . S
C526 C530 1.401 . S
C526 C531 1.499 . S
N527 Co510 1.989 . S
N527 C526 1.342 . S
N527 N528 1.388 . S
N528 Co511 1.993 . S
N528 N527 1.388 . S
N528 C529 1.346 . S
C529 N528 1.346 . S
C529 C530 1.396 . S
C529 C539 1.510 . S
C530 C526 1.401 . S
C530 C529 1.396 . S
C531 C526 1.499 . S
C531 H532 0.959 . S
C531 H533 0.960 . S
C531 H534 0.961 . S
H532 C531 0.959 . S
H533 C531 0.960 . S
H534 C531 0.961 . S
O535 Co510 1.967 . S
O535 C543 1.258 . S
O536 Co511 1.941 . S
O536 C543 1.266 . S
H537 C539 0.959 . S
H538 C539 0.961 . S
C539 C529 1.510 . S
C539 H537 0.959 . S
C539 H538 0.961 . S
C539 H540 0.960 . S
H540 C539 0.960 . S
H541 N521 0.862 . S
O542 Co510 1.920 . S
O542 C515 1.289 . S
C543 O535 1.258 . S
C543 O536 1.266 . S
Co544 O547 1.970 . S
Co544 N561 1.989 . S
Co544 O569 1.967 . S
Co544 O576 1.920 . S
Co545 O548 1.966 . S
Co545 N554 2.022 . S
Co545 N562 1.993 . S
Co545 O570 1.941 . S
C546 O547 1.258 . S
C546 O548 1.263 . S
O547 Co544 1.970 . S
O547 C546 1.258 . S
O548 Co545 1.966 . S
O548 C546 1.263 . S
C549 O550 1.235 . S
C549 O576 1.289 . S
O550 C549 1.235 . S
C551 C553 1.400 . S
C551 N554 1.351 . S
C551 C556 1.501 . S
C552 C553 1.387 . S
C552 N555 1.341 . S
C553 C551 1.400 . S
C553 C552 1.387 . S
N554 Co545 2.022 . S
N554 C551 1.351 . S
N554 N555 1.365 . S
N555 C552 1.341 . S
N555 N554 1.365 . S
N555 H575 0.862 . S
C556 C551 1.501 . S
C556 H557 0.961 . S
C556 H558 0.961 . S
C556 H559 0.960 . S
H557 C556 0.961 . S
H558 C556 0.961 . S
H559 C556 0.960 . S
C560 N561 1.342 . S
C560 C564 1.401 . S
C560 C565 1.499 . S
N561 Co544 1.989 . S
N561 C560 1.342 . S
N561 N562 1.388 . S
N562 Co545 1.993 . S
N562 N561 1.388 . S
N562 C563 1.346 . S
C563 N562 1.346 . S
C563 C564 1.396 . S
C563 C573 1.510 . S
C564 C560 1.401 . S
C564 C563 1.396 . S
C565 C560 1.499 . S
C565 H566 0.959 . S
C565 H567 0.960 . S
C565 H568 0.961 . S
H566 C565 0.959 . S
H567 C565 0.960 . S
H568 C565 0.961 . S
O569 Co544 1.967 . S
O569 C577 1.258 . S
O570 Co545 1.941 . S
O570 C577 1.266 . S
H571 C573 0.959 . S
H572 C573 0.961 . S
C573 C563 1.510 . S
C573 H571 0.959 . S
C573 H572 0.961 . S
C573 H574 0.960 . S
H574 C573 0.960 . S
H575 N555 0.862 . S
O576 Co544 1.920 . S
O576 C549 1.289 . S
C577 O569 1.258 . S
C577 O570 1.266 . S
Co578 O581 1.970 . S
Co578 N595 1.989 . S
Co578 O603 1.967 . S
Co578 O610 1.920 . S
Co579 O582 1.966 . S
Co579 N588 2.022 . S
Co579 N596 1.993 . S
Co579 O604 1.941 . S
C580 O581 1.258 . S
C580 O582 1.263 . S
O581 Co578 1.970 . S
O581 C580 1.258 . S
O582 Co579 1.966 . S
O582 C580 1.263 . S
C583 O584 1.235 . S
C583 O610 1.289 . S
O584 C583 1.235 . S
C585 C587 1.400 . S
C585 N588 1.351 . S
C585 C590 1.501 . S
C586 C587 1.387 . S
C586 N589 1.341 . S
C587 C585 1.400 . S
C587 C586 1.387 . S
N588 Co579 2.022 . S
N588 C585 1.351 . S
N588 N589 1.365 . S
N589 C586 1.341 . S
N589 N588 1.365 . S
N589 H609 0.862 . S
C590 C585 1.501 . S
C590 H591 0.961 . S
C590 H592 0.961 . S
C590 H593 0.960 . S
H591 C590 0.961 . S
H592 C590 0.961 . S
H593 C590 0.960 . S
C594 N595 1.342 . S
C594 C598 1.401 . S
C594 C599 1.499 . S
N595 Co578 1.989 . S
N595 C594 1.342 . S
N595 N596 1.388 . S
N596 Co579 1.993 . S
N596 N595 1.388 . S
N596 C597 1.346 . S
C597 N596 1.346 . S
C597 C598 1.396 . S
C597 C607 1.510 . S
C598 C594 1.401 . S
C598 C597 1.396 . S
C599 C594 1.499 . S
C599 H600 0.959 . S
C599 H601 0.960 . S
C599 H602 0.961 . S
H600 C599 0.959 . S
H601 C599 0.960 . S
H602 C599 0.961 . S
O603 Co578 1.967 . S
O603 C611 1.258 . S
O604 Co579 1.941 . S
O604 C611 1.266 . S
H605 C607 0.959 . S
H606 C607 0.961 . S
C607 C597 1.510 . S
C607 H605 0.959 . S
C607 H606 0.961 . S
C607 H608 0.960 . S
H608 C607 0.960 . S
H609 N589 0.862 . S
O610 Co578 1.920 . S
O610 C583 1.289 . S
C611 O603 1.258 . S
C611 O604 1.266 . S
H612 C624 0.930 . S
H613 C626 0.930 . S
H614 C627 0.930 . S
H615 C631 0.959 . S
H616 C631 0.959 . S
H617 C631 0.961 . S
H618 C632 0.960 . S
H619 C632 0.961 . S
H620 C632 0.959 . S
H621 C635 0.929 . S
H622 C636 0.931 . S
H623 C638 0.930 . S
C624 H612 0.930 . S
C624 C625 1.399 . S
C624 C629 1.399 . S
C625 C624 1.399 . S
C625 C626 1.376 . S
C626 H613 0.930 . S
C626 C625 1.376 . S
C626 C627 1.388 . S
C627 H614 0.930 . S
C627 C626 1.388 . S
C627 C628 1.390 . S
C628 C627 1.390 . S
C628 C629 1.394 . S
C628 C634 1.465 . S
C629 C624 1.399 . S
C629 C628 1.394 . S
C629 C630 1.516 . S
C630 C629 1.516 . S
C630 C631 1.502 . S
C630 C632 1.561 . S
C630 C633 1.526 . S
C631 H615 0.959 . S
C631 H616 0.959 . S
C631 H617 0.961 . S
C631 C630 1.502 . S
C632 H618 0.960 . S
C632 H619 0.961 . S
C632 H620 0.959 . S
C632 C630 1.561 . S
C633 C630 1.526 . S
C633 C634 1.396 . S
C633 C638 1.390 . S
C634 C628 1.465 . S
C634 C633 1.396 . S
C634 C635 1.399 . S
C635 H621 0.929 . S
C635 C634 1.399 . S
C635 C636 1.385 . S
C636 H622 0.931 . S
C636 C635 1.385 . S
C636 C637 1.389 . S
C637 C636 1.389 . S
C637 C638 1.387 . S
C638 H623 0.930 . S
C638 C633 1.390 . S
C638 C637 1.387 . S
H639 C651 0.930 . S
H640 C653 0.930 . S
H641 C654 0.930 . S
H642 C658 0.959 . S
H643 C658 0.959 . S
H644 C658 0.961 1_545 S
H645 C659 0.960 . S
H646 C659 0.961 . S
H647 C659 0.959 . S
H648 C662 0.929 . S
H649 C663 0.931 . S
H650 C665 0.930 . S
C651 H639 0.930 . S
C651 C652 1.399 . S
C651 C656 1.399 . S
C652 C651 1.399 . S
C652 C653 1.376 . S
C653 H640 0.930 . S
C653 C652 1.376 . S
C653 C654 1.388 . S
C654 H641 0.930 . S
C654 C653 1.388 . S
C654 C655 1.390 . S
C655 C654 1.390 . S
C655 C656 1.394 . S
C655 C661 1.465 1_545 S
C656 C651 1.399 . S
C656 C655 1.394 . S
C656 C657 1.516 1_545 S
C657 C656 1.516 1_565 S
C657 C658 1.502 . S
C657 C659 1.561 . S
C657 C660 1.526 . S
C658 H642 0.959 . S
C658 H643 0.959 . S
C658 H644 0.961 1_565 S
C658 C657 1.502 . S
C659 H645 0.960 . S
C659 H646 0.961 . S
C659 H647 0.959 . S
C659 C657 1.561 . S
C660 C657 1.526 . S
C660 C661 1.396 . S
C660 C665 1.390 . S
C661 C655 1.465 1_565 S
C661 C660 1.396 . S
C661 C662 1.399 . S
C662 H648 0.929 . S
C662 C661 1.399 . S
C662 C663 1.385 . S
C663 H649 0.931 . S
C663 C662 1.385 . S
C663 C664 1.389 . S
C664 C663 1.389 . S
C664 C665 1.387 . S
C665 H650 0.930 . S
C665 C660 1.390 . S
C665 C664 1.387 . S
H666 C678 0.930 . S
H667 C680 0.930 . S
H668 C681 0.930 . S
H669 C685 0.959 . S
H670 C685 0.959 . S
H671 C685 0.961 1_655 S
H672 C686 0.960 . S
H673 C686 0.961 1_455 S
H674 C686 0.959 . S
H675 C689 0.929 . S
H676 C690 0.931 . S
H677 C692 0.930 . S
C678 H666 0.930 . S
C678 C679 1.399 . S
C678 C683 1.399 . S
C679 C678 1.399 . S
C679 C680 1.376 . S
C680 H667 0.930 . S
C680 C679 1.376 . S
C680 C681 1.388 . S
C681 H668 0.930 . S
C681 C680 1.388 . S
C681 C682 1.390 . S
C682 C681 1.390 . S
C682 C683 1.394 . S
C682 C688 1.465 1_655 S
C683 C678 1.399 . S
C683 C682 1.394 . S
C683 C684 1.516 1_655 S
C684 C683 1.516 1_455 S
C684 C685 1.502 . S
C684 C686 1.561 1_455 S
C684 C687 1.526 . S
C685 H669 0.959 . S
C685 H670 0.959 . S
C685 H671 0.961 1_455 S
C685 C684 1.502 . S
C686 H672 0.960 . S
C686 H673 0.961 1_655 S
C686 H674 0.959 . S
C686 C684 1.561 1_655 S
C687 C684 1.526 . S
C687 C688 1.396 . S
C687 C692 1.390 . S
C688 C682 1.465 1_455 S
C688 C687 1.396 . S
C688 C689 1.399 . S
C689 H675 0.929 . S
C689 C688 1.399 . S
C689 C690 1.385 . S
C690 H676 0.931 . S
C690 C689 1.385 . S
C690 C691 1.389 . S
C691 C690 1.389 . S
C691 C692 1.387 . S
C692 H677 0.930 . S
C692 C687 1.390 . S
C692 C691 1.387 . S
H693 C705 0.930 . S
H694 C707 0.930 . S
H695 C708 0.930 . S
H696 C712 0.959 . S
H697 C712 0.959 . S
H698 C712 0.961 . S
H699 C713 0.960 . S
H700 C713 0.961 . S
H701 C713 0.959 . S
H702 C716 0.929 . S
H703 C717 0.931 . S
H704 C719 0.930 . S
C705 H693 0.930 . S
C705 C706 1.399 . S
C705 C710 1.399 . S
C706 C705 1.399 . S
C706 C707 1.376 . S
C707 H694 0.930 . S
C707 C706 1.376 . S
C707 C708 1.388 . S
C708 H695 0.930 . S
C708 C707 1.388 . S
C708 C709 1.390 . S
C709 C708 1.390 . S
C709 C710 1.394 . S
C709 C715 1.465 . S
C710 C705 1.399 . S
C710 C709 1.394 . S
C710 C711 1.516 . S
C711 C710 1.516 . S
C711 C712 1.502 . S
C711 C713 1.561 . S
C711 C714 1.526 . S
C712 H696 0.959 . S
C712 H697 0.959 . S
C712 H698 0.961 . S
C712 C711 1.502 . S
C713 H699 0.960 . S
C713 H700 0.961 . S
C713 H701 0.959 . S
C713 C711 1.561 . S
C714 C711 1.526 . S
C714 C715 1.396 . S
C714 C719 1.390 . S
C715 C709 1.465 . S
C715 C714 1.396 . S
C715 C716 1.399 . S
C716 H702 0.929 . S
C716 C715 1.399 . S
C716 C717 1.385 . S
C717 H703 0.931 . S
C717 C716 1.385 . S
C717 C718 1.389 . S
C718 C717 1.389 . S
C718 C719 1.387 . S
C719 H704 0.930 . S
C719 C714 1.390 . S
C719 C718 1.387 . S
H720 C732 0.930 . S
H721 C734 0.930 . S
H722 C735 0.930 . S
H723 C739 0.959 . S
H724 C739 0.959 . S
H725 C739 0.987 . S
H726 C740 0.960 . S
H727 C740 0.961 . S
H728 C740 0.959 . S
H729 C743 0.929 . S
H730 C744 0.931 . S
H731 C746 0.930 . S
C732 H720 0.930 . S
C732 C733 1.399 . S
C732 C737 1.399 . S
C733 C732 1.399 . S
C733 C734 1.376 . S
C734 H721 0.930 . S
C734 C733 1.376 . S
C734 C735 1.388 . S
C735 H722 0.930 . S
C735 C734 1.388 . S
C735 C736 1.390 . S
C736 C735 1.390 . S
C736 C737 1.394 . S
C736 C742 1.465 1_545 S
C737 C732 1.399 . S
C737 C736 1.394 . S
C737 C738 1.516 1_545 S
C738 C737 1.516 1_565 S
C738 C739 1.502 . S
C738 C740 1.561 . S
C738 C741 1.526 . S
C739 H723 0.959 . S
C739 H724 0.959 . S
C739 H725 0.987 . S
C739 C738 1.502 . S
C740 H726 0.960 . S
C740 H727 0.961 . S
C740 H728 0.959 . S
C740 C738 1.561 . S
C741 C738 1.526 . S
C741 C742 1.396 . S
C741 C746 1.390 . S
C742 C736 1.465 1_565 S
C742 C741 1.396 . S
C742 C743 1.399 . S
C743 H729 0.929 . S
C743 C742 1.399 . S
C743 C744 1.385 . S
C744 H730 0.931 . S
C744 C743 1.385 . S
C744 C745 1.389 . S
C745 C744 1.389 . S
C745 C746 1.387 . S
C746 H731 0.930 . S
C746 C741 1.390 . S
C746 C745 1.387 . S
H747 C759 0.930 . S
H748 C761 0.930 . S
H749 C762 0.930 . S
H750 C766 0.966 . S
H751 C766 0.959 . S
H752 C766 0.961 1_655 S
H753 C767 0.960 . S
H754 C767 0.961 . S
H755 C767 0.959 . S
H756 C770 0.929 . S
H757 C771 0.931 . S
H758 C773 0.930 . S
C759 H747 0.930 . S
C759 C760 1.399 . S
C759 C764 1.399 . S
C760 C759 1.399 . S
C760 C761 1.376 . S
C761 H748 0.930 . S
C761 C760 1.376 . S
C761 C762 1.388 . S
C762 H749 0.930 . S
C762 C761 1.388 . S
C762 C763 1.390 . S
C763 C762 1.390 . S
C763 C764 1.394 . S
C763 C769 1.465 1_655 S
C764 C759 1.399 . S
C764 C763 1.394 . S
C764 C765 1.516 1_655 S
C765 C764 1.516 1_455 S
C765 C766 1.502 . S
C765 C767 1.561 . S
C765 C768 1.526 . S
C766 H750 0.966 . S
C766 H751 0.959 . S
C766 H752 0.961 1_455 S
C766 C765 1.502 . S
C767 H753 0.960 . S
C767 H754 0.961 . S
C767 H755 0.959 . S
C767 C765 1.561 . S
C768 C765 1.526 . S
C768 C769 1.396 . S
C768 C773 1.390 . S
C769 C763 1.465 1_455 S
C769 C768 1.396 . S
C769 C770 1.399 . S
C770 H756 0.929 . S
C770 C769 1.399 . S
C770 C771 1.385 . S
C771 H757 0.931 . S
C771 C770 1.385 . S
C771 C772 1.389 . S
C772 C771 1.389 . S
C772 C773 1.387 . S
C773 H758 0.930 . S
C773 C768 1.390 . S
C773 C772 1.387 . S
H774 C786 0.930 . S
H775 C788 0.930 . S
H776 C789 0.930 . S
H777 C793 0.959 . S
H778 C793 0.959 . S
H779 C793 0.961 . S
H780 C794 0.960 . S
H781 C794 0.961 . S
H782 C794 0.959 . S
H783 C797 0.929 . S
H784 C798 0.931 . S
H785 C800 0.930 . S
C786 H774 0.930 . S
C786 C787 1.399 . S
C786 C791 1.399 . S
C787 C786 1.399 . S
C787 C788 1.376 . S
C788 H775 0.930 . S
C788 C787 1.376 . S
C788 C789 1.388 . S
C789 H776 0.930 . S
C789 C788 1.388 . S
C789 C790 1.390 . S
C790 C789 1.390 . S
C790 C791 1.394 . S
C790 C796 1.465 . S
C791 C786 1.399 . S
C791 C790 1.394 . S
C791 C792 1.516 . S
C792 C791 1.516 . S
C792 C793 1.502 . S
C792 C794 1.561 . S
C792 C795 1.526 . S
C793 H777 0.959 . S
C793 H778 0.959 . S
C793 H779 0.961 . S
C793 C792 1.502 . S
C794 H780 0.960 . S
C794 H781 0.961 . S
C794 H782 0.959 . S
C794 C792 1.561 . S
C795 C792 1.526 . S
C795 C796 1.396 . S
C795 C800 1.390 . S
C796 C790 1.465 . S
C796 C795 1.396 . S
C796 C797 1.399 . S
C797 H783 0.929 . S
C797 C796 1.399 . S
C797 C798 1.385 . S
C798 H784 0.931 . S
C798 C797 1.385 . S
C798 C799 1.389 . S
C799 C798 1.389 . S
C799 C800 1.387 . S
C800 H785 0.930 . S
C800 C795 1.390 . S
C800 C799 1.387 . S
H801 C813 0.930 . S
H802 C815 0.930 . S
H803 C816 0.930 . S
H804 C820 0.959 . S
H805 C820 0.959 . S
H806 C820 0.961 . S
H807 C821 0.960 . S
H808 C821 0.961 1_554 S
H809 C821 0.959 . S
H810 C824 0.929 . S
H811 C825 0.931 . S
H812 C827 0.930 . S
C813 H801 0.930 . S
C813 C814 1.399 . S
C813 C818 1.399 . S
C814 C813 1.399 . S
C814 C815 1.376 . S
C815 H802 0.930 . S
C815 C814 1.376 . S
C815 C816 1.388 . S
C816 H803 0.930 . S
C816 C815 1.388 . S
C816 C817 1.390 . S
C817 C816 1.390 . S
C817 C818 1.394 . S
C817 C823 1.465 . S
C818 C813 1.399 . S
C818 C817 1.394 . S
C818 C819 1.516 . S
C819 C818 1.516 . S
C819 C820 1.502 . S
C819 C821 1.561 . S
C819 C822 1.526 . S
C820 H804 0.959 . S
C820 H805 0.959 . S
C820 H806 0.961 . S
C820 C819 1.502 . S
C821 H807 0.960 . S
C821 H808 0.961 1_556 S
C821 H809 0.959 . S
C821 C819 1.561 . S
C822 C819 1.526 . S
C822 C823 1.396 . S
C822 C827 1.390 . S
C823 C817 1.465 . S
C823 C822 1.396 . S
C823 C824 1.399 . S
C824 H810 0.929 . S
C824 C823 1.399 . S
C824 C825 1.385 . S
C825 H811 0.931 . S
C825 C824 1.385 . S
C825 C826 1.389 . S
C826 C825 1.389 . S
C826 C827 1.387 . S
C827 H812 0.930 . S
C827 C822 1.390 . S
C827 C826 1.387 . S
H828 C840 0.930 . S
H829 C842 0.930 . S
H830 C843 0.930 . S
H831 C847 0.959 . S
H832 C847 0.959 . S
H833 C847 0.961 . S
H834 C848 0.960 . S
H835 C848 0.961 . S
H836 C848 0.959 . S
H837 C851 0.929 . S
H838 C852 0.931 . S
H839 C854 0.930 . S
C840 H828 0.930 . S
C840 C841 1.399 . S
C840 C845 1.399 . S
C841 C840 1.399 . S
C841 C842 1.376 . S
C842 H829 0.930 . S
C842 C841 1.376 . S
C842 C843 1.388 . S
C843 H830 0.930 . S
C843 C842 1.388 . S
C843 C844 1.390 . S
C844 C843 1.390 . S
C844 C845 1.394 . S
C844 C850 1.465 . S
C845 C840 1.399 . S
C845 C844 1.394 . S
C845 C846 1.516 . S
C846 C845 1.516 . S
C846 C847 1.502 . S
C846 C848 1.561 . S
C846 C849 1.526 . S
C847 H831 0.959 . S
C847 H832 0.959 . S
C847 H833 0.961 . S
C847 C846 1.502 . S
C848 H834 0.960 . S
C848 H835 0.961 . S
C848 H836 0.959 . S
C848 C846 1.561 . S
C849 C846 1.526 . S
C849 C850 1.396 . S
C849 C854 1.390 . S
C850 C844 1.465 . S
C850 C849 1.396 . S
C850 C851 1.399 . S
C851 H837 0.929 . S
C851 C850 1.399 . S
C851 C852 1.385 . S
C852 H838 0.931 . S
C852 C851 1.385 . S
C852 C853 1.389 . S
C853 C852 1.389 . S
C853 C854 1.387 . S
C854 H839 0.930 . S
C854 C849 1.390 . S
C854 C853 1.387 . S
H855 C867 0.930 . S
H856 C869 0.930 . S
H857 C870 0.930 . S
H858 C874 0.959 . S
H859 C874 0.959 . S
H860 C874 0.961 . S
H861 C875 0.960 . S
H862 C875 0.961 . S
H863 C875 0.959 . S
H864 C878 0.929 . S
H865 C879 0.931 . S
H866 C881 0.930 . S
C867 H855 0.930 . S
C867 C868 1.399 . S
C867 C872 1.399 . S
C868 C867 1.399 . S
C868 C869 1.376 . S
C869 H856 0.930 . S
C869 C868 1.376 . S
C869 C870 1.388 . S
C870 H857 0.930 . S
C870 C869 1.388 . S
C870 C871 1.390 . S
C871 C870 1.390 . S
C871 C872 1.394 . S
C871 C877 1.465 . S
C872 C867 1.399 . S
C872 C871 1.394 . S
C872 C873 1.516 . S
C873 C872 1.516 . S
C873 C874 1.502 . S
C873 C875 1.561 . S
C873 C876 1.526 . S
C874 H858 0.959 . S
C874 H859 0.959 . S
C874 H860 0.961 . S
C874 C873 1.502 . S
C875 H861 0.960 . S
C875 H862 0.961 . S
C875 H863 0.959 . S
C875 C873 1.561 . S
C876 C873 1.526 . S
C876 C877 1.396 . S
C876 C881 1.390 . S
C877 C871 1.465 . S
C877 C876 1.396 . S
C877 C878 1.399 . S
C878 H864 0.929 . S
C878 C877 1.399 . S
C878 C879 1.385 . S
C879 H865 0.931 . S
C879 C878 1.385 . S
C879 C880 1.389 . S
C880 C879 1.389 . S
C880 C881 1.387 . S
C881 H866 0.930 . S
C881 C876 1.390 . S
C881 C880 1.387 . S
H882 C894 0.930 . S
H883 C896 0.930 . S
H884 C897 0.930 . S
H885 C901 0.959 . S
H886 C901 0.959 . S
H887 C901 0.961 . S
H888 C902 0.960 . S
H889 C902 0.961 1_554 S
H890 C902 0.959 . S
H891 C905 0.929 . S
H892 C906 0.931 . S
H893 C908 0.930 . S
C894 H882 0.930 . S
C894 C895 1.399 . S
C894 C899 1.399 . S
C895 C894 1.399 . S
C895 C896 1.376 . S
C896 H883 0.930 . S
C896 C895 1.376 . S
C896 C897 1.388 . S
C897 H884 0.930 . S
C897 C896 1.388 . S
C897 C898 1.390 . S
C898 C897 1.390 . S
C898 C899 1.394 . S
C898 C904 1.465 . S
C899 C894 1.399 . S
C899 C898 1.394 . S
C899 C900 1.516 . S
C900 C899 1.516 . S
C900 C901 1.502 . S
C900 C902 1.561 . S
C900 C903 1.526 . S
C901 H885 0.959 . S
C901 H886 0.959 . S
C901 H887 0.961 . S
C901 C900 1.502 . S
C902 H888 0.960 . S
C902 H889 0.961 1_556 S
C902 H890 0.959 . S
C902 C900 1.561 . S
C903 C900 1.526 . S
C903 C904 1.396 . S
C903 C908 1.390 . S
C904 C898 1.465 . S
C904 C903 1.396 . S
C904 C905 1.399 . S
C905 H891 0.929 . S
C905 C904 1.399 . S
C905 C906 1.385 . S
C906 H892 0.931 . S
C906 C905 1.385 . S
C906 C907 1.389 . S
C907 C906 1.389 . S
C907 C908 1.387 . S
C908 H893 0.930 . S
C908 C903 1.390 . S
C908 C907 1.387 . S
H909 C921 0.930 . S
H910 C923 0.930 . S
H911 C924 0.930 . S
H912 C928 0.959 . S
H913 C928 0.959 . S
H914 C928 0.961 . S
H915 C929 0.960 . S
H916 C929 0.961 . S
H917 C929 0.959 . S
H918 C932 0.929 . S
H919 C933 0.931 . S
H920 C935 0.930 . S
C921 H909 0.930 . S
C921 C922 1.399 . S
C921 C926 1.399 . S
C922 C921 1.399 . S
C922 C923 1.376 . S
C923 H910 0.930 . S
C923 C922 1.376 . S
C923 C924 1.388 . S
C924 H911 0.930 . S
C924 C923 1.388 . S
C924 C925 1.390 . S
C925 C924 1.390 . S
C925 C926 1.394 . S
C925 C931 1.465 . S
C926 C921 1.399 . S
C926 C925 1.394 . S
C926 C927 1.516 . S
C927 C926 1.516 . S
C927 C928 1.502 . S
C927 C929 1.561 . S
C927 C930 1.526 . S
C928 H912 0.959 . S
C928 H913 0.959 . S
C928 H914 0.961 . S
C928 C927 1.502 . S
C929 H915 0.960 . S
C929 H916 0.961 . S
C929 H917 0.959 . S
C929 C927 1.561 . S
C930 C927 1.526 . S
C930 C931 1.396 . S
C930 C935 1.390 . S
C931 C925 1.465 . S
C931 C930 1.396 . S
C931 C932 1.399 . S
C932 H918 0.929 . S
C932 C931 1.399 . S
C932 C933 1.385 . S
C933 H919 0.931 . S
C933 C932 1.385 . S
C933 C934 1.389 . S
C934 C933 1.389 . S
C934 C935 1.387 . S
C935 H920 0.930 . S
C935 C930 1.390 . S
C935 C934 1.387 . S
H936 C948 0.930 . S
H937 C950 0.930 . S
H938 C951 0.930 . S
H939 C955 0.959 . S
H940 C955 0.959 . S
H941 C955 0.961 . S
H942 C956 0.960 . S
H943 C956 0.961 . S
H944 C956 0.959 . S
H945 C959 0.929 . S
H946 C960 0.931 . S
H947 C962 0.930 . S
C948 H936 0.930 . S
C948 C949 1.399 . S
C948 C953 1.399 . S
C949 C948 1.399 . S
C949 C950 1.376 . S
C950 H937 0.930 . S
C950 C949 1.376 . S
C950 C951 1.388 . S
C951 H938 0.930 . S
C951 C950 1.388 . S
C951 C952 1.390 . S
C952 C951 1.390 . S
C952 C953 1.394 . S
C952 C958 1.465 . S
C953 C948 1.399 . S
C953 C952 1.394 . S
C953 C954 1.516 . S
C954 C953 1.516 . S
C954 C955 1.502 . S
C954 C956 1.561 . S
C954 C957 1.526 . S
C955 H939 0.959 . S
C955 H940 0.959 . S
C955 H941 0.961 . S
C955 C954 1.502 . S
C956 H942 0.960 . S
C956 H943 0.961 . S
C956 H944 0.959 . S
C956 C954 1.561 . S
C957 C954 1.526 . S
C957 C958 1.396 . S
C957 C962 1.390 . S
C958 C952 1.465 . S
C958 C957 1.396 . S
C958 C959 1.399 . S
C959 H945 0.929 . S
C959 C958 1.399 . S
C959 C960 1.385 . S
C960 H946 0.931 . S
C960 C959 1.385 . S
C960 C961 1.389 . S
C961 C960 1.389 . S
C961 C962 1.387 . S
C962 H947 0.930 . S
C962 C957 1.390 . S
C962 C961 1.387 . S
H963 C975 0.930 . S
H964 C977 0.930 . S
H965 C978 0.930 . S
H966 C982 0.959 . S
H967 C982 0.959 . S
H968 C982 0.961 . S
H969 C983 0.960 . S
H970 C983 0.961 . S
H971 C983 0.959 . S
H972 C986 0.929 . S
H973 C987 0.931 . S
H974 C989 0.930 . S
C975 H963 0.930 . S
C975 C976 1.399 . S
C975 C980 1.399 . S
C976 C975 1.399 . S
C976 C977 1.376 . S
C977 H964 0.930 . S
C977 C976 1.376 . S
C977 C978 1.388 . S
C978 H965 0.930 . S
C978 C977 1.388 . S
C978 C979 1.390 . S
C979 C978 1.390 . S
C979 C980 1.394 . S
C979 C985 1.465 . S
C980 C975 1.399 . S
C980 C979 1.394 . S
C980 C981 1.516 . S
C981 C980 1.516 . S
C981 C982 1.502 . S
C981 C983 1.561 . S
C981 C984 1.526 . S
C982 H966 0.959 . S
C982 H967 0.959 . S
C982 H968 0.961 . S
C982 C981 1.502 . S
C983 H969 0.960 . S
C983 H970 0.961 . S
C983 H971 0.959 . S
C983 C981 1.561 . S
C984 C981 1.526 . S
C984 C985 1.396 . S
C984 C989 1.390 . S
C985 C979 1.465 . S
C985 C984 1.396 . S
C985 C986 1.399 . S
C986 H972 0.929 . S
C986 C985 1.399 . S
C986 C987 1.385 . S
C987 H973 0.931 . S
C987 C986 1.385 . S
C987 C988 1.389 . S
C988 C987 1.389 . S
C988 C989 1.387 . S
C989 H974 0.930 . S
C989 C984 1.390 . S
C989 C988 1.387 . S
H990 C1002 0.930 . S
H991 C1004 0.930 . S
H992 C1005 0.930 . S
H993 C1009 0.959 . S
H994 C1009 0.959 . S
H995 C1009 0.961 . S
H996 C1010 0.960 . S
H997 C1010 0.961 . S
H998 C1010 0.959 . S
H999 C1013 0.929 . S
H1000 C1014 0.931 . S
H1001 C1016 0.930 . S
C1002 H990 0.930 . S
C1002 C1003 1.399 . S
C1002 C1007 1.399 . S
C1003 C1002 1.399 . S
C1003 C1004 1.376 . S
C1004 H991 0.930 . S
C1004 C1003 1.376 . S
C1004 C1005 1.388 . S
C1005 H992 0.930 . S
C1005 C1004 1.388 . S
C1005 C1006 1.390 . S
C1006 C1005 1.390 . S
C1006 C1007 1.394 . S
C1006 C1012 1.465 . S
C1007 C1002 1.399 . S
C1007 C1006 1.394 . S
C1007 C1008 1.516 . S
C1008 C1007 1.516 . S
C1008 C1009 1.502 . S
C1008 C1010 1.561 . S
C1008 C1011 1.526 . S
C1009 H993 0.959 . S
C1009 H994 0.959 . S
C1009 H995 0.961 . S
C1009 C1008 1.502 . S
C1010 H996 0.960 . S
C1010 H997 0.961 . S
C1010 H998 0.959 . S
C1010 C1008 1.561 . S
C1011 C1008 1.526 . S
C1011 C1012 1.396 . S
C1011 C1016 1.390 . S
C1012 C1006 1.465 . S
C1012 C1011 1.396 . S
C1012 C1013 1.399 . S
C1013 H999 0.929 . S
C1013 C1012 1.399 . S
C1013 C1014 1.385 . S
C1014 H1000 0.931 . S
C1014 C1013 1.385 . S
C1014 C1015 1.389 . S
C1015 C1014 1.389 . S
C1015 C1016 1.387 . S
C1016 H1001 0.930 . S
C1016 C1011 1.390 . S
C1016 C1015 1.387 . S
H1017 C1029 0.930 . S
H1018 C1031 0.930 . S
H1019 C1032 0.930 . S
H1020 C1036 0.959 . S
H1021 C1036 0.959 . S
H1022 C1036 0.961 . S
H1023 C1037 0.960 . S
H1024 C1037 0.961 . S
H1025 C1037 0.959 . S
H1026 C1040 0.929 . S
H1027 C1041 0.931 . S
H1028 C1043 0.930 . S
C1029 H1017 0.930 . S
C1029 C1030 1.399 . S
C1029 C1034 1.399 . S
C1030 C1029 1.399 . S
C1030 C1031 1.376 . S
C1031 H1018 0.930 . S
C1031 C1030 1.376 . S
C1031 C1032 1.388 . S
C1032 H1019 0.930 . S
C1032 C1031 1.388 . S
C1032 C1033 1.390 . S
C1033 C1032 1.390 . S
C1033 C1034 1.394 . S
C1033 C1039 1.465 . S
C1034 C1029 1.399 . S
C1034 C1033 1.394 . S
C1034 C1035 1.516 . S
C1035 C1034 1.516 . S
C1035 C1036 1.502 . S
C1035 C1037 1.561 . S
C1035 C1038 1.526 . S
C1036 H1020 0.959 . S
C1036 H1021 0.959 . S
C1036 H1022 0.961 . S
C1036 C1035 1.502 . S
C1037 H1023 0.960 . S
C1037 H1024 0.961 . S
C1037 H1025 0.959 . S
C1037 C1035 1.561 . S
C1038 C1035 1.526 . S
C1038 C1039 1.396 . S
C1038 C1043 1.390 . S
C1039 C1033 1.465 . S
C1039 C1038 1.396 . S
C1039 C1040 1.399 . S
C1040 H1026 0.929 . S
C1040 C1039 1.399 . S
C1040 C1041 1.385 . S
C1041 H1027 0.931 . S
C1041 C1040 1.385 . S
C1041 C1042 1.389 . S
C1042 C1041 1.389 . S
C1042 C1043 1.387 . S
C1043 H1028 0.930 . S
C1043 C1038 1.390 . S
C1043 C1042 1.387 . S
H1044 C1056 0.930 . S
H1045 C1058 0.930 . S
H1046 C1059 0.930 . S
H1047 C1063 0.959 . S
H1048 C1063 0.959 . S
H1049 C1063 0.961 . S
H1050 C1064 0.960 . S
H1051 C1064 0.961 . S
H1052 C1064 0.959 . S
H1053 C1067 0.929 . S
H1054 C1068 0.931 . S
H1055 C1070 0.930 . S
C1056 H1044 0.930 . S
C1056 C1057 1.399 . S
C1056 C1061 1.399 . S
C1057 C1056 1.399 . S
C1057 C1058 1.376 . S
C1058 H1045 0.930 . S
C1058 C1057 1.376 . S
C1058 C1059 1.388 . S
C1059 H1046 0.930 . S
C1059 C1058 1.388 . S
C1059 C1060 1.390 . S
C1060 C1059 1.390 . S
C1060 C1061 1.394 . S
C1060 C1066 1.465 . S
C1061 C1056 1.399 . S
C1061 C1060 1.394 . S
C1061 C1062 1.516 . S
C1062 C1061 1.516 . S
C1062 C1063 1.502 . S
C1062 C1064 1.561 . S
C1062 C1065 1.526 . S
C1063 H1047 0.959 . S
C1063 H1048 0.959 . S
C1063 H1049 0.961 . S
C1063 C1062 1.502 . S
C1064 H1050 0.960 . S
C1064 H1051 0.961 . S
C1064 H1052 0.959 . S
C1064 C1062 1.561 . S
C1065 C1062 1.526 . S
C1065 C1066 1.396 . S
C1065 C1070 1.390 . S
C1066 C1060 1.465 . S
C1066 C1065 1.396 . S
C1066 C1067 1.399 . S
C1067 H1053 0.929 . S
C1067 C1066 1.399 . S
C1067 C1068 1.385 . S
C1068 H1054 0.931 . S
C1068 C1067 1.385 . S
C1068 C1069 1.389 . S
C1069 C1068 1.389 . S
C1069 C1070 1.387 . S
C1070 H1055 0.930 . S
C1070 C1065 1.390 . S
C1070 C1069 1.387 . S
H1071 C1083 0.930 . S
H1072 C1085 0.930 . S
H1073 C1086 0.930 . S
H1074 C1090 0.959 . S
H1075 C1090 0.959 . S
H1076 C1090 0.961 . S
H1077 C1091 0.960 . S
H1078 C1091 0.961 . S
H1079 C1091 0.959 . S
H1080 C1094 0.929 . S
H1081 C1095 0.931 . S
H1082 C1097 0.930 . S
C1083 H1071 0.930 . S
C1083 C1084 1.399 . S
C1083 C1088 1.399 . S
C1084 C1083 1.399 . S
C1084 C1085 1.376 . S
C1085 H1072 0.930 . S
C1085 C1084 1.376 . S
C1085 C1086 1.388 . S
C1086 H1073 0.930 . S
C1086 C1085 1.388 . S
C1086 C1087 1.390 . S
C1087 C1086 1.390 . S
C1087 C1088 1.394 . S
C1087 C1093 1.465 . S
C1088 C1083 1.399 . S
C1088 C1087 1.394 . S
C1088 C1089 1.516 . S
C1089 C1088 1.516 . S
C1089 C1090 1.502 . S
C1089 C1091 1.561 . S
C1089 C1092 1.526 . S
C1090 H1074 0.959 . S
C1090 H1075 0.959 . S
C1090 H1076 0.961 . S
C1090 C1089 1.502 . S
C1091 H1077 0.960 . S
C1091 H1078 0.961 . S
C1091 H1079 0.959 . S
C1091 C1089 1.561 . S
C1092 C1089 1.526 . S
C1092 C1093 1.396 . S
C1092 C1097 1.390 . S
C1093 C1087 1.465 . S
C1093 C1092 1.396 . S
C1093 C1094 1.399 . S
C1094 H1080 0.929 . S
C1094 C1093 1.399 . S
C1094 C1095 1.385 . S
C1095 H1081 0.931 . S
C1095 C1094 1.385 . S
C1095 C1096 1.389 . S
C1096 C1095 1.389 . S
C1096 C1097 1.387 . S
C1097 H1082 0.930 . S
C1097 C1092 1.390 . S
C1097 C1096 1.387 . S
H1098 C1110 0.930 . S
H1099 C1112 0.930 . S
H1100 C1113 0.930 . S
H1101 C1117 0.959 . S
H1102 C1117 0.959 . S
H1103 C1117 0.961 . S
H1104 C1118 0.960 . S
H1105 C1118 0.961 . S
H1106 C1118 0.959 . S
H1107 C1121 0.929 . S
H1108 C1122 0.931 . S
H1109 C1124 0.930 . S
C1110 H1098 0.930 . S
C1110 C1111 1.399 . S
C1110 C1115 1.399 . S
C1111 C1110 1.399 . S
C1111 C1112 1.376 . S
C1112 H1099 0.930 . S
C1112 C1111 1.376 . S
C1112 C1113 1.388 . S
C1113 H1100 0.930 . S
C1113 C1112 1.388 . S
C1113 C1114 1.390 . S
C1114 C1113 1.390 . S
C1114 C1115 1.394 . S
C1114 C1120 1.465 . S
C1115 C1110 1.399 . S
C1115 C1114 1.394 . S
C1115 C1116 1.516 . S
C1116 C1115 1.516 . S
C1116 C1117 1.502 . S
C1116 C1118 1.561 . S
C1116 C1119 1.526 . S
C1117 H1101 0.959 . S
C1117 H1102 0.959 . S
C1117 H1103 0.961 . S
C1117 C1116 1.502 . S
C1118 H1104 0.960 . S
C1118 H1105 0.961 . S
C1118 H1106 0.959 . S
C1118 C1116 1.561 . S
C1119 C1116 1.526 . S
C1119 C1120 1.396 . S
C1119 C1124 1.390 . S
C1120 C1114 1.465 . S
C1120 C1119 1.396 . S
C1120 C1121 1.399 . S
C1121 H1107 0.929 . S
C1121 C1120 1.399 . S
C1121 C1122 1.385 . S
C1122 H1108 0.931 . S
C1122 C1121 1.385 . S
C1122 C1123 1.389 . S
C1123 C1122 1.389 . S
C1123 C1124 1.387 . S
C1124 H1109 0.930 . S
C1124 C1119 1.390 . S
C1124 C1123 1.387 . S
H1125 C1137 0.930 . S
H1126 C1139 0.930 . S
H1127 C1140 0.930 . S
H1128 C1144 0.959 . S
H1129 C1144 0.959 . S
H1130 C1144 0.961 . S
H1131 C1145 0.960 . S
H1132 C1145 0.961 . S
H1133 C1145 0.959 . S
H1134 C1148 0.929 . S
H1135 C1149 0.931 . S
H1136 C1151 0.930 . S
C1137 H1125 0.930 . S
C1137 C1138 1.399 . S
C1137 C1142 1.399 . S
C1138 C1137 1.399 . S
C1138 C1139 1.376 . S
C1139 H1126 0.930 . S
C1139 C1138 1.376 . S
C1139 C1140 1.388 . S
C1140 H1127 0.930 . S
C1140 C1139 1.388 . S
C1140 C1141 1.390 . S
C1141 C1140 1.390 . S
C1141 C1142 1.394 . S
C1141 C1147 1.465 . S
C1142 C1137 1.399 . S
C1142 C1141 1.394 . S
C1142 C1143 1.516 . S
C1143 C1142 1.516 . S
C1143 C1144 1.502 . S
C1143 C1145 1.561 . S
C1143 C1146 1.526 . S
C1144 H1128 0.959 . S
C1144 H1129 0.959 . S
C1144 H1130 0.961 . S
C1144 C1143 1.502 . S
C1145 H1131 0.960 . S
C1145 H1132 0.961 . S
C1145 H1133 0.959 . S
C1145 C1143 1.561 . S
C1146 C1143 1.526 . S
C1146 C1147 1.396 . S
C1146 C1151 1.390 . S
C1147 C1141 1.465 . S
C1147 C1146 1.396 . S
C1147 C1148 1.399 . S
C1148 H1134 0.929 . S
C1148 C1147 1.399 . S
C1148 C1149 1.385 . S
C1149 H1135 0.931 . S
C1149 C1148 1.385 . S
C1149 C1150 1.389 . S
C1150 C1149 1.389 . S
C1150 C1151 1.387 . S
C1151 H1136 0.930 . S
C1151 C1146 1.390 . S
C1151 C1150 1.387 . S
H1152 C1164 0.930 . S
H1153 C1166 0.930 . S
H1154 C1167 0.930 . S
H1155 C1171 0.959 . S
H1156 C1171 0.959 . S
H1157 C1171 0.961 . S
H1158 C1172 0.960 . S
H1159 C1172 0.961 . S
H1160 C1172 0.959 . S
H1161 C1175 0.929 . S
H1162 C1176 0.931 . S
H1163 C1178 0.930 . S
C1164 H1152 0.930 . S
C1164 C1165 1.399 . S
C1164 C1169 1.399 . S
C1165 C1164 1.399 . S
C1165 C1166 1.376 . S
C1166 H1153 0.930 . S
C1166 C1165 1.376 . S
C1166 C1167 1.388 . S
C1167 H1154 0.930 . S
C1167 C1166 1.388 . S
C1167 C1168 1.390 . S
C1168 C1167 1.390 . S
C1168 C1169 1.394 . S
C1168 C1174 1.465 . S
C1169 C1164 1.399 . S
C1169 C1168 1.394 . S
C1169 C1170 1.516 . S
C1170 C1169 1.516 . S
C1170 C1171 1.502 . S
C1170 C1172 1.561 . S
C1170 C1173 1.526 . S
C1171 H1155 0.959 . S
C1171 H1156 0.959 . S
C1171 H1157 0.961 . S
C1171 C1170 1.502 . S
C1172 H1158 0.960 . S
C1172 H1159 0.961 . S
C1172 H1160 0.959 . S
C1172 C1170 1.561 . S
C1173 C1170 1.526 . S
C1173 C1174 1.396 . S
C1173 C1178 1.390 . S
C1174 C1168 1.465 . S
C1174 C1173 1.396 . S
C1174 C1175 1.399 . S
C1175 H1161 0.929 . S
C1175 C1174 1.399 . S
C1175 C1176 1.385 . S
C1176 H1162 0.931 . S
C1176 C1175 1.385 . S
C1176 C1177 1.389 . S
C1177 C1176 1.389 . S
C1177 C1178 1.387 . S
C1178 H1163 0.930 . S
C1178 C1173 1.390 . S
C1178 C1177 1.387 . S
H1179 C1191 0.930 . S
H1180 C1193 0.930 . S
H1181 C1194 0.930 . S
H1182 C1198 0.959 . S
H1183 C1198 0.959 . S
H1184 C1198 0.961 . S
H1185 C1199 0.960 . S
H1186 C1199 0.961 . S
H1187 C1199 0.959 . S
H1188 C1202 0.929 . S
H1189 C1203 0.931 . S
H1190 C1205 0.930 . S
C1191 H1179 0.930 . S
C1191 C1192 1.399 . S
C1191 C1196 1.399 . S
C1192 C1191 1.399 . S
C1192 C1193 1.376 . S
C1193 H1180 0.930 . S
C1193 C1192 1.376 . S
C1193 C1194 1.388 . S
C1194 H1181 0.930 . S
C1194 C1193 1.388 . S
C1194 C1195 1.390 . S
C1195 C1194 1.390 . S
C1195 C1196 1.394 . S
C1195 C1201 1.465 . S
C1196 C1191 1.399 . S
C1196 C1195 1.394 . S
C1196 C1197 1.516 . S
C1197 C1196 1.516 . S
C1197 C1198 1.502 . S
C1197 C1199 1.561 . S
C1197 C1200 1.526 . S
C1198 H1182 0.959 . S
C1198 H1183 0.959 . S
C1198 H1184 0.961 . S
C1198 C1197 1.502 . S
C1199 H1185 0.960 . S
C1199 H1186 0.961 . S
C1199 H1187 0.959 . S
C1199 C1197 1.561 . S
C1200 C1197 1.526 . S
C1200 C1201 1.396 . S
C1200 C1205 1.390 . S
C1201 C1195 1.465 . S
C1201 C1200 1.396 . S
C1201 C1202 1.399 . S
C1202 H1188 0.929 . S
C1202 C1201 1.399 . S
C1202 C1203 1.385 . S
C1203 H1189 0.931 . S
C1203 C1202 1.385 . S
C1203 C1204 1.389 . S
C1204 C1203 1.389 . S
C1204 C1205 1.387 . S
C1205 H1190 0.930 . S
C1205 C1200 1.390 . S
C1205 C1204 1.387 . S
H1206 C1218 0.930 . S
H1207 C1220 0.930 . S
H1208 C1221 0.930 . S
H1209 C1225 0.959 . S
H1210 C1225 0.959 . S
H1211 C1225 0.961 . S
H1212 C1226 0.960 . S
H1213 C1226 0.961 . S
H1214 C1226 0.959 . S
H1215 C1229 0.929 . S
H1216 C1230 0.931 . S
H1217 C1232 0.930 . S
C1218 H1206 0.930 . S
C1218 C1219 1.399 . S
C1218 C1223 1.399 . S
C1219 C1218 1.399 . S
C1219 C1220 1.376 . S
C1220 H1207 0.930 . S
C1220 C1219 1.376 . S
C1220 C1221 1.388 . S
C1221 H1208 0.930 . S
C1221 C1220 1.388 . S
C1221 C1222 1.390 . S
C1222 C1221 1.390 . S
C1222 C1223 1.394 . S
C1222 C1228 1.465 . S
C1223 C1218 1.399 . S
C1223 C1222 1.394 . S
C1223 C1224 1.516 . S
C1224 C1223 1.516 . S
C1224 C1225 1.502 . S
C1224 C1226 1.561 . S
C1224 C1227 1.526 . S
C1225 H1209 0.959 . S
C1225 H1210 0.959 . S
C1225 H1211 0.961 . S
C1225 C1224 1.502 . S
C1226 H1212 0.960 . S
C1226 H1213 0.961 . S
C1226 H1214 0.959 . S
C1226 C1224 1.561 . S
C1227 C1224 1.526 . S
C1227 C1228 1.396 . S
C1227 C1232 1.390 . S
C1228 C1222 1.465 . S
C1228 C1227 1.396 . S
C1228 C1229 1.399 . S
C1229 H1215 0.929 . S
C1229 C1228 1.399 . S
C1229 C1230 1.385 . S
C1230 H1216 0.931 . S
C1230 C1229 1.385 . S
C1230 C1231 1.389 . S
C1231 C1230 1.389 . S
C1231 C1232 1.387 . S
C1232 H1217 0.930 . S
C1232 C1227 1.390 . S
C1232 C1231 1.387 . S
H1233 C1245 0.930 . S
H1234 C1247 0.930 . S
H1235 C1248 0.930 . S
H1236 C1252 0.959 . S
H1237 C1252 0.959 . S
H1238 C1252 0.961 . S
H1239 C1253 0.960 . S
H1240 C1253 0.961 . S
H1241 C1253 0.959 . S
H1242 C1256 0.929 . S
H1243 C1257 0.931 . S
H1244 C1259 0.930 . S
C1245 H1233 0.930 . S
C1245 C1246 1.399 . S
C1245 C1250 1.399 . S
C1246 C1245 1.399 . S
C1246 C1247 1.376 . S
C1247 H1234 0.930 . S
C1247 C1246 1.376 . S
C1247 C1248 1.388 . S
C1248 H1235 0.930 . S
C1248 C1247 1.388 . S
C1248 C1249 1.390 . S
C1249 C1248 1.390 . S
C1249 C1250 1.394 . S
C1249 C1255 1.465 . S
C1250 C1245 1.399 . S
C1250 C1249 1.394 . S
C1250 C1251 1.516 . S
C1251 C1250 1.516 . S
C1251 C1252 1.502 . S
C1251 C1253 1.561 . S
C1251 C1254 1.526 . S
C1252 H1236 0.959 . S
C1252 H1237 0.959 . S
C1252 H1238 0.961 . S
C1252 C1251 1.502 . S
C1253 H1239 0.960 . S
C1253 H1240 0.961 . S
C1253 H1241 0.959 . S
C1253 C1251 1.561 . S
C1254 C1251 1.526 . S
C1254 C1255 1.396 . S
C1254 C1259 1.390 . S
C1255 C1249 1.465 . S
C1255 C1254 1.396 . S
C1255 C1256 1.399 . S
C1256 H1242 0.929 . S
C1256 C1255 1.399 . S
C1256 C1257 1.385 . S
C1257 H1243 0.931 . S
C1257 C1256 1.385 . S
C1257 C1258 1.389 . S
C1258 C1257 1.389 . S
C1258 C1259 1.387 . S
C1259 H1244 0.930 . S
C1259 C1254 1.390 . S
C1259 C1258 1.387 . S
H1260 C1272 0.930 . S
H1261 C1274 0.930 . S
H1262 C1275 0.930 . S
H1263 C1279 0.959 . S
H1264 C1279 0.959 1_655 S
H1265 C1279 0.961 . S
H1266 C1280 0.960 . S
H1267 C1280 0.972 . S
H1268 C1280 0.959 . S
H1269 C1283 0.929 . S
H1270 C1284 0.931 . S
H1271 C1286 0.930 . S
C1272 H1260 0.930 . S
C1272 C1273 1.399 1_556 S
C1272 C1277 1.399 . S
C1273 C1272 1.399 1_554 S
C1273 C1274 1.376 . S
C1274 H1261 0.930 . S
C1274 C1273 1.376 . S
C1274 C1275 1.388 . S
C1275 H1262 0.930 . S
C1275 C1274 1.388 . S
C1275 C1276 1.390 . S
C1276 C1275 1.390 . S
C1276 C1277 1.394 1_554 S
C1276 C1282 1.465 1_455 S
C1277 C1272 1.399 . S
C1277 C1276 1.394 1_556 S
C1277 C1278 1.516 . S
C1278 C1277 1.516 . S
C1278 C1279 1.502 . S
C1278 C1280 1.561 . S
C1278 C1281 1.526 1_455 S
C1279 H1263 0.959 . S
C1279 H1264 0.959 1_455 S
C1279 H1265 0.961 . S
C1279 C1278 1.502 . S
C1280 H1266 0.960 . S
C1280 H1267 0.972 . S
C1280 H1268 0.959 . S
C1280 C1278 1.561 . S
C1281 C1278 1.526 1_655 S
C1281 C1282 1.396 1_556 S
C1281 C1286 1.390 . S
C1282 C1276 1.465 1_655 S
C1282 C1281 1.396 1_554 S
C1282 C1283 1.399 . S
C1283 H1269 0.929 . S
C1283 C1282 1.399 . S
C1283 C1284 1.385 . S
C1284 H1270 0.931 . S
C1284 C1283 1.385 . S
C1284 C1285 1.389 1_554 S
C1285 C1284 1.389 1_556 S
C1285 C1286 1.387 . S
C1286 H1271 0.930 . S
C1286 C1281 1.390 . S
C1286 C1285 1.387 . S
H1287 C1299 0.930 . S
H1288 C1301 0.930 . S
H1289 C1302 0.930 . S
H1290 C1306 0.959 . S
H1291 C1306 0.959 . S
H1292 C1306 0.961 . S
H1293 C1307 0.960 . S
H1294 C1307 0.961 . S
H1295 C1307 0.959 . S
H1296 C1310 0.929 . S
H1297 C1311 0.931 . S
H1298 C1313 0.930 . S
C1299 H1287 0.930 . S
C1299 C1300 1.399 . S
C1299 C1304 1.399 . S
C1300 C1299 1.399 . S
C1300 C1301 1.376 1_554 S
C1301 H1288 0.930 . S
C1301 C1300 1.376 1_556 S
C1301 C1302 1.388 . S
C1302 H1289 0.930 . S
C1302 C1301 1.388 . S
C1302 C1303 1.390 . S
C1303 C1302 1.390 . S
C1303 C1304 1.394 1_556 S
C1303 C1309 1.465 . S
C1304 C1299 1.399 . S
C1304 C1303 1.394 1_554 S
C1304 C1305 1.516 . S
C1305 C1304 1.516 . S
C1305 C1306 1.502 . S
C1305 C1307 1.561 . S
C1305 C1308 1.526 . S
C1306 H1290 0.959 . S
C1306 H1291 0.959 . S
C1306 H1292 0.961 . S
C1306 C1305 1.502 . S
C1307 H1293 0.960 . S
C1307 H1294 0.961 . S
C1307 H1295 0.959 . S
C1307 C1305 1.561 . S
C1308 C1305 1.526 . S
C1308 C1309 1.396 1_554 S
C1308 C1313 1.390 . S
C1309 C1303 1.465 . S
C1309 C1308 1.396 1_556 S
C1309 C1310 1.399 . S
C1310 H1296 0.929 . S
C1310 C1309 1.399 . S
C1310 C1311 1.385 . S
C1311 H1297 0.931 . S
C1311 C1310 1.385 . S
C1311 C1312 1.389 . S
C1312 C1311 1.389 . S
C1312 C1313 1.387 1_556 S
C1313 H1298 0.930 . S
C1313 C1308 1.390 . S
C1313 C1312 1.387 1_554 S
H1314 C1326 0.930 . S
H1315 C1328 0.930 . S
H1316 C1329 0.930 . S
H1317 C1333 0.977 . S
H1318 C1333 0.959 1_565 S
H1319 C1333 0.961 . S
H1320 C1334 0.960 . S
H1321 C1334 0.965 . S
H1322 C1334 0.959 . S
H1323 C1337 0.929 . S
H1324 C1338 0.931 . S
H1325 C1340 0.930 . S
C1326 H1314 0.930 . S
C1326 C1327 1.399 1_554 S
C1326 C1331 1.399 . S
C1327 C1326 1.399 1_556 S
C1327 C1328 1.376 . S
C1328 H1315 0.930 . S
C1328 C1327 1.376 . S
C1328 C1329 1.388 . S
C1329 H1316 0.930 . S
C1329 C1328 1.388 . S
C1329 C1330 1.390 . S
C1330 C1329 1.390 . S
C1330 C1331 1.394 1_556 S
C1330 C1336 1.465 1_545 S
C1331 C1326 1.399 . S
C1331 C1330 1.394 1_554 S
C1331 C1332 1.516 . S
C1332 C1331 1.516 . S
C1332 C1333 1.502 . S
C1332 C1334 1.561 . S
C1332 C1335 1.526 1_545 S
C1333 H1317 0.977 . S
C1333 H1318 0.959 1_545 S
C1333 H1319 0.961 . S
C1333 C1332 1.502 . S
C1334 H1320 0.960 . S
C1334 H1321 0.965 . S
C1334 H1322 0.959 . S
C1334 C1332 1.561 . S
C1335 C1332 1.526 1_565 S
C1335 C1336 1.396 1_554 S
C1335 C1340 1.390 . S
C1336 C1330 1.465 1_565 S
C1336 C1335 1.396 1_556 S
C1336 C1337 1.399 . S
C1337 H1323 0.929 . S
C1337 C1336 1.399 . S
C1337 C1338 1.385 . S
C1338 H1324 0.931 . S
C1338 C1337 1.385 . S
C1338 C1339 1.389 1_556 S
C1339 C1338 1.389 1_554 S
C1339 C1340 1.387 . S
C1340 H1325 0.930 . S
C1340 C1335 1.390 . S
C1340 C1339 1.387 . S
H1341 C1353 0.930 . S
H1342 C1355 0.930 . S
H1343 C1356 0.930 . S
H1344 C1360 0.959 . S
H1345 C1360 0.959 . S
H1346 C1360 0.961 . S
H1347 C1361 0.960 . S
H1348 C1361 0.961 . S
H1349 C1361 0.959 . S
H1350 C1364 0.929 . S
H1351 C1365 0.931 . S
H1352 C1367 0.930 . S
C1353 H1341 0.930 . S
C1353 C1354 1.399 . S
C1353 C1358 1.399 . S
C1354 C1353 1.399 . S
C1354 C1355 1.376 . S
C1355 H1342 0.930 . S
C1355 C1354 1.376 . S
C1355 C1356 1.388 . S
C1356 H1343 0.930 . S
C1356 C1355 1.388 . S
C1356 C1357 1.390 . S
C1357 C1356 1.390 . S
C1357 C1358 1.394 . S
C1357 C1363 1.465 . S
C1358 C1353 1.399 . S
C1358 C1357 1.394 . S
C1358 C1359 1.516 . S
C1359 C1358 1.516 . S
C1359 C1360 1.502 . S
C1359 C1361 1.561 . S
C1359 C1362 1.526 . S
C1360 H1344 0.959 . S
C1360 H1345 0.959 . S
C1360 H1346 0.961 . S
C1360 C1359 1.502 . S
C1361 H1347 0.960 . S
C1361 H1348 0.961 . S
C1361 H1349 0.959 . S
C1361 C1359 1.561 . S
C1362 C1359 1.526 . S
C1362 C1363 1.396 . S
C1362 C1367 1.390 1_556 S
C1363 C1357 1.465 . S
C1363 C1362 1.396 . S
C1363 C1364 1.399 . S
C1364 H1350 0.929 . S
C1364 C1363 1.399 . S
C1364 C1365 1.385 1_556 S
C1365 H1351 0.931 . S
C1365 C1364 1.385 1_554 S
C1365 C1366 1.389 . S
C1366 C1365 1.389 . S
C1366 C1367 1.387 . S
C1367 H1352 0.930 . S
C1367 C1362 1.390 1_554 S
C1367 C1366 1.387 . S
H1368 C1380 0.930 . S
H1369 C1382 0.930 . S
H1370 C1383 0.930 . S
H1371 C1387 0.959 . S
H1372 C1387 0.959 . S
H1373 C1387 0.961 . S
H1374 C1388 0.960 . S
H1375 C1388 0.961 . S
H1376 C1388 0.959 . S
H1377 C1391 0.929 . S
H1378 C1392 0.931 . S
H1379 C1394 0.930 . S
C1380 H1368 0.930 . S
C1380 C1381 1.399 . S
C1380 C1385 1.399 . S
C1381 C1380 1.399 . S
C1381 C1382 1.376 . S
C1382 H1369 0.930 . S
C1382 C1381 1.376 . S
C1382 C1383 1.388 . S
C1383 H1370 0.930 . S
C1383 C1382 1.388 . S
C1383 C1384 1.390 . S
C1384 C1383 1.390 . S
C1384 C1385 1.394 . S
C1384 C1390 1.465 . S
C1385 C1380 1.399 . S
C1385 C1384 1.394 . S
C1385 C1386 1.516 . S
C1386 C1385 1.516 . S
C1386 C1387 1.502 . S
C1386 C1388 1.561 . S
C1386 C1389 1.526 . S
C1387 H1371 0.959 . S
C1387 H1372 0.959 . S
C1387 H1373 0.961 . S
C1387 C1386 1.502 . S
C1388 H1374 0.960 . S
C1388 H1375 0.961 . S
C1388 H1376 0.959 . S
C1388 C1386 1.561 . S
C1389 C1386 1.526 . S
C1389 C1390 1.396 . S
C1389 C1394 1.390 1_556 S
C1390 C1384 1.465 . S
C1390 C1389 1.396 . S
C1390 C1391 1.399 . S
C1391 H1377 0.929 . S
C1391 C1390 1.399 . S
C1391 C1392 1.385 1_556 S
C1392 H1378 0.931 . S
C1392 C1391 1.385 1_554 S
C1392 C1393 1.389 . S
C1393 C1392 1.389 . S
C1393 C1394 1.387 . S
C1394 H1379 0.930 . S
C1394 C1389 1.390 1_554 S
C1394 C1393 1.387 . S
H1395 C1407 0.930 . S
H1396 C1409 0.930 . S
H1397 C1410 0.930 . S
H1398 C1414 0.959 . S
H1399 C1414 0.959 . S
H1400 C1414 0.961 . S
H1401 C1415 0.960 . S
H1402 C1415 0.961 . S
H1403 C1415 0.959 . S
H1404 C1418 0.929 . S
H1405 C1419 0.931 . S
H1406 C1421 0.930 . S
C1407 H1395 0.930 . S
C1407 C1408 1.399 . S
C1407 C1412 1.399 . S
C1408 C1407 1.399 . S
C1408 C1409 1.376 . S
C1409 H1396 0.930 . S
C1409 C1408 1.376 . S
C1409 C1410 1.388 . S
C1410 H1397 0.930 . S
C1410 C1409 1.388 . S
C1410 C1411 1.390 . S
C1411 C1410 1.390 . S
C1411 C1412 1.394 . S
C1411 C1417 1.465 . S
C1412 C1407 1.399 . S
C1412 C1411 1.394 . S
C1412 C1413 1.516 . S
C1413 C1412 1.516 . S
C1413 C1414 1.502 . S
C1413 C1415 1.561 . S
C1413 C1416 1.526 . S
C1414 H1398 0.959 . S
C1414 H1399 0.959 . S
C1414 H1400 0.961 . S
C1414 C1413 1.502 . S
C1415 H1401 0.960 . S
C1415 H1402 0.961 . S
C1415 H1403 0.959 . S
C1415 C1413 1.561 . S
C1416 C1413 1.526 . S
C1416 C1417 1.396 . S
C1416 C1421 1.390 1_556 S
C1417 C1411 1.465 . S
C1417 C1416 1.396 . S
C1417 C1418 1.399 . S
C1418 H1404 0.929 . S
C1418 C1417 1.399 . S
C1418 C1419 1.385 1_556 S
C1419 H1405 0.931 . S
C1419 C1418 1.385 1_554 S
C1419 C1420 1.389 . S
C1420 C1419 1.389 . S
C1420 C1421 1.387 . S
C1421 H1406 0.930 . S
C1421 C1416 1.390 1_554 S
C1421 C1420 1.387 . S
H1422 C1434 0.930 . S
H1423 C1436 0.930 . S
H1424 C1437 0.930 . S
H1425 C1441 0.959 . S
H1426 C1441 0.959 . S
H1427 C1441 0.961 . S
H1428 C1442 0.960 . S
H1429 C1442 0.961 . S
H1430 C1442 0.959 . S
H1431 C1445 0.929 . S
H1432 C1446 0.931 . S
H1433 C1448 0.930 . S
C1434 H1422 0.930 . S
C1434 C1435 1.399 . S
C1434 C1439 1.399 1_556 S
C1435 C1434 1.399 . S
C1435 C1436 1.376 . S
C1436 H1423 0.930 . S
C1436 C1435 1.376 . S
C1436 C1437 1.388 1_556 S
C1437 H1424 0.930 . S
C1437 C1436 1.388 1_554 S
C1437 C1438 1.390 . S
C1438 C1437 1.390 . S
C1438 C1439 1.394 . S
C1438 C1444 1.465 . S
C1439 C1434 1.399 1_554 S
C1439 C1438 1.394 . S
C1439 C1440 1.516 . S
C1440 C1439 1.516 . S
C1440 C1441 1.502 . S
C1440 C1442 1.561 . S
C1440 C1443 1.526 . S
C1441 H1425 0.959 . S
C1441 H1426 0.959 . S
C1441 H1427 0.961 . S
C1441 C1440 1.502 . S
C1442 H1428 0.960 . S
C1442 H1429 0.961 . S
C1442 H1430 0.959 . S
C1442 C1440 1.561 . S
C1443 C1440 1.526 . S
C1443 C1444 1.396 . S
C1443 C1448 1.390 . S
C1444 C1438 1.465 . S
C1444 C1443 1.396 . S
C1444 C1445 1.399 . S
C1445 H1431 0.929 . S
C1445 C1444 1.399 . S
C1445 C1446 1.385 . S
C1446 H1432 0.931 . S
C1446 C1445 1.385 . S
C1446 C1447 1.389 . S
C1447 C1446 1.389 . S
C1447 C1448 1.387 . S
C1448 H1433 0.930 . S
C1448 C1443 1.390 . S
C1448 C1447 1.387 . S
H1449 C1461 0.930 . S
H1450 C1463 0.930 . S
H1451 C1464 0.930 . S
H1452 C1468 0.959 . S
H1453 C1468 0.959 . S
H1454 C1468 0.961 . S
H1455 C1469 0.960 . S
H1456 C1469 0.961 . S
H1457 C1469 0.959 . S
H1458 C1472 0.929 . S
H1459 C1473 0.931 . S
H1460 C1475 0.930 . S
C1461 H1449 0.930 . S
C1461 C1462 1.399 . S
C1461 C1466 1.399 1_556 S
C1462 C1461 1.399 . S
C1462 C1463 1.376 . S
C1463 H1450 0.930 . S
C1463 C1462 1.376 . S
C1463 C1464 1.388 1_556 S
C1464 H1451 0.930 . S
C1464 C1463 1.388 1_554 S
C1464 C1465 1.390 . S
C1465 C1464 1.390 . S
C1465 C1466 1.394 . S
C1465 C1471 1.465 . S
C1466 C1461 1.399 1_554 S
C1466 C1465 1.394 . S
C1466 C1467 1.516 . S
C1467 C1466 1.516 . S
C1467 C1468 1.502 . S
C1467 C1469 1.561 . S
C1467 C1470 1.526 . S
C1468 H1452 0.959 . S
C1468 H1453 0.959 . S
C1468 H1454 0.961 . S
C1468 C1467 1.502 . S
C1469 H1455 0.960 . S
C1469 H1456 0.961 . S
C1469 H1457 0.959 . S
C1469 C1467 1.561 . S
C1470 C1467 1.526 . S
C1470 C1471 1.396 . S
C1470 C1475 1.390 . S
C1471 C1465 1.465 . S
C1471 C1470 1.396 . S
C1471 C1472 1.399 . S
C1472 H1458 0.929 . S
C1472 C1471 1.399 . S
C1472 C1473 1.385 . S
C1473 H1459 0.931 . S
C1473 C1472 1.385 . S
C1473 C1474 1.389 . S
C1474 C1473 1.389 . S
C1474 C1475 1.387 . S
C1475 H1460 0.930 . S
C1475 C1470 1.390 . S
C1475 C1474 1.387 . S
H1476 C1488 0.930 . S
H1477 C1490 0.930 . S
H1478 C1491 0.930 . S
H1479 C1495 0.959 . S
H1480 C1495 0.959 . S
H1481 C1495 0.961 . S
H1482 C1496 0.960 . S
H1483 C1496 0.961 . S
H1484 C1496 0.959 . S
H1485 C1499 0.929 . S
H1486 C1500 0.931 . S
H1487 C1502 0.930 . S
C1488 H1476 0.930 . S
C1488 C1489 1.399 . S
C1488 C1493 1.399 . S
C1489 C1488 1.399 . S
C1489 C1490 1.376 . S
C1490 H1477 0.930 . S
C1490 C1489 1.376 . S
C1490 C1491 1.388 . S
C1491 H1478 0.930 . S
C1491 C1490 1.388 . S
C1491 C1492 1.390 . S
C1492 C1491 1.390 . S
C1492 C1493 1.394 . S
C1492 C1498 1.465 . S
C1493 C1488 1.399 . S
C1493 C1492 1.394 . S
C1493 C1494 1.516 . S
C1494 C1493 1.516 . S
C1494 C1495 1.502 . S
C1494 C1496 1.561 . S
C1494 C1497 1.526 . S
C1495 H1479 0.959 . S
C1495 H1480 0.959 . S
C1495 H1481 0.961 . S
C1495 C1494 1.502 . S
C1496 H1482 0.960 . S
C1496 H1483 0.961 . S
C1496 H1484 0.959 . S
C1496 C1494 1.561 . S
C1497 C1494 1.526 . S
C1497 C1498 1.396 . S
C1497 C1502 1.390 1_554 S
C1498 C1492 1.465 . S
C1498 C1497 1.396 . S
C1498 C1499 1.399 . S
C1499 H1485 0.929 . S
C1499 C1498 1.399 . S
C1499 C1500 1.385 1_554 S
C1500 H1486 0.931 . S
C1500 C1499 1.385 1_556 S
C1500 C1501 1.389 . S
C1501 C1500 1.389 . S
C1501 C1502 1.387 . S
C1502 H1487 0.930 . S
C1502 C1497 1.390 1_556 S
C1502 C1501 1.387 . S
H1503 C1515 0.930 . S
H1504 C1517 0.930 . S
H1505 C1518 0.930 . S
H1506 C1522 0.959 . S
H1507 C1522 0.959 . S
H1508 C1522 0.961 . S
H1509 C1523 0.960 . S
H1510 C1523 0.961 . S
H1511 C1523 0.959 . S
H1512 C1526 0.929 . S
H1513 C1527 0.931 . S
H1514 C1529 0.930 . S
C1515 H1503 0.930 . S
C1515 C1516 1.399 . S
C1515 C1520 1.399 . S
C1516 C1515 1.399 . S
C1516 C1517 1.376 . S
C1517 H1504 0.930 . S
C1517 C1516 1.376 . S
C1517 C1518 1.388 . S
C1518 H1505 0.930 . S
C1518 C1517 1.388 . S
C1518 C1519 1.390 . S
C1519 C1518 1.390 . S
C1519 C1520 1.394 . S
C1519 C1525 1.465 . S
C1520 C1515 1.399 . S
C1520 C1519 1.394 . S
C1520 C1521 1.516 . S
C1521 C1520 1.516 . S
C1521 C1522 1.502 . S
C1521 C1523 1.561 . S
C1521 C1524 1.526 . S
C1522 H1506 0.959 . S
C1522 H1507 0.959 . S
C1522 H1508 0.961 . S
C1522 C1521 1.502 . S
C1523 H1509 0.960 . S
C1523 H1510 0.961 . S
C1523 H1511 0.959 . S
C1523 C1521 1.561 . S
C1524 C1521 1.526 . S
C1524 C1525 1.396 . S
C1524 C1529 1.390 . S
C1525 C1519 1.465 . S
C1525 C1524 1.396 . S
C1525 C1526 1.399 . S
C1526 H1512 0.929 . S
C1526 C1525 1.399 . S
C1526 C1527 1.385 . S
C1527 H1513 0.931 . S
C1527 C1526 1.385 . S
C1527 C1528 1.389 . S
C1528 C1527 1.389 . S
C1528 C1529 1.387 . S
C1529 H1514 0.930 . S
C1529 C1524 1.390 . S
C1529 C1528 1.387 . S
H1530 C1542 0.930 . S
H1531 C1544 0.930 . S
H1532 C1545 0.930 . S
H1533 C1549 0.959 . S
H1534 C1549 0.959 . S
H1535 C1549 0.961 . S
H1536 C1550 0.960 . S
H1537 C1550 0.961 . S
H1538 C1550 0.959 . S
H1539 C1553 0.929 . S
H1540 C1554 0.931 . S
H1541 C1556 0.930 . S
C1542 H1530 0.930 . S
C1542 C1543 1.399 . S
C1542 C1547 1.399 . S
C1543 C1542 1.399 . S
C1543 C1544 1.376 . S
C1544 H1531 0.930 . S
C1544 C1543 1.376 . S
C1544 C1545 1.388 . S
C1545 H1532 0.930 . S
C1545 C1544 1.388 . S
C1545 C1546 1.390 . S
C1546 C1545 1.390 . S
C1546 C1547 1.394 . S
C1546 C1552 1.465 . S
C1547 C1542 1.399 . S
C1547 C1546 1.394 . S
C1547 C1548 1.516 . S
C1548 C1547 1.516 . S
C1548 C1549 1.502 . S
C1548 C1550 1.561 . S
C1548 C1551 1.526 . S
C1549 H1533 0.959 . S
C1549 H1534 0.959 . S
C1549 H1535 0.961 . S
C1549 C1548 1.502 . S
C1550 H1536 0.960 . S
C1550 H1537 0.961 . S
C1550 H1538 0.959 . S
C1550 C1548 1.561 . S
C1551 C1548 1.526 . S
C1551 C1552 1.396 . S
C1551 C1556 1.390 . S
C1552 C1546 1.465 . S
C1552 C1551 1.396 . S
C1552 C1553 1.399 . S
C1553 H1539 0.929 . S
C1553 C1552 1.399 . S
C1553 C1554 1.385 . S
C1554 H1540 0.931 . S
C1554 C1553 1.385 . S
C1554 C1555 1.389 . S
C1555 C1554 1.389 . S
C1555 C1556 1.387 . S
C1556 H1541 0.930 . S
C1556 C1551 1.390 . S
C1556 C1555 1.387 . S
H1557 C1569 0.930 . S
H1558 C1571 0.930 . S
H1559 C1572 0.930 . S
H1560 C1576 0.959 . S
H1561 C1576 0.959 . S
H1562 C1576 0.961 . S
H1563 C1577 0.960 . S
H1564 C1577 0.961 . S
H1565 C1577 0.959 . S
H1566 C1580 0.929 . S
H1567 C1581 0.931 . S
H1568 C1583 0.930 . S
C1569 H1557 0.930 . S
C1569 C1570 1.399 . S
C1569 C1574 1.399 . S
C1570 C1569 1.399 . S
C1570 C1571 1.376 . S
C1571 H1558 0.930 . S
C1571 C1570 1.376 . S
C1571 C1572 1.388 . S
C1572 H1559 0.930 . S
C1572 C1571 1.388 . S
C1572 C1573 1.390 . S
C1573 C1572 1.390 . S
C1573 C1574 1.394 . S
C1573 C1579 1.465 . S
C1574 C1569 1.399 . S
C1574 C1573 1.394 . S
C1574 C1575 1.516 . S
C1575 C1574 1.516 . S
C1575 C1576 1.502 . S
C1575 C1577 1.561 . S
C1575 C1578 1.526 . S
C1576 H1560 0.959 . S
C1576 H1561 0.959 . S
C1576 H1562 0.961 . S
C1576 C1575 1.502 . S
C1577 H1563 0.960 . S
C1577 H1564 0.961 . S
C1577 H1565 0.959 . S
C1577 C1575 1.561 . S
C1578 C1575 1.526 . S
C1578 C1579 1.396 . S
C1578 C1583 1.390 . S
C1579 C1573 1.465 . S
C1579 C1578 1.396 . S
C1579 C1580 1.399 . S
C1580 H1566 0.929 . S
C1580 C1579 1.399 . S
C1580 C1581 1.385 . S
C1581 H1567 0.931 . S
C1581 C1580 1.385 . S
C1581 C1582 1.389 . S
C1582 C1581 1.389 . S
C1582 C1583 1.387 . S
C1583 H1568 0.930 . S
C1583 C1578 1.390 . S
C1583 C1582 1.387 . S
H1584 C1596 0.930 . S
H1585 C1598 0.930 . S
H1586 C1599 0.930 . S
H1587 C1603 0.959 . S
H1588 C1603 0.959 . S
H1589 C1603 0.961 . S
H1590 C1604 0.960 . S
H1591 C1604 0.961 . S
H1592 C1604 0.959 . S
H1593 C1607 0.929 . S
H1594 C1608 0.931 . S
H1595 C1610 0.930 . S
C1596 H1584 0.930 . S
C1596 C1597 1.399 . S
C1596 C1601 1.399 . S
C1597 C1596 1.399 . S
C1597 C1598 1.376 . S
C1598 H1585 0.930 . S
C1598 C1597 1.376 . S
C1598 C1599 1.388 . S
C1599 H1586 0.930 . S
C1599 C1598 1.388 . S
C1599 C1600 1.390 . S
C1600 C1599 1.390 . S
C1600 C1601 1.394 . S
C1600 C1606 1.465 . S
C1601 C1596 1.399 . S
C1601 C1600 1.394 . S
C1601 C1602 1.516 . S
C1602 C1601 1.516 . S
C1602 C1603 1.502 . S
C1602 C1604 1.561 . S
C1602 C1605 1.526 . S
C1603 H1587 0.959 . S
C1603 H1588 0.959 . S
C1603 H1589 0.961 . S
C1603 C1602 1.502 . S
C1604 H1590 0.960 . S
C1604 H1591 0.961 . S
C1604 H1592 0.959 . S
C1604 C1602 1.561 . S
C1605 C1602 1.526 . S
C1605 C1606 1.396 . S
C1605 C1610 1.390 . S
C1606 C1600 1.465 . S
C1606 C1605 1.396 . S
C1606 C1607 1.399 . S
C1607 H1593 0.929 . S
C1607 C1606 1.399 . S
C1607 C1608 1.385 . S
C1608 H1594 0.931 . S
C1608 C1607 1.385 . S
C1608 C1609 1.389 . S
C1609 C1608 1.389 . S
C1609 C1610 1.387 . S
C1610 H1595 0.930 . S
C1610 C1605 1.390 . S
C1610 C1609 1.387 . S
H1611 C1623 0.930 . S
H1612 C1625 0.930 . S
H1613 C1626 0.930 . S
H1614 C1630 0.959 . S
H1615 C1630 0.959 . S
H1616 C1630 0.961 . S
H1617 C1631 0.960 . S
H1618 C1631 0.961 . S
H1619 C1631 0.959 . S
H1620 C1634 0.929 . S
H1621 C1635 0.931 . S
H1622 C1637 0.930 . S
C1623 H1611 0.930 . S
C1623 C1624 1.399 . S
C1623 C1628 1.399 . S
C1624 C1623 1.399 . S
C1624 C1625 1.376 . S
C1625 H1612 0.930 . S
C1625 C1624 1.376 . S
C1625 C1626 1.388 . S
C1626 H1613 0.930 . S
C1626 C1625 1.388 . S
C1626 C1627 1.390 . S
C1627 C1626 1.390 . S
C1627 C1628 1.394 . S
C1627 C1633 1.465 . S
C1628 C1623 1.399 . S
C1628 C1627 1.394 . S
C1628 C1629 1.516 . S
C1629 C1628 1.516 . S
C1629 C1630 1.502 . S
C1629 C1631 1.561 . S
C1629 C1632 1.526 . S
C1630 H1614 0.959 . S
C1630 H1615 0.959 . S
C1630 H1616 0.961 . S
C1630 C1629 1.502 . S
C1631 H1617 0.960 . S
C1631 H1618 0.961 . S
C1631 H1619 0.959 . S
C1631 C1629 1.561 . S
C1632 C1629 1.526 . S
C1632 C1633 1.396 . S
C1632 C1637 1.390 . S
C1633 C1627 1.465 . S
C1633 C1632 1.396 . S
C1633 C1634 1.399 . S
C1634 H1620 0.929 . S
C1634 C1633 1.399 . S
C1634 C1635 1.385 . S
C1635 H1621 0.931 . S
C1635 C1634 1.385 . S
C1635 C1636 1.389 . S
C1636 C1635 1.389 . S
C1636 C1637 1.387 . S
C1637 H1622 0.930 . S
C1637 C1632 1.390 . S
C1637 C1636 1.387 . S
H1638 C1650 0.930 . S
H1639 C1652 0.930 . S
H1640 C1653 0.930 . S
H1641 C1657 0.959 . S
H1642 C1657 0.959 . S
H1643 C1657 0.961 . S
H1644 C1658 0.960 . S
H1645 C1658 0.961 . S
H1646 C1658 0.959 . S
H1647 C1661 0.929 . S
H1648 C1662 0.931 . S
H1649 C1664 0.930 . S
C1650 H1638 0.930 . S
C1650 C1651 1.399 . S
C1650 C1655 1.399 . S
C1651 C1650 1.399 . S
C1651 C1652 1.376 . S
C1652 H1639 0.930 . S
C1652 C1651 1.376 . S
C1652 C1653 1.388 . S
C1653 H1640 0.930 . S
C1653 C1652 1.388 . S
C1653 C1654 1.390 . S
C1654 C1653 1.390 . S
C1654 C1655 1.394 . S
C1654 C1660 1.465 . S
C1655 C1650 1.399 . S
C1655 C1654 1.394 . S
C1655 C1656 1.516 . S
C1656 C1655 1.516 . S
C1656 C1657 1.502 . S
C1656 C1658 1.561 . S
C1656 C1659 1.526 . S
C1657 H1641 0.959 . S
C1657 H1642 0.959 . S
C1657 H1643 0.961 . S
C1657 C1656 1.502 . S
C1658 H1644 0.960 . S
C1658 H1645 0.961 . S
C1658 H1646 0.959 . S
C1658 C1656 1.561 . S
C1659 C1656 1.526 . S
C1659 C1660 1.396 . S
C1659 C1664 1.390 . S
C1660 C1654 1.465 . S
C1660 C1659 1.396 . S
C1660 C1661 1.399 . S
C1661 H1647 0.929 . S
C1661 C1660 1.399 . S
C1661 C1662 1.385 . S
C1662 H1648 0.931 . S
C1662 C1661 1.385 . S
C1662 C1663 1.389 . S
C1663 C1662 1.389 . S
C1663 C1664 1.387 . S
C1664 H1649 0.930 . S
C1664 C1659 1.390 . S
C1664 C1663 1.387 . S
H1665 C1677 0.930 . S
H1666 C1679 0.930 . S
H1667 C1680 0.930 . S
H1668 C1684 0.959 . S
H1669 C1684 0.959 . S
H1670 C1684 0.961 . S
H1671 C1685 0.960 . S
H1672 C1685 0.961 . S
H1673 C1685 0.959 . S
H1674 C1688 0.929 . S
H1675 C1689 0.931 . S
H1676 C1691 0.930 . S
C1677 H1665 0.930 . S
C1677 C1678 1.399 . S
C1677 C1682 1.399 . S
C1678 C1677 1.399 . S
C1678 C1679 1.376 . S
C1679 H1666 0.930 . S
C1679 C1678 1.376 . S
C1679 C1680 1.388 . S
C1680 H1667 0.930 . S
C1680 C1679 1.388 . S
C1680 C1681 1.390 . S
C1681 C1680 1.390 . S
C1681 C1682 1.394 . S
C1681 C1687 1.465 . S
C1682 C1677 1.399 . S
C1682 C1681 1.394 . S
C1682 C1683 1.516 . S
C1683 C1682 1.516 . S
C1683 C1684 1.502 . S
C1683 C1685 1.561 . S
C1683 C1686 1.526 . S
C1684 H1668 0.959 . S
C1684 H1669 0.959 . S
C1684 H1670 0.961 . S
C1684 C1683 1.502 . S
C1685 H1671 0.960 . S
C1685 H1672 0.961 . S
C1685 H1673 0.959 . S
C1685 C1683 1.561 . S
C1686 C1683 1.526 . S
C1686 C1687 1.396 . S
C1686 C1691 1.390 . S
C1687 C1681 1.465 . S
C1687 C1686 1.396 . S
C1687 C1688 1.399 . S
C1688 H1674 0.929 . S
C1688 C1687 1.399 . S
C1688 C1689 1.385 . S
C1689 H1675 0.931 . S
C1689 C1688 1.385 . S
C1689 C1690 1.389 . S
C1690 C1689 1.389 . S
C1690 C1691 1.387 . S
C1691 H1676 0.930 . S
C1691 C1686 1.390 . S
C1691 C1690 1.387 . S
H1692 C1704 0.930 . S
H1693 C1706 0.930 . S
H1694 C1707 0.930 . S
H1695 C1711 0.959 . S
H1696 C1711 0.959 . S
H1697 C1711 0.961 . S
H1698 C1712 0.960 . S
H1699 C1712 0.961 . S
H1700 C1712 0.959 . S
H1701 C1715 0.929 . S
H1702 C1716 0.931 . S
H1703 C1718 0.930 . S
C1704 H1692 0.930 . S
C1704 C1705 1.399 . S
C1704 C1709 1.399 . S
C1705 C1704 1.399 . S
C1705 C1706 1.376 . S
C1706 H1693 0.930 . S
C1706 C1705 1.376 . S
C1706 C1707 1.388 . S
C1707 H1694 0.930 . S
C1707 C1706 1.388 . S
C1707 C1708 1.390 . S
C1708 C1707 1.390 . S
C1708 C1709 1.394 . S
C1708 C1714 1.465 . S
C1709 C1704 1.399 . S
C1709 C1708 1.394 . S
C1709 C1710 1.516 . S
C1710 C1709 1.516 . S
C1710 C1711 1.502 . S
C1710 C1712 1.561 . S
C1710 C1713 1.526 . S
C1711 H1695 0.959 . S
C1711 H1696 0.959 . S
C1711 H1697 0.961 . S
C1711 C1710 1.502 . S
C1712 H1698 0.960 . S
C1712 H1699 0.961 . S
C1712 H1700 0.959 . S
C1712 C1710 1.561 . S
C1713 C1710 1.526 . S
C1713 C1714 1.396 . S
C1713 C1718 1.390 . S
C1714 C1708 1.465 . S
C1714 C1713 1.396 . S
C1714 C1715 1.399 . S
C1715 H1701 0.929 . S
C1715 C1714 1.399 . S
C1715 C1716 1.385 . S
C1716 H1702 0.931 . S
C1716 C1715 1.385 . S
C1716 C1717 1.389 . S
C1717 C1716 1.389 . S
C1717 C1718 1.387 . S
C1718 H1703 0.930 . S
C1718 C1713 1.390 . S
C1718 C1717 1.387 . S
H1719 C1731 0.930 . S
H1720 C1733 0.930 . S
H1721 C1734 0.930 . S
H1722 C1738 0.959 . S
H1723 C1738 0.959 . S
H1724 C1738 0.961 . S
H1725 C1739 0.960 . S
H1726 C1739 0.961 . S
H1727 C1739 0.959 . S
H1728 C1742 0.929 . S
H1729 C1743 0.931 . S
H1730 C1745 0.930 . S
C1731 H1719 0.930 . S
C1731 C1732 1.399 . S
C1731 C1736 1.399 . S
C1732 C1731 1.399 . S
C1732 C1733 1.376 . S
C1733 H1720 0.930 . S
C1733 C1732 1.376 . S
C1733 C1734 1.388 . S
C1734 H1721 0.930 . S
C1734 C1733 1.388 . S
C1734 C1735 1.390 . S
C1735 C1734 1.390 . S
C1735 C1736 1.394 . S
C1735 C1741 1.465 . S
C1736 C1731 1.399 . S
C1736 C1735 1.394 . S
C1736 C1737 1.516 . S
C1737 C1736 1.516 . S
C1737 C1738 1.502 . S
C1737 C1739 1.561 . S
C1737 C1740 1.526 . S
C1738 H1722 0.959 . S
C1738 H1723 0.959 . S
C1738 H1724 0.961 . S
C1738 C1737 1.502 . S
C1739 H1725 0.960 . S
C1739 H1726 0.961 . S
C1739 H1727 0.959 . S
C1739 C1737 1.561 . S
C1740 C1737 1.526 . S
C1740 C1741 1.396 . S
C1740 C1745 1.390 . S
C1741 C1735 1.465 . S
C1741 C1740 1.396 . S
C1741 C1742 1.399 . S
C1742 H1728 0.929 . S
C1742 C1741 1.399 . S
C1742 C1743 1.385 . S
C1743 H1729 0.931 . S
C1743 C1742 1.385 . S
C1743 C1744 1.389 . S
C1744 C1743 1.389 . S
C1744 C1745 1.387 . S
C1745 H1730 0.930 . S
C1745 C1740 1.390 . S
C1745 C1744 1.387 . S
H1746 C1758 0.930 . S
H1747 C1760 0.930 . S
H1748 C1761 0.930 . S
H1749 C1765 0.959 . S
H1750 C1765 0.959 . S
H1751 C1765 0.961 . S
H1752 C1766 0.960 . S
H1753 C1766 0.961 . S
H1754 C1766 0.959 . S
H1755 C1769 0.929 . S
H1756 C1770 0.931 . S
H1757 C1772 0.930 . S
C1758 H1746 0.930 . S
C1758 C1759 1.399 . S
C1758 C1763 1.399 . S
C1759 C1758 1.399 . S
C1759 C1760 1.376 . S
C1760 H1747 0.930 . S
C1760 C1759 1.376 . S
C1760 C1761 1.388 . S
C1761 H1748 0.930 . S
C1761 C1760 1.388 . S
C1761 C1762 1.390 . S
C1762 C1761 1.390 . S
C1762 C1763 1.394 . S
C1762 C1768 1.465 . S
C1763 C1758 1.399 . S
C1763 C1762 1.394 . S
C1763 C1764 1.516 . S
C1764 C1763 1.516 . S
C1764 C1765 1.502 . S
C1764 C1766 1.561 . S
C1764 C1767 1.526 . S
C1765 H1749 0.959 . S
C1765 H1750 0.959 . S
C1765 H1751 0.961 . S
C1765 C1764 1.502 . S
C1766 H1752 0.960 . S
C1766 H1753 0.961 . S
C1766 H1754 0.959 . S
C1766 C1764 1.561 . S
C1767 C1764 1.526 . S
C1767 C1768 1.396 . S
C1767 C1772 1.390 . S
C1768 C1762 1.465 . S
C1768 C1767 1.396 . S
C1768 C1769 1.399 . S
C1769 H1755 0.929 . S
C1769 C1768 1.399 . S
C1769 C1770 1.385 . S
C1770 H1756 0.931 . S
C1770 C1769 1.385 . S
C1770 C1771 1.389 . S
C1771 C1770 1.389 . S
C1771 C1772 1.387 . S
C1772 H1757 0.930 . S
C1772 C1767 1.390 . S
C1772 C1771 1.387 . S
H1773 C1785 0.930 . S
H1774 C1787 0.930 . S
H1775 C1788 0.930 . S
H1776 C1792 0.959 . S
H1777 C1792 0.959 . S
H1778 C1792 0.961 . S
H1779 C1793 0.960 . S
H1780 C1793 0.961 . S
H1781 C1793 0.959 . S
H1782 C1796 0.929 . S
H1783 C1797 0.931 . S
H1784 C1799 0.930 . S
C1785 H1773 0.930 . S
C1785 C1786 1.399 . S
C1785 C1790 1.399 . S
C1786 C1785 1.399 . S
C1786 C1787 1.376 . S
C1787 H1774 0.930 . S
C1787 C1786 1.376 . S
C1787 C1788 1.388 . S
C1788 H1775 0.930 . S
C1788 C1787 1.388 . S
C1788 C1789 1.390 . S
C1789 C1788 1.390 . S
C1789 C1790 1.394 . S
C1789 C1795 1.465 . S
C1790 C1785 1.399 . S
C1790 C1789 1.394 . S
C1790 C1791 1.516 . S
C1791 C1790 1.516 . S
C1791 C1792 1.502 . S
C1791 C1793 1.561 . S
C1791 C1794 1.526 . S
C1792 H1776 0.959 . S
C1792 H1777 0.959 . S
C1792 H1778 0.961 . S
C1792 C1791 1.502 . S
C1793 H1779 0.960 . S
C1793 H1780 0.961 . S
C1793 H1781 0.959 . S
C1793 C1791 1.561 . S
C1794 C1791 1.526 . S
C1794 C1795 1.396 . S
C1794 C1799 1.390 . S
C1795 C1789 1.465 . S
C1795 C1794 1.396 . S
C1795 C1796 1.399 . S
C1796 H1782 0.929 . S
C1796 C1795 1.399 . S
C1796 C1797 1.385 . S
C1797 H1783 0.931 . S
C1797 C1796 1.385 . S
C1797 C1798 1.389 . S
C1798 C1797 1.389 . S
C1798 C1799 1.387 . S
C1799 H1784 0.930 . S
C1799 C1794 1.390 . S
C1799 C1798 1.387 . S
H1800 C1812 0.930 . S
H1801 C1814 0.930 . S
H1802 C1815 0.930 . S
H1803 C1819 0.959 . S
H1804 C1819 0.959 . S
H1805 C1819 0.961 . S
H1806 C1820 0.960 . S
H1807 C1820 0.961 . S
H1808 C1820 0.959 . S
H1809 C1823 0.929 . S
H1810 C1824 0.931 . S
H1811 C1826 0.930 . S
C1812 H1800 0.930 . S
C1812 C1813 1.399 . S
C1812 C1817 1.399 . S
C1813 C1812 1.399 . S
C1813 C1814 1.376 . S
C1814 H1801 0.930 . S
C1814 C1813 1.376 . S
C1814 C1815 1.388 . S
C1815 H1802 0.930 . S
C1815 C1814 1.388 . S
C1815 C1816 1.390 . S
C1816 C1815 1.390 . S
C1816 C1817 1.394 . S
C1816 C1822 1.465 . S
C1817 C1812 1.399 . S
C1817 C1816 1.394 . S
C1817 C1818 1.516 . S
C1818 C1817 1.516 . S
C1818 C1819 1.502 . S
C1818 C1820 1.561 . S
C1818 C1821 1.526 . S
C1819 H1803 0.959 . S
C1819 H1804 0.959 . S
C1819 H1805 0.961 . S
C1819 C1818 1.502 . S
C1820 H1806 0.960 . S
C1820 H1807 0.961 . S
C1820 H1808 0.959 . S
C1820 C1818 1.561 . S
C1821 C1818 1.526 . S
C1821 C1822 1.396 . S
C1821 C1826 1.390 . S
C1822 C1816 1.465 . S
C1822 C1821 1.396 . S
C1822 C1823 1.399 . S
C1823 H1809 0.929 . S
C1823 C1822 1.399 . S
C1823 C1824 1.385 . S
C1824 H1810 0.931 . S
C1824 C1823 1.385 . S
C1824 C1825 1.389 . S
C1825 C1824 1.389 . S
C1825 C1826 1.387 . S
C1826 H1811 0.930 . S
C1826 C1821 1.390 . S
C1826 C1825 1.387 . S
C625 C104 1.652 . S
C637 C2 1.691 . S
C652 C138 1.649 . S
C664 C36 1.676 . S
C679 C172 1.673 . S
C691 C70 1.696 . S
C706 C67 1.170 . S
C718 C203 1.176 . S
C733 C135 1.165 . S
C745 C101 1.177 . S
C760 C169 1.172 . S
C772 C33 1.176 . S
C787 C308 1.663 . S
C799 C206 1.697 . S
C814 C240 1.697 . S
C826 C342 1.663 . S
C841 C274 1.656 . S
C853 C376 1.694 . S
C868 C271 1.156 . S
C880 C407 1.168 . S
C895 C305 1.166 . S
C907 C339 1.156 . S
C922 C373 1.170 . S
C934 C237 1.157 . S
C949 C410 1.694 . S
C961 C512 1.679 . S
C976 C546 1.650 . S
C988 C444 1.672 . S
C1003 C478 1.656 . S
C1015 C580 1.662 . S
C1030 C475 1.176 . S
C1042 C611 1.171 . S
C1057 C543 1.161 . S
C1069 C509 1.158 . S
C1084 C441 1.169 . S
C1096 C577 1.157 . S
C1111 C20 1.773 . S
C1123 C598 1.781 . S
C1138 C530 1.786 . S
C1150 C54 1.796 . S
C1165 C564 1.778 . S
C1177 C88 1.788 . S
C1192 C258 1.779 . S
C1204 C122 1.790 . S
C1219 C292 1.794 . S
C1231 C156 1.784 . S
C1246 C224 1.775 . S
C1258 C190 1.785 . S
C1273 C462 1.799 . S
C1285 C326 1.792 . S
C1300 C496 1.776 . S
C1312 C360 1.786 . S
C1327 C394 1.800 . S
C1339 C428 1.793 . S
C1354 C5 1.355 . S
C1366 C9 1.326 . S
C1381 C39 1.383 . S
C1393 C43 1.258 . S
C1408 C73 1.385 . S
C1420 C77 1.233 . S
C1435 C111 1.279 . S
C1447 C107 1.358 . S
C1462 C145 1.303 . S
C1474 C141 1.349 . S
C1489 C175 1.363 . S
C1501 C179 1.267 . S
C1516 C209 1.358 1_554 S
C1528 C213 1.320 . S
C1543 C247 1.239 . S
C1555 C243 1.377 1_554 S
C1570 C281 1.268 . S
C1582 C277 1.363 1_554 S
C1597 C311 1.384 . S
C1609 C315 1.233 . S
C1624 C345 1.343 . S
C1636 C349 1.319 . S
C1651 C379 1.365 . S
C1663 C383 1.263 . S
C1678 C413 1.363 . S
C1690 C417 1.267 . S
C1705 C447 1.342 . S
C1717 C451 1.320 . S
C1732 C485 1.275 . S
C1744 C481 1.360 . S
C1759 C515 1.385 1_556 S
C1771 C519 1.233 . S
C1786 C553 1.326 . S
C1798 C549 1.356 1_556 S
C1813 C587 1.242 . S
C1825 C583 1.386 1_556 S
