# Generated by pormake.
# Topology uon, (4)-cn, num edge types: 1
# Building blocks:
#     Node 0, Type 0, BuildingBlock: KOZSID_clean_sbu_0, # of connection points: 4
#     Node 1, Type 0, BuildingBlock: KOZSID_clean_sbu_0, # of connection points: 4
#     Node 2, Type 0, BuildingBlock: KOZSID_clean_sbu_0, # of connection points: 4
#     Node 3, Type 0, BuildingBlock: KOZSID_clean_sbu_0, # of connection points: 4
#     Node 4, Type 0, BuildingBlock: KOZSID_clean_sbu_0, # of connection points: 4
#     Node 5, Type 0, BuildingBlock: KOZSID_clean_sbu_0, # of connection points: 4
#     Edge 6, Type (0, 0), BuildingBlock: EZIPEK_clean_linker_0, # of connection points: 2
#     Edge 7, Type (0, 0), BuildingBlock: EZIPEK_clean_linker_0, # of connection points: 2
#     Edge 8, Type (0, 0), BuildingBlock: EZIPEK_clean_linker_0, # of connection points: 2
#     Edge 9, Type (0, 0), BuildingBlock: EZIPEK_clean_linker_0, # of connection points: 2
#     Edge 10, Type (0, 0), BuildingBlock: EZIPEK_clean_linker_0, # of connection points: 2
#     Edge 11, Type (0, 0), BuildingBlock: EZIPEK_clean_linker_0, # of connection points: 2
#     Edge 12, Type (0, 0), BuildingBlock: EZIPEK_clean_linker_0, # of connection points: 2
#     Edge 13, Type (0, 0), BuildingBlock: EZIPEK_clean_linker_0, # of connection points: 2
#     Edge 14, Type (0, 0), BuildingBlock: EZIPEK_clean_linker_0, # of connection points: 2
#     Edge 15, Type (0, 0), BuildingBlock: EZIPEK_clean_linker_0, # of connection points: 2
#     Edge 16, Type (0, 0), BuildingBlock: EZIPEK_clean_linker_0, # of connection points: 2
#     Edge 17, Type (0, 0), BuildingBlock: EZIPEK_clean_linker_0, # of connection points: 2
# Relax obj value: 0.068
# Max RMSD: 0.128
# Mean RMSD: 0.128
data_MOF--net-uon--node1-KOZSID_clean_sbu_0--edge1-EZIPEK_clean_linker_0
_symmetry_space_group_name_H-M    P1
_symmetry_Int_Tables_number       1
_symmetry_cell_setting            triclinic
loop_
_symmetry_equiv_pos_as_xyz
'x, y, z'
_cell_length_a     29.62346
_cell_length_b     29.646883
_cell_length_c     25.905982
_cell_angle_alpha  89.753713
_cell_angle_beta   90.170689
_cell_angle_gamma 120.09198
loop_
_atom_site_label
_atom_site_type_symbol
_atom_site_fract_x
_atom_site_fract_y
_atom_site_fract_z
_atom_type_partial_charge
C0 C 0.11747 0.34979 0.04467 0.0
C1 C 0.06681 0.32947 0.02661 0.0
C2 C 0.07062 0.346 0.9765 0.0
C3 C 0.12316 0.37551 0.96684 0.0
N4 N 0.15268 0.37844 1.00769 0.0
Co5 Co 0.23023 0.4181 0.01059 0.0
N6 N 0.23522 0.46125 0.94902 0.0
C7 C 0.19599 0.45109 0.91608 0.0
C8 C 0.21067 0.48624 0.87619 0.0
C9 C 0.26273 0.52029 0.88375 0.0
C10 C 0.27701 0.50389 0.92798 0.0
N11 N 0.30803 0.45604 0.01225 0.0
C12 C 0.34375 0.49812 0.98494 0.0
C13 C 0.39417 0.50987 0.99715 0.0
C14 C 0.38984 0.47311 0.03205 0.0
C15 C 0.33726 0.44117 0.03954 0.0
N16 N 0.22469 0.37641 0.07314 0.0
C17 C 0.26314 0.37078 0.09406 0.0
C18 C 0.24796 0.34104 0.13832 0.0
C19 C 0.1967 0.32719 0.14568 0.0
C20 C 0.18356 0.34934 0.1054 0.0
N21 N 0.23214 0.36519 0.96581 0.0
C22 C 0.25066 0.29517 0.90961 0.0
C23 C 0.21778 0.27815 0.95285 0.0
C24 C 0.2083 0.31365 0.97993 0.0
C25 C 0.27116 0.34665 0.89335 0.0
C26 C 0.26148 0.38068 0.92175 0.0
N27 N 0.22882 0.4705 0.05598 0.0
C28 C 0.26266 0.52763 0.12977 0.0
C29 C 0.22249 0.5394 0.12626 0.0
C30 C 0.18599 0.51638 0.08619 0.0
C31 C 0.19074 0.48345 0.05074 0.0
C32 C 0.26431 0.49224 0.09528 0.0
H33 H 0.16302 0.46795 0.01955 0.0
H34 H 0.29415 0.48217 0.10108 0.0
H35 H 0.18299 0.29963 0.01314 0.0
H36 H 0.27936 0.41996 0.90849 0.0
C37 C 0.14552 0.40975 0.92523 0.0
C38 C 0.13091 0.34107 0.09683 0.0
C39 C 0.33172 0.52457 0.94345 0.0
C40 C 0.31429 0.40076 0.07593 0.0
H41 H 0.0309 0.30606 0.04764 0.0
H42 H 0.03885 0.33994 0.9513 0.0
H43 H 0.18654 0.48679 0.84501 0.0
H44 H 0.28784 0.5521 0.85831 0.0
H45 H 0.43029 0.54097 0.98141 0.0
H46 H 0.42135 0.47043 0.05028 0.0
H47 H 0.27182 0.33222 0.1634 0.0
H48 H 0.17176 0.30344 0.17687 0.0
H49 H 0.20064 0.23824 0.96621 0.0
H50 H 0.2963 0.3611 0.85978 0.0
H51 H 0.29208 0.54495 0.15965 0.0
H52 H 0.15449 0.52466 0.0817 0.0
C53 C 0.77216 0.11438 0.37421 0.0
C54 C 0.7419 0.0636 0.35684 0.0
C55 C 0.72373 0.06668 0.30907 0.0
C56 C 0.74371 0.11896 0.29996 0.0
N57 N 0.77408 0.14917 0.33875 0.0
Co58 Co 0.80799 0.22656 0.34312 0.0
N59 N 0.76567 0.22959 0.28443 0.0
C60 C 0.73054 0.18897 0.25627 0.0
C61 C 0.69821 0.20038 0.22806 0.0
C62 C 0.71564 0.25205 0.23727 0.0
C63 C 0.75942 0.26981 0.26852 0.0
N64 N 0.8417 0.30407 0.3474 0.0
C65 C 0.83029 0.33746 0.32197 0.0
C66 C 0.8559 0.3864 0.3446 0.0
C67 C 0.88927 0.38523 0.38073 0.0
C68 C 0.88016 0.33504 0.38013 0.0
N69 N 0.84948 0.22302 0.40226 0.0
C70 C 0.8918 0.26354 0.42366 0.0
C71 C 0.9103 0.2491 0.4656 0.0
C72 C 0.87732 0.19641 0.47124 0.0
C73 C 0.84038 0.18167 0.43245 0.0
N74 N 0.8634 0.23451 0.29482 0.0
C75 C 0.95197 0.25859 0.23459 0.0
C76 C 0.92149 0.28126 0.22407 0.0
C77 C 0.8778 0.26878 0.25433 0.0
C78 C 0.9359 0.22151 0.27446 0.0
C79 C 0.89115 0.20956 0.30366 0.0
N80 N 0.75355 0.21944 0.39222 0.0
C81 C 0.73047 0.24 0.47477 0.0
C82 C 0.67722 0.21068 0.46314 0.0
C83 C 0.66303 0.18552 0.41519 0.0
C84 C 0.70148 0.18899 0.38126 0.0
C85 C 0.76764 0.24515 0.4385 0.0
H86 H 0.68853 0.16675 0.34638 0.0
H87 H 0.80777 0.26941 0.44892 0.0
H88 H 0.85694 0.28837 0.24537 0.0
H89 H 0.87998 0.18122 0.33434 0.0
C90 C 0.72435 0.1394 0.26304 0.0
C91 C 0.79731 0.12815 0.42502 0.0
C92 C 0.8009 0.32497 0.2727 0.0
C93 C 0.90388 0.31463 0.41218 0.0
H94 H 0.73239 0.02801 0.37724 0.0
H95 H 0.69588 0.03445 0.2857 0.0
H96 H 0.66549 0.17419 0.20416 0.0
H97 H 0.70057 0.27496 0.21956 0.0
H98 H 0.85293 0.42019 0.33416 0.0
H99 H 0.91663 0.41711 0.40475 0.0
H100 H 0.94161 0.27439 0.49137 0.0
H101 H 0.87926 0.17185 0.50117 0.0
H102 H 0.93226 0.30976 0.19335 0.0
H103 H 0.95825 0.20272 0.28357 0.0
H104 H 0.74344 0.25979 0.5115 0.0
H105 H 0.62233 0.1624 0.40437 0.0
C106 C 0.65743 0.76986 0.71201 0.0
C107 C 0.68 0.74092 0.69641 0.0
C108 C 0.66549 0.72735 0.64605 0.0
C109 C 0.63476 0.7484 0.63387 0.0
N110 N 0.62917 0.77456 0.67328 0.0
Co111 Co 0.58593 0.80859 0.67298 0.0
N112 N 0.54506 0.76763 0.61178 0.0
C113 C 0.55919 0.74109 0.57981 0.0
C114 C 0.52655 0.71985 0.53835 0.0
C115 C 0.48995 0.73464 0.54371 0.0
C116 C 0.50207 0.76406 0.58864 0.0
N117 N 0.54348 0.84364 0.6723 0.0
C118 C 0.49935 0.83226 0.64573 0.0
C119 C 0.48228 0.8667 0.65851 0.0
C120 C 0.51822 0.90216 0.69214 0.0
C121 C 0.55477 0.88714 0.69878 0.0
N122 N 0.62646 0.84818 0.73457 0.0
C123 C 0.62951 0.89184 0.75326 0.0
C124 C 0.65886 0.90896 0.79765 0.0
C125 C 0.67505 0.87368 0.80749 0.0
C126 C 0.65454 0.83693 0.76851 0.0
N127 N 0.637 0.86425 0.62675 0.0
C128 C 0.70461 0.95213 0.56682 0.0
C129 C 0.65226 0.92084 0.55343 0.0
C130 C 0.61954 0.87748 0.58349 0.0
C131 C 0.72343 0.93729 0.60966 0.0
C132 C 0.68904 0.89288 0.63885 0.0
N133 N 0.53525 0.75425 0.71983 0.0
C134 C 0.4846 0.73196 0.79826 0.0
C135 C 0.4776 0.68125 0.79908 0.0
C136 C 0.4921 0.66619 0.75296 0.0
C137 C 0.52159 0.70314 0.71471 0.0
C138 C 0.51483 0.76788 0.76003 0.0
H139 H 0.5342 0.69054 0.6815 0.0
H140 H 0.52254 0.80718 0.76408 0.0
H141 H 0.57963 0.85571 0.57211 0.0
H142 H 0.70427 0.8826 0.67197 0.0
C143 C 0.60195 0.73497 0.59106 0.0
C144 C 0.66418 0.7931 0.76333 0.0
C145 C 0.47699 0.79449 0.60299 0.0
C146 C 0.59606 0.90867 0.73437 0.0
H147 H 0.70367 0.7299 0.71911 0.0
H148 H 0.67366 0.70233 0.62232 0.0
H149 H 0.52946 0.697 0.50742 0.0
H150 H 0.45948 0.72666 0.51603 0.0
H151 H 0.44849 0.86736 0.64353 0.0
H152 H 0.51729 0.93454 0.7102 0.0
H153 H 0.66539 0.94154 0.82157 0.0
H154 H 0.69877 0.87453 0.83974 0.0
H155 H 0.63622 0.93076 0.52051 0.0
H156 H 0.76392 0.96045 0.62113 0.0
H157 H 0.46745 0.74516 0.8268 0.0
H158 H 0.48109 0.62618 0.74549 0.0
C159 C 0.8926 0.66893 0.04329 0.0
C160 C 0.94388 0.69337 0.02623 0.0
C161 C 0.94282 0.6751 0.97757 0.0
C162 C 0.89123 0.6404 0.9676 0.0
N163 N 0.8595 0.63626 1.0068 0.0
Co164 Co 0.78267 0.58753 0.01042 0.0
N165 N 0.78391 0.5464 0.95016 0.0
C166 C 0.82618 0.55577 0.92263 0.0
C167 C 0.81813 0.5141 0.89298 0.0
C168 C 0.76686 0.47704 0.90066 0.0
C169 C 0.74593 0.49952 0.93239 0.0
N170 N 0.70557 0.5388 0.01354 0.0
C171 C 0.67476 0.49453 0.98631 0.0
C172 C 0.62521 0.46745 1.0077 0.0
C173 C 0.62316 0.49889 0.04519 0.0
C174 C 0.67218 0.54207 0.04639 0.0
N175 N 0.7818 0.62787 0.07144 0.0
C176 C 0.73927 0.62478 0.09356 0.0
C177 C 0.75108 0.65616 0.13624 0.0
C178 C 0.80425 0.68007 0.14162 0.0
C179 C 0.82185 0.66172 0.10193 0.0
N180 N 0.77107 0.63434 0.96418 0.0
C181 C 0.74525 0.69838 0.90489 0.0
C182 C 0.72429 0.64566 0.89327 0.0
C183 C 0.73775 0.61468 0.92298 0.0
C184 C 0.78102 0.71912 0.94576 0.0
C185 C 0.79375 0.6866 0.97456 0.0
N186 N 0.7941 0.54112 0.05745 0.0
C187 C 0.77042 0.48662 0.1339 0.0
C188 C 0.80937 0.4744 0.124 0.0
C189 C 0.84111 0.49673 0.08074 0.0
C190 C 0.83303 0.52998 0.04824 0.0
C191 C 0.7636 0.52006 0.10045 0.0
H192 H 0.85856 0.54641 0.01576 0.0
H193 H 0.73365 0.5288 0.10999 0.0
H194 H 0.72019 0.57465 0.91263 0.0
H195 H 0.82123 0.7037 1.00585 0.0
C196 C 0.87385 0.60158 0.92995 0.0
C197 C 0.87669 0.67641 0.09469 0.0
C198 C 0.68973 0.48188 0.93626 0.0
C199 C 0.68949 0.58406 0.08058 0.0
H200 H 0.97871 0.71996 0.0473 0.0
H201 H 0.97618 0.68273 0.95422 0.0
H202 H 0.84618 0.51086 0.86894 0.0
H203 H 0.74629 0.43954 0.88174 0.0
H204 H 0.59299 0.43034 0.99543 0.0
H205 H 0.58995 0.49103 0.06888 0.0
H206 H 0.72402 0.65871 0.16239 0.0
H207 H 0.82732 0.70668 0.17203 0.0
H208 H 0.69685 0.6282 0.86172 0.0
H209 H 0.79847 0.75994 0.95573 0.0
H210 H 0.74512 0.47011 0.16711 0.0
H211 H 0.87171 0.48813 0.07185 0.0
C212 C 0.23984 0.89324 0.37764 0.0
C213 C 0.27037 0.94514 0.36343 0.0
C214 C 0.28486 0.94541 0.31319 0.0
C215 C 0.26245 0.89384 0.29964 0.0
N216 N 0.23457 0.86115 0.3381 0.0
Co217 Co 0.19719 0.78379 0.3357 0.0
N218 N 0.23783 0.784 0.27434 0.0
C219 C 0.2679 0.82567 0.24428 0.0
C220 C 0.29471 0.81564 0.20734 0.0
C221 C 0.27985 0.76422 0.21368 0.0
C222 C 0.24366 0.74521 0.25361 0.0
N223 N 0.15942 0.70624 0.33312 0.0
C224 C 0.16794 0.67322 0.30368 0.0
C225 C 0.12802 0.62207 0.3104 0.0
C226 C 0.09342 0.62321 0.34468 0.0
C227 C 0.11372 0.6748 0.35694 0.0
N228 N 0.15733 0.78465 0.39698 0.0
C229 C 0.1118 0.74476 0.41368 0.0
C230 C 0.0946 0.75651 0.45816 0.0
C231 C 0.13177 0.80696 0.46999 0.0
C232 C 0.16959 0.82311 0.43198 0.0
N233 N 0.14317 0.78306 0.28996 0.0
C234 C 0.05402 0.7638 0.2331 0.0
C235 C 0.07168 0.79906 0.27453 0.0
C236 C 0.11685 0.80869 0.3021 0.0
C237 C 0.08341 0.74091 0.21928 0.0
C238 C 0.1272 0.75082 0.24813 0.0
N239 N 0.24972 0.78304 0.38201 0.0
C240 C 0.26995 0.7564 0.46293 0.0
C241 C 0.32356 0.78522 0.45255 0.0
C242 C 0.33911 0.81141 0.40487 0.0
C243 C 0.30189 0.81135 0.37113 0.0
C244 C 0.23392 0.75427 0.42659 0.0
H245 H 0.31553 0.8346 0.33652 0.0
H246 H 0.19315 0.73017 0.43544 0.0
H247 H 0.12911 0.83504 0.33451 0.0
H248 H 0.14635 0.72986 0.23829 0.0
C249 C 0.27606 0.87505 0.25663 0.0
C250 C 0.21539 0.87573 0.42837 0.0
C251 C 0.2099 0.68918 0.26487 0.0
C252 C 0.09283 0.6949 0.39273 0.0
H253 H 0.28156 0.97915 0.38711 0.0
H254 H 0.3112 0.97912 0.29041 0.0
H255 H 0.32281 0.8428 0.17994 0.0
H256 H 0.29296 0.74285 0.1903 0.0
H257 H 0.12344 0.58762 0.29132 0.0
H258 H 0.05761 0.59031 0.35876 0.0
H259 H 0.06057 0.73072 0.48078 0.0
H260 H 0.13131 0.82922 0.50277 0.0
H261 H 0.05001 0.81775 0.28634 0.0
H262 H 0.07113 0.71341 0.18766 0.0
H263 H 0.25581 0.73538 0.49902 0.0
H264 H 0.38003 0.83354 0.39463 0.0
C265 C 0.33968 0.22375 0.71991 0.0
C266 C 0.31607 0.25163 0.70352 0.0
C267 C 0.33456 0.26963 0.65516 0.0
C268 C 0.36844 0.25206 0.64482 0.0
N269 N 0.37201 0.22306 0.68326 0.0
Co270 Co 0.41969 0.19334 0.6858 0.0
N271 N 0.45653 0.2311 0.62092 0.0
C272 C 0.44598 0.26294 0.59218 0.0
C273 C 0.47549 0.28124 0.54835 0.0
C274 C 0.50686 0.25986 0.54895 0.0
C275 C 0.49492 0.22983 0.59359 0.0
N276 N 0.46654 0.16265 0.68783 0.0
C277 C 0.50519 0.16897 0.65521 0.0
C278 C 0.52781 0.14005 0.67121 0.0
C279 C 0.50176 0.11358 0.71456 0.0
C280 C 0.46506 0.12798 0.72287 0.0
N281 N 0.384 0.15739 0.75178 0.0
C282 C 0.39316 0.12445 0.78016 0.0
C283 C 0.36493 0.10836 0.82508 0.0
C284 C 0.33711 0.13373 0.82617 0.0
C285 C 0.35007 0.16382 0.78169 0.0
N286 N 0.36843 0.1317 0.64375 0.0
C287 C 0.30834 0.04413 0.57928 0.0
C288 C 0.31767 0.03784 0.63096 0.0
C289 C 0.3478 0.08158 0.66201 0.0
C290 C 0.32691 0.09491 0.5613 0.0
C291 C 0.35568 0.13759 0.59407 0.0
N292 N 0.4709 0.2542 0.72742 0.0
C293 C 0.53068 0.28927 0.79986 0.0
C294 C 0.54104 0.33965 0.78875 0.0
C295 C 0.51614 0.34679 0.74619 0.0
C296 C 0.48141 0.30383 0.71626 0.0
C297 C 0.49584 0.24744 0.76894 0.0
H298 H 0.46328 0.31149 0.68432 0.0
H299 H 0.48942 0.20985 0.77948 0.0
H300 H 0.35459 0.07343 0.7003 0.0
H301 H 0.36788 0.17492 0.57772 0.0
C302 C 0.40413 0.27005 0.60429 0.0
C303 C 0.3328 0.20137 0.77165 0.0
C304 C 0.52042 0.20008 0.60762 0.0
C305 C 0.43054 0.11172 0.76463 0.0
H306 H 0.28988 0.26002 0.72495 0.0
H307 H 0.32693 0.29546 0.6318 0.0
H308 H 0.47309 0.30561 0.5185 0.0
H309 H 0.53451 0.26497 0.51912 0.0
H310 H 0.55949 0.13782 0.65308 0.0
H311 H 0.50892 0.08717 0.73746 0.0
H312 H 0.36595 0.08281 0.85444 0.0
H313 H 0.31169 0.13192 0.85703 0.0
H314 H 0.30333 0.99915 0.64685 0.0
H315 H 0.31985 0.10171 0.52174 0.0
H316 H 0.54953 0.28223 0.83228 0.0
H317 H 0.52352 0.3854 0.73609 0.0
C318 C 0.23471 0.22491 0.84516 0.0
C319 C 0.26755 0.26156 0.88267 0.0
C320 C 0.34126 0.25164 0.85361 0.0
C321 C 0.30917 0.21779 0.81379 0.0
N322 N 0.22281 0.15974 0.78162 0.0
N323 N 0.34959 0.30582 0.9277 0.0
C324 C 0.25494 0.20036 0.81294 0.0
C325 C 0.31991 0.27281 0.88903 0.0
N326 N 0.18512 0.21597 0.83826 0.0
N327 N 0.39203 0.26324 0.85747 0.0
H328 H 0.33408 0.31935 0.95574 0.0
H329 H 0.38929 0.32017 0.93272 0.0
H330 H 0.41009 0.252 0.83007 0.0
H331 H 0.41633 0.2824 0.88851 0.0
H332 H 0.16131 0.19492 0.80745 0.0
H333 H 0.16859 0.23223 0.86189 0.0
H334 H 0.18229 0.14161 0.78255 0.0
H335 H 0.2366 0.14105 0.75771 0.0
C336 C 0.04346 0.32837 0.21152 0.0
C337 C 1.00166 0.27643 0.20498 0.0
C338 C 0.05171 0.26354 0.13662 0.0
C339 C 0.08936 0.31755 0.13787 0.0
N340 N 0.12002 0.4025 0.17452 0.0
N341 N 0.96387 0.19532 0.15835 0.0
C342 C 0.08518 0.35018 0.17513 0.0
C343 C 1.00548 0.24393 0.16713 0.0
N344 N 0.04375 0.3565 0.25333 0.0
N345 N 0.06027 0.23106 0.10616 0.0
H346 H 0.92957 0.17956 0.17988 0.0
H347 H 0.96179 0.17205 0.12741 0.0
H348 H 0.09336 0.2444 0.08303 0.0
H349 H 0.03709 0.19062 0.10712 0.0
H350 H 0.07534 0.39264 0.26318 0.0
H351 H 0.01426 0.34149 0.28108 0.0
H352 H 0.11509 0.42945 0.19577 0.0
H353 H 0.15236 0.41945 0.15016 0.0
C354 C 0.74629 0.0846 0.50652 0.0
C355 C 0.78079 0.08736 0.46704 0.0
C356 C 0.77177 0.00438 0.49779 0.0
C357 C 0.73728 1.00175 0.53722 0.0
N358 N 0.70187 0.04505 0.58708 0.0
N359 N 0.83597 0.05686 0.43253 0.0
C360 C 0.728 0.04391 0.54414 0.0
C361 C 0.79676 0.04949 0.46528 0.0
N362 N 0.72912 0.11958 0.50671 0.0
N363 N 0.77872 0.96273 0.48985 0.0
H364 H 0.85454 0.08917 0.4081 0.0
H365 H 0.85302 0.03353 0.43258 0.0
H366 H 0.76211 0.92982 0.5136 0.0
H367 H 0.79828 0.95937 0.4581 0.0
H368 H 0.69975 0.1167 0.53083 0.0
H369 H 0.742 0.14994 0.48014 0.0
H370 H 0.69798 0.07685 0.59729 0.0
H371 H 0.68814 0.01592 0.61529 0.0
C372 C 0.76067 0.76632 0.83657 0.0
C373 C 0.72782 0.73039 0.87481 0.0
C374 C 0.65508 0.74202 0.84527 0.0
C375 C 0.6877 0.77716 0.80648 0.0
N376 N 0.77432 0.83351 0.77411 0.0
N377 N 0.64804 0.69343 0.92367 0.0
C378 C 0.74155 0.79296 0.8053 0.0
C379 C 0.6763 0.7213 0.88169 0.0
N380 N 0.80915 0.77292 0.82819 0.0
N381 N 0.60337 0.72722 0.84619 0.0
H382 H 0.66262 0.67814 0.9511 0.0
H383 H 0.61215 0.68914 0.9339 0.0
H384 H 0.58743 0.74366 0.82184 0.0
H385 H 0.57585 0.69735 0.86932 0.0
H386 H 0.83262 0.79369 0.79704 0.0
H387 H 0.82468 0.75457 0.85047 0.0
H388 H 0.81474 0.85038 0.7748 0.0
H389 H 0.76127 0.8534 0.7507 0.0
C390 C 0.95441 0.75612 0.1336 0.0
C391 C 0.91667 0.70225 0.1371 0.0
C392 C 0.96094 0.695 0.21482 0.0
C393 C 1.00304 0.7465 0.20597 0.0
N394 N 0.04085 0.82624 0.15677 0.0
N395 N 0.87719 0.62281 0.18678 0.0
C396 C 0.99957 0.77748 0.16591 0.0
C397 C 0.91775 0.67247 0.17976 0.0
N398 N 0.94642 0.78692 0.09974 0.0
N399 N 0.96387 0.66711 0.25564 0.0
H400 H 0.84676 0.60416 0.16044 0.0
H401 H 0.87181 0.60037 0.21956 0.0
H402 H 0.9933 0.68366 0.28343 0.0
H403 H 0.93797 0.62783 0.26247 0.0
H404 H 0.96957 0.82734 0.09839 0.0
H405 H 0.91359 0.77233 0.07597 0.0
H406 H 0.04384 0.84842 0.12433 0.0
H407 H 0.07384 0.84359 0.18034 0.0
C408 C 0.30359 0.96625 0.53389 0.0
C409 C 0.28121 0.99805 0.54372 0.0
C410 C 0.21236 0.9472 0.47982 0.0
C411 C 0.23331 0.91383 0.47253 0.0
N412 N 0.28987 0.88331 0.50331 0.0
N413 N 0.20738 0.01094 0.53448 0.0
C414 C 0.27599 0.92074 0.50309 0.0
C415 C 0.23346 0.98619 0.51913 0.0
N416 N 0.35274 0.98104 0.55111 0.0
N417 N 0.17323 0.94257 0.44828 0.0
H418 H 0.22094 0.03863 0.56387 0.0
H419 H 0.17007 1.00054 0.52162 0.0
H420 H 0.15579 0.91346 0.42042 0.0
H421 H 0.16045 0.96951 0.44749 0.0
H422 H 0.37281 0.96202 0.54044 0.0
H423 H 0.37568 0.01532 0.57161 0.0
H424 H 0.31597 0.88282 0.53005 0.0
H425 H 0.27089 0.84995 0.48067 0.0
C426 C 0.20346 0.64973 0.17563 0.0
C427 C 0.21138 0.649 0.22984 0.0
C428 C 0.21951 0.57107 0.21725 0.0
C429 C 0.2198 0.57741 0.16265 0.0
N430 N 0.22817 0.6344 0.09181 0.0
N431 N 0.23675 0.61338 0.30073 0.0
C432 C 0.21642 0.6201 0.14238 0.0
C433 C 0.22239 0.61095 0.25023 0.0
N434 N 0.1828 0.67794 0.15538 0.0
N435 N 0.21426 0.52624 0.23791 0.0
H436 H 0.23979 0.64215 0.32591 0.0
H437 H 0.25012 0.58969 0.3162 0.0
H438 H 0.21003 0.49529 0.21545 0.0
H439 H 0.20868 0.5177 0.27724 0.0
H440 H 0.1719 0.67546 0.11672 0.0
H441 H 0.17181 0.69958 0.17793 0.0
H442 H 0.23069 0.66825 0.07668 0.0
H443 H 0.24162 0.6163 0.06674 0.0
C444 C 0.55289 0.15631 0.5455 0.0
C445 C 0.56173 0.2015 0.57272 0.0
C446 C 0.64188 0.25329 0.523 0.0
C447 C 0.63698 0.20717 0.50084 0.0
N448 N 0.59319 0.11285 0.50331 0.0
N449 N 0.62203 0.29059 0.59634 0.0
C450 C 0.59397 0.15799 0.51558 0.0
C451 C 0.60884 0.24915 0.56457 0.0
N452 N 0.50501 0.11213 0.54698 0.0
N453 N 0.67568 0.30108 0.50248 0.0
H454 H 0.59898 0.28876 0.62756 0.0
H455 H 0.65817 0.32477 0.59456 0.0
H456 H 0.69745 0.30589 0.46926 0.0
H457 H 0.67721 0.33526 0.51474 0.0
H458 H 0.49529 0.07983 0.52384 0.0
H459 H 0.47363 0.10958 0.56764 0.0
H460 H 0.56493 0.07652 0.51731 0.0
H461 H 0.62373 0.11217 0.48417 0.0
C462 C 0.44462 0.59275 0.84581 0.0
C463 C 0.45161 0.64375 0.8449 0.0
C464 C 0.39161 0.61938 0.91884 0.0
C465 C 0.37524 0.56603 0.91097 0.0
N466 N 0.38883 0.50191 0.86696 0.0
N467 N 0.46468 0.70653 0.91056 0.0
C468 C 0.40264 0.5527 0.87459 0.0
C469 C 0.43434 0.65824 0.88983 0.0
N470 N 0.4831 0.5847 0.82736 0.0
N471 N 0.36683 0.63336 0.95422 0.0
H472 H 0.50222 0.73178 0.89674 0.0
H473 H 0.45644 0.71779 0.94573 0.0
H474 H 0.33679 0.60639 0.97777 0.0
H475 H 0.37417 0.67151 0.95749 0.0
H476 H 0.48262 0.54946 0.83134 0.0
H477 H 0.51913 0.61563 0.81569 0.0
H478 H 0.40327 0.49 0.83647 0.0
H479 H 0.36123 0.47159 0.88942 0.0
C480 C 0.85316 0.45331 0.19711 0.0
C481 C 0.81515 0.43617 0.15713 0.0
C482 C 0.79298 0.3466 0.17686 0.0
C483 C 0.81687 0.36278 0.22605 0.0
N484 N 0.90441 0.42749 0.24867 0.0
N485 N 0.75174 0.36447 0.10538 0.0
C486 C 0.85749 0.41558 0.22775 0.0
C487 C 0.78597 0.38217 0.14574 0.0
N488 N 0.88541 0.50521 0.20569 0.0
N489 N 0.78616 0.3015 0.15594 0.0
H490 H 0.74654 0.38929 0.08051 0.0
H491 H 0.7265 0.32481 0.09895 0.0
H492 H 0.79943 0.27909 0.17467 0.0
H493 H 0.77362 0.29034 0.11806 0.0
H494 H 0.91017 0.51921 0.23762 0.0
H495 H 0.88545 0.53382 0.18213 0.0
H496 H 0.93728 0.46461 0.24659 0.0
H497 H 0.91174 0.39828 0.26138 0.0
C498 C 0.35655 0.7424 0.51617 0.0
C499 C 0.36279 0.78837 0.49183 0.0
C500 C 0.44623 0.83878 0.53771 0.0
C501 C 0.43613 0.79402 0.56726 0.0
N502 N 0.37412 0.70572 0.59212 0.0
N503 N 0.40825 0.88287 0.49222 0.0
C504 C 0.38856 0.74677 0.55917 0.0
C505 C 0.40604 0.83735 0.50634 0.0
N506 N 0.32261 0.69444 0.49638 0.0
N507 N 0.49454 0.88234 0.53769 0.0
H508 H 0.37906 0.88434 0.47115 0.0
H509 H 0.43642 0.91905 0.50648 0.0
H510 H 0.52553 0.88579 0.55954 0.0
H511 H 0.50493 0.9134 0.51229 0.0
H512 H 0.32009 0.66019 0.51025 0.0
H513 H 0.30182 0.68941 0.46229 0.0
H514 H 0.33769 0.6719 0.59033 0.0
H515 H 0.3965 0.70765 0.62412 0.0
C516 C 0.56187 0.40593 0.85994 0.0
C517 C 0.5792 0.3849 0.82056 0.0
C518 C 0.66875 0.45254 0.84034 0.0
C519 C 0.65232 0.45995 0.88938 0.0
N520 N 0.58741 0.48215 0.91247 0.0
N521 N 0.65123 0.3936 0.76923 0.0
C522 C 0.59951 0.44776 0.89075 0.0
C523 C 0.63332 0.40986 0.80939 0.0
N524 N 0.50989 0.38639 0.86805 0.0
N525 N 0.71332 0.49159 0.81897 0.0
H526 H 0.62648 0.3637 0.74435 0.0
H527 H 0.69098 0.40836 0.76288 0.0
H528 H 0.73486 0.52762 0.83722 0.0
H529 H 0.72456 0.49035 0.78113 0.0
H530 H 0.49558 0.39689 0.89976 0.0
H531 H 0.48143 0.35822 0.84418 0.0
H532 H 0.55038 0.47802 0.91027 0.0
H533 H 0.61645 0.51819 0.92635 0.0
loop_
_geom_bond_atom_site_label_1
_geom_bond_atom_site_label_2
_geom_bond_distance
_geom_bond_site_symmetry_2
_ccdc_geom_bond_type
C0 C1 1.443 . S
C0 N4 1.376 . S
C0 C38 1.389 . S
C1 C0 1.443 . S
C1 C2 1.340 1_554 S
C1 H41 0.951 . S
C2 C1 1.340 1_556 S
C2 C3 1.439 . S
C2 H42 0.950 . S
C3 C2 1.439 . S
C3 N4 1.374 1_556 S
C3 C37 1.395 . S
N4 C0 1.376 . S
N4 C3 1.374 1_554 S
N4 Co5 2.008 . S
Co5 N4 2.008 . S
Co5 N6 1.995 1_554 S
Co5 N11 2.008 . S
Co5 N16 1.995 . S
Co5 N21 2.282 1_554 S
Co5 N27 2.282 . S
N6 Co5 1.995 1_556 S
N6 C7 1.376 . S
N6 C10 1.383 . S
C7 N6 1.376 . S
C7 C8 1.446 . S
C7 C37 1.391 . S
C8 C7 1.446 . S
C8 C9 1.339 . S
C8 H43 0.949 . S
C9 C8 1.339 . S
C9 C10 1.439 . S
C9 H44 0.950 . S
C10 N6 1.383 . S
C10 C9 1.439 . S
C10 C39 1.392 . S
N11 Co5 2.008 . S
N11 C12 1.376 1_554 S
N11 C15 1.374 . S
C12 N11 1.376 1_556 S
C12 C13 1.443 . S
C12 C39 1.389 . S
C13 C12 1.443 . S
C13 C14 1.340 1_556 S
C13 H45 0.951 . S
C14 C13 1.340 1_554 S
C14 C15 1.439 . S
C14 H46 0.950 . S
C15 N11 1.374 . S
C15 C14 1.439 . S
C15 C40 1.395 . S
N16 Co5 1.995 . S
N16 C17 1.376 . S
N16 C20 1.383 . S
C17 N16 1.376 . S
C17 C18 1.446 . S
C17 C40 1.391 . S
C18 C17 1.446 . S
C18 C19 1.339 . S
C18 H47 0.949 . S
C19 C18 1.339 . S
C19 C20 1.439 . S
C19 H48 0.950 . S
C20 N16 1.383 . S
C20 C19 1.439 . S
C20 C38 1.392 . S
N21 Co5 2.282 1_556 S
N21 C24 1.332 . S
N21 C26 1.332 . S
C22 C23 1.386 . S
C22 C25 1.388 . S
C23 C22 1.386 . S
C23 C24 1.382 . S
C23 H49 0.950 . S
C24 N21 1.332 . S
C24 C23 1.382 . S
C24 H35 0.952 1_556 S
C25 C22 1.388 . S
C25 C26 1.382 . S
C25 H50 0.950 . S
C26 N21 1.332 . S
C26 C25 1.382 . S
C26 H36 0.948 . S
N27 Co5 2.282 . S
N27 C31 1.332 . S
N27 C32 1.332 . S
C28 C29 1.388 . S
C28 C32 1.382 . S
C28 H51 0.950 . S
C29 C28 1.388 . S
C29 C30 1.386 . S
C30 C29 1.386 . S
C30 C31 1.382 . S
C30 H52 0.950 . S
C31 N27 1.332 . S
C31 C30 1.382 . S
C31 H33 0.952 . S
C32 N27 1.332 . S
C32 C28 1.382 . S
C32 H34 0.948 . S
H33 C31 0.952 . S
H34 C32 0.948 . S
H35 C24 0.952 1_554 S
H36 C26 0.948 . S
C37 C3 1.395 . S
C37 C7 1.391 . S
C38 C0 1.389 . S
C38 C20 1.392 . S
C39 C10 1.392 . S
C39 C12 1.389 . S
C40 C15 1.395 . S
C40 C17 1.391 . S
H41 C1 0.951 . S
H42 C2 0.950 . S
H43 C8 0.949 . S
H44 C9 0.950 . S
H45 C13 0.951 . S
H46 C14 0.950 . S
H47 C18 0.949 . S
H48 C19 0.950 . S
H49 C23 0.950 . S
H50 C25 0.950 . S
H51 C28 0.950 . S
H52 C30 0.950 . S
C53 C54 1.443 . S
C53 N57 1.376 . S
C53 C91 1.389 . S
C54 C53 1.443 . S
C54 C55 1.340 . S
C54 H94 0.951 . S
C55 C54 1.340 . S
C55 C56 1.439 . S
C55 H95 0.950 . S
C56 C55 1.439 . S
C56 N57 1.374 . S
C56 C90 1.395 . S
N57 C53 1.376 . S
N57 C56 1.374 . S
N57 Co58 2.008 . S
Co58 N57 2.008 . S
Co58 N59 1.995 . S
Co58 N64 2.008 . S
Co58 N69 1.995 . S
Co58 N74 2.282 . S
Co58 N80 2.282 . S
N59 Co58 1.995 . S
N59 C60 1.376 . S
N59 C63 1.383 . S
C60 N59 1.376 . S
C60 C61 1.446 . S
C60 C90 1.391 . S
C61 C60 1.446 . S
C61 C62 1.339 . S
C61 H96 0.949 . S
C62 C61 1.339 . S
C62 C63 1.439 . S
C62 H97 0.950 . S
C63 N59 1.383 . S
C63 C62 1.439 . S
C63 C92 1.392 . S
N64 Co58 2.008 . S
N64 C65 1.376 . S
N64 C68 1.374 . S
C65 N64 1.376 . S
C65 C66 1.443 . S
C65 C92 1.389 . S
C66 C65 1.443 . S
C66 C67 1.340 . S
C66 H98 0.951 . S
C67 C66 1.340 . S
C67 C68 1.439 . S
C67 H99 0.950 . S
C68 N64 1.374 . S
C68 C67 1.439 . S
C68 C93 1.395 . S
N69 Co58 1.995 . S
N69 C70 1.376 . S
N69 C73 1.383 . S
C70 N69 1.376 . S
C70 C71 1.446 . S
C70 C93 1.391 . S
C71 C70 1.446 . S
C71 C72 1.339 . S
C71 H100 0.949 . S
C72 C71 1.339 . S
C72 C73 1.439 . S
C72 H101 0.950 . S
C73 N69 1.383 . S
C73 C72 1.439 . S
C73 C91 1.392 . S
N74 Co58 2.282 . S
N74 C77 1.332 . S
N74 C79 1.332 . S
C75 C76 1.386 . S
C75 C78 1.388 . S
C76 C75 1.386 . S
C76 C77 1.382 . S
C76 H102 0.950 . S
C77 N74 1.332 . S
C77 C76 1.382 . S
C77 H88 0.952 . S
C78 C75 1.388 . S
C78 C79 1.382 . S
C78 H103 0.950 . S
C79 N74 1.332 . S
C79 C78 1.382 . S
C79 H89 0.948 . S
N80 Co58 2.282 . S
N80 C84 1.332 . S
N80 C85 1.332 . S
C81 C82 1.388 . S
C81 C85 1.382 . S
C81 H104 0.950 . S
C82 C81 1.388 . S
C82 C83 1.386 . S
C83 C82 1.386 . S
C83 C84 1.382 . S
C83 H105 0.950 . S
C84 N80 1.332 . S
C84 C83 1.382 . S
C84 H86 0.952 . S
C85 N80 1.332 . S
C85 C81 1.382 . S
C85 H87 0.948 . S
H86 C84 0.952 . S
H87 C85 0.948 . S
H88 C77 0.952 . S
H89 C79 0.948 . S
C90 C56 1.395 . S
C90 C60 1.391 . S
C91 C53 1.389 . S
C91 C73 1.392 . S
C92 C63 1.392 . S
C92 C65 1.389 . S
C93 C68 1.395 . S
C93 C70 1.391 . S
H94 C54 0.951 . S
H95 C55 0.950 . S
H96 C61 0.949 . S
H97 C62 0.950 . S
H98 C66 0.951 . S
H99 C67 0.950 . S
H100 C71 0.949 . S
H101 C72 0.950 . S
H102 C76 0.950 . S
H103 C78 0.950 . S
H104 C81 0.950 . S
H105 C83 0.950 . S
C106 C107 1.443 . S
C106 N110 1.376 . S
C106 C144 1.389 . S
C107 C106 1.443 . S
C107 C108 1.340 . S
C107 H147 0.951 . S
C108 C107 1.340 . S
C108 C109 1.439 . S
C108 H148 0.950 . S
C109 C108 1.439 . S
C109 N110 1.374 . S
C109 C143 1.395 . S
N110 C106 1.376 . S
N110 C109 1.374 . S
N110 Co111 2.008 . S
Co111 N110 2.008 . S
Co111 N112 1.995 . S
Co111 N117 2.008 . S
Co111 N122 1.995 . S
Co111 N127 2.282 . S
Co111 N133 2.282 . S
N112 Co111 1.995 . S
N112 C113 1.376 . S
N112 C116 1.383 . S
C113 N112 1.376 . S
C113 C114 1.446 . S
C113 C143 1.391 . S
C114 C113 1.446 . S
C114 C115 1.339 . S
C114 H149 0.949 . S
C115 C114 1.339 . S
C115 C116 1.439 . S
C115 H150 0.950 . S
C116 N112 1.383 . S
C116 C115 1.439 . S
C116 C145 1.392 . S
N117 Co111 2.008 . S
N117 C118 1.376 . S
N117 C121 1.374 . S
C118 N117 1.376 . S
C118 C119 1.443 . S
C118 C145 1.389 . S
C119 C118 1.443 . S
C119 C120 1.340 . S
C119 H151 0.951 . S
C120 C119 1.340 . S
C120 C121 1.439 . S
C120 H152 0.950 . S
C121 N117 1.374 . S
C121 C120 1.439 . S
C121 C146 1.395 . S
N122 Co111 1.995 . S
N122 C123 1.376 . S
N122 C126 1.383 . S
C123 N122 1.376 . S
C123 C124 1.446 . S
C123 C146 1.391 . S
C124 C123 1.446 . S
C124 C125 1.339 . S
C124 H153 0.949 . S
C125 C124 1.339 . S
C125 C126 1.439 . S
C125 H154 0.950 . S
C126 N122 1.383 . S
C126 C125 1.439 . S
C126 C144 1.392 . S
N127 Co111 2.282 . S
N127 C130 1.332 . S
N127 C132 1.332 . S
C128 C129 1.386 . S
C128 C131 1.388 . S
C129 C128 1.386 . S
C129 C130 1.382 . S
C129 H155 0.950 . S
C130 N127 1.332 . S
C130 C129 1.382 . S
C130 H141 0.952 . S
C131 C128 1.388 . S
C131 C132 1.382 . S
C131 H156 0.950 . S
C132 N127 1.332 . S
C132 C131 1.382 . S
C132 H142 0.948 . S
N133 Co111 2.282 . S
N133 C137 1.332 . S
N133 C138 1.332 . S
C134 C135 1.388 . S
C134 C138 1.382 . S
C134 H157 0.950 . S
C135 C134 1.388 . S
C135 C136 1.386 . S
C136 C135 1.386 . S
C136 C137 1.382 . S
C136 H158 0.950 . S
C137 N133 1.332 . S
C137 C136 1.382 . S
C137 H139 0.952 . S
C138 N133 1.332 . S
C138 C134 1.382 . S
C138 H140 0.948 . S
H139 C137 0.952 . S
H140 C138 0.948 . S
H141 C130 0.952 . S
H142 C132 0.948 . S
C143 C109 1.395 . S
C143 C113 1.391 . S
C144 C106 1.389 . S
C144 C126 1.392 . S
C145 C116 1.392 . S
C145 C118 1.389 . S
C146 C121 1.395 . S
C146 C123 1.391 . S
H147 C107 0.951 . S
H148 C108 0.950 . S
H149 C114 0.949 . S
H150 C115 0.950 . S
H151 C119 0.951 . S
H152 C120 0.950 . S
H153 C124 0.949 . S
H154 C125 0.950 . S
H155 C129 0.950 . S
H156 C131 0.950 . S
H157 C134 0.950 . S
H158 C136 0.950 . S
C159 C160 1.443 . S
C159 N163 1.376 . S
C159 C197 1.389 . S
C160 C159 1.443 . S
C160 C161 1.340 1_554 S
C160 H200 0.951 . S
C161 C160 1.340 1_556 S
C161 C162 1.439 . S
C161 H201 0.950 . S
C162 C161 1.439 . S
C162 N163 1.374 1_556 S
C162 C196 1.395 . S
N163 C159 1.376 . S
N163 C162 1.374 1_554 S
N163 Co164 2.008 . S
Co164 N163 2.008 . S
Co164 N165 1.995 1_554 S
Co164 N170 2.008 . S
Co164 N175 1.995 . S
Co164 N180 2.282 1_554 S
Co164 N186 2.282 . S
N165 Co164 1.995 1_556 S
N165 C166 1.376 . S
N165 C169 1.383 . S
C166 N165 1.376 . S
C166 C167 1.446 . S
C166 C196 1.391 . S
C167 C166 1.446 . S
C167 C168 1.339 . S
C167 H202 0.949 . S
C168 C167 1.339 . S
C168 C169 1.439 . S
C168 H203 0.950 . S
C169 N165 1.383 . S
C169 C168 1.439 . S
C169 C198 1.392 . S
N170 Co164 2.008 . S
N170 C171 1.376 1_554 S
N170 C174 1.374 . S
C171 N170 1.376 1_556 S
C171 C172 1.443 . S
C171 C198 1.389 . S
C172 C171 1.443 . S
C172 C173 1.340 1_556 S
C172 H204 0.951 . S
C173 C172 1.340 1_554 S
C173 C174 1.439 . S
C173 H205 0.950 . S
C174 N170 1.374 . S
C174 C173 1.439 . S
C174 C199 1.395 . S
N175 Co164 1.995 . S
N175 C176 1.376 . S
N175 C179 1.383 . S
C176 N175 1.376 . S
C176 C177 1.446 . S
C176 C199 1.391 . S
C177 C176 1.446 . S
C177 C178 1.339 . S
C177 H206 0.949 . S
C178 C177 1.339 . S
C178 C179 1.439 . S
C178 H207 0.950 . S
C179 N175 1.383 . S
C179 C178 1.439 . S
C179 C197 1.392 . S
N180 Co164 2.282 1_556 S
N180 C183 1.332 . S
N180 C185 1.332 . S
C181 C182 1.386 . S
C181 C184 1.388 . S
C182 C181 1.386 . S
C182 C183 1.382 . S
C182 H208 0.950 . S
C183 N180 1.332 . S
C183 C182 1.382 . S
C183 H194 0.952 1_556 S
C184 C181 1.388 . S
C184 C185 1.382 . S
C184 H209 0.950 . S
C185 N180 1.332 . S
C185 C184 1.382 . S
C185 H195 0.948 . S
N186 Co164 2.282 . S
N186 C190 1.332 . S
N186 C191 1.332 . S
C187 C188 1.388 . S
C187 C191 1.382 . S
C187 H210 0.950 . S
C188 C187 1.388 . S
C188 C189 1.386 . S
C189 C188 1.386 . S
C189 C190 1.382 . S
C189 H211 0.950 . S
C190 N186 1.332 . S
C190 C189 1.382 . S
C190 H192 0.952 . S
C191 N186 1.332 . S
C191 C187 1.382 . S
C191 H193 0.948 . S
H192 C190 0.952 . S
H193 C191 0.948 . S
H194 C183 0.952 1_554 S
H195 C185 0.948 . S
C196 C162 1.395 . S
C196 C166 1.391 . S
C197 C159 1.389 . S
C197 C179 1.392 . S
C198 C169 1.392 . S
C198 C171 1.389 . S
C199 C174 1.395 . S
C199 C176 1.391 . S
H200 C160 0.951 . S
H201 C161 0.950 . S
H202 C167 0.949 . S
H203 C168 0.950 . S
H204 C172 0.951 . S
H205 C173 0.950 . S
H206 C177 0.949 . S
H207 C178 0.950 . S
H208 C182 0.950 . S
H209 C184 0.950 . S
H210 C187 0.950 . S
H211 C189 0.950 . S
C212 C213 1.443 . S
C212 N216 1.376 . S
C212 C250 1.389 . S
C213 C212 1.443 . S
C213 C214 1.340 . S
C213 H253 0.951 . S
C214 C213 1.340 . S
C214 C215 1.439 . S
C214 H254 0.950 . S
C215 C214 1.439 . S
C215 N216 1.374 . S
C215 C249 1.395 . S
N216 C212 1.376 . S
N216 C215 1.374 . S
N216 Co217 2.008 . S
Co217 N216 2.008 . S
Co217 N218 1.995 . S
Co217 N223 2.008 . S
Co217 N228 1.995 . S
Co217 N233 2.282 . S
Co217 N239 2.282 . S
N218 Co217 1.995 . S
N218 C219 1.376 . S
N218 C222 1.383 . S
C219 N218 1.376 . S
C219 C220 1.446 . S
C219 C249 1.391 . S
C220 C219 1.446 . S
C220 C221 1.339 . S
C220 H255 0.949 . S
C221 C220 1.339 . S
C221 C222 1.439 . S
C221 H256 0.950 . S
C222 N218 1.383 . S
C222 C221 1.439 . S
C222 C251 1.392 . S
N223 Co217 2.008 . S
N223 C224 1.376 . S
N223 C227 1.374 . S
C224 N223 1.376 . S
C224 C225 1.443 . S
C224 C251 1.389 . S
C225 C224 1.443 . S
C225 C226 1.340 . S
C225 H257 0.951 . S
C226 C225 1.340 . S
C226 C227 1.439 . S
C226 H258 0.950 . S
C227 N223 1.374 . S
C227 C226 1.439 . S
C227 C252 1.395 . S
N228 Co217 1.995 . S
N228 C229 1.376 . S
N228 C232 1.383 . S
C229 N228 1.376 . S
C229 C230 1.446 . S
C229 C252 1.391 . S
C230 C229 1.446 . S
C230 C231 1.339 . S
C230 H259 0.949 . S
C231 C230 1.339 . S
C231 C232 1.439 . S
C231 H260 0.950 . S
C232 N228 1.383 . S
C232 C231 1.439 . S
C232 C250 1.392 . S
N233 Co217 2.282 . S
N233 C236 1.332 . S
N233 C238 1.332 . S
C234 C235 1.386 . S
C234 C237 1.388 . S
C235 C234 1.386 . S
C235 C236 1.382 . S
C235 H261 0.950 . S
C236 N233 1.332 . S
C236 C235 1.382 . S
C236 H247 0.952 . S
C237 C234 1.388 . S
C237 C238 1.382 . S
C237 H262 0.950 . S
C238 N233 1.332 . S
C238 C237 1.382 . S
C238 H248 0.948 . S
N239 Co217 2.282 . S
N239 C243 1.332 . S
N239 C244 1.332 . S
C240 C241 1.388 . S
C240 C244 1.382 . S
C240 H263 0.950 . S
C241 C240 1.388 . S
C241 C242 1.386 . S
C242 C241 1.386 . S
C242 C243 1.382 . S
C242 H264 0.950 . S
C243 N239 1.332 . S
C243 C242 1.382 . S
C243 H245 0.952 . S
C244 N239 1.332 . S
C244 C240 1.382 . S
C244 H246 0.948 . S
H245 C243 0.952 . S
H246 C244 0.948 . S
H247 C236 0.952 . S
H248 C238 0.948 . S
C249 C215 1.395 . S
C249 C219 1.391 . S
C250 C212 1.389 . S
C250 C232 1.392 . S
C251 C222 1.392 . S
C251 C224 1.389 . S
C252 C227 1.395 . S
C252 C229 1.391 . S
H253 C213 0.951 . S
H254 C214 0.950 . S
H255 C220 0.949 . S
H256 C221 0.950 . S
H257 C225 0.951 . S
H258 C226 0.950 . S
H259 C230 0.949 . S
H260 C231 0.950 . S
H261 C235 0.950 . S
H262 C237 0.950 . S
H263 C240 0.950 . S
H264 C242 0.950 . S
C265 C266 1.443 . S
C265 N269 1.376 . S
C265 C303 1.389 . S
C266 C265 1.443 . S
C266 C267 1.340 . S
C266 H306 0.951 . S
C267 C266 1.340 . S
C267 C268 1.439 . S
C267 H307 0.950 . S
C268 C267 1.439 . S
C268 N269 1.374 . S
C268 C302 1.395 . S
N269 C265 1.376 . S
N269 C268 1.374 . S
N269 Co270 2.008 . S
Co270 N269 2.008 . S
Co270 N271 1.995 . S
Co270 N276 2.008 . S
Co270 N281 1.995 . S
Co270 N286 2.282 . S
Co270 N292 2.282 . S
N271 Co270 1.995 . S
N271 C272 1.376 . S
N271 C275 1.383 . S
C272 N271 1.376 . S
C272 C273 1.446 . S
C272 C302 1.391 . S
C273 C272 1.446 . S
C273 C274 1.339 . S
C273 H308 0.949 . S
C274 C273 1.339 . S
C274 C275 1.439 . S
C274 H309 0.950 . S
C275 N271 1.383 . S
C275 C274 1.439 . S
C275 C304 1.392 . S
N276 Co270 2.008 . S
N276 C277 1.376 . S
N276 C280 1.374 . S
C277 N276 1.376 . S
C277 C278 1.443 . S
C277 C304 1.389 . S
C278 C277 1.443 . S
C278 C279 1.340 . S
C278 H310 0.951 . S
C279 C278 1.340 . S
C279 C280 1.439 . S
C279 H311 0.950 . S
C280 N276 1.374 . S
C280 C279 1.439 . S
C280 C305 1.395 . S
N281 Co270 1.995 . S
N281 C282 1.376 . S
N281 C285 1.383 . S
C282 N281 1.376 . S
C282 C283 1.446 . S
C282 C305 1.391 . S
C283 C282 1.446 . S
C283 C284 1.339 . S
C283 H312 0.949 . S
C284 C283 1.339 . S
C284 C285 1.439 . S
C284 H313 0.950 . S
C285 N281 1.383 . S
C285 C284 1.439 . S
C285 C303 1.392 . S
N286 Co270 2.282 . S
N286 C289 1.332 . S
N286 C291 1.332 . S
C287 C288 1.386 . S
C287 C290 1.388 . S
C288 C287 1.386 . S
C288 C289 1.382 . S
C288 H314 0.950 . S
C289 N286 1.332 . S
C289 C288 1.382 . S
C289 H300 0.952 . S
C290 C287 1.388 . S
C290 C291 1.382 . S
C290 H315 0.950 . S
C291 N286 1.332 . S
C291 C290 1.382 . S
C291 H301 0.948 . S
N292 Co270 2.282 . S
N292 C296 1.332 . S
N292 C297 1.332 . S
C293 C294 1.388 . S
C293 C297 1.382 . S
C293 H316 0.950 . S
C294 C293 1.388 . S
C294 C295 1.386 . S
C295 C294 1.386 . S
C295 C296 1.382 . S
C295 H317 0.950 . S
C296 N292 1.332 . S
C296 C295 1.382 . S
C296 H298 0.952 . S
C297 N292 1.332 . S
C297 C293 1.382 . S
C297 H299 0.948 . S
H298 C296 0.952 . S
H299 C297 0.948 . S
H300 C289 0.952 . S
H301 C291 0.948 . S
C302 C268 1.395 . S
C302 C272 1.391 . S
C303 C265 1.389 . S
C303 C285 1.392 . S
C304 C275 1.392 . S
C304 C277 1.389 . S
C305 C280 1.395 . S
C305 C282 1.391 . S
H306 C266 0.951 . S
H307 C267 0.950 . S
H308 C273 0.949 . S
H309 C274 0.950 . S
H310 C278 0.951 . S
H311 C279 0.950 . S
H312 C283 0.949 . S
H313 C284 0.950 . S
H314 C288 0.950 . S
H315 C290 0.950 . S
H316 C293 0.950 . S
H317 C295 0.950 . S
C318 C319 1.363 . S
C318 C324 1.379 . S
C318 N326 1.356 . S
C319 C318 1.363 . S
C319 C325 1.363 . S
C320 C321 1.363 . S
C320 C325 1.379 . S
C320 N327 1.356 . S
C321 C320 1.363 . S
C321 C324 1.363 . S
N322 C324 1.356 . S
N322 H334 0.984 . S
N322 H335 0.985 . S
N323 C325 1.356 . S
N323 H328 0.984 . S
N323 H329 0.985 . S
C324 C318 1.379 . S
C324 C321 1.363 . S
C324 N322 1.356 . S
C325 C319 1.363 . S
C325 C320 1.379 . S
C325 N323 1.356 . S
N326 C318 1.356 . S
N326 H332 0.984 . S
N326 H333 0.984 . S
N327 C320 1.356 . S
N327 H330 0.984 . S
N327 H331 0.985 . S
H328 N323 0.984 . S
H329 N323 0.985 . S
H330 N327 0.984 . S
H331 N327 0.985 . S
H332 N326 0.984 . S
H333 N326 0.984 . S
H334 N322 0.984 . S
H335 N322 0.985 . S
C336 C337 1.363 1_455 S
C336 C342 1.379 . S
C336 N344 1.356 . S
C337 C336 1.363 1_655 S
C337 C343 1.363 . S
C338 C339 1.363 . S
C338 C343 1.379 1_455 S
C338 N345 1.356 . S
C339 C338 1.363 . S
C339 C342 1.363 . S
N340 C342 1.356 . S
N340 H352 0.984 . S
N340 H353 0.985 . S
N341 C343 1.356 . S
N341 H346 0.984 . S
N341 H347 0.985 . S
C342 C336 1.379 . S
C342 C339 1.363 . S
C342 N340 1.356 . S
C343 C337 1.363 . S
C343 C338 1.379 1_655 S
C343 N341 1.356 . S
N344 C336 1.356 . S
N344 H350 0.984 . S
N344 H351 0.984 1_455 S
N345 C338 1.356 . S
N345 H348 0.984 . S
N345 H349 0.985 1_455 S
H346 N341 0.984 . S
H347 N341 0.985 . S
H348 N345 0.984 . S
H349 N345 0.985 1_655 S
H350 N344 0.984 . S
H351 N344 0.984 1_655 S
H352 N340 0.984 . S
H353 N340 0.985 . S
C354 C355 1.363 . S
C354 C360 1.379 . S
C354 N362 1.356 . S
C355 C354 1.363 . S
C355 C361 1.363 . S
C356 C357 1.363 . S
C356 C361 1.379 1_565 S
C356 N363 1.356 . S
C357 C356 1.363 . S
C357 C360 1.363 1_565 S
N358 C360 1.356 . S
N358 H370 0.984 . S
N358 H371 0.985 1_545 S
N359 C361 1.356 . S
N359 H364 0.984 . S
N359 H365 0.985 1_545 S
C360 C354 1.379 . S
C360 C357 1.363 1_545 S
C360 N358 1.356 . S
C361 C355 1.363 . S
C361 C356 1.379 1_545 S
C361 N359 1.356 . S
N362 C354 1.356 . S
N362 H368 0.984 . S
N362 H369 0.984 . S
N363 C356 1.356 . S
N363 H366 0.984 . S
N363 H367 0.985 . S
H364 N359 0.984 . S
H365 N359 0.985 1_565 S
H366 N363 0.984 . S
H367 N363 0.985 . S
H368 N362 0.984 . S
H369 N362 0.984 . S
H370 N358 0.984 . S
H371 N358 0.985 1_565 S
C372 C373 1.363 . S
C372 C378 1.379 . S
C372 N380 1.356 . S
C373 C372 1.363 . S
C373 C379 1.363 . S
C374 C375 1.363 . S
C374 C379 1.379 . S
C374 N381 1.356 . S
C375 C374 1.363 . S
C375 C378 1.363 . S
N376 C378 1.356 . S
N376 H388 0.984 . S
N376 H389 0.985 . S
N377 C379 1.356 . S
N377 H382 0.984 . S
N377 H383 0.985 . S
C378 C372 1.379 . S
C378 C375 1.363 . S
C378 N376 1.356 . S
C379 C373 1.363 . S
C379 C374 1.379 . S
C379 N377 1.356 . S
N380 C372 1.356 . S
N380 H386 0.984 . S
N380 H387 0.984 . S
N381 C374 1.356 . S
N381 H384 0.984 . S
N381 H385 0.985 . S
H382 N377 0.984 . S
H383 N377 0.985 . S
H384 N381 0.984 . S
H385 N381 0.985 . S
H386 N380 0.984 . S
H387 N380 0.984 . S
H388 N376 0.984 . S
H389 N376 0.985 . S
C390 C391 1.363 . S
C390 C396 1.379 1_655 S
C390 N398 1.356 . S
C391 C390 1.363 . S
C391 C397 1.363 . S
C392 C393 1.363 1_655 S
C392 C397 1.379 . S
C392 N399 1.356 . S
C393 C392 1.363 1_455 S
C393 C396 1.363 . S
N394 C396 1.356 . S
N394 H406 0.984 . S
N394 H407 0.985 . S
N395 C397 1.356 . S
N395 H400 0.984 . S
N395 H401 0.985 . S
C396 C390 1.379 1_455 S
C396 C393 1.363 . S
C396 N394 1.356 . S
C397 C391 1.363 . S
C397 C392 1.379 . S
C397 N395 1.356 . S
N398 C390 1.356 . S
N398 H404 0.984 . S
N398 H405 0.984 . S
N399 C392 1.356 . S
N399 H402 0.984 1_655 S
N399 H403 0.985 . S
H400 N395 0.984 . S
H401 N395 0.985 . S
H402 N399 0.984 1_455 S
H403 N399 0.985 . S
H404 N398 0.984 . S
H405 N398 0.984 . S
H406 N394 0.984 . S
H407 N394 0.985 . S
C408 C409 1.363 1_565 S
C408 C414 1.379 . S
C408 N416 1.356 . S
C409 C408 1.363 1_545 S
C409 C415 1.363 . S
C410 C411 1.363 . S
C410 C415 1.379 1_565 S
C410 N417 1.356 . S
C411 C410 1.363 . S
C411 C414 1.363 . S
N412 C414 1.356 . S
N412 H424 0.984 . S
N412 H425 0.985 . S
N413 C415 1.356 . S
N413 H418 0.984 . S
N413 H419 0.985 . S
C414 C408 1.379 . S
C414 C411 1.363 . S
C414 N412 1.356 . S
C415 C409 1.363 . S
C415 C410 1.379 1_545 S
C415 N413 1.356 . S
N416 C408 1.356 . S
N416 H422 0.984 . S
N416 H423 0.984 1_565 S
N417 C410 1.356 . S
N417 H420 0.984 . S
N417 H421 0.985 . S
H418 N413 0.984 . S
H419 N413 0.985 . S
H420 N417 0.984 . S
H421 N417 0.985 . S
H422 N416 0.984 . S
H423 N416 0.984 1_545 S
H424 N412 0.984 . S
H425 N412 0.985 . S
C426 C427 1.363 . S
C426 C432 1.379 . S
C426 N434 1.356 . S
C427 C426 1.363 . S
C427 C433 1.363 . S
C428 C429 1.363 . S
C428 C433 1.379 . S
C428 N435 1.356 . S
C429 C428 1.363 . S
C429 C432 1.363 . S
N430 C432 1.356 . S
N430 H442 0.984 . S
N430 H443 0.985 . S
N431 C433 1.356 . S
N431 H436 0.984 . S
N431 H437 0.985 . S
C432 C426 1.379 . S
C432 C429 1.363 . S
C432 N430 1.356 . S
C433 C427 1.363 . S
C433 C428 1.379 . S
C433 N431 1.356 . S
N434 C426 1.356 . S
N434 H440 0.984 . S
N434 H441 0.984 . S
N435 C428 1.356 . S
N435 H438 0.984 . S
N435 H439 0.985 . S
H436 N431 0.984 . S
H437 N431 0.985 . S
H438 N435 0.984 . S
H439 N435 0.985 . S
H440 N434 0.984 . S
H441 N434 0.984 . S
H442 N430 0.984 . S
H443 N430 0.985 . S
C444 C445 1.363 . S
C444 C450 1.379 . S
C444 N452 1.356 . S
C445 C444 1.363 . S
C445 C451 1.363 . S
C446 C447 1.363 . S
C446 C451 1.379 . S
C446 N453 1.356 . S
C447 C446 1.363 . S
C447 C450 1.363 . S
N448 C450 1.356 . S
N448 H460 0.984 . S
N448 H461 0.985 . S
N449 C451 1.356 . S
N449 H454 0.984 . S
N449 H455 0.985 . S
C450 C444 1.379 . S
C450 C447 1.363 . S
C450 N448 1.356 . S
C451 C445 1.363 . S
C451 C446 1.379 . S
C451 N449 1.356 . S
N452 C444 1.356 . S
N452 H458 0.984 . S
N452 H459 0.984 . S
N453 C446 1.356 . S
N453 H456 0.984 . S
N453 H457 0.985 . S
H454 N449 0.984 . S
H455 N449 0.985 . S
H456 N453 0.984 . S
H457 N453 0.985 . S
H458 N452 0.984 . S
H459 N452 0.984 . S
H460 N448 0.984 . S
H461 N448 0.985 . S
C462 C463 1.363 . S
C462 C468 1.379 . S
C462 N470 1.356 . S
C463 C462 1.363 . S
C463 C469 1.363 . S
C464 C465 1.363 . S
C464 C469 1.379 . S
C464 N471 1.356 . S
C465 C464 1.363 . S
C465 C468 1.363 . S
N466 C468 1.356 . S
N466 H478 0.984 . S
N466 H479 0.985 . S
N467 C469 1.356 . S
N467 H472 0.984 . S
N467 H473 0.985 . S
C468 C462 1.379 . S
C468 C465 1.363 . S
C468 N466 1.356 . S
C469 C463 1.363 . S
C469 C464 1.379 . S
C469 N467 1.356 . S
N470 C462 1.356 . S
N470 H476 0.984 . S
N470 H477 0.984 . S
N471 C464 1.356 . S
N471 H474 0.984 . S
N471 H475 0.985 . S
H472 N467 0.984 . S
H473 N467 0.985 . S
H474 N471 0.984 . S
H475 N471 0.985 . S
H476 N470 0.984 . S
H477 N470 0.984 . S
H478 N466 0.984 . S
H479 N466 0.985 . S
C480 C481 1.363 . S
C480 C486 1.379 . S
C480 N488 1.356 . S
C481 C480 1.363 . S
C481 C487 1.363 . S
C482 C483 1.363 . S
C482 C487 1.379 . S
C482 N489 1.356 . S
C483 C482 1.363 . S
C483 C486 1.363 . S
N484 C486 1.356 . S
N484 H496 0.984 . S
N484 H497 0.985 . S
N485 C487 1.356 . S
N485 H490 0.984 . S
N485 H491 0.985 . S
C486 C480 1.379 . S
C486 C483 1.363 . S
C486 N484 1.356 . S
C487 C481 1.363 . S
C487 C482 1.379 . S
C487 N485 1.356 . S
N488 C480 1.356 . S
N488 H494 0.984 . S
N488 H495 0.984 . S
N489 C482 1.356 . S
N489 H492 0.984 . S
N489 H493 0.985 . S
H490 N485 0.984 . S
H491 N485 0.985 . S
H492 N489 0.984 . S
H493 N489 0.985 . S
H494 N488 0.984 . S
H495 N488 0.984 . S
H496 N484 0.984 . S
H497 N484 0.985 . S
C498 C499 1.363 . S
C498 C504 1.379 . S
C498 N506 1.356 . S
C499 C498 1.363 . S
C499 C505 1.363 . S
C500 C501 1.363 . S
C500 C505 1.379 . S
C500 N507 1.356 . S
C501 C500 1.363 . S
C501 C504 1.363 . S
N502 C504 1.356 . S
N502 H514 0.984 . S
N502 H515 0.985 . S
N503 C505 1.356 . S
N503 H508 0.984 . S
N503 H509 0.985 . S
C504 C498 1.379 . S
C504 C501 1.363 . S
C504 N502 1.356 . S
C505 C499 1.363 . S
C505 C500 1.379 . S
C505 N503 1.356 . S
N506 C498 1.356 . S
N506 H512 0.984 . S
N506 H513 0.984 . S
N507 C500 1.356 . S
N507 H510 0.984 . S
N507 H511 0.985 . S
H508 N503 0.984 . S
H509 N503 0.985 . S
H510 N507 0.984 . S
H511 N507 0.985 . S
H512 N506 0.984 . S
H513 N506 0.984 . S
H514 N502 0.984 . S
H515 N502 0.985 . S
C516 C517 1.363 . S
C516 C522 1.379 . S
C516 N524 1.356 . S
C517 C516 1.363 . S
C517 C523 1.363 . S
C518 C519 1.363 . S
C518 C523 1.379 . S
C518 N525 1.356 . S
C519 C518 1.363 . S
C519 C522 1.363 . S
N520 C522 1.356 . S
N520 H532 0.984 . S
N520 H533 0.985 . S
N521 C523 1.356 . S
N521 H526 0.984 . S
N521 H527 0.985 . S
C522 C516 1.379 . S
C522 C519 1.363 . S
C522 N520 1.356 . S
C523 C517 1.363 . S
C523 C518 1.379 . S
C523 N521 1.356 . S
N524 C516 1.356 . S
N524 H530 0.984 . S
N524 H531 0.984 . S
N525 C518 1.356 . S
N525 H528 0.984 . S
N525 H529 0.985 . S
H526 N521 0.984 . S
H527 N521 0.985 . S
H528 N525 0.984 . S
H529 N525 0.985 . S
H530 N524 0.984 . S
H531 N524 0.984 . S
H532 N520 0.984 . S
H533 N520 0.985 . S
C319 C22 1.496 . S
C321 C303 1.511 . S
C337 C75 1.496 . S
C339 C38 1.511 . S
C355 C91 1.511 . S
C357 C128 1.496 . S
C373 C181 1.496 . S
C375 C144 1.511 . S
C391 C197 1.511 . S
C393 C234 1.496 . S
C409 C287 1.496 . S
C411 C250 1.511 . S
C427 C251 1.521 . S
C429 C29 1.512 . S
C445 C304 1.521 . S
C447 C82 1.512 . S
C463 C135 1.512 . S
C465 C39 1.521 . S
C481 C188 1.512 . S
C483 C92 1.521 . S
C499 C241 1.512 . S
C501 C145 1.521 . S
C517 C294 1.512 . S
C519 C198 1.521 . S
