# Generated by pormake.
# Topology lta, (4)-cn, num edge types: 1
# Building blocks:
#     Node 0, Type 0, BuildingBlock: KUFVIS_clean_sbu_0, # of connection points: 4
#     Node 1, Type 0, BuildingBlock: KUFVIS_clean_sbu_0, # of connection points: 4
#     Node 2, Type 0, BuildingBlock: KUFVIS_clean_sbu_0, # of connection points: 4
#     Node 3, Type 0, BuildingBlock: KUFVIS_clean_sbu_0, # of connection points: 4
#     Node 4, Type 0, BuildingBlock: KUFVIS_clean_sbu_0, # of connection points: 4
#     Node 5, Type 0, BuildingBlock: KUFVIS_clean_sbu_0, # of connection points: 4
#     Node 6, Type 0, BuildingBlock: KUFVIS_clean_sbu_0, # of connection points: 4
#     Node 7, Type 0, BuildingBlock: KUFVIS_clean_sbu_0, # of connection points: 4
#     Node 8, Type 0, BuildingBlock: KUFVIS_clean_sbu_0, # of connection points: 4
#     Node 9, Type 0, BuildingBlock: KUFVIS_clean_sbu_0, # of connection points: 4
#     Node 10, Type 0, BuildingBlock: KUFVIS_clean_sbu_0, # of connection points: 4
#     Node 11, Type 0, BuildingBlock: KUFVIS_clean_sbu_0, # of connection points: 4
#     Node 12, Type 0, BuildingBlock: KUFVIS_clean_sbu_0, # of connection points: 4
#     Node 13, Type 0, BuildingBlock: KUFVIS_clean_sbu_0, # of connection points: 4
#     Node 14, Type 0, BuildingBlock: KUFVIS_clean_sbu_0, # of connection points: 4
#     Node 15, Type 0, BuildingBlock: KUFVIS_clean_sbu_0, # of connection points: 4
#     Node 16, Type 0, BuildingBlock: KUFVIS_clean_sbu_0, # of connection points: 4
#     Node 17, Type 0, BuildingBlock: KUFVIS_clean_sbu_0, # of connection points: 4
#     Node 18, Type 0, BuildingBlock: KUFVIS_clean_sbu_0, # of connection points: 4
#     Node 19, Type 0, BuildingBlock: KUFVIS_clean_sbu_0, # of connection points: 4
#     Node 20, Type 0, BuildingBlock: KUFVIS_clean_sbu_0, # of connection points: 4
#     Node 21, Type 0, BuildingBlock: KUFVIS_clean_sbu_0, # of connection points: 4
#     Node 22, Type 0, BuildingBlock: KUFVIS_clean_sbu_0, # of connection points: 4
#     Node 23, Type 0, BuildingBlock: KUFVIS_clean_sbu_0, # of connection points: 4
#     Edge 24, Type (0, 0), BuildingBlock: ZUJKAS_clean_linker_0, # of connection points: 2
#     Edge 25, Type (0, 0), BuildingBlock: ZUJKAS_clean_linker_0, # of connection points: 2
#     Edge 26, Type (0, 0), BuildingBlock: ZUJKAS_clean_linker_0, # of connection points: 2
#     Edge 27, Type (0, 0), BuildingBlock: ZUJKAS_clean_linker_0, # of connection points: 2
#     Edge 28, Type (0, 0), BuildingBlock: ZUJKAS_clean_linker_0, # of connection points: 2
#     Edge 29, Type (0, 0), BuildingBlock: ZUJKAS_clean_linker_0, # of connection points: 2
#     Edge 30, Type (0, 0), BuildingBlock: ZUJKAS_clean_linker_0, # of connection points: 2
#     Edge 31, Type (0, 0), BuildingBlock: ZUJKAS_clean_linker_0, # of connection points: 2
#     Edge 32, Type (0, 0), BuildingBlock: ZUJKAS_clean_linker_0, # of connection points: 2
#     Edge 33, Type (0, 0), BuildingBlock: ZUJKAS_clean_linker_0, # of connection points: 2
#     Edge 34, Type (0, 0), BuildingBlock: ZUJKAS_clean_linker_0, # of connection points: 2
#     Edge 35, Type (0, 0), BuildingBlock: ZUJKAS_clean_linker_0, # of connection points: 2
#     Edge 36, Type (0, 0), BuildingBlock: ZUJKAS_clean_linker_0, # of connection points: 2
#     Edge 37, Type (0, 0), BuildingBlock: ZUJKAS_clean_linker_0, # of connection points: 2
#     Edge 38, Type (0, 0), BuildingBlock: ZUJKAS_clean_linker_0, # of connection points: 2
#     Edge 39, Type (0, 0), BuildingBlock: ZUJKAS_clean_linker_0, # of connection points: 2
#     Edge 40, Type (0, 0), BuildingBlock: ZUJKAS_clean_linker_0, # of connection points: 2
#     Edge 41, Type (0, 0), BuildingBlock: ZUJKAS_clean_linker_0, # of connection points: 2
#     Edge 42, Type (0, 0), BuildingBlock: ZUJKAS_clean_linker_0, # of connection points: 2
#     Edge 43, Type (0, 0), BuildingBlock: ZUJKAS_clean_linker_0, # of connection points: 2
#     Edge 44, Type (0, 0), BuildingBlock: ZUJKAS_clean_linker_0, # of connection points: 2
#     Edge 45, Type (0, 0), BuildingBlock: ZUJKAS_clean_linker_0, # of connection points: 2
#     Edge 46, Type (0, 0), BuildingBlock: ZUJKAS_clean_linker_0, # of connection points: 2
#     Edge 47, Type (0, 0), BuildingBlock: ZUJKAS_clean_linker_0, # of connection points: 2
#     Edge 48, Type (0, 0), BuildingBlock: ZUJKAS_clean_linker_0, # of connection points: 2
#     Edge 49, Type (0, 0), BuildingBlock: ZUJKAS_clean_linker_0, # of connection points: 2
#     Edge 50, Type (0, 0), BuildingBlock: ZUJKAS_clean_linker_0, # of connection points: 2
#     Edge 51, Type (0, 0), BuildingBlock: ZUJKAS_clean_linker_0, # of connection points: 2
#     Edge 52, Type (0, 0), BuildingBlock: ZUJKAS_clean_linker_0, # of connection points: 2
#     Edge 53, Type (0, 0), BuildingBlock: ZUJKAS_clean_linker_0, # of connection points: 2
#     Edge 54, Type (0, 0), BuildingBlock: ZUJKAS_clean_linker_0, # of connection points: 2
#     Edge 55, Type (0, 0), BuildingBlock: ZUJKAS_clean_linker_0, # of connection points: 2
#     Edge 56, Type (0, 0), BuildingBlock: ZUJKAS_clean_linker_0, # of connection points: 2
#     Edge 57, Type (0, 0), BuildingBlock: ZUJKAS_clean_linker_0, # of connection points: 2
#     Edge 58, Type (0, 0), BuildingBlock: ZUJKAS_clean_linker_0, # of connection points: 2
#     Edge 59, Type (0, 0), BuildingBlock: ZUJKAS_clean_linker_0, # of connection points: 2
#     Edge 60, Type (0, 0), BuildingBlock: ZUJKAS_clean_linker_0, # of connection points: 2
#     Edge 61, Type (0, 0), BuildingBlock: ZUJKAS_clean_linker_0, # of connection points: 2
#     Edge 62, Type (0, 0), BuildingBlock: ZUJKAS_clean_linker_0, # of connection points: 2
#     Edge 63, Type (0, 0), BuildingBlock: ZUJKAS_clean_linker_0, # of connection points: 2
#     Edge 64, Type (0, 0), BuildingBlock: ZUJKAS_clean_linker_0, # of connection points: 2
#     Edge 65, Type (0, 0), BuildingBlock: ZUJKAS_clean_linker_0, # of connection points: 2
#     Edge 66, Type (0, 0), BuildingBlock: ZUJKAS_clean_linker_0, # of connection points: 2
#     Edge 67, Type (0, 0), BuildingBlock: ZUJKAS_clean_linker_0, # of connection points: 2
#     Edge 68, Type (0, 0), BuildingBlock: ZUJKAS_clean_linker_0, # of connection points: 2
#     Edge 69, Type (0, 0), BuildingBlock: ZUJKAS_clean_linker_0, # of connection points: 2
#     Edge 70, Type (0, 0), BuildingBlock: ZUJKAS_clean_linker_0, # of connection points: 2
#     Edge 71, Type (0, 0), BuildingBlock: ZUJKAS_clean_linker_0, # of connection points: 2
# Relax obj value: 0.255
# Max RMSD: 0.133
# Mean RMSD: 0.133
data_MOF--net-lta--node1-KUFVIS_clean_sbu_0--edge1-ZUJKAS_clean_linker_0
_symmetry_space_group_name_H-M    P1
_symmetry_Int_Tables_number       1
_symmetry_cell_setting            triclinic
loop_
_symmetry_equiv_pos_as_xyz
'x, y, z'
_cell_length_a     73.169757
_cell_length_b     73.14753
_cell_length_c     73.144222
_cell_angle_alpha  89.99521
_cell_angle_beta   89.983137
_cell_angle_gamma 89.994426
loop_
_atom_site_label
_atom_site_type_symbol
_atom_site_fract_x
_atom_site_fract_y
_atom_site_fract_z
_atom_type_partial_charge
Mn0 Mn 0.13142 0.32278 0.50973 0.0
Mn1 Mn 0.16954 0.34828 0.51123 0.0
C2 C 0.14051 0.33583 0.5372 0.0
C3 C 0.10011 0.32092 0.50424 0.0
C4 C 0.16949 0.30694 0.50745 0.0
O5 O 0.13666 0.32872 0.48289 0.0
O6 O 0.15913 0.34955 0.48625 0.0
C7 C 0.15454 0.38541 0.50551 0.0
N8 N 0.164 0.37333 0.51606 0.0
C9 C 0.17143 0.39676 0.5379 0.0
C10 C 0.16181 0.40948 0.52726 0.0
C11 C 0.15322 0.40374 0.51106 0.0
C12 C 0.17199 0.37862 0.53185 0.0
H13 H 0.14816 0.38109 0.49292 0.0
C14 C 0.14748 0.34086 0.47646 0.0
O15 O 0.11055 0.3066 0.50298 0.0
O16 O 0.10793 0.33627 0.50839 0.0
N17 N 0.18077 0.3482 0.53486 0.0
C18 C 0.18948 0.33423 0.54358 0.0
C19 C 0.19841 0.3376 0.56024 0.0
C20 C 0.19851 0.35532 0.56763 0.0
C21 C 0.1897 0.36953 0.55826 0.0
C22 C 0.18092 0.36534 0.54178 0.0
H23 H 0.18969 0.32064 0.53786 0.0
O24 O 0.12934 0.32205 0.53708 0.0
O25 O 0.1458 0.34143 0.52124 0.0
O26 O 0.15249 0.30445 0.51024 0.0
O27 O 0.1769 0.32271 0.50647 0.0
C28 C 0.18941 0.38773 0.56457 0.0
C29 C 0.18042 0.40135 0.55432 0.0
H30 H 0.16086 0.42365 0.53143 0.0
H31 H 0.14574 0.41347 0.5028 0.0
H32 H 0.20528 0.32657 0.56732 0.0
H33 H 0.20546 0.35787 0.58045 0.0
H34 H 0.19609 0.39139 0.57726 0.0
H35 H 0.18028 0.41529 0.55931 0.0
Mn36 Mn 0.68113 0.12942 0.50922 0.0
Mn37 Mn 0.65783 0.16912 0.51072 0.0
C38 C 0.6674 0.13893 0.53625 0.0
C39 C 0.68188 0.09805 0.50375 0.0
C40 C 0.69923 0.16703 0.50981 0.0
O41 O 0.67622 0.13476 0.48231 0.0
O42 O 0.65908 0.16026 0.48512 0.0
C43 C 0.62108 0.15638 0.49963 0.0
N44 N 0.63217 0.16455 0.51215 0.0
C45 C 0.6065 0.1726 0.53106 0.0
C46 C 0.59478 0.16426 0.51838 0.0
C47 C 0.60213 0.15599 0.50267 0.0
C48 C 0.62529 0.17214 0.52753 0.0
H49 H 0.62663 0.15035 0.48735 0.0
C50 C 0.66647 0.14757 0.47555 0.0
O51 O 0.69662 0.1079 0.50297 0.0
O52 O 0.66673 0.10648 0.50748 0.0
N53 N 0.65546 0.17906 0.5348 0.0
C54 C 0.66859 0.18667 0.5456 0.0
C55 C 0.66356 0.19503 0.56213 0.0
C56 C 0.64506 0.19582 0.56721 0.0
C57 C 0.63176 0.18824 0.55569 0.0
C58 C 0.63762 0.17981 0.53953 0.0
H59 H 0.6828 0.18637 0.54163 0.0
O60 O 0.68086 0.12737 0.53656 0.0
O61 O 0.66261 0.1446 0.52015 0.0
O62 O 0.70052 0.14965 0.51017 0.0
O63 O 0.68396 0.17545 0.50963 0.0
C64 C 0.61289 0.18903 0.55943 0.0
C65 C 0.60026 0.18144 0.547 0.0
H66 H 0.58014 0.16413 0.52057 0.0
H67 H 0.59318 0.14955 0.49281 0.0
H68 H 0.6739 0.20099 0.57087 0.0
H69 H 0.64122 0.20243 0.57989 0.0
H70 H 0.60793 0.19556 0.57177 0.0
H71 H 0.58578 0.18217 0.55001 0.0
Mn72 Mn 0.87281 0.68175 0.51175 0.0
Mn73 Mn 0.83404 0.65721 0.51648 0.0
C74 C 0.86505 0.6694 0.53982 0.0
C75 C 0.90387 0.6833 0.50493 0.0
C76 C 0.83456 0.69857 0.51358 0.0
O77 O 0.86645 0.67514 0.48546 0.0
O78 O 0.84131 0.65791 0.4903 0.0
C79 C 0.84829 0.62078 0.50607 0.0
N80 N 0.83992 0.63183 0.51851 0.0
C81 C 0.83658 0.60693 0.53976 0.0
C82 C 0.84508 0.59527 0.52714 0.0
C83 C 0.85098 0.60224 0.51024 0.0
C84 C 0.83421 0.62528 0.53482 0.0
H85 H 0.85288 0.62608 0.49308 0.0
C86 C 0.85339 0.66504 0.47979 0.0
O87 O 0.89345 0.69762 0.50369 0.0
O88 O 0.89617 0.66809 0.5098 0.0
N89 N 0.82572 0.65526 0.54122 0.0
C90 C 0.81863 0.66852 0.55223 0.0
C91 C 0.81244 0.66389 0.5698 0.0
C92 C 0.8135 0.64569 0.57583 0.0
C93 C 0.82076 0.63227 0.56423 0.0
C94 C 0.8266 0.63767 0.54682 0.0
H95 H 0.81776 0.68253 0.54765 0.0
O96 O 0.87609 0.68326 0.53892 0.0
O97 O 0.85883 0.66341 0.52432 0.0
O98 O 0.85187 0.70036 0.51255 0.0
O99 O 0.8266 0.68308 0.51492 0.0
C100 C 0.82266 0.61379 0.56935 0.0
C101 C 0.83063 0.60115 0.55715 0.0
H102 H 0.84725 0.58097 0.53034 0.0
H103 H 0.85761 0.59333 0.50046 0.0
H104 H 0.80689 0.67433 0.57869 0.0
H105 H 0.80878 0.64219 0.58943 0.0
H106 H 0.81823 0.60919 0.58271 0.0
H107 H 0.83226 0.58704 0.56135 0.0
Mn108 Mn 0.32282 0.8705 0.51291 0.0
Mn109 Mn 0.34686 0.83171 0.51959 0.0
C110 C 0.33318 0.8629 0.54178 0.0
C111 C 0.32117 0.90152 0.50619 0.0
C112 C 0.30589 0.83225 0.5138 0.0
O113 O 0.33144 0.86416 0.48722 0.0
O114 O 0.34777 0.83866 0.49328 0.0
C115 C 0.38386 0.84581 0.51122 0.0
N116 N 0.37206 0.83764 0.52308 0.0
C117 C 0.39555 0.83479 0.54593 0.0
C118 C 0.40797 0.8431 0.53392 0.0
C119 C 0.40209 0.84866 0.51651 0.0
C120 C 0.37758 0.83225 0.53988 0.0
H121 H 0.37939 0.85016 0.49784 0.0
C122 C 0.34165 0.85087 0.48227 0.0
O123 O 0.30727 0.89078 0.50368 0.0
O124 O 0.33616 0.89412 0.5121 0.0
N125 N 0.34728 0.82376 0.54452 0.0
C126 C 0.33335 0.81693 0.55484 0.0
C127 C 0.33685 0.81117 0.57281 0.0
C128 C 0.35462 0.8124 0.57996 0.0
C129 C 0.36875 0.81941 0.56907 0.0
C130 C 0.36447 0.82483 0.55121 0.0
H131 H 0.31966 0.81598 0.54942 0.0
O132 O 0.31926 0.87375 0.53989 0.0
O133 O 0.34027 0.85664 0.52676 0.0
O134 O 0.3044 0.84953 0.51228 0.0
O135 O 0.32111 0.82416 0.51655 0.0
C136 C 0.38685 0.82149 0.57531 0.0
C137 C 0.40022 0.82924 0.56378 0.0
H138 H 0.42202 0.8454 0.53798 0.0
H139 H 0.41157 0.85515 0.50719 0.0
H140 H 0.32586 0.80583 0.58116 0.0
H141 H 0.35724 0.80804 0.59387 0.0
H142 H 0.39058 0.81739 0.58904 0.0
H143 H 0.41402 0.83103 0.56884 0.0
Mn144 Mn 0.13089 0.68054 0.48456 0.0
Mn145 Mn 0.17028 0.65659 0.48315 0.0
C146 C 0.14062 0.66739 0.4574 0.0
C147 C 0.09942 0.682 0.48923 0.0
C148 C 0.16885 0.69794 0.48505 0.0
O149 O 0.13553 0.67471 0.5114 0.0
O150 O 0.16113 0.65767 0.50871 0.0
C151 C 0.15631 0.61999 0.49333 0.0
N152 N 0.16527 0.63103 0.4813 0.0
C153 C 0.17134 0.60574 0.46116 0.0
C154 C 0.16223 0.59408 0.47335 0.0
C155 C 0.15465 0.60125 0.48948 0.0
C156 C 0.1726 0.62428 0.46573 0.0
H157 H 0.15047 0.62545 0.50575 0.0
C158 C 0.14828 0.6649 0.51819 0.0
O159 O 0.10967 0.69641 0.49077 0.0
O160 O 0.10751 0.66672 0.48529 0.0
N161 N 0.18038 0.6544 0.45914 0.0
C162 C 0.18778 0.66767 0.44836 0.0
C163 C 0.19588 0.66282 0.43166 0.0
C164 C 0.1963 0.64441 0.42624 0.0
C165 C 0.18834 0.63103 0.43743 0.0
C166 C 0.18069 0.63665 0.45404 0.0
H167 H 0.18758 0.68183 0.45251 0.0
O168 O 0.12949 0.68121 0.45718 0.0
O169 O 0.14593 0.662 0.47346 0.0
O170 O 0.15151 0.69947 0.48474 0.0
O171 O 0.17711 0.68259 0.48468 0.0
C172 C 0.18755 0.61237 0.43269 0.0
C173 C 0.17898 0.59975 0.44451 0.0
H174 H 0.16085 0.57964 0.4704 0.0
H175 H 0.14754 0.59236 0.49893 0.0
H176 H 0.20186 0.67324 0.42301 0.0
H177 H 0.20269 0.64073 0.4134 0.0
H178 H 0.19329 0.60762 0.4199 0.0
H179 H 0.17822 0.58549 0.44059 0.0
Mn180 Mn 0.31961 0.12785 0.48728 0.0
Mn181 Mn 0.34569 0.16551 0.48286 0.0
C182 C 0.33018 0.13638 0.45878 0.0
C183 C 0.31765 0.09662 0.49291 0.0
C184 C 0.30477 0.16651 0.4896 0.0
O185 O 0.32807 0.13305 0.51335 0.0
O186 O 0.34784 0.15616 0.50828 0.0
C187 C 0.38246 0.1493 0.48749 0.0
N188 N 0.37031 0.15892 0.47717 0.0
C189 C 0.39242 0.16282 0.45311 0.0
C190 C 0.4052 0.15303 0.46352 0.0
C191 C 0.40017 0.14622 0.48077 0.0
C192 C 0.37501 0.16556 0.46056 0.0
H193 H 0.37863 0.14399 0.50072 0.0
C194 C 0.34018 0.1444 0.51881 0.0
O195 O 0.30373 0.10732 0.49565 0.0
O196 O 0.33268 0.10416 0.48734 0.0
N197 N 0.34486 0.17554 0.45869 0.0
C198 C 0.33056 0.18353 0.44985 0.0
C199 C 0.3331 0.19047 0.43212 0.0
C200 C 0.35032 0.18919 0.42371 0.0
C201 C 0.36485 0.18095 0.43311 0.0
C202 C 0.36153 0.17437 0.45078 0.0
H203 H 0.31729 0.18452 0.45623 0.0
O204 O 0.31611 0.12568 0.4602 0.0
O205 O 0.33747 0.14167 0.47407 0.0
O206 O 0.30185 0.14939 0.48836 0.0
O207 O 0.32058 0.17382 0.48846 0.0
C208 C 0.3824 0.17871 0.4255 0.0
C209 C 0.39617 0.16961 0.43547 0.0
H210 H 0.41884 0.15051 0.45834 0.0
H211 H 0.40993 0.13858 0.48885 0.0
H212 H 0.3218 0.19675 0.42493 0.0
H213 H 0.35218 0.19442 0.40998 0.0
H214 H 0.3854 0.18371 0.41188 0.0
H215 H 0.40951 0.16769 0.42934 0.0
Mn216 Mn 0.87299 0.32108 0.48699 0.0
Mn217 Mn 0.83379 0.34491 0.48312 0.0
C218 C 0.86403 0.33225 0.4587 0.0
C219 C 0.90429 0.32018 0.49276 0.0
C220 C 0.83524 0.30375 0.48866 0.0
O221 O 0.8673 0.32853 0.5133 0.0
O222 O 0.84296 0.34687 0.50859 0.0
C223 C 0.8473 0.3826 0.48904 0.0
N224 N 0.83852 0.37015 0.47834 0.0
C225 C 0.8322 0.39291 0.45543 0.0
C226 C 0.84113 0.40599 0.46623 0.0
C227 C 0.84875 0.4008 0.48309 0.0
C228 C 0.83115 0.37499 0.4621 0.0
H229 H 0.85317 0.37865 0.502 0.0
C230 C 0.85518 0.33979 0.51898 0.0
O231 O 0.89409 0.30581 0.4949 0.0
O232 O 0.89623 0.33512 0.48763 0.0
N233 N 0.82378 0.34421 0.45898 0.0
C234 C 0.81667 0.3297 0.44973 0.0
C235 C 0.80875 0.33248 0.43248 0.0
C236 C 0.80818 0.35013 0.42496 0.0
C237 C 0.81578 0.36483 0.43464 0.0
C238 C 0.8233 0.36125 0.45186 0.0
H239 H 0.81695 0.31612 0.4555 0.0
O240 O 0.87535 0.31862 0.45977 0.0
O241 O 0.85824 0.33868 0.47421 0.0
O242 O 0.85253 0.30207 0.48762 0.0
O243 O 0.8271 0.31917 0.48774 0.0
C244 C 0.81634 0.38284 0.42782 0.0
C245 C 0.82462 0.39685 0.43817 0.0
H246 H 0.84235 0.42002 0.46165 0.0
H247 H 0.85572 0.4108 0.49146 0.0
H248 H 0.80302 0.32105 0.42503 0.0
H249 H 0.80197 0.35221 0.41168 0.0
H250 H 0.81067 0.38602 0.41451 0.0
H251 H 0.82523 0.41057 0.43264 0.0
Mn252 Mn 0.67773 0.87029 0.49019 0.0
Mn253 Mn 0.65433 0.83059 0.49184 0.0
C254 C 0.66494 0.85834 0.46375 0.0
C255 C 0.67903 0.90201 0.49277 0.0
C256 C 0.69566 0.83259 0.49299 0.0
O257 O 0.67209 0.86764 0.51734 0.0
O258 O 0.65583 0.84149 0.51664 0.0
C259 C 0.61786 0.84484 0.50204 0.0
N260 N 0.62866 0.83503 0.49048 0.0
C261 C 0.60262 0.82483 0.47324 0.0
C262 C 0.59118 0.83479 0.48496 0.0
C263 C 0.59885 0.84495 0.49935 0.0
C264 C 0.62146 0.82548 0.47642 0.0
H265 H 0.62369 0.85243 0.51328 0.0
C266 C 0.66274 0.85515 0.52515 0.0
O267 O 0.69348 0.89193 0.49491 0.0
O268 O 0.66378 0.89362 0.4893 0.0
N269 N 0.65155 0.81854 0.46883 0.0
C270 C 0.66458 0.81072 0.45807 0.0
C271 C 0.65924 0.80059 0.44266 0.0
C272 C 0.64059 0.7983 0.43873 0.0
C273 C 0.62744 0.80644 0.45006 0.0
C274 C 0.63359 0.81666 0.465 0.0
H275 H 0.67892 0.81213 0.46128 0.0
O276 O 0.67855 0.86969 0.46291 0.0
O277 O 0.65923 0.85424 0.4801 0.0
O278 O 0.69692 0.84992 0.49172 0.0
O279 O 0.68042 0.82415 0.49316 0.0
C280 C 0.60848 0.80483 0.44714 0.0
C281 C 0.59608 0.81422 0.45855 0.0
H282 H 0.5765 0.83478 0.48303 0.0
H283 H 0.59012 0.85269 0.50845 0.0
H284 H 0.66947 0.79437 0.43397 0.0
H285 H 0.63651 0.79032 0.42694 0.0
H286 H 0.60328 0.79668 0.43593 0.0
H287 H 0.58155 0.81323 0.45588 0.0
Mn288 Mn 0.50759 0.13204 0.32272 0.0
Mn289 Mn 0.51014 0.16987 0.3488 0.0
C290 C 0.53514 0.14033 0.33595 0.0
C291 C 0.50144 0.10088 0.32021 0.0
C292 C 0.50717 0.17061 0.30741 0.0
O293 O 0.48086 0.13777 0.32865 0.0
O294 O 0.48466 0.16074 0.34886 0.0
C295 C 0.50216 0.15423 0.38525 0.0
N296 N 0.51358 0.16359 0.37391 0.0
C297 C 0.5349 0.16902 0.39832 0.0
C298 C 0.52336 0.1595 0.4103 0.0
C299 C 0.50696 0.15199 0.4037 0.0
C300 C 0.52949 0.17066 0.38005 0.0
H301 H 0.48947 0.14857 0.38026 0.0
C302 C 0.47462 0.14919 0.34034 0.0
O303 O 0.50045 0.11164 0.30611 0.0
O304 O 0.5057 0.1083 0.33574 0.0
N305 N 0.53429 0.17984 0.34996 0.0
C306 C 0.54431 0.18782 0.33644 0.0
C307 C 0.56145 0.19539 0.34061 0.0
C308 C 0.56799 0.19488 0.35866 0.0
C309 C 0.55735 0.18674 0.37237 0.0
C310 C 0.54045 0.17929 0.36738 0.0
H311 H 0.53928 0.18838 0.32258 0.0
O312 O 0.5349 0.12942 0.32196 0.0
O313 O 0.5193 0.14584 0.34171 0.0
O314 O 0.50863 0.15345 0.30475 0.0
O315 O 0.50683 0.17795 0.32324 0.0
C316 C 0.56286 0.18567 0.39079 0.0
C317 C 0.55162 0.17686 0.40377 0.0
H318 H 0.52698 0.1578 0.42455 0.0
H319 H 0.49799 0.14458 0.41285 0.0
H320 H 0.56957 0.20165 0.32995 0.0
H321 H 0.5812 0.20075 0.36183 0.0
H322 H 0.57583 0.19138 0.39509 0.0
H323 H 0.55611 0.17594 0.41785 0.0
Mn324 Mn 0.8688 0.51142 0.32109 0.0
Mn325 Mn 0.83023 0.51219 0.34625 0.0
C326 C 0.85901 0.53837 0.3346 0.0
C327 C 0.9002 0.50712 0.31858 0.0
C328 C 0.83041 0.51049 0.30481 0.0
O329 O 0.86455 0.48443 0.32681 0.0
O330 O 0.83987 0.48686 0.34512 0.0
C331 C 0.84554 0.50248 0.38244 0.0
N332 N 0.83611 0.51433 0.37161 0.0
C333 C 0.83014 0.53429 0.39705 0.0
C334 C 0.83972 0.52227 0.4085 0.0
C335 C 0.84753 0.50634 0.40114 0.0
C336 C 0.82875 0.52981 0.3785 0.0
H337 H 0.85145 0.49016 0.37686 0.0
C338 C 0.8525 0.47747 0.33739 0.0
O339 O 0.88951 0.50548 0.30451 0.0
O340 O 0.89259 0.51089 0.33415 0.0
N341 N 0.81977 0.53605 0.34863 0.0
C342 C 0.81167 0.54661 0.3356 0.0
C343 C 0.80373 0.56336 0.34061 0.0
C344 C 0.80399 0.56895 0.35898 0.0
C345 C 0.81224 0.55776 0.37217 0.0
C346 C 0.82005 0.54129 0.36635 0.0
H347 H 0.81131 0.54232 0.32148 0.0
O348 O 0.86991 0.53886 0.3206 0.0
O349 O 0.85418 0.52222 0.34005 0.0
O350 O 0.84769 0.5113 0.30284 0.0
O351 O 0.82258 0.51035 0.32042 0.0
C352 C 0.81307 0.56232 0.39086 0.0
C353 C 0.82199 0.55058 0.4033 0.0
H354 H 0.84123 0.52517 0.42295 0.0
H355 H 0.85499 0.49702 0.40987 0.0
H356 H 0.79738 0.57191 0.33035 0.0
H357 H 0.79784 0.58187 0.3628 0.0
H358 H 0.80708 0.57494 0.39579 0.0
H359 H 0.82273 0.55435 0.4176 0.0
Mn360 Mn 0.49203 0.87322 0.31976 0.0
Mn361 Mn 0.49562 0.83435 0.34431 0.0
C362 C 0.46668 0.86127 0.33452 0.0
C363 C 0.49416 0.90495 0.31787 0.0
C364 C 0.49547 0.83527 0.30292 0.0
O365 O 0.51956 0.87082 0.32397 0.0
O366 O 0.52001 0.84591 0.34229 0.0
C367 C 0.50537 0.84983 0.38039 0.0
N368 N 0.49393 0.83963 0.36983 0.0
C369 C 0.4753 0.83193 0.3958 0.0
C370 C 0.48691 0.84229 0.40699 0.0
C371 C 0.50197 0.85134 0.39922 0.0
C372 C 0.47931 0.83101 0.37712 0.0
H373 H 0.517 0.85674 0.37447 0.0
C374 C 0.52789 0.85915 0.33396 0.0
O375 O 0.49553 0.89472 0.30342 0.0
O376 O 0.49178 0.89671 0.33339 0.0
N377 N 0.47277 0.82199 0.34733 0.0
C378 C 0.46238 0.81338 0.3345 0.0
C379 C 0.44642 0.80419 0.33991 0.0
C380 C 0.44142 0.80379 0.35845 0.0
C381 C 0.45242 0.81263 0.37142 0.0
C382 C 0.46813 0.82163 0.36521 0.0
H383 H 0.46621 0.81357 0.32024 0.0
O384 O 0.46462 0.8724 0.32084 0.0
O385 O 0.48342 0.85752 0.33897 0.0
O386 O 0.49249 0.85233 0.30106 0.0
O387 O 0.49732 0.82735 0.31834 0.0
C388 C 0.44836 0.81298 0.39024 0.0
C389 C 0.4598 0.82262 0.40243 0.0
H390 H 0.48435 0.84347 0.42153 0.0
H391 H 0.51097 0.85941 0.40775 0.0
H392 H 0.438 0.7974 0.32982 0.0
H393 H 0.42909 0.79671 0.36257 0.0
H394 H 0.43634 0.80609 0.39546 0.0
H395 H 0.45639 0.82299 0.41684 0.0
Mn396 Mn 0.12611 0.48553 0.31894 0.0
Mn397 Mn 0.16367 0.47945 0.34488 0.0
C398 C 0.13343 0.45674 0.32974 0.0
C399 C 0.09513 0.49236 0.31677 0.0
C400 C 0.16497 0.48534 0.30378 0.0
O401 O 0.13223 0.51137 0.32732 0.0
O402 O 0.1559 0.50547 0.34615 0.0
C403 C 0.14771 0.48642 0.38142 0.0
N404 N 0.15676 0.47512 0.36971 0.0
C405 C 0.15947 0.45185 0.39282 0.0
C406 C 0.15025 0.46327 0.40515 0.0
C407 C 0.14431 0.48061 0.39941 0.0
C408 C 0.16251 0.45839 0.37508 0.0
H409 H 0.14308 0.49974 0.37706 0.0
C410 C 0.1443 0.51643 0.33888 0.0
O411 O 0.10602 0.49464 0.30291 0.0
O412 O 0.10235 0.48654 0.33186 0.0
N413 N 0.17231 0.45473 0.34503 0.0
C414 C 0.17998 0.44496 0.33115 0.0
C415 C 0.18616 0.42709 0.33448 0.0
C416 C 0.1845 0.41951 0.35205 0.0
C417 C 0.17663 0.42985 0.36613 0.0
C418 C 0.17079 0.44762 0.36203 0.0
H419 H 0.18132 0.45073 0.31763 0.0
O420 O 0.12292 0.45851 0.31556 0.0
O421 O 0.13935 0.47183 0.33694 0.0
O422 O 0.14774 0.48585 0.3012 0.0
O423 O 0.17223 0.48339 0.31955 0.0
C424 C 0.17411 0.42314 0.38402 0.0
C425 C 0.16546 0.4341 0.39733 0.0
H426 H 0.14753 0.45881 0.41901 0.0
H427 H 0.13712 0.48947 0.40882 0.0
H428 H 0.19218 0.41918 0.32353 0.0
H429 H 0.1892 0.40569 0.35453 0.0
H430 H 0.17856 0.40949 0.38763 0.0
H431 H 0.16332 0.42867 0.41094 0.0
Mn432 Mn 0.51008 0.86825 0.68219 0.0
Mn433 Mn 0.51378 0.82972 0.65731 0.0
C434 C 0.53849 0.85914 0.67111 0.0
C435 C 0.50489 0.89963 0.68337 0.0
C436 C 0.50806 0.82995 0.69848 0.0
O437 O 0.48382 0.86323 0.67429 0.0
O438 O 0.48839 0.83918 0.65559 0.0
C439 C 0.50805 0.84471 0.62016 0.0
N440 N 0.51875 0.83556 0.63234 0.0
C441 C 0.54129 0.82929 0.60924 0.0
C442 C 0.53048 0.83857 0.59642 0.0
C443 C 0.51385 0.84643 0.60194 0.0
C444 C 0.53494 0.82827 0.62726 0.0
H445 H 0.49514 0.85056 0.62431 0.0
C446 C 0.47809 0.85138 0.6628 0.0
O447 O 0.50206 0.88936 0.69758 0.0
O448 O 0.51029 0.89165 0.66851 0.0
N449 N 0.53775 0.81926 0.65764 0.0
C450 C 0.5464 0.81045 0.67159 0.0
C451 C 0.56335 0.80202 0.66838 0.0
C452 C 0.5711 0.80251 0.65082 0.0
C453 C 0.56178 0.81135 0.63659 0.0
C454 C 0.54496 0.81957 0.64062 0.0
H455 H 0.54041 0.80981 0.68507 0.0
O456 O 0.5373 0.87014 0.68499 0.0
O457 O 0.52297 0.85374 0.66447 0.0
O458 O 0.50887 0.84723 0.70067 0.0
O459 O 0.50913 0.82225 0.68284 0.0
C460 C 0.56845 0.81221 0.61854 0.0
C461 C 0.55818 0.82109 0.60486 0.0
H462 H 0.53486 0.83984 0.58233 0.0
H463 H 0.50545 0.85366 0.59214 0.0
H464 H 0.57038 0.7951 0.6794 0.0
H465 H 0.58417 0.79598 0.64839 0.0
H466 H 0.58144 0.80604 0.61502 0.0
H467 H 0.56345 0.82167 0.59104 0.0
Mn468 Mn 0.12879 0.51418 0.67929 0.0
Mn469 Mn 0.16714 0.51489 0.65373 0.0
C470 C 0.13821 0.54096 0.66523 0.0
C471 C 0.09741 0.50957 0.6819 0.0
C472 C 0.16743 0.51407 0.69516 0.0
O473 O 0.13317 0.48716 0.67396 0.0
O474 O 0.15797 0.48945 0.65576 0.0
C475 C 0.15151 0.5039 0.61806 0.0
N476 N 0.16091 0.5162 0.6284 0.0
C477 C 0.16639 0.5354 0.60227 0.0
C478 C 0.15683 0.52291 0.59132 0.0
C479 C 0.14927 0.50714 0.59927 0.0
C480 C 0.16801 0.53153 0.62094 0.0
H481 H 0.14581 0.49168 0.62409 0.0
C482 C 0.14544 0.48013 0.6637 0.0
O483 O 0.10809 0.50842 0.69603 0.0
O484 O 0.10502 0.51314 0.66628 0.0
N485 N 0.17724 0.53881 0.6505 0.0
C486 C 0.18542 0.54982 0.6631 0.0
C487 C 0.19317 0.56646 0.65747 0.0
C488 C 0.19266 0.57146 0.63893 0.0
C489 C 0.18434 0.5598 0.6262 0.0
C490 C 0.17671 0.54348 0.63263 0.0
H491 H 0.186 0.54596 0.67733 0.0
O492 O 0.12744 0.5416 0.67932 0.0
O493 O 0.14315 0.52477 0.65999 0.0
O494 O 0.15015 0.51451 0.69739 0.0
O495 O 0.17504 0.51393 0.67946 0.0
C496 C 0.18332 0.56373 0.60738 0.0
C497 C 0.17434 0.55154 0.59542 0.0
H498 H 0.15515 0.52533 0.5768 0.0
H499 H 0.14184 0.49746 0.59091 0.0
H500 H 0.19959 0.57537 0.66738 0.0
H501 H 0.19867 0.58429 0.63463 0.0
H502 H 0.18918 0.57622 0.60198 0.0
H503 H 0.17343 0.55484 0.58101 0.0
Mn504 Mn 0.48672 0.12739 0.67937 0.0
Mn505 Mn 0.48422 0.16655 0.65514 0.0
C506 C 0.45884 0.13745 0.66803 0.0
C507 C 0.49072 0.09585 0.68074 0.0
C508 C 0.48904 0.16555 0.6963 0.0
O509 O 0.51316 0.1315 0.67146 0.0
O510 O 0.50958 0.15696 0.6544 0.0
C511 C 0.49142 0.15204 0.61803 0.0
N512 N 0.48039 0.1613 0.62983 0.0
C513 C 0.45852 0.16742 0.60604 0.0
C514 C 0.46967 0.15798 0.59362 0.0
C515 C 0.48617 0.15023 0.59966 0.0
C516 C 0.46448 0.1688 0.62418 0.0
H517 H 0.50411 0.14606 0.62262 0.0
C518 C 0.51941 0.14403 0.661 0.0
O519 O 0.49387 0.10612 0.69487 0.0
O520 O 0.48571 0.10391 0.66577 0.0
N521 N 0.46027 0.17701 0.65462 0.0
C522 C 0.45061 0.18471 0.66856 0.0
C523 C 0.43368 0.19293 0.66489 0.0
C524 C 0.42689 0.1932 0.64694 0.0
C525 C 0.43697 0.18499 0.63284 0.0
C526 C 0.45386 0.17718 0.6373 0.0
H527 H 0.45584 0.18467 0.68236 0.0
O528 O 0.45939 0.12652 0.68201 0.0
O529 O 0.47458 0.14244 0.66156 0.0
O530 O 0.48859 0.14822 0.69806 0.0
O531 O 0.48777 0.1736 0.68088 0.0
C532 C 0.43088 0.18411 0.61459 0.0
C533 C 0.44159 0.17525 0.60122 0.0
H534 H 0.46563 0.1565 0.57945 0.0
H535 H 0.49481 0.14287 0.59017 0.0
H536 H 0.42591 0.19913 0.67585 0.0
H537 H 0.41385 0.19964 0.64416 0.0
H538 H 0.41786 0.19001 0.61072 0.0
H539 H 0.43662 0.17441 0.58729 0.0
Mn540 Mn 0.87125 0.48862 0.67639 0.0
Mn541 Mn 0.83414 0.48303 0.6497 0.0
C542 C 0.86422 0.46005 0.66482 0.0
C543 C 0.90218 0.49554 0.67925 0.0
C544 C 0.83218 0.48826 0.69088 0.0
O545 O 0.86508 0.51463 0.66852 0.0
O546 O 0.842 0.50905 0.64886 0.0
C547 C 0.8506 0.49038 0.61346 0.0
N548 N 0.84137 0.47897 0.62492 0.0
C549 C 0.83895 0.45596 0.60152 0.0
C550 C 0.84834 0.46751 0.58944 0.0
C551 C 0.85423 0.48477 0.59546 0.0
C552 C 0.83567 0.46232 0.61928 0.0
H553 H 0.85519 0.50364 0.61804 0.0
C554 C 0.85334 0.51989 0.6567 0.0
O555 O 0.89105 0.49734 0.69298 0.0
O556 O 0.89523 0.49013 0.66388 0.0
N557 N 0.82547 0.45834 0.64916 0.0
C558 C 0.81765 0.4484 0.66284 0.0
C559 C 0.81153 0.43056 0.65924 0.0
C560 C 0.81343 0.42316 0.64162 0.0
C561 C 0.82145 0.43367 0.62774 0.0
C562 C 0.8272 0.4514 0.63211 0.0
H563 H 0.81615 0.45402 0.6764 0.0
O564 O 0.87453 0.46154 0.67917 0.0
O565 O 0.85835 0.47528 0.65787 0.0
O566 O 0.84937 0.48843 0.69379 0.0
O567 O 0.8252 0.48675 0.67494 0.0
C568 C 0.82423 0.42715 0.60983 0.0
C569 C 0.83303 0.43826 0.59675 0.0
H570 H 0.85125 0.4632 0.57558 0.0
H571 H 0.86156 0.49373 0.58624 0.0
H572 H 0.8054 0.42251 0.67004 0.0
H573 H 0.8088 0.40936 0.63894 0.0
H574 H 0.81987 0.41352 0.60602 0.0
H575 H 0.83537 0.43297 0.58311 0.0
Mn576 Mn 0.31633 0.51221 0.12694 0.0
Mn577 Mn 0.34145 0.52019 0.16473 0.0
C578 C 0.32624 0.54147 0.13354 0.0
C579 C 0.31486 0.50472 0.09604 0.0
C580 C 0.30057 0.51325 0.16565 0.0
O581 O 0.3255 0.48684 0.13376 0.0
O582 O 0.34312 0.49385 0.15811 0.0
C583 C 0.37831 0.51302 0.14964 0.0
N584 N 0.36632 0.52455 0.15799 0.0
C585 C 0.389 0.54832 0.15978 0.0
C586 C 0.40162 0.53665 0.15129 0.0
C587 C 0.39624 0.51894 0.14617 0.0
C588 C 0.37135 0.54162 0.16298 0.0
H589 H 0.37422 0.49941 0.14563 0.0
C590 C 0.33654 0.48242 0.14654 0.0
O591 O 0.30091 0.50221 0.10676 0.0
O592 O 0.32964 0.5111 0.10341 0.0
N593 N 0.34115 0.54525 0.17229 0.0
C594 C 0.32702 0.55517 0.17928 0.0
C595 C 0.32997 0.57339 0.18455 0.0
C596 C 0.34741 0.5812 0.18267 0.0
C597 C 0.36176 0.5707 0.17551 0.0
C598 C 0.35803 0.55258 0.17059 0.0
H599 H 0.31358 0.54924 0.18074 0.0
O600 O 0.31217 0.53902 0.12304 0.0
O601 O 0.33376 0.52676 0.14001 0.0
O602 O 0.2983 0.51178 0.14841 0.0
O603 O 0.31611 0.51624 0.17303 0.0
C604 C 0.37953 0.5776 0.17277 0.0
C605 C 0.39313 0.56644 0.16487 0.0
H606 H 0.41542 0.54121 0.14848 0.0
H607 H 0.40587 0.50989 0.13954 0.0
H608 H 0.31881 0.58142 0.19001 0.0
H609 H 0.34959 0.59529 0.18663 0.0
H610 H 0.38284 0.59155 0.17648 0.0
H611 H 0.40665 0.572 0.16256 0.0
Mn612 Mn 0.32051 0.48717 0.86946 0.0
Mn613 Mn 0.34582 0.4836 0.83114 0.0
C614 C 0.33166 0.45891 0.86048 0.0
C615 C 0.31832 0.4923 0.90078 0.0
C616 C 0.30471 0.48941 0.83103 0.0
O617 O 0.3285 0.51345 0.86456 0.0
O618 O 0.34742 0.50902 0.8406 0.0
C619 C 0.38289 0.48934 0.84628 0.0
N620 N 0.37082 0.47873 0.8369 0.0
C621 C 0.39373 0.45575 0.8315 0.0
C622 C 0.40644 0.46645 0.84106 0.0
C623 C 0.40098 0.4833 0.84851 0.0
C624 C 0.37592 0.4625 0.82967 0.0
H625 H 0.37874 0.50228 0.85204 0.0
C626 C 0.34006 0.51926 0.85279 0.0
O627 O 0.30447 0.49497 0.89001 0.0
O628 O 0.33352 0.4871 0.89327 0.0
N629 N 0.3455 0.45954 0.8209 0.0
C630 C 0.33129 0.45038 0.81311 0.0
C631 C 0.33435 0.43314 0.80525 0.0
C632 C 0.35197 0.42554 0.80546 0.0
C633 C 0.36635 0.43514 0.81374 0.0
C634 C 0.36252 0.45236 0.82115 0.0
H635 H 0.31774 0.4562 0.81281 0.0
O636 O 0.31756 0.45998 0.87121 0.0
O637 O 0.33855 0.47442 0.85522 0.0
O638 O 0.30242 0.48842 0.84826 0.0
O639 O 0.32038 0.48829 0.82343 0.0
C640 C 0.38427 0.42822 0.81512 0.0
C641 C 0.39794 0.43848 0.82405 0.0
H642 H 0.42037 0.46181 0.84289 0.0
H643 H 0.41069 0.49161 0.85596 0.0
H644 H 0.32317 0.42576 0.79899 0.0
H645 H 0.35427 0.41227 0.79931 0.0
H646 H 0.38764 0.41491 0.80956 0.0
H647 H 0.41159 0.43289 0.82527 0.0
Mn648 Mn 0.50933 0.31987 0.87098 0.0
Mn649 Mn 0.51089 0.34454 0.83212 0.0
C650 C 0.53656 0.33303 0.86136 0.0
C651 C 0.50454 0.31829 0.90245 0.0
C652 C 0.5084 0.3031 0.8328 0.0
O653 O 0.48245 0.32578 0.86621 0.0
O654 O 0.4855 0.34406 0.84157 0.0
C655 C 0.50181 0.38115 0.84677 0.0
N656 N 0.51353 0.36992 0.83766 0.0
C657 C 0.53391 0.39489 0.83119 0.0
C658 C 0.52204 0.40676 0.84045 0.0
C659 C 0.50597 0.39983 0.84836 0.0
C660 C 0.52917 0.37638 0.83025 0.0
H661 H 0.48935 0.37592 0.85271 0.0
C662 C 0.47582 0.33646 0.85406 0.0
O663 O 0.50293 0.30391 0.89215 0.0
O664 O 0.50857 0.33356 0.89441 0.0
N665 N 0.53487 0.34624 0.82183 0.0
C666 C 0.54518 0.33288 0.81395 0.0
C667 C 0.56204 0.33743 0.80597 0.0
C668 C 0.56799 0.35569 0.80594 0.0
C669 C 0.55704 0.36923 0.81395 0.0
C670 C 0.54046 0.36386 0.82184 0.0
H671 H 0.54059 0.31885 0.81377 0.0
O672 O 0.53679 0.31923 0.87252 0.0
O673 O 0.52052 0.33844 0.8562 0.0
O674 O 0.5093 0.30121 0.85011 0.0
O675 O 0.50849 0.31866 0.82488 0.0
C676 C 0.56191 0.38786 0.81438 0.0
C677 C 0.55028 0.4007 0.82288 0.0
H678 H 0.52515 0.42119 0.84161 0.0
H679 H 0.49675 0.40889 0.85556 0.0
H680 H 0.57039 0.3269 0.79978 0.0
H681 H 0.58098 0.35915 0.79974 0.0
H682 H 0.57462 0.39245 0.80833 0.0
H683 H 0.55422 0.41497 0.82322 0.0
Mn684 Mn 0.67989 0.51257 0.86755 0.0
Mn685 Mn 0.65366 0.51702 0.82991 0.0
C686 C 0.66854 0.54088 0.85925 0.0
C687 C 0.68248 0.50719 0.89877 0.0
C688 C 0.69477 0.51209 0.82841 0.0
O689 O 0.6716 0.48645 0.86271 0.0
O690 O 0.65371 0.49106 0.83801 0.0
C691 C 0.61769 0.50861 0.84645 0.0
N692 N 0.62876 0.52032 0.83712 0.0
C693 C 0.60468 0.54261 0.8347 0.0
C694 C 0.593 0.53075 0.84421 0.0
C695 C 0.59955 0.51369 0.85014 0.0
C696 C 0.6226 0.53677 0.83137 0.0
H697 H 0.62268 0.49551 0.85109 0.0
C698 C 0.66082 0.48071 0.85024 0.0
O699 O 0.69621 0.50435 0.88785 0.0
O700 O 0.6673 0.51268 0.89151 0.0
N701 N 0.65227 0.54157 0.82093 0.0
C702 C 0.66557 0.55183 0.81288 0.0
C703 C 0.66139 0.56949 0.80662 0.0
C704 C 0.64358 0.57638 0.80861 0.0
C705 C 0.63009 0.56554 0.81685 0.0
C706 C 0.63504 0.548 0.82274 0.0
H707 H 0.67928 0.54659 0.81132 0.0
O708 O 0.68298 0.53975 0.8695 0.0
O709 O 0.66156 0.52546 0.85398 0.0
O710 O 0.69738 0.51141 0.84565 0.0
O711 O 0.679 0.51411 0.82118 0.0
C712 C 0.61201 0.57154 0.8197 0.0
C713 C 0.59934 0.56011 0.82869 0.0
H714 H 0.57903 0.53465 0.84716 0.0
H715 H 0.59065 0.50449 0.85755 0.0
H716 H 0.67188 0.57779 0.80031 0.0
H717 H 0.64044 0.59006 0.80388 0.0
H718 H 0.60776 0.585 0.81524 0.0
H719 H 0.58556 0.565 0.83106 0.0
Mn720 Mn 0.48778 0.67609 0.87417 0.0
Mn721 Mn 0.48197 0.65132 0.83574 0.0
C722 C 0.45903 0.66552 0.86624 0.0
C723 C 0.49423 0.67707 0.90533 0.0
C724 C 0.48791 0.69245 0.83574 0.0
O725 O 0.51366 0.66789 0.86794 0.0
O726 O 0.50797 0.64992 0.84355 0.0
C727 C 0.48898 0.61436 0.85065 0.0
N728 N 0.4777 0.62629 0.84188 0.0
C729 C 0.45454 0.6032 0.83834 0.0
C730 C 0.46595 0.59064 0.84724 0.0
C731 C 0.48322 0.59626 0.85346 0.0
C732 C 0.46103 0.62104 0.83588 0.0
H733 H 0.50225 0.61863 0.85549 0.0
C734 C 0.51884 0.65685 0.85544 0.0
O735 O 0.49687 0.69129 0.895 0.0
O736 O 0.48834 0.66232 0.89749 0.0
N737 N 0.45732 0.65136 0.82698 0.0
C738 C 0.44755 0.66543 0.81967 0.0
C739 C 0.42973 0.66223 0.81328 0.0
C740 C 0.4222 0.6446 0.81436 0.0
C741 C 0.43256 0.63031 0.82186 0.0
C742 C 0.45026 0.6343 0.82793 0.0
H743 H 0.45328 0.679 0.81878 0.0
O744 O 0.4607 0.67937 0.87721 0.0
O745 O 0.47419 0.65856 0.86022 0.0
O746 O 0.48839 0.69454 0.85307 0.0
O747 O 0.48589 0.6769 0.82802 0.0
C748 C 0.42591 0.61233 0.82377 0.0
C749 C 0.43686 0.5988 0.83208 0.0
H750 H 0.46153 0.57668 0.84951 0.0
H751 H 0.49207 0.58666 0.86043 0.0
H752 H 0.42181 0.67333 0.80756 0.0
H753 H 0.40842 0.64221 0.80952 0.0
H754 H 0.41232 0.6088 0.8191 0.0
H755 H 0.43148 0.58511 0.83376 0.0
Mn756 Mn 0.68065 0.489 0.12608 0.0
Mn757 Mn 0.65548 0.48611 0.16461 0.0
C758 C 0.66992 0.46091 0.13602 0.0
C759 C 0.68274 0.49263 0.09458 0.0
C760 C 0.69645 0.49186 0.16474 0.0
O761 O 0.67196 0.51523 0.1297 0.0
O762 O 0.65492 0.51161 0.15523 0.0
C763 C 0.61884 0.49297 0.14889 0.0
N764 N 0.63041 0.48204 0.15853 0.0
C765 C 0.60673 0.45977 0.16357 0.0
C766 C 0.59453 0.47082 0.15375 0.0
C767 C 0.60062 0.48747 0.14635 0.0
C768 C 0.6247 0.46599 0.1657 0.0
H769 H 0.62349 0.50576 0.14315 0.0
C770 C 0.6616 0.5214 0.14232 0.0
O771 O 0.69651 0.49636 0.10515 0.0
O772 O 0.66772 0.48734 0.10233 0.0
N773 N 0.65486 0.46213 0.17499 0.0
C774 C 0.66862 0.45264 0.1832 0.0
C775 C 0.66487 0.43562 0.19122 0.0
C776 C 0.64703 0.42856 0.19074 0.0
C777 C 0.63314 0.43847 0.182 0.0
C778 C 0.63763 0.45548 0.1745 0.0
H779 H 0.68233 0.45807 0.18372 0.0
O780 O 0.68421 0.46183 0.12553 0.0
O781 O 0.66276 0.47647 0.14072 0.0
O782 O 0.69866 0.49163 0.14744 0.0
O783 O 0.68091 0.48993 0.17241 0.0
C784 C 0.61505 0.43207 0.18031 0.0
C785 C 0.60188 0.44268 0.17103 0.0
H786 H 0.58049 0.46659 0.15169 0.0
H787 H 0.5913 0.49604 0.13869 0.0
H788 H 0.67568 0.42799 0.19783 0.0
H789 H 0.64418 0.41548 0.19706 0.0
H790 H 0.61118 0.41891 0.18589 0.0
H791 H 0.58808 0.4375 0.16959 0.0
Mn792 Mn 0.50658 0.67374 0.13327 0.0
Mn793 Mn 0.50391 0.65061 0.17306 0.0
C794 C 0.53277 0.66119 0.14608 0.0
C795 C 0.50501 0.67465 0.1015 0.0
C796 C 0.50193 0.69192 0.17047 0.0
O797 O 0.47931 0.66798 0.13543 0.0
O798 O 0.47968 0.65089 0.16104 0.0
C799 C 0.49578 0.61342 0.15934 0.0
N800 N 0.5065 0.62493 0.16929 0.0
C801 C 0.5242 0.59983 0.18103 0.0
C802 C 0.51335 0.58769 0.17091 0.0
C803 C 0.49917 0.59453 0.15992 0.0
C804 C 0.52038 0.61852 0.17966 0.0
H805 H 0.48467 0.61862 0.15113 0.0
C806 C 0.47138 0.65794 0.14733 0.0
O807 O 0.50214 0.68917 0.11128 0.0
O808 O 0.50841 0.65954 0.11014 0.0
N809 N 0.52651 0.64907 0.18605 0.0
C810 C 0.53653 0.66272 0.19379 0.0
C811 C 0.55177 0.65825 0.20456 0.0
C812 C 0.55629 0.63982 0.20758 0.0
C813 C 0.54571 0.62603 0.1995 0.0
C814 C 0.53095 0.63132 0.18857 0.0
H815 H 0.53285 0.67688 0.19182 0.0
O816 O 0.53388 0.67466 0.13456 0.0
O817 O 0.51634 0.65554 0.1498 0.0
O818 O 0.50458 0.69317 0.15332 0.0
O819 O 0.50109 0.67674 0.17899 0.0
C820 C 0.54921 0.60724 0.20186 0.0
C821 C 0.53861 0.59415 0.19246 0.0
H822 H 0.51581 0.57309 0.17146 0.0
H823 H 0.49074 0.58525 0.15207 0.0
H824 H 0.55988 0.66898 0.21073 0.0
H825 H 0.56794 0.63642 0.21605 0.0
H826 H 0.56028 0.6027 0.21058 0.0
H827 H 0.54174 0.57976 0.19402 0.0
Mn828 Mn 0.49042 0.32304 0.12973 0.0
Mn829 Mn 0.49001 0.34882 0.16782 0.0
C830 C 0.46336 0.33613 0.13984 0.0
C831 C 0.49454 0.3207 0.09822 0.0
C832 C 0.49381 0.30752 0.16801 0.0
O833 O 0.51742 0.32935 0.13374 0.0
O834 O 0.51476 0.34952 0.15693 0.0
C835 C 0.49604 0.38561 0.15211 0.0
N836 N 0.48552 0.37388 0.16202 0.0
C837 C 0.46399 0.39769 0.16913 0.0
C838 C 0.47462 0.41006 0.15905 0.0
C839 C 0.49066 0.40396 0.15041 0.0
C840 C 0.46993 0.37953 0.17015 0.0
H841 H 0.50848 0.381 0.14562 0.0
C842 C 0.52418 0.34117 0.14473 0.0
O843 O 0.49649 0.30661 0.10885 0.0
O844 O 0.49052 0.33615 0.10596 0.0
N845 N 0.46653 0.34928 0.17935 0.0
C846 C 0.45741 0.33543 0.18784 0.0
C847 C 0.44069 0.33909 0.19655 0.0
C848 C 0.43365 0.35696 0.19662 0.0
C849 C 0.44336 0.37101 0.18791 0.0
C850 C 0.45988 0.36651 0.17934 0.0
H851 H 0.46283 0.32171 0.18797 0.0
O852 O 0.46294 0.32215 0.12891 0.0
O853 O 0.4795 0.34176 0.14439 0.0
O854 O 0.49101 0.30493 0.15103 0.0
O855 O 0.49453 0.32329 0.17544 0.0
C856 C 0.43731 0.38928 0.18738 0.0
C857 C 0.44772 0.40264 0.17815 0.0
H858 H 0.47055 0.42424 0.15778 0.0
H859 H 0.49891 0.41341 0.14257 0.0
H860 H 0.43328 0.32818 0.20325 0.0
H861 H 0.42077 0.35973 0.20337 0.0
H862 H 0.42463 0.3932 0.19395 0.0
H863 H 0.44291 0.41665 0.17781 0.0
H864 H 0.1422 0.42223 0.31808 0.0
H865 H 0.14161 0.39399 0.33653 0.0
H866 H 0.12291 0.4251 0.38307 0.0
H867 H 0.12306 0.45285 0.36468 0.0
H868 H 0.16114 0.386 0.36633 0.0
H869 H 0.08858 0.38266 0.38523 0.0
H870 H 0.09667 0.39702 0.36683 0.0
H871 H 0.09691 0.40514 0.39013 0.0
C872 C 0.13783 0.42284 0.33221 0.0
C873 C 0.13316 0.43963 0.34022 0.0
C874 C 0.13744 0.40678 0.34269 0.0
C875 C 0.13188 0.40736 0.36109 0.0
C876 C 0.12674 0.42416 0.3688 0.0
H877 H 0.16749 0.36662 0.4584 0.0
H878 H 0.16359 0.37746 0.42736 0.0
C879 C 0.12716 0.44008 0.35839 0.0
C880 C 0.1329 0.391 0.37301 0.0
H881 H 0.11007 0.3708 0.40826 0.0
C882 C 0.14985 0.38233 0.37521 0.0
C883 C 0.11803 0.38565 0.38418 0.0
C884 C 0.09899 0.393 0.38128 0.0
C885 C 0.15289 0.37008 0.38965 0.0
C886 C 0.13865 0.36667 0.40232 0.0
C887 C 0.12115 0.37371 0.39884 0.0
C888 C 0.14217 0.35824 0.42044 0.0
C889 C 0.17155 0.36156 0.3916 0.0
C890 C 0.13115 0.34402 0.42716 0.0
C891 C 0.13314 0.3379 0.44521 0.0
C892 C 0.14613 0.346 0.45687 0.0
C893 C 0.15739 0.35994 0.44988 0.0
C894 C 0.15534 0.36606 0.43197 0.0
H895 H 0.17784 0.3592 0.37798 0.0
H896 H 0.1806 0.37107 0.3992 0.0
H897 H 0.17095 0.34836 0.39907 0.0
H898 H 0.12073 0.33794 0.41857 0.0
H899 H 0.12422 0.32716 0.45013 0.0
H900 H 0.65937 0.17614 0.45287 0.0
H901 H 0.64236 0.17481 0.42415 0.0
H902 H 0.64344 0.11591 0.42611 0.0
H903 H 0.66095 0.11713 0.45465 0.0
H904 H 0.64339 0.13156 0.38918 0.0
H905 H 0.58906 0.1586 0.43489 0.0
H906 H 0.6092 0.17256 0.43365 0.0
H907 H 0.61052 0.15007 0.44348 0.0
C908 C 0.65656 0.16291 0.44683 0.0
C909 C 0.66122 0.14674 0.45609 0.0
C910 C 0.64684 0.16217 0.43044 0.0
C911 C 0.64132 0.14527 0.42328 0.0
C912 C 0.64756 0.12908 0.43147 0.0
H913 H 0.53754 0.12877 0.37068 0.0
H914 H 0.56438 0.12862 0.39045 0.0
C915 C 0.65757 0.12981 0.44777 0.0
C916 C 0.62655 0.14457 0.40948 0.0
H917 H 0.5815 0.15453 0.40415 0.0
C918 C 0.62985 0.13673 0.39228 0.0
C919 C 0.60881 0.15085 0.41383 0.0
C920 C 0.60406 0.15834 0.43251 0.0
C921 C 0.61582 0.13525 0.37917 0.0
C922 C 0.59818 0.14215 0.38334 0.0
C923 C 0.59502 0.14971 0.40068 0.0
C924 C 0.58243 0.14108 0.37049 0.0
C925 C 0.6199 0.12569 0.36136 0.0
C926 C 0.58352 0.14801 0.35257 0.0
C927 C 0.56818 0.14765 0.34108 0.0
C928 C 0.5514 0.14115 0.34767 0.0
C929 C 0.5503 0.13421 0.36548 0.0
C930 C 0.56566 0.13408 0.37674 0.0
H931 H 0.63181 0.11636 0.36266 0.0
H932 H 0.60797 0.11765 0.35655 0.0
H933 H 0.6233 0.13605 0.35081 0.0
H934 H 0.59607 0.154 0.34755 0.0
H935 H 0.56928 0.15291 0.32728 0.0
H936 H 0.82365 0.65654 0.45913 0.0
H937 H 0.82361 0.64021 0.42997 0.0
H938 H 0.88244 0.6432 0.42807 0.0
H939 H 0.88254 0.66015 0.45696 0.0
H940 H 0.86605 0.64412 0.39297 0.0
H941 H 0.83998 0.58711 0.43584 0.0
H942 H 0.82564 0.60701 0.4359 0.0
H943 H 0.84823 0.6082 0.44553 0.0
C944 C 0.83654 0.65419 0.45222 0.0
C945 C 0.85312 0.65935 0.46042 0.0
C946 C 0.8365 0.64483 0.43559 0.0
C947 C 0.85304 0.64009 0.42714 0.0
C948 C 0.86952 0.64666 0.43443 0.0
H949 H 0.87035 0.53957 0.36941 0.0
H950 H 0.86976 0.56547 0.39036 0.0
C951 C 0.86956 0.65634 0.45094 0.0
C952 C 0.85331 0.62614 0.41246 0.0
H953 H 0.84339 0.58142 0.40462 0.0
C954 C 0.86093 0.63042 0.39536 0.0
C955 C 0.84709 0.60815 0.41583 0.0
C956 C 0.83994 0.60223 0.43431 0.0
C957 C 0.86237 0.61715 0.38148 0.0
C958 C 0.85563 0.59926 0.38472 0.0
C959 C 0.84812 0.59513 0.40188 0.0
C960 C 0.85705 0.58414 0.37115 0.0
C961 C 0.87181 0.62225 0.36386 0.0
C962 C 0.85027 0.58591 0.35322 0.0
C963 C 0.85108 0.57111 0.34104 0.0
C964 C 0.85789 0.55419 0.34692 0.0
C965 C 0.86469 0.55244 0.36473 0.0
C966 C 0.86438 0.56726 0.37668 0.0
H967 H 0.8809 0.63428 0.36569 0.0
H968 H 0.88008 0.61071 0.3585 0.0
H969 H 0.86137 0.62591 0.3535 0.0
H970 H 0.84406 0.59855 0.34873 0.0
H971 H 0.8459 0.57272 0.32726 0.0
H972 H 0.3522 0.82095 0.46272 0.0
H973 H 0.369 0.82068 0.43382 0.0
H974 H 0.3643 0.87935 0.43043 0.0
H975 H 0.34685 0.87965 0.459 0.0
H976 H 0.36325 0.86315 0.39635 0.0
H977 H 0.4217 0.83707 0.43714 0.0
H978 H 0.40205 0.82243 0.4376 0.0
H979 H 0.40081 0.84489 0.44757 0.0
C980 C 0.35439 0.83375 0.4556 0.0
C981 C 0.34845 0.85035 0.46324 0.0
C982 C 0.36405 0.83358 0.43913 0.0
C983 C 0.36836 0.85004 0.43027 0.0
C984 C 0.36123 0.8665 0.43712 0.0
H985 H 0.46627 0.87126 0.36981 0.0
H986 H 0.44127 0.8685 0.39168 0.0
C987 C 0.35126 0.86665 0.45344 0.0
C988 C 0.38189 0.85034 0.41516 0.0
H989 H 0.42641 0.84071 0.40574 0.0
C990 C 0.37706 0.8581 0.39828 0.0
C991 C 0.4 0.84412 0.41787 0.0
C992 C 0.40655 0.83683 0.43606 0.0
C993 C 0.38989 0.85985 0.38403 0.0
C994 C 0.40791 0.85323 0.38664 0.0
C995 C 0.41259 0.84541 0.40352 0.0
C996 C 0.42264 0.85537 0.37275 0.0
C997 C 0.38419 0.8695 0.36672 0.0
C998 C 0.42062 0.84894 0.35472 0.0
C999 C 0.43489 0.85089 0.34206 0.0
C1000 C 0.45159 0.85856 0.3475 0.0
C1001 C 0.45362 0.86493 0.36546 0.0
C1002 C 0.4393 0.86339 0.37792 0.0
H1003 H 0.37194 0.8782 0.36893 0.0
H1004 H 0.39539 0.87822 0.36134 0.0
H1005 H 0.38068 0.85918 0.35618 0.0
H1006 H 0.40814 0.84224 0.35048 0.0
H1007 H 0.43305 0.84605 0.32819 0.0
H1008 H 0.15116 0.57547 0.67193 0.0
H1009 H 0.15279 0.60094 0.65002 0.0
H1010 H 0.12683 0.56713 0.60915 0.0
H1011 H 0.12652 0.54156 0.63051 0.0
H1012 H 0.15302 0.58259 0.59444 0.0
H1013 H 0.11629 0.63662 0.6324 0.0
H1014 H 0.13575 0.62842 0.64482 0.0
H1015 H 0.11696 0.61322 0.64013 0.0
C1016 C 0.14587 0.57364 0.65822 0.0
C1017 C 0.13911 0.55659 0.65266 0.0
C1018 C 0.14654 0.58822 0.64579 0.0
C1019 C 0.13964 0.58615 0.62795 0.0
C1020 C 0.1323 0.56916 0.62276 0.0
H1021 H 0.11779 0.66065 0.53939 0.0
H1022 H 0.11617 0.64436 0.56864 0.0
C1023 C 0.13215 0.55453 0.63494 0.0
C1024 C 0.14114 0.60098 0.61408 0.0
H1025 H 0.13182 0.64598 0.60519 0.0
C1026 C 0.1486 0.59645 0.59699 0.0
C1027 C 0.13474 0.61904 0.61704 0.0
C1028 C 0.12531 0.62458 0.63452 0.0
C1029 C 0.15012 0.60929 0.58294 0.0
C1030 C 0.14434 0.62746 0.58608 0.0
C1031 C 0.1366 0.63211 0.60301 0.0
C1032 C 0.14545 0.64126 0.57134 0.0
C1033 C 0.15746 0.60308 0.56464 0.0
C1034 C 0.16247 0.64577 0.56376 0.0
C1035 C 0.16342 0.65477 0.54698 0.0
C1036 C 0.14736 0.65974 0.53769 0.0
C1037 C 0.13038 0.65699 0.54626 0.0
C1038 C 0.12944 0.6477 0.56297 0.0
H1039 H 0.15722 0.58795 0.56325 0.0
H1040 H 0.14944 0.60909 0.55324 0.0
H1041 H 0.17185 0.60764 0.56321 0.0
H1042 H 0.17499 0.64115 0.57019 0.0
H1043 H 0.1767 0.65693 0.54078 0.0
H1044 H 0.36549 0.16622 0.53545 0.0
H1045 H 0.37825 0.16306 0.56597 0.0
H1046 H 0.34215 0.11774 0.57677 0.0
H1047 H 0.32937 0.12055 0.54592 0.0
H1048 H 0.36287 0.16368 0.6013 0.0
H1049 H 0.39321 0.09589 0.58431 0.0
H1050 H 0.3838 0.11065 0.56696 0.0
H1051 H 0.36887 0.09829 0.58202 0.0
C1052 C 0.36008 0.15563 0.54428 0.0
C1053 C 0.34652 0.14349 0.53807 0.0
C1054 C 0.36737 0.15392 0.56181 0.0
C1055 C 0.36131 0.14004 0.57355 0.0
C1056 C 0.34721 0.12838 0.5678 0.0
H1057 H 0.42325 0.14357 0.67852 0.0
H1058 H 0.39596 0.14238 0.6588 0.0
C1059 C 0.33989 0.13005 0.55018 0.0
C1060 C 0.37091 0.13728 0.59118 0.0
H1061 H 0.40237 0.10961 0.61158 0.0
C1062 C 0.37135 0.15177 0.60376 0.0
C1063 C 0.38176 0.12162 0.59438 0.0
C1064 C 0.38206 0.10572 0.58122 0.0
C1065 C 0.38337 0.15162 0.61874 0.0
C1066 C 0.39517 0.13647 0.62125 0.0
C1067 C 0.39354 0.12134 0.60951 0.0
C1068 C 0.41111 0.13698 0.6339 0.0
C1069 C 0.3839 0.16812 0.63106 0.0
C1070 C 0.42859 0.13373 0.62669 0.0
C1071 C 0.44391 0.13395 0.63793 0.0
C1072 C 0.4423 0.1381 0.65656 0.0
C1073 C 0.42485 0.14095 0.66404 0.0
C1074 C 0.40931 0.14035 0.65277 0.0
H1075 H 0.37736 0.18025 0.62467 0.0
H1076 H 0.37645 0.16498 0.6439 0.0
H1077 H 0.39812 0.17169 0.63467 0.0
H1078 H 0.43044 0.13099 0.61225 0.0
H1079 H 0.4571 0.13075 0.63201 0.0
H1080 H 0.85528 0.42541 0.67587 0.0
H1081 H 0.85617 0.3974 0.6571 0.0
H1082 H 0.87539 0.4291 0.61117 0.0
H1083 H 0.87496 0.45664 0.62991 0.0
H1084 H 0.83719 0.38956 0.62678 0.0
H1085 H 0.9103 0.38703 0.6096 0.0
H1086 H 0.90159 0.40125 0.62781 0.0
H1087 H 0.90164 0.40936 0.60451 0.0
C1088 C 0.8598 0.42621 0.6618 0.0
C1089 C 0.86456 0.44311 0.65407 0.0
C1090 C 0.86036 0.41029 0.65113 0.0
C1091 C 0.86616 0.41109 0.63282 0.0
C1092 C 0.87134 0.428 0.62537 0.0
H1093 H 0.83377 0.36577 0.53507 0.0
H1094 H 0.83643 0.37837 0.56559 0.0
C1095 C 0.87078 0.44379 0.63597 0.0
C1096 C 0.86555 0.39479 0.62079 0.0
H1097 H 0.8896 0.37418 0.5866 0.0
C1098 C 0.84876 0.38589 0.61826 0.0
C1099 C 0.88076 0.3895 0.61008 0.0
C1100 C 0.89962 0.39717 0.61332 0.0
C1101 C 0.84631 0.37324 0.60405 0.0
C1102 C 0.86096 0.36967 0.5919 0.0
C1103 C 0.87822 0.37717 0.59563 0.0
C1104 C 0.85821 0.36025 0.57413 0.0
C1105 C 0.82786 0.36432 0.60187 0.0
C1106 C 0.86985 0.34604 0.56849 0.0
C1107 C 0.86858 0.33892 0.55075 0.0
C1108 C 0.85569 0.34595 0.53831 0.0
C1109 C 0.84379 0.35987 0.54423 0.0
C1110 C 0.84515 0.36701 0.56184 0.0
H1111 H 0.82117 0.36238 0.61537 0.0
H1112 H 0.81889 0.37337 0.59363 0.0
H1113 H 0.82891 0.35086 0.59494 0.0
H1114 H 0.88018 0.34074 0.57768 0.0
H1115 H 0.87798 0.32823 0.54667 0.0
H1116 H 0.54235 0.88324 0.64394 0.0
H1117 H 0.56815 0.88694 0.62315 0.0
H1118 H 0.59578 0.84197 0.64963 0.0
H1119 H 0.57104 0.84039 0.6723 0.0
H1120 H 0.61993 0.86331 0.63917 0.0
H1121 H 0.57339 0.85776 0.57992 0.0
H1122 H 0.56992 0.87929 0.59101 0.0
H1123 H 0.56457 0.85839 0.60277 0.0
C1124 C 0.55403 0.87424 0.64532 0.0
C1125 C 0.55442 0.86085 0.65902 0.0
C1126 C 0.5687 0.87622 0.63332 0.0
C1127 C 0.58353 0.86402 0.63398 0.0
C1128 C 0.58435 0.85129 0.64843 0.0
H1129 H 0.65384 0.82824 0.54924 0.0
H1130 H 0.63821 0.832 0.57852 0.0
C1131 C 0.57009 0.8501 0.66119 0.0
C1132 C 0.59793 0.86434 0.61951 0.0
H1133 H 0.60446 0.86496 0.5732 0.0
C1134 C 0.61645 0.86359 0.62477 0.0
C1135 C 0.5936 0.86484 0.60055 0.0
C1136 C 0.57429 0.86494 0.59328 0.0
C1137 C 0.63056 0.8631 0.6117 0.0
C1138 C 0.62606 0.86359 0.593 0.0
C1139 C 0.60775 0.86472 0.58767 0.0
C1140 C 0.63981 0.86149 0.5784 0.0
C1141 C 0.65018 0.86181 0.61779 0.0
C1142 C 0.64638 0.87687 0.56901 0.0
C1143 C 0.65544 0.87478 0.55227 0.0
C1144 C 0.65767 0.85728 0.5446 0.0
C1145 C 0.65223 0.84189 0.55476 0.0
C1146 C 0.64339 0.84399 0.57153 0.0
H1147 H 0.65157 0.86257 0.6329 0.0
H1148 H 0.65611 0.84868 0.61298 0.0
H1149 H 0.65826 0.87302 0.6115 0.0
H1150 H 0.64346 0.89049 0.57403 0.0
H1151 H 0.65937 0.88689 0.54471 0.0
H1152 H 0.31804 0.14667 0.4249 0.0
H1153 H 0.33586 0.14668 0.39625 0.0
H1154 H 0.38284 0.12664 0.4258 0.0
H1155 H 0.36505 0.12616 0.45395 0.0
H1156 H 0.36592 0.16577 0.3877 0.0
H1157 H 0.38282 0.09275 0.38287 0.0
H1158 H 0.36505 0.10112 0.39784 0.0
H1159 H 0.38857 0.10071 0.40529 0.0
C1160 C 0.33216 0.1422 0.42509 0.0
C1161 C 0.34044 0.13692 0.44156 0.0
C1162 C 0.34227 0.14215 0.40881 0.0
C1163 C 0.36058 0.13632 0.40882 0.0
C1164 C 0.36861 0.1307 0.42531 0.0
H1165 H 0.45715 0.17026 0.36563 0.0
H1166 H 0.42619 0.16724 0.37679 0.0
C1167 C 0.35857 0.13077 0.44145 0.0
C1168 C 0.37203 0.13729 0.39213 0.0
H1169 H 0.40591 0.11379 0.37046 0.0
C1170 C 0.37436 0.15429 0.38358 0.0
C1171 C 0.38258 0.1222 0.3862 0.0
C1172 C 0.37943 0.10314 0.39342 0.0
C1173 C 0.38838 0.15708 0.37079 0.0
C1174 C 0.40057 0.14256 0.36679 0.0
C1175 C 0.39688 0.12508 0.37378 0.0
C1176 C 0.41855 0.14574 0.35793 0.0
C1177 C 0.39041 0.17575 0.36229 0.0
C1178 C 0.42487 0.13438 0.34376 0.0
C1179 C 0.44292 0.13583 0.33749 0.0
C1180 C 0.45497 0.1486 0.34535 0.0
C1181 C 0.44833 0.16029 0.35913 0.0
C1182 C 0.43045 0.15876 0.36542 0.0
H1183 H 0.37681 0.18218 0.3602 0.0
H1184 H 0.39823 0.1847 0.37172 0.0
H1185 H 0.39764 0.17513 0.34896 0.0
H1186 H 0.416 0.12408 0.33792 0.0
H1187 H 0.44756 0.1266 0.32688 0.0
H1188 H 0.86941 0.36847 0.45576 0.0
H1189 H 0.86888 0.38721 0.42833 0.0
H1190 H 0.86011 0.33892 0.3955 0.0
H1191 H 0.859 0.32029 0.42351 0.0
H1192 H 0.89033 0.38825 0.40091 0.0
H1193 H 0.82155 0.36993 0.37421 0.0
H1194 H 0.82988 0.36143 0.39572 0.0
H1195 H 0.83777 0.3515 0.37474 0.0
C1196 C 0.86666 0.36196 0.44275 0.0
C1197 C 0.86319 0.34316 0.44179 0.0
C1198 C 0.86673 0.37261 0.42699 0.0
C1199 C 0.86411 0.36462 0.40973 0.0
C1200 C 0.86154 0.34557 0.40863 0.0
H1201 H 0.87885 0.45234 0.32742 0.0
H1202 H 0.88305 0.42151 0.33994 0.0
C1203 C 0.86101 0.33492 0.42459 0.0
C1204 C 0.8644 0.37662 0.39326 0.0
H1205 H 0.83744 0.39319 0.35891 0.0
C1206 C 0.87884 0.38919 0.39158 0.0
C1207 C 0.84962 0.37762 0.38078 0.0
C1208 C 0.83375 0.3645 0.38144 0.0
C1209 C 0.8781 0.40375 0.37912 0.0
C1210 C 0.86275 0.40542 0.36748 0.0
C1211 C 0.84912 0.39192 0.36795 0.0
C1212 C 0.85905 0.42255 0.35723 0.0
C1213 C 0.89304 0.41798 0.37961 0.0
C1214 C 0.84363 0.4329 0.36196 0.0
C1215 C 0.84106 0.4503 0.35469 0.0
C1216 C 0.85391 0.45788 0.34253 0.0
C1217 C 0.86878 0.44703 0.33687 0.0
C1218 C 0.87127 0.42944 0.34411 0.0
H1219 H 0.90235 0.41613 0.39146 0.0
H1220 H 0.90132 0.41702 0.36694 0.0
H1221 H 0.88711 0.43194 0.38031 0.0
H1222 H 0.83398 0.42786 0.37201 0.0
H1223 H 0.82934 0.4581 0.35928 0.0
H1224 H 0.54457 0.88865 0.349 0.0
H1225 H 0.57413 0.8883 0.36462 0.0
H1226 H 0.5846 0.83418 0.34354 0.0
H1227 H 0.55462 0.83421 0.32879 0.0
H1228 H 0.58476 0.83373 0.37867 0.0
H1229 H 0.62822 0.89173 0.35772 0.0
H1230 H 0.60567 0.89936 0.36351 0.0
H1231 H 0.60888 0.88427 0.3443 0.0
C1232 C 0.55358 0.87706 0.34706 0.0
C1233 C 0.54746 0.86147 0.33772 0.0
C1234 C 0.57054 0.87687 0.35594 0.0
C1235 C 0.58171 0.86123 0.35524 0.0
C1236 C 0.57626 0.8464 0.3443 0.0
H1237 H 0.67694 0.85146 0.42913 0.0
H1238 H 0.65843 0.85063 0.40103 0.0
C1239 C 0.55919 0.84643 0.33581 0.0
C1240 C 0.59674 0.85876 0.36868 0.0
H1241 H 0.63364 0.87965 0.38832 0.0
C1242 C 0.59568 0.84361 0.38042 0.0
C1243 C 0.61105 0.87156 0.3711 0.0
C1244 C 0.61363 0.88753 0.35834 0.0
C1245 C 0.6079 0.84136 0.39494 0.0
C1246 C 0.62137 0.85476 0.39819 0.0
C1247 C 0.62314 0.86946 0.38595 0.0
C1248 C 0.63266 0.85441 0.41502 0.0
C1249 C 0.60591 0.82487 0.40705 0.0
C1250 C 0.62428 0.85675 0.43212 0.0
C1251 C 0.63478 0.85731 0.44805 0.0
C1252 C 0.65382 0.85512 0.44724 0.0
C1253 C 0.66222 0.8527 0.43013 0.0
C1254 C 0.65171 0.85234 0.41412 0.0
H1255 H 0.59867 0.81353 0.4 0.0
H1256 H 0.61948 0.81989 0.41161 0.0
H1257 H 0.59776 0.82878 0.41922 0.0
H1258 H 0.60964 0.85872 0.4331 0.0
H1259 H 0.62807 0.86019 0.46092 0.0
H1260 H 0.13492 0.63109 0.45726 0.0
H1261 H 0.1352 0.6103 0.43132 0.0
H1262 H 0.14531 0.65571 0.39498 0.0
H1263 H 0.14642 0.67647 0.42147 0.0
H1264 H 0.11318 0.6086 0.40358 0.0
H1265 H 0.18327 0.62116 0.37696 0.0
H1266 H 0.17516 0.63117 0.39791 0.0
H1267 H 0.16826 0.64059 0.37637 0.0
C1268 C 0.13788 0.63654 0.44381 0.0
C1269 C 0.14159 0.65517 0.44142 0.0
C1270 C 0.1377 0.6247 0.42892 0.0
C1271 C 0.14056 0.63132 0.41113 0.0
C1272 C 0.1436 0.65015 0.40858 0.0
H1273 H 0.1207 0.5442 0.32936 0.0
H1274 H 0.11893 0.57481 0.34287 0.0
C1275 C 0.14414 0.66201 0.42366 0.0
C1276 C 0.13983 0.61821 0.39558 0.0
H1277 H 0.16604 0.59824 0.36246 0.0
C1278 C 0.12466 0.60647 0.39443 0.0
C1279 C 0.15469 0.61559 0.38343 0.0
C1280 C 0.17134 0.62769 0.38372 0.0
C1281 C 0.12452 0.59142 0.38256 0.0
C1282 C 0.13979 0.58827 0.37113 0.0
C1283 C 0.15439 0.6007 0.3713 0.0
C1284 C 0.14198 0.57087 0.36098 0.0
C1285 C 0.10858 0.57832 0.38327 0.0
C1286 C 0.15597 0.55884 0.36613 0.0
C1287 C 0.15711 0.54146 0.35839 0.0
C1288 C 0.14425 0.53568 0.34531 0.0
C1289 C 0.13075 0.54812 0.33949 0.0
C1290 C 0.12966 0.5656 0.34725 0.0
H1291 H 0.0993 0.5812 0.39495 0.0
H1292 H 0.10054 0.57951 0.37047 0.0
H1293 H 0.11348 0.564 0.38442 0.0
H1294 H 0.16564 0.56264 0.37669 0.0
H1295 H 0.16777 0.53236 0.36316 0.0
H1296 H 0.32143 0.85552 0.57662 0.0
H1297 H 0.3401 0.85613 0.60472 0.0
H1298 H 0.38708 0.87221 0.57284 0.0
H1299 H 0.36853 0.87198 0.5452 0.0
H1300 H 0.36998 0.83567 0.61285 0.0
H1301 H 0.38957 0.90827 0.61424 0.0
H1302 H 0.37096 0.89994 0.60032 0.0
H1303 H 0.39416 0.89897 0.59205 0.0
C1304 C 0.33572 0.8593 0.5758 0.0
C1305 C 0.34377 0.86322 0.55883 0.0
C1306 C 0.34633 0.85969 0.59177 0.0
C1307 C 0.36491 0.86453 0.59092 0.0
C1308 C 0.37269 0.8689 0.57395 0.0
H1309 H 0.46167 0.83013 0.63689 0.0
H1310 H 0.43127 0.83338 0.62412 0.0
C1311 C 0.36217 0.86846 0.55811 0.0
C1312 C 0.37682 0.86376 0.60729 0.0
H1313 H 0.41168 0.88703 0.62764 0.0
C1314 C 0.37883 0.84701 0.6164 0.0
C1315 C 0.38799 0.87871 0.61238 0.0
C1316 C 0.38539 0.89752 0.60435 0.0
C1317 C 0.39296 0.84428 0.62909 0.0
C1318 C 0.4055 0.85862 0.63252 0.0
C1319 C 0.40232 0.87589 0.62478 0.0
C1320 C 0.42314 0.85548 0.64205 0.0
C1321 C 0.39463 0.82586 0.63819 0.0
C1322 C 0.42895 0.86707 0.65623 0.0
C1323 C 0.44661 0.86544 0.66346 0.0
C1324 C 0.4588 0.85224 0.65655 0.0
C1325 C 0.4527 0.84039 0.64268 0.0
C1326 C 0.43516 0.84209 0.63544 0.0
H1327 H 0.38096 0.81952 0.6401 0.0
H1328 H 0.40273 0.81662 0.62929 0.0
H1329 H 0.40147 0.82688 0.6517 0.0
H1330 H 0.41997 0.87764 0.66141 0.0
H1331 H 0.45083 0.87481 0.67411 0.0
H1332 H 0.11479 0.45866 0.66226 0.0
H1333 H 0.11189 0.42959 0.64575 0.0
H1334 H 0.17007 0.42884 0.63664 0.0
H1335 H 0.17312 0.4578 0.65293 0.0
H1336 H 0.13894 0.43354 0.6048 0.0
H1337 H 0.1375 0.37234 0.65005 0.0
H1338 H 0.12668 0.3935 0.65684 0.0
H1339 H 0.15109 0.3921 0.65598 0.0
C1340 C 0.12705 0.45192 0.65739 0.0
C1341 C 0.14416 0.4606 0.65867 0.0
C1342 C 0.12536 0.43533 0.64798 0.0
C1343 C 0.14079 0.42714 0.64007 0.0
C1344 C 0.15805 0.43492 0.64281 0.0
H1345 H 0.15963 0.33417 0.56942 0.0
H1346 H 0.15889 0.35669 0.59433 0.0
C1347 C 0.15974 0.45151 0.65204 0.0
C1348 C 0.13868 0.41305 0.62581 0.0
H1349 H 0.13694 0.36713 0.61822 0.0
C1350 C 0.13844 0.41898 0.60764 0.0
C1351 C 0.13806 0.39422 0.62974 0.0
C1352 C 0.13833 0.38748 0.64919 0.0
C1353 C 0.1381 0.40657 0.59308 0.0
C1354 C 0.13762 0.38749 0.59683 0.0
C1355 C 0.13747 0.38164 0.6152 0.0
C1356 C 0.13774 0.37347 0.58201 0.0
C1357 C 0.1387 0.41444 0.57401 0.0
C1358 C 0.12588 0.37496 0.56697 0.0
C1359 C 0.12738 0.36296 0.55224 0.0
C1360 C 0.13992 0.34849 0.55274 0.0
C1361 C 0.15051 0.34577 0.56845 0.0
C1362 C 0.14981 0.35846 0.58278 0.0
H1363 H 0.14659 0.42742 0.57365 0.0
H1364 H 0.14487 0.40493 0.56408 0.0
H1365 H 0.12457 0.41761 0.56952 0.0
H1366 H 0.11569 0.38567 0.56639 0.0
H1367 H 0.11852 0.36481 0.54051 0.0
H1368 H 0.54179 0.11388 0.65946 0.0
H1369 H 0.57058 0.11133 0.64238 0.0
H1370 H 0.56872 0.16901 0.6305 0.0
H1371 H 0.54013 0.17172 0.64737 0.0
H1372 H 0.56705 0.14212 0.59964 0.0
H1373 H 0.62572 0.1323 0.6471 0.0
H1374 H 0.60458 0.12036 0.65141 0.0
H1375 H 0.60543 0.1447 0.65384 0.0
C1376 C 0.54784 0.12612 0.65372 0.0
C1377 C 0.53856 0.14296 0.65455 0.0
C1378 C 0.56429 0.12464 0.64401 0.0
C1379 C 0.57173 0.14 0.63524 0.0
C1380 C 0.56321 0.15703 0.63726 0.0
H1381 H 0.66921 0.15573 0.56975 0.0
H1382 H 0.64565 0.15527 0.59372 0.0
C1383 C 0.54681 0.15852 0.64683 0.0
C1384 C 0.58631 0.13799 0.6214 0.0
H1385 H 0.63216 0.13217 0.6155 0.0
C1386 C 0.58132 0.13994 0.60305 0.0
C1387 C 0.60478 0.13508 0.626 0.0
C1388 C 0.61062 0.13302 0.64565 0.0
C1389 C 0.59434 0.13949 0.58903 0.0
C1390 C 0.61305 0.13672 0.59348 0.0
C1391 C 0.61795 0.13444 0.61198 0.0
C1392 C 0.62769 0.13658 0.57928 0.0
C1393 C 0.58755 0.14235 0.56977 0.0
C1394 C 0.62582 0.12597 0.56337 0.0
C1395 C 0.63854 0.12739 0.54925 0.0
C1396 C 0.65402 0.13849 0.5512 0.0
C1397 C 0.65693 0.14775 0.5677 0.0
C1398 C 0.64361 0.1472 0.58147 0.0
H1399 H 0.57552 0.15162 0.5695 0.0
H1400 H 0.59816 0.14811 0.56076 0.0
H1401 H 0.58311 0.12901 0.56406 0.0
H1402 H 0.61427 0.11689 0.56165 0.0
H1403 H 0.63644 0.11954 0.53685 0.0
H1404 H 0.87511 0.54797 0.66911 0.0
H1405 H 0.87719 0.57901 0.65675 0.0
H1406 H 0.83462 0.56645 0.61795 0.0
H1407 H 0.83213 0.53577 0.63036 0.0
H1408 H 0.8874 0.58748 0.62305 0.0
H1409 H 0.81872 0.61634 0.634 0.0
H1410 H 0.8264 0.59599 0.64569 0.0
H1411 H 0.81695 0.59456 0.62296 0.0
C1412 C 0.86592 0.55193 0.65819 0.0
C1413 C 0.85347 0.5393 0.65074 0.0
C1414 C 0.86713 0.56969 0.65116 0.0
C1415 C 0.85584 0.57519 0.63663 0.0
C1416 C 0.8431 0.56276 0.62952 0.0
H1417 H 0.87383 0.63383 0.54162 0.0
H1418 H 0.87325 0.61387 0.56831 0.0
C1419 C 0.84183 0.54508 0.63655 0.0
C1420 C 0.85876 0.59298 0.62731 0.0
H1421 H 0.83564 0.62858 0.60794 0.0
C1422 C 0.87615 0.59668 0.6201 0.0
C1423 C 0.84424 0.60527 0.62373 0.0
C1424 C 0.82559 0.60292 0.63221 0.0
C1425 C 0.87901 0.6114 0.60815 0.0
C1426 C 0.86401 0.62246 0.60302 0.0
C1427 C 0.84704 0.61982 0.61154 0.0
C1428 C 0.86511 0.63513 0.58725 0.0
C1429 C 0.89797 0.61456 0.60068 0.0
C1430 C 0.86032 0.65367 0.58892 0.0
C1431 C 0.86044 0.66509 0.57351 0.0
C1432 C 0.86481 0.6579 0.55627 0.0
C1433 C 0.86997 0.63952 0.55474 0.0
C1434 C 0.86992 0.62819 0.57003 0.0
H1435 H 0.90855 0.60998 0.61056 0.0
H1436 H 0.89974 0.60646 0.58797 0.0
H1437 H 0.90031 0.62921 0.59744 0.0
H1438 H 0.85644 0.65925 0.60207 0.0
H1439 H 0.85671 0.67934 0.57496 0.0
H1440 H 0.35002 0.46427 0.17616 0.0
H1441 H 0.36701 0.43551 0.17615 0.0
H1442 H 0.35683 0.42936 0.11841 0.0
H1443 H 0.3393 0.45789 0.11841 0.0
H1444 H 0.35774 0.3956 0.13737 0.0
H1445 H 0.41774 0.43934 0.15307 0.0
H1446 H 0.39976 0.44082 0.16968 0.0
H1447 H 0.39586 0.44873 0.14672 0.0
C1448 C 0.35105 0.4566 0.16354 0.0
C1449 C 0.3436 0.46349 0.14722 0.0
C1450 C 0.36076 0.44017 0.16356 0.0
C1451 C 0.36354 0.43056 0.1472 0.0
C1452 C 0.3549 0.43662 0.13117 0.0
H1453 H 0.4616 0.36973 0.12561 0.0
H1454 H 0.43601 0.39101 0.12611 0.0
C1455 C 0.34492 0.45294 0.13119 0.0
C1456 C 0.37726 0.41569 0.14634 0.0
H1457 H 0.42273 0.40783 0.15168 0.0
C1458 C 0.37197 0.39813 0.14067 0.0
C1459 C 0.39587 0.41921 0.15015 0.0
C1460 C 0.40273 0.43807 0.15506 0.0
C1461 C 0.38483 0.3839 0.13891 0.0
C1462 C 0.40339 0.38729 0.14336 0.0
C1463 C 0.40853 0.40497 0.14881 0.0
C1464 C 0.41808 0.37326 0.14171 0.0
C1465 C 0.37847 0.36572 0.13156 0.0
C1466 C 0.4166 0.35594 0.15 0.0
C1467 C 0.43114 0.34346 0.14912 0.0
C1468 C 0.44761 0.34853 0.14075 0.0
C1469 C 0.44907 0.3657 0.13242 0.0
C1470 C 0.43443 0.37785 0.13272 0.0
H1471 H 0.36572 0.36716 0.12343 0.0
H1472 H 0.38906 0.35927 0.1228 0.0
H1473 H 0.37548 0.35642 0.14316 0.0
H1474 H 0.40443 0.3522 0.15752 0.0
H1475 H 0.42977 0.33017 0.15551 0.0
H1476 H 0.4244 0.67695 0.85752 0.0
H1477 H 0.39639 0.65813 0.85756 0.0
H1478 H 0.42798 0.61162 0.87548 0.0
H1479 H 0.4555 0.63033 0.87582 0.0
H1480 H 0.38891 0.62801 0.83746 0.0
H1481 H 0.38555 0.60927 0.91018 0.0
H1482 H 0.39963 0.62786 0.90204 0.0
H1483 H 0.40805 0.60468 0.90169 0.0
C1484 C 0.42517 0.66274 0.86159 0.0
C1485 C 0.44203 0.65486 0.8662 0.0
C1486 C 0.40925 0.65204 0.86165 0.0
C1487 C 0.41004 0.63354 0.86685 0.0
C1488 C 0.4269 0.62594 0.87189 0.0
H1489 H 0.36646 0.5358 0.83221 0.0
H1490 H 0.3787 0.56644 0.8355 0.0
C1491 C 0.44268 0.63655 0.87178 0.0
C1492 C 0.39378 0.6215 0.86577 0.0
H1493 H 0.37325 0.58658 0.88882 0.0
C1494 C 0.38518 0.6192 0.84879 0.0
C1495 C 0.38839 0.61042 0.88068 0.0
C1496 C 0.39577 0.61336 0.89971 0.0
C1497 C 0.37281 0.60483 0.84584 0.0
C1498 C 0.36916 0.59236 0.8602 0.0
C1499 C 0.3763 0.59586 0.87766 0.0
C1500 C 0.36 0.57454 0.85698 0.0
C1501 C 0.3643 0.60282 0.82717 0.0
C1502 C 0.34558 0.56863 0.86821 0.0
C1503 C 0.33866 0.55085 0.86656 0.0
C1504 C 0.34611 0.53862 0.8537 0.0
C1505 C 0.36025 0.54479 0.8422 0.0
C1506 C 0.36718 0.56246 0.84392 0.0
H1507 H 0.36238 0.61639 0.82061 0.0
H1508 H 0.37359 0.59475 0.8183 0.0
H1509 H 0.35087 0.59578 0.82787 0.0
H1510 H 0.33996 0.57765 0.87852 0.0
H1511 H 0.32778 0.54658 0.87565 0.0
H1512 H 0.45725 0.35854 0.83049 0.0
H1513 H 0.42698 0.37136 0.83424 0.0
H1514 H 0.41904 0.33926 0.88308 0.0
H1515 H 0.44996 0.32667 0.8798 0.0
H1516 H 0.39242 0.35843 0.83637 0.0
H1517 H 0.41275 0.39056 0.90239 0.0
H1518 H 0.42914 0.37941 0.88777 0.0
H1519 H 0.41354 0.36605 0.90124 0.0
C1520 C 0.44911 0.35398 0.84199 0.0
C1521 C 0.45626 0.34178 0.85504 0.0
C1522 C 0.43168 0.3613 0.84405 0.0
C1523 C 0.42084 0.35657 0.85913 0.0
C1524 C 0.42734 0.34343 0.87156 0.0
H1525 H 0.3195 0.42392 0.85479 0.0
H1526 H 0.33768 0.39566 0.8567 0.0
C1527 C 0.44497 0.33616 0.86959 0.0
C1528 C 0.40361 0.36681 0.86223 0.0
H1529 H 0.38559 0.40038 0.88911 0.0
C1530 C 0.39071 0.36745 0.84803 0.0
C1531 C 0.40138 0.37844 0.87753 0.0
C1532 C 0.41494 0.37875 0.89308 0.0
C1533 C 0.3766 0.38047 0.84789 0.0
C1534 C 0.37508 0.39293 0.86265 0.0
C1535 C 0.38694 0.39106 0.87766 0.0
C1536 C 0.36335 0.40956 0.86182 0.0
C1537 C 0.36429 0.38141 0.83139 0.0
C1538 C 0.37146 0.42671 0.86477 0.0
C1539 C 0.36104 0.44261 0.86423 0.0
C1540 C 0.3424 0.4419 0.85997 0.0
C1541 C 0.33404 0.42481 0.85742 0.0
C1542 C 0.34444 0.40871 0.85841 0.0
H1543 H 0.37012 0.37401 0.81948 0.0
H1544 H 0.35095 0.37507 0.83477 0.0
H1545 H 0.36181 0.39576 0.82734 0.0
H1546 H 0.38597 0.42784 0.86755 0.0
H1547 H 0.36759 0.45552 0.8673 0.0
H1548 H 0.64928 0.45989 0.82163 0.0
H1549 H 0.63308 0.43072 0.82327 0.0
H1550 H 0.64127 0.42927 0.88163 0.0
H1551 H 0.65802 0.45824 0.88003 0.0
H1552 H 0.64149 0.39389 0.86488 0.0
H1553 H 0.58155 0.4359 0.84481 0.0
H1554 H 0.6 0.43655 0.82866 0.0
H1555 H 0.60314 0.4459 0.85119 0.0
C1556 C 0.64803 0.45314 0.83475 0.0
C1557 C 0.65464 0.46148 0.85075 0.0
C1558 C 0.63878 0.43648 0.83566 0.0
C1559 C 0.63563 0.42809 0.85261 0.0
C1560 C 0.64352 0.43558 0.86842 0.0
H1561 H 0.5374 0.36729 0.87414 0.0
H1562 H 0.5628 0.38879 0.87376 0.0
C1563 C 0.65306 0.45214 0.86748 0.0
C1564 C 0.62204 0.41316 0.85413 0.0
H1565 H 0.57685 0.40446 0.84792 0.0
C1566 C 0.62734 0.39604 0.86103 0.0
C1567 C 0.60351 0.41623 0.8496 0.0
C1568 C 0.59662 0.43467 0.84333 0.0
C1569 C 0.61458 0.38178 0.86323 0.0
C1570 C 0.59613 0.38467 0.858 0.0
C1571 C 0.59097 0.40194 0.85141 0.0
C1572 C 0.58157 0.37053 0.85984 0.0
C1573 C 0.6209 0.36413 0.87182 0.0
C1574 C 0.58359 0.35284 0.85247 0.0
C1575 C 0.56913 0.34026 0.8533 0.0
C1576 C 0.55224 0.34555 0.86065 0.0
C1577 C 0.55026 0.36307 0.8681 0.0
C1578 C 0.56479 0.37535 0.86787 0.0
H1579 H 0.63329 0.36623 0.88033 0.0
H1580 H 0.61007 0.35801 0.88051 0.0
H1581 H 0.62447 0.35427 0.86086 0.0
H1582 H 0.59611 0.34889 0.84568 0.0
H1583 H 0.57091 0.32671 0.84761 0.0
H1584 H 0.67847 0.57581 0.84977 0.0
H1585 H 0.65885 0.60327 0.85074 0.0
H1586 H 0.61431 0.5704 0.87117 0.0
H1587 H 0.6338 0.54342 0.87056 0.0
H1588 H 0.62694 0.6096 0.83228 0.0
H1589 H 0.6134 0.61291 0.90621 0.0
H1590 H 0.63186 0.59949 0.89679 0.0
H1591 H 0.60905 0.59023 0.89804 0.0
C1592 C 0.66451 0.57464 0.85457 0.0
C1593 C 0.65739 0.55757 0.85965 0.0
C1594 C 0.65337 0.59024 0.85515 0.0
C1595 C 0.63521 0.58893 0.86134 0.0
C1596 C 0.62838 0.57187 0.8668 0.0
H1597 H 0.53412 0.63051 0.83383 0.0
H1598 H 0.5651 0.61869 0.83486 0.0
C1599 C 0.63942 0.55641 0.86616 0.0
C1600 C 0.6227 0.60485 0.86103 0.0
H1601 H 0.58912 0.62471 0.8865 0.0
C1602 C 0.61892 0.61323 0.8442 0.0
C1603 C 0.61263 0.61006 0.87669 0.0
C1604 C 0.61712 0.60282 0.89547 0.0
C1605 C 0.60408 0.62525 0.84226 0.0
C1606 C 0.59266 0.62874 0.85751 0.0
C1607 C 0.59761 0.62179 0.8747 0.0
C1608 C 0.57449 0.63758 0.85562 0.0
C1609 C 0.60049 0.63358 0.82375 0.0
C1610 C 0.56922 0.65194 0.86724 0.0
C1611 C 0.55128 0.65859 0.86692 0.0
C1612 C 0.53825 0.65095 0.85499 0.0
C1613 C 0.54375 0.63686 0.8431 0.0
C1614 C 0.56159 0.63018 0.84352 0.0
H1615 H 0.61347 0.63571 0.81616 0.0
H1616 H 0.59196 0.62407 0.81558 0.0
H1617 H 0.59325 0.64688 0.8249 0.0
H1618 H 0.5789 0.65774 0.87683 0.0
H1619 H 0.54754 0.66946 0.87626 0.0
H1620 H 0.64596 0.53991 0.11414 0.0
H1621 H 0.63018 0.56936 0.11613 0.0
H1622 H 0.64928 0.5758 0.17162 0.0
H1623 H 0.66398 0.54583 0.16994 0.0
H1624 H 0.61506 0.57861 0.17139 0.0
H1625 H 0.63915 0.6227 0.11527 0.0
H1626 H 0.63216 0.60099 0.10636 0.0
H1627 H 0.65125 0.60224 0.12193 0.0
C1628 C 0.64722 0.54795 0.12652 0.0
C1629 C 0.65609 0.54072 0.1419 0.0
C1630 C 0.63832 0.56486 0.12763 0.0
C1631 C 0.63863 0.575 0.14398 0.0
C1632 C 0.6488 0.5683 0.15885 0.0
H1633 H 0.56747 0.67271 0.1536 0.0
H1634 H 0.59525 0.6537 0.15502 0.0
C1635 C 0.65722 0.5512 0.15791 0.0
C1636 C 0.62588 0.59062 0.14671 0.0
H1637 H 0.60823 0.62887 0.12644 0.0
C1638 C 0.61396 0.58981 0.16174 0.0
C1639 C 0.62436 0.60541 0.13429 0.0
C1640 C 0.63758 0.60799 0.11869 0.0
C1641 C 0.60004 0.60269 0.16413 0.0
C1642 C 0.59749 0.6165 0.15091 0.0
C1643 C 0.61001 0.61807 0.13644 0.0
C1644 C 0.5809 0.62816 0.15103 0.0
C1645 C 0.58781 0.60108 0.18056 0.0
C1646 C 0.56372 0.62008 0.14833 0.0
C1647 C 0.54802 0.63085 0.14743 0.0
C1648 C 0.54908 0.64987 0.14962 0.0
C1649 C 0.56627 0.658 0.15236 0.0
C1650 C 0.5821 0.64721 0.15307 0.0
H1651 H 0.59453 0.59349 0.19187 0.0
H1652 H 0.58378 0.61481 0.18561 0.0
H1653 H 0.57534 0.59344 0.17657 0.0
H1654 H 0.56253 0.60546 0.14633 0.0
H1655 H 0.53512 0.62434 0.14425 0.0
H1656 H 0.31394 0.57627 0.14011 0.0
H1657 H 0.33197 0.6047 0.13815 0.0
H1658 H 0.37928 0.57324 0.12215 0.0
H1659 H 0.36128 0.54531 0.12349 0.0
H1660 H 0.36053 0.61462 0.15755 0.0
H1661 H 0.38253 0.61348 0.08588 0.0
H1662 H 0.3642 0.59914 0.09409 0.0
H1663 H 0.38767 0.59167 0.09569 0.0
C1664 C 0.32815 0.57562 0.13601 0.0
C1665 C 0.33647 0.55871 0.13247 0.0
C1666 C 0.3384 0.59178 0.13483 0.0
C1667 C 0.35691 0.59117 0.12964 0.0
C1668 C 0.36493 0.57421 0.12563 0.0
H1669 H 0.45133 0.6345 0.16817 0.0
H1670 H 0.42053 0.62379 0.16299 0.0
C1671 C 0.35474 0.5582 0.12677 0.0
C1672 C 0.3686 0.60773 0.13005 0.0
H1673 H 0.40485 0.62657 0.10763 0.0
C1674 C 0.3699 0.6176 0.14644 0.0
C1675 C 0.38042 0.6122 0.11539 0.0
C1676 C 0.37844 0.60367 0.09672 0.0
C1677 C 0.38406 0.6302 0.14929 0.0
C1678 C 0.39748 0.63264 0.13554 0.0
C1679 C 0.39489 0.6244 0.1184 0.0
C1680 C 0.41549 0.64111 0.13951 0.0
C1681 C 0.38488 0.64016 0.16732 0.0
C1682 C 0.42331 0.65414 0.12773 0.0
C1683 C 0.44132 0.66012 0.13044 0.0
C1684 C 0.45182 0.65311 0.14496 0.0
C1685 C 0.44372 0.64038 0.15692 0.0
C1686 C 0.4259 0.63435 0.15411 0.0
H1687 H 0.3709 0.64323 0.17239 0.0
H1688 H 0.39157 0.63127 0.17764 0.0
H1689 H 0.39265 0.65316 0.16624 0.0
H1690 H 0.41562 0.65937 0.11621 0.0
H1691 H 0.44713 0.66989 0.12095 0.0
H1692 H 0.63406 0.45765 0.12885 0.0
H1693 H 0.61555 0.43008 0.12852 0.0
H1694 H 0.66353 0.39767 0.14001 0.0
H1695 H 0.68187 0.42583 0.14195 0.0
H1696 H 0.61603 0.40227 0.10708 0.0
H1697 H 0.6305 0.37682 0.17732 0.0
H1698 H 0.63894 0.39846 0.16926 0.0
H1699 H 0.64979 0.37765 0.16213 0.0
C1700 C 0.64052 0.44471 0.13203 0.0
C1701 C 0.65912 0.44392 0.13648 0.0
C1702 C 0.63002 0.42887 0.13144 0.0
C1703 C 0.638 0.41169 0.13454 0.0
C1704 C 0.65688 0.41075 0.13814 0.0
H1705 H 0.54952 0.33004 0.11896 0.0
H1706 H 0.58067 0.34189 0.11486 0.0
C1707 C 0.66737 0.42679 0.13917 0.0
C1708 C 0.62613 0.39517 0.1338 0.0
H1709 H 0.60777 0.36172 0.1607 0.0
C1710 C 0.61439 0.39322 0.11871 0.0
C1711 C 0.62425 0.38304 0.14879 0.0
C1712 C 0.63644 0.38408 0.16536 0.0
C1713 C 0.59966 0.38093 0.119 0.0
C1714 C 0.59699 0.3698 0.13458 0.0
C1715 C 0.60981 0.37039 0.14884 0.0
C1716 C 0.57935 0.36037 0.13795 0.0
C1717 C 0.58625 0.38113 0.10331 0.0
C1718 C 0.56863 0.3662 0.15272 0.0
C1719 C 0.55107 0.35937 0.15521 0.0
C1720 C 0.54366 0.34654 0.14293 0.0
C1721 C 0.55473 0.34001 0.12859 0.0
C1722 C 0.57249 0.34684 0.12616 0.0
H1723 H 0.58903 0.39238 0.0935 0.0
H1724 H 0.58712 0.368 0.09578 0.0
H1725 H 0.57206 0.38266 0.10848 0.0
H1726 H 0.5736 0.37662 0.162 0.0
H1727 H 0.54311 0.36465 0.16653 0.0
H1728 H 0.07905 0.2902 0.50043 0.0
H1729 H 0.04564 0.28865 0.49785 0.0
H1730 H 0.04267 0.34748 0.49996 0.0
H1731 H 0.07592 0.34918 0.5026 0.0
H1732 H 0.01962 0.30476 0.52431 0.0
H1733 H 0.01226 0.33221 0.45385 0.0
H1734 H 0.03339 0.32255 0.46224 0.0
H1735 H 0.02674 0.34524 0.46883 0.0
C1736 C 0.07128 0.3028 0.50019 0.0
C1737 C 0.0801 0.31981 0.50169 0.0
C1738 C 0.05223 0.30188 0.49876 0.0
C1739 C 0.04177 0.31796 0.49856 0.0
C1740 C 0.05055 0.33494 0.49986 0.0
H1741 H 0.92838 0.34861 0.49181 0.0
H1742 H 0.96168 0.34722 0.49406 0.0
C1743 C 0.06954 0.33587 0.50143 0.0
C1744 C 0.0216 0.31708 0.49767 0.0
H1745 H 0.98513 0.32933 0.47134 0.0
C1746 C 0.01202 0.30997 0.51269 0.0
C1747 C 0.01183 0.32399 0.48252 0.0
C1748 C 0.02153 0.33131 0.46585 0.0
C1749 C 0.99283 0.31009 0.51319 0.0
C1750 C 0.98303 0.31714 0.49807 0.0
C1751 C 0.99266 0.32398 0.48294 0.0
C1752 C 0.96277 0.31788 0.49772 0.0
C1753 C 0.98327 0.30328 0.53016 0.0
C1754 C 0.95231 0.30185 0.49908 0.0
C1755 C 0.93325 0.30262 0.49796 0.0
C1756 C 0.92433 0.31942 0.4952 0.0
C1757 C 0.93484 0.33546 0.49395 0.0
C1758 C 0.95387 0.33469 0.49519 0.0
H1759 H 0.99259 0.30304 0.54216 0.0
H1760 H 0.97126 0.31193 0.53351 0.0
H1761 H 0.9784 0.28911 0.52779 0.0
H1762 H 0.95891 0.28868 0.50063 0.0
H1763 H 0.92554 0.29001 0.49882 0.0
H1764 H 0.71183 0.07597 0.49984 0.0
H1765 H 0.71226 0.04258 0.49682 0.0
H1766 H 0.65338 0.04155 0.49883 0.0
H1767 H 0.65279 0.07483 0.50184 0.0
H1768 H 0.69598 0.017 0.5227 0.0
H1769 H 0.66696 0.01084 0.45278 0.0
H1770 H 0.67702 0.03176 0.46122 0.0
H1771 H 0.65437 0.0253 0.46816 0.0
C1772 C 0.69897 0.06864 0.49948 0.0
C1773 C 0.68227 0.07802 0.50105 0.0
C1774 C 0.69925 0.04959 0.49779 0.0
C1775 C 0.68285 0.03967 0.49742 0.0
C1776 C 0.66617 0.04901 0.49882 0.0
H1777 H 0.65067 0.92625 0.49141 0.0
H1778 H 0.65224 0.95962 0.49298 0.0
C1779 C 0.66587 0.06801 0.50062 0.0
C1780 C 0.68311 0.01947 0.49637 0.0
H1781 H 0.66969 0.98346 0.46994 0.0
C1782 C 0.69038 0.00962 0.51112 0.0
C1783 C 0.67568 0.00998 0.48128 0.0
C1784 C 0.66818 0.01996 0.46486 0.0
C1785 C 0.68998 0.99043 0.51141 0.0
C1786 C 0.68249 0.98089 0.49634 0.0
C1787 C 0.67539 0.99079 0.4815 0.0
C1788 C 0.68167 0.96065 0.49574 0.0
C1789 C 0.69703 0.98059 0.52812 0.0
C1790 C 0.69771 0.95015 0.49665 0.0
C1791 C 0.69684 0.93108 0.49589 0.0
C1792 C 0.67993 0.92216 0.49398 0.0
C1793 C 0.6639 0.93271 0.49292 0.0
C1794 C 0.66478 0.95177 0.49378 0.0
H1795 H 0.69759 0.98975 0.54023 0.0
H1796 H 0.68834 0.96862 0.5315 0.0
H1797 H 0.7111 0.97561 0.5254 0.0
H1798 H 0.71092 0.95672 0.49774 0.0
H1799 H 0.70944 0.92334 0.49659 0.0
H1800 H 0.92804 0.65497 0.50365 0.0
H1801 H 0.96123 0.65659 0.50009 0.0
H1802 H 0.95806 0.71527 0.49549 0.0
H1803 H 0.92475 0.71381 0.49903 0.0
H1804 H 0.98213 0.67361 0.47002 0.0
H1805 H 0.99501 0.7046 0.53836 0.0
H1806 H 0.97396 0.69291 0.53291 0.0
H1807 H 0.9781 0.71544 0.52415 0.0
C1808 C 0.93437 0.66823 0.5018 0.0
C1809 C 0.92379 0.68428 0.5017 0.0
C1810 C 0.95332 0.66911 0.49976 0.0
C1811 C 0.96205 0.68605 0.49775 0.0
C1812 C 0.95154 0.70209 0.49726 0.0
H1813 H 0.07831 0.71255 0.49374 0.0
H1814 H 0.0449 0.71416 0.49521 0.0
C1815 C 0.93254 0.70121 0.49919 0.0
C1816 C 0.9822 0.68681 0.49631 0.0
H1817 H 0.02064 0.69925 0.51962 0.0
C1818 C 0.99058 0.67926 0.48082 0.0
C1819 C 0.9931 0.69427 0.5104 0.0
C1820 C 0.98468 0.70218 0.52749 0.0
C1821 C 0.00968 0.67896 0.47902 0.0
C1822 C 0.02064 0.68597 0.49334 0.0
C1823 C 0.01221 0.69383 0.5087 0.0
C1824 C 0.04087 0.68495 0.49281 0.0
C1825 C 0.0179 0.67133 0.4617 0.0
C1826 C 0.04969 0.66797 0.4914 0.0
C1827 C 0.06873 0.66701 0.49047 0.0
C1828 C 0.07933 0.68301 0.49117 0.0
C1829 C 0.07051 0.69998 0.49313 0.0
C1830 C 0.05143 0.70093 0.49396 0.0
H1831 H 0.00799 0.67169 0.45019 0.0
H1832 H 0.03032 0.67906 0.45765 0.0
H1833 H 0.02182 0.65686 0.46399 0.0
H1834 H 0.04183 0.65543 0.49099 0.0
H1835 H 0.07512 0.65372 0.48912 0.0
H1836 H 0.34377 0.07146 0.48479 0.0
H1837 H 0.34149 0.03824 0.48678 0.0
H1838 H 0.28667 0.04303 0.50786 0.0
H1839 H 0.28876 0.07649 0.50584 0.0
H1840 H 0.31255 0.01787 0.52741 0.0
H1841 H 0.3078 0.00612 0.45249 0.0
H1842 H 0.32574 0.02131 0.45968 0.0
H1843 H 0.3023 0.02781 0.46298 0.0
C1844 C 0.33122 0.0655 0.48991 0.0
C1845 C 0.31641 0.07659 0.4951 0.0
C1846 C 0.32993 0.04652 0.49094 0.0
C1847 C 0.31384 0.03827 0.49722 0.0
C1848 C 0.29915 0.04923 0.50286 0.0
H1849 H 0.29224 0.92072 0.49232 0.0
H1850 H 0.28914 0.95403 0.49012 0.0
C1851 C 0.30038 0.06829 0.50171 0.0
C1852 C 0.31261 0.01814 0.49799 0.0
H1853 H 0.31357 0.98003 0.47107 0.0
C1854 C 0.31257 0.00957 0.51512 0.0
C1855 C 0.31251 0.00743 0.4819 0.0
C1856 C 0.31193 0.01608 0.46318 0.0
C1857 C 0.31314 0.99045 0.51659 0.0
C1858 C 0.31386 0.97977 0.50049 0.0
C1859 C 0.31317 0.98832 0.48336 0.0
C1860 C 0.31593 0.9597 0.50123 0.0
C1861 C 0.31315 0.98179 0.53531 0.0
C1862 C 0.33219 0.95197 0.50778 0.0
C1863 C 0.33407 0.93302 0.50892 0.0
C1864 C 0.31968 0.92148 0.50356 0.0
C1865 C 0.30355 0.92927 0.49659 0.0
C1866 C 0.30174 0.94826 0.49534 0.0
H1867 H 0.30847 0.9915 0.54602 0.0
H1868 H 0.30421 0.96952 0.53556 0.0
H1869 H 0.32724 0.97738 0.53875 0.0
H1870 H 0.34339 0.96063 0.51213 0.0
H1871 H 0.34667 0.92744 0.51433 0.0
H1872 H 0.49587 0.92623 0.28712 0.0
H1873 H 0.49587 0.95967 0.28547 0.0
H1874 H 0.4941 0.96265 0.34433 0.0
H1875 H 0.49373 0.92929 0.34609 0.0
H1876 H 0.4691 0.98544 0.32783 0.0
H1877 H 0.53785 0.99436 0.29679 0.0
H1878 H 0.52278 0.97964 0.2842 0.0
H1879 H 0.53042 0.97297 0.30658 0.0
C1880 C 0.4956 0.93401 0.29971 0.0
C1881 C 0.49486 0.92513 0.31674 0.0
C1882 C 0.49569 0.95312 0.29874 0.0
C1883 C 0.49524 0.96364 0.31479 0.0
C1884 C 0.4945 0.95478 0.33179 0.0
H1885 H 0.49991 0.076 0.3479 0.0
H1886 H 0.49698 0.04282 0.34541 0.0
C1887 C 0.49433 0.93572 0.33276 0.0
C1888 C 0.49504 0.9839 0.31397 0.0
H1889 H 0.51997 0.02103 0.30054 0.0
C1890 C 0.48021 0.99322 0.32184 0.0
C1891 C 0.50952 0.99402 0.30609 0.0
C1892 C 0.52613 0.98478 0.29807 0.0
C1893 C 0.47952 0.01239 0.32214 0.0
C1894 C 0.49413 0.02248 0.31453 0.0
C1895 C 0.50877 0.01321 0.30631 0.0
C1896 C 0.49499 0.04265 0.31591 0.0
C1897 C 0.46317 0.02171 0.33057 0.0
C1898 C 0.495 0.05353 0.3001 0.0
C1899 C 0.49665 0.07255 0.30147 0.0
C1900 C 0.49855 0.08093 0.31867 0.0
C1901 C 0.49842 0.06997 0.33445 0.0
C1902 C 0.49666 0.05101 0.33308 0.0
H1903 H 0.45122 0.01238 0.33145 0.0
H1904 H 0.46668 0.02617 0.34463 0.0
H1905 H 0.45921 0.034 0.32258 0.0
H1906 H 0.49383 0.04729 0.28672 0.0
H1907 H 0.49679 0.08062 0.28906 0.0
H1908 H 0.92587 0.51418 0.34466 0.0
H1909 H 0.95911 0.51269 0.34148 0.0
H1910 H 0.95319 0.495 0.28557 0.0
H1911 H 0.91985 0.49652 0.28857 0.0
H1912 H 0.97848 0.47383 0.30883 0.0
H1913 H 0.99111 0.54875 0.30999 0.0
H1914 H 0.97651 0.54022 0.32785 0.0
H1915 H 0.96909 0.53902 0.30448 0.0
C1916 C 0.93162 0.50994 0.33168 0.0
C1917 C 0.92025 0.50551 0.31684 0.0
C1918 C 0.9506 0.50921 0.32987 0.0
C1919 C 0.95853 0.50399 0.31322 0.0
C1920 C 0.94727 0.4992 0.29848 0.0
H1921 H 0.07583 0.50633 0.28781 0.0
H1922 H 0.04249 0.50956 0.28533 0.0
C1923 C 0.92825 0.50006 0.30023 0.0
C1924 C 0.97862 0.50314 0.31144 0.0
H1925 H 0.01715 0.52944 0.31308 0.0
C1926 C 0.98695 0.48598 0.30957 0.0
C1927 C 0.98955 0.51906 0.31225 0.0
C1928 C 0.98117 0.53785 0.3136 0.0
C1929 C 0.00604 0.48427 0.30922 0.0
C1930 C 0.01696 0.50011 0.3108 0.0
C1931 C 0.00866 0.51734 0.31196 0.0
C1932 C 0.03703 0.49887 0.31235 0.0
C1933 C 0.01446 0.46553 0.30748 0.0
C1934 C 0.04485 0.49214 0.32848 0.0
C1935 C 0.06376 0.49043 0.33 0.0
C1936 C 0.07521 0.49534 0.31535 0.0
C1937 C 0.06735 0.50241 0.29929 0.0
C1938 C 0.04836 0.50425 0.29785 0.0
H1939 H 0.00434 0.45515 0.30294 0.0
H1940 H 0.02601 0.46578 0.29762 0.0
H1941 H 0.01996 0.46125 0.32096 0.0
H1942 H 0.03627 0.48809 0.33986 0.0
H1943 H 0.06938 0.48495 0.34256 0.0
H1944 H 0.48105 0.91966 0.70411 0.0
H1945 H 0.47712 0.95299 0.70393 0.0
H1946 H 0.52136 0.95786 0.66516 0.0
H1947 H 0.52436 0.92467 0.66435 0.0
H1948 H 0.49678 0.98014 0.71327 0.0
H1949 H 0.48508 0.98755 0.63917 0.0
H1950 H 0.48593 0.96549 0.65006 0.0
H1951 H 0.50671 0.97684 0.64311 0.0
C1952 C 0.48979 0.92791 0.69546 0.0
C1953 C 0.50279 0.91965 0.68403 0.0
C1954 C 0.48758 0.94694 0.69537 0.0
C1955 C 0.49859 0.958 0.68412 0.0
C1956 C 0.51214 0.94968 0.67335 0.0
H1957 H 0.514 0.07516 0.70133 0.0
H1958 H 0.5158 0.04173 0.70247 0.0
C1959 C 0.51397 0.9307 0.67302 0.0
C1960 C 0.49624 0.97822 0.68387 0.0
H1961 H 0.49344 0.01489 0.65518 0.0
C1962 C 0.49581 0.98772 0.70056 0.0
C1963 C 0.49456 0.98818 0.66734 0.0
C1964 C 0.49288 0.97894 0.64896 0.0
C1965 C 0.49416 0.00686 0.70117 0.0
C1966 C 0.49386 0.0169 0.68459 0.0
C1967 C 0.49395 0.00733 0.66793 0.0
C1968 C 0.49302 0.03726 0.68403 0.0
C1969 C 0.49225 0.01593 0.7196 0.0
C1970 C 0.48026 0.04601 0.67263 0.0
C1971 C 0.4798 0.06504 0.67136 0.0
C1972 C 0.49178 0.07577 0.68181 0.0
C1973 C 0.50449 0.06714 0.6933 0.0
C1974 C 0.50536 0.04804 0.69411 0.0
H1975 H 0.48632 0.00641 0.72985 0.0
H1976 H 0.50597 0.02002 0.7246 0.0
H1977 H 0.48344 0.02827 0.71887 0.0
H1978 H 0.47059 0.0381 0.66468 0.0
H1979 H 0.4698 0.07139 0.66247 0.0
H1980 H 0.9276 0.4956 0.6521 0.0
H1981 H 0.96072 0.49792 0.65517 0.0
H1982 H 0.95509 0.50398 0.71355 0.0
H1983 H 0.92174 0.50198 0.71056 0.0
H1984 H 0.98068 0.52785 0.69821 0.0
H1985 H 0.99272 0.45679 0.67492 0.0
H1986 H 0.97941 0.46988 0.65901 0.0
H1987 H 0.97038 0.46502 0.68138 0.0
C1988 C 0.93337 0.49752 0.6656 0.0
C1989 C 0.92207 0.49845 0.68112 0.0
C1990 C 0.95231 0.49872 0.66734 0.0
C1991 C 0.96036 0.50066 0.68463 0.0
C1992 C 0.94912 0.50229 0.7001 0.0
H1993 H 0.07698 0.50617 0.7131 0.0
H1994 H 0.04361 0.50373 0.7154 0.0
C1995 C 0.9301 0.50118 0.69837 0.0
C1996 C 0.98053 0.50088 0.68641 0.0
H1997 H 0.01883 0.47644 0.67574 0.0
C1998 C 0.98904 0.51653 0.69353 0.0
C1999 C 0.99138 0.48602 0.68041 0.0
C2000 C 0.98301 0.4684 0.67368 0.0
C2001 C 0.00817 0.51804 0.69403 0.0
C2002 C 0.01896 0.50346 0.68735 0.0
C2003 C 0.01047 0.48762 0.68074 0.0
C2004 C 0.03909 0.50475 0.68619 0.0
C2005 C 0.01676 0.53543 0.70102 0.0
C2006 C 0.04751 0.50581 0.66901 0.0
C2007 C 0.06648 0.50722 0.66765 0.0
C2008 C 0.07739 0.50743 0.68346 0.0
C2009 C 0.06893 0.50605 0.70068 0.0
C2010 C 0.0499 0.50475 0.70203 0.0
H2011 H 0.00649 0.54639 0.70326 0.0
H2012 H 0.02372 0.53263 0.7142 0.0
H2013 H 0.02723 0.54045 0.69124 0.0
H2014 H 0.03936 0.50574 0.65665 0.0
H2015 H 0.07258 0.50821 0.65419 0.0
H2016 H 0.28892 0.50465 0.92036 0.0
H2017 H 0.28597 0.50638 0.95372 0.0
H2018 H 0.34082 0.48572 0.95974 0.0
H2019 H 0.34395 0.48398 0.9265 0.0
H2020 H 0.31147 0.46764 0.98165 0.0
H2021 H 0.31419 0.5435 0.9881 0.0
H2022 H 0.29884 0.53404 0.97135 0.0
H2023 H 0.32304 0.53163 0.96833 0.0
C2024 C 0.30039 0.50059 0.92879 0.0
C2025 C 0.31669 0.49423 0.92082 0.0
C2026 C 0.29868 0.50159 0.94781 0.0
C2027 C 0.3132 0.49621 0.9591 0.0
C2028 C 0.32947 0.48992 0.9512 0.0
H2029 H 0.34149 0.5111 0.07092 0.0
H2030 H 0.33947 0.50812 0.03776 0.0
C2031 C 0.33125 0.48901 0.93222 0.0
C2032 C 0.31149 0.49697 0.97921 0.0
H2033 H 0.31071 0.52656 0.01525 0.0
C2034 C 0.31113 0.48049 0.98904 0.0
C2035 C 0.31116 0.51379 0.98869 0.0
C2036 C 0.31193 0.53181 0.97868 0.0
C2037 C 0.31067 0.48042 0.00823 0.0
C2038 C 0.31056 0.49724 0.0177 0.0
C2039 C 0.31068 0.5137 0.00786 0.0
C2040 C 0.31168 0.49809 0.03784 0.0
C2041 C 0.31092 0.46243 0.01831 0.0
C2042 C 0.29671 0.49328 0.04883 0.0
C2043 C 0.29778 0.49502 0.06786 0.0
C2044 C 0.31386 0.50155 0.07611 0.0
C2045 C 0.32891 0.506 0.06501 0.0
C2046 C 0.32779 0.50436 0.04606 0.0
H2047 H 0.31308 0.45065 0.00897 0.0
H2048 H 0.32189 0.46246 0.0288 0.0
H2049 H 0.2977 0.46051 0.0255 0.0
H2050 H 0.28412 0.48852 0.04265 0.0
H2051 H 0.28595 0.49153 0.07607 0.0
H2052 H 0.49368 0.28902 0.92318 0.0
H2053 H 0.49162 0.28743 0.95665 0.0
H2054 H 0.50921 0.34354 0.96049 0.0
H2055 H 0.51121 0.34533 0.92717 0.0
H2056 H 0.52872 0.31519 0.98361 0.0
H2057 H 0.45279 0.31614 0.98982 0.0
H2058 H 0.46292 0.30088 0.97334 0.0
H2059 H 0.46447 0.3251 0.96997 0.0
C2060 C 0.497 0.30104 0.93116 0.0
C2061 C 0.50257 0.31731 0.92255 0.0
C2062 C 0.4958 0.30011 0.95024 0.0
C2063 C 0.50022 0.31539 0.96095 0.0
C2064 C 0.50573 0.33162 0.9524 0.0
H2065 H 0.48688 0.34691 0.07287 0.0
H2066 H 0.48862 0.3443 0.03958 0.0
C2067 C 0.50681 0.33262 0.93337 0.0
C2068 C 0.49942 0.31449 0.98112 0.0
H2069 H 0.46976 0.31448 0.01715 0.0
C2070 C 0.51586 0.31488 0.99098 0.0
C2071 C 0.48259 0.31421 0.99058 0.0
C2072 C 0.46462 0.31415 0.98049 0.0
C2073 C 0.51589 0.31512 0.01017 0.0
C2074 C 0.49906 0.31499 0.01963 0.0
C2075 C 0.48262 0.31448 0.00978 0.0
C2076 C 0.49825 0.31636 0.03978 0.0
C2077 C 0.53384 0.31601 0.02026 0.0
C2078 C 0.50309 0.30146 0.05083 0.0
C2079 C 0.50203 0.30286 0.06989 0.0
C2080 C 0.4962 0.31922 0.07813 0.0
C2081 C 0.49149 0.33414 0.06695 0.0
C2082 C 0.49242 0.33267 0.04794 0.0
H2083 H 0.5456 0.3181 0.01087 0.0
H2084 H 0.53359 0.3273 0.03041 0.0
H2085 H 0.536 0.30305 0.02785 0.0
H2086 H 0.50754 0.28873 0.04471 0.0
H2087 H 0.50573 0.29113 0.07814 0.0
H2088 H 0.70442 0.48358 0.91782 0.0
H2089 H 0.70544 0.47935 0.95113 0.0
H2090 H 0.66615 0.52288 0.95772 0.0
H2091 H 0.66422 0.52624 0.92462 0.0
H2092 H 0.71504 0.49923 0.97857 0.0
H2093 H 0.64149 0.48503 0.98695 0.0
H2094 H 0.65205 0.48643 0.96475 0.0
H2095 H 0.6446 0.50688 0.97638 0.0
C2096 C 0.69594 0.49211 0.92645 0.0
C2097 C 0.68402 0.505 0.91872 0.0
C2098 C 0.69654 0.48973 0.94545 0.0
C2099 C 0.68545 0.50043 0.95696 0.0
C2100 C 0.67424 0.51392 0.94917 0.0
H2101 H 0.70293 0.51627 0.07383 0.0
H2102 H 0.70427 0.51772 0.04037 0.0
C2103 C 0.67326 0.51593 0.93025 0.0
C2104 C 0.68566 0.49773 0.97711 0.0
H2105 H 0.65762 0.49368 0.01412 0.0
C2106 C 0.70249 0.49777 0.98634 0.0
C2107 C 0.66935 0.4954 0.98728 0.0
C2108 C 0.65091 0.49321 0.97827 0.0
C2109 C 0.70343 0.49604 0.00545 0.0
C2110 C 0.68702 0.4951 0.01571 0.0
C2111 C 0.67024 0.49467 0.0064 0.0
C2112 C 0.68673 0.49421 0.03605 0.0
C2113 C 0.72203 0.49478 0.01428 0.0
C2114 C 0.67584 0.48106 0.04486 0.0
C2115 C 0.67444 0.48077 0.06387 0.0
C2116 C 0.68425 0.49333 0.07453 0.0
C2117 C 0.69538 0.50633 0.06586 0.0
C2118 C 0.69631 0.50701 0.04675 0.0
H2119 H 0.73236 0.48926 0.00461 0.0
H2120 H 0.72657 0.50867 0.01835 0.0
H2121 H 0.72177 0.48592 0.02661 0.0
H2122 H 0.66831 0.47102 0.03701 0.0
H2123 H 0.66587 0.47051 0.07027 0.0
H2124 H 0.51901 0.69727 0.92485 0.0
H2125 H 0.5237 0.69688 0.95811 0.0
H2126 H 0.47887 0.65893 0.96384 0.0
H2127 H 0.47511 0.65832 0.93075 0.0
H2128 H 0.50494 0.70658 0.9856 0.0
H2129 H 0.51493 0.63236 0.99315 0.0
H2130 H 0.51403 0.64315 0.97103 0.0
H2131 H 0.49327 0.63651 0.98261 0.0
C2132 C 0.51032 0.68874 0.93328 0.0
C2133 C 0.49691 0.67761 0.92529 0.0
C2134 C 0.51297 0.68852 0.95226 0.0
C2135 C 0.502 0.67744 0.96354 0.0
C2136 C 0.48808 0.66696 0.95549 0.0
H2137 H 0.4838 0.69583 0.07941 0.0
H2138 H 0.48386 0.69675 0.04596 0.0
C2139 C 0.48581 0.66675 0.93656 0.0
C2140 C 0.50462 0.67718 0.98373 0.0
H2141 H 0.50608 0.64848 0.02047 0.0
C2142 C 0.50546 0.69386 0.99321 0.0
C2143 C 0.50581 0.66063 0.99374 0.0
C2144 C 0.50719 0.6422 0.98455 0.0
C2145 C 0.50682 0.69445 0.01236 0.0
C2146 C 0.50634 0.6779 0.02245 0.0
C2147 C 0.5061 0.66123 0.01291 0.0
C2148 C 0.50612 0.67741 0.04283 0.0
C2149 C 0.50916 0.71284 0.02142 0.0
C2150 C 0.51786 0.66552 0.05234 0.0
C2151 C 0.51721 0.66437 0.0714 0.0
C2152 C 0.50511 0.67541 0.08137 0.0
C2153 C 0.4934 0.68735 0.07199 0.0
C2154 C 0.49362 0.68804 0.05287 0.0
H2155 H 0.51599 0.72271 0.0121 0.0
H2156 H 0.49552 0.71853 0.02481 0.0
H2157 H 0.51735 0.71182 0.03415 0.0
H2158 H 0.52761 0.65711 0.04502 0.0
H2159 H 0.52645 0.65512 0.07836 0.0
H2160 H 0.1675 0.27432 0.52556 0.0
H2161 H 0.18938 0.24892 0.52396 0.0
H2162 H 0.21957 0.27771 0.48221 0.0
H2163 H 0.19846 0.30345 0.48462 0.0
H2164 H 0.2 0.22576 0.4993 0.0
H2165 H 0.25967 0.26833 0.51712 0.0
H2166 H 0.23664 0.27692 0.51843 0.0
H2167 H 0.2488 0.27695 0.49696 0.0
C2168 C 0.17883 0.27514 0.51606 0.0
C2169 C 0.1815 0.29089 0.50541 0.0
C2170 C 0.19131 0.26067 0.51514 0.0
C2171 C 0.20646 0.26162 0.50335 0.0
C2172 C 0.20845 0.27694 0.49194 0.0
H2173 H 0.27407 0.16998 0.46895 0.0
H2174 H 0.24942 0.19232 0.47305 0.0
C2175 C 0.1963 0.29158 0.49321 0.0
C2176 C 0.22031 0.24676 0.50302 0.0
H2177 H 0.26626 0.23911 0.50402 0.0
C2178 C 0.21449 0.22863 0.50054 0.0
C2179 C 0.2392 0.2504 0.50511 0.0
C2180 C 0.24641 0.26918 0.50977 0.0
C2181 C 0.22706 0.21413 0.49959 0.0
C2182 C 0.24604 0.21798 0.50032 0.0
C2183 C 0.25177 0.23607 0.50322 0.0
C2184 C 0.26031 0.20363 0.4982 0.0
C2185 C 0.21977 0.19488 0.49823 0.0
C2186 C 0.27501 0.20287 0.51056 0.0
C2187 C 0.28941 0.19068 0.50776 0.0
C2188 C 0.28916 0.17868 0.49284 0.0
C2189 C 0.27433 0.17899 0.48071 0.0
C2190 C 0.26018 0.19162 0.48317 0.0
H2191 H 0.20593 0.1938 0.5044 0.0
H2192 H 0.21855 0.19102 0.48361 0.0
H2193 H 0.2289 0.18494 0.50516 0.0
H2194 H 0.27551 0.21194 0.52226 0.0
H2195 H 0.30077 0.1906 0.51728 0.0
H2196 H 0.70182 0.20413 0.51248 0.0
H2197 H 0.7291 0.22297 0.51047 0.0
H2198 H 0.76239 0.17471 0.50443 0.0
H2199 H 0.73493 0.15551 0.50621 0.0
H2200 H 0.76076 0.22242 0.53285 0.0
H2201 H 0.77632 0.20689 0.45986 0.0
H2202 H 0.75438 0.20184 0.46995 0.0
H2203 H 0.77382 0.18787 0.47525 0.0
C2204 C 0.71489 0.19741 0.51071 0.0
C2205 C 0.71611 0.17825 0.50937 0.0
C2206 C 0.7305 0.20825 0.50962 0.0
C2207 C 0.74772 0.20025 0.5071 0.0
C2208 C 0.74917 0.18114 0.50611 0.0
H2209 H 0.84625 0.26776 0.48893 0.0
H2210 H 0.82724 0.24068 0.49443 0.0
C2211 C 0.73347 0.17021 0.50723 0.0
C2212 C 0.76392 0.21226 0.5054 0.0
H2213 H 0.79405 0.22952 0.47416 0.0
C2214 C 0.76824 0.22378 0.52011 0.0
C2215 C 0.77369 0.21394 0.48878 0.0
C2216 C 0.76934 0.20209 0.47247 0.0
C2217 C 0.78154 0.23747 0.51841 0.0
C2218 C 0.79055 0.23982 0.50149 0.0
C2219 C 0.78702 0.22766 0.48709 0.0
C2220 C 0.8022 0.25597 0.49797 0.0
C2221 C 0.78548 0.24967 0.53456 0.0
C2222 C 0.79429 0.27341 0.4978 0.0
C2223 C 0.805 0.28884 0.49457 0.0
C2224 C 0.82391 0.28716 0.49145 0.0
C2225 C 0.83176 0.26957 0.49136 0.0
C2226 C 0.82095 0.25408 0.4945 0.0
H2227 H 0.78136 0.24312 0.54764 0.0
H2228 H 0.80023 0.25318 0.53525 0.0
H2229 H 0.77762 0.26256 0.5331 0.0
H2230 H 0.77977 0.27509 0.50016 0.0
H2231 H 0.79843 0.30211 0.49468 0.0
H2232 H 0.84486 0.73407 0.50651 0.0
H2233 H 0.82502 0.76104 0.50462 0.0
H2234 H 0.77818 0.72749 0.517 0.0
H2235 H 0.79771 0.70065 0.51912 0.0
H2236 H 0.79509 0.76641 0.48088 0.0
H2237 H 0.7732 0.76983 0.55319 0.0
H2238 H 0.7929 0.75686 0.54588 0.0
H2239 H 0.77028 0.74742 0.54367 0.0
C2240 C 0.83036 0.73246 0.50902 0.0
C2241 C 0.82291 0.71516 0.51301 0.0
C2242 C 0.81906 0.74788 0.50789 0.0
C2243 C 0.8002 0.74629 0.51096 0.0
C2244 C 0.79276 0.72909 0.51497 0.0
H2245 H 0.69825 0.79558 0.49709 0.0
H2246 H 0.72572 0.77731 0.50141 0.0
C2247 C 0.80397 0.71371 0.51604 0.0
C2248 C 0.78792 0.76229 0.50914 0.0
H2249 H 0.75363 0.78484 0.5313 0.0
C2250 C 0.7863 0.77077 0.49199 0.0
C2251 C 0.77655 0.76799 0.5237 0.0
C2252 C 0.77843 0.76018 0.5427 0.0
C2253 C 0.77271 0.78395 0.48872 0.0
C2254 C 0.76061 0.78874 0.50298 0.0
C2255 C 0.7629 0.78101 0.52037 0.0
C2256 C 0.74431 0.8002 0.49969 0.0
C2257 C 0.77064 0.79192 0.46982 0.0
C2258 C 0.74574 0.81916 0.49723 0.0
C2259 C 0.72998 0.82977 0.4948 0.0
C2260 C 0.71257 0.82153 0.49479 0.0
C2261 C 0.71136 0.80245 0.49704 0.0
C2262 C 0.72705 0.79194 0.49953 0.0
H2263 H 0.78049 0.78593 0.45993 0.0
H2264 H 0.75654 0.78955 0.46472 0.0
H2265 H 0.77285 0.80692 0.47037 0.0
H2266 H 0.759 0.82575 0.49743 0.0
H2267 H 0.73143 0.84441 0.49312 0.0
H2268 H 0.15837 0.73224 0.49613 0.0
H2269 H 0.17805 0.75909 0.5004 0.0
H2270 H 0.22446 0.72818 0.48136 0.0
H2271 H 0.20512 0.70137 0.47719 0.0
H2272 H 0.2115 0.75863 0.52387 0.0
H2273 H 0.22481 0.77763 0.45158 0.0
H2274 H 0.20508 0.76448 0.45854 0.0
H2275 H 0.22703 0.75367 0.4566 0.0
C2276 C 0.17272 0.73124 0.49263 0.0
C2277 C 0.18018 0.71465 0.48634 0.0
C2278 C 0.18392 0.74656 0.49512 0.0
C2279 C 0.20262 0.74559 0.49103 0.0
C2280 C 0.21 0.72922 0.48437 0.0
H2281 H 0.30155 0.79617 0.52265 0.0
H2282 H 0.27446 0.77718 0.5181 0.0
C2283 C 0.19892 0.71389 0.48209 0.0
C2284 C 0.21488 0.7612 0.49474 0.0
H2285 H 0.24516 0.78994 0.47397 0.0
C2286 C 0.21865 0.76572 0.51299 0.0
C2287 C 0.22406 0.77044 0.48049 0.0
C2288 C 0.21997 0.76647 0.46067 0.0
C2289 C 0.23214 0.77863 0.51737 0.0
C2290 C 0.24207 0.78709 0.50312 0.0
C2291 C 0.23759 0.7833 0.48486 0.0
C2292 C 0.25796 0.79899 0.50685 0.0
C2293 C 0.23598 0.78285 0.53718 0.0
C2294 C 0.25763 0.8175 0.50191 0.0
C2295 C 0.27308 0.82843 0.50454 0.0
C2296 C 0.28921 0.82094 0.5119 0.0
C2297 C 0.28939 0.80238 0.51692 0.0
C2298 C 0.27389 0.79153 0.51444 0.0
H2299 H 0.22441 0.77876 0.54614 0.0
H2300 H 0.2483 0.77519 0.5416 0.0
H2301 H 0.2387 0.79766 0.53911 0.0
H2302 H 0.24546 0.82343 0.49591 0.0
H2303 H 0.27248 0.84265 0.50044 0.0
H2304 H 0.52566 0.16842 0.27502 0.0
H2305 H 0.52487 0.19051 0.24974 0.0
H2306 H 0.48356 0.22151 0.2783 0.0
H2307 H 0.48524 0.20021 0.30395 0.0
H2308 H 0.50088 0.20181 0.22637 0.0
H2309 H 0.5192 0.26096 0.26945 0.0
H2310 H 0.51992 0.23787 0.27799 0.0
H2311 H 0.49872 0.25047 0.27777 0.0
C2312 C 0.51646 0.18 0.27582 0.0
C2313 C 0.50572 0.18284 0.29148 0.0
C2314 C 0.51599 0.19259 0.26141 0.0
C2315 C 0.50455 0.20801 0.26234 0.0
C2316 C 0.49305 0.21018 0.27756 0.0
H2317 H 0.47267 0.27696 0.17066 0.0
H2318 H 0.47603 0.25195 0.19271 0.0
C2319 C 0.4939 0.19792 0.29215 0.0
C2320 C 0.50467 0.22194 0.24753 0.0
H2321 H 0.50653 0.26792 0.24014 0.0
C2322 C 0.50233 0.21626 0.22933 0.0
C2323 C 0.50702 0.24079 0.25129 0.0
C2324 C 0.51157 0.24784 0.27016 0.0
C2325 C 0.50179 0.22893 0.21489 0.0
C2326 C 0.50279 0.24787 0.21884 0.0
C2327 C 0.50552 0.25346 0.23701 0.0
C2328 C 0.50118 0.26228 0.20454 0.0
C2329 C 0.50057 0.22176 0.19558 0.0
C2330 C 0.51382 0.27675 0.20411 0.0
C2331 C 0.51144 0.29136 0.19208 0.0
C2332 C 0.49666 0.29156 0.17989 0.0
C2333 C 0.48431 0.27691 0.17982 0.0
C2334 C 0.48635 0.26254 0.19229 0.0
H2335 H 0.50649 0.20781 0.19451 0.0
H2336 H 0.486 0.22085 0.1915 0.0
H2337 H 0.50782 0.23082 0.18579 0.0
H2338 H 0.52539 0.27694 0.21335 0.0
H2339 H 0.52116 0.30254 0.1923 0.0
H2340 H 0.79307 0.51075 0.30308 0.0
H2341 H 0.77387 0.50899 0.2759 0.0
H2342 H 0.82184 0.50693 0.24174 0.0
H2343 H 0.84131 0.50848 0.26891 0.0
H2344 H 0.77335 0.53331 0.24545 0.0
H2345 H 0.7914 0.46206 0.22544 0.0
H2346 H 0.79616 0.47103 0.24793 0.0
H2347 H 0.81003 0.47774 0.22884 0.0
C2348 C 0.79962 0.50986 0.28983 0.0
C2349 C 0.81878 0.50965 0.28823 0.0
C2350 C 0.78859 0.5089 0.2743 0.0
C2351 C 0.79645 0.50763 0.25686 0.0
C2352 C 0.81553 0.50762 0.25512 0.0
H2353 H 0.73282 0.49408 0.15511 0.0
H2354 H 0.75896 0.49921 0.17554 0.0
C2355 C 0.82662 0.5086 0.27067 0.0
C2356 C 0.78445 0.50647 0.24062 0.0
H2357 H 0.76934 0.47717 0.20757 0.0
C2358 C 0.77261 0.52112 0.23703 0.0
C2359 C 0.78365 0.4906 0.2296 0.0
C2360 C 0.79587 0.47437 0.23312 0.0
C2361 C 0.75952 0.52007 0.22308 0.0
C2362 C 0.7581 0.50386 0.21266 0.0
C2363 C 0.77052 0.48956 0.21563 0.0
C2364 C 0.74258 0.50081 0.2001 0.0
C2365 C 0.74703 0.53616 0.21986 0.0
C2366 C 0.72486 0.49971 0.20725 0.0
C2367 C 0.70999 0.49671 0.19574 0.0
C2368 C 0.71251 0.49472 0.17677 0.0
C2369 C 0.73037 0.49564 0.16963 0.0
C2370 C 0.74531 0.49855 0.18125 0.0
H2371 H 0.75307 0.54906 0.22512 0.0
H2372 H 0.74399 0.53783 0.20508 0.0
H2373 H 0.73393 0.53383 0.22715 0.0
H2374 H 0.72252 0.5011 0.22181 0.0
H2375 H 0.6965 0.49603 0.2018 0.0
H2376 H 0.51967 0.72449 0.16568 0.0
H2377 H 0.51897 0.75106 0.18618 0.0
H2378 H 0.47844 0.72417 0.21957 0.0
H2379 H 0.47989 0.69731 0.19978 0.0
H2380 H 0.49451 0.77513 0.19758 0.0
H2381 H 0.51659 0.73392 0.25694 0.0
H2382 H 0.51638 0.72485 0.23405 0.0
H2383 H 0.49573 0.72526 0.24752 0.0
C2384 C 0.51057 0.72435 0.17737 0.0
C2385 C 0.50006 0.70878 0.18137 0.0
C2386 C 0.51016 0.73951 0.18905 0.0
C2387 C 0.49905 0.7394 0.20473 0.0
C2388 C 0.48763 0.72431 0.20796 0.0
H2389 H 0.47188 0.83255 0.27415 0.0
H2390 H 0.47333 0.81037 0.24902 0.0
C2391 C 0.48837 0.70903 0.19659 0.0
C2392 C 0.49981 0.75467 0.2181 0.0
H2393 H 0.50498 0.7636 0.26355 0.0
C2394 C 0.49697 0.77266 0.212 0.0
C2395 C 0.50345 0.75153 0.23685 0.0
C2396 C 0.50842 0.73287 0.24418 0.0
C2397 C 0.49724 0.78753 0.2242 0.0
C2398 C 0.49976 0.78421 0.24312 0.0
C2399 C 0.50288 0.76623 0.2491 0.0
C2400 C 0.49946 0.79897 0.25713 0.0
C2401 C 0.49525 0.80659 0.21658 0.0
C2402 C 0.51345 0.79983 0.27028 0.0
C2403 C 0.51225 0.81196 0.28493 0.0
C2404 C 0.49729 0.82384 0.28649 0.0
C2405 C 0.48366 0.82364 0.27302 0.0
C2406 C 0.48458 0.81107 0.25859 0.0
H2407 H 0.49975 0.80723 0.20208 0.0
H2408 H 0.48064 0.81063 0.21702 0.0
H2409 H 0.5033 0.81665 0.22458 0.0
H2410 H 0.52509 0.79071 0.2695 0.0
H2411 H 0.52293 0.81194 0.29519 0.0
H2412 H 0.15567 0.48843 0.26747 0.0
H2413 H 0.17633 0.49164 0.24132 0.0
H2414 H 0.22267 0.49017 0.27769 0.0
H2415 H 0.20232 0.48663 0.30378 0.0
H2416 H 0.20156 0.51876 0.23398 0.0
H2417 H 0.23627 0.45183 0.24 0.0
H2418 H 0.21527 0.45697 0.25192 0.0
H2419 H 0.23688 0.46445 0.26101 0.0
C2420 C 0.17027 0.48867 0.26991 0.0
C2421 C 0.1773 0.48716 0.28777 0.0
C2422 C 0.18204 0.49052 0.25494 0.0
C2423 C 0.20104 0.4908 0.25753 0.0
C2424 C 0.20808 0.48951 0.27532 0.0
H2425 H 0.3002 0.51425 0.203 0.0
H2426 H 0.27446 0.50869 0.22338 0.0
C2427 C 0.19637 0.48761 0.29026 0.0
C2428 C 0.21363 0.49307 0.24182 0.0
H2429 H 0.25166 0.47464 0.22203 0.0
C2430 C 0.21233 0.50898 0.23114 0.0
C2431 C 0.22759 0.48022 0.23806 0.0
C2432 C 0.22899 0.46232 0.24824 0.0
C2433 C 0.22526 0.51284 0.21746 0.0
C2434 C 0.23972 0.50042 0.2144 0.0
C2435 C 0.24059 0.48418 0.22455 0.0
C2436 C 0.25486 0.50457 0.20168 0.0
C2437 C 0.2239 0.5305 0.2069 0.0
C2438 C 0.25228 0.50416 0.18268 0.0
C2439 C 0.26703 0.50728 0.17088 0.0
C2440 C 0.28459 0.51086 0.17793 0.0
C2441 C 0.28693 0.51152 0.19702 0.0
C2442 C 0.27224 0.50833 0.20874 0.0
H2443 H 0.21293 0.53955 0.21223 0.0
H2444 H 0.23712 0.53795 0.20747 0.0
H2445 H 0.22098 0.52744 0.19233 0.0
H2446 H 0.23895 0.50112 0.17701 0.0
H2447 H 0.26472 0.50664 0.15627 0.0
H2448 H 0.49006 0.69316 0.79845 0.0
H2449 H 0.4945 0.71956 0.77867 0.0
H2450 H 0.49505 0.75512 0.82563 0.0
H2451 H 0.49061 0.72866 0.84578 0.0
H2452 H 0.47204 0.76657 0.79409 0.0
H2453 H 0.54337 0.74926 0.77508 0.0
H2454 H 0.52759 0.73053 0.77316 0.0
H2455 H 0.53235 0.74019 0.79525 0.0
C2456 C 0.49111 0.70655 0.80469 0.0
C2457 C 0.49008 0.70872 0.82379 0.0
C2458 C 0.49372 0.72163 0.79331 0.0
C2459 C 0.49535 0.73921 0.80072 0.0
C2460 C 0.49394 0.7416 0.8197 0.0
H2461 H 0.50502 0.84004 0.73466 0.0
H2462 H 0.50238 0.81984 0.76129 0.0
C2463 C 0.49142 0.72646 0.83117 0.0
C2464 C 0.49844 0.75495 0.78839 0.0
H2465 H 0.528 0.77081 0.75599 0.0
C2466 C 0.48438 0.76776 0.78596 0.0
C2467 C 0.5146 0.75642 0.7779 0.0
C2468 C 0.53043 0.74348 0.78055 0.0
C2469 C 0.48562 0.7814 0.77246 0.0
C2470 C 0.50145 0.78231 0.76138 0.0
C2471 C 0.51584 0.77001 0.76444 0.0
C2472 C 0.50279 0.79483 0.7455 0.0
C2473 C 0.46963 0.79408 0.76949 0.0
C2474 C 0.50416 0.78745 0.72787 0.0
C2475 C 0.50574 0.79887 0.71269 0.0
C2476 C 0.50608 0.818 0.71478 0.0
C2477 C 0.50473 0.82539 0.73252 0.0
C2478 C 0.50314 0.81388 0.74775 0.0
H2479 H 0.45728 0.78958 0.77708 0.0
H2480 H 0.47332 0.80799 0.77427 0.0
H2481 H 0.46623 0.79499 0.75472 0.0
H2482 H 0.50395 0.77278 0.72585 0.0
H2483 H 0.50679 0.79263 0.69931 0.0
H2484 H 0.26861 0.49176 0.84123 0.0
H2485 H 0.2422 0.49739 0.82144 0.0
H2486 H 0.27766 0.49925 0.77441 0.0
H2487 H 0.3041 0.49368 0.7939 0.0
H2488 H 0.25164 0.52971 0.77874 0.0
H2489 H 0.21965 0.46069 0.78326 0.0
H2490 H 0.22607 0.47187 0.80423 0.0
H2491 H 0.24345 0.46447 0.78862 0.0
C2492 C 0.27081 0.49328 0.82666 0.0
C2493 C 0.28853 0.49226 0.81918 0.0
C2494 C 0.25568 0.49645 0.8154 0.0
C2495 C 0.25803 0.49863 0.7965 0.0
C2496 C 0.27561 0.49758 0.78899 0.0
H2497 H 0.20464 0.5166 0.69602 0.0
H2498 H 0.22467 0.51437 0.72246 0.0
C2499 C 0.2907 0.49436 0.80018 0.0
C2500 C 0.24231 0.50238 0.78439 0.0
H2501 H 0.20576 0.48209 0.76372 0.0
C2502 C 0.24148 0.51939 0.77559 0.0
C2503 C 0.22901 0.48893 0.7805 0.0
C2504 C 0.22951 0.47039 0.78953 0.0
C2505 C 0.22799 0.52312 0.7625 0.0
C2506 C 0.21527 0.50932 0.75786 0.0
C2507 C 0.21557 0.49261 0.7673 0.0
C2508 C 0.20276 0.51134 0.7421 0.0
C2509 C 0.22763 0.54171 0.75358 0.0
C2510 C 0.18377 0.51 0.74433 0.0
C2511 C 0.17217 0.51118 0.72915 0.0
C2512 C 0.17944 0.5135 0.71147 0.0
C2513 C 0.19851 0.51484 0.70939 0.0
C2514 C 0.21002 0.51371 0.72452 0.0
H2515 H 0.23401 0.55224 0.76247 0.0
H2516 H 0.23552 0.54118 0.74063 0.0
H2517 H 0.21343 0.546 0.75035 0.0
H2518 H 0.17793 0.50801 0.7578 0.0
H2519 H 0.15756 0.51002 0.73125 0.0
H2520 H 0.48845 0.20283 0.69804 0.0
H2521 H 0.49137 0.22216 0.72493 0.0
H2522 H 0.49646 0.17443 0.75913 0.0
H2523 H 0.49371 0.15473 0.73211 0.0
H2524 H 0.46832 0.22194 0.75638 0.0
H2525 H 0.54105 0.20682 0.77327 0.0
H2526 H 0.53139 0.2017 0.75114 0.0
H2527 H 0.52579 0.18773 0.7705 0.0
C2528 C 0.49027 0.19632 0.71122 0.0
C2529 C 0.49091 0.17716 0.71285 0.0
C2530 C 0.49191 0.20744 0.7266 0.0
C2531 C 0.49429 0.19973 0.74397 0.0
C2532 C 0.49488 0.18064 0.74578 0.0
H2533 H 0.50863 0.26694 0.84338 0.0
H2534 H 0.5046 0.23997 0.82382 0.0
C2535 C 0.49322 0.16942 0.73033 0.0
C2536 C 0.49577 0.21197 0.76003 0.0
H2537 H 0.52626 0.22935 0.79083 0.0
C2538 C 0.4809 0.22339 0.76408 0.0
C2539 C 0.51217 0.21374 0.7701 0.0
C2540 C 0.5286 0.20196 0.76606 0.0
C2541 C 0.48223 0.23703 0.77747 0.0
C2542 C 0.49893 0.23945 0.78686 0.0
C2543 C 0.5135 0.22743 0.78353 0.0
C2544 C 0.50196 0.25549 0.7988 0.0
C2545 C 0.4659 0.24907 0.78116 0.0
C2546 C 0.50219 0.27302 0.7911 0.0
C2547 C 0.50455 0.28839 0.80212 0.0
C2548 C 0.50674 0.28656 0.82116 0.0
C2549 C 0.5069 0.26887 0.8288 0.0
C2550 C 0.50461 0.25345 0.81767 0.0
H2551 H 0.45298 0.24253 0.7766 0.0
H2552 H 0.46479 0.25235 0.79594 0.0
H2553 H 0.4675 0.2621 0.77355 0.0
H2554 H 0.50043 0.27483 0.7765 0.0
H2555 H 0.50445 0.30172 0.79568 0.0
H2556 H 0.69468 0.51261 0.79104 0.0
H2557 H 0.72055 0.50896 0.77043 0.0
H2558 H 0.75695 0.50425 0.81653 0.0
H2559 H 0.73101 0.50758 0.83745 0.0
H2560 H 0.75164 0.53047 0.76727 0.0
H2561 H 0.76942 0.4589 0.78603 0.0
H2562 H 0.74801 0.46933 0.7925 0.0
H2563 H 0.76861 0.47498 0.80459 0.0
C2564 C 0.70815 0.51075 0.7969 0.0
C2565 C 0.7107 0.51028 0.81597 0.0
C2566 C 0.72294 0.50869 0.78505 0.0
C2567 C 0.74062 0.50609 0.79194 0.0
C2568 C 0.74335 0.50588 0.81093 0.0
H2569 H 0.84082 0.49033 0.72742 0.0
H2570 H 0.81984 0.49517 0.7531 0.0
C2571 C 0.72851 0.5079 0.82286 0.0
C2572 C 0.75607 0.50385 0.77903 0.0
H2573 H 0.78758 0.47307 0.76347 0.0
C2574 C 0.75958 0.51797 0.76652 0.0
C2575 C 0.76645 0.48754 0.77814 0.0
C2576 C 0.76291 0.47173 0.79092 0.0
C2577 C 0.77292 0.51608 0.75289 0.0
C2578 C 0.78286 0.49957 0.75162 0.0
C2579 C 0.77987 0.48569 0.76451 0.0
C2580 C 0.79557 0.4961 0.73628 0.0
C2581 C 0.77617 0.5317 0.7398 0.0
C2582 C 0.78876 0.49465 0.71843 0.0
C2583 C 0.80063 0.49181 0.70377 0.0
C2584 C 0.8196 0.49038 0.70665 0.0
C2585 C 0.82633 0.49146 0.72467 0.0
C2586 C 0.81438 0.49421 0.73936 0.0
H2587 H 0.77087 0.54483 0.7453 0.0
H2588 H 0.79096 0.53325 0.7368 0.0
H2589 H 0.769 0.52883 0.72675 0.0
H2590 H 0.77423 0.49579 0.71584 0.0
H2591 H 0.7949 0.49096 0.69014 0.0
loop_
_geom_bond_atom_site_label_1
_geom_bond_atom_site_label_2
_geom_bond_distance
_geom_bond_site_symmetry_2
_ccdc_geom_bond_type
Mn0 O5 2.095 . S
Mn0 O15 2.162 . S
Mn0 O16 2.297 . S
Mn0 O24 2.385 . S
Mn0 O25 2.209 . S
Mn0 O26 2.094 . S
Mn1 O6 2.121 . S
Mn1 N8 2.257 . S
Mn1 N17 2.282 . S
Mn1 O25 2.215 . S
Mn1 O27 2.117 . S
C2 O24 1.234 . S
C2 O25 1.283 . S
C3 O15 1.281 . S
C3 O16 1.236 . S
C4 O26 1.240 . S
C4 O27 1.264 . S
O5 Mn0 2.095 . S
O5 C14 1.250 . S
O6 Mn1 2.121 . S
O6 C14 1.258 . S
C7 N8 1.326 . S
C7 C11 1.460 . S
C7 H13 0.929 . S
N8 Mn1 2.257 . S
N8 C7 1.326 . S
N8 C12 1.362 . S
C9 C10 1.258 . S
C9 C12 1.431 . S
C9 C29 1.449 . S
C10 C9 1.258 . S
C10 C11 1.477 . S
C10 H30 0.931 . S
C11 C7 1.460 . S
C11 C10 1.477 . S
C11 H31 0.930 . S
C12 N8 1.362 . S
C12 C9 1.431 . S
C12 C22 1.476 . S
H13 C7 0.929 . S
C14 O5 1.250 . S
C14 O6 1.258 . S
O15 Mn0 2.162 . S
O15 C3 1.281 . S
O16 Mn0 2.297 . S
O16 C3 1.236 . S
N17 Mn1 2.282 . S
N17 C18 1.328 . S
N17 C22 1.318 . S
C18 N17 1.328 . S
C18 C19 1.457 . S
C18 H23 0.929 . S
C19 C18 1.457 . S
C19 C20 1.291 . S
C19 H32 0.931 . S
C20 C19 1.291 . S
C20 C21 1.373 . S
C20 H33 0.929 . S
C21 C20 1.373 . S
C21 C22 1.396 . S
C21 C28 1.403 . S
C22 C12 1.476 . S
C22 N17 1.318 . S
C22 C21 1.396 . S
H23 C18 0.929 . S
O24 Mn0 2.385 . S
O24 C2 1.234 . S
O25 Mn0 2.209 . S
O25 Mn1 2.215 . S
O25 C2 1.283 . S
O26 Mn0 2.094 . S
O26 C4 1.240 . S
O27 Mn1 2.117 . S
O27 C4 1.264 . S
C28 C21 1.403 . S
C28 C29 1.399 . S
C28 H34 0.929 . S
C29 C9 1.449 . S
C29 C28 1.399 . S
C29 H35 0.930 . S
H30 C10 0.931 . S
H31 C11 0.930 . S
H32 C19 0.931 . S
H33 C20 0.929 . S
H34 C28 0.929 . S
H35 C29 0.930 . S
Mn36 O41 2.095 . S
Mn36 O51 2.162 . S
Mn36 O52 2.297 . S
Mn36 O60 2.385 . S
Mn36 O61 2.209 . S
Mn36 O62 2.094 . S
Mn37 O42 2.121 . S
Mn37 N44 2.257 . S
Mn37 N53 2.282 . S
Mn37 O61 2.215 . S
Mn37 O63 2.117 . S
C38 O60 1.234 . S
C38 O61 1.283 . S
C39 O51 1.281 . S
C39 O52 1.236 . S
C40 O62 1.240 . S
C40 O63 1.264 . S
O41 Mn36 2.095 . S
O41 C50 1.250 . S
O42 Mn37 2.121 . S
O42 C50 1.258 . S
C43 N44 1.326 . S
C43 C47 1.460 . S
C43 H49 0.929 . S
N44 Mn37 2.257 . S
N44 C43 1.326 . S
N44 C48 1.362 . S
C45 C46 1.258 . S
C45 C48 1.431 . S
C45 C65 1.449 . S
C46 C45 1.258 . S
C46 C47 1.477 . S
C46 H66 0.931 . S
C47 C43 1.460 . S
C47 C46 1.477 . S
C47 H67 0.930 . S
C48 N44 1.362 . S
C48 C45 1.431 . S
C48 C58 1.476 . S
H49 C43 0.929 . S
C50 O41 1.250 . S
C50 O42 1.258 . S
O51 Mn36 2.162 . S
O51 C39 1.281 . S
O52 Mn36 2.297 . S
O52 C39 1.236 . S
N53 Mn37 2.282 . S
N53 C54 1.328 . S
N53 C58 1.318 . S
C54 N53 1.328 . S
C54 C55 1.457 . S
C54 H59 0.929 . S
C55 C54 1.457 . S
C55 C56 1.291 . S
C55 H68 0.931 . S
C56 C55 1.291 . S
C56 C57 1.373 . S
C56 H69 0.929 . S
C57 C56 1.373 . S
C57 C58 1.396 . S
C57 C64 1.403 . S
C58 C48 1.476 . S
C58 N53 1.318 . S
C58 C57 1.396 . S
H59 C54 0.929 . S
O60 Mn36 2.385 . S
O60 C38 1.234 . S
O61 Mn36 2.209 . S
O61 Mn37 2.215 . S
O61 C38 1.283 . S
O62 Mn36 2.094 . S
O62 C40 1.240 . S
O63 Mn37 2.117 . S
O63 C40 1.264 . S
C64 C57 1.403 . S
C64 C65 1.399 . S
C64 H70 0.929 . S
C65 C45 1.449 . S
C65 C64 1.399 . S
C65 H71 0.930 . S
H66 C46 0.931 . S
H67 C47 0.930 . S
H68 C55 0.931 . S
H69 C56 0.929 . S
H70 C64 0.929 . S
H71 C65 0.930 . S
Mn72 O77 2.095 . S
Mn72 O87 2.162 . S
Mn72 O88 2.297 . S
Mn72 O96 2.385 . S
Mn72 O97 2.209 . S
Mn72 O98 2.094 . S
Mn73 O78 2.121 . S
Mn73 N80 2.257 . S
Mn73 N89 2.282 . S
Mn73 O97 2.215 . S
Mn73 O99 2.117 . S
C74 O96 1.234 . S
C74 O97 1.283 . S
C75 O87 1.281 . S
C75 O88 1.236 . S
C76 O98 1.240 . S
C76 O99 1.264 . S
O77 Mn72 2.095 . S
O77 C86 1.250 . S
O78 Mn73 2.121 . S
O78 C86 1.258 . S
C79 N80 1.326 . S
C79 C83 1.460 . S
C79 H85 0.929 . S
N80 Mn73 2.257 . S
N80 C79 1.326 . S
N80 C84 1.362 . S
C81 C82 1.258 . S
C81 C84 1.431 . S
C81 C101 1.449 . S
C82 C81 1.258 . S
C82 C83 1.477 . S
C82 H102 0.931 . S
C83 C79 1.460 . S
C83 C82 1.477 . S
C83 H103 0.930 . S
C84 N80 1.362 . S
C84 C81 1.431 . S
C84 C94 1.476 . S
H85 C79 0.929 . S
C86 O77 1.250 . S
C86 O78 1.258 . S
O87 Mn72 2.162 . S
O87 C75 1.281 . S
O88 Mn72 2.297 . S
O88 C75 1.236 . S
N89 Mn73 2.282 . S
N89 C90 1.328 . S
N89 C94 1.318 . S
C90 N89 1.328 . S
C90 C91 1.457 . S
C90 H95 0.929 . S
C91 C90 1.457 . S
C91 C92 1.291 . S
C91 H104 0.931 . S
C92 C91 1.291 . S
C92 C93 1.373 . S
C92 H105 0.929 . S
C93 C92 1.373 . S
C93 C94 1.396 . S
C93 C100 1.403 . S
C94 C84 1.476 . S
C94 N89 1.318 . S
C94 C93 1.396 . S
H95 C90 0.929 . S
O96 Mn72 2.385 . S
O96 C74 1.234 . S
O97 Mn72 2.209 . S
O97 Mn73 2.215 . S
O97 C74 1.283 . S
O98 Mn72 2.094 . S
O98 C76 1.240 . S
O99 Mn73 2.117 . S
O99 C76 1.264 . S
C100 C93 1.403 . S
C100 C101 1.399 . S
C100 H106 0.929 . S
C101 C81 1.449 . S
C101 C100 1.399 . S
C101 H107 0.930 . S
H102 C82 0.931 . S
H103 C83 0.930 . S
H104 C91 0.931 . S
H105 C92 0.929 . S
H106 C100 0.929 . S
H107 C101 0.930 . S
Mn108 O113 2.095 . S
Mn108 O123 2.162 . S
Mn108 O124 2.297 . S
Mn108 O132 2.385 . S
Mn108 O133 2.209 . S
Mn108 O134 2.094 . S
Mn109 O114 2.121 . S
Mn109 N116 2.257 . S
Mn109 N125 2.282 . S
Mn109 O133 2.215 . S
Mn109 O135 2.117 . S
C110 O132 1.234 . S
C110 O133 1.283 . S
C111 O123 1.281 . S
C111 O124 1.236 . S
C112 O134 1.240 . S
C112 O135 1.264 . S
O113 Mn108 2.095 . S
O113 C122 1.250 . S
O114 Mn109 2.121 . S
O114 C122 1.258 . S
C115 N116 1.326 . S
C115 C119 1.460 . S
C115 H121 0.929 . S
N116 Mn109 2.257 . S
N116 C115 1.326 . S
N116 C120 1.362 . S
C117 C118 1.258 . S
C117 C120 1.431 . S
C117 C137 1.449 . S
C118 C117 1.258 . S
C118 C119 1.477 . S
C118 H138 0.931 . S
C119 C115 1.460 . S
C119 C118 1.477 . S
C119 H139 0.930 . S
C120 N116 1.362 . S
C120 C117 1.431 . S
C120 C130 1.476 . S
H121 C115 0.929 . S
C122 O113 1.250 . S
C122 O114 1.258 . S
O123 Mn108 2.162 . S
O123 C111 1.281 . S
O124 Mn108 2.297 . S
O124 C111 1.236 . S
N125 Mn109 2.282 . S
N125 C126 1.328 . S
N125 C130 1.318 . S
C126 N125 1.328 . S
C126 C127 1.457 . S
C126 H131 0.929 . S
C127 C126 1.457 . S
C127 C128 1.291 . S
C127 H140 0.931 . S
C128 C127 1.291 . S
C128 C129 1.373 . S
C128 H141 0.929 . S
C129 C128 1.373 . S
C129 C130 1.396 . S
C129 C136 1.403 . S
C130 C120 1.476 . S
C130 N125 1.318 . S
C130 C129 1.396 . S
H131 C126 0.929 . S
O132 Mn108 2.385 . S
O132 C110 1.234 . S
O133 Mn108 2.209 . S
O133 Mn109 2.215 . S
O133 C110 1.283 . S
O134 Mn108 2.094 . S
O134 C112 1.240 . S
O135 Mn109 2.117 . S
O135 C112 1.264 . S
C136 C129 1.403 . S
C136 C137 1.399 . S
C136 H142 0.929 . S
C137 C117 1.449 . S
C137 C136 1.399 . S
C137 H143 0.930 . S
H138 C118 0.931 . S
H139 C119 0.930 . S
H140 C127 0.931 . S
H141 C128 0.929 . S
H142 C136 0.929 . S
H143 C137 0.930 . S
Mn144 O149 2.095 . S
Mn144 O159 2.162 . S
Mn144 O160 2.297 . S
Mn144 O168 2.385 . S
Mn144 O169 2.209 . S
Mn144 O170 2.094 . S
Mn145 O150 2.121 . S
Mn145 N152 2.257 . S
Mn145 N161 2.282 . S
Mn145 O169 2.215 . S
Mn145 O171 2.117 . S
C146 O168 1.234 . S
C146 O169 1.283 . S
C147 O159 1.281 . S
C147 O160 1.236 . S
C148 O170 1.240 . S
C148 O171 1.264 . S
O149 Mn144 2.095 . S
O149 C158 1.250 . S
O150 Mn145 2.121 . S
O150 C158 1.258 . S
C151 N152 1.326 . S
C151 C155 1.460 . S
C151 H157 0.929 . S
N152 Mn145 2.257 . S
N152 C151 1.326 . S
N152 C156 1.362 . S
C153 C154 1.258 . S
C153 C156 1.431 . S
C153 C173 1.449 . S
C154 C153 1.258 . S
C154 C155 1.477 . S
C154 H174 0.931 . S
C155 C151 1.460 . S
C155 C154 1.477 . S
C155 H175 0.930 . S
C156 N152 1.362 . S
C156 C153 1.431 . S
C156 C166 1.476 . S
H157 C151 0.929 . S
C158 O149 1.250 . S
C158 O150 1.258 . S
O159 Mn144 2.162 . S
O159 C147 1.281 . S
O160 Mn144 2.297 . S
O160 C147 1.236 . S
N161 Mn145 2.282 . S
N161 C162 1.328 . S
N161 C166 1.318 . S
C162 N161 1.328 . S
C162 C163 1.457 . S
C162 H167 0.929 . S
C163 C162 1.457 . S
C163 C164 1.291 . S
C163 H176 0.931 . S
C164 C163 1.291 . S
C164 C165 1.373 . S
C164 H177 0.929 . S
C165 C164 1.373 . S
C165 C166 1.396 . S
C165 C172 1.403 . S
C166 C156 1.476 . S
C166 N161 1.318 . S
C166 C165 1.396 . S
H167 C162 0.929 . S
O168 Mn144 2.385 . S
O168 C146 1.234 . S
O169 Mn144 2.209 . S
O169 Mn145 2.215 . S
O169 C146 1.283 . S
O170 Mn144 2.094 . S
O170 C148 1.240 . S
O171 Mn145 2.117 . S
O171 C148 1.264 . S
C172 C165 1.403 . S
C172 C173 1.399 . S
C172 H178 0.929 . S
C173 C153 1.449 . S
C173 C172 1.399 . S
C173 H179 0.930 . S
H174 C154 0.931 . S
H175 C155 0.930 . S
H176 C163 0.931 . S
H177 C164 0.929 . S
H178 C172 0.929 . S
H179 C173 0.930 . S
Mn180 O185 2.095 . S
Mn180 O195 2.162 . S
Mn180 O196 2.297 . S
Mn180 O204 2.385 . S
Mn180 O205 2.209 . S
Mn180 O206 2.094 . S
Mn181 O186 2.121 . S
Mn181 N188 2.257 . S
Mn181 N197 2.282 . S
Mn181 O205 2.215 . S
Mn181 O207 2.117 . S
C182 O204 1.234 . S
C182 O205 1.283 . S
C183 O195 1.281 . S
C183 O196 1.236 . S
C184 O206 1.240 . S
C184 O207 1.264 . S
O185 Mn180 2.095 . S
O185 C194 1.250 . S
O186 Mn181 2.121 . S
O186 C194 1.258 . S
C187 N188 1.326 . S
C187 C191 1.460 . S
C187 H193 0.929 . S
N188 Mn181 2.257 . S
N188 C187 1.326 . S
N188 C192 1.362 . S
C189 C190 1.258 . S
C189 C192 1.431 . S
C189 C209 1.449 . S
C190 C189 1.258 . S
C190 C191 1.477 . S
C190 H210 0.931 . S
C191 C187 1.460 . S
C191 C190 1.477 . S
C191 H211 0.930 . S
C192 N188 1.362 . S
C192 C189 1.431 . S
C192 C202 1.476 . S
H193 C187 0.929 . S
C194 O185 1.250 . S
C194 O186 1.258 . S
O195 Mn180 2.162 . S
O195 C183 1.281 . S
O196 Mn180 2.297 . S
O196 C183 1.236 . S
N197 Mn181 2.282 . S
N197 C198 1.328 . S
N197 C202 1.318 . S
C198 N197 1.328 . S
C198 C199 1.457 . S
C198 H203 0.929 . S
C199 C198 1.457 . S
C199 C200 1.291 . S
C199 H212 0.931 . S
C200 C199 1.291 . S
C200 C201 1.373 . S
C200 H213 0.929 . S
C201 C200 1.373 . S
C201 C202 1.396 . S
C201 C208 1.403 . S
C202 C192 1.476 . S
C202 N197 1.318 . S
C202 C201 1.396 . S
H203 C198 0.929 . S
O204 Mn180 2.385 . S
O204 C182 1.234 . S
O205 Mn180 2.209 . S
O205 Mn181 2.215 . S
O205 C182 1.283 . S
O206 Mn180 2.094 . S
O206 C184 1.240 . S
O207 Mn181 2.117 . S
O207 C184 1.264 . S
C208 C201 1.403 . S
C208 C209 1.399 . S
C208 H214 0.929 . S
C209 C189 1.449 . S
C209 C208 1.399 . S
C209 H215 0.930 . S
H210 C190 0.931 . S
H211 C191 0.930 . S
H212 C199 0.931 . S
H213 C200 0.929 . S
H214 C208 0.929 . S
H215 C209 0.930 . S
Mn216 O221 2.095 . S
Mn216 O231 2.162 . S
Mn216 O232 2.297 . S
Mn216 O240 2.385 . S
Mn216 O241 2.209 . S
Mn216 O242 2.094 . S
Mn217 O222 2.121 . S
Mn217 N224 2.257 . S
Mn217 N233 2.282 . S
Mn217 O241 2.215 . S
Mn217 O243 2.117 . S
C218 O240 1.234 . S
C218 O241 1.283 . S
C219 O231 1.281 . S
C219 O232 1.236 . S
C220 O242 1.240 . S
C220 O243 1.264 . S
O221 Mn216 2.095 . S
O221 C230 1.250 . S
O222 Mn217 2.121 . S
O222 C230 1.258 . S
C223 N224 1.326 . S
C223 C227 1.460 . S
C223 H229 0.929 . S
N224 Mn217 2.257 . S
N224 C223 1.326 . S
N224 C228 1.362 . S
C225 C226 1.258 . S
C225 C228 1.431 . S
C225 C245 1.449 . S
C226 C225 1.258 . S
C226 C227 1.477 . S
C226 H246 0.931 . S
C227 C223 1.460 . S
C227 C226 1.477 . S
C227 H247 0.930 . S
C228 N224 1.362 . S
C228 C225 1.431 . S
C228 C238 1.476 . S
H229 C223 0.929 . S
C230 O221 1.250 . S
C230 O222 1.258 . S
O231 Mn216 2.162 . S
O231 C219 1.281 . S
O232 Mn216 2.297 . S
O232 C219 1.236 . S
N233 Mn217 2.282 . S
N233 C234 1.328 . S
N233 C238 1.318 . S
C234 N233 1.328 . S
C234 C235 1.457 . S
C234 H239 0.929 . S
C235 C234 1.457 . S
C235 C236 1.291 . S
C235 H248 0.931 . S
C236 C235 1.291 . S
C236 C237 1.373 . S
C236 H249 0.929 . S
C237 C236 1.373 . S
C237 C238 1.396 . S
C237 C244 1.403 . S
C238 C228 1.476 . S
C238 N233 1.318 . S
C238 C237 1.396 . S
H239 C234 0.929 . S
O240 Mn216 2.385 . S
O240 C218 1.234 . S
O241 Mn216 2.209 . S
O241 Mn217 2.215 . S
O241 C218 1.283 . S
O242 Mn216 2.094 . S
O242 C220 1.240 . S
O243 Mn217 2.117 . S
O243 C220 1.264 . S
C244 C237 1.403 . S
C244 C245 1.399 . S
C244 H250 0.929 . S
C245 C225 1.449 . S
C245 C244 1.399 . S
C245 H251 0.930 . S
H246 C226 0.931 . S
H247 C227 0.930 . S
H248 C235 0.931 . S
H249 C236 0.929 . S
H250 C244 0.929 . S
H251 C245 0.930 . S
Mn252 O257 2.095 . S
Mn252 O267 2.162 . S
Mn252 O268 2.297 . S
Mn252 O276 2.385 . S
Mn252 O277 2.209 . S
Mn252 O278 2.094 . S
Mn253 O258 2.121 . S
Mn253 N260 2.257 . S
Mn253 N269 2.282 . S
Mn253 O277 2.215 . S
Mn253 O279 2.117 . S
C254 O276 1.234 . S
C254 O277 1.283 . S
C255 O267 1.281 . S
C255 O268 1.236 . S
C256 O278 1.240 . S
C256 O279 1.264 . S
O257 Mn252 2.095 . S
O257 C266 1.250 . S
O258 Mn253 2.121 . S
O258 C266 1.258 . S
C259 N260 1.326 . S
C259 C263 1.460 . S
C259 H265 0.929 . S
N260 Mn253 2.257 . S
N260 C259 1.326 . S
N260 C264 1.362 . S
C261 C262 1.258 . S
C261 C264 1.431 . S
C261 C281 1.449 . S
C262 C261 1.258 . S
C262 C263 1.477 . S
C262 H282 0.931 . S
C263 C259 1.460 . S
C263 C262 1.477 . S
C263 H283 0.930 . S
C264 N260 1.362 . S
C264 C261 1.431 . S
C264 C274 1.476 . S
H265 C259 0.929 . S
C266 O257 1.250 . S
C266 O258 1.258 . S
O267 Mn252 2.162 . S
O267 C255 1.281 . S
O268 Mn252 2.297 . S
O268 C255 1.236 . S
N269 Mn253 2.282 . S
N269 C270 1.328 . S
N269 C274 1.318 . S
C270 N269 1.328 . S
C270 C271 1.457 . S
C270 H275 0.929 . S
C271 C270 1.457 . S
C271 C272 1.291 . S
C271 H284 0.931 . S
C272 C271 1.291 . S
C272 C273 1.373 . S
C272 H285 0.929 . S
C273 C272 1.373 . S
C273 C274 1.396 . S
C273 C280 1.403 . S
C274 C264 1.476 . S
C274 N269 1.318 . S
C274 C273 1.396 . S
H275 C270 0.929 . S
O276 Mn252 2.385 . S
O276 C254 1.234 . S
O277 Mn252 2.209 . S
O277 Mn253 2.215 . S
O277 C254 1.283 . S
O278 Mn252 2.094 . S
O278 C256 1.240 . S
O279 Mn253 2.117 . S
O279 C256 1.264 . S
C280 C273 1.403 . S
C280 C281 1.399 . S
C280 H286 0.929 . S
C281 C261 1.449 . S
C281 C280 1.399 . S
C281 H287 0.930 . S
H282 C262 0.931 . S
H283 C263 0.930 . S
H284 C271 0.931 . S
H285 C272 0.929 . S
H286 C280 0.929 . S
H287 C281 0.930 . S
Mn288 O293 2.095 . S
Mn288 O303 2.162 . S
Mn288 O304 2.297 . S
Mn288 O312 2.385 . S
Mn288 O313 2.209 . S
Mn288 O314 2.094 . S
Mn289 O294 2.121 . S
Mn289 N296 2.257 . S
Mn289 N305 2.282 . S
Mn289 O313 2.215 . S
Mn289 O315 2.117 . S
C290 O312 1.234 . S
C290 O313 1.283 . S
C291 O303 1.281 . S
C291 O304 1.236 . S
C292 O314 1.240 . S
C292 O315 1.264 . S
O293 Mn288 2.095 . S
O293 C302 1.250 . S
O294 Mn289 2.121 . S
O294 C302 1.258 . S
C295 N296 1.326 . S
C295 C299 1.460 . S
C295 H301 0.929 . S
N296 Mn289 2.257 . S
N296 C295 1.326 . S
N296 C300 1.362 . S
C297 C298 1.258 . S
C297 C300 1.431 . S
C297 C317 1.449 . S
C298 C297 1.258 . S
C298 C299 1.477 . S
C298 H318 0.931 . S
C299 C295 1.460 . S
C299 C298 1.477 . S
C299 H319 0.930 . S
C300 N296 1.362 . S
C300 C297 1.431 . S
C300 C310 1.476 . S
H301 C295 0.929 . S
C302 O293 1.250 . S
C302 O294 1.258 . S
O303 Mn288 2.162 . S
O303 C291 1.281 . S
O304 Mn288 2.297 . S
O304 C291 1.236 . S
N305 Mn289 2.282 . S
N305 C306 1.328 . S
N305 C310 1.318 . S
C306 N305 1.328 . S
C306 C307 1.457 . S
C306 H311 0.929 . S
C307 C306 1.457 . S
C307 C308 1.291 . S
C307 H320 0.931 . S
C308 C307 1.291 . S
C308 C309 1.373 . S
C308 H321 0.929 . S
C309 C308 1.373 . S
C309 C310 1.396 . S
C309 C316 1.403 . S
C310 C300 1.476 . S
C310 N305 1.318 . S
C310 C309 1.396 . S
H311 C306 0.929 . S
O312 Mn288 2.385 . S
O312 C290 1.234 . S
O313 Mn288 2.209 . S
O313 Mn289 2.215 . S
O313 C290 1.283 . S
O314 Mn288 2.094 . S
O314 C292 1.240 . S
O315 Mn289 2.117 . S
O315 C292 1.264 . S
C316 C309 1.403 . S
C316 C317 1.399 . S
C316 H322 0.929 . S
C317 C297 1.449 . S
C317 C316 1.399 . S
C317 H323 0.930 . S
H318 C298 0.931 . S
H319 C299 0.930 . S
H320 C307 0.931 . S
H321 C308 0.929 . S
H322 C316 0.929 . S
H323 C317 0.930 . S
Mn324 O329 2.095 . S
Mn324 O339 2.162 . S
Mn324 O340 2.297 . S
Mn324 O348 2.385 . S
Mn324 O349 2.209 . S
Mn324 O350 2.094 . S
Mn325 O330 2.121 . S
Mn325 N332 2.257 . S
Mn325 N341 2.282 . S
Mn325 O349 2.215 . S
Mn325 O351 2.117 . S
C326 O348 1.234 . S
C326 O349 1.283 . S
C327 O339 1.281 . S
C327 O340 1.236 . S
C328 O350 1.240 . S
C328 O351 1.264 . S
O329 Mn324 2.095 . S
O329 C338 1.250 . S
O330 Mn325 2.121 . S
O330 C338 1.258 . S
C331 N332 1.326 . S
C331 C335 1.460 . S
C331 H337 0.929 . S
N332 Mn325 2.257 . S
N332 C331 1.326 . S
N332 C336 1.362 . S
C333 C334 1.258 . S
C333 C336 1.431 . S
C333 C353 1.449 . S
C334 C333 1.258 . S
C334 C335 1.477 . S
C334 H354 0.931 . S
C335 C331 1.460 . S
C335 C334 1.477 . S
C335 H355 0.930 . S
C336 N332 1.362 . S
C336 C333 1.431 . S
C336 C346 1.476 . S
H337 C331 0.929 . S
C338 O329 1.250 . S
C338 O330 1.258 . S
O339 Mn324 2.162 . S
O339 C327 1.281 . S
O340 Mn324 2.297 . S
O340 C327 1.236 . S
N341 Mn325 2.282 . S
N341 C342 1.328 . S
N341 C346 1.318 . S
C342 N341 1.328 . S
C342 C343 1.457 . S
C342 H347 0.929 . S
C343 C342 1.457 . S
C343 C344 1.291 . S
C343 H356 0.931 . S
C344 C343 1.291 . S
C344 C345 1.373 . S
C344 H357 0.929 . S
C345 C344 1.373 . S
C345 C346 1.396 . S
C345 C352 1.403 . S
C346 C336 1.476 . S
C346 N341 1.318 . S
C346 C345 1.396 . S
H347 C342 0.929 . S
O348 Mn324 2.385 . S
O348 C326 1.234 . S
O349 Mn324 2.209 . S
O349 Mn325 2.215 . S
O349 C326 1.283 . S
O350 Mn324 2.094 . S
O350 C328 1.240 . S
O351 Mn325 2.117 . S
O351 C328 1.264 . S
C352 C345 1.403 . S
C352 C353 1.399 . S
C352 H358 0.929 . S
C353 C333 1.449 . S
C353 C352 1.399 . S
C353 H359 0.930 . S
H354 C334 0.931 . S
H355 C335 0.930 . S
H356 C343 0.931 . S
H357 C344 0.929 . S
H358 C352 0.929 . S
H359 C353 0.930 . S
Mn360 O365 2.095 . S
Mn360 O375 2.162 . S
Mn360 O376 2.297 . S
Mn360 O384 2.385 . S
Mn360 O385 2.209 . S
Mn360 O386 2.094 . S
Mn361 O366 2.121 . S
Mn361 N368 2.257 . S
Mn361 N377 2.282 . S
Mn361 O385 2.215 . S
Mn361 O387 2.117 . S
C362 O384 1.234 . S
C362 O385 1.283 . S
C363 O375 1.281 . S
C363 O376 1.236 . S
C364 O386 1.240 . S
C364 O387 1.264 . S
O365 Mn360 2.095 . S
O365 C374 1.250 . S
O366 Mn361 2.121 . S
O366 C374 1.258 . S
C367 N368 1.326 . S
C367 C371 1.460 . S
C367 H373 0.929 . S
N368 Mn361 2.257 . S
N368 C367 1.326 . S
N368 C372 1.362 . S
C369 C370 1.258 . S
C369 C372 1.431 . S
C369 C389 1.449 . S
C370 C369 1.258 . S
C370 C371 1.477 . S
C370 H390 0.931 . S
C371 C367 1.460 . S
C371 C370 1.477 . S
C371 H391 0.930 . S
C372 N368 1.362 . S
C372 C369 1.431 . S
C372 C382 1.476 . S
H373 C367 0.929 . S
C374 O365 1.250 . S
C374 O366 1.258 . S
O375 Mn360 2.162 . S
O375 C363 1.281 . S
O376 Mn360 2.297 . S
O376 C363 1.236 . S
N377 Mn361 2.282 . S
N377 C378 1.328 . S
N377 C382 1.318 . S
C378 N377 1.328 . S
C378 C379 1.457 . S
C378 H383 0.929 . S
C379 C378 1.457 . S
C379 C380 1.291 . S
C379 H392 0.931 . S
C380 C379 1.291 . S
C380 C381 1.373 . S
C380 H393 0.929 . S
C381 C380 1.373 . S
C381 C382 1.396 . S
C381 C388 1.403 . S
C382 C372 1.476 . S
C382 N377 1.318 . S
C382 C381 1.396 . S
H383 C378 0.929 . S
O384 Mn360 2.385 . S
O384 C362 1.234 . S
O385 Mn360 2.209 . S
O385 Mn361 2.215 . S
O385 C362 1.283 . S
O386 Mn360 2.094 . S
O386 C364 1.240 . S
O387 Mn361 2.117 . S
O387 C364 1.264 . S
C388 C381 1.403 . S
C388 C389 1.399 . S
C388 H394 0.929 . S
C389 C369 1.449 . S
C389 C388 1.399 . S
C389 H395 0.930 . S
H390 C370 0.931 . S
H391 C371 0.930 . S
H392 C379 0.931 . S
H393 C380 0.929 . S
H394 C388 0.929 . S
H395 C389 0.930 . S
Mn396 O401 2.095 . S
Mn396 O411 2.162 . S
Mn396 O412 2.297 . S
Mn396 O420 2.385 . S
Mn396 O421 2.209 . S
Mn396 O422 2.094 . S
Mn397 O402 2.121 . S
Mn397 N404 2.257 . S
Mn397 N413 2.282 . S
Mn397 O421 2.215 . S
Mn397 O423 2.117 . S
C398 O420 1.234 . S
C398 O421 1.283 . S
C399 O411 1.281 . S
C399 O412 1.236 . S
C400 O422 1.240 . S
C400 O423 1.264 . S
O401 Mn396 2.095 . S
O401 C410 1.250 . S
O402 Mn397 2.121 . S
O402 C410 1.258 . S
C403 N404 1.326 . S
C403 C407 1.460 . S
C403 H409 0.929 . S
N404 Mn397 2.257 . S
N404 C403 1.326 . S
N404 C408 1.362 . S
C405 C406 1.258 . S
C405 C408 1.431 . S
C405 C425 1.449 . S
C406 C405 1.258 . S
C406 C407 1.477 . S
C406 H426 0.931 . S
C407 C403 1.460 . S
C407 C406 1.477 . S
C407 H427 0.930 . S
C408 N404 1.362 . S
C408 C405 1.431 . S
C408 C418 1.476 . S
H409 C403 0.929 . S
C410 O401 1.250 . S
C410 O402 1.258 . S
O411 Mn396 2.162 . S
O411 C399 1.281 . S
O412 Mn396 2.297 . S
O412 C399 1.236 . S
N413 Mn397 2.282 . S
N413 C414 1.328 . S
N413 C418 1.318 . S
C414 N413 1.328 . S
C414 C415 1.457 . S
C414 H419 0.929 . S
C415 C414 1.457 . S
C415 C416 1.291 . S
C415 H428 0.931 . S
C416 C415 1.291 . S
C416 C417 1.373 . S
C416 H429 0.929 . S
C417 C416 1.373 . S
C417 C418 1.396 . S
C417 C424 1.403 . S
C418 C408 1.476 . S
C418 N413 1.318 . S
C418 C417 1.396 . S
H419 C414 0.929 . S
O420 Mn396 2.385 . S
O420 C398 1.234 . S
O421 Mn396 2.209 . S
O421 Mn397 2.215 . S
O421 C398 1.283 . S
O422 Mn396 2.094 . S
O422 C400 1.240 . S
O423 Mn397 2.117 . S
O423 C400 1.264 . S
C424 C417 1.403 . S
C424 C425 1.399 . S
C424 H430 0.929 . S
C425 C405 1.449 . S
C425 C424 1.399 . S
C425 H431 0.930 . S
H426 C406 0.931 . S
H427 C407 0.930 . S
H428 C415 0.931 . S
H429 C416 0.929 . S
H430 C424 0.929 . S
H431 C425 0.930 . S
Mn432 O437 2.095 . S
Mn432 O447 2.162 . S
Mn432 O448 2.297 . S
Mn432 O456 2.385 . S
Mn432 O457 2.209 . S
Mn432 O458 2.094 . S
Mn433 O438 2.121 . S
Mn433 N440 2.257 . S
Mn433 N449 2.282 . S
Mn433 O457 2.215 . S
Mn433 O459 2.117 . S
C434 O456 1.234 . S
C434 O457 1.283 . S
C435 O447 1.281 . S
C435 O448 1.236 . S
C436 O458 1.240 . S
C436 O459 1.264 . S
O437 Mn432 2.095 . S
O437 C446 1.250 . S
O438 Mn433 2.121 . S
O438 C446 1.258 . S
C439 N440 1.326 . S
C439 C443 1.460 . S
C439 H445 0.929 . S
N440 Mn433 2.257 . S
N440 C439 1.326 . S
N440 C444 1.362 . S
C441 C442 1.258 . S
C441 C444 1.431 . S
C441 C461 1.449 . S
C442 C441 1.258 . S
C442 C443 1.477 . S
C442 H462 0.931 . S
C443 C439 1.460 . S
C443 C442 1.477 . S
C443 H463 0.930 . S
C444 N440 1.362 . S
C444 C441 1.431 . S
C444 C454 1.476 . S
H445 C439 0.929 . S
C446 O437 1.250 . S
C446 O438 1.258 . S
O447 Mn432 2.162 . S
O447 C435 1.281 . S
O448 Mn432 2.297 . S
O448 C435 1.236 . S
N449 Mn433 2.282 . S
N449 C450 1.328 . S
N449 C454 1.318 . S
C450 N449 1.328 . S
C450 C451 1.457 . S
C450 H455 0.929 . S
C451 C450 1.457 . S
C451 C452 1.291 . S
C451 H464 0.931 . S
C452 C451 1.291 . S
C452 C453 1.373 . S
C452 H465 0.929 . S
C453 C452 1.373 . S
C453 C454 1.396 . S
C453 C460 1.403 . S
C454 C444 1.476 . S
C454 N449 1.318 . S
C454 C453 1.396 . S
H455 C450 0.929 . S
O456 Mn432 2.385 . S
O456 C434 1.234 . S
O457 Mn432 2.209 . S
O457 Mn433 2.215 . S
O457 C434 1.283 . S
O458 Mn432 2.094 . S
O458 C436 1.240 . S
O459 Mn433 2.117 . S
O459 C436 1.264 . S
C460 C453 1.403 . S
C460 C461 1.399 . S
C460 H466 0.929 . S
C461 C441 1.449 . S
C461 C460 1.399 . S
C461 H467 0.930 . S
H462 C442 0.931 . S
H463 C443 0.930 . S
H464 C451 0.931 . S
H465 C452 0.929 . S
H466 C460 0.929 . S
H467 C461 0.930 . S
Mn468 O473 2.095 . S
Mn468 O483 2.162 . S
Mn468 O484 2.297 . S
Mn468 O492 2.385 . S
Mn468 O493 2.209 . S
Mn468 O494 2.094 . S
Mn469 O474 2.121 . S
Mn469 N476 2.257 . S
Mn469 N485 2.282 . S
Mn469 O493 2.215 . S
Mn469 O495 2.117 . S
C470 O492 1.234 . S
C470 O493 1.283 . S
C471 O483 1.281 . S
C471 O484 1.236 . S
C472 O494 1.240 . S
C472 O495 1.264 . S
O473 Mn468 2.095 . S
O473 C482 1.250 . S
O474 Mn469 2.121 . S
O474 C482 1.258 . S
C475 N476 1.326 . S
C475 C479 1.460 . S
C475 H481 0.929 . S
N476 Mn469 2.257 . S
N476 C475 1.326 . S
N476 C480 1.362 . S
C477 C478 1.258 . S
C477 C480 1.431 . S
C477 C497 1.449 . S
C478 C477 1.258 . S
C478 C479 1.477 . S
C478 H498 0.931 . S
C479 C475 1.460 . S
C479 C478 1.477 . S
C479 H499 0.930 . S
C480 N476 1.362 . S
C480 C477 1.431 . S
C480 C490 1.476 . S
H481 C475 0.929 . S
C482 O473 1.250 . S
C482 O474 1.258 . S
O483 Mn468 2.162 . S
O483 C471 1.281 . S
O484 Mn468 2.297 . S
O484 C471 1.236 . S
N485 Mn469 2.282 . S
N485 C486 1.328 . S
N485 C490 1.318 . S
C486 N485 1.328 . S
C486 C487 1.457 . S
C486 H491 0.929 . S
C487 C486 1.457 . S
C487 C488 1.291 . S
C487 H500 0.931 . S
C488 C487 1.291 . S
C488 C489 1.373 . S
C488 H501 0.929 . S
C489 C488 1.373 . S
C489 C490 1.396 . S
C489 C496 1.403 . S
C490 C480 1.476 . S
C490 N485 1.318 . S
C490 C489 1.396 . S
H491 C486 0.929 . S
O492 Mn468 2.385 . S
O492 C470 1.234 . S
O493 Mn468 2.209 . S
O493 Mn469 2.215 . S
O493 C470 1.283 . S
O494 Mn468 2.094 . S
O494 C472 1.240 . S
O495 Mn469 2.117 . S
O495 C472 1.264 . S
C496 C489 1.403 . S
C496 C497 1.399 . S
C496 H502 0.929 . S
C497 C477 1.449 . S
C497 C496 1.399 . S
C497 H503 0.930 . S
H498 C478 0.931 . S
H499 C479 0.930 . S
H500 C487 0.931 . S
H501 C488 0.929 . S
H502 C496 0.929 . S
H503 C497 0.930 . S
Mn504 O509 2.095 . S
Mn504 O519 2.162 . S
Mn504 O520 2.297 . S
Mn504 O528 2.385 . S
Mn504 O529 2.209 . S
Mn504 O530 2.094 . S
Mn505 O510 2.121 . S
Mn505 N512 2.257 . S
Mn505 N521 2.282 . S
Mn505 O529 2.215 . S
Mn505 O531 2.117 . S
C506 O528 1.234 . S
C506 O529 1.283 . S
C507 O519 1.281 . S
C507 O520 1.236 . S
C508 O530 1.240 . S
C508 O531 1.264 . S
O509 Mn504 2.095 . S
O509 C518 1.250 . S
O510 Mn505 2.121 . S
O510 C518 1.258 . S
C511 N512 1.326 . S
C511 C515 1.460 . S
C511 H517 0.929 . S
N512 Mn505 2.257 . S
N512 C511 1.326 . S
N512 C516 1.362 . S
C513 C514 1.258 . S
C513 C516 1.431 . S
C513 C533 1.449 . S
C514 C513 1.258 . S
C514 C515 1.477 . S
C514 H534 0.931 . S
C515 C511 1.460 . S
C515 C514 1.477 . S
C515 H535 0.930 . S
C516 N512 1.362 . S
C516 C513 1.431 . S
C516 C526 1.476 . S
H517 C511 0.929 . S
C518 O509 1.250 . S
C518 O510 1.258 . S
O519 Mn504 2.162 . S
O519 C507 1.281 . S
O520 Mn504 2.297 . S
O520 C507 1.236 . S
N521 Mn505 2.282 . S
N521 C522 1.328 . S
N521 C526 1.318 . S
C522 N521 1.328 . S
C522 C523 1.457 . S
C522 H527 0.929 . S
C523 C522 1.457 . S
C523 C524 1.291 . S
C523 H536 0.931 . S
C524 C523 1.291 . S
C524 C525 1.373 . S
C524 H537 0.929 . S
C525 C524 1.373 . S
C525 C526 1.396 . S
C525 C532 1.403 . S
C526 C516 1.476 . S
C526 N521 1.318 . S
C526 C525 1.396 . S
H527 C522 0.929 . S
O528 Mn504 2.385 . S
O528 C506 1.234 . S
O529 Mn504 2.209 . S
O529 Mn505 2.215 . S
O529 C506 1.283 . S
O530 Mn504 2.094 . S
O530 C508 1.240 . S
O531 Mn505 2.117 . S
O531 C508 1.264 . S
C532 C525 1.403 . S
C532 C533 1.399 . S
C532 H538 0.929 . S
C533 C513 1.449 . S
C533 C532 1.399 . S
C533 H539 0.930 . S
H534 C514 0.931 . S
H535 C515 0.930 . S
H536 C523 0.931 . S
H537 C524 0.929 . S
H538 C532 0.929 . S
H539 C533 0.930 . S
Mn540 O545 2.095 . S
Mn540 O555 2.162 . S
Mn540 O556 2.297 . S
Mn540 O564 2.385 . S
Mn540 O565 2.209 . S
Mn540 O566 2.094 . S
Mn541 O546 2.121 . S
Mn541 N548 2.257 . S
Mn541 N557 2.282 . S
Mn541 O565 2.215 . S
Mn541 O567 2.117 . S
C542 O564 1.234 . S
C542 O565 1.283 . S
C543 O555 1.281 . S
C543 O556 1.236 . S
C544 O566 1.240 . S
C544 O567 1.264 . S
O545 Mn540 2.095 . S
O545 C554 1.250 . S
O546 Mn541 2.121 . S
O546 C554 1.258 . S
C547 N548 1.326 . S
C547 C551 1.460 . S
C547 H553 0.929 . S
N548 Mn541 2.257 . S
N548 C547 1.326 . S
N548 C552 1.362 . S
C549 C550 1.258 . S
C549 C552 1.431 . S
C549 C569 1.449 . S
C550 C549 1.258 . S
C550 C551 1.477 . S
C550 H570 0.931 . S
C551 C547 1.460 . S
C551 C550 1.477 . S
C551 H571 0.930 . S
C552 N548 1.362 . S
C552 C549 1.431 . S
C552 C562 1.476 . S
H553 C547 0.929 . S
C554 O545 1.250 . S
C554 O546 1.258 . S
O555 Mn540 2.162 . S
O555 C543 1.281 . S
O556 Mn540 2.297 . S
O556 C543 1.236 . S
N557 Mn541 2.282 . S
N557 C558 1.328 . S
N557 C562 1.318 . S
C558 N557 1.328 . S
C558 C559 1.457 . S
C558 H563 0.929 . S
C559 C558 1.457 . S
C559 C560 1.291 . S
C559 H572 0.931 . S
C560 C559 1.291 . S
C560 C561 1.373 . S
C560 H573 0.929 . S
C561 C560 1.373 . S
C561 C562 1.396 . S
C561 C568 1.403 . S
C562 C552 1.476 . S
C562 N557 1.318 . S
C562 C561 1.396 . S
H563 C558 0.929 . S
O564 Mn540 2.385 . S
O564 C542 1.234 . S
O565 Mn540 2.209 . S
O565 Mn541 2.215 . S
O565 C542 1.283 . S
O566 Mn540 2.094 . S
O566 C544 1.240 . S
O567 Mn541 2.117 . S
O567 C544 1.264 . S
C568 C561 1.403 . S
C568 C569 1.399 . S
C568 H574 0.929 . S
C569 C549 1.449 . S
C569 C568 1.399 . S
C569 H575 0.930 . S
H570 C550 0.931 . S
H571 C551 0.930 . S
H572 C559 0.931 . S
H573 C560 0.929 . S
H574 C568 0.929 . S
H575 C569 0.930 . S
Mn576 O581 2.095 . S
Mn576 O591 2.162 . S
Mn576 O592 2.297 . S
Mn576 O600 2.385 . S
Mn576 O601 2.209 . S
Mn576 O602 2.094 . S
Mn577 O582 2.121 . S
Mn577 N584 2.257 . S
Mn577 N593 2.282 . S
Mn577 O601 2.215 . S
Mn577 O603 2.117 . S
C578 O600 1.234 . S
C578 O601 1.283 . S
C579 O591 1.281 . S
C579 O592 1.236 . S
C580 O602 1.240 . S
C580 O603 1.264 . S
O581 Mn576 2.095 . S
O581 C590 1.250 . S
O582 Mn577 2.121 . S
O582 C590 1.258 . S
C583 N584 1.326 . S
C583 C587 1.460 . S
C583 H589 0.929 . S
N584 Mn577 2.257 . S
N584 C583 1.326 . S
N584 C588 1.362 . S
C585 C586 1.258 . S
C585 C588 1.431 . S
C585 C605 1.449 . S
C586 C585 1.258 . S
C586 C587 1.477 . S
C586 H606 0.931 . S
C587 C583 1.460 . S
C587 C586 1.477 . S
C587 H607 0.930 . S
C588 N584 1.362 . S
C588 C585 1.431 . S
C588 C598 1.476 . S
H589 C583 0.929 . S
C590 O581 1.250 . S
C590 O582 1.258 . S
O591 Mn576 2.162 . S
O591 C579 1.281 . S
O592 Mn576 2.297 . S
O592 C579 1.236 . S
N593 Mn577 2.282 . S
N593 C594 1.328 . S
N593 C598 1.318 . S
C594 N593 1.328 . S
C594 C595 1.457 . S
C594 H599 0.929 . S
C595 C594 1.457 . S
C595 C596 1.291 . S
C595 H608 0.931 . S
C596 C595 1.291 . S
C596 C597 1.373 . S
C596 H609 0.929 . S
C597 C596 1.373 . S
C597 C598 1.396 . S
C597 C604 1.403 . S
C598 C588 1.476 . S
C598 N593 1.318 . S
C598 C597 1.396 . S
H599 C594 0.929 . S
O600 Mn576 2.385 . S
O600 C578 1.234 . S
O601 Mn576 2.209 . S
O601 Mn577 2.215 . S
O601 C578 1.283 . S
O602 Mn576 2.094 . S
O602 C580 1.240 . S
O603 Mn577 2.117 . S
O603 C580 1.264 . S
C604 C597 1.403 . S
C604 C605 1.399 . S
C604 H610 0.929 . S
C605 C585 1.449 . S
C605 C604 1.399 . S
C605 H611 0.930 . S
H606 C586 0.931 . S
H607 C587 0.930 . S
H608 C595 0.931 . S
H609 C596 0.929 . S
H610 C604 0.929 . S
H611 C605 0.930 . S
Mn612 O617 2.095 . S
Mn612 O627 2.162 . S
Mn612 O628 2.297 . S
Mn612 O636 2.385 . S
Mn612 O637 2.209 . S
Mn612 O638 2.094 . S
Mn613 O618 2.121 . S
Mn613 N620 2.257 . S
Mn613 N629 2.282 . S
Mn613 O637 2.215 . S
Mn613 O639 2.117 . S
C614 O636 1.234 . S
C614 O637 1.283 . S
C615 O627 1.281 . S
C615 O628 1.236 . S
C616 O638 1.240 . S
C616 O639 1.264 . S
O617 Mn612 2.095 . S
O617 C626 1.250 . S
O618 Mn613 2.121 . S
O618 C626 1.258 . S
C619 N620 1.326 . S
C619 C623 1.460 . S
C619 H625 0.929 . S
N620 Mn613 2.257 . S
N620 C619 1.326 . S
N620 C624 1.362 . S
C621 C622 1.258 . S
C621 C624 1.431 . S
C621 C641 1.449 . S
C622 C621 1.258 . S
C622 C623 1.477 . S
C622 H642 0.931 . S
C623 C619 1.460 . S
C623 C622 1.477 . S
C623 H643 0.930 . S
C624 N620 1.362 . S
C624 C621 1.431 . S
C624 C634 1.476 . S
H625 C619 0.929 . S
C626 O617 1.250 . S
C626 O618 1.258 . S
O627 Mn612 2.162 . S
O627 C615 1.281 . S
O628 Mn612 2.297 . S
O628 C615 1.236 . S
N629 Mn613 2.282 . S
N629 C630 1.328 . S
N629 C634 1.318 . S
C630 N629 1.328 . S
C630 C631 1.457 . S
C630 H635 0.929 . S
C631 C630 1.457 . S
C631 C632 1.291 . S
C631 H644 0.931 . S
C632 C631 1.291 . S
C632 C633 1.373 . S
C632 H645 0.929 . S
C633 C632 1.373 . S
C633 C634 1.396 . S
C633 C640 1.403 . S
C634 C624 1.476 . S
C634 N629 1.318 . S
C634 C633 1.396 . S
H635 C630 0.929 . S
O636 Mn612 2.385 . S
O636 C614 1.234 . S
O637 Mn612 2.209 . S
O637 Mn613 2.215 . S
O637 C614 1.283 . S
O638 Mn612 2.094 . S
O638 C616 1.240 . S
O639 Mn613 2.117 . S
O639 C616 1.264 . S
C640 C633 1.403 . S
C640 C641 1.399 . S
C640 H646 0.929 . S
C641 C621 1.449 . S
C641 C640 1.399 . S
C641 H647 0.930 . S
H642 C622 0.931 . S
H643 C623 0.930 . S
H644 C631 0.931 . S
H645 C632 0.929 . S
H646 C640 0.929 . S
H647 C641 0.930 . S
Mn648 O653 2.095 . S
Mn648 O663 2.162 . S
Mn648 O664 2.297 . S
Mn648 O672 2.385 . S
Mn648 O673 2.209 . S
Mn648 O674 2.094 . S
Mn649 O654 2.121 . S
Mn649 N656 2.257 . S
Mn649 N665 2.282 . S
Mn649 O673 2.215 . S
Mn649 O675 2.117 . S
C650 O672 1.234 . S
C650 O673 1.283 . S
C651 O663 1.281 . S
C651 O664 1.236 . S
C652 O674 1.240 . S
C652 O675 1.264 . S
O653 Mn648 2.095 . S
O653 C662 1.250 . S
O654 Mn649 2.121 . S
O654 C662 1.258 . S
C655 N656 1.326 . S
C655 C659 1.460 . S
C655 H661 0.929 . S
N656 Mn649 2.257 . S
N656 C655 1.326 . S
N656 C660 1.362 . S
C657 C658 1.258 . S
C657 C660 1.431 . S
C657 C677 1.449 . S
C658 C657 1.258 . S
C658 C659 1.477 . S
C658 H678 0.931 . S
C659 C655 1.460 . S
C659 C658 1.477 . S
C659 H679 0.930 . S
C660 N656 1.362 . S
C660 C657 1.431 . S
C660 C670 1.476 . S
H661 C655 0.929 . S
C662 O653 1.250 . S
C662 O654 1.258 . S
O663 Mn648 2.162 . S
O663 C651 1.281 . S
O664 Mn648 2.297 . S
O664 C651 1.236 . S
N665 Mn649 2.282 . S
N665 C666 1.328 . S
N665 C670 1.318 . S
C666 N665 1.328 . S
C666 C667 1.457 . S
C666 H671 0.929 . S
C667 C666 1.457 . S
C667 C668 1.291 . S
C667 H680 0.931 . S
C668 C667 1.291 . S
C668 C669 1.373 . S
C668 H681 0.929 . S
C669 C668 1.373 . S
C669 C670 1.396 . S
C669 C676 1.403 . S
C670 C660 1.476 . S
C670 N665 1.318 . S
C670 C669 1.396 . S
H671 C666 0.929 . S
O672 Mn648 2.385 . S
O672 C650 1.234 . S
O673 Mn648 2.209 . S
O673 Mn649 2.215 . S
O673 C650 1.283 . S
O674 Mn648 2.094 . S
O674 C652 1.240 . S
O675 Mn649 2.117 . S
O675 C652 1.264 . S
C676 C669 1.403 . S
C676 C677 1.399 . S
C676 H682 0.929 . S
C677 C657 1.449 . S
C677 C676 1.399 . S
C677 H683 0.930 . S
H678 C658 0.931 . S
H679 C659 0.930 . S
H680 C667 0.931 . S
H681 C668 0.929 . S
H682 C676 0.929 . S
H683 C677 0.930 . S
Mn684 O689 2.095 . S
Mn684 O699 2.162 . S
Mn684 O700 2.297 . S
Mn684 O708 2.385 . S
Mn684 O709 2.209 . S
Mn684 O710 2.094 . S
Mn685 O690 2.121 . S
Mn685 N692 2.257 . S
Mn685 N701 2.282 . S
Mn685 O709 2.215 . S
Mn685 O711 2.117 . S
C686 O708 1.234 . S
C686 O709 1.283 . S
C687 O699 1.281 . S
C687 O700 1.236 . S
C688 O710 1.240 . S
C688 O711 1.264 . S
O689 Mn684 2.095 . S
O689 C698 1.250 . S
O690 Mn685 2.121 . S
O690 C698 1.258 . S
C691 N692 1.326 . S
C691 C695 1.460 . S
C691 H697 0.929 . S
N692 Mn685 2.257 . S
N692 C691 1.326 . S
N692 C696 1.362 . S
C693 C694 1.258 . S
C693 C696 1.431 . S
C693 C713 1.449 . S
C694 C693 1.258 . S
C694 C695 1.477 . S
C694 H714 0.931 . S
C695 C691 1.460 . S
C695 C694 1.477 . S
C695 H715 0.930 . S
C696 N692 1.362 . S
C696 C693 1.431 . S
C696 C706 1.476 . S
H697 C691 0.929 . S
C698 O689 1.250 . S
C698 O690 1.258 . S
O699 Mn684 2.162 . S
O699 C687 1.281 . S
O700 Mn684 2.297 . S
O700 C687 1.236 . S
N701 Mn685 2.282 . S
N701 C702 1.328 . S
N701 C706 1.318 . S
C702 N701 1.328 . S
C702 C703 1.457 . S
C702 H707 0.929 . S
C703 C702 1.457 . S
C703 C704 1.291 . S
C703 H716 0.931 . S
C704 C703 1.291 . S
C704 C705 1.373 . S
C704 H717 0.929 . S
C705 C704 1.373 . S
C705 C706 1.396 . S
C705 C712 1.403 . S
C706 C696 1.476 . S
C706 N701 1.318 . S
C706 C705 1.396 . S
H707 C702 0.929 . S
O708 Mn684 2.385 . S
O708 C686 1.234 . S
O709 Mn684 2.209 . S
O709 Mn685 2.215 . S
O709 C686 1.283 . S
O710 Mn684 2.094 . S
O710 C688 1.240 . S
O711 Mn685 2.117 . S
O711 C688 1.264 . S
C712 C705 1.403 . S
C712 C713 1.399 . S
C712 H718 0.929 . S
C713 C693 1.449 . S
C713 C712 1.399 . S
C713 H719 0.930 . S
H714 C694 0.931 . S
H715 C695 0.930 . S
H716 C703 0.931 . S
H717 C704 0.929 . S
H718 C712 0.929 . S
H719 C713 0.930 . S
Mn720 O725 2.095 . S
Mn720 O735 2.162 . S
Mn720 O736 2.297 . S
Mn720 O744 2.385 . S
Mn720 O745 2.209 . S
Mn720 O746 2.094 . S
Mn721 O726 2.121 . S
Mn721 N728 2.257 . S
Mn721 N737 2.282 . S
Mn721 O745 2.215 . S
Mn721 O747 2.117 . S
C722 O744 1.234 . S
C722 O745 1.283 . S
C723 O735 1.281 . S
C723 O736 1.236 . S
C724 O746 1.240 . S
C724 O747 1.264 . S
O725 Mn720 2.095 . S
O725 C734 1.250 . S
O726 Mn721 2.121 . S
O726 C734 1.258 . S
C727 N728 1.326 . S
C727 C731 1.460 . S
C727 H733 0.929 . S
N728 Mn721 2.257 . S
N728 C727 1.326 . S
N728 C732 1.362 . S
C729 C730 1.258 . S
C729 C732 1.431 . S
C729 C749 1.449 . S
C730 C729 1.258 . S
C730 C731 1.477 . S
C730 H750 0.931 . S
C731 C727 1.460 . S
C731 C730 1.477 . S
C731 H751 0.930 . S
C732 N728 1.362 . S
C732 C729 1.431 . S
C732 C742 1.476 . S
H733 C727 0.929 . S
C734 O725 1.250 . S
C734 O726 1.258 . S
O735 Mn720 2.162 . S
O735 C723 1.281 . S
O736 Mn720 2.297 . S
O736 C723 1.236 . S
N737 Mn721 2.282 . S
N737 C738 1.328 . S
N737 C742 1.318 . S
C738 N737 1.328 . S
C738 C739 1.457 . S
C738 H743 0.929 . S
C739 C738 1.457 . S
C739 C740 1.291 . S
C739 H752 0.931 . S
C740 C739 1.291 . S
C740 C741 1.373 . S
C740 H753 0.929 . S
C741 C740 1.373 . S
C741 C742 1.396 . S
C741 C748 1.403 . S
C742 C732 1.476 . S
C742 N737 1.318 . S
C742 C741 1.396 . S
H743 C738 0.929 . S
O744 Mn720 2.385 . S
O744 C722 1.234 . S
O745 Mn720 2.209 . S
O745 Mn721 2.215 . S
O745 C722 1.283 . S
O746 Mn720 2.094 . S
O746 C724 1.240 . S
O747 Mn721 2.117 . S
O747 C724 1.264 . S
C748 C741 1.403 . S
C748 C749 1.399 . S
C748 H754 0.929 . S
C749 C729 1.449 . S
C749 C748 1.399 . S
C749 H755 0.930 . S
H750 C730 0.931 . S
H751 C731 0.930 . S
H752 C739 0.931 . S
H753 C740 0.929 . S
H754 C748 0.929 . S
H755 C749 0.930 . S
Mn756 O761 2.095 . S
Mn756 O771 2.162 . S
Mn756 O772 2.297 . S
Mn756 O780 2.385 . S
Mn756 O781 2.209 . S
Mn756 O782 2.094 . S
Mn757 O762 2.121 . S
Mn757 N764 2.257 . S
Mn757 N773 2.282 . S
Mn757 O781 2.215 . S
Mn757 O783 2.117 . S
C758 O780 1.234 . S
C758 O781 1.283 . S
C759 O771 1.281 . S
C759 O772 1.236 . S
C760 O782 1.240 . S
C760 O783 1.264 . S
O761 Mn756 2.095 . S
O761 C770 1.250 . S
O762 Mn757 2.121 . S
O762 C770 1.258 . S
C763 N764 1.326 . S
C763 C767 1.460 . S
C763 H769 0.929 . S
N764 Mn757 2.257 . S
N764 C763 1.326 . S
N764 C768 1.362 . S
C765 C766 1.258 . S
C765 C768 1.431 . S
C765 C785 1.449 . S
C766 C765 1.258 . S
C766 C767 1.477 . S
C766 H786 0.931 . S
C767 C763 1.460 . S
C767 C766 1.477 . S
C767 H787 0.930 . S
C768 N764 1.362 . S
C768 C765 1.431 . S
C768 C778 1.476 . S
H769 C763 0.929 . S
C770 O761 1.250 . S
C770 O762 1.258 . S
O771 Mn756 2.162 . S
O771 C759 1.281 . S
O772 Mn756 2.297 . S
O772 C759 1.236 . S
N773 Mn757 2.282 . S
N773 C774 1.328 . S
N773 C778 1.318 . S
C774 N773 1.328 . S
C774 C775 1.457 . S
C774 H779 0.929 . S
C775 C774 1.457 . S
C775 C776 1.291 . S
C775 H788 0.931 . S
C776 C775 1.291 . S
C776 C777 1.373 . S
C776 H789 0.929 . S
C777 C776 1.373 . S
C777 C778 1.396 . S
C777 C784 1.403 . S
C778 C768 1.476 . S
C778 N773 1.318 . S
C778 C777 1.396 . S
H779 C774 0.929 . S
O780 Mn756 2.385 . S
O780 C758 1.234 . S
O781 Mn756 2.209 . S
O781 Mn757 2.215 . S
O781 C758 1.283 . S
O782 Mn756 2.094 . S
O782 C760 1.240 . S
O783 Mn757 2.117 . S
O783 C760 1.264 . S
C784 C777 1.403 . S
C784 C785 1.399 . S
C784 H790 0.929 . S
C785 C765 1.449 . S
C785 C784 1.399 . S
C785 H791 0.930 . S
H786 C766 0.931 . S
H787 C767 0.930 . S
H788 C775 0.931 . S
H789 C776 0.929 . S
H790 C784 0.929 . S
H791 C785 0.930 . S
Mn792 O797 2.095 . S
Mn792 O807 2.162 . S
Mn792 O808 2.297 . S
Mn792 O816 2.385 . S
Mn792 O817 2.209 . S
Mn792 O818 2.094 . S
Mn793 O798 2.121 . S
Mn793 N800 2.257 . S
Mn793 N809 2.282 . S
Mn793 O817 2.215 . S
Mn793 O819 2.117 . S
C794 O816 1.234 . S
C794 O817 1.283 . S
C795 O807 1.281 . S
C795 O808 1.236 . S
C796 O818 1.240 . S
C796 O819 1.264 . S
O797 Mn792 2.095 . S
O797 C806 1.250 . S
O798 Mn793 2.121 . S
O798 C806 1.258 . S
C799 N800 1.326 . S
C799 C803 1.460 . S
C799 H805 0.929 . S
N800 Mn793 2.257 . S
N800 C799 1.326 . S
N800 C804 1.362 . S
C801 C802 1.258 . S
C801 C804 1.431 . S
C801 C821 1.449 . S
C802 C801 1.258 . S
C802 C803 1.477 . S
C802 H822 0.931 . S
C803 C799 1.460 . S
C803 C802 1.477 . S
C803 H823 0.930 . S
C804 N800 1.362 . S
C804 C801 1.431 . S
C804 C814 1.476 . S
H805 C799 0.929 . S
C806 O797 1.250 . S
C806 O798 1.258 . S
O807 Mn792 2.162 . S
O807 C795 1.281 . S
O808 Mn792 2.297 . S
O808 C795 1.236 . S
N809 Mn793 2.282 . S
N809 C810 1.328 . S
N809 C814 1.318 . S
C810 N809 1.328 . S
C810 C811 1.457 . S
C810 H815 0.929 . S
C811 C810 1.457 . S
C811 C812 1.291 . S
C811 H824 0.931 . S
C812 C811 1.291 . S
C812 C813 1.373 . S
C812 H825 0.929 . S
C813 C812 1.373 . S
C813 C814 1.396 . S
C813 C820 1.403 . S
C814 C804 1.476 . S
C814 N809 1.318 . S
C814 C813 1.396 . S
H815 C810 0.929 . S
O816 Mn792 2.385 . S
O816 C794 1.234 . S
O817 Mn792 2.209 . S
O817 Mn793 2.215 . S
O817 C794 1.283 . S
O818 Mn792 2.094 . S
O818 C796 1.240 . S
O819 Mn793 2.117 . S
O819 C796 1.264 . S
C820 C813 1.403 . S
C820 C821 1.399 . S
C820 H826 0.929 . S
C821 C801 1.449 . S
C821 C820 1.399 . S
C821 H827 0.930 . S
H822 C802 0.931 . S
H823 C803 0.930 . S
H824 C811 0.931 . S
H825 C812 0.929 . S
H826 C820 0.929 . S
H827 C821 0.930 . S
Mn828 O833 2.095 . S
Mn828 O843 2.162 . S
Mn828 O844 2.297 . S
Mn828 O852 2.385 . S
Mn828 O853 2.209 . S
Mn828 O854 2.094 . S
Mn829 O834 2.121 . S
Mn829 N836 2.257 . S
Mn829 N845 2.282 . S
Mn829 O853 2.215 . S
Mn829 O855 2.117 . S
C830 O852 1.234 . S
C830 O853 1.283 . S
C831 O843 1.281 . S
C831 O844 1.236 . S
C832 O854 1.240 . S
C832 O855 1.264 . S
O833 Mn828 2.095 . S
O833 C842 1.250 . S
O834 Mn829 2.121 . S
O834 C842 1.258 . S
C835 N836 1.326 . S
C835 C839 1.460 . S
C835 H841 0.929 . S
N836 Mn829 2.257 . S
N836 C835 1.326 . S
N836 C840 1.362 . S
C837 C838 1.258 . S
C837 C840 1.431 . S
C837 C857 1.449 . S
C838 C837 1.258 . S
C838 C839 1.477 . S
C838 H858 0.931 . S
C839 C835 1.460 . S
C839 C838 1.477 . S
C839 H859 0.930 . S
C840 N836 1.362 . S
C840 C837 1.431 . S
C840 C850 1.476 . S
H841 C835 0.929 . S
C842 O833 1.250 . S
C842 O834 1.258 . S
O843 Mn828 2.162 . S
O843 C831 1.281 . S
O844 Mn828 2.297 . S
O844 C831 1.236 . S
N845 Mn829 2.282 . S
N845 C846 1.328 . S
N845 C850 1.318 . S
C846 N845 1.328 . S
C846 C847 1.457 . S
C846 H851 0.929 . S
C847 C846 1.457 . S
C847 C848 1.291 . S
C847 H860 0.931 . S
C848 C847 1.291 . S
C848 C849 1.373 . S
C848 H861 0.929 . S
C849 C848 1.373 . S
C849 C850 1.396 . S
C849 C856 1.403 . S
C850 C840 1.476 . S
C850 N845 1.318 . S
C850 C849 1.396 . S
H851 C846 0.929 . S
O852 Mn828 2.385 . S
O852 C830 1.234 . S
O853 Mn828 2.209 . S
O853 Mn829 2.215 . S
O853 C830 1.283 . S
O854 Mn828 2.094 . S
O854 C832 1.240 . S
O855 Mn829 2.117 . S
O855 C832 1.264 . S
C856 C849 1.403 . S
C856 C857 1.399 . S
C856 H862 0.929 . S
C857 C837 1.449 . S
C857 C856 1.399 . S
C857 H863 0.930 . S
H858 C838 0.931 . S
H859 C839 0.930 . S
H860 C847 0.931 . S
H861 C848 0.929 . S
H862 C856 0.929 . S
H863 C857 0.930 . S
H864 C872 0.929 . S
H865 C874 0.930 . S
H866 C876 0.930 . S
H867 C879 0.929 . S
H868 C882 0.930 . S
H869 C884 0.960 . S
H870 C884 0.960 . S
H871 C884 0.960 . S
C872 H864 0.929 . S
C872 C873 1.377 . S
C872 C874 1.384 . S
C873 C872 1.377 . S
C873 C879 1.390 . S
C874 H865 0.930 . S
C874 C872 1.384 . S
C874 C875 1.372 . S
C875 C874 1.372 . S
C875 C876 1.400 . S
C875 C880 1.490 . S
C876 H866 0.930 . S
C876 C875 1.400 . S
C876 C879 1.386 . S
H877 C893 0.930 . S
H878 C894 0.931 . S
C879 H867 0.929 . S
C879 C873 1.390 . S
C879 C876 1.386 . S
C880 C875 1.490 . S
C880 C882 1.395 . S
C880 C883 1.403 . S
H881 C887 0.930 . S
C882 H868 0.930 . S
C882 C880 1.395 . S
C882 C885 1.403 . S
C883 C880 1.403 . S
C883 C884 1.524 . S
C883 C887 1.400 . S
C884 H869 0.960 . S
C884 H870 0.960 . S
C884 H871 0.960 . S
C884 C883 1.524 . S
C885 C882 1.403 . S
C885 C886 1.392 . S
C885 C889 1.495 . S
C886 C885 1.392 . S
C886 C887 1.385 . S
C886 C888 1.478 . S
C887 H881 0.930 . S
C887 C883 1.400 . S
C887 C886 1.385 . S
C888 C886 1.478 . S
C888 C890 1.381 . S
C888 C894 1.383 . S
C889 C885 1.495 . S
C889 H895 0.959 . S
C889 H896 0.961 . S
C889 H897 0.960 . S
C890 C888 1.381 . S
C890 C891 1.394 . S
C890 H898 0.930 . S
C891 C890 1.394 . S
C891 C892 1.383 . S
C891 H899 0.929 . S
C892 C891 1.383 . S
C892 C893 1.377 . S
C893 H877 0.930 . S
C893 C892 1.377 . S
C893 C894 1.379 . S
C894 H878 0.931 . S
C894 C888 1.383 . S
C894 C893 1.379 . S
H895 C889 0.959 . S
H896 C889 0.961 . S
H897 C889 0.960 . S
H898 C890 0.930 . S
H899 C891 0.929 . S
H900 C908 0.929 . S
H901 C910 0.930 . S
H902 C912 0.930 . S
H903 C915 0.929 . S
H904 C918 0.930 . S
H905 C920 0.960 . S
H906 C920 0.960 . S
H907 C920 0.960 . S
C908 H900 0.929 . S
C908 C909 1.377 . S
C908 C910 1.384 . S
C909 C908 1.377 . S
C909 C915 1.390 . S
C910 H901 0.930 . S
C910 C908 1.384 . S
C910 C911 1.372 . S
C911 C910 1.372 . S
C911 C912 1.400 . S
C911 C916 1.490 . S
C912 H902 0.930 . S
C912 C911 1.400 . S
C912 C915 1.386 . S
H913 C929 0.930 . S
H914 C930 0.931 . S
C915 H903 0.929 . S
C915 C909 1.390 . S
C915 C912 1.386 . S
C916 C911 1.490 . S
C916 C918 1.395 . S
C916 C919 1.403 . S
H917 C923 0.930 . S
C918 H904 0.930 . S
C918 C916 1.395 . S
C918 C921 1.403 . S
C919 C916 1.403 . S
C919 C920 1.524 . S
C919 C923 1.400 . S
C920 H905 0.960 . S
C920 H906 0.960 . S
C920 H907 0.960 . S
C920 C919 1.524 . S
C921 C918 1.403 . S
C921 C922 1.392 . S
C921 C925 1.495 . S
C922 C921 1.392 . S
C922 C923 1.385 . S
C922 C924 1.478 . S
C923 H917 0.930 . S
C923 C919 1.400 . S
C923 C922 1.385 . S
C924 C922 1.478 . S
C924 C926 1.381 . S
C924 C930 1.383 . S
C925 C921 1.495 . S
C925 H931 0.959 . S
C925 H932 0.961 . S
C925 H933 0.960 . S
C926 C924 1.381 . S
C926 C927 1.394 . S
C926 H934 0.930 . S
C927 C926 1.394 . S
C927 C928 1.383 . S
C927 H935 0.929 . S
C928 C927 1.383 . S
C928 C929 1.377 . S
C929 H913 0.930 . S
C929 C928 1.377 . S
C929 C930 1.379 . S
C930 H914 0.931 . S
C930 C924 1.383 . S
C930 C929 1.379 . S
H931 C925 0.959 . S
H932 C925 0.961 . S
H933 C925 0.960 . S
H934 C926 0.930 . S
H935 C927 0.929 . S
H936 C944 0.929 . S
H937 C946 0.930 . S
H938 C948 0.930 . S
H939 C951 0.929 . S
H940 C954 0.930 . S
H941 C956 0.960 . S
H942 C956 0.960 . S
H943 C956 0.960 . S
C944 H936 0.929 . S
C944 C945 1.377 . S
C944 C946 1.384 . S
C945 C944 1.377 . S
C945 C951 1.390 . S
C946 H937 0.930 . S
C946 C944 1.384 . S
C946 C947 1.372 . S
C947 C946 1.372 . S
C947 C948 1.400 . S
C947 C952 1.490 . S
C948 H938 0.930 . S
C948 C947 1.400 . S
C948 C951 1.386 . S
H949 C965 0.930 . S
H950 C966 0.931 . S
C951 H939 0.929 . S
C951 C945 1.390 . S
C951 C948 1.386 . S
C952 C947 1.490 . S
C952 C954 1.395 . S
C952 C955 1.403 . S
H953 C959 0.930 . S
C954 H940 0.930 . S
C954 C952 1.395 . S
C954 C957 1.403 . S
C955 C952 1.403 . S
C955 C956 1.524 . S
C955 C959 1.400 . S
C956 H941 0.960 . S
C956 H942 0.960 . S
C956 H943 0.960 . S
C956 C955 1.524 . S
C957 C954 1.403 . S
C957 C958 1.392 . S
C957 C961 1.495 . S
C958 C957 1.392 . S
C958 C959 1.385 . S
C958 C960 1.478 . S
C959 H953 0.930 . S
C959 C955 1.400 . S
C959 C958 1.385 . S
C960 C958 1.478 . S
C960 C962 1.381 . S
C960 C966 1.383 . S
C961 C957 1.495 . S
C961 H967 0.959 . S
C961 H968 0.961 . S
C961 H969 0.960 . S
C962 C960 1.381 . S
C962 C963 1.394 . S
C962 H970 0.930 . S
C963 C962 1.394 . S
C963 C964 1.383 . S
C963 H971 0.929 . S
C964 C963 1.383 . S
C964 C965 1.377 . S
C965 H949 0.930 . S
C965 C964 1.377 . S
C965 C966 1.379 . S
C966 H950 0.931 . S
C966 C960 1.383 . S
C966 C965 1.379 . S
H967 C961 0.959 . S
H968 C961 0.961 . S
H969 C961 0.960 . S
H970 C962 0.930 . S
H971 C963 0.929 . S
H972 C980 0.929 . S
H973 C982 0.930 . S
H974 C984 0.930 . S
H975 C987 0.929 . S
H976 C990 0.930 . S
H977 C992 0.960 . S
H978 C992 0.960 . S
H979 C992 0.960 . S
C980 H972 0.929 . S
C980 C981 1.377 . S
C980 C982 1.384 . S
C981 C980 1.377 . S
C981 C987 1.390 . S
C982 H973 0.930 . S
C982 C980 1.384 . S
C982 C983 1.372 . S
C983 C982 1.372 . S
C983 C984 1.400 . S
C983 C988 1.490 . S
C984 H974 0.930 . S
C984 C983 1.400 . S
C984 C987 1.386 . S
H985 C1001 0.930 . S
H986 C1002 0.931 . S
C987 H975 0.929 . S
C987 C981 1.390 . S
C987 C984 1.386 . S
C988 C983 1.490 . S
C988 C990 1.395 . S
C988 C991 1.403 . S
H989 C995 0.930 . S
C990 H976 0.930 . S
C990 C988 1.395 . S
C990 C993 1.403 . S
C991 C988 1.403 . S
C991 C992 1.524 . S
C991 C995 1.400 . S
C992 H977 0.960 . S
C992 H978 0.960 . S
C992 H979 0.960 . S
C992 C991 1.524 . S
C993 C990 1.403 . S
C993 C994 1.392 . S
C993 C997 1.495 . S
C994 C993 1.392 . S
C994 C995 1.385 . S
C994 C996 1.478 . S
C995 H989 0.930 . S
C995 C991 1.400 . S
C995 C994 1.385 . S
C996 C994 1.478 . S
C996 C998 1.381 . S
C996 C1002 1.383 . S
C997 C993 1.495 . S
C997 H1003 0.959 . S
C997 H1004 0.961 . S
C997 H1005 0.960 . S
C998 C996 1.381 . S
C998 C999 1.394 . S
C998 H1006 0.930 . S
C999 C998 1.394 . S
C999 C1000 1.383 . S
C999 H1007 0.929 . S
C1000 C999 1.383 . S
C1000 C1001 1.377 . S
C1001 H985 0.930 . S
C1001 C1000 1.377 . S
C1001 C1002 1.379 . S
C1002 H986 0.931 . S
C1002 C996 1.383 . S
C1002 C1001 1.379 . S
H1003 C997 0.959 . S
H1004 C997 0.961 . S
H1005 C997 0.960 . S
H1006 C998 0.930 . S
H1007 C999 0.929 . S
H1008 C1016 0.929 . S
H1009 C1018 0.930 . S
H1010 C1020 0.930 . S
H1011 C1023 0.929 . S
H1012 C1026 0.930 . S
H1013 C1028 0.960 . S
H1014 C1028 0.960 . S
H1015 C1028 0.960 . S
C1016 H1008 0.929 . S
C1016 C1017 1.377 . S
C1016 C1018 1.384 . S
C1017 C1016 1.377 . S
C1017 C1023 1.390 . S
C1018 H1009 0.930 . S
C1018 C1016 1.384 . S
C1018 C1019 1.372 . S
C1019 C1018 1.372 . S
C1019 C1020 1.400 . S
C1019 C1024 1.490 . S
C1020 H1010 0.930 . S
C1020 C1019 1.400 . S
C1020 C1023 1.386 . S
H1021 C1037 0.930 . S
H1022 C1038 0.931 . S
C1023 H1011 0.929 . S
C1023 C1017 1.390 . S
C1023 C1020 1.386 . S
C1024 C1019 1.490 . S
C1024 C1026 1.395 . S
C1024 C1027 1.403 . S
H1025 C1031 0.930 . S
C1026 H1012 0.930 . S
C1026 C1024 1.395 . S
C1026 C1029 1.403 . S
C1027 C1024 1.403 . S
C1027 C1028 1.524 . S
C1027 C1031 1.400 . S
C1028 H1013 0.960 . S
C1028 H1014 0.960 . S
C1028 H1015 0.960 . S
C1028 C1027 1.524 . S
C1029 C1026 1.403 . S
C1029 C1030 1.392 . S
C1029 C1033 1.495 . S
C1030 C1029 1.392 . S
C1030 C1031 1.385 . S
C1030 C1032 1.478 . S
C1031 H1025 0.930 . S
C1031 C1027 1.400 . S
C1031 C1030 1.385 . S
C1032 C1030 1.478 . S
C1032 C1034 1.381 . S
C1032 C1038 1.383 . S
C1033 C1029 1.495 . S
C1033 H1039 0.959 . S
C1033 H1040 0.961 . S
C1033 H1041 0.960 . S
C1034 C1032 1.381 . S
C1034 C1035 1.394 . S
C1034 H1042 0.930 . S
C1035 C1034 1.394 . S
C1035 C1036 1.383 . S
C1035 H1043 0.929 . S
C1036 C1035 1.383 . S
C1036 C1037 1.377 . S
C1037 H1021 0.930 . S
C1037 C1036 1.377 . S
C1037 C1038 1.379 . S
C1038 H1022 0.931 . S
C1038 C1032 1.383 . S
C1038 C1037 1.379 . S
H1039 C1033 0.959 . S
H1040 C1033 0.961 . S
H1041 C1033 0.960 . S
H1042 C1034 0.930 . S
H1043 C1035 0.929 . S
H1044 C1052 0.929 . S
H1045 C1054 0.930 . S
H1046 C1056 0.930 . S
H1047 C1059 0.929 . S
H1048 C1062 0.930 . S
H1049 C1064 0.960 . S
H1050 C1064 0.960 . S
H1051 C1064 0.960 . S
C1052 H1044 0.929 . S
C1052 C1053 1.377 . S
C1052 C1054 1.384 . S
C1053 C1052 1.377 . S
C1053 C1059 1.390 . S
C1054 H1045 0.930 . S
C1054 C1052 1.384 . S
C1054 C1055 1.372 . S
C1055 C1054 1.372 . S
C1055 C1056 1.400 . S
C1055 C1060 1.490 . S
C1056 H1046 0.930 . S
C1056 C1055 1.400 . S
C1056 C1059 1.386 . S
H1057 C1073 0.930 . S
H1058 C1074 0.931 . S
C1059 H1047 0.929 . S
C1059 C1053 1.390 . S
C1059 C1056 1.386 . S
C1060 C1055 1.490 . S
C1060 C1062 1.395 . S
C1060 C1063 1.403 . S
H1061 C1067 0.930 . S
C1062 H1048 0.930 . S
C1062 C1060 1.395 . S
C1062 C1065 1.403 . S
C1063 C1060 1.403 . S
C1063 C1064 1.524 . S
C1063 C1067 1.400 . S
C1064 H1049 0.960 . S
C1064 H1050 0.960 . S
C1064 H1051 0.960 . S
C1064 C1063 1.524 . S
C1065 C1062 1.403 . S
C1065 C1066 1.392 . S
C1065 C1069 1.495 . S
C1066 C1065 1.392 . S
C1066 C1067 1.385 . S
C1066 C1068 1.478 . S
C1067 H1061 0.930 . S
C1067 C1063 1.400 . S
C1067 C1066 1.385 . S
C1068 C1066 1.478 . S
C1068 C1070 1.381 . S
C1068 C1074 1.383 . S
C1069 C1065 1.495 . S
C1069 H1075 0.959 . S
C1069 H1076 0.961 . S
C1069 H1077 0.960 . S
C1070 C1068 1.381 . S
C1070 C1071 1.394 . S
C1070 H1078 0.930 . S
C1071 C1070 1.394 . S
C1071 C1072 1.383 . S
C1071 H1079 0.929 . S
C1072 C1071 1.383 . S
C1072 C1073 1.377 . S
C1073 H1057 0.930 . S
C1073 C1072 1.377 . S
C1073 C1074 1.379 . S
C1074 H1058 0.931 . S
C1074 C1068 1.383 . S
C1074 C1073 1.379 . S
H1075 C1069 0.959 . S
H1076 C1069 0.961 . S
H1077 C1069 0.960 . S
H1078 C1070 0.930 . S
H1079 C1071 0.929 . S
H1080 C1088 0.929 . S
H1081 C1090 0.930 . S
H1082 C1092 0.930 . S
H1083 C1095 0.929 . S
H1084 C1098 0.930 . S
H1085 C1100 0.960 . S
H1086 C1100 0.960 . S
H1087 C1100 0.960 . S
C1088 H1080 0.929 . S
C1088 C1089 1.377 . S
C1088 C1090 1.384 . S
C1089 C1088 1.377 . S
C1089 C1095 1.390 . S
C1090 H1081 0.930 . S
C1090 C1088 1.384 . S
C1090 C1091 1.372 . S
C1091 C1090 1.372 . S
C1091 C1092 1.400 . S
C1091 C1096 1.490 . S
C1092 H1082 0.930 . S
C1092 C1091 1.400 . S
C1092 C1095 1.386 . S
H1093 C1109 0.930 . S
H1094 C1110 0.931 . S
C1095 H1083 0.929 . S
C1095 C1089 1.390 . S
C1095 C1092 1.386 . S
C1096 C1091 1.490 . S
C1096 C1098 1.395 . S
C1096 C1099 1.403 . S
H1097 C1103 0.930 . S
C1098 H1084 0.930 . S
C1098 C1096 1.395 . S
C1098 C1101 1.403 . S
C1099 C1096 1.403 . S
C1099 C1100 1.524 . S
C1099 C1103 1.400 . S
C1100 H1085 0.960 . S
C1100 H1086 0.960 . S
C1100 H1087 0.960 . S
C1100 C1099 1.524 . S
C1101 C1098 1.403 . S
C1101 C1102 1.392 . S
C1101 C1105 1.495 . S
C1102 C1101 1.392 . S
C1102 C1103 1.385 . S
C1102 C1104 1.478 . S
C1103 H1097 0.930 . S
C1103 C1099 1.400 . S
C1103 C1102 1.385 . S
C1104 C1102 1.478 . S
C1104 C1106 1.381 . S
C1104 C1110 1.383 . S
C1105 C1101 1.495 . S
C1105 H1111 0.959 . S
C1105 H1112 0.961 . S
C1105 H1113 0.960 . S
C1106 C1104 1.381 . S
C1106 C1107 1.394 . S
C1106 H1114 0.930 . S
C1107 C1106 1.394 . S
C1107 C1108 1.383 . S
C1107 H1115 0.929 . S
C1108 C1107 1.383 . S
C1108 C1109 1.377 . S
C1109 H1093 0.930 . S
C1109 C1108 1.377 . S
C1109 C1110 1.379 . S
C1110 H1094 0.931 . S
C1110 C1104 1.383 . S
C1110 C1109 1.379 . S
H1111 C1105 0.959 . S
H1112 C1105 0.961 . S
H1113 C1105 0.960 . S
H1114 C1106 0.930 . S
H1115 C1107 0.929 . S
H1116 C1124 0.929 . S
H1117 C1126 0.930 . S
H1118 C1128 0.930 . S
H1119 C1131 0.929 . S
H1120 C1134 0.930 . S
H1121 C1136 0.960 . S
H1122 C1136 0.960 . S
H1123 C1136 0.960 . S
C1124 H1116 0.929 . S
C1124 C1125 1.377 . S
C1124 C1126 1.384 . S
C1125 C1124 1.377 . S
C1125 C1131 1.390 . S
C1126 H1117 0.930 . S
C1126 C1124 1.384 . S
C1126 C1127 1.372 . S
C1127 C1126 1.372 . S
C1127 C1128 1.400 . S
C1127 C1132 1.490 . S
C1128 H1118 0.930 . S
C1128 C1127 1.400 . S
C1128 C1131 1.386 . S
H1129 C1145 0.930 . S
H1130 C1146 0.931 . S
C1131 H1119 0.929 . S
C1131 C1125 1.390 . S
C1131 C1128 1.386 . S
C1132 C1127 1.490 . S
C1132 C1134 1.395 . S
C1132 C1135 1.403 . S
H1133 C1139 0.930 . S
C1134 H1120 0.930 . S
C1134 C1132 1.395 . S
C1134 C1137 1.403 . S
C1135 C1132 1.403 . S
C1135 C1136 1.524 . S
C1135 C1139 1.400 . S
C1136 H1121 0.960 . S
C1136 H1122 0.960 . S
C1136 H1123 0.960 . S
C1136 C1135 1.524 . S
C1137 C1134 1.403 . S
C1137 C1138 1.392 . S
C1137 C1141 1.495 . S
C1138 C1137 1.392 . S
C1138 C1139 1.385 . S
C1138 C1140 1.478 . S
C1139 H1133 0.930 . S
C1139 C1135 1.400 . S
C1139 C1138 1.385 . S
C1140 C1138 1.478 . S
C1140 C1142 1.381 . S
C1140 C1146 1.383 . S
C1141 C1137 1.495 . S
C1141 H1147 0.959 . S
C1141 H1148 0.961 . S
C1141 H1149 0.960 . S
C1142 C1140 1.381 . S
C1142 C1143 1.394 . S
C1142 H1150 0.930 . S
C1143 C1142 1.394 . S
C1143 C1144 1.383 . S
C1143 H1151 0.929 . S
C1144 C1143 1.383 . S
C1144 C1145 1.377 . S
C1145 H1129 0.930 . S
C1145 C1144 1.377 . S
C1145 C1146 1.379 . S
C1146 H1130 0.931 . S
C1146 C1140 1.383 . S
C1146 C1145 1.379 . S
H1147 C1141 0.959 . S
H1148 C1141 0.961 . S
H1149 C1141 0.960 . S
H1150 C1142 0.930 . S
H1151 C1143 0.929 . S
H1152 C1160 0.929 . S
H1153 C1162 0.930 . S
H1154 C1164 0.930 . S
H1155 C1167 0.929 . S
H1156 C1170 0.930 . S
H1157 C1172 0.960 . S
H1158 C1172 0.960 . S
H1159 C1172 0.960 . S
C1160 H1152 0.929 . S
C1160 C1161 1.377 . S
C1160 C1162 1.384 . S
C1161 C1160 1.377 . S
C1161 C1167 1.390 . S
C1162 H1153 0.930 . S
C1162 C1160 1.384 . S
C1162 C1163 1.372 . S
C1163 C1162 1.372 . S
C1163 C1164 1.400 . S
C1163 C1168 1.490 . S
C1164 H1154 0.930 . S
C1164 C1163 1.400 . S
C1164 C1167 1.386 . S
H1165 C1181 0.930 . S
H1166 C1182 0.931 . S
C1167 H1155 0.929 . S
C1167 C1161 1.390 . S
C1167 C1164 1.386 . S
C1168 C1163 1.490 . S
C1168 C1170 1.395 . S
C1168 C1171 1.403 . S
H1169 C1175 0.930 . S
C1170 H1156 0.930 . S
C1170 C1168 1.395 . S
C1170 C1173 1.403 . S
C1171 C1168 1.403 . S
C1171 C1172 1.524 . S
C1171 C1175 1.400 . S
C1172 H1157 0.960 . S
C1172 H1158 0.960 . S
C1172 H1159 0.960 . S
C1172 C1171 1.524 . S
C1173 C1170 1.403 . S
C1173 C1174 1.392 . S
C1173 C1177 1.495 . S
C1174 C1173 1.392 . S
C1174 C1175 1.385 . S
C1174 C1176 1.478 . S
C1175 H1169 0.930 . S
C1175 C1171 1.400 . S
C1175 C1174 1.385 . S
C1176 C1174 1.478 . S
C1176 C1178 1.381 . S
C1176 C1182 1.383 . S
C1177 C1173 1.495 . S
C1177 H1183 0.959 . S
C1177 H1184 0.961 . S
C1177 H1185 0.960 . S
C1178 C1176 1.381 . S
C1178 C1179 1.394 . S
C1178 H1186 0.930 . S
C1179 C1178 1.394 . S
C1179 C1180 1.383 . S
C1179 H1187 0.929 . S
C1180 C1179 1.383 . S
C1180 C1181 1.377 . S
C1181 H1165 0.930 . S
C1181 C1180 1.377 . S
C1181 C1182 1.379 . S
C1182 H1166 0.931 . S
C1182 C1176 1.383 . S
C1182 C1181 1.379 . S
H1183 C1177 0.959 . S
H1184 C1177 0.961 . S
H1185 C1177 0.960 . S
H1186 C1178 0.930 . S
H1187 C1179 0.929 . S
H1188 C1196 0.929 . S
H1189 C1198 0.930 . S
H1190 C1200 0.930 . S
H1191 C1203 0.929 . S
H1192 C1206 0.930 . S
H1193 C1208 0.960 . S
H1194 C1208 0.960 . S
H1195 C1208 0.960 . S
C1196 H1188 0.929 . S
C1196 C1197 1.377 . S
C1196 C1198 1.384 . S
C1197 C1196 1.377 . S
C1197 C1203 1.390 . S
C1198 H1189 0.930 . S
C1198 C1196 1.384 . S
C1198 C1199 1.372 . S
C1199 C1198 1.372 . S
C1199 C1200 1.400 . S
C1199 C1204 1.490 . S
C1200 H1190 0.930 . S
C1200 C1199 1.400 . S
C1200 C1203 1.386 . S
H1201 C1217 0.930 . S
H1202 C1218 0.931 . S
C1203 H1191 0.929 . S
C1203 C1197 1.390 . S
C1203 C1200 1.386 . S
C1204 C1199 1.490 . S
C1204 C1206 1.395 . S
C1204 C1207 1.403 . S
H1205 C1211 0.930 . S
C1206 H1192 0.930 . S
C1206 C1204 1.395 . S
C1206 C1209 1.403 . S
C1207 C1204 1.403 . S
C1207 C1208 1.524 . S
C1207 C1211 1.400 . S
C1208 H1193 0.960 . S
C1208 H1194 0.960 . S
C1208 H1195 0.960 . S
C1208 C1207 1.524 . S
C1209 C1206 1.403 . S
C1209 C1210 1.392 . S
C1209 C1213 1.495 . S
C1210 C1209 1.392 . S
C1210 C1211 1.385 . S
C1210 C1212 1.478 . S
C1211 H1205 0.930 . S
C1211 C1207 1.400 . S
C1211 C1210 1.385 . S
C1212 C1210 1.478 . S
C1212 C1214 1.381 . S
C1212 C1218 1.383 . S
C1213 C1209 1.495 . S
C1213 H1219 0.959 . S
C1213 H1220 0.961 . S
C1213 H1221 0.960 . S
C1214 C1212 1.381 . S
C1214 C1215 1.394 . S
C1214 H1222 0.930 . S
C1215 C1214 1.394 . S
C1215 C1216 1.383 . S
C1215 H1223 0.929 . S
C1216 C1215 1.383 . S
C1216 C1217 1.377 . S
C1217 H1201 0.930 . S
C1217 C1216 1.377 . S
C1217 C1218 1.379 . S
C1218 H1202 0.931 . S
C1218 C1212 1.383 . S
C1218 C1217 1.379 . S
H1219 C1213 0.959 . S
H1220 C1213 0.961 . S
H1221 C1213 0.960 . S
H1222 C1214 0.930 . S
H1223 C1215 0.929 . S
H1224 C1232 0.929 . S
H1225 C1234 0.930 . S
H1226 C1236 0.930 . S
H1227 C1239 0.929 . S
H1228 C1242 0.930 . S
H1229 C1244 0.960 . S
H1230 C1244 0.960 . S
H1231 C1244 0.960 . S
C1232 H1224 0.929 . S
C1232 C1233 1.377 . S
C1232 C1234 1.384 . S
C1233 C1232 1.377 . S
C1233 C1239 1.390 . S
C1234 H1225 0.930 . S
C1234 C1232 1.384 . S
C1234 C1235 1.372 . S
C1235 C1234 1.372 . S
C1235 C1236 1.400 . S
C1235 C1240 1.490 . S
C1236 H1226 0.930 . S
C1236 C1235 1.400 . S
C1236 C1239 1.386 . S
H1237 C1253 0.930 . S
H1238 C1254 0.931 . S
C1239 H1227 0.929 . S
C1239 C1233 1.390 . S
C1239 C1236 1.386 . S
C1240 C1235 1.490 . S
C1240 C1242 1.395 . S
C1240 C1243 1.403 . S
H1241 C1247 0.930 . S
C1242 H1228 0.930 . S
C1242 C1240 1.395 . S
C1242 C1245 1.403 . S
C1243 C1240 1.403 . S
C1243 C1244 1.524 . S
C1243 C1247 1.400 . S
C1244 H1229 0.960 . S
C1244 H1230 0.960 . S
C1244 H1231 0.960 . S
C1244 C1243 1.524 . S
C1245 C1242 1.403 . S
C1245 C1246 1.392 . S
C1245 C1249 1.495 . S
C1246 C1245 1.392 . S
C1246 C1247 1.385 . S
C1246 C1248 1.478 . S
C1247 H1241 0.930 . S
C1247 C1243 1.400 . S
C1247 C1246 1.385 . S
C1248 C1246 1.478 . S
C1248 C1250 1.381 . S
C1248 C1254 1.383 . S
C1249 C1245 1.495 . S
C1249 H1255 0.959 . S
C1249 H1256 0.961 . S
C1249 H1257 0.960 . S
C1250 C1248 1.381 . S
C1250 C1251 1.394 . S
C1250 H1258 0.930 . S
C1251 C1250 1.394 . S
C1251 C1252 1.383 . S
C1251 H1259 0.929 . S
C1252 C1251 1.383 . S
C1252 C1253 1.377 . S
C1253 H1237 0.930 . S
C1253 C1252 1.377 . S
C1253 C1254 1.379 . S
C1254 H1238 0.931 . S
C1254 C1248 1.383 . S
C1254 C1253 1.379 . S
H1255 C1249 0.959 . S
H1256 C1249 0.961 . S
H1257 C1249 0.960 . S
H1258 C1250 0.930 . S
H1259 C1251 0.929 . S
H1260 C1268 0.929 . S
H1261 C1270 0.930 . S
H1262 C1272 0.930 . S
H1263 C1275 0.929 . S
H1264 C1278 0.930 . S
H1265 C1280 0.960 . S
H1266 C1280 0.960 . S
H1267 C1280 0.960 . S
C1268 H1260 0.929 . S
C1268 C1269 1.377 . S
C1268 C1270 1.384 . S
C1269 C1268 1.377 . S
C1269 C1275 1.390 . S
C1270 H1261 0.930 . S
C1270 C1268 1.384 . S
C1270 C1271 1.372 . S
C1271 C1270 1.372 . S
C1271 C1272 1.400 . S
C1271 C1276 1.490 . S
C1272 H1262 0.930 . S
C1272 C1271 1.400 . S
C1272 C1275 1.386 . S
H1273 C1289 0.930 . S
H1274 C1290 0.931 . S
C1275 H1263 0.929 . S
C1275 C1269 1.390 . S
C1275 C1272 1.386 . S
C1276 C1271 1.490 . S
C1276 C1278 1.395 . S
C1276 C1279 1.403 . S
H1277 C1283 0.930 . S
C1278 H1264 0.930 . S
C1278 C1276 1.395 . S
C1278 C1281 1.403 . S
C1279 C1276 1.403 . S
C1279 C1280 1.524 . S
C1279 C1283 1.400 . S
C1280 H1265 0.960 . S
C1280 H1266 0.960 . S
C1280 H1267 0.960 . S
C1280 C1279 1.524 . S
C1281 C1278 1.403 . S
C1281 C1282 1.392 . S
C1281 C1285 1.495 . S
C1282 C1281 1.392 . S
C1282 C1283 1.385 . S
C1282 C1284 1.478 . S
C1283 H1277 0.930 . S
C1283 C1279 1.400 . S
C1283 C1282 1.385 . S
C1284 C1282 1.478 . S
C1284 C1286 1.381 . S
C1284 C1290 1.383 . S
C1285 C1281 1.495 . S
C1285 H1291 0.959 . S
C1285 H1292 0.961 . S
C1285 H1293 0.960 . S
C1286 C1284 1.381 . S
C1286 C1287 1.394 . S
C1286 H1294 0.930 . S
C1287 C1286 1.394 . S
C1287 C1288 1.383 . S
C1287 H1295 0.929 . S
C1288 C1287 1.383 . S
C1288 C1289 1.377 . S
C1289 H1273 0.930 . S
C1289 C1288 1.377 . S
C1289 C1290 1.379 . S
C1290 H1274 0.931 . S
C1290 C1284 1.383 . S
C1290 C1289 1.379 . S
H1291 C1285 0.959 . S
H1292 C1285 0.961 . S
H1293 C1285 0.960 . S
H1294 C1286 0.930 . S
H1295 C1287 0.929 . S
H1296 C1304 0.929 . S
H1297 C1306 0.930 . S
H1298 C1308 0.930 . S
H1299 C1311 0.929 . S
H1300 C1314 0.930 . S
H1301 C1316 0.960 . S
H1302 C1316 0.960 . S
H1303 C1316 0.960 . S
C1304 H1296 0.929 . S
C1304 C1305 1.377 . S
C1304 C1306 1.384 . S
C1305 C1304 1.377 . S
C1305 C1311 1.390 . S
C1306 H1297 0.930 . S
C1306 C1304 1.384 . S
C1306 C1307 1.372 . S
C1307 C1306 1.372 . S
C1307 C1308 1.400 . S
C1307 C1312 1.490 . S
C1308 H1298 0.930 . S
C1308 C1307 1.400 . S
C1308 C1311 1.386 . S
H1309 C1325 0.930 . S
H1310 C1326 0.931 . S
C1311 H1299 0.929 . S
C1311 C1305 1.390 . S
C1311 C1308 1.386 . S
C1312 C1307 1.490 . S
C1312 C1314 1.395 . S
C1312 C1315 1.403 . S
H1313 C1319 0.930 . S
C1314 H1300 0.930 . S
C1314 C1312 1.395 . S
C1314 C1317 1.403 . S
C1315 C1312 1.403 . S
C1315 C1316 1.524 . S
C1315 C1319 1.400 . S
C1316 H1301 0.960 . S
C1316 H1302 0.960 . S
C1316 H1303 0.960 . S
C1316 C1315 1.524 . S
C1317 C1314 1.403 . S
C1317 C1318 1.392 . S
C1317 C1321 1.495 . S
C1318 C1317 1.392 . S
C1318 C1319 1.385 . S
C1318 C1320 1.478 . S
C1319 H1313 0.930 . S
C1319 C1315 1.400 . S
C1319 C1318 1.385 . S
C1320 C1318 1.478 . S
C1320 C1322 1.381 . S
C1320 C1326 1.383 . S
C1321 C1317 1.495 . S
C1321 H1327 0.959 . S
C1321 H1328 0.961 . S
C1321 H1329 0.960 . S
C1322 C1320 1.381 . S
C1322 C1323 1.394 . S
C1322 H1330 0.930 . S
C1323 C1322 1.394 . S
C1323 C1324 1.383 . S
C1323 H1331 0.929 . S
C1324 C1323 1.383 . S
C1324 C1325 1.377 . S
C1325 H1309 0.930 . S
C1325 C1324 1.377 . S
C1325 C1326 1.379 . S
C1326 H1310 0.931 . S
C1326 C1320 1.383 . S
C1326 C1325 1.379 . S
H1327 C1321 0.959 . S
H1328 C1321 0.961 . S
H1329 C1321 0.960 . S
H1330 C1322 0.930 . S
H1331 C1323 0.929 . S
H1332 C1340 0.929 . S
H1333 C1342 0.930 . S
H1334 C1344 0.930 . S
H1335 C1347 0.929 . S
H1336 C1350 0.930 . S
H1337 C1352 0.960 . S
H1338 C1352 0.960 . S
H1339 C1352 0.960 . S
C1340 H1332 0.929 . S
C1340 C1341 1.377 . S
C1340 C1342 1.384 . S
C1341 C1340 1.377 . S
C1341 C1347 1.390 . S
C1342 H1333 0.930 . S
C1342 C1340 1.384 . S
C1342 C1343 1.372 . S
C1343 C1342 1.372 . S
C1343 C1344 1.400 . S
C1343 C1348 1.490 . S
C1344 H1334 0.930 . S
C1344 C1343 1.400 . S
C1344 C1347 1.386 . S
H1345 C1361 0.930 . S
H1346 C1362 0.931 . S
C1347 H1335 0.929 . S
C1347 C1341 1.390 . S
C1347 C1344 1.386 . S
C1348 C1343 1.490 . S
C1348 C1350 1.395 . S
C1348 C1351 1.403 . S
H1349 C1355 0.930 . S
C1350 H1336 0.930 . S
C1350 C1348 1.395 . S
C1350 C1353 1.403 . S
C1351 C1348 1.403 . S
C1351 C1352 1.524 . S
C1351 C1355 1.400 . S
C1352 H1337 0.960 . S
C1352 H1338 0.960 . S
C1352 H1339 0.960 . S
C1352 C1351 1.524 . S
C1353 C1350 1.403 . S
C1353 C1354 1.392 . S
C1353 C1357 1.495 . S
C1354 C1353 1.392 . S
C1354 C1355 1.385 . S
C1354 C1356 1.478 . S
C1355 H1349 0.930 . S
C1355 C1351 1.400 . S
C1355 C1354 1.385 . S
C1356 C1354 1.478 . S
C1356 C1358 1.381 . S
C1356 C1362 1.383 . S
C1357 C1353 1.495 . S
C1357 H1363 0.959 . S
C1357 H1364 0.961 . S
C1357 H1365 0.960 . S
C1358 C1356 1.381 . S
C1358 C1359 1.394 . S
C1358 H1366 0.930 . S
C1359 C1358 1.394 . S
C1359 C1360 1.383 . S
C1359 H1367 0.929 . S
C1360 C1359 1.383 . S
C1360 C1361 1.377 . S
C1361 H1345 0.930 . S
C1361 C1360 1.377 . S
C1361 C1362 1.379 . S
C1362 H1346 0.931 . S
C1362 C1356 1.383 . S
C1362 C1361 1.379 . S
H1363 C1357 0.959 . S
H1364 C1357 0.961 . S
H1365 C1357 0.960 . S
H1366 C1358 0.930 . S
H1367 C1359 0.929 . S
H1368 C1376 0.929 . S
H1369 C1378 0.930 . S
H1370 C1380 0.930 . S
H1371 C1383 0.929 . S
H1372 C1386 0.930 . S
H1373 C1388 0.960 . S
H1374 C1388 0.960 . S
H1375 C1388 0.960 . S
C1376 H1368 0.929 . S
C1376 C1377 1.377 . S
C1376 C1378 1.384 . S
C1377 C1376 1.377 . S
C1377 C1383 1.390 . S
C1378 H1369 0.930 . S
C1378 C1376 1.384 . S
C1378 C1379 1.372 . S
C1379 C1378 1.372 . S
C1379 C1380 1.400 . S
C1379 C1384 1.490 . S
C1380 H1370 0.930 . S
C1380 C1379 1.400 . S
C1380 C1383 1.386 . S
H1381 C1397 0.930 . S
H1382 C1398 0.931 . S
C1383 H1371 0.929 . S
C1383 C1377 1.390 . S
C1383 C1380 1.386 . S
C1384 C1379 1.490 . S
C1384 C1386 1.395 . S
C1384 C1387 1.403 . S
H1385 C1391 0.930 . S
C1386 H1372 0.930 . S
C1386 C1384 1.395 . S
C1386 C1389 1.403 . S
C1387 C1384 1.403 . S
C1387 C1388 1.524 . S
C1387 C1391 1.400 . S
C1388 H1373 0.960 . S
C1388 H1374 0.960 . S
C1388 H1375 0.960 . S
C1388 C1387 1.524 . S
C1389 C1386 1.403 . S
C1389 C1390 1.392 . S
C1389 C1393 1.495 . S
C1390 C1389 1.392 . S
C1390 C1391 1.385 . S
C1390 C1392 1.478 . S
C1391 H1385 0.930 . S
C1391 C1387 1.400 . S
C1391 C1390 1.385 . S
C1392 C1390 1.478 . S
C1392 C1394 1.381 . S
C1392 C1398 1.383 . S
C1393 C1389 1.495 . S
C1393 H1399 0.959 . S
C1393 H1400 0.961 . S
C1393 H1401 0.960 . S
C1394 C1392 1.381 . S
C1394 C1395 1.394 . S
C1394 H1402 0.930 . S
C1395 C1394 1.394 . S
C1395 C1396 1.383 . S
C1395 H1403 0.929 . S
C1396 C1395 1.383 . S
C1396 C1397 1.377 . S
C1397 H1381 0.930 . S
C1397 C1396 1.377 . S
C1397 C1398 1.379 . S
C1398 H1382 0.931 . S
C1398 C1392 1.383 . S
C1398 C1397 1.379 . S
H1399 C1393 0.959 . S
H1400 C1393 0.961 . S
H1401 C1393 0.960 . S
H1402 C1394 0.930 . S
H1403 C1395 0.929 . S
H1404 C1412 0.929 . S
H1405 C1414 0.930 . S
H1406 C1416 0.930 . S
H1407 C1419 0.929 . S
H1408 C1422 0.930 . S
H1409 C1424 0.960 . S
H1410 C1424 0.960 . S
H1411 C1424 0.960 . S
C1412 H1404 0.929 . S
C1412 C1413 1.377 . S
C1412 C1414 1.384 . S
C1413 C1412 1.377 . S
C1413 C1419 1.390 . S
C1414 H1405 0.930 . S
C1414 C1412 1.384 . S
C1414 C1415 1.372 . S
C1415 C1414 1.372 . S
C1415 C1416 1.400 . S
C1415 C1420 1.490 . S
C1416 H1406 0.930 . S
C1416 C1415 1.400 . S
C1416 C1419 1.386 . S
H1417 C1433 0.930 . S
H1418 C1434 0.931 . S
C1419 H1407 0.929 . S
C1419 C1413 1.390 . S
C1419 C1416 1.386 . S
C1420 C1415 1.490 . S
C1420 C1422 1.395 . S
C1420 C1423 1.403 . S
H1421 C1427 0.930 . S
C1422 H1408 0.930 . S
C1422 C1420 1.395 . S
C1422 C1425 1.403 . S
C1423 C1420 1.403 . S
C1423 C1424 1.524 . S
C1423 C1427 1.400 . S
C1424 H1409 0.960 . S
C1424 H1410 0.960 . S
C1424 H1411 0.960 . S
C1424 C1423 1.524 . S
C1425 C1422 1.403 . S
C1425 C1426 1.392 . S
C1425 C1429 1.495 . S
C1426 C1425 1.392 . S
C1426 C1427 1.385 . S
C1426 C1428 1.478 . S
C1427 H1421 0.930 . S
C1427 C1423 1.400 . S
C1427 C1426 1.385 . S
C1428 C1426 1.478 . S
C1428 C1430 1.381 . S
C1428 C1434 1.383 . S
C1429 C1425 1.495 . S
C1429 H1435 0.959 . S
C1429 H1436 0.961 . S
C1429 H1437 0.960 . S
C1430 C1428 1.381 . S
C1430 C1431 1.394 . S
C1430 H1438 0.930 . S
C1431 C1430 1.394 . S
C1431 C1432 1.383 . S
C1431 H1439 0.929 . S
C1432 C1431 1.383 . S
C1432 C1433 1.377 . S
C1433 H1417 0.930 . S
C1433 C1432 1.377 . S
C1433 C1434 1.379 . S
C1434 H1418 0.931 . S
C1434 C1428 1.383 . S
C1434 C1433 1.379 . S
H1435 C1429 0.959 . S
H1436 C1429 0.961 . S
H1437 C1429 0.960 . S
H1438 C1430 0.930 . S
H1439 C1431 0.929 . S
H1440 C1448 0.929 . S
H1441 C1450 0.930 . S
H1442 C1452 0.930 . S
H1443 C1455 0.929 . S
H1444 C1458 0.930 . S
H1445 C1460 0.960 . S
H1446 C1460 0.960 . S
H1447 C1460 0.960 . S
C1448 H1440 0.929 . S
C1448 C1449 1.377 . S
C1448 C1450 1.384 . S
C1449 C1448 1.377 . S
C1449 C1455 1.390 . S
C1450 H1441 0.930 . S
C1450 C1448 1.384 . S
C1450 C1451 1.372 . S
C1451 C1450 1.372 . S
C1451 C1452 1.400 . S
C1451 C1456 1.490 . S
C1452 H1442 0.930 . S
C1452 C1451 1.400 . S
C1452 C1455 1.386 . S
H1453 C1469 0.930 . S
H1454 C1470 0.931 . S
C1455 H1443 0.929 . S
C1455 C1449 1.390 . S
C1455 C1452 1.386 . S
C1456 C1451 1.490 . S
C1456 C1458 1.395 . S
C1456 C1459 1.403 . S
H1457 C1463 0.930 . S
C1458 H1444 0.930 . S
C1458 C1456 1.395 . S
C1458 C1461 1.403 . S
C1459 C1456 1.403 . S
C1459 C1460 1.524 . S
C1459 C1463 1.400 . S
C1460 H1445 0.960 . S
C1460 H1446 0.960 . S
C1460 H1447 0.960 . S
C1460 C1459 1.524 . S
C1461 C1458 1.403 . S
C1461 C1462 1.392 . S
C1461 C1465 1.495 . S
C1462 C1461 1.392 . S
C1462 C1463 1.385 . S
C1462 C1464 1.478 . S
C1463 H1457 0.930 . S
C1463 C1459 1.400 . S
C1463 C1462 1.385 . S
C1464 C1462 1.478 . S
C1464 C1466 1.381 . S
C1464 C1470 1.383 . S
C1465 C1461 1.495 . S
C1465 H1471 0.959 . S
C1465 H1472 0.961 . S
C1465 H1473 0.960 . S
C1466 C1464 1.381 . S
C1466 C1467 1.394 . S
C1466 H1474 0.930 . S
C1467 C1466 1.394 . S
C1467 C1468 1.383 . S
C1467 H1475 0.929 . S
C1468 C1467 1.383 . S
C1468 C1469 1.377 . S
C1469 H1453 0.930 . S
C1469 C1468 1.377 . S
C1469 C1470 1.379 . S
C1470 H1454 0.931 . S
C1470 C1464 1.383 . S
C1470 C1469 1.379 . S
H1471 C1465 0.959 . S
H1472 C1465 0.961 . S
H1473 C1465 0.960 . S
H1474 C1466 0.930 . S
H1475 C1467 0.929 . S
H1476 C1484 0.929 . S
H1477 C1486 0.930 . S
H1478 C1488 0.930 . S
H1479 C1491 0.929 . S
H1480 C1494 0.930 . S
H1481 C1496 0.960 . S
H1482 C1496 0.960 . S
H1483 C1496 0.960 . S
C1484 H1476 0.929 . S
C1484 C1485 1.377 . S
C1484 C1486 1.384 . S
C1485 C1484 1.377 . S
C1485 C1491 1.390 . S
C1486 H1477 0.930 . S
C1486 C1484 1.384 . S
C1486 C1487 1.372 . S
C1487 C1486 1.372 . S
C1487 C1488 1.400 . S
C1487 C1492 1.490 . S
C1488 H1478 0.930 . S
C1488 C1487 1.400 . S
C1488 C1491 1.386 . S
H1489 C1505 0.930 . S
H1490 C1506 0.931 . S
C1491 H1479 0.929 . S
C1491 C1485 1.390 . S
C1491 C1488 1.386 . S
C1492 C1487 1.490 . S
C1492 C1494 1.395 . S
C1492 C1495 1.403 . S
H1493 C1499 0.930 . S
C1494 H1480 0.930 . S
C1494 C1492 1.395 . S
C1494 C1497 1.403 . S
C1495 C1492 1.403 . S
C1495 C1496 1.524 . S
C1495 C1499 1.400 . S
C1496 H1481 0.960 . S
C1496 H1482 0.960 . S
C1496 H1483 0.960 . S
C1496 C1495 1.524 . S
C1497 C1494 1.403 . S
C1497 C1498 1.392 . S
C1497 C1501 1.495 . S
C1498 C1497 1.392 . S
C1498 C1499 1.385 . S
C1498 C1500 1.478 . S
C1499 H1493 0.930 . S
C1499 C1495 1.400 . S
C1499 C1498 1.385 . S
C1500 C1498 1.478 . S
C1500 C1502 1.381 . S
C1500 C1506 1.383 . S
C1501 C1497 1.495 . S
C1501 H1507 0.959 . S
C1501 H1508 0.961 . S
C1501 H1509 0.960 . S
C1502 C1500 1.381 . S
C1502 C1503 1.394 . S
C1502 H1510 0.930 . S
C1503 C1502 1.394 . S
C1503 C1504 1.383 . S
C1503 H1511 0.929 . S
C1504 C1503 1.383 . S
C1504 C1505 1.377 . S
C1505 H1489 0.930 . S
C1505 C1504 1.377 . S
C1505 C1506 1.379 . S
C1506 H1490 0.931 . S
C1506 C1500 1.383 . S
C1506 C1505 1.379 . S
H1507 C1501 0.959 . S
H1508 C1501 0.961 . S
H1509 C1501 0.960 . S
H1510 C1502 0.930 . S
H1511 C1503 0.929 . S
H1512 C1520 0.929 . S
H1513 C1522 0.930 . S
H1514 C1524 0.930 . S
H1515 C1527 0.929 . S
H1516 C1530 0.930 . S
H1517 C1532 0.960 . S
H1518 C1532 0.960 . S
H1519 C1532 0.960 . S
C1520 H1512 0.929 . S
C1520 C1521 1.377 . S
C1520 C1522 1.384 . S
C1521 C1520 1.377 . S
C1521 C1527 1.390 . S
C1522 H1513 0.930 . S
C1522 C1520 1.384 . S
C1522 C1523 1.372 . S
C1523 C1522 1.372 . S
C1523 C1524 1.400 . S
C1523 C1528 1.490 . S
C1524 H1514 0.930 . S
C1524 C1523 1.400 . S
C1524 C1527 1.386 . S
H1525 C1541 0.930 . S
H1526 C1542 0.931 . S
C1527 H1515 0.929 . S
C1527 C1521 1.390 . S
C1527 C1524 1.386 . S
C1528 C1523 1.490 . S
C1528 C1530 1.395 . S
C1528 C1531 1.403 . S
H1529 C1535 0.930 . S
C1530 H1516 0.930 . S
C1530 C1528 1.395 . S
C1530 C1533 1.403 . S
C1531 C1528 1.403 . S
C1531 C1532 1.524 . S
C1531 C1535 1.400 . S
C1532 H1517 0.960 . S
C1532 H1518 0.960 . S
C1532 H1519 0.960 . S
C1532 C1531 1.524 . S
C1533 C1530 1.403 . S
C1533 C1534 1.392 . S
C1533 C1537 1.495 . S
C1534 C1533 1.392 . S
C1534 C1535 1.385 . S
C1534 C1536 1.478 . S
C1535 H1529 0.930 . S
C1535 C1531 1.400 . S
C1535 C1534 1.385 . S
C1536 C1534 1.478 . S
C1536 C1538 1.381 . S
C1536 C1542 1.383 . S
C1537 C1533 1.495 . S
C1537 H1543 0.959 . S
C1537 H1544 0.961 . S
C1537 H1545 0.960 . S
C1538 C1536 1.381 . S
C1538 C1539 1.394 . S
C1538 H1546 0.930 . S
C1539 C1538 1.394 . S
C1539 C1540 1.383 . S
C1539 H1547 0.929 . S
C1540 C1539 1.383 . S
C1540 C1541 1.377 . S
C1541 H1525 0.930 . S
C1541 C1540 1.377 . S
C1541 C1542 1.379 . S
C1542 H1526 0.931 . S
C1542 C1536 1.383 . S
C1542 C1541 1.379 . S
H1543 C1537 0.959 . S
H1544 C1537 0.961 . S
H1545 C1537 0.960 . S
H1546 C1538 0.930 . S
H1547 C1539 0.929 . S
H1548 C1556 0.929 . S
H1549 C1558 0.930 . S
H1550 C1560 0.930 . S
H1551 C1563 0.929 . S
H1552 C1566 0.930 . S
H1553 C1568 0.960 . S
H1554 C1568 0.960 . S
H1555 C1568 0.960 . S
C1556 H1548 0.929 . S
C1556 C1557 1.377 . S
C1556 C1558 1.384 . S
C1557 C1556 1.377 . S
C1557 C1563 1.390 . S
C1558 H1549 0.930 . S
C1558 C1556 1.384 . S
C1558 C1559 1.372 . S
C1559 C1558 1.372 . S
C1559 C1560 1.400 . S
C1559 C1564 1.490 . S
C1560 H1550 0.930 . S
C1560 C1559 1.400 . S
C1560 C1563 1.386 . S
H1561 C1577 0.930 . S
H1562 C1578 0.931 . S
C1563 H1551 0.929 . S
C1563 C1557 1.390 . S
C1563 C1560 1.386 . S
C1564 C1559 1.490 . S
C1564 C1566 1.395 . S
C1564 C1567 1.403 . S
H1565 C1571 0.930 . S
C1566 H1552 0.930 . S
C1566 C1564 1.395 . S
C1566 C1569 1.403 . S
C1567 C1564 1.403 . S
C1567 C1568 1.524 . S
C1567 C1571 1.400 . S
C1568 H1553 0.960 . S
C1568 H1554 0.960 . S
C1568 H1555 0.960 . S
C1568 C1567 1.524 . S
C1569 C1566 1.403 . S
C1569 C1570 1.392 . S
C1569 C1573 1.495 . S
C1570 C1569 1.392 . S
C1570 C1571 1.385 . S
C1570 C1572 1.478 . S
C1571 H1565 0.930 . S
C1571 C1567 1.400 . S
C1571 C1570 1.385 . S
C1572 C1570 1.478 . S
C1572 C1574 1.381 . S
C1572 C1578 1.383 . S
C1573 C1569 1.495 . S
C1573 H1579 0.959 . S
C1573 H1580 0.961 . S
C1573 H1581 0.960 . S
C1574 C1572 1.381 . S
C1574 C1575 1.394 . S
C1574 H1582 0.930 . S
C1575 C1574 1.394 . S
C1575 C1576 1.383 . S
C1575 H1583 0.929 . S
C1576 C1575 1.383 . S
C1576 C1577 1.377 . S
C1577 H1561 0.930 . S
C1577 C1576 1.377 . S
C1577 C1578 1.379 . S
C1578 H1562 0.931 . S
C1578 C1572 1.383 . S
C1578 C1577 1.379 . S
H1579 C1573 0.959 . S
H1580 C1573 0.961 . S
H1581 C1573 0.960 . S
H1582 C1574 0.930 . S
H1583 C1575 0.929 . S
H1584 C1592 0.929 . S
H1585 C1594 0.930 . S
H1586 C1596 0.930 . S
H1587 C1599 0.929 . S
H1588 C1602 0.930 . S
H1589 C1604 0.960 . S
H1590 C1604 0.960 . S
H1591 C1604 0.960 . S
C1592 H1584 0.929 . S
C1592 C1593 1.377 . S
C1592 C1594 1.384 . S
C1593 C1592 1.377 . S
C1593 C1599 1.390 . S
C1594 H1585 0.930 . S
C1594 C1592 1.384 . S
C1594 C1595 1.372 . S
C1595 C1594 1.372 . S
C1595 C1596 1.400 . S
C1595 C1600 1.490 . S
C1596 H1586 0.930 . S
C1596 C1595 1.400 . S
C1596 C1599 1.386 . S
H1597 C1613 0.930 . S
H1598 C1614 0.931 . S
C1599 H1587 0.929 . S
C1599 C1593 1.390 . S
C1599 C1596 1.386 . S
C1600 C1595 1.490 . S
C1600 C1602 1.395 . S
C1600 C1603 1.403 . S
H1601 C1607 0.930 . S
C1602 H1588 0.930 . S
C1602 C1600 1.395 . S
C1602 C1605 1.403 . S
C1603 C1600 1.403 . S
C1603 C1604 1.524 . S
C1603 C1607 1.400 . S
C1604 H1589 0.960 . S
C1604 H1590 0.960 . S
C1604 H1591 0.960 . S
C1604 C1603 1.524 . S
C1605 C1602 1.403 . S
C1605 C1606 1.392 . S
C1605 C1609 1.495 . S
C1606 C1605 1.392 . S
C1606 C1607 1.385 . S
C1606 C1608 1.478 . S
C1607 H1601 0.930 . S
C1607 C1603 1.400 . S
C1607 C1606 1.385 . S
C1608 C1606 1.478 . S
C1608 C1610 1.381 . S
C1608 C1614 1.383 . S
C1609 C1605 1.495 . S
C1609 H1615 0.959 . S
C1609 H1616 0.961 . S
C1609 H1617 0.960 . S
C1610 C1608 1.381 . S
C1610 C1611 1.394 . S
C1610 H1618 0.930 . S
C1611 C1610 1.394 . S
C1611 C1612 1.383 . S
C1611 H1619 0.929 . S
C1612 C1611 1.383 . S
C1612 C1613 1.377 . S
C1613 H1597 0.930 . S
C1613 C1612 1.377 . S
C1613 C1614 1.379 . S
C1614 H1598 0.931 . S
C1614 C1608 1.383 . S
C1614 C1613 1.379 . S
H1615 C1609 0.959 . S
H1616 C1609 0.961 . S
H1617 C1609 0.960 . S
H1618 C1610 0.930 . S
H1619 C1611 0.929 . S
H1620 C1628 0.929 . S
H1621 C1630 0.930 . S
H1622 C1632 0.930 . S
H1623 C1635 0.929 . S
H1624 C1638 0.930 . S
H1625 C1640 0.960 . S
H1626 C1640 0.960 . S
H1627 C1640 0.960 . S
C1628 H1620 0.929 . S
C1628 C1629 1.377 . S
C1628 C1630 1.384 . S
C1629 C1628 1.377 . S
C1629 C1635 1.390 . S
C1630 H1621 0.930 . S
C1630 C1628 1.384 . S
C1630 C1631 1.372 . S
C1631 C1630 1.372 . S
C1631 C1632 1.400 . S
C1631 C1636 1.490 . S
C1632 H1622 0.930 . S
C1632 C1631 1.400 . S
C1632 C1635 1.386 . S
H1633 C1649 0.930 . S
H1634 C1650 0.931 . S
C1635 H1623 0.929 . S
C1635 C1629 1.390 . S
C1635 C1632 1.386 . S
C1636 C1631 1.490 . S
C1636 C1638 1.395 . S
C1636 C1639 1.403 . S
H1637 C1643 0.930 . S
C1638 H1624 0.930 . S
C1638 C1636 1.395 . S
C1638 C1641 1.403 . S
C1639 C1636 1.403 . S
C1639 C1640 1.524 . S
C1639 C1643 1.400 . S
C1640 H1625 0.960 . S
C1640 H1626 0.960 . S
C1640 H1627 0.960 . S
C1640 C1639 1.524 . S
C1641 C1638 1.403 . S
C1641 C1642 1.392 . S
C1641 C1645 1.495 . S
C1642 C1641 1.392 . S
C1642 C1643 1.385 . S
C1642 C1644 1.478 . S
C1643 H1637 0.930 . S
C1643 C1639 1.400 . S
C1643 C1642 1.385 . S
C1644 C1642 1.478 . S
C1644 C1646 1.381 . S
C1644 C1650 1.383 . S
C1645 C1641 1.495 . S
C1645 H1651 0.959 . S
C1645 H1652 0.961 . S
C1645 H1653 0.960 . S
C1646 C1644 1.381 . S
C1646 C1647 1.394 . S
C1646 H1654 0.930 . S
C1647 C1646 1.394 . S
C1647 C1648 1.383 . S
C1647 H1655 0.929 . S
C1648 C1647 1.383 . S
C1648 C1649 1.377 . S
C1649 H1633 0.930 . S
C1649 C1648 1.377 . S
C1649 C1650 1.379 . S
C1650 H1634 0.931 . S
C1650 C1644 1.383 . S
C1650 C1649 1.379 . S
H1651 C1645 0.959 . S
H1652 C1645 0.961 . S
H1653 C1645 0.960 . S
H1654 C1646 0.930 . S
H1655 C1647 0.929 . S
H1656 C1664 0.929 . S
H1657 C1666 0.930 . S
H1658 C1668 0.930 . S
H1659 C1671 0.929 . S
H1660 C1674 0.930 . S
H1661 C1676 0.960 . S
H1662 C1676 0.960 . S
H1663 C1676 0.960 . S
C1664 H1656 0.929 . S
C1664 C1665 1.377 . S
C1664 C1666 1.384 . S
C1665 C1664 1.377 . S
C1665 C1671 1.390 . S
C1666 H1657 0.930 . S
C1666 C1664 1.384 . S
C1666 C1667 1.372 . S
C1667 C1666 1.372 . S
C1667 C1668 1.400 . S
C1667 C1672 1.490 . S
C1668 H1658 0.930 . S
C1668 C1667 1.400 . S
C1668 C1671 1.386 . S
H1669 C1685 0.930 . S
H1670 C1686 0.931 . S
C1671 H1659 0.929 . S
C1671 C1665 1.390 . S
C1671 C1668 1.386 . S
C1672 C1667 1.490 . S
C1672 C1674 1.395 . S
C1672 C1675 1.403 . S
H1673 C1679 0.930 . S
C1674 H1660 0.930 . S
C1674 C1672 1.395 . S
C1674 C1677 1.403 . S
C1675 C1672 1.403 . S
C1675 C1676 1.524 . S
C1675 C1679 1.400 . S
C1676 H1661 0.960 . S
C1676 H1662 0.960 . S
C1676 H1663 0.960 . S
C1676 C1675 1.524 . S
C1677 C1674 1.403 . S
C1677 C1678 1.392 . S
C1677 C1681 1.495 . S
C1678 C1677 1.392 . S
C1678 C1679 1.385 . S
C1678 C1680 1.478 . S
C1679 H1673 0.930 . S
C1679 C1675 1.400 . S
C1679 C1678 1.385 . S
C1680 C1678 1.478 . S
C1680 C1682 1.381 . S
C1680 C1686 1.383 . S
C1681 C1677 1.495 . S
C1681 H1687 0.959 . S
C1681 H1688 0.961 . S
C1681 H1689 0.960 . S
C1682 C1680 1.381 . S
C1682 C1683 1.394 . S
C1682 H1690 0.930 . S
C1683 C1682 1.394 . S
C1683 C1684 1.383 . S
C1683 H1691 0.929 . S
C1684 C1683 1.383 . S
C1684 C1685 1.377 . S
C1685 H1669 0.930 . S
C1685 C1684 1.377 . S
C1685 C1686 1.379 . S
C1686 H1670 0.931 . S
C1686 C1680 1.383 . S
C1686 C1685 1.379 . S
H1687 C1681 0.959 . S
H1688 C1681 0.961 . S
H1689 C1681 0.960 . S
H1690 C1682 0.930 . S
H1691 C1683 0.929 . S
H1692 C1700 0.929 . S
H1693 C1702 0.930 . S
H1694 C1704 0.930 . S
H1695 C1707 0.929 . S
H1696 C1710 0.930 . S
H1697 C1712 0.960 . S
H1698 C1712 0.960 . S
H1699 C1712 0.960 . S
C1700 H1692 0.929 . S
C1700 C1701 1.377 . S
C1700 C1702 1.384 . S
C1701 C1700 1.377 . S
C1701 C1707 1.390 . S
C1702 H1693 0.930 . S
C1702 C1700 1.384 . S
C1702 C1703 1.372 . S
C1703 C1702 1.372 . S
C1703 C1704 1.400 . S
C1703 C1708 1.490 . S
C1704 H1694 0.930 . S
C1704 C1703 1.400 . S
C1704 C1707 1.386 . S
H1705 C1721 0.930 . S
H1706 C1722 0.931 . S
C1707 H1695 0.929 . S
C1707 C1701 1.390 . S
C1707 C1704 1.386 . S
C1708 C1703 1.490 . S
C1708 C1710 1.395 . S
C1708 C1711 1.403 . S
H1709 C1715 0.930 . S
C1710 H1696 0.930 . S
C1710 C1708 1.395 . S
C1710 C1713 1.403 . S
C1711 C1708 1.403 . S
C1711 C1712 1.524 . S
C1711 C1715 1.400 . S
C1712 H1697 0.960 . S
C1712 H1698 0.960 . S
C1712 H1699 0.960 . S
C1712 C1711 1.524 . S
C1713 C1710 1.403 . S
C1713 C1714 1.392 . S
C1713 C1717 1.495 . S
C1714 C1713 1.392 . S
C1714 C1715 1.385 . S
C1714 C1716 1.478 . S
C1715 H1709 0.930 . S
C1715 C1711 1.400 . S
C1715 C1714 1.385 . S
C1716 C1714 1.478 . S
C1716 C1718 1.381 . S
C1716 C1722 1.383 . S
C1717 C1713 1.495 . S
C1717 H1723 0.959 . S
C1717 H1724 0.961 . S
C1717 H1725 0.960 . S
C1718 C1716 1.381 . S
C1718 C1719 1.394 . S
C1718 H1726 0.930 . S
C1719 C1718 1.394 . S
C1719 C1720 1.383 . S
C1719 H1727 0.929 . S
C1720 C1719 1.383 . S
C1720 C1721 1.377 . S
C1721 H1705 0.930 . S
C1721 C1720 1.377 . S
C1721 C1722 1.379 . S
C1722 H1706 0.931 . S
C1722 C1716 1.383 . S
C1722 C1721 1.379 . S
H1723 C1717 0.959 . S
H1724 C1717 0.961 . S
H1725 C1717 0.960 . S
H1726 C1718 0.930 . S
H1727 C1719 0.929 . S
H1728 C1736 0.929 . S
H1729 C1738 0.930 . S
H1730 C1740 0.930 . S
H1731 C1743 0.929 . S
H1732 C1746 0.930 . S
H1733 C1748 0.960 . S
H1734 C1748 0.960 . S
H1735 C1748 0.960 . S
C1736 H1728 0.929 . S
C1736 C1737 1.377 . S
C1736 C1738 1.384 . S
C1737 C1736 1.377 . S
C1737 C1743 1.390 . S
C1738 H1729 0.930 . S
C1738 C1736 1.384 . S
C1738 C1739 1.372 . S
C1739 C1738 1.372 . S
C1739 C1740 1.400 . S
C1739 C1744 1.490 . S
C1740 H1730 0.930 . S
C1740 C1739 1.400 . S
C1740 C1743 1.386 . S
H1741 C1757 0.930 . S
H1742 C1758 0.931 . S
C1743 H1731 0.929 . S
C1743 C1737 1.390 . S
C1743 C1740 1.386 . S
C1744 C1739 1.490 . S
C1744 C1746 1.395 . S
C1744 C1747 1.403 . S
H1745 C1751 0.930 . S
C1746 H1732 0.930 . S
C1746 C1744 1.395 . S
C1746 C1749 1.403 1_455 S
C1747 C1744 1.403 . S
C1747 C1748 1.524 . S
C1747 C1751 1.400 1_455 S
C1748 H1733 0.960 . S
C1748 H1734 0.960 . S
C1748 H1735 0.960 . S
C1748 C1747 1.524 . S
C1749 C1746 1.403 1_655 S
C1749 C1750 1.392 . S
C1749 C1753 1.495 . S
C1750 C1749 1.392 . S
C1750 C1751 1.385 . S
C1750 C1752 1.478 . S
C1751 H1745 0.930 . S
C1751 C1747 1.400 1_655 S
C1751 C1750 1.385 . S
C1752 C1750 1.478 . S
C1752 C1754 1.381 . S
C1752 C1758 1.383 . S
C1753 C1749 1.495 . S
C1753 H1759 0.959 . S
C1753 H1760 0.961 . S
C1753 H1761 0.960 . S
C1754 C1752 1.381 . S
C1754 C1755 1.394 . S
C1754 H1762 0.930 . S
C1755 C1754 1.394 . S
C1755 C1756 1.383 . S
C1755 H1763 0.929 . S
C1756 C1755 1.383 . S
C1756 C1757 1.377 . S
C1757 H1741 0.930 . S
C1757 C1756 1.377 . S
C1757 C1758 1.379 . S
C1758 H1742 0.931 . S
C1758 C1752 1.383 . S
C1758 C1757 1.379 . S
H1759 C1753 0.959 . S
H1760 C1753 0.961 . S
H1761 C1753 0.960 . S
H1762 C1754 0.930 . S
H1763 C1755 0.929 . S
H1764 C1772 0.929 . S
H1765 C1774 0.930 . S
H1766 C1776 0.930 . S
H1767 C1779 0.929 . S
H1768 C1782 0.930 . S
H1769 C1784 0.960 . S
H1770 C1784 0.960 . S
H1771 C1784 0.960 . S
C1772 H1764 0.929 . S
C1772 C1773 1.377 . S
C1772 C1774 1.384 . S
C1773 C1772 1.377 . S
C1773 C1779 1.390 . S
C1774 H1765 0.930 . S
C1774 C1772 1.384 . S
C1774 C1775 1.372 . S
C1775 C1774 1.372 . S
C1775 C1776 1.400 . S
C1775 C1780 1.490 . S
C1776 H1766 0.930 . S
C1776 C1775 1.400 . S
C1776 C1779 1.386 . S
H1777 C1793 0.930 . S
H1778 C1794 0.931 . S
C1779 H1767 0.929 . S
C1779 C1773 1.390 . S
C1779 C1776 1.386 . S
C1780 C1775 1.490 . S
C1780 C1782 1.395 . S
C1780 C1783 1.403 . S
H1781 C1787 0.930 . S
C1782 H1768 0.930 . S
C1782 C1780 1.395 . S
C1782 C1785 1.403 1_545 S
C1783 C1780 1.403 . S
C1783 C1784 1.524 . S
C1783 C1787 1.400 1_545 S
C1784 H1769 0.960 . S
C1784 H1770 0.960 . S
C1784 H1771 0.960 . S
C1784 C1783 1.524 . S
C1785 C1782 1.403 1_565 S
C1785 C1786 1.392 . S
C1785 C1789 1.495 . S
C1786 C1785 1.392 . S
C1786 C1787 1.385 . S
C1786 C1788 1.478 . S
C1787 H1781 0.930 . S
C1787 C1783 1.400 1_565 S
C1787 C1786 1.385 . S
C1788 C1786 1.478 . S
C1788 C1790 1.381 . S
C1788 C1794 1.383 . S
C1789 C1785 1.495 . S
C1789 H1795 0.959 . S
C1789 H1796 0.961 . S
C1789 H1797 0.960 . S
C1790 C1788 1.381 . S
C1790 C1791 1.394 . S
C1790 H1798 0.930 . S
C1791 C1790 1.394 . S
C1791 C1792 1.383 . S
C1791 H1799 0.929 . S
C1792 C1791 1.383 . S
C1792 C1793 1.377 . S
C1793 H1777 0.930 . S
C1793 C1792 1.377 . S
C1793 C1794 1.379 . S
C1794 H1778 0.931 . S
C1794 C1788 1.383 . S
C1794 C1793 1.379 . S
H1795 C1789 0.959 . S
H1796 C1789 0.961 . S
H1797 C1789 0.960 . S
H1798 C1790 0.930 . S
H1799 C1791 0.929 . S
H1800 C1808 0.929 . S
H1801 C1810 0.930 . S
H1802 C1812 0.930 . S
H1803 C1815 0.929 . S
H1804 C1818 0.930 . S
H1805 C1820 0.960 . S
H1806 C1820 0.960 . S
H1807 C1820 0.960 . S
C1808 H1800 0.929 . S
C1808 C1809 1.377 . S
C1808 C1810 1.384 . S
C1809 C1808 1.377 . S
C1809 C1815 1.390 . S
C1810 H1801 0.930 . S
C1810 C1808 1.384 . S
C1810 C1811 1.372 . S
C1811 C1810 1.372 . S
C1811 C1812 1.400 . S
C1811 C1816 1.490 . S
C1812 H1802 0.930 . S
C1812 C1811 1.400 . S
C1812 C1815 1.386 . S
H1813 C1829 0.930 . S
H1814 C1830 0.931 . S
C1815 H1803 0.929 . S
C1815 C1809 1.390 . S
C1815 C1812 1.386 . S
C1816 C1811 1.490 . S
C1816 C1818 1.395 . S
C1816 C1819 1.403 . S
H1817 C1823 0.930 . S
C1818 H1804 0.930 . S
C1818 C1816 1.395 . S
C1818 C1821 1.403 1_655 S
C1819 C1816 1.403 . S
C1819 C1820 1.524 . S
C1819 C1823 1.400 1_655 S
C1820 H1805 0.960 . S
C1820 H1806 0.960 . S
C1820 H1807 0.960 . S
C1820 C1819 1.524 . S
C1821 C1818 1.403 1_455 S
C1821 C1822 1.392 . S
C1821 C1825 1.495 . S
C1822 C1821 1.392 . S
C1822 C1823 1.385 . S
C1822 C1824 1.478 . S
C1823 H1817 0.930 . S
C1823 C1819 1.400 1_455 S
C1823 C1822 1.385 . S
C1824 C1822 1.478 . S
C1824 C1826 1.381 . S
C1824 C1830 1.383 . S
C1825 C1821 1.495 . S
C1825 H1831 0.959 . S
C1825 H1832 0.961 . S
C1825 H1833 0.960 . S
C1826 C1824 1.381 . S
C1826 C1827 1.394 . S
C1826 H1834 0.930 . S
C1827 C1826 1.394 . S
C1827 C1828 1.383 . S
C1827 H1835 0.929 . S
C1828 C1827 1.383 . S
C1828 C1829 1.377 . S
C1829 H1813 0.930 . S
C1829 C1828 1.377 . S
C1829 C1830 1.379 . S
C1830 H1814 0.931 . S
C1830 C1824 1.383 . S
C1830 C1829 1.379 . S
H1831 C1825 0.959 . S
H1832 C1825 0.961 . S
H1833 C1825 0.960 . S
H1834 C1826 0.930 . S
H1835 C1827 0.929 . S
H1836 C1844 0.929 . S
H1837 C1846 0.930 . S
H1838 C1848 0.930 . S
H1839 C1851 0.929 . S
H1840 C1854 0.930 . S
H1841 C1856 0.960 . S
H1842 C1856 0.960 . S
H1843 C1856 0.960 . S
C1844 H1836 0.929 . S
C1844 C1845 1.377 . S
C1844 C1846 1.384 . S
C1845 C1844 1.377 . S
C1845 C1851 1.390 . S
C1846 H1837 0.930 . S
C1846 C1844 1.384 . S
C1846 C1847 1.372 . S
C1847 C1846 1.372 . S
C1847 C1848 1.400 . S
C1847 C1852 1.490 . S
C1848 H1838 0.930 . S
C1848 C1847 1.400 . S
C1848 C1851 1.386 . S
H1849 C1865 0.930 . S
H1850 C1866 0.931 . S
C1851 H1839 0.929 . S
C1851 C1845 1.390 . S
C1851 C1848 1.386 . S
C1852 C1847 1.490 . S
C1852 C1854 1.395 . S
C1852 C1855 1.403 . S
H1853 C1859 0.930 . S
C1854 H1840 0.930 . S
C1854 C1852 1.395 . S
C1854 C1857 1.403 1_545 S
C1855 C1852 1.403 . S
C1855 C1856 1.524 . S
C1855 C1859 1.400 1_545 S
C1856 H1841 0.960 . S
C1856 H1842 0.960 . S
C1856 H1843 0.960 . S
C1856 C1855 1.524 . S
C1857 C1854 1.403 1_565 S
C1857 C1858 1.392 . S
C1857 C1861 1.495 . S
C1858 C1857 1.392 . S
C1858 C1859 1.385 . S
C1858 C1860 1.478 . S
C1859 H1853 0.930 . S
C1859 C1855 1.400 1_565 S
C1859 C1858 1.385 . S
C1860 C1858 1.478 . S
C1860 C1862 1.381 . S
C1860 C1866 1.383 . S
C1861 C1857 1.495 . S
C1861 H1867 0.959 . S
C1861 H1868 0.961 . S
C1861 H1869 0.960 . S
C1862 C1860 1.381 . S
C1862 C1863 1.394 . S
C1862 H1870 0.930 . S
C1863 C1862 1.394 . S
C1863 C1864 1.383 . S
C1863 H1871 0.929 . S
C1864 C1863 1.383 . S
C1864 C1865 1.377 . S
C1865 H1849 0.930 . S
C1865 C1864 1.377 . S
C1865 C1866 1.379 . S
C1866 H1850 0.931 . S
C1866 C1860 1.383 . S
C1866 C1865 1.379 . S
H1867 C1861 0.959 . S
H1868 C1861 0.961 . S
H1869 C1861 0.960 . S
H1870 C1862 0.930 . S
H1871 C1863 0.929 . S
H1872 C1880 0.929 . S
H1873 C1882 0.930 . S
H1874 C1884 0.930 . S
H1875 C1887 0.929 . S
H1876 C1890 0.930 . S
H1877 C1892 0.960 . S
H1878 C1892 0.960 . S
H1879 C1892 0.960 . S
C1880 H1872 0.929 . S
C1880 C1881 1.377 . S
C1880 C1882 1.384 . S
C1881 C1880 1.377 . S
C1881 C1887 1.390 . S
C1882 H1873 0.930 . S
C1882 C1880 1.384 . S
C1882 C1883 1.372 . S
C1883 C1882 1.372 . S
C1883 C1884 1.400 . S
C1883 C1888 1.490 . S
C1884 H1874 0.930 . S
C1884 C1883 1.400 . S
C1884 C1887 1.386 . S
H1885 C1901 0.930 . S
H1886 C1902 0.931 . S
C1887 H1875 0.929 . S
C1887 C1881 1.390 . S
C1887 C1884 1.386 . S
C1888 C1883 1.490 . S
C1888 C1890 1.395 . S
C1888 C1891 1.403 . S
H1889 C1895 0.930 . S
C1890 H1876 0.930 . S
C1890 C1888 1.395 . S
C1890 C1893 1.403 1_565 S
C1891 C1888 1.403 . S
C1891 C1892 1.524 . S
C1891 C1895 1.400 1_565 S
C1892 H1877 0.960 . S
C1892 H1878 0.960 . S
C1892 H1879 0.960 . S
C1892 C1891 1.524 . S
C1893 C1890 1.403 1_545 S
C1893 C1894 1.392 . S
C1893 C1897 1.495 . S
C1894 C1893 1.392 . S
C1894 C1895 1.385 . S
C1894 C1896 1.478 . S
C1895 H1889 0.930 . S
C1895 C1891 1.400 1_545 S
C1895 C1894 1.385 . S
C1896 C1894 1.478 . S
C1896 C1898 1.381 . S
C1896 C1902 1.383 . S
C1897 C1893 1.495 . S
C1897 H1903 0.959 . S
C1897 H1904 0.961 . S
C1897 H1905 0.960 . S
C1898 C1896 1.381 . S
C1898 C1899 1.394 . S
C1898 H1906 0.930 . S
C1899 C1898 1.394 . S
C1899 C1900 1.383 . S
C1899 H1907 0.929 . S
C1900 C1899 1.383 . S
C1900 C1901 1.377 . S
C1901 H1885 0.930 . S
C1901 C1900 1.377 . S
C1901 C1902 1.379 . S
C1902 H1886 0.931 . S
C1902 C1896 1.383 . S
C1902 C1901 1.379 . S
H1903 C1897 0.959 . S
H1904 C1897 0.961 . S
H1905 C1897 0.960 . S
H1906 C1898 0.930 . S
H1907 C1899 0.929 . S
H1908 C1916 0.929 . S
H1909 C1918 0.930 . S
H1910 C1920 0.930 . S
H1911 C1923 0.929 . S
H1912 C1926 0.930 . S
H1913 C1928 0.960 . S
H1914 C1928 0.960 . S
H1915 C1928 0.960 . S
C1916 H1908 0.929 . S
C1916 C1917 1.377 . S
C1916 C1918 1.384 . S
C1917 C1916 1.377 . S
C1917 C1923 1.390 . S
C1918 H1909 0.930 . S
C1918 C1916 1.384 . S
C1918 C1919 1.372 . S
C1919 C1918 1.372 . S
C1919 C1920 1.400 . S
C1919 C1924 1.490 . S
C1920 H1910 0.930 . S
C1920 C1919 1.400 . S
C1920 C1923 1.386 . S
H1921 C1937 0.930 . S
H1922 C1938 0.931 . S
C1923 H1911 0.929 . S
C1923 C1917 1.390 . S
C1923 C1920 1.386 . S
C1924 C1919 1.490 . S
C1924 C1926 1.395 . S
C1924 C1927 1.403 . S
H1925 C1931 0.930 . S
C1926 H1912 0.930 . S
C1926 C1924 1.395 . S
C1926 C1929 1.403 1_655 S
C1927 C1924 1.403 . S
C1927 C1928 1.524 . S
C1927 C1931 1.400 1_655 S
C1928 H1913 0.960 . S
C1928 H1914 0.960 . S
C1928 H1915 0.960 . S
C1928 C1927 1.524 . S
C1929 C1926 1.403 1_455 S
C1929 C1930 1.392 . S
C1929 C1933 1.495 . S
C1930 C1929 1.392 . S
C1930 C1931 1.385 . S
C1930 C1932 1.478 . S
C1931 H1925 0.930 . S
C1931 C1927 1.400 1_455 S
C1931 C1930 1.385 . S
C1932 C1930 1.478 . S
C1932 C1934 1.381 . S
C1932 C1938 1.383 . S
C1933 C1929 1.495 . S
C1933 H1939 0.959 . S
C1933 H1940 0.961 . S
C1933 H1941 0.960 . S
C1934 C1932 1.381 . S
C1934 C1935 1.394 . S
C1934 H1942 0.930 . S
C1935 C1934 1.394 . S
C1935 C1936 1.383 . S
C1935 H1943 0.929 . S
C1936 C1935 1.383 . S
C1936 C1937 1.377 . S
C1937 H1921 0.930 . S
C1937 C1936 1.377 . S
C1937 C1938 1.379 . S
C1938 H1922 0.931 . S
C1938 C1932 1.383 . S
C1938 C1937 1.379 . S
H1939 C1933 0.959 . S
H1940 C1933 0.961 . S
H1941 C1933 0.960 . S
H1942 C1934 0.930 . S
H1943 C1935 0.929 . S
H1944 C1952 0.929 . S
H1945 C1954 0.930 . S
H1946 C1956 0.930 . S
H1947 C1959 0.929 . S
H1948 C1962 0.930 . S
H1949 C1964 0.960 . S
H1950 C1964 0.960 . S
H1951 C1964 0.960 . S
C1952 H1944 0.929 . S
C1952 C1953 1.377 . S
C1952 C1954 1.384 . S
C1953 C1952 1.377 . S
C1953 C1959 1.390 . S
C1954 H1945 0.930 . S
C1954 C1952 1.384 . S
C1954 C1955 1.372 . S
C1955 C1954 1.372 . S
C1955 C1956 1.400 . S
C1955 C1960 1.490 . S
C1956 H1946 0.930 . S
C1956 C1955 1.400 . S
C1956 C1959 1.386 . S
H1957 C1973 0.930 . S
H1958 C1974 0.931 . S
C1959 H1947 0.929 . S
C1959 C1953 1.390 . S
C1959 C1956 1.386 . S
C1960 C1955 1.490 . S
C1960 C1962 1.395 . S
C1960 C1963 1.403 . S
H1961 C1967 0.930 . S
C1962 H1948 0.930 . S
C1962 C1960 1.395 . S
C1962 C1965 1.403 1_565 S
C1963 C1960 1.403 . S
C1963 C1964 1.524 . S
C1963 C1967 1.400 1_565 S
C1964 H1949 0.960 . S
C1964 H1950 0.960 . S
C1964 H1951 0.960 . S
C1964 C1963 1.524 . S
C1965 C1962 1.403 1_545 S
C1965 C1966 1.392 . S
C1965 C1969 1.495 . S
C1966 C1965 1.392 . S
C1966 C1967 1.385 . S
C1966 C1968 1.478 . S
C1967 H1961 0.930 . S
C1967 C1963 1.400 1_545 S
C1967 C1966 1.385 . S
C1968 C1966 1.478 . S
C1968 C1970 1.381 . S
C1968 C1974 1.383 . S
C1969 C1965 1.495 . S
C1969 H1975 0.959 . S
C1969 H1976 0.961 . S
C1969 H1977 0.960 . S
C1970 C1968 1.381 . S
C1970 C1971 1.394 . S
C1970 H1978 0.930 . S
C1971 C1970 1.394 . S
C1971 C1972 1.383 . S
C1971 H1979 0.929 . S
C1972 C1971 1.383 . S
C1972 C1973 1.377 . S
C1973 H1957 0.930 . S
C1973 C1972 1.377 . S
C1973 C1974 1.379 . S
C1974 H1958 0.931 . S
C1974 C1968 1.383 . S
C1974 C1973 1.379 . S
H1975 C1969 0.959 . S
H1976 C1969 0.961 . S
H1977 C1969 0.960 . S
H1978 C1970 0.930 . S
H1979 C1971 0.929 . S
H1980 C1988 0.929 . S
H1981 C1990 0.930 . S
H1982 C1992 0.930 . S
H1983 C1995 0.929 . S
H1984 C1998 0.930 . S
H1985 C2000 0.960 . S
H1986 C2000 0.960 . S
H1987 C2000 0.960 . S
C1988 H1980 0.929 . S
C1988 C1989 1.377 . S
C1988 C1990 1.384 . S
C1989 C1988 1.377 . S
C1989 C1995 1.390 . S
C1990 H1981 0.930 . S
C1990 C1988 1.384 . S
C1990 C1991 1.372 . S
C1991 C1990 1.372 . S
C1991 C1992 1.400 . S
C1991 C1996 1.490 . S
C1992 H1982 0.930 . S
C1992 C1991 1.400 . S
C1992 C1995 1.386 . S
H1993 C2009 0.930 . S
H1994 C2010 0.931 . S
C1995 H1983 0.929 . S
C1995 C1989 1.390 . S
C1995 C1992 1.386 . S
C1996 C1991 1.490 . S
C1996 C1998 1.395 . S
C1996 C1999 1.403 . S
H1997 C2003 0.930 . S
C1998 H1984 0.930 . S
C1998 C1996 1.395 . S
C1998 C2001 1.403 1_655 S
C1999 C1996 1.403 . S
C1999 C2000 1.524 . S
C1999 C2003 1.400 1_655 S
C2000 H1985 0.960 . S
C2000 H1986 0.960 . S
C2000 H1987 0.960 . S
C2000 C1999 1.524 . S
C2001 C1998 1.403 1_455 S
C2001 C2002 1.392 . S
C2001 C2005 1.495 . S
C2002 C2001 1.392 . S
C2002 C2003 1.385 . S
C2002 C2004 1.478 . S
C2003 H1997 0.930 . S
C2003 C1999 1.400 1_455 S
C2003 C2002 1.385 . S
C2004 C2002 1.478 . S
C2004 C2006 1.381 . S
C2004 C2010 1.383 . S
C2005 C2001 1.495 . S
C2005 H2011 0.959 . S
C2005 H2012 0.961 . S
C2005 H2013 0.960 . S
C2006 C2004 1.381 . S
C2006 C2007 1.394 . S
C2006 H2014 0.930 . S
C2007 C2006 1.394 . S
C2007 C2008 1.383 . S
C2007 H2015 0.929 . S
C2008 C2007 1.383 . S
C2008 C2009 1.377 . S
C2009 H1993 0.930 . S
C2009 C2008 1.377 . S
C2009 C2010 1.379 . S
C2010 H1994 0.931 . S
C2010 C2004 1.383 . S
C2010 C2009 1.379 . S
H2011 C2005 0.959 . S
H2012 C2005 0.961 . S
H2013 C2005 0.960 . S
H2014 C2006 0.930 . S
H2015 C2007 0.929 . S
H2016 C2024 0.929 . S
H2017 C2026 0.930 . S
H2018 C2028 0.930 . S
H2019 C2031 0.929 . S
H2020 C2034 0.930 . S
H2021 C2036 0.960 . S
H2022 C2036 0.960 . S
H2023 C2036 0.960 . S
C2024 H2016 0.929 . S
C2024 C2025 1.377 . S
C2024 C2026 1.384 . S
C2025 C2024 1.377 . S
C2025 C2031 1.390 . S
C2026 H2017 0.930 . S
C2026 C2024 1.384 . S
C2026 C2027 1.372 . S
C2027 C2026 1.372 . S
C2027 C2028 1.400 . S
C2027 C2032 1.490 . S
C2028 H2018 0.930 . S
C2028 C2027 1.400 . S
C2028 C2031 1.386 . S
H2029 C2045 0.930 . S
H2030 C2046 0.931 . S
C2031 H2019 0.929 . S
C2031 C2025 1.390 . S
C2031 C2028 1.386 . S
C2032 C2027 1.490 . S
C2032 C2034 1.395 . S
C2032 C2035 1.403 . S
H2033 C2039 0.930 . S
C2034 H2020 0.930 . S
C2034 C2032 1.395 . S
C2034 C2037 1.403 1_556 S
C2035 C2032 1.403 . S
C2035 C2036 1.524 . S
C2035 C2039 1.400 1_556 S
C2036 H2021 0.960 . S
C2036 H2022 0.960 . S
C2036 H2023 0.960 . S
C2036 C2035 1.524 . S
C2037 C2034 1.403 1_554 S
C2037 C2038 1.392 . S
C2037 C2041 1.495 . S
C2038 C2037 1.392 . S
C2038 C2039 1.385 . S
C2038 C2040 1.478 . S
C2039 H2033 0.930 . S
C2039 C2035 1.400 1_554 S
C2039 C2038 1.385 . S
C2040 C2038 1.478 . S
C2040 C2042 1.381 . S
C2040 C2046 1.383 . S
C2041 C2037 1.495 . S
C2041 H2047 0.959 . S
C2041 H2048 0.961 . S
C2041 H2049 0.960 . S
C2042 C2040 1.381 . S
C2042 C2043 1.394 . S
C2042 H2050 0.930 . S
C2043 C2042 1.394 . S
C2043 C2044 1.383 . S
C2043 H2051 0.929 . S
C2044 C2043 1.383 . S
C2044 C2045 1.377 . S
C2045 H2029 0.930 . S
C2045 C2044 1.377 . S
C2045 C2046 1.379 . S
C2046 H2030 0.931 . S
C2046 C2040 1.383 . S
C2046 C2045 1.379 . S
H2047 C2041 0.959 . S
H2048 C2041 0.961 . S
H2049 C2041 0.960 . S
H2050 C2042 0.930 . S
H2051 C2043 0.929 . S
H2052 C2060 0.929 . S
H2053 C2062 0.930 . S
H2054 C2064 0.930 . S
H2055 C2067 0.929 . S
H2056 C2070 0.930 . S
H2057 C2072 0.960 . S
H2058 C2072 0.960 . S
H2059 C2072 0.960 . S
C2060 H2052 0.929 . S
C2060 C2061 1.377 . S
C2060 C2062 1.384 . S
C2061 C2060 1.377 . S
C2061 C2067 1.390 . S
C2062 H2053 0.930 . S
C2062 C2060 1.384 . S
C2062 C2063 1.372 . S
C2063 C2062 1.372 . S
C2063 C2064 1.400 . S
C2063 C2068 1.490 . S
C2064 H2054 0.930 . S
C2064 C2063 1.400 . S
C2064 C2067 1.386 . S
H2065 C2081 0.930 . S
H2066 C2082 0.931 . S
C2067 H2055 0.929 . S
C2067 C2061 1.390 . S
C2067 C2064 1.386 . S
C2068 C2063 1.490 . S
C2068 C2070 1.395 . S
C2068 C2071 1.403 . S
H2069 C2075 0.930 . S
C2070 H2056 0.930 . S
C2070 C2068 1.395 . S
C2070 C2073 1.403 1_556 S
C2071 C2068 1.403 . S
C2071 C2072 1.524 . S
C2071 C2075 1.400 1_556 S
C2072 H2057 0.960 . S
C2072 H2058 0.960 . S
C2072 H2059 0.960 . S
C2072 C2071 1.524 . S
C2073 C2070 1.403 1_554 S
C2073 C2074 1.392 . S
C2073 C2077 1.495 . S
C2074 C2073 1.392 . S
C2074 C2075 1.385 . S
C2074 C2076 1.478 . S
C2075 H2069 0.930 . S
C2075 C2071 1.400 1_554 S
C2075 C2074 1.385 . S
C2076 C2074 1.478 . S
C2076 C2078 1.381 . S
C2076 C2082 1.383 . S
C2077 C2073 1.495 . S
C2077 H2083 0.959 . S
C2077 H2084 0.961 . S
C2077 H2085 0.960 . S
C2078 C2076 1.381 . S
C2078 C2079 1.394 . S
C2078 H2086 0.930 . S
C2079 C2078 1.394 . S
C2079 C2080 1.383 . S
C2079 H2087 0.929 . S
C2080 C2079 1.383 . S
C2080 C2081 1.377 . S
C2081 H2065 0.930 . S
C2081 C2080 1.377 . S
C2081 C2082 1.379 . S
C2082 H2066 0.931 . S
C2082 C2076 1.383 . S
C2082 C2081 1.379 . S
H2083 C2077 0.959 . S
H2084 C2077 0.961 . S
H2085 C2077 0.960 . S
H2086 C2078 0.930 . S
H2087 C2079 0.929 . S
H2088 C2096 0.929 . S
H2089 C2098 0.930 . S
H2090 C2100 0.930 . S
H2091 C2103 0.929 . S
H2092 C2106 0.930 . S
H2093 C2108 0.960 . S
H2094 C2108 0.960 . S
H2095 C2108 0.960 . S
C2096 H2088 0.929 . S
C2096 C2097 1.377 . S
C2096 C2098 1.384 . S
C2097 C2096 1.377 . S
C2097 C2103 1.390 . S
C2098 H2089 0.930 . S
C2098 C2096 1.384 . S
C2098 C2099 1.372 . S
C2099 C2098 1.372 . S
C2099 C2100 1.400 . S
C2099 C2104 1.490 . S
C2100 H2090 0.930 . S
C2100 C2099 1.400 . S
C2100 C2103 1.386 . S
H2101 C2117 0.930 . S
H2102 C2118 0.931 . S
C2103 H2091 0.929 . S
C2103 C2097 1.390 . S
C2103 C2100 1.386 . S
C2104 C2099 1.490 . S
C2104 C2106 1.395 . S
C2104 C2107 1.403 . S
H2105 C2111 0.930 . S
C2106 H2092 0.930 . S
C2106 C2104 1.395 . S
C2106 C2109 1.403 1_556 S
C2107 C2104 1.403 . S
C2107 C2108 1.524 . S
C2107 C2111 1.400 1_556 S
C2108 H2093 0.960 . S
C2108 H2094 0.960 . S
C2108 H2095 0.960 . S
C2108 C2107 1.524 . S
C2109 C2106 1.403 1_554 S
C2109 C2110 1.392 . S
C2109 C2113 1.495 . S
C2110 C2109 1.392 . S
C2110 C2111 1.385 . S
C2110 C2112 1.478 . S
C2111 H2105 0.930 . S
C2111 C2107 1.400 1_554 S
C2111 C2110 1.385 . S
C2112 C2110 1.478 . S
C2112 C2114 1.381 . S
C2112 C2118 1.383 . S
C2113 C2109 1.495 . S
C2113 H2119 0.959 . S
C2113 H2120 0.961 . S
C2113 H2121 0.960 . S
C2114 C2112 1.381 . S
C2114 C2115 1.394 . S
C2114 H2122 0.930 . S
C2115 C2114 1.394 . S
C2115 C2116 1.383 . S
C2115 H2123 0.929 . S
C2116 C2115 1.383 . S
C2116 C2117 1.377 . S
C2117 H2101 0.930 . S
C2117 C2116 1.377 . S
C2117 C2118 1.379 . S
C2118 H2102 0.931 . S
C2118 C2112 1.383 . S
C2118 C2117 1.379 . S
H2119 C2113 0.959 . S
H2120 C2113 0.961 . S
H2121 C2113 0.960 . S
H2122 C2114 0.930 . S
H2123 C2115 0.929 . S
H2124 C2132 0.929 . S
H2125 C2134 0.930 . S
H2126 C2136 0.930 . S
H2127 C2139 0.929 . S
H2128 C2142 0.930 . S
H2129 C2144 0.960 . S
H2130 C2144 0.960 . S
H2131 C2144 0.960 . S
C2132 H2124 0.929 . S
C2132 C2133 1.377 . S
C2132 C2134 1.384 . S
C2133 C2132 1.377 . S
C2133 C2139 1.390 . S
C2134 H2125 0.930 . S
C2134 C2132 1.384 . S
C2134 C2135 1.372 . S
C2135 C2134 1.372 . S
C2135 C2136 1.400 . S
C2135 C2140 1.490 . S
C2136 H2126 0.930 . S
C2136 C2135 1.400 . S
C2136 C2139 1.386 . S
H2137 C2153 0.930 . S
H2138 C2154 0.931 . S
C2139 H2127 0.929 . S
C2139 C2133 1.390 . S
C2139 C2136 1.386 . S
C2140 C2135 1.490 . S
C2140 C2142 1.395 . S
C2140 C2143 1.403 . S
H2141 C2147 0.930 . S
C2142 H2128 0.930 . S
C2142 C2140 1.395 . S
C2142 C2145 1.403 1_556 S
C2143 C2140 1.403 . S
C2143 C2144 1.524 . S
C2143 C2147 1.400 1_556 S
C2144 H2129 0.960 . S
C2144 H2130 0.960 . S
C2144 H2131 0.960 . S
C2144 C2143 1.524 . S
C2145 C2142 1.403 1_554 S
C2145 C2146 1.392 . S
C2145 C2149 1.495 . S
C2146 C2145 1.392 . S
C2146 C2147 1.385 . S
C2146 C2148 1.478 . S
C2147 H2141 0.930 . S
C2147 C2143 1.400 1_554 S
C2147 C2146 1.385 . S
C2148 C2146 1.478 . S
C2148 C2150 1.381 . S
C2148 C2154 1.383 . S
C2149 C2145 1.495 . S
C2149 H2155 0.959 . S
C2149 H2156 0.961 . S
C2149 H2157 0.960 . S
C2150 C2148 1.381 . S
C2150 C2151 1.394 . S
C2150 H2158 0.930 . S
C2151 C2150 1.394 . S
C2151 C2152 1.383 . S
C2151 H2159 0.929 . S
C2152 C2151 1.383 . S
C2152 C2153 1.377 . S
C2153 H2137 0.930 . S
C2153 C2152 1.377 . S
C2153 C2154 1.379 . S
C2154 H2138 0.931 . S
C2154 C2148 1.383 . S
C2154 C2153 1.379 . S
H2155 C2149 0.959 . S
H2156 C2149 0.961 . S
H2157 C2149 0.960 . S
H2158 C2150 0.930 . S
H2159 C2151 0.929 . S
H2160 C2168 0.929 . S
H2161 C2170 0.930 . S
H2162 C2172 0.930 . S
H2163 C2175 0.929 . S
H2164 C2178 0.930 . S
H2165 C2180 0.960 . S
H2166 C2180 0.960 . S
H2167 C2180 0.960 . S
C2168 H2160 0.929 . S
C2168 C2169 1.377 . S
C2168 C2170 1.384 . S
C2169 C2168 1.377 . S
C2169 C2175 1.390 . S
C2170 H2161 0.930 . S
C2170 C2168 1.384 . S
C2170 C2171 1.372 . S
C2171 C2170 1.372 . S
C2171 C2172 1.400 . S
C2171 C2176 1.490 . S
C2172 H2162 0.930 . S
C2172 C2171 1.400 . S
C2172 C2175 1.386 . S
H2173 C2189 0.930 . S
H2174 C2190 0.931 . S
C2175 H2163 0.929 . S
C2175 C2169 1.390 . S
C2175 C2172 1.386 . S
C2176 C2171 1.490 . S
C2176 C2178 1.395 . S
C2176 C2179 1.403 . S
H2177 C2183 0.930 . S
C2178 H2164 0.930 . S
C2178 C2176 1.395 . S
C2178 C2181 1.403 . S
C2179 C2176 1.403 . S
C2179 C2180 1.524 . S
C2179 C2183 1.400 . S
C2180 H2165 0.960 . S
C2180 H2166 0.960 . S
C2180 H2167 0.960 . S
C2180 C2179 1.524 . S
C2181 C2178 1.403 . S
C2181 C2182 1.392 . S
C2181 C2185 1.495 . S
C2182 C2181 1.392 . S
C2182 C2183 1.385 . S
C2182 C2184 1.478 . S
C2183 H2177 0.930 . S
C2183 C2179 1.400 . S
C2183 C2182 1.385 . S
C2184 C2182 1.478 . S
C2184 C2186 1.381 . S
C2184 C2190 1.383 . S
C2185 C2181 1.495 . S
C2185 H2191 0.959 . S
C2185 H2192 0.961 . S
C2185 H2193 0.960 . S
C2186 C2184 1.381 . S
C2186 C2187 1.394 . S
C2186 H2194 0.930 . S
C2187 C2186 1.394 . S
C2187 C2188 1.383 . S
C2187 H2195 0.929 . S
C2188 C2187 1.383 . S
C2188 C2189 1.377 . S
C2189 H2173 0.930 . S
C2189 C2188 1.377 . S
C2189 C2190 1.379 . S
C2190 H2174 0.931 . S
C2190 C2184 1.383 . S
C2190 C2189 1.379 . S
H2191 C2185 0.959 . S
H2192 C2185 0.961 . S
H2193 C2185 0.960 . S
H2194 C2186 0.930 . S
H2195 C2187 0.929 . S
H2196 C2204 0.929 . S
H2197 C2206 0.930 . S
H2198 C2208 0.930 . S
H2199 C2211 0.929 . S
H2200 C2214 0.930 . S
H2201 C2216 0.960 . S
H2202 C2216 0.960 . S
H2203 C2216 0.960 . S
C2204 H2196 0.929 . S
C2204 C2205 1.377 . S
C2204 C2206 1.384 . S
C2205 C2204 1.377 . S
C2205 C2211 1.390 . S
C2206 H2197 0.930 . S
C2206 C2204 1.384 . S
C2206 C2207 1.372 . S
C2207 C2206 1.372 . S
C2207 C2208 1.400 . S
C2207 C2212 1.490 . S
C2208 H2198 0.930 . S
C2208 C2207 1.400 . S
C2208 C2211 1.386 . S
H2209 C2225 0.930 . S
H2210 C2226 0.931 . S
C2211 H2199 0.929 . S
C2211 C2205 1.390 . S
C2211 C2208 1.386 . S
C2212 C2207 1.490 . S
C2212 C2214 1.395 . S
C2212 C2215 1.403 . S
H2213 C2219 0.930 . S
C2214 H2200 0.930 . S
C2214 C2212 1.395 . S
C2214 C2217 1.403 . S
C2215 C2212 1.403 . S
C2215 C2216 1.524 . S
C2215 C2219 1.400 . S
C2216 H2201 0.960 . S
C2216 H2202 0.960 . S
C2216 H2203 0.960 . S
C2216 C2215 1.524 . S
C2217 C2214 1.403 . S
C2217 C2218 1.392 . S
C2217 C2221 1.495 . S
C2218 C2217 1.392 . S
C2218 C2219 1.385 . S
C2218 C2220 1.478 . S
C2219 H2213 0.930 . S
C2219 C2215 1.400 . S
C2219 C2218 1.385 . S
C2220 C2218 1.478 . S
C2220 C2222 1.381 . S
C2220 C2226 1.383 . S
C2221 C2217 1.495 . S
C2221 H2227 0.959 . S
C2221 H2228 0.961 . S
C2221 H2229 0.960 . S
C2222 C2220 1.381 . S
C2222 C2223 1.394 . S
C2222 H2230 0.930 . S
C2223 C2222 1.394 . S
C2223 C2224 1.383 . S
C2223 H2231 0.929 . S
C2224 C2223 1.383 . S
C2224 C2225 1.377 . S
C2225 H2209 0.930 . S
C2225 C2224 1.377 . S
C2225 C2226 1.379 . S
C2226 H2210 0.931 . S
C2226 C2220 1.383 . S
C2226 C2225 1.379 . S
H2227 C2221 0.959 . S
H2228 C2221 0.961 . S
H2229 C2221 0.960 . S
H2230 C2222 0.930 . S
H2231 C2223 0.929 . S
H2232 C2240 0.929 . S
H2233 C2242 0.930 . S
H2234 C2244 0.930 . S
H2235 C2247 0.929 . S
H2236 C2250 0.930 . S
H2237 C2252 0.960 . S
H2238 C2252 0.960 . S
H2239 C2252 0.960 . S
C2240 H2232 0.929 . S
C2240 C2241 1.377 . S
C2240 C2242 1.384 . S
C2241 C2240 1.377 . S
C2241 C2247 1.390 . S
C2242 H2233 0.930 . S
C2242 C2240 1.384 . S
C2242 C2243 1.372 . S
C2243 C2242 1.372 . S
C2243 C2244 1.400 . S
C2243 C2248 1.490 . S
C2244 H2234 0.930 . S
C2244 C2243 1.400 . S
C2244 C2247 1.386 . S
H2245 C2261 0.930 . S
H2246 C2262 0.931 . S
C2247 H2235 0.929 . S
C2247 C2241 1.390 . S
C2247 C2244 1.386 . S
C2248 C2243 1.490 . S
C2248 C2250 1.395 . S
C2248 C2251 1.403 . S
H2249 C2255 0.930 . S
C2250 H2236 0.930 . S
C2250 C2248 1.395 . S
C2250 C2253 1.403 . S
C2251 C2248 1.403 . S
C2251 C2252 1.524 . S
C2251 C2255 1.400 . S
C2252 H2237 0.960 . S
C2252 H2238 0.960 . S
C2252 H2239 0.960 . S
C2252 C2251 1.524 . S
C2253 C2250 1.403 . S
C2253 C2254 1.392 . S
C2253 C2257 1.495 . S
C2254 C2253 1.392 . S
C2254 C2255 1.385 . S
C2254 C2256 1.478 . S
C2255 H2249 0.930 . S
C2255 C2251 1.400 . S
C2255 C2254 1.385 . S
C2256 C2254 1.478 . S
C2256 C2258 1.381 . S
C2256 C2262 1.383 . S
C2257 C2253 1.495 . S
C2257 H2263 0.959 . S
C2257 H2264 0.961 . S
C2257 H2265 0.960 . S
C2258 C2256 1.381 . S
C2258 C2259 1.394 . S
C2258 H2266 0.930 . S
C2259 C2258 1.394 . S
C2259 C2260 1.383 . S
C2259 H2267 0.929 . S
C2260 C2259 1.383 . S
C2260 C2261 1.377 . S
C2261 H2245 0.930 . S
C2261 C2260 1.377 . S
C2261 C2262 1.379 . S
C2262 H2246 0.931 . S
C2262 C2256 1.383 . S
C2262 C2261 1.379 . S
H2263 C2257 0.959 . S
H2264 C2257 0.961 . S
H2265 C2257 0.960 . S
H2266 C2258 0.930 . S
H2267 C2259 0.929 . S
H2268 C2276 0.929 . S
H2269 C2278 0.930 . S
H2270 C2280 0.930 . S
H2271 C2283 0.929 . S
H2272 C2286 0.930 . S
H2273 C2288 0.960 . S
H2274 C2288 0.960 . S
H2275 C2288 0.960 . S
C2276 H2268 0.929 . S
C2276 C2277 1.377 . S
C2276 C2278 1.384 . S
C2277 C2276 1.377 . S
C2277 C2283 1.390 . S
C2278 H2269 0.930 . S
C2278 C2276 1.384 . S
C2278 C2279 1.372 . S
C2279 C2278 1.372 . S
C2279 C2280 1.400 . S
C2279 C2284 1.490 . S
C2280 H2270 0.930 . S
C2280 C2279 1.400 . S
C2280 C2283 1.386 . S
H2281 C2297 0.930 . S
H2282 C2298 0.931 . S
C2283 H2271 0.929 . S
C2283 C2277 1.390 . S
C2283 C2280 1.386 . S
C2284 C2279 1.490 . S
C2284 C2286 1.395 . S
C2284 C2287 1.403 . S
H2285 C2291 0.930 . S
C2286 H2272 0.930 . S
C2286 C2284 1.395 . S
C2286 C2289 1.403 . S
C2287 C2284 1.403 . S
C2287 C2288 1.524 . S
C2287 C2291 1.400 . S
C2288 H2273 0.960 . S
C2288 H2274 0.960 . S
C2288 H2275 0.960 . S
C2288 C2287 1.524 . S
C2289 C2286 1.403 . S
C2289 C2290 1.392 . S
C2289 C2293 1.495 . S
C2290 C2289 1.392 . S
C2290 C2291 1.385 . S
C2290 C2292 1.478 . S
C2291 H2285 0.930 . S
C2291 C2287 1.400 . S
C2291 C2290 1.385 . S
C2292 C2290 1.478 . S
C2292 C2294 1.381 . S
C2292 C2298 1.383 . S
C2293 C2289 1.495 . S
C2293 H2299 0.959 . S
C2293 H2300 0.961 . S
C2293 H2301 0.960 . S
C2294 C2292 1.381 . S
C2294 C2295 1.394 . S
C2294 H2302 0.930 . S
C2295 C2294 1.394 . S
C2295 C2296 1.383 . S
C2295 H2303 0.929 . S
C2296 C2295 1.383 . S
C2296 C2297 1.377 . S
C2297 H2281 0.930 . S
C2297 C2296 1.377 . S
C2297 C2298 1.379 . S
C2298 H2282 0.931 . S
C2298 C2292 1.383 . S
C2298 C2297 1.379 . S
H2299 C2293 0.959 . S
H2300 C2293 0.961 . S
H2301 C2293 0.960 . S
H2302 C2294 0.930 . S
H2303 C2295 0.929 . S
H2304 C2312 0.929 . S
H2305 C2314 0.930 . S
H2306 C2316 0.930 . S
H2307 C2319 0.929 . S
H2308 C2322 0.930 . S
H2309 C2324 0.960 . S
H2310 C2324 0.960 . S
H2311 C2324 0.960 . S
C2312 H2304 0.929 . S
C2312 C2313 1.377 . S
C2312 C2314 1.384 . S
C2313 C2312 1.377 . S
C2313 C2319 1.390 . S
C2314 H2305 0.930 . S
C2314 C2312 1.384 . S
C2314 C2315 1.372 . S
C2315 C2314 1.372 . S
C2315 C2316 1.400 . S
C2315 C2320 1.490 . S
C2316 H2306 0.930 . S
C2316 C2315 1.400 . S
C2316 C2319 1.386 . S
H2317 C2333 0.930 . S
H2318 C2334 0.931 . S
C2319 H2307 0.929 . S
C2319 C2313 1.390 . S
C2319 C2316 1.386 . S
C2320 C2315 1.490 . S
C2320 C2322 1.395 . S
C2320 C2323 1.403 . S
H2321 C2327 0.930 . S
C2322 H2308 0.930 . S
C2322 C2320 1.395 . S
C2322 C2325 1.403 . S
C2323 C2320 1.403 . S
C2323 C2324 1.524 . S
C2323 C2327 1.400 . S
C2324 H2309 0.960 . S
C2324 H2310 0.960 . S
C2324 H2311 0.960 . S
C2324 C2323 1.524 . S
C2325 C2322 1.403 . S
C2325 C2326 1.392 . S
C2325 C2329 1.495 . S
C2326 C2325 1.392 . S
C2326 C2327 1.385 . S
C2326 C2328 1.478 . S
C2327 H2321 0.930 . S
C2327 C2323 1.400 . S
C2327 C2326 1.385 . S
C2328 C2326 1.478 . S
C2328 C2330 1.381 . S
C2328 C2334 1.383 . S
C2329 C2325 1.495 . S
C2329 H2335 0.959 . S
C2329 H2336 0.961 . S
C2329 H2337 0.960 . S
C2330 C2328 1.381 . S
C2330 C2331 1.394 . S
C2330 H2338 0.930 . S
C2331 C2330 1.394 . S
C2331 C2332 1.383 . S
C2331 H2339 0.929 . S
C2332 C2331 1.383 . S
C2332 C2333 1.377 . S
C2333 H2317 0.930 . S
C2333 C2332 1.377 . S
C2333 C2334 1.379 . S
C2334 H2318 0.931 . S
C2334 C2328 1.383 . S
C2334 C2333 1.379 . S
H2335 C2329 0.959 . S
H2336 C2329 0.961 . S
H2337 C2329 0.960 . S
H2338 C2330 0.930 . S
H2339 C2331 0.929 . S
H2340 C2348 0.929 . S
H2341 C2350 0.930 . S
H2342 C2352 0.930 . S
H2343 C2355 0.929 . S
H2344 C2358 0.930 . S
H2345 C2360 0.960 . S
H2346 C2360 0.960 . S
H2347 C2360 0.960 . S
C2348 H2340 0.929 . S
C2348 C2349 1.377 . S
C2348 C2350 1.384 . S
C2349 C2348 1.377 . S
C2349 C2355 1.390 . S
C2350 H2341 0.930 . S
C2350 C2348 1.384 . S
C2350 C2351 1.372 . S
C2351 C2350 1.372 . S
C2351 C2352 1.400 . S
C2351 C2356 1.490 . S
C2352 H2342 0.930 . S
C2352 C2351 1.400 . S
C2352 C2355 1.386 . S
H2353 C2369 0.930 . S
H2354 C2370 0.931 . S
C2355 H2343 0.929 . S
C2355 C2349 1.390 . S
C2355 C2352 1.386 . S
C2356 C2351 1.490 . S
C2356 C2358 1.395 . S
C2356 C2359 1.403 . S
H2357 C2363 0.930 . S
C2358 H2344 0.930 . S
C2358 C2356 1.395 . S
C2358 C2361 1.403 . S
C2359 C2356 1.403 . S
C2359 C2360 1.524 . S
C2359 C2363 1.400 . S
C2360 H2345 0.960 . S
C2360 H2346 0.960 . S
C2360 H2347 0.960 . S
C2360 C2359 1.524 . S
C2361 C2358 1.403 . S
C2361 C2362 1.392 . S
C2361 C2365 1.495 . S
C2362 C2361 1.392 . S
C2362 C2363 1.385 . S
C2362 C2364 1.478 . S
C2363 H2357 0.930 . S
C2363 C2359 1.400 . S
C2363 C2362 1.385 . S
C2364 C2362 1.478 . S
C2364 C2366 1.381 . S
C2364 C2370 1.383 . S
C2365 C2361 1.495 . S
C2365 H2371 0.959 . S
C2365 H2372 0.961 . S
C2365 H2373 0.960 . S
C2366 C2364 1.381 . S
C2366 C2367 1.394 . S
C2366 H2374 0.930 . S
C2367 C2366 1.394 . S
C2367 C2368 1.383 . S
C2367 H2375 0.929 . S
C2368 C2367 1.383 . S
C2368 C2369 1.377 . S
C2369 H2353 0.930 . S
C2369 C2368 1.377 . S
C2369 C2370 1.379 . S
C2370 H2354 0.931 . S
C2370 C2364 1.383 . S
C2370 C2369 1.379 . S
H2371 C2365 0.959 . S
H2372 C2365 0.961 . S
H2373 C2365 0.960 . S
H2374 C2366 0.930 . S
H2375 C2367 0.929 . S
H2376 C2384 0.929 . S
H2377 C2386 0.930 . S
H2378 C2388 0.930 . S
H2379 C2391 0.929 . S
H2380 C2394 0.930 . S
H2381 C2396 0.960 . S
H2382 C2396 0.960 . S
H2383 C2396 0.960 . S
C2384 H2376 0.929 . S
C2384 C2385 1.377 . S
C2384 C2386 1.384 . S
C2385 C2384 1.377 . S
C2385 C2391 1.390 . S
C2386 H2377 0.930 . S
C2386 C2384 1.384 . S
C2386 C2387 1.372 . S
C2387 C2386 1.372 . S
C2387 C2388 1.400 . S
C2387 C2392 1.490 . S
C2388 H2378 0.930 . S
C2388 C2387 1.400 . S
C2388 C2391 1.386 . S
H2389 C2405 0.930 . S
H2390 C2406 0.931 . S
C2391 H2379 0.929 . S
C2391 C2385 1.390 . S
C2391 C2388 1.386 . S
C2392 C2387 1.490 . S
C2392 C2394 1.395 . S
C2392 C2395 1.403 . S
H2393 C2399 0.930 . S
C2394 H2380 0.930 . S
C2394 C2392 1.395 . S
C2394 C2397 1.403 . S
C2395 C2392 1.403 . S
C2395 C2396 1.524 . S
C2395 C2399 1.400 . S
C2396 H2381 0.960 . S
C2396 H2382 0.960 . S
C2396 H2383 0.960 . S
C2396 C2395 1.524 . S
C2397 C2394 1.403 . S
C2397 C2398 1.392 . S
C2397 C2401 1.495 . S
C2398 C2397 1.392 . S
C2398 C2399 1.385 . S
C2398 C2400 1.478 . S
C2399 H2393 0.930 . S
C2399 C2395 1.400 . S
C2399 C2398 1.385 . S
C2400 C2398 1.478 . S
C2400 C2402 1.381 . S
C2400 C2406 1.383 . S
C2401 C2397 1.495 . S
C2401 H2407 0.959 . S
C2401 H2408 0.961 . S
C2401 H2409 0.960 . S
C2402 C2400 1.381 . S
C2402 C2403 1.394 . S
C2402 H2410 0.930 . S
C2403 C2402 1.394 . S
C2403 C2404 1.383 . S
C2403 H2411 0.929 . S
C2404 C2403 1.383 . S
C2404 C2405 1.377 . S
C2405 H2389 0.930 . S
C2405 C2404 1.377 . S
C2405 C2406 1.379 . S
C2406 H2390 0.931 . S
C2406 C2400 1.383 . S
C2406 C2405 1.379 . S
H2407 C2401 0.959 . S
H2408 C2401 0.961 . S
H2409 C2401 0.960 . S
H2410 C2402 0.930 . S
H2411 C2403 0.929 . S
H2412 C2420 0.929 . S
H2413 C2422 0.930 . S
H2414 C2424 0.930 . S
H2415 C2427 0.929 . S
H2416 C2430 0.930 . S
H2417 C2432 0.960 . S
H2418 C2432 0.960 . S
H2419 C2432 0.960 . S
C2420 H2412 0.929 . S
C2420 C2421 1.377 . S
C2420 C2422 1.384 . S
C2421 C2420 1.377 . S
C2421 C2427 1.390 . S
C2422 H2413 0.930 . S
C2422 C2420 1.384 . S
C2422 C2423 1.372 . S
C2423 C2422 1.372 . S
C2423 C2424 1.400 . S
C2423 C2428 1.490 . S
C2424 H2414 0.930 . S
C2424 C2423 1.400 . S
C2424 C2427 1.386 . S
H2425 C2441 0.930 . S
H2426 C2442 0.931 . S
C2427 H2415 0.929 . S
C2427 C2421 1.390 . S
C2427 C2424 1.386 . S
C2428 C2423 1.490 . S
C2428 C2430 1.395 . S
C2428 C2431 1.403 . S
H2429 C2435 0.930 . S
C2430 H2416 0.930 . S
C2430 C2428 1.395 . S
C2430 C2433 1.403 . S
C2431 C2428 1.403 . S
C2431 C2432 1.524 . S
C2431 C2435 1.400 . S
C2432 H2417 0.960 . S
C2432 H2418 0.960 . S
C2432 H2419 0.960 . S
C2432 C2431 1.524 . S
C2433 C2430 1.403 . S
C2433 C2434 1.392 . S
C2433 C2437 1.495 . S
C2434 C2433 1.392 . S
C2434 C2435 1.385 . S
C2434 C2436 1.478 . S
C2435 H2429 0.930 . S
C2435 C2431 1.400 . S
C2435 C2434 1.385 . S
C2436 C2434 1.478 . S
C2436 C2438 1.381 . S
C2436 C2442 1.383 . S
C2437 C2433 1.495 . S
C2437 H2443 0.959 . S
C2437 H2444 0.961 . S
C2437 H2445 0.960 . S
C2438 C2436 1.381 . S
C2438 C2439 1.394 . S
C2438 H2446 0.930 . S
C2439 C2438 1.394 . S
C2439 C2440 1.383 . S
C2439 H2447 0.929 . S
C2440 C2439 1.383 . S
C2440 C2441 1.377 . S
C2441 H2425 0.930 . S
C2441 C2440 1.377 . S
C2441 C2442 1.379 . S
C2442 H2426 0.931 . S
C2442 C2436 1.383 . S
C2442 C2441 1.379 . S
H2443 C2437 0.959 . S
H2444 C2437 0.961 . S
H2445 C2437 0.960 . S
H2446 C2438 0.930 . S
H2447 C2439 0.929 . S
H2448 C2456 0.929 . S
H2449 C2458 0.930 . S
H2450 C2460 0.930 . S
H2451 C2463 0.929 . S
H2452 C2466 0.930 . S
H2453 C2468 0.960 . S
H2454 C2468 0.960 . S
H2455 C2468 0.960 . S
C2456 H2448 0.929 . S
C2456 C2457 1.377 . S
C2456 C2458 1.384 . S
C2457 C2456 1.377 . S
C2457 C2463 1.390 . S
C2458 H2449 0.930 . S
C2458 C2456 1.384 . S
C2458 C2459 1.372 . S
C2459 C2458 1.372 . S
C2459 C2460 1.400 . S
C2459 C2464 1.490 . S
C2460 H2450 0.930 . S
C2460 C2459 1.400 . S
C2460 C2463 1.386 . S
H2461 C2477 0.930 . S
H2462 C2478 0.931 . S
C2463 H2451 0.929 . S
C2463 C2457 1.390 . S
C2463 C2460 1.386 . S
C2464 C2459 1.490 . S
C2464 C2466 1.395 . S
C2464 C2467 1.403 . S
H2465 C2471 0.930 . S
C2466 H2452 0.930 . S
C2466 C2464 1.395 . S
C2466 C2469 1.403 . S
C2467 C2464 1.403 . S
C2467 C2468 1.524 . S
C2467 C2471 1.400 . S
C2468 H2453 0.960 . S
C2468 H2454 0.960 . S
C2468 H2455 0.960 . S
C2468 C2467 1.524 . S
C2469 C2466 1.403 . S
C2469 C2470 1.392 . S
C2469 C2473 1.495 . S
C2470 C2469 1.392 . S
C2470 C2471 1.385 . S
C2470 C2472 1.478 . S
C2471 H2465 0.930 . S
C2471 C2467 1.400 . S
C2471 C2470 1.385 . S
C2472 C2470 1.478 . S
C2472 C2474 1.381 . S
C2472 C2478 1.383 . S
C2473 C2469 1.495 . S
C2473 H2479 0.959 . S
C2473 H2480 0.961 . S
C2473 H2481 0.960 . S
C2474 C2472 1.381 . S
C2474 C2475 1.394 . S
C2474 H2482 0.930 . S
C2475 C2474 1.394 . S
C2475 C2476 1.383 . S
C2475 H2483 0.929 . S
C2476 C2475 1.383 . S
C2476 C2477 1.377 . S
C2477 H2461 0.930 . S
C2477 C2476 1.377 . S
C2477 C2478 1.379 . S
C2478 H2462 0.931 . S
C2478 C2472 1.383 . S
C2478 C2477 1.379 . S
H2479 C2473 0.959 . S
H2480 C2473 0.961 . S
H2481 C2473 0.960 . S
H2482 C2474 0.930 . S
H2483 C2475 0.929 . S
H2484 C2492 0.929 . S
H2485 C2494 0.930 . S
H2486 C2496 0.930 . S
H2487 C2499 0.929 . S
H2488 C2502 0.930 . S
H2489 C2504 0.960 . S
H2490 C2504 0.960 . S
H2491 C2504 0.960 . S
C2492 H2484 0.929 . S
C2492 C2493 1.377 . S
C2492 C2494 1.384 . S
C2493 C2492 1.377 . S
C2493 C2499 1.390 . S
C2494 H2485 0.930 . S
C2494 C2492 1.384 . S
C2494 C2495 1.372 . S
C2495 C2494 1.372 . S
C2495 C2496 1.400 . S
C2495 C2500 1.490 . S
C2496 H2486 0.930 . S
C2496 C2495 1.400 . S
C2496 C2499 1.386 . S
H2497 C2513 0.930 . S
H2498 C2514 0.931 . S
C2499 H2487 0.929 . S
C2499 C2493 1.390 . S
C2499 C2496 1.386 . S
C2500 C2495 1.490 . S
C2500 C2502 1.395 . S
C2500 C2503 1.403 . S
H2501 C2507 0.930 . S
C2502 H2488 0.930 . S
C2502 C2500 1.395 . S
C2502 C2505 1.403 . S
C2503 C2500 1.403 . S
C2503 C2504 1.524 . S
C2503 C2507 1.400 . S
C2504 H2489 0.960 . S
C2504 H2490 0.960 . S
C2504 H2491 0.960 . S
C2504 C2503 1.524 . S
C2505 C2502 1.403 . S
C2505 C2506 1.392 . S
C2505 C2509 1.495 . S
C2506 C2505 1.392 . S
C2506 C2507 1.385 . S
C2506 C2508 1.478 . S
C2507 H2501 0.930 . S
C2507 C2503 1.400 . S
C2507 C2506 1.385 . S
C2508 C2506 1.478 . S
C2508 C2510 1.381 . S
C2508 C2514 1.383 . S
C2509 C2505 1.495 . S
C2509 H2515 0.959 . S
C2509 H2516 0.961 . S
C2509 H2517 0.960 . S
C2510 C2508 1.381 . S
C2510 C2511 1.394 . S
C2510 H2518 0.930 . S
C2511 C2510 1.394 . S
C2511 C2512 1.383 . S
C2511 H2519 0.929 . S
C2512 C2511 1.383 . S
C2512 C2513 1.377 . S
C2513 H2497 0.930 . S
C2513 C2512 1.377 . S
C2513 C2514 1.379 . S
C2514 H2498 0.931 . S
C2514 C2508 1.383 . S
C2514 C2513 1.379 . S
H2515 C2509 0.959 . S
H2516 C2509 0.961 . S
H2517 C2509 0.960 . S
H2518 C2510 0.930 . S
H2519 C2511 0.929 . S
H2520 C2528 0.929 . S
H2521 C2530 0.930 . S
H2522 C2532 0.930 . S
H2523 C2535 0.929 . S
H2524 C2538 0.930 . S
H2525 C2540 0.960 . S
H2526 C2540 0.960 . S
H2527 C2540 0.960 . S
C2528 H2520 0.929 . S
C2528 C2529 1.377 . S
C2528 C2530 1.384 . S
C2529 C2528 1.377 . S
C2529 C2535 1.390 . S
C2530 H2521 0.930 . S
C2530 C2528 1.384 . S
C2530 C2531 1.372 . S
C2531 C2530 1.372 . S
C2531 C2532 1.400 . S
C2531 C2536 1.490 . S
C2532 H2522 0.930 . S
C2532 C2531 1.400 . S
C2532 C2535 1.386 . S
H2533 C2549 0.930 . S
H2534 C2550 0.931 . S
C2535 H2523 0.929 . S
C2535 C2529 1.390 . S
C2535 C2532 1.386 . S
C2536 C2531 1.490 . S
C2536 C2538 1.395 . S
C2536 C2539 1.403 . S
H2537 C2543 0.930 . S
C2538 H2524 0.930 . S
C2538 C2536 1.395 . S
C2538 C2541 1.403 . S
C2539 C2536 1.403 . S
C2539 C2540 1.524 . S
C2539 C2543 1.400 . S
C2540 H2525 0.960 . S
C2540 H2526 0.960 . S
C2540 H2527 0.960 . S
C2540 C2539 1.524 . S
C2541 C2538 1.403 . S
C2541 C2542 1.392 . S
C2541 C2545 1.495 . S
C2542 C2541 1.392 . S
C2542 C2543 1.385 . S
C2542 C2544 1.478 . S
C2543 H2537 0.930 . S
C2543 C2539 1.400 . S
C2543 C2542 1.385 . S
C2544 C2542 1.478 . S
C2544 C2546 1.381 . S
C2544 C2550 1.383 . S
C2545 C2541 1.495 . S
C2545 H2551 0.959 . S
C2545 H2552 0.961 . S
C2545 H2553 0.960 . S
C2546 C2544 1.381 . S
C2546 C2547 1.394 . S
C2546 H2554 0.930 . S
C2547 C2546 1.394 . S
C2547 C2548 1.383 . S
C2547 H2555 0.929 . S
C2548 C2547 1.383 . S
C2548 C2549 1.377 . S
C2549 H2533 0.930 . S
C2549 C2548 1.377 . S
C2549 C2550 1.379 . S
C2550 H2534 0.931 . S
C2550 C2544 1.383 . S
C2550 C2549 1.379 . S
H2551 C2545 0.959 . S
H2552 C2545 0.961 . S
H2553 C2545 0.960 . S
H2554 C2546 0.930 . S
H2555 C2547 0.929 . S
H2556 C2564 0.929 . S
H2557 C2566 0.930 . S
H2558 C2568 0.930 . S
H2559 C2571 0.929 . S
H2560 C2574 0.930 . S
H2561 C2576 0.960 . S
H2562 C2576 0.960 . S
H2563 C2576 0.960 . S
C2564 H2556 0.929 . S
C2564 C2565 1.377 . S
C2564 C2566 1.384 . S
C2565 C2564 1.377 . S
C2565 C2571 1.390 . S
C2566 H2557 0.930 . S
C2566 C2564 1.384 . S
C2566 C2567 1.372 . S
C2567 C2566 1.372 . S
C2567 C2568 1.400 . S
C2567 C2572 1.490 . S
C2568 H2558 0.930 . S
C2568 C2567 1.400 . S
C2568 C2571 1.386 . S
H2569 C2585 0.930 . S
H2570 C2586 0.931 . S
C2571 H2559 0.929 . S
C2571 C2565 1.390 . S
C2571 C2568 1.386 . S
C2572 C2567 1.490 . S
C2572 C2574 1.395 . S
C2572 C2575 1.403 . S
H2573 C2579 0.930 . S
C2574 H2560 0.930 . S
C2574 C2572 1.395 . S
C2574 C2577 1.403 . S
C2575 C2572 1.403 . S
C2575 C2576 1.524 . S
C2575 C2579 1.400 . S
C2576 H2561 0.960 . S
C2576 H2562 0.960 . S
C2576 H2563 0.960 . S
C2576 C2575 1.524 . S
C2577 C2574 1.403 . S
C2577 C2578 1.392 . S
C2577 C2581 1.495 . S
C2578 C2577 1.392 . S
C2578 C2579 1.385 . S
C2578 C2580 1.478 . S
C2579 H2573 0.930 . S
C2579 C2575 1.400 . S
C2579 C2578 1.385 . S
C2580 C2578 1.478 . S
C2580 C2582 1.381 . S
C2580 C2586 1.383 . S
C2581 C2577 1.495 . S
C2581 H2587 0.959 . S
C2581 H2588 0.961 . S
C2581 H2589 0.960 . S
C2582 C2580 1.381 . S
C2582 C2583 1.394 . S
C2582 H2590 0.930 . S
C2583 C2582 1.394 . S
C2583 C2584 1.383 . S
C2583 H2591 0.929 . S
C2584 C2583 1.383 . S
C2584 C2585 1.377 . S
C2585 H2569 0.930 . S
C2585 C2584 1.377 . S
C2585 C2586 1.379 . S
C2586 H2570 0.931 . S
C2586 C2580 1.383 . S
C2586 C2585 1.379 . S
H2587 C2581 0.959 . S
H2588 C2581 0.961 . S
H2589 C2581 0.960 . S
H2590 C2582 0.930 . S
H2591 C2583 0.929 . S
C873 C398 1.354 . S
C892 C14 1.327 . S
C909 C50 1.308 . S
C928 C290 1.357 . S
C945 C86 1.310 . S
C964 C326 1.352 . S
C981 C122 1.309 . S
C1000 C362 1.355 . S
C1017 C470 1.358 . S
C1036 C158 1.282 . S
C1053 C194 1.311 . S
C1072 C506 1.363 . S
C1089 C542 1.355 . S
C1108 C230 1.318 . S
C1125 C434 1.355 . S
C1144 C266 1.339 . S
C1161 C182 1.355 . S
C1180 C302 1.307 . S
C1197 C218 1.358 . S
C1216 C338 1.293 . S
C1233 C374 1.318 . S
C1252 C254 1.353 . S
C1269 C146 1.357 . S
C1288 C410 1.323 . S
C1305 C110 1.354 . S
C1324 C446 1.333 . S
C1341 C482 1.319 . S
C1360 C2 1.349 . S
C1377 C518 1.320 . S
C1396 C38 1.347 . S
C1413 C554 1.317 . S
C1432 C74 1.344 . S
C1449 C590 1.308 . S
C1468 C830 1.358 . S
C1485 C722 1.355 . S
C1504 C626 1.321 . S
C1521 C662 1.308 . S
C1540 C614 1.363 . S
C1557 C698 1.308 . S
C1576 C650 1.357 . S
C1593 C686 1.355 . S
C1612 C734 1.319 . S
C1629 C770 1.313 . S
C1648 C794 1.361 . S
C1665 C578 1.354 . S
C1684 C806 1.323 . S
C1701 C758 1.357 . S
C1720 C842 1.328 . S
C1737 C3 1.505 . S
C1756 C219 1.498 . S
C1773 C39 1.505 . S
C1792 C255 1.500 . S
C1809 C75 1.504 . S
C1828 C147 1.503 . S
C1845 C183 1.504 . S
C1864 C111 1.506 . S
C1881 C363 1.506 . S
C1900 C291 1.495 . S
C1917 C327 1.504 . S
C1936 C399 1.506 . S
C1953 C435 1.503 . S
C1972 C507 1.508 . S
C1989 C543 1.503 . S
C2008 C471 1.507 . S
C2025 C615 1.505 . S
C2044 C579 1.497 . S
C2061 C651 1.506 . S
C2080 C831 1.496 . S
C2097 C687 1.503 . S
C2116 C759 1.507 . S
C2133 C723 1.503 . S
C2152 C795 1.507 . S
C2169 C4 0.846 . S
C2188 C184 0.859 . S
C2205 C40 0.849 . S
C2224 C220 0.845 . S
C2241 C76 0.848 . S
C2260 C256 0.848 . S
C2277 C148 0.850 . S
C2296 C112 0.841 . S
C2313 C292 0.845 . S
C2332 C832 0.862 . S
C2349 C328 0.850 . S
C2368 C760 0.841 . S
C2385 C796 0.846 . S
C2404 C364 0.860 . S
C2421 C400 0.846 . S
C2440 C580 0.861 . S
C2457 C724 0.846 . S
C2476 C436 0.861 . S
C2493 C616 0.851 . S
C2512 C472 0.834 . S
C2529 C508 0.849 . S
C2548 C652 0.847 . S
C2565 C688 0.851 . S
C2584 C544 0.837 . S
