# Generated by pormake.
# Topology ulh, (4)-cn, num edge types: 1
# Building blocks:
#     Node 0, Type 0, BuildingBlock: NAWXER_clean_sbu_0, # of connection points: 4
#     Node 1, Type 0, BuildingBlock: NAWXER_clean_sbu_0, # of connection points: 4
#     Node 2, Type 0, BuildingBlock: NAWXER_clean_sbu_0, # of connection points: 4
#     Node 3, Type 0, BuildingBlock: NAWXER_clean_sbu_0, # of connection points: 4
#     Node 4, Type 0, BuildingBlock: NAWXER_clean_sbu_0, # of connection points: 4
#     Node 5, Type 0, BuildingBlock: NAWXER_clean_sbu_0, # of connection points: 4
#     Node 6, Type 0, BuildingBlock: NAWXER_clean_sbu_0, # of connection points: 4
#     Node 7, Type 0, BuildingBlock: NAWXER_clean_sbu_0, # of connection points: 4
#     Node 8, Type 0, BuildingBlock: NAWXER_clean_sbu_0, # of connection points: 4
#     Node 9, Type 0, BuildingBlock: NAWXER_clean_sbu_0, # of connection points: 4
#     Node 10, Type 0, BuildingBlock: NAWXER_clean_sbu_0, # of connection points: 4
#     Node 11, Type 0, BuildingBlock: NAWXER_clean_sbu_0, # of connection points: 4
#     Node 12, Type 0, BuildingBlock: NAWXER_clean_sbu_0, # of connection points: 4
#     Node 13, Type 0, BuildingBlock: NAWXER_clean_sbu_0, # of connection points: 4
#     Node 14, Type 0, BuildingBlock: NAWXER_clean_sbu_0, # of connection points: 4
#     Node 15, Type 0, BuildingBlock: NAWXER_clean_sbu_0, # of connection points: 4
#     Node 16, Type 0, BuildingBlock: NAWXER_clean_sbu_0, # of connection points: 4
#     Node 17, Type 0, BuildingBlock: NAWXER_clean_sbu_0, # of connection points: 4
#     Node 18, Type 0, BuildingBlock: NAWXER_clean_sbu_0, # of connection points: 4
#     Node 19, Type 0, BuildingBlock: NAWXER_clean_sbu_0, # of connection points: 4
#     Node 20, Type 0, BuildingBlock: NAWXER_clean_sbu_0, # of connection points: 4
#     Node 21, Type 0, BuildingBlock: NAWXER_clean_sbu_0, # of connection points: 4
#     Node 22, Type 0, BuildingBlock: NAWXER_clean_sbu_0, # of connection points: 4
#     Node 23, Type 0, BuildingBlock: NAWXER_clean_sbu_0, # of connection points: 4
#     Node 24, Type 0, BuildingBlock: NAWXER_clean_sbu_0, # of connection points: 4
#     Node 25, Type 0, BuildingBlock: NAWXER_clean_sbu_0, # of connection points: 4
#     Node 26, Type 0, BuildingBlock: NAWXER_clean_sbu_0, # of connection points: 4
#     Node 27, Type 0, BuildingBlock: NAWXER_clean_sbu_0, # of connection points: 4
#     Node 28, Type 0, BuildingBlock: NAWXER_clean_sbu_0, # of connection points: 4
#     Node 29, Type 0, BuildingBlock: NAWXER_clean_sbu_0, # of connection points: 4
#     Node 30, Type 0, BuildingBlock: NAWXER_clean_sbu_0, # of connection points: 4
#     Node 31, Type 0, BuildingBlock: NAWXER_clean_sbu_0, # of connection points: 4
#     Node 32, Type 0, BuildingBlock: NAWXER_clean_sbu_0, # of connection points: 4
#     Node 33, Type 0, BuildingBlock: NAWXER_clean_sbu_0, # of connection points: 4
#     Node 34, Type 0, BuildingBlock: NAWXER_clean_sbu_0, # of connection points: 4
#     Node 35, Type 0, BuildingBlock: NAWXER_clean_sbu_0, # of connection points: 4
#     Node 36, Type 0, BuildingBlock: NAWXER_clean_sbu_0, # of connection points: 4
#     Node 37, Type 0, BuildingBlock: NAWXER_clean_sbu_0, # of connection points: 4
#     Node 38, Type 0, BuildingBlock: NAWXER_clean_sbu_0, # of connection points: 4
#     Node 39, Type 0, BuildingBlock: NAWXER_clean_sbu_0, # of connection points: 4
#     Node 40, Type 0, BuildingBlock: NAWXER_clean_sbu_0, # of connection points: 4
#     Node 41, Type 0, BuildingBlock: NAWXER_clean_sbu_0, # of connection points: 4
#     Node 42, Type 0, BuildingBlock: NAWXER_clean_sbu_0, # of connection points: 4
#     Node 43, Type 0, BuildingBlock: NAWXER_clean_sbu_0, # of connection points: 4
#     Node 44, Type 0, BuildingBlock: NAWXER_clean_sbu_0, # of connection points: 4
#     Node 45, Type 0, BuildingBlock: NAWXER_clean_sbu_0, # of connection points: 4
#     Node 46, Type 0, BuildingBlock: NAWXER_clean_sbu_0, # of connection points: 4
#     Node 47, Type 0, BuildingBlock: NAWXER_clean_sbu_0, # of connection points: 4
#     Node 48, Type 0, BuildingBlock: NAWXER_clean_sbu_0, # of connection points: 4
#     Node 49, Type 0, BuildingBlock: NAWXER_clean_sbu_0, # of connection points: 4
#     Node 50, Type 0, BuildingBlock: NAWXER_clean_sbu_0, # of connection points: 4
#     Node 51, Type 0, BuildingBlock: NAWXER_clean_sbu_0, # of connection points: 4
#     Node 52, Type 0, BuildingBlock: NAWXER_clean_sbu_0, # of connection points: 4
#     Node 53, Type 0, BuildingBlock: NAWXER_clean_sbu_0, # of connection points: 4
#     Node 54, Type 0, BuildingBlock: NAWXER_clean_sbu_0, # of connection points: 4
#     Node 55, Type 0, BuildingBlock: NAWXER_clean_sbu_0, # of connection points: 4
#     Node 56, Type 0, BuildingBlock: NAWXER_clean_sbu_0, # of connection points: 4
#     Node 57, Type 0, BuildingBlock: NAWXER_clean_sbu_0, # of connection points: 4
#     Node 58, Type 0, BuildingBlock: NAWXER_clean_sbu_0, # of connection points: 4
#     Node 59, Type 0, BuildingBlock: NAWXER_clean_sbu_0, # of connection points: 4
#     Node 60, Type 0, BuildingBlock: NAWXER_clean_sbu_0, # of connection points: 4
#     Node 61, Type 0, BuildingBlock: NAWXER_clean_sbu_0, # of connection points: 4
#     Node 62, Type 0, BuildingBlock: NAWXER_clean_sbu_0, # of connection points: 4
#     Node 63, Type 0, BuildingBlock: NAWXER_clean_sbu_0, # of connection points: 4
#     Node 64, Type 0, BuildingBlock: NAWXER_clean_sbu_0, # of connection points: 4
#     Node 65, Type 0, BuildingBlock: NAWXER_clean_sbu_0, # of connection points: 4
#     Node 66, Type 0, BuildingBlock: NAWXER_clean_sbu_0, # of connection points: 4
#     Node 67, Type 0, BuildingBlock: NAWXER_clean_sbu_0, # of connection points: 4
#     Node 68, Type 0, BuildingBlock: NAWXER_clean_sbu_0, # of connection points: 4
#     Node 69, Type 0, BuildingBlock: NAWXER_clean_sbu_0, # of connection points: 4
#     Node 70, Type 0, BuildingBlock: NAWXER_clean_sbu_0, # of connection points: 4
#     Node 71, Type 0, BuildingBlock: NAWXER_clean_sbu_0, # of connection points: 4
#     Node 72, Type 0, BuildingBlock: NAWXER_clean_sbu_0, # of connection points: 4
#     Node 73, Type 0, BuildingBlock: NAWXER_clean_sbu_0, # of connection points: 4
#     Node 74, Type 0, BuildingBlock: NAWXER_clean_sbu_0, # of connection points: 4
#     Node 75, Type 0, BuildingBlock: NAWXER_clean_sbu_0, # of connection points: 4
#     Node 76, Type 0, BuildingBlock: NAWXER_clean_sbu_0, # of connection points: 4
#     Node 77, Type 0, BuildingBlock: NAWXER_clean_sbu_0, # of connection points: 4
#     Node 78, Type 0, BuildingBlock: NAWXER_clean_sbu_0, # of connection points: 4
#     Node 79, Type 0, BuildingBlock: NAWXER_clean_sbu_0, # of connection points: 4
#     Node 80, Type 0, BuildingBlock: NAWXER_clean_sbu_0, # of connection points: 4
#     Node 81, Type 0, BuildingBlock: NAWXER_clean_sbu_0, # of connection points: 4
#     Node 82, Type 0, BuildingBlock: NAWXER_clean_sbu_0, # of connection points: 4
#     Node 83, Type 0, BuildingBlock: NAWXER_clean_sbu_0, # of connection points: 4
#     Node 84, Type 0, BuildingBlock: NAWXER_clean_sbu_0, # of connection points: 4
#     Node 85, Type 0, BuildingBlock: NAWXER_clean_sbu_0, # of connection points: 4
#     Node 86, Type 0, BuildingBlock: NAWXER_clean_sbu_0, # of connection points: 4
#     Node 87, Type 0, BuildingBlock: NAWXER_clean_sbu_0, # of connection points: 4
#     Node 88, Type 0, BuildingBlock: NAWXER_clean_sbu_0, # of connection points: 4
#     Node 89, Type 0, BuildingBlock: NAWXER_clean_sbu_0, # of connection points: 4
#     Node 90, Type 0, BuildingBlock: NAWXER_clean_sbu_0, # of connection points: 4
#     Node 91, Type 0, BuildingBlock: NAWXER_clean_sbu_0, # of connection points: 4
#     Node 92, Type 0, BuildingBlock: NAWXER_clean_sbu_0, # of connection points: 4
#     Node 93, Type 0, BuildingBlock: NAWXER_clean_sbu_0, # of connection points: 4
#     Node 94, Type 0, BuildingBlock: NAWXER_clean_sbu_0, # of connection points: 4
#     Node 95, Type 0, BuildingBlock: NAWXER_clean_sbu_0, # of connection points: 4
#     Edge 96, Type (0, 0), BuildingBlock: OJICUG_clean_linker_0, # of connection points: 2
#     Edge 97, Type (0, 0), BuildingBlock: OJICUG_clean_linker_0, # of connection points: 2
#     Edge 98, Type (0, 0), BuildingBlock: OJICUG_clean_linker_0, # of connection points: 2
#     Edge 99, Type (0, 0), BuildingBlock: OJICUG_clean_linker_0, # of connection points: 2
#     Edge 100, Type (0, 0), BuildingBlock: OJICUG_clean_linker_0, # of connection points: 2
#     Edge 101, Type (0, 0), BuildingBlock: OJICUG_clean_linker_0, # of connection points: 2
#     Edge 102, Type (0, 0), BuildingBlock: OJICUG_clean_linker_0, # of connection points: 2
#     Edge 103, Type (0, 0), BuildingBlock: OJICUG_clean_linker_0, # of connection points: 2
#     Edge 104, Type (0, 0), BuildingBlock: OJICUG_clean_linker_0, # of connection points: 2
#     Edge 105, Type (0, 0), BuildingBlock: OJICUG_clean_linker_0, # of connection points: 2
#     Edge 106, Type (0, 0), BuildingBlock: OJICUG_clean_linker_0, # of connection points: 2
#     Edge 107, Type (0, 0), BuildingBlock: OJICUG_clean_linker_0, # of connection points: 2
#     Edge 108, Type (0, 0), BuildingBlock: OJICUG_clean_linker_0, # of connection points: 2
#     Edge 109, Type (0, 0), BuildingBlock: OJICUG_clean_linker_0, # of connection points: 2
#     Edge 110, Type (0, 0), BuildingBlock: OJICUG_clean_linker_0, # of connection points: 2
#     Edge 111, Type (0, 0), BuildingBlock: OJICUG_clean_linker_0, # of connection points: 2
#     Edge 112, Type (0, 0), BuildingBlock: OJICUG_clean_linker_0, # of connection points: 2
#     Edge 113, Type (0, 0), BuildingBlock: OJICUG_clean_linker_0, # of connection points: 2
#     Edge 114, Type (0, 0), BuildingBlock: OJICUG_clean_linker_0, # of connection points: 2
#     Edge 115, Type (0, 0), BuildingBlock: OJICUG_clean_linker_0, # of connection points: 2
#     Edge 116, Type (0, 0), BuildingBlock: OJICUG_clean_linker_0, # of connection points: 2
#     Edge 117, Type (0, 0), BuildingBlock: OJICUG_clean_linker_0, # of connection points: 2
#     Edge 118, Type (0, 0), BuildingBlock: OJICUG_clean_linker_0, # of connection points: 2
#     Edge 119, Type (0, 0), BuildingBlock: OJICUG_clean_linker_0, # of connection points: 2
#     Edge 120, Type (0, 0), BuildingBlock: OJICUG_clean_linker_0, # of connection points: 2
#     Edge 121, Type (0, 0), BuildingBlock: OJICUG_clean_linker_0, # of connection points: 2
#     Edge 122, Type (0, 0), BuildingBlock: OJICUG_clean_linker_0, # of connection points: 2
#     Edge 123, Type (0, 0), BuildingBlock: OJICUG_clean_linker_0, # of connection points: 2
#     Edge 124, Type (0, 0), BuildingBlock: OJICUG_clean_linker_0, # of connection points: 2
#     Edge 125, Type (0, 0), BuildingBlock: OJICUG_clean_linker_0, # of connection points: 2
#     Edge 126, Type (0, 0), BuildingBlock: OJICUG_clean_linker_0, # of connection points: 2
#     Edge 127, Type (0, 0), BuildingBlock: OJICUG_clean_linker_0, # of connection points: 2
#     Edge 128, Type (0, 0), BuildingBlock: OJICUG_clean_linker_0, # of connection points: 2
#     Edge 129, Type (0, 0), BuildingBlock: OJICUG_clean_linker_0, # of connection points: 2
#     Edge 130, Type (0, 0), BuildingBlock: OJICUG_clean_linker_0, # of connection points: 2
#     Edge 131, Type (0, 0), BuildingBlock: OJICUG_clean_linker_0, # of connection points: 2
#     Edge 132, Type (0, 0), BuildingBlock: OJICUG_clean_linker_0, # of connection points: 2
#     Edge 133, Type (0, 0), BuildingBlock: OJICUG_clean_linker_0, # of connection points: 2
#     Edge 134, Type (0, 0), BuildingBlock: OJICUG_clean_linker_0, # of connection points: 2
#     Edge 135, Type (0, 0), BuildingBlock: OJICUG_clean_linker_0, # of connection points: 2
#     Edge 136, Type (0, 0), BuildingBlock: OJICUG_clean_linker_0, # of connection points: 2
#     Edge 137, Type (0, 0), BuildingBlock: OJICUG_clean_linker_0, # of connection points: 2
#     Edge 138, Type (0, 0), BuildingBlock: OJICUG_clean_linker_0, # of connection points: 2
#     Edge 139, Type (0, 0), BuildingBlock: OJICUG_clean_linker_0, # of connection points: 2
#     Edge 140, Type (0, 0), BuildingBlock: OJICUG_clean_linker_0, # of connection points: 2
#     Edge 141, Type (0, 0), BuildingBlock: OJICUG_clean_linker_0, # of connection points: 2
#     Edge 142, Type (0, 0), BuildingBlock: OJICUG_clean_linker_0, # of connection points: 2
#     Edge 143, Type (0, 0), BuildingBlock: OJICUG_clean_linker_0, # of connection points: 2
#     Edge 144, Type (0, 0), BuildingBlock: OJICUG_clean_linker_0, # of connection points: 2
#     Edge 145, Type (0, 0), BuildingBlock: OJICUG_clean_linker_0, # of connection points: 2
#     Edge 146, Type (0, 0), BuildingBlock: OJICUG_clean_linker_0, # of connection points: 2
#     Edge 147, Type (0, 0), BuildingBlock: OJICUG_clean_linker_0, # of connection points: 2
#     Edge 148, Type (0, 0), BuildingBlock: OJICUG_clean_linker_0, # of connection points: 2
#     Edge 149, Type (0, 0), BuildingBlock: OJICUG_clean_linker_0, # of connection points: 2
#     Edge 150, Type (0, 0), BuildingBlock: OJICUG_clean_linker_0, # of connection points: 2
#     Edge 151, Type (0, 0), BuildingBlock: OJICUG_clean_linker_0, # of connection points: 2
#     Edge 152, Type (0, 0), BuildingBlock: OJICUG_clean_linker_0, # of connection points: 2
#     Edge 153, Type (0, 0), BuildingBlock: OJICUG_clean_linker_0, # of connection points: 2
#     Edge 154, Type (0, 0), BuildingBlock: OJICUG_clean_linker_0, # of connection points: 2
#     Edge 155, Type (0, 0), BuildingBlock: OJICUG_clean_linker_0, # of connection points: 2
#     Edge 156, Type (0, 0), BuildingBlock: OJICUG_clean_linker_0, # of connection points: 2
#     Edge 157, Type (0, 0), BuildingBlock: OJICUG_clean_linker_0, # of connection points: 2
#     Edge 158, Type (0, 0), BuildingBlock: OJICUG_clean_linker_0, # of connection points: 2
#     Edge 159, Type (0, 0), BuildingBlock: OJICUG_clean_linker_0, # of connection points: 2
#     Edge 160, Type (0, 0), BuildingBlock: OJICUG_clean_linker_0, # of connection points: 2
#     Edge 161, Type (0, 0), BuildingBlock: OJICUG_clean_linker_0, # of connection points: 2
#     Edge 162, Type (0, 0), BuildingBlock: OJICUG_clean_linker_0, # of connection points: 2
#     Edge 163, Type (0, 0), BuildingBlock: OJICUG_clean_linker_0, # of connection points: 2
#     Edge 164, Type (0, 0), BuildingBlock: OJICUG_clean_linker_0, # of connection points: 2
#     Edge 165, Type (0, 0), BuildingBlock: OJICUG_clean_linker_0, # of connection points: 2
#     Edge 166, Type (0, 0), BuildingBlock: OJICUG_clean_linker_0, # of connection points: 2
#     Edge 167, Type (0, 0), BuildingBlock: OJICUG_clean_linker_0, # of connection points: 2
#     Edge 168, Type (0, 0), BuildingBlock: OJICUG_clean_linker_0, # of connection points: 2
#     Edge 169, Type (0, 0), BuildingBlock: OJICUG_clean_linker_0, # of connection points: 2
#     Edge 170, Type (0, 0), BuildingBlock: OJICUG_clean_linker_0, # of connection points: 2
#     Edge 171, Type (0, 0), BuildingBlock: OJICUG_clean_linker_0, # of connection points: 2
#     Edge 172, Type (0, 0), BuildingBlock: OJICUG_clean_linker_0, # of connection points: 2
#     Edge 173, Type (0, 0), BuildingBlock: OJICUG_clean_linker_0, # of connection points: 2
#     Edge 174, Type (0, 0), BuildingBlock: OJICUG_clean_linker_0, # of connection points: 2
#     Edge 175, Type (0, 0), BuildingBlock: OJICUG_clean_linker_0, # of connection points: 2
#     Edge 176, Type (0, 0), BuildingBlock: OJICUG_clean_linker_0, # of connection points: 2
#     Edge 177, Type (0, 0), BuildingBlock: OJICUG_clean_linker_0, # of connection points: 2
#     Edge 178, Type (0, 0), BuildingBlock: OJICUG_clean_linker_0, # of connection points: 2
#     Edge 179, Type (0, 0), BuildingBlock: OJICUG_clean_linker_0, # of connection points: 2
#     Edge 180, Type (0, 0), BuildingBlock: OJICUG_clean_linker_0, # of connection points: 2
#     Edge 181, Type (0, 0), BuildingBlock: OJICUG_clean_linker_0, # of connection points: 2
#     Edge 182, Type (0, 0), BuildingBlock: OJICUG_clean_linker_0, # of connection points: 2
#     Edge 183, Type (0, 0), BuildingBlock: OJICUG_clean_linker_0, # of connection points: 2
#     Edge 184, Type (0, 0), BuildingBlock: OJICUG_clean_linker_0, # of connection points: 2
#     Edge 185, Type (0, 0), BuildingBlock: OJICUG_clean_linker_0, # of connection points: 2
#     Edge 186, Type (0, 0), BuildingBlock: OJICUG_clean_linker_0, # of connection points: 2
#     Edge 187, Type (0, 0), BuildingBlock: OJICUG_clean_linker_0, # of connection points: 2
#     Edge 188, Type (0, 0), BuildingBlock: OJICUG_clean_linker_0, # of connection points: 2
#     Edge 189, Type (0, 0), BuildingBlock: OJICUG_clean_linker_0, # of connection points: 2
#     Edge 190, Type (0, 0), BuildingBlock: OJICUG_clean_linker_0, # of connection points: 2
#     Edge 191, Type (0, 0), BuildingBlock: OJICUG_clean_linker_0, # of connection points: 2
#     Edge 192, Type (0, 0), BuildingBlock: OJICUG_clean_linker_0, # of connection points: 2
#     Edge 193, Type (0, 0), BuildingBlock: OJICUG_clean_linker_0, # of connection points: 2
#     Edge 194, Type (0, 0), BuildingBlock: OJICUG_clean_linker_0, # of connection points: 2
#     Edge 195, Type (0, 0), BuildingBlock: OJICUG_clean_linker_0, # of connection points: 2
#     Edge 196, Type (0, 0), BuildingBlock: OJICUG_clean_linker_0, # of connection points: 2
#     Edge 197, Type (0, 0), BuildingBlock: OJICUG_clean_linker_0, # of connection points: 2
#     Edge 198, Type (0, 0), BuildingBlock: OJICUG_clean_linker_0, # of connection points: 2
#     Edge 199, Type (0, 0), BuildingBlock: OJICUG_clean_linker_0, # of connection points: 2
#     Edge 200, Type (0, 0), BuildingBlock: OJICUG_clean_linker_0, # of connection points: 2
#     Edge 201, Type (0, 0), BuildingBlock: OJICUG_clean_linker_0, # of connection points: 2
#     Edge 202, Type (0, 0), BuildingBlock: OJICUG_clean_linker_0, # of connection points: 2
#     Edge 203, Type (0, 0), BuildingBlock: OJICUG_clean_linker_0, # of connection points: 2
#     Edge 204, Type (0, 0), BuildingBlock: OJICUG_clean_linker_0, # of connection points: 2
#     Edge 205, Type (0, 0), BuildingBlock: OJICUG_clean_linker_0, # of connection points: 2
#     Edge 206, Type (0, 0), BuildingBlock: OJICUG_clean_linker_0, # of connection points: 2
#     Edge 207, Type (0, 0), BuildingBlock: OJICUG_clean_linker_0, # of connection points: 2
#     Edge 208, Type (0, 0), BuildingBlock: OJICUG_clean_linker_0, # of connection points: 2
#     Edge 209, Type (0, 0), BuildingBlock: OJICUG_clean_linker_0, # of connection points: 2
#     Edge 210, Type (0, 0), BuildingBlock: OJICUG_clean_linker_0, # of connection points: 2
#     Edge 211, Type (0, 0), BuildingBlock: OJICUG_clean_linker_0, # of connection points: 2
#     Edge 212, Type (0, 0), BuildingBlock: OJICUG_clean_linker_0, # of connection points: 2
#     Edge 213, Type (0, 0), BuildingBlock: OJICUG_clean_linker_0, # of connection points: 2
#     Edge 214, Type (0, 0), BuildingBlock: OJICUG_clean_linker_0, # of connection points: 2
#     Edge 215, Type (0, 0), BuildingBlock: OJICUG_clean_linker_0, # of connection points: 2
#     Edge 216, Type (0, 0), BuildingBlock: OJICUG_clean_linker_0, # of connection points: 2
#     Edge 217, Type (0, 0), BuildingBlock: OJICUG_clean_linker_0, # of connection points: 2
#     Edge 218, Type (0, 0), BuildingBlock: OJICUG_clean_linker_0, # of connection points: 2
#     Edge 219, Type (0, 0), BuildingBlock: OJICUG_clean_linker_0, # of connection points: 2
#     Edge 220, Type (0, 0), BuildingBlock: OJICUG_clean_linker_0, # of connection points: 2
#     Edge 221, Type (0, 0), BuildingBlock: OJICUG_clean_linker_0, # of connection points: 2
#     Edge 222, Type (0, 0), BuildingBlock: OJICUG_clean_linker_0, # of connection points: 2
#     Edge 223, Type (0, 0), BuildingBlock: OJICUG_clean_linker_0, # of connection points: 2
#     Edge 224, Type (0, 0), BuildingBlock: OJICUG_clean_linker_0, # of connection points: 2
#     Edge 225, Type (0, 0), BuildingBlock: OJICUG_clean_linker_0, # of connection points: 2
#     Edge 226, Type (0, 0), BuildingBlock: OJICUG_clean_linker_0, # of connection points: 2
#     Edge 227, Type (0, 0), BuildingBlock: OJICUG_clean_linker_0, # of connection points: 2
#     Edge 228, Type (0, 0), BuildingBlock: OJICUG_clean_linker_0, # of connection points: 2
#     Edge 229, Type (0, 0), BuildingBlock: OJICUG_clean_linker_0, # of connection points: 2
#     Edge 230, Type (0, 0), BuildingBlock: OJICUG_clean_linker_0, # of connection points: 2
#     Edge 231, Type (0, 0), BuildingBlock: OJICUG_clean_linker_0, # of connection points: 2
#     Edge 232, Type (0, 0), BuildingBlock: OJICUG_clean_linker_0, # of connection points: 2
#     Edge 233, Type (0, 0), BuildingBlock: OJICUG_clean_linker_0, # of connection points: 2
#     Edge 234, Type (0, 0), BuildingBlock: OJICUG_clean_linker_0, # of connection points: 2
#     Edge 235, Type (0, 0), BuildingBlock: OJICUG_clean_linker_0, # of connection points: 2
#     Edge 236, Type (0, 0), BuildingBlock: OJICUG_clean_linker_0, # of connection points: 2
#     Edge 237, Type (0, 0), BuildingBlock: OJICUG_clean_linker_0, # of connection points: 2
#     Edge 238, Type (0, 0), BuildingBlock: OJICUG_clean_linker_0, # of connection points: 2
#     Edge 239, Type (0, 0), BuildingBlock: OJICUG_clean_linker_0, # of connection points: 2
#     Edge 240, Type (0, 0), BuildingBlock: OJICUG_clean_linker_0, # of connection points: 2
#     Edge 241, Type (0, 0), BuildingBlock: OJICUG_clean_linker_0, # of connection points: 2
#     Edge 242, Type (0, 0), BuildingBlock: OJICUG_clean_linker_0, # of connection points: 2
#     Edge 243, Type (0, 0), BuildingBlock: OJICUG_clean_linker_0, # of connection points: 2
#     Edge 244, Type (0, 0), BuildingBlock: OJICUG_clean_linker_0, # of connection points: 2
#     Edge 245, Type (0, 0), BuildingBlock: OJICUG_clean_linker_0, # of connection points: 2
#     Edge 246, Type (0, 0), BuildingBlock: OJICUG_clean_linker_0, # of connection points: 2
#     Edge 247, Type (0, 0), BuildingBlock: OJICUG_clean_linker_0, # of connection points: 2
#     Edge 248, Type (0, 0), BuildingBlock: OJICUG_clean_linker_0, # of connection points: 2
#     Edge 249, Type (0, 0), BuildingBlock: OJICUG_clean_linker_0, # of connection points: 2
#     Edge 250, Type (0, 0), BuildingBlock: OJICUG_clean_linker_0, # of connection points: 2
#     Edge 251, Type (0, 0), BuildingBlock: OJICUG_clean_linker_0, # of connection points: 2
#     Edge 252, Type (0, 0), BuildingBlock: OJICUG_clean_linker_0, # of connection points: 2
#     Edge 253, Type (0, 0), BuildingBlock: OJICUG_clean_linker_0, # of connection points: 2
#     Edge 254, Type (0, 0), BuildingBlock: OJICUG_clean_linker_0, # of connection points: 2
#     Edge 255, Type (0, 0), BuildingBlock: OJICUG_clean_linker_0, # of connection points: 2
#     Edge 256, Type (0, 0), BuildingBlock: OJICUG_clean_linker_0, # of connection points: 2
#     Edge 257, Type (0, 0), BuildingBlock: OJICUG_clean_linker_0, # of connection points: 2
#     Edge 258, Type (0, 0), BuildingBlock: OJICUG_clean_linker_0, # of connection points: 2
#     Edge 259, Type (0, 0), BuildingBlock: OJICUG_clean_linker_0, # of connection points: 2
#     Edge 260, Type (0, 0), BuildingBlock: OJICUG_clean_linker_0, # of connection points: 2
#     Edge 261, Type (0, 0), BuildingBlock: OJICUG_clean_linker_0, # of connection points: 2
#     Edge 262, Type (0, 0), BuildingBlock: OJICUG_clean_linker_0, # of connection points: 2
#     Edge 263, Type (0, 0), BuildingBlock: OJICUG_clean_linker_0, # of connection points: 2
#     Edge 264, Type (0, 0), BuildingBlock: OJICUG_clean_linker_0, # of connection points: 2
#     Edge 265, Type (0, 0), BuildingBlock: OJICUG_clean_linker_0, # of connection points: 2
#     Edge 266, Type (0, 0), BuildingBlock: OJICUG_clean_linker_0, # of connection points: 2
#     Edge 267, Type (0, 0), BuildingBlock: OJICUG_clean_linker_0, # of connection points: 2
#     Edge 268, Type (0, 0), BuildingBlock: OJICUG_clean_linker_0, # of connection points: 2
#     Edge 269, Type (0, 0), BuildingBlock: OJICUG_clean_linker_0, # of connection points: 2
#     Edge 270, Type (0, 0), BuildingBlock: OJICUG_clean_linker_0, # of connection points: 2
#     Edge 271, Type (0, 0), BuildingBlock: OJICUG_clean_linker_0, # of connection points: 2
#     Edge 272, Type (0, 0), BuildingBlock: OJICUG_clean_linker_0, # of connection points: 2
#     Edge 273, Type (0, 0), BuildingBlock: OJICUG_clean_linker_0, # of connection points: 2
#     Edge 274, Type (0, 0), BuildingBlock: OJICUG_clean_linker_0, # of connection points: 2
#     Edge 275, Type (0, 0), BuildingBlock: OJICUG_clean_linker_0, # of connection points: 2
#     Edge 276, Type (0, 0), BuildingBlock: OJICUG_clean_linker_0, # of connection points: 2
#     Edge 277, Type (0, 0), BuildingBlock: OJICUG_clean_linker_0, # of connection points: 2
#     Edge 278, Type (0, 0), BuildingBlock: OJICUG_clean_linker_0, # of connection points: 2
#     Edge 279, Type (0, 0), BuildingBlock: OJICUG_clean_linker_0, # of connection points: 2
#     Edge 280, Type (0, 0), BuildingBlock: OJICUG_clean_linker_0, # of connection points: 2
#     Edge 281, Type (0, 0), BuildingBlock: OJICUG_clean_linker_0, # of connection points: 2
#     Edge 282, Type (0, 0), BuildingBlock: OJICUG_clean_linker_0, # of connection points: 2
#     Edge 283, Type (0, 0), BuildingBlock: OJICUG_clean_linker_0, # of connection points: 2
#     Edge 284, Type (0, 0), BuildingBlock: OJICUG_clean_linker_0, # of connection points: 2
#     Edge 285, Type (0, 0), BuildingBlock: OJICUG_clean_linker_0, # of connection points: 2
#     Edge 286, Type (0, 0), BuildingBlock: OJICUG_clean_linker_0, # of connection points: 2
#     Edge 287, Type (0, 0), BuildingBlock: OJICUG_clean_linker_0, # of connection points: 2
# Relax obj value: 0.146
# Max RMSD: 0.291
# Mean RMSD: 0.291
data_MOF--net-ulh--node1-NAWXER_clean_sbu_0--edge1-OJICUG_clean_linker_0
_symmetry_space_group_name_H-M    P1
_symmetry_Int_Tables_number       1
_symmetry_cell_setting            triclinic
loop_
_symmetry_equiv_pos_as_xyz
'x, y, z'
_cell_length_a     60.659304
_cell_length_b     60.680455
_cell_length_c     60.680931
_cell_angle_alpha  90.004174
_cell_angle_beta   90.000342
_cell_angle_gamma 89.998426
loop_
_atom_site_label
_atom_site_type_symbol
_atom_site_fract_x
_atom_site_fract_y
_atom_site_fract_z
_atom_type_partial_charge
C0 C 0.00937 0.31077 0.03888 0.0
C1 C 0.02911 0.34897 0.10556 0.0
O2 O 0.02593 0.3012 0.04799 0.0
Zn3 Zn 0.04367 0.30513 0.07908 0.0
O4 O 0.00033 0.32714 0.04815 0.0
Zn5 Zn 0.01909 0.32854 0.0729 0.0
O6 O 0.05131 0.33582 0.05935 0.0
O7 O 0.07359 0.30873 0.06931 0.0
O8 O 0.0138 0.35275 0.09186 0.0
O9 O 0.04132 0.33182 0.10309 0.0
O10 O 0.03671 0.27855 0.09533 0.0
O11 O 0.00842 0.30092 0.09135 0.0
C12 C 0.07055 0.32696 0.05947 0.0
C13 C 0.01652 0.28288 0.09865 0.0
C14 C 0.92843 0.25969 0.28991 0.0
C15 C 0.89072 0.27973 0.35679 0.0
O16 O 0.93813 0.27622 0.29893 0.0
Zn17 Zn 0.93444 0.29409 0.33 0.0
O18 O 0.91203 0.25078 0.29927 0.0
Zn19 Zn 0.91091 0.26958 0.32401 0.0
O20 O 0.90363 0.30178 0.31044 0.0
O21 O 0.93085 0.32401 0.32017 0.0
O22 O 0.88686 0.26438 0.34318 0.0
O23 O 0.90789 0.29189 0.35418 0.0
O24 O 0.96115 0.28705 0.34606 0.0
O25 O 0.93871 0.25882 0.34215 0.0
C26 C 0.91253 0.32099 0.31046 0.0
C27 C 0.95684 0.26686 0.3493 0.0
C28 C 0.97247 0.20569 0.59811 0.0
C29 C 0.9186 0.16169 0.55853 0.0
O30 O 0.98054 0.18759 0.59093 0.0
Zn31 Zn 0.96991 0.15996 0.57247 0.0
O32 O 0.95232 0.21009 0.59465 0.0
Zn33 Zn 0.94539 0.18349 0.57836 0.0
O34 O 0.94735 0.15683 0.60244 0.0
O35 O 0.97492 0.13579 0.59155 0.0
O36 O 0.91555 0.17998 0.56826 0.0
O37 O 0.9378 0.15276 0.55863 0.0
O38 O 0.98895 0.1612 0.54792 0.0
O39 O 0.96356 0.18734 0.54749 0.0
C40 C 0.95947 0.13963 0.60506 0.0
C41 C 0.98018 0.17767 0.53858 0.0
C42 C 0.07736 0.16841 0.80928 0.0
C43 C 0.03317 0.22261 0.8482 0.0
O44 O 0.08627 0.18762 0.80927 0.0
Zn45 Zn 0.07905 0.21981 0.82284 0.0
O46 O 0.05905 0.1654 0.819 0.0
Zn47 Zn 0.05547 0.19532 0.82885 0.0
O48 O 0.05178 0.21319 0.7978 0.0
O49 O 0.07791 0.2386 0.79808 0.0
O50 O 0.02878 0.20243 0.84494 0.0
O51 O 0.05132 0.2306 0.84102 0.0
O52 O 0.10315 0.22493 0.84201 0.0
O53 O 0.08201 0.1975 0.85302 0.0
C54 C 0.06149 0.22969 0.78875 0.0
C55 C 0.09921 0.20961 0.85564 0.0
C56 C 0.00988 0.67807 0.95134 0.0
C57 C 0.0303 0.6407 0.8844 0.0
O58 O 0.02632 0.68798 0.94235 0.0
Zn59 Zn 0.04421 0.68453 0.91123 0.0
O60 O 0.00113 0.66163 0.94192 0.0
Zn61 Zn 0.01994 0.66079 0.91719 0.0
O62 O 0.05224 0.65382 0.93076 0.0
O63 O 0.07417 0.68128 0.92103 0.0
O64 O 0.01497 0.63671 0.898 0.0
O65 O 0.04231 0.65796 0.88701 0.0
O66 O 0.03691 0.71118 0.8952 0.0
O67 O 0.00887 0.6885 0.89911 0.0
C68 C 0.07136 0.66294 0.93074 0.0
C69 C 0.01674 0.70671 0.89197 0.0
C70 C 0.5611 0.26054 0.20021 0.0
C71 C 0.59884 0.2799 0.1332 0.0
O72 O 0.55135 0.27694 0.19101 0.0
Zn73 Zn 0.55496 0.29437 0.15967 0.0
O74 O 0.57744 0.25148 0.1909 0.0
Zn75 Zn 0.57851 0.26998 0.16596 0.0
O76 O 0.58563 0.30235 0.17924 0.0
O77 O 0.55839 0.32441 0.16916 0.0
O78 O 0.60265 0.26466 0.14695 0.0
O79 O 0.58163 0.29205 0.13562 0.0
O80 O 0.5283 0.28703 0.14362 0.0
O81 O 0.55081 0.25891 0.14789 0.0
C82 C 0.57666 0.32153 0.179 0.0
C83 C 0.53267 0.26682 0.14061 0.0
C84 C 0.97899 0.81013 0.45062 0.0
C85 C 0.95977 0.84756 0.38342 0.0
O86 O 0.96255 0.80037 0.4415 0.0
Zn87 Zn 0.94512 0.80387 0.41011 0.0
O88 O 0.98807 0.82639 0.4412 0.0
Zn89 Zn 0.96956 0.82736 0.41628 0.0
O90 O 0.93716 0.83467 0.42946 0.0
O91 O 0.91508 0.8074 0.41952 0.0
O92 O 0.97501 0.85137 0.39718 0.0
O93 O 0.94755 0.83042 0.3859 0.0
O94 O 0.95233 0.77712 0.39418 0.0
O95 O 0.98054 0.79955 0.39831 0.0
C96 C 0.91796 0.82573 0.42923 0.0
C97 C 0.97256 0.78142 0.3911 0.0
C98 C 0.42914 0.23034 0.7017 0.0
C99 C 0.39186 0.21069 0.63446 0.0
O100 O 0.43899 0.21396 0.69257 0.0
Zn101 Zn 0.43561 0.19644 0.66126 0.0
O102 O 0.41282 0.23934 0.69229 0.0
Zn103 Zn 0.41193 0.22077 0.66736 0.0
O104 O 0.40485 0.18842 0.68067 0.0
O105 O 0.43223 0.16643 0.67082 0.0
O106 O 0.38787 0.22593 0.64815 0.0
O107 O 0.4091 0.19862 0.63703 0.0
O108 O 0.46233 0.2038 0.64536 0.0
O109 O 0.43971 0.23187 0.64942 0.0
C110 C 0.41389 0.16927 0.68055 0.0
C111 C 0.45792 0.224 0.64226 0.0
C112 C 0.09893 0.01638 0.2836 0.0
C113 C 0.06047 0.07107 0.32753 0.0
O114 O 0.09194 0.00855 0.30189 0.0
Zn115 Zn 0.07406 0.01968 0.32972 0.0
O116 O 0.09565 0.03653 0.27911 0.0
Zn117 Zn 0.07981 0.04388 0.30584 0.0
O118 O 0.10424 0.04212 0.33221 0.0
O119 O 0.09349 0.01484 0.35365 0.0
O120 O 0.07 0.07383 0.30908 0.0
O121 O 0.06054 0.05198 0.33669 0.0
O122 O 0.0493 0.00086 0.32911 0.0
O123 O 0.04871 0.02591 0.30265 0.0
C124 C 0.10702 0.03019 0.3495 0.0
C125 C 0.03979 0.00951 0.31267 0.0
C126 C 0.22971 0.28827 0.56187 0.0
C127 C 0.20903 0.35507 0.59932 0.0
O128 O 0.21323 0.29719 0.55197 0.0
Zn129 Zn 0.19518 0.32822 0.55547 0.0
O130 O 0.23837 0.29769 0.57835 0.0
Zn131 Zn 0.21947 0.32234 0.57921 0.0
O132 O 0.18721 0.30871 0.58621 0.0
O133 O 0.16526 0.31832 0.55874 0.0
O134 O 0.22441 0.34152 0.60329 0.0
O135 O 0.19702 0.35244 0.58206 0.0
O136 O 0.2024 0.34429 0.52883 0.0
O137 O 0.23046 0.34048 0.55151 0.0
C138 C 0.16809 0.30867 0.5771 0.0
C139 C 0.22255 0.34759 0.53331 0.0
C140 C 0.89205 0.47338 0.78383 0.0
C141 C 0.93072 0.41883 0.82773 0.0
O142 O 0.89923 0.48132 0.802 0.0
Zn143 Zn 0.9174 0.47031 0.8297 0.0
O144 O 0.89528 0.45321 0.77941 0.0
Zn145 Zn 0.91133 0.44598 0.80605 0.0
O146 O 0.88716 0.44808 0.83264 0.0
O147 O 0.89828 0.47543 0.85382 0.0
O148 O 0.92101 0.41602 0.80939 0.0
O149 O 0.93083 0.43798 0.83678 0.0
O150 O 0.94223 0.48901 0.82871 0.0
O151 O 0.94251 0.46371 0.80249 0.0
C152 C 0.88461 0.46014 0.84988 0.0
C153 C 0.95159 0.48014 0.81231 0.0
C154 C 0.76044 0.20078 0.06225 0.0
C155 C 0.7807 0.13366 0.09944 0.0
O156 O 0.77699 0.19187 0.05247 0.0
Zn157 Zn 0.7949 0.16079 0.05589 0.0
O158 O 0.75153 0.19125 0.07854 0.0
Zn159 Zn 0.77038 0.16652 0.07945 0.0
O160 O 0.80259 0.18007 0.08683 0.0
O161 O 0.8248 0.17063 0.0595 0.0
O162 O 0.76526 0.14717 0.10339 0.0
O163 O 0.79283 0.13643 0.08229 0.0
O164 O 0.78791 0.14489 0.02908 0.0
O165 O 0.75965 0.14851 0.05155 0.0
C166 C 0.8218 0.18016 0.07791 0.0
C167 C 0.76773 0.14151 0.03338 0.0
C168 C 0.05996 0.91965 0.6616 0.0
C169 C 0.09882 0.97392 0.7057 0.0
O170 O 0.05978 0.93887 0.65272 0.0
Zn171 Zn 0.07318 0.97117 0.66 0.0
O172 O 0.06979 0.91667 0.67986 0.0
Zn173 Zn 0.0794 0.94664 0.68343 0.0
O174 O 0.04816 0.96416 0.6872 0.0
O175 O 0.04829 0.98979 0.6613 0.0
O176 O 0.09556 0.95374 0.71005 0.0
O177 O 0.09153 0.98197 0.68764 0.0
O178 O 0.09217 0.97648 0.63581 0.0
O179 O 0.10342 0.94901 0.65676 0.0
C180 C 0.03898 0.98066 0.67759 0.0
C181 C 0.10588 0.96118 0.6396 0.0
C182 C 0.25912 0.28834 0.929 0.0
C183 C 0.27913 0.35488 0.89073 0.0
O184 O 0.27559 0.29749 0.93869 0.0
Zn185 Zn 0.29334 0.3286 0.93481 0.0
O186 O 0.25023 0.29755 0.91252 0.0
Zn187 Zn 0.26897 0.32231 0.91123 0.0
O188 O 0.30128 0.30878 0.90425 0.0
O189 O 0.3233 0.31885 0.93151 0.0
O190 O 0.26385 0.34117 0.88692 0.0
O191 O 0.29121 0.3525 0.90799 0.0
O192 O 0.28613 0.34492 0.96129 0.0
O193 O 0.25802 0.3408 0.93872 0.0
C194 C 0.32044 0.30895 0.91328 0.0
C195 C 0.26596 0.34816 0.9568 0.0
C196 C 0.89037 0.51645 0.20686 0.0
C197 C 0.92913 0.57093 0.16294 0.0
O198 O 0.89756 0.50853 0.1887 0.0
Zn199 Zn 0.91573 0.51949 0.16103 0.0
O200 O 0.8936 0.53662 0.21132 0.0
Zn201 Zn 0.90967 0.54387 0.18467 0.0
O202 O 0.88552 0.54178 0.15808 0.0
O203 O 0.89659 0.51439 0.13692 0.0
O204 O 0.9194 0.57384 0.18126 0.0
O205 O 0.9292 0.55177 0.15394 0.0
O206 O 0.94054 0.50077 0.16205 0.0
O207 O 0.94084 0.52612 0.18824 0.0
C208 C 0.88295 0.52971 0.14085 0.0
C209 C 0.94991 0.50966 0.17845 0.0
C210 C 0.73036 0.20081 0.42799 0.0
C211 C 0.71037 0.13442 0.38939 0.0
O212 O 0.71385 0.19163 0.43758 0.0
Zn213 Zn 0.69604 0.1606 0.43348 0.0
O214 O 0.73927 0.1917 0.41146 0.0
Zn215 Zn 0.7205 0.16695 0.40997 0.0
O216 O 0.68826 0.18054 0.40294 0.0
O217 O 0.66609 0.17042 0.43005 0.0
O218 O 0.72566 0.14813 0.38562 0.0
O219 O 0.69826 0.13677 0.40663 0.0
O220 O 0.70316 0.14416 0.45992 0.0
O221 O 0.73132 0.14835 0.43742 0.0
C222 C 0.66906 0.18037 0.41187 0.0
C223 C 0.72333 0.14092 0.45546 0.0
C224 C 0.28256 0.09792 0.01694 0.0
C225 C 0.32647 0.05945 0.07161 0.0
O226 O 0.30072 0.09069 0.00904 0.0
Zn227 Zn 0.32843 0.07261 0.02011 0.0
O228 O 0.27815 0.09483 0.03714 0.0
Zn229 Zn 0.30481 0.07881 0.04444 0.0
O230 O 0.33143 0.10295 0.04222 0.0
O231 O 0.35256 0.09169 0.01489 0.0
O232 O 0.30818 0.06924 0.07445 0.0
O233 O 0.3355 0.05927 0.05246 0.0
O234 O 0.32743 0.04774 0.00151 0.0
O235 O 0.30124 0.04755 0.02686 0.0
C236 C 0.34866 0.10542 0.03012 0.0
C237 C 0.31104 0.03841 0.01045 0.0
C238 C 0.84834 0.88258 0.45872 0.0
C239 C 0.81089 0.94976 0.47817 0.0
O240 O 0.83121 0.88516 0.4465 0.0
Zn241 Zn 0.80472 0.9094 0.4441 0.0
O242 O 0.85219 0.89625 0.47403 0.0
Zn243 Zn 0.82819 0.91545 0.46866 0.0
O244 O 0.80036 0.89744 0.47946 0.0
O245 O 0.77793 0.89346 0.45123 0.0
O246 O 0.82713 0.94032 0.48727 0.0
O247 O 0.80119 0.94068 0.46166 0.0
O248 O 0.80845 0.91898 0.41411 0.0
O249 O 0.8356 0.92877 0.4364 0.0
C250 C 0.78222 0.89028 0.47144 0.0
C251 C 0.82677 0.92867 0.41716 0.0
C252 C 0.34989 0.03373 0.72402 0.0
C253 C 0.31157 0.07752 0.6691 0.0
O254 O 0.34262 0.0519 0.73185 0.0
Zn255 Zn 0.32451 0.07954 0.72067 0.0
O256 O 0.34679 0.02925 0.70383 0.0
Zn257 Zn 0.33077 0.05586 0.69639 0.0
O258 O 0.35489 0.08245 0.69862 0.0
O259 O 0.34361 0.10367 0.72587 0.0
O260 O 0.32134 0.05919 0.66632 0.0
O261 O 0.31132 0.08656 0.68825 0.0
O262 O 0.29953 0.07856 0.73917 0.0
O263 O 0.29943 0.05236 0.71385 0.0
C264 C 0.35736 0.09971 0.71067 0.0
C265 C 0.29021 0.06218 0.7302 0.0
C266 C 0.16296 0.56045 0.91948 0.0
C267 C 0.20721 0.5987 0.97404 0.0
O268 O 0.15396 0.56035 0.93865 0.0
Zn269 Zn 0.16117 0.57369 0.971 0.0
O270 O 0.1813 0.57015 0.9166 0.0
Zn271 Zn 0.18475 0.57972 0.94658 0.0
O272 O 0.18813 0.54841 0.96412 0.0
O273 O 0.16205 0.54878 0.98958 0.0
O274 O 0.21152 0.59559 0.95382 0.0
O275 O 0.18904 0.59158 0.982 0.0
O276 O 0.13716 0.59292 0.97624 0.0
O277 O 0.15824 0.60396 0.94879 0.0
C278 C 0.17831 0.53932 0.98054 0.0
C279 C 0.14105 0.60656 0.96092 0.0
C280 C 0.14089 0.95601 0.22337 0.0
C281 C 0.17949 0.91203 0.16882 0.0
O282 O 0.14813 0.93787 0.23132 0.0
Zn283 Zn 0.16624 0.91016 0.22031 0.0
O284 O 0.14399 0.96037 0.20316 0.0
Zn285 Zn 0.16005 0.93373 0.19592 0.0
O286 O 0.13597 0.9071 0.19813 0.0
O287 O 0.14716 0.88602 0.22552 0.0
O288 O 0.16969 0.93031 0.16593 0.0
O289 O 0.17965 0.90305 0.188 0.0
O290 O 0.19113 0.91124 0.23893 0.0
O291 O 0.19128 0.93738 0.21354 0.0
C292 C 0.13348 0.88988 0.21023 0.0
C293 C 0.20043 0.92763 0.22997 0.0
C294 C 0.67821 0.95124 0.00816 0.0
C295 C 0.64026 0.88457 0.02869 0.0
O296 O 0.68794 0.94219 0.02465 0.0
Zn297 Zn 0.68415 0.91127 0.04268 0.0
O298 O 0.66166 0.94199 -0.0006 0.0
Zn299 Zn 0.66047 0.9173 0.01829 0.0
O300 O 0.65347 0.93101 0.05046 0.0
O301 O 0.68078 0.92125 0.07256 0.0
O302 O 0.63627 0.89817 0.01336 0.0
O303 O 0.65754 0.88717 0.04069 0.0
O304 O 0.71072 0.89506 0.03556 0.0
O305 O 0.68812 0.89896 0.00744 0.0
C306 C 0.66249 0.93104 0.06962 0.0
C307 C 0.70626 0.89175 0.0154 0.0
C308 C 0.30898 0.41126 0.8209 0.0
C309 C 0.34763 0.45519 0.76638 0.0
O310 O 0.309 0.40216 0.80178 0.0
Zn311 Zn 0.32251 0.40921 0.76948 0.0
O312 O 0.31858 0.42966 0.82372 0.0
Zn313 Zn 0.32836 0.43298 0.79378 0.0
O314 O 0.29723 0.4363 0.77595 0.0
O315 O 0.29771 0.41002 0.7507 0.0
O316 O 0.3443 0.45967 0.78652 0.0
O317 O 0.34057 0.43697 0.75847 0.0
O318 O 0.34181 0.38518 0.76455 0.0
O319 O 0.35266 0.40652 0.79189 0.0
C320 C 0.28823 0.4264 0.75952 0.0
C321 C 0.35537 0.38925 0.77991 0.0
C322 C 0.68054 0.07806 0.31954 0.0
C323 C 0.64153 0.03447 0.26503 0.0
O324 O 0.68074 0.08709 0.30039 0.0
Zn325 Zn 0.6673 0.0801 0.26806 0.0
O326 O 0.67068 0.05981 0.32238 0.0
Zn327 Zn 0.661 0.05649 0.29242 0.0
O328 O 0.69211 0.05261 0.27474 0.0
O329 O 0.69219 0.0788 0.24941 0.0
O330 O 0.64473 0.03001 0.2852 0.0
O331 O 0.64888 0.05256 0.25708 0.0
O332 O 0.64836 0.10441 0.26297 0.0
O333 O 0.63705 0.08323 0.29025 0.0
C334 C 0.70135 0.06229 0.25832 0.0
C335 C 0.63463 0.10051 0.27822 0.0
C336 C 0.00886 0.81197 0.53858 0.0
C337 C 0.02954 0.85015 0.60506 0.0
O338 O 0.0255 0.80237 0.54753 0.0
Zn339 Zn 0.04368 0.80632 0.57835 0.0
O340 O 2e-05 0.82843 0.5479 0.0
Zn341 Zn 0.01906 0.82978 0.57248 0.0
O342 O 0.05115 0.83708 0.55863 0.0
O343 O 0.07347 0.8099 0.56821 0.0
O344 O 0.01404 0.85396 0.59158 0.0
O345 O 0.04167 0.83297 0.60241 0.0
O346 O 0.03691 0.77972 0.59464 0.0
O347 O 0.00857 0.8021 0.59098 0.0
C348 C 0.07037 0.82819 0.55851 0.0
C349 C 0.01675 0.78403 0.59815 0.0
C350 C 0.95658 0.76642 0.84896 0.0
C351 C 0.91244 0.82031 0.80953 0.0
O352 O 0.93853 0.75832 0.84168 0.0
Zn353 Zn 0.91089 0.76893 0.82324 0.0
O354 O 0.9609 0.78661 0.84565 0.0
Zn355 Zn 0.93429 0.79356 0.82935 0.0
O356 O 0.90755 0.79134 0.8533 0.0
O357 O 0.88665 0.76375 0.84222 0.0
O358 O 0.93065 0.82344 0.81941 0.0
O359 O 0.90361 0.80106 0.80951 0.0
O360 O 0.91231 0.75009 0.79853 0.0
O361 O 0.93825 0.7757 0.79834 0.0
C362 C 0.89039 0.77916 0.85581 0.0
C363 C 0.92869 0.75911 0.78926 0.0
C364 C 0.97938 0.67773 0.03912 0.0
C365 C 0.95918 0.64025 0.10606 0.0
O366 O 0.96297 0.68761 0.04817 0.0
Zn367 Zn 0.94514 0.68408 0.07931 0.0
O368 O 0.98814 0.66124 0.04844 0.0
Zn369 Zn 0.9694 0.66033 0.07323 0.0
O370 O 0.93707 0.65338 0.05977 0.0
O371 O 0.91515 0.68081 0.0696 0.0
O372 O 0.97444 0.63623 0.09238 0.0
O373 O 0.94717 0.65752 0.1035 0.0
O374 O 0.95249 0.7107 0.09535 0.0
O375 O 0.98051 0.688 0.09134 0.0
C376 C 0.91795 0.66248 0.05986 0.0
C377 C 0.97266 0.70619 0.09853 0.0
C378 C 0.06081 0.72869 0.28841 0.0
C379 C 0.09835 0.70848 0.35532 0.0
O380 O 0.05106 0.71214 0.29736 0.0
Zn381 Zn 0.05463 0.69425 0.32842 0.0
O382 O 0.07715 0.73759 0.29787 0.0
Zn383 Zn 0.07822 0.71873 0.32255 0.0
O384 O 0.08548 0.68655 0.30894 0.0
O385 O 0.05821 0.66433 0.31856 0.0
O386 O 0.10228 0.72383 0.34172 0.0
O387 O 0.08116 0.69636 0.35267 0.0
O388 O 0.02792 0.70132 0.3445 0.0
O389 O 0.05052 0.72947 0.3408 0.0
C390 C 0.07655 0.66735 0.3089 0.0
C391 C 0.03236 0.72146 0.34793 0.0
C392 C 0.01085 0.17849 0.45095 0.0
C393 C 0.03078 0.14086 0.38405 0.0
O394 O 0.02724 0.18836 0.44184 0.0
Zn395 Zn 0.04493 0.18479 0.41061 0.0
O396 O 0.00205 0.16202 0.44164 0.0
Zn397 Zn 0.02069 0.16109 0.41682 0.0
O398 O 0.05308 0.15416 0.4302 0.0
O399 O 0.07495 0.18158 0.42022 0.0
O400 O 0.01554 0.13696 0.39778 0.0
O401 O 0.04284 0.15812 0.3865 0.0
O402 O 0.03755 0.21139 0.39455 0.0
O403 O 0.00951 0.18876 0.39874 0.0
C404 C 0.0722 0.16328 0.43002 0.0
C405 C 0.01735 0.20694 0.3915 0.0
C406 C 0.56109 0.76012 0.6999 0.0
C407 C 0.59819 0.77925 0.63244 0.0
O408 O 0.5512 0.77643 0.69069 0.0
Zn409 Zn 0.55451 0.79374 0.65922 0.0
O410 O 0.57739 0.75108 0.69051 0.0
Zn411 Zn 0.57817 0.76944 0.66546 0.0
O412 O 0.5853 0.80191 0.67852 0.0
O413 O 0.55791 0.82383 0.66853 0.0
O414 O 0.60216 0.76409 0.64623 0.0
O415 O 0.58098 0.79136 0.63495 0.0
O416 O 0.52774 0.78627 0.64346 0.0
O417 O 0.55031 0.75819 0.64773 0.0
C418 C 0.57626 0.82106 0.67826 0.0
C419 C 0.53209 0.76603 0.64056 0.0
C420 C 0.97324 0.28267 0.89107 0.0
C421 C 0.91902 0.32677 0.93003 0.0
O422 O 0.98128 0.30073 0.89837 0.0
Zn423 Zn 0.9705 0.3284 0.91667 0.0
O424 O 0.95302 0.27836 0.89423 0.0
Zn425 Zn 0.94595 0.30497 0.91044 0.0
O426 O 0.94826 0.33171 0.88647 0.0
O427 O 0.97579 0.3526 0.89771 0.0
O428 O 0.916 0.30854 0.92017 0.0
O429 O 0.93825 0.33564 0.93017 0.0
O430 O 0.98919 0.32708 0.94148 0.0
O431 O 0.96362 0.3011 0.94159 0.0
C432 C 0.96046 0.34887 0.88403 0.0
C433 C 0.98014 0.3107 0.95074 0.0
C434 C 0.39166 0.71023 0.13423 0.0
C435 C 0.429 0.73008 0.20136 0.0
O436 O 0.40886 0.69813 0.13684 0.0
Zn437 Zn 0.43537 0.69597 0.16108 0.0
O438 O 0.3877 0.72552 0.14789 0.0
Zn439 Zn 0.41173 0.72035 0.16712 0.0
O440 O 0.43952 0.73136 0.14916 0.0
O441 O 0.46211 0.70325 0.14513 0.0
O442 O 0.41264 0.73901 0.19195 0.0
O443 O 0.43882 0.71364 0.1923 0.0
O444 O 0.43191 0.66599 0.17076 0.0
O445 O 0.40458 0.68806 0.18054 0.0
C446 C 0.45772 0.72345 0.14201 0.0
C447 C 0.41358 0.6689 0.18048 0.0
C448 C 0.09914 0.51663 0.78379 0.0
C449 C 0.06048 0.57125 0.82769 0.0
O450 O 0.09195 0.50874 0.80196 0.0
Zn451 Zn 0.07384 0.51979 0.82966 0.0
O452 O 0.09596 0.53681 0.77934 0.0
Zn453 Zn 0.07991 0.54413 0.80599 0.0
O454 O 0.10405 0.54208 0.8326 0.0
O455 O 0.09297 0.51471 0.85377 0.0
O456 O 0.07021 0.57412 0.80936 0.0
O457 O 0.06039 0.5521 0.83672 0.0
O458 O 0.04901 0.50109 0.82869 0.0
O459 O 0.04872 0.52639 0.80247 0.0
C460 C 0.1066 0.53004 0.84985 0.0
C461 C 0.03964 0.50996 0.81229 0.0
C462 C 0.23034 0.7886 0.06189 0.0
C463 C 0.2099 0.85548 0.09936 0.0
O464 O 0.21386 0.79757 0.05204 0.0
Zn465 Zn 0.19593 0.82865 0.05554 0.0
O466 O 0.23911 0.79802 0.07832 0.0
Zn467 Zn 0.22027 0.82272 0.07924 0.0
O468 O 0.18801 0.80915 0.0863 0.0
O469 O 0.16599 0.81881 0.05889 0.0
O470 O 0.22527 0.84191 0.10332 0.0
O471 O 0.19787 0.85285 0.08211 0.0
O472 O 0.20315 0.84471 0.02889 0.0
O473 O 0.23123 0.84087 0.05153 0.0
C474 C 0.16886 0.80914 0.07724 0.0
C475 C 0.22331 0.848 0.03335 0.0
C476 C 0.89264 0.97226 0.28264 0.0
C477 C 0.93076 0.91743 0.32668 0.0
O478 O 0.89963 0.98008 0.30093 0.0
Zn479 Zn 0.91748 0.96891 0.32875 0.0
O480 O 0.89596 0.95213 0.2781 0.0
Zn481 Zn 0.91171 0.94473 0.30489 0.0
O482 O 0.88718 0.9467 0.33118 0.0
O483 O 0.89806 0.97392 0.35264 0.0
O484 O 0.92128 0.91471 0.3082 0.0
O485 O 0.93078 0.93653 0.33583 0.0
O486 O 0.94232 0.98762 0.32821 0.0
O487 O 0.94296 0.96247 0.30184 0.0
C488 C 0.88442 0.95868 0.34844 0.0
C489 C 0.9519 0.97885 0.31188 0.0
C490 C 0.76038 0.7008 0.56166 0.0
C491 C 0.78101 0.63411 0.5994 0.0
O492 O 0.77691 0.69185 0.55187 0.0
Zn493 Zn 0.795 0.6609 0.55556 0.0
O494 O 0.75166 0.69145 0.57815 0.0
Zn495 Zn 0.77059 0.6668 0.57919 0.0
O496 O 0.80279 0.68049 0.58631 0.0
O497 O 0.82489 0.67088 0.55895 0.0
O498 O 0.7656 0.64764 0.6033 0.0
O499 O 0.79308 0.63673 0.58217 0.0
O500 O 0.78794 0.64476 0.52892 0.0
O501 O 0.75977 0.64857 0.55147 0.0
C502 C 0.82195 0.68055 0.57729 0.0
C503 C 0.76777 0.64144 0.53331 0.0
C504 C 0.05862 0.41862 0.16233 0.0
C505 C 0.09783 0.47287 0.20609 0.0
O506 O 0.05851 0.43779 0.15334 0.0
Zn507 Zn 0.07203 0.47006 0.16047 0.0
O508 O 0.0684 0.41572 0.18062 0.0
Zn509 Zn 0.07815 0.44565 0.18403 0.0
O510 O 0.04706 0.46343 0.18783 0.0
O511 O 0.04727 0.48885 0.16173 0.0
O512 O 0.09443 0.45273 0.21055 0.0
O513 O 0.09055 0.48088 0.188 0.0
O514 O 0.09099 0.47518 0.13622 0.0
O515 O 0.10219 0.44779 0.15732 0.0
C516 C 0.03797 0.47993 0.17815 0.0
C517 C 0.10467 0.45987 0.14009 0.0
C518 C 0.25813 0.78811 0.42769 0.0
C519 C 0.2785 0.85489 0.38993 0.0
O520 O 0.27459 0.79717 0.43749 0.0
Zn521 Zn 0.29246 0.82822 0.43384 0.0
O522 O 0.24933 0.79743 0.41123 0.0
Zn523 Zn 0.26815 0.82218 0.41014 0.0
O524 O 0.30045 0.80861 0.40317 0.0
O525 O 0.32239 0.81842 0.4306 0.0
O526 O 0.26319 0.84126 0.38594 0.0
O527 O 0.29049 0.85233 0.40721 0.0
O528 O 0.28529 0.8444 0.46037 0.0
O529 O 0.25719 0.84055 0.43774 0.0
C530 C 0.31958 0.80867 0.41228 0.0
C531 C 0.26515 0.84776 0.45589 0.0
C532 C 0.92922 0.06991 0.66135 0.0
C533 C 0.89055 0.01514 0.70495 0.0
O534 O 0.92956 0.05074 0.65236 0.0
Zn535 Zn 0.91632 0.01834 0.65935 0.0
O536 O 0.91927 0.07274 0.67956 0.0
Zn537 Zn 0.90981 0.04269 0.6829 0.0
O538 O 0.94111 0.0253 0.68677 0.0
O539 O 0.94133 -0.00012 0.66066 0.0
O540 O 0.89357 0.03534 0.70938 0.0
O541 O 0.89798 0.00723 0.68688 0.0
O542 O 0.89746 0.01306 0.63503 0.0
O543 O 0.88595 0.04033 0.65611 0.0
C544 C 0.95046 0.00894 0.67711 0.0
C545 C 0.88365 0.02825 0.63885 0.0
C546 C 0.72962 0.70088 0.92873 0.0
C547 C 0.70983 0.63432 0.89041 0.0
O548 O 0.71302 0.69181 0.93827 0.0
Zn549 Zn 0.69525 0.66072 0.9343 0.0
O550 O 0.73867 0.69159 0.91238 0.0
Zn551 Zn 0.71988 0.66689 0.91095 0.0
O552 O 0.68769 0.68049 0.90361 0.0
O553 O 0.66533 0.67055 0.93064 0.0
O554 O 0.7252 0.64798 0.88674 0.0
O555 O 0.69759 0.63676 0.90754 0.0
O556 O 0.7022 0.64443 0.9609 0.0
O557 O 0.7305 0.64843 0.93856 0.0
C558 C 0.66843 0.6804 0.91242 0.0
C559 C 0.72238 0.64112 0.9566 0.0
C560 C 0.31077 0.53778 0.50947 0.0
C561 C 0.34837 0.60475 0.52941 0.0
O562 O 0.30099 0.54686 0.52592 0.0
Zn563 Zn 0.30457 0.57803 0.54364 0.0
O564 O 0.32713 0.54716 0.50053 0.0
Zn565 Zn 0.32818 0.57197 0.51924 0.0
O566 O 0.3353 0.55848 0.55153 0.0
O567 O 0.30798 0.5683 0.57358 0.0
O568 O 0.3523 0.59109 0.51411 0.0
O569 O 0.33115 0.60219 0.54149 0.0
O570 O 0.2779 0.59406 0.53645 0.0
O571 O 0.30046 0.59013 0.50831 0.0
C572 C 0.32629 0.55855 0.57069 0.0
C573 C 0.2823 0.59731 0.51628 0.0
C574 C 0.81218 0.45058 0.98065 0.0
C575 C 0.84983 0.38367 0.96041 0.0
O576 O 0.80242 0.44154 0.96416 0.0
Zn577 Zn 0.80606 0.41049 0.94628 0.0
O578 O 0.82861 0.44123 0.98951 0.0
Zn579 Zn 0.82969 0.41646 0.9707 0.0
O580 O 0.83684 0.43003 0.93847 0.0
O581 O 0.80952 0.42032 0.91636 0.0
O582 O 0.8538 0.39728 0.97575 0.0
O583 O 0.8326 0.38631 0.94835 0.0
O584 O 0.77941 0.3944 0.95339 0.0
O585 O 0.80197 0.39824 0.98155 0.0
C586 C 0.82785 0.43002 0.9193 0.0
C587 C 0.78381 0.39108 0.97356 0.0
C588 C 0.34938 0.53341 0.22405 0.0
C589 C 0.31096 0.57741 0.16939 0.0
O590 O 0.34216 0.55158 0.23197 0.0
Zn591 Zn 0.3241 0.5793 0.22091 0.0
O592 O 0.34625 0.52901 0.20386 0.0
Zn593 Zn 0.33025 0.55567 0.19655 0.0
O594 O 0.35441 0.58222 0.19874 0.0
O595 O 0.34327 0.6034 0.22608 0.0
O596 O 0.32069 0.55908 0.16653 0.0
O597 O 0.3108 0.58641 0.18856 0.0
O598 O 0.29914 0.5783 0.23948 0.0
O599 O 0.29898 0.55215 0.21409 0.0
C600 C 0.35696 0.59945 0.2108 0.0
C601 C 0.2898 0.56194 0.23048 0.0
C602 C 0.16398 0.06101 0.41845 0.0
C603 C 0.20831 0.09935 0.47299 0.0
O604 O 0.15508 0.06089 0.43766 0.0
Zn605 Zn 0.16233 0.07425 0.46996 0.0
O606 O 0.18228 0.07078 0.41547 0.0
Zn607 Zn 0.18586 0.08037 0.44549 0.0
O608 O 0.18935 0.04906 0.463 0.0
O609 O 0.16332 0.04935 0.48852 0.0
O610 O 0.21263 0.09631 0.45276 0.0
O611 O 0.19015 0.09217 0.48092 0.0
O612 O 0.1383 0.09342 0.47527 0.0
O613 O 0.1593 0.10454 0.44778 0.0
C614 C 0.17959 0.03994 0.47945 0.0
C615 C 0.14213 0.10708 0.45996 0.0
C616 C 0.14079 0.45603 0.72354 0.0
C617 C 0.17877 0.41168 0.66883 0.0
O618 O 0.14784 0.4378 0.73144 0.0
Zn619 Zn 0.16555 0.40987 0.72034 0.0
O620 O 0.14385 0.46036 0.70332 0.0
Zn621 Zn 0.15961 0.43354 0.69598 0.0
O622 O 0.13525 0.40714 0.69811 0.0
O623 O 0.14618 0.38596 0.72553 0.0
O624 O 0.16917 0.43007 0.66597 0.0
O625 O 0.17884 0.40267 0.68799 0.0
O626 O 0.19048 0.41058 0.73891 0.0
O627 O 0.19093 0.43675 0.71355 0.0
C628 C 0.13257 0.38995 0.7102 0.0
C629 C 0.19999 0.42685 0.72995 0.0
C630 C 0.67833 0.45187 0.50878 0.0
C631 C 0.64048 0.38515 0.52922 0.0
O632 O 0.68802 0.4429 0.52534 0.0
Zn633 Zn 0.68426 0.41197 0.54337 0.0
O634 O 0.6619 0.44251 0.49993 0.0
Zn635 Zn 0.66069 0.41787 0.51887 0.0
O636 O 0.65349 0.43161 0.55102 0.0
O637 O 0.68076 0.42197 0.57321 0.0
O638 O 0.63655 0.39872 0.51385 0.0
O639 O 0.65769 0.3878 0.54131 0.0
O640 O 0.71089 0.39579 0.53645 0.0
O641 O 0.6884 0.39949 0.50821 0.0
C642 C 0.66245 0.43169 0.5702 0.0
C643 C 0.70652 0.39234 0.5163 0.0
C644 C 0.30892 0.91187 0.32082 0.0
C645 C 0.34816 0.95605 0.26687 0.0
O646 O 0.30898 0.90296 0.30161 0.0
Zn647 Zn 0.32269 0.91023 0.26945 0.0
O648 O 0.31862 0.93017 0.32387 0.0
Zn649 Zn 0.32857 0.93374 0.294 0.0
O650 O 0.29753 0.9374 0.27608 0.0
O651 O 0.298 0.9114 0.25056 0.0
O652 O 0.34471 0.96042 0.28702 0.0
O653 O 0.34102 0.93793 0.2588 0.0
O654 O 0.34182 0.8861 0.26439 0.0
O655 O 0.35271 0.90714 0.29194 0.0
C656 C 0.28857 0.92772 0.25951 0.0
C657 C 0.35535 0.88996 0.27982 0.0
C658 C 0.68039 0.57813 0.82027 0.0
C659 C 0.64189 0.53446 0.76548 0.0
O660 O 0.68065 0.58721 0.80114 0.0
Zn661 Zn 0.66742 0.58021 0.76871 0.0
O662 O 0.67062 0.55981 0.82301 0.0
Zn663 Zn 0.66115 0.55654 0.79298 0.0
O664 O 0.69243 0.55293 0.77547 0.0
O665 O 0.69237 0.57915 0.75017 0.0
O666 O 0.64507 0.52999 0.78565 0.0
O667 O 0.64917 0.55261 0.75758 0.0
O668 O 0.64838 0.60441 0.76354 0.0
O669 O 0.63706 0.58317 0.79077 0.0
C670 C 0.70165 0.56273 0.75911 0.0
C671 C 0.63461 0.60044 0.77874 0.0
C672 C 0.51006 0.31161 0.53915 0.0
C673 C 0.5302 0.35014 0.60552 0.0
O674 O 0.52668 0.30208 0.54821 0.0
Zn675 Zn 0.54461 0.30617 0.57916 0.0
O676 O 0.50111 0.32804 0.54838 0.0
Zn677 Zn 0.52 0.32955 0.57303 0.0
O678 O 0.55215 0.33683 0.55933 0.0
O679 O 0.57449 0.30977 0.56923 0.0
O680 O 0.5148 0.35384 0.59191 0.0
O681 O 0.54239 0.33297 0.60307 0.0
O682 O 0.53774 0.27964 0.59557 0.0
O683 O 0.50943 0.30201 0.59165 0.0
C684 C 0.5714 0.32799 0.55939 0.0
C685 C 0.51757 0.284 0.59898 0.0
C686 C 0.41218 0.32021 0.81078 0.0
C687 C 0.4564 0.26606 0.84969 0.0
O688 O 0.40331 0.30098 0.81069 0.0
Zn689 Zn 0.41057 0.26876 0.82422 0.0
O690 O 0.43043 0.32325 0.82062 0.0
Zn691 Zn 0.43402 0.29332 0.83038 0.0
O692 O 0.43782 0.27563 0.79924 0.0
O693 O 0.41184 0.25007 0.79938 0.0
O694 O 0.46067 0.28627 0.84651 0.0
O695 O 0.43831 0.25799 0.84244 0.0
O696 O 0.38641 0.26351 0.84329 0.0
O697 O 0.40737 0.29103 0.85442 0.0
C698 C 0.4282 0.25913 0.79009 0.0
C699 C 0.39021 0.27885 0.85694 0.0
C700 C 0.47264 0.20645 0.09831 0.0
C701 C 0.41825 0.16226 0.05973 0.0
O702 O 0.4806 0.18824 0.09129 0.0
Zn703 Zn 0.46967 0.1604 0.07331 0.0
O704 O 0.45247 0.21085 0.09499 0.0
Zn705 Zn 0.4453 0.18409 0.07909 0.0
O706 O 0.44725 0.15766 0.10345 0.0
O707 O 0.4747 0.13645 0.09263 0.0
O708 O 0.41537 0.18068 0.06928 0.0
O709 O 0.4374 0.15322 0.05978 0.0
O710 O 0.48851 0.16118 0.04859 0.0
O711 O 0.46323 0.18743 0.04798 0.0
C712 C 0.45932 0.14044 0.10617 0.0
C713 C 0.47971 0.17754 0.03907 0.0
C714 C 0.56196 0.23121 0.28838 0.0
C715 C 0.59974 0.21081 0.35516 0.0
O716 O 0.55228 0.21464 0.29735 0.0
Zn717 Zn 0.556 0.19663 0.3283 0.0
O718 O 0.57834 0.24011 0.29777 0.0
Zn719 Zn 0.57953 0.22118 0.32244 0.0
O720 O 0.58681 0.18905 0.3087 0.0
O721 O 0.55957 0.1668 0.31829 0.0
O722 O 0.60364 0.22623 0.34164 0.0
O723 O 0.58255 0.19869 0.35248 0.0
O724 O 0.52933 0.20355 0.34444 0.0
O725 O 0.55178 0.23181 0.34075 0.0
C726 C 0.57789 0.16985 0.3086 0.0
C727 C 0.53367 0.22371 0.34788 0.0
C728 C 0.50985 0.67801 0.45137 0.0
C729 C 0.53007 0.64076 0.38432 0.0
O730 O 0.5262 0.68799 0.44232 0.0
Zn731 Zn 0.54395 0.68463 0.41111 0.0
O732 O 0.50113 0.66153 0.44199 0.0
Zn733 Zn 0.51982 0.66078 0.41717 0.0
O734 O 0.55223 0.65395 0.43055 0.0
O735 O 0.57397 0.68152 0.42073 0.0
O736 O 0.51484 0.63669 0.39802 0.0
O737 O 0.54202 0.65807 0.38688 0.0
O738 O 0.53647 0.71124 0.39514 0.0
O739 O 0.50854 0.68844 0.39914 0.0
C740 C 0.5713 0.66316 0.43042 0.0
C741 C 0.51632 0.70667 0.39198 0.0
C742 C 0.06071 0.25928 0.70069 0.0
C743 C 0.09837 0.27895 0.63371 0.0
O744 O 0.05091 0.2757 0.69155 0.0
Zn745 Zn 0.0545 0.29328 0.66028 0.0
O746 O 0.07709 0.25033 0.69135 0.0
Zn747 Zn 0.0781 0.26894 0.66649 0.0
O748 O 0.08516 0.30128 0.67988 0.0
O749 O 0.05787 0.32329 0.66987 0.0
O750 O 0.10224 0.26371 0.64743 0.0
O751 O 0.08114 0.29106 0.63617 0.0
O752 O 0.02784 0.28598 0.64423 0.0
O753 O 0.05039 0.25787 0.64841 0.0
C754 C 0.07614 0.32044 0.6797 0.0
C755 C 0.03224 0.26577 0.64116 0.0
C756 C 0.48024 0.81084 0.95119 0.0
C757 C 0.46046 0.84939 0.88477 0.0
O758 O 0.46374 0.80124 0.942 0.0
Zn759 Zn 0.44606 0.80528 0.91088 0.0
O760 O 0.4892 0.82732 0.94204 0.0
Zn761 Zn 0.4705 0.82876 0.91727 0.0
O762 O 0.4382 0.83581 0.93075 0.0
O763 O 0.41608 0.80867 0.92057 0.0
O764 O 0.47574 0.85312 0.89851 0.0
O765 O 0.44833 0.83217 0.88706 0.0
O766 O 0.45321 0.77883 0.89446 0.0
O767 O 0.48138 0.80131 0.89868 0.0
C768 C 0.41901 0.82687 0.93052 0.0
C769 C 0.47339 0.78328 0.89125 0.0
C770 C 0.9288 0.22969 0.20201 0.0
C771 C 0.89109 0.20977 0.13512 0.0
O772 O 0.93862 0.21327 0.1929 0.0
Zn773 Zn 0.93499 0.19557 0.16172 0.0
O774 O 0.91235 0.23854 0.19269 0.0
Zn775 Zn 0.91131 0.21986 0.16788 0.0
O776 O 0.9043 0.18751 0.18126 0.0
O777 O 0.9317 0.16559 0.17133 0.0
O778 O 0.88713 0.22499 0.14885 0.0
O779 O 0.90835 0.19772 0.13759 0.0
O780 O 0.96158 0.20284 0.14561 0.0
O781 O 0.93893 0.2309 0.14963 0.0
C782 C 0.91338 0.16838 0.18109 0.0
C783 C 0.95709 0.223 0.14238 0.0
C784 C 0.56127 0.07126 0.82712 0.0
C785 C 0.5993 0.01687 0.78235 0.0
O786 O 0.56139 0.05207 0.83607 0.0
Zn787 Zn 0.5748 0.01981 0.82866 0.0
O788 O 0.57072 0.07424 0.80867 0.0
Zn789 Zn 0.58042 0.04428 0.80502 0.0
O790 O 0.54913 0.02658 0.80205 0.0
O791 O 0.54996 0.0011 0.82809 0.0
O792 O 0.59603 0.03706 0.77805 0.0
O793 O 0.59242 0.0089 0.80062 0.0
O794 O 0.59437 0.01467 0.85241 0.0
O795 O 0.60498 0.04223 0.83125 0.0
C796 C 0.54023 0.01011 0.81197 0.0
C797 C 0.60786 0.0301 0.84838 0.0
C798 C 0.73027 0.28876 0.06206 0.0
C799 C 0.71003 0.35584 0.0993 0.0
O800 O 0.71389 0.2978 0.05211 0.0
Zn801 Zn 0.69613 0.32899 0.05547 0.0
O802 O 0.73905 0.29818 0.07848 0.0
Zn803 Zn 0.72033 0.32299 0.07927 0.0
O804 O 0.68796 0.30957 0.08618 0.0
O805 O 0.66613 0.31933 0.05865 0.0
O806 O 0.72531 0.34219 0.10335 0.0
O807 O 0.69805 0.35324 0.08201 0.0
O808 O 0.7035 0.34496 0.02884 0.0
O809 O 0.73151 0.34105 0.05157 0.0
C810 C 0.66886 0.30965 0.07702 0.0
C811 C 0.72366 0.34819 0.03335 0.0
C812 C 0.39186 0.47333 0.2842 0.0
C813 C 0.43044 0.41876 0.32816 0.0
O814 O 0.3989 0.48122 0.30244 0.0
Zn815 Zn 0.4169 0.47017 0.33023 0.0
O816 O 0.39518 0.45318 0.27972 0.0
Zn817 Zn 0.41109 0.44589 0.30643 0.0
O818 O 0.38673 0.44777 0.33285 0.0
O819 O 0.39755 0.47508 0.35423 0.0
O820 O 0.42087 0.41595 0.30974 0.0
O821 O 0.4304 0.43788 0.33727 0.0
O822 O 0.44171 0.48896 0.32947 0.0
O823 O 0.44221 0.46376 0.30315 0.0
C824 C 0.38399 0.45973 0.35012 0.0
C825 C 0.45119 0.48017 0.31309 0.0
C826 C 0.26103 0.20081 0.56189 0.0
C827 C 0.28163 0.13403 0.59941 0.0
O828 O 0.27759 0.19194 0.55209 0.0
Zn829 Zn 0.29568 0.16095 0.55567 0.0
O830 O 0.25228 0.19136 0.57831 0.0
Zn831 Zn 0.27124 0.16676 0.57928 0.0
O832 O 0.30341 0.18048 0.58647 0.0
O833 O 0.32557 0.17094 0.55914 0.0
O834 O 0.2662 0.14755 0.6033 0.0
O835 O 0.29374 0.1367 0.58222 0.0
O836 O 0.28863 0.14488 0.52895 0.0
O837 O 0.26046 0.14861 0.5515 0.0
C838 C 0.32259 0.18058 0.57749 0.0
C839 C 0.26846 0.14152 0.53333 0.0
C840 C 0.59854 0.97461 0.20505 0.0
C841 C 0.55994 0.91992 0.16133 0.0
O842 O 0.59126 0.98253 0.18692 0.0
Zn843 Zn 0.57305 0.97144 0.15927 0.0
O844 O 0.59542 0.95442 0.20947 0.0
Zn845 Zn 0.57931 0.94714 0.18292 0.0
O846 O 0.60338 0.94933 0.15628 0.0
O847 O 0.59211 0.97659 0.13508 0.0
O848 O 0.56973 0.91715 0.17963 0.0
O849 O 0.55972 0.93906 0.15226 0.0
O850 O 0.54812 0.99003 0.16037 0.0
O851 O 0.54812 0.96476 0.18662 0.0
C852 C 0.60585 0.96137 0.13902 0.0
C853 C 0.5389 0.98114 0.17685 0.0
C854 C 0.7665 0.34858 0.45699 0.0
C855 C 0.8211 0.30969 0.41335 0.0
O856 O 0.75858 0.34124 0.43889 0.0
Zn857 Zn 0.76958 0.32287 0.41136 0.0
O858 O 0.78668 0.34539 0.46147 0.0
Zn859 Zn 0.79394 0.32916 0.43494 0.0
O860 O 0.79171 0.35314 0.4082 0.0
O861 O 0.76437 0.34177 0.38711 0.0
O862 O 0.82395 0.31956 0.4316 0.0
O863 O 0.80193 0.30948 0.40434 0.0
O864 O 0.75093 0.29805 0.41256 0.0
O865 O 0.77632 0.29795 0.43871 0.0
C866 C 0.77961 0.35553 0.39096 0.0
C867 C 0.75988 0.28879 0.42899 0.0
C868 C 0.42856 0.57006 0.66236 0.0
C869 C 0.39028 0.51531 0.70637 0.0
O870 O 0.42881 0.55088 0.65339 0.0
Zn871 Zn 0.41562 0.51847 0.66054 0.0
O872 O 0.41876 0.57291 0.68065 0.0
Zn873 Zn 0.40933 0.54287 0.68411 0.0
O874 O 0.44071 0.52551 0.68765 0.0
O875 O 0.44064 0.50002 0.66161 0.0
O876 O 0.39333 0.53552 0.71076 0.0
O877 O 0.39754 0.5074 0.68824 0.0
O878 O 0.39653 0.51318 0.6364 0.0
O879 O 0.38524 0.54052 0.65751 0.0
C880 C 0.44996 0.50914 0.67791 0.0
C881 C 0.38278 0.52841 0.64029 0.0
C882 C 0.21005 0.13367 0.89054 0.0
C883 C 0.22962 0.20033 0.92885 0.0
O884 O 0.19782 0.13606 0.90769 0.0
Zn885 Zn 0.19543 0.16001 0.93444 0.0
O886 O 0.22536 0.14738 0.88684 0.0
Zn887 Zn 0.21999 0.1663 0.91106 0.0
O888 O 0.23075 0.14794 0.93869 0.0
O889 O 0.20246 0.14377 0.96103 0.0
O890 O 0.23866 0.19111 0.91245 0.0
O891 O 0.21309 0.19116 0.93842 0.0
O892 O 0.16547 0.16971 0.93086 0.0
O893 O 0.18773 0.17975 0.90378 0.0
C894 C 0.22268 0.1406 0.95673 0.0
C895 C 0.16849 0.17957 0.91263 0.0
C896 C 0.78335 0.09737 0.51489 0.0
C897 C 0.8273 0.05832 0.56908 0.0
O898 O 0.8015 0.09022 0.50688 0.0
Zn899 Zn 0.82924 0.07199 0.51772 0.0
O900 O 0.77897 0.09404 0.53506 0.0
Zn901 Zn 0.80561 0.07794 0.54212 0.0
O902 O 0.83219 0.10211 0.54013 0.0
O903 O 0.85338 0.09116 0.51272 0.0
O904 O 0.80898 0.06803 0.57199 0.0
O905 O 0.83634 0.05834 0.54994 0.0
O906 O 0.82818 0.04726 0.49886 0.0
O907 O 0.80197 0.04692 0.52418 0.0
C908 C 0.84943 0.10474 0.52809 0.0
C909 C 0.81174 0.0379 0.50769 0.0
C910 C 0.31171 0.95038 0.98077 0.0
C911 C 0.34953 0.88357 0.9606 0.0
O912 O 0.30203 0.94136 0.96422 0.0
Zn913 Zn 0.30577 0.91034 0.9463 0.0
O914 O 0.32812 0.94104 0.98968 0.0
Zn915 Zn 0.32931 0.91633 0.97083 0.0
O916 O 0.33656 0.92998 0.93867 0.0
O917 O 0.30937 0.92025 0.91641 0.0
O918 O 0.35342 0.89717 0.97596 0.0
O919 O 0.33235 0.88619 0.94846 0.0
O920 O 0.27909 0.8942 0.95333 0.0
O921 O 0.30156 0.89809 0.98155 0.0
C922 C 0.32766 0.93 0.91946 0.0
C923 C 0.28344 0.89091 0.97351 0.0
C924 C 0.84948 0.03239 0.22301 0.0
C925 C 0.81097 0.07676 0.16869 0.0
O926 O 0.84223 0.05047 0.23106 0.0
Zn927 Zn 0.82404 0.0782 0.22025 0.0
O928 O 0.84627 0.0281 0.2028 0.0
Zn929 Zn 0.83023 0.05481 0.1957 0.0
O930 O 0.85436 0.0814 0.1982 0.0
O931 O 0.84308 0.10229 0.22571 0.0
O932 O 0.82075 0.05848 0.16569 0.0
O933 O 0.81076 0.0856 0.18793 0.0
O934 O 0.79912 0.07701 0.2388 0.0
O935 O 0.79888 0.05117 0.2131 0.0
C936 C 0.85683 0.09852 0.21045 0.0
C937 C 0.78972 0.0608 0.2296 0.0
C938 C 0.7076 0.5994 0.47292 0.0
C939 C 0.66345 0.56112 0.41824 0.0
O940 O 0.68946 0.59213 0.48083 0.0
Zn941 Zn 0.6617 0.57416 0.46979 0.0
O942 O 0.71192 0.59646 0.45268 0.0
Zn943 Zn 0.68522 0.58046 0.44536 0.0
O944 O 0.65858 0.60455 0.44776 0.0
O945 O 0.63761 0.59322 0.47518 0.0
O946 O 0.68171 0.57096 0.41533 0.0
O947 O 0.65452 0.56089 0.43744 0.0
O948 O 0.66276 0.54923 0.48828 0.0
O949 O 0.68885 0.54912 0.46282 0.0
C950 C 0.64141 0.60698 0.45995 0.0
C951 C 0.67911 0.53993 0.47923 0.0
C952 C 0.6409 0.95675 0.72156 0.0
C953 C 0.67875 0.91249 0.66662 0.0
O954 O 0.64801 0.93851 0.72938 0.0
Zn955 Zn 0.66576 0.91067 0.71819 0.0
O956 O 0.64395 0.96117 0.70136 0.0
Zn957 Zn 0.65972 0.93436 0.69388 0.0
O958 O 0.63539 0.90792 0.69609 0.0
O959 O 0.64647 0.88675 0.72345 0.0
O960 O 0.66913 0.93089 0.6638 0.0
O961 O 0.67891 0.90349 0.68579 0.0
O962 O 0.69074 0.91136 0.73667 0.0
O963 O 0.69116 0.93753 0.71131 0.0
C964 C 0.63278 0.89072 0.70819 0.0
C965 C 0.70025 0.92761 0.72767 0.0
C966 C 0.17811 0.95174 0.50854 0.0
C967 C 0.13965 0.88523 0.52855 0.0
O968 O 0.18775 0.94253 0.525 0.0
Zn969 Zn 0.18374 0.91149 0.54276 0.0
O970 O 0.16156 0.94262 0.49965 0.0
Zn971 Zn 0.16015 0.91782 0.51839 0.0
O972 O 0.1532 0.93137 0.55068 0.0
O973 O 0.18044 0.92126 0.5727 0.0
O974 O 0.13577 0.89898 0.51331 0.0
O975 O 0.15694 0.88761 0.54058 0.0
O976 O 0.21017 0.89511 0.53563 0.0
O977 O 0.18762 0.89922 0.50749 0.0
C978 C 0.16222 0.93118 0.56983 0.0
C979 C 0.20568 0.89182 0.51548 0.0
C980 C 0.84781 0.4562 0.26678 0.0
C981 C 0.80926 0.41213 0.32124 0.0
O982 O 0.84072 0.438 0.25884 0.0
Zn983 Zn 0.8227 0.4102 0.26981 0.0
O984 O 0.84458 0.46059 0.28696 0.0
Zn985 Zn 0.82863 0.43388 0.29416 0.0
O986 O 0.85291 0.4074 0.29213 0.0
O987 O 0.84197 0.38616 0.26475 0.0
O988 O 0.81889 0.4305 0.3241 0.0
O989 O 0.80924 0.40308 0.3021 0.0
O990 O 0.79788 0.41107 0.25107 0.0
O991 O 0.79748 0.43732 0.27636 0.0
C992 C 0.85557 0.39017 0.28009 0.0
C993 C 0.78845 0.42746 0.25992 0.0
C994 C 0.18066 0.07733 0.82048 0.0
C995 C 0.14228 0.03349 0.76568 0.0
O996 O 0.18079 0.08643 0.80136 0.0
Zn997 Zn 0.16751 0.0794 0.76896 0.0
O998 O 0.171 0.05895 0.82322 0.0
Zn999 Zn 0.16145 0.05564 0.79321 0.0
O1000 O 0.19272 0.05227 0.77561 0.0
O1001 O 0.19244 0.07853 0.75035 0.0
O1002 O 0.14551 0.02898 0.78584 0.0
O1003 O 0.14944 0.05169 0.75782 0.0
O1004 O 0.14829 0.10347 0.76389 0.0
O1005 O 0.13718 0.08213 0.79111 0.0
C1006 C 0.20184 0.06216 0.75924 0.0
C1007 C 0.13459 0.0994 0.77911 0.0
C1008 C 0.53007 0.84974 0.10539 0.0
C1009 C 0.50994 0.8111 0.03909 0.0
O1010 O 0.54228 0.83258 0.10296 0.0
Zn1011 Zn 0.5445 0.80573 0.07911 0.0
O1012 O 0.51463 0.85338 0.0918 0.0
Zn1013 Zn 0.51985 0.82907 0.07295 0.0
O1014 O 0.50931 0.80153 0.09157 0.0
O1015 O 0.53763 0.77919 0.09554 0.0
O1016 O 0.50095 0.82752 0.04831 0.0
O1017 O 0.52657 0.8016 0.04815 0.0
O1018 O 0.57436 0.80933 0.06913 0.0
O1019 O 0.55198 0.83635 0.0592 0.0
C1020 C 0.51745 0.78352 0.09891 0.0
C1021 C 0.57124 0.82753 0.05924 0.0
C1022 C 0.38962 0.77892 0.35612 0.0
C1023 C 0.42805 0.75934 0.28952 0.0
O1024 O 0.40679 0.79112 0.35374 0.0
Zn1025 Zn 0.43358 0.7935 0.32985 0.0
O1026 O 0.38593 0.76361 0.3424 0.0
Zn1027 Zn 0.4102 0.76896 0.32352 0.0
O1028 O 0.43783 0.75819 0.34193 0.0
O1029 O 0.46013 0.7865 0.34613 0.0
O1030 O 0.41162 0.7503 0.29869 0.0
O1031 O 0.43761 0.77585 0.29872 0.0
O1032 O 0.43006 0.82343 0.32016 0.0
O1033 O 0.40296 0.80123 0.31005 0.0
C1034 C 0.45586 0.76628 0.34929 0.0
C1035 C 0.41185 0.82045 0.31026 0.0
C1036 C 0.47191 0.70565 0.59853 0.0
C1037 C 0.41775 0.66165 0.55941 0.0
O1038 O 0.47992 0.6875 0.59139 0.0
Zn1039 Zn 0.46912 0.65981 0.57312 0.0
O1040 O 0.45175 0.71007 0.59516 0.0
Zn1041 Zn 0.44468 0.68342 0.57903 0.0
O1042 O 0.44666 0.65683 0.60319 0.0
O1043 O 0.47414 0.63571 0.59227 0.0
O1044 O 0.41479 0.67998 0.56909 0.0
O1045 O 0.43692 0.65266 0.55945 0.0
O1046 O 0.48804 0.66088 0.54847 0.0
O1047 O 0.46271 0.68708 0.54805 0.0
C1048 C 0.45874 0.63961 0.60582 0.0
C1049 C 0.47925 0.67732 0.5391 0.0
C1050 C 0.56198 0.73104 0.78823 0.0
C1051 C 0.59943 0.7108 0.85526 0.0
O1052 O 0.55223 0.71454 0.79723 0.0
Zn1053 Zn 0.55577 0.69664 0.82828 0.0
O1054 O 0.57834 0.73995 0.79766 0.0
Zn1055 Zn 0.57938 0.72112 0.82241 0.0
O1056 O 0.58662 0.68893 0.80882 0.0
O1057 O 0.55931 0.66675 0.8184 0.0
O1058 O 0.60343 0.72617 0.8417 0.0
O1059 O 0.58223 0.69872 0.85255 0.0
O1060 O 0.52904 0.70369 0.84429 0.0
O1061 O 0.55157 0.73189 0.84056 0.0
C1062 C 0.57766 0.66974 0.80876 0.0
C1063 C 0.53341 0.72386 0.84765 0.0
C1064 C 0.51696 0.20626 0.89199 0.0
C1065 C 0.57192 0.16267 0.9304 0.0
O1066 O 0.50919 0.18799 0.89909 0.0
Zn1067 Zn 0.52047 0.16028 0.91706 0.0
O1068 O 0.53712 0.21082 0.89518 0.0
Zn1069 Zn 0.54459 0.18418 0.91111 0.0
O1070 O 0.54277 0.15767 0.88681 0.0
O1071 O 0.51558 0.13623 0.89781 0.0
O1072 O 0.57459 0.18108 0.92079 0.0
O1073 O 0.55286 0.15345 0.93046 0.0
O1074 O 0.50174 0.16095 0.94187 0.0
O1075 O 0.52675 0.18746 0.94227 0.0
C1076 C 0.53086 0.14034 0.88419 0.0
C1077 C 0.5104 0.17743 0.95129 0.0
C1078 C 0.03307 0.76599 0.14106 0.0
C1079 C 0.07703 0.82024 0.18004 0.0
O1080 O 0.0512 0.75797 0.14826 0.0
Zn1081 Zn 0.07892 0.76883 0.16649 0.0
O1082 O 0.02872 0.78617 0.14431 0.0
Zn1083 Zn 0.05535 0.79325 0.16044 0.0
O1084 O 0.082 0.79117 0.13634 0.0
O1085 O 0.10308 0.76372 0.14741 0.0
O1086 O 0.05873 0.82316 0.17027 0.0
O1087 O 0.08604 0.80108 0.18009 0.0
O1088 O 0.07781 0.75003 0.19123 0.0
O1089 O 0.05162 0.77537 0.1915 0.0
C1090 C 0.09922 0.77907 0.13379 0.0
C1091 C 0.06136 0.75888 0.20054 0.0
C1092 C 0.48015 0.31089 0.45129 0.0
C1093 C 0.46019 0.34899 0.38465 0.0
O1094 O 0.46372 0.30113 0.44214 0.0
Zn1095 Zn 0.44603 0.30492 0.41097 0.0
O1096 O 0.48901 0.32738 0.44206 0.0
Zn1097 Zn 0.47032 0.32856 0.41727 0.0
O1098 O 0.43796 0.33548 0.43071 0.0
O1099 O 0.41603 0.30816 0.42063 0.0
O1100 O 0.47544 0.35284 0.39839 0.0
O1101 O 0.44814 0.33171 0.38702 0.0
O1102 O 0.45333 0.27843 0.39469 0.0
O1103 O 0.48138 0.30107 0.39886 0.0
C1104 C 0.41882 0.32641 0.43051 0.0
C1105 C 0.4735 0.28295 0.3915 0.0
C1106 C 0.92926 0.72996 0.70109 0.0
C1107 C 0.89144 0.71033 0.63416 0.0
O1108 O 0.93905 0.71359 0.69187 0.0
Zn1109 Zn 0.9354 0.69606 0.6606 0.0
O1110 O 0.91282 0.7389 0.69184 0.0
Zn1111 Zn 0.91172 0.72034 0.66694 0.0
O1112 O 0.9048 0.68798 0.68028 0.0
O1113 O 0.9321 0.66602 0.67016 0.0
O1114 O 0.88751 0.72551 0.64794 0.0
O1115 O 0.90871 0.69828 0.63657 0.0
O1116 O 0.96197 0.70348 0.64448 0.0
O1117 O 0.93932 0.73149 0.64876 0.0
C1118 C 0.91385 0.66884 0.68005 0.0
C1119 C 0.95748 0.72366 0.64143 0.0
C1120 C 0.56017 0.57149 0.32739 0.0
C1121 C 0.59853 0.51699 0.28309 0.0
O1122 O 0.56026 0.55234 0.33643 0.0
Zn1123 Zn 0.57374 0.52007 0.32924 0.0
O1124 O 0.56969 0.57438 0.30896 0.0
Zn1125 Zn 0.57944 0.54443 0.3055 0.0
O1126 O 0.54823 0.52663 0.3024 0.0
O1127 O 0.54894 0.5013 0.3286 0.0
O1128 O 0.59522 0.53715 0.27867 0.0
O1129 O 0.59156 0.50908 0.30134 0.0
O1130 O 0.59319 0.51508 0.35312 0.0
O1131 O 0.60389 0.54251 0.33184 0.0
C1132 C 0.53932 0.51018 0.31235 0.0
C1133 C 0.6067 0.53047 0.34905 0.0
C1134 C 0.70864 0.85547 0.59732 0.0
C1135 C 0.72921 0.78835 0.56039 0.0
O1136 O 0.69659 0.85271 0.5801 0.0
Zn1137 Zn 0.69472 0.82828 0.55369 0.0
O1138 O 0.72402 0.84193 0.60136 0.0
Zn1139 Zn 0.71904 0.82259 0.57744 0.0
O1140 O 0.72998 0.84056 0.54962 0.0
O1141 O 0.70192 0.84417 0.52691 0.0
O1142 O 0.73795 0.79794 0.57674 0.0
O1143 O 0.71271 0.79719 0.55045 0.0
O1144 O 0.66478 0.81842 0.55708 0.0
O1145 O 0.6868 0.80899 0.58458 0.0
C1146 C 0.72206 0.84756 0.53138 0.0
C1147 C 0.66766 0.80889 0.5755 0.0
C1148 C 0.4309 0.91942 0.82847 0.0
C1149 C 0.39247 0.97397 0.78441 0.0
O1150 O 0.43095 0.93856 0.83755 0.0
Zn1151 Zn 0.41756 0.9709 0.83043 0.0
O1152 O 0.4213 0.91662 0.81007 0.0
Zn1153 Zn 0.41162 0.94657 0.80672 0.0
O1154 O 0.44281 0.96429 0.80334 0.0
O1155 O 0.44245 0.98958 0.82958 0.0
O1156 O 0.39572 0.95379 0.78002 0.0
O1157 O 0.39956 0.98192 0.80261 0.0
O1158 O 0.39826 0.97594 0.85446 0.0
O1159 O 0.38732 0.9486 0.83317 0.0
C1160 C 0.45188 0.9807 0.81321 0.0
C1161 C 0.38465 0.96062 0.85042 0.0
C1162 C 0.26763 0.64123 0.03384 0.0
C1163 C 0.32217 0.6802 0.07752 0.0
O1164 O 0.25973 0.64847 0.05199 0.0
Zn1165 Zn 0.27073 0.66676 0.07958 0.0
O1166 O 0.28779 0.64449 0.02933 0.0
Zn1167 Zn 0.29506 0.66066 0.05591 0.0
O1168 O 0.29303 0.63657 0.08257 0.0
O1169 O 0.26569 0.64771 0.10376 0.0
O1170 O 0.32503 0.67043 0.05922 0.0
O1171 O 0.30302 0.68029 0.08657 0.0
O1172 O 0.25195 0.6915 0.07852 0.0
O1173 O 0.27722 0.69176 0.05225 0.0
C1174 C 0.28099 0.63405 0.09983 0.0
C1175 C 0.26076 0.70081 0.06205 0.0
C1176 C 0.55996 0.42012 0.66178 0.0
C1177 C 0.59849 0.47477 0.70563 0.0
O1178 O 0.55968 0.43929 0.6528 0.0
Zn1179 Zn 0.57288 0.4717 0.65992 0.0
O1180 O 0.56978 0.4173 0.68006 0.0
Zn1181 Zn 0.57922 0.44732 0.68347 0.0
O1182 O 0.54791 0.46471 0.68719 0.0
O1183 O 0.54787 0.49019 0.66114 0.0
O1184 O 0.59533 0.45458 0.71003 0.0
O1185 O 0.59117 0.48273 0.68753 0.0
O1186 O 0.59187 0.47698 0.63569 0.0
O1187 O 0.60325 0.44969 0.65682 0.0
C1188 C 0.53863 0.4811 0.6775 0.0
C1189 C 0.60566 0.46178 0.63959 0.0
C1190 C 0.76614 0.84864 0.95551 0.0
C1191 C 0.82052 0.80938 0.91197 0.0
O1192 O 0.75812 0.84119 0.93749 0.0
Zn1193 Zn 0.76903 0.82264 0.91 0.0
O1194 O 0.78635 0.84553 0.95987 0.0
Zn1195 Zn 0.79346 0.8291 0.93346 0.0
O1196 O 0.7912 0.85285 0.90652 0.0
O1197 O 0.76378 0.84137 0.88561 0.0
O1198 O 0.82341 0.81937 0.93014 0.0
O1199 O 0.80134 0.80912 0.90299 0.0
O1200 O 0.75034 0.79785 0.91147 0.0
O1201 O 0.77573 0.79802 0.93762 0.0
C1202 C 0.77906 0.85511 0.88929 0.0
C1203 C 0.75925 0.78879 0.92802 0.0
C1204 C 0.39108 0.01626 0.20714 0.0
C1205 C 0.42912 0.07107 0.16294 0.0
O1206 O 0.39824 0.0084 0.18894 0.0
Zn1207 Zn 0.41609 0.01951 0.16114 0.0
O1208 O 0.39414 0.03647 0.21154 0.0
Zn1209 Zn 0.40999 0.04387 0.18478 0.0
O1210 O 0.38571 0.04159 0.15832 0.0
O1211 O 0.39684 0.01424 0.13716 0.0
O1212 O 0.41943 0.07393 0.18129 0.0
O1213 O 0.42929 0.0519 0.15395 0.0
O1214 O 0.44106 0.00101 0.16196 0.0
O1215 O 0.44139 0.02644 0.18808 0.0
C1216 C 0.38313 0.02948 0.14113 0.0
C1217 C 0.45052 0.01006 0.17822 0.0
C1218 C 0.22875 0.69997 0.42816 0.0
C1219 C 0.20945 0.63301 0.39027 0.0
O1220 O 0.2123 0.69077 0.43784 0.0
Zn1221 Zn 0.19485 0.65946 0.43412 0.0
O1222 O 0.23783 0.69068 0.41182 0.0
Zn1223 Zn 0.21931 0.66575 0.41063 0.0
O1224 O 0.18694 0.67898 0.4034 0.0
O1225 O 0.16481 0.66893 0.43059 0.0
O1226 O 0.22469 0.64677 0.38648 0.0
O1227 O 0.19726 0.63541 0.40745 0.0
O1228 O 0.20207 0.64336 0.46074 0.0
O1229 O 0.23026 0.64756 0.43829 0.0
C1230 C 0.16773 0.67873 0.41231 0.0
C1231 C 0.22229 0.64025 0.45638 0.0
C1232 C 0.81106 0.53872 0.01019 0.0
C1233 C 0.84829 0.60595 0.02988 0.0
O1234 O 0.80121 0.5478 0.02661 0.0
Zn1235 Zn 0.80457 0.57911 0.04417 0.0
O1236 O 0.82736 0.54818 0.00121 0.0
Zn1237 Zn 0.82821 0.57307 0.01981 0.0
O1238 O 0.83538 0.55975 0.05215 0.0
O1239 O 0.80801 0.56955 0.07417 0.0
O1240 O 0.85223 0.59228 0.0146 0.0
O1241 O 0.83109 0.60337 0.04199 0.0
O1242 O 0.77782 0.59501 0.03686 0.0
O1243 O 0.8004 0.59099 0.00876 0.0
C1244 C 0.82636 0.55986 0.07131 0.0
C1245 C 0.78222 0.59813 0.01665 0.0
C1246 C 0.34898 0.38272 0.46046 0.0
C1247 C 0.3111 0.4496 0.48019 0.0
O1248 O 0.33182 0.38524 0.44828 0.0
Zn1249 Zn 0.30519 0.40932 0.44599 0.0
O1250 O 0.35279 0.39637 0.47579 0.0
Zn1251 Zn 0.32867 0.41547 0.47053 0.0
O1252 O 0.30092 0.39731 0.48133 0.0
O1253 O 0.27851 0.39321 0.4531 0.0
O1254 O 0.32746 0.44029 0.48922 0.0
O1255 O 0.30144 0.44047 0.46369 0.0
O1256 O 0.3088 0.41907 0.41605 0.0
O1257 O 0.33593 0.42897 0.43831 0.0
C1258 C 0.28282 0.39007 0.47331 0.0
C1259 C 0.32706 0.42889 0.41908 0.0
C1260 C 0.84947 0.53341 0.72368 0.0
C1261 C 0.81122 0.57756 0.66898 0.0
O1262 O 0.84234 0.55161 0.73157 0.0
Zn1263 Zn 0.8244 0.5794 0.7205 0.0
O1264 O 0.84631 0.52899 0.70349 0.0
Zn1265 Zn 0.83042 0.55573 0.69615 0.0
O1266 O 0.85471 0.58217 0.69832 0.0
O1267 O 0.84368 0.60339 0.72568 0.0
O1268 O 0.82087 0.55919 0.66613 0.0
O1269 O 0.81111 0.58657 0.68815 0.0
O1270 O 0.79948 0.57855 0.73909 0.0
O1271 O 0.79913 0.55239 0.71372 0.0
C1272 C 0.85734 0.59939 0.7104 0.0
C1273 C 0.79003 0.56224 0.73012 0.0
C1274 C 0.67983 0.0393 0.97872 0.0
C1275 C 0.64203 0.10631 0.95959 0.0
O1276 O 0.68961 0.04856 0.96236 0.0
Zn1277 Zn 0.68597 0.07998 0.94505 0.0
O1278 O 0.66347 0.04856 0.98777 0.0
Zn1279 Zn 0.66239 0.07354 0.96936 0.0
O1280 O 0.65537 0.06035 0.93693 0.0
O1281 O 0.68261 0.07061 0.91495 0.0
O1282 O 0.63821 0.09246 0.97473 0.0
O1283 O 0.65925 0.10399 0.94745 0.0
O1284 O 0.71259 0.09605 0.95251 0.0
O1285 O 0.69001 0.09164 0.98055 0.0
C1286 C 0.66438 0.06068 0.91776 0.0
C1287 C 0.70815 0.099 0.97273 0.0
C1288 C 0.67974 0.41273 0.16854 0.0
C1289 C 0.64104 0.45689 0.22292 0.0
O1290 O 0.67967 0.40372 0.1877 0.0
Zn1291 Zn 0.6661 0.41088 0.21993 0.0
O1292 O 0.67014 0.43112 0.16561 0.0
Zn1293 Zn 0.66031 0.43457 0.19555 0.0
O1294 O 0.69146 0.43787 0.21341 0.0
O1295 O 0.69085 0.41169 0.23875 0.0
O1296 O 0.64438 0.46133 0.20277 0.0
O1297 O 0.64809 0.43868 0.23085 0.0
O1298 O 0.64678 0.3869 0.22492 0.0
O1299 O 0.63598 0.40812 0.19748 0.0
C1300 C 0.70039 0.428 0.22989 0.0
C1301 C 0.63325 0.39091 0.20953 0.0
C1302 C 0.17737 0.45096 0.0095 0.0
C1303 C 0.13979 0.38389 0.02926 0.0
O1304 O 0.18709 0.44185 0.02597 0.0
Zn1305 Zn 0.18348 0.41069 0.04365 0.0
O1306 O 0.16102 0.44161 0.0005 0.0
Zn1307 Zn 0.15992 0.41674 0.01916 0.0
O1308 O 0.15264 0.43013 0.05143 0.0
O1309 O 0.1799 0.42037 0.07359 0.0
O1310 O 0.13585 0.39753 0.01395 0.0
O1311 O 0.15697 0.38649 0.04138 0.0
O1312 O 0.21018 0.39468 0.03654 0.0
O1313 O 0.18772 0.39863 0.00832 0.0
C1314 C 0.16156 0.43005 0.07064 0.0
C1315 C 0.20585 0.39146 0.01635 0.0
C1316 C 0.80881 0.91117 0.81914 0.0
C1317 C 0.84768 0.95496 0.76471 0.0
O1318 O 0.8089 0.902 0.80005 0.0
Zn1319 Zn 0.82254 0.90896 0.76779 0.0
O1320 O 0.81838 0.92958 0.82192 0.0
Zn1321 Zn 0.8283 0.9328 0.79204 0.0
O1322 O 0.79731 0.93616 0.77399 0.0
O1323 O 0.79782 0.90976 0.74888 0.0
O1324 O 0.84428 0.95945 0.78484 0.0
O1325 O 0.84065 0.93673 0.75679 0.0
O1326 O 0.84189 0.88492 0.763 0.0
O1327 O 0.85263 0.90636 0.79029 0.0
C1328 C 0.78837 0.92623 0.75755 0.0
C1329 C 0.8554 0.88906 0.77838 0.0
C1330 C 0.17998 0.57651 0.32038 0.0
C1331 C 0.14176 0.53245 0.26568 0.0
O1332 O 0.18011 0.58557 0.30124 0.0
Zn1333 Zn 0.16688 0.57843 0.26885 0.0
O1334 O 0.17035 0.55813 0.32317 0.0
Zn1335 Zn 0.16086 0.55473 0.29316 0.0
O1336 O 0.19219 0.55144 0.27564 0.0
O1337 O 0.19183 0.57759 0.25027 0.0
O1338 O 0.145 0.52801 0.28584 0.0
O1339 O 0.14888 0.55065 0.25777 0.0
O1340 O 0.14761 0.60243 0.26368 0.0
O1341 O 0.13652 0.58115 0.29096 0.0
C1342 C 0.2013 0.56131 0.25926 0.0
C1343 C 0.1339 0.59837 0.2789 0.0
C1344 C 0.97936 0.3039 0.01196 0.0
C1345 C 0.002 0.3046 0.01673 0.0
H1346 H 0.95459 0.30436 0.98674 0.0
C1347 C 0.01735 0.30339 -0.00048 0.0
H1348 H 0.96729 0.30492 0.02509 0.0
C1349 C 0.01011 0.30375 0.97768 0.0
C1350 C 0.98747 0.30456 0.9729 0.0
H1351 H 0.03488 0.30416 0.00289 0.0
H1352 H 0.02218 0.30466 0.96454 0.0
C1353 C 0.97212 0.3035 0.99012 0.0
C1354 C 0.9357 0.22198 0.2415 0.0
C1355 C 0.93485 0.23718 0.22414 0.0
H1356 H 0.93406 0.21748 0.2765 0.0
C1357 C 0.9357 0.25985 0.22872 0.0
H1358 H 0.93479 0.20444 0.23827 0.0
C1359 C 0.93595 0.26728 0.25049 0.0
C1360 C 0.93458 0.2521 0.26783 0.0
H1361 H 0.93493 0.27179 0.21547 0.0
H1362 H 0.93525 0.28484 0.25371 0.0
C1363 C 0.9352 0.22942 0.26327 0.0
C1364 C 0.97299 0.18577 0.49919 0.0
C1365 C 0.98802 0.18397 0.51663 0.0
H1366 H 0.96874 0.1852 0.46412 0.0
C1367 C 0.01075 0.18432 0.51224 0.0
H1368 H 0.9554 0.18529 0.50226 0.0
C1369 C 0.01837 0.18496 0.49053 0.0
C1370 C 0.00329 0.18452 0.47306 0.0
H1371 H 0.02258 0.18285 0.52555 0.0
H1372 H 0.03593 0.18381 0.48742 0.0
C1373 C 0.9806 0.18566 0.47747 0.0
C1374 C 0.05488 0.25991 0.76199 0.0
C1375 C 0.0553 0.23725 0.76666 0.0
H1376 H 0.05532 0.28477 0.73687 0.0
C1377 C 0.0536 0.222 0.74941 0.0
H1378 H 0.05626 0.2719 0.77516 0.0
C1379 C 0.05372 0.22933 0.72759 0.0
C1380 C 0.05477 0.25196 0.7229 0.0
H1381 H 0.05414 0.20445 0.7527 0.0
H1382 H 0.05425 0.21731 0.71439 0.0
C1383 C 0.05424 0.26725 0.74019 0.0
C1384 C 0.00976 0.68458 0.01261 0.0
C1385 C 0.98705 0.68385 0.01705 0.0
H1386 H 0.03489 0.68426 0.98775 0.0
C1387 C 0.97195 0.68504 -0.00038 0.0
H1388 H 0.02163 0.68357 0.02592 0.0
C1389 C 0.97951 0.68476 0.97789 0.0
C1390 C 0.00222 0.68405 0.97344 0.0
H1391 H 0.95438 0.68423 0.00275 0.0
H1392 H 0.96764 0.68387 0.96458 0.0
C1393 C 0.01732 0.68506 0.99088 0.0
C1394 C 0.55499 0.26872 0.23973 0.0
C1395 C 0.55519 0.25336 0.22248 0.0
H1396 H 0.55728 0.27346 0.27466 0.0
C1397 C 0.55387 0.23076 0.22725 0.0
H1398 H 0.55628 0.2862 0.23633 0.0
C1399 C 0.55379 0.22351 0.24909 0.0
C1400 C 0.5558 0.23879 0.26629 0.0
H1401 H 0.55416 0.2187 0.21409 0.0
H1402 H 0.5541 0.20597 0.25243 0.0
C1403 C 0.55566 0.26144 0.26155 0.0
C1404 C 0.01622 0.80305 0.49937 0.0
C1405 C 0.00108 0.80557 0.51662 0.0
H1406 H 0.02082 0.80276 0.46433 0.0
C1407 C 0.97838 0.80562 0.51201 0.0
H1408 H 0.03379 0.80319 0.50259 0.0
C1409 C 0.97096 0.80466 0.49025 0.0
C1410 C 0.98621 0.80437 0.47292 0.0
H1411 H 0.96646 0.80761 0.52517 0.0
H1412 H 0.95346 0.80613 0.48694 0.0
C1413 C 0.00883 0.80284 0.47757 0.0
C1414 C 0.43561 0.22208 0.74116 0.0
C1415 C 0.43492 0.23753 0.72401 0.0
H1416 H 0.43371 0.21708 0.77608 0.0
C1417 C 0.43576 0.26013 0.72892 0.0
H1418 H 0.4347 0.20459 0.73767 0.0
C1419 C 0.43588 0.26725 0.7508 0.0
C1420 C 0.43437 0.25182 0.76792 0.0
H1421 H 0.43512 0.27226 0.71583 0.0
H1422 H 0.4352 0.28476 0.75426 0.0
C1423 C 0.43496 0.22921 0.76303 0.0
C1424 C 0.97854 0.00914 0.30517 0.0
C1425 C 0.97411 0.98644 0.30617 0.0
H1426 H 0.00336 0.03431 0.30554 0.0
C1427 C 0.99159 0.97137 0.30569 0.0
H1428 H 0.96519 0.021 0.30566 0.0
C1429 C 0.01331 0.97897 0.30632 0.0
C1430 C 0.01772 0.00169 0.30669 0.0
H1431 H 0.98847 0.95381 0.30673 0.0
H1432 H 0.02662 0.96714 0.30767 0.0
C1433 C 0.00027 0.01673 0.30504 0.0
C1434 C 0.26033 0.26205 0.55507 0.0
C1435 C 0.23758 0.26628 0.55578 0.0
H1436 H 0.2857 0.23744 0.55554 0.0
C1437 C 0.22265 0.2487 0.55464 0.0
H1438 H 0.27207 0.27547 0.55605 0.0
C1439 C 0.23042 0.22704 0.55502 0.0
C1440 C 0.25317 0.22281 0.55579 0.0
H1441 H 0.20505 0.25165 0.55543 0.0
H1442 H 0.21868 0.21362 0.55596 0.0
C1443 C 0.2681 0.24039 0.5547 0.0
C1444 C 0.97836 0.51031 0.80557 0.0
C1445 C 0.97374 0.48764 0.80628 0.0
H1446 H 0.00342 0.53524 0.80599 0.0
C1447 C 0.99107 0.47242 0.80516 0.0
H1448 H 0.96514 0.52228 0.80653 0.0
C1449 C 0.01287 0.4798 0.80553 0.0
C1450 C 0.01749 0.50247 0.80627 0.0
H1451 H 0.98781 0.45487 0.80595 0.0
H1452 H 0.02609 0.46783 0.80647 0.0
C1453 C 0.00016 0.5177 0.80518 0.0
C1454 C 0.76798 0.24029 0.05505 0.0
C1455 C 0.75282 0.22291 0.0563 0.0
H1456 H 0.77244 0.27532 0.05617 0.0
C1457 C 0.73012 0.22746 0.05568 0.0
H1458 H 0.78554 0.23709 0.05576 0.0
C1459 C 0.72265 0.24922 0.05522 0.0
C1460 C 0.73783 0.2666 0.05614 0.0
H1461 H 0.7182 0.2142 0.05673 0.0
H1462 H 0.7051 0.25242 0.05608 0.0
C1463 C 0.76051 0.26205 0.05535 0.0
C1464 C -0.00037 0.97224 0.68455 0.0
C1465 C 0.01669 0.98777 0.68357 0.0
H1466 H 0.9647 0.96703 0.68298 0.0
C1467 C 0.01166 0.01035 0.68429 0.0
H1468 H 0.0032 0.95476 0.68375 0.0
C1469 C 0.98973 0.01735 0.68453 0.0
C1470 C 0.97269 0.00182 0.68329 0.0
H1471 H 0.02467 0.02256 0.68342 0.0
H1472 H 0.98617 0.03483 0.68372 0.0
C1473 C 0.9777 0.97924 0.68404 0.0
C1474 C 0.22169 0.23971 0.93614 0.0
C1475 C 0.237 0.22245 0.93509 0.0
H1476 H 0.21699 0.2747 0.93477 0.0
C1477 C 0.25965 0.22715 0.93598 0.0
H1478 H 0.20416 0.23639 0.93522 0.0
C1479 C 0.26696 0.24896 0.9364 0.0
C1480 C 0.25167 0.26622 0.93518 0.0
H1481 H 0.27168 0.21397 0.93508 0.0
H1482 H 0.2845 0.25228 0.93567 0.0
C1483 C 0.22901 0.26153 0.93581 0.0
C1484 C -0.00146 0.47218 0.1855 0.0
C1485 C 0.01584 0.48742 0.1843 0.0
H1486 H 0.96352 0.46755 0.18432 0.0
C1487 C 0.0112 0.51008 0.18501 0.0
H1488 H 0.00181 0.45464 0.18472 0.0
C1489 C 0.98939 0.51745 0.18547 0.0
C1490 C 0.97208 0.5022 0.18445 0.0
H1491 H 0.0244 0.52207 0.18398 0.0
H1492 H 0.98611 0.53499 0.18464 0.0
C1493 C 0.97673 0.47954 0.1852 0.0
C1494 C 0.72258 0.24009 0.43605 0.0
C1495 C 0.73786 0.22284 0.43441 0.0
H1496 H 0.71787 0.27509 0.43537 0.0
C1497 C 0.76052 0.22752 0.43498 0.0
H1498 H 0.70504 0.23678 0.4354 0.0
C1499 C 0.76785 0.24933 0.43565 0.0
C1500 C 0.75254 0.26661 0.43502 0.0
H1501 H 0.77253 0.21437 0.43363 0.0
H1502 H 0.78537 0.25266 0.43466 0.0
C1503 C 0.7299 0.2619 0.43597 0.0
C1504 C 0.30389 0.98974 0.97311 0.0
C1505 C 0.30553 0.97246 0.98834 0.0
H1506 H 0.30462 0.02475 0.96845 0.0
C1507 C 0.30509 0.97711 0.01101 0.0
H1508 H 0.30445 0.98646 0.95556 0.0
C1509 C 0.30449 -0.00109 0.01837 0.0
C1510 C 0.30508 0.01621 0.0031 0.0
H1511 H 0.30643 0.96393 0.02298 0.0
H1512 H 0.30555 0.00221 0.03589 0.0
C1513 C 0.30405 0.01154 0.98045 0.0
C1514 C 0.80371 -0.00143 0.51534 0.0
C1515 C 0.8056 0.01581 0.50009 0.0
H1516 H 0.80418 0.96356 0.52008 0.0
C1517 C 0.80538 0.01111 0.47743 0.0
H1518 H 0.80409 0.00188 0.53289 0.0
C1519 C 0.80473 0.9893 0.47011 0.0
C1520 C 0.80504 0.97202 0.48542 0.0
H1521 H 0.80691 0.02425 0.46544 0.0
H1522 H 0.80593 0.98595 0.45261 0.0
C1523 C 0.80382 0.97675 0.50804 0.0
C1524 C 0.26313 0.05533 0.76007 0.0
C1525 C 0.26796 0.05622 0.73745 0.0
H1526 H 0.23785 0.05559 0.78477 0.0
C1527 C 0.25077 0.05534 0.72206 0.0
H1528 H 0.27625 0.05612 0.77216 0.0
C1529 C 0.2289 0.05573 0.72925 0.0
C1530 C 0.22407 0.05624 0.75188 0.0
H1531 H 0.2542 0.05628 0.70455 0.0
H1532 H 0.2158 0.05682 0.71717 0.0
C1533 C 0.24126 0.05496 0.76725 0.0
C1534 C 0.18509 0.49028 0.01751 0.0
C1535 C 0.18348 0.47313 0.00212 0.0
H1536 H 0.18444 0.52526 0.02246 0.0
C1537 C 0.18396 0.47797 0.9795 0.0
H1538 H 0.1845 0.48685 0.03503 0.0
C1539 C 0.18463 0.49983 0.97233 0.0
C1540 C 0.18407 0.51701 0.98774 0.0
H1541 H 0.18264 0.4649 0.96741 0.0
H1542 H 0.18364 0.50328 0.95483 0.0
C1543 C 0.185 0.51215 0.01035 0.0
C1544 C 0.24913 0.93501 0.2673 0.0
C1545 C 0.2664 0.93373 0.25202 0.0
H1546 H 0.21412 0.9338 0.27201 0.0
C1547 C 0.2617 0.93427 0.22937 0.0
H1548 H 0.25244 0.93436 0.28483 0.0
C1549 C 0.23988 0.93463 0.22205 0.0
C1550 C 0.22261 0.9337 0.23734 0.0
H1551 H 0.27488 0.93319 0.21736 0.0
H1552 H 0.23656 0.93368 0.20453 0.0
C1553 C 0.2273 0.93462 0.25999 0.0
C1554 C 0.68446 0.97794 0.9778 0.0
C1555 C 0.68458 0.97323 0.00046 0.0
H1556 H 0.68386 0.00313 0.95302 0.0
C1557 C 0.68712 0.99041 0.01568 0.0
H1558 H 0.68246 0.96484 0.96583 0.0
C1559 C 0.68728 0.01224 0.0084 0.0
C1560 C 0.68569 0.017 0.98581 0.0
H1561 H 0.68702 0.9871 0.03323 0.0
H1562 H 0.68737 0.02543 0.02044 0.0
C1563 C 0.68538 -0.00026 0.97049 0.0
C1564 C 0.26137 0.43269 0.72931 0.0
C1565 C 0.26606 0.43232 0.75197 0.0
H1566 H 0.23622 0.43218 0.70447 0.0
C1567 C 0.24879 0.43387 0.76724 0.0
H1568 H 0.27454 0.43141 0.71732 0.0
C1569 C 0.22697 0.43363 0.75992 0.0
C1570 C 0.22226 0.43262 0.73729 0.0
H1571 H 0.2521 0.43335 0.78478 0.0
H1572 H 0.21377 0.43305 0.77195 0.0
C1573 C 0.23955 0.43322 0.72199 0.0
C1574 C 0.72835 0.0557 0.2283 0.0
C1575 C 0.72345 0.05596 0.25092 0.0
H1576 H 0.75374 0.05607 0.20371 0.0
C1577 C 0.74054 0.05389 0.26633 0.0
H1578 H 0.71532 0.05736 0.2162 0.0
C1579 C 0.76243 0.0538 0.25922 0.0
C1580 C 0.76737 0.05501 0.23665 0.0
H1581 H 0.73708 0.05429 0.28384 0.0
H1582 H 0.77552 0.05405 0.27138 0.0
C1583 C 0.75022 0.05486 0.22118 0.0
C1584 C 0.93641 0.76705 0.74995 0.0
C1585 C 0.93492 0.7517 0.76714 0.0
H1586 H 0.93552 0.77191 0.71497 0.0
C1587 C 0.93547 0.72907 0.76235 0.0
H1588 H 0.93577 0.78457 0.75333 0.0
C1589 C 0.93602 0.72184 0.74051 0.0
C1590 C 0.93528 0.73721 0.7233 0.0
H1591 H 0.93423 0.717 0.77546 0.0
H1592 H 0.93505 0.70434 0.7371 0.0
C1593 C 0.93621 0.75983 0.7281 0.0
C1594 C 0.05403 0.75892 0.26174 0.0
C1595 C 0.05485 0.73624 0.26627 0.0
H1596 H 0.05455 0.78396 0.2368 0.0
C1597 C 0.05398 0.72108 0.24888 0.0
H1598 H 0.0548 0.77084 0.27502 0.0
C1599 C 0.05452 0.72857 0.22712 0.0
C1600 C 0.05518 0.75126 0.22261 0.0
H1601 H 0.05486 0.70353 0.25207 0.0
H1602 H 0.05566 0.71666 0.21387 0.0
C1603 C 0.05382 0.76641 0.23998 0.0
C1604 C 0.5551 0.76839 0.73942 0.0
C1605 C 0.55531 0.75299 0.72222 0.0
H1606 H 0.55734 0.77324 0.77434 0.0
C1607 C 0.55406 0.7304 0.72706 0.0
H1608 H 0.55634 0.78587 0.73598 0.0
C1609 C 0.55397 0.72321 0.74893 0.0
C1610 C 0.55592 0.73855 0.76608 0.0
H1611 H 0.55436 0.7183 0.71394 0.0
H1612 H 0.5543 0.70568 0.75232 0.0
C1613 C 0.55577 0.76119 0.76127 0.0
C1614 C 0.43557 0.76006 0.22837 0.0
C1615 C 0.43487 0.73743 0.22359 0.0
H1616 H 0.43487 0.78483 0.25356 0.0
C1617 C 0.43576 0.72209 0.24083 0.0
H1618 H 0.43478 0.77212 0.21521 0.0
C1619 C 0.43512 0.72934 0.26266 0.0
C1620 C 0.43436 0.75197 0.26741 0.0
H1621 H 0.43497 0.70457 0.23744 0.0
H1622 H 0.434 0.71728 0.27578 0.0
C1623 C 0.4357 0.76731 0.2502 0.0
C1624 C 0.23044 0.72735 0.05509 0.0
C1625 C 0.25314 0.72289 0.05593 0.0
H1626 H 0.20533 0.75223 0.0554 0.0
C1627 C 0.26826 0.74031 0.05489 0.0
H1628 H 0.21856 0.71405 0.056 0.0
C1629 C 0.26072 0.76205 0.05523 0.0
C1630 C 0.23801 0.76652 0.05586 0.0
H1631 H 0.28583 0.73717 0.05578 0.0
H1632 H 0.2726 0.77535 0.05624 0.0
C1633 C 0.2229 0.74909 0.05468 0.0
C1634 C 0.72973 0.727 0.55481 0.0
C1635 C 0.75248 0.72274 0.55537 0.0
H1636 H 0.70441 0.75167 0.55501 0.0
C1637 C 0.76743 0.74026 0.55371 0.0
H1638 H 0.71796 0.71363 0.55616 0.0
C1639 C 0.7597 0.76194 0.55371 0.0
C1640 C 0.73696 0.76623 0.55461 0.0
H1641 H 0.78503 0.73728 0.55436 0.0
H1642 H 0.77148 0.77535 0.55426 0.0
C1643 C 0.72199 0.74866 0.55406 0.0
C1644 C 0.25858 0.72695 0.43542 0.0
C1645 C 0.23596 0.7222 0.43417 0.0
H1646 H 0.2834 0.75212 0.43525 0.0
C1647 C 0.22062 0.73946 0.43457 0.0
H1648 H 0.27064 0.71378 0.43498 0.0
C1649 C 0.22791 0.76128 0.43403 0.0
C1650 C 0.25057 0.76601 0.43382 0.0
H1651 H 0.20312 0.73608 0.43335 0.0
H1652 H 0.21589 0.77441 0.43255 0.0
C1653 C 0.26585 0.74879 0.43563 0.0
C1654 C 0.75968 0.72768 0.93574 0.0
C1655 C 0.73702 0.72302 0.93487 0.0
H1656 H 0.78458 0.75276 0.93516 0.0
C1657 C 0.72175 0.74031 0.93571 0.0
H1658 H 0.77169 0.71448 0.93499 0.0
C1659 C 0.7291 0.76211 0.93513 0.0
C1660 C 0.75177 0.76676 0.93446 0.0
H1661 H 0.70421 0.73702 0.93479 0.0
H1662 H 0.71711 0.77529 0.93392 0.0
C1663 C 0.76703 0.74949 0.93591 0.0
C1664 C 0.30371 0.49836 0.51742 0.0
C1665 C 0.3048 0.51559 0.50209 0.0
H1666 H 0.30515 0.46339 0.52223 0.0
C1667 C 0.30414 0.51082 0.47945 0.0
H1668 H 0.30446 0.50174 0.53494 0.0
C1669 C 0.30385 0.48898 0.4722 0.0
C1670 C 0.30498 0.47176 0.48754 0.0
H1671 H 0.30508 0.52396 0.4674 0.0
H1672 H 0.3047 0.48561 0.45468 0.0
C1673 C 0.30418 0.47652 0.51018 0.0
C1674 C 0.80571 0.47736 0.01089 0.0
C1675 C 0.80601 0.47267 0.98822 0.0
H1676 H 0.80612 0.50251 0.03572 0.0
C1677 C 0.80415 0.48991 0.97297 0.0
H1678 H 0.80722 0.46421 0.02288 0.0
C1679 C 0.80418 0.51173 0.98028 0.0
C1680 C 0.8053 0.51645 0.00291 0.0
H1681 H 0.80459 0.4866 0.95543 0.0
H1682 H 0.80455 0.52492 0.96825 0.0
C1683 C 0.80498 0.49916 0.01821 0.0
C1684 C 0.25043 0.55462 0.22232 0.0
C1685 C 0.26756 0.55593 0.23776 0.0
H1686 H 0.21545 0.55557 0.2173 0.0
C1687 C 0.26266 0.55529 0.26037 0.0
H1688 H 0.2539 0.55535 0.20482 0.0
C1689 C 0.24077 0.55472 0.26749 0.0
C1690 C 0.22362 0.55556 0.25204 0.0
H1691 H 0.27572 0.5564 0.2725 0.0
H1692 H 0.23729 0.55555 0.28498 0.0
C1693 C 0.22853 0.55481 0.22944 0.0
C1694 C 0.18645 0.99095 0.51642 0.0
C1695 C 0.1845 0.9738 0.50108 0.0
H1696 H 0.18618 0.02594 0.52131 0.0
C1697 C 0.18484 0.9786 0.47844 0.0
H1698 H 0.18598 0.98756 0.53394 0.0
C1699 C 0.18566 0.00043 0.47122 0.0
C1700 C 0.18539 0.01764 0.48662 0.0
H1701 H 0.18326 0.96552 0.46638 0.0
H1702 H 0.18452 0.00386 0.45373 0.0
C1703 C 0.18651 0.0128 0.50922 0.0
C1704 C 0.68531 0.50041 0.47115 0.0
C1705 C 0.68508 0.51769 0.48646 0.0
H1706 H 0.68306 0.46546 0.46651 0.0
C1707 C 0.68641 0.51299 0.50907 0.0
H1708 H 0.68402 0.50376 0.45366 0.0
C1709 C 0.68652 0.49117 0.51639 0.0
C1710 C 0.68452 0.47393 0.50115 0.0
H1711 H 0.68611 0.52618 0.5211 0.0
H1712 H 0.6862 0.48788 0.53394 0.0
C1713 C 0.68467 0.47861 0.47849 0.0
C1714 C 0.7287 0.55596 0.72919 0.0
C1715 C 0.72386 0.55667 0.75181 0.0
H1716 H 0.754 0.55625 0.7045 0.0
C1717 C 0.74103 0.55546 0.7672 0.0
H1718 H 0.7156 0.557 0.71709 0.0
C1719 C 0.76291 0.55571 0.76003 0.0
C1720 C 0.76775 0.55641 0.73741 0.0
H1721 H 0.73761 0.55624 0.78471 0.0
H1722 H 0.77602 0.55655 0.77213 0.0
C1723 C 0.75057 0.55545 0.72201 0.0
C1724 C 0.47979 0.30465 0.51254 0.0
C1725 C 0.50248 0.30525 0.51713 0.0
H1726 H 0.45483 0.30503 0.48752 0.0
C1727 C 0.51768 0.30371 0.49981 0.0
H1728 H 0.46784 0.30592 0.52576 0.0
C1729 C 0.51026 0.30387 0.47802 0.0
C1730 C 0.48759 0.3048 0.47343 0.0
H1731 H 0.53524 0.30439 0.50303 0.0
H1732 H 0.52222 0.30456 0.46478 0.0
C1733 C 0.47237 0.30406 0.49077 0.0
C1734 C 0.51774 0.18456 0.99084 0.0
C1735 C 0.50268 0.18341 0.97337 0.0
H1736 H 0.52199 0.18332 0.02589 0.0
C1737 C 0.47996 0.18408 0.97778 0.0
H1738 H 0.53532 0.1838 0.98774 0.0
C1739 C 0.47235 0.18449 -0.00051 0.0
C1740 C 0.48742 0.18347 0.01696 0.0
H1741 H 0.46811 0.18309 0.96445 0.0
H1742 H 0.45478 0.18367 0.00259 0.0
C1743 C 0.51014 0.18421 0.01256 0.0
C1744 C 0.51733 0.68463 0.49095 0.0
C1745 C 0.50224 0.68395 0.47349 0.0
H1746 H 0.52159 0.68278 0.52598 0.0
C1747 C 0.47953 0.68487 0.47792 0.0
H1748 H 0.53489 0.68365 0.48783 0.0
C1749 C 0.47195 0.68504 0.49965 0.0
C1750 C 0.48701 0.68351 0.51708 0.0
H1751 H 0.46767 0.68423 0.46459 0.0
H1752 H 0.45437 0.68441 0.50274 0.0
C1753 C 0.50974 0.68404 0.51267 0.0
C1754 C 0.47237 0.80371 0.9906 0.0
C1755 C 0.48764 0.80459 0.9733 0.0
H1756 H 0.46776 0.80534 0.02559 0.0
C1757 C 0.5103 0.80366 0.97795 0.0
H1758 H 0.45484 0.80468 0.98732 0.0
C1759 C 0.51766 0.80337 -0.00026 0.0
C1760 C 0.50242 0.80478 0.01703 0.0
H1761 H 0.52229 0.80444 0.96474 0.0
H1762 H 0.53521 0.80406 0.00301 0.0
C1763 C 0.47974 0.80417 0.0124 0.0
C1764 C 0.49128 0.97289 0.80555 0.0
C1765 C 0.47405 0.98819 0.80719 0.0
H1766 H 0.5263 0.9681 0.80606 0.0
C1767 C 0.47879 0.01084 0.80673 0.0
H1768 H 0.48794 0.95535 0.80613 0.0
C1769 C 0.50062 0.01811 0.80599 0.0
C1770 C 0.51789 0.00278 0.80646 0.0
H1771 H 0.46566 0.02286 0.80808 0.0
H1772 H 0.50399 0.03563 0.80694 0.0
C1773 C 0.51312 0.98015 0.80557 0.0
C1774 C 0.51247 0.48003 0.30582 0.0
C1775 C 0.51707 0.50269 0.30668 0.0
H1776 H 0.48745 0.45505 0.30627 0.0
C1777 C 0.4997 0.5179 0.30603 0.0
H1778 H 0.52572 0.46807 0.30643 0.0
C1779 C 0.47792 0.51047 0.30663 0.0
C1780 C 0.47333 0.48779 0.30713 0.0
H1781 H 0.50294 0.53544 0.30695 0.0
H1782 H 0.46469 0.52241 0.30786 0.0
C1783 C 0.49067 0.47261 0.30565 0.0
C1784 C 0.51191 0.01117 0.18344 0.0
C1785 C 0.51676 0.98854 0.18308 0.0
H1786 H 0.48658 0.03582 0.18314 0.0
C1787 C 0.49963 0.97316 0.18494 0.0
H1788 H 0.52497 0.02326 0.18193 0.0
C1789 C 0.47775 0.98032 0.18497 0.0
C1790 C 0.47287 0.00291 0.18392 0.0
H1791 H 0.50306 0.95564 0.18445 0.0
H1792 H 0.46464 0.9682 0.1846 0.0
C1793 C 0.49005 0.01834 0.18423 0.0
C1794 C 0.49935 0.47261 0.68484 0.0
C1795 C 0.51635 0.48819 0.68356 0.0
H1796 H 0.46442 0.4673 0.68377 0.0
C1797 C 0.51126 0.51076 0.6842 0.0
H1798 H 0.50296 0.45514 0.68411 0.0
C1799 C 0.48932 0.51769 0.6847 0.0
C1800 C 0.4723 0.5021 0.6838 0.0
H1801 H 0.52423 0.52299 0.68311 0.0
H1802 H 0.48569 0.53516 0.68385 0.0
C1803 C 0.4774 0.47954 0.68458 0.0
C1804 C 0.73992 0.93303 0.71967 0.0
C1805 C 0.72258 0.93326 0.73491 0.0
H1806 H 0.77487 0.93031 0.71517 0.0
C1807 C 0.72723 0.93477 0.75753 0.0
H1808 H 0.73661 0.93157 0.70218 0.0
C1809 C 0.74904 0.9347 0.76492 0.0
C1810 C 0.76631 0.93233 0.74977 0.0
H1811 H 0.71399 0.9348 0.76951 0.0
H1812 H 0.75227 0.9346 0.78248 0.0
C1813 C 0.7617 0.9322 0.72709 0.0
C1814 C 0.76174 0.43414 0.22966 0.0
C1815 C 0.76632 0.43348 0.25234 0.0
H1816 H 0.73673 0.43385 0.20468 0.0
C1817 C 0.74897 0.43477 0.26753 0.0
H1818 H 0.77498 0.43305 0.21772 0.0
C1819 C 0.72718 0.43455 0.2601 0.0
C1820 C 0.72259 0.4338 0.23742 0.0
H1821 H 0.75219 0.43403 0.28508 0.0
H1822 H 0.71392 0.43376 0.27204 0.0
C1823 C 0.73996 0.43468 0.22223 0.0
C1824 C 0.9804 0.27387 0.11561 0.0
C1825 C 0.00192 0.26728 0.11023 0.0
H1826 H 0.94952 0.2651 0.12974 0.0
C1827 C 0.00874 0.24573 0.11535 0.0
H1828 H 0.97458 0.29034 0.11192 0.0
C1829 C 0.99415 0.23104 0.12558 0.0
C1830 C 0.97263 0.23778 0.13093 0.0
H1831 H 0.02522 0.24018 0.11129 0.0
H1832 H -0.00024 0.21454 0.12942 0.0
C1833 C 0.96597 0.25934 0.12584 0.0
C1834 C 0.99424 0.25888 0.36537 0.0
C1835 C 0.9726 0.25214 0.36052 0.0
H1836 H 0.02567 0.24972 0.37884 0.0
C1837 C 0.96609 0.23056 0.36574 0.0
H1838 H -0.00025 0.2754 0.36142 0.0
C1839 C 0.98078 0.21601 0.37555 0.0
C1840 C 0.00243 0.22259 0.38038 0.0
H1841 H 0.94955 0.2248 0.36224 0.0
H1842 H 0.97506 0.19952 0.37934 0.0
C1843 C 0.0091 0.24417 0.37519 0.0
C1844 C 0.00854 0.21464 0.61521 0.0
C1845 C 0.9871 0.22133 0.60963 0.0
H1846 H 0.03944 0.22337 0.62929 0.0
C1847 C 0.98044 0.243 0.61439 0.0
H1848 H 0.01423 0.19806 0.61181 0.0
C1849 C -0.00488 0.25774 0.62443 0.0
C1850 C 0.01658 0.25093 0.62994 0.0
H1851 H 0.96403 0.24863 0.61016 0.0
H1852 H 0.98964 0.27436 0.62797 0.0
C1853 C 0.02305 0.22922 0.62525 0.0
C1854 C 0.0096 0.27351 0.8747 0.0
C1855 C 0.98797 0.26699 0.87974 0.0
H1856 H 0.04066 0.26465 0.86107 0.0
C1857 C 0.98118 0.24544 0.87456 0.0
H1858 H 0.0154 0.28997 0.87846 0.0
C1859 C -0.0041 0.2307 0.86457 0.0
C1860 C 0.01751 0.23738 0.85953 0.0
H1861 H 0.96463 0.23994 0.87837 0.0
H1862 H 0.99031 0.2142 0.86064 0.0
C1863 C 0.02414 0.25893 0.86472 0.0
C1864 C 0.00862 0.74387 0.87543 0.0
C1865 C 0.0019 0.72233 0.88072 0.0
H1866 H -0.00059 0.77501 0.86136 0.0
C1867 C 0.98026 0.71576 0.8758 0.0
H1868 H 0.02517 0.74943 0.87915 0.0
C1869 C 0.96566 0.73026 0.86577 0.0
C1870 C 0.97225 0.75178 0.86043 0.0
H1871 H 0.9745 0.69931 0.87966 0.0
H1872 H 0.94914 0.72449 0.8622 0.0
C1873 C 0.99386 0.75854 0.8654 0.0
C1874 C 0.49545 0.25867 0.12419 0.0
C1875 C 0.517 0.25194 0.12945 0.0
H1876 H 0.46422 0.2494 0.11034 0.0
C1877 C 0.52353 0.23028 0.12463 0.0
H1878 H 0.48993 0.27525 0.12782 0.0
C1879 C 0.50896 0.21563 0.11478 0.0
C1880 C 0.48741 0.2222 0.10951 0.0
H1881 H 0.54 0.22452 0.12846 0.0
H1882 H 0.51469 0.19908 0.1113 0.0
C1883 C 0.48071 0.24386 0.11433 0.0
C1884 C 0.00905 0.7721 0.37512 0.0
C1885 C 0.98732 0.76571 0.37986 0.0
H1886 H 0.04015 0.76318 0.36161 0.0
C1887 C 0.98041 0.74429 0.37433 0.0
H1888 H 0.01497 0.78845 0.37917 0.0
C1889 C -0.00493 0.72957 0.36423 0.0
C1890 C 0.01677 0.73615 0.35943 0.0
H1891 H 0.96377 0.73888 0.3779 0.0
H1892 H 0.98937 0.71319 0.36 0.0
C1893 C 0.02355 0.75755 0.36503 0.0
C1894 C 0.48158 0.27512 0.61628 0.0
C1895 C 0.50299 0.26841 0.6106 0.0
H1896 H 0.45073 0.26642 0.63047 0.0
C1897 C 0.50966 0.24674 0.61538 0.0
H1898 H 0.47589 0.2917 0.61287 0.0
C1899 C 0.49501 0.23202 0.62549 0.0
C1900 C 0.47357 0.23885 0.63106 0.0
H1901 H 0.52605 0.24109 0.61109 0.0
H1902 H 0.50049 0.2154 0.62901 0.0
C1903 C 0.4671 0.26056 0.62638 0.0
C1904 C 0.11491 0.00814 0.24623 0.0
C1905 C 0.11 0.0015 0.26789 0.0
H1906 H 0.1284 -0.0012 0.21488 0.0
C1907 C 0.11507 0.97991 0.27447 0.0
H1908 H 0.11107 0.02466 0.24067 0.0
C1909 C 0.12483 0.96525 0.25985 0.0
C1910 C 0.12975 0.97174 0.2382 0.0
H1911 H 0.1115 0.97422 0.29101 0.0
H1912 H 0.12852 0.94876 0.26562 0.0
C1913 C 0.12467 0.99332 0.23145 0.0
C1914 C 0.25893 0.36401 0.52429 0.0
C1915 C 0.23737 0.35884 0.51765 0.0
H1916 H 0.29002 0.37765 0.51554 0.0
C1917 C 0.23074 0.36379 0.496 0.0
H1918 H 0.26462 0.36043 0.54083 0.0
C1919 C 0.24553 0.37368 0.48128 0.0
C1920 C 0.26708 0.37885 0.48807 0.0
H1921 H 0.21425 0.35987 0.4904 0.0
H1922 H 0.24006 0.37742 0.4647 0.0
C1923 C 0.27356 0.37389 0.50973 0.0
C1924 C 0.86582 0.49616 0.7318 0.0
C1925 C 0.86065 0.51773 0.73852 0.0
H1926 H 0.87968 0.46493 0.741 0.0
C1927 C 0.86563 0.52428 0.76015 0.0
H1928 H 0.86206 0.49063 0.71525 0.0
C1929 C 0.87557 0.50971 0.77474 0.0
C1930 C 0.88076 0.48815 0.76816 0.0
H1931 H 0.86187 0.54076 0.76591 0.0
H1932 H 0.87918 0.51546 0.79126 0.0
C1933 C 0.87576 0.48144 0.74655 0.0
C1934 C 0.73153 0.12489 0.02403 0.0
C1935 C 0.75308 0.13026 0.01756 0.0
H1936 H 0.70059 0.11108 0.015 0.0
C1937 C 0.7599 0.12546 -0.00407 0.0
H1938 H 0.7257 0.12834 0.04055 0.0
C1939 C 0.74528 0.11555 0.98105 0.0
C1940 C 0.72372 0.1102 0.98768 0.0
H1941 H 0.77641 0.12953 0.99047 0.0
H1942 H 0.75089 0.11194 0.9645 0.0
C1943 C 0.71707 0.11498 0.00931 0.0
C1944 C 0.12582 0.02456 0.7293 0.0
C1945 C 0.13092 0.01792 0.75086 0.0
H1946 H 0.11193 0.01592 0.69828 0.0
C1947 C 0.12564 -0.00363 0.75758 0.0
H1948 H 0.12966 0.04102 0.72355 0.0
C1949 C 0.11546 0.98176 0.74287 0.0
C1950 C 0.11033 0.98858 0.72133 0.0
H1951 H 0.12948 0.99078 0.77408 0.0
H1952 H 0.11146 0.96528 0.74841 0.0
C1953 C 0.11564 0.01011 0.71475 0.0
C1954 C 0.24306 0.37485 0.00854 0.0
C1955 C 0.22157 0.38014 0.00165 0.0
H1956 H 0.27426 0.36072 -0.00039 0.0
C1957 C 0.21512 0.37511 0.98001 0.0
H1958 H 0.24851 0.37864 0.02511 0.0
C1959 C 0.22971 0.365 0.96556 0.0
C1960 C 0.25119 0.35967 0.97231 0.0
H1961 H 0.19871 0.37896 0.97412 0.0
H1962 H 0.22405 0.36134 0.94902 0.0
C1963 C 0.25781 0.36474 0.99393 0.0
C1964 C 0.87391 0.48009 0.21583 0.0
C1965 C 0.87908 0.50163 0.22249 0.0
H1966 H 0.86025 0.449 0.22455 0.0
C1967 C 0.87407 0.50827 0.24412 0.0
H1968 H 0.87753 0.4744 0.1993 0.0
C1969 C 0.86414 0.49348 0.25882 0.0
C1970 C 0.859 0.47193 0.25201 0.0
H1971 H 0.87797 0.52476 0.24972 0.0
H1972 H 0.86037 0.49895 0.27538 0.0
C1973 C 0.864 0.46546 0.23037 0.0
C1974 C 0.74616 0.11401 0.50711 0.0
C1975 C 0.76766 0.10876 0.50022 0.0
H1976 H 0.71497 0.12817 0.4982 0.0
C1977 C 0.77414 0.11388 0.47861 0.0
H1978 H 0.74068 0.11014 0.52365 0.0
C1979 C 0.75956 0.12404 0.46419 0.0
C1980 C 0.73807 0.12934 0.47094 0.0
H1981 H 0.79056 0.11006 0.47273 0.0
H1982 H 0.76525 0.12777 0.44768 0.0
C1983 C 0.73142 0.12418 0.49252 0.0
C1984 C 0.23063 0.12427 0.99402 0.0
C1985 C 0.23738 0.12925 0.97242 0.0
H1986 H 0.23978 0.11058 0.02534 0.0
C1987 C 0.25895 0.12401 0.96586 0.0
H1988 H 0.21412 0.12823 -0.00045 0.0
C1989 C 0.27349 0.11407 0.98047 0.0
C1990 C 0.2669 0.10912 0.00209 0.0
H1991 H 0.26471 0.12761 0.94935 0.0
H1992 H 0.28997 0.11029 0.97473 0.0
C1993 C 0.24533 0.11432 0.00879 0.0
C1994 C 0.73021 0.8638 0.49407 0.0
C1995 C 0.73685 0.85884 0.51571 0.0
H1996 H 0.73949 0.87751 0.46279 0.0
C1997 C 0.75838 0.8641 0.52237 0.0
H1998 H 0.71373 0.85982 0.48846 0.0
C1999 C 0.77297 0.87407 0.50783 0.0
C2000 C 0.76649 0.87903 0.48618 0.0
H2001 H 0.76407 0.86053 0.53891 0.0
H2002 H 0.78941 0.87788 0.51367 0.0
C2003 C 0.74497 0.87378 0.47936 0.0
C2004 C 0.3662 0.02483 0.76047 0.0
C2005 C 0.36114 0.01815 0.73891 0.0
H2006 H 0.3798 0.01615 0.79161 0.0
C2007 C 0.36628 -0.00345 0.73228 0.0
H2008 H 0.36247 0.04134 0.76615 0.0
C2009 C 0.37622 0.9819 0.7471 0.0
C2010 C 0.38126 0.98872 0.76867 0.0
H2011 H 0.36247 0.99093 0.71577 0.0
H2012 H 0.38009 0.96535 0.74163 0.0
C2013 C 0.37614 0.01033 0.77513 0.0
C2014 C 0.21666 0.6146 0.01053 0.0
C2015 C 0.22301 0.60981 0.98881 0.0
H2016 H 0.22574 0.628 0.04164 0.0
C2017 C 0.2445 0.6151 0.98191 0.0
H2018 H 0.20026 0.61073 0.01644 0.0
C2019 C 0.25933 0.62502 -0.00343 0.0
C2020 C 0.2528 0.62987 0.01827 0.0
H2021 H 0.24988 0.61148 0.96528 0.0
H2022 H 0.27576 0.62907 0.99088 0.0
C2023 C 0.23133 0.62451 0.02504 0.0
C2024 C 0.7435 0.87536 0.00734 0.0
C2025 C 0.72188 0.88036 0.00065 0.0
H2026 H 0.77475 0.86154 -0.00186 0.0
C2027 C 0.71523 0.87509 0.97913 0.0
H2028 H 0.7491 0.87935 0.02381 0.0
C2029 C 0.72977 0.86506 0.96457 0.0
C2030 C 0.7514 0.86005 0.97111 0.0
H2031 H 0.69871 0.87872 0.97341 0.0
H2032 H 0.72396 0.86122 0.94813 0.0
C2033 C 0.7582 0.86532 0.99263 0.0
C2034 C 0.36382 0.4925 0.75828 0.0
C2035 C 0.35891 0.47086 0.7516 0.0
H2036 H 0.37747 0.52382 0.74907 0.0
C2037 C 0.3642 0.46424 0.73008 0.0
H2038 H 0.35982 0.49809 0.77476 0.0
C2039 C 0.37416 0.47883 0.71551 0.0
C2040 C 0.37906 0.50048 0.72203 0.0
H2041 H 0.36065 0.4477 0.72436 0.0
H2042 H 0.378 0.47304 0.69907 0.0
C2043 C 0.37378 0.50725 0.74356 0.0
C2044 C 0.61481 0.01103 0.21418 0.0
C2045 C 0.60982 0.9894 0.2207 0.0
H2046 H 0.62848 0.04209 0.22304 0.0
C2047 C 0.61507 0.9826 0.24222 0.0
H2048 H 0.61099 0.01684 0.19773 0.0
C2049 C 0.62509 -0.00271 0.25694 0.0
C2050 C 0.63012 0.0189 0.25026 0.0
H2051 H 0.6113 0.96605 0.24772 0.0
H2052 H 0.62908 0.99168 0.27341 0.0
C2053 C 0.62485 0.02556 0.22874 0.0
C2054 C 0.98076 0.77489 0.61531 0.0
C2055 C 0.00223 0.76833 0.6097 0.0
H2056 H 0.94995 0.76598 0.62947 0.0
C2057 C 0.00905 0.74671 0.61449 0.0
H2058 H 0.97495 0.79142 0.61188 0.0
C2059 C 0.99449 0.73189 0.62459 0.0
C2060 C 0.973 0.73858 0.63014 0.0
H2061 H 0.02548 0.74118 0.61024 0.0
H2062 H 9e-05 0.71532 0.62816 0.0
C2063 C 0.96637 0.76023 0.62541 0.0
C2064 C -0.00425 0.75808 0.12478 0.0
C2065 C 0.01734 0.75127 0.12979 0.0
H2066 H 0.9644 0.74901 0.11109 0.0
C2067 C 0.02382 0.72967 0.12466 0.0
H2068 H 0.99028 0.77462 0.12866 0.0
C2069 C 0.00915 0.71515 0.11476 0.0
C2070 C 0.98755 0.7218 0.10975 0.0
H2071 H 0.04031 0.72385 0.1283 0.0
H2072 H 0.01483 0.69864 0.11104 0.0
C2073 C 0.98093 0.74341 0.11487 0.0
C2074 C 0.48007 0.74309 0.61438 0.0
C2075 C 0.48664 0.72134 0.60984 0.0
H2076 H 0.48945 0.77458 0.62752 0.0
C2077 C 0.50808 0.71464 0.61541 0.0
H2078 H 0.46367 0.74873 0.61016 0.0
C2079 C 0.5227 0.72929 0.62519 0.0
C2080 C 0.51632 0.75109 0.62964 0.0
H2081 H 0.5137 0.69801 0.61218 0.0
H2082 H 0.53908 0.72345 0.62923 0.0
C2083 C 0.49485 0.7579 0.62417 0.0
C2084 C 0.49486 0.73149 0.12532 0.0
C2085 C 0.4734 0.7383 0.13082 0.0
H2086 H 0.52594 0.74061 0.11103 0.0
C2087 C 0.46692 0.76001 0.12613 0.0
H2088 H 0.50034 0.71488 0.12886 0.0
C2089 C 0.48142 0.77459 0.11609 0.0
C2090 C 0.50286 0.7679 0.11049 0.0
H2091 H 0.45053 0.76585 0.13017 0.0
H2092 H 0.47572 0.79116 0.11268 0.0
C2093 C 0.50953 0.74623 0.11527 0.0
C2094 C 0.11505 0.5083 0.74639 0.0
C2095 C 0.11028 0.50176 0.7681 0.0
H2096 H 0.12829 0.49882 0.71498 0.0
C2097 C 0.11548 0.48022 0.77477 0.0
H2098 H 0.11111 0.52478 0.74077 0.0
C2099 C 0.12516 0.46551 0.76015 0.0
C2100 C 0.12987 0.47188 0.73841 0.0
H2101 H 0.11205 0.47461 0.79137 0.0
H2102 H 0.12892 0.44906 0.76598 0.0
C2103 C 0.12473 0.49343 0.73161 0.0
C2104 C 0.23142 0.86445 -0.00387 0.0
C2105 C 0.23812 0.85931 0.01771 0.0
H2106 H 0.24065 0.87836 0.96493 0.0
C2107 C 0.2597 0.86439 0.02432 0.0
H2108 H 0.2149 0.86062 0.99056 0.0
C2109 C 0.2743 0.87438 0.0098 0.0
C2110 C 0.26775 0.87955 0.98822 0.0
H2111 H 0.26545 0.86065 0.04081 0.0
H2112 H 0.29079 0.87806 0.01559 0.0
C2113 C 0.24617 0.87446 0.98144 0.0
C2114 C 0.8762 0.00865 0.27371 0.0
C2115 C 0.88135 0.9871 0.26704 0.0
H2116 H 0.86235 0.03968 0.26509 0.0
C2117 C 0.87618 0.98044 0.24545 0.0
H2118 H 0.87994 0.01436 0.29021 0.0
C2119 C 0.86607 -0.00481 0.23083 0.0
C2120 C 0.86089 0.01671 0.23767 0.0
H2121 H 0.88006 0.96395 0.23983 0.0
H2122 H 0.86216 0.98969 0.2143 0.0
C2123 C 0.86609 0.02323 0.25925 0.0
C2124 C 0.73151 0.62483 0.52421 0.0
C2125 C 0.75302 0.6302 0.51759 0.0
H2126 H 0.70046 0.61118 0.51535 0.0
C2127 C 0.75964 0.62552 0.49588 0.0
H2128 H 0.72583 0.62819 0.5408 0.0
C2129 C 0.74487 0.61575 0.48105 0.0
C2130 C 0.72334 0.61043 0.48782 0.0
H2131 H 0.77611 0.62959 0.4903 0.0
H2132 H 0.75032 0.61225 0.46442 0.0
C2133 C 0.71689 0.61507 0.50955 0.0
C2134 C 0.11457 0.48079 0.24318 0.0
C2135 C 0.10952 0.4875 0.22159 0.0
H2136 H 0.12862 0.4899 0.27435 0.0
C2137 C 0.11507 0.50892 0.21485 0.0
H2138 H 0.11038 0.46439 0.24885 0.0
C2139 C 0.12538 0.52337 0.22929 0.0
C2140 C 0.13037 0.51685 0.25092 0.0
H2141 H 0.11145 0.51463 0.19832 0.0
H2142 H 0.12939 0.53975 0.22342 0.0
C2143 C 0.12487 0.49541 0.25779 0.0
C2144 C 0.21449 0.87489 0.47929 0.0
C2145 C 0.22116 0.88018 0.5008 0.0
H2146 H 0.2231 0.86074 0.44838 0.0
C2147 C 0.24269 0.87489 0.50756 0.0
H2148 H 0.19802 0.87872 0.47352 0.0
C2149 C 0.25728 0.86458 0.49294 0.0
C2150 C 0.25046 0.8593 0.47143 0.0
H2151 H 0.24831 0.87888 0.52403 0.0
H2152 H 0.27377 0.86061 0.49851 0.0
C2153 C 0.22892 0.86457 0.46482 0.0
C2154 C 0.86432 0.96406 0.72844 0.0
C2155 C 0.85899 0.97064 0.74997 0.0
H2156 H 0.87821 0.97291 0.69749 0.0
C2157 C 0.86389 0.99227 0.7567 0.0
H2158 H 0.86077 0.94753 0.72269 0.0
C2159 C 0.87389 0.00703 0.74204 0.0
C2160 C 0.87923 0.00029 0.72052 0.0
H2161 H 0.85986 -0.00218 0.77318 0.0
H2162 H 0.87759 0.02358 0.74759 0.0
C2163 C 0.87432 0.97866 0.71394 0.0
C2164 C 0.74503 0.61471 0.0086 0.0
C2165 C 0.76652 0.60932 0.00183 0.0
H2166 H 0.71391 0.62888 -0.00053 0.0
C2167 C 0.77304 0.61412 0.98014 0.0
H2168 H 0.73952 0.61109 0.02522 0.0
C2169 C 0.7585 0.62415 0.96558 0.0
C2170 C 0.73704 0.62962 0.97222 0.0
H2171 H 0.78943 0.61018 0.97434 0.0
H2172 H 0.76424 0.62765 0.94901 0.0
C2173 C 0.73033 0.62475 0.99388 0.0
C2174 C 0.25867 0.62387 0.46544 0.0
C2175 C 0.23707 0.62893 0.47202 0.0
H2176 H 0.28974 0.61019 0.47423 0.0
C2177 C 0.23031 0.62371 0.49356 0.0
H2178 H 0.26445 0.62766 0.44898 0.0
C2179 C 0.24504 0.61369 0.50826 0.0
C2180 C 0.26664 0.60864 0.50153 0.0
H2181 H 0.21377 0.62752 0.4991 0.0
H2182 H 0.23947 0.60975 0.52476 0.0
C2183 C 0.27324 0.61385 0.47998 0.0
C2184 C 0.74655 0.37469 0.98151 0.0
C2185 C 0.76815 0.37971 0.98827 0.0
H2186 H 0.71525 0.36091 0.99062 0.0
C2187 C 0.77472 0.37445 0.00982 0.0
H2188 H 0.74101 0.37866 0.96501 0.0
C2189 C 0.76012 0.36444 0.02433 0.0
C2190 C 0.73851 0.35945 0.01773 0.0
H2191 H 0.79123 0.37808 0.01559 0.0
H2192 H 0.76587 0.36063 0.0408 0.0
C2193 C 0.7318 0.36468 -0.00382 0.0
C2194 C 0.36553 0.52427 0.26052 0.0
C2195 C 0.36058 0.51774 0.23888 0.0
H2196 H 0.37902 0.5154 0.29164 0.0
C2197 C 0.36578 0.49619 0.23213 0.0
H2198 H 0.36175 0.54073 0.2663 0.0
C2199 C 0.37569 0.48145 0.24688 0.0
C2200 C 0.38064 0.48813 0.26852 0.0
H2201 H 0.36205 0.49068 0.21557 0.0
H2202 H 0.37963 0.46495 0.24132 0.0
C2203 C 0.37544 0.50968 0.27512 0.0
C2204 C 0.2176 0.11513 0.50957 0.0
C2205 C 0.22406 0.11042 0.48786 0.0
H2206 H 0.22651 0.12833 0.54079 0.0
C2207 C 0.24559 0.11572 0.4811 0.0
H2208 H 0.20116 0.11126 0.51537 0.0
C2209 C 0.26036 0.12553 0.49591 0.0
C2210 C 0.25372 0.13027 0.5176 0.0
H2211 H 0.25105 0.11216 0.46448 0.0
H2212 H 0.27683 0.12958 0.49033 0.0
C2213 C 0.2322 0.12492 0.52422 0.0
C2214 C 0.73014 0.36514 0.46581 0.0
C2215 C 0.75172 0.36008 0.47249 0.0
H2216 H 0.69911 0.37903 0.47437 0.0
C2217 C 0.75844 0.36548 0.49399 0.0
H2218 H 0.72439 0.36121 0.44937 0.0
C2219 C 0.74372 0.37572 0.50855 0.0
C2220 C 0.72216 0.38079 0.50171 0.0
H2221 H 0.77495 0.36167 0.49961 0.0
H2222 H 0.74926 0.37981 0.52502 0.0
C2223 C 0.71559 0.37537 0.4802 0.0
C2224 C 0.37439 0.00817 0.24427 0.0
C2225 C 0.37992 0.00138 0.22281 0.0
H2226 H 0.36012 -0.00099 0.27533 0.0
C2227 C 0.37527 0.97966 0.21632 0.0
H2228 H 0.3779 0.02479 0.24975 0.0
C2229 C 0.36525 0.96506 0.23082 0.0
C2230 C 0.35964 0.97172 0.25225 0.0
H2231 H 0.37932 0.97383 0.19994 0.0
H2232 H 0.36187 0.94848 0.22511 0.0
C2233 C 0.36437 0.9934 0.25893 0.0
C2234 C 0.61512 0.48271 0.74275 0.0
C2235 C 0.60991 0.4895 0.72122 0.0
H2236 H 0.6292 0.49175 0.77392 0.0
C2237 C 0.61511 0.51106 0.71464 0.0
H2238 H 0.61121 0.4662 0.7483 0.0
C2239 C 0.62528 0.52555 0.72916 0.0
C2240 C 0.63047 0.5189 0.7507 0.0
H2241 H 0.61133 0.51685 0.69818 0.0
H2242 H 0.62904 0.54202 0.72341 0.0
C2243 C 0.62528 0.49735 0.75743 0.0
C2244 C 0.49374 0.25818 0.86593 0.0
C2245 C 0.47216 0.25136 0.86093 0.0
H2246 H 0.52513 0.24912 0.87955 0.0
C2247 C 0.46572 0.22973 0.86604 0.0
H2248 H 0.49919 0.27473 0.86207 0.0
C2249 C 0.48042 0.21521 0.87589 0.0
C2250 C 0.50201 0.22188 0.88086 0.0
H2251 H 0.44923 0.22391 0.86242 0.0
H2252 H 0.47476 0.19869 0.87959 0.0
C2253 C 0.5086 0.2435 0.87579 0.0
C2254 C 0.49643 0.23141 0.36445 0.0
C2255 C 0.51797 0.23829 0.35938 0.0
H2256 H 0.46517 0.24029 0.37848 0.0
C2257 C 0.52448 0.25983 0.36474 0.0
H2258 H 0.49093 0.21491 0.3604 0.0
C2259 C 0.50988 0.27421 0.37493 0.0
C2260 C 0.48832 0.26749 0.38001 0.0
H2261 H 0.54094 0.2657 0.36107 0.0
H2262 H 0.51558 0.29068 0.37882 0.0
C2263 C 0.48166 0.24595 0.37465 0.0
C2264 C 0.46512 0.73003 0.36582 0.0
C2265 C 0.47158 0.75163 0.36065 0.0
H2266 H 0.47414 0.69904 0.37951 0.0
C2267 C 0.49314 0.75849 0.36569 0.0
H2268 H 0.44865 0.72418 0.36217 0.0
C2269 C 0.50798 0.74386 0.37564 0.0
C2270 C 0.50138 0.72225 0.38078 0.0
H2271 H 0.49859 0.77503 0.36178 0.0
H2272 H 0.52449 0.7495 0.37943 0.0
C2273 C 0.4798 0.71555 0.37577 0.0
C2274 C 0.52421 0.76011 0.86423 0.0
C2275 C 0.51771 0.73852 0.85905 0.0
H2276 H 0.51535 0.79102 0.87819 0.0
C2277 C 0.49619 0.73164 0.86426 0.0
H2278 H 0.54065 0.76598 0.86045 0.0
C2279 C 0.48147 0.74622 0.87445 0.0
C2280 C 0.48814 0.76779 0.87967 0.0
H2281 H 0.49071 0.71512 0.86034 0.0
H2282 H 0.465 0.74056 0.87841 0.0
C2283 C 0.50964 0.77452 0.87442 0.0
C2284 C 0.62482 0.99409 0.72992 0.0
C2285 C 0.6299 0.97246 0.73652 0.0
H2286 H 0.61128 0.02539 0.73939 0.0
C2287 C 0.62506 0.96586 0.75816 0.0
H2288 H 0.62847 -0.00035 0.71336 0.0
C2289 C 0.61537 0.98045 0.7729 0.0
C2290 C 0.61029 0.00208 0.76647 0.0
H2291 H 0.62874 0.94934 0.76383 0.0
H2292 H 0.61187 0.97466 0.78943 0.0
C2293 C 0.61512 0.00883 0.74483 0.0
C2294 C 0.62477 0.4942 0.23103 0.0
C2295 C 0.62977 0.47258 0.23771 0.0
H2296 H 0.61108 0.52549 0.24029 0.0
C2297 C 0.62459 0.46597 0.25926 0.0
H2298 H 0.62868 0.49977 0.21453 0.0
C2299 C 0.61468 0.48055 0.27386 0.0
C2300 C 0.60969 0.50218 0.26735 0.0
H2301 H 0.6282 0.44945 0.26499 0.0
H2302 H 0.61093 0.47475 0.29033 0.0
C2303 C 0.61484 0.50893 0.24579 0.0
C2304 C 0.11067 0.33655 0.05775 0.0
C2305 C 0.08917 0.33893 0.04945 0.0
H2306 H 0.14373 0.3491 0.05793 0.0
C2307 C 0.08516 0.35445 0.0328 0.0
H2308 H 0.11419 0.32471 0.07064 0.0
C2309 C 0.10204 0.3681 0.02532 0.0
C2310 C 0.12324 0.36682 0.03462 0.0
H2311 H 0.06877 0.35648 0.02599 0.0
H2312 H 0.09814 0.38041 0.01299 0.0
C2313 C 0.12755 0.35054 0.05053 0.0
C2314 C 0.90287 0.3611 0.30876 0.0
C2315 C 0.90054 0.3396 0.30045 0.0
H2316 H 0.89027 0.39414 0.30892 0.0
C2317 C 0.88505 0.33557 0.28378 0.0
H2318 H 0.91468 0.36462 0.32168 0.0
C2319 C 0.8714 0.35244 0.27626 0.0
C2320 C 0.87263 0.37363 0.28555 0.0
H2321 H 0.88305 0.31919 0.27696 0.0
H2322 H 0.85913 0.34852 0.26389 0.0
C2323 C 0.88887 0.37796 0.30151 0.0
C2324 C 0.86162 0.13809 0.54941 0.0
C2325 C 0.86599 0.12177 0.53356 0.0
H2326 H 0.87491 0.16398 0.56951 0.0
C2327 C 0.88723 0.12045 0.52436 0.0
H2328 H 0.8454 0.13956 0.55673 0.0
C2329 C 0.90409 0.13412 0.53189 0.0
C2330 C 0.90001 0.1497 0.54846 0.0
H2331 H 0.89118 0.10811 0.51208 0.0
H2332 H 0.92051 0.13205 0.52516 0.0
C2333 C 0.87847 0.1521 0.55666 0.0
C2334 C 0.11861 0.13705 0.77515 0.0
C2335 C 0.11744 0.11587 0.78449 0.0
H2336 H 0.10683 0.17025 0.77578 0.0
C2337 C 0.10117 0.1115 0.8004 0.0
H2338 H 0.13089 0.14099 0.76281 0.0
C2339 C 0.08709 0.12832 0.8076 0.0
C2340 C 0.08937 0.14981 0.79927 0.0
H2341 H 0.09982 0.09533 0.80784 0.0
H2342 H 0.07527 0.12478 0.82051 0.0
C2343 C 0.10487 0.15387 0.78262 0.0
C2344 C 0.08627 0.63572 0.95749 0.0
C2345 C 0.09011 0.65116 0.94073 0.0
H2346 H 0.09949 0.60996 0.9774 0.0
C2347 C 0.11156 0.65361 0.93231 0.0
H2348 H 0.06993 0.63363 0.96439 0.0
C2349 C 0.12856 0.63975 0.93953 0.0
C2350 C 0.12441 0.62354 0.95555 0.0
H2351 H 0.11493 0.66539 0.91933 0.0
H2352 H 0.14469 0.64122 0.93202 0.0
C2353 C 0.10327 0.62221 0.96497 0.0
C2354 C 0.60372 0.33635 0.20595 0.0
C2355 C 0.5885 0.34024 0.189 0.0
H2356 H 0.62936 0.34945 0.2261 0.0
C2357 C 0.58631 0.36166 0.18046 0.0
H2358 H 0.6056 0.32003 0.21295 0.0
C2359 C 0.60022 0.37857 0.18777 0.0
C2360 C 0.61622 0.37437 0.204 0.0
H2361 H 0.57469 0.36506 0.16734 0.0
H2362 H 0.59895 0.39468 0.18019 0.0
C2363 C 0.61728 0.35327 0.21351 0.0
C2364 C 0.86084 0.84928 0.4375 0.0
C2365 C 0.86495 0.86554 0.45349 0.0
H2366 H 0.87446 0.82349 0.4175 0.0
C2367 C 0.88604 0.86681 0.46304 0.0
H2368 H 0.84474 0.84785 0.4299 0.0
C2369 C 0.90302 0.85318 0.45573 0.0
C2370 C 0.89921 0.83769 0.43901 0.0
H2371 H 0.88979 0.87909 0.47544 0.0
H2372 H 0.91932 0.85521 0.46274 0.0
C2373 C 0.87781 0.83531 0.43045 0.0
C2374 C 0.37306 0.13745 0.71472 0.0
C2375 C 0.37437 0.11632 0.70531 0.0
H2376 H 0.38454 0.17076 0.71416 0.0
C2377 C 0.39061 0.11214 0.68931 0.0
H2378 H 0.3608 0.14125 0.72714 0.0
C2379 C 0.4045 0.1291 0.6821 0.0
C2380 C 0.40206 0.15055 0.69051 0.0
H2381 H 0.39207 0.096 0.68182 0.0
H2382 H 0.4163 0.12571 0.66914 0.0
C2383 C 0.38661 0.15442 0.70725 0.0
C2384 C 0.05201 0.12828 0.35077 0.0
C2385 C 0.03609 0.12418 0.3671 0.0
H2386 H 0.07198 0.1146 0.32498 0.0
C2387 C 0.02664 0.10306 0.36851 0.0
H2388 H 0.05953 0.14439 0.34923 0.0
C2389 C 0.03398 0.08604 0.35495 0.0
C2390 C 0.05062 0.08985 0.33938 0.0
H2391 H 0.01429 0.09931 0.38085 0.0
H2392 H 0.02706 0.06972 0.3571 0.0
C2393 C 0.05908 0.11127 0.33686 0.0
C2394 C 0.12789 0.30718 0.58644 0.0
C2395 C 0.14933 0.29878 0.58896 0.0
H2396 H 0.09476 0.30759 0.59882 0.0
C2397 C 0.15317 0.28217 0.60455 0.0
H2398 H 0.12452 0.32006 0.57454 0.0
C2399 C 0.13617 0.27482 0.61814 0.0
C2400 C 0.11503 0.28423 0.61672 0.0
H2401 H 0.16951 0.27528 0.60671 0.0
H2402 H 0.13995 0.2625 0.6305 0.0
C2403 C 0.11089 0.3001 0.60036 0.0
C2404 C 0.95717 0.40383 0.85521 0.0
C2405 C 0.94057 0.40005 0.83957 0.0
H2406 H 0.97685 0.39049 0.8811 0.0
C2407 C 0.93219 0.37862 0.83694 0.0
H2408 H 0.96405 0.42016 0.85745 0.0
C2409 C 0.93928 0.36157 0.85078 0.0
C2410 C 0.95516 0.36564 0.86716 0.0
H2411 H 0.91933 0.37529 0.82501 0.0
H2412 H 0.93182 0.34544 0.84914 0.0
C2413 C 0.96454 0.38678 0.86871 0.0
C2414 C 0.83642 0.20646 0.10571 0.0
C2415 C 0.84043 0.19 0.09 0.0
H2416 H 0.84941 0.22598 0.13188 0.0
C2417 C 0.86192 0.1817 0.08754 0.0
H2418 H 0.82004 0.21326 0.10782 0.0
C2419 C 0.87881 0.18874 0.10161 0.0
C2420 C 0.8745 0.20448 0.11806 0.0
H2421 H 0.86542 0.16893 0.07555 0.0
H2422 H 0.89499 0.18135 0.10009 0.0
C2423 C 0.85331 0.21378 0.11945 0.0
C2424 C 0.02575 0.88799 0.62063 0.0
C2425 C 0.03505 0.86681 0.62197 0.0
H2426 H 0.02644 0.92129 0.63212 0.0
C2427 C 0.05105 0.86258 0.63819 0.0
H2428 H 0.01335 0.89183 0.60837 0.0
C2429 C 0.05832 0.87951 0.65208 0.0
C2430 C 0.04999 0.90098 0.64967 0.0
H2431 H 0.05847 0.84641 0.63966 0.0
H2432 H 0.07126 0.87606 0.66389 0.0
C2433 C 0.03328 0.90493 0.63418 0.0
C2434 C 0.33536 0.28226 0.88599 0.0
C2435 C 0.33919 0.29897 0.90149 0.0
H2436 H 0.34861 0.26242 0.86018 0.0
C2437 C 0.36065 0.30735 0.904 0.0
H2438 H 0.31901 0.27538 0.88386 0.0
C2439 C 0.37765 0.30016 0.89015 0.0
C2440 C 0.37352 0.28419 0.87388 0.0
H2441 H 0.36402 0.32029 0.91583 0.0
H2442 H 0.39379 0.30764 0.89168 0.0
C2443 C 0.35237 0.2748 0.87248 0.0
C2444 C 0.93778 0.62795 0.13934 0.0
C2445 C 0.95379 0.62371 0.12313 0.0
H2446 H 0.91762 0.61449 0.1651 0.0
C2447 C 0.96326 0.60259 0.12195 0.0
H2448 H 0.93024 0.64408 0.1407 0.0
C2449 C 0.95583 0.58569 0.13561 0.0
C2450 C 0.93907 0.58962 0.15104 0.0
H2451 H 0.97569 0.59874 0.10973 0.0
H2452 H 0.96277 0.56935 0.13364 0.0
C2453 C 0.93061 0.61106 0.15333 0.0
C2454 C 0.62893 0.18204 0.4023 0.0
C2455 C 0.6504 0.19043 0.4 0.0
H2456 H 0.59588 0.18182 0.38971 0.0
C2457 C 0.65436 0.20722 0.38462 0.0
H2458 H 0.62546 0.16903 0.41403 0.0
C2459 C 0.63746 0.21474 0.37101 0.0
C2460 C 0.6163 0.20535 0.37219 0.0
H2461 H 0.67072 0.21411 0.38265 0.0
H2462 H 0.64132 0.22719 0.35881 0.0
C2463 C 0.61203 0.1893 0.38835 0.0
C2464 C 0.35368 0.03269 0.08651 0.0
C2465 C 0.3383 0.04951 0.09035 0.0
H2466 H 0.37946 0.01278 0.09969 0.0
C2467 C 0.33597 0.05803 0.11176 0.0
H2468 H 0.35567 0.0257 0.0702 0.0
C2469 C 0.34989 0.05086 0.12872 0.0
C2470 C 0.36606 0.03479 0.12456 0.0
H2471 H 0.32423 0.07106 0.11513 0.0
H2472 H 0.34852 0.05845 0.14482 0.0
C2473 C 0.36726 0.02526 0.10347 0.0
C2474 C 0.85105 0.9372 0.36039 0.0
C2475 C 0.86715 0.95328 0.36478 0.0
H2476 H 0.82519 0.917 0.37361 0.0
C2477 C 0.86803 0.96282 0.38588 0.0
H2478 H 0.84992 0.92961 0.34427 0.0
C2479 C 0.85419 0.9554 0.40263 0.0
C2480 C 0.83887 0.93858 0.39857 0.0
H2481 H 0.88017 0.9753 0.38984 0.0
H2482 H 0.85593 0.9624 0.41897 0.0
C2483 C 0.83687 0.93004 0.37714 0.0
C2484 C 0.31043 0.0871 0.62895 0.0
C2485 C 0.30174 0.08935 0.65031 0.0
H2486 H 0.31097 0.09969 0.59591 0.0
C2487 C 0.28482 0.10464 0.65406 0.0
H2488 H 0.32355 0.07545 0.62566 0.0
C2489 C 0.27741 0.11819 0.63707 0.0
C2490 C 0.28706 0.11705 0.61603 0.0
H2491 H 0.27771 0.10657 0.67033 0.0
H2492 H 0.26483 0.1303 0.64079 0.0
C2493 C 0.30328 0.10101 0.61197 0.0
C2494 C 0.13973 0.55154 0.86233 0.0
C2495 C 0.12352 0.53553 0.86651 0.0
H2496 H 0.16537 0.57178 0.8759 0.0
C2497 C 0.12214 0.52621 0.88768 0.0
H2498 H 0.14123 0.55898 0.84617 0.0
C2499 C 0.13564 0.53376 0.90466 0.0
C2500 C 0.1511 0.55049 0.90077 0.0
H2501 H 0.10989 0.51379 0.89149 0.0
H2502 H 0.13353 0.5269 0.92102 0.0
C2503 C 0.15357 0.55883 0.87931 0.0
C2504 C 0.2063 0.88481 0.15402 0.0
C2505 C 0.18948 0.90017 0.15012 0.0
H2506 H 0.22632 0.85908 0.14091 0.0
C2507 C 0.18103 0.90249 0.12868 0.0
H2508 H 0.21323 0.88282 0.17036 0.0
C2509 C 0.1883 0.88859 0.11175 0.0
C2510 C 0.2044 0.87246 0.11595 0.0
H2511 H 0.168 0.91421 0.12527 0.0
H2512 H 0.18078 0.88997 0.09561 0.0
C2513 C 0.21383 0.87125 0.13709 0.0
C2514 C 0.62146 0.96523 0.10121 0.0
C2515 C 0.62286 0.95599 0.12241 0.0
H2516 H 0.63291 0.96447 0.06789 0.0
C2517 C 0.63921 0.94014 0.1267 0.0
H2518 H 0.6091 0.97752 0.09733 0.0
C2519 C 0.65314 0.9329 0.10978 0.0
C2520 C 0.65063 0.94112 0.08827 0.0
H2521 H 0.64075 0.93279 0.14289 0.0
H2522 H 0.66503 0.92004 0.11327 0.0
C2523 C 0.63505 0.95772 0.08428 0.0
C2524 C 0.27517 0.3702 0.85282 0.0
C2525 C 0.28448 0.37175 0.87399 0.0
H2526 H 0.27572 0.38149 0.81945 0.0
C2527 C 0.30031 0.38816 0.87812 0.0
H2528 H 0.26289 0.35779 0.84906 0.0
C2529 C 0.30742 0.40203 0.8611 0.0
C2530 C 0.2991 0.3994 0.83965 0.0
H2531 H 0.30772 0.38981 0.89428 0.0
H2532 H 0.32025 0.41399 0.86447 0.0
C2533 C 0.28255 0.38373 0.8358 0.0
C2534 C 0.71445 0.11903 0.35152 0.0
C2535 C 0.70506 0.11753 0.37266 0.0
H2536 H 0.71394 0.1077 0.31816 0.0
C2537 C 0.68918 0.10116 0.37676 0.0
H2538 H 0.72676 0.13139 0.34778 0.0
C2539 C 0.68206 0.0873 0.35974 0.0
C2540 C 0.69045 0.08989 0.3383 0.0
H2541 H 0.68171 0.09956 0.3929 0.0
H2542 H 0.66919 0.0754 0.36309 0.0
C2543 C 0.70707 0.10549 0.33449 0.0
C2544 C 0.12739 0.85167 0.54945 0.0
C2545 C 0.12301 0.86825 0.53387 0.0
H2546 H 0.1141 0.82556 0.56922 0.0
C2547 C 0.10174 0.86981 0.5248 0.0
H2548 H 0.14364 0.85002 0.55666 0.0
C2549 C 0.08485 0.8561 0.5322 0.0
C2550 C 0.08895 0.84025 0.54852 0.0
H2551 H 0.09779 0.88235 0.51273 0.0
H2552 H 0.06841 0.85834 0.52559 0.0
C2553 C 0.11052 0.83764 0.55658 0.0
C2554 C 0.90264 0.86037 0.80753 0.0
C2555 C 0.90046 0.83882 0.79933 0.0
H2556 H 0.88989 0.89335 0.80741 0.0
C2557 C 0.88511 0.83463 0.78256 0.0
H2558 H 0.91434 0.86401 0.82051 0.0
C2559 C 0.87143 0.85138 0.77485 0.0
C2560 C 0.8725 0.87263 0.78404 0.0
H2561 H 0.88323 0.8182 0.77581 0.0
H2562 H 0.85927 0.84734 0.76242 0.0
C2563 C 0.88861 0.87712 0.80008 0.0
C2564 C 0.886 0.62173 0.0257 0.0
C2565 C 0.8649 0.62297 0.03522 0.0
H2566 H 0.91931 0.63326 0.02614 0.0
C2567 C 0.86078 0.63915 0.05129 0.0
H2568 H 0.88976 0.60952 0.01323 0.0
C2569 C 0.87776 0.65305 0.05845 0.0
C2570 C 0.89918 0.65068 0.04993 0.0
H2571 H 0.84468 0.64055 0.05888 0.0
H2572 H 0.87442 0.66479 0.07148 0.0
C2573 C 0.90299 0.63529 0.03312 0.0
C2574 C 0.10409 0.6528 0.28227 0.0
C2575 C 0.08858 0.64875 0.29892 0.0
H2576 H 0.13016 0.63993 0.26252 0.0
C2577 C 0.08631 0.62727 0.30727 0.0
H2578 H 0.10604 0.66918 0.27542 0.0
C2579 C 0.10042 0.61046 0.30012 0.0
C2580 C 0.11671 0.61482 0.28422 0.0
H2581 H 0.07448 0.62374 0.32017 0.0
H2582 H 0.09908 0.5943 0.30758 0.0
C2583 C 0.11786 0.63599 0.27485 0.0
C2584 C 0.12948 0.14021 0.43856 0.0
C2585 C 0.12544 0.12403 0.45464 0.0
H2586 H 0.11571 0.16578 0.41837 0.0
C2587 C 0.10435 0.12268 0.46417 0.0
H2588 H 0.14557 0.14169 0.43097 0.0
C2589 C 0.08729 0.13615 0.45674 0.0
C2590 C 0.09102 0.15155 0.43993 0.0
H2591 H 0.10065 0.11046 0.47665 0.0
H2592 H 0.07099 0.13405 0.46374 0.0
C2593 C 0.11242 0.15402 0.4314 0.0
C2594 C 0.59967 0.87821 0.68665 0.0
C2595 C 0.61575 0.87413 0.70284 0.0
H2596 H 0.57411 0.86451 0.66638 0.0
C2597 C 0.61691 0.85308 0.71245 0.0
H2598 H 0.59833 0.89427 0.67899 0.0
C2599 C 0.60338 0.83608 0.70502 0.0
C2600 C 0.58808 0.83984 0.68811 0.0
H2601 H 0.62904 0.84935 0.72501 0.0
H2602 H 0.60533 0.8198 0.7121 0.0
C2603 C 0.58579 0.86121 0.67948 0.0
C2604 C 0.8789 0.33642 0.93172 0.0
C2605 C 0.9004 0.33872 0.94006 0.0
H2606 H 0.84587 0.34903 0.93154 0.0
C2607 C 0.90441 0.35416 0.95678 0.0
H2608 H 0.87539 0.32464 0.91877 0.0
C2609 C 0.88754 0.36782 0.9643 0.0
C2610 C 0.86636 0.36662 0.95497 0.0
H2611 H 0.92079 0.35614 0.96363 0.0
H2612 H 0.89145 0.38006 0.9767 0.0
C2613 C 0.86204 0.35041 0.93898 0.0
C2614 C 0.38622 0.65416 0.20719 0.0
C2615 C 0.4017 0.65022 0.19049 0.0
H2616 H 0.36037 0.64108 0.22709 0.0
C2617 C 0.40413 0.62874 0.18217 0.0
H2618 H 0.38415 0.67053 0.21402 0.0
C2619 C 0.39022 0.61181 0.18942 0.0
C2620 C 0.37397 0.61605 0.20539 0.0
H2621 H 0.41595 0.62529 0.16923 0.0
H2622 H 0.39169 0.59564 0.182 0.0
C2623 C 0.37265 0.63723 0.21471 0.0
C2624 C 0.05904 0.61139 0.83728 0.0
C2625 C 0.05054 0.58997 0.83957 0.0
H2626 H 0.05939 0.64444 0.84988 0.0
C2627 C 0.03374 0.58608 0.85495 0.0
H2628 H 0.07206 0.61479 0.82555 0.0
C2629 C 0.02627 0.603 0.86856 0.0
C2630 C 0.03575 0.62412 0.86738 0.0
H2631 H 0.02677 0.56975 0.85692 0.0
H2632 H 0.0138 0.59918 0.88075 0.0
C2633 C 0.05184 0.62832 0.85123 0.0
C2634 C 0.12867 0.80756 0.08663 0.0
C2635 C 0.15014 0.7992 0.08912 0.0
H2636 H 0.09554 0.80784 0.09902 0.0
C2637 C 0.15403 0.78255 0.10467 0.0
H2638 H 0.12527 0.82046 0.07477 0.0
C2639 C 0.13705 0.77511 0.11823 0.0
C2640 C 0.11589 0.78447 0.11684 0.0
H2641 H 0.17039 0.7757 0.10679 0.0
H2642 H 0.14086 0.76277 0.13055 0.0
C2643 C 0.1117 0.80039 0.10054 0.0
C2644 C 0.96427 0.88527 0.36778 0.0
C2645 C 0.95465 0.86423 0.3664 0.0
H2646 H 0.96414 0.91858 0.3563 0.0
C2647 C 0.93873 0.86022 0.35005 0.0
H2648 H 0.97663 0.88895 0.38013 0.0
C2649 C 0.93182 0.87725 0.33609 0.0
C2650 C 0.94044 0.89861 0.33858 0.0
H2651 H 0.93108 0.84416 0.34853 0.0
H2652 H 0.91891 0.87399 0.32419 0.0
C2653 C 0.95709 0.90231 0.35417 0.0
C2654 C 0.83669 0.70699 0.60492 0.0
C2655 C 0.84063 0.69048 0.58924 0.0
H2656 H 0.84977 0.72658 0.63099 0.0
C2657 C 0.86212 0.68219 0.58671 0.0
H2658 H 0.82031 0.71379 0.60708 0.0
C2659 C 0.87906 0.68928 0.6007 0.0
C2660 C 0.87481 0.70505 0.61714 0.0
H2661 H 0.86558 0.6694 0.57475 0.0
H2662 H 0.89523 0.68188 0.59914 0.0
C2663 C 0.85362 0.71435 0.61857 0.0
C2664 C 0.05016 0.36149 0.13894 0.0
C2665 C 0.03433 0.36564 0.12255 0.0
H2666 H 0.07003 0.37508 0.16485 0.0
C2667 C 0.0249 0.38677 0.12112 0.0
H2668 H 0.05766 0.34536 0.1405 0.0
C2669 C 0.0322 0.40374 0.13476 0.0
C2670 C 0.04877 0.39989 0.1504 0.0
H2671 H 0.01262 0.39054 0.10872 0.0
H2672 H 0.0253 0.42008 0.13261 0.0
C2673 C 0.05719 0.37846 0.15291 0.0
C2674 C 0.35982 0.80708 0.40321 0.0
C2675 C 0.33837 0.79877 0.40049 0.0
H2676 H 0.39305 0.8074 0.39111 0.0
C2677 C 0.33459 0.78222 0.38481 0.0
H2678 H 0.36315 0.8199 0.41518 0.0
C2679 C 0.35167 0.77484 0.37134 0.0
C2680 C 0.37283 0.78417 0.37297 0.0
H2681 H 0.31824 0.7754 0.3825 0.0
H2682 H 0.34796 0.76259 0.3589 0.0
C2683 C 0.3769 0.79998 0.38941 0.0
C2684 C 0.96354 0.10189 0.62076 0.0
C2685 C 0.95399 0.12297 0.62197 0.0
H2686 H 0.96308 0.0686 0.63228 0.0
C2687 C 0.9378 0.12706 0.63804 0.0
H2688 H 0.97609 0.09816 0.60863 0.0
C2689 C 0.93057 0.11007 0.65189 0.0
C2690 C 0.93915 0.08868 0.64956 0.0
H2691 H 0.93019 0.14316 0.63942 0.0
H2692 H 0.91747 0.1134 0.66356 0.0
C2693 C 0.95605 0.0849 0.63426 0.0
C2694 C 0.63712 0.71465 0.87121 0.0
C2695 C 0.61592 0.70535 0.87237 0.0
H2696 H 0.67034 0.71394 0.88299 0.0
C2697 C 0.61153 0.68939 0.88859 0.0
H2698 H 0.64108 0.72701 0.85896 0.0
C2699 C 0.62834 0.68214 0.90264 0.0
C2700 C 0.64985 0.69044 0.90039 0.0
H2701 H 0.59534 0.68199 0.88993 0.0
H2702 H 0.62477 0.66921 0.91443 0.0
C2703 C 0.65394 0.70712 0.88493 0.0
C2704 C 0.33559 0.55684 0.61087 0.0
C2705 C 0.33814 0.54856 0.58939 0.0
H2706 H 0.3479 0.55703 0.64401 0.0
C2707 C 0.35371 0.53193 0.58548 0.0
H2708 H 0.3237 0.56971 0.61429 0.0
C2709 C 0.36725 0.52445 0.60246 0.0
C2710 C 0.3658 0.53374 0.62364 0.0
H2711 H 0.35588 0.52513 0.56912 0.0
H2712 H 0.37961 0.51214 0.59864 0.0
C2713 C 0.34946 0.54962 0.62784 0.0
C2714 C 0.83734 0.43166 0.87915 0.0
C2715 C 0.83978 0.43998 0.90063 0.0
H2716 H 0.84981 0.43142 0.84607 0.0
C2717 C 0.85534 0.45661 0.90459 0.0
H2718 H 0.82547 0.41877 0.8757 0.0
C2719 C 0.86895 0.46406 0.88766 0.0
C2720 C 0.8676 0.45475 0.86648 0.0
H2721 H 0.85743 0.46343 0.92096 0.0
H2722 H 0.88128 0.47639 0.89152 0.0
C2723 C 0.85129 0.43884 0.86223 0.0
C2724 C 0.27692 0.61835 0.13757 0.0
C2725 C 0.28639 0.61707 0.11645 0.0
H2726 H 0.27738 0.60679 0.17084 0.0
C2727 C 0.30241 0.60085 0.11229 0.0
H2728 H 0.26449 0.6306 0.14135 0.0
C2729 C 0.30956 0.58692 0.12924 0.0
C2730 C 0.30108 0.5893 0.15066 0.0
H2731 H 0.30995 0.59942 0.09617 0.0
H2732 H 0.32254 0.57513 0.12586 0.0
C2733 C 0.28434 0.60476 0.15452 0.0
C2734 C 0.13684 0.03402 0.40389 0.0
C2735 C 0.15205 0.05094 0.39985 0.0
H2736 H 0.11113 0.01382 0.39102 0.0
C2737 C 0.15413 0.05938 0.37838 0.0
H2738 H 0.13504 0.02708 0.42025 0.0
C2739 C 0.14013 0.052 0.36157 0.0
C2740 C 0.12414 0.0358 0.36592 0.0
H2741 H 0.16573 0.07249 0.37486 0.0
H2742 H 0.14131 0.05951 0.34542 0.0
C2743 C 0.12318 0.02638 0.38708 0.0
C2744 C 0.18741 0.38817 0.61174 0.0
C2745 C 0.20351 0.37203 0.61593 0.0
H2746 H 0.16717 0.41383 0.62529 0.0
C2747 C 0.21295 0.37081 0.63706 0.0
H2748 H 0.17989 0.38956 0.59562 0.0
C2749 C 0.20546 0.38437 0.654 0.0
C2750 C 0.18867 0.39977 0.65012 0.0
H2751 H 0.22543 0.35862 0.64088 0.0
H2752 H 0.21241 0.38238 0.67034 0.0
C2753 C 0.18019 0.40209 0.62869 0.0
C2754 C 0.63476 0.45817 0.58479 0.0
C2755 C 0.6505 0.44172 0.58882 0.0
H2756 H 0.60866 0.47779 0.59781 0.0
C2757 C 0.65312 0.43362 0.61036 0.0
H2758 H 0.63253 0.46483 0.56838 0.0
C2759 C 0.63916 0.4408 0.62727 0.0
C2760 C 0.62267 0.45649 0.62296 0.0
H2761 H 0.66513 0.42088 0.61388 0.0
H2762 H 0.6408 0.43353 0.64349 0.0
C2763 C 0.62113 0.46563 0.60172 0.0
C2764 C 0.27478 0.8706 0.35214 0.0
C2765 C 0.28397 0.87192 0.37338 0.0
H2766 H 0.27557 0.88221 0.31889 0.0
C2767 C 0.29981 0.88825 0.37776 0.0
H2768 H 0.2625 0.85825 0.34819 0.0
C2769 C 0.30706 0.90227 0.36092 0.0
C2770 C 0.29887 0.89986 0.33939 0.0
H2771 H 0.30713 0.88972 0.39398 0.0
H2772 H 0.3199 0.91415 0.36449 0.0
C2773 C 0.2823 0.88427 0.3353 0.0
C2774 C 0.68159 0.58734 0.86048 0.0
C2775 C 0.69016 0.58993 0.83912 0.0
H2776 H 0.68101 0.59957 0.89365 0.0
C2777 C 0.70685 0.60548 0.83546 0.0
H2778 H 0.66865 0.57547 0.86371 0.0
C2779 C 0.71414 0.61896 0.85256 0.0
C2780 C 0.70459 0.61746 0.87362 0.0
H2781 H 0.71387 0.60768 0.81918 0.0
H2782 H 0.72653 0.63129 0.84893 0.0
C2783 C 0.68861 0.60116 0.87758 0.0
C2784 C 0.60276 0.36931 0.52533 0.0
C2785 C 0.62396 0.36808 0.53463 0.0
H2786 H 0.56952 0.35758 0.52597 0.0
C2787 C 0.62832 0.35177 0.5505 0.0
H2788 H 0.59882 0.38163 0.51303 0.0
C2789 C 0.6115 0.33771 0.55768 0.0
C2790 C 0.58999 0.34002 0.54938 0.0
H2791 H 0.64451 0.35037 0.55789 0.0
H2792 H 0.61505 0.32585 0.57054 0.0
C2793 C 0.58592 0.35558 0.53278 0.0
C2794 C 0.4025 0.3603 0.80894 0.0
C2795 C 0.40025 0.33879 0.80066 0.0
H2796 H 0.38987 0.39333 0.80894 0.0
C2797 C 0.38489 0.33471 0.78388 0.0
H2798 H 0.41422 0.36385 0.82194 0.0
C2799 C 0.37127 0.35155 0.77623 0.0
C2800 C 0.37242 0.37276 0.78549 0.0
H2801 H 0.38295 0.31831 0.77707 0.0
H2802 H 0.35909 0.34759 0.76378 0.0
C2803 C 0.38854 0.37713 0.80155 0.0
C2804 C 0.37807 0.15281 0.05828 0.0
C2805 C 0.39953 0.15031 0.04989 0.0
H2806 H 0.34497 0.14036 0.05869 0.0
C2807 C 0.40341 0.13467 0.03333 0.0
H2808 H 0.37467 0.16474 0.07111 0.0
C2809 C 0.38645 0.12103 0.026 0.0
C2810 C 0.3653 0.12244 0.03539 0.0
H2811 H 0.41976 0.13253 0.02646 0.0
H2812 H 0.39026 0.10864 0.01372 0.0
C2813 C 0.36111 0.13882 0.05122 0.0
C2814 C 0.60562 0.15534 0.28212 0.0
C2815 C 0.58987 0.15126 0.29854 0.0
H2816 H 0.63172 0.14238 0.26245 0.0
C2817 C 0.58724 0.1297 0.30657 0.0
H2818 H 0.60787 0.17178 0.27552 0.0
C2819 C 0.60119 0.1128 0.29931 0.0
C2820 C 0.61768 0.11716 0.28363 0.0
H2821 H 0.57522 0.12613 0.31928 0.0
H2822 H 0.59953 0.09655 0.30651 0.0
C2823 C 0.61924 0.13844 0.2746 0.0
C2824 C 0.61155 0.654 0.43168 0.0
C2825 C 0.59017 0.65145 0.44026 0.0
H2826 H 0.64471 0.64172 0.4311 0.0
C2827 C 0.58652 0.63597 0.45701 0.0
H2828 H 0.61477 0.66581 0.4187 0.0
C2829 C 0.60362 0.6225 0.46433 0.0
C2830 C 0.62468 0.62392 0.45474 0.0
H2831 H 0.57023 0.63381 0.46404 0.0
H2832 H 0.59997 0.61021 0.47676 0.0
C2833 C 0.62864 0.64018 0.43873 0.0
C2834 C 0.09947 0.37755 0.68857 0.0
C2835 C 0.11554 0.37338 0.70474 0.0
H2836 H 0.07395 0.36398 0.66818 0.0
C2837 C 0.11672 0.35225 0.71421 0.0
H2838 H 0.09812 0.39367 0.68103 0.0
C2839 C 0.10321 0.3353 0.70663 0.0
C2840 C 0.08793 0.33916 0.68973 0.0
H2841 H 0.12885 0.34845 0.72674 0.0
H2842 H 0.10518 0.31897 0.71359 0.0
C2843 C 0.08561 0.3606 0.68126 0.0
C2844 C 0.36193 0.85036 0.93919 0.0
C2845 C 0.36612 0.86655 0.95523 0.0
H2846 H 0.37545 0.82466 0.91901 0.0
C2847 C 0.38724 0.86776 0.96471 0.0
H2848 H 0.3458 0.84898 0.93164 0.0
C2849 C 0.40418 0.85414 0.95727 0.0
C2850 C 0.40029 0.83873 0.94049 0.0
H2851 H 0.39105 0.87998 0.97715 0.0
H2852 H 0.42051 0.85613 0.96423 0.0
C2853 C 0.37886 0.83641 0.93201 0.0
C2854 C 0.88599 0.15331 0.20758 0.0
C2855 C 0.90155 0.14957 0.1909 0.0
H2856 H 0.86008 0.13997 0.22721 0.0
C2857 C 0.90407 0.12819 0.18237 0.0
H2858 H 0.88385 0.1696 0.21457 0.0
C2859 C 0.89016 0.11116 0.18937 0.0
C2860 C 0.87383 0.1152 0.2053 0.0
H2861 H 0.91595 0.1249 0.16945 0.0
H2862 H 0.8917 0.09507 0.18178 0.0
C2863 C 0.87242 0.13627 0.21485 0.0
C2864 C 0.52712 0.10263 0.86833 0.0
C2865 C 0.5364 0.12383 0.86713 0.0
H2866 H 0.52783 0.0694 0.85662 0.0
C2867 C 0.55236 0.12819 0.85091 0.0
H2868 H 0.51475 0.09868 0.88058 0.0
C2869 C 0.55963 0.11136 0.83688 0.0
C2870 C 0.55132 0.08986 0.83917 0.0
H2871 H 0.55976 0.14438 0.84953 0.0
H2872 H 0.57254 0.11489 0.82507 0.0
C2873 C 0.53465 0.08579 0.85465 0.0
C2874 C 0.61155 0.30113 0.09999 0.0
C2875 C 0.61557 0.28517 0.11629 0.0
H2876 H 0.62534 0.32117 0.07433 0.0
C2877 C 0.63668 0.2757 0.11776 0.0
H2878 H 0.59544 0.30867 0.09841 0.0
C2879 C 0.65376 0.28307 0.1043 0.0
C2880 C 0.65003 0.29977 0.08877 0.0
H2881 H 0.64037 0.26332 0.13008 0.0
H2882 H 0.67008 0.27613 0.10649 0.0
C2883 C 0.62862 0.30824 0.08618 0.0
C2884 C 0.46422 0.38685 0.36925 0.0
C2885 C 0.45487 0.3657 0.36774 0.0
H2886 H 0.46371 0.4202 0.3579 0.0
C2887 C 0.43903 0.36156 0.35134 0.0
H2888 H 0.4765 0.39062 0.38164 0.0
C2889 C 0.43194 0.37857 0.33744 0.0
C2890 C 0.4403 0.40002 0.34003 0.0
H2891 H 0.43159 0.34542 0.34973 0.0
H2892 H 0.41911 0.3752 0.32549 0.0
C2893 C 0.45686 0.40386 0.35569 0.0
C2894 C 0.33721 0.20717 0.60503 0.0
C2895 C 0.34123 0.19058 0.58945 0.0
H2896 H 0.3502 0.22691 0.63105 0.0
C2897 C 0.36274 0.1823 0.58703 0.0
H2898 H 0.32082 0.21396 0.60711 0.0
C2899 C 0.37962 0.18948 0.60104 0.0
C2900 C 0.37531 0.20533 0.61738 0.0
H2901 H 0.36624 0.16945 0.57515 0.0
H2902 H 0.39581 0.18209 0.59958 0.0
C2903 C 0.3541 0.21462 0.6187 0.0
C2904 C 0.55137 0.86258 0.13849 0.0
C2905 C 0.53543 0.86658 0.12216 0.0
H2906 H 0.5714 0.87641 0.16414 0.0
C2907 C 0.52604 0.88771 0.12055 0.0
H2908 H 0.55885 0.84646 0.14016 0.0
C2909 C 0.53344 0.90482 0.13396 0.0
C2910 C 0.55009 0.9011 0.14956 0.0
H2911 H 0.51369 0.89137 0.10819 0.0
H2912 H 0.52654 0.92113 0.13169 0.0
C2913 C 0.5585 0.87969 0.15224 0.0
C2914 C 0.83604 0.28295 0.38614 0.0
C2915 C 0.83985 0.29977 0.40153 0.0
H2916 H 0.84926 0.26306 0.36037 0.0
C2917 C 0.86126 0.3083 0.40388 0.0
H2918 H 0.81972 0.27595 0.38414 0.0
C2919 C 0.87824 0.30115 0.38997 0.0
C2920 C 0.87411 0.28507 0.3738 0.0
H2921 H 0.86461 0.32133 0.41562 0.0
H2922 H 0.89434 0.30874 0.39136 0.0
C2923 C 0.85302 0.27553 0.37258 0.0
C2924 C 0.46279 0.6019 0.62159 0.0
C2925 C 0.45327 0.623 0.62279 0.0
H2926 H 0.46231 0.56863 0.63318 0.0
C2927 C 0.43714 0.62715 0.63889 0.0
H2928 H 0.4753 0.59812 0.60943 0.0
C2929 C 0.42992 0.61019 0.65279 0.0
C2930 C 0.43846 0.58879 0.65049 0.0
H2931 H 0.42956 0.64325 0.64026 0.0
H2932 H 0.41687 0.61356 0.6645 0.0
C2933 C 0.45531 0.58494 0.63515 0.0
C2934 C 0.13692 0.21363 0.87148 0.0
C2935 C 0.11577 0.20424 0.8727 0.0
H2936 H 0.17017 0.21309 0.88317 0.0
C2937 C 0.11149 0.18829 0.88895 0.0
H2938 H 0.1408 0.226 0.85921 0.0
C2939 C 0.12837 0.18112 0.90296 0.0
C2940 C 0.14984 0.18951 0.90065 0.0
H2941 H 0.09533 0.18081 0.89034 0.0
H2942 H 0.12489 0.16819 0.91477 0.0
C2943 C 0.15381 0.2062 0.88516 0.0
C2944 C 0.86843 0.02441 0.60088 0.0
C2945 C 0.86676 0.03355 0.62211 0.0
H2946 H 0.85725 0.02519 0.56747 0.0
C2947 C 0.85024 0.04925 0.62631 0.0
H2948 H 0.88093 0.01224 0.59706 0.0
C2949 C 0.8364 0.05644 0.6093 0.0
C2950 C 0.83916 0.04832 0.58778 0.0
H2951 H 0.84851 0.05653 0.64251 0.0
H2952 H 0.82437 0.06918 0.61274 0.0
C2953 C 0.85492 0.03187 0.58386 0.0
C2954 C 0.33732 0.93186 0.87935 0.0
C2955 C 0.33964 0.9401 0.90088 0.0
H2956 H 0.34995 0.93182 0.84633 0.0
C2957 C 0.35511 0.95677 0.90497 0.0
H2958 H 0.32552 0.91895 0.87579 0.0
C2959 C 0.36878 0.96436 0.88814 0.0
C2960 C 0.36756 0.95513 0.86692 0.0
H2961 H 0.3571 0.96354 0.92138 0.0
H2962 H 0.38104 0.97671 0.89211 0.0
C2963 C 0.35133 0.93918 0.86253 0.0
C2964 C 0.80951 0.08652 0.1286 0.0
C2965 C 0.80104 0.08875 0.15004 0.0
H2966 H 0.80979 0.09918 0.09558 0.0
C2967 C 0.78423 0.10411 0.15399 0.0
H2968 H 0.82253 0.0748 0.12514 0.0
C2969 C 0.77672 0.11774 0.13711 0.0
C2970 C 0.78616 0.11661 0.11597 0.0
H2971 H 0.77728 0.10603 0.17033 0.0
H2972 H 0.76424 0.12992 0.14097 0.0
C2973 C 0.80227 0.1005 0.11172 0.0
C2974 C 0.63974 0.55229 0.36128 0.0
C2975 C 0.62379 0.53603 0.36552 0.0
H2976 H 0.66526 0.57279 0.37471 0.0
C2977 C 0.62282 0.52651 0.38663 0.0
H2978 H 0.64093 0.55988 0.34516 0.0
C2979 C 0.63641 0.53411 0.4035 0.0
C2980 C 0.65158 0.55109 0.39957 0.0
H2981 H 0.61079 0.51389 0.39049 0.0
H2982 H 0.6346 0.5271 0.41983 0.0
C2983 C 0.65369 0.55963 0.37815 0.0
C2984 C 0.67984 0.90262 0.62654 0.0
C2985 C 0.68857 0.90055 0.64789 0.0
H2986 H 0.67926 0.88977 0.59359 0.0
C2987 C 0.70551 0.88531 0.65173 0.0
H2988 H 0.66671 0.91424 0.62318 0.0
C2989 C 0.7129 0.87163 0.63484 0.0
C2990 C 0.70321 0.87258 0.61381 0.0
H2991 H 0.71264 0.88351 0.66801 0.0
H2992 H 0.7255 0.85956 0.63864 0.0
C2993 C 0.68697 0.88859 0.60964 0.0
C2994 C 0.13915 0.93998 0.62703 0.0
C2995 C 0.12282 0.95589 0.6229 0.0
H2996 H 0.16487 0.9199 0.61339 0.0
C2997 C 0.12137 0.96527 0.60176 0.0
H2998 H 0.14072 0.93252 0.64317 0.0
C2999 C 0.13489 0.95784 0.58475 0.0
C3000 C 0.15044 0.94117 0.58858 0.0
H3001 H 0.10903 0.97761 0.59801 0.0
H3002 H 0.13271 0.9647 0.5684 0.0
C3003 C 0.153 0.93281 0.61002 0.0
C3004 C 0.80071 0.38888 0.37842 0.0
C3005 C 0.78488 0.37247 0.37427 0.0
H3006 H 0.82061 0.41475 0.3648 0.0
C3007 C 0.77552 0.37098 0.35312 0.0
H3008 H 0.80816 0.39048 0.39456 0.0
C3009 C 0.78286 0.38456 0.33613 0.0
C3010 C 0.79941 0.40023 0.33998 0.0
H3011 H 0.76325 0.35858 0.34935 0.0
H3012 H 0.776 0.38237 0.31978 0.0
C3013 C 0.80778 0.4028 0.36142 0.0
C3014 C 0.20703 0.10481 0.83559 0.0
C3015 C 0.19043 0.08917 0.8393 0.0
H3016 H 0.22663 0.13071 0.849 0.0
C3017 C 0.18194 0.08654 0.8607 0.0
H3018 H 0.21398 0.10704 0.81929 0.0
C3019 C 0.18895 0.10039 0.87777 0.0
C3020 C 0.20484 0.11678 0.87377 0.0
H3021 H 0.16907 0.07461 0.86397 0.0
H3022 H 0.18141 0.09876 0.89387 0.0
C3023 C 0.21432 0.11832 0.85267 0.0
C3024 C 0.61134 0.83719 0.05732 0.0
C3025 C 0.58979 0.83954 0.04914 0.0
H3026 H 0.64438 0.84979 0.05735 0.0
C3027 C 0.58567 0.85509 0.03255 0.0
H3028 H 0.61494 0.82533 0.07018 0.0
C3029 C 0.60249 0.86879 0.025 0.0
C3030 C 0.62374 0.86752 0.03418 0.0
H3031 H 0.56924 0.85711 0.02583 0.0
H3032 H 0.5985 0.88111 0.01271 0.0
C3033 C 0.62816 0.85122 0.05004 0.0
C3034 C 0.38849 0.87754 0.30132 0.0
C3035 C 0.37228 0.87331 0.28532 0.0
H3036 H 0.41417 0.86404 0.32155 0.0
C3037 C 0.37094 0.85214 0.276 0.0
H3038 H 0.38996 0.8937 0.30875 0.0
C3039 C 0.38449 0.83519 0.28354 0.0
C3040 C 0.39995 0.83912 0.30026 0.0
H3041 H 0.35869 0.8483 0.26359 0.0
H3042 H 0.38241 0.81883 0.27669 0.0
C3043 C 0.40237 0.8606 0.3086 0.0
C3044 C 0.36069 0.63813 0.55062 0.0
C3045 C 0.36496 0.62179 0.53476 0.0
H3046 H 0.37412 0.66401 0.57063 0.0
C3047 C 0.38614 0.62045 0.52543 0.0
H3048 H 0.34452 0.63961 0.55804 0.0
C3049 C 0.40306 0.63411 0.53285 0.0
C3050 C 0.39908 0.6497 0.54944 0.0
H3051 H 0.39002 0.60811 0.51313 0.0
H3052 H 0.41943 0.63203 0.52603 0.0
C3053 C 0.3776 0.65213 0.55777 0.0
C3054 C 0.58715 0.62961 0.807 0.0
C3055 C 0.58965 0.65112 0.79879 0.0
H3056 H 0.59961 0.59652 0.80718 0.0
C3057 C 0.60532 0.65514 0.78228 0.0
H3058 H 0.5752 0.6261 0.81979 0.0
C3059 C 0.61898 0.63824 0.77484 0.0
C3060 C 0.61757 0.61703 0.78406 0.0
H3061 H 0.60745 0.67153 0.77553 0.0
H3062 H 0.63139 0.64214 0.76262 0.0
C3063 C 0.60115 0.61271 0.79984 0.0
C3064 C 0.61217 0.15351 0.93161 0.0
C3065 C 0.5908 0.15091 0.94017 0.0
H3066 H 0.64533 0.14123 0.93095 0.0
C3067 C 0.58713 0.13531 0.95682 0.0
H3068 H 0.6154 0.16541 0.9187 0.0
C3069 C 0.60423 0.12179 0.96404 0.0
C3070 C 0.62529 0.12327 0.95446 0.0
H3071 H 0.57085 0.13311 0.96383 0.0
H3072 H 0.60058 0.10942 0.97639 0.0
C3073 C 0.62926 0.13964 0.93856 0.0
C3074 C 0.1002 0.8774 0.18897 0.0
C3075 C 0.11654 0.87321 0.20486 0.0
H3076 H 0.07444 0.86385 0.16889 0.0
C3077 C 0.118 0.85202 0.21413 0.0
H3078 H 0.09862 0.89358 0.18158 0.0
C3079 C 0.10447 0.83504 0.20665 0.0
C3080 C 0.08889 0.83894 0.19003 0.0
H3081 H 0.13036 0.84821 0.22645 0.0
H3082 H 0.10665 0.81867 0.21345 0.0
C3083 C 0.08633 0.86043 0.18176 0.0
C3084 C 0.38677 0.36711 0.46465 0.0
C3085 C 0.36567 0.36576 0.45515 0.0
H3086 H 0.42012 0.3557 0.46419 0.0
C3087 C 0.36159 0.34954 0.43912 0.0
H3088 H 0.3905 0.37936 0.47708 0.0
C3089 C 0.37862 0.3357 0.43196 0.0
C3090 C 0.40003 0.33816 0.44045 0.0
H3091 H 0.34548 0.34805 0.43156 0.0
H3092 H 0.3753 0.32391 0.41896 0.0
C3093 C 0.40381 0.3536 0.45723 0.0
C3094 C 0.89047 0.61175 0.68882 0.0
C3095 C 0.87441 0.61592 0.705 0.0
H3096 H 0.916 0.62532 0.66844 0.0
C3097 C 0.8733 0.63701 0.71455 0.0
H3098 H 0.89177 0.59565 0.68122 0.0
C3099 C 0.88685 0.65396 0.70702 0.0
C3100 C 0.9021 0.65011 0.69009 0.0
H3101 H 0.86119 0.64081 0.7271 0.0
H3102 H 0.88492 0.67027 0.71402 0.0
C3103 C 0.90436 0.62869 0.68155 0.0
C3104 C 0.55145 0.6285 0.35102 0.0
C3105 C 0.53549 0.62422 0.36726 0.0
H3106 H 0.57157 0.61507 0.3252 0.0
C3107 C 0.52611 0.60306 0.36849 0.0
H3108 H 0.55892 0.64465 0.34962 0.0
C3109 C 0.53356 0.58618 0.35483 0.0
C3110 C 0.55024 0.59015 0.33934 0.0
H3111 H 0.51373 0.59918 0.38076 0.0
H3112 H 0.52667 0.56982 0.35683 0.0
C3113 C 0.55863 0.61161 0.33701 0.0
C3114 C 0.62749 0.80738 0.58497 0.0
C3115 C 0.64895 0.79899 0.58743 0.0
H3116 H 0.59441 0.80779 0.59749 0.0
C3117 C 0.65286 0.7824 0.60302 0.0
H3118 H 0.62407 0.82024 0.57307 0.0
C3119 C 0.63591 0.77505 0.61668 0.0
C3120 C 0.61476 0.78446 0.61534 0.0
H3121 H 0.66921 0.77552 0.60512 0.0
H3122 H 0.63975 0.76276 0.62904 0.0
C3123 C 0.61055 0.80031 0.59897 0.0
C3124 C 0.45719 0.90443 0.8561 0.0
C3125 C 0.4407 0.90064 0.84035 0.0
H3126 H 0.47672 0.89107 0.88208 0.0
C3127 C 0.43238 0.8792 0.83761 0.0
H3128 H 0.46401 0.92077 0.85842 0.0
C3129 C 0.43942 0.86213 0.85145 0.0
C3130 C 0.45519 0.8662 0.86794 0.0
H3131 H 0.4196 0.87587 0.82559 0.0
H3132 H 0.43201 0.84599 0.84972 0.0
C3133 C 0.4645 0.88736 0.8696 0.0
C3134 C 0.36233 0.68167 0.08704 0.0
C3135 C 0.3409 0.69017 0.08936 0.0
H3136 H 0.39539 0.68128 0.09961 0.0
C3137 C 0.33703 0.70695 0.10477 0.0
H3138 H 0.36572 0.66867 0.07529 0.0
C3139 C 0.35397 0.71438 0.11838 0.0
C3140 C 0.37509 0.70488 0.11717 0.0
H3141 H 0.3207 0.71391 0.10676 0.0
H3142 H 0.35016 0.72683 0.13059 0.0
C3143 C 0.37927 0.68884 0.10099 0.0
C3144 C 0.55151 0.36287 0.63867 0.0
C3145 C 0.53555 0.36691 0.62237 0.0
H3146 H 0.57154 0.37662 0.66436 0.0
C3147 C 0.5261 0.38802 0.62088 0.0
H3148 H 0.55903 0.34676 0.64025 0.0
C3149 C 0.53347 0.40508 0.63437 0.0
C3150 C 0.55014 0.40133 0.64993 0.0
H3151 H 0.51372 0.39171 0.60856 0.0
H3152 H 0.52652 0.42139 0.63219 0.0
C3153 C 0.55862 0.37992 0.65249 0.0
C3154 C 0.86073 0.80775 0.90275 0.0
C3155 C 0.83928 0.79938 0.90019 0.0
H3156 H 0.89391 0.80798 0.89051 0.0
C3157 C 0.83545 0.78268 0.88468 0.0
H3158 H 0.8641 0.82069 0.91458 0.0
C3159 C 0.85249 0.77519 0.87122 0.0
C3160 C 0.87365 0.78456 0.87267 0.0
H3161 H 0.81911 0.77582 0.88251 0.0
H3162 H 0.84874 0.76281 0.85891 0.0
C3163 C 0.87776 0.80053 0.88894 0.0
C3164 C 0.43043 0.11118 0.15322 0.0
C3165 C 0.43902 0.08978 0.15104 0.0
H3166 H 0.43002 0.14419 0.14053 0.0
C3167 C 0.45592 0.08591 0.13576 0.0
H3168 H 0.41733 0.11457 0.16487 0.0
C3169 C 0.4634 0.10282 0.12215 0.0
C3170 C 0.45384 0.12391 0.12322 0.0
H3171 H 0.46296 0.06961 0.13388 0.0
H3172 H 0.47596 0.09901 0.11005 0.0
C3173 C 0.43764 0.1281 0.13926 0.0
C3174 C 0.12762 0.67995 0.40256 0.0
C3175 C 0.14901 0.68856 0.40035 0.0
H3176 H 0.09462 0.67942 0.38984 0.0
C3177 C 0.15288 0.70537 0.38497 0.0
H3178 H 0.12423 0.66692 0.41429 0.0
C3179 C 0.13597 0.71272 0.37129 0.0
C3180 C 0.11489 0.70313 0.3724 0.0
H3181 H 0.16918 0.71242 0.38307 0.0
H3182 H 0.13977 0.72521 0.35911 0.0
C3183 C 0.11071 0.68705 0.38854 0.0
C3184 C 0.86725 0.52571 0.1031 0.0
C3185 C 0.86596 0.53513 0.12424 0.0
H3186 H 0.85572 0.52626 0.06981 0.0
C3187 C 0.84976 0.55116 0.12842 0.0
H3188 H 0.87949 0.51328 0.0993 0.0
C3189 C 0.83585 0.55837 0.11147 0.0
C3190 C 0.83824 0.54994 0.09003 0.0
H3191 H 0.84832 0.55866 0.14455 0.0
H3192 H 0.82407 0.57135 0.11486 0.0
C3193 C 0.85368 0.53318 0.08615 0.0
C3194 C 0.35433 0.45581 0.40459 0.0
C3195 C 0.33901 0.439 0.40051 0.0
H3196 H 0.38013 0.47592 0.39175 0.0
C3197 C 0.33682 0.43068 0.379 0.0
H3198 H 0.35621 0.46265 0.42098 0.0
C3199 C 0.35081 0.43806 0.36219 0.0
C3200 C 0.3669 0.45415 0.36658 0.0
H3201 H 0.32513 0.41765 0.37544 0.0
H3202 H 0.34954 0.43064 0.34601 0.0
C3203 C 0.36798 0.46345 0.38778 0.0
C3204 C 0.78455 0.60488 0.65413 0.0
C3205 C 0.80132 0.58946 0.65026 0.0
H3206 H 0.76462 0.63065 0.64097 0.0
C3207 C 0.80979 0.5871 0.62883 0.0
H3208 H 0.77761 0.60691 0.67046 0.0
C3209 C 0.80258 0.601 0.61187 0.0
C3210 C 0.78651 0.61716 0.61604 0.0
H3211 H 0.82279 0.57533 0.62545 0.0
H3212 H 0.8101 0.59958 0.59575 0.0
C3213 C 0.77707 0.61844 0.63717 0.0
C3214 C 0.65468 0.05936 0.87765 0.0
C3215 C 0.65263 0.05066 0.89902 0.0
H3216 H 0.64192 0.05974 0.84467 0.0
C3217 C 0.6376 0.03352 0.90283 0.0
H3218 H 0.66614 0.07263 0.87431 0.0
C3219 C 0.62407 0.02593 0.8859 0.0
C3220 C 0.62496 0.03561 0.86486 0.0
H3221 H 0.63585 0.02639 0.91911 0.0
H3222 H 0.61214 0.01319 0.88967 0.0
C3223 C 0.64079 0.05202 0.86072 0.0
C3224 C 0.68137 0.40312 0.12841 0.0
C3225 C 0.68973 0.40079 0.14989 0.0
H3226 H 0.68115 0.39051 0.09538 0.0
C3227 C 0.70643 0.38532 0.15389 0.0
H3228 H 0.66843 0.41491 0.12493 0.0
C3229 C 0.71392 0.37167 0.13701 0.0
C3230 C 0.70457 0.37289 0.11584 0.0
H3231 H 0.71328 0.38332 0.17026 0.0
H3232 H 0.72631 0.35942 0.14091 0.0
C3233 C 0.6886 0.38912 0.11154 0.0
C3234 C 0.13803 0.43869 0.12769 0.0
C3235 C 0.12165 0.45453 0.12346 0.0
H3236 H 0.16395 0.41875 0.11422 0.0
C3237 C 0.12025 0.46385 0.10229 0.0
H3238 H 0.13956 0.43127 0.14386 0.0
C3239 C 0.13391 0.45647 0.08536 0.0
C3240 C 0.14955 0.43992 0.0893 0.0
H3241 H 0.10787 0.47612 0.09844 0.0
H3242 H 0.1318 0.46331 0.069 0.0
C3243 C 0.15202 0.43158 0.11077 0.0
C3244 C 0.77515 0.87009 0.85124 0.0
C3245 C 0.78435 0.87189 0.87243 0.0
H3246 H 0.77578 0.88111 0.81778 0.0
C3247 C 0.80005 0.88844 0.8765 0.0
H3248 H 0.76298 0.85756 0.84753 0.0
C3249 C 0.80714 0.90222 0.8594 0.0
C3250 C 0.79893 0.89936 0.83793 0.0
H3251 H 0.80738 0.89026 0.89267 0.0
H3252 H 0.81986 0.91429 0.86273 0.0
C3253 C 0.78251 0.88354 0.83414 0.0
C3254 C 0.21369 0.61754 0.35245 0.0
C3255 C 0.20423 0.61606 0.37356 0.0
H3256 H 0.21333 0.60619 0.3191 0.0
C3257 C 0.18834 0.5997 0.37762 0.0
H3258 H 0.22602 0.62991 0.34874 0.0
C3259 C 0.1813 0.58581 0.36058 0.0
C3260 C 0.18976 0.58839 0.33917 0.0
H3261 H 0.18081 0.59811 0.39372 0.0
H3262 H 0.16842 0.5739 0.36388 0.0
C3263 C 0.20639 0.604 0.33541 0.0
loop_
_geom_bond_atom_site_label_1
_geom_bond_atom_site_label_2
_geom_bond_distance
_geom_bond_site_symmetry_2
_ccdc_geom_bond_type
C0 O2 1.247 . S
C0 O4 1.258 . S
C1 O8 1.247 . S
C1 O9 1.258 . S
O2 C0 1.247 . S
O2 Zn3 2.028 . S
Zn3 O2 2.028 . S
Zn3 O7 2.035 . S
Zn3 O9 2.035 . S
Zn3 O10 2.028 . S
O4 C0 1.258 . S
O4 Zn5 2.035 . S
Zn5 O4 2.035 . S
Zn5 O6 2.028 . S
Zn5 O8 2.028 . S
Zn5 O11 2.035 . S
O6 Zn5 2.028 . S
O6 C12 1.247 . S
O7 Zn3 2.035 . S
O7 C12 1.258 . S
O8 C1 1.247 . S
O8 Zn5 2.028 . S
O9 C1 1.258 . S
O9 Zn3 2.035 . S
O10 Zn3 2.028 . S
O10 C13 1.247 . S
O11 Zn5 2.035 . S
O11 C13 1.258 . S
C12 O6 1.247 . S
C12 O7 1.258 . S
C13 O10 1.247 . S
C13 O11 1.258 . S
C14 O16 1.247 . S
C14 O18 1.258 . S
C15 O22 1.247 . S
C15 O23 1.258 . S
O16 C14 1.247 . S
O16 Zn17 2.028 . S
Zn17 O16 2.028 . S
Zn17 O21 2.035 . S
Zn17 O23 2.035 . S
Zn17 O24 2.028 . S
O18 C14 1.258 . S
O18 Zn19 2.035 . S
Zn19 O18 2.035 . S
Zn19 O20 2.028 . S
Zn19 O22 2.028 . S
Zn19 O25 2.035 . S
O20 Zn19 2.028 . S
O20 C26 1.247 . S
O21 Zn17 2.035 . S
O21 C26 1.258 . S
O22 C15 1.247 . S
O22 Zn19 2.028 . S
O23 C15 1.258 . S
O23 Zn17 2.035 . S
O24 Zn17 2.028 . S
O24 C27 1.247 . S
O25 Zn19 2.035 . S
O25 C27 1.258 . S
C26 O20 1.247 . S
C26 O21 1.258 . S
C27 O24 1.247 . S
C27 O25 1.258 . S
C28 O30 1.247 . S
C28 O32 1.258 . S
C29 O36 1.247 . S
C29 O37 1.258 . S
O30 C28 1.247 . S
O30 Zn31 2.028 . S
Zn31 O30 2.028 . S
Zn31 O35 2.035 . S
Zn31 O37 2.035 . S
Zn31 O38 2.028 . S
O32 C28 1.258 . S
O32 Zn33 2.035 . S
Zn33 O32 2.035 . S
Zn33 O34 2.028 . S
Zn33 O36 2.028 . S
Zn33 O39 2.035 . S
O34 Zn33 2.028 . S
O34 C40 1.247 . S
O35 Zn31 2.035 . S
O35 C40 1.258 . S
O36 C29 1.247 . S
O36 Zn33 2.028 . S
O37 C29 1.258 . S
O37 Zn31 2.035 . S
O38 Zn31 2.028 . S
O38 C41 1.247 . S
O39 Zn33 2.035 . S
O39 C41 1.258 . S
C40 O34 1.247 . S
C40 O35 1.258 . S
C41 O38 1.247 . S
C41 O39 1.258 . S
C42 O44 1.247 . S
C42 O46 1.258 . S
C43 O50 1.247 . S
C43 O51 1.258 . S
O44 C42 1.247 . S
O44 Zn45 2.028 . S
Zn45 O44 2.028 . S
Zn45 O49 2.035 . S
Zn45 O51 2.035 . S
Zn45 O52 2.028 . S
O46 C42 1.258 . S
O46 Zn47 2.035 . S
Zn47 O46 2.035 . S
Zn47 O48 2.028 . S
Zn47 O50 2.028 . S
Zn47 O53 2.035 . S
O48 Zn47 2.028 . S
O48 C54 1.247 . S
O49 Zn45 2.035 . S
O49 C54 1.258 . S
O50 C43 1.247 . S
O50 Zn47 2.028 . S
O51 C43 1.258 . S
O51 Zn45 2.035 . S
O52 Zn45 2.028 . S
O52 C55 1.247 . S
O53 Zn47 2.035 . S
O53 C55 1.258 . S
C54 O48 1.247 . S
C54 O49 1.258 . S
C55 O52 1.247 . S
C55 O53 1.258 . S
C56 O58 1.247 . S
C56 O60 1.258 . S
C57 O64 1.247 . S
C57 O65 1.258 . S
O58 C56 1.247 . S
O58 Zn59 2.028 . S
Zn59 O58 2.028 . S
Zn59 O63 2.035 . S
Zn59 O65 2.035 . S
Zn59 O66 2.028 . S
O60 C56 1.258 . S
O60 Zn61 2.035 . S
Zn61 O60 2.035 . S
Zn61 O62 2.028 . S
Zn61 O64 2.028 . S
Zn61 O67 2.035 . S
O62 Zn61 2.028 . S
O62 C68 1.247 . S
O63 Zn59 2.035 . S
O63 C68 1.258 . S
O64 C57 1.247 . S
O64 Zn61 2.028 . S
O65 C57 1.258 . S
O65 Zn59 2.035 . S
O66 Zn59 2.028 . S
O66 C69 1.247 . S
O67 Zn61 2.035 . S
O67 C69 1.258 . S
C68 O62 1.247 . S
C68 O63 1.258 . S
C69 O66 1.247 . S
C69 O67 1.258 . S
C70 O72 1.247 . S
C70 O74 1.258 . S
C71 O78 1.247 . S
C71 O79 1.258 . S
O72 C70 1.247 . S
O72 Zn73 2.028 . S
Zn73 O72 2.028 . S
Zn73 O77 2.035 . S
Zn73 O79 2.035 . S
Zn73 O80 2.028 . S
O74 C70 1.258 . S
O74 Zn75 2.035 . S
Zn75 O74 2.035 . S
Zn75 O76 2.028 . S
Zn75 O78 2.028 . S
Zn75 O81 2.035 . S
O76 Zn75 2.028 . S
O76 C82 1.247 . S
O77 Zn73 2.035 . S
O77 C82 1.258 . S
O78 C71 1.247 . S
O78 Zn75 2.028 . S
O79 C71 1.258 . S
O79 Zn73 2.035 . S
O80 Zn73 2.028 . S
O80 C83 1.247 . S
O81 Zn75 2.035 . S
O81 C83 1.258 . S
C82 O76 1.247 . S
C82 O77 1.258 . S
C83 O80 1.247 . S
C83 O81 1.258 . S
C84 O86 1.247 . S
C84 O88 1.258 . S
C85 O92 1.247 . S
C85 O93 1.258 . S
O86 C84 1.247 . S
O86 Zn87 2.028 . S
Zn87 O86 2.028 . S
Zn87 O91 2.035 . S
Zn87 O93 2.035 . S
Zn87 O94 2.028 . S
O88 C84 1.258 . S
O88 Zn89 2.035 . S
Zn89 O88 2.035 . S
Zn89 O90 2.028 . S
Zn89 O92 2.028 . S
Zn89 O95 2.035 . S
O90 Zn89 2.028 . S
O90 C96 1.247 . S
O91 Zn87 2.035 . S
O91 C96 1.258 . S
O92 C85 1.247 . S
O92 Zn89 2.028 . S
O93 C85 1.258 . S
O93 Zn87 2.035 . S
O94 Zn87 2.028 . S
O94 C97 1.247 . S
O95 Zn89 2.035 . S
O95 C97 1.258 . S
C96 O90 1.247 . S
C96 O91 1.258 . S
C97 O94 1.247 . S
C97 O95 1.258 . S
C98 O100 1.247 . S
C98 O102 1.258 . S
C99 O106 1.247 . S
C99 O107 1.258 . S
O100 C98 1.247 . S
O100 Zn101 2.028 . S
Zn101 O100 2.028 . S
Zn101 O105 2.035 . S
Zn101 O107 2.035 . S
Zn101 O108 2.028 . S
O102 C98 1.258 . S
O102 Zn103 2.035 . S
Zn103 O102 2.035 . S
Zn103 O104 2.028 . S
Zn103 O106 2.028 . S
Zn103 O109 2.035 . S
O104 Zn103 2.028 . S
O104 C110 1.247 . S
O105 Zn101 2.035 . S
O105 C110 1.258 . S
O106 C99 1.247 . S
O106 Zn103 2.028 . S
O107 C99 1.258 . S
O107 Zn101 2.035 . S
O108 Zn101 2.028 . S
O108 C111 1.247 . S
O109 Zn103 2.035 . S
O109 C111 1.258 . S
C110 O104 1.247 . S
C110 O105 1.258 . S
C111 O108 1.247 . S
C111 O109 1.258 . S
C112 O114 1.247 . S
C112 O116 1.258 . S
C113 O120 1.247 . S
C113 O121 1.258 . S
O114 C112 1.247 . S
O114 Zn115 2.028 . S
Zn115 O114 2.028 . S
Zn115 O119 2.035 . S
Zn115 O121 2.035 . S
Zn115 O122 2.028 . S
O116 C112 1.258 . S
O116 Zn117 2.035 . S
Zn117 O116 2.035 . S
Zn117 O118 2.028 . S
Zn117 O120 2.028 . S
Zn117 O123 2.035 . S
O118 Zn117 2.028 . S
O118 C124 1.247 . S
O119 Zn115 2.035 . S
O119 C124 1.258 . S
O120 C113 1.247 . S
O120 Zn117 2.028 . S
O121 C113 1.258 . S
O121 Zn115 2.035 . S
O122 Zn115 2.028 . S
O122 C125 1.247 . S
O123 Zn117 2.035 . S
O123 C125 1.258 . S
C124 O118 1.247 . S
C124 O119 1.258 . S
C125 O122 1.247 . S
C125 O123 1.258 . S
C126 O128 1.247 . S
C126 O130 1.258 . S
C127 O134 1.247 . S
C127 O135 1.258 . S
O128 C126 1.247 . S
O128 Zn129 2.028 . S
Zn129 O128 2.028 . S
Zn129 O133 2.035 . S
Zn129 O135 2.035 . S
Zn129 O136 2.028 . S
O130 C126 1.258 . S
O130 Zn131 2.035 . S
Zn131 O130 2.035 . S
Zn131 O132 2.028 . S
Zn131 O134 2.028 . S
Zn131 O137 2.035 . S
O132 Zn131 2.028 . S
O132 C138 1.247 . S
O133 Zn129 2.035 . S
O133 C138 1.258 . S
O134 C127 1.247 . S
O134 Zn131 2.028 . S
O135 C127 1.258 . S
O135 Zn129 2.035 . S
O136 Zn129 2.028 . S
O136 C139 1.247 . S
O137 Zn131 2.035 . S
O137 C139 1.258 . S
C138 O132 1.247 . S
C138 O133 1.258 . S
C139 O136 1.247 . S
C139 O137 1.258 . S
C140 O142 1.247 . S
C140 O144 1.258 . S
C141 O148 1.247 . S
C141 O149 1.258 . S
O142 C140 1.247 . S
O142 Zn143 2.028 . S
Zn143 O142 2.028 . S
Zn143 O147 2.035 . S
Zn143 O149 2.035 . S
Zn143 O150 2.028 . S
O144 C140 1.258 . S
O144 Zn145 2.035 . S
Zn145 O144 2.035 . S
Zn145 O146 2.028 . S
Zn145 O148 2.028 . S
Zn145 O151 2.035 . S
O146 Zn145 2.028 . S
O146 C152 1.247 . S
O147 Zn143 2.035 . S
O147 C152 1.258 . S
O148 C141 1.247 . S
O148 Zn145 2.028 . S
O149 C141 1.258 . S
O149 Zn143 2.035 . S
O150 Zn143 2.028 . S
O150 C153 1.247 . S
O151 Zn145 2.035 . S
O151 C153 1.258 . S
C152 O146 1.247 . S
C152 O147 1.258 . S
C153 O150 1.247 . S
C153 O151 1.258 . S
C154 O156 1.247 . S
C154 O158 1.258 . S
C155 O162 1.247 . S
C155 O163 1.258 . S
O156 C154 1.247 . S
O156 Zn157 2.028 . S
Zn157 O156 2.028 . S
Zn157 O161 2.035 . S
Zn157 O163 2.035 . S
Zn157 O164 2.028 . S
O158 C154 1.258 . S
O158 Zn159 2.035 . S
Zn159 O158 2.035 . S
Zn159 O160 2.028 . S
Zn159 O162 2.028 . S
Zn159 O165 2.035 . S
O160 Zn159 2.028 . S
O160 C166 1.247 . S
O161 Zn157 2.035 . S
O161 C166 1.258 . S
O162 C155 1.247 . S
O162 Zn159 2.028 . S
O163 C155 1.258 . S
O163 Zn157 2.035 . S
O164 Zn157 2.028 . S
O164 C167 1.247 . S
O165 Zn159 2.035 . S
O165 C167 1.258 . S
C166 O160 1.247 . S
C166 O161 1.258 . S
C167 O164 1.247 . S
C167 O165 1.258 . S
C168 O170 1.247 . S
C168 O172 1.258 . S
C169 O176 1.247 . S
C169 O177 1.258 . S
O170 C168 1.247 . S
O170 Zn171 2.028 . S
Zn171 O170 2.028 . S
Zn171 O175 2.035 . S
Zn171 O177 2.035 . S
Zn171 O178 2.028 . S
O172 C168 1.258 . S
O172 Zn173 2.035 . S
Zn173 O172 2.035 . S
Zn173 O174 2.028 . S
Zn173 O176 2.028 . S
Zn173 O179 2.035 . S
O174 Zn173 2.028 . S
O174 C180 1.247 . S
O175 Zn171 2.035 . S
O175 C180 1.258 . S
O176 C169 1.247 . S
O176 Zn173 2.028 . S
O177 C169 1.258 . S
O177 Zn171 2.035 . S
O178 Zn171 2.028 . S
O178 C181 1.247 . S
O179 Zn173 2.035 . S
O179 C181 1.258 . S
C180 O174 1.247 . S
C180 O175 1.258 . S
C181 O178 1.247 . S
C181 O179 1.258 . S
C182 O184 1.247 . S
C182 O186 1.258 . S
C183 O190 1.247 . S
C183 O191 1.258 . S
O184 C182 1.247 . S
O184 Zn185 2.028 . S
Zn185 O184 2.028 . S
Zn185 O189 2.035 . S
Zn185 O191 2.035 . S
Zn185 O192 2.028 . S
O186 C182 1.258 . S
O186 Zn187 2.035 . S
Zn187 O186 2.035 . S
Zn187 O188 2.028 . S
Zn187 O190 2.028 . S
Zn187 O193 2.035 . S
O188 Zn187 2.028 . S
O188 C194 1.247 . S
O189 Zn185 2.035 . S
O189 C194 1.258 . S
O190 C183 1.247 . S
O190 Zn187 2.028 . S
O191 C183 1.258 . S
O191 Zn185 2.035 . S
O192 Zn185 2.028 . S
O192 C195 1.247 . S
O193 Zn187 2.035 . S
O193 C195 1.258 . S
C194 O188 1.247 . S
C194 O189 1.258 . S
C195 O192 1.247 . S
C195 O193 1.258 . S
C196 O198 1.247 . S
C196 O200 1.258 . S
C197 O204 1.247 . S
C197 O205 1.258 . S
O198 C196 1.247 . S
O198 Zn199 2.028 . S
Zn199 O198 2.028 . S
Zn199 O203 2.035 . S
Zn199 O205 2.035 . S
Zn199 O206 2.028 . S
O200 C196 1.258 . S
O200 Zn201 2.035 . S
Zn201 O200 2.035 . S
Zn201 O202 2.028 . S
Zn201 O204 2.028 . S
Zn201 O207 2.035 . S
O202 Zn201 2.028 . S
O202 C208 1.247 . S
O203 Zn199 2.035 . S
O203 C208 1.258 . S
O204 C197 1.247 . S
O204 Zn201 2.028 . S
O205 C197 1.258 . S
O205 Zn199 2.035 . S
O206 Zn199 2.028 . S
O206 C209 1.247 . S
O207 Zn201 2.035 . S
O207 C209 1.258 . S
C208 O202 1.247 . S
C208 O203 1.258 . S
C209 O206 1.247 . S
C209 O207 1.258 . S
C210 O212 1.247 . S
C210 O214 1.258 . S
C211 O218 1.247 . S
C211 O219 1.258 . S
O212 C210 1.247 . S
O212 Zn213 2.028 . S
Zn213 O212 2.028 . S
Zn213 O217 2.035 . S
Zn213 O219 2.035 . S
Zn213 O220 2.028 . S
O214 C210 1.258 . S
O214 Zn215 2.035 . S
Zn215 O214 2.035 . S
Zn215 O216 2.028 . S
Zn215 O218 2.028 . S
Zn215 O221 2.035 . S
O216 Zn215 2.028 . S
O216 C222 1.247 . S
O217 Zn213 2.035 . S
O217 C222 1.258 . S
O218 C211 1.247 . S
O218 Zn215 2.028 . S
O219 C211 1.258 . S
O219 Zn213 2.035 . S
O220 Zn213 2.028 . S
O220 C223 1.247 . S
O221 Zn215 2.035 . S
O221 C223 1.258 . S
C222 O216 1.247 . S
C222 O217 1.258 . S
C223 O220 1.247 . S
C223 O221 1.258 . S
C224 O226 1.247 . S
C224 O228 1.258 . S
C225 O232 1.247 . S
C225 O233 1.258 . S
O226 C224 1.247 . S
O226 Zn227 2.028 . S
Zn227 O226 2.028 . S
Zn227 O231 2.035 . S
Zn227 O233 2.035 . S
Zn227 O234 2.028 . S
O228 C224 1.258 . S
O228 Zn229 2.035 . S
Zn229 O228 2.035 . S
Zn229 O230 2.028 . S
Zn229 O232 2.028 . S
Zn229 O235 2.035 . S
O230 Zn229 2.028 . S
O230 C236 1.247 . S
O231 Zn227 2.035 . S
O231 C236 1.258 . S
O232 C225 1.247 . S
O232 Zn229 2.028 . S
O233 C225 1.258 . S
O233 Zn227 2.035 . S
O234 Zn227 2.028 . S
O234 C237 1.247 . S
O235 Zn229 2.035 . S
O235 C237 1.258 . S
C236 O230 1.247 . S
C236 O231 1.258 . S
C237 O234 1.247 . S
C237 O235 1.258 . S
C238 O240 1.247 . S
C238 O242 1.258 . S
C239 O246 1.247 . S
C239 O247 1.258 . S
O240 C238 1.247 . S
O240 Zn241 2.028 . S
Zn241 O240 2.028 . S
Zn241 O245 2.035 . S
Zn241 O247 2.035 . S
Zn241 O248 2.028 . S
O242 C238 1.258 . S
O242 Zn243 2.035 . S
Zn243 O242 2.035 . S
Zn243 O244 2.028 . S
Zn243 O246 2.028 . S
Zn243 O249 2.035 . S
O244 Zn243 2.028 . S
O244 C250 1.247 . S
O245 Zn241 2.035 . S
O245 C250 1.258 . S
O246 C239 1.247 . S
O246 Zn243 2.028 . S
O247 C239 1.258 . S
O247 Zn241 2.035 . S
O248 Zn241 2.028 . S
O248 C251 1.247 . S
O249 Zn243 2.035 . S
O249 C251 1.258 . S
C250 O244 1.247 . S
C250 O245 1.258 . S
C251 O248 1.247 . S
C251 O249 1.258 . S
C252 O254 1.247 . S
C252 O256 1.258 . S
C253 O260 1.247 . S
C253 O261 1.258 . S
O254 C252 1.247 . S
O254 Zn255 2.028 . S
Zn255 O254 2.028 . S
Zn255 O259 2.035 . S
Zn255 O261 2.035 . S
Zn255 O262 2.028 . S
O256 C252 1.258 . S
O256 Zn257 2.035 . S
Zn257 O256 2.035 . S
Zn257 O258 2.028 . S
Zn257 O260 2.028 . S
Zn257 O263 2.035 . S
O258 Zn257 2.028 . S
O258 C264 1.247 . S
O259 Zn255 2.035 . S
O259 C264 1.258 . S
O260 C253 1.247 . S
O260 Zn257 2.028 . S
O261 C253 1.258 . S
O261 Zn255 2.035 . S
O262 Zn255 2.028 . S
O262 C265 1.247 . S
O263 Zn257 2.035 . S
O263 C265 1.258 . S
C264 O258 1.247 . S
C264 O259 1.258 . S
C265 O262 1.247 . S
C265 O263 1.258 . S
C266 O268 1.247 . S
C266 O270 1.258 . S
C267 O274 1.247 . S
C267 O275 1.258 . S
O268 C266 1.247 . S
O268 Zn269 2.028 . S
Zn269 O268 2.028 . S
Zn269 O273 2.035 . S
Zn269 O275 2.035 . S
Zn269 O276 2.028 . S
O270 C266 1.258 . S
O270 Zn271 2.035 . S
Zn271 O270 2.035 . S
Zn271 O272 2.028 . S
Zn271 O274 2.028 . S
Zn271 O277 2.035 . S
O272 Zn271 2.028 . S
O272 C278 1.247 . S
O273 Zn269 2.035 . S
O273 C278 1.258 . S
O274 C267 1.247 . S
O274 Zn271 2.028 . S
O275 C267 1.258 . S
O275 Zn269 2.035 . S
O276 Zn269 2.028 . S
O276 C279 1.247 . S
O277 Zn271 2.035 . S
O277 C279 1.258 . S
C278 O272 1.247 . S
C278 O273 1.258 . S
C279 O276 1.247 . S
C279 O277 1.258 . S
C280 O282 1.247 . S
C280 O284 1.258 . S
C281 O288 1.247 . S
C281 O289 1.258 . S
O282 C280 1.247 . S
O282 Zn283 2.028 . S
Zn283 O282 2.028 . S
Zn283 O287 2.035 . S
Zn283 O289 2.035 . S
Zn283 O290 2.028 . S
O284 C280 1.258 . S
O284 Zn285 2.035 . S
Zn285 O284 2.035 . S
Zn285 O286 2.028 . S
Zn285 O288 2.028 . S
Zn285 O291 2.035 . S
O286 Zn285 2.028 . S
O286 C292 1.247 . S
O287 Zn283 2.035 . S
O287 C292 1.258 . S
O288 C281 1.247 . S
O288 Zn285 2.028 . S
O289 C281 1.258 . S
O289 Zn283 2.035 . S
O290 Zn283 2.028 . S
O290 C293 1.247 . S
O291 Zn285 2.035 . S
O291 C293 1.258 . S
C292 O286 1.247 . S
C292 O287 1.258 . S
C293 O290 1.247 . S
C293 O291 1.258 . S
C294 O296 1.247 . S
C294 O298 1.258 . S
C295 O302 1.247 . S
C295 O303 1.258 . S
O296 C294 1.247 . S
O296 Zn297 2.028 . S
Zn297 O296 2.028 . S
Zn297 O301 2.035 . S
Zn297 O303 2.035 . S
Zn297 O304 2.028 . S
O298 C294 1.258 . S
O298 Zn299 2.035 . S
Zn299 O298 2.035 . S
Zn299 O300 2.028 . S
Zn299 O302 2.028 . S
Zn299 O305 2.035 . S
O300 Zn299 2.028 . S
O300 C306 1.247 . S
O301 Zn297 2.035 . S
O301 C306 1.258 . S
O302 C295 1.247 . S
O302 Zn299 2.028 . S
O303 C295 1.258 . S
O303 Zn297 2.035 . S
O304 Zn297 2.028 . S
O304 C307 1.247 . S
O305 Zn299 2.035 . S
O305 C307 1.258 . S
C306 O300 1.247 . S
C306 O301 1.258 . S
C307 O304 1.247 . S
C307 O305 1.258 . S
C308 O310 1.247 . S
C308 O312 1.258 . S
C309 O316 1.247 . S
C309 O317 1.258 . S
O310 C308 1.247 . S
O310 Zn311 2.028 . S
Zn311 O310 2.028 . S
Zn311 O315 2.035 . S
Zn311 O317 2.035 . S
Zn311 O318 2.028 . S
O312 C308 1.258 . S
O312 Zn313 2.035 . S
Zn313 O312 2.035 . S
Zn313 O314 2.028 . S
Zn313 O316 2.028 . S
Zn313 O319 2.035 . S
O314 Zn313 2.028 . S
O314 C320 1.247 . S
O315 Zn311 2.035 . S
O315 C320 1.258 . S
O316 C309 1.247 . S
O316 Zn313 2.028 . S
O317 C309 1.258 . S
O317 Zn311 2.035 . S
O318 Zn311 2.028 . S
O318 C321 1.247 . S
O319 Zn313 2.035 . S
O319 C321 1.258 . S
C320 O314 1.247 . S
C320 O315 1.258 . S
C321 O318 1.247 . S
C321 O319 1.258 . S
C322 O324 1.247 . S
C322 O326 1.258 . S
C323 O330 1.247 . S
C323 O331 1.258 . S
O324 C322 1.247 . S
O324 Zn325 2.028 . S
Zn325 O324 2.028 . S
Zn325 O329 2.035 . S
Zn325 O331 2.035 . S
Zn325 O332 2.028 . S
O326 C322 1.258 . S
O326 Zn327 2.035 . S
Zn327 O326 2.035 . S
Zn327 O328 2.028 . S
Zn327 O330 2.028 . S
Zn327 O333 2.035 . S
O328 Zn327 2.028 . S
O328 C334 1.247 . S
O329 Zn325 2.035 . S
O329 C334 1.258 . S
O330 C323 1.247 . S
O330 Zn327 2.028 . S
O331 C323 1.258 . S
O331 Zn325 2.035 . S
O332 Zn325 2.028 . S
O332 C335 1.247 . S
O333 Zn327 2.035 . S
O333 C335 1.258 . S
C334 O328 1.247 . S
C334 O329 1.258 . S
C335 O332 1.247 . S
C335 O333 1.258 . S
C336 O338 1.247 . S
C336 O340 1.258 . S
C337 O344 1.247 . S
C337 O345 1.258 . S
O338 C336 1.247 . S
O338 Zn339 2.028 . S
Zn339 O338 2.028 . S
Zn339 O343 2.035 . S
Zn339 O345 2.035 . S
Zn339 O346 2.028 . S
O340 C336 1.258 . S
O340 Zn341 2.035 . S
Zn341 O340 2.035 . S
Zn341 O342 2.028 . S
Zn341 O344 2.028 . S
Zn341 O347 2.035 . S
O342 Zn341 2.028 . S
O342 C348 1.247 . S
O343 Zn339 2.035 . S
O343 C348 1.258 . S
O344 C337 1.247 . S
O344 Zn341 2.028 . S
O345 C337 1.258 . S
O345 Zn339 2.035 . S
O346 Zn339 2.028 . S
O346 C349 1.247 . S
O347 Zn341 2.035 . S
O347 C349 1.258 . S
C348 O342 1.247 . S
C348 O343 1.258 . S
C349 O346 1.247 . S
C349 O347 1.258 . S
C350 O352 1.247 . S
C350 O354 1.258 . S
C351 O358 1.247 . S
C351 O359 1.258 . S
O352 C350 1.247 . S
O352 Zn353 2.028 . S
Zn353 O352 2.028 . S
Zn353 O357 2.035 . S
Zn353 O359 2.035 . S
Zn353 O360 2.028 . S
O354 C350 1.258 . S
O354 Zn355 2.035 . S
Zn355 O354 2.035 . S
Zn355 O356 2.028 . S
Zn355 O358 2.028 . S
Zn355 O361 2.035 . S
O356 Zn355 2.028 . S
O356 C362 1.247 . S
O357 Zn353 2.035 . S
O357 C362 1.258 . S
O358 C351 1.247 . S
O358 Zn355 2.028 . S
O359 C351 1.258 . S
O359 Zn353 2.035 . S
O360 Zn353 2.028 . S
O360 C363 1.247 . S
O361 Zn355 2.035 . S
O361 C363 1.258 . S
C362 O356 1.247 . S
C362 O357 1.258 . S
C363 O360 1.247 . S
C363 O361 1.258 . S
C364 O366 1.247 . S
C364 O368 1.258 . S
C365 O372 1.247 . S
C365 O373 1.258 . S
O366 C364 1.247 . S
O366 Zn367 2.028 . S
Zn367 O366 2.028 . S
Zn367 O371 2.035 . S
Zn367 O373 2.035 . S
Zn367 O374 2.028 . S
O368 C364 1.258 . S
O368 Zn369 2.035 . S
Zn369 O368 2.035 . S
Zn369 O370 2.028 . S
Zn369 O372 2.028 . S
Zn369 O375 2.035 . S
O370 Zn369 2.028 . S
O370 C376 1.247 . S
O371 Zn367 2.035 . S
O371 C376 1.258 . S
O372 C365 1.247 . S
O372 Zn369 2.028 . S
O373 C365 1.258 . S
O373 Zn367 2.035 . S
O374 Zn367 2.028 . S
O374 C377 1.247 . S
O375 Zn369 2.035 . S
O375 C377 1.258 . S
C376 O370 1.247 . S
C376 O371 1.258 . S
C377 O374 1.247 . S
C377 O375 1.258 . S
C378 O380 1.247 . S
C378 O382 1.258 . S
C379 O386 1.247 . S
C379 O387 1.258 . S
O380 C378 1.247 . S
O380 Zn381 2.028 . S
Zn381 O380 2.028 . S
Zn381 O385 2.035 . S
Zn381 O387 2.035 . S
Zn381 O388 2.028 . S
O382 C378 1.258 . S
O382 Zn383 2.035 . S
Zn383 O382 2.035 . S
Zn383 O384 2.028 . S
Zn383 O386 2.028 . S
Zn383 O389 2.035 . S
O384 Zn383 2.028 . S
O384 C390 1.247 . S
O385 Zn381 2.035 . S
O385 C390 1.258 . S
O386 C379 1.247 . S
O386 Zn383 2.028 . S
O387 C379 1.258 . S
O387 Zn381 2.035 . S
O388 Zn381 2.028 . S
O388 C391 1.247 . S
O389 Zn383 2.035 . S
O389 C391 1.258 . S
C390 O384 1.247 . S
C390 O385 1.258 . S
C391 O388 1.247 . S
C391 O389 1.258 . S
C392 O394 1.247 . S
C392 O396 1.258 . S
C393 O400 1.247 . S
C393 O401 1.258 . S
O394 C392 1.247 . S
O394 Zn395 2.028 . S
Zn395 O394 2.028 . S
Zn395 O399 2.035 . S
Zn395 O401 2.035 . S
Zn395 O402 2.028 . S
O396 C392 1.258 . S
O396 Zn397 2.035 . S
Zn397 O396 2.035 . S
Zn397 O398 2.028 . S
Zn397 O400 2.028 . S
Zn397 O403 2.035 . S
O398 Zn397 2.028 . S
O398 C404 1.247 . S
O399 Zn395 2.035 . S
O399 C404 1.258 . S
O400 C393 1.247 . S
O400 Zn397 2.028 . S
O401 C393 1.258 . S
O401 Zn395 2.035 . S
O402 Zn395 2.028 . S
O402 C405 1.247 . S
O403 Zn397 2.035 . S
O403 C405 1.258 . S
C404 O398 1.247 . S
C404 O399 1.258 . S
C405 O402 1.247 . S
C405 O403 1.258 . S
C406 O408 1.247 . S
C406 O410 1.258 . S
C407 O414 1.247 . S
C407 O415 1.258 . S
O408 C406 1.247 . S
O408 Zn409 2.028 . S
Zn409 O408 2.028 . S
Zn409 O413 2.035 . S
Zn409 O415 2.035 . S
Zn409 O416 2.028 . S
O410 C406 1.258 . S
O410 Zn411 2.035 . S
Zn411 O410 2.035 . S
Zn411 O412 2.028 . S
Zn411 O414 2.028 . S
Zn411 O417 2.035 . S
O412 Zn411 2.028 . S
O412 C418 1.247 . S
O413 Zn409 2.035 . S
O413 C418 1.258 . S
O414 C407 1.247 . S
O414 Zn411 2.028 . S
O415 C407 1.258 . S
O415 Zn409 2.035 . S
O416 Zn409 2.028 . S
O416 C419 1.247 . S
O417 Zn411 2.035 . S
O417 C419 1.258 . S
C418 O412 1.247 . S
C418 O413 1.258 . S
C419 O416 1.247 . S
C419 O417 1.258 . S
C420 O422 1.247 . S
C420 O424 1.258 . S
C421 O428 1.247 . S
C421 O429 1.258 . S
O422 C420 1.247 . S
O422 Zn423 2.028 . S
Zn423 O422 2.028 . S
Zn423 O427 2.035 . S
Zn423 O429 2.035 . S
Zn423 O430 2.028 . S
O424 C420 1.258 . S
O424 Zn425 2.035 . S
Zn425 O424 2.035 . S
Zn425 O426 2.028 . S
Zn425 O428 2.028 . S
Zn425 O431 2.035 . S
O426 Zn425 2.028 . S
O426 C432 1.247 . S
O427 Zn423 2.035 . S
O427 C432 1.258 . S
O428 C421 1.247 . S
O428 Zn425 2.028 . S
O429 C421 1.258 . S
O429 Zn423 2.035 . S
O430 Zn423 2.028 . S
O430 C433 1.247 . S
O431 Zn425 2.035 . S
O431 C433 1.258 . S
C432 O426 1.247 . S
C432 O427 1.258 . S
C433 O430 1.247 . S
C433 O431 1.258 . S
C434 O436 1.247 . S
C434 O438 1.258 . S
C435 O442 1.247 . S
C435 O443 1.258 . S
O436 C434 1.247 . S
O436 Zn437 2.028 . S
Zn437 O436 2.028 . S
Zn437 O441 2.035 . S
Zn437 O443 2.035 . S
Zn437 O444 2.028 . S
O438 C434 1.258 . S
O438 Zn439 2.035 . S
Zn439 O438 2.035 . S
Zn439 O440 2.028 . S
Zn439 O442 2.028 . S
Zn439 O445 2.035 . S
O440 Zn439 2.028 . S
O440 C446 1.247 . S
O441 Zn437 2.035 . S
O441 C446 1.258 . S
O442 C435 1.247 . S
O442 Zn439 2.028 . S
O443 C435 1.258 . S
O443 Zn437 2.035 . S
O444 Zn437 2.028 . S
O444 C447 1.247 . S
O445 Zn439 2.035 . S
O445 C447 1.258 . S
C446 O440 1.247 . S
C446 O441 1.258 . S
C447 O444 1.247 . S
C447 O445 1.258 . S
C448 O450 1.247 . S
C448 O452 1.258 . S
C449 O456 1.247 . S
C449 O457 1.258 . S
O450 C448 1.247 . S
O450 Zn451 2.028 . S
Zn451 O450 2.028 . S
Zn451 O455 2.035 . S
Zn451 O457 2.035 . S
Zn451 O458 2.028 . S
O452 C448 1.258 . S
O452 Zn453 2.035 . S
Zn453 O452 2.035 . S
Zn453 O454 2.028 . S
Zn453 O456 2.028 . S
Zn453 O459 2.035 . S
O454 Zn453 2.028 . S
O454 C460 1.247 . S
O455 Zn451 2.035 . S
O455 C460 1.258 . S
O456 C449 1.247 . S
O456 Zn453 2.028 . S
O457 C449 1.258 . S
O457 Zn451 2.035 . S
O458 Zn451 2.028 . S
O458 C461 1.247 . S
O459 Zn453 2.035 . S
O459 C461 1.258 . S
C460 O454 1.247 . S
C460 O455 1.258 . S
C461 O458 1.247 . S
C461 O459 1.258 . S
C462 O464 1.247 . S
C462 O466 1.258 . S
C463 O470 1.247 . S
C463 O471 1.258 . S
O464 C462 1.247 . S
O464 Zn465 2.028 . S
Zn465 O464 2.028 . S
Zn465 O469 2.035 . S
Zn465 O471 2.035 . S
Zn465 O472 2.028 . S
O466 C462 1.258 . S
O466 Zn467 2.035 . S
Zn467 O466 2.035 . S
Zn467 O468 2.028 . S
Zn467 O470 2.028 . S
Zn467 O473 2.035 . S
O468 Zn467 2.028 . S
O468 C474 1.247 . S
O469 Zn465 2.035 . S
O469 C474 1.258 . S
O470 C463 1.247 . S
O470 Zn467 2.028 . S
O471 C463 1.258 . S
O471 Zn465 2.035 . S
O472 Zn465 2.028 . S
O472 C475 1.247 . S
O473 Zn467 2.035 . S
O473 C475 1.258 . S
C474 O468 1.247 . S
C474 O469 1.258 . S
C475 O472 1.247 . S
C475 O473 1.258 . S
C476 O478 1.247 . S
C476 O480 1.258 . S
C477 O484 1.247 . S
C477 O485 1.258 . S
O478 C476 1.247 . S
O478 Zn479 2.028 . S
Zn479 O478 2.028 . S
Zn479 O483 2.035 . S
Zn479 O485 2.035 . S
Zn479 O486 2.028 . S
O480 C476 1.258 . S
O480 Zn481 2.035 . S
Zn481 O480 2.035 . S
Zn481 O482 2.028 . S
Zn481 O484 2.028 . S
Zn481 O487 2.035 . S
O482 Zn481 2.028 . S
O482 C488 1.247 . S
O483 Zn479 2.035 . S
O483 C488 1.258 . S
O484 C477 1.247 . S
O484 Zn481 2.028 . S
O485 C477 1.258 . S
O485 Zn479 2.035 . S
O486 Zn479 2.028 . S
O486 C489 1.247 . S
O487 Zn481 2.035 . S
O487 C489 1.258 . S
C488 O482 1.247 . S
C488 O483 1.258 . S
C489 O486 1.247 . S
C489 O487 1.258 . S
C490 O492 1.247 . S
C490 O494 1.258 . S
C491 O498 1.247 . S
C491 O499 1.258 . S
O492 C490 1.247 . S
O492 Zn493 2.028 . S
Zn493 O492 2.028 . S
Zn493 O497 2.035 . S
Zn493 O499 2.035 . S
Zn493 O500 2.028 . S
O494 C490 1.258 . S
O494 Zn495 2.035 . S
Zn495 O494 2.035 . S
Zn495 O496 2.028 . S
Zn495 O498 2.028 . S
Zn495 O501 2.035 . S
O496 Zn495 2.028 . S
O496 C502 1.247 . S
O497 Zn493 2.035 . S
O497 C502 1.258 . S
O498 C491 1.247 . S
O498 Zn495 2.028 . S
O499 C491 1.258 . S
O499 Zn493 2.035 . S
O500 Zn493 2.028 . S
O500 C503 1.247 . S
O501 Zn495 2.035 . S
O501 C503 1.258 . S
C502 O496 1.247 . S
C502 O497 1.258 . S
C503 O500 1.247 . S
C503 O501 1.258 . S
C504 O506 1.247 . S
C504 O508 1.258 . S
C505 O512 1.247 . S
C505 O513 1.258 . S
O506 C504 1.247 . S
O506 Zn507 2.028 . S
Zn507 O506 2.028 . S
Zn507 O511 2.035 . S
Zn507 O513 2.035 . S
Zn507 O514 2.028 . S
O508 C504 1.258 . S
O508 Zn509 2.035 . S
Zn509 O508 2.035 . S
Zn509 O510 2.028 . S
Zn509 O512 2.028 . S
Zn509 O515 2.035 . S
O510 Zn509 2.028 . S
O510 C516 1.247 . S
O511 Zn507 2.035 . S
O511 C516 1.258 . S
O512 C505 1.247 . S
O512 Zn509 2.028 . S
O513 C505 1.258 . S
O513 Zn507 2.035 . S
O514 Zn507 2.028 . S
O514 C517 1.247 . S
O515 Zn509 2.035 . S
O515 C517 1.258 . S
C516 O510 1.247 . S
C516 O511 1.258 . S
C517 O514 1.247 . S
C517 O515 1.258 . S
C518 O520 1.247 . S
C518 O522 1.258 . S
C519 O526 1.247 . S
C519 O527 1.258 . S
O520 C518 1.247 . S
O520 Zn521 2.028 . S
Zn521 O520 2.028 . S
Zn521 O525 2.035 . S
Zn521 O527 2.035 . S
Zn521 O528 2.028 . S
O522 C518 1.258 . S
O522 Zn523 2.035 . S
Zn523 O522 2.035 . S
Zn523 O524 2.028 . S
Zn523 O526 2.028 . S
Zn523 O529 2.035 . S
O524 Zn523 2.028 . S
O524 C530 1.247 . S
O525 Zn521 2.035 . S
O525 C530 1.258 . S
O526 C519 1.247 . S
O526 Zn523 2.028 . S
O527 C519 1.258 . S
O527 Zn521 2.035 . S
O528 Zn521 2.028 . S
O528 C531 1.247 . S
O529 Zn523 2.035 . S
O529 C531 1.258 . S
C530 O524 1.247 . S
C530 O525 1.258 . S
C531 O528 1.247 . S
C531 O529 1.258 . S
C532 O534 1.247 . S
C532 O536 1.258 . S
C533 O540 1.247 . S
C533 O541 1.258 . S
O534 C532 1.247 . S
O534 Zn535 2.028 . S
Zn535 O534 2.028 . S
Zn535 O539 2.035 . S
Zn535 O541 2.035 . S
Zn535 O542 2.028 . S
O536 C532 1.258 . S
O536 Zn537 2.035 . S
Zn537 O536 2.035 . S
Zn537 O538 2.028 . S
Zn537 O540 2.028 . S
Zn537 O543 2.035 . S
O538 Zn537 2.028 . S
O538 C544 1.247 . S
O539 Zn535 2.035 . S
O539 C544 1.258 . S
O540 C533 1.247 . S
O540 Zn537 2.028 . S
O541 C533 1.258 . S
O541 Zn535 2.035 . S
O542 Zn535 2.028 . S
O542 C545 1.247 . S
O543 Zn537 2.035 . S
O543 C545 1.258 . S
C544 O538 1.247 . S
C544 O539 1.258 . S
C545 O542 1.247 . S
C545 O543 1.258 . S
C546 O548 1.247 . S
C546 O550 1.258 . S
C547 O554 1.247 . S
C547 O555 1.258 . S
O548 C546 1.247 . S
O548 Zn549 2.028 . S
Zn549 O548 2.028 . S
Zn549 O553 2.035 . S
Zn549 O555 2.035 . S
Zn549 O556 2.028 . S
O550 C546 1.258 . S
O550 Zn551 2.035 . S
Zn551 O550 2.035 . S
Zn551 O552 2.028 . S
Zn551 O554 2.028 . S
Zn551 O557 2.035 . S
O552 Zn551 2.028 . S
O552 C558 1.247 . S
O553 Zn549 2.035 . S
O553 C558 1.258 . S
O554 C547 1.247 . S
O554 Zn551 2.028 . S
O555 C547 1.258 . S
O555 Zn549 2.035 . S
O556 Zn549 2.028 . S
O556 C559 1.247 . S
O557 Zn551 2.035 . S
O557 C559 1.258 . S
C558 O552 1.247 . S
C558 O553 1.258 . S
C559 O556 1.247 . S
C559 O557 1.258 . S
C560 O562 1.247 . S
C560 O564 1.258 . S
C561 O568 1.247 . S
C561 O569 1.258 . S
O562 C560 1.247 . S
O562 Zn563 2.028 . S
Zn563 O562 2.028 . S
Zn563 O567 2.035 . S
Zn563 O569 2.035 . S
Zn563 O570 2.028 . S
O564 C560 1.258 . S
O564 Zn565 2.035 . S
Zn565 O564 2.035 . S
Zn565 O566 2.028 . S
Zn565 O568 2.028 . S
Zn565 O571 2.035 . S
O566 Zn565 2.028 . S
O566 C572 1.247 . S
O567 Zn563 2.035 . S
O567 C572 1.258 . S
O568 C561 1.247 . S
O568 Zn565 2.028 . S
O569 C561 1.258 . S
O569 Zn563 2.035 . S
O570 Zn563 2.028 . S
O570 C573 1.247 . S
O571 Zn565 2.035 . S
O571 C573 1.258 . S
C572 O566 1.247 . S
C572 O567 1.258 . S
C573 O570 1.247 . S
C573 O571 1.258 . S
C574 O576 1.247 . S
C574 O578 1.258 . S
C575 O582 1.247 . S
C575 O583 1.258 . S
O576 C574 1.247 . S
O576 Zn577 2.028 . S
Zn577 O576 2.028 . S
Zn577 O581 2.035 . S
Zn577 O583 2.035 . S
Zn577 O584 2.028 . S
O578 C574 1.258 . S
O578 Zn579 2.035 . S
Zn579 O578 2.035 . S
Zn579 O580 2.028 . S
Zn579 O582 2.028 . S
Zn579 O585 2.035 . S
O580 Zn579 2.028 . S
O580 C586 1.247 . S
O581 Zn577 2.035 . S
O581 C586 1.258 . S
O582 C575 1.247 . S
O582 Zn579 2.028 . S
O583 C575 1.258 . S
O583 Zn577 2.035 . S
O584 Zn577 2.028 . S
O584 C587 1.247 . S
O585 Zn579 2.035 . S
O585 C587 1.258 . S
C586 O580 1.247 . S
C586 O581 1.258 . S
C587 O584 1.247 . S
C587 O585 1.258 . S
C588 O590 1.247 . S
C588 O592 1.258 . S
C589 O596 1.247 . S
C589 O597 1.258 . S
O590 C588 1.247 . S
O590 Zn591 2.028 . S
Zn591 O590 2.028 . S
Zn591 O595 2.035 . S
Zn591 O597 2.035 . S
Zn591 O598 2.028 . S
O592 C588 1.258 . S
O592 Zn593 2.035 . S
Zn593 O592 2.035 . S
Zn593 O594 2.028 . S
Zn593 O596 2.028 . S
Zn593 O599 2.035 . S
O594 Zn593 2.028 . S
O594 C600 1.247 . S
O595 Zn591 2.035 . S
O595 C600 1.258 . S
O596 C589 1.247 . S
O596 Zn593 2.028 . S
O597 C589 1.258 . S
O597 Zn591 2.035 . S
O598 Zn591 2.028 . S
O598 C601 1.247 . S
O599 Zn593 2.035 . S
O599 C601 1.258 . S
C600 O594 1.247 . S
C600 O595 1.258 . S
C601 O598 1.247 . S
C601 O599 1.258 . S
C602 O604 1.247 . S
C602 O606 1.258 . S
C603 O610 1.247 . S
C603 O611 1.258 . S
O604 C602 1.247 . S
O604 Zn605 2.028 . S
Zn605 O604 2.028 . S
Zn605 O609 2.035 . S
Zn605 O611 2.035 . S
Zn605 O612 2.028 . S
O606 C602 1.258 . S
O606 Zn607 2.035 . S
Zn607 O606 2.035 . S
Zn607 O608 2.028 . S
Zn607 O610 2.028 . S
Zn607 O613 2.035 . S
O608 Zn607 2.028 . S
O608 C614 1.247 . S
O609 Zn605 2.035 . S
O609 C614 1.258 . S
O610 C603 1.247 . S
O610 Zn607 2.028 . S
O611 C603 1.258 . S
O611 Zn605 2.035 . S
O612 Zn605 2.028 . S
O612 C615 1.247 . S
O613 Zn607 2.035 . S
O613 C615 1.258 . S
C614 O608 1.247 . S
C614 O609 1.258 . S
C615 O612 1.247 . S
C615 O613 1.258 . S
C616 O618 1.247 . S
C616 O620 1.258 . S
C617 O624 1.247 . S
C617 O625 1.258 . S
O618 C616 1.247 . S
O618 Zn619 2.028 . S
Zn619 O618 2.028 . S
Zn619 O623 2.035 . S
Zn619 O625 2.035 . S
Zn619 O626 2.028 . S
O620 C616 1.258 . S
O620 Zn621 2.035 . S
Zn621 O620 2.035 . S
Zn621 O622 2.028 . S
Zn621 O624 2.028 . S
Zn621 O627 2.035 . S
O622 Zn621 2.028 . S
O622 C628 1.247 . S
O623 Zn619 2.035 . S
O623 C628 1.258 . S
O624 C617 1.247 . S
O624 Zn621 2.028 . S
O625 C617 1.258 . S
O625 Zn619 2.035 . S
O626 Zn619 2.028 . S
O626 C629 1.247 . S
O627 Zn621 2.035 . S
O627 C629 1.258 . S
C628 O622 1.247 . S
C628 O623 1.258 . S
C629 O626 1.247 . S
C629 O627 1.258 . S
C630 O632 1.247 . S
C630 O634 1.258 . S
C631 O638 1.247 . S
C631 O639 1.258 . S
O632 C630 1.247 . S
O632 Zn633 2.028 . S
Zn633 O632 2.028 . S
Zn633 O637 2.035 . S
Zn633 O639 2.035 . S
Zn633 O640 2.028 . S
O634 C630 1.258 . S
O634 Zn635 2.035 . S
Zn635 O634 2.035 . S
Zn635 O636 2.028 . S
Zn635 O638 2.028 . S
Zn635 O641 2.035 . S
O636 Zn635 2.028 . S
O636 C642 1.247 . S
O637 Zn633 2.035 . S
O637 C642 1.258 . S
O638 C631 1.247 . S
O638 Zn635 2.028 . S
O639 C631 1.258 . S
O639 Zn633 2.035 . S
O640 Zn633 2.028 . S
O640 C643 1.247 . S
O641 Zn635 2.035 . S
O641 C643 1.258 . S
C642 O636 1.247 . S
C642 O637 1.258 . S
C643 O640 1.247 . S
C643 O641 1.258 . S
C644 O646 1.247 . S
C644 O648 1.258 . S
C645 O652 1.247 . S
C645 O653 1.258 . S
O646 C644 1.247 . S
O646 Zn647 2.028 . S
Zn647 O646 2.028 . S
Zn647 O651 2.035 . S
Zn647 O653 2.035 . S
Zn647 O654 2.028 . S
O648 C644 1.258 . S
O648 Zn649 2.035 . S
Zn649 O648 2.035 . S
Zn649 O650 2.028 . S
Zn649 O652 2.028 . S
Zn649 O655 2.035 . S
O650 Zn649 2.028 . S
O650 C656 1.247 . S
O651 Zn647 2.035 . S
O651 C656 1.258 . S
O652 C645 1.247 . S
O652 Zn649 2.028 . S
O653 C645 1.258 . S
O653 Zn647 2.035 . S
O654 Zn647 2.028 . S
O654 C657 1.247 . S
O655 Zn649 2.035 . S
O655 C657 1.258 . S
C656 O650 1.247 . S
C656 O651 1.258 . S
C657 O654 1.247 . S
C657 O655 1.258 . S
C658 O660 1.247 . S
C658 O662 1.258 . S
C659 O666 1.247 . S
C659 O667 1.258 . S
O660 C658 1.247 . S
O660 Zn661 2.028 . S
Zn661 O660 2.028 . S
Zn661 O665 2.035 . S
Zn661 O667 2.035 . S
Zn661 O668 2.028 . S
O662 C658 1.258 . S
O662 Zn663 2.035 . S
Zn663 O662 2.035 . S
Zn663 O664 2.028 . S
Zn663 O666 2.028 . S
Zn663 O669 2.035 . S
O664 Zn663 2.028 . S
O664 C670 1.247 . S
O665 Zn661 2.035 . S
O665 C670 1.258 . S
O666 C659 1.247 . S
O666 Zn663 2.028 . S
O667 C659 1.258 . S
O667 Zn661 2.035 . S
O668 Zn661 2.028 . S
O668 C671 1.247 . S
O669 Zn663 2.035 . S
O669 C671 1.258 . S
C670 O664 1.247 . S
C670 O665 1.258 . S
C671 O668 1.247 . S
C671 O669 1.258 . S
C672 O674 1.247 . S
C672 O676 1.258 . S
C673 O680 1.247 . S
C673 O681 1.258 . S
O674 C672 1.247 . S
O674 Zn675 2.028 . S
Zn675 O674 2.028 . S
Zn675 O679 2.035 . S
Zn675 O681 2.035 . S
Zn675 O682 2.028 . S
O676 C672 1.258 . S
O676 Zn677 2.035 . S
Zn677 O676 2.035 . S
Zn677 O678 2.028 . S
Zn677 O680 2.028 . S
Zn677 O683 2.035 . S
O678 Zn677 2.028 . S
O678 C684 1.247 . S
O679 Zn675 2.035 . S
O679 C684 1.258 . S
O680 C673 1.247 . S
O680 Zn677 2.028 . S
O681 C673 1.258 . S
O681 Zn675 2.035 . S
O682 Zn675 2.028 . S
O682 C685 1.247 . S
O683 Zn677 2.035 . S
O683 C685 1.258 . S
C684 O678 1.247 . S
C684 O679 1.258 . S
C685 O682 1.247 . S
C685 O683 1.258 . S
C686 O688 1.247 . S
C686 O690 1.258 . S
C687 O694 1.247 . S
C687 O695 1.258 . S
O688 C686 1.247 . S
O688 Zn689 2.028 . S
Zn689 O688 2.028 . S
Zn689 O693 2.035 . S
Zn689 O695 2.035 . S
Zn689 O696 2.028 . S
O690 C686 1.258 . S
O690 Zn691 2.035 . S
Zn691 O690 2.035 . S
Zn691 O692 2.028 . S
Zn691 O694 2.028 . S
Zn691 O697 2.035 . S
O692 Zn691 2.028 . S
O692 C698 1.247 . S
O693 Zn689 2.035 . S
O693 C698 1.258 . S
O694 C687 1.247 . S
O694 Zn691 2.028 . S
O695 C687 1.258 . S
O695 Zn689 2.035 . S
O696 Zn689 2.028 . S
O696 C699 1.247 . S
O697 Zn691 2.035 . S
O697 C699 1.258 . S
C698 O692 1.247 . S
C698 O693 1.258 . S
C699 O696 1.247 . S
C699 O697 1.258 . S
C700 O702 1.247 . S
C700 O704 1.258 . S
C701 O708 1.247 . S
C701 O709 1.258 . S
O702 C700 1.247 . S
O702 Zn703 2.028 . S
Zn703 O702 2.028 . S
Zn703 O707 2.035 . S
Zn703 O709 2.035 . S
Zn703 O710 2.028 . S
O704 C700 1.258 . S
O704 Zn705 2.035 . S
Zn705 O704 2.035 . S
Zn705 O706 2.028 . S
Zn705 O708 2.028 . S
Zn705 O711 2.035 . S
O706 Zn705 2.028 . S
O706 C712 1.247 . S
O707 Zn703 2.035 . S
O707 C712 1.258 . S
O708 C701 1.247 . S
O708 Zn705 2.028 . S
O709 C701 1.258 . S
O709 Zn703 2.035 . S
O710 Zn703 2.028 . S
O710 C713 1.247 . S
O711 Zn705 2.035 . S
O711 C713 1.258 . S
C712 O706 1.247 . S
C712 O707 1.258 . S
C713 O710 1.247 . S
C713 O711 1.258 . S
C714 O716 1.247 . S
C714 O718 1.258 . S
C715 O722 1.247 . S
C715 O723 1.258 . S
O716 C714 1.247 . S
O716 Zn717 2.028 . S
Zn717 O716 2.028 . S
Zn717 O721 2.035 . S
Zn717 O723 2.035 . S
Zn717 O724 2.028 . S
O718 C714 1.258 . S
O718 Zn719 2.035 . S
Zn719 O718 2.035 . S
Zn719 O720 2.028 . S
Zn719 O722 2.028 . S
Zn719 O725 2.035 . S
O720 Zn719 2.028 . S
O720 C726 1.247 . S
O721 Zn717 2.035 . S
O721 C726 1.258 . S
O722 C715 1.247 . S
O722 Zn719 2.028 . S
O723 C715 1.258 . S
O723 Zn717 2.035 . S
O724 Zn717 2.028 . S
O724 C727 1.247 . S
O725 Zn719 2.035 . S
O725 C727 1.258 . S
C726 O720 1.247 . S
C726 O721 1.258 . S
C727 O724 1.247 . S
C727 O725 1.258 . S
C728 O730 1.247 . S
C728 O732 1.258 . S
C729 O736 1.247 . S
C729 O737 1.258 . S
O730 C728 1.247 . S
O730 Zn731 2.028 . S
Zn731 O730 2.028 . S
Zn731 O735 2.035 . S
Zn731 O737 2.035 . S
Zn731 O738 2.028 . S
O732 C728 1.258 . S
O732 Zn733 2.035 . S
Zn733 O732 2.035 . S
Zn733 O734 2.028 . S
Zn733 O736 2.028 . S
Zn733 O739 2.035 . S
O734 Zn733 2.028 . S
O734 C740 1.247 . S
O735 Zn731 2.035 . S
O735 C740 1.258 . S
O736 C729 1.247 . S
O736 Zn733 2.028 . S
O737 C729 1.258 . S
O737 Zn731 2.035 . S
O738 Zn731 2.028 . S
O738 C741 1.247 . S
O739 Zn733 2.035 . S
O739 C741 1.258 . S
C740 O734 1.247 . S
C740 O735 1.258 . S
C741 O738 1.247 . S
C741 O739 1.258 . S
C742 O744 1.247 . S
C742 O746 1.258 . S
C743 O750 1.247 . S
C743 O751 1.258 . S
O744 C742 1.247 . S
O744 Zn745 2.028 . S
Zn745 O744 2.028 . S
Zn745 O749 2.035 . S
Zn745 O751 2.035 . S
Zn745 O752 2.028 . S
O746 C742 1.258 . S
O746 Zn747 2.035 . S
Zn747 O746 2.035 . S
Zn747 O748 2.028 . S
Zn747 O750 2.028 . S
Zn747 O753 2.035 . S
O748 Zn747 2.028 . S
O748 C754 1.247 . S
O749 Zn745 2.035 . S
O749 C754 1.258 . S
O750 C743 1.247 . S
O750 Zn747 2.028 . S
O751 C743 1.258 . S
O751 Zn745 2.035 . S
O752 Zn745 2.028 . S
O752 C755 1.247 . S
O753 Zn747 2.035 . S
O753 C755 1.258 . S
C754 O748 1.247 . S
C754 O749 1.258 . S
C755 O752 1.247 . S
C755 O753 1.258 . S
C756 O758 1.247 . S
C756 O760 1.258 . S
C757 O764 1.247 . S
C757 O765 1.258 . S
O758 C756 1.247 . S
O758 Zn759 2.028 . S
Zn759 O758 2.028 . S
Zn759 O763 2.035 . S
Zn759 O765 2.035 . S
Zn759 O766 2.028 . S
O760 C756 1.258 . S
O760 Zn761 2.035 . S
Zn761 O760 2.035 . S
Zn761 O762 2.028 . S
Zn761 O764 2.028 . S
Zn761 O767 2.035 . S
O762 Zn761 2.028 . S
O762 C768 1.247 . S
O763 Zn759 2.035 . S
O763 C768 1.258 . S
O764 C757 1.247 . S
O764 Zn761 2.028 . S
O765 C757 1.258 . S
O765 Zn759 2.035 . S
O766 Zn759 2.028 . S
O766 C769 1.247 . S
O767 Zn761 2.035 . S
O767 C769 1.258 . S
C768 O762 1.247 . S
C768 O763 1.258 . S
C769 O766 1.247 . S
C769 O767 1.258 . S
C770 O772 1.247 . S
C770 O774 1.258 . S
C771 O778 1.247 . S
C771 O779 1.258 . S
O772 C770 1.247 . S
O772 Zn773 2.028 . S
Zn773 O772 2.028 . S
Zn773 O777 2.035 . S
Zn773 O779 2.035 . S
Zn773 O780 2.028 . S
O774 C770 1.258 . S
O774 Zn775 2.035 . S
Zn775 O774 2.035 . S
Zn775 O776 2.028 . S
Zn775 O778 2.028 . S
Zn775 O781 2.035 . S
O776 Zn775 2.028 . S
O776 C782 1.247 . S
O777 Zn773 2.035 . S
O777 C782 1.258 . S
O778 C771 1.247 . S
O778 Zn775 2.028 . S
O779 C771 1.258 . S
O779 Zn773 2.035 . S
O780 Zn773 2.028 . S
O780 C783 1.247 . S
O781 Zn775 2.035 . S
O781 C783 1.258 . S
C782 O776 1.247 . S
C782 O777 1.258 . S
C783 O780 1.247 . S
C783 O781 1.258 . S
C784 O786 1.247 . S
C784 O788 1.258 . S
C785 O792 1.247 . S
C785 O793 1.258 . S
O786 C784 1.247 . S
O786 Zn787 2.028 . S
Zn787 O786 2.028 . S
Zn787 O791 2.035 . S
Zn787 O793 2.035 . S
Zn787 O794 2.028 . S
O788 C784 1.258 . S
O788 Zn789 2.035 . S
Zn789 O788 2.035 . S
Zn789 O790 2.028 . S
Zn789 O792 2.028 . S
Zn789 O795 2.035 . S
O790 Zn789 2.028 . S
O790 C796 1.247 . S
O791 Zn787 2.035 . S
O791 C796 1.258 . S
O792 C785 1.247 . S
O792 Zn789 2.028 . S
O793 C785 1.258 . S
O793 Zn787 2.035 . S
O794 Zn787 2.028 . S
O794 C797 1.247 . S
O795 Zn789 2.035 . S
O795 C797 1.258 . S
C796 O790 1.247 . S
C796 O791 1.258 . S
C797 O794 1.247 . S
C797 O795 1.258 . S
C798 O800 1.247 . S
C798 O802 1.258 . S
C799 O806 1.247 . S
C799 O807 1.258 . S
O800 C798 1.247 . S
O800 Zn801 2.028 . S
Zn801 O800 2.028 . S
Zn801 O805 2.035 . S
Zn801 O807 2.035 . S
Zn801 O808 2.028 . S
O802 C798 1.258 . S
O802 Zn803 2.035 . S
Zn803 O802 2.035 . S
Zn803 O804 2.028 . S
Zn803 O806 2.028 . S
Zn803 O809 2.035 . S
O804 Zn803 2.028 . S
O804 C810 1.247 . S
O805 Zn801 2.035 . S
O805 C810 1.258 . S
O806 C799 1.247 . S
O806 Zn803 2.028 . S
O807 C799 1.258 . S
O807 Zn801 2.035 . S
O808 Zn801 2.028 . S
O808 C811 1.247 . S
O809 Zn803 2.035 . S
O809 C811 1.258 . S
C810 O804 1.247 . S
C810 O805 1.258 . S
C811 O808 1.247 . S
C811 O809 1.258 . S
C812 O814 1.247 . S
C812 O816 1.258 . S
C813 O820 1.247 . S
C813 O821 1.258 . S
O814 C812 1.247 . S
O814 Zn815 2.028 . S
Zn815 O814 2.028 . S
Zn815 O819 2.035 . S
Zn815 O821 2.035 . S
Zn815 O822 2.028 . S
O816 C812 1.258 . S
O816 Zn817 2.035 . S
Zn817 O816 2.035 . S
Zn817 O818 2.028 . S
Zn817 O820 2.028 . S
Zn817 O823 2.035 . S
O818 Zn817 2.028 . S
O818 C824 1.247 . S
O819 Zn815 2.035 . S
O819 C824 1.258 . S
O820 C813 1.247 . S
O820 Zn817 2.028 . S
O821 C813 1.258 . S
O821 Zn815 2.035 . S
O822 Zn815 2.028 . S
O822 C825 1.247 . S
O823 Zn817 2.035 . S
O823 C825 1.258 . S
C824 O818 1.247 . S
C824 O819 1.258 . S
C825 O822 1.247 . S
C825 O823 1.258 . S
C826 O828 1.247 . S
C826 O830 1.258 . S
C827 O834 1.247 . S
C827 O835 1.258 . S
O828 C826 1.247 . S
O828 Zn829 2.028 . S
Zn829 O828 2.028 . S
Zn829 O833 2.035 . S
Zn829 O835 2.035 . S
Zn829 O836 2.028 . S
O830 C826 1.258 . S
O830 Zn831 2.035 . S
Zn831 O830 2.035 . S
Zn831 O832 2.028 . S
Zn831 O834 2.028 . S
Zn831 O837 2.035 . S
O832 Zn831 2.028 . S
O832 C838 1.247 . S
O833 Zn829 2.035 . S
O833 C838 1.258 . S
O834 C827 1.247 . S
O834 Zn831 2.028 . S
O835 C827 1.258 . S
O835 Zn829 2.035 . S
O836 Zn829 2.028 . S
O836 C839 1.247 . S
O837 Zn831 2.035 . S
O837 C839 1.258 . S
C838 O832 1.247 . S
C838 O833 1.258 . S
C839 O836 1.247 . S
C839 O837 1.258 . S
C840 O842 1.247 . S
C840 O844 1.258 . S
C841 O848 1.247 . S
C841 O849 1.258 . S
O842 C840 1.247 . S
O842 Zn843 2.028 . S
Zn843 O842 2.028 . S
Zn843 O847 2.035 . S
Zn843 O849 2.035 . S
Zn843 O850 2.028 . S
O844 C840 1.258 . S
O844 Zn845 2.035 . S
Zn845 O844 2.035 . S
Zn845 O846 2.028 . S
Zn845 O848 2.028 . S
Zn845 O851 2.035 . S
O846 Zn845 2.028 . S
O846 C852 1.247 . S
O847 Zn843 2.035 . S
O847 C852 1.258 . S
O848 C841 1.247 . S
O848 Zn845 2.028 . S
O849 C841 1.258 . S
O849 Zn843 2.035 . S
O850 Zn843 2.028 . S
O850 C853 1.247 . S
O851 Zn845 2.035 . S
O851 C853 1.258 . S
C852 O846 1.247 . S
C852 O847 1.258 . S
C853 O850 1.247 . S
C853 O851 1.258 . S
C854 O856 1.247 . S
C854 O858 1.258 . S
C855 O862 1.247 . S
C855 O863 1.258 . S
O856 C854 1.247 . S
O856 Zn857 2.028 . S
Zn857 O856 2.028 . S
Zn857 O861 2.035 . S
Zn857 O863 2.035 . S
Zn857 O864 2.028 . S
O858 C854 1.258 . S
O858 Zn859 2.035 . S
Zn859 O858 2.035 . S
Zn859 O860 2.028 . S
Zn859 O862 2.028 . S
Zn859 O865 2.035 . S
O860 Zn859 2.028 . S
O860 C866 1.247 . S
O861 Zn857 2.035 . S
O861 C866 1.258 . S
O862 C855 1.247 . S
O862 Zn859 2.028 . S
O863 C855 1.258 . S
O863 Zn857 2.035 . S
O864 Zn857 2.028 . S
O864 C867 1.247 . S
O865 Zn859 2.035 . S
O865 C867 1.258 . S
C866 O860 1.247 . S
C866 O861 1.258 . S
C867 O864 1.247 . S
C867 O865 1.258 . S
C868 O870 1.247 . S
C868 O872 1.258 . S
C869 O876 1.247 . S
C869 O877 1.258 . S
O870 C868 1.247 . S
O870 Zn871 2.028 . S
Zn871 O870 2.028 . S
Zn871 O875 2.035 . S
Zn871 O877 2.035 . S
Zn871 O878 2.028 . S
O872 C868 1.258 . S
O872 Zn873 2.035 . S
Zn873 O872 2.035 . S
Zn873 O874 2.028 . S
Zn873 O876 2.028 . S
Zn873 O879 2.035 . S
O874 Zn873 2.028 . S
O874 C880 1.247 . S
O875 Zn871 2.035 . S
O875 C880 1.258 . S
O876 C869 1.247 . S
O876 Zn873 2.028 . S
O877 C869 1.258 . S
O877 Zn871 2.035 . S
O878 Zn871 2.028 . S
O878 C881 1.247 . S
O879 Zn873 2.035 . S
O879 C881 1.258 . S
C880 O874 1.247 . S
C880 O875 1.258 . S
C881 O878 1.247 . S
C881 O879 1.258 . S
C882 O884 1.247 . S
C882 O886 1.258 . S
C883 O890 1.247 . S
C883 O891 1.258 . S
O884 C882 1.247 . S
O884 Zn885 2.028 . S
Zn885 O884 2.028 . S
Zn885 O889 2.035 . S
Zn885 O891 2.035 . S
Zn885 O892 2.028 . S
O886 C882 1.258 . S
O886 Zn887 2.035 . S
Zn887 O886 2.035 . S
Zn887 O888 2.028 . S
Zn887 O890 2.028 . S
Zn887 O893 2.035 . S
O888 Zn887 2.028 . S
O888 C894 1.247 . S
O889 Zn885 2.035 . S
O889 C894 1.258 . S
O890 C883 1.247 . S
O890 Zn887 2.028 . S
O891 C883 1.258 . S
O891 Zn885 2.035 . S
O892 Zn885 2.028 . S
O892 C895 1.247 . S
O893 Zn887 2.035 . S
O893 C895 1.258 . S
C894 O888 1.247 . S
C894 O889 1.258 . S
C895 O892 1.247 . S
C895 O893 1.258 . S
C896 O898 1.247 . S
C896 O900 1.258 . S
C897 O904 1.247 . S
C897 O905 1.258 . S
O898 C896 1.247 . S
O898 Zn899 2.028 . S
Zn899 O898 2.028 . S
Zn899 O903 2.035 . S
Zn899 O905 2.035 . S
Zn899 O906 2.028 . S
O900 C896 1.258 . S
O900 Zn901 2.035 . S
Zn901 O900 2.035 . S
Zn901 O902 2.028 . S
Zn901 O904 2.028 . S
Zn901 O907 2.035 . S
O902 Zn901 2.028 . S
O902 C908 1.247 . S
O903 Zn899 2.035 . S
O903 C908 1.258 . S
O904 C897 1.247 . S
O904 Zn901 2.028 . S
O905 C897 1.258 . S
O905 Zn899 2.035 . S
O906 Zn899 2.028 . S
O906 C909 1.247 . S
O907 Zn901 2.035 . S
O907 C909 1.258 . S
C908 O902 1.247 . S
C908 O903 1.258 . S
C909 O906 1.247 . S
C909 O907 1.258 . S
C910 O912 1.247 . S
C910 O914 1.258 . S
C911 O918 1.247 . S
C911 O919 1.258 . S
O912 C910 1.247 . S
O912 Zn913 2.028 . S
Zn913 O912 2.028 . S
Zn913 O917 2.035 . S
Zn913 O919 2.035 . S
Zn913 O920 2.028 . S
O914 C910 1.258 . S
O914 Zn915 2.035 . S
Zn915 O914 2.035 . S
Zn915 O916 2.028 . S
Zn915 O918 2.028 . S
Zn915 O921 2.035 . S
O916 Zn915 2.028 . S
O916 C922 1.247 . S
O917 Zn913 2.035 . S
O917 C922 1.258 . S
O918 C911 1.247 . S
O918 Zn915 2.028 . S
O919 C911 1.258 . S
O919 Zn913 2.035 . S
O920 Zn913 2.028 . S
O920 C923 1.247 . S
O921 Zn915 2.035 . S
O921 C923 1.258 . S
C922 O916 1.247 . S
C922 O917 1.258 . S
C923 O920 1.247 . S
C923 O921 1.258 . S
C924 O926 1.247 . S
C924 O928 1.258 . S
C925 O932 1.247 . S
C925 O933 1.258 . S
O926 C924 1.247 . S
O926 Zn927 2.028 . S
Zn927 O926 2.028 . S
Zn927 O931 2.035 . S
Zn927 O933 2.035 . S
Zn927 O934 2.028 . S
O928 C924 1.258 . S
O928 Zn929 2.035 . S
Zn929 O928 2.035 . S
Zn929 O930 2.028 . S
Zn929 O932 2.028 . S
Zn929 O935 2.035 . S
O930 Zn929 2.028 . S
O930 C936 1.247 . S
O931 Zn927 2.035 . S
O931 C936 1.258 . S
O932 C925 1.247 . S
O932 Zn929 2.028 . S
O933 C925 1.258 . S
O933 Zn927 2.035 . S
O934 Zn927 2.028 . S
O934 C937 1.247 . S
O935 Zn929 2.035 . S
O935 C937 1.258 . S
C936 O930 1.247 . S
C936 O931 1.258 . S
C937 O934 1.247 . S
C937 O935 1.258 . S
C938 O940 1.247 . S
C938 O942 1.258 . S
C939 O946 1.247 . S
C939 O947 1.258 . S
O940 C938 1.247 . S
O940 Zn941 2.028 . S
Zn941 O940 2.028 . S
Zn941 O945 2.035 . S
Zn941 O947 2.035 . S
Zn941 O948 2.028 . S
O942 C938 1.258 . S
O942 Zn943 2.035 . S
Zn943 O942 2.035 . S
Zn943 O944 2.028 . S
Zn943 O946 2.028 . S
Zn943 O949 2.035 . S
O944 Zn943 2.028 . S
O944 C950 1.247 . S
O945 Zn941 2.035 . S
O945 C950 1.258 . S
O946 C939 1.247 . S
O946 Zn943 2.028 . S
O947 C939 1.258 . S
O947 Zn941 2.035 . S
O948 Zn941 2.028 . S
O948 C951 1.247 . S
O949 Zn943 2.035 . S
O949 C951 1.258 . S
C950 O944 1.247 . S
C950 O945 1.258 . S
C951 O948 1.247 . S
C951 O949 1.258 . S
C952 O954 1.247 . S
C952 O956 1.258 . S
C953 O960 1.247 . S
C953 O961 1.258 . S
O954 C952 1.247 . S
O954 Zn955 2.028 . S
Zn955 O954 2.028 . S
Zn955 O959 2.035 . S
Zn955 O961 2.035 . S
Zn955 O962 2.028 . S
O956 C952 1.258 . S
O956 Zn957 2.035 . S
Zn957 O956 2.035 . S
Zn957 O958 2.028 . S
Zn957 O960 2.028 . S
Zn957 O963 2.035 . S
O958 Zn957 2.028 . S
O958 C964 1.247 . S
O959 Zn955 2.035 . S
O959 C964 1.258 . S
O960 C953 1.247 . S
O960 Zn957 2.028 . S
O961 C953 1.258 . S
O961 Zn955 2.035 . S
O962 Zn955 2.028 . S
O962 C965 1.247 . S
O963 Zn957 2.035 . S
O963 C965 1.258 . S
C964 O958 1.247 . S
C964 O959 1.258 . S
C965 O962 1.247 . S
C965 O963 1.258 . S
C966 O968 1.247 . S
C966 O970 1.258 . S
C967 O974 1.247 . S
C967 O975 1.258 . S
O968 C966 1.247 . S
O968 Zn969 2.028 . S
Zn969 O968 2.028 . S
Zn969 O973 2.035 . S
Zn969 O975 2.035 . S
Zn969 O976 2.028 . S
O970 C966 1.258 . S
O970 Zn971 2.035 . S
Zn971 O970 2.035 . S
Zn971 O972 2.028 . S
Zn971 O974 2.028 . S
Zn971 O977 2.035 . S
O972 Zn971 2.028 . S
O972 C978 1.247 . S
O973 Zn969 2.035 . S
O973 C978 1.258 . S
O974 C967 1.247 . S
O974 Zn971 2.028 . S
O975 C967 1.258 . S
O975 Zn969 2.035 . S
O976 Zn969 2.028 . S
O976 C979 1.247 . S
O977 Zn971 2.035 . S
O977 C979 1.258 . S
C978 O972 1.247 . S
C978 O973 1.258 . S
C979 O976 1.247 . S
C979 O977 1.258 . S
C980 O982 1.247 . S
C980 O984 1.258 . S
C981 O988 1.247 . S
C981 O989 1.258 . S
O982 C980 1.247 . S
O982 Zn983 2.028 . S
Zn983 O982 2.028 . S
Zn983 O987 2.035 . S
Zn983 O989 2.035 . S
Zn983 O990 2.028 . S
O984 C980 1.258 . S
O984 Zn985 2.035 . S
Zn985 O984 2.035 . S
Zn985 O986 2.028 . S
Zn985 O988 2.028 . S
Zn985 O991 2.035 . S
O986 Zn985 2.028 . S
O986 C992 1.247 . S
O987 Zn983 2.035 . S
O987 C992 1.258 . S
O988 C981 1.247 . S
O988 Zn985 2.028 . S
O989 C981 1.258 . S
O989 Zn983 2.035 . S
O990 Zn983 2.028 . S
O990 C993 1.247 . S
O991 Zn985 2.035 . S
O991 C993 1.258 . S
C992 O986 1.247 . S
C992 O987 1.258 . S
C993 O990 1.247 . S
C993 O991 1.258 . S
C994 O996 1.247 . S
C994 O998 1.258 . S
C995 O1002 1.247 . S
C995 O1003 1.258 . S
O996 C994 1.247 . S
O996 Zn997 2.028 . S
Zn997 O996 2.028 . S
Zn997 O1001 2.035 . S
Zn997 O1003 2.035 . S
Zn997 O1004 2.028 . S
O998 C994 1.258 . S
O998 Zn999 2.035 . S
Zn999 O998 2.035 . S
Zn999 O1000 2.028 . S
Zn999 O1002 2.028 . S
Zn999 O1005 2.035 . S
O1000 Zn999 2.028 . S
O1000 C1006 1.247 . S
O1001 Zn997 2.035 . S
O1001 C1006 1.258 . S
O1002 C995 1.247 . S
O1002 Zn999 2.028 . S
O1003 C995 1.258 . S
O1003 Zn997 2.035 . S
O1004 Zn997 2.028 . S
O1004 C1007 1.247 . S
O1005 Zn999 2.035 . S
O1005 C1007 1.258 . S
C1006 O1000 1.247 . S
C1006 O1001 1.258 . S
C1007 O1004 1.247 . S
C1007 O1005 1.258 . S
C1008 O1010 1.247 . S
C1008 O1012 1.258 . S
C1009 O1016 1.247 . S
C1009 O1017 1.258 . S
O1010 C1008 1.247 . S
O1010 Zn1011 2.028 . S
Zn1011 O1010 2.028 . S
Zn1011 O1015 2.035 . S
Zn1011 O1017 2.035 . S
Zn1011 O1018 2.028 . S
O1012 C1008 1.258 . S
O1012 Zn1013 2.035 . S
Zn1013 O1012 2.035 . S
Zn1013 O1014 2.028 . S
Zn1013 O1016 2.028 . S
Zn1013 O1019 2.035 . S
O1014 Zn1013 2.028 . S
O1014 C1020 1.247 . S
O1015 Zn1011 2.035 . S
O1015 C1020 1.258 . S
O1016 C1009 1.247 . S
O1016 Zn1013 2.028 . S
O1017 C1009 1.258 . S
O1017 Zn1011 2.035 . S
O1018 Zn1011 2.028 . S
O1018 C1021 1.247 . S
O1019 Zn1013 2.035 . S
O1019 C1021 1.258 . S
C1020 O1014 1.247 . S
C1020 O1015 1.258 . S
C1021 O1018 1.247 . S
C1021 O1019 1.258 . S
C1022 O1024 1.247 . S
C1022 O1026 1.258 . S
C1023 O1030 1.247 . S
C1023 O1031 1.258 . S
O1024 C1022 1.247 . S
O1024 Zn1025 2.028 . S
Zn1025 O1024 2.028 . S
Zn1025 O1029 2.035 . S
Zn1025 O1031 2.035 . S
Zn1025 O1032 2.028 . S
O1026 C1022 1.258 . S
O1026 Zn1027 2.035 . S
Zn1027 O1026 2.035 . S
Zn1027 O1028 2.028 . S
Zn1027 O1030 2.028 . S
Zn1027 O1033 2.035 . S
O1028 Zn1027 2.028 . S
O1028 C1034 1.247 . S
O1029 Zn1025 2.035 . S
O1029 C1034 1.258 . S
O1030 C1023 1.247 . S
O1030 Zn1027 2.028 . S
O1031 C1023 1.258 . S
O1031 Zn1025 2.035 . S
O1032 Zn1025 2.028 . S
O1032 C1035 1.247 . S
O1033 Zn1027 2.035 . S
O1033 C1035 1.258 . S
C1034 O1028 1.247 . S
C1034 O1029 1.258 . S
C1035 O1032 1.247 . S
C1035 O1033 1.258 . S
C1036 O1038 1.247 . S
C1036 O1040 1.258 . S
C1037 O1044 1.247 . S
C1037 O1045 1.258 . S
O1038 C1036 1.247 . S
O1038 Zn1039 2.028 . S
Zn1039 O1038 2.028 . S
Zn1039 O1043 2.035 . S
Zn1039 O1045 2.035 . S
Zn1039 O1046 2.028 . S
O1040 C1036 1.258 . S
O1040 Zn1041 2.035 . S
Zn1041 O1040 2.035 . S
Zn1041 O1042 2.028 . S
Zn1041 O1044 2.028 . S
Zn1041 O1047 2.035 . S
O1042 Zn1041 2.028 . S
O1042 C1048 1.247 . S
O1043 Zn1039 2.035 . S
O1043 C1048 1.258 . S
O1044 C1037 1.247 . S
O1044 Zn1041 2.028 . S
O1045 C1037 1.258 . S
O1045 Zn1039 2.035 . S
O1046 Zn1039 2.028 . S
O1046 C1049 1.247 . S
O1047 Zn1041 2.035 . S
O1047 C1049 1.258 . S
C1048 O1042 1.247 . S
C1048 O1043 1.258 . S
C1049 O1046 1.247 . S
C1049 O1047 1.258 . S
C1050 O1052 1.247 . S
C1050 O1054 1.258 . S
C1051 O1058 1.247 . S
C1051 O1059 1.258 . S
O1052 C1050 1.247 . S
O1052 Zn1053 2.028 . S
Zn1053 O1052 2.028 . S
Zn1053 O1057 2.035 . S
Zn1053 O1059 2.035 . S
Zn1053 O1060 2.028 . S
O1054 C1050 1.258 . S
O1054 Zn1055 2.035 . S
Zn1055 O1054 2.035 . S
Zn1055 O1056 2.028 . S
Zn1055 O1058 2.028 . S
Zn1055 O1061 2.035 . S
O1056 Zn1055 2.028 . S
O1056 C1062 1.247 . S
O1057 Zn1053 2.035 . S
O1057 C1062 1.258 . S
O1058 C1051 1.247 . S
O1058 Zn1055 2.028 . S
O1059 C1051 1.258 . S
O1059 Zn1053 2.035 . S
O1060 Zn1053 2.028 . S
O1060 C1063 1.247 . S
O1061 Zn1055 2.035 . S
O1061 C1063 1.258 . S
C1062 O1056 1.247 . S
C1062 O1057 1.258 . S
C1063 O1060 1.247 . S
C1063 O1061 1.258 . S
C1064 O1066 1.247 . S
C1064 O1068 1.258 . S
C1065 O1072 1.247 . S
C1065 O1073 1.258 . S
O1066 C1064 1.247 . S
O1066 Zn1067 2.028 . S
Zn1067 O1066 2.028 . S
Zn1067 O1071 2.035 . S
Zn1067 O1073 2.035 . S
Zn1067 O1074 2.028 . S
O1068 C1064 1.258 . S
O1068 Zn1069 2.035 . S
Zn1069 O1068 2.035 . S
Zn1069 O1070 2.028 . S
Zn1069 O1072 2.028 . S
Zn1069 O1075 2.035 . S
O1070 Zn1069 2.028 . S
O1070 C1076 1.247 . S
O1071 Zn1067 2.035 . S
O1071 C1076 1.258 . S
O1072 C1065 1.247 . S
O1072 Zn1069 2.028 . S
O1073 C1065 1.258 . S
O1073 Zn1067 2.035 . S
O1074 Zn1067 2.028 . S
O1074 C1077 1.247 . S
O1075 Zn1069 2.035 . S
O1075 C1077 1.258 . S
C1076 O1070 1.247 . S
C1076 O1071 1.258 . S
C1077 O1074 1.247 . S
C1077 O1075 1.258 . S
C1078 O1080 1.247 . S
C1078 O1082 1.258 . S
C1079 O1086 1.247 . S
C1079 O1087 1.258 . S
O1080 C1078 1.247 . S
O1080 Zn1081 2.028 . S
Zn1081 O1080 2.028 . S
Zn1081 O1085 2.035 . S
Zn1081 O1087 2.035 . S
Zn1081 O1088 2.028 . S
O1082 C1078 1.258 . S
O1082 Zn1083 2.035 . S
Zn1083 O1082 2.035 . S
Zn1083 O1084 2.028 . S
Zn1083 O1086 2.028 . S
Zn1083 O1089 2.035 . S
O1084 Zn1083 2.028 . S
O1084 C1090 1.247 . S
O1085 Zn1081 2.035 . S
O1085 C1090 1.258 . S
O1086 C1079 1.247 . S
O1086 Zn1083 2.028 . S
O1087 C1079 1.258 . S
O1087 Zn1081 2.035 . S
O1088 Zn1081 2.028 . S
O1088 C1091 1.247 . S
O1089 Zn1083 2.035 . S
O1089 C1091 1.258 . S
C1090 O1084 1.247 . S
C1090 O1085 1.258 . S
C1091 O1088 1.247 . S
C1091 O1089 1.258 . S
C1092 O1094 1.247 . S
C1092 O1096 1.258 . S
C1093 O1100 1.247 . S
C1093 O1101 1.258 . S
O1094 C1092 1.247 . S
O1094 Zn1095 2.028 . S
Zn1095 O1094 2.028 . S
Zn1095 O1099 2.035 . S
Zn1095 O1101 2.035 . S
Zn1095 O1102 2.028 . S
O1096 C1092 1.258 . S
O1096 Zn1097 2.035 . S
Zn1097 O1096 2.035 . S
Zn1097 O1098 2.028 . S
Zn1097 O1100 2.028 . S
Zn1097 O1103 2.035 . S
O1098 Zn1097 2.028 . S
O1098 C1104 1.247 . S
O1099 Zn1095 2.035 . S
O1099 C1104 1.258 . S
O1100 C1093 1.247 . S
O1100 Zn1097 2.028 . S
O1101 C1093 1.258 . S
O1101 Zn1095 2.035 . S
O1102 Zn1095 2.028 . S
O1102 C1105 1.247 . S
O1103 Zn1097 2.035 . S
O1103 C1105 1.258 . S
C1104 O1098 1.247 . S
C1104 O1099 1.258 . S
C1105 O1102 1.247 . S
C1105 O1103 1.258 . S
C1106 O1108 1.247 . S
C1106 O1110 1.258 . S
C1107 O1114 1.247 . S
C1107 O1115 1.258 . S
O1108 C1106 1.247 . S
O1108 Zn1109 2.028 . S
Zn1109 O1108 2.028 . S
Zn1109 O1113 2.035 . S
Zn1109 O1115 2.035 . S
Zn1109 O1116 2.028 . S
O1110 C1106 1.258 . S
O1110 Zn1111 2.035 . S
Zn1111 O1110 2.035 . S
Zn1111 O1112 2.028 . S
Zn1111 O1114 2.028 . S
Zn1111 O1117 2.035 . S
O1112 Zn1111 2.028 . S
O1112 C1118 1.247 . S
O1113 Zn1109 2.035 . S
O1113 C1118 1.258 . S
O1114 C1107 1.247 . S
O1114 Zn1111 2.028 . S
O1115 C1107 1.258 . S
O1115 Zn1109 2.035 . S
O1116 Zn1109 2.028 . S
O1116 C1119 1.247 . S
O1117 Zn1111 2.035 . S
O1117 C1119 1.258 . S
C1118 O1112 1.247 . S
C1118 O1113 1.258 . S
C1119 O1116 1.247 . S
C1119 O1117 1.258 . S
C1120 O1122 1.247 . S
C1120 O1124 1.258 . S
C1121 O1128 1.247 . S
C1121 O1129 1.258 . S
O1122 C1120 1.247 . S
O1122 Zn1123 2.028 . S
Zn1123 O1122 2.028 . S
Zn1123 O1127 2.035 . S
Zn1123 O1129 2.035 . S
Zn1123 O1130 2.028 . S
O1124 C1120 1.258 . S
O1124 Zn1125 2.035 . S
Zn1125 O1124 2.035 . S
Zn1125 O1126 2.028 . S
Zn1125 O1128 2.028 . S
Zn1125 O1131 2.035 . S
O1126 Zn1125 2.028 . S
O1126 C1132 1.247 . S
O1127 Zn1123 2.035 . S
O1127 C1132 1.258 . S
O1128 C1121 1.247 . S
O1128 Zn1125 2.028 . S
O1129 C1121 1.258 . S
O1129 Zn1123 2.035 . S
O1130 Zn1123 2.028 . S
O1130 C1133 1.247 . S
O1131 Zn1125 2.035 . S
O1131 C1133 1.258 . S
C1132 O1126 1.247 . S
C1132 O1127 1.258 . S
C1133 O1130 1.247 . S
C1133 O1131 1.258 . S
C1134 O1136 1.247 . S
C1134 O1138 1.258 . S
C1135 O1142 1.247 . S
C1135 O1143 1.258 . S
O1136 C1134 1.247 . S
O1136 Zn1137 2.028 . S
Zn1137 O1136 2.028 . S
Zn1137 O1141 2.035 . S
Zn1137 O1143 2.035 . S
Zn1137 O1144 2.028 . S
O1138 C1134 1.258 . S
O1138 Zn1139 2.035 . S
Zn1139 O1138 2.035 . S
Zn1139 O1140 2.028 . S
Zn1139 O1142 2.028 . S
Zn1139 O1145 2.035 . S
O1140 Zn1139 2.028 . S
O1140 C1146 1.247 . S
O1141 Zn1137 2.035 . S
O1141 C1146 1.258 . S
O1142 C1135 1.247 . S
O1142 Zn1139 2.028 . S
O1143 C1135 1.258 . S
O1143 Zn1137 2.035 . S
O1144 Zn1137 2.028 . S
O1144 C1147 1.247 . S
O1145 Zn1139 2.035 . S
O1145 C1147 1.258 . S
C1146 O1140 1.247 . S
C1146 O1141 1.258 . S
C1147 O1144 1.247 . S
C1147 O1145 1.258 . S
C1148 O1150 1.247 . S
C1148 O1152 1.258 . S
C1149 O1156 1.247 . S
C1149 O1157 1.258 . S
O1150 C1148 1.247 . S
O1150 Zn1151 2.028 . S
Zn1151 O1150 2.028 . S
Zn1151 O1155 2.035 . S
Zn1151 O1157 2.035 . S
Zn1151 O1158 2.028 . S
O1152 C1148 1.258 . S
O1152 Zn1153 2.035 . S
Zn1153 O1152 2.035 . S
Zn1153 O1154 2.028 . S
Zn1153 O1156 2.028 . S
Zn1153 O1159 2.035 . S
O1154 Zn1153 2.028 . S
O1154 C1160 1.247 . S
O1155 Zn1151 2.035 . S
O1155 C1160 1.258 . S
O1156 C1149 1.247 . S
O1156 Zn1153 2.028 . S
O1157 C1149 1.258 . S
O1157 Zn1151 2.035 . S
O1158 Zn1151 2.028 . S
O1158 C1161 1.247 . S
O1159 Zn1153 2.035 . S
O1159 C1161 1.258 . S
C1160 O1154 1.247 . S
C1160 O1155 1.258 . S
C1161 O1158 1.247 . S
C1161 O1159 1.258 . S
C1162 O1164 1.247 . S
C1162 O1166 1.258 . S
C1163 O1170 1.247 . S
C1163 O1171 1.258 . S
O1164 C1162 1.247 . S
O1164 Zn1165 2.028 . S
Zn1165 O1164 2.028 . S
Zn1165 O1169 2.035 . S
Zn1165 O1171 2.035 . S
Zn1165 O1172 2.028 . S
O1166 C1162 1.258 . S
O1166 Zn1167 2.035 . S
Zn1167 O1166 2.035 . S
Zn1167 O1168 2.028 . S
Zn1167 O1170 2.028 . S
Zn1167 O1173 2.035 . S
O1168 Zn1167 2.028 . S
O1168 C1174 1.247 . S
O1169 Zn1165 2.035 . S
O1169 C1174 1.258 . S
O1170 C1163 1.247 . S
O1170 Zn1167 2.028 . S
O1171 C1163 1.258 . S
O1171 Zn1165 2.035 . S
O1172 Zn1165 2.028 . S
O1172 C1175 1.247 . S
O1173 Zn1167 2.035 . S
O1173 C1175 1.258 . S
C1174 O1168 1.247 . S
C1174 O1169 1.258 . S
C1175 O1172 1.247 . S
C1175 O1173 1.258 . S
C1176 O1178 1.247 . S
C1176 O1180 1.258 . S
C1177 O1184 1.247 . S
C1177 O1185 1.258 . S
O1178 C1176 1.247 . S
O1178 Zn1179 2.028 . S
Zn1179 O1178 2.028 . S
Zn1179 O1183 2.035 . S
Zn1179 O1185 2.035 . S
Zn1179 O1186 2.028 . S
O1180 C1176 1.258 . S
O1180 Zn1181 2.035 . S
Zn1181 O1180 2.035 . S
Zn1181 O1182 2.028 . S
Zn1181 O1184 2.028 . S
Zn1181 O1187 2.035 . S
O1182 Zn1181 2.028 . S
O1182 C1188 1.247 . S
O1183 Zn1179 2.035 . S
O1183 C1188 1.258 . S
O1184 C1177 1.247 . S
O1184 Zn1181 2.028 . S
O1185 C1177 1.258 . S
O1185 Zn1179 2.035 . S
O1186 Zn1179 2.028 . S
O1186 C1189 1.247 . S
O1187 Zn1181 2.035 . S
O1187 C1189 1.258 . S
C1188 O1182 1.247 . S
C1188 O1183 1.258 . S
C1189 O1186 1.247 . S
C1189 O1187 1.258 . S
C1190 O1192 1.247 . S
C1190 O1194 1.258 . S
C1191 O1198 1.247 . S
C1191 O1199 1.258 . S
O1192 C1190 1.247 . S
O1192 Zn1193 2.028 . S
Zn1193 O1192 2.028 . S
Zn1193 O1197 2.035 . S
Zn1193 O1199 2.035 . S
Zn1193 O1200 2.028 . S
O1194 C1190 1.258 . S
O1194 Zn1195 2.035 . S
Zn1195 O1194 2.035 . S
Zn1195 O1196 2.028 . S
Zn1195 O1198 2.028 . S
Zn1195 O1201 2.035 . S
O1196 Zn1195 2.028 . S
O1196 C1202 1.247 . S
O1197 Zn1193 2.035 . S
O1197 C1202 1.258 . S
O1198 C1191 1.247 . S
O1198 Zn1195 2.028 . S
O1199 C1191 1.258 . S
O1199 Zn1193 2.035 . S
O1200 Zn1193 2.028 . S
O1200 C1203 1.247 . S
O1201 Zn1195 2.035 . S
O1201 C1203 1.258 . S
C1202 O1196 1.247 . S
C1202 O1197 1.258 . S
C1203 O1200 1.247 . S
C1203 O1201 1.258 . S
C1204 O1206 1.247 . S
C1204 O1208 1.258 . S
C1205 O1212 1.247 . S
C1205 O1213 1.258 . S
O1206 C1204 1.247 . S
O1206 Zn1207 2.028 . S
Zn1207 O1206 2.028 . S
Zn1207 O1211 2.035 . S
Zn1207 O1213 2.035 . S
Zn1207 O1214 2.028 . S
O1208 C1204 1.258 . S
O1208 Zn1209 2.035 . S
Zn1209 O1208 2.035 . S
Zn1209 O1210 2.028 . S
Zn1209 O1212 2.028 . S
Zn1209 O1215 2.035 . S
O1210 Zn1209 2.028 . S
O1210 C1216 1.247 . S
O1211 Zn1207 2.035 . S
O1211 C1216 1.258 . S
O1212 C1205 1.247 . S
O1212 Zn1209 2.028 . S
O1213 C1205 1.258 . S
O1213 Zn1207 2.035 . S
O1214 Zn1207 2.028 . S
O1214 C1217 1.247 . S
O1215 Zn1209 2.035 . S
O1215 C1217 1.258 . S
C1216 O1210 1.247 . S
C1216 O1211 1.258 . S
C1217 O1214 1.247 . S
C1217 O1215 1.258 . S
C1218 O1220 1.247 . S
C1218 O1222 1.258 . S
C1219 O1226 1.247 . S
C1219 O1227 1.258 . S
O1220 C1218 1.247 . S
O1220 Zn1221 2.028 . S
Zn1221 O1220 2.028 . S
Zn1221 O1225 2.035 . S
Zn1221 O1227 2.035 . S
Zn1221 O1228 2.028 . S
O1222 C1218 1.258 . S
O1222 Zn1223 2.035 . S
Zn1223 O1222 2.035 . S
Zn1223 O1224 2.028 . S
Zn1223 O1226 2.028 . S
Zn1223 O1229 2.035 . S
O1224 Zn1223 2.028 . S
O1224 C1230 1.247 . S
O1225 Zn1221 2.035 . S
O1225 C1230 1.258 . S
O1226 C1219 1.247 . S
O1226 Zn1223 2.028 . S
O1227 C1219 1.258 . S
O1227 Zn1221 2.035 . S
O1228 Zn1221 2.028 . S
O1228 C1231 1.247 . S
O1229 Zn1223 2.035 . S
O1229 C1231 1.258 . S
C1230 O1224 1.247 . S
C1230 O1225 1.258 . S
C1231 O1228 1.247 . S
C1231 O1229 1.258 . S
C1232 O1234 1.247 . S
C1232 O1236 1.258 . S
C1233 O1240 1.247 . S
C1233 O1241 1.258 . S
O1234 C1232 1.247 . S
O1234 Zn1235 2.028 . S
Zn1235 O1234 2.028 . S
Zn1235 O1239 2.035 . S
Zn1235 O1241 2.035 . S
Zn1235 O1242 2.028 . S
O1236 C1232 1.258 . S
O1236 Zn1237 2.035 . S
Zn1237 O1236 2.035 . S
Zn1237 O1238 2.028 . S
Zn1237 O1240 2.028 . S
Zn1237 O1243 2.035 . S
O1238 Zn1237 2.028 . S
O1238 C1244 1.247 . S
O1239 Zn1235 2.035 . S
O1239 C1244 1.258 . S
O1240 C1233 1.247 . S
O1240 Zn1237 2.028 . S
O1241 C1233 1.258 . S
O1241 Zn1235 2.035 . S
O1242 Zn1235 2.028 . S
O1242 C1245 1.247 . S
O1243 Zn1237 2.035 . S
O1243 C1245 1.258 . S
C1244 O1238 1.247 . S
C1244 O1239 1.258 . S
C1245 O1242 1.247 . S
C1245 O1243 1.258 . S
C1246 O1248 1.247 . S
C1246 O1250 1.258 . S
C1247 O1254 1.247 . S
C1247 O1255 1.258 . S
O1248 C1246 1.247 . S
O1248 Zn1249 2.028 . S
Zn1249 O1248 2.028 . S
Zn1249 O1253 2.035 . S
Zn1249 O1255 2.035 . S
Zn1249 O1256 2.028 . S
O1250 C1246 1.258 . S
O1250 Zn1251 2.035 . S
Zn1251 O1250 2.035 . S
Zn1251 O1252 2.028 . S
Zn1251 O1254 2.028 . S
Zn1251 O1257 2.035 . S
O1252 Zn1251 2.028 . S
O1252 C1258 1.247 . S
O1253 Zn1249 2.035 . S
O1253 C1258 1.258 . S
O1254 C1247 1.247 . S
O1254 Zn1251 2.028 . S
O1255 C1247 1.258 . S
O1255 Zn1249 2.035 . S
O1256 Zn1249 2.028 . S
O1256 C1259 1.247 . S
O1257 Zn1251 2.035 . S
O1257 C1259 1.258 . S
C1258 O1252 1.247 . S
C1258 O1253 1.258 . S
C1259 O1256 1.247 . S
C1259 O1257 1.258 . S
C1260 O1262 1.247 . S
C1260 O1264 1.258 . S
C1261 O1268 1.247 . S
C1261 O1269 1.258 . S
O1262 C1260 1.247 . S
O1262 Zn1263 2.028 . S
Zn1263 O1262 2.028 . S
Zn1263 O1267 2.035 . S
Zn1263 O1269 2.035 . S
Zn1263 O1270 2.028 . S
O1264 C1260 1.258 . S
O1264 Zn1265 2.035 . S
Zn1265 O1264 2.035 . S
Zn1265 O1266 2.028 . S
Zn1265 O1268 2.028 . S
Zn1265 O1271 2.035 . S
O1266 Zn1265 2.028 . S
O1266 C1272 1.247 . S
O1267 Zn1263 2.035 . S
O1267 C1272 1.258 . S
O1268 C1261 1.247 . S
O1268 Zn1265 2.028 . S
O1269 C1261 1.258 . S
O1269 Zn1263 2.035 . S
O1270 Zn1263 2.028 . S
O1270 C1273 1.247 . S
O1271 Zn1265 2.035 . S
O1271 C1273 1.258 . S
C1272 O1266 1.247 . S
C1272 O1267 1.258 . S
C1273 O1270 1.247 . S
C1273 O1271 1.258 . S
C1274 O1276 1.247 . S
C1274 O1278 1.258 . S
C1275 O1282 1.247 . S
C1275 O1283 1.258 . S
O1276 C1274 1.247 . S
O1276 Zn1277 2.028 . S
Zn1277 O1276 2.028 . S
Zn1277 O1281 2.035 . S
Zn1277 O1283 2.035 . S
Zn1277 O1284 2.028 . S
O1278 C1274 1.258 . S
O1278 Zn1279 2.035 . S
Zn1279 O1278 2.035 . S
Zn1279 O1280 2.028 . S
Zn1279 O1282 2.028 . S
Zn1279 O1285 2.035 . S
O1280 Zn1279 2.028 . S
O1280 C1286 1.247 . S
O1281 Zn1277 2.035 . S
O1281 C1286 1.258 . S
O1282 C1275 1.247 . S
O1282 Zn1279 2.028 . S
O1283 C1275 1.258 . S
O1283 Zn1277 2.035 . S
O1284 Zn1277 2.028 . S
O1284 C1287 1.247 . S
O1285 Zn1279 2.035 . S
O1285 C1287 1.258 . S
C1286 O1280 1.247 . S
C1286 O1281 1.258 . S
C1287 O1284 1.247 . S
C1287 O1285 1.258 . S
C1288 O1290 1.247 . S
C1288 O1292 1.258 . S
C1289 O1296 1.247 . S
C1289 O1297 1.258 . S
O1290 C1288 1.247 . S
O1290 Zn1291 2.028 . S
Zn1291 O1290 2.028 . S
Zn1291 O1295 2.035 . S
Zn1291 O1297 2.035 . S
Zn1291 O1298 2.028 . S
O1292 C1288 1.258 . S
O1292 Zn1293 2.035 . S
Zn1293 O1292 2.035 . S
Zn1293 O1294 2.028 . S
Zn1293 O1296 2.028 . S
Zn1293 O1299 2.035 . S
O1294 Zn1293 2.028 . S
O1294 C1300 1.247 . S
O1295 Zn1291 2.035 . S
O1295 C1300 1.258 . S
O1296 C1289 1.247 . S
O1296 Zn1293 2.028 . S
O1297 C1289 1.258 . S
O1297 Zn1291 2.035 . S
O1298 Zn1291 2.028 . S
O1298 C1301 1.247 . S
O1299 Zn1293 2.035 . S
O1299 C1301 1.258 . S
C1300 O1294 1.247 . S
C1300 O1295 1.258 . S
C1301 O1298 1.247 . S
C1301 O1299 1.258 . S
C1302 O1304 1.247 . S
C1302 O1306 1.258 . S
C1303 O1310 1.247 . S
C1303 O1311 1.258 . S
O1304 C1302 1.247 . S
O1304 Zn1305 2.028 . S
Zn1305 O1304 2.028 . S
Zn1305 O1309 2.035 . S
Zn1305 O1311 2.035 . S
Zn1305 O1312 2.028 . S
O1306 C1302 1.258 . S
O1306 Zn1307 2.035 . S
Zn1307 O1306 2.035 . S
Zn1307 O1308 2.028 . S
Zn1307 O1310 2.028 . S
Zn1307 O1313 2.035 . S
O1308 Zn1307 2.028 . S
O1308 C1314 1.247 . S
O1309 Zn1305 2.035 . S
O1309 C1314 1.258 . S
O1310 C1303 1.247 . S
O1310 Zn1307 2.028 . S
O1311 C1303 1.258 . S
O1311 Zn1305 2.035 . S
O1312 Zn1305 2.028 . S
O1312 C1315 1.247 . S
O1313 Zn1307 2.035 . S
O1313 C1315 1.258 . S
C1314 O1308 1.247 . S
C1314 O1309 1.258 . S
C1315 O1312 1.247 . S
C1315 O1313 1.258 . S
C1316 O1318 1.247 . S
C1316 O1320 1.258 . S
C1317 O1324 1.247 . S
C1317 O1325 1.258 . S
O1318 C1316 1.247 . S
O1318 Zn1319 2.028 . S
Zn1319 O1318 2.028 . S
Zn1319 O1323 2.035 . S
Zn1319 O1325 2.035 . S
Zn1319 O1326 2.028 . S
O1320 C1316 1.258 . S
O1320 Zn1321 2.035 . S
Zn1321 O1320 2.035 . S
Zn1321 O1322 2.028 . S
Zn1321 O1324 2.028 . S
Zn1321 O1327 2.035 . S
O1322 Zn1321 2.028 . S
O1322 C1328 1.247 . S
O1323 Zn1319 2.035 . S
O1323 C1328 1.258 . S
O1324 C1317 1.247 . S
O1324 Zn1321 2.028 . S
O1325 C1317 1.258 . S
O1325 Zn1319 2.035 . S
O1326 Zn1319 2.028 . S
O1326 C1329 1.247 . S
O1327 Zn1321 2.035 . S
O1327 C1329 1.258 . S
C1328 O1322 1.247 . S
C1328 O1323 1.258 . S
C1329 O1326 1.247 . S
C1329 O1327 1.258 . S
C1330 O1332 1.247 . S
C1330 O1334 1.258 . S
C1331 O1338 1.247 . S
C1331 O1339 1.258 . S
O1332 C1330 1.247 . S
O1332 Zn1333 2.028 . S
Zn1333 O1332 2.028 . S
Zn1333 O1337 2.035 . S
Zn1333 O1339 2.035 . S
Zn1333 O1340 2.028 . S
O1334 C1330 1.258 . S
O1334 Zn1335 2.035 . S
Zn1335 O1334 2.035 . S
Zn1335 O1336 2.028 . S
Zn1335 O1338 2.028 . S
Zn1335 O1341 2.035 . S
O1336 Zn1335 2.028 . S
O1336 C1342 1.247 . S
O1337 Zn1333 2.035 . S
O1337 C1342 1.258 . S
O1338 C1331 1.247 . S
O1338 Zn1335 2.028 . S
O1339 C1331 1.258 . S
O1339 Zn1333 2.035 . S
O1340 Zn1333 2.028 . S
O1340 C1343 1.247 . S
O1341 Zn1335 2.035 . S
O1341 C1343 1.258 . S
C1342 O1336 1.247 . S
C1342 O1337 1.258 . S
C1343 O1340 1.247 . S
C1343 O1341 1.258 . S
C1344 C1345 1.387 . S
C1344 H1348 0.950 . S
C1344 C1353 1.390 1_454 S
C1345 C1344 1.387 . S
C1345 C1347 1.387 . S
H1346 C1353 0.950 . S
C1347 C1345 1.387 . S
C1347 C1349 1.390 1_454 S
C1347 H1351 0.950 . S
H1348 C1344 0.950 . S
C1349 C1347 1.390 1_656 S
C1349 C1350 1.387 . S
C1349 H1352 0.950 . S
C1350 C1349 1.387 . S
C1350 C1353 1.387 . S
H1351 C1347 0.950 . S
H1352 C1349 0.950 . S
C1353 C1344 1.390 1_656 S
C1353 H1346 0.950 . S
C1353 C1350 1.387 . S
C1354 C1355 1.387 . S
C1354 H1358 0.950 . S
C1354 C1363 1.390 . S
C1355 C1354 1.387 . S
C1355 C1357 1.387 . S
H1356 C1363 0.950 . S
C1357 C1355 1.387 . S
C1357 C1359 1.390 . S
C1357 H1361 0.950 . S
H1358 C1354 0.950 . S
C1359 C1357 1.390 . S
C1359 C1360 1.387 . S
C1359 H1362 0.950 . S
C1360 C1359 1.387 . S
C1360 C1363 1.387 . S
H1361 C1357 0.950 . S
H1362 C1359 0.950 . S
C1363 C1354 1.390 . S
C1363 H1356 0.950 . S
C1363 C1360 1.387 . S
C1364 C1365 1.387 . S
C1364 H1368 0.950 . S
C1364 C1373 1.390 1_655 S
C1365 C1364 1.387 . S
C1365 C1367 1.387 . S
H1366 C1373 0.950 . S
C1367 C1365 1.387 . S
C1367 C1369 1.390 1_655 S
C1367 H1371 0.950 . S
H1368 C1364 0.950 . S
C1369 C1367 1.390 1_455 S
C1369 C1370 1.387 . S
C1369 H1372 0.950 . S
C1370 C1369 1.387 . S
C1370 C1373 1.387 . S
H1371 C1367 0.950 . S
H1372 C1369 0.950 . S
C1373 C1364 1.390 1_455 S
C1373 H1366 0.950 . S
C1373 C1370 1.387 . S
C1374 C1375 1.387 . S
C1374 H1378 0.950 . S
C1374 C1383 1.390 . S
C1375 C1374 1.387 . S
C1375 C1377 1.387 . S
H1376 C1383 0.950 . S
C1377 C1375 1.387 . S
C1377 C1379 1.390 . S
C1377 H1381 0.950 . S
H1378 C1374 0.950 . S
C1379 C1377 1.390 . S
C1379 C1380 1.387 . S
C1379 H1382 0.950 . S
C1380 C1379 1.387 . S
C1380 C1383 1.387 . S
H1381 C1377 0.950 . S
H1382 C1379 0.950 . S
C1383 C1374 1.390 . S
C1383 H1376 0.950 . S
C1383 C1380 1.387 . S
C1384 C1385 1.387 . S
C1384 H1388 0.950 . S
C1384 C1393 1.390 1_654 S
C1385 C1384 1.387 . S
C1385 C1387 1.387 . S
H1386 C1393 0.950 . S
C1387 C1385 1.387 . S
C1387 C1389 1.390 1_654 S
C1387 H1391 0.950 . S
H1388 C1384 0.950 . S
C1389 C1387 1.390 1_456 S
C1389 C1390 1.387 . S
C1389 H1392 0.950 . S
C1390 C1389 1.387 . S
C1390 C1393 1.387 . S
H1391 C1387 0.950 . S
H1392 C1389 0.950 . S
C1393 C1384 1.390 1_456 S
C1393 H1386 0.950 . S
C1393 C1390 1.387 . S
C1394 C1395 1.387 . S
C1394 H1398 0.950 . S
C1394 C1403 1.390 . S
C1395 C1394 1.387 . S
C1395 C1397 1.387 . S
H1396 C1403 0.950 . S
C1397 C1395 1.387 . S
C1397 C1399 1.390 . S
C1397 H1401 0.950 . S
H1398 C1394 0.950 . S
C1399 C1397 1.390 . S
C1399 C1400 1.387 . S
C1399 H1402 0.950 . S
C1400 C1399 1.387 . S
C1400 C1403 1.387 . S
H1401 C1397 0.950 . S
H1402 C1399 0.950 . S
C1403 C1394 1.390 . S
C1403 H1396 0.950 . S
C1403 C1400 1.387 . S
C1404 C1405 1.387 . S
C1404 H1408 0.950 . S
C1404 C1413 1.390 1_455 S
C1405 C1404 1.387 . S
C1405 C1407 1.387 . S
H1406 C1413 0.950 . S
C1407 C1405 1.387 . S
C1407 C1409 1.390 1_455 S
C1407 H1411 0.950 . S
H1408 C1404 0.950 . S
C1409 C1407 1.390 1_655 S
C1409 C1410 1.387 . S
C1409 H1412 0.950 . S
C1410 C1409 1.387 . S
C1410 C1413 1.387 . S
H1411 C1407 0.950 . S
H1412 C1409 0.950 . S
C1413 C1404 1.390 1_655 S
C1413 H1406 0.950 . S
C1413 C1410 1.387 . S
C1414 C1415 1.387 . S
C1414 H1418 0.950 . S
C1414 C1423 1.390 . S
C1415 C1414 1.387 . S
C1415 C1417 1.387 . S
H1416 C1423 0.950 . S
C1417 C1415 1.387 . S
C1417 C1419 1.390 . S
C1417 H1421 0.950 . S
H1418 C1414 0.950 . S
C1419 C1417 1.390 . S
C1419 C1420 1.387 . S
C1419 H1422 0.950 . S
C1420 C1419 1.387 . S
C1420 C1423 1.387 . S
H1421 C1417 0.950 . S
H1422 C1419 0.950 . S
C1423 C1414 1.390 . S
C1423 H1416 0.950 . S
C1423 C1420 1.387 . S
C1424 C1425 1.387 . S
C1424 H1428 0.950 . S
C1424 C1433 1.390 1_665 S
C1425 C1424 1.387 . S
C1425 C1427 1.387 . S
H1426 C1433 0.950 . S
C1427 C1425 1.387 . S
C1427 C1429 1.390 1_665 S
C1427 H1431 0.950 . S
H1428 C1424 0.950 . S
C1429 C1427 1.390 1_445 S
C1429 C1430 1.387 . S
C1429 H1432 0.950 . S
C1430 C1429 1.387 . S
C1430 C1433 1.387 . S
H1431 C1427 0.950 . S
H1432 C1429 0.950 . S
C1433 C1424 1.390 1_445 S
C1433 H1426 0.950 . S
C1433 C1430 1.387 . S
C1434 C1435 1.387 . S
C1434 H1438 0.950 . S
C1434 C1443 1.390 . S
C1435 C1434 1.387 . S
C1435 C1437 1.387 . S
H1436 C1443 0.950 . S
C1437 C1435 1.387 . S
C1437 C1439 1.390 . S
C1437 H1441 0.950 . S
H1438 C1434 0.950 . S
C1439 C1437 1.390 . S
C1439 C1440 1.387 . S
C1439 H1442 0.950 . S
C1440 C1439 1.387 . S
C1440 C1443 1.387 . S
H1441 C1437 0.950 . S
H1442 C1439 0.950 . S
C1443 C1434 1.390 . S
C1443 H1436 0.950 . S
C1443 C1440 1.387 . S
C1444 C1445 1.387 . S
C1444 H1448 0.950 . S
C1444 C1453 1.390 1_655 S
C1445 C1444 1.387 . S
C1445 C1447 1.387 . S
H1446 C1453 0.950 . S
C1447 C1445 1.387 . S
C1447 C1449 1.390 1_655 S
C1447 H1451 0.950 . S
H1448 C1444 0.950 . S
C1449 C1447 1.390 1_455 S
C1449 C1450 1.387 . S
C1449 H1452 0.950 . S
C1450 C1449 1.387 . S
C1450 C1453 1.387 . S
H1451 C1447 0.950 . S
H1452 C1449 0.950 . S
C1453 C1444 1.390 1_455 S
C1453 H1446 0.950 . S
C1453 C1450 1.387 . S
C1454 C1455 1.387 . S
C1454 H1458 0.950 . S
C1454 C1463 1.390 . S
C1455 C1454 1.387 . S
C1455 C1457 1.387 . S
H1456 C1463 0.950 . S
C1457 C1455 1.387 . S
C1457 C1459 1.390 . S
C1457 H1461 0.950 . S
H1458 C1454 0.950 . S
C1459 C1457 1.390 . S
C1459 C1460 1.387 . S
C1459 H1462 0.950 . S
C1460 C1459 1.387 . S
C1460 C1463 1.387 . S
H1461 C1457 0.950 . S
H1462 C1459 0.950 . S
C1463 C1454 1.390 . S
C1463 H1456 0.950 . S
C1463 C1460 1.387 . S
C1464 C1465 1.387 . S
C1464 H1468 0.950 . S
C1464 C1473 1.390 1_465 S
C1465 C1464 1.387 . S
C1465 C1467 1.387 . S
H1466 C1473 0.950 . S
C1467 C1465 1.387 . S
C1467 C1469 1.390 1_465 S
C1467 H1471 0.950 . S
H1468 C1464 0.950 . S
C1469 C1467 1.390 1_645 S
C1469 C1470 1.387 . S
C1469 H1472 0.950 . S
C1470 C1469 1.387 . S
C1470 C1473 1.387 . S
H1471 C1467 0.950 . S
H1472 C1469 0.950 . S
C1473 C1464 1.390 1_645 S
C1473 H1466 0.950 . S
C1473 C1470 1.387 . S
C1474 C1475 1.387 . S
C1474 H1478 0.950 . S
C1474 C1483 1.390 . S
C1475 C1474 1.387 . S
C1475 C1477 1.387 . S
H1476 C1483 0.950 . S
C1477 C1475 1.387 . S
C1477 C1479 1.390 . S
C1477 H1481 0.950 . S
H1478 C1474 0.950 . S
C1479 C1477 1.390 . S
C1479 C1480 1.387 . S
C1479 H1482 0.950 . S
C1480 C1479 1.387 . S
C1480 C1483 1.387 . S
H1481 C1477 0.950 . S
H1482 C1479 0.950 . S
C1483 C1474 1.390 . S
C1483 H1476 0.950 . S
C1483 C1480 1.387 . S
C1484 C1485 1.387 . S
C1484 H1488 0.950 . S
C1484 C1493 1.390 1_455 S
C1485 C1484 1.387 . S
C1485 C1487 1.387 . S
H1486 C1493 0.950 . S
C1487 C1485 1.387 . S
C1487 C1489 1.390 1_455 S
C1487 H1491 0.950 . S
H1488 C1484 0.950 . S
C1489 C1487 1.390 1_655 S
C1489 C1490 1.387 . S
C1489 H1492 0.950 . S
C1490 C1489 1.387 . S
C1490 C1493 1.387 . S
H1491 C1487 0.950 . S
H1492 C1489 0.950 . S
C1493 C1484 1.390 1_655 S
C1493 H1486 0.950 . S
C1493 C1490 1.387 . S
C1494 C1495 1.387 . S
C1494 H1498 0.950 . S
C1494 C1503 1.390 . S
C1495 C1494 1.387 . S
C1495 C1497 1.387 . S
H1496 C1503 0.950 . S
C1497 C1495 1.387 . S
C1497 C1499 1.390 . S
C1497 H1501 0.950 . S
H1498 C1494 0.950 . S
C1499 C1497 1.390 . S
C1499 C1500 1.387 . S
C1499 H1502 0.950 . S
C1500 C1499 1.387 . S
C1500 C1503 1.387 . S
H1501 C1497 0.950 . S
H1502 C1499 0.950 . S
C1503 C1494 1.390 . S
C1503 H1496 0.950 . S
C1503 C1500 1.387 . S
C1504 C1505 1.387 . S
C1504 H1508 0.950 . S
C1504 C1513 1.390 1_566 S
C1505 C1504 1.387 . S
C1505 C1507 1.387 . S
H1506 C1513 0.950 . S
C1507 C1505 1.387 . S
C1507 C1509 1.390 1_566 S
C1507 H1511 0.950 . S
H1508 C1504 0.950 . S
C1509 C1507 1.390 1_544 S
C1509 C1510 1.387 . S
C1509 H1512 0.950 . S
C1510 C1509 1.387 . S
C1510 C1513 1.387 . S
H1511 C1507 0.950 . S
H1512 C1509 0.950 . S
C1513 C1504 1.390 1_544 S
C1513 H1506 0.950 . S
C1513 C1510 1.387 . S
C1514 C1515 1.387 . S
C1514 H1518 0.950 . S
C1514 C1523 1.390 1_545 S
C1515 C1514 1.387 . S
C1515 C1517 1.387 . S
H1516 C1523 0.950 . S
C1517 C1515 1.387 . S
C1517 C1519 1.390 1_545 S
C1517 H1521 0.950 . S
H1518 C1514 0.950 . S
C1519 C1517 1.390 1_565 S
C1519 C1520 1.387 . S
C1519 H1522 0.950 . S
C1520 C1519 1.387 . S
C1520 C1523 1.387 . S
H1521 C1517 0.950 . S
H1522 C1519 0.950 . S
C1523 C1514 1.390 1_565 S
C1523 H1516 0.950 . S
C1523 C1520 1.387 . S
C1524 C1525 1.387 . S
C1524 H1528 0.950 . S
C1524 C1533 1.390 . S
C1525 C1524 1.387 . S
C1525 C1527 1.387 . S
H1526 C1533 0.950 . S
C1527 C1525 1.387 . S
C1527 C1529 1.390 . S
C1527 H1531 0.950 . S
H1528 C1524 0.950 . S
C1529 C1527 1.390 . S
C1529 C1530 1.387 . S
C1529 H1532 0.950 . S
C1530 C1529 1.387 . S
C1530 C1533 1.387 . S
H1531 C1527 0.950 . S
H1532 C1529 0.950 . S
C1533 C1524 1.390 . S
C1533 H1526 0.950 . S
C1533 C1530 1.387 . S
C1534 C1535 1.387 . S
C1534 H1538 0.950 . S
C1534 C1543 1.390 1_554 S
C1535 C1534 1.387 . S
C1535 C1537 1.387 . S
H1536 C1543 0.950 . S
C1537 C1535 1.387 . S
C1537 C1539 1.390 1_554 S
C1537 H1541 0.950 . S
H1538 C1534 0.950 . S
C1539 C1537 1.390 1_556 S
C1539 C1540 1.387 . S
C1539 H1542 0.950 . S
C1540 C1539 1.387 . S
C1540 C1543 1.387 . S
H1541 C1537 0.950 . S
H1542 C1539 0.950 . S
C1543 C1534 1.390 1_556 S
C1543 H1536 0.950 . S
C1543 C1540 1.387 . S
C1544 C1545 1.387 . S
C1544 H1548 0.950 . S
C1544 C1553 1.390 . S
C1545 C1544 1.387 . S
C1545 C1547 1.387 . S
H1546 C1553 0.950 . S
C1547 C1545 1.387 . S
C1547 C1549 1.390 . S
C1547 H1551 0.950 . S
H1548 C1544 0.950 . S
C1549 C1547 1.390 . S
C1549 C1550 1.387 . S
C1549 H1552 0.950 . S
C1550 C1549 1.387 . S
C1550 C1553 1.387 . S
H1551 C1547 0.950 . S
H1552 C1549 0.950 . S
C1553 C1544 1.390 . S
C1553 H1546 0.950 . S
C1553 C1550 1.387 . S
C1554 C1555 1.387 . S
C1554 H1558 0.950 . S
C1554 C1563 1.390 1_564 S
C1555 C1554 1.387 . S
C1555 C1557 1.387 . S
H1556 C1563 0.950 . S
C1557 C1555 1.387 . S
C1557 C1559 1.390 1_564 S
C1557 H1561 0.950 . S
H1558 C1554 0.950 . S
C1559 C1557 1.390 1_546 S
C1559 C1560 1.387 . S
C1559 H1562 0.950 . S
C1560 C1559 1.387 . S
C1560 C1563 1.387 . S
H1561 C1557 0.950 . S
H1562 C1559 0.950 . S
C1563 C1554 1.390 1_546 S
C1563 H1556 0.950 . S
C1563 C1560 1.387 . S
C1564 C1565 1.387 . S
C1564 H1568 0.950 . S
C1564 C1573 1.390 . S
C1565 C1564 1.387 . S
C1565 C1567 1.387 . S
H1566 C1573 0.950 . S
C1567 C1565 1.387 . S
C1567 C1569 1.390 . S
C1567 H1571 0.950 . S
H1568 C1564 0.950 . S
C1569 C1567 1.390 . S
C1569 C1570 1.387 . S
C1569 H1572 0.950 . S
C1570 C1569 1.387 . S
C1570 C1573 1.387 . S
H1571 C1567 0.950 . S
H1572 C1569 0.950 . S
C1573 C1564 1.390 . S
C1573 H1566 0.950 . S
C1573 C1570 1.387 . S
C1574 C1575 1.387 . S
C1574 H1578 0.950 . S
C1574 C1583 1.390 . S
C1575 C1574 1.387 . S
C1575 C1577 1.387 . S
H1576 C1583 0.950 . S
C1577 C1575 1.387 . S
C1577 C1579 1.390 . S
C1577 H1581 0.950 . S
H1578 C1574 0.950 . S
C1579 C1577 1.390 . S
C1579 C1580 1.387 . S
C1579 H1582 0.950 . S
C1580 C1579 1.387 . S
C1580 C1583 1.387 . S
H1581 C1577 0.950 . S
H1582 C1579 0.950 . S
C1583 C1574 1.390 . S
C1583 H1576 0.950 . S
C1583 C1580 1.387 . S
C1584 C1585 1.387 . S
C1584 H1588 0.950 . S
C1584 C1593 1.390 . S
C1585 C1584 1.387 . S
C1585 C1587 1.387 . S
H1586 C1593 0.950 . S
C1587 C1585 1.387 . S
C1587 C1589 1.390 . S
C1587 H1591 0.950 . S
H1588 C1584 0.950 . S
C1589 C1587 1.390 . S
C1589 C1590 1.387 . S
C1589 H1592 0.950 . S
C1590 C1589 1.387 . S
C1590 C1593 1.387 . S
H1591 C1587 0.950 . S
H1592 C1589 0.950 . S
C1593 C1584 1.390 . S
C1593 H1586 0.950 . S
C1593 C1590 1.387 . S
C1594 C1595 1.387 . S
C1594 H1598 0.950 . S
C1594 C1603 1.390 . S
C1595 C1594 1.387 . S
C1595 C1597 1.387 . S
H1596 C1603 0.950 . S
C1597 C1595 1.387 . S
C1597 C1599 1.390 . S
C1597 H1601 0.950 . S
H1598 C1594 0.950 . S
C1599 C1597 1.390 . S
C1599 C1600 1.387 . S
C1599 H1602 0.950 . S
C1600 C1599 1.387 . S
C1600 C1603 1.387 . S
H1601 C1597 0.950 . S
H1602 C1599 0.950 . S
C1603 C1594 1.390 . S
C1603 H1596 0.950 . S
C1603 C1600 1.387 . S
C1604 C1605 1.387 . S
C1604 H1608 0.950 . S
C1604 C1613 1.390 . S
C1605 C1604 1.387 . S
C1605 C1607 1.387 . S
H1606 C1613 0.950 . S
C1607 C1605 1.387 . S
C1607 C1609 1.390 . S
C1607 H1611 0.950 . S
H1608 C1604 0.950 . S
C1609 C1607 1.390 . S
C1609 C1610 1.387 . S
C1609 H1612 0.950 . S
C1610 C1609 1.387 . S
C1610 C1613 1.387 . S
H1611 C1607 0.950 . S
H1612 C1609 0.950 . S
C1613 C1604 1.390 . S
C1613 H1606 0.950 . S
C1613 C1610 1.387 . S
C1614 C1615 1.387 . S
C1614 H1618 0.950 . S
C1614 C1623 1.390 . S
C1615 C1614 1.387 . S
C1615 C1617 1.387 . S
H1616 C1623 0.950 . S
C1617 C1615 1.387 . S
C1617 C1619 1.390 . S
C1617 H1621 0.950 . S
H1618 C1614 0.950 . S
C1619 C1617 1.390 . S
C1619 C1620 1.387 . S
C1619 H1622 0.950 . S
C1620 C1619 1.387 . S
C1620 C1623 1.387 . S
H1621 C1617 0.950 . S
H1622 C1619 0.950 . S
C1623 C1614 1.390 . S
C1623 H1616 0.950 . S
C1623 C1620 1.387 . S
C1624 C1625 1.387 . S
C1624 H1628 0.950 . S
C1624 C1633 1.390 . S
C1625 C1624 1.387 . S
C1625 C1627 1.387 . S
H1626 C1633 0.950 . S
C1627 C1625 1.387 . S
C1627 C1629 1.390 . S
C1627 H1631 0.950 . S
H1628 C1624 0.950 . S
C1629 C1627 1.390 . S
C1629 C1630 1.387 . S
C1629 H1632 0.950 . S
C1630 C1629 1.387 . S
C1630 C1633 1.387 . S
H1631 C1627 0.950 . S
H1632 C1629 0.950 . S
C1633 C1624 1.390 . S
C1633 H1626 0.950 . S
C1633 C1630 1.387 . S
C1634 C1635 1.387 . S
C1634 H1638 0.950 . S
C1634 C1643 1.390 . S
C1635 C1634 1.387 . S
C1635 C1637 1.387 . S
H1636 C1643 0.950 . S
C1637 C1635 1.387 . S
C1637 C1639 1.390 . S
C1637 H1641 0.950 . S
H1638 C1634 0.950 . S
C1639 C1637 1.390 . S
C1639 C1640 1.387 . S
C1639 H1642 0.950 . S
C1640 C1639 1.387 . S
C1640 C1643 1.387 . S
H1641 C1637 0.950 . S
H1642 C1639 0.950 . S
C1643 C1634 1.390 . S
C1643 H1636 0.950 . S
C1643 C1640 1.387 . S
C1644 C1645 1.387 . S
C1644 H1648 0.950 . S
C1644 C1653 1.390 . S
C1645 C1644 1.387 . S
C1645 C1647 1.387 . S
H1646 C1653 0.950 . S
C1647 C1645 1.387 . S
C1647 C1649 1.390 . S
C1647 H1651 0.950 . S
H1648 C1644 0.950 . S
C1649 C1647 1.390 . S
C1649 C1650 1.387 . S
C1649 H1652 0.950 . S
C1650 C1649 1.387 . S
C1650 C1653 1.387 . S
H1651 C1647 0.950 . S
H1652 C1649 0.950 . S
C1653 C1644 1.390 . S
C1653 H1646 0.950 . S
C1653 C1650 1.387 . S
C1654 C1655 1.387 . S
C1654 H1658 0.950 . S
C1654 C1663 1.390 . S
C1655 C1654 1.387 . S
C1655 C1657 1.387 . S
H1656 C1663 0.950 . S
C1657 C1655 1.387 . S
C1657 C1659 1.390 . S
C1657 H1661 0.950 . S
H1658 C1654 0.950 . S
C1659 C1657 1.390 . S
C1659 C1660 1.387 . S
C1659 H1662 0.950 . S
C1660 C1659 1.387 . S
C1660 C1663 1.387 . S
H1661 C1657 0.950 . S
H1662 C1659 0.950 . S
C1663 C1654 1.390 . S
C1663 H1656 0.950 . S
C1663 C1660 1.387 . S
C1664 C1665 1.387 . S
C1664 H1668 0.950 . S
C1664 C1673 1.390 . S
C1665 C1664 1.387 . S
C1665 C1667 1.387 . S
H1666 C1673 0.950 . S
C1667 C1665 1.387 . S
C1667 C1669 1.390 . S
C1667 H1671 0.950 . S
H1668 C1664 0.950 . S
C1669 C1667 1.390 . S
C1669 C1670 1.387 . S
C1669 H1672 0.950 . S
C1670 C1669 1.387 . S
C1670 C1673 1.387 . S
H1671 C1667 0.950 . S
H1672 C1669 0.950 . S
C1673 C1664 1.390 . S
C1673 H1666 0.950 . S
C1673 C1670 1.387 . S
C1674 C1675 1.387 . S
C1674 H1678 0.950 . S
C1674 C1683 1.390 1_556 S
C1675 C1674 1.387 . S
C1675 C1677 1.387 . S
H1676 C1683 0.950 . S
C1677 C1675 1.387 . S
C1677 C1679 1.390 1_556 S
C1677 H1681 0.950 . S
H1678 C1674 0.950 . S
C1679 C1677 1.390 1_554 S
C1679 C1680 1.387 . S
C1679 H1682 0.950 . S
C1680 C1679 1.387 . S
C1680 C1683 1.387 . S
H1681 C1677 0.950 . S
H1682 C1679 0.950 . S
C1683 C1674 1.390 1_554 S
C1683 H1676 0.950 . S
C1683 C1680 1.387 . S
C1684 C1685 1.387 . S
C1684 H1688 0.950 . S
C1684 C1693 1.390 . S
C1685 C1684 1.387 . S
C1685 C1687 1.387 . S
H1686 C1693 0.950 . S
C1687 C1685 1.387 . S
C1687 C1689 1.390 . S
C1687 H1691 0.950 . S
H1688 C1684 0.950 . S
C1689 C1687 1.390 . S
C1689 C1690 1.387 . S
C1689 H1692 0.950 . S
C1690 C1689 1.387 . S
C1690 C1693 1.387 . S
H1691 C1687 0.950 . S
H1692 C1689 0.950 . S
C1693 C1684 1.390 . S
C1693 H1686 0.950 . S
C1693 C1690 1.387 . S
C1694 C1695 1.387 . S
C1694 H1698 0.950 . S
C1694 C1703 1.390 1_565 S
C1695 C1694 1.387 . S
C1695 C1697 1.387 . S
H1696 C1703 0.950 . S
C1697 C1695 1.387 . S
C1697 C1699 1.390 1_565 S
C1697 H1701 0.950 . S
H1698 C1694 0.950 . S
C1699 C1697 1.390 1_545 S
C1699 C1700 1.387 . S
C1699 H1702 0.950 . S
C1700 C1699 1.387 . S
C1700 C1703 1.387 . S
H1701 C1697 0.950 . S
H1702 C1699 0.950 . S
C1703 C1694 1.390 1_545 S
C1703 H1696 0.950 . S
C1703 C1700 1.387 . S
C1704 C1705 1.387 . S
C1704 H1708 0.950 . S
C1704 C1713 1.390 . S
C1705 C1704 1.387 . S
C1705 C1707 1.387 . S
H1706 C1713 0.950 . S
C1707 C1705 1.387 . S
C1707 C1709 1.390 . S
C1707 H1711 0.950 . S
H1708 C1704 0.950 . S
C1709 C1707 1.390 . S
C1709 C1710 1.387 . S
C1709 H1712 0.950 . S
C1710 C1709 1.387 . S
C1710 C1713 1.387 . S
H1711 C1707 0.950 . S
H1712 C1709 0.950 . S
C1713 C1704 1.390 . S
C1713 H1706 0.950 . S
C1713 C1710 1.387 . S
C1714 C1715 1.387 . S
C1714 H1718 0.950 . S
C1714 C1723 1.390 . S
C1715 C1714 1.387 . S
C1715 C1717 1.387 . S
H1716 C1723 0.950 . S
C1717 C1715 1.387 . S
C1717 C1719 1.390 . S
C1717 H1721 0.950 . S
H1718 C1714 0.950 . S
C1719 C1717 1.390 . S
C1719 C1720 1.387 . S
C1719 H1722 0.950 . S
C1720 C1719 1.387 . S
C1720 C1723 1.387 . S
H1721 C1717 0.950 . S
H1722 C1719 0.950 . S
C1723 C1714 1.390 . S
C1723 H1716 0.950 . S
C1723 C1720 1.387 . S
C1724 C1725 1.387 . S
C1724 H1728 0.950 . S
C1724 C1733 1.390 . S
C1725 C1724 1.387 . S
C1725 C1727 1.387 . S
H1726 C1733 0.950 . S
C1727 C1725 1.387 . S
C1727 C1729 1.390 . S
C1727 H1731 0.950 . S
H1728 C1724 0.950 . S
C1729 C1727 1.390 . S
C1729 C1730 1.387 . S
C1729 H1732 0.950 . S
C1730 C1729 1.387 . S
C1730 C1733 1.387 . S
H1731 C1727 0.950 . S
H1732 C1729 0.950 . S
C1733 C1724 1.390 . S
C1733 H1726 0.950 . S
C1733 C1730 1.387 . S
C1734 C1735 1.387 . S
C1734 H1738 0.950 . S
C1734 C1743 1.390 1_556 S
C1735 C1734 1.387 . S
C1735 C1737 1.387 . S
H1736 C1743 0.950 . S
C1737 C1735 1.387 . S
C1737 C1739 1.390 1_556 S
C1737 H1741 0.950 . S
H1738 C1734 0.950 . S
C1739 C1737 1.390 1_554 S
C1739 C1740 1.387 . S
C1739 H1742 0.950 . S
C1740 C1739 1.387 . S
C1740 C1743 1.387 . S
H1741 C1737 0.950 . S
H1742 C1739 0.950 . S
C1743 C1734 1.390 1_554 S
C1743 H1736 0.950 . S
C1743 C1740 1.387 . S
C1744 C1745 1.387 . S
C1744 H1748 0.950 . S
C1744 C1753 1.390 . S
C1745 C1744 1.387 . S
C1745 C1747 1.387 . S
H1746 C1753 0.950 . S
C1747 C1745 1.387 . S
C1747 C1749 1.390 . S
C1747 H1751 0.950 . S
H1748 C1744 0.950 . S
C1749 C1747 1.390 . S
C1749 C1750 1.387 . S
C1749 H1752 0.950 . S
C1750 C1749 1.387 . S
C1750 C1753 1.387 . S
H1751 C1747 0.950 . S
H1752 C1749 0.950 . S
C1753 C1744 1.390 . S
C1753 H1746 0.950 . S
C1753 C1750 1.387 . S
C1754 C1755 1.387 . S
C1754 H1758 0.950 . S
C1754 C1763 1.390 1_556 S
C1755 C1754 1.387 . S
C1755 C1757 1.387 . S
H1756 C1763 0.950 . S
C1757 C1755 1.387 . S
C1757 C1759 1.390 1_556 S
C1757 H1761 0.950 . S
H1758 C1754 0.950 . S
C1759 C1757 1.390 1_554 S
C1759 C1760 1.387 . S
C1759 H1762 0.950 . S
C1760 C1759 1.387 . S
C1760 C1763 1.387 . S
H1761 C1757 0.950 . S
H1762 C1759 0.950 . S
C1763 C1754 1.390 1_554 S
C1763 H1756 0.950 . S
C1763 C1760 1.387 . S
C1764 C1765 1.387 . S
C1764 H1768 0.950 . S
C1764 C1773 1.390 1_565 S
C1765 C1764 1.387 . S
C1765 C1767 1.387 . S
H1766 C1773 0.950 . S
C1767 C1765 1.387 . S
C1767 C1769 1.390 1_565 S
C1767 H1771 0.950 . S
H1768 C1764 0.950 . S
C1769 C1767 1.390 1_545 S
C1769 C1770 1.387 . S
C1769 H1772 0.950 . S
C1770 C1769 1.387 . S
C1770 C1773 1.387 . S
H1771 C1767 0.950 . S
H1772 C1769 0.950 . S
C1773 C1764 1.390 1_545 S
C1773 H1766 0.950 . S
C1773 C1770 1.387 . S
C1774 C1775 1.387 . S
C1774 H1778 0.950 . S
C1774 C1783 1.390 . S
C1775 C1774 1.387 . S
C1775 C1777 1.387 . S
H1776 C1783 0.950 . S
C1777 C1775 1.387 . S
C1777 C1779 1.390 . S
C1777 H1781 0.950 . S
H1778 C1774 0.950 . S
C1779 C1777 1.390 . S
C1779 C1780 1.387 . S
C1779 H1782 0.950 . S
C1780 C1779 1.387 . S
C1780 C1783 1.387 . S
H1781 C1777 0.950 . S
H1782 C1779 0.950 . S
C1783 C1774 1.390 . S
C1783 H1776 0.950 . S
C1783 C1780 1.387 . S
C1784 C1785 1.387 . S
C1784 H1788 0.950 . S
C1784 C1793 1.390 1_565 S
C1785 C1784 1.387 . S
C1785 C1787 1.387 . S
H1786 C1793 0.950 . S
C1787 C1785 1.387 . S
C1787 C1789 1.390 1_565 S
C1787 H1791 0.950 . S
H1788 C1784 0.950 . S
C1789 C1787 1.390 1_545 S
C1789 C1790 1.387 . S
C1789 H1792 0.950 . S
C1790 C1789 1.387 . S
C1790 C1793 1.387 . S
H1791 C1787 0.950 . S
H1792 C1789 0.950 . S
C1793 C1784 1.390 1_545 S
C1793 H1786 0.950 . S
C1793 C1790 1.387 . S
C1794 C1795 1.387 . S
C1794 H1798 0.950 . S
C1794 C1803 1.390 . S
C1795 C1794 1.387 . S
C1795 C1797 1.387 . S
H1796 C1803 0.950 . S
C1797 C1795 1.387 . S
C1797 C1799 1.390 . S
C1797 H1801 0.950 . S
H1798 C1794 0.950 . S
C1799 C1797 1.390 . S
C1799 C1800 1.387 . S
C1799 H1802 0.950 . S
C1800 C1799 1.387 . S
C1800 C1803 1.387 . S
H1801 C1797 0.950 . S
H1802 C1799 0.950 . S
C1803 C1794 1.390 . S
C1803 H1796 0.950 . S
C1803 C1800 1.387 . S
C1804 C1805 1.387 . S
C1804 H1808 0.950 . S
C1804 C1813 1.390 . S
C1805 C1804 1.387 . S
C1805 C1807 1.387 . S
H1806 C1813 0.950 . S
C1807 C1805 1.387 . S
C1807 C1809 1.390 . S
C1807 H1811 0.950 . S
H1808 C1804 0.950 . S
C1809 C1807 1.390 . S
C1809 C1810 1.387 . S
C1809 H1812 0.950 . S
C1810 C1809 1.387 . S
C1810 C1813 1.387 . S
H1811 C1807 0.950 . S
H1812 C1809 0.950 . S
C1813 C1804 1.390 . S
C1813 H1806 0.950 . S
C1813 C1810 1.387 . S
C1814 C1815 1.387 . S
C1814 H1818 0.950 . S
C1814 C1823 1.390 . S
C1815 C1814 1.387 . S
C1815 C1817 1.387 . S
H1816 C1823 0.950 . S
C1817 C1815 1.387 . S
C1817 C1819 1.390 . S
C1817 H1821 0.950 . S
H1818 C1814 0.950 . S
C1819 C1817 1.390 . S
C1819 C1820 1.387 . S
C1819 H1822 0.950 . S
C1820 C1819 1.387 . S
C1820 C1823 1.387 . S
H1821 C1817 0.950 . S
H1822 C1819 0.950 . S
C1823 C1814 1.390 . S
C1823 H1816 0.950 . S
C1823 C1820 1.387 . S
C1824 C1825 1.378 1_655 S
C1824 H1828 0.938 1_655 S
C1824 C1833 1.413 . S
C1825 C1824 1.378 1_455 S
C1825 C1827 1.387 1_455 S
H1826 C1833 0.950 . S
C1827 C1825 1.387 1_655 S
C1827 C1829 1.390 . S
C1827 H1831 0.950 1_655 S
H1828 C1824 0.938 1_455 S
C1829 C1827 1.390 . S
C1829 C1830 1.387 . S
C1829 H1832 0.950 . S
C1830 C1829 1.387 . S
C1830 C1833 1.387 . S
H1831 C1827 0.950 1_455 S
H1832 C1829 0.950 . S
C1833 C1824 1.413 . S
C1833 H1826 0.950 . S
C1833 C1830 1.387 . S
C1834 C1835 1.387 . S
C1834 H1838 0.950 . S
C1834 C1843 1.415 . S
C1835 C1834 1.387 . S
C1835 C1837 1.387 . S
H1836 C1843 0.937 1_455 S
C1837 C1835 1.387 . S
C1837 C1839 1.390 . S
C1837 H1841 0.950 . S
H1838 C1834 0.950 . S
C1839 C1837 1.390 . S
C1839 C1840 1.387 1_655 S
C1839 H1842 0.950 1_655 S
C1840 C1839 1.387 1_455 S
C1840 C1843 1.377 1_455 S
H1841 C1837 0.950 . S
H1842 C1839 0.950 1_455 S
C1843 C1834 1.415 . S
C1843 H1836 0.937 1_655 S
C1843 C1840 1.377 1_655 S
C1844 C1845 1.386 1_455 S
C1844 H1848 0.947 1_455 S
C1844 C1853 1.395 . S
C1845 C1844 1.386 1_655 S
C1845 C1847 1.387 1_655 S
H1846 C1853 0.950 . S
C1847 C1845 1.387 1_455 S
C1847 C1849 1.390 . S
C1847 H1851 0.941 1_455 S
H1848 C1844 0.947 1_655 S
C1849 C1847 1.390 . S
C1849 C1850 1.387 . S
C1849 H1852 0.950 . S
C1850 C1849 1.387 . S
C1850 C1853 1.387 . S
H1851 C1847 0.941 1_655 S
H1852 C1849 0.950 . S
C1853 C1844 1.395 . S
C1853 H1846 0.950 . S
C1853 C1850 1.387 . S
C1854 C1855 1.387 1_455 S
C1854 H1858 0.950 . S
C1854 C1863 1.390 . S
C1855 C1854 1.387 1_655 S
C1855 C1857 1.387 . S
H1856 C1863 0.950 . S
C1857 C1855 1.387 . S
C1857 C1859 1.390 . S
C1857 H1861 0.950 . S
H1858 C1854 0.950 . S
C1859 C1857 1.390 . S
C1859 C1860 1.387 1_655 S
C1859 H1862 0.950 . S
C1860 C1859 1.387 1_455 S
C1860 C1863 1.387 . S
H1861 C1857 0.950 . S
H1862 C1859 0.950 . S
C1863 C1854 1.390 . S
C1863 H1856 0.950 . S
C1863 C1860 1.387 . S
C1864 C1865 1.387 1_655 S
C1864 H1868 0.950 . S
C1864 C1873 1.390 . S
C1865 C1864 1.387 1_455 S
C1865 C1867 1.387 . S
H1866 C1873 0.950 . S
C1867 C1865 1.387 . S
C1867 C1869 1.390 1_455 S
C1867 H1871 0.950 . S
H1868 C1864 0.950 . S
C1869 C1867 1.390 1_655 S
C1869 C1870 1.387 . S
C1869 H1872 0.950 . S
C1870 C1869 1.387 . S
C1870 C1873 1.387 . S
H1871 C1867 0.950 . S
H1872 C1869 0.950 . S
C1873 C1864 1.390 . S
C1873 H1866 0.950 . S
C1873 C1870 1.387 . S
C1874 C1875 1.387 . S
C1874 H1878 0.950 . S
C1874 C1883 1.390 . S
C1875 C1874 1.387 . S
C1875 C1877 1.387 . S
H1876 C1883 0.950 . S
C1877 C1875 1.387 . S
C1877 C1879 1.390 . S
C1877 H1881 0.950 . S
H1878 C1874 0.950 . S
C1879 C1877 1.390 . S
C1879 C1880 1.387 . S
C1879 H1882 0.950 . S
C1880 C1879 1.387 . S
C1880 C1883 1.387 . S
H1881 C1877 0.950 . S
H1882 C1879 0.950 . S
C1883 C1874 1.390 . S
C1883 H1876 0.950 . S
C1883 C1880 1.387 . S
C1884 C1885 1.387 1_455 S
C1884 H1888 0.950 1_455 S
C1884 C1893 1.390 . S
C1885 C1884 1.387 1_655 S
C1885 C1887 1.376 1_655 S
H1886 C1893 0.950 . S
C1887 C1885 1.376 1_455 S
C1887 C1889 1.419 . S
C1887 H1891 0.935 1_455 S
H1888 C1884 0.950 1_655 S
C1889 C1887 1.419 . S
C1889 C1890 1.387 . S
C1889 H1892 0.950 . S
C1890 C1889 1.387 . S
C1890 C1893 1.387 . S
H1891 C1887 0.935 1_655 S
H1892 C1889 0.950 . S
C1893 C1884 1.390 . S
C1893 H1886 0.950 . S
C1893 C1890 1.387 . S
C1894 C1895 1.387 . S
C1894 H1898 0.950 . S
C1894 C1903 1.390 . S
C1895 C1894 1.387 . S
C1895 C1897 1.387 . S
H1896 C1903 0.950 . S
C1897 C1895 1.387 . S
C1897 C1899 1.390 . S
C1897 H1901 0.950 . S
H1898 C1894 0.950 . S
C1899 C1897 1.390 . S
C1899 C1900 1.387 . S
C1899 H1902 0.950 . S
C1900 C1899 1.387 . S
C1900 C1903 1.387 . S
H1901 C1897 0.950 . S
H1902 C1899 0.950 . S
C1903 C1894 1.390 . S
C1903 H1896 0.950 . S
C1903 C1900 1.387 . S
C1904 C1905 1.387 . S
C1904 H1908 0.950 . S
C1904 C1913 1.390 1_545 S
C1905 C1904 1.387 . S
C1905 C1907 1.387 1_545 S
H1906 C1913 0.950 . S
C1907 C1905 1.387 1_565 S
C1907 C1909 1.390 . S
C1907 H1911 0.950 . S
H1908 C1904 0.950 . S
C1909 C1907 1.390 . S
C1909 C1910 1.387 . S
C1909 H1912 0.950 . S
C1910 C1909 1.387 . S
C1910 C1913 1.387 . S
H1911 C1907 0.950 . S
H1912 C1909 0.950 . S
C1913 C1904 1.390 1_565 S
C1913 H1906 0.950 . S
C1913 C1910 1.387 . S
C1914 C1915 1.387 . S
C1914 H1918 0.950 . S
C1914 C1923 1.390 . S
C1915 C1914 1.387 . S
C1915 C1917 1.387 . S
H1916 C1923 0.950 . S
C1917 C1915 1.387 . S
C1917 C1919 1.390 . S
C1917 H1921 0.950 . S
H1918 C1914 0.950 . S
C1919 C1917 1.390 . S
C1919 C1920 1.387 . S
C1919 H1922 0.950 . S
C1920 C1919 1.387 . S
C1920 C1923 1.387 . S
H1921 C1917 0.950 . S
H1922 C1919 0.950 . S
C1923 C1914 1.390 . S
C1923 H1916 0.950 . S
C1923 C1920 1.387 . S
C1924 C1925 1.387 . S
C1924 H1928 0.950 . S
C1924 C1933 1.390 . S
C1925 C1924 1.387 . S
C1925 C1927 1.387 . S
H1926 C1933 0.950 . S
C1927 C1925 1.387 . S
C1927 C1929 1.390 . S
C1927 H1931 0.950 . S
H1928 C1924 0.950 . S
C1929 C1927 1.390 . S
C1929 C1930 1.387 . S
C1929 H1932 0.950 . S
C1930 C1929 1.387 . S
C1930 C1933 1.387 . S
H1931 C1927 0.950 . S
H1932 C1929 0.950 . S
C1933 C1924 1.390 . S
C1933 H1926 0.950 . S
C1933 C1930 1.387 . S
C1934 C1935 1.387 . S
C1934 H1938 0.950 . S
C1934 C1943 1.390 . S
C1935 C1934 1.387 . S
C1935 C1937 1.410 . S
H1936 C1943 0.950 . S
C1937 C1935 1.410 . S
C1937 C1939 1.376 1_554 S
C1937 H1941 0.942 1_554 S
H1938 C1934 0.950 . S
C1939 C1937 1.376 1_556 S
C1939 C1940 1.387 . S
C1939 H1942 0.950 . S
C1940 C1939 1.387 . S
C1940 C1943 1.387 1_556 S
H1941 C1937 0.942 1_556 S
H1942 C1939 0.950 . S
C1943 C1934 1.390 . S
C1943 H1936 0.950 . S
C1943 C1940 1.387 1_554 S
C1944 C1945 1.387 . S
C1944 H1948 0.950 . S
C1944 C1953 1.390 . S
C1945 C1944 1.387 . S
C1945 C1947 1.406 . S
H1946 C1953 0.950 . S
C1947 C1945 1.406 . S
C1947 C1949 1.378 1_545 S
C1947 H1951 0.943 1_545 S
H1948 C1944 0.950 . S
C1949 C1947 1.378 1_565 S
C1949 C1950 1.387 . S
C1949 H1952 0.950 . S
C1950 C1949 1.387 . S
C1950 C1953 1.387 1_565 S
H1951 C1947 0.943 1_565 S
H1952 C1949 0.950 . S
C1953 C1944 1.390 . S
C1953 H1946 0.950 . S
C1953 C1950 1.387 1_545 S
C1954 C1955 1.387 . S
C1954 H1958 0.950 . S
C1954 C1963 1.396 . S
C1955 C1954 1.387 . S
C1955 C1957 1.387 1_554 S
H1956 C1963 0.953 . S
C1957 C1955 1.387 1_556 S
C1957 C1959 1.390 . S
C1957 H1961 0.950 . S
H1958 C1954 0.950 . S
C1959 C1957 1.390 . S
C1959 C1960 1.387 . S
C1959 H1962 0.950 . S
C1960 C1959 1.387 . S
C1960 C1963 1.378 1_556 S
H1961 C1957 0.950 . S
H1962 C1959 0.950 . S
C1963 C1954 1.396 . S
C1963 H1956 0.953 . S
C1963 C1960 1.378 1_554 S
C1964 C1965 1.387 . S
C1964 H1968 0.950 . S
C1964 C1973 1.390 . S
C1965 C1964 1.387 . S
C1965 C1967 1.387 . S
H1966 C1973 0.950 . S
C1967 C1965 1.387 . S
C1967 C1969 1.390 . S
C1967 H1971 0.950 . S
H1968 C1964 0.950 . S
C1969 C1967 1.390 . S
C1969 C1970 1.387 . S
C1969 H1972 0.950 . S
C1970 C1969 1.387 . S
C1970 C1973 1.387 . S
H1971 C1967 0.950 . S
H1972 C1969 0.950 . S
C1973 C1964 1.390 . S
C1973 H1966 0.950 . S
C1973 C1970 1.387 . S
C1974 C1975 1.387 . S
C1974 H1978 0.950 . S
C1974 C1983 1.390 . S
C1975 C1974 1.387 . S
C1975 C1977 1.387 . S
H1976 C1983 0.950 . S
C1977 C1975 1.387 . S
C1977 C1979 1.390 . S
C1977 H1981 0.950 . S
H1978 C1974 0.950 . S
C1979 C1977 1.390 . S
C1979 C1980 1.387 . S
C1979 H1982 0.950 . S
C1980 C1979 1.387 . S
C1980 C1983 1.387 . S
H1981 C1977 0.950 . S
H1982 C1979 0.950 . S
C1983 C1974 1.390 . S
C1983 H1976 0.950 . S
C1983 C1980 1.387 . S
C1984 C1985 1.387 . S
C1984 H1988 0.950 1_556 S
C1984 C1993 1.390 1_556 S
C1985 C1984 1.387 . S
C1985 C1987 1.387 . S
H1986 C1993 0.950 . S
C1987 C1985 1.387 . S
C1987 C1989 1.390 . S
C1987 H1991 0.950 . S
H1988 C1984 0.950 1_554 S
C1989 C1987 1.390 . S
C1989 C1990 1.387 1_556 S
C1989 H1992 0.950 . S
C1990 C1989 1.387 1_554 S
C1990 C1993 1.387 . S
H1991 C1987 0.950 . S
H1992 C1989 0.950 . S
C1993 C1984 1.390 1_554 S
C1993 H1986 0.950 . S
C1993 C1990 1.387 . S
C1994 C1995 1.387 . S
C1994 H1998 0.950 . S
C1994 C2003 1.390 . S
C1995 C1994 1.387 . S
C1995 C1997 1.387 . S
H1996 C2003 0.950 . S
C1997 C1995 1.387 . S
C1997 C1999 1.390 . S
C1997 H2001 0.950 . S
H1998 C1994 0.950 . S
C1999 C1997 1.390 . S
C1999 C2000 1.387 . S
C1999 H2002 0.950 . S
C2000 C1999 1.387 . S
C2000 C2003 1.387 . S
H2001 C1997 0.950 . S
H2002 C1999 0.950 . S
C2003 C1994 1.390 . S
C2003 H1996 0.950 . S
C2003 C2000 1.387 . S
C2004 C2005 1.387 . S
C2004 H2008 0.950 . S
C2004 C2013 1.390 . S
C2005 C2004 1.387 . S
C2005 C2007 1.387 . S
H2006 C2013 0.950 . S
C2007 C2005 1.387 . S
C2007 C2009 1.390 1_545 S
C2007 H2011 0.950 . S
H2008 C2004 0.950 . S
C2009 C2007 1.390 1_565 S
C2009 C2010 1.387 . S
C2009 H2012 0.950 . S
C2010 C2009 1.387 . S
C2010 C2013 1.387 1_565 S
H2011 C2007 0.950 . S
H2012 C2009 0.950 . S
C2013 C2004 1.390 . S
C2013 H2006 0.950 . S
C2013 C2010 1.387 1_545 S
C2014 C2015 1.387 1_554 S
C2014 H2018 0.950 . S
C2014 C2023 1.390 . S
C2015 C2014 1.387 1_556 S
C2015 C2017 1.387 . S
H2016 C2023 0.950 . S
C2017 C2015 1.387 . S
C2017 C2019 1.390 1_556 S
C2017 H2021 0.950 . S
H2018 C2014 0.950 . S
C2019 C2017 1.390 1_554 S
C2019 C2020 1.387 . S
C2019 H2022 0.950 . S
C2020 C2019 1.387 . S
C2020 C2023 1.387 . S
H2021 C2017 0.950 . S
H2022 C2019 0.950 . S
C2023 C2014 1.390 . S
C2023 H2016 0.950 . S
C2023 C2020 1.387 . S
C2024 C2025 1.387 1_556 S
C2024 H2028 0.950 . S
C2024 C2033 1.390 . S
C2025 C2024 1.387 1_554 S
C2025 C2027 1.387 . S
H2026 C2033 0.950 . S
C2027 C2025 1.387 . S
C2027 C2029 1.390 1_554 S
C2027 H2031 0.950 . S
H2028 C2024 0.950 . S
C2029 C2027 1.390 1_556 S
C2029 C2030 1.387 . S
C2029 H2032 0.950 . S
C2030 C2029 1.387 . S
C2030 C2033 1.387 . S
H2031 C2027 0.950 . S
H2032 C2029 0.950 . S
C2033 C2024 1.390 . S
C2033 H2026 0.950 . S
C2033 C2030 1.387 . S
C2034 C2035 1.387 . S
C2034 H2038 0.950 . S
C2034 C2043 1.390 . S
C2035 C2034 1.387 . S
C2035 C2037 1.387 . S
H2036 C2043 0.950 . S
C2037 C2035 1.387 . S
C2037 C2039 1.390 . S
C2037 H2041 0.950 . S
H2038 C2034 0.950 . S
C2039 C2037 1.390 . S
C2039 C2040 1.387 . S
C2039 H2042 0.950 . S
C2040 C2039 1.387 . S
C2040 C2043 1.387 . S
H2041 C2037 0.950 . S
H2042 C2039 0.950 . S
C2043 C2034 1.390 . S
C2043 H2036 0.950 . S
C2043 C2040 1.387 . S
C2044 C2045 1.387 1_545 S
C2044 H2048 0.950 . S
C2044 C2053 1.390 . S
C2045 C2044 1.387 1_565 S
C2045 C2047 1.387 . S
H2046 C2053 0.950 . S
C2047 C2045 1.387 . S
C2047 C2049 1.390 1_565 S
C2047 H2051 0.950 . S
H2048 C2044 0.950 . S
C2049 C2047 1.390 1_545 S
C2049 C2050 1.387 . S
C2049 H2052 0.950 . S
C2050 C2049 1.387 . S
C2050 C2053 1.387 . S
H2051 C2047 0.950 . S
H2052 C2049 0.950 . S
C2053 C2044 1.390 . S
C2053 H2046 0.950 . S
C2053 C2050 1.387 . S
C2054 C2055 1.387 . S
C2054 H2058 0.950 . S
C2054 C2063 1.390 1_455 S
C2055 C2054 1.387 . S
C2055 C2057 1.387 1_455 S
H2056 C2063 0.950 . S
C2057 C2055 1.387 1_655 S
C2057 C2059 1.390 . S
C2057 H2061 0.950 . S
H2058 C2054 0.950 . S
C2059 C2057 1.390 . S
C2059 C2060 1.387 . S
C2059 H2062 0.950 . S
C2060 C2059 1.387 . S
C2060 C2063 1.387 . S
H2061 C2057 0.950 . S
H2062 C2059 0.950 . S
C2063 C2054 1.390 1_655 S
C2063 H2056 0.950 . S
C2063 C2060 1.387 . S
C2064 C2065 1.387 . S
C2064 H2068 0.950 . S
C2064 C2073 1.390 1_455 S
C2065 C2064 1.387 . S
C2065 C2067 1.387 . S
H2066 C2073 0.950 . S
C2067 C2065 1.387 . S
C2067 C2069 1.390 . S
C2067 H2071 0.950 . S
H2068 C2064 0.950 . S
C2069 C2067 1.390 . S
C2069 C2070 1.387 1_455 S
C2069 H2072 0.950 . S
C2070 C2069 1.387 1_655 S
C2070 C2073 1.387 . S
H2071 C2067 0.950 . S
H2072 C2069 0.950 . S
C2073 C2064 1.390 1_655 S
C2073 H2066 0.950 . S
C2073 C2070 1.387 . S
C2074 C2075 1.387 . S
C2074 H2078 0.950 . S
C2074 C2083 1.390 . S
C2075 C2074 1.387 . S
C2075 C2077 1.387 . S
H2076 C2083 0.950 . S
C2077 C2075 1.387 . S
C2077 C2079 1.390 . S
C2077 H2081 0.950 . S
H2078 C2074 0.950 . S
C2079 C2077 1.390 . S
C2079 C2080 1.387 . S
C2079 H2082 0.950 . S
C2080 C2079 1.387 . S
C2080 C2083 1.387 . S
H2081 C2077 0.950 . S
H2082 C2079 0.950 . S
C2083 C2074 1.390 . S
C2083 H2076 0.950 . S
C2083 C2080 1.387 . S
C2084 C2085 1.387 . S
C2084 H2088 0.950 . S
C2084 C2093 1.390 . S
C2085 C2084 1.387 . S
C2085 C2087 1.387 . S
H2086 C2093 0.950 . S
C2087 C2085 1.387 . S
C2087 C2089 1.390 . S
C2087 H2091 0.950 . S
H2088 C2084 0.950 . S
C2089 C2087 1.390 . S
C2089 C2090 1.387 . S
C2089 H2092 0.950 . S
C2090 C2089 1.387 . S
C2090 C2093 1.387 . S
H2091 C2087 0.950 . S
H2092 C2089 0.950 . S
C2093 C2084 1.390 . S
C2093 H2086 0.950 . S
C2093 C2090 1.387 . S
C2094 C2095 1.387 . S
C2094 H2098 0.950 . S
C2094 C2103 1.390 . S
C2095 C2094 1.387 . S
C2095 C2097 1.387 . S
H2096 C2103 0.950 . S
C2097 C2095 1.387 . S
C2097 C2099 1.390 . S
C2097 H2101 0.950 . S
H2098 C2094 0.950 . S
C2099 C2097 1.390 . S
C2099 C2100 1.387 . S
C2099 H2102 0.950 . S
C2100 C2099 1.387 . S
C2100 C2103 1.387 . S
H2101 C2097 0.950 . S
H2102 C2099 0.950 . S
C2103 C2094 1.390 . S
C2103 H2096 0.950 . S
C2103 C2100 1.387 . S
C2104 C2105 1.387 . S
C2104 H2108 0.950 1_554 S
C2104 C2113 1.390 1_554 S
C2105 C2104 1.387 . S
C2105 C2107 1.387 . S
H2106 C2113 0.950 . S
C2107 C2105 1.387 . S
C2107 C2109 1.390 . S
C2107 H2111 0.950 . S
H2108 C2104 0.950 1_556 S
C2109 C2107 1.390 . S
C2109 C2110 1.387 1_554 S
C2109 H2112 0.950 . S
C2110 C2109 1.387 1_556 S
C2110 C2113 1.387 . S
H2111 C2107 0.950 . S
H2112 C2109 0.950 . S
C2113 C2104 1.390 1_556 S
C2113 H2106 0.950 . S
C2113 C2110 1.387 . S
C2114 C2115 1.387 1_545 S
C2114 H2118 0.950 . S
C2114 C2123 1.390 . S
C2115 C2114 1.387 1_565 S
C2115 C2117 1.387 . S
H2116 C2123 0.950 . S
C2117 C2115 1.387 . S
C2117 C2119 1.390 1_565 S
C2117 H2121 0.950 . S
H2118 C2114 0.950 . S
C2119 C2117 1.390 1_545 S
C2119 C2120 1.387 . S
C2119 H2122 0.957 . S
C2120 C2119 1.387 . S
C2120 C2123 1.387 . S
H2121 C2117 0.950 . S
H2122 C2119 0.957 . S
C2123 C2114 1.390 . S
C2123 H2116 0.950 . S
C2123 C2120 1.387 . S
C2124 C2125 1.387 . S
C2124 H2128 0.950 . S
C2124 C2133 1.390 . S
C2125 C2124 1.387 . S
C2125 C2127 1.387 . S
H2126 C2133 0.950 . S
C2127 C2125 1.387 . S
C2127 C2129 1.390 . S
C2127 H2131 0.950 . S
H2128 C2124 0.950 . S
C2129 C2127 1.390 . S
C2129 C2130 1.387 . S
C2129 H2132 0.950 . S
C2130 C2129 1.387 . S
C2130 C2133 1.387 . S
H2131 C2127 0.950 . S
H2132 C2129 0.950 . S
C2133 C2124 1.390 . S
C2133 H2126 0.950 . S
C2133 C2130 1.387 . S
C2134 C2135 1.387 . S
C2134 H2138 0.950 . S
C2134 C2143 1.390 . S
C2135 C2134 1.387 . S
C2135 C2137 1.387 . S
H2136 C2143 0.950 . S
C2137 C2135 1.387 . S
C2137 C2139 1.390 . S
C2137 H2141 0.950 . S
H2138 C2134 0.950 . S
C2139 C2137 1.390 . S
C2139 C2140 1.387 . S
C2139 H2142 0.950 . S
C2140 C2139 1.387 . S
C2140 C2143 1.387 . S
H2141 C2137 0.950 . S
H2142 C2139 0.950 . S
C2143 C2134 1.390 . S
C2143 H2136 0.950 . S
C2143 C2140 1.387 . S
C2144 C2145 1.387 . S
C2144 H2148 0.950 . S
C2144 C2153 1.390 . S
C2145 C2144 1.387 . S
C2145 C2147 1.387 . S
H2146 C2153 0.950 . S
C2147 C2145 1.387 . S
C2147 C2149 1.390 . S
C2147 H2151 0.950 . S
H2148 C2144 0.950 . S
C2149 C2147 1.390 . S
C2149 C2150 1.387 . S
C2149 H2152 0.950 . S
C2150 C2149 1.387 . S
C2150 C2153 1.387 . S
H2151 C2147 0.950 . S
H2152 C2149 0.950 . S
C2153 C2144 1.390 . S
C2153 H2146 0.950 . S
C2153 C2150 1.387 . S
C2154 C2155 1.387 . S
C2154 H2158 0.950 . S
C2154 C2163 1.390 1_565 S
C2155 C2154 1.387 . S
C2155 C2157 1.387 . S
H2156 C2163 0.950 . S
C2157 C2155 1.387 . S
C2157 C2159 1.390 . S
C2157 H2161 0.950 . S
H2158 C2154 0.950 . S
C2159 C2157 1.390 . S
C2159 C2160 1.387 1_565 S
C2159 H2162 0.950 . S
C2160 C2159 1.387 1_545 S
C2160 C2163 1.387 . S
H2161 C2157 0.950 . S
H2162 C2159 0.950 . S
C2163 C2154 1.390 1_545 S
C2163 H2156 0.950 . S
C2163 C2160 1.387 . S
C2164 C2165 1.387 . S
C2164 H2168 0.950 . S
C2164 C2173 1.390 1_554 S
C2165 C2164 1.387 . S
C2165 C2167 1.387 1_554 S
H2166 C2173 0.950 1_554 S
C2167 C2165 1.387 1_556 S
C2167 C2169 1.390 . S
C2167 H2171 0.950 . S
H2168 C2164 0.950 . S
C2169 C2167 1.390 . S
C2169 C2170 1.387 . S
C2169 H2172 0.950 . S
C2170 C2169 1.387 . S
C2170 C2173 1.387 . S
H2171 C2167 0.950 . S
H2172 C2169 0.950 . S
C2173 C2164 1.390 1_556 S
C2173 H2166 0.950 1_556 S
C2173 C2170 1.387 . S
C2174 C2175 1.387 . S
C2174 H2178 0.950 . S
C2174 C2183 1.390 . S
C2175 C2174 1.387 . S
C2175 C2177 1.387 . S
H2176 C2183 0.950 . S
C2177 C2175 1.387 . S
C2177 C2179 1.390 . S
C2177 H2181 0.950 . S
H2178 C2174 0.950 . S
C2179 C2177 1.390 . S
C2179 C2180 1.387 . S
C2179 H2182 0.950 . S
C2180 C2179 1.387 . S
C2180 C2183 1.387 . S
H2181 C2177 0.950 . S
H2182 C2179 0.950 . S
C2183 C2174 1.390 . S
C2183 H2176 0.950 . S
C2183 C2180 1.387 . S
C2184 C2185 1.387 1_554 S
C2184 H2188 0.950 . S
C2184 C2193 1.390 . S
C2185 C2184 1.387 1_556 S
C2185 C2187 1.387 . S
H2186 C2193 0.950 . S
C2187 C2185 1.387 . S
C2187 C2189 1.390 1_556 S
C2187 H2191 0.950 . S
H2188 C2184 0.950 . S
C2189 C2187 1.390 1_554 S
C2189 C2190 1.387 . S
C2189 H2192 0.950 . S
C2190 C2189 1.387 . S
C2190 C2193 1.387 . S
H2191 C2187 0.950 . S
H2192 C2189 0.950 . S
C2193 C2184 1.390 . S
C2193 H2186 0.950 . S
C2193 C2190 1.387 . S
C2194 C2195 1.387 . S
C2194 H2198 0.950 . S
C2194 C2203 1.390 . S
C2195 C2194 1.387 . S
C2195 C2197 1.387 . S
H2196 C2203 0.950 . S
C2197 C2195 1.387 . S
C2197 C2199 1.390 . S
C2197 H2201 0.950 . S
H2198 C2194 0.950 . S
C2199 C2197 1.390 . S
C2199 C2200 1.387 . S
C2199 H2202 0.950 . S
C2200 C2199 1.387 . S
C2200 C2203 1.387 . S
H2201 C2197 0.950 . S
H2202 C2199 0.950 . S
C2203 C2194 1.390 . S
C2203 H2196 0.950 . S
C2203 C2200 1.387 . S
C2204 C2205 1.387 . S
C2204 H2208 0.950 . S
C2204 C2213 1.390 . S
C2205 C2204 1.387 . S
C2205 C2207 1.387 . S
H2206 C2213 0.950 . S
C2207 C2205 1.387 . S
C2207 C2209 1.390 . S
C2207 H2211 0.950 . S
H2208 C2204 0.950 . S
C2209 C2207 1.390 . S
C2209 C2210 1.387 . S
C2209 H2212 0.950 . S
C2210 C2209 1.387 . S
C2210 C2213 1.387 . S
H2211 C2207 0.950 . S
H2212 C2209 0.950 . S
C2213 C2204 1.390 . S
C2213 H2206 0.950 . S
C2213 C2210 1.387 . S
C2214 C2215 1.387 . S
C2214 H2218 0.950 . S
C2214 C2223 1.390 . S
C2215 C2214 1.387 . S
C2215 C2217 1.387 . S
H2216 C2223 0.950 . S
C2217 C2215 1.387 . S
C2217 C2219 1.390 . S
C2217 H2221 0.950 . S
H2218 C2214 0.950 . S
C2219 C2217 1.390 . S
C2219 C2220 1.387 . S
C2219 H2222 0.950 . S
C2220 C2219 1.387 . S
C2220 C2223 1.387 . S
H2221 C2217 0.950 . S
H2222 C2219 0.950 . S
C2223 C2214 1.390 . S
C2223 H2216 0.950 . S
C2223 C2220 1.387 . S
C2224 C2225 1.387 1_565 S
C2224 H2228 0.950 . S
C2224 C2233 1.390 . S
C2225 C2224 1.387 1_545 S
C2225 C2227 1.396 . S
H2226 C2233 0.950 . S
C2227 C2225 1.396 . S
C2227 C2229 1.365 1_545 S
C2227 H2231 0.969 . S
H2228 C2224 0.950 . S
C2229 C2227 1.365 1_565 S
C2229 C2230 1.387 . S
C2229 H2232 0.950 . S
C2230 C2229 1.387 . S
C2230 C2233 1.387 . S
H2231 C2227 0.969 . S
H2232 C2229 0.950 . S
C2233 C2224 1.390 . S
C2233 H2226 0.950 . S
C2233 C2230 1.387 . S
C2234 C2235 1.387 . S
C2234 H2238 0.950 . S
C2234 C2243 1.390 . S
C2235 C2234 1.387 . S
C2235 C2237 1.387 . S
H2236 C2243 0.950 . S
C2237 C2235 1.387 . S
C2237 C2239 1.390 . S
C2237 H2241 0.950 . S
H2238 C2234 0.950 . S
C2239 C2237 1.390 . S
C2239 C2240 1.387 . S
C2239 H2242 0.950 . S
C2240 C2239 1.387 . S
C2240 C2243 1.387 . S
H2241 C2237 0.950 . S
H2242 C2239 0.950 . S
C2243 C2234 1.390 . S
C2243 H2236 0.950 . S
C2243 C2240 1.387 . S
C2244 C2245 1.387 . S
C2244 H2248 0.950 . S
C2244 C2253 1.390 . S
C2245 C2244 1.387 . S
C2245 C2247 1.387 . S
H2246 C2253 0.950 . S
C2247 C2245 1.387 . S
C2247 C2249 1.390 . S
C2247 H2251 0.950 . S
H2248 C2244 0.950 . S
C2249 C2247 1.390 . S
C2249 C2250 1.387 . S
C2249 H2252 0.950 . S
C2250 C2249 1.387 . S
C2250 C2253 1.387 . S
H2251 C2247 0.950 . S
H2252 C2249 0.950 . S
C2253 C2244 1.390 . S
C2253 H2246 0.950 . S
C2253 C2250 1.387 . S
C2254 C2255 1.387 . S
C2254 H2258 0.950 . S
C2254 C2263 1.390 . S
C2255 C2254 1.387 . S
C2255 C2257 1.387 . S
H2256 C2263 0.950 . S
C2257 C2255 1.387 . S
C2257 C2259 1.390 . S
C2257 H2261 0.950 . S
H2258 C2254 0.950 . S
C2259 C2257 1.390 . S
C2259 C2260 1.387 . S
C2259 H2262 0.950 . S
C2260 C2259 1.387 . S
C2260 C2263 1.387 . S
H2261 C2257 0.950 . S
H2262 C2259 0.950 . S
C2263 C2254 1.390 . S
C2263 H2256 0.950 . S
C2263 C2260 1.387 . S
C2264 C2265 1.387 . S
C2264 H2268 0.950 . S
C2264 C2273 1.390 . S
C2265 C2264 1.387 . S
C2265 C2267 1.387 . S
H2266 C2273 0.950 . S
C2267 C2265 1.387 . S
C2267 C2269 1.390 . S
C2267 H2271 0.950 . S
H2268 C2264 0.950 . S
C2269 C2267 1.390 . S
C2269 C2270 1.387 . S
C2269 H2272 0.950 . S
C2270 C2269 1.387 . S
C2270 C2273 1.387 . S
H2271 C2267 0.950 . S
H2272 C2269 0.950 . S
C2273 C2264 1.390 . S
C2273 H2266 0.950 . S
C2273 C2270 1.387 . S
C2274 C2275 1.387 . S
C2274 H2278 0.950 . S
C2274 C2283 1.390 . S
C2275 C2274 1.387 . S
C2275 C2277 1.387 . S
H2276 C2283 0.950 . S
C2277 C2275 1.387 . S
C2277 C2279 1.390 . S
C2277 H2281 0.950 . S
H2278 C2274 0.950 . S
C2279 C2277 1.390 . S
C2279 C2280 1.387 . S
C2279 H2282 0.950 . S
C2280 C2279 1.387 . S
C2280 C2283 1.387 . S
H2281 C2277 0.950 . S
H2282 C2279 0.950 . S
C2283 C2274 1.390 . S
C2283 H2276 0.950 . S
C2283 C2280 1.387 . S
C2284 C2285 1.349 1_545 S
C2284 H2288 0.966 . S
C2284 C2293 1.413 . S
C2285 C2284 1.349 1_565 S
C2285 C2287 1.387 . S
H2286 C2293 0.950 . S
C2287 C2285 1.387 . S
C2287 C2289 1.390 . S
C2287 H2291 0.950 . S
H2288 C2284 0.966 . S
C2289 C2287 1.390 . S
C2289 C2290 1.387 1_565 S
C2289 H2292 0.950 . S
C2290 C2289 1.387 1_545 S
C2290 C2293 1.387 . S
H2291 C2287 0.950 . S
H2292 C2289 0.950 . S
C2293 C2284 1.413 . S
C2293 H2286 0.950 . S
C2293 C2290 1.387 . S
C2294 C2295 1.387 . S
C2294 H2298 0.950 . S
C2294 C2303 1.390 . S
C2295 C2294 1.387 . S
C2295 C2297 1.387 . S
H2296 C2303 0.950 . S
C2297 C2295 1.387 . S
C2297 C2299 1.390 . S
C2297 H2301 0.950 . S
H2298 C2294 0.950 . S
C2299 C2297 1.390 . S
C2299 C2300 1.387 . S
C2299 H2302 0.950 . S
C2300 C2299 1.387 . S
C2300 C2303 1.387 . S
H2301 C2297 0.950 . S
H2302 C2299 0.950 . S
C2303 C2294 1.390 . S
C2303 H2296 0.950 . S
C2303 C2300 1.387 . S
C2304 C2305 1.387 . S
C2304 H2308 0.950 . S
C2304 C2313 1.390 . S
C2305 C2304 1.387 . S
C2305 C2307 1.387 . S
H2306 C2313 0.950 . S
C2307 C2305 1.387 . S
C2307 C2309 1.390 . S
C2307 H2311 0.950 . S
H2308 C2304 0.950 . S
C2309 C2307 1.390 . S
C2309 C2310 1.387 . S
C2309 H2312 0.950 . S
C2310 C2309 1.387 . S
C2310 C2313 1.387 . S
H2311 C2307 0.950 . S
H2312 C2309 0.950 . S
C2313 C2304 1.390 . S
C2313 H2306 0.950 . S
C2313 C2310 1.387 . S
C2314 C2315 1.387 . S
C2314 H2318 0.950 . S
C2314 C2323 1.390 . S
C2315 C2314 1.387 . S
C2315 C2317 1.387 . S
H2316 C2323 0.950 . S
C2317 C2315 1.387 . S
C2317 C2319 1.390 . S
C2317 H2321 0.950 . S
H2318 C2314 0.950 . S
C2319 C2317 1.390 . S
C2319 C2320 1.387 . S
C2319 H2322 0.950 . S
C2320 C2319 1.387 . S
C2320 C2323 1.387 . S
H2321 C2317 0.950 . S
H2322 C2319 0.950 . S
C2323 C2314 1.390 . S
C2323 H2316 0.950 . S
C2323 C2320 1.387 . S
C2324 C2325 1.387 . S
C2324 H2328 0.950 . S
C2324 C2333 1.390 . S
C2325 C2324 1.387 . S
C2325 C2327 1.387 . S
H2326 C2333 0.950 . S
C2327 C2325 1.387 . S
C2327 C2329 1.390 . S
C2327 H2331 0.950 . S
H2328 C2324 0.950 . S
C2329 C2327 1.390 . S
C2329 C2330 1.387 . S
C2329 H2332 0.950 . S
C2330 C2329 1.387 . S
C2330 C2333 1.387 . S
H2331 C2327 0.950 . S
H2332 C2329 0.950 . S
C2333 C2324 1.390 . S
C2333 H2326 0.950 . S
C2333 C2330 1.387 . S
C2334 C2335 1.387 . S
C2334 H2338 0.950 . S
C2334 C2343 1.390 . S
C2335 C2334 1.387 . S
C2335 C2337 1.387 . S
H2336 C2343 0.950 . S
C2337 C2335 1.387 . S
C2337 C2339 1.390 . S
C2337 H2341 0.950 . S
H2338 C2334 0.950 . S
C2339 C2337 1.390 . S
C2339 C2340 1.387 . S
C2339 H2342 0.950 . S
C2340 C2339 1.387 . S
C2340 C2343 1.387 . S
H2341 C2337 0.950 . S
H2342 C2339 0.950 . S
C2343 C2334 1.390 . S
C2343 H2336 0.950 . S
C2343 C2340 1.387 . S
C2344 C2345 1.387 . S
C2344 H2348 0.950 . S
C2344 C2353 1.390 . S
C2345 C2344 1.387 . S
C2345 C2347 1.387 . S
H2346 C2353 0.950 . S
C2347 C2345 1.387 . S
C2347 C2349 1.390 . S
C2347 H2351 0.950 . S
H2348 C2344 0.950 . S
C2349 C2347 1.390 . S
C2349 C2350 1.387 . S
C2349 H2352 0.950 . S
C2350 C2349 1.387 . S
C2350 C2353 1.387 . S
H2351 C2347 0.950 . S
H2352 C2349 0.950 . S
C2353 C2344 1.390 . S
C2353 H2346 0.950 . S
C2353 C2350 1.387 . S
C2354 C2355 1.387 . S
C2354 H2358 0.950 . S
C2354 C2363 1.390 . S
C2355 C2354 1.387 . S
C2355 C2357 1.387 . S
H2356 C2363 0.950 . S
C2357 C2355 1.387 . S
C2357 C2359 1.390 . S
C2357 H2361 0.950 . S
H2358 C2354 0.950 . S
C2359 C2357 1.390 . S
C2359 C2360 1.387 . S
C2359 H2362 0.950 . S
C2360 C2359 1.387 . S
C2360 C2363 1.387 . S
H2361 C2357 0.950 . S
H2362 C2359 0.950 . S
C2363 C2354 1.390 . S
C2363 H2356 0.950 . S
C2363 C2360 1.387 . S
C2364 C2365 1.387 . S
C2364 H2368 0.950 . S
C2364 C2373 1.390 . S
C2365 C2364 1.387 . S
C2365 C2367 1.387 . S
H2366 C2373 0.950 . S
C2367 C2365 1.387 . S
C2367 C2369 1.390 . S
C2367 H2371 0.950 . S
H2368 C2364 0.950 . S
C2369 C2367 1.390 . S
C2369 C2370 1.387 . S
C2369 H2372 0.950 . S
C2370 C2369 1.387 . S
C2370 C2373 1.387 . S
H2371 C2367 0.950 . S
H2372 C2369 0.950 . S
C2373 C2364 1.390 . S
C2373 H2366 0.950 . S
C2373 C2370 1.387 . S
C2374 C2375 1.387 . S
C2374 H2378 0.950 . S
C2374 C2383 1.390 . S
C2375 C2374 1.387 . S
C2375 C2377 1.387 . S
H2376 C2383 0.950 . S
C2377 C2375 1.387 . S
C2377 C2379 1.390 . S
C2377 H2381 0.950 . S
H2378 C2374 0.950 . S
C2379 C2377 1.390 . S
C2379 C2380 1.387 . S
C2379 H2382 0.950 . S
C2380 C2379 1.387 . S
C2380 C2383 1.387 . S
H2381 C2377 0.950 . S
H2382 C2379 0.950 . S
C2383 C2374 1.390 . S
C2383 H2376 0.950 . S
C2383 C2380 1.387 . S
C2384 C2385 1.387 . S
C2384 H2388 0.950 . S
C2384 C2393 1.390 . S
C2385 C2384 1.387 . S
C2385 C2387 1.387 . S
H2386 C2393 0.950 . S
C2387 C2385 1.387 . S
C2387 C2389 1.390 . S
C2387 H2391 0.950 . S
H2388 C2384 0.950 . S
C2389 C2387 1.390 . S
C2389 C2390 1.387 . S
C2389 H2392 0.950 . S
C2390 C2389 1.387 . S
C2390 C2393 1.387 . S
H2391 C2387 0.950 . S
H2392 C2389 0.950 . S
C2393 C2384 1.390 . S
C2393 H2386 0.950 . S
C2393 C2390 1.387 . S
C2394 C2395 1.387 . S
C2394 H2398 0.950 . S
C2394 C2403 1.390 . S
C2395 C2394 1.387 . S
C2395 C2397 1.387 . S
H2396 C2403 0.950 . S
C2397 C2395 1.387 . S
C2397 C2399 1.390 . S
C2397 H2401 0.950 . S
H2398 C2394 0.950 . S
C2399 C2397 1.390 . S
C2399 C2400 1.387 . S
C2399 H2402 0.950 . S
C2400 C2399 1.387 . S
C2400 C2403 1.387 . S
H2401 C2397 0.950 . S
H2402 C2399 0.950 . S
C2403 C2394 1.390 . S
C2403 H2396 0.950 . S
C2403 C2400 1.387 . S
C2404 C2405 1.387 . S
C2404 H2408 0.950 . S
C2404 C2413 1.390 . S
C2405 C2404 1.387 . S
C2405 C2407 1.387 . S
H2406 C2413 0.950 . S
C2407 C2405 1.387 . S
C2407 C2409 1.390 . S
C2407 H2411 0.950 . S
H2408 C2404 0.950 . S
C2409 C2407 1.390 . S
C2409 C2410 1.387 . S
C2409 H2412 0.950 . S
C2410 C2409 1.387 . S
C2410 C2413 1.387 . S
H2411 C2407 0.950 . S
H2412 C2409 0.950 . S
C2413 C2404 1.390 . S
C2413 H2406 0.950 . S
C2413 C2410 1.387 . S
C2414 C2415 1.387 . S
C2414 H2418 0.950 . S
C2414 C2423 1.390 . S
C2415 C2414 1.387 . S
C2415 C2417 1.387 . S
H2416 C2423 0.950 . S
C2417 C2415 1.387 . S
C2417 C2419 1.390 . S
C2417 H2421 0.950 . S
H2418 C2414 0.950 . S
C2419 C2417 1.390 . S
C2419 C2420 1.387 . S
C2419 H2422 0.950 . S
C2420 C2419 1.387 . S
C2420 C2423 1.387 . S
H2421 C2417 0.950 . S
H2422 C2419 0.950 . S
C2423 C2414 1.390 . S
C2423 H2416 0.950 . S
C2423 C2420 1.387 . S
C2424 C2425 1.387 . S
C2424 H2428 0.950 . S
C2424 C2433 1.390 . S
C2425 C2424 1.387 . S
C2425 C2427 1.387 . S
H2426 C2433 0.950 . S
C2427 C2425 1.387 . S
C2427 C2429 1.390 . S
C2427 H2431 0.950 . S
H2428 C2424 0.950 . S
C2429 C2427 1.390 . S
C2429 C2430 1.387 . S
C2429 H2432 0.950 . S
C2430 C2429 1.387 . S
C2430 C2433 1.387 . S
H2431 C2427 0.950 . S
H2432 C2429 0.950 . S
C2433 C2424 1.390 . S
C2433 H2426 0.950 . S
C2433 C2430 1.387 . S
C2434 C2435 1.387 . S
C2434 H2438 0.950 . S
C2434 C2443 1.390 . S
C2435 C2434 1.387 . S
C2435 C2437 1.387 . S
H2436 C2443 0.950 . S
C2437 C2435 1.387 . S
C2437 C2439 1.390 . S
C2437 H2441 0.950 . S
H2438 C2434 0.950 . S
C2439 C2437 1.390 . S
C2439 C2440 1.387 . S
C2439 H2442 0.950 . S
C2440 C2439 1.387 . S
C2440 C2443 1.387 . S
H2441 C2437 0.950 . S
H2442 C2439 0.950 . S
C2443 C2434 1.390 . S
C2443 H2436 0.950 . S
C2443 C2440 1.387 . S
C2444 C2445 1.387 . S
C2444 H2448 0.950 . S
C2444 C2453 1.390 . S
C2445 C2444 1.387 . S
C2445 C2447 1.387 . S
H2446 C2453 0.950 . S
C2447 C2445 1.387 . S
C2447 C2449 1.390 . S
C2447 H2451 0.950 . S
H2448 C2444 0.950 . S
C2449 C2447 1.390 . S
C2449 C2450 1.387 . S
C2449 H2452 0.950 . S
C2450 C2449 1.387 . S
C2450 C2453 1.387 . S
H2451 C2447 0.950 . S
H2452 C2449 0.950 . S
C2453 C2444 1.390 . S
C2453 H2446 0.950 . S
C2453 C2450 1.387 . S
C2454 C2455 1.387 . S
C2454 H2458 0.950 . S
C2454 C2463 1.390 . S
C2455 C2454 1.387 . S
C2455 C2457 1.387 . S
H2456 C2463 0.950 . S
C2457 C2455 1.387 . S
C2457 C2459 1.390 . S
C2457 H2461 0.950 . S
H2458 C2454 0.950 . S
C2459 C2457 1.390 . S
C2459 C2460 1.387 . S
C2459 H2462 0.950 . S
C2460 C2459 1.387 . S
C2460 C2463 1.387 . S
H2461 C2457 0.950 . S
H2462 C2459 0.950 . S
C2463 C2454 1.390 . S
C2463 H2456 0.950 . S
C2463 C2460 1.387 . S
C2464 C2465 1.387 . S
C2464 H2468 0.950 . S
C2464 C2473 1.390 . S
C2465 C2464 1.387 . S
C2465 C2467 1.387 . S
H2466 C2473 0.950 . S
C2467 C2465 1.387 . S
C2467 C2469 1.390 . S
C2467 H2471 0.950 . S
H2468 C2464 0.950 . S
C2469 C2467 1.390 . S
C2469 C2470 1.387 . S
C2469 H2472 0.950 . S
C2470 C2469 1.387 . S
C2470 C2473 1.387 . S
H2471 C2467 0.950 . S
H2472 C2469 0.950 . S
C2473 C2464 1.390 . S
C2473 H2466 0.950 . S
C2473 C2470 1.387 . S
C2474 C2475 1.387 . S
C2474 H2478 0.950 . S
C2474 C2483 1.390 . S
C2475 C2474 1.387 . S
C2475 C2477 1.387 . S
H2476 C2483 0.950 . S
C2477 C2475 1.387 . S
C2477 C2479 1.390 . S
C2477 H2481 0.950 . S
H2478 C2474 0.950 . S
C2479 C2477 1.390 . S
C2479 C2480 1.387 . S
C2479 H2482 0.950 . S
C2480 C2479 1.387 . S
C2480 C2483 1.387 . S
H2481 C2477 0.950 . S
H2482 C2479 0.950 . S
C2483 C2474 1.390 . S
C2483 H2476 0.950 . S
C2483 C2480 1.387 . S
C2484 C2485 1.387 . S
C2484 H2488 0.950 . S
C2484 C2493 1.390 . S
C2485 C2484 1.387 . S
C2485 C2487 1.387 . S
H2486 C2493 0.950 . S
C2487 C2485 1.387 . S
C2487 C2489 1.390 . S
C2487 H2491 0.950 . S
H2488 C2484 0.950 . S
C2489 C2487 1.390 . S
C2489 C2490 1.387 . S
C2489 H2492 0.950 . S
C2490 C2489 1.387 . S
C2490 C2493 1.387 . S
H2491 C2487 0.950 . S
H2492 C2489 0.950 . S
C2493 C2484 1.390 . S
C2493 H2486 0.950 . S
C2493 C2490 1.387 . S
C2494 C2495 1.387 . S
C2494 H2498 0.950 . S
C2494 C2503 1.390 . S
C2495 C2494 1.387 . S
C2495 C2497 1.387 . S
H2496 C2503 0.950 . S
C2497 C2495 1.387 . S
C2497 C2499 1.390 . S
C2497 H2501 0.950 . S
H2498 C2494 0.950 . S
C2499 C2497 1.390 . S
C2499 C2500 1.387 . S
C2499 H2502 0.950 . S
C2500 C2499 1.387 . S
C2500 C2503 1.387 . S
H2501 C2497 0.950 . S
H2502 C2499 0.950 . S
C2503 C2494 1.390 . S
C2503 H2496 0.950 . S
C2503 C2500 1.387 . S
C2504 C2505 1.387 . S
C2504 H2508 0.950 . S
C2504 C2513 1.390 . S
C2505 C2504 1.387 . S
C2505 C2507 1.387 . S
H2506 C2513 0.950 . S
C2507 C2505 1.387 . S
C2507 C2509 1.390 . S
C2507 H2511 0.950 . S
H2508 C2504 0.950 . S
C2509 C2507 1.390 . S
C2509 C2510 1.387 . S
C2509 H2512 0.950 . S
C2510 C2509 1.387 . S
C2510 C2513 1.387 . S
H2511 C2507 0.950 . S
H2512 C2509 0.950 . S
C2513 C2504 1.390 . S
C2513 H2506 0.950 . S
C2513 C2510 1.387 . S
C2514 C2515 1.387 . S
C2514 H2518 0.950 . S
C2514 C2523 1.390 . S
C2515 C2514 1.387 . S
C2515 C2517 1.387 . S
H2516 C2523 0.950 . S
C2517 C2515 1.387 . S
C2517 C2519 1.390 . S
C2517 H2521 0.950 . S
H2518 C2514 0.950 . S
C2519 C2517 1.390 . S
C2519 C2520 1.387 . S
C2519 H2522 0.950 . S
C2520 C2519 1.387 . S
C2520 C2523 1.387 . S
H2521 C2517 0.950 . S
H2522 C2519 0.950 . S
C2523 C2514 1.390 . S
C2523 H2516 0.950 . S
C2523 C2520 1.387 . S
C2524 C2525 1.387 . S
C2524 H2528 0.950 . S
C2524 C2533 1.390 . S
C2525 C2524 1.387 . S
C2525 C2527 1.387 . S
H2526 C2533 0.950 . S
C2527 C2525 1.387 . S
C2527 C2529 1.390 . S
C2527 H2531 0.950 . S
H2528 C2524 0.950 . S
C2529 C2527 1.390 . S
C2529 C2530 1.387 . S
C2529 H2532 0.950 . S
C2530 C2529 1.387 . S
C2530 C2533 1.387 . S
H2531 C2527 0.950 . S
H2532 C2529 0.950 . S
C2533 C2524 1.390 . S
C2533 H2526 0.950 . S
C2533 C2530 1.387 . S
C2534 C2535 1.387 . S
C2534 H2538 0.950 . S
C2534 C2543 1.390 . S
C2535 C2534 1.387 . S
C2535 C2537 1.387 . S
H2536 C2543 0.950 . S
C2537 C2535 1.387 . S
C2537 C2539 1.390 . S
C2537 H2541 0.950 . S
H2538 C2534 0.950 . S
C2539 C2537 1.390 . S
C2539 C2540 1.387 . S
C2539 H2542 0.950 . S
C2540 C2539 1.387 . S
C2540 C2543 1.387 . S
H2541 C2537 0.950 . S
H2542 C2539 0.950 . S
C2543 C2534 1.390 . S
C2543 H2536 0.950 . S
C2543 C2540 1.387 . S
C2544 C2545 1.387 . S
C2544 H2548 0.950 . S
C2544 C2553 1.390 . S
C2545 C2544 1.387 . S
C2545 C2547 1.387 . S
H2546 C2553 0.950 . S
C2547 C2545 1.387 . S
C2547 C2549 1.390 . S
C2547 H2551 0.950 . S
H2548 C2544 0.950 . S
C2549 C2547 1.390 . S
C2549 C2550 1.387 . S
C2549 H2552 0.950 . S
C2550 C2549 1.387 . S
C2550 C2553 1.387 . S
H2551 C2547 0.950 . S
H2552 C2549 0.950 . S
C2553 C2544 1.390 . S
C2553 H2546 0.950 . S
C2553 C2550 1.387 . S
C2554 C2555 1.387 . S
C2554 H2558 0.950 . S
C2554 C2563 1.390 . S
C2555 C2554 1.387 . S
C2555 C2557 1.387 . S
H2556 C2563 0.950 . S
C2557 C2555 1.387 . S
C2557 C2559 1.390 . S
C2557 H2561 0.950 . S
H2558 C2554 0.950 . S
C2559 C2557 1.390 . S
C2559 C2560 1.387 . S
C2559 H2562 0.950 . S
C2560 C2559 1.387 . S
C2560 C2563 1.387 . S
H2561 C2557 0.950 . S
H2562 C2559 0.950 . S
C2563 C2554 1.390 . S
C2563 H2556 0.950 . S
C2563 C2560 1.387 . S
C2564 C2565 1.387 . S
C2564 H2568 0.950 . S
C2564 C2573 1.390 . S
C2565 C2564 1.387 . S
C2565 C2567 1.387 . S
H2566 C2573 0.950 . S
C2567 C2565 1.387 . S
C2567 C2569 1.390 . S
C2567 H2571 0.950 . S
H2568 C2564 0.950 . S
C2569 C2567 1.390 . S
C2569 C2570 1.387 . S
C2569 H2572 0.950 . S
C2570 C2569 1.387 . S
C2570 C2573 1.387 . S
H2571 C2567 0.950 . S
H2572 C2569 0.950 . S
C2573 C2564 1.390 . S
C2573 H2566 0.950 . S
C2573 C2570 1.387 . S
C2574 C2575 1.387 . S
C2574 H2578 0.950 . S
C2574 C2583 1.390 . S
C2575 C2574 1.387 . S
C2575 C2577 1.387 . S
H2576 C2583 0.950 . S
C2577 C2575 1.387 . S
C2577 C2579 1.390 . S
C2577 H2581 0.950 . S
H2578 C2574 0.950 . S
C2579 C2577 1.390 . S
C2579 C2580 1.387 . S
C2579 H2582 0.950 . S
C2580 C2579 1.387 . S
C2580 C2583 1.387 . S
H2581 C2577 0.950 . S
H2582 C2579 0.950 . S
C2583 C2574 1.390 . S
C2583 H2576 0.950 . S
C2583 C2580 1.387 . S
C2584 C2585 1.387 . S
C2584 H2588 0.950 . S
C2584 C2593 1.390 . S
C2585 C2584 1.387 . S
C2585 C2587 1.387 . S
H2586 C2593 0.950 . S
C2587 C2585 1.387 . S
C2587 C2589 1.390 . S
C2587 H2591 0.950 . S
H2588 C2584 0.950 . S
C2589 C2587 1.390 . S
C2589 C2590 1.387 . S
C2589 H2592 0.950 . S
C2590 C2589 1.387 . S
C2590 C2593 1.387 . S
H2591 C2587 0.950 . S
H2592 C2589 0.950 . S
C2593 C2584 1.390 . S
C2593 H2586 0.950 . S
C2593 C2590 1.387 . S
C2594 C2595 1.387 . S
C2594 H2598 0.950 . S
C2594 C2603 1.390 . S
C2595 C2594 1.387 . S
C2595 C2597 1.387 . S
H2596 C2603 0.950 . S
C2597 C2595 1.387 . S
C2597 C2599 1.390 . S
C2597 H2601 0.950 . S
H2598 C2594 0.950 . S
C2599 C2597 1.390 . S
C2599 C2600 1.387 . S
C2599 H2602 0.950 . S
C2600 C2599 1.387 . S
C2600 C2603 1.387 . S
H2601 C2597 0.950 . S
H2602 C2599 0.950 . S
C2603 C2594 1.390 . S
C2603 H2596 0.950 . S
C2603 C2600 1.387 . S
C2604 C2605 1.387 . S
C2604 H2608 0.950 . S
C2604 C2613 1.390 . S
C2605 C2604 1.387 . S
C2605 C2607 1.387 . S
H2606 C2613 0.950 . S
C2607 C2605 1.387 . S
C2607 C2609 1.390 . S
C2607 H2611 0.950 . S
H2608 C2604 0.950 . S
C2609 C2607 1.390 . S
C2609 C2610 1.387 . S
C2609 H2612 0.950 . S
C2610 C2609 1.387 . S
C2610 C2613 1.387 . S
H2611 C2607 0.950 . S
H2612 C2609 0.950 . S
C2613 C2604 1.390 . S
C2613 H2606 0.950 . S
C2613 C2610 1.387 . S
C2614 C2615 1.387 . S
C2614 H2618 0.950 . S
C2614 C2623 1.390 . S
C2615 C2614 1.387 . S
C2615 C2617 1.387 . S
H2616 C2623 0.950 . S
C2617 C2615 1.387 . S
C2617 C2619 1.390 . S
C2617 H2621 0.950 . S
H2618 C2614 0.950 . S
C2619 C2617 1.390 . S
C2619 C2620 1.387 . S
C2619 H2622 0.950 . S
C2620 C2619 1.387 . S
C2620 C2623 1.387 . S
H2621 C2617 0.950 . S
H2622 C2619 0.950 . S
C2623 C2614 1.390 . S
C2623 H2616 0.950 . S
C2623 C2620 1.387 . S
C2624 C2625 1.387 . S
C2624 H2628 0.950 . S
C2624 C2633 1.390 . S
C2625 C2624 1.387 . S
C2625 C2627 1.387 . S
H2626 C2633 0.950 . S
C2627 C2625 1.387 . S
C2627 C2629 1.390 . S
C2627 H2631 0.950 . S
H2628 C2624 0.950 . S
C2629 C2627 1.390 . S
C2629 C2630 1.387 . S
C2629 H2632 0.950 . S
C2630 C2629 1.387 . S
C2630 C2633 1.387 . S
H2631 C2627 0.950 . S
H2632 C2629 0.950 . S
C2633 C2624 1.390 . S
C2633 H2626 0.950 . S
C2633 C2630 1.387 . S
C2634 C2635 1.387 . S
C2634 H2638 0.950 . S
C2634 C2643 1.390 . S
C2635 C2634 1.387 . S
C2635 C2637 1.387 . S
H2636 C2643 0.950 . S
C2637 C2635 1.387 . S
C2637 C2639 1.390 . S
C2637 H2641 0.950 . S
H2638 C2634 0.950 . S
C2639 C2637 1.390 . S
C2639 C2640 1.387 . S
C2639 H2642 0.950 . S
C2640 C2639 1.387 . S
C2640 C2643 1.387 . S
H2641 C2637 0.950 . S
H2642 C2639 0.950 . S
C2643 C2634 1.390 . S
C2643 H2636 0.950 . S
C2643 C2640 1.387 . S
C2644 C2645 1.387 . S
C2644 H2648 0.950 . S
C2644 C2653 1.390 . S
C2645 C2644 1.387 . S
C2645 C2647 1.387 . S
H2646 C2653 0.950 . S
C2647 C2645 1.387 . S
C2647 C2649 1.390 . S
C2647 H2651 0.950 . S
H2648 C2644 0.950 . S
C2649 C2647 1.390 . S
C2649 C2650 1.387 . S
C2649 H2652 0.950 . S
C2650 C2649 1.387 . S
C2650 C2653 1.387 . S
H2651 C2647 0.950 . S
H2652 C2649 0.950 . S
C2653 C2644 1.390 . S
C2653 H2646 0.950 . S
C2653 C2650 1.387 . S
C2654 C2655 1.387 . S
C2654 H2658 0.950 . S
C2654 C2663 1.390 . S
C2655 C2654 1.387 . S
C2655 C2657 1.387 . S
H2656 C2663 0.950 . S
C2657 C2655 1.387 . S
C2657 C2659 1.390 . S
C2657 H2661 0.950 . S
H2658 C2654 0.950 . S
C2659 C2657 1.390 . S
C2659 C2660 1.387 . S
C2659 H2662 0.950 . S
C2660 C2659 1.387 . S
C2660 C2663 1.387 . S
H2661 C2657 0.950 . S
H2662 C2659 0.950 . S
C2663 C2654 1.390 . S
C2663 H2656 0.950 . S
C2663 C2660 1.387 . S
C2664 C2665 1.387 . S
C2664 H2668 0.950 . S
C2664 C2673 1.390 . S
C2665 C2664 1.387 . S
C2665 C2667 1.387 . S
H2666 C2673 0.950 . S
C2667 C2665 1.387 . S
C2667 C2669 1.390 . S
C2667 H2671 0.950 . S
H2668 C2664 0.950 . S
C2669 C2667 1.390 . S
C2669 C2670 1.387 . S
C2669 H2672 0.950 . S
C2670 C2669 1.387 . S
C2670 C2673 1.387 . S
H2671 C2667 0.950 . S
H2672 C2669 0.950 . S
C2673 C2664 1.390 . S
C2673 H2666 0.950 . S
C2673 C2670 1.387 . S
C2674 C2675 1.387 . S
C2674 H2678 0.950 . S
C2674 C2683 1.390 . S
C2675 C2674 1.387 . S
C2675 C2677 1.387 . S
H2676 C2683 0.950 . S
C2677 C2675 1.387 . S
C2677 C2679 1.390 . S
C2677 H2681 0.950 . S
H2678 C2674 0.950 . S
C2679 C2677 1.390 . S
C2679 C2680 1.387 . S
C2679 H2682 0.950 . S
C2680 C2679 1.387 . S
C2680 C2683 1.387 . S
H2681 C2677 0.950 . S
H2682 C2679 0.950 . S
C2683 C2674 1.390 . S
C2683 H2676 0.950 . S
C2683 C2680 1.387 . S
C2684 C2685 1.387 . S
C2684 H2688 0.950 . S
C2684 C2693 1.390 . S
C2685 C2684 1.387 . S
C2685 C2687 1.387 . S
H2686 C2693 0.950 . S
C2687 C2685 1.387 . S
C2687 C2689 1.390 . S
C2687 H2691 0.950 . S
H2688 C2684 0.950 . S
C2689 C2687 1.390 . S
C2689 C2690 1.387 . S
C2689 H2692 0.950 . S
C2690 C2689 1.387 . S
C2690 C2693 1.387 . S
H2691 C2687 0.950 . S
H2692 C2689 0.950 . S
C2693 C2684 1.390 . S
C2693 H2686 0.950 . S
C2693 C2690 1.387 . S
C2694 C2695 1.387 . S
C2694 H2698 0.950 . S
C2694 C2703 1.390 . S
C2695 C2694 1.387 . S
C2695 C2697 1.387 . S
H2696 C2703 0.950 . S
C2697 C2695 1.387 . S
C2697 C2699 1.390 . S
C2697 H2701 0.950 . S
H2698 C2694 0.950 . S
C2699 C2697 1.390 . S
C2699 C2700 1.387 . S
C2699 H2702 0.950 . S
C2700 C2699 1.387 . S
C2700 C2703 1.387 . S
H2701 C2697 0.950 . S
H2702 C2699 0.950 . S
C2703 C2694 1.390 . S
C2703 H2696 0.950 . S
C2703 C2700 1.387 . S
C2704 C2705 1.387 . S
C2704 H2708 0.950 . S
C2704 C2713 1.390 . S
C2705 C2704 1.387 . S
C2705 C2707 1.387 . S
H2706 C2713 0.950 . S
C2707 C2705 1.387 . S
C2707 C2709 1.390 . S
C2707 H2711 0.950 . S
H2708 C2704 0.950 . S
C2709 C2707 1.390 . S
C2709 C2710 1.387 . S
C2709 H2712 0.950 . S
C2710 C2709 1.387 . S
C2710 C2713 1.387 . S
H2711 C2707 0.950 . S
H2712 C2709 0.950 . S
C2713 C2704 1.390 . S
C2713 H2706 0.950 . S
C2713 C2710 1.387 . S
C2714 C2715 1.387 . S
C2714 H2718 0.950 . S
C2714 C2723 1.390 . S
C2715 C2714 1.387 . S
C2715 C2717 1.387 . S
H2716 C2723 0.950 . S
C2717 C2715 1.387 . S
C2717 C2719 1.390 . S
C2717 H2721 0.950 . S
H2718 C2714 0.950 . S
C2719 C2717 1.390 . S
C2719 C2720 1.387 . S
C2719 H2722 0.950 . S
C2720 C2719 1.387 . S
C2720 C2723 1.387 . S
H2721 C2717 0.950 . S
H2722 C2719 0.950 . S
C2723 C2714 1.390 . S
C2723 H2716 0.950 . S
C2723 C2720 1.387 . S
C2724 C2725 1.387 . S
C2724 H2728 0.950 . S
C2724 C2733 1.390 . S
C2725 C2724 1.387 . S
C2725 C2727 1.387 . S
H2726 C2733 0.950 . S
C2727 C2725 1.387 . S
C2727 C2729 1.390 . S
C2727 H2731 0.950 . S
H2728 C2724 0.950 . S
C2729 C2727 1.390 . S
C2729 C2730 1.387 . S
C2729 H2732 0.950 . S
C2730 C2729 1.387 . S
C2730 C2733 1.387 . S
H2731 C2727 0.950 . S
H2732 C2729 0.950 . S
C2733 C2724 1.390 . S
C2733 H2726 0.950 . S
C2733 C2730 1.387 . S
C2734 C2735 1.387 . S
C2734 H2738 0.950 . S
C2734 C2743 1.390 . S
C2735 C2734 1.387 . S
C2735 C2737 1.387 . S
H2736 C2743 0.950 . S
C2737 C2735 1.387 . S
C2737 C2739 1.390 . S
C2737 H2741 0.950 . S
H2738 C2734 0.950 . S
C2739 C2737 1.390 . S
C2739 C2740 1.387 . S
C2739 H2742 0.950 . S
C2740 C2739 1.387 . S
C2740 C2743 1.387 . S
H2741 C2737 0.950 . S
H2742 C2739 0.950 . S
C2743 C2734 1.390 . S
C2743 H2736 0.950 . S
C2743 C2740 1.387 . S
C2744 C2745 1.387 . S
C2744 H2748 0.950 . S
C2744 C2753 1.390 . S
C2745 C2744 1.387 . S
C2745 C2747 1.387 . S
H2746 C2753 0.950 . S
C2747 C2745 1.387 . S
C2747 C2749 1.390 . S
C2747 H2751 0.950 . S
H2748 C2744 0.950 . S
C2749 C2747 1.390 . S
C2749 C2750 1.387 . S
C2749 H2752 0.950 . S
C2750 C2749 1.387 . S
C2750 C2753 1.387 . S
H2751 C2747 0.950 . S
H2752 C2749 0.950 . S
C2753 C2744 1.390 . S
C2753 H2746 0.950 . S
C2753 C2750 1.387 . S
C2754 C2755 1.387 . S
C2754 H2758 0.950 . S
C2754 C2763 1.390 . S
C2755 C2754 1.387 . S
C2755 C2757 1.387 . S
H2756 C2763 0.950 . S
C2757 C2755 1.387 . S
C2757 C2759 1.390 . S
C2757 H2761 0.950 . S
H2758 C2754 0.950 . S
C2759 C2757 1.390 . S
C2759 C2760 1.387 . S
C2759 H2762 0.950 . S
C2760 C2759 1.387 . S
C2760 C2763 1.387 . S
H2761 C2757 0.950 . S
H2762 C2759 0.950 . S
C2763 C2754 1.390 . S
C2763 H2756 0.950 . S
C2763 C2760 1.387 . S
C2764 C2765 1.387 . S
C2764 H2768 0.950 . S
C2764 C2773 1.390 . S
C2765 C2764 1.387 . S
C2765 C2767 1.387 . S
H2766 C2773 0.950 . S
C2767 C2765 1.387 . S
C2767 C2769 1.390 . S
C2767 H2771 0.950 . S
H2768 C2764 0.950 . S
C2769 C2767 1.390 . S
C2769 C2770 1.387 . S
C2769 H2772 0.950 . S
C2770 C2769 1.387 . S
C2770 C2773 1.387 . S
H2771 C2767 0.950 . S
H2772 C2769 0.950 . S
C2773 C2764 1.390 . S
C2773 H2766 0.950 . S
C2773 C2770 1.387 . S
C2774 C2775 1.387 . S
C2774 H2778 0.950 . S
C2774 C2783 1.390 . S
C2775 C2774 1.387 . S
C2775 C2777 1.387 . S
H2776 C2783 0.950 . S
C2777 C2775 1.387 . S
C2777 C2779 1.390 . S
C2777 H2781 0.950 . S
H2778 C2774 0.950 . S
C2779 C2777 1.390 . S
C2779 C2780 1.387 . S
C2779 H2782 0.950 . S
C2780 C2779 1.387 . S
C2780 C2783 1.387 . S
H2781 C2777 0.950 . S
H2782 C2779 0.950 . S
C2783 C2774 1.390 . S
C2783 H2776 0.950 . S
C2783 C2780 1.387 . S
C2784 C2785 1.387 . S
C2784 H2788 0.950 . S
C2784 C2793 1.390 . S
C2785 C2784 1.387 . S
C2785 C2787 1.387 . S
H2786 C2793 0.950 . S
C2787 C2785 1.387 . S
C2787 C2789 1.390 . S
C2787 H2791 0.950 . S
H2788 C2784 0.950 . S
C2789 C2787 1.390 . S
C2789 C2790 1.387 . S
C2789 H2792 0.950 . S
C2790 C2789 1.387 . S
C2790 C2793 1.387 . S
H2791 C2787 0.950 . S
H2792 C2789 0.950 . S
C2793 C2784 1.390 . S
C2793 H2786 0.950 . S
C2793 C2790 1.387 . S
C2794 C2795 1.387 . S
C2794 H2798 0.950 . S
C2794 C2803 1.390 . S
C2795 C2794 1.387 . S
C2795 C2797 1.387 . S
H2796 C2803 0.950 . S
C2797 C2795 1.387 . S
C2797 C2799 1.390 . S
C2797 H2801 0.950 . S
H2798 C2794 0.950 . S
C2799 C2797 1.390 . S
C2799 C2800 1.387 . S
C2799 H2802 0.950 . S
C2800 C2799 1.387 . S
C2800 C2803 1.387 . S
H2801 C2797 0.950 . S
H2802 C2799 0.950 . S
C2803 C2794 1.390 . S
C2803 H2796 0.950 . S
C2803 C2800 1.387 . S
C2804 C2805 1.387 . S
C2804 H2808 0.950 . S
C2804 C2813 1.390 . S
C2805 C2804 1.387 . S
C2805 C2807 1.387 . S
H2806 C2813 0.950 . S
C2807 C2805 1.387 . S
C2807 C2809 1.390 . S
C2807 H2811 0.950 . S
H2808 C2804 0.950 . S
C2809 C2807 1.390 . S
C2809 C2810 1.387 . S
C2809 H2812 0.950 . S
C2810 C2809 1.387 . S
C2810 C2813 1.387 . S
H2811 C2807 0.950 . S
H2812 C2809 0.950 . S
C2813 C2804 1.390 . S
C2813 H2806 0.950 . S
C2813 C2810 1.387 . S
C2814 C2815 1.387 . S
C2814 H2818 0.950 . S
C2814 C2823 1.390 . S
C2815 C2814 1.387 . S
C2815 C2817 1.387 . S
H2816 C2823 0.950 . S
C2817 C2815 1.387 . S
C2817 C2819 1.390 . S
C2817 H2821 0.950 . S
H2818 C2814 0.950 . S
C2819 C2817 1.390 . S
C2819 C2820 1.387 . S
C2819 H2822 0.950 . S
C2820 C2819 1.387 . S
C2820 C2823 1.387 . S
H2821 C2817 0.950 . S
H2822 C2819 0.950 . S
C2823 C2814 1.390 . S
C2823 H2816 0.950 . S
C2823 C2820 1.387 . S
C2824 C2825 1.387 . S
C2824 H2828 0.950 . S
C2824 C2833 1.390 . S
C2825 C2824 1.387 . S
C2825 C2827 1.387 . S
H2826 C2833 0.950 . S
C2827 C2825 1.387 . S
C2827 C2829 1.390 . S
C2827 H2831 0.950 . S
H2828 C2824 0.950 . S
C2829 C2827 1.390 . S
C2829 C2830 1.387 . S
C2829 H2832 0.950 . S
C2830 C2829 1.387 . S
C2830 C2833 1.387 . S
H2831 C2827 0.950 . S
H2832 C2829 0.950 . S
C2833 C2824 1.390 . S
C2833 H2826 0.950 . S
C2833 C2830 1.387 . S
C2834 C2835 1.387 . S
C2834 H2838 0.950 . S
C2834 C2843 1.390 . S
C2835 C2834 1.387 . S
C2835 C2837 1.387 . S
H2836 C2843 0.950 . S
C2837 C2835 1.387 . S
C2837 C2839 1.390 . S
C2837 H2841 0.950 . S
H2838 C2834 0.950 . S
C2839 C2837 1.390 . S
C2839 C2840 1.387 . S
C2839 H2842 0.950 . S
C2840 C2839 1.387 . S
C2840 C2843 1.387 . S
H2841 C2837 0.950 . S
H2842 C2839 0.950 . S
C2843 C2834 1.390 . S
C2843 H2836 0.950 . S
C2843 C2840 1.387 . S
C2844 C2845 1.387 . S
C2844 H2848 0.950 . S
C2844 C2853 1.390 . S
C2845 C2844 1.387 . S
C2845 C2847 1.387 . S
H2846 C2853 0.950 . S
C2847 C2845 1.387 . S
C2847 C2849 1.390 . S
C2847 H2851 0.950 . S
H2848 C2844 0.950 . S
C2849 C2847 1.390 . S
C2849 C2850 1.387 . S
C2849 H2852 0.950 . S
C2850 C2849 1.387 . S
C2850 C2853 1.387 . S
H2851 C2847 0.950 . S
H2852 C2849 0.950 . S
C2853 C2844 1.390 . S
C2853 H2846 0.950 . S
C2853 C2850 1.387 . S
C2854 C2855 1.387 . S
C2854 H2858 0.950 . S
C2854 C2863 1.390 . S
C2855 C2854 1.387 . S
C2855 C2857 1.387 . S
H2856 C2863 0.950 . S
C2857 C2855 1.387 . S
C2857 C2859 1.390 . S
C2857 H2861 0.950 . S
H2858 C2854 0.950 . S
C2859 C2857 1.390 . S
C2859 C2860 1.387 . S
C2859 H2862 0.950 . S
C2860 C2859 1.387 . S
C2860 C2863 1.387 . S
H2861 C2857 0.950 . S
H2862 C2859 0.950 . S
C2863 C2854 1.390 . S
C2863 H2856 0.950 . S
C2863 C2860 1.387 . S
C2864 C2865 1.387 . S
C2864 H2868 0.950 . S
C2864 C2873 1.390 . S
C2865 C2864 1.387 . S
C2865 C2867 1.387 . S
H2866 C2873 0.950 . S
C2867 C2865 1.387 . S
C2867 C2869 1.390 . S
C2867 H2871 0.950 . S
H2868 C2864 0.950 . S
C2869 C2867 1.390 . S
C2869 C2870 1.387 . S
C2869 H2872 0.950 . S
C2870 C2869 1.387 . S
C2870 C2873 1.387 . S
H2871 C2867 0.950 . S
H2872 C2869 0.950 . S
C2873 C2864 1.390 . S
C2873 H2866 0.950 . S
C2873 C2870 1.387 . S
C2874 C2875 1.387 . S
C2874 H2878 0.950 . S
C2874 C2883 1.390 . S
C2875 C2874 1.387 . S
C2875 C2877 1.387 . S
H2876 C2883 0.950 . S
C2877 C2875 1.387 . S
C2877 C2879 1.390 . S
C2877 H2881 0.950 . S
H2878 C2874 0.950 . S
C2879 C2877 1.390 . S
C2879 C2880 1.387 . S
C2879 H2882 0.950 . S
C2880 C2879 1.387 . S
C2880 C2883 1.387 . S
H2881 C2877 0.950 . S
H2882 C2879 0.950 . S
C2883 C2874 1.390 . S
C2883 H2876 0.950 . S
C2883 C2880 1.387 . S
C2884 C2885 1.387 . S
C2884 H2888 0.950 . S
C2884 C2893 1.390 . S
C2885 C2884 1.387 . S
C2885 C2887 1.387 . S
H2886 C2893 0.950 . S
C2887 C2885 1.387 . S
C2887 C2889 1.390 . S
C2887 H2891 0.950 . S
H2888 C2884 0.950 . S
C2889 C2887 1.390 . S
C2889 C2890 1.387 . S
C2889 H2892 0.950 . S
C2890 C2889 1.387 . S
C2890 C2893 1.387 . S
H2891 C2887 0.950 . S
H2892 C2889 0.950 . S
C2893 C2884 1.390 . S
C2893 H2886 0.950 . S
C2893 C2890 1.387 . S
C2894 C2895 1.387 . S
C2894 H2898 0.950 . S
C2894 C2903 1.390 . S
C2895 C2894 1.387 . S
C2895 C2897 1.387 . S
H2896 C2903 0.950 . S
C2897 C2895 1.387 . S
C2897 C2899 1.390 . S
C2897 H2901 0.950 . S
H2898 C2894 0.950 . S
C2899 C2897 1.390 . S
C2899 C2900 1.387 . S
C2899 H2902 0.950 . S
C2900 C2899 1.387 . S
C2900 C2903 1.387 . S
H2901 C2897 0.950 . S
H2902 C2899 0.950 . S
C2903 C2894 1.390 . S
C2903 H2896 0.950 . S
C2903 C2900 1.387 . S
C2904 C2905 1.387 . S
C2904 H2908 0.950 . S
C2904 C2913 1.390 . S
C2905 C2904 1.387 . S
C2905 C2907 1.387 . S
H2906 C2913 0.950 . S
C2907 C2905 1.387 . S
C2907 C2909 1.390 . S
C2907 H2911 0.950 . S
H2908 C2904 0.950 . S
C2909 C2907 1.390 . S
C2909 C2910 1.387 . S
C2909 H2912 0.950 . S
C2910 C2909 1.387 . S
C2910 C2913 1.387 . S
H2911 C2907 0.950 . S
H2912 C2909 0.950 . S
C2913 C2904 1.390 . S
C2913 H2906 0.950 . S
C2913 C2910 1.387 . S
C2914 C2915 1.387 . S
C2914 H2918 0.950 . S
C2914 C2923 1.390 . S
C2915 C2914 1.387 . S
C2915 C2917 1.387 . S
H2916 C2923 0.950 . S
C2917 C2915 1.387 . S
C2917 C2919 1.390 . S
C2917 H2921 0.950 . S
H2918 C2914 0.950 . S
C2919 C2917 1.390 . S
C2919 C2920 1.387 . S
C2919 H2922 0.950 . S
C2920 C2919 1.387 . S
C2920 C2923 1.387 . S
H2921 C2917 0.950 . S
H2922 C2919 0.950 . S
C2923 C2914 1.390 . S
C2923 H2916 0.950 . S
C2923 C2920 1.387 . S
C2924 C2925 1.387 . S
C2924 H2928 0.950 . S
C2924 C2933 1.390 . S
C2925 C2924 1.387 . S
C2925 C2927 1.387 . S
H2926 C2933 0.950 . S
C2927 C2925 1.387 . S
C2927 C2929 1.390 . S
C2927 H2931 0.950 . S
H2928 C2924 0.950 . S
C2929 C2927 1.390 . S
C2929 C2930 1.387 . S
C2929 H2932 0.950 . S
C2930 C2929 1.387 . S
C2930 C2933 1.387 . S
H2931 C2927 0.950 . S
H2932 C2929 0.950 . S
C2933 C2924 1.390 . S
C2933 H2926 0.950 . S
C2933 C2930 1.387 . S
C2934 C2935 1.387 . S
C2934 H2938 0.950 . S
C2934 C2943 1.390 . S
C2935 C2934 1.387 . S
C2935 C2937 1.387 . S
H2936 C2943 0.950 . S
C2937 C2935 1.387 . S
C2937 C2939 1.390 . S
C2937 H2941 0.950 . S
H2938 C2934 0.950 . S
C2939 C2937 1.390 . S
C2939 C2940 1.387 . S
C2939 H2942 0.950 . S
C2940 C2939 1.387 . S
C2940 C2943 1.387 . S
H2941 C2937 0.950 . S
H2942 C2939 0.950 . S
C2943 C2934 1.390 . S
C2943 H2936 0.950 . S
C2943 C2940 1.387 . S
C2944 C2945 1.387 . S
C2944 H2948 0.950 . S
C2944 C2953 1.390 . S
C2945 C2944 1.387 . S
C2945 C2947 1.387 . S
H2946 C2953 0.950 . S
C2947 C2945 1.387 . S
C2947 C2949 1.390 . S
C2947 H2951 0.950 . S
H2948 C2944 0.950 . S
C2949 C2947 1.390 . S
C2949 C2950 1.387 . S
C2949 H2952 0.950 . S
C2950 C2949 1.387 . S
C2950 C2953 1.387 . S
H2951 C2947 0.950 . S
H2952 C2949 0.950 . S
C2953 C2944 1.390 . S
C2953 H2946 0.950 . S
C2953 C2950 1.387 . S
C2954 C2955 1.387 . S
C2954 H2958 0.950 . S
C2954 C2963 1.390 . S
C2955 C2954 1.387 . S
C2955 C2957 1.387 . S
H2956 C2963 0.950 . S
C2957 C2955 1.387 . S
C2957 C2959 1.390 . S
C2957 H2961 0.950 . S
H2958 C2954 0.950 . S
C2959 C2957 1.390 . S
C2959 C2960 1.387 . S
C2959 H2962 0.950 . S
C2960 C2959 1.387 . S
C2960 C2963 1.387 . S
H2961 C2957 0.950 . S
H2962 C2959 0.950 . S
C2963 C2954 1.390 . S
C2963 H2956 0.950 . S
C2963 C2960 1.387 . S
C2964 C2965 1.387 . S
C2964 H2968 0.950 . S
C2964 C2973 1.390 . S
C2965 C2964 1.387 . S
C2965 C2967 1.387 . S
H2966 C2973 0.950 . S
C2967 C2965 1.387 . S
C2967 C2969 1.390 . S
C2967 H2971 0.950 . S
H2968 C2964 0.950 . S
C2969 C2967 1.390 . S
C2969 C2970 1.387 . S
C2969 H2972 0.950 . S
C2970 C2969 1.387 . S
C2970 C2973 1.387 . S
H2971 C2967 0.950 . S
H2972 C2969 0.950 . S
C2973 C2964 1.390 . S
C2973 H2966 0.950 . S
C2973 C2970 1.387 . S
C2974 C2975 1.387 . S
C2974 H2978 0.950 . S
C2974 C2983 1.390 . S
C2975 C2974 1.387 . S
C2975 C2977 1.387 . S
H2976 C2983 0.950 . S
C2977 C2975 1.387 . S
C2977 C2979 1.390 . S
C2977 H2981 0.950 . S
H2978 C2974 0.950 . S
C2979 C2977 1.390 . S
C2979 C2980 1.387 . S
C2979 H2982 0.950 . S
C2980 C2979 1.387 . S
C2980 C2983 1.387 . S
H2981 C2977 0.950 . S
H2982 C2979 0.950 . S
C2983 C2974 1.390 . S
C2983 H2976 0.950 . S
C2983 C2980 1.387 . S
C2984 C2985 1.387 . S
C2984 H2988 0.950 . S
C2984 C2993 1.390 . S
C2985 C2984 1.387 . S
C2985 C2987 1.387 . S
H2986 C2993 0.950 . S
C2987 C2985 1.387 . S
C2987 C2989 1.390 . S
C2987 H2991 0.950 . S
H2988 C2984 0.950 . S
C2989 C2987 1.390 . S
C2989 C2990 1.387 . S
C2989 H2992 0.950 . S
C2990 C2989 1.387 . S
C2990 C2993 1.387 . S
H2991 C2987 0.950 . S
H2992 C2989 0.950 . S
C2993 C2984 1.390 . S
C2993 H2986 0.950 . S
C2993 C2990 1.387 . S
C2994 C2995 1.387 . S
C2994 H2998 0.950 . S
C2994 C3003 1.390 . S
C2995 C2994 1.387 . S
C2995 C2997 1.387 . S
H2996 C3003 0.950 . S
C2997 C2995 1.387 . S
C2997 C2999 1.390 . S
C2997 H3001 0.950 . S
H2998 C2994 0.950 . S
C2999 C2997 1.390 . S
C2999 C3000 1.387 . S
C2999 H3002 0.950 . S
C3000 C2999 1.387 . S
C3000 C3003 1.387 . S
H3001 C2997 0.950 . S
H3002 C2999 0.950 . S
C3003 C2994 1.390 . S
C3003 H2996 0.950 . S
C3003 C3000 1.387 . S
C3004 C3005 1.387 . S
C3004 H3008 0.950 . S
C3004 C3013 1.390 . S
C3005 C3004 1.387 . S
C3005 C3007 1.387 . S
H3006 C3013 0.950 . S
C3007 C3005 1.387 . S
C3007 C3009 1.390 . S
C3007 H3011 0.950 . S
H3008 C3004 0.950 . S
C3009 C3007 1.390 . S
C3009 C3010 1.387 . S
C3009 H3012 0.950 . S
C3010 C3009 1.387 . S
C3010 C3013 1.387 . S
H3011 C3007 0.950 . S
H3012 C3009 0.950 . S
C3013 C3004 1.390 . S
C3013 H3006 0.950 . S
C3013 C3010 1.387 . S
C3014 C3015 1.387 . S
C3014 H3018 0.950 . S
C3014 C3023 1.390 . S
C3015 C3014 1.387 . S
C3015 C3017 1.387 . S
H3016 C3023 0.950 . S
C3017 C3015 1.387 . S
C3017 C3019 1.390 . S
C3017 H3021 0.950 . S
H3018 C3014 0.950 . S
C3019 C3017 1.390 . S
C3019 C3020 1.387 . S
C3019 H3022 0.950 . S
C3020 C3019 1.387 . S
C3020 C3023 1.387 . S
H3021 C3017 0.950 . S
H3022 C3019 0.950 . S
C3023 C3014 1.390 . S
C3023 H3016 0.950 . S
C3023 C3020 1.387 . S
C3024 C3025 1.387 . S
C3024 H3028 0.950 . S
C3024 C3033 1.390 . S
C3025 C3024 1.387 . S
C3025 C3027 1.387 . S
H3026 C3033 0.950 . S
C3027 C3025 1.387 . S
C3027 C3029 1.390 . S
C3027 H3031 0.950 . S
H3028 C3024 0.950 . S
C3029 C3027 1.390 . S
C3029 C3030 1.387 . S
C3029 H3032 0.950 . S
C3030 C3029 1.387 . S
C3030 C3033 1.387 . S
H3031 C3027 0.950 . S
H3032 C3029 0.950 . S
C3033 C3024 1.390 . S
C3033 H3026 0.950 . S
C3033 C3030 1.387 . S
C3034 C3035 1.387 . S
C3034 H3038 0.950 . S
C3034 C3043 1.390 . S
C3035 C3034 1.387 . S
C3035 C3037 1.387 . S
H3036 C3043 0.950 . S
C3037 C3035 1.387 . S
C3037 C3039 1.390 . S
C3037 H3041 0.950 . S
H3038 C3034 0.950 . S
C3039 C3037 1.390 . S
C3039 C3040 1.387 . S
C3039 H3042 0.950 . S
C3040 C3039 1.387 . S
C3040 C3043 1.387 . S
H3041 C3037 0.950 . S
H3042 C3039 0.950 . S
C3043 C3034 1.390 . S
C3043 H3036 0.950 . S
C3043 C3040 1.387 . S
C3044 C3045 1.387 . S
C3044 H3048 0.950 . S
C3044 C3053 1.390 . S
C3045 C3044 1.387 . S
C3045 C3047 1.387 . S
H3046 C3053 0.950 . S
C3047 C3045 1.387 . S
C3047 C3049 1.390 . S
C3047 H3051 0.950 . S
H3048 C3044 0.950 . S
C3049 C3047 1.390 . S
C3049 C3050 1.387 . S
C3049 H3052 0.950 . S
C3050 C3049 1.387 . S
C3050 C3053 1.387 . S
H3051 C3047 0.950 . S
H3052 C3049 0.950 . S
C3053 C3044 1.390 . S
C3053 H3046 0.950 . S
C3053 C3050 1.387 . S
C3054 C3055 1.387 . S
C3054 H3058 0.950 . S
C3054 C3063 1.390 . S
C3055 C3054 1.387 . S
C3055 C3057 1.387 . S
H3056 C3063 0.950 . S
C3057 C3055 1.387 . S
C3057 C3059 1.390 . S
C3057 H3061 0.950 . S
H3058 C3054 0.950 . S
C3059 C3057 1.390 . S
C3059 C3060 1.387 . S
C3059 H3062 0.950 . S
C3060 C3059 1.387 . S
C3060 C3063 1.387 . S
H3061 C3057 0.950 . S
H3062 C3059 0.950 . S
C3063 C3054 1.390 . S
C3063 H3056 0.950 . S
C3063 C3060 1.387 . S
C3064 C3065 1.387 . S
C3064 H3068 0.950 . S
C3064 C3073 1.390 . S
C3065 C3064 1.387 . S
C3065 C3067 1.387 . S
H3066 C3073 0.950 . S
C3067 C3065 1.387 . S
C3067 C3069 1.390 . S
C3067 H3071 0.950 . S
H3068 C3064 0.950 . S
C3069 C3067 1.390 . S
C3069 C3070 1.387 . S
C3069 H3072 0.950 . S
C3070 C3069 1.387 . S
C3070 C3073 1.387 . S
H3071 C3067 0.950 . S
H3072 C3069 0.950 . S
C3073 C3064 1.390 . S
C3073 H3066 0.950 . S
C3073 C3070 1.387 . S
C3074 C3075 1.387 . S
C3074 H3078 0.950 . S
C3074 C3083 1.390 . S
C3075 C3074 1.387 . S
C3075 C3077 1.387 . S
H3076 C3083 0.950 . S
C3077 C3075 1.387 . S
C3077 C3079 1.390 . S
C3077 H3081 0.950 . S
H3078 C3074 0.950 . S
C3079 C3077 1.390 . S
C3079 C3080 1.387 . S
C3079 H3082 0.950 . S
C3080 C3079 1.387 . S
C3080 C3083 1.387 . S
H3081 C3077 0.950 . S
H3082 C3079 0.950 . S
C3083 C3074 1.390 . S
C3083 H3076 0.950 . S
C3083 C3080 1.387 . S
C3084 C3085 1.387 . S
C3084 H3088 0.950 . S
C3084 C3093 1.390 . S
C3085 C3084 1.387 . S
C3085 C3087 1.387 . S
H3086 C3093 0.950 . S
C3087 C3085 1.387 . S
C3087 C3089 1.390 . S
C3087 H3091 0.950 . S
H3088 C3084 0.950 . S
C3089 C3087 1.390 . S
C3089 C3090 1.387 . S
C3089 H3092 0.950 . S
C3090 C3089 1.387 . S
C3090 C3093 1.387 . S
H3091 C3087 0.950 . S
H3092 C3089 0.950 . S
C3093 C3084 1.390 . S
C3093 H3086 0.950 . S
C3093 C3090 1.387 . S
C3094 C3095 1.387 . S
C3094 H3098 0.950 . S
C3094 C3103 1.390 . S
C3095 C3094 1.387 . S
C3095 C3097 1.387 . S
H3096 C3103 0.950 . S
C3097 C3095 1.387 . S
C3097 C3099 1.390 . S
C3097 H3101 0.950 . S
H3098 C3094 0.950 . S
C3099 C3097 1.390 . S
C3099 C3100 1.387 . S
C3099 H3102 0.950 . S
C3100 C3099 1.387 . S
C3100 C3103 1.387 . S
H3101 C3097 0.950 . S
H3102 C3099 0.950 . S
C3103 C3094 1.390 . S
C3103 H3096 0.950 . S
C3103 C3100 1.387 . S
C3104 C3105 1.387 . S
C3104 H3108 0.950 . S
C3104 C3113 1.390 . S
C3105 C3104 1.387 . S
C3105 C3107 1.387 . S
H3106 C3113 0.950 . S
C3107 C3105 1.387 . S
C3107 C3109 1.390 . S
C3107 H3111 0.950 . S
H3108 C3104 0.950 . S
C3109 C3107 1.390 . S
C3109 C3110 1.387 . S
C3109 H3112 0.950 . S
C3110 C3109 1.387 . S
C3110 C3113 1.387 . S
H3111 C3107 0.950 . S
H3112 C3109 0.950 . S
C3113 C3104 1.390 . S
C3113 H3106 0.950 . S
C3113 C3110 1.387 . S
C3114 C3115 1.387 . S
C3114 H3118 0.950 . S
C3114 C3123 1.390 . S
C3115 C3114 1.387 . S
C3115 C3117 1.387 . S
H3116 C3123 0.950 . S
C3117 C3115 1.387 . S
C3117 C3119 1.390 . S
C3117 H3121 0.950 . S
H3118 C3114 0.950 . S
C3119 C3117 1.390 . S
C3119 C3120 1.387 . S
C3119 H3122 0.950 . S
C3120 C3119 1.387 . S
C3120 C3123 1.387 . S
H3121 C3117 0.950 . S
H3122 C3119 0.950 . S
C3123 C3114 1.390 . S
C3123 H3116 0.950 . S
C3123 C3120 1.387 . S
C3124 C3125 1.387 . S
C3124 H3128 0.950 . S
C3124 C3133 1.390 . S
C3125 C3124 1.387 . S
C3125 C3127 1.387 . S
H3126 C3133 0.950 . S
C3127 C3125 1.387 . S
C3127 C3129 1.390 . S
C3127 H3131 0.950 . S
H3128 C3124 0.950 . S
C3129 C3127 1.390 . S
C3129 C3130 1.387 . S
C3129 H3132 0.950 . S
C3130 C3129 1.387 . S
C3130 C3133 1.387 . S
H3131 C3127 0.950 . S
H3132 C3129 0.950 . S
C3133 C3124 1.390 . S
C3133 H3126 0.950 . S
C3133 C3130 1.387 . S
C3134 C3135 1.387 . S
C3134 H3138 0.950 . S
C3134 C3143 1.390 . S
C3135 C3134 1.387 . S
C3135 C3137 1.387 . S
H3136 C3143 0.950 . S
C3137 C3135 1.387 . S
C3137 C3139 1.390 . S
C3137 H3141 0.950 . S
H3138 C3134 0.950 . S
C3139 C3137 1.390 . S
C3139 C3140 1.387 . S
C3139 H3142 0.950 . S
C3140 C3139 1.387 . S
C3140 C3143 1.387 . S
H3141 C3137 0.950 . S
H3142 C3139 0.950 . S
C3143 C3134 1.390 . S
C3143 H3136 0.950 . S
C3143 C3140 1.387 . S
C3144 C3145 1.387 . S
C3144 H3148 0.950 . S
C3144 C3153 1.390 . S
C3145 C3144 1.387 . S
C3145 C3147 1.387 . S
H3146 C3153 0.950 . S
C3147 C3145 1.387 . S
C3147 C3149 1.390 . S
C3147 H3151 0.950 . S
H3148 C3144 0.950 . S
C3149 C3147 1.390 . S
C3149 C3150 1.387 . S
C3149 H3152 0.950 . S
C3150 C3149 1.387 . S
C3150 C3153 1.387 . S
H3151 C3147 0.950 . S
H3152 C3149 0.950 . S
C3153 C3144 1.390 . S
C3153 H3146 0.950 . S
C3153 C3150 1.387 . S
C3154 C3155 1.387 . S
C3154 H3158 0.950 . S
C3154 C3163 1.390 . S
C3155 C3154 1.387 . S
C3155 C3157 1.387 . S
H3156 C3163 0.950 . S
C3157 C3155 1.387 . S
C3157 C3159 1.390 . S
C3157 H3161 0.950 . S
H3158 C3154 0.950 . S
C3159 C3157 1.390 . S
C3159 C3160 1.387 . S
C3159 H3162 0.950 . S
C3160 C3159 1.387 . S
C3160 C3163 1.387 . S
H3161 C3157 0.950 . S
H3162 C3159 0.950 . S
C3163 C3154 1.390 . S
C3163 H3156 0.950 . S
C3163 C3160 1.387 . S
C3164 C3165 1.387 . S
C3164 H3168 0.950 . S
C3164 C3173 1.390 . S
C3165 C3164 1.387 . S
C3165 C3167 1.387 . S
H3166 C3173 0.950 . S
C3167 C3165 1.387 . S
C3167 C3169 1.390 . S
C3167 H3171 0.950 . S
H3168 C3164 0.950 . S
C3169 C3167 1.390 . S
C3169 C3170 1.387 . S
C3169 H3172 0.950 . S
C3170 C3169 1.387 . S
C3170 C3173 1.387 . S
H3171 C3167 0.950 . S
H3172 C3169 0.950 . S
C3173 C3164 1.390 . S
C3173 H3166 0.950 . S
C3173 C3170 1.387 . S
C3174 C3175 1.387 . S
C3174 H3178 0.950 . S
C3174 C3183 1.390 . S
C3175 C3174 1.387 . S
C3175 C3177 1.387 . S
H3176 C3183 0.950 . S
C3177 C3175 1.387 . S
C3177 C3179 1.390 . S
C3177 H3181 0.950 . S
H3178 C3174 0.950 . S
C3179 C3177 1.390 . S
C3179 C3180 1.387 . S
C3179 H3182 0.950 . S
C3180 C3179 1.387 . S
C3180 C3183 1.387 . S
H3181 C3177 0.950 . S
H3182 C3179 0.950 . S
C3183 C3174 1.390 . S
C3183 H3176 0.950 . S
C3183 C3180 1.387 . S
C3184 C3185 1.387 . S
C3184 H3188 0.950 . S
C3184 C3193 1.390 . S
C3185 C3184 1.387 . S
C3185 C3187 1.387 . S
H3186 C3193 0.950 . S
C3187 C3185 1.387 . S
C3187 C3189 1.390 . S
C3187 H3191 0.950 . S
H3188 C3184 0.950 . S
C3189 C3187 1.390 . S
C3189 C3190 1.387 . S
C3189 H3192 0.950 . S
C3190 C3189 1.387 . S
C3190 C3193 1.387 . S
H3191 C3187 0.950 . S
H3192 C3189 0.950 . S
C3193 C3184 1.390 . S
C3193 H3186 0.950 . S
C3193 C3190 1.387 . S
C3194 C3195 1.387 . S
C3194 H3198 0.950 . S
C3194 C3203 1.390 . S
C3195 C3194 1.387 . S
C3195 C3197 1.387 . S
H3196 C3203 0.950 . S
C3197 C3195 1.387 . S
C3197 C3199 1.390 . S
C3197 H3201 0.950 . S
H3198 C3194 0.950 . S
C3199 C3197 1.390 . S
C3199 C3200 1.387 . S
C3199 H3202 0.950 . S
C3200 C3199 1.387 . S
C3200 C3203 1.387 . S
H3201 C3197 0.950 . S
H3202 C3199 0.950 . S
C3203 C3194 1.390 . S
C3203 H3196 0.950 . S
C3203 C3200 1.387 . S
C3204 C3205 1.387 . S
C3204 H3208 0.950 . S
C3204 C3213 1.390 . S
C3205 C3204 1.387 . S
C3205 C3207 1.387 . S
H3206 C3213 0.950 . S
C3207 C3205 1.387 . S
C3207 C3209 1.390 . S
C3207 H3211 0.950 . S
H3208 C3204 0.950 . S
C3209 C3207 1.390 . S
C3209 C3210 1.387 . S
C3209 H3212 0.950 . S
C3210 C3209 1.387 . S
C3210 C3213 1.387 . S
H3211 C3207 0.950 . S
H3212 C3209 0.950 . S
C3213 C3204 1.390 . S
C3213 H3206 0.950 . S
C3213 C3210 1.387 . S
C3214 C3215 1.387 . S
C3214 H3218 0.950 . S
C3214 C3223 1.390 . S
C3215 C3214 1.387 . S
C3215 C3217 1.387 . S
H3216 C3223 0.950 . S
C3217 C3215 1.387 . S
C3217 C3219 1.390 . S
C3217 H3221 0.950 . S
H3218 C3214 0.950 . S
C3219 C3217 1.390 . S
C3219 C3220 1.387 . S
C3219 H3222 0.950 . S
C3220 C3219 1.387 . S
C3220 C3223 1.387 . S
H3221 C3217 0.950 . S
H3222 C3219 0.950 . S
C3223 C3214 1.390 . S
C3223 H3216 0.950 . S
C3223 C3220 1.387 . S
C3224 C3225 1.387 . S
C3224 H3228 0.950 . S
C3224 C3233 1.390 . S
C3225 C3224 1.387 . S
C3225 C3227 1.387 . S
H3226 C3233 0.950 . S
C3227 C3225 1.387 . S
C3227 C3229 1.390 . S
C3227 H3231 0.950 . S
H3228 C3224 0.950 . S
C3229 C3227 1.390 . S
C3229 C3230 1.387 . S
C3229 H3232 0.950 . S
C3230 C3229 1.387 . S
C3230 C3233 1.387 . S
H3231 C3227 0.950 . S
H3232 C3229 0.950 . S
C3233 C3224 1.390 . S
C3233 H3226 0.950 . S
C3233 C3230 1.387 . S
C3234 C3235 1.387 . S
C3234 H3238 0.950 . S
C3234 C3243 1.390 . S
C3235 C3234 1.387 . S
C3235 C3237 1.387 . S
H3236 C3243 0.950 . S
C3237 C3235 1.387 . S
C3237 C3239 1.390 . S
C3237 H3241 0.950 . S
H3238 C3234 0.950 . S
C3239 C3237 1.390 . S
C3239 C3240 1.387 . S
C3239 H3242 0.950 . S
C3240 C3239 1.387 . S
C3240 C3243 1.387 . S
H3241 C3237 0.950 . S
H3242 C3239 0.950 . S
C3243 C3234 1.390 . S
C3243 H3236 0.950 . S
C3243 C3240 1.387 . S
C3244 C3245 1.387 . S
C3244 H3248 0.950 . S
C3244 C3253 1.390 . S
C3245 C3244 1.387 . S
C3245 C3247 1.387 . S
H3246 C3253 0.950 . S
C3247 C3245 1.387 . S
C3247 C3249 1.390 . S
C3247 H3251 0.950 . S
H3248 C3244 0.950 . S
C3249 C3247 1.390 . S
C3249 C3250 1.387 . S
C3249 H3252 0.950 . S
C3250 C3249 1.387 . S
C3250 C3253 1.387 . S
H3251 C3247 0.950 . S
H3252 C3249 0.950 . S
C3253 C3244 1.390 . S
C3253 H3246 0.950 . S
C3253 C3250 1.387 . S
C3254 C3255 1.387 . S
C3254 H3258 0.950 . S
C3254 C3263 1.390 . S
C3255 C3254 1.387 . S
C3255 C3257 1.387 . S
H3256 C3263 0.950 . S
C3257 C3255 1.387 . S
C3257 C3259 1.390 . S
C3257 H3261 0.950 . S
H3258 C3254 0.950 . S
C3259 C3257 1.390 . S
C3259 C3260 1.387 . S
C3259 H3262 0.950 . S
C3260 C3259 1.387 . S
C3260 C3263 1.387 . S
H3261 C3257 0.950 . S
H3262 C3259 0.950 . S
C3263 C3254 1.390 . S
C3263 H3256 0.950 . S
C3263 C3260 1.387 . S
C1345 C0 2.110 . S
C1350 C433 2.106 . S
C1355 C770 2.110 . S
C1360 C14 2.110 . S
C1365 C41 2.106 . S
C1370 C392 2.110 . S
C1375 C54 2.110 . S
C1380 C742 2.110 . S
C1385 C364 2.111 . S
C1390 C56 2.111 . S
C1395 C70 2.110 . S
C1400 C714 2.110 . S
C1405 C336 2.111 . S
C1410 C84 2.111 . S
C1415 C98 2.110 . S
C1420 C698 2.110 . S
C1425 C489 2.108 . S
C1430 C125 2.108 . S
C1435 C126 2.110 . S
C1440 C826 2.110 . S
C1445 C153 2.108 . S
C1450 C461 2.108 . S
C1455 C154 2.111 . S
C1460 C798 2.111 . S
C1465 C180 2.111 . S
C1470 C544 2.111 . S
C1475 C883 2.106 . S
C1480 C182 2.110 . S
C1485 C516 2.110 . S
C1490 C209 2.106 . S
C1495 C210 2.110 . S
C1500 C867 2.106 . S
C1505 C910 2.111 . S
C1510 C237 2.108 . S
C1515 C909 2.108 . S
C1520 C239 2.108 . S
C1525 C265 2.107 . S
C1530 C1006 2.111 . S
C1535 C1302 2.111 . S
C1540 C278 2.111 . S
C1545 C656 2.110 . S
C1550 C293 2.106 . S
C1555 C294 2.110 . S
C1560 C1274 2.110 . S
C1565 C320 2.111 . S
C1570 C629 2.108 . S
C1575 C334 2.110 . S
C1580 C937 2.106 . S
C1585 C363 2.106 . S
C1590 C1106 2.110 . S
C1595 C378 2.110 . S
C1600 C1091 2.106 . S
C1605 C406 2.111 . S
C1610 C1050 2.111 . S
C1615 C435 2.108 . S
C1620 C1023 2.108 . S
C1625 C1175 2.107 . S
C1630 C462 2.111 . S
C1635 C490 2.111 . S
C1640 C1135 2.108 . S
C1645 C1218 2.111 . S
C1650 C518 2.111 . S
C1655 C546 2.111 . S
C1660 C1203 2.107 . S
C1665 C560 2.111 . S
C1670 C1247 2.108 . S
C1675 C574 2.110 . S
C1680 C1232 2.110 . S
C1685 C601 2.108 . S
C1690 C1342 2.111 . S
C1695 C966 2.111 . S
C1700 C614 2.111 . S
C1705 C951 2.106 . S
C1710 C630 2.110 . S
C1715 C670 2.111 . S
C1720 C1273 2.108 . S
C1725 C672 2.110 . S
C1730 C1092 2.110 . S
C1735 C1077 2.106 . S
C1740 C713 2.106 . S
C1745 C728 2.110 . S
C1750 C1049 2.106 . S
C1755 C756 2.110 . S
C1760 C1009 2.106 . S
C1765 C1160 2.111 . S
C1770 C796 2.111 . S
C1775 C1132 2.111 . S
C1780 C825 2.108 . S
C1785 C853 2.106 . S
C1790 C1217 2.106 . S
C1795 C1188 2.111 . S
C1800 C880 2.111 . S
C1805 C965 2.106 . S
C1810 C1328 2.110 . S
C1815 C993 2.108 . S
C1820 C1300 2.111 . S
C1825 C13 1.532 . S
C1830 C783 1.533 . S
C1835 C27 1.533 . S
C1840 C405 1.534 . S
C1845 C28 1.533 . S
C1850 C755 1.533 . S
C1855 C420 1.533 . S
C1860 C43 1.532 . S
C1865 C69 1.534 . S
C1870 C350 1.534 . S
C1875 C83 1.533 . S
C1880 C700 1.534 . S
C1885 C97 1.532 . S
C1890 C391 1.533 . S
C1895 C685 1.533 . S
C1900 C111 1.533 . S
C1905 C112 1.534 . S
C1910 C280 1.534 . S
C1915 C139 1.532 . S
C1920 C1258 1.533 . S
C1925 C1260 1.534 . S
C1930 C140 1.535 . S
C1935 C167 1.533 . S
C1940 C1287 1.533 . S
C1945 C995 1.532 . S
C1950 C169 1.532 . S
C1955 C1315 1.533 . S
C1960 C195 1.534 . S
C1965 C196 1.533 . S
C1970 C980 1.533 . S
C1975 C896 1.534 . S
C1980 C223 1.534 . S
C1985 C894 1.534 . S
C1990 C224 1.534 . S
C1995 C1146 1.534 . S
C2000 C250 1.534 . S
C2005 C252 1.533 . S
C2010 C1149 1.532 . S
C2015 C267 1.532 . S
C2020 C1162 1.533 . S
C2025 C307 1.534 . S
C2030 C1190 1.534 . S
C2035 C309 1.534 . S
C2040 C869 1.534 . S
C2045 C840 1.533 . S
C2050 C323 1.532 . S
C2055 C349 1.533 . S
C2060 C1119 1.533 . S
C2065 C1078 1.534 . S
C2070 C377 1.534 . S
C2075 C1036 1.535 . S
C2080 C419 1.534 . S
C2085 C446 1.534 . S
C2090 C1020 1.535 . S
C2095 C448 1.535 . S
C2100 C616 1.535 . S
C2105 C475 1.534 . S
C2110 C923 1.534 . S
C2115 C476 1.533 . S
C2120 C924 1.533 . S
C2125 C503 1.533 . S
C2130 C938 1.534 . S
C2135 C505 1.534 . S
C2140 C1331 1.534 . S
C2145 C979 1.533 . S
C2150 C531 1.533 . S
C2155 C1317 1.533 . S
C2160 C533 1.533 . S
C2165 C1245 1.533 . S
C2170 C559 1.534 . S
C2175 C1231 1.532 . S
C2180 C573 1.533 . S
C2185 C587 1.533 . S
C2190 C811 1.533 . S
C2195 C588 1.533 . S
C2200 C812 1.533 . S
C2205 C603 1.533 . S
C2210 C839 1.532 . S
C2215 C854 1.533 . S
C2220 C643 1.533 . S
C2225 C1204 1.534 . S
C2230 C645 1.533 . S
C2235 C1177 1.534 . S
C2240 C659 1.534 . S
C2245 C687 1.534 . S
C2250 C1064 1.535 . S
C2255 C727 1.533 . S
C2260 C1105 1.534 . S
C2265 C1034 1.533 . S
C2270 C741 1.533 . S
C2275 C1063 1.533 . S
C2280 C769 1.532 . S
C2285 C952 1.535 . S
C2290 C785 1.534 . S
C2295 C1289 1.534 . S
C2300 C1121 1.534 . S
C2305 C12 1.777 . S
C2310 C1303 1.679 . S
C2315 C26 1.777 . S
C2320 C992 1.683 . S
C2325 C908 1.683 . S
C2330 C29 1.775 . S
C2335 C1007 1.675 . S
C2340 C42 1.775 . S
C2345 C68 1.776 . S
C2350 C279 1.676 . S
C2355 C82 1.775 . S
C2360 C1301 1.675 . S
C2365 C238 1.681 . S
C2370 C96 1.776 . S
C2375 C264 1.680 . S
C2380 C110 1.776 . S
C2385 C393 1.675 . S
C2390 C113 1.773 . S
C2395 C138 1.777 . S
C2400 C743 1.678 . S
C2405 C141 1.775 . S
C2410 C432 1.683 . S
C2415 C166 1.776 . S
C2420 C771 1.676 . S
C2425 C337 1.678 . S
C2430 C168 1.777 . S
C2435 C194 1.776 . S
C2440 C699 1.676 . S
C2445 C365 1.679 . S
C2450 C197 1.775 . S
C2455 C222 1.777 . S
C2460 C715 1.679 . S
C2465 C225 1.774 . S
C2470 C1216 1.682 . S
C2475 C488 1.683 . S
C2480 C251 1.775 . S
C2485 C253 1.774 . S
C2490 C827 1.677 . S
C2495 C460 1.684 . S
C2500 C266 1.778 . S
C2505 C281 1.776 . S
C2510 C463 1.679 . S
C2515 C852 1.680 . S
C2520 C306 1.776 . S
C2525 C183 1.679 . S
C2530 C308 1.778 . S
C2535 C211 1.676 . S
C2540 C322 1.776 . S
C2545 C967 1.678 . S
C2550 C348 1.777 . S
C2555 C351 1.775 . S
C2560 C1329 1.679 . S
C2565 C1233 1.676 . S
C2570 C376 1.776 . S
C2575 C390 1.775 . S
C2580 C1343 1.675 . S
C2585 C615 1.679 . S
C2590 C404 1.777 . S
C2595 C964 1.683 . S
C2600 C418 1.777 . S
C2605 C421 1.775 . S
C2610 C575 1.679 . S
C2615 C447 1.773 . S
C2620 C600 1.680 . S
C2625 C449 1.773 . S
C2630 C57 1.675 . S
C2635 C474 1.777 . S
C2640 C1090 1.683 . S
C2645 C85 1.677 . S
C2650 C477 1.774 . S
C2655 C502 1.775 . S
C2660 C1107 1.675 . S
C2665 C1 1.677 . S
C2670 C504 1.776 . S
C2675 C530 1.777 . S
C2680 C1022 1.683 . S
C2685 C40 1.682 . S
C2690 C532 1.777 . S
C2695 C1051 1.676 . S
C2700 C558 1.776 . S
C2705 C572 1.775 . S
C2710 C881 1.676 . S
C2715 C586 1.777 . S
C2720 C152 1.683 . S
C2725 C1174 1.684 . S
C2730 C589 1.775 . S
C2735 C602 1.776 . S
C2740 C124 1.681 . S
C2745 C127 1.679 . S
C2750 C617 1.775 . S
C2755 C642 1.776 . S
C2760 C1189 1.676 . S
C2765 C519 1.676 . S
C2770 C644 1.776 . S
C2775 C658 1.776 . S
C2780 C547 1.677 . S
C2785 C631 1.676 . S
C2790 C684 1.776 . S
C2795 C686 1.776 . S
C2800 C321 1.677 . S
C2805 C701 1.775 . S
C2810 C236 1.683 . S
C2815 C726 1.776 . S
C2820 C335 1.676 . S
C2825 C740 1.775 . S
C2830 C950 1.681 . S
C2835 C628 1.683 . S
C2840 C754 1.777 . S
C2845 C911 1.678 . S
C2850 C768 1.777 . S
C2855 C782 1.777 . S
C2860 C936 1.682 . S
C2865 C1076 1.680 . S
C2870 C784 1.775 . S
C2875 C71 1.679 . S
C2880 C810 1.777 . S
C2885 C1093 1.678 . S
C2890 C813 1.775 . S
C2895 C838 1.776 . S
C2900 C99 1.676 . S
C2905 C1008 1.680 . S
C2910 C841 1.773 . S
C2915 C855 1.773 . S
C2920 C15 1.676 . S
C2925 C1048 1.681 . S
C2930 C868 1.776 . S
C2935 C55 1.675 . S
C2940 C895 1.773 . S
C2945 C545 1.677 . S
C2950 C897 1.775 . S
C2955 C922 1.777 . S
C2960 C1161 1.679 . S
C2965 C925 1.774 . S
C2970 C155 1.677 . S
C2975 C1133 1.679 . S
C2980 C939 1.775 . S
C2985 C953 1.776 . S
C2990 C1134 1.684 . S
C2995 C181 1.679 . S
C3000 C978 1.778 . S
C3005 C866 1.680 . S
C3010 C981 1.773 . S
C3015 C994 1.776 . S
C3020 C882 1.681 . S
C3025 C1021 1.775 . S
C3030 C295 1.678 . S
C3035 C657 1.678 . S
C3040 C1035 1.774 . S
C3045 C561 1.679 . S
C3050 C1037 1.775 . S
C3055 C1062 1.777 . S
C3060 C671 1.679 . S
C3065 C1065 1.774 . S
C3070 C1275 1.677 . S
C3075 C292 1.684 . S
C3080 C1079 1.775 . S
C3085 C1246 1.681 . S
C3090 C1104 1.776 . S
C3095 C1272 1.684 . S
C3100 C1118 1.778 . S
C3105 C729 1.678 . S
C3110 C1120 1.777 . S
C3115 C1147 1.775 . S
C3120 C407 1.679 . S
C3125 C1148 1.777 . S
C3130 C757 1.677 . S
C3135 C1163 1.775 . S
C3140 C434 1.683 . S
C3145 C673 1.679 . S
C3150 C1176 1.777 . S
C3155 C1191 1.775 . S
C3160 C362 1.683 . S
C3165 C1205 1.775 . S
C3170 C712 1.684 . S
C3175 C1230 1.778 . S
C3180 C379 1.679 . S
C3185 C208 1.680 . S
C3190 C1244 1.775 . S
C3195 C1259 1.773 . S
C3200 C824 1.680 . S
C3205 C1261 1.773 . S
C3210 C491 1.676 . S
C3215 C1286 1.777 . S
C3220 C797 1.678 . S
C3225 C1288 1.775 . S
C3230 C799 1.676 . S
C3235 C517 1.679 . S
C3240 C1314 1.778 . S
C3245 C1202 1.684 . S
C3250 C1316 1.778 . S
C3255 C1219 1.679 . S
C3260 C1330 1.778 . S
