# Generated by pormake.
# Topology hbo, (4)-cn, num edge types: 1
# Building blocks:
#     Node 0, Type 0, BuildingBlock: QUQFOY_clean_sbu_1, # of connection points: 4
#     Node 1, Type 0, BuildingBlock: QUQFOY_clean_sbu_1, # of connection points: 4
#     Node 2, Type 0, BuildingBlock: QUQFOY_clean_sbu_1, # of connection points: 4
#     Node 3, Type 0, BuildingBlock: QUQFOY_clean_sbu_1, # of connection points: 4
#     Node 4, Type 0, BuildingBlock: QUQFOY_clean_sbu_1, # of connection points: 4
#     Node 5, Type 0, BuildingBlock: QUQFOY_clean_sbu_1, # of connection points: 4
#     Node 6, Type 0, BuildingBlock: QUQFOY_clean_sbu_1, # of connection points: 4
#     Node 7, Type 0, BuildingBlock: QUQFOY_clean_sbu_1, # of connection points: 4
#     Node 8, Type 0, BuildingBlock: QUQFOY_clean_sbu_1, # of connection points: 4
#     Node 9, Type 0, BuildingBlock: QUQFOY_clean_sbu_1, # of connection points: 4
#     Node 10, Type 0, BuildingBlock: QUQFOY_clean_sbu_1, # of connection points: 4
#     Node 11, Type 0, BuildingBlock: QUQFOY_clean_sbu_1, # of connection points: 4
#     Node 12, Type 0, BuildingBlock: QUQFOY_clean_sbu_1, # of connection points: 4
#     Node 13, Type 0, BuildingBlock: QUQFOY_clean_sbu_1, # of connection points: 4
#     Node 14, Type 0, BuildingBlock: QUQFOY_clean_sbu_1, # of connection points: 4
#     Node 15, Type 0, BuildingBlock: QUQFOY_clean_sbu_1, # of connection points: 4
#     Node 16, Type 0, BuildingBlock: QUQFOY_clean_sbu_1, # of connection points: 4
#     Node 17, Type 0, BuildingBlock: QUQFOY_clean_sbu_1, # of connection points: 4
#     Node 18, Type 0, BuildingBlock: QUQFOY_clean_sbu_1, # of connection points: 4
#     Node 19, Type 0, BuildingBlock: QUQFOY_clean_sbu_1, # of connection points: 4
#     Node 20, Type 0, BuildingBlock: QUQFOY_clean_sbu_1, # of connection points: 4
#     Node 21, Type 0, BuildingBlock: QUQFOY_clean_sbu_1, # of connection points: 4
#     Node 22, Type 0, BuildingBlock: QUQFOY_clean_sbu_1, # of connection points: 4
#     Node 23, Type 0, BuildingBlock: QUQFOY_clean_sbu_1, # of connection points: 4
#     Edge 24, Type (0, 0), BuildingBlock: XUDNAN_clean_linker_2, # of connection points: 2
#     Edge 25, Type (0, 0), BuildingBlock: XUDNAN_clean_linker_2, # of connection points: 2
#     Edge 26, Type (0, 0), BuildingBlock: XUDNAN_clean_linker_2, # of connection points: 2
#     Edge 27, Type (0, 0), BuildingBlock: XUDNAN_clean_linker_2, # of connection points: 2
#     Edge 28, Type (0, 0), BuildingBlock: XUDNAN_clean_linker_2, # of connection points: 2
#     Edge 29, Type (0, 0), BuildingBlock: XUDNAN_clean_linker_2, # of connection points: 2
#     Edge 30, Type (0, 0), BuildingBlock: XUDNAN_clean_linker_2, # of connection points: 2
#     Edge 31, Type (0, 0), BuildingBlock: XUDNAN_clean_linker_2, # of connection points: 2
#     Edge 32, Type (0, 0), BuildingBlock: XUDNAN_clean_linker_2, # of connection points: 2
#     Edge 33, Type (0, 0), BuildingBlock: XUDNAN_clean_linker_2, # of connection points: 2
#     Edge 34, Type (0, 0), BuildingBlock: XUDNAN_clean_linker_2, # of connection points: 2
#     Edge 35, Type (0, 0), BuildingBlock: XUDNAN_clean_linker_2, # of connection points: 2
#     Edge 36, Type (0, 0), BuildingBlock: XUDNAN_clean_linker_2, # of connection points: 2
#     Edge 37, Type (0, 0), BuildingBlock: XUDNAN_clean_linker_2, # of connection points: 2
#     Edge 38, Type (0, 0), BuildingBlock: XUDNAN_clean_linker_2, # of connection points: 2
#     Edge 39, Type (0, 0), BuildingBlock: XUDNAN_clean_linker_2, # of connection points: 2
#     Edge 40, Type (0, 0), BuildingBlock: XUDNAN_clean_linker_2, # of connection points: 2
#     Edge 41, Type (0, 0), BuildingBlock: XUDNAN_clean_linker_2, # of connection points: 2
#     Edge 42, Type (0, 0), BuildingBlock: XUDNAN_clean_linker_2, # of connection points: 2
#     Edge 43, Type (0, 0), BuildingBlock: XUDNAN_clean_linker_2, # of connection points: 2
#     Edge 44, Type (0, 0), BuildingBlock: XUDNAN_clean_linker_2, # of connection points: 2
#     Edge 45, Type (0, 0), BuildingBlock: XUDNAN_clean_linker_2, # of connection points: 2
#     Edge 46, Type (0, 0), BuildingBlock: XUDNAN_clean_linker_2, # of connection points: 2
#     Edge 47, Type (0, 0), BuildingBlock: XUDNAN_clean_linker_2, # of connection points: 2
#     Edge 48, Type (0, 0), BuildingBlock: XUDNAN_clean_linker_2, # of connection points: 2
#     Edge 49, Type (0, 0), BuildingBlock: XUDNAN_clean_linker_2, # of connection points: 2
#     Edge 50, Type (0, 0), BuildingBlock: XUDNAN_clean_linker_2, # of connection points: 2
#     Edge 51, Type (0, 0), BuildingBlock: XUDNAN_clean_linker_2, # of connection points: 2
#     Edge 52, Type (0, 0), BuildingBlock: XUDNAN_clean_linker_2, # of connection points: 2
#     Edge 53, Type (0, 0), BuildingBlock: XUDNAN_clean_linker_2, # of connection points: 2
#     Edge 54, Type (0, 0), BuildingBlock: XUDNAN_clean_linker_2, # of connection points: 2
#     Edge 55, Type (0, 0), BuildingBlock: XUDNAN_clean_linker_2, # of connection points: 2
#     Edge 56, Type (0, 0), BuildingBlock: XUDNAN_clean_linker_2, # of connection points: 2
#     Edge 57, Type (0, 0), BuildingBlock: XUDNAN_clean_linker_2, # of connection points: 2
#     Edge 58, Type (0, 0), BuildingBlock: XUDNAN_clean_linker_2, # of connection points: 2
#     Edge 59, Type (0, 0), BuildingBlock: XUDNAN_clean_linker_2, # of connection points: 2
#     Edge 60, Type (0, 0), BuildingBlock: XUDNAN_clean_linker_2, # of connection points: 2
#     Edge 61, Type (0, 0), BuildingBlock: XUDNAN_clean_linker_2, # of connection points: 2
#     Edge 62, Type (0, 0), BuildingBlock: XUDNAN_clean_linker_2, # of connection points: 2
#     Edge 63, Type (0, 0), BuildingBlock: XUDNAN_clean_linker_2, # of connection points: 2
#     Edge 64, Type (0, 0), BuildingBlock: XUDNAN_clean_linker_2, # of connection points: 2
#     Edge 65, Type (0, 0), BuildingBlock: XUDNAN_clean_linker_2, # of connection points: 2
#     Edge 66, Type (0, 0), BuildingBlock: XUDNAN_clean_linker_2, # of connection points: 2
#     Edge 67, Type (0, 0), BuildingBlock: XUDNAN_clean_linker_2, # of connection points: 2
#     Edge 68, Type (0, 0), BuildingBlock: XUDNAN_clean_linker_2, # of connection points: 2
#     Edge 69, Type (0, 0), BuildingBlock: XUDNAN_clean_linker_2, # of connection points: 2
#     Edge 70, Type (0, 0), BuildingBlock: XUDNAN_clean_linker_2, # of connection points: 2
#     Edge 71, Type (0, 0), BuildingBlock: XUDNAN_clean_linker_2, # of connection points: 2
# Relax obj value: 0.234
# Max RMSD: 0.214
# Mean RMSD: 0.214
data_MOF--net-hbo--node1-QUQFOY_clean_sbu_1--edge1-XUDNAN_clean_linker_2
_symmetry_space_group_name_H-M    P1
_symmetry_Int_Tables_number       1
_symmetry_cell_setting            triclinic
loop_
_symmetry_equiv_pos_as_xyz
'x, y, z'
_cell_length_a     54.751447
_cell_length_b     54.615901
_cell_length_c     54.669703
_cell_angle_alpha  89.991024
_cell_angle_beta   89.999823
_cell_angle_gamma 89.965667
loop_
_atom_site_label
_atom_site_type_symbol
_atom_site_fract_x
_atom_site_fract_y
_atom_site_fract_z
_atom_type_partial_charge
O0 O 0.13488 0.31967 0.25743 0.0
Cd1 Cd 0.12799 0.34356 0.22892 0.0
Cd2 Cd 0.15783 0.37316 0.25436 0.0
O3 O 0.15408 0.34632 0.28078 0.0
O4 O 0.09955 0.32947 0.21122 0.0
O5 O 0.09815 0.36531 0.22999 0.0
C6 C 0.08722 0.34861 0.21735 0.0
C7 C 0.15513 0.4143 0.26611 0.0
C8 C 0.14532 0.32501 0.27749 0.0
C9 C 0.17626 0.35454 0.20601 0.0
O10 O 0.18155 0.36531 0.22593 0.0
O11 O 0.15491 0.34608 0.20265 0.0
O12 O 0.17349 0.40083 0.2721 0.0
O13 O 0.13782 0.40433 0.25353 0.0
O14 O 0.14019 0.68339 0.74513 0.0
Cd15 Cd 0.13272 0.65858 0.77251 0.0
Cd16 Cd 0.16231 0.62957 0.74721 0.0
O17 O 0.159 0.657 0.72117 0.0
O18 O 0.1004 0.66763 0.78653 0.0
O19 O 0.10741 0.63285 0.76683 0.0
C20 C 0.09222 0.64722 0.77788 0.0
C21 C 0.15925 0.58856 0.73492 0.0
C22 C 0.15055 0.67837 0.72496 0.0
C23 C 0.17964 0.64721 0.7967 0.0
O24 O 0.18513 0.63682 0.7766 0.0
O25 O 0.15831 0.65585 0.79992 0.0
O26 O 0.17794 0.60178 0.72941 0.0
O27 O 0.1419 0.59871 0.74729 0.0
O28 O 0.81766 0.63154 0.24043 0.0
Cd29 Cd 0.84323 0.62933 0.26794 0.0
Cd30 Cd 0.86935 0.65841 0.23837 0.0
O31 O 0.8393 0.65481 0.21558 0.0
O32 O 0.83706 0.59806 0.28579 0.0
O33 O 0.87063 0.60531 0.26438 0.0
C34 C 0.85771 0.59036 0.27734 0.0
C35 C 0.90886 0.65349 0.22288 0.0
C36 C 0.81977 0.64316 0.2204 0.0
C37 C 0.85465 0.67901 0.28746 0.0
O38 O 0.86568 0.68241 0.26728 0.0
O39 O 0.84449 0.65856 0.29203 0.0
O40 O 0.89577 0.67234 0.21745 0.0
O41 O 0.8993 0.63695 0.23676 0.0
O42 O 0.8192 0.36984 0.76607 0.0
Cd43 Cd 0.84523 0.37342 0.739 0.0
Cd44 Cd 0.86963 0.34191 0.76711 0.0
O45 O 0.8404 0.34592 0.79065 0.0
O46 O 0.83696 0.40461 0.72191 0.0
O47 O 0.8713 0.39891 0.74252 0.0
C48 C 0.85732 0.41329 0.73002 0.0
C49 C 0.90957 0.34731 0.78097 0.0
C50 C 0.82103 0.35783 0.7859 0.0
C51 C 0.85483 0.32402 0.7174 0.0
O52 O 0.86414 0.31857 0.738 0.0
O53 O 0.84717 0.34565 0.71333 0.0
O54 O 0.89699 0.32825 0.7869 0.0
O55 O 0.8993 0.36366 0.76734 0.0
O56 O 0.23533 0.18472 0.36638 0.0
Cd57 Cd 0.26296 0.15957 0.37216 0.0
Cd58 Cd 0.23636 0.13406 0.33905 0.0
O59 O 0.21199 0.16283 0.34187 0.0
O60 O 0.28137 0.17448 0.39978 0.0
O61 O 0.26238 0.13901 0.40308 0.0
C62 C 0.2752 0.1561 0.41314 0.0
C63 C 0.2236 0.09344 0.34268 0.0
C64 C 0.21605 0.18249 0.35362 0.0
C65 C 0.28628 0.1496 0.32322 0.0
O66 O 0.26602 0.14028 0.31678 0.0
O67 O 0.28933 0.15701 0.34506 0.0
O68 O 0.21812 0.10653 0.32383 0.0
O69 O 0.23591 0.10367 0.36007 0.0
O70 O 0.37228 0.75825 0.81968 0.0
Cd71 Cd 0.37507 0.7323 0.84687 0.0
Cd72 Cd 0.35069 0.76585 0.87298 0.0
O73 O 0.35431 0.78691 0.84166 0.0
O74 O 0.40077 0.7094 0.83514 0.0
O75 O 0.40519 0.73258 0.86803 0.0
C76 C 0.41434 0.71689 0.85289 0.0
C77 C 0.36018 0.78162 0.91147 0.0
C78 C 0.36327 0.77961 0.82147 0.0
C79 C 0.32491 0.71827 0.86357 0.0
O80 O 0.32358 0.7397 0.87252 0.0
O81 O 0.34441 0.71107 0.85316 0.0
O82 O 0.34137 0.78908 0.8994 0.0
O83 O 0.37429 0.76561 0.9013 0.0
O84 O 0.75701 0.81426 0.36775 0.0
Cd85 Cd 0.72844 0.83822 0.37278 0.0
Cd86 Cd 0.75678 0.87013 0.34848 0.0
O87 O 0.78186 0.84182 0.35201 0.0
O88 O 0.71188 0.83091 0.40443 0.0
O89 O 0.73232 0.86519 0.39707 0.0
C90 C 0.72004 0.85173 0.41214 0.0
C91 C 0.77076 0.91059 0.35219 0.0
C92 C 0.7778 0.82003 0.35921 0.0
C93 C 0.70944 0.8533 0.32455 0.0
O94 O 0.72921 0.86544 0.323 0.0
O95 O 0.70448 0.84133 0.34387 0.0
O96 O 0.77682 0.89696 0.33398 0.0
O97 O 0.75705 0.90113 0.36889 0.0
O98 O 0.63153 0.23735 0.82241 0.0
Cd99 Cd 0.62763 0.26523 0.8478 0.0
Cd100 Cd 0.65916 0.23679 0.87225 0.0
O101 O 0.65531 0.21251 0.8436 0.0
O102 O 0.60012 0.28552 0.83494 0.0
O103 O 0.59802 0.26541 0.86992 0.0
C104 C 0.5877 0.27943 0.85399 0.0
C105 C 0.64675 0.22915 0.91214 0.0
C106 C 0.64341 0.21739 0.82421 0.0
C107 C 0.67782 0.28579 0.85765 0.0
O108 O 0.68332 0.26502 0.86655 0.0
O109 O 0.65613 0.29006 0.85047 0.0
O110 O 0.66712 0.22044 0.90392 0.0
O111 O 0.63304 0.24137 0.89726 0.0
O112 O 0.27025 0.86268 0.68543 0.0
Cd113 Cd 0.24104 0.86943 0.66277 0.0
Cd114 Cd 0.26649 0.84348 0.63005 0.0
O115 O 0.29301 0.84523 0.65711 0.0
O116 O 0.22642 0.90167 0.67166 0.0
O117 O 0.24488 0.89439 0.63629 0.0
C118 C 0.23407 0.90967 0.65077 0.0
C119 C 0.27848 0.8468 0.58897 0.0
C120 C 0.29021 0.85273 0.67897 0.0
C121 C 0.21889 0.82206 0.64906 0.0
O122 O 0.238 0.81942 0.6361 0.0
O123 O 0.21538 0.84176 0.66096 0.0
O124 O 0.28427 0.82814 0.60214 0.0
O125 O 0.26625 0.86417 0.59926 0.0
O126 O 0.68034 0.73229 0.13662 0.0
Cd127 Cd 0.65516 0.75974 0.13017 0.0
Cd128 Cd 0.62667 0.73292 0.15906 0.0
O129 O 0.65455 0.70767 0.1554 0.0
O130 O 0.66282 0.77529 0.098 0.0
O131 O 0.62897 0.75434 0.1053 0.0
C132 C 0.64237 0.76652 0.09014 0.0
C133 C 0.58619 0.72038 0.15374 0.0
C134 C 0.67572 0.71189 0.14683 0.0
C135 C 0.64297 0.78199 0.17824 0.0
O136 O 0.6329 0.76156 0.18304 0.0
O137 O 0.65177 0.78601 0.15708 0.0
O138 O 0.59859 0.71407 0.17277 0.0
O139 O 0.59687 0.73369 0.13745 0.0
O140 O 0.73574 0.13749 0.68537 0.0
Cd141 Cd 0.76415 0.13185 0.66139 0.0
Cd142 Cd 0.7361 0.15677 0.62984 0.0
O143 O 0.71098 0.154 0.65817 0.0
O144 O 0.78051 0.10024 0.66951 0.0
O145 O 0.76026 0.10691 0.63501 0.0
C146 C 0.77242 0.09208 0.64885 0.0
C147 C 0.72274 0.15215 0.58933 0.0
C148 C 0.71511 0.14661 0.67987 0.0
C149 C 0.7839 0.17983 0.64618 0.0
O150 O 0.76404 0.18185 0.63427 0.0
O151 O 0.78859 0.16035 0.65803 0.0
O152 O 0.71654 0.17076 0.60239 0.0
O153 O 0.73612 0.13555 0.59946 0.0
O154 O 0.31976 0.25982 0.12992 0.0
Cd155 Cd 0.34696 0.23374 0.12887 0.0
Cd156 Cd 0.37173 0.26692 0.15458 0.0
O157 O 0.34091 0.28824 0.14919 0.0
O158 O 0.33789 0.21095 0.10197 0.0
O159 O 0.37059 0.23473 0.10064 0.0
C160 C 0.35664 0.21885 0.09008 0.0
C161 C 0.41086 0.28209 0.1472 0.0
C162 C 0.32123 0.28115 0.13908 0.0
C163 C 0.36032 0.21961 0.18006 0.0
O164 O 0.36949 0.2409 0.18177 0.0
O165 O 0.35097 0.21245 0.16 0.0
O166 O 0.39793 0.28969 0.16539 0.0
O167 O 0.40117 0.26638 0.13245 0.0
O168 O 0.86601 0.68572 0.73352 0.0
Cd169 Cd 0.87366 0.66271 0.76254 0.0
Cd170 Cd 0.84334 0.63221 0.73706 0.0
O171 O 0.84536 0.65941 0.7108 0.0
O172 O 0.90581 0.67252 0.7774 0.0
O173 O 0.89936 0.63714 0.75889 0.0
C174 C 0.91415 0.65164 0.77008 0.0
C175 C 0.85447 0.59169 0.72908 0.0
C176 C 0.85458 0.68059 0.71391 0.0
C177 C 0.82608 0.65039 0.78631 0.0
O178 O 0.82085 0.63911 0.76663 0.0
O179 O 0.84707 0.66 0.78917 0.0
O180 O 0.8335 0.59999 0.72212 0.0
O181 O 0.8691 0.60658 0.73998 0.0
O182 O 0.8673 0.32116 0.26499 0.0
Cd183 Cd 0.8703 0.34636 0.23705 0.0
Cd184 Cd 0.84427 0.37362 0.2684 0.0
O185 O 0.84691 0.34372 0.29156 0.0
O186 O 0.89632 0.33299 0.21525 0.0
O187 O 0.90043 0.36758 0.23579 0.0
C188 C 0.90972 0.35141 0.2213 0.0
C189 C 0.85867 0.41254 0.2779 0.0
C190 C 0.85706 0.32359 0.28572 0.0
C191 C 0.82002 0.36135 0.22085 0.0
O192 O 0.81796 0.37164 0.2416 0.0
O193 O 0.83985 0.35075 0.21491 0.0
O194 O 0.83843 0.4045 0.287 0.0
O195 O 0.87128 0.3979 0.26428 0.0
O196 O 0.18294 0.36343 0.7733 0.0
Cd197 Cd 0.15931 0.36937 0.74458 0.0
Cd198 Cd 0.12729 0.34609 0.77363 0.0
O199 O 0.15526 0.34931 0.79891 0.0
O200 O 0.17391 0.39629 0.72493 0.0
O201 O 0.13887 0.4001 0.74476 0.0
C202 C 0.15572 0.40985 0.73137 0.0
C203 C 0.08693 0.35204 0.78649 0.0
C204 C 0.17717 0.35557 0.7944 0.0
C205 C 0.14282 0.32053 0.72706 0.0
O206 O 0.13143 0.31929 0.74728 0.0
O207 O 0.15433 0.33992 0.72131 0.0
O208 O 0.09967 0.33359 0.7937 0.0
O209 O 0.09732 0.36781 0.7723 0.0
O210 O 0.18222 0.64035 0.22661 0.0
Cd211 Cd 0.15932 0.63382 0.25576 0.0
Cd212 Cd 0.12668 0.65852 0.22855 0.0
O213 O 0.15422 0.65662 0.20264 0.0
O214 O 0.17414 0.60626 0.27434 0.0
O215 O 0.13847 0.60339 0.25551 0.0
C216 C 0.15552 0.59314 0.26827 0.0
C217 C 0.08618 0.65276 0.21604 0.0
C218 C 0.17609 0.6496 0.20618 0.0
C219 C 0.14352 0.68204 0.2757 0.0
O220 O 0.1312 0.68404 0.25609 0.0
O221 O 0.15547 0.66256 0.28007 0.0
O222 O 0.09858 0.6717 0.20957 0.0
O223 O 0.09697 0.63646 0.22932 0.0
O224 O 0.7612 0.82201 0.63286 0.0
Cd225 Cd 0.73237 0.84608 0.62979 0.0
Cd226 Cd 0.7626 0.87396 0.6583 0.0
O227 O 0.78621 0.84438 0.65538 0.0
O228 O 0.71423 0.83671 0.59927 0.0
O229 O 0.73358 0.8719 0.60392 0.0
C230 C 0.72123 0.85733 0.5901 0.0
C231 C 0.77286 0.91374 0.6466 0.0
C232 C 0.78139 0.82457 0.64409 0.0
C233 C 0.71383 0.859 0.67965 0.0
O234 O 0.73396 0.87025 0.68249 0.0
O235 O 0.70899 0.84824 0.65956 0.0
O236 O 0.78036 0.90487 0.66718 0.0
O237 O 0.76047 0.89959 0.63237 0.0
O238 O 0.63262 0.23933 0.18001 0.0
Cd239 Cd 0.62822 0.26788 0.15546 0.0
Cd240 Cd 0.66062 0.24102 0.13029 0.0
O241 O 0.65774 0.21615 0.15854 0.0
O242 O 0.6002 0.28712 0.16879 0.0
O243 O 0.59868 0.26805 0.13322 0.0
C244 C 0.58798 0.28132 0.14952 0.0
C245 C 0.64824 0.23291 0.09047 0.0
C246 C 0.64536 0.21996 0.17785 0.0
C247 C 0.67791 0.29013 0.14622 0.0
O248 O 0.68391 0.26995 0.13634 0.0
O249 O 0.65619 0.29343 0.15382 0.0
O250 O 0.669 0.22506 0.09856 0.0
O251 O 0.63424 0.24476 0.10539 0.0
O252 O 0.23304 0.18242 0.64205 0.0
Cd253 Cd 0.26237 0.16021 0.63319 0.0
Cd254 Cd 0.23938 0.12945 0.66292 0.0
O255 O 0.21151 0.15497 0.66228 0.0
O256 O 0.2786 0.17681 0.6051 0.0
O257 O 0.26181 0.14017 0.60207 0.0
C258 C 0.27331 0.15806 0.59183 0.0
C259 C 0.23378 0.08885 0.6511 0.0
C260 C 0.2138 0.17649 0.65367 0.0
C261 C 0.28734 0.14862 0.68055 0.0
O262 O 0.26801 0.13709 0.68629 0.0
O263 O 0.28959 0.15776 0.65929 0.0
O264 O 0.22626 0.09664 0.67209 0.0
O265 O 0.24389 0.10443 0.63647 0.0
O266 O 0.36761 0.76411 0.17954 0.0
Cd267 Cd 0.36998 0.73762 0.15285 0.0
Cd268 Cd 0.34526 0.77053 0.12661 0.0
O269 O 0.34889 0.79222 0.15747 0.0
O270 O 0.3955 0.71471 0.16498 0.0
O271 O 0.40003 0.73709 0.13156 0.0
C272 C 0.40906 0.72162 0.147 0.0
C273 C 0.35612 0.78471 0.08789 0.0
C274 C 0.35833 0.78534 0.17759 0.0
C275 C 0.31952 0.72329 0.13704 0.0
O276 O 0.31804 0.74451 0.12762 0.0
O277 O 0.33917 0.71638 0.14737 0.0
O278 O 0.33707 0.79291 0.09909 0.0
O279 O 0.36964 0.76885 0.09907 0.0
O280 O 0.73656 0.13697 0.31684 0.0
Cd281 Cd 0.76398 0.1299 0.34187 0.0
Cd282 Cd 0.73714 0.15872 0.37057 0.0
O283 O 0.71171 0.155 0.34292 0.0
O284 O 0.78223 0.10138 0.32851 0.0
O285 O 0.76173 0.09988 0.36334 0.0
C286 C 0.77506 0.08892 0.34719 0.0
C287 C 0.72463 0.15418 0.4112 0.0
C288 C 0.71607 0.14685 0.32159 0.0
C289 C 0.78573 0.17834 0.35452 0.0
O290 O 0.7652 0.18327 0.36421 0.0
O291 O 0.78987 0.15704 0.34614 0.0
O292 O 0.71836 0.1729 0.3983 0.0
O293 O 0.73792 0.13757 0.4009 0.0
O294 O 0.3194 0.26264 0.87366 0.0
Cd295 Cd 0.34606 0.23601 0.87474 0.0
Cd296 Cd 0.37157 0.26858 0.84895 0.0
O297 O 0.34105 0.29038 0.85394 0.0
O298 O 0.33663 0.21332 0.90161 0.0
O299 O 0.36979 0.23645 0.90291 0.0
C300 C 0.35561 0.22075 0.91343 0.0
C301 C 0.41082 0.28329 0.85657 0.0
C302 C 0.32126 0.28381 0.86418 0.0
C303 C 0.35945 0.2214 0.82365 0.0
O304 O 0.36917 0.24245 0.82191 0.0
O305 O 0.3497 0.2146 0.84364 0.0
O306 O 0.39815 0.29095 0.83822 0.0
O307 O 0.4008 0.26778 0.87132 0.0
O308 O 0.26668 0.86668 0.31602 0.0
Cd309 Cd 0.23774 0.87372 0.33931 0.0
Cd310 Cd 0.2631 0.84356 0.36929 0.0
O311 O 0.28967 0.84721 0.34278 0.0
O312 O 0.22006 0.90147 0.3237 0.0
O313 O 0.23782 0.90456 0.35986 0.0
C314 C 0.22554 0.91471 0.34241 0.0
C315 C 0.27479 0.84611 0.41039 0.0
C316 C 0.28662 0.8561 0.32151 0.0
C317 C 0.21502 0.82508 0.35032 0.0
O318 O 0.23487 0.81977 0.36116 0.0
O319 O 0.21163 0.84651 0.34191 0.0
O320 O 0.28065 0.82768 0.39691 0.0
O321 O 0.26228 0.86354 0.40046 0.0
O322 O 0.68054 0.73769 0.86871 0.0
Cd323 Cd 0.65298 0.76326 0.87214 0.0
Cd324 Cd 0.63095 0.734 0.83985 0.0
O325 O 0.66105 0.71175 0.84478 0.0
O326 O 0.65947 0.78032 0.90383 0.0
O327 O 0.62673 0.75759 0.89707 0.0
C328 C 0.63957 0.77063 0.91198 0.0
C329 C 0.59134 0.71948 0.84559 0.0
C330 C 0.67997 0.71765 0.8569 0.0
C331 C 0.64361 0.78456 0.82254 0.0
O332 O 0.63582 0.76342 0.81673 0.0
O333 O 0.65012 0.78903 0.84446 0.0
O334 O 0.6039 0.71342 0.82655 0.0
O335 O 0.60151 0.73346 0.86167 0.0
H336 H 0.12749 0.55673 0.24755 0.0
H337 H 0.18252 0.57006 0.30312 0.0
H338 H 0.18506 0.52578 0.31128 0.0
H339 H 0.09767 0.50358 0.2783 0.0
H340 H 0.09299 0.48762 0.24983 0.0
H341 H 0.09301 0.52063 0.25044 0.0
H342 H 0.12698 0.5212 0.21747 0.0
H343 H 0.12715 0.48826 0.21684 0.0
H344 H 0.15502 0.50474 0.22291 0.0
H345 H 0.18514 0.48048 0.31053 0.0
H346 H 0.18255 0.43647 0.30115 0.0
H347 H 0.12742 0.45145 0.24607 0.0
C348 C 0.13959 0.55034 0.26187 0.0
C349 C 0.15469 0.56687 0.27484 0.0
C350 C 0.17073 0.55777 0.29302 0.0
C351 C 0.17225 0.53264 0.29785 0.0
C352 C 0.15759 0.51678 0.28437 0.0
C353 C 0.14146 0.52519 0.26683 0.0
C354 C 0.12926 0.50399 0.25365 0.0
C355 C 0.10159 0.50396 0.25834 0.0
C356 C 0.13495 0.50459 0.22609 0.0
C357 C 0.14158 0.48242 0.26609 0.0
C358 C 0.15766 0.4903 0.28392 0.0
C359 C 0.17235 0.47404 0.29689 0.0
C360 C 0.1708 0.44907 0.29135 0.0
C361 C 0.15468 0.44051 0.27299 0.0
C362 C 0.13961 0.45742 0.26048 0.0
H363 H 0.95121 0.67986 0.78875 0.0
H364 H 0.93579 0.60808 0.75836 0.0
H365 H 0.97956 0.59763 0.7607 0.0
H366 H 0.0051 0.69002 0.75634 0.0
H367 H 0.02082 0.70548 0.78084 0.0
H368 H 0.98802 0.70633 0.77936 0.0
H369 H 0.98542 0.68859 0.82326 0.0
H370 H 0.01829 0.68771 0.8249 0.0
H371 H 0.00084 0.66027 0.83031 0.0
H372 H 0.02534 0.59638 0.76267 0.0
H373 H 0.0697 0.60453 0.76425 0.0
H374 H 0.05518 0.6769 0.7937 0.0
C375 C 0.95697 0.66178 0.78302 0.0
C376 C 0.94007 0.64477 0.77345 0.0
C377 C 0.94839 0.62141 0.76582 0.0
C378 C 0.97322 0.61526 0.76713 0.0
C379 C 0.98948 0.6326 0.77626 0.0
C380 C 0.98169 0.65534 0.7842 0.0
C381 C 0.00305 0.67122 0.79176 0.0
C382 C 0.00431 0.69464 0.77614 0.0
C383 C 0.00182 0.6773 0.81919 0.0
C384 C 0.02409 0.65411 0.78619 0.0
C385 C 0.01588 0.63183 0.77749 0.0
C386 C 0.03199 0.61362 0.76978 0.0
C387 C 0.05715 0.61843 0.77071 0.0
C388 C 0.06591 0.64128 0.77923 0.0
C389 C 0.04909 0.65913 0.78741 0.0
H390 H 0.83221 0.44934 0.29911 0.0
H391 H 0.9013 0.43441 0.26317 0.0
H392 H 0.91099 0.47859 0.2638 0.0
H393 H 0.81803 0.50085 0.26583 0.0
H394 H 0.80395 0.51745 0.29059 0.0
H395 H 0.80423 0.48455 0.29096 0.0
H396 H 0.82539 0.48493 0.33336 0.0
H397 H 0.82507 0.51793 0.3332 0.0
H398 H 0.85345 0.50171 0.33735 0.0
H399 H 0.91076 0.52471 0.26368 0.0
H400 H 0.90056 0.56879 0.26274 0.0
H401 H 0.83156 0.55336 0.29863 0.0
C402 C 0.8497 0.45525 0.292 0.0
C403 C 0.86608 0.43839 0.28126 0.0
C404 C 0.88853 0.44697 0.27164 0.0
C405 C 0.89422 0.47203 0.27196 0.0
C406 C 0.87733 0.48825 0.28207 0.0
C407 C 0.85559 0.48017 0.29207 0.0
C408 C 0.83954 0.50142 0.29972 0.0
C409 C 0.815 0.50103 0.28595 0.0
C410 C 0.83564 0.5015 0.32756 0.0
C411 C 0.85527 0.52274 0.29174 0.0
C412 C 0.87715 0.51482 0.28191 0.0
C413 C 0.89387 0.53115 0.27172 0.0
C414 C 0.8879 0.55615 0.27124 0.0
C415 C 0.86534 0.56456 0.28075 0.0
C416 C 0.84911 0.5476 0.29154 0.0
H417 H 0.05057 0.37801 0.76328 0.0
H418 H 0.06425 0.32897 0.82423 0.0
H419 H 0.02008 0.32661 0.83235 0.0
H420 H 0.996 0.40979 0.79049 0.0
H421 H 0.9806 0.41117 0.76138 0.0
H422 H 0.01349 0.41229 0.76267 0.0
H423 H 0.01587 0.37527 0.73315 0.0
H424 H 0.98307 0.37392 0.7319 0.0
H425 H 1.00027 0.34728 0.74099 0.0
H426 H 0.975 0.32465 0.83045 0.0
H427 H 0.93137 0.32421 0.8193 0.0
H428 H 0.94592 0.37486 0.75991 0.0
C429 C 0.04427 0.36743 0.7788 0.0
C430 C 0.06084 0.35381 0.79325 0.0
C431 C 0.05189 0.33961 0.81298 0.0
C432 C 0.02683 0.33822 0.81779 0.0
C433 C 0.01089 0.3512 0.80278 0.0
C434 C 0.01919 0.36571 0.78379 0.0
C435 C 0.99799 0.3759 0.76906 0.0
C436 C 0.99696 0.40396 0.77102 0.0
C437 C 0.99939 0.36759 0.74219 0.0
C438 C 0.97661 0.36412 0.78222 0.0
C439 C 0.98452 0.35017 0.80177 0.0
C440 C 0.96851 0.3359 0.8155 0.0
C441 C 0.94378 0.33568 0.80896 0.0
C442 C 0.93526 0.34967 0.78891 0.0
C443 C 0.95186 0.36439 0.77565 0.0
H444 H 0.1283 0.44677 0.75204 0.0
H445 H 0.18309 0.43247 0.69646 0.0
H446 H 0.18668 0.47673 0.68862 0.0
H447 H 0.09981 0.50094 0.72151 0.0
H448 H 0.0954 0.51674 0.75012 0.0
H449 H 0.0946 0.48375 0.74917 0.0
H450 H 0.12837 0.48198 0.7823 0.0
H451 H 0.12939 0.51489 0.78325 0.0
H452 H 0.15685 0.49773 0.77714 0.0
H453 H 0.18809 0.52208 0.69001 0.0
H454 H 0.18657 0.56607 0.69992 0.0
H455 H 0.13064 0.5519 0.75438 0.0
C456 C 0.14054 0.45294 0.73776 0.0
C457 C 0.1553 0.43614 0.72473 0.0
C458 C 0.17155 0.44497 0.70661 0.0
C459 C 0.17368 0.4701 0.70197 0.0
C460 C 0.15939 0.48622 0.71555 0.0
C461 C 0.14299 0.47807 0.73296 0.0
C462 C 0.13127 0.49945 0.74629 0.0
C463 C 0.10362 0.50026 0.74148 0.0
C464 C 0.13681 0.49844 0.77387 0.0
C465 C 0.14418 0.5208 0.73412 0.0
C466 C 0.16015 0.5127 0.71629 0.0
C467 C 0.17537 0.52871 0.70363 0.0
C468 C 0.17444 0.55366 0.70947 0.0
C469 C 0.15838 0.56244 0.72778 0.0
C470 C 0.1428 0.54578 0.73999 0.0
H471 H 0.9459 0.6255 0.24212 0.0
H472 H 0.92977 0.67851 0.18523 0.0
H473 H 0.97332 0.67961 0.17387 0.0
H474 H 0.99903 0.6532 0.26215 0.0
H475 H 0.0156 0.6254 0.26859 0.0
H476 H 0.98278 0.62552 0.26975 0.0
H477 H 0.98135 0.59001 0.23838 0.0
H478 H 0.01426 0.58973 0.23716 0.0
H479 H 0.9968 0.59327 0.20944 0.0
H480 H 0.01845 0.67908 0.1719 0.0
H481 H 0.06271 0.67742 0.17978 0.0
H482 H 0.05053 0.6249 0.2381 0.0
C483 C 0.95148 0.63678 0.22682 0.0
C484 C 0.93445 0.65176 0.2144 0.0
C485 C 0.94249 0.66681 0.19492 0.0
C486 C 0.96718 0.66748 0.18826 0.0
C487 C 0.98362 0.65297 0.20123 0.0
C488 C 0.97617 0.63783 0.22006 0.0
C489 C 0.99793 0.62602 0.2326 0.0
C490 C 0.99888 0.63296 0.25988 0.0
C491 C 0.99756 0.5981 0.22918 0.0
C492 C 0.01876 0.63759 0.21844 0.0
C493 C 0.01002 0.65277 0.20019 0.0
C494 C 0.02555 0.66693 0.18583 0.0
C495 C 0.05067 0.66592 0.19051 0.0
C496 C 0.06006 0.6509 0.20942 0.0
C497 C 0.0439 0.63616 0.2232 0.0
H498 H 0.82552 0.55407 0.71269 0.0
H499 H 0.89844 0.57031 0.7393 0.0
H500 H 0.90858 0.52632 0.73828 0.0
H501 H 0.81655 0.50191 0.74785 0.0
H502 H 0.79997 0.48502 0.72491 0.0
H503 H 0.7994 0.51794 0.72469 0.0
H504 H 0.81519 0.5181 0.67999 0.0
H505 H 0.81574 0.4851 0.68006 0.0
H506 H 0.84298 0.50202 0.67255 0.0
H507 H 0.90936 0.48044 0.73881 0.0
H508 H 0.90069 0.43606 0.74036 0.0
H509 H 0.82755 0.44969 0.71292 0.0
C510 C 0.8438 0.54843 0.71776 0.0
C511 C 0.86121 0.56564 0.72597 0.0
C512 C 0.8848 0.55747 0.73287 0.0
C513 C 0.89078 0.53252 0.7323 0.0
C514 C 0.87303 0.51596 0.72463 0.0
C515 C 0.85006 0.52357 0.71732 0.0
C516 C 0.83376 0.50193 0.71159 0.0
C517 C 0.81109 0.5017 0.72826 0.0
C518 C 0.8265 0.50178 0.68443 0.0
C519 C 0.8509 0.48099 0.71751 0.0
C520 C 0.87354 0.48944 0.72478 0.0
C521 C 0.89183 0.47357 0.73276 0.0
C522 C 0.88673 0.4484 0.73363 0.0
C523 C 0.86353 0.4394 0.72658 0.0
C524 C 0.8456 0.45595 0.71804 0.0
H525 H 0.94696 0.37853 0.2413 0.0
H526 H 0.93067 0.32651 0.18357 0.0
H527 H 0.97441 0.32431 0.17313 0.0
H528 H 0.99934 0.40967 0.20986 0.0
H529 H 0.01627 0.41255 0.23799 0.0
H530 H 0.98334 0.41315 0.23847 0.0
H531 H 0.98322 0.37744 0.26965 0.0
H532 H 0.01605 0.37662 0.26916 0.0
H533 H 0.99886 0.34935 0.26219 0.0
H534 H 0.0196 0.32333 0.17241 0.0
H535 H 0.06375 0.32398 0.1811 0.0
H536 H 0.05163 0.37673 0.2392 0.0
C537 C 0.95255 0.36727 0.22598 0.0
C538 C 0.93541 0.35283 0.2131 0.0
C539 C 0.94347 0.33779 0.19362 0.0
C540 C 0.96828 0.33649 0.18749 0.0
C541 C 0.98481 0.35038 0.20098 0.0
C542 C 0.97734 0.36561 0.21973 0.0
C543 C 0.99912 0.37674 0.23282 0.0
C544 C 0.99954 0.40469 0.22958 0.0
C545 C 0.99931 0.3696 0.26006 0.0
C546 C 0.01995 0.3647 0.21903 0.0
C547 C 0.01122 0.34981 0.20055 0.0
C548 C 0.0267 0.33526 0.18651 0.0
C549 C 0.05174 0.33568 0.19166 0.0
C550 C 0.06112 0.35054 0.21069 0.0
C551 C 0.04502 0.36558 0.22423 0.0
H552 H 0.25381 0.12942 0.55519 0.0
H553 H 0.30722 0.18644 0.56914 0.0
H554 H 0.31644 0.18862 0.5251 0.0
H555 H 0.28658 0.09969 0.50354 0.0
H556 H 0.2588 0.094 0.4868 0.0
H557 H 0.25837 0.0946 0.51977 0.0
H558 H 0.22462 0.12785 0.51877 0.0
H559 H 0.22496 0.12736 0.48587 0.0
H560 H 0.22982 0.15576 0.50194 0.0
H561 H 0.31745 0.18754 0.47993 0.0
H562 H 0.30945 0.18407 0.43577 0.0
H563 H 0.25506 0.12802 0.44997 0.0
C564 C 0.26781 0.14196 0.54898 0.0
C565 C 0.27993 0.15766 0.5656 0.0
C566 C 0.29774 0.17423 0.55675 0.0
C567 C 0.3032 0.17552 0.53177 0.0
C568 C 0.29067 0.16015 0.51581 0.0
C569 C 0.27334 0.14367 0.52397 0.0
C570 C 0.26117 0.13073 0.50262 0.0
C571 C 0.26656 0.10312 0.50322 0.0
C572 C 0.23351 0.13574 0.50229 0.0
C573 C 0.27394 0.14301 0.48125 0.0
C574 C 0.2911 0.15967 0.48938 0.0
C575 C 0.30429 0.17434 0.4733 0.0
C576 C 0.29956 0.17226 0.44823 0.0
C577 C 0.28173 0.15569 0.4394 0.0
C578 C 0.26908 0.14055 0.45615 0.0
H579 H 0.38433 0.75767 0.94839 0.0
H580 H 0.34343 0.82371 0.93211 0.0
H581 H 0.34389 0.83484 0.9758 0.0
H582 H 0.35232 0.7426 0.99987 0.0
H583 H 0.37765 0.73069 0.01728 0.0
H584 H 0.37869 0.73023 0.98442 0.0
H585 H 0.41934 0.75446 0.9851 0.0
H586 H 0.4185 0.75488 0.01808 0.0
H587 H 0.42094 0.78318 0.00127 0.0
H588 H 0.34276 0.83561 0.02099 0.0
H589 H 0.34021 0.82597 0.06497 0.0
H590 H 0.38181 0.75944 0.05292 0.0
C591 C 0.3763 0.77491 0.95396 0.0
C592 C 0.36409 0.79 0.93687 0.0
C593 C 0.35302 0.81199 0.9449 0.0
C594 C 0.35327 0.81852 0.96967 0.0
C595 C 0.3647 0.80287 0.98622 0.0
C596 C 0.37617 0.78157 0.97874 0.0
C597 C 0.38449 0.76656 1.00058 0.0
C598 C 0.37256 0.74102 1.00052 0.0
C599 C 0.41249 0.76466 0.0013 0.0
C600 C 0.37497 0.78222 0.02141 0.0
C601 C 0.36398 0.80328 0.01268 0.0
C602 C 0.35178 0.81948 0.02811 0.0
C603 C 0.35035 0.81381 0.05306 0.0
C604 C 0.36104 0.79212 0.06236 0.0
C605 C 0.37401 0.77645 0.04639 0.0
H606 H 0.70286 0.82388 0.45009 0.0
H607 H 0.73078 0.89618 0.43271 0.0
H608 H 0.72941 0.90716 0.47651 0.0
H609 H 0.66277 0.8425 0.5017 0.0
H610 H 0.67001 0.81534 0.51899 0.0
H611 H 0.66997 0.81436 0.48603 0.0
H612 H 0.71445 0.7981 0.48643 0.0
H613 H 0.71465 0.79908 0.5193 0.0
H614 H 0.73772 0.81527 0.50224 0.0
H615 H 0.72926 0.90873 0.52239 0.0
H616 H 0.73094 0.90057 0.56677 0.0
H617 H 0.70328 0.82716 0.55427 0.0
C618 C 0.70811 0.84224 0.4554 0.0
C619 C 0.71675 0.85925 0.43795 0.0
C620 C 0.72397 0.88289 0.44574 0.0
C621 C 0.72319 0.88933 0.47058 0.0
C622 C 0.71507 0.87194 0.48738 0.0
C623 C 0.70757 0.8489 0.48012 0.0
C624 C 0.70167 0.83287 0.50195 0.0
C625 C 0.67449 0.82586 0.50217 0.0
C626 C 0.71811 0.80999 0.50251 0.0
C627 C 0.70771 0.85025 0.52267 0.0
C628 C 0.7151 0.87279 0.51388 0.0
C629 C 0.72314 0.89128 0.52949 0.0
C630 C 0.72406 0.88645 0.55468 0.0
C631 C 0.71708 0.86329 0.56402 0.0
C632 C 0.70836 0.84518 0.54776 0.0
H633 H 0.67623 0.21394 0.05351 0.0
H634 H 0.60498 0.24541 0.06853 0.0
H635 H 0.5951 0.24382 0.02447 0.0
H636 H 0.68768 0.24725 1.00064 0.0
H637 H 0.70309 0.22291 0.9846 0.0
H638 H 0.70334 0.22359 0.01748 0.0
H639 H 0.68504 0.17985 0.01872 0.0
H640 H 0.6848 0.179 0.98576 0.0
H641 H 0.65702 0.17354 0.0026 0.0
H642 H 0.59467 0.24276 0.97845 0.0
H643 H 0.60378 0.24238 0.9342 0.0
H644 H 0.67524 0.21145 0.94935 0.0
C645 C 0.65833 0.22 0.04763 0.0
C646 C 0.64132 0.22967 0.06449 0.0
C647 C 0.61827 0.23782 0.05597 0.0
C648 C 0.61246 0.23694 0.03097 0.0
C649 C 0.62986 0.22775 0.01477 0.0
C650 C 0.65228 0.2193 0.02277 0.0
C651 C 0.66844 0.21202 0.0015 0.0
C652 C 0.69202 0.22736 1.00103 0.0
C653 C 0.67415 0.18446 0.00219 0.0
C654 C 0.65188 0.21831 0.98024 0.0
C655 C 0.6296 0.22712 0.98825 0.0
C656 C 0.61191 0.23555 0.97196 0.0
C657 C 0.61726 0.2353 0.94685 0.0
C658 C 0.64015 0.22673 0.93829 0.0
C659 C 0.65744 0.21776 0.95527 0.0
H660 H 0.25554 0.87447 0.44745 0.0
H661 H 0.30939 0.81806 0.43246 0.0
H662 H 0.31906 0.81555 0.47636 0.0
H663 H 0.28879 0.90399 0.49904 0.0
H664 H 0.26114 0.9094 0.51611 0.0
H665 H 0.26039 0.90911 0.48314 0.0
H666 H 0.22682 0.87571 0.48416 0.0
H667 H 0.2275 0.87587 0.51707 0.0
H668 H 0.23235 0.84766 0.50066 0.0
H669 H 0.32021 0.8159 0.52154 0.0
H670 H 0.31251 0.81888 0.56582 0.0
H671 H 0.25798 0.87509 0.5526 0.0
C672 C 0.26975 0.86202 0.45339 0.0
C673 C 0.28182 0.84655 0.43651 0.0
C674 C 0.29992 0.8301 0.44503 0.0
C675 C 0.30564 0.8286 0.46994 0.0
C676 C 0.29312 0.84371 0.48616 0.0
C677 C 0.27559 0.86016 0.47833 0.0
C678 C 0.26356 0.87284 0.49991 0.0
C679 C 0.26879 0.90048 0.49952 0.0
C680 C 0.23593 0.8677 0.50048 0.0
C681 C 0.2766 0.86041 0.52104 0.0
C682 C 0.29377 0.84389 0.5126 0.0
C683 C 0.30709 0.82903 0.52842 0.0
C684 C 0.30253 0.83082 0.55355 0.0
C685 C 0.28478 0.84733 0.56267 0.0
C686 C 0.27197 0.86262 0.54618 0.0
H687 H 0.66879 0.78734 0.05304 0.0
H688 H 0.59988 0.75124 0.06846 0.0
H689 H 0.58954 0.75244 0.02449 0.0
H690 H 0.64644 0.82673 0.00259 0.0
H691 H 0.67438 0.82325 0.98549 0.0
H692 H 0.67496 0.82221 0.01844 0.0
H693 H 0.69616 0.77979 0.01677 0.0
H694 H 0.69561 0.78068 0.9839 0.0
H695 H 0.682 0.75525 0.99988 0.0
H696 H 0.5887 0.75369 0.97845 0.0
H697 H 0.59754 0.75474 0.93413 0.0
H698 H 0.66684 0.7903 0.94901 0.0
C699 C 0.65129 0.78014 0.04726 0.0
C700 C 0.6351 0.76929 0.06421 0.0
C701 C 0.61255 0.75973 0.05583 0.0
C702 C 0.60648 0.76039 0.03089 0.0
C703 C 0.62308 0.7708 0.0146 0.0
C704 C 0.64497 0.78063 0.02248 0.0
C705 C 0.66043 0.78912 1.00114 0.0
C706 C 0.66427 0.81698 0.00197 0.0
C707 C 0.68499 0.77538 1.00039 0.0
C708 C 0.64414 0.78187 0.97998 0.0
C709 C 0.62256 0.77158 0.9881 0.0
C710 C 0.60537 0.76205 0.97188 0.0
C711 C 0.61056 0.76271 0.94674 0.0
C712 C 0.6328 0.77275 0.93809 0.0
C713 C 0.64952 0.78284 0.95499 0.0
H714 H 0.74412 0.12498 0.55274 0.0
H715 H 0.68632 0.17751 0.56687 0.0
H716 H 0.67759 0.17983 0.52272 0.0
H717 H 0.76706 0.15399 0.50124 0.0
H718 H 0.77439 0.12659 0.48439 0.0
H719 H 0.77381 0.12594 0.51727 0.0
H720 H 0.74247 0.09044 0.51627 0.0
H721 H 0.74305 0.09089 0.48329 0.0
H722 H 0.71445 0.09406 0.49932 0.0
H723 H 0.67824 0.18051 0.47751 0.0
H724 H 0.68805 0.17933 0.43356 0.0
H725 H 0.74546 0.12636 0.44773 0.0
C726 C 0.72917 0.13641 0.54656 0.0
C727 C 0.71575 0.15092 0.56324 0.0
C728 C 0.69677 0.16617 0.55443 0.0
C729 C 0.69161 0.16755 0.52938 0.0
C730 C 0.70557 0.15354 0.51334 0.0
C731 C 0.7239 0.13815 0.5215 0.0
C732 C 0.73758 0.12682 0.50016 0.0
C733 C 0.76481 0.13376 0.50081 0.0
C734 C 0.73417 0.09889 0.49974 0.0
C735 C 0.72457 0.13887 0.4788 0.0
C736 C 0.70599 0.15398 0.4869 0.0
C737 C 0.69246 0.16844 0.47089 0.0
C738 C 0.69824 0.16771 0.44596 0.0
C739 C 0.71739 0.15263 0.43721 0.0
C740 C 0.73043 0.13771 0.45384 0.0
H741 H 0.38168 0.24339 0.05417 0.0
H742 H 0.33932 0.17774 0.06795 0.0
H743 H 0.34016 0.16791 0.02395 0.0
H744 H 0.35076 0.2606 0.0026 0.0
H745 H 0.3766 0.27246 0.98597 0.0
H746 H 0.37707 0.27198 0.01884 0.0
H747 H 0.41726 0.24695 0.01819 0.0
H748 H 0.41701 0.24746 0.98521 0.0
H749 H 0.4186 0.21867 0.00124 0.0
H750 H 0.33974 0.16848 0.97871 0.0
H751 H 0.33829 0.17933 0.93495 0.0
H752 H 0.381 0.24457 0.94959 0.0
C753 C 0.37338 0.2265 0.04799 0.0
C754 C 0.36066 0.21117 0.06447 0.0
C755 C 0.34928 0.18965 0.05564 0.0
C756 C 0.34975 0.18386 0.03069 0.0
C757 C 0.36171 0.19976 0.01477 0.0
C758 C 0.37347 0.22057 0.02303 0.0
C759 C 0.38247 0.23601 0.00178 0.0
C760 C 0.37103 0.26177 0.00234 0.0
C761 C 0.41051 0.23734 0.0016 0.0
C762 C 0.37303 0.22114 0.98035 0.0
C763 C 0.36144 0.2001 0.9883 0.0
C764 C 0.34922 0.1846 0.9722 0.0
C765 C 0.34842 0.19095 0.94739 0.0
C766 C 0.35976 0.21262 0.93887 0.0
C767 C 0.3727 0.22758 0.95551 0.0
H768 H 0.55197 0.2594 0.12226 0.0
H769 H 0.56566 0.31967 0.17207 0.0
H770 H 0.5218 0.32994 0.17185 0.0
H771 H 0.50044 0.28851 0.08756 0.0
H772 H 0.48389 0.26006 0.08563 0.0
H773 H 0.51682 0.25989 0.08626 0.0
H774 H 0.51601 0.23072 0.12363 0.0
H775 H 0.48317 0.23083 0.12314 0.0
H776 H 0.4992 0.23952 0.1506 0.0
H777 H 0.47663 0.33067 0.17053 0.0
H778 H 0.43269 0.32108 0.16923 0.0
H779 H 0.4474 0.25994 0.12071 0.0
C780 C 0.54578 0.27519 0.13251 0.0
C781 C 0.5622 0.28892 0.14699 0.0
C782 C 0.55338 0.309 0.16077 0.0
C783 C 0.52853 0.31505 0.16066 0.0
C784 C 0.51269 0.30082 0.1467 0.0
C785 C 0.5209 0.28131 0.13284 0.0
C786 C 0.49968 0.26737 0.12167 0.0
C787 C 0.50025 0.26907 0.09361 0.0
C788 C 0.49951 0.24053 0.13028 0.0
C789 C 0.47829 0.28158 0.13214 0.0
C790 C 0.48627 0.30105 0.14617 0.0
C791 C 0.47011 0.31575 0.15927 0.0
C792 C 0.44518 0.31011 0.15847 0.0
C793 C 0.43661 0.28988 0.14474 0.0
C794 C 0.45337 0.27581 0.13096 0.0
H795 H 0.55576 0.73999 0.87433 0.0
H796 H 0.56878 0.6818 0.82189 0.0
H797 H 0.52501 0.6711 0.8229 0.0
H798 H 0.50584 0.70907 0.90935 0.0
H799 H 0.48903 0.73724 0.91289 0.0
H800 H 0.52191 0.73781 0.91121 0.0
H801 H 0.51956 0.76835 0.87501 0.0
H802 H 0.48676 0.76785 0.87657 0.0
H803 H 0.50196 0.76039 0.84829 0.0
H804 H 0.47976 0.66976 0.8257 0.0
H805 H 0.43579 0.67882 0.82884 0.0
H806 H 0.45148 0.73831 0.87905 0.0
C807 C 0.54948 0.72456 0.8636 0.0
C808 C 0.56567 0.71155 0.8482 0.0
C809 C 0.55669 0.69193 0.83389 0.0
C810 C 0.53189 0.68563 0.83445 0.0
C811 C 0.51629 0.69915 0.8494 0.0
C812 C 0.5247 0.71821 0.86374 0.0
C813 C 0.50372 0.73147 0.87612 0.0
C814 C 0.50522 0.72872 0.90405 0.0
C815 C 0.50296 0.75861 0.86853 0.0
C816 C 0.48218 0.71742 0.86581 0.0
C817 C 0.48991 0.69858 0.85079 0.0
C818 C 0.47347 0.68419 0.83772 0.0
C819 C 0.44852 0.68952 0.83958 0.0
C820 C 0.4402 0.70917 0.8543 0.0
C821 C 0.45726 0.72288 0.86803 0.0
H822 H 0.7501 0.94845 0.37824 0.0
H823 H 0.80815 0.9314 0.32693 0.0
H824 H 0.81838 0.97522 0.32395 0.0
H825 H 0.72937 1.00036 0.34796 0.0
H826 H 0.72223 0.01791 0.37495 0.0
H827 H 0.72163 0.98501 0.37612 0.0
H828 H 0.75243 0.98546 0.41207 0.0
H829 H 0.75305 0.01846 0.4111 0.0
H830 H 0.78109 1.00133 0.40865 0.0
H831 H 0.81937 0.02047 0.32257 0.0
H832 H 0.81119 0.06481 0.32298 0.0
H833 H 0.75248 0.05354 0.37513 0.0
C834 C 0.76539 0.95393 0.36693 0.0
C835 C 0.77847 0.93652 0.35295 0.0
C836 C 0.79794 0.94441 0.33784 0.0
C837 C 0.80395 0.96926 0.3361 0.0
C838 C 0.79035 0.98604 0.34959 0.0
C839 C 0.77153 0.97878 0.36481 0.0
C840 C 0.75845 1.00081 0.37557 0.0
C841 C 0.73132 1.00102 0.3682 0.0
C842 C 0.76144 1.00155 0.40351 0.0
C843 C 0.77239 0.0215 0.36341 0.0
C844 C 0.79089 0.0125 0.34874 0.0
C845 C 0.80522 0.02779 0.3343 0.0
C846 C 0.80036 0.05296 0.33459 0.0
C847 C 0.78132 0.06265 0.34921 0.0
C848 C 0.76744 0.04671 0.36412 0.0
H849 H 0.44691 0.26049 0.88304 0.0
H850 H 0.43321 0.32218 0.83493 0.0
H851 H 0.47729 0.33112 0.83377 0.0
H852 H 0.50065 0.28794 0.91638 0.0
H853 H 0.51628 0.2589 0.91746 0.0
H854 H 0.48337 0.25991 0.91817 0.0
H855 H 0.48179 0.23097 0.88067 0.0
H856 H 0.51459 0.23002 0.87972 0.0
H857 H 0.49767 0.23944 0.85304 0.0
H858 H 0.52244 0.32964 0.8324 0.0
H859 H 0.56607 0.31847 0.83188 0.0
H860 H 0.55137 0.25803 0.88123 0.0
C861 C 0.45314 0.27637 0.87296 0.0
C862 C 0.43663 0.29077 0.85922 0.0
C863 C 0.44552 0.31098 0.84567 0.0
C864 C 0.47053 0.31625 0.84496 0.0
C865 C 0.48644 0.30123 0.858 0.0
C866 C 0.47814 0.28182 0.87195 0.0
C867 C 0.49931 0.26706 0.88215 0.0
C868 C 0.49994 0.26855 0.91021 0.0
C869 C 0.49827 0.2403 0.87336 0.0
C870 C 0.52072 0.28062 0.8709 0.0
C871 C 0.51284 0.30045 0.85731 0.0
C872 C 0.5289 0.31449 0.84341 0.0
C873 C 0.55363 0.30794 0.84313 0.0
C874 C 0.5621 0.28755 0.85669 0.0
C875 C 0.54547 0.27403 0.87112 0.0
H876 H 0.24499 0.95162 0.3708 0.0
H877 H 0.19086 0.93703 0.31466 0.0
H878 H 0.18152 0.98106 0.31216 0.0
H879 H 0.21233 0.00376 0.40034 0.0
H880 H 0.24019 0.02053 0.40556 0.0
H881 H 0.24057 0.98752 0.40539 0.0
H882 H 0.27402 0.98802 0.37188 0.0
H883 H 0.27371 0.02096 0.37191 0.0
H884 H 0.26857 0.00448 0.34381 0.0
H885 H 0.18087 0.02634 0.31235 0.0
H886 H 0.18916 0.07057 0.31506 0.0
H887 H 0.24368 0.05689 0.37108 0.0
C888 C 0.23076 0.95768 0.35844 0.0
C889 C 0.21853 0.94087 0.34304 0.0
C890 C 0.20043 0.94954 0.32667 0.0
C891 C 0.19491 0.97453 0.32518 0.0
C892 C 0.20762 0.99068 0.34019 0.0
C893 C 0.22513 0.98269 0.35658 0.0
C894 C 0.23745 0.00421 0.3691 0.0
C895 C 0.23232 0.00398 0.39674 0.0
C896 C 0.26507 0.00442 0.36385 0.0
C897 C 0.2246 0.02547 0.35667 0.0
C898 C 0.20727 0.01716 0.34027 0.0
C899 C 0.19411 0.03311 0.32539 0.0
C900 C 0.19901 0.05821 0.32702 0.0
C901 C 0.21691 0.0672 0.3434 0.0
C902 C 0.22956 0.05059 0.35872 0.0
H903 H 0.55096 0.74193 0.12523 0.0
H904 H 0.56281 0.68337 0.17756 0.0
H905 H 0.51882 0.6737 0.17673 0.0
H906 H 0.49757 0.76348 0.15149 0.0
H907 H 0.48246 0.77128 0.12325 0.0
H908 H 0.51526 0.77111 0.12474 0.0
H909 H 0.51691 0.74058 0.0885 0.0
H910 H 0.48402 0.74067 0.0869 0.0
H911 H 0.50027 0.71217 0.09038 0.0
H912 H 0.47363 0.67332 0.17411 0.0
H913 H 0.42983 0.68322 0.17106 0.0
H914 H 0.44655 0.7424 0.12079 0.0
C915 C 0.54435 0.72666 0.13599 0.0
C916 C 0.56029 0.71324 0.1513 0.0
C917 C 0.55092 0.69382 0.16564 0.0
C918 C 0.52599 0.6881 0.16519 0.0
C919 C 0.51065 0.70198 0.15031 0.0
C920 C 0.51942 0.72087 0.13595 0.0
C921 C 0.49868 0.73456 0.12364 0.0
C922 C 0.49849 0.7617 0.13125 0.0
C923 C 0.50005 0.73182 0.09569 0.0
C924 C 0.47688 0.72094 0.13399 0.0
C925 C 0.48426 0.70195 0.14899 0.0
C926 C 0.4676 0.68787 0.1621 0.0
C927 C 0.44275 0.69368 0.16029 0.0
C928 C 0.43477 0.71347 0.14557 0.0
C929 C 0.45206 0.72687 0.1318 0.0
H930 H 0.79024 0.95034 0.67619 0.0
H931 H 0.7628 0.93625 0.60305 0.0
H932 H 0.76391 0.98054 0.59414 0.0
H933 H 0.75513 0.00187 0.68706 0.0
H934 H 0.77803 0.0184 0.70403 0.0
H935 H 0.77852 0.98548 0.70355 0.0
H936 H 0.823 0.9861 0.68737 0.0
H937 H 0.82271 0.0191 0.68794 0.0
H938 H 0.83012 0.00315 0.66004 0.0
H939 H 0.76336 0.02647 0.59481 0.0
H940 H 0.76173 0.07052 0.6049 0.0
H941 H 0.78964 0.05472 0.67752 0.0
C942 C 0.7851 0.9565 0.65807 0.0
C943 C 0.7766 0.93981 0.64026 0.0
C944 C 0.76951 0.94868 0.61695 0.0
C945 C 0.77011 0.97381 0.6117 0.0
C946 C 0.77797 0.98984 0.62989 0.0
C947 C 0.7855 0.98153 0.65256 0.0
C948 C 0.7912 0.00267 0.66957 0.0
C949 C 0.77473 0.00206 0.69239 0.0
C950 C 0.81838 0.00276 0.67664 0.0
C951 C 0.78502 0.02414 0.65316 0.0
C952 C 0.77766 0.01637 0.63027 0.0
C953 C 0.76948 0.03279 0.61254 0.0
C954 C 0.76855 0.05778 0.61846 0.0
C955 C 0.77572 0.06609 0.64193 0.0
C956 C 0.7844 0.04901 0.6593 0.0
H957 H 0.21765 0.05132 0.68011 0.0
H958 H 0.24651 0.06681 0.6078 0.0
H959 H 0.24655 0.02251 0.59846 0.0
H960 H 0.25324 0.99923 0.69112 0.0
H961 H 0.2298 0.98274 0.70738 0.0
H962 H 0.22974 0.01567 0.70738 0.0
H963 H 0.18555 0.0158 0.69039 0.0
H964 H 0.18545 0.9828 0.69037 0.0
H965 H 0.17878 0.99934 0.66263 0.0
H966 H 0.24649 0.97619 0.59834 0.0
H967 H 0.24648 0.93186 0.60748 0.0
H968 H 0.21758 0.94702 0.67985 0.0
C969 C 0.22357 0.04547 0.66213 0.0
C970 C 0.23196 0.06256 0.64463 0.0
C971 C 0.2399 0.05408 0.62147 0.0
C972 C 0.23996 0.02895 0.61598 0.0
C973 C 0.23193 0.01256 0.63382 0.0
C974 C 0.2238 0.02051 0.6564 0.0
C975 C 0.21751 0.99917 0.67292 0.0
C976 C 0.23353 0.99921 0.69606 0.0
C977 C 0.19019 0.99929 0.67945 0.0
C978 C 0.22378 0.97793 0.65629 0.0
C979 C 0.23191 0.98599 0.63375 0.0
C980 C 0.23989 0.96968 0.61582 0.0
C981 C 0.23983 0.94453 0.62119 0.0
C982 C 0.23189 0.93593 0.64432 0.0
C983 C 0.22347 0.95294 0.66189 0.0
H984 H 0.14244 0.27534 0.27119 0.0
H985 H 0.15981 0.33098 0.32508 0.0
H986 H 0.17377 0.29884 0.35357 0.0
H987 H 0.1242 0.22564 0.31546 0.0
H988 H 0.13842 0.2024 0.29687 0.0
H989 H 0.12527 0.22915 0.28269 0.0
H990 H 0.1666 0.23824 0.26147 0.0
H991 H 0.17986 0.21169 0.27561 0.0
H992 H 0.19379 0.24128 0.27983 0.0
H993 H 0.1919 0.26191 0.37333 0.0
H994 H 0.21299 0.2231 0.38272 0.0
H995 H 0.18395 0.19118 0.31613 0.0
C996 C 0.14834 0.28071 0.28931 0.0
C997 C 0.14981 0.30568 0.29599 0.0
C998 C 0.15837 0.31198 0.31961 0.0
C999 C 0.16626 0.29382 0.33597 0.0
C1000 C 0.16538 0.26944 0.32849 0.0
C1001 C 0.15647 0.26282 0.30578 0.0
C1002 C 0.16019 0.23573 0.30104 0.0
C1003 C 0.13555 0.22245 0.2989 0.0
C1004 C 0.17606 0.23151 0.27814 0.0
C1005 C 0.17353 0.22834 0.32417 0.0
C1006 C 0.17596 0.24797 0.33996 0.0
C1007 C 0.18965 0.24627 0.36139 0.0
C1008 C 0.20162 0.22416 0.36653 0.0
C1009 C 0.19992 0.20402 0.3503 0.0
C1010 C 0.18511 0.20602 0.32921 0.0
H1011 H 0.31474 0.68106 0.83175 0.0
H1012 H 0.28439 0.7219 0.89262 0.0
H1013 H 0.24469 0.70145 0.88643 0.0
H1014 H 0.26648 0.6885 0.79424 0.0
H1015 H 0.26759 0.6588 0.77989 0.0
H1016 H 0.29488 0.67184 0.79257 0.0
H1017 H 0.30094 0.63342 0.81973 0.0
H1018 H 0.27361 0.62013 0.80697 0.0
H1019 H 0.27661 0.62353 0.83963 0.0
H1020 H 0.20699 0.68249 0.86937 0.0
H1021 H 0.17425 0.66736 0.84234 0.0
H1022 H 0.22882 0.63925 0.79204 0.0
C1023 C 0.30003 0.68494 0.84441 0.0
C1024 C 0.30272 0.70285 0.86284 0.0
C1025 C 0.28278 0.70809 0.87849 0.0
C1026 C 0.26018 0.69648 0.87518 0.0
C1027 C 0.25782 0.67962 0.85619 0.0
C1028 C 0.27727 0.67372 0.84114 0.0
C1029 C 0.26916 0.65775 0.81999 0.0
C1030 C 0.27485 0.66997 0.79523 0.0
C1031 C 0.28077 0.63219 0.8217 0.0
C1032 C 0.24193 0.65666 0.82476 0.0
C1033 C 0.23583 0.66889 0.84604 0.0
C1034 C 0.21158 0.6724 0.85296 0.0
C1035 C 0.19308 0.66379 0.83744 0.0
C1036 C 0.19893 0.65201 0.81509 0.0
C1037 C 0.22371 0.64779 0.80917 0.0
H1038 H 0.81719 0.68679 0.31964 0.0
H1039 H 0.88377 0.71935 0.29165 0.0
H1040 H 0.87428 0.75769 0.31356 0.0
H1041 H 0.78139 0.73642 0.30986 0.0
H1042 H 0.76244 0.7333 0.33664 0.0
H1043 H 0.77694 0.70679 0.32371 0.0
H1044 H 0.79745 0.69731 0.36536 0.0
H1045 H 0.78283 0.7238 0.37853 0.0
H1046 H 0.81555 0.72053 0.38023 0.0
H1047 H 0.85447 0.79422 0.33227 0.0
H1048 H 0.82571 0.82618 0.34598 0.0
H1049 H 0.77156 0.77029 0.36151 0.0
C1050 C 0.83026 0.70165 0.31899 0.0
C1051 C 0.85138 0.70001 0.30423 0.0
C1052 C 0.86759 0.72016 0.30303 0.0
C1053 C 0.86239 0.74199 0.31549 0.0
C1054 C 0.84092 0.74339 0.3291 0.0
C1055 C 0.82516 0.72369 0.33108 0.0
C1056 C 0.80177 0.73095 0.34402 0.0
C1057 C 0.77933 0.72662 0.32757 0.0
C1058 C 0.79926 0.71734 0.36849 0.0
C1059 C 0.80637 0.75801 0.34801 0.0
C1060 C 0.82925 0.76472 0.33972 0.0
C1061 C 0.83672 0.78911 0.33932 0.0
C1062 C 0.82021 0.80716 0.34708 0.0
C1063 C 0.79642 0.80077 0.35499 0.0
C1064 C 0.78976 0.77577 0.35604 0.0
H1065 H 0.81181 0.32185 0.81941 0.0
H1066 H 0.78087 0.38765 0.78752 0.0
H1067 H 0.74199 0.37963 0.8089 0.0
H1068 H 0.76217 0.28611 0.81018 0.0
H1069 H 0.76452 0.26843 0.83792 0.0
H1070 H 0.79138 0.28202 0.82486 0.0
H1071 H 0.80017 0.30451 0.86566 0.0
H1072 H 0.77331 0.29081 0.87896 0.0
H1073 H 0.77691 0.32362 0.8791 0.0
H1074 H 0.70487 0.36107 0.82776 0.0
H1075 H 0.67241 0.33325 0.84212 0.0
H1076 H 0.72727 0.27919 0.86142 0.0
C1077 C 0.79717 0.33508 0.8177 0.0
C1078 C 0.79944 0.35552 0.80201 0.0
C1079 C 0.77959 0.37197 0.79958 0.0
C1080 C 0.75745 0.36761 0.81174 0.0
C1081 C 0.75548 0.34677 0.82632 0.0
C1082 C 0.77488 0.33084 0.82949 0.0
C1083 C 0.76714 0.30815 0.8434 0.0
C1084 C 0.77156 0.28482 0.82817 0.0
C1085 C 0.78016 0.3067 0.86826 0.0
C1086 C 0.74014 0.31326 0.84657 0.0
C1087 C 0.73386 0.33585 0.83703 0.0
C1088 C 0.70963 0.34358 0.83575 0.0
C1089 C 0.69129 0.3276 0.8439 0.0
C1090 C 0.69727 0.30407 0.85304 0.0
C1091 C 0.7221 0.2972 0.85497 0.0
H1092 H 0.18821 0.81293 0.68761 0.0
H1093 H 0.21396 0.78242 0.61905 0.0
H1094 H 0.19328 0.74347 0.62855 0.0
H1095 H 0.19988 0.76261 0.72202 0.0
H1096 H 0.17371 0.76487 0.74189 0.0
H1097 H 0.18576 0.79192 0.72762 0.0
H1098 H 0.14344 0.80128 0.70859 0.0
H1099 H 0.13113 0.77429 0.72303 0.0
H1100 H 0.12836 0.77827 0.69042 0.0
H1101 H 0.17645 0.70605 0.64844 0.0
H1102 H 0.16371 0.67331 0.67686 0.0
H1103 H 0.14856 0.72787 0.73252 0.0
C1104 C 0.18863 0.79839 0.67415 0.0
C1105 C 0.20248 0.80079 0.65247 0.0
C1106 C 0.20332 0.78104 0.6357 0.0
C1107 C 0.19157 0.75885 0.64091 0.0
C1108 C 0.17894 0.7567 0.66292 0.0
C1109 C 0.17715 0.77602 0.67919 0.0
C1110 C 0.16507 0.76806 0.70283 0.0
C1111 C 0.18213 0.7721 0.72487 0.0
C1112 C 0.14054 0.78126 0.70642 0.0
C1113 C 0.16133 0.74105 0.69772 0.0
C1114 C 0.16912 0.73493 0.67447 0.0
C1115 C 0.16975 0.71069 0.66648 0.0
C1116 C 0.16257 0.6922 0.68278 0.0
C1117 C 0.1549 0.69803 0.70682 0.0
C1118 C 0.15379 0.72286 0.71409 0.0
H1119 H 0.72501 0.71993 0.14367 0.0
H1120 H 0.6715 0.66424 0.16183 0.0
H1121 H 0.70451 0.63727 0.17657 0.0
H1122 H 0.77652 0.67688 0.12677 0.0
H1123 H 0.7988 0.69677 0.1407 0.0
H1124 H 0.77175 0.70955 0.12686 0.0
H1125 H 0.76144 0.73161 0.16752 0.0
H1126 H 0.78826 0.71883 0.1815 0.0
H1127 H 0.75874 0.71391 0.19523 0.0
H1128 H 0.74171 0.61964 0.19594 0.0
H1129 H 0.7804 0.6125 0.21797 0.0
H1130 H 0.81013 0.67928 0.18705 0.0
C1131 C 0.72031 0.7017 0.14987 0.0
C1132 C 0.69567 0.69413 0.15141 0.0
C1133 C 0.69024 0.6704 0.16034 0.0
C1134 C 0.70889 0.6549 0.16868 0.0
C1135 C 0.73291 0.6633 0.16782 0.0
C1136 C 0.73871 0.68607 0.15841 0.0
C1137 C 0.76549 0.69195 0.16228 0.0
C1138 C 0.77893 0.69389 0.13768 0.0
C1139 C 0.76864 0.71545 0.17754 0.0
C1140 C 0.77357 0.66947 0.17637 0.0
C1141 C 0.7546 0.65298 0.17901 0.0
C1142 C 0.75687 0.6321 0.1935 0.0
C1143 C 0.77889 0.62824 0.20602 0.0
C1144 C 0.79836 0.64518 0.204 0.0
C1145 C 0.79581 0.66568 0.18844 0.0
H1146 H 0.81737 0.18932 0.68212 0.0
H1147 H 0.78568 0.21975 0.61605 0.0
H1148 H 0.80682 0.25885 0.62385 0.0
H1149 H 0.80795 0.23926 0.71744 0.0
H1150 H 0.83564 0.23719 0.73516 0.0
H1151 H 0.82279 0.21009 0.72175 0.0
H1152 H 0.8636 0.20134 0.69938 0.0
H1153 H 0.8767 0.22842 0.71291 0.0
H1154 H 0.87691 0.2246 0.68016 0.0
H1155 H 0.82514 0.29634 0.6423 0.0
H1156 H 0.83918 0.32914 0.66997 0.0
H1157 H 0.85893 0.27454 0.72418 0.0
C1158 C 0.81568 0.20388 0.66878 0.0
C1159 C 0.80008 0.20142 0.64835 0.0
C1160 C 0.79766 0.22118 0.63175 0.0
C1161 C 0.80968 0.24345 0.63597 0.0
C1162 C 0.82415 0.24564 0.65683 0.0
C1163 C 0.82738 0.22631 0.67287 0.0
C1164 C 0.84119 0.23431 0.69551 0.0
C1165 C 0.82598 0.22996 0.71882 0.0
C1166 C 0.86608 0.2214 0.69707 0.0
C1167 C 0.8442 0.26136 0.69022 0.0
C1168 C 0.83467 0.26746 0.66762 0.0
C1169 C 0.83317 0.29172 0.65979 0.0
C1170 C 0.84113 0.31025 0.67568 0.0
C1171 C 0.85033 0.30444 0.69919 0.0
C1172 C 0.85245 0.27959 0.70616 0.0
H1173 H 0.22564 0.36094 0.2114 0.0
H1174 H 0.17096 0.33456 0.16033 0.0
H1175 H 0.20359 0.31858 0.13366 0.0
H1176 H 0.27427 0.37572 0.16441 0.0
H1177 H 0.2981 0.36518 0.18458 0.0
H1178 H 0.27088 0.37897 0.19705 0.0
H1179 H 0.26378 0.34045 0.22379 0.0
H1180 H 0.29078 0.32651 0.21135 0.0
H1181 H 0.26188 0.31084 0.20933 0.0
H1182 H 0.24103 0.29897 0.11667 0.0
H1183 H 0.28055 0.27818 0.11021 0.0
H1184 H 0.31124 0.31777 0.17172 0.0
C1185 C 0.22053 0.35261 0.19417 0.0
C1186 C 0.19571 0.34913 0.18792 0.0
C1187 C 0.18982 0.33756 0.16549 0.0
C1188 C 0.20825 0.32848 0.15015 0.0
C1189 C 0.23251 0.33132 0.15735 0.0
C1190 C 0.23871 0.34338 0.17869 0.0
C1191 C 0.26588 0.34152 0.18369 0.0
C1192 C 0.278 0.36686 0.18234 0.0
C1193 C 0.27085 0.32908 0.20849 0.0
C1194 C 0.27378 0.32549 0.16252 0.0
C1195 C 0.25433 0.32013 0.14731 0.0
C1196 C 0.25653 0.30353 0.12806 0.0
C1197 C 0.27903 0.29174 0.12458 0.0
C1198 C 0.29904 0.29659 0.14027 0.0
C1199 C 0.29647 0.31419 0.15903 0.0
H1200 H 0.327 0.18345 0.18912 0.0
H1201 H 0.38761 0.22267 0.22182 0.0
H1202 H 0.37919 0.20266 0.26141 0.0
H1203 H 0.28775 0.19206 0.23612 0.0
H1204 H 0.27273 0.16275 0.23445 0.0
H1205 H 0.28675 0.17547 0.20762 0.0
H1206 H 0.31309 0.13636 0.20256 0.0
H1207 H 0.299 0.12339 0.22941 0.0
H1208 H 0.33177 0.12595 0.22765 0.0
H1209 H 0.36027 0.18404 0.29853 0.0
H1210 H 0.33193 0.16912 0.33026 0.0
H1211 H 0.28306 0.1425 0.27368 0.0
C1212 C 0.33911 0.18705 0.20436 0.0
C1213 C 0.35815 0.20437 0.20233 0.0
C1214 C 0.37304 0.2093 0.22293 0.0
C1215 C 0.36845 0.19794 0.24548 0.0
C1216 C 0.34893 0.18166 0.24713 0.0
C1217 C 0.33457 0.17609 0.22707 0.0
C1218 C 0.31276 0.16066 0.23439 0.0
C1219 C 0.28859 0.17351 0.22776 0.0
C1220 C 0.31426 0.13507 0.22282 0.0
C1221 C 0.31645 0.15944 0.26182 0.0
C1222 C 0.3377 0.17118 0.26875 0.0
C1223 C 0.34385 0.17436 0.2933 0.0
C1224 C 0.32758 0.16585 0.31122 0.0
C1225 C 0.30528 0.15453 0.30452 0.0
C1226 C 0.30011 0.15072 0.27946 0.0
H1227 H 0.33017 0.81611 0.81271 0.0
H1228 H 0.39023 0.77638 0.77952 0.0
H1229 H 0.38199 0.79688 0.74013 0.0
H1230 H 0.29073 0.80867 0.76538 0.0
H1231 H 0.27615 0.83819 0.76751 0.0
H1232 H 0.28992 0.82479 0.79415 0.0
H1233 H 0.31681 0.86339 0.79991 0.0
H1234 H 0.30299 0.87702 0.77324 0.0
H1235 H 0.33572 0.87389 0.77503 0.0
H1236 H 0.36346 0.8164 0.70327 0.0
H1237 H 0.3355 0.83245 0.67172 0.0
H1238 H 0.28695 0.85904 0.72862 0.0
C1239 C 0.34218 0.81246 0.79739 0.0
C1240 C 0.36103 0.79489 0.79923 0.0
C1241 C 0.3758 0.78992 0.77855 0.0
C1242 C 0.37132 0.80156 0.75613 0.0
C1243 C 0.35203 0.81816 0.75467 0.0
C1244 C 0.33775 0.82371 0.7748 0.0
C1245 C 0.3162 0.83961 0.76768 0.0
C1246 C 0.29183 0.82705 0.77405 0.0
C1247 C 0.31805 0.86499 0.77968 0.0
C1248 C 0.31998 0.84121 0.74028 0.0
C1249 C 0.34102 0.82917 0.7332 0.0
C1250 C 0.34719 0.82631 0.70863 0.0
C1251 C 0.33115 0.83546 0.69081 0.0
C1252 C 0.30906 0.84712 0.69765 0.0
C1253 C 0.30386 0.85059 0.72275 0.0
H1254 H 0.67681 0.81682 0.31403 0.0
H1255 H 0.70804 0.8837 0.28487 0.0
H1256 H 0.68804 0.87579 0.24523 0.0
H1257 H 0.68803 0.78194 0.26414 0.0
H1258 H 0.6606 0.76375 0.26538 0.0
H1259 H 0.67255 0.77718 0.29286 0.0
H1260 H 0.63118 0.79885 0.30072 0.0
H1261 H 0.61898 0.78529 0.27325 0.0
H1262 H 0.61812 0.81804 0.27728 0.0
H1263 H 0.67106 0.85725 0.20722 0.0
H1264 H 0.65821 0.82962 0.1739 0.0
H1265 H 0.63795 0.77465 0.22752 0.0
C1266 C 0.67862 0.8303 0.29961 0.0
C1267 C 0.69378 0.851 0.30261 0.0
C1268 C 0.69638 0.86779 0.28303 0.0
C1269 C 0.68501 0.8635 0.26046 0.0
C1270 C 0.67099 0.84238 0.25776 0.0
C1271 C 0.66756 0.82614 0.27688 0.0
C1272 C 0.65433 0.80332 0.26838 0.0
C1273 C 0.66981 0.7802 0.27295 0.0
C1274 C 0.62915 0.80127 0.28064 0.0
C1275 C 0.65189 0.80875 0.24132 0.0
C1276 C 0.66122 0.83156 0.23563 0.0
C1277 C 0.66319 0.83959 0.2115 0.0
C1278 C 0.65592 0.82373 0.19268 0.0
C1279 C 0.64688 0.80004 0.19808 0.0
C1280 C 0.64429 0.79282 0.22278 0.0
H1281 H 0.72156 0.14228 0.72937 0.0
H1282 H 0.66793 0.1628 0.67461 0.0
H1283 H 0.64027 0.17709 0.70727 0.0
H1284 H 0.67698 0.12446 0.77892 0.0
H1285 H 0.69629 0.13738 0.80228 0.0
H1286 H 0.70969 0.12426 0.77515 0.0
H1287 H 0.73248 0.16499 0.76682 0.0
H1288 H 0.71913 0.17823 0.79375 0.0
H1289 H 0.71525 0.19304 0.76454 0.0
H1290 H 0.6217 0.19545 0.74476 0.0
H1291 H 0.61369 0.21628 0.784 0.0
H1292 H 0.67917 0.18366 0.8146 0.0
C1293 C 0.70366 0.14898 0.72426 0.0
C1294 C 0.69687 0.15125 0.6994 0.0
C1295 C 0.67351 0.16072 0.69351 0.0
C1296 C 0.65762 0.16882 0.71196 0.0
C1297 C 0.66526 0.16716 0.73624 0.0
C1298 C 0.68765 0.15725 0.74244 0.0
C1299 C 0.69276 0.16015 0.76953 0.0
C1300 C 0.694 0.13507 0.78222 0.0
C1301 C 0.71629 0.17499 0.7739 0.0
C1302 C 0.67028 0.17427 0.7774 0.0
C1303 C 0.65443 0.17775 0.75801 0.0
C1304 C 0.63367 0.19236 0.7602 0.0
C1305 C 0.62931 0.20418 0.78256 0.0
C1306 C 0.64566 0.2014 0.80245 0.0
C1307 C 0.66601 0.18566 0.79995 0.0
H1308 H 0.81546 0.81529 0.67966 0.0
H1309 H 0.78331 0.78486 0.61384 0.0
H1310 H 0.80476 0.74587 0.62131 0.0
H1311 H 0.87529 0.7803 0.67676 0.0
H1312 H 0.87559 0.77636 0.70949 0.0
H1313 H 0.86211 0.80342 0.69625 0.0
H1314 H 0.8217 0.79436 0.71919 0.0
H1315 H 0.83492 0.76728 0.73231 0.0
H1316 H 0.80699 0.76513 0.715 0.0
H1317 H 0.82322 0.7084 0.63953 0.0
H1318 H 0.83789 0.67555 0.66688 0.0
H1319 H 0.85842 0.73005 0.72083 0.0
C1320 C 0.81375 0.80076 0.6663 0.0
C1321 C 0.7979 0.80319 0.64605 0.0
C1322 C 0.79547 0.78345 0.62941 0.0
C1323 C 0.80765 0.76124 0.63345 0.0
C1324 C 0.82234 0.75906 0.65415 0.0
C1325 C 0.82566 0.77836 0.67019 0.0
C1326 C 0.83986 0.77034 0.6926 0.0
C1327 C 0.86469 0.78338 0.69384 0.0
C1328 C 0.82497 0.77452 0.71615 0.0
C1329 C 0.84298 0.74331 0.68718 0.0
C1330 C 0.83311 0.73724 0.66473 0.0
C1331 C 0.83155 0.71299 0.65688 0.0
C1332 C 0.83985 0.69444 0.67258 0.0
C1333 C 0.84953 0.70021 0.69589 0.0
C1334 C 0.85165 0.72505 0.7029 0.0
H1335 H 0.72748 0.28541 0.14105 0.0
H1336 H 0.6714 0.33632 0.16482 0.0
H1337 H 0.70325 0.36402 0.18064 0.0
H1338 H 0.76254 0.28943 0.19174 0.0
H1339 H 0.7918 0.28741 0.17676 0.0
H1340 H 0.76531 0.27417 0.16263 0.0
H1341 H 0.77286 0.29997 0.12357 0.0
H1342 H 0.79957 0.31324 0.13757 0.0
H1343 H 0.77567 0.33276 0.12597 0.0
H1344 H 0.74004 0.38225 0.20039 0.0
H1345 H 0.77895 0.38988 0.22185 0.0
H1346 H 0.8114 0.32754 0.18492 0.0
C1347 C 0.7219 0.30279 0.14877 0.0
C1348 C 0.69691 0.30872 0.15156 0.0
C1349 C 0.69041 0.33139 0.16234 0.0
C1350 C 0.7084 0.34731 0.17133 0.0
C1351 C 0.73283 0.34044 0.16918 0.0
C1352 C 0.73963 0.31883 0.1579 0.0
C1353 C 0.76682 0.31429 0.16047 0.0
C1354 C 0.77189 0.2899 0.1737 0.0
C1355 C 0.77948 0.31512 0.1354 0.0
C1356 C 0.77403 0.33604 0.17605 0.0
C1357 C 0.75425 0.35114 0.18051 0.0
C1358 C 0.7558 0.37092 0.19654 0.0
C1359 C 0.77796 0.37506 0.20872 0.0
C1360 C 0.79828 0.35947 0.20486 0.0
C1361 C 0.7964 0.34015 0.18778 0.0
H1362 H 0.17652 0.31103 0.69117 0.0
H1363 H 0.11472 0.27917 0.7293 0.0
H1364 H 0.12263 0.2396 0.70907 0.0
H1365 H 0.17091 0.27374 0.63327 0.0
H1366 H 0.20362 0.2712 0.63057 0.0
H1367 H 0.19024 0.29813 0.64416 0.0
H1368 H 0.21651 0.29151 0.68303 0.0
H1369 H 0.22983 0.26458 0.66968 0.0
H1370 H 0.21483 0.26266 0.69897 0.0
H1371 H 0.14108 0.20217 0.69026 0.0
H1372 H 0.16848 0.17006 0.67418 0.0
H1373 H 0.21823 0.22613 0.64811 0.0
C1374 C 0.16409 0.29599 0.69457 0.0
C1375 C 0.14487 0.29828 0.71167 0.0
C1376 C 0.12948 0.27791 0.71617 0.0
C1377 C 0.13378 0.25535 0.70469 0.0
C1378 C 0.15345 0.25344 0.68863 0.0
C1379 C 0.16824 0.27328 0.68338 0.0
C1380 C 0.18981 0.26573 0.66773 0.0
C1381 C 0.18856 0.27793 0.64243 0.0
C1382 C 0.21417 0.27145 0.68063 0.0
C1383 C 0.18544 0.2384 0.66592 0.0
C1384 C 0.16416 0.23172 0.67775 0.0
C1385 C 0.1575 0.20723 0.68048 0.0
C1386 C 0.17322 0.1891 0.67133 0.0
C1387 C 0.19542 0.19553 0.65969 0.0
C1388 C 0.20118 0.22057 0.65646 0.0
H1389 H 0.22552 0.64302 0.21039 0.0
H1390 H 0.16978 0.66966 0.16058 0.0
H1391 H 0.20186 0.68569 0.13328 0.0
H1392 H 0.26162 0.69298 0.20791 0.0
H1393 H 0.29055 0.67728 0.20927 0.0
H1394 H 0.26382 0.66327 0.22214 0.0
H1395 H 0.27042 0.62493 0.19501 0.0
H1396 H 0.29739 0.63879 0.18212 0.0
H1397 H 0.27318 0.6284 0.16233 0.0
H1398 H 0.23901 0.70549 0.11572 0.0
H1399 H 0.27837 0.72642 0.10878 0.0
H1400 H 0.31017 0.68633 0.16943 0.0
C1401 C 0.22004 0.65144 0.19332 0.0
C1402 C 0.19509 0.65498 0.18762 0.0
C1403 C 0.18874 0.66659 0.16532 0.0
C1404 C 0.20686 0.67571 0.14964 0.0
C1405 C 0.23126 0.67283 0.15633 0.0
C1406 C 0.23789 0.66067 0.1775 0.0
C1407 C 0.26514 0.66247 0.18199 0.0
C1408 C 0.27058 0.67474 0.20678 0.0
C1409 C 0.27724 0.63714 0.18025 0.0
C1410 C 0.27261 0.67864 0.16078 0.0
C1411 C 0.25288 0.68409 0.14595 0.0
C1412 C 0.25473 0.70085 0.12681 0.0
C1413 C 0.27713 0.71272 0.12305 0.0
C1414 C 0.2974 0.70779 0.13838 0.0
C1415 C 0.2952 0.69001 0.15702 0.0
H1416 H 0.82113 0.31386 0.31914 0.0
H1417 H 0.88694 0.28362 0.28696 0.0
H1418 H 0.87905 0.24425 0.30761 0.0
H1419 H 0.82282 0.27749 0.37829 0.0
H1420 H 0.79011 0.27375 0.37795 0.0
H1421 H 0.8037 0.30103 0.36531 0.0
H1422 H 0.78143 0.29305 0.32426 0.0
H1423 H 0.76795 0.26577 0.33665 0.0
H1424 H 0.78569 0.26413 0.30892 0.0
H1425 H 0.8607 0.20666 0.32553 0.0
H1426 H 0.83311 0.17365 0.33904 0.0
H1427 H 0.77874 0.22783 0.35934 0.0
C1428 C 0.83439 0.29926 0.3173 0.0
C1429 C 0.85481 0.30187 0.30173 0.0
C1430 C 0.87129 0.28206 0.29898 0.0
C1431 C 0.867 0.25965 0.31071 0.0
C1432 C 0.84617 0.25732 0.32517 0.0
C1433 C 0.8302 0.27665 0.32867 0.0
C1434 C 0.80753 0.26844 0.34232 0.0
C1435 C 0.80596 0.28092 0.36746 0.0
C1436 C 0.7843 0.27312 0.32712 0.0
C1437 C 0.81273 0.24131 0.34491 0.0
C1438 C 0.83534 0.23536 0.33535 0.0
C1439 C 0.84319 0.21115 0.33356 0.0
C1440 C 0.82735 0.19249 0.34122 0.0
C1441 C 0.80381 0.19812 0.35042 0.0
C1442 C 0.79678 0.22293 0.35286 0.0
H1443 H 0.22658 0.36124 0.78874 0.0
H1444 H 0.17169 0.33807 0.84113 0.0
H1445 H 0.2042 0.32317 0.86857 0.0
H1446 H 0.2623 0.31107 0.79323 0.0
H1447 H 0.29133 0.32636 0.79039 0.0
H1448 H 0.26444 0.33993 0.77733 0.0
H1449 H 0.27196 0.37963 0.80215 0.0
H1450 H 0.29908 0.36621 0.81523 0.0
H1451 H 0.27539 0.37795 0.8349 0.0
H1452 H 0.24149 0.30378 0.8863 0.0
H1453 H 0.28076 0.28269 0.89346 0.0
H1454 H 0.3117 0.31924 0.83024 0.0
C1455 C 0.22139 0.35383 0.80636 0.0
C1456 C 0.19654 0.35091 0.81278 0.0
C1457 C 0.19057 0.34063 0.83581 0.0
C1458 C 0.20894 0.33216 0.85158 0.0
C1459 C 0.23322 0.33438 0.84422 0.0
C1460 C 0.2395 0.34528 0.82229 0.0
C1461 C 0.26663 0.34293 0.81733 0.0
C1462 C 0.27143 0.32925 0.79315 0.0
C1463 C 0.27899 0.36818 0.81742 0.0
C1464 C 0.27441 0.32787 0.83925 0.0
C1465 C 0.25495 0.32345 0.85475 0.0
C1466 C 0.25702 0.30766 0.87468 0.0
C1467 C 0.27936 0.29569 0.87856 0.0
C1468 C 0.29935 0.29959 0.86261 0.0
C1469 C 0.29696 0.31644 0.84314 0.0
H1470 H 0.22187 0.77545 0.35298 0.0
H1471 H 0.16799 0.83058 0.33403 0.0
H1472 H 0.14058 0.79823 0.3186 0.0
H1473 H 0.21571 0.74179 0.30091 0.0
H1474 H 0.21979 0.71212 0.31478 0.0
H1475 H 0.23303 0.73873 0.3288 0.0
H1476 H 0.21041 0.729 0.36928 0.0
H1477 H 0.19713 0.70219 0.35537 0.0
H1478 H 0.17772 0.72506 0.36907 0.0
H1479 H 0.12207 0.76118 0.29937 0.0
H1480 H 0.11395 0.72238 0.27776 0.0
H1481 H 0.17973 0.69108 0.30913 0.0
C1482 C 0.20395 0.78066 0.3464 0.0
C1483 C 0.19699 0.80556 0.34493 0.0
C1484 C 0.17367 0.81164 0.3355 0.0
C1485 C 0.15792 0.79336 0.32676 0.0
C1486 C 0.1657 0.76906 0.32768 0.0
C1487 C 0.1881 0.76265 0.33744 0.0
C1488 C 0.19334 0.73565 0.33368 0.0
C1489 C 0.21684 0.73187 0.31864 0.0
C1490 C 0.19473 0.72218 0.35832 0.0
C1491 C 0.17087 0.7281 0.31939 0.0
C1492 C 0.15496 0.74755 0.31648 0.0
C1493 C 0.13411 0.74568 0.30198 0.0
C1494 C 0.12968 0.72357 0.28971 0.0
C1495 C 0.14606 0.7036 0.29194 0.0
C1496 C 0.16655 0.70579 0.30752 0.0
H1497 H 0.77693 0.64315 0.78104 0.0
H1498 H 0.83134 0.66904 0.83262 0.0
H1499 H 0.7985 0.68301 0.86021 0.0
H1500 H 0.73971 0.69244 0.78535 0.0
H1501 H 0.71118 0.67622 0.78267 0.0
H1502 H 0.73844 0.66348 0.76957 0.0
H1503 H 0.73226 0.62364 0.79456 0.0
H1504 H 0.70478 0.63625 0.8077 0.0
H1505 H 0.7289 0.62533 0.82732 0.0
H1506 H 0.76052 0.70042 0.87853 0.0
H1507 H 0.72056 0.71991 0.88606 0.0
H1508 H 0.69071 0.68273 0.82262 0.0
C1509 C 0.78197 0.65094 0.79854 0.0
C1510 C 0.80673 0.65483 0.80474 0.0
C1511 C 0.81252 0.66573 0.82752 0.0
C1512 C 0.79396 0.67364 0.84337 0.0
C1513 C 0.76973 0.67039 0.83626 0.0
C1514 C 0.76369 0.65909 0.81446 0.0
C1515 C 0.73648 0.66054 0.80959 0.0
C1516 C 0.73116 0.67398 0.78538 0.0
C1517 C 0.72492 0.63491 0.80982 0.0
C1518 C 0.72831 0.67543 0.83147 0.0
C1519 C 0.74768 0.68054 0.84687 0.0
C1520 C 0.74511 0.69608 0.86693 0.0
C1521 C 0.72235 0.70713 0.87101 0.0
C1522 C 0.70245 0.70269 0.85505 0.0
C1523 C 0.70539 0.68606 0.83547 0.0
H1524 H 0.68108 0.82218 0.68843 0.0
H1525 H 0.71093 0.88869 0.71974 0.0
H1526 H 0.68967 0.87999 0.75856 0.0
H1527 H 0.62124 0.82224 0.72341 0.0
H1528 H 0.62229 0.78943 0.7269 0.0
H1529 H 0.63518 0.80359 0.70004 0.0
H1530 H 0.67651 0.78216 0.70877 0.0
H1531 H 0.66387 0.76813 0.73564 0.0
H1532 H 0.69107 0.78655 0.73803 0.0
H1533 H 0.67141 0.86077 0.79569 0.0
H1534 H 0.65785 0.83244 0.82812 0.0
H1535 H 0.64011 0.77811 0.77298 0.0
C1536 C 0.6823 0.83542 0.70312 0.0
C1537 C 0.69741 0.85626 0.70098 0.0
C1538 C 0.69929 0.8727 0.72093 0.0
C1539 C 0.6872 0.86796 0.74304 0.0
C1540 C 0.67324 0.84672 0.74492 0.0
C1541 C 0.67056 0.83079 0.72543 0.0
C1542 C 0.6573 0.80769 0.73314 0.0
C1543 C 0.63253 0.80563 0.7201 0.0
C1544 C 0.67314 0.7848 0.72863 0.0
C1545 C 0.654 0.81261 0.76021 0.0
C1546 C 0.66287 0.83542 0.76656 0.0
C1547 C 0.66392 0.84309 0.79087 0.0
C1548 C 0.65623 0.82683 0.80919 0.0
C1549 C 0.64776 0.80308 0.80314 0.0
C1550 C 0.64606 0.79627 0.77823 0.0
H1551 H 0.72427 0.14473 0.2722 0.0
H1552 H 0.66821 0.16081 0.32595 0.0
H1553 H 0.64092 0.17517 0.29303 0.0
H1554 H 0.71669 0.19664 0.23885 0.0
H1555 H 0.72209 0.18326 0.2092 0.0
H1556 H 0.73525 0.16951 0.23598 0.0
H1557 H 0.7146 0.12819 0.22531 0.0
H1558 H 0.70143 0.14183 0.19832 0.0
H1559 H 0.68204 0.12708 0.22052 0.0
H1560 H 0.62262 0.19409 0.25581 0.0
H1561 H 0.61474 0.21606 0.21717 0.0
H1562 H 0.68248 0.18767 0.18729 0.0
C1563 C 0.70593 0.15042 0.27697 0.0
C1564 C 0.69831 0.15144 0.30165 0.0
C1565 C 0.67441 0.15972 0.30717 0.0
C1566 C 0.65873 0.16783 0.28857 0.0
C1567 C 0.66714 0.16743 0.2645 0.0
C1568 C 0.69013 0.15874 0.25862 0.0
C1569 C 0.69589 0.16301 0.23184 0.0
C1570 C 0.71882 0.17906 0.22881 0.0
C1571 C 0.69865 0.13856 0.21819 0.0
C1572 C 0.67303 0.17643 0.22384 0.0
C1573 C 0.65649 0.17842 0.24285 0.0
C1574 C 0.63515 0.19217 0.24062 0.0
C1575 C 0.63086 0.20465 0.21862 0.0
C1576 C 0.64786 0.20337 0.19912 0.0
C1577 C 0.66885 0.1885 0.20162 0.0
H1578 H 0.2833 0.14249 0.73015 0.0
H1579 H 0.33286 0.16836 0.67385 0.0
H1580 H 0.3606 0.18413 0.70569 0.0
H1581 H 0.28699 0.19282 0.76622 0.0
H1582 H 0.28557 0.17722 0.79524 0.0
H1583 H 0.2722 0.16342 0.7686 0.0
H1584 H 0.29856 0.12454 0.77507 0.0
H1585 H 0.31197 0.13819 0.80193 0.0
H1586 H 0.33128 0.12733 0.77753 0.0
H1587 H 0.37904 0.20332 0.74268 0.0
H1588 H 0.38705 0.2239 0.78205 0.0
H1589 H 0.32591 0.18535 0.81463 0.0
C1590 C 0.30041 0.15066 0.72451 0.0
C1591 C 0.30597 0.15403 0.69947 0.0
C1592 C 0.32825 0.16544 0.69289 0.0
C1593 C 0.34418 0.17439 0.71087 0.0
C1594 C 0.3377 0.17163 0.73537 0.0
C1595 C 0.31645 0.15981 0.74224 0.0
C1596 C 0.31227 0.16178 0.76957 0.0
C1597 C 0.28782 0.17458 0.77522 0.0
C1598 C 0.31361 0.13645 0.78174 0.0
C1599 C 0.33383 0.17754 0.77684 0.0
C1600 C 0.3485 0.18268 0.75691 0.0
C1601 C 0.36805 0.19894 0.75854 0.0
C1602 C 0.37241 0.21061 0.78097 0.0
C1603 C 0.35728 0.20601 0.80147 0.0
C1604 C 0.33817 0.18875 0.79946 0.0
H1605 H 0.2818 0.86247 0.27201 0.0
H1606 H 0.33284 0.83779 0.32753 0.0
H1607 H 0.36062 0.82299 0.29526 0.0
H1608 H 0.28635 0.81259 0.23571 0.0
H1609 H 0.28418 0.82823 0.20675 0.0
H1610 H 0.27082 0.84164 0.2336 0.0
H1611 H 0.29615 0.88115 0.22691 0.0
H1612 H 0.30953 0.86788 0.19984 0.0
H1613 H 0.32889 0.87913 0.22402 0.0
H1614 H 0.3789 0.80419 0.25807 0.0
H1615 H 0.38669 0.78358 0.21865 0.0
H1616 H 0.32433 0.82087 0.18689 0.0
C1617 C 0.29922 0.85479 0.27738 0.0
C1618 C 0.30518 0.85143 0.30233 0.0
C1619 C 0.3279 0.84069 0.30856 0.0
C1620 C 0.34386 0.83229 0.29034 0.0
C1621 C 0.33698 0.83497 0.26594 0.0
C1622 C 0.31532 0.84622 0.25941 0.0
C1623 C 0.31082 0.84422 0.23212 0.0
C1624 C 0.28663 0.83087 0.22675 0.0
C1625 C 0.31139 0.86961 0.22001 0.0
C1626 C 0.33268 0.829 0.22452 0.0
C1627 C 0.34776 0.82421 0.24424 0.0
C1628 C 0.36761 0.80832 0.24236 0.0
C1629 C 0.37183 0.79663 0.21992 0.0
C1630 C 0.3563 0.80088 0.19965 0.0
C1631 C 0.33691 0.8178 0.20187 0.0
loop_
_geom_bond_atom_site_label_1
_geom_bond_atom_site_label_2
_geom_bond_distance
_geom_bond_site_symmetry_2
_ccdc_geom_bond_type
O0 Cd1 2.223 . S
O0 C8 1.315 . S
Cd1 O0 2.223 . S
Cd1 O4 2.297 . S
Cd1 O5 2.439 . S
Cd1 O11 2.240 . S
Cd2 O3 2.240 . S
Cd2 O10 2.223 . S
Cd2 O12 2.297 . S
Cd2 O13 2.439 . S
O3 Cd2 2.240 . S
O3 C8 1.279 . S
O4 Cd1 2.297 . S
O4 C6 1.247 . S
O5 Cd1 2.439 . S
O5 C6 1.208 . S
C6 O4 1.247 . S
C6 O5 1.208 . S
C7 O12 1.247 . S
C7 O13 1.208 . S
C8 O0 1.315 . S
C8 O3 1.279 . S
C9 O10 1.315 . S
C9 O11 1.279 . S
O10 Cd2 2.223 . S
O10 C9 1.315 . S
O11 Cd1 2.240 . S
O11 C9 1.279 . S
O12 Cd2 2.297 . S
O12 C7 1.247 . S
O13 Cd2 2.439 . S
O13 C7 1.208 . S
O14 Cd15 2.223 . S
O14 C22 1.315 . S
Cd15 O14 2.223 . S
Cd15 O18 2.297 . S
Cd15 O19 2.439 . S
Cd15 O25 2.240 . S
Cd16 O17 2.240 . S
Cd16 O24 2.223 . S
Cd16 O26 2.297 . S
Cd16 O27 2.439 . S
O17 Cd16 2.240 . S
O17 C22 1.279 . S
O18 Cd15 2.297 . S
O18 C20 1.247 . S
O19 Cd15 2.439 . S
O19 C20 1.208 . S
C20 O18 1.247 . S
C20 O19 1.208 . S
C21 O26 1.247 . S
C21 O27 1.208 . S
C22 O14 1.315 . S
C22 O17 1.279 . S
C23 O24 1.315 . S
C23 O25 1.279 . S
O24 Cd16 2.223 . S
O24 C23 1.315 . S
O25 Cd15 2.240 . S
O25 C23 1.279 . S
O26 Cd16 2.297 . S
O26 C21 1.247 . S
O27 Cd16 2.439 . S
O27 C21 1.208 . S
O28 Cd29 2.223 . S
O28 C36 1.315 . S
Cd29 O28 2.223 . S
Cd29 O32 2.297 . S
Cd29 O33 2.439 . S
Cd29 O39 2.240 . S
Cd30 O31 2.240 . S
Cd30 O38 2.223 . S
Cd30 O40 2.297 . S
Cd30 O41 2.439 . S
O31 Cd30 2.240 . S
O31 C36 1.279 . S
O32 Cd29 2.297 . S
O32 C34 1.247 . S
O33 Cd29 2.439 . S
O33 C34 1.208 . S
C34 O32 1.247 . S
C34 O33 1.208 . S
C35 O40 1.247 . S
C35 O41 1.208 . S
C36 O28 1.315 . S
C36 O31 1.279 . S
C37 O38 1.315 . S
C37 O39 1.279 . S
O38 Cd30 2.223 . S
O38 C37 1.315 . S
O39 Cd29 2.240 . S
O39 C37 1.279 . S
O40 Cd30 2.297 . S
O40 C35 1.247 . S
O41 Cd30 2.439 . S
O41 C35 1.208 . S
O42 Cd43 2.223 . S
O42 C50 1.315 . S
Cd43 O42 2.223 . S
Cd43 O46 2.297 . S
Cd43 O47 2.439 . S
Cd43 O53 2.240 . S
Cd44 O45 2.240 . S
Cd44 O52 2.223 . S
Cd44 O54 2.297 . S
Cd44 O55 2.439 . S
O45 Cd44 2.240 . S
O45 C50 1.279 . S
O46 Cd43 2.297 . S
O46 C48 1.247 . S
O47 Cd43 2.439 . S
O47 C48 1.208 . S
C48 O46 1.247 . S
C48 O47 1.208 . S
C49 O54 1.247 . S
C49 O55 1.208 . S
C50 O42 1.315 . S
C50 O45 1.279 . S
C51 O52 1.315 . S
C51 O53 1.279 . S
O52 Cd44 2.223 . S
O52 C51 1.315 . S
O53 Cd43 2.240 . S
O53 C51 1.279 . S
O54 Cd44 2.297 . S
O54 C49 1.247 . S
O55 Cd44 2.439 . S
O55 C49 1.208 . S
O56 Cd57 2.223 . S
O56 C64 1.315 . S
Cd57 O56 2.223 . S
Cd57 O60 2.297 . S
Cd57 O61 2.439 . S
Cd57 O67 2.240 . S
Cd58 O59 2.240 . S
Cd58 O66 2.223 . S
Cd58 O68 2.297 . S
Cd58 O69 2.439 . S
O59 Cd58 2.240 . S
O59 C64 1.279 . S
O60 Cd57 2.297 . S
O60 C62 1.247 . S
O61 Cd57 2.439 . S
O61 C62 1.208 . S
C62 O60 1.247 . S
C62 O61 1.208 . S
C63 O68 1.247 . S
C63 O69 1.208 . S
C64 O56 1.315 . S
C64 O59 1.279 . S
C65 O66 1.315 . S
C65 O67 1.279 . S
O66 Cd58 2.223 . S
O66 C65 1.315 . S
O67 Cd57 2.240 . S
O67 C65 1.279 . S
O68 Cd58 2.297 . S
O68 C63 1.247 . S
O69 Cd58 2.439 . S
O69 C63 1.208 . S
O70 Cd71 2.223 . S
O70 C78 1.315 . S
Cd71 O70 2.223 . S
Cd71 O74 2.297 . S
Cd71 O75 2.439 . S
Cd71 O81 2.240 . S
Cd72 O73 2.240 . S
Cd72 O80 2.223 . S
Cd72 O82 2.297 . S
Cd72 O83 2.439 . S
O73 Cd72 2.240 . S
O73 C78 1.279 . S
O74 Cd71 2.297 . S
O74 C76 1.247 . S
O75 Cd71 2.439 . S
O75 C76 1.208 . S
C76 O74 1.247 . S
C76 O75 1.208 . S
C77 O82 1.247 . S
C77 O83 1.208 . S
C78 O70 1.315 . S
C78 O73 1.279 . S
C79 O80 1.315 . S
C79 O81 1.279 . S
O80 Cd72 2.223 . S
O80 C79 1.315 . S
O81 Cd71 2.240 . S
O81 C79 1.279 . S
O82 Cd72 2.297 . S
O82 C77 1.247 . S
O83 Cd72 2.439 . S
O83 C77 1.208 . S
O84 Cd85 2.223 . S
O84 C92 1.315 . S
Cd85 O84 2.223 . S
Cd85 O88 2.297 . S
Cd85 O89 2.439 . S
Cd85 O95 2.240 . S
Cd86 O87 2.240 . S
Cd86 O94 2.223 . S
Cd86 O96 2.297 . S
Cd86 O97 2.439 . S
O87 Cd86 2.240 . S
O87 C92 1.279 . S
O88 Cd85 2.297 . S
O88 C90 1.247 . S
O89 Cd85 2.439 . S
O89 C90 1.208 . S
C90 O88 1.247 . S
C90 O89 1.208 . S
C91 O96 1.247 . S
C91 O97 1.208 . S
C92 O84 1.315 . S
C92 O87 1.279 . S
C93 O94 1.315 . S
C93 O95 1.279 . S
O94 Cd86 2.223 . S
O94 C93 1.315 . S
O95 Cd85 2.240 . S
O95 C93 1.279 . S
O96 Cd86 2.297 . S
O96 C91 1.247 . S
O97 Cd86 2.439 . S
O97 C91 1.208 . S
O98 Cd99 2.223 . S
O98 C106 1.315 . S
Cd99 O98 2.223 . S
Cd99 O102 2.297 . S
Cd99 O103 2.439 . S
Cd99 O109 2.240 . S
Cd100 O101 2.240 . S
Cd100 O108 2.223 . S
Cd100 O110 2.297 . S
Cd100 O111 2.439 . S
O101 Cd100 2.240 . S
O101 C106 1.279 . S
O102 Cd99 2.297 . S
O102 C104 1.247 . S
O103 Cd99 2.439 . S
O103 C104 1.208 . S
C104 O102 1.247 . S
C104 O103 1.208 . S
C105 O110 1.247 . S
C105 O111 1.208 . S
C106 O98 1.315 . S
C106 O101 1.279 . S
C107 O108 1.315 . S
C107 O109 1.279 . S
O108 Cd100 2.223 . S
O108 C107 1.315 . S
O109 Cd99 2.240 . S
O109 C107 1.279 . S
O110 Cd100 2.297 . S
O110 C105 1.247 . S
O111 Cd100 2.439 . S
O111 C105 1.208 . S
O112 Cd113 2.223 . S
O112 C120 1.315 . S
Cd113 O112 2.223 . S
Cd113 O116 2.297 . S
Cd113 O117 2.439 . S
Cd113 O123 2.240 . S
Cd114 O115 2.240 . S
Cd114 O122 2.223 . S
Cd114 O124 2.297 . S
Cd114 O125 2.439 . S
O115 Cd114 2.240 . S
O115 C120 1.279 . S
O116 Cd113 2.297 . S
O116 C118 1.247 . S
O117 Cd113 2.439 . S
O117 C118 1.208 . S
C118 O116 1.247 . S
C118 O117 1.208 . S
C119 O124 1.247 . S
C119 O125 1.208 . S
C120 O112 1.315 . S
C120 O115 1.279 . S
C121 O122 1.315 . S
C121 O123 1.279 . S
O122 Cd114 2.223 . S
O122 C121 1.315 . S
O123 Cd113 2.240 . S
O123 C121 1.279 . S
O124 Cd114 2.297 . S
O124 C119 1.247 . S
O125 Cd114 2.439 . S
O125 C119 1.208 . S
O126 Cd127 2.223 . S
O126 C134 1.315 . S
Cd127 O126 2.223 . S
Cd127 O130 2.297 . S
Cd127 O131 2.439 . S
Cd127 O137 2.240 . S
Cd128 O129 2.240 . S
Cd128 O136 2.223 . S
Cd128 O138 2.297 . S
Cd128 O139 2.439 . S
O129 Cd128 2.240 . S
O129 C134 1.279 . S
O130 Cd127 2.297 . S
O130 C132 1.247 . S
O131 Cd127 2.439 . S
O131 C132 1.208 . S
C132 O130 1.247 . S
C132 O131 1.208 . S
C133 O138 1.247 . S
C133 O139 1.208 . S
C134 O126 1.315 . S
C134 O129 1.279 . S
C135 O136 1.315 . S
C135 O137 1.279 . S
O136 Cd128 2.223 . S
O136 C135 1.315 . S
O137 Cd127 2.240 . S
O137 C135 1.279 . S
O138 Cd128 2.297 . S
O138 C133 1.247 . S
O139 Cd128 2.439 . S
O139 C133 1.208 . S
O140 Cd141 2.223 . S
O140 C148 1.315 . S
Cd141 O140 2.223 . S
Cd141 O144 2.297 . S
Cd141 O145 2.439 . S
Cd141 O151 2.240 . S
Cd142 O143 2.240 . S
Cd142 O150 2.223 . S
Cd142 O152 2.297 . S
Cd142 O153 2.439 . S
O143 Cd142 2.240 . S
O143 C148 1.279 . S
O144 Cd141 2.297 . S
O144 C146 1.247 . S
O145 Cd141 2.439 . S
O145 C146 1.208 . S
C146 O144 1.247 . S
C146 O145 1.208 . S
C147 O152 1.247 . S
C147 O153 1.208 . S
C148 O140 1.315 . S
C148 O143 1.279 . S
C149 O150 1.315 . S
C149 O151 1.279 . S
O150 Cd142 2.223 . S
O150 C149 1.315 . S
O151 Cd141 2.240 . S
O151 C149 1.279 . S
O152 Cd142 2.297 . S
O152 C147 1.247 . S
O153 Cd142 2.439 . S
O153 C147 1.208 . S
O154 Cd155 2.223 . S
O154 C162 1.315 . S
Cd155 O154 2.223 . S
Cd155 O158 2.297 . S
Cd155 O159 2.439 . S
Cd155 O165 2.240 . S
Cd156 O157 2.240 . S
Cd156 O164 2.223 . S
Cd156 O166 2.297 . S
Cd156 O167 2.439 . S
O157 Cd156 2.240 . S
O157 C162 1.279 . S
O158 Cd155 2.297 . S
O158 C160 1.247 . S
O159 Cd155 2.439 . S
O159 C160 1.208 . S
C160 O158 1.247 . S
C160 O159 1.208 . S
C161 O166 1.247 . S
C161 O167 1.208 . S
C162 O154 1.315 . S
C162 O157 1.279 . S
C163 O164 1.315 . S
C163 O165 1.279 . S
O164 Cd156 2.223 . S
O164 C163 1.315 . S
O165 Cd155 2.240 . S
O165 C163 1.279 . S
O166 Cd156 2.297 . S
O166 C161 1.247 . S
O167 Cd156 2.439 . S
O167 C161 1.208 . S
O168 Cd169 2.223 . S
O168 C176 1.315 . S
Cd169 O168 2.223 . S
Cd169 O172 2.297 . S
Cd169 O173 2.439 . S
Cd169 O179 2.240 . S
Cd170 O171 2.240 . S
Cd170 O178 2.223 . S
Cd170 O180 2.297 . S
Cd170 O181 2.439 . S
O171 Cd170 2.240 . S
O171 C176 1.279 . S
O172 Cd169 2.297 . S
O172 C174 1.247 . S
O173 Cd169 2.439 . S
O173 C174 1.208 . S
C174 O172 1.247 . S
C174 O173 1.208 . S
C175 O180 1.247 . S
C175 O181 1.208 . S
C176 O168 1.315 . S
C176 O171 1.279 . S
C177 O178 1.315 . S
C177 O179 1.279 . S
O178 Cd170 2.223 . S
O178 C177 1.315 . S
O179 Cd169 2.240 . S
O179 C177 1.279 . S
O180 Cd170 2.297 . S
O180 C175 1.247 . S
O181 Cd170 2.439 . S
O181 C175 1.208 . S
O182 Cd183 2.223 . S
O182 C190 1.315 . S
Cd183 O182 2.223 . S
Cd183 O186 2.297 . S
Cd183 O187 2.439 . S
Cd183 O193 2.240 . S
Cd184 O185 2.240 . S
Cd184 O192 2.223 . S
Cd184 O194 2.297 . S
Cd184 O195 2.439 . S
O185 Cd184 2.240 . S
O185 C190 1.279 . S
O186 Cd183 2.297 . S
O186 C188 1.247 . S
O187 Cd183 2.439 . S
O187 C188 1.208 . S
C188 O186 1.247 . S
C188 O187 1.208 . S
C189 O194 1.247 . S
C189 O195 1.208 . S
C190 O182 1.315 . S
C190 O185 1.279 . S
C191 O192 1.315 . S
C191 O193 1.279 . S
O192 Cd184 2.223 . S
O192 C191 1.315 . S
O193 Cd183 2.240 . S
O193 C191 1.279 . S
O194 Cd184 2.297 . S
O194 C189 1.247 . S
O195 Cd184 2.439 . S
O195 C189 1.208 . S
O196 Cd197 2.223 . S
O196 C204 1.315 . S
Cd197 O196 2.223 . S
Cd197 O200 2.297 . S
Cd197 O201 2.439 . S
Cd197 O207 2.240 . S
Cd198 O199 2.240 . S
Cd198 O206 2.223 . S
Cd198 O208 2.297 . S
Cd198 O209 2.439 . S
O199 Cd198 2.240 . S
O199 C204 1.279 . S
O200 Cd197 2.297 . S
O200 C202 1.247 . S
O201 Cd197 2.439 . S
O201 C202 1.208 . S
C202 O200 1.247 . S
C202 O201 1.208 . S
C203 O208 1.247 . S
C203 O209 1.208 . S
C204 O196 1.315 . S
C204 O199 1.279 . S
C205 O206 1.315 . S
C205 O207 1.279 . S
O206 Cd198 2.223 . S
O206 C205 1.315 . S
O207 Cd197 2.240 . S
O207 C205 1.279 . S
O208 Cd198 2.297 . S
O208 C203 1.247 . S
O209 Cd198 2.439 . S
O209 C203 1.208 . S
O210 Cd211 2.223 . S
O210 C218 1.315 . S
Cd211 O210 2.223 . S
Cd211 O214 2.297 . S
Cd211 O215 2.439 . S
Cd211 O221 2.240 . S
Cd212 O213 2.240 . S
Cd212 O220 2.223 . S
Cd212 O222 2.297 . S
Cd212 O223 2.439 . S
O213 Cd212 2.240 . S
O213 C218 1.279 . S
O214 Cd211 2.297 . S
O214 C216 1.247 . S
O215 Cd211 2.439 . S
O215 C216 1.208 . S
C216 O214 1.247 . S
C216 O215 1.208 . S
C217 O222 1.247 . S
C217 O223 1.208 . S
C218 O210 1.315 . S
C218 O213 1.279 . S
C219 O220 1.315 . S
C219 O221 1.279 . S
O220 Cd212 2.223 . S
O220 C219 1.315 . S
O221 Cd211 2.240 . S
O221 C219 1.279 . S
O222 Cd212 2.297 . S
O222 C217 1.247 . S
O223 Cd212 2.439 . S
O223 C217 1.208 . S
O224 Cd225 2.223 . S
O224 C232 1.315 . S
Cd225 O224 2.223 . S
Cd225 O228 2.297 . S
Cd225 O229 2.439 . S
Cd225 O235 2.240 . S
Cd226 O227 2.240 . S
Cd226 O234 2.223 . S
Cd226 O236 2.297 . S
Cd226 O237 2.439 . S
O227 Cd226 2.240 . S
O227 C232 1.279 . S
O228 Cd225 2.297 . S
O228 C230 1.247 . S
O229 Cd225 2.439 . S
O229 C230 1.208 . S
C230 O228 1.247 . S
C230 O229 1.208 . S
C231 O236 1.247 . S
C231 O237 1.208 . S
C232 O224 1.315 . S
C232 O227 1.279 . S
C233 O234 1.315 . S
C233 O235 1.279 . S
O234 Cd226 2.223 . S
O234 C233 1.315 . S
O235 Cd225 2.240 . S
O235 C233 1.279 . S
O236 Cd226 2.297 . S
O236 C231 1.247 . S
O237 Cd226 2.439 . S
O237 C231 1.208 . S
O238 Cd239 2.223 . S
O238 C246 1.315 . S
Cd239 O238 2.223 . S
Cd239 O242 2.297 . S
Cd239 O243 2.439 . S
Cd239 O249 2.240 . S
Cd240 O241 2.240 . S
Cd240 O248 2.223 . S
Cd240 O250 2.297 . S
Cd240 O251 2.439 . S
O241 Cd240 2.240 . S
O241 C246 1.279 . S
O242 Cd239 2.297 . S
O242 C244 1.247 . S
O243 Cd239 2.439 . S
O243 C244 1.208 . S
C244 O242 1.247 . S
C244 O243 1.208 . S
C245 O250 1.247 . S
C245 O251 1.208 . S
C246 O238 1.315 . S
C246 O241 1.279 . S
C247 O248 1.315 . S
C247 O249 1.279 . S
O248 Cd240 2.223 . S
O248 C247 1.315 . S
O249 Cd239 2.240 . S
O249 C247 1.279 . S
O250 Cd240 2.297 . S
O250 C245 1.247 . S
O251 Cd240 2.439 . S
O251 C245 1.208 . S
O252 Cd253 2.223 . S
O252 C260 1.315 . S
Cd253 O252 2.223 . S
Cd253 O256 2.297 . S
Cd253 O257 2.439 . S
Cd253 O263 2.240 . S
Cd254 O255 2.240 . S
Cd254 O262 2.223 . S
Cd254 O264 2.297 . S
Cd254 O265 2.439 . S
O255 Cd254 2.240 . S
O255 C260 1.279 . S
O256 Cd253 2.297 . S
O256 C258 1.247 . S
O257 Cd253 2.439 . S
O257 C258 1.208 . S
C258 O256 1.247 . S
C258 O257 1.208 . S
C259 O264 1.247 . S
C259 O265 1.208 . S
C260 O252 1.315 . S
C260 O255 1.279 . S
C261 O262 1.315 . S
C261 O263 1.279 . S
O262 Cd254 2.223 . S
O262 C261 1.315 . S
O263 Cd253 2.240 . S
O263 C261 1.279 . S
O264 Cd254 2.297 . S
O264 C259 1.247 . S
O265 Cd254 2.439 . S
O265 C259 1.208 . S
O266 Cd267 2.223 . S
O266 C274 1.315 . S
Cd267 O266 2.223 . S
Cd267 O270 2.297 . S
Cd267 O271 2.439 . S
Cd267 O277 2.240 . S
Cd268 O269 2.240 . S
Cd268 O276 2.223 . S
Cd268 O278 2.297 . S
Cd268 O279 2.439 . S
O269 Cd268 2.240 . S
O269 C274 1.279 . S
O270 Cd267 2.297 . S
O270 C272 1.247 . S
O271 Cd267 2.439 . S
O271 C272 1.208 . S
C272 O270 1.247 . S
C272 O271 1.208 . S
C273 O278 1.247 . S
C273 O279 1.208 . S
C274 O266 1.315 . S
C274 O269 1.279 . S
C275 O276 1.315 . S
C275 O277 1.279 . S
O276 Cd268 2.223 . S
O276 C275 1.315 . S
O277 Cd267 2.240 . S
O277 C275 1.279 . S
O278 Cd268 2.297 . S
O278 C273 1.247 . S
O279 Cd268 2.439 . S
O279 C273 1.208 . S
O280 Cd281 2.223 . S
O280 C288 1.315 . S
Cd281 O280 2.223 . S
Cd281 O284 2.297 . S
Cd281 O285 2.439 . S
Cd281 O291 2.240 . S
Cd282 O283 2.240 . S
Cd282 O290 2.223 . S
Cd282 O292 2.297 . S
Cd282 O293 2.439 . S
O283 Cd282 2.240 . S
O283 C288 1.279 . S
O284 Cd281 2.297 . S
O284 C286 1.247 . S
O285 Cd281 2.439 . S
O285 C286 1.208 . S
C286 O284 1.247 . S
C286 O285 1.208 . S
C287 O292 1.247 . S
C287 O293 1.208 . S
C288 O280 1.315 . S
C288 O283 1.279 . S
C289 O290 1.315 . S
C289 O291 1.279 . S
O290 Cd282 2.223 . S
O290 C289 1.315 . S
O291 Cd281 2.240 . S
O291 C289 1.279 . S
O292 Cd282 2.297 . S
O292 C287 1.247 . S
O293 Cd282 2.439 . S
O293 C287 1.208 . S
O294 Cd295 2.223 . S
O294 C302 1.315 . S
Cd295 O294 2.223 . S
Cd295 O298 2.297 . S
Cd295 O299 2.439 . S
Cd295 O305 2.240 . S
Cd296 O297 2.240 . S
Cd296 O304 2.223 . S
Cd296 O306 2.297 . S
Cd296 O307 2.439 . S
O297 Cd296 2.240 . S
O297 C302 1.279 . S
O298 Cd295 2.297 . S
O298 C300 1.247 . S
O299 Cd295 2.439 . S
O299 C300 1.208 . S
C300 O298 1.247 . S
C300 O299 1.208 . S
C301 O306 1.247 . S
C301 O307 1.208 . S
C302 O294 1.315 . S
C302 O297 1.279 . S
C303 O304 1.315 . S
C303 O305 1.279 . S
O304 Cd296 2.223 . S
O304 C303 1.315 . S
O305 Cd295 2.240 . S
O305 C303 1.279 . S
O306 Cd296 2.297 . S
O306 C301 1.247 . S
O307 Cd296 2.439 . S
O307 C301 1.208 . S
O308 Cd309 2.223 . S
O308 C316 1.315 . S
Cd309 O308 2.223 . S
Cd309 O312 2.297 . S
Cd309 O313 2.439 . S
Cd309 O319 2.240 . S
Cd310 O311 2.240 . S
Cd310 O318 2.223 . S
Cd310 O320 2.297 . S
Cd310 O321 2.439 . S
O311 Cd310 2.240 . S
O311 C316 1.279 . S
O312 Cd309 2.297 . S
O312 C314 1.247 . S
O313 Cd309 2.439 . S
O313 C314 1.208 . S
C314 O312 1.247 . S
C314 O313 1.208 . S
C315 O320 1.247 . S
C315 O321 1.208 . S
C316 O308 1.315 . S
C316 O311 1.279 . S
C317 O318 1.315 . S
C317 O319 1.279 . S
O318 Cd310 2.223 . S
O318 C317 1.315 . S
O319 Cd309 2.240 . S
O319 C317 1.279 . S
O320 Cd310 2.297 . S
O320 C315 1.247 . S
O321 Cd310 2.439 . S
O321 C315 1.208 . S
O322 Cd323 2.223 . S
O322 C330 1.315 . S
Cd323 O322 2.223 . S
Cd323 O326 2.297 . S
Cd323 O327 2.439 . S
Cd323 O333 2.240 . S
Cd324 O325 2.240 . S
Cd324 O332 2.223 . S
Cd324 O334 2.297 . S
Cd324 O335 2.439 . S
O325 Cd324 2.240 . S
O325 C330 1.279 . S
O326 Cd323 2.297 . S
O326 C328 1.247 . S
O327 Cd323 2.439 . S
O327 C328 1.208 . S
C328 O326 1.247 . S
C328 O327 1.208 . S
C329 O334 1.247 . S
C329 O335 1.208 . S
C330 O322 1.315 . S
C330 O325 1.279 . S
C331 O332 1.315 . S
C331 O333 1.279 . S
O332 Cd324 2.223 . S
O332 C331 1.315 . S
O333 Cd323 2.240 . S
O333 C331 1.279 . S
O334 Cd324 2.297 . S
O334 C329 1.247 . S
O335 Cd324 2.439 . S
O335 C329 1.208 . S
H336 C348 0.930 . S
H337 C350 0.930 . S
H338 C351 0.930 . S
H339 C355 0.959 . S
H340 C355 0.959 . S
H341 C355 0.961 . S
H342 C356 0.960 . S
H343 C356 0.961 . S
H344 C356 0.959 . S
H345 C359 0.929 . S
H346 C360 0.931 . S
H347 C362 0.930 . S
C348 H336 0.930 . S
C348 C349 1.399 . S
C348 C353 1.399 . S
C349 C348 1.399 . S
C349 C350 1.376 . S
C350 H337 0.930 . S
C350 C349 1.376 . S
C350 C351 1.388 . S
C351 H338 0.930 . S
C351 C350 1.388 . S
C351 C352 1.390 . S
C352 C351 1.390 . S
C352 C353 1.394 . S
C352 C358 1.465 . S
C353 C348 1.399 . S
C353 C352 1.394 . S
C353 C354 1.516 . S
C354 C353 1.516 . S
C354 C355 1.502 . S
C354 C356 1.561 . S
C354 C357 1.526 . S
C355 H339 0.959 . S
C355 H340 0.959 . S
C355 H341 0.961 . S
C355 C354 1.502 . S
C356 H342 0.960 . S
C356 H343 0.961 . S
C356 H344 0.959 . S
C356 C354 1.561 . S
C357 C354 1.526 . S
C357 C358 1.396 . S
C357 C362 1.390 . S
C358 C352 1.465 . S
C358 C357 1.396 . S
C358 C359 1.399 . S
C359 H345 0.929 . S
C359 C358 1.399 . S
C359 C360 1.385 . S
C360 H346 0.931 . S
C360 C359 1.385 . S
C360 C361 1.389 . S
C361 C360 1.389 . S
C361 C362 1.387 . S
C362 H347 0.930 . S
C362 C357 1.390 . S
C362 C361 1.387 . S
H363 C375 0.930 . S
H364 C377 0.930 . S
H365 C378 0.930 . S
H366 C382 0.962 . S
H367 C382 0.979 . S
H368 C382 0.939 1_655 S
H369 C383 0.957 1_655 S
H370 C383 0.963 . S
H371 C383 0.959 . S
H372 C386 0.929 . S
H373 C387 0.931 . S
H374 C389 0.930 . S
C375 H363 0.930 . S
C375 C376 1.399 . S
C375 C380 1.399 . S
C376 C375 1.399 . S
C376 C377 1.376 . S
C377 H364 0.930 . S
C377 C376 1.376 . S
C377 C378 1.388 . S
C378 H365 0.930 . S
C378 C377 1.388 . S
C378 C379 1.390 . S
C379 C378 1.390 . S
C379 C380 1.394 . S
C379 C385 1.465 1_655 S
C380 C375 1.399 . S
C380 C379 1.394 . S
C380 C381 1.517 1_655 S
C381 C380 1.517 1_455 S
C381 C382 1.502 . S
C381 C383 1.561 . S
C381 C384 1.525 . S
C382 H366 0.962 . S
C382 H367 0.979 . S
C382 H368 0.939 1_455 S
C382 C381 1.502 . S
C383 H369 0.957 1_455 S
C383 H370 0.963 . S
C383 H371 0.959 . S
C383 C381 1.561 . S
C384 C381 1.525 . S
C384 C385 1.396 . S
C384 C389 1.390 . S
C385 C379 1.465 1_455 S
C385 C384 1.396 . S
C385 C386 1.399 . S
C386 H372 0.929 . S
C386 C385 1.399 . S
C386 C387 1.385 . S
C387 H373 0.931 . S
C387 C386 1.385 . S
C387 C388 1.389 . S
C388 C387 1.389 . S
C388 C389 1.387 . S
C389 H374 0.930 . S
C389 C384 1.390 . S
C389 C388 1.387 . S
H390 C402 0.930 . S
H391 C404 0.930 . S
H392 C405 0.930 . S
H393 C409 0.959 . S
H394 C409 0.959 . S
H395 C409 0.961 . S
H396 C410 0.960 . S
H397 C410 0.961 . S
H398 C410 0.959 . S
H399 C413 0.929 . S
H400 C414 0.931 . S
H401 C416 0.930 . S
C402 H390 0.930 . S
C402 C403 1.399 . S
C402 C407 1.399 . S
C403 C402 1.399 . S
C403 C404 1.376 . S
C404 H391 0.930 . S
C404 C403 1.376 . S
C404 C405 1.388 . S
C405 H392 0.930 . S
C405 C404 1.388 . S
C405 C406 1.390 . S
C406 C405 1.390 . S
C406 C407 1.394 . S
C406 C412 1.465 . S
C407 C402 1.399 . S
C407 C406 1.394 . S
C407 C408 1.516 . S
C408 C407 1.516 . S
C408 C409 1.502 . S
C408 C410 1.561 . S
C408 C411 1.526 . S
C409 H393 0.959 . S
C409 H394 0.959 . S
C409 H395 0.961 . S
C409 C408 1.502 . S
C410 H396 0.960 . S
C410 H397 0.961 . S
C410 H398 0.959 . S
C410 C408 1.561 . S
C411 C408 1.526 . S
C411 C412 1.396 . S
C411 C416 1.390 . S
C412 C406 1.465 . S
C412 C411 1.396 . S
C412 C413 1.399 . S
C413 H399 0.929 . S
C413 C412 1.399 . S
C413 C414 1.385 . S
C414 H400 0.931 . S
C414 C413 1.385 . S
C414 C415 1.389 . S
C415 C414 1.389 . S
C415 C416 1.387 . S
C416 H401 0.930 . S
C416 C411 1.390 . S
C416 C415 1.387 . S
H417 C429 0.930 . S
H418 C431 0.930 . S
H419 C432 0.930 . S
H420 C436 0.962 . S
H421 C436 0.979 . S
H422 C436 0.939 1_455 S
H423 C437 0.957 1_455 S
H424 C437 0.963 . S
H425 C437 0.959 . S
H426 C440 0.929 . S
H427 C441 0.931 . S
H428 C443 0.930 . S
C429 H417 0.930 . S
C429 C430 1.399 . S
C429 C434 1.399 . S
C430 C429 1.399 . S
C430 C431 1.376 . S
C431 H418 0.930 . S
C431 C430 1.376 . S
C431 C432 1.388 . S
C432 H419 0.930 . S
C432 C431 1.388 . S
C432 C433 1.390 . S
C433 C432 1.390 . S
C433 C434 1.394 . S
C433 C439 1.465 1_455 S
C434 C429 1.399 . S
C434 C433 1.394 . S
C434 C435 1.517 1_455 S
C435 C434 1.517 1_655 S
C435 C436 1.502 . S
C435 C437 1.561 . S
C435 C438 1.525 . S
C436 H420 0.962 . S
C436 H421 0.979 . S
C436 H422 0.939 1_655 S
C436 C435 1.502 . S
C437 H423 0.957 1_655 S
C437 H424 0.963 . S
C437 H425 0.959 . S
C437 C435 1.561 . S
C438 C435 1.525 . S
C438 C439 1.396 . S
C438 C443 1.390 . S
C439 C433 1.465 1_655 S
C439 C438 1.396 . S
C439 C440 1.399 . S
C440 H426 0.929 . S
C440 C439 1.399 . S
C440 C441 1.385 . S
C441 H427 0.931 . S
C441 C440 1.385 . S
C441 C442 1.389 . S
C442 C441 1.389 . S
C442 C443 1.387 . S
C443 H428 0.930 . S
C443 C438 1.390 . S
C443 C442 1.387 . S
H444 C456 0.930 . S
H445 C458 0.930 . S
H446 C459 0.930 . S
H447 C463 0.959 . S
H448 C463 0.959 . S
H449 C463 0.961 . S
H450 C464 0.960 . S
H451 C464 0.961 . S
H452 C464 0.959 . S
H453 C467 0.929 . S
H454 C468 0.931 . S
H455 C470 0.930 . S
C456 H444 0.930 . S
C456 C457 1.399 . S
C456 C461 1.399 . S
C457 C456 1.399 . S
C457 C458 1.376 . S
C458 H445 0.930 . S
C458 C457 1.376 . S
C458 C459 1.388 . S
C459 H446 0.930 . S
C459 C458 1.388 . S
C459 C460 1.390 . S
C460 C459 1.390 . S
C460 C461 1.394 . S
C460 C466 1.465 . S
C461 C456 1.399 . S
C461 C460 1.394 . S
C461 C462 1.516 . S
C462 C461 1.516 . S
C462 C463 1.502 . S
C462 C464 1.561 . S
C462 C465 1.526 . S
C463 H447 0.959 . S
C463 H448 0.959 . S
C463 H449 0.961 . S
C463 C462 1.502 . S
C464 H450 0.960 . S
C464 H451 0.961 . S
C464 H452 0.959 . S
C464 C462 1.561 . S
C465 C462 1.526 . S
C465 C466 1.396 . S
C465 C470 1.390 . S
C466 C460 1.465 . S
C466 C465 1.396 . S
C466 C467 1.399 . S
C467 H453 0.929 . S
C467 C466 1.399 . S
C467 C468 1.385 . S
C468 H454 0.931 . S
C468 C467 1.385 . S
C468 C469 1.389 . S
C469 C468 1.389 . S
C469 C470 1.387 . S
C470 H455 0.930 . S
C470 C465 1.390 . S
C470 C469 1.387 . S
H471 C483 0.930 . S
H472 C485 0.930 . S
H473 C486 0.930 . S
H474 C490 0.962 . S
H475 C490 0.979 . S
H476 C490 0.939 1_655 S
H477 C491 0.957 1_655 S
H478 C491 0.963 . S
H479 C491 0.959 . S
H480 C494 0.929 . S
H481 C495 0.931 . S
H482 C497 0.930 . S
C483 H471 0.930 . S
C483 C484 1.399 . S
C483 C488 1.399 . S
C484 C483 1.399 . S
C484 C485 1.376 . S
C485 H472 0.930 . S
C485 C484 1.376 . S
C485 C486 1.388 . S
C486 H473 0.930 . S
C486 C485 1.388 . S
C486 C487 1.390 . S
C487 C486 1.390 . S
C487 C488 1.394 . S
C487 C493 1.465 1_655 S
C488 C483 1.399 . S
C488 C487 1.394 . S
C488 C489 1.517 1_655 S
C489 C488 1.517 1_455 S
C489 C490 1.502 . S
C489 C491 1.561 . S
C489 C492 1.525 . S
C490 H474 0.962 . S
C490 H475 0.979 . S
C490 H476 0.939 1_455 S
C490 C489 1.502 . S
C491 H477 0.957 1_455 S
C491 H478 0.963 . S
C491 H479 0.959 . S
C491 C489 1.561 . S
C492 C489 1.525 . S
C492 C493 1.396 . S
C492 C497 1.390 . S
C493 C487 1.465 1_455 S
C493 C492 1.396 . S
C493 C494 1.399 . S
C494 H480 0.929 . S
C494 C493 1.399 . S
C494 C495 1.385 . S
C495 H481 0.931 . S
C495 C494 1.385 . S
C495 C496 1.389 . S
C496 C495 1.389 . S
C496 C497 1.387 . S
C497 H482 0.930 . S
C497 C492 1.390 . S
C497 C496 1.387 . S
H498 C510 0.930 . S
H499 C512 0.930 . S
H500 C513 0.930 . S
H501 C517 0.959 . S
H502 C517 0.959 . S
H503 C517 0.961 . S
H504 C518 0.960 . S
H505 C518 0.961 . S
H506 C518 0.959 . S
H507 C521 0.929 . S
H508 C522 0.931 . S
H509 C524 0.930 . S
C510 H498 0.930 . S
C510 C511 1.399 . S
C510 C515 1.399 . S
C511 C510 1.399 . S
C511 C512 1.376 . S
C512 H499 0.930 . S
C512 C511 1.376 . S
C512 C513 1.388 . S
C513 H500 0.930 . S
C513 C512 1.388 . S
C513 C514 1.390 . S
C514 C513 1.390 . S
C514 C515 1.394 . S
C514 C520 1.465 . S
C515 C510 1.399 . S
C515 C514 1.394 . S
C515 C516 1.516 . S
C516 C515 1.516 . S
C516 C517 1.502 . S
C516 C518 1.561 . S
C516 C519 1.526 . S
C517 H501 0.959 . S
C517 H502 0.959 . S
C517 H503 0.961 . S
C517 C516 1.502 . S
C518 H504 0.960 . S
C518 H505 0.961 . S
C518 H506 0.959 . S
C518 C516 1.561 . S
C519 C516 1.526 . S
C519 C520 1.396 . S
C519 C524 1.390 . S
C520 C514 1.465 . S
C520 C519 1.396 . S
C520 C521 1.399 . S
C521 H507 0.929 . S
C521 C520 1.399 . S
C521 C522 1.385 . S
C522 H508 0.931 . S
C522 C521 1.385 . S
C522 C523 1.389 . S
C523 C522 1.389 . S
C523 C524 1.387 . S
C524 H509 0.930 . S
C524 C519 1.390 . S
C524 C523 1.387 . S
H525 C537 0.930 . S
H526 C539 0.930 . S
H527 C540 0.930 . S
H528 C544 0.962 . S
H529 C544 0.979 . S
H530 C544 0.939 1_655 S
H531 C545 0.957 1_655 S
H532 C545 0.963 . S
H533 C545 0.959 . S
H534 C548 0.929 . S
H535 C549 0.931 . S
H536 C551 0.930 . S
C537 H525 0.930 . S
C537 C538 1.399 . S
C537 C542 1.399 . S
C538 C537 1.399 . S
C538 C539 1.376 . S
C539 H526 0.930 . S
C539 C538 1.376 . S
C539 C540 1.388 . S
C540 H527 0.930 . S
C540 C539 1.388 . S
C540 C541 1.390 . S
C541 C540 1.390 . S
C541 C542 1.394 . S
C541 C547 1.465 1_655 S
C542 C537 1.399 . S
C542 C541 1.394 . S
C542 C543 1.517 1_655 S
C543 C542 1.517 1_455 S
C543 C544 1.502 . S
C543 C545 1.561 . S
C543 C546 1.525 . S
C544 H528 0.962 . S
C544 H529 0.979 . S
C544 H530 0.939 1_455 S
C544 C543 1.502 . S
C545 H531 0.957 1_455 S
C545 H532 0.963 . S
C545 H533 0.959 . S
C545 C543 1.561 . S
C546 C543 1.525 . S
C546 C547 1.396 . S
C546 C551 1.390 . S
C547 C541 1.465 1_455 S
C547 C546 1.396 . S
C547 C548 1.399 . S
C548 H534 0.929 . S
C548 C547 1.399 . S
C548 C549 1.385 . S
C549 H535 0.931 . S
C549 C548 1.385 . S
C549 C550 1.389 . S
C550 C549 1.389 . S
C550 C551 1.387 . S
C551 H536 0.930 . S
C551 C546 1.390 . S
C551 C550 1.387 . S
H552 C564 0.930 . S
H553 C566 0.930 . S
H554 C567 0.930 . S
H555 C571 0.959 . S
H556 C571 0.959 . S
H557 C571 0.961 . S
H558 C572 0.960 . S
H559 C572 0.961 . S
H560 C572 0.959 . S
H561 C575 0.929 . S
H562 C576 0.931 . S
H563 C578 0.930 . S
C564 H552 0.930 . S
C564 C565 1.399 . S
C564 C569 1.399 . S
C565 C564 1.399 . S
C565 C566 1.376 . S
C566 H553 0.930 . S
C566 C565 1.376 . S
C566 C567 1.388 . S
C567 H554 0.930 . S
C567 C566 1.388 . S
C567 C568 1.390 . S
C568 C567 1.390 . S
C568 C569 1.394 . S
C568 C574 1.465 . S
C569 C564 1.399 . S
C569 C568 1.394 . S
C569 C570 1.516 . S
C570 C569 1.516 . S
C570 C571 1.502 . S
C570 C572 1.561 . S
C570 C573 1.526 . S
C571 H555 0.959 . S
C571 H556 0.959 . S
C571 H557 0.961 . S
C571 C570 1.502 . S
C572 H558 0.960 . S
C572 H559 0.961 . S
C572 H560 0.959 . S
C572 C570 1.561 . S
C573 C570 1.526 . S
C573 C574 1.396 . S
C573 C578 1.390 . S
C574 C568 1.465 . S
C574 C573 1.396 . S
C574 C575 1.399 . S
C575 H561 0.929 . S
C575 C574 1.399 . S
C575 C576 1.385 . S
C576 H562 0.931 . S
C576 C575 1.385 . S
C576 C577 1.389 . S
C577 C576 1.389 . S
C577 C578 1.387 . S
C578 H563 0.930 . S
C578 C573 1.390 . S
C578 C577 1.387 . S
H579 C591 0.930 . S
H580 C593 0.930 . S
H581 C594 0.930 . S
H582 C598 0.962 . S
H583 C598 0.979 . S
H584 C598 0.939 1_556 S
H585 C599 0.957 1_556 S
H586 C599 0.963 . S
H587 C599 0.959 . S
H588 C602 0.929 . S
H589 C603 0.931 . S
H590 C605 0.930 . S
C591 H579 0.930 . S
C591 C592 1.399 . S
C591 C596 1.399 . S
C592 C591 1.399 . S
C592 C593 1.376 . S
C593 H580 0.930 . S
C593 C592 1.376 . S
C593 C594 1.388 . S
C594 H581 0.930 . S
C594 C593 1.388 . S
C594 C595 1.390 . S
C595 C594 1.390 . S
C595 C596 1.394 . S
C595 C601 1.465 1_556 S
C596 C591 1.399 . S
C596 C595 1.394 . S
C596 C597 1.517 1_556 S
C597 C596 1.517 1_554 S
C597 C598 1.502 . S
C597 C599 1.561 . S
C597 C600 1.525 . S
C598 H582 0.962 . S
C598 H583 0.979 . S
C598 H584 0.939 1_554 S
C598 C597 1.502 . S
C599 H585 0.957 1_554 S
C599 H586 0.963 . S
C599 H587 0.959 . S
C599 C597 1.561 . S
C600 C597 1.525 . S
C600 C601 1.396 . S
C600 C605 1.390 . S
C601 C595 1.465 1_554 S
C601 C600 1.396 . S
C601 C602 1.399 . S
C602 H588 0.929 . S
C602 C601 1.399 . S
C602 C603 1.385 . S
C603 H589 0.931 . S
C603 C602 1.385 . S
C603 C604 1.389 . S
C604 C603 1.389 . S
C604 C605 1.387 . S
C605 H590 0.930 . S
C605 C600 1.390 . S
C605 C604 1.387 . S
H606 C618 0.930 . S
H607 C620 0.930 . S
H608 C621 0.930 . S
H609 C625 0.959 . S
H610 C625 0.959 . S
H611 C625 0.961 . S
H612 C626 0.960 . S
H613 C626 0.961 . S
H614 C626 0.959 . S
H615 C629 0.929 . S
H616 C630 0.931 . S
H617 C632 0.930 . S
C618 H606 0.930 . S
C618 C619 1.399 . S
C618 C623 1.399 . S
C619 C618 1.399 . S
C619 C620 1.376 . S
C620 H607 0.930 . S
C620 C619 1.376 . S
C620 C621 1.388 . S
C621 H608 0.930 . S
C621 C620 1.388 . S
C621 C622 1.390 . S
C622 C621 1.390 . S
C622 C623 1.394 . S
C622 C628 1.465 . S
C623 C618 1.399 . S
C623 C622 1.394 . S
C623 C624 1.516 . S
C624 C623 1.516 . S
C624 C625 1.502 . S
C624 C626 1.561 . S
C624 C627 1.526 . S
C625 H609 0.959 . S
C625 H610 0.959 . S
C625 H611 0.961 . S
C625 C624 1.502 . S
C626 H612 0.960 . S
C626 H613 0.961 . S
C626 H614 0.959 . S
C626 C624 1.561 . S
C627 C624 1.526 . S
C627 C628 1.396 . S
C627 C632 1.390 . S
C628 C622 1.465 . S
C628 C627 1.396 . S
C628 C629 1.399 . S
C629 H615 0.929 . S
C629 C628 1.399 . S
C629 C630 1.385 . S
C630 H616 0.931 . S
C630 C629 1.385 . S
C630 C631 1.389 . S
C631 C630 1.389 . S
C631 C632 1.387 . S
C632 H617 0.930 . S
C632 C627 1.390 . S
C632 C631 1.387 . S
H633 C645 0.930 . S
H634 C647 0.930 . S
H635 C648 0.930 . S
H636 C652 0.962 . S
H637 C652 0.979 . S
H638 C652 0.939 1_554 S
H639 C653 0.957 1_554 S
H640 C653 0.963 . S
H641 C653 0.959 . S
H642 C656 0.929 . S
H643 C657 0.931 . S
H644 C659 0.930 . S
C645 H633 0.930 . S
C645 C646 1.399 . S
C645 C650 1.399 . S
C646 C645 1.399 . S
C646 C647 1.376 . S
C647 H634 0.930 . S
C647 C646 1.376 . S
C647 C648 1.388 . S
C648 H635 0.930 . S
C648 C647 1.388 . S
C648 C649 1.390 . S
C649 C648 1.390 . S
C649 C650 1.394 . S
C649 C655 1.465 1_554 S
C650 C645 1.399 . S
C650 C649 1.394 . S
C650 C651 1.517 1_554 S
C651 C650 1.517 1_556 S
C651 C652 1.502 . S
C651 C653 1.561 . S
C651 C654 1.525 . S
C652 H636 0.962 . S
C652 H637 0.979 . S
C652 H638 0.939 1_556 S
C652 C651 1.502 . S
C653 H639 0.957 1_556 S
C653 H640 0.963 . S
C653 H641 0.959 . S
C653 C651 1.561 . S
C654 C651 1.525 . S
C654 C655 1.396 . S
C654 C659 1.390 . S
C655 C649 1.465 1_556 S
C655 C654 1.396 . S
C655 C656 1.399 . S
C656 H642 0.929 . S
C656 C655 1.399 . S
C656 C657 1.385 . S
C657 H643 0.931 . S
C657 C656 1.385 . S
C657 C658 1.389 . S
C658 C657 1.389 . S
C658 C659 1.387 . S
C659 H644 0.930 . S
C659 C654 1.390 . S
C659 C658 1.387 . S
H660 C672 0.930 . S
H661 C674 0.930 . S
H662 C675 0.930 . S
H663 C679 0.959 . S
H664 C679 0.959 . S
H665 C679 0.961 . S
H666 C680 0.960 . S
H667 C680 0.961 . S
H668 C680 0.959 . S
H669 C683 0.929 . S
H670 C684 0.931 . S
H671 C686 0.930 . S
C672 H660 0.930 . S
C672 C673 1.399 . S
C672 C677 1.399 . S
C673 C672 1.399 . S
C673 C674 1.376 . S
C674 H661 0.930 . S
C674 C673 1.376 . S
C674 C675 1.388 . S
C675 H662 0.930 . S
C675 C674 1.388 . S
C675 C676 1.390 . S
C676 C675 1.390 . S
C676 C677 1.394 . S
C676 C682 1.465 . S
C677 C672 1.399 . S
C677 C676 1.394 . S
C677 C678 1.516 . S
C678 C677 1.516 . S
C678 C679 1.502 . S
C678 C680 1.561 . S
C678 C681 1.526 . S
C679 H663 0.959 . S
C679 H664 0.959 . S
C679 H665 0.961 . S
C679 C678 1.502 . S
C680 H666 0.960 . S
C680 H667 0.961 . S
C680 H668 0.959 . S
C680 C678 1.561 . S
C681 C678 1.526 . S
C681 C682 1.396 . S
C681 C686 1.390 . S
C682 C676 1.465 . S
C682 C681 1.396 . S
C682 C683 1.399 . S
C683 H669 0.929 . S
C683 C682 1.399 . S
C683 C684 1.385 . S
C684 H670 0.931 . S
C684 C683 1.385 . S
C684 C685 1.389 . S
C685 C684 1.389 . S
C685 C686 1.387 . S
C686 H671 0.930 . S
C686 C681 1.390 . S
C686 C685 1.387 . S
H687 C699 0.930 . S
H688 C701 0.930 . S
H689 C702 0.930 . S
H690 C706 0.962 . S
H691 C706 0.979 . S
H692 C706 0.939 1_554 S
H693 C707 0.957 1_554 S
H694 C707 0.963 . S
H695 C707 0.959 . S
H696 C710 0.929 . S
H697 C711 0.931 . S
H698 C713 0.930 . S
C699 H687 0.930 . S
C699 C700 1.399 . S
C699 C704 1.399 . S
C700 C699 1.399 . S
C700 C701 1.376 . S
C701 H688 0.930 . S
C701 C700 1.376 . S
C701 C702 1.388 . S
C702 H689 0.930 . S
C702 C701 1.388 . S
C702 C703 1.390 . S
C703 C702 1.390 . S
C703 C704 1.394 . S
C703 C709 1.465 1_554 S
C704 C699 1.399 . S
C704 C703 1.394 . S
C704 C705 1.517 1_554 S
C705 C704 1.517 1_556 S
C705 C706 1.502 . S
C705 C707 1.561 . S
C705 C708 1.525 . S
C706 H690 0.962 . S
C706 H691 0.979 . S
C706 H692 0.939 1_556 S
C706 C705 1.502 . S
C707 H693 0.957 1_556 S
C707 H694 0.963 . S
C707 H695 0.959 . S
C707 C705 1.561 . S
C708 C705 1.525 . S
C708 C709 1.396 . S
C708 C713 1.390 . S
C709 C703 1.465 1_556 S
C709 C708 1.396 . S
C709 C710 1.399 . S
C710 H696 0.929 . S
C710 C709 1.399 . S
C710 C711 1.385 . S
C711 H697 0.931 . S
C711 C710 1.385 . S
C711 C712 1.389 . S
C712 C711 1.389 . S
C712 C713 1.387 . S
C713 H698 0.930 . S
C713 C708 1.390 . S
C713 C712 1.387 . S
H714 C726 0.930 . S
H715 C728 0.930 . S
H716 C729 0.930 . S
H717 C733 0.959 . S
H718 C733 0.959 . S
H719 C733 0.961 . S
H720 C734 0.960 . S
H721 C734 0.961 . S
H722 C734 0.959 . S
H723 C737 0.929 . S
H724 C738 0.931 . S
H725 C740 0.930 . S
C726 H714 0.930 . S
C726 C727 1.399 . S
C726 C731 1.399 . S
C727 C726 1.399 . S
C727 C728 1.376 . S
C728 H715 0.930 . S
C728 C727 1.376 . S
C728 C729 1.388 . S
C729 H716 0.930 . S
C729 C728 1.388 . S
C729 C730 1.390 . S
C730 C729 1.390 . S
C730 C731 1.394 . S
C730 C736 1.465 . S
C731 C726 1.399 . S
C731 C730 1.394 . S
C731 C732 1.516 . S
C732 C731 1.516 . S
C732 C733 1.502 . S
C732 C734 1.561 . S
C732 C735 1.526 . S
C733 H717 0.959 . S
C733 H718 0.959 . S
C733 H719 0.961 . S
C733 C732 1.502 . S
C734 H720 0.960 . S
C734 H721 0.961 . S
C734 H722 0.959 . S
C734 C732 1.561 . S
C735 C732 1.526 . S
C735 C736 1.396 . S
C735 C740 1.390 . S
C736 C730 1.465 . S
C736 C735 1.396 . S
C736 C737 1.399 . S
C737 H723 0.929 . S
C737 C736 1.399 . S
C737 C738 1.385 . S
C738 H724 0.931 . S
C738 C737 1.385 . S
C738 C739 1.389 . S
C739 C738 1.389 . S
C739 C740 1.387 . S
C740 H725 0.930 . S
C740 C735 1.390 . S
C740 C739 1.387 . S
H741 C753 0.930 . S
H742 C755 0.930 . S
H743 C756 0.930 . S
H744 C760 0.962 . S
H745 C760 0.979 . S
H746 C760 0.939 1_554 S
H747 C761 0.957 1_554 S
H748 C761 0.963 . S
H749 C761 0.959 . S
H750 C764 0.929 . S
H751 C765 0.931 . S
H752 C767 0.930 . S
C753 H741 0.930 . S
C753 C754 1.399 . S
C753 C758 1.399 . S
C754 C753 1.399 . S
C754 C755 1.376 . S
C755 H742 0.930 . S
C755 C754 1.376 . S
C755 C756 1.388 . S
C756 H743 0.930 . S
C756 C755 1.388 . S
C756 C757 1.390 . S
C757 C756 1.390 . S
C757 C758 1.394 . S
C757 C763 1.465 1_554 S
C758 C753 1.399 . S
C758 C757 1.394 . S
C758 C759 1.517 1_554 S
C759 C758 1.517 1_556 S
C759 C760 1.502 . S
C759 C761 1.561 . S
C759 C762 1.525 . S
C760 H744 0.962 . S
C760 H745 0.979 . S
C760 H746 0.939 1_556 S
C760 C759 1.502 . S
C761 H747 0.957 1_556 S
C761 H748 0.963 . S
C761 H749 0.959 . S
C761 C759 1.561 . S
C762 C759 1.525 . S
C762 C763 1.396 . S
C762 C767 1.390 . S
C763 C757 1.465 1_556 S
C763 C762 1.396 . S
C763 C764 1.399 . S
C764 H750 0.929 . S
C764 C763 1.399 . S
C764 C765 1.385 . S
C765 H751 0.931 . S
C765 C764 1.385 . S
C765 C766 1.389 . S
C766 C765 1.389 . S
C766 C767 1.387 . S
C767 H752 0.930 . S
C767 C762 1.390 . S
C767 C766 1.387 . S
H768 C780 0.930 . S
H769 C782 0.930 . S
H770 C783 0.930 . S
H771 C787 0.959 . S
H772 C787 0.959 . S
H773 C787 0.961 . S
H774 C788 0.960 . S
H775 C788 0.961 . S
H776 C788 0.959 . S
H777 C791 0.929 . S
H778 C792 0.931 . S
H779 C794 0.930 . S
C780 H768 0.930 . S
C780 C781 1.399 . S
C780 C785 1.399 . S
C781 C780 1.399 . S
C781 C782 1.376 . S
C782 H769 0.930 . S
C782 C781 1.376 . S
C782 C783 1.388 . S
C783 H770 0.930 . S
C783 C782 1.388 . S
C783 C784 1.390 . S
C784 C783 1.390 . S
C784 C785 1.394 . S
C784 C790 1.465 . S
C785 C780 1.399 . S
C785 C784 1.394 . S
C785 C786 1.516 . S
C786 C785 1.516 . S
C786 C787 1.502 . S
C786 C788 1.561 . S
C786 C789 1.526 . S
C787 H771 0.959 . S
C787 H772 0.959 . S
C787 H773 0.961 . S
C787 C786 1.502 . S
C788 H774 0.960 . S
C788 H775 0.961 . S
C788 H776 0.959 . S
C788 C786 1.561 . S
C789 C786 1.526 . S
C789 C790 1.396 . S
C789 C794 1.390 . S
C790 C784 1.465 . S
C790 C789 1.396 . S
C790 C791 1.399 . S
C791 H777 0.929 . S
C791 C790 1.399 . S
C791 C792 1.385 . S
C792 H778 0.931 . S
C792 C791 1.385 . S
C792 C793 1.389 . S
C793 C792 1.389 . S
C793 C794 1.387 . S
C794 H779 0.930 . S
C794 C789 1.390 . S
C794 C793 1.387 . S
H795 C807 0.930 . S
H796 C809 0.930 . S
H797 C810 0.930 . S
H798 C814 0.959 . S
H799 C814 0.959 . S
H800 C814 0.961 . S
H801 C815 0.960 . S
H802 C815 0.961 . S
H803 C815 0.959 . S
H804 C818 0.929 . S
H805 C819 0.931 . S
H806 C821 0.930 . S
C807 H795 0.930 . S
C807 C808 1.399 . S
C807 C812 1.399 . S
C808 C807 1.399 . S
C808 C809 1.376 . S
C809 H796 0.930 . S
C809 C808 1.376 . S
C809 C810 1.388 . S
C810 H797 0.930 . S
C810 C809 1.388 . S
C810 C811 1.390 . S
C811 C810 1.390 . S
C811 C812 1.394 . S
C811 C817 1.465 . S
C812 C807 1.399 . S
C812 C811 1.394 . S
C812 C813 1.516 . S
C813 C812 1.516 . S
C813 C814 1.502 . S
C813 C815 1.561 . S
C813 C816 1.526 . S
C814 H798 0.959 . S
C814 H799 0.959 . S
C814 H800 0.961 . S
C814 C813 1.502 . S
C815 H801 0.960 . S
C815 H802 0.961 . S
C815 H803 0.959 . S
C815 C813 1.561 . S
C816 C813 1.526 . S
C816 C817 1.396 . S
C816 C821 1.390 . S
C817 C811 1.465 . S
C817 C816 1.396 . S
C817 C818 1.399 . S
C818 H804 0.929 . S
C818 C817 1.399 . S
C818 C819 1.385 . S
C819 H805 0.931 . S
C819 C818 1.385 . S
C819 C820 1.389 . S
C820 C819 1.389 . S
C820 C821 1.387 . S
C821 H806 0.930 . S
C821 C816 1.390 . S
C821 C820 1.387 . S
H822 C834 0.930 . S
H823 C836 0.930 . S
H824 C837 0.930 . S
H825 C841 0.962 . S
H826 C841 0.979 . S
H827 C841 0.939 1_565 S
H828 C842 0.957 1_565 S
H829 C842 0.963 . S
H830 C842 0.959 . S
H831 C845 0.929 . S
H832 C846 0.931 . S
H833 C848 0.930 . S
C834 H822 0.930 . S
C834 C835 1.399 . S
C834 C839 1.399 . S
C835 C834 1.399 . S
C835 C836 1.376 . S
C836 H823 0.930 . S
C836 C835 1.376 . S
C836 C837 1.388 . S
C837 H824 0.930 . S
C837 C836 1.388 . S
C837 C838 1.390 . S
C838 C837 1.390 . S
C838 C839 1.394 . S
C838 C844 1.465 1_565 S
C839 C834 1.399 . S
C839 C838 1.394 . S
C839 C840 1.517 1_565 S
C840 C839 1.517 1_545 S
C840 C841 1.502 . S
C840 C842 1.561 . S
C840 C843 1.525 . S
C841 H825 0.962 . S
C841 H826 0.979 . S
C841 H827 0.939 1_545 S
C841 C840 1.502 . S
C842 H828 0.957 1_545 S
C842 H829 0.963 . S
C842 H830 0.959 . S
C842 C840 1.561 . S
C843 C840 1.525 . S
C843 C844 1.396 . S
C843 C848 1.390 . S
C844 C838 1.465 1_545 S
C844 C843 1.396 . S
C844 C845 1.399 . S
C845 H831 0.929 . S
C845 C844 1.399 . S
C845 C846 1.385 . S
C846 H832 0.931 . S
C846 C845 1.385 . S
C846 C847 1.389 . S
C847 C846 1.389 . S
C847 C848 1.387 . S
C848 H833 0.930 . S
C848 C843 1.390 . S
C848 C847 1.387 . S
H849 C861 0.930 . S
H850 C863 0.930 . S
H851 C864 0.930 . S
H852 C868 0.959 . S
H853 C868 0.959 . S
H854 C868 0.961 . S
H855 C869 0.960 . S
H856 C869 0.961 . S
H857 C869 0.959 . S
H858 C872 0.929 . S
H859 C873 0.931 . S
H860 C875 0.930 . S
C861 H849 0.930 . S
C861 C862 1.399 . S
C861 C866 1.399 . S
C862 C861 1.399 . S
C862 C863 1.376 . S
C863 H850 0.930 . S
C863 C862 1.376 . S
C863 C864 1.388 . S
C864 H851 0.930 . S
C864 C863 1.388 . S
C864 C865 1.390 . S
C865 C864 1.390 . S
C865 C866 1.394 . S
C865 C871 1.465 . S
C866 C861 1.399 . S
C866 C865 1.394 . S
C866 C867 1.516 . S
C867 C866 1.516 . S
C867 C868 1.502 . S
C867 C869 1.561 . S
C867 C870 1.526 . S
C868 H852 0.959 . S
C868 H853 0.959 . S
C868 H854 0.961 . S
C868 C867 1.502 . S
C869 H855 0.960 . S
C869 H856 0.961 . S
C869 H857 0.959 . S
C869 C867 1.561 . S
C870 C867 1.526 . S
C870 C871 1.396 . S
C870 C875 1.390 . S
C871 C865 1.465 . S
C871 C870 1.396 . S
C871 C872 1.399 . S
C872 H858 0.929 . S
C872 C871 1.399 . S
C872 C873 1.385 . S
C873 H859 0.931 . S
C873 C872 1.385 . S
C873 C874 1.389 . S
C874 C873 1.389 . S
C874 C875 1.387 . S
C875 H860 0.930 . S
C875 C870 1.390 . S
C875 C874 1.387 . S
H876 C888 0.930 . S
H877 C890 0.930 . S
H878 C891 0.930 . S
H879 C895 0.962 . S
H880 C895 0.979 . S
H881 C895 0.939 1_565 S
H882 C896 0.957 1_565 S
H883 C896 0.963 . S
H884 C896 0.959 . S
H885 C899 0.929 . S
H886 C900 0.931 . S
H887 C902 0.930 . S
C888 H876 0.930 . S
C888 C889 1.399 . S
C888 C893 1.399 . S
C889 C888 1.399 . S
C889 C890 1.376 . S
C890 H877 0.930 . S
C890 C889 1.376 . S
C890 C891 1.388 . S
C891 H878 0.930 . S
C891 C890 1.388 . S
C891 C892 1.390 . S
C892 C891 1.390 . S
C892 C893 1.394 . S
C892 C898 1.465 1_565 S
C893 C888 1.399 . S
C893 C892 1.394 . S
C893 C894 1.517 1_565 S
C894 C893 1.517 1_545 S
C894 C895 1.502 . S
C894 C896 1.561 . S
C894 C897 1.525 . S
C895 H879 0.962 . S
C895 H880 0.979 . S
C895 H881 0.939 1_545 S
C895 C894 1.502 . S
C896 H882 0.957 1_545 S
C896 H883 0.963 . S
C896 H884 0.959 . S
C896 C894 1.561 . S
C897 C894 1.525 . S
C897 C898 1.396 . S
C897 C902 1.390 . S
C898 C892 1.465 1_545 S
C898 C897 1.396 . S
C898 C899 1.399 . S
C899 H885 0.929 . S
C899 C898 1.399 . S
C899 C900 1.385 . S
C900 H886 0.931 . S
C900 C899 1.385 . S
C900 C901 1.389 . S
C901 C900 1.389 . S
C901 C902 1.387 . S
C902 H887 0.930 . S
C902 C897 1.390 . S
C902 C901 1.387 . S
H903 C915 0.930 . S
H904 C917 0.930 . S
H905 C918 0.930 . S
H906 C922 0.959 . S
H907 C922 0.959 . S
H908 C922 0.961 . S
H909 C923 0.960 . S
H910 C923 0.961 . S
H911 C923 0.959 . S
H912 C926 0.929 . S
H913 C927 0.931 . S
H914 C929 0.930 . S
C915 H903 0.930 . S
C915 C916 1.399 . S
C915 C920 1.399 . S
C916 C915 1.399 . S
C916 C917 1.376 . S
C917 H904 0.930 . S
C917 C916 1.376 . S
C917 C918 1.388 . S
C918 H905 0.930 . S
C918 C917 1.388 . S
C918 C919 1.390 . S
C919 C918 1.390 . S
C919 C920 1.394 . S
C919 C925 1.465 . S
C920 C915 1.399 . S
C920 C919 1.394 . S
C920 C921 1.516 . S
C921 C920 1.516 . S
C921 C922 1.502 . S
C921 C923 1.561 . S
C921 C924 1.526 . S
C922 H906 0.959 . S
C922 H907 0.959 . S
C922 H908 0.961 . S
C922 C921 1.502 . S
C923 H909 0.960 . S
C923 H910 0.961 . S
C923 H911 0.959 . S
C923 C921 1.561 . S
C924 C921 1.526 . S
C924 C925 1.396 . S
C924 C929 1.390 . S
C925 C919 1.465 . S
C925 C924 1.396 . S
C925 C926 1.399 . S
C926 H912 0.929 . S
C926 C925 1.399 . S
C926 C927 1.385 . S
C927 H913 0.931 . S
C927 C926 1.385 . S
C927 C928 1.389 . S
C928 C927 1.389 . S
C928 C929 1.387 . S
C929 H914 0.930 . S
C929 C924 1.390 . S
C929 C928 1.387 . S
H930 C942 0.930 . S
H931 C944 0.930 . S
H932 C945 0.930 . S
H933 C949 0.962 . S
H934 C949 0.979 . S
H935 C949 0.939 1_565 S
H936 C950 0.957 1_565 S
H937 C950 0.963 . S
H938 C950 0.959 . S
H939 C953 0.929 . S
H940 C954 0.931 . S
H941 C956 0.930 . S
C942 H930 0.930 . S
C942 C943 1.399 . S
C942 C947 1.399 . S
C943 C942 1.399 . S
C943 C944 1.376 . S
C944 H931 0.930 . S
C944 C943 1.376 . S
C944 C945 1.388 . S
C945 H932 0.930 . S
C945 C944 1.388 . S
C945 C946 1.390 . S
C946 C945 1.390 . S
C946 C947 1.394 . S
C946 C952 1.465 1_565 S
C947 C942 1.399 . S
C947 C946 1.394 . S
C947 C948 1.517 1_565 S
C948 C947 1.517 1_545 S
C948 C949 1.502 . S
C948 C950 1.561 . S
C948 C951 1.525 . S
C949 H933 0.962 . S
C949 H934 0.979 . S
C949 H935 0.939 1_545 S
C949 C948 1.502 . S
C950 H936 0.957 1_545 S
C950 H937 0.963 . S
C950 H938 0.959 . S
C950 C948 1.561 . S
C951 C948 1.525 . S
C951 C952 1.396 . S
C951 C956 1.390 . S
C952 C946 1.465 1_545 S
C952 C951 1.396 . S
C952 C953 1.399 . S
C953 H939 0.929 . S
C953 C952 1.399 . S
C953 C954 1.385 . S
C954 H940 0.931 . S
C954 C953 1.385 . S
C954 C955 1.389 . S
C955 C954 1.389 . S
C955 C956 1.387 . S
C956 H941 0.930 . S
C956 C951 1.390 . S
C956 C955 1.387 . S
H957 C969 0.930 . S
H958 C971 0.930 . S
H959 C972 0.930 . S
H960 C976 0.962 . S
H961 C976 0.979 . S
H962 C976 0.939 1_545 S
H963 C977 0.957 1_545 S
H964 C977 0.963 . S
H965 C977 0.959 . S
H966 C980 0.929 . S
H967 C981 0.931 . S
H968 C983 0.930 . S
C969 H957 0.930 . S
C969 C970 1.399 . S
C969 C974 1.399 . S
C970 C969 1.399 . S
C970 C971 1.376 . S
C971 H958 0.930 . S
C971 C970 1.376 . S
C971 C972 1.388 . S
C972 H959 0.930 . S
C972 C971 1.388 . S
C972 C973 1.390 . S
C973 C972 1.390 . S
C973 C974 1.394 . S
C973 C979 1.465 1_545 S
C974 C969 1.399 . S
C974 C973 1.394 . S
C974 C975 1.517 1_545 S
C975 C974 1.517 1_565 S
C975 C976 1.502 . S
C975 C977 1.561 . S
C975 C978 1.525 . S
C976 H960 0.962 . S
C976 H961 0.979 . S
C976 H962 0.939 1_565 S
C976 C975 1.502 . S
C977 H963 0.957 1_565 S
C977 H964 0.963 . S
C977 H965 0.959 . S
C977 C975 1.561 . S
C978 C975 1.525 . S
C978 C979 1.396 . S
C978 C983 1.390 . S
C979 C973 1.465 1_565 S
C979 C978 1.396 . S
C979 C980 1.399 . S
C980 H966 0.929 . S
C980 C979 1.399 . S
C980 C981 1.385 . S
C981 H967 0.931 . S
C981 C980 1.385 . S
C981 C982 1.389 . S
C982 C981 1.389 . S
C982 C983 1.387 . S
C983 H968 0.930 . S
C983 C978 1.390 . S
C983 C982 1.387 . S
H984 C996 0.930 . S
H985 C998 0.930 . S
H986 C999 0.930 . S
H987 C1003 0.959 . S
H988 C1003 0.959 . S
H989 C1003 0.961 . S
H990 C1004 0.960 . S
H991 C1004 0.961 . S
H992 C1004 0.959 . S
H993 C1007 0.929 . S
H994 C1008 0.931 . S
H995 C1010 0.930 . S
C996 H984 0.930 . S
C996 C997 1.399 . S
C996 C1001 1.399 . S
C997 C996 1.399 . S
C997 C998 1.376 . S
C998 H985 0.930 . S
C998 C997 1.376 . S
C998 C999 1.388 . S
C999 H986 0.930 . S
C999 C998 1.388 . S
C999 C1000 1.390 . S
C1000 C999 1.390 . S
C1000 C1001 1.394 . S
C1000 C1006 1.465 . S
C1001 C996 1.399 . S
C1001 C1000 1.394 . S
C1001 C1002 1.516 . S
C1002 C1001 1.516 . S
C1002 C1003 1.502 . S
C1002 C1004 1.561 . S
C1002 C1005 1.526 . S
C1003 H987 0.959 . S
C1003 H988 0.959 . S
C1003 H989 0.961 . S
C1003 C1002 1.502 . S
C1004 H990 0.960 . S
C1004 H991 0.961 . S
C1004 H992 0.959 . S
C1004 C1002 1.561 . S
C1005 C1002 1.526 . S
C1005 C1006 1.396 . S
C1005 C1010 1.390 . S
C1006 C1000 1.465 . S
C1006 C1005 1.396 . S
C1006 C1007 1.399 . S
C1007 H993 0.929 . S
C1007 C1006 1.399 . S
C1007 C1008 1.385 . S
C1008 H994 0.931 . S
C1008 C1007 1.385 . S
C1008 C1009 1.389 . S
C1009 C1008 1.389 . S
C1009 C1010 1.387 . S
C1010 H995 0.930 . S
C1010 C1005 1.390 . S
C1010 C1009 1.387 . S
H1011 C1023 0.930 . S
H1012 C1025 0.930 . S
H1013 C1026 0.930 . S
H1014 C1030 0.959 . S
H1015 C1030 0.959 . S
H1016 C1030 0.961 . S
H1017 C1031 0.960 . S
H1018 C1031 0.961 . S
H1019 C1031 0.959 . S
H1020 C1034 0.929 . S
H1021 C1035 0.931 . S
H1022 C1037 0.930 . S
C1023 H1011 0.930 . S
C1023 C1024 1.399 . S
C1023 C1028 1.399 . S
C1024 C1023 1.399 . S
C1024 C1025 1.376 . S
C1025 H1012 0.930 . S
C1025 C1024 1.376 . S
C1025 C1026 1.388 . S
C1026 H1013 0.930 . S
C1026 C1025 1.388 . S
C1026 C1027 1.390 . S
C1027 C1026 1.390 . S
C1027 C1028 1.394 . S
C1027 C1033 1.465 . S
C1028 C1023 1.399 . S
C1028 C1027 1.394 . S
C1028 C1029 1.516 . S
C1029 C1028 1.516 . S
C1029 C1030 1.502 . S
C1029 C1031 1.561 . S
C1029 C1032 1.526 . S
C1030 H1014 0.959 . S
C1030 H1015 0.959 . S
C1030 H1016 0.961 . S
C1030 C1029 1.502 . S
C1031 H1017 0.960 . S
C1031 H1018 0.961 . S
C1031 H1019 0.959 . S
C1031 C1029 1.561 . S
C1032 C1029 1.526 . S
C1032 C1033 1.396 . S
C1032 C1037 1.390 . S
C1033 C1027 1.465 . S
C1033 C1032 1.396 . S
C1033 C1034 1.399 . S
C1034 H1020 0.929 . S
C1034 C1033 1.399 . S
C1034 C1035 1.385 . S
C1035 H1021 0.931 . S
C1035 C1034 1.385 . S
C1035 C1036 1.389 . S
C1036 C1035 1.389 . S
C1036 C1037 1.387 . S
C1037 H1022 0.930 . S
C1037 C1032 1.390 . S
C1037 C1036 1.387 . S
H1038 C1050 0.930 . S
H1039 C1052 0.930 . S
H1040 C1053 0.930 . S
H1041 C1057 0.959 . S
H1042 C1057 0.959 . S
H1043 C1057 0.961 . S
H1044 C1058 0.960 . S
H1045 C1058 0.961 . S
H1046 C1058 0.959 . S
H1047 C1061 0.929 . S
H1048 C1062 0.931 . S
H1049 C1064 0.930 . S
C1050 H1038 0.930 . S
C1050 C1051 1.399 . S
C1050 C1055 1.399 . S
C1051 C1050 1.399 . S
C1051 C1052 1.376 . S
C1052 H1039 0.930 . S
C1052 C1051 1.376 . S
C1052 C1053 1.388 . S
C1053 H1040 0.930 . S
C1053 C1052 1.388 . S
C1053 C1054 1.390 . S
C1054 C1053 1.390 . S
C1054 C1055 1.394 . S
C1054 C1060 1.465 . S
C1055 C1050 1.399 . S
C1055 C1054 1.394 . S
C1055 C1056 1.516 . S
C1056 C1055 1.516 . S
C1056 C1057 1.502 . S
C1056 C1058 1.561 . S
C1056 C1059 1.526 . S
C1057 H1041 0.959 . S
C1057 H1042 0.959 . S
C1057 H1043 0.961 . S
C1057 C1056 1.502 . S
C1058 H1044 0.960 . S
C1058 H1045 0.961 . S
C1058 H1046 0.959 . S
C1058 C1056 1.561 . S
C1059 C1056 1.526 . S
C1059 C1060 1.396 . S
C1059 C1064 1.390 . S
C1060 C1054 1.465 . S
C1060 C1059 1.396 . S
C1060 C1061 1.399 . S
C1061 H1047 0.929 . S
C1061 C1060 1.399 . S
C1061 C1062 1.385 . S
C1062 H1048 0.931 . S
C1062 C1061 1.385 . S
C1062 C1063 1.389 . S
C1063 C1062 1.389 . S
C1063 C1064 1.387 . S
C1064 H1049 0.930 . S
C1064 C1059 1.390 . S
C1064 C1063 1.387 . S
H1065 C1077 0.930 . S
H1066 C1079 0.930 . S
H1067 C1080 0.930 . S
H1068 C1084 0.959 . S
H1069 C1084 0.959 . S
H1070 C1084 0.961 . S
H1071 C1085 0.960 . S
H1072 C1085 0.961 . S
H1073 C1085 0.959 . S
H1074 C1088 0.929 . S
H1075 C1089 0.931 . S
H1076 C1091 0.930 . S
C1077 H1065 0.930 . S
C1077 C1078 1.399 . S
C1077 C1082 1.399 . S
C1078 C1077 1.399 . S
C1078 C1079 1.376 . S
C1079 H1066 0.930 . S
C1079 C1078 1.376 . S
C1079 C1080 1.388 . S
C1080 H1067 0.930 . S
C1080 C1079 1.388 . S
C1080 C1081 1.390 . S
C1081 C1080 1.390 . S
C1081 C1082 1.394 . S
C1081 C1087 1.465 . S
C1082 C1077 1.399 . S
C1082 C1081 1.394 . S
C1082 C1083 1.516 . S
C1083 C1082 1.516 . S
C1083 C1084 1.502 . S
C1083 C1085 1.561 . S
C1083 C1086 1.526 . S
C1084 H1068 0.959 . S
C1084 H1069 0.959 . S
C1084 H1070 0.961 . S
C1084 C1083 1.502 . S
C1085 H1071 0.960 . S
C1085 H1072 0.961 . S
C1085 H1073 0.959 . S
C1085 C1083 1.561 . S
C1086 C1083 1.526 . S
C1086 C1087 1.396 . S
C1086 C1091 1.390 . S
C1087 C1081 1.465 . S
C1087 C1086 1.396 . S
C1087 C1088 1.399 . S
C1088 H1074 0.929 . S
C1088 C1087 1.399 . S
C1088 C1089 1.385 . S
C1089 H1075 0.931 . S
C1089 C1088 1.385 . S
C1089 C1090 1.389 . S
C1090 C1089 1.389 . S
C1090 C1091 1.387 . S
C1091 H1076 0.930 . S
C1091 C1086 1.390 . S
C1091 C1090 1.387 . S
H1092 C1104 0.930 . S
H1093 C1106 0.930 . S
H1094 C1107 0.930 . S
H1095 C1111 0.959 . S
H1096 C1111 0.959 . S
H1097 C1111 0.961 . S
H1098 C1112 0.960 . S
H1099 C1112 0.961 . S
H1100 C1112 0.959 . S
H1101 C1115 0.929 . S
H1102 C1116 0.931 . S
H1103 C1118 0.930 . S
C1104 H1092 0.930 . S
C1104 C1105 1.399 . S
C1104 C1109 1.399 . S
C1105 C1104 1.399 . S
C1105 C1106 1.376 . S
C1106 H1093 0.930 . S
C1106 C1105 1.376 . S
C1106 C1107 1.388 . S
C1107 H1094 0.930 . S
C1107 C1106 1.388 . S
C1107 C1108 1.390 . S
C1108 C1107 1.390 . S
C1108 C1109 1.394 . S
C1108 C1114 1.465 . S
C1109 C1104 1.399 . S
C1109 C1108 1.394 . S
C1109 C1110 1.516 . S
C1110 C1109 1.516 . S
C1110 C1111 1.502 . S
C1110 C1112 1.561 . S
C1110 C1113 1.526 . S
C1111 H1095 0.959 . S
C1111 H1096 0.959 . S
C1111 H1097 0.961 . S
C1111 C1110 1.502 . S
C1112 H1098 0.960 . S
C1112 H1099 0.961 . S
C1112 H1100 0.959 . S
C1112 C1110 1.561 . S
C1113 C1110 1.526 . S
C1113 C1114 1.396 . S
C1113 C1118 1.390 . S
C1114 C1108 1.465 . S
C1114 C1113 1.396 . S
C1114 C1115 1.399 . S
C1115 H1101 0.929 . S
C1115 C1114 1.399 . S
C1115 C1116 1.385 . S
C1116 H1102 0.931 . S
C1116 C1115 1.385 . S
C1116 C1117 1.389 . S
C1117 C1116 1.389 . S
C1117 C1118 1.387 . S
C1118 H1103 0.930 . S
C1118 C1113 1.390 . S
C1118 C1117 1.387 . S
H1119 C1131 0.930 . S
H1120 C1133 0.930 . S
H1121 C1134 0.930 . S
H1122 C1138 0.959 . S
H1123 C1138 0.959 . S
H1124 C1138 0.961 . S
H1125 C1139 0.960 . S
H1126 C1139 0.961 . S
H1127 C1139 0.959 . S
H1128 C1142 0.929 . S
H1129 C1143 0.931 . S
H1130 C1145 0.930 . S
C1131 H1119 0.930 . S
C1131 C1132 1.399 . S
C1131 C1136 1.399 . S
C1132 C1131 1.399 . S
C1132 C1133 1.376 . S
C1133 H1120 0.930 . S
C1133 C1132 1.376 . S
C1133 C1134 1.388 . S
C1134 H1121 0.930 . S
C1134 C1133 1.388 . S
C1134 C1135 1.390 . S
C1135 C1134 1.390 . S
C1135 C1136 1.394 . S
C1135 C1141 1.465 . S
C1136 C1131 1.399 . S
C1136 C1135 1.394 . S
C1136 C1137 1.516 . S
C1137 C1136 1.516 . S
C1137 C1138 1.502 . S
C1137 C1139 1.561 . S
C1137 C1140 1.526 . S
C1138 H1122 0.959 . S
C1138 H1123 0.959 . S
C1138 H1124 0.961 . S
C1138 C1137 1.502 . S
C1139 H1125 0.960 . S
C1139 H1126 0.961 . S
C1139 H1127 0.959 . S
C1139 C1137 1.561 . S
C1140 C1137 1.526 . S
C1140 C1141 1.396 . S
C1140 C1145 1.390 . S
C1141 C1135 1.465 . S
C1141 C1140 1.396 . S
C1141 C1142 1.399 . S
C1142 H1128 0.929 . S
C1142 C1141 1.399 . S
C1142 C1143 1.385 . S
C1143 H1129 0.931 . S
C1143 C1142 1.385 . S
C1143 C1144 1.389 . S
C1144 C1143 1.389 . S
C1144 C1145 1.387 . S
C1145 H1130 0.930 . S
C1145 C1140 1.390 . S
C1145 C1144 1.387 . S
H1146 C1158 0.930 . S
H1147 C1160 0.930 . S
H1148 C1161 0.930 . S
H1149 C1165 0.959 . S
H1150 C1165 0.959 . S
H1151 C1165 0.961 . S
H1152 C1166 0.960 . S
H1153 C1166 0.961 . S
H1154 C1166 0.959 . S
H1155 C1169 0.929 . S
H1156 C1170 0.931 . S
H1157 C1172 0.930 . S
C1158 H1146 0.930 . S
C1158 C1159 1.399 . S
C1158 C1163 1.399 . S
C1159 C1158 1.399 . S
C1159 C1160 1.376 . S
C1160 H1147 0.930 . S
C1160 C1159 1.376 . S
C1160 C1161 1.388 . S
C1161 H1148 0.930 . S
C1161 C1160 1.388 . S
C1161 C1162 1.390 . S
C1162 C1161 1.390 . S
C1162 C1163 1.394 . S
C1162 C1168 1.465 . S
C1163 C1158 1.399 . S
C1163 C1162 1.394 . S
C1163 C1164 1.516 . S
C1164 C1163 1.516 . S
C1164 C1165 1.502 . S
C1164 C1166 1.561 . S
C1164 C1167 1.526 . S
C1165 H1149 0.959 . S
C1165 H1150 0.959 . S
C1165 H1151 0.961 . S
C1165 C1164 1.502 . S
C1166 H1152 0.960 . S
C1166 H1153 0.961 . S
C1166 H1154 0.959 . S
C1166 C1164 1.561 . S
C1167 C1164 1.526 . S
C1167 C1168 1.396 . S
C1167 C1172 1.390 . S
C1168 C1162 1.465 . S
C1168 C1167 1.396 . S
C1168 C1169 1.399 . S
C1169 H1155 0.929 . S
C1169 C1168 1.399 . S
C1169 C1170 1.385 . S
C1170 H1156 0.931 . S
C1170 C1169 1.385 . S
C1170 C1171 1.389 . S
C1171 C1170 1.389 . S
C1171 C1172 1.387 . S
C1172 H1157 0.930 . S
C1172 C1167 1.390 . S
C1172 C1171 1.387 . S
H1173 C1185 0.930 . S
H1174 C1187 0.930 . S
H1175 C1188 0.930 . S
H1176 C1192 0.959 . S
H1177 C1192 0.959 . S
H1178 C1192 0.961 . S
H1179 C1193 0.960 . S
H1180 C1193 0.961 . S
H1181 C1193 0.959 . S
H1182 C1196 0.929 . S
H1183 C1197 0.931 . S
H1184 C1199 0.930 . S
C1185 H1173 0.930 . S
C1185 C1186 1.399 . S
C1185 C1190 1.399 . S
C1186 C1185 1.399 . S
C1186 C1187 1.376 . S
C1187 H1174 0.930 . S
C1187 C1186 1.376 . S
C1187 C1188 1.388 . S
C1188 H1175 0.930 . S
C1188 C1187 1.388 . S
C1188 C1189 1.390 . S
C1189 C1188 1.390 . S
C1189 C1190 1.394 . S
C1189 C1195 1.465 . S
C1190 C1185 1.399 . S
C1190 C1189 1.394 . S
C1190 C1191 1.516 . S
C1191 C1190 1.516 . S
C1191 C1192 1.502 . S
C1191 C1193 1.561 . S
C1191 C1194 1.526 . S
C1192 H1176 0.959 . S
C1192 H1177 0.959 . S
C1192 H1178 0.961 . S
C1192 C1191 1.502 . S
C1193 H1179 0.960 . S
C1193 H1180 0.961 . S
C1193 H1181 0.959 . S
C1193 C1191 1.561 . S
C1194 C1191 1.526 . S
C1194 C1195 1.396 . S
C1194 C1199 1.390 . S
C1195 C1189 1.465 . S
C1195 C1194 1.396 . S
C1195 C1196 1.399 . S
C1196 H1182 0.929 . S
C1196 C1195 1.399 . S
C1196 C1197 1.385 . S
C1197 H1183 0.931 . S
C1197 C1196 1.385 . S
C1197 C1198 1.389 . S
C1198 C1197 1.389 . S
C1198 C1199 1.387 . S
C1199 H1184 0.930 . S
C1199 C1194 1.390 . S
C1199 C1198 1.387 . S
H1200 C1212 0.930 . S
H1201 C1214 0.930 . S
H1202 C1215 0.930 . S
H1203 C1219 0.959 . S
H1204 C1219 0.959 . S
H1205 C1219 0.961 . S
H1206 C1220 0.960 . S
H1207 C1220 0.961 . S
H1208 C1220 0.959 . S
H1209 C1223 0.929 . S
H1210 C1224 0.931 . S
H1211 C1226 0.930 . S
C1212 H1200 0.930 . S
C1212 C1213 1.399 . S
C1212 C1217 1.399 . S
C1213 C1212 1.399 . S
C1213 C1214 1.376 . S
C1214 H1201 0.930 . S
C1214 C1213 1.376 . S
C1214 C1215 1.388 . S
C1215 H1202 0.930 . S
C1215 C1214 1.388 . S
C1215 C1216 1.390 . S
C1216 C1215 1.390 . S
C1216 C1217 1.394 . S
C1216 C1222 1.465 . S
C1217 C1212 1.399 . S
C1217 C1216 1.394 . S
C1217 C1218 1.516 . S
C1218 C1217 1.516 . S
C1218 C1219 1.502 . S
C1218 C1220 1.561 . S
C1218 C1221 1.526 . S
C1219 H1203 0.959 . S
C1219 H1204 0.959 . S
C1219 H1205 0.961 . S
C1219 C1218 1.502 . S
C1220 H1206 0.960 . S
C1220 H1207 0.961 . S
C1220 H1208 0.959 . S
C1220 C1218 1.561 . S
C1221 C1218 1.526 . S
C1221 C1222 1.396 . S
C1221 C1226 1.390 . S
C1222 C1216 1.465 . S
C1222 C1221 1.396 . S
C1222 C1223 1.399 . S
C1223 H1209 0.929 . S
C1223 C1222 1.399 . S
C1223 C1224 1.385 . S
C1224 H1210 0.931 . S
C1224 C1223 1.385 . S
C1224 C1225 1.389 . S
C1225 C1224 1.389 . S
C1225 C1226 1.387 . S
C1226 H1211 0.930 . S
C1226 C1221 1.390 . S
C1226 C1225 1.387 . S
H1227 C1239 0.930 . S
H1228 C1241 0.930 . S
H1229 C1242 0.930 . S
H1230 C1246 0.959 . S
H1231 C1246 0.959 . S
H1232 C1246 0.961 . S
H1233 C1247 0.960 . S
H1234 C1247 0.961 . S
H1235 C1247 0.959 . S
H1236 C1250 0.929 . S
H1237 C1251 0.931 . S
H1238 C1253 0.930 . S
C1239 H1227 0.930 . S
C1239 C1240 1.399 . S
C1239 C1244 1.399 . S
C1240 C1239 1.399 . S
C1240 C1241 1.376 . S
C1241 H1228 0.930 . S
C1241 C1240 1.376 . S
C1241 C1242 1.388 . S
C1242 H1229 0.930 . S
C1242 C1241 1.388 . S
C1242 C1243 1.390 . S
C1243 C1242 1.390 . S
C1243 C1244 1.394 . S
C1243 C1249 1.465 . S
C1244 C1239 1.399 . S
C1244 C1243 1.394 . S
C1244 C1245 1.516 . S
C1245 C1244 1.516 . S
C1245 C1246 1.502 . S
C1245 C1247 1.561 . S
C1245 C1248 1.526 . S
C1246 H1230 0.959 . S
C1246 H1231 0.959 . S
C1246 H1232 0.961 . S
C1246 C1245 1.502 . S
C1247 H1233 0.960 . S
C1247 H1234 0.961 . S
C1247 H1235 0.959 . S
C1247 C1245 1.561 . S
C1248 C1245 1.526 . S
C1248 C1249 1.396 . S
C1248 C1253 1.390 . S
C1249 C1243 1.465 . S
C1249 C1248 1.396 . S
C1249 C1250 1.399 . S
C1250 H1236 0.929 . S
C1250 C1249 1.399 . S
C1250 C1251 1.385 . S
C1251 H1237 0.931 . S
C1251 C1250 1.385 . S
C1251 C1252 1.389 . S
C1252 C1251 1.389 . S
C1252 C1253 1.387 . S
C1253 H1238 0.930 . S
C1253 C1248 1.390 . S
C1253 C1252 1.387 . S
H1254 C1266 0.930 . S
H1255 C1268 0.930 . S
H1256 C1269 0.930 . S
H1257 C1273 0.959 . S
H1258 C1273 0.959 . S
H1259 C1273 0.961 . S
H1260 C1274 0.960 . S
H1261 C1274 0.961 . S
H1262 C1274 0.959 . S
H1263 C1277 0.929 . S
H1264 C1278 0.931 . S
H1265 C1280 0.930 . S
C1266 H1254 0.930 . S
C1266 C1267 1.399 . S
C1266 C1271 1.399 . S
C1267 C1266 1.399 . S
C1267 C1268 1.376 . S
C1268 H1255 0.930 . S
C1268 C1267 1.376 . S
C1268 C1269 1.388 . S
C1269 H1256 0.930 . S
C1269 C1268 1.388 . S
C1269 C1270 1.390 . S
C1270 C1269 1.390 . S
C1270 C1271 1.394 . S
C1270 C1276 1.465 . S
C1271 C1266 1.399 . S
C1271 C1270 1.394 . S
C1271 C1272 1.516 . S
C1272 C1271 1.516 . S
C1272 C1273 1.502 . S
C1272 C1274 1.561 . S
C1272 C1275 1.526 . S
C1273 H1257 0.959 . S
C1273 H1258 0.959 . S
C1273 H1259 0.961 . S
C1273 C1272 1.502 . S
C1274 H1260 0.960 . S
C1274 H1261 0.961 . S
C1274 H1262 0.959 . S
C1274 C1272 1.561 . S
C1275 C1272 1.526 . S
C1275 C1276 1.396 . S
C1275 C1280 1.390 . S
C1276 C1270 1.465 . S
C1276 C1275 1.396 . S
C1276 C1277 1.399 . S
C1277 H1263 0.929 . S
C1277 C1276 1.399 . S
C1277 C1278 1.385 . S
C1278 H1264 0.931 . S
C1278 C1277 1.385 . S
C1278 C1279 1.389 . S
C1279 C1278 1.389 . S
C1279 C1280 1.387 . S
C1280 H1265 0.930 . S
C1280 C1275 1.390 . S
C1280 C1279 1.387 . S
H1281 C1293 0.930 . S
H1282 C1295 0.930 . S
H1283 C1296 0.930 . S
H1284 C1300 0.959 . S
H1285 C1300 0.959 . S
H1286 C1300 0.961 . S
H1287 C1301 0.960 . S
H1288 C1301 0.961 . S
H1289 C1301 0.959 . S
H1290 C1304 0.929 . S
H1291 C1305 0.931 . S
H1292 C1307 0.930 . S
C1293 H1281 0.930 . S
C1293 C1294 1.399 . S
C1293 C1298 1.399 . S
C1294 C1293 1.399 . S
C1294 C1295 1.376 . S
C1295 H1282 0.930 . S
C1295 C1294 1.376 . S
C1295 C1296 1.388 . S
C1296 H1283 0.930 . S
C1296 C1295 1.388 . S
C1296 C1297 1.390 . S
C1297 C1296 1.390 . S
C1297 C1298 1.394 . S
C1297 C1303 1.465 . S
C1298 C1293 1.399 . S
C1298 C1297 1.394 . S
C1298 C1299 1.516 . S
C1299 C1298 1.516 . S
C1299 C1300 1.502 . S
C1299 C1301 1.561 . S
C1299 C1302 1.526 . S
C1300 H1284 0.959 . S
C1300 H1285 0.959 . S
C1300 H1286 0.961 . S
C1300 C1299 1.502 . S
C1301 H1287 0.960 . S
C1301 H1288 0.961 . S
C1301 H1289 0.959 . S
C1301 C1299 1.561 . S
C1302 C1299 1.526 . S
C1302 C1303 1.396 . S
C1302 C1307 1.390 . S
C1303 C1297 1.465 . S
C1303 C1302 1.396 . S
C1303 C1304 1.399 . S
C1304 H1290 0.929 . S
C1304 C1303 1.399 . S
C1304 C1305 1.385 . S
C1305 H1291 0.931 . S
C1305 C1304 1.385 . S
C1305 C1306 1.389 . S
C1306 C1305 1.389 . S
C1306 C1307 1.387 . S
C1307 H1292 0.930 . S
C1307 C1302 1.390 . S
C1307 C1306 1.387 . S
H1308 C1320 0.930 . S
H1309 C1322 0.930 . S
H1310 C1323 0.930 . S
H1311 C1327 0.959 . S
H1312 C1327 0.959 . S
H1313 C1327 0.961 . S
H1314 C1328 0.960 . S
H1315 C1328 0.961 . S
H1316 C1328 0.959 . S
H1317 C1331 0.929 . S
H1318 C1332 0.931 . S
H1319 C1334 0.930 . S
C1320 H1308 0.930 . S
C1320 C1321 1.399 . S
C1320 C1325 1.399 . S
C1321 C1320 1.399 . S
C1321 C1322 1.376 . S
C1322 H1309 0.930 . S
C1322 C1321 1.376 . S
C1322 C1323 1.388 . S
C1323 H1310 0.930 . S
C1323 C1322 1.388 . S
C1323 C1324 1.390 . S
C1324 C1323 1.390 . S
C1324 C1325 1.394 . S
C1324 C1330 1.465 . S
C1325 C1320 1.399 . S
C1325 C1324 1.394 . S
C1325 C1326 1.516 . S
C1326 C1325 1.516 . S
C1326 C1327 1.502 . S
C1326 C1328 1.561 . S
C1326 C1329 1.526 . S
C1327 H1311 0.959 . S
C1327 H1312 0.959 . S
C1327 H1313 0.961 . S
C1327 C1326 1.502 . S
C1328 H1314 0.960 . S
C1328 H1315 0.961 . S
C1328 H1316 0.959 . S
C1328 C1326 1.561 . S
C1329 C1326 1.526 . S
C1329 C1330 1.396 . S
C1329 C1334 1.390 . S
C1330 C1324 1.465 . S
C1330 C1329 1.396 . S
C1330 C1331 1.399 . S
C1331 H1317 0.929 . S
C1331 C1330 1.399 . S
C1331 C1332 1.385 . S
C1332 H1318 0.931 . S
C1332 C1331 1.385 . S
C1332 C1333 1.389 . S
C1333 C1332 1.389 . S
C1333 C1334 1.387 . S
C1334 H1319 0.930 . S
C1334 C1329 1.390 . S
C1334 C1333 1.387 . S
H1335 C1347 0.930 . S
H1336 C1349 0.930 . S
H1337 C1350 0.930 . S
H1338 C1354 0.959 . S
H1339 C1354 0.959 . S
H1340 C1354 0.961 . S
H1341 C1355 0.960 . S
H1342 C1355 0.961 . S
H1343 C1355 0.959 . S
H1344 C1358 0.929 . S
H1345 C1359 0.931 . S
H1346 C1361 0.930 . S
C1347 H1335 0.930 . S
C1347 C1348 1.399 . S
C1347 C1352 1.399 . S
C1348 C1347 1.399 . S
C1348 C1349 1.376 . S
C1349 H1336 0.930 . S
C1349 C1348 1.376 . S
C1349 C1350 1.388 . S
C1350 H1337 0.930 . S
C1350 C1349 1.388 . S
C1350 C1351 1.390 . S
C1351 C1350 1.390 . S
C1351 C1352 1.394 . S
C1351 C1357 1.465 . S
C1352 C1347 1.399 . S
C1352 C1351 1.394 . S
C1352 C1353 1.516 . S
C1353 C1352 1.516 . S
C1353 C1354 1.502 . S
C1353 C1355 1.561 . S
C1353 C1356 1.526 . S
C1354 H1338 0.959 . S
C1354 H1339 0.959 . S
C1354 H1340 0.961 . S
C1354 C1353 1.502 . S
C1355 H1341 0.960 . S
C1355 H1342 0.961 . S
C1355 H1343 0.959 . S
C1355 C1353 1.561 . S
C1356 C1353 1.526 . S
C1356 C1357 1.396 . S
C1356 C1361 1.390 . S
C1357 C1351 1.465 . S
C1357 C1356 1.396 . S
C1357 C1358 1.399 . S
C1358 H1344 0.929 . S
C1358 C1357 1.399 . S
C1358 C1359 1.385 . S
C1359 H1345 0.931 . S
C1359 C1358 1.385 . S
C1359 C1360 1.389 . S
C1360 C1359 1.389 . S
C1360 C1361 1.387 . S
C1361 H1346 0.930 . S
C1361 C1356 1.390 . S
C1361 C1360 1.387 . S
H1362 C1374 0.930 . S
H1363 C1376 0.930 . S
H1364 C1377 0.930 . S
H1365 C1381 0.959 . S
H1366 C1381 0.959 . S
H1367 C1381 0.961 . S
H1368 C1382 0.960 . S
H1369 C1382 0.961 . S
H1370 C1382 0.959 . S
H1371 C1385 0.929 . S
H1372 C1386 0.931 . S
H1373 C1388 0.930 . S
C1374 H1362 0.930 . S
C1374 C1375 1.399 . S
C1374 C1379 1.399 . S
C1375 C1374 1.399 . S
C1375 C1376 1.376 . S
C1376 H1363 0.930 . S
C1376 C1375 1.376 . S
C1376 C1377 1.388 . S
C1377 H1364 0.930 . S
C1377 C1376 1.388 . S
C1377 C1378 1.390 . S
C1378 C1377 1.390 . S
C1378 C1379 1.394 . S
C1378 C1384 1.465 . S
C1379 C1374 1.399 . S
C1379 C1378 1.394 . S
C1379 C1380 1.516 . S
C1380 C1379 1.516 . S
C1380 C1381 1.502 . S
C1380 C1382 1.561 . S
C1380 C1383 1.526 . S
C1381 H1365 0.959 . S
C1381 H1366 0.959 . S
C1381 H1367 0.961 . S
C1381 C1380 1.502 . S
C1382 H1368 0.960 . S
C1382 H1369 0.961 . S
C1382 H1370 0.959 . S
C1382 C1380 1.561 . S
C1383 C1380 1.526 . S
C1383 C1384 1.396 . S
C1383 C1388 1.390 . S
C1384 C1378 1.465 . S
C1384 C1383 1.396 . S
C1384 C1385 1.399 . S
C1385 H1371 0.929 . S
C1385 C1384 1.399 . S
C1385 C1386 1.385 . S
C1386 H1372 0.931 . S
C1386 C1385 1.385 . S
C1386 C1387 1.389 . S
C1387 C1386 1.389 . S
C1387 C1388 1.387 . S
C1388 H1373 0.930 . S
C1388 C1383 1.390 . S
C1388 C1387 1.387 . S
H1389 C1401 0.930 . S
H1390 C1403 0.930 . S
H1391 C1404 0.930 . S
H1392 C1408 0.959 . S
H1393 C1408 0.959 . S
H1394 C1408 0.961 . S
H1395 C1409 0.960 . S
H1396 C1409 0.961 . S
H1397 C1409 0.959 . S
H1398 C1412 0.929 . S
H1399 C1413 0.931 . S
H1400 C1415 0.930 . S
C1401 H1389 0.930 . S
C1401 C1402 1.399 . S
C1401 C1406 1.399 . S
C1402 C1401 1.399 . S
C1402 C1403 1.376 . S
C1403 H1390 0.930 . S
C1403 C1402 1.376 . S
C1403 C1404 1.388 . S
C1404 H1391 0.930 . S
C1404 C1403 1.388 . S
C1404 C1405 1.390 . S
C1405 C1404 1.390 . S
C1405 C1406 1.394 . S
C1405 C1411 1.465 . S
C1406 C1401 1.399 . S
C1406 C1405 1.394 . S
C1406 C1407 1.516 . S
C1407 C1406 1.516 . S
C1407 C1408 1.502 . S
C1407 C1409 1.561 . S
C1407 C1410 1.526 . S
C1408 H1392 0.959 . S
C1408 H1393 0.959 . S
C1408 H1394 0.961 . S
C1408 C1407 1.502 . S
C1409 H1395 0.960 . S
C1409 H1396 0.961 . S
C1409 H1397 0.959 . S
C1409 C1407 1.561 . S
C1410 C1407 1.526 . S
C1410 C1411 1.396 . S
C1410 C1415 1.390 . S
C1411 C1405 1.465 . S
C1411 C1410 1.396 . S
C1411 C1412 1.399 . S
C1412 H1398 0.929 . S
C1412 C1411 1.399 . S
C1412 C1413 1.385 . S
C1413 H1399 0.931 . S
C1413 C1412 1.385 . S
C1413 C1414 1.389 . S
C1414 C1413 1.389 . S
C1414 C1415 1.387 . S
C1415 H1400 0.930 . S
C1415 C1410 1.390 . S
C1415 C1414 1.387 . S
H1416 C1428 0.930 . S
H1417 C1430 0.930 . S
H1418 C1431 0.930 . S
H1419 C1435 0.959 . S
H1420 C1435 0.959 . S
H1421 C1435 0.961 . S
H1422 C1436 0.960 . S
H1423 C1436 0.961 . S
H1424 C1436 0.959 . S
H1425 C1439 0.929 . S
H1426 C1440 0.931 . S
H1427 C1442 0.930 . S
C1428 H1416 0.930 . S
C1428 C1429 1.399 . S
C1428 C1433 1.399 . S
C1429 C1428 1.399 . S
C1429 C1430 1.376 . S
C1430 H1417 0.930 . S
C1430 C1429 1.376 . S
C1430 C1431 1.388 . S
C1431 H1418 0.930 . S
C1431 C1430 1.388 . S
C1431 C1432 1.390 . S
C1432 C1431 1.390 . S
C1432 C1433 1.394 . S
C1432 C1438 1.465 . S
C1433 C1428 1.399 . S
C1433 C1432 1.394 . S
C1433 C1434 1.516 . S
C1434 C1433 1.516 . S
C1434 C1435 1.502 . S
C1434 C1436 1.561 . S
C1434 C1437 1.526 . S
C1435 H1419 0.959 . S
C1435 H1420 0.959 . S
C1435 H1421 0.961 . S
C1435 C1434 1.502 . S
C1436 H1422 0.960 . S
C1436 H1423 0.961 . S
C1436 H1424 0.959 . S
C1436 C1434 1.561 . S
C1437 C1434 1.526 . S
C1437 C1438 1.396 . S
C1437 C1442 1.390 . S
C1438 C1432 1.465 . S
C1438 C1437 1.396 . S
C1438 C1439 1.399 . S
C1439 H1425 0.929 . S
C1439 C1438 1.399 . S
C1439 C1440 1.385 . S
C1440 H1426 0.931 . S
C1440 C1439 1.385 . S
C1440 C1441 1.389 . S
C1441 C1440 1.389 . S
C1441 C1442 1.387 . S
C1442 H1427 0.930 . S
C1442 C1437 1.390 . S
C1442 C1441 1.387 . S
H1443 C1455 0.930 . S
H1444 C1457 0.930 . S
H1445 C1458 0.930 . S
H1446 C1462 0.959 . S
H1447 C1462 0.959 . S
H1448 C1462 0.961 . S
H1449 C1463 0.960 . S
H1450 C1463 0.961 . S
H1451 C1463 0.959 . S
H1452 C1466 0.929 . S
H1453 C1467 0.931 . S
H1454 C1469 0.930 . S
C1455 H1443 0.930 . S
C1455 C1456 1.399 . S
C1455 C1460 1.399 . S
C1456 C1455 1.399 . S
C1456 C1457 1.376 . S
C1457 H1444 0.930 . S
C1457 C1456 1.376 . S
C1457 C1458 1.388 . S
C1458 H1445 0.930 . S
C1458 C1457 1.388 . S
C1458 C1459 1.390 . S
C1459 C1458 1.390 . S
C1459 C1460 1.394 . S
C1459 C1465 1.465 . S
C1460 C1455 1.399 . S
C1460 C1459 1.394 . S
C1460 C1461 1.516 . S
C1461 C1460 1.516 . S
C1461 C1462 1.502 . S
C1461 C1463 1.561 . S
C1461 C1464 1.526 . S
C1462 H1446 0.959 . S
C1462 H1447 0.959 . S
C1462 H1448 0.961 . S
C1462 C1461 1.502 . S
C1463 H1449 0.960 . S
C1463 H1450 0.961 . S
C1463 H1451 0.959 . S
C1463 C1461 1.561 . S
C1464 C1461 1.526 . S
C1464 C1465 1.396 . S
C1464 C1469 1.390 . S
C1465 C1459 1.465 . S
C1465 C1464 1.396 . S
C1465 C1466 1.399 . S
C1466 H1452 0.929 . S
C1466 C1465 1.399 . S
C1466 C1467 1.385 . S
C1467 H1453 0.931 . S
C1467 C1466 1.385 . S
C1467 C1468 1.389 . S
C1468 C1467 1.389 . S
C1468 C1469 1.387 . S
C1469 H1454 0.930 . S
C1469 C1464 1.390 . S
C1469 C1468 1.387 . S
H1470 C1482 0.930 . S
H1471 C1484 0.930 . S
H1472 C1485 0.930 . S
H1473 C1489 0.959 . S
H1474 C1489 0.959 . S
H1475 C1489 0.961 . S
H1476 C1490 0.960 . S
H1477 C1490 0.961 . S
H1478 C1490 0.959 . S
H1479 C1493 0.929 . S
H1480 C1494 0.931 . S
H1481 C1496 0.930 . S
C1482 H1470 0.930 . S
C1482 C1483 1.399 . S
C1482 C1487 1.399 . S
C1483 C1482 1.399 . S
C1483 C1484 1.376 . S
C1484 H1471 0.930 . S
C1484 C1483 1.376 . S
C1484 C1485 1.388 . S
C1485 H1472 0.930 . S
C1485 C1484 1.388 . S
C1485 C1486 1.390 . S
C1486 C1485 1.390 . S
C1486 C1487 1.394 . S
C1486 C1492 1.465 . S
C1487 C1482 1.399 . S
C1487 C1486 1.394 . S
C1487 C1488 1.516 . S
C1488 C1487 1.516 . S
C1488 C1489 1.502 . S
C1488 C1490 1.561 . S
C1488 C1491 1.526 . S
C1489 H1473 0.959 . S
C1489 H1474 0.959 . S
C1489 H1475 0.961 . S
C1489 C1488 1.502 . S
C1490 H1476 0.960 . S
C1490 H1477 0.961 . S
C1490 H1478 0.959 . S
C1490 C1488 1.561 . S
C1491 C1488 1.526 . S
C1491 C1492 1.396 . S
C1491 C1496 1.390 . S
C1492 C1486 1.465 . S
C1492 C1491 1.396 . S
C1492 C1493 1.399 . S
C1493 H1479 0.929 . S
C1493 C1492 1.399 . S
C1493 C1494 1.385 . S
C1494 H1480 0.931 . S
C1494 C1493 1.385 . S
C1494 C1495 1.389 . S
C1495 C1494 1.389 . S
C1495 C1496 1.387 . S
C1496 H1481 0.930 . S
C1496 C1491 1.390 . S
C1496 C1495 1.387 . S
H1497 C1509 0.930 . S
H1498 C1511 0.930 . S
H1499 C1512 0.930 . S
H1500 C1516 0.959 . S
H1501 C1516 0.959 . S
H1502 C1516 0.961 . S
H1503 C1517 0.960 . S
H1504 C1517 0.961 . S
H1505 C1517 0.959 . S
H1506 C1520 0.929 . S
H1507 C1521 0.931 . S
H1508 C1523 0.930 . S
C1509 H1497 0.930 . S
C1509 C1510 1.399 . S
C1509 C1514 1.399 . S
C1510 C1509 1.399 . S
C1510 C1511 1.376 . S
C1511 H1498 0.930 . S
C1511 C1510 1.376 . S
C1511 C1512 1.388 . S
C1512 H1499 0.930 . S
C1512 C1511 1.388 . S
C1512 C1513 1.390 . S
C1513 C1512 1.390 . S
C1513 C1514 1.394 . S
C1513 C1519 1.465 . S
C1514 C1509 1.399 . S
C1514 C1513 1.394 . S
C1514 C1515 1.516 . S
C1515 C1514 1.516 . S
C1515 C1516 1.502 . S
C1515 C1517 1.561 . S
C1515 C1518 1.526 . S
C1516 H1500 0.959 . S
C1516 H1501 0.959 . S
C1516 H1502 0.961 . S
C1516 C1515 1.502 . S
C1517 H1503 0.960 . S
C1517 H1504 0.961 . S
C1517 H1505 0.959 . S
C1517 C1515 1.561 . S
C1518 C1515 1.526 . S
C1518 C1519 1.396 . S
C1518 C1523 1.390 . S
C1519 C1513 1.465 . S
C1519 C1518 1.396 . S
C1519 C1520 1.399 . S
C1520 H1506 0.929 . S
C1520 C1519 1.399 . S
C1520 C1521 1.385 . S
C1521 H1507 0.931 . S
C1521 C1520 1.385 . S
C1521 C1522 1.389 . S
C1522 C1521 1.389 . S
C1522 C1523 1.387 . S
C1523 H1508 0.930 . S
C1523 C1518 1.390 . S
C1523 C1522 1.387 . S
H1524 C1536 0.930 . S
H1525 C1538 0.930 . S
H1526 C1539 0.930 . S
H1527 C1543 0.959 . S
H1528 C1543 0.959 . S
H1529 C1543 0.961 . S
H1530 C1544 0.960 . S
H1531 C1544 0.961 . S
H1532 C1544 0.959 . S
H1533 C1547 0.929 . S
H1534 C1548 0.931 . S
H1535 C1550 0.930 . S
C1536 H1524 0.930 . S
C1536 C1537 1.399 . S
C1536 C1541 1.399 . S
C1537 C1536 1.399 . S
C1537 C1538 1.376 . S
C1538 H1525 0.930 . S
C1538 C1537 1.376 . S
C1538 C1539 1.388 . S
C1539 H1526 0.930 . S
C1539 C1538 1.388 . S
C1539 C1540 1.390 . S
C1540 C1539 1.390 . S
C1540 C1541 1.394 . S
C1540 C1546 1.465 . S
C1541 C1536 1.399 . S
C1541 C1540 1.394 . S
C1541 C1542 1.516 . S
C1542 C1541 1.516 . S
C1542 C1543 1.502 . S
C1542 C1544 1.561 . S
C1542 C1545 1.526 . S
C1543 H1527 0.959 . S
C1543 H1528 0.959 . S
C1543 H1529 0.961 . S
C1543 C1542 1.502 . S
C1544 H1530 0.960 . S
C1544 H1531 0.961 . S
C1544 H1532 0.959 . S
C1544 C1542 1.561 . S
C1545 C1542 1.526 . S
C1545 C1546 1.396 . S
C1545 C1550 1.390 . S
C1546 C1540 1.465 . S
C1546 C1545 1.396 . S
C1546 C1547 1.399 . S
C1547 H1533 0.929 . S
C1547 C1546 1.399 . S
C1547 C1548 1.385 . S
C1548 H1534 0.931 . S
C1548 C1547 1.385 . S
C1548 C1549 1.389 . S
C1549 C1548 1.389 . S
C1549 C1550 1.387 . S
C1550 H1535 0.930 . S
C1550 C1545 1.390 . S
C1550 C1549 1.387 . S
H1551 C1563 0.930 . S
H1552 C1565 0.930 . S
H1553 C1566 0.930 . S
H1554 C1570 0.959 . S
H1555 C1570 0.959 . S
H1556 C1570 0.961 . S
H1557 C1571 0.960 . S
H1558 C1571 0.961 . S
H1559 C1571 0.959 . S
H1560 C1574 0.929 . S
H1561 C1575 0.931 . S
H1562 C1577 0.930 . S
C1563 H1551 0.930 . S
C1563 C1564 1.399 . S
C1563 C1568 1.399 . S
C1564 C1563 1.399 . S
C1564 C1565 1.376 . S
C1565 H1552 0.930 . S
C1565 C1564 1.376 . S
C1565 C1566 1.388 . S
C1566 H1553 0.930 . S
C1566 C1565 1.388 . S
C1566 C1567 1.390 . S
C1567 C1566 1.390 . S
C1567 C1568 1.394 . S
C1567 C1573 1.465 . S
C1568 C1563 1.399 . S
C1568 C1567 1.394 . S
C1568 C1569 1.516 . S
C1569 C1568 1.516 . S
C1569 C1570 1.502 . S
C1569 C1571 1.561 . S
C1569 C1572 1.526 . S
C1570 H1554 0.959 . S
C1570 H1555 0.959 . S
C1570 H1556 0.961 . S
C1570 C1569 1.502 . S
C1571 H1557 0.960 . S
C1571 H1558 0.961 . S
C1571 H1559 0.959 . S
C1571 C1569 1.561 . S
C1572 C1569 1.526 . S
C1572 C1573 1.396 . S
C1572 C1577 1.390 . S
C1573 C1567 1.465 . S
C1573 C1572 1.396 . S
C1573 C1574 1.399 . S
C1574 H1560 0.929 . S
C1574 C1573 1.399 . S
C1574 C1575 1.385 . S
C1575 H1561 0.931 . S
C1575 C1574 1.385 . S
C1575 C1576 1.389 . S
C1576 C1575 1.389 . S
C1576 C1577 1.387 . S
C1577 H1562 0.930 . S
C1577 C1572 1.390 . S
C1577 C1576 1.387 . S
H1578 C1590 0.930 . S
H1579 C1592 0.930 . S
H1580 C1593 0.930 . S
H1581 C1597 0.959 . S
H1582 C1597 0.959 . S
H1583 C1597 0.961 . S
H1584 C1598 0.960 . S
H1585 C1598 0.961 . S
H1586 C1598 0.959 . S
H1587 C1601 0.929 . S
H1588 C1602 0.931 . S
H1589 C1604 0.930 . S
C1590 H1578 0.930 . S
C1590 C1591 1.399 . S
C1590 C1595 1.399 . S
C1591 C1590 1.399 . S
C1591 C1592 1.376 . S
C1592 H1579 0.930 . S
C1592 C1591 1.376 . S
C1592 C1593 1.388 . S
C1593 H1580 0.930 . S
C1593 C1592 1.388 . S
C1593 C1594 1.390 . S
C1594 C1593 1.390 . S
C1594 C1595 1.394 . S
C1594 C1600 1.465 . S
C1595 C1590 1.399 . S
C1595 C1594 1.394 . S
C1595 C1596 1.516 . S
C1596 C1595 1.516 . S
C1596 C1597 1.502 . S
C1596 C1598 1.561 . S
C1596 C1599 1.526 . S
C1597 H1581 0.959 . S
C1597 H1582 0.959 . S
C1597 H1583 0.961 . S
C1597 C1596 1.502 . S
C1598 H1584 0.960 . S
C1598 H1585 0.961 . S
C1598 H1586 0.959 . S
C1598 C1596 1.561 . S
C1599 C1596 1.526 . S
C1599 C1600 1.396 . S
C1599 C1604 1.390 . S
C1600 C1594 1.465 . S
C1600 C1599 1.396 . S
C1600 C1601 1.399 . S
C1601 H1587 0.929 . S
C1601 C1600 1.399 . S
C1601 C1602 1.385 . S
C1602 H1588 0.931 . S
C1602 C1601 1.385 . S
C1602 C1603 1.389 . S
C1603 C1602 1.389 . S
C1603 C1604 1.387 . S
C1604 H1589 0.930 . S
C1604 C1599 1.390 . S
C1604 C1603 1.387 . S
H1605 C1617 0.930 . S
H1606 C1619 0.930 . S
H1607 C1620 0.930 . S
H1608 C1624 0.959 . S
H1609 C1624 0.959 . S
H1610 C1624 0.961 . S
H1611 C1625 0.960 . S
H1612 C1625 0.961 . S
H1613 C1625 0.959 . S
H1614 C1628 0.929 . S
H1615 C1629 0.931 . S
H1616 C1631 0.930 . S
C1617 H1605 0.930 . S
C1617 C1618 1.399 . S
C1617 C1622 1.399 . S
C1618 C1617 1.399 . S
C1618 C1619 1.376 . S
C1619 H1606 0.930 . S
C1619 C1618 1.376 . S
C1619 C1620 1.388 . S
C1620 H1607 0.930 . S
C1620 C1619 1.388 . S
C1620 C1621 1.390 . S
C1621 C1620 1.390 . S
C1621 C1622 1.394 . S
C1621 C1627 1.465 . S
C1622 C1617 1.399 . S
C1622 C1621 1.394 . S
C1622 C1623 1.516 . S
C1623 C1622 1.516 . S
C1623 C1624 1.502 . S
C1623 C1625 1.561 . S
C1623 C1626 1.526 . S
C1624 H1608 0.959 . S
C1624 H1609 0.959 . S
C1624 H1610 0.961 . S
C1624 C1623 1.502 . S
C1625 H1611 0.960 . S
C1625 H1612 0.961 . S
C1625 H1613 0.959 . S
C1625 C1623 1.561 . S
C1626 C1623 1.526 . S
C1626 C1627 1.396 . S
C1626 C1631 1.390 . S
C1627 C1621 1.465 . S
C1627 C1626 1.396 . S
C1627 C1628 1.399 . S
C1628 H1614 0.929 . S
C1628 C1627 1.399 . S
C1628 C1629 1.385 . S
C1629 H1615 0.931 . S
C1629 C1628 1.385 . S
C1629 C1630 1.389 . S
C1630 C1629 1.389 . S
C1630 C1631 1.387 . S
C1631 H1616 0.930 . S
C1631 C1626 1.390 . S
C1631 C1630 1.387 . S
C349 C216 1.367 . S
C361 C7 1.367 . S
C376 C174 1.404 . S
C388 C20 1.401 . S
C403 C189 1.404 . S
C415 C34 1.406 . S
C430 C203 1.366 . S
C442 C49 1.367 . S
C457 C202 1.368 . S
C469 C21 1.367 . S
C484 C35 1.385 . S
C496 C217 1.391 . S
C511 C175 1.404 . S
C523 C48 1.406 . S
C538 C188 1.366 . S
C550 C6 1.367 . S
C565 C258 1.395 . S
C577 C62 1.389 . S
C592 C77 1.380 . S
C604 C273 1.375 . S
C619 C90 1.405 . S
C631 C230 1.402 . S
C646 C245 1.405 . S
C658 C105 1.406 . S
C673 C315 1.400 . S
C685 C119 1.395 . S
C700 C132 1.392 . S
C712 C328 1.397 . S
C727 C147 1.367 . S
C739 C287 1.371 . S
C754 C160 1.382 . S
C766 C300 1.376 . S
C781 C244 1.367 . S
C793 C161 1.367 . S
C808 C329 1.366 . S
C820 C76 1.368 . S
C835 C91 1.366 . S
C847 C286 1.368 . S
C862 C301 1.370 . S
C874 C104 1.368 . S
C889 C314 1.393 . S
C901 C63 1.387 . S
C916 C133 1.377 . S
C928 C272 1.372 . S
C943 C231 1.375 . S
C955 C146 1.381 . S
C970 C259 1.379 . S
C982 C118 1.386 . S
C997 C8 0.960 . S
C1009 C64 0.883 . S
C1024 C79 0.870 . S
C1036 C23 0.935 . S
C1051 C37 0.932 . S
C1063 C92 0.963 . S
C1078 C50 0.954 . S
C1090 C107 0.947 . S
C1105 C121 0.960 . S
C1117 C22 0.938 . S
C1132 C134 0.949 . S
C1144 C36 0.874 . S
C1159 C149 0.932 . S
C1171 C51 0.963 . S
C1186 C9 0.880 . S
C1198 C162 0.901 . S
C1213 C163 0.871 . S
C1225 C65 0.942 . S
C1240 C78 0.873 . S
C1252 C120 0.948 . S
C1267 C93 0.955 . S
C1279 C135 0.945 . S
C1294 C148 0.916 . S
C1306 C106 0.874 . S
C1321 C232 0.872 . S
C1333 C176 0.964 . S
C1348 C247 0.928 . S
C1360 C191 0.884 . S
C1375 C205 0.899 . S
C1387 C260 0.908 . S
C1402 C218 0.940 . S
C1414 C275 0.876 . S
C1429 C190 0.919 . S
C1441 C289 0.890 . S
C1456 C204 0.962 . S
C1468 C302 0.905 . S
C1483 C317 0.967 . S
C1495 C219 0.876 . S
C1510 C177 0.927 . S
C1522 C330 0.947 . S
C1537 C233 0.875 . S
C1549 C331 0.940 . S
C1564 C288 0.930 . S
C1576 C246 0.944 . S
C1591 C261 0.957 . S
C1603 C303 0.871 . S
C1618 C316 0.969 . S
C1630 C274 0.880 . S
