# Generated by pormake.
# Topology uoj, (4)-cn, num edge types: 1
# Building blocks:
#     Node 0, Type 0, BuildingBlock: KOZSID_clean_sbu_0, # of connection points: 4
#     Node 1, Type 0, BuildingBlock: KOZSID_clean_sbu_0, # of connection points: 4
#     Node 2, Type 0, BuildingBlock: KOZSID_clean_sbu_0, # of connection points: 4
#     Node 3, Type 0, BuildingBlock: KOZSID_clean_sbu_0, # of connection points: 4
#     Node 4, Type 0, BuildingBlock: KOZSID_clean_sbu_0, # of connection points: 4
#     Node 5, Type 0, BuildingBlock: KOZSID_clean_sbu_0, # of connection points: 4
#     Node 6, Type 0, BuildingBlock: KOZSID_clean_sbu_0, # of connection points: 4
#     Node 7, Type 0, BuildingBlock: KOZSID_clean_sbu_0, # of connection points: 4
#     Edge 8, Type (0, 0), BuildingBlock: XUDNAN_clean_linker_2, # of connection points: 2
#     Edge 9, Type (0, 0), BuildingBlock: XUDNAN_clean_linker_2, # of connection points: 2
#     Edge 10, Type (0, 0), BuildingBlock: XUDNAN_clean_linker_2, # of connection points: 2
#     Edge 11, Type (0, 0), BuildingBlock: XUDNAN_clean_linker_2, # of connection points: 2
#     Edge 12, Type (0, 0), BuildingBlock: XUDNAN_clean_linker_2, # of connection points: 2
#     Edge 13, Type (0, 0), BuildingBlock: XUDNAN_clean_linker_2, # of connection points: 2
#     Edge 14, Type (0, 0), BuildingBlock: XUDNAN_clean_linker_2, # of connection points: 2
#     Edge 15, Type (0, 0), BuildingBlock: XUDNAN_clean_linker_2, # of connection points: 2
#     Edge 16, Type (0, 0), BuildingBlock: XUDNAN_clean_linker_2, # of connection points: 2
#     Edge 17, Type (0, 0), BuildingBlock: XUDNAN_clean_linker_2, # of connection points: 2
#     Edge 18, Type (0, 0), BuildingBlock: XUDNAN_clean_linker_2, # of connection points: 2
#     Edge 19, Type (0, 0), BuildingBlock: XUDNAN_clean_linker_2, # of connection points: 2
#     Edge 20, Type (0, 0), BuildingBlock: XUDNAN_clean_linker_2, # of connection points: 2
#     Edge 21, Type (0, 0), BuildingBlock: XUDNAN_clean_linker_2, # of connection points: 2
#     Edge 22, Type (0, 0), BuildingBlock: XUDNAN_clean_linker_2, # of connection points: 2
#     Edge 23, Type (0, 0), BuildingBlock: XUDNAN_clean_linker_2, # of connection points: 2
# Relax obj value: 0.034
# Max RMSD: 0.317
# Mean RMSD: 0.297
data_MOF--net-uoj--node1-KOZSID_clean_sbu_0--edge1-XUDNAN_clean_linker_2
_symmetry_space_group_name_H-M    P1
_symmetry_Int_Tables_number       1
_symmetry_cell_setting            triclinic
loop_
_symmetry_equiv_pos_as_xyz
'x, y, z'
_cell_length_a     37.900071
_cell_length_b     40.091776
_cell_length_c     47.426849
_cell_angle_alpha  90.000253
_cell_angle_beta   89.993692
_cell_angle_gamma 94.458655
loop_
_atom_site_label
_atom_site_type_symbol
_atom_site_fract_x
_atom_site_fract_y
_atom_site_fract_z
_atom_type_partial_charge
C0 C 0.14344 0.31834 0.38937 0.0
C1 C 0.1772 0.33312 0.39402 0.0
C2 C 0.18101 0.33625 0.42262 0.0
C3 C 0.14945 0.32324 0.43377 0.0
N4 N 0.12582 0.31193 0.41417 0.0
Co5 Co 0.07648 0.29187 0.42185 0.0
N6 N 0.082 0.2962 0.46397 0.0
C7 C 0.11114 0.30923 0.47743 0.0
C8 C 0.1085 0.30759 0.50625 0.0
C9 C 0.07558 0.29245 0.51155 0.0
C10 C 0.05971 0.28596 0.48557 0.0
N11 N 1.02688 0.27226 0.42919 0.0
C12 C 1.00888 0.26587 0.4537 0.0
C13 C 0.97355 0.25565 0.44867 0.0
C14 C 0.96932 0.2545 0.4202 0.0
C15 C 1.00194 0.26458 0.40948 0.0
N16 N 0.07042 0.28721 0.37982 0.0
C17 C 0.04061 0.27592 0.36626 0.0
C18 C 0.0435 0.27598 0.33747 0.0
C19 C 0.0773 0.28836 0.33214 0.0
C20 C 0.09309 0.29522 0.35814 0.0
N21 N 0.09531 0.24656 0.42406 0.0
C22 C 0.13685 0.19181 0.43568 0.0
C23 C 0.10807 0.19871 0.45283 0.0
C24 C 0.08745 0.22545 0.44635 0.0
C25 C 0.14158 0.21095 0.41091 0.0
C26 C 0.1209 0.23788 0.40564 0.0
N27 N 0.05943 0.33782 0.42033 0.0
C28 C 0.06609 0.39442 0.40161 0.0
C29 C 0.04746 0.40692 0.42431 0.0
C30 C 0.03272 0.38337 0.44387 0.0
C31 C 0.03881 0.34928 0.44145 0.0
C32 C 0.0715 0.3602 0.39996 0.0
H33 H 1.02767 0.33258 0.45737 0.0
H34 H 0.08682 0.35261 0.38255 0.0
H35 H 0.06613 0.22943 0.46032 0.0
H36 H 0.12702 0.2523 0.38706 0.0
C37 C 0.14103 0.32124 0.46234 0.0
C38 C 0.1291 0.31096 0.36104 0.0
C39 C 1.02392 0.26892 0.4822 0.0
C40 C 1.01 0.26654 0.38105 0.0
H41 H 0.1969 0.34089 0.37833 0.0
H42 H 0.20403 0.34684 0.43392 0.0
H43 H 0.12847 0.31573 0.5216 0.0
H44 H 0.06488 0.2864 0.53221 0.0
H45 H 0.9528 0.24974 0.46396 0.0
H46 H 0.94528 0.24728 0.40867 0.0
H47 H 1.02321 0.26848 0.32218 0.0
H48 H 0.08873 0.29261 0.31141 0.0
H49 H 0.10216 0.18464 0.47193 0.0
H50 H 0.16181 0.20591 0.39574 0.0
H51 H 0.07803 0.4111 0.38573 0.0
H52 H 1.01701 0.39121 0.46137 0.0
C53 C 0.39352 0.95713 0.59 0.0
C54 C 0.41997 0.93773 0.58051 0.0
C55 C 0.40355 0.90939 0.56931 0.0
C56 C 0.36815 0.9127 0.57288 0.0
N57 N 0.36085 0.9414 0.58577 0.0
Co58 Co 0.31266 0.95416 0.59697 0.0
N59 N 0.29014 0.90873 0.58735 0.0
C60 C 0.30675 0.88282 0.57709 0.0
C61 C 0.28626 0.85314 0.57685 0.0
C62 C 0.25424 0.86072 0.58707 0.0
C63 C 0.25679 0.89495 0.59218 0.0
N64 N 0.26382 0.96695 0.60675 0.0
C65 C 0.23146 0.94941 0.60449 0.0
C66 C 0.20432 0.97028 0.60855 0.0
C67 C 0.21988 1.00169 0.61334 0.0
C68 C 0.25555 0.99856 0.61165 0.0
N69 N 0.33604 0.99897 0.60784 0.0
C70 C 0.31902 1.02625 0.6141 0.0
C71 C 0.34146 0.05383 0.62025 0.0
C72 C 0.37491 0.04348 0.61749 0.0
C73 C 0.37103 1.01004 0.60979 0.0
N74 N 0.30431 0.97129 0.55833 0.0
C75 C 0.27817 1.0159 0.5185 0.0
C76 C 0.31315 1.02029 0.52863 0.0
C77 C 0.32588 0.99738 0.54788 0.0
C78 C 0.25864 0.98598 0.52588 0.0
C79 C 0.27242 0.96384 0.54523 0.0
N80 N 0.32031 0.9389 0.63628 0.0
C81 C 0.31377 0.94908 0.68623 0.0
C82 C 0.3364 0.92428 0.69336 0.0
C83 C 0.3493 0.90568 0.67092 0.0
C84 C 0.34066 0.91309 0.64274 0.0
C85 C 0.30675 0.95629 0.65805 0.0
H86 H 0.35131 0.89831 0.62637 0.0
H87 H 0.29085 0.97678 0.65422 0.0
H88 H 0.35229 1.0025 0.55595 0.0
H89 H 0.25591 0.94198 0.55095 0.0
C90 C 0.34217 0.88666 0.56963 0.0
C91 C 0.40109 0.99097 0.60143 0.0
C92 C 0.22549 0.914 0.59563 0.0
C93 C 0.28207 1.02459 0.61465 0.0
H94 H 0.44833 0.9433 0.5818 0.0
H95 H 0.416 0.88805 0.56102 0.0
H96 H 0.29371 0.82888 0.57006 0.0
H97 H 0.23095 0.84343 0.58889 0.0
H98 H 0.17615 0.9641 0.60711 0.0
H99 H 0.20668 1.02432 0.61685 0.0
H100 H 0.33437 0.0786 0.6259 0.0
H101 H 0.39938 0.05897 0.62006 0.0
H102 H 0.33014 0.04229 0.52321 0.0
H103 H 0.23232 0.98007 0.5175 0.0
H104 H 0.30156 0.96352 0.70228 0.0
H105 H 0.36678 0.8861 0.67485 0.0
C106 C 0.92549 0.72271 0.3925 0.0
C107 C 0.9004 0.69628 0.39739 0.0
C108 C 0.90697 0.68432 0.42383 0.0
C109 C 0.93558 0.70406 0.43365 0.0
N110 N 0.9471 0.72814 0.41529 0.0
Co111 Co 0.99002 0.75975 0.42086 0.0
N112 N 0.99236 0.7505 0.46214 0.0
C113 C 0.97534 0.72417 0.47525 0.0
C114 C 0.98294 0.72296 0.50351 0.0
C115 C 1.0064 0.75015 0.50852 0.0
C116 C 1.01176 0.7667 0.48299 0.0
N117 N 0.03342 0.79079 0.42604 0.0
C118 C 0.04726 0.80575 0.44973 0.0
C119 C 0.07363 0.83054 0.44287 0.0
C120 C 0.07823 0.82934 0.41442 0.0
C121 C 0.05364 0.80498 0.40521 0.0
N122 N 0.98792 0.76968 0.37963 0.0
C123 C 1.01406 0.7854 0.36425 0.0
C124 C 1.00617 0.78807 0.33622 0.0
C125 C 0.973 0.77271 0.33345 0.0
C126 C 0.96244 0.76151 0.36014 0.0
N127 N 0.95963 0.79658 0.42949 0.0
C128 C 0.91955 0.84761 0.45137 0.0
C129 C 0.94902 0.85538 0.43376 0.0
C130 C 0.96846 0.82948 0.42279 0.0
C131 C 0.90948 0.81363 0.45572 0.0
C132 C 0.92993 0.789 0.44533 0.0
N133 N 1.01909 0.72156 0.41349 0.0
C134 C 1.01775 0.66514 0.39503 0.0
C135 C 0.03916 0.65516 0.41717 0.0
C136 C 0.05414 0.6806 0.43499 0.0
C137 C 0.04408 0.71354 0.43264 0.0
C138 C 1.0086 0.69838 0.39331 0.0
H139 H 0.05433 0.73179 0.44786 0.0
H140 H 0.99028 0.70424 0.37706 0.0
H141 H 0.99127 0.83623 0.4098 0.0
H142 H 0.92209 0.76375 0.45138 0.0
C143 C 0.95017 0.7031 0.46079 0.0
C144 C 0.93003 0.73983 0.3651 0.0
C145 C 0.03796 0.79569 0.47891 0.0
C146 C 0.04394 0.80056 0.37718 0.0
H147 H 0.88005 0.6862 0.38307 0.0
H148 H 0.89239 0.66387 0.43467 0.0
H149 H 0.97242 0.70472 0.51876 0.0
H150 H 1.01869 0.75657 0.52858 0.0
H151 H 0.08791 0.84824 0.45671 0.0
H152 H 0.09567 0.84594 0.40176 0.0
H153 H 1.02242 0.80012 0.31981 0.0
H154 H 0.95875 0.76936 0.31376 0.0
H155 H 0.95783 0.88118 0.42932 0.0
H156 H 0.88624 0.80572 0.46801 0.0
H157 H 1.00586 0.64705 0.38023 0.0
H158 H 0.07229 0.6749 0.45162 0.0
C159 C 0.66264 0.09986 0.57748 0.0
C160 C 0.63575 0.11589 0.56446 0.0
C161 C 0.65118 0.14395 0.55212 0.0
C162 C 0.68634 0.14382 0.55857 0.0
N163 N 0.69462 0.11746 0.57423 0.0
Co164 Co 0.74257 0.11048 0.59033 0.0
N165 N 0.76482 0.15195 0.57141 0.0
C166 C 0.74786 0.17366 0.55568 0.0
C167 C 0.76926 0.19993 0.54534 0.0
C168 C 0.80218 0.19485 0.55509 0.0
C169 C 0.79885 0.16571 0.57104 0.0
N170 N 0.79069 0.10384 0.60625 0.0
C171 C 0.8227 0.12142 0.60225 0.0
C172 C 0.8493 0.1073 0.61705 0.0
C173 C 0.83368 0.07993 0.63074 0.0
C174 C 0.79851 0.07888 0.62356 0.0
N175 N 0.71971 0.06929 0.60941 0.0
C176 C 0.73632 0.04859 0.62632 0.0
C177 C 0.71449 1.02238 0.6365 0.0
C178 C 0.68179 1.02667 0.62541 0.0
C179 C 0.68548 0.0554 0.60912 0.0
N180 N 0.75442 0.08247 0.55725 0.0
C181 C 0.78208 0.02998 0.52649 0.0
C182 C 0.74685 1.02756 0.53584 0.0
C183 C 0.73332 0.05433 0.55039 0.0
C184 C 0.80146 0.06086 0.52951 0.0
C185 C 0.78714 0.08668 0.54471 0.0
N186 N 0.73182 0.1371 0.62434 0.0
C187 C 0.75304 0.17308 0.6628 0.0
C188 C 0.72332 0.16322 0.67952 0.0
C189 C 0.69666 0.14216 0.66665 0.0
C190 C 0.70109 0.13016 0.63918 0.0
C191 C 0.75688 0.15963 0.63572 0.0
H192 H 0.6799 0.11403 0.63078 0.0
H193 H 0.78094 0.16676 0.62464 0.0
H194 H 0.70647 0.05103 0.55755 0.0
H195 H 0.80398 0.10895 0.54766 0.0
C196 C 0.71192 0.16858 0.55079 0.0
C197 C 0.65593 0.06851 0.59337 0.0
C198 C 0.82901 0.1517 0.58481 0.0
C199 C 0.77238 0.05447 0.63194 0.0
H200 H 0.60768 0.10855 0.56431 0.0
H201 H 0.6382 0.1626 0.54031 0.0
H202 H 0.76182 0.22026 0.53213 0.0
H203 H 0.82595 0.21076 0.55077 0.0
H204 H 0.87707 0.1159 0.61779 0.0
H205 H 0.84652 0.06268 0.64414 0.0
H206 H 0.72153 1.00244 0.65029 0.0
H207 H 0.65797 1.0105 0.62887 0.0
H208 H 0.73033 1.00449 0.53315 0.0
H209 H 0.82859 0.06426 0.52219 0.0
H210 H 0.77392 0.19059 0.67059 0.0
H211 H 0.67285 0.13355 0.67787 0.0
C212 C 0.41274 0.76126 0.97417 0.0
C213 C 0.38284 0.75342 0.99072 0.0
C214 C 0.37987 0.77949 1.00871 0.0
C215 C 0.40783 0.80178 1.00234 0.0
N216 N 0.42818 0.792 0.98104 0.0
Co217 Co 0.47179 0.81776 0.96643 0.0
N218 N 0.46091 0.85915 0.98718 0.0
C219 C 0.43643 0.86091 1.00764 0.0
C220 C 0.43063 0.89293 1.01529 0.0
C221 C 0.45287 0.91283 0.9988 0.0
C222 C 0.47208 0.89176 0.9825 0.0
N223 N 0.5147 0.84443 0.95179 0.0
C224 C 0.52343 0.87822 0.95172 0.0
C225 C 0.55644 0.88546 0.93962 0.0
C226 C 0.56865 0.85542 0.93181 0.0
C227 C 0.54261 0.83144 0.93963 0.0
N228 N 0.48269 0.77623 0.94603 0.0
C229 C 0.51424 0.7712 0.93432 0.0
C230 C 0.51535 0.73986 0.92287 0.0
C231 C 0.48275 0.72383 0.92823 0.0
C232 C 0.46345 0.74623 0.94289 0.0
N233 N 0.44531 0.83215 0.93318 0.0
C234 C 0.41177 0.85548 0.88452 0.0
C235 C 0.44308 0.83938 0.88254 0.0
C236 C 0.45943 0.82833 0.90688 0.0
C237 C 0.39714 0.85908 0.91154 0.0
C238 C 0.41403 0.84688 0.93551 0.0
N239 N 0.49985 0.80226 0.99882 0.0
C240 C 0.55361 0.80796 0.02684 0.0
C241 C 0.55133 0.77338 0.0327 0.0
C242 C 0.52113 0.75445 0.02309 0.0
C243 C 0.49577 0.76928 1.00676 0.0
C244 C 0.52767 0.82186 1.00998 0.0
H245 H 0.47386 0.75317 0.99936 0.0
H246 H 0.53112 0.84815 1.00486 0.0
H247 H 0.48412 0.81732 0.90419 0.0
H248 H 0.40209 0.84988 0.95589 0.0
C249 C 0.41362 0.83333 1.01418 0.0
C250 C 0.42878 0.7365 0.95622 0.0
C251 C 0.50244 0.90383 0.96473 0.0
C252 C 0.54107 0.79734 0.93268 0.0
H253 H 0.3655 0.73077 0.99097 0.0
H254 H 0.35966 0.7819 0.02455 0.0
H255 H 0.41071 0.90094 0.02962 0.0
H256 H 0.4543 0.93987 0.99869 0.0
H257 H 0.57029 0.90987 0.93686 0.0
H258 H 0.59317 0.85165 0.921 0.0
H259 H 0.53722 0.72983 0.91189 0.0
H260 H 0.47449 0.69819 0.92281 0.0
H261 H 0.45578 0.83645 0.86232 0.0
H262 H 0.37285 0.87129 0.91416 0.0
H263 H 0.57609 0.82398 0.03412 0.0
H264 H 0.51726 0.72796 0.02774 0.0
C265 C 0.74693 0.60713 0.11087 0.0
C266 C 0.71812 0.58959 0.12342 0.0
C267 C 0.72828 0.55821 0.12939 0.0
C268 C 0.76267 0.55824 0.12021 0.0
N269 N 0.77504 0.5878 0.10919 0.0
Co270 Co 0.82282 0.59692 0.09168 0.0
N271 N 0.84149 0.55547 0.1076 0.0
C272 C 0.82121 0.52943 0.1183 0.0
C273 C 0.84046 0.50345 0.1265 0.0
C274 C 0.87505 0.51353 0.12032 0.0
C275 C 0.87513 0.54529 0.10872 0.0
N276 N 0.87064 0.60655 0.07435 0.0
C277 C 0.90221 0.59402 0.08024 0.0
C278 C 0.92965 0.61148 0.06569 0.0
C279 C 0.91475 0.63433 0.04911 0.0
C280 C 0.87929 0.63031 0.05489 0.0
N281 N 0.80475 0.63829 0.07512 0.0
C282 C 0.82065 0.6572 0.05458 0.0
C283 C 0.8024 0.68387 0.04674 0.0
C284 C 0.77273 0.68167 0.06308 0.0
C285 C 0.77454 0.65355 0.08003 0.0
N286 N 0.83865 0.62176 0.12604 0.0
C287 C 0.85695 0.65605 0.1767 0.0
C288 C 0.8626 0.67162 0.1503 0.0
C289 C 0.85369 0.65393 0.12525 0.0
C290 C 0.84232 0.62297 0.17698 0.0
C291 C 0.83307 0.6066 0.15172 0.0
N292 N 0.80543 0.57072 0.05822 0.0
C293 C 0.75372 0.54845 0.03238 0.0
C294 C 0.77117 0.52085 0.02339 0.0
C295 C 0.8073 0.52042 0.03007 0.0
C296 C 0.8239 0.54554 0.04747 0.0
C297 C 0.7714 0.57326 0.04912 0.0
H298 H 0.85109 0.54346 0.05349 0.0
H299 H 0.75643 0.59338 0.05609 0.0
H300 H 0.85856 0.66643 0.10533 0.0
H301 H 0.8207 0.58167 0.15326 0.0
C302 C 0.78495 0.53205 0.1231 0.0
C303 C 0.74533 0.64069 0.09824 0.0
C304 C 0.90718 0.56354 0.09677 0.0
C305 C 0.85474 0.65196 0.04592 0.0
H306 H 0.6922 0.59831 0.12711 0.0
H307 H 0.71244 0.53782 0.13926 0.0
H308 H 0.83063 0.48015 0.13626 0.0
H309 H 0.89759 0.49899 0.12357 0.0
H310 H 0.95762 0.60788 0.06664 0.0
H311 H 0.92836 0.65267 0.03538 0.0
H312 H 0.81016 0.7031 0.03144 0.0
H313 H 0.75185 0.69858 0.06221 0.0
H314 H 0.87394 0.69721 0.14902 0.0
H315 H 0.83686 0.61003 0.19674 0.0
H316 H 0.7262 0.55055 0.02703 0.0
H317 H 0.82216 0.49992 0.02316 0.0
C318 C 0.63898 0.29626 0.98003 0.0
C319 C 0.668 0.30418 0.99744 0.0
C320 C 0.6786 0.27473 1.00743 0.0
C321 C 0.65564 0.25059 0.99571 0.0
N322 N 0.63085 0.26267 0.97904 0.0
Co323 Co 0.59269 0.23526 0.95836 0.0
N324 N 0.60112 0.19404 0.98053 0.0
C325 C 0.62995 0.19019 0.99655 0.0
C326 C 0.63236 0.15841 1.00632 0.0
C327 C 0.6035 0.14051 0.99563 0.0
C328 C 0.58449 0.16264 0.98019 0.0
N329 N 0.55482 0.20716 0.93765 0.0
C330 C 0.54057 0.17512 0.94212 0.0
C331 C 0.51541 0.1659 0.92176 0.0
C332 C 0.51484 0.19224 0.90338 0.0
C333 C 0.53934 0.21627 0.91356 0.0
N334 N 0.5851 0.27649 0.9362 0.0
C335 C 0.56626 0.2773 0.91221 0.0
C336 C 0.56628 0.30884 0.90088 0.0
C337 C 0.58671 0.32919 0.91872 0.0
C338 C 0.59811 0.30892 0.94001 0.0
N339 N 0.62727 0.22293 0.92951 0.0
C340 C 0.66309 0.21088 0.8788 0.0
C341 C 0.66892 0.24147 0.893 0.0
C342 C 0.65074 0.24702 0.91816 0.0
C343 C 0.64119 0.18561 0.89169 0.0
C344 C 0.62426 0.19188 0.91723 0.0
N345 N 0.55702 0.24904 0.98599 0.0
C346 C 0.50117 0.27367 0.99283 0.0
C347 C 0.50944 0.28217 0.02084 0.0
C348 C 0.54159 0.27168 0.03149 0.0
C349 C 0.5648 0.25505 1.01385 0.0
C350 C 0.52498 0.25753 0.97602 0.0
H351 H 0.58956 0.24823 0.02251 0.0
H352 H 0.51764 0.25338 0.95442 0.0
H353 H 0.65437 0.27151 0.92751 0.0
H354 H 0.60735 0.17186 0.92612 0.0
C355 C 0.65425 0.21692 1.00234 0.0
C356 C 0.62302 0.3211 0.96239 0.0
C357 C 0.55292 0.15161 0.96339 0.0
C358 C 0.54635 0.24861 0.90262 0.0
H359 H 0.68089 0.3286 1.00198 0.0
H360 H 0.70013 0.27135 0.02189 0.0
H361 H 0.65315 0.14915 1.01911 0.0
H362 H 0.59833 0.11377 0.99799 0.0
H363 H 0.49969 0.14231 0.91992 0.0
H364 H 0.49832 0.19375 0.88488 0.0
H365 H 0.55261 0.31628 0.88214 0.0
H366 H 0.59286 0.35584 0.91622 0.0
H367 H 0.68606 0.26159 0.88401 0.0
H368 H 0.63672 0.16125 0.88187 0.0
H369 H 0.47642 0.2798 0.9835 0.0
H370 H 0.54951 0.27724 0.05301 0.0
C371 C 0.3133 0.4448 0.10544 0.0
C372 C 0.34238 0.46268 0.11732 0.0
C373 C 0.33197 0.49374 0.1239 0.0
C374 C 0.29719 0.49323 0.11571 0.0
N375 N 0.28472 0.4636 0.1048 0.0
Co376 Co 0.23665 0.45447 0.08777 0.0
N377 N 0.21824 0.49598 0.10393 0.0
C378 C 0.23854 0.52178 0.11498 0.0
C379 C 0.21936 0.54756 0.12373 0.0
C380 C 0.18474 0.53758 0.11762 0.0
C381 C 0.1846 0.5061 0.1055 0.0
N382 N 0.18877 0.44525 0.07041 0.0
C383 C 0.15737 0.45825 0.07609 0.0
C384 C 0.12981 0.44113 0.06143 0.0
C385 C 0.14443 0.41787 0.04512 0.0
C386 C 0.17985 0.42134 0.05112 0.0
N387 N 0.25413 0.41239 0.07181 0.0
C388 C 0.23734 0.39248 0.05234 0.0
C389 C 0.25452 0.36466 0.04583 0.0
C390 C 0.28454 0.36725 0.06177 0.0
C391 C 0.28418 0.39688 0.07694 0.0
N392 N 0.22067 0.42991 0.12221 0.0
C393 C 0.2019 0.3955 0.17271 0.0
C394 C 0.19444 0.38081 0.14623 0.0
C395 C 0.2037 0.39851 0.1213 0.0
C396 C 0.21852 0.42788 0.17318 0.0
C397 C 0.22785 0.44436 0.14796 0.0
N398 N 0.2544 0.48038 0.05407 0.0
C399 C 0.30662 0.4972 0.02667 0.0
C400 C 0.29526 0.52924 0.02231 0.0
C401 C 0.26059 0.53454 0.03086 0.0
C402 C 0.24038 0.50955 0.04621 0.0
C403 C 0.28612 0.47345 0.04244 0.0
H404 H 0.21448 0.51503 0.05343 0.0
H405 H 0.29786 0.4506 0.04695 0.0
H406 H 0.19745 0.38658 0.10137 0.0
H407 H 0.24148 0.46877 0.14955 0.0
C408 C 0.27485 0.51923 0.11924 0.0
C409 C 0.3151 0.41141 0.09258 0.0
C410 C 0.15251 0.48822 0.09333 0.0
C411 C 0.20366 0.39846 0.04318 0.0
H412 H 0.36866 0.45442 0.12017 0.0
H413 H 0.34794 0.51429 0.13342 0.0
H414 H 0.22926 0.57067 0.13375 0.0
H415 H 0.16222 0.55206 0.12123 0.0
H416 H 0.10188 0.44488 0.06241 0.0
H417 H 0.13057 0.39937 0.03168 0.0
H418 H 0.24592 0.34457 0.03157 0.0
H419 H 0.30487 0.34974 0.06159 0.0
H420 H 0.18141 0.35586 0.14475 0.0
H421 H 0.22534 0.44017 0.193 0.0
H422 H 0.33237 0.49094 1.01935 0.0
H423 H 0.24993 0.55848 0.02738 0.0
H424 H 0.17235 0.41885 0.22151 0.0
H425 H 0.21386 0.33053 0.18542 0.0
H426 H 0.2043 0.30098 0.23091 0.0
H427 H 0.20884 0.41161 0.29144 0.0
H428 H 0.17037 0.4252 0.30913 0.0
H429 H 0.18109 0.43977 0.27398 0.0
H430 H 0.11881 0.41764 0.2566 0.0
H431 H 0.1078 0.40346 0.29177 0.0
H432 H 0.10372 0.37448 0.26269 0.0
H433 H 0.1904 0.28096 0.28081 0.0
H434 H 0.16731 0.27032 0.32918 0.0
H435 H 0.13372 0.37095 0.33277 0.0
C436 C 0.17954 0.39331 0.2232 0.0
C437 C 0.19399 0.37707 0.19977 0.0
C438 C 0.2025 0.34345 0.20286 0.0
C439 C 0.19745 0.32656 0.22874 0.0
C440 C 0.18359 0.34343 0.25146 0.0
C441 C 0.17429 0.37594 0.24882 0.0
C442 C 0.15838 0.38789 0.2761 0.0
C443 C 0.18103 0.4179 0.28838 0.0
C444 C 0.1199 0.39636 0.27151 0.0
C445 C 0.16016 0.35708 0.29453 0.0
C446 C 0.17517 0.33181 0.28 0.0
C447 C 0.17885 0.30067 0.29238 0.0
C448 C 0.166 0.29489 0.31993 0.0
C449 C 0.14959 0.32004 0.33483 0.0
C450 C 0.14708 0.35165 0.32207 0.0
H451 H 0.35636 0.86623 0.72056 0.0
H452 H 0.34229 0.97133 0.73599 0.0
H453 H 0.35568 0.96374 0.7859 0.0
H454 H 0.32228 0.8334 0.78666 0.0
H455 H 0.35537 0.80383 0.79084 0.0
H456 H 0.34266 0.81641 0.75605 0.0
H457 H 0.40799 0.83495 0.7444 0.0
H458 H 0.42093 0.82218 0.77907 0.0
H459 H 0.43244 0.86435 0.76723 0.0
H460 H 0.36921 0.94519 0.83505 0.0
H461 H 0.38919 0.91825 0.87847 0.0
H462 H 0.40038 0.82664 0.83176 0.0
C463 C 0.35622 0.8878 0.73425 0.0
C464 C 0.34686 0.91922 0.7238 0.0
C465 C 0.34754 0.94654 0.74302 0.0
C466 C 0.35556 0.94264 0.77166 0.0
C467 C 0.36383 0.91139 0.78121 0.0
C468 C 0.36494 0.88455 0.76304 0.0
C469 C 0.37661 0.85414 0.77875 0.0
C470 C 0.34749 0.82523 0.77803 0.0
C471 C 0.41157 0.84327 0.76664 0.0
C472 C 0.38169 0.86815 0.80846 0.0
C473 C 0.37368 0.90113 0.80942 0.0
C474 C 0.37571 0.91939 0.83451 0.0
C475 C 0.38684 0.90379 0.85918 0.0
C476 C 0.39634 0.87031 0.8587 0.0
C477 C 0.39345 0.8523 0.83288 0.0
H478 H 0.93062 0.68109 0.33514 0.0
H479 H 0.88356 0.77602 0.33665 0.0
H480 H 0.85917 0.76497 0.28877 0.0
H481 H 0.95736 0.68402 0.26485 0.0
H482 H 0.94747 0.6402 0.25738 0.0
H483 H 0.95798 0.65362 0.29283 0.0
H484 H 0.89888 0.62462 0.31092 0.0
H485 H 0.88847 0.61046 0.27561 0.0
H486 H 0.85788 0.63429 0.29471 0.0
H487 H 0.84613 0.74638 0.23826 0.0
H488 H 0.83836 0.71837 0.19187 0.0
H489 H 0.89198 0.63436 0.22355 0.0
C490 C 0.91395 0.69884 0.32578 0.0
C491 C 0.90819 0.7291 0.33984 0.0
C492 C 0.88745 0.75238 0.32651 0.0
C493 C 0.87385 0.74643 0.2992 0.0
C494 C 0.88098 0.71688 0.28546 0.0
C495 C 0.89991 0.69312 0.29855 0.0
C496 C 0.90477 0.66393 0.27883 0.0
C497 C 0.94424 0.66024 0.27314 0.0
C498 C 0.8864 0.6314 0.29073 0.0
C499 C 0.88615 0.67518 0.25249 0.0
C500 C 0.87285 0.70593 0.25667 0.0
C501 C 0.85604 0.72209 0.23493 0.0
C502 C 0.85203 0.70614 0.20853 0.0
C503 C 0.86442 0.67413 0.20398 0.0
C504 C 0.88188 0.65868 0.22637 0.0
H505 H 0.62907 0.1904 0.82979 0.0
H506 H 0.73293 0.22015 0.86372 0.0
H507 H 0.75954 0.21162 0.81677 0.0
H508 H 0.65491 0.12709 0.78175 0.0
H509 H 0.62492 0.13764 0.75423 0.0
H510 H 0.61427 0.14523 0.79057 0.0
H511 H 0.60761 0.20759 0.77913 0.0
H512 H 0.61821 0.20018 0.74275 0.0
H513 H 0.64367 0.2321 0.76244 0.0
H514 H 0.77496 0.19694 0.76643 0.0
H515 H 0.77817 0.18144 0.71661 0.0
H516 H 0.66317 0.16734 0.71365 0.0
C517 C 0.65744 0.19491 0.82731 0.0
C518 C 0.67904 0.20563 0.85049 0.0
C519 C 0.71595 0.21188 0.8463 0.0
C520 C 0.73126 0.20704 0.81971 0.0
C521 C 0.70926 0.19648 0.79729 0.0
C522 C 0.67307 0.19089 0.80073 0.0
C523 C 0.65526 0.18082 0.77295 0.0
C524 C 0.63622 0.1456 0.77501 0.0
C525 C 0.62968 0.20672 0.76378 0.0
C526 C 0.6871 0.18118 0.75341 0.0
C527 C 0.71797 0.18999 0.76795 0.0
C528 C 0.75084 0.19063 0.75474 0.0
C529 C 0.75227 0.18208 0.72603 0.0
C530 C 0.72098 0.17348 0.71018 0.0
C531 C 0.68793 0.17335 0.72449 0.0
H532 H 0.20838 0.03341 0.51816 0.0
H533 H 0.31092 0.05986 0.4799 0.0
H534 H 0.28588 0.10632 0.45482 0.0
H535 H 0.156 0.05171 0.45567 0.0
H536 H 0.121 0.06793 0.47603 0.0
H537 H 0.14676 0.03628 0.49081 0.0
H538 H 0.16251 0.07461 0.53363 0.0
H539 H 0.137 0.10646 0.5189 0.0
H540 H 0.18288 0.11619 0.5278 0.0
H541 H 0.25064 0.1522 0.4357 0.0
H542 H 0.20783 0.19205 0.42219 0.0
H543 H 0.12596 0.13401 0.46936 0.0
C544 C 0.22557 0.04849 0.50413 0.0
C545 C 0.262 0.04264 0.50139 0.0
C546 C 0.28327 0.06377 0.48305 0.0
C547 C 0.26916 0.09026 0.46846 0.0
C548 C 0.23346 0.0955 0.472 0.0
C549 C 0.21181 0.07502 0.48916 0.0
C550 C 0.17433 0.08634 0.48932 0.0
C551 C 0.14796 0.05893 0.47724 0.0
C552 C 0.16356 0.0965 0.51919 0.0
C553 C 0.17839 0.11657 0.46979 0.0
C554 C 0.21278 0.12137 0.46013 0.0
C555 C 0.22347 0.14826 0.44273 0.0
C556 C 0.19853 0.17074 0.43488 0.0
C557 C 0.16268 0.16642 0.44397 0.0
C558 C 0.15282 0.13862 0.4618 0.0
H559 H 0.21509 0.88422 0.5437 0.0
H560 H 0.15756 0.90899 0.61888 0.0
H561 H 0.10239 0.88211 0.59797 0.0
H562 H 0.14803 0.88669 0.49129 0.0
H563 H 0.16026 0.84946 0.47368 0.0
H564 H 0.1931 0.87531 0.49276 0.0
H565 H 0.20797 0.82395 0.52248 0.0
H566 H 0.17501 0.79802 0.50356 0.0
H567 H 0.17315 0.80044 0.54148 0.0
H568 H 0.05184 0.85434 0.56509 0.0
H569 H 1.01525 0.82347 0.52857 0.0
H570 H 0.11082 0.80229 0.48412 0.0
C571 C 0.19097 0.88411 0.55595 0.0
C572 C 0.19084 0.89974 0.5828 0.0
C573 C 0.1584 0.89857 0.59786 0.0
C574 C 0.12695 0.88285 0.58626 0.0
C575 C 0.12849 0.86692 0.56007 0.0
C576 C 0.16012 0.86669 0.54563 0.0
C577 C 0.15627 0.84472 0.51962 0.0
C578 C 0.16493 0.86528 0.49276 0.0
C579 C 0.17947 0.81502 0.52193 0.0
C580 C 0.11727 0.8332 0.52109 0.0
C581 C 0.10124 0.84699 0.54402 0.0
C582 C 0.06446 0.84287 0.5475 0.0
C583 C 0.04382 0.82507 0.52673 0.0
C584 C 0.05992 0.81064 0.50316 0.0
C585 C 0.09739 0.81343 0.50148 0.0
H586 H 0.82311 1.01932 0.47868 0.0
H587 H 0.78226 0.97194 0.55551 0.0
H588 H 0.8148 0.92251 0.54517 0.0
H589 H 0.81681 0.94214 0.43664 0.0
H590 H 0.85662 0.95311 0.41684 0.0
H591 H 0.83079 0.98549 0.43027 0.0
H592 H 0.88614 1.01241 0.45594 0.0
H593 H 0.91206 0.97992 0.44279 0.0
H594 H 0.90978 0.98761 0.48017 0.0
H595 H 0.85451 0.88032 0.52908 0.0
H596 H 0.89193 0.84268 0.50461 0.0
H597 H 0.90386 0.91239 0.4344 0.0
C598 C 0.82091 0.99838 0.49315 0.0
C599 C 0.79989 0.99949 0.51793 0.0
C600 C 0.7977 0.97157 0.5363 0.0
C601 C 0.81637 0.94345 0.53071 0.0
C602 C 0.83693 0.94315 0.50636 0.0
C603 C 0.83886 0.96947 0.4875 0.0
C604 C 0.86192 0.96156 0.4623 0.0
C605 C 0.84024 0.96051 0.43489 0.0
C606 C 0.89441 0.98689 0.46018 0.0
C607 C 0.87273 0.92685 0.47016 0.0
C608 C 0.8583 0.91725 0.49593 0.0
C609 C 0.86519 0.88717 0.50854 0.0
C610 C 0.88639 0.8657 0.49416 0.0
C611 C 0.90006 0.87353 0.46682 0.0
C612 C 0.89366 0.90516 0.45501 0.0
H613 H 0.87907 0.13521 0.54632 0.0
H614 H 0.85858 0.20787 0.61051 0.0
H615 H 0.91125 0.24367 0.59493 0.0
H616 H 0.97894 0.14784 0.54934 0.0
H617 H 0.98284 0.14258 0.51175 0.0
H618 H 0.94673 0.12077 0.53062 0.0
H619 H 0.9021 0.14657 0.49727 0.0
H620 H 0.93794 0.16868 0.4785 0.0
H621 H 0.90335 0.19141 0.49359 0.0
H622 H 0.9594 0.27608 0.56639 0.0
H623 H 1.00177 0.29958 0.53045 0.0
H624 H 0.99554 0.20398 0.48752 0.0
C625 C 0.88671 0.15796 0.55783 0.0
C626 C 0.86529 0.16848 0.58007 0.0
C627 C 0.87518 0.19905 0.59393 0.0
C628 C 0.90492 0.21962 0.58505 0.0
C629 C 0.92494 0.20912 0.56245 0.0
C630 C 0.91666 0.17863 0.5494 0.0
C631 C 0.94106 0.1742 0.52445 0.0
C632 C 0.96374 0.14459 0.52934 0.0
C633 C 0.91984 0.16997 0.49683 0.0
C634 C 0.9636 0.20727 0.52495 0.0
C635 C 0.95383 0.22718 0.54696 0.0
C636 C 0.96805 0.26027 0.54967 0.0
C637 C 0.99239 0.27341 0.52926 0.0
C638 C 1.00287 0.25346 0.50657 0.0
C639 C 0.98878 0.21966 0.505 0.0
H640 H 0.28395 0.58305 0.98611 0.0
H641 H 0.36543 0.5396 0.03538 0.0
H642 H 0.40906 0.58386 1.01924 0.0
H643 H 0.34104 0.61101 0.92661 0.0
H644 H 0.32049 0.64968 0.92182 0.0
H645 H 0.29516 0.61349 0.93581 0.0
H646 H 0.27903 0.6475 0.97977 0.0
H647 H 0.30399 0.68381 0.96573 0.0
H648 H 0.31393 0.66868 1.00038 0.0
H649 H 0.44368 0.63487 1.00109 0.0
H650 H 0.46585 0.69039 0.98321 0.0
H651 H 0.36462 0.70137 0.94319 0.0
C652 C 0.311 0.58273 0.99337 0.0
C653 C 0.32106 0.557 1.01166 0.0
C654 C 0.35687 0.55807 0.02075 0.0
C655 C 0.38204 0.58337 1.0118 0.0
C656 C 0.37146 0.60791 0.99359 0.0
C657 C 0.33682 0.60797 0.98445 0.0
C658 C 0.33253 0.63833 0.96574 0.0
C659 C 0.32166 0.62747 0.93571 0.0
C660 C 0.30578 0.66091 0.97868 0.0
C661 C 0.36994 0.65538 0.96622 0.0
C662 C 0.39191 0.63727 0.98244 0.0
C663 C 0.42687 0.649 0.98795 0.0
C664 C 0.43942 0.6805 0.97745 0.0
C665 C 0.41731 0.70009 0.96133 0.0
C666 C 0.38243 0.68666 0.95488 0.0
H667 H 0.68949 0.63334 0.0609 0.0
H668 H 0.72873 0.69194 0.13246 0.0
H669 H 0.68239 0.73139 0.12478 0.0
H670 H 0.67266 0.70098 1.01776 0.0
H671 H 0.63293 0.68193 1.00175 0.0
H672 H 0.66611 0.6561 1.01482 0.0
H673 H 0.61964 0.62372 0.04654 0.0
H674 H 0.5861 0.64907 0.03324 0.0
H675 H 0.59366 0.64647 0.07067 0.0
H676 H 0.63535 0.76821 0.10565 0.0
H677 H 0.58893 0.7959 0.0798 0.0
H678 H 0.57947 0.71312 0.02073 0.0
C679 C 0.68727 0.65371 0.07563 0.0
C680 C 0.71204 0.65895 0.09792 0.0
C681 C 0.7094 0.68684 0.11589 0.0
C682 C 0.68333 0.70958 0.11144 0.0
C683 C 0.6599 0.70427 0.08882 0.0
C684 C 0.6613 0.67668 0.07146 0.0
C685 C 0.63425 0.67763 0.04778 0.0
C686 C 0.65259 0.67926 1.01882 0.0
C687 C 0.60678 0.64743 0.04968 0.0
C688 C 0.61762 0.71014 0.05432 0.0
C689 C 0.63289 0.72524 0.078 0.0
C690 C 0.62299 0.75628 0.0873 0.0
C691 C 0.59668 0.77202 0.07232 0.0
C692 C 0.58005 0.75679 0.04826 0.0
C693 C 0.59099 0.72533 0.0393 0.0
H694 H 0.70778 0.48676 0.03797 0.0
H695 H 0.78984 0.49034 0.97418 0.0
H696 H 0.75673 0.44395 0.94853 0.0
H697 H 0.69401 0.39735 0.03948 0.0
H698 H 0.64707 0.39692 0.04568 0.0
H699 H 0.67604 0.43181 0.05752 0.0
H700 H 0.63885 0.47207 0.02945 0.0
H701 H 0.61011 0.43713 1.01719 0.0
H702 H 0.63205 0.46553 0.99217 0.0
H703 H 0.71478 0.39572 0.9303 0.0
H704 H 0.67231 0.346 0.92448 0.0
H705 H 0.61853 0.37215 1.00091 0.0
C706 C 0.71856 0.47804 1.0184 0.0
C707 C 0.75133 0.49257 1.00791 0.0
C708 C 0.76488 0.47976 0.98262 0.0
C709 C 0.74607 0.45352 0.96781 0.0
C710 C 0.71378 0.4399 0.97864 0.0
C711 C 0.70041 0.45145 1.00362 0.0
C712 C 0.66658 0.43084 1.01191 0.0
C713 C 0.67121 0.41319 0.04033 0.0
C714 C 0.63503 0.45271 1.01273 0.0
C715 C 0.66294 0.40582 0.98778 0.0
C716 C 0.69018 0.41177 0.96857 0.0
C717 C 0.69321 0.39113 0.9451 0.0
C718 C 0.66871 0.36313 0.94173 0.0
C719 C 0.64151 0.3557 0.96175 0.0
C720 C 0.63828 0.37784 0.98475 0.0
H721 H 0.46621 0.33101 1.00278 0.0
H722 H 0.49553 0.27878 0.0784 0.0
H723 H 0.45311 0.30961 0.10588 0.0
H724 H 0.45248 0.4108 0.03537 0.0
H725 H 0.41489 0.41804 1.01355 0.0
H726 H 0.44916 0.39352 1.00029 0.0
H727 H 0.40257 0.34431 0.98986 0.0
H728 H 0.36819 0.36879 1.00288 0.0
H729 H 0.37378 0.3282 1.01778 0.0
H730 H 0.40346 0.34459 0.12488 0.0
H731 H 0.35198 0.37838 0.13247 0.0
H732 H 0.35517 0.40702 0.04449 0.0
C733 C 0.46381 0.32571 0.02509 0.0
C734 C 0.48464 0.30199 0.03815 0.0
C735 C 0.48058 0.29687 0.06765 0.0
C736 C 0.45627 0.31426 0.08351 0.0
C737 C 0.43596 0.33703 0.06981 0.0
C738 C 0.4396 0.34273 0.04119 0.0
C739 C 0.41385 0.36747 0.0311 0.0
C740 C 0.4338 0.39935 1.01939 0.0
C741 C 0.38808 0.35122 1.00911 0.0
C742 C 0.39481 0.37463 0.05838 0.0
C743 C 0.40797 0.357 0.08059 0.0
C744 C 0.39332 0.35866 0.10761 0.0
C745 C 0.36419 0.37809 0.11183 0.0
C746 C 0.3498 0.39567 0.08922 0.0
C747 C 0.36595 0.3943 0.0623 0.0
H748 H 0.04115 0.60134 0.37946 0.0
H749 H 0.04447 0.62494 0.4689 0.0
H750 H 0.04709 0.5653 0.47991 0.0
H751 H 0.98463 0.52522 0.38607 0.0
H752 H 1.00656 0.50325 0.35883 0.0
H753 H 1.0065 0.54816 0.3575 0.0
H754 H 0.07494 0.5534 0.35517 0.0
H755 H 0.0752 0.5085 0.3564 0.0
H756 H 0.09993 0.5339 0.38207 0.0
H757 H 0.04773 0.50248 0.48182 0.0
H758 H 0.04856 0.44182 0.4743 0.0
H759 H 0.04262 0.45725 0.38381 0.0
C760 C 0.04246 0.59413 0.4014 0.0
C761 C 0.04305 0.61858 0.42322 0.0
C762 C 0.04494 0.60741 0.45158 0.0
C763 C 0.04606 0.5733 0.45815 0.0
C764 C 0.04516 0.55007 0.43625 0.0
C765 C 0.04355 0.55996 0.40841 0.0
C766 C 0.04255 0.52963 0.38895 0.0
C767 C 1.008 0.52638 0.37183 0.0
C768 C 0.07509 0.53148 0.3695 0.0
C769 C 0.04378 0.50123 0.41021 0.0
C770 C 0.04521 0.51368 0.43737 0.0
C771 C 0.04649 0.4925 0.46061 0.0
C772 C 0.04659 0.45783 0.45608 0.0
C773 C 0.04536 0.4441 0.42846 0.0
C774 C 0.04385 0.4665 0.40525 0.0
H775 H 0.60515 0.0549 0.63558 0.0
H776 H 0.62411 0.04248 0.54621 0.0
H777 H 0.56066 1.02596 0.5389 0.0
H778 H 0.53833 0.98072 0.64006 0.0
H779 H 0.51221 1.00025 0.66619 0.0
H780 H 0.55933 1.01039 0.66455 0.0
H781 H 0.54835 0.07306 0.66004 0.0
H782 H 0.50117 0.06303 0.66088 0.0
H783 H 0.52101 0.0865 0.63175 0.0
H784 H 0.49442 1.01924 0.53993 0.0
H785 H 0.43126 1.00534 0.55061 0.0
H786 H 0.45377 1.01326 0.64007 0.0
C787 C 0.59603 0.04769 0.61466 0.0
C788 C 0.61966 0.05027 0.59135 0.0
C789 C 0.60659 0.04075 0.5643 0.0
C790 C 0.57048 0.03169 0.55991 0.0
C791 C 0.54758 0.03108 0.58294 0.0
C792 C 0.55991 0.03738 0.60999 0.0
C793 C 0.52939 0.03303 0.63106 0.0
C794 C 0.53516 1.00439 0.65169 0.0
C795 C 0.52472 0.06587 0.64687 0.0
C796 C 0.49807 1.02403 0.61152 0.0
C797 C 0.5093 1.02397 0.58379 0.0
C798 C 0.48547 1.01839 0.5616 0.0
C799 C 0.44953 1.01087 0.56786 0.0
C800 C 0.43752 1.00778 0.59611 0.0
C801 C 0.46209 1.01537 0.61826 0.0
H802 H 0.54405 0.10023 0.92236 0.0
H803 H 0.5291 0.12022 1.01129 0.0
H804 H 0.52156 0.05957 0.0206 0.0
H805 H 0.47176 0.02922 0.92277 0.0
H806 H 0.49352 1.00603 0.89621 0.0
H807 H 0.49888 0.05111 0.8964 0.0
H808 H 0.56678 0.04821 0.89785 0.0
H809 H 0.5616 1.00315 0.89855 0.0
H810 H 0.58632 1.02562 0.92596 0.0
H811 H 0.5293 0.99745 0.0214 0.0
H812 H 0.52307 0.93663 1.01305 0.0
H813 H 0.51485 0.95394 0.92312 0.0
C814 C 0.53787 0.09196 0.94364 0.0
C815 C 0.53806 0.11542 0.96628 0.0
C816 C 0.52971 0.10304 0.99369 0.0
C817 C 0.52579 0.06852 0.99925 0.0
C818 C 0.52797 0.04618 0.97691 0.0
C819 C 0.53146 0.05725 0.94941 0.0
C820 C 0.52882 1.02731 0.92924 0.0
C821 C 0.4963 0.02849 0.91001 0.0
C822 C 0.56291 1.02602 0.91187 0.0
C823 C 0.52439 0.99789 0.94984 0.0
C824 C 0.52564 1.00969 0.97722 0.0
C825 C 0.52646 0.98796 1.00009 0.0
C826 C 0.52316 0.95334 0.99509 0.0
C827 C 0.5165 0.94025 0.96763 0.0
C828 C 0.51872 0.96299 0.94449 0.0
H829 H 0.10312 0.50399 0.13506 0.0
H830 H 0.1229 0.50991 0.04508 0.0
H831 H 0.06166 0.52431 0.03711 0.0
H832 H 1.01277 0.47234 0.1341 0.0
H833 H 0.99754 0.49887 0.16151 0.0
H834 H 0.04295 0.48841 0.16112 0.0
H835 H 0.06466 0.55118 0.16102 0.0
H836 H 1.01933 0.56181 0.16206 0.0
H837 H 0.04843 0.57833 0.1345 0.0
H838 H 0.99594 0.52852 0.0379 0.0
H839 H 0.93502 0.54282 0.04753 0.0
H840 H 0.95785 0.54668 0.13711 0.0
C841 C 0.09469 0.50897 0.11377 0.0
C842 C 0.11776 0.50458 0.09053 0.0
C843 C 0.10571 0.51217 0.06312 0.0
C844 C 0.07078 0.52017 0.05835 0.0
C845 C 0.04813 0.52231 0.08133 0.0
C846 C 0.05993 0.51864 0.10864 0.0
C847 C 0.03036 0.52541 0.12942 0.0
C848 C 1.02032 0.49441 0.14762 0.0
C849 C 0.04135 0.55601 0.14784 0.0
C850 C 1.00011 0.53263 0.10944 0.0
C851 C 1.01096 0.52954 0.08182 0.0
C852 C 0.98754 0.53218 0.05942 0.0
C853 C 0.9528 0.54009 0.06513 0.0
C854 C 0.94169 0.54705 0.09294 0.0
C855 C 0.96553 0.54215 0.11555 0.0
loop_
_geom_bond_atom_site_label_1
_geom_bond_atom_site_label_2
_geom_bond_distance
_geom_bond_site_symmetry_2
_ccdc_geom_bond_type
C0 C1 1.443 . S
C0 N4 1.376 . S
C0 C38 1.389 . S
C1 C0 1.443 . S
C1 C2 1.340 . S
C1 H41 0.951 . S
C2 C1 1.340 . S
C2 C3 1.439 . S
C2 H42 0.950 . S
C3 C2 1.439 . S
C3 N4 1.374 . S
C3 C37 1.395 . S
N4 C0 1.376 . S
N4 C3 1.374 . S
N4 Co5 2.008 . S
Co5 N4 2.008 . S
Co5 N6 1.995 . S
Co5 N11 2.008 1_455 S
Co5 N16 1.995 . S
Co5 N21 2.282 . S
Co5 N27 2.282 . S
N6 Co5 1.995 . S
N6 C7 1.376 . S
N6 C10 1.383 . S
C7 N6 1.376 . S
C7 C8 1.446 . S
C7 C37 1.391 . S
C8 C7 1.446 . S
C8 C9 1.339 . S
C8 H43 0.949 . S
C9 C8 1.339 . S
C9 C10 1.439 . S
C9 H44 0.952 . S
C10 N6 1.383 . S
C10 C9 1.439 . S
C10 C39 1.392 1_455 S
N11 Co5 2.008 1_655 S
N11 C12 1.376 . S
N11 C15 1.374 . S
C12 N11 1.376 . S
C12 C13 1.443 . S
C12 C39 1.389 . S
C13 C12 1.443 . S
C13 C14 1.340 . S
C13 H45 0.951 . S
C14 C13 1.340 . S
C14 C15 1.439 . S
C14 H46 0.950 . S
C15 N11 1.374 . S
C15 C14 1.439 . S
C15 C40 1.395 . S
N16 Co5 1.995 . S
N16 C17 1.376 . S
N16 C20 1.383 . S
C17 N16 1.376 . S
C17 C18 1.446 . S
C17 C40 1.391 1_455 S
C18 C17 1.446 . S
C18 C19 1.339 . S
C18 H47 0.949 . S
C19 C18 1.339 . S
C19 C20 1.439 . S
C19 H48 0.950 . S
C20 N16 1.383 . S
C20 C19 1.439 . S
C20 C38 1.392 . S
N21 Co5 2.282 . S
N21 C24 1.332 . S
N21 C26 1.332 . S
C22 C23 1.386 . S
C22 C25 1.388 . S
C23 C22 1.386 . S
C23 C24 1.382 . S
C23 H49 0.950 . S
C24 N21 1.332 . S
C24 C23 1.382 . S
C24 H35 0.952 . S
C25 C22 1.388 . S
C25 C26 1.382 . S
C25 H50 0.950 . S
C26 N21 1.332 . S
C26 C25 1.382 . S
C26 H36 0.948 . S
N27 Co5 2.282 . S
N27 C31 1.332 . S
N27 C32 1.332 1_455 S
C28 C29 1.388 . S
C28 C32 1.382 . S
C28 H51 0.950 . S
C29 C28 1.388 . S
C29 C30 1.386 1_655 S
C30 C29 1.386 1_455 S
C30 C31 1.382 . S
C30 H52 0.950 . S
C31 N27 1.332 . S
C31 C30 1.382 . S
C31 H33 0.952 . S
C32 N27 1.332 1_655 S
C32 C28 1.382 . S
C32 H34 0.948 . S
H33 C31 0.952 . S
H34 C32 0.948 . S
H35 C24 0.952 . S
H36 C26 0.948 . S
C37 C3 1.395 . S
C37 C7 1.391 . S
C38 C0 1.389 . S
C38 C20 1.392 . S
C39 C10 1.392 1_655 S
C39 C12 1.389 . S
C40 C15 1.395 . S
C40 C17 1.391 1_655 S
H41 C1 0.951 . S
H42 C2 0.950 . S
H43 C8 0.949 . S
H44 C9 0.952 . S
H45 C13 0.951 . S
H46 C14 0.950 . S
H47 C18 0.949 . S
H48 C19 0.950 . S
H49 C23 0.950 . S
H50 C25 0.950 . S
H51 C28 0.950 . S
H52 C30 0.950 . S
C53 C54 1.443 . S
C53 N57 1.376 . S
C53 C91 1.389 . S
C54 C53 1.443 . S
C54 C55 1.340 . S
C54 H94 0.951 . S
C55 C54 1.340 . S
C55 C56 1.439 . S
C55 H95 0.950 . S
C56 C55 1.439 . S
C56 N57 1.374 . S
C56 C90 1.395 . S
N57 C53 1.376 . S
N57 C56 1.374 . S
N57 Co58 2.008 . S
Co58 N57 2.008 . S
Co58 N59 1.995 . S
Co58 N64 2.008 . S
Co58 N69 1.995 . S
Co58 N74 2.282 . S
Co58 N80 2.282 . S
N59 Co58 1.995 . S
N59 C60 1.376 . S
N59 C63 1.383 . S
C60 N59 1.376 . S
C60 C61 1.446 . S
C60 C90 1.391 . S
C61 C60 1.446 . S
C61 C62 1.339 . S
C61 H96 0.949 . S
C62 C61 1.339 . S
C62 C63 1.439 . S
C62 H97 0.950 . S
C63 N59 1.383 . S
C63 C62 1.439 . S
C63 C92 1.392 . S
N64 Co58 2.008 . S
N64 C65 1.376 . S
N64 C68 1.374 . S
C65 N64 1.376 . S
C65 C66 1.443 . S
C65 C92 1.389 . S
C66 C65 1.443 . S
C66 C67 1.340 . S
C66 H98 0.951 . S
C67 C66 1.340 . S
C67 C68 1.439 . S
C67 H99 0.950 . S
C68 N64 1.374 . S
C68 C67 1.439 . S
C68 C93 1.395 . S
N69 Co58 1.995 . S
N69 C70 1.376 . S
N69 C73 1.383 . S
C70 N69 1.376 . S
C70 C71 1.446 1_565 S
C70 C93 1.391 . S
C71 C70 1.446 1_545 S
C71 C72 1.339 . S
C71 H100 0.949 . S
C72 C71 1.339 . S
C72 C73 1.439 1_545 S
C72 H101 0.950 . S
C73 N69 1.383 . S
C73 C72 1.439 1_565 S
C73 C91 1.392 . S
N74 Co58 2.282 . S
N74 C77 1.332 . S
N74 C79 1.332 . S
C75 C76 1.386 . S
C75 C78 1.388 1_545 S
C76 C75 1.386 . S
C76 C77 1.382 1_545 S
C76 H102 0.950 . S
C77 N74 1.332 . S
C77 C76 1.382 1_565 S
C77 H88 0.952 1_565 S
C78 C75 1.388 1_565 S
C78 C79 1.382 . S
C78 H103 0.950 . S
C79 N74 1.332 . S
C79 C78 1.382 . S
C79 H89 0.948 . S
N80 Co58 2.282 . S
N80 C84 1.332 . S
N80 C85 1.332 . S
C81 C82 1.388 . S
C81 C85 1.382 . S
C81 H104 0.950 . S
C82 C81 1.388 . S
C82 C83 1.386 . S
C83 C82 1.386 . S
C83 C84 1.382 . S
C83 H105 0.950 . S
C84 N80 1.332 . S
C84 C83 1.382 . S
C84 H86 0.952 . S
C85 N80 1.332 . S
C85 C81 1.382 . S
C85 H87 0.948 . S
H86 C84 0.952 . S
H87 C85 0.948 . S
H88 C77 0.952 1_545 S
H89 C79 0.948 . S
C90 C56 1.395 . S
C90 C60 1.391 . S
C91 C53 1.389 . S
C91 C73 1.392 . S
C92 C63 1.392 . S
C92 C65 1.389 . S
C93 C68 1.395 . S
C93 C70 1.391 . S
H94 C54 0.951 . S
H95 C55 0.950 . S
H96 C61 0.949 . S
H97 C62 0.950 . S
H98 C66 0.951 . S
H99 C67 0.950 . S
H100 C71 0.949 . S
H101 C72 0.950 . S
H102 C76 0.950 . S
H103 C78 0.950 . S
H104 C81 0.950 . S
H105 C83 0.950 . S
C106 C107 1.443 . S
C106 N110 1.376 . S
C106 C144 1.389 . S
C107 C106 1.443 . S
C107 C108 1.340 . S
C107 H147 0.951 . S
C108 C107 1.340 . S
C108 C109 1.439 . S
C108 H148 0.950 . S
C109 C108 1.439 . S
C109 N110 1.374 . S
C109 C143 1.395 . S
N110 C106 1.376 . S
N110 C109 1.374 . S
N110 Co111 2.008 . S
Co111 N110 2.008 . S
Co111 N112 1.995 . S
Co111 N117 2.008 1_655 S
Co111 N122 1.995 . S
Co111 N127 2.282 . S
Co111 N133 2.282 . S
N112 Co111 1.995 . S
N112 C113 1.376 . S
N112 C116 1.383 . S
C113 N112 1.376 . S
C113 C114 1.446 . S
C113 C143 1.391 . S
C114 C113 1.446 . S
C114 C115 1.339 . S
C114 H149 0.949 . S
C115 C114 1.339 . S
C115 C116 1.439 . S
C115 H150 0.952 . S
C116 N112 1.383 . S
C116 C115 1.439 . S
C116 C145 1.392 1_655 S
N117 Co111 2.008 1_455 S
N117 C118 1.376 . S
N117 C121 1.374 . S
C118 N117 1.376 . S
C118 C119 1.443 . S
C118 C145 1.389 . S
C119 C118 1.443 . S
C119 C120 1.340 . S
C119 H151 0.951 . S
C120 C119 1.340 . S
C120 C121 1.439 . S
C120 H152 0.950 . S
C121 N117 1.374 . S
C121 C120 1.439 . S
C121 C146 1.395 . S
N122 Co111 1.995 . S
N122 C123 1.376 . S
N122 C126 1.383 . S
C123 N122 1.376 . S
C123 C124 1.446 . S
C123 C146 1.391 1_655 S
C124 C123 1.446 . S
C124 C125 1.339 . S
C124 H153 0.949 . S
C125 C124 1.339 . S
C125 C126 1.439 . S
C125 H154 0.950 . S
C126 N122 1.383 . S
C126 C125 1.439 . S
C126 C144 1.392 . S
N127 Co111 2.282 . S
N127 C130 1.332 . S
N127 C132 1.332 . S
C128 C129 1.386 . S
C128 C131 1.388 . S
C129 C128 1.386 . S
C129 C130 1.382 . S
C129 H155 0.950 . S
C130 N127 1.332 . S
C130 C129 1.382 . S
C130 H141 0.952 . S
C131 C128 1.388 . S
C131 C132 1.382 . S
C131 H156 0.950 . S
C132 N127 1.332 . S
C132 C131 1.382 . S
C132 H142 0.948 . S
N133 Co111 2.282 . S
N133 C137 1.332 . S
N133 C138 1.332 1_655 S
C134 C135 1.388 . S
C134 C138 1.382 . S
C134 H157 0.950 . S
C135 C134 1.388 . S
C135 C136 1.386 1_455 S
C136 C135 1.386 1_655 S
C136 C137 1.382 . S
C136 H158 0.950 . S
C137 N133 1.332 . S
C137 C136 1.382 . S
C137 H139 0.952 . S
C138 N133 1.332 1_455 S
C138 C134 1.382 . S
C138 H140 0.948 . S
H139 C137 0.952 . S
H140 C138 0.948 . S
H141 C130 0.952 . S
H142 C132 0.948 . S
C143 C109 1.395 . S
C143 C113 1.391 . S
C144 C106 1.389 . S
C144 C126 1.392 . S
C145 C116 1.392 1_455 S
C145 C118 1.389 . S
C146 C121 1.395 . S
C146 C123 1.391 1_455 S
H147 C107 0.951 . S
H148 C108 0.950 . S
H149 C114 0.949 . S
H150 C115 0.952 . S
H151 C119 0.951 . S
H152 C120 0.950 . S
H153 C124 0.949 . S
H154 C125 0.950 . S
H155 C129 0.950 . S
H156 C131 0.950 . S
H157 C134 0.950 . S
H158 C136 0.950 . S
C159 C160 1.443 . S
C159 N163 1.376 . S
C159 C197 1.389 . S
C160 C159 1.443 . S
C160 C161 1.340 . S
C160 H200 0.951 . S
C161 C160 1.340 . S
C161 C162 1.439 . S
C161 H201 0.950 . S
C162 C161 1.439 . S
C162 N163 1.374 . S
C162 C196 1.395 . S
N163 C159 1.376 . S
N163 C162 1.374 . S
N163 Co164 2.008 . S
Co164 N163 2.008 . S
Co164 N165 1.995 . S
Co164 N170 2.008 . S
Co164 N175 1.995 . S
Co164 N180 2.282 . S
Co164 N186 2.282 . S
N165 Co164 1.995 . S
N165 C166 1.376 . S
N165 C169 1.383 . S
C166 N165 1.376 . S
C166 C167 1.446 . S
C166 C196 1.391 . S
C167 C166 1.446 . S
C167 C168 1.339 . S
C167 H202 0.949 . S
C168 C167 1.339 . S
C168 C169 1.439 . S
C168 H203 0.950 . S
C169 N165 1.383 . S
C169 C168 1.439 . S
C169 C198 1.392 . S
N170 Co164 2.008 . S
N170 C171 1.376 . S
N170 C174 1.374 . S
C171 N170 1.376 . S
C171 C172 1.443 . S
C171 C198 1.389 . S
C172 C171 1.443 . S
C172 C173 1.340 . S
C172 H204 0.951 . S
C173 C172 1.340 . S
C173 C174 1.439 . S
C173 H205 0.950 . S
C174 N170 1.374 . S
C174 C173 1.439 . S
C174 C199 1.395 . S
N175 Co164 1.995 . S
N175 C176 1.376 . S
N175 C179 1.383 . S
C176 N175 1.376 . S
C176 C177 1.446 1_545 S
C176 C199 1.391 . S
C177 C176 1.446 1_565 S
C177 C178 1.339 . S
C177 H206 0.949 . S
C178 C177 1.339 . S
C178 C179 1.439 1_565 S
C178 H207 0.950 . S
C179 N175 1.383 . S
C179 C178 1.439 1_545 S
C179 C197 1.392 . S
N180 Co164 2.282 . S
N180 C183 1.332 . S
N180 C185 1.332 . S
C181 C182 1.386 . S
C181 C184 1.388 1_565 S
C182 C181 1.386 . S
C182 C183 1.382 1_565 S
C182 H208 0.950 . S
C183 N180 1.332 . S
C183 C182 1.382 1_545 S
C183 H194 0.952 1_545 S
C184 C181 1.388 1_545 S
C184 C185 1.382 . S
C184 H209 0.950 . S
C185 N180 1.332 . S
C185 C184 1.382 . S
C185 H195 0.948 . S
N186 Co164 2.282 . S
N186 C190 1.332 . S
N186 C191 1.332 . S
C187 C188 1.388 . S
C187 C191 1.382 . S
C187 H210 0.950 . S
C188 C187 1.388 . S
C188 C189 1.386 . S
C189 C188 1.386 . S
C189 C190 1.382 . S
C189 H211 0.950 . S
C190 N186 1.332 . S
C190 C189 1.382 . S
C190 H192 0.952 . S
C191 N186 1.332 . S
C191 C187 1.382 . S
C191 H193 0.948 . S
H192 C190 0.952 . S
H193 C191 0.948 . S
H194 C183 0.952 1_565 S
H195 C185 0.948 . S
C196 C162 1.395 . S
C196 C166 1.391 . S
C197 C159 1.389 . S
C197 C179 1.392 . S
C198 C169 1.392 . S
C198 C171 1.389 . S
C199 C174 1.395 . S
C199 C176 1.391 . S
H200 C160 0.951 . S
H201 C161 0.950 . S
H202 C167 0.949 . S
H203 C168 0.950 . S
H204 C172 0.951 . S
H205 C173 0.950 . S
H206 C177 0.949 . S
H207 C178 0.950 . S
H208 C182 0.950 . S
H209 C184 0.950 . S
H210 C187 0.950 . S
H211 C189 0.950 . S
C212 C213 1.443 . S
C212 N216 1.376 . S
C212 C250 1.389 . S
C213 C212 1.443 . S
C213 C214 1.340 . S
C213 H253 0.951 . S
C214 C213 1.340 . S
C214 C215 1.439 . S
C214 H254 0.950 1_556 S
C215 C214 1.439 . S
C215 N216 1.374 . S
C215 C249 1.395 . S
N216 C212 1.376 . S
N216 C215 1.374 . S
N216 Co217 2.008 . S
Co217 N216 2.008 . S
Co217 N218 1.995 . S
Co217 N223 2.008 . S
Co217 N228 1.995 . S
Co217 N233 2.282 . S
Co217 N239 2.282 . S
N218 Co217 1.995 . S
N218 C219 1.376 . S
N218 C222 1.383 . S
C219 N218 1.376 . S
C219 C220 1.446 . S
C219 C249 1.391 . S
C220 C219 1.446 . S
C220 C221 1.339 . S
C220 H255 0.949 . S
C221 C220 1.339 . S
C221 C222 1.439 . S
C221 H256 0.950 . S
C222 N218 1.383 . S
C222 C221 1.439 . S
C222 C251 1.392 . S
N223 Co217 2.008 . S
N223 C224 1.376 . S
N223 C227 1.374 . S
C224 N223 1.376 . S
C224 C225 1.443 . S
C224 C251 1.389 . S
C225 C224 1.443 . S
C225 C226 1.340 . S
C225 H257 0.951 . S
C226 C225 1.340 . S
C226 C227 1.439 . S
C226 H258 0.950 . S
C227 N223 1.374 . S
C227 C226 1.439 . S
C227 C252 1.395 . S
N228 Co217 1.995 . S
N228 C229 1.376 . S
N228 C232 1.383 . S
C229 N228 1.376 . S
C229 C230 1.446 . S
C229 C252 1.391 . S
C230 C229 1.446 . S
C230 C231 1.339 . S
C230 H259 0.949 . S
C231 C230 1.339 . S
C231 C232 1.439 . S
C231 H260 0.950 . S
C232 N228 1.383 . S
C232 C231 1.439 . S
C232 C250 1.392 . S
N233 Co217 2.282 . S
N233 C236 1.332 . S
N233 C238 1.332 . S
C234 C235 1.386 . S
C234 C237 1.388 . S
C235 C234 1.386 . S
C235 C236 1.382 . S
C235 H261 0.950 . S
C236 N233 1.332 . S
C236 C235 1.382 . S
C236 H247 0.952 . S
C237 C234 1.388 . S
C237 C238 1.382 . S
C237 H262 0.950 . S
C238 N233 1.332 . S
C238 C237 1.382 . S
C238 H248 0.948 . S
N239 Co217 2.282 . S
N239 C243 1.332 . S
N239 C244 1.332 . S
C240 C241 1.388 . S
C240 C244 1.382 . S
C240 H263 0.950 . S
C241 C240 1.388 . S
C241 C242 1.386 1_556 S
C242 C241 1.386 1_554 S
C242 C243 1.382 1_554 S
C242 H264 0.950 . S
C243 N239 1.332 . S
C243 C242 1.382 1_556 S
C243 H245 0.952 . S
C244 N239 1.332 . S
C244 C240 1.382 . S
C244 H246 0.948 . S
H245 C243 0.952 . S
H246 C244 0.948 . S
H247 C236 0.952 . S
H248 C238 0.948 . S
C249 C215 1.395 . S
C249 C219 1.391 . S
C250 C212 1.389 . S
C250 C232 1.392 . S
C251 C222 1.392 . S
C251 C224 1.389 . S
C252 C227 1.395 . S
C252 C229 1.391 . S
H253 C213 0.951 . S
H254 C214 0.950 1_554 S
H255 C220 0.949 . S
H256 C221 0.950 . S
H257 C225 0.951 . S
H258 C226 0.950 . S
H259 C230 0.949 . S
H260 C231 0.950 . S
H261 C235 0.950 . S
H262 C237 0.950 . S
H263 C240 0.950 . S
H264 C242 0.950 . S
C265 C266 1.443 . S
C265 N269 1.376 . S
C265 C303 1.389 . S
C266 C265 1.443 . S
C266 C267 1.340 . S
C266 H306 0.951 . S
C267 C266 1.340 . S
C267 C268 1.439 . S
C267 H307 0.950 . S
C268 C267 1.439 . S
C268 N269 1.374 . S
C268 C302 1.395 . S
N269 C265 1.376 . S
N269 C268 1.374 . S
N269 Co270 2.008 . S
Co270 N269 2.008 . S
Co270 N271 1.995 . S
Co270 N276 2.008 . S
Co270 N281 1.995 . S
Co270 N286 2.282 . S
Co270 N292 2.282 . S
N271 Co270 1.995 . S
N271 C272 1.376 . S
N271 C275 1.383 . S
C272 N271 1.376 . S
C272 C273 1.446 . S
C272 C302 1.391 . S
C273 C272 1.446 . S
C273 C274 1.339 . S
C273 H308 0.949 . S
C274 C273 1.339 . S
C274 C275 1.439 . S
C274 H309 0.950 . S
C275 N271 1.383 . S
C275 C274 1.439 . S
C275 C304 1.392 . S
N276 Co270 2.008 . S
N276 C277 1.376 . S
N276 C280 1.374 . S
C277 N276 1.376 . S
C277 C278 1.443 . S
C277 C304 1.389 . S
C278 C277 1.443 . S
C278 C279 1.340 . S
C278 H310 0.951 . S
C279 C278 1.340 . S
C279 C280 1.439 . S
C279 H311 0.950 . S
C280 N276 1.374 . S
C280 C279 1.439 . S
C280 C305 1.395 . S
N281 Co270 1.995 . S
N281 C282 1.376 . S
N281 C285 1.383 . S
C282 N281 1.376 . S
C282 C283 1.446 . S
C282 C305 1.391 . S
C283 C282 1.446 . S
C283 C284 1.339 . S
C283 H312 0.949 . S
C284 C283 1.339 . S
C284 C285 1.439 . S
C284 H313 0.950 . S
C285 N281 1.383 . S
C285 C284 1.439 . S
C285 C303 1.392 . S
N286 Co270 2.282 . S
N286 C289 1.332 . S
N286 C291 1.332 . S
C287 C288 1.386 . S
C287 C290 1.388 . S
C288 C287 1.386 . S
C288 C289 1.382 . S
C288 H314 0.950 . S
C289 N286 1.332 . S
C289 C288 1.382 . S
C289 H300 0.952 . S
C290 C287 1.388 . S
C290 C291 1.382 . S
C290 H315 0.950 . S
C291 N286 1.332 . S
C291 C290 1.382 . S
C291 H301 0.948 . S
N292 Co270 2.282 . S
N292 C296 1.332 . S
N292 C297 1.332 . S
C293 C294 1.388 . S
C293 C297 1.382 . S
C293 H316 0.950 1_554 S
C294 C293 1.388 . S
C294 C295 1.386 . S
C295 C294 1.386 . S
C295 C296 1.382 . S
C295 H317 0.950 . S
C296 N292 1.332 . S
C296 C295 1.382 . S
C296 H298 0.952 . S
C297 N292 1.332 . S
C297 C293 1.382 . S
C297 H299 0.948 . S
H298 C296 0.952 . S
H299 C297 0.948 . S
H300 C289 0.952 . S
H301 C291 0.948 . S
C302 C268 1.395 . S
C302 C272 1.391 . S
C303 C265 1.389 . S
C303 C285 1.392 . S
C304 C275 1.392 . S
C304 C277 1.389 . S
C305 C280 1.395 . S
C305 C282 1.391 . S
H306 C266 0.951 . S
H307 C267 0.950 . S
H308 C273 0.949 . S
H309 C274 0.950 . S
H310 C278 0.951 . S
H311 C279 0.950 . S
H312 C283 0.949 . S
H313 C284 0.950 . S
H314 C288 0.950 . S
H315 C290 0.950 . S
H316 C293 0.950 1_556 S
H317 C295 0.950 . S
C318 C319 1.443 . S
C318 N322 1.376 . S
C318 C356 1.389 . S
C319 C318 1.443 . S
C319 C320 1.340 . S
C319 H359 0.951 . S
C320 C319 1.340 . S
C320 C321 1.439 . S
C320 H360 0.950 1_556 S
C321 C320 1.439 . S
C321 N322 1.374 . S
C321 C355 1.395 . S
N322 C318 1.376 . S
N322 C321 1.374 . S
N322 Co323 2.008 . S
Co323 N322 2.008 . S
Co323 N324 1.995 . S
Co323 N329 2.008 . S
Co323 N334 1.995 . S
Co323 N339 2.282 . S
Co323 N345 2.282 . S
N324 Co323 1.995 . S
N324 C325 1.376 . S
N324 C328 1.383 . S
C325 N324 1.376 . S
C325 C326 1.446 . S
C325 C355 1.391 . S
C326 C325 1.446 . S
C326 C327 1.339 . S
C326 H361 0.949 . S
C327 C326 1.339 . S
C327 C328 1.439 . S
C327 H362 0.950 . S
C328 N324 1.383 . S
C328 C327 1.439 . S
C328 C357 1.392 . S
N329 Co323 2.008 . S
N329 C330 1.376 . S
N329 C333 1.374 . S
C330 N329 1.376 . S
C330 C331 1.443 . S
C330 C357 1.389 . S
C331 C330 1.443 . S
C331 C332 1.340 . S
C331 H363 0.951 . S
C332 C331 1.340 . S
C332 C333 1.439 . S
C332 H364 0.950 . S
C333 N329 1.374 . S
C333 C332 1.439 . S
C333 C358 1.395 . S
N334 Co323 1.995 . S
N334 C335 1.376 . S
N334 C338 1.383 . S
C335 N334 1.376 . S
C335 C336 1.446 . S
C335 C358 1.391 . S
C336 C335 1.446 . S
C336 C337 1.339 . S
C336 H365 0.949 . S
C337 C336 1.339 . S
C337 C338 1.439 . S
C337 H366 0.950 . S
C338 N334 1.383 . S
C338 C337 1.439 . S
C338 C356 1.392 . S
N339 Co323 2.282 . S
N339 C342 1.332 . S
N339 C344 1.332 . S
C340 C341 1.386 . S
C340 C343 1.388 . S
C341 C340 1.386 . S
C341 C342 1.382 . S
C341 H367 0.950 . S
C342 N339 1.332 . S
C342 C341 1.382 . S
C342 H353 0.952 . S
C343 C340 1.388 . S
C343 C344 1.382 . S
C343 H368 0.950 . S
C344 N339 1.332 . S
C344 C343 1.382 . S
C344 H354 0.948 . S
N345 Co323 2.282 . S
N345 C349 1.332 . S
N345 C350 1.332 . S
C346 C347 1.388 . S
C346 C350 1.382 . S
C346 H369 0.950 . S
C347 C346 1.388 . S
C347 C348 1.386 1_556 S
C348 C347 1.386 1_554 S
C348 C349 1.382 1_554 S
C348 H370 0.950 . S
C349 N345 1.332 . S
C349 C348 1.382 1_556 S
C349 H351 0.952 . S
C350 N345 1.332 . S
C350 C346 1.382 . S
C350 H352 0.948 . S
H351 C349 0.952 . S
H352 C350 0.948 . S
H353 C342 0.952 . S
H354 C344 0.948 . S
C355 C321 1.395 . S
C355 C325 1.391 . S
C356 C318 1.389 . S
C356 C338 1.392 . S
C357 C328 1.392 . S
C357 C330 1.389 . S
C358 C333 1.395 . S
C358 C335 1.391 . S
H359 C319 0.951 . S
H360 C320 0.950 1_554 S
H361 C326 0.949 . S
H362 C327 0.950 . S
H363 C331 0.951 . S
H364 C332 0.950 . S
H365 C336 0.949 . S
H366 C337 0.950 . S
H367 C341 0.950 . S
H368 C343 0.950 . S
H369 C346 0.950 . S
H370 C348 0.950 . S
C371 C372 1.443 . S
C371 N375 1.376 . S
C371 C409 1.389 . S
C372 C371 1.443 . S
C372 C373 1.340 . S
C372 H412 0.951 . S
C373 C372 1.340 . S
C373 C374 1.439 . S
C373 H413 0.950 . S
C374 C373 1.439 . S
C374 N375 1.374 . S
C374 C408 1.395 . S
N375 C371 1.376 . S
N375 C374 1.374 . S
N375 Co376 2.008 . S
Co376 N375 2.008 . S
Co376 N377 1.995 . S
Co376 N382 2.008 . S
Co376 N387 1.995 . S
Co376 N392 2.282 . S
Co376 N398 2.282 . S
N377 Co376 1.995 . S
N377 C378 1.376 . S
N377 C381 1.383 . S
C378 N377 1.376 . S
C378 C379 1.446 . S
C378 C408 1.391 . S
C379 C378 1.446 . S
C379 C380 1.339 . S
C379 H414 0.949 . S
C380 C379 1.339 . S
C380 C381 1.439 . S
C380 H415 0.950 . S
C381 N377 1.383 . S
C381 C380 1.439 . S
C381 C410 1.392 . S
N382 Co376 2.008 . S
N382 C383 1.376 . S
N382 C386 1.374 . S
C383 N382 1.376 . S
C383 C384 1.443 . S
C383 C410 1.389 . S
C384 C383 1.443 . S
C384 C385 1.340 . S
C384 H416 0.951 . S
C385 C384 1.340 . S
C385 C386 1.439 . S
C385 H417 0.950 . S
C386 N382 1.374 . S
C386 C385 1.439 . S
C386 C411 1.395 . S
N387 Co376 1.995 . S
N387 C388 1.376 . S
N387 C391 1.383 . S
C388 N387 1.376 . S
C388 C389 1.446 . S
C388 C411 1.391 . S
C389 C388 1.446 . S
C389 C390 1.339 . S
C389 H418 0.949 . S
C390 C389 1.339 . S
C390 C391 1.439 . S
C390 H419 0.950 . S
C391 N387 1.383 . S
C391 C390 1.439 . S
C391 C409 1.392 . S
N392 Co376 2.282 . S
N392 C395 1.332 . S
N392 C397 1.332 . S
C393 C394 1.386 . S
C393 C396 1.388 . S
C394 C393 1.386 . S
C394 C395 1.382 . S
C394 H420 0.950 . S
C395 N392 1.332 . S
C395 C394 1.382 . S
C395 H406 0.952 . S
C396 C393 1.388 . S
C396 C397 1.382 . S
C396 H421 0.950 . S
C397 N392 1.332 . S
C397 C396 1.382 . S
C397 H407 0.948 . S
N398 Co376 2.282 . S
N398 C402 1.332 . S
N398 C403 1.332 . S
C399 C400 1.388 . S
C399 C403 1.382 . S
C399 H422 0.950 1_554 S
C400 C399 1.388 . S
C400 C401 1.386 . S
C401 C400 1.386 . S
C401 C402 1.382 . S
C401 H423 0.950 . S
C402 N398 1.332 . S
C402 C401 1.382 . S
C402 H404 0.952 . S
C403 N398 1.332 . S
C403 C399 1.382 . S
C403 H405 0.948 . S
H404 C402 0.952 . S
H405 C403 0.948 . S
H406 C395 0.952 . S
H407 C397 0.948 . S
C408 C374 1.395 . S
C408 C378 1.391 . S
C409 C371 1.389 . S
C409 C391 1.392 . S
C410 C381 1.392 . S
C410 C383 1.389 . S
C411 C386 1.395 . S
C411 C388 1.391 . S
H412 C372 0.951 . S
H413 C373 0.950 . S
H414 C379 0.949 . S
H415 C380 0.950 . S
H416 C384 0.951 . S
H417 C385 0.950 . S
H418 C389 0.949 . S
H419 C390 0.950 . S
H420 C394 0.950 . S
H421 C396 0.950 . S
H422 C399 0.950 1_556 S
H423 C401 0.950 . S
H424 C436 0.930 . S
H425 C438 0.930 . S
H426 C439 0.930 . S
H427 C443 0.959 . S
H428 C443 0.959 . S
H429 C443 0.961 . S
H430 C444 0.960 . S
H431 C444 0.961 . S
H432 C444 0.959 . S
H433 C447 0.929 . S
H434 C448 0.931 . S
H435 C450 0.930 . S
C436 H424 0.930 . S
C436 C437 1.399 . S
C436 C441 1.399 . S
C437 C436 1.399 . S
C437 C438 1.376 . S
C438 H425 0.930 . S
C438 C437 1.376 . S
C438 C439 1.388 . S
C439 H426 0.930 . S
C439 C438 1.388 . S
C439 C440 1.390 . S
C440 C439 1.390 . S
C440 C441 1.394 . S
C440 C446 1.465 . S
C441 C436 1.399 . S
C441 C440 1.394 . S
C441 C442 1.516 . S
C442 C441 1.516 . S
C442 C443 1.502 . S
C442 C444 1.561 . S
C442 C445 1.526 . S
C443 H427 0.959 . S
C443 H428 0.959 . S
C443 H429 0.961 . S
C443 C442 1.502 . S
C444 H430 0.960 . S
C444 H431 0.961 . S
C444 H432 0.959 . S
C444 C442 1.561 . S
C445 C442 1.526 . S
C445 C446 1.396 . S
C445 C450 1.390 . S
C446 C440 1.465 . S
C446 C445 1.396 . S
C446 C447 1.399 . S
C447 H433 0.929 . S
C447 C446 1.399 . S
C447 C448 1.385 . S
C448 H434 0.931 . S
C448 C447 1.385 . S
C448 C449 1.389 . S
C449 C448 1.389 . S
C449 C450 1.387 . S
C450 H435 0.930 . S
C450 C445 1.390 . S
C450 C449 1.387 . S
H451 C463 0.930 . S
H452 C465 0.930 . S
H453 C466 0.930 . S
H454 C470 0.959 . S
H455 C470 0.959 . S
H456 C470 0.961 . S
H457 C471 0.960 . S
H458 C471 0.961 . S
H459 C471 0.959 . S
H460 C474 0.929 . S
H461 C475 0.931 . S
H462 C477 0.930 . S
C463 H451 0.930 . S
C463 C464 1.399 . S
C463 C468 1.399 . S
C464 C463 1.399 . S
C464 C465 1.376 . S
C465 H452 0.930 . S
C465 C464 1.376 . S
C465 C466 1.388 . S
C466 H453 0.930 . S
C466 C465 1.388 . S
C466 C467 1.390 . S
C467 C466 1.390 . S
C467 C468 1.394 . S
C467 C473 1.465 . S
C468 C463 1.399 . S
C468 C467 1.394 . S
C468 C469 1.516 . S
C469 C468 1.516 . S
C469 C470 1.502 . S
C469 C471 1.561 . S
C469 C472 1.526 . S
C470 H454 0.959 . S
C470 H455 0.959 . S
C470 H456 0.961 . S
C470 C469 1.502 . S
C471 H457 0.960 . S
C471 H458 0.961 . S
C471 H459 0.959 . S
C471 C469 1.561 . S
C472 C469 1.526 . S
C472 C473 1.396 . S
C472 C477 1.390 . S
C473 C467 1.465 . S
C473 C472 1.396 . S
C473 C474 1.399 . S
C474 H460 0.929 . S
C474 C473 1.399 . S
C474 C475 1.385 . S
C475 H461 0.931 . S
C475 C474 1.385 . S
C475 C476 1.389 . S
C476 C475 1.389 . S
C476 C477 1.387 . S
C477 H462 0.930 . S
C477 C472 1.390 . S
C477 C476 1.387 . S
H478 C490 0.930 . S
H479 C492 0.930 . S
H480 C493 0.930 . S
H481 C497 0.959 . S
H482 C497 0.959 . S
H483 C497 0.961 . S
H484 C498 0.960 . S
H485 C498 0.961 . S
H486 C498 0.959 . S
H487 C501 0.929 . S
H488 C502 0.931 . S
H489 C504 0.930 . S
C490 H478 0.930 . S
C490 C491 1.399 . S
C490 C495 1.399 . S
C491 C490 1.399 . S
C491 C492 1.376 . S
C492 H479 0.930 . S
C492 C491 1.376 . S
C492 C493 1.388 . S
C493 H480 0.930 . S
C493 C492 1.388 . S
C493 C494 1.390 . S
C494 C493 1.390 . S
C494 C495 1.394 . S
C494 C500 1.465 . S
C495 C490 1.399 . S
C495 C494 1.394 . S
C495 C496 1.516 . S
C496 C495 1.516 . S
C496 C497 1.502 . S
C496 C498 1.561 . S
C496 C499 1.526 . S
C497 H481 0.959 . S
C497 H482 0.959 . S
C497 H483 0.961 . S
C497 C496 1.502 . S
C498 H484 0.960 . S
C498 H485 0.961 . S
C498 H486 0.959 . S
C498 C496 1.561 . S
C499 C496 1.526 . S
C499 C500 1.396 . S
C499 C504 1.390 . S
C500 C494 1.465 . S
C500 C499 1.396 . S
C500 C501 1.399 . S
C501 H487 0.929 . S
C501 C500 1.399 . S
C501 C502 1.385 . S
C502 H488 0.931 . S
C502 C501 1.385 . S
C502 C503 1.389 . S
C503 C502 1.389 . S
C503 C504 1.387 . S
C504 H489 0.930 . S
C504 C499 1.390 . S
C504 C503 1.387 . S
H505 C517 0.930 . S
H506 C519 0.930 . S
H507 C520 0.930 . S
H508 C524 0.959 . S
H509 C524 0.959 . S
H510 C524 0.961 . S
H511 C525 0.960 . S
H512 C525 0.961 . S
H513 C525 0.959 . S
H514 C528 0.929 . S
H515 C529 0.931 . S
H516 C531 0.930 . S
C517 H505 0.930 . S
C517 C518 1.399 . S
C517 C522 1.399 . S
C518 C517 1.399 . S
C518 C519 1.376 . S
C519 H506 0.930 . S
C519 C518 1.376 . S
C519 C520 1.388 . S
C520 H507 0.930 . S
C520 C519 1.388 . S
C520 C521 1.390 . S
C521 C520 1.390 . S
C521 C522 1.394 . S
C521 C527 1.465 . S
C522 C517 1.399 . S
C522 C521 1.394 . S
C522 C523 1.516 . S
C523 C522 1.516 . S
C523 C524 1.502 . S
C523 C525 1.561 . S
C523 C526 1.526 . S
C524 H508 0.959 . S
C524 H509 0.959 . S
C524 H510 0.961 . S
C524 C523 1.502 . S
C525 H511 0.960 . S
C525 H512 0.961 . S
C525 H513 0.959 . S
C525 C523 1.561 . S
C526 C523 1.526 . S
C526 C527 1.396 . S
C526 C531 1.390 . S
C527 C521 1.465 . S
C527 C526 1.396 . S
C527 C528 1.399 . S
C528 H514 0.929 . S
C528 C527 1.399 . S
C528 C529 1.385 . S
C529 H515 0.931 . S
C529 C528 1.385 . S
C529 C530 1.389 . S
C530 C529 1.389 . S
C530 C531 1.387 . S
C531 H516 0.930 . S
C531 C526 1.390 . S
C531 C530 1.387 . S
H532 C544 0.930 . S
H533 C546 0.930 . S
H534 C547 0.930 . S
H535 C551 0.959 . S
H536 C551 0.959 . S
H537 C551 0.961 . S
H538 C552 0.960 . S
H539 C552 0.961 . S
H540 C552 0.959 . S
H541 C555 0.929 . S
H542 C556 0.931 . S
H543 C558 0.930 . S
C544 H532 0.930 . S
C544 C545 1.399 . S
C544 C549 1.399 . S
C545 C544 1.399 . S
C545 C546 1.376 . S
C546 H533 0.930 . S
C546 C545 1.376 . S
C546 C547 1.388 . S
C547 H534 0.930 . S
C547 C546 1.388 . S
C547 C548 1.390 . S
C548 C547 1.390 . S
C548 C549 1.394 . S
C548 C554 1.465 . S
C549 C544 1.399 . S
C549 C548 1.394 . S
C549 C550 1.516 . S
C550 C549 1.516 . S
C550 C551 1.502 . S
C550 C552 1.561 . S
C550 C553 1.526 . S
C551 H535 0.959 . S
C551 H536 0.959 . S
C551 H537 0.961 . S
C551 C550 1.502 . S
C552 H538 0.960 . S
C552 H539 0.961 . S
C552 H540 0.959 . S
C552 C550 1.561 . S
C553 C550 1.526 . S
C553 C554 1.396 . S
C553 C558 1.390 . S
C554 C548 1.465 . S
C554 C553 1.396 . S
C554 C555 1.399 . S
C555 H541 0.929 . S
C555 C554 1.399 . S
C555 C556 1.385 . S
C556 H542 0.931 . S
C556 C555 1.385 . S
C556 C557 1.389 . S
C557 C556 1.389 . S
C557 C558 1.387 . S
C558 H543 0.930 . S
C558 C553 1.390 . S
C558 C557 1.387 . S
H559 C571 0.930 . S
H560 C573 0.930 . S
H561 C574 0.930 . S
H562 C578 0.959 . S
H563 C578 0.959 . S
H564 C578 0.961 . S
H565 C579 0.960 . S
H566 C579 0.961 . S
H567 C579 0.959 . S
H568 C582 0.929 . S
H569 C583 0.931 . S
H570 C585 0.930 . S
C571 H559 0.930 . S
C571 C572 1.399 . S
C571 C576 1.399 . S
C572 C571 1.399 . S
C572 C573 1.376 . S
C573 H560 0.930 . S
C573 C572 1.376 . S
C573 C574 1.388 . S
C574 H561 0.930 . S
C574 C573 1.388 . S
C574 C575 1.390 . S
C575 C574 1.390 . S
C575 C576 1.394 . S
C575 C581 1.465 . S
C576 C571 1.399 . S
C576 C575 1.394 . S
C576 C577 1.516 . S
C577 C576 1.516 . S
C577 C578 1.502 . S
C577 C579 1.561 . S
C577 C580 1.526 . S
C578 H562 0.959 . S
C578 H563 0.959 . S
C578 H564 0.961 . S
C578 C577 1.502 . S
C579 H565 0.960 . S
C579 H566 0.961 . S
C579 H567 0.959 . S
C579 C577 1.561 . S
C580 C577 1.526 . S
C580 C581 1.396 . S
C580 C585 1.390 . S
C581 C575 1.465 . S
C581 C580 1.396 . S
C581 C582 1.399 . S
C582 H568 0.929 . S
C582 C581 1.399 . S
C582 C583 1.385 . S
C583 H569 0.931 . S
C583 C582 1.385 . S
C583 C584 1.389 . S
C584 C583 1.389 . S
C584 C585 1.387 . S
C585 H570 0.930 . S
C585 C580 1.390 . S
C585 C584 1.387 . S
H586 C598 0.930 . S
H587 C600 0.930 . S
H588 C601 0.930 . S
H589 C605 0.959 . S
H590 C605 0.959 . S
H591 C605 0.961 . S
H592 C606 0.960 . S
H593 C606 0.961 . S
H594 C606 0.959 . S
H595 C609 0.929 . S
H596 C610 0.931 . S
H597 C612 0.930 . S
C598 H586 0.930 . S
C598 C599 1.399 . S
C598 C603 1.399 . S
C599 C598 1.399 . S
C599 C600 1.376 . S
C600 H587 0.930 . S
C600 C599 1.376 . S
C600 C601 1.388 . S
C601 H588 0.930 . S
C601 C600 1.388 . S
C601 C602 1.390 . S
C602 C601 1.390 . S
C602 C603 1.394 . S
C602 C608 1.465 . S
C603 C598 1.399 . S
C603 C602 1.394 . S
C603 C604 1.516 . S
C604 C603 1.516 . S
C604 C605 1.502 . S
C604 C606 1.561 . S
C604 C607 1.526 . S
C605 H589 0.959 . S
C605 H590 0.959 . S
C605 H591 0.961 . S
C605 C604 1.502 . S
C606 H592 0.960 . S
C606 H593 0.961 . S
C606 H594 0.959 . S
C606 C604 1.561 . S
C607 C604 1.526 . S
C607 C608 1.396 . S
C607 C612 1.390 . S
C608 C602 1.465 . S
C608 C607 1.396 . S
C608 C609 1.399 . S
C609 H595 0.929 . S
C609 C608 1.399 . S
C609 C610 1.385 . S
C610 H596 0.931 . S
C610 C609 1.385 . S
C610 C611 1.389 . S
C611 C610 1.389 . S
C611 C612 1.387 . S
C612 H597 0.930 . S
C612 C607 1.390 . S
C612 C611 1.387 . S
H613 C625 0.930 . S
H614 C627 0.930 . S
H615 C628 0.930 . S
H616 C632 0.959 . S
H617 C632 0.959 . S
H618 C632 0.961 . S
H619 C633 0.960 . S
H620 C633 0.961 . S
H621 C633 0.959 . S
H622 C636 0.929 . S
H623 C637 0.931 . S
H624 C639 0.930 . S
C625 H613 0.930 . S
C625 C626 1.399 . S
C625 C630 1.399 . S
C626 C625 1.399 . S
C626 C627 1.376 . S
C627 H614 0.930 . S
C627 C626 1.376 . S
C627 C628 1.388 . S
C628 H615 0.930 . S
C628 C627 1.388 . S
C628 C629 1.390 . S
C629 C628 1.390 . S
C629 C630 1.394 . S
C629 C635 1.465 . S
C630 C625 1.399 . S
C630 C629 1.394 . S
C630 C631 1.516 . S
C631 C630 1.516 . S
C631 C632 1.502 . S
C631 C633 1.561 . S
C631 C634 1.526 . S
C632 H616 0.959 . S
C632 H617 0.959 . S
C632 H618 0.961 . S
C632 C631 1.502 . S
C633 H619 0.960 . S
C633 H620 0.961 . S
C633 H621 0.959 . S
C633 C631 1.561 . S
C634 C631 1.526 . S
C634 C635 1.396 . S
C634 C639 1.390 . S
C635 C629 1.465 . S
C635 C634 1.396 . S
C635 C636 1.399 . S
C636 H622 0.929 . S
C636 C635 1.399 . S
C636 C637 1.385 . S
C637 H623 0.931 . S
C637 C636 1.385 . S
C637 C638 1.389 . S
C638 C637 1.389 . S
C638 C639 1.387 . S
C639 H624 0.930 . S
C639 C634 1.390 . S
C639 C638 1.387 . S
H640 C652 0.930 . S
H641 C654 0.930 . S
H642 C655 0.930 . S
H643 C659 0.959 . S
H644 C659 0.959 . S
H645 C659 0.961 . S
H646 C660 0.960 . S
H647 C660 0.961 . S
H648 C660 0.959 . S
H649 C663 0.929 1_554 S
H650 C664 0.931 . S
H651 C666 0.930 . S
C652 H640 0.930 . S
C652 C653 1.399 1_556 S
C652 C657 1.399 . S
C653 C652 1.399 1_554 S
C653 C654 1.376 . S
C654 H641 0.930 . S
C654 C653 1.376 . S
C654 C655 1.388 . S
C655 H642 0.930 . S
C655 C654 1.388 . S
C655 C656 1.390 1_554 S
C656 C655 1.390 1_556 S
C656 C657 1.394 . S
C656 C662 1.465 . S
C657 C652 1.399 . S
C657 C656 1.394 . S
C657 C658 1.516 . S
C658 C657 1.516 . S
C658 C659 1.502 . S
C658 C660 1.561 . S
C658 C661 1.526 . S
C659 H643 0.959 . S
C659 H644 0.959 . S
C659 H645 0.961 . S
C659 C658 1.502 . S
C660 H646 0.960 . S
C660 H647 0.961 . S
C660 H648 0.959 . S
C660 C658 1.561 . S
C661 C658 1.526 . S
C661 C662 1.396 . S
C661 C666 1.390 . S
C662 C656 1.465 . S
C662 C661 1.396 . S
C662 C663 1.399 . S
C663 H649 0.929 1_556 S
C663 C662 1.399 . S
C663 C664 1.385 . S
C664 H650 0.931 . S
C664 C663 1.385 . S
C664 C665 1.389 . S
C665 C664 1.389 . S
C665 C666 1.387 . S
C666 H651 0.930 . S
C666 C661 1.390 . S
C666 C665 1.387 . S
H667 C679 0.930 . S
H668 C681 0.930 . S
H669 C682 0.930 . S
H670 C686 0.959 . S
H671 C686 0.959 . S
H672 C686 0.961 . S
H673 C687 0.960 . S
H674 C687 0.961 . S
H675 C687 0.959 . S
H676 C690 0.929 . S
H677 C691 0.931 . S
H678 C693 0.930 1_556 S
C679 H667 0.930 . S
C679 C680 1.399 . S
C679 C684 1.399 . S
C680 C679 1.399 . S
C680 C681 1.376 . S
C681 H668 0.930 . S
C681 C680 1.376 . S
C681 C682 1.388 . S
C682 H669 0.930 . S
C682 C681 1.388 . S
C682 C683 1.390 . S
C683 C682 1.390 . S
C683 C684 1.394 . S
C683 C689 1.465 . S
C684 C679 1.399 . S
C684 C683 1.394 . S
C684 C685 1.516 . S
C685 C684 1.516 . S
C685 C686 1.502 . S
C685 C687 1.561 1_554 S
C685 C688 1.526 . S
C686 H670 0.959 . S
C686 H671 0.959 . S
C686 H672 0.961 . S
C686 C685 1.502 . S
C687 H673 0.960 . S
C687 H674 0.961 . S
C687 H675 0.959 . S
C687 C685 1.561 1_556 S
C688 C685 1.526 . S
C688 C689 1.396 . S
C688 C693 1.390 . S
C689 C683 1.465 . S
C689 C688 1.396 . S
C689 C690 1.399 . S
C690 H676 0.929 . S
C690 C689 1.399 . S
C690 C691 1.385 . S
C691 H677 0.931 . S
C691 C690 1.385 . S
C691 C692 1.389 . S
C692 C691 1.389 . S
C692 C693 1.387 . S
C693 H678 0.930 1_554 S
C693 C688 1.390 . S
C693 C692 1.387 . S
H694 C706 0.930 . S
H695 C708 0.930 . S
H696 C709 0.930 . S
H697 C713 0.959 . S
H698 C713 0.959 . S
H699 C713 0.961 . S
H700 C714 0.960 . S
H701 C714 0.961 . S
H702 C714 0.959 . S
H703 C717 0.929 . S
H704 C718 0.931 . S
H705 C720 0.930 . S
C706 H694 0.930 . S
C706 C707 1.399 . S
C706 C711 1.380 1_554 S
C707 C706 1.399 . S
C707 C708 1.376 1_554 S
C708 H695 0.930 . S
C708 C707 1.376 1_556 S
C708 C709 1.388 . S
C709 H696 0.930 . S
C709 C708 1.388 . S
C709 C710 1.390 . S
C710 C709 1.390 . S
C710 C711 1.428 . S
C710 C716 1.465 . S
C711 C706 1.380 1_556 S
C711 C710 1.428 . S
C711 C712 1.506 1_556 S
C712 C711 1.506 1_554 S
C712 C713 1.502 . S
C712 C714 1.561 . S
C712 C715 1.526 1_554 S
C713 H697 0.959 . S
C713 H698 0.959 . S
C713 H699 0.961 . S
C713 C712 1.502 . S
C714 H700 0.960 . S
C714 H701 0.961 . S
C714 H702 0.959 . S
C714 C712 1.561 . S
C715 C712 1.526 1_556 S
C715 C716 1.396 . S
C715 C720 1.390 . S
C716 C710 1.465 . S
C716 C715 1.396 . S
C716 C717 1.399 . S
C717 H703 0.929 . S
C717 C716 1.399 . S
C717 C718 1.385 . S
C718 H704 0.931 . S
C718 C717 1.385 . S
C718 C719 1.389 . S
C719 C718 1.389 . S
C719 C720 1.387 . S
C720 H705 0.930 . S
C720 C715 1.390 . S
C720 C719 1.387 . S
H721 C733 0.930 . S
H722 C735 0.930 . S
H723 C736 0.930 . S
H724 C740 0.959 . S
H725 C740 0.959 . S
H726 C740 0.961 . S
H727 C741 0.960 . S
H728 C741 0.961 . S
H729 C741 0.959 . S
H730 C744 0.929 . S
H731 C745 0.931 . S
H732 C747 0.930 . S
C733 H721 0.930 . S
C733 C734 1.399 . S
C733 C738 1.399 . S
C734 C733 1.399 . S
C734 C735 1.376 . S
C735 H722 0.930 . S
C735 C734 1.376 . S
C735 C736 1.388 . S
C736 H723 0.930 . S
C736 C735 1.388 . S
C736 C737 1.390 . S
C737 C736 1.390 . S
C737 C738 1.394 . S
C737 C743 1.465 . S
C738 C733 1.399 . S
C738 C737 1.394 . S
C738 C739 1.516 . S
C739 C738 1.516 . S
C739 C740 1.502 . S
C739 C741 1.561 1_554 S
C739 C742 1.526 . S
C740 H724 0.959 . S
C740 H725 0.959 . S
C740 H726 0.961 . S
C740 C739 1.502 . S
C741 H727 0.960 . S
C741 H728 0.961 . S
C741 H729 0.959 . S
C741 C739 1.561 1_556 S
C742 C739 1.526 . S
C742 C743 1.396 . S
C742 C747 1.390 . S
C743 C737 1.465 . S
C743 C742 1.396 . S
C743 C744 1.399 . S
C744 H730 0.929 . S
C744 C743 1.399 . S
C744 C745 1.385 . S
C745 H731 0.931 . S
C745 C744 1.385 . S
C745 C746 1.389 . S
C746 C745 1.389 . S
C746 C747 1.387 . S
C747 H732 0.930 . S
C747 C742 1.390 . S
C747 C746 1.387 . S
H748 C760 0.932 . S
H749 C762 0.930 . S
H750 C763 0.930 . S
H751 C767 0.959 . S
H752 C767 0.959 . S
H753 C767 0.961 . S
H754 C768 0.960 . S
H755 C768 0.961 . S
H756 C768 0.959 . S
H757 C771 0.929 . S
H758 C772 0.933 . S
H759 C774 0.930 . S
C760 H748 0.932 . S
C760 C761 1.399 . S
C760 C765 1.399 . S
C761 C760 1.399 . S
C761 C762 1.376 . S
C762 H749 0.930 . S
C762 C761 1.376 . S
C762 C763 1.388 . S
C763 H750 0.930 . S
C763 C762 1.388 . S
C763 C764 1.390 . S
C764 C763 1.390 . S
C764 C765 1.394 . S
C764 C770 1.465 . S
C765 C760 1.399 . S
C765 C764 1.394 . S
C765 C766 1.516 1_455 S
C766 C765 1.516 1_655 S
C766 C767 1.502 . S
C766 C768 1.561 1_655 S
C766 C769 1.526 . S
C767 H751 0.959 . S
C767 H752 0.959 . S
C767 H753 0.961 . S
C767 C766 1.502 . S
C768 H754 0.960 . S
C768 H755 0.961 . S
C768 H756 0.959 . S
C768 C766 1.561 1_455 S
C769 C766 1.526 . S
C769 C770 1.396 1_655 S
C769 C774 1.390 . S
C770 C764 1.465 . S
C770 C769 1.396 1_455 S
C770 C771 1.399 . S
C771 H757 0.929 . S
C771 C770 1.399 . S
C771 C772 1.385 1_455 S
C772 H758 0.933 . S
C772 C771 1.385 1_655 S
C772 C773 1.389 . S
C773 C772 1.389 . S
C773 C774 1.387 . S
C774 H759 0.930 . S
C774 C769 1.390 . S
C774 C773 1.387 . S
H775 C787 0.930 . S
H776 C789 0.930 . S
H777 C790 0.930 . S
H778 C794 0.959 . S
H779 C794 0.959 . S
H780 C794 0.961 . S
H781 C795 0.960 . S
H782 C795 0.961 . S
H783 C795 0.959 . S
H784 C798 0.927 1_545 S
H785 C799 0.931 . S
H786 C801 0.930 . S
C787 H775 0.930 . S
C787 C788 1.399 . S
C787 C792 1.399 . S
C788 C787 1.399 . S
C788 C789 1.376 . S
C789 H776 0.930 . S
C789 C788 1.376 . S
C789 C790 1.388 . S
C790 H777 0.930 . S
C790 C789 1.388 . S
C790 C791 1.390 . S
C791 C790 1.390 . S
C791 C792 1.394 . S
C791 C797 1.468 . S
C792 C787 1.399 . S
C792 C791 1.394 . S
C792 C793 1.516 . S
C793 C792 1.516 . S
C793 C794 1.502 1_545 S
C793 C795 1.561 . S
C793 C796 1.526 1_545 S
C794 H778 0.959 . S
C794 H779 0.959 . S
C794 H780 0.961 . S
C794 C793 1.502 1_565 S
C795 H781 0.960 . S
C795 H782 0.961 . S
C795 H783 0.959 . S
C795 C793 1.561 . S
C796 C793 1.526 1_565 S
C796 C797 1.394 1_565 S
C796 C801 1.390 . S
C797 C791 1.468 . S
C797 C796 1.394 1_545 S
C797 C798 1.398 1_545 S
C798 H784 0.927 1_565 S
C798 C797 1.398 1_565 S
C798 C799 1.385 . S
C799 H785 0.931 . S
C799 C798 1.385 . S
C799 C800 1.389 . S
C800 C799 1.389 . S
C800 C801 1.387 . S
C801 H786 0.930 . S
C801 C796 1.390 . S
C801 C800 1.387 . S
H802 C814 0.930 . S
H803 C816 0.930 . S
H804 C817 0.930 . S
H805 C821 0.959 . S
H806 C821 0.959 . S
H807 C821 0.961 1_545 S
H808 C822 0.960 . S
H809 C822 0.961 1_565 S
H810 C822 0.959 . S
H811 C825 0.929 . S
H812 C826 0.931 . S
H813 C828 0.930 . S
C814 H802 0.930 . S
C814 C815 1.399 . S
C814 C819 1.399 . S
C815 C814 1.399 . S
C815 C816 1.376 . S
C816 H803 0.930 . S
C816 C815 1.376 . S
C816 C817 1.388 . S
C817 H804 0.930 . S
C817 C816 1.388 . S
C817 C818 1.390 . S
C818 C817 1.390 . S
C818 C819 1.394 . S
C818 C824 1.465 1_545 S
C819 C814 1.399 . S
C819 C818 1.394 . S
C819 C820 1.516 1_545 S
C820 C819 1.516 1_565 S
C820 C821 1.502 . S
C820 C822 1.561 1_565 S
C820 C823 1.526 . S
C821 H805 0.959 . S
C821 H806 0.959 . S
C821 H807 0.961 1_565 S
C821 C820 1.502 . S
C822 H808 0.960 . S
C822 H809 0.961 1_545 S
C822 H810 0.959 . S
C822 C820 1.561 1_545 S
C823 C820 1.526 . S
C823 C824 1.396 . S
C823 C828 1.390 . S
C824 C818 1.465 1_565 S
C824 C823 1.396 . S
C824 C825 1.399 . S
C825 H811 0.929 . S
C825 C824 1.399 . S
C825 C826 1.385 . S
C826 H812 0.931 . S
C826 C825 1.385 . S
C826 C827 1.389 . S
C827 C826 1.389 . S
C827 C828 1.387 . S
C828 H813 0.930 . S
C828 C823 1.390 . S
C828 C827 1.387 . S
H829 C841 0.930 . S
H830 C843 0.930 . S
H831 C844 0.930 . S
H832 C848 0.959 . S
H833 C848 0.959 . S
H834 C848 0.961 1_455 S
H835 C849 0.960 . S
H836 C849 0.961 1_655 S
H837 C849 0.959 . S
H838 C852 0.929 . S
H839 C853 0.931 . S
H840 C855 0.930 . S
C841 H829 0.930 . S
C841 C842 1.399 . S
C841 C846 1.399 . S
C842 C841 1.399 . S
C842 C843 1.376 . S
C843 H830 0.930 . S
C843 C842 1.376 . S
C843 C844 1.388 . S
C844 H831 0.930 . S
C844 C843 1.388 . S
C844 C845 1.390 . S
C845 C844 1.390 . S
C845 C846 1.394 . S
C845 C851 1.465 1_455 S
C846 C841 1.399 . S
C846 C845 1.394 . S
C846 C847 1.516 1_455 S
C847 C846 1.516 1_655 S
C847 C848 1.502 . S
C847 C849 1.561 1_655 S
C847 C850 1.526 . S
C848 H832 0.959 . S
C848 H833 0.959 . S
C848 H834 0.961 1_655 S
C848 C847 1.502 . S
C849 H835 0.960 . S
C849 H836 0.961 1_455 S
C849 H837 0.959 . S
C849 C847 1.561 1_455 S
C850 C847 1.526 . S
C850 C851 1.396 . S
C850 C855 1.390 . S
C851 C845 1.465 1_655 S
C851 C850 1.396 . S
C851 C852 1.399 . S
C852 H838 0.929 . S
C852 C851 1.399 . S
C852 C853 1.385 . S
C853 H839 0.931 . S
C853 C852 1.385 . S
C853 C854 1.389 . S
C854 C853 1.389 . S
C854 C855 1.387 . S
C855 H840 0.930 . S
C855 C850 1.390 . S
C855 C854 1.387 . S
C437 C393 1.803 . S
C449 C38 1.763 . S
C464 C82 1.965 . S
C476 C234 2.005 . S
C491 C144 1.771 . S
C503 C287 1.803 . S
C518 C340 2.025 . S
C530 C188 1.940 . S
C545 C75 1.813 . S
C557 C22 1.810 . S
C572 C92 1.817 . S
C584 C145 1.829 . S
C599 C181 1.814 . S
C611 C128 1.812 . S
C626 C198 1.787 . S
C638 C39 1.810 . S
C653 C400 1.932 . S
C665 C250 1.921 . S
C680 C303 2.065 . S
C692 C241 2.037 1_554 S
C707 C294 1.957 . S
C719 C356 1.955 . S
C734 C347 2.033 1_554 S
C746 C409 2.037 . S
C761 C135 1.871 . S
C773 C29 1.842 . S
C788 C197 2.061 . S
C800 C91 2.070 . S
C815 C357 2.447 . S
C827 C251 2.466 . S
C842 C410 2.085 . S
C854 C304 2.067 . S
