# Generated by pormake.
# Topology bcs, (6)-cn, num edge types: 1
# Building blocks:
#     Node 0, Type 0, BuildingBlock: BETDIP_clean_sbu_0, # of connection points: 6
#     Node 1, Type 0, BuildingBlock: BETDIP_clean_sbu_0, # of connection points: 6
#     Node 2, Type 0, BuildingBlock: BETDIP_clean_sbu_0, # of connection points: 6
#     Node 3, Type 0, BuildingBlock: BETDIP_clean_sbu_0, # of connection points: 6
#     Node 4, Type 0, BuildingBlock: BETDIP_clean_sbu_0, # of connection points: 6
#     Node 5, Type 0, BuildingBlock: BETDIP_clean_sbu_0, # of connection points: 6
#     Node 6, Type 0, BuildingBlock: BETDIP_clean_sbu_0, # of connection points: 6
#     Node 7, Type 0, BuildingBlock: BETDIP_clean_sbu_0, # of connection points: 6
#     Node 8, Type 0, BuildingBlock: BETDIP_clean_sbu_0, # of connection points: 6
#     Node 9, Type 0, BuildingBlock: BETDIP_clean_sbu_0, # of connection points: 6
#     Node 10, Type 0, BuildingBlock: BETDIP_clean_sbu_0, # of connection points: 6
#     Node 11, Type 0, BuildingBlock: BETDIP_clean_sbu_0, # of connection points: 6
#     Node 12, Type 0, BuildingBlock: BETDIP_clean_sbu_0, # of connection points: 6
#     Node 13, Type 0, BuildingBlock: BETDIP_clean_sbu_0, # of connection points: 6
#     Node 14, Type 0, BuildingBlock: BETDIP_clean_sbu_0, # of connection points: 6
#     Node 15, Type 0, BuildingBlock: BETDIP_clean_sbu_0, # of connection points: 6
#     Edge 16, Type (0, 0), BuildingBlock: ZUJKAS_clean_linker_0, # of connection points: 2
#     Edge 17, Type (0, 0), BuildingBlock: ZUJKAS_clean_linker_0, # of connection points: 2
#     Edge 18, Type (0, 0), BuildingBlock: ZUJKAS_clean_linker_0, # of connection points: 2
#     Edge 19, Type (0, 0), BuildingBlock: ZUJKAS_clean_linker_0, # of connection points: 2
#     Edge 20, Type (0, 0), BuildingBlock: ZUJKAS_clean_linker_0, # of connection points: 2
#     Edge 21, Type (0, 0), BuildingBlock: ZUJKAS_clean_linker_0, # of connection points: 2
#     Edge 22, Type (0, 0), BuildingBlock: ZUJKAS_clean_linker_0, # of connection points: 2
#     Edge 23, Type (0, 0), BuildingBlock: ZUJKAS_clean_linker_0, # of connection points: 2
#     Edge 24, Type (0, 0), BuildingBlock: ZUJKAS_clean_linker_0, # of connection points: 2
#     Edge 25, Type (0, 0), BuildingBlock: ZUJKAS_clean_linker_0, # of connection points: 2
#     Edge 26, Type (0, 0), BuildingBlock: ZUJKAS_clean_linker_0, # of connection points: 2
#     Edge 27, Type (0, 0), BuildingBlock: ZUJKAS_clean_linker_0, # of connection points: 2
#     Edge 28, Type (0, 0), BuildingBlock: ZUJKAS_clean_linker_0, # of connection points: 2
#     Edge 29, Type (0, 0), BuildingBlock: ZUJKAS_clean_linker_0, # of connection points: 2
#     Edge 30, Type (0, 0), BuildingBlock: ZUJKAS_clean_linker_0, # of connection points: 2
#     Edge 31, Type (0, 0), BuildingBlock: ZUJKAS_clean_linker_0, # of connection points: 2
#     Edge 32, Type (0, 0), BuildingBlock: ZUJKAS_clean_linker_0, # of connection points: 2
#     Edge 33, Type (0, 0), BuildingBlock: ZUJKAS_clean_linker_0, # of connection points: 2
#     Edge 34, Type (0, 0), BuildingBlock: ZUJKAS_clean_linker_0, # of connection points: 2
#     Edge 35, Type (0, 0), BuildingBlock: ZUJKAS_clean_linker_0, # of connection points: 2
#     Edge 36, Type (0, 0), BuildingBlock: ZUJKAS_clean_linker_0, # of connection points: 2
#     Edge 37, Type (0, 0), BuildingBlock: ZUJKAS_clean_linker_0, # of connection points: 2
#     Edge 38, Type (0, 0), BuildingBlock: ZUJKAS_clean_linker_0, # of connection points: 2
#     Edge 39, Type (0, 0), BuildingBlock: ZUJKAS_clean_linker_0, # of connection points: 2
#     Edge 40, Type (0, 0), BuildingBlock: ZUJKAS_clean_linker_0, # of connection points: 2
#     Edge 41, Type (0, 0), BuildingBlock: ZUJKAS_clean_linker_0, # of connection points: 2
#     Edge 42, Type (0, 0), BuildingBlock: ZUJKAS_clean_linker_0, # of connection points: 2
#     Edge 43, Type (0, 0), BuildingBlock: ZUJKAS_clean_linker_0, # of connection points: 2
#     Edge 44, Type (0, 0), BuildingBlock: ZUJKAS_clean_linker_0, # of connection points: 2
#     Edge 45, Type (0, 0), BuildingBlock: ZUJKAS_clean_linker_0, # of connection points: 2
#     Edge 46, Type (0, 0), BuildingBlock: ZUJKAS_clean_linker_0, # of connection points: 2
#     Edge 47, Type (0, 0), BuildingBlock: ZUJKAS_clean_linker_0, # of connection points: 2
#     Edge 48, Type (0, 0), BuildingBlock: ZUJKAS_clean_linker_0, # of connection points: 2
#     Edge 49, Type (0, 0), BuildingBlock: ZUJKAS_clean_linker_0, # of connection points: 2
#     Edge 50, Type (0, 0), BuildingBlock: ZUJKAS_clean_linker_0, # of connection points: 2
#     Edge 51, Type (0, 0), BuildingBlock: ZUJKAS_clean_linker_0, # of connection points: 2
#     Edge 52, Type (0, 0), BuildingBlock: ZUJKAS_clean_linker_0, # of connection points: 2
#     Edge 53, Type (0, 0), BuildingBlock: ZUJKAS_clean_linker_0, # of connection points: 2
#     Edge 54, Type (0, 0), BuildingBlock: ZUJKAS_clean_linker_0, # of connection points: 2
#     Edge 55, Type (0, 0), BuildingBlock: ZUJKAS_clean_linker_0, # of connection points: 2
#     Edge 56, Type (0, 0), BuildingBlock: ZUJKAS_clean_linker_0, # of connection points: 2
#     Edge 57, Type (0, 0), BuildingBlock: ZUJKAS_clean_linker_0, # of connection points: 2
#     Edge 58, Type (0, 0), BuildingBlock: ZUJKAS_clean_linker_0, # of connection points: 2
#     Edge 59, Type (0, 0), BuildingBlock: ZUJKAS_clean_linker_0, # of connection points: 2
#     Edge 60, Type (0, 0), BuildingBlock: ZUJKAS_clean_linker_0, # of connection points: 2
#     Edge 61, Type (0, 0), BuildingBlock: ZUJKAS_clean_linker_0, # of connection points: 2
#     Edge 62, Type (0, 0), BuildingBlock: ZUJKAS_clean_linker_0, # of connection points: 2
#     Edge 63, Type (0, 0), BuildingBlock: ZUJKAS_clean_linker_0, # of connection points: 2
# Relax obj value: 0.170
# Max RMSD: 0.223
# Mean RMSD: 0.184
data_MOF--net-bcs--node1-BETDIP_clean_sbu_0--edge1-ZUJKAS_clean_linker_0
_symmetry_space_group_name_H-M    P1
_symmetry_Int_Tables_number       1
_symmetry_cell_setting            triclinic
loop_
_symmetry_equiv_pos_as_xyz
'x, y, z'
_cell_length_a     53.729178
_cell_length_b     53.914759
_cell_length_c     48.717102
_cell_angle_alpha  75.454922
_cell_angle_beta   116.60783
_cell_angle_gamma 108.82289
loop_
_atom_site_label
_atom_site_type_symbol
_atom_site_fract_x
_atom_site_fract_y
_atom_site_fract_z
_atom_type_partial_charge
Tb0 Tb 1.02807 0.99776 0.99044 0.0
Tb1 Tb 0.05134 0.03332 0.02652 0.0
C2 C 1.01819 0.96323 0.95729 0.0
C3 C 1.03537 0.95313 0.9479 0.0
C4 C 0.06384 0.96646 0.95236 0.0
C5 C 0.08011 0.95584 0.94452 0.0
C6 C 0.06827 0.93163 0.93214 0.0
C7 C 1.03963 0.91856 0.92749 0.0
C8 C 1.02342 0.92919 0.93532 0.0
C9 C 0.99966 0.98216 0.03043 0.0
C10 C 0.08526 0.99253 0.0462 0.0
C11 C 0.06155 0.06784 0.05981 0.0
C12 C 0.04463 0.07626 0.07115 0.0
C13 C 1.01677 0.06165 0.06777 0.0
C14 C 1.00056 0.07061 0.07743 0.0
C15 C 1.0119 0.09436 0.09069 0.0
C16 C 1.03994 0.10877 0.09415 0.0
C17 C 0.05608 0.09981 0.08445 0.0
C18 C 0.07962 0.04885 0.98639 0.0
C19 C 0.99348 0.0381 0.97144 0.0
O20 O 1.01589 0.98741 0.94644 0.0
O21 O 1.02315 0.95831 0.98654 0.0
O22 O 1.02682 0.99261 0.03705 0.0
O23 O 0.98874 0.98212 1.00071 0.0
O24 O 0.07132 0.99112 0.01645 0.0
O25 O 0.07838 1.00706 0.05823 0.0
O26 O 0.06612 0.04435 0.07079 0.0
O27 O 0.05426 0.07232 0.03007 0.0
O28 O 0.05247 0.03851 0.97991 0.0
O29 O 0.09062 0.04887 0.0161 0.0
O30 O 1.00814 0.04 1.00104 0.0
O31 O 0.99972 0.02316 0.95922 0.0
H32 H 0.07356 0.98493 0.96219 0.0
H33 H 0.10214 0.96634 0.94874 0.0
H34 H 1.02961 0.90012 0.9176 0.0
H35 H 1.00152 0.91857 0.93172 0.0
H36 H 1.0075 0.0434 0.05751 0.0
H37 H 0.97922 0.05882 0.07471 0.0
H38 H 0.04926 0.12732 0.10377 0.0
H39 H 0.07745 0.11147 0.08702 0.0
Tb40 Tb 0.2647 0.74865 0.26268 0.0
Tb41 Tb 0.31788 0.7849 0.25536 0.0
C42 C 0.22424 0.70868 0.26003 0.0
C43 C 0.22257 0.68043 0.27176 0.0
C44 C 0.2127 0.66193 0.25109 0.0
C45 C 0.20884 0.63491 0.26169 0.0
C46 C 0.2144 0.6259 0.29311 0.0
C47 C 0.22603 0.64471 0.31393 0.0
C48 C 0.23011 0.6716 0.3034 0.0
C49 C 0.29714 0.78018 0.30535 0.0
C50 C 0.32339 0.72891 0.291 0.0
C51 C 0.35837 0.82458 0.25612 0.0
C52 C 0.35888 0.8514 0.23983 0.0
C53 C 0.38245 0.87222 0.25186 0.0
C54 C 0.38336 0.89766 0.23575 0.0
C55 C 0.36051 0.90263 0.20752 0.0
C56 C 0.3362 0.88187 0.19659 0.0
C57 C 0.33554 0.85642 0.21244 0.0
C58 C 0.28489 0.75356 0.21246 0.0
C59 C 0.25904 0.80476 0.22794 0.0
O60 O 0.23397 0.71779 0.23825 0.0
O61 O 0.2345 0.7251 0.28053 0.0
O62 O 0.30547 0.7685 0.29291 0.0
O63 O 0.26935 0.77289 0.29553 0.0
O64 O 0.29505 0.72282 0.28193 0.0
O65 O 0.33785 0.75345 0.28615 0.0
O66 O 0.34672 0.8183 0.2762 0.0
O67 O 0.34965 0.80591 0.23874 0.0
O68 O 0.27707 0.76542 0.22517 0.0
O69 O 0.31265 0.7604 0.22231 0.0
O70 O 0.28725 0.81064 0.23589 0.0
O71 O 0.24465 0.7804 0.23354 0.0
H72 H 0.20711 0.66829 0.22656 0.0
H73 H 0.20021 0.62107 0.24505 0.0
H74 H 0.23013 0.6388 0.33821 0.0
H75 H 0.23807 0.68533 0.32002 0.0
H76 H 0.40047 0.86866 0.27322 0.0
H77 H 0.40262 0.91306 0.24463 0.0
H78 H 0.31809 0.88507 0.17518 0.0
H79 H 0.31706 0.84054 0.20292 0.0
Tb80 Tb 0.532 1.01424 0.53918 0.0
Tb81 Tb 0.54187 1.01439 0.48295 0.0
C82 C 0.53688 0.02078 0.59078 0.0
C83 C 0.52674 0.03807 0.60031 0.0
C84 C 0.54041 0.04416 0.63076 0.0
C85 C 0.53099 0.06081 0.63989 0.0
C86 C 0.50772 0.07159 0.61864 0.0
C87 C 0.49432 0.06563 0.588 0.0
C88 C 0.50379 0.04905 0.57891 0.0
C89 C 0.49359 0.97982 0.50168 0.0
C90 C 0.49945 0.0473 0.47879 0.0
C91 C 0.53788 1.00824 0.43159 0.0
C92 C 0.55118 0.99397 0.42189 0.0
C93 C 0.53463 0.98062 0.39574 0.0
C94 C 0.5467 0.96642 0.3866 0.0
C95 C 0.57562 0.96548 0.40339 0.0
C96 C 0.59214 0.97884 0.42967 0.0
C97 C 0.57998 0.99281 0.43897 0.0
C98 C 0.58026 0.04865 0.52077 0.0
C99 C 0.57422 0.98098 0.54351 0.0
O100 O 0.55623 0.03286 0.57939 0.0
O101 O 0.51693 1.00234 0.5745 0.0
O102 O 0.52024 0.98605 0.50898 0.0
O103 O 0.48766 0.99178 0.51719 0.0
O104 O 0.50992 0.04459 0.50935 0.0
O105 O 0.50715 0.03536 0.46406 0.0
O106 O 0.52041 0.99339 0.44454 0.0
O107 O 0.55481 0.02877 0.44605 0.0
O108 O 0.55358 0.04254 0.51315 0.0
O109 O 0.5863 0.03659 0.50546 0.0
O110 O 0.56525 0.98488 0.513 0.0
O111 O 0.56536 0.99188 0.55806 0.0
H112 H 0.55828 0.03595 0.64749 0.0
H113 H 0.54157 0.06485 0.66371 0.0
H114 H 0.47662 0.07392 0.57099 0.0
H115 H 0.49313 0.04475 0.5552 0.0
H116 H 0.51232 0.98112 0.38243 0.0
H117 H 0.53352 0.95646 0.36615 0.0
H118 H 0.61436 0.97817 0.44328 0.0
H119 H 0.59307 1.00261 0.45955 0.0
Tb120 Tb 0.3054 0.24415 0.76716 0.0
Tb121 Tb 0.27818 0.28772 0.75429 0.0
C122 C 0.31881 0.20656 0.75971 0.0
C123 C 0.33878 0.20135 0.75026 0.0
C124 C 0.35807 0.22189 0.74041 0.0
C125 C 0.37537 0.2161 0.72945 0.0
C126 C 0.37341 0.18973 0.72809 0.0
C127 C 0.35451 0.16932 0.73875 0.0
C128 C 0.33734 0.17511 0.74969 0.0
C129 C 0.33421 0.27923 0.80634 0.0
C130 C 0.3243 0.29964 0.7228 0.0
C131 C 0.264 0.3247 0.76183 0.0
C132 C 0.24366 0.32861 0.77187 0.0
C133 C 0.23834 0.31273 0.79728 0.0
C134 C 0.22103 0.3186 0.8081 0.0
C135 C 0.20878 0.34041 0.79366 0.0
C136 C 0.21326 0.35552 0.76745 0.0
C137 C 0.23061 0.34971 0.75675 0.0
C138 C 0.24977 0.25294 0.71486 0.0
C139 C 0.2589 0.23218 0.79828 0.0
O140 O 0.29923 0.21821 0.73797 0.0
O141 O 0.32979 0.21584 0.78621 0.0
O142 O 0.32063 0.28342 0.77761 0.0
O143 O 0.33386 0.25428 0.81414 0.0
O144 O 0.32501 0.27405 0.73417 0.0
O145 O 0.30794 0.3096 0.72946 0.0
O146 O 0.28476 0.31413 0.7831 0.0
O147 O 0.25306 0.31549 0.7353 0.0
O148 O 0.26297 0.24856 0.74365 0.0
O149 O 0.25024 0.27791 0.70717 0.0
O150 O 0.25849 0.25786 0.78724 0.0
O151 O 0.27517 0.22221 0.79151 0.0
H152 H 0.35938 0.24229 0.7407 0.0
H153 H 0.38966 0.23222 0.72126 0.0
H154 H 0.35289 0.14881 0.73852 0.0
H155 H 0.32258 0.15905 0.75729 0.0
H156 H 0.24815 0.29627 0.8093 0.0
H157 H 0.21814 0.30667 0.82844 0.0
H158 H 0.20366 0.37211 0.75542 0.0
H159 H 0.23437 0.36209 0.73702 0.0
Tb160 Tb 1.0158 0.99565 0.52072 0.0
Tb161 Tb 0.06346 0.03173 0.50273 0.0
C162 C 0.97956 0.95549 0.5301 0.0
C163 C 0.98127 0.93194 0.55316 0.0
C164 C 0.9623 0.90769 0.54454 0.0
C165 C 0.96201 0.88561 0.5668 0.0
C166 C 0.9805 0.88759 0.59813 0.0
C167 C 1.00083 0.91156 0.60625 0.0
C168 C 1.00131 0.93353 0.5839 0.0
C169 C 0.04994 0.03284 0.55631 0.0
C170 C 0.07642 0.98044 0.54604 0.0
C171 C 0.09934 0.0718 0.49246 0.0
C172 C 0.09619 0.09399 0.46775 0.0
C173 C 0.11945 0.11575 0.46963 0.0
C174 C 0.11748 0.13558 0.44457 0.0
C175 C 0.09215 0.13386 0.41731 0.0
C176 C 0.06828 0.11278 0.41639 0.0
C177 C 0.07033 0.09292 0.44142 0.0
C178 C 1.02934 0.99451 0.46719 0.0
C179 C 1.00286 0.047 0.47724 0.0
O180 O 0.99113 0.95745 0.51083 0.0
O181 O 0.98577 0.97789 0.54041 0.0
O182 O 0.05704 0.0197 0.54432 0.0
O183 O 1.02286 0.02391 0.5506 0.0
O184 O 0.04863 0.97253 0.54027 0.0
O185 O 0.08817 1.00503 0.53744 0.0
O186 O 0.08735 0.07038 0.51117 0.0
O187 O 0.09395 0.04895 0.48359 0.0
O188 O 1.02228 1.00771 0.47914 0.0
O189 O 0.05638 1.00351 0.47279 0.0
O190 O 1.03066 0.0548 0.48316 0.0
O191 O 0.99106 0.02252 0.48613 0.0
H192 H 0.94712 0.90602 0.52075 0.0
H193 H 0.94652 0.86728 0.55969 0.0
H194 H 1.01524 0.91389 0.63013 0.0
H195 H 1.01659 0.952 0.59088 0.0
H196 H 0.13949 0.11685 0.48992 0.0
H197 H 0.13642 0.15133 0.44587 0.0
H198 H 0.04845 0.11104 0.39583 0.0
H199 H 0.05211 0.0762 0.4397 0.0
Tb200 Tb 0.28571 0.76865 0.78778 0.0
Tb201 Tb 0.30305 0.76713 0.736 0.0
C202 C 0.28125 0.77689 0.83391 0.0
C203 C 0.26315 0.78918 0.83967 0.0
C204 C 0.27558 0.81299 0.85274 0.0
C205 C 0.25924 0.82481 0.85893 0.0
C206 C 0.23003 0.81303 0.85245 0.0
C207 C 0.21759 0.78912 0.83944 0.0
C208 C 0.23392 0.77736 0.83308 0.0
C209 C 0.25109 0.73429 0.74867 0.0
C210 C 0.25812 0.8004 0.72331 0.0
C211 C 0.30603 0.75836 0.68927 0.0
C212 C 0.32215 0.74426 0.68295 0.0
C213 C 0.32208 0.71755 0.69442 0.0
C214 C 0.33699 0.70464 0.68738 0.0
C215 C 0.3524 0.71813 0.66878 0.0
C216 C 0.35261 0.74494 0.65767 0.0
C217 C 0.33762 0.75777 0.66459 0.0
C218 C 0.33877 0.80078 0.77555 0.0
C219 C 0.33079 0.73561 0.80053 0.0
O220 O 0.29884 0.79296 0.82171 0.0
O221 O 0.26916 0.75447 0.82212 0.0
O222 O 0.27796 0.74051 0.75944 0.0
O223 O 0.24225 0.74643 0.76114 0.0
O224 O 0.26464 0.7976 0.75332 0.0
O225 O 0.26886 0.78876 0.71151 0.0
O226 O 0.28671 0.74401 0.70006 0.0
O227 O 0.321 0.77968 0.70285 0.0
O228 O 0.31182 0.79507 0.76528 0.0
O229 O 0.34654 0.78994 0.7607 0.0
O230 O 0.32334 0.73761 0.77037 0.0
O231 O 0.32096 0.74814 0.81245 0.0
H232 H 0.2981 0.82246 0.85838 0.0
H233 H 0.26969 0.84298 0.86937 0.0
H234 H 0.1951 0.77961 0.83386 0.0
H235 H 0.22361 0.75899 0.82305 0.0
H236 H 0.31036 0.70654 0.70867 0.0
H237 H 0.33601 0.68395 0.6961 0.0
H238 H 0.3646 0.75619 0.64379 0.0
H239 H 0.3381 0.77836 0.65551 0.0
Tb240 Tb 0.54077 0.99043 0.01676 0.0
Tb241 Tb 0.53904 0.04852 0.99553 0.0
C242 C 0.54127 0.94442 0.01502 0.0
C243 C 0.55623 0.93456 1.0022 0.0
C244 C 0.54027 0.91852 0.97827 0.0
C245 C 0.55404 0.91003 0.96502 0.0
C246 C 0.58416 0.91727 0.97552 0.0
C247 C 0.60008 0.93335 0.99947 0.0
C248 C 0.58632 0.94194 0.01258 0.0
C249 C 0.5793 0.02366 0.05544 0.0
C250 C 0.57214 0.02764 0.97234 0.0
C251 C 0.5385 0.09465 0.99699 0.0
C252 C 0.52421 0.10462 0.01047 0.0
C253 C 0.53903 0.12656 0.02689 0.0
C254 C 0.52606 0.13552 0.04069 0.0
C255 C 0.49792 0.12273 0.03835 0.0
C256 C 0.4832 0.10068 0.02194 0.0
C257 C 0.49618 0.09172 1.00822 0.0
C258 C 0.50061 1.01507 0.95695 0.0
C259 C 0.50727 1.0111 0.03944 0.0
O260 O 0.52111 0.95607 0.99472 0.0
O261 O 0.55729 0.95701 0.03933 0.0
O262 O 0.57061 0.02761 0.02642 0.0
O263 O 0.56773 0.99962 0.06409 0.0
O264 O 0.56043 1.0039 0.98317 0.0
O265 O 0.5699 0.04958 0.97771 0.0
O266 O 0.55908 0.08331 0.01686 0.0
O267 O 0.5217 0.08151 0.97326 0.0
O268 O 0.50935 1.01143 0.98594 0.0
O269 O 0.51217 0.03907 0.94814 0.0
O270 O 0.51967 0.03492 0.02948 0.0
O271 O 0.50919 0.98927 0.03349 0.0
H272 H 0.51707 0.91266 0.96966 0.0
H273 H 0.5411 0.8975 0.9468 0.0
H274 H 0.62324 0.93968 1.00779 0.0
H275 H 0.59933 0.95463 0.03063 0.0
H276 H 0.56072 0.13673 0.02916 0.0
H277 H 0.53798 0.15268 0.05289 0.0
H278 H 0.46177 0.08998 0.02014 0.0
H279 H 0.48436 0.07444 0.9962 0.0
Tb280 Tb 0.29198 0.25809 0.22803 0.0
Tb281 Tb 0.29374 0.27662 0.28431 0.0
C282 C 0.30363 0.25669 0.18385 0.0
C283 C 0.3215 0.24558 0.17663 0.0
C284 C 0.32086 0.2516 0.14667 0.0
C285 C 0.33649 0.24067 0.13841 0.0
C286 C 0.35317 0.22335 0.15994 0.0
C287 C 0.35438 0.21788 0.19034 0.0
C288 C 0.33863 0.22887 0.19861 0.0
C289 C 0.24586 0.23894 0.23959 0.0
C290 C 0.31427 0.22362 0.29262 0.0
C291 C 0.28318 0.28073 0.32825 0.0
C292 C 0.26651 0.29446 0.3345 0.0
C293 C 0.2375 0.28315 0.32948 0.0
C294 C 0.2227 0.29497 0.33803 0.0
C295 C 0.2365 0.31845 0.35195 0.0
C296 C 0.26539 0.32997 0.35644 0.0
C297 C 0.28019 0.31809 0.34799 0.0
C298 C 0.33993 0.29479 0.27249 0.0
C299 C 0.2701 0.31035 0.21936 0.0
O300 O 0.31713 0.27524 0.20213 0.0
O301 O 0.28232 0.23988 0.18995 0.0
O302 O 0.26202 0.26165 0.24278 0.0
O303 O 0.2538 0.22616 0.22678 0.0
O304 O 0.31336 0.22969 0.26409 0.0
O305 O 0.3061 0.23816 0.30417 0.0
O306 O 0.26875 0.26172 0.31059 0.0
O307 O 0.30567 0.29537 0.32279 0.0
O308 O 0.32338 0.27237 0.26979 0.0
O309 O 0.33212 0.30842 0.28442 0.0
O310 O 0.272 0.30481 0.24823 0.0
O311 O 0.278 0.29571 0.2077 0.0
H312 H 0.308 0.26466 0.12945 0.0
H313 H 0.33557 0.24593 0.11507 0.0
H314 H 0.36695 0.20464 0.20755 0.0
H315 H 0.33954 0.2241 0.22196 0.0
H316 H 0.22631 0.26483 0.31952 0.0
H317 H 0.20064 0.28522 0.33452 0.0
H318 H 0.27671 0.34822 0.3666 0.0
H319 H 0.30257 0.32727 0.35251 0.0
Tb320 Tb 0.5182 0.49934 0.01015 0.0
Tb321 Tb 0.56987 0.53574 0.99956 0.0
C322 C 0.47882 0.4594 0.01226 0.0
C323 C 0.4777 0.4352 0.03392 0.0
C324 C 0.45629 0.4124 0.02397 0.0
C325 C 0.45363 0.38993 0.0452 0.0
C326 C 0.47222 0.39014 0.07672 0.0
C327 C 0.49485 0.41257 0.08606 0.0
C328 C 0.49765 0.43486 0.06477 0.0
C329 C 0.55045 0.53361 0.05001 0.0
C330 C 0.57847 0.48225 0.0403 0.0
C331 C 0.60828 0.57588 0.99508 0.0
C332 C 0.60717 0.60103 0.97473 0.0
C333 C 0.62749 0.62419 0.98537 0.0
C334 C 0.62766 0.64786 0.96538 0.0
C335 C 0.60768 0.64858 0.93432 0.0
C336 C 0.58618 0.62558 0.92448 0.0
C337 C 0.58583 0.60207 0.94457 0.0
C338 C 0.53685 0.50131 0.95976 0.0
C339 C 0.51042 0.5534 0.9714 0.0
O340 O 0.4941 0.462 0.99659 0.0
O341 O 0.48367 0.48118 0.02313 0.0
O342 O 0.55879 0.5214 0.03824 0.0
O343 O 0.52291 0.52511 0.04155 0.0
O344 O 0.55021 0.47516 0.03204 0.0
O345 O 0.59178 0.50679 0.03351 0.0
O346 O 0.5968 0.57189 0.01494 0.0
O347 O 0.60101 0.55495 0.98159 0.0
O348 O 0.52907 0.51406 0.97146 0.0
O349 O 0.5645 0.50884 0.96884 0.0
O350 O 0.53874 0.56054 0.98073 0.0
O351 O 0.49684 0.5285 0.97597 0.0
H352 H 0.44113 0.41224 1.00002 0.0
H353 H 0.43634 0.37278 0.03718 0.0
H354 H 0.5094 0.41357 0.11013 0.0
H355 H 0.5147 0.45222 0.07266 0.0
H356 H 0.64367 0.62383 1.00885 0.0
H357 H 0.64412 0.66533 0.97391 0.0
H358 H 0.5706 0.62524 0.90074 0.0
H359 H 0.5695 0.58447 0.93616 0.0
Tb360 Tb 0.78282 0.26373 0.28773 0.0
Tb361 Tb 0.80064 0.26789 0.23487 0.0
C362 C 0.77425 0.27607 0.32885 0.0
C363 C 0.7564 0.2906 0.33164 0.0
C364 C 0.76985 0.31342 0.34664 0.0
C365 C 0.75384 0.32641 0.35175 0.0
C366 C 0.72394 0.31678 0.34218 0.0
C367 C 0.71041 0.2942 0.32663 0.0
C368 C 0.72643 0.28126 0.3214 0.0
C369 C 0.75505 0.22519 0.25353 0.0
C370 C 0.75533 0.29839 0.22212 0.0
C371 C 0.81385 0.25979 0.19482 0.0
C372 C 0.8287 0.2425 0.19131 0.0
C373 C 0.81385 0.21744 0.18144 0.0
C374 C 0.82763 0.20239 0.17572 0.0
C375 C 0.85655 0.21206 0.17963 0.0
C376 C 0.87141 0.23698 0.18988 0.0
C377 C 0.85766 0.252 0.19553 0.0
C378 C 0.82833 0.30552 0.27074 0.0
C379 C 0.82544 0.23103 0.29886 0.0
O380 O 0.79415 0.2902 0.31889 0.0
O381 O 0.76137 0.25354 0.31742 0.0
O382 O 0.76332 0.2491 0.24405 0.0
O383 O 0.75873 0.2228 0.28217 0.0
O384 O 0.76019 0.29223 0.25195 0.0
O385 O 0.76685 0.28891 0.20918 0.0
O386 O 0.78878 0.24907 0.1963 0.0
O387 O 0.82978 0.27736 0.21405 0.0
O388 O 0.82043 0.28134 0.27906 0.0
O389 O 0.82196 0.30942 0.24126 0.0
O390 O 0.81883 0.236 0.26861 0.0
O391 O 0.8167 0.24276 0.31263 0.0
H392 H 0.79294 0.32095 0.35501 0.0
H393 H 0.76506 0.34354 0.36409 0.0
H394 H 0.68739 0.28644 0.31857 0.0
H395 H 0.71534 0.26374 0.30975 0.0
H396 H 0.79145 0.20959 0.17762 0.0
H397 H 0.81557 0.1832 0.16811 0.0
H398 H 0.8935 0.24532 0.19263 0.0
H399 H 0.86964 0.27139 0.20256 0.0
Tb400 Tb 0.04789 0.49255 0.51926 0.0
Tb401 Tb 1.03477 0.54701 0.49985 0.0
C402 C 0.05431 0.44894 0.51691 0.0
C403 C 0.0676 0.44099 0.50061 0.0
C404 C 0.05687 0.41579 0.49105 0.0
C405 C 0.06957 0.40781 0.47614 0.0
C406 C 0.09339 0.42486 0.47055 0.0
C407 C 0.10376 0.45032 0.47967 0.0
C408 C 0.09094 0.45834 0.4944 0.0
C409 C 0.08665 0.52994 0.55225 0.0
C410 C 0.06297 0.53319 0.46491 0.0
C411 C 1.02734 0.59061 0.50073 0.0
C412 C 1.01549 0.59954 0.51784 0.0
C413 C 1.0243 0.59346 0.55012 0.0
C414 C 1.01161 0.60094 0.56546 0.0
C415 C 0.98993 0.61485 0.54889 0.0
C416 C 0.98161 0.62126 0.51664 0.0
C417 C 0.99417 0.61365 0.50136 0.0
C418 C 0.99639 0.50974 0.46659 0.0
C419 C 1.02053 0.50649 0.55477 0.0
O420 O 1.03089 0.45709 0.49942 0.0
O421 O 0.07175 0.46379 0.53889 0.0
O422 O 0.07233 0.53245 0.52347 0.0
O423 O 0.0808 0.50532 0.5635 0.0
O424 O 0.05652 0.50862 0.47773 0.0
O425 O 0.06026 0.55339 0.47334 0.0
O426 O 0.05176 0.5838 0.51665 0.0
O427 O 1.00893 0.57423 0.48078 0.0
O428 O 1.01026 0.5071 0.49547 0.0
O429 O 1.00265 0.53432 0.45543 0.0
O430 O 1.02737 0.53115 0.54228 0.0
O431 O 1.02243 0.48625 0.54563 0.0
H432 H 1.0388 0.40214 0.49539 0.0
H433 H 0.06112 0.38803 0.46963 0.0
H434 H 0.12175 0.46411 0.4753 0.0
H435 H 0.0994 0.47805 0.50113 0.0
H436 H 0.04082 0.58273 0.56351 0.0
H437 H 1.01847 0.5954 0.59023 0.0
H438 H 0.96547 0.6324 0.5031 0.0
H439 H 0.98708 0.61869 0.47649 0.0
Tb440 Tb 0.80097 0.74331 0.26217 0.0
Tb441 Tb 0.77509 0.78768 0.25164 0.0
C442 C 0.81265 0.70564 0.25248 0.0
C443 C 0.83157 0.70041 0.24148 0.0
C444 C 0.84813 0.72081 0.2279 0.0
C445 C 0.86418 0.71487 0.21542 0.0
C446 C 0.86375 0.68844 0.21629 0.0
C447 C 0.8477 0.66822 0.23071 0.0
C448 C 0.83174 0.67418 0.24313 0.0
C449 C 0.83067 0.77706 0.30266 0.0
C450 C 0.82088 0.79953 0.21947 0.0
C451 C 0.76265 0.8252 0.26059 0.0
C452 C 0.74264 0.83103 0.26964 0.0
C453 C 0.73281 0.81405 0.2917 0.0
C454 C 0.71628 0.82168 0.30214 0.0
C455 C 0.70948 0.84642 0.29077 0.0
C456 C 0.71848 0.86281 0.26782 0.0
C457 C 0.73491 0.85518 0.25742 0.0
C458 C 0.74527 0.75355 0.21138 0.0
C459 C 0.75573 0.73166 0.29496 0.0
O460 O 0.79291 0.71764 0.23177 0.0
O461 O 0.82475 0.71456 0.27933 0.0
O462 O 0.81706 0.78213 0.27406 0.0
O463 O 0.83002 0.75203 0.30948 0.0
O464 O 0.8206 0.77361 0.22944 0.0
O465 O 0.80542 0.80961 0.22737 0.0
O466 O 0.78154 0.81263 0.28205 0.0
O467 O 0.75201 0.81707 0.23348 0.0
O468 O 0.75898 0.74882 0.23998 0.0
O469 O 0.74591 0.77857 0.20438 0.0
O470 O 0.75564 0.75748 0.28458 0.0
O471 O 0.77128 0.72156 0.28721 0.0
H472 H 0.84821 0.7412 0.22643 0.0
H473 H 0.87623 0.73086 0.20434 0.0
H474 H 0.84736 0.64772 0.23228 0.0
H475 H 0.81911 0.65821 0.25361 0.0
H476 H 0.73856 0.79529 0.30145 0.0
H477 H 0.70977 0.80867 0.31993 0.0
H478 H 0.71315 0.88176 0.2582 0.0
H479 H 0.74224 0.86851 0.24033 0.0
Tb480 Tb 0.76373 0.24937 0.76877 0.0
Tb481 Tb 0.81506 0.2821 0.75577 0.0
C482 C 0.72375 0.21157 0.77421 0.0
C483 C 0.72214 0.18343 0.78645 0.0
C484 C 0.72292 0.16558 0.77025 0.0
C485 C 0.72126 0.13895 0.78248 0.0
C486 C 0.71916 0.1299 0.81119 0.0
C487 C 0.71884 0.14793 0.82742 0.0
C488 C 0.72018 0.17431 0.81513 0.0
C489 C 0.79886 0.28452 0.80664 0.0
C490 C 0.82038 0.22712 0.79396 0.0
C491 C 0.85579 0.31993 0.75233 0.0
C492 C 0.85888 0.34851 0.74186 0.0
C493 C 0.86519 0.36633 0.76218 0.0
C494 C 0.8703 0.39354 0.75263 0.0
C495 C 0.86925 0.4034 0.72266 0.0
C496 C 0.86162 0.38539 0.70204 0.0
C497 C 0.8566 0.35834 0.71156 0.0
C498 C 0.7805 0.24665 0.7182 0.0
C499 C 0.75797 0.30397 0.72971 0.0
O500 O 0.72775 0.21957 0.74849 0.0
O501 O 0.73938 0.22828 0.79459 0.0
O502 O 0.80559 0.27029 0.7955 0.0
O503 O 0.77122 0.27836 0.79795 0.0
O504 O 0.79234 0.222 0.78646 0.0
O505 O 0.83501 0.25093 0.78702 0.0
O506 O 0.85106 0.31118 0.77758 0.0
O507 O 0.84011 0.30408 0.73097 0.0
O508 O 0.77337 0.2608 0.72909 0.0
O509 O 0.80815 0.25338 0.72667 0.0
O510 O 0.78598 0.30914 0.73699 0.0
O511 O 0.74351 0.28028 0.73725 0.0
H512 H 0.7245 0.17205 0.74804 0.0
H513 H 0.72121 0.12541 0.76935 0.0
H514 H 0.71631 0.14145 0.84916 0.0
H515 H 0.71935 0.18756 0.82798 0.0
H516 H 0.86704 0.35935 0.78574 0.0
H517 H 0.87616 0.40688 0.76905 0.0
H518 H 0.86135 0.39215 0.67904 0.0
H519 H 0.85193 0.34518 0.69541 0.0
Tb520 Tb 0.78631 0.75735 0.73621 0.0
Tb521 Tb 0.7949 0.77613 0.79551 0.0
C522 C 0.79092 0.74403 0.69289 0.0
C523 C 0.80914 0.73307 0.68606 0.0
C524 C 0.83077 0.7214 0.7094 0.0
C525 C 0.84718 0.71072 0.70174 0.0
C526 C 0.84257 0.71196 0.67058 0.0
C527 C 0.82064 0.72358 0.64742 0.0
C528 C 0.80421 0.73399 0.65509 0.0
C529 C 0.74238 0.74031 0.75224 0.0
C530 C 0.82213 0.73031 0.80367 0.0
C531 C 0.78993 0.78958 0.83846 0.0
C532 C 0.77087 0.79981 0.8449 0.0
C533 C 0.75622 0.81875 0.82408 0.0
C534 C 0.73956 0.82893 0.83188 0.0
C535 C 0.73719 0.82035 0.86065 0.0
C536 C 0.75193 0.80132 0.88128 0.0
C537 C 0.76846 0.79117 0.87344 0.0
C538 C 0.83872 0.79326 0.77924 0.0
C539 C 0.75888 0.80302 0.72822 0.0
O540 O 0.80157 0.7679 0.70096 0.0
O541 O 0.77667 0.72815 0.70904 0.0
O542 O 0.76849 0.74369 0.77011 0.0
O543 O 0.73992 0.74473 0.72386 0.0
O544 O 0.81714 0.73607 0.77375 0.0
O545 O 0.81213 0.74139 0.81675 0.0
O546 O 0.78045 0.7654 0.83144 0.0
O547 O 0.80374 0.80561 0.82192 0.0
O548 O 0.81258 0.78982 0.76154 0.0
O549 O 0.84132 0.78892 0.80767 0.0
O550 O 0.76368 0.79699 0.75807 0.0
O551 O 0.76917 0.79222 0.71514 0.0
H552 H 0.83505 0.72068 0.73344 0.0
H553 H 0.86401 0.70223 0.7203 0.0
H554 H 0.81581 0.72437 0.62317 0.0
H555 H 0.78744 0.74272 0.63669 0.0
H556 H 0.75781 0.82579 0.80194 0.0
H557 H 0.72823 0.84325 0.81517 0.0
H558 H 0.75112 0.7945 0.90381 0.0
H559 H 0.77977 0.77675 0.88998 0.0
Tb560 Tb 0.52875 0.49849 0.4916 0.0
Tb561 Tb 0.55217 0.53401 0.52766 0.0
C562 C 0.51799 0.46387 0.45814 0.0
C563 C 0.5345 0.45448 0.44718 0.0
C564 C 0.56334 0.46709 0.4528 0.0
C565 C 0.57907 0.45697 0.44365 0.0
C566 C 0.56625 0.43405 0.42867 0.0
C567 C 0.53718 0.42181 0.42272 0.0
C568 C 0.52154 0.4319 0.43194 0.0
C569 C 0.50071 0.48301 0.53192 0.0
C570 C 0.58629 0.49334 0.54688 0.0
C571 C 0.56241 0.56866 0.56083 0.0
C572 C 0.54547 0.57796 0.57136 0.0
C573 C 0.51734 0.56401 0.56763 0.0
C574 C 0.50122 0.57384 0.57658 0.0
C575 C 0.51292 0.59782 0.58944 0.0
C576 C 0.54121 0.61157 0.59319 0.0
C577 C 0.55725 0.60175 0.58424 0.0
C578 C 0.5802 0.54946 0.48727 0.0
C579 C 0.49479 0.53922 0.47239 0.0
O580 O 0.51459 0.48774 0.44731 0.0
O581 O 0.52469 0.45925 0.48778 0.0
O582 O 0.52784 0.49327 0.53833 0.0
O583 O 0.48954 0.48323 0.50215 0.0
O584 O 0.57204 0.49184 0.51716 0.0
O585 O 0.57968 0.50799 0.55907 0.0
O586 O 0.56594 0.54483 0.57182 0.0
O587 O 0.55607 0.57328 0.53127 0.0
O588 O 0.55308 0.53917 0.48093 0.0
O589 O 0.59134 0.54947 0.51701 0.0
O590 O 0.50884 0.54051 0.50216 0.0
O591 O 0.50156 0.52475 0.46018 0.0
H592 H 0.5738 0.48455 0.46458 0.0
H593 H 0.60145 0.46679 0.44893 0.0
H594 H 0.52641 0.40443 0.4108 0.0
H595 H 0.4993 0.4219 0.42737 0.0
H596 H 0.50779 0.5456 0.55768 0.0
H597 H 0.47967 0.56253 0.57362 0.0
H598 H 0.55083 0.63028 0.60248 0.0
H599 H 0.57883 0.61293 0.58705 0.0
Tb600 Tb 0.04198 0.51709 0.0397 0.0
Tb601 Tb 0.04702 0.51951 0.97976 0.0
C602 C 0.04338 0.52914 0.08705 0.0
C603 C 1.03006 0.54572 0.09339 0.0
C604 C 0.04476 0.55765 0.12063 0.0
C605 C 1.03253 0.57348 0.12721 0.0
C606 C 1.00532 0.57763 0.1066 0.0
C607 C 0.9908 0.56589 0.07905 0.0
C608 C 1.00311 0.55012 0.07246 0.0
C609 C 1.00569 0.47968 1.0054 0.0
C610 C 1.00946 0.5537 0.97854 0.0
C611 C 0.04557 0.50812 0.93205 0.0
C612 C 0.05643 0.48977 0.92513 0.0
C613 C 0.04181 0.48035 0.89631 0.0
C614 C 0.05183 0.46297 0.88914 0.0
C615 C 0.07663 0.45463 0.91079 0.0
C616 C 0.09096 0.46381 0.93992 0.0
C617 C 0.08096 0.48128 0.94701 0.0
C618 C 0.08299 0.55705 0.01396 0.0
C619 C 0.07954 0.48301 0.04077 0.0
O620 O 0.06177 0.54184 0.07453 0.0
O621 O 1.02625 0.50784 0.0743 0.0
O622 O 1.01382 0.50358 0.99604 0.0
O623 O 1.0166 0.47613 0.03543 0.0
O624 O 1.01935 0.54798 0.00917 0.0
O625 O 1.01521 0.54248 0.96154 0.0
O626 O 1.0255 0.49712 0.94261 0.0
O627 O 0.06484 0.52757 0.94712 0.0
O628 O 0.07512 0.5331 0.02333 0.0
O629 O 0.07195 0.5606 0.98394 0.0
O630 O 0.06856 0.48789 0.01005 0.0
O631 O 0.07466 0.49499 0.05782 0.0
H632 H 0.06566 0.55458 0.13695 0.0
H633 H 0.04411 0.582 0.14876 0.0
H634 H 0.96999 0.569 0.06254 0.0
H635 H 0.99156 0.5413 0.0511 0.0
H636 H 1.02277 0.48666 0.87922 0.0
H637 H 0.04053 0.4566 0.86635 0.0
H638 H 0.10991 0.45751 0.95724 0.0
H639 H 0.09246 0.48829 0.96946 0.0
H640 H 0.24827 0.17657 0.81904 0.0
H641 H 0.21915 0.14809 0.84759 0.0
H642 H 0.19474 0.2155 0.85036 0.0
H643 H 0.22394 0.24392 0.82197 0.0
H644 H 0.16711 0.12713 0.84507 0.0
H645 H 0.20678 0.18974 0.93658 0.0
H646 H 0.19089 0.20691 0.89885 0.0
H647 H 0.22318 0.19669 0.90943 0.0
C648 C 0.23701 0.18582 0.82569 0.0
C649 C 0.23986 0.21375 0.81729 0.0
C650 C 0.2197 0.16894 0.84251 0.0
C651 C 0.20382 0.1783 0.85315 0.0
C652 C 0.20649 0.20626 0.84445 0.0
H653 H 0.13536 0.0826 1.00269 0.0
H654 H 0.16231 0.11124 0.97219 0.0
C655 C 0.22359 0.22311 0.82736 0.0
C656 C 0.18488 0.15926 0.87229 0.0
H657 H 0.16687 0.15387 0.93487 0.0
C658 C 0.16739 0.13352 0.86461 0.0
C659 C 0.18396 0.16546 0.89896 0.0
C660 C 0.20237 0.19103 0.91176 0.0
C661 C 0.14999 0.1155 0.88099 0.0
C662 C 0.14848 0.12201 0.90715 0.0
C663 C 0.16643 0.14752 0.91521 0.0
C664 C 0.12991 0.10296 0.92669 0.0
C665 C 0.1339 0.08879 0.87023 0.0
C666 C 0.10097 0.08723 0.91356 0.0
C667 C 0.08479 0.07031 0.93171 0.0
C668 C 0.09602 0.06743 0.9648 0.0
C669 C 0.12475 0.08324 0.97777 0.0
C670 C 0.14073 0.10026 0.95972 0.0
H671 H 0.1434 0.08328 0.85722 0.0
H672 H 0.13374 0.07323 0.89005 0.0
H673 H 0.1114 0.08932 0.85449 0.0
H674 H 0.09017 0.0882 0.88866 0.0
H675 H 0.06314 0.05933 0.91943 0.0
H676 H 0.10878 0.98133 0.10946 0.0
H677 H 0.14027 0.95148 0.14066 0.0
H678 H 0.1423 0.93807 0.05812 0.0
H679 H 0.10991 0.96705 0.02675 0.0
H680 H 0.1336 0.89315 0.09138 0.0
H681 H 0.22425 0.9606 0.17028 0.0
H682 H 0.19102 0.95848 0.17208 0.0
H683 H 0.19603 0.97227 0.13664 0.0
C684 C 0.11629 0.97235 0.098 0.0
C685 C 0.1069 0.97674 0.06559 0.0
C686 C 0.13449 0.95533 0.11594 0.0
C687 C 0.14425 0.94271 0.10198 0.0
C688 C 0.13526 0.94752 0.06962 0.0
H689 H 0.27893 0.85581 0.20504 0.0
H690 H 0.25148 0.88888 0.17415 0.0
C691 C 0.11677 0.96423 0.05166 0.0
C692 C 0.16232 0.92332 0.1207 0.0
H693 H 0.22296 0.91452 0.18478 0.0
C694 C 0.15324 0.89797 0.11167 0.0
C695 C 0.18828 0.92948 0.14701 0.0
C696 C 0.20064 0.95677 0.15688 0.0
C697 C 0.16894 0.87865 0.1283 0.0
C698 C 0.19408 0.88436 0.15553 0.0
C699 C 0.20351 0.90987 0.16425 0.0
C700 C 0.21099 0.86427 0.17503 0.0
C701 C 0.15865 0.85252 0.11595 0.0
C702 C 0.19776 0.83946 0.18658 0.0
C703 C 0.21337 0.82033 0.20387 0.0
C704 C 0.24282 0.82562 0.21061 0.0
C705 C 0.25629 0.85083 0.20006 0.0
C706 C 0.24058 0.86987 0.18243 0.0
H707 H 0.14529 0.85434 0.09066 0.0
H708 H 0.17692 0.84455 0.12031 0.0
H709 H 0.14518 0.83808 0.12755 0.0
H710 H 0.17524 0.83482 0.18221 0.0
H711 H 0.20225 0.80133 0.21192 0.0
H712 H 0.43531 0.96891 0.47886 0.0
H713 H 0.40056 0.9355 0.44506 0.0
H714 H 0.46999 0.91215 0.44465 0.0
H715 H 0.50478 0.94575 0.47812 0.0
H716 H 0.427 0.91722 0.38651 0.0
H717 H 0.38097 0.85633 0.47074 0.0
H718 H 0.37964 0.89032 0.46318 0.0
H719 H 0.41379 0.88192 0.4818 0.0
C720 C 0.44311 0.95659 0.47159 0.0
C721 C 0.47269 0.95987 0.48109 0.0
C722 C 0.42326 0.93743 0.45242 0.0
C723 C 0.43267 0.92101 0.44275 0.0
C724 C 0.46224 0.92453 0.45192 0.0
H725 H 0.3552 0.78995 0.33511 0.0
H726 H 0.38745 0.82467 0.36792 0.0
C727 C 0.48209 0.94374 0.47099 0.0
C728 C 0.41174 0.90033 0.42282 0.0
H729 H 0.35775 0.84458 0.4198 0.0
C730 C 0.41191 0.9013 0.39382 0.0
C731 C 0.39202 0.87958 0.43237 0.0
C732 C 0.39168 0.87674 0.46383 0.0
C733 C 0.39276 0.88222 0.37403 0.0
C734 C 0.37315 0.86146 0.38366 0.0
C735 C 0.37276 0.86059 0.41249 0.0
C736 C 0.35345 0.84003 0.36446 0.0
C737 C 0.3934 0.88457 0.3428 0.0
C738 C 0.3236 0.83665 0.35244 0.0
C739 C 0.30511 0.81682 0.33362 0.0
C740 C 0.31626 0.80005 0.32671 0.0
C741 C 0.34608 0.8029 0.33968 0.0
C742 C 0.36452 0.82275 0.35833 0.0
H743 H 0.40457 0.90476 0.33586 0.0
H744 H 0.40504 0.87048 0.3438 0.0
H745 H 0.37133 0.8796 0.32468 0.0
H746 H 0.31466 0.84967 0.35716 0.0
H747 H 0.28219 0.81494 0.32402 0.0
H748 H 0.35462 0.15425 0.68774 0.0
H749 H 0.38279 0.14107 0.66858 0.0
H750 H 0.45831 0.19764 0.7186 0.0
H751 H 0.43026 0.21063 0.73852 0.0
H752 H 0.41666 0.17284 0.63421 0.0
H753 H 0.48105 0.12548 0.74934 0.0
H754 H 0.4482 0.13342 0.74176 0.0
H755 H 0.48037 0.15916 0.74671 0.0
C756 C 0.37726 0.16382 0.6948 0.0
C757 C 0.39034 0.18322 0.71497 0.0
C758 C 0.39325 0.15641 0.68365 0.0
C759 C 0.42264 0.16817 0.69249 0.0
C760 C 0.43569 0.18812 0.71185 0.0
H761 H 0.5391 0.11124 0.65544 0.0
H762 H 0.52092 0.13832 0.67237 0.0
C763 C 0.41963 0.19564 0.723 0.0
C764 C 0.43943 0.15874 0.68187 0.0
H765 H 0.48808 0.12158 0.70656 0.0
C766 C 0.43254 0.1619 0.65002 0.0
C767 C 0.46018 0.14459 0.70263 0.0
C768 C 0.4679 0.14023 0.73702 0.0
C769 C 0.44534 0.15065 0.63824 0.0
C770 C 0.46505 0.1354 0.65886 0.0
C771 C 0.47288 0.13322 0.69083 0.0
C772 C 0.47617 0.11994 0.64763 0.0
C773 C 0.43739 0.15499 0.60381 0.0
C774 C 0.45704 0.10044 0.62849 0.0
C775 C 0.46731 0.08496 0.61888 0.0
C776 C 0.49697 0.0885 0.62848 0.0
C777 C 0.51614 0.10794 0.64784 0.0
C778 C 0.5058 0.1235 0.65738 0.0
H779 H 0.42992 0.17345 0.59289 0.0
H780 H 0.45582 0.15605 0.59855 0.0
H781 H 0.41958 0.13829 0.59312 0.0
H782 H 0.43411 0.09682 0.62146 0.0
H783 H 0.45203 0.06979 0.60449 0.0
H784 H 0.06162 0.92971 0.57264 0.0
H785 H 0.09244 0.89883 0.60095 0.0
H786 H 0.16345 0.95718 0.58589 0.0
H787 H 0.13307 0.9883 0.55811 0.0
H788 H 0.12267 0.87809 0.58225 0.0
H789 H 0.19682 0.93698 0.67923 0.0
H790 H 0.16287 0.9439 0.65187 0.0
H791 H 0.19341 0.95482 0.64177 0.0
C792 C 0.08383 0.93604 0.57546 0.0
C793 C 0.09493 0.96161 0.56334 0.0
C794 C 0.10139 0.91832 0.59157 0.0
C795 C 0.13036 0.92582 0.59592 0.0
C796 C 0.14134 0.95115 0.5834 0.0
H797 H 0.24467 0.81864 0.66139 0.0
H798 H 0.21344 0.84865 0.62884 0.0
C799 C 0.12387 0.96891 0.56742 0.0
C800 C 0.14912 0.9072 0.6136 0.0
H801 H 0.2101 0.89978 0.67742 0.0
C802 C 0.14178 0.88278 0.60308 0.0
C803 C 0.1739 0.91326 0.64093 0.0
C804 C 0.18213 0.93854 0.65434 0.0
C805 C 0.15864 0.86431 0.61911 0.0
C806 C 0.18374 0.87064 0.64608 0.0
C807 C 0.19101 0.89504 0.65657 0.0
C808 C 0.20196 0.85173 0.66496 0.0
C809 C 0.149 0.83794 0.60751 0.0
C810 C 0.20622 0.84379 0.69612 0.0
C811 C 0.22419 0.82697 0.71475 0.0
C812 C 0.23843 0.81763 0.70271 0.0
C813 C 0.23394 0.82536 0.67135 0.0
C814 C 0.21598 0.8424 0.65268 0.0
H815 H 0.12608 0.83378 0.59116 0.0
H816 H 0.16203 0.83797 0.59513 0.0
H817 H 0.15208 0.8217 0.62704 0.0
H818 H 0.19565 0.85071 0.70611 0.0
H819 H 0.22693 0.82137 0.73871 0.0
H820 H 0.36909 0.84757 0.75719 0.0
H821 H 0.39792 0.88506 0.78712 0.0
H822 H 0.37958 0.83968 0.86538 0.0
H823 H 0.35144 0.80208 0.8357 0.0
H824 H 0.36825 0.89154 0.84695 0.0
H825 H 0.47746 0.89298 0.86154 0.0
H826 H 0.4504 0.89214 0.82269 0.0
H827 H 0.44764 0.8644 0.85155 0.0
C828 C 0.37153 0.84566 0.78089 0.0
C829 C 0.35756 0.82242 0.79406 0.0
C830 C 0.38798 0.86695 0.79793 0.0
C831 C 0.39083 0.86508 0.82842 0.0
C832 C 0.37742 0.84154 0.84179 0.0
H833 H 0.46714 0.96798 0.97025 0.0
H834 H 0.43989 0.93218 0.9379 0.0
C835 C 0.36108 0.82027 0.82478 0.0
C836 C 0.40662 0.88804 0.84595 0.0
H837 H 0.47323 0.92803 0.87893 0.0
C838 C 0.39121 0.89954 0.85399 0.0
C839 C 0.4365 0.89843 0.85487 0.0
C840 C 0.45412 0.8863 0.84749 0.0
C841 C 0.40488 0.92134 0.87063 0.0
C842 C 0.43485 0.93152 0.87997 0.0
C843 C 0.45024 0.92018 0.87166 0.0
C844 C 0.45078 0.95344 0.89916 0.0
C845 C 0.38706 0.9335 0.87768 0.0
C846 C 0.46627 0.97709 0.88827 0.0
C847 C 0.48202 0.99747 0.90682 0.0
C848 C 0.48272 0.99434 0.93663 0.0
C849 C 0.46698 0.9708 0.94736 0.0
C850 C 0.45128 0.95044 0.92885 0.0
H851 H 0.36405 0.92835 0.86179 0.0
H852 H 0.38867 0.92591 0.90166 0.0
H853 H 0.39485 0.95535 0.87592 0.0
H854 H 0.46623 0.97971 0.86546 0.0
H855 H 0.49409 1.01544 0.89811 0.0
H856 H 0.52186 0.14093 0.09493 0.0
H857 H 0.49854 0.15631 0.11845 0.0
H858 H 0.41903 0.14187 0.03811 0.0
H859 H 0.44211 0.1265 0.0145 0.0
H860 H 0.47265 0.19734 0.09903 0.0
H861 H 0.393 0.10331 0.10698 0.0
H862 H 0.42321 0.10522 0.09878 0.0
H863 H 0.39154 0.11429 0.06846 0.0
C864 C 0.49943 0.14111 0.08219 0.0
C865 C 0.48387 0.13228 0.05283 0.0
C866 C 0.48607 0.14981 0.09575 0.0
C867 C 0.45683 0.1498 0.08038 0.0
C868 C 0.44137 0.14139 0.05089 0.0
H869 H 0.33452 0.20403 0.10524 0.0
H870 H 0.36088 0.18621 0.08808 0.0
C871 C 0.45466 0.13262 0.03737 0.0
C872 C 0.44264 0.15926 0.0947 0.0
H873 H 0.38533 0.14173 0.1149 0.0
C874 C 0.45374 0.18507 0.1028 0.0
C875 C 0.41797 0.14329 0.09975 0.0
C876 C 0.40588 0.11491 0.09334 0.0
C877 C 0.44031 0.1956 0.11473 0.0
C878 C 0.41527 0.17981 0.11909 0.0
C879 C 0.40445 0.15387 0.11148 0.0
C880 C 0.39934 0.19019 0.1303 0.0
C881 C 0.45246 0.22385 0.12161 0.0
C882 C 0.41194 0.19797 0.16004 0.0
C883 C 0.39687 0.20823 0.16998 0.0
C884 C 0.36891 0.21108 0.15032 0.0
C885 C 0.35619 0.20267 0.12082 0.0
C886 C 0.37118 0.19229 0.11101 0.0
H887 H 0.46806 0.23497 0.11104 0.0
H888 H 0.43505 0.23424 0.11299 0.0
H889 H 0.46373 0.22409 0.14702 0.0
H890 H 0.43349 0.19616 0.17555 0.0
H891 H 0.40742 0.21456 0.19278 0.0
H892 H 0.11539 0.18721 0.41071 0.0
H893 H 0.1296 0.21207 0.36844 0.0
H894 H 0.08483 0.14492 0.31754 0.0
H895 H 0.0709 0.11992 0.35957 0.0
H896 H 0.16401 0.1864 0.36056 0.0
H897 H 0.07615 0.20898 0.24847 0.0
H898 H 0.07372 0.2046 0.28532 0.0
H899 H 0.06849 0.17638 0.26836 0.0
C900 C 0.10772 0.1781 0.39002 0.0
C901 C 0.09257 0.15147 0.38873 0.0
C902 C 0.11563 0.19239 0.36581 0.0
C903 C 0.10827 0.18026 0.33998 0.0
C904 C 0.0903 0.15476 0.33705 0.0
H905 H 0.21642 0.18814 0.24916 0.0
H906 H 0.17842 0.1736 0.26891 0.0
C907 C 0.08243 0.14045 0.36124 0.0
C908 C 0.12511 0.19099 0.32084 0.0
H909 H 0.12034 0.20992 0.24667 0.0
C910 C 0.15452 0.19194 0.33572 0.0
C911 C 0.11247 0.19762 0.28843 0.0
C912 C 0.08099 0.19707 0.27163 0.0
C913 C 0.17166 0.19893 0.31901 0.0
C914 C 0.159 0.20511 0.28657 0.0
C915 C 0.12972 0.20478 0.27157 0.0
C916 C 0.17676 0.21325 0.26859 0.0
C917 C 0.20313 0.19914 0.33607 0.0
C918 C 0.18762 0.2402 0.26141 0.0
C919 C 0.20948 0.24844 0.2508 0.0
C920 C 0.22048 0.2298 0.24693 0.0
C921 C 0.20823 0.20278 0.25208 0.0
C922 C 0.18654 0.19451 0.26313 0.0
H923 H 0.21047 0.1981 0.36149 0.0
H924 H 0.20686 0.18185 0.33134 0.0
H925 H 0.2165 0.21717 0.32791 0.0
H926 H 0.18043 0.25484 0.26581 0.0
H927 H 0.21846 0.26943 0.24668 0.0
H928 H 0.83426 0.18364 0.13072 0.0
H929 H 0.85886 0.16078 0.11682 0.0
H930 H 0.93652 0.18423 0.19629 0.0
H931 H 0.91189 0.20636 0.21092 0.0
H932 H 0.90624 0.18272 0.10238 0.0
H933 H 0.93037 0.10587 0.20385 0.0
H934 H 0.90485 0.12476 0.19511 0.0
H935 H 0.94271 0.13878 0.214 0.0
C936 C 0.85641 0.18349 0.14563 0.0
C937 C 0.87102 0.19684 0.17202 0.0
C938 C 0.87051 0.17057 0.1375 0.0
C939 C 0.89947 0.17047 0.15569 0.0
C940 C 0.91405 0.18356 0.18218 0.0
H941 H 1.02999 0.11825 0.1423 0.0
H942 H 1.00203 0.13629 0.15705 0.0
C943 C 0.89998 0.1965 0.19032 0.0
C944 C 0.91482 0.15787 0.14612 0.0
H945 H 0.95404 0.11171 0.17057 0.0
C946 C 0.91647 0.16703 0.11718 0.0
C947 C 0.9283 0.13746 0.16546 0.0
C948 C 0.92629 0.12594 0.19621 0.0
C949 C 0.9318 0.15686 0.1074 0.0
C950 C 0.94545 0.13657 0.12683 0.0
C951 C 0.94362 0.12726 0.15568 0.0
C952 C 0.96215 0.12509 0.11787 0.0
C953 C 0.93397 0.16853 0.07674 0.0
C954 C 0.94901 0.11237 0.09117 0.0
C955 C 0.96501 0.10219 0.08251 0.0
C956 C 0.99454 0.10435 0.10046 0.0
C957 C 1.00746 0.11661 0.12758 0.0
C958 C 0.99144 0.12678 0.13621 0.0
H959 H 0.92883 0.18817 0.06853 0.0
H960 H 0.95583 0.17068 0.07834 0.0
H961 H 0.91846 0.15519 0.05911 0.0
H962 H 0.92633 0.11035 0.07694 0.0
H963 H 0.95433 0.09307 0.06139 0.0
H964 H 0.05343 0.49787 0.42832 0.0
H965 H 0.07722 0.50193 0.39441 0.0
H966 H 0.12483 0.58074 0.41714 0.0
H967 H 0.1003 0.57708 0.45051 0.0
H968 H 0.10374 0.57842 0.35707 0.0
H969 H 0.15757 0.49628 0.41972 0.0
H970 H 0.11927 0.48664 0.40693 0.0
H971 H 0.14025 0.50897 0.43562 0.0
C972 C 0.06887 0.51616 0.42594 0.0
C973 C 0.07515 0.53722 0.44204 0.0
C974 C 0.08267 0.51828 0.40685 0.0
C975 C 0.10336 0.5413 0.40398 0.0
C976 C 0.10908 0.56267 0.41934 0.0
H977 H 0.23718 0.59624 0.34925 0.0
H978 H 0.20691 0.56416 0.37358 0.0
C979 C 0.09495 0.5607 0.43816 0.0
C980 C 0.11825 0.54372 0.38391 0.0
H981 H 0.16325 0.51795 0.37334 0.0
C982 C 0.1166 0.56511 0.36047 0.0
C983 C 0.13497 0.5262 0.38854 0.0
C984 C 0.13839 0.50337 0.41423 0.0
C985 C 0.13211 0.57029 0.34226 0.0
C986 C 0.14884 0.5528 0.3467 0.0
C987 C 0.14986 0.53086 0.36955 0.0
C988 C 0.1687 0.55988 0.33108 0.0
C989 C 0.13182 0.59547 0.31986 0.0
C990 C 0.15816 0.56527 0.29873 0.0
C991 C 0.17506 0.58458 0.28491 0.0
C992 C 0.20282 0.5979 0.30345 0.0
C993 C 0.2153 0.58742 0.33467 0.0
C994 C 0.19811 0.56876 0.3486 0.0
H995 H 0.12202 0.60894 0.32358 0.0
H996 H 0.15395 0.60633 0.32217 0.0
H997 H 0.11911 0.59059 0.29581 0.0
H998 H 0.13566 0.55778 0.28474 0.0
H999 H 0.16479 0.59148 0.2606 0.0
H1000 H 0.59429 0.9651 0.60609 0.0
H1001 H 0.62607 0.93535 0.63618 0.0
H1002 H 0.6303 0.92623 0.55309 0.0
H1003 H 0.59867 0.95612 0.52276 0.0
H1004 H 0.61723 0.88232 0.62922 0.0
H1005 H 0.71525 0.94551 0.61263 0.0
H1006 H 0.68513 0.95827 0.60457 0.0
H1007 H 0.68357 0.93982 0.5776 0.0
C1008 C 0.60205 0.95691 0.59415 0.0
C1009 C 0.59389 0.96314 0.56192 0.0
C1010 C 0.62022 0.93984 0.61144 0.0
C1011 C 0.6309 0.92877 0.59701 0.0
C1012 C 0.62278 0.93487 0.56486 0.0
H1013 H 0.74397 0.82113 0.66624 0.0
H1014 H 0.7125 0.85089 0.63424 0.0
C1015 C 0.60452 0.95189 0.5475 0.0
C1016 C 0.64987 0.91031 0.61555 0.0
H1017 H 0.71715 0.90212 0.63808 0.0
C1018 C 0.63911 0.88668 0.63123 0.0
C1019 C 0.67837 0.91591 0.61804 0.0
C1020 C 0.69145 0.94134 0.60256 0.0
C1021 C 0.6559 0.8684 0.64901 0.0
C1022 C 0.68455 0.87413 0.65186 0.0
C1023 C 0.69524 0.89769 0.63597 0.0
C1024 C 0.70385 0.85611 0.67147 0.0
C1025 C 0.6425 0.84282 0.66402 0.0
C1026 C 0.70991 0.84938 0.70322 0.0
C1027 C 0.72779 0.83227 0.72156 0.0
C1028 C 0.74039 0.82169 0.70871 0.0
C1029 C 0.73467 0.82882 0.67699 0.0
C1030 C 0.71668 0.84589 0.65862 0.0
H1031 H 0.6187 0.83802 0.65232 0.0
H1032 H 0.65014 0.82612 0.66365 0.0
H1033 H 0.6485 0.84472 0.68849 0.0
H1034 H 0.70088 0.85744 0.71392 0.0
H1035 H 0.7316 0.82728 0.74583 0.0
H1036 H 0.55207 0.46124 0.95064 0.0
H1037 H 0.51969 0.42129 0.92682 0.0
H1038 H 0.44662 0.44993 0.90798 0.0
H1039 H 0.4788 0.48962 0.93187 0.0
H1040 H 0.44307 0.39738 0.93622 0.0
H1041 H 0.47044 0.41452 0.83448 0.0
H1042 H 0.50027 0.41562 0.87152 0.0
H1043 H 0.48009 0.44031 0.8575 0.0
C1044 C 0.5291 0.4591 0.94101 0.0
C1045 C 0.51787 0.47841 0.94307 0.0
C1046 C 0.51065 0.43631 0.92745 0.0
C1047 C 0.48075 0.43271 0.91552 0.0
C1048 C 0.46961 0.45228 0.91711 0.0
H1049 H 0.34185 0.332 0.78836 0.0
H1050 H 0.37803 0.36756 0.81738 0.0
C1051 C 0.48799 0.47497 0.93062 0.0
C1052 C 0.46084 0.40841 0.90183 0.0
H1053 H 0.43738 0.37464 0.84071 0.0
C1054 C 0.4419 0.39228 0.91543 0.0
C1055 C 0.45929 0.40195 0.87463 0.0
C1056 C 0.47841 0.41906 0.85844 0.0
C1057 C 0.42113 0.37005 0.90227 0.0
C1058 C 0.41953 0.36364 0.87501 0.0
C1059 C 0.43878 0.37954 0.86172 0.0
C1060 C 0.3968 0.34168 0.85858 0.0
C1061 C 0.40041 0.35417 0.91698 0.0
C1062 C 0.39514 0.31525 0.87223 0.0
C1063 C 0.37424 0.29477 0.85566 0.0
C1064 C 0.35486 0.30048 0.8252 0.0
C1065 C 0.35638 0.32697 0.81185 0.0
C1066 C 0.37714 0.34733 0.82835 0.0
H1067 H 0.40084 0.36472 0.93412 0.0
H1068 H 0.37817 0.34954 0.8991 0.0
H1069 H 0.40628 0.33521 0.92913 0.0
H1070 H 0.41037 0.31044 0.89538 0.0
H1071 H 0.37365 0.27451 0.86641 0.0
H1072 H 0.86961 0.77062 0.36262 0.0
H1073 H 0.90523 0.80563 0.39382 0.0
H1074 H 0.87224 0.86464 0.31879 0.0
H1075 H 0.83744 0.83 0.28744 0.0
H1076 H 0.93038 0.8741 0.34152 0.0
H1077 H 0.89443 0.85445 0.43729 0.0
H1078 H 0.90181 0.82672 0.43078 0.0
H1079 H 0.87253 0.8401 0.40163 0.0
C1080 C 0.86986 0.79108 0.35301 0.0
C1081 C 0.85072 0.79762 0.32271 0.0
C1082 C 0.89008 0.81103 0.37085 0.0
C1083 C 0.89118 0.83774 0.35872 0.0
C1084 C 0.87175 0.84418 0.32863 0.0
H1085 H 0.97119 0.97979 0.4455 0.0
H1086 H 0.93916 0.94076 0.42004 0.0
C1087 C 0.85177 0.82434 0.3108 0.0
C1088 C 0.91324 0.85924 0.3765 0.0
H1089 H 0.9366 0.8881 0.44142 0.0
C1090 C 0.93183 0.87712 0.36343 0.0
C1091 C 0.91491 0.86322 0.40494 0.0
C1092 C 0.89473 0.84528 0.41944 0.0
C1093 C 0.95174 0.89914 0.37774 0.0
C1094 C 0.95356 0.90303 0.40629 0.0
C1095 C 0.93526 0.88495 0.41961 0.0
C1096 C 0.97327 0.92648 0.42191 0.0
C1097 C 0.96986 0.91852 0.36155 0.0
C1098 C 1.00308 0.93134 0.4315 0.0
C1099 C 1.02139 0.95377 0.4458 0.0
C1100 C 1.01015 0.97141 0.45111 0.0
C1101 C 0.98036 0.96644 0.44168 0.0
C1102 C 0.96209 0.94414 0.42726 0.0
H1103 H 0.9609 0.9162 0.33664 0.0
H1104 H 0.97171 0.93918 0.3635 0.0
H1105 H 0.99175 0.91508 0.37252 0.0
H1106 H 1.0122 0.9177 0.42813 0.0
H1107 H 0.04432 0.95708 0.45314 0.0
H1108 H 0.45548 0.59727 0.55952 0.0
H1109 H 0.42793 0.61649 0.57364 0.0
H1110 H 0.50358 0.64258 0.65366 0.0
H1111 H 0.53121 0.62311 0.64007 0.0
H1112 H 0.41815 0.60681 0.62853 0.0
H1113 H 0.47648 0.7107 0.60835 0.0
H1114 H 0.47877 0.68389 0.5943 0.0
H1115 H 0.49904 0.68904 0.63425 0.0
C1116 C 0.46625 0.60682 0.58034 0.0
C1117 C 0.49571 0.60874 0.59851 0.0
C1118 C 0.45046 0.61793 0.58829 0.0
C1119 C 0.46376 0.63136 0.61444 0.0
C1120 C 0.49297 0.63282 0.633 0.0
H1121 H 0.38266 0.68076 0.70557 0.0
H1122 H 0.40867 0.65893 0.69241 0.0
C1123 C 0.50876 0.62169 0.62513 0.0
C1124 C 0.44714 0.64392 0.62225 0.0
H1125 H 0.44348 0.70345 0.63107 0.0
C1126 C 0.42367 0.62793 0.62907 0.0
C1127 C 0.45413 0.67154 0.62263 0.0
C1128 C 0.47831 0.68989 0.61424 0.0
C1129 C 0.4073 0.63877 0.6367 0.0
C1130 C 0.41472 0.66631 0.63777 0.0
C1131 C 0.43794 0.68232 0.63052 0.0
C1132 C 0.39831 0.67902 0.64569 0.0
C1133 C 0.38188 0.62072 0.64301 0.0
C1134 C 0.38408 0.69785 0.62399 0.0
C1135 C 0.36903 0.71027 0.63137 0.0
C1136 C 0.36807 0.7044 0.6608 0.0
C1137 C 0.38245 0.68552 0.68253 0.0
C1138 C 0.39741 0.67302 0.67506 0.0
H1139 H 0.37512 0.60137 0.63439 0.0
H1140 H 0.38774 0.61699 0.66834 0.0
H1141 H 0.36338 0.62997 0.63204 0.0
H1142 H 0.38445 0.70282 0.60118 0.0
H1143 H 0.3579 0.72432 0.6138 0.0
H1144 H 0.60069 0.07143 0.94556 0.0
H1145 H 0.62514 0.07217 0.91324 0.0
H1146 H 0.60329 0.98698 0.92433 0.0
H1147 H 0.57919 0.98593 0.95677 0.0
H1148 H 0.65944 1.00848 0.93022 0.0
H1149 H 0.58408 0.05419 0.82421 0.0
H1150 H 0.5977 0.07299 0.85573 0.0
H1151 H 0.57618 0.0397 0.85798 0.0
C1152 C 0.60113 0.05289 0.94116 0.0
C1153 C 0.58785 0.02871 0.9536 0.0
C1154 C 0.61495 0.05331 0.9226 0.0
C1155 C 0.61549 0.0296 0.91599 0.0
C1156 C 0.60291 1.00545 0.92899 0.0
H1157 H 0.68101 0.08918 0.77868 0.0
H1158 H 0.65676 0.04851 0.80122 0.0
C1159 C 0.58914 1.00499 0.94754 0.0
C1160 C 0.62923 0.03027 0.89542 0.0
H1161 H 0.63152 0.06076 0.82637 0.0
C1162 C 0.65309 0.01943 0.9072 0.0
C1163 C 0.62004 0.04325 0.86489 0.0
C1164 C 0.59287 0.05289 0.84983 0.0
C1165 C 0.67002 0.02409 0.89045 0.0
C1166 C 0.6632 0.04052 0.86174 0.0
C1167 C 0.63729 0.04847 0.84855 0.0
C1168 C 0.6849 0.05504 0.84868 0.0
C1169 C 0.69568 1.01234 0.90431 0.0
C1170 C 0.71081 0.07048 0.86771 0.0
C1171 C 0.7251 0.09337 0.8548 0.0
C1172 C 0.71323 0.10143 0.82283 0.0
C1173 C 0.6904 0.08364 0.80348 0.0
C1174 C 0.67644 0.06036 0.8164 0.0
H1175 H 0.6902 0.99176 0.91524 0.0
H1176 H 0.70349 1.01226 0.88676 0.0
H1177 H 0.71325 0.02385 0.92285 0.0
H1178 H 0.71797 0.06713 0.89263 0.0
H1179 H 0.74321 0.10647 0.87015 0.0
H1180 H 0.10882 0.47106 0.10307 0.0
H1181 H 0.14167 0.44204 0.12937 0.0
H1182 H 0.1274 0.42405 0.04135 0.0
H1183 H 0.09448 0.45323 0.0147 0.0
H1184 H 0.13091 0.38832 0.12771 0.0
H1185 H 0.21525 0.44514 0.0839 0.0
H1186 H 0.18752 0.45903 0.08073 0.0
H1187 H 0.17955 0.43642 0.05474 0.0
C1188 C 0.11262 0.46101 0.08917 0.0
C1189 C 0.09905 0.46473 0.05664 0.0
C1190 C 0.13149 0.44439 0.10432 0.0
C1191 C 0.13745 0.43114 0.08741 0.0
C1192 C 0.12369 0.43449 0.05494 0.0
H1193 H 0.24866 0.32023 0.15557 0.0
H1194 H 0.21668 0.34941 0.12199 0.0
C1195 C 0.10473 0.45113 0.03971 0.0
C1196 C 0.15746 0.41334 0.10407 0.0
H1197 H 0.22209 0.40477 0.11577 0.0
C1198 C 0.15081 0.39192 0.12503 0.0
C1199 C 0.18338 0.41787 0.10046 0.0
C1200 C 0.19209 0.44096 0.07894 0.0
C1201 C 0.16934 0.37509 0.14257 0.0
C1202 C 0.19564 0.38003 0.13964 0.0
C1203 C 0.20201 0.40104 0.11812 0.0
C1204 C 0.2171 0.36413 0.15966 0.0
C1205 C 0.16043 0.35197 0.16398 0.0
C1206 C 0.22889 0.36345 0.19193 0.0
C1207 C 0.24712 0.34688 0.21112 0.0
C1208 C 0.25424 0.33065 0.19854 0.0
C1209 C 0.24367 0.33242 0.1661 0.0
C1210 C 0.2253 0.34904 0.14685 0.0
H1211 H 0.13684 0.3465 0.15711 0.0
H1212 H 0.16716 0.33442 0.16433 0.0
H1213 H 0.17083 0.3574 0.18782 0.0
H1214 H 0.22349 0.37537 0.20238 0.0
H1215 H 0.25502 0.34632 0.23594 0.0
H1216 H 0.56652 0.66968 0.88338 0.0
H1217 H 0.57392 0.69923 0.83891 0.0
H1218 H 0.66536 0.70868 0.88836 0.0
H1219 H 0.65833 0.67917 0.93214 0.0
H1220 H 0.64923 0.75487 0.8488 0.0
H1221 H 0.59589 0.66371 0.78989 0.0
H1222 H 0.57645 0.67589 0.80346 0.0
H1223 H 0.60579 0.66177 0.83081 0.0
C1224 C 0.58823 0.6785 0.88496 0.0
C1225 C 0.6118 0.67159 0.91113 0.0
C1226 C 0.59238 0.69544 0.85959 0.0
C1227 C 0.62013 0.70568 0.8602 0.0
C1228 C 0.64374 0.70099 0.88745 0.0
H1229 H 0.7426 0.72345 0.80945 0.0
H1230 H 0.70566 0.72176 0.82658 0.0
C1231 C 0.63965 0.68409 0.91263 0.0
C1232 C 0.62524 0.71737 0.83176 0.0
H1233 H 0.62978 0.69593 0.77433 0.0
C1234 C 0.64396 0.74248 0.83157 0.0
C1235 C 0.61826 0.7012 0.8092 0.0
C1236 C 0.59804 0.67411 0.80814 0.0
C1237 C 0.65859 0.75041 0.81197 0.0
C1238 C 0.6544 0.73276 0.79242 0.0
C1239 C 0.63295 0.70925 0.78963 0.0
C1240 C 0.6765 0.73516 0.78125 0.0
C1241 C 0.68072 0.77631 0.8146 0.0
C1242 C 0.67197 0.74291 0.75003 0.0
C1243 C 0.69333 0.74428 0.74031 0.0
C1244 C 0.71918 0.73768 0.76174 0.0
C1245 C 0.7232 0.72931 0.79274 0.0
C1246 C 0.70212 0.72824 0.80247 0.0
H1247 H 0.6765 0.79034 0.8243 0.0
H1248 H 0.70212 0.77259 0.83023 0.0
H1249 H 0.68128 0.78547 0.79169 0.0
H1250 H 0.65214 0.74803 0.73337 0.0
H1251 H 0.6898 0.7508 0.71622 0.0
H1252 H 0.72391 0.31783 0.23927 0.0
H1253 H 0.69226 0.34731 0.20787 0.0
H1254 H 0.71126 0.34936 0.13009 0.0
H1255 H 0.74262 0.31936 0.16118 0.0
H1256 H 0.70498 0.39715 0.1807 0.0
H1257 H 0.62435 0.33298 0.09122 0.0
H1258 H 0.65048 0.32068 0.12677 0.0
H1259 H 0.66042 0.33811 0.09509 0.0
C1260 C 0.72128 0.32436 0.21542 0.0
C1261 C 0.73579 0.31607 0.20274 0.0
C1262 C 0.70314 0.34127 0.19749 0.0
C1263 C 0.699 0.35028 0.16646 0.0
C1264 C 0.71355 0.34219 0.15375 0.0
H1265 H 0.63608 0.48861 0.0587 0.0
H1266 H 0.66461 0.45641 0.08931 0.0
C1267 C 0.73164 0.32515 0.17164 0.0
C1268 C 0.68035 0.36895 0.14794 0.0
H1269 H 0.62179 0.37786 0.08145 0.0
C1270 C 0.68673 0.39287 0.15905 0.0
C1271 C 0.65625 0.36322 0.11993 0.0
C1272 C 0.64724 0.33725 0.10765 0.0
C1273 C 0.67005 0.41139 0.14269 0.0
C1274 C 0.64666 0.40615 0.11405 0.0
C1275 C 0.6399 0.38201 0.10323 0.0
C1276 C 0.62907 0.42554 0.09497 0.0
C1277 C 0.6774 0.43623 0.15654 0.0
C1278 C 0.59937 0.41869 0.08712 0.0
C1279 C 0.58287 0.43705 0.06934 0.0
C1280 C 0.59576 0.46261 0.05897 0.0
C1281 C 0.62545 0.46923 0.06653 0.0
C1282 C 0.64187 0.45086 0.08419 0.0
H1283 H 0.69012 0.43378 0.18194 0.0
H1284 H 0.69049 0.45258 0.146 0.0
H1285 H 0.65772 0.44203 0.15197 0.0
H1286 H 0.58899 0.39922 0.09504 0.0
H1287 H 0.56006 0.43121 0.0639 0.0
H1288 H 0.97551 0.4584 0.48625 0.0
H1289 H 0.94696 0.42219 0.45436 0.0
H1290 H 0.94679 0.47658 0.37251 0.0
H1291 H 0.97584 0.51253 0.40425 0.0
H1292 H 0.89307 0.41667 0.405 0.0
H1293 H 0.97681 0.4181 0.36723 0.0
H1294 H 0.98457 0.43464 0.39911 0.0
H1295 H 0.96917 0.44974 0.35988 0.0
C1296 C 0.9695 0.4625 0.46147 0.0
C1297 C 0.97819 0.48808 0.44769 0.0
C1298 C 0.95315 0.44189 0.44331 0.0
C1299 C 0.94529 0.44665 0.41118 0.0
C1300 C 0.95322 0.47239 0.39735 0.0
H1301 H 0.84297 0.35868 0.25514 0.0
H1302 H 0.87104 0.39252 0.29033 0.0
C1303 C 0.96961 0.49292 0.41546 0.0
C1304 C 0.92854 0.42484 0.39191 0.0
H1305 H 0.92956 0.39309 0.34011 0.0
C1306 C 0.90111 0.41132 0.39101 0.0
C1307 C 0.9392 0.41788 0.37381 0.0
C1308 C 0.96916 0.43066 0.37522 0.0
C1309 C 0.88366 0.39153 0.37171 0.0
C1310 C 0.89409 0.38511 0.35308 0.0
C1311 C 0.92164 0.39831 0.3543 0.0
C1312 C 0.87667 0.36471 0.33204 0.0
C1313 C 0.85398 0.37802 0.37075 0.0
C1314 C 0.87091 0.33798 0.344 0.0
C1315 C 0.85515 0.31867 0.32401 0.0
C1316 C 0.84475 0.32588 0.2918 0.0
C1317 C 0.85065 0.35266 0.27989 0.0
C1318 C 0.8666 0.37195 0.2999 0.0
H1319 H 0.84733 0.38832 0.3825 0.0
H1320 H 0.83802 0.37698 0.34644 0.0
H1321 H 0.85361 0.35748 0.38249 0.0
H1322 H 0.87894 0.33204 0.36877 0.0
H1323 H 0.85131 0.29811 0.33377 0.0
H1324 H 0.56309 0.56074 0.42014 0.0
H1325 H 0.59025 0.58964 0.38924 0.0
H1326 H 0.66337 0.61016 0.47304 0.0
H1327 H 0.63648 0.58176 0.50347 0.0
H1328 H 0.63446 0.59661 0.37442 0.0
H1329 H 0.67299 0.68351 0.43496 0.0
H1330 H 0.68423 0.65551 0.46127 0.0
H1331 H 0.64657 0.65502 0.44182 0.0
C1332 C 0.5849 0.57141 0.4324 0.0
C1333 C 0.59645 0.56799 0.46556 0.0
C1334 C 0.601 0.58845 0.4142 0.0
C1335 C 0.62997 0.60401 0.42735 0.0
C1336 C 0.64138 0.60017 0.46046 0.0
H1337 H 0.72173 0.74313 0.32028 0.0
H1338 H 0.6933 0.71425 0.34957 0.0
C1339 C 0.62549 0.5831 0.47852 0.0
C1340 C 0.64796 0.62331 0.40736 0.0
H1341 H 0.69526 0.68515 0.40184 0.0
C1342 C 0.64764 0.6159 0.38096 0.0
C1343 C 0.66579 0.64956 0.41357 0.0
C1344 C 0.6673 0.66158 0.4392 0.0
C1345 C 0.66383 0.63228 0.36255 0.0
C1346 C 0.68246 0.65816 0.36944 0.0
C1347 C 0.68217 0.66583 0.39534 0.0
C1348 C 0.70143 0.67718 0.35034 0.0
C1349 C 0.65976 0.62152 0.33475 0.0
C1350 C 0.71758 0.66818 0.3397 0.0
C1351 C 0.7345 0.68525 0.3226 0.0
C1352 C 0.7371 0.71313 0.31434 0.0
C1353 C 0.72123 0.72229 0.32517 0.0
C1354 C 0.70445 0.7052 0.34254 0.0
H1355 H 0.63895 0.6067 0.32631 0.0
H1356 H 0.66053 0.6375 0.31547 0.0
H1357 H 0.67709 0.61152 0.34131 0.0
H1358 H 0.71774 0.64751 0.34506 0.0
H1359 H 0.7458 0.6762 0.31575 0.0
H1360 H 0.85645 0.28993 0.8374 0.0
H1361 H 0.89124 0.323 0.87148 0.0
H1362 H 0.82311 0.35704 0.85682 0.0
H1363 H 0.78811 0.32367 0.82292 0.0
H1364 H 0.90545 0.37653 0.85929 0.0
H1365 H 0.86276 0.34668 0.95055 0.0
H1366 H 0.85165 0.32641 0.92076 0.0
H1367 H 0.83666 0.35416 0.91253 0.0
C1368 C 0.8489 0.30448 0.84146 0.0
C1369 C 0.81962 0.30432 0.82753 0.0
C1370 C 0.86879 0.32334 0.86095 0.0
C1371 C 0.85977 0.34231 0.86705 0.0
C1372 C 0.8305 0.34226 0.853 0.0
H1373 H 0.97188 0.48763 0.94405 0.0
H1374 H 0.93685 0.45431 0.91043 0.0
C1375 C 0.81054 0.32329 0.83355 0.0
C1376 C 0.8812 0.36234 0.88769 0.0
H1377 H 0.89916 0.38653 0.95431 0.0
C1378 C 0.90412 0.37868 0.88011 0.0
C1379 C 0.87968 0.36488 0.91509 0.0
C1380 C 0.85654 0.34695 0.92545 0.0
C1381 C 0.92537 0.39767 0.89896 0.0
C1382 C 0.92331 0.40082 0.92581 0.0
C1383 C 0.90059 0.38426 0.93359 0.0
C1384 C 0.94457 0.42107 0.94622 0.0
C1385 C 0.95013 0.41378 0.89026 0.0
C1386 C 0.95999 0.41358 0.97777 0.0
C1387 C 0.97987 0.43264 0.99709 0.0
C1388 C 0.98466 0.4595 0.98517 0.0
C1389 C 0.96897 0.467 0.95372 0.0
C1390 C 0.94902 0.44798 0.93446 0.0
H1391 H 0.95295 0.40393 0.87472 0.0
H1392 H 0.94585 0.43322 0.87778 0.0
H1393 H 0.97052 0.41729 0.91111 0.0
H1394 H 0.95677 0.39295 0.9874 0.0
H1395 H 0.99162 0.42636 0.02129 0.0
H1396 H 0.85499 0.78811 0.19423 0.0
H1397 H 0.88393 0.81706 0.16554 0.0
H1398 H 0.86001 0.88391 0.17061 0.0
H1399 H 0.83147 0.85514 0.19937 0.0
H1400 H 0.88293 0.84644 0.11389 0.0
H1401 H 0.93884 0.92446 0.18999 0.0
H1402 H 0.91697 0.89368 0.20044 0.0
H1403 H 0.9007 0.91983 0.17459 0.0
C1404 C 0.85572 0.80898 0.18961 0.0
C1405 C 0.83983 0.81814 0.20044 0.0
C1406 C 0.8728 0.82612 0.17259 0.0
C1407 C 0.87615 0.8542 0.16512 0.0
C1408 C 0.85996 0.8632 0.17574 0.0
H1409 H 1.01604 0.97082 0.09753 0.0
H1410 H 0.98839 0.94188 0.12791 0.0
C1411 C 0.84275 0.84608 0.19251 0.0
C1412 C 0.89546 0.87327 0.14638 0.0
H1413 H 0.94385 0.93473 0.14216 0.0
C1414 C 0.89604 0.8657 0.12058 0.0
C1415 C 0.91416 0.89908 0.15353 0.0
C1416 C 0.91799 0.90974 0.18129 0.0
C1417 C 0.91274 0.882 0.10268 0.0
C1418 C 0.93063 0.90819 0.10913 0.0
C1419 C 0.93066 0.9155 0.13544 0.0
C1420 C 0.94896 0.92754 0.08949 0.0
C1421 C 0.9115 0.87005 0.07716 0.0
C1422 C 0.93791 0.93143 0.05639 0.0
C1423 C 0.95409 0.94852 0.03862 0.0
C1424 C 0.98311 0.96361 0.05189 0.0
C1425 C 0.9943 0.96016 0.08504 0.0
C1426 C 0.9779 0.94309 0.10294 0.0
H1427 H 0.90573 0.84812 0.08129 0.0
H1428 H 0.89473 0.8762 0.05497 0.0
H1429 H 0.93235 0.87658 0.07481 0.0
H1430 H 0.91598 0.92147 0.04357 0.0
H1431 H 0.94335 0.94988 0.01366 0.0
H1432 H 0.79777 0.17382 0.80547 0.0
H1433 H 0.82379 0.13919 0.83364 0.0
H1434 H 0.90425 0.1975 0.85037 0.0
H1435 H 0.87847 0.23198 0.82149 0.0
H1436 H 0.90643 0.15548 0.83407 0.0
H1437 H 0.86356 0.1215 0.92518 0.0
H1438 H 0.83612 0.11923 0.88677 0.0
H1439 H 0.85782 0.1511 0.89845 0.0
C1440 C 0.82102 0.17931 0.81521 0.0
C1441 C 0.83596 0.20582 0.81122 0.0
C1442 C 0.83592 0.15944 0.83156 0.0
C1443 C 0.86613 0.16563 0.84479 0.0
C1444 C 0.881 0.19207 0.84056 0.0
H1445 H 0.98035 0.07425 0.99013 0.0
H1446 H 0.94844 0.10348 0.95842 0.0
C1447 C 0.86616 0.21185 0.824 0.0
C1448 C 0.88246 0.14477 0.86254 0.0
H1449 H 0.89234 0.09643 0.92469 0.0
C1450 C 0.90328 0.14257 0.85387 0.0
C1451 C 0.87874 0.128 0.88868 0.0
C1452 C 0.85807 0.13018 0.90056 0.0
C1453 C 0.92047 0.12437 0.87051 0.0
C1454 C 0.91632 0.10719 0.89622 0.0
C1455 C 0.89541 0.1093 0.90483 0.0
C1456 C 0.93454 0.08804 0.91557 0.0
C1457 C 0.94367 0.12452 0.861 0.0
C1458 C 0.93704 0.06895 0.90243 0.0
C1459 C 0.95558 0.05224 0.92058 0.0
C1460 C 0.97174 0.05394 0.95241 0.0
C1461 C 0.9683 0.07231 0.96572 0.0
C1462 C 0.94998 0.08911 0.94755 0.0
H1463 H 0.94919 0.14332 0.84674 0.0
H1464 H 0.96348 0.12161 0.88153 0.0
H1465 H 0.93601 0.1082 0.84691 0.0
H1466 H 0.92483 0.06711 0.87803 0.0
H1467 H 0.95754 0.03825 0.90957 0.0
H1468 H 0.72219 0.23727 0.69018 0.0
H1469 H 0.68869 0.20216 0.65835 0.0
H1470 H 0.75979 0.17477 0.66857 0.0
H1471 H 0.79344 0.20963 0.70096 0.0
H1472 H 0.71649 0.18242 0.60539 0.0
H1473 H 0.66936 0.12106 0.68883 0.0
H1474 H 0.67177 0.15591 0.68305 0.0
H1475 H 0.70398 0.14433 0.70076 0.0
C1476 C 0.73065 0.22353 0.686 0.0
C1477 C 0.76036 0.22588 0.6984 0.0
C1478 C 0.71151 0.20352 0.66781 0.0
C1479 C 0.72177 0.18564 0.66153 0.0
C1480 C 0.75147 0.18826 0.67338 0.0
H1481 H 0.63855 0.05949 0.54369 0.0
H1482 H 0.67333 0.09226 0.57835 0.0
C1483 C 0.77063 0.20818 0.69178 0.0
C1484 C 0.70148 0.16478 0.64172 0.0
H1485 H 0.64736 0.10912 0.63812 0.0
C1486 C 0.70147 0.16628 0.61256 0.0
C1487 C 0.68187 0.14387 0.65117 0.0
C1488 C 0.68173 0.14093 0.68274 0.0
C1489 C 0.68192 0.14772 0.59222 0.0
C1490 C 0.66227 0.12674 0.60164 0.0
C1491 C 0.6624 0.1252 0.63092 0.0
C1492 C 0.64127 0.10635 0.5813 0.0
C1493 C 0.68194 0.15121 0.56051 0.0
C1494 C 0.6117 0.10282 0.57217 0.0
C1495 C 0.59182 0.08398 0.55256 0.0
C1496 C 0.60118 0.06824 0.5419 0.0
C1497 C 0.63076 0.07151 0.55139 0.0
C1498 C 0.65063 0.0903 0.57107 0.0
H1499 H 0.69261 0.17175 0.55393 0.0
H1500 H 0.69385 0.13781 0.56049 0.0
H1501 H 0.65973 0.14624 0.54265 0.0
H1502 H 0.60398 0.1149 0.57988 0.0
H1503 H 0.56912 0.08193 0.5455 0.0
H1504 H 0.55313 0.91596 0.38555 0.0
H1505 H 0.57476 0.89186 0.36913 0.0
H1506 H 0.64849 0.95805 0.3815 0.0
H1507 H 0.62723 0.98199 0.3984 0.0
H1508 H 0.58986 0.90393 0.32056 0.0
H1509 H 0.68643 0.89818 0.42916 0.0
H1510 H 0.65639 0.90785 0.42708 0.0
H1511 H 0.68304 0.93149 0.41475 0.0
C1512 C 0.57398 0.92532 0.38479 0.0
C1513 C 0.5886 0.95078 0.39346 0.0
C1514 C 0.58634 0.91151 0.37551 0.0
C1515 C 0.61351 0.92292 0.3747 0.0
C1516 C 0.62791 0.94851 0.38286 0.0
H1517 H 0.7223 0.89533 0.30685 0.0
H1518 H 0.69735 0.91142 0.32754 0.0
C1519 C 0.6157 0.96222 0.3924 0.0
C1520 C 0.62637 0.90856 0.36417 0.0
H1521 H 0.68744 0.88915 0.38396 0.0
C1522 C 0.61103 0.90036 0.33458 0.0
C1523 C 0.65393 0.90378 0.38257 0.0
C1524 C 0.67077 0.91054 0.41527 0.0
C1525 C 0.62304 0.88856 0.32238 0.0
C1526 C 0.651 0.88474 0.34035 0.0
C1527 C 0.66603 0.89225 0.37022 0.0
C1528 C 0.66576 0.87447 0.32786 0.0
C1529 C 0.60625 0.88118 0.28994 0.0
C1530 C 0.65636 0.84825 0.32145 0.0
C1531 C 0.67056 0.83897 0.30951 0.0
C1532 C 0.6943 0.85583 0.3037 0.0
C1533 C 0.70376 0.88199 0.31052 0.0
C1534 C 0.68968 0.89117 0.32255 0.0
H1535 H 0.58684 0.88919 0.27739 0.0
H1536 H 0.61989 0.88856 0.27652 0.0
H1537 H 0.5993 0.85935 0.29098 0.0
H1538 H 0.63812 0.83499 0.32576 0.0
H1539 H 0.66275 0.81875 0.30444 0.0
H1540 H 0.84029 0.21194 0.36048 0.0
H1541 H 0.87028 0.18073 0.39103 0.0
H1542 H 0.88226 0.17653 0.31066 0.0
H1543 H 0.85185 0.20718 0.27979 0.0
H1544 H 0.87015 0.12809 0.34129 0.0
H1545 H 0.95676 0.19537 0.42414 0.0
H1546 H 0.92184 0.19169 0.42281 0.0
H1547 H 0.9295 0.20693 0.38919 0.0
C1548 C 0.84938 0.20446 0.3493 0.0
C1549 C 0.84372 0.21221 0.31768 0.0
C1550 C 0.86668 0.18672 0.36688 0.0
C1551 C 0.87897 0.17662 0.3533 0.0
C1552 C 0.87314 0.18414 0.32169 0.0
H1553 H 1.01835 0.09723 0.45007 0.0
H1554 H 0.98793 0.128 0.41956 0.0
C1555 C 0.85574 0.20173 0.30407 0.0
C1556 C 0.89737 0.15776 0.37174 0.0
H1557 H 0.95844 0.15026 0.43553 0.0
C1558 C 0.88949 0.13296 0.36187 0.0
C1559 C 0.92285 0.16425 0.39833 0.0
C1560 C 0.93345 0.19109 0.40912 0.0
C1561 C 0.90616 0.11439 0.378 0.0
C1562 C 0.93109 0.12053 0.40521 0.0
C1563 C 0.93917 0.14545 0.41488 0.0
C1564 C 0.94938 0.10159 0.42367 0.0
C1565 C 0.89722 0.08863 0.36531 0.0
C1566 C 0.93795 0.07655 0.43647 0.0
C1567 C 0.95525 0.05878 0.45373 0.0
C1568 C 0.98445 0.0658 0.45888 0.0
C1569 C 0.99594 0.09107 0.44646 0.0
C1570 C 0.97859 0.10875 0.42905 0.0
H1571 H 0.88284 0.09007 0.34031 0.0
H1572 H 0.91618 0.08235 0.36843 0.0
H1573 H 0.88534 0.07306 0.37784 0.0
H1574 H 0.91567 0.0708 0.4333 0.0
H1575 H 0.94574 0.03961 0.4632 0.0
H1576 H 0.77117 0.20419 0.22083 0.0
H1577 H 0.74137 0.17014 0.18619 0.0
H1578 H 0.67043 0.16371 0.20898 0.0
H1579 H 0.7001 0.19842 0.24289 0.0
H1580 H 0.71305 0.11759 0.20173 0.0
H1581 H 0.63651 0.17543 0.11304 0.0
H1582 H 0.67078 0.19069 0.14101 0.0
H1583 H 0.64125 0.17432 0.15223 0.0
C1584 C 0.74898 0.19603 0.21763 0.0
C1585 C 0.73745 0.20443 0.23341 0.0
C1586 C 0.73214 0.17635 0.1983 0.0
C1587 C 0.70355 0.16484 0.19458 0.0
C1588 C 0.69226 0.17278 0.21105 0.0
H1589 H 0.59061 0.02092 0.11626 0.0
H1590 H 0.62166 0.05497 0.15056 0.0
C1591 C 0.70917 0.19242 0.23045 0.0
C1592 C 0.68573 0.14412 0.17396 0.0
H1593 H 0.62555 0.13007 0.10821 0.0
C1594 C 0.69395 0.12029 0.18124 0.0
C1595 C 0.66101 0.1479 0.14713 0.0
C1596 C 0.6519 0.17353 0.13762 0.0
C1597 C 0.6778 0.0999 0.16257 0.0
C1598 C 0.65272 0.10344 0.13616 0.0
C1599 C 0.64472 0.12741 0.12863 0.0
C1600 C 0.63457 0.08259 0.1158 0.0
C1601 C 0.68787 0.07487 0.17099 0.0
C1602 C 0.63139 0.08702 0.08491 0.0
C1603 C 0.61375 0.06763 0.06536 0.0
C1604 C 0.59873 0.04369 0.07633 0.0
C1605 C 0.60205 0.03921 0.10731 0.0
C1606 C 0.61979 0.05857 0.12689 0.0
H1607 H 0.71067 0.07758 0.18767 0.0
H1608 H 0.6746 0.05912 0.18185 0.0
H1609 H 0.68543 0.06803 0.15003 0.0
H1610 H 0.64263 0.10546 0.07596 0.0
H1611 H 0.61175 0.07142 0.04164 0.0
H1612 H 0.73032 0.87112 0.84786 0.0
H1613 H 0.70268 0.88847 0.86381 0.0
H1614 H 0.67709 0.81145 0.90997 0.0
H1615 H 0.70327 0.79361 0.89268 0.0
H1616 H 0.633 0.83394 0.88019 0.0
H1617 H 0.72737 0.90638 0.94884 0.0
H1618 H 0.72176 0.91091 0.90892 0.0
H1619 H 0.73081 0.88121 0.9333 0.0
C1620 C 0.71855 0.85775 0.86108 0.0
C1621 C 0.71948 0.83098 0.86931 0.0
C1622 C 0.70304 0.86783 0.87059 0.0
C1623 C 0.68835 0.85148 0.88886 0.0
C1624 C 0.68849 0.8246 0.89625 0.0
H1625 H 0.63307 0.89904 1.00575 0.0
H1626 H 0.65731 0.88359 0.98353 0.0
C1627 C 0.70378 0.81447 0.88658 0.0
C1628 C 0.67286 0.86221 0.90037 0.0
H1629 H 0.68189 0.90838 0.9432 0.0
C1630 C 0.64371 0.85024 0.89395 0.0
C1631 C 0.68684 0.88325 0.91873 0.0
C1632 C 0.71847 0.89603 0.92815 0.0
C1633 C 0.62824 0.85867 0.90528 0.0
C1634 C 0.64205 0.88013 0.92299 0.0
C1635 C 0.67118 0.8921 0.92941 0.0
C1636 C 0.62707 0.88981 0.93615 0.0
C1637 C 0.59749 0.84391 0.89898 0.0
C1638 C 0.60212 0.89883 0.91697 0.0
C1639 C 0.58813 0.90763 0.92967 0.0
C1640 C 0.59898 0.90794 0.96183 0.0
C1641 C 0.62423 0.89931 0.98089 0.0
C1642 C 0.63809 0.89037 0.9682 0.0
H1643 H 0.59265 0.82395 0.89265 0.0
H1644 H 0.59259 0.8417 0.91945 0.0
H1645 H 0.58301 0.85509 0.87933 0.0
H1646 H 0.59356 0.89928 0.89212 0.0
H1647 H 0.56904 0.91458 0.91425 0.0
H1648 H 0.92928 0.85789 0.59916 0.0
H1649 H 0.92042 0.83005 0.64285 0.0
H1650 H 1.0115 0.84171 0.69735 0.0
H1651 H 1.02076 0.86983 0.65307 0.0
H1652 H 0.93559 0.78496 0.68269 0.0
H1653 H 0.98486 0.8751 0.74318 0.0
H1654 H 0.97749 0.87739 0.70282 0.0
H1655 H 1.00635 0.86348 0.7319 0.0
C1656 C 0.94756 0.85388 0.61994 0.0
C1657 C 0.97576 0.86635 0.62266 0.0
C1658 C 0.94242 0.83798 0.64505 0.0
C1659 C 0.9653 0.8342 0.67347 0.0
C1660 C 0.99357 0.84481 0.67573 0.0
H1661 H 0.89205 0.78442 0.81489 0.0
H1662 H 0.93005 0.7891 0.79744 0.0
C1663 C 0.99878 0.86086 0.65045 0.0
C1664 C 0.95859 0.82211 0.7009 0.0
H1665 H 0.95117 0.84159 0.75773 0.0
C1666 C 0.9399 0.79689 0.69997 0.0
C1667 C 0.96431 0.83772 0.72347 0.0
C1668 C 0.98427 0.86496 0.72558 0.0
C1669 C 0.92416 0.78824 0.71845 0.0
C1670 C 0.92746 0.80513 0.73838 0.0
C1671 C 0.94872 0.82883 0.7422 0.0
C1672 C 0.90507 0.80149 0.7496 0.0
C1673 C 0.90201 0.76231 0.7143 0.0
C1674 C 0.87897 0.80755 0.72851 0.0
C1675 C 0.85767 0.80541 0.73842 0.0
C1676 C 0.86197 0.7968 0.76947 0.0
C1677 C 0.88828 0.79106 0.79075 0.0
C1678 C 0.90984 0.79352 0.78086 0.0
H1679 H 0.90708 0.7487 0.70486 0.0
H1680 H 0.90031 0.75258 0.73658 0.0
H1681 H 0.88083 0.76608 0.69771 0.0
H1682 H 0.87522 0.81424 0.70438 0.0
H1683 H 0.83791 0.81069 0.72182 0.0
H1684 H 0.19022 0.78882 0.87777 0.0
H1685 H 0.16274 0.80948 0.89029 0.0
H1686 H 0.20392 0.88616 0.85691 0.0
H1687 H 0.23098 0.86565 0.84368 0.0
H1688 H 0.18392 0.84754 0.93096 0.0
H1689 H 0.11847 0.88592 0.81156 0.0
H1690 H 0.13767 0.86121 0.81948 0.0
H1691 H 0.15647 0.8954 0.82158 0.0
C1692 C 0.19315 0.81005 0.87266 0.0
C1693 C 0.2128 0.82552 0.85958 0.0
C1694 C 0.17755 0.82186 0.88004 0.0
C1695 C 0.18096 0.84936 0.87422 0.0
C1696 C 0.20053 0.86488 0.86118 0.0
H1697 H 0.10665 0.95691 0.905 0.0
H1698 H 0.13475 0.9373 0.8921 0.0
C1699 C 0.21624 0.85311 0.85392 0.0
C1700 C 0.16468 0.86186 0.88263 0.0
H1701 H 0.11575 0.89961 0.85253 0.0
C1702 C 0.16892 0.85883 0.91379 0.0
C1703 C 0.14521 0.87673 0.86027 0.0
C1704 C 0.13891 0.87988 0.8263 0.0
C1705 C 0.15457 0.87052 0.92325 0.0
C1706 C 0.13494 0.88525 0.90087 0.0
C1707 C 0.13079 0.88838 0.86971 0.0
C1708 C 0.11818 0.89721 0.90924 0.0
C1709 C 0.16106 0.86747 0.95727 0.0
C1710 C 0.09928 0.88124 0.92294 0.0
C1711 C 0.08331 0.8924 0.9305 0.0
C1712 C 0.08566 0.91984 0.92436 0.0
C1713 C 0.10454 0.93579 0.91047 0.0
C1714 C 0.12049 0.92457 0.90287 0.0
H1715 H 0.18198 0.86228 0.9719 0.0
H1716 H 0.16148 0.88589 0.96392 0.0
H1717 H 0.1441 0.85133 0.96234 0.0
H1718 H 0.09669 0.86004 0.9276 0.0
H1719 H 0.06924 0.87949 0.94141 0.0
H1720 H 0.98329 0.46279 0.56941 0.0
H1721 H 0.96133 0.45832 0.60552 0.0
H1722 H 1.0113 0.53615 0.63016 0.0
H1723 H 1.03303 0.54077 0.59401 0.0
H1724 H 0.98697 0.46049 0.66778 0.0
H1725 H 0.93012 0.54114 0.6075 0.0
H1726 H 0.94549 0.52819 0.58957 0.0
H1727 H 0.96822 0.55026 0.6182 0.0
C1728 C 0.9897 0.4788 0.58273 0.0
C1729 C 1.00949 0.50224 0.57867 0.0
C1730 C 0.97708 0.47635 0.60315 0.0
C1731 C 0.98423 0.4972 0.6199 0.0
C1732 C 1.00486 0.52019 0.61677 0.0
H1733 H 0.91649 0.43711 0.75917 0.0
H1734 H 0.94748 0.47331 0.73926 0.0
C1735 C 1.0173 0.52272 0.59621 0.0
C1736 C 0.97049 0.49429 0.6412 0.0
H1737 H 0.9229 0.51635 0.65175 0.0
C1738 C 0.97328 0.4729 0.66466 0.0
C1739 C 0.95283 0.51074 0.63694 0.0
C1740 C 0.94873 0.53378 0.61159 0.0
C1741 C 0.95742 0.46626 0.68277 0.0
C1742 C 0.93896 0.48218 0.678 0.0
C1743 C 0.93742 0.50455 0.65567 0.0
C1744 C 0.91727 0.47251 0.6915 0.0
C1745 C 0.95887 0.44097 0.70497 0.0
C1746 C 0.88861 0.46321 0.67174 0.0
C1747 C 0.87044 0.44307 0.68318 0.0
C1748 C 0.88113 0.43174 0.71424 0.0
C1749 C 0.90777 0.44492 0.73494 0.0
C1750 C 0.92568 0.46558 0.72356 0.0
H1751 H 0.97096 0.42914 0.70223 0.0
H1752 H 0.96982 0.44573 0.72912 0.0
H1753 H 0.93696 0.42847 0.70141 0.0
H1754 H 0.88141 0.46883 0.64694 0.0
H1755 H 0.84947 0.43402 0.66693 0.0
H1756 H 0.47332 0.05867 0.41557 0.0
H1757 H 0.44011 0.08733 0.38621 0.0
H1758 H 0.44557 0.10326 0.47139 0.0
H1759 H 0.47903 0.07504 0.50091 0.0
H1760 H 0.38673 0.08375 0.38483 0.0
H1761 H 0.46284 0.1774 0.42708 0.0
H1762 H 0.47449 0.14798 0.43259 0.0
H1763 H 0.45913 0.15124 0.45719 0.0
C1764 C 0.46759 0.06835 0.42811 0.0
C1765 C 0.47911 0.06461 0.46069 0.0
C1766 C 0.44852 0.08472 0.41125 0.0
C1767 C 0.44062 0.09785 0.42653 0.0
C1768 C 0.45177 0.09387 0.45902 0.0
H1769 H 0.33168 0.21068 0.35593 0.0
H1770 H 0.36022 0.17873 0.38946 0.0
C1771 C 0.47084 0.07754 0.47589 0.0
C1772 C 0.42042 0.11535 0.40845 0.0
H1773 H 0.41449 0.17895 0.39603 0.0
C1774 C 0.39284 0.10456 0.38728 0.0
C1775 C 0.42823 0.14253 0.41172 0.0
C1776 C 0.45785 0.1556 0.43315 0.0
C1777 C 0.37291 0.1201 0.36943 0.0
C1778 C 0.38087 0.14736 0.37234 0.0
C1779 C 0.40829 0.15806 0.39386 0.0
C1780 C 0.36178 0.16542 0.35202 0.0
C1781 C 0.34336 0.10707 0.34783 0.0
C1782 C 0.35305 0.16859 0.31981 0.0
C1783 C 0.33675 0.18673 0.30064 0.0
C1784 C 0.32885 0.20239 0.31316 0.0
C1785 C 0.33715 0.19887 0.34542 0.0
C1786 C 0.3536 0.18068 0.36466 0.0
H1787 H 0.33772 0.08548 0.35516 0.0
H1788 H 0.32678 0.11586 0.34663 0.0
H1789 H 0.34287 0.10989 0.32425 0.0
H1790 H 0.35954 0.15754 0.30946 0.0
H1791 H 0.33094 0.18889 0.27597 0.0
H1792 H 0.53314 0.57216 0.05902 0.0
H1793 H 0.56385 0.6125 0.08286 0.0
H1794 H 0.63909 0.58724 0.10195 0.0
H1795 H 0.60856 0.54711 0.07806 0.0
H1796 H 0.60539 0.61863 0.14227 0.0
H1797 H 0.65337 0.66167 0.05589 0.0
H1798 H 0.62172 0.63467 0.04924 0.0
H1799 H 0.65676 0.62854 0.07216 0.0
C1800 C 0.55624 0.57521 0.0685 0.0
C1801 C 0.56857 0.55676 0.06649 0.0
C1802 C 0.57372 0.59826 0.08194 0.0
C1803 C 0.60372 0.60314 0.09347 0.0
C1804 C 0.61599 0.58421 0.09243 0.0
H1805 H 0.73661 0.70056 0.22795 0.0
H1806 H 0.70096 0.66581 0.19722 0.0
C1807 C 0.59856 0.56123 0.07902 0.0
C1808 C 0.62236 0.62763 0.10744 0.0
H1809 H 0.67714 0.68066 0.10354 0.0
C1810 C 0.62086 0.63235 0.13362 0.0
C1811 C 0.64217 0.64577 0.09575 0.0
C1812 C 0.64346 0.64261 0.06653 0.0
C1813 C 0.63957 0.65407 0.14931 0.0
C1814 C 0.66063 0.67125 0.13882 0.0
C1815 C 0.66123 0.66726 0.11177 0.0
C1816 C 0.68306 0.69259 0.1566 0.0
C1817 C 0.63673 0.65833 0.17714 0.0
C1818 C 0.6856 0.7192 0.14352 0.0
C1819 C 0.70627 0.73921 0.16103 0.0
C1820 C 0.72474 0.73281 0.19174 0.0
C1821 C 0.72266 0.70612 0.20436 0.0
C1822 C 0.70212 0.68623 0.18692 0.0
H1823 H 0.61487 0.64865 0.17657 0.0
H1824 H 0.65228 0.64957 0.19847 0.0
H1825 H 0.64138 0.67971 0.17854 0.0
H1826 H 0.67123 0.72448 0.12004 0.0
H1827 H 0.70749 0.75963 0.15075 0.0
H1828 H 0.21105 0.25851 0.65473 0.0
H1829 H 0.17455 0.22311 0.62475 0.0
H1830 H 0.20661 0.16492 0.70145 0.0
H1831 H 0.24242 0.19999 0.73161 0.0
H1832 H 0.17874 0.18044 0.60647 0.0
H1833 H 0.12191 0.14616 0.68501 0.0
H1834 H 0.14834 0.17722 0.6867 0.0
H1835 H 0.1594 0.1469 0.705 0.0
C1836 C 0.21032 0.23814 0.66507 0.0
C1837 C 0.22941 0.23198 0.69552 0.0
C1838 C 0.1895 0.21798 0.64797 0.0
C1839 C 0.18748 0.19143 0.66115 0.0
C1840 C 0.2073 0.18528 0.69112 0.0
H1841 H 0.10799 0.048 0.57725 0.0
H1842 H 0.13984 0.0879 0.6008 0.0
C1843 C 0.22794 0.20535 0.70821 0.0
C1844 C 0.16471 0.16999 0.64382 0.0
H1845 H 0.11068 0.11681 0.64926 0.0
C1846 C 0.16366 0.16667 0.61563 0.0
C1847 C 0.14466 0.15236 0.6555 0.0
C1848 C 0.14338 0.15597 0.68455 0.0
C1849 C 0.14388 0.14548 0.59948 0.0
C1850 C 0.1251 0.12687 0.61223 0.0
C1851 C 0.12534 0.13087 0.63972 0.0
C1852 C 0.10568 0.10269 0.59799 0.0
C1853 C 0.14326 0.14328 0.56888 0.0
C1854 C 0.07598 0.0972 0.5897 0.0
C1855 C 0.05777 0.07418 0.57661 0.0
C1856 C 0.06902 0.05637 0.57164 0.0
C1857 C 0.09877 0.06159 0.58056 0.0
C1858 C 0.11694 0.08448 0.59375 0.0
H1859 H 0.15195 0.16278 0.5579 0.0
H1860 H 0.15681 0.12992 0.57278 0.0
H1861 H 0.12111 0.13506 0.55257 0.0
H1862 H 0.06688 0.11086 0.59307 0.0
H1863 H 1.03489 0.07056 0.56993 0.0
H1864 H 0.68063 0.29301 0.36239 0.0
H1865 H 0.65411 0.31411 0.3757 0.0
H1866 H 0.70328 0.39077 0.35287 0.0
H1867 H 0.72949 0.36986 0.33881 0.0
H1868 H 0.67706 0.34827 0.42133 0.0
H1869 H 0.61985 0.39765 0.3047 0.0
H1870 H 0.63641 0.37143 0.31039 0.0
H1871 H 0.65805 0.40435 0.31707 0.0
C1872 C 0.68551 0.31438 0.35968 0.0
C1873 C 0.70714 0.32971 0.34935 0.0
C1874 C 0.67045 0.32641 0.36753 0.0
C1875 C 0.67645 0.35404 0.36497 0.0
C1876 C 0.69795 0.36944 0.35458 0.0
H1877 H 0.60673 0.46039 0.40456 0.0
H1878 H 0.63439 0.44144 0.39028 0.0
C1879 C 0.71311 0.35742 0.34684 0.0
C1880 C 0.66088 0.36661 0.3742 0.0
H1881 H 0.6156 0.40772 0.34677 0.0
C1882 C 0.66356 0.36121 0.40501 0.0
C1883 C 0.6434 0.38364 0.35296 0.0
C1884 C 0.63897 0.38951 0.31935 0.0
C1885 C 0.64949 0.37254 0.41522 0.0
C1886 C 0.63169 0.3893 0.39389 0.0
C1887 C 0.62921 0.39488 0.36313 0.0
C1888 C 0.61507 0.40082 0.40292 0.0
C1889 C 0.6543 0.36683 0.44894 0.0
C1890 C 0.59477 0.38434 0.41449 0.0
C1891 C 0.57909 0.39511 0.42291 0.0
C1892 C 0.58312 0.42267 0.4197 0.0
C1893 C 0.60331 0.43913 0.4078 0.0
C1894 C 0.61902 0.42831 0.3994 0.0
H1895 H 0.67448 0.36033 0.4636 0.0
H1896 H 0.65522 0.3845 0.45749 0.0
H1897 H 0.63627 0.3507 0.45181 0.0
H1898 H 0.59089 0.36307 0.41688 0.0
H1899 H 0.56399 0.38178 0.43226 0.0
H1900 H 0.50606 0.05138 0.06283 0.0
H1901 H 0.47652 0.04999 0.08961 0.0
H1902 H 0.44042 0.96681 0.08217 0.0
H1903 H 0.46959 0.96796 0.05477 0.0
H1904 H 0.40243 1.01356 0.06456 0.0
H1905 H 0.48897 0.99744 0.18103 0.0
H1906 H 0.49649 0.01904 0.14928 0.0
H1907 H 0.48671 0.98394 0.14942 0.0
C1908 C 0.49163 0.03279 0.06655 0.0
C1909 C 0.49003 1.00973 0.05653 0.0
C1910 C 0.47481 0.03213 0.08184 0.0
C1911 C 0.45628 1.0084 0.08747 0.0
C1912 C 0.45457 0.98534 0.07764 0.0
H1913 H 0.34457 0.90961 0.14524 0.0
H1914 H 0.36254 0.94768 0.11498 0.0
C1915 C 0.47136 0.98597 0.06227 0.0
C1916 C 0.43981 1.00693 0.10531 0.0
H1917 H 0.44161 0.98564 0.17776 0.0
C1918 C 0.41103 1.00814 0.08945 0.0
C1919 C 0.45148 1.00082 0.13776 0.0
C1920 C 0.48265 1.0003 0.15561 0.0
C1921 C 0.39276 1.0006 0.10508 0.0
C1922 C 0.40355 0.99091 0.13695 0.0
C1923 C 0.43316 0.99286 0.15328 0.0
C1924 C 0.38456 0.97259 0.15176 0.0
C1925 C 0.36175 1.00152 0.08696 0.0
C1926 C 0.38983 0.97405 0.18235 0.0
C1927 C 0.37964 0.95189 0.20006 0.0
C1928 C 0.36413 0.92801 0.18738 0.0
C1929 C 0.35619 0.92766 0.15577 0.0
C1930 C 0.36637 0.94969 0.1382 0.0
H1931 H 0.35998 0.01952 0.06972 0.0
H1932 H 0.34994 0.9842 0.07393 0.0
H1933 H 0.35135 1.00137 0.10225 0.0
H1934 H 0.40387 0.99152 0.1933 0.0
H1935 H 0.3856 0.9529 0.2242 0.0
H1936 H 0.99025 0.57998 1.0041 0.0
H1937 H 0.95741 0.60928 0.97682 0.0
H1938 H 0.9529 0.59907 0.88961 0.0
H1939 H 0.98518 0.56964 0.9164 0.0
H1940 H 0.96246 0.65673 0.93748 0.0
H1941 H 0.86849 0.58094 0.87465 0.0
H1942 H 0.89966 0.57255 0.90697 0.0
H1943 H 0.9 0.58325 0.86903 0.0
C1944 C 0.98221 0.58389 0.97911 0.0
C1945 C 0.99024 0.57218 0.9625 0.0
C1946 C 0.96344 0.60069 0.96354 0.0
C1947 C 0.95219 0.60599 0.93108 0.0
C1948 C 0.96068 0.5948 0.91457 0.0
H1949 H 0.84467 0.7016 0.78537 0.0
H1950 H 0.876 0.67198 0.81769 0.0
C1951 C 0.97936 0.57804 0.93004 0.0
C1952 C 0.93196 0.62353 0.91429 0.0
H1953 H 0.86558 0.62581 0.85718 0.0
C1954 C 0.94116 0.64991 0.92017 0.0
C1955 C 0.90412 0.61464 0.89167 0.0
C1956 C 0.89233 0.58623 0.88537 0.0
C1957 C 0.92373 0.66785 0.90327 0.0
C1958 C 0.89614 0.65908 0.88018 0.0
C1959 C 0.88675 0.63258 0.87475 0.0
C1960 C 0.87698 0.67721 0.86079 0.0
C1961 C 0.93538 0.69627 0.9095 0.0
C1962 C 0.8667 0.6898 0.87413 0.0
C1963 C 0.84871 0.70684 0.85562 0.0
C1964 C 0.84051 0.71159 0.82333 0.0
C1965 C 0.85057 0.69862 0.81007 0.0
C1966 C 0.8685 0.68158 0.82856 0.0
H1967 H 0.95904 0.70115 0.92262 0.0
H1968 H 0.93 0.70988 0.88752 0.0
H1969 H 0.92553 0.69985 0.92343 0.0
H1970 H 0.87247 0.68635 0.89886 0.0
H1971 H 0.84136 0.71636 0.86671 0.0
H1972 H 0.50985 0.36855 0.13076 0.0
H1973 H 0.49879 0.34205 0.17458 0.0
H1974 H 0.40881 0.33836 0.12006 0.0
H1975 H 0.41953 0.36495 0.07686 0.0
H1976 H 0.47569 0.36056 0.20215 0.0
H1977 H 0.40662 0.26468 0.16541 0.0
H1978 H 0.42763 0.28647 0.14463 0.0
H1979 H 0.39235 0.28983 0.13586 0.0
C1980 C 0.48765 0.36156 0.12795 0.0
C1981 C 0.4656 0.36905 0.10038 0.0
C1982 C 0.4814 0.34633 0.15292 0.0
C1983 C 0.45299 0.33808 0.15045 0.0
C1984 C 0.43082 0.34395 0.12225 0.0
H1985 H 0.36486 0.34338 0.25005 0.0
H1986 H 0.40038 0.35227 0.22797 0.0
C1987 C 0.43702 0.35921 0.09744 0.0
C1988 C 0.44641 0.32725 0.17809 0.0
H1989 H 0.39494 0.28232 0.19927 0.0
C1990 C 0.45864 0.34297 0.20213 0.0
C1991 C 0.4246 0.30412 0.17839 0.0
C1992 C 0.41234 0.28525 0.15473 0.0
C1993 C 0.44767 0.33752 0.22482 0.0
C1994 C 0.42351 0.3162 0.22284 0.0
C1995 C 0.41314 0.29905 0.20052 0.0
C1996 C 0.40683 0.31253 0.24144 0.0
C1997 C 0.46147 0.35517 0.24998 0.0
C1998 C 0.39886 0.28742 0.25648 0.0
C1999 C 0.3782 0.28229 0.26828 0.0
C2000 C 0.36544 0.30225 0.26562 0.0
C2001 C 0.37478 0.32787 0.25264 0.0
C2002 C 0.39516 0.33292 0.24023 0.0
H2003 H 0.48478 0.36313 0.25549 0.0
H2004 H 0.45155 0.37224 0.24184 0.0
H2005 H 0.45864 0.34452 0.27147 0.0
H2006 H 0.40748 0.27141 0.25761 0.0
H2007 H 0.37131 0.26235 0.27835 0.0
H2008 H 0.45219 0.54543 0.94049 0.0
H2009 H 0.42437 0.57876 0.91445 0.0
H2010 H 0.50237 0.64049 0.94056 0.0
H2011 H 0.53048 0.60723 0.96586 0.0
H2012 H 0.41876 0.61658 0.93662 0.0
H2013 H 0.46532 0.66303 0.84921 0.0
H2014 H 0.47157 0.63231 0.87308 0.0
H2015 H 0.49143 0.66321 0.88843 0.0
C2016 C 0.46349 0.56609 0.94053 0.0
C2017 C 0.49359 0.57365 0.95506 0.0
C2018 C 0.44752 0.58515 0.9257 0.0
C2019 C 0.46125 0.61217 0.92515 0.0
C2020 C 0.4913 0.61979 0.94 0.0
H2021 H 0.3611 0.73241 0.86379 0.0
H2022 H 0.39419 0.70401 0.89642 0.0
C2023 C 0.50734 0.60072 0.95458 0.0
C2024 C 0.44391 0.63217 0.9092 0.0
H2025 H 0.43304 0.68329 0.8507 0.0
C2026 C 0.42191 0.63122 0.91786 0.0
C2027 C 0.44791 0.65116 0.88459 0.0
C2028 C 0.47014 0.65241 0.87303 0.0
C2029 C 0.4035 0.6484 0.9023 0.0
C2030 C 0.40765 0.66751 0.87785 0.0
C2031 C 0.43 0.66877 0.86959 0.0
C2032 C 0.3877 0.68493 0.85874 0.0
C2033 C 0.37911 0.64518 0.91137 0.0
C2034 C 0.3735 0.68407 0.82671 0.0
C2035 C 0.35501 0.70043 0.80809 0.0
C2036 C 0.35011 0.71806 0.82103 0.0
C2037 C 0.36421 0.71889 0.85317 0.0
C2038 C 0.38303 0.70259 0.87185 0.0
H2039 H 0.37482 0.62577 0.92528 0.0
H2040 H 0.3847 0.66088 0.92559 0.0
H2041 H 0.35911 0.64702 0.8906 0.0
H2042 H 0.37668 0.67062 0.81604 0.0
H2043 H 0.34447 0.69912 0.78346 0.0
H2044 H 0.10681 0.52795 0.61467 0.0
H2045 H 0.13323 0.56488 0.64535 0.0
H2046 H 0.13042 0.61857 0.56227 0.0
H2047 H 0.10545 0.58139 0.5318 0.0
H2048 H 0.18113 0.6302 0.60645 0.0
H2049 H 0.1011 0.61865 0.6535 0.0
H2050 H 0.11276 0.58885 0.66263 0.0
H2051 H 0.09374 0.60089 0.62281 0.0
C2052 C 0.11199 0.54763 0.60303 0.0
C2053 C 0.10368 0.55198 0.57085 0.0
C2054 C 0.12673 0.56876 0.6205 0.0
C2055 C 0.13301 0.59464 0.606 0.0
C2056 C 0.12545 0.59884 0.57392 0.0
H2057 H 0.19436 0.72858 0.71051 0.0
H2058 H 0.16482 0.69663 0.67307 0.0
C2059 C 0.11108 0.57765 0.55652 0.0
C2060 C 0.14835 0.61716 0.62447 0.0
H2061 H 0.14808 0.64558 0.6795 0.0
C2062 C 0.17373 0.63373 0.62218 0.0
C2063 C 0.13832 0.62227 0.64437 0.0
C2064 C 0.10981 0.6069 0.64571 0.0
C2065 C 0.18994 0.6546 0.6401 0.0
C2066 C 0.18114 0.65835 0.66187 0.0
C2067 C 0.15514 0.64245 0.66325 0.0
C2068 C 0.19899 0.67806 0.68402 0.0
C2069 C 0.2161 0.67255 0.63514 0.0
C2070 C 0.22782 0.678 0.70294 0.0
C2071 C 0.24472 0.69648 0.72376 0.0
C2072 C 0.23291 0.7149 0.72669 0.0
C2073 C 0.20389 0.71455 0.70855 0.0
C2074 C 0.18707 0.69634 0.68721 0.0
H2075 H 0.21386 0.67326 0.61116 0.0
H2076 H 0.22001 0.69299 0.63951 0.0
H2077 H 0.23519 0.66478 0.65112 0.0
H2078 H 0.23726 0.66352 0.70182 0.0
H2079 H 0.26697 0.69613 0.73787 0.0
H2080 H 0.32967 0.35388 0.69604 0.0
H2081 H 0.35848 0.38242 0.66726 0.0
H2082 H 0.39153 0.31733 0.67446 0.0
H2083 H 0.36321 0.28904 0.70378 0.0
H2084 H 0.36585 0.3938 0.61765 0.0
H2085 H 0.46672 0.36364 0.69051 0.0
H2086 H 0.43796 0.336 0.67508 0.0
H2087 H 0.43695 0.35305 0.70192 0.0
C2088 C 0.34309 0.34524 0.6919 0.0
C2089 C 0.34308 0.31804 0.70356 0.0
C2090 C 0.36012 0.36213 0.67481 0.0
C2091 C 0.37917 0.35369 0.66787 0.0
C2092 C 0.37881 0.3263 0.67922 0.0
H2093 H 0.51938 0.46669 0.59874 0.0
H2094 H 0.49197 0.43778 0.62935 0.0
C2095 C 0.36173 0.30938 0.69629 0.0
C2096 C 0.39813 0.37293 0.64883 0.0
H2097 H 0.46455 0.38975 0.64285 0.0
C2098 C 0.38741 0.39243 0.62369 0.0
C2099 C 0.42726 0.37333 0.65514 0.0
C2100 C 0.44311 0.35563 0.68228 0.0
C2101 C 0.40326 0.41041 0.60571 0.0
C2102 C 0.43195 0.41009 0.6112 0.0
C2103 C 0.44296 0.39104 0.63682 0.0
C2104 C 0.45029 0.42895 0.59137 0.0
C2105 C 0.38881 0.43058 0.5813 0.0
C2106 C 0.43823 0.43505 0.55838 0.0
C2107 C 0.45433 0.45201 0.54049 0.0
C2108 C 0.48429 0.46459 0.5535 0.0
C2109 C 0.49673 0.45834 0.58648 0.0
C2110 C 0.48051 0.44119 0.60451 0.0
H2111 H 0.37263 0.43486 0.58657 0.0
H2112 H 0.40458 0.44942 0.57913 0.0
H2113 H 0.37739 0.42268 0.55872 0.0
H2114 H 0.41586 0.42621 0.54568 0.0
H2115 H 0.44282 0.45515 0.51563 0.0
H2116 H 0.29766 0.71586 0.19597 0.0
H2117 H 0.2639 0.68246 0.16153 0.0
H2118 H 0.19415 0.71523 0.14458 0.0
H2119 H 0.22769 0.74829 0.17922 0.0
H2120 H 0.18144 0.66169 0.15849 0.0
H2121 H 0.2246 0.69109 0.06759 0.0
H2122 H 0.25073 0.68458 0.10594 0.0
H2123 H 0.23482 0.7119 0.09658 0.0
C2124 C 0.27516 0.71604 0.18458 0.0
C2125 C 0.2652 0.73452 0.19026 0.0
C2126 C 0.25592 0.69704 0.16487 0.0
C2127 C 0.22652 0.69651 0.15022 0.0
C2128 C 0.21671 0.71525 0.15561 0.0
H2129 H 0.09646 0.61028 0.99768 0.0
H2130 H 0.13096 0.644 0.03123 0.0
C2131 C 0.23588 0.73413 0.17536 0.0
C2132 C 0.20569 0.67596 0.13008 0.0
H2133 H 0.18867 0.65095 0.06433 0.0
C2134 C 0.18298 0.65937 0.13785 0.0
C2135 C 0.20753 0.67317 0.10298 0.0
C2136 C 0.23056 0.69127 0.09254 0.0
C2137 C 0.16215 0.63995 0.11939 0.0
C2138 C 0.16447 0.63664 0.09278 0.0
C2139 C 0.18705 0.65337 0.08487 0.0
C2140 C 0.1435 0.61615 0.07261 0.0
C2141 C 0.13752 0.6236 0.12822 0.0
C2142 C 0.13933 0.5893 0.08463 0.0
C2143 C 0.11955 0.57008 0.06556 0.0
C2144 C 0.10379 0.57737 0.03406 0.0
C2145 C 0.10829 0.60417 0.02191 0.0
C2146 C 0.12798 0.62341 0.04103 0.0
H2147 H 0.13446 0.63342 0.1436 0.0
H2148 H 0.11716 0.61977 0.10741 0.0
H2149 H 0.14213 0.60431 0.14092 0.0
H2150 H 0.15157 0.58316 0.10871 0.0
H2151 H 0.1168 0.5495 0.0754 0.0
H2152 H 0.70235 0.30282 0.71644 0.0
H2153 H 0.67598 0.33667 0.68614 0.0
H2154 H 0.75081 0.38672 0.67132 0.0
H2155 H 0.77769 0.35315 0.70246 0.0
H2156 H 0.72502 0.41529 0.68329 0.0
H2157 H 0.64228 0.35255 0.59372 0.0
H2158 H 0.64406 0.33799 0.63173 0.0
H2159 H 0.67433 0.34285 0.62242 0.0
C2160 C 0.71328 0.32099 0.70675 0.0
C2161 C 0.74216 0.32504 0.71177 0.0
C2162 C 0.69804 0.34034 0.68917 0.0
C2163 C 0.71105 0.36413 0.67565 0.0
C2164 C 0.7401 0.36851 0.68121 0.0
H2165 H 0.60896 0.46612 0.527 0.0
H2166 H 0.64111 0.4369 0.55818 0.0
C2167 C 0.75548 0.34922 0.69904 0.0
C2168 C 0.69441 0.3844 0.65597 0.0
H2169 H 0.63258 0.39273 0.59355 0.0
C2170 C 0.70489 0.41037 0.66355 0.0
C2171 C 0.66833 0.3783 0.62978 0.0
C2172 C 0.65673 0.35149 0.6187 0.0
C2173 C 0.6898 0.43009 0.64626 0.0
C2174 C 0.663 0.42362 0.621 0.0
C2175 C 0.65288 0.3978 0.61304 0.0
C2176 C 0.64511 0.44318 0.60231 0.0
C2177 C 0.70312 0.45778 0.65492 0.0
C2178 C 0.63656 0.45682 0.61646 0.0
C2179 C 0.61841 0.47391 0.59861 0.0
C2180 C 0.60793 0.47746 0.5661 0.0
C2181 C 0.61667 0.46399 0.55197 0.0
C2182 C 0.63503 0.44714 0.56983 0.0
H2183 H 0.7268 0.46136 0.66748 0.0
H2184 H 0.69814 0.47275 0.63417 0.0
H2185 H 0.69452 0.4606 0.67051 0.0
H2186 H 0.64324 0.45369 0.64133 0.0
H2187 H 0.61183 0.48366 0.61026 0.0
H2188 H 0.9181 0.71251 0.21889 0.0
H2189 H 0.9441 0.69979 0.1962 0.0
H2190 H 0.87086 0.63609 0.15885 0.0
H2191 H 0.84459 0.64901 0.18063 0.0
H2192 H 0.95715 0.65067 0.20937 0.0
H2193 H 0.8912 0.67153 0.08443 0.0
H2194 H 0.88944 0.68494 0.1138 0.0
H2195 H 0.87037 0.65157 0.10598 0.0
C2196 C 0.90741 0.69608 0.20539 0.0
C2197 C 0.87934 0.68171 0.20164 0.0
C2198 C 0.9223 0.68879 0.19258 0.0
C2199 C 0.90924 0.66724 0.17549 0.0
C2200 C 0.88114 0.65309 0.17143 0.0
H2201 H 0.9497 0.56632 0.09995 0.0
H2202 H 0.92815 0.59089 0.11569 0.0
C2203 C 0.8663 0.6603 0.18425 0.0
C2204 C 0.92544 0.65826 0.1636 0.0
H2205 H 0.92241 0.64313 0.09803 0.0
C2206 C 0.94988 0.6494 0.18498 0.0
C2207 C 0.91579 0.65658 0.13178 0.0
C2208 C 0.89042 0.6669 0.10762 0.0
C2209 C 0.96417 0.6377 0.17557 0.0
C2210 C 0.954 0.6353 0.14384 0.0
C2211 C 0.93009 0.64493 0.12234 0.0
C2212 C 0.96694 0.62155 0.13276 0.0
C2213 C 0.9892 0.62692 0.19985 0.0
C2214 C 0.99571 0.63099 0.13653 0.0
C2215 C 1.0081 0.61698 0.12757 0.0
C2216 C 0.99182 0.59342 0.11441 0.0
C2217 C 0.96274 0.58451 0.10976 0.0
C2218 C 0.95042 0.59847 0.11884 0.0
H2219 H 0.99024 0.6251 0.22355 0.0
H2220 H 0.98787 0.60723 0.19538 0.0
H2221 H 1.00948 0.64049 0.19912 0.0
H2222 H 1.00865 0.64908 0.14661 0.0
H2223 H 1.03042 0.62457 0.13095 0.0
H2224 H 0.93331 0.61522 0.52828 0.0
H2225 H 0.91115 0.63065 0.55284 0.0
H2226 H 0.99204 0.6464 0.63127 0.0
H2227 H 1.01476 0.63214 0.60621 0.0
H2228 H 0.90389 0.61407 0.60637 0.0
H2229 H 0.97144 0.71665 0.60879 0.0
H2230 H 0.97105 0.69362 0.58732 0.0
H2231 H 0.99156 0.69195 0.62847 0.0
C2232 C 0.94657 0.62228 0.55058 0.0
C2233 C 0.97603 0.62277 0.56494 0.0
C2234 C 0.93375 0.63089 0.56477 0.0
C2235 C 0.94997 0.64023 0.5937 0.0
C2236 C 0.97915 0.6399 0.60864 0.0
H2237 H 0.86486 0.66801 0.69807 0.0
H2238 H 0.89256 0.65046 0.68238 0.0
C2239 C 0.99206 0.63139 0.59439 0.0
C2240 C 0.93623 0.65045 0.60787 0.0
H2241 H 0.93946 0.7054 0.63351 0.0
C2242 C 0.91172 0.63402 0.61238 0.0
C2243 C 0.94616 0.67662 0.61539 0.0
C2244 C 0.97132 0.69585 0.6095 0.0
C2245 C 0.8968 0.64303 0.62391 0.0
C2246 C 0.90704 0.66906 0.63197 0.0
C2247 C 0.93169 0.68539 0.62767 0.0
C2248 C 0.89158 0.68033 0.64301 0.0
C2249 C 0.8696 0.62482 0.62621 0.0
C2250 C 0.88289 0.70373 0.62716 0.0
C2251 C 0.86765 0.71418 0.63654 0.0
C2252 C 0.86043 0.70146 0.66195 0.0
C2253 C 0.86992 0.67843 0.67841 0.0
C2254 C 0.88546 0.6681 0.66916 0.0
H2255 H 0.86065 0.60869 0.61152 0.0
H2256 H 0.87435 0.61559 0.65053 0.0
H2257 H 0.85297 0.6358 0.6192 0.0
H2258 H 0.88756 0.71379 0.60715 0.0
H2259 H 0.86152 0.73233 0.62374 0.0
H2260 H 0.47108 0.5654 0.49222 0.0
H2261 H 0.4391 0.5948 0.4611 0.0
H2262 H 0.43952 0.58036 0.37816 0.0
H2263 H 0.47064 0.55015 0.40911 0.0
H2264 H 0.4482 0.63958 0.42734 0.0
H2265 H 0.35576 0.57234 0.34972 0.0
H2266 H 0.38398 0.56049 0.38319 0.0
H2267 H 0.3886 0.57374 0.34748 0.0
C2268 C 0.46394 0.56809 0.46729 0.0
C2269 C 0.47328 0.55519 0.45317 0.0
C2270 C 0.4457 0.58504 0.44947 0.0
C2271 C 0.43639 0.58969 0.41706 0.0
C2272 C 0.44557 0.57666 0.40293 0.0
H2273 H 0.37983 0.73154 0.30632 0.0
H2274 H 0.40645 0.69775 0.33621 0.0
C2275 C 0.46356 0.55943 0.42072 0.0
C2276 C 0.41861 0.60934 0.39847 0.0
H2277 H 0.35767 0.6185 0.33503 0.0
C2278 C 0.4283 0.63483 0.40728 0.0
C2279 C 0.39234 0.60328 0.37247 0.0
C2280 C 0.37939 0.5759 0.36285 0.0
C2281 C 0.41292 0.65438 0.39072 0.0
C2282 C 0.38742 0.64874 0.3638 0.0
C2283 C 0.37738 0.6231 0.35532 0.0
C2284 C 0.37077 0.66905 0.34439 0.0
C2285 C 0.42392 0.68072 0.4028 0.0
C2286 C 0.34137 0.66398 0.33762 0.0
C2287 C 0.32588 0.68319 0.31997 0.0
C2288 C 0.33944 0.70802 0.30869 0.0
C2289 C 0.36872 0.71283 0.31493 0.0
C2290 C 0.38408 0.69352 0.33228 0.0
H2291 H 0.43765 0.67905 0.42799 0.0
H2292 H 0.4372 0.69478 0.39075 0.0
H2293 H 0.40601 0.68908 0.39873 0.0
H2294 H 0.33043 0.64525 0.34642 0.0
H2295 H 0.30336 0.67869 0.31559 0.0
H2296 H 0.21186 0.39027 0.79996 0.0
H2297 H 0.18568 0.40367 0.82142 0.0
H2298 H 0.14377 0.32218 0.83935 0.0
H2299 H 0.16961 0.30847 0.8173 0.0
H2300 H 0.12381 0.39182 0.80052 0.0
H2301 H 0.17986 0.35309 0.92378 0.0
H2302 H 0.1948 0.35876 0.89545 0.0
H2303 H 0.16549 0.3308 0.89531 0.0
C2304 C 0.19683 0.37516 0.8081 0.0
C2305 C 0.19267 0.3483 0.80672 0.0
C2306 C 0.18205 0.38286 0.82054 0.0
C2307 C 0.163 0.3639 0.8321 0.0
C2308 C 0.1587 0.33705 0.83086 0.0
H2309 H 0.04666 0.41201 0.8784 0.0
H2310 H 0.06558 0.38661 0.86026 0.0
C2311 C 0.17348 0.32929 0.8183 0.0
C2312 C 0.14746 0.37263 0.84494 0.0
H2313 H 0.14483 0.37564 0.91272 0.0
C2314 C 0.12808 0.38804 0.82497 0.0
C2315 C 0.1534 0.36777 0.87689 0.0
C2316 C 0.17463 0.35184 0.89929 0.0
C2317 C 0.11489 0.39928 0.83623 0.0
C2318 C 0.12108 0.39471 0.86825 0.0
C2319 C 0.14003 0.37887 0.88816 0.0
C2320 C 0.10978 0.40803 0.88163 0.0
C2321 C 0.09537 0.41687 0.81404 0.0
C2322 C 0.12854 0.42789 0.90034 0.0
C2323 C 0.11783 0.44252 0.91056 0.0
C2324 C 0.08816 0.43744 0.90234 0.0
C2325 C 0.06956 0.41673 0.88463 0.0
C2326 C 0.0803 0.40214 0.87437 0.0
H2327 H 0.09665 0.42189 0.79108 0.0
H2328 H 0.07285 0.4066 0.81061 0.0
H2329 H 0.10085 0.43549 0.82362 0.0
H2330 H 0.15137 0.43272 0.90609 0.0
H2331 H 0.13272 0.45849 0.92388 0.0
H2332 H 0.25815 0.34299 0.40402 0.0
H2333 H 0.23308 0.36223 0.42143 0.0
H2334 H 0.15486 0.34004 0.3421 0.0
H2335 H 0.17986 0.32127 0.324 0.0
H2336 H 0.2017 0.40321 0.38877 0.0
H2337 H 0.13262 0.30783 0.41756 0.0
H2338 H 0.16458 0.30967 0.41266 0.0
H2339 H 0.13234 0.31371 0.37944 0.0
C2340 C 0.2357 0.34244 0.38995 0.0
C2341 C 0.22115 0.33046 0.36249 0.0
C2342 C 0.22134 0.35335 0.40011 0.0
C2343 C 0.192 0.35235 0.3833 0.0
C2344 C 0.1774 0.34066 0.35577 0.0
H2345 H 0.06836 0.39678 0.42094 0.0
H2346 H 0.09206 0.38072 0.39851 0.0
C2347 C 0.19176 0.32985 0.34549 0.0
C2348 C 0.17679 0.36358 0.3946 0.0
H2349 H 0.12476 0.34665 0.42278 0.0
C2350 C 0.18488 0.39086 0.39622 0.0
C2351 C 0.15472 0.34752 0.40416 0.0
C2352 C 0.14558 0.31802 0.40366 0.0
C2353 C 0.1713 0.40254 0.40677 0.0
C2354 C 0.14956 0.3864 0.41693 0.0
C2355 C 0.14138 0.35911 0.41507 0.0
C2356 C 0.13524 0.39723 0.42991 0.0
C2357 C 0.17999 0.43217 0.40616 0.0
C2358 C 0.15144 0.41182 0.45519 0.0
C2359 C 0.13791 0.42122 0.46789 0.0
C2360 C 0.10778 0.41585 0.45603 0.0
C2361 C 0.09158 0.40112 0.43082 0.0
C2362 C 0.10514 0.39196 0.41792 0.0
H2363 H 0.18943 0.44207 0.38886 0.0
H2364 H 0.16143 0.44017 0.40069 0.0
H2365 H 0.19654 0.43732 0.4292 0.0
H2366 H 0.17461 0.41552 0.46559 0.0
H2367 H 0.15106 0.43208 0.48762 0.0
loop_
_geom_bond_atom_site_label_1
_geom_bond_atom_site_label_2
_geom_bond_distance
_geom_bond_site_symmetry_2
_ccdc_geom_bond_type
Tb0 C2 2.809 1_655 S
Tb0 O20 2.484 1_655 S
Tb0 O21 2.440 . S
Tb0 O22 2.658 1_556 S
Tb0 O23 2.409 . S
Tb0 O24 2.378 1_656 S
Tb0 O28 2.325 1_665 S
Tb0 O31 2.341 1_565 S
Tb1 C11 2.809 1_455 S
Tb1 O22 2.325 1_445 S
Tb1 O25 2.341 1_545 S
Tb1 O26 2.484 1_455 S
Tb1 O27 2.440 . S
Tb1 O28 2.658 1_554 S
Tb1 O29 2.409 . S
Tb1 O30 2.378 1_454 S
C2 Tb0 2.809 1_455 S
C2 C3 1.514 . S
C2 O20 1.248 . S
C2 O21 1.266 1_455 S
C3 C2 1.514 . S
C3 C4 1.359 . S
C3 C8 1.348 . S
C4 C3 1.359 . S
C4 C5 1.380 . S
C4 H32 0.929 . S
C5 C4 1.380 . S
C5 C6 1.347 . S
C5 H33 0.931 . S
C6 C5 1.347 . S
C6 C7 1.369 . S
C7 C6 1.369 . S
C7 C8 1.408 . S
C7 H34 0.930 . S
C8 C3 1.348 . S
C8 C7 1.408 . S
C8 H35 0.930 1_455 S
C9 O22 1.281 . S
C9 O23 1.254 1_554 S
C10 O24 1.236 . S
C10 O25 1.266 . S
C11 Tb1 2.809 1_655 S
C11 C12 1.514 . S
C11 O26 1.248 . S
C11 O27 1.266 1_655 S
C12 C11 1.514 . S
C12 C13 1.359 . S
C12 C17 1.348 . S
C13 C12 1.359 . S
C13 C14 1.380 . S
C13 H36 0.929 . S
C14 C13 1.380 . S
C14 C15 1.347 . S
C14 H37 0.931 . S
C15 C14 1.347 . S
C15 C16 1.369 . S
C16 C15 1.369 . S
C16 C17 1.408 . S
C16 H38 0.930 . S
C17 C12 1.348 . S
C17 C16 1.408 . S
C17 H39 0.930 1_655 S
C18 O28 1.281 . S
C18 O29 1.254 1_556 S
C19 O30 1.236 . S
C19 O31 1.266 . S
O20 Tb0 2.484 1_455 S
O20 C2 1.248 . S
O21 Tb0 2.440 . S
O21 C2 1.266 1_655 S
O22 Tb0 2.658 1_554 S
O22 Tb1 2.325 1_665 S
O22 C9 1.281 . S
O23 Tb0 2.409 . S
O23 C9 1.254 1_556 S
O24 Tb0 2.378 1_454 S
O24 C10 1.236 . S
O25 Tb1 2.341 1_565 S
O25 C10 1.266 . S
O26 Tb1 2.484 1_655 S
O26 C11 1.248 . S
O27 Tb1 2.440 . S
O27 C11 1.266 1_455 S
O28 Tb0 2.325 1_445 S
O28 Tb1 2.658 1_556 S
O28 C18 1.281 . S
O29 Tb1 2.409 . S
O29 C18 1.254 1_554 S
O30 Tb1 2.378 1_656 S
O30 C19 1.236 . S
O31 Tb0 2.341 1_545 S
O31 C19 1.266 . S
H32 C4 0.929 . S
H33 C5 0.931 . S
H34 C7 0.930 . S
H35 C8 0.930 1_655 S
H36 C13 0.929 . S
H37 C14 0.931 . S
H38 C16 0.930 . S
H39 C17 0.930 1_455 S
Tb40 C42 2.809 . S
Tb40 O60 2.484 . S
Tb40 O61 2.440 . S
Tb40 O62 2.658 . S
Tb40 O63 2.409 . S
Tb40 O64 2.378 . S
Tb40 O68 2.325 . S
Tb40 O71 2.341 . S
Tb41 C51 2.809 . S
Tb41 O62 2.325 . S
Tb41 O65 2.341 . S
Tb41 O66 2.484 . S
Tb41 O67 2.440 . S
Tb41 O68 2.658 . S
Tb41 O69 2.409 . S
Tb41 O70 2.378 . S
C42 Tb40 2.809 . S
C42 C43 1.514 . S
C42 O60 1.248 . S
C42 O61 1.266 . S
C43 C42 1.514 . S
C43 C44 1.359 . S
C43 C48 1.348 . S
C44 C43 1.359 . S
C44 C45 1.380 . S
C44 H72 0.929 . S
C45 C44 1.380 . S
C45 C46 1.347 . S
C45 H73 0.931 . S
C46 C45 1.347 . S
C46 C47 1.369 . S
C47 C46 1.369 . S
C47 C48 1.408 . S
C47 H74 0.930 . S
C48 C43 1.348 . S
C48 C47 1.408 . S
C48 H75 0.930 . S
C49 O62 1.281 . S
C49 O63 1.254 . S
C50 O64 1.236 . S
C50 O65 1.266 . S
C51 Tb41 2.809 . S
C51 C52 1.514 . S
C51 O66 1.248 . S
C51 O67 1.266 . S
C52 C51 1.514 . S
C52 C53 1.359 . S
C52 C57 1.348 . S
C53 C52 1.359 . S
C53 C54 1.380 . S
C53 H76 0.929 . S
C54 C53 1.380 . S
C54 C55 1.347 . S
C54 H77 0.931 . S
C55 C54 1.347 . S
C55 C56 1.369 . S
C56 C55 1.369 . S
C56 C57 1.408 . S
C56 H78 0.930 . S
C57 C52 1.348 . S
C57 C56 1.408 . S
C57 H79 0.930 . S
C58 O68 1.281 . S
C58 O69 1.254 . S
C59 O70 1.236 . S
C59 O71 1.266 . S
O60 Tb40 2.484 . S
O60 C42 1.248 . S
O61 Tb40 2.440 . S
O61 C42 1.266 . S
O62 Tb40 2.658 . S
O62 Tb41 2.325 . S
O62 C49 1.281 . S
O63 Tb40 2.409 . S
O63 C49 1.254 . S
O64 Tb40 2.378 . S
O64 C50 1.236 . S
O65 Tb41 2.341 . S
O65 C50 1.266 . S
O66 Tb41 2.484 . S
O66 C51 1.248 . S
O67 Tb41 2.440 . S
O67 C51 1.266 . S
O68 Tb40 2.325 . S
O68 Tb41 2.658 . S
O68 C58 1.281 . S
O69 Tb41 2.409 . S
O69 C58 1.254 . S
O70 Tb41 2.378 . S
O70 C59 1.236 . S
O71 Tb40 2.341 . S
O71 C59 1.266 . S
H72 C44 0.929 . S
H73 C45 0.931 . S
H74 C47 0.930 . S
H75 C48 0.930 . S
H76 C53 0.929 . S
H77 C54 0.931 . S
H78 C56 0.930 . S
H79 C57 0.930 . S
Tb80 C82 2.809 1_565 S
Tb80 O100 2.484 1_565 S
Tb80 O101 2.440 . S
Tb80 O102 2.658 . S
Tb80 O103 2.409 . S
Tb80 O104 2.378 1_565 S
Tb80 O108 2.325 1_565 S
Tb80 O111 2.341 . S
Tb81 C91 2.809 1_545 S
Tb81 O102 2.325 1_545 S
Tb81 O105 2.341 . S
Tb81 O106 2.484 1_545 S
Tb81 O107 2.440 . S
Tb81 O108 2.658 . S
Tb81 O109 2.409 . S
Tb81 O110 2.378 1_545 S
C82 Tb80 2.809 1_545 S
C82 C83 1.514 . S
C82 O100 1.248 . S
C82 O101 1.266 1_545 S
C83 C82 1.514 . S
C83 C84 1.359 . S
C83 C88 1.348 . S
C84 C83 1.359 . S
C84 C85 1.380 . S
C84 H112 0.929 . S
C85 C84 1.380 . S
C85 C86 1.347 . S
C85 H113 0.931 . S
C86 C85 1.347 . S
C86 C87 1.369 . S
C87 C86 1.369 . S
C87 C88 1.408 . S
C87 H114 0.930 . S
C88 C83 1.348 . S
C88 C87 1.408 . S
C88 H115 0.930 . S
C89 O102 1.281 . S
C89 O103 1.254 . S
C90 O104 1.236 . S
C90 O105 1.266 . S
C91 Tb81 2.809 1_565 S
C91 C92 1.514 . S
C91 O106 1.248 . S
C91 O107 1.266 1_565 S
C92 C91 1.514 . S
C92 C93 1.359 . S
C92 C97 1.348 . S
C93 C92 1.359 . S
C93 C94 1.380 . S
C93 H116 0.929 . S
C94 C93 1.380 . S
C94 C95 1.347 . S
C94 H117 0.931 . S
C95 C94 1.347 . S
C95 C96 1.369 . S
C96 C95 1.369 . S
C96 C97 1.408 . S
C96 H118 0.930 . S
C97 C92 1.348 . S
C97 C96 1.408 . S
C97 H119 0.947 . S
C98 O108 1.281 . S
C98 O109 1.254 . S
C99 O110 1.236 . S
C99 O111 1.266 . S
O100 Tb80 2.484 1_545 S
O100 C82 1.248 . S
O101 Tb80 2.440 . S
O101 C82 1.266 1_565 S
O102 Tb80 2.658 . S
O102 Tb81 2.325 1_565 S
O102 C89 1.281 . S
O103 Tb80 2.409 . S
O103 C89 1.254 . S
O104 Tb80 2.378 1_545 S
O104 C90 1.236 . S
O105 Tb81 2.341 . S
O105 C90 1.266 . S
O106 Tb81 2.484 1_565 S
O106 C91 1.248 . S
O107 Tb81 2.440 . S
O107 C91 1.266 1_545 S
O108 Tb80 2.325 1_545 S
O108 Tb81 2.658 . S
O108 C98 1.281 . S
O109 Tb81 2.409 . S
O109 C98 1.254 . S
O110 Tb81 2.378 1_565 S
O110 C99 1.236 . S
O111 Tb80 2.341 . S
O111 C99 1.266 . S
H112 C84 0.929 . S
H113 C85 0.931 . S
H114 C87 0.930 . S
H115 C88 0.930 . S
H116 C93 0.929 . S
H117 C94 0.931 . S
H118 C96 0.930 . S
H119 C97 0.947 . S
Tb120 C122 2.809 . S
Tb120 O140 2.484 . S
Tb120 O141 2.440 . S
Tb120 O142 2.658 . S
Tb120 O143 2.409 . S
Tb120 O144 2.378 . S
Tb120 O148 2.325 . S
Tb120 O151 2.341 . S
Tb121 C131 2.809 . S
Tb121 O142 2.325 . S
Tb121 O145 2.341 . S
Tb121 O146 2.484 . S
Tb121 O147 2.440 . S
Tb121 O148 2.658 . S
Tb121 O149 2.409 . S
Tb121 O150 2.378 . S
C122 Tb120 2.809 . S
C122 C123 1.514 . S
C122 O140 1.248 . S
C122 O141 1.266 . S
C123 C122 1.514 . S
C123 C124 1.359 . S
C123 C128 1.348 . S
C124 C123 1.359 . S
C124 C125 1.380 . S
C124 H152 0.929 . S
C125 C124 1.380 . S
C125 C126 1.347 . S
C125 H153 0.931 . S
C126 C125 1.347 . S
C126 C127 1.369 . S
C127 C126 1.369 . S
C127 C128 1.408 . S
C127 H154 0.930 . S
C128 C123 1.348 . S
C128 C127 1.408 . S
C128 H155 0.930 . S
C129 O142 1.281 . S
C129 O143 1.254 . S
C130 O144 1.236 . S
C130 O145 1.266 . S
C131 Tb121 2.809 . S
C131 C132 1.514 . S
C131 O146 1.248 . S
C131 O147 1.266 . S
C132 C131 1.514 . S
C132 C133 1.359 . S
C132 C137 1.348 . S
C133 C132 1.359 . S
C133 C134 1.380 . S
C133 H156 0.929 . S
C134 C133 1.380 . S
C134 C135 1.347 . S
C134 H157 0.931 . S
C135 C134 1.347 . S
C135 C136 1.369 . S
C136 C135 1.369 . S
C136 C137 1.408 . S
C136 H158 0.930 . S
C137 C132 1.348 . S
C137 C136 1.408 . S
C137 H159 0.930 . S
C138 O148 1.281 . S
C138 O149 1.254 . S
C139 O150 1.236 . S
C139 O151 1.266 . S
O140 Tb120 2.484 . S
O140 C122 1.248 . S
O141 Tb120 2.440 . S
O141 C122 1.266 . S
O142 Tb120 2.658 . S
O142 Tb121 2.325 . S
O142 C129 1.281 . S
O143 Tb120 2.409 . S
O143 C129 1.254 . S
O144 Tb120 2.378 . S
O144 C130 1.236 . S
O145 Tb121 2.341 . S
O145 C130 1.266 . S
O146 Tb121 2.484 . S
O146 C131 1.248 . S
O147 Tb121 2.440 . S
O147 C131 1.266 . S
O148 Tb120 2.325 . S
O148 Tb121 2.658 . S
O148 C138 1.281 . S
O149 Tb121 2.409 . S
O149 C138 1.254 . S
O150 Tb121 2.378 . S
O150 C139 1.236 . S
O151 Tb120 2.341 . S
O151 C139 1.266 . S
H152 C124 0.929 . S
H153 C125 0.931 . S
H154 C127 0.930 . S
H155 C128 0.930 . S
H156 C133 0.929 . S
H157 C134 0.931 . S
H158 C136 0.930 . S
H159 C137 0.930 . S
Tb160 C162 2.809 . S
Tb160 O180 2.484 . S
Tb160 O181 2.440 . S
Tb160 O182 2.658 1_665 S
Tb160 O183 2.409 1_665 S
Tb160 O184 2.378 1_655 S
Tb160 O188 2.325 . S
Tb160 O191 2.341 1_565 S
Tb161 C171 2.809 . S
Tb161 O182 2.325 . S
Tb161 O185 2.341 1_545 S
Tb161 O186 2.484 . S
Tb161 O187 2.440 . S
Tb161 O188 2.658 1_445 S
Tb161 O189 2.409 1_445 S
Tb161 O190 2.378 1_455 S
C162 Tb160 2.809 . S
C162 C163 1.514 . S
C162 O180 1.248 . S
C162 O181 1.266 . S
C163 C162 1.514 . S
C163 C164 1.359 . S
C163 C168 1.348 . S
C164 C163 1.359 . S
C164 C165 1.380 . S
C164 H192 0.929 . S
C165 C164 1.380 . S
C165 C166 1.347 . S
C165 H193 0.931 . S
C166 C165 1.347 . S
C166 C167 1.369 . S
C167 C166 1.369 . S
C167 C168 1.408 . S
C167 H194 0.930 . S
C168 C163 1.348 . S
C168 C167 1.408 . S
C168 H195 0.930 . S
C169 O182 1.281 . S
C169 O183 1.254 . S
C170 O184 1.236 . S
C170 O185 1.266 . S
C171 Tb161 2.809 . S
C171 C172 1.514 . S
C171 O186 1.248 . S
C171 O187 1.266 . S
C172 C171 1.514 . S
C172 C173 1.359 . S
C172 C177 1.348 . S
C173 C172 1.359 . S
C173 C174 1.380 . S
C173 H196 0.929 . S
C174 C173 1.380 . S
C174 C175 1.347 . S
C174 H197 0.931 . S
C175 C174 1.347 . S
C175 C176 1.369 . S
C176 C175 1.369 . S
C176 C177 1.408 . S
C176 H198 0.930 . S
C177 C172 1.348 . S
C177 C176 1.408 . S
C177 H199 0.930 . S
C178 O188 1.281 . S
C178 O189 1.254 . S
C179 O190 1.236 . S
C179 O191 1.266 . S
O180 Tb160 2.484 . S
O180 C162 1.248 . S
O181 Tb160 2.440 . S
O181 C162 1.266 . S
O182 Tb160 2.658 1_445 S
O182 Tb161 2.325 . S
O182 C169 1.281 . S
O183 Tb160 2.409 1_445 S
O183 C169 1.254 . S
O184 Tb160 2.378 1_455 S
O184 C170 1.236 . S
O185 Tb161 2.341 1_565 S
O185 C170 1.266 . S
O186 Tb161 2.484 . S
O186 C171 1.248 . S
O187 Tb161 2.440 . S
O187 C171 1.266 . S
O188 Tb160 2.325 . S
O188 Tb161 2.658 1_665 S
O188 C178 1.281 . S
O189 Tb161 2.409 1_665 S
O189 C178 1.254 . S
O190 Tb161 2.378 1_655 S
O190 C179 1.236 . S
O191 Tb160 2.341 1_545 S
O191 C179 1.266 . S
H192 C164 0.929 . S
H193 C165 0.931 . S
H194 C167 0.930 . S
H195 C168 0.930 . S
H196 C173 0.929 . S
H197 C174 0.931 . S
H198 C176 0.930 . S
H199 C177 0.930 . S
Tb200 C202 2.809 . S
Tb200 O220 2.484 . S
Tb200 O221 2.440 . S
Tb200 O222 2.658 . S
Tb200 O223 2.409 . S
Tb200 O224 2.378 . S
Tb200 O228 2.325 . S
Tb200 O231 2.341 . S
Tb201 C211 2.809 . S
Tb201 O222 2.325 . S
Tb201 O225 2.341 . S
Tb201 O226 2.484 . S
Tb201 O227 2.440 . S
Tb201 O228 2.658 . S
Tb201 O229 2.409 . S
Tb201 O230 2.378 . S
C202 Tb200 2.809 . S
C202 C203 1.514 . S
C202 O220 1.248 . S
C202 O221 1.266 . S
C203 C202 1.514 . S
C203 C204 1.359 . S
C203 C208 1.348 . S
C204 C203 1.359 . S
C204 C205 1.380 . S
C204 H232 0.929 . S
C205 C204 1.380 . S
C205 C206 1.347 . S
C205 H233 0.931 . S
C206 C205 1.347 . S
C206 C207 1.369 . S
C207 C206 1.369 . S
C207 C208 1.408 . S
C207 H234 0.930 . S
C208 C203 1.348 . S
C208 C207 1.408 . S
C208 H235 0.930 . S
C209 O222 1.281 . S
C209 O223 1.254 . S
C210 O224 1.236 . S
C210 O225 1.266 . S
C211 Tb201 2.809 . S
C211 C212 1.514 . S
C211 O226 1.248 . S
C211 O227 1.266 . S
C212 C211 1.514 . S
C212 C213 1.359 . S
C212 C217 1.348 . S
C213 C212 1.359 . S
C213 C214 1.380 . S
C213 H236 0.929 . S
C214 C213 1.380 . S
C214 C215 1.347 . S
C214 H237 0.931 . S
C215 C214 1.347 . S
C215 C216 1.369 . S
C216 C215 1.369 . S
C216 C217 1.408 . S
C216 H238 0.930 . S
C217 C212 1.348 . S
C217 C216 1.408 . S
C217 H239 0.930 . S
C218 O228 1.281 . S
C218 O229 1.254 . S
C219 O230 1.236 . S
C219 O231 1.266 . S
O220 Tb200 2.484 . S
O220 C202 1.248 . S
O221 Tb200 2.440 . S
O221 C202 1.266 . S
O222 Tb200 2.658 . S
O222 Tb201 2.325 . S
O222 C209 1.281 . S
O223 Tb200 2.409 . S
O223 C209 1.254 . S
O224 Tb200 2.378 . S
O224 C210 1.236 . S
O225 Tb201 2.341 . S
O225 C210 1.266 . S
O226 Tb201 2.484 . S
O226 C211 1.248 . S
O227 Tb201 2.440 . S
O227 C211 1.266 . S
O228 Tb200 2.325 . S
O228 Tb201 2.658 . S
O228 C218 1.281 . S
O229 Tb201 2.409 . S
O229 C218 1.254 . S
O230 Tb201 2.378 . S
O230 C219 1.236 . S
O231 Tb200 2.341 . S
O231 C219 1.266 . S
H232 C204 0.929 . S
H233 C205 0.931 . S
H234 C207 0.930 . S
H235 C208 0.930 . S
H236 C213 0.929 . S
H237 C214 0.931 . S
H238 C216 0.930 . S
H239 C217 0.930 . S
Tb240 C242 2.809 1_554 S
Tb240 O260 2.484 1_554 S
Tb240 O261 2.440 . S
Tb240 O262 2.658 1_565 S
Tb240 O263 2.409 1_565 S
Tb240 O264 2.378 1_564 S
Tb240 O268 2.325 1_554 S
Tb240 O271 2.341 . S
Tb241 C251 2.809 1_556 S
Tb241 O262 2.325 1_556 S
Tb241 O265 2.341 . S
Tb241 O266 2.484 1_556 S
Tb241 O267 2.440 . S
Tb241 O268 2.658 1_545 S
Tb241 O269 2.409 1_545 S
Tb241 O270 2.378 1_546 S
C242 Tb240 2.809 1_556 S
C242 C243 1.514 . S
C242 O260 1.248 . S
C242 O261 1.266 1_556 S
C243 C242 1.514 . S
C243 C244 1.359 . S
C243 C248 1.348 . S
C244 C243 1.359 . S
C244 C245 1.380 . S
C244 H272 0.929 . S
C245 C244 1.380 . S
C245 C246 1.347 . S
C245 H273 0.931 . S
C246 C245 1.347 . S
C246 C247 1.369 . S
C247 C246 1.369 . S
C247 C248 1.408 . S
C247 H274 0.930 . S
C248 C243 1.348 . S
C248 C247 1.408 . S
C248 H275 0.930 1_556 S
C249 O262 1.281 . S
C249 O263 1.254 . S
C250 O264 1.236 . S
C250 O265 1.266 . S
C251 Tb241 2.809 1_554 S
C251 C252 1.514 . S
C251 O266 1.248 . S
C251 O267 1.266 1_554 S
C252 C251 1.514 . S
C252 C253 1.359 . S
C252 C257 1.348 . S
C253 C252 1.359 . S
C253 C254 1.380 . S
C253 H276 0.929 . S
C254 C253 1.380 . S
C254 C255 1.347 . S
C254 H277 0.931 . S
C255 C254 1.347 . S
C255 C256 1.369 . S
C256 C255 1.369 . S
C256 C257 1.408 . S
C256 H278 0.930 . S
C257 C252 1.348 . S
C257 C256 1.408 . S
C257 H279 0.930 1_554 S
C258 O268 1.281 . S
C258 O269 1.254 . S
C259 O270 1.236 . S
C259 O271 1.266 . S
O260 Tb240 2.484 1_556 S
O260 C242 1.248 . S
O261 Tb240 2.440 . S
O261 C242 1.266 1_554 S
O262 Tb240 2.658 1_545 S
O262 Tb241 2.325 1_554 S
O262 C249 1.281 . S
O263 Tb240 2.409 1_545 S
O263 C249 1.254 . S
O264 Tb240 2.378 1_546 S
O264 C250 1.236 . S
O265 Tb241 2.341 . S
O265 C250 1.266 . S
O266 Tb241 2.484 1_554 S
O266 C251 1.248 . S
O267 Tb241 2.440 . S
O267 C251 1.266 1_556 S
O268 Tb240 2.325 1_556 S
O268 Tb241 2.658 1_565 S
O268 C258 1.281 . S
O269 Tb241 2.409 1_565 S
O269 C258 1.254 . S
O270 Tb241 2.378 1_564 S
O270 C259 1.236 . S
O271 Tb240 2.341 . S
O271 C259 1.266 . S
H272 C244 0.929 . S
H273 C245 0.931 . S
H274 C247 0.930 . S
H275 C248 0.930 1_554 S
H276 C253 0.929 . S
H277 C254 0.931 . S
H278 C256 0.930 . S
H279 C257 0.930 1_556 S
Tb280 C282 2.809 . S
Tb280 O300 2.484 . S
Tb280 O301 2.440 . S
Tb280 O302 2.658 . S
Tb280 O303 2.409 . S
Tb280 O304 2.378 . S
Tb280 O308 2.325 . S
Tb280 O311 2.341 . S
Tb281 C291 2.809 . S
Tb281 O302 2.325 . S
Tb281 O305 2.341 . S
Tb281 O306 2.484 . S
Tb281 O307 2.440 . S
Tb281 O308 2.658 . S
Tb281 O309 2.409 . S
Tb281 O310 2.378 . S
C282 Tb280 2.809 . S
C282 C283 1.514 . S
C282 O300 1.248 . S
C282 O301 1.266 . S
C283 C282 1.514 . S
C283 C284 1.359 . S
C283 C288 1.348 . S
C284 C283 1.359 . S
C284 C285 1.380 . S
C284 H312 0.929 . S
C285 C284 1.380 . S
C285 C286 1.347 . S
C285 H313 0.931 . S
C286 C285 1.347 . S
C286 C287 1.369 . S
C287 C286 1.369 . S
C287 C288 1.408 . S
C287 H314 0.930 . S
C288 C283 1.348 . S
C288 C287 1.408 . S
C288 H315 0.930 . S
C289 O302 1.281 . S
C289 O303 1.254 . S
C290 O304 1.236 . S
C290 O305 1.266 . S
C291 Tb281 2.809 . S
C291 C292 1.514 . S
C291 O306 1.248 . S
C291 O307 1.266 . S
C292 C291 1.514 . S
C292 C293 1.359 . S
C292 C297 1.348 . S
C293 C292 1.359 . S
C293 C294 1.380 . S
C293 H316 0.929 . S
C294 C293 1.380 . S
C294 C295 1.347 . S
C294 H317 0.931 . S
C295 C294 1.347 . S
C295 C296 1.369 . S
C296 C295 1.369 . S
C296 C297 1.408 . S
C296 H318 0.930 . S
C297 C292 1.348 . S
C297 C296 1.408 . S
C297 H319 0.930 . S
C298 O308 1.281 . S
C298 O309 1.254 . S
C299 O310 1.236 . S
C299 O311 1.266 . S
O300 Tb280 2.484 . S
O300 C282 1.248 . S
O301 Tb280 2.440 . S
O301 C282 1.266 . S
O302 Tb280 2.658 . S
O302 Tb281 2.325 . S
O302 C289 1.281 . S
O303 Tb280 2.409 . S
O303 C289 1.254 . S
O304 Tb280 2.378 . S
O304 C290 1.236 . S
O305 Tb281 2.341 . S
O305 C290 1.266 . S
O306 Tb281 2.484 . S
O306 C291 1.248 . S
O307 Tb281 2.440 . S
O307 C291 1.266 . S
O308 Tb280 2.325 . S
O308 Tb281 2.658 . S
O308 C298 1.281 . S
O309 Tb281 2.409 . S
O309 C298 1.254 . S
O310 Tb281 2.378 . S
O310 C299 1.236 . S
O311 Tb280 2.341 . S
O311 C299 1.266 . S
H312 C284 0.929 . S
H313 C285 0.931 . S
H314 C287 0.930 . S
H315 C288 0.930 . S
H316 C293 0.929 . S
H317 C294 0.931 . S
H318 C296 0.930 . S
H319 C297 0.930 . S
Tb320 C322 2.809 . S
Tb320 O340 2.484 . S
Tb320 O341 2.440 . S
Tb320 O342 2.658 . S
Tb320 O343 2.409 . S
Tb320 O344 2.378 . S
Tb320 O348 2.325 1_554 S
Tb320 O351 2.341 1_554 S
Tb321 C331 2.809 . S
Tb321 O342 2.325 1_556 S
Tb321 O345 2.341 1_556 S
Tb321 O346 2.484 . S
Tb321 O347 2.440 . S
Tb321 O348 2.658 . S
Tb321 O349 2.409 . S
Tb321 O350 2.378 . S
C322 Tb320 2.809 . S
C322 C323 1.514 . S
C322 O340 1.248 . S
C322 O341 1.266 . S
C323 C322 1.514 . S
C323 C324 1.359 . S
C323 C328 1.348 . S
C324 C323 1.359 . S
C324 C325 1.380 . S
C324 H352 0.929 . S
C325 C324 1.380 . S
C325 C326 1.347 . S
C325 H353 0.931 . S
C326 C325 1.347 . S
C326 C327 1.369 . S
C327 C326 1.369 . S
C327 C328 1.408 . S
C327 H354 0.930 . S
C328 C323 1.348 . S
C328 C327 1.408 . S
C328 H355 0.930 . S
C329 O342 1.281 . S
C329 O343 1.254 . S
C330 O344 1.236 . S
C330 O345 1.266 . S
C331 Tb321 2.809 . S
C331 C332 1.514 . S
C331 O346 1.248 . S
C331 O347 1.266 . S
C332 C331 1.514 . S
C332 C333 1.359 . S
C332 C337 1.348 . S
C333 C332 1.359 . S
C333 C334 1.380 . S
C333 H356 0.929 . S
C334 C333 1.380 . S
C334 C335 1.347 . S
C334 H357 0.931 . S
C335 C334 1.347 . S
C335 C336 1.369 . S
C336 C335 1.369 . S
C336 C337 1.408 . S
C336 H358 0.930 . S
C337 C332 1.348 . S
C337 C336 1.408 . S
C337 H359 0.930 . S
C338 O348 1.281 . S
C338 O349 1.254 . S
C339 O350 1.236 . S
C339 O351 1.266 . S
O340 Tb320 2.484 . S
O340 C322 1.248 . S
O341 Tb320 2.440 . S
O341 C322 1.266 . S
O342 Tb320 2.658 . S
O342 Tb321 2.325 1_554 S
O342 C329 1.281 . S
O343 Tb320 2.409 . S
O343 C329 1.254 . S
O344 Tb320 2.378 . S
O344 C330 1.236 . S
O345 Tb321 2.341 1_554 S
O345 C330 1.266 . S
O346 Tb321 2.484 . S
O346 C331 1.248 . S
O347 Tb321 2.440 . S
O347 C331 1.266 . S
O348 Tb320 2.325 1_556 S
O348 Tb321 2.658 . S
O348 C338 1.281 . S
O349 Tb321 2.409 . S
O349 C338 1.254 . S
O350 Tb321 2.378 . S
O350 C339 1.236 . S
O351 Tb320 2.341 1_556 S
O351 C339 1.266 . S
H352 C324 0.929 . S
H353 C325 0.931 . S
H354 C327 0.930 . S
H355 C328 0.930 . S
H356 C333 0.929 . S
H357 C334 0.931 . S
H358 C336 0.930 . S
H359 C337 0.930 . S
Tb360 C362 2.809 . S
Tb360 O380 2.484 . S
Tb360 O381 2.440 . S
Tb360 O382 2.658 . S
Tb360 O383 2.409 . S
Tb360 O384 2.378 . S
Tb360 O388 2.325 . S
Tb360 O391 2.341 . S
Tb361 C371 2.809 . S
Tb361 O382 2.325 . S
Tb361 O385 2.341 . S
Tb361 O386 2.484 . S
Tb361 O387 2.440 . S
Tb361 O388 2.658 . S
Tb361 O389 2.409 . S
Tb361 O390 2.378 . S
C362 Tb360 2.809 . S
C362 C363 1.514 . S
C362 O380 1.248 . S
C362 O381 1.266 . S
C363 C362 1.514 . S
C363 C364 1.359 . S
C363 C368 1.348 . S
C364 C363 1.359 . S
C364 C365 1.380 . S
C364 H392 0.929 . S
C365 C364 1.380 . S
C365 C366 1.347 . S
C365 H393 0.931 . S
C366 C365 1.347 . S
C366 C367 1.369 . S
C367 C366 1.369 . S
C367 C368 1.408 . S
C367 H394 0.930 . S
C368 C363 1.348 . S
C368 C367 1.408 . S
C368 H395 0.930 . S
C369 O382 1.281 . S
C369 O383 1.254 . S
C370 O384 1.236 . S
C370 O385 1.266 . S
C371 Tb361 2.809 . S
C371 C372 1.514 . S
C371 O386 1.248 . S
C371 O387 1.266 . S
C372 C371 1.514 . S
C372 C373 1.359 . S
C372 C377 1.348 . S
C373 C372 1.359 . S
C373 C374 1.380 . S
C373 H396 0.929 . S
C374 C373 1.380 . S
C374 C375 1.347 . S
C374 H397 0.931 . S
C375 C374 1.347 . S
C375 C376 1.369 . S
C376 C375 1.369 . S
C376 C377 1.408 . S
C376 H398 0.930 . S
C377 C372 1.348 . S
C377 C376 1.408 . S
C377 H399 0.930 . S
C378 O388 1.281 . S
C378 O389 1.254 . S
C379 O390 1.236 . S
C379 O391 1.266 . S
O380 Tb360 2.484 . S
O380 C362 1.248 . S
O381 Tb360 2.440 . S
O381 C362 1.266 . S
O382 Tb360 2.658 . S
O382 Tb361 2.325 . S
O382 C369 1.281 . S
O383 Tb360 2.409 . S
O383 C369 1.254 . S
O384 Tb360 2.378 . S
O384 C370 1.236 . S
O385 Tb361 2.341 . S
O385 C370 1.266 . S
O386 Tb361 2.484 . S
O386 C371 1.248 . S
O387 Tb361 2.440 . S
O387 C371 1.266 . S
O388 Tb360 2.325 . S
O388 Tb361 2.658 . S
O388 C378 1.281 . S
O389 Tb361 2.409 . S
O389 C378 1.254 . S
O390 Tb361 2.378 . S
O390 C379 1.236 . S
O391 Tb360 2.341 . S
O391 C379 1.266 . S
H392 C364 0.929 . S
H393 C365 0.931 . S
H394 C367 0.930 . S
H395 C368 0.930 . S
H396 C373 0.929 . S
H397 C374 0.931 . S
H398 C376 0.930 . S
H399 C377 0.930 . S
Tb400 C402 2.809 . S
Tb400 O420 2.484 . S
Tb400 O421 2.440 . S
Tb400 O422 2.658 . S
Tb400 O423 2.409 . S
Tb400 O424 2.378 . S
Tb400 O428 2.325 1_455 S
Tb400 O431 2.341 1_455 S
Tb401 C411 2.809 . S
Tb401 O422 2.325 1_655 S
Tb401 O425 2.341 1_655 S
Tb401 O426 2.484 . S
Tb401 O427 2.440 . S
Tb401 O428 2.658 . S
Tb401 O429 2.409 . S
Tb401 O430 2.378 . S
C402 Tb400 2.809 . S
C402 C403 1.514 . S
C402 O420 1.248 . S
C402 O421 1.266 . S
C403 C402 1.514 . S
C403 C404 1.359 . S
C403 C408 1.348 . S
C404 C403 1.359 . S
C404 C405 1.380 . S
C404 H432 0.929 . S
C405 C404 1.380 . S
C405 C406 1.347 . S
C405 H433 0.931 . S
C406 C405 1.347 . S
C406 C407 1.369 . S
C407 C406 1.369 . S
C407 C408 1.408 . S
C407 H434 0.930 . S
C408 C403 1.348 . S
C408 C407 1.408 . S
C408 H435 0.930 . S
C409 O422 1.281 . S
C409 O423 1.254 . S
C410 O424 1.236 . S
C410 O425 1.266 . S
C411 Tb401 2.809 . S
C411 C412 1.514 . S
C411 O426 1.248 . S
C411 O427 1.266 . S
C412 C411 1.514 . S
C412 C413 1.359 . S
C412 C417 1.348 . S
C413 C412 1.359 . S
C413 C414 1.380 . S
C413 H436 0.929 . S
C414 C413 1.380 . S
C414 C415 1.347 . S
C414 H437 0.931 . S
C415 C414 1.347 . S
C415 C416 1.369 . S
C416 C415 1.369 . S
C416 C417 1.408 . S
C416 H438 0.930 . S
C417 C412 1.348 . S
C417 C416 1.408 . S
C417 H439 0.930 . S
C418 O428 1.281 . S
C418 O429 1.254 . S
C419 O430 1.236 . S
C419 O431 1.266 . S
O420 Tb400 2.484 . S
O420 C402 1.248 . S
O421 Tb400 2.440 . S
O421 C402 1.266 . S
O422 Tb400 2.658 . S
O422 Tb401 2.325 1_455 S
O422 C409 1.281 . S
O423 Tb400 2.409 . S
O423 C409 1.254 . S
O424 Tb400 2.378 . S
O424 C410 1.236 . S
O425 Tb401 2.341 1_455 S
O425 C410 1.266 . S
O426 Tb401 2.484 . S
O426 C411 1.248 . S
O427 Tb401 2.440 . S
O427 C411 1.266 . S
O428 Tb400 2.325 1_655 S
O428 Tb401 2.658 . S
O428 C418 1.281 . S
O429 Tb401 2.409 . S
O429 C418 1.254 . S
O430 Tb401 2.378 . S
O430 C419 1.236 . S
O431 Tb400 2.341 1_655 S
O431 C419 1.266 . S
H432 C404 0.929 . S
H433 C405 0.931 . S
H434 C407 0.930 . S
H435 C408 0.930 . S
H436 C413 0.929 . S
H437 C414 0.931 . S
H438 C416 0.930 . S
H439 C417 0.930 . S
Tb440 C442 2.809 . S
Tb440 O460 2.484 . S
Tb440 O461 2.440 . S
Tb440 O462 2.658 . S
Tb440 O463 2.409 . S
Tb440 O464 2.378 . S
Tb440 O468 2.325 . S
Tb440 O471 2.341 . S
Tb441 C451 2.809 . S
Tb441 O462 2.325 . S
Tb441 O465 2.341 . S
Tb441 O466 2.484 . S
Tb441 O467 2.440 . S
Tb441 O468 2.658 . S
Tb441 O469 2.409 . S
Tb441 O470 2.378 . S
C442 Tb440 2.809 . S
C442 C443 1.514 . S
C442 O460 1.248 . S
C442 O461 1.266 . S
C443 C442 1.514 . S
C443 C444 1.359 . S
C443 C448 1.348 . S
C444 C443 1.359 . S
C444 C445 1.380 . S
C444 H472 0.929 . S
C445 C444 1.380 . S
C445 C446 1.347 . S
C445 H473 0.931 . S
C446 C445 1.347 . S
C446 C447 1.369 . S
C447 C446 1.369 . S
C447 C448 1.408 . S
C447 H474 0.930 . S
C448 C443 1.348 . S
C448 C447 1.408 . S
C448 H475 0.930 . S
C449 O462 1.281 . S
C449 O463 1.254 . S
C450 O464 1.236 . S
C450 O465 1.266 . S
C451 Tb441 2.809 . S
C451 C452 1.514 . S
C451 O466 1.248 . S
C451 O467 1.266 . S
C452 C451 1.514 . S
C452 C453 1.359 . S
C452 C457 1.348 . S
C453 C452 1.359 . S
C453 C454 1.380 . S
C453 H476 0.929 . S
C454 C453 1.380 . S
C454 C455 1.347 . S
C454 H477 0.931 . S
C455 C454 1.347 . S
C455 C456 1.369 . S
C456 C455 1.369 . S
C456 C457 1.408 . S
C456 H478 0.930 . S
C457 C452 1.348 . S
C457 C456 1.408 . S
C457 H479 0.930 . S
C458 O468 1.281 . S
C458 O469 1.254 . S
C459 O470 1.236 . S
C459 O471 1.266 . S
O460 Tb440 2.484 . S
O460 C442 1.248 . S
O461 Tb440 2.440 . S
O461 C442 1.266 . S
O462 Tb440 2.658 . S
O462 Tb441 2.325 . S
O462 C449 1.281 . S
O463 Tb440 2.409 . S
O463 C449 1.254 . S
O464 Tb440 2.378 . S
O464 C450 1.236 . S
O465 Tb441 2.341 . S
O465 C450 1.266 . S
O466 Tb441 2.484 . S
O466 C451 1.248 . S
O467 Tb441 2.440 . S
O467 C451 1.266 . S
O468 Tb440 2.325 . S
O468 Tb441 2.658 . S
O468 C458 1.281 . S
O469 Tb441 2.409 . S
O469 C458 1.254 . S
O470 Tb441 2.378 . S
O470 C459 1.236 . S
O471 Tb440 2.341 . S
O471 C459 1.266 . S
H472 C444 0.929 . S
H473 C445 0.931 . S
H474 C447 0.930 . S
H475 C448 0.930 . S
H476 C453 0.929 . S
H477 C454 0.931 . S
H478 C456 0.930 . S
H479 C457 0.930 . S
Tb480 C482 2.809 . S
Tb480 O500 2.484 . S
Tb480 O501 2.440 . S
Tb480 O502 2.658 . S
Tb480 O503 2.409 . S
Tb480 O504 2.378 . S
Tb480 O508 2.325 . S
Tb480 O511 2.341 . S
Tb481 C491 2.809 . S
Tb481 O502 2.325 . S
Tb481 O505 2.341 . S
Tb481 O506 2.484 . S
Tb481 O507 2.440 . S
Tb481 O508 2.658 . S
Tb481 O509 2.409 . S
Tb481 O510 2.378 . S
C482 Tb480 2.809 . S
C482 C483 1.514 . S
C482 O500 1.248 . S
C482 O501 1.266 . S
C483 C482 1.514 . S
C483 C484 1.359 . S
C483 C488 1.348 . S
C484 C483 1.359 . S
C484 C485 1.380 . S
C484 H512 0.929 . S
C485 C484 1.380 . S
C485 C486 1.347 . S
C485 H513 0.931 . S
C486 C485 1.347 . S
C486 C487 1.369 . S
C487 C486 1.369 . S
C487 C488 1.408 . S
C487 H514 0.930 . S
C488 C483 1.348 . S
C488 C487 1.408 . S
C488 H515 0.930 . S
C489 O502 1.281 . S
C489 O503 1.254 . S
C490 O504 1.236 . S
C490 O505 1.266 . S
C491 Tb481 2.809 . S
C491 C492 1.514 . S
C491 O506 1.248 . S
C491 O507 1.266 . S
C492 C491 1.514 . S
C492 C493 1.359 . S
C492 C497 1.348 . S
C493 C492 1.359 . S
C493 C494 1.380 . S
C493 H516 0.929 . S
C494 C493 1.380 . S
C494 C495 1.347 . S
C494 H517 0.931 . S
C495 C494 1.347 . S
C495 C496 1.369 . S
C496 C495 1.369 . S
C496 C497 1.408 . S
C496 H518 0.930 . S
C497 C492 1.348 . S
C497 C496 1.408 . S
C497 H519 0.930 . S
C498 O508 1.281 . S
C498 O509 1.254 . S
C499 O510 1.236 . S
C499 O511 1.266 . S
O500 Tb480 2.484 . S
O500 C482 1.248 . S
O501 Tb480 2.440 . S
O501 C482 1.266 . S
O502 Tb480 2.658 . S
O502 Tb481 2.325 . S
O502 C489 1.281 . S
O503 Tb480 2.409 . S
O503 C489 1.254 . S
O504 Tb480 2.378 . S
O504 C490 1.236 . S
O505 Tb481 2.341 . S
O505 C490 1.266 . S
O506 Tb481 2.484 . S
O506 C491 1.248 . S
O507 Tb481 2.440 . S
O507 C491 1.266 . S
O508 Tb480 2.325 . S
O508 Tb481 2.658 . S
O508 C498 1.281 . S
O509 Tb481 2.409 . S
O509 C498 1.254 . S
O510 Tb481 2.378 . S
O510 C499 1.236 . S
O511 Tb480 2.341 . S
O511 C499 1.266 . S
H512 C484 0.929 . S
H513 C485 0.931 . S
H514 C487 0.930 . S
H515 C488 0.930 . S
H516 C493 0.929 . S
H517 C494 0.931 . S
H518 C496 0.930 . S
H519 C497 0.930 . S
Tb520 C522 2.809 . S
Tb520 O540 2.484 . S
Tb520 O541 2.440 . S
Tb520 O542 2.658 . S
Tb520 O543 2.409 . S
Tb520 O544 2.378 . S
Tb520 O548 2.325 . S
Tb520 O551 2.341 . S
Tb521 C531 2.809 . S
Tb521 O542 2.325 . S
Tb521 O545 2.341 . S
Tb521 O546 2.484 . S
Tb521 O547 2.440 . S
Tb521 O548 2.658 . S
Tb521 O549 2.409 . S
Tb521 O550 2.378 . S
C522 Tb520 2.809 . S
C522 C523 1.514 . S
C522 O540 1.248 . S
C522 O541 1.266 . S
C523 C522 1.514 . S
C523 C524 1.359 . S
C523 C528 1.348 . S
C524 C523 1.359 . S
C524 C525 1.380 . S
C524 H552 0.929 . S
C525 C524 1.380 . S
C525 C526 1.347 . S
C525 H553 0.931 . S
C526 C525 1.347 . S
C526 C527 1.369 . S
C527 C526 1.369 . S
C527 C528 1.408 . S
C527 H554 0.930 . S
C528 C523 1.348 . S
C528 C527 1.408 . S
C528 H555 0.930 . S
C529 O542 1.281 . S
C529 O543 1.254 . S
C530 O544 1.236 . S
C530 O545 1.266 . S
C531 Tb521 2.809 . S
C531 C532 1.514 . S
C531 O546 1.248 . S
C531 O547 1.266 . S
C532 C531 1.514 . S
C532 C533 1.359 . S
C532 C537 1.348 . S
C533 C532 1.359 . S
C533 C534 1.380 . S
C533 H556 0.929 . S
C534 C533 1.380 . S
C534 C535 1.347 . S
C534 H557 0.931 . S
C535 C534 1.347 . S
C535 C536 1.369 . S
C536 C535 1.369 . S
C536 C537 1.408 . S
C536 H558 0.930 . S
C537 C532 1.348 . S
C537 C536 1.408 . S
C537 H559 0.930 . S
C538 O548 1.281 . S
C538 O549 1.254 . S
C539 O550 1.236 . S
C539 O551 1.266 . S
O540 Tb520 2.484 . S
O540 C522 1.248 . S
O541 Tb520 2.440 . S
O541 C522 1.266 . S
O542 Tb520 2.658 . S
O542 Tb521 2.325 . S
O542 C529 1.281 . S
O543 Tb520 2.409 . S
O543 C529 1.254 . S
O544 Tb520 2.378 . S
O544 C530 1.236 . S
O545 Tb521 2.341 . S
O545 C530 1.266 . S
O546 Tb521 2.484 . S
O546 C531 1.248 . S
O547 Tb521 2.440 . S
O547 C531 1.266 . S
O548 Tb520 2.325 . S
O548 Tb521 2.658 . S
O548 C538 1.281 . S
O549 Tb521 2.409 . S
O549 C538 1.254 . S
O550 Tb521 2.378 . S
O550 C539 1.236 . S
O551 Tb520 2.341 . S
O551 C539 1.266 . S
H552 C524 0.929 . S
H553 C525 0.931 . S
H554 C527 0.930 . S
H555 C528 0.930 . S
H556 C533 0.929 . S
H557 C534 0.931 . S
H558 C536 0.930 . S
H559 C537 0.930 . S
Tb560 C562 2.809 . S
Tb560 O580 2.484 . S
Tb560 O581 2.440 . S
Tb560 O582 2.658 . S
Tb560 O583 2.409 . S
Tb560 O584 2.378 . S
Tb560 O588 2.325 . S
Tb560 O591 2.341 . S
Tb561 C571 2.809 . S
Tb561 O582 2.325 . S
Tb561 O585 2.341 . S
Tb561 O586 2.484 . S
Tb561 O587 2.440 . S
Tb561 O588 2.658 . S
Tb561 O589 2.409 . S
Tb561 O590 2.378 . S
C562 Tb560 2.809 . S
C562 C563 1.514 . S
C562 O580 1.248 . S
C562 O581 1.266 . S
C563 C562 1.514 . S
C563 C564 1.359 . S
C563 C568 1.348 . S
C564 C563 1.359 . S
C564 C565 1.380 . S
C564 H592 0.929 . S
C565 C564 1.380 . S
C565 C566 1.347 . S
C565 H593 0.931 . S
C566 C565 1.347 . S
C566 C567 1.369 . S
C567 C566 1.369 . S
C567 C568 1.408 . S
C567 H594 0.930 . S
C568 C563 1.348 . S
C568 C567 1.408 . S
C568 H595 0.930 . S
C569 O582 1.281 . S
C569 O583 1.254 . S
C570 O584 1.236 . S
C570 O585 1.266 . S
C571 Tb561 2.809 . S
C571 C572 1.514 . S
C571 O586 1.248 . S
C571 O587 1.266 . S
C572 C571 1.514 . S
C572 C573 1.359 . S
C572 C577 1.348 . S
C573 C572 1.359 . S
C573 C574 1.380 . S
C573 H596 0.929 . S
C574 C573 1.380 . S
C574 C575 1.347 . S
C574 H597 0.931 . S
C575 C574 1.347 . S
C575 C576 1.369 . S
C576 C575 1.369 . S
C576 C577 1.408 . S
C576 H598 0.930 . S
C577 C572 1.348 . S
C577 C576 1.408 . S
C577 H599 0.930 . S
C578 O588 1.281 . S
C578 O589 1.254 . S
C579 O590 1.236 . S
C579 O591 1.266 . S
O580 Tb560 2.484 . S
O580 C562 1.248 . S
O581 Tb560 2.440 . S
O581 C562 1.266 . S
O582 Tb560 2.658 . S
O582 Tb561 2.325 . S
O582 C569 1.281 . S
O583 Tb560 2.409 . S
O583 C569 1.254 . S
O584 Tb560 2.378 . S
O584 C570 1.236 . S
O585 Tb561 2.341 . S
O585 C570 1.266 . S
O586 Tb561 2.484 . S
O586 C571 1.248 . S
O587 Tb561 2.440 . S
O587 C571 1.266 . S
O588 Tb560 2.325 . S
O588 Tb561 2.658 . S
O588 C578 1.281 . S
O589 Tb561 2.409 . S
O589 C578 1.254 . S
O590 Tb561 2.378 . S
O590 C579 1.236 . S
O591 Tb560 2.341 . S
O591 C579 1.266 . S
H592 C564 0.929 . S
H593 C565 0.931 . S
H594 C567 0.930 . S
H595 C568 0.930 . S
H596 C573 0.929 . S
H597 C574 0.931 . S
H598 C576 0.930 . S
H599 C577 0.930 . S
Tb600 C602 2.809 . S
Tb600 O620 2.484 . S
Tb600 O621 2.440 . S
Tb600 O622 2.658 1_554 S
Tb600 O623 2.409 1_554 S
Tb600 O624 2.378 1_554 S
Tb600 O628 2.325 1_655 S
Tb600 O631 2.341 1_655 S
Tb601 C611 2.809 . S
Tb601 O622 2.325 1_455 S
Tb601 O625 2.341 1_455 S
Tb601 O626 2.484 . S
Tb601 O627 2.440 . S
Tb601 O628 2.658 1_556 S
Tb601 O629 2.409 1_556 S
Tb601 O630 2.378 1_556 S
C602 Tb600 2.809 . S
C602 C603 1.514 . S
C602 O620 1.248 . S
C602 O621 1.266 . S
C603 C602 1.514 . S
C603 C604 1.359 . S
C603 C608 1.348 . S
C604 C603 1.359 . S
C604 C605 1.380 . S
C604 H632 0.929 . S
C605 C604 1.380 . S
C605 C606 1.347 . S
C605 H633 0.931 . S
C606 C605 1.347 . S
C606 C607 1.369 . S
C607 C606 1.369 . S
C607 C608 1.408 . S
C607 H634 0.930 . S
C608 C603 1.348 . S
C608 C607 1.408 . S
C608 H635 0.930 . S
C609 O622 1.281 . S
C609 O623 1.254 . S
C610 O624 1.236 . S
C610 O625 1.266 . S
C611 Tb601 2.809 . S
C611 C612 1.514 . S
C611 O626 1.248 . S
C611 O627 1.266 . S
C612 C611 1.514 . S
C612 C613 1.359 . S
C612 C617 1.348 . S
C613 C612 1.359 . S
C613 C614 1.380 . S
C613 H636 0.929 . S
C614 C613 1.380 . S
C614 C615 1.347 . S
C614 H637 0.931 . S
C615 C614 1.347 . S
C615 C616 1.369 . S
C616 C615 1.369 . S
C616 C617 1.408 . S
C616 H638 0.930 . S
C617 C612 1.348 . S
C617 C616 1.408 . S
C617 H639 0.930 . S
C618 O628 1.281 . S
C618 O629 1.254 . S
C619 O630 1.236 . S
C619 O631 1.266 . S
O620 Tb600 2.484 . S
O620 C602 1.248 . S
O621 Tb600 2.440 . S
O621 C602 1.266 . S
O622 Tb600 2.658 1_556 S
O622 Tb601 2.325 1_655 S
O622 C609 1.281 . S
O623 Tb600 2.409 1_556 S
O623 C609 1.254 . S
O624 Tb600 2.378 1_556 S
O624 C610 1.236 . S
O625 Tb601 2.341 1_655 S
O625 C610 1.266 . S
O626 Tb601 2.484 . S
O626 C611 1.248 . S
O627 Tb601 2.440 . S
O627 C611 1.266 . S
O628 Tb600 2.325 1_455 S
O628 Tb601 2.658 1_554 S
O628 C618 1.281 . S
O629 Tb601 2.409 1_554 S
O629 C618 1.254 . S
O630 Tb601 2.378 1_554 S
O630 C619 1.236 . S
O631 Tb600 2.341 1_455 S
O631 C619 1.266 . S
H632 C604 0.929 . S
H633 C605 0.931 . S
H634 C607 0.930 . S
H635 C608 0.930 . S
H636 C613 0.929 . S
H637 C614 0.931 . S
H638 C616 0.930 . S
H639 C617 0.930 . S
H640 C648 0.929 . S
H641 C650 0.930 . S
H642 C652 0.930 . S
H643 C655 0.929 . S
H644 C658 0.930 . S
H645 C660 0.960 . S
H646 C660 0.960 . S
H647 C660 0.960 . S
C648 H640 0.929 . S
C648 C649 1.377 . S
C648 C650 1.384 . S
C649 C648 1.377 . S
C649 C655 1.390 . S
C650 H641 0.930 . S
C650 C648 1.384 . S
C650 C651 1.372 . S
C651 C650 1.372 . S
C651 C652 1.400 . S
C651 C656 1.490 . S
C652 H642 0.930 . S
C652 C651 1.400 . S
C652 C655 1.386 . S
H653 C669 0.930 . S
H654 C670 0.931 . S
C655 H643 0.929 . S
C655 C649 1.390 . S
C655 C652 1.386 . S
C656 C651 1.490 . S
C656 C658 1.395 . S
C656 C659 1.403 . S
H657 C663 0.930 . S
C658 H644 0.930 . S
C658 C656 1.395 . S
C658 C661 1.403 . S
C659 C656 1.403 . S
C659 C660 1.524 . S
C659 C663 1.400 . S
C660 H645 0.960 . S
C660 H646 0.960 . S
C660 H647 0.960 . S
C660 C659 1.524 . S
C661 C658 1.403 . S
C661 C662 1.392 . S
C661 C665 1.495 . S
C662 C661 1.392 . S
C662 C663 1.385 . S
C662 C664 1.478 . S
C663 H657 0.930 . S
C663 C659 1.400 . S
C663 C662 1.385 . S
C664 C662 1.478 . S
C664 C666 1.381 . S
C664 C670 1.383 . S
C665 C661 1.495 . S
C665 H671 0.959 . S
C665 H672 0.961 . S
C665 H673 0.960 . S
C666 C664 1.381 . S
C666 C667 1.394 . S
C666 H674 0.930 . S
C667 C666 1.394 . S
C667 C668 1.383 . S
C667 H675 0.929 . S
C668 C667 1.383 . S
C668 C669 1.377 . S
C669 H653 0.930 . S
C669 C668 1.377 . S
C669 C670 1.379 . S
C670 H654 0.931 . S
C670 C664 1.383 . S
C670 C669 1.379 . S
H671 C665 0.959 . S
H672 C665 0.961 . S
H673 C665 0.960 . S
H674 C666 0.930 . S
H675 C667 0.929 . S
H676 C684 0.929 . S
H677 C686 0.930 . S
H678 C688 0.930 . S
H679 C691 0.929 . S
H680 C694 0.930 . S
H681 C696 0.960 . S
H682 C696 0.960 . S
H683 C696 0.960 . S
C684 H676 0.929 . S
C684 C685 1.377 . S
C684 C686 1.384 . S
C685 C684 1.377 . S
C685 C691 1.390 . S
C686 H677 0.930 . S
C686 C684 1.384 . S
C686 C687 1.372 . S
C687 C686 1.372 . S
C687 C688 1.400 . S
C687 C692 1.490 . S
C688 H678 0.930 . S
C688 C687 1.400 . S
C688 C691 1.386 . S
H689 C705 0.930 . S
H690 C706 0.931 . S
C691 H679 0.929 . S
C691 C685 1.390 . S
C691 C688 1.386 . S
C692 C687 1.490 . S
C692 C694 1.395 . S
C692 C695 1.403 . S
H693 C699 0.930 . S
C694 H680 0.930 . S
C694 C692 1.395 . S
C694 C697 1.403 . S
C695 C692 1.403 . S
C695 C696 1.524 . S
C695 C699 1.400 . S
C696 H681 0.960 . S
C696 H682 0.960 . S
C696 H683 0.960 . S
C696 C695 1.524 . S
C697 C694 1.403 . S
C697 C698 1.392 . S
C697 C701 1.495 . S
C698 C697 1.392 . S
C698 C699 1.385 . S
C698 C700 1.478 . S
C699 H693 0.930 . S
C699 C695 1.400 . S
C699 C698 1.385 . S
C700 C698 1.478 . S
C700 C702 1.381 . S
C700 C706 1.383 . S
C701 C697 1.495 . S
C701 H707 0.959 . S
C701 H708 0.961 . S
C701 H709 0.960 . S
C702 C700 1.381 . S
C702 C703 1.394 . S
C702 H710 0.930 . S
C703 C702 1.394 . S
C703 C704 1.383 . S
C703 H711 0.929 . S
C704 C703 1.383 . S
C704 C705 1.377 . S
C705 H689 0.930 . S
C705 C704 1.377 . S
C705 C706 1.379 . S
C706 H690 0.931 . S
C706 C700 1.383 . S
C706 C705 1.379 . S
H707 C701 0.959 . S
H708 C701 0.961 . S
H709 C701 0.960 . S
H710 C702 0.930 . S
H711 C703 0.929 . S
H712 C720 0.929 . S
H713 C722 0.930 . S
H714 C724 0.930 . S
H715 C727 0.929 . S
H716 C730 0.930 . S
H717 C732 0.960 . S
H718 C732 0.960 . S
H719 C732 0.960 . S
C720 H712 0.929 . S
C720 C721 1.377 . S
C720 C722 1.384 . S
C721 C720 1.377 . S
C721 C727 1.390 . S
C722 H713 0.930 . S
C722 C720 1.384 . S
C722 C723 1.372 . S
C723 C722 1.372 . S
C723 C724 1.400 . S
C723 C728 1.490 . S
C724 H714 0.930 . S
C724 C723 1.400 . S
C724 C727 1.386 . S
H725 C741 0.930 . S
H726 C742 0.931 . S
C727 H715 0.929 . S
C727 C721 1.390 . S
C727 C724 1.386 . S
C728 C723 1.490 . S
C728 C730 1.395 . S
C728 C731 1.403 . S
H729 C735 0.930 . S
C730 H716 0.930 . S
C730 C728 1.395 . S
C730 C733 1.403 . S
C731 C728 1.403 . S
C731 C732 1.524 . S
C731 C735 1.400 . S
C732 H717 0.960 . S
C732 H718 0.960 . S
C732 H719 0.960 . S
C732 C731 1.524 . S
C733 C730 1.403 . S
C733 C734 1.392 . S
C733 C737 1.495 . S
C734 C733 1.392 . S
C734 C735 1.385 . S
C734 C736 1.478 . S
C735 H729 0.930 . S
C735 C731 1.400 . S
C735 C734 1.385 . S
C736 C734 1.478 . S
C736 C738 1.381 . S
C736 C742 1.383 . S
C737 C733 1.495 . S
C737 H743 0.959 . S
C737 H744 0.961 . S
C737 H745 0.960 . S
C738 C736 1.381 . S
C738 C739 1.394 . S
C738 H746 0.930 . S
C739 C738 1.394 . S
C739 C740 1.383 . S
C739 H747 0.929 . S
C740 C739 1.383 . S
C740 C741 1.377 . S
C741 H725 0.930 . S
C741 C740 1.377 . S
C741 C742 1.379 . S
C742 H726 0.931 . S
C742 C736 1.383 . S
C742 C741 1.379 . S
H743 C737 0.959 . S
H744 C737 0.961 . S
H745 C737 0.960 . S
H746 C738 0.930 . S
H747 C739 0.929 . S
H748 C756 0.929 . S
H749 C758 0.930 . S
H750 C760 0.930 . S
H751 C763 0.929 . S
H752 C766 0.930 . S
H753 C768 0.960 . S
H754 C768 0.960 . S
H755 C768 0.960 . S
C756 H748 0.929 . S
C756 C757 1.377 . S
C756 C758 1.384 . S
C757 C756 1.377 . S
C757 C763 1.390 . S
C758 H749 0.930 . S
C758 C756 1.384 . S
C758 C759 1.372 . S
C759 C758 1.372 . S
C759 C760 1.400 . S
C759 C764 1.490 . S
C760 H750 0.930 . S
C760 C759 1.400 . S
C760 C763 1.386 . S
H761 C777 0.930 . S
H762 C778 0.931 . S
C763 H751 0.929 . S
C763 C757 1.390 . S
C763 C760 1.386 . S
C764 C759 1.490 . S
C764 C766 1.395 . S
C764 C767 1.403 . S
H765 C771 0.930 . S
C766 H752 0.930 . S
C766 C764 1.395 . S
C766 C769 1.403 . S
C767 C764 1.403 . S
C767 C768 1.524 . S
C767 C771 1.400 . S
C768 H753 0.960 . S
C768 H754 0.960 . S
C768 H755 0.960 . S
C768 C767 1.524 . S
C769 C766 1.403 . S
C769 C770 1.392 . S
C769 C773 1.495 . S
C770 C769 1.392 . S
C770 C771 1.385 . S
C770 C772 1.478 . S
C771 H765 0.930 . S
C771 C767 1.400 . S
C771 C770 1.385 . S
C772 C770 1.478 . S
C772 C774 1.381 . S
C772 C778 1.383 . S
C773 C769 1.495 . S
C773 H779 0.959 . S
C773 H780 0.961 . S
C773 H781 0.960 . S
C774 C772 1.381 . S
C774 C775 1.394 . S
C774 H782 0.930 . S
C775 C774 1.394 . S
C775 C776 1.383 . S
C775 H783 0.929 . S
C776 C775 1.383 . S
C776 C777 1.377 . S
C777 H761 0.930 . S
C777 C776 1.377 . S
C777 C778 1.379 . S
C778 H762 0.931 . S
C778 C772 1.383 . S
C778 C777 1.379 . S
H779 C773 0.959 . S
H780 C773 0.961 . S
H781 C773 0.960 . S
H782 C774 0.930 . S
H783 C775 0.929 . S
H784 C792 0.929 . S
H785 C794 0.930 . S
H786 C796 0.930 . S
H787 C799 0.929 . S
H788 C802 0.930 . S
H789 C804 0.960 . S
H790 C804 0.960 . S
H791 C804 0.960 . S
C792 H784 0.929 . S
C792 C793 1.377 . S
C792 C794 1.384 . S
C793 C792 1.377 . S
C793 C799 1.390 . S
C794 H785 0.930 . S
C794 C792 1.384 . S
C794 C795 1.372 . S
C795 C794 1.372 . S
C795 C796 1.400 . S
C795 C800 1.490 . S
C796 H786 0.930 . S
C796 C795 1.400 . S
C796 C799 1.386 . S
H797 C813 0.930 . S
H798 C814 0.931 . S
C799 H787 0.929 . S
C799 C793 1.390 . S
C799 C796 1.386 . S
C800 C795 1.490 . S
C800 C802 1.395 . S
C800 C803 1.403 . S
H801 C807 0.930 . S
C802 H788 0.930 . S
C802 C800 1.395 . S
C802 C805 1.403 . S
C803 C800 1.403 . S
C803 C804 1.524 . S
C803 C807 1.400 . S
C804 H789 0.960 . S
C804 H790 0.960 . S
C804 H791 0.960 . S
C804 C803 1.524 . S
C805 C802 1.403 . S
C805 C806 1.392 . S
C805 C809 1.495 . S
C806 C805 1.392 . S
C806 C807 1.385 . S
C806 C808 1.478 . S
C807 H801 0.930 . S
C807 C803 1.400 . S
C807 C806 1.385 . S
C808 C806 1.478 . S
C808 C810 1.381 . S
C808 C814 1.383 . S
C809 C805 1.495 . S
C809 H815 0.959 . S
C809 H816 0.961 . S
C809 H817 0.960 . S
C810 C808 1.381 . S
C810 C811 1.394 . S
C810 H818 0.930 . S
C811 C810 1.394 . S
C811 C812 1.383 . S
C811 H819 0.929 . S
C812 C811 1.383 . S
C812 C813 1.377 . S
C813 H797 0.930 . S
C813 C812 1.377 . S
C813 C814 1.379 . S
C814 H798 0.931 . S
C814 C808 1.383 . S
C814 C813 1.379 . S
H815 C809 0.959 . S
H816 C809 0.961 . S
H817 C809 0.960 . S
H818 C810 0.930 . S
H819 C811 0.929 . S
H820 C828 0.929 . S
H821 C830 0.930 . S
H822 C832 0.930 . S
H823 C835 0.929 . S
H824 C838 0.930 . S
H825 C840 0.960 . S
H826 C840 0.960 . S
H827 C840 0.960 . S
C828 H820 0.929 . S
C828 C829 1.377 . S
C828 C830 1.384 . S
C829 C828 1.377 . S
C829 C835 1.390 . S
C830 H821 0.930 . S
C830 C828 1.384 . S
C830 C831 1.372 . S
C831 C830 1.372 . S
C831 C832 1.400 . S
C831 C836 1.490 . S
C832 H822 0.930 . S
C832 C831 1.400 . S
C832 C835 1.386 . S
H833 C849 0.930 . S
H834 C850 0.931 . S
C835 H823 0.929 . S
C835 C829 1.390 . S
C835 C832 1.386 . S
C836 C831 1.490 . S
C836 C838 1.395 . S
C836 C839 1.403 . S
H837 C843 0.930 . S
C838 H824 0.930 . S
C838 C836 1.395 . S
C838 C841 1.403 . S
C839 C836 1.403 . S
C839 C840 1.524 . S
C839 C843 1.400 . S
C840 H825 0.960 . S
C840 H826 0.960 . S
C840 H827 0.960 . S
C840 C839 1.524 . S
C841 C838 1.403 . S
C841 C842 1.392 . S
C841 C845 1.495 . S
C842 C841 1.392 . S
C842 C843 1.385 . S
C842 C844 1.478 . S
C843 H837 0.930 . S
C843 C839 1.400 . S
C843 C842 1.385 . S
C844 C842 1.478 . S
C844 C846 1.381 . S
C844 C850 1.383 . S
C845 C841 1.495 . S
C845 H851 0.959 . S
C845 H852 0.961 . S
C845 H853 0.960 . S
C846 C844 1.381 . S
C846 C847 1.394 . S
C846 H854 0.930 . S
C847 C846 1.394 . S
C847 C848 1.383 . S
C847 H855 0.929 . S
C848 C847 1.383 . S
C848 C849 1.377 . S
C849 H833 0.930 . S
C849 C848 1.377 . S
C849 C850 1.379 . S
C850 H834 0.931 . S
C850 C844 1.383 . S
C850 C849 1.379 . S
H851 C845 0.959 . S
H852 C845 0.961 . S
H853 C845 0.960 . S
H854 C846 0.930 . S
H855 C847 0.929 . S
H856 C864 0.929 . S
H857 C866 0.930 . S
H858 C868 0.930 . S
H859 C871 0.929 . S
H860 C874 0.930 . S
H861 C876 0.960 . S
H862 C876 0.960 . S
H863 C876 0.960 . S
C864 H856 0.929 . S
C864 C865 1.377 . S
C864 C866 1.384 . S
C865 C864 1.377 . S
C865 C871 1.390 . S
C866 H857 0.930 . S
C866 C864 1.384 . S
C866 C867 1.372 . S
C867 C866 1.372 . S
C867 C868 1.400 . S
C867 C872 1.490 . S
C868 H858 0.930 . S
C868 C867 1.400 . S
C868 C871 1.386 . S
H869 C885 0.930 . S
H870 C886 0.931 . S
C871 H859 0.929 . S
C871 C865 1.390 . S
C871 C868 1.386 . S
C872 C867 1.490 . S
C872 C874 1.395 . S
C872 C875 1.403 . S
H873 C879 0.930 . S
C874 H860 0.930 . S
C874 C872 1.395 . S
C874 C877 1.403 . S
C875 C872 1.403 . S
C875 C876 1.524 . S
C875 C879 1.400 . S
C876 H861 0.960 . S
C876 H862 0.960 . S
C876 H863 0.960 . S
C876 C875 1.524 . S
C877 C874 1.403 . S
C877 C878 1.392 . S
C877 C881 1.495 . S
C878 C877 1.392 . S
C878 C879 1.385 . S
C878 C880 1.478 . S
C879 H873 0.930 . S
C879 C875 1.400 . S
C879 C878 1.385 . S
C880 C878 1.478 . S
C880 C882 1.381 . S
C880 C886 1.383 . S
C881 C877 1.495 . S
C881 H887 0.959 . S
C881 H888 0.961 . S
C881 H889 0.960 . S
C882 C880 1.381 . S
C882 C883 1.394 . S
C882 H890 0.930 . S
C883 C882 1.394 . S
C883 C884 1.383 . S
C883 H891 0.929 . S
C884 C883 1.383 . S
C884 C885 1.377 . S
C885 H869 0.930 . S
C885 C884 1.377 . S
C885 C886 1.379 . S
C886 H870 0.931 . S
C886 C880 1.383 . S
C886 C885 1.379 . S
H887 C881 0.959 . S
H888 C881 0.961 . S
H889 C881 0.960 . S
H890 C882 0.930 . S
H891 C883 0.929 . S
H892 C900 0.929 . S
H893 C902 0.930 . S
H894 C904 0.930 . S
H895 C907 0.929 . S
H896 C910 0.930 . S
H897 C912 0.960 . S
H898 C912 0.960 . S
H899 C912 0.960 . S
C900 H892 0.929 . S
C900 C901 1.377 . S
C900 C902 1.384 . S
C901 C900 1.377 . S
C901 C907 1.390 . S
C902 H893 0.930 . S
C902 C900 1.384 . S
C902 C903 1.372 . S
C903 C902 1.372 . S
C903 C904 1.400 . S
C903 C908 1.490 . S
C904 H894 0.930 . S
C904 C903 1.400 . S
C904 C907 1.386 . S
H905 C921 0.930 . S
H906 C922 0.931 . S
C907 H895 0.929 . S
C907 C901 1.390 . S
C907 C904 1.386 . S
C908 C903 1.490 . S
C908 C910 1.395 . S
C908 C911 1.403 . S
H909 C915 0.930 . S
C910 H896 0.930 . S
C910 C908 1.395 . S
C910 C913 1.403 . S
C911 C908 1.403 . S
C911 C912 1.524 . S
C911 C915 1.400 . S
C912 H897 0.960 . S
C912 H898 0.960 . S
C912 H899 0.960 . S
C912 C911 1.524 . S
C913 C910 1.403 . S
C913 C914 1.392 . S
C913 C917 1.495 . S
C914 C913 1.392 . S
C914 C915 1.385 . S
C914 C916 1.478 . S
C915 H909 0.930 . S
C915 C911 1.400 . S
C915 C914 1.385 . S
C916 C914 1.478 . S
C916 C918 1.381 . S
C916 C922 1.383 . S
C917 C913 1.495 . S
C917 H923 0.959 . S
C917 H924 0.961 . S
C917 H925 0.960 . S
C918 C916 1.381 . S
C918 C919 1.394 . S
C918 H926 0.930 . S
C919 C918 1.394 . S
C919 C920 1.383 . S
C919 H927 0.929 . S
C920 C919 1.383 . S
C920 C921 1.377 . S
C921 H905 0.930 . S
C921 C920 1.377 . S
C921 C922 1.379 . S
C922 H906 0.931 . S
C922 C916 1.383 . S
C922 C921 1.379 . S
H923 C917 0.959 . S
H924 C917 0.961 . S
H925 C917 0.960 . S
H926 C918 0.930 . S
H927 C919 0.929 . S
H928 C936 0.929 . S
H929 C938 0.930 . S
H930 C940 0.930 . S
H931 C943 0.929 . S
H932 C946 0.930 . S
H933 C948 0.960 . S
H934 C948 0.960 . S
H935 C948 0.960 . S
C936 H928 0.929 . S
C936 C937 1.377 . S
C936 C938 1.384 . S
C937 C936 1.377 . S
C937 C943 1.390 . S
C938 H929 0.930 . S
C938 C936 1.384 . S
C938 C939 1.372 . S
C939 C938 1.372 . S
C939 C940 1.400 . S
C939 C944 1.490 . S
C940 H930 0.930 . S
C940 C939 1.400 . S
C940 C943 1.386 . S
H941 C957 0.930 . S
H942 C958 0.931 . S
C943 H931 0.929 . S
C943 C937 1.390 . S
C943 C940 1.386 . S
C944 C939 1.490 . S
C944 C946 1.395 . S
C944 C947 1.403 . S
H945 C951 0.930 . S
C946 H932 0.930 . S
C946 C944 1.395 . S
C946 C949 1.403 . S
C947 C944 1.403 . S
C947 C948 1.524 . S
C947 C951 1.400 . S
C948 H933 0.960 . S
C948 H934 0.960 . S
C948 H935 0.960 . S
C948 C947 1.524 . S
C949 C946 1.403 . S
C949 C950 1.392 . S
C949 C953 1.495 . S
C950 C949 1.392 . S
C950 C951 1.385 . S
C950 C952 1.478 . S
C951 H945 0.930 . S
C951 C947 1.400 . S
C951 C950 1.385 . S
C952 C950 1.478 . S
C952 C954 1.381 . S
C952 C958 1.383 . S
C953 C949 1.495 . S
C953 H959 0.959 . S
C953 H960 0.961 . S
C953 H961 0.960 . S
C954 C952 1.381 . S
C954 C955 1.394 . S
C954 H962 0.930 . S
C955 C954 1.394 . S
C955 C956 1.383 . S
C955 H963 0.929 . S
C956 C955 1.383 . S
C956 C957 1.377 . S
C957 H941 0.930 . S
C957 C956 1.377 . S
C957 C958 1.379 . S
C958 H942 0.931 . S
C958 C952 1.383 . S
C958 C957 1.379 . S
H959 C953 0.959 . S
H960 C953 0.961 . S
H961 C953 0.960 . S
H962 C954 0.930 . S
H963 C955 0.929 . S
H964 C972 0.929 1_655 S
H965 C974 0.930 . S
H966 C976 0.930 . S
H967 C979 0.929 . S
H968 C982 0.930 . S
H969 C984 0.960 . S
H970 C984 0.960 . S
H971 C984 0.960 . S
C972 H964 0.929 1_455 S
C972 C973 1.377 . S
C972 C974 1.384 . S
C973 C972 1.377 . S
C973 C979 1.390 . S
C974 H965 0.930 . S
C974 C972 1.384 . S
C974 C975 1.372 . S
C975 C974 1.372 . S
C975 C976 1.400 . S
C975 C980 1.490 . S
C976 H966 0.930 . S
C976 C975 1.400 . S
C976 C979 1.386 . S
H977 C993 0.930 . S
H978 C994 0.931 . S
C979 H967 0.929 . S
C979 C973 1.390 . S
C979 C976 1.386 . S
C980 C975 1.490 . S
C980 C982 1.395 . S
C980 C983 1.403 . S
H981 C987 0.930 . S
C982 H968 0.930 . S
C982 C980 1.395 . S
C982 C985 1.403 . S
C983 C980 1.403 . S
C983 C984 1.524 . S
C983 C987 1.400 . S
C984 H969 0.960 . S
C984 H970 0.960 . S
C984 H971 0.960 . S
C984 C983 1.524 . S
C985 C982 1.403 . S
C985 C986 1.392 . S
C985 C989 1.495 . S
C986 C985 1.392 . S
C986 C987 1.385 . S
C986 C988 1.478 . S
C987 H981 0.930 . S
C987 C983 1.400 . S
C987 C986 1.385 . S
C988 C986 1.478 . S
C988 C990 1.381 . S
C988 C994 1.383 . S
C989 C985 1.495 . S
C989 H995 0.959 . S
C989 H996 0.961 . S
C989 H997 0.960 . S
C990 C988 1.381 . S
C990 C991 1.394 . S
C990 H998 0.930 . S
C991 C990 1.394 . S
C991 C992 1.383 . S
C991 H999 0.929 . S
C992 C991 1.383 . S
C992 C993 1.377 . S
C993 H977 0.930 . S
C993 C992 1.377 . S
C993 C994 1.379 . S
C994 H978 0.931 . S
C994 C988 1.383 . S
C994 C993 1.379 . S
H995 C989 0.959 . S
H996 C989 0.961 . S
H997 C989 0.960 . S
H998 C990 0.930 . S
H999 C991 0.929 . S
H1000 C1008 0.929 . S
H1001 C1010 0.930 . S
H1002 C1012 0.930 . S
H1003 C1015 0.929 . S
H1004 C1018 0.930 . S
H1005 C1020 0.960 . S
H1006 C1020 0.960 . S
H1007 C1020 0.960 . S
C1008 H1000 0.929 . S
C1008 C1009 1.377 . S
C1008 C1010 1.384 . S
C1009 C1008 1.377 . S
C1009 C1015 1.390 . S
C1010 H1001 0.930 . S
C1010 C1008 1.384 . S
C1010 C1011 1.372 . S
C1011 C1010 1.372 . S
C1011 C1012 1.400 . S
C1011 C1016 1.490 . S
C1012 H1002 0.930 . S
C1012 C1011 1.400 . S
C1012 C1015 1.386 . S
H1013 C1029 0.930 . S
H1014 C1030 0.931 . S
C1015 H1003 0.929 . S
C1015 C1009 1.390 . S
C1015 C1012 1.386 . S
C1016 C1011 1.490 . S
C1016 C1018 1.395 . S
C1016 C1019 1.403 . S
H1017 C1023 0.930 . S
C1018 H1004 0.930 . S
C1018 C1016 1.395 . S
C1018 C1021 1.403 . S
C1019 C1016 1.403 . S
C1019 C1020 1.524 . S
C1019 C1023 1.400 . S
C1020 H1005 0.960 . S
C1020 H1006 0.960 . S
C1020 H1007 0.960 . S
C1020 C1019 1.524 . S
C1021 C1018 1.403 . S
C1021 C1022 1.392 . S
C1021 C1025 1.495 . S
C1022 C1021 1.392 . S
C1022 C1023 1.385 . S
C1022 C1024 1.478 . S
C1023 H1017 0.930 . S
C1023 C1019 1.400 . S
C1023 C1022 1.385 . S
C1024 C1022 1.478 . S
C1024 C1026 1.381 . S
C1024 C1030 1.383 . S
C1025 C1021 1.495 . S
C1025 H1031 0.959 . S
C1025 H1032 0.961 . S
C1025 H1033 0.960 . S
C1026 C1024 1.381 . S
C1026 C1027 1.394 . S
C1026 H1034 0.930 . S
C1027 C1026 1.394 . S
C1027 C1028 1.383 . S
C1027 H1035 0.929 . S
C1028 C1027 1.383 . S
C1028 C1029 1.377 . S
C1029 H1013 0.930 . S
C1029 C1028 1.377 . S
C1029 C1030 1.379 . S
C1030 H1014 0.931 . S
C1030 C1024 1.383 . S
C1030 C1029 1.379 . S
H1031 C1025 0.959 . S
H1032 C1025 0.961 . S
H1033 C1025 0.960 . S
H1034 C1026 0.930 . S
H1035 C1027 0.929 . S
H1036 C1044 0.929 . S
H1037 C1046 0.930 . S
H1038 C1048 0.930 . S
H1039 C1051 0.929 . S
H1040 C1054 0.930 . S
H1041 C1056 0.960 . S
H1042 C1056 0.960 . S
H1043 C1056 0.960 . S
C1044 H1036 0.929 . S
C1044 C1045 1.377 . S
C1044 C1046 1.384 . S
C1045 C1044 1.377 . S
C1045 C1051 1.390 . S
C1046 H1037 0.930 . S
C1046 C1044 1.384 . S
C1046 C1047 1.372 . S
C1047 C1046 1.372 . S
C1047 C1048 1.400 . S
C1047 C1052 1.490 . S
C1048 H1038 0.930 . S
C1048 C1047 1.400 . S
C1048 C1051 1.386 . S
H1049 C1065 0.930 . S
H1050 C1066 0.931 . S
C1051 H1039 0.929 . S
C1051 C1045 1.390 . S
C1051 C1048 1.386 . S
C1052 C1047 1.490 . S
C1052 C1054 1.395 . S
C1052 C1055 1.403 . S
H1053 C1059 0.930 . S
C1054 H1040 0.930 . S
C1054 C1052 1.395 . S
C1054 C1057 1.403 . S
C1055 C1052 1.403 . S
C1055 C1056 1.524 . S
C1055 C1059 1.400 . S
C1056 H1041 0.960 . S
C1056 H1042 0.960 . S
C1056 H1043 0.960 . S
C1056 C1055 1.524 . S
C1057 C1054 1.403 . S
C1057 C1058 1.392 . S
C1057 C1061 1.495 . S
C1058 C1057 1.392 . S
C1058 C1059 1.385 . S
C1058 C1060 1.478 . S
C1059 H1053 0.930 . S
C1059 C1055 1.400 . S
C1059 C1058 1.385 . S
C1060 C1058 1.478 . S
C1060 C1062 1.381 . S
C1060 C1066 1.383 . S
C1061 C1057 1.495 . S
C1061 H1067 0.959 . S
C1061 H1068 0.961 . S
C1061 H1069 0.960 . S
C1062 C1060 1.381 . S
C1062 C1063 1.394 . S
C1062 H1070 0.930 . S
C1063 C1062 1.394 . S
C1063 C1064 1.383 . S
C1063 H1071 0.929 . S
C1064 C1063 1.383 . S
C1064 C1065 1.377 . S
C1065 H1049 0.930 . S
C1065 C1064 1.377 . S
C1065 C1066 1.379 . S
C1066 H1050 0.931 . S
C1066 C1060 1.383 . S
C1066 C1065 1.379 . S
H1067 C1061 0.959 . S
H1068 C1061 0.961 . S
H1069 C1061 0.960 . S
H1070 C1062 0.930 . S
H1071 C1063 0.929 . S
H1072 C1080 0.929 . S
H1073 C1082 0.930 . S
H1074 C1084 0.930 . S
H1075 C1087 0.929 . S
H1076 C1090 0.930 . S
H1077 C1092 0.960 . S
H1078 C1092 0.960 . S
H1079 C1092 0.960 . S
C1080 H1072 0.929 . S
C1080 C1081 1.377 . S
C1080 C1082 1.384 . S
C1081 C1080 1.377 . S
C1081 C1087 1.390 . S
C1082 H1073 0.930 . S
C1082 C1080 1.384 . S
C1082 C1083 1.372 . S
C1083 C1082 1.372 . S
C1083 C1084 1.400 . S
C1083 C1088 1.490 . S
C1084 H1074 0.930 . S
C1084 C1083 1.400 . S
C1084 C1087 1.386 . S
H1085 C1101 0.930 . S
H1086 C1102 0.931 . S
C1087 H1075 0.929 . S
C1087 C1081 1.390 . S
C1087 C1084 1.386 . S
C1088 C1083 1.490 . S
C1088 C1090 1.395 . S
C1088 C1091 1.403 . S
H1089 C1095 0.930 . S
C1090 H1076 0.930 . S
C1090 C1088 1.395 . S
C1090 C1093 1.403 . S
C1091 C1088 1.403 . S
C1091 C1092 1.524 . S
C1091 C1095 1.400 . S
C1092 H1077 0.960 . S
C1092 H1078 0.960 . S
C1092 H1079 0.960 . S
C1092 C1091 1.524 . S
C1093 C1090 1.403 . S
C1093 C1094 1.392 . S
C1093 C1097 1.495 . S
C1094 C1093 1.392 . S
C1094 C1095 1.385 . S
C1094 C1096 1.478 . S
C1095 H1089 0.930 . S
C1095 C1091 1.400 . S
C1095 C1094 1.385 . S
C1096 C1094 1.478 . S
C1096 C1098 1.381 . S
C1096 C1102 1.383 . S
C1097 C1093 1.495 . S
C1097 H1103 0.959 . S
C1097 H1104 0.961 . S
C1097 H1105 0.960 . S
C1098 C1096 1.381 . S
C1098 C1099 1.394 . S
C1098 H1106 0.930 . S
C1099 C1098 1.394 . S
C1099 C1100 1.383 . S
C1099 H1107 0.929 . S
C1100 C1099 1.383 . S
C1100 C1101 1.377 . S
C1101 H1085 0.930 . S
C1101 C1100 1.377 . S
C1101 C1102 1.379 . S
C1102 H1086 0.931 . S
C1102 C1096 1.383 . S
C1102 C1101 1.379 . S
H1103 C1097 0.959 . S
H1104 C1097 0.961 . S
H1105 C1097 0.960 . S
H1106 C1098 0.930 . S
H1107 C1099 0.929 . S
H1108 C1116 0.929 . S
H1109 C1118 0.930 . S
H1110 C1120 0.930 . S
H1111 C1123 0.929 . S
H1112 C1126 0.930 . S
H1113 C1128 0.960 . S
H1114 C1128 0.960 . S
H1115 C1128 0.960 . S
C1116 H1108 0.929 . S
C1116 C1117 1.377 . S
C1116 C1118 1.384 . S
C1117 C1116 1.377 . S
C1117 C1123 1.390 . S
C1118 H1109 0.930 . S
C1118 C1116 1.384 . S
C1118 C1119 1.372 . S
C1119 C1118 1.372 . S
C1119 C1120 1.400 . S
C1119 C1124 1.490 . S
C1120 H1110 0.930 . S
C1120 C1119 1.400 . S
C1120 C1123 1.386 . S
H1121 C1137 0.930 . S
H1122 C1138 0.931 . S
C1123 H1111 0.929 . S
C1123 C1117 1.390 . S
C1123 C1120 1.386 . S
C1124 C1119 1.490 . S
C1124 C1126 1.395 . S
C1124 C1127 1.403 . S
H1125 C1131 0.930 . S
C1126 H1112 0.930 . S
C1126 C1124 1.395 . S
C1126 C1129 1.403 . S
C1127 C1124 1.403 . S
C1127 C1128 1.524 . S
C1127 C1131 1.400 . S
C1128 H1113 0.960 . S
C1128 H1114 0.960 . S
C1128 H1115 0.960 . S
C1128 C1127 1.524 . S
C1129 C1126 1.403 . S
C1129 C1130 1.392 . S
C1129 C1133 1.495 . S
C1130 C1129 1.392 . S
C1130 C1131 1.385 . S
C1130 C1132 1.478 . S
C1131 H1125 0.930 . S
C1131 C1127 1.400 . S
C1131 C1130 1.385 . S
C1132 C1130 1.478 . S
C1132 C1134 1.381 . S
C1132 C1138 1.383 . S
C1133 C1129 1.495 . S
C1133 H1139 0.959 . S
C1133 H1140 0.961 . S
C1133 H1141 0.960 . S
C1134 C1132 1.381 . S
C1134 C1135 1.394 . S
C1134 H1142 0.930 . S
C1135 C1134 1.394 . S
C1135 C1136 1.383 . S
C1135 H1143 0.929 . S
C1136 C1135 1.383 . S
C1136 C1137 1.377 . S
C1137 H1121 0.930 . S
C1137 C1136 1.377 . S
C1137 C1138 1.379 . S
C1138 H1122 0.931 . S
C1138 C1132 1.383 . S
C1138 C1137 1.379 . S
H1139 C1133 0.959 . S
H1140 C1133 0.961 . S
H1141 C1133 0.960 . S
H1142 C1134 0.930 . S
H1143 C1135 0.929 . S
H1144 C1152 0.929 . S
H1145 C1154 0.930 . S
H1146 C1156 0.930 . S
H1147 C1159 0.929 . S
H1148 C1162 0.930 . S
H1149 C1164 0.960 . S
H1150 C1164 0.960 . S
H1151 C1164 0.960 . S
C1152 H1144 0.929 . S
C1152 C1153 1.377 . S
C1152 C1154 1.384 . S
C1153 C1152 1.377 . S
C1153 C1159 1.390 . S
C1154 H1145 0.930 . S
C1154 C1152 1.384 . S
C1154 C1155 1.372 . S
C1155 C1154 1.372 . S
C1155 C1156 1.400 . S
C1155 C1160 1.490 . S
C1156 H1146 0.930 . S
C1156 C1155 1.400 . S
C1156 C1159 1.386 . S
H1157 C1173 0.930 . S
H1158 C1174 0.931 . S
C1159 H1147 0.929 . S
C1159 C1153 1.390 . S
C1159 C1156 1.386 . S
C1160 C1155 1.490 . S
C1160 C1162 1.395 . S
C1160 C1163 1.403 . S
H1161 C1167 0.930 . S
C1162 H1148 0.930 . S
C1162 C1160 1.395 . S
C1162 C1165 1.403 . S
C1163 C1160 1.403 . S
C1163 C1164 1.524 . S
C1163 C1167 1.400 . S
C1164 H1149 0.960 . S
C1164 H1150 0.960 . S
C1164 H1151 0.960 . S
C1164 C1163 1.524 . S
C1165 C1162 1.403 . S
C1165 C1166 1.392 . S
C1165 C1169 1.495 . S
C1166 C1165 1.392 . S
C1166 C1167 1.385 . S
C1166 C1168 1.478 . S
C1167 H1161 0.930 . S
C1167 C1163 1.400 . S
C1167 C1166 1.385 . S
C1168 C1166 1.478 . S
C1168 C1170 1.381 . S
C1168 C1174 1.383 . S
C1169 C1165 1.495 . S
C1169 H1175 0.959 . S
C1169 H1176 0.961 . S
C1169 H1177 0.960 . S
C1170 C1168 1.381 . S
C1170 C1171 1.394 . S
C1170 H1178 0.930 . S
C1171 C1170 1.394 . S
C1171 C1172 1.383 . S
C1171 H1179 0.929 . S
C1172 C1171 1.383 . S
C1172 C1173 1.377 . S
C1173 H1157 0.930 . S
C1173 C1172 1.377 . S
C1173 C1174 1.379 . S
C1174 H1158 0.931 . S
C1174 C1168 1.383 . S
C1174 C1173 1.379 . S
H1175 C1169 0.959 . S
H1176 C1169 0.961 . S
H1177 C1169 0.960 . S
H1178 C1170 0.930 . S
H1179 C1171 0.929 . S
H1180 C1188 0.929 . S
H1181 C1190 0.930 . S
H1182 C1192 0.930 . S
H1183 C1195 0.929 . S
H1184 C1198 0.930 . S
H1185 C1200 0.960 . S
H1186 C1200 0.960 . S
H1187 C1200 0.960 . S
C1188 H1180 0.929 . S
C1188 C1189 1.377 . S
C1188 C1190 1.384 . S
C1189 C1188 1.377 . S
C1189 C1195 1.390 . S
C1190 H1181 0.930 . S
C1190 C1188 1.384 . S
C1190 C1191 1.372 . S
C1191 C1190 1.372 . S
C1191 C1192 1.400 . S
C1191 C1196 1.490 . S
C1192 H1182 0.930 . S
C1192 C1191 1.400 . S
C1192 C1195 1.386 . S
H1193 C1209 0.930 . S
H1194 C1210 0.931 . S
C1195 H1183 0.929 . S
C1195 C1189 1.390 . S
C1195 C1192 1.386 . S
C1196 C1191 1.490 . S
C1196 C1198 1.395 . S
C1196 C1199 1.403 . S
H1197 C1203 0.930 . S
C1198 H1184 0.930 . S
C1198 C1196 1.395 . S
C1198 C1201 1.403 . S
C1199 C1196 1.403 . S
C1199 C1200 1.524 . S
C1199 C1203 1.400 . S
C1200 H1185 0.960 . S
C1200 H1186 0.960 . S
C1200 H1187 0.960 . S
C1200 C1199 1.524 . S
C1201 C1198 1.403 . S
C1201 C1202 1.392 . S
C1201 C1205 1.495 . S
C1202 C1201 1.392 . S
C1202 C1203 1.385 . S
C1202 C1204 1.478 . S
C1203 H1197 0.930 . S
C1203 C1199 1.400 . S
C1203 C1202 1.385 . S
C1204 C1202 1.478 . S
C1204 C1206 1.381 . S
C1204 C1210 1.383 . S
C1205 C1201 1.495 . S
C1205 H1211 0.959 . S
C1205 H1212 0.961 . S
C1205 H1213 0.960 . S
C1206 C1204 1.381 . S
C1206 C1207 1.394 . S
C1206 H1214 0.930 . S
C1207 C1206 1.394 . S
C1207 C1208 1.383 . S
C1207 H1215 0.929 . S
C1208 C1207 1.383 . S
C1208 C1209 1.377 . S
C1209 H1193 0.930 . S
C1209 C1208 1.377 . S
C1209 C1210 1.379 . S
C1210 H1194 0.931 . S
C1210 C1204 1.383 . S
C1210 C1209 1.379 . S
H1211 C1205 0.959 . S
H1212 C1205 0.961 . S
H1213 C1205 0.960 . S
H1214 C1206 0.930 . S
H1215 C1207 0.929 . S
H1216 C1224 0.929 . S
H1217 C1226 0.930 . S
H1218 C1228 0.930 . S
H1219 C1231 0.929 . S
H1220 C1234 0.930 . S
H1221 C1236 0.960 . S
H1222 C1236 0.960 . S
H1223 C1236 0.960 . S
C1224 H1216 0.929 . S
C1224 C1225 1.377 . S
C1224 C1226 1.384 . S
C1225 C1224 1.377 . S
C1225 C1231 1.390 . S
C1226 H1217 0.930 . S
C1226 C1224 1.384 . S
C1226 C1227 1.372 . S
C1227 C1226 1.372 . S
C1227 C1228 1.400 . S
C1227 C1232 1.490 . S
C1228 H1218 0.930 . S
C1228 C1227 1.400 . S
C1228 C1231 1.386 . S
H1229 C1245 0.930 . S
H1230 C1246 0.931 . S
C1231 H1219 0.929 . S
C1231 C1225 1.390 . S
C1231 C1228 1.386 . S
C1232 C1227 1.490 . S
C1232 C1234 1.395 . S
C1232 C1235 1.403 . S
H1233 C1239 0.930 . S
C1234 H1220 0.930 . S
C1234 C1232 1.395 . S
C1234 C1237 1.403 . S
C1235 C1232 1.403 . S
C1235 C1236 1.524 . S
C1235 C1239 1.400 . S
C1236 H1221 0.960 . S
C1236 H1222 0.960 . S
C1236 H1223 0.960 . S
C1236 C1235 1.524 . S
C1237 C1234 1.403 . S
C1237 C1238 1.392 . S
C1237 C1241 1.495 . S
C1238 C1237 1.392 . S
C1238 C1239 1.385 . S
C1238 C1240 1.478 . S
C1239 H1233 0.930 . S
C1239 C1235 1.400 . S
C1239 C1238 1.385 . S
C1240 C1238 1.478 . S
C1240 C1242 1.381 . S
C1240 C1246 1.383 . S
C1241 C1237 1.495 . S
C1241 H1247 0.959 . S
C1241 H1248 0.961 . S
C1241 H1249 0.960 . S
C1242 C1240 1.381 . S
C1242 C1243 1.394 . S
C1242 H1250 0.930 . S
C1243 C1242 1.394 . S
C1243 C1244 1.383 . S
C1243 H1251 0.929 . S
C1244 C1243 1.383 . S
C1244 C1245 1.377 . S
C1245 H1229 0.930 . S
C1245 C1244 1.377 . S
C1245 C1246 1.379 . S
C1246 H1230 0.931 . S
C1246 C1240 1.383 . S
C1246 C1245 1.379 . S
H1247 C1241 0.959 . S
H1248 C1241 0.961 . S
H1249 C1241 0.960 . S
H1250 C1242 0.930 . S
H1251 C1243 0.929 . S
H1252 C1260 0.929 . S
H1253 C1262 0.930 . S
H1254 C1264 0.930 . S
H1255 C1267 0.929 . S
H1256 C1270 0.930 . S
H1257 C1272 0.960 . S
H1258 C1272 0.960 . S
H1259 C1272 0.960 . S
C1260 H1252 0.929 . S
C1260 C1261 1.377 . S
C1260 C1262 1.384 . S
C1261 C1260 1.377 . S
C1261 C1267 1.390 . S
C1262 H1253 0.930 . S
C1262 C1260 1.384 . S
C1262 C1263 1.372 . S
C1263 C1262 1.372 . S
C1263 C1264 1.400 . S
C1263 C1268 1.490 . S
C1264 H1254 0.930 . S
C1264 C1263 1.400 . S
C1264 C1267 1.386 . S
H1265 C1281 0.930 . S
H1266 C1282 0.931 . S
C1267 H1255 0.929 . S
C1267 C1261 1.390 . S
C1267 C1264 1.386 . S
C1268 C1263 1.490 . S
C1268 C1270 1.395 . S
C1268 C1271 1.403 . S
H1269 C1275 0.930 . S
C1270 H1256 0.930 . S
C1270 C1268 1.395 . S
C1270 C1273 1.403 . S
C1271 C1268 1.403 . S
C1271 C1272 1.524 . S
C1271 C1275 1.400 . S
C1272 H1257 0.960 . S
C1272 H1258 0.960 . S
C1272 H1259 0.960 . S
C1272 C1271 1.524 . S
C1273 C1270 1.403 . S
C1273 C1274 1.392 . S
C1273 C1277 1.495 . S
C1274 C1273 1.392 . S
C1274 C1275 1.385 . S
C1274 C1276 1.478 . S
C1275 H1269 0.930 . S
C1275 C1271 1.400 . S
C1275 C1274 1.385 . S
C1276 C1274 1.478 . S
C1276 C1278 1.381 . S
C1276 C1282 1.383 . S
C1277 C1273 1.495 . S
C1277 H1283 0.959 . S
C1277 H1284 0.961 . S
C1277 H1285 0.960 . S
C1278 C1276 1.381 . S
C1278 C1279 1.394 . S
C1278 H1286 0.930 . S
C1279 C1278 1.394 . S
C1279 C1280 1.383 . S
C1279 H1287 0.929 . S
C1280 C1279 1.383 . S
C1280 C1281 1.377 . S
C1281 H1265 0.930 . S
C1281 C1280 1.377 . S
C1281 C1282 1.379 . S
C1282 H1266 0.931 . S
C1282 C1276 1.383 . S
C1282 C1281 1.379 . S
H1283 C1277 0.959 . S
H1284 C1277 0.961 . S
H1285 C1277 0.960 . S
H1286 C1278 0.930 . S
H1287 C1279 0.929 . S
H1288 C1296 0.929 . S
H1289 C1298 0.930 . S
H1290 C1300 0.930 . S
H1291 C1303 0.929 . S
H1292 C1306 0.930 . S
H1293 C1308 0.960 . S
H1294 C1308 0.960 . S
H1295 C1308 0.960 . S
C1296 H1288 0.929 . S
C1296 C1297 1.377 . S
C1296 C1298 1.384 . S
C1297 C1296 1.377 . S
C1297 C1303 1.390 . S
C1298 H1289 0.930 . S
C1298 C1296 1.384 . S
C1298 C1299 1.372 . S
C1299 C1298 1.372 . S
C1299 C1300 1.400 . S
C1299 C1304 1.490 . S
C1300 H1290 0.930 . S
C1300 C1299 1.400 . S
C1300 C1303 1.386 . S
H1301 C1317 0.930 . S
H1302 C1318 0.931 . S
C1303 H1291 0.929 . S
C1303 C1297 1.390 . S
C1303 C1300 1.386 . S
C1304 C1299 1.490 . S
C1304 C1306 1.395 . S
C1304 C1307 1.403 . S
H1305 C1311 0.930 . S
C1306 H1292 0.930 . S
C1306 C1304 1.395 . S
C1306 C1309 1.403 . S
C1307 C1304 1.403 . S
C1307 C1308 1.524 . S
C1307 C1311 1.400 . S
C1308 H1293 0.960 . S
C1308 H1294 0.960 . S
C1308 H1295 0.960 . S
C1308 C1307 1.524 . S
C1309 C1306 1.403 . S
C1309 C1310 1.392 . S
C1309 C1313 1.495 . S
C1310 C1309 1.392 . S
C1310 C1311 1.385 . S
C1310 C1312 1.478 . S
C1311 H1305 0.930 . S
C1311 C1307 1.400 . S
C1311 C1310 1.385 . S
C1312 C1310 1.478 . S
C1312 C1314 1.381 . S
C1312 C1318 1.383 . S
C1313 C1309 1.495 . S
C1313 H1319 0.959 . S
C1313 H1320 0.961 . S
C1313 H1321 0.960 . S
C1314 C1312 1.381 . S
C1314 C1315 1.394 . S
C1314 H1322 0.930 . S
C1315 C1314 1.394 . S
C1315 C1316 1.383 . S
C1315 H1323 0.929 . S
C1316 C1315 1.383 . S
C1316 C1317 1.377 . S
C1317 H1301 0.930 . S
C1317 C1316 1.377 . S
C1317 C1318 1.379 . S
C1318 H1302 0.931 . S
C1318 C1312 1.383 . S
C1318 C1317 1.379 . S
H1319 C1313 0.959 . S
H1320 C1313 0.961 . S
H1321 C1313 0.960 . S
H1322 C1314 0.930 . S
H1323 C1315 0.929 . S
H1324 C1332 0.929 . S
H1325 C1334 0.930 . S
H1326 C1336 0.930 . S
H1327 C1339 0.929 . S
H1328 C1342 0.930 . S
H1329 C1344 0.960 . S
H1330 C1344 0.960 . S
H1331 C1344 0.960 . S
C1332 H1324 0.929 . S
C1332 C1333 1.377 . S
C1332 C1334 1.384 . S
C1333 C1332 1.377 . S
C1333 C1339 1.390 . S
C1334 H1325 0.930 . S
C1334 C1332 1.384 . S
C1334 C1335 1.372 . S
C1335 C1334 1.372 . S
C1335 C1336 1.400 . S
C1335 C1340 1.490 . S
C1336 H1326 0.930 . S
C1336 C1335 1.400 . S
C1336 C1339 1.386 . S
H1337 C1353 0.930 . S
H1338 C1354 0.931 . S
C1339 H1327 0.929 . S
C1339 C1333 1.390 . S
C1339 C1336 1.386 . S
C1340 C1335 1.490 . S
C1340 C1342 1.395 . S
C1340 C1343 1.403 . S
H1341 C1347 0.930 . S
C1342 H1328 0.930 . S
C1342 C1340 1.395 . S
C1342 C1345 1.403 . S
C1343 C1340 1.403 . S
C1343 C1344 1.524 . S
C1343 C1347 1.400 . S
C1344 H1329 0.960 . S
C1344 H1330 0.960 . S
C1344 H1331 0.960 . S
C1344 C1343 1.524 . S
C1345 C1342 1.403 . S
C1345 C1346 1.392 . S
C1345 C1349 1.495 . S
C1346 C1345 1.392 . S
C1346 C1347 1.385 . S
C1346 C1348 1.478 . S
C1347 H1341 0.930 . S
C1347 C1343 1.400 . S
C1347 C1346 1.385 . S
C1348 C1346 1.478 . S
C1348 C1350 1.381 . S
C1348 C1354 1.383 . S
C1349 C1345 1.495 . S
C1349 H1355 0.959 . S
C1349 H1356 0.961 . S
C1349 H1357 0.960 . S
C1350 C1348 1.381 . S
C1350 C1351 1.394 . S
C1350 H1358 0.930 . S
C1351 C1350 1.394 . S
C1351 C1352 1.383 . S
C1351 H1359 0.929 . S
C1352 C1351 1.383 . S
C1352 C1353 1.377 . S
C1353 H1337 0.930 . S
C1353 C1352 1.377 . S
C1353 C1354 1.379 . S
C1354 H1338 0.931 . S
C1354 C1348 1.383 . S
C1354 C1353 1.379 . S
H1355 C1349 0.959 . S
H1356 C1349 0.961 . S
H1357 C1349 0.960 . S
H1358 C1350 0.930 . S
H1359 C1351 0.929 . S
H1360 C1368 0.929 . S
H1361 C1370 0.930 . S
H1362 C1372 0.930 . S
H1363 C1375 0.929 . S
H1364 C1378 0.930 . S
H1365 C1380 0.960 . S
H1366 C1380 0.960 . S
H1367 C1380 0.960 . S
C1368 H1360 0.929 . S
C1368 C1369 1.377 . S
C1368 C1370 1.384 . S
C1369 C1368 1.377 . S
C1369 C1375 1.390 . S
C1370 H1361 0.930 . S
C1370 C1368 1.384 . S
C1370 C1371 1.372 . S
C1371 C1370 1.372 . S
C1371 C1372 1.400 . S
C1371 C1376 1.490 . S
C1372 H1362 0.930 . S
C1372 C1371 1.400 . S
C1372 C1375 1.386 . S
H1373 C1389 0.930 . S
H1374 C1390 0.931 . S
C1375 H1363 0.929 . S
C1375 C1369 1.390 . S
C1375 C1372 1.386 . S
C1376 C1371 1.490 . S
C1376 C1378 1.395 . S
C1376 C1379 1.403 . S
H1377 C1383 0.930 . S
C1378 H1364 0.930 . S
C1378 C1376 1.395 . S
C1378 C1381 1.403 . S
C1379 C1376 1.403 . S
C1379 C1380 1.524 . S
C1379 C1383 1.400 . S
C1380 H1365 0.960 . S
C1380 H1366 0.960 . S
C1380 H1367 0.960 . S
C1380 C1379 1.524 . S
C1381 C1378 1.403 . S
C1381 C1382 1.392 . S
C1381 C1385 1.495 . S
C1382 C1381 1.392 . S
C1382 C1383 1.385 . S
C1382 C1384 1.478 . S
C1383 H1377 0.930 . S
C1383 C1379 1.400 . S
C1383 C1382 1.385 . S
C1384 C1382 1.478 . S
C1384 C1386 1.381 . S
C1384 C1390 1.383 . S
C1385 C1381 1.495 . S
C1385 H1391 0.959 . S
C1385 H1392 0.961 . S
C1385 H1393 0.960 . S
C1386 C1384 1.381 . S
C1386 C1387 1.394 . S
C1386 H1394 0.930 . S
C1387 C1386 1.394 . S
C1387 C1388 1.383 . S
C1387 H1395 0.929 . S
C1388 C1387 1.383 . S
C1388 C1389 1.377 . S
C1389 H1373 0.930 . S
C1389 C1388 1.377 . S
C1389 C1390 1.379 . S
C1390 H1374 0.931 . S
C1390 C1384 1.383 . S
C1390 C1389 1.379 . S
H1391 C1385 0.959 . S
H1392 C1385 0.961 . S
H1393 C1385 0.960 . S
H1394 C1386 0.930 . S
H1395 C1387 0.929 . S
H1396 C1404 0.929 . S
H1397 C1406 0.930 . S
H1398 C1408 0.930 . S
H1399 C1411 0.929 . S
H1400 C1414 0.930 . S
H1401 C1416 0.960 . S
H1402 C1416 0.960 . S
H1403 C1416 0.960 . S
C1404 H1396 0.929 . S
C1404 C1405 1.377 . S
C1404 C1406 1.384 . S
C1405 C1404 1.377 . S
C1405 C1411 1.390 . S
C1406 H1397 0.930 . S
C1406 C1404 1.384 . S
C1406 C1407 1.372 . S
C1407 C1406 1.372 . S
C1407 C1408 1.400 . S
C1407 C1412 1.490 . S
C1408 H1398 0.930 . S
C1408 C1407 1.400 . S
C1408 C1411 1.386 . S
H1409 C1425 0.930 . S
H1410 C1426 0.931 . S
C1411 H1399 0.929 . S
C1411 C1405 1.390 . S
C1411 C1408 1.386 . S
C1412 C1407 1.490 . S
C1412 C1414 1.395 . S
C1412 C1415 1.403 . S
H1413 C1419 0.930 . S
C1414 H1400 0.930 . S
C1414 C1412 1.395 . S
C1414 C1417 1.403 . S
C1415 C1412 1.403 . S
C1415 C1416 1.524 . S
C1415 C1419 1.400 . S
C1416 H1401 0.960 . S
C1416 H1402 0.960 . S
C1416 H1403 0.960 . S
C1416 C1415 1.524 . S
C1417 C1414 1.403 . S
C1417 C1418 1.392 . S
C1417 C1421 1.495 . S
C1418 C1417 1.392 . S
C1418 C1419 1.385 . S
C1418 C1420 1.478 . S
C1419 H1413 0.930 . S
C1419 C1415 1.400 . S
C1419 C1418 1.385 . S
C1420 C1418 1.478 . S
C1420 C1422 1.381 . S
C1420 C1426 1.383 . S
C1421 C1417 1.495 . S
C1421 H1427 0.959 . S
C1421 H1428 0.961 . S
C1421 H1429 0.960 . S
C1422 C1420 1.381 . S
C1422 C1423 1.394 . S
C1422 H1430 0.930 . S
C1423 C1422 1.394 . S
C1423 C1424 1.383 . S
C1423 H1431 0.929 . S
C1424 C1423 1.383 . S
C1424 C1425 1.377 . S
C1425 H1409 0.930 . S
C1425 C1424 1.377 . S
C1425 C1426 1.379 . S
C1426 H1410 0.931 . S
C1426 C1420 1.383 . S
C1426 C1425 1.379 . S
H1427 C1421 0.959 . S
H1428 C1421 0.961 . S
H1429 C1421 0.960 . S
H1430 C1422 0.930 . S
H1431 C1423 0.929 . S
H1432 C1440 0.929 . S
H1433 C1442 0.930 . S
H1434 C1444 0.930 . S
H1435 C1447 0.929 . S
H1436 C1450 0.930 . S
H1437 C1452 0.960 . S
H1438 C1452 0.960 . S
H1439 C1452 0.960 . S
C1440 H1432 0.929 . S
C1440 C1441 1.377 . S
C1440 C1442 1.384 . S
C1441 C1440 1.377 . S
C1441 C1447 1.390 . S
C1442 H1433 0.930 . S
C1442 C1440 1.384 . S
C1442 C1443 1.372 . S
C1443 C1442 1.372 . S
C1443 C1444 1.400 . S
C1443 C1448 1.490 . S
C1444 H1434 0.930 . S
C1444 C1443 1.400 . S
C1444 C1447 1.386 . S
H1445 C1461 0.930 . S
H1446 C1462 0.931 . S
C1447 H1435 0.929 . S
C1447 C1441 1.390 . S
C1447 C1444 1.386 . S
C1448 C1443 1.490 . S
C1448 C1450 1.395 . S
C1448 C1451 1.403 . S
H1449 C1455 0.930 . S
C1450 H1436 0.930 . S
C1450 C1448 1.395 . S
C1450 C1453 1.403 . S
C1451 C1448 1.403 . S
C1451 C1452 1.524 . S
C1451 C1455 1.400 . S
C1452 H1437 0.960 . S
C1452 H1438 0.960 . S
C1452 H1439 0.960 . S
C1452 C1451 1.524 . S
C1453 C1450 1.403 . S
C1453 C1454 1.392 . S
C1453 C1457 1.495 . S
C1454 C1453 1.392 . S
C1454 C1455 1.385 . S
C1454 C1456 1.478 . S
C1455 H1449 0.930 . S
C1455 C1451 1.400 . S
C1455 C1454 1.385 . S
C1456 C1454 1.478 . S
C1456 C1458 1.381 . S
C1456 C1462 1.383 . S
C1457 C1453 1.495 . S
C1457 H1463 0.959 . S
C1457 H1464 0.961 . S
C1457 H1465 0.960 . S
C1458 C1456 1.381 . S
C1458 C1459 1.394 . S
C1458 H1466 0.930 . S
C1459 C1458 1.394 . S
C1459 C1460 1.383 . S
C1459 H1467 0.929 . S
C1460 C1459 1.383 . S
C1460 C1461 1.377 . S
C1461 H1445 0.930 . S
C1461 C1460 1.377 . S
C1461 C1462 1.379 . S
C1462 H1446 0.931 . S
C1462 C1456 1.383 . S
C1462 C1461 1.379 . S
H1463 C1457 0.959 . S
H1464 C1457 0.961 . S
H1465 C1457 0.960 . S
H1466 C1458 0.930 . S
H1467 C1459 0.929 . S
H1468 C1476 0.929 . S
H1469 C1478 0.930 . S
H1470 C1480 0.930 . S
H1471 C1483 0.929 . S
H1472 C1486 0.930 . S
H1473 C1488 0.960 . S
H1474 C1488 0.960 . S
H1475 C1488 0.960 . S
C1476 H1468 0.929 . S
C1476 C1477 1.377 . S
C1476 C1478 1.384 . S
C1477 C1476 1.377 . S
C1477 C1483 1.390 . S
C1478 H1469 0.930 . S
C1478 C1476 1.384 . S
C1478 C1479 1.372 . S
C1479 C1478 1.372 . S
C1479 C1480 1.400 . S
C1479 C1484 1.490 . S
C1480 H1470 0.930 . S
C1480 C1479 1.400 . S
C1480 C1483 1.386 . S
H1481 C1497 0.930 . S
H1482 C1498 0.931 . S
C1483 H1471 0.929 . S
C1483 C1477 1.390 . S
C1483 C1480 1.386 . S
C1484 C1479 1.490 . S
C1484 C1486 1.395 . S
C1484 C1487 1.403 . S
H1485 C1491 0.930 . S
C1486 H1472 0.930 . S
C1486 C1484 1.395 . S
C1486 C1489 1.403 . S
C1487 C1484 1.403 . S
C1487 C1488 1.524 . S
C1487 C1491 1.400 . S
C1488 H1473 0.960 . S
C1488 H1474 0.960 . S
C1488 H1475 0.960 . S
C1488 C1487 1.524 . S
C1489 C1486 1.403 . S
C1489 C1490 1.392 . S
C1489 C1493 1.495 . S
C1490 C1489 1.392 . S
C1490 C1491 1.385 . S
C1490 C1492 1.478 . S
C1491 H1485 0.930 . S
C1491 C1487 1.400 . S
C1491 C1490 1.385 . S
C1492 C1490 1.478 . S
C1492 C1494 1.381 . S
C1492 C1498 1.383 . S
C1493 C1489 1.495 . S
C1493 H1499 0.959 . S
C1493 H1500 0.961 . S
C1493 H1501 0.960 . S
C1494 C1492 1.381 . S
C1494 C1495 1.394 . S
C1494 H1502 0.930 . S
C1495 C1494 1.394 . S
C1495 C1496 1.383 . S
C1495 H1503 0.929 . S
C1496 C1495 1.383 . S
C1496 C1497 1.377 . S
C1497 H1481 0.930 . S
C1497 C1496 1.377 . S
C1497 C1498 1.379 . S
C1498 H1482 0.931 . S
C1498 C1492 1.383 . S
C1498 C1497 1.379 . S
H1499 C1493 0.959 . S
H1500 C1493 0.961 . S
H1501 C1493 0.960 . S
H1502 C1494 0.930 . S
H1503 C1495 0.929 . S
H1504 C1512 0.929 . S
H1505 C1514 0.930 . S
H1506 C1516 0.930 . S
H1507 C1519 0.929 . S
H1508 C1522 0.930 . S
H1509 C1524 0.960 . S
H1510 C1524 0.960 . S
H1511 C1524 0.960 . S
C1512 H1504 0.929 . S
C1512 C1513 1.377 . S
C1512 C1514 1.384 . S
C1513 C1512 1.377 . S
C1513 C1519 1.390 . S
C1514 H1505 0.930 . S
C1514 C1512 1.384 . S
C1514 C1515 1.372 . S
C1515 C1514 1.372 . S
C1515 C1516 1.400 . S
C1515 C1520 1.490 . S
C1516 H1506 0.930 . S
C1516 C1515 1.400 . S
C1516 C1519 1.386 . S
H1517 C1533 0.930 . S
H1518 C1534 0.931 . S
C1519 H1507 0.929 . S
C1519 C1513 1.390 . S
C1519 C1516 1.386 . S
C1520 C1515 1.490 . S
C1520 C1522 1.395 . S
C1520 C1523 1.403 . S
H1521 C1527 0.930 . S
C1522 H1508 0.930 . S
C1522 C1520 1.395 . S
C1522 C1525 1.403 . S
C1523 C1520 1.403 . S
C1523 C1524 1.524 . S
C1523 C1527 1.400 . S
C1524 H1509 0.960 . S
C1524 H1510 0.960 . S
C1524 H1511 0.960 . S
C1524 C1523 1.524 . S
C1525 C1522 1.403 . S
C1525 C1526 1.392 . S
C1525 C1529 1.495 . S
C1526 C1525 1.392 . S
C1526 C1527 1.385 . S
C1526 C1528 1.478 . S
C1527 H1521 0.930 . S
C1527 C1523 1.400 . S
C1527 C1526 1.385 . S
C1528 C1526 1.478 . S
C1528 C1530 1.381 . S
C1528 C1534 1.383 . S
C1529 C1525 1.495 . S
C1529 H1535 0.959 . S
C1529 H1536 0.961 . S
C1529 H1537 0.960 . S
C1530 C1528 1.381 . S
C1530 C1531 1.394 . S
C1530 H1538 0.930 . S
C1531 C1530 1.394 . S
C1531 C1532 1.383 . S
C1531 H1539 0.929 . S
C1532 C1531 1.383 . S
C1532 C1533 1.377 . S
C1533 H1517 0.930 . S
C1533 C1532 1.377 . S
C1533 C1534 1.379 . S
C1534 H1518 0.931 . S
C1534 C1528 1.383 . S
C1534 C1533 1.379 . S
H1535 C1529 0.959 . S
H1536 C1529 0.961 . S
H1537 C1529 0.960 . S
H1538 C1530 0.930 . S
H1539 C1531 0.929 . S
H1540 C1548 0.929 . S
H1541 C1550 0.930 . S
H1542 C1552 0.930 . S
H1543 C1555 0.929 . S
H1544 C1558 0.930 . S
H1545 C1560 0.960 . S
H1546 C1560 0.960 . S
H1547 C1560 0.960 . S
C1548 H1540 0.929 . S
C1548 C1549 1.377 . S
C1548 C1550 1.384 . S
C1549 C1548 1.377 . S
C1549 C1555 1.390 . S
C1550 H1541 0.930 . S
C1550 C1548 1.384 . S
C1550 C1551 1.372 . S
C1551 C1550 1.372 . S
C1551 C1552 1.400 . S
C1551 C1556 1.490 . S
C1552 H1542 0.930 . S
C1552 C1551 1.400 . S
C1552 C1555 1.386 . S
H1553 C1569 0.930 . S
H1554 C1570 0.931 . S
C1555 H1543 0.929 . S
C1555 C1549 1.390 . S
C1555 C1552 1.386 . S
C1556 C1551 1.490 . S
C1556 C1558 1.395 . S
C1556 C1559 1.403 . S
H1557 C1563 0.930 . S
C1558 H1544 0.930 . S
C1558 C1556 1.395 . S
C1558 C1561 1.403 . S
C1559 C1556 1.403 . S
C1559 C1560 1.524 . S
C1559 C1563 1.400 . S
C1560 H1545 0.960 . S
C1560 H1546 0.960 . S
C1560 H1547 0.960 . S
C1560 C1559 1.524 . S
C1561 C1558 1.403 . S
C1561 C1562 1.392 . S
C1561 C1565 1.495 . S
C1562 C1561 1.392 . S
C1562 C1563 1.385 . S
C1562 C1564 1.478 . S
C1563 H1557 0.930 . S
C1563 C1559 1.400 . S
C1563 C1562 1.385 . S
C1564 C1562 1.478 . S
C1564 C1566 1.381 . S
C1564 C1570 1.383 . S
C1565 C1561 1.495 . S
C1565 H1571 0.959 . S
C1565 H1572 0.961 . S
C1565 H1573 0.960 . S
C1566 C1564 1.381 . S
C1566 C1567 1.394 . S
C1566 H1574 0.930 . S
C1567 C1566 1.394 . S
C1567 C1568 1.383 . S
C1567 H1575 0.929 . S
C1568 C1567 1.383 . S
C1568 C1569 1.377 . S
C1569 H1553 0.930 . S
C1569 C1568 1.377 . S
C1569 C1570 1.379 . S
C1570 H1554 0.931 . S
C1570 C1564 1.383 . S
C1570 C1569 1.379 . S
H1571 C1565 0.959 . S
H1572 C1565 0.961 . S
H1573 C1565 0.960 . S
H1574 C1566 0.930 . S
H1575 C1567 0.929 . S
H1576 C1584 0.929 . S
H1577 C1586 0.930 . S
H1578 C1588 0.930 . S
H1579 C1591 0.929 . S
H1580 C1594 0.930 . S
H1581 C1596 0.960 . S
H1582 C1596 0.960 . S
H1583 C1596 0.960 . S
C1584 H1576 0.929 . S
C1584 C1585 1.377 . S
C1584 C1586 1.384 . S
C1585 C1584 1.377 . S
C1585 C1591 1.390 . S
C1586 H1577 0.930 . S
C1586 C1584 1.384 . S
C1586 C1587 1.372 . S
C1587 C1586 1.372 . S
C1587 C1588 1.400 . S
C1587 C1592 1.490 . S
C1588 H1578 0.930 . S
C1588 C1587 1.400 . S
C1588 C1591 1.386 . S
H1589 C1605 0.930 . S
H1590 C1606 0.931 . S
C1591 H1579 0.929 . S
C1591 C1585 1.390 . S
C1591 C1588 1.386 . S
C1592 C1587 1.490 . S
C1592 C1594 1.395 . S
C1592 C1595 1.403 . S
H1593 C1599 0.930 . S
C1594 H1580 0.930 . S
C1594 C1592 1.395 . S
C1594 C1597 1.403 . S
C1595 C1592 1.403 . S
C1595 C1596 1.524 . S
C1595 C1599 1.400 . S
C1596 H1581 0.960 . S
C1596 H1582 0.960 . S
C1596 H1583 0.960 . S
C1596 C1595 1.524 . S
C1597 C1594 1.403 . S
C1597 C1598 1.392 . S
C1597 C1601 1.495 . S
C1598 C1597 1.392 . S
C1598 C1599 1.385 . S
C1598 C1600 1.478 . S
C1599 H1593 0.930 . S
C1599 C1595 1.400 . S
C1599 C1598 1.385 . S
C1600 C1598 1.478 . S
C1600 C1602 1.381 . S
C1600 C1606 1.383 . S
C1601 C1597 1.495 . S
C1601 H1607 0.959 . S
C1601 H1608 0.961 . S
C1601 H1609 0.960 . S
C1602 C1600 1.381 . S
C1602 C1603 1.394 . S
C1602 H1610 0.930 . S
C1603 C1602 1.394 . S
C1603 C1604 1.383 . S
C1603 H1611 0.929 . S
C1604 C1603 1.383 . S
C1604 C1605 1.377 . S
C1605 H1589 0.930 . S
C1605 C1604 1.377 . S
C1605 C1606 1.379 . S
C1606 H1590 0.931 . S
C1606 C1600 1.383 . S
C1606 C1605 1.379 . S
H1607 C1601 0.959 . S
H1608 C1601 0.961 . S
H1609 C1601 0.960 . S
H1610 C1602 0.930 . S
H1611 C1603 0.929 . S
H1612 C1620 0.929 . S
H1613 C1622 0.930 . S
H1614 C1624 0.930 . S
H1615 C1627 0.929 . S
H1616 C1630 0.930 . S
H1617 C1632 0.960 . S
H1618 C1632 0.960 . S
H1619 C1632 0.960 . S
C1620 H1612 0.929 . S
C1620 C1621 1.377 . S
C1620 C1622 1.384 . S
C1621 C1620 1.377 . S
C1621 C1627 1.390 . S
C1622 H1613 0.930 . S
C1622 C1620 1.384 . S
C1622 C1623 1.372 . S
C1623 C1622 1.372 . S
C1623 C1624 1.400 . S
C1623 C1628 1.490 . S
C1624 H1614 0.930 . S
C1624 C1623 1.400 . S
C1624 C1627 1.386 . S
H1625 C1641 0.930 . S
H1626 C1642 0.931 . S
C1627 H1615 0.929 . S
C1627 C1621 1.390 . S
C1627 C1624 1.386 . S
C1628 C1623 1.490 . S
C1628 C1630 1.395 . S
C1628 C1631 1.403 . S
H1629 C1635 0.930 . S
C1630 H1616 0.930 . S
C1630 C1628 1.395 . S
C1630 C1633 1.403 . S
C1631 C1628 1.403 . S
C1631 C1632 1.524 . S
C1631 C1635 1.400 . S
C1632 H1617 0.960 . S
C1632 H1618 0.960 . S
C1632 H1619 0.960 . S
C1632 C1631 1.524 . S
C1633 C1630 1.403 . S
C1633 C1634 1.392 . S
C1633 C1637 1.495 . S
C1634 C1633 1.392 . S
C1634 C1635 1.385 . S
C1634 C1636 1.478 . S
C1635 H1629 0.930 . S
C1635 C1631 1.400 . S
C1635 C1634 1.385 . S
C1636 C1634 1.478 . S
C1636 C1638 1.381 . S
C1636 C1642 1.383 . S
C1637 C1633 1.495 . S
C1637 H1643 0.959 . S
C1637 H1644 0.961 . S
C1637 H1645 0.960 . S
C1638 C1636 1.381 . S
C1638 C1639 1.394 . S
C1638 H1646 0.930 . S
C1639 C1638 1.394 . S
C1639 C1640 1.383 . S
C1639 H1647 0.929 . S
C1640 C1639 1.383 . S
C1640 C1641 1.377 . S
C1641 H1625 0.930 . S
C1641 C1640 1.377 . S
C1641 C1642 1.379 . S
C1642 H1626 0.931 . S
C1642 C1636 1.383 . S
C1642 C1641 1.379 . S
H1643 C1637 0.959 . S
H1644 C1637 0.961 . S
H1645 C1637 0.960 . S
H1646 C1638 0.930 . S
H1647 C1639 0.929 . S
H1648 C1656 0.929 . S
H1649 C1658 0.930 . S
H1650 C1660 0.930 . S
H1651 C1663 0.929 . S
H1652 C1666 0.930 . S
H1653 C1668 0.960 . S
H1654 C1668 0.960 . S
H1655 C1668 0.960 . S
C1656 H1648 0.929 . S
C1656 C1657 1.377 . S
C1656 C1658 1.384 . S
C1657 C1656 1.377 . S
C1657 C1663 1.390 . S
C1658 H1649 0.930 . S
C1658 C1656 1.384 . S
C1658 C1659 1.372 . S
C1659 C1658 1.372 . S
C1659 C1660 1.400 . S
C1659 C1664 1.490 . S
C1660 H1650 0.930 . S
C1660 C1659 1.400 . S
C1660 C1663 1.386 . S
H1661 C1677 0.930 . S
H1662 C1678 0.931 . S
C1663 H1651 0.929 . S
C1663 C1657 1.390 . S
C1663 C1660 1.386 . S
C1664 C1659 1.490 . S
C1664 C1666 1.395 . S
C1664 C1667 1.403 . S
H1665 C1671 0.930 . S
C1666 H1652 0.930 . S
C1666 C1664 1.395 . S
C1666 C1669 1.403 . S
C1667 C1664 1.403 . S
C1667 C1668 1.524 . S
C1667 C1671 1.400 . S
C1668 H1653 0.960 . S
C1668 H1654 0.960 . S
C1668 H1655 0.960 . S
C1668 C1667 1.524 . S
C1669 C1666 1.403 . S
C1669 C1670 1.392 . S
C1669 C1673 1.495 . S
C1670 C1669 1.392 . S
C1670 C1671 1.385 . S
C1670 C1672 1.478 . S
C1671 H1665 0.930 . S
C1671 C1667 1.400 . S
C1671 C1670 1.385 . S
C1672 C1670 1.478 . S
C1672 C1674 1.381 . S
C1672 C1678 1.383 . S
C1673 C1669 1.495 . S
C1673 H1679 0.959 . S
C1673 H1680 0.961 . S
C1673 H1681 0.960 . S
C1674 C1672 1.381 . S
C1674 C1675 1.394 . S
C1674 H1682 0.930 . S
C1675 C1674 1.394 . S
C1675 C1676 1.383 . S
C1675 H1683 0.929 . S
C1676 C1675 1.383 . S
C1676 C1677 1.377 . S
C1677 H1661 0.930 . S
C1677 C1676 1.377 . S
C1677 C1678 1.379 . S
C1678 H1662 0.931 . S
C1678 C1672 1.383 . S
C1678 C1677 1.379 . S
H1679 C1673 0.959 . S
H1680 C1673 0.961 . S
H1681 C1673 0.960 . S
H1682 C1674 0.930 . S
H1683 C1675 0.929 . S
H1684 C1692 0.929 . S
H1685 C1694 0.930 . S
H1686 C1696 0.930 . S
H1687 C1699 0.929 . S
H1688 C1702 0.930 . S
H1689 C1704 0.960 . S
H1690 C1704 0.960 . S
H1691 C1704 0.960 . S
C1692 H1684 0.929 . S
C1692 C1693 1.377 . S
C1692 C1694 1.384 . S
C1693 C1692 1.377 . S
C1693 C1699 1.390 . S
C1694 H1685 0.930 . S
C1694 C1692 1.384 . S
C1694 C1695 1.372 . S
C1695 C1694 1.372 . S
C1695 C1696 1.400 . S
C1695 C1700 1.490 . S
C1696 H1686 0.930 . S
C1696 C1695 1.400 . S
C1696 C1699 1.386 . S
H1697 C1713 0.930 . S
H1698 C1714 0.931 . S
C1699 H1687 0.929 . S
C1699 C1693 1.390 . S
C1699 C1696 1.386 . S
C1700 C1695 1.490 . S
C1700 C1702 1.395 . S
C1700 C1703 1.403 . S
H1701 C1707 0.930 . S
C1702 H1688 0.930 . S
C1702 C1700 1.395 . S
C1702 C1705 1.403 . S
C1703 C1700 1.403 . S
C1703 C1704 1.524 . S
C1703 C1707 1.400 . S
C1704 H1689 0.960 . S
C1704 H1690 0.960 . S
C1704 H1691 0.960 . S
C1704 C1703 1.524 . S
C1705 C1702 1.403 . S
C1705 C1706 1.392 . S
C1705 C1709 1.495 . S
C1706 C1705 1.392 . S
C1706 C1707 1.385 . S
C1706 C1708 1.478 . S
C1707 H1701 0.930 . S
C1707 C1703 1.400 . S
C1707 C1706 1.385 . S
C1708 C1706 1.478 . S
C1708 C1710 1.381 . S
C1708 C1714 1.383 . S
C1709 C1705 1.495 . S
C1709 H1715 0.959 . S
C1709 H1716 0.961 . S
C1709 H1717 0.960 . S
C1710 C1708 1.381 . S
C1710 C1711 1.394 . S
C1710 H1718 0.930 . S
C1711 C1710 1.394 . S
C1711 C1712 1.383 . S
C1711 H1719 0.929 . S
C1712 C1711 1.383 . S
C1712 C1713 1.377 . S
C1713 H1697 0.930 . S
C1713 C1712 1.377 . S
C1713 C1714 1.379 . S
C1714 H1698 0.931 . S
C1714 C1708 1.383 . S
C1714 C1713 1.379 . S
H1715 C1709 0.959 . S
H1716 C1709 0.961 . S
H1717 C1709 0.960 . S
H1718 C1710 0.930 . S
H1719 C1711 0.929 . S
H1720 C1728 0.929 . S
H1721 C1730 0.930 . S
H1722 C1732 0.930 . S
H1723 C1735 0.929 . S
H1724 C1738 0.930 . S
H1725 C1740 0.960 . S
H1726 C1740 0.960 . S
H1727 C1740 0.960 . S
C1728 H1720 0.929 . S
C1728 C1729 1.377 . S
C1728 C1730 1.384 . S
C1729 C1728 1.377 . S
C1729 C1735 1.390 . S
C1730 H1721 0.930 . S
C1730 C1728 1.384 . S
C1730 C1731 1.372 . S
C1731 C1730 1.372 . S
C1731 C1732 1.400 . S
C1731 C1736 1.490 . S
C1732 H1722 0.930 . S
C1732 C1731 1.400 . S
C1732 C1735 1.386 . S
H1733 C1749 0.930 . S
H1734 C1750 0.931 . S
C1735 H1723 0.929 . S
C1735 C1729 1.390 . S
C1735 C1732 1.386 . S
C1736 C1731 1.490 . S
C1736 C1738 1.395 . S
C1736 C1739 1.403 . S
H1737 C1743 0.930 . S
C1738 H1724 0.930 . S
C1738 C1736 1.395 . S
C1738 C1741 1.403 . S
C1739 C1736 1.403 . S
C1739 C1740 1.524 . S
C1739 C1743 1.400 . S
C1740 H1725 0.960 . S
C1740 H1726 0.960 . S
C1740 H1727 0.960 . S
C1740 C1739 1.524 . S
C1741 C1738 1.403 . S
C1741 C1742 1.392 . S
C1741 C1745 1.495 . S
C1742 C1741 1.392 . S
C1742 C1743 1.385 . S
C1742 C1744 1.478 . S
C1743 H1737 0.930 . S
C1743 C1739 1.400 . S
C1743 C1742 1.385 . S
C1744 C1742 1.478 . S
C1744 C1746 1.381 . S
C1744 C1750 1.383 . S
C1745 C1741 1.495 . S
C1745 H1751 0.959 . S
C1745 H1752 0.961 . S
C1745 H1753 0.960 . S
C1746 C1744 1.381 . S
C1746 C1747 1.394 . S
C1746 H1754 0.930 . S
C1747 C1746 1.394 . S
C1747 C1748 1.383 . S
C1747 H1755 0.929 . S
C1748 C1747 1.383 . S
C1748 C1749 1.377 . S
C1749 H1733 0.930 . S
C1749 C1748 1.377 . S
C1749 C1750 1.379 . S
C1750 H1734 0.931 . S
C1750 C1744 1.383 . S
C1750 C1749 1.379 . S
H1751 C1745 0.959 . S
H1752 C1745 0.961 . S
H1753 C1745 0.960 . S
H1754 C1746 0.930 . S
H1755 C1747 0.929 . S
H1756 C1764 0.929 . S
H1757 C1766 0.930 . S
H1758 C1768 0.930 . S
H1759 C1771 0.929 . S
H1760 C1774 0.930 . S
H1761 C1776 0.960 . S
H1762 C1776 0.960 . S
H1763 C1776 0.960 . S
C1764 H1756 0.929 . S
C1764 C1765 1.377 . S
C1764 C1766 1.384 . S
C1765 C1764 1.377 . S
C1765 C1771 1.390 . S
C1766 H1757 0.930 . S
C1766 C1764 1.384 . S
C1766 C1767 1.372 . S
C1767 C1766 1.372 . S
C1767 C1768 1.400 . S
C1767 C1772 1.490 . S
C1768 H1758 0.930 . S
C1768 C1767 1.400 . S
C1768 C1771 1.386 . S
H1769 C1785 0.930 . S
H1770 C1786 0.931 . S
C1771 H1759 0.929 . S
C1771 C1765 1.390 . S
C1771 C1768 1.386 . S
C1772 C1767 1.490 . S
C1772 C1774 1.395 . S
C1772 C1775 1.403 . S
H1773 C1779 0.930 . S
C1774 H1760 0.930 . S
C1774 C1772 1.395 . S
C1774 C1777 1.403 . S
C1775 C1772 1.403 . S
C1775 C1776 1.524 . S
C1775 C1779 1.400 . S
C1776 H1761 0.960 . S
C1776 H1762 0.960 . S
C1776 H1763 0.960 . S
C1776 C1775 1.524 . S
C1777 C1774 1.403 . S
C1777 C1778 1.392 . S
C1777 C1781 1.495 . S
C1778 C1777 1.392 . S
C1778 C1779 1.385 . S
C1778 C1780 1.478 . S
C1779 H1773 0.930 . S
C1779 C1775 1.400 . S
C1779 C1778 1.385 . S
C1780 C1778 1.478 . S
C1780 C1782 1.381 . S
C1780 C1786 1.383 . S
C1781 C1777 1.495 . S
C1781 H1787 0.959 . S
C1781 H1788 0.961 . S
C1781 H1789 0.960 . S
C1782 C1780 1.381 . S
C1782 C1783 1.394 . S
C1782 H1790 0.930 . S
C1783 C1782 1.394 . S
C1783 C1784 1.383 . S
C1783 H1791 0.929 . S
C1784 C1783 1.383 . S
C1784 C1785 1.377 . S
C1785 H1769 0.930 . S
C1785 C1784 1.377 . S
C1785 C1786 1.379 . S
C1786 H1770 0.931 . S
C1786 C1780 1.383 . S
C1786 C1785 1.379 . S
H1787 C1781 0.959 . S
H1788 C1781 0.961 . S
H1789 C1781 0.960 . S
H1790 C1782 0.930 . S
H1791 C1783 0.929 . S
H1792 C1800 0.929 . S
H1793 C1802 0.930 . S
H1794 C1804 0.930 . S
H1795 C1807 0.929 . S
H1796 C1810 0.930 . S
H1797 C1812 0.960 . S
H1798 C1812 0.960 . S
H1799 C1812 0.960 . S
C1800 H1792 0.929 . S
C1800 C1801 1.377 . S
C1800 C1802 1.384 . S
C1801 C1800 1.377 . S
C1801 C1807 1.390 . S
C1802 H1793 0.930 . S
C1802 C1800 1.384 . S
C1802 C1803 1.372 . S
C1803 C1802 1.372 . S
C1803 C1804 1.400 . S
C1803 C1808 1.490 . S
C1804 H1794 0.930 . S
C1804 C1803 1.400 . S
C1804 C1807 1.386 . S
H1805 C1821 0.930 . S
H1806 C1822 0.931 . S
C1807 H1795 0.929 . S
C1807 C1801 1.390 . S
C1807 C1804 1.386 . S
C1808 C1803 1.490 . S
C1808 C1810 1.395 . S
C1808 C1811 1.403 . S
H1809 C1815 0.930 . S
C1810 H1796 0.930 . S
C1810 C1808 1.395 . S
C1810 C1813 1.403 . S
C1811 C1808 1.403 . S
C1811 C1812 1.524 . S
C1811 C1815 1.400 . S
C1812 H1797 0.960 . S
C1812 H1798 0.960 . S
C1812 H1799 0.960 . S
C1812 C1811 1.524 . S
C1813 C1810 1.403 . S
C1813 C1814 1.392 . S
C1813 C1817 1.495 . S
C1814 C1813 1.392 . S
C1814 C1815 1.385 . S
C1814 C1816 1.478 . S
C1815 H1809 0.930 . S
C1815 C1811 1.400 . S
C1815 C1814 1.385 . S
C1816 C1814 1.478 . S
C1816 C1818 1.381 . S
C1816 C1822 1.383 . S
C1817 C1813 1.495 . S
C1817 H1823 0.959 . S
C1817 H1824 0.961 . S
C1817 H1825 0.960 . S
C1818 C1816 1.381 . S
C1818 C1819 1.394 . S
C1818 H1826 0.930 . S
C1819 C1818 1.394 . S
C1819 C1820 1.383 . S
C1819 H1827 0.929 . S
C1820 C1819 1.383 . S
C1820 C1821 1.377 . S
C1821 H1805 0.930 . S
C1821 C1820 1.377 . S
C1821 C1822 1.379 . S
C1822 H1806 0.931 . S
C1822 C1816 1.383 . S
C1822 C1821 1.379 . S
H1823 C1817 0.959 . S
H1824 C1817 0.961 . S
H1825 C1817 0.960 . S
H1826 C1818 0.930 . S
H1827 C1819 0.929 . S
H1828 C1836 0.929 . S
H1829 C1838 0.930 . S
H1830 C1840 0.930 . S
H1831 C1843 0.929 . S
H1832 C1846 0.930 . S
H1833 C1848 0.960 . S
H1834 C1848 0.960 . S
H1835 C1848 0.960 . S
C1836 H1828 0.929 . S
C1836 C1837 1.377 . S
C1836 C1838 1.384 . S
C1837 C1836 1.377 . S
C1837 C1843 1.390 . S
C1838 H1829 0.930 . S
C1838 C1836 1.384 . S
C1838 C1839 1.372 . S
C1839 C1838 1.372 . S
C1839 C1840 1.400 . S
C1839 C1844 1.490 . S
C1840 H1830 0.930 . S
C1840 C1839 1.400 . S
C1840 C1843 1.386 . S
H1841 C1857 0.930 . S
H1842 C1858 0.931 . S
C1843 H1831 0.929 . S
C1843 C1837 1.390 . S
C1843 C1840 1.386 . S
C1844 C1839 1.490 . S
C1844 C1846 1.395 . S
C1844 C1847 1.403 . S
H1845 C1851 0.930 . S
C1846 H1832 0.930 . S
C1846 C1844 1.395 . S
C1846 C1849 1.403 . S
C1847 C1844 1.403 . S
C1847 C1848 1.524 . S
C1847 C1851 1.400 . S
C1848 H1833 0.960 . S
C1848 H1834 0.960 . S
C1848 H1835 0.960 . S
C1848 C1847 1.524 . S
C1849 C1846 1.403 . S
C1849 C1850 1.392 . S
C1849 C1853 1.495 . S
C1850 C1849 1.392 . S
C1850 C1851 1.385 . S
C1850 C1852 1.478 . S
C1851 H1845 0.930 . S
C1851 C1847 1.400 . S
C1851 C1850 1.385 . S
C1852 C1850 1.478 . S
C1852 C1854 1.381 . S
C1852 C1858 1.383 . S
C1853 C1849 1.495 . S
C1853 H1859 0.959 . S
C1853 H1860 0.961 . S
C1853 H1861 0.960 . S
C1854 C1852 1.381 . S
C1854 C1855 1.394 . S
C1854 H1862 0.930 . S
C1855 C1854 1.394 . S
C1855 C1856 1.383 . S
C1855 H1863 0.929 . S
C1856 C1855 1.383 . S
C1856 C1857 1.377 . S
C1857 H1841 0.930 . S
C1857 C1856 1.377 . S
C1857 C1858 1.379 . S
C1858 H1842 0.931 . S
C1858 C1852 1.383 . S
C1858 C1857 1.379 . S
H1859 C1853 0.959 . S
H1860 C1853 0.961 . S
H1861 C1853 0.960 . S
H1862 C1854 0.930 . S
H1863 C1855 0.929 . S
H1864 C1872 0.929 . S
H1865 C1874 0.930 . S
H1866 C1876 0.930 . S
H1867 C1879 0.929 . S
H1868 C1882 0.930 . S
H1869 C1884 0.960 . S
H1870 C1884 0.960 . S
H1871 C1884 0.960 . S
C1872 H1864 0.929 . S
C1872 C1873 1.377 . S
C1872 C1874 1.384 . S
C1873 C1872 1.377 . S
C1873 C1879 1.390 . S
C1874 H1865 0.930 . S
C1874 C1872 1.384 . S
C1874 C1875 1.372 . S
C1875 C1874 1.372 . S
C1875 C1876 1.400 . S
C1875 C1880 1.490 . S
C1876 H1866 0.930 . S
C1876 C1875 1.400 . S
C1876 C1879 1.386 . S
H1877 C1893 0.930 . S
H1878 C1894 0.931 . S
C1879 H1867 0.929 . S
C1879 C1873 1.390 . S
C1879 C1876 1.386 . S
C1880 C1875 1.490 . S
C1880 C1882 1.395 . S
C1880 C1883 1.403 . S
H1881 C1887 0.930 . S
C1882 H1868 0.930 . S
C1882 C1880 1.395 . S
C1882 C1885 1.403 . S
C1883 C1880 1.403 . S
C1883 C1884 1.524 . S
C1883 C1887 1.400 . S
C1884 H1869 0.960 . S
C1884 H1870 0.960 . S
C1884 H1871 0.960 . S
C1884 C1883 1.524 . S
C1885 C1882 1.403 . S
C1885 C1886 1.392 . S
C1885 C1889 1.495 . S
C1886 C1885 1.392 . S
C1886 C1887 1.385 . S
C1886 C1888 1.478 . S
C1887 H1881 0.930 . S
C1887 C1883 1.400 . S
C1887 C1886 1.385 . S
C1888 C1886 1.478 . S
C1888 C1890 1.381 . S
C1888 C1894 1.383 . S
C1889 C1885 1.495 . S
C1889 H1895 0.959 . S
C1889 H1896 0.961 . S
C1889 H1897 0.960 . S
C1890 C1888 1.381 . S
C1890 C1891 1.394 . S
C1890 H1898 0.930 . S
C1891 C1890 1.394 . S
C1891 C1892 1.383 . S
C1891 H1899 0.929 . S
C1892 C1891 1.383 . S
C1892 C1893 1.377 . S
C1893 H1877 0.930 . S
C1893 C1892 1.377 . S
C1893 C1894 1.379 . S
C1894 H1878 0.931 . S
C1894 C1888 1.383 . S
C1894 C1893 1.379 . S
H1895 C1889 0.959 . S
H1896 C1889 0.961 . S
H1897 C1889 0.960 . S
H1898 C1890 0.930 . S
H1899 C1891 0.929 . S
H1900 C1908 0.929 1_545 S
H1901 C1910 0.930 . S
H1902 C1912 0.930 . S
H1903 C1915 0.929 . S
H1904 C1918 0.930 . S
H1905 C1920 0.960 . S
H1906 C1920 0.960 . S
H1907 C1920 0.960 . S
C1908 H1900 0.929 1_565 S
C1908 C1909 1.377 . S
C1908 C1910 1.384 . S
C1909 C1908 1.377 . S
C1909 C1915 1.390 . S
C1910 H1901 0.930 . S
C1910 C1908 1.384 . S
C1910 C1911 1.372 . S
C1911 C1910 1.372 . S
C1911 C1912 1.400 . S
C1911 C1916 1.490 . S
C1912 H1902 0.930 . S
C1912 C1911 1.400 . S
C1912 C1915 1.386 . S
H1913 C1929 0.930 . S
H1914 C1930 0.931 . S
C1915 H1903 0.929 . S
C1915 C1909 1.390 . S
C1915 C1912 1.386 . S
C1916 C1911 1.490 . S
C1916 C1918 1.395 . S
C1916 C1919 1.403 . S
H1917 C1923 0.930 . S
C1918 H1904 0.930 . S
C1918 C1916 1.395 . S
C1918 C1921 1.403 . S
C1919 C1916 1.403 . S
C1919 C1920 1.524 . S
C1919 C1923 1.400 . S
C1920 H1905 0.960 . S
C1920 H1906 0.960 . S
C1920 H1907 0.960 . S
C1920 C1919 1.524 . S
C1921 C1918 1.403 . S
C1921 C1922 1.392 . S
C1921 C1925 1.495 . S
C1922 C1921 1.392 . S
C1922 C1923 1.385 . S
C1922 C1924 1.478 . S
C1923 H1917 0.930 . S
C1923 C1919 1.400 . S
C1923 C1922 1.385 . S
C1924 C1922 1.478 . S
C1924 C1926 1.381 . S
C1924 C1930 1.383 . S
C1925 C1921 1.495 . S
C1925 H1931 0.959 . S
C1925 H1932 0.961 . S
C1925 H1933 0.960 . S
C1926 C1924 1.381 . S
C1926 C1927 1.394 . S
C1926 H1934 0.930 . S
C1927 C1926 1.394 . S
C1927 C1928 1.383 . S
C1927 H1935 0.929 . S
C1928 C1927 1.383 . S
C1928 C1929 1.377 . S
C1929 H1913 0.930 . S
C1929 C1928 1.377 . S
C1929 C1930 1.379 . S
C1930 H1914 0.931 . S
C1930 C1924 1.383 . S
C1930 C1929 1.379 . S
H1931 C1925 0.959 . S
H1932 C1925 0.961 . S
H1933 C1925 0.960 . S
H1934 C1926 0.930 . S
H1935 C1927 0.929 . S
H1936 C1944 0.929 . S
H1937 C1946 0.930 . S
H1938 C1948 0.930 . S
H1939 C1951 0.929 . S
H1940 C1954 0.930 . S
H1941 C1956 0.960 . S
H1942 C1956 0.960 . S
H1943 C1956 0.960 . S
C1944 H1936 0.929 . S
C1944 C1945 1.377 . S
C1944 C1946 1.384 . S
C1945 C1944 1.377 . S
C1945 C1951 1.390 . S
C1946 H1937 0.930 . S
C1946 C1944 1.384 . S
C1946 C1947 1.372 . S
C1947 C1946 1.372 . S
C1947 C1948 1.400 . S
C1947 C1952 1.490 . S
C1948 H1938 0.930 . S
C1948 C1947 1.400 . S
C1948 C1951 1.386 . S
H1949 C1965 0.930 . S
H1950 C1966 0.931 . S
C1951 H1939 0.929 . S
C1951 C1945 1.390 . S
C1951 C1948 1.386 . S
C1952 C1947 1.490 . S
C1952 C1954 1.395 . S
C1952 C1955 1.403 . S
H1953 C1959 0.930 . S
C1954 H1940 0.930 . S
C1954 C1952 1.395 . S
C1954 C1957 1.403 . S
C1955 C1952 1.403 . S
C1955 C1956 1.524 . S
C1955 C1959 1.400 . S
C1956 H1941 0.960 . S
C1956 H1942 0.960 . S
C1956 H1943 0.960 . S
C1956 C1955 1.524 . S
C1957 C1954 1.403 . S
C1957 C1958 1.392 . S
C1957 C1961 1.495 . S
C1958 C1957 1.392 . S
C1958 C1959 1.385 . S
C1958 C1960 1.478 . S
C1959 H1953 0.930 . S
C1959 C1955 1.400 . S
C1959 C1958 1.385 . S
C1960 C1958 1.478 . S
C1960 C1962 1.381 . S
C1960 C1966 1.383 . S
C1961 C1957 1.495 . S
C1961 H1967 0.959 . S
C1961 H1968 0.961 . S
C1961 H1969 0.960 . S
C1962 C1960 1.381 . S
C1962 C1963 1.394 . S
C1962 H1970 0.930 . S
C1963 C1962 1.394 . S
C1963 C1964 1.383 . S
C1963 H1971 0.929 . S
C1964 C1963 1.383 . S
C1964 C1965 1.377 . S
C1965 H1949 0.930 . S
C1965 C1964 1.377 . S
C1965 C1966 1.379 . S
C1966 H1950 0.931 . S
C1966 C1960 1.383 . S
C1966 C1965 1.379 . S
H1967 C1961 0.959 . S
H1968 C1961 0.961 . S
H1969 C1961 0.960 . S
H1970 C1962 0.930 . S
H1971 C1963 0.929 . S
H1972 C1980 0.929 . S
H1973 C1982 0.930 . S
H1974 C1984 0.930 . S
H1975 C1987 0.929 . S
H1976 C1990 0.930 . S
H1977 C1992 0.960 . S
H1978 C1992 0.960 . S
H1979 C1992 0.960 . S
C1980 H1972 0.929 . S
C1980 C1981 1.377 . S
C1980 C1982 1.384 . S
C1981 C1980 1.377 . S
C1981 C1987 1.390 . S
C1982 H1973 0.930 . S
C1982 C1980 1.384 . S
C1982 C1983 1.372 . S
C1983 C1982 1.372 . S
C1983 C1984 1.400 . S
C1983 C1988 1.490 . S
C1984 H1974 0.930 . S
C1984 C1983 1.400 . S
C1984 C1987 1.386 . S
H1985 C2001 0.930 . S
H1986 C2002 0.931 . S
C1987 H1975 0.929 . S
C1987 C1981 1.390 . S
C1987 C1984 1.386 . S
C1988 C1983 1.490 . S
C1988 C1990 1.395 . S
C1988 C1991 1.403 . S
H1989 C1995 0.930 . S
C1990 H1976 0.930 . S
C1990 C1988 1.395 . S
C1990 C1993 1.403 . S
C1991 C1988 1.403 . S
C1991 C1992 1.524 . S
C1991 C1995 1.400 . S
C1992 H1977 0.960 . S
C1992 H1978 0.960 . S
C1992 H1979 0.960 . S
C1992 C1991 1.524 . S
C1993 C1990 1.403 . S
C1993 C1994 1.392 . S
C1993 C1997 1.495 . S
C1994 C1993 1.392 . S
C1994 C1995 1.385 . S
C1994 C1996 1.478 . S
C1995 H1989 0.930 . S
C1995 C1991 1.400 . S
C1995 C1994 1.385 . S
C1996 C1994 1.478 . S
C1996 C1998 1.381 . S
C1996 C2002 1.383 . S
C1997 C1993 1.495 . S
C1997 H2003 0.959 . S
C1997 H2004 0.961 . S
C1997 H2005 0.960 . S
C1998 C1996 1.381 . S
C1998 C1999 1.394 . S
C1998 H2006 0.930 . S
C1999 C1998 1.394 . S
C1999 C2000 1.383 . S
C1999 H2007 0.929 . S
C2000 C1999 1.383 . S
C2000 C2001 1.377 . S
C2001 H1985 0.930 . S
C2001 C2000 1.377 . S
C2001 C2002 1.379 . S
C2002 H1986 0.931 . S
C2002 C1996 1.383 . S
C2002 C2001 1.379 . S
H2003 C1997 0.959 . S
H2004 C1997 0.961 . S
H2005 C1997 0.960 . S
H2006 C1998 0.930 . S
H2007 C1999 0.929 . S
H2008 C2016 0.929 . S
H2009 C2018 0.930 . S
H2010 C2020 0.930 . S
H2011 C2023 0.929 . S
H2012 C2026 0.930 . S
H2013 C2028 0.960 . S
H2014 C2028 0.960 . S
H2015 C2028 0.960 . S
C2016 H2008 0.929 . S
C2016 C2017 1.377 . S
C2016 C2018 1.384 . S
C2017 C2016 1.377 . S
C2017 C2023 1.390 . S
C2018 H2009 0.930 . S
C2018 C2016 1.384 . S
C2018 C2019 1.372 . S
C2019 C2018 1.372 . S
C2019 C2020 1.400 . S
C2019 C2024 1.490 . S
C2020 H2010 0.930 . S
C2020 C2019 1.400 . S
C2020 C2023 1.386 . S
H2021 C2037 0.930 . S
H2022 C2038 0.931 . S
C2023 H2011 0.929 . S
C2023 C2017 1.390 . S
C2023 C2020 1.386 . S
C2024 C2019 1.490 . S
C2024 C2026 1.395 . S
C2024 C2027 1.403 . S
H2025 C2031 0.930 . S
C2026 H2012 0.930 . S
C2026 C2024 1.395 . S
C2026 C2029 1.403 . S
C2027 C2024 1.403 . S
C2027 C2028 1.524 . S
C2027 C2031 1.400 . S
C2028 H2013 0.960 . S
C2028 H2014 0.960 . S
C2028 H2015 0.960 . S
C2028 C2027 1.524 . S
C2029 C2026 1.403 . S
C2029 C2030 1.392 . S
C2029 C2033 1.495 . S
C2030 C2029 1.392 . S
C2030 C2031 1.385 . S
C2030 C2032 1.478 . S
C2031 H2025 0.930 . S
C2031 C2027 1.400 . S
C2031 C2030 1.385 . S
C2032 C2030 1.478 . S
C2032 C2034 1.381 . S
C2032 C2038 1.383 . S
C2033 C2029 1.495 . S
C2033 H2039 0.959 . S
C2033 H2040 0.961 . S
C2033 H2041 0.960 . S
C2034 C2032 1.381 . S
C2034 C2035 1.394 . S
C2034 H2042 0.930 . S
C2035 C2034 1.394 . S
C2035 C2036 1.383 . S
C2035 H2043 0.929 . S
C2036 C2035 1.383 . S
C2036 C2037 1.377 . S
C2037 H2021 0.930 . S
C2037 C2036 1.377 . S
C2037 C2038 1.379 . S
C2038 H2022 0.931 . S
C2038 C2032 1.383 . S
C2038 C2037 1.379 . S
H2039 C2033 0.959 . S
H2040 C2033 0.961 . S
H2041 C2033 0.960 . S
H2042 C2034 0.930 . S
H2043 C2035 0.929 . S
H2044 C2052 0.929 . S
H2045 C2054 0.930 . S
H2046 C2056 0.930 . S
H2047 C2059 0.929 . S
H2048 C2062 0.930 . S
H2049 C2064 0.960 . S
H2050 C2064 0.960 . S
H2051 C2064 0.960 . S
C2052 H2044 0.929 . S
C2052 C2053 1.377 . S
C2052 C2054 1.384 . S
C2053 C2052 1.377 . S
C2053 C2059 1.390 . S
C2054 H2045 0.930 . S
C2054 C2052 1.384 . S
C2054 C2055 1.372 . S
C2055 C2054 1.372 . S
C2055 C2056 1.400 . S
C2055 C2060 1.490 . S
C2056 H2046 0.930 . S
C2056 C2055 1.400 . S
C2056 C2059 1.386 . S
H2057 C2073 0.930 . S
H2058 C2074 0.931 . S
C2059 H2047 0.929 . S
C2059 C2053 1.390 . S
C2059 C2056 1.386 . S
C2060 C2055 1.490 . S
C2060 C2062 1.395 . S
C2060 C2063 1.403 . S
H2061 C2067 0.930 . S
C2062 H2048 0.930 . S
C2062 C2060 1.395 . S
C2062 C2065 1.403 . S
C2063 C2060 1.403 . S
C2063 C2064 1.524 . S
C2063 C2067 1.400 . S
C2064 H2049 0.960 . S
C2064 H2050 0.960 . S
C2064 H2051 0.960 . S
C2064 C2063 1.524 . S
C2065 C2062 1.403 . S
C2065 C2066 1.392 . S
C2065 C2069 1.495 . S
C2066 C2065 1.392 . S
C2066 C2067 1.385 . S
C2066 C2068 1.478 . S
C2067 H2061 0.930 . S
C2067 C2063 1.400 . S
C2067 C2066 1.385 . S
C2068 C2066 1.478 . S
C2068 C2070 1.381 . S
C2068 C2074 1.383 . S
C2069 C2065 1.495 . S
C2069 H2075 0.959 . S
C2069 H2076 0.961 . S
C2069 H2077 0.960 . S
C2070 C2068 1.381 . S
C2070 C2071 1.394 . S
C2070 H2078 0.930 . S
C2071 C2070 1.394 . S
C2071 C2072 1.383 . S
C2071 H2079 0.929 . S
C2072 C2071 1.383 . S
C2072 C2073 1.377 . S
C2073 H2057 0.930 . S
C2073 C2072 1.377 . S
C2073 C2074 1.379 . S
C2074 H2058 0.931 . S
C2074 C2068 1.383 . S
C2074 C2073 1.379 . S
H2075 C2069 0.959 . S
H2076 C2069 0.961 . S
H2077 C2069 0.960 . S
H2078 C2070 0.930 . S
H2079 C2071 0.929 . S
H2080 C2088 0.929 . S
H2081 C2090 0.930 . S
H2082 C2092 0.930 . S
H2083 C2095 0.929 . S
H2084 C2098 0.930 . S
H2085 C2100 0.960 . S
H2086 C2100 0.960 . S
H2087 C2100 0.960 . S
C2088 H2080 0.929 . S
C2088 C2089 1.377 . S
C2088 C2090 1.384 . S
C2089 C2088 1.377 . S
C2089 C2095 1.390 . S
C2090 H2081 0.930 . S
C2090 C2088 1.384 . S
C2090 C2091 1.372 . S
C2091 C2090 1.372 . S
C2091 C2092 1.400 . S
C2091 C2096 1.490 . S
C2092 H2082 0.930 . S
C2092 C2091 1.400 . S
C2092 C2095 1.386 . S
H2093 C2109 0.930 . S
H2094 C2110 0.931 . S
C2095 H2083 0.929 . S
C2095 C2089 1.390 . S
C2095 C2092 1.386 . S
C2096 C2091 1.490 . S
C2096 C2098 1.395 . S
C2096 C2099 1.403 . S
H2097 C2103 0.930 . S
C2098 H2084 0.930 . S
C2098 C2096 1.395 . S
C2098 C2101 1.403 . S
C2099 C2096 1.403 . S
C2099 C2100 1.524 . S
C2099 C2103 1.400 . S
C2100 H2085 0.960 . S
C2100 H2086 0.960 . S
C2100 H2087 0.960 . S
C2100 C2099 1.524 . S
C2101 C2098 1.403 . S
C2101 C2102 1.392 . S
C2101 C2105 1.495 . S
C2102 C2101 1.392 . S
C2102 C2103 1.385 . S
C2102 C2104 1.478 . S
C2103 H2097 0.930 . S
C2103 C2099 1.400 . S
C2103 C2102 1.385 . S
C2104 C2102 1.478 . S
C2104 C2106 1.381 . S
C2104 C2110 1.383 . S
C2105 C2101 1.495 . S
C2105 H2111 0.959 . S
C2105 H2112 0.961 . S
C2105 H2113 0.960 . S
C2106 C2104 1.381 . S
C2106 C2107 1.394 . S
C2106 H2114 0.930 . S
C2107 C2106 1.394 . S
C2107 C2108 1.383 . S
C2107 H2115 0.929 . S
C2108 C2107 1.383 . S
C2108 C2109 1.377 . S
C2109 H2093 0.930 . S
C2109 C2108 1.377 . S
C2109 C2110 1.379 . S
C2110 H2094 0.931 . S
C2110 C2104 1.383 . S
C2110 C2109 1.379 . S
H2111 C2105 0.959 . S
H2112 C2105 0.961 . S
H2113 C2105 0.960 . S
H2114 C2106 0.930 . S
H2115 C2107 0.929 . S
H2116 C2124 0.929 . S
H2117 C2126 0.930 . S
H2118 C2128 0.930 . S
H2119 C2131 0.929 . S
H2120 C2134 0.930 . S
H2121 C2136 0.960 . S
H2122 C2136 0.960 . S
H2123 C2136 0.960 . S
C2124 H2116 0.929 . S
C2124 C2125 1.377 . S
C2124 C2126 1.384 . S
C2125 C2124 1.377 . S
C2125 C2131 1.390 . S
C2126 H2117 0.930 . S
C2126 C2124 1.384 . S
C2126 C2127 1.372 . S
C2127 C2126 1.372 . S
C2127 C2128 1.400 . S
C2127 C2132 1.490 . S
C2128 H2118 0.930 . S
C2128 C2127 1.400 . S
C2128 C2131 1.386 . S
H2129 C2145 0.930 . S
H2130 C2146 0.931 . S
C2131 H2119 0.929 . S
C2131 C2125 1.390 . S
C2131 C2128 1.386 . S
C2132 C2127 1.490 . S
C2132 C2134 1.395 . S
C2132 C2135 1.403 . S
H2133 C2139 0.930 . S
C2134 H2120 0.930 . S
C2134 C2132 1.395 . S
C2134 C2137 1.403 . S
C2135 C2132 1.403 . S
C2135 C2136 1.524 . S
C2135 C2139 1.400 . S
C2136 H2121 0.960 . S
C2136 H2122 0.960 . S
C2136 H2123 0.960 . S
C2136 C2135 1.524 . S
C2137 C2134 1.403 . S
C2137 C2138 1.392 . S
C2137 C2141 1.495 . S
C2138 C2137 1.392 . S
C2138 C2139 1.385 . S
C2138 C2140 1.478 . S
C2139 H2133 0.930 . S
C2139 C2135 1.400 . S
C2139 C2138 1.385 . S
C2140 C2138 1.478 . S
C2140 C2142 1.381 . S
C2140 C2146 1.383 . S
C2141 C2137 1.495 . S
C2141 H2147 0.959 . S
C2141 H2148 0.961 . S
C2141 H2149 0.960 . S
C2142 C2140 1.381 . S
C2142 C2143 1.394 . S
C2142 H2150 0.930 . S
C2143 C2142 1.394 . S
C2143 C2144 1.383 . S
C2143 H2151 0.929 . S
C2144 C2143 1.383 . S
C2144 C2145 1.377 . S
C2145 H2129 0.930 . S
C2145 C2144 1.377 . S
C2145 C2146 1.379 . S
C2146 H2130 0.931 . S
C2146 C2140 1.383 . S
C2146 C2145 1.379 . S
H2147 C2141 0.959 . S
H2148 C2141 0.961 . S
H2149 C2141 0.960 . S
H2150 C2142 0.930 . S
H2151 C2143 0.929 . S
H2152 C2160 0.929 . S
H2153 C2162 0.930 . S
H2154 C2164 0.930 . S
H2155 C2167 0.929 . S
H2156 C2170 0.930 . S
H2157 C2172 0.960 . S
H2158 C2172 0.960 . S
H2159 C2172 0.960 . S
C2160 H2152 0.929 . S
C2160 C2161 1.377 . S
C2160 C2162 1.384 . S
C2161 C2160 1.377 . S
C2161 C2167 1.390 . S
C2162 H2153 0.930 . S
C2162 C2160 1.384 . S
C2162 C2163 1.372 . S
C2163 C2162 1.372 . S
C2163 C2164 1.400 . S
C2163 C2168 1.490 . S
C2164 H2154 0.930 . S
C2164 C2163 1.400 . S
C2164 C2167 1.386 . S
H2165 C2181 0.930 . S
H2166 C2182 0.931 . S
C2167 H2155 0.929 . S
C2167 C2161 1.390 . S
C2167 C2164 1.386 . S
C2168 C2163 1.490 . S
C2168 C2170 1.395 . S
C2168 C2171 1.403 . S
H2169 C2175 0.930 . S
C2170 H2156 0.930 . S
C2170 C2168 1.395 . S
C2170 C2173 1.403 . S
C2171 C2168 1.403 . S
C2171 C2172 1.524 . S
C2171 C2175 1.400 . S
C2172 H2157 0.960 . S
C2172 H2158 0.960 . S
C2172 H2159 0.960 . S
C2172 C2171 1.524 . S
C2173 C2170 1.403 . S
C2173 C2174 1.392 . S
C2173 C2177 1.495 . S
C2174 C2173 1.392 . S
C2174 C2175 1.385 . S
C2174 C2176 1.478 . S
C2175 H2169 0.930 . S
C2175 C2171 1.400 . S
C2175 C2174 1.385 . S
C2176 C2174 1.478 . S
C2176 C2178 1.381 . S
C2176 C2182 1.383 . S
C2177 C2173 1.495 . S
C2177 H2183 0.959 . S
C2177 H2184 0.961 . S
C2177 H2185 0.960 . S
C2178 C2176 1.381 . S
C2178 C2179 1.394 . S
C2178 H2186 0.930 . S
C2179 C2178 1.394 . S
C2179 C2180 1.383 . S
C2179 H2187 0.929 . S
C2180 C2179 1.383 . S
C2180 C2181 1.377 . S
C2181 H2165 0.930 . S
C2181 C2180 1.377 . S
C2181 C2182 1.379 . S
C2182 H2166 0.931 . S
C2182 C2176 1.383 . S
C2182 C2181 1.379 . S
H2183 C2177 0.959 . S
H2184 C2177 0.961 . S
H2185 C2177 0.960 . S
H2186 C2178 0.930 . S
H2187 C2179 0.929 . S
H2188 C2196 0.929 . S
H2189 C2198 0.930 . S
H2190 C2200 0.930 . S
H2191 C2203 0.929 . S
H2192 C2206 0.930 . S
H2193 C2208 0.960 . S
H2194 C2208 0.960 . S
H2195 C2208 0.960 . S
C2196 H2188 0.929 . S
C2196 C2197 1.377 . S
C2196 C2198 1.384 . S
C2197 C2196 1.377 . S
C2197 C2203 1.390 . S
C2198 H2189 0.930 . S
C2198 C2196 1.384 . S
C2198 C2199 1.372 . S
C2199 C2198 1.372 . S
C2199 C2200 1.400 . S
C2199 C2204 1.490 . S
C2200 H2190 0.930 . S
C2200 C2199 1.400 . S
C2200 C2203 1.386 . S
H2201 C2217 0.930 . S
H2202 C2218 0.931 . S
C2203 H2191 0.929 . S
C2203 C2197 1.390 . S
C2203 C2200 1.386 . S
C2204 C2199 1.490 . S
C2204 C2206 1.395 . S
C2204 C2207 1.403 . S
H2205 C2211 0.930 . S
C2206 H2192 0.930 . S
C2206 C2204 1.395 . S
C2206 C2209 1.403 . S
C2207 C2204 1.403 . S
C2207 C2208 1.524 . S
C2207 C2211 1.400 . S
C2208 H2193 0.960 . S
C2208 H2194 0.960 . S
C2208 H2195 0.960 . S
C2208 C2207 1.524 . S
C2209 C2206 1.403 . S
C2209 C2210 1.392 . S
C2209 C2213 1.495 . S
C2210 C2209 1.392 . S
C2210 C2211 1.385 . S
C2210 C2212 1.478 . S
C2211 H2205 0.930 . S
C2211 C2207 1.400 . S
C2211 C2210 1.385 . S
C2212 C2210 1.478 . S
C2212 C2214 1.381 . S
C2212 C2218 1.383 . S
C2213 C2209 1.495 . S
C2213 H2219 0.959 . S
C2213 H2220 0.961 . S
C2213 H2221 0.960 . S
C2214 C2212 1.381 . S
C2214 C2215 1.394 . S
C2214 H2222 0.930 . S
C2215 C2214 1.394 . S
C2215 C2216 1.383 . S
C2215 H2223 0.929 . S
C2216 C2215 1.383 . S
C2216 C2217 1.377 . S
C2217 H2201 0.930 . S
C2217 C2216 1.377 . S
C2217 C2218 1.379 . S
C2218 H2202 0.931 . S
C2218 C2212 1.383 . S
C2218 C2217 1.379 . S
H2219 C2213 0.959 . S
H2220 C2213 0.961 . S
H2221 C2213 0.960 . S
H2222 C2214 0.930 . S
H2223 C2215 0.929 . S
H2224 C2232 0.929 . S
H2225 C2234 0.930 . S
H2226 C2236 0.930 . S
H2227 C2239 0.929 . S
H2228 C2242 0.930 . S
H2229 C2244 0.960 . S
H2230 C2244 0.960 . S
H2231 C2244 0.960 . S
C2232 H2224 0.929 . S
C2232 C2233 1.377 . S
C2232 C2234 1.384 . S
C2233 C2232 1.377 . S
C2233 C2239 1.390 . S
C2234 H2225 0.930 . S
C2234 C2232 1.384 . S
C2234 C2235 1.372 . S
C2235 C2234 1.372 . S
C2235 C2236 1.400 . S
C2235 C2240 1.490 . S
C2236 H2226 0.930 . S
C2236 C2235 1.400 . S
C2236 C2239 1.386 . S
H2237 C2253 0.930 . S
H2238 C2254 0.931 . S
C2239 H2227 0.929 . S
C2239 C2233 1.390 . S
C2239 C2236 1.386 . S
C2240 C2235 1.490 . S
C2240 C2242 1.395 . S
C2240 C2243 1.403 . S
H2241 C2247 0.930 . S
C2242 H2228 0.930 . S
C2242 C2240 1.395 . S
C2242 C2245 1.403 . S
C2243 C2240 1.403 . S
C2243 C2244 1.524 . S
C2243 C2247 1.400 . S
C2244 H2229 0.960 . S
C2244 H2230 0.960 . S
C2244 H2231 0.960 . S
C2244 C2243 1.524 . S
C2245 C2242 1.403 . S
C2245 C2246 1.392 . S
C2245 C2249 1.495 . S
C2246 C2245 1.392 . S
C2246 C2247 1.385 . S
C2246 C2248 1.478 . S
C2247 H2241 0.930 . S
C2247 C2243 1.400 . S
C2247 C2246 1.385 . S
C2248 C2246 1.478 . S
C2248 C2250 1.381 . S
C2248 C2254 1.383 . S
C2249 C2245 1.495 . S
C2249 H2255 0.959 . S
C2249 H2256 0.961 . S
C2249 H2257 0.960 . S
C2250 C2248 1.381 . S
C2250 C2251 1.394 . S
C2250 H2258 0.930 . S
C2251 C2250 1.394 . S
C2251 C2252 1.383 . S
C2251 H2259 0.929 . S
C2252 C2251 1.383 . S
C2252 C2253 1.377 . S
C2253 H2237 0.930 . S
C2253 C2252 1.377 . S
C2253 C2254 1.379 . S
C2254 H2238 0.931 . S
C2254 C2248 1.383 . S
C2254 C2253 1.379 . S
H2255 C2249 0.959 . S
H2256 C2249 0.961 . S
H2257 C2249 0.960 . S
H2258 C2250 0.930 . S
H2259 C2251 0.929 . S
H2260 C2268 0.929 . S
H2261 C2270 0.930 . S
H2262 C2272 0.930 . S
H2263 C2275 0.929 . S
H2264 C2278 0.930 . S
H2265 C2280 0.960 . S
H2266 C2280 0.960 . S
H2267 C2280 0.960 . S
C2268 H2260 0.929 . S
C2268 C2269 1.377 . S
C2268 C2270 1.384 . S
C2269 C2268 1.377 . S
C2269 C2275 1.390 . S
C2270 H2261 0.930 . S
C2270 C2268 1.384 . S
C2270 C2271 1.372 . S
C2271 C2270 1.372 . S
C2271 C2272 1.400 . S
C2271 C2276 1.490 . S
C2272 H2262 0.930 . S
C2272 C2271 1.400 . S
C2272 C2275 1.386 . S
H2273 C2289 0.930 . S
H2274 C2290 0.931 . S
C2275 H2263 0.929 . S
C2275 C2269 1.390 . S
C2275 C2272 1.386 . S
C2276 C2271 1.490 . S
C2276 C2278 1.395 . S
C2276 C2279 1.403 . S
H2277 C2283 0.930 . S
C2278 H2264 0.930 . S
C2278 C2276 1.395 . S
C2278 C2281 1.403 . S
C2279 C2276 1.403 . S
C2279 C2280 1.524 . S
C2279 C2283 1.400 . S
C2280 H2265 0.960 . S
C2280 H2266 0.960 . S
C2280 H2267 0.960 . S
C2280 C2279 1.524 . S
C2281 C2278 1.403 . S
C2281 C2282 1.392 . S
C2281 C2285 1.495 . S
C2282 C2281 1.392 . S
C2282 C2283 1.385 . S
C2282 C2284 1.478 . S
C2283 H2277 0.930 . S
C2283 C2279 1.400 . S
C2283 C2282 1.385 . S
C2284 C2282 1.478 . S
C2284 C2286 1.381 . S
C2284 C2290 1.383 . S
C2285 C2281 1.495 . S
C2285 H2291 0.959 . S
C2285 H2292 0.961 . S
C2285 H2293 0.960 . S
C2286 C2284 1.381 . S
C2286 C2287 1.394 . S
C2286 H2294 0.930 . S
C2287 C2286 1.394 . S
C2287 C2288 1.383 . S
C2287 H2295 0.929 . S
C2288 C2287 1.383 . S
C2288 C2289 1.377 . S
C2289 H2273 0.930 . S
C2289 C2288 1.377 . S
C2289 C2290 1.379 . S
C2290 H2274 0.931 . S
C2290 C2284 1.383 . S
C2290 C2289 1.379 . S
H2291 C2285 0.959 . S
H2292 C2285 0.961 . S
H2293 C2285 0.960 . S
H2294 C2286 0.930 . S
H2295 C2287 0.929 . S
H2296 C2304 0.929 . S
H2297 C2306 0.930 . S
H2298 C2308 0.930 . S
H2299 C2311 0.929 . S
H2300 C2314 0.930 . S
H2301 C2316 0.960 . S
H2302 C2316 0.960 . S
H2303 C2316 0.960 . S
C2304 H2296 0.929 . S
C2304 C2305 1.377 . S
C2304 C2306 1.384 . S
C2305 C2304 1.377 . S
C2305 C2311 1.390 . S
C2306 H2297 0.930 . S
C2306 C2304 1.384 . S
C2306 C2307 1.372 . S
C2307 C2306 1.372 . S
C2307 C2308 1.400 . S
C2307 C2312 1.490 . S
C2308 H2298 0.930 . S
C2308 C2307 1.400 . S
C2308 C2311 1.386 . S
H2309 C2325 0.930 . S
H2310 C2326 0.931 . S
C2311 H2299 0.929 . S
C2311 C2305 1.390 . S
C2311 C2308 1.386 . S
C2312 C2307 1.490 . S
C2312 C2314 1.395 . S
C2312 C2315 1.403 . S
H2313 C2319 0.930 . S
C2314 H2300 0.930 . S
C2314 C2312 1.395 . S
C2314 C2317 1.403 . S
C2315 C2312 1.403 . S
C2315 C2316 1.524 . S
C2315 C2319 1.400 . S
C2316 H2301 0.960 . S
C2316 H2302 0.960 . S
C2316 H2303 0.960 . S
C2316 C2315 1.524 . S
C2317 C2314 1.403 . S
C2317 C2318 1.392 . S
C2317 C2321 1.495 . S
C2318 C2317 1.392 . S
C2318 C2319 1.385 . S
C2318 C2320 1.478 . S
C2319 H2313 0.930 . S
C2319 C2315 1.400 . S
C2319 C2318 1.385 . S
C2320 C2318 1.478 . S
C2320 C2322 1.381 . S
C2320 C2326 1.383 . S
C2321 C2317 1.495 . S
C2321 H2327 0.959 . S
C2321 H2328 0.961 . S
C2321 H2329 0.960 . S
C2322 C2320 1.381 . S
C2322 C2323 1.394 . S
C2322 H2330 0.930 . S
C2323 C2322 1.394 . S
C2323 C2324 1.383 . S
C2323 H2331 0.929 . S
C2324 C2323 1.383 . S
C2324 C2325 1.377 . S
C2325 H2309 0.930 . S
C2325 C2324 1.377 . S
C2325 C2326 1.379 . S
C2326 H2310 0.931 . S
C2326 C2320 1.383 . S
C2326 C2325 1.379 . S
H2327 C2321 0.959 . S
H2328 C2321 0.961 . S
H2329 C2321 0.960 . S
H2330 C2322 0.930 . S
H2331 C2323 0.929 . S
H2332 C2340 0.929 . S
H2333 C2342 0.930 . S
H2334 C2344 0.930 . S
H2335 C2347 0.929 . S
H2336 C2350 0.930 . S
H2337 C2352 0.960 . S
H2338 C2352 0.960 . S
H2339 C2352 0.960 . S
C2340 H2332 0.929 . S
C2340 C2341 1.377 . S
C2340 C2342 1.384 . S
C2341 C2340 1.377 . S
C2341 C2347 1.390 . S
C2342 H2333 0.930 . S
C2342 C2340 1.384 . S
C2342 C2343 1.372 . S
C2343 C2342 1.372 . S
C2343 C2344 1.400 . S
C2343 C2348 1.490 . S
C2344 H2334 0.930 . S
C2344 C2343 1.400 . S
C2344 C2347 1.386 . S
H2345 C2361 0.930 . S
H2346 C2362 0.931 . S
C2347 H2335 0.929 . S
C2347 C2341 1.390 . S
C2347 C2344 1.386 . S
C2348 C2343 1.490 . S
C2348 C2350 1.395 . S
C2348 C2351 1.403 . S
H2349 C2355 0.930 . S
C2350 H2336 0.930 . S
C2350 C2348 1.395 . S
C2350 C2353 1.403 . S
C2351 C2348 1.403 . S
C2351 C2352 1.524 . S
C2351 C2355 1.400 . S
C2352 H2337 0.960 . S
C2352 H2338 0.960 . S
C2352 H2339 0.960 . S
C2352 C2351 1.524 . S
C2353 C2350 1.403 . S
C2353 C2354 1.392 . S
C2353 C2357 1.495 . S
C2354 C2353 1.392 . S
C2354 C2355 1.385 . S
C2354 C2356 1.478 . S
C2355 H2349 0.930 . S
C2355 C2351 1.400 . S
C2355 C2354 1.385 . S
C2356 C2354 1.478 . S
C2356 C2358 1.381 . S
C2356 C2362 1.383 . S
C2357 C2353 1.495 . S
C2357 H2363 0.959 . S
C2357 H2364 0.961 . S
C2357 H2365 0.960 . S
C2358 C2356 1.381 . S
C2358 C2359 1.394 . S
C2358 H2366 0.930 . S
C2359 C2358 1.394 . S
C2359 C2360 1.383 . S
C2359 H2367 0.929 . S
C2360 C2359 1.383 . S
C2360 C2361 1.377 . S
C2361 H2345 0.930 . S
C2361 C2360 1.377 . S
C2361 C2362 1.379 . S
C2362 H2346 0.931 . S
C2362 C2356 1.383 . S
C2362 C2361 1.379 . S
H2363 C2357 0.959 . S
H2364 C2357 0.961 . S
H2365 C2357 0.960 . S
H2366 C2358 0.930 . S
H2367 C2359 0.929 . S
C649 C139 3.446 . S
C668 C18 3.468 . S
C685 C10 2.345 . S
C704 C59 2.334 . S
C721 C89 0.724 . S
C740 C49 0.770 . S
C757 C126 1.298 . S
C776 C86 1.326 . S
C793 C170 2.319 . S
C812 C210 2.330 . S
C829 C218 0.749 . S
C848 C258 0.728 . S
C865 C255 1.254 . S
C884 C286 1.231 . S
C901 C175 0.767 . S
C920 C289 0.791 . S
C937 C375 1.203 . S
C956 C15 1.194 . S
C973 C410 0.708 . S
C992 C46 0.664 . S
C1009 C99 2.327 . S
C1028 C539 2.305 . S
C1045 C338 0.735 . S
C1064 C129 0.741 . S
C1081 C449 0.747 . S
C1100 C178 0.707 . S
C1117 C575 1.194 . S
C1136 C215 1.193 . S
C1153 C250 0.684 . S
C1172 C486 0.737 . S
C1189 C619 2.328 . S
C1208 C299 2.296 . S
C1225 C335 0.763 . S
C1244 C529 0.774 . S
C1261 C370 2.344 . S
C1280 C330 2.301 . S
C1297 C418 0.760 . S
C1316 C378 0.792 . S
C1333 C578 3.476 . S
C1352 C459 3.435 . S
C1369 C489 0.720 . S
C1388 C609 0.747 . S
C1405 C450 3.447 . S
C1424 C9 3.464 . S
C1441 C490 2.352 . S
C1460 C19 2.336 . S
C1477 C498 0.732 . S
C1496 C98 0.697 . S
C1513 C95 1.308 . S
C1532 C455 1.322 . S
C1549 C379 2.343 . S
C1568 C179 2.305 . S
C1585 C369 0.763 . S
C1604 C249 0.728 . S
C1621 C535 1.244 . S
C1640 C246 1.242 . S
C1657 C166 0.750 . S
C1676 C538 0.751 . S
C1693 C206 1.202 . S
C1712 C6 1.182 . S
C1729 C419 0.689 . S
C1748 C495 0.674 . S
C1765 C90 2.329 . S
C1784 C290 2.282 . S
C1801 C329 0.754 . S
C1820 C458 0.718 . S
C1837 C138 0.740 . S
C1856 C169 0.786 . S
C1873 C366 1.203 . S
C1892 C566 1.188 . S
C1909 C259 0.707 . S
C1928 C55 0.746 . S
C1945 C610 2.327 . S
C1964 C530 2.289 . S
C1981 C326 0.767 . S
C2000 C298 0.738 . S
C2017 C339 2.319 . S
C2036 C219 2.342 . S
C2053 C409 0.756 . S
C2072 C209 0.760 . S
C2089 C130 3.449 . S
C2108 C569 3.470 . S
C2125 C58 0.717 . S
C2144 C618 0.765 . S
C2161 C499 2.347 . S
C2180 C570 2.344 . S
C2197 C446 1.296 . S
C2216 C606 1.279 . S
C2233 C415 1.255 . S
C2252 C526 1.258 . S
C2269 C579 2.347 . S
C2288 C50 2.347 . S
C2305 C135 1.293 . S
C2324 C615 1.282 . S
C2341 C295 1.236 . S
C2360 C406 1.260 . S
