# Generated by pormake.
# Topology lon, (4)-cn, num edge types: 1
# Building blocks:
#     Node 0, Type 0, BuildingBlock: CEKHIL_clean_sbu_0, # of connection points: 4
#     Node 1, Type 0, BuildingBlock: CEKHIL_clean_sbu_0, # of connection points: 4
#     Node 2, Type 0, BuildingBlock: CEKHIL_clean_sbu_0, # of connection points: 4
#     Node 3, Type 0, BuildingBlock: CEKHIL_clean_sbu_0, # of connection points: 4
#     Edge 4, Type (0, 0), BuildingBlock: ZUJKAS_clean_linker_0, # of connection points: 2
#     Edge 5, Type (0, 0), BuildingBlock: ZUJKAS_clean_linker_0, # of connection points: 2
#     Edge 6, Type (0, 0), BuildingBlock: ZUJKAS_clean_linker_0, # of connection points: 2
#     Edge 7, Type (0, 0), BuildingBlock: ZUJKAS_clean_linker_0, # of connection points: 2
#     Edge 8, Type (0, 0), BuildingBlock: ZUJKAS_clean_linker_0, # of connection points: 2
#     Edge 9, Type (0, 0), BuildingBlock: ZUJKAS_clean_linker_0, # of connection points: 2
#     Edge 10, Type (0, 0), BuildingBlock: ZUJKAS_clean_linker_0, # of connection points: 2
#     Edge 11, Type (0, 0), BuildingBlock: ZUJKAS_clean_linker_0, # of connection points: 2
# Relax obj value: 0.140
# Max RMSD: 0.174
# Mean RMSD: 0.173
data_MOF--net-lon--node1-CEKHIL_clean_sbu_0--edge1-ZUJKAS_clean_linker_0
_symmetry_space_group_name_H-M    P1
_symmetry_Int_Tables_number       1
_symmetry_cell_setting            triclinic
loop_
_symmetry_equiv_pos_as_xyz
'x, y, z'
_cell_length_a     29.43108
_cell_length_b     32.022454
_cell_length_c     52.528574
_cell_angle_alpha  91.338425
_cell_angle_beta   89.952867
_cell_angle_gamma 117.34686
loop_
_atom_site_label
_atom_site_type_symbol
_atom_site_fract_x
_atom_site_fract_y
_atom_site_fract_z
_atom_type_partial_charge
Co0 Co 0.36408 0.70575 0.07867 0.0
O1 O 0.34084 0.72914 0.10766 0.0
O2 O 0.363 0.672 0.10904 0.0
C3 C 0.41849 0.77798 0.06417 0.0
O4 O 0.39318 0.67353 0.05422 0.0
Co5 Co 0.35146 0.7264 0.02242 0.0
O6 O 0.39857 0.69938 0.01444 0.0
C7 C 0.26227 0.65555 0.05012 0.0
C8 C 0.34791 0.69914 0.12119 0.0
C9 C 0.40752 0.6754 0.03088 0.0
O10 O 0.291 0.65804 0.0693 0.0
O11 O 0.27891 0.68252 0.03104 0.0
O12 O 0.43259 0.75981 0.08256 0.0
O13 O 0.37199 0.75346 0.05631 0.0
Co14 Co 0.65655 0.33568 0.58317 0.0
O15 O 0.6114 0.31261 0.61214 0.0
O16 O 0.69392 0.33288 0.61288 0.0
C17 C 0.62817 0.38736 0.57095 0.0
O18 O 0.71694 0.36326 0.55875 0.0
Co19 Co 0.61893 0.3282 0.52716 0.0
O20 O 0.69181 0.36892 0.5192 0.0
C21 C 0.60937 0.24357 0.55321 0.0
C22 C 0.65142 0.31865 0.62532 0.0
C23 C 0.7269 0.37633 0.53551 0.0
O24 O 0.63924 0.26883 0.57159 0.0
O25 O 0.59296 0.26051 0.53569 0.0
O26 O 0.66174 0.3987 0.58928 0.0
O27 O 0.6112 0.34513 0.56183 0.0
Co28 Co 0.32748 0.67821 0.43926 0.0
O29 O 0.30298 0.69949 0.41054 0.0
O30 O 0.36741 0.68208 0.40917 0.0
C31 C 0.24834 0.62549 0.45214 0.0
O32 O 0.36226 0.6522 0.46349 0.0
Co33 Co 0.29849 0.68629 0.49545 0.0
O34 O 0.33103 0.64573 0.50302 0.0
C35 C 0.37214 0.77096 0.46891 0.0
C36 C 0.33745 0.69476 0.39707 0.0
C37 C 0.35914 0.63892 0.48669 0.0
O38 O 0.37602 0.74562 0.45035 0.0
O39 O 0.33976 0.75403 0.48687 0.0
O40 O 0.27066 0.61444 0.43369 0.0
O41 O 0.273 0.66794 0.46101 0.0
Co42 Co 0.66652 0.3075 0.94311 0.0
O43 O 0.61997 0.2868 0.91402 0.0
O44 O 0.70058 0.34119 0.91301 0.0
C45 C 0.64592 0.23414 0.95678 0.0
O46 O 0.72792 0.33723 0.96765 0.0
Co47 Co 0.63304 0.28563 0.99928 0.0
O48 O 0.70682 0.30964 1.00707 0.0
C49 C 0.61923 0.36032 0.97288 0.0
C50 C 0.65808 0.31591 0.90064 0.0
C51 C 0.74011 0.33381 0.99081 0.0
O52 O 0.64359 0.3567 0.95314 0.0
O53 O 0.60861 0.33305 0.99184 0.0
O54 O 0.67842 0.25216 0.93847 0.0
O55 O 0.62517 0.2595 0.96508 0.0
H56 H 0.32272 0.62447 0.15231 0.0
H57 H 0.31687 0.62392 0.19884 0.0
H58 H 0.36092 0.77248 0.20013 0.0
H59 H 0.36276 0.77206 0.15364 0.0
H60 H 0.3806 0.66 0.234 0.0
H61 H 0.2478 0.73617 0.24734 0.0
H62 H 0.26051 0.71911 0.2163 0.0
H63 H 0.3029 0.7759 0.23034 0.0
C64 C 0.3302 0.65677 0.16257 0.0
C65 C 0.34246 0.69813 0.14931 0.0
C66 C 0.3271 0.65655 0.18923 0.0
C67 C 0.33734 0.69796 0.20334 0.0
C68 C 0.35068 0.73953 0.18997 0.0
H69 H 0.42024 0.72027 0.36591 0.0
H70 H 0.42161 0.72355 0.31936 0.0
C71 C 0.35218 0.73939 0.16329 0.0
C72 C 0.33643 0.69801 0.23193 0.0
H73 H 0.29595 0.73691 0.2842 0.0
C74 C 0.36152 0.67641 0.2449 0.0
C75 C 0.31094 0.71861 0.24651 0.0
C76 C 0.27857 0.73823 0.23436 0.0
C77 C 0.36219 0.67508 0.27168 0.0
C78 C 0.33959 0.69839 0.28627 0.0
C79 C 0.31413 0.71965 0.2733 0.0
C80 C 0.34009 0.69971 0.31488 0.0
C81 C 0.38558 0.64706 0.2838 0.0
C82 C 0.29469 0.68839 0.32834 0.0
C83 C 0.29441 0.68863 0.35502 0.0
C84 C 0.3393 0.69924 0.36897 0.0
C85 C 0.38494 0.71144 0.35566 0.0
C86 C 0.38554 0.71266 0.32896 0.0
H87 H 0.38452 0.61902 0.27057 0.0
H88 H 0.42632 0.67073 0.28854 0.0
H89 H 0.36539 0.6303 0.30147 0.0
H90 H 0.25901 0.67842 0.3182 0.0
H91 H 0.25856 0.67883 0.36472 0.0
H92 H 0.56738 0.28513 0.65622 0.0
H93 H 0.56597 0.28333 0.70292 0.0
H94 H 0.73004 0.33995 0.70489 0.0
H95 H 0.73184 0.34155 0.6583 0.0
H96 H 0.61123 0.23803 0.73795 0.0
H97 H 0.69469 0.43227 0.75025 0.0
H98 H 0.66388 0.40161 0.72097 0.0
H99 H 0.72715 0.41063 0.72875 0.0
C100 C 0.60313 0.29679 0.66657 0.0
C101 C 0.64974 0.31357 0.65346 0.0
C102 C 0.60225 0.29578 0.69327 0.0
C103 C 0.64795 0.31204 0.70742 0.0
C104 C 0.69437 0.32772 0.69439 0.0
H105 H 0.73551 0.36296 0.86731 0.0
H106 H 0.73099 0.36089 0.82078 0.0
C107 C 0.69527 0.32837 0.66771 0.0
C108 C 0.64736 0.31338 0.73579 0.0
H109 H 0.68331 0.38886 0.7875 0.0
C110 C 0.62672 0.27094 0.74883 0.0
C111 C 0.6678 0.35635 0.74994 0.0
C112 C 0.68938 0.40293 0.73688 0.0
C113 C 0.62717 0.27034 0.77565 0.0
C114 C 0.64744 0.31341 0.7899 0.0
C115 C 0.66768 0.35582 0.77674 0.0
C116 C 0.64936 0.3154 0.8184 0.0
C117 C 0.60756 0.22353 0.78837 0.0
C118 C 0.60486 0.29148 0.83282 0.0
C119 C 0.60744 0.29229 0.85952 0.0
C120 C 0.65446 0.31773 0.87245 0.0
C121 C 0.69864 0.34302 0.85802 0.0
C122 C 0.69611 0.34183 0.83135 0.0
H123 H 0.60764 0.19592 0.77518 0.0
H124 H 0.63096 0.22605 0.80545 0.0
H125 H 0.56754 0.21206 0.79443 0.0
H126 H 0.56803 0.272 0.82344 0.0
H127 H 0.57261 0.2727 0.87002 0.0
H128 H 0.44172 0.66828 0.98306 0.0
H129 H 0.47925 0.61776 0.96877 0.0
H130 H 0.46985 0.56769 0.04501 0.0
H131 H 0.43181 0.6176 0.05949 0.0
H132 H 0.56823 0.61244 0.98472 0.0
H133 H 0.39291 0.44644 1.00193 0.0
H134 H 0.3928 0.50274 1.00122 0.0
H135 H 0.41422 0.48551 0.0293 0.0
C136 C 0.44769 0.64664 0.99687 0.0
C137 C 0.43319 0.64681 0.02245 0.0
C138 C 0.46927 0.61781 0.98862 0.0
C139 C 0.47655 0.58833 1.00569 0.0
C140 C 0.46361 0.58944 0.03136 0.0
H141 H 0.58974 0.39045 0.01558 0.0
H142 H 0.55709 0.44729 0.01963 0.0
C143 C 0.44206 0.61823 0.03965 0.0
C144 C 0.49701 0.55589 0.99673 0.0
H145 H 0.46941 0.43999 0.99459 0.0
C146 C 0.54649 0.57467 0.98657 0.0
C147 C 0.46832 0.50658 0.99884 0.0
C148 C 0.41392 0.484 1.00817 0.0
C149 C 0.56907 0.54559 0.97985 0.0
C150 C 0.54113 0.49649 0.98307 0.0
C151 C 0.4909 0.47767 0.9922 0.0
C152 C 0.56457 0.4643 0.97978 0.0
C153 C 0.62338 0.56769 0.97048 0.0
C154 C 0.58043 0.45514 0.95592 0.0
C155 C 0.59953 0.42221 0.95344 0.0
C156 C 0.60253 0.39771 0.97476 0.0
C157 C 0.58752 0.408 0.9986 0.0
C158 C 0.56882 0.4407 1.00104 0.0
H159 H 0.64226 0.60665 0.97262 0.0
H160 H 0.64628 0.55405 0.98101 0.0
H161 H 0.62346 0.55831 0.95002 0.0
H162 H 0.57693 0.47257 0.93917 0.0
H163 H 0.61062 0.4151 0.93481 0.0
H164 H 0.20204 0.6399 0.49372 0.0
H165 H 0.11481 0.59229 0.50797 0.0
H166 H 0.08984 0.49149 0.44689 0.0
H167 H 0.17813 0.53907 0.43258 0.0
H168 H 0.02856 0.57228 0.4795 0.0
H169 H 0.03102 0.40778 0.50892 0.0
H170 H 0.08883 0.46185 0.50436 0.0
H171 H 0.0537 0.42632 0.47733 0.0
C172 C 0.17838 0.60727 0.48346 0.0
C173 C 0.19705 0.59332 0.46195 0.0
C174 C 0.12839 0.58009 0.49165 0.0
C175 C 0.09574 0.53819 0.47862 0.0
C176 C 0.11456 0.52332 0.45751 0.0
H177 H 0.76334 0.40893 0.48813 0.0
H178 H 0.85204 0.44649 0.47411 0.0
C179 C 0.16495 0.55059 0.44929 0.0
C180 C 0.04124 0.51238 0.48629 0.0
H181 H 0.95067 0.40826 0.50926 0.0
C182 C 0.01153 0.53638 0.48597 0.0
C183 C 0.01919 0.46573 0.49499 0.0
C184 C 0.04981 0.43888 0.49668 0.0
C185 C 0.9605 0.51511 0.49404 0.0
C186 C 0.9381 0.46817 0.5023 0.0
C187 C 0.9678 0.44414 0.50276 0.0
C188 C 0.88402 0.4438 0.51072 0.0
C189 C 0.93135 0.54349 0.49419 0.0
C190 C 0.87228 0.42883 0.53587 0.0
C191 C 0.8214 0.40717 0.54402 0.0
C192 C 0.78113 0.39976 0.5271 0.0
C193 C 0.79317 0.41428 0.50179 0.0
C194 C 0.84398 0.43592 0.49371 0.0
H195 H 0.95739 0.58185 0.49345 0.0
H196 H 0.90567 0.53329 0.47724 0.0
H197 H 0.90744 0.53666 0.51146 0.0
H198 H 0.90259 0.43447 0.54931 0.0
H199 H 0.81371 0.39628 0.56358 0.0
H200 H 0.68901 0.17518 0.9468 0.0
H201 H 0.66515 0.09813 0.96529 0.0
H202 H 0.54962 0.1119 1.01008 0.0
H203 H 0.57411 0.18884 0.9924 0.0
H204 H 0.60085 0.07802 0.03802 0.0
H205 H 0.53985 0.97743 0.94608 0.0
H206 H 0.60517 0.02232 0.9474 0.0
H207 H 0.55424 0.03847 0.94911 0.0
C208 C 0.65865 0.16173 0.96065 0.0
C209 C 0.6333 0.18804 0.96802 0.0
C210 C 0.64482 0.11757 0.97109 0.0
C211 C 0.60497 0.09874 0.98882 0.0
C212 C 0.58042 0.1255 0.99646 0.0
H213 H 0.3927 0.8225 0.0279 0.0
H214 H 0.44502 0.8994 1.01024 0.0
C215 C 0.59443 0.16956 0.98624 0.0
C216 C 0.58762 0.05102 0.99937 0.0
H217 H 0.53085 0.93401 0.98284 0.0
C218 C 0.586 0.04651 0.02595 0.0
C219 C 0.5679 0.00985 0.98363 0.0
C220 C 0.56636 0.01197 0.95498 0.0
C221 C 0.56352 1.00218 0.03723 0.0
C222 C 0.54323 0.961 0.02149 0.0
C223 C 0.54666 0.96553 0.99491 0.0
C224 C 0.51314 0.91319 0.03197 0.0
C225 C 0.55921 0.99997 0.06586 0.0
C226 C 0.53401 0.89466 0.04993 0.0
C227 C 0.50373 0.85044 0.06037 0.0
C228 C 0.45228 0.82383 0.05276 0.0
C229 C 0.43213 0.842 0.03426 0.0
C230 C 0.46211 0.88605 0.02405 0.0
H231 H 0.56661 0.03438 0.07473 0.0
H232 H 0.5206 0.97316 0.07155 0.0
H233 H 0.58779 0.98998 0.07364 0.0
H234 H 0.57359 0.91441 0.05597 0.0
H235 H 0.52044 0.83727 0.07445 0.0
H236 H 0.56838 0.37317 0.52905 0.0
H237 H 0.52948 0.42109 0.51438 0.0
H238 H 0.60302 0.52105 0.57609 0.0
H239 H 0.64318 0.47327 0.59074 0.0
H240 H 0.46226 0.4407 0.54125 0.0
H241 H 0.63115 0.60636 0.51508 0.0
H242 H 0.63483 0.55237 0.52001 0.0
H243 H 0.63313 0.58748 0.54682 0.0
C244 C 0.57697 0.40567 0.53937 0.0
C245 C 0.60889 0.41939 0.56111 0.0
C246 C 0.55458 0.43304 0.53094 0.0
C247 C 0.56346 0.47485 0.544 0.0
C248 C 0.59627 0.48935 0.56542 0.0
H249 H 0.36139 0.60453 0.53372 0.0
H250 H 0.412 0.56643 0.5476 0.0
C251 C 0.61904 0.46195 0.57384 0.0
C252 C 0.53533 0.50098 0.53597 0.0
H253 H 0.55045 0.60635 0.51414 0.0
C254 C 0.48161 0.47694 0.53533 0.0
C255 C 0.56053 0.5481 0.52798 0.0
C256 C 0.61809 0.5751 0.52724 0.0
C257 C 0.45244 0.49863 0.52705 0.0
C258 C 0.47754 0.54604 0.51959 0.0
C259 C 0.53127 0.5701 0.52003 0.0
C260 C 0.44837 0.57096 0.51126 0.0
C261 C 0.39494 0.47024 0.52588 0.0
C262 C 0.45278 0.58718 0.48633 0.0
C263 C 0.42382 0.60914 0.47825 0.0
C264 C 0.39011 0.61563 0.49504 0.0
C265 C 0.38658 0.59996 0.52015 0.0
C266 C 0.41544 0.578 0.52816 0.0
H267 H 0.38258 0.43183 0.52603 0.0
H268 H 0.37824 0.47945 0.54272 0.0
H269 H 0.3791 0.4781 0.5085 0.0
H270 H 0.47808 0.58221 0.47299 0.0
H271 H 0.42781 0.62092 0.45884 0.0
H272 H 0.20773 0.58487 0.08401 0.0
H273 H 0.11878 0.52252 0.07901 0.0
H274 H 0.10521 0.58117 1.00816 0.0
H275 H 0.19242 0.64294 0.01284 0.0
H276 H 0.02184 0.53668 0.06773 0.0
H277 H 0.06907 0.43706 0.99341 0.0
H278 H 0.11555 0.47615 0.01651 0.0
H279 H 0.09814 0.4997 0.98967 0.0
C280 C 0.18566 0.58462 0.06747 0.0
C281 C 0.2077 0.61894 0.04879 0.0
C282 C 0.13492 0.54898 0.06464 0.0
C283 C 0.10578 0.54699 0.04303 0.0
C284 C 0.12724 0.58174 0.0248 0.0
H285 H 0.82178 0.39679 0.96373 0.0
H286 H 0.90976 0.44466 0.97874 0.0
C287 C 0.17736 0.61719 0.02762 0.0
C288 C 0.05292 0.5089 0.0388 0.0
H289 H 0.98142 0.41931 0.99691 0.0
C290 C 0.01284 0.51031 0.05263 0.0
C291 C 0.04146 0.47497 0.0189 0.0
C292 C 0.08326 0.47142 1.00383 0.0
C293 C 0.96138 0.48011 0.04621 0.0
C294 C 0.94986 0.44711 0.02569 0.0
C295 C 0.99015 0.44464 0.01254 0.0
C296 C 0.89648 0.41663 0.01665 0.0
C297 C 0.91987 0.48554 0.06054 0.0
C298 C 0.85984 0.38418 0.03277 0.0
C299 C 0.80936 0.3568 0.02427 0.0
C300 C 0.79444 0.36098 0.99935 0.0
C301 C 0.83168 0.3926 0.98303 0.0
C302 C 0.88209 0.42005 0.99159 0.0
H303 H 0.93513 0.51933 0.0716 0.0
H304 H 0.8896 0.48375 0.0473 0.0
H305 H 0.90198 0.45651 0.07412 0.0
H306 H 0.87024 0.38006 0.05197 0.0
H307 H 0.78195 0.33259 0.03734 0.0
H308 H 0.6692 0.19828 0.55567 0.0
H309 H 0.64489 0.11771 0.53946 0.0
H310 H 0.49024 0.09506 0.5275 0.0
H311 H 0.5143 0.17487 0.54316 0.0
H312 H 0.5623 0.02281 0.55157 0.0
H313 H 0.54123 0.07995 0.45555 0.0
H314 H 0.57547 0.1211 0.48119 0.0
H315 H 0.50674 0.09442 0.47944 0.0
C316 C 0.62973 0.17543 0.55033 0.0
C317 C 0.59359 0.1927 0.55059 0.0
C318 C 0.616 0.12967 0.54087 0.0
C319 C 0.56606 0.10092 0.53166 0.0
C320 C 0.52922 0.11699 0.53396 0.0
H321 H 0.34735 0.83898 0.48384 0.0
H322 H 0.40534 0.92043 0.49597 0.0
C323 C 0.5429 0.16244 0.54314 0.0
C324 C 0.55208 0.05528 0.51814 0.0
H325 H 0.49821 0.99647 0.46225 0.0
C326 C 0.54959 0.01721 0.53185 0.0
C327 C 0.5359 0.04811 0.4923 0.0
C328 C 0.54042 0.08818 0.47616 0.0
C329 C 0.52762 0.97149 0.52091 0.0
C330 C 0.50788 0.96391 0.49574 0.0
C331 C 0.51343 1.00242 0.48154 0.0
C332 C 0.47403 0.91592 0.48556 0.0
C333 C 0.52245 0.93092 0.53676 0.0
C334 C 0.49347 0.88689 0.47478 0.0
C335 C 0.46009 0.84014 0.46739 0.0
C336 C 0.40711 0.82199 0.47106 0.0
C337 C 0.38799 0.85202 0.4808 0.0
C338 C 0.42105 0.89849 0.48782 0.0
H339 H 0.54183 0.94279 0.55561 0.0
H340 H 0.4813 0.90689 0.5398 0.0
H341 H 0.539 0.91051 0.52647 0.0
H342 H 0.53436 0.89991 0.47283 0.0
H343 H 0.47584 0.81756 0.46024 0.0
loop_
_geom_bond_atom_site_label_1
_geom_bond_atom_site_label_2
_geom_bond_distance
_geom_bond_site_symmetry_2
_ccdc_geom_bond_type
Co0 O1 2.216 . S
Co0 O2 2.091 . S
Co0 O4 2.004 . S
Co0 O10 2.021 . S
Co0 O12 2.137 . S
Co0 O13 2.244 . S
O1 Co0 2.216 . S
O1 C8 1.247 . S
O2 Co0 2.091 . S
O2 C8 1.261 . S
C3 O12 1.247 . S
C3 O13 1.272 . S
O4 Co0 2.004 . S
O4 C9 1.259 . S
Co5 O6 2.061 . S
Co5 O11 2.052 . S
Co5 O13 2.135 . S
O6 Co5 2.061 . S
O6 C9 1.235 . S
C7 O10 1.238 . S
C7 O11 1.241 . S
C8 O1 1.247 . S
C8 O2 1.261 . S
C9 O4 1.259 . S
C9 O6 1.235 . S
O10 Co0 2.021 . S
O10 C7 1.238 . S
O11 Co5 2.052 . S
O11 C7 1.241 . S
O12 Co0 2.137 . S
O12 C3 1.247 . S
O13 Co0 2.244 . S
O13 C3 1.272 . S
O13 Co5 2.135 . S
Co14 O15 2.216 . S
Co14 O16 2.091 . S
Co14 O18 2.004 . S
Co14 O24 2.021 . S
Co14 O26 2.137 . S
Co14 O27 2.244 . S
O15 Co14 2.216 . S
O15 C22 1.247 . S
O16 Co14 2.091 . S
O16 C22 1.261 . S
C17 O26 1.247 . S
C17 O27 1.272 . S
O18 Co14 2.004 . S
O18 C23 1.259 . S
Co19 O20 2.061 . S
Co19 O25 2.052 . S
Co19 O27 2.135 . S
O20 Co19 2.061 . S
O20 C23 1.235 . S
C21 O24 1.238 . S
C21 O25 1.241 . S
C22 O15 1.247 . S
C22 O16 1.261 . S
C23 O18 1.259 . S
C23 O20 1.235 . S
O24 Co14 2.021 . S
O24 C21 1.238 . S
O25 Co19 2.052 . S
O25 C21 1.241 . S
O26 Co14 2.137 . S
O26 C17 1.247 . S
O27 Co14 2.244 . S
O27 C17 1.272 . S
O27 Co19 2.135 . S
Co28 O29 2.216 . S
Co28 O30 2.091 . S
Co28 O32 2.004 . S
Co28 O38 2.021 . S
Co28 O40 2.137 . S
Co28 O41 2.244 . S
O29 Co28 2.216 . S
O29 C36 1.247 . S
O30 Co28 2.091 . S
O30 C36 1.261 . S
C31 O40 1.247 . S
C31 O41 1.272 . S
O32 Co28 2.004 . S
O32 C37 1.259 . S
Co33 O34 2.061 . S
Co33 O39 2.052 . S
Co33 O41 2.135 . S
O34 Co33 2.061 . S
O34 C37 1.235 . S
C35 O38 1.238 . S
C35 O39 1.241 . S
C36 O29 1.247 . S
C36 O30 1.261 . S
C37 O32 1.259 . S
C37 O34 1.235 . S
O38 Co28 2.021 . S
O38 C35 1.238 . S
O39 Co33 2.052 . S
O39 C35 1.241 . S
O40 Co28 2.137 . S
O40 C31 1.247 . S
O41 Co28 2.244 . S
O41 C31 1.272 . S
O41 Co33 2.135 . S
Co42 O43 2.216 . S
Co42 O44 2.091 . S
Co42 O46 2.004 . S
Co42 O52 2.021 . S
Co42 O54 2.137 . S
Co42 O55 2.244 . S
O43 Co42 2.216 . S
O43 C50 1.247 . S
O44 Co42 2.091 . S
O44 C50 1.261 . S
C45 O54 1.247 . S
C45 O55 1.272 . S
O46 Co42 2.004 . S
O46 C51 1.259 . S
Co47 O48 2.061 . S
Co47 O53 2.052 . S
Co47 O55 2.135 . S
O48 Co47 2.061 . S
O48 C51 1.235 . S
C49 O52 1.238 . S
C49 O53 1.241 . S
C50 O43 1.247 . S
C50 O44 1.261 . S
C51 O46 1.259 . S
C51 O48 1.235 . S
O52 Co42 2.021 . S
O52 C49 1.238 . S
O53 Co47 2.052 . S
O53 C49 1.241 . S
O54 Co42 2.137 . S
O54 C45 1.247 . S
O55 Co42 2.244 . S
O55 C45 1.272 . S
O55 Co47 2.135 . S
H56 C64 0.929 . S
H57 C66 0.930 . S
H58 C68 0.930 . S
H59 C71 0.929 . S
H60 C74 0.930 . S
H61 C76 0.960 . S
H62 C76 0.960 . S
H63 C76 0.960 . S
C64 H56 0.929 . S
C64 C65 1.377 . S
C64 C66 1.384 . S
C65 C64 1.377 . S
C65 C71 1.390 . S
C66 H57 0.930 . S
C66 C64 1.384 . S
C66 C67 1.372 . S
C67 C66 1.372 . S
C67 C68 1.400 . S
C67 C72 1.490 . S
C68 H58 0.930 . S
C68 C67 1.400 . S
C68 C71 1.386 . S
H69 C85 0.930 . S
H70 C86 0.931 . S
C71 H59 0.929 . S
C71 C65 1.390 . S
C71 C68 1.386 . S
C72 C67 1.490 . S
C72 C74 1.395 . S
C72 C75 1.403 . S
H73 C79 0.930 . S
C74 H60 0.930 . S
C74 C72 1.395 . S
C74 C77 1.403 . S
C75 C72 1.403 . S
C75 C76 1.524 . S
C75 C79 1.400 . S
C76 H61 0.960 . S
C76 H62 0.960 . S
C76 H63 0.960 . S
C76 C75 1.524 . S
C77 C74 1.403 . S
C77 C78 1.392 . S
C77 C81 1.495 . S
C78 C77 1.392 . S
C78 C79 1.385 . S
C78 C80 1.478 . S
C79 H73 0.930 . S
C79 C75 1.400 . S
C79 C78 1.385 . S
C80 C78 1.478 . S
C80 C82 1.381 . S
C80 C86 1.383 . S
C81 C77 1.495 . S
C81 H87 0.959 . S
C81 H88 0.961 . S
C81 H89 0.960 . S
C82 C80 1.381 . S
C82 C83 1.394 . S
C82 H90 0.930 . S
C83 C82 1.394 . S
C83 C84 1.383 . S
C83 H91 0.929 . S
C84 C83 1.383 . S
C84 C85 1.377 . S
C85 H69 0.930 . S
C85 C84 1.377 . S
C85 C86 1.379 . S
C86 H70 0.931 . S
C86 C80 1.383 . S
C86 C85 1.379 . S
H87 C81 0.959 . S
H88 C81 0.961 . S
H89 C81 0.960 . S
H90 C82 0.930 . S
H91 C83 0.929 . S
H92 C100 0.929 . S
H93 C102 0.930 . S
H94 C104 0.930 . S
H95 C107 0.929 . S
H96 C110 0.930 . S
H97 C112 0.960 . S
H98 C112 0.960 . S
H99 C112 0.960 . S
C100 H92 0.929 . S
C100 C101 1.377 . S
C100 C102 1.384 . S
C101 C100 1.377 . S
C101 C107 1.390 . S
C102 H93 0.930 . S
C102 C100 1.384 . S
C102 C103 1.372 . S
C103 C102 1.372 . S
C103 C104 1.400 . S
C103 C108 1.490 . S
C104 H94 0.930 . S
C104 C103 1.400 . S
C104 C107 1.386 . S
H105 C121 0.930 . S
H106 C122 0.931 . S
C107 H95 0.929 . S
C107 C101 1.390 . S
C107 C104 1.386 . S
C108 C103 1.490 . S
C108 C110 1.395 . S
C108 C111 1.403 . S
H109 C115 0.930 . S
C110 H96 0.930 . S
C110 C108 1.395 . S
C110 C113 1.403 . S
C111 C108 1.403 . S
C111 C112 1.524 . S
C111 C115 1.400 . S
C112 H97 0.960 . S
C112 H98 0.960 . S
C112 H99 0.960 . S
C112 C111 1.524 . S
C113 C110 1.403 . S
C113 C114 1.392 . S
C113 C117 1.495 . S
C114 C113 1.392 . S
C114 C115 1.385 . S
C114 C116 1.478 . S
C115 H109 0.930 . S
C115 C111 1.400 . S
C115 C114 1.385 . S
C116 C114 1.478 . S
C116 C118 1.381 . S
C116 C122 1.383 . S
C117 C113 1.495 . S
C117 H123 0.959 . S
C117 H124 0.961 . S
C117 H125 0.960 . S
C118 C116 1.381 . S
C118 C119 1.394 . S
C118 H126 0.930 . S
C119 C118 1.394 . S
C119 C120 1.383 . S
C119 H127 0.929 . S
C120 C119 1.383 . S
C120 C121 1.377 . S
C121 H105 0.930 . S
C121 C120 1.377 . S
C121 C122 1.379 . S
C122 H106 0.931 . S
C122 C116 1.383 . S
C122 C121 1.379 . S
H123 C117 0.959 . S
H124 C117 0.961 . S
H125 C117 0.960 . S
H126 C118 0.930 . S
H127 C119 0.929 . S
H128 C136 0.944 . S
H129 C138 0.930 . S
H130 C140 0.930 . S
H131 C143 0.929 . S
H132 C146 0.930 . S
H133 C148 0.960 . S
H134 C148 0.960 . S
H135 C148 0.960 . S
C136 H128 0.944 . S
C136 C137 1.377 . S
C136 C138 1.384 1_554 S
C137 C136 1.377 . S
C137 C143 1.390 . S
C138 H129 0.930 . S
C138 C136 1.384 1_556 S
C138 C139 1.372 1_556 S
C139 C138 1.372 1_554 S
C139 C140 1.400 . S
C139 C144 1.490 1_554 S
C140 H130 0.930 . S
C140 C139 1.400 . S
C140 C143 1.386 . S
H141 C157 0.930 . S
H142 C158 0.931 . S
C143 H131 0.929 . S
C143 C137 1.390 . S
C143 C140 1.386 . S
C144 C139 1.490 1_556 S
C144 C146 1.395 . S
C144 C147 1.403 1_556 S
H145 C151 0.930 . S
C146 H132 0.930 . S
C146 C144 1.395 . S
C146 C149 1.403 . S
C147 C144 1.403 1_554 S
C147 C148 1.524 . S
C147 C151 1.400 . S
C148 H133 0.960 . S
C148 H134 0.960 . S
C148 H135 0.960 . S
C148 C147 1.524 . S
C149 C146 1.403 . S
C149 C150 1.392 . S
C149 C153 1.495 . S
C150 C149 1.392 . S
C150 C151 1.385 1_556 S
C150 C152 1.478 . S
C151 H145 0.930 . S
C151 C147 1.400 . S
C151 C150 1.385 1_554 S
C152 C150 1.478 . S
C152 C154 1.381 . S
C152 C158 1.383 . S
C153 C149 1.495 . S
C153 H159 0.959 . S
C153 H160 0.961 . S
C153 H161 0.960 . S
C154 C152 1.381 . S
C154 C155 1.394 . S
C154 H162 0.930 . S
C155 C154 1.394 . S
C155 C156 1.383 . S
C155 H163 0.929 . S
C156 C155 1.383 . S
C156 C157 1.377 . S
C157 H141 0.930 . S
C157 C156 1.377 . S
C157 C158 1.379 . S
C158 H142 0.931 . S
C158 C152 1.383 . S
C158 C157 1.379 . S
H159 C153 0.959 . S
H160 C153 0.961 . S
H161 C153 0.960 . S
H162 C154 0.930 . S
H163 C155 0.929 . S
H164 C172 0.929 . S
H165 C174 0.930 . S
H166 C176 0.930 . S
H167 C179 0.929 . S
H168 C182 0.930 . S
H169 C184 0.960 . S
H170 C184 0.960 . S
H171 C184 0.960 . S
C172 H164 0.929 . S
C172 C173 1.377 . S
C172 C174 1.384 . S
C173 C172 1.377 . S
C173 C179 1.390 . S
C174 H165 0.930 . S
C174 C172 1.384 . S
C174 C175 1.372 . S
C175 C174 1.372 . S
C175 C176 1.400 . S
C175 C180 1.490 . S
C176 H166 0.930 . S
C176 C175 1.400 . S
C176 C179 1.386 . S
H177 C193 0.930 . S
H178 C194 0.931 . S
C179 H167 0.929 . S
C179 C173 1.390 . S
C179 C176 1.386 . S
C180 C175 1.490 . S
C180 C182 1.395 . S
C180 C183 1.403 . S
H181 C187 0.930 . S
C182 H168 0.930 . S
C182 C180 1.395 . S
C182 C185 1.403 1_455 S
C183 C180 1.403 . S
C183 C184 1.524 . S
C183 C187 1.400 1_455 S
C184 H169 0.960 . S
C184 H170 0.960 . S
C184 H171 0.960 . S
C184 C183 1.524 . S
C185 C182 1.403 1_655 S
C185 C186 1.392 . S
C185 C189 1.495 . S
C186 C185 1.392 . S
C186 C187 1.385 . S
C186 C188 1.478 . S
C187 H181 0.930 . S
C187 C183 1.400 1_655 S
C187 C186 1.385 . S
C188 C186 1.478 . S
C188 C190 1.381 . S
C188 C194 1.383 . S
C189 C185 1.495 . S
C189 H195 0.959 . S
C189 H196 0.961 . S
C189 H197 0.960 . S
C190 C188 1.381 . S
C190 C191 1.394 . S
C190 H198 0.930 . S
C191 C190 1.394 . S
C191 C192 1.383 . S
C191 H199 0.929 . S
C192 C191 1.383 . S
C192 C193 1.377 . S
C193 H177 0.930 . S
C193 C192 1.377 . S
C193 C194 1.379 . S
C194 H178 0.931 . S
C194 C188 1.383 . S
C194 C193 1.379 . S
H195 C189 0.959 . S
H196 C189 0.961 . S
H197 C189 0.960 . S
H198 C190 0.930 . S
H199 C191 0.929 . S
H200 C208 0.929 . S
H201 C210 0.930 . S
H202 C212 0.930 . S
H203 C215 0.929 . S
H204 C218 0.930 . S
H205 C220 0.960 1_565 S
H206 C220 0.960 . S
H207 C220 0.960 . S
C208 H200 0.929 . S
C208 C209 1.377 . S
C208 C210 1.384 . S
C209 C208 1.377 . S
C209 C215 1.390 . S
C210 H201 0.930 . S
C210 C208 1.384 . S
C210 C211 1.372 . S
C211 C210 1.372 . S
C211 C212 1.400 . S
C211 C216 1.490 . S
C212 H202 0.930 . S
C212 C211 1.400 . S
C212 C215 1.386 . S
H213 C229 0.930 . S
H214 C230 0.931 . S
C215 H203 0.929 . S
C215 C209 1.390 . S
C215 C212 1.386 . S
C216 C211 1.490 . S
C216 C218 1.395 1_556 S
C216 C219 1.403 . S
H217 C223 0.930 . S
C218 H204 0.930 . S
C218 C216 1.395 1_554 S
C218 C221 1.403 1_545 S
C219 C216 1.403 . S
C219 C220 1.524 . S
C219 C223 1.400 1_545 S
C220 H205 0.960 1_545 S
C220 H206 0.960 . S
C220 H207 0.960 . S
C220 C219 1.524 . S
C221 C218 1.403 1_565 S
C221 C222 1.392 . S
C221 C225 1.495 . S
C222 C221 1.392 . S
C222 C223 1.385 1_554 S
C222 C224 1.478 . S
C223 H217 0.930 . S
C223 C219 1.400 1_565 S
C223 C222 1.385 1_556 S
C224 C222 1.478 . S
C224 C226 1.381 . S
C224 C230 1.383 . S
C225 C221 1.495 . S
C225 H231 0.959 1_565 S
C225 H232 0.961 . S
C225 H233 0.960 . S
C226 C224 1.381 . S
C226 C227 1.394 . S
C226 H234 0.930 . S
C227 C226 1.394 . S
C227 C228 1.383 . S
C227 H235 0.929 . S
C228 C227 1.383 . S
C228 C229 1.377 . S
C229 H213 0.930 . S
C229 C228 1.377 . S
C229 C230 1.379 . S
C230 H214 0.931 . S
C230 C224 1.383 . S
C230 C229 1.379 . S
H231 C225 0.959 1_545 S
H232 C225 0.961 . S
H233 C225 0.960 . S
H234 C226 0.930 . S
H235 C227 0.929 . S
H236 C244 0.929 . S
H237 C246 0.930 . S
H238 C248 0.930 . S
H239 C251 0.929 . S
H240 C254 0.930 . S
H241 C256 0.960 . S
H242 C256 0.960 . S
H243 C256 0.960 . S
C244 H236 0.929 . S
C244 C245 1.377 . S
C244 C246 1.384 . S
C245 C244 1.377 . S
C245 C251 1.390 . S
C246 H237 0.930 . S
C246 C244 1.384 . S
C246 C247 1.372 . S
C247 C246 1.372 . S
C247 C248 1.400 . S
C247 C252 1.490 . S
C248 H238 0.930 . S
C248 C247 1.400 . S
C248 C251 1.386 . S
H249 C265 0.930 . S
H250 C266 0.931 . S
C251 H239 0.929 . S
C251 C245 1.390 . S
C251 C248 1.386 . S
C252 C247 1.490 . S
C252 C254 1.395 . S
C252 C255 1.403 . S
H253 C259 0.930 . S
C254 H240 0.930 . S
C254 C252 1.395 . S
C254 C257 1.403 . S
C255 C252 1.403 . S
C255 C256 1.524 . S
C255 C259 1.400 . S
C256 H241 0.960 . S
C256 H242 0.960 . S
C256 H243 0.960 . S
C256 C255 1.524 . S
C257 C254 1.403 . S
C257 C258 1.392 . S
C257 C261 1.495 . S
C258 C257 1.392 . S
C258 C259 1.385 . S
C258 C260 1.478 . S
C259 H253 0.930 . S
C259 C255 1.400 . S
C259 C258 1.385 . S
C260 C258 1.478 . S
C260 C262 1.381 . S
C260 C266 1.383 . S
C261 C257 1.495 . S
C261 H267 0.959 . S
C261 H268 0.961 . S
C261 H269 0.960 . S
C262 C260 1.381 . S
C262 C263 1.394 . S
C262 H270 0.930 . S
C263 C262 1.394 . S
C263 C264 1.383 . S
C263 H271 0.929 . S
C264 C263 1.383 . S
C264 C265 1.377 . S
C265 H249 0.930 . S
C265 C264 1.377 . S
C265 C266 1.379 . S
C266 H250 0.931 . S
C266 C260 1.383 . S
C266 C265 1.379 . S
H267 C261 0.959 . S
H268 C261 0.961 . S
H269 C261 0.960 . S
H270 C262 0.930 . S
H271 C263 0.929 . S
H272 C280 0.929 . S
H273 C282 0.930 . S
H274 C284 0.930 1_556 S
H275 C287 0.929 . S
H276 C290 0.930 . S
H277 C292 0.960 . S
H278 C292 0.960 . S
H279 C292 0.960 . S
C280 H272 0.929 . S
C280 C281 1.377 . S
C280 C282 1.384 . S
C281 C280 1.377 . S
C281 C287 1.390 . S
C282 H273 0.930 . S
C282 C280 1.384 . S
C282 C283 1.372 . S
C283 C282 1.372 . S
C283 C284 1.400 . S
C283 C288 1.490 . S
C284 H274 0.930 1_554 S
C284 C283 1.400 . S
C284 C287 1.386 . S
H285 C301 0.930 . S
H286 C302 0.931 . S
C287 H275 0.929 . S
C287 C281 1.390 . S
C287 C284 1.386 . S
C288 C283 1.490 . S
C288 C290 1.395 . S
C288 C291 1.376 1_554 S
H289 C295 0.930 . S
C290 H276 0.930 . S
C290 C288 1.395 . S
C290 C293 1.403 1_455 S
C291 C288 1.376 1_556 S
C291 C292 1.542 . S
C291 C295 1.409 1_455 S
C292 H277 0.960 . S
C292 H278 0.960 . S
C292 H279 0.960 . S
C292 C291 1.542 . S
C293 C290 1.403 1_655 S
C293 C294 1.392 . S
C293 C297 1.495 . S
C294 C293 1.392 . S
C294 C295 1.385 1_554 S
C294 C296 1.478 1_554 S
C295 H289 0.930 . S
C295 C291 1.409 1_655 S
C295 C294 1.385 1_556 S
C296 C294 1.478 1_556 S
C296 C298 1.381 1_556 S
C296 C302 1.383 . S
C297 C293 1.495 . S
C297 H303 0.959 . S
C297 H304 0.961 . S
C297 H305 0.960 . S
C298 C296 1.381 1_554 S
C298 C299 1.382 1_554 S
C298 H306 0.930 . S
C299 C298 1.382 1_556 S
C299 C300 1.415 . S
C299 H307 0.911 1_556 S
C300 C299 1.415 . S
C300 C301 1.377 . S
C301 H285 0.930 . S
C301 C300 1.377 . S
C301 C302 1.379 . S
C302 H286 0.931 . S
C302 C296 1.383 . S
C302 C301 1.379 . S
H303 C297 0.959 . S
H304 C297 0.961 . S
H305 C297 0.960 . S
H306 C298 0.930 . S
H307 C299 0.911 1_554 S
H308 C316 0.929 . S
H309 C318 0.930 . S
H310 C320 0.930 . S
H311 C323 0.929 . S
H312 C326 0.930 . S
H313 C328 0.960 . S
H314 C328 0.960 . S
H315 C328 0.960 . S
C316 H308 0.929 . S
C316 C317 1.377 . S
C316 C318 1.384 . S
C317 C316 1.377 . S
C317 C323 1.390 . S
C318 H309 0.930 . S
C318 C316 1.384 . S
C318 C319 1.372 . S
C319 C318 1.372 . S
C319 C320 1.400 . S
C319 C324 1.490 . S
C320 H310 0.930 . S
C320 C319 1.400 . S
C320 C323 1.386 . S
H321 C337 0.930 . S
H322 C338 0.931 . S
C323 H311 0.929 . S
C323 C317 1.390 . S
C323 C320 1.386 . S
C324 C319 1.490 . S
C324 C326 1.395 . S
C324 C327 1.403 . S
H325 C331 0.930 . S
C326 H312 0.930 . S
C326 C324 1.395 . S
C326 C329 1.403 1_545 S
C327 C324 1.403 . S
C327 C328 1.524 . S
C327 C331 1.400 1_545 S
C328 H313 0.960 . S
C328 H314 0.960 . S
C328 H315 0.960 . S
C328 C327 1.524 . S
C329 C326 1.403 1_565 S
C329 C330 1.392 . S
C329 C333 1.495 . S
C330 C329 1.392 . S
C330 C331 1.385 . S
C330 C332 1.478 . S
C331 H325 0.930 . S
C331 C327 1.400 1_565 S
C331 C330 1.385 . S
C332 C330 1.478 . S
C332 C334 1.381 . S
C332 C338 1.383 . S
C333 C329 1.495 . S
C333 H339 0.959 . S
C333 H340 0.961 . S
C333 H341 0.960 . S
C334 C332 1.381 . S
C334 C335 1.394 . S
C334 H342 0.930 . S
C335 C334 1.394 . S
C335 C336 1.383 . S
C335 H343 0.929 . S
C336 C335 1.383 . S
C336 C337 1.377 . S
C337 H321 0.930 . S
C337 C336 1.377 . S
C337 C338 1.379 . S
C338 H322 0.931 . S
C338 C332 1.383 . S
C338 C337 1.379 . S
H339 C333 0.959 . S
H340 C333 0.961 . S
H341 C333 0.960 . S
H342 C334 0.930 . S
H343 C335 0.929 . S
C65 C8 1.571 . S
C84 C36 1.552 . S
C101 C22 1.569 . S
C120 C50 1.572 . S
C137 C9 1.536 . S
C156 C49 1.515 . S
C173 C31 1.573 . S
C192 C23 1.558 . S
C209 C45 1.597 . S
C228 C3 1.596 . S
C245 C17 1.572 . S
C264 C37 1.563 . S
C281 C7 1.498 . S
C300 C51 1.529 . S
C317 C21 1.457 . S
C336 C35 1.443 . S
