# Generated by pormake.
# Topology rob, (6)-cn, num edge types: 1
# Building blocks:
#     Node 0, Type 0, BuildingBlock: NUHQIS_clean_sbu_0, # of connection points: 6
#     Node 1, Type 0, BuildingBlock: NUHQIS_clean_sbu_0, # of connection points: 6
#     Node 2, Type 0, BuildingBlock: NUHQIS_clean_sbu_0, # of connection points: 6
#     Node 3, Type 0, BuildingBlock: NUHQIS_clean_sbu_0, # of connection points: 6
#     Edge 4, Type (0, 0), BuildingBlock: MIFKUJ_clean_linker_0, # of connection points: 2
#     Edge 5, Type (0, 0), BuildingBlock: MIFKUJ_clean_linker_0, # of connection points: 2
#     Edge 6, Type (0, 0), BuildingBlock: MIFKUJ_clean_linker_0, # of connection points: 2
#     Edge 7, Type (0, 0), BuildingBlock: MIFKUJ_clean_linker_0, # of connection points: 2
#     Edge 8, Type (0, 0), BuildingBlock: MIFKUJ_clean_linker_0, # of connection points: 2
#     Edge 9, Type (0, 0), BuildingBlock: MIFKUJ_clean_linker_0, # of connection points: 2
#     Edge 10, Type (0, 0), BuildingBlock: MIFKUJ_clean_linker_0, # of connection points: 2
#     Edge 11, Type (0, 0), BuildingBlock: MIFKUJ_clean_linker_0, # of connection points: 2
#     Edge 12, Type (0, 0), BuildingBlock: MIFKUJ_clean_linker_0, # of connection points: 2
#     Edge 13, Type (0, 0), BuildingBlock: MIFKUJ_clean_linker_0, # of connection points: 2
#     Edge 14, Type (0, 0), BuildingBlock: MIFKUJ_clean_linker_0, # of connection points: 2
#     Edge 15, Type (0, 0), BuildingBlock: MIFKUJ_clean_linker_0, # of connection points: 2
# Relax obj value: 0.029
# Max RMSD: 0.122
# Mean RMSD: 0.122
data_MOF--net-rob--node1-NUHQIS_clean_sbu_0--edge1-MIFKUJ_clean_linker_0
_symmetry_space_group_name_H-M    P1
_symmetry_Int_Tables_number       1
_symmetry_cell_setting            triclinic
loop_
_symmetry_equiv_pos_as_xyz
'x, y, z'
_cell_length_a     19.389671
_cell_length_b     34.27389
_cell_length_c     44.673929
_cell_angle_alpha  94.73513
_cell_angle_beta   90.081435
_cell_angle_gamma 89.945463
loop_
_atom_site_label
_atom_site_type_symbol
_atom_site_fract_x
_atom_site_fract_y
_atom_site_fract_z
_atom_type_partial_charge
Tb0 Tb 0.18873 0.25719 0.03848 0.0
Eu1 Eu 0.31636 0.20908 1.00193 0.0
C2 C 0.31509 0.30177 1.01312 0.0
C3 C 0.18699 0.24447 0.96848 0.0
C4 C 0.06802 0.28567 0.10025 0.0
C5 C 0.00414 0.31048 0.14458 0.0
C6 C 0.02497 0.31397 0.11492 0.0
C7 C 0.08942 0.25352 0.11548 0.0
C8 C 0.06875 0.25002 0.14515 0.0
C9 C 0.02627 0.27864 0.1602 0.0
C10 C 0.09495 0.29144 0.07011 0.0
O11 O 0.15414 0.19704 0.02798 0.0
O12 O 0.25745 0.16409 0.02495 0.0
O13 O 0.35286 0.22003 0.04993 0.0
O14 O 0.24649 0.22918 0.0723 0.0
C15 C 0.19025 0.16454 0.02827 0.0
O16 O 0.34952 0.16066 0.97035 0.0
O17 O 0.42423 0.20335 0.9884 0.0
O18 O 0.32748 0.27227 0.99333 0.0
O19 O 0.27294 0.29861 0.03575 0.0
O20 O 0.17588 0.26987 0.99169 0.0
O21 O 0.22651 0.21373 0.97051 0.0
C22 C 0.31338 0.22371 0.07393 0.0
O23 O 0.15862 0.30321 0.06962 0.0
O24 O 0.08322 0.26355 0.04909 0.0
C25 C 0.43461 0.17999 0.93705 0.0
C26 C 0.4679 0.18952 0.87649 0.0
C27 C 0.45784 0.15195 0.88626 0.0
C28 C 0.44156 0.14726 0.91626 0.0
C29 C 0.4451 0.21757 0.92742 0.0
C30 C 0.46211 0.22225 0.89752 0.0
C31 C 0.41158 0.17473 0.96798 0.0
H32 H 0.97223 0.33332 0.15554 0.0
H33 H 0.00863 0.33922 0.10365 0.0
H34 H 0.123 0.23144 0.10457 0.0
H35 H 0.08606 0.22488 0.15629 0.0
H36 H 0.46279 0.12613 0.87072 0.0
H37 H 0.43328 0.11805 0.92314 0.0
H38 H 0.43901 0.24344 0.94283 0.0
H39 H 0.46881 0.2516 0.89068 0.0
Tb40 Tb 0.68451 0.7548 0.03232 0.0
Eu41 Eu 0.8166 0.71156 0.99554 0.0
C42 C 0.81376 0.80264 1.01348 0.0
C43 C 0.68896 0.75096 0.96165 0.0
C44 C 0.56797 0.78377 0.09608 0.0
C45 C 0.52336 0.8168 0.14232 0.0
C46 C 0.54132 0.81739 0.11202 0.0
C47 C 0.57693 0.74954 0.11096 0.0
C48 C 0.55831 0.74881 0.14115 0.0
C49 C 0.53127 0.78243 0.15716 0.0
C50 C 0.58736 0.78503 0.06424 0.0
O51 O 0.6508 0.69738 1.01347 0.0
O52 O 0.7533 0.66461 1.01425 0.0
O53 O 0.84891 0.71974 0.04424 0.0
O54 O 0.74087 0.72434 0.06551 0.0
C55 C 0.68578 0.66463 1.01385 0.0
O56 O 0.85396 0.66341 0.96475 0.0
O57 O 0.92521 0.70811 0.98273 0.0
O58 O 0.82738 0.77597 0.99158 0.0
O59 O 0.77035 0.7959 0.03499 0.0
O60 O 0.67003 0.7713 0.98661 0.0
O61 O 0.73507 0.72276 0.96137 0.0
C62 C 0.80807 0.72011 0.06777 0.0
O63 O 0.64459 0.80305 0.05916 0.0
O64 O 0.5821 0.75238 0.04734 0.0
C65 C 0.94215 0.6814 0.93249 0.0
C66 C 0.98539 0.68584 0.8725 0.0
C67 C 0.98317 0.64962 0.88515 0.0
C68 C 0.96193 0.64747 0.91489 0.0
C69 C 0.94435 0.71767 0.91997 0.0
C70 C 0.96619 0.71988 0.89031 0.0
C71 C 0.91571 0.67812 0.96314 0.0
H72 H 0.50226 0.84306 0.15403 0.0
H73 H 0.53436 0.84413 0.10101 0.0
H74 H 0.59836 0.72334 0.09927 0.0
H75 H 0.56583 0.72208 0.15209 0.0
H76 H 0.99813 0.62294 0.87207 0.0
H77 H 0.96015 0.61919 0.92406 0.0
H78 H 0.92831 0.74422 0.93295 0.0
H79 H 0.9665 0.74813 0.88108 0.0
Tb80 Tb 0.1858 0.72724 0.49793 0.0
Eu81 Eu 0.31034 0.77695 0.53501 0.0
C82 C 0.31579 0.6853 0.52215 0.0
C83 C 0.1836 0.73867 0.56817 0.0
C84 C 0.07457 0.69441 0.43343 0.0
C85 C 0.06605 0.66487 0.38204 0.0
C86 C 0.08178 0.66192 0.41236 0.0
C87 C 0.05039 0.72991 0.4236 0.0
C88 C 0.03399 0.73276 0.39331 0.0
C89 C 0.0421 0.70035 0.37214 0.0
C90 C 0.09634 0.69122 0.46497 0.0
O91 O 0.14699 0.78644 0.50921 0.0
O92 O 0.24836 0.82111 0.51239 0.0
O93 O 0.34733 0.76748 0.48698 0.0
O94 O 0.24117 0.75703 0.46444 0.0
C95 C 0.18114 0.81962 0.50931 0.0
O96 O 0.34068 0.82663 0.56595 0.0
O97 O 0.41702 0.78342 0.55033 0.0
O98 O 0.32293 0.71373 0.54331 0.0
O99 O 0.27599 0.68942 0.49885 0.0
O100 O 0.17198 0.71389 0.54457 0.0
O101 O 0.2215 0.77003 0.56623 0.0
C102 C 0.30779 0.76352 0.46294 0.0
O103 O 0.15887 0.67863 0.46845 0.0
O104 O 0.08196 0.72038 0.48457 0.0
C105 C 0.42268 0.80911 0.60147 0.0
C106 C 0.45247 0.80241 0.66283 0.0
C107 C 0.43568 0.83893 0.65254 0.0
C108 C 0.42122 0.84224 0.62215 0.0
C109 C 0.43929 0.77254 0.61173 0.0
C110 C 0.45449 0.7693 0.64204 0.0
C111 C 0.40242 0.81277 0.56987 0.0
H112 H 0.0721 0.63926 0.36637 0.0
H113 H 0.10049 0.63426 0.41932 0.0
H114 H 0.04498 0.75567 0.43917 0.0
H115 H 0.01627 0.7606 0.38634 0.0
H116 H 0.43447 0.86504 0.66794 0.0
H117 H 0.40812 0.87069 0.61482 0.0
H118 H 0.43983 0.7463 0.59645 0.0
H119 H 0.46682 0.74074 0.64928 0.0
Tb120 Tb 0.68284 0.23311 0.50469 0.0
Eu121 Eu 0.81799 0.27364 0.53997 0.0
C122 C 0.80836 0.18286 0.5233 0.0
C123 C 0.68745 0.24023 0.57495 0.0
C124 C 0.56409 0.20535 0.44181 0.0
C125 C 0.53072 0.17117 0.39414 0.0
C126 C 0.54653 0.17064 0.42466 0.0
C127 C 0.56563 0.2407 0.42793 0.0
C128 C 0.54902 0.24131 0.39751 0.0
C129 C 0.53158 0.20654 0.3803 0.0
C130 C 0.58362 0.20392 0.47364 0.0
O131 O 0.65402 0.29198 0.52238 0.0
O132 O 0.75894 0.3219 0.52046 0.0
O133 O 0.84829 0.26353 0.49099 0.0
O134 O 0.73885 0.26269 0.47105 0.0
C135 C 0.69141 0.32372 0.52096 0.0
O136 O 0.86112 0.32126 0.56959 0.0
O137 O 0.92615 0.27255 0.55377 0.0
O138 O 0.82229 0.20929 0.54529 0.0
O139 O 0.76657 0.19063 0.50146 0.0
O140 O 0.66934 0.21805 0.55077 0.0
O141 O 0.73384 0.26803 0.57399 0.0
C142 C 0.80613 0.26491 0.46794 0.0
O143 O 0.64028 0.18515 0.47852 0.0
O144 O 0.5797 0.23656 0.49065 0.0
C145 C 0.94135 0.29911 0.60377 0.0
C146 C 0.97877 0.29246 0.66433 0.0
C147 C 0.01619 0.31694 0.64641 0.0
C148 C 0.99759 0.32022 0.61639 0.0
C149 C 0.904 0.27455 0.62145 0.0
C150 C 0.92251 0.27124 0.65141 0.0
C151 C 0.92004 0.3036 0.57257 0.0
H152 H 0.517 0.14399 0.38142 0.0
H153 H 0.54552 0.14304 0.43486 0.0
H154 H 0.58014 0.26786 0.44048 0.0
H155 H 0.55084 0.2689 0.38732 0.0
H156 H 0.06022 0.33336 0.65551 0.0
H157 H 0.02692 0.33938 0.60309 0.0
H158 H 0.86002 0.25822 0.61215 0.0
H159 H 0.89189 0.25261 0.66459 0.0
H160 H 0.54994 0.65318 0.02629 0.0
H161 H 0.48755 0.591 0.0243 0.0
H162 H 0.67317 0.52913 0.99614 0.0
H163 H 0.73639 0.5912 0.9984 0.0
H164 H 0.54879 0.50639 0.96207 0.0
H165 H 0.63262 0.52524 0.0641 0.0
H166 H 0.64916 0.56299 0.113 0.0
H167 H 0.42973 0.57085 0.12495 0.0
H168 H 0.4119 0.53362 0.07587 0.0
H169 H 0.43641 0.3137 0.98429 0.0
H170 H 0.49946 0.37518 0.9828 0.0
H171 H 0.33723 0.43605 0.03373 0.0
H172 H 0.27582 0.37428 0.03657 0.0
H173 H 0.45199 0.45991 0.05553 0.0
H174 H 0.36458 0.44154 0.95488 0.0
H175 H 0.34416 0.40644 0.9052 0.0
H176 H 0.56235 0.4005 0.88921 0.0
H177 H 0.58417 0.435 0.93898 0.0
C178 C 0.57752 0.62637 0.01962 0.0
C179 C 0.64815 0.62705 1.01261 0.0
C180 C 0.54181 0.59092 0.01852 0.0
C181 C 0.57591 0.5556 1.01012 0.0
C182 C 0.64607 0.55617 1.00262 0.0
C183 C 0.68212 0.59159 1.00412 0.0
C184 C 0.53848 0.51801 1.00992 0.0
C185 C 0.5282 0.49583 0.98248 0.0
C186 C 0.51029 0.50504 0.03649 0.0
C187 C 0.52094 0.52697 0.06619 0.0
C188 C 0.5879 0.53528 0.07705 0.0
C189 C 0.59751 0.55654 0.10481 0.0
C190 C 0.54053 0.56941 0.12203 0.0
C191 C 0.47382 0.56091 0.11156 0.0
C192 C 0.46393 0.5397 0.08379 0.0
C193 C 0.41402 0.34027 0.99499 0.0
C194 C 0.35124 0.33923 1.01057 0.0
C195 C 0.44994 0.37547 0.99399 0.0
C196 C 0.42275 0.41049 1.00779 0.0
C197 C 0.35944 0.40947 0.02296 0.0
C198 C 0.32427 0.37417 0.02452 0.0
C199 C 0.46134 0.44794 1.00751 0.0
C200 C 0.47212 0.47023 0.03496 0.0
C201 C 0.48912 0.46122 0.98081 0.0
C202 C 0.47603 0.44057 0.9508 0.0
C203 C 0.40824 0.4325 0.94087 0.0
C204 C 0.3964 0.41273 0.91268 0.0
C205 C 0.45194 0.40121 0.8941 0.0
C206 C 0.5194 0.40942 0.90365 0.0
C207 C 0.53153 0.4291 0.93183 0.0
H208 H 0.44275 0.38603 0.87226 0.0
H209 H 0.54807 0.58588 0.14351 0.0
H210 H 0.40012 0.66509 0.56765 0.0
H211 H 0.4699 0.60575 0.56902 0.0
H212 H 0.39226 0.56368 0.48175 0.0
H213 H 0.3228 0.62289 0.48004 0.0
H214 H 0.43483 0.52891 0.56695 0.0
H215 H 0.52221 0.51608 0.44243 0.0
H216 H 0.54561 0.55937 0.40216 0.0
H217 H 0.59175 0.65416 0.46804 0.0
H218 H 0.56968 0.61129 0.50868 0.0
H219 H 0.55288 0.33837 0.52246 0.0
H220 H 0.49515 0.40178 0.52432 0.0
H221 H 0.69228 0.45973 0.52248 0.0
H222 H 0.75075 0.39624 0.52028 0.0
H223 H 0.60102 0.49067 0.4853 0.0
H224 H 0.60532 0.45933 0.58757 0.0
H225 H 0.58705 0.41797 0.62947 0.0
H226 H 0.36925 0.41607 0.61193 0.0
H227 H 0.38633 0.45696 0.56961 0.0
C228 C 0.3978 0.64321 0.54875 0.0
C229 C 0.35613 0.64883 0.52365 0.0
C230 C 0.4376 0.60928 0.54962 0.0
C231 C 0.43687 0.58057 0.52534 0.0
C232 C 0.39437 0.58577 0.50053 0.0
C233 C 0.35445 0.61958 0.49966 0.0
C234 C 0.48049 0.54509 0.52584 0.0
C235 C 0.47126 0.52057 0.54914 0.0
C236 C 0.52898 0.53466 0.50289 0.0
C237 C 0.54366 0.56052 0.4786 0.0
C238 C 0.53769 0.5461 0.44832 0.0
C239 C 0.55066 0.57057 0.42543 0.0
C240 C 0.56995 0.60951 0.43254 0.0
C241 C 0.57657 0.62402 0.46256 0.0
C242 C 0.56376 0.59966 0.48554 0.0
C243 C 0.58414 0.36454 0.52243 0.0
C244 C 0.65654 0.36221 0.52139 0.0
C245 C 0.55097 0.4008 0.5236 0.0
C246 C 0.58945 0.43549 0.52395 0.0
C247 C 0.66164 0.43329 0.52233 0.0
C248 C 0.69495 0.39698 0.52114 0.0
C249 C 0.55405 0.47399 0.526 0.0
C250 C 0.56481 0.49908 0.50318 0.0
C251 C 0.50777 0.48526 0.54965 0.0
C252 C 0.4972 0.46097 0.57527 0.0
C253 C 0.55358 0.44988 0.59252 0.0
C254 C 0.54343 0.42655 0.61636 0.0
C255 C 0.47705 0.41434 0.62332 0.0
C256 C 0.42065 0.42553 0.6065 0.0
C257 C 0.43052 0.44882 0.5826 0.0
H258 H 0.4693 0.39626 0.64178 0.0
H259 H 0.57988 0.6284 0.41478 0.0
H260 H 0.23652 0.09099 1.01058 0.0
H261 H 0.17196 0.0296 1.00987 0.0
H262 H 0.99679 0.09176 0.04949 0.0
H263 H 0.06059 0.15352 0.04988 0.0
H264 H 0.03404 0.0171 0.07471 0.0
H265 H 0.98629 0.07245 0.98061 0.0
H266 H 0.01986 0.10074 0.93378 0.0
H267 H 0.13061 -0.00436 0.90532 0.0
H268 H 0.09863 0.96698 0.95225 0.0
H269 H 0.78047 0.87056 0.0466 0.0
H270 H 0.84418 0.93221 0.05026 0.0
H271 H 0.99675 0.88106 0.98857 0.0
H272 H 0.93175 0.81983 0.9839 0.0
H273 H 0.9719 0.95114 0.97525 0.0
H274 H 0.02324 0.89442 0.06694 0.0
H275 H 0.99803 0.86472 0.11416 0.0
H276 H 0.89128 0.96905 0.14781 0.0
H277 H 0.91502 -0.00082 0.1006 0.0
C278 C 0.18453 0.09158 0.01944 0.0
C279 C 0.15344 0.1271 0.03013 0.0
C280 C 0.14774 0.05652 0.01895 0.0
C281 C 0.07965 0.05633 0.02948 0.0
C282 C 0.04934 0.09144 0.04127 0.0
C283 C 0.08572 0.12664 0.04133 0.0
C284 C 0.03907 0.01971 0.02682 0.0
C285 C 0.01955 0.00281 0.05303 0.0
C286 C 0.02217 0.00074 0.99848 0.0
C287 C 0.04065 0.01773 0.97008 0.0
C288 C 0.01829 0.0555 0.96448 0.0
C289 C 0.03695 0.07158 0.9379 0.0
C290 C 0.07749 0.05004 0.91662 0.0
C291 C 0.09928 0.01232 0.92184 0.0
C292 C 0.08087 -0.00387 0.94842 0.0
C293 C 0.82753 0.87248 0.03377 0.0
C294 C 0.85124 0.84029 1.01506 0.0
C295 C 0.86416 0.90769 0.03602 0.0
C296 C 0.92609 0.91112 0.02015 0.0
C297 C 0.94923 0.87915 1.00109 0.0
C298 C 0.91203 0.84413 0.99846 0.0
C299 C 0.96652 0.94807 0.02322 0.0
C300 C 0.98615 0.96518 0.99703 0.0
C301 C 0.98448 0.96687 0.05163 0.0
C302 C 0.97033 0.9489 0.08011 0.0
C303 C 0.99395 0.91092 0.08432 0.0
C304 C 0.97999 0.89403 0.11109 0.0
C305 C 0.94292 0.91495 0.13393 0.0
C306 C 0.9199 0.95286 0.13008 0.0
C307 C 0.93364 0.96987 0.10333 0.0
H308 H 0.93217 0.90182 0.15465 0.0
H309 H 0.0919 0.06255 0.89606 0.0
H310 H 0.77076 0.11505 0.49107 0.0
H311 H 0.83219 0.0523 0.48755 0.0
H312 H 0.98832 0.10186 0.54807 0.0
H313 H 0.92667 0.16446 0.55222 0.0
H314 H 0.03698 0.05967 0.4917 0.0
H315 H 0.88586 0.04564 0.57627 0.0
H316 H 0.77284 0.0462 0.60153 0.0
H317 H 0.69983 0.95645 0.53644 0.0
H318 H 0.81218 0.9558 0.51051 0.0
H319 H 0.22521 0.89361 0.52653 0.0
H320 H 0.15956 0.9543 0.52688 0.0
H321 H 0.98442 0.89035 0.48863 0.0
H322 H 0.04923 0.82911 0.48935 0.0
H323 H 0.9417 0.93974 0.53108 0.0
H324 H 0.089 0.95027 0.44693 0.0
H325 H 0.19836 0.94954 0.4188 0.0
H326 H 0.2743 0.04491 0.47809 0.0
H327 H 0.16573 0.04587 0.50686 0.0
C328 C 0.81801 0.11252 0.50373 0.0
C329 C 0.84389 0.14463 0.52195 0.0
C330 C 0.8529 0.07671 0.50172 0.0
C331 C 0.91465 0.07262 0.51754 0.0
C332 C 0.94072 0.10458 0.53568 0.0
C333 C 0.90526 0.1402 0.53813 0.0
C334 C 0.9525 0.03505 0.51494 0.0
C335 C 0.01675 0.03347 0.50057 0.0
C336 C 0.92456 0.00077 0.5256 0.0
C337 C 0.85715 0.001 0.54126 0.0
C338 C 0.84549 0.0263 0.56717 0.0
C339 C 0.7816 0.02657 0.58165 0.0
C340 C 0.72911 0.00146 0.57055 0.0
C341 C 0.74049 0.97593 0.54499 0.0
C342 C 0.80428 0.97558 0.53041 0.0
C343 C 0.17291 0.89247 0.51794 0.0
C344 C 0.14244 0.85658 0.50783 0.0
C345 C 0.13546 0.92727 0.51804 0.0
C346 C 0.06729 0.92709 0.50733 0.0
C347 C 0.03692 0.89127 0.49699 0.0
C348 C 0.07405 0.85631 0.49734 0.0
C349 C 0.02713 0.96412 0.50799 0.0
C350 C 0.9622 0.96572 0.52198 0.0
C351 C 0.05401 -0.00169 0.4965 0.0
C352 C 0.1194 -0.00209 0.47921 0.0
C353 C 0.1292 0.9709 0.45411 0.0
C354 C 0.19103 0.97048 0.43803 0.0
C355 C 0.24331 -0.0029 0.44669 0.0
C356 C 0.23379 0.02428 0.47142 0.0
C357 C 0.17208 0.0248 0.48761 0.0
H358 H 0.29113 -0.00327 0.43421 0.0
H359 H 0.67969 0.0017 0.58179 0.0
H360 H 0.44323 0.25625 0.35487 0.0
H361 H 0.41201 0.25673 0.30176 0.0
H362 H 0.54867 0.15922 0.27982 0.0
H363 H 0.58004 0.15855 0.33304 0.0
H364 H 0.55947 0.22047 0.24087 0.0
H365 H 0.3839 0.14163 0.28272 0.0
H366 H 0.29266 0.12779 0.31874 0.0
H367 H 0.1757 0.22604 0.29286 0.0
H368 H 0.26673 0.24081 0.25697 0.0
H369 H 0.42983 0.18441 0.09005 0.0
H370 H 0.47358 0.17896 0.14117 0.0
H371 H 0.31007 0.255 0.17653 0.0
H372 H 0.26465 0.25868 0.12612 0.0
H373 H 0.31674 0.19909 0.20876 0.0
H374 H 0.48944 0.28179 0.16967 0.0
H375 H 0.58165 0.3012 0.13598 0.0
H376 H 0.70445 0.2033 0.15819 0.0
H377 H 0.61236 0.18284 0.19154 0.0
C378 C 0.46686 0.23506 0.33869 0.0
C379 C 0.51379 0.20724 0.34805 0.0
C380 C 0.44876 0.23524 0.30843 0.0
C381 C 0.47758 0.20777 0.28695 0.0
C382 C 0.52566 0.18052 0.2961 0.0
C383 C 0.54317 0.18002 0.32646 0.0
C384 C 0.45681 0.20736 0.25499 0.0
C385 C 0.50671 0.21518 0.23361 0.0
C386 C 0.3875 0.20155 0.24589 0.0
C387 C 0.33251 0.19254 0.26736 0.0
C388 C 0.33901 0.16048 0.28488 0.0
C389 C 0.28726 0.15243 0.30524 0.0
C390 C 0.22849 0.17607 0.30813 0.0
C391 C 0.22126 0.20777 0.29061 0.0
C392 C 0.27291 0.21597 0.27024 0.0
C393 C 0.40364 0.20001 0.10881 0.0
C394 C 0.34362 0.22171 0.10415 0.0
C395 C 0.42883 0.1971 0.13801 0.0
C396 C 0.39548 0.21678 0.16287 0.0
C397 C 0.33654 0.23921 0.15791 0.0
C398 C 0.31062 0.24137 0.129 0.0
C399 C 0.41927 0.21309 0.19425 0.0
C400 C 0.36983 0.20424 0.21569 0.0
C401 C 0.48887 0.21869 0.20343 0.0
C402 C 0.5435 0.23044 0.18276 0.0
C403 C 0.5357 0.2641 0.16706 0.0
C404 C 0.58803 0.27534 0.14807 0.0
C405 C 0.64874 0.2534 0.14484 0.0
C406 C 0.65728 0.22018 0.16061 0.0
C407 C 0.605 0.20872 0.17953 0.0
H408 H 0.68926 0.26223 0.13019 0.0
H409 H 0.18849 0.16978 0.3239 0.0
H410 H 0.45542 0.72662 0.18246 0.0
H411 H 0.42086 0.72543 0.23512 0.0
H412 H 0.52646 0.83481 0.25679 0.0
H413 H 0.56119 0.83619 0.2041 0.0
H414 H 0.55366 0.77656 0.29728 0.0
H415 H 0.35815 0.836 0.25092 0.0
H416 H 0.26311 0.83992 0.21453 0.0
H417 H 0.17597 0.73398 0.24303 0.0
H418 H 0.27091 0.72916 0.27932 0.0
H419 H 0.4146 0.8095 0.44587 0.0
H420 H 0.45676 0.81494 0.39456 0.0
H421 H 0.31249 0.72557 0.36134 0.0
H422 H 0.26782 0.72206 0.41191 0.0
H423 H 0.30697 0.77777 0.32638 0.0
H424 H 0.49744 0.71228 0.36897 0.0
H425 H 0.59068 0.70251 0.40521 0.0
H426 H 0.68714 0.80917 0.38325 0.0
H427 H 0.59385 0.81992 0.3472 0.0
C428 C 0.47153 0.75031 0.19848 0.0
C429 C 0.51088 0.78154 0.18916 0.0
C430 C 0.45143 0.74971 0.22849 0.0
C431 C 0.47071 0.78018 0.2498 0.0
C432 C 0.5109 0.81109 0.24067 0.0
C433 C 0.53033 0.81195 0.21058 0.0
C434 C 0.44895 0.77967 0.2816 0.0
C435 C 0.49977 0.7773 0.30381 0.0
C436 C 0.3786 0.77941 0.28987 0.0
C437 C 0.32215 0.78201 0.26762 0.0
C438 C 0.31917 0.81331 0.2492 0.0
C439 C 0.26515 0.81576 0.22865 0.0
C440 C 0.2136 0.78719 0.22643 0.0
C441 C 0.21596 0.75608 0.24474 0.0
C442 C 0.26982 0.7535 0.26532 0.0
C443 C 0.39238 0.79099 0.42752 0.0
C444 C 0.33779 0.76556 0.43276 0.0
C445 C 0.41668 0.79389 0.39822 0.0
C446 C 0.38834 0.77042 0.37388 0.0
C447 C 0.335 0.7443 0.37949 0.0
C448 C 0.30957 0.74222 0.40847 0.0
C449 C 0.41158 0.77373 0.34236 0.0
C450 C 0.36101 0.77689 0.32009 0.0
C451 C 0.48208 0.77351 0.33396 0.0
C452 C 0.53822 0.76713 0.35564 0.0
C453 C 0.53823 0.73382 0.37205 0.0
C454 C 0.59114 0.72807 0.39252 0.0
C455 C 0.6447 0.75525 0.39658 0.0
C456 C 0.64554 0.78818 0.38012 0.0
C457 C 0.59268 0.79412 0.35966 0.0
H458 H 0.68563 0.75073 0.41243 0.0
H459 H 0.17172 0.7892 0.21058 0.0
H460 H 0.5713 0.79305 0.95152 0.0
H461 H 0.52151 0.80623 0.90274 0.0
H462 H 0.68817 0.7425 0.85737 0.0
H463 H 0.7378 0.72912 0.90561 0.0
H464 H 0.66303 0.81327 0.83433 0.0
H465 H 0.53468 0.70092 0.86205 0.0
H466 H 0.45921 0.66474 0.89444 0.0
H467 H 0.29937 0.75027 0.88721 0.0
H468 H 0.3744 0.78733 0.85514 0.0
H469 H 0.55828 0.76174 0.68608 0.0
H470 H 0.58806 0.75777 0.73895 0.0
H471 H 0.41415 0.83109 0.76543 0.0
H472 H 0.38381 0.83516 0.71238 0.0
H473 H 0.43301 0.76395 0.8003 0.0
H474 H 0.5585 0.8735 0.76887 0.0
H475 H 0.63386 0.90801 0.73532 0.0
H476 H 0.79824 0.82742 0.74938 0.0
H477 H 0.72312 0.79224 0.78276 0.0
C478 C 0.59733 0.78193 0.93113 0.0
C479 C 0.6584 0.75991 0.9325 0.0
C480 C 0.56868 0.78934 0.9033 0.0
C481 C 0.60099 0.77518 0.87642 0.0
C482 C 0.66235 0.75371 0.87781 0.0
C483 C 0.69049 0.74594 0.90547 0.0
C484 C 0.5718 0.78261 0.84662 0.0
C485 C 0.61281 0.80238 0.8269 0.0
C486 C 0.50547 0.76934 0.83717 0.0
C487 C 0.46051 0.7472 0.85656 0.0
C488 C 0.48373 0.71226 0.86764 0.0
C489 C 0.44098 0.69153 0.88588 0.0
C490 C 0.37463 0.70528 0.89298 0.0
C491 C 0.35085 0.73972 0.88177 0.0
C492 C 0.39346 0.7606 0.86356 0.0
C493 C 0.52594 0.77673 0.70313 0.0
C494 C 0.46895 0.79897 0.69504 0.0
C495 C 0.54317 0.77455 0.73332 0.0
C496 C 0.50357 0.79436 0.75608 0.0
C497 C 0.44545 0.81569 0.74819 0.0
C498 C 0.42859 0.81826 0.71791 0.0
C499 C 0.52506 0.79377 0.78794 0.0
C500 C 0.48268 0.7754 0.80798 0.0
C501 C 0.59006 0.80844 0.79781 0.0
C502 C 0.63525 0.83001 0.77808 0.0
C503 C 0.61056 0.86298 0.76463 0.0
C504 C 0.65319 0.88272 0.74569 0.0
C505 C 0.72077 0.86988 0.74017 0.0
C506 C 0.74589 0.83735 0.75365 0.0
C507 C 0.70339 0.81754 0.7726 0.0
H508 H 0.75369 0.88518 0.72548 0.0
H509 H 0.34158 0.68917 0.90708 0.0
H510 H 0.71492 0.2801 0.629 0.0
H511 H 0.66737 0.26905 0.67789 0.0
H512 H 0.54141 0.17527 0.63757 0.0
H513 H 0.58851 0.18639 0.58794 0.0
H514 H 0.47158 0.2262 0.6829 0.0
H515 H 0.67789 0.14481 0.67525 0.0
H516 H 0.80058 0.13181 0.66333 0.0
H517 H 0.85955 0.23016 0.72379 0.0
H518 H 0.73717 0.24441 0.73493 0.0
H519 H 0.40896 0.15188 0.82632 0.0
H520 H 0.43737 0.15906 0.77369 0.0
H521 H 0.58945 0.24647 0.80153 0.0
H522 H 0.56238 0.2388 0.85416 0.0
H523 H 0.64094 0.19306 0.7603 0.0
H524 H 0.43492 0.27232 0.77034 0.0
H525 H 0.31276 0.28612 0.78229 0.0
H526 H 0.25044 0.19316 0.71767 0.0
H527 H 0.37234 0.17891 0.70517 0.0
C528 C 0.67684 0.2572 0.63029 0.0
C529 C 0.65593 0.23394 0.60444 0.0
C530 C 0.64973 0.25092 0.65836 0.0
C531 C 0.6014 0.2211 0.66141 0.0
C532 C 0.57872 0.19844 0.63567 0.0
C533 C 0.60594 0.20472 0.60738 0.0
C534 C 0.5778 0.2129 0.69185 0.0
C535 C 0.50818 0.21825 0.69975 0.0
C536 C 0.62567 0.20319 0.71389 0.0
C537 C 0.69891 0.19521 0.70641 0.0
C538 C 0.71721 0.16366 0.68588 0.0
C539 C 0.78662 0.15617 0.67913 0.0
C540 C 0.838 0.17999 0.69289 0.0
C541 C 0.81999 0.21157 0.71319 0.0
C542 C 0.75069 0.21934 0.71977 0.0
C543 C 0.44869 0.17249 0.82122 0.0
C544 C 0.48373 0.1946 0.84445 0.0
C545 C 0.46431 0.17689 0.79112 0.0
C546 C 0.51518 0.20353 0.78362 0.0
C547 C 0.54988 0.22581 0.80676 0.0
C548 C 0.53411 0.22154 0.83684 0.0
C549 C 0.53467 0.20703 0.75178 0.0
C550 C 0.60381 0.20068 0.74354 0.0
C551 C 0.48604 0.21575 0.72955 0.0
C552 C 0.41277 0.22427 0.73704 0.0
C553 C 0.39519 0.25463 0.75883 0.0
C554 C 0.32599 0.26257 0.76568 0.0
C555 C 0.27388 0.24032 0.75095 0.0
C556 C 0.29087 0.21029 0.72913 0.0
C557 C 0.35999 0.20236 0.72207 0.0
H558 H 0.22036 0.24642 0.75633 0.0
H559 H 0.89168 0.17402 0.68775 0.0
H560 H 0.93904 0.69697 0.08223 0.0
H561 H 0.98815 0.6936 0.13263 0.0
H562 H 0.79479 0.7329 0.17203 0.0
H563 H 0.74514 0.73594 0.12204 0.0
H564 H 0.9127 0.77365 0.19672 0.0
H565 H 0.83347 0.64043 0.17166 0.0
H566 H 0.82941 0.57794 0.1401 0.0
H567 H 0.04791 0.56383 0.15086 0.0
H568 H 0.05338 0.62655 0.18216 0.0
H569 H 0.92911 0.73453 0.34856 0.0
H570 H 0.90022 0.73859 0.29567 0.0
H571 H 0.0884 0.67765 0.2697 0.0
H572 H 0.117 0.67298 0.32274 0.0
H573 H 0.98715 0.64898 0.23586 0.0
H574 H 0.07009 0.77675 0.26289 0.0
H575 H 0.08235 0.84014 0.29269 0.0
H576 H 0.8697 0.86656 0.27644 0.0
H577 H 0.85601 0.80308 0.24676 0.0
C578 C 0.90689 0.70472 0.10162 0.0
C579 C 0.83805 0.71657 0.09804 0.0
C580 C 0.93503 0.70275 0.13039 0.0
C581 C 0.89507 0.713 0.15606 0.0
C582 C 0.82656 0.72495 0.15253 0.0
C583 C 0.79817 0.72643 0.12388 0.0
C584 C 0.92422 0.71151 0.18672 0.0
C585 C 0.92843 0.74638 0.20543 0.0
C586 C 0.94736 0.67616 0.1976 0.0
C587 C 0.94395 0.63837 0.17896 0.0
C588 C 0.88074 0.62416 0.16708 0.0
C589 C 0.87816 0.58867 0.14929 0.0
C590 C 0.9384 0.56698 0.1434 0.0
C591 C 0.00131 0.58069 0.15539 0.0
C592 C 0.00417 0.61619 0.17317 0.0
C593 C 0.96466 0.72232 0.3316 0.0
C594 C 0.02537 0.70348 0.33987 0.0
C595 C 0.94818 0.7247 0.30132 0.0
C596 C 0.99251 0.70887 0.27857 0.0
C597 C 0.05326 0.69004 0.28677 0.0
C598 C 0.0695 0.68734 0.3171 0.0
C599 C 0.97412 0.7111 0.24633 0.0
C600 C 0.97208 0.67641 0.22723 0.0
C601 C 0.95417 0.74678 0.23488 0.0
C602 C 0.96194 0.78499 0.25277 0.0
C603 C 0.02584 0.79595 0.26582 0.0
C604 C 0.03306 0.83193 0.28267 0.0
C605 C 0.97679 0.85733 0.28652 0.0
C606 C 0.91323 0.84683 0.27345 0.0
C607 C 0.90574 0.81088 0.25657 0.0
H608 H 0.98246 0.88518 0.29957 0.0
H609 H 0.9363 0.53951 0.12962 0.0
H610 H 0.93904 0.25267 0.44785 0.0
H611 H 0.98123 0.2536 0.39625 0.0
H612 H 0.77843 0.28655 0.36734 0.0
H613 H 0.73565 0.28438 0.4184 0.0
H614 H 0.82496 0.23222 0.3296 0.0
H615 H 0.92103 0.35215 0.37571 0.0
H616 H 0.98923 0.39304 0.41288 0.0
H617 H 0.17182 0.32792 0.38679 0.0
H618 H 0.1045 0.28631 0.34971 0.0
H619 H 0.90094 0.29556 0.18663 0.0
H620 H 0.869 0.29238 0.23923 0.0
H621 H 0.073 0.25103 0.25881 0.0
H622 H 0.1062 0.2555 0.20639 0.0
H623 H 0.03161 0.30593 0.3013 0.0
H624 H 0.93459 0.18856 0.25284 0.0
H625 H 0.86554 0.14968 0.21479 0.0
H626 H 0.6829 0.21187 0.24493 0.0
H627 H 0.75092 0.25153 0.28289 0.0
C628 C 0.90366 0.26049 0.43054 0.0
C629 C 0.834 0.2685 0.43733 0.0
C630 C 0.92788 0.2611 0.401 0.0
C631 C 0.88324 0.27047 0.37777 0.0
C632 C 0.81397 0.27908 0.38471 0.0
C633 C 0.78961 0.27798 0.41405 0.0
C634 C 0.9075 0.27031 0.34605 0.0
C635 C 0.86969 0.24877 0.32345 0.0
C636 C 0.96706 0.29089 0.33789 0.0
C637 C 0.00757 0.31585 0.36018 0.0
C638 C 0.97561 0.34635 0.37807 0.0
C639 C 0.01413 0.36969 0.39909 0.0
C640 C 0.08477 0.363 0.40226 0.0
C641 C 0.11708 0.33302 0.38435 0.0
C642 C 0.07878 0.30957 0.36332 0.0
C643 C 0.93926 0.28605 0.20213 0.0
C644 C 0.00614 0.27571 0.19217 0.0
C645 C 0.92068 0.28387 0.23219 0.0
C646 C 0.96829 0.27098 0.25298 0.0
C647 C 0.03525 0.26089 0.2432 0.0
C648 C 0.05393 0.26311 0.21312 0.0
C649 C 0.94827 0.26849 0.28495 0.0
C650 C 0.98701 0.28933 0.30755 0.0
C651 C 0.88932 0.24746 0.29312 0.0
C652 C 0.84803 0.22327 0.27055 0.0
C653 C 0.87977 0.19413 0.25123 0.0
C654 C 0.84077 0.17193 0.22969 0.0
C655 C 0.76987 0.17838 0.22739 0.0
C656 C 0.73778 0.20695 0.24671 0.0
C657 C 0.77653 0.22927 0.26827 0.0
H658 H 0.73977 0.16119 0.21068 0.0
H659 H 0.1145 0.38111 0.41854 0.0
H660 H 0.98231 0.22647 0.69498 0.0
H661 H 0.0098 0.22139 0.74796 0.0
H662 H 0.04914 0.34553 0.75908 0.0
H663 H 0.0192 0.35108 0.70632 0.0
H664 H 0.15193 0.30256 0.78344 0.0
H665 H 0.90583 0.31204 0.78977 0.0
H666 H 0.78237 0.29742 0.7816 0.0
H667 H 0.81457 0.1801 0.80573 0.0
H668 H 0.9383 0.19396 0.81397 0.0
H669 H 0.15846 0.31435 0.94556 0.0
H670 H 0.12119 0.32448 0.89413 0.0
H671 H 0.11307 0.19956 0.87296 0.0
H672 H 0.15199 0.18923 0.92388 0.0
H673 H 0.9921 0.24617 0.85502 0.0
H674 H 0.23771 0.23314 0.8432 0.0
H675 H 0.35934 0.24712 0.85569 0.0
H676 H 0.3273 0.3687 0.8432 0.0
H677 H 0.2051 0.35529 0.83047 0.0
C678 C 0.99567 0.25282 0.70879 0.0
C679 C 0.99777 0.28924 0.69641 0.0
C680 C 0.01156 0.24985 0.73908 0.0
C681 C 0.0307 0.28317 0.7576 0.0
C682 C 0.03422 0.31946 0.74523 0.0
C683 C 0.01754 0.32252 0.715 0.0
C684 C 0.04973 0.27974 0.78953 0.0
C685 C 0.11648 0.29076 0.79915 0.0
C686 C 0.00424 0.26352 0.80996 0.0
C687 C 0.93143 0.25398 0.80228 0.0
C688 C 0.88682 0.28295 0.79289 0.0
C689 C 0.81668 0.2749 0.78851 0.0
C690 C 0.7906 0.23797 0.79341 0.0
C691 C 0.83479 0.20877 0.80214 0.0
C692 C 0.90489 0.21671 0.80669 0.0
C693 C 0.14795 0.2891 0.93001 0.0
C694 C 0.1579 0.25102 0.9387 0.0
C695 C 0.1272 0.29492 0.90065 0.0
C696 C 0.11476 0.26273 0.8798 0.0
C697 C 0.12255 0.22473 0.88873 0.0
C698 C 0.14474 0.21891 0.9178 0.0
C699 C 0.09395 0.2686 0.84857 0.0
C700 C 0.02714 0.25803 0.83917 0.0
C701 C 0.13938 0.28484 0.82827 0.0
C702 C 0.21223 0.29332 0.8363 0.0
C703 C 0.25645 0.26292 0.84345 0.0
C704 C 0.32557 0.27071 0.85047 0.0
C705 C 0.35108 0.30882 0.85048 0.0
C706 C 0.30747 0.3392 0.84329 0.0
C707 C 0.2383 0.33151 0.83607 0.0
H708 H 0.40467 0.31472 0.8559 0.0
H709 H 0.73616 0.23193 0.79034 0.0
H710 H 0.21114 0.78033 0.62143 0.0
H711 H 0.17608 0.7661 0.67155 0.0
H712 H 0.06336 0.66497 0.63451 0.0
H713 H 0.09855 0.67899 0.58363 0.0
H714 H 0.99088 0.71118 0.67954 0.0
H715 H 0.21409 0.65279 0.66527 0.0
H716 H 0.33797 0.64989 0.65303 0.0
H717 H 0.38023 0.73681 0.72546 0.0
H718 H 0.25634 0.74141 0.73747 0.0
H719 H 0.9449 0.63844 0.82333 0.0
H720 H 0.97769 0.64307 0.7708 0.0
H721 H 0.10561 0.74295 0.7972 0.0
H722 H 0.0735 0.73825 0.8498 0.0
H723 H 0.17005 0.69138 0.75629 0.0
H724 H 0.95384 0.75565 0.76842 0.0
H725 H 0.83209 0.76231 0.78287 0.0
H726 H 0.77739 0.67072 0.71559 0.0
H727 H 0.89996 0.66229 0.7016 0.0
C728 C 0.17851 0.75511 0.62368 0.0
C729 C 0.15778 0.73072 0.59835 0.0
C730 C 0.15883 0.74694 0.6525 0.0
C731 C 0.11796 0.71419 0.65681 0.0
C732 C 0.09528 0.6903 0.63164 0.0
C733 C 0.11543 0.69833 0.60261 0.0
C734 C 0.09964 0.70525 0.68777 0.0
C735 C 0.02991 0.70599 0.69618 0.0
C736 C 0.15092 0.69982 0.7097 0.0
C737 C 0.22557 0.69769 0.7021 0.0
C738 C 0.24958 0.67175 0.67832 0.0
C739 C 0.31988 0.66983 0.67141 0.0
C740 C 0.3669 0.69331 0.68837 0.0
C741 C 0.3437 0.71888 0.7122 0.0
C742 C 0.27341 0.72118 0.71904 0.0
C743 C 0.98053 0.66115 0.81796 0.0
C744 C 0.0065 0.68805 0.84069 0.0
C745 C 0.99889 0.6639 0.78793 0.0
C746 C 0.04379 0.6935 0.78006 0.0
C747 C 0.0709 0.71988 0.80277 0.0
C748 C 0.05209 0.71736 0.83276 0.0
C749 C 0.06141 0.69756 0.74809 0.0
C750 C 0.13099 0.69602 0.73954 0.0
C751 C 0.01017 0.70289 0.72615 0.0
C752 C 0.9363 0.70793 0.73427 0.0
C753 C 0.91605 0.73655 0.75694 0.0
C754 C 0.84676 0.74069 0.76502 0.0
C755 C 0.79675 0.71703 0.75011 0.0
C756 C 0.81617 0.68901 0.72715 0.0
C757 C 0.88565 0.68441 0.71922 0.0
H758 H 0.743 0.72041 0.75632 0.0
H759 H 0.42136 0.69152 0.68317 0.0
loop_
_geom_bond_atom_site_label_1
_geom_bond_atom_site_label_2
_geom_bond_distance
_geom_bond_site_symmetry_2
_ccdc_geom_bond_type
Tb0 C10 2.825 . S
Tb0 O11 2.347 . S
Tb0 O14 2.366 . S
Tb0 O19 2.418 . S
Tb0 O20 2.384 1_554 S
Tb0 O23 2.479 . S
Tb0 O24 2.471 . S
Eu1 O12 2.418 . S
Eu1 O13 2.384 1_556 S
Eu1 O16 2.479 . S
Eu1 O17 2.471 . S
Eu1 O18 2.347 . S
Eu1 O21 2.366 . S
Eu1 C31 2.825 . S
C2 O18 1.259 1_554 S
C2 O19 1.265 . S
C3 O20 1.255 . S
C3 O21 1.265 . S
C4 C6 1.380 . S
C4 C7 1.374 . S
C4 C10 1.507 . S
C5 C6 1.384 . S
C5 C9 1.387 . S
C5 H32 0.930 . S
C6 C4 1.380 . S
C6 C5 1.384 . S
C6 H33 0.931 . S
C7 C4 1.374 . S
C7 C8 1.390 . S
C7 H34 0.930 . S
C8 C7 1.390 . S
C8 C9 1.391 . S
C8 H35 0.930 . S
C9 C5 1.387 . S
C9 C8 1.391 . S
C10 Tb0 2.825 . S
C10 C4 1.507 . S
C10 O23 1.238 . S
C10 O24 1.247 . S
O11 Tb0 2.347 . S
O11 C15 1.259 1_554 S
O12 Eu1 2.418 . S
O12 C15 1.265 . S
O13 Eu1 2.384 1_554 S
O13 C22 1.255 . S
O14 Tb0 2.366 . S
O14 C22 1.265 . S
C15 O11 1.259 1_556 S
C15 O12 1.265 . S
O16 Eu1 2.479 . S
O16 C31 1.238 . S
O17 Eu1 2.471 . S
O17 C31 1.247 . S
O18 Eu1 2.347 . S
O18 C2 1.259 1_556 S
O19 Tb0 2.418 . S
O19 C2 1.265 . S
O20 Tb0 2.384 1_556 S
O20 C3 1.255 . S
O21 Eu1 2.366 . S
O21 C3 1.265 . S
C22 O13 1.255 . S
C22 O14 1.265 . S
O23 Tb0 2.479 . S
O23 C10 1.238 . S
O24 Tb0 2.471 . S
O24 C10 1.247 . S
C25 C28 1.380 . S
C25 C29 1.374 . S
C25 C31 1.507 . S
C26 C27 1.387 . S
C26 C30 1.391 . S
C27 C26 1.387 . S
C27 C28 1.384 . S
C27 H36 0.930 . S
C28 C25 1.380 . S
C28 C27 1.384 . S
C28 H37 0.931 . S
C29 C25 1.374 . S
C29 C30 1.390 . S
C29 H38 0.930 . S
C30 C26 1.391 . S
C30 C29 1.390 . S
C30 H39 0.930 . S
C31 Eu1 2.825 . S
C31 O16 1.238 . S
C31 O17 1.247 . S
C31 C25 1.507 . S
H32 C5 0.930 . S
H33 C6 0.931 . S
H34 C7 0.930 . S
H35 C8 0.930 . S
H36 C27 0.930 . S
H37 C28 0.931 . S
H38 C29 0.930 . S
H39 C30 0.930 . S
Tb40 C50 2.825 . S
Tb40 O51 2.347 . S
Tb40 O54 2.366 . S
Tb40 O59 2.418 . S
Tb40 O60 2.384 1_554 S
Tb40 O63 2.479 . S
Tb40 O64 2.471 . S
Eu41 O52 2.418 . S
Eu41 O53 2.384 1_556 S
Eu41 O56 2.479 . S
Eu41 O57 2.471 . S
Eu41 O58 2.347 . S
Eu41 O61 2.366 . S
Eu41 C71 2.825 . S
C42 O58 1.259 1_554 S
C42 O59 1.265 . S
C43 O60 1.255 . S
C43 O61 1.265 . S
C44 C46 1.380 . S
C44 C47 1.374 . S
C44 C50 1.507 . S
C45 C46 1.384 . S
C45 C49 1.387 . S
C45 H72 0.930 . S
C46 C44 1.380 . S
C46 C45 1.384 . S
C46 H73 0.931 . S
C47 C44 1.374 . S
C47 C48 1.390 . S
C47 H74 0.930 . S
C48 C47 1.390 . S
C48 C49 1.391 . S
C48 H75 0.930 . S
C49 C45 1.387 . S
C49 C48 1.391 . S
C50 Tb40 2.825 . S
C50 C44 1.507 . S
C50 O63 1.238 . S
C50 O64 1.247 . S
O51 Tb40 2.347 . S
O51 C55 1.259 1_554 S
O52 Eu41 2.418 . S
O52 C55 1.265 . S
O53 Eu41 2.384 1_554 S
O53 C62 1.255 . S
O54 Tb40 2.366 . S
O54 C62 1.265 . S
C55 O51 1.259 1_556 S
C55 O52 1.265 . S
O56 Eu41 2.479 . S
O56 C71 1.238 . S
O57 Eu41 2.471 . S
O57 C71 1.247 . S
O58 Eu41 2.347 . S
O58 C42 1.259 1_556 S
O59 Tb40 2.418 . S
O59 C42 1.265 . S
O60 Tb40 2.384 1_556 S
O60 C43 1.255 . S
O61 Eu41 2.366 . S
O61 C43 1.265 . S
C62 O53 1.255 . S
C62 O54 1.265 . S
O63 Tb40 2.479 . S
O63 C50 1.238 . S
O64 Tb40 2.471 . S
O64 C50 1.247 . S
C65 C68 1.380 . S
C65 C69 1.374 . S
C65 C71 1.507 . S
C66 C67 1.387 . S
C66 C70 1.391 . S
C67 C66 1.387 . S
C67 C68 1.384 . S
C67 H76 0.930 . S
C68 C65 1.380 . S
C68 C67 1.384 . S
C68 H77 0.931 . S
C69 C65 1.374 . S
C69 C70 1.390 . S
C69 H78 0.930 . S
C70 C66 1.391 . S
C70 C69 1.390 . S
C70 H79 0.930 . S
C71 Eu41 2.825 . S
C71 O56 1.238 . S
C71 O57 1.247 . S
C71 C65 1.507 . S
H72 C45 0.930 . S
H73 C46 0.931 . S
H74 C47 0.930 . S
H75 C48 0.930 . S
H76 C67 0.930 . S
H77 C68 0.931 . S
H78 C69 0.930 . S
H79 C70 0.930 . S
Tb80 C90 2.825 . S
Tb80 O91 2.347 . S
Tb80 O94 2.366 . S
Tb80 O99 2.418 . S
Tb80 O100 2.384 . S
Tb80 O103 2.479 . S
Tb80 O104 2.471 . S
Eu81 O92 2.418 . S
Eu81 O93 2.384 . S
Eu81 O96 2.479 . S
Eu81 O97 2.471 . S
Eu81 O98 2.347 . S
Eu81 O101 2.366 . S
Eu81 C111 2.825 . S
C82 O98 1.259 . S
C82 O99 1.265 . S
C83 O100 1.255 . S
C83 O101 1.265 . S
C84 C86 1.380 . S
C84 C87 1.374 . S
C84 C90 1.507 . S
C85 C86 1.384 . S
C85 C89 1.387 . S
C85 H112 0.930 . S
C86 C84 1.380 . S
C86 C85 1.384 . S
C86 H113 0.931 . S
C87 C84 1.374 . S
C87 C88 1.390 . S
C87 H114 0.930 . S
C88 C87 1.390 . S
C88 C89 1.391 . S
C88 H115 0.930 . S
C89 C85 1.387 . S
C89 C88 1.391 . S
C90 Tb80 2.825 . S
C90 C84 1.507 . S
C90 O103 1.238 . S
C90 O104 1.247 . S
O91 Tb80 2.347 . S
O91 C95 1.259 . S
O92 Eu81 2.418 . S
O92 C95 1.265 . S
O93 Eu81 2.384 . S
O93 C102 1.255 . S
O94 Tb80 2.366 . S
O94 C102 1.265 . S
C95 O91 1.259 . S
C95 O92 1.265 . S
O96 Eu81 2.479 . S
O96 C111 1.238 . S
O97 Eu81 2.471 . S
O97 C111 1.247 . S
O98 Eu81 2.347 . S
O98 C82 1.259 . S
O99 Tb80 2.418 . S
O99 C82 1.265 . S
O100 Tb80 2.384 . S
O100 C83 1.255 . S
O101 Eu81 2.366 . S
O101 C83 1.265 . S
C102 O93 1.255 . S
C102 O94 1.265 . S
O103 Tb80 2.479 . S
O103 C90 1.238 . S
O104 Tb80 2.471 . S
O104 C90 1.247 . S
C105 C108 1.380 . S
C105 C109 1.374 . S
C105 C111 1.507 . S
C106 C107 1.387 . S
C106 C110 1.391 . S
C107 C106 1.387 . S
C107 C108 1.384 . S
C107 H116 0.930 . S
C108 C105 1.380 . S
C108 C107 1.384 . S
C108 H117 0.931 . S
C109 C105 1.374 . S
C109 C110 1.390 . S
C109 H118 0.930 . S
C110 C106 1.391 . S
C110 C109 1.390 . S
C110 H119 0.930 . S
C111 Eu81 2.825 . S
C111 O96 1.238 . S
C111 O97 1.247 . S
C111 C105 1.507 . S
H112 C85 0.930 . S
H113 C86 0.931 . S
H114 C87 0.930 . S
H115 C88 0.930 . S
H116 C107 0.930 . S
H117 C108 0.931 . S
H118 C109 0.930 . S
H119 C110 0.930 . S
Tb120 C130 2.825 . S
Tb120 O131 2.347 . S
Tb120 O134 2.366 . S
Tb120 O139 2.418 . S
Tb120 O140 2.384 . S
Tb120 O143 2.479 . S
Tb120 O144 2.471 . S
Eu121 O132 2.418 . S
Eu121 O133 2.384 . S
Eu121 O136 2.479 . S
Eu121 O137 2.471 . S
Eu121 O138 2.347 . S
Eu121 O141 2.366 . S
Eu121 C151 2.825 . S
C122 O138 1.259 . S
C122 O139 1.265 . S
C123 O140 1.255 . S
C123 O141 1.265 . S
C124 C126 1.380 . S
C124 C127 1.374 . S
C124 C130 1.507 . S
C125 C126 1.384 . S
C125 C129 1.387 . S
C125 H152 0.930 . S
C126 C124 1.380 . S
C126 C125 1.384 . S
C126 H153 0.931 . S
C127 C124 1.374 . S
C127 C128 1.390 . S
C127 H154 0.930 . S
C128 C127 1.390 . S
C128 C129 1.391 . S
C128 H155 0.930 . S
C129 C125 1.387 . S
C129 C128 1.391 . S
C130 Tb120 2.825 . S
C130 C124 1.507 . S
C130 O143 1.238 . S
C130 O144 1.247 . S
O131 Tb120 2.347 . S
O131 C135 1.259 . S
O132 Eu121 2.418 . S
O132 C135 1.265 . S
O133 Eu121 2.384 . S
O133 C142 1.255 . S
O134 Tb120 2.366 . S
O134 C142 1.265 . S
C135 O131 1.259 . S
C135 O132 1.265 . S
O136 Eu121 2.479 . S
O136 C151 1.238 . S
O137 Eu121 2.471 . S
O137 C151 1.247 . S
O138 Eu121 2.347 . S
O138 C122 1.259 . S
O139 Tb120 2.418 . S
O139 C122 1.265 . S
O140 Tb120 2.384 . S
O140 C123 1.255 . S
O141 Eu121 2.366 . S
O141 C123 1.265 . S
C142 O133 1.255 . S
C142 O134 1.265 . S
O143 Tb120 2.479 . S
O143 C130 1.238 . S
O144 Tb120 2.471 . S
O144 C130 1.247 . S
C145 C148 1.380 . S
C145 C149 1.374 . S
C145 C151 1.507 . S
C146 C147 1.387 . S
C146 C150 1.391 . S
C147 C146 1.387 . S
C147 C148 1.384 . S
C147 H156 0.930 . S
C148 C145 1.380 . S
C148 C147 1.384 . S
C148 H157 0.931 . S
C149 C145 1.374 . S
C149 C150 1.390 . S
C149 H158 0.930 . S
C150 C146 1.391 . S
C150 C149 1.390 . S
C150 H159 0.930 . S
C151 Eu121 2.825 . S
C151 O136 1.238 . S
C151 O137 1.247 . S
C151 C145 1.507 . S
H152 C125 0.930 . S
H153 C126 0.931 . S
H154 C127 0.930 . S
H155 C128 0.930 . S
H156 C147 0.930 . S
H157 C148 0.931 . S
H158 C149 0.930 . S
H159 C150 0.930 . S
H160 C178 0.951 . S
H161 C180 0.951 . S
H162 C182 0.950 . S
H163 C183 0.950 . S
H164 C185 0.950 . S
H165 C188 0.950 . S
H166 C189 0.950 . S
H167 C191 0.950 . S
H168 C192 0.950 . S
H169 C193 0.951 . S
H170 C195 0.951 . S
H171 C197 0.950 . S
H172 C198 0.950 . S
H173 C200 0.950 . S
H174 C203 0.950 . S
H175 C204 0.950 . S
H176 C206 0.950 . S
H177 C207 0.950 . S
C178 H160 0.951 . S
C178 C179 1.366 . S
C178 C180 1.388 . S
C179 C178 1.366 . S
C179 C183 1.385 1_554 S
C180 H161 0.951 . S
C180 C178 1.388 . S
C180 C181 1.366 . S
C181 C180 1.366 . S
C181 C182 1.414 1_554 S
C181 C184 1.499 . S
C182 H162 0.950 . S
C182 C181 1.414 1_556 S
C182 C183 1.374 . S
C183 H163 0.950 . S
C183 C179 1.385 1_556 S
C183 C182 1.374 . S
C184 C181 1.499 . S
C184 C185 1.373 1_554 S
C184 C186 1.389 . S
C185 H164 0.950 . S
C185 C184 1.373 1_556 S
C185 C201 1.377 . S
C186 C184 1.389 . S
C186 C187 1.524 . S
C186 C200 1.377 . S
C187 C186 1.524 . S
C187 C188 1.397 . S
C187 C192 1.363 . S
C188 H165 0.950 . S
C188 C187 1.397 . S
C188 C189 1.334 . S
C189 H166 0.950 . S
C189 C188 1.334 . S
C189 C190 1.287 . S
C190 C189 1.287 . S
C190 C191 1.524 . S
C190 H209 0.913 . S
C191 H167 0.950 . S
C191 C190 1.524 . S
C191 C192 1.415 . S
C192 H168 0.950 . S
C192 C187 1.363 . S
C192 C191 1.415 . S
C193 H169 0.951 . S
C193 C194 1.366 1_556 S
C193 C195 1.388 . S
C194 C193 1.366 1_554 S
C194 C198 1.385 . S
C195 H170 0.951 . S
C195 C193 1.388 . S
C195 C196 1.366 1_556 S
C196 C195 1.366 1_554 S
C196 C197 1.414 . S
C196 C199 1.499 1_554 S
C197 H171 0.950 . S
C197 C196 1.414 . S
C197 C198 1.374 . S
C198 H172 0.950 . S
C198 C194 1.385 . S
C198 C197 1.374 . S
C199 C196 1.499 1_556 S
C199 C200 1.376 1_556 S
C199 C201 1.387 . S
C200 H173 0.950 . S
C200 C186 1.377 . S
C200 C199 1.376 1_554 S
C201 C185 1.377 . S
C201 C199 1.387 . S
C201 C202 1.524 . S
C202 C201 1.524 . S
C202 C203 1.397 . S
C202 C207 1.363 . S
C203 H174 0.950 . S
C203 C202 1.397 . S
C203 C204 1.334 . S
C204 H175 0.950 . S
C204 C203 1.334 . S
C204 C205 1.287 . S
C205 C204 1.287 . S
C205 C206 1.524 . S
C205 H208 0.999 . S
C206 H176 0.950 . S
C206 C205 1.524 . S
C206 C207 1.415 . S
C207 H177 0.950 . S
C207 C202 1.363 . S
C207 C206 1.415 . S
H208 C205 0.999 . S
H209 C190 0.913 . S
H210 C228 0.951 . S
H211 C230 0.951 . S
H212 C232 0.950 . S
H213 C233 0.950 . S
H214 C235 0.950 . S
H215 C238 0.950 . S
H216 C239 0.950 . S
H217 C241 0.950 . S
H218 C242 0.950 . S
H219 C243 0.951 . S
H220 C245 0.951 . S
H221 C247 0.950 . S
H222 C248 0.950 . S
H223 C250 0.950 . S
H224 C253 0.950 . S
H225 C254 0.950 . S
H226 C256 0.950 . S
H227 C257 0.950 . S
C228 H210 0.951 . S
C228 C229 1.366 . S
C228 C230 1.388 . S
C229 C228 1.366 . S
C229 C233 1.385 . S
C230 H211 0.951 . S
C230 C228 1.388 . S
C230 C231 1.366 . S
C231 C230 1.366 . S
C231 C232 1.414 . S
C231 C234 1.499 . S
C232 H212 0.950 . S
C232 C231 1.414 . S
C232 C233 1.374 . S
C233 H213 0.950 . S
C233 C229 1.385 . S
C233 C232 1.374 . S
C234 C231 1.499 . S
C234 C235 1.373 . S
C234 C236 1.389 . S
C235 H214 0.950 . S
C235 C234 1.373 . S
C235 C251 1.377 . S
C236 C234 1.389 . S
C236 C237 1.524 . S
C236 C250 1.377 . S
C237 C236 1.524 . S
C237 C238 1.397 . S
C237 C242 1.363 . S
C238 H215 0.950 . S
C238 C237 1.397 . S
C238 C239 1.334 . S
C239 H216 0.950 . S
C239 C238 1.334 . S
C239 C240 1.287 . S
C240 C239 1.287 . S
C240 C241 1.524 . S
C240 H259 0.913 . S
C241 H217 0.950 . S
C241 C240 1.524 . S
C241 C242 1.415 . S
C242 H218 0.950 . S
C242 C237 1.363 . S
C242 C241 1.415 . S
C243 H219 0.951 . S
C243 C244 1.366 . S
C243 C245 1.388 . S
C244 C243 1.366 . S
C244 C248 1.385 . S
C245 H220 0.951 . S
C245 C243 1.388 . S
C245 C246 1.366 . S
C246 C245 1.366 . S
C246 C247 1.414 . S
C246 C249 1.499 . S
C247 H221 0.950 . S
C247 C246 1.414 . S
C247 C248 1.374 . S
C248 H222 0.950 . S
C248 C244 1.385 . S
C248 C247 1.374 . S
C249 C246 1.499 . S
C249 C250 1.373 . S
C249 C251 1.389 . S
C250 H223 0.950 . S
C250 C236 1.377 . S
C250 C249 1.373 . S
C251 C235 1.377 . S
C251 C249 1.389 . S
C251 C252 1.524 . S
C252 C251 1.524 . S
C252 C253 1.397 . S
C252 C257 1.363 . S
C253 H224 0.950 . S
C253 C252 1.397 . S
C253 C254 1.334 . S
C254 H225 0.950 . S
C254 C253 1.334 . S
C254 C255 1.287 . S
C255 C254 1.287 . S
C255 C256 1.524 . S
C255 H258 0.999 . S
C256 H226 0.950 . S
C256 C255 1.524 . S
C256 C257 1.415 . S
C257 H227 0.950 . S
C257 C252 1.363 . S
C257 C256 1.415 . S
H258 C255 0.999 . S
H259 C240 0.913 . S
H260 C278 0.951 . S
H261 C280 0.951 . S
H262 C282 0.950 . S
H263 C283 0.950 . S
H264 C285 0.950 . S
H265 C288 0.950 . S
H266 C289 0.950 . S
H267 C291 0.950 . S
H268 C292 0.950 . S
H269 C293 0.951 . S
H270 C295 0.951 . S
H271 C297 0.950 . S
H272 C298 0.950 . S
H273 C300 0.950 . S
H274 C303 0.950 . S
H275 C304 0.950 . S
H276 C306 0.950 . S
H277 C307 0.950 . S
C278 H260 0.951 . S
C278 C279 1.366 1_556 S
C278 C280 1.388 . S
C279 C278 1.366 1_554 S
C279 C283 1.385 . S
C280 H261 0.951 . S
C280 C278 1.388 . S
C280 C281 1.364 . S
C281 C280 1.364 . S
C281 C282 1.415 1_556 S
C281 C284 1.498 1_556 S
C282 H262 0.950 . S
C282 C281 1.415 1_554 S
C282 C283 1.374 . S
C283 H263 0.950 . S
C283 C279 1.385 . S
C283 C282 1.374 . S
C284 C281 1.498 1_554 S
C284 C285 1.379 . S
C284 C286 1.384 1_554 S
C285 H264 0.950 . S
C285 C284 1.379 . S
C285 C301 1.377 1_445 S
C286 C284 1.384 1_556 S
C286 C287 1.524 . S
C286 C300 1.377 1_445 S
C287 C286 1.524 . S
C287 C288 1.397 . S
C287 C292 1.363 1_545 S
C288 H265 0.950 . S
C288 C287 1.397 . S
C288 C289 1.334 . S
C289 H266 0.950 . S
C289 C288 1.334 . S
C289 C290 1.287 . S
C290 C289 1.287 . S
C290 C291 1.524 1_545 S
C290 H309 0.913 . S
C291 H267 0.950 . S
C291 C290 1.524 1_565 S
C291 C292 1.415 . S
C292 H268 0.950 . S
C292 C287 1.363 1_565 S
C292 C291 1.415 . S
C293 H269 0.951 . S
C293 C294 1.366 . S
C293 C295 1.388 . S
C294 C293 1.366 . S
C294 C298 1.385 1_554 S
C295 H270 0.951 . S
C295 C293 1.388 . S
C295 C296 1.366 . S
C296 C295 1.366 . S
C296 C297 1.414 1_554 S
C296 C299 1.499 . S
C297 H271 0.950 . S
C297 C296 1.414 1_556 S
C297 C298 1.374 . S
C298 H272 0.950 . S
C298 C294 1.385 1_556 S
C298 C297 1.374 . S
C299 C296 1.499 . S
C299 C300 1.373 1_554 S
C299 C301 1.389 . S
C300 H273 0.950 . S
C300 C286 1.377 1_665 S
C300 C299 1.373 1_556 S
C301 C285 1.377 1_665 S
C301 C299 1.389 . S
C301 C302 1.524 . S
C302 C301 1.524 . S
C302 C303 1.397 . S
C302 C307 1.363 1_565 S
C303 H274 0.950 . S
C303 C302 1.397 . S
C303 C304 1.334 . S
C304 H275 0.950 . S
C304 C303 1.334 . S
C304 C305 1.287 . S
C305 C304 1.287 . S
C305 C306 1.524 1_565 S
C305 H308 0.999 . S
C306 H276 0.950 . S
C306 C305 1.524 1_545 S
C306 C307 1.415 . S
C307 H277 0.950 . S
C307 C302 1.363 1_545 S
C307 C306 1.415 . S
H308 C305 0.999 . S
H309 C290 0.913 . S
H310 C328 0.951 . S
H311 C330 0.951 . S
H312 C332 0.950 . S
H313 C333 0.950 . S
H314 C335 0.950 . S
H315 C338 0.950 . S
H316 C339 0.950 . S
H317 C341 0.950 . S
H318 C342 0.950 . S
H319 C343 0.951 . S
H320 C345 0.951 . S
H321 C347 0.950 . S
H322 C348 0.950 . S
H323 C350 0.950 . S
H324 C353 0.950 . S
H325 C354 0.950 . S
H326 C356 0.950 . S
H327 C357 0.950 . S
C328 H310 0.951 . S
C328 C329 1.366 . S
C328 C330 1.388 . S
C329 C328 1.366 . S
C329 C333 1.385 . S
C330 H311 0.951 . S
C330 C328 1.388 . S
C330 C331 1.366 . S
C331 C330 1.366 . S
C331 C332 1.414 . S
C331 C334 1.499 . S
C332 H312 0.950 . S
C332 C331 1.414 . S
C332 C333 1.374 . S
C333 H313 0.950 . S
C333 C329 1.385 . S
C333 C332 1.374 . S
C334 C331 1.499 . S
C334 C335 1.373 1_655 S
C334 C336 1.389 . S
C335 H314 0.950 . S
C335 C334 1.373 1_455 S
C335 C351 1.377 1_545 S
C336 C334 1.389 . S
C336 C337 1.526 . S
C336 C350 1.377 1_545 S
C337 C336 1.526 . S
C337 C338 1.416 . S
C337 C342 1.341 1_545 S
C338 H315 0.950 . S
C338 C337 1.416 . S
C338 C339 1.334 . S
C339 H316 0.950 . S
C339 C338 1.334 . S
C339 C340 1.287 . S
C340 C339 1.287 . S
C340 C341 1.524 1_545 S
C340 H359 0.913 . S
C341 H317 0.950 . S
C341 C340 1.524 1_565 S
C341 C342 1.415 . S
C342 H318 0.950 . S
C342 C337 1.341 1_565 S
C342 C341 1.415 . S
C343 H319 0.951 . S
C343 C344 1.366 . S
C343 C345 1.388 . S
C344 C343 1.366 . S
C344 C348 1.385 . S
C345 H320 0.951 . S
C345 C343 1.388 . S
C345 C346 1.366 . S
C346 C345 1.366 . S
C346 C347 1.414 . S
C346 C349 1.499 . S
C347 H321 0.950 . S
C347 C346 1.414 . S
C347 C348 1.374 . S
C348 H322 0.950 . S
C348 C344 1.385 . S
C348 C347 1.374 . S
C349 C346 1.499 . S
C349 C350 1.373 1_455 S
C349 C351 1.389 . S
C350 H323 0.950 . S
C350 C336 1.377 1_565 S
C350 C349 1.373 1_655 S
C351 C335 1.377 1_565 S
C351 C349 1.389 . S
C351 C352 1.524 . S
C352 C351 1.524 . S
C352 C353 1.397 . S
C352 C357 1.363 1_565 S
C353 H324 0.950 . S
C353 C352 1.397 . S
C353 C354 1.334 . S
C354 H325 0.950 . S
C354 C353 1.334 . S
C354 C355 1.287 . S
C355 C354 1.287 . S
C355 C356 1.524 1_565 S
C355 H358 0.999 . S
C356 H326 0.950 . S
C356 C355 1.524 1_545 S
C356 C357 1.415 . S
C357 H327 0.950 . S
C357 C352 1.363 1_545 S
C357 C356 1.415 . S
H358 C355 0.999 . S
H359 C340 0.913 . S
H360 C378 0.951 . S
H361 C380 0.951 . S
H362 C382 0.950 . S
H363 C383 0.950 . S
H364 C385 0.950 . S
H365 C388 0.950 . S
H366 C389 0.950 . S
H367 C391 0.950 . S
H368 C392 0.950 . S
H369 C393 0.951 . S
H370 C395 0.951 . S
H371 C397 0.950 . S
H372 C398 0.950 . S
H373 C400 0.950 . S
H374 C403 0.950 . S
H375 C404 0.950 . S
H376 C406 0.950 . S
H377 C407 0.950 . S
C378 H360 0.951 . S
C378 C379 1.366 . S
C378 C380 1.388 . S
C379 C378 1.366 . S
C379 C383 1.385 . S
C380 H361 0.951 . S
C380 C378 1.388 . S
C380 C381 1.366 . S
C381 C380 1.366 . S
C381 C382 1.414 . S
C381 C384 1.499 . S
C382 H362 0.950 . S
C382 C381 1.414 . S
C382 C383 1.374 . S
C383 H363 0.950 . S
C383 C379 1.385 . S
C383 C382 1.374 . S
C384 C381 1.499 . S
C384 C385 1.373 . S
C384 C386 1.389 . S
C385 H364 0.950 . S
C385 C384 1.373 . S
C385 C401 1.377 . S
C386 C384 1.389 . S
C386 C387 1.524 . S
C386 C400 1.377 . S
C387 C386 1.524 . S
C387 C388 1.397 . S
C387 C392 1.363 . S
C388 H365 0.950 . S
C388 C387 1.397 . S
C388 C389 1.334 . S
C389 H366 0.950 . S
C389 C388 1.334 . S
C389 C390 1.287 . S
C390 C389 1.287 . S
C390 C391 1.524 . S
C390 H409 0.913 . S
C391 H367 0.950 . S
C391 C390 1.524 . S
C391 C392 1.415 . S
C392 H368 0.950 . S
C392 C387 1.363 . S
C392 C391 1.415 . S
C393 H369 0.951 . S
C393 C394 1.366 . S
C393 C395 1.388 . S
C394 C393 1.366 . S
C394 C398 1.385 . S
C395 H370 0.951 . S
C395 C393 1.388 . S
C395 C396 1.366 . S
C396 C395 1.366 . S
C396 C397 1.414 . S
C396 C399 1.499 . S
C397 H371 0.950 . S
C397 C396 1.414 . S
C397 C398 1.374 . S
C398 H372 0.950 . S
C398 C394 1.385 . S
C398 C397 1.374 . S
C399 C396 1.499 . S
C399 C400 1.373 . S
C399 C401 1.389 . S
C400 H373 0.950 . S
C400 C386 1.377 . S
C400 C399 1.373 . S
C401 C385 1.377 . S
C401 C399 1.389 . S
C401 C402 1.524 . S
C402 C401 1.524 . S
C402 C403 1.397 . S
C402 C407 1.363 . S
C403 H374 0.950 . S
C403 C402 1.397 . S
C403 C404 1.334 . S
C404 H375 0.950 . S
C404 C403 1.334 . S
C404 C405 1.287 . S
C405 C404 1.287 . S
C405 C406 1.524 . S
C405 H408 0.999 . S
C406 H376 0.950 . S
C406 C405 1.524 . S
C406 C407 1.415 . S
C407 H377 0.950 . S
C407 C402 1.363 . S
C407 C406 1.415 . S
H408 C405 0.999 . S
H409 C390 0.913 . S
H410 C428 0.951 . S
H411 C430 0.951 . S
H412 C432 0.950 . S
H413 C433 0.950 . S
H414 C435 0.950 . S
H415 C438 0.950 . S
H416 C439 0.950 . S
H417 C441 0.950 . S
H418 C442 0.950 . S
H419 C443 0.951 . S
H420 C445 0.951 . S
H421 C447 0.950 . S
H422 C448 0.950 . S
H423 C450 0.950 . S
H424 C453 0.950 . S
H425 C454 0.950 . S
H426 C456 0.950 . S
H427 C457 0.950 . S
C428 H410 0.951 . S
C428 C429 1.366 . S
C428 C430 1.388 . S
C429 C428 1.366 . S
C429 C433 1.385 . S
C430 H411 0.951 . S
C430 C428 1.388 . S
C430 C431 1.366 . S
C431 C430 1.366 . S
C431 C432 1.414 . S
C431 C434 1.499 . S
C432 H412 0.950 . S
C432 C431 1.414 . S
C432 C433 1.374 . S
C433 H413 0.950 . S
C433 C429 1.385 . S
C433 C432 1.374 . S
C434 C431 1.499 . S
C434 C435 1.373 . S
C434 C436 1.389 . S
C435 H414 0.950 . S
C435 C434 1.373 . S
C435 C451 1.377 . S
C436 C434 1.389 . S
C436 C437 1.524 . S
C436 C450 1.377 . S
C437 C436 1.524 . S
C437 C438 1.397 . S
C437 C442 1.363 . S
C438 H415 0.950 . S
C438 C437 1.397 . S
C438 C439 1.334 . S
C439 H416 0.950 . S
C439 C438 1.334 . S
C439 C440 1.287 . S
C440 C439 1.287 . S
C440 C441 1.524 . S
C440 H459 0.913 . S
C441 H417 0.950 . S
C441 C440 1.524 . S
C441 C442 1.415 . S
C442 H418 0.950 . S
C442 C437 1.363 . S
C442 C441 1.415 . S
C443 H419 0.951 . S
C443 C444 1.366 . S
C443 C445 1.388 . S
C444 C443 1.366 . S
C444 C448 1.385 . S
C445 H420 0.951 . S
C445 C443 1.388 . S
C445 C446 1.366 . S
C446 C445 1.366 . S
C446 C447 1.414 . S
C446 C449 1.499 . S
C447 H421 0.950 . S
C447 C446 1.414 . S
C447 C448 1.374 . S
C448 H422 0.950 . S
C448 C444 1.385 . S
C448 C447 1.374 . S
C449 C446 1.499 . S
C449 C450 1.373 . S
C449 C451 1.389 . S
C450 H423 0.950 . S
C450 C436 1.377 . S
C450 C449 1.373 . S
C451 C435 1.377 . S
C451 C449 1.389 . S
C451 C452 1.524 . S
C452 C451 1.524 . S
C452 C453 1.397 . S
C452 C457 1.363 . S
C453 H424 0.950 . S
C453 C452 1.397 . S
C453 C454 1.334 . S
C454 H425 0.950 . S
C454 C453 1.334 . S
C454 C455 1.287 . S
C455 C454 1.287 . S
C455 C456 1.524 . S
C455 H458 0.999 . S
C456 H426 0.950 . S
C456 C455 1.524 . S
C456 C457 1.415 . S
C457 H427 0.950 . S
C457 C452 1.363 . S
C457 C456 1.415 . S
H458 C455 0.999 . S
H459 C440 0.913 . S
H460 C478 0.951 . S
H461 C480 0.951 . S
H462 C482 0.950 . S
H463 C483 0.950 . S
H464 C485 0.950 . S
H465 C488 0.950 . S
H466 C489 0.950 . S
H467 C491 0.950 . S
H468 C492 0.950 . S
H469 C493 0.951 . S
H470 C495 0.951 . S
H471 C497 0.950 . S
H472 C498 0.950 . S
H473 C500 0.950 . S
H474 C503 0.950 . S
H475 C504 0.950 . S
H476 C506 0.950 . S
H477 C507 0.950 . S
C478 H460 0.951 . S
C478 C479 1.366 . S
C478 C480 1.388 . S
C479 C478 1.366 . S
C479 C483 1.385 . S
C480 H461 0.951 . S
C480 C478 1.388 . S
C480 C481 1.366 . S
C481 C480 1.366 . S
C481 C482 1.414 . S
C481 C484 1.499 . S
C482 H462 0.950 . S
C482 C481 1.414 . S
C482 C483 1.374 . S
C483 H463 0.950 . S
C483 C479 1.385 . S
C483 C482 1.374 . S
C484 C481 1.499 . S
C484 C485 1.373 . S
C484 C486 1.389 . S
C485 H464 0.950 . S
C485 C484 1.373 . S
C485 C501 1.377 . S
C486 C484 1.389 . S
C486 C487 1.524 . S
C486 C500 1.377 . S
C487 C486 1.524 . S
C487 C488 1.397 . S
C487 C492 1.363 . S
C488 H465 0.950 . S
C488 C487 1.397 . S
C488 C489 1.334 . S
C489 H466 0.950 . S
C489 C488 1.334 . S
C489 C490 1.287 . S
C490 C489 1.287 . S
C490 C491 1.524 . S
C490 H509 0.913 . S
C491 H467 0.950 . S
C491 C490 1.524 . S
C491 C492 1.415 . S
C492 H468 0.950 . S
C492 C487 1.363 . S
C492 C491 1.415 . S
C493 H469 0.951 . S
C493 C494 1.366 . S
C493 C495 1.388 . S
C494 C493 1.366 . S
C494 C498 1.385 . S
C495 H470 0.951 . S
C495 C493 1.388 . S
C495 C496 1.366 . S
C496 C495 1.366 . S
C496 C497 1.414 . S
C496 C499 1.499 . S
C497 H471 0.950 . S
C497 C496 1.414 . S
C497 C498 1.374 . S
C498 H472 0.950 . S
C498 C494 1.385 . S
C498 C497 1.374 . S
C499 C496 1.499 . S
C499 C500 1.373 . S
C499 C501 1.389 . S
C500 H473 0.950 . S
C500 C486 1.377 . S
C500 C499 1.373 . S
C501 C485 1.377 . S
C501 C499 1.389 . S
C501 C502 1.524 . S
C502 C501 1.524 . S
C502 C503 1.397 . S
C502 C507 1.363 . S
C503 H474 0.950 . S
C503 C502 1.397 . S
C503 C504 1.334 . S
C504 H475 0.950 . S
C504 C503 1.334 . S
C504 C505 1.287 . S
C505 C504 1.287 . S
C505 C506 1.524 . S
C505 H508 0.999 . S
C506 H476 0.950 . S
C506 C505 1.524 . S
C506 C507 1.415 . S
C507 H477 0.950 . S
C507 C502 1.363 . S
C507 C506 1.415 . S
H508 C505 0.999 . S
H509 C490 0.913 . S
H510 C528 0.951 . S
H511 C530 0.951 . S
H512 C532 0.950 . S
H513 C533 0.950 . S
H514 C535 0.950 . S
H515 C538 0.950 . S
H516 C539 0.950 . S
H517 C541 0.950 . S
H518 C542 0.950 . S
H519 C543 0.951 . S
H520 C545 0.951 . S
H521 C547 0.950 . S
H522 C548 0.950 . S
H523 C550 0.950 . S
H524 C553 0.950 . S
H525 C554 0.950 . S
H526 C556 0.950 . S
H527 C557 0.950 . S
C528 H510 0.951 . S
C528 C529 1.366 . S
C528 C530 1.388 . S
C529 C528 1.366 . S
C529 C533 1.385 . S
C530 H511 0.951 . S
C530 C528 1.388 . S
C530 C531 1.366 . S
C531 C530 1.366 . S
C531 C532 1.414 . S
C531 C534 1.499 . S
C532 H512 0.950 . S
C532 C531 1.414 . S
C532 C533 1.374 . S
C533 H513 0.950 . S
C533 C529 1.385 . S
C533 C532 1.374 . S
C534 C531 1.499 . S
C534 C535 1.373 . S
C534 C536 1.389 . S
C535 H514 0.950 . S
C535 C534 1.373 . S
C535 C551 1.377 . S
C536 C534 1.389 . S
C536 C537 1.524 . S
C536 C550 1.377 . S
C537 C536 1.524 . S
C537 C538 1.397 . S
C537 C542 1.363 . S
C538 H515 0.950 . S
C538 C537 1.397 . S
C538 C539 1.334 . S
C539 H516 0.950 . S
C539 C538 1.334 . S
C539 C540 1.287 . S
C540 C539 1.287 . S
C540 C541 1.524 . S
C540 H559 0.913 . S
C541 H517 0.950 . S
C541 C540 1.524 . S
C541 C542 1.415 . S
C542 H518 0.950 . S
C542 C537 1.363 . S
C542 C541 1.415 . S
C543 H519 0.951 . S
C543 C544 1.366 . S
C543 C545 1.388 . S
C544 C543 1.366 . S
C544 C548 1.385 . S
C545 H520 0.951 . S
C545 C543 1.388 . S
C545 C546 1.366 . S
C546 C545 1.366 . S
C546 C547 1.414 . S
C546 C549 1.499 . S
C547 H521 0.950 . S
C547 C546 1.414 . S
C547 C548 1.374 . S
C548 H522 0.950 . S
C548 C544 1.385 . S
C548 C547 1.374 . S
C549 C546 1.499 . S
C549 C550 1.373 . S
C549 C551 1.389 . S
C550 H523 0.950 . S
C550 C536 1.377 . S
C550 C549 1.373 . S
C551 C535 1.377 . S
C551 C549 1.389 . S
C551 C552 1.524 . S
C552 C551 1.524 . S
C552 C553 1.397 . S
C552 C557 1.363 . S
C553 H524 0.950 . S
C553 C552 1.397 . S
C553 C554 1.334 . S
C554 H525 0.950 . S
C554 C553 1.334 . S
C554 C555 1.287 . S
C555 C554 1.287 . S
C555 C556 1.524 . S
C555 H558 0.999 . S
C556 H526 0.950 . S
C556 C555 1.524 . S
C556 C557 1.415 . S
C557 H527 0.950 . S
C557 C552 1.363 . S
C557 C556 1.415 . S
H558 C555 0.999 . S
H559 C540 0.913 . S
H560 C578 0.951 . S
H561 C580 0.951 . S
H562 C582 0.950 . S
H563 C583 0.950 . S
H564 C585 0.950 . S
H565 C588 0.950 . S
H566 C589 0.950 . S
H567 C591 0.950 . S
H568 C592 0.950 . S
H569 C593 0.951 . S
H570 C595 0.951 . S
H571 C597 0.950 . S
H572 C598 0.950 . S
H573 C600 0.950 . S
H574 C603 0.950 1_455 S
H575 C604 0.950 1_455 S
H576 C606 0.950 . S
H577 C607 0.950 . S
C578 H560 0.951 . S
C578 C579 1.366 . S
C578 C580 1.388 . S
C579 C578 1.366 . S
C579 C583 1.385 . S
C580 H561 0.951 . S
C580 C578 1.388 . S
C580 C581 1.366 . S
C581 C580 1.366 . S
C581 C582 1.414 . S
C581 C584 1.499 . S
C582 H562 0.950 . S
C582 C581 1.414 . S
C582 C583 1.374 . S
C583 H563 0.950 . S
C583 C579 1.385 . S
C583 C582 1.374 . S
C584 C581 1.499 . S
C584 C585 1.373 . S
C584 C586 1.389 . S
C585 H564 0.950 . S
C585 C584 1.373 . S
C585 C601 1.377 . S
C586 C584 1.389 . S
C586 C587 1.524 . S
C586 C600 1.377 . S
C587 C586 1.524 . S
C587 C588 1.397 . S
C587 C592 1.363 1_655 S
C588 H565 0.950 . S
C588 C587 1.397 . S
C588 C589 1.334 . S
C589 H566 0.950 . S
C589 C588 1.334 . S
C589 C590 1.287 . S
C590 C589 1.287 . S
C590 C591 1.524 1_655 S
C590 H609 0.913 . S
C591 H567 0.950 . S
C591 C590 1.524 1_455 S
C591 C592 1.415 . S
C592 H568 0.950 . S
C592 C587 1.363 1_455 S
C592 C591 1.415 . S
C593 H569 0.951 . S
C593 C594 1.366 1_655 S
C593 C595 1.388 . S
C594 C593 1.366 1_455 S
C594 C598 1.385 . S
C595 H570 0.951 . S
C595 C593 1.388 . S
C595 C596 1.366 . S
C596 C595 1.366 . S
C596 C597 1.414 1_655 S
C596 C599 1.499 . S
C597 H571 0.950 . S
C597 C596 1.414 1_455 S
C597 C598 1.374 . S
C598 H572 0.950 . S
C598 C594 1.385 . S
C598 C597 1.374 . S
C599 C596 1.499 . S
C599 C600 1.373 . S
C599 C601 1.389 . S
C600 H573 0.950 . S
C600 C586 1.377 . S
C600 C599 1.373 . S
C601 C585 1.377 . S
C601 C599 1.389 . S
C601 C602 1.524 . S
C602 C601 1.524 . S
C602 C603 1.397 . S
C602 C607 1.363 . S
C603 H574 0.950 1_655 S
C603 C602 1.397 . S
C603 C604 1.334 . S
C604 H575 0.950 1_655 S
C604 C603 1.334 . S
C604 C605 1.287 . S
C605 C604 1.287 . S
C605 C606 1.524 . S
C605 H608 0.999 . S
C606 H576 0.950 . S
C606 C605 1.524 . S
C606 C607 1.415 . S
C607 H577 0.950 . S
C607 C602 1.363 . S
C607 C606 1.415 . S
H608 C605 0.999 . S
H609 C590 0.913 . S
H610 C628 0.951 . S
H611 C630 0.951 . S
H612 C632 0.950 . S
H613 C633 0.950 . S
H614 C635 0.950 . S
H615 C638 0.950 . S
H616 C639 0.950 . S
H617 C641 0.950 . S
H618 C642 0.950 . S
H619 C643 0.951 . S
H620 C645 0.951 . S
H621 C647 0.950 . S
H622 C648 0.950 . S
H623 C650 0.950 1_455 S
H624 C653 0.950 . S
H625 C654 0.950 . S
H626 C656 0.950 . S
H627 C657 0.950 . S
C628 H610 0.951 . S
C628 C629 1.366 . S
C628 C630 1.388 . S
C629 C628 1.366 . S
C629 C633 1.385 . S
C630 H611 0.951 . S
C630 C628 1.388 . S
C630 C631 1.366 . S
C631 C630 1.366 . S
C631 C632 1.414 . S
C631 C634 1.499 . S
C632 H612 0.950 . S
C632 C631 1.414 . S
C632 C633 1.374 . S
C633 H613 0.950 . S
C633 C629 1.385 . S
C633 C632 1.374 . S
C634 C631 1.499 . S
C634 C635 1.373 . S
C634 C636 1.389 . S
C635 H614 0.950 . S
C635 C634 1.373 . S
C635 C651 1.377 . S
C636 C634 1.389 . S
C636 C637 1.524 . S
C636 C650 1.377 . S
C637 C636 1.524 . S
C637 C638 1.397 . S
C637 C642 1.363 1_655 S
C638 H615 0.950 . S
C638 C637 1.397 . S
C638 C639 1.334 . S
C639 H616 0.950 . S
C639 C638 1.334 . S
C639 C640 1.287 . S
C640 C639 1.287 . S
C640 C641 1.524 1_655 S
C640 H659 0.913 1_655 S
C641 H617 0.950 . S
C641 C640 1.524 1_455 S
C641 C642 1.415 . S
C642 H618 0.950 . S
C642 C637 1.363 1_455 S
C642 C641 1.415 . S
C643 H619 0.951 . S
C643 C644 1.366 1_655 S
C643 C645 1.388 . S
C644 C643 1.366 1_455 S
C644 C648 1.385 . S
C645 H620 0.951 . S
C645 C643 1.388 . S
C645 C646 1.366 . S
C646 C645 1.366 . S
C646 C647 1.414 1_655 S
C646 C649 1.499 . S
C647 H621 0.950 . S
C647 C646 1.414 1_455 S
C647 C648 1.374 . S
C648 H622 0.950 . S
C648 C644 1.385 . S
C648 C647 1.374 . S
C649 C646 1.499 . S
C649 C650 1.373 . S
C649 C651 1.389 . S
C650 H623 0.950 1_655 S
C650 C636 1.377 . S
C650 C649 1.373 . S
C651 C635 1.377 . S
C651 C649 1.389 . S
C651 C652 1.524 . S
C652 C651 1.524 . S
C652 C653 1.397 . S
C652 C657 1.363 . S
C653 H624 0.950 . S
C653 C652 1.397 . S
C653 C654 1.334 . S
C654 H625 0.950 . S
C654 C653 1.334 . S
C654 C655 1.287 . S
C655 C654 1.287 . S
C655 C656 1.524 . S
C655 H658 0.999 . S
C656 H626 0.950 . S
C656 C655 1.524 . S
C656 C657 1.415 . S
C657 H627 0.950 . S
C657 C652 1.363 . S
C657 C656 1.415 . S
H658 C655 0.999 . S
H659 C640 0.913 1_455 S
H660 C678 0.951 . S
H661 C680 0.951 . S
H662 C682 0.950 . S
H663 C683 0.950 . S
H664 C685 0.950 . S
H665 C688 0.950 . S
H666 C689 0.950 . S
H667 C691 0.950 . S
H668 C692 0.950 . S
H669 C693 0.951 . S
H670 C695 0.951 . S
H671 C697 0.950 . S
H672 C698 0.950 . S
H673 C700 0.950 . S
H674 C703 0.950 . S
H675 C704 0.950 . S
H676 C706 0.950 . S
H677 C707 0.950 . S
C678 H660 0.951 . S
C678 C679 1.366 . S
C678 C680 1.388 1_655 S
C679 C678 1.366 . S
C679 C683 1.385 . S
C680 H661 0.951 . S
C680 C678 1.388 1_455 S
C680 C681 1.366 . S
C681 C680 1.366 . S
C681 C682 1.414 . S
C681 C684 1.499 . S
C682 H662 0.950 . S
C682 C681 1.414 . S
C682 C683 1.374 1_455 S
C683 H663 0.950 . S
C683 C679 1.385 . S
C683 C682 1.374 1_655 S
C684 C681 1.499 . S
C684 C685 1.373 . S
C684 C686 1.389 . S
C685 H664 0.950 . S
C685 C684 1.373 . S
C685 C701 1.377 . S
C686 C684 1.389 . S
C686 C687 1.524 1_455 S
C686 C700 1.377 . S
C687 C686 1.524 1_655 S
C687 C688 1.397 . S
C687 C692 1.363 . S
C688 H665 0.950 . S
C688 C687 1.397 . S
C688 C689 1.334 . S
C689 H666 0.950 . S
C689 C688 1.334 . S
C689 C690 1.287 . S
C690 C689 1.287 . S
C690 C691 1.524 . S
C690 H709 0.913 . S
C691 H667 0.950 . S
C691 C690 1.524 . S
C691 C692 1.415 . S
C692 H668 0.950 . S
C692 C687 1.363 . S
C692 C691 1.415 . S
C693 H669 0.951 . S
C693 C694 1.366 . S
C693 C695 1.388 . S
C694 C693 1.366 . S
C694 C698 1.385 . S
C695 H670 0.951 . S
C695 C693 1.388 . S
C695 C696 1.366 . S
C696 C695 1.366 . S
C696 C697 1.414 . S
C696 C699 1.499 . S
C697 H671 0.950 . S
C697 C696 1.414 . S
C697 C698 1.374 . S
C698 H672 0.950 . S
C698 C694 1.385 . S
C698 C697 1.374 . S
C699 C696 1.499 . S
C699 C700 1.373 . S
C699 C701 1.389 . S
C700 H673 0.950 . S
C700 C686 1.377 . S
C700 C699 1.373 . S
C701 C685 1.377 . S
C701 C699 1.389 . S
C701 C702 1.524 . S
C702 C701 1.524 . S
C702 C703 1.397 . S
C702 C707 1.363 . S
C703 H674 0.950 . S
C703 C702 1.397 . S
C703 C704 1.334 . S
C704 H675 0.950 . S
C704 C703 1.334 . S
C704 C705 1.287 . S
C705 C704 1.287 . S
C705 C706 1.524 . S
C705 H708 0.999 . S
C706 H676 0.950 . S
C706 C705 1.524 . S
C706 C707 1.415 . S
C707 H677 0.950 . S
C707 C702 1.363 . S
C707 C706 1.415 . S
H708 C705 0.999 . S
H709 C690 0.913 . S
H710 C728 0.951 . S
H711 C730 0.951 . S
H712 C732 0.950 . S
H713 C733 0.950 . S
H714 C735 0.953 . S
H715 C738 0.950 . S
H716 C739 0.950 . S
H717 C741 0.950 . S
H718 C742 0.950 . S
H719 C743 0.951 . S
H720 C745 0.951 . S
H721 C747 0.950 . S
H722 C748 0.950 . S
H723 C750 0.950 . S
H724 C753 0.950 . S
H725 C754 0.950 . S
H726 C756 0.950 . S
H727 C757 0.950 . S
C728 H710 0.951 . S
C728 C729 1.366 . S
C728 C730 1.388 . S
C729 C728 1.366 . S
C729 C733 1.385 . S
C730 H711 0.951 . S
C730 C728 1.388 . S
C730 C731 1.366 . S
C731 C730 1.366 . S
C731 C732 1.414 . S
C731 C734 1.499 . S
C732 H712 0.950 . S
C732 C731 1.414 . S
C732 C733 1.374 . S
C733 H713 0.950 . S
C733 C729 1.385 . S
C733 C732 1.374 . S
C734 C731 1.499 . S
C734 C735 1.373 . S
C734 C736 1.389 . S
C735 H714 0.953 . S
C735 C734 1.373 . S
C735 C751 1.377 . S
C736 C734 1.389 . S
C736 C737 1.524 . S
C736 C750 1.377 . S
C737 C736 1.524 . S
C737 C738 1.397 . S
C737 C742 1.363 . S
C738 H715 0.950 . S
C738 C737 1.397 . S
C738 C739 1.334 . S
C739 H716 0.950 . S
C739 C738 1.334 . S
C739 C740 1.287 . S
C740 C739 1.287 . S
C740 C741 1.524 . S
C740 H759 0.913 . S
C741 H717 0.950 . S
C741 C740 1.524 . S
C741 C742 1.415 . S
C742 H718 0.950 . S
C742 C737 1.363 . S
C742 C741 1.415 . S
C743 H719 0.951 . S
C743 C744 1.366 . S
C743 C745 1.388 . S
C744 C743 1.366 . S
C744 C748 1.385 1_655 S
C745 H720 0.951 . S
C745 C743 1.388 . S
C745 C746 1.366 1_655 S
C746 C745 1.366 1_455 S
C746 C747 1.414 . S
C746 C749 1.499 . S
C747 H721 0.950 . S
C747 C746 1.414 . S
C747 C748 1.374 . S
C748 H722 0.950 . S
C748 C744 1.385 1_455 S
C748 C747 1.374 . S
C749 C746 1.499 . S
C749 C750 1.373 . S
C749 C751 1.389 . S
C750 H723 0.950 . S
C750 C736 1.377 . S
C750 C749 1.373 . S
C751 C735 1.377 . S
C751 C749 1.389 . S
C751 C752 1.524 1_455 S
C752 C751 1.524 1_655 S
C752 C753 1.397 . S
C752 C757 1.363 . S
C753 H724 0.950 . S
C753 C752 1.397 . S
C753 C754 1.334 . S
C754 H725 0.950 . S
C754 C753 1.334 . S
C754 C755 1.287 . S
C755 C754 1.287 . S
C755 C756 1.524 . S
C755 H758 0.999 . S
C756 H726 0.950 . S
C756 C755 1.524 . S
C756 C757 1.415 . S
C757 H727 0.950 . S
C757 C752 1.363 . S
C757 C756 1.415 . S
H758 C755 0.999 . S
H759 C740 0.913 . S
C179 C55 1.504 1_554 S
C194 C2 1.504 . S
C229 C82 1.504 . S
C244 C135 1.504 . S
C279 C15 1.504 1_554 S
C294 C42 1.504 . S
C329 C122 1.504 . S
C344 C95 1.504 . S
C379 C129 1.225 . S
C394 C22 1.224 . S
C429 C49 1.225 . S
C444 C102 1.224 . S
C479 C43 1.223 . S
C494 C106 1.224 . S
C529 C123 1.224 . S
C544 C26 1.225 . S
C579 C62 1.224 . S
C594 C89 1.225 . S
C629 C142 1.224 . S
C644 C9 1.225 . S
C679 C146 1.225 . S
C694 C3 1.224 . S
C729 C83 1.223 . S
C744 C66 1.224 . S
