# Generated by pormake.
# Topology bcu-j, (5)-cn, num edge types: 1
# Building blocks:
#     Node 0, Type 0, BuildingBlock: BEQFEK_clean_sbu_0, # of connection points: 5
#     Node 1, Type 0, BuildingBlock: BEQFEK_clean_sbu_0, # of connection points: 5
#     Node 2, Type 0, BuildingBlock: BEQFEK_clean_sbu_0, # of connection points: 5
#     Node 3, Type 0, BuildingBlock: BEQFEK_clean_sbu_0, # of connection points: 5
#     Node 4, Type 0, BuildingBlock: BEQFEK_clean_sbu_0, # of connection points: 5
#     Node 5, Type 0, BuildingBlock: BEQFEK_clean_sbu_0, # of connection points: 5
#     Node 6, Type 0, BuildingBlock: BEQFEK_clean_sbu_0, # of connection points: 5
#     Node 7, Type 0, BuildingBlock: BEQFEK_clean_sbu_0, # of connection points: 5
#     Node 8, Type 0, BuildingBlock: BEQFEK_clean_sbu_0, # of connection points: 5
#     Node 9, Type 0, BuildingBlock: BEQFEK_clean_sbu_0, # of connection points: 5
#     Node 10, Type 0, BuildingBlock: BEQFEK_clean_sbu_0, # of connection points: 5
#     Node 11, Type 0, BuildingBlock: BEQFEK_clean_sbu_0, # of connection points: 5
#     Node 12, Type 0, BuildingBlock: BEQFEK_clean_sbu_0, # of connection points: 5
#     Node 13, Type 0, BuildingBlock: BEQFEK_clean_sbu_0, # of connection points: 5
#     Node 14, Type 0, BuildingBlock: BEQFEK_clean_sbu_0, # of connection points: 5
#     Node 15, Type 0, BuildingBlock: BEQFEK_clean_sbu_0, # of connection points: 5
#     Edge 16, Type (0, 0), BuildingBlock: TEMPAE_clean_linker_10, # of connection points: 2
#     Edge 17, Type (0, 0), BuildingBlock: TEMPAE_clean_linker_10, # of connection points: 2
#     Edge 18, Type (0, 0), BuildingBlock: TEMPAE_clean_linker_10, # of connection points: 2
#     Edge 19, Type (0, 0), BuildingBlock: TEMPAE_clean_linker_10, # of connection points: 2
#     Edge 20, Type (0, 0), BuildingBlock: TEMPAE_clean_linker_10, # of connection points: 2
#     Edge 21, Type (0, 0), BuildingBlock: TEMPAE_clean_linker_10, # of connection points: 2
#     Edge 22, Type (0, 0), BuildingBlock: TEMPAE_clean_linker_10, # of connection points: 2
#     Edge 23, Type (0, 0), BuildingBlock: TEMPAE_clean_linker_10, # of connection points: 2
#     Edge 24, Type (0, 0), BuildingBlock: TEMPAE_clean_linker_10, # of connection points: 2
#     Edge 25, Type (0, 0), BuildingBlock: TEMPAE_clean_linker_10, # of connection points: 2
#     Edge 26, Type (0, 0), BuildingBlock: TEMPAE_clean_linker_10, # of connection points: 2
#     Edge 27, Type (0, 0), BuildingBlock: TEMPAE_clean_linker_10, # of connection points: 2
#     Edge 28, Type (0, 0), BuildingBlock: TEMPAE_clean_linker_10, # of connection points: 2
#     Edge 29, Type (0, 0), BuildingBlock: TEMPAE_clean_linker_10, # of connection points: 2
#     Edge 30, Type (0, 0), BuildingBlock: TEMPAE_clean_linker_10, # of connection points: 2
#     Edge 31, Type (0, 0), BuildingBlock: TEMPAE_clean_linker_10, # of connection points: 2
#     Edge 32, Type (0, 0), BuildingBlock: TEMPAE_clean_linker_10, # of connection points: 2
#     Edge 33, Type (0, 0), BuildingBlock: TEMPAE_clean_linker_10, # of connection points: 2
#     Edge 34, Type (0, 0), BuildingBlock: TEMPAE_clean_linker_10, # of connection points: 2
#     Edge 35, Type (0, 0), BuildingBlock: TEMPAE_clean_linker_10, # of connection points: 2
#     Edge 36, Type (0, 0), BuildingBlock: TEMPAE_clean_linker_10, # of connection points: 2
#     Edge 37, Type (0, 0), BuildingBlock: TEMPAE_clean_linker_10, # of connection points: 2
#     Edge 38, Type (0, 0), BuildingBlock: TEMPAE_clean_linker_10, # of connection points: 2
#     Edge 39, Type (0, 0), BuildingBlock: TEMPAE_clean_linker_10, # of connection points: 2
#     Edge 40, Type (0, 0), BuildingBlock: TEMPAE_clean_linker_10, # of connection points: 2
#     Edge 41, Type (0, 0), BuildingBlock: TEMPAE_clean_linker_10, # of connection points: 2
#     Edge 42, Type (0, 0), BuildingBlock: TEMPAE_clean_linker_10, # of connection points: 2
#     Edge 43, Type (0, 0), BuildingBlock: TEMPAE_clean_linker_10, # of connection points: 2
#     Edge 44, Type (0, 0), BuildingBlock: TEMPAE_clean_linker_10, # of connection points: 2
#     Edge 45, Type (0, 0), BuildingBlock: TEMPAE_clean_linker_10, # of connection points: 2
#     Edge 46, Type (0, 0), BuildingBlock: TEMPAE_clean_linker_10, # of connection points: 2
#     Edge 47, Type (0, 0), BuildingBlock: TEMPAE_clean_linker_10, # of connection points: 2
#     Edge 48, Type (0, 0), BuildingBlock: TEMPAE_clean_linker_10, # of connection points: 2
#     Edge 49, Type (0, 0), BuildingBlock: TEMPAE_clean_linker_10, # of connection points: 2
#     Edge 50, Type (0, 0), BuildingBlock: TEMPAE_clean_linker_10, # of connection points: 2
#     Edge 51, Type (0, 0), BuildingBlock: TEMPAE_clean_linker_10, # of connection points: 2
#     Edge 52, Type (0, 0), BuildingBlock: TEMPAE_clean_linker_10, # of connection points: 2
#     Edge 53, Type (0, 0), BuildingBlock: TEMPAE_clean_linker_10, # of connection points: 2
#     Edge 54, Type (0, 0), BuildingBlock: TEMPAE_clean_linker_10, # of connection points: 2
#     Edge 55, Type (0, 0), BuildingBlock: TEMPAE_clean_linker_10, # of connection points: 2
# Relax obj value: 0.917
# Max RMSD: 0.234
# Mean RMSD: 0.225
data_MOF--net-bcu-j--node1-BEQFEK_clean_sbu_0--edge1-TEMPAE_clean_linker_10
_symmetry_space_group_name_H-M    P1
_symmetry_Int_Tables_number       1
_symmetry_cell_setting            triclinic
loop_
_symmetry_equiv_pos_as_xyz
'x, y, z'
_cell_length_a     42.758923
_cell_length_b     42.693042
_cell_length_c     38.841183
_cell_angle_alpha  89.525342
_cell_angle_beta   90.379066
_cell_angle_gamma 90.24236
loop_
_atom_site_label
_atom_site_type_symbol
_atom_site_fract_x
_atom_site_fract_y
_atom_site_fract_z
_atom_type_partial_charge
Co0 Co 0.01331 0.12397 0.61744 0.0
Co1 Co 0.01813 0.16158 0.54801 0.0
C2 C 0.07194 0.15216 0.60027 0.0
O3 O 0.05551 0.14093 0.62459 0.0
O4 O 0.05944 0.1594 0.57151 0.0
C5 C 0.01357 0.10263 0.68687 0.0
O6 O 0.03429 0.12519 0.69048 0.0
C7 C 0.03714 0.2223 0.52499 0.0
C8 C 0.02322 0.22582 0.47033 0.0
C9 C 0.0379 0.24217 0.49668 0.0
N10 N 0.02321 0.19535 0.51594 0.0
N11 N 0.01489 0.19746 0.48315 0.0
C12 C 0.04705 0.22965 0.56114 0.0
H13 H 0.03334 0.21556 0.57987 0.0
H14 H 0.04393 0.25491 0.56662 0.0
H15 H 0.07213 0.22375 0.56456 0.0
C16 C 0.96178 0.16731 0.62831 0.0
N17 N 0.98362 0.15492 0.60791 0.0
N18 N 0.98482 0.17065 0.57876 0.0
C19 C 0.96337 0.19373 0.57967 0.0
C20 C 0.94812 0.19258 0.6112 0.0
C21 C 0.95843 0.15824 0.66549 0.0
H22 H 0.95195 0.13311 0.66732 0.0
H23 H 0.98124 0.16148 0.67876 0.0
H24 H 0.94063 0.17203 0.67909 0.0
O25 O 0.01789 0.09546 0.57874 0.0
O26 O 0.01464 0.11899 0.52742 0.0
H27 H 0.96147 0.20743 0.52644 0.0
H28 H 0.936 0.22951 0.55435 0.0
C29 C 0.95921 0.21815 0.5522 0.0
H30 H 0.97755 0.23639 0.55504 0.0
H31 H 0.00346 0.17973 0.46963 0.0
O32 O 0.00105 0.09823 0.65758 0.0
C33 C 0.01807 0.09438 0.54604 0.0
Co34 Co 0.40859 0.97685 0.64487 0.0
Co35 Co 0.3526 0.00299 0.6016 0.0
C36 C 0.39711 0.04636 0.63314 0.0
O37 O 0.41418 0.02344 0.64245 0.0
O38 O 0.37014 0.04174 0.62039 0.0
C39 C 0.43447 0.97803 0.70864 0.0
O40 O 0.41139 0.99822 0.70992 0.0
C41 C 0.2965 0.03854 0.59123 0.0
C42 C 0.27796 0.0233 0.5409 0.0
C43 C 0.27252 0.04375 0.5678 0.0
N44 N 0.31548 0.01647 0.57871 0.0
N45 N 0.30441 0.00744 0.54851 0.0
C46 C 0.30017 0.05245 0.62634 0.0
H47 H 0.31384 0.03664 0.64346 0.0
H48 H 0.27699 0.05685 0.63802 0.0
H49 H 0.31288 0.07506 0.62417 0.0
C50 C 0.35628 0.94397 0.68053 0.0
N51 N 0.36749 0.96287 0.65548 0.0
N52 N 0.34396 0.97294 0.63648 0.0
C53 C 0.31711 0.96073 0.64893 0.0
C54 C 0.32406 0.94228 0.67747 0.0
C55 C 0.37568 0.9281 0.70765 0.0
H56 H 0.39834 0.92063 0.69681 0.0
H57 H 0.38009 0.9446 0.72906 0.0
H58 H 0.36321 0.90735 0.71829 0.0
O59 O 0.42079 0.96246 0.59923 0.0
O60 O 0.38577 0.98992 0.56901 0.0
H61 H 0.26771 0.95066 0.6439 0.0
H62 H 0.27778 0.99142 0.64619 0.0
C63 C 0.28508 0.96854 0.63573 0.0
H64 H 0.28513 0.97 0.60726 0.0
H65 H 0.31483 0.99052 0.53319 0.0
O66 O 0.4386 0.96313 0.68088 0.0
C67 C 0.41135 0.97462 0.57099 0.0
Co68 Co 0.53408 0.39965 0.60889 0.0
Co69 Co 0.51619 0.34098 0.56495 0.0
C70 C 0.46984 0.39172 0.57919 0.0
O71 O 0.49048 0.40889 0.59365 0.0
O72 O 0.47629 0.36411 0.56937 0.0
C73 C 0.54709 0.46094 0.63579 0.0
O74 O 0.5394 0.47088 0.60481 0.0
C75 C 0.4845 0.28142 0.56432 0.0
C76 C 0.51109 0.25331 0.52727 0.0
C77 C 0.48793 0.25122 0.55208 0.0
N78 N 0.50539 0.30018 0.54857 0.0
N79 N 0.52079 0.28343 0.52583 0.0
C80 C 0.46246 0.29236 0.59153 0.0
H81 H 0.45026 0.31372 0.58247 0.0
H82 H 0.47584 0.29837 0.61515 0.0
H83 H 0.44444 0.27447 0.59767 0.0
C84 C 0.54499 0.35068 0.6616 0.0
N85 N 0.53684 0.36025 0.62971 0.0
N86 N 0.53571 0.33607 0.60907 0.0
C87 C 0.54464 0.31036 0.62685 0.0
C88 C 0.55018 0.31853 0.66093 0.0
C89 C 0.54607 0.37185 0.69212 0.0
H90 H 0.52967 0.39168 0.68838 0.0
H91 H 0.53983 0.35897 0.71605 0.0
H92 H 0.57009 0.38146 0.69503 0.0
O93 O 0.5626 0.39742 0.56957 0.0
O94 O 0.53869 0.36844 0.53122 0.0
H95 H 0.5579 0.28234 0.58364 0.0
H96 H 0.56987 0.26682 0.62509 0.0
C97 C 0.55095 0.27923 0.61089 0.0
H98 H 0.52966 0.26447 0.61205 0.0
H99 H 0.53919 0.29204 0.51095 0.0
O100 O 0.54774 0.43168 0.64184 0.0
C101 C 0.55184 0.39428 0.53929 0.0
Co102 Co 0.12088 0.51749 0.57327 0.0
Co103 Co 0.1751 0.50555 0.52151 0.0
C104 C 0.12508 0.45842 0.53114 0.0
O105 O 0.10991 0.47733 0.54989 0.0
O106 O 0.15237 0.46511 0.52028 0.0
C107 C 0.0804 0.50222 0.62528 0.0
O108 O 0.09264 0.47493 0.61788 0.0
C109 C 0.23413 0.47575 0.50876 0.0
C110 C 0.26107 0.51152 0.48025 0.0
C111 C 0.26413 0.4832 0.49777 0.0
N112 N 0.2147 0.49914 0.49968 0.0
N113 N 0.23073 0.52007 0.4817 0.0
C114 C 0.22395 0.44748 0.52896 0.0
H115 H 0.2175 0.45456 0.5554 0.0
H116 H 0.24236 0.42928 0.53002 0.0
H117 H 0.203 0.43702 0.51661 0.0
C118 C 0.17112 0.5211 0.62376 0.0
N119 N 0.16034 0.51479 0.59199 0.0
N120 N 0.18335 0.51637 0.56962 0.0
C121 C 0.20973 0.52442 0.58687 0.0
C122 C 0.20277 0.52718 0.62156 0.0
C123 C 0.15081 0.52572 0.65458 0.0
H124 H 0.13339 0.54423 0.64888 0.0
H125 H 0.13813 0.50363 0.66041 0.0
H126 H 0.1645 0.53278 0.67761 0.0
O127 O 0.12799 0.55251 0.54173 0.0
O128 O 0.14402 0.53247 0.49442 0.0
H129 H 0.23742 0.54245 0.54535 0.0
H130 H 0.25601 0.54527 0.58706 0.0
C131 C 0.24073 0.5306 0.57057 0.0
H132 H 0.25277 0.50808 0.56676 0.0
H133 H 0.22163 0.54133 0.47292 0.0
O134 O 0.08933 0.52626 0.60862 0.0
C135 C 0.12212 0.5457 0.51089 0.0
Co136 Co 0.97822 0.39983 0.85505 0.0
Co137 Co 0.98554 0.34107 0.90317 0.0
C138 C 0.0394 0.38575 0.88602 0.0
O139 O 0.02291 0.40225 0.86552 0.0
O140 O 0.02776 0.36207 0.90163 0.0
C141 C 0.97155 0.46202 0.83099 0.0
O142 O 0.98103 0.46862 0.86234 0.0
C143 C 0.01131 0.27829 0.90657 0.0
C144 C 0.98735 0.25639 0.95082 0.0
C145 C 0.00834 0.2502 0.92462 0.0
N146 N 0.99254 0.2997 0.92095 0.0
N147 N 0.97839 0.28653 0.94755 0.0
C148 C 0.03211 0.28516 0.8765 0.0
H149 H 0.03719 0.31051 0.87441 0.0
H150 H 0.02016 0.27804 0.85236 0.0
H151 H 0.05436 0.272 0.87891 0.0
C152 C 0.95426 0.35343 0.80711 0.0
N153 N 0.9665 0.36128 0.83776 0.0
N154 N 0.96637 0.3369 0.85859 0.0
C155 C 0.95268 0.31272 0.842 0.0
C156 C 0.94472 0.32239 0.80877 0.0
C157 C 0.95385 0.37491 0.77641 0.0
H158 H 0.97425 0.39103 0.77728 0.0
H159 H 0.95453 0.3616 0.75202 0.0
H160 H 0.93219 0.38912 0.77679 0.0
O161 O 0.95584 0.40767 0.89706 0.0
O162 O 0.95963 0.36789 0.93415 0.0
H163 H 0.92398 0.27122 0.84585 0.0
H164 H 0.96471 0.26548 0.85526 0.0
C165 C 0.94487 0.28181 0.85836 0.0
H166 H 0.94031 0.28477 0.8862 0.0
H167 H 0.96225 0.29792 0.96306 0.0
O168 O 0.96778 0.43356 0.82262 0.0
C169 C 0.94973 0.3952 0.92606 0.0
Co170 Co 0.09214 0.96763 0.90801 0.0
Co171 Co 0.15105 0.99848 0.94039 0.0
C172 C 0.10776 0.038 0.90349 0.0
O173 O 0.0898 0.01414 0.90169 0.0
O174 O 0.13577 0.03538 0.91449 0.0
C175 C 0.03222 0.96351 0.88202 0.0
O176 O 0.02662 0.97722 0.91147 0.0
C177 C 0.21195 0.02914 0.95097 0.0
C178 C 0.23462 0.99743 0.98863 0.0
C179 C 0.2404 0.02281 0.96706 0.0
N180 N 0.19078 0.00773 0.96149 0.0
N181 N 0.20433 0.98928 0.9846 0.0
C182 C 0.20457 0.0555 0.9266 0.0
H183 H 0.18274 0.06707 0.93487 0.0
H184 H 0.20064 0.04617 0.90035 0.0
H185 H 0.22347 0.07335 0.92606 0.0
C186 C 0.13911 0.93306 0.86937 0.0
N187 N 0.13087 0.95208 0.89515 0.0
N188 N 0.15604 0.96413 0.90946 0.0
C189 C 0.18134 0.95296 0.89303 0.0
C190 C 0.17141 0.93291 0.86707 0.0
C191 C 0.11638 0.91873 0.84458 0.0
H192 H 0.09755 0.90657 0.85902 0.0
H193 H 0.10548 0.93755 0.82875 0.0
H194 H 0.12808 0.90185 0.82736 0.0
O195 O 0.08373 0.95803 0.95616 0.0
O196 O 0.11672 0.9939 0.9756 0.0
H197 H 0.22149 0.96165 0.92463 0.0
H198 H 0.23079 0.95426 0.88034 0.0
C199 C 0.21381 0.96559 0.89767 0.0
H200 H 0.21387 0.9911 0.8923 0.0
H201 H 0.19343 0.96999 0.99608 0.0
O202 O 0.05905 0.95166 0.87768 0.0
C203 C 0.09176 0.97761 0.97901 0.0
Co204 Co 0.52602 0.10067 0.92068 0.0
Co205 Co 0.50013 0.15965 0.95734 0.0
C206 C 0.45707 0.11079 0.92944 0.0
O207 O 0.47999 0.09305 0.92227 0.0
O208 O 0.46162 0.13848 0.94048 0.0
C209 C 0.54732 0.03927 0.90162 0.0
O210 O 0.54034 0.0311 0.93335 0.0
C211 C 0.46829 0.21939 0.95681 0.0
C212 C 0.49253 0.24604 -0.00245 0.0
C213 C 0.47101 0.24907 0.97084 0.0
N214 N 0.48815 0.2001 0.97346 0.0
N215 N 0.50209 0.21596 -0.00167 0.0
C216 C 0.44745 0.20921 0.9278 0.0
H217 H 0.43334 0.18889 0.93639 0.0
H218 H 0.46191 0.20174 0.90573 0.0
H219 H 0.43087 0.22771 0.91957 0.0
C220 C 0.54727 0.14927 0.87131 0.0
N221 N 0.53516 0.14004 0.90167 0.0
N222 N 0.52892 0.16471 0.92033 0.0
C223 C 0.53844 0.19052 0.9031 0.0
C224 C 0.54965 0.18177 0.87109 0.0
C225 C 0.55261 0.12755 0.84186 0.0
H226 H 0.53609 0.10749 0.84316 0.0
H227 H 0.54956 0.13973 0.81674 0.0
H228 H 0.5768 0.11833 0.84353 0.0
O229 O 0.54399 0.09838 0.96724 0.0
O230 O 0.51283 0.13038 0.995 0.0
H231 H 0.54209 0.22242 0.94538 0.0
H232 H 0.55608 0.23786 0.90487 0.0
C233 C 0.53787 0.22303 0.91722 0.0
H234 H 0.51484 0.23383 0.91192 0.0
H235 H 0.5194 0.20678 0.01449 0.0
O236 O 0.54439 0.06773 0.89235 0.0
C237 C 0.52835 0.10495 0.99386 0.0
Co238 Co 0.40053 0.52824 0.8902 0.0
Co239 Co 0.33895 0.50215 0.922 0.0
C240 C 0.38371 0.45788 0.89892 0.0
O241 O 0.40221 0.48107 0.89455 0.0
O242 O 0.35503 0.46217 0.90581 0.0
C243 C 0.43091 0.52261 0.83063 0.0
O244 O 0.40609 0.50445 0.82825 0.0
C245 C 0.27976 0.47068 0.93875 0.0
C246 C 0.25059 0.51019 0.95541 0.0
C247 C 0.24928 0.47871 0.94702 0.0
N248 N 0.29793 0.49642 0.94094 0.0
N249 N 0.28046 0.5198 0.95172 0.0
C250 C 0.2916 0.43907 0.92895 0.0
H251 H 0.31405 0.43446 0.94249 0.0
H252 H 0.29584 0.4386 0.9008 0.0
H253 H 0.27475 0.42028 0.93596 0.0
C254 C 0.35586 0.56047 0.8444 0.0
N255 N 0.36243 0.543 0.87246 0.0
N256 N 0.33656 0.53031 0.88413 0.0
C257 C 0.3129 0.53756 0.86245 0.0
C258 C 0.32439 0.55705 0.83649 0.0
C259 C 0.37936 0.5796 0.82489 0.0
H260 H 0.39854 0.58725 0.84231 0.0
H261 H 0.38947 0.56553 0.80391 0.0
H262 H 0.36795 0.60038 0.81299 0.0
O263 O 0.4069 0.54475 0.93596 0.0
O264 O 0.37069 0.5135 0.95848 0.0
H265 H 0.26601 0.53388 0.88072 0.0
H266 H 0.27067 0.52076 0.83713 0.0
C267 C 0.28176 0.52132 0.863 0.0
H268 H 0.28453 0.49693 0.87243 0.0
H269 H 0.28847 0.54276 0.95442 0.0
O270 O 0.43473 0.53853 0.85785 0.0
C271 C 0.39579 0.52969 0.96148 0.0
Co272 Co 0.01065 0.89568 0.37147 0.0
Co273 Co 0.00815 0.83621 0.41941 0.0
C274 C 0.95207 0.87782 0.40617 0.0
O275 O 0.9662 0.89494 0.3843 0.0
O276 O 0.96586 0.85529 0.42149 0.0
C277 C 0.00178 0.95493 0.34019 0.0
O278 O 0.98435 0.9597 0.36737 0.0
C279 C 0.98087 0.77513 0.43306 0.0
C280 C 0.01806 0.74984 0.46132 0.0
C281 C 0.98889 0.74586 0.44608 0.0
N282 N 0.00456 0.79515 0.43925 0.0
N283 N 0.02651 0.78007 0.45676 0.0
C284 C 0.95102 0.78449 0.41538 0.0
H285 H 0.93987 0.80341 0.43023 0.0
H286 H 0.95627 0.79385 0.38929 0.0
H287 H 0.93395 0.76499 0.4137 0.0
C288 C 0.03313 0.85053 0.32168 0.0
N289 N 0.02317 0.85769 0.35335 0.0
N290 N 0.02288 0.8324 0.37291 0.0
C291 C 0.03293 0.80806 0.35393 0.0
C292 C 0.03967 0.81886 0.3209 0.0
C293 C 0.03664 0.87391 0.29297 0.0
H294 H 0.05214 0.89327 0.30157 0.0
H295 H 0.01345 0.88406 0.28658 0.0
H296 H 0.0468 0.86332 0.26962 0.0
O297 O 0.03555 0.90563 0.41176 0.0
O298 O 0.03544 0.86456 0.4475 0.0
H299 H 0.04685 0.77351 0.39111 0.0
H300 H 0.04526 0.75919 0.34752 0.0
C301 C 0.03394 0.7748 0.36632 0.0
H302 H 0.00975 0.76628 0.37048 0.0
H303 H 0.04784 0.78999 0.46414 0.0
O304 O 0.01627 0.92922 0.33743 0.0
C305 C 0.04382 0.8925 0.43983 0.0
Co306 Co 0.60056 0.01435 0.40506 0.0
Co307 Co 0.66104 0.00202 0.44785 0.0
C308 C 0.60893 0.95664 0.44973 0.0
O309 O 0.59178 0.97567 0.43266 0.0
O310 O 0.63777 0.96244 0.45535 0.0
C311 C 0.5409 0.00744 0.37321 0.0
O312 O 0.53671 0.98637 0.39758 0.0
C313 C 0.72018 0.9712 0.45891 0.0
C314 C 0.74663 0.00384 0.492 0.0
C315 C 0.74919 0.97566 0.4746 0.0
N316 N 0.70174 0.99552 0.46658 0.0
N317 N 0.71746 0.01479 0.48677 0.0
C318 C 0.71056 0.94602 0.4343 0.0
H319 H 0.68983 0.95329 0.41899 0.0
H320 H 0.72995 0.94034 0.4166 0.0
H321 H 0.7042 0.92459 0.44906 0.0
C322 C 0.64292 0.01026 0.3469 0.0
N323 N 0.637 0.00894 0.38076 0.0
N324 N 0.66334 0.00956 0.39848 0.0
C325 C 0.6872 0.01189 0.37592 0.0
C326 C 0.67499 0.01227 0.34257 0.0
C327 C 0.61812 0.00897 0.31949 0.0
H328 H 0.5989 0.9931 0.3277 0.0
H329 H 0.62769 0.00058 0.29475 0.0
H330 H 0.60827 0.03274 0.31551 0.0
O331 O 0.61108 0.0508 0.43238 0.0
O332 O 0.63531 0.03147 0.47661 0.0
H333 H 0.72286 0.0268 0.41163 0.0
H334 H 0.73307 0.03101 0.36668 0.0
C335 C 0.72083 0.01602 0.38585 0.0
H336 H 0.73251 0.9929 0.38635 0.0
H337 H 0.70865 0.03586 0.49599 0.0
O338 O 0.56597 0.02347 0.37295 0.0
C339 C 0.61169 0.04591 0.4644 0.0
Co340 Co 0.49006 0.60657 0.41585 0.0
Co341 Co 0.50359 0.6596 0.46706 0.0
C342 C 0.5504 0.61239 0.45916 0.0
O343 O 0.53019 0.59721 0.4415 0.0
O344 O 0.54518 0.64033 0.46887 0.0
C345 C 0.5102 0.56669 0.36468 0.0
O346 O 0.53703 0.57869 0.37481 0.0
C347 C 0.52779 0.71676 0.49836 0.0
C348 C 0.48447 0.74268 0.50908 0.0
C349 C 0.51671 0.74605 0.50765 0.0
N350 N 0.50325 0.69755 0.49308 0.0
N351 N 0.47745 0.7129 0.50062 0.0
C352 C 0.56115 0.70717 0.49376 0.0
H353 H 0.5654 0.6851 0.50827 0.0
H354 H 0.5657 0.70253 0.46619 0.0
H355 H 0.57764 0.72529 0.50334 0.0
C356 C 0.48964 0.65704 0.36482 0.0
N357 N 0.49175 0.64628 0.3973 0.0
N358 N 0.49568 0.66968 0.4187 0.0
C359 C 0.49733 0.69647 0.39982 0.0
C360 C 0.49372 0.68917 0.3651 0.0
C361 C 0.48264 0.63698 0.33423 0.0
H362 H 0.46472 0.61917 0.34094 0.0
H363 H 0.50428 0.62476 0.32641 0.0
H364 H 0.4739 0.65115 0.31213 0.0
O365 O 0.4537 0.6079 0.44538 0.0
O366 O 0.47842 0.62451 0.49056 0.0
H367 H 0.48803 0.73477 0.43323 0.0
H368 H 0.50762 0.74609 0.39396 0.0
C369 C 0.50582 0.72776 0.41421 0.0
H370 H 0.5287 0.72596 0.42747 0.0
H371 H 0.45493 0.70387 0.49727 0.0
O372 O 0.48523 0.5755 0.37904 0.0
C373 C 0.46127 0.60368 0.47648 0.0
Co374 Co 0.89433 0.46744 0.40006 0.0
Co375 Co 0.84338 0.49009 0.45124 0.0
C376 C 0.88261 0.53628 0.41804 0.0
O377 O 0.89843 0.5136 0.40638 0.0
O378 O 0.85699 0.53137 0.43365 0.0
C379 C 0.91584 0.47774 0.33541 0.0
O380 O 0.89099 0.49566 0.33715 0.0
C381 C 0.78838 0.52026 0.47988 0.0
C382 C 0.76663 0.48233 0.51038 0.0
C383 C 0.76114 0.51206 0.49707 0.0
N384 N 0.80831 0.496 0.48134 0.0
N385 N 0.7956 0.47377 0.50066 0.0
C386 C 0.79558 0.55083 0.46243 0.0
H387 H 0.81886 0.55918 0.47117 0.0
H388 H 0.79624 0.54749 0.43414 0.0
H389 H 0.77823 0.56909 0.46879 0.0
C390 C 0.83861 0.44172 0.36397 0.0
N391 N 0.85262 0.45507 0.39141 0.0
N392 N 0.83118 0.4644 0.41312 0.0
C393 C 0.80275 0.45794 0.39959 0.0
C394 C 0.8064 0.44415 0.36755 0.0
C395 C 0.85571 0.42988 0.33321 0.0
H396 H 0.88016 0.42406 0.34004 0.0
H397 H 0.85516 0.44783 0.31239 0.0
H398 H 0.84459 0.40833 0.32323 0.0
O399 O 0.9099 0.44726 0.44186 0.0
O400 O 0.882 0.47648 0.47696 0.0
H401 H 0.7712 0.45671 0.44192 0.0
H402 H 0.75205 0.458 0.40081 0.0
C403 C 0.77241 0.4669 0.4157 0.0
H404 H 0.771 0.49275 0.41745 0.0
H405 H 0.80559 0.45183 0.50494 0.0
O406 O 0.9224 0.45999 0.36083 0.0
C407 C 0.90653 0.46055 0.47071 0.0
Co408 Co 0.0177 0.60407 0.08545 0.0
Co409 Co 0.98866 0.65998 0.04512 0.0
C410 C 0.94858 0.62598 0.08945 0.0
O411 O 0.97123 0.60684 0.09296 0.0
O412 O 0.95256 0.65226 0.07446 0.0
C413 C 0.0228 0.58258 0.15121 0.0
O414 O 0.00978 0.61021 0.15464 0.0
C415 C 0.95881 0.71774 0.01967 0.0
C416 C 0.99217 0.7345 0.98043 0.0
C417 C 0.96508 0.74261 -0.00249 0.0
N418 N 0.98148 0.69621 0.01645 0.0
N419 N 0.00111 0.7062 0.99255 0.0
C420 C 0.93106 0.71386 0.04264 0.0
H421 H 0.9202 0.69067 0.03789 0.0
H422 H 0.9387 0.71466 0.06996 0.0
H423 H 0.9132 0.73215 0.03777 0.0
C424 C 0.05928 0.65359 0.11154 0.0
N425 N 0.03786 0.64305 0.08891 0.0
N426 N 0.02427 0.667 0.07372 0.0
C427 C 0.03523 0.69361 0.0879 0.0
C428 C 0.05753 0.686 0.11291 0.0
C429 C 0.07935 0.63308 0.13393 0.0
H430 H 0.08242 0.6098 0.12198 0.0
H431 H 0.06861 0.63 0.15962 0.0
H432 H 0.10255 0.64432 0.13791 0.0
O433 O 0.02296 0.58698 0.03994 0.0
O434 O 0.98901 0.62034 0.01695 0.0
H435 H 0.02357 0.73288 0.05598 0.0
H436 H 0.02894 0.74273 0.10066 0.0
C437 C 0.01975 0.72474 0.08281 0.0
H438 H 0.99419 0.72212 0.08661 0.0
H439 H 0.02129 0.69428 0.98549 0.0
O440 O 0.03131 0.57417 0.12144 0.0
C441 C 0.00328 0.59411 0.01659 0.0
Co442 Co 0.87183 0.00645 0.06871 0.0
Co443 Co 0.81882 0.00195 0.01655 0.0
C444 C 0.86501 0.95319 0.01757 0.0
O445 O 0.88151 0.97099 0.03681 0.0
O446 O 0.83674 0.95984 0.01 0.0
C447 C 0.92374 0.98847 0.1096 0.0
O448 O 0.9218 0.96285 0.09122 0.0
C449 C 0.7581 0.98278 0.991 0.0
C450 C 0.74137 0.02372 0.96121 0.0
C451 C 0.73234 0.99421 0.97285 0.0
N452 N 0.78101 0.00439 0.99007 0.0
N453 N 0.77109 0.02868 0.97181 0.0
C454 C 0.75997 0.95356 0.01259 0.0
H455 H 0.77878 0.95555 0.03223 0.0
H456 H 0.73742 0.9488 0.02563 0.0
H457 H 0.76546 0.93343 0.99581 0.0
C458 C 0.823 0.00152 0.11969 0.0
N459 N 0.83295 0.00071 0.08709 0.0
N460 N 0.80945 0.00515 0.06559 0.0
C461 C 0.78326 0.00908 0.08442 0.0
C462 C 0.79112 0.00697 0.11923 0.0
C463 C 0.84413 0.99837 0.15041 0.0
H464 H 0.86284 0.98119 0.14508 0.0
H465 H 0.83096 0.99067 0.17353 0.0
H466 H 0.85533 0.02135 0.15567 0.0
O467 O 0.86603 0.04681 0.04684 0.0
O468 O 0.8546 0.02879 -0.00313 0.0
H469 H 0.73869 0.03215 0.08821 0.0
H470 H 0.73819 0.99586 0.06531 0.0
C471 C 0.7519 0.01754 0.06985 0.0
H472 H 0.75452 0.03046 0.04518 0.0
H473 H 0.78403 0.04916 0.96792 0.0
O474 O 0.9044 0.01044 0.10425 0.0
C475 C 0.87332 0.04441 0.0158 0.0
Co476 Co 0.48082 0.89654 0.09453 0.0
Co477 Co 0.48723 0.84232 0.04225 0.0
C478 C 0.53048 0.89478 0.03824 0.0
O479 O 0.51444 0.90865 0.06109 0.0
O480 O 0.52466 0.86668 0.02928 0.0
C481 C 0.5025 0.9429 0.13897 0.0
O482 O 0.52872 0.93607 0.12336 0.0
C483 C 0.51146 0.78486 0.01242 0.0
C484 C 0.46853 0.75677 0.00522 0.0
C485 C 0.50091 0.75479 0.00484 0.0
N486 N 0.4866 0.80313 0.01852 0.0
N487 N 0.46096 0.78645 0.0131 0.0
C488 C 0.54461 0.7962 0.01471 0.0
H489 H 0.54706 0.81817 -0.00046 0.0
H490 H 0.5506 0.80161 0.04186 0.0
H491 H 0.56123 0.77877 0.00445 0.0
C492 C 0.49377 0.84856 0.14601 0.0
N493 N 0.49075 0.85834 0.11324 0.0
N494 N 0.48997 0.83425 0.09226 0.0
C495 C 0.4932 0.80792 0.11166 0.0
C496 C 0.49584 0.81625 0.14621 0.0
C497 C 0.49073 0.8696 0.17651 0.0
H498 H 0.46993 0.88474 0.17314 0.0
H499 H 0.51171 0.88488 0.17826 0.0
H500 H 0.48813 0.85628 0.20095 0.0
O501 O 0.44059 0.88643 0.07405 0.0
O502 O 0.45381 0.87212 0.02344 0.0
H503 H 0.47425 0.77092 0.08104 0.0
H504 H 0.4965 0.75744 0.11802 0.0
C505 C 0.495 0.77554 0.09748 0.0
H506 H 0.51621 0.77373 0.08156 0.0
H507 H 0.43837 0.79465 0.01734 0.0
O508 O 0.47754 0.92884 0.13014 0.0
C509 C 0.44108 0.89254 0.04238 0.0
Co510 Co 0.59563 0.48911 0.10272 0.0
Co511 Co 0.65266 0.50139 0.05548 0.0
C512 C 0.60013 0.54655 0.05779 0.0
O513 O 0.5843 0.5276 0.07631 0.0
O514 O 0.6283 0.54061 0.04965 0.0
C515 C 0.53733 0.49241 0.13642 0.0
O516 O 0.53139 0.51312 0.1121 0.0
C517 C 0.71232 0.53188 0.05176 0.0
C518 C 0.74047 0.50193 0.018 0.0
C519 C 0.74247 0.52727 0.0401 0.0
N520 N 0.69356 0.50976 0.03823 0.0
N521 N 0.71037 0.49218 0.01756 0.0
C522 C 0.70149 0.5564 0.07635 0.0
H523 H 0.67759 0.56417 0.06963 0.0
H524 H 0.70096 0.54648 0.10281 0.0
H525 H 0.71732 0.57706 0.076 0.0
C526 C 0.64176 0.48995 0.1573 0.0
N527 N 0.63334 0.49534 0.12446 0.0
N528 N 0.65753 0.49206 0.10416 0.0
C529 C 0.6823 0.48328 0.12357 0.0
C530 C 0.67327 0.48191 0.15801 0.0
C531 C 0.61944 0.49169 0.18678 0.0
H532 H 0.6008 0.50899 0.18095 0.0
H533 H 0.63177 0.49847 0.21084 0.0
H534 H 0.60818 0.46848 0.19069 0.0
O535 O 0.60659 0.4532 0.07464 0.0
O536 O 0.62572 0.47164 0.02741 0.0
H537 H 0.72238 0.45275 0.12511 0.0
H538 H 0.72965 0.4914 0.10831 0.0
C539 C 0.71249 0.4719 0.10896 0.0
H540 H 0.70882 0.46319 0.08243 0.0
H541 H 0.70176 0.47253 0.00475 0.0
O542 O 0.56331 0.47817 0.13638 0.0
C543 C 0.60357 0.45724 0.04266 0.0
C544 C 0.02433 0.0828 0.74618 0.0
C545 C 0.00651 0.08125 0.71588 0.0
C546 C 0.02046 0.06058 0.77249 0.0
C547 C 0.99792 0.0364 0.76853 0.0
C548 C 0.97839 0.03592 0.73903 0.0
C549 C 0.98312 0.05823 0.71282 0.0
C550 C 0.04154 0.0622 0.80385 0.0
C551 C 0.95346 0.01117 0.7343 0.0
C552 C 0.0261 0.96639 0.81834 0.0
C553 C 0.01435 0.97328 0.85104 0.0
C554 C 0.01816 0.98494 0.78975 0.0
C555 C 0.99742 0.01035 0.79399 0.0
C556 C 0.98157 0.01399 0.82552 0.0
C557 C 0.99032 0.99538 0.85386 0.0
C558 C 0.03519 0.97989 0.75633 0.0
C559 C 0.9581 0.03982 0.83049 0.0
H560 H 0.04221 0.10071 0.74888 0.0
H561 H 0.96893 0.05718 0.68963 0.0
H562 H 0.02729 0.06285 0.82756 0.0
H563 H 0.05636 0.04095 0.80538 0.0
H564 H 0.05705 0.08315 0.8035 0.0
H565 H 0.93507 0.01903 0.71585 0.0
H566 H 0.96423 0.98968 0.72389 0.0
H567 H 0.94227 0.00489 0.75913 0.0
H568 H 0.04402 0.9487 0.81569 0.0
H569 H 0.98039 1.00025 0.87877 0.0
H570 H 0.05322 0.99844 0.75307 0.0
H571 H 0.01885 0.98156 0.73413 0.0
H572 H 0.04696 0.95675 0.75573 0.0
H573 H 0.97063 0.06237 0.83421 0.0
H574 H 0.94326 0.03542 0.85341 0.0
H575 H 0.94285 0.04241 0.80743 0.0
C576 C 0.48285 0.95603 0.73683 0.0
C577 C 0.45577 0.97441 0.7385 0.0
C578 C 0.50484 0.95601 0.76393 0.0
C579 C 0.49973 0.97525 0.79286 0.0
C580 C 0.47134 0.9921 0.79556 0.0
C581 C 0.44972 0.99125 0.76848 0.0
C582 C 0.53404 0.93663 0.76047 0.0
C583 C 0.4645 0.01277 0.82607 0.0
C584 C 0.53541 0.98577 0.87952 0.0
C585 C 0.54857 0.01555 0.87422 0.0
C586 C 0.52365 0.96866 0.85153 0.0
C587 C 0.52501 0.98205 0.81812 0.0
C588 C 0.54392 0.00883 0.81231 0.0
C589 C 0.55569 0.02527 0.84061 0.0
C590 C 0.50586 0.93873 0.85834 0.0
C591 C 0.54735 0.02312 0.77686 0.0
H592 H 0.48744 0.94249 0.71393 0.0
H593 H 0.42854 0.005 0.77029 0.0
H594 H 0.55127 0.94967 0.74458 0.0
H595 H 0.54496 0.93114 0.78579 0.0
H596 H 0.52873 0.91433 0.74704 0.0
H597 H 0.44102 0.02373 0.82435 0.0
H598 H 0.46571 0.99894 0.85032 0.0
H599 H 0.48225 0.03175 0.82777 0.0
H600 H 0.53106 0.9774 0.90545 0.0
H601 H 0.56714 0.04768 0.8364 0.0
H602 H 0.50787 0.92243 0.83636 0.0
H603 H 0.48073 0.94416 0.86186 0.0
H604 H 0.51445 0.92692 0.88217 0.0
H605 H 0.55219 0.00477 0.75762 0.0
H606 H 0.56644 0.04084 0.77597 0.0
H607 H 0.52514 0.03479 0.76932 0.0
C608 C 0.48169 0.54044 0.80436 0.0
C609 C 0.45348 0.52366 0.80203 0.0
C610 C 0.50398 0.53888 0.77793 0.0
C611 C 0.49793 0.5197 0.74904 0.0
C612 C 0.46882 0.50396 0.74599 0.0
C613 C 0.44698 0.50633 0.77236 0.0
C614 C 0.5343 0.55672 0.78185 0.0
C615 C 0.46112 0.48329 0.71558 0.0
C616 C 0.53276 0.51222 0.66179 0.0
C617 C 0.546 0.48237 0.66543 0.0
C618 C 0.52101 0.52786 0.69057 0.0
C619 C 0.52237 0.51296 0.72322 0.0
C620 C 0.54055 0.48559 0.72764 0.0
C621 C 0.55231 0.47063 0.69857 0.0
C622 C 0.50342 0.55807 0.68525 0.0
C623 C 0.54351 0.46946 0.76222 0.0
H624 H 0.48672 0.55416 0.82711 0.0
H625 H 0.42504 0.49369 0.77007 0.0
H626 H 0.55153 0.54178 0.79566 0.0
H627 H 0.54432 0.56343 0.75655 0.0
H628 H 0.53095 0.57821 0.79731 0.0
H629 H 0.43721 0.4731 0.71707 0.0
H630 H 0.46288 0.49692 0.69124 0.0
H631 H 0.47811 0.46376 0.71427 0.0
H632 H 0.52874 0.52201 0.63634 0.0
H633 H 0.56362 0.44808 0.70165 0.0
H634 H 0.50651 0.57374 0.70769 0.0
H635 H 0.47809 0.55286 0.68246 0.0
H636 H 0.51125 0.57053 0.66159 0.0
H637 H 0.54817 0.48673 0.78279 0.0
H638 H 0.56252 0.45179 0.76248 0.0
H639 H 0.52118 0.45733 0.76832 0.0
C640 C 0.99901 0.5073 0.80463 0.0
C641 C 0.9747 0.48526 0.80313 0.0
C642 C 0.01141 0.51998 0.77423 0.0
C643 C 0.99864 0.51058 0.7422 0.0
C644 C 0.97031 0.49339 0.74131 0.0
C645 C 0.95884 0.48043 0.77195 0.0
C646 C 0.04118 0.53898 0.77631 0.0
C647 C 0.95501 0.48443 0.7077 0.0
C648 C 0.04101 0.53196 0.65942 0.0
C649 C 0.05909 0.505 0.65469 0.0
C650 C 0.02088 0.53438 0.68772 0.0
C651 C 0.01939 0.50945 0.71187 0.0
C652 C 0.03799 0.48239 0.70731 0.0
C653 C 0.05732 0.48043 0.67862 0.0
C654 C 0.00077 0.56314 0.69109 0.0
C655 C 0.03761 0.45533 0.73274 0.0
H656 H 0.01097 0.51153 0.82886 0.0
H657 H 0.93945 0.46398 0.77098 0.0
H658 H 0.06146 0.52325 0.77251 0.0
H659 H 0.04186 0.55729 0.75591 0.0
H660 H 0.04385 0.5503 0.80182 0.0
H661 H 0.92998 0.4782 0.7113 0.0
H662 H 0.95676 0.50379 0.68858 0.0
H663 H 0.96711 0.46374 0.69703 0.0
H664 H 0.04233 0.55102 0.64088 0.0
H665 H 0.07147 0.45968 0.67524 0.0
H666 H 0.99871 0.57043 0.71832 0.0
H667 H 0.97687 0.5577 0.68151 0.0
H668 H 0.01007 0.58312 0.67571 0.0
H669 H 0.04315 0.46379 0.75902 0.0
H670 H 0.05469 0.43682 0.72614 0.0
H671 H 0.01397 0.44455 0.73342 0.0
C672 C 0.96789 0.98571 0.30089 0.0
C673 C 0.99762 0.97414 0.309 0.0
C674 C 0.96042 0.99457 0.26705 0.0
C675 C 0.98365 0.9927 0.24131 0.0
C676 C 0.01481 0.98534 0.25056 0.0
C677 C 0.02134 0.97545 0.28431 0.0
C678 C 0.92682 0.00214 0.25821 0.0
C679 C 0.04055 0.98493 0.22419 0.0
C680 C 0.95139 0.96178 0.15764 0.0
C681 C 0.94415 0.98957 0.14011 0.0
C682 C 0.96565 0.96253 0.19012 0.0
C683 C 0.97383 0.9918 0.20471 0.0
C684 C 0.96918 0.01977 0.18564 0.0
C685 C 0.95371 0.01838 0.15374 0.0
C686 C 0.96986 0.93209 0.20977 0.0
C687 C 0.97896 0.05125 0.19951 0.0
H688 H 0.94956 0.98472 0.32003 0.0
H689 H 0.0445 0.96687 0.29082 0.0
H690 H 0.92548 0.02361 0.24206 0.0
H691 H 0.9165 0.98264 0.24312 0.0
H692 H 0.91239 0.00557 0.28155 0.0
H693 H 0.064 0.98663 0.23655 0.0
H694 H 0.03945 0.96267 0.2097 0.0
H695 H 0.03783 0.00449 0.20542 0.0
H696 H 0.94398 0.93951 0.14706 0.0
H697 H 0.94843 0.03988 0.13988 0.0
H698 H 0.9557 0.93246 0.23362 0.0
H699 H 0.99465 0.92913 0.21759 0.0
H700 H 0.96268 0.91139 0.19443 0.0
H701 H 0.96033 0.06035 0.2164 0.0
H702 H 0.9826 0.06854 0.17835 0.0
H703 H 0.0008 0.0495 0.21499 0.0
C704 C 0.5077 0.97805 0.33204 0.0
C705 C 0.52197 0.0063 0.34149 0.0
C706 C 0.49853 0.97294 0.29789 0.0
C707 C 0.50293 0.99707 0.27312 0.0
C708 C 0.51315 0.02704 0.28367 0.0
C709 C 0.5231 0.0312 0.31778 0.0
C710 C 0.48778 0.94055 0.28766 0.0
C711 C 0.51652 0.05379 0.25833 0.0
C712 C 0.53122 0.96552 0.18861 0.0
C713 C 0.50308 0.96186 0.17044 0.0
C714 C 0.53161 0.97844 0.22155 0.0
C715 C 0.50323 0.98882 0.23617 0.0
C716 C 0.47519 0.98774 0.21671 0.0
C717 C 0.47533 0.97367 0.1842 0.0
C718 C 0.56207 0.97893 0.24158 0.0
C719 C 0.44478 0.99986 0.23077 0.0
H720 H 0.50658 0.95882 0.35039 0.0
H721 H 0.53362 0.0533 0.32527 0.0
H722 H 0.46665 0.94187 0.27107 0.0
H723 H 0.50643 0.92908 0.27258 0.0
H724 H 0.48245 0.92552 0.31038 0.0
H725 H 0.51688 0.07677 0.27155 0.0
H726 H 0.5388 0.05134 0.24416 0.0
H727 H 0.49715 0.05365 0.23915 0.0
H728 H 0.55273 0.95647 0.17802 0.0
H729 H 0.45355 0.97115 0.17003 0.0
H730 H 0.56003 0.96377 0.26482 0.0
H731 H 0.5674 0.003 0.25045 0.0
H732 H 0.5821 0.9706 0.22611 0.0
H733 H 0.43395 0.98163 0.24741 0.0
H734 H 0.42796 0.00556 0.20973 0.0
H735 H 0.44861 0.02106 0.24661 0.0
C736 C 0.53401 0.54663 0.31134 0.0
C737 C 0.50874 0.54681 0.33399 0.0
C738 C 0.53188 0.53125 0.27984 0.0
C739 C 0.50395 0.51502 0.27117 0.0
C740 C 0.47912 0.51326 0.29498 0.0
C741 C 0.48164 0.52964 0.32605 0.0
C742 C 0.55904 0.53373 0.25516 0.0
C743 C 0.44945 0.4953 0.28733 0.0
C744 C 0.49919 0.51722 0.17541 0.0
C745 C 0.51851 0.49178 0.16798 0.0
C746 C 0.49031 0.5231 0.20934 0.0
C747 C 0.50058 0.50262 0.2359 0.0
C748 C 0.51521 0.4741 0.22753 0.0
C749 C 0.52442 0.46912 0.1935 0.0
C750 C 0.47399 0.55347 0.2172 0.0
C751 C 0.52475 0.45081 0.25502 0.0
H752 H 0.55504 0.55979 0.31747 0.0
H753 H 0.46219 0.52941 0.34383 0.0
H754 H 0.56759 0.51005 0.24859 0.0
H755 H 0.55135 0.54527 0.23085 0.0
H756 H 0.57895 0.54735 0.26597 0.0
H757 H 0.43818 0.48703 0.31146 0.0
H758 H 0.43269 0.51094 0.27377 0.0
H759 H 0.45384 0.47482 0.27068 0.0
H760 H 0.49388 0.53442 0.15554 0.0
H761 H 0.53852 0.44884 0.18756 0.0
H762 H 0.49116 0.57026 0.22825 0.0
H763 H 0.45535 0.54968 0.23649 0.0
H764 H 0.46347 0.56428 0.19374 0.0
H765 H 0.5472 0.4584 0.26684 0.0
H766 H 0.52812 0.42709 0.24412 0.0
H767 H 0.50698 0.44945 0.27569 0.0
C768 C 0.92576 0.49477 0.27545 0.0
C769 C 0.9371 0.48126 0.30597 0.0
C770 C 0.94622 0.50478 0.24967 0.0
C771 C 0.97887 0.50124 0.25468 0.0
C772 C 0.99028 0.4849 0.284 0.0
C773 C 0.96914 0.47504 0.30947 0.0
C774 C 0.93292 0.52161 0.21848 0.0
C775 C 0.02483 0.48003 0.28991 0.0
C776 C 0.01966 0.52777 0.17395 0.0
C777 C 0.02144 0.56006 0.18009 0.0
C778 C 0.00913 0.5071 0.19973 0.0
C779 C 0.00028 0.51924 0.232 0.0
C780 C 0.00599 0.55116 0.23953 0.0
C781 C 0.01649 0.57122 0.21338 0.0
C782 C 0.00434 0.47302 0.19114 0.0
C783 C 0.99752 0.56497 0.27391 0.0
H784 H 0.9009 0.49903 0.27246 0.0
H785 H 0.97796 0.4644 0.33302 0.0
H786 H 0.93934 0.54681 0.21952 0.0
H787 H 0.94283 0.51198 0.1945 0.0
H788 H 0.90702 0.51974 0.217 0.0
H789 H 0.02922 0.45992 0.3076 0.0
H790 H 0.0372 0.47597 0.26534 0.0
H791 H 0.03501 0.50132 0.30182 0.0
H792 H 0.02387 0.51897 0.1483 0.0
H793 H 0.01857 0.59611 0.21837 0.0
H794 H 0.97956 0.46911 0.18362 0.0
H795 H 0.00947 0.45779 0.21375 0.0
H796 H 0.01932 0.46583 0.16934 0.0
H797 H 0.97169 0.56648 0.27592 0.0
H798 H 0.00746 0.58885 0.27726 0.0
H799 H 0.00598 0.54983 0.29532 0.0
C800 C 0.03784 0.91759 0.49593 0.0
C801 C 0.05574 0.91387 0.46623 0.0
C802 C 0.03623 0.94685 0.51197 0.0
C803 C 0.05349 0.97239 0.49823 0.0
C804 C 0.0752 0.9673 0.47158 0.0
C805 C 0.07605 0.93794 0.45581 0.0
C806 C 0.01319 0.95125 0.5408 0.0
C807 C 0.09477 0.99365 0.45691 0.0
C808 C 0.01381 0.05181 0.50204 0.0
C809 C 0.02823 0.06461 0.53108 0.0
C810 C 0.02218 0.02179 0.49075 0.0
C811 C 0.04587 0.00481 0.50863 0.0
C812 C 0.06145 0.01844 0.53692 0.0
C813 C 0.0523 0.04808 0.5479 0.0
C814 C 0.00509 0.00784 0.46035 0.0
C815 C 0.08734 0.00153 0.556 0.0
H816 H 0.02194 0.89906 0.50382 0.0
H817 H 0.08987 0.93497 0.43275 0.0
H818 H 0.02364 0.96545 0.56174 0.0
H819 H 0.99247 0.96408 0.5308 0.0
H820 H 0.00515 0.92851 0.55177 0.0
H821 H 0.1146 0.98469 0.44154 0.0
H822 H 0.07995 0.00844 0.43982 0.0
H823 H 0.10416 0.00883 0.47762 0.0
H824 H 0.9953 0.06469 0.48909 0.0
H825 H 0.06394 0.05837 0.57003 0.0
H826 H 0.99275 0.98611 0.46848 0.0
H827 H 0.02201 0.00128 0.44013 0.0
H828 H 0.9877 0.02424 0.44894 0.0
H829 H 0.0975 0.01579 0.57713 0.0
H830 H 0.1063 0.99539 0.53793 0.0
H831 H 0.07832 0.97927 0.56712 0.0
C832 C 0.55349 0.0422 0.46079 0.0
C833 C 0.58099 0.0395 0.48068 0.0
C834 C 0.52491 0.03048 0.47263 0.0
C835 C 0.52331 0.01714 0.50594 0.0
C836 C 0.55038 0.01622 0.52718 0.0
C837 C 0.57907 0.02698 0.51409 0.0
C838 C 0.49666 0.03144 0.44903 0.0
C839 C 0.54906 0.0037 0.56361 0.0
C840 C 0.44357 0.01652 0.54697 0.0
C841 C 0.43621 0.9845 0.54747 0.0
C842 C 0.47198 0.02731 0.53388 0.0
C843 C 0.49284 0.00573 0.51913 0.0
C844 C 0.48465 0.97353 0.51745 0.0
C845 C 0.45673 0.96306 0.53278 0.0
C846 C 0.48043 0.06149 0.53784 0.0
C847 C 0.50569 0.95014 0.50032 0.0
H848 H 0.55445 0.05223 0.43511 0.0
H849 H 0.60005 0.02505 0.52976 0.0
H850 H 0.48823 0.00722 0.44428 0.0
H851 H 0.47723 0.04427 0.46124 0.0
H852 H 0.50181 0.04285 0.42388 0.0
H853 H 0.57165 0.00667 0.57752 0.0
H854 H 0.53051 0.01588 0.57814 0.0
H855 H 0.54299 0.97843 0.56339 0.0
H856 H 0.42815 0.03296 0.5595 0.0
H857 H 0.45127 0.93826 0.53395 0.0
H858 H 0.46158 0.07494 0.55044 0.0
H859 H 0.48521 0.07235 0.51239 0.0
H860 H 0.50209 0.06369 0.55354 0.0
H861 H 0.51237 0.95877 0.47434 0.0
H862 H 0.49429 0.92685 0.49772 0.0
H863 H 0.52753 0.94725 0.51555 0.0
C864 C 0.50828 0.42367 0.51075 0.0
C865 C 0.539 0.42323 0.52365 0.0
C866 C 0.49274 0.45205 0.50465 0.0
C867 C 0.50875 0.48077 0.51003 0.0
C868 C 0.54052 0.48036 0.52075 0.0
C869 C 0.55505 0.45162 0.52792 0.0
C870 C 0.45904 0.45108 0.49292 0.0
C871 C 0.55924 0.51001 0.52593 0.0
C872 C 0.47332 0.54876 0.4607 0.0
C873 C 0.46766 0.57067 0.48666 0.0
C874 C 0.48766 0.52014 0.46775 0.0
C875 C 0.4929 0.51105 0.50238 0.0
C876 C 0.48382 0.53152 0.52924 0.0
C877 C 0.47263 0.5617 0.521 0.0
C878 C 0.49841 0.50115 0.43732 0.0
C879 C 0.48674 0.52243 0.56672 0.0
H880 H 0.49558 0.40186 0.50749 0.0
H881 H 0.57874 0.45141 0.53807 0.0
H882 H 0.4454 0.47009 0.5049 0.0
H883 H 0.45786 0.45428 0.46461 0.0
H884 H 0.44779 0.42824 0.49904 0.0
H885 H 0.55715 0.51749 0.55307 0.0
H886 H 0.58442 0.50591 0.52114 0.0
H887 H 0.55111 0.52941 0.50902 0.0
H888 H 0.46872 0.55474 0.43415 0.0
H889 H 0.46797 0.57825 0.54135 0.0
H890 H 0.47766 0.49232 0.42302 0.0
H891 H 0.51367 0.48115 0.44428 0.0
H892 H 0.51153 0.51649 0.41919 0.0
H893 H 0.46731 0.5326 0.58177 0.0
H894 H 0.50881 0.53225 0.57724 0.0
H895 H 0.48669 0.49667 0.57066 0.0
C896 C 0.96026 0.45155 0.49475 0.0
C897 C 0.93583 0.47197 0.48624 0.0
C898 C 0.9907 0.46316 0.50046 0.0
C899 C 0.99702 0.49545 0.49482 0.0
C900 C 0.97222 0.51607 0.48666 0.0
C901 C 0.94186 0.5042 0.4836 0.0
C902 C 0.01606 0.44081 0.51173 0.0
C903 C 0.97791 0.55036 0.47881 0.0
C904 C 0.06701 0.53895 0.53011 0.0
C905 C 0.08935 0.53555 0.50397 0.0
C906 C 0.03791 0.5241 0.52836 0.0
C907 C 0.02926 0.50823 0.49803 0.0
C908 C 0.05052 0.50682 0.47017 0.0
C909 C 0.08076 0.51967 0.47388 0.0
C910 C 0.01683 0.52461 0.55948 0.0
C911 C 0.04139 0.49178 0.43654 0.0
H912 H 0.95572 0.42657 0.49614 0.0
H913 H 0.92318 0.51997 0.47609 0.0
H914 H 0.03126 0.45169 0.53162 0.0
H915 H 0.00616 0.41869 0.52236 0.0
H916 H 0.03092 0.43489 0.48945 0.0
H917 H 0.95576 0.5635 0.47527 0.0
H918 H 0.99149 0.56171 0.49968 0.0
H919 H 0.99188 0.5525 0.45493 0.0
H920 H 0.07274 0.55218 0.55294 0.0
H921 H 0.09759 0.51721 0.45335 0.0
H922 H 0.01301 0.50027 0.56888 0.0
H923 H 0.99359 0.53437 0.55275 0.0
H924 H 0.02686 0.53864 0.58082 0.0
H925 H 0.03947 0.46606 0.44016 0.0
H926 H 0.05878 0.49656 0.41601 0.0
H927 H 0.0182 0.50042 0.42773 0.0
C928 C 0.92057 0.44259 0.93992 0.0
C929 C 0.93841 0.41722 0.95206 0.0
C930 C 0.92565 0.47271 0.95277 0.0
C931 C 0.94729 0.47683 0.98003 0.0
C932 C 0.95996 0.45026 -0.00289 0.0
C933 C 0.95562 0.42049 0.98262 0.0
C934 C 0.91157 0.50028 0.9337 0.0
C935 C 0.98107 0.45357 0.02814 0.0
C936 C 0.00232 0.54697 0.97914 0.0
C937 C 0.98693 0.56744 0.00107 0.0
C938 C 0.98892 0.51784 0.97096 0.0
C939 C 0.96043 0.50848 0.98673 0.0
C940 C 0.94487 0.52925 0.00882 0.0
C941 C 0.95799 0.55877 0.01512 0.0
C942 C 0.00592 0.49665 0.94648 0.0
C943 C 0.91576 0.51953 0.02793 0.0
H944 H 0.90672 0.43984 0.91661 0.0
H945 H 0.96905 0.40085 0.99251 0.0
H946 H 0.89191 0.49306 0.91664 0.0
H947 H 0.90297 0.51818 0.9518 0.0
H948 H 0.92986 0.51149 0.91755 0.0
H949 H 0.98272 0.43125 0.04294 0.0
H950 H 0.00493 0.46021 0.01961 0.0
H951 H 0.97254 0.47223 0.0454 0.0
H952 H 0.02509 0.5534 0.96914 0.0
H953 H 0.94669 0.57424 0.03319 0.0
H954 H 0.9893 0.48595 0.92793 0.0
H955 H 0.0172 0.47735 0.96121 0.0
H956 H 0.02433 0.50939 0.93187 0.0
H957 H 0.89902 0.50692 0.01104 0.0
H958 H 0.9038 0.53998 0.03909 0.0
H959 H 0.92234 0.50333 0.04924 0.0
C960 C 0.04359 0.97373 0.0149 0.0
C961 C 0.06549 0.99213 -0.00279 0.0
C962 C 0.01352 0.98534 0.02174 0.0
C963 C 0.0048 0.01527 0.00879 0.0
C964 C 0.02754 0.03454 0.99285 0.0
C965 C 0.05779 0.02301 0.98801 0.0
C966 C 0.99101 0.96529 0.04207 0.0
C967 C 0.01927 0.06629 0.97818 0.0
C968 C 0.91935 0.02462 0.98238 0.0
C969 C 0.90754 0.04231 0.00954 0.0
C970 C 0.95108 0.01618 0.98165 0.0
C971 C 0.97145 0.02532 0.00881 0.0
C972 C 0.95997 0.0442 0.03551 0.0
C973 C 0.92843 0.05302 0.03514 0.0
C974 C 0.96271 0.99671 0.95227 0.0
C975 C 0.98049 0.05356 0.06554 0.0
H976 H 0.04951 0.94984 0.02192 0.0
H977 H 0.07447 0.03713 0.97371 0.0
H978 H 0.98941 0.97463 0.06857 0.0
H979 H 0.96724 0.96605 0.03073 0.0
H980 H 0.99873 0.94051 0.04385 0.0
H981 H 0.00238 0.06337 0.95663 0.0
H982 H 0.0078 0.08085 -0.0021 0.0
H983 H 0.04014 0.07902 0.96845 0.0
H984 H 0.90358 0.01612 0.96256 0.0
H985 H 0.91966 0.06678 0.05631 0.0
H986 H 0.972 0.97412 0.9622 0.0
H987 H 0.98214 0.00938 0.93945 0.0
H988 H 0.94414 0.99177 0.9329 0.0
H989 H 0.98687 0.03233 0.08065 0.0
H990 H 0.96866 0.07023 0.08293 0.0
H991 H 0.00256 0.0644 0.05639 0.0
C992 C 0.48176 0.07421 0.01038 0.0
C993 C 0.51442 0.07756 0.01137 0.0
C994 C 0.46758 0.04488 0.01477 0.0
C995 C 0.48634 0.01853 0.0225 0.0
C996 C 0.51912 0.02227 0.02671 0.0
C997 C 0.5329 0.05162 0.02005 0.0
C998 C 0.43279 0.04175 0.00873 0.0
C999 C 0.53997 0.99513 0.0364 0.0
C1000 C 0.44361 0.94851 0.05988 0.0
C1001 C 0.44671 0.92611 0.03374 0.0
C1002 C 0.45702 0.97831 0.05684 0.0
C1003 C 0.47151 0.98712 0.02567 0.0
C1004 C 0.47172 0.96595 -0.0023 0.0
C1005 C 0.45993 0.93539 0.00229 0.0
C1006 C 0.4579 0.99927 0.08804 0.0
C1007 C 0.48554 0.97506 0.96339 0.0
H1008 H 0.46733 0.094 0.00296 0.0
H1009 H 0.55816 0.05399 0.02018 0.0
H1010 H 0.4283 0.02446 0.98808 0.0
H1011 H 0.42111 0.03282 0.03223 0.0
H1012 H 0.42178 0.06435 0.00131 0.0
H1013 H 0.54613 0.98218 0.0128 0.0
H1014 H 0.5621 0.00331 0.04855 0.0
H1015 H 0.52814 0.97863 0.05436 0.0
H1016 H 0.43271 0.94197 0.08402 0.0
H1017 H 0.46215 0.91853 0.98175 0.0
H1018 H 0.45002 0.02329 0.08156 0.0
H1019 H 0.4824 0.00119 0.09745 0.0
H1020 H 0.44319 0.99007 0.10932 0.0
H1021 H 0.4782 0.99905 0.9557 0.0
H1022 H 0.47858 0.95852 0.94274 0.0
H1023 H 0.5114 0.97497 0.96552 0.0
C1024 C 0.42583 0.48555 0.98421 0.0
C1025 C 0.41951 0.51772 0.98562 0.0
C1026 C 0.45508 0.47383 0.99383 0.0
C1027 C 0.4778 0.49442 0.00753 0.0
C1028 C 0.47029 0.52637 0.01269 0.0
C1029 C 0.44151 0.53792 0.00053 0.0
C1030 C 0.46271 0.44026 0.98546 0.0
C1031 C 0.49321 0.54875 0.02909 0.0
C1032 C 0.54609 0.45565 0.05281 0.0
C1033 C 0.57101 0.46237 0.03037 0.0
C1034 C 0.51582 0.46638 0.04596 0.0
C1035 C 0.50978 0.48269 0.0149 0.0
C1036 C 0.53408 0.48716 0.99064 0.0
C1037 C 0.56462 0.47748 -0.00105 0.0
C1038 C 0.49062 0.46146 0.07266 0.0
C1039 C 0.52799 0.50261 0.95615 0.0
H1040 H 0.40924 0.46998 0.97172 0.0
H1041 H 0.43687 0.56286 0.00103 0.0
H1042 H 0.47962 0.44009 0.96394 0.0
H1043 H 0.47399 0.42809 0.0075 0.0
H1044 H 0.44159 0.42677 0.97774 0.0
H1045 H 0.4813 0.56997 0.0388 0.0
H1046 H 0.50587 0.5373 0.05076 0.0
H1047 H 0.51073 0.55636 0.0098 0.0
H1048 H 0.55051 0.44337 0.07687 0.0
H1049 H 0.58353 0.48244 0.98125 0.0
H1050 H 0.4994 0.44895 0.09595 0.0
H1051 H 0.47086 0.44778 0.06187 0.0
H1052 H 0.48107 0.48446 0.08047 0.0
H1053 H 0.54798 0.49986 0.93833 0.0
H1054 H 0.52388 0.52799 0.95976 0.0
H1055 H 0.5067 0.49256 0.94391 0.0
C1056 C 0.90578 0.21322 0.64823 0.0
C1057 C 0.93266 0.21877 0.62868 0.0
C1058 C 0.89845 0.23281 0.67584 0.0
C1059 C 0.91824 0.25858 0.68317 0.0
C1060 C 0.94217 0.26703 0.65979 0.0
C1061 C 0.94929 0.24679 0.63284 0.0
C1062 C 0.8722 0.22347 0.69959 0.0
C1063 C 0.9632 0.29495 0.666 0.0
C1064 C 0.91028 0.31511 0.75714 0.0
C1065 C 0.93289 0.30321 0.78 0.0
C1066 C 0.90339 0.29975 0.72619 0.0
C1067 C 0.91935 0.2718 0.71834 0.0
C1068 C 0.94016 0.25834 0.74285 0.0
C1069 C 0.94681 0.27436 0.77331 0.0
C1070 C 0.88081 0.31469 0.70103 0.0
C1071 C 0.95709 0.22805 0.73592 0.0
H1072 H 0.89273 0.19165 0.64455 0.0
H1073 H 0.97002 0.25119 0.6176 0.0
H1074 H 0.88188 0.20953 0.72139 0.0
H1075 H 0.86055 0.24433 0.71041 0.0
H1076 H 0.85448 0.20886 0.6861 0.0
H1077 H 0.97667 0.30147 0.64263 0.0
H1078 H 0.94941 0.31549 0.67421 0.0
H1079 H 0.98006 0.28924 0.68696 0.0
H1080 H 0.89904 0.33719 0.76273 0.0
H1081 H 0.96441 0.26521 0.79085 0.0
H1082 H 0.86694 0.29678 0.68704 0.0
H1083 H 0.89417 0.32845 0.68169 0.0
H1084 H 0.86456 0.33086 0.71416 0.0
H1085 H 0.94003 0.20944 0.72911 0.0
H1086 H 0.97106 0.21992 0.75847 0.0
H1087 H 0.97307 0.2312 0.71375 0.0
C1088 C 0.30334 0.95017 0.73592 0.0
C1089 C 0.30225 0.93354 0.7051 0.0
C1090 C 0.28106 0.94491 0.76154 0.0
C1091 C 0.25737 0.92214 0.75624 0.0
C1092 C 0.25703 0.90424 0.72568 0.0
C1093 C 0.27944 0.9104 0.70017 0.0
C1094 C 0.28206 0.9648 0.79355 0.0
C1095 C 0.23247 0.87941 0.71951 0.0
C1096 C 0.21459 0.90385 0.83895 0.0
C1097 C 0.18969 0.92489 0.83643 0.0
C1098 C 0.23559 0.90059 0.8116 0.0
C1099 C 0.23172 0.91934 0.78162 0.0
C1100 C 0.20537 0.93915 0.7783 0.0
C1101 C 0.18457 0.94158 0.8058 0.0
C1102 C 0.26306 0.87879 0.81576 0.0
C1103 C 0.20058 0.95982 0.74697 0.0
H1104 H 0.32099 0.96821 0.7394 0.0
H1105 H 0.27887 0.89755 0.67621 0.0
H1106 H 0.26062 0.97932 0.79481 0.0
H1107 H 0.28256 0.9497 0.81692 0.0
H1108 H 0.30275 0.98062 0.7942 0.0
H1109 H 0.23771 0.86506 0.69654 0.0
H1110 H 0.23052 0.8637 0.74231 0.0
H1111 H 0.20936 0.89063 0.71559 0.0
H1112 H 0.21839 0.89107 0.86283 0.0
H1113 H 0.16536 0.95805 0.8042 0.0
H1114 H 0.28455 0.89268 0.82086 0.0
H1115 H 0.2669 0.86541 0.7918 0.0
H1116 H 0.25972 0.86203 0.83747 0.0
H1117 H 0.21879 0.97842 0.74655 0.0
H1118 H 0.17725 0.97118 0.74679 0.0
H1119 H 0.20302 0.94609 0.72304 0.0
C1120 C 0.53425 0.22722 0.83435 0.0
C1121 C 0.55507 0.20264 0.84108 0.0
C1122 C 0.53768 0.24652 0.80538 0.0
C1123 C 0.56184 0.24032 0.78172 0.0
C1124 C 0.58313 0.21564 0.78837 0.0
C1125 C 0.57971 0.19727 0.81831 0.0
C1126 C 0.51466 0.27284 0.79951 0.0
C1127 C 0.6086 0.20783 0.76318 0.0
C1128 C 0.53975 0.26866 0.69262 0.0
C1129 C 0.55618 0.29706 0.69034 0.0
C1130 C 0.54332 0.24878 0.72117 0.0
C1131 C 0.56281 0.25818 0.74883 0.0
C1132 C 0.58015 0.28642 0.74634 0.0
C1133 C 0.57697 0.30534 0.7168 0.0
C1134 C 0.52481 0.21858 0.7224 0.0
C1135 C 0.60067 0.29749 0.77561 0.0
H1136 H 0.51452 0.23086 0.85116 0.0
H1137 H 0.59586 0.17829 0.82354 0.0
H1138 H 0.5272 0.29496 0.79329 0.0
H1139 H 0.49929 0.26724 0.77727 0.0
H1140 H 0.49969 0.27681 0.82233 0.0
H1141 H 0.62453 0.18936 0.77324 0.0
H1142 H 0.59789 0.19953 0.73878 0.0
H1143 H 0.62259 0.22902 0.75691 0.0
H1144 H 0.52307 0.26241 0.67272 0.0
H1145 H 0.59017 0.32699 0.7148 0.0
H1146 H 0.50411 0.22163 0.73909 0.0
H1147 H 0.53903 0.19923 0.73345 0.0
H1148 H 0.5165 0.21157 0.69642 0.0
H1149 H 0.58582 0.30358 0.79788 0.0
H1150 H 0.61481 0.31839 0.76839 0.0
H1151 H 0.61667 0.27856 0.78422 0.0
C1152 C 0.22687 0.51438 0.67778 0.0
C1153 C 0.22366 0.53541 0.65027 0.0
C1154 C 0.24435 0.5224 0.70695 0.0
C1155 C 0.25908 0.55214 0.70835 0.0
C1156 C 0.2562 0.57338 0.68035 0.0
C1157 C 0.23823 0.56478 0.65155 0.0
C1158 C 0.24683 0.49911 0.73636 0.0
C1159 C 0.27181 0.60513 0.681 0.0
C1160 C 0.2796 0.57435 0.79966 0.0
C1161 C 0.30985 0.56224 0.80241 0.0
C1162 C 0.26331 0.57341 0.76822 0.0
C1163 C 0.27793 0.56027 0.7391 0.0
C1164 C 0.30939 0.55036 0.74122 0.0
C1165 C 0.32486 0.55112 0.77301 0.0
C1166 C 0.22971 0.58404 0.76693 0.0
C1167 C 0.32585 0.5364 0.7107 0.0
H1168 H 0.21525 0.49178 0.6766 0.0
H1169 H 0.23505 0.58118 0.63037 0.0
H1170 H 0.27168 0.49286 0.74089 0.0
H1171 H 0.238 0.5097 0.76039 0.0
H1172 H 0.2334 0.47727 0.73134 0.0
H1173 H 0.26782 0.6186 0.65678 0.0
H1174 H 0.2628 0.61892 0.70286 0.0
H1175 H 0.29737 0.60243 0.68506 0.0
H1176 H 0.2681 0.58288 0.82253 0.0
H1177 H 0.34794 0.54095 0.77522 0.0
H1178 H 0.2141 0.56324 0.76561 0.0
H1179 H 0.22523 0.59846 0.74355 0.0
H1180 H 0.22336 0.59781 0.78998 0.0
H1181 H 0.3165 0.51253 0.70592 0.0
H1182 H 0.3515 0.53462 0.71505 0.0
H1183 H 0.32157 0.55062 0.68712 0.0
C1184 C 0.0795 0.73262 0.14361 0.0
C1185 C 0.06317 0.70418 0.1445 0.0
C1186 C 0.0806 0.75189 0.17278 0.0
C1187 C 0.06492 0.74227 0.20315 0.0
C1188 C 0.04981 0.71277 0.20452 0.0
C1189 C 0.04888 0.69425 0.17506 0.0
C1190 C 0.09692 0.78322 0.17047 0.0
C1191 C 0.03275 0.70161 0.23633 0.0
C1192 C 0.07447 0.78205 0.28958 0.0
C1193 C 0.04743 0.80037 0.29031 0.0
C1194 C 0.08138 0.76392 0.26064 0.0
C1195 C 0.06066 0.76429 0.23205 0.0
C1196 C 0.03377 0.78353 0.23244 0.0
C1197 C 0.02746 0.80129 0.26167 0.0
C1198 C 0.11021 0.74366 0.26106 0.0
C1199 C 0.01101 0.78448 0.20254 0.0
H1200 H 0.09028 0.74028 0.11978 0.0
H1201 H 0.0355 0.67263 0.17546 0.0
H1202 H 0.07923 0.80216 0.16981 0.0
H1203 H 0.11192 0.78704 0.19349 0.0
H1204 H 0.11155 0.78531 0.14703 0.0
H1205 H 0.0253 0.67671 0.23441 0.0
H1206 H 0.04779 0.70422 0.25951 0.0
H1207 H 0.01163 0.71617 0.24014 0.0
H1208 H 0.09001 0.78177 0.31175 0.0
H1209 H 0.00653 0.81552 0.26246 0.0
H1210 H 0.12401 0.74764 0.23732 0.0
H1211 H 0.10322 0.7186 0.26152 0.0
H1212 H 0.1254 0.74827 0.28379 0.0
H1213 H 0.02354 0.78954 0.17819 0.0
H1214 H 0.99256 0.80242 0.20592 0.0
H1215 H -0.00047 0.76126 0.19977 0.0
C1216 C 0.7805 0.03267 0.17512 0.0
C1217 C 0.77104 0.01178 0.14944 0.0
C1218 C 0.76412 0.03467 0.20611 0.0
C1219 C 0.73754 0.01542 0.21132 0.0
C1220 C 0.72697 0.99539 0.18471 0.0
C1221 C 0.74392 0.99383 0.15393 0.0
C1222 C 0.77598 0.05648 0.23374 0.0
C1223 C 0.69858 0.97468 0.1893 0.0
C1224 C 0.71693 0.99393 0.30341 0.0
C1225 C 0.69202 0.01419 0.30968 0.0
C1226 C 0.73201 0.99414 0.27145 0.0
C1227 C 0.72181 0.01512 0.24528 0.0
C1228 C 0.69693 0.03596 0.25173 0.0
C1229 C 0.68239 0.03531 0.28397 0.0
C1230 C 0.75858 0.97167 0.26555 0.0
C1231 C 0.68556 0.05876 0.22453 0.0
H1232 H 0.80123 0.04694 0.17124 0.0
H1233 H 0.73672 0.97767 0.13397 0.0
H1234 H 0.75691 0.07202 0.24241 0.0
H1235 H 0.78386 0.04263 0.25646 0.0
H1236 H 0.79582 0.07125 0.22476 0.0
H1237 H 0.69212 0.96222 0.16526 0.0
H1238 H 0.70327 0.95702 0.20979 0.0
H1239 H 0.6783 0.98876 0.19767 0.0
H1240 H 0.72411 0.97739 0.32322 0.0
H1241 H 0.66335 0.05126 0.28908 0.0
H1242 H 0.78001 0.98482 0.25828 0.0
H1243 H 0.75268 0.9559 0.24387 0.0
H1244 H 0.76386 0.95712 0.2887 0.0
H1245 H 0.70498 0.07443 0.21649 0.0
H1246 H 0.66591 0.07338 0.23371 0.0
H1247 H 0.67768 0.04583 0.20136 0.0
C1248 C 0.47938 0.73695 0.3308 0.0
C1249 C 0.49714 0.70967 0.33448 0.0
C1250 C 0.48061 0.7548 0.3003 0.0
C1251 C 0.49958 0.74465 0.27279 0.0
C1252 C 0.51803 0.71743 0.27676 0.0
C1253 C 0.51685 0.7005 0.30774 0.0
C1254 C 0.46111 0.78409 0.29721 0.0
C1255 C 0.53827 0.70566 0.24792 0.0
C1256 C 0.4766 0.77199 0.18292 0.0
C1257 C 0.49842 0.79591 0.17704 0.0
C1258 C 0.47711 0.75464 0.21376 0.0
C1259 C 0.49955 0.762 0.2395 0.0
C1260 C 0.52186 0.78595 0.23344 0.0
C1261 C 0.52123 0.80238 0.20206 0.0
C1262 C 0.45333 0.72884 0.21906 0.0
C1263 C 0.54586 0.79474 0.26041 0.0
H1264 H 0.46393 0.74384 0.3514 0.0
H1265 H 0.53089 0.67956 0.31082 0.0
H1266 H 0.47597 0.80424 0.28932 0.0
H1267 H 0.44299 0.78097 0.27694 0.0
H1268 H 0.44932 0.78992 0.32173 0.0
H1269 H 0.55151 0.6843 0.25539 0.0
H1270 H 0.52346 0.70017 0.22516 0.0
H1271 H 0.55514 0.72407 0.23989 0.0
H1272 H 0.45862 0.76741 0.16378 0.0
H1273 H 0.5381 0.82095 0.19737 0.0
H1274 H 0.43791 0.7347 0.24093 0.0
H1275 H 0.46531 0.70658 0.22574 0.0
H1276 H 0.43853 0.72503 0.19584 0.0
H1277 H 0.5339 0.8024 0.28415 0.0
H1278 H 0.56162 0.81389 0.25155 0.0
H1279 H 0.56028 0.77409 0.26741 0.0
C1280 C 0.67949 0.45343 0.2143 0.0
C1281 C 0.69243 0.47209 0.18811 0.0
C1282 C 0.69666 0.44614 0.24415 0.0
C1283 C 0.7281 0.45625 0.2469 0.0
C1284 C 0.74193 0.47341 0.21958 0.0
C1285 C 0.72366 0.48182 0.19091 0.0
C1286 C 0.68069 0.42894 0.27332 0.0
C1287 C 0.77576 0.48369 0.22101 0.0
C1288 C 0.76644 0.47263 0.33272 0.0
C1289 C 0.78349 0.44512 0.33878 0.0
C1290 C 0.74685 0.47567 0.30395 0.0
C1291 C 0.74577 0.45138 0.27945 0.0
C1292 C 0.7627 0.42341 0.28544 0.0
C1293 C 0.7807 0.42028 0.31564 0.0
C1294 C 0.72811 0.50536 0.29931 0.0
C1295 C 0.76305 0.3975 0.25923 0.0
H1296 H 0.65578 0.44478 0.21179 0.0
H1297 H 0.73375 0.49656 0.17102 0.0
H1298 H 0.69398 0.40763 0.28059 0.0
H1299 H 0.68011 0.44417 0.29633 0.0
H1300 H 0.65633 0.422 0.26668 0.0
H1301 H 0.78403 0.49283 0.19578 0.0
H1302 H 0.7787 0.50242 0.24038 0.0
H1303 H 0.7909 0.46384 0.22905 0.0
H1304 H 0.76901 0.49227 0.35001 0.0
H1305 H 0.79313 0.39868 0.32069 0.0
H1306 H 0.70349 0.4997 0.29246 0.0
H1307 H 0.73796 0.51954 0.27791 0.0
H1308 H 0.72824 0.51989 0.32291 0.0
H1309 H 0.73889 0.38987 0.25292 0.0
H1310 H 0.77658 0.37684 0.26832 0.0
H1311 H 0.77364 0.40638 0.235 0.0
C1312 C 0.25011 0.09508 0.58577 0.0
C1313 C 0.24581 0.06534 0.57135 0.0
C1314 C 0.22456 0.11455 0.59241 0.0
C1315 C 0.19408 0.10422 0.58379 0.0
C1316 C 0.18975 0.07483 0.56763 0.0
C1317 C 0.21574 0.05575 0.56154 0.0
C1318 C 0.23011 0.14578 0.60942 0.0
C1319 C 0.15756 0.06317 0.5576 0.0
C1320 C 0.12034 0.13072 0.6278 0.0
C1321 C 0.10638 0.14879 0.60162 0.0
C1322 C 0.15022 0.11795 0.62347 0.0
C1323 C 0.16642 0.12352 0.59232 0.0
C1324 C 0.154 0.14466 0.56763 0.0
C1325 C 0.12419 0.15727 0.57271 0.0
C1326 C 0.16307 0.09611 0.65081 0.0
C1327 C 0.17065 0.15151 0.53423 0.0
H1328 H 0.27348 0.1031 0.59212 0.0
H1329 H 0.21242 0.03288 0.55012 0.0
H1330 H 0.21944 0.16487 0.59383 0.0
H1331 H 0.21868 0.14594 0.63498 0.0
H1332 H 0.25539 0.15098 0.61302 0.0
H1333 H 0.15831 0.04028 0.54424 0.0
H1334 H 0.14289 0.06052 0.58092 0.0
H1335 H 0.14587 0.08048 0.54042 0.0
H1336 H 0.10697 0.12429 0.65042 0.0
H1337 H 0.11383 0.17164 0.55255 0.0
H1338 H 0.18816 0.10112 0.65582 0.0
H1339 H 0.16127 0.0716 0.64168 0.0
H1340 H 0.15009 0.09792 0.6754 0.0
H1341 H 0.196 0.15544 0.53869 0.0
H1342 H 0.16081 0.17233 0.52075 0.0
H1343 H 0.1682 0.13103 0.51699 0.0
C1344 C 0.44342 0.08204 0.62808 0.0
C1345 C 0.41085 0.07819 0.63016 0.0
C1346 C 0.45659 0.11064 0.61723 0.0
C1347 C 0.43678 0.13609 0.6088 0.0
C1348 C 0.40404 0.1329 0.61286 0.0
C1349 C 0.39148 0.10399 0.62339 0.0
C1350 C 0.49159 0.11311 0.61297 0.0
C1351 C 0.38217 0.15952 0.60417 0.0
C1352 C 0.47222 0.21758 0.60227 0.0
C1353 C 0.47466 0.22185 0.56651 0.0
C1354 C 0.45963 0.18997 0.61633 0.0
C1355 C 0.45005 0.16558 0.59416 0.0
C1356 C 0.4531 0.16949 0.55799 0.0
C1357 C 0.46563 0.19751 0.54467 0.0
C1358 C 0.45674 0.18692 0.65496 0.0
C1359 C 0.44406 0.14407 0.533 0.0
H1360 H 0.45858 0.06217 0.63283 0.0
H1361 H 0.36632 0.10123 0.62491 0.0
H1362 H 0.49718 0.11899 0.58581 0.0
H1363 H 0.50097 0.13233 0.62912 0.0
H1364 H 0.50375 0.09104 0.62016 0.0
H1365 H 0.35755 0.15405 0.61102 0.0
H1366 H 0.38954 0.18107 0.61786 0.0
H1367 H 0.38323 0.16465 0.57613 0.0
H1368 H 0.48051 0.23569 0.61946 0.0
H1369 H 0.46812 0.20047 0.51707 0.0
H1370 H 0.4733 0.16894 0.66467 0.0
H1371 H 0.43282 0.1791 0.662 0.0
H1372 H 0.46182 0.20933 0.66826 0.0
H1373 H 0.46498 0.12959 0.52791 0.0
H1374 H 0.43621 0.15424 0.50799 0.0
H1375 H 0.42529 0.12853 0.54296 0.0
C1376 C 0.43273 0.43707 0.57473 0.0
C1377 C 0.43881 0.40508 0.57011 0.0
C1378 C 0.40482 0.45062 0.56254 0.0
C1379 C 0.38228 0.43169 0.54564 0.0
C1380 C 0.38793 0.39928 0.54169 0.0
C1381 C 0.41607 0.3864 0.55389 0.0
C1382 C 0.39995 0.48537 0.56672 0.0
C1383 C 0.36437 0.37827 0.52409 0.0
C1384 C 0.29781 0.45849 0.54358 0.0
C1385 C 0.29421 0.46928 0.50953 0.0
C1386 C 0.32629 0.4463 0.55553 0.0
C1387 C 0.35221 0.44537 0.53316 0.0
C1388 C 0.34903 0.45683 0.49893 0.0
C1389 C 0.3201 0.46887 0.48763 0.0
C1390 C 0.32863 0.43448 0.59223 0.0
C1391 C 0.3762 0.45703 0.47436 0.0
H1392 H 0.45022 0.45179 0.58691 0.0
H1393 H 0.42046 0.36169 0.55011 0.0
H1394 H 0.4001 0.49693 0.54103 0.0
H1395 H 0.37687 0.49002 0.57846 0.0
H1396 H 0.41842 0.4963 0.58294 0.0
H1397 H 0.37214 0.35348 0.52334 0.0
H1398 H 0.34164 0.37927 0.53765 0.0
H1399 H 0.3603 0.3866 0.4973 0.0
H1400 H 0.27856 0.46005 0.56136 0.0
H1401 H 0.31769 0.47788 0.46157 0.0
H1402 H 0.34689 0.44781 0.60637 0.0
H1403 H 0.33572 0.40951 0.59254 0.0
H1404 H 0.30619 0.43662 0.60627 0.0
H1405 H 0.39234 0.47639 0.48132 0.0
H1406 H 0.36848 0.46072 0.44727 0.0
H1407 H 0.38945 0.43478 0.47603 0.0
C1408 C 0.12005 0.41217 0.4923 0.0
C1409 C 0.11075 0.42797 0.52201 0.0
C1410 C 0.10714 0.38289 0.48386 0.0
C1411 C 0.08491 0.36883 0.50605 0.0
C1412 C 0.07496 0.38502 0.53569 0.0
C1413 C 0.08787 0.41447 0.54319 0.0
C1414 C 0.11777 0.36669 0.45161 0.0
C1415 C 0.05148 0.37075 0.56016 0.0
C1416 C 0.03507 0.29881 0.47938 0.0
C1417 C 0.05136 0.27416 0.49526 0.0
C1418 C 0.0462 0.32982 0.48156 0.0
C1419 C 0.07416 0.33609 0.50013 0.0
C1420 C 0.09138 0.31098 0.5147 0.0
C1421 C 0.07994 0.28034 0.51173 0.0
C1422 C 0.02731 0.35589 0.46533 0.0
C1423 C 0.12134 0.31655 0.53461 0.0
H1424 H 0.13744 0.42271 0.4756 0.0
H1425 H 0.08058 0.42659 0.56618 0.0
H1426 H 0.13075 0.34509 0.4586 0.0
H1427 H 0.09723 0.35953 0.43589 0.0
H1428 H 0.13318 0.38186 0.43562 0.0
H1429 H 0.04457 0.38726 0.58069 0.0
H1430 H 0.03016 0.36335 0.54592 0.0
H1431 H 0.06159 0.3495 0.57246 0.0
H1432 H 0.01304 0.29402 0.46643 0.0
H1433 H 0.09315 0.26117 0.52294 0.0
H1434 H 0.01445 0.36843 0.4857 0.0
H1435 H 0.00999 0.34686 0.44638 0.0
H1436 H 0.04273 0.37319 0.45228 0.0
H1437 H 0.13836 0.32958 0.51844 0.0
H1438 H 0.13236 0.29437 0.54351 0.0
H1439 H 0.1165 0.33116 0.55745 0.0
C1440 C 0.19415 0.46481 0.96211 0.0
C1441 C 0.22009 0.4607 0.94077 0.0
C1442 C 0.1653 0.45048 0.95447 0.0
C1443 C 0.16235 0.4317 0.9247 0.0
C1444 C 0.18864 0.42696 0.90348 0.0
C1445 C 0.21703 0.44184 0.91151 0.0
C1446 C 0.1377 0.45637 0.97754 0.0
C1447 C 0.18647 0.40724 0.87144 0.0
C1448 C 0.09134 0.37818 0.91559 0.0
C1449 C 0.07174 0.3962 0.89419 0.0
C1450 C 0.12103 0.38928 0.92558 0.0
C1451 C 0.13122 0.41918 0.91412 0.0
C1452 C 0.11171 0.43727 0.8922 0.0
C1453 C 0.08235 0.42553 0.88239 0.0
C1454 C 0.14137 0.36919 0.94865 0.0
C1455 C 0.12163 0.46934 0.8795 0.0
H1456 H 0.19631 0.47973 0.98446 0.0
H1457 H 0.2364 0.43972 0.8939 0.0
H1458 H 0.11957 0.4697 0.9631 0.0
H1459 H 0.12695 0.43384 0.98572 0.0
H1460 H 0.14433 0.46982 0.00085 0.0
H1461 H 0.20972 0.40331 0.85967 0.0
H1462 H 0.17571 0.38416 0.87748 0.0
H1463 H 0.17121 0.41902 0.85214 0.0
H1464 H 0.08338 0.35551 0.92485 0.0
H1465 H 0.06738 0.43978 0.86604 0.0
H1466 H 0.14625 0.38158 0.97311 0.0
H1467 H 0.16421 0.36497 0.93614 0.0
H1468 H 0.13033 0.34622 0.95474 0.0
H1469 H 0.12607 0.48494 0.90173 0.0
H1470 H 0.10371 0.48041 0.86257 0.0
H1471 H 0.14379 0.46766 0.86498 0.0
C1472 C 0.11288 0.09658 0.90067 0.0
C1473 C 0.09415 0.06964 0.89804 0.0
C1474 C 0.09944 0.12654 0.9018 0.0
C1475 C 0.06649 0.12966 0.90046 0.0
C1476 C 0.04755 0.10272 0.89591 0.0
C1477 C 0.0616 0.07309 0.89455 0.0
C1478 C 0.12042 0.15472 0.90649 0.0
C1479 C 0.01234 0.10498 0.89438 0.0
C1480 C 0.03094 0.19968 0.94571 0.0
C1481 C 0.02346 0.21954 0.91801 0.0
C1482 C 0.04515 0.17054 0.94044 0.0
C1483 C 0.05178 0.16074 0.90645 0.0
C1484 C 0.04401 0.18055 0.8783 0.0
C1485 C 0.0296 0.2095 0.88439 0.0
C1486 C 0.05195 0.15018 0.97154 0.0
C1487 C 0.05096 0.17119 0.84173 0.0
H1488 H 0.13801 0.09424 0.9032 0.0
H1489 H 0.04682 0.05248 0.89251 0.0
H1490 H 0.11432 0.17329 0.88747 0.0
H1491 H 0.11684 0.16453 0.93254 0.0
H1492 H 0.14555 0.14881 0.90369 0.0
H1493 H 0.00095 0.08176 0.89092 0.0
H1494 H 0.00355 0.11551 0.91847 0.0
H1495 H 0.00509 0.12053 0.87279 0.0
H1496 H 0.02584 0.207 0.97174 0.0
H1497 H 0.02259 0.22386 0.86266 0.0
H1498 H 0.0721 0.13437 0.96765 0.0
H1499 H 0.03099 0.13563 0.97698 0.0
H1500 H 0.05669 0.16462 0.99467 0.0
H1501 H 0.0763 0.16634 0.83902 0.0
H1502 H 0.04425 0.18962 0.82276 0.0
H1503 H 0.03824 0.1493 0.83527 0.0
C1504 C 0.41932 0.06577 0.92419 0.0
C1505 C 0.42469 0.09794 0.9289 0.0
C1506 C 0.38935 0.05269 0.92865 0.0
C1507 C 0.36404 0.07231 0.93747 0.0
C1508 C 0.36903 0.10495 0.9406 0.0
C1509 C 0.39924 0.11731 0.93645 0.0
C1510 C 0.38508 0.01772 0.92541 0.0
C1511 C 0.34265 0.12672 0.94968 0.0
C1512 C 0.28033 0.04361 0.92552 0.0
C1513 C 0.27179 0.036 0.95941 0.0
C1514 C 0.31028 0.05534 0.91796 0.0
C1515 C 0.33253 0.05879 0.94481 0.0
C1516 C 0.32431 0.05028 0.97895 0.0
C1517 C 0.29409 0.03887 0.98577 0.0
C1518 C 0.31803 0.06417 0.88127 0.0
C1519 C 0.34751 0.05262 0.00826 0.0
H1520 H 0.43879 0.0505 0.91854 0.0
H1521 H 0.40298 0.14215 0.94007 0.0
H1522 H 0.37775 0.00766 0.95054 0.0
H1523 H 0.36628 0.01242 0.9065 0.0
H1524 H 0.40687 0.00585 0.91727 0.0
H1525 H 0.34992 0.15173 0.94895 0.0
H1526 H 0.32271 0.12346 0.93162 0.0
H1527 H 0.33413 0.12105 0.97594 0.0
H1528 H 0.26381 0.03988 0.90468 0.0
H1529 H 0.28784 0.03227 0.01186 0.0
H1530 H 0.33839 0.05048 0.87238 0.0
H1531 H 0.3247 0.0893 0.87981 0.0
H1532 H 0.29811 0.06004 0.86335 0.0
H1533 H 0.36518 0.03389 0.00556 0.0
H1534 H 0.33619 0.04974 0.03376 0.0
H1535 H 0.35999 0.07545 0.00767 0.0
C1536 C 0.37678 0.39992 0.90623 0.0
C1537 C 0.3967 0.42574 0.90125 0.0
C1538 C 0.3888 0.37029 0.91474 0.0
C1539 C 0.42151 0.3664 0.91852 0.0
C1540 C 0.44183 0.39186 0.91148 0.0
C1541 C 0.4292 0.4212 0.90275 0.0
C1542 C 0.36642 0.34353 0.92148 0.0
C1543 C 0.47686 0.38856 0.91513 0.0
C1544 C 0.44893 0.30232 0.98015 0.0
C1545 C 0.45817 0.27896 0.95737 0.0
C1546 C 0.43696 0.33091 0.96789 0.0
C1547 C 0.43426 0.33625 0.93188 0.0
C1548 C 0.44397 0.31285 0.90875 0.0
C1549 C 0.45651 0.28483 0.92179 0.0
C1550 C 0.4282 0.35554 0.99373 0.0
C1551 C 0.44109 0.31732 0.87024 0.0
H1552 H 0.35168 0.40304 0.90474 0.0
H1553 H 0.44484 0.44096 0.89892 0.0
H1554 H 0.37353 0.32255 0.90682 0.0
H1555 H 0.36716 0.33717 0.94924 0.0
H1556 H 0.34195 0.34954 0.91435 0.0
H1557 H 0.48952 0.41035 0.90775 0.0
H1558 H 0.48291 0.38252 0.94221 0.0
H1559 H 0.48535 0.36918 0.89888 0.0
H1560 H 0.45099 0.29819 0.00765 0.0
H1561 H 0.46533 0.26766 0.90397 0.0
H1562 H 0.40754 0.36928 0.98525 0.0
H1563 H 0.44819 0.37192 -0.00321 0.0
H1564 H 0.42319 0.34502 0.01938 0.0
H1565 H 0.41683 0.32411 0.86323 0.0
H1566 H 0.44724 0.2958 0.85593 0.0
H1567 H 0.45674 0.33657 0.86162 0.0
C1568 C 0.91089 0.88197 0.45098 0.0
C1569 C 0.92022 0.88657 0.41675 0.0
C1570 C 0.88258 0.89424 0.46287 0.0
C1571 C 0.86281 0.91068 0.43968 0.0
C1572 C 0.87137 0.91388 0.40464 0.0
C1573 C 0.90024 0.90221 0.39372 0.0
C1574 C 0.87474 0.89113 0.50059 0.0
C1575 C 0.85047 0.93048 0.37892 0.0
C1576 C 0.77802 0.92559 0.46265 0.0
C1577 C 0.77853 0.9578 0.46955 0.0
C1578 C 0.80532 0.90976 0.45322 0.0
C1579 C 0.83407 0.92623 0.45228 0.0
C1580 C 0.83518 0.95812 0.46189 0.0
C1581 C 0.80737 0.97359 0.47013 0.0
C1582 C 0.80315 0.87578 0.44295 0.0
C1583 C 0.8656 0.97624 0.46236 0.0
H1584 H 0.9265 0.87021 0.46895 0.0
H1585 H 0.90739 0.90568 0.36722 0.0
H1586 H 0.87556 0.9146 0.51267 0.0
H1587 H 0.85067 0.88188 0.50391 0.0
H1588 H 0.89127 0.87551 0.51462 0.0
H1589 H 0.85913 0.92839 0.35214 0.0
H1590 H 0.82638 0.92077 0.38011 0.0
H1591 H 0.84908 0.9557 0.38535 0.0
H1592 H 0.75628 0.91268 0.46413 0.0
H1593 H 0.80814 0.99836 0.47596 0.0
H1594 H 0.81962 0.86144 0.45854 0.0
H1595 H 0.81003 0.87338 0.41559 0.0
H1596 H 0.77918 0.86609 0.44609 0.0
H1597 H 0.88358 0.96326 0.4774 0.0
H1598 H 0.86293 0.99991 0.47361 0.0
H1599 H 0.87447 0.97895 0.43572 0.0
C1600 C 0.56574 0.91693 0.45084 0.0
C1601 C 0.59509 0.927 0.46282 0.0
C1602 C 0.55291 0.88826 0.46171 0.0
C1603 C 0.56979 0.86918 0.48526 0.0
C1604 C 0.59892 0.87967 0.49839 0.0
C1605 C 0.6113 0.9084 0.4869 0.0
C1606 C 0.52185 0.87786 0.4469 0.0
C1607 C 0.61746 0.86008 0.52373 0.0
C1608 C 0.52491 0.8015 0.52637 0.0
C1609 C 0.5331 0.77663 0.50492 0.0
C1610 C 0.53748 0.83167 0.52113 0.0
C1611 C 0.5583 0.83705 0.49345 0.0
C1612 C 0.56695 0.81191 0.47208 0.0
C1613 C 0.55413 0.78213 0.47796 0.0
C1614 C 0.52769 0.85796 0.5444 0.0
C1615 C 0.58876 0.81669 0.44201 0.0
H1616 H 0.55302 0.9311 0.43225 0.0
H1617 H 0.63387 0.91612 0.49656 0.0
H1618 H 0.52541 0.85731 0.43008 0.0
H1619 H 0.5058 0.87045 0.46778 0.0
H1620 H 0.51036 0.89665 0.43149 0.0
H1621 H 0.63832 0.87273 0.53378 0.0
H1622 H 0.60254 0.85299 0.54575 0.0
H1623 H 0.62538 0.83832 0.51109 0.0
H1624 H 0.50824 0.79746 0.54686 0.0
H1625 H 0.55959 0.76352 0.46029 0.0
H1626 H 0.51321 0.87494 0.52964 0.0
H1627 H 0.54852 0.87083 0.55407 0.0
H1628 H 0.51393 0.84935 0.56675 0.0
H1629 H 0.57785 0.83275 0.42285 0.0
H1630 H 0.59443 0.79436 0.429 0.0
H1631 H 0.61089 0.82777 0.45078 0.0
C1632 C 0.70888 0.52586 0.52155 0.0
C1633 C 0.7301 0.52731 0.49424 0.0
C1634 C 0.67893 0.5392 0.51838 0.0
C1635 C 0.67016 0.55431 0.48716 0.0
C1636 C 0.69144 0.55554 0.45947 0.0
C1637 C 0.72079 0.54144 0.4631 0.0
C1638 C 0.65647 0.53639 0.54805 0.0
C1639 C 0.6832 0.57159 0.42581 0.0
C1640 C 0.58554 0.5656 0.45985 0.0
C1641 C 0.58055 0.59715 0.46804 0.0
C1642 C 0.61413 0.55096 0.46731 0.0
C1643 C 0.63859 0.56841 0.48282 0.0
C1644 C 0.63361 0.60012 0.49158 0.0
C1645 C 0.6046 0.61406 0.48428 0.0
C1646 C 0.61838 0.51705 0.45762 0.0
C1647 C 0.6593 0.61963 0.50759 0.0
H1648 H 0.71567 0.5142 0.54533 0.0
H1649 H 0.73619 0.541 0.44111 0.0
H1650 H 0.63733 0.52 0.54101 0.0
H1651 H 0.66805 0.52745 0.57184 0.0
H1652 H 0.64565 0.55936 0.55361 0.0
H1653 H 0.70316 0.5722 0.40764 0.0
H1654 H 0.66337 0.55923 0.41326 0.0
H1655 H 0.67562 0.59599 0.43057 0.0
H1656 H 0.5671 0.55223 0.44744 0.0
H1657 H 0.60103 0.63844 0.49066 0.0
H1658 H 0.63022 0.50386 0.47867 0.0
H1659 H 0.63338 0.51564 0.43451 0.0
H1660 H 0.59571 0.50538 0.45171 0.0
H1661 H 0.66824 0.60804 0.53133 0.0
H1662 H 0.65131 0.64356 0.51417 0.0
H1663 H 0.67918 0.62168 0.48946 0.0
C1664 C 0.92777 0.57241 0.40749 0.0
C1665 C 0.89645 0.56821 0.41726 0.0
C1666 C 0.94284 0.60145 0.41122 0.0
C1667 C 0.92606 0.62711 0.42448 0.0
C1668 C 0.89406 0.62346 0.43286 0.0
C1669 C 0.87967 0.59401 0.42931 0.0
C1670 C 0.97707 0.60429 0.40227 0.0
C1671 C 0.87527 0.65047 0.44649 0.0
C1672 C 0.97148 0.69321 0.46724 0.0
C1673 C 0.97267 0.71556 0.44071 0.0
C1674 C 0.95634 0.66429 0.46237 0.0
C1675 C 0.94215 0.65764 0.43013 0.0
C1676 C 0.94378 0.67997 0.40309 0.0
C1677 C 0.95955 0.70838 0.40852 0.0
C1678 C 0.9561 0.64068 0.49151 0.0
C1679 C 0.92889 0.67386 0.36841 0.0
H1680 H 0.94106 0.55264 0.39826 0.0
H1681 H 0.85543 0.59111 0.43664 0.0
H1682 H 0.98064 0.62331 0.38307 0.0
H1683 H 0.99075 0.61058 0.42561 0.0
H1684 H 0.98662 0.58222 0.39173 0.0
H1685 H 0.85023 0.64426 0.45002 0.0
H1686 H 0.88508 0.65798 0.47164 0.0
H1687 H 0.87685 0.67081 0.4286 0.0
H1688 H 0.98228 0.69843 0.49188 0.0
H1689 H 0.96189 0.72487 0.38733 0.0
H1690 H 0.97166 0.62092 0.48496 0.0
H1691 H 0.93227 0.63095 0.49536 0.0
H1692 H 0.96443 0.65093 0.51614 0.0
H1693 H 0.93991 0.65325 0.35633 0.0
H1694 H 0.93113 0.69422 0.35058 0.0
H1695 H 0.90369 0.66831 0.37161 0.0
C1696 C 0.89057 0.63338 0.08668 0.0
C1697 C 0.91626 0.61454 0.09553 0.0
C1698 C 0.86063 0.62032 0.08255 0.0
C1699 C 0.85634 0.58769 0.08728 0.0
C1700 C 0.88135 0.56924 0.10005 0.0
C1701 C 0.91102 0.58295 0.10419 0.0
C1702 C 0.83407 0.64103 0.07076 0.0
C1703 C 0.87734 0.53467 0.10746 0.0
C1704 C 0.77577 0.54986 0.08714 0.0
C1705 C 0.77155 0.54272 0.05221 0.0
C1706 C 0.80281 0.56521 0.09886 0.0
C1707 C 0.82691 0.57249 0.07527 0.0
C1708 C 0.82301 0.56473 0.03995 0.0
C1709 C 0.7954 0.54987 0.02897 0.0
C1710 C 0.80521 0.57328 0.13658 0.0
C1711 C 0.84728 0.57216 0.01294 0.0
H1712 H 0.89412 0.65799 0.08089 0.0
H1713 H 0.93054 0.5683 0.11191 0.0
H1714 H 0.82885 0.63642 0.04323 0.0
H1715 H 0.81261 0.63566 0.08568 0.0
H1716 H 0.83981 0.66629 0.07356 0.0
H1717 H 0.90008 0.52277 0.11193 0.0
H1718 H 0.86294 0.53152 0.13087 0.0
H1719 H 0.86496 0.52289 0.08592 0.0
H1720 H 0.75806 0.54322 0.10563 0.0
H1721 H 0.79234 0.5442 0.00198 0.0
H1722 H 0.82032 0.59403 0.1412 0.0
H1723 H 0.81514 0.55304 0.15093 0.0
H1724 H 0.78172 0.57794 0.14745 0.0
H1725 H 0.86917 0.58249 0.02326 0.0
H1726 H 0.83717 0.58882 0.99383 0.0
H1727 H 0.85315 0.5505 -0.00125 0.0
C1728 C 0.94235 0.78889 0.0268 0.0
C1729 C 0.94971 0.77358 0.99616 0.0
C1730 C 0.92822 0.81844 0.02632 0.0
C1731 C 0.92147 0.83323 0.99437 0.0
C1732 C 0.92936 0.81812 0.96328 0.0
C1733 C 0.94363 0.78849 0.96456 0.0
C1734 C 0.92074 0.83396 0.06009 0.0
C1735 C 0.92286 0.83335 0.92879 0.0
C1736 C 0.86003 0.8968 0.00111 0.0
C1737 C 0.87878 0.92342 0.00593 0.0
C1738 C 0.8736 0.86739 0.99531 0.0
C1739 C 0.90661 0.86472 0.99401 0.0
C1740 C 0.92544 0.89199 0.99632 0.0
C1741 C 0.91125 0.92096 0.00237 0.0
C1742 C 0.85271 0.83891 0.99271 0.0
C1743 C 0.96067 0.8905 0.99465 0.0
H1744 H 0.94812 0.77792 0.05128 0.0
H1745 H 0.94977 0.77682 0.94088 0.0
H1746 H 0.9336 0.85651 0.06206 0.0
H1747 H 0.8954 0.83929 0.06127 0.0
H1748 H 0.92706 0.81908 0.08267 0.0
H1749 H 0.93006 0.81837 0.90699 0.0
H1750 H 0.89753 0.83846 0.92614 0.0
H1751 H 0.93551 0.85604 0.92695 0.0
H1752 H 0.83488 0.89863 0.00369 0.0
H1753 H 0.92565 0.94169 0.00511 0.0
H1754 H 0.85572 0.8241 0.01611 0.0
H1755 H 0.85931 0.82454 0.97026 0.0
H1756 H 0.82762 0.84529 0.99025 0.0
H1757 H 0.96997 0.88243 0.01993 0.0
H1758 H 0.97112 0.91378 0.98873 0.0
H1759 H 0.96842 0.87363 0.97492 0.0
C1760 C 0.6955 0.9484 0.97111 0.0
C1761 C 0.7002 0.98089 0.97178 0.0
C1762 C 0.66587 0.93534 0.97708 0.0
C1763 C 0.64004 0.95532 0.98246 0.0
C1764 C 0.64398 0.98816 0.97921 0.0
C1765 C 0.67412 0.0006 0.97421 0.0
C1766 C 0.66275 0.90019 0.98027 0.0
C1767 C 0.61685 0.01031 0.98342 0.0
C1768 C 0.56103 0.91418 0.98779 0.0
C1769 C 0.55752 0.91129 0.02349 0.0
C1770 C 0.58702 0.92997 0.97383 0.0
C1771 C 0.6104 0.94194 0.99622 0.0
C1772 C 0.60653 0.93935 0.03235 0.0
C1773 C 0.57988 0.92443 0.04551 0.0
C1774 C 0.58951 0.9338 0.93529 0.0
C1775 C 0.63094 0.95161 0.05717 0.0
H1776 H 0.71523 0.93305 0.96733 0.0
H1777 H 0.67743 0.02579 0.97405 0.0
H1778 H 0.65743 0.8938 0.00737 0.0
H1779 H 0.6431 0.89159 0.9641 0.0
H1780 H 0.68444 0.88788 0.97263 0.0
H1781 H 0.59512 0.00063 0.97183 0.0
H1782 H 0.61252 0.01386 0.01124 0.0
H1783 H 0.62178 0.03354 0.97152 0.0
H1784 H 0.54325 0.90449 0.97088 0.0
H1785 H 0.5769 0.92225 0.07313 0.0
H1786 H 0.61032 0.92116 0.92583 0.0
H1787 H 0.5927 0.95891 0.92852 0.0
H1788 H 0.56846 0.9248 0.92159 0.0
H1789 H 0.6537 0.94007 0.0524 0.0
H1790 H 0.62442 0.9475 0.08449 0.0
H1791 H 0.63436 0.97713 0.05308 0.0
C1792 C 0.55814 0.58694 0.06163 0.0
C1793 C 0.5856 0.57628 0.0461 0.0
C1794 C 0.54457 0.61551 0.05176 0.0
C1795 C 0.55873 0.63391 0.02563 0.0
C1796 C 0.58605 0.623 0.00929 0.0
C1797 C 0.59925 0.59436 0.01982 0.0
C1798 C 0.51552 0.62639 0.07 0.0
C1799 C 0.60174 0.64193 0.98127 0.0
C1800 C 0.50864 0.69908 0.98726 0.0
C1801 C 0.51849 0.72491 0.00667 0.0
C1802 C 0.52228 0.66943 0.9922 0.0
C1803 C 0.54613 0.66555 0.01734 0.0
C1804 C 0.55661 0.69169 0.03643 0.0
C1805 C 0.5425 0.7209 0.03109 0.0
C1806 C 0.5104 0.64203 0.97146 0.0
C1807 C 0.58175 0.68853 0.06375 0.0
H1808 H 0.54751 0.57323 0.08207 0.0
H1809 H 0.62036 0.58622 0.00753 0.0
H1810 H 0.52069 0.64826 0.08422 0.0
H1811 H 0.4968 0.6318 0.051 0.0
H1812 H 0.50653 0.60861 0.08854 0.0
H1813 H 0.62163 0.62927 0.96959 0.0
H1814 H 0.58461 0.64792 0.9607 0.0
H1815 H 0.6106 0.66431 0.992 0.0
H1816 H 0.48976 0.70193 0.96875 0.0
H1817 H 0.54937 0.74016 0.0474 0.0
H1818 H 0.5302 0.62985 0.9591 0.0
H1819 H 0.49342 0.64934 0.9512 0.0
H1820 H 0.4988 0.62481 0.98877 0.0
H1821 H 0.57316 0.67342 0.08508 0.0
H1822 H 0.58883 0.71152 0.07456 0.0
H1823 H 0.60274 0.67711 0.05297 0.0
loop_
_geom_bond_atom_site_label_1
_geom_bond_atom_site_label_2
_geom_bond_distance
_geom_bond_site_symmetry_2
_ccdc_geom_bond_type
Co0 O3 1.972 . S
Co0 N17 1.988 1_455 S
Co0 O25 1.966 1_455 S
Co0 O32 1.920 1_455 S
Co1 O4 1.966 1_655 S
Co1 N10 2.022 . S
Co1 N18 1.993 . S
Co1 O26 1.941 . S
C2 O3 1.258 . S
C2 O4 1.263 . S
O3 Co0 1.972 . S
O3 C2 1.258 . S
O4 Co1 1.966 1_455 S
O4 C2 1.263 . S
C5 O6 1.235 . S
C5 O32 1.289 1_455 S
O6 C5 1.235 . S
C7 C9 1.400 . S
C7 N10 1.351 1_455 S
C7 C12 1.501 . S
C8 C9 1.387 1_655 S
C8 N11 1.341 . S
C9 C7 1.400 . S
C9 C8 1.387 1_455 S
N10 Co1 2.022 . S
N10 C7 1.351 1_655 S
N10 N11 1.365 . S
N11 C8 1.341 . S
N11 N10 1.365 . S
N11 H31 0.862 . S
C12 C7 1.501 . S
C12 H13 0.961 . S
C12 H14 0.961 . S
C12 H15 0.960 . S
H13 C12 0.961 . S
H14 C12 0.961 . S
H15 C12 0.960 . S
C16 N17 1.342 . S
C16 C20 1.401 . S
C16 C21 1.499 . S
N17 Co0 1.988 1_655 S
N17 C16 1.342 . S
N17 N18 1.388 . S
N18 Co1 1.993 . S
N18 N17 1.388 . S
N18 C19 1.346 . S
C19 N18 1.346 . S
C19 C20 1.396 . S
C19 C29 1.510 . S
C20 C16 1.401 . S
C20 C19 1.396 . S
C21 C16 1.499 . S
C21 H22 0.959 . S
C21 H23 0.960 . S
C21 H24 0.961 . S
H22 C21 0.959 . S
H23 C21 0.960 . S
H24 C21 0.961 . S
O25 Co0 1.966 1_655 S
O25 C33 1.258 . S
O26 Co1 1.941 . S
O26 C33 1.266 . S
H27 C29 0.959 . S
H28 C29 0.961 . S
C29 C19 1.510 . S
C29 H27 0.959 . S
C29 H28 0.961 . S
C29 H30 0.960 . S
H30 C29 0.960 . S
H31 N11 0.862 . S
O32 Co0 1.920 1_655 S
O32 C5 1.289 1_655 S
C33 O25 1.258 . S
C33 O26 1.266 . S
Co34 O37 1.948 1_565 S
Co34 N51 1.998 . S
Co34 O59 1.979 . S
Co34 O66 1.924 . S
Co35 O38 1.966 1_565 S
Co35 N44 2.022 . S
Co35 N52 1.993 . S
Co35 O60 1.941 . S
C36 O37 1.258 . S
C36 O38 1.263 . S
O37 Co34 1.948 1_545 S
O37 C36 1.258 . S
O38 Co35 1.966 1_545 S
O38 C36 1.263 . S
C39 O40 1.235 . S
C39 O66 1.289 1_545 S
O40 C39 1.235 . S
C41 C43 1.400 . S
C41 N44 1.351 1_545 S
C41 C46 1.501 . S
C42 C43 1.387 1_565 S
C42 N45 1.341 . S
C43 C41 1.400 . S
C43 C42 1.387 1_545 S
N44 Co35 2.022 . S
N44 C41 1.351 1_565 S
N44 N45 1.365 . S
N45 C42 1.341 . S
N45 N44 1.365 . S
N45 H65 0.862 . S
C46 C41 1.501 . S
C46 H47 0.961 . S
C46 H48 0.961 . S
C46 H49 0.960 . S
H47 C46 0.961 . S
H48 C46 0.961 . S
H49 C46 0.960 . S
C50 N51 1.342 . S
C50 C54 1.401 . S
C50 C55 1.499 . S
N51 Co34 1.998 . S
N51 C50 1.342 . S
N51 N52 1.388 . S
N52 Co35 1.993 . S
N52 N51 1.388 . S
N52 C53 1.346 . S
C53 N52 1.346 . S
C53 C54 1.396 . S
C53 C63 1.510 . S
C54 C50 1.401 . S
C54 C53 1.396 . S
C55 C50 1.499 . S
C55 H56 0.959 . S
C55 H57 0.960 . S
C55 H58 0.961 . S
H56 C55 0.959 . S
H57 C55 0.960 . S
H58 C55 0.961 . S
O59 Co34 1.979 . S
O59 C67 1.258 . S
O60 Co35 1.941 . S
O60 C67 1.266 . S
H61 C63 0.959 . S
H62 C63 0.961 . S
C63 C53 1.510 . S
C63 H61 0.959 . S
C63 H62 0.961 . S
C63 H64 0.960 . S
H64 C63 0.960 . S
H65 N45 0.862 . S
O66 Co34 1.924 . S
O66 C39 1.289 1_565 S
C67 O59 1.258 . S
C67 O60 1.266 . S
Co68 O71 1.970 . S
Co68 N85 1.989 . S
Co68 O93 1.967 . S
Co68 O100 1.920 . S
Co69 O72 1.966 . S
Co69 N78 2.022 . S
Co69 N86 1.993 . S
Co69 O94 1.941 . S
C70 O71 1.258 . S
C70 O72 1.263 . S
O71 Co68 1.970 . S
O71 C70 1.258 . S
O72 Co69 1.966 . S
O72 C70 1.263 . S
C73 O74 1.235 . S
C73 O100 1.289 . S
O74 C73 1.235 . S
C75 C77 1.400 . S
C75 N78 1.351 . S
C75 C80 1.501 . S
C76 C77 1.387 . S
C76 N79 1.341 . S
C77 C75 1.400 . S
C77 C76 1.387 . S
N78 Co69 2.022 . S
N78 C75 1.351 . S
N78 N79 1.365 . S
N79 C76 1.341 . S
N79 N78 1.365 . S
N79 H99 0.862 . S
C80 C75 1.501 . S
C80 H81 0.961 . S
C80 H82 0.961 . S
C80 H83 0.960 . S
H81 C80 0.961 . S
H82 C80 0.961 . S
H83 C80 0.960 . S
C84 N85 1.342 . S
C84 C88 1.401 . S
C84 C89 1.499 . S
N85 Co68 1.989 . S
N85 C84 1.342 . S
N85 N86 1.388 . S
N86 Co69 1.993 . S
N86 N85 1.388 . S
N86 C87 1.346 . S
C87 N86 1.346 . S
C87 C88 1.396 . S
C87 C97 1.510 . S
C88 C84 1.401 . S
C88 C87 1.396 . S
C89 C84 1.499 . S
C89 H90 0.959 . S
C89 H91 0.960 . S
C89 H92 0.961 . S
H90 C89 0.959 . S
H91 C89 0.960 . S
H92 C89 0.961 . S
O93 Co68 1.967 . S
O93 C101 1.258 . S
O94 Co69 1.941 . S
O94 C101 1.266 . S
H95 C97 0.959 . S
H96 C97 0.961 . S
C97 C87 1.510 . S
C97 H95 0.959 . S
C97 H96 0.961 . S
C97 H98 0.960 . S
H98 C97 0.960 . S
H99 N79 0.862 . S
O100 Co68 1.920 . S
O100 C73 1.289 . S
C101 O93 1.258 . S
C101 O94 1.266 . S
Co102 O105 1.970 . S
Co102 N119 1.989 . S
Co102 O127 1.967 . S
Co102 O134 1.920 . S
Co103 O106 1.966 . S
Co103 N112 2.022 . S
Co103 N120 1.993 . S
Co103 O128 1.941 . S
C104 O105 1.258 . S
C104 O106 1.263 . S
O105 Co102 1.970 . S
O105 C104 1.258 . S
O106 Co103 1.966 . S
O106 C104 1.263 . S
C107 O108 1.235 . S
C107 O134 1.289 . S
O108 C107 1.235 . S
C109 C111 1.400 . S
C109 N112 1.351 . S
C109 C114 1.501 . S
C110 C111 1.387 . S
C110 N113 1.341 . S
C111 C109 1.400 . S
C111 C110 1.387 . S
N112 Co103 2.022 . S
N112 C109 1.351 . S
N112 N113 1.365 . S
N113 C110 1.341 . S
N113 N112 1.365 . S
N113 H133 0.862 . S
C114 C109 1.501 . S
C114 H115 0.961 . S
C114 H116 0.961 . S
C114 H117 0.960 . S
H115 C114 0.961 . S
H116 C114 0.961 . S
H117 C114 0.960 . S
C118 N119 1.342 . S
C118 C122 1.401 . S
C118 C123 1.499 . S
N119 Co102 1.989 . S
N119 C118 1.342 . S
N119 N120 1.388 . S
N120 Co103 1.993 . S
N120 N119 1.388 . S
N120 C121 1.346 . S
C121 N120 1.346 . S
C121 C122 1.396 . S
C121 C131 1.510 . S
C122 C118 1.401 . S
C122 C121 1.396 . S
C123 C118 1.499 . S
C123 H124 0.959 . S
C123 H125 0.960 . S
C123 H126 0.961 . S
H124 C123 0.959 . S
H125 C123 0.960 . S
H126 C123 0.961 . S
O127 Co102 1.967 . S
O127 C135 1.258 . S
O128 Co103 1.941 . S
O128 C135 1.266 . S
H129 C131 0.959 . S
H130 C131 0.961 . S
C131 C121 1.510 . S
C131 H129 0.959 . S
C131 H130 0.961 . S
C131 H132 0.960 . S
H132 C131 0.960 . S
H133 N113 0.862 . S
O134 Co102 1.920 . S
O134 C107 1.289 . S
C135 O127 1.258 . S
C135 O128 1.266 . S
Co136 O139 1.948 1_655 S
Co136 N153 1.998 . S
Co136 O161 1.979 . S
Co136 O168 1.924 . S
Co137 O140 1.966 1_655 S
Co137 N146 2.022 . S
Co137 N154 1.993 . S
Co137 O162 1.941 . S
C138 O139 1.258 . S
C138 O140 1.263 . S
O139 Co136 1.948 1_455 S
O139 C138 1.258 . S
O140 Co137 1.966 1_455 S
O140 C138 1.263 . S
C141 O142 1.235 . S
C141 O168 1.289 1_455 S
O142 C141 1.235 . S
C143 C145 1.400 1_556 S
C143 N146 1.351 1_455 S
C143 C148 1.501 . S
C144 C145 1.387 1_655 S
C144 N147 1.341 1_554 S
C145 C143 1.400 1_554 S
C145 C144 1.387 1_455 S
N146 Co137 2.022 . S
N146 C143 1.351 1_655 S
N146 N147 1.365 . S
N147 C144 1.341 1_556 S
N147 N146 1.365 . S
N147 H167 0.862 . S
C148 C143 1.501 . S
C148 H149 0.961 . S
C148 H150 0.961 . S
C148 H151 0.960 1_556 S
H149 C148 0.961 . S
H150 C148 0.961 . S
H151 C148 0.960 1_554 S
C152 N153 1.342 . S
C152 C156 1.401 . S
C152 C157 1.499 . S
N153 Co136 1.998 . S
N153 C152 1.342 . S
N153 N154 1.388 . S
N154 Co137 1.993 . S
N154 N153 1.388 . S
N154 C155 1.346 . S
C155 N154 1.346 . S
C155 C156 1.396 . S
C155 C165 1.510 . S
C156 C152 1.401 . S
C156 C155 1.396 . S
C157 C152 1.499 . S
C157 H158 0.959 . S
C157 H159 0.960 . S
C157 H160 0.961 . S
H158 C157 0.959 . S
H159 C157 0.960 . S
H160 C157 0.961 . S
O161 Co136 1.979 . S
O161 C169 1.258 . S
O162 Co137 1.941 . S
O162 C169 1.266 . S
H163 C165 0.959 . S
H164 C165 0.961 . S
C165 C155 1.510 . S
C165 H163 0.959 . S
C165 H164 0.961 . S
C165 H166 0.960 . S
H166 C165 0.960 . S
H167 N147 0.862 . S
O168 Co136 1.924 . S
O168 C141 1.289 1_655 S
C169 O161 1.258 . S
C169 O162 1.266 . S
Co170 O173 1.972 . S
Co170 N187 1.988 1_545 S
Co170 O195 1.966 1_545 S
Co170 O202 1.920 1_545 S
Co171 O174 1.966 1_565 S
Co171 N180 2.022 . S
Co171 N188 1.993 . S
Co171 O196 1.941 . S
C172 O173 1.258 . S
C172 O174 1.263 . S
O173 Co170 1.972 . S
O173 C172 1.258 . S
O174 Co171 1.966 1_545 S
O174 C172 1.263 . S
C175 O176 1.235 . S
C175 O202 1.289 1_545 S
O176 C175 1.235 . S
C177 C179 1.393 1_556 S
C177 N180 1.356 1_545 S
C177 C182 1.504 . S
C178 C179 1.387 1_565 S
C178 N181 1.341 . S
C179 C177 1.393 1_554 S
C179 C178 1.387 1_545 S
N180 Co171 2.022 . S
N180 C177 1.356 1_565 S
N180 N181 1.365 1_556 S
N181 C178 1.341 . S
N181 N180 1.365 1_554 S
N181 H201 0.861 1_554 S
C182 C177 1.504 . S
C182 H183 0.961 . S
C182 H184 0.961 . S
C182 H185 0.960 1_556 S
H183 C182 0.961 . S
H184 C182 0.961 . S
H185 C182 0.960 1_554 S
C186 N187 1.342 . S
C186 C190 1.401 . S
C186 C191 1.499 . S
N187 Co170 1.988 1_565 S
N187 C186 1.342 . S
N187 N188 1.388 . S
N188 Co171 1.993 . S
N188 N187 1.388 . S
N188 C189 1.346 . S
C189 N188 1.346 . S
C189 C190 1.396 . S
C189 C199 1.510 . S
C190 C186 1.401 . S
C190 C189 1.396 . S
C191 C186 1.499 . S
C191 H192 0.959 . S
C191 H193 0.960 . S
C191 H194 0.961 . S
H192 C191 0.959 . S
H193 C191 0.960 . S
H194 C191 0.961 . S
O195 Co170 1.966 1_565 S
O195 C203 1.258 . S
O196 Co171 1.941 . S
O196 C203 1.266 . S
H197 C199 0.959 . S
H198 C199 0.961 . S
C199 C189 1.510 . S
C199 H197 0.959 . S
C199 H198 0.961 . S
C199 H200 0.960 . S
H200 C199 0.960 . S
H201 N181 0.861 1_556 S
O202 Co170 1.920 1_565 S
O202 C175 1.289 1_565 S
C203 O195 1.258 . S
C203 O196 1.266 . S
Co204 O207 1.970 . S
Co204 N221 1.989 . S
Co204 O229 1.967 . S
Co204 O236 1.920 . S
Co205 O208 1.966 . S
Co205 N214 2.022 . S
Co205 N222 1.993 . S
Co205 O230 1.941 . S
C206 O207 1.258 . S
C206 O208 1.263 . S
O207 Co204 1.970 . S
O207 C206 1.258 . S
O208 Co205 1.966 . S
O208 C206 1.263 . S
C209 O210 1.235 . S
C209 O236 1.289 . S
O210 C209 1.235 . S
C211 C213 1.390 1_556 S
C211 N214 1.357 . S
C211 C216 1.505 . S
C212 C213 1.387 . S
C212 N215 1.341 . S
C213 C211 1.390 1_554 S
C213 C212 1.387 . S
N214 Co205 2.022 . S
N214 C211 1.357 . S
N214 N215 1.365 1_556 S
N215 C212 1.341 . S
N215 N214 1.365 1_554 S
N215 H235 0.862 . S
C216 C211 1.505 . S
C216 H217 0.961 . S
C216 H218 0.961 . S
C216 H219 0.960 1_556 S
H217 C216 0.961 . S
H218 C216 0.961 . S
H219 C216 0.960 1_554 S
C220 N221 1.342 . S
C220 C224 1.401 . S
C220 C225 1.499 . S
N221 Co204 1.989 . S
N221 C220 1.342 . S
N221 N222 1.388 . S
N222 Co205 1.993 . S
N222 N221 1.388 . S
N222 C223 1.346 . S
C223 N222 1.346 . S
C223 C224 1.396 . S
C223 C233 1.510 . S
C224 C220 1.401 . S
C224 C223 1.396 . S
C225 C220 1.499 . S
C225 H226 0.959 . S
C225 H227 0.960 . S
C225 H228 0.961 . S
H226 C225 0.959 . S
H227 C225 0.960 . S
H228 C225 0.961 . S
O229 Co204 1.967 . S
O229 C237 1.258 . S
O230 Co205 1.941 . S
O230 C237 1.266 . S
H231 C233 0.959 . S
H232 C233 0.961 . S
C233 C223 1.510 . S
C233 H231 0.959 . S
C233 H232 0.961 . S
C233 H234 0.960 . S
H234 C233 0.960 . S
H235 N215 0.862 . S
O236 Co204 1.920 . S
O236 C209 1.289 . S
C237 O229 1.258 . S
C237 O230 1.266 . S
Co238 O241 1.970 . S
Co238 N255 1.989 . S
Co238 O263 1.967 . S
Co238 O270 1.920 . S
Co239 O242 1.966 . S
Co239 N248 2.022 . S
Co239 N256 1.993 . S
Co239 O264 1.941 . S
C240 O241 1.258 . S
C240 O242 1.263 . S
O241 Co238 1.970 . S
O241 C240 1.258 . S
O242 Co239 1.966 . S
O242 C240 1.263 . S
C243 O244 1.235 . S
C243 O270 1.289 . S
O244 C243 1.235 . S
C245 C247 1.400 1_556 S
C245 N248 1.351 . S
C245 C250 1.501 . S
C246 C247 1.387 . S
C246 N249 1.341 1_554 S
C247 C245 1.400 1_554 S
C247 C246 1.387 . S
N248 Co239 2.022 . S
N248 C245 1.351 . S
N248 N249 1.365 . S
N249 C246 1.341 1_556 S
N249 N248 1.365 . S
N249 H269 0.862 . S
C250 C245 1.501 . S
C250 H251 0.961 . S
C250 H252 0.961 . S
C250 H253 0.960 1_556 S
H251 C250 0.961 . S
H252 C250 0.961 . S
H253 C250 0.960 1_554 S
C254 N255 1.342 . S
C254 C258 1.401 . S
C254 C259 1.499 . S
N255 Co238 1.989 . S
N255 C254 1.342 . S
N255 N256 1.388 . S
N256 Co239 1.993 . S
N256 N255 1.388 . S
N256 C257 1.346 . S
C257 N256 1.346 . S
C257 C258 1.396 . S
C257 C267 1.510 . S
C258 C254 1.401 . S
C258 C257 1.396 . S
C259 C254 1.499 . S
C259 H260 0.959 . S
C259 H261 0.960 . S
C259 H262 0.961 . S
H260 C259 0.959 . S
H261 C259 0.960 . S
H262 C259 0.961 . S
O263 Co238 1.967 . S
O263 C271 1.258 . S
O264 Co239 1.941 . S
O264 C271 1.266 . S
H265 C267 0.959 . S
H266 C267 0.961 . S
C267 C257 1.510 . S
C267 H265 0.959 . S
C267 H266 0.961 . S
C267 H268 0.960 . S
H268 C267 0.960 . S
H269 N249 0.862 . S
O270 Co238 1.920 . S
O270 C243 1.289 . S
C271 O263 1.258 . S
C271 O264 1.266 . S
Co272 O275 1.972 . S
Co272 N289 1.988 1_655 S
Co272 O297 1.966 1_655 S
Co272 O304 1.920 1_655 S
Co273 O276 1.966 1_455 S
Co273 N282 2.022 . S
Co273 N290 1.993 . S
Co273 O298 1.941 . S
C274 O275 1.258 . S
C274 O276 1.263 . S
O275 Co272 1.972 . S
O275 C274 1.258 . S
O276 Co273 1.966 1_655 S
O276 C274 1.263 . S
C277 O278 1.235 . S
C277 O304 1.289 1_655 S
O278 C277 1.235 . S
C279 C281 1.400 . S
C279 N282 1.351 1_655 S
C279 C284 1.501 . S
C280 C281 1.387 1_455 S
C280 N283 1.341 . S
C281 C279 1.400 . S
C281 C280 1.387 1_655 S
N282 Co273 2.022 . S
N282 C279 1.351 1_455 S
N282 N283 1.365 . S
N283 C280 1.341 . S
N283 N282 1.365 . S
N283 H303 0.862 . S
C284 C279 1.501 . S
C284 H285 0.961 . S
C284 H286 0.961 . S
C284 H287 0.960 . S
H285 C284 0.961 . S
H286 C284 0.961 . S
H287 C284 0.960 . S
C288 N289 1.342 . S
C288 C292 1.401 . S
C288 C293 1.499 . S
N289 Co272 1.988 1_455 S
N289 C288 1.342 . S
N289 N290 1.388 . S
N290 Co273 1.993 . S
N290 N289 1.388 . S
N290 C291 1.346 . S
C291 N290 1.346 . S
C291 C292 1.396 . S
C291 C301 1.510 . S
C292 C288 1.401 . S
C292 C291 1.396 . S
C293 C288 1.499 . S
C293 H294 0.959 . S
C293 H295 0.960 . S
C293 H296 0.961 . S
H294 C293 0.959 . S
H295 C293 0.960 . S
H296 C293 0.961 . S
O297 Co272 1.966 1_455 S
O297 C305 1.258 . S
O298 Co273 1.941 . S
O298 C305 1.266 . S
H299 C301 0.959 . S
H300 C301 0.961 . S
C301 C291 1.510 . S
C301 H299 0.959 . S
C301 H300 0.961 . S
C301 H302 0.960 . S
H302 C301 0.960 . S
H303 N283 0.862 . S
O304 Co272 1.920 1_455 S
O304 C277 1.289 1_455 S
C305 O297 1.258 . S
C305 O298 1.266 . S
Co306 O309 1.948 1_545 S
Co306 N323 1.998 . S
Co306 O331 1.979 . S
Co306 O338 1.924 . S
Co307 O310 1.966 1_545 S
Co307 N316 2.022 . S
Co307 N324 1.993 . S
Co307 O332 1.941 . S
C308 O309 1.258 . S
C308 O310 1.263 . S
O309 Co306 1.948 1_565 S
O309 C308 1.258 . S
O310 Co307 1.966 1_565 S
O310 C308 1.263 . S
C311 O312 1.235 . S
C311 O338 1.289 1_565 S
O312 C311 1.235 . S
C313 C315 1.400 . S
C313 N316 1.351 1_565 S
C313 C318 1.501 . S
C314 C315 1.387 1_545 S
C314 N317 1.341 . S
C315 C313 1.400 . S
C315 C314 1.387 1_565 S
N316 Co307 2.022 . S
N316 C313 1.351 1_545 S
N316 N317 1.365 . S
N317 C314 1.341 . S
N317 N316 1.365 . S
N317 H337 0.862 . S
C318 C313 1.501 . S
C318 H319 0.961 . S
C318 H320 0.961 . S
C318 H321 0.960 . S
H319 C318 0.961 . S
H320 C318 0.961 . S
H321 C318 0.960 . S
C322 N323 1.342 . S
C322 C326 1.401 . S
C322 C327 1.499 . S
N323 Co306 1.998 . S
N323 C322 1.342 . S
N323 N324 1.388 . S
N324 Co307 1.993 . S
N324 N323 1.388 . S
N324 C325 1.346 . S
C325 N324 1.346 . S
C325 C326 1.396 . S
C325 C335 1.510 . S
C326 C322 1.401 . S
C326 C325 1.396 . S
C327 C322 1.499 . S
C327 H328 0.959 . S
C327 H329 0.960 . S
C327 H330 0.961 . S
H328 C327 0.959 . S
H329 C327 0.960 . S
H330 C327 0.961 . S
O331 Co306 1.979 . S
O331 C339 1.258 . S
O332 Co307 1.941 . S
O332 C339 1.266 . S
H333 C335 0.959 . S
H334 C335 0.961 . S
C335 C325 1.510 . S
C335 H333 0.959 . S
C335 H334 0.961 . S
C335 H336 0.960 . S
H336 C335 0.960 . S
H337 N317 0.862 . S
O338 Co306 1.924 . S
O338 C311 1.289 1_545 S
C339 O331 1.258 . S
C339 O332 1.266 . S
Co340 O343 1.970 . S
Co340 N357 1.989 . S
Co340 O365 1.967 . S
Co340 O372 1.920 . S
Co341 O344 1.966 . S
Co341 N350 2.022 . S
Co341 N358 1.993 . S
Co341 O366 1.941 . S
C342 O343 1.258 . S
C342 O344 1.263 . S
O343 Co340 1.970 . S
O343 C342 1.258 . S
O344 Co341 1.966 . S
O344 C342 1.263 . S
C345 O346 1.235 . S
C345 O372 1.289 . S
O346 C345 1.235 . S
C347 C349 1.400 . S
C347 N350 1.351 . S
C347 C352 1.501 . S
C348 C349 1.387 . S
C348 N351 1.341 . S
C349 C347 1.400 . S
C349 C348 1.387 . S
N350 Co341 2.022 . S
N350 C347 1.351 . S
N350 N351 1.365 . S
N351 C348 1.341 . S
N351 N350 1.365 . S
N351 H371 0.862 . S
C352 C347 1.501 . S
C352 H353 0.961 . S
C352 H354 0.961 . S
C352 H355 0.960 . S
H353 C352 0.961 . S
H354 C352 0.961 . S
H355 C352 0.960 . S
C356 N357 1.342 . S
C356 C360 1.401 . S
C356 C361 1.499 . S
N357 Co340 1.989 . S
N357 C356 1.342 . S
N357 N358 1.388 . S
N358 Co341 1.993 . S
N358 N357 1.388 . S
N358 C359 1.346 . S
C359 N358 1.346 . S
C359 C360 1.396 . S
C359 C369 1.510 . S
C360 C356 1.401 . S
C360 C359 1.396 . S
C361 C356 1.499 . S
C361 H362 0.959 . S
C361 H363 0.960 . S
C361 H364 0.961 . S
H362 C361 0.959 . S
H363 C361 0.960 . S
H364 C361 0.961 . S
O365 Co340 1.967 . S
O365 C373 1.258 . S
O366 Co341 1.941 . S
O366 C373 1.266 . S
H367 C369 0.959 . S
H368 C369 0.961 . S
C369 C359 1.510 . S
C369 H367 0.959 . S
C369 H368 0.961 . S
C369 H370 0.960 . S
H370 C369 0.960 . S
H371 N351 0.862 . S
O372 Co340 1.920 . S
O372 C345 1.289 . S
C373 O365 1.258 . S
C373 O366 1.266 . S
Co374 O377 1.970 . S
Co374 N391 1.989 . S
Co374 O399 1.967 . S
Co374 O406 1.920 . S
Co375 O378 1.966 . S
Co375 N384 2.022 . S
Co375 N392 1.993 . S
Co375 O400 1.941 . S
C376 O377 1.258 . S
C376 O378 1.263 . S
O377 Co374 1.970 . S
O377 C376 1.258 . S
O378 Co375 1.966 . S
O378 C376 1.263 . S
C379 O380 1.235 . S
C379 O406 1.289 . S
O380 C379 1.235 . S
C381 C383 1.400 . S
C381 N384 1.351 . S
C381 C386 1.501 . S
C382 C383 1.387 . S
C382 N385 1.341 . S
C383 C381 1.400 . S
C383 C382 1.387 . S
N384 Co375 2.022 . S
N384 C381 1.351 . S
N384 N385 1.365 . S
N385 C382 1.341 . S
N385 N384 1.365 . S
N385 H405 0.862 . S
C386 C381 1.501 . S
C386 H387 0.961 . S
C386 H388 0.961 . S
C386 H389 0.960 . S
H387 C386 0.961 . S
H388 C386 0.961 . S
H389 C386 0.960 . S
C390 N391 1.342 . S
C390 C394 1.401 . S
C390 C395 1.499 . S
N391 Co374 1.989 . S
N391 C390 1.342 . S
N391 N392 1.388 . S
N392 Co375 1.993 . S
N392 N391 1.388 . S
N392 C393 1.346 . S
C393 N392 1.346 . S
C393 C394 1.396 . S
C393 C403 1.510 . S
C394 C390 1.401 . S
C394 C393 1.396 . S
C395 C390 1.499 . S
C395 H396 0.959 . S
C395 H397 0.960 . S
C395 H398 0.961 . S
H396 C395 0.959 . S
H397 C395 0.960 . S
H398 C395 0.961 . S
O399 Co374 1.967 . S
O399 C407 1.258 . S
O400 Co375 1.941 . S
O400 C407 1.266 . S
H401 C403 0.959 . S
H402 C403 0.961 . S
C403 C393 1.510 . S
C403 H401 0.959 . S
C403 H402 0.961 . S
C403 H404 0.960 . S
H404 C403 0.960 . S
H405 N385 0.862 . S
O406 Co374 1.920 . S
O406 C379 1.289 . S
C407 O399 1.258 . S
C407 O400 1.266 . S
Co408 O411 1.948 1_455 S
Co408 N425 1.998 . S
Co408 O433 1.979 . S
Co408 O440 1.924 . S
Co409 O412 1.966 1_455 S
Co409 N418 2.022 . S
Co409 N426 1.993 . S
Co409 O434 1.941 . S
C410 O411 1.258 . S
C410 O412 1.263 . S
O411 Co408 1.948 1_655 S
O411 C410 1.258 . S
O412 Co409 1.966 1_655 S
O412 C410 1.263 . S
C413 O414 1.235 . S
C413 O440 1.289 1_655 S
O414 C413 1.235 . S
C415 C417 1.400 1_554 S
C415 N418 1.351 1_655 S
C415 C420 1.501 . S
C416 C417 1.387 1_455 S
C416 N419 1.341 1_556 S
C417 C415 1.400 1_556 S
C417 C416 1.387 1_655 S
N418 Co409 2.022 . S
N418 C415 1.351 1_455 S
N418 N419 1.365 . S
N419 C416 1.341 1_554 S
N419 N418 1.365 . S
N419 H439 0.862 . S
C420 C415 1.501 . S
C420 H421 0.961 . S
C420 H422 0.961 . S
C420 H423 0.960 1_554 S
H421 C420 0.961 . S
H422 C420 0.961 . S
H423 C420 0.960 1_556 S
C424 N425 1.342 . S
C424 C428 1.401 . S
C424 C429 1.499 . S
N425 Co408 1.998 . S
N425 C424 1.342 . S
N425 N426 1.388 . S
N426 Co409 1.993 . S
N426 N425 1.388 . S
N426 C427 1.346 . S
C427 N426 1.346 . S
C427 C428 1.396 . S
C427 C437 1.510 . S
C428 C424 1.401 . S
C428 C427 1.396 . S
C429 C424 1.499 . S
C429 H430 0.959 . S
C429 H431 0.960 . S
C429 H432 0.961 . S
H430 C429 0.959 . S
H431 C429 0.960 . S
H432 C429 0.961 . S
O433 Co408 1.979 . S
O433 C441 1.258 . S
O434 Co409 1.941 . S
O434 C441 1.266 . S
H435 C437 0.959 . S
H436 C437 0.961 . S
C437 C427 1.510 . S
C437 H435 0.959 . S
C437 H436 0.961 . S
C437 H438 0.960 . S
H438 C437 0.960 . S
H439 N419 0.862 . S
O440 Co408 1.924 . S
O440 C413 1.289 1_455 S
C441 O433 1.258 . S
C441 O434 1.266 . S
Co442 O445 1.972 . S
Co442 N459 1.988 1_565 S
Co442 O467 1.966 1_565 S
Co442 O474 1.920 1_565 S
Co443 O446 1.966 1_545 S
Co443 N452 2.022 . S
Co443 N460 1.993 . S
Co443 O468 1.941 . S
C444 O445 1.258 . S
C444 O446 1.263 . S
O445 Co442 1.972 . S
O445 C444 1.258 . S
O446 Co443 1.966 1_565 S
O446 C444 1.263 . S
C447 O448 1.235 . S
C447 O474 1.289 1_565 S
O448 C447 1.235 . S
C449 C451 1.393 1_554 S
C449 N452 1.356 1_565 S
C449 C454 1.504 . S
C450 C451 1.387 1_545 S
C450 N453 1.341 . S
C451 C449 1.393 1_556 S
C451 C450 1.387 1_565 S
N452 Co443 2.022 . S
N452 C449 1.356 1_545 S
N452 N453 1.365 1_554 S
N453 C450 1.341 . S
N453 N452 1.365 1_556 S
N453 H473 0.861 1_556 S
C454 C449 1.504 . S
C454 H455 0.961 . S
C454 H456 0.961 . S
C454 H457 0.960 1_554 S
H455 C454 0.961 . S
H456 C454 0.961 . S
H457 C454 0.960 1_556 S
C458 N459 1.342 . S
C458 C462 1.401 . S
C458 C463 1.499 . S
N459 Co442 1.988 1_545 S
N459 C458 1.342 . S
N459 N460 1.388 . S
N460 Co443 1.993 . S
N460 N459 1.388 . S
N460 C461 1.346 . S
C461 N460 1.346 . S
C461 C462 1.396 . S
C461 C471 1.510 . S
C462 C458 1.401 . S
C462 C461 1.396 . S
C463 C458 1.499 . S
C463 H464 0.959 . S
C463 H465 0.960 . S
C463 H466 0.961 . S
H464 C463 0.959 . S
H465 C463 0.960 . S
H466 C463 0.961 . S
O467 Co442 1.966 1_545 S
O467 C475 1.258 . S
O468 Co443 1.941 . S
O468 C475 1.266 . S
H469 C471 0.959 . S
H470 C471 0.961 . S
C471 C461 1.510 . S
C471 H469 0.959 . S
C471 H470 0.961 . S
C471 H472 0.960 . S
H472 C471 0.960 . S
H473 N453 0.861 1_554 S
O474 Co442 1.920 1_545 S
O474 C447 1.289 1_545 S
C475 O467 1.258 . S
C475 O468 1.266 . S
Co476 O479 1.970 . S
Co476 N493 1.989 . S
Co476 O501 1.967 . S
Co476 O508 1.920 . S
Co477 O480 1.966 . S
Co477 N486 2.022 . S
Co477 N494 1.993 . S
Co477 O502 1.941 . S
C478 O479 1.258 . S
C478 O480 1.263 . S
O479 Co476 1.970 . S
O479 C478 1.258 . S
O480 Co477 1.966 . S
O480 C478 1.263 . S
C481 O482 1.235 . S
C481 O508 1.289 . S
O482 C481 1.235 . S
C483 C485 1.390 1_554 S
C483 N486 1.357 . S
C483 C488 1.505 . S
C484 C485 1.387 . S
C484 N487 1.341 . S
C485 C483 1.390 1_556 S
C485 C484 1.387 . S
N486 Co477 2.022 . S
N486 C483 1.357 . S
N486 N487 1.365 1_554 S
N487 C484 1.341 . S
N487 N486 1.365 1_556 S
N487 H507 0.862 . S
C488 C483 1.505 . S
C488 H489 0.961 . S
C488 H490 0.961 . S
C488 H491 0.960 1_554 S
H489 C488 0.961 . S
H490 C488 0.961 . S
H491 C488 0.960 1_556 S
C492 N493 1.342 . S
C492 C496 1.401 . S
C492 C497 1.499 . S
N493 Co476 1.989 . S
N493 C492 1.342 . S
N493 N494 1.388 . S
N494 Co477 1.993 . S
N494 N493 1.388 . S
N494 C495 1.346 . S
C495 N494 1.346 . S
C495 C496 1.396 . S
C495 C505 1.510 . S
C496 C492 1.401 . S
C496 C495 1.396 . S
C497 C492 1.499 . S
C497 H498 0.959 . S
C497 H499 0.960 . S
C497 H500 0.961 . S
H498 C497 0.959 . S
H499 C497 0.960 . S
H500 C497 0.961 . S
O501 Co476 1.967 . S
O501 C509 1.258 . S
O502 Co477 1.941 . S
O502 C509 1.266 . S
H503 C505 0.959 . S
H504 C505 0.961 . S
C505 C495 1.510 . S
C505 H503 0.959 . S
C505 H504 0.961 . S
C505 H506 0.960 . S
H506 C505 0.960 . S
H507 N487 0.862 . S
O508 Co476 1.920 . S
O508 C481 1.289 . S
C509 O501 1.258 . S
C509 O502 1.266 . S
Co510 O513 1.970 . S
Co510 N527 1.989 . S
Co510 O535 1.967 . S
Co510 O542 1.920 . S
Co511 O514 1.966 . S
Co511 N520 2.022 . S
Co511 N528 1.993 . S
Co511 O536 1.941 . S
C512 O513 1.258 . S
C512 O514 1.263 . S
O513 Co510 1.970 . S
O513 C512 1.258 . S
O514 Co511 1.966 . S
O514 C512 1.263 . S
C515 O516 1.235 . S
C515 O542 1.289 . S
O516 C515 1.235 . S
C517 C519 1.400 1_554 S
C517 N520 1.351 . S
C517 C522 1.501 . S
C518 C519 1.387 . S
C518 N521 1.341 1_556 S
C519 C517 1.400 1_556 S
C519 C518 1.387 . S
N520 Co511 2.022 . S
N520 C517 1.351 . S
N520 N521 1.365 . S
N521 C518 1.341 1_554 S
N521 N520 1.365 . S
N521 H541 0.862 . S
C522 C517 1.501 . S
C522 H523 0.961 . S
C522 H524 0.961 . S
C522 H525 0.960 1_554 S
H523 C522 0.961 . S
H524 C522 0.961 . S
H525 C522 0.960 1_556 S
C526 N527 1.342 . S
C526 C530 1.401 . S
C526 C531 1.499 . S
N527 Co510 1.989 . S
N527 C526 1.342 . S
N527 N528 1.388 . S
N528 Co511 1.993 . S
N528 N527 1.388 . S
N528 C529 1.346 . S
C529 N528 1.346 . S
C529 C530 1.396 . S
C529 C539 1.510 . S
C530 C526 1.401 . S
C530 C529 1.396 . S
C531 C526 1.499 . S
C531 H532 0.959 . S
C531 H533 0.960 . S
C531 H534 0.961 . S
H532 C531 0.959 . S
H533 C531 0.960 . S
H534 C531 0.961 . S
O535 Co510 1.967 . S
O535 C543 1.258 . S
O536 Co511 1.941 . S
O536 C543 1.266 . S
H537 C539 0.959 . S
H538 C539 0.961 . S
C539 C529 1.510 . S
C539 H537 0.959 . S
C539 H538 0.961 . S
C539 H540 0.960 . S
H540 C539 0.960 . S
H541 N521 0.862 . S
O542 Co510 1.920 . S
O542 C515 1.289 . S
C543 O535 1.258 . S
C543 O536 1.266 . S
C544 C545 1.391 . S
C544 C546 1.394 . S
C544 H560 0.931 . S
C545 C544 1.391 . S
C545 C549 1.376 1_455 S
C546 C544 1.394 . S
C546 C547 1.369 . S
C546 C550 1.531 . S
C547 C546 1.369 . S
C547 C548 1.410 1_455 S
C547 C555 1.503 . S
C548 C547 1.410 1_655 S
C548 C549 1.392 . S
C548 C551 1.511 . S
C549 C545 1.376 1_655 S
C549 C548 1.392 . S
C549 H561 0.929 . S
C550 C546 1.531 . S
C550 H562 0.960 . S
C550 H563 0.962 . S
C550 H564 0.960 . S
C551 C548 1.511 . S
C551 H565 0.975 . S
C551 H566 0.963 . S
C551 H567 0.961 . S
C552 C553 1.370 1_565 S
C552 C554 1.363 1_565 S
C552 H568 0.931 . S
C553 C552 1.370 1_545 S
C553 C557 1.408 . S
C554 C552 1.363 1_545 S
C554 C555 1.370 . S
C554 C558 1.524 1_545 S
C555 C547 1.503 . S
C555 C554 1.370 . S
C555 C556 1.403 . S
C556 C555 1.403 . S
C556 C557 1.404 . S
C556 C559 1.539 . S
C557 C553 1.408 . S
C557 C556 1.404 . S
C557 H569 0.930 . S
C558 C554 1.524 1_565 S
C558 H570 0.956 1_565 S
C558 H571 0.961 . S
C558 H572 0.961 . S
C559 C556 1.539 . S
C559 H573 0.958 . S
C559 H574 0.943 1_455 S
C559 H575 0.960 1_455 S
H560 C544 0.931 . S
H561 C549 0.929 . S
H562 C550 0.960 . S
H563 C550 0.962 . S
H564 C550 0.960 . S
H565 C551 0.975 . S
H566 C551 0.963 . S
H567 C551 0.961 . S
H568 C552 0.931 . S
H569 C557 0.930 . S
H570 C558 0.956 1_545 S
H571 C558 0.961 . S
H572 C558 0.961 . S
H573 C559 0.958 . S
H574 C559 0.943 1_655 S
H575 C559 0.960 1_655 S
C576 C577 1.391 1_565 S
C576 C578 1.394 . S
C576 H592 0.931 . S
C577 C576 1.391 1_545 S
C577 C581 1.376 . S
C578 C576 1.394 . S
C578 C579 1.369 1_565 S
C578 C582 1.531 . S
C579 C578 1.369 1_545 S
C579 C580 1.410 . S
C579 C587 1.503 . S
C580 C579 1.410 . S
C580 C581 1.392 . S
C580 C583 1.511 . S
C581 C577 1.376 . S
C581 C580 1.392 . S
C581 H593 0.929 . S
C582 C578 1.531 . S
C582 H594 0.960 . S
C582 H595 0.962 . S
C582 H596 0.960 . S
C583 C580 1.511 . S
C583 H597 0.961 . S
C583 H598 0.961 . S
C583 H599 0.961 . S
C584 C585 1.370 . S
C584 C586 1.363 . S
C584 H600 0.931 . S
C585 C584 1.370 . S
C585 C589 1.408 . S
C586 C584 1.363 . S
C586 C587 1.370 . S
C586 C590 1.524 . S
C587 C579 1.503 . S
C587 C586 1.370 . S
C587 C588 1.403 . S
C588 C587 1.403 . S
C588 C589 1.404 . S
C588 C591 1.539 . S
C589 C585 1.408 . S
C589 C588 1.404 . S
C589 H601 0.930 . S
C590 C586 1.524 . S
C590 H602 0.956 . S
C590 H603 0.961 . S
C590 H604 0.961 . S
C591 C588 1.539 . S
C591 H605 0.958 1_545 S
C591 H606 0.961 . S
C591 H607 0.960 . S
H592 C576 0.931 . S
H593 C581 0.929 . S
H594 C582 0.960 . S
H595 C582 0.962 . S
H596 C582 0.960 . S
H597 C583 0.961 . S
H598 C583 0.961 . S
H599 C583 0.961 . S
H600 C584 0.931 . S
H601 C589 0.930 . S
H602 C590 0.956 . S
H603 C590 0.961 . S
H604 C590 0.961 . S
H605 C591 0.958 1_565 S
H606 C591 0.961 . S
H607 C591 0.960 . S
C608 C609 1.391 . S
C608 C610 1.394 . S
C608 H624 0.931 . S
C609 C608 1.391 . S
C609 C613 1.376 . S
C610 C608 1.394 . S
C610 C611 1.369 . S
C610 C614 1.531 . S
C611 C610 1.369 . S
C611 C612 1.410 . S
C611 C619 1.503 . S
C612 C611 1.410 . S
C612 C613 1.392 . S
C612 C615 1.511 . S
C613 C609 1.376 . S
C613 C612 1.392 . S
C613 H625 0.929 . S
C614 C610 1.531 . S
C614 H626 0.960 . S
C614 H627 0.962 . S
C614 H628 0.960 . S
C615 C612 1.511 . S
C615 H629 0.961 . S
C615 H630 0.961 . S
C615 H631 0.961 . S
C616 C617 1.370 . S
C616 C618 1.363 . S
C616 H632 0.931 . S
C617 C616 1.370 . S
C617 C621 1.408 . S
C618 C616 1.363 . S
C618 C619 1.370 . S
C618 C622 1.524 . S
C619 C611 1.503 . S
C619 C618 1.370 . S
C619 C620 1.403 . S
C620 C619 1.403 . S
C620 C621 1.404 . S
C620 C623 1.539 . S
C621 C617 1.408 . S
C621 C620 1.404 . S
C621 H633 0.930 . S
C622 C618 1.524 . S
C622 H634 0.956 . S
C622 H635 0.961 . S
C622 H636 0.961 . S
C623 C620 1.539 . S
C623 H637 0.958 . S
C623 H638 0.961 . S
C623 H639 0.960 . S
H624 C608 0.931 . S
H625 C613 0.929 . S
H626 C614 0.960 . S
H627 C614 0.962 . S
H628 C614 0.960 . S
H629 C615 0.961 . S
H630 C615 0.961 . S
H631 C615 0.961 . S
H632 C616 0.931 . S
H633 C621 0.930 . S
H634 C622 0.956 . S
H635 C622 0.961 . S
H636 C622 0.961 . S
H637 C623 0.958 . S
H638 C623 0.961 . S
H639 C623 0.960 . S
C640 C641 1.391 . S
C640 C642 1.394 . S
C640 H656 0.931 . S
C641 C640 1.391 . S
C641 C645 1.376 . S
C642 C640 1.394 . S
C642 C643 1.369 . S
C642 C646 1.531 . S
C643 C642 1.369 . S
C643 C644 1.410 . S
C643 C651 1.503 . S
C644 C643 1.410 . S
C644 C645 1.392 . S
C644 C647 1.511 . S
C645 C641 1.376 . S
C645 C644 1.392 . S
C645 H657 0.929 1_455 S
C646 C642 1.531 . S
C646 H658 0.960 . S
C646 H659 0.962 . S
C646 H660 0.960 . S
C647 C644 1.511 . S
C647 H661 0.961 1_455 S
C647 H662 0.961 . S
C647 H663 0.961 . S
C648 C649 1.370 . S
C648 C650 1.363 . S
C648 H664 0.931 . S
C649 C648 1.370 . S
C649 C653 1.408 . S
C650 C648 1.363 . S
C650 C651 1.370 . S
C650 C654 1.524 1_455 S
C651 C643 1.503 . S
C651 C650 1.370 . S
C651 C652 1.403 . S
C652 C651 1.403 . S
C652 C653 1.404 . S
C652 C655 1.539 . S
C653 C649 1.408 . S
C653 C652 1.404 . S
C653 H665 0.930 . S
C654 C650 1.524 1_655 S
C654 H666 0.956 . S
C654 H667 0.961 . S
C654 H668 0.961 . S
C655 C652 1.539 . S
C655 H669 0.958 . S
C655 H670 0.961 . S
C655 H671 0.960 . S
H656 C640 0.931 . S
H657 C645 0.929 1_655 S
H658 C646 0.960 . S
H659 C646 0.962 . S
H660 C646 0.960 . S
H661 C647 0.961 1_655 S
H662 C647 0.961 . S
H663 C647 0.961 . S
H664 C648 0.931 . S
H665 C653 0.930 . S
H666 C654 0.956 . S
H667 C654 0.961 . S
H668 C654 0.961 . S
H669 C655 0.958 . S
H670 C655 0.961 . S
H671 C655 0.960 . S
C672 C673 1.391 . S
C672 C674 1.394 . S
C672 H688 0.931 . S
C673 C672 1.391 . S
C673 C677 1.376 1_655 S
C674 C672 1.394 . S
C674 C675 1.369 . S
C674 C678 1.531 . S
C675 C674 1.369 . S
C675 C676 1.410 1_655 S
C675 C683 1.503 . S
C676 C675 1.410 1_455 S
C676 C677 1.392 . S
C676 C679 1.511 . S
C677 C673 1.376 1_455 S
C677 C676 1.392 . S
C677 H689 0.929 . S
C678 C674 1.531 . S
C678 H690 0.960 . S
C678 H691 0.962 . S
C678 H692 0.960 . S
C679 C676 1.511 . S
C679 H693 0.961 . S
C679 H694 0.961 . S
C679 H695 0.961 . S
C680 C681 1.370 . S
C680 C682 1.363 . S
C680 H696 0.931 . S
C681 C680 1.370 . S
C681 C685 1.408 1_565 S
C682 C680 1.363 . S
C682 C683 1.370 . S
C682 C686 1.524 . S
C683 C675 1.503 . S
C683 C682 1.370 . S
C683 C684 1.403 1_565 S
C684 C683 1.403 1_545 S
C684 C685 1.404 . S
C684 C687 1.539 . S
C685 C681 1.408 1_545 S
C685 C684 1.404 . S
C685 H697 0.930 . S
C686 C682 1.524 . S
C686 H698 0.956 . S
C686 H699 0.961 . S
C686 H700 0.961 . S
C687 C684 1.539 . S
C687 H701 0.958 . S
C687 H702 0.961 . S
C687 H703 0.960 . S
H688 C672 0.931 . S
H689 C677 0.929 . S
H690 C678 0.960 . S
H691 C678 0.962 . S
H692 C678 0.960 . S
H693 C679 0.961 . S
H694 C679 0.961 . S
H695 C679 0.961 . S
H696 C680 0.931 . S
H697 C685 0.930 . S
H698 C686 0.956 . S
H699 C686 0.961 . S
H700 C686 0.961 . S
H701 C687 0.958 . S
H702 C687 0.961 . S
H703 C687 0.960 . S
C704 C705 1.391 . S
C704 C706 1.394 . S
C704 H720 0.931 . S
C705 C704 1.391 . S
C705 C709 1.376 1_565 S
C706 C704 1.394 . S
C706 C707 1.369 . S
C706 C710 1.531 . S
C707 C706 1.369 . S
C707 C708 1.410 1_565 S
C707 C715 1.503 . S
C708 C707 1.410 1_545 S
C708 C709 1.392 . S
C708 C711 1.511 . S
C709 C705 1.376 1_545 S
C709 C708 1.392 . S
C709 H721 0.929 . S
C710 C706 1.531 . S
C710 H722 0.960 . S
C710 H723 0.962 . S
C710 H724 0.960 . S
C711 C708 1.511 . S
C711 H725 0.961 . S
C711 H726 0.961 . S
C711 H727 0.961 . S
C712 C713 1.370 . S
C712 C714 1.363 . S
C712 H728 0.931 . S
C713 C712 1.370 . S
C713 C717 1.408 . S
C714 C712 1.363 . S
C714 C715 1.370 . S
C714 C718 1.524 . S
C715 C707 1.503 . S
C715 C714 1.370 . S
C715 C716 1.403 . S
C716 C715 1.403 . S
C716 C717 1.404 . S
C716 C719 1.539 . S
C717 C713 1.408 . S
C717 C716 1.404 . S
C717 H729 0.930 . S
C718 C714 1.524 . S
C718 H730 0.956 . S
C718 H731 0.961 . S
C718 H732 0.961 . S
C719 C716 1.539 . S
C719 H733 0.958 . S
C719 H734 0.961 . S
C719 H735 0.985 . S
H720 C704 0.931 . S
H721 C709 0.929 . S
H722 C710 0.960 . S
H723 C710 0.962 . S
H724 C710 0.960 . S
H725 C711 0.961 . S
H726 C711 0.961 . S
H727 C711 0.961 . S
H728 C712 0.931 . S
H729 C717 0.930 . S
H730 C718 0.956 . S
H731 C718 0.961 . S
H732 C718 0.961 . S
H733 C719 0.958 . S
H734 C719 0.961 . S
H735 C719 0.985 . S
C736 C737 1.391 . S
C736 C738 1.394 . S
C736 H752 0.931 . S
C737 C736 1.391 . S
C737 C741 1.376 . S
C738 C736 1.394 . S
C738 C739 1.369 . S
C738 C742 1.531 . S
C739 C738 1.369 . S
C739 C740 1.410 . S
C739 C747 1.503 . S
C740 C739 1.410 . S
C740 C741 1.392 . S
C740 C743 1.511 . S
C741 C737 1.376 . S
C741 C740 1.392 . S
C741 H753 0.929 . S
C742 C738 1.531 . S
C742 H754 0.960 . S
C742 H755 0.962 . S
C742 H756 0.960 . S
C743 C740 1.511 . S
C743 H757 0.961 . S
C743 H758 0.961 . S
C743 H759 0.961 . S
C744 C745 1.370 . S
C744 C746 1.363 . S
C744 H760 0.931 . S
C745 C744 1.370 . S
C745 C749 1.408 . S
C746 C744 1.363 . S
C746 C747 1.370 . S
C746 C750 1.524 . S
C747 C739 1.503 . S
C747 C746 1.370 . S
C747 C748 1.403 . S
C748 C747 1.403 . S
C748 C749 1.404 . S
C748 C751 1.539 . S
C749 C745 1.408 . S
C749 C748 1.404 . S
C749 H761 0.930 . S
C750 C746 1.524 . S
C750 H762 0.956 . S
C750 H763 0.961 . S
C750 H764 0.961 . S
C751 C748 1.539 . S
C751 H765 0.958 . S
C751 H766 0.961 . S
C751 H767 0.960 . S
H752 C736 0.931 . S
H753 C741 0.929 . S
H754 C742 0.960 . S
H755 C742 0.962 . S
H756 C742 0.960 . S
H757 C743 0.961 . S
H758 C743 0.961 . S
H759 C743 0.961 . S
H760 C744 0.931 . S
H761 C749 0.930 . S
H762 C750 0.956 . S
H763 C750 0.961 . S
H764 C750 0.961 . S
H765 C751 0.958 . S
H766 C751 0.961 . S
H767 C751 0.960 . S
C768 C769 1.391 . S
C768 C770 1.394 . S
C768 H784 0.931 . S
C769 C768 1.391 . S
C769 C773 1.376 . S
C770 C768 1.394 . S
C770 C771 1.369 . S
C770 C774 1.531 . S
C771 C770 1.369 . S
C771 C772 1.410 . S
C771 C779 1.503 . S
C772 C771 1.410 . S
C772 C773 1.392 . S
C772 C775 1.511 1_655 S
C773 C769 1.376 . S
C773 C772 1.392 . S
C773 H785 0.929 . S
C774 C770 1.531 . S
C774 H786 0.960 . S
C774 H787 0.962 . S
C774 H788 0.960 . S
C775 C772 1.511 1_455 S
C775 H789 0.961 . S
C775 H790 0.961 . S
C775 H791 0.961 . S
C776 C777 1.370 . S
C776 C778 1.363 . S
C776 H792 0.931 . S
C777 C776 1.370 . S
C777 C781 1.408 . S
C778 C776 1.363 . S
C778 C779 1.370 . S
C778 C782 1.524 . S
C779 C771 1.503 . S
C779 C778 1.370 . S
C779 C780 1.403 . S
C780 C779 1.403 . S
C780 C781 1.404 . S
C780 C783 1.539 . S
C781 C777 1.408 . S
C781 C780 1.404 . S
C781 H793 0.930 1_655 S
C782 C778 1.524 . S
C782 H794 0.956 . S
C782 H795 0.961 . S
C782 H796 0.961 . S
C783 C780 1.539 . S
C783 H797 0.958 . S
C783 H798 0.961 1_655 S
C783 H799 0.960 . S
H784 C768 0.931 . S
H785 C773 0.929 . S
H786 C774 0.960 . S
H787 C774 0.962 . S
H788 C774 0.960 . S
H789 C775 0.961 . S
H790 C775 0.961 . S
H791 C775 0.961 . S
H792 C776 0.931 . S
H793 C781 0.930 1_455 S
H794 C782 0.956 . S
H795 C782 0.961 . S
H796 C782 0.961 . S
H797 C783 0.958 . S
H798 C783 0.961 1_455 S
H799 C783 0.960 . S
C800 C801 1.391 . S
C800 C802 1.394 . S
C800 H816 0.931 . S
C801 C800 1.391 . S
C801 C805 1.376 . S
C802 C800 1.394 . S
C802 C803 1.369 . S
C802 C806 1.531 . S
C803 C802 1.369 . S
C803 C804 1.410 . S
C803 C811 1.503 1_465 S
C804 C803 1.410 . S
C804 C805 1.392 . S
C804 C807 1.511 . S
C805 C801 1.376 . S
C805 C804 1.392 . S
C805 H817 0.929 . S
C806 C802 1.531 . S
C806 H818 0.960 1_565 S
C806 H819 0.962 . S
C806 H820 0.960 . S
C807 C804 1.511 . S
C807 H821 0.961 1_455 S
C807 H822 0.961 1_465 S
C807 H823 0.961 1_565 S
C808 C809 1.370 . S
C808 C810 1.363 . S
C808 H824 0.931 . S
C809 C808 1.370 . S
C809 C813 1.408 . S
C810 C808 1.363 . S
C810 C811 1.370 . S
C810 C814 1.524 1_545 S
C811 C803 1.503 1_645 S
C811 C810 1.370 . S
C811 C812 1.403 1_655 S
C812 C811 1.403 1_455 S
C812 C813 1.404 1_455 S
C812 C815 1.539 . S
C813 C809 1.408 . S
C813 C812 1.404 1_655 S
C813 H825 0.930 1_655 S
C814 C810 1.524 1_565 S
C814 H826 0.956 . S
C814 H827 0.961 . S
C814 H828 0.961 . S
C815 C812 1.539 . S
C815 H829 0.958 . S
C815 H830 0.961 . S
C815 H831 0.960 . S
H816 C800 0.931 . S
H817 C805 0.929 . S
H818 C806 0.960 1_545 S
H819 C806 0.962 . S
H820 C806 0.960 . S
H821 C807 0.961 1_655 S
H822 C807 0.961 1_645 S
H823 C807 0.961 1_545 S
H824 C808 0.931 . S
H825 C813 0.930 1_455 S
H826 C814 0.956 . S
H827 C814 0.961 . S
H828 C814 0.961 . S
H829 C815 0.958 . S
H830 C815 0.961 . S
H831 C815 0.960 . S
C832 C833 1.391 . S
C832 C834 1.394 . S
C832 H848 0.931 . S
C833 C832 1.391 . S
C833 C837 1.376 . S
C834 C832 1.394 . S
C834 C835 1.369 . S
C834 C838 1.531 . S
C835 C834 1.369 . S
C835 C836 1.410 . S
C835 C843 1.503 1_545 S
C836 C835 1.410 . S
C836 C837 1.392 . S
C836 C839 1.511 1_545 S
C837 C833 1.376 . S
C837 C836 1.392 . S
C837 H849 0.929 . S
C838 C834 1.531 . S
C838 H850 0.960 1_545 S
C838 H851 0.962 . S
C838 H852 0.960 . S
C839 C836 1.511 1_565 S
C839 H853 0.961 . S
C839 H854 0.961 . S
C839 H855 0.961 . S
C840 C841 1.370 . S
C840 C842 1.363 1_565 S
C840 H856 0.931 1_565 S
C841 C840 1.370 . S
C841 C845 1.408 . S
C842 C840 1.363 1_545 S
C842 C843 1.370 1_545 S
C842 C846 1.524 . S
C843 C835 1.503 1_565 S
C843 C842 1.370 1_565 S
C843 C844 1.403 . S
C844 C843 1.403 . S
C844 C845 1.404 . S
C844 C847 1.539 . S
C845 C841 1.408 . S
C845 C844 1.404 . S
C845 H857 0.930 . S
C846 C842 1.524 . S
C846 H858 0.956 . S
C846 H859 0.961 . S
C846 H860 0.961 . S
C847 C844 1.539 . S
C847 H861 0.958 . S
C847 H862 0.961 . S
C847 H863 0.960 . S
H848 C832 0.931 . S
H849 C837 0.929 . S
H850 C838 0.960 1_565 S
H851 C838 0.962 . S
H852 C838 0.960 . S
H853 C839 0.961 . S
H854 C839 0.961 . S
H855 C839 0.961 . S
H856 C840 0.931 1_545 S
H857 C845 0.930 . S
H858 C846 0.956 . S
H859 C846 0.961 . S
H860 C846 0.961 . S
H861 C847 0.958 . S
H862 C847 0.961 . S
H863 C847 0.960 . S
C864 C865 1.391 . S
C864 C866 1.394 . S
C864 H880 0.931 . S
C865 C864 1.391 . S
C865 C869 1.376 . S
C866 C864 1.394 . S
C866 C867 1.369 . S
C866 C870 1.531 . S
C867 C866 1.369 . S
C867 C868 1.410 . S
C867 C875 1.503 . S
C868 C867 1.410 . S
C868 C869 1.392 . S
C868 C871 1.511 . S
C869 C865 1.376 . S
C869 C868 1.392 . S
C869 H881 0.929 . S
C870 C866 1.531 . S
C870 H882 0.960 . S
C870 H883 0.962 . S
C870 H884 0.960 . S
C871 C868 1.511 . S
C871 H885 0.961 . S
C871 H886 0.961 . S
C871 H887 0.961 . S
C872 C873 1.370 . S
C872 C874 1.363 . S
C872 H888 0.931 . S
C873 C872 1.370 . S
C873 C877 1.408 . S
C874 C872 1.363 . S
C874 C875 1.370 . S
C874 C878 1.524 . S
C875 C867 1.503 . S
C875 C874 1.370 . S
C875 C876 1.403 . S
C876 C875 1.403 . S
C876 C877 1.404 . S
C876 C879 1.539 . S
C877 C873 1.408 . S
C877 C876 1.404 . S
C877 H889 0.930 . S
C878 C874 1.524 . S
C878 H890 0.956 . S
C878 H891 0.961 . S
C878 H892 0.961 . S
C879 C876 1.539 . S
C879 H893 0.958 . S
C879 H894 0.961 . S
C879 H895 0.960 . S
H880 C864 0.931 . S
H881 C869 0.929 . S
H882 C870 0.960 . S
H883 C870 0.962 . S
H884 C870 0.960 . S
H885 C871 0.961 . S
H886 C871 0.961 . S
H887 C871 0.961 . S
H888 C872 0.931 . S
H889 C877 0.930 . S
H890 C878 0.956 . S
H891 C878 0.961 . S
H892 C878 0.961 . S
H893 C879 0.958 . S
H894 C879 0.961 . S
H895 C879 0.960 . S
C896 C897 1.391 . S
C896 C898 1.394 . S
C896 H912 0.931 . S
C897 C896 1.391 . S
C897 C901 1.376 . S
C898 C896 1.394 . S
C898 C899 1.369 . S
C898 C902 1.531 1_655 S
C899 C898 1.369 . S
C899 C900 1.410 . S
C899 C907 1.503 1_655 S
C900 C899 1.410 . S
C900 C901 1.392 . S
C900 C903 1.511 . S
C901 C897 1.376 . S
C901 C900 1.392 . S
C901 H913 0.929 . S
C902 C898 1.531 1_455 S
C902 H914 0.960 . S
C902 H915 0.962 . S
C902 H916 0.960 . S
C903 C900 1.511 . S
C903 H917 0.961 . S
C903 H918 0.961 . S
C903 H919 0.961 . S
C904 C905 1.370 . S
C904 C906 1.363 . S
C904 H920 0.931 . S
C905 C904 1.370 . S
C905 C909 1.408 . S
C906 C904 1.363 . S
C906 C907 1.370 . S
C906 C910 1.524 . S
C907 C899 1.503 1_455 S
C907 C906 1.370 . S
C907 C908 1.403 . S
C908 C907 1.403 . S
C908 C909 1.404 . S
C908 C911 1.539 1_455 S
C909 C905 1.408 . S
C909 C908 1.404 . S
C909 H921 0.930 . S
C910 C906 1.524 . S
C910 H922 0.956 . S
C910 H923 0.961 . S
C910 H924 0.961 . S
C911 C908 1.539 1_655 S
C911 H925 0.951 1_655 S
C911 H926 0.961 . S
C911 H927 0.960 . S
H912 C896 0.931 . S
H913 C901 0.929 . S
H914 C902 0.960 . S
H915 C902 0.962 . S
H916 C902 0.960 . S
H917 C903 0.961 . S
H918 C903 0.961 . S
H919 C903 0.961 . S
H920 C904 0.931 . S
H921 C909 0.930 . S
H922 C910 0.956 . S
H923 C910 0.961 . S
H924 C910 0.961 . S
H925 C911 0.951 1_455 S
H926 C911 0.961 . S
H927 C911 0.960 . S
C928 C929 1.391 . S
C928 C930 1.394 . S
C928 H944 0.931 . S
C929 C928 1.391 . S
C929 C933 1.376 1_556 S
C930 C928 1.394 . S
C930 C931 1.369 . S
C930 C934 1.541 . S
C931 C930 1.369 . S
C931 C932 1.410 1_556 S
C931 C939 1.503 1_656 S
C932 C931 1.410 1_554 S
C932 C933 1.392 . S
C932 C935 1.511 . S
C933 C929 1.376 1_554 S
C933 C932 1.392 . S
C933 H945 0.929 . S
C934 C930 1.541 . S
C934 H946 0.963 . S
C934 H947 0.936 1_655 S
C934 H948 0.973 . S
C935 C932 1.511 . S
C935 H949 0.961 . S
C935 H950 0.961 . S
C935 H951 0.961 . S
C936 C937 1.370 . S
C936 C938 1.363 . S
C936 H952 0.931 . S
C937 C936 1.370 . S
C937 C941 1.408 . S
C938 C936 1.363 . S
C938 C939 1.370 . S
C938 C942 1.524 . S
C939 C931 1.503 1_454 S
C939 C938 1.370 . S
C939 C940 1.403 1_455 S
C940 C939 1.403 1_655 S
C940 C941 1.404 1_655 S
C940 C943 1.539 1_554 S
C941 C937 1.408 . S
C941 C940 1.404 1_455 S
C941 H953 0.930 1_455 S
C942 C938 1.524 . S
C942 H954 0.956 1_554 S
C942 H955 0.961 . S
C942 H956 0.961 . S
C943 C940 1.539 1_556 S
C943 H957 0.958 . S
C943 H958 0.961 1_556 S
C943 H959 0.960 1_556 S
H944 C928 0.931 . S
H945 C933 0.929 . S
H946 C934 0.963 . S
H947 C934 0.936 1_455 S
H948 C934 0.973 . S
H949 C935 0.961 . S
H950 C935 0.961 . S
H951 C935 0.961 . S
H952 C936 0.931 . S
H953 C941 0.930 1_655 S
H954 C942 0.956 1_556 S
H955 C942 0.961 . S
H956 C942 0.961 . S
H957 C943 0.958 . S
H958 C943 0.961 1_554 S
H959 C943 0.960 1_554 S
C960 C961 1.391 1_554 S
C960 C962 1.394 . S
C960 H976 0.931 . S
C961 C960 1.391 1_556 S
C961 C965 1.376 . S
C962 C960 1.394 . S
C962 C963 1.369 . S
C962 C966 1.531 1_455 S
C963 C962 1.369 . S
C963 C964 1.410 1_564 S
C963 C971 1.503 1_465 S
C964 C963 1.410 1_546 S
C964 C965 1.392 1_545 S
C964 C967 1.511 . S
C965 C961 1.376 . S
C965 C964 1.392 1_565 S
C965 H977 0.929 1_565 S
C966 C962 1.531 1_655 S
C966 H978 0.960 . S
C966 H979 0.962 . S
C966 H980 0.960 1_655 S
C967 C964 1.511 . S
C967 H981 0.961 . S
C967 H982 0.961 . S
C967 H983 0.961 1_556 S
C968 C969 1.370 1_556 S
C968 C970 1.363 . S
C968 H984 0.931 . S
C969 C968 1.370 1_554 S
C969 C973 1.408 . S
C970 C968 1.363 . S
C970 C971 1.370 1_556 S
C970 C974 1.524 1_545 S
C971 C963 1.503 1_645 S
C971 C970 1.370 1_554 S
C971 C972 1.403 . S
C972 C971 1.403 . S
C972 C973 1.404 . S
C972 C975 1.525 1_655 S
C973 C969 1.408 . S
C973 C972 1.404 . S
C973 H985 0.930 . S
C974 C970 1.524 1_565 S
C974 H986 0.956 . S
C974 H987 0.961 1_565 S
C974 H988 0.961 . S
C975 C972 1.525 1_455 S
C975 H989 0.956 1_455 S
C975 H990 0.958 1_455 S
C975 H991 0.980 . S
H976 C960 0.931 . S
H977 C965 0.929 1_545 S
H978 C966 0.960 . S
H979 C966 0.962 . S
H980 C966 0.960 1_455 S
H981 C967 0.961 . S
H982 C967 0.961 . S
H983 C967 0.961 1_554 S
H984 C968 0.931 . S
H985 C973 0.930 . S
H986 C974 0.956 . S
H987 C974 0.961 1_545 S
H988 C974 0.961 . S
H989 C975 0.956 1_655 S
H990 C975 0.958 1_655 S
H991 C975 0.980 . S
C992 C993 1.391 1_554 S
C992 C994 1.394 . S
C992 H1008 0.931 . S
C993 C992 1.391 1_556 S
C993 C997 1.376 . S
C994 C992 1.394 . S
C994 C995 1.369 1_554 S
C994 C998 1.531 . S
C995 C994 1.369 1_556 S
C995 C996 1.410 . S
C995 C1003 1.503 1_545 S
C996 C995 1.410 . S
C996 C997 1.392 . S
C996 C999 1.511 1_545 S
C997 C993 1.376 . S
C997 C996 1.392 . S
C997 H1009 0.929 . S
C998 C994 1.531 . S
C998 H1010 0.960 . S
C998 H1011 0.962 . S
C998 H1012 0.960 . S
C999 C996 1.511 1_565 S
C999 H1013 0.961 . S
C999 H1014 0.961 . S
C999 H1015 0.961 . S
C1000 C1001 1.370 . S
C1000 C1002 1.363 . S
C1000 H1016 0.931 . S
C1001 C1000 1.370 . S
C1001 C1005 1.408 1_554 S
C1002 C1000 1.363 . S
C1002 C1003 1.370 1_554 S
C1002 C1006 1.524 . S
C1003 C995 1.503 1_565 S
C1003 C1002 1.370 1_556 S
C1003 C1004 1.403 . S
C1004 C1003 1.403 . S
C1004 C1005 1.404 . S
C1004 C1007 1.539 . S
C1005 C1001 1.408 1_556 S
C1005 C1004 1.404 . S
C1005 H1017 0.930 . S
C1006 C1002 1.524 . S
C1006 H1018 0.956 . S
C1006 H1019 0.961 . S
C1006 H1020 0.961 . S
C1007 C1004 1.539 . S
C1007 H1021 0.958 1_565 S
C1007 H1022 0.961 . S
C1007 H1023 0.960 1_565 S
H1008 C992 0.931 . S
H1009 C997 0.929 . S
H1010 C998 0.960 . S
H1011 C998 0.962 . S
H1012 C998 0.960 . S
H1013 C999 0.961 . S
H1014 C999 0.961 . S
H1015 C999 0.961 . S
H1016 C1000 0.931 . S
H1017 C1005 0.930 . S
H1018 C1006 0.956 . S
H1019 C1006 0.961 . S
H1020 C1006 0.961 . S
H1021 C1007 0.958 1_545 S
H1022 C1007 0.961 . S
H1023 C1007 0.960 1_545 S
C1024 C1025 1.391 . S
C1024 C1026 1.394 . S
C1024 H1040 0.923 1_556 S
C1025 C1024 1.391 . S
C1025 C1029 1.376 . S
C1026 C1024 1.394 . S
C1026 C1027 1.369 . S
C1026 C1030 1.531 1_556 S
C1027 C1026 1.369 . S
C1027 C1028 1.410 . S
C1027 C1035 1.503 . S
C1028 C1027 1.410 . S
C1028 C1029 1.392 . S
C1028 C1031 1.511 . S
C1029 C1025 1.376 . S
C1029 C1028 1.392 . S
C1029 H1041 0.929 . S
C1030 C1026 1.531 1_554 S
C1030 H1042 0.960 . S
C1030 H1043 0.962 . S
C1030 H1044 0.960 . S
C1031 C1028 1.511 . S
C1031 H1045 0.961 . S
C1031 H1046 0.961 . S
C1031 H1047 0.961 . S
C1032 C1033 1.370 . S
C1032 C1034 1.363 . S
C1032 H1048 0.931 . S
C1033 C1032 1.370 . S
C1033 C1037 1.408 1_554 S
C1034 C1032 1.363 . S
C1034 C1035 1.370 1_554 S
C1034 C1038 1.524 . S
C1035 C1027 1.503 . S
C1035 C1034 1.370 1_556 S
C1035 C1036 1.403 . S
C1036 C1035 1.403 . S
C1036 C1037 1.404 . S
C1036 C1039 1.539 . S
C1037 C1033 1.408 1_556 S
C1037 C1036 1.404 . S
C1037 H1049 0.930 . S
C1038 C1034 1.524 . S
C1038 H1050 0.956 . S
C1038 H1051 0.961 . S
C1038 H1052 0.961 . S
C1039 C1036 1.539 . S
C1039 H1053 0.958 . S
C1039 H1054 0.961 . S
C1039 H1055 0.960 . S
H1040 C1024 0.923 1_554 S
H1041 C1029 0.929 . S
H1042 C1030 0.960 . S
H1043 C1030 0.962 . S
H1044 C1030 0.960 . S
H1045 C1031 0.961 . S
H1046 C1031 0.961 . S
H1047 C1031 0.961 . S
H1048 C1032 0.931 . S
H1049 C1037 0.930 . S
H1050 C1038 0.956 . S
H1051 C1038 0.961 . S
H1052 C1038 0.961 . S
H1053 C1039 0.958 . S
H1054 C1039 0.961 . S
H1055 C1039 0.960 . S
C1056 C1057 1.391 . S
C1056 C1058 1.394 . S
C1056 H1072 0.931 . S
C1057 C1056 1.391 . S
C1057 C1061 1.376 . S
C1058 C1056 1.394 . S
C1058 C1059 1.369 . S
C1058 C1062 1.531 . S
C1059 C1058 1.369 . S
C1059 C1060 1.410 . S
C1059 C1067 1.503 . S
C1060 C1059 1.410 . S
C1060 C1061 1.392 . S
C1060 C1063 1.511 1_655 S
C1061 C1057 1.376 . S
C1061 C1060 1.392 . S
C1061 H1073 0.929 . S
C1062 C1058 1.531 . S
C1062 H1074 0.960 . S
C1062 H1075 0.962 . S
C1062 H1076 0.960 . S
C1063 C1060 1.511 1_455 S
C1063 H1077 0.961 . S
C1063 H1078 0.961 1_455 S
C1063 H1079 0.961 . S
C1064 C1065 1.370 . S
C1064 C1066 1.363 . S
C1064 H1080 0.931 . S
C1065 C1064 1.370 . S
C1065 C1069 1.408 . S
C1066 C1064 1.363 . S
C1066 C1067 1.370 . S
C1066 C1070 1.524 . S
C1067 C1059 1.503 . S
C1067 C1066 1.370 . S
C1067 C1068 1.403 . S
C1068 C1067 1.403 . S
C1068 C1069 1.404 . S
C1068 C1071 1.539 . S
C1069 C1065 1.408 . S
C1069 C1068 1.404 . S
C1069 H1081 0.930 . S
C1070 C1066 1.524 . S
C1070 H1082 0.956 . S
C1070 H1083 0.961 . S
C1070 H1084 0.961 . S
C1071 C1068 1.539 . S
C1071 H1085 0.958 . S
C1071 H1086 0.961 1_655 S
C1071 H1087 0.960 . S
H1072 C1056 0.931 . S
H1073 C1061 0.929 . S
H1074 C1062 0.960 . S
H1075 C1062 0.962 . S
H1076 C1062 0.960 . S
H1077 C1063 0.961 . S
H1078 C1063 0.961 1_655 S
H1079 C1063 0.961 . S
H1080 C1064 0.931 . S
H1081 C1069 0.930 . S
H1082 C1070 0.956 . S
H1083 C1070 0.961 . S
H1084 C1070 0.961 . S
H1085 C1071 0.958 . S
H1086 C1071 0.961 1_455 S
H1087 C1071 0.960 . S
C1088 C1089 1.391 . S
C1088 C1090 1.394 . S
C1088 H1104 0.931 . S
C1089 C1088 1.391 . S
C1089 C1093 1.376 . S
C1090 C1088 1.394 . S
C1090 C1091 1.369 . S
C1090 C1094 1.531 . S
C1091 C1090 1.369 . S
C1091 C1092 1.410 . S
C1091 C1099 1.503 . S
C1092 C1091 1.410 . S
C1092 C1093 1.392 . S
C1092 C1095 1.511 . S
C1093 C1089 1.376 . S
C1093 C1092 1.392 . S
C1093 H1105 0.929 . S
C1094 C1090 1.531 . S
C1094 H1106 0.960 . S
C1094 H1107 0.962 . S
C1094 H1108 0.960 . S
C1095 C1092 1.511 . S
C1095 H1109 0.961 . S
C1095 H1110 0.961 . S
C1095 H1111 0.961 . S
C1096 C1097 1.370 . S
C1096 C1098 1.363 . S
C1096 H1112 0.931 . S
C1097 C1096 1.370 . S
C1097 C1101 1.408 . S
C1098 C1096 1.363 . S
C1098 C1099 1.370 . S
C1098 C1102 1.524 . S
C1099 C1091 1.503 . S
C1099 C1098 1.370 . S
C1099 C1100 1.403 . S
C1100 C1099 1.403 . S
C1100 C1101 1.404 . S
C1100 C1103 1.539 1_565 S
C1101 C1097 1.408 . S
C1101 C1100 1.404 . S
C1101 H1113 0.932 1_565 S
C1102 C1098 1.524 . S
C1102 H1114 0.956 . S
C1102 H1115 0.961 . S
C1102 H1116 0.961 . S
C1103 C1100 1.539 1_545 S
C1103 H1117 0.958 . S
C1103 H1118 0.961 . S
C1103 H1119 0.960 . S
H1104 C1088 0.931 . S
H1105 C1093 0.929 . S
H1106 C1094 0.960 . S
H1107 C1094 0.962 . S
H1108 C1094 0.960 . S
H1109 C1095 0.961 . S
H1110 C1095 0.961 . S
H1111 C1095 0.961 . S
H1112 C1096 0.931 . S
H1113 C1101 0.932 1_545 S
H1114 C1102 0.956 . S
H1115 C1102 0.961 . S
H1116 C1102 0.961 . S
H1117 C1103 0.958 . S
H1118 C1103 0.961 . S
H1119 C1103 0.960 . S
C1120 C1121 1.391 . S
C1120 C1122 1.394 . S
C1120 H1136 0.931 . S
C1121 C1120 1.391 . S
C1121 C1125 1.376 . S
C1122 C1120 1.394 . S
C1122 C1123 1.369 . S
C1122 C1126 1.531 . S
C1123 C1122 1.369 . S
C1123 C1124 1.410 . S
C1123 C1131 1.503 . S
C1124 C1123 1.410 . S
C1124 C1125 1.392 . S
C1124 C1127 1.511 . S
C1125 C1121 1.376 . S
C1125 C1124 1.392 . S
C1125 H1137 0.929 . S
C1126 C1122 1.531 . S
C1126 H1138 0.960 . S
C1126 H1139 0.962 . S
C1126 H1140 0.960 . S
C1127 C1124 1.511 . S
C1127 H1141 0.961 . S
C1127 H1142 0.961 . S
C1127 H1143 0.961 . S
C1128 C1129 1.370 . S
C1128 C1130 1.363 . S
C1128 H1144 0.931 . S
C1129 C1128 1.370 . S
C1129 C1133 1.408 . S
C1130 C1128 1.363 . S
C1130 C1131 1.370 . S
C1130 C1134 1.524 . S
C1131 C1123 1.503 . S
C1131 C1130 1.370 . S
C1131 C1132 1.403 . S
C1132 C1131 1.403 . S
C1132 C1133 1.404 . S
C1132 C1135 1.539 . S
C1133 C1129 1.408 . S
C1133 C1132 1.404 . S
C1133 H1145 0.930 . S
C1134 C1130 1.524 . S
C1134 H1146 0.956 . S
C1134 H1147 0.961 . S
C1134 H1148 0.961 . S
C1135 C1132 1.539 . S
C1135 H1149 0.958 . S
C1135 H1150 0.961 . S
C1135 H1151 0.960 . S
H1136 C1120 0.931 . S
H1137 C1125 0.929 . S
H1138 C1126 0.960 . S
H1139 C1126 0.962 . S
H1140 C1126 0.960 . S
H1141 C1127 0.961 . S
H1142 C1127 0.961 . S
H1143 C1127 0.961 . S
H1144 C1128 0.931 . S
H1145 C1133 0.930 . S
H1146 C1134 0.956 . S
H1147 C1134 0.961 . S
H1148 C1134 0.961 . S
H1149 C1135 0.958 . S
H1150 C1135 0.961 . S
H1151 C1135 0.960 . S
C1152 C1153 1.391 . S
C1152 C1154 1.394 . S
C1152 H1168 0.931 . S
C1153 C1152 1.391 . S
C1153 C1157 1.376 . S
C1154 C1152 1.394 . S
C1154 C1155 1.369 . S
C1154 C1158 1.531 . S
C1155 C1154 1.369 . S
C1155 C1156 1.410 . S
C1155 C1163 1.503 . S
C1156 C1155 1.410 . S
C1156 C1157 1.392 . S
C1156 C1159 1.511 . S
C1157 C1153 1.376 . S
C1157 C1156 1.392 . S
C1157 H1169 0.929 . S
C1158 C1154 1.531 . S
C1158 H1170 0.960 . S
C1158 H1171 0.962 . S
C1158 H1172 0.960 . S
C1159 C1156 1.511 . S
C1159 H1173 0.961 . S
C1159 H1174 0.961 . S
C1159 H1175 0.961 . S
C1160 C1161 1.370 . S
C1160 C1162 1.363 . S
C1160 H1176 0.931 . S
C1161 C1160 1.370 . S
C1161 C1165 1.408 . S
C1162 C1160 1.363 . S
C1162 C1163 1.370 . S
C1162 C1166 1.524 . S
C1163 C1155 1.503 . S
C1163 C1162 1.370 . S
C1163 C1164 1.403 . S
C1164 C1163 1.403 . S
C1164 C1165 1.404 . S
C1164 C1167 1.539 . S
C1165 C1161 1.408 . S
C1165 C1164 1.404 . S
C1165 H1177 0.930 . S
C1166 C1162 1.524 . S
C1166 H1178 0.956 . S
C1166 H1179 0.961 . S
C1166 H1180 0.961 . S
C1167 C1164 1.539 . S
C1167 H1181 0.958 . S
C1167 H1182 0.961 . S
C1167 H1183 0.960 . S
H1168 C1152 0.931 . S
H1169 C1157 0.929 . S
H1170 C1158 0.960 . S
H1171 C1158 0.962 . S
H1172 C1158 0.960 . S
H1173 C1159 0.961 . S
H1174 C1159 0.961 . S
H1175 C1159 0.961 . S
H1176 C1160 0.931 . S
H1177 C1165 0.930 . S
H1178 C1166 0.956 . S
H1179 C1166 0.961 . S
H1180 C1166 0.961 . S
H1181 C1167 0.958 . S
H1182 C1167 0.961 . S
H1183 C1167 0.960 . S
C1184 C1185 1.391 . S
C1184 C1186 1.394 . S
C1184 H1200 0.931 . S
C1185 C1184 1.391 . S
C1185 C1189 1.376 . S
C1186 C1184 1.394 . S
C1186 C1187 1.369 . S
C1186 C1190 1.531 . S
C1187 C1186 1.369 . S
C1187 C1188 1.410 . S
C1187 C1195 1.503 . S
C1188 C1187 1.410 . S
C1188 C1189 1.392 . S
C1188 C1191 1.511 1_455 S
C1189 C1185 1.376 . S
C1189 C1188 1.392 . S
C1189 H1201 0.929 . S
C1190 C1186 1.531 . S
C1190 H1202 0.960 . S
C1190 H1203 0.962 . S
C1190 H1204 0.960 . S
C1191 C1188 1.511 1_655 S
C1191 H1205 0.961 . S
C1191 H1206 0.961 . S
C1191 H1207 0.961 . S
C1192 C1193 1.370 . S
C1192 C1194 1.363 . S
C1192 H1208 0.931 . S
C1193 C1192 1.370 . S
C1193 C1197 1.408 . S
C1194 C1192 1.363 . S
C1194 C1195 1.370 . S
C1194 C1198 1.524 . S
C1195 C1187 1.503 . S
C1195 C1194 1.370 . S
C1195 C1196 1.403 . S
C1196 C1195 1.403 . S
C1196 C1197 1.404 . S
C1196 C1199 1.539 . S
C1197 C1193 1.408 . S
C1197 C1196 1.404 . S
C1197 H1209 0.930 . S
C1198 C1194 1.524 . S
C1198 H1210 0.956 . S
C1198 H1211 0.961 . S
C1198 H1212 0.961 . S
C1199 C1196 1.539 . S
C1199 H1213 0.958 . S
C1199 H1214 0.961 . S
C1199 H1215 0.960 . S
H1200 C1184 0.931 . S
H1201 C1189 0.929 . S
H1202 C1190 0.960 . S
H1203 C1190 0.962 . S
H1204 C1190 0.960 . S
H1205 C1191 0.961 . S
H1206 C1191 0.961 . S
H1207 C1191 0.961 . S
H1208 C1192 0.931 . S
H1209 C1197 0.930 . S
H1210 C1198 0.956 . S
H1211 C1198 0.961 . S
H1212 C1198 0.961 . S
H1213 C1199 0.958 . S
H1214 C1199 0.961 . S
H1215 C1199 0.960 . S
C1216 C1217 1.391 . S
C1216 C1218 1.394 . S
C1216 H1232 0.931 . S
C1217 C1216 1.391 . S
C1217 C1221 1.376 . S
C1218 C1216 1.394 . S
C1218 C1219 1.369 . S
C1218 C1222 1.531 . S
C1219 C1218 1.369 . S
C1219 C1220 1.410 . S
C1219 C1227 1.503 . S
C1220 C1219 1.410 . S
C1220 C1221 1.392 . S
C1220 C1223 1.511 . S
C1221 C1217 1.376 . S
C1221 C1220 1.392 . S
C1221 H1233 0.929 . S
C1222 C1218 1.531 . S
C1222 H1234 0.960 . S
C1222 H1235 0.962 . S
C1222 H1236 0.960 . S
C1223 C1220 1.511 . S
C1223 H1237 0.961 . S
C1223 H1238 0.961 . S
C1223 H1239 0.961 . S
C1224 C1225 1.370 . S
C1224 C1226 1.363 . S
C1224 H1240 0.931 . S
C1225 C1224 1.370 . S
C1225 C1229 1.408 . S
C1226 C1224 1.363 . S
C1226 C1227 1.370 . S
C1226 C1230 1.524 . S
C1227 C1219 1.503 . S
C1227 C1226 1.370 . S
C1227 C1228 1.403 . S
C1228 C1227 1.403 . S
C1228 C1229 1.404 . S
C1228 C1231 1.539 . S
C1229 C1225 1.408 . S
C1229 C1228 1.404 . S
C1229 H1241 0.930 . S
C1230 C1226 1.524 . S
C1230 H1242 0.956 . S
C1230 H1243 0.961 1_545 S
C1230 H1244 0.961 1_545 S
C1231 C1228 1.539 . S
C1231 H1245 0.958 . S
C1231 H1246 0.961 . S
C1231 H1247 0.960 . S
H1232 C1216 0.931 . S
H1233 C1221 0.929 . S
H1234 C1222 0.960 . S
H1235 C1222 0.962 . S
H1236 C1222 0.960 . S
H1237 C1223 0.961 . S
H1238 C1223 0.961 . S
H1239 C1223 0.961 . S
H1240 C1224 0.931 . S
H1241 C1229 0.930 . S
H1242 C1230 0.956 . S
H1243 C1230 0.961 1_565 S
H1244 C1230 0.961 1_565 S
H1245 C1231 0.958 . S
H1246 C1231 0.961 . S
H1247 C1231 0.960 . S
C1248 C1249 1.391 . S
C1248 C1250 1.394 . S
C1248 H1264 0.931 . S
C1249 C1248 1.391 . S
C1249 C1253 1.376 . S
C1250 C1248 1.394 . S
C1250 C1251 1.369 . S
C1250 C1254 1.531 . S
C1251 C1250 1.369 . S
C1251 C1252 1.410 . S
C1251 C1259 1.503 . S
C1252 C1251 1.410 . S
C1252 C1253 1.392 . S
C1252 C1255 1.511 . S
C1253 C1249 1.376 . S
C1253 C1252 1.392 . S
C1253 H1265 0.929 . S
C1254 C1250 1.531 . S
C1254 H1266 0.960 . S
C1254 H1267 0.962 . S
C1254 H1268 0.960 . S
C1255 C1252 1.511 . S
C1255 H1269 0.961 . S
C1255 H1270 0.961 . S
C1255 H1271 0.961 . S
C1256 C1257 1.370 . S
C1256 C1258 1.363 . S
C1256 H1272 0.931 . S
C1257 C1256 1.370 . S
C1257 C1261 1.408 . S
C1258 C1256 1.363 . S
C1258 C1259 1.370 . S
C1258 C1262 1.524 . S
C1259 C1251 1.503 . S
C1259 C1258 1.370 . S
C1259 C1260 1.403 . S
C1260 C1259 1.403 . S
C1260 C1261 1.404 . S
C1260 C1263 1.539 . S
C1261 C1257 1.408 . S
C1261 C1260 1.404 . S
C1261 H1273 0.930 . S
C1262 C1258 1.524 . S
C1262 H1274 0.956 . S
C1262 H1275 0.961 . S
C1262 H1276 0.961 . S
C1263 C1260 1.539 . S
C1263 H1277 0.958 . S
C1263 H1278 0.961 . S
C1263 H1279 0.960 . S
H1264 C1248 0.931 . S
H1265 C1253 0.929 . S
H1266 C1254 0.960 . S
H1267 C1254 0.962 . S
H1268 C1254 0.960 . S
H1269 C1255 0.961 . S
H1270 C1255 0.961 . S
H1271 C1255 0.961 . S
H1272 C1256 0.931 . S
H1273 C1261 0.930 . S
H1274 C1262 0.956 . S
H1275 C1262 0.961 . S
H1276 C1262 0.961 . S
H1277 C1263 0.958 . S
H1278 C1263 0.961 . S
H1279 C1263 0.960 . S
C1280 C1281 1.391 . S
C1280 C1282 1.394 . S
C1280 H1296 0.931 . S
C1281 C1280 1.391 . S
C1281 C1285 1.376 . S
C1282 C1280 1.394 . S
C1282 C1283 1.369 . S
C1282 C1286 1.531 . S
C1283 C1282 1.369 . S
C1283 C1284 1.410 . S
C1283 C1291 1.503 . S
C1284 C1283 1.410 . S
C1284 C1285 1.392 . S
C1284 C1287 1.511 . S
C1285 C1281 1.376 . S
C1285 C1284 1.392 . S
C1285 H1297 0.929 . S
C1286 C1282 1.531 . S
C1286 H1298 0.960 . S
C1286 H1299 0.962 . S
C1286 H1300 0.960 . S
C1287 C1284 1.511 . S
C1287 H1301 0.961 . S
C1287 H1302 0.961 . S
C1287 H1303 0.961 . S
C1288 C1289 1.370 . S
C1288 C1290 1.363 . S
C1288 H1304 0.931 . S
C1289 C1288 1.370 . S
C1289 C1293 1.408 . S
C1290 C1288 1.363 . S
C1290 C1291 1.370 . S
C1290 C1294 1.524 . S
C1291 C1283 1.503 . S
C1291 C1290 1.370 . S
C1291 C1292 1.403 . S
C1292 C1291 1.403 . S
C1292 C1293 1.404 . S
C1292 C1295 1.539 . S
C1293 C1289 1.408 . S
C1293 C1292 1.404 . S
C1293 H1305 0.930 . S
C1294 C1290 1.524 . S
C1294 H1306 0.956 . S
C1294 H1307 0.961 . S
C1294 H1308 0.961 . S
C1295 C1292 1.539 . S
C1295 H1309 0.958 . S
C1295 H1310 0.961 . S
C1295 H1311 0.960 . S
H1296 C1280 0.931 . S
H1297 C1285 0.929 . S
H1298 C1286 0.960 . S
H1299 C1286 0.962 . S
H1300 C1286 0.960 . S
H1301 C1287 0.961 . S
H1302 C1287 0.961 . S
H1303 C1287 0.961 . S
H1304 C1288 0.931 . S
H1305 C1293 0.930 . S
H1306 C1294 0.956 . S
H1307 C1294 0.961 . S
H1308 C1294 0.961 . S
H1309 C1295 0.958 . S
H1310 C1295 0.961 . S
H1311 C1295 0.960 . S
C1312 C1313 1.391 . S
C1312 C1314 1.394 . S
C1312 H1328 0.931 . S
C1313 C1312 1.391 . S
C1313 C1317 1.376 . S
C1314 C1312 1.394 . S
C1314 C1315 1.369 . S
C1314 C1318 1.531 . S
C1315 C1314 1.369 . S
C1315 C1316 1.410 . S
C1315 C1323 1.503 . S
C1316 C1315 1.410 . S
C1316 C1317 1.392 . S
C1316 C1319 1.511 . S
C1317 C1313 1.376 . S
C1317 C1316 1.392 . S
C1317 H1329 0.929 1_545 S
C1318 C1314 1.531 . S
C1318 H1330 0.960 . S
C1318 H1331 0.962 . S
C1318 H1332 0.960 . S
C1319 C1316 1.511 . S
C1319 H1333 0.961 1_545 S
C1319 H1334 0.961 . S
C1319 H1335 0.961 . S
C1320 C1321 1.370 . S
C1320 C1322 1.363 . S
C1320 H1336 0.931 . S
C1321 C1320 1.370 . S
C1321 C1325 1.408 . S
C1322 C1320 1.363 . S
C1322 C1323 1.370 . S
C1322 C1326 1.524 . S
C1323 C1315 1.503 . S
C1323 C1322 1.370 . S
C1323 C1324 1.403 . S
C1324 C1323 1.403 . S
C1324 C1325 1.404 . S
C1324 C1327 1.539 . S
C1325 C1321 1.408 . S
C1325 C1324 1.404 . S
C1325 H1337 0.930 . S
C1326 C1322 1.524 . S
C1326 H1338 0.956 . S
C1326 H1339 0.961 . S
C1326 H1340 0.961 . S
C1327 C1324 1.539 . S
C1327 H1341 0.958 . S
C1327 H1342 0.961 . S
C1327 H1343 0.960 . S
H1328 C1312 0.931 . S
H1329 C1317 0.929 1_565 S
H1330 C1318 0.960 . S
H1331 C1318 0.962 . S
H1332 C1318 0.960 . S
H1333 C1319 0.961 1_565 S
H1334 C1319 0.961 . S
H1335 C1319 0.961 . S
H1336 C1320 0.931 . S
H1337 C1325 0.930 . S
H1338 C1326 0.956 . S
H1339 C1326 0.961 . S
H1340 C1326 0.961 . S
H1341 C1327 0.958 . S
H1342 C1327 0.961 . S
H1343 C1327 0.960 . S
C1344 C1345 1.391 . S
C1344 C1346 1.394 . S
C1344 H1360 0.931 . S
C1345 C1344 1.391 . S
C1345 C1349 1.376 . S
C1346 C1344 1.394 . S
C1346 C1347 1.369 . S
C1346 C1350 1.531 . S
C1347 C1346 1.369 . S
C1347 C1348 1.410 . S
C1347 C1355 1.503 . S
C1348 C1347 1.410 . S
C1348 C1349 1.392 . S
C1348 C1351 1.511 . S
C1349 C1345 1.376 . S
C1349 C1348 1.392 . S
C1349 H1361 0.929 . S
C1350 C1346 1.531 . S
C1350 H1362 0.960 . S
C1350 H1363 0.962 . S
C1350 H1364 0.960 . S
C1351 C1348 1.511 . S
C1351 H1365 0.961 . S
C1351 H1366 0.961 . S
C1351 H1367 0.961 . S
C1352 C1353 1.370 . S
C1352 C1354 1.363 . S
C1352 H1368 0.931 . S
C1353 C1352 1.370 . S
C1353 C1357 1.408 . S
C1354 C1352 1.363 . S
C1354 C1355 1.370 . S
C1354 C1358 1.524 . S
C1355 C1347 1.503 . S
C1355 C1354 1.370 . S
C1355 C1356 1.403 . S
C1356 C1355 1.403 . S
C1356 C1357 1.404 . S
C1356 C1359 1.539 . S
C1357 C1353 1.408 . S
C1357 C1356 1.404 . S
C1357 H1369 0.930 . S
C1358 C1354 1.524 . S
C1358 H1370 0.956 . S
C1358 H1371 0.961 . S
C1358 H1372 0.961 . S
C1359 C1356 1.539 . S
C1359 H1373 0.958 . S
C1359 H1374 0.961 . S
C1359 H1375 0.960 . S
H1360 C1344 0.931 . S
H1361 C1349 0.929 . S
H1362 C1350 0.960 . S
H1363 C1350 0.962 . S
H1364 C1350 0.960 . S
H1365 C1351 0.961 . S
H1366 C1351 0.961 . S
H1367 C1351 0.961 . S
H1368 C1352 0.931 . S
H1369 C1357 0.930 . S
H1370 C1358 0.956 . S
H1371 C1358 0.961 . S
H1372 C1358 0.961 . S
H1373 C1359 0.958 . S
H1374 C1359 0.961 . S
H1375 C1359 0.960 . S
C1376 C1377 1.391 . S
C1376 C1378 1.394 . S
C1376 H1392 0.931 . S
C1377 C1376 1.391 . S
C1377 C1381 1.376 . S
C1378 C1376 1.394 . S
C1378 C1379 1.369 . S
C1378 C1382 1.531 . S
C1379 C1378 1.369 . S
C1379 C1380 1.410 . S
C1379 C1387 1.503 . S
C1380 C1379 1.410 . S
C1380 C1381 1.392 . S
C1380 C1383 1.511 . S
C1381 C1377 1.376 . S
C1381 C1380 1.392 . S
C1381 H1393 0.929 . S
C1382 C1378 1.531 . S
C1382 H1394 0.960 . S
C1382 H1395 0.962 . S
C1382 H1396 0.960 . S
C1383 C1380 1.511 . S
C1383 H1397 0.961 . S
C1383 H1398 0.961 . S
C1383 H1399 0.961 . S
C1384 C1385 1.370 . S
C1384 C1386 1.363 . S
C1384 H1400 0.931 . S
C1385 C1384 1.370 . S
C1385 C1389 1.408 . S
C1386 C1384 1.363 . S
C1386 C1387 1.370 . S
C1386 C1390 1.524 . S
C1387 C1379 1.503 . S
C1387 C1386 1.370 . S
C1387 C1388 1.403 . S
C1388 C1387 1.403 . S
C1388 C1389 1.404 . S
C1388 C1391 1.539 . S
C1389 C1385 1.408 . S
C1389 C1388 1.404 . S
C1389 H1401 0.930 . S
C1390 C1386 1.524 . S
C1390 H1402 0.956 . S
C1390 H1403 0.961 . S
C1390 H1404 0.961 . S
C1391 C1388 1.539 . S
C1391 H1405 0.958 . S
C1391 H1406 0.961 . S
C1391 H1407 0.960 . S
H1392 C1376 0.931 . S
H1393 C1381 0.929 . S
H1394 C1382 0.960 . S
H1395 C1382 0.962 . S
H1396 C1382 0.960 . S
H1397 C1383 0.961 . S
H1398 C1383 0.961 . S
H1399 C1383 0.961 . S
H1400 C1384 0.931 . S
H1401 C1389 0.930 . S
H1402 C1390 0.956 . S
H1403 C1390 0.961 . S
H1404 C1390 0.961 . S
H1405 C1391 0.958 . S
H1406 C1391 0.961 . S
H1407 C1391 0.960 . S
C1408 C1409 1.391 . S
C1408 C1410 1.394 . S
C1408 H1424 0.931 . S
C1409 C1408 1.391 . S
C1409 C1413 1.376 . S
C1410 C1408 1.394 . S
C1410 C1411 1.369 . S
C1410 C1414 1.531 . S
C1411 C1410 1.369 . S
C1411 C1412 1.410 . S
C1411 C1419 1.503 . S
C1412 C1411 1.410 . S
C1412 C1413 1.392 . S
C1412 C1415 1.511 . S
C1413 C1409 1.376 . S
C1413 C1412 1.392 . S
C1413 H1425 0.929 . S
C1414 C1410 1.531 . S
C1414 H1426 0.960 . S
C1414 H1427 0.962 . S
C1414 H1428 0.960 . S
C1415 C1412 1.511 . S
C1415 H1429 0.961 . S
C1415 H1430 0.961 . S
C1415 H1431 0.961 . S
C1416 C1417 1.370 . S
C1416 C1418 1.363 . S
C1416 H1432 0.931 1_455 S
C1417 C1416 1.370 . S
C1417 C1421 1.408 . S
C1418 C1416 1.363 . S
C1418 C1419 1.370 . S
C1418 C1422 1.524 . S
C1419 C1411 1.503 . S
C1419 C1418 1.370 . S
C1419 C1420 1.403 . S
C1420 C1419 1.403 . S
C1420 C1421 1.404 . S
C1420 C1423 1.539 . S
C1421 C1417 1.408 . S
C1421 C1420 1.404 . S
C1421 H1433 0.930 . S
C1422 C1418 1.524 . S
C1422 H1434 0.956 . S
C1422 H1435 0.961 . S
C1422 H1436 0.961 1_455 S
C1423 C1420 1.539 . S
C1423 H1437 0.958 . S
C1423 H1438 0.961 . S
C1423 H1439 0.960 . S
H1424 C1408 0.931 . S
H1425 C1413 0.929 . S
H1426 C1414 0.960 . S
H1427 C1414 0.962 . S
H1428 C1414 0.960 . S
H1429 C1415 0.961 . S
H1430 C1415 0.961 . S
H1431 C1415 0.961 . S
H1432 C1416 0.931 1_655 S
H1433 C1421 0.930 . S
H1434 C1422 0.956 . S
H1435 C1422 0.961 . S
H1436 C1422 0.961 1_655 S
H1437 C1423 0.958 . S
H1438 C1423 0.961 . S
H1439 C1423 0.960 . S
C1440 C1441 1.391 . S
C1440 C1442 1.394 . S
C1440 H1456 0.931 1_556 S
C1441 C1440 1.391 . S
C1441 C1445 1.376 . S
C1442 C1440 1.394 . S
C1442 C1443 1.369 . S
C1442 C1446 1.531 . S
C1443 C1442 1.369 . S
C1443 C1444 1.410 . S
C1443 C1451 1.503 . S
C1444 C1443 1.410 . S
C1444 C1445 1.392 . S
C1444 C1447 1.511 . S
C1445 C1441 1.376 . S
C1445 C1444 1.392 . S
C1445 H1457 0.929 . S
C1446 C1442 1.531 . S
C1446 H1458 0.960 . S
C1446 H1459 0.962 1_556 S
C1446 H1460 0.960 . S
C1447 C1444 1.511 . S
C1447 H1461 0.961 . S
C1447 H1462 0.961 . S
C1447 H1463 0.961 . S
C1448 C1449 1.370 . S
C1448 C1450 1.363 . S
C1448 H1464 0.931 1_556 S
C1449 C1448 1.370 . S
C1449 C1453 1.408 . S
C1450 C1448 1.363 . S
C1450 C1451 1.370 . S
C1450 C1454 1.524 1_556 S
C1451 C1443 1.503 . S
C1451 C1450 1.370 . S
C1451 C1452 1.403 . S
C1452 C1451 1.403 . S
C1452 C1453 1.404 . S
C1452 C1455 1.539 . S
C1453 C1449 1.408 . S
C1453 C1452 1.404 . S
C1453 H1465 0.930 . S
C1454 C1450 1.524 1_554 S
C1454 H1466 0.956 . S
C1454 H1467 0.961 . S
C1454 H1468 0.961 . S
C1455 C1452 1.539 . S
C1455 H1469 0.958 . S
C1455 H1470 0.961 . S
C1455 H1471 0.960 . S
H1456 C1440 0.931 1_554 S
H1457 C1445 0.929 . S
H1458 C1446 0.960 . S
H1459 C1446 0.962 1_554 S
H1460 C1446 0.960 . S
H1461 C1447 0.961 . S
H1462 C1447 0.961 . S
H1463 C1447 0.961 . S
H1464 C1448 0.931 1_554 S
H1465 C1453 0.930 . S
H1466 C1454 0.956 . S
H1467 C1454 0.961 . S
H1468 C1454 0.961 . S
H1469 C1455 0.958 . S
H1470 C1455 0.961 . S
H1471 C1455 0.960 . S
C1472 C1473 1.391 . S
C1472 C1474 1.394 . S
C1472 H1488 0.931 . S
C1473 C1472 1.391 . S
C1473 C1477 1.376 . S
C1474 C1472 1.394 . S
C1474 C1475 1.369 . S
C1474 C1478 1.531 1_556 S
C1475 C1474 1.369 . S
C1475 C1476 1.410 . S
C1475 C1483 1.503 . S
C1476 C1475 1.410 . S
C1476 C1477 1.392 . S
C1476 C1479 1.511 . S
C1477 C1473 1.376 . S
C1477 C1476 1.392 . S
C1477 H1489 0.929 . S
C1478 C1474 1.531 1_554 S
C1478 H1490 0.960 . S
C1478 H1491 0.962 . S
C1478 H1492 0.960 . S
C1479 C1476 1.511 . S
C1479 H1493 0.961 . S
C1479 H1494 0.961 . S
C1479 H1495 0.961 . S
C1480 C1481 1.377 . S
C1480 C1482 1.363 . S
C1480 H1496 0.931 . S
C1481 C1480 1.377 . S
C1481 C1485 1.398 1_554 S
C1482 C1480 1.363 . S
C1482 C1483 1.370 1_554 S
C1482 C1486 1.524 . S
C1483 C1475 1.503 . S
C1483 C1482 1.370 1_556 S
C1483 C1484 1.403 . S
C1484 C1483 1.403 . S
C1484 C1485 1.404 . S
C1484 C1487 1.539 . S
C1485 C1481 1.398 1_556 S
C1485 C1484 1.404 . S
C1485 H1497 0.930 . S
C1486 C1482 1.524 . S
C1486 H1498 0.956 . S
C1486 H1499 0.961 . S
C1486 H1500 0.961 . S
C1487 C1484 1.539 . S
C1487 H1501 0.958 . S
C1487 H1502 0.961 . S
C1487 H1503 0.960 . S
H1488 C1472 0.931 . S
H1489 C1477 0.929 . S
H1490 C1478 0.960 . S
H1491 C1478 0.962 . S
H1492 C1478 0.960 . S
H1493 C1479 0.961 . S
H1494 C1479 0.961 . S
H1495 C1479 0.961 . S
H1496 C1480 0.931 . S
H1497 C1485 0.930 . S
H1498 C1486 0.956 . S
H1499 C1486 0.961 . S
H1500 C1486 0.961 . S
H1501 C1487 0.958 . S
H1502 C1487 0.961 . S
H1503 C1487 0.960 . S
C1504 C1505 1.391 . S
C1504 C1506 1.394 . S
C1504 H1520 0.931 . S
C1505 C1504 1.391 . S
C1505 C1509 1.376 . S
C1506 C1504 1.394 . S
C1506 C1507 1.369 . S
C1506 C1510 1.531 . S
C1507 C1506 1.369 . S
C1507 C1508 1.410 1_556 S
C1507 C1515 1.503 . S
C1508 C1507 1.410 1_554 S
C1508 C1509 1.392 1_554 S
C1508 C1511 1.511 . S
C1509 C1505 1.376 . S
C1509 C1508 1.392 1_556 S
C1509 H1521 0.929 1_556 S
C1510 C1506 1.531 . S
C1510 H1522 0.960 . S
C1510 H1523 0.962 . S
C1510 H1524 0.960 . S
C1511 C1508 1.511 . S
C1511 H1525 0.961 . S
C1511 H1526 0.961 . S
C1511 H1527 0.961 . S
C1512 C1513 1.363 1_556 S
C1512 C1514 1.370 . S
C1512 H1528 0.932 . S
C1513 C1512 1.363 1_554 S
C1513 C1517 1.408 . S
C1514 C1512 1.370 . S
C1514 C1515 1.370 . S
C1514 C1518 1.524 . S
C1515 C1507 1.503 . S
C1515 C1514 1.370 . S
C1515 C1516 1.403 . S
C1516 C1515 1.403 . S
C1516 C1517 1.404 1_556 S
C1516 C1519 1.538 1_556 S
C1517 C1513 1.408 . S
C1517 C1516 1.404 1_554 S
C1517 H1529 0.930 1_545 S
C1518 C1514 1.524 . S
C1518 H1530 0.956 . S
C1518 H1531 0.961 . S
C1518 H1532 0.961 . S
C1519 C1516 1.538 1_554 S
C1519 H1533 0.932 1_544 S
C1519 H1534 0.983 1_545 S
C1519 H1535 0.966 . S
H1520 C1504 0.931 . S
H1521 C1509 0.929 1_554 S
H1522 C1510 0.960 . S
H1523 C1510 0.962 . S
H1524 C1510 0.960 . S
H1525 C1511 0.961 . S
H1526 C1511 0.961 . S
H1527 C1511 0.961 . S
H1528 C1512 0.932 . S
H1529 C1517 0.930 1_565 S
H1530 C1518 0.956 . S
H1531 C1518 0.961 . S
H1532 C1518 0.961 . S
H1533 C1519 0.932 1_566 S
H1534 C1519 0.983 1_565 S
H1535 C1519 0.966 . S
C1536 C1537 1.391 . S
C1536 C1538 1.394 . S
C1536 H1552 0.931 . S
C1537 C1536 1.391 . S
C1537 C1541 1.376 . S
C1538 C1536 1.394 . S
C1538 C1539 1.369 . S
C1538 C1542 1.531 . S
C1539 C1538 1.369 . S
C1539 C1540 1.410 . S
C1539 C1547 1.503 . S
C1540 C1539 1.410 . S
C1540 C1541 1.392 . S
C1540 C1543 1.511 . S
C1541 C1537 1.376 . S
C1541 C1540 1.392 . S
C1541 H1553 0.929 . S
C1542 C1538 1.531 . S
C1542 H1554 0.960 . S
C1542 H1555 0.962 . S
C1542 H1556 0.960 . S
C1543 C1540 1.511 . S
C1543 H1557 0.961 . S
C1543 H1558 0.961 . S
C1543 H1559 0.961 . S
C1544 C1545 1.370 . S
C1544 C1546 1.363 . S
C1544 H1560 0.931 . S
C1545 C1544 1.370 . S
C1545 C1549 1.408 1_554 S
C1546 C1544 1.363 . S
C1546 C1547 1.370 1_554 S
C1546 C1550 1.524 . S
C1547 C1539 1.503 . S
C1547 C1546 1.370 1_556 S
C1547 C1548 1.403 . S
C1548 C1547 1.403 . S
C1548 C1549 1.404 . S
C1548 C1551 1.539 . S
C1549 C1545 1.408 1_556 S
C1549 C1548 1.404 . S
C1549 H1561 0.930 . S
C1550 C1546 1.524 . S
C1550 H1562 0.956 . S
C1550 H1563 0.961 . S
C1550 H1564 0.961 . S
C1551 C1548 1.539 . S
C1551 H1565 0.958 . S
C1551 H1566 0.961 . S
C1551 H1567 0.960 . S
H1552 C1536 0.931 . S
H1553 C1541 0.929 . S
H1554 C1542 0.960 . S
H1555 C1542 0.962 . S
H1556 C1542 0.960 . S
H1557 C1543 0.961 . S
H1558 C1543 0.961 . S
H1559 C1543 0.961 . S
H1560 C1544 0.931 . S
H1561 C1549 0.930 . S
H1562 C1550 0.956 . S
H1563 C1550 0.961 . S
H1564 C1550 0.961 . S
H1565 C1551 0.958 . S
H1566 C1551 0.961 . S
H1567 C1551 0.960 . S
C1568 C1569 1.391 . S
C1568 C1570 1.394 . S
C1568 H1584 0.931 . S
C1569 C1568 1.391 . S
C1569 C1573 1.376 . S
C1570 C1568 1.394 . S
C1570 C1571 1.369 . S
C1570 C1574 1.531 . S
C1571 C1570 1.369 . S
C1571 C1572 1.410 . S
C1571 C1579 1.503 . S
C1572 C1571 1.410 . S
C1572 C1573 1.392 . S
C1572 C1575 1.511 . S
C1573 C1569 1.376 . S
C1573 C1572 1.392 . S
C1573 H1585 0.929 . S
C1574 C1570 1.531 . S
C1574 H1586 0.960 . S
C1574 H1587 0.962 . S
C1574 H1588 0.960 . S
C1575 C1572 1.511 . S
C1575 H1589 0.961 . S
C1575 H1590 0.961 . S
C1575 H1591 0.961 . S
C1576 C1577 1.370 . S
C1576 C1578 1.363 . S
C1576 H1592 0.931 . S
C1577 C1576 1.370 . S
C1577 C1581 1.408 . S
C1578 C1576 1.363 . S
C1578 C1579 1.370 . S
C1578 C1582 1.524 . S
C1579 C1571 1.503 . S
C1579 C1578 1.370 . S
C1579 C1580 1.403 . S
C1580 C1579 1.403 . S
C1580 C1581 1.404 . S
C1580 C1583 1.539 . S
C1581 C1577 1.408 . S
C1581 C1580 1.404 . S
C1581 H1593 0.930 1_565 S
C1582 C1578 1.524 . S
C1582 H1594 0.956 . S
C1582 H1595 0.961 . S
C1582 H1596 0.961 . S
C1583 C1580 1.539 . S
C1583 H1597 0.958 1_565 S
C1583 H1598 0.961 1_565 S
C1583 H1599 0.960 . S
H1584 C1568 0.931 . S
H1585 C1573 0.929 . S
H1586 C1574 0.960 . S
H1587 C1574 0.962 . S
H1588 C1574 0.960 . S
H1589 C1575 0.961 . S
H1590 C1575 0.961 . S
H1591 C1575 0.961 . S
H1592 C1576 0.931 . S
H1593 C1581 0.930 1_545 S
H1594 C1582 0.956 . S
H1595 C1582 0.961 . S
H1596 C1582 0.961 . S
H1597 C1583 0.958 1_545 S
H1598 C1583 0.961 1_545 S
H1599 C1583 0.960 . S
C1600 C1601 1.391 . S
C1600 C1602 1.394 . S
C1600 H1616 0.931 . S
C1601 C1600 1.391 . S
C1601 C1605 1.376 . S
C1602 C1600 1.394 . S
C1602 C1603 1.369 . S
C1602 C1606 1.531 . S
C1603 C1602 1.369 . S
C1603 C1604 1.410 . S
C1603 C1611 1.503 . S
C1604 C1603 1.410 . S
C1604 C1605 1.392 . S
C1604 C1607 1.511 . S
C1605 C1601 1.376 . S
C1605 C1604 1.392 . S
C1605 H1617 0.929 . S
C1606 C1602 1.531 . S
C1606 H1618 0.960 . S
C1606 H1619 0.962 . S
C1606 H1620 0.960 . S
C1607 C1604 1.511 . S
C1607 H1621 0.961 . S
C1607 H1622 0.961 . S
C1607 H1623 0.961 . S
C1608 C1609 1.370 . S
C1608 C1610 1.363 . S
C1608 H1624 0.931 . S
C1609 C1608 1.370 . S
C1609 C1613 1.408 . S
C1610 C1608 1.363 . S
C1610 C1611 1.370 . S
C1610 C1614 1.524 . S
C1611 C1603 1.503 . S
C1611 C1610 1.370 . S
C1611 C1612 1.403 . S
C1612 C1611 1.403 . S
C1612 C1613 1.404 . S
C1612 C1615 1.539 . S
C1613 C1609 1.408 . S
C1613 C1612 1.404 . S
C1613 H1625 0.930 . S
C1614 C1610 1.524 . S
C1614 H1626 0.956 . S
C1614 H1627 0.961 . S
C1614 H1628 0.961 . S
C1615 C1612 1.539 . S
C1615 H1629 0.958 . S
C1615 H1630 0.961 . S
C1615 H1631 0.960 . S
H1616 C1600 0.931 . S
H1617 C1605 0.929 . S
H1618 C1606 0.960 . S
H1619 C1606 0.962 . S
H1620 C1606 0.960 . S
H1621 C1607 0.961 . S
H1622 C1607 0.961 . S
H1623 C1607 0.961 . S
H1624 C1608 0.931 . S
H1625 C1613 0.930 . S
H1626 C1614 0.956 . S
H1627 C1614 0.961 . S
H1628 C1614 0.961 . S
H1629 C1615 0.958 . S
H1630 C1615 0.961 . S
H1631 C1615 0.960 . S
C1632 C1633 1.391 . S
C1632 C1634 1.394 . S
C1632 H1648 0.931 . S
C1633 C1632 1.391 . S
C1633 C1637 1.376 . S
C1634 C1632 1.394 . S
C1634 C1635 1.369 . S
C1634 C1638 1.531 . S
C1635 C1634 1.369 . S
C1635 C1636 1.410 . S
C1635 C1643 1.503 . S
C1636 C1635 1.410 . S
C1636 C1637 1.392 . S
C1636 C1639 1.511 . S
C1637 C1633 1.376 . S
C1637 C1636 1.392 . S
C1637 H1649 0.929 . S
C1638 C1634 1.531 . S
C1638 H1650 0.960 . S
C1638 H1651 0.962 . S
C1638 H1652 0.960 . S
C1639 C1636 1.511 . S
C1639 H1653 0.961 . S
C1639 H1654 0.961 . S
C1639 H1655 0.961 . S
C1640 C1641 1.370 . S
C1640 C1642 1.363 . S
C1640 H1656 0.931 . S
C1641 C1640 1.370 . S
C1641 C1645 1.408 . S
C1642 C1640 1.363 . S
C1642 C1643 1.370 . S
C1642 C1646 1.524 . S
C1643 C1635 1.503 . S
C1643 C1642 1.370 . S
C1643 C1644 1.403 . S
C1644 C1643 1.403 . S
C1644 C1645 1.404 . S
C1644 C1647 1.539 . S
C1645 C1641 1.408 . S
C1645 C1644 1.404 . S
C1645 H1657 0.930 . S
C1646 C1642 1.524 . S
C1646 H1658 0.956 . S
C1646 H1659 0.961 . S
C1646 H1660 0.961 . S
C1647 C1644 1.539 . S
C1647 H1661 0.958 . S
C1647 H1662 0.961 . S
C1647 H1663 0.960 . S
H1648 C1632 0.931 . S
H1649 C1637 0.929 . S
H1650 C1638 0.960 . S
H1651 C1638 0.962 . S
H1652 C1638 0.960 . S
H1653 C1639 0.961 . S
H1654 C1639 0.961 . S
H1655 C1639 0.961 . S
H1656 C1640 0.931 . S
H1657 C1645 0.930 . S
H1658 C1646 0.956 . S
H1659 C1646 0.961 . S
H1660 C1646 0.961 . S
H1661 C1647 0.958 . S
H1662 C1647 0.961 . S
H1663 C1647 0.960 . S
C1664 C1665 1.391 . S
C1664 C1666 1.394 . S
C1664 H1680 0.931 . S
C1665 C1664 1.391 . S
C1665 C1669 1.376 . S
C1666 C1664 1.394 . S
C1666 C1667 1.369 . S
C1666 C1670 1.531 . S
C1667 C1666 1.369 . S
C1667 C1668 1.410 . S
C1667 C1675 1.503 . S
C1668 C1667 1.410 . S
C1668 C1669 1.392 . S
C1668 C1671 1.511 . S
C1669 C1665 1.376 . S
C1669 C1668 1.392 . S
C1669 H1681 0.929 . S
C1670 C1666 1.531 . S
C1670 H1682 0.960 . S
C1670 H1683 0.962 . S
C1670 H1684 0.960 . S
C1671 C1668 1.511 . S
C1671 H1685 0.961 . S
C1671 H1686 0.961 . S
C1671 H1687 0.961 . S
C1672 C1673 1.370 . S
C1672 C1674 1.363 . S
C1672 H1688 0.931 . S
C1673 C1672 1.370 . S
C1673 C1677 1.408 . S
C1674 C1672 1.363 . S
C1674 C1675 1.370 . S
C1674 C1678 1.524 . S
C1675 C1667 1.503 . S
C1675 C1674 1.370 . S
C1675 C1676 1.403 . S
C1676 C1675 1.403 . S
C1676 C1677 1.404 . S
C1676 C1679 1.539 . S
C1677 C1673 1.408 . S
C1677 C1676 1.404 . S
C1677 H1689 0.930 . S
C1678 C1674 1.524 . S
C1678 H1690 0.956 . S
C1678 H1691 0.961 . S
C1678 H1692 0.961 . S
C1679 C1676 1.539 . S
C1679 H1693 0.958 . S
C1679 H1694 0.961 . S
C1679 H1695 0.960 . S
H1680 C1664 0.931 . S
H1681 C1669 0.929 . S
H1682 C1670 0.960 . S
H1683 C1670 0.962 . S
H1684 C1670 0.960 . S
H1685 C1671 0.961 . S
H1686 C1671 0.961 . S
H1687 C1671 0.961 . S
H1688 C1672 0.931 . S
H1689 C1677 0.930 . S
H1690 C1678 0.956 . S
H1691 C1678 0.961 . S
H1692 C1678 0.961 . S
H1693 C1679 0.958 . S
H1694 C1679 0.961 . S
H1695 C1679 0.960 . S
C1696 C1697 1.391 . S
C1696 C1698 1.394 . S
C1696 H1712 0.931 1_554 S
C1697 C1696 1.391 . S
C1697 C1701 1.376 . S
C1698 C1696 1.394 . S
C1698 C1699 1.369 . S
C1698 C1702 1.531 1_554 S
C1699 C1698 1.369 . S
C1699 C1700 1.410 . S
C1699 C1707 1.503 . S
C1700 C1699 1.410 . S
C1700 C1701 1.392 . S
C1700 C1703 1.511 . S
C1701 C1697 1.376 . S
C1701 C1700 1.392 . S
C1701 H1713 0.929 . S
C1702 C1698 1.531 1_556 S
C1702 H1714 0.960 . S
C1702 H1715 0.962 . S
C1702 H1716 0.960 . S
C1703 C1700 1.511 . S
C1703 H1717 0.961 . S
C1703 H1718 0.961 . S
C1703 H1719 0.961 . S
C1704 C1705 1.380 . S
C1704 C1706 1.363 . S
C1704 H1720 0.931 . S
C1705 C1704 1.380 . S
C1705 C1709 1.402 1_554 S
C1706 C1704 1.363 . S
C1706 C1707 1.370 . S
C1706 C1710 1.524 . S
C1707 C1699 1.503 . S
C1707 C1706 1.370 . S
C1707 C1708 1.403 1_554 S
C1708 C1707 1.403 1_556 S
C1708 C1709 1.404 . S
C1708 C1711 1.539 . S
C1709 C1705 1.402 1_556 S
C1709 C1708 1.404 . S
C1709 H1721 0.930 . S
C1710 C1706 1.524 . S
C1710 H1722 0.956 . S
C1710 H1723 0.961 . S
C1710 H1724 0.961 . S
C1711 C1708 1.539 . S
C1711 H1725 0.958 . S
C1711 H1726 0.961 . S
C1711 H1727 0.960 1_556 S
H1712 C1696 0.931 1_556 S
H1713 C1701 0.929 . S
H1714 C1702 0.960 . S
H1715 C1702 0.962 . S
H1716 C1702 0.960 . S
H1717 C1703 0.961 . S
H1718 C1703 0.961 . S
H1719 C1703 0.961 . S
H1720 C1704 0.931 . S
H1721 C1709 0.930 . S
H1722 C1710 0.956 . S
H1723 C1710 0.961 . S
H1724 C1710 0.961 . S
H1725 C1711 0.958 . S
H1726 C1711 0.961 . S
H1727 C1711 0.960 1_554 S
C1728 C1729 1.391 1_554 S
C1728 C1730 1.394 . S
C1728 H1744 0.931 . S
C1729 C1728 1.391 1_556 S
C1729 C1733 1.376 . S
C1730 C1728 1.394 . S
C1730 C1731 1.369 . S
C1730 C1734 1.531 . S
C1731 C1730 1.369 . S
C1731 C1732 1.410 1_554 S
C1731 C1739 1.503 . S
C1732 C1731 1.410 1_556 S
C1732 C1733 1.392 . S
C1732 C1735 1.511 . S
C1733 C1729 1.376 . S
C1733 C1732 1.392 . S
C1733 H1745 0.929 . S
C1734 C1730 1.531 . S
C1734 H1746 0.960 . S
C1734 H1747 0.962 . S
C1734 H1748 0.960 . S
C1735 C1732 1.511 . S
C1735 H1749 0.961 . S
C1735 H1750 0.961 . S
C1735 H1751 0.961 . S
C1736 C1737 1.370 . S
C1736 C1738 1.363 . S
C1736 H1752 0.931 . S
C1737 C1736 1.370 . S
C1737 C1741 1.408 . S
C1738 C1736 1.363 . S
C1738 C1739 1.370 . S
C1738 C1742 1.524 . S
C1739 C1731 1.503 . S
C1739 C1738 1.370 . S
C1739 C1740 1.403 . S
C1740 C1739 1.403 . S
C1740 C1741 1.404 . S
C1740 C1743 1.539 . S
C1741 C1737 1.408 . S
C1741 C1740 1.404 . S
C1741 H1753 0.930 . S
C1742 C1738 1.524 . S
C1742 H1754 0.956 . S
C1742 H1755 0.961 . S
C1742 H1756 0.961 . S
C1743 C1740 1.539 . S
C1743 H1757 0.958 . S
C1743 H1758 0.961 . S
C1743 H1759 0.960 . S
H1744 C1728 0.931 . S
H1745 C1733 0.929 . S
H1746 C1734 0.960 . S
H1747 C1734 0.962 . S
H1748 C1734 0.960 . S
H1749 C1735 0.961 . S
H1750 C1735 0.961 . S
H1751 C1735 0.961 . S
H1752 C1736 0.931 . S
H1753 C1741 0.930 . S
H1754 C1742 0.956 . S
H1755 C1742 0.961 . S
H1756 C1742 0.961 . S
H1757 C1743 0.958 . S
H1758 C1743 0.961 . S
H1759 C1743 0.960 . S
C1760 C1761 1.391 . S
C1760 C1762 1.394 1_556 S
C1760 H1776 0.931 . S
C1761 C1760 1.391 . S
C1761 C1765 1.376 1_556 S
C1762 C1760 1.394 1_554 S
C1762 C1763 1.369 . S
C1762 C1766 1.530 1_554 S
C1763 C1762 1.369 . S
C1763 C1764 1.410 . S
C1763 C1771 1.503 . S
C1764 C1763 1.410 . S
C1764 C1765 1.392 . S
C1764 C1767 1.511 . S
C1765 C1761 1.376 1_554 S
C1765 C1764 1.392 . S
C1765 H1777 0.929 1_565 S
C1766 C1762 1.530 1_556 S
C1766 H1778 0.959 1_556 S
C1766 H1779 0.963 . S
C1766 H1780 0.960 1_556 S
C1767 C1764 1.511 . S
C1767 H1781 0.961 1_565 S
C1767 H1782 0.961 . S
C1767 H1783 0.961 . S
C1768 C1769 1.370 . S
C1768 C1770 1.367 . S
C1768 H1784 0.931 1_554 S
C1769 C1768 1.370 . S
C1769 C1773 1.408 . S
C1770 C1768 1.367 . S
C1770 C1771 1.382 . S
C1770 C1774 1.510 1_554 S
C1771 C1763 1.503 . S
C1771 C1770 1.382 . S
C1771 C1772 1.403 . S
C1772 C1771 1.403 . S
C1772 C1773 1.404 . S
C1772 C1775 1.539 . S
C1773 C1769 1.408 . S
C1773 C1772 1.404 . S
C1773 H1785 0.930 . S
C1774 C1770 1.510 1_556 S
C1774 H1786 0.956 . S
C1774 H1787 0.961 . S
C1774 H1788 0.961 . S
C1775 C1772 1.539 . S
C1775 H1789 0.958 . S
C1775 H1790 0.961 . S
C1775 H1791 0.960 . S
H1776 C1760 0.931 . S
H1777 C1765 0.929 1_545 S
H1778 C1766 0.959 1_554 S
H1779 C1766 0.963 . S
H1780 C1766 0.960 1_554 S
H1781 C1767 0.961 1_545 S
H1782 C1767 0.961 . S
H1783 C1767 0.961 . S
H1784 C1768 0.931 1_556 S
H1785 C1773 0.930 . S
H1786 C1774 0.956 . S
H1787 C1774 0.961 . S
H1788 C1774 0.961 . S
H1789 C1775 0.958 . S
H1790 C1775 0.961 . S
H1791 C1775 0.960 . S
C1792 C1793 1.391 . S
C1792 C1794 1.394 . S
C1792 H1808 0.931 . S
C1793 C1792 1.391 . S
C1793 C1797 1.376 . S
C1794 C1792 1.394 . S
C1794 C1795 1.369 . S
C1794 C1798 1.531 . S
C1795 C1794 1.369 . S
C1795 C1796 1.410 . S
C1795 C1803 1.503 . S
C1796 C1795 1.410 . S
C1796 C1797 1.392 . S
C1796 C1799 1.511 . S
C1797 C1793 1.376 . S
C1797 C1796 1.392 . S
C1797 H1809 0.929 . S
C1798 C1794 1.531 . S
C1798 H1810 0.960 . S
C1798 H1811 0.962 . S
C1798 H1812 0.960 . S
C1799 C1796 1.511 . S
C1799 H1813 0.961 . S
C1799 H1814 0.961 . S
C1799 H1815 0.961 . S
C1800 C1801 1.370 . S
C1800 C1802 1.363 . S
C1800 H1816 0.931 . S
C1801 C1800 1.370 . S
C1801 C1805 1.408 1_556 S
C1802 C1800 1.363 . S
C1802 C1803 1.370 1_556 S
C1802 C1806 1.524 . S
C1803 C1795 1.503 . S
C1803 C1802 1.370 1_554 S
C1803 C1804 1.403 . S
C1804 C1803 1.403 . S
C1804 C1805 1.404 . S
C1804 C1807 1.539 . S
C1805 C1801 1.408 1_554 S
C1805 C1804 1.404 . S
C1805 H1817 0.930 . S
C1806 C1802 1.524 . S
C1806 H1818 0.956 . S
C1806 H1819 0.961 . S
C1806 H1820 0.961 . S
C1807 C1804 1.539 . S
C1807 H1821 0.958 . S
C1807 H1822 0.961 . S
C1807 H1823 0.960 . S
H1808 C1792 0.931 . S
H1809 C1797 0.929 . S
H1810 C1798 0.960 . S
H1811 C1798 0.962 . S
H1812 C1798 0.960 . S
H1813 C1799 0.961 . S
H1814 C1799 0.961 . S
H1815 C1799 0.961 . S
H1816 C1800 0.931 . S
H1817 C1805 0.930 . S
H1818 C1806 0.956 . S
H1819 C1806 0.961 . S
H1820 C1806 0.961 . S
H1821 C1807 0.958 . S
H1822 C1807 0.961 . S
H1823 C1807 0.960 . S
C545 C5 0.721 . S
C553 C175 0.749 . S
C577 C39 0.839 . S
C585 C209 0.785 . S
C609 C243 0.802 . S
C617 C73 0.783 . S
C641 C141 0.688 . S
C649 C107 0.725 . S
C673 C277 0.823 . S
C681 C447 0.774 . S
C705 C311 0.838 . S
C713 C481 0.789 . S
C737 C345 0.742 . S
C745 C515 0.769 . S
C769 C379 0.739 . S
C777 C413 0.749 . S
C801 C305 1.539 . S
C809 C33 1.486 . S
C833 C339 1.137 . S
C841 C67 1.236 . S
C865 C101 1.296 . S
C873 C373 1.384 . S
C897 C407 1.613 . S
C905 C135 1.688 . S
C929 C169 1.259 . S
C937 C441 1.183 . S
C961 C203 1.508 . S
C969 C475 1.500 . S
C993 C237 1.619 . S
C1001 C509 1.683 . S
C1025 C271 1.305 . S
C1033 C543 1.379 . S
C1057 C20 1.584 . S
C1065 C156 1.613 . S
C1089 C54 1.584 . S
C1097 C190 1.603 . S
C1121 C224 1.710 . S
C1129 C88 1.692 . S
C1153 C122 1.672 . S
C1161 C258 1.674 . S
C1185 C428 1.625 . S
C1193 C292 1.608 . S
C1217 C462 1.645 . S
C1225 C326 1.624 . S
C1249 C360 1.673 . S
C1257 C496 1.673 . S
C1281 C530 1.712 . S
C1289 C394 1.693 . S
C1313 C43 1.713 . S
C1321 C2 1.722 . S
C1345 C36 1.818 . S
C1353 C77 1.802 . S
C1377 C70 2.015 . S
C1385 C111 1.985 . S
C1409 C104 1.901 . S
C1417 C9 1.850 . S
C1441 C247 1.773 1_556 S
C1449 C138 1.821 . S
C1473 C172 1.726 . S
C1481 C145 1.682 . S
C1505 C206 1.877 . S
C1513 C179 1.850 . S
C1537 C240 2.009 . S
C1545 C213 1.967 . S
C1569 C274 1.708 . S
C1577 C315 1.682 . S
C1601 C308 1.829 . S
C1609 C349 1.792 . S
C1633 C383 1.993 . S
C1641 C342 2.020 . S
C1665 C376 1.897 . S
C1673 C281 1.846 . S
C1697 C410 1.814 . S
C1705 C519 1.796 1_554 S
C1729 C417 1.688 . S
C1737 C444 1.717 . S
C1761 C451 1.825 . S
C1769 C478 1.891 . S
C1793 C512 2.011 . S
C1801 C485 1.968 . S
