# Generated by pormake.
# Topology ukd, (4)-cn, num edge types: 1
# Building blocks:
#     Node 0, Type 0, BuildingBlock: KUFVIS_clean_sbu_0, # of connection points: 4
#     Node 1, Type 0, BuildingBlock: KUFVIS_clean_sbu_0, # of connection points: 4
#     Node 2, Type 0, BuildingBlock: KUFVIS_clean_sbu_0, # of connection points: 4
#     Node 3, Type 0, BuildingBlock: KUFVIS_clean_sbu_0, # of connection points: 4
#     Node 4, Type 0, BuildingBlock: KUFVIS_clean_sbu_0, # of connection points: 4
#     Node 5, Type 0, BuildingBlock: KUFVIS_clean_sbu_0, # of connection points: 4
#     Node 6, Type 0, BuildingBlock: KUFVIS_clean_sbu_0, # of connection points: 4
#     Node 7, Type 0, BuildingBlock: KUFVIS_clean_sbu_0, # of connection points: 4
#     Node 8, Type 0, BuildingBlock: KUFVIS_clean_sbu_0, # of connection points: 4
#     Node 9, Type 0, BuildingBlock: KUFVIS_clean_sbu_0, # of connection points: 4
#     Node 10, Type 0, BuildingBlock: KUFVIS_clean_sbu_0, # of connection points: 4
#     Node 11, Type 0, BuildingBlock: KUFVIS_clean_sbu_0, # of connection points: 4
#     Node 12, Type 0, BuildingBlock: KUFVIS_clean_sbu_0, # of connection points: 4
#     Node 13, Type 0, BuildingBlock: KUFVIS_clean_sbu_0, # of connection points: 4
#     Node 14, Type 0, BuildingBlock: KUFVIS_clean_sbu_0, # of connection points: 4
#     Node 15, Type 0, BuildingBlock: KUFVIS_clean_sbu_0, # of connection points: 4
#     Node 16, Type 0, BuildingBlock: KUFVIS_clean_sbu_0, # of connection points: 4
#     Node 17, Type 0, BuildingBlock: KUFVIS_clean_sbu_0, # of connection points: 4
#     Node 18, Type 0, BuildingBlock: KUFVIS_clean_sbu_0, # of connection points: 4
#     Node 19, Type 0, BuildingBlock: KUFVIS_clean_sbu_0, # of connection points: 4
#     Node 20, Type 0, BuildingBlock: KUFVIS_clean_sbu_0, # of connection points: 4
#     Node 21, Type 0, BuildingBlock: KUFVIS_clean_sbu_0, # of connection points: 4
#     Node 22, Type 0, BuildingBlock: KUFVIS_clean_sbu_0, # of connection points: 4
#     Node 23, Type 0, BuildingBlock: KUFVIS_clean_sbu_0, # of connection points: 4
#     Node 24, Type 0, BuildingBlock: KUFVIS_clean_sbu_0, # of connection points: 4
#     Node 25, Type 0, BuildingBlock: KUFVIS_clean_sbu_0, # of connection points: 4
#     Node 26, Type 0, BuildingBlock: KUFVIS_clean_sbu_0, # of connection points: 4
#     Node 27, Type 0, BuildingBlock: KUFVIS_clean_sbu_0, # of connection points: 4
#     Node 28, Type 0, BuildingBlock: KUFVIS_clean_sbu_0, # of connection points: 4
#     Node 29, Type 0, BuildingBlock: KUFVIS_clean_sbu_0, # of connection points: 4
#     Node 30, Type 0, BuildingBlock: KUFVIS_clean_sbu_0, # of connection points: 4
#     Node 31, Type 0, BuildingBlock: KUFVIS_clean_sbu_0, # of connection points: 4
#     Edge 32, Type (0, 0), BuildingBlock: UVAHIK_clean_linker_0, # of connection points: 2
#     Edge 33, Type (0, 0), BuildingBlock: UVAHIK_clean_linker_0, # of connection points: 2
#     Edge 34, Type (0, 0), BuildingBlock: UVAHIK_clean_linker_0, # of connection points: 2
#     Edge 35, Type (0, 0), BuildingBlock: UVAHIK_clean_linker_0, # of connection points: 2
#     Edge 36, Type (0, 0), BuildingBlock: UVAHIK_clean_linker_0, # of connection points: 2
#     Edge 37, Type (0, 0), BuildingBlock: UVAHIK_clean_linker_0, # of connection points: 2
#     Edge 38, Type (0, 0), BuildingBlock: UVAHIK_clean_linker_0, # of connection points: 2
#     Edge 39, Type (0, 0), BuildingBlock: UVAHIK_clean_linker_0, # of connection points: 2
#     Edge 40, Type (0, 0), BuildingBlock: UVAHIK_clean_linker_0, # of connection points: 2
#     Edge 41, Type (0, 0), BuildingBlock: UVAHIK_clean_linker_0, # of connection points: 2
#     Edge 42, Type (0, 0), BuildingBlock: UVAHIK_clean_linker_0, # of connection points: 2
#     Edge 43, Type (0, 0), BuildingBlock: UVAHIK_clean_linker_0, # of connection points: 2
#     Edge 44, Type (0, 0), BuildingBlock: UVAHIK_clean_linker_0, # of connection points: 2
#     Edge 45, Type (0, 0), BuildingBlock: UVAHIK_clean_linker_0, # of connection points: 2
#     Edge 46, Type (0, 0), BuildingBlock: UVAHIK_clean_linker_0, # of connection points: 2
#     Edge 47, Type (0, 0), BuildingBlock: UVAHIK_clean_linker_0, # of connection points: 2
#     Edge 48, Type (0, 0), BuildingBlock: UVAHIK_clean_linker_0, # of connection points: 2
#     Edge 49, Type (0, 0), BuildingBlock: UVAHIK_clean_linker_0, # of connection points: 2
#     Edge 50, Type (0, 0), BuildingBlock: UVAHIK_clean_linker_0, # of connection points: 2
#     Edge 51, Type (0, 0), BuildingBlock: UVAHIK_clean_linker_0, # of connection points: 2
#     Edge 52, Type (0, 0), BuildingBlock: UVAHIK_clean_linker_0, # of connection points: 2
#     Edge 53, Type (0, 0), BuildingBlock: UVAHIK_clean_linker_0, # of connection points: 2
#     Edge 54, Type (0, 0), BuildingBlock: UVAHIK_clean_linker_0, # of connection points: 2
#     Edge 55, Type (0, 0), BuildingBlock: UVAHIK_clean_linker_0, # of connection points: 2
#     Edge 56, Type (0, 0), BuildingBlock: UVAHIK_clean_linker_0, # of connection points: 2
#     Edge 57, Type (0, 0), BuildingBlock: UVAHIK_clean_linker_0, # of connection points: 2
#     Edge 58, Type (0, 0), BuildingBlock: UVAHIK_clean_linker_0, # of connection points: 2
#     Edge 59, Type (0, 0), BuildingBlock: UVAHIK_clean_linker_0, # of connection points: 2
#     Edge 60, Type (0, 0), BuildingBlock: UVAHIK_clean_linker_0, # of connection points: 2
#     Edge 61, Type (0, 0), BuildingBlock: UVAHIK_clean_linker_0, # of connection points: 2
#     Edge 62, Type (0, 0), BuildingBlock: UVAHIK_clean_linker_0, # of connection points: 2
#     Edge 63, Type (0, 0), BuildingBlock: UVAHIK_clean_linker_0, # of connection points: 2
#     Edge 64, Type (0, 0), BuildingBlock: UVAHIK_clean_linker_0, # of connection points: 2
#     Edge 65, Type (0, 0), BuildingBlock: UVAHIK_clean_linker_0, # of connection points: 2
#     Edge 66, Type (0, 0), BuildingBlock: UVAHIK_clean_linker_0, # of connection points: 2
#     Edge 67, Type (0, 0), BuildingBlock: UVAHIK_clean_linker_0, # of connection points: 2
#     Edge 68, Type (0, 0), BuildingBlock: UVAHIK_clean_linker_0, # of connection points: 2
#     Edge 69, Type (0, 0), BuildingBlock: UVAHIK_clean_linker_0, # of connection points: 2
#     Edge 70, Type (0, 0), BuildingBlock: UVAHIK_clean_linker_0, # of connection points: 2
#     Edge 71, Type (0, 0), BuildingBlock: UVAHIK_clean_linker_0, # of connection points: 2
#     Edge 72, Type (0, 0), BuildingBlock: UVAHIK_clean_linker_0, # of connection points: 2
#     Edge 73, Type (0, 0), BuildingBlock: UVAHIK_clean_linker_0, # of connection points: 2
#     Edge 74, Type (0, 0), BuildingBlock: UVAHIK_clean_linker_0, # of connection points: 2
#     Edge 75, Type (0, 0), BuildingBlock: UVAHIK_clean_linker_0, # of connection points: 2
#     Edge 76, Type (0, 0), BuildingBlock: UVAHIK_clean_linker_0, # of connection points: 2
#     Edge 77, Type (0, 0), BuildingBlock: UVAHIK_clean_linker_0, # of connection points: 2
#     Edge 78, Type (0, 0), BuildingBlock: UVAHIK_clean_linker_0, # of connection points: 2
#     Edge 79, Type (0, 0), BuildingBlock: UVAHIK_clean_linker_0, # of connection points: 2
#     Edge 80, Type (0, 0), BuildingBlock: UVAHIK_clean_linker_0, # of connection points: 2
#     Edge 81, Type (0, 0), BuildingBlock: UVAHIK_clean_linker_0, # of connection points: 2
#     Edge 82, Type (0, 0), BuildingBlock: UVAHIK_clean_linker_0, # of connection points: 2
#     Edge 83, Type (0, 0), BuildingBlock: UVAHIK_clean_linker_0, # of connection points: 2
#     Edge 84, Type (0, 0), BuildingBlock: UVAHIK_clean_linker_0, # of connection points: 2
#     Edge 85, Type (0, 0), BuildingBlock: UVAHIK_clean_linker_0, # of connection points: 2
#     Edge 86, Type (0, 0), BuildingBlock: UVAHIK_clean_linker_0, # of connection points: 2
#     Edge 87, Type (0, 0), BuildingBlock: UVAHIK_clean_linker_0, # of connection points: 2
#     Edge 88, Type (0, 0), BuildingBlock: UVAHIK_clean_linker_0, # of connection points: 2
#     Edge 89, Type (0, 0), BuildingBlock: UVAHIK_clean_linker_0, # of connection points: 2
#     Edge 90, Type (0, 0), BuildingBlock: UVAHIK_clean_linker_0, # of connection points: 2
#     Edge 91, Type (0, 0), BuildingBlock: UVAHIK_clean_linker_0, # of connection points: 2
#     Edge 92, Type (0, 0), BuildingBlock: UVAHIK_clean_linker_0, # of connection points: 2
#     Edge 93, Type (0, 0), BuildingBlock: UVAHIK_clean_linker_0, # of connection points: 2
#     Edge 94, Type (0, 0), BuildingBlock: UVAHIK_clean_linker_0, # of connection points: 2
#     Edge 95, Type (0, 0), BuildingBlock: UVAHIK_clean_linker_0, # of connection points: 2
# Relax obj value: 0.061
# Max RMSD: 0.101
# Mean RMSD: 0.099
data_MOF--net-ukd--node1-KUFVIS_clean_sbu_0--edge1-UVAHIK_clean_linker_0
_symmetry_space_group_name_H-M    P1
_symmetry_Int_Tables_number       1
_symmetry_cell_setting            triclinic
loop_
_symmetry_equiv_pos_as_xyz
'x, y, z'
_cell_length_a     57.456728
_cell_length_b     57.456765
_cell_length_c     94.096578
_cell_angle_alpha  89.997937
_cell_angle_beta   89.993024
_cell_angle_gamma 90.003768
loop_
_atom_site_label
_atom_site_type_symbol
_atom_site_fract_x
_atom_site_fract_y
_atom_site_fract_z
_atom_type_partial_charge
Mn0 Mn 0.219 0.17474 0.3478 0.0
Mn1 Mn 0.16811 0.17196 0.32984 0.0
C2 C 0.1888 0.1529 0.35693 0.0
C3 C 0.25667 0.16118 0.35142 0.0
C4 C 0.18255 0.21339 0.34786 0.0
O5 O 0.22729 0.18778 0.32839 0.0
O6 O 0.19355 0.18166 0.31683 0.0
C7 C 0.17971 0.13222 0.31113 0.0
N8 N 0.16534 0.14229 0.32085 0.0
C9 C 0.13889 0.10987 0.31991 0.0
C10 C 0.15333 0.09919 0.30981 0.0
C11 C 0.17388 0.11038 0.30545 0.0
C12 C 0.14569 0.13157 0.32525 0.0
H13 H 0.1955 0.14081 0.30774 0.0
C14 C 0.21483 0.18824 0.3172 0.0
O15 O 0.25065 0.18208 0.35518 0.0
O16 O 0.24098 0.14847 0.34525 0.0
N17 N 0.14147 0.16289 0.34071 0.0
C18 C 0.12971 0.17533 0.35074 0.0
C19 C 0.10868 0.16663 0.35618 0.0
C20 C 0.09978 0.14543 0.35111 0.0
C21 C 0.11205 0.13306 0.34069 0.0
C22 C 0.13282 0.14269 0.33558 0.0
H23 H 0.13628 0.19179 0.35454 0.0
O24 O 0.20589 0.15943 0.36499 0.0
O25 O 0.19021 0.15863 0.34356 0.0
O26 O 0.2016 0.20485 0.35251 0.0
O27 O 0.16926 0.20282 0.33907 0.0
C28 C 0.10464 0.11142 0.33529 0.0
C29 C 0.11813 0.09976 0.32497 0.0
H30 H 0.14887 0.08237 0.30539 0.0
H31 H 0.18516 0.10221 0.2977 0.0
H32 H 0.0993 0.17627 0.36423 0.0
H33 H 0.08356 0.13877 0.35533 0.0
H34 H 0.08875 0.10346 0.33912 0.0
H35 H 0.11241 0.08301 0.32102 0.0
Mn36 Mn 0.07325 0.96233 0.59508 0.0
Mn37 Mn 0.0755 0.909 0.57997 0.0
C38 C 0.09424 0.93306 0.60588 0.0
C39 C 0.08725 0.00014 0.59725 0.0
C40 C 0.03423 0.92615 0.59704 0.0
O41 O 0.06129 0.96839 0.57511 0.0
O42 O 0.06496 0.93248 0.5659 0.0
C43 C 0.11435 0.91851 0.56015 0.0
N44 N 0.10493 0.90548 0.57078 0.0
C45 C 0.13778 0.87954 0.57078 0.0
C46 C 0.14781 0.89261 0.55978 0.0
C47 C 0.13609 0.91225 0.55449 0.0
C48 C 0.11623 0.8868 0.57611 0.0
H49 H 0.10533 0.93355 0.55601 0.0
C50 C 0.05953 0.95401 0.56485 0.0
O51 O 0.0661 0.99486 0.60088 0.0
O52 O 0.1 0.98359 0.592 0.0
N53 N 0.08532 0.88402 0.592 0.0
C54 C 0.0732 0.87321 0.60256 0.0
C55 C 0.08254 0.85325 0.60902 0.0
C56 C 0.10395 0.84428 0.60433 0.0
C57 C 0.11577 0.85531 0.59317 0.0
C58 C 0.10567 0.87522 0.5872 0.0
H59 H 0.05657 0.87981 0.60607 0.0
O60 O 0.08762 0.95112 0.61307 0.0
O61 O 0.08905 0.93289 0.59241 0.0
O62 O 0.04263 0.94608 0.60014 0.0
O63 O 0.04498 0.91109 0.5895 0.0
C64 C 0.13716 0.84732 0.58771 0.0
C65 C 0.14829 0.85956 0.57663 0.0
H66 H 0.1645 0.88774 0.55532 0.0
H67 H 0.14374 0.92246 0.54603 0.0
H68 H 0.07322 0.84474 0.61756 0.0
H69 H 0.11112 0.8289 0.60935 0.0
H70 H 0.14528 0.83183 0.59201 0.0
H71 H 0.16487 0.85341 0.57265 0.0
Mn72 Mn 0.27922 0.81686 0.85133 0.0
Mn73 Mn 0.32896 0.8169 0.83233 0.0
C74 C 0.31085 0.83747 0.85962 0.0
C75 C 0.24237 0.83224 0.85529 0.0
C76 C 0.31265 0.77612 0.85032 0.0
O77 O 0.26964 0.8037 0.8321 0.0
O78 O 0.30238 0.81019 0.81951 0.0
C79 C 0.32059 0.85837 0.8144 0.0
N80 N 0.33407 0.84672 0.82394 0.0
C81 C 0.36305 0.87693 0.82354 0.0
C82 C 0.34955 0.88921 0.81365 0.0
C83 C 0.32817 0.87993 0.80911 0.0
C84 C 0.3545 0.85562 0.82852 0.0
H85 H 0.30419 0.85123 0.81086 0.0
C86 C 0.28107 0.80385 0.82047 0.0
O87 O 0.24759 0.81123 0.85926 0.0
O88 O 0.25838 0.84404 0.84876 0.0
N89 N 0.35631 0.82317 0.84328 0.0
C90 C 0.36691 0.80946 0.85317 0.0
C91 C 0.38829 0.81646 0.859 0.0
C92 C 0.39876 0.83725 0.85442 0.0
C93 C 0.38774 0.85083 0.84403 0.0
C94 C 0.36641 0.84302 0.83865 0.0
H95 H 0.3591 0.79333 0.85661 0.0
O96 O 0.2939 0.83215 0.86812 0.0
O97 O 0.30837 0.83133 0.8464 0.0
O98 O 0.29539 0.78625 0.85615 0.0
O99 O 0.32543 0.78553 0.84079 0.0
C100 C 0.39702 0.87189 0.83886 0.0
C101 C 0.38459 0.88504 0.82872 0.0
H102 H 0.35537 0.90581 0.80951 0.0
H103 H 0.31761 0.88934 0.80151 0.0
H104 H 0.39673 0.80583 0.86697 0.0
H105 H 0.41522 0.84263 0.85897 0.0
H106 H 0.41358 0.87827 0.84274 0.0
H107 H 0.39172 0.9014 0.82501 0.0
Mn108 Mn 0.43076 0.03318 0.09815 0.0
Mn109 Mn 0.43009 0.0868 0.08337 0.0
C110 C 0.4112 0.06296 0.10942 0.0
C111 C 0.41546 0.99585 0.1001 0.0
C112 C 0.47151 0.06731 0.09943 0.0
O113 O 0.44176 0.02722 0.07797 0.0
O114 O 0.43805 0.06316 0.06876 0.0
C115 C 0.38915 0.08038 0.0647 0.0
N116 N 0.40025 0.09248 0.07512 0.0
C117 C 0.36903 0.12029 0.07652 0.0
C118 C 0.3573 0.1082 0.06573 0.0
C119 C 0.36737 0.08811 0.05984 0.0
C120 C 0.39063 0.11168 0.08097 0.0
H121 H 0.39687 0.06495 0.06013 0.0
C122 C 0.44292 0.0415 0.06762 0.0
O123 O 0.43689 0.00027 0.10354 0.0
O124 O 0.40313 0.01301 0.09521 0.0
N125 N 0.42277 0.11184 0.09601 0.0
C126 C 0.43614 0.12119 0.10652 0.0
C127 C 0.42861 0.14145 0.11349 0.0
C128 C 0.40761 0.15207 0.10944 0.0
C129 C 0.39426 0.14225 0.09851 0.0
C130 C 0.40275 0.12216 0.09187 0.0
H131 H 0.45245 0.11329 0.10955 0.0
O132 O 0.41737 0.04452 0.1164 0.0
O133 O 0.41609 0.06325 0.0959 0.0
O134 O 0.46214 0.04803 0.10297 0.0
O135 O 0.46122 0.08268 0.09189 0.0
C136 C 0.37274 0.15146 0.09405 0.0
C137 C 0.36007 0.14041 0.08312 0.0
H138 H 0.34051 0.11412 0.06195 0.0
H139 H 0.35838 0.07864 0.05155 0.0
H140 H 0.43901 0.14894 0.12192 0.0
H141 H 0.40188 0.16772 0.11481 0.0
H142 H 0.36564 0.16688 0.09907 0.0
H143 H 0.34341 0.14749 0.07989 0.0
Mn144 Mn 0.21674 0.8185 0.15104 0.0
Mn145 Mn 0.16551 0.82145 0.16859 0.0
C146 C 0.18627 0.83896 0.14115 0.0
C147 C 0.25414 0.83272 0.1474 0.0
C148 C 0.18126 0.77904 0.15186 0.0
O149 O 0.22486 0.80702 0.17083 0.0
O150 O 0.19087 0.81341 0.18207 0.0
C151 C 0.17564 0.86291 0.18619 0.0
N152 N 0.16179 0.85173 0.17664 0.0
C153 C 0.13468 0.88363 0.17625 0.0
C154 C 0.14857 0.89545 0.18616 0.0
C155 C 0.16919 0.88507 0.1911 0.0
C156 C 0.14207 0.86166 0.17169 0.0
H157 H 0.19147 0.85495 0.19002 0.0
C158 C 0.21226 0.80717 0.18198 0.0
O159 O 0.24872 0.81145 0.14409 0.0
O160 O 0.238 0.84544 0.15311 0.0
N161 N 0.13896 0.82897 0.15721 0.0
C162 C 0.12777 0.81546 0.14746 0.0
C163 C 0.10677 0.82327 0.14149 0.0
C164 C 0.09732 0.8447 0.14576 0.0
C165 C 0.109 0.85818 0.15592 0.0
C166 C 0.12976 0.84941 0.16158 0.0
H167 H 0.13479 0.79884 0.14426 0.0
O168 O 0.20365 0.8323 0.13337 0.0
O169 O 0.18756 0.83421 0.15467 0.0
O170 O 0.20011 0.78771 0.14701 0.0
O171 O 0.16764 0.78993 0.16032 0.0
C172 C 0.101 0.8801 0.16053 0.0
C173 C 0.11391 0.89288 0.17062 0.0
H174 H 0.14364 0.91253 0.18998 0.0
H175 H 0.18004 0.89412 0.19871 0.0
H176 H 0.09785 0.81276 0.13365 0.0
H177 H 0.08112 0.85066 0.14114 0.0
H178 H 0.0851 0.88741 0.15625 0.0
H179 H 0.10774 0.90984 0.17396 0.0
Mn180 Mn 0.42707 0.96034 0.40457 0.0
Mn181 Mn 0.42368 0.90765 0.42042 0.0
C182 C 0.40516 0.93124 0.39428 0.0
C183 C 0.41398 0.99841 0.40198 0.0
C184 C 0.46522 0.92318 0.40299 0.0
O185 O 0.43937 0.96681 0.42441 0.0
O186 O 0.43488 0.93137 0.43416 0.0
C187 C 0.38528 0.91867 0.44027 0.0
N188 N 0.39429 0.90508 0.42977 0.0
C189 C 0.36094 0.87979 0.43029 0.0
C190 C 0.35133 0.89343 0.44117 0.0
C191 C 0.36351 0.91303 0.44613 0.0
C192 C 0.38256 0.88643 0.42476 0.0
H193 H 0.39466 0.93366 0.44416 0.0
C194 C 0.44082 0.9528 0.43488 0.0
O195 O 0.43495 0.99249 0.39832 0.0
O196 O 0.4009 0.98235 0.40747 0.0
N197 N 0.41315 0.88253 0.40872 0.0
C198 C 0.42477 0.87128 0.39813 0.0
C199 C 0.41487 0.85139 0.39191 0.0
C200 C 0.39341 0.84295 0.39687 0.0
C201 C 0.38207 0.85446 0.40804 0.0
C202 C 0.39271 0.87428 0.41375 0.0
H203 H 0.44144 0.87749 0.39441 0.0
O204 O 0.4122 0.94884 0.3868 0.0
O205 O 0.41055 0.93141 0.40772 0.0
O206 O 0.45724 0.94317 0.39961 0.0
O207 O 0.45417 0.90868 0.41078 0.0
C208 C 0.36063 0.84705 0.41373 0.0
C209 C 0.34994 0.85985 0.42473 0.0
H210 H 0.33461 0.88906 0.44577 0.0
H211 H 0.35618 0.92368 0.45449 0.0
H212 H 0.42379 0.84252 0.38335 0.0
H213 H 0.3858 0.82762 0.39204 0.0
H214 H 0.35212 0.83162 0.40964 0.0
H215 H 0.3333 0.85416 0.42888 0.0
Mn216 Mn 0.28058 0.18578 0.64725 0.0
Mn217 Mn 0.33133 0.18725 0.66524 0.0
C218 C 0.31238 0.16632 0.63818 0.0
C219 C 0.24402 0.16931 0.64394 0.0
C220 C 0.31271 0.22759 0.64773 0.0
O221 O 0.27167 0.19842 0.66674 0.0
O222 O 0.30524 0.19278 0.67863 0.0
C223 C 0.3254 0.14517 0.68301 0.0
N224 N 0.338 0.15751 0.67334 0.0
C225 C 0.36798 0.12829 0.67288 0.0
C226 C 0.35541 0.11532 0.68291 0.0
C227 C 0.33398 0.12376 0.68795 0.0
C228 C 0.35851 0.14946 0.66833 0.0
H229 H 0.30894 0.15163 0.6869 0.0
C230 C 0.2837 0.19843 0.67814 0.0
O231 O 0.24839 0.19053 0.64001 0.0
O232 O 0.26072 0.15793 0.6501 0.0
N233 N 0.35832 0.18216 0.65373 0.0
C234 C 0.36788 0.19641 0.64373 0.0
C235 C 0.38931 0.19042 0.63755 0.0
C236 C 0.40081 0.17003 0.64183 0.0
C237 C 0.39072 0.15572 0.6522 0.0
C238 C 0.36943 0.16268 0.65807 0.0
H239 H 0.35928 0.21225 0.64051 0.0
O240 O 0.29477 0.17117 0.63009 0.0
O241 O 0.31049 0.17223 0.65149 0.0
O242 O 0.29552 0.21692 0.6422 0.0
O243 O 0.32623 0.21859 0.65703 0.0
C244 C 0.4008 0.13468 0.65682 0.0
C245 C 0.38938 0.12092 0.6671 0.0
H246 H 0.36196 0.09879 0.68673 0.0
H247 H 0.32413 0.1138 0.69564 0.0
H248 H 0.39699 0.20155 0.62954 0.0
H249 H 0.41735 0.16549 0.63706 0.0
H250 H 0.41717 0.12877 0.65239 0.0
H251 H 0.39714 0.10462 0.67043 0.0
Mn252 Mn 0.06705 0.03589 0.90238 0.0
Mn253 Mn 0.06742 0.08972 0.9168 0.0
C254 C 0.08817 0.06521 0.89168 0.0
C255 C 0.0819 0.9983 0.901 0.0
C256 C 0.02706 0.07066 0.89959 0.0
O257 O 0.0543 0.0304 0.92225 0.0
O258 O 0.05763 0.06654 0.93126 0.0
C259 C 0.1063 0.08295 0.937 0.0
N260 N 0.09656 0.09492 0.92602 0.0
C261 C 0.12843 0.12206 0.92554 0.0
C262 C 0.13877 0.1101 0.93689 0.0
C263 C 0.1277 0.09038 0.9426 0.0
C264 C 0.10721 0.11369 0.92032 0.0
H265 H 0.09777 0.06786 0.94145 0.0
C266 C 0.05239 0.04495 0.93243 0.0
O267 O 0.06084 0.00303 0.89691 0.0
O268 O 0.09407 0.0153 0.90623 0.0
N269 N 0.07649 0.11424 0.90421 0.0
C270 C 0.06436 0.12363 0.89316 0.0
C271 C 0.07318 0.14334 0.88616 0.0
C272 C 0.09411 0.15347 0.89077 0.0
C273 C 0.106 0.14382 0.90237 0.0
C274 C 0.09643 0.1241 0.90888 0.0
H275 H 0.04811 0.1161 0.88969 0.0
O276 O 0.08222 0.04686 0.88452 0.0
O277 O 0.08206 0.06567 0.90499 0.0
O278 O 0.03636 0.05114 0.89653 0.0
O279 O 0.03701 0.08608 0.90727 0.0
C280 C 0.12698 0.15297 0.90773 0.0
C281 C 0.13832 0.14196 0.9192 0.0
H282 H 0.15522 0.11585 0.94129 0.0
H283 H 0.13561 0.08102 0.95133 0.0
H284 H 0.06383 0.15076 0.87727 0.0
H285 H 0.10089 0.16864 0.88533 0.0
H286 H 0.13468 0.16834 0.903 0.0
H287 H 0.15464 0.14896 0.92308 0.0
Mn288 Mn 0.79196 0.81183 0.65753 0.0
Mn289 Mn 0.79955 0.85962 0.67775 0.0
C290 C 0.8178 0.84011 0.65041 0.0
C291 C 0.80127 0.77326 0.65274 0.0
C292 C 0.75722 0.85162 0.65905 0.0
O293 O 0.77801 0.80283 0.67654 0.0
O294 O 0.78777 0.83386 0.68996 0.0
C295 C 0.83787 0.8435 0.69633 0.0
N296 N 0.82946 0.85896 0.68663 0.0
C297 C 0.8654 0.88048 0.68674 0.0
C298 C 0.87438 0.86488 0.69681 0.0
C299 C 0.86055 0.84631 0.70161 0.0
C300 C 0.84258 0.87695 0.68197 0.0
H301 H 0.82736 0.8291 0.69997 0.0
C302 C 0.77942 0.81329 0.68847 0.0
O303 O 0.78144 0.78204 0.64882 0.0
O304 O 0.81552 0.78687 0.65946 0.0
N305 N 0.81134 0.8855 0.66712 0.0
C306 C 0.80068 0.89803 0.65669 0.0
C307 C 0.81252 0.91673 0.65035 0.0
C308 C 0.83515 0.92238 0.65482 0.0
C309 C 0.84571 0.90932 0.66563 0.0
C310 C 0.83298 0.89102 0.67165 0.0
H311 H 0.78335 0.8937 0.65314 0.0
O312 O 0.80958 0.82536 0.64124 0.0
O313 O 0.81085 0.83756 0.66346 0.0
O314 O 0.7643 0.83291 0.65321 0.0
O315 O 0.76847 0.86229 0.66879 0.0
C316 C 0.86857 0.91342 0.67043 0.0
C317 C 0.8784 0.89902 0.68099 0.0
H318 H 0.89194 0.86686 0.70081 0.0
H319 H 0.86741 0.83412 0.70931 0.0
H320 H 0.80427 0.92668 0.64199 0.0
H321 H 0.84432 0.93664 0.64979 0.0
H322 H 0.87886 0.92739 0.66593 0.0
H323 H 0.89611 0.90214 0.68445 0.0
Mn324 Mn 0.93934 0.03645 0.40716 0.0
Mn325 Mn 0.892 0.04386 0.4278 0.0
C326 C 0.91171 0.06366 0.40093 0.0
C327 C 0.9781 0.04558 0.40271 0.0
C328 C 0.89817 0.00308 0.40751 0.0
O329 O 0.94816 0.02057 0.42559 0.0
O330 O 0.91745 0.02984 0.43937 0.0
C331 C 0.91007 0.07954 0.44763 0.0
N332 N 0.89404 0.07274 0.43781 0.0
C333 C 0.87388 0.10934 0.43958 0.0
C334 C 0.89007 0.11667 0.44979 0.0
C335 C 0.90826 0.10171 0.45382 0.0
C336 C 0.87645 0.08697 0.43388 0.0
H337 H 0.92417 0.06817 0.45069 0.0
C338 C 0.93777 0.02107 0.43756 0.0
O339 O 0.96906 0.02632 0.398 0.0
O340 O 0.96465 0.05928 0.40993 0.0
N341 N 0.86634 0.05771 0.41792 0.0
C342 C 0.85303 0.04857 0.40731 0.0
C343 C 0.83453 0.06167 0.40173 0.0
C344 C 0.82986 0.08397 0.40714 0.0
C345 C 0.84367 0.09293 0.41813 0.0
C346 C 0.86173 0.07898 0.42338 0.0
H347 H 0.85659 0.03151 0.40305 0.0
O348 O 0.92619 0.05582 0.39149 0.0
O349 O 0.91416 0.05559 0.41374 0.0
O350 O 0.91742 0.00965 0.40205 0.0
O351 O 0.88799 0.01408 0.41757 0.0
C352 C 0.84054 0.11535 0.42389 0.0
C353 C 0.85563 0.12355 0.4346 0.0
H354 H 0.88885 0.13383 0.4545 0.0
H355 H 0.9209 0.1073 0.46163 0.0
H356 H 0.82398 0.05465 0.39323 0.0
H357 H 0.81575 0.09413 0.40269 0.0
H358 H 0.82678 0.12656 0.42 0.0
H359 H 0.85324 0.14094 0.4388 0.0
Mn360 Mn 0.70804 0.18881 0.15961 0.0
Mn361 Mn 0.70265 0.13994 0.17913 0.0
C362 C 0.6838 0.15958 0.15188 0.0
C363 C 0.69694 0.22715 0.15561 0.0
C364 C 0.74453 0.15057 0.16054 0.0
O365 O 0.72174 0.19758 0.17872 0.0
O366 O 0.71304 0.16581 0.19172 0.0
C367 C 0.66331 0.15368 0.19764 0.0
N368 N 0.67265 0.13885 0.18789 0.0
C369 C 0.63794 0.11541 0.18773 0.0
C370 C 0.62802 0.13034 0.19785 0.0
C371 C 0.64076 0.14957 0.20281 0.0
C372 C 0.66056 0.12029 0.18305 0.0
H373 H 0.67299 0.16857 0.20141 0.0
C374 C 0.72067 0.18669 0.19051 0.0
O375 O 0.71709 0.2195 0.15142 0.0
O376 O 0.68338 0.21254 0.16208 0.0
N377 N 0.69234 0.11372 0.16825 0.0
C378 C 0.70389 0.10178 0.15791 0.0
C379 C 0.69325 0.08243 0.15153 0.0
C380 C 0.67091 0.07548 0.15587 0.0
C381 C 0.65946 0.0879 0.16662 0.0
C382 C 0.67103 0.10691 0.1727 0.0
H383 H 0.72102 0.10705 0.15448 0.0
O384 O 0.69112 0.17534 0.14306 0.0
O385 O 0.69041 0.16185 0.16503 0.0
O386 O 0.73659 0.16912 0.1549 0.0
O387 O 0.73387 0.13917 0.17022 0.0
C388 C 0.63684 0.08244 0.17135 0.0
C389 C 0.62607 0.0962 0.18188 0.0
H390 H 0.61056 0.12732 0.20179 0.0
H391 H 0.63317 0.16124 0.21055 0.0
H392 H 0.70219 0.07295 0.14322 0.0
H393 H 0.66266 0.0607 0.15081 0.0
H394 H 0.62743 0.0679 0.1668 0.0
H395 H 0.60854 0.09204 0.18527 0.0
Mn396 Mn 0.55839 0.96023 0.90803 0.0
Mn397 Mn 0.60681 0.95634 0.92814 0.0
C398 C 0.58816 0.93614 0.90093 0.0
C399 C 0.52031 0.94875 0.90353 0.0
C400 C 0.59616 0.99725 0.9088 0.0
O401 O 0.54877 0.97439 0.92686 0.0
O402 O 0.58046 0.9671 0.94024 0.0
C403 C 0.59307 0.91792 0.94735 0.0
N404 N 0.60806 0.92691 0.93757 0.0
C405 C 0.63242 0.8929 0.93877 0.0
C406 C 0.61733 0.88335 0.94893 0.0
C407 C 0.59755 0.8959 0.95321 0.0
C408 C 0.62716 0.91501 0.93339 0.0
H409 H 0.57779 0.92747 0.95062 0.0
C410 C 0.55945 0.97422 0.93874 0.0
O411 O 0.52802 0.96889 0.89938 0.0
O412 O 0.53472 0.93539 0.91032 0.0
N413 N 0.63347 0.94578 0.91777 0.0
C414 C 0.64534 0.95671 0.90715 0.0
C415 C 0.66508 0.94602 0.90126 0.0
C416 C 0.6725 0.9243 0.90639 0.0
C417 C 0.66013 0.91348 0.9174 0.0
C418 C 0.64067 0.92503 0.92293 0.0
H419 H 0.6397 0.97337 0.90313 0.0
O420 O 0.5726 0.94307 0.89187 0.0
O421 O 0.58544 0.94305 0.914 0.0
O422 O 0.57779 0.98891 0.90321 0.0
O423 O 0.60757 0.98707 0.91866 0.0
C424 C 0.66603 0.89144 0.92289 0.0
C425 C 0.65217 0.88114 0.93355 0.0
H426 H 0.62063 0.86629 0.9534 0.0
H427 H 0.58575 0.88858 0.96099 0.0
H428 H 0.6745 0.95445 0.89273 0.0
H429 H 0.6876 0.916 0.90172 0.0
H430 H 0.681 0.8821 0.91883 0.0
H431 H 0.65668 0.86403 0.93752 0.0
Mn432 Mn 0.78882 0.18895 0.84112 0.0
Mn433 Mn 0.79137 0.14008 0.82137 0.0
C434 C 0.81257 0.15886 0.84815 0.0
C435 C 0.80138 0.22675 0.84529 0.0
C436 C 0.75122 0.15164 0.84115 0.0
O437 O 0.77438 0.19853 0.82239 0.0
O438 O 0.78039 0.16633 0.80923 0.0
C439 C 0.82926 0.15331 0.80164 0.0
N440 N 0.82054 0.13858 0.81165 0.0
C441 C 0.85496 0.11474 0.81075 0.0
C442 C 0.86422 0.12957 0.80035 0.0
C443 C 0.85131 0.14894 0.79579 0.0
C444 C 0.83279 0.11985 0.8161 0.0
H445 H 0.81948 0.16833 0.79817 0.0
C446 C 0.77385 0.18755 0.81062 0.0
O447 O 0.78118 0.21966 0.84973 0.0
O448 O 0.81411 0.21193 0.83838 0.0
N449 N 0.80213 0.11357 0.83181 0.0
C450 C 0.79128 0.10172 0.84247 0.0
C451 C 0.8022 0.08222 0.84851 0.0
C452 C 0.8241 0.07507 0.84352 0.0
C453 C 0.83482 0.0874 0.83245 0.0
C454 C 0.82299 0.10654 0.82673 0.0
H455 H 0.77451 0.10718 0.84641 0.0
O456 O 0.80616 0.17463 0.85721 0.0
O457 O 0.80529 0.16154 0.83516 0.0
O458 O 0.75992 0.17021 0.84631 0.0
O459 O 0.76098 0.13974 0.83133 0.0
C460 C 0.857 0.08174 0.82708 0.0
C461 C 0.86707 0.09541 0.81625 0.0
H462 H 0.88131 0.12637 0.7959 0.0
H463 H 0.85841 0.16054 0.78783 0.0
H464 H 0.79382 0.07281 0.85706 0.0
H465 H 0.83258 0.06019 0.84832 0.0
H466 H 0.86662 0.0671 0.83135 0.0
H467 H 0.88427 0.09107 0.81235 0.0
Mn468 Mn 0.56129 0.04213 0.59125 0.0
Mn469 Mn 0.60972 0.04303 0.57105 0.0
C470 C 0.59115 0.06717 0.59691 0.0
C471 C 0.52334 0.05469 0.59511 0.0
C472 C 0.59905 0.00509 0.59256 0.0
O473 O 0.55159 0.02532 0.57326 0.0
O474 O 0.5834 0.03047 0.5596 0.0
C475 C 0.59586 0.07839 0.54979 0.0
N476 N 0.61081 0.07101 0.56008 0.0
C477 C 0.63443 0.10533 0.55746 0.0
C478 C 0.61938 0.11322 0.54676 0.0
C479 C 0.6 0.0997 0.54293 0.0
C480 C 0.62954 0.08385 0.56383 0.0
H481 H 0.58085 0.06813 0.54688 0.0
C482 C 0.56233 0.02371 0.56144 0.0
O483 O 0.5308 0.03519 0.60041 0.0
O484 O 0.53788 0.06671 0.58754 0.0
N485 N 0.63625 0.05524 0.58085 0.0
C486 C 0.64824 0.04586 0.59196 0.0
C487 C 0.66769 0.05766 0.59742 0.0
C488 C 0.67465 0.07891 0.59139 0.0
C489 C 0.66216 0.08812 0.57989 0.0
C490 C 0.64306 0.07547 0.57481 0.0
H491 H 0.64292 0.0296 0.5967 0.0
O492 O 0.5757 0.06165 0.60639 0.0
O493 O 0.58831 0.05823 0.58433 0.0
O494 O 0.58057 0.01417 0.5976 0.0
O495 O 0.61053 0.01385 0.58222 0.0
C496 C 0.66762 0.1096 0.57348 0.0
C497 C 0.65377 0.1182 0.56227 0.0
H498 H 0.6224 0.12973 0.54153 0.0
H499 H 0.58823 0.10573 0.53474 0.0
H500 H 0.67721 0.05046 0.60632 0.0
H501 H 0.6895 0.08808 0.59574 0.0
H502 H 0.68224 0.1198 0.57723 0.0
H503 H 0.65795 0.13488 0.55756 0.0
Mn504 Mn 0.70734 0.8092 0.33959 0.0
Mn505 Mn 0.69527 0.85719 0.32038 0.0
C506 C 0.68145 0.83643 0.34823 0.0
C507 C 0.69904 0.77049 0.34466 0.0
C508 C 0.74005 0.85076 0.33718 0.0
O509 O 0.71914 0.80102 0.3199 0.0
O510 O 0.70727 0.83241 0.30748 0.0
C511 C 0.65613 0.83909 0.30315 0.0
N512 N 0.66462 0.85493 0.31258 0.0
C513 C 0.62758 0.87436 0.31392 0.0
C514 C 0.61851 0.85839 0.30411 0.0
C515 C 0.63285 0.84065 0.29872 0.0
C516 C 0.65098 0.87208 0.31783 0.0
H517 H 0.66701 0.82529 0.29908 0.0
C518 C 0.71645 0.81209 0.30827 0.0
O519 O 0.71944 0.77916 0.34746 0.0
O520 O 0.68397 0.78408 0.33869 0.0
N521 N 0.68307 0.8822 0.3316 0.0
C522 C 0.69403 0.89524 0.34168 0.0
C523 C 0.68182 0.91321 0.34852 0.0
C524 C 0.65851 0.91762 0.34491 0.0
C525 C 0.64765 0.90407 0.33444 0.0
C526 C 0.66077 0.88656 0.32788 0.0
H527 H 0.71188 0.89186 0.34458 0.0
O528 O 0.69149 0.82192 0.35684 0.0
O529 O 0.68684 0.83438 0.33488 0.0
O530 O 0.73499 0.83107 0.34264 0.0
O531 O 0.72683 0.8614 0.32838 0.0
C532 C 0.62417 0.90693 0.33049 0.0
C533 C 0.61415 0.89209 0.32023 0.0
H534 H 0.6005 0.8594 0.30077 0.0
H535 H 0.62593 0.82815 0.29123 0.0
H536 H 0.6903 0.92354 0.35661 0.0
H537 H 0.64906 0.9313 0.35033 0.0
H538 H 0.61358 0.92026 0.33543 0.0
H539 H 0.59599 0.89424 0.31744 0.0
Mn540 Mn 0.93845 0.95968 0.09144 0.0
Mn541 Mn 0.88928 0.95679 0.07201 0.0
C542 C 0.90949 0.93409 0.09789 0.0
C543 C 0.97683 0.94823 0.09489 0.0
C544 C 0.89988 0.99586 0.09278 0.0
O545 O 0.94699 0.97601 0.07306 0.0
O546 O 0.91481 0.9695 0.05996 0.0
C547 C 0.90314 0.92088 0.0511 0.0
N548 N 0.88845 0.92833 0.06152 0.0
C549 C 0.86569 0.89327 0.05987 0.0
C550 C 0.88047 0.88531 0.04905 0.0
C551 C 0.89929 0.89917 0.04467 0.0
C552 C 0.87026 0.91515 0.0658 0.0
H553 H 0.91773 0.93141 0.04776 0.0
C554 C 0.93577 0.97685 0.06138 0.0
O555 O 0.9691 0.96775 0.10002 0.0
O556 O 0.96231 0.93556 0.08772 0.0
N557 N 0.86348 0.94436 0.08243 0.0
C558 C 0.85167 0.95394 0.09355 0.0
C559 C 0.83277 0.94191 0.09951 0.0
C560 C 0.82616 0.9202 0.09396 0.0
C561 C 0.83844 0.91077 0.08244 0.0
C562 C 0.85698 0.92368 0.07684 0.0
H563 H 0.85673 0.97056 0.09791 0.0
O564 O 0.92515 0.94038 0.10706 0.0
O565 O 0.9116 0.94266 0.08517 0.0
O566 O 0.91874 0.98739 0.09767 0.0
O567 O 0.8882 0.98643 0.08275 0.0
C568 C 0.83331 0.88887 0.07649 0.0
C569 C 0.84692 0.88012 0.06521 0.0
H570 H 0.87768 0.86849 0.04414 0.0
H571 H 0.91086 0.89309 0.03639 0.0
H572 H 0.82341 0.94928 0.10841 0.0
H573 H 0.81174 0.91084 0.09869 0.0
H574 H 0.81913 0.87846 0.08064 0.0
H575 H 0.843 0.86312 0.06085 0.0
Mn576 Mn 0.71651 0.6834 0.84759 0.0
Mn577 Mn 0.6638 0.68705 0.83201 0.0
C578 C 0.68527 0.66399 0.85745 0.0
C579 C 0.7528 0.66562 0.84912 0.0
C580 C 0.68542 0.72596 0.84937 0.0
O581 O 0.72359 0.69657 0.82792 0.0
O582 O 0.68828 0.69333 0.81769 0.0
C583 C 0.66669 0.64645 0.81275 0.0
N584 N 0.65568 0.65806 0.82342 0.0
C585 C 0.62535 0.62924 0.82445 0.0
C586 C 0.6363 0.61701 0.81342 0.0
C587 C 0.65712 0.62561 0.80759 0.0
C588 C 0.63581 0.64981 0.82922 0.0
H589 H 0.68264 0.65309 0.80821 0.0
C590 C 0.71005 0.69804 0.81719 0.0
O591 O 0.7496 0.68677 0.85359 0.0
O592 O 0.73509 0.65515 0.84344 0.0
N593 N 0.63834 0.68136 0.84465 0.0
C594 C 0.63041 0.69484 0.85554 0.0
C595 C 0.60996 0.68841 0.86271 0.0
C596 C 0.59769 0.66843 0.85848 0.0
C597 C 0.60599 0.65506 0.84709 0.0
C598 C 0.6265 0.66227 0.84037 0.0
H599 H 0.63962 0.71034 0.85874 0.0
O600 O 0.70367 0.66818 0.86501 0.0
O601 O 0.68597 0.67077 0.84428 0.0
O602 O 0.70312 0.71475 0.85381 0.0
O603 O 0.67041 0.71763 0.84074 0.0
C604 C 0.5948 0.63478 0.8422 0.0
C605 C 0.60456 0.62178 0.83096 0.0
H606 H 0.62894 0.60096 0.80939 0.0
H607 H 0.66571 0.61623 0.7991 0.0
H608 H 0.60363 0.69887 0.87146 0.0
H609 H 0.58196 0.66349 0.86406 0.0
H610 H 0.57884 0.62884 0.84714 0.0
H611 H 0.59599 0.60599 0.82745 0.0
Mn612 Mn 0.5683 0.46411 0.09548 0.0
Mn613 Mn 0.57053 0.41084 0.08022 0.0
C614 C 0.58899 0.43473 0.10639 0.0
C615 C 0.58245 0.50186 0.09772 0.0
C616 C 0.52906 0.42814 0.09711 0.0
O617 O 0.55666 0.4703 0.07546 0.0
O618 O 0.56067 0.43454 0.0661 0.0
C619 C 0.61014 0.42011 0.06092 0.0
N620 N 0.60015 0.40699 0.07132 0.0
C621 C 0.63268 0.38064 0.0716 0.0
C622 C 0.64328 0.39379 0.06083 0.0
C623 C 0.632 0.41367 0.05552 0.0
C624 C 0.61098 0.38802 0.07663 0.0
H625 H 0.60149 0.43537 0.0568 0.0
C626 C 0.55525 0.45608 0.0651 0.0
O627 O 0.56122 0.49668 0.10125 0.0
O628 O 0.59519 0.48525 0.09254 0.0
N629 N 0.57966 0.3856 0.09225 0.0
C630 C 0.56716 0.37494 0.1027 0.0
C631 C 0.57587 0.35459 0.10903 0.0
C632 C 0.59713 0.34521 0.1044 0.0
C633 C 0.60955 0.35631 0.09352 0.0
C634 C 0.5999 0.37642 0.08752 0.0
H635 H 0.55065 0.38187 0.10616 0.0
O636 O 0.58236 0.45285 0.11352 0.0
O637 O 0.584 0.43454 0.09288 0.0
O638 O 0.53754 0.44797 0.10039 0.0
O639 O 0.53981 0.4132 0.08947 0.0
C640 C 0.63122 0.34834 0.08848 0.0
C641 C 0.64285 0.36059 0.07759 0.0
H642 H 0.66011 0.38884 0.05661 0.0
H643 H 0.6401 0.42395 0.04725 0.0
H644 H 0.56618 0.3461 0.11742 0.0
H645 H 0.60379 0.3295 0.10929 0.0
H646 H 0.6392 0.33295 0.093 0.0
H647 H 0.65962 0.35443 0.0739 0.0
Mn648 Mn 0.78283 0.31838 0.34941 0.0
Mn649 Mn 0.83505 0.32089 0.33292 0.0
C650 C 0.8123 0.34078 0.35893 0.0
C651 C 0.74492 0.33175 0.35231 0.0
C652 C 0.81998 0.28027 0.35128 0.0
O653 O 0.77566 0.30518 0.32985 0.0
O654 O 0.81087 0.30914 0.3197 0.0
C655 C 0.82356 0.35832 0.31248 0.0
N656 N 0.83743 0.34979 0.323 0.0
C657 C 0.86296 0.38287 0.32146 0.0
C658 C 0.84902 0.39198 0.31057 0.0
C659 C 0.82916 0.37971 0.30612 0.0
C660 C 0.85633 0.36164 0.32753 0.0
H661 H 0.80838 0.34885 0.30897 0.0
C662 C 0.7894 0.30325 0.31927 0.0
O663 O 0.75089 0.31093 0.35625 0.0
O664 O 0.7608 0.34448 0.34633 0.0
N665 N 0.86056 0.3319 0.34413 0.0
C666 C 0.8721 0.32077 0.3548 0.0
C667 C 0.89229 0.33083 0.36055 0.0
C668 C 0.90073 0.35193 0.35504 0.0
C669 C 0.8889 0.36275 0.3438 0.0
C670 C 0.86878 0.35199 0.33858 0.0
H671 H 0.8659 0.30436 0.35893 0.0
O672 O 0.79498 0.33409 0.36676 0.0
O673 O 0.81167 0.33469 0.3456 0.0
O674 O 0.80008 0.2884 0.3547 0.0
O675 O 0.83424 0.29092 0.34314 0.0
C676 C 0.89631 0.38376 0.33755 0.0
C677 C 0.8832 0.39396 0.32651 0.0
H678 H 0.85337 0.4084 0.30557 0.0
H679 H 0.81828 0.38666 0.29774 0.0
H680 H 0.90139 0.3223 0.36916 0.0
H681 H 0.9163 0.35965 0.3595 0.0
H682 H 0.91198 0.39234 0.34124 0.0
H683 H 0.8889 0.4103 0.32194 0.0
Mn684 Mn 0.93265 0.53712 0.59458 0.0
Mn685 Mn 0.93516 0.58973 0.5787 0.0
C686 C 0.9127 0.5681 0.60429 0.0
C687 C 0.91554 0.50058 0.59665 0.0
C688 C 0.9744 0.56957 0.59639 0.0
O689 O 0.94585 0.52985 0.57498 0.0
O690 O 0.94294 0.56515 0.5647 0.0
C691 C 0.89532 0.58466 0.55902 0.0
N692 N 0.90616 0.59646 0.56968 0.0
C693 C 0.87612 0.62561 0.57006 0.0
C694 C 0.86466 0.61384 0.55903 0.0
C695 C 0.87426 0.59322 0.55354 0.0
C696 C 0.89695 0.61615 0.57516 0.0
H697 H 0.90272 0.56886 0.55475 0.0
C698 C 0.94784 0.54341 0.56429 0.0
O699 O 0.93672 0.50427 0.60092 0.0
O700 O 0.90472 0.51787 0.59074 0.0
N701 N 0.92811 0.61536 0.59094 0.0
C702 C 0.941 0.62422 0.60183 0.0
C703 C 0.93358 0.64464 0.60867 0.0
C704 C 0.91324 0.65594 0.6041 0.0
C705 C 0.90051 0.64673 0.5927 0.0
C706 C 0.90871 0.6263 0.58632 0.0
H707 H 0.95678 0.61575 0.60529 0.0
O708 O 0.9174 0.54993 0.61195 0.0
O709 O 0.9193 0.56736 0.59108 0.0
O710 O 0.9638 0.55131 0.60057 0.0
O711 O 0.96561 0.58451 0.58789 0.0
C712 C 0.87994 0.65694 0.58746 0.0
C713 C 0.86763 0.64628 0.57624 0.0
H714 H 0.84845 0.62042 0.55475 0.0
H715 H 0.86548 0.584 0.54506 0.0
H716 H 0.94355 0.65168 0.61743 0.0
H717 H 0.90753 0.67164 0.60943 0.0
H718 H 0.87328 0.67284 0.59212 0.0
H719 H 0.85163 0.65409 0.57247 0.0
Mn720 Mn 0.71604 0.32086 0.65199 0.0
Mn721 Mn 0.66244 0.31996 0.66679 0.0
C722 C 0.68585 0.34043 0.64111 0.0
C723 C 0.7528 0.33758 0.65012 0.0
C724 C 0.68218 0.27994 0.64957 0.0
O725 O 0.72242 0.30886 0.67192 0.0
O726 O 0.68629 0.31086 0.68101 0.0
C727 C 0.66914 0.35931 0.68667 0.0
N728 N 0.65687 0.34906 0.67599 0.0
C729 C 0.62911 0.38041 0.67567 0.0
C730 C 0.64137 0.39126 0.68673 0.0
C731 C 0.66152 0.38069 0.69221 0.0
C732 C 0.63762 0.35919 0.67053 0.0
H733 H 0.68461 0.35122 0.69092 0.0
C734 C 0.70805 0.30646 0.68214 0.0
O735 O 0.74917 0.31615 0.6463 0.0
O736 O 0.73533 0.34885 0.65548 0.0
N737 N 0.63713 0.32824 0.65459 0.0
C738 C 0.62747 0.31564 0.64382 0.0
C739 C 0.60707 0.3237 0.63724 0.0
C740 C 0.59662 0.34442 0.64193 0.0
C741 C 0.6067 0.35694 0.65313 0.0
C742 C 0.62692 0.34794 0.65936 0.0
H743 H 0.63526 0.29956 0.64028 0.0
O744 O 0.70438 0.33494 0.63402 0.0
O745 O 0.68569 0.33493 0.65454 0.0
O746 O 0.70168 0.28942 0.64654 0.0
O747 O 0.66661 0.28974 0.65721 0.0
C748 C 0.59762 0.37811 0.65827 0.0
C749 C 0.6089 0.38991 0.66947 0.0
H750 H 0.63554 0.40773 0.69104 0.0
H751 H 0.67112 0.389 0.70071 0.0
H752 H 0.59937 0.31393 0.62861 0.0
H753 H 0.58087 0.35057 0.63685 0.0
H754 H 0.58211 0.38558 0.65358 0.0
H755 H 0.6019 0.40629 0.67323 0.0
Mn756 Mn 0.93272 0.46511 0.9036 0.0
Mn757 Mn 0.93191 0.41374 0.92105 0.0
C758 C 0.91311 0.43398 0.89384 0.0
C759 C 0.91647 0.50179 0.90022 0.0
C760 C 0.97333 0.4309 0.90386 0.0
O761 O 0.94437 0.47359 0.92329 0.0
O762 O 0.93952 0.4393 0.93448 0.0
C763 C 0.89069 0.42255 0.93912 0.0
N764 N 0.90197 0.4091 0.9294 0.0
C765 C 0.87069 0.38127 0.92913 0.0
C766 C 0.85879 0.39473 0.93921 0.0
C767 C 0.8688 0.41551 0.94419 0.0
C768 C 0.8924 0.38922 0.92443 0.0
H769 H 0.89834 0.43853 0.94296 0.0
C770 C 0.94491 0.46092 0.9344 0.0
O771 O 0.93791 0.49757 0.89663 0.0
O772 O 0.90492 0.48497 0.90609 0.0
N773 N 0.92484 0.38704 0.90968 0.0
C774 C 0.93839 0.37629 0.89976 0.0
C775 C 0.9309 0.35522 0.89373 0.0
C776 C 0.90976 0.34526 0.8981 0.0
C777 C 0.89625 0.35648 0.90844 0.0
C778 C 0.90469 0.37733 0.91416 0.0
H779 H 0.95478 0.38372 0.89647 0.0
O780 O 0.91895 0.45161 0.88603 0.0
O781 O 0.91817 0.43539 0.9073 0.0
O782 O 0.96404 0.44962 0.8992 0.0
O783 O 0.96306 0.41692 0.91239 0.0
C784 C 0.87461 0.34793 0.91317 0.0
C785 C 0.86178 0.36038 0.92345 0.0
H786 H 0.84191 0.38935 0.94315 0.0
H787 H 0.85967 0.42605 0.95192 0.0
H788 H 0.94144 0.34665 0.88576 0.0
H789 H 0.90404 0.32901 0.89343 0.0
H790 H 0.86756 0.33194 0.90886 0.0
H791 H 0.84504 0.35378 0.92689 0.0
Mn792 Mn 0.77885 0.68081 0.14929 0.0
Mn793 Mn 0.83015 0.67944 0.16686 0.0
C794 C 0.80937 0.65954 0.14007 0.0
C795 C 0.74145 0.66634 0.14595 0.0
C796 C 0.81441 0.72029 0.14875 0.0
O797 O 0.7706 0.69375 0.16873 0.0
O798 O 0.80477 0.68878 0.18003 0.0
C799 C 0.81985 0.63978 0.18593 0.0
N800 N 0.83375 0.64997 0.176 0.0
C801 C 0.86078 0.61802 0.17679 0.0
C802 C 0.84684 0.60723 0.18711 0.0
C803 C 0.82624 0.61812 0.19165 0.0
C804 C 0.85346 0.63954 0.17143 0.0
H805 H 0.80402 0.64812 0.18944 0.0
C806 C 0.78328 0.69469 0.17983 0.0
O807 O 0.74692 0.68734 0.14209 0.0
O808 O 0.75753 0.65405 0.15206 0.0
N809 N 0.85668 0.67073 0.15578 0.0
C810 C 0.8679 0.6832 0.14554 0.0
C811 C 0.88888 0.67476 0.13988 0.0
C812 C 0.89828 0.65378 0.14494 0.0
C813 C 0.88656 0.64137 0.15558 0.0
C814 C 0.86583 0.65074 0.16091 0.0
H815 H 0.86091 0.69947 0.14171 0.0
O816 O 0.79205 0.66564 0.13207 0.0
O817 O 0.80804 0.6654 0.15342 0.0
O818 O 0.79542 0.71128 0.14436 0.0
O819 O 0.82816 0.71013 0.15745 0.0
C820 C 0.8945 0.61992 0.16099 0.0
C821 C 0.88154 0.60819 0.17153 0.0
H822 H 0.85172 0.59054 0.19155 0.0
H823 H 0.81534 0.60986 0.19956 0.0
H824 H 0.89782 0.68443 0.13166 0.0
H825 H 0.91447 0.64733 0.14056 0.0
H826 H 0.91038 0.61216 0.157 0.0
H827 H 0.88766 0.59158 0.17549 0.0
Mn828 Mn 0.57197 0.53257 0.40067 0.0
Mn829 Mn 0.57492 0.5868 0.41456 0.0
C830 C 0.59499 0.5602 0.38975 0.0
C831 C 0.58484 0.49421 0.39975 0.0
C832 C 0.53408 0.56947 0.39708 0.0
O833 O 0.5585 0.52839 0.42045 0.0
O834 O 0.56362 0.56449 0.42917 0.0
C835 C 0.61293 0.57887 0.43521 0.0
N836 N 0.60388 0.59113 0.42414 0.0
C837 C 0.63626 0.61768 0.42424 0.0
C838 C 0.6459 0.60541 0.4357 0.0
C839 C 0.63423 0.58586 0.44117 0.0
C840 C 0.61504 0.60985 0.41872 0.0
H841 H 0.60393 0.5639 0.43946 0.0
C842 C 0.55717 0.54326 0.43048 0.0
O843 O 0.56412 0.49992 0.39549 0.0
O844 O 0.59773 0.51067 0.40498 0.0
N845 N 0.58539 0.61066 0.4019 0.0
C846 C 0.5744 0.61974 0.39032 0.0
C847 C 0.58401 0.63917 0.38342 0.0
C848 C 0.60458 0.64927 0.38861 0.0
C849 C 0.61547 0.63974 0.4006 0.0
C850 C 0.60504 0.62043 0.40708 0.0
H851 H 0.55843 0.61222 0.38638 0.0
O852 O 0.58803 0.54195 0.38286 0.0
O853 O 0.58869 0.56165 0.40304 0.0
O854 O 0.54221 0.54931 0.39431 0.0
O855 O 0.54477 0.58439 0.40473 0.0
C856 C 0.63657 0.64828 0.40618 0.0
C857 C 0.64702 0.63718 0.41795 0.0
H858 H 0.66232 0.61074 0.44032 0.0
H859 H 0.6416 0.57626 0.44998 0.0
H860 H 0.57555 0.64638 0.37413 0.0
H861 H 0.612 0.66419 0.38321 0.0
H862 H 0.64513 0.66308 0.40133 0.0
H863 H 0.66343 0.64367 0.422 0.0
Mn864 Mn 0.29058 0.30855 0.16005 0.0
Mn865 Mn 0.29616 0.35844 0.17848 0.0
C866 C 0.31654 0.33641 0.15241 0.0
C867 C 0.30085 0.26969 0.15727 0.0
C868 C 0.25521 0.34767 0.15908 0.0
O869 O 0.27495 0.30162 0.17893 0.0
O870 O 0.2846 0.33363 0.19148 0.0
C871 C 0.33411 0.34531 0.19819 0.0
N872 N 0.32565 0.35959 0.18785 0.0
C873 C 0.36088 0.38226 0.18779 0.0
C874 C 0.36986 0.36795 0.19854 0.0
C875 C 0.35643 0.34937 0.20374 0.0
C876 C 0.33843 0.37752 0.18277 0.0
H877 H 0.32395 0.33088 0.20212 0.0
C878 C 0.27605 0.31306 0.19053 0.0
O879 O 0.28128 0.27761 0.15232 0.0
O880 O 0.31423 0.28429 0.16388 0.0
N881 N 0.3077 0.38355 0.16708 0.0
C882 C 0.29714 0.39475 0.15606 0.0
C883 C 0.30867 0.41323 0.14929 0.0
C884 C 0.33088 0.42005 0.15393 0.0
C885 C 0.34132 0.40838 0.16535 0.0
C886 C 0.3289 0.39024 0.17179 0.0
H887 H 0.28013 0.38956 0.15239 0.0
O888 O 0.30938 0.32037 0.14374 0.0
O889 O 0.30867 0.33523 0.16533 0.0
O890 O 0.26315 0.32871 0.15399 0.0
O891 O 0.26544 0.35926 0.16887 0.0
C892 C 0.36378 0.41371 0.1704 0.0
C893 C 0.37355 0.40067 0.18162 0.0
H894 H 0.38716 0.37088 0.20276 0.0
H895 H 0.36332 0.33813 0.21195 0.0
H896 H 0.30052 0.42212 0.14045 0.0
H897 H 0.33983 0.43413 0.14857 0.0
H898 H 0.37383 0.42759 0.1656 0.0
H899 H 0.39097 0.40471 0.18526 0.0
Mn900 Mn 0.44038 0.53823 0.90569 0.0
Mn901 Mn 0.39161 0.54277 0.92541 0.0
C902 C 0.41143 0.56329 0.89859 0.0
C903 C 0.47883 0.54904 0.90175 0.0
C904 C 0.40167 0.50219 0.90568 0.0
O905 O 0.44913 0.52322 0.92442 0.0
O906 O 0.41741 0.5311 0.93764 0.0
C907 C 0.40578 0.58034 0.94513 0.0
N908 N 0.39082 0.57196 0.93513 0.0
C909 C 0.36722 0.60649 0.93647 0.0
C910 C 0.38228 0.61541 0.94686 0.0
C911 C 0.40166 0.60229 0.95118 0.0
C912 C 0.37211 0.58443 0.9309 0.0
H913 H 0.42075 0.57035 0.94843 0.0
C914 C 0.43825 0.52346 0.93623 0.0
O915 O 0.47083 0.52922 0.89723 0.0
O916 O 0.4645 0.56243 0.90857 0.0
N917 N 0.36548 0.55424 0.91491 0.0
C918 C 0.35364 0.5439 0.90406 0.0
C919 C 0.33431 0.55522 0.8981 0.0
C920 C 0.32726 0.57696 0.9034 0.0
C921 C 0.33959 0.58717 0.91464 0.0
C922 C 0.35864 0.57501 0.92022 0.0
H923 H 0.35899 0.52723 0.89991 0.0
O924 O 0.42706 0.55629 0.8896 0.0
O925 O 0.41363 0.55589 0.9116 0.0
O926 O 0.42036 0.51023 0.90029 0.0
O927 O 0.39037 0.51233 0.91561 0.0
C928 C 0.33404 0.60917 0.92032 0.0
C929 C 0.34786 0.61884 0.93121 0.0
H930 H 0.37926 0.63241 0.95149 0.0
H931 H 0.41343 0.60911 0.95914 0.0
H932 H 0.32492 0.54725 0.8894 0.0
H933 H 0.31247 0.58574 0.89868 0.0
H934 H 0.31937 0.61895 0.91625 0.0
H935 H 0.34364 0.63593 0.93533 0.0
Mn936 Mn 0.21004 0.68907 0.66128 0.0
Mn937 Mn 0.20312 0.6387 0.67918 0.0
C938 C 0.18509 0.66118 0.65252 0.0
C939 C 0.20057 0.72802 0.65795 0.0
C940 C 0.24549 0.64981 0.6611 0.0
O941 O 0.22358 0.69594 0.68073 0.0
O942 O 0.21386 0.66328 0.6926 0.0
C943 C 0.16397 0.65162 0.69806 0.0
N944 N 0.17312 0.6374 0.68792 0.0
C945 C 0.13844 0.61392 0.68752 0.0
C946 C 0.12874 0.62819 0.69806 0.0
C947 C 0.14154 0.64715 0.70332 0.0
C948 C 0.16094 0.61912 0.68276 0.0
H949 H 0.17369 0.6663 0.70207 0.0
C950 C 0.22197 0.68406 0.69214 0.0
O951 O 0.22058 0.71976 0.65401 0.0
O952 O 0.18615 0.71367 0.66397 0.0
N953 N 0.19232 0.61366 0.66748 0.0
C954 C 0.20343 0.60271 0.65656 0.0
C955 C 0.19251 0.58398 0.64967 0.0
C956 C 0.17038 0.5766 0.65413 0.0
C957 C 0.15936 0.58802 0.66545 0.0
C958 C 0.17114 0.60651 0.67195 0.0
H959 H 0.22043 0.6083 0.65307 0.0
O960 O 0.19316 0.67736 0.64425 0.0
O961 O 0.19142 0.66218 0.66579 0.0
O962 O 0.23807 0.66909 0.65622 0.0
O963 O 0.23443 0.63778 0.67031 0.0
C964 C 0.13695 0.5821 0.67032 0.0
C965 C 0.12647 0.59507 0.68133 0.0
H966 H 0.11138 0.6249 0.70208 0.0
H967 H 0.13411 0.65834 0.71138 0.0
H968 H 0.20111 0.5753 0.64092 0.0
H969 H 0.16193 0.56228 0.64871 0.0
H970 H 0.12747 0.56782 0.66554 0.0
H971 H 0.10907 0.59061 0.68481 0.0
Mn972 Mn 0.05998 0.45495 0.40634 0.0
Mn973 Mn 0.10865 0.4461 0.42558 0.0
C974 C 0.0867 0.42771 0.39892 0.0
C975 C 0.02069 0.4473 0.40275 0.0
C976 C 0.10132 0.48793 0.40637 0.0
O977 O 0.05287 0.47013 0.4253 0.0
O978 O 0.08413 0.45931 0.43818 0.0
C979 C 0.09202 0.40903 0.44493 0.0
N980 N 0.10731 0.41654 0.43486 0.0
C981 C 0.12757 0.37989 0.43512 0.0
C982 C 0.11214 0.37182 0.44557 0.0
C983 C 0.09427 0.38645 0.45047 0.0
C984 C 0.12458 0.40262 0.43007 0.0
H985 H 0.07817 0.42017 0.44866 0.0
C986 C 0.06393 0.46862 0.43702 0.0
O987 O 0.03012 0.46649 0.39825 0.0
O988 O 0.03412 0.43266 0.40929 0.0
N989 N 0.13351 0.43299 0.41464 0.0
C990 C 0.14609 0.44292 0.40396 0.0
C991 C 0.16421 0.43028 0.39757 0.0
C992 C 0.16926 0.40763 0.40225 0.0
C993 C 0.15622 0.39785 0.41334 0.0
C994 C 0.13852 0.41136 0.4194 0.0
H995 H 0.14227 0.46029 0.40027 0.0
O996 O 0.07159 0.43606 0.39002 0.0
O997 O 0.08532 0.43522 0.41192 0.0
O998 O 0.08202 0.4814 0.40102 0.0
O999 O 0.11199 0.47674 0.41614 0.0
C1000 C 0.15977 0.37506 0.41841 0.0
C1001 C 0.14546 0.36608 0.42929 0.0
H1002 H 0.11371 0.35436 0.44979 0.0
H1003 H 0.08222 0.38031 0.45847 0.0
H1004 H 0.17417 0.43794 0.389 0.0
H1005 H 0.18306 0.39783 0.39718 0.0
H1006 H 0.17325 0.36416 0.41388 0.0
H1007 H 0.14815 0.34842 0.43297 0.0
Mn1008 Mn 0.29039 0.68774 0.3393 0.0
Mn1009 Mn 0.29871 0.63917 0.31988 0.0
C1010 C 0.31816 0.66111 0.34623 0.0
C1011 C 0.29801 0.72701 0.34305 0.0
C1012 C 0.25757 0.64634 0.3397 0.0
O1013 O 0.27426 0.69481 0.32058 0.0
O1014 O 0.28531 0.66385 0.30749 0.0
C1015 C 0.33529 0.65577 0.30017 0.0
N1016 N 0.32797 0.6404 0.31025 0.0
C1017 C 0.36443 0.61981 0.30941 0.0
C1018 C 0.37225 0.63527 0.29891 0.0
C1019 C 0.35763 0.65336 0.2943 0.0
C1020 C 0.34191 0.62295 0.31477 0.0
H1021 H 0.3242 0.66982 0.29668 0.0
C1022 C 0.27574 0.68391 0.3088 0.0
O1023 O 0.27901 0.71741 0.34771 0.0
O1024 O 0.3124 0.71382 0.33613 0.0
N1025 N 0.31209 0.61424 0.33065 0.0
C1026 C 0.30254 0.6018 0.34153 0.0
C1027 C 0.31532 0.58362 0.34774 0.0
C1028 C 0.33771 0.57836 0.3427 0.0
C1029 C 0.3471 0.59128 0.33143 0.0
C1030 C 0.33347 0.60906 0.32556 0.0
H1031 H 0.28538 0.60579 0.3455 0.0
O1032 O 0.31008 0.67612 0.35529 0.0
O1033 O 0.31005 0.66252 0.33338 0.0
O1034 O 0.26434 0.66559 0.34498 0.0
O1035 O 0.26833 0.6358 0.3297 0.0
C1036 C 0.36965 0.58754 0.32601 0.0
C1037 C 0.37831 0.60179 0.31501 0.0
H1038 H 0.38954 0.6336 0.29445 0.0
H1039 H 0.36361 0.66547 0.28628 0.0
H1040 H 0.30796 0.57377 0.35645 0.0
H1041 H 0.34761 0.5645 0.34763 0.0
H1042 H 0.38062 0.57398 0.33038 0.0
H1043 H 0.3958 0.59898 0.31108 0.0
Mn1044 Mn 0.05818 0.53834 0.0938 0.0
Mn1045 Mn 0.10758 0.54557 0.07512 0.0
C1046 C 0.08583 0.56435 0.1017 0.0
C1047 C 0.01925 0.54819 0.09686 0.0
C1048 C 0.09761 0.50341 0.09369 0.0
O1049 O 0.05119 0.52347 0.07467 0.0
O1050 O 0.08263 0.53468 0.06206 0.0
C1051 C 0.09384 0.58469 0.05644 0.0
N1052 N 0.10836 0.57567 0.06648 0.0
C1053 C 0.13077 0.61104 0.06725 0.0
C1054 C 0.1162 0.62061 0.05682 0.0
C1055 C 0.09763 0.60739 0.05142 0.0
C1056 C 0.12628 0.58824 0.07175 0.0
H1057 H 0.07942 0.57467 0.05236 0.0
C1058 C 0.0623 0.52559 0.06299 0.0
O1059 O 0.02734 0.52848 0.10152 0.0
O1060 O 0.03373 0.56191 0.09042 0.0
N1061 N 0.13279 0.55655 0.08664 0.0
C1062 C 0.14427 0.54537 0.09732 0.0
C1063 C 0.1628 0.55657 0.10424 0.0
C1064 C 0.16938 0.57912 0.1001 0.0
C1065 C 0.15742 0.59022 0.08902 0.0
C1066 C 0.13925 0.5781 0.08241 0.0
H1067 H 0.13928 0.52808 0.1006 0.0
O1068 O 0.07003 0.55664 0.11036 0.0
O1069 O 0.08452 0.55698 0.08868 0.0
O1070 O 0.07884 0.51091 0.09929 0.0
O1071 O 0.10873 0.51426 0.08395 0.0
C1072 C 0.1625 0.61304 0.08449 0.0
C1073 C 0.14919 0.62343 0.07361 0.0
H1074 H 0.11893 0.63819 0.05302 0.0
H1075 H 0.0862 0.61472 0.04345 0.0
H1076 H 0.17191 0.5479 0.1128 0.0
H1077 H 0.1835 0.58781 0.10557 0.0
H1078 H 0.17638 0.62287 0.08946 0.0
H1079 H 0.15303 0.64111 0.07037 0.0
Mn1080 Mn 0.20942 0.30702 0.83908 0.0
Mn1081 Mn 0.20059 0.35697 0.82111 0.0
C1082 C 0.18343 0.33408 0.84774 0.0
C1083 C 0.20086 0.26782 0.84231 0.0
C1084 C 0.2435 0.34745 0.83908 0.0
O1085 O 0.22326 0.3006 0.81961 0.0
O1086 O 0.212 0.33271 0.80768 0.0
C1087 C 0.16156 0.34242 0.80259 0.0
N1088 N 0.17033 0.35701 0.81266 0.0
C1089 C 0.13435 0.37836 0.81382 0.0
C1090 C 0.12501 0.36371 0.80336 0.0
C1091 C 0.13867 0.34563 0.79775 0.0
C1092 C 0.15734 0.37444 0.81815 0.0
H1093 H 0.17191 0.32837 0.79833 0.0
C1094 C 0.221 0.3123 0.80816 0.0
O1095 O 0.22064 0.2765 0.84638 0.0
O1096 O 0.18624 0.28188 0.83625 0.0
N1097 N 0.18908 0.38162 0.83288 0.0
C1098 C 0.20019 0.39334 0.84349 0.0
C1099 C 0.18862 0.4115 0.85055 0.0
C1100 C 0.16581 0.41748 0.84661 0.0
C1101 C 0.15482 0.40531 0.83558 0.0
C1102 C 0.1673 0.38753 0.82882 0.0
H1103 H 0.21768 0.38881 0.84661 0.0
O1104 O 0.19194 0.31825 0.8561 0.0
O1105 O 0.19003 0.33319 0.83455 0.0
O1106 O 0.23675 0.32802 0.84413 0.0
O1107 O 0.23201 0.35895 0.82979 0.0
C1108 C 0.13179 0.40982 0.83123 0.0
C1109 C 0.12157 0.39635 0.82036 0.0
H1110 H 0.1073 0.36601 0.79968 0.0
H1111 H 0.13153 0.33414 0.78974 0.0
H1112 H 0.19722 0.42079 0.85907 0.0
H1113 H 0.15685 0.43131 0.8522 0.0
H1114 H 0.12168 0.42338 0.83631 0.0
H1115 H 0.10374 0.39976 0.81725 0.0
Mn1116 Mn 0.4408 0.4631 0.58974 0.0
Mn1117 Mn 0.3913 0.46018 0.57061 0.0
C1118 C 0.41164 0.43834 0.59691 0.0
C1119 C 0.47914 0.45145 0.593 0.0
C1120 C 0.40282 0.49981 0.59075 0.0
O1121 O 0.44913 0.47877 0.57112 0.0
O1122 O 0.41692 0.47173 0.55818 0.0
C1123 C 0.40398 0.42298 0.55027 0.0
N1124 N 0.38956 0.43133 0.56056 0.0
C1125 C 0.36527 0.39728 0.55918 0.0
C1126 C 0.37977 0.38839 0.54849 0.0
C1127 C 0.39923 0.40128 0.54404 0.0
C1128 C 0.37076 0.41909 0.56491 0.0
H1129 H 0.41902 0.43278 0.54687 0.0
C1130 C 0.43789 0.47908 0.55944 0.0
O1131 O 0.47168 0.47119 0.59795 0.0
O1132 O 0.46436 0.43863 0.58611 0.0
N1133 N 0.36528 0.44892 0.58131 0.0
C1134 C 0.354 0.45918 0.59241 0.0
C1135 C 0.33466 0.44806 0.5985 0.0
C1136 C 0.32703 0.4266 0.59308 0.0
C1137 C 0.33878 0.41648 0.58158 0.0
C1138 C 0.35785 0.42845 0.57587 0.0
H1139 H 0.35981 0.47563 0.59665 0.0
O1140 O 0.42779 0.44467 0.60575 0.0
O1141 O 0.41349 0.44614 0.58396 0.0
O1142 O 0.42148 0.49118 0.59584 0.0
O1143 O 0.39106 0.49031 0.5808 0.0
C1144 C 0.33263 0.39474 0.57576 0.0
C1145 C 0.34588 0.38513 0.56458 0.0
H1146 H 0.37626 0.37159 0.54373 0.0
H1147 H 0.41058 0.39448 0.53586 0.0
H1148 H 0.32572 0.45596 0.6074 0.0
H1149 H 0.31225 0.41796 0.59791 0.0
H1150 H 0.31796 0.38509 0.57995 0.0
H1151 H 0.34121 0.36823 0.56036 0.0
C1152 C 0.11397 0.40669 0.38285 0.0
C1153 C 0.09998 0.4069 0.39505 0.0
C1154 C 0.12512 0.38618 0.37865 0.0
C1155 C 0.11824 0.32312 0.38091 0.0
H1156 H 0.1819 0.32098 0.36724 0.0
C1157 C 0.18911 0.24959 0.36238 0.0
C1158 C 0.17492 0.23643 0.35321 0.0
C1159 C 0.1813 0.27087 0.36781 0.0
C1160 C 0.16416 0.32132 0.37112 0.0
H1161 H 0.0854 0.38602 0.41199 0.0
H1162 H 0.10495 0.35016 0.40474 0.0
H1163 H 0.16618 0.35746 0.37675 0.0
H1164 H 0.14154 0.2357 0.34235 0.0
H1165 H 0.12811 0.27266 0.35177 0.0
H1166 H 0.11609 0.28713 0.37534 0.0
C1167 C 0.10769 0.36581 0.39854 0.0
C1168 C 0.15512 0.34219 0.37644 0.0
C1169 C 0.09672 0.38631 0.40278 0.0
C1170 C 0.15294 0.24525 0.34942 0.0
C1171 C 0.14514 0.2664 0.35489 0.0
C1172 C 0.12719 0.30236 0.37554 0.0
C1173 C 0.12188 0.36548 0.38638 0.0
C1174 C 0.13202 0.3433 0.3813 0.0
C1175 C 0.15911 0.27933 0.36425 0.0
C1176 C 0.15016 0.30128 0.37046 0.0
H1177 H 0.11622 0.42235 0.37659 0.0
H1178 H 0.13565 0.38634 0.3691 0.0
H1179 H 0.10031 0.32348 0.38446 0.0
H1180 H 0.20615 0.24336 0.3655 0.0
H1181 H 0.19239 0.28044 0.37506 0.0
C1182 C 0.99822 0.93547 0.61115 0.0
C1183 C 0.01102 0.91979 0.60272 0.0
C1184 C 0.97671 0.92897 0.61688 0.0
C1185 C 0.94352 0.87676 0.62679 0.0
H1186 H 0.88994 0.91784 0.62681 0.0
C1187 C 0.83893 0.86767 0.63455 0.0
C1188 C 0.83855 0.85366 0.64673 0.0
C1189 C 0.85963 0.87836 0.63025 0.0
C1190 C 0.90477 0.9062 0.62685 0.0
H1191 H 0.01086 0.88514 0.59346 0.0
H1192 H 0.97345 0.87401 0.60333 0.0
H1193 H 0.92683 0.93123 0.61662 0.0
H1194 H 0.85927 0.83887 0.66368 0.0
H1195 H 0.89532 0.85788 0.65643 0.0
H1196 H 0.92154 0.85151 0.63661 0.0
C1197 C 0.9802 0.89119 0.60569 0.0
C1198 C 0.9259 0.91392 0.62114 0.0
C1199 C 0.00161 0.89766 0.59996 0.0
C1200 C 0.85907 0.85024 0.65449 0.0
C1201 C 0.87972 0.86087 0.65023 0.0
C1202 C 0.92251 0.86909 0.6325 0.0
C1203 C 0.96763 0.90665 0.61434 0.0
C1204 C 0.94541 0.89914 0.6209 0.0
C1205 C 0.88033 0.87471 0.63792 0.0
C1206 C 0.90285 0.88364 0.63251 0.0
H1207 H 0.00491 0.95267 0.61348 0.0
H1208 H 0.96747 0.9412 0.62358 0.0
H1209 H 0.95832 0.86508 0.62695 0.0
H1210 H 0.82331 0.87004 0.62826 0.0
H1211 H 0.85964 0.88865 0.62061 0.0
C1212 C 0.3955 0.60294 0.90253 0.0
C1213 C 0.39581 0.58234 0.89454 0.0
C1214 C 0.38269 0.62212 0.89787 0.0
C1215 C 0.37042 0.6538 0.86772 0.0
H1216 H 0.31496 0.67937 0.88524 0.0
C1217 C 0.32823 0.73649 0.84527 0.0
C1218 C 0.3186 0.75236 0.85494 0.0
C1219 C 0.3348 0.71428 0.84972 0.0
C1220 C 0.33061 0.67267 0.88032 0.0
H1221 H 0.38426 0.56578 0.87512 0.0
H1222 H 0.3623 0.59981 0.86668 0.0
H1223 H 0.33163 0.64309 0.89429 0.0
H1224 H 0.30812 0.75756 0.87682 0.0
H1225 H 0.32075 0.71929 0.88484 0.0
H1226 H 0.37066 0.6837 0.85434 0.0
C1227 C 0.37118 0.60066 0.87682 0.0
C1228 C 0.33995 0.65181 0.88544 0.0
C1229 C 0.38368 0.58135 0.88161 0.0
C1230 C 0.31538 0.74555 0.86913 0.0
C1231 C 0.32248 0.72351 0.87368 0.0
C1232 C 0.36144 0.67485 0.86279 0.0
C1233 C 0.37071 0.62116 0.88491 0.0
C1234 C 0.3599 0.64233 0.87915 0.0
C1235 C 0.33249 0.70762 0.86405 0.0
C1236 C 0.34142 0.68465 0.86903 0.0
H1237 H 0.40569 0.60441 0.91217 0.0
H1238 H 0.38289 0.63799 0.90408 0.0
H1239 H 0.38604 0.64681 0.86287 0.0
H1240 H 0.3306 0.74123 0.83421 0.0
H1241 H 0.3418 0.70239 0.84188 0.0
C1242 C 0.5071 0.05714 0.11371 0.0
C1243 C 0.49543 0.07242 0.10444 0.0
C1244 C 0.52941 0.06248 0.11869 0.0
C1245 C 0.5806 0.09944 0.11112 0.0
H1246 H 0.59286 0.09397 0.15152 0.0
C1247 C 0.64356 0.14481 0.15461 0.0
C1248 C 0.66498 0.14394 0.14752 0.0
C1249 C 0.62469 0.13187 0.14966 0.0
C1250 C 0.58971 0.09551 0.1402 0.0
H1251 H 0.49829 0.1052 0.09306 0.0
H1252 H 0.53694 0.11445 0.10179 0.0
H1253 H 0.55614 0.07954 0.14184 0.0
H1254 H 0.68359 0.12981 0.12952 0.0
H1255 H 0.65059 0.10679 0.12083 0.0
H1256 H 0.61363 0.11634 0.10954 0.0
C1257 C 0.52898 0.09822 0.10508 0.0
C1258 C 0.56879 0.08706 0.13465 0.0
C1259 C 0.50671 0.09297 0.10015 0.0
C1260 C 0.66726 0.13028 0.13527 0.0
C1261 C 0.6484 0.11726 0.13031 0.0
C1262 C 0.6015 0.10784 0.11666 0.0
C1263 C 0.54055 0.0831 0.11445 0.0
C1264 C 0.56379 0.08946 0.1201 0.0
C1265 C 0.62683 0.11813 0.13736 0.0
C1266 C 0.60605 0.10646 0.13131 0.0
H1267 H 0.49895 0.04115 0.11723 0.0
H1268 H 0.53797 0.05043 0.12584 0.0
H1269 H 0.57737 0.10123 0.09983 0.0
H1270 H 0.64126 0.15597 0.16379 0.0
H1271 H 0.6082 0.13335 0.15516 0.0
C1272 C 0.15257 0.74629 0.15134 0.0
C1273 C 0.17419 0.75548 0.14712 0.0
C1274 C 0.14508 0.72477 0.14626 0.0
C1275 C 0.16416 0.66982 0.1301 0.0
H1276 H 0.10029 0.66755 0.1168 0.0
C1277 C 0.09686 0.60546 0.09796 0.0
C1278 C 0.09958 0.58479 0.10568 0.0
C1279 C 0.10809 0.62573 0.10231 0.0
C1280 C 0.11822 0.66794 0.12036 0.0
H1281 H 0.20521 0.74874 0.1346 0.0
H1282 H 0.19198 0.71102 0.12571 0.0
H1283 H 0.11597 0.70388 0.12599 0.0
H1284 H 0.11527 0.56892 0.12418 0.0
H1285 H 0.13519 0.60458 0.13188 0.0
H1286 H 0.16625 0.63369 0.12438 0.0
C1287 C 0.18094 0.72059 0.13298 0.0
C1288 C 0.12711 0.68867 0.12577 0.0
C1289 C 0.18843 0.74225 0.13802 0.0
C1290 C 0.11342 0.58465 0.11794 0.0
C1291 C 0.12484 0.60495 0.12227 0.0
C1292 C 0.15517 0.64893 0.12475 0.0
C1293 C 0.15901 0.71185 0.13688 0.0
C1294 C 0.15009 0.68981 0.1308 0.0
C1295 C 0.12201 0.62575 0.11458 0.0
C1296 C 0.13208 0.64783 0.11987 0.0
H1297 H 0.14116 0.75586 0.15839 0.0
H1298 H 0.12825 0.71829 0.14962 0.0
H1299 H 0.18192 0.67022 0.13394 0.0
H1300 H 0.08569 0.60601 0.08869 0.0
H1301 H 0.10569 0.64147 0.09615 0.0
C1302 C 0.5013 0.93105 0.38861 0.0
C1303 C 0.48832 0.91613 0.39744 0.0
C1304 C 0.52279 0.92395 0.38312 0.0
C1305 C 0.55587 0.87079 0.37488 0.0
H1306 H 0.60923 0.91206 0.37312 0.0
C1307 C 0.66053 0.8628 0.36499 0.0
C1308 C 0.66038 0.84865 0.35286 0.0
C1309 C 0.63983 0.87284 0.36987 0.0
C1310 C 0.59448 0.90034 0.37361 0.0
H1311 H 0.48811 0.88218 0.40762 0.0
H1312 H 0.52549 0.87002 0.39816 0.0
H1313 H 0.57252 0.92612 0.38319 0.0
H1314 H 0.63876 0.8327 0.33675 0.0
H1315 H 0.60271 0.85045 0.34506 0.0
H1316 H 0.57777 0.84488 0.36562 0.0
C1317 C 0.51891 0.88706 0.39531 0.0
C1318 C 0.57343 0.90844 0.37924 0.0
C1319 C 0.4975 0.89412 0.4008 0.0
C1320 C 0.63932 0.84416 0.34588 0.0
C1321 C 0.61868 0.85409 0.35075 0.0
C1322 C 0.57681 0.86275 0.36925 0.0
C1323 C 0.5317 0.90178 0.3863 0.0
C1324 C 0.55396 0.89366 0.38003 0.0
C1325 C 0.61866 0.86836 0.36287 0.0
C1326 C 0.59637 0.87738 0.3686 0.0
H1327 H 0.49479 0.94813 0.38581 0.0
H1328 H 0.53216 0.93562 0.37612 0.0
H1329 H 0.5411 0.85908 0.37514 0.0
H1330 H 0.6766 0.86599 0.37068 0.0
H1331 H 0.64029 0.88349 0.37937 0.0
C1332 C 0.31514 0.25743 0.62852 0.0
C1333 C 0.3179 0.25138 0.64286 0.0
C1334 C 0.32197 0.27939 0.62367 0.0
C1335 C 0.35946 0.32937 0.6344 0.0
H1336 H 0.33175 0.35836 0.60124 0.0
C1337 C 0.38404 0.42105 0.61423 0.0
C1338 C 0.39551 0.41979 0.6011 0.0
C1339 C 0.37124 0.40207 0.61923 0.0
C1340 C 0.33948 0.35042 0.61055 0.0
H1341 H 0.32867 0.26375 0.66356 0.0
H1342 H 0.33922 0.30251 0.65539 0.0
H1343 H 0.31484 0.32256 0.61079 0.0
H1344 H 0.40385 0.39757 0.58324 0.0
H1345 H 0.38049 0.3646 0.59169 0.0
H1346 H 0.38365 0.35774 0.63428 0.0
C1347 C 0.33289 0.2901 0.64766 0.0
C1348 C 0.33001 0.32982 0.61598 0.0
C1349 C 0.32666 0.26794 0.6524 0.0
C1350 C 0.39418 0.39927 0.59306 0.0
C1351 C 0.38103 0.38044 0.59793 0.0
C1352 C 0.36852 0.35019 0.62918 0.0
C1353 C 0.33119 0.29598 0.63316 0.0
C1354 C 0.34008 0.3188 0.62787 0.0
C1355 C 0.36979 0.38162 0.61114 0.0
C1356 C 0.35879 0.36068 0.61714 0.0
H1357 H 0.30859 0.24484 0.62093 0.0
H1358 H 0.32072 0.28297 0.61241 0.0
H1359 H 0.36817 0.32128 0.64332 0.0
H1360 H 0.38541 0.43653 0.62075 0.0
H1361 H 0.36292 0.40313 0.62954 0.0
C1362 C 0.99188 0.06 0.88506 0.0
C1363 C 0.00346 0.0758 0.89404 0.0
C1364 C 0.96958 0.06498 0.87992 0.0
C1365 C 0.92927 0.08806 0.86386 0.0
H1366 H 0.8848 0.11762 0.88907 0.0
C1367 C 0.85239 0.14356 0.84433 0.0
C1368 C 0.83146 0.14293 0.85197 0.0
C1369 C 0.8716 0.1308 0.84897 0.0
C1370 C 0.89682 0.10902 0.88193 0.0
H1371 H 0.00058 0.10932 0.90458 0.0
H1372 H 0.96193 0.11796 0.89559 0.0
H1373 H 0.92181 0.10401 0.89848 0.0
H1374 H 0.81404 0.12918 0.87053 0.0
H1375 H 0.84762 0.10651 0.87866 0.0
H1376 H 0.90427 0.09338 0.84726 0.0
C1377 C 0.96995 0.10158 0.89267 0.0
C1378 C 0.91816 0.1015 0.88729 0.0
C1379 C 0.99222 0.09667 0.89775 0.0
C1380 C 0.82996 0.12949 0.86436 0.0
C1381 C 0.84916 0.11666 0.86901 0.0
C1382 C 0.90789 0.09565 0.85847 0.0
C1383 C 0.95836 0.08579 0.88373 0.0
C1384 C 0.93482 0.09144 0.87826 0.0
C1385 C 0.87032 0.11752 0.8615 0.0
C1386 C 0.89164 0.10666 0.86741 0.0
H1387 H 0.0 0.04375 0.88198 0.0
H1388 H 0.96102 0.05244 0.8731 0.0
H1389 H 0.94179 0.08041 0.85663 0.0
H1390 H 0.85411 0.15455 0.83503 0.0
H1391 H 0.88775 0.13223 0.8431 0.0
C1392 C 0.90362 0.59765 0.62269 0.0
C1393 C 0.89759 0.58635 0.61005 0.0
C1394 C 0.88921 0.61496 0.62825 0.0
C1395 C 0.84175 0.65513 0.61749 0.0
H1396 H 0.84181 0.66916 0.65778 0.0
C1397 C 0.79404 0.73533 0.64033 0.0
C1398 C 0.80778 0.74901 0.64943 0.0
C1399 C 0.80124 0.71292 0.63651 0.0
C1400 C 0.84167 0.66546 0.64649 0.0
H1401 H 0.87095 0.58212 0.59402 0.0
H1402 H 0.84521 0.61183 0.60393 0.0
H1403 H 0.86089 0.63398 0.64929 0.0
H1404 H 0.83936 0.7497 0.66206 0.0
H1405 H 0.8519 0.71078 0.65538 0.0
H1406 H 0.82277 0.68683 0.61473 0.0
C1407 C 0.86156 0.60834 0.60923 0.0
C1408 C 0.85271 0.64535 0.64159 0.0
C1409 C 0.87624 0.59135 0.60353 0.0
C1410 C 0.82842 0.73961 0.65499 0.0
C1411 C 0.83552 0.71722 0.65126 0.0
C1412 C 0.83068 0.6752 0.6224 0.0
C1413 C 0.86805 0.6207 0.62154 0.0
C1414 C 0.85359 0.64031 0.62697 0.0
C1415 C 0.82219 0.70375 0.64182 0.0
C1416 C 0.83108 0.68091 0.6369 0.0
H1417 H 0.91986 0.59364 0.628 0.0
H1418 H 0.89509 0.62427 0.63758 0.0
H1419 H 0.84183 0.65186 0.60618 0.0
H1420 H 0.77801 0.7421 0.63591 0.0
H1421 H 0.79053 0.70285 0.6293 0.0
C1422 C 0.15872 0.1464 0.37533 0.0
C1423 C 0.17 0.1388 0.36299 0.0
C1424 C 0.14035 0.13357 0.38101 0.0
C1425 C 0.1094 0.07667 0.37968 0.0
H1426 H 0.05667 0.11516 0.39008 0.0
C1427 C 0.0154 0.04145 0.38899 0.0
C1428 C 0.00241 0.05233 0.39976 0.0
C1429 C 0.03757 0.04979 0.38542 0.0
C1430 C 0.07132 0.10411 0.38744 0.0
H1431 H 0.17344 0.11054 0.34796 0.0
H1432 H 0.14069 0.0882 0.35759 0.0
H1433 H 0.09265 0.13342 0.38275 0.0
H1434 H 0.00296 0.07935 0.41586 0.0
H1435 H 0.04157 0.09345 0.40988 0.0
H1436 H 0.08763 0.04729 0.38435 0.0
C1437 C 0.14573 0.10421 0.36281 0.0
C1438 C 0.09202 0.1146 0.38323 0.0
C1439 C 0.16417 0.11713 0.35714 0.0
C1440 C 0.0124 0.07084 0.40735 0.0
C1441 C 0.0345 0.07899 0.40388 0.0
C1442 C 0.08857 0.0661 0.38398 0.0
C1443 C 0.13308 0.11273 0.37452 0.0
C1444 C 0.11137 0.10107 0.37933 0.0
C1445 C 0.0471 0.06902 0.39263 0.0
C1446 C 0.06935 0.07976 0.38798 0.0
H1447 H 0.16361 0.1627 0.3803 0.0
H1448 H 0.13151 0.14026 0.39032 0.0
H1449 H 0.12403 0.06574 0.37682 0.0
H1450 H 0.00812 0.02712 0.38299 0.0
H1451 H 0.04682 0.04178 0.37666 0.0
C1452 C 0.62464 0.41016 0.1081 0.0
C1453 C 0.60287 0.41673 0.11348 0.0
C1454 C 0.63737 0.39246 0.11472 0.0
C1455 C 0.62636 0.34104 0.13691 0.0
H1456 H 0.69364 0.33661 0.13834 0.0
C1457 C 0.67006 0.26028 0.16026 0.0
C1458 C 0.6893 0.25126 0.15291 0.0
C1459 C 0.66157 0.28242 0.1571 0.0
C1460 C 0.67483 0.33752 0.13789 0.0
H1461 H 0.5785 0.41248 0.1308 0.0
H1462 H 0.60058 0.38152 0.14241 0.0
H1463 H 0.67536 0.37261 0.13014 0.0
H1464 H 0.71526 0.25855 0.13681 0.0
H1465 H 0.69995 0.29703 0.13091 0.0
H1466 H 0.62562 0.3059 0.14413 0.0
C1467 C 0.60754 0.38929 0.13283 0.0
C1468 C 0.66437 0.35816 0.13323 0.0
C1469 C 0.59491 0.40699 0.12623 0.0
C1470 C 0.70038 0.2651 0.14264 0.0
C1471 C 0.69168 0.2872 0.13933 0.0
C1472 C 0.63677 0.32043 0.14143 0.0
C1473 C 0.62853 0.38127 0.12688 0.0
C1474 C 0.63999 0.36009 0.13263 0.0
C1475 C 0.67189 0.29593 0.14635 0.0
C1476 C 0.66112 0.31835 0.14196 0.0
H1477 H 0.63147 0.41825 0.09858 0.0
H1478 H 0.65348 0.38677 0.10987 0.0
H1479 H 0.60755 0.3417 0.13633 0.0
H1480 H 0.66137 0.25014 0.16839 0.0
H1481 H 0.64668 0.2888 0.16298 0.0
C1482 C 0.48822 0.91967 0.9057 0.0
C1483 C 0.49631 0.94107 0.90044 0.0
C1484 C 0.46591 0.91182 0.90233 0.0
C1485 C 0.42087 0.91736 0.87508 0.0
H1486 H 0.38299 0.88457 0.90268 0.0
C1487 C 0.33441 0.87377 0.85881 0.0
C1488 C 0.3301 0.85187 0.8648 0.0
C1489 C 0.35237 0.88774 0.86407 0.0
C1490 C 0.39342 0.89348 0.89479 0.0
H1491 H 0.48722 0.97129 0.8878 0.0
H1492 H 0.44814 0.9575 0.8819 0.0
H1493 H 0.41891 0.9033 0.91026 0.0
H1494 H 0.3397 0.82783 0.88145 0.0
H1495 H 0.37186 0.85143 0.89023 0.0
H1496 H 0.39572 0.90742 0.85958 0.0
C1497 C 0.45916 0.94676 0.88854 0.0
C1498 C 0.41397 0.90428 0.89916 0.0
C1499 C 0.48148 0.95468 0.89196 0.0
C1500 C 0.34313 0.84453 0.87653 0.0
C1501 C 0.36134 0.85825 0.88165 0.0
C1502 C 0.40033 0.90654 0.8707 0.0
C1503 C 0.45122 0.92516 0.89361 0.0
C1504 C 0.42818 0.91589 0.8893 0.0
C1505 C 0.36633 0.87999 0.87544 0.0
C1506 C 0.38666 0.89387 0.88041 0.0
H1507 H 0.49923 0.90878 0.91227 0.0
H1508 H 0.46043 0.89495 0.90624 0.0
H1509 H 0.4315 0.92607 0.8672 0.0
H1510 H 0.32391 0.88003 0.85004 0.0
H1511 H 0.3553 0.90455 0.85921 0.0
C1512 C 0.87786 0.40884 0.89298 0.0
C1513 C 0.89972 0.41492 0.88753 0.0
C1514 C 0.86527 0.39053 0.88692 0.0
C1515 C 0.8757 0.33734 0.86622 0.0
H1516 H 0.80847 0.33558 0.86281 0.0
C1517 C 0.83017 0.25859 0.84152 0.0
C1518 C 0.81005 0.25039 0.84834 0.0
C1519 C 0.83953 0.28021 0.84507 0.0
C1520 C 0.82724 0.33575 0.86383 0.0
H1521 H 0.92459 0.40886 0.87068 0.0
H1522 H 0.90277 0.37677 0.86005 0.0
H1523 H 0.82756 0.3711 0.87111 0.0
H1524 H 0.7835 0.25864 0.86391 0.0
H1525 H 0.8002 0.29625 0.87041 0.0
H1526 H 0.87554 0.30198 0.85933 0.0
C1527 C 0.89561 0.38548 0.86928 0.0
C1528 C 0.83816 0.35609 0.86856 0.0
C1529 C 0.90807 0.40381 0.87531 0.0
C1530 C 0.79904 0.26455 0.85848 0.0
C1531 C 0.80854 0.28614 0.86214 0.0
C1532 C 0.86482 0.31703 0.86161 0.0
C1533 C 0.87435 0.37823 0.87523 0.0
C1534 C 0.86252 0.35708 0.8698 0.0
C1535 C 0.82914 0.29403 0.85564 0.0
C1536 C 0.84048 0.31596 0.86033 0.0
H1537 H 0.87075 0.41793 0.90208 0.0
H1538 H 0.84896 0.38541 0.89175 0.0
H1539 H 0.89446 0.33736 0.86728 0.0
H1540 H 0.83889 0.24818 0.83353 0.0
H1541 H 0.8551 0.28598 0.83962 0.0
C1542 C 0.34346 0.16068 0.62024 0.0
C1543 C 0.33192 0.1529 0.63245 0.0
C1544 C 0.36232 0.1482 0.61483 0.0
C1545 C 0.39288 0.09125 0.61624 0.0
H1546 H 0.44646 0.12891 0.6063 0.0
C1547 C 0.48547 0.05311 0.60831 0.0
C1548 C 0.49958 0.06337 0.59785 0.0
C1549 C 0.46366 0.06259 0.61154 0.0
C1550 C 0.43158 0.11808 0.6088 0.0
H1551 H 0.32882 0.12485 0.64766 0.0
H1552 H 0.36222 0.1031 0.63845 0.0
H1553 H 0.41044 0.14774 0.61317 0.0
H1554 H 0.50152 0.09086 0.5821 0.0
H1555 H 0.4634 0.10699 0.58746 0.0
H1556 H 0.41421 0.06154 0.61178 0.0
C1557 C 0.35703 0.11896 0.63311 0.0
C1558 C 0.41089 0.12892 0.6128 0.0
C1559 C 0.33819 0.13154 0.63854 0.0
C1560 C 0.49116 0.08273 0.59034 0.0
C1561 C 0.46935 0.09206 0.59347 0.0
C1562 C 0.41361 0.08037 0.61214 0.0
C1563 C 0.36971 0.1275 0.62143 0.0
C1564 C 0.39131 0.11567 0.61663 0.0
C1565 C 0.45552 0.08241 0.6043 0.0
C1566 C 0.43322 0.09369 0.6084 0.0
H1567 H 0.33832 0.17679 0.61514 0.0
H1568 H 0.3713 0.15494 0.60559 0.0
H1569 H 0.37803 0.08055 0.61898 0.0
H1570 H 0.49153 0.03818 0.61428 0.0
H1571 H 0.45355 0.05484 0.62002 0.0
C1572 C 0.70875 0.72843 0.34915 0.0
C1573 C 0.6924 0.74657 0.34856 0.0
C1574 C 0.70148 0.70561 0.35208 0.0
C1575 C 0.64722 0.66984 0.35264 0.0
H1576 H 0.6843 0.62669 0.37468 0.0
C1577 C 0.63126 0.58408 0.38955 0.0
C1578 C 0.61086 0.57668 0.3828 0.0
C1579 C 0.64521 0.6012 0.38329 0.0
C1580 C 0.67355 0.63854 0.36862 0.0
H1581 H 0.65607 0.75552 0.35137 0.0
H1582 H 0.64366 0.71648 0.35722 0.0
H1583 H 0.6999 0.66492 0.36898 0.0
H1584 H 0.59123 0.5776 0.36321 0.0
H1585 H 0.61599 0.60642 0.35188 0.0
H1586 H 0.6201 0.6449 0.35327 0.0
C1587 C 0.66184 0.71926 0.35471 0.0
C1588 C 0.68272 0.66042 0.36515 0.0
C1589 C 0.66897 0.74177 0.35148 0.0
C1590 C 0.60628 0.58408 0.36892 0.0
C1591 C 0.62042 0.60078 0.36251 0.0
C1592 C 0.63789 0.64836 0.35639 0.0
C1593 C 0.67783 0.70071 0.35472 0.0
C1594 C 0.66941 0.67656 0.35738 0.0
C1595 C 0.63926 0.61071 0.36996 0.0
C1596 C 0.6507 0.63241 0.36462 0.0
H1597 H 0.72694 0.73177 0.34694 0.0
H1598 H 0.71429 0.6918 0.35195 0.0
H1599 H 0.63665 0.68143 0.34627 0.0
H1600 H 0.63587 0.57738 0.39994 0.0
H1601 H 0.65966 0.60791 0.38941 0.0
C1602 C 0.16159 0.87456 0.13995 0.0
C1603 C 0.16745 0.85252 0.13468 0.0
C1604 C 0.14329 0.88713 0.13386 0.0
C1605 C 0.08978 0.87605 0.11345 0.0
H1606 H 0.08665 0.94331 0.11081 0.0
C1607 C 0.00944 0.92069 0.09015 0.0
C1608 C 0.00086 0.94018 0.09746 0.0
C1609 C 0.03143 0.9118 0.09327 0.0
C1610 C 0.08722 0.92452 0.1116 0.0
H1611 H 0.16115 0.82739 0.11801 0.0
H1612 H 0.12917 0.84921 0.10729 0.0
H1613 H 0.12275 0.92468 0.11855 0.0
H1614 H 0.00886 0.96617 0.11343 0.0
H1615 H 0.04719 0.95029 0.11914 0.0
H1616 H 0.05427 0.87574 0.10688 0.0
C1617 C 0.13797 0.85651 0.11644 0.0
C1618 C 0.1079 0.91385 0.11602 0.0
C1619 C 0.15625 0.84404 0.12252 0.0
C1620 C 0.01504 0.95111 0.10763 0.0
C1621 C 0.03704 0.94208 0.11084 0.0
C1622 C 0.06917 0.88667 0.10913 0.0
C1623 C 0.13079 0.87787 0.1223 0.0
C1624 C 0.10937 0.88947 0.11702 0.0
C1625 C 0.04529 0.92204 0.10387 0.0
C1626 C 0.0676 0.91102 0.10815 0.0
H1627 H 0.17078 0.88178 0.14899 0.0
H1628 H 0.13828 0.90352 0.13863 0.0
H1629 H 0.0901 0.85727 0.11436 0.0
H1630 H 0.99902 0.91205 0.08213 0.0
H1631 H 0.03746 0.89666 0.08748 0.0
C1632 C 0.68312 0.75485 0.8691 0.0
C1633 C 0.68158 0.74976 0.85457 0.0
C1634 C 0.67691 0.7769 0.87413 0.0
C1635 C 0.6429 0.829 0.86279 0.0
H1636 H 0.66672 0.85474 0.898 0.0
C1637 C 0.6168 0.91945 0.88399 0.0
C1638 C 0.60442 0.91767 0.89678 0.0
C1639 C 0.62992 0.90066 0.87905 0.0
C1640 C 0.66011 0.84773 0.88811 0.0
H1641 H 0.67396 0.76375 0.83374 0.0
H1642 H 0.66474 0.80264 0.84227 0.0
H1643 H 0.68375 0.81901 0.88842 0.0
H1644 H 0.5948 0.89474 0.91406 0.0
H1645 H 0.61867 0.86209 0.90574 0.0
H1646 H 0.61968 0.85815 0.8624 0.0
C1647 C 0.66946 0.78949 0.84999 0.0
C1648 C 0.66964 0.82717 0.88266 0.0
C1649 C 0.67496 0.76728 0.84504 0.0
C1650 C 0.60515 0.89682 0.90452 0.0
C1651 C 0.61861 0.87818 0.89973 0.0
C1652 C 0.63383 0.84978 0.86805 0.0
C1653 C 0.66963 0.79446 0.86465 0.0
C1654 C 0.66091 0.8173 0.87002 0.0
C1655 C 0.63079 0.87987 0.88686 0.0
C1656 C 0.64213 0.85911 0.88083 0.0
H1657 H 0.68804 0.74146 0.87663 0.0
H1658 H 0.67699 0.77979 0.88549 0.0
H1659 H 0.63515 0.82181 0.85327 0.0
H1660 H 0.61592 0.93521 0.87769 0.0
H1661 H 0.63898 0.90214 0.86899 0.0
C1662 C 0.4929 0.43717 0.11118 0.0
C1663 C 0.50595 0.42156 0.10285 0.0
C1664 C 0.47169 0.43029 0.11716 0.0
C1665 C 0.44065 0.37758 0.12835 0.0
H1666 H 0.3852 0.41608 0.12752 0.0
C1667 C 0.33673 0.36362 0.13592 0.0
C1668 C 0.33674 0.3506 0.14851 0.0
C1669 C 0.35695 0.37508 0.1315 0.0
C1670 C 0.40058 0.40518 0.12782 0.0
H1671 H 0.50648 0.38661 0.094 0.0
H1672 H 0.46966 0.3748 0.10437 0.0
H1673 H 0.42145 0.43058 0.117 0.0
H1674 H 0.35769 0.3383 0.16607 0.0
H1675 H 0.39298 0.35852 0.15852 0.0
H1676 H 0.41988 0.35197 0.13881 0.0
C1677 C 0.47596 0.39225 0.10642 0.0
C1678 C 0.42132 0.41353 0.12191 0.0
C1679 C 0.49704 0.39911 0.10041 0.0
C1680 C 0.35719 0.34887 0.15654 0.0
C1681 C 0.37739 0.36021 0.15213 0.0
C1682 C 0.42004 0.36931 0.13429 0.0
C1683 C 0.46321 0.40763 0.11501 0.0
C1684 C 0.44146 0.39964 0.12193 0.0
C1685 C 0.37759 0.37316 0.13946 0.0
C1686 C 0.39972 0.38289 0.13396 0.0
H1687 H 0.4992 0.45461 0.11326 0.0
H1688 H 0.46224 0.44248 0.12379 0.0
H1689 H 0.45598 0.36662 0.12871 0.0
H1690 H 0.32119 0.36468 0.12944 0.0
H1691 H 0.35668 0.38461 0.12158 0.0
C1692 C 0.88387 0.08576 0.3858 0.0
C1693 C 0.89821 0.08469 0.39782 0.0
C1694 C 0.87286 0.10662 0.38214 0.0
C1695 C 0.88092 0.16952 0.3859 0.0
H1696 H 0.81821 0.17322 0.37083 0.0
C1697 C 0.81213 0.24431 0.36579 0.0
C1698 C 0.82724 0.25748 0.35719 0.0
C1699 C 0.81936 0.22303 0.37152 0.0
C1700 C 0.83567 0.17248 0.37514 0.0
H1701 H 0.91343 0.10442 0.41505 0.0
H1702 H 0.89394 0.1408 0.40888 0.0
H1703 H 0.83275 0.13616 0.3801 0.0
H1704 H 0.86177 0.25833 0.34776 0.0
H1705 H 0.87417 0.22134 0.35763 0.0
H1706 H 0.88393 0.20571 0.38102 0.0
C1707 C 0.89089 0.12559 0.40235 0.0
C1708 C 0.84405 0.15125 0.38032 0.0
C1709 C 0.90181 0.10476 0.40599 0.0
C1710 C 0.84965 0.24876 0.35436 0.0
C1711 C 0.85685 0.22759 0.36011 0.0
C1712 C 0.87258 0.19065 0.38072 0.0
C1713 C 0.87652 0.12683 0.39028 0.0
C1714 C 0.86686 0.14951 0.38562 0.0
C1715 C 0.84188 0.21456 0.36882 0.0
C1716 C 0.85 0.19232 0.3751 0.0
H1717 H 0.88136 0.07053 0.37919 0.0
H1718 H 0.86222 0.10713 0.37265 0.0
H1719 H 0.89866 0.16873 0.38977 0.0
H1720 H 0.79475 0.25046 0.36818 0.0
H1721 H 0.80749 0.21342 0.37826 0.0
C1722 C 0.14499 0.64551 0.65491 0.0
C1723 C 0.16611 0.64627 0.64744 0.0
C1724 C 0.12606 0.63321 0.64943 0.0
C1725 C 0.09634 0.62331 0.61817 0.0
H1726 H 0.06906 0.5671 0.63375 0.0
C1727 C 0.01475 0.58404 0.59271 0.0
C1728 C 0.99806 0.57406 0.60172 0.0
C1729 C 0.03679 0.58972 0.59785 0.0
C1730 C 0.07624 0.58296 0.62936 0.0
H1731 H 0.18383 0.63615 0.62811 0.0
H1732 H 0.15023 0.61515 0.61822 0.0
H1733 H 0.10484 0.58282 0.64408 0.0
H1734 H 0.99122 0.56188 0.62307 0.0
H1735 H 0.02925 0.57302 0.63236 0.0
H1736 H 0.06739 0.62473 0.60409 0.0
C1737 C 0.14878 0.62324 0.62859 0.0
C1738 C 0.09682 0.59176 0.63521 0.0
C1739 C 0.16785 0.6352 0.6342 0.0
C1740 C 0.0039 0.56944 0.61591 0.0
C1741 C 0.02578 0.57571 0.62118 0.0
C1742 C 0.07556 0.61487 0.61252 0.0
C1743 C 0.12778 0.62224 0.63617 0.0
C1744 C 0.10693 0.61198 0.62963 0.0
C1745 C 0.04246 0.58622 0.61225 0.0
C1746 C 0.06515 0.59457 0.61803 0.0
H1747 H 0.14297 0.6549 0.66481 0.0
H1748 H 0.10981 0.63303 0.65527 0.0
H1749 H 0.10379 0.63914 0.61387 0.0
H1750 H 0.01073 0.58746 0.58165 0.0
H1751 H 0.04929 0.59706 0.59051 0.0
C1752 C 0.62025 0.08772 0.61194 0.0
C1753 C 0.60663 0.08696 0.5996 0.0
C1754 C 0.63255 0.10791 0.61543 0.0
C1755 C 0.62744 0.17063 0.61069 0.0
H1756 H 0.6879 0.17268 0.62899 0.0
C1757 C 0.69292 0.24452 0.63517 0.0
C1758 C 0.67663 0.2568 0.64346 0.0
C1759 C 0.68687 0.22331 0.62883 0.0
C1760 C 0.67111 0.17237 0.62376 0.0
H1761 H 0.59436 0.10657 0.58146 0.0
H1762 H 0.61618 0.14174 0.58734 0.0
H1763 H 0.67382 0.13602 0.61874 0.0
H1764 H 0.64137 0.25596 0.65186 0.0
H1765 H 0.63101 0.21927 0.64085 0.0
H1766 H 0.62447 0.20673 0.61582 0.0
C1767 C 0.61765 0.12675 0.59426 0.0
C1768 C 0.663 0.15141 0.618 0.0
C1769 C 0.60539 0.10659 0.5908 0.0
C1770 C 0.65438 0.24714 0.6455 0.0
C1771 C 0.64834 0.22613 0.63911 0.0
C1772 C 0.63546 0.19144 0.61647 0.0
C1773 C 0.63095 0.12782 0.60678 0.0
C1774 C 0.64091 0.15028 0.61159 0.0
C1775 C 0.66437 0.21415 0.63056 0.0
C1776 C 0.65715 0.19244 0.62332 0.0
H1777 H 0.62097 0.07285 0.61901 0.0
H1778 H 0.64234 0.10831 0.62526 0.0
H1779 H 0.61023 0.17032 0.60598 0.0
H1780 H 0.71022 0.25141 0.63341 0.0
H1781 H 0.69954 0.2144 0.62227 0.0
C1782 C 0.16431 0.36129 0.86473 0.0
C1783 C 0.16327 0.34771 0.85238 0.0
C1784 C 0.14444 0.37289 0.8696 0.0
C1785 C 0.10121 0.40408 0.87302 0.0
H1786 H 0.04582 0.36576 0.87589 0.0
C1787 C 0.00909 0.43824 0.88901 0.0
C1788 C 0.99672 0.42413 0.89863 0.0
C1789 C 0.03032 0.43068 0.88331 0.0
C1790 C 0.06116 0.37667 0.87519 0.0
H1791 H 0.14083 0.33433 0.83582 0.0
H1792 H 0.10606 0.35454 0.84428 0.0
H1793 H 0.08116 0.34948 0.86567 0.0
H1794 H 0.99755 0.39137 0.91019 0.0
H1795 H 0.03428 0.37839 0.90028 0.0
H1796 H 0.08105 0.4312 0.88276 0.0
C1797 C 0.12221 0.35667 0.85007 0.0
C1798 C 0.08132 0.36743 0.86921 0.0
C1799 C 0.14208 0.34529 0.84516 0.0
C1800 C 0.00642 0.40269 0.90275 0.0
C1801 C 0.02746 0.39514 0.89701 0.0
C1802 C 0.08089 0.41343 0.87893 0.0
C1803 C 0.12315 0.37046 0.86238 0.0
C1804 C 0.1016 0.38094 0.86817 0.0
C1805 C 0.03942 0.40884 0.88706 0.0
C1806 C 0.06077 0.39967 0.88023 0.0
H1807 H 0.18045 0.36289 0.8706 0.0
H1808 H 0.14555 0.38312 0.87924 0.0
H1809 H 0.1166 0.4149 0.87223 0.0
H1810 H 0.00218 0.45488 0.88563 0.0
H1811 H 0.03919 0.44156 0.87563 0.0
C1812 C 0.89652 0.89395 0.09254 0.0
C1813 C 0.89477 0.91391 0.10103 0.0
C1814 C 0.88483 0.87361 0.09634 0.0
C1815 C 0.83892 0.84931 0.11953 0.0
H1816 H 0.87757 0.79397 0.11854 0.0
C1817 C 0.84366 0.7523 0.14615 0.0
C1818 C 0.82141 0.74337 0.14315 0.0
C1819 C 0.85086 0.77344 0.14036 0.0
C1820 C 0.86657 0.80927 0.1189 0.0
H1821 H 0.88019 0.92841 0.12028 0.0
H1822 H 0.85959 0.89269 0.12703 0.0
H1823 H 0.89261 0.83045 0.10914 0.0
H1824 H 0.78905 0.75011 0.13196 0.0
H1825 H 0.80172 0.78723 0.12188 0.0
H1826 H 0.81307 0.82802 0.12963 0.0
C1827 C 0.86946 0.89294 0.11723 0.0
C1828 C 0.87507 0.8301 0.11337 0.0
C1829 C 0.88128 0.91328 0.11344 0.0
C1830 C 0.80633 0.75642 0.13446 0.0
C1831 C 0.81352 0.77772 0.12874 0.0
C1832 C 0.83033 0.82834 0.12501 0.0
C1833 C 0.87147 0.87277 0.10885 0.0
C1834 C 0.86147 0.85041 0.11377 0.0
C1835 C 0.83598 0.78626 0.13148 0.0
C1836 C 0.84425 0.80822 0.12494 0.0
H1837 H 0.90744 0.89391 0.08315 0.0
H1838 H 0.88662 0.85839 0.08964 0.0
H1839 H 0.82802 0.86468 0.11989 0.0
H1840 H 0.85575 0.74282 0.15282 0.0
H1841 H 0.86815 0.77978 0.14284 0.0
C1842 C 0.50271 0.599 0.39335 0.0
C1843 C 0.51131 0.5764 0.39099 0.0
C1844 C 0.48164 0.60604 0.38744 0.0
C1845 C 0.44515 0.62116 0.3665 0.0
H1846 H 0.38989 0.58249 0.36814 0.0
C1847 C 0.35931 0.6511 0.34145 0.0
C1848 C 0.33925 0.64794 0.3497 0.0
C1849 C 0.38005 0.6401 0.34518 0.0
C1850 C 0.4052 0.59347 0.36764 0.0
H1851 H 0.50416 0.54339 0.38065 0.0
H1852 H 0.46718 0.55587 0.37024 0.0
H1853 H 0.42684 0.5676 0.37741 0.0
H1854 H 0.32504 0.63193 0.36859 0.0
H1855 H 0.36152 0.61267 0.3753 0.0
H1856 H 0.42359 0.64731 0.35722 0.0
C1857 C 0.47686 0.56801 0.37676 0.0
C1858 C 0.42637 0.58487 0.3728 0.0
C1859 C 0.49808 0.56092 0.38268 0.0
C1860 C 0.34027 0.63409 0.36193 0.0
C1861 C 0.36105 0.623 0.36568 0.0
C1862 C 0.42409 0.62972 0.36135 0.0
C1863 C 0.46857 0.59074 0.37899 0.0
C1864 C 0.44646 0.59882 0.37251 0.0
C1865 C 0.38123 0.62608 0.35741 0.0
C1866 C 0.4038 0.61611 0.36203 0.0
H1867 H 0.5123 0.61142 0.39973 0.0
H1868 H 0.47551 0.62352 0.38957 0.0
H1869 H 0.46041 0.6322 0.36593 0.0
H1870 H 0.359 0.66232 0.3322 0.0
H1871 H 0.39522 0.64272 0.33854 0.0
C1872 C 0.40477 0.09046 0.12936 0.0
C1873 C 0.39719 0.08086 0.1165 0.0
C1874 C 0.39189 0.10802 0.13593 0.0
C1875 C 0.33472 0.13864 0.13585 0.0
H1876 H 0.37246 0.191 0.14783 0.0
C1877 C 0.29784 0.23147 0.14458 0.0
C1878 C 0.30828 0.24538 0.15506 0.0
C1879 C 0.3067 0.20933 0.14156 0.0
C1880 C 0.36158 0.17642 0.14482 0.0
H1881 H 0.369 0.0795 0.10129 0.0
H1882 H 0.3466 0.11071 0.1125 0.0
H1883 H 0.39122 0.15549 0.14011 0.0
H1884 H 0.33513 0.24655 0.17124 0.0
H1885 H 0.35009 0.2078 0.16631 0.0
H1886 H 0.30502 0.15986 0.14055 0.0
C1887 C 0.36259 0.10502 0.11749 0.0
C1888 C 0.37238 0.156 0.14033 0.0
C1889 C 0.37556 0.08747 0.11093 0.0
C1890 C 0.32693 0.23634 0.16295 0.0
C1891 C 0.33559 0.21417 0.16007 0.0
C1892 C 0.32385 0.1591 0.14046 0.0
C1893 C 0.37101 0.11603 0.12983 0.0
C1894 C 0.35913 0.13694 0.13564 0.0
C1895 C 0.32602 0.20063 0.14907 0.0
C1896 C 0.33719 0.17831 0.14489 0.0
H1897 H 0.42108 0.08495 0.13407 0.0
H1898 H 0.39854 0.11566 0.14563 0.0
H1899 H 0.32399 0.12417 0.13247 0.0
H1900 H 0.28344 0.23803 0.13833 0.0
H1901 H 0.29902 0.19947 0.13295 0.0
C1902 C 0.51146 0.57727 0.90484 0.0
C1903 C 0.50302 0.55644 0.89897 0.0
C1904 C 0.53382 0.58512 0.90161 0.0
C1905 C 0.5776 0.58171 0.8736 0.0
H1906 H 0.61682 0.61237 0.9014 0.0
C1907 C 0.66203 0.62763 0.85638 0.0
C1908 C 0.66694 0.64884 0.86307 0.0
C1909 C 0.64478 0.61296 0.86179 0.0
C1910 C 0.60601 0.6041 0.89345 0.0
H1911 H 0.51161 0.52711 0.88544 0.0
H1912 H 0.55077 0.54092 0.87974 0.0
H1913 H 0.58136 0.59288 0.90909 0.0
H1914 H 0.65919 0.67092 0.88104 0.0
H1915 H 0.62803 0.64622 0.89009 0.0
H1916 H 0.60171 0.59313 0.85791 0.0
C1917 C 0.53998 0.55122 0.88678 0.0
C1918 C 0.58573 0.59282 0.89789 0.0
C1919 C 0.51762 0.54329 0.89008 0.0
C1920 C 0.65527 0.65476 0.87561 0.0
C1921 C 0.63765 0.64039 0.88086 0.0
C1922 C 0.59782 0.59303 0.86915 0.0
C1923 C 0.54821 0.57236 0.89239 0.0
C1924 C 0.57105 0.58196 0.88797 0.0
C1925 C 0.63197 0.61937 0.87394 0.0
C1926 C 0.61198 0.60497 0.87894 0.0
H1927 H 0.50064 0.58778 0.91175 0.0
H1928 H 0.53953 0.60162 0.90595 0.0
H1929 H 0.56656 0.57364 0.86567 0.0
H1930 H 0.67149 0.62244 0.84694 0.0
H1931 H 0.64144 0.5967 0.85636 0.0
C1932 C 0.17255 0.76117 0.65985 0.0
C1933 C 0.19406 0.75246 0.65516 0.0
C1934 C 0.16559 0.78371 0.65627 0.0
C1935 C 0.17404 0.82708 0.62846 0.0
H1936 H 0.13964 0.86728 0.654 0.0
C1937 C 0.13118 0.91062 0.60743 0.0
C1938 C 0.10892 0.91547 0.61272 0.0
C1939 C 0.14519 0.89398 0.61408 0.0
C1940 C 0.14901 0.85621 0.64666 0.0
H1941 H 0.22556 0.76082 0.64351 0.0
H1942 H 0.21334 0.8002 0.63723 0.0
H1943 H 0.15725 0.83169 0.66307 0.0
H1944 H 0.08435 0.9085 0.62957 0.0
H1945 H 0.1079 0.87837 0.6407 0.0
H1946 H 0.16551 0.85097 0.61199 0.0
C1947 C 0.20181 0.78951 0.64358 0.0
C1948 C 0.15919 0.83585 0.65191 0.0
C1949 C 0.20882 0.767 0.64723 0.0
C1950 C 0.10133 0.90456 0.62518 0.0
C1951 C 0.11505 0.88753 0.63165 0.0
C1952 C 0.16378 0.84733 0.6232 0.0
C1953 C 0.17996 0.79796 0.64788 0.0
C1954 C 0.17139 0.82083 0.64279 0.0
C1955 C 0.13705 0.88171 0.62607 0.0
C1956 C 0.15055 0.86187 0.63213 0.0
H1957 H 0.16082 0.7504 0.66601 0.0
H1958 H 0.14855 0.78964 0.65961 0.0
H1959 H 0.18317 0.81578 0.62112 0.0
H1960 H 0.13765 0.91958 0.5981 0.0
H1961 H 0.16225 0.89055 0.60967 0.0
C1962 C 0.98189 0.45664 0.39197 0.0
C1963 C 0.99586 0.44197 0.40033 0.0
C1964 C 0.95877 0.45066 0.38905 0.0
C1965 C 0.91074 0.41155 0.4003 0.0
H1966 H 0.89317 0.414 0.36062 0.0
C1967 C 0.84158 0.35051 0.37734 0.0
C1968 C 0.82981 0.35658 0.36487 0.0
C1969 C 0.85858 0.36524 0.38293 0.0
C1970 C 0.89753 0.41335 0.37177 0.0
H1971 H 0.99639 0.41001 0.4126 0.0
H1972 H 0.95629 0.39952 0.40742 0.0
H1973 H 0.92934 0.43172 0.36818 0.0
H1974 H 0.8242 0.38369 0.34931 0.0
H1975 H 0.85333 0.41002 0.35929 0.0
H1976 H 0.87919 0.39276 0.40387 0.0
C1977 C 0.96302 0.41573 0.40322 0.0
C1978 C 0.91832 0.42369 0.37613 0.0
C1979 C 0.98609 0.42164 0.40608 0.0
C1980 C 0.83382 0.37837 0.35866 0.0
C1981 C 0.85049 0.3934 0.36441 0.0
C1982 C 0.88993 0.40121 0.39594 0.0
C1983 C 0.94919 0.42999 0.39451 0.0
C1984 C 0.92551 0.42225 0.39036 0.0
C1985 C 0.86355 0.38677 0.37642 0.0
C1986 C 0.88349 0.40115 0.38151 0.0
H1987 H 0.98892 0.47248 0.38745 0.0
H1988 H 0.94847 0.46208 0.38239 0.0
H1989 H 0.91555 0.41067 0.41142 0.0
H1990 H 0.83831 0.3339 0.38243 0.0
H1991 H 0.8684 0.35923 0.39203 0.0
C1992 C 0.32415 0.76149 0.34059 0.0
C1993 C 0.3036 0.75164 0.34598 0.0
C1994 C 0.33052 0.78416 0.34422 0.0
C1995 C 0.32303 0.82639 0.37288 0.0
H1996 H 0.35545 0.8675 0.3469 0.0
C1997 C 0.36768 0.90953 0.39339 0.0
C1998 C 0.38982 0.91387 0.38775 0.0
C1999 C 0.35303 0.89315 0.38699 0.0
C2000 C 0.34658 0.85618 0.35433 0.0
H2001 H 0.27309 0.75814 0.35897 0.0
H2002 H 0.28423 0.79785 0.36532 0.0
H2003 H 0.3372 0.83219 0.33789 0.0
H2004 H 0.41354 0.90627 0.37054 0.0
H2005 H 0.38876 0.87676 0.35976 0.0
H2006 H 0.33264 0.84994 0.38934 0.0
C2007 C 0.29552 0.78791 0.35838 0.0
C2008 C 0.33605 0.83598 0.34914 0.0
C2009 C 0.28911 0.76522 0.3547 0.0
C2010 C 0.39665 0.90273 0.3752 0.0
C2011 C 0.38226 0.88606 0.36894 0.0
C2012 C 0.33355 0.84658 0.37806 0.0
C2013 C 0.31649 0.79749 0.35336 0.0
C2014 C 0.32474 0.82053 0.35843 0.0
C2015 C 0.36036 0.88078 0.37486 0.0
C2016 C 0.34617 0.86134 0.36895 0.0
H2017 H 0.33567 0.75149 0.33382 0.0
H2018 H 0.34693 0.79089 0.34032 0.0
H2019 H 0.31457 0.8148 0.38034 0.0
H2020 H 0.36178 0.91868 0.40279 0.0
H2021 H 0.33611 0.89002 0.39167 0.0
C2022 C 0.98583 0.57416 0.09133 0.0
C2023 C 0.9949 0.55543 0.09914 0.0
C2024 C 0.9637 0.58281 0.09429 0.0
C2025 C 0.90843 0.57116 0.1135 0.0
H2026 H 0.90533 0.63856 0.11404 0.0
C2027 C 0.83394 0.62377 0.14015 0.0
C2028 C 0.8281 0.64526 0.13408 0.0
C2029 C 0.85222 0.61058 0.13452 0.0
C2030 C 0.90571 0.61972 0.11376 0.0
H2031 H 0.98759 0.53039 0.11577 0.0
H2032 H 0.94896 0.54595 0.12124 0.0
H2033 H 0.94113 0.61959 0.10705 0.0
H2034 H 0.83439 0.66863 0.11648 0.0
H2035 H 0.86629 0.64572 0.10656 0.0
H2036 H 0.87296 0.57152 0.1206 0.0
C2037 C 0.95886 0.55372 0.11267 0.0
C2038 C 0.9263 0.60881 0.10972 0.0
C2039 C 0.981 0.54486 0.10959 0.0
C2040 C 0.83927 0.65246 0.1216 0.0
C2041 C 0.85751 0.63936 0.11598 0.0
C2042 C 0.88775 0.58215 0.11765 0.0
C2043 C 0.9502 0.57317 0.10526 0.0
C2044 C 0.92794 0.58441 0.10947 0.0
C2045 C 0.86471 0.61864 0.12264 0.0
C2046 C 0.88618 0.60659 0.11781 0.0
H2047 H 0.996 0.58244 0.08306 0.0
H2048 H 0.95734 0.5974 0.08811 0.0
H2049 H 0.90906 0.55233 0.11331 0.0
H2050 H 0.82477 0.61749 0.14946 0.0
H2051 H 0.85723 0.59468 0.13989 0.0
C2052 C 0.20887 0.22906 0.8535 0.0
C2053 C 0.19467 0.24326 0.84498 0.0
C2054 C 0.20182 0.20648 0.85702 0.0
C2055 C 0.16019 0.15968 0.8475 0.0
H2056 H 0.16231 0.14545 0.8877 0.0
C2057 C 0.09798 0.09314 0.87246 0.0
C2058 C 0.10392 0.08233 0.88528 0.0
C2059 C 0.11278 0.1097 0.86645 0.0
C2060 C 0.16172 0.14884 0.87641 0.0
H2061 H 0.16248 0.24463 0.83296 0.0
H2062 H 0.15019 0.20538 0.83912 0.0
H2063 H 0.18141 0.18014 0.87893 0.0
H2064 H 0.13084 0.07799 0.90111 0.0
H2065 H 0.15734 0.10616 0.89036 0.0
H2066 H 0.14026 0.12858 0.84496 0.0
C2067 C 0.16682 0.21157 0.84303 0.0
C2068 C 0.17285 0.1688 0.87137 0.0
C2069 C 0.17378 0.23414 0.83958 0.0
C2070 C 0.12563 0.08687 0.89146 0.0
C2071 C 0.14074 0.10303 0.88528 0.0
C2072 C 0.14911 0.13966 0.85254 0.0
C2073 C 0.18054 0.19764 0.85199 0.0
C2074 C 0.17164 0.17478 0.85692 0.0
C2075 C 0.13429 0.11514 0.87287 0.0
C2076 C 0.14899 0.1344 0.86715 0.0
H2077 H 0.22511 0.23558 0.85777 0.0
H2078 H 0.21285 0.19606 0.86385 0.0
H2079 H 0.1594 0.16359 0.83625 0.0
H2080 H 0.08144 0.08946 0.86741 0.0
H2081 H 0.10688 0.1188 0.85705 0.0
C2082 C 0.51713 0.45373 0.60595 0.0
C2083 C 0.50316 0.44334 0.59548 0.0
C2084 C 0.53909 0.44458 0.60911 0.0
C2085 C 0.57172 0.38944 0.60612 0.0
H2086 H 0.62399 0.42712 0.61836 0.0
C2087 C 0.65818 0.34683 0.62128 0.0
C2088 C 0.66763 0.35425 0.63423 0.0
C2089 C 0.64043 0.35957 0.61482 0.0
C2090 C 0.60951 0.41639 0.615 0.0
H2091 H 0.50165 0.41616 0.57952 0.0
H2092 H 0.54013 0.40068 0.58469 0.0
H2093 H 0.58836 0.44604 0.61016 0.0
H2094 H 0.66845 0.38203 0.64972 0.0
H2095 H 0.63695 0.40426 0.63864 0.0
H2096 H 0.59269 0.35985 0.61093 0.0
C2097 C 0.53393 0.41539 0.59081 0.0
C2098 C 0.58908 0.42721 0.61034 0.0
C2099 C 0.51192 0.42434 0.58779 0.0
C2100 C 0.66063 0.3756 0.64001 0.0
C2101 C 0.64291 0.38846 0.63353 0.0
C2102 C 0.59215 0.37868 0.61064 0.0
C2103 C 0.54757 0.42503 0.60174 0.0
C2104 C 0.56986 0.41384 0.60596 0.0
C2105 C 0.63213 0.3802 0.62109 0.0
C2106 C 0.61119 0.39198 0.6153 0.0
H2107 H 0.51078 0.46839 0.61206 0.0
H2108 H 0.54899 0.45231 0.61768 0.0
H2109 H 0.55714 0.37854 0.60314 0.0
H2110 H 0.66398 0.33074 0.61642 0.0
H2111 H 0.6329 0.35305 0.60505 0.0
C2112 C 0.25536 0.28072 0.20316 0.0
C2113 C 0.26871 0.30118 0.20375 0.0
C2114 C 0.25025 0.26831 0.21553 0.0
C2115 C 0.2501 0.27299 0.25497 0.0
H2116 H 0.24992 0.20556 0.25282 0.0
C2117 C 0.24284 0.21469 0.30474 0.0
C2118 C 0.22473 0.19828 0.30407 0.0
C2119 C 0.25003 0.22644 0.2925 0.0
C2120 C 0.2499 0.22438 0.25355 0.0
H2121 H 0.28684 0.32488 0.2179 0.0
H2122 H 0.27852 0.30295 0.23939 0.0
H2123 H 0.25807 0.22837 0.23153 0.0
H2124 H 0.20086 0.18037 0.28993 0.0
H2125 H 0.21375 0.20058 0.26854 0.0
H2126 H 0.24228 0.26883 0.27709 0.0
C2127 C 0.27153 0.29669 0.22941 0.0
C2128 C 0.25438 0.23748 0.24135 0.0
C2129 C 0.27638 0.30926 0.21706 0.0
C2130 C 0.21477 0.19302 0.2908 0.0
C2131 C 0.22221 0.20449 0.27855 0.0
C2132 C 0.24592 0.25987 0.2672 0.0
C2133 C 0.25863 0.2759 0.22879 0.0
C2134 C 0.25429 0.26197 0.24187 0.0
C2135 C 0.23952 0.22168 0.27933 0.0
C2136 C 0.24557 0.23546 0.26657 0.0
H2137 H 0.24901 0.27411 0.19309 0.0
H2138 H 0.23979 0.2527 0.21467 0.0
H2139 H 0.24954 0.29178 0.25575 0.0
H2140 H 0.25079 0.21917 0.31482 0.0
H2141 H 0.26356 0.2395 0.29334 0.0
C2142 C 0.04388 0.98559 0.54895 0.0
C2143 C 0.04967 0.96208 0.55115 0.0
C2144 C 0.03318 0.99263 0.53631 0.0
C2145 C 0.02096 0.97315 0.49933 0.0
H2146 H 0.97062 0.01789 0.50169 0.0
C2147 C 0.97471 0.00844 0.4494 0.0
C2148 C 0.95064 0.01268 0.45021 0.0
C2149 C 0.98733 0.00249 0.46154 0.0
C2150 C 0.98448 0.00519 0.50086 0.0
H2151 H 0.04904 0.92764 0.54159 0.0
H2152 H 0.03006 0.9398 0.51987 0.0
H2153 H 0.99213 0.00755 0.52305 0.0
H2154 H 0.92086 0.01333 0.46439 0.0
H2155 H 0.94277 0.00222 0.48549 0.0
H2156 H 0.01271 0.97003 0.47728 0.0
C2157 C 0.03414 0.95292 0.52775 0.0
C2158 C 0.99708 -0.00045 0.51308 0.0
C2159 C 0.04493 0.94592 0.5403 0.0
C2160 C 0.93939 0.01027 0.46339 0.0
C2161 C 0.952 0.0041 0.47552 0.0
C2162 C 0.00825 0.97864 0.48714 0.0
C2163 C 0.02794 0.97632 0.52562 0.0
C2164 C 0.01538 0.98334 0.51249 0.0
C2165 C 0.97618 0.00041 0.47478 0.0
C2166 C 0.98978 0.99465 0.48776 0.0
H2167 H 0.04738 0.99852 0.55705 0.0
H2168 H 0.02896 0.01086 0.53492 0.0
H2169 H 0.03515 0.96083 0.49843 0.0
H2170 H 0.98402 0.01036 0.43946 0.0
H2171 H 0.00596 0.00011 0.46059 0.0
C2172 C 0.24064 0.71665 0.70567 0.0
C2173 C 0.22813 0.69563 0.70569 0.0
C2174 C 0.24462 0.72869 0.71832 0.0
C2175 C 0.24386 0.72209 0.75757 0.0
H2176 H 0.24166 0.78955 0.75658 0.0
C2177 C 0.25221 0.77796 0.80829 0.0
C2178 C 0.26995 0.79476 0.80746 0.0
C2179 C 0.24427 0.76682 0.796 0.0
C2180 C 0.24229 0.77072 0.757 0.0
H2181 H 0.21029 0.6706 0.71911 0.0
H2182 H 0.21676 0.69185 0.74111 0.0
H2183 H 0.23421 0.76746 0.73492 0.0
H2184 H 0.29221 0.8141 0.79306 0.0
H2185 H 0.27805 0.79497 0.77163 0.0
H2186 H 0.25181 0.72549 0.77971 0.0
C2187 C 0.2239 0.69885 0.73135 0.0
C2188 C 0.23821 0.75804 0.74458 0.0
C2189 C 0.22014 0.68667 0.71871 0.0
C2190 C 0.27861 0.80114 0.79404 0.0
C2191 C 0.27043 0.79027 0.78177 0.0
C2192 C 0.24768 0.73478 0.77002 0.0
C2193 C 0.23595 0.72015 0.7313 0.0
C2194 C 0.23931 0.73357 0.74466 0.0
C2195 C 0.25363 0.7726 0.78266 0.0
C2196 C 0.24725 0.75922 0.7698 0.0
H2197 H 0.2472 0.72396 0.69584 0.0
H2198 H 0.25447 0.74474 0.71791 0.0
H2199 H 0.24513 0.7033 0.75801 0.0
H2200 H 0.24527 0.77263 0.81849 0.0
H2201 H 0.23116 0.75336 0.79694 0.0
C2202 C 0.45544 0.0489 0.04254 0.0
C2203 C 0.45148 0.03306 0.05368 0.0
C2204 C 0.46528 0.0415 0.02977 0.0
C2205 C 0.50163 0.99457 0.01493 0.0
H2206 H 0.48419 0.02284 0.97906 0.0
C2207 C 0.52221 0.98478 0.95103 0.0
C2208 C 0.54646 0.98152 0.95159 0.0
C2209 C 0.50971 0.99039 0.96328 0.0
C2210 C 0.48913 0.01456 0.98895 0.0
H2211 H 0.45397 0.99673 0.05984 0.0
H2212 H 0.47075 0.98374 0.03739 0.0
H2213 H 0.46261 0.03254 0.0005 0.0
H2214 H 0.5766 0.98205 0.96548 0.0
H2215 H 0.55489 0.99245 0.98676 0.0
H2216 H 0.5278 0.97617 0.00333 0.0
C2217 C 0.46668 0.00202 0.03869 0.0
C2218 C 0.47691 0.02034 0.00129 0.0
C2219 C 0.45692 0.00945 0.05153 0.0
C2220 C 0.55794 0.98435 0.96466 0.0
C2221 C 0.54545 0.99012 0.9769 0.0
C2222 C 0.51375 0.98867 0.00258 0.0
C2223 C 0.47128 0.01803 0.02774 0.0
C2224 C 0.48318 0.01062 0.01446 0.0
C2225 C 0.52116 0.99303 0.97639 0.0
C2226 C 0.50781 0.99879 0.98946 0.0
H2227 H 0.45152 0.06723 0.04377 0.0
H2228 H 0.46887 0.05439 0.02166 0.0
H2229 H 0.5071 0.98694 0.02491 0.0
H2230 H 0.51274 0.98255 0.94117 0.0
H2231 H 0.49099 0.99218 0.96252 0.0
C2232 C 0.25381 0.71598 0.29662 0.0
C2233 C 0.26773 0.69591 0.29576 0.0
C2234 C 0.24807 0.72847 0.28437 0.0
C2235 C 0.24745 0.72427 0.24487 0.0
H2236 H 0.24563 0.79166 0.24715 0.0
C2237 C 0.24068 0.78204 0.19506 0.0
C2238 C 0.22209 0.79794 0.19536 0.0
C2239 C 0.24771 0.77073 0.20748 0.0
C2240 C 0.24606 0.77285 0.2464 0.0
H2241 H 0.28626 0.67307 0.28127 0.0
H2242 H 0.27687 0.69513 0.26005 0.0
H2243 H 0.25407 0.76892 0.26845 0.0
H2244 H 0.19727 0.81552 0.20903 0.0
H2245 H 0.20989 0.79604 0.23076 0.0
H2246 H 0.23988 0.72836 0.22273 0.0
C2247 C 0.26988 0.70099 0.27012 0.0
C2248 C 0.2507 0.75978 0.2586 0.0
C2249 C 0.27536 0.68835 0.28234 0.0
C2250 C 0.21156 0.80325 0.20845 0.0
C2251 C 0.21882 0.79219 0.2209 0.0
C2252 C 0.24313 0.73735 0.23265 0.0
C2253 C 0.25636 0.72135 0.27098 0.0
C2254 C 0.25134 0.7353 0.25801 0.0
C2255 C 0.23654 0.77539 0.22045 0.0
C2256 C 0.2423 0.76174 0.23332 0.0
H2257 H 0.24752 0.7222 0.30679 0.0
H2258 H 0.23719 0.74375 0.28542 0.0
H2259 H 0.24736 0.70548 0.24403 0.0
H2260 H 0.24911 0.77754 0.18513 0.0
H2261 H 0.26157 0.75799 0.20691 0.0
C2262 C 0.4573 0.98468 0.45021 0.0
C2263 C 0.45076 0.96126 0.44846 0.0
C2264 C 0.46796 0.99209 0.46278 0.0
C2265 C 0.47853 0.97466 0.50028 0.0
H2266 H 0.53074 0.01712 0.49728 0.0
C2267 C 0.56069 0.0108 0.53599 0.0
C2268 C 0.54926 0.01502 0.54895 0.0
C2269 C 0.54808 0.00425 0.52394 0.0
C2270 C 0.51633 0.00508 0.49829 0.0
H2271 H 0.44998 0.92741 0.45876 0.0
H2272 H 0.46888 0.94021 0.4804 0.0
H2273 H 0.50939 0.00609 0.47597 0.0
H2274 H 0.51555 0.01542 0.55939 0.0
H2275 H 0.49361 0.0044 0.53837 0.0
H2276 H 0.486 0.97294 0.52251 0.0
C2277 C 0.46544 0.95297 0.47219 0.0
C2278 C 0.50385 0.99905 0.4861 0.0
C2279 C 0.45471 0.94559 0.4597 0.0
C2280 C 0.52498 0.01214 0.54963 0.0
C2281 C 0.51237 0.00575 0.53756 0.0
C2282 C 0.49109 0.98058 0.51245 0.0
C2283 C 0.47239 0.97625 0.47386 0.0
C2284 C 0.48488 0.98365 0.48693 0.0
C2285 C 0.52373 0.00191 0.52454 0.0
C2286 C 0.51022 0.99577 0.5116 0.0
H2287 H 0.45441 0.99725 0.44181 0.0
H2288 H 0.47278 0.01024 0.4638 0.0
H2289 H 0.46383 0.96299 0.50134 0.0
H2290 H 0.57938 0.01275 0.53509 0.0
H2291 H 0.55745 0.00099 0.51416 0.0
C2292 C 0.24112 0.28064 0.79454 0.0
C2293 C 0.22759 0.30102 0.7946 0.0
C2294 C 0.24581 0.26903 0.78181 0.0
C2295 C 0.24488 0.27657 0.74256 0.0
H2296 H 0.24662 0.20908 0.74281 0.0
C2297 C 0.25434 0.22269 0.69112 0.0
C2298 C 0.27292 0.20679 0.69146 0.0
C2299 C 0.24645 0.23309 0.70367 0.0
C2300 C 0.24617 0.22792 0.74261 0.0
H2301 H 0.20855 0.32526 0.78126 0.0
H2302 H 0.2162 0.30473 0.75918 0.0
H2303 H 0.23822 0.23007 0.76476 0.0
H2304 H 0.29683 0.18825 0.70525 0.0
H2305 H 0.28276 0.20609 0.72713 0.0
H2306 H 0.2526 0.27427 0.72034 0.0
C2307 C 0.22364 0.29795 0.76891 0.0
C2308 C 0.24154 0.23999 0.75519 0.0
C2309 C 0.21919 0.30971 0.78161 0.0
C2310 C 0.28257 0.20054 0.70464 0.0
C2311 C 0.27445 0.21066 0.71718 0.0
C2312 C 0.24922 0.26448 0.72996 0.0
C2313 C 0.23686 0.27735 0.76885 0.0
C2314 C 0.24112 0.26448 0.75537 0.0
C2315 C 0.25672 0.22745 0.71678 0.0
C2316 C 0.25016 0.24006 0.7299 0.0
H2317 H 0.24799 0.27354 0.80434 0.0
H2318 H 0.2565 0.25351 0.78215 0.0
H2319 H 0.24504 0.2954 0.74231 0.0
H2320 H 0.24661 0.2279 0.68111 0.0
H2321 H 0.23262 0.24587 0.7031 0.0
C2322 C 0.03845 0.05309 0.95713 0.0
C2323 C 0.04277 0.03694 0.94621 0.0
C2324 C 0.02807 0.04608 0.96983 0.0
C2325 C 0.99139 -0.00041 0.98495 0.0
H2326 H 0.00918 0.02816 0.02067 0.0
C2327 C 0.97236 0.98905 0.04891 0.0
C2328 C 0.94817 0.98532 0.04857 0.0
C2329 C 0.9844 0.99524 0.03659 0.0
C2330 C 0.00412 0.01983 0.01082 0.0
H2331 H 0.04013 0.00052 0.94031 0.0
H2332 H 0.02239 0.98819 0.96264 0.0
H2333 H 0.03053 0.03771 0.99912 0.0
H2334 H 0.91761 0.98582 0.03501 0.0
H2335 H 0.93855 0.99723 0.01361 0.0
H2336 H 0.96537 0.98124 0.99673 0.0
C2337 C 0.02664 0.00641 0.96122 0.0
C2338 C 0.0162 0.02552 0.99842 0.0
C2339 C 0.03695 0.01345 0.94845 0.0
C2340 C 0.93625 0.98846 0.03566 0.0
C2341 C 0.94829 0.99481 0.02335 0.0
C2342 C 0.97939 0.99379 0.99737 0.0
C2343 C 0.02187 0.0227 0.972 0.0
C2344 C 0.00986 0.01562 0.98531 0.0
C2345 C 0.97255 0.99801 0.02363 0.0
C2346 C 0.9855 0.00398 0.01044 0.0
H2347 H 0.04261 0.07135 0.95581 0.0
H2348 H 0.02435 0.05917 0.97779 0.0
H2349 H 0.98587 0.99182 0.97502 0.0
H2350 H 0.98217 0.98661 0.05863 0.0
H2351 H 0.00312 0.99727 0.03717 0.0
C2352 C 0.76961 0.77608 0.70093 0.0
C2353 C 0.7724 0.80038 0.70138 0.0
C2354 C 0.76448 0.7636 0.71326 0.0
C2355 C 0.74086 0.74273 0.7389 0.0
H2356 H 0.76682 0.76213 0.77505 0.0
C2357 C 0.70433 0.71015 0.79192 0.0
C2358 C 0.71944 0.70663 0.80348 0.0
C2359 C 0.71244 0.71979 0.77928 0.0
C2360 C 0.75969 0.75625 0.76502 0.0
H2361 H 0.77157 0.83066 0.71514 0.0
H2362 H 0.7618 0.80899 0.73657 0.0
H2363 H 0.77791 0.78257 0.75341 0.0
H2364 H 0.75523 0.70987 0.81059 0.0
H2365 H 0.76954 0.72634 0.7883 0.0
H2366 H 0.72312 0.71606 0.75042 0.0
C2367 C 0.76422 0.79948 0.72675 0.0
C2368 C 0.76575 0.76822 0.75263 0.0
C2369 C 0.7696 0.81195 0.71443 0.0
C2370 C 0.74309 0.71243 0.80192 0.0
C2371 C 0.75126 0.72201 0.78918 0.0
C2372 C 0.73497 0.73065 0.75125 0.0
C2373 C 0.76175 0.77513 0.72633 0.0
C2374 C 0.75614 0.76182 0.73944 0.0
C2375 C 0.73595 0.72602 0.77777 0.0
C2376 C 0.744 0.7375 0.7645 0.0
H2377 H 0.77193 0.76655 0.69109 0.0
H2378 H 0.76308 0.74485 0.71256 0.0
H2379 H 0.73295 0.7374 0.72898 0.0
H2380 H 0.68599 0.70597 0.79269 0.0
H2381 H 0.70005 0.72299 0.77084 0.0
C2382 C 0.73046 0.2236 0.20335 0.0
C2383 C 0.72748 0.19931 0.20359 0.0
C2384 C 0.73578 0.23574 0.21578 0.0
C2385 C 0.76011 0.25559 0.24148 0.0
H2386 H 0.73357 0.23645 0.27753 0.0
C2387 C 0.79606 0.2887 0.29457 0.0
C2388 C 0.78057 0.29311 0.30583 0.0
C2389 C 0.78829 0.27836 0.28205 0.0
C2390 C 0.7409 0.24222 0.26753 0.0
H2391 H 0.72802 0.16872 0.21711 0.0
H2392 H 0.738 0.18983 0.23872 0.0
H2393 H 0.72226 0.21633 0.2558 0.0
H2394 H 0.74455 0.2904 0.31259 0.0
H2395 H 0.73087 0.27266 0.29052 0.0
H2396 H 0.77829 0.28183 0.25311 0.0
C2397 C 0.73567 0.19957 0.22897 0.0
C2398 C 0.73468 0.23045 0.25509 0.0
C2399 C 0.73014 0.18743 0.21655 0.0
C2400 C 0.75698 0.28718 0.30415 0.0
C2401 C 0.74916 0.2769 0.29154 0.0
C2402 C 0.76618 0.26744 0.25388 0.0
C2403 C 0.73846 0.22389 0.22875 0.0
C2404 C 0.74441 0.23684 0.24193 0.0
C2405 C 0.76477 0.27228 0.28037 0.0
C2406 C 0.75691 0.26071 0.26708 0.0
H2407 H 0.72826 0.23338 0.19359 0.0
H2408 H 0.73742 0.25449 0.21524 0.0
H2409 H 0.76812 0.26087 0.23158 0.0
H2410 H 0.81438 0.29289 0.29546 0.0
H2411 H 0.8009 0.27467 0.2738 0.0
C2412 C 0.76347 0.18896 0.7847 0.0
C2413 C 0.76659 0.20051 0.79774 0.0
C2414 C 0.75789 0.20147 0.77243 0.0
C2415 C 0.7345 0.25822 0.76034 0.0
H2416 H 0.76155 0.23977 0.7243 0.0
C2417 C 0.70058 0.2931 0.70703 0.0
C2418 C 0.71644 0.29712 0.69591 0.0
C2419 C 0.70784 0.28276 0.71967 0.0
C2420 C 0.75409 0.24536 0.73431 0.0
H2421 H 0.76631 0.23435 0.80803 0.0
H2422 H 0.75701 0.25608 0.78664 0.0
H2423 H 0.77195 0.21874 0.74586 0.0
H2424 H 0.75265 0.29404 0.68961 0.0
H2425 H 0.76543 0.27633 0.71187 0.0
H2426 H 0.71707 0.28517 0.74886 0.0
C2427 C 0.75841 0.23732 0.78593 0.0
C2428 C 0.75976 0.23306 0.74664 0.0
C2429 C 0.76382 0.22482 0.79822 0.0
C2430 C 0.73993 0.29111 0.69792 0.0
C2431 C 0.74724 0.28081 0.71064 0.0
C2432 C 0.72894 0.27059 0.74803 0.0
C2433 C 0.75546 0.22582 0.77287 0.0
C2434 C 0.74986 0.2392 0.75979 0.0
C2435 C 0.7312 0.27629 0.7216 0.0
C2436 C 0.73845 0.26415 0.73483 0.0
H2437 H 0.76541 0.17025 0.78395 0.0
H2438 H 0.75533 0.192 0.7626 0.0
H2439 H 0.72638 0.26333 0.77024 0.0
H2440 H 0.68233 0.29745 0.7059 0.0
H2441 H 0.69494 0.27924 0.72778 0.0
C2442 C 0.71435 0.808 0.28178 0.0
C2443 C 0.72322 0.80033 0.29489 0.0
C2444 C 0.71949 0.79598 0.26926 0.0
C2445 C 0.74109 0.73872 0.25636 0.0
H2446 H 0.75032 0.7724 0.2211 0.0
C2447 C 0.78374 0.69935 0.20625 0.0
C2448 C 0.77321 0.70416 0.19308 0.0
C2449 C 0.77565 0.70992 0.21865 0.0
C2450 C 0.7475 0.76277 0.23084 0.0
H2451 H 0.74504 0.7744 0.30506 0.0
H2452 H 0.7547 0.75398 0.2832 0.0
H2453 H 0.74125 0.79379 0.24277 0.0
H2454 H 0.74555 0.72338 0.18266 0.0
H2455 H 0.73163 0.74216 0.2044 0.0
H2456 H 0.74821 0.70776 0.24442 0.0
C2457 C 0.74315 0.76884 0.28261 0.0
C2458 C 0.74227 0.77499 0.24327 0.0
C2459 C 0.73777 0.78068 0.29515 0.0
C2460 C 0.75399 0.71928 0.19265 0.0
C2461 C 0.74612 0.73014 0.20505 0.0
C2462 C 0.74662 0.72654 0.24397 0.0
C2463 C 0.73387 0.77617 0.26952 0.0
C2464 C 0.73909 0.76314 0.25622 0.0
C2465 C 0.75706 0.72575 0.21813 0.0
C2466 C 0.74995 0.73846 0.23111 0.0
H2467 H 0.70292 0.82296 0.28121 0.0
H2468 H 0.71174 0.80196 0.25943 0.0
H2469 H 0.73827 0.72893 0.26605 0.0
H2470 H 0.79851 0.68769 0.20694 0.0
H2471 H 0.78448 0.70634 0.22859 0.0
C2472 C 0.5418 0.44848 0.04024 0.0
C2473 C 0.54592 0.46439 0.05132 0.0
C2474 C 0.53155 0.45573 0.02757 0.0
C2475 C 0.49484 0.50243 0.0127 0.0
H2476 H 0.51259 0.47416 0.97689 0.0
C2477 C 0.47513 0.51234 0.94871 0.0
C2478 C 0.45091 0.51581 0.94912 0.0
C2479 C 0.48738 0.50662 0.96103 0.0
C2480 C 0.50755 0.48243 0.98676 0.0
H2481 H 0.54311 0.50067 0.05751 0.0
H2482 H 0.52563 0.51345 0.03519 0.0
H2483 H 0.53406 0.46457 0.99836 0.0
H2484 H 0.42053 0.51549 0.96283 0.0
H2485 H 0.44182 0.50483 0.98424 0.0
H2486 H 0.46871 0.52077 0.00102 0.0
C2487 C 0.52991 0.49521 0.03648 0.0
C2488 C 0.5197 0.47671 0.99912 0.0
C2489 C 0.54008 0.48792 0.04924 0.0
C2490 C 0.43919 0.51302 0.96213 0.0
C2491 C 0.45143 0.50711 0.97444 0.0
C2492 C 0.48278 0.50828 0.00031 0.0
C2493 C 0.5253 0.47914 0.02555 0.0
C2494 C 0.51334 0.48643 0.01227 0.0
C2495 C 0.47572 0.50402 0.97406 0.0
C2496 C 0.48884 0.49819 0.98721 0.0
H2497 H 0.54598 0.4302 0.04144 0.0
H2498 H 0.52794 0.4428 0.01949 0.0
H2499 H 0.4893 0.51007 0.02266 0.0
H2500 H 0.48479 0.51456 0.93891 0.0
H2501 H 0.5061 0.50472 0.96037 0.0
C2502 C 0.06473 0.47972 0.46279 0.0
C2503 C 0.05216 0.47672 0.45011 0.0
C2504 C 0.05332 0.48617 0.47531 0.0
C2505 C 0.99654 0.48443 0.49291 0.0
H2506 H 0.02049 0.53548 0.51555 0.0
C2507 C 0.96189 0.51025 0.54901 0.0
C2508 C 0.95771 0.53419 0.55087 0.0
C2509 C 0.97289 0.50213 0.53668 0.0
C2510 C 0.01363 0.52118 0.50933 0.0
H2511 H 0.01769 0.47806 0.44065 0.0
H2512 H 0.99786 0.48917 0.46254 0.0
H2513 H 0.04114 0.52361 0.49404 0.0
H2514 H 0.96135 0.56824 0.54101 0.0
H2515 H 0.9806 0.55404 0.51976 0.0
H2516 H 0.96897 0.4821 0.50823 0.0
C2517 C 0.01653 0.48652 0.46276 0.0
C2518 C 0.02552 0.51431 0.49709 0.0
C2519 C 0.02794 0.48038 0.45021 0.0
C2520 C 0.96429 0.5497 0.54001 0.0
C2521 C 0.97548 0.54162 0.52784 0.0
C2522 C 0.98481 0.49112 0.50527 0.0
C2523 C 0.0291 0.48941 0.47542 0.0
C2524 C 0.01695 0.49604 0.48869 0.0
C2525 C 0.98015 0.51784 0.52613 0.0
C2526 C 0.99311 0.50975 0.51348 0.0
H2527 H 0.08338 0.477 0.46309 0.0
H2528 H 0.0634 0.48821 0.48496 0.0
H2529 H 0.9897 0.47015 0.48665 0.0
H2530 H 0.957 0.49784 0.55714 0.0
H2531 H 0.97633 0.48368 0.53559 0.0
C2532 C 0.03049 0.50447 0.05009 0.0
C2533 C 0.05043 0.51862 0.0497 0.0
C2534 C 0.01845 0.49919 0.0376 0.0
C2535 C 0.02436 0.49984 0.99823 0.0
H2536 H 0.95701 0.49562 -0.00056 0.0
C2537 C 0.96878 0.49031 0.94758 0.0
C2538 C 0.95363 0.4711 0.9478 0.0
C2539 C 0.9794 0.49796 0.9601 0.0
C2540 C 0.97582 0.49675 0.99898 0.0
H2541 H 0.07338 0.53826 0.03585 0.0
H2542 H 0.05207 0.52967 0.0142 0.0
H2543 H 0.97852 0.50476 0.0211 0.0
H2544 H 0.93669 0.44573 0.9614 0.0
H2545 H 0.95493 0.45942 0.98327 0.0
H2546 H 0.02149 0.49219 0.97602 0.0
C2547 C 0.046 0.52212 0.02408 0.0
C2548 C 0.98818 0.5018 0.01139 0.0
C2549 C 0.05821 0.52714 0.03653 0.0
C2550 C 0.94839 0.46049 0.96088 0.0
C2551 C 0.95873 0.46838 0.97341 0.0
C2552 C 0.01197 0.49512 0.9858 0.0
C2553 C 0.02588 0.50818 0.02445 0.0
C2554 C 0.01265 0.50321 0.0112 0.0
C2555 C 0.97474 0.48681 0.97307 0.0
C2556 C 0.98761 0.49335 0.98609 0.0
H2557 H 0.02411 0.49751 0.06005 0.0
H2558 H 0.00333 0.48799 0.03827 0.0
H2559 H 0.04318 0.50037 0.99769 0.0
H2560 H 0.9732 0.4988 0.93766 0.0
H2561 H 0.99156 0.51235 0.9596 0.0
C2562 C 0.54057 0.51271 0.44673 0.0
C2563 C 0.54679 0.53603 0.44422 0.0
C2564 C 0.52966 0.50632 0.45943 0.0
C2565 C 0.5182 0.52692 0.4962 0.0
H2566 H 0.46769 0.48227 0.49465 0.0
C2567 C 0.43834 0.48976 0.53355 0.0
C2568 C 0.45025 0.48709 0.5465 0.0
C2569 C 0.45034 0.49598 0.5212 0.0
C2570 C 0.4816 0.49494 0.49525 0.0
H2571 H 0.54661 0.57083 0.45325 0.0
H2572 H 0.52728 0.55977 0.47514 0.0
H2573 H 0.48845 0.49242 0.47296 0.0
H2574 H 0.48422 0.489 0.55657 0.0
H2575 H 0.50509 0.4994 0.53505 0.0
H2576 H 0.51084 0.53007 0.51838 0.0
C2577 C 0.53118 0.54632 0.46744 0.0
C2578 C 0.49376 0.5005 0.48285 0.0
C2579 C 0.54218 0.55269 0.4548 0.0
C2580 C 0.47441 0.49107 0.54683 0.0
C2581 C 0.48641 0.49713 0.53447 0.0
C2582 C 0.50597 0.52147 0.50858 0.0
C2583 C 0.52464 0.52309 0.46988 0.0
C2584 C 0.51218 0.5166 0.48316 0.0
C2585 C 0.47456 0.49953 0.52148 0.0
C2586 C 0.48749 0.50544 0.50827 0.0
H2587 H 0.54397 0.4994 0.43885 0.0
H2588 H 0.5252 0.4882 0.46106 0.0
H2589 H 0.53247 0.53919 0.49687 0.0
H2590 H 0.41973 0.48691 0.53291 0.0
H2591 H 0.44059 0.49807 0.51143 0.0
C2592 C 0.29405 0.16235 0.36511 0.0
C2593 C 0.2797 0.15143 0.35502 0.0
C2594 C 0.31423 0.1513 0.37 0.0
C2595 C 0.34139 0.11394 0.38612 0.0
H2596 H 0.38075 0.0758 0.36207 0.0
C2597 C 0.38269 0.02829 0.40421 0.0
C2598 C 0.40461 0.02182 0.39894 0.0
C2599 C 0.37227 0.04904 0.39985 0.0
C2600 C 0.37025 0.08668 0.36895 0.0
H2601 H 0.27593 0.12113 0.34148 0.0
H2602 H 0.31107 0.10197 0.34991 0.0
H2603 H 0.35421 0.10384 0.35128 0.0
H2604 H 0.43339 0.03256 0.38554 0.0
H2605 H 0.41503 0.06883 0.37781 0.0
H2606 H 0.35676 0.09609 0.40377 0.0
C2607 C 0.30684 0.11903 0.35407 0.0
C2608 C 0.35491 0.10258 0.36276 0.0
C2609 C 0.2866 0.12994 0.34931 0.0
C2610 C 0.41645 0.03707 0.38976 0.0
C2611 C 0.40591 0.05777 0.38529 0.0
C2612 C 0.35663 0.09793 0.39231 0.0
C2613 C 0.32053 0.12929 0.36474 0.0
C2614 C 0.33979 0.11582 0.37126 0.0
C2615 C 0.38349 0.06369 0.39005 0.0
C2616 C 0.37067 0.0836 0.38377 0.0
H2617 H 0.28918 0.17894 0.3697 0.0
H2618 H 0.32456 0.15967 0.37816 0.0
H2619 H 0.32986 0.1238 0.39296 0.0
H2620 H 0.37317 0.01694 0.41134 0.0
H2621 H 0.35488 0.05296 0.4036 0.0
C2622 C 0.08581 0.03905 0.60919 0.0
C2623 C 0.09715 0.02341 0.60003 0.0
C2624 C 0.09679 0.05968 0.61338 0.0
C2625 C 0.13343 0.08871 0.62891 0.0
H2626 H 0.17175 0.12592 0.6037 0.0
C2627 C 0.21639 0.13608 0.64655 0.0
C2628 C 0.22167 0.15787 0.64061 0.0
C2629 C 0.19667 0.12385 0.64217 0.0
C2630 C 0.16084 0.11598 0.61086 0.0
H2631 H 0.1282 0.01769 0.5874 0.0
H2632 H 0.14722 0.0537 0.5946 0.0
H2633 H 0.14498 0.09721 0.59374 0.0
H2634 H 0.20995 0.18442 0.62588 0.0
H2635 H 0.17553 0.16282 0.61807 0.0
H2636 H 0.14998 0.10682 0.64605 0.0
C2637 C 0.1299 0.05007 0.59856 0.0
C2638 C 0.14567 0.09943 0.60516 0.0
C2639 C 0.11906 0.02937 0.59451 0.0
C2640 C 0.20631 0.16764 0.63064 0.0
C2641 C 0.18669 0.15526 0.62612 0.0
C2642 C 0.14875 0.10512 0.63461 0.0
C2643 C 0.11914 0.06515 0.60832 0.0
C2644 C 0.13228 0.08521 0.61414 0.0
C2645 C 0.18193 0.13305 0.63166 0.0
C2646 C 0.16305 0.11847 0.62566 0.0
H2647 H 0.0689 0.03492 0.61361 0.0
H2648 H 0.08805 0.07107 0.62083 0.0
H2649 H 0.12344 0.07789 0.6361 0.0
H2650 H 0.22786 0.12813 0.65429 0.0
H2651 H 0.19359 0.10667 0.64652 0.0
C2652 C 0.21345 0.86432 0.85271 0.0
C2653 C 0.21981 0.84302 0.8589 0.0
C2654 C 0.1935 0.87601 0.85724 0.0
C2655 C 0.15866 0.88406 0.88894 0.0
H2656 H 0.11894 0.91939 0.86354 0.0
C2657 C 0.11449 0.97004 0.90418 0.0
C2658 C 0.09235 0.97513 0.89868 0.0
C2659 C 0.1258 0.94941 0.90047 0.0
C2660 C 0.12957 0.90933 0.8708 0.0
H2661 H 0.20982 0.81675 0.87429 0.0
H2662 H 0.17497 0.83743 0.88236 0.0
H2663 H 0.14608 0.8909 0.85377 0.0
H2664 H 0.06416 0.96211 0.88556 0.0
H2665 H 0.08409 0.92609 0.87898 0.0
H2666 H 0.1428 0.90317 0.90593 0.0
C2667 C 0.18547 0.84501 0.87399 0.0
C2668 C 0.14524 0.89317 0.86519 0.0
C2669 C 0.20533 0.83316 0.86933 0.0
C2670 C 0.08126 0.95868 0.88994 0.0
C2671 C 0.09268 0.93812 0.88612 0.0
C2672 C 0.14312 0.90036 0.89455 0.0
C2673 C 0.1796 0.86675 0.86815 0.0
C2674 C 0.16039 0.88086 0.87417 0.0
C2675 C 0.11528 0.93353 0.8911 0.0
C2676 C 0.12888 0.91361 0.8855 0.0
H2677 H 0.22424 0.87232 0.84463 0.0
H2678 H 0.18957 0.89285 0.85265 0.0
H2679 H 0.17022 0.87492 0.89612 0.0
H2680 H 0.12345 0.98235 0.91097 0.0
H2681 H 0.1433 0.94649 0.90437 0.0
C2682 C 0.28374 0.86417 0.1498 0.0
C2683 C 0.27704 0.84279 0.14386 0.0
C2684 C 0.30394 0.87534 0.1452 0.0
C2685 C 0.35246 0.89152 0.13701 0.0
H2686 H 0.35416 0.90089 0.0962 0.0
C2687 C 0.41622 0.95634 0.1113 0.0
C2688 C 0.4049 0.97281 0.10269 0.0
C2689 C 0.40482 0.93587 0.11533 0.0
C2690 C 0.35406 0.89823 0.1076 0.0
H2691 H 0.28669 0.8158 0.12887 0.0
H2692 H 0.32196 0.83562 0.12062 0.0
H2693 H 0.32677 0.87293 0.10637 0.0
H2694 H 0.37338 0.98016 0.09084 0.0
H2695 H 0.35358 0.94443 0.09778 0.0
H2696 H 0.37895 0.91761 0.13831 0.0
C2697 C 0.31155 0.84363 0.12888 0.0
C2698 C 0.33854 0.8821 0.11341 0.0
C2699 C 0.29146 0.83228 0.13364 0.0
C2700 C 0.38252 0.96783 0.09753 0.0
C2701 C 0.37124 0.94729 0.10143 0.0
C2702 C 0.36812 0.90748 0.1312 0.0
C2703 C 0.31773 0.86548 0.13444 0.0
C2704 C 0.33706 0.87917 0.12821 0.0
C2705 C 0.38202 0.93139 0.11067 0.0
C2706 C 0.36853 0.91155 0.11647 0.0
H2707 H 0.273 0.87265 0.15773 0.0
H2708 H 0.30811 0.89227 0.14957 0.0
H2709 H 0.35178 0.88946 0.14845 0.0
H2710 H 0.4335 0.95969 0.11543 0.0
H2711 H 0.41359 0.92383 0.12239 0.0
C2712 C 0.72894 0.8593 0.63943 0.0
C2713 C 0.73567 0.86247 0.65365 0.0
C2714 C 0.71008 0.87159 0.63384 0.0
C2715 C 0.6754 0.92491 0.64085 0.0
H2716 H 0.63964 0.90246 0.60869 0.0
C2717 C 0.60415 0.98021 0.61416 0.0
C2718 C 0.60884 0.98439 0.59972 0.0
C2719 C 0.61588 0.96257 0.62145 0.0
C2720 C 0.64943 0.90884 0.61773 0.0
H2721 H 0.72711 0.87986 0.67339 0.0
H2722 H 0.69348 0.90042 0.66388 0.0
H2723 H 0.6666 0.87622 0.62078 0.0
H2724 H 0.62843 0.97251 0.58139 0.0
H2725 H 0.64849 0.9413 0.5941 0.0
H2726 H 0.65795 0.95745 0.63781 0.0
C2727 C 0.70329 0.88921 0.65684 0.0
C2728 C 0.66502 0.89392 0.6246 0.0
C2729 C 0.72247 0.87729 0.66235 0.0
C2730 C 0.62452 0.96976 0.59253 0.0
C2731 C 0.6359 0.95183 0.59976 0.0
C2732 C 0.6595 0.93963 0.63416 0.0
C2733 C 0.6972 0.88702 0.6424 0.0
C2734 C 0.67864 0.90192 0.63606 0.0
C2735 C 0.63213 0.94849 0.61436 0.0
C2736 C 0.64675 0.93188 0.62237 0.0
H2737 H 0.73891 0.84812 0.63244 0.0
H2738 H 0.70629 0.86966 0.62263 0.0
H2739 H 0.68581 0.93197 0.64941 0.0
H2740 H 0.59225 0.99126 0.62001 0.0
H2741 H 0.61268 0.96026 0.63271 0.0
C2742 C 0.86357 0.9767 0.40618 0.0
C2743 C 0.88581 0.9829 0.40118 0.0
C2744 C 0.85039 0.95992 0.39913 0.0
C2745 C 0.85138 0.91144 0.37378 0.0
H2746 H 0.78891 0.93266 0.365 0.0
C2747 C 0.77576 0.85315 0.35263 0.0
C2748 C 0.76123 0.86307 0.34221 0.0
C2749 C 0.7937 0.86621 0.35878 0.0
C2750 C 0.80635 0.92654 0.36727 0.0
H2751 H 0.91214 0.97512 0.38532 0.0
H2752 H 0.88896 0.94558 0.37304 0.0
H2753 H 0.81492 0.95766 0.37854 0.0
H2754 H 0.75529 0.89404 0.32946 0.0
H2755 H 0.7864 0.91663 0.34022 0.0
H2756 H 0.8425 0.88012 0.36253 0.0
C2757 C 0.88184 0.9539 0.38241 0.0
C2758 C 0.82115 0.94074 0.37516 0.0
C2759 C 0.89505 0.97088 0.38943 0.0
C2760 C 0.76594 0.88584 0.33753 0.0
C2761 C 0.78372 0.89887 0.34373 0.0
C2762 C 0.83638 0.89702 0.366 0.0
C2763 C 0.85913 0.94879 0.38697 0.0
C2764 C 0.84377 0.93335 0.37854 0.0
C2765 C 0.79735 0.88943 0.35469 0.0
C2766 C 0.81374 0.90451 0.36264 0.0
H2767 H 0.85589 0.98538 0.41526 0.0
H2768 H 0.83305 0.95604 0.403 0.0
H2769 H 0.86874 0.90534 0.37627 0.0
H2770 H 0.77273 0.83563 0.35645 0.0
H2771 H 0.80392 0.85853 0.36724 0.0
C2772 C 0.78041 0.12643 0.16337 0.0
C2773 C 0.76622 0.14051 0.1548 0.0
C2774 C 0.79937 0.1146 0.15751 0.0
C2775 C 0.83471 0.10819 0.12412 0.0
H2776 H 0.84341 0.04558 0.13856 0.0
C2777 C 0.87349 0.03057 0.09268 0.0
C2778 C 0.89 0.01671 0.09974 0.0
C2779 C 0.86234 0.04878 0.09979 0.0
C2780 C 0.8414 0.06314 0.13455 0.0
H2781 H 0.76103 0.15379 0.13349 0.0
H2782 H 0.79327 0.13236 0.1231 0.0
H2783 H 0.81647 0.07163 0.15047 0.0
H2784 H 0.90825 0.01152 0.11969 0.0
H2785 H 0.88824 0.043 0.13219 0.0
H2786 H 0.85867 0.09874 0.10758 0.0
C2787 C 0.79044 0.13096 0.13444 0.0
C2788 C 0.82604 0.07821 0.14142 0.0
C2789 C 0.77182 0.1432 0.14038 0.0
C2790 C 0.89568 0.02193 0.11393 0.0
C2791 C 0.8842 0.03986 0.12111 0.0
C2792 C 0.84974 0.0929 0.11707 0.0
C2793 C 0.8042 0.11608 0.14286 0.0
C2794 C 0.82224 0.10089 0.13622 0.0
C2795 C 0.86719 0.05319 0.11416 0.0
C2796 C 0.85303 0.07019 0.12217 0.0
H2797 H 0.77663 0.12425 0.17457 0.0
H2798 H 0.80991 0.1039 0.16446 0.0
H2799 H 0.83267 0.12563 0.11994 0.0
H2800 H 0.86881 0.02703 0.08173 0.0
H2801 H 0.84915 0.05874 0.09424 0.0
C2802 C 0.61946 0.03373 0.91134 0.0
C2803 C 0.606 0.01887 0.90284 0.0
C2804 C 0.63105 0.05269 0.90533 0.0
C2805 C 0.63795 0.08664 0.87143 0.0
H2806 H 0.69979 0.09728 0.88659 0.0
C2807 C 0.71643 0.12532 0.84062 0.0
C2808 C 0.72979 0.14223 0.8477 0.0
C2809 C 0.6979 0.11435 0.84754 0.0
C2810 C 0.68244 0.09473 0.88236 0.0
H2811 H 0.59355 0.01245 0.88146 0.0
H2812 H 0.61463 0.04469 0.87081 0.0
H2813 H 0.67386 0.07036 0.89858 0.0
H2814 H 0.73362 0.16149 0.86742 0.0
H2815 H 0.70161 0.14185 0.87956 0.0
H2816 H 0.64756 0.11004 0.85462 0.0
C2817 C 0.61571 0.04239 0.88221 0.0
C2818 C 0.66743 0.07938 0.88928 0.0
C2819 C 0.60367 0.02377 0.8883 0.0
C2820 C 0.72364 0.14859 0.86164 0.0
C2821 C 0.70539 0.13732 0.86862 0.0
C2822 C 0.6532 0.10167 0.86434 0.0
C2823 C 0.62998 0.05684 0.89059 0.0
C2824 C 0.64504 0.07488 0.88384 0.0
C2825 C 0.69267 0.11981 0.86172 0.0
C2826 C 0.67563 0.10566 0.8697 0.0
H2827 H 0.62133 0.03047 0.92263 0.0
H2828 H 0.64127 0.06377 0.91223 0.0
H2829 H 0.62073 0.08404 0.86705 0.0
H2830 H 0.72068 0.1201 0.82986 0.0
H2831 H 0.68841 0.10077 0.84204 0.0
C2832 C 0.77818 0.63094 0.84554 0.0
C2833 C 0.77484 0.65303 0.85159 0.0
C2834 C 0.79704 0.6172 0.84962 0.0
C2835 C 0.85308 0.6159 0.86919 0.0
H2836 H 0.83282 0.55333 0.87846 0.0
C2837 C 0.91374 0.53893 0.88625 0.0
C2838 C 0.90465 0.52383 0.89662 0.0
C2839 C 0.90026 0.55741 0.88107 0.0
C2840 C 0.83875 0.57078 0.87603 0.0
H2841 H 0.78949 0.67874 0.86589 0.0
H2842 H 0.82235 0.65449 0.8732 0.0
H2843 H 0.80565 0.58023 0.86759 0.0
H2844 H 0.87532 0.5174 0.91058 0.0
H2845 H 0.8521 0.54967 0.90174 0.0
H2846 H 0.88625 0.6062 0.87795 0.0
C2847 C 0.81047 0.6479 0.86522 0.0
C2848 C 0.82326 0.58611 0.86959 0.0
C2849 C 0.7916 0.66175 0.86108 0.0
C2850 C 0.88266 0.52853 0.90244 0.0
C2851 C 0.86931 0.54696 0.89734 0.0
C2852 C 0.86873 0.60039 0.87561 0.0
C2853 C 0.81288 0.62516 0.85991 0.0
C2854 C 0.83016 0.60887 0.86612 0.0
C2855 C 0.87757 0.56102 0.88622 0.0
C2856 C 0.86158 0.57775 0.87923 0.0
H2857 H 0.76573 0.62386 0.83806 0.0
H2858 H 0.79873 0.59995 0.84509 0.0
H2859 H 0.85889 0.63332 0.86661 0.0
H2860 H 0.93066 0.5357 0.88158 0.0
H2861 H 0.90707 0.568 0.8725 0.0
C2862 C 0.7039 0.66649 0.13243 0.0
C2863 C 0.71859 0.65604 0.14252 0.0
C2864 C 0.68386 0.65497 0.12774 0.0
C2865 C 0.64386 0.60611 0.13571 0.0
H2866 H 0.64133 0.59838 0.09479 0.0
C2867 C 0.58095 0.54085 0.10958 0.0
C2868 C 0.59242 0.52509 0.10055 0.0
C2869 C 0.59196 0.56141 0.11385 0.0
C2870 C 0.64166 0.60057 0.10622 0.0
H2871 H 0.72312 0.62609 0.15627 0.0
H2872 H 0.68817 0.60613 0.14819 0.0
H2873 H 0.66843 0.62641 0.10513 0.0
H2874 H 0.62374 0.51913 0.08822 0.0
H2875 H 0.64284 0.55498 0.09558 0.0
H2876 H 0.61793 0.57944 0.13685 0.0
C2877 C 0.69206 0.62317 0.14388 0.0
C2878 C 0.65702 0.61674 0.11214 0.0
C2879 C 0.71219 0.63454 0.14843 0.0
C2880 C 0.6145 0.53089 0.09523 0.0
C2881 C 0.62538 0.55152 0.09937 0.0
C2882 C 0.62837 0.59007 0.12979 0.0
C2883 C 0.67802 0.63298 0.13322 0.0
C2884 C 0.65881 0.61911 0.12696 0.0
C2885 C 0.61449 0.56669 0.10902 0.0
C2886 C 0.62768 0.58659 0.11501 0.0
H2887 H 0.7084 0.68307 0.12769 0.0
H2888 H 0.67325 0.66299 0.11958 0.0
H2889 H 0.64475 0.60774 0.14717 0.0
H2890 H 0.5639 0.53684 0.11384 0.0
H2891 H 0.58311 0.57288 0.12122 0.0
C2892 C 0.71495 0.36287 0.34976 0.0
C2893 C 0.72175 0.34145 0.35561 0.0
C2894 C 0.69455 0.37376 0.3543 0.0
C2895 C 0.64606 0.38992 0.36245 0.0
H2896 H 0.64313 0.39701 0.4034 0.0
C2897 C 0.58292 0.45491 0.38833 0.0
C2898 C 0.59434 0.47064 0.39739 0.0
C2899 C 0.59382 0.4342 0.38422 0.0
C2900 C 0.64357 0.39499 0.39196 0.0
H2901 H 0.71198 0.31405 0.3703 0.0
H2902 H 0.67634 0.33329 0.37837 0.0
H2903 H 0.67064 0.36947 0.39299 0.0
H2904 H 0.62534 0.47632 0.41006 0.0
H2905 H 0.64427 0.44024 0.40298 0.0
H2906 H 0.61988 0.41632 0.36138 0.0
C2907 C 0.68685 0.34161 0.37027 0.0
C2908 C 0.65916 0.37909 0.386 0.0
C2909 C 0.70717 0.33057 0.3656 0.0
C2910 C 0.61615 0.46459 0.40301 0.0
C2911 C 0.62693 0.44382 0.39903 0.0
C2912 C 0.63036 0.40569 0.36841 0.0
C2913 C 0.68062 0.36355 0.36488 0.0
C2914 C 0.66113 0.37699 0.37116 0.0
C2915 C 0.6162 0.42875 0.38925 0.0
C2916 C 0.62952 0.40897 0.38321 0.0
H2917 H 0.72579 0.37164 0.34201 0.0
H2918 H 0.69036 0.39077 0.35005 0.0
H2919 H 0.64707 0.38849 0.35098 0.0
H2920 H 0.56607 0.45909 0.38384 0.0
H2921 H 0.58507 0.4228 0.37677 0.0
C2922 C 0.91227 0.46257 0.60959 0.0
C2923 C 0.90319 0.47861 0.59976 0.0
C2924 C 0.89861 0.44402 0.61444 0.0
C2925 C 0.83696 0.4312 0.61984 0.0
H2926 H 0.85758 0.36878 0.6292 0.0
C2927 C 0.77876 0.37203 0.65264 0.0
C2928 C 0.77488 0.34973 0.64703 0.0
C2929 C 0.79724 0.38557 0.64777 0.0
C2930 C 0.85161 0.38615 0.62661 0.0
H2931 H 0.87352 0.48669 0.5864 0.0
H2932 H 0.84993 0.4542 0.59465 0.0
H2933 H 0.88435 0.39575 0.61726 0.0
H2934 H 0.78827 0.32342 0.63268 0.0
H2935 H 0.82053 0.34732 0.62399 0.0
H2936 H 0.80429 0.42182 0.62895 0.0
C2937 C 0.86734 0.45625 0.5989 0.0
C2938 C 0.86694 0.40159 0.61985 0.0
C2939 C 0.8809 0.47479 0.59412 0.0
C2940 C 0.79084 0.34058 0.63718 0.0
C2941 C 0.80933 0.35424 0.63223 0.0
C2942 C 0.82178 0.41591 0.62661 0.0
C2943 C 0.87569 0.4412 0.60952 0.0
C2944 C 0.85969 0.42426 0.61635 0.0
C2945 C 0.81215 0.37721 0.63709 0.0
C2946 C 0.82891 0.39325 0.63013 0.0
H2947 H 0.92942 0.46506 0.61412 0.0
H2948 H 0.90552 0.43273 0.62264 0.0
H2949 H 0.83093 0.44866 0.61753 0.0
H2950 H 0.76693 0.37944 0.66038 0.0
H2951 H 0.79931 0.403 0.65198 0.0
C2952 C 0.1061 0.47664 0.11394 0.0
C2953 C 0.10817 0.48199 0.09944 0.0
C2954 C 0.11869 0.45819 0.1198 0.0
C2955 C 0.17116 0.42245 0.11217 0.0
H2956 H 0.152 0.3901 0.1464 0.0
C2957 C 0.2279 0.35213 0.13855 0.0
C2958 C 0.23407 0.3578 0.1526 0.0
C2959 C 0.20974 0.36384 0.13176 0.0
C2960 C 0.15745 0.39896 0.1368 0.0
H2961 H 0.12368 0.47136 0.0795 0.0
H2962 H 0.1446 0.43835 0.08949 0.0
H2963 H 0.12471 0.41622 0.13446 0.0
H2964 H 0.22519 0.37924 0.17078 0.0
H2965 H 0.19303 0.39932 0.15895 0.0
H2966 H 0.20378 0.40486 0.11447 0.0
C2967 C 0.13415 0.44896 0.09654 0.0
C2968 C 0.14194 0.41406 0.12999 0.0
C2969 C 0.122 0.46776 0.09075 0.0
C2970 C 0.2209 0.37456 0.15994 0.0
C2971 C 0.20244 0.38595 0.15322 0.0
C2972 C 0.18644 0.40702 0.1188 0.0
C2973 C 0.13328 0.44434 0.11123 0.0
C2974 C 0.14874 0.42639 0.11773 0.0
C2975 C 0.1971 0.38109 0.13897 0.0
C2976 C 0.17988 0.39548 0.1313 0.0
H2977 H 0.09571 0.48748 0.12091 0.0
H2978 H 0.11775 0.45552 0.13118 0.0
H2979 H 0.17737 0.43192 0.10298 0.0
H2980 H 0.23776 0.33937 0.13258 0.0
H2981 H 0.20587 0.3598 0.12077 0.0
C2982 C 0.37794 0.46595 0.90774 0.0
C2983 C 0.39126 0.48112 0.89937 0.0
C2984 C 0.36569 0.44763 0.90148 0.0
C2985 C 0.35651 0.41603 0.86693 0.0
H2986 H 0.29584 0.40414 0.88347 0.0
C2987 C 0.27634 0.37619 0.83792 0.0
C2988 C 0.2647 0.35819 0.84514 0.0
C2989 C 0.29482 0.38797 0.84439 0.0
C2990 C 0.31285 0.40711 0.87883 0.0
H2991 H 0.40273 0.48883 0.87796 0.0
H2992 H 0.38048 0.45772 0.86689 0.0
H2993 H 0.32237 0.43075 0.89525 0.0
H2994 H 0.26377 0.33803 0.86465 0.0
H2995 H 0.29563 0.35908 0.87604 0.0
H2996 H 0.34592 0.3933 0.84999 0.0
C2997 C 0.38002 0.45925 0.87835 0.0
C2998 C 0.32821 0.42225 0.88563 0.0
C2999 C 0.39275 0.47721 0.88468 0.0
C3000 C 0.27242 0.35174 0.85877 0.0
C3001 C 0.29057 0.3638 0.86532 0.0
C3002 C 0.34087 0.40124 0.85997 0.0
C3003 C 0.36591 0.44448 0.88663 0.0
C3004 C 0.35026 0.42706 0.87976 0.0
C3005 C 0.30168 0.38224 0.85828 0.0
C3006 C 0.3189 0.39675 0.86586 0.0
H3007 H 0.3767 0.46847 0.91913 0.0
H3008 H 0.35565 0.43626 0.9083 0.0
H3009 H 0.37343 0.41889 0.86218 0.0
H3010 H 0.27084 0.38152 0.8274 0.0
H3011 H 0.30306 0.40225 0.8388 0.0
C3012 C 0.39464 0.52377 0.61229 0.0
C3013 C 0.39297 0.52074 0.59753 0.0
C3014 C 0.38223 0.54152 0.61904 0.0
C3015 C 0.3307 0.57927 0.61273 0.0
H3016 H 0.34857 0.60566 0.64907 0.0
C3017 C 0.27465 0.64739 0.64142 0.0
C3018 C 0.26694 0.63988 0.65485 0.0
C3019 C 0.29298 0.63603 0.63459 0.0
C3020 C 0.34348 0.59844 0.6389 0.0
H3021 H 0.37849 0.53477 0.5781 0.0
H3022 H 0.35801 0.56665 0.58969 0.0
H3023 H 0.376 0.5809 0.63617 0.0
H3024 H 0.27335 0.61543 0.67199 0.0
H3025 H 0.30584 0.59591 0.6601 0.0
H3026 H 0.29836 0.59722 0.61541 0.0
C3027 C 0.36793 0.55473 0.59622 0.0
C3028 C 0.35908 0.58414 0.63153 0.0
C3029 C 0.37986 0.53662 0.58953 0.0
C3030 C 0.27882 0.62157 0.66163 0.0
C3031 C 0.29746 0.61048 0.65488 0.0
C3032 C 0.31539 0.59393 0.61994 0.0
C3033 C 0.36826 0.55695 0.61114 0.0
C3034 C 0.35274 0.57402 0.61844 0.0
C3035 C 0.30426 0.61724 0.64116 0.0
C3036 C 0.32149 0.60335 0.63317 0.0
H3037 H 0.40446 0.51159 0.61872 0.0
H3038 H 0.38275 0.54234 0.63053 0.0
H3039 H 0.3248 0.57145 0.60291 0.0
H3040 H 0.26586 0.66138 0.63588 0.0
H3041 H 0.29799 0.64156 0.62401 0.0
C3042 C 0.12785 0.52219 0.40867 0.0
C3043 C 0.1129 0.5086 0.40031 0.0
C3044 C 0.1405 0.54043 0.40261 0.0
C3045 C 0.14719 0.57542 0.36911 0.0
H3046 H 0.20976 0.58397 0.38364 0.0
C3047 C 0.22485 0.61748 0.33877 0.0
C3048 C 0.23726 0.63467 0.34623 0.0
C3049 C 0.20709 0.60495 0.34546 0.0
C3050 C 0.19224 0.58191 0.37958 0.0
H3051 H 0.09914 0.50356 0.3791 0.0
H3052 H 0.122 0.53449 0.36833 0.0
H3053 H 0.18378 0.5566 0.3953 0.0
H3054 H 0.24046 0.65251 0.36647 0.0
H3055 H 0.20988 0.63011 0.37824 0.0
H3056 H 0.15657 0.59988 0.35283 0.0
C3057 C 0.12345 0.5318 0.37968 0.0
C3058 C 0.17721 0.56634 0.38631 0.0
C3059 C 0.11039 0.51392 0.38583 0.0
C3060 C 0.23115 0.63947 0.36041 0.0
C3061 C 0.21374 0.62662 0.36717 0.0
C3062 C 0.16246 0.59064 0.3622 0.0
C3063 C 0.13898 0.5451 0.38794 0.0
C3064 C 0.15447 0.56276 0.38115 0.0
C3065 C 0.20178 0.60908 0.35981 0.0
C3066 C 0.1851 0.59394 0.36737 0.0
H3067 H 0.12992 0.5186 0.41991 0.0
H3068 H 0.15171 0.55064 0.40943 0.0
H3069 H 0.12972 0.57355 0.36496 0.0
H3070 H 0.22913 0.61343 0.32783 0.0
H3071 H 0.19816 0.59138 0.33962 0.0
loop_
_geom_bond_atom_site_label_1
_geom_bond_atom_site_label_2
_geom_bond_distance
_geom_bond_site_symmetry_2
_ccdc_geom_bond_type
Mn0 O5 2.095 . S
Mn0 O15 2.162 . S
Mn0 O16 2.297 . S
Mn0 O24 2.385 . S
Mn0 O25 2.209 . S
Mn0 O26 2.094 . S
Mn1 O6 2.121 . S
Mn1 N8 2.257 . S
Mn1 N17 2.282 . S
Mn1 O25 2.215 . S
Mn1 O27 2.117 . S
C2 O24 1.234 . S
C2 O25 1.283 . S
C3 O15 1.281 . S
C3 O16 1.236 . S
C4 O26 1.240 . S
C4 O27 1.264 . S
O5 Mn0 2.095 . S
O5 C14 1.250 . S
O6 Mn1 2.121 . S
O6 C14 1.258 . S
C7 N8 1.326 . S
C7 C11 1.460 . S
C7 H13 0.929 . S
N8 Mn1 2.257 . S
N8 C7 1.326 . S
N8 C12 1.362 . S
C9 C10 1.258 . S
C9 C12 1.431 . S
C9 C29 1.449 . S
C10 C9 1.258 . S
C10 C11 1.477 . S
C10 H30 0.931 . S
C11 C7 1.460 . S
C11 C10 1.477 . S
C11 H31 0.930 . S
C12 N8 1.362 . S
C12 C9 1.431 . S
C12 C22 1.476 . S
H13 C7 0.929 . S
C14 O5 1.250 . S
C14 O6 1.258 . S
O15 Mn0 2.162 . S
O15 C3 1.281 . S
O16 Mn0 2.297 . S
O16 C3 1.236 . S
N17 Mn1 2.282 . S
N17 C18 1.328 . S
N17 C22 1.318 . S
C18 N17 1.328 . S
C18 C19 1.457 . S
C18 H23 0.929 . S
C19 C18 1.457 . S
C19 C20 1.291 . S
C19 H32 0.931 . S
C20 C19 1.291 . S
C20 C21 1.373 . S
C20 H33 0.929 . S
C21 C20 1.373 . S
C21 C22 1.396 . S
C21 C28 1.403 . S
C22 C12 1.476 . S
C22 N17 1.318 . S
C22 C21 1.396 . S
H23 C18 0.929 . S
O24 Mn0 2.385 . S
O24 C2 1.234 . S
O25 Mn0 2.209 . S
O25 Mn1 2.215 . S
O25 C2 1.283 . S
O26 Mn0 2.094 . S
O26 C4 1.240 . S
O27 Mn1 2.117 . S
O27 C4 1.264 . S
C28 C21 1.403 . S
C28 C29 1.399 . S
C28 H34 0.929 . S
C29 C9 1.449 . S
C29 C28 1.399 . S
C29 H35 0.930 . S
H30 C10 0.931 . S
H31 C11 0.930 . S
H32 C19 0.931 . S
H33 C20 0.929 . S
H34 C28 0.929 . S
H35 C29 0.930 . S
Mn36 O41 2.095 . S
Mn36 O51 2.162 1_565 S
Mn36 O52 2.297 . S
Mn36 O60 2.385 . S
Mn36 O61 2.209 . S
Mn36 O62 2.094 . S
Mn37 O42 2.121 . S
Mn37 N44 2.257 . S
Mn37 N53 2.282 . S
Mn37 O61 2.215 . S
Mn37 O63 2.117 . S
C38 O60 1.234 . S
C38 O61 1.283 . S
C39 O51 1.281 . S
C39 O52 1.236 1_545 S
C40 O62 1.240 . S
C40 O63 1.264 . S
O41 Mn36 2.095 . S
O41 C50 1.250 . S
O42 Mn37 2.121 . S
O42 C50 1.258 . S
C43 N44 1.326 . S
C43 C47 1.460 . S
C43 H49 0.929 . S
N44 Mn37 2.257 . S
N44 C43 1.326 . S
N44 C48 1.362 . S
C45 C46 1.258 . S
C45 C48 1.431 . S
C45 C65 1.449 . S
C46 C45 1.258 . S
C46 C47 1.477 . S
C46 H66 0.931 . S
C47 C43 1.460 . S
C47 C46 1.477 . S
C47 H67 0.930 . S
C48 N44 1.362 . S
C48 C45 1.431 . S
C48 C58 1.476 . S
H49 C43 0.929 . S
C50 O41 1.250 . S
C50 O42 1.258 . S
O51 Mn36 2.162 1_545 S
O51 C39 1.281 . S
O52 Mn36 2.297 . S
O52 C39 1.236 1_565 S
N53 Mn37 2.282 . S
N53 C54 1.328 . S
N53 C58 1.318 . S
C54 N53 1.328 . S
C54 C55 1.457 . S
C54 H59 0.929 . S
C55 C54 1.457 . S
C55 C56 1.291 . S
C55 H68 0.931 . S
C56 C55 1.291 . S
C56 C57 1.373 . S
C56 H69 0.929 . S
C57 C56 1.373 . S
C57 C58 1.396 . S
C57 C64 1.403 . S
C58 C48 1.476 . S
C58 N53 1.318 . S
C58 C57 1.396 . S
H59 C54 0.929 . S
O60 Mn36 2.385 . S
O60 C38 1.234 . S
O61 Mn36 2.209 . S
O61 Mn37 2.215 . S
O61 C38 1.283 . S
O62 Mn36 2.094 . S
O62 C40 1.240 . S
O63 Mn37 2.117 . S
O63 C40 1.264 . S
C64 C57 1.403 . S
C64 C65 1.399 . S
C64 H70 0.929 . S
C65 C45 1.449 . S
C65 C64 1.399 . S
C65 H71 0.930 . S
H66 C46 0.931 . S
H67 C47 0.930 . S
H68 C55 0.931 . S
H69 C56 0.929 . S
H70 C64 0.929 . S
H71 C65 0.930 . S
Mn72 O77 2.095 . S
Mn72 O87 2.162 . S
Mn72 O88 2.297 . S
Mn72 O96 2.385 . S
Mn72 O97 2.209 . S
Mn72 O98 2.094 . S
Mn73 O78 2.121 . S
Mn73 N80 2.257 . S
Mn73 N89 2.282 . S
Mn73 O97 2.215 . S
Mn73 O99 2.117 . S
C74 O96 1.234 . S
C74 O97 1.283 . S
C75 O87 1.281 . S
C75 O88 1.236 . S
C76 O98 1.240 . S
C76 O99 1.264 . S
O77 Mn72 2.095 . S
O77 C86 1.250 . S
O78 Mn73 2.121 . S
O78 C86 1.258 . S
C79 N80 1.326 . S
C79 C83 1.460 . S
C79 H85 0.929 . S
N80 Mn73 2.257 . S
N80 C79 1.326 . S
N80 C84 1.362 . S
C81 C82 1.258 . S
C81 C84 1.431 . S
C81 C101 1.449 . S
C82 C81 1.258 . S
C82 C83 1.477 . S
C82 H102 0.931 . S
C83 C79 1.460 . S
C83 C82 1.477 . S
C83 H103 0.930 . S
C84 N80 1.362 . S
C84 C81 1.431 . S
C84 C94 1.476 . S
H85 C79 0.929 . S
C86 O77 1.250 . S
C86 O78 1.258 . S
O87 Mn72 2.162 . S
O87 C75 1.281 . S
O88 Mn72 2.297 . S
O88 C75 1.236 . S
N89 Mn73 2.282 . S
N89 C90 1.328 . S
N89 C94 1.318 . S
C90 N89 1.328 . S
C90 C91 1.457 . S
C90 H95 0.929 . S
C91 C90 1.457 . S
C91 C92 1.291 . S
C91 H104 0.931 . S
C92 C91 1.291 . S
C92 C93 1.373 . S
C92 H105 0.929 . S
C93 C92 1.373 . S
C93 C94 1.396 . S
C93 C100 1.403 . S
C94 C84 1.476 . S
C94 N89 1.318 . S
C94 C93 1.396 . S
H95 C90 0.929 . S
O96 Mn72 2.385 . S
O96 C74 1.234 . S
O97 Mn72 2.209 . S
O97 Mn73 2.215 . S
O97 C74 1.283 . S
O98 Mn72 2.094 . S
O98 C76 1.240 . S
O99 Mn73 2.117 . S
O99 C76 1.264 . S
C100 C93 1.403 . S
C100 C101 1.399 . S
C100 H106 0.929 . S
C101 C81 1.449 . S
C101 C100 1.399 . S
C101 H107 0.930 . S
H102 C82 0.931 . S
H103 C83 0.930 . S
H104 C91 0.931 . S
H105 C92 0.929 . S
H106 C100 0.929 . S
H107 C101 0.930 . S
Mn108 O113 2.095 . S
Mn108 O123 2.162 1_545 S
Mn108 O124 2.297 . S
Mn108 O132 2.385 . S
Mn108 O133 2.209 . S
Mn108 O134 2.094 . S
Mn109 O114 2.121 . S
Mn109 N116 2.257 . S
Mn109 N125 2.282 . S
Mn109 O133 2.215 . S
Mn109 O135 2.117 . S
C110 O132 1.234 . S
C110 O133 1.283 . S
C111 O123 1.281 . S
C111 O124 1.236 1_565 S
C112 O134 1.240 . S
C112 O135 1.264 . S
O113 Mn108 2.095 . S
O113 C122 1.250 . S
O114 Mn109 2.121 . S
O114 C122 1.258 . S
C115 N116 1.326 . S
C115 C119 1.460 . S
C115 H121 0.929 . S
N116 Mn109 2.257 . S
N116 C115 1.326 . S
N116 C120 1.362 . S
C117 C118 1.258 . S
C117 C120 1.431 . S
C117 C137 1.449 . S
C118 C117 1.258 . S
C118 C119 1.477 . S
C118 H138 0.931 . S
C119 C115 1.460 . S
C119 C118 1.477 . S
C119 H139 0.930 . S
C120 N116 1.362 . S
C120 C117 1.431 . S
C120 C130 1.476 . S
H121 C115 0.929 . S
C122 O113 1.250 . S
C122 O114 1.258 . S
O123 Mn108 2.162 1_565 S
O123 C111 1.281 . S
O124 Mn108 2.297 . S
O124 C111 1.236 1_545 S
N125 Mn109 2.282 . S
N125 C126 1.328 . S
N125 C130 1.318 . S
C126 N125 1.328 . S
C126 C127 1.457 . S
C126 H131 0.929 . S
C127 C126 1.457 . S
C127 C128 1.291 . S
C127 H140 0.931 . S
C128 C127 1.291 . S
C128 C129 1.373 . S
C128 H141 0.929 . S
C129 C128 1.373 . S
C129 C130 1.396 . S
C129 C136 1.403 . S
C130 C120 1.476 . S
C130 N125 1.318 . S
C130 C129 1.396 . S
H131 C126 0.929 . S
O132 Mn108 2.385 . S
O132 C110 1.234 . S
O133 Mn108 2.209 . S
O133 Mn109 2.215 . S
O133 C110 1.283 . S
O134 Mn108 2.094 . S
O134 C112 1.240 . S
O135 Mn109 2.117 . S
O135 C112 1.264 . S
C136 C129 1.403 . S
C136 C137 1.399 . S
C136 H142 0.929 . S
C137 C117 1.449 . S
C137 C136 1.399 . S
C137 H143 0.930 . S
H138 C118 0.931 . S
H139 C119 0.930 . S
H140 C127 0.931 . S
H141 C128 0.929 . S
H142 C136 0.929 . S
H143 C137 0.930 . S
Mn144 O149 2.095 . S
Mn144 O159 2.162 . S
Mn144 O160 2.297 . S
Mn144 O168 2.385 . S
Mn144 O169 2.209 . S
Mn144 O170 2.094 . S
Mn145 O150 2.121 . S
Mn145 N152 2.257 . S
Mn145 N161 2.282 . S
Mn145 O169 2.215 . S
Mn145 O171 2.117 . S
C146 O168 1.234 . S
C146 O169 1.283 . S
C147 O159 1.281 . S
C147 O160 1.236 . S
C148 O170 1.240 . S
C148 O171 1.264 . S
O149 Mn144 2.095 . S
O149 C158 1.250 . S
O150 Mn145 2.121 . S
O150 C158 1.258 . S
C151 N152 1.326 . S
C151 C155 1.460 . S
C151 H157 0.929 . S
N152 Mn145 2.257 . S
N152 C151 1.326 . S
N152 C156 1.362 . S
C153 C154 1.258 . S
C153 C156 1.431 . S
C153 C173 1.449 . S
C154 C153 1.258 . S
C154 C155 1.477 . S
C154 H174 0.931 . S
C155 C151 1.460 . S
C155 C154 1.477 . S
C155 H175 0.930 . S
C156 N152 1.362 . S
C156 C153 1.431 . S
C156 C166 1.476 . S
H157 C151 0.929 . S
C158 O149 1.250 . S
C158 O150 1.258 . S
O159 Mn144 2.162 . S
O159 C147 1.281 . S
O160 Mn144 2.297 . S
O160 C147 1.236 . S
N161 Mn145 2.282 . S
N161 C162 1.328 . S
N161 C166 1.318 . S
C162 N161 1.328 . S
C162 C163 1.457 . S
C162 H167 0.929 . S
C163 C162 1.457 . S
C163 C164 1.291 . S
C163 H176 0.931 . S
C164 C163 1.291 . S
C164 C165 1.373 . S
C164 H177 0.929 . S
C165 C164 1.373 . S
C165 C166 1.396 . S
C165 C172 1.403 . S
C166 C156 1.476 . S
C166 N161 1.318 . S
C166 C165 1.396 . S
H167 C162 0.929 . S
O168 Mn144 2.385 . S
O168 C146 1.234 . S
O169 Mn144 2.209 . S
O169 Mn145 2.215 . S
O169 C146 1.283 . S
O170 Mn144 2.094 . S
O170 C148 1.240 . S
O171 Mn145 2.117 . S
O171 C148 1.264 . S
C172 C165 1.403 . S
C172 C173 1.399 . S
C172 H178 0.929 . S
C173 C153 1.449 . S
C173 C172 1.399 . S
C173 H179 0.930 . S
H174 C154 0.931 . S
H175 C155 0.930 . S
H176 C163 0.931 . S
H177 C164 0.929 . S
H178 C172 0.929 . S
H179 C173 0.930 . S
Mn180 O185 2.095 . S
Mn180 O195 2.162 1_565 S
Mn180 O196 2.297 . S
Mn180 O204 2.385 . S
Mn180 O205 2.209 . S
Mn180 O206 2.094 . S
Mn181 O186 2.121 . S
Mn181 N188 2.257 . S
Mn181 N197 2.282 . S
Mn181 O205 2.215 . S
Mn181 O207 2.117 . S
C182 O204 1.234 . S
C182 O205 1.283 . S
C183 O195 1.281 . S
C183 O196 1.236 1_545 S
C184 O206 1.240 . S
C184 O207 1.264 . S
O185 Mn180 2.095 . S
O185 C194 1.250 . S
O186 Mn181 2.121 . S
O186 C194 1.258 . S
C187 N188 1.326 . S
C187 C191 1.460 . S
C187 H193 0.929 . S
N188 Mn181 2.257 . S
N188 C187 1.326 . S
N188 C192 1.362 . S
C189 C190 1.258 . S
C189 C192 1.431 . S
C189 C209 1.449 . S
C190 C189 1.258 . S
C190 C191 1.477 . S
C190 H210 0.931 . S
C191 C187 1.460 . S
C191 C190 1.477 . S
C191 H211 0.930 . S
C192 N188 1.362 . S
C192 C189 1.431 . S
C192 C202 1.476 . S
H193 C187 0.929 . S
C194 O185 1.250 . S
C194 O186 1.258 . S
O195 Mn180 2.162 1_545 S
O195 C183 1.281 . S
O196 Mn180 2.297 . S
O196 C183 1.236 1_565 S
N197 Mn181 2.282 . S
N197 C198 1.328 . S
N197 C202 1.318 . S
C198 N197 1.328 . S
C198 C199 1.457 . S
C198 H203 0.929 . S
C199 C198 1.457 . S
C199 C200 1.291 . S
C199 H212 0.931 . S
C200 C199 1.291 . S
C200 C201 1.373 . S
C200 H213 0.929 . S
C201 C200 1.373 . S
C201 C202 1.396 . S
C201 C208 1.403 . S
C202 C192 1.476 . S
C202 N197 1.318 . S
C202 C201 1.396 . S
H203 C198 0.929 . S
O204 Mn180 2.385 . S
O204 C182 1.234 . S
O205 Mn180 2.209 . S
O205 Mn181 2.215 . S
O205 C182 1.283 . S
O206 Mn180 2.094 . S
O206 C184 1.240 . S
O207 Mn181 2.117 . S
O207 C184 1.264 . S
C208 C201 1.403 . S
C208 C209 1.399 . S
C208 H214 0.929 . S
C209 C189 1.449 . S
C209 C208 1.399 . S
C209 H215 0.930 . S
H210 C190 0.931 . S
H211 C191 0.930 . S
H212 C199 0.931 . S
H213 C200 0.929 . S
H214 C208 0.929 . S
H215 C209 0.930 . S
Mn216 O221 2.095 . S
Mn216 O231 2.162 . S
Mn216 O232 2.297 . S
Mn216 O240 2.385 . S
Mn216 O241 2.209 . S
Mn216 O242 2.094 . S
Mn217 O222 2.121 . S
Mn217 N224 2.257 . S
Mn217 N233 2.282 . S
Mn217 O241 2.215 . S
Mn217 O243 2.117 . S
C218 O240 1.234 . S
C218 O241 1.283 . S
C219 O231 1.281 . S
C219 O232 1.236 . S
C220 O242 1.240 . S
C220 O243 1.264 . S
O221 Mn216 2.095 . S
O221 C230 1.250 . S
O222 Mn217 2.121 . S
O222 C230 1.258 . S
C223 N224 1.326 . S
C223 C227 1.460 . S
C223 H229 0.929 . S
N224 Mn217 2.257 . S
N224 C223 1.326 . S
N224 C228 1.362 . S
C225 C226 1.258 . S
C225 C228 1.431 . S
C225 C245 1.449 . S
C226 C225 1.258 . S
C226 C227 1.477 . S
C226 H246 0.931 . S
C227 C223 1.460 . S
C227 C226 1.477 . S
C227 H247 0.930 . S
C228 N224 1.362 . S
C228 C225 1.431 . S
C228 C238 1.476 . S
H229 C223 0.929 . S
C230 O221 1.250 . S
C230 O222 1.258 . S
O231 Mn216 2.162 . S
O231 C219 1.281 . S
O232 Mn216 2.297 . S
O232 C219 1.236 . S
N233 Mn217 2.282 . S
N233 C234 1.328 . S
N233 C238 1.318 . S
C234 N233 1.328 . S
C234 C235 1.457 . S
C234 H239 0.929 . S
C235 C234 1.457 . S
C235 C236 1.291 . S
C235 H248 0.931 . S
C236 C235 1.291 . S
C236 C237 1.373 . S
C236 H249 0.929 . S
C237 C236 1.373 . S
C237 C238 1.396 . S
C237 C244 1.403 . S
C238 C228 1.476 . S
C238 N233 1.318 . S
C238 C237 1.396 . S
H239 C234 0.929 . S
O240 Mn216 2.385 . S
O240 C218 1.234 . S
O241 Mn216 2.209 . S
O241 Mn217 2.215 . S
O241 C218 1.283 . S
O242 Mn216 2.094 . S
O242 C220 1.240 . S
O243 Mn217 2.117 . S
O243 C220 1.264 . S
C244 C237 1.403 . S
C244 C245 1.399 . S
C244 H250 0.929 . S
C245 C225 1.449 . S
C245 C244 1.399 . S
C245 H251 0.930 . S
H246 C226 0.931 . S
H247 C227 0.930 . S
H248 C235 0.931 . S
H249 C236 0.929 . S
H250 C244 0.929 . S
H251 C245 0.930 . S
Mn252 O257 2.095 . S
Mn252 O267 2.162 1_545 S
Mn252 O268 2.297 . S
Mn252 O276 2.385 . S
Mn252 O277 2.209 . S
Mn252 O278 2.094 . S
Mn253 O258 2.121 . S
Mn253 N260 2.257 . S
Mn253 N269 2.282 . S
Mn253 O277 2.215 . S
Mn253 O279 2.117 . S
C254 O276 1.234 . S
C254 O277 1.283 . S
C255 O267 1.281 . S
C255 O268 1.236 1_565 S
C256 O278 1.240 . S
C256 O279 1.264 . S
O257 Mn252 2.095 . S
O257 C266 1.250 . S
O258 Mn253 2.121 . S
O258 C266 1.258 . S
C259 N260 1.326 . S
C259 C263 1.460 . S
C259 H265 0.929 . S
N260 Mn253 2.257 . S
N260 C259 1.326 . S
N260 C264 1.362 . S
C261 C262 1.258 . S
C261 C264 1.431 . S
C261 C281 1.449 . S
C262 C261 1.258 . S
C262 C263 1.477 . S
C262 H282 0.931 . S
C263 C259 1.460 . S
C263 C262 1.477 . S
C263 H283 0.930 . S
C264 N260 1.362 . S
C264 C261 1.431 . S
C264 C274 1.476 . S
H265 C259 0.929 . S
C266 O257 1.250 . S
C266 O258 1.258 . S
O267 Mn252 2.162 1_565 S
O267 C255 1.281 . S
O268 Mn252 2.297 . S
O268 C255 1.236 1_545 S
N269 Mn253 2.282 . S
N269 C270 1.328 . S
N269 C274 1.318 . S
C270 N269 1.328 . S
C270 C271 1.457 . S
C270 H275 0.929 . S
C271 C270 1.457 . S
C271 C272 1.291 . S
C271 H284 0.931 . S
C272 C271 1.291 . S
C272 C273 1.373 . S
C272 H285 0.929 . S
C273 C272 1.373 . S
C273 C274 1.396 . S
C273 C280 1.403 . S
C274 C264 1.476 . S
C274 N269 1.318 . S
C274 C273 1.396 . S
H275 C270 0.929 . S
O276 Mn252 2.385 . S
O276 C254 1.234 . S
O277 Mn252 2.209 . S
O277 Mn253 2.215 . S
O277 C254 1.283 . S
O278 Mn252 2.094 . S
O278 C256 1.240 . S
O279 Mn253 2.117 . S
O279 C256 1.264 . S
C280 C273 1.403 . S
C280 C281 1.399 . S
C280 H286 0.929 . S
C281 C261 1.449 . S
C281 C280 1.399 . S
C281 H287 0.930 . S
H282 C262 0.931 . S
H283 C263 0.930 . S
H284 C271 0.931 . S
H285 C272 0.929 . S
H286 C280 0.929 . S
H287 C281 0.930 . S
Mn288 O293 2.095 . S
Mn288 O303 2.162 . S
Mn288 O304 2.297 . S
Mn288 O312 2.385 . S
Mn288 O313 2.209 . S
Mn288 O314 2.094 . S
Mn289 O294 2.121 . S
Mn289 N296 2.257 . S
Mn289 N305 2.282 . S
Mn289 O313 2.215 . S
Mn289 O315 2.117 . S
C290 O312 1.234 . S
C290 O313 1.283 . S
C291 O303 1.281 . S
C291 O304 1.236 . S
C292 O314 1.240 . S
C292 O315 1.264 . S
O293 Mn288 2.095 . S
O293 C302 1.250 . S
O294 Mn289 2.121 . S
O294 C302 1.258 . S
C295 N296 1.326 . S
C295 C299 1.460 . S
C295 H301 0.929 . S
N296 Mn289 2.257 . S
N296 C295 1.326 . S
N296 C300 1.362 . S
C297 C298 1.258 . S
C297 C300 1.431 . S
C297 C317 1.449 . S
C298 C297 1.258 . S
C298 C299 1.477 . S
C298 H318 0.931 . S
C299 C295 1.460 . S
C299 C298 1.477 . S
C299 H319 0.930 . S
C300 N296 1.362 . S
C300 C297 1.431 . S
C300 C310 1.476 . S
H301 C295 0.929 . S
C302 O293 1.250 . S
C302 O294 1.258 . S
O303 Mn288 2.162 . S
O303 C291 1.281 . S
O304 Mn288 2.297 . S
O304 C291 1.236 . S
N305 Mn289 2.282 . S
N305 C306 1.328 . S
N305 C310 1.318 . S
C306 N305 1.328 . S
C306 C307 1.457 . S
C306 H311 0.929 . S
C307 C306 1.457 . S
C307 C308 1.291 . S
C307 H320 0.931 . S
C308 C307 1.291 . S
C308 C309 1.373 . S
C308 H321 0.929 . S
C309 C308 1.373 . S
C309 C310 1.396 . S
C309 C316 1.403 . S
C310 C300 1.476 . S
C310 N305 1.318 . S
C310 C309 1.396 . S
H311 C306 0.929 . S
O312 Mn288 2.385 . S
O312 C290 1.234 . S
O313 Mn288 2.209 . S
O313 Mn289 2.215 . S
O313 C290 1.283 . S
O314 Mn288 2.094 . S
O314 C292 1.240 . S
O315 Mn289 2.117 . S
O315 C292 1.264 . S
C316 C309 1.403 . S
C316 C317 1.399 . S
C316 H322 0.929 . S
C317 C297 1.449 . S
C317 C316 1.399 . S
C317 H323 0.930 . S
H318 C298 0.931 . S
H319 C299 0.930 . S
H320 C307 0.931 . S
H321 C308 0.929 . S
H322 C316 0.929 . S
H323 C317 0.930 . S
Mn324 O329 2.095 . S
Mn324 O339 2.162 . S
Mn324 O340 2.297 . S
Mn324 O348 2.385 . S
Mn324 O349 2.209 . S
Mn324 O350 2.094 1_545 S
Mn325 O330 2.121 . S
Mn325 N332 2.257 . S
Mn325 N341 2.282 . S
Mn325 O349 2.215 . S
Mn325 O351 2.117 . S
C326 O348 1.234 . S
C326 O349 1.283 . S
C327 O339 1.281 . S
C327 O340 1.236 . S
C328 O350 1.240 . S
C328 O351 1.264 1_565 S
O329 Mn324 2.095 . S
O329 C338 1.250 . S
O330 Mn325 2.121 . S
O330 C338 1.258 . S
C331 N332 1.326 . S
C331 C335 1.460 . S
C331 H337 0.929 . S
N332 Mn325 2.257 . S
N332 C331 1.326 . S
N332 C336 1.362 . S
C333 C334 1.258 . S
C333 C336 1.431 . S
C333 C353 1.449 . S
C334 C333 1.258 . S
C334 C335 1.477 . S
C334 H354 0.931 . S
C335 C331 1.460 . S
C335 C334 1.477 . S
C335 H355 0.930 . S
C336 N332 1.362 . S
C336 C333 1.431 . S
C336 C346 1.476 . S
H337 C331 0.929 . S
C338 O329 1.250 . S
C338 O330 1.258 . S
O339 Mn324 2.162 . S
O339 C327 1.281 . S
O340 Mn324 2.297 . S
O340 C327 1.236 . S
N341 Mn325 2.282 . S
N341 C342 1.328 . S
N341 C346 1.318 . S
C342 N341 1.328 . S
C342 C343 1.457 . S
C342 H347 0.929 . S
C343 C342 1.457 . S
C343 C344 1.291 . S
C343 H356 0.931 . S
C344 C343 1.291 . S
C344 C345 1.373 . S
C344 H357 0.929 . S
C345 C344 1.373 . S
C345 C346 1.396 . S
C345 C352 1.403 . S
C346 C336 1.476 . S
C346 N341 1.318 . S
C346 C345 1.396 . S
H347 C342 0.929 . S
O348 Mn324 2.385 . S
O348 C326 1.234 . S
O349 Mn324 2.209 . S
O349 Mn325 2.215 . S
O349 C326 1.283 . S
O350 Mn324 2.094 1_565 S
O350 C328 1.240 . S
O351 Mn325 2.117 . S
O351 C328 1.264 1_545 S
C352 C345 1.403 . S
C352 C353 1.399 . S
C352 H358 0.929 . S
C353 C333 1.449 . S
C353 C352 1.399 . S
C353 H359 0.930 . S
H354 C334 0.931 . S
H355 C335 0.930 . S
H356 C343 0.931 . S
H357 C344 0.929 . S
H358 C352 0.929 . S
H359 C353 0.930 . S
Mn360 O365 2.095 . S
Mn360 O375 2.162 . S
Mn360 O376 2.297 . S
Mn360 O384 2.385 . S
Mn360 O385 2.209 . S
Mn360 O386 2.094 . S
Mn361 O366 2.121 . S
Mn361 N368 2.257 . S
Mn361 N377 2.282 . S
Mn361 O385 2.215 . S
Mn361 O387 2.117 . S
C362 O384 1.234 . S
C362 O385 1.283 . S
C363 O375 1.281 . S
C363 O376 1.236 . S
C364 O386 1.240 . S
C364 O387 1.264 . S
O365 Mn360 2.095 . S
O365 C374 1.250 . S
O366 Mn361 2.121 . S
O366 C374 1.258 . S
C367 N368 1.326 . S
C367 C371 1.460 . S
C367 H373 0.929 . S
N368 Mn361 2.257 . S
N368 C367 1.326 . S
N368 C372 1.362 . S
C369 C370 1.258 . S
C369 C372 1.431 . S
C369 C389 1.449 . S
C370 C369 1.258 . S
C370 C371 1.477 . S
C370 H390 0.931 . S
C371 C367 1.460 . S
C371 C370 1.477 . S
C371 H391 0.930 . S
C372 N368 1.362 . S
C372 C369 1.431 . S
C372 C382 1.476 . S
H373 C367 0.929 . S
C374 O365 1.250 . S
C374 O366 1.258 . S
O375 Mn360 2.162 . S
O375 C363 1.281 . S
O376 Mn360 2.297 . S
O376 C363 1.236 . S
N377 Mn361 2.282 . S
N377 C378 1.328 . S
N377 C382 1.318 . S
C378 N377 1.328 . S
C378 C379 1.457 . S
C378 H383 0.929 . S
C379 C378 1.457 . S
C379 C380 1.291 . S
C379 H392 0.931 . S
C380 C379 1.291 . S
C380 C381 1.373 . S
C380 H393 0.929 . S
C381 C380 1.373 . S
C381 C382 1.396 . S
C381 C388 1.403 . S
C382 C372 1.476 . S
C382 N377 1.318 . S
C382 C381 1.396 . S
H383 C378 0.929 . S
O384 Mn360 2.385 . S
O384 C362 1.234 . S
O385 Mn360 2.209 . S
O385 Mn361 2.215 . S
O385 C362 1.283 . S
O386 Mn360 2.094 . S
O386 C364 1.240 . S
O387 Mn361 2.117 . S
O387 C364 1.264 . S
C388 C381 1.403 . S
C388 C389 1.399 . S
C388 H394 0.929 . S
C389 C369 1.449 . S
C389 C388 1.399 . S
C389 H395 0.930 . S
H390 C370 0.931 . S
H391 C371 0.930 . S
H392 C379 0.931 . S
H393 C380 0.929 . S
H394 C388 0.929 . S
H395 C389 0.930 . S
Mn396 O401 2.095 . S
Mn396 O411 2.162 . S
Mn396 O412 2.297 . S
Mn396 O420 2.385 . S
Mn396 O421 2.209 . S
Mn396 O422 2.094 1_565 S
Mn397 O402 2.121 . S
Mn397 N404 2.257 . S
Mn397 N413 2.282 . S
Mn397 O421 2.215 . S
Mn397 O423 2.117 . S
C398 O420 1.234 . S
C398 O421 1.283 . S
C399 O411 1.281 . S
C399 O412 1.236 . S
C400 O422 1.240 . S
C400 O423 1.264 1_545 S
O401 Mn396 2.095 . S
O401 C410 1.250 . S
O402 Mn397 2.121 . S
O402 C410 1.258 . S
C403 N404 1.326 . S
C403 C407 1.460 . S
C403 H409 0.929 . S
N404 Mn397 2.257 . S
N404 C403 1.326 . S
N404 C408 1.362 . S
C405 C406 1.258 . S
C405 C408 1.431 . S
C405 C425 1.449 . S
C406 C405 1.258 . S
C406 C407 1.477 . S
C406 H426 0.931 . S
C407 C403 1.460 . S
C407 C406 1.477 . S
C407 H427 0.930 . S
C408 N404 1.362 . S
C408 C405 1.431 . S
C408 C418 1.476 . S
H409 C403 0.929 . S
C410 O401 1.250 . S
C410 O402 1.258 . S
O411 Mn396 2.162 . S
O411 C399 1.281 . S
O412 Mn396 2.297 . S
O412 C399 1.236 . S
N413 Mn397 2.282 . S
N413 C414 1.328 . S
N413 C418 1.318 . S
C414 N413 1.328 . S
C414 C415 1.457 . S
C414 H419 0.929 . S
C415 C414 1.457 . S
C415 C416 1.291 . S
C415 H428 0.931 . S
C416 C415 1.291 . S
C416 C417 1.373 . S
C416 H429 0.929 . S
C417 C416 1.373 . S
C417 C418 1.396 . S
C417 C424 1.403 . S
C418 C408 1.476 . S
C418 N413 1.318 . S
C418 C417 1.396 . S
H419 C414 0.929 . S
O420 Mn396 2.385 . S
O420 C398 1.234 . S
O421 Mn396 2.209 . S
O421 Mn397 2.215 . S
O421 C398 1.283 . S
O422 Mn396 2.094 1_545 S
O422 C400 1.240 . S
O423 Mn397 2.117 . S
O423 C400 1.264 1_565 S
C424 C417 1.403 . S
C424 C425 1.399 . S
C424 H430 0.929 . S
C425 C405 1.449 . S
C425 C424 1.399 . S
C425 H431 0.930 . S
H426 C406 0.931 . S
H427 C407 0.930 . S
H428 C415 0.931 . S
H429 C416 0.929 . S
H430 C424 0.929 . S
H431 C425 0.930 . S
Mn432 O437 2.095 . S
Mn432 O447 2.162 . S
Mn432 O448 2.297 . S
Mn432 O456 2.385 . S
Mn432 O457 2.209 . S
Mn432 O458 2.094 . S
Mn433 O438 2.121 . S
Mn433 N440 2.257 . S
Mn433 N449 2.282 . S
Mn433 O457 2.215 . S
Mn433 O459 2.117 . S
C434 O456 1.234 . S
C434 O457 1.283 . S
C435 O447 1.281 . S
C435 O448 1.236 . S
C436 O458 1.240 . S
C436 O459 1.264 . S
O437 Mn432 2.095 . S
O437 C446 1.250 . S
O438 Mn433 2.121 . S
O438 C446 1.258 . S
C439 N440 1.326 . S
C439 C443 1.460 . S
C439 H445 0.929 . S
N440 Mn433 2.257 . S
N440 C439 1.326 . S
N440 C444 1.362 . S
C441 C442 1.258 . S
C441 C444 1.431 . S
C441 C461 1.449 . S
C442 C441 1.258 . S
C442 C443 1.477 . S
C442 H462 0.931 . S
C443 C439 1.460 . S
C443 C442 1.477 . S
C443 H463 0.930 . S
C444 N440 1.362 . S
C444 C441 1.431 . S
C444 C454 1.476 . S
H445 C439 0.929 . S
C446 O437 1.250 . S
C446 O438 1.258 . S
O447 Mn432 2.162 . S
O447 C435 1.281 . S
O448 Mn432 2.297 . S
O448 C435 1.236 . S
N449 Mn433 2.282 . S
N449 C450 1.328 . S
N449 C454 1.318 . S
C450 N449 1.328 . S
C450 C451 1.457 . S
C450 H455 0.929 . S
C451 C450 1.457 . S
C451 C452 1.291 . S
C451 H464 0.931 . S
C452 C451 1.291 . S
C452 C453 1.373 . S
C452 H465 0.929 . S
C453 C452 1.373 . S
C453 C454 1.396 . S
C453 C460 1.403 . S
C454 C444 1.476 . S
C454 N449 1.318 . S
C454 C453 1.396 . S
H455 C450 0.929 . S
O456 Mn432 2.385 . S
O456 C434 1.234 . S
O457 Mn432 2.209 . S
O457 Mn433 2.215 . S
O457 C434 1.283 . S
O458 Mn432 2.094 . S
O458 C436 1.240 . S
O459 Mn433 2.117 . S
O459 C436 1.264 . S
C460 C453 1.403 . S
C460 C461 1.399 . S
C460 H466 0.929 . S
C461 C441 1.449 . S
C461 C460 1.399 . S
C461 H467 0.930 . S
H462 C442 0.931 . S
H463 C443 0.930 . S
H464 C451 0.931 . S
H465 C452 0.929 . S
H466 C460 0.929 . S
H467 C461 0.930 . S
Mn468 O473 2.095 . S
Mn468 O483 2.162 . S
Mn468 O484 2.297 . S
Mn468 O492 2.385 . S
Mn468 O493 2.209 . S
Mn468 O494 2.094 1_545 S
Mn469 O474 2.121 . S
Mn469 N476 2.257 . S
Mn469 N485 2.282 . S
Mn469 O493 2.215 . S
Mn469 O495 2.117 . S
C470 O492 1.234 . S
C470 O493 1.283 . S
C471 O483 1.281 . S
C471 O484 1.236 . S
C472 O494 1.240 . S
C472 O495 1.264 1_565 S
O473 Mn468 2.095 . S
O473 C482 1.250 . S
O474 Mn469 2.121 . S
O474 C482 1.258 . S
C475 N476 1.326 . S
C475 C479 1.460 . S
C475 H481 0.929 . S
N476 Mn469 2.257 . S
N476 C475 1.326 . S
N476 C480 1.362 . S
C477 C478 1.258 . S
C477 C480 1.431 . S
C477 C497 1.449 . S
C478 C477 1.258 . S
C478 C479 1.477 . S
C478 H498 0.931 . S
C479 C475 1.460 . S
C479 C478 1.477 . S
C479 H499 0.930 . S
C480 N476 1.362 . S
C480 C477 1.431 . S
C480 C490 1.476 . S
H481 C475 0.929 . S
C482 O473 1.250 . S
C482 O474 1.258 . S
O483 Mn468 2.162 . S
O483 C471 1.281 . S
O484 Mn468 2.297 . S
O484 C471 1.236 . S
N485 Mn469 2.282 . S
N485 C486 1.328 . S
N485 C490 1.318 . S
C486 N485 1.328 . S
C486 C487 1.457 . S
C486 H491 0.929 . S
C487 C486 1.457 . S
C487 C488 1.291 . S
C487 H500 0.931 . S
C488 C487 1.291 . S
C488 C489 1.373 . S
C488 H501 0.929 . S
C489 C488 1.373 . S
C489 C490 1.396 . S
C489 C496 1.403 . S
C490 C480 1.476 . S
C490 N485 1.318 . S
C490 C489 1.396 . S
H491 C486 0.929 . S
O492 Mn468 2.385 . S
O492 C470 1.234 . S
O493 Mn468 2.209 . S
O493 Mn469 2.215 . S
O493 C470 1.283 . S
O494 Mn468 2.094 1_565 S
O494 C472 1.240 . S
O495 Mn469 2.117 . S
O495 C472 1.264 1_545 S
C496 C489 1.403 . S
C496 C497 1.399 . S
C496 H502 0.929 . S
C497 C477 1.449 . S
C497 C496 1.399 . S
C497 H503 0.930 . S
H498 C478 0.931 . S
H499 C479 0.930 . S
H500 C487 0.931 . S
H501 C488 0.929 . S
H502 C496 0.929 . S
H503 C497 0.930 . S
Mn504 O509 2.095 . S
Mn504 O519 2.162 . S
Mn504 O520 2.297 . S
Mn504 O528 2.385 . S
Mn504 O529 2.209 . S
Mn504 O530 2.094 . S
Mn505 O510 2.121 . S
Mn505 N512 2.257 . S
Mn505 N521 2.282 . S
Mn505 O529 2.215 . S
Mn505 O531 2.117 . S
C506 O528 1.234 . S
C506 O529 1.283 . S
C507 O519 1.281 . S
C507 O520 1.236 . S
C508 O530 1.240 . S
C508 O531 1.264 . S
O509 Mn504 2.095 . S
O509 C518 1.250 . S
O510 Mn505 2.121 . S
O510 C518 1.258 . S
C511 N512 1.326 . S
C511 C515 1.460 . S
C511 H517 0.929 . S
N512 Mn505 2.257 . S
N512 C511 1.326 . S
N512 C516 1.362 . S
C513 C514 1.258 . S
C513 C516 1.431 . S
C513 C533 1.449 . S
C514 C513 1.258 . S
C514 C515 1.477 . S
C514 H534 0.931 . S
C515 C511 1.460 . S
C515 C514 1.477 . S
C515 H535 0.930 . S
C516 N512 1.362 . S
C516 C513 1.431 . S
C516 C526 1.476 . S
H517 C511 0.929 . S
C518 O509 1.250 . S
C518 O510 1.258 . S
O519 Mn504 2.162 . S
O519 C507 1.281 . S
O520 Mn504 2.297 . S
O520 C507 1.236 . S
N521 Mn505 2.282 . S
N521 C522 1.328 . S
N521 C526 1.318 . S
C522 N521 1.328 . S
C522 C523 1.457 . S
C522 H527 0.929 . S
C523 C522 1.457 . S
C523 C524 1.291 . S
C523 H536 0.931 . S
C524 C523 1.291 . S
C524 C525 1.373 . S
C524 H537 0.929 . S
C525 C524 1.373 . S
C525 C526 1.396 . S
C525 C532 1.403 . S
C526 C516 1.476 . S
C526 N521 1.318 . S
C526 C525 1.396 . S
H527 C522 0.929 . S
O528 Mn504 2.385 . S
O528 C506 1.234 . S
O529 Mn504 2.209 . S
O529 Mn505 2.215 . S
O529 C506 1.283 . S
O530 Mn504 2.094 . S
O530 C508 1.240 . S
O531 Mn505 2.117 . S
O531 C508 1.264 . S
C532 C525 1.403 . S
C532 C533 1.399 . S
C532 H538 0.929 . S
C533 C513 1.449 . S
C533 C532 1.399 . S
C533 H539 0.930 . S
H534 C514 0.931 . S
H535 C515 0.930 . S
H536 C523 0.931 . S
H537 C524 0.929 . S
H538 C532 0.929 . S
H539 C533 0.930 . S
Mn540 O545 2.095 . S
Mn540 O555 2.162 . S
Mn540 O556 2.297 . S
Mn540 O564 2.385 . S
Mn540 O565 2.209 . S
Mn540 O566 2.094 1_565 S
Mn541 O546 2.121 . S
Mn541 N548 2.257 . S
Mn541 N557 2.282 . S
Mn541 O565 2.215 . S
Mn541 O567 2.117 . S
C542 O564 1.234 . S
C542 O565 1.283 . S
C543 O555 1.281 . S
C543 O556 1.236 . S
C544 O566 1.240 . S
C544 O567 1.264 1_545 S
O545 Mn540 2.095 . S
O545 C554 1.250 . S
O546 Mn541 2.121 . S
O546 C554 1.258 . S
C547 N548 1.326 . S
C547 C551 1.460 . S
C547 H553 0.929 . S
N548 Mn541 2.257 . S
N548 C547 1.326 . S
N548 C552 1.362 . S
C549 C550 1.258 . S
C549 C552 1.431 . S
C549 C569 1.449 . S
C550 C549 1.258 . S
C550 C551 1.477 . S
C550 H570 0.931 . S
C551 C547 1.460 . S
C551 C550 1.477 . S
C551 H571 0.930 . S
C552 N548 1.362 . S
C552 C549 1.431 . S
C552 C562 1.476 . S
H553 C547 0.929 . S
C554 O545 1.250 . S
C554 O546 1.258 . S
O555 Mn540 2.162 . S
O555 C543 1.281 . S
O556 Mn540 2.297 . S
O556 C543 1.236 . S
N557 Mn541 2.282 . S
N557 C558 1.328 . S
N557 C562 1.318 . S
C558 N557 1.328 . S
C558 C559 1.457 . S
C558 H563 0.929 . S
C559 C558 1.457 . S
C559 C560 1.291 . S
C559 H572 0.931 . S
C560 C559 1.291 . S
C560 C561 1.373 . S
C560 H573 0.929 . S
C561 C560 1.373 . S
C561 C562 1.396 . S
C561 C568 1.403 . S
C562 C552 1.476 . S
C562 N557 1.318 . S
C562 C561 1.396 . S
H563 C558 0.929 . S
O564 Mn540 2.385 . S
O564 C542 1.234 . S
O565 Mn540 2.209 . S
O565 Mn541 2.215 . S
O565 C542 1.283 . S
O566 Mn540 2.094 1_545 S
O566 C544 1.240 . S
O567 Mn541 2.117 . S
O567 C544 1.264 1_565 S
C568 C561 1.403 . S
C568 C569 1.399 . S
C568 H574 0.929 . S
C569 C549 1.449 . S
C569 C568 1.399 . S
C569 H575 0.930 . S
H570 C550 0.931 . S
H571 C551 0.930 . S
H572 C559 0.931 . S
H573 C560 0.929 . S
H574 C568 0.929 . S
H575 C569 0.930 . S
Mn576 O581 2.095 . S
Mn576 O591 2.162 . S
Mn576 O592 2.297 . S
Mn576 O600 2.385 . S
Mn576 O601 2.209 . S
Mn576 O602 2.094 . S
Mn577 O582 2.121 . S
Mn577 N584 2.257 . S
Mn577 N593 2.282 . S
Mn577 O601 2.215 . S
Mn577 O603 2.117 . S
C578 O600 1.234 . S
C578 O601 1.283 . S
C579 O591 1.281 . S
C579 O592 1.236 . S
C580 O602 1.240 . S
C580 O603 1.264 . S
O581 Mn576 2.095 . S
O581 C590 1.250 . S
O582 Mn577 2.121 . S
O582 C590 1.258 . S
C583 N584 1.326 . S
C583 C587 1.460 . S
C583 H589 0.929 . S
N584 Mn577 2.257 . S
N584 C583 1.326 . S
N584 C588 1.362 . S
C585 C586 1.258 . S
C585 C588 1.431 . S
C585 C605 1.449 . S
C586 C585 1.258 . S
C586 C587 1.477 . S
C586 H606 0.931 . S
C587 C583 1.460 . S
C587 C586 1.477 . S
C587 H607 0.930 . S
C588 N584 1.362 . S
C588 C585 1.431 . S
C588 C598 1.476 . S
H589 C583 0.929 . S
C590 O581 1.250 . S
C590 O582 1.258 . S
O591 Mn576 2.162 . S
O591 C579 1.281 . S
O592 Mn576 2.297 . S
O592 C579 1.236 . S
N593 Mn577 2.282 . S
N593 C594 1.328 . S
N593 C598 1.318 . S
C594 N593 1.328 . S
C594 C595 1.457 . S
C594 H599 0.929 . S
C595 C594 1.457 . S
C595 C596 1.291 . S
C595 H608 0.931 . S
C596 C595 1.291 . S
C596 C597 1.373 . S
C596 H609 0.929 . S
C597 C596 1.373 . S
C597 C598 1.396 . S
C597 C604 1.403 . S
C598 C588 1.476 . S
C598 N593 1.318 . S
C598 C597 1.396 . S
H599 C594 0.929 . S
O600 Mn576 2.385 . S
O600 C578 1.234 . S
O601 Mn576 2.209 . S
O601 Mn577 2.215 . S
O601 C578 1.283 . S
O602 Mn576 2.094 . S
O602 C580 1.240 . S
O603 Mn577 2.117 . S
O603 C580 1.264 . S
C604 C597 1.403 . S
C604 C605 1.399 . S
C604 H610 0.929 . S
C605 C585 1.449 . S
C605 C604 1.399 . S
C605 H611 0.930 . S
H606 C586 0.931 . S
H607 C587 0.930 . S
H608 C595 0.931 . S
H609 C596 0.929 . S
H610 C604 0.929 . S
H611 C605 0.930 . S
Mn612 O617 2.095 . S
Mn612 O627 2.162 . S
Mn612 O628 2.297 . S
Mn612 O636 2.385 . S
Mn612 O637 2.209 . S
Mn612 O638 2.094 . S
Mn613 O618 2.121 . S
Mn613 N620 2.257 . S
Mn613 N629 2.282 . S
Mn613 O637 2.215 . S
Mn613 O639 2.117 . S
C614 O636 1.234 . S
C614 O637 1.283 . S
C615 O627 1.281 . S
C615 O628 1.236 . S
C616 O638 1.240 . S
C616 O639 1.264 . S
O617 Mn612 2.095 . S
O617 C626 1.250 . S
O618 Mn613 2.121 . S
O618 C626 1.258 . S
C619 N620 1.326 . S
C619 C623 1.460 . S
C619 H625 0.929 . S
N620 Mn613 2.257 . S
N620 C619 1.326 . S
N620 C624 1.362 . S
C621 C622 1.258 . S
C621 C624 1.431 . S
C621 C641 1.449 . S
C622 C621 1.258 . S
C622 C623 1.477 . S
C622 H642 0.931 . S
C623 C619 1.460 . S
C623 C622 1.477 . S
C623 H643 0.930 . S
C624 N620 1.362 . S
C624 C621 1.431 . S
C624 C634 1.476 . S
H625 C619 0.929 . S
C626 O617 1.250 . S
C626 O618 1.258 . S
O627 Mn612 2.162 . S
O627 C615 1.281 . S
O628 Mn612 2.297 . S
O628 C615 1.236 . S
N629 Mn613 2.282 . S
N629 C630 1.328 . S
N629 C634 1.318 . S
C630 N629 1.328 . S
C630 C631 1.457 . S
C630 H635 0.929 . S
C631 C630 1.457 . S
C631 C632 1.291 . S
C631 H644 0.931 . S
C632 C631 1.291 . S
C632 C633 1.373 . S
C632 H645 0.929 . S
C633 C632 1.373 . S
C633 C634 1.396 . S
C633 C640 1.403 . S
C634 C624 1.476 . S
C634 N629 1.318 . S
C634 C633 1.396 . S
H635 C630 0.929 . S
O636 Mn612 2.385 . S
O636 C614 1.234 . S
O637 Mn612 2.209 . S
O637 Mn613 2.215 . S
O637 C614 1.283 . S
O638 Mn612 2.094 . S
O638 C616 1.240 . S
O639 Mn613 2.117 . S
O639 C616 1.264 . S
C640 C633 1.403 . S
C640 C641 1.399 . S
C640 H646 0.929 . S
C641 C621 1.449 . S
C641 C640 1.399 . S
C641 H647 0.930 . S
H642 C622 0.931 . S
H643 C623 0.930 . S
H644 C631 0.931 . S
H645 C632 0.929 . S
H646 C640 0.929 . S
H647 C641 0.930 . S
Mn648 O653 2.095 . S
Mn648 O663 2.162 . S
Mn648 O664 2.297 . S
Mn648 O672 2.385 . S
Mn648 O673 2.209 . S
Mn648 O674 2.094 . S
Mn649 O654 2.121 . S
Mn649 N656 2.257 . S
Mn649 N665 2.282 . S
Mn649 O673 2.215 . S
Mn649 O675 2.117 . S
C650 O672 1.234 . S
C650 O673 1.283 . S
C651 O663 1.281 . S
C651 O664 1.236 . S
C652 O674 1.240 . S
C652 O675 1.264 . S
O653 Mn648 2.095 . S
O653 C662 1.250 . S
O654 Mn649 2.121 . S
O654 C662 1.258 . S
C655 N656 1.326 . S
C655 C659 1.460 . S
C655 H661 0.929 . S
N656 Mn649 2.257 . S
N656 C655 1.326 . S
N656 C660 1.362 . S
C657 C658 1.258 . S
C657 C660 1.431 . S
C657 C677 1.449 . S
C658 C657 1.258 . S
C658 C659 1.477 . S
C658 H678 0.931 . S
C659 C655 1.460 . S
C659 C658 1.477 . S
C659 H679 0.930 . S
C660 N656 1.362 . S
C660 C657 1.431 . S
C660 C670 1.476 . S
H661 C655 0.929 . S
C662 O653 1.250 . S
C662 O654 1.258 . S
O663 Mn648 2.162 . S
O663 C651 1.281 . S
O664 Mn648 2.297 . S
O664 C651 1.236 . S
N665 Mn649 2.282 . S
N665 C666 1.328 . S
N665 C670 1.318 . S
C666 N665 1.328 . S
C666 C667 1.457 . S
C666 H671 0.929 . S
C667 C666 1.457 . S
C667 C668 1.291 . S
C667 H680 0.931 . S
C668 C667 1.291 . S
C668 C669 1.373 . S
C668 H681 0.929 . S
C669 C668 1.373 . S
C669 C670 1.396 . S
C669 C676 1.403 . S
C670 C660 1.476 . S
C670 N665 1.318 . S
C670 C669 1.396 . S
H671 C666 0.929 . S
O672 Mn648 2.385 . S
O672 C650 1.234 . S
O673 Mn648 2.209 . S
O673 Mn649 2.215 . S
O673 C650 1.283 . S
O674 Mn648 2.094 . S
O674 C652 1.240 . S
O675 Mn649 2.117 . S
O675 C652 1.264 . S
C676 C669 1.403 . S
C676 C677 1.399 . S
C676 H682 0.929 . S
C677 C657 1.449 . S
C677 C676 1.399 . S
C677 H683 0.930 . S
H678 C658 0.931 . S
H679 C659 0.930 . S
H680 C667 0.931 . S
H681 C668 0.929 . S
H682 C676 0.929 . S
H683 C677 0.930 . S
Mn684 O689 2.095 . S
Mn684 O699 2.162 . S
Mn684 O700 2.297 . S
Mn684 O708 2.385 . S
Mn684 O709 2.209 . S
Mn684 O710 2.094 . S
Mn685 O690 2.121 . S
Mn685 N692 2.257 . S
Mn685 N701 2.282 . S
Mn685 O709 2.215 . S
Mn685 O711 2.117 . S
C686 O708 1.234 . S
C686 O709 1.283 . S
C687 O699 1.281 . S
C687 O700 1.236 . S
C688 O710 1.240 . S
C688 O711 1.264 . S
O689 Mn684 2.095 . S
O689 C698 1.250 . S
O690 Mn685 2.121 . S
O690 C698 1.258 . S
C691 N692 1.326 . S
C691 C695 1.460 . S
C691 H697 0.929 . S
N692 Mn685 2.257 . S
N692 C691 1.326 . S
N692 C696 1.362 . S
C693 C694 1.258 . S
C693 C696 1.431 . S
C693 C713 1.449 . S
C694 C693 1.258 . S
C694 C695 1.477 . S
C694 H714 0.931 . S
C695 C691 1.460 . S
C695 C694 1.477 . S
C695 H715 0.930 . S
C696 N692 1.362 . S
C696 C693 1.431 . S
C696 C706 1.476 . S
H697 C691 0.929 . S
C698 O689 1.250 . S
C698 O690 1.258 . S
O699 Mn684 2.162 . S
O699 C687 1.281 . S
O700 Mn684 2.297 . S
O700 C687 1.236 . S
N701 Mn685 2.282 . S
N701 C702 1.328 . S
N701 C706 1.318 . S
C702 N701 1.328 . S
C702 C703 1.457 . S
C702 H707 0.929 . S
C703 C702 1.457 . S
C703 C704 1.291 . S
C703 H716 0.931 . S
C704 C703 1.291 . S
C704 C705 1.373 . S
C704 H717 0.929 . S
C705 C704 1.373 . S
C705 C706 1.396 . S
C705 C712 1.403 . S
C706 C696 1.476 . S
C706 N701 1.318 . S
C706 C705 1.396 . S
H707 C702 0.929 . S
O708 Mn684 2.385 . S
O708 C686 1.234 . S
O709 Mn684 2.209 . S
O709 Mn685 2.215 . S
O709 C686 1.283 . S
O710 Mn684 2.094 . S
O710 C688 1.240 . S
O711 Mn685 2.117 . S
O711 C688 1.264 . S
C712 C705 1.403 . S
C712 C713 1.399 . S
C712 H718 0.929 . S
C713 C693 1.449 . S
C713 C712 1.399 . S
C713 H719 0.930 . S
H714 C694 0.931 . S
H715 C695 0.930 . S
H716 C703 0.931 . S
H717 C704 0.929 . S
H718 C712 0.929 . S
H719 C713 0.930 . S
Mn720 O725 2.095 . S
Mn720 O735 2.162 . S
Mn720 O736 2.297 . S
Mn720 O744 2.385 . S
Mn720 O745 2.209 . S
Mn720 O746 2.094 . S
Mn721 O726 2.121 . S
Mn721 N728 2.257 . S
Mn721 N737 2.282 . S
Mn721 O745 2.215 . S
Mn721 O747 2.117 . S
C722 O744 1.234 . S
C722 O745 1.283 . S
C723 O735 1.281 . S
C723 O736 1.236 . S
C724 O746 1.240 . S
C724 O747 1.264 . S
O725 Mn720 2.095 . S
O725 C734 1.250 . S
O726 Mn721 2.121 . S
O726 C734 1.258 . S
C727 N728 1.326 . S
C727 C731 1.460 . S
C727 H733 0.929 . S
N728 Mn721 2.257 . S
N728 C727 1.326 . S
N728 C732 1.362 . S
C729 C730 1.258 . S
C729 C732 1.431 . S
C729 C749 1.449 . S
C730 C729 1.258 . S
C730 C731 1.477 . S
C730 H750 0.931 . S
C731 C727 1.460 . S
C731 C730 1.477 . S
C731 H751 0.930 . S
C732 N728 1.362 . S
C732 C729 1.431 . S
C732 C742 1.476 . S
H733 C727 0.929 . S
C734 O725 1.250 . S
C734 O726 1.258 . S
O735 Mn720 2.162 . S
O735 C723 1.281 . S
O736 Mn720 2.297 . S
O736 C723 1.236 . S
N737 Mn721 2.282 . S
N737 C738 1.328 . S
N737 C742 1.318 . S
C738 N737 1.328 . S
C738 C739 1.457 . S
C738 H743 0.929 . S
C739 C738 1.457 . S
C739 C740 1.291 . S
C739 H752 0.931 . S
C740 C739 1.291 . S
C740 C741 1.373 . S
C740 H753 0.929 . S
C741 C740 1.373 . S
C741 C742 1.396 . S
C741 C748 1.403 . S
C742 C732 1.476 . S
C742 N737 1.318 . S
C742 C741 1.396 . S
H743 C738 0.929 . S
O744 Mn720 2.385 . S
O744 C722 1.234 . S
O745 Mn720 2.209 . S
O745 Mn721 2.215 . S
O745 C722 1.283 . S
O746 Mn720 2.094 . S
O746 C724 1.240 . S
O747 Mn721 2.117 . S
O747 C724 1.264 . S
C748 C741 1.403 . S
C748 C749 1.399 . S
C748 H754 0.929 . S
C749 C729 1.449 . S
C749 C748 1.399 . S
C749 H755 0.930 . S
H750 C730 0.931 . S
H751 C731 0.930 . S
H752 C739 0.931 . S
H753 C740 0.929 . S
H754 C748 0.929 . S
H755 C749 0.930 . S
Mn756 O761 2.095 . S
Mn756 O771 2.162 . S
Mn756 O772 2.297 . S
Mn756 O780 2.385 . S
Mn756 O781 2.209 . S
Mn756 O782 2.094 . S
Mn757 O762 2.121 . S
Mn757 N764 2.257 . S
Mn757 N773 2.282 . S
Mn757 O781 2.215 . S
Mn757 O783 2.117 . S
C758 O780 1.234 . S
C758 O781 1.283 . S
C759 O771 1.281 . S
C759 O772 1.236 . S
C760 O782 1.240 . S
C760 O783 1.264 . S
O761 Mn756 2.095 . S
O761 C770 1.250 . S
O762 Mn757 2.121 . S
O762 C770 1.258 . S
C763 N764 1.326 . S
C763 C767 1.460 . S
C763 H769 0.929 . S
N764 Mn757 2.257 . S
N764 C763 1.326 . S
N764 C768 1.362 . S
C765 C766 1.258 . S
C765 C768 1.431 . S
C765 C785 1.449 . S
C766 C765 1.258 . S
C766 C767 1.477 . S
C766 H786 0.931 . S
C767 C763 1.460 . S
C767 C766 1.477 . S
C767 H787 0.930 . S
C768 N764 1.362 . S
C768 C765 1.431 . S
C768 C778 1.476 . S
H769 C763 0.929 . S
C770 O761 1.250 . S
C770 O762 1.258 . S
O771 Mn756 2.162 . S
O771 C759 1.281 . S
O772 Mn756 2.297 . S
O772 C759 1.236 . S
N773 Mn757 2.282 . S
N773 C774 1.328 . S
N773 C778 1.318 . S
C774 N773 1.328 . S
C774 C775 1.457 . S
C774 H779 0.929 . S
C775 C774 1.457 . S
C775 C776 1.291 . S
C775 H788 0.931 . S
C776 C775 1.291 . S
C776 C777 1.373 . S
C776 H789 0.929 . S
C777 C776 1.373 . S
C777 C778 1.396 . S
C777 C784 1.403 . S
C778 C768 1.476 . S
C778 N773 1.318 . S
C778 C777 1.396 . S
H779 C774 0.929 . S
O780 Mn756 2.385 . S
O780 C758 1.234 . S
O781 Mn756 2.209 . S
O781 Mn757 2.215 . S
O781 C758 1.283 . S
O782 Mn756 2.094 . S
O782 C760 1.240 . S
O783 Mn757 2.117 . S
O783 C760 1.264 . S
C784 C777 1.403 . S
C784 C785 1.399 . S
C784 H790 0.929 . S
C785 C765 1.449 . S
C785 C784 1.399 . S
C785 H791 0.930 . S
H786 C766 0.931 . S
H787 C767 0.930 . S
H788 C775 0.931 . S
H789 C776 0.929 . S
H790 C784 0.929 . S
H791 C785 0.930 . S
Mn792 O797 2.095 . S
Mn792 O807 2.162 . S
Mn792 O808 2.297 . S
Mn792 O816 2.385 . S
Mn792 O817 2.209 . S
Mn792 O818 2.094 . S
Mn793 O798 2.121 . S
Mn793 N800 2.257 . S
Mn793 N809 2.282 . S
Mn793 O817 2.215 . S
Mn793 O819 2.117 . S
C794 O816 1.234 . S
C794 O817 1.283 . S
C795 O807 1.281 . S
C795 O808 1.236 . S
C796 O818 1.240 . S
C796 O819 1.264 . S
O797 Mn792 2.095 . S
O797 C806 1.250 . S
O798 Mn793 2.121 . S
O798 C806 1.258 . S
C799 N800 1.326 . S
C799 C803 1.460 . S
C799 H805 0.929 . S
N800 Mn793 2.257 . S
N800 C799 1.326 . S
N800 C804 1.362 . S
C801 C802 1.258 . S
C801 C804 1.431 . S
C801 C821 1.449 . S
C802 C801 1.258 . S
C802 C803 1.477 . S
C802 H822 0.931 . S
C803 C799 1.460 . S
C803 C802 1.477 . S
C803 H823 0.930 . S
C804 N800 1.362 . S
C804 C801 1.431 . S
C804 C814 1.476 . S
H805 C799 0.929 . S
C806 O797 1.250 . S
C806 O798 1.258 . S
O807 Mn792 2.162 . S
O807 C795 1.281 . S
O808 Mn792 2.297 . S
O808 C795 1.236 . S
N809 Mn793 2.282 . S
N809 C810 1.328 . S
N809 C814 1.318 . S
C810 N809 1.328 . S
C810 C811 1.457 . S
C810 H815 0.929 . S
C811 C810 1.457 . S
C811 C812 1.291 . S
C811 H824 0.931 . S
C812 C811 1.291 . S
C812 C813 1.373 . S
C812 H825 0.929 . S
C813 C812 1.373 . S
C813 C814 1.396 . S
C813 C820 1.403 . S
C814 C804 1.476 . S
C814 N809 1.318 . S
C814 C813 1.396 . S
H815 C810 0.929 . S
O816 Mn792 2.385 . S
O816 C794 1.234 . S
O817 Mn792 2.209 . S
O817 Mn793 2.215 . S
O817 C794 1.283 . S
O818 Mn792 2.094 . S
O818 C796 1.240 . S
O819 Mn793 2.117 . S
O819 C796 1.264 . S
C820 C813 1.403 . S
C820 C821 1.399 . S
C820 H826 0.929 . S
C821 C801 1.449 . S
C821 C820 1.399 . S
C821 H827 0.930 . S
H822 C802 0.931 . S
H823 C803 0.930 . S
H824 C811 0.931 . S
H825 C812 0.929 . S
H826 C820 0.929 . S
H827 C821 0.930 . S
Mn828 O833 2.095 . S
Mn828 O843 2.162 . S
Mn828 O844 2.297 . S
Mn828 O852 2.385 . S
Mn828 O853 2.209 . S
Mn828 O854 2.094 . S
Mn829 O834 2.121 . S
Mn829 N836 2.257 . S
Mn829 N845 2.282 . S
Mn829 O853 2.215 . S
Mn829 O855 2.117 . S
C830 O852 1.234 . S
C830 O853 1.283 . S
C831 O843 1.281 . S
C831 O844 1.236 . S
C832 O854 1.240 . S
C832 O855 1.264 . S
O833 Mn828 2.095 . S
O833 C842 1.250 . S
O834 Mn829 2.121 . S
O834 C842 1.258 . S
C835 N836 1.326 . S
C835 C839 1.460 . S
C835 H841 0.929 . S
N836 Mn829 2.257 . S
N836 C835 1.326 . S
N836 C840 1.362 . S
C837 C838 1.258 . S
C837 C840 1.431 . S
C837 C857 1.449 . S
C838 C837 1.258 . S
C838 C839 1.477 . S
C838 H858 0.931 . S
C839 C835 1.460 . S
C839 C838 1.477 . S
C839 H859 0.930 . S
C840 N836 1.362 . S
C840 C837 1.431 . S
C840 C850 1.476 . S
H841 C835 0.929 . S
C842 O833 1.250 . S
C842 O834 1.258 . S
O843 Mn828 2.162 . S
O843 C831 1.281 . S
O844 Mn828 2.297 . S
O844 C831 1.236 . S
N845 Mn829 2.282 . S
N845 C846 1.328 . S
N845 C850 1.318 . S
C846 N845 1.328 . S
C846 C847 1.457 . S
C846 H851 0.929 . S
C847 C846 1.457 . S
C847 C848 1.291 . S
C847 H860 0.931 . S
C848 C847 1.291 . S
C848 C849 1.373 . S
C848 H861 0.929 . S
C849 C848 1.373 . S
C849 C850 1.396 . S
C849 C856 1.403 . S
C850 C840 1.476 . S
C850 N845 1.318 . S
C850 C849 1.396 . S
H851 C846 0.929 . S
O852 Mn828 2.385 . S
O852 C830 1.234 . S
O853 Mn828 2.209 . S
O853 Mn829 2.215 . S
O853 C830 1.283 . S
O854 Mn828 2.094 . S
O854 C832 1.240 . S
O855 Mn829 2.117 . S
O855 C832 1.264 . S
C856 C849 1.403 . S
C856 C857 1.399 . S
C856 H862 0.929 . S
C857 C837 1.449 . S
C857 C856 1.399 . S
C857 H863 0.930 . S
H858 C838 0.931 . S
H859 C839 0.930 . S
H860 C847 0.931 . S
H861 C848 0.929 . S
H862 C856 0.929 . S
H863 C857 0.930 . S
Mn864 O869 2.095 . S
Mn864 O879 2.162 . S
Mn864 O880 2.297 . S
Mn864 O888 2.385 . S
Mn864 O889 2.209 . S
Mn864 O890 2.094 . S
Mn865 O870 2.121 . S
Mn865 N872 2.257 . S
Mn865 N881 2.282 . S
Mn865 O889 2.215 . S
Mn865 O891 2.117 . S
C866 O888 1.234 . S
C866 O889 1.283 . S
C867 O879 1.281 . S
C867 O880 1.236 . S
C868 O890 1.240 . S
C868 O891 1.264 . S
O869 Mn864 2.095 . S
O869 C878 1.250 . S
O870 Mn865 2.121 . S
O870 C878 1.258 . S
C871 N872 1.326 . S
C871 C875 1.460 . S
C871 H877 0.929 . S
N872 Mn865 2.257 . S
N872 C871 1.326 . S
N872 C876 1.362 . S
C873 C874 1.258 . S
C873 C876 1.431 . S
C873 C893 1.449 . S
C874 C873 1.258 . S
C874 C875 1.477 . S
C874 H894 0.931 . S
C875 C871 1.460 . S
C875 C874 1.477 . S
C875 H895 0.930 . S
C876 N872 1.362 . S
C876 C873 1.431 . S
C876 C886 1.476 . S
H877 C871 0.929 . S
C878 O869 1.250 . S
C878 O870 1.258 . S
O879 Mn864 2.162 . S
O879 C867 1.281 . S
O880 Mn864 2.297 . S
O880 C867 1.236 . S
N881 Mn865 2.282 . S
N881 C882 1.328 . S
N881 C886 1.318 . S
C882 N881 1.328 . S
C882 C883 1.457 . S
C882 H887 0.929 . S
C883 C882 1.457 . S
C883 C884 1.291 . S
C883 H896 0.931 . S
C884 C883 1.291 . S
C884 C885 1.373 . S
C884 H897 0.929 . S
C885 C884 1.373 . S
C885 C886 1.396 . S
C885 C892 1.403 . S
C886 C876 1.476 . S
C886 N881 1.318 . S
C886 C885 1.396 . S
H887 C882 0.929 . S
O888 Mn864 2.385 . S
O888 C866 1.234 . S
O889 Mn864 2.209 . S
O889 Mn865 2.215 . S
O889 C866 1.283 . S
O890 Mn864 2.094 . S
O890 C868 1.240 . S
O891 Mn865 2.117 . S
O891 C868 1.264 . S
C892 C885 1.403 . S
C892 C893 1.399 . S
C892 H898 0.929 . S
C893 C873 1.449 . S
C893 C892 1.399 . S
C893 H899 0.930 . S
H894 C874 0.931 . S
H895 C875 0.930 . S
H896 C883 0.931 . S
H897 C884 0.929 . S
H898 C892 0.929 . S
H899 C893 0.930 . S
Mn900 O905 2.095 . S
Mn900 O915 2.162 . S
Mn900 O916 2.297 . S
Mn900 O924 2.385 . S
Mn900 O925 2.209 . S
Mn900 O926 2.094 . S
Mn901 O906 2.121 . S
Mn901 N908 2.257 . S
Mn901 N917 2.282 . S
Mn901 O925 2.215 . S
Mn901 O927 2.117 . S
C902 O924 1.234 . S
C902 O925 1.283 . S
C903 O915 1.281 . S
C903 O916 1.236 . S
C904 O926 1.240 . S
C904 O927 1.264 . S
O905 Mn900 2.095 . S
O905 C914 1.250 . S
O906 Mn901 2.121 . S
O906 C914 1.258 . S
C907 N908 1.326 . S
C907 C911 1.460 . S
C907 H913 0.929 . S
N908 Mn901 2.257 . S
N908 C907 1.326 . S
N908 C912 1.362 . S
C909 C910 1.258 . S
C909 C912 1.431 . S
C909 C929 1.449 . S
C910 C909 1.258 . S
C910 C911 1.477 . S
C910 H930 0.931 . S
C911 C907 1.460 . S
C911 C910 1.477 . S
C911 H931 0.930 . S
C912 N908 1.362 . S
C912 C909 1.431 . S
C912 C922 1.476 . S
H913 C907 0.929 . S
C914 O905 1.250 . S
C914 O906 1.258 . S
O915 Mn900 2.162 . S
O915 C903 1.281 . S
O916 Mn900 2.297 . S
O916 C903 1.236 . S
N917 Mn901 2.282 . S
N917 C918 1.328 . S
N917 C922 1.318 . S
C918 N917 1.328 . S
C918 C919 1.457 . S
C918 H923 0.929 . S
C919 C918 1.457 . S
C919 C920 1.291 . S
C919 H932 0.931 . S
C920 C919 1.291 . S
C920 C921 1.373 . S
C920 H933 0.929 . S
C921 C920 1.373 . S
C921 C922 1.396 . S
C921 C928 1.403 . S
C922 C912 1.476 . S
C922 N917 1.318 . S
C922 C921 1.396 . S
H923 C918 0.929 . S
O924 Mn900 2.385 . S
O924 C902 1.234 . S
O925 Mn900 2.209 . S
O925 Mn901 2.215 . S
O925 C902 1.283 . S
O926 Mn900 2.094 . S
O926 C904 1.240 . S
O927 Mn901 2.117 . S
O927 C904 1.264 . S
C928 C921 1.403 . S
C928 C929 1.399 . S
C928 H934 0.929 . S
C929 C909 1.449 . S
C929 C928 1.399 . S
C929 H935 0.930 . S
H930 C910 0.931 . S
H931 C911 0.930 . S
H932 C919 0.931 . S
H933 C920 0.929 . S
H934 C928 0.929 . S
H935 C929 0.930 . S
Mn936 O941 2.095 . S
Mn936 O951 2.162 . S
Mn936 O952 2.297 . S
Mn936 O960 2.385 . S
Mn936 O961 2.209 . S
Mn936 O962 2.094 . S
Mn937 O942 2.121 . S
Mn937 N944 2.257 . S
Mn937 N953 2.282 . S
Mn937 O961 2.215 . S
Mn937 O963 2.117 . S
C938 O960 1.234 . S
C938 O961 1.283 . S
C939 O951 1.281 . S
C939 O952 1.236 . S
C940 O962 1.240 . S
C940 O963 1.264 . S
O941 Mn936 2.095 . S
O941 C950 1.250 . S
O942 Mn937 2.121 . S
O942 C950 1.258 . S
C943 N944 1.326 . S
C943 C947 1.460 . S
C943 H949 0.929 . S
N944 Mn937 2.257 . S
N944 C943 1.326 . S
N944 C948 1.362 . S
C945 C946 1.258 . S
C945 C948 1.431 . S
C945 C965 1.449 . S
C946 C945 1.258 . S
C946 C947 1.477 . S
C946 H966 0.931 . S
C947 C943 1.460 . S
C947 C946 1.477 . S
C947 H967 0.930 . S
C948 N944 1.362 . S
C948 C945 1.431 . S
C948 C958 1.476 . S
H949 C943 0.929 . S
C950 O941 1.250 . S
C950 O942 1.258 . S
O951 Mn936 2.162 . S
O951 C939 1.281 . S
O952 Mn936 2.297 . S
O952 C939 1.236 . S
N953 Mn937 2.282 . S
N953 C954 1.328 . S
N953 C958 1.318 . S
C954 N953 1.328 . S
C954 C955 1.457 . S
C954 H959 0.929 . S
C955 C954 1.457 . S
C955 C956 1.291 . S
C955 H968 0.931 . S
C956 C955 1.291 . S
C956 C957 1.373 . S
C956 H969 0.929 . S
C957 C956 1.373 . S
C957 C958 1.396 . S
C957 C964 1.403 . S
C958 C948 1.476 . S
C958 N953 1.318 . S
C958 C957 1.396 . S
H959 C954 0.929 . S
O960 Mn936 2.385 . S
O960 C938 1.234 . S
O961 Mn936 2.209 . S
O961 Mn937 2.215 . S
O961 C938 1.283 . S
O962 Mn936 2.094 . S
O962 C940 1.240 . S
O963 Mn937 2.117 . S
O963 C940 1.264 . S
C964 C957 1.403 . S
C964 C965 1.399 . S
C964 H970 0.929 . S
C965 C945 1.449 . S
C965 C964 1.399 . S
C965 H971 0.930 . S
H966 C946 0.931 . S
H967 C947 0.930 . S
H968 C955 0.931 . S
H969 C956 0.929 . S
H970 C964 0.929 . S
H971 C965 0.930 . S
Mn972 O977 2.095 . S
Mn972 O987 2.162 . S
Mn972 O988 2.297 . S
Mn972 O996 2.385 . S
Mn972 O997 2.209 . S
Mn972 O998 2.094 . S
Mn973 O978 2.121 . S
Mn973 N980 2.257 . S
Mn973 N989 2.282 . S
Mn973 O997 2.215 . S
Mn973 O999 2.117 . S
C974 O996 1.234 . S
C974 O997 1.283 . S
C975 O987 1.281 . S
C975 O988 1.236 . S
C976 O998 1.240 . S
C976 O999 1.264 . S
O977 Mn972 2.095 . S
O977 C986 1.250 . S
O978 Mn973 2.121 . S
O978 C986 1.258 . S
C979 N980 1.326 . S
C979 C983 1.460 . S
C979 H985 0.929 . S
N980 Mn973 2.257 . S
N980 C979 1.326 . S
N980 C984 1.362 . S
C981 C982 1.258 . S
C981 C984 1.431 . S
C981 C1001 1.449 . S
C982 C981 1.258 . S
C982 C983 1.477 . S
C982 H1002 0.931 . S
C983 C979 1.460 . S
C983 C982 1.477 . S
C983 H1003 0.930 . S
C984 N980 1.362 . S
C984 C981 1.431 . S
C984 C994 1.476 . S
H985 C979 0.929 . S
C986 O977 1.250 . S
C986 O978 1.258 . S
O987 Mn972 2.162 . S
O987 C975 1.281 . S
O988 Mn972 2.297 . S
O988 C975 1.236 . S
N989 Mn973 2.282 . S
N989 C990 1.328 . S
N989 C994 1.318 . S
C990 N989 1.328 . S
C990 C991 1.457 . S
C990 H995 0.929 . S
C991 C990 1.457 . S
C991 C992 1.291 . S
C991 H1004 0.931 . S
C992 C991 1.291 . S
C992 C993 1.373 . S
C992 H1005 0.929 . S
C993 C992 1.373 . S
C993 C994 1.396 . S
C993 C1000 1.403 . S
C994 C984 1.476 . S
C994 N989 1.318 . S
C994 C993 1.396 . S
H995 C990 0.929 . S
O996 Mn972 2.385 . S
O996 C974 1.234 . S
O997 Mn972 2.209 . S
O997 Mn973 2.215 . S
O997 C974 1.283 . S
O998 Mn972 2.094 . S
O998 C976 1.240 . S
O999 Mn973 2.117 . S
O999 C976 1.264 . S
C1000 C993 1.403 . S
C1000 C1001 1.399 . S
C1000 H1006 0.929 . S
C1001 C981 1.449 . S
C1001 C1000 1.399 . S
C1001 H1007 0.930 . S
H1002 C982 0.931 . S
H1003 C983 0.930 . S
H1004 C991 0.931 . S
H1005 C992 0.929 . S
H1006 C1000 0.929 . S
H1007 C1001 0.930 . S
Mn1008 O1013 2.095 . S
Mn1008 O1023 2.162 . S
Mn1008 O1024 2.297 . S
Mn1008 O1032 2.385 . S
Mn1008 O1033 2.209 . S
Mn1008 O1034 2.094 . S
Mn1009 O1014 2.121 . S
Mn1009 N1016 2.257 . S
Mn1009 N1025 2.282 . S
Mn1009 O1033 2.215 . S
Mn1009 O1035 2.117 . S
C1010 O1032 1.234 . S
C1010 O1033 1.283 . S
C1011 O1023 1.281 . S
C1011 O1024 1.236 . S
C1012 O1034 1.240 . S
C1012 O1035 1.264 . S
O1013 Mn1008 2.095 . S
O1013 C1022 1.250 . S
O1014 Mn1009 2.121 . S
O1014 C1022 1.258 . S
C1015 N1016 1.326 . S
C1015 C1019 1.460 . S
C1015 H1021 0.929 . S
N1016 Mn1009 2.257 . S
N1016 C1015 1.326 . S
N1016 C1020 1.362 . S
C1017 C1018 1.258 . S
C1017 C1020 1.431 . S
C1017 C1037 1.449 . S
C1018 C1017 1.258 . S
C1018 C1019 1.477 . S
C1018 H1038 0.931 . S
C1019 C1015 1.460 . S
C1019 C1018 1.477 . S
C1019 H1039 0.930 . S
C1020 N1016 1.362 . S
C1020 C1017 1.431 . S
C1020 C1030 1.476 . S
H1021 C1015 0.929 . S
C1022 O1013 1.250 . S
C1022 O1014 1.258 . S
O1023 Mn1008 2.162 . S
O1023 C1011 1.281 . S
O1024 Mn1008 2.297 . S
O1024 C1011 1.236 . S
N1025 Mn1009 2.282 . S
N1025 C1026 1.328 . S
N1025 C1030 1.318 . S
C1026 N1025 1.328 . S
C1026 C1027 1.457 . S
C1026 H1031 0.929 . S
C1027 C1026 1.457 . S
C1027 C1028 1.291 . S
C1027 H1040 0.931 . S
C1028 C1027 1.291 . S
C1028 C1029 1.373 . S
C1028 H1041 0.929 . S
C1029 C1028 1.373 . S
C1029 C1030 1.396 . S
C1029 C1036 1.403 . S
C1030 C1020 1.476 . S
C1030 N1025 1.318 . S
C1030 C1029 1.396 . S
H1031 C1026 0.929 . S
O1032 Mn1008 2.385 . S
O1032 C1010 1.234 . S
O1033 Mn1008 2.209 . S
O1033 Mn1009 2.215 . S
O1033 C1010 1.283 . S
O1034 Mn1008 2.094 . S
O1034 C1012 1.240 . S
O1035 Mn1009 2.117 . S
O1035 C1012 1.264 . S
C1036 C1029 1.403 . S
C1036 C1037 1.399 . S
C1036 H1042 0.929 . S
C1037 C1017 1.449 . S
C1037 C1036 1.399 . S
C1037 H1043 0.930 . S
H1038 C1018 0.931 . S
H1039 C1019 0.930 . S
H1040 C1027 0.931 . S
H1041 C1028 0.929 . S
H1042 C1036 0.929 . S
H1043 C1037 0.930 . S
Mn1044 O1049 2.095 . S
Mn1044 O1059 2.162 . S
Mn1044 O1060 2.297 . S
Mn1044 O1068 2.385 . S
Mn1044 O1069 2.209 . S
Mn1044 O1070 2.094 . S
Mn1045 O1050 2.121 . S
Mn1045 N1052 2.257 . S
Mn1045 N1061 2.282 . S
Mn1045 O1069 2.215 . S
Mn1045 O1071 2.117 . S
C1046 O1068 1.234 . S
C1046 O1069 1.283 . S
C1047 O1059 1.281 . S
C1047 O1060 1.236 . S
C1048 O1070 1.240 . S
C1048 O1071 1.264 . S
O1049 Mn1044 2.095 . S
O1049 C1058 1.250 . S
O1050 Mn1045 2.121 . S
O1050 C1058 1.258 . S
C1051 N1052 1.326 . S
C1051 C1055 1.460 . S
C1051 H1057 0.929 . S
N1052 Mn1045 2.257 . S
N1052 C1051 1.326 . S
N1052 C1056 1.362 . S
C1053 C1054 1.258 . S
C1053 C1056 1.431 . S
C1053 C1073 1.449 . S
C1054 C1053 1.258 . S
C1054 C1055 1.477 . S
C1054 H1074 0.931 . S
C1055 C1051 1.460 . S
C1055 C1054 1.477 . S
C1055 H1075 0.930 . S
C1056 N1052 1.362 . S
C1056 C1053 1.431 . S
C1056 C1066 1.476 . S
H1057 C1051 0.929 . S
C1058 O1049 1.250 . S
C1058 O1050 1.258 . S
O1059 Mn1044 2.162 . S
O1059 C1047 1.281 . S
O1060 Mn1044 2.297 . S
O1060 C1047 1.236 . S
N1061 Mn1045 2.282 . S
N1061 C1062 1.328 . S
N1061 C1066 1.318 . S
C1062 N1061 1.328 . S
C1062 C1063 1.457 . S
C1062 H1067 0.929 . S
C1063 C1062 1.457 . S
C1063 C1064 1.291 . S
C1063 H1076 0.931 . S
C1064 C1063 1.291 . S
C1064 C1065 1.373 . S
C1064 H1077 0.929 . S
C1065 C1064 1.373 . S
C1065 C1066 1.396 . S
C1065 C1072 1.403 . S
C1066 C1056 1.476 . S
C1066 N1061 1.318 . S
C1066 C1065 1.396 . S
H1067 C1062 0.929 . S
O1068 Mn1044 2.385 . S
O1068 C1046 1.234 . S
O1069 Mn1044 2.209 . S
O1069 Mn1045 2.215 . S
O1069 C1046 1.283 . S
O1070 Mn1044 2.094 . S
O1070 C1048 1.240 . S
O1071 Mn1045 2.117 . S
O1071 C1048 1.264 . S
C1072 C1065 1.403 . S
C1072 C1073 1.399 . S
C1072 H1078 0.929 . S
C1073 C1053 1.449 . S
C1073 C1072 1.399 . S
C1073 H1079 0.930 . S
H1074 C1054 0.931 . S
H1075 C1055 0.930 . S
H1076 C1063 0.931 . S
H1077 C1064 0.929 . S
H1078 C1072 0.929 . S
H1079 C1073 0.930 . S
Mn1080 O1085 2.095 . S
Mn1080 O1095 2.162 . S
Mn1080 O1096 2.297 . S
Mn1080 O1104 2.385 . S
Mn1080 O1105 2.209 . S
Mn1080 O1106 2.094 . S
Mn1081 O1086 2.121 . S
Mn1081 N1088 2.257 . S
Mn1081 N1097 2.282 . S
Mn1081 O1105 2.215 . S
Mn1081 O1107 2.117 . S
C1082 O1104 1.234 . S
C1082 O1105 1.283 . S
C1083 O1095 1.281 . S
C1083 O1096 1.236 . S
C1084 O1106 1.240 . S
C1084 O1107 1.264 . S
O1085 Mn1080 2.095 . S
O1085 C1094 1.250 . S
O1086 Mn1081 2.121 . S
O1086 C1094 1.258 . S
C1087 N1088 1.326 . S
C1087 C1091 1.460 . S
C1087 H1093 0.929 . S
N1088 Mn1081 2.257 . S
N1088 C1087 1.326 . S
N1088 C1092 1.362 . S
C1089 C1090 1.258 . S
C1089 C1092 1.431 . S
C1089 C1109 1.449 . S
C1090 C1089 1.258 . S
C1090 C1091 1.477 . S
C1090 H1110 0.931 . S
C1091 C1087 1.460 . S
C1091 C1090 1.477 . S
C1091 H1111 0.930 . S
C1092 N1088 1.362 . S
C1092 C1089 1.431 . S
C1092 C1102 1.476 . S
H1093 C1087 0.929 . S
C1094 O1085 1.250 . S
C1094 O1086 1.258 . S
O1095 Mn1080 2.162 . S
O1095 C1083 1.281 . S
O1096 Mn1080 2.297 . S
O1096 C1083 1.236 . S
N1097 Mn1081 2.282 . S
N1097 C1098 1.328 . S
N1097 C1102 1.318 . S
C1098 N1097 1.328 . S
C1098 C1099 1.457 . S
C1098 H1103 0.929 . S
C1099 C1098 1.457 . S
C1099 C1100 1.291 . S
C1099 H1112 0.931 . S
C1100 C1099 1.291 . S
C1100 C1101 1.373 . S
C1100 H1113 0.929 . S
C1101 C1100 1.373 . S
C1101 C1102 1.396 . S
C1101 C1108 1.403 . S
C1102 C1092 1.476 . S
C1102 N1097 1.318 . S
C1102 C1101 1.396 . S
H1103 C1098 0.929 . S
O1104 Mn1080 2.385 . S
O1104 C1082 1.234 . S
O1105 Mn1080 2.209 . S
O1105 Mn1081 2.215 . S
O1105 C1082 1.283 . S
O1106 Mn1080 2.094 . S
O1106 C1084 1.240 . S
O1107 Mn1081 2.117 . S
O1107 C1084 1.264 . S
C1108 C1101 1.403 . S
C1108 C1109 1.399 . S
C1108 H1114 0.929 . S
C1109 C1089 1.449 . S
C1109 C1108 1.399 . S
C1109 H1115 0.930 . S
H1110 C1090 0.931 . S
H1111 C1091 0.930 . S
H1112 C1099 0.931 . S
H1113 C1100 0.929 . S
H1114 C1108 0.929 . S
H1115 C1109 0.930 . S
Mn1116 O1121 2.095 . S
Mn1116 O1131 2.162 . S
Mn1116 O1132 2.297 . S
Mn1116 O1140 2.385 . S
Mn1116 O1141 2.209 . S
Mn1116 O1142 2.094 . S
Mn1117 O1122 2.121 . S
Mn1117 N1124 2.257 . S
Mn1117 N1133 2.282 . S
Mn1117 O1141 2.215 . S
Mn1117 O1143 2.117 . S
C1118 O1140 1.234 . S
C1118 O1141 1.283 . S
C1119 O1131 1.281 . S
C1119 O1132 1.236 . S
C1120 O1142 1.240 . S
C1120 O1143 1.264 . S
O1121 Mn1116 2.095 . S
O1121 C1130 1.250 . S
O1122 Mn1117 2.121 . S
O1122 C1130 1.258 . S
C1123 N1124 1.326 . S
C1123 C1127 1.460 . S
C1123 H1129 0.929 . S
N1124 Mn1117 2.257 . S
N1124 C1123 1.326 . S
N1124 C1128 1.362 . S
C1125 C1126 1.258 . S
C1125 C1128 1.431 . S
C1125 C1145 1.449 . S
C1126 C1125 1.258 . S
C1126 C1127 1.477 . S
C1126 H1146 0.931 . S
C1127 C1123 1.460 . S
C1127 C1126 1.477 . S
C1127 H1147 0.930 . S
C1128 N1124 1.362 . S
C1128 C1125 1.431 . S
C1128 C1138 1.476 . S
H1129 C1123 0.929 . S
C1130 O1121 1.250 . S
C1130 O1122 1.258 . S
O1131 Mn1116 2.162 . S
O1131 C1119 1.281 . S
O1132 Mn1116 2.297 . S
O1132 C1119 1.236 . S
N1133 Mn1117 2.282 . S
N1133 C1134 1.328 . S
N1133 C1138 1.318 . S
C1134 N1133 1.328 . S
C1134 C1135 1.457 . S
C1134 H1139 0.929 . S
C1135 C1134 1.457 . S
C1135 C1136 1.291 . S
C1135 H1148 0.931 . S
C1136 C1135 1.291 . S
C1136 C1137 1.373 . S
C1136 H1149 0.929 . S
C1137 C1136 1.373 . S
C1137 C1138 1.396 . S
C1137 C1144 1.403 . S
C1138 C1128 1.476 . S
C1138 N1133 1.318 . S
C1138 C1137 1.396 . S
H1139 C1134 0.929 . S
O1140 Mn1116 2.385 . S
O1140 C1118 1.234 . S
O1141 Mn1116 2.209 . S
O1141 Mn1117 2.215 . S
O1141 C1118 1.283 . S
O1142 Mn1116 2.094 . S
O1142 C1120 1.240 . S
O1143 Mn1117 2.117 . S
O1143 C1120 1.264 . S
C1144 C1137 1.403 . S
C1144 C1145 1.399 . S
C1144 H1150 0.929 . S
C1145 C1125 1.449 . S
C1145 C1144 1.399 . S
C1145 H1151 0.930 . S
H1146 C1126 0.931 . S
H1147 C1127 0.930 . S
H1148 C1135 0.931 . S
H1149 C1136 0.929 . S
H1150 C1144 0.929 . S
H1151 C1145 0.930 . S
C1152 C1153 1.349 . S
C1152 C1154 1.327 . S
C1152 H1177 0.950 . S
C1153 C1152 1.349 . S
C1153 C1169 1.349 . S
C1154 C1152 1.327 . S
C1154 C1173 1.429 . S
C1154 H1178 0.950 . S
C1155 C1172 1.574 . S
C1155 C1174 1.368 . S
C1155 H1179 0.949 . S
H1156 C1160 0.949 . S
C1157 C1158 1.349 . S
C1157 C1159 1.327 . S
C1157 H1180 0.950 . S
C1158 C1157 1.349 . S
C1158 C1170 1.349 . S
C1159 C1157 1.327 . S
C1159 C1175 1.429 . S
C1159 H1181 0.950 . S
C1160 H1156 0.949 . S
C1160 C1168 1.574 . S
C1160 C1176 1.368 . S
H1161 C1169 0.950 . S
H1162 C1167 0.950 . S
H1163 C1168 0.949 . S
H1164 C1170 0.950 . S
H1165 C1171 0.950 . S
H1166 C1172 0.949 . S
C1167 H1162 0.950 . S
C1167 C1169 1.327 . S
C1167 C1173 1.429 . S
C1168 C1160 1.574 . S
C1168 H1163 0.949 . S
C1168 C1174 1.368 . S
C1169 C1153 1.349 . S
C1169 H1161 0.950 . S
C1169 C1167 1.327 . S
C1170 C1158 1.349 . S
C1170 H1164 0.950 . S
C1170 C1171 1.327 . S
C1171 H1165 0.950 . S
C1171 C1170 1.327 . S
C1171 C1175 1.429 . S
C1172 C1155 1.574 . S
C1172 H1166 0.949 . S
C1172 C1176 1.368 . S
C1173 C1154 1.429 . S
C1173 C1167 1.429 . S
C1173 C1174 1.523 . S
C1174 C1155 1.368 . S
C1174 C1168 1.368 . S
C1174 C1173 1.523 . S
C1175 C1159 1.429 . S
C1175 C1171 1.429 . S
C1175 C1176 1.523 . S
C1176 C1160 1.368 . S
C1176 C1172 1.368 . S
C1176 C1175 1.523 . S
H1177 C1152 0.950 . S
H1178 C1154 0.950 . S
H1179 C1155 0.949 . S
H1180 C1157 0.950 . S
H1181 C1159 0.950 . S
C1182 C1183 1.349 . S
C1182 C1184 1.327 . S
C1182 H1207 0.950 . S
C1183 C1182 1.349 . S
C1183 C1199 1.349 . S
C1184 C1182 1.327 . S
C1184 C1203 1.429 . S
C1184 H1208 0.950 . S
C1185 C1202 1.574 . S
C1185 C1204 1.368 . S
C1185 H1209 0.949 . S
H1186 C1190 0.949 . S
C1187 C1188 1.349 . S
C1187 C1189 1.327 . S
C1187 H1210 0.950 . S
C1188 C1187 1.349 . S
C1188 C1200 1.349 . S
C1189 C1187 1.327 . S
C1189 C1205 1.429 . S
C1189 H1211 0.950 . S
C1190 H1186 0.949 . S
C1190 C1198 1.574 . S
C1190 C1206 1.368 . S
H1191 C1199 0.950 . S
H1192 C1197 0.950 . S
H1193 C1198 0.949 . S
H1194 C1200 0.950 . S
H1195 C1201 0.950 . S
H1196 C1202 0.949 . S
C1197 H1192 0.950 . S
C1197 C1199 1.327 . S
C1197 C1203 1.429 . S
C1198 C1190 1.574 . S
C1198 H1193 0.949 . S
C1198 C1204 1.368 . S
C1199 C1183 1.349 . S
C1199 H1191 0.950 . S
C1199 C1197 1.327 . S
C1200 C1188 1.349 . S
C1200 H1194 0.950 . S
C1200 C1201 1.327 . S
C1201 H1195 0.950 . S
C1201 C1200 1.327 . S
C1201 C1205 1.429 . S
C1202 C1185 1.574 . S
C1202 H1196 0.949 . S
C1202 C1206 1.368 . S
C1203 C1184 1.429 . S
C1203 C1197 1.429 . S
C1203 C1204 1.523 . S
C1204 C1185 1.368 . S
C1204 C1198 1.368 . S
C1204 C1203 1.523 . S
C1205 C1189 1.429 . S
C1205 C1201 1.429 . S
C1205 C1206 1.523 . S
C1206 C1190 1.368 . S
C1206 C1202 1.368 . S
C1206 C1205 1.523 . S
H1207 C1182 0.950 . S
H1208 C1184 0.950 . S
H1209 C1185 0.949 . S
H1210 C1187 0.950 . S
H1211 C1189 0.950 . S
C1212 C1213 1.349 . S
C1212 C1214 1.327 . S
C1212 H1237 0.950 . S
C1213 C1212 1.349 . S
C1213 C1229 1.349 . S
C1214 C1212 1.327 . S
C1214 C1233 1.429 . S
C1214 H1238 0.950 . S
C1215 C1232 1.574 . S
C1215 C1234 1.368 . S
C1215 H1239 0.949 . S
H1216 C1220 0.949 . S
C1217 C1218 1.349 . S
C1217 C1219 1.327 . S
C1217 H1240 0.950 . S
C1218 C1217 1.349 . S
C1218 C1230 1.349 . S
C1219 C1217 1.327 . S
C1219 C1235 1.429 . S
C1219 H1241 0.950 . S
C1220 H1216 0.949 . S
C1220 C1228 1.574 . S
C1220 C1236 1.368 . S
H1221 C1229 0.950 . S
H1222 C1227 0.950 . S
H1223 C1228 0.949 . S
H1224 C1230 0.950 . S
H1225 C1231 0.950 . S
H1226 C1232 0.949 . S
C1227 H1222 0.950 . S
C1227 C1229 1.327 . S
C1227 C1233 1.429 . S
C1228 C1220 1.574 . S
C1228 H1223 0.949 . S
C1228 C1234 1.368 . S
C1229 C1213 1.349 . S
C1229 H1221 0.950 . S
C1229 C1227 1.327 . S
C1230 C1218 1.349 . S
C1230 H1224 0.950 . S
C1230 C1231 1.327 . S
C1231 H1225 0.950 . S
C1231 C1230 1.327 . S
C1231 C1235 1.429 . S
C1232 C1215 1.574 . S
C1232 H1226 0.949 . S
C1232 C1236 1.368 . S
C1233 C1214 1.429 . S
C1233 C1227 1.429 . S
C1233 C1234 1.523 . S
C1234 C1215 1.368 . S
C1234 C1228 1.368 . S
C1234 C1233 1.523 . S
C1235 C1219 1.429 . S
C1235 C1231 1.429 . S
C1235 C1236 1.523 . S
C1236 C1220 1.368 . S
C1236 C1232 1.368 . S
C1236 C1235 1.523 . S
H1237 C1212 0.950 . S
H1238 C1214 0.950 . S
H1239 C1215 0.949 . S
H1240 C1217 0.950 . S
H1241 C1219 0.950 . S
C1242 C1243 1.349 . S
C1242 C1244 1.327 . S
C1242 H1267 0.950 . S
C1243 C1242 1.349 . S
C1243 C1259 1.349 . S
C1244 C1242 1.327 . S
C1244 C1263 1.429 . S
C1244 H1268 0.950 . S
C1245 C1262 1.574 . S
C1245 C1264 1.368 . S
C1245 H1269 0.949 . S
H1246 C1250 0.949 . S
C1247 C1248 1.349 . S
C1247 C1249 1.327 . S
C1247 H1270 0.950 . S
C1248 C1247 1.349 . S
C1248 C1260 1.349 . S
C1249 C1247 1.327 . S
C1249 C1265 1.429 . S
C1249 H1271 0.950 . S
C1250 H1246 0.949 . S
C1250 C1258 1.574 . S
C1250 C1266 1.368 . S
H1251 C1259 0.950 . S
H1252 C1257 0.950 . S
H1253 C1258 0.949 . S
H1254 C1260 0.950 . S
H1255 C1261 0.950 . S
H1256 C1262 0.949 . S
C1257 H1252 0.950 . S
C1257 C1259 1.327 . S
C1257 C1263 1.429 . S
C1258 C1250 1.574 . S
C1258 H1253 0.949 . S
C1258 C1264 1.368 . S
C1259 C1243 1.349 . S
C1259 H1251 0.950 . S
C1259 C1257 1.327 . S
C1260 C1248 1.349 . S
C1260 H1254 0.950 . S
C1260 C1261 1.327 . S
C1261 H1255 0.950 . S
C1261 C1260 1.327 . S
C1261 C1265 1.429 . S
C1262 C1245 1.574 . S
C1262 H1256 0.949 . S
C1262 C1266 1.368 . S
C1263 C1244 1.429 . S
C1263 C1257 1.429 . S
C1263 C1264 1.523 . S
C1264 C1245 1.368 . S
C1264 C1258 1.368 . S
C1264 C1263 1.523 . S
C1265 C1249 1.429 . S
C1265 C1261 1.429 . S
C1265 C1266 1.523 . S
C1266 C1250 1.368 . S
C1266 C1262 1.368 . S
C1266 C1265 1.523 . S
H1267 C1242 0.950 . S
H1268 C1244 0.950 . S
H1269 C1245 0.949 . S
H1270 C1247 0.950 . S
H1271 C1249 0.950 . S
C1272 C1273 1.349 . S
C1272 C1274 1.327 . S
C1272 H1297 0.950 . S
C1273 C1272 1.349 . S
C1273 C1289 1.349 . S
C1274 C1272 1.327 . S
C1274 C1293 1.429 . S
C1274 H1298 0.950 . S
C1275 C1292 1.574 . S
C1275 C1294 1.368 . S
C1275 H1299 0.949 . S
H1276 C1280 0.949 . S
C1277 C1278 1.349 . S
C1277 C1279 1.327 . S
C1277 H1300 0.950 . S
C1278 C1277 1.349 . S
C1278 C1290 1.349 . S
C1279 C1277 1.327 . S
C1279 C1295 1.429 . S
C1279 H1301 0.950 . S
C1280 H1276 0.949 . S
C1280 C1288 1.574 . S
C1280 C1296 1.368 . S
H1281 C1289 0.950 . S
H1282 C1287 0.950 . S
H1283 C1288 0.949 . S
H1284 C1290 0.950 . S
H1285 C1291 0.950 . S
H1286 C1292 0.949 . S
C1287 H1282 0.950 . S
C1287 C1289 1.327 . S
C1287 C1293 1.429 . S
C1288 C1280 1.574 . S
C1288 H1283 0.949 . S
C1288 C1294 1.368 . S
C1289 C1273 1.349 . S
C1289 H1281 0.950 . S
C1289 C1287 1.327 . S
C1290 C1278 1.349 . S
C1290 H1284 0.950 . S
C1290 C1291 1.327 . S
C1291 H1285 0.950 . S
C1291 C1290 1.327 . S
C1291 C1295 1.429 . S
C1292 C1275 1.574 . S
C1292 H1286 0.949 . S
C1292 C1296 1.368 . S
C1293 C1274 1.429 . S
C1293 C1287 1.429 . S
C1293 C1294 1.523 . S
C1294 C1275 1.368 . S
C1294 C1288 1.368 . S
C1294 C1293 1.523 . S
C1295 C1279 1.429 . S
C1295 C1291 1.429 . S
C1295 C1296 1.523 . S
C1296 C1280 1.368 . S
C1296 C1292 1.368 . S
C1296 C1295 1.523 . S
H1297 C1272 0.950 . S
H1298 C1274 0.950 . S
H1299 C1275 0.949 . S
H1300 C1277 0.950 . S
H1301 C1279 0.950 . S
C1302 C1303 1.349 . S
C1302 C1304 1.327 . S
C1302 H1327 0.950 . S
C1303 C1302 1.349 . S
C1303 C1319 1.349 . S
C1304 C1302 1.327 . S
C1304 C1323 1.429 . S
C1304 H1328 0.950 . S
C1305 C1322 1.574 . S
C1305 C1324 1.368 . S
C1305 H1329 0.949 . S
H1306 C1310 0.949 . S
C1307 C1308 1.349 . S
C1307 C1309 1.327 . S
C1307 H1330 0.950 . S
C1308 C1307 1.349 . S
C1308 C1320 1.349 . S
C1309 C1307 1.327 . S
C1309 C1325 1.429 . S
C1309 H1331 0.950 . S
C1310 H1306 0.949 . S
C1310 C1318 1.574 . S
C1310 C1326 1.368 . S
H1311 C1319 0.950 . S
H1312 C1317 0.950 . S
H1313 C1318 0.949 . S
H1314 C1320 0.950 . S
H1315 C1321 0.950 . S
H1316 C1322 0.949 . S
C1317 H1312 0.950 . S
C1317 C1319 1.327 . S
C1317 C1323 1.429 . S
C1318 C1310 1.574 . S
C1318 H1313 0.949 . S
C1318 C1324 1.368 . S
C1319 C1303 1.349 . S
C1319 H1311 0.950 . S
C1319 C1317 1.327 . S
C1320 C1308 1.349 . S
C1320 H1314 0.950 . S
C1320 C1321 1.327 . S
C1321 H1315 0.950 . S
C1321 C1320 1.327 . S
C1321 C1325 1.429 . S
C1322 C1305 1.574 . S
C1322 H1316 0.949 . S
C1322 C1326 1.368 . S
C1323 C1304 1.429 . S
C1323 C1317 1.429 . S
C1323 C1324 1.523 . S
C1324 C1305 1.368 . S
C1324 C1318 1.368 . S
C1324 C1323 1.523 . S
C1325 C1309 1.429 . S
C1325 C1321 1.429 . S
C1325 C1326 1.523 . S
C1326 C1310 1.368 . S
C1326 C1322 1.368 . S
C1326 C1325 1.523 . S
H1327 C1302 0.950 . S
H1328 C1304 0.950 . S
H1329 C1305 0.949 . S
H1330 C1307 0.950 . S
H1331 C1309 0.950 . S
C1332 C1333 1.349 . S
C1332 C1334 1.327 . S
C1332 H1357 0.950 . S
C1333 C1332 1.349 . S
C1333 C1349 1.349 . S
C1334 C1332 1.327 . S
C1334 C1353 1.429 . S
C1334 H1358 0.950 . S
C1335 C1352 1.574 . S
C1335 C1354 1.368 . S
C1335 H1359 0.949 . S
H1336 C1340 0.949 . S
C1337 C1338 1.349 . S
C1337 C1339 1.327 . S
C1337 H1360 0.950 . S
C1338 C1337 1.349 . S
C1338 C1350 1.349 . S
C1339 C1337 1.327 . S
C1339 C1355 1.429 . S
C1339 H1361 0.950 . S
C1340 H1336 0.949 . S
C1340 C1348 1.574 . S
C1340 C1356 1.368 . S
H1341 C1349 0.950 . S
H1342 C1347 0.950 . S
H1343 C1348 0.949 . S
H1344 C1350 0.950 . S
H1345 C1351 0.950 . S
H1346 C1352 0.949 . S
C1347 H1342 0.950 . S
C1347 C1349 1.327 . S
C1347 C1353 1.429 . S
C1348 C1340 1.574 . S
C1348 H1343 0.949 . S
C1348 C1354 1.368 . S
C1349 C1333 1.349 . S
C1349 H1341 0.950 . S
C1349 C1347 1.327 . S
C1350 C1338 1.349 . S
C1350 H1344 0.950 . S
C1350 C1351 1.327 . S
C1351 H1345 0.950 . S
C1351 C1350 1.327 . S
C1351 C1355 1.429 . S
C1352 C1335 1.574 . S
C1352 H1346 0.949 . S
C1352 C1356 1.368 . S
C1353 C1334 1.429 . S
C1353 C1347 1.429 . S
C1353 C1354 1.523 . S
C1354 C1335 1.368 . S
C1354 C1348 1.368 . S
C1354 C1353 1.523 . S
C1355 C1339 1.429 . S
C1355 C1351 1.429 . S
C1355 C1356 1.523 . S
C1356 C1340 1.368 . S
C1356 C1352 1.368 . S
C1356 C1355 1.523 . S
H1357 C1332 0.950 . S
H1358 C1334 0.950 . S
H1359 C1335 0.949 . S
H1360 C1337 0.950 . S
H1361 C1339 0.950 . S
C1362 C1363 1.349 . S
C1362 C1364 1.327 . S
C1362 H1387 0.950 . S
C1363 C1362 1.349 . S
C1363 C1379 1.349 . S
C1364 C1362 1.327 . S
C1364 C1383 1.429 . S
C1364 H1388 0.950 . S
C1365 C1382 1.574 . S
C1365 C1384 1.368 . S
C1365 H1389 0.949 . S
H1366 C1370 0.949 . S
C1367 C1368 1.349 . S
C1367 C1369 1.327 . S
C1367 H1390 0.950 . S
C1368 C1367 1.349 . S
C1368 C1380 1.349 . S
C1369 C1367 1.327 . S
C1369 C1385 1.429 . S
C1369 H1391 0.950 . S
C1370 H1366 0.949 . S
C1370 C1378 1.574 . S
C1370 C1386 1.368 . S
H1371 C1379 0.950 . S
H1372 C1377 0.950 . S
H1373 C1378 0.949 . S
H1374 C1380 0.950 . S
H1375 C1381 0.950 . S
H1376 C1382 0.949 . S
C1377 H1372 0.950 . S
C1377 C1379 1.327 . S
C1377 C1383 1.429 . S
C1378 C1370 1.574 . S
C1378 H1373 0.949 . S
C1378 C1384 1.368 . S
C1379 C1363 1.349 . S
C1379 H1371 0.950 . S
C1379 C1377 1.327 . S
C1380 C1368 1.349 . S
C1380 H1374 0.950 . S
C1380 C1381 1.327 . S
C1381 H1375 0.950 . S
C1381 C1380 1.327 . S
C1381 C1385 1.429 . S
C1382 C1365 1.574 . S
C1382 H1376 0.949 . S
C1382 C1386 1.368 . S
C1383 C1364 1.429 . S
C1383 C1377 1.429 . S
C1383 C1384 1.523 . S
C1384 C1365 1.368 . S
C1384 C1378 1.368 . S
C1384 C1383 1.523 . S
C1385 C1369 1.429 . S
C1385 C1381 1.429 . S
C1385 C1386 1.523 . S
C1386 C1370 1.368 . S
C1386 C1382 1.368 . S
C1386 C1385 1.523 . S
H1387 C1362 0.950 . S
H1388 C1364 0.950 . S
H1389 C1365 0.949 . S
H1390 C1367 0.950 . S
H1391 C1369 0.950 . S
C1392 C1393 1.349 . S
C1392 C1394 1.327 . S
C1392 H1417 0.950 . S
C1393 C1392 1.349 . S
C1393 C1409 1.349 . S
C1394 C1392 1.327 . S
C1394 C1413 1.429 . S
C1394 H1418 0.950 . S
C1395 C1412 1.574 . S
C1395 C1414 1.368 . S
C1395 H1419 0.949 . S
H1396 C1400 0.949 . S
C1397 C1398 1.349 . S
C1397 C1399 1.327 . S
C1397 H1420 0.950 . S
C1398 C1397 1.349 . S
C1398 C1410 1.349 . S
C1399 C1397 1.327 . S
C1399 C1415 1.429 . S
C1399 H1421 0.950 . S
C1400 H1396 0.949 . S
C1400 C1408 1.574 . S
C1400 C1416 1.368 . S
H1401 C1409 0.950 . S
H1402 C1407 0.950 . S
H1403 C1408 0.949 . S
H1404 C1410 0.950 . S
H1405 C1411 0.950 . S
H1406 C1412 0.949 . S
C1407 H1402 0.950 . S
C1407 C1409 1.327 . S
C1407 C1413 1.429 . S
C1408 C1400 1.574 . S
C1408 H1403 0.949 . S
C1408 C1414 1.368 . S
C1409 C1393 1.349 . S
C1409 H1401 0.950 . S
C1409 C1407 1.327 . S
C1410 C1398 1.349 . S
C1410 H1404 0.950 . S
C1410 C1411 1.327 . S
C1411 H1405 0.950 . S
C1411 C1410 1.327 . S
C1411 C1415 1.429 . S
C1412 C1395 1.574 . S
C1412 H1406 0.949 . S
C1412 C1416 1.368 . S
C1413 C1394 1.429 . S
C1413 C1407 1.429 . S
C1413 C1414 1.523 . S
C1414 C1395 1.368 . S
C1414 C1408 1.368 . S
C1414 C1413 1.523 . S
C1415 C1399 1.429 . S
C1415 C1411 1.429 . S
C1415 C1416 1.523 . S
C1416 C1400 1.368 . S
C1416 C1412 1.368 . S
C1416 C1415 1.523 . S
H1417 C1392 0.950 . S
H1418 C1394 0.950 . S
H1419 C1395 0.949 . S
H1420 C1397 0.950 . S
H1421 C1399 0.950 . S
C1422 C1423 1.349 . S
C1422 C1424 1.327 . S
C1422 H1447 0.950 . S
C1423 C1422 1.349 . S
C1423 C1439 1.349 . S
C1424 C1422 1.327 . S
C1424 C1443 1.429 . S
C1424 H1448 0.950 . S
C1425 C1442 1.574 . S
C1425 C1444 1.368 . S
C1425 H1449 0.949 . S
H1426 C1430 0.949 . S
C1427 C1428 1.349 . S
C1427 C1429 1.327 . S
C1427 H1450 0.950 . S
C1428 C1427 1.349 . S
C1428 C1440 1.349 . S
C1429 C1427 1.327 . S
C1429 C1445 1.429 . S
C1429 H1451 0.950 . S
C1430 H1426 0.949 . S
C1430 C1438 1.574 . S
C1430 C1446 1.368 . S
H1431 C1439 0.950 . S
H1432 C1437 0.950 . S
H1433 C1438 0.949 . S
H1434 C1440 0.950 . S
H1435 C1441 0.950 . S
H1436 C1442 0.949 . S
C1437 H1432 0.950 . S
C1437 C1439 1.327 . S
C1437 C1443 1.429 . S
C1438 C1430 1.574 . S
C1438 H1433 0.949 . S
C1438 C1444 1.368 . S
C1439 C1423 1.349 . S
C1439 H1431 0.950 . S
C1439 C1437 1.327 . S
C1440 C1428 1.349 . S
C1440 H1434 0.950 . S
C1440 C1441 1.327 . S
C1441 H1435 0.950 . S
C1441 C1440 1.327 . S
C1441 C1445 1.429 . S
C1442 C1425 1.574 . S
C1442 H1436 0.949 . S
C1442 C1446 1.368 . S
C1443 C1424 1.429 . S
C1443 C1437 1.429 . S
C1443 C1444 1.523 . S
C1444 C1425 1.368 . S
C1444 C1438 1.368 . S
C1444 C1443 1.523 . S
C1445 C1429 1.429 . S
C1445 C1441 1.429 . S
C1445 C1446 1.523 . S
C1446 C1430 1.368 . S
C1446 C1442 1.368 . S
C1446 C1445 1.523 . S
H1447 C1422 0.950 . S
H1448 C1424 0.950 . S
H1449 C1425 0.949 . S
H1450 C1427 0.950 . S
H1451 C1429 0.950 . S
C1452 C1453 1.349 . S
C1452 C1454 1.327 . S
C1452 H1477 0.950 . S
C1453 C1452 1.349 . S
C1453 C1469 1.349 . S
C1454 C1452 1.327 . S
C1454 C1473 1.429 . S
C1454 H1478 0.950 . S
C1455 C1472 1.574 . S
C1455 C1474 1.368 . S
C1455 H1479 0.949 . S
H1456 C1460 0.949 . S
C1457 C1458 1.349 . S
C1457 C1459 1.327 . S
C1457 H1480 0.950 . S
C1458 C1457 1.349 . S
C1458 C1470 1.349 . S
C1459 C1457 1.327 . S
C1459 C1475 1.429 . S
C1459 H1481 0.950 . S
C1460 H1456 0.949 . S
C1460 C1468 1.574 . S
C1460 C1476 1.368 . S
H1461 C1469 0.950 . S
H1462 C1467 0.950 . S
H1463 C1468 0.949 . S
H1464 C1470 0.950 . S
H1465 C1471 0.950 . S
H1466 C1472 0.949 . S
C1467 H1462 0.950 . S
C1467 C1469 1.327 . S
C1467 C1473 1.429 . S
C1468 C1460 1.574 . S
C1468 H1463 0.949 . S
C1468 C1474 1.368 . S
C1469 C1453 1.349 . S
C1469 H1461 0.950 . S
C1469 C1467 1.327 . S
C1470 C1458 1.349 . S
C1470 H1464 0.950 . S
C1470 C1471 1.327 . S
C1471 H1465 0.950 . S
C1471 C1470 1.327 . S
C1471 C1475 1.429 . S
C1472 C1455 1.574 . S
C1472 H1466 0.949 . S
C1472 C1476 1.368 . S
C1473 C1454 1.429 . S
C1473 C1467 1.429 . S
C1473 C1474 1.523 . S
C1474 C1455 1.368 . S
C1474 C1468 1.368 . S
C1474 C1473 1.523 . S
C1475 C1459 1.429 . S
C1475 C1471 1.429 . S
C1475 C1476 1.523 . S
C1476 C1460 1.368 . S
C1476 C1472 1.368 . S
C1476 C1475 1.523 . S
H1477 C1452 0.950 . S
H1478 C1454 0.950 . S
H1479 C1455 0.949 . S
H1480 C1457 0.950 . S
H1481 C1459 0.950 . S
C1482 C1483 1.349 . S
C1482 C1484 1.327 . S
C1482 H1507 0.950 . S
C1483 C1482 1.349 . S
C1483 C1499 1.349 . S
C1484 C1482 1.327 . S
C1484 C1503 1.429 . S
C1484 H1508 0.950 . S
C1485 C1502 1.574 . S
C1485 C1504 1.368 . S
C1485 H1509 0.949 . S
H1486 C1490 0.949 . S
C1487 C1488 1.349 . S
C1487 C1489 1.327 . S
C1487 H1510 0.950 . S
C1488 C1487 1.349 . S
C1488 C1500 1.349 . S
C1489 C1487 1.327 . S
C1489 C1505 1.429 . S
C1489 H1511 0.950 . S
C1490 H1486 0.949 . S
C1490 C1498 1.574 . S
C1490 C1506 1.368 . S
H1491 C1499 0.950 . S
H1492 C1497 0.950 . S
H1493 C1498 0.949 . S
H1494 C1500 0.950 . S
H1495 C1501 0.950 . S
H1496 C1502 0.949 . S
C1497 H1492 0.950 . S
C1497 C1499 1.327 . S
C1497 C1503 1.429 . S
C1498 C1490 1.574 . S
C1498 H1493 0.949 . S
C1498 C1504 1.368 . S
C1499 C1483 1.349 . S
C1499 H1491 0.950 . S
C1499 C1497 1.327 . S
C1500 C1488 1.349 . S
C1500 H1494 0.950 . S
C1500 C1501 1.327 . S
C1501 H1495 0.950 . S
C1501 C1500 1.327 . S
C1501 C1505 1.429 . S
C1502 C1485 1.574 . S
C1502 H1496 0.949 . S
C1502 C1506 1.368 . S
C1503 C1484 1.429 . S
C1503 C1497 1.429 . S
C1503 C1504 1.523 . S
C1504 C1485 1.368 . S
C1504 C1498 1.368 . S
C1504 C1503 1.523 . S
C1505 C1489 1.429 . S
C1505 C1501 1.429 . S
C1505 C1506 1.523 . S
C1506 C1490 1.368 . S
C1506 C1502 1.368 . S
C1506 C1505 1.523 . S
H1507 C1482 0.950 . S
H1508 C1484 0.950 . S
H1509 C1485 0.949 . S
H1510 C1487 0.950 . S
H1511 C1489 0.950 . S
C1512 C1513 1.349 . S
C1512 C1514 1.327 . S
C1512 H1537 0.950 . S
C1513 C1512 1.349 . S
C1513 C1529 1.349 . S
C1514 C1512 1.327 . S
C1514 C1533 1.429 . S
C1514 H1538 0.950 . S
C1515 C1532 1.574 . S
C1515 C1534 1.368 . S
C1515 H1539 0.949 . S
H1516 C1520 0.949 . S
C1517 C1518 1.349 . S
C1517 C1519 1.327 . S
C1517 H1540 0.950 . S
C1518 C1517 1.349 . S
C1518 C1530 1.349 . S
C1519 C1517 1.327 . S
C1519 C1535 1.429 . S
C1519 H1541 0.950 . S
C1520 H1516 0.949 . S
C1520 C1528 1.574 . S
C1520 C1536 1.368 . S
H1521 C1529 0.950 . S
H1522 C1527 0.950 . S
H1523 C1528 0.949 . S
H1524 C1530 0.950 . S
H1525 C1531 0.950 . S
H1526 C1532 0.949 . S
C1527 H1522 0.950 . S
C1527 C1529 1.327 . S
C1527 C1533 1.429 . S
C1528 C1520 1.574 . S
C1528 H1523 0.949 . S
C1528 C1534 1.368 . S
C1529 C1513 1.349 . S
C1529 H1521 0.950 . S
C1529 C1527 1.327 . S
C1530 C1518 1.349 . S
C1530 H1524 0.950 . S
C1530 C1531 1.327 . S
C1531 H1525 0.950 . S
C1531 C1530 1.327 . S
C1531 C1535 1.429 . S
C1532 C1515 1.574 . S
C1532 H1526 0.949 . S
C1532 C1536 1.368 . S
C1533 C1514 1.429 . S
C1533 C1527 1.429 . S
C1533 C1534 1.523 . S
C1534 C1515 1.368 . S
C1534 C1528 1.368 . S
C1534 C1533 1.523 . S
C1535 C1519 1.429 . S
C1535 C1531 1.429 . S
C1535 C1536 1.523 . S
C1536 C1520 1.368 . S
C1536 C1532 1.368 . S
C1536 C1535 1.523 . S
H1537 C1512 0.950 . S
H1538 C1514 0.950 . S
H1539 C1515 0.949 . S
H1540 C1517 0.950 . S
H1541 C1519 0.950 . S
C1542 C1543 1.349 . S
C1542 C1544 1.327 . S
C1542 H1567 0.950 . S
C1543 C1542 1.349 . S
C1543 C1559 1.349 . S
C1544 C1542 1.327 . S
C1544 C1563 1.429 . S
C1544 H1568 0.950 . S
C1545 C1562 1.574 . S
C1545 C1564 1.368 . S
C1545 H1569 0.949 . S
H1546 C1550 0.949 . S
C1547 C1548 1.349 . S
C1547 C1549 1.327 . S
C1547 H1570 0.950 . S
C1548 C1547 1.349 . S
C1548 C1560 1.349 . S
C1549 C1547 1.327 . S
C1549 C1565 1.429 . S
C1549 H1571 0.950 . S
C1550 H1546 0.949 . S
C1550 C1558 1.574 . S
C1550 C1566 1.368 . S
H1551 C1559 0.950 . S
H1552 C1557 0.950 . S
H1553 C1558 0.949 . S
H1554 C1560 0.950 . S
H1555 C1561 0.950 . S
H1556 C1562 0.949 . S
C1557 H1552 0.950 . S
C1557 C1559 1.327 . S
C1557 C1563 1.429 . S
C1558 C1550 1.574 . S
C1558 H1553 0.949 . S
C1558 C1564 1.368 . S
C1559 C1543 1.349 . S
C1559 H1551 0.950 . S
C1559 C1557 1.327 . S
C1560 C1548 1.349 . S
C1560 H1554 0.950 . S
C1560 C1561 1.327 . S
C1561 H1555 0.950 . S
C1561 C1560 1.327 . S
C1561 C1565 1.429 . S
C1562 C1545 1.574 . S
C1562 H1556 0.949 . S
C1562 C1566 1.368 . S
C1563 C1544 1.429 . S
C1563 C1557 1.429 . S
C1563 C1564 1.523 . S
C1564 C1545 1.368 . S
C1564 C1558 1.368 . S
C1564 C1563 1.523 . S
C1565 C1549 1.429 . S
C1565 C1561 1.429 . S
C1565 C1566 1.523 . S
C1566 C1550 1.368 . S
C1566 C1562 1.368 . S
C1566 C1565 1.523 . S
H1567 C1542 0.950 . S
H1568 C1544 0.950 . S
H1569 C1545 0.949 . S
H1570 C1547 0.950 . S
H1571 C1549 0.950 . S
C1572 C1573 1.349 . S
C1572 C1574 1.327 . S
C1572 H1597 0.950 . S
C1573 C1572 1.349 . S
C1573 C1589 1.349 . S
C1574 C1572 1.327 . S
C1574 C1593 1.429 . S
C1574 H1598 0.950 . S
C1575 C1592 1.574 . S
C1575 C1594 1.368 . S
C1575 H1599 0.949 . S
H1576 C1580 0.949 . S
C1577 C1578 1.349 . S
C1577 C1579 1.327 . S
C1577 H1600 0.950 . S
C1578 C1577 1.349 . S
C1578 C1590 1.349 . S
C1579 C1577 1.327 . S
C1579 C1595 1.429 . S
C1579 H1601 0.950 . S
C1580 H1576 0.949 . S
C1580 C1588 1.574 . S
C1580 C1596 1.368 . S
H1581 C1589 0.950 . S
H1582 C1587 0.950 . S
H1583 C1588 0.949 . S
H1584 C1590 0.950 . S
H1585 C1591 0.950 . S
H1586 C1592 0.949 . S
C1587 H1582 0.950 . S
C1587 C1589 1.327 . S
C1587 C1593 1.429 . S
C1588 C1580 1.574 . S
C1588 H1583 0.949 . S
C1588 C1594 1.368 . S
C1589 C1573 1.349 . S
C1589 H1581 0.950 . S
C1589 C1587 1.327 . S
C1590 C1578 1.349 . S
C1590 H1584 0.950 . S
C1590 C1591 1.327 . S
C1591 H1585 0.950 . S
C1591 C1590 1.327 . S
C1591 C1595 1.429 . S
C1592 C1575 1.574 . S
C1592 H1586 0.949 . S
C1592 C1596 1.368 . S
C1593 C1574 1.429 . S
C1593 C1587 1.429 . S
C1593 C1594 1.523 . S
C1594 C1575 1.368 . S
C1594 C1588 1.368 . S
C1594 C1593 1.523 . S
C1595 C1579 1.429 . S
C1595 C1591 1.429 . S
C1595 C1596 1.523 . S
C1596 C1580 1.368 . S
C1596 C1592 1.368 . S
C1596 C1595 1.523 . S
H1597 C1572 0.950 . S
H1598 C1574 0.950 . S
H1599 C1575 0.949 . S
H1600 C1577 0.950 . S
H1601 C1579 0.950 . S
C1602 C1603 1.349 . S
C1602 C1604 1.327 . S
C1602 H1627 0.950 . S
C1603 C1602 1.349 . S
C1603 C1619 1.349 . S
C1604 C1602 1.327 . S
C1604 C1623 1.429 . S
C1604 H1628 0.950 . S
C1605 C1622 1.574 . S
C1605 C1624 1.368 . S
C1605 H1629 0.949 . S
H1606 C1610 0.949 . S
C1607 C1608 1.349 . S
C1607 C1609 1.327 . S
C1607 H1630 0.950 . S
C1608 C1607 1.349 . S
C1608 C1620 1.349 . S
C1609 C1607 1.327 . S
C1609 C1625 1.429 . S
C1609 H1631 0.950 . S
C1610 H1606 0.949 . S
C1610 C1618 1.574 . S
C1610 C1626 1.368 . S
H1611 C1619 0.950 . S
H1612 C1617 0.950 . S
H1613 C1618 0.949 . S
H1614 C1620 0.950 . S
H1615 C1621 0.950 . S
H1616 C1622 0.949 . S
C1617 H1612 0.950 . S
C1617 C1619 1.327 . S
C1617 C1623 1.429 . S
C1618 C1610 1.574 . S
C1618 H1613 0.949 . S
C1618 C1624 1.368 . S
C1619 C1603 1.349 . S
C1619 H1611 0.950 . S
C1619 C1617 1.327 . S
C1620 C1608 1.349 . S
C1620 H1614 0.950 . S
C1620 C1621 1.327 . S
C1621 H1615 0.950 . S
C1621 C1620 1.327 . S
C1621 C1625 1.429 . S
C1622 C1605 1.574 . S
C1622 H1616 0.949 . S
C1622 C1626 1.368 . S
C1623 C1604 1.429 . S
C1623 C1617 1.429 . S
C1623 C1624 1.523 . S
C1624 C1605 1.368 . S
C1624 C1618 1.368 . S
C1624 C1623 1.523 . S
C1625 C1609 1.429 . S
C1625 C1621 1.429 . S
C1625 C1626 1.523 . S
C1626 C1610 1.368 . S
C1626 C1622 1.368 . S
C1626 C1625 1.523 . S
H1627 C1602 0.950 . S
H1628 C1604 0.950 . S
H1629 C1605 0.949 . S
H1630 C1607 0.950 . S
H1631 C1609 0.950 . S
C1632 C1633 1.349 . S
C1632 C1634 1.327 . S
C1632 H1657 0.950 . S
C1633 C1632 1.349 . S
C1633 C1649 1.349 . S
C1634 C1632 1.327 . S
C1634 C1653 1.429 . S
C1634 H1658 0.950 . S
C1635 C1652 1.574 . S
C1635 C1654 1.368 . S
C1635 H1659 0.949 . S
H1636 C1640 0.949 . S
C1637 C1638 1.349 . S
C1637 C1639 1.327 . S
C1637 H1660 0.950 . S
C1638 C1637 1.349 . S
C1638 C1650 1.349 . S
C1639 C1637 1.327 . S
C1639 C1655 1.429 . S
C1639 H1661 0.950 . S
C1640 H1636 0.949 . S
C1640 C1648 1.574 . S
C1640 C1656 1.368 . S
H1641 C1649 0.950 . S
H1642 C1647 0.950 . S
H1643 C1648 0.949 . S
H1644 C1650 0.950 . S
H1645 C1651 0.950 . S
H1646 C1652 0.949 . S
C1647 H1642 0.950 . S
C1647 C1649 1.327 . S
C1647 C1653 1.429 . S
C1648 C1640 1.574 . S
C1648 H1643 0.949 . S
C1648 C1654 1.368 . S
C1649 C1633 1.349 . S
C1649 H1641 0.950 . S
C1649 C1647 1.327 . S
C1650 C1638 1.349 . S
C1650 H1644 0.950 . S
C1650 C1651 1.327 . S
C1651 H1645 0.950 . S
C1651 C1650 1.327 . S
C1651 C1655 1.429 . S
C1652 C1635 1.574 . S
C1652 H1646 0.949 . S
C1652 C1656 1.368 . S
C1653 C1634 1.429 . S
C1653 C1647 1.429 . S
C1653 C1654 1.523 . S
C1654 C1635 1.368 . S
C1654 C1648 1.368 . S
C1654 C1653 1.523 . S
C1655 C1639 1.429 . S
C1655 C1651 1.429 . S
C1655 C1656 1.523 . S
C1656 C1640 1.368 . S
C1656 C1652 1.368 . S
C1656 C1655 1.523 . S
H1657 C1632 0.950 . S
H1658 C1634 0.950 . S
H1659 C1635 0.949 . S
H1660 C1637 0.950 . S
H1661 C1639 0.950 . S
C1662 C1663 1.349 . S
C1662 C1664 1.327 . S
C1662 H1687 0.950 . S
C1663 C1662 1.349 . S
C1663 C1679 1.349 . S
C1664 C1662 1.327 . S
C1664 C1683 1.429 . S
C1664 H1688 0.950 . S
C1665 C1682 1.574 . S
C1665 C1684 1.368 . S
C1665 H1689 0.949 . S
H1666 C1670 0.949 . S
C1667 C1668 1.349 . S
C1667 C1669 1.327 . S
C1667 H1690 0.950 . S
C1668 C1667 1.349 . S
C1668 C1680 1.349 . S
C1669 C1667 1.327 . S
C1669 C1685 1.429 . S
C1669 H1691 0.950 . S
C1670 H1666 0.949 . S
C1670 C1678 1.574 . S
C1670 C1686 1.368 . S
H1671 C1679 0.950 . S
H1672 C1677 0.950 . S
H1673 C1678 0.949 . S
H1674 C1680 0.950 . S
H1675 C1681 0.950 . S
H1676 C1682 0.949 . S
C1677 H1672 0.950 . S
C1677 C1679 1.327 . S
C1677 C1683 1.429 . S
C1678 C1670 1.574 . S
C1678 H1673 0.949 . S
C1678 C1684 1.368 . S
C1679 C1663 1.349 . S
C1679 H1671 0.950 . S
C1679 C1677 1.327 . S
C1680 C1668 1.349 . S
C1680 H1674 0.950 . S
C1680 C1681 1.327 . S
C1681 H1675 0.950 . S
C1681 C1680 1.327 . S
C1681 C1685 1.429 . S
C1682 C1665 1.574 . S
C1682 H1676 0.949 . S
C1682 C1686 1.368 . S
C1683 C1664 1.429 . S
C1683 C1677 1.429 . S
C1683 C1684 1.523 . S
C1684 C1665 1.368 . S
C1684 C1678 1.368 . S
C1684 C1683 1.523 . S
C1685 C1669 1.429 . S
C1685 C1681 1.429 . S
C1685 C1686 1.523 . S
C1686 C1670 1.368 . S
C1686 C1682 1.368 . S
C1686 C1685 1.523 . S
H1687 C1662 0.950 . S
H1688 C1664 0.950 . S
H1689 C1665 0.949 . S
H1690 C1667 0.950 . S
H1691 C1669 0.950 . S
C1692 C1693 1.349 . S
C1692 C1694 1.327 . S
C1692 H1717 0.950 . S
C1693 C1692 1.349 . S
C1693 C1709 1.349 . S
C1694 C1692 1.327 . S
C1694 C1713 1.429 . S
C1694 H1718 0.950 . S
C1695 C1712 1.574 . S
C1695 C1714 1.368 . S
C1695 H1719 0.949 . S
H1696 C1700 0.949 . S
C1697 C1698 1.349 . S
C1697 C1699 1.327 . S
C1697 H1720 0.950 . S
C1698 C1697 1.349 . S
C1698 C1710 1.349 . S
C1699 C1697 1.327 . S
C1699 C1715 1.429 . S
C1699 H1721 0.950 . S
C1700 H1696 0.949 . S
C1700 C1708 1.574 . S
C1700 C1716 1.368 . S
H1701 C1709 0.950 . S
H1702 C1707 0.950 . S
H1703 C1708 0.949 . S
H1704 C1710 0.950 . S
H1705 C1711 0.950 . S
H1706 C1712 0.949 . S
C1707 H1702 0.950 . S
C1707 C1709 1.327 . S
C1707 C1713 1.429 . S
C1708 C1700 1.574 . S
C1708 H1703 0.949 . S
C1708 C1714 1.368 . S
C1709 C1693 1.349 . S
C1709 H1701 0.950 . S
C1709 C1707 1.327 . S
C1710 C1698 1.349 . S
C1710 H1704 0.950 . S
C1710 C1711 1.327 . S
C1711 H1705 0.950 . S
C1711 C1710 1.327 . S
C1711 C1715 1.429 . S
C1712 C1695 1.574 . S
C1712 H1706 0.949 . S
C1712 C1716 1.368 . S
C1713 C1694 1.429 . S
C1713 C1707 1.429 . S
C1713 C1714 1.523 . S
C1714 C1695 1.368 . S
C1714 C1708 1.368 . S
C1714 C1713 1.523 . S
C1715 C1699 1.429 . S
C1715 C1711 1.429 . S
C1715 C1716 1.523 . S
C1716 C1700 1.368 . S
C1716 C1712 1.368 . S
C1716 C1715 1.523 . S
H1717 C1692 0.950 . S
H1718 C1694 0.950 . S
H1719 C1695 0.949 . S
H1720 C1697 0.950 . S
H1721 C1699 0.950 . S
C1722 C1723 1.349 . S
C1722 C1724 1.327 . S
C1722 H1747 0.950 . S
C1723 C1722 1.349 . S
C1723 C1739 1.349 . S
C1724 C1722 1.327 . S
C1724 C1743 1.429 . S
C1724 H1748 0.950 . S
C1725 C1742 1.574 . S
C1725 C1744 1.368 . S
C1725 H1749 0.949 . S
H1726 C1730 0.949 . S
C1727 C1728 1.349 . S
C1727 C1729 1.327 . S
C1727 H1750 0.950 . S
C1728 C1727 1.349 . S
C1728 C1740 1.349 . S
C1729 C1727 1.327 . S
C1729 C1745 1.429 . S
C1729 H1751 0.950 . S
C1730 H1726 0.949 . S
C1730 C1738 1.574 . S
C1730 C1746 1.368 . S
H1731 C1739 0.950 . S
H1732 C1737 0.950 . S
H1733 C1738 0.949 . S
H1734 C1740 0.950 . S
H1735 C1741 0.950 . S
H1736 C1742 0.949 . S
C1737 H1732 0.950 . S
C1737 C1739 1.327 . S
C1737 C1743 1.429 . S
C1738 C1730 1.574 . S
C1738 H1733 0.949 . S
C1738 C1744 1.368 . S
C1739 C1723 1.349 . S
C1739 H1731 0.950 . S
C1739 C1737 1.327 . S
C1740 C1728 1.349 . S
C1740 H1734 0.950 . S
C1740 C1741 1.327 . S
C1741 H1735 0.950 . S
C1741 C1740 1.327 . S
C1741 C1745 1.429 . S
C1742 C1725 1.574 . S
C1742 H1736 0.949 . S
C1742 C1746 1.368 . S
C1743 C1724 1.429 . S
C1743 C1737 1.429 . S
C1743 C1744 1.523 . S
C1744 C1725 1.368 . S
C1744 C1738 1.368 . S
C1744 C1743 1.523 . S
C1745 C1729 1.429 . S
C1745 C1741 1.429 . S
C1745 C1746 1.523 . S
C1746 C1730 1.368 . S
C1746 C1742 1.368 . S
C1746 C1745 1.523 . S
H1747 C1722 0.950 . S
H1748 C1724 0.950 . S
H1749 C1725 0.949 . S
H1750 C1727 0.950 . S
H1751 C1729 0.950 . S
C1752 C1753 1.349 . S
C1752 C1754 1.327 . S
C1752 H1777 0.950 . S
C1753 C1752 1.349 . S
C1753 C1769 1.349 . S
C1754 C1752 1.327 . S
C1754 C1773 1.429 . S
C1754 H1778 0.950 . S
C1755 C1772 1.574 . S
C1755 C1774 1.368 . S
C1755 H1779 0.949 . S
H1756 C1760 0.949 . S
C1757 C1758 1.349 . S
C1757 C1759 1.327 . S
C1757 H1780 0.950 . S
C1758 C1757 1.349 . S
C1758 C1770 1.349 . S
C1759 C1757 1.327 . S
C1759 C1775 1.429 . S
C1759 H1781 0.950 . S
C1760 H1756 0.949 . S
C1760 C1768 1.574 . S
C1760 C1776 1.368 . S
H1761 C1769 0.950 . S
H1762 C1767 0.950 . S
H1763 C1768 0.949 . S
H1764 C1770 0.950 . S
H1765 C1771 0.950 . S
H1766 C1772 0.949 . S
C1767 H1762 0.950 . S
C1767 C1769 1.327 . S
C1767 C1773 1.429 . S
C1768 C1760 1.574 . S
C1768 H1763 0.949 . S
C1768 C1774 1.368 . S
C1769 C1753 1.349 . S
C1769 H1761 0.950 . S
C1769 C1767 1.327 . S
C1770 C1758 1.349 . S
C1770 H1764 0.950 . S
C1770 C1771 1.327 . S
C1771 H1765 0.950 . S
C1771 C1770 1.327 . S
C1771 C1775 1.429 . S
C1772 C1755 1.574 . S
C1772 H1766 0.949 . S
C1772 C1776 1.368 . S
C1773 C1754 1.429 . S
C1773 C1767 1.429 . S
C1773 C1774 1.523 . S
C1774 C1755 1.368 . S
C1774 C1768 1.368 . S
C1774 C1773 1.523 . S
C1775 C1759 1.429 . S
C1775 C1771 1.429 . S
C1775 C1776 1.523 . S
C1776 C1760 1.368 . S
C1776 C1772 1.368 . S
C1776 C1775 1.523 . S
H1777 C1752 0.950 . S
H1778 C1754 0.950 . S
H1779 C1755 0.949 . S
H1780 C1757 0.950 . S
H1781 C1759 0.950 . S
C1782 C1783 1.349 . S
C1782 C1784 1.327 . S
C1782 H1807 0.950 . S
C1783 C1782 1.349 . S
C1783 C1799 1.349 . S
C1784 C1782 1.327 . S
C1784 C1803 1.429 . S
C1784 H1808 0.950 . S
C1785 C1802 1.574 . S
C1785 C1804 1.368 . S
C1785 H1809 0.949 . S
H1786 C1790 0.949 . S
C1787 C1788 1.349 . S
C1787 C1789 1.327 . S
C1787 H1810 0.950 . S
C1788 C1787 1.349 . S
C1788 C1800 1.349 . S
C1789 C1787 1.327 . S
C1789 C1805 1.429 . S
C1789 H1811 0.950 . S
C1790 H1786 0.949 . S
C1790 C1798 1.574 . S
C1790 C1806 1.368 . S
H1791 C1799 0.950 . S
H1792 C1797 0.950 . S
H1793 C1798 0.949 . S
H1794 C1800 0.950 . S
H1795 C1801 0.950 . S
H1796 C1802 0.949 . S
C1797 H1792 0.950 . S
C1797 C1799 1.327 . S
C1797 C1803 1.429 . S
C1798 C1790 1.574 . S
C1798 H1793 0.949 . S
C1798 C1804 1.368 . S
C1799 C1783 1.349 . S
C1799 H1791 0.950 . S
C1799 C1797 1.327 . S
C1800 C1788 1.349 . S
C1800 H1794 0.950 . S
C1800 C1801 1.327 . S
C1801 H1795 0.950 . S
C1801 C1800 1.327 . S
C1801 C1805 1.429 . S
C1802 C1785 1.574 . S
C1802 H1796 0.949 . S
C1802 C1806 1.368 . S
C1803 C1784 1.429 . S
C1803 C1797 1.429 . S
C1803 C1804 1.523 . S
C1804 C1785 1.368 . S
C1804 C1798 1.368 . S
C1804 C1803 1.523 . S
C1805 C1789 1.429 . S
C1805 C1801 1.429 . S
C1805 C1806 1.523 . S
C1806 C1790 1.368 . S
C1806 C1802 1.368 . S
C1806 C1805 1.523 . S
H1807 C1782 0.950 . S
H1808 C1784 0.950 . S
H1809 C1785 0.949 . S
H1810 C1787 0.950 . S
H1811 C1789 0.950 . S
C1812 C1813 1.349 . S
C1812 C1814 1.327 . S
C1812 H1837 0.950 . S
C1813 C1812 1.349 . S
C1813 C1829 1.349 . S
C1814 C1812 1.327 . S
C1814 C1833 1.429 . S
C1814 H1838 0.950 . S
C1815 C1832 1.574 . S
C1815 C1834 1.368 . S
C1815 H1839 0.949 . S
H1816 C1820 0.949 . S
C1817 C1818 1.349 . S
C1817 C1819 1.327 . S
C1817 H1840 0.950 . S
C1818 C1817 1.349 . S
C1818 C1830 1.349 . S
C1819 C1817 1.327 . S
C1819 C1835 1.429 . S
C1819 H1841 0.950 . S
C1820 H1816 0.949 . S
C1820 C1828 1.574 . S
C1820 C1836 1.368 . S
H1821 C1829 0.950 . S
H1822 C1827 0.950 . S
H1823 C1828 0.949 . S
H1824 C1830 0.950 . S
H1825 C1831 0.950 . S
H1826 C1832 0.949 . S
C1827 H1822 0.950 . S
C1827 C1829 1.327 . S
C1827 C1833 1.429 . S
C1828 C1820 1.574 . S
C1828 H1823 0.949 . S
C1828 C1834 1.368 . S
C1829 C1813 1.349 . S
C1829 H1821 0.950 . S
C1829 C1827 1.327 . S
C1830 C1818 1.349 . S
C1830 H1824 0.950 . S
C1830 C1831 1.327 . S
C1831 H1825 0.950 . S
C1831 C1830 1.327 . S
C1831 C1835 1.429 . S
C1832 C1815 1.574 . S
C1832 H1826 0.949 . S
C1832 C1836 1.368 . S
C1833 C1814 1.429 . S
C1833 C1827 1.429 . S
C1833 C1834 1.523 . S
C1834 C1815 1.368 . S
C1834 C1828 1.368 . S
C1834 C1833 1.523 . S
C1835 C1819 1.429 . S
C1835 C1831 1.429 . S
C1835 C1836 1.523 . S
C1836 C1820 1.368 . S
C1836 C1832 1.368 . S
C1836 C1835 1.523 . S
H1837 C1812 0.950 . S
H1838 C1814 0.950 . S
H1839 C1815 0.949 . S
H1840 C1817 0.950 . S
H1841 C1819 0.950 . S
C1842 C1843 1.349 . S
C1842 C1844 1.327 . S
C1842 H1867 0.950 . S
C1843 C1842 1.349 . S
C1843 C1859 1.349 . S
C1844 C1842 1.327 . S
C1844 C1863 1.429 . S
C1844 H1868 0.950 . S
C1845 C1862 1.574 . S
C1845 C1864 1.368 . S
C1845 H1869 0.949 . S
H1846 C1850 0.949 . S
C1847 C1848 1.349 . S
C1847 C1849 1.327 . S
C1847 H1870 0.950 . S
C1848 C1847 1.349 . S
C1848 C1860 1.349 . S
C1849 C1847 1.327 . S
C1849 C1865 1.429 . S
C1849 H1871 0.950 . S
C1850 H1846 0.949 . S
C1850 C1858 1.574 . S
C1850 C1866 1.368 . S
H1851 C1859 0.950 . S
H1852 C1857 0.950 . S
H1853 C1858 0.949 . S
H1854 C1860 0.950 . S
H1855 C1861 0.950 . S
H1856 C1862 0.949 . S
C1857 H1852 0.950 . S
C1857 C1859 1.327 . S
C1857 C1863 1.429 . S
C1858 C1850 1.574 . S
C1858 H1853 0.949 . S
C1858 C1864 1.368 . S
C1859 C1843 1.349 . S
C1859 H1851 0.950 . S
C1859 C1857 1.327 . S
C1860 C1848 1.349 . S
C1860 H1854 0.950 . S
C1860 C1861 1.327 . S
C1861 H1855 0.950 . S
C1861 C1860 1.327 . S
C1861 C1865 1.429 . S
C1862 C1845 1.574 . S
C1862 H1856 0.949 . S
C1862 C1866 1.368 . S
C1863 C1844 1.429 . S
C1863 C1857 1.429 . S
C1863 C1864 1.523 . S
C1864 C1845 1.368 . S
C1864 C1858 1.368 . S
C1864 C1863 1.523 . S
C1865 C1849 1.429 . S
C1865 C1861 1.429 . S
C1865 C1866 1.523 . S
C1866 C1850 1.368 . S
C1866 C1862 1.368 . S
C1866 C1865 1.523 . S
H1867 C1842 0.950 . S
H1868 C1844 0.950 . S
H1869 C1845 0.949 . S
H1870 C1847 0.950 . S
H1871 C1849 0.950 . S
C1872 C1873 1.349 . S
C1872 C1874 1.327 . S
C1872 H1897 0.950 . S
C1873 C1872 1.349 . S
C1873 C1889 1.349 . S
C1874 C1872 1.327 . S
C1874 C1893 1.429 . S
C1874 H1898 0.950 . S
C1875 C1892 1.574 . S
C1875 C1894 1.368 . S
C1875 H1899 0.949 . S
H1876 C1880 0.949 . S
C1877 C1878 1.349 . S
C1877 C1879 1.327 . S
C1877 H1900 0.950 . S
C1878 C1877 1.349 . S
C1878 C1890 1.349 . S
C1879 C1877 1.327 . S
C1879 C1895 1.429 . S
C1879 H1901 0.950 . S
C1880 H1876 0.949 . S
C1880 C1888 1.574 . S
C1880 C1896 1.368 . S
H1881 C1889 0.950 . S
H1882 C1887 0.950 . S
H1883 C1888 0.949 . S
H1884 C1890 0.950 . S
H1885 C1891 0.950 . S
H1886 C1892 0.949 . S
C1887 H1882 0.950 . S
C1887 C1889 1.327 . S
C1887 C1893 1.429 . S
C1888 C1880 1.574 . S
C1888 H1883 0.949 . S
C1888 C1894 1.368 . S
C1889 C1873 1.349 . S
C1889 H1881 0.950 . S
C1889 C1887 1.327 . S
C1890 C1878 1.349 . S
C1890 H1884 0.950 . S
C1890 C1891 1.327 . S
C1891 H1885 0.950 . S
C1891 C1890 1.327 . S
C1891 C1895 1.429 . S
C1892 C1875 1.574 . S
C1892 H1886 0.949 . S
C1892 C1896 1.368 . S
C1893 C1874 1.429 . S
C1893 C1887 1.429 . S
C1893 C1894 1.523 . S
C1894 C1875 1.368 . S
C1894 C1888 1.368 . S
C1894 C1893 1.523 . S
C1895 C1879 1.429 . S
C1895 C1891 1.429 . S
C1895 C1896 1.523 . S
C1896 C1880 1.368 . S
C1896 C1892 1.368 . S
C1896 C1895 1.523 . S
H1897 C1872 0.950 . S
H1898 C1874 0.950 . S
H1899 C1875 0.949 . S
H1900 C1877 0.950 . S
H1901 C1879 0.950 . S
C1902 C1903 1.349 . S
C1902 C1904 1.327 . S
C1902 H1927 0.950 . S
C1903 C1902 1.349 . S
C1903 C1919 1.349 . S
C1904 C1902 1.327 . S
C1904 C1923 1.429 . S
C1904 H1928 0.950 . S
C1905 C1922 1.574 . S
C1905 C1924 1.368 . S
C1905 H1929 0.949 . S
H1906 C1910 0.949 . S
C1907 C1908 1.349 . S
C1907 C1909 1.327 . S
C1907 H1930 0.950 . S
C1908 C1907 1.349 . S
C1908 C1920 1.349 . S
C1909 C1907 1.327 . S
C1909 C1925 1.429 . S
C1909 H1931 0.950 . S
C1910 H1906 0.949 . S
C1910 C1918 1.574 . S
C1910 C1926 1.368 . S
H1911 C1919 0.950 . S
H1912 C1917 0.950 . S
H1913 C1918 0.949 . S
H1914 C1920 0.950 . S
H1915 C1921 0.950 . S
H1916 C1922 0.949 . S
C1917 H1912 0.950 . S
C1917 C1919 1.327 . S
C1917 C1923 1.429 . S
C1918 C1910 1.574 . S
C1918 H1913 0.949 . S
C1918 C1924 1.368 . S
C1919 C1903 1.349 . S
C1919 H1911 0.950 . S
C1919 C1917 1.327 . S
C1920 C1908 1.349 . S
C1920 H1914 0.950 . S
C1920 C1921 1.327 . S
C1921 H1915 0.950 . S
C1921 C1920 1.327 . S
C1921 C1925 1.429 . S
C1922 C1905 1.574 . S
C1922 H1916 0.949 . S
C1922 C1926 1.368 . S
C1923 C1904 1.429 . S
C1923 C1917 1.429 . S
C1923 C1924 1.523 . S
C1924 C1905 1.368 . S
C1924 C1918 1.368 . S
C1924 C1923 1.523 . S
C1925 C1909 1.429 . S
C1925 C1921 1.429 . S
C1925 C1926 1.523 . S
C1926 C1910 1.368 . S
C1926 C1922 1.368 . S
C1926 C1925 1.523 . S
H1927 C1902 0.950 . S
H1928 C1904 0.950 . S
H1929 C1905 0.949 . S
H1930 C1907 0.950 . S
H1931 C1909 0.950 . S
C1932 C1933 1.349 . S
C1932 C1934 1.327 . S
C1932 H1957 0.950 . S
C1933 C1932 1.349 . S
C1933 C1949 1.349 . S
C1934 C1932 1.327 . S
C1934 C1953 1.429 . S
C1934 H1958 0.950 . S
C1935 C1952 1.574 . S
C1935 C1954 1.368 . S
C1935 H1959 0.949 . S
H1936 C1940 0.949 . S
C1937 C1938 1.349 . S
C1937 C1939 1.327 . S
C1937 H1960 0.950 . S
C1938 C1937 1.349 . S
C1938 C1950 1.349 . S
C1939 C1937 1.327 . S
C1939 C1955 1.429 . S
C1939 H1961 0.950 . S
C1940 H1936 0.949 . S
C1940 C1948 1.574 . S
C1940 C1956 1.368 . S
H1941 C1949 0.950 . S
H1942 C1947 0.950 . S
H1943 C1948 0.949 . S
H1944 C1950 0.950 . S
H1945 C1951 0.950 . S
H1946 C1952 0.949 . S
C1947 H1942 0.950 . S
C1947 C1949 1.327 . S
C1947 C1953 1.429 . S
C1948 C1940 1.574 . S
C1948 H1943 0.949 . S
C1948 C1954 1.368 . S
C1949 C1933 1.349 . S
C1949 H1941 0.950 . S
C1949 C1947 1.327 . S
C1950 C1938 1.349 . S
C1950 H1944 0.950 . S
C1950 C1951 1.327 . S
C1951 H1945 0.950 . S
C1951 C1950 1.327 . S
C1951 C1955 1.429 . S
C1952 C1935 1.574 . S
C1952 H1946 0.949 . S
C1952 C1956 1.368 . S
C1953 C1934 1.429 . S
C1953 C1947 1.429 . S
C1953 C1954 1.523 . S
C1954 C1935 1.368 . S
C1954 C1948 1.368 . S
C1954 C1953 1.523 . S
C1955 C1939 1.429 . S
C1955 C1951 1.429 . S
C1955 C1956 1.523 . S
C1956 C1940 1.368 . S
C1956 C1952 1.368 . S
C1956 C1955 1.523 . S
H1957 C1932 0.950 . S
H1958 C1934 0.950 . S
H1959 C1935 0.949 . S
H1960 C1937 0.950 . S
H1961 C1939 0.950 . S
C1962 C1963 1.349 . S
C1962 C1964 1.327 . S
C1962 H1987 0.950 . S
C1963 C1962 1.349 . S
C1963 C1979 1.349 . S
C1964 C1962 1.327 . S
C1964 C1983 1.429 . S
C1964 H1988 0.950 . S
C1965 C1982 1.574 . S
C1965 C1984 1.368 . S
C1965 H1989 0.949 . S
H1966 C1970 0.949 . S
C1967 C1968 1.349 . S
C1967 C1969 1.327 . S
C1967 H1990 0.950 . S
C1968 C1967 1.349 . S
C1968 C1980 1.349 . S
C1969 C1967 1.327 . S
C1969 C1985 1.429 . S
C1969 H1991 0.950 . S
C1970 H1966 0.949 . S
C1970 C1978 1.574 . S
C1970 C1986 1.368 . S
H1971 C1979 0.950 . S
H1972 C1977 0.950 . S
H1973 C1978 0.949 . S
H1974 C1980 0.950 . S
H1975 C1981 0.950 . S
H1976 C1982 0.949 . S
C1977 H1972 0.950 . S
C1977 C1979 1.327 . S
C1977 C1983 1.429 . S
C1978 C1970 1.574 . S
C1978 H1973 0.949 . S
C1978 C1984 1.368 . S
C1979 C1963 1.349 . S
C1979 H1971 0.950 . S
C1979 C1977 1.327 . S
C1980 C1968 1.349 . S
C1980 H1974 0.950 . S
C1980 C1981 1.327 . S
C1981 H1975 0.950 . S
C1981 C1980 1.327 . S
C1981 C1985 1.429 . S
C1982 C1965 1.574 . S
C1982 H1976 0.949 . S
C1982 C1986 1.368 . S
C1983 C1964 1.429 . S
C1983 C1977 1.429 . S
C1983 C1984 1.523 . S
C1984 C1965 1.368 . S
C1984 C1978 1.368 . S
C1984 C1983 1.523 . S
C1985 C1969 1.429 . S
C1985 C1981 1.429 . S
C1985 C1986 1.523 . S
C1986 C1970 1.368 . S
C1986 C1982 1.368 . S
C1986 C1985 1.523 . S
H1987 C1962 0.950 . S
H1988 C1964 0.950 . S
H1989 C1965 0.949 . S
H1990 C1967 0.950 . S
H1991 C1969 0.950 . S
C1992 C1993 1.349 . S
C1992 C1994 1.327 . S
C1992 H2017 0.950 . S
C1993 C1992 1.349 . S
C1993 C2009 1.349 . S
C1994 C1992 1.327 . S
C1994 C2013 1.429 . S
C1994 H2018 0.950 . S
C1995 C2012 1.574 . S
C1995 C2014 1.368 . S
C1995 H2019 0.949 . S
H1996 C2000 0.949 . S
C1997 C1998 1.349 . S
C1997 C1999 1.327 . S
C1997 H2020 0.950 . S
C1998 C1997 1.349 . S
C1998 C2010 1.349 . S
C1999 C1997 1.327 . S
C1999 C2015 1.429 . S
C1999 H2021 0.950 . S
C2000 H1996 0.949 . S
C2000 C2008 1.574 . S
C2000 C2016 1.368 . S
H2001 C2009 0.950 . S
H2002 C2007 0.950 . S
H2003 C2008 0.949 . S
H2004 C2010 0.950 . S
H2005 C2011 0.950 . S
H2006 C2012 0.949 . S
C2007 H2002 0.950 . S
C2007 C2009 1.327 . S
C2007 C2013 1.429 . S
C2008 C2000 1.574 . S
C2008 H2003 0.949 . S
C2008 C2014 1.368 . S
C2009 C1993 1.349 . S
C2009 H2001 0.950 . S
C2009 C2007 1.327 . S
C2010 C1998 1.349 . S
C2010 H2004 0.950 . S
C2010 C2011 1.327 . S
C2011 H2005 0.950 . S
C2011 C2010 1.327 . S
C2011 C2015 1.429 . S
C2012 C1995 1.574 . S
C2012 H2006 0.949 . S
C2012 C2016 1.368 . S
C2013 C1994 1.429 . S
C2013 C2007 1.429 . S
C2013 C2014 1.523 . S
C2014 C1995 1.368 . S
C2014 C2008 1.368 . S
C2014 C2013 1.523 . S
C2015 C1999 1.429 . S
C2015 C2011 1.429 . S
C2015 C2016 1.523 . S
C2016 C2000 1.368 . S
C2016 C2012 1.368 . S
C2016 C2015 1.523 . S
H2017 C1992 0.950 . S
H2018 C1994 0.950 . S
H2019 C1995 0.949 . S
H2020 C1997 0.950 . S
H2021 C1999 0.950 . S
C2022 C2023 1.349 . S
C2022 C2024 1.327 . S
C2022 H2047 0.950 1_655 S
C2023 C2022 1.349 . S
C2023 C2039 1.349 . S
C2024 C2022 1.327 . S
C2024 C2043 1.429 . S
C2024 H2048 0.950 . S
C2025 C2042 1.574 . S
C2025 C2044 1.368 . S
C2025 H2049 0.949 . S
H2026 C2030 0.949 . S
C2027 C2028 1.349 . S
C2027 C2029 1.327 . S
C2027 H2050 0.950 . S
C2028 C2027 1.349 . S
C2028 C2040 1.349 . S
C2029 C2027 1.327 . S
C2029 C2045 1.429 . S
C2029 H2051 0.950 . S
C2030 H2026 0.949 . S
C2030 C2038 1.574 . S
C2030 C2046 1.368 . S
H2031 C2039 0.950 . S
H2032 C2037 0.950 . S
H2033 C2038 0.949 . S
H2034 C2040 0.950 . S
H2035 C2041 0.950 . S
H2036 C2042 0.949 . S
C2037 H2032 0.950 . S
C2037 C2039 1.327 . S
C2037 C2043 1.429 . S
C2038 C2030 1.574 . S
C2038 H2033 0.949 . S
C2038 C2044 1.368 . S
C2039 C2023 1.349 . S
C2039 H2031 0.950 . S
C2039 C2037 1.327 . S
C2040 C2028 1.349 . S
C2040 H2034 0.950 . S
C2040 C2041 1.327 . S
C2041 H2035 0.950 . S
C2041 C2040 1.327 . S
C2041 C2045 1.429 . S
C2042 C2025 1.574 . S
C2042 H2036 0.949 . S
C2042 C2046 1.368 . S
C2043 C2024 1.429 . S
C2043 C2037 1.429 . S
C2043 C2044 1.523 . S
C2044 C2025 1.368 . S
C2044 C2038 1.368 . S
C2044 C2043 1.523 . S
C2045 C2029 1.429 . S
C2045 C2041 1.429 . S
C2045 C2046 1.523 . S
C2046 C2030 1.368 . S
C2046 C2042 1.368 . S
C2046 C2045 1.523 . S
H2047 C2022 0.950 1_455 S
H2048 C2024 0.950 . S
H2049 C2025 0.949 . S
H2050 C2027 0.950 . S
H2051 C2029 0.950 . S
C2052 C2053 1.349 . S
C2052 C2054 1.327 . S
C2052 H2077 0.950 . S
C2053 C2052 1.349 . S
C2053 C2069 1.349 . S
C2054 C2052 1.327 . S
C2054 C2073 1.429 . S
C2054 H2078 0.950 . S
C2055 C2072 1.574 . S
C2055 C2074 1.368 . S
C2055 H2079 0.949 . S
H2056 C2060 0.949 . S
C2057 C2058 1.349 . S
C2057 C2059 1.327 . S
C2057 H2080 0.950 . S
C2058 C2057 1.349 . S
C2058 C2070 1.349 . S
C2059 C2057 1.327 . S
C2059 C2075 1.429 . S
C2059 H2081 0.950 . S
C2060 H2056 0.949 . S
C2060 C2068 1.574 . S
C2060 C2076 1.368 . S
H2061 C2069 0.950 . S
H2062 C2067 0.950 . S
H2063 C2068 0.949 . S
H2064 C2070 0.950 . S
H2065 C2071 0.950 . S
H2066 C2072 0.949 . S
C2067 H2062 0.950 . S
C2067 C2069 1.327 . S
C2067 C2073 1.429 . S
C2068 C2060 1.574 . S
C2068 H2063 0.949 . S
C2068 C2074 1.368 . S
C2069 C2053 1.349 . S
C2069 H2061 0.950 . S
C2069 C2067 1.327 . S
C2070 C2058 1.349 . S
C2070 H2064 0.950 . S
C2070 C2071 1.327 . S
C2071 H2065 0.950 . S
C2071 C2070 1.327 . S
C2071 C2075 1.429 . S
C2072 C2055 1.574 . S
C2072 H2066 0.949 . S
C2072 C2076 1.368 . S
C2073 C2054 1.429 . S
C2073 C2067 1.429 . S
C2073 C2074 1.523 . S
C2074 C2055 1.368 . S
C2074 C2068 1.368 . S
C2074 C2073 1.523 . S
C2075 C2059 1.429 . S
C2075 C2071 1.429 . S
C2075 C2076 1.523 . S
C2076 C2060 1.368 . S
C2076 C2072 1.368 . S
C2076 C2075 1.523 . S
H2077 C2052 0.950 . S
H2078 C2054 0.950 . S
H2079 C2055 0.949 . S
H2080 C2057 0.950 . S
H2081 C2059 0.950 . S
C2082 C2083 1.349 . S
C2082 C2084 1.327 . S
C2082 H2107 0.950 . S
C2083 C2082 1.349 . S
C2083 C2099 1.349 . S
C2084 C2082 1.327 . S
C2084 C2103 1.429 . S
C2084 H2108 0.950 . S
C2085 C2102 1.574 . S
C2085 C2104 1.368 . S
C2085 H2109 0.949 . S
H2086 C2090 0.949 . S
C2087 C2088 1.349 . S
C2087 C2089 1.327 . S
C2087 H2110 0.950 . S
C2088 C2087 1.349 . S
C2088 C2100 1.349 . S
C2089 C2087 1.327 . S
C2089 C2105 1.429 . S
C2089 H2111 0.950 . S
C2090 H2086 0.949 . S
C2090 C2098 1.574 . S
C2090 C2106 1.368 . S
H2091 C2099 0.950 . S
H2092 C2097 0.950 . S
H2093 C2098 0.949 . S
H2094 C2100 0.950 . S
H2095 C2101 0.950 . S
H2096 C2102 0.949 . S
C2097 H2092 0.950 . S
C2097 C2099 1.327 . S
C2097 C2103 1.429 . S
C2098 C2090 1.574 . S
C2098 H2093 0.949 . S
C2098 C2104 1.368 . S
C2099 C2083 1.349 . S
C2099 H2091 0.950 . S
C2099 C2097 1.327 . S
C2100 C2088 1.349 . S
C2100 H2094 0.950 . S
C2100 C2101 1.327 . S
C2101 H2095 0.950 . S
C2101 C2100 1.327 . S
C2101 C2105 1.429 . S
C2102 C2085 1.574 . S
C2102 H2096 0.949 . S
C2102 C2106 1.368 . S
C2103 C2084 1.429 . S
C2103 C2097 1.429 . S
C2103 C2104 1.523 . S
C2104 C2085 1.368 . S
C2104 C2098 1.368 . S
C2104 C2103 1.523 . S
C2105 C2089 1.429 . S
C2105 C2101 1.429 . S
C2105 C2106 1.523 . S
C2106 C2090 1.368 . S
C2106 C2102 1.368 . S
C2106 C2105 1.523 . S
H2107 C2082 0.950 . S
H2108 C2084 0.950 . S
H2109 C2085 0.949 . S
H2110 C2087 0.950 . S
H2111 C2089 0.950 . S
C2112 C2113 1.349 . S
C2112 C2114 1.327 . S
C2112 H2137 0.950 . S
C2113 C2112 1.349 . S
C2113 C2129 1.349 . S
C2114 C2112 1.327 . S
C2114 C2133 1.429 . S
C2114 H2138 0.950 . S
C2115 C2132 1.574 . S
C2115 C2134 1.368 . S
C2115 H2139 0.949 . S
H2116 C2120 0.949 . S
C2117 C2118 1.349 . S
C2117 C2119 1.327 . S
C2117 H2140 0.950 . S
C2118 C2117 1.349 . S
C2118 C2130 1.349 . S
C2119 C2117 1.327 . S
C2119 C2135 1.429 . S
C2119 H2141 0.950 . S
C2120 H2116 0.949 . S
C2120 C2128 1.574 . S
C2120 C2136 1.368 . S
H2121 C2129 0.950 . S
H2122 C2127 0.950 . S
H2123 C2128 0.949 . S
H2124 C2130 0.950 . S
H2125 C2131 0.950 . S
H2126 C2132 0.949 . S
C2127 H2122 0.950 . S
C2127 C2129 1.327 . S
C2127 C2133 1.429 . S
C2128 C2120 1.574 . S
C2128 H2123 0.949 . S
C2128 C2134 1.368 . S
C2129 C2113 1.349 . S
C2129 H2121 0.950 . S
C2129 C2127 1.327 . S
C2130 C2118 1.349 . S
C2130 H2124 0.950 . S
C2130 C2131 1.327 . S
C2131 H2125 0.950 . S
C2131 C2130 1.327 . S
C2131 C2135 1.429 . S
C2132 C2115 1.574 . S
C2132 H2126 0.949 . S
C2132 C2136 1.368 . S
C2133 C2114 1.429 . S
C2133 C2127 1.429 . S
C2133 C2134 1.523 . S
C2134 C2115 1.368 . S
C2134 C2128 1.368 . S
C2134 C2133 1.523 . S
C2135 C2119 1.429 . S
C2135 C2131 1.429 . S
C2135 C2136 1.523 . S
C2136 C2120 1.368 . S
C2136 C2132 1.368 . S
C2136 C2135 1.523 . S
H2137 C2112 0.950 . S
H2138 C2114 0.950 . S
H2139 C2115 0.949 . S
H2140 C2117 0.950 . S
H2141 C2119 0.950 . S
C2142 C2143 1.349 . S
C2142 C2144 1.337 . S
C2142 H2167 0.950 1_455 S
C2143 C2142 1.349 . S
C2143 C2159 1.349 . S
C2144 C2142 1.337 . S
C2144 C2163 1.447 . S
C2144 H2168 0.911 1_465 S
C2145 C2162 1.574 . S
C2145 C2164 1.368 . S
C2145 H2169 0.949 . S
H2146 C2150 0.949 . S
C2147 C2148 1.349 . S
C2147 C2149 1.322 1_655 S
C2147 H2170 0.950 1_655 S
C2148 C2147 1.349 . S
C2148 C2160 1.349 . S
C2149 C2147 1.322 1_455 S
C2149 C2165 1.418 1_455 S
C2149 H2171 0.966 1_545 S
C2150 H2146 0.949 . S
C2150 C2158 1.574 . S
C2150 C2166 1.368 . S
H2151 C2159 0.950 . S
H2152 C2157 0.950 . S
H2153 C2158 0.949 . S
H2154 C2160 0.950 . S
H2155 C2161 0.950 . S
H2156 C2162 0.949 . S
C2157 H2152 0.950 . S
C2157 C2159 1.327 . S
C2157 C2163 1.429 . S
C2158 C2150 1.574 . S
C2158 H2153 0.949 . S
C2158 C2164 1.368 1_645 S
C2159 C2143 1.349 . S
C2159 H2151 0.950 . S
C2159 C2157 1.327 . S
C2160 C2148 1.349 . S
C2160 H2154 0.950 . S
C2160 C2161 1.327 . S
C2161 H2155 0.950 . S
C2161 C2160 1.327 . S
C2161 C2165 1.429 . S
C2162 C2145 1.574 . S
C2162 H2156 0.949 . S
C2162 C2166 1.368 1_465 S
C2163 C2144 1.447 . S
C2163 C2157 1.429 . S
C2163 C2164 1.523 . S
C2164 C2145 1.368 . S
C2164 C2158 1.368 1_465 S
C2164 C2163 1.523 . S
C2165 C2149 1.418 1_655 S
C2165 C2161 1.429 . S
C2165 C2166 1.523 . S
C2166 C2150 1.368 . S
C2166 C2162 1.368 1_645 S
C2166 C2165 1.523 . S
H2167 C2142 0.950 1_655 S
H2168 C2144 0.911 1_645 S
H2169 C2145 0.949 . S
H2170 C2147 0.950 1_455 S
H2171 C2149 0.966 1_565 S
C2172 C2173 1.349 . S
C2172 C2174 1.327 . S
C2172 H2197 0.950 . S
C2173 C2172 1.349 . S
C2173 C2189 1.349 . S
C2174 C2172 1.327 . S
C2174 C2193 1.429 . S
C2174 H2198 0.950 . S
C2175 C2192 1.574 . S
C2175 C2194 1.368 . S
C2175 H2199 0.949 . S
H2176 C2180 0.949 . S
C2177 C2178 1.349 . S
C2177 C2179 1.327 . S
C2177 H2200 0.950 . S
C2178 C2177 1.349 . S
C2178 C2190 1.349 . S
C2179 C2177 1.327 . S
C2179 C2195 1.429 . S
C2179 H2201 0.950 . S
C2180 H2176 0.949 . S
C2180 C2188 1.574 . S
C2180 C2196 1.368 . S
H2181 C2189 0.950 . S
H2182 C2187 0.950 . S
H2183 C2188 0.949 . S
H2184 C2190 0.950 . S
H2185 C2191 0.950 . S
H2186 C2192 0.949 . S
C2187 H2182 0.950 . S
C2187 C2189 1.327 . S
C2187 C2193 1.429 . S
C2188 C2180 1.574 . S
C2188 H2183 0.949 . S
C2188 C2194 1.368 . S
C2189 C2173 1.349 . S
C2189 H2181 0.950 . S
C2189 C2187 1.327 . S
C2190 C2178 1.349 . S
C2190 H2184 0.950 . S
C2190 C2191 1.327 . S
C2191 H2185 0.950 . S
C2191 C2190 1.327 . S
C2191 C2195 1.429 . S
C2192 C2175 1.574 . S
C2192 H2186 0.949 . S
C2192 C2196 1.368 . S
C2193 C2174 1.429 . S
C2193 C2187 1.429 . S
C2193 C2194 1.523 . S
C2194 C2175 1.368 . S
C2194 C2188 1.368 . S
C2194 C2193 1.523 . S
C2195 C2179 1.429 . S
C2195 C2191 1.429 . S
C2195 C2196 1.523 . S
C2196 C2180 1.368 . S
C2196 C2192 1.368 . S
C2196 C2195 1.523 . S
H2197 C2172 0.950 . S
H2198 C2174 0.950 . S
H2199 C2175 0.949 . S
H2200 C2177 0.950 . S
H2201 C2179 0.950 . S
C2202 C2203 1.349 . S
C2202 C2204 1.327 . S
C2202 H2227 0.950 . S
C2203 C2202 1.349 . S
C2203 C2219 1.349 1_545 S
C2204 C2202 1.327 . S
C2204 C2223 1.429 . S
C2204 H2228 0.950 . S
C2205 C2222 1.574 1_554 S
C2205 C2224 1.368 1_565 S
C2205 H2229 0.949 . S
H2206 C2210 0.949 . S
C2207 C2208 1.349 . S
C2207 C2209 1.327 . S
C2207 H2230 0.950 . S
C2208 C2207 1.349 . S
C2208 C2220 1.349 1_565 S
C2209 C2207 1.327 . S
C2209 C2225 1.429 . S
C2209 H2231 0.950 . S
C2210 H2206 0.949 . S
C2210 C2218 1.574 1_556 S
C2210 C2226 1.368 1_545 S
H2211 C2219 0.950 . S
H2212 C2217 0.950 . S
H2213 C2218 0.949 . S
H2214 C2220 0.950 . S
H2215 C2221 0.950 . S
H2216 C2222 0.949 . S
C2217 H2212 0.950 . S
C2217 C2219 1.327 . S
C2217 C2223 1.429 1_565 S
C2218 C2210 1.574 1_554 S
C2218 H2213 0.949 . S
C2218 C2224 1.368 . S
C2219 C2203 1.349 1_565 S
C2219 H2211 0.950 . S
C2219 C2217 1.327 . S
C2220 C2208 1.349 1_545 S
C2220 H2214 0.950 . S
C2220 C2221 1.327 . S
C2221 H2215 0.950 . S
C2221 C2220 1.327 . S
C2221 C2225 1.429 1_545 S
C2222 C2205 1.574 1_556 S
C2222 H2216 0.949 . S
C2222 C2226 1.368 . S
C2223 C2204 1.429 . S
C2223 C2217 1.429 1_545 S
C2223 C2224 1.523 . S
C2224 C2205 1.368 1_545 S
C2224 C2218 1.368 . S
C2224 C2223 1.523 . S
C2225 C2209 1.429 . S
C2225 C2221 1.429 1_565 S
C2225 C2226 1.523 . S
C2226 C2210 1.368 1_565 S
C2226 C2222 1.368 . S
C2226 C2225 1.523 . S
H2227 C2202 0.950 . S
H2228 C2204 0.950 . S
H2229 C2205 0.949 . S
H2230 C2207 0.950 . S
H2231 C2209 0.950 . S
C2232 C2233 1.349 . S
C2232 C2234 1.327 . S
C2232 H2257 0.950 . S
C2233 C2232 1.349 . S
C2233 C2249 1.349 . S
C2234 C2232 1.327 . S
C2234 C2253 1.429 . S
C2234 H2258 0.950 . S
C2235 C2252 1.574 . S
C2235 C2254 1.368 . S
C2235 H2259 0.949 . S
H2236 C2240 0.949 . S
C2237 C2238 1.349 . S
C2237 C2239 1.327 . S
C2237 H2260 0.950 . S
C2238 C2237 1.349 . S
C2238 C2250 1.349 . S
C2239 C2237 1.327 . S
C2239 C2255 1.429 . S
C2239 H2261 0.950 . S
C2240 H2236 0.949 . S
C2240 C2248 1.574 . S
C2240 C2256 1.368 . S
H2241 C2249 0.950 . S
H2242 C2247 0.950 . S
H2243 C2248 0.949 . S
H2244 C2250 0.950 . S
H2245 C2251 0.950 . S
H2246 C2252 0.949 . S
C2247 H2242 0.950 . S
C2247 C2249 1.327 . S
C2247 C2253 1.429 . S
C2248 C2240 1.574 . S
C2248 H2243 0.949 . S
C2248 C2254 1.368 . S
C2249 C2233 1.349 . S
C2249 H2241 0.950 . S
C2249 C2247 1.327 . S
C2250 C2238 1.349 . S
C2250 H2244 0.950 . S
C2250 C2251 1.327 . S
C2251 H2245 0.950 . S
C2251 C2250 1.327 . S
C2251 C2255 1.429 . S
C2252 C2235 1.574 . S
C2252 H2246 0.949 . S
C2252 C2256 1.368 . S
C2253 C2234 1.429 . S
C2253 C2247 1.429 . S
C2253 C2254 1.523 . S
C2254 C2235 1.368 . S
C2254 C2248 1.368 . S
C2254 C2253 1.523 . S
C2255 C2239 1.429 . S
C2255 C2251 1.429 . S
C2255 C2256 1.523 . S
C2256 C2240 1.368 . S
C2256 C2252 1.368 . S
C2256 C2255 1.523 . S
H2257 C2232 0.950 . S
H2258 C2234 0.950 . S
H2259 C2235 0.949 . S
H2260 C2237 0.950 . S
H2261 C2239 0.950 . S
C2262 C2263 1.323 1_545 S
C2262 C2264 1.333 . S
C2262 H2287 0.971 . S
C2263 C2262 1.323 1_565 S
C2263 C2279 1.349 . S
C2264 C2262 1.333 . S
C2264 C2283 1.429 1_545 S
C2264 H2288 0.950 . S
C2265 C2282 1.574 . S
C2265 C2284 1.368 . S
C2265 H2289 0.949 . S
H2266 C2270 0.949 . S
C2267 C2268 1.349 1_565 S
C2267 C2269 1.327 . S
C2267 H2290 0.950 . S
C2268 C2267 1.349 1_545 S
C2268 C2280 1.349 . S
C2269 C2267 1.327 . S
C2269 C2285 1.429 1_565 S
C2269 H2291 0.950 . S
C2270 H2266 0.949 . S
C2270 C2278 1.574 . S
C2270 C2286 1.368 . S
H2271 C2279 0.950 . S
H2272 C2277 0.950 . S
H2273 C2278 0.949 . S
H2274 C2280 0.950 . S
H2275 C2281 0.950 . S
H2276 C2282 0.949 . S
C2277 H2272 0.950 . S
C2277 C2279 1.327 . S
C2277 C2283 1.429 . S
C2278 C2270 1.574 . S
C2278 H2273 0.949 . S
C2278 C2284 1.368 1_545 S
C2279 C2263 1.349 . S
C2279 H2271 0.950 . S
C2279 C2277 1.327 . S
C2280 C2268 1.349 . S
C2280 H2274 0.950 . S
C2280 C2281 1.327 . S
C2281 H2275 0.950 . S
C2281 C2280 1.327 . S
C2281 C2285 1.429 . S
C2282 C2265 1.574 . S
C2282 H2276 0.949 . S
C2282 C2286 1.368 1_565 S
C2283 C2264 1.429 1_565 S
C2283 C2277 1.429 . S
C2283 C2284 1.523 . S
C2284 C2265 1.368 . S
C2284 C2278 1.368 1_565 S
C2284 C2283 1.523 . S
C2285 C2269 1.429 1_545 S
C2285 C2281 1.429 . S
C2285 C2286 1.523 . S
C2286 C2270 1.368 . S
C2286 C2282 1.368 1_545 S
C2286 C2285 1.523 . S
H2287 C2262 0.971 . S
H2288 C2264 0.950 . S
H2289 C2265 0.949 . S
H2290 C2267 0.950 . S
H2291 C2269 0.950 . S
C2292 C2293 1.349 . S
C2292 C2294 1.327 . S
C2292 H2317 0.950 . S
C2293 C2292 1.349 . S
C2293 C2309 1.349 . S
C2294 C2292 1.327 . S
C2294 C2313 1.429 . S
C2294 H2318 0.950 . S
C2295 C2312 1.574 . S
C2295 C2314 1.368 . S
C2295 H2319 0.949 . S
H2296 C2300 0.949 . S
C2297 C2298 1.349 . S
C2297 C2299 1.327 . S
C2297 H2320 0.950 . S
C2298 C2297 1.349 . S
C2298 C2310 1.349 . S
C2299 C2297 1.327 . S
C2299 C2315 1.429 . S
C2299 H2321 0.950 . S
C2300 H2296 0.949 . S
C2300 C2308 1.574 . S
C2300 C2316 1.368 . S
H2301 C2309 0.950 . S
H2302 C2307 0.950 . S
H2303 C2308 0.949 . S
H2304 C2310 0.950 . S
H2305 C2311 0.950 . S
H2306 C2312 0.949 . S
C2307 H2302 0.950 . S
C2307 C2309 1.327 . S
C2307 C2313 1.429 . S
C2308 C2300 1.574 . S
C2308 H2303 0.949 . S
C2308 C2314 1.368 . S
C2309 C2293 1.349 . S
C2309 H2301 0.950 . S
C2309 C2307 1.327 . S
C2310 C2298 1.349 . S
C2310 H2304 0.950 . S
C2310 C2311 1.327 . S
C2311 H2305 0.950 . S
C2311 C2310 1.327 . S
C2311 C2315 1.429 . S
C2312 C2295 1.574 . S
C2312 H2306 0.949 . S
C2312 C2316 1.368 . S
C2313 C2294 1.429 . S
C2313 C2307 1.429 . S
C2313 C2314 1.523 . S
C2314 C2295 1.368 . S
C2314 C2308 1.368 . S
C2314 C2313 1.523 . S
C2315 C2299 1.429 . S
C2315 C2311 1.429 . S
C2315 C2316 1.523 . S
C2316 C2300 1.368 . S
C2316 C2312 1.368 . S
C2316 C2315 1.523 . S
H2317 C2292 0.950 . S
H2318 C2294 0.950 . S
H2319 C2295 0.949 . S
H2320 C2297 0.950 . S
H2321 C2299 0.950 . S
C2322 C2323 1.349 . S
C2322 C2324 1.327 . S
C2322 H2347 0.950 . S
C2323 C2322 1.349 . S
C2323 C2339 1.349 1_545 S
C2324 C2322 1.327 . S
C2324 C2343 1.429 . S
C2324 H2348 0.950 1_455 S
C2325 C2342 1.574 1_556 S
C2325 C2344 1.368 1_565 S
C2325 H2349 0.949 . S
H2326 C2330 0.949 . S
C2327 C2328 1.349 . S
C2327 C2329 1.327 . S
C2327 H2350 0.950 . S
C2328 C2327 1.349 . S
C2328 C2340 1.349 1_565 S
C2329 C2327 1.327 . S
C2329 C2345 1.429 . S
C2329 H2351 0.950 1_655 S
C2330 H2326 0.949 . S
C2330 C2338 1.574 1_554 S
C2330 C2346 1.368 1_545 S
H2331 C2339 0.950 . S
H2332 C2337 0.950 . S
H2333 C2338 0.949 . S
H2334 C2340 0.950 . S
H2335 C2341 0.950 . S
H2336 C2342 0.949 . S
C2337 H2332 0.950 . S
C2337 C2339 1.327 . S
C2337 C2343 1.429 1_565 S
C2338 C2330 1.574 1_556 S
C2338 H2333 0.949 . S
C2338 C2344 1.368 1_655 S
C2339 C2323 1.349 1_565 S
C2339 H2331 0.950 . S
C2339 C2337 1.327 . S
C2340 C2328 1.349 1_545 S
C2340 H2334 0.950 . S
C2340 C2341 1.327 . S
C2341 H2335 0.950 . S
C2341 C2340 1.327 . S
C2341 C2345 1.429 1_545 S
C2342 C2325 1.574 1_554 S
C2342 H2336 0.949 . S
C2342 C2346 1.368 1_455 S
C2343 C2324 1.429 . S
C2343 C2337 1.429 1_545 S
C2343 C2344 1.523 . S
C2344 C2325 1.368 1_545 S
C2344 C2338 1.368 1_455 S
C2344 C2343 1.523 . S
C2345 C2329 1.429 . S
C2345 C2341 1.429 1_565 S
C2345 C2346 1.523 . S
C2346 C2330 1.368 1_565 S
C2346 C2342 1.368 1_655 S
C2346 C2345 1.523 . S
H2347 C2322 0.950 . S
H2348 C2324 0.950 1_655 S
H2349 C2325 0.949 . S
H2350 C2327 0.950 . S
H2351 C2329 0.950 1_455 S
C2352 C2353 1.349 . S
C2352 C2354 1.327 . S
C2352 H2377 0.950 . S
C2353 C2352 1.349 . S
C2353 C2369 1.349 . S
C2354 C2352 1.327 . S
C2354 C2373 1.429 . S
C2354 H2378 0.950 . S
C2355 C2372 1.574 . S
C2355 C2374 1.368 . S
C2355 H2379 0.949 . S
H2356 C2360 0.949 . S
C2357 C2358 1.349 . S
C2357 C2359 1.327 . S
C2357 H2380 0.950 . S
C2358 C2357 1.349 . S
C2358 C2370 1.349 . S
C2359 C2357 1.327 . S
C2359 C2375 1.429 . S
C2359 H2381 0.950 . S
C2360 H2356 0.949 . S
C2360 C2368 1.574 . S
C2360 C2376 1.368 . S
H2361 C2369 0.950 . S
H2362 C2367 0.950 . S
H2363 C2368 0.949 . S
H2364 C2370 0.950 . S
H2365 C2371 0.950 . S
H2366 C2372 0.949 . S
C2367 H2362 0.950 . S
C2367 C2369 1.327 . S
C2367 C2373 1.429 . S
C2368 C2360 1.574 . S
C2368 H2363 0.949 . S
C2368 C2374 1.368 . S
C2369 C2353 1.349 . S
C2369 H2361 0.950 . S
C2369 C2367 1.327 . S
C2370 C2358 1.349 . S
C2370 H2364 0.950 . S
C2370 C2371 1.327 . S
C2371 H2365 0.950 . S
C2371 C2370 1.327 . S
C2371 C2375 1.429 . S
C2372 C2355 1.574 . S
C2372 H2366 0.949 . S
C2372 C2376 1.368 . S
C2373 C2354 1.429 . S
C2373 C2367 1.429 . S
C2373 C2374 1.523 . S
C2374 C2355 1.368 . S
C2374 C2368 1.368 . S
C2374 C2373 1.523 . S
C2375 C2359 1.429 . S
C2375 C2371 1.429 . S
C2375 C2376 1.523 . S
C2376 C2360 1.368 . S
C2376 C2372 1.368 . S
C2376 C2375 1.523 . S
H2377 C2352 0.950 . S
H2378 C2354 0.950 . S
H2379 C2355 0.949 . S
H2380 C2357 0.950 . S
H2381 C2359 0.950 . S
C2382 C2383 1.349 . S
C2382 C2384 1.327 . S
C2382 H2407 0.950 . S
C2383 C2382 1.349 . S
C2383 C2399 1.349 . S
C2384 C2382 1.327 . S
C2384 C2403 1.429 . S
C2384 H2408 0.950 . S
C2385 C2402 1.574 . S
C2385 C2404 1.368 . S
C2385 H2409 0.949 . S
H2386 C2390 0.949 . S
C2387 C2388 1.349 . S
C2387 C2389 1.327 . S
C2387 H2410 0.950 . S
C2388 C2387 1.349 . S
C2388 C2400 1.349 . S
C2389 C2387 1.327 . S
C2389 C2405 1.429 . S
C2389 H2411 0.950 . S
C2390 H2386 0.949 . S
C2390 C2398 1.574 . S
C2390 C2406 1.368 . S
H2391 C2399 0.950 . S
H2392 C2397 0.950 . S
H2393 C2398 0.949 . S
H2394 C2400 0.950 . S
H2395 C2401 0.950 . S
H2396 C2402 0.949 . S
C2397 H2392 0.950 . S
C2397 C2399 1.327 . S
C2397 C2403 1.429 . S
C2398 C2390 1.574 . S
C2398 H2393 0.949 . S
C2398 C2404 1.368 . S
C2399 C2383 1.349 . S
C2399 H2391 0.950 . S
C2399 C2397 1.327 . S
C2400 C2388 1.349 . S
C2400 H2394 0.950 . S
C2400 C2401 1.327 . S
C2401 H2395 0.950 . S
C2401 C2400 1.327 . S
C2401 C2405 1.429 . S
C2402 C2385 1.574 . S
C2402 H2396 0.949 . S
C2402 C2406 1.368 . S
C2403 C2384 1.429 . S
C2403 C2397 1.429 . S
C2403 C2404 1.523 . S
C2404 C2385 1.368 . S
C2404 C2398 1.368 . S
C2404 C2403 1.523 . S
C2405 C2389 1.429 . S
C2405 C2401 1.429 . S
C2405 C2406 1.523 . S
C2406 C2390 1.368 . S
C2406 C2402 1.368 . S
C2406 C2405 1.523 . S
H2407 C2382 0.950 . S
H2408 C2384 0.950 . S
H2409 C2385 0.949 . S
H2410 C2387 0.950 . S
H2411 C2389 0.950 . S
C2412 C2413 1.349 . S
C2412 C2414 1.327 . S
C2412 H2437 0.950 . S
C2413 C2412 1.349 . S
C2413 C2429 1.349 . S
C2414 C2412 1.327 . S
C2414 C2433 1.429 . S
C2414 H2438 0.950 . S
C2415 C2432 1.574 . S
C2415 C2434 1.368 . S
C2415 H2439 0.949 . S
H2416 C2420 0.949 . S
C2417 C2418 1.349 . S
C2417 C2419 1.327 . S
C2417 H2440 0.950 . S
C2418 C2417 1.349 . S
C2418 C2430 1.349 . S
C2419 C2417 1.327 . S
C2419 C2435 1.429 . S
C2419 H2441 0.950 . S
C2420 H2416 0.949 . S
C2420 C2428 1.574 . S
C2420 C2436 1.368 . S
H2421 C2429 0.950 . S
H2422 C2427 0.950 . S
H2423 C2428 0.949 . S
H2424 C2430 0.950 . S
H2425 C2431 0.950 . S
H2426 C2432 0.949 . S
C2427 H2422 0.950 . S
C2427 C2429 1.327 . S
C2427 C2433 1.429 . S
C2428 C2420 1.574 . S
C2428 H2423 0.949 . S
C2428 C2434 1.368 . S
C2429 C2413 1.349 . S
C2429 H2421 0.950 . S
C2429 C2427 1.327 . S
C2430 C2418 1.349 . S
C2430 H2424 0.950 . S
C2430 C2431 1.327 . S
C2431 H2425 0.950 . S
C2431 C2430 1.327 . S
C2431 C2435 1.429 . S
C2432 C2415 1.574 . S
C2432 H2426 0.949 . S
C2432 C2436 1.368 . S
C2433 C2414 1.429 . S
C2433 C2427 1.429 . S
C2433 C2434 1.523 . S
C2434 C2415 1.368 . S
C2434 C2428 1.368 . S
C2434 C2433 1.523 . S
C2435 C2419 1.429 . S
C2435 C2431 1.429 . S
C2435 C2436 1.523 . S
C2436 C2420 1.368 . S
C2436 C2432 1.368 . S
C2436 C2435 1.523 . S
H2437 C2412 0.950 . S
H2438 C2414 0.950 . S
H2439 C2415 0.949 . S
H2440 C2417 0.950 . S
H2441 C2419 0.950 . S
C2442 C2443 1.349 . S
C2442 C2444 1.327 . S
C2442 H2467 0.950 . S
C2443 C2442 1.349 . S
C2443 C2459 1.349 . S
C2444 C2442 1.327 . S
C2444 C2463 1.429 . S
C2444 H2468 0.950 . S
C2445 C2462 1.574 . S
C2445 C2464 1.368 . S
C2445 H2469 0.949 . S
H2446 C2450 0.949 . S
C2447 C2448 1.349 . S
C2447 C2449 1.327 . S
C2447 H2470 0.950 . S
C2448 C2447 1.349 . S
C2448 C2460 1.349 . S
C2449 C2447 1.327 . S
C2449 C2465 1.429 . S
C2449 H2471 0.950 . S
C2450 H2446 0.949 . S
C2450 C2458 1.574 . S
C2450 C2466 1.368 . S
H2451 C2459 0.950 . S
H2452 C2457 0.950 . S
H2453 C2458 0.949 . S
H2454 C2460 0.950 . S
H2455 C2461 0.950 . S
H2456 C2462 0.949 . S
C2457 H2452 0.950 . S
C2457 C2459 1.327 . S
C2457 C2463 1.429 . S
C2458 C2450 1.574 . S
C2458 H2453 0.949 . S
C2458 C2464 1.368 . S
C2459 C2443 1.349 . S
C2459 H2451 0.950 . S
C2459 C2457 1.327 . S
C2460 C2448 1.349 . S
C2460 H2454 0.950 . S
C2460 C2461 1.327 . S
C2461 H2455 0.950 . S
C2461 C2460 1.327 . S
C2461 C2465 1.429 . S
C2462 C2445 1.574 . S
C2462 H2456 0.949 . S
C2462 C2466 1.368 . S
C2463 C2444 1.429 . S
C2463 C2457 1.429 . S
C2463 C2464 1.523 . S
C2464 C2445 1.368 . S
C2464 C2458 1.368 . S
C2464 C2463 1.523 . S
C2465 C2449 1.429 . S
C2465 C2461 1.429 . S
C2465 C2466 1.523 . S
C2466 C2450 1.368 . S
C2466 C2462 1.368 . S
C2466 C2465 1.523 . S
H2467 C2442 0.950 . S
H2468 C2444 0.950 . S
H2469 C2445 0.949 . S
H2470 C2447 0.950 . S
H2471 C2449 0.950 . S
C2472 C2473 1.349 . S
C2472 C2474 1.327 . S
C2472 H2497 0.950 . S
C2473 C2472 1.349 . S
C2473 C2489 1.349 . S
C2474 C2472 1.327 . S
C2474 C2493 1.429 . S
C2474 H2498 0.950 . S
C2475 C2492 1.574 1_554 S
C2475 C2494 1.368 . S
C2475 H2499 0.949 . S
H2476 C2480 0.949 . S
C2477 C2478 1.349 . S
C2477 C2479 1.327 . S
C2477 H2500 0.950 . S
C2478 C2477 1.349 . S
C2478 C2490 1.349 . S
C2479 C2477 1.327 . S
C2479 C2495 1.429 . S
C2479 H2501 0.950 . S
C2480 H2476 0.949 . S
C2480 C2488 1.574 1_556 S
C2480 C2496 1.368 . S
H2481 C2489 0.950 . S
H2482 C2487 0.950 . S
H2483 C2488 0.949 . S
H2484 C2490 0.950 . S
H2485 C2491 0.950 . S
H2486 C2492 0.949 . S
C2487 H2482 0.950 . S
C2487 C2489 1.327 . S
C2487 C2493 1.429 . S
C2488 C2480 1.574 1_554 S
C2488 H2483 0.949 . S
C2488 C2494 1.368 . S
C2489 C2473 1.349 . S
C2489 H2481 0.950 . S
C2489 C2487 1.327 . S
C2490 C2478 1.349 . S
C2490 H2484 0.950 . S
C2490 C2491 1.327 . S
C2491 H2485 0.950 . S
C2491 C2490 1.327 . S
C2491 C2495 1.429 . S
C2492 C2475 1.574 1_556 S
C2492 H2486 0.949 . S
C2492 C2496 1.368 . S
C2493 C2474 1.429 . S
C2493 C2487 1.429 . S
C2493 C2494 1.523 . S
C2494 C2475 1.368 . S
C2494 C2488 1.368 . S
C2494 C2493 1.523 . S
C2495 C2479 1.429 . S
C2495 C2491 1.429 . S
C2495 C2496 1.523 . S
C2496 C2480 1.368 . S
C2496 C2492 1.368 . S
C2496 C2495 1.523 . S
H2497 C2472 0.950 . S
H2498 C2474 0.950 . S
H2499 C2475 0.949 . S
H2500 C2477 0.950 . S
H2501 C2479 0.950 . S
C2502 C2503 1.349 . S
C2502 C2504 1.327 . S
C2502 H2527 0.950 . S
C2503 C2502 1.349 . S
C2503 C2519 1.349 . S
C2504 C2502 1.327 . S
C2504 C2523 1.429 . S
C2504 H2528 0.950 1_455 S
C2505 C2522 1.574 . S
C2505 C2524 1.368 . S
C2505 H2529 0.949 . S
H2506 C2510 0.949 . S
C2507 C2508 1.349 . S
C2507 C2509 1.327 . S
C2507 H2530 0.950 . S
C2508 C2507 1.349 . S
C2508 C2520 1.349 . S
C2509 C2507 1.327 . S
C2509 C2525 1.429 . S
C2509 H2531 0.941 1_655 S
C2510 H2506 0.949 . S
C2510 C2518 1.574 . S
C2510 C2526 1.368 . S
H2511 C2519 0.950 . S
H2512 C2517 0.950 . S
H2513 C2518 0.949 . S
H2514 C2520 0.950 . S
H2515 C2521 0.950 . S
H2516 C2522 0.949 . S
C2517 H2512 0.950 . S
C2517 C2519 1.327 . S
C2517 C2523 1.429 . S
C2518 C2510 1.574 . S
C2518 H2513 0.949 . S
C2518 C2524 1.368 1_655 S
C2519 C2503 1.349 . S
C2519 H2511 0.950 . S
C2519 C2517 1.327 . S
C2520 C2508 1.349 . S
C2520 H2514 0.950 . S
C2520 C2521 1.327 . S
C2521 H2515 0.950 . S
C2521 C2520 1.327 . S
C2521 C2525 1.429 . S
C2522 C2505 1.574 . S
C2522 H2516 0.949 . S
C2522 C2526 1.368 1_455 S
C2523 C2504 1.429 . S
C2523 C2517 1.429 . S
C2523 C2524 1.523 . S
C2524 C2505 1.368 . S
C2524 C2518 1.368 1_455 S
C2524 C2523 1.523 . S
C2525 C2509 1.429 . S
C2525 C2521 1.429 . S
C2525 C2526 1.523 . S
C2526 C2510 1.368 . S
C2526 C2522 1.368 1_655 S
C2526 C2525 1.523 . S
H2527 C2502 0.950 . S
H2528 C2504 0.950 1_655 S
H2529 C2505 0.949 . S
H2530 C2507 0.950 . S
H2531 C2509 0.941 1_455 S
C2532 C2533 1.349 . S
C2532 C2534 1.327 . S
C2532 H2557 0.950 . S
C2533 C2532 1.349 . S
C2533 C2549 1.349 . S
C2534 C2532 1.327 . S
C2534 C2553 1.429 . S
C2534 H2558 0.950 1_455 S
C2535 C2552 1.574 1_554 S
C2535 C2554 1.368 . S
C2535 H2559 0.949 . S
H2536 C2540 0.949 . S
C2537 C2538 1.349 . S
C2537 C2539 1.327 . S
C2537 H2560 0.950 . S
C2538 C2537 1.349 . S
C2538 C2550 1.349 . S
C2539 C2537 1.327 . S
C2539 C2555 1.429 . S
C2539 H2561 0.950 1_655 S
C2540 H2536 0.949 . S
C2540 C2548 1.574 1_556 S
C2540 C2556 1.368 . S
H2541 C2549 0.950 . S
H2542 C2547 0.950 . S
H2543 C2548 0.949 . S
H2544 C2550 0.950 . S
H2545 C2551 0.950 . S
H2546 C2552 0.949 . S
C2547 H2542 0.950 . S
C2547 C2549 1.327 . S
C2547 C2553 1.429 . S
C2548 C2540 1.574 1_554 S
C2548 H2543 0.949 . S
C2548 C2554 1.368 1_655 S
C2549 C2533 1.349 . S
C2549 H2541 0.950 . S
C2549 C2547 1.327 . S
C2550 C2538 1.349 . S
C2550 H2544 0.950 . S
C2550 C2551 1.327 . S
C2551 H2545 0.950 . S
C2551 C2550 1.327 . S
C2551 C2555 1.429 . S
C2552 C2535 1.574 1_556 S
C2552 H2546 0.949 . S
C2552 C2556 1.368 1_455 S
C2553 C2534 1.429 . S
C2553 C2547 1.429 . S
C2553 C2554 1.523 . S
C2554 C2535 1.368 . S
C2554 C2548 1.368 1_455 S
C2554 C2553 1.523 . S
C2555 C2539 1.429 . S
C2555 C2551 1.429 . S
C2555 C2556 1.523 . S
C2556 C2540 1.368 . S
C2556 C2552 1.368 1_655 S
C2556 C2555 1.523 . S
H2557 C2532 0.950 . S
H2558 C2534 0.950 1_655 S
H2559 C2535 0.949 . S
H2560 C2537 0.950 . S
H2561 C2539 0.950 1_455 S
C2562 C2563 1.349 . S
C2562 C2564 1.327 . S
C2562 H2587 0.950 . S
C2563 C2562 1.349 . S
C2563 C2579 1.349 . S
C2564 C2562 1.327 . S
C2564 C2583 1.429 . S
C2564 H2588 0.950 . S
C2565 C2582 1.574 . S
C2565 C2584 1.368 . S
C2565 H2589 0.949 . S
H2566 C2570 0.949 . S
C2567 C2568 1.349 . S
C2567 C2569 1.327 . S
C2567 H2590 0.950 . S
C2568 C2567 1.349 . S
C2568 C2580 1.349 . S
C2569 C2567 1.327 . S
C2569 C2585 1.429 . S
C2569 H2591 0.950 . S
C2570 H2566 0.949 . S
C2570 C2578 1.574 . S
C2570 C2586 1.368 . S
H2571 C2579 0.950 . S
H2572 C2577 0.950 . S
H2573 C2578 0.949 . S
H2574 C2580 0.950 . S
H2575 C2581 0.950 . S
H2576 C2582 0.949 . S
C2577 H2572 0.950 . S
C2577 C2579 1.327 . S
C2577 C2583 1.429 . S
C2578 C2570 1.574 . S
C2578 H2573 0.949 . S
C2578 C2584 1.368 . S
C2579 C2563 1.349 . S
C2579 H2571 0.950 . S
C2579 C2577 1.327 . S
C2580 C2568 1.349 . S
C2580 H2574 0.950 . S
C2580 C2581 1.327 . S
C2581 H2575 0.950 . S
C2581 C2580 1.327 . S
C2581 C2585 1.429 . S
C2582 C2565 1.574 . S
C2582 H2576 0.949 . S
C2582 C2586 1.368 . S
C2583 C2564 1.429 . S
C2583 C2577 1.429 . S
C2583 C2584 1.523 . S
C2584 C2565 1.368 . S
C2584 C2578 1.368 . S
C2584 C2583 1.523 . S
C2585 C2569 1.429 . S
C2585 C2581 1.429 . S
C2585 C2586 1.523 . S
C2586 C2570 1.368 . S
C2586 C2582 1.368 . S
C2586 C2585 1.523 . S
H2587 C2562 0.950 . S
H2588 C2564 0.950 . S
H2589 C2565 0.949 . S
H2590 C2567 0.950 . S
H2591 C2569 0.950 . S
C2592 C2593 1.349 . S
C2592 C2594 1.327 . S
C2592 H2617 0.950 . S
C2593 C2592 1.349 . S
C2593 C2609 1.349 . S
C2594 C2592 1.327 . S
C2594 C2613 1.429 . S
C2594 H2618 0.950 . S
C2595 C2612 1.574 . S
C2595 C2614 1.368 . S
C2595 H2619 0.949 . S
H2596 C2600 0.949 . S
C2597 C2598 1.349 . S
C2597 C2599 1.327 . S
C2597 H2620 0.950 . S
C2598 C2597 1.349 . S
C2598 C2610 1.349 . S
C2599 C2597 1.327 . S
C2599 C2615 1.429 . S
C2599 H2621 0.950 . S
C2600 H2596 0.949 . S
C2600 C2608 1.574 . S
C2600 C2616 1.368 . S
H2601 C2609 0.950 . S
H2602 C2607 0.950 . S
H2603 C2608 0.949 . S
H2604 C2610 0.950 . S
H2605 C2611 0.950 . S
H2606 C2612 0.949 . S
C2607 H2602 0.950 . S
C2607 C2609 1.327 . S
C2607 C2613 1.429 . S
C2608 C2600 1.574 . S
C2608 H2603 0.949 . S
C2608 C2614 1.368 . S
C2609 C2593 1.349 . S
C2609 H2601 0.950 . S
C2609 C2607 1.327 . S
C2610 C2598 1.349 . S
C2610 H2604 0.950 . S
C2610 C2611 1.327 . S
C2611 H2605 0.950 . S
C2611 C2610 1.327 . S
C2611 C2615 1.429 . S
C2612 C2595 1.574 . S
C2612 H2606 0.949 . S
C2612 C2616 1.368 . S
C2613 C2594 1.429 . S
C2613 C2607 1.429 . S
C2613 C2614 1.523 . S
C2614 C2595 1.368 . S
C2614 C2608 1.368 . S
C2614 C2613 1.523 . S
C2615 C2599 1.429 . S
C2615 C2611 1.429 . S
C2615 C2616 1.523 . S
C2616 C2600 1.368 . S
C2616 C2612 1.368 . S
C2616 C2615 1.523 . S
H2617 C2592 0.950 . S
H2618 C2594 0.950 . S
H2619 C2595 0.949 . S
H2620 C2597 0.950 . S
H2621 C2599 0.950 . S
C2622 C2623 1.349 . S
C2622 C2624 1.327 . S
C2622 H2647 0.950 . S
C2623 C2622 1.349 . S
C2623 C2639 1.349 . S
C2624 C2622 1.327 . S
C2624 C2643 1.429 . S
C2624 H2648 0.950 . S
C2625 C2642 1.574 . S
C2625 C2644 1.368 . S
C2625 H2649 0.949 . S
H2626 C2630 0.949 . S
C2627 C2628 1.349 . S
C2627 C2629 1.327 . S
C2627 H2650 0.950 . S
C2628 C2627 1.349 . S
C2628 C2640 1.349 . S
C2629 C2627 1.327 . S
C2629 C2645 1.429 . S
C2629 H2651 0.950 . S
C2630 H2626 0.949 . S
C2630 C2638 1.574 . S
C2630 C2646 1.368 . S
H2631 C2639 0.950 . S
H2632 C2637 0.950 . S
H2633 C2638 0.949 . S
H2634 C2640 0.950 . S
H2635 C2641 0.950 . S
H2636 C2642 0.949 . S
C2637 H2632 0.950 . S
C2637 C2639 1.327 . S
C2637 C2643 1.429 . S
C2638 C2630 1.574 . S
C2638 H2633 0.949 . S
C2638 C2644 1.368 . S
C2639 C2623 1.349 . S
C2639 H2631 0.950 . S
C2639 C2637 1.327 . S
C2640 C2628 1.349 . S
C2640 H2634 0.950 . S
C2640 C2641 1.327 . S
C2641 H2635 0.950 . S
C2641 C2640 1.327 . S
C2641 C2645 1.429 . S
C2642 C2625 1.574 . S
C2642 H2636 0.949 . S
C2642 C2646 1.368 . S
C2643 C2624 1.429 . S
C2643 C2637 1.429 . S
C2643 C2644 1.523 . S
C2644 C2625 1.368 . S
C2644 C2638 1.368 . S
C2644 C2643 1.523 . S
C2645 C2629 1.429 . S
C2645 C2641 1.429 . S
C2645 C2646 1.523 . S
C2646 C2630 1.368 . S
C2646 C2642 1.368 . S
C2646 C2645 1.523 . S
H2647 C2622 0.950 . S
H2648 C2624 0.950 . S
H2649 C2625 0.949 . S
H2650 C2627 0.950 . S
H2651 C2629 0.950 . S
C2652 C2653 1.349 . S
C2652 C2654 1.327 . S
C2652 H2677 0.950 . S
C2653 C2652 1.349 . S
C2653 C2669 1.349 . S
C2654 C2652 1.327 . S
C2654 C2673 1.429 . S
C2654 H2678 0.950 . S
C2655 C2672 1.574 . S
C2655 C2674 1.368 . S
C2655 H2679 0.949 . S
H2656 C2660 0.949 . S
C2657 C2658 1.349 . S
C2657 C2659 1.327 . S
C2657 H2680 0.950 . S
C2658 C2657 1.349 . S
C2658 C2670 1.349 . S
C2659 C2657 1.327 . S
C2659 C2675 1.429 . S
C2659 H2681 0.950 . S
C2660 H2656 0.949 . S
C2660 C2668 1.574 . S
C2660 C2676 1.368 . S
H2661 C2669 0.950 . S
H2662 C2667 0.950 . S
H2663 C2668 0.949 . S
H2664 C2670 0.950 . S
H2665 C2671 0.950 . S
H2666 C2672 0.949 . S
C2667 H2662 0.950 . S
C2667 C2669 1.327 . S
C2667 C2673 1.429 . S
C2668 C2660 1.574 . S
C2668 H2663 0.949 . S
C2668 C2674 1.368 . S
C2669 C2653 1.349 . S
C2669 H2661 0.950 . S
C2669 C2667 1.327 . S
C2670 C2658 1.349 . S
C2670 H2664 0.950 . S
C2670 C2671 1.327 . S
C2671 H2665 0.950 . S
C2671 C2670 1.327 . S
C2671 C2675 1.429 . S
C2672 C2655 1.574 . S
C2672 H2666 0.949 . S
C2672 C2676 1.368 . S
C2673 C2654 1.429 . S
C2673 C2667 1.429 . S
C2673 C2674 1.523 . S
C2674 C2655 1.368 . S
C2674 C2668 1.368 . S
C2674 C2673 1.523 . S
C2675 C2659 1.429 . S
C2675 C2671 1.429 . S
C2675 C2676 1.523 . S
C2676 C2660 1.368 . S
C2676 C2672 1.368 . S
C2676 C2675 1.523 . S
H2677 C2652 0.950 . S
H2678 C2654 0.950 . S
H2679 C2655 0.949 . S
H2680 C2657 0.950 . S
H2681 C2659 0.950 . S
C2682 C2683 1.349 . S
C2682 C2684 1.327 . S
C2682 H2707 0.950 . S
C2683 C2682 1.349 . S
C2683 C2699 1.349 . S
C2684 C2682 1.327 . S
C2684 C2703 1.429 . S
C2684 H2708 0.950 . S
C2685 C2702 1.574 . S
C2685 C2704 1.368 . S
C2685 H2709 0.949 . S
H2686 C2690 0.949 . S
C2687 C2688 1.349 . S
C2687 C2689 1.327 . S
C2687 H2710 0.950 . S
C2688 C2687 1.349 . S
C2688 C2700 1.349 . S
C2689 C2687 1.327 . S
C2689 C2705 1.429 . S
C2689 H2711 0.950 . S
C2690 H2686 0.949 . S
C2690 C2698 1.574 . S
C2690 C2706 1.368 . S
H2691 C2699 0.950 . S
H2692 C2697 0.950 . S
H2693 C2698 0.949 . S
H2694 C2700 0.950 . S
H2695 C2701 0.950 . S
H2696 C2702 0.949 . S
C2697 H2692 0.950 . S
C2697 C2699 1.327 . S
C2697 C2703 1.429 . S
C2698 C2690 1.574 . S
C2698 H2693 0.949 . S
C2698 C2704 1.368 . S
C2699 C2683 1.349 . S
C2699 H2691 0.950 . S
C2699 C2697 1.327 . S
C2700 C2688 1.349 . S
C2700 H2694 0.950 . S
C2700 C2701 1.327 . S
C2701 H2695 0.950 . S
C2701 C2700 1.327 . S
C2701 C2705 1.429 . S
C2702 C2685 1.574 . S
C2702 H2696 0.949 . S
C2702 C2706 1.368 . S
C2703 C2684 1.429 . S
C2703 C2697 1.429 . S
C2703 C2704 1.523 . S
C2704 C2685 1.368 . S
C2704 C2698 1.368 . S
C2704 C2703 1.523 . S
C2705 C2689 1.429 . S
C2705 C2701 1.429 . S
C2705 C2706 1.523 . S
C2706 C2690 1.368 . S
C2706 C2702 1.368 . S
C2706 C2705 1.523 . S
H2707 C2682 0.950 . S
H2708 C2684 0.950 . S
H2709 C2685 0.949 . S
H2710 C2687 0.950 . S
H2711 C2689 0.950 . S
C2712 C2713 1.349 . S
C2712 C2714 1.327 . S
C2712 H2737 0.950 . S
C2713 C2712 1.349 . S
C2713 C2729 1.349 . S
C2714 C2712 1.327 . S
C2714 C2733 1.429 . S
C2714 H2738 0.950 . S
C2715 C2732 1.574 . S
C2715 C2734 1.368 . S
C2715 H2739 0.949 . S
H2716 C2720 0.949 . S
C2717 C2718 1.349 . S
C2717 C2719 1.327 . S
C2717 H2740 0.950 . S
C2718 C2717 1.349 . S
C2718 C2730 1.349 . S
C2719 C2717 1.327 . S
C2719 C2735 1.429 . S
C2719 H2741 0.950 . S
C2720 H2716 0.949 . S
C2720 C2728 1.574 . S
C2720 C2736 1.368 . S
H2721 C2729 0.950 . S
H2722 C2727 0.950 . S
H2723 C2728 0.949 . S
H2724 C2730 0.950 . S
H2725 C2731 0.950 . S
H2726 C2732 0.949 . S
C2727 H2722 0.950 . S
C2727 C2729 1.327 . S
C2727 C2733 1.429 . S
C2728 C2720 1.574 . S
C2728 H2723 0.949 . S
C2728 C2734 1.368 . S
C2729 C2713 1.349 . S
C2729 H2721 0.950 . S
C2729 C2727 1.327 . S
C2730 C2718 1.349 . S
C2730 H2724 0.950 . S
C2730 C2731 1.327 . S
C2731 H2725 0.950 . S
C2731 C2730 1.327 . S
C2731 C2735 1.429 . S
C2732 C2715 1.574 . S
C2732 H2726 0.949 . S
C2732 C2736 1.368 . S
C2733 C2714 1.429 . S
C2733 C2727 1.429 . S
C2733 C2734 1.523 . S
C2734 C2715 1.368 . S
C2734 C2728 1.368 . S
C2734 C2733 1.523 . S
C2735 C2719 1.429 . S
C2735 C2731 1.429 . S
C2735 C2736 1.523 . S
C2736 C2720 1.368 . S
C2736 C2732 1.368 . S
C2736 C2735 1.523 . S
H2737 C2712 0.950 . S
H2738 C2714 0.950 . S
H2739 C2715 0.949 . S
H2740 C2717 0.950 . S
H2741 C2719 0.950 . S
C2742 C2743 1.349 . S
C2742 C2744 1.327 . S
C2742 H2767 0.950 . S
C2743 C2742 1.349 . S
C2743 C2759 1.349 . S
C2744 C2742 1.327 . S
C2744 C2763 1.429 . S
C2744 H2768 0.950 . S
C2745 C2762 1.574 . S
C2745 C2764 1.368 . S
C2745 H2769 0.949 . S
H2746 C2750 0.949 . S
C2747 C2748 1.349 . S
C2747 C2749 1.327 . S
C2747 H2770 0.950 . S
C2748 C2747 1.349 . S
C2748 C2760 1.349 . S
C2749 C2747 1.327 . S
C2749 C2765 1.429 . S
C2749 H2771 0.950 . S
C2750 H2746 0.949 . S
C2750 C2758 1.574 . S
C2750 C2766 1.368 . S
H2751 C2759 0.950 . S
H2752 C2757 0.950 . S
H2753 C2758 0.949 . S
H2754 C2760 0.950 . S
H2755 C2761 0.950 . S
H2756 C2762 0.949 . S
C2757 H2752 0.950 . S
C2757 C2759 1.327 . S
C2757 C2763 1.429 . S
C2758 C2750 1.574 . S
C2758 H2753 0.949 . S
C2758 C2764 1.368 . S
C2759 C2743 1.349 . S
C2759 H2751 0.950 . S
C2759 C2757 1.327 . S
C2760 C2748 1.349 . S
C2760 H2754 0.950 . S
C2760 C2761 1.327 . S
C2761 H2755 0.950 . S
C2761 C2760 1.327 . S
C2761 C2765 1.429 . S
C2762 C2745 1.574 . S
C2762 H2756 0.949 . S
C2762 C2766 1.368 . S
C2763 C2744 1.429 . S
C2763 C2757 1.429 . S
C2763 C2764 1.523 . S
C2764 C2745 1.368 . S
C2764 C2758 1.368 . S
C2764 C2763 1.523 . S
C2765 C2749 1.429 . S
C2765 C2761 1.429 . S
C2765 C2766 1.523 . S
C2766 C2750 1.368 . S
C2766 C2762 1.368 . S
C2766 C2765 1.523 . S
H2767 C2742 0.950 . S
H2768 C2744 0.950 . S
H2769 C2745 0.949 . S
H2770 C2747 0.950 . S
H2771 C2749 0.950 . S
C2772 C2773 1.349 . S
C2772 C2774 1.327 . S
C2772 H2797 0.950 . S
C2773 C2772 1.349 . S
C2773 C2789 1.349 . S
C2774 C2772 1.327 . S
C2774 C2793 1.429 . S
C2774 H2798 0.950 . S
C2775 C2792 1.574 . S
C2775 C2794 1.368 . S
C2775 H2799 0.949 . S
H2776 C2780 0.949 . S
C2777 C2778 1.349 . S
C2777 C2779 1.327 . S
C2777 H2800 0.950 . S
C2778 C2777 1.349 . S
C2778 C2790 1.349 . S
C2779 C2777 1.327 . S
C2779 C2795 1.429 . S
C2779 H2801 0.950 . S
C2780 H2776 0.949 . S
C2780 C2788 1.574 . S
C2780 C2796 1.368 . S
H2781 C2789 0.950 . S
H2782 C2787 0.950 . S
H2783 C2788 0.949 . S
H2784 C2790 0.950 . S
H2785 C2791 0.950 . S
H2786 C2792 0.949 . S
C2787 H2782 0.950 . S
C2787 C2789 1.327 . S
C2787 C2793 1.429 . S
C2788 C2780 1.574 . S
C2788 H2783 0.949 . S
C2788 C2794 1.368 . S
C2789 C2773 1.349 . S
C2789 H2781 0.950 . S
C2789 C2787 1.327 . S
C2790 C2778 1.349 . S
C2790 H2784 0.950 . S
C2790 C2791 1.327 . S
C2791 H2785 0.950 . S
C2791 C2790 1.327 . S
C2791 C2795 1.429 . S
C2792 C2775 1.574 . S
C2792 H2786 0.949 . S
C2792 C2796 1.368 . S
C2793 C2774 1.429 . S
C2793 C2787 1.429 . S
C2793 C2794 1.523 . S
C2794 C2775 1.368 . S
C2794 C2788 1.368 . S
C2794 C2793 1.523 . S
C2795 C2779 1.429 . S
C2795 C2791 1.429 . S
C2795 C2796 1.523 . S
C2796 C2780 1.368 . S
C2796 C2792 1.368 . S
C2796 C2795 1.523 . S
H2797 C2772 0.950 . S
H2798 C2774 0.950 . S
H2799 C2775 0.949 . S
H2800 C2777 0.950 . S
H2801 C2779 0.950 . S
C2802 C2803 1.349 . S
C2802 C2804 1.327 . S
C2802 H2827 0.950 . S
C2803 C2802 1.349 . S
C2803 C2819 1.349 . S
C2804 C2802 1.327 . S
C2804 C2823 1.429 . S
C2804 H2828 0.950 . S
C2805 C2822 1.574 . S
C2805 C2824 1.368 . S
C2805 H2829 0.949 . S
H2806 C2810 0.949 . S
C2807 C2808 1.349 . S
C2807 C2809 1.327 . S
C2807 H2830 0.950 . S
C2808 C2807 1.349 . S
C2808 C2820 1.349 . S
C2809 C2807 1.327 . S
C2809 C2825 1.429 . S
C2809 H2831 0.950 . S
C2810 H2806 0.949 . S
C2810 C2818 1.574 . S
C2810 C2826 1.368 . S
H2811 C2819 0.950 . S
H2812 C2817 0.950 . S
H2813 C2818 0.949 . S
H2814 C2820 0.950 . S
H2815 C2821 0.950 . S
H2816 C2822 0.949 . S
C2817 H2812 0.950 . S
C2817 C2819 1.327 . S
C2817 C2823 1.429 . S
C2818 C2810 1.574 . S
C2818 H2813 0.949 . S
C2818 C2824 1.368 . S
C2819 C2803 1.349 . S
C2819 H2811 0.950 . S
C2819 C2817 1.327 . S
C2820 C2808 1.349 . S
C2820 H2814 0.950 . S
C2820 C2821 1.327 . S
C2821 H2815 0.950 . S
C2821 C2820 1.327 . S
C2821 C2825 1.429 . S
C2822 C2805 1.574 . S
C2822 H2816 0.949 . S
C2822 C2826 1.368 . S
C2823 C2804 1.429 . S
C2823 C2817 1.429 . S
C2823 C2824 1.523 . S
C2824 C2805 1.368 . S
C2824 C2818 1.368 . S
C2824 C2823 1.523 . S
C2825 C2809 1.429 . S
C2825 C2821 1.429 . S
C2825 C2826 1.523 . S
C2826 C2810 1.368 . S
C2826 C2822 1.368 . S
C2826 C2825 1.523 . S
H2827 C2802 0.950 . S
H2828 C2804 0.950 . S
H2829 C2805 0.949 . S
H2830 C2807 0.950 . S
H2831 C2809 0.950 . S
C2832 C2833 1.349 . S
C2832 C2834 1.327 . S
C2832 H2857 0.950 . S
C2833 C2832 1.349 . S
C2833 C2849 1.349 . S
C2834 C2832 1.327 . S
C2834 C2853 1.429 . S
C2834 H2858 0.950 . S
C2835 C2852 1.574 . S
C2835 C2854 1.368 . S
C2835 H2859 0.949 . S
H2836 C2840 0.949 . S
C2837 C2838 1.349 . S
C2837 C2839 1.327 . S
C2837 H2860 0.950 . S
C2838 C2837 1.349 . S
C2838 C2850 1.349 . S
C2839 C2837 1.327 . S
C2839 C2855 1.429 . S
C2839 H2861 0.950 . S
C2840 H2836 0.949 . S
C2840 C2848 1.574 . S
C2840 C2856 1.368 . S
H2841 C2849 0.950 . S
H2842 C2847 0.950 . S
H2843 C2848 0.949 . S
H2844 C2850 0.950 . S
H2845 C2851 0.950 . S
H2846 C2852 0.949 . S
C2847 H2842 0.950 . S
C2847 C2849 1.327 . S
C2847 C2853 1.429 . S
C2848 C2840 1.574 . S
C2848 H2843 0.949 . S
C2848 C2854 1.368 . S
C2849 C2833 1.349 . S
C2849 H2841 0.950 . S
C2849 C2847 1.327 . S
C2850 C2838 1.349 . S
C2850 H2844 0.950 . S
C2850 C2851 1.327 . S
C2851 H2845 0.950 . S
C2851 C2850 1.327 . S
C2851 C2855 1.429 . S
C2852 C2835 1.574 . S
C2852 H2846 0.949 . S
C2852 C2856 1.368 . S
C2853 C2834 1.429 . S
C2853 C2847 1.429 . S
C2853 C2854 1.523 . S
C2854 C2835 1.368 . S
C2854 C2848 1.368 . S
C2854 C2853 1.523 . S
C2855 C2839 1.429 . S
C2855 C2851 1.429 . S
C2855 C2856 1.523 . S
C2856 C2840 1.368 . S
C2856 C2852 1.368 . S
C2856 C2855 1.523 . S
H2857 C2832 0.950 . S
H2858 C2834 0.950 . S
H2859 C2835 0.949 . S
H2860 C2837 0.950 . S
H2861 C2839 0.950 . S
C2862 C2863 1.349 . S
C2862 C2864 1.327 . S
C2862 H2887 0.950 . S
C2863 C2862 1.349 . S
C2863 C2879 1.349 . S
C2864 C2862 1.327 . S
C2864 C2883 1.429 . S
C2864 H2888 0.950 . S
C2865 C2882 1.574 . S
C2865 C2884 1.368 . S
C2865 H2889 0.949 . S
H2866 C2870 0.949 . S
C2867 C2868 1.349 . S
C2867 C2869 1.327 . S
C2867 H2890 0.950 . S
C2868 C2867 1.349 . S
C2868 C2880 1.349 . S
C2869 C2867 1.327 . S
C2869 C2885 1.429 . S
C2869 H2891 0.950 . S
C2870 H2866 0.949 . S
C2870 C2878 1.574 . S
C2870 C2886 1.368 . S
H2871 C2879 0.950 . S
H2872 C2877 0.950 . S
H2873 C2878 0.949 . S
H2874 C2880 0.950 . S
H2875 C2881 0.950 . S
H2876 C2882 0.949 . S
C2877 H2872 0.950 . S
C2877 C2879 1.327 . S
C2877 C2883 1.429 . S
C2878 C2870 1.574 . S
C2878 H2873 0.949 . S
C2878 C2884 1.368 . S
C2879 C2863 1.349 . S
C2879 H2871 0.950 . S
C2879 C2877 1.327 . S
C2880 C2868 1.349 . S
C2880 H2874 0.950 . S
C2880 C2881 1.327 . S
C2881 H2875 0.950 . S
C2881 C2880 1.327 . S
C2881 C2885 1.429 . S
C2882 C2865 1.574 . S
C2882 H2876 0.949 . S
C2882 C2886 1.368 . S
C2883 C2864 1.429 . S
C2883 C2877 1.429 . S
C2883 C2884 1.523 . S
C2884 C2865 1.368 . S
C2884 C2878 1.368 . S
C2884 C2883 1.523 . S
C2885 C2869 1.429 . S
C2885 C2881 1.429 . S
C2885 C2886 1.523 . S
C2886 C2870 1.368 . S
C2886 C2882 1.368 . S
C2886 C2885 1.523 . S
H2887 C2862 0.950 . S
H2888 C2864 0.950 . S
H2889 C2865 0.949 . S
H2890 C2867 0.950 . S
H2891 C2869 0.950 . S
C2892 C2893 1.349 . S
C2892 C2894 1.327 . S
C2892 H2917 0.950 . S
C2893 C2892 1.349 . S
C2893 C2909 1.349 . S
C2894 C2892 1.327 . S
C2894 C2913 1.429 . S
C2894 H2918 0.950 . S
C2895 C2912 1.574 . S
C2895 C2914 1.368 . S
C2895 H2919 0.949 . S
H2896 C2900 0.949 . S
C2897 C2898 1.349 . S
C2897 C2899 1.327 . S
C2897 H2920 0.950 . S
C2898 C2897 1.349 . S
C2898 C2910 1.349 . S
C2899 C2897 1.327 . S
C2899 C2915 1.429 . S
C2899 H2921 0.950 . S
C2900 H2896 0.949 . S
C2900 C2908 1.574 . S
C2900 C2916 1.368 . S
H2901 C2909 0.950 . S
H2902 C2907 0.950 . S
H2903 C2908 0.949 . S
H2904 C2910 0.950 . S
H2905 C2911 0.950 . S
H2906 C2912 0.949 . S
C2907 H2902 0.950 . S
C2907 C2909 1.327 . S
C2907 C2913 1.429 . S
C2908 C2900 1.574 . S
C2908 H2903 0.949 . S
C2908 C2914 1.368 . S
C2909 C2893 1.349 . S
C2909 H2901 0.950 . S
C2909 C2907 1.327 . S
C2910 C2898 1.349 . S
C2910 H2904 0.950 . S
C2910 C2911 1.327 . S
C2911 H2905 0.950 . S
C2911 C2910 1.327 . S
C2911 C2915 1.429 . S
C2912 C2895 1.574 . S
C2912 H2906 0.949 . S
C2912 C2916 1.368 . S
C2913 C2894 1.429 . S
C2913 C2907 1.429 . S
C2913 C2914 1.523 . S
C2914 C2895 1.368 . S
C2914 C2908 1.368 . S
C2914 C2913 1.523 . S
C2915 C2899 1.429 . S
C2915 C2911 1.429 . S
C2915 C2916 1.523 . S
C2916 C2900 1.368 . S
C2916 C2912 1.368 . S
C2916 C2915 1.523 . S
H2917 C2892 0.950 . S
H2918 C2894 0.950 . S
H2919 C2895 0.949 . S
H2920 C2897 0.950 . S
H2921 C2899 0.950 . S
C2922 C2923 1.349 . S
C2922 C2924 1.327 . S
C2922 H2947 0.950 . S
C2923 C2922 1.349 . S
C2923 C2939 1.349 . S
C2924 C2922 1.327 . S
C2924 C2943 1.429 . S
C2924 H2948 0.950 . S
C2925 C2942 1.574 . S
C2925 C2944 1.368 . S
C2925 H2949 0.949 . S
H2926 C2930 0.949 . S
C2927 C2928 1.349 . S
C2927 C2929 1.327 . S
C2927 H2950 0.950 . S
C2928 C2927 1.349 . S
C2928 C2940 1.349 . S
C2929 C2927 1.327 . S
C2929 C2945 1.429 . S
C2929 H2951 0.950 . S
C2930 H2926 0.949 . S
C2930 C2938 1.574 . S
C2930 C2946 1.368 . S
H2931 C2939 0.950 . S
H2932 C2937 0.950 . S
H2933 C2938 0.949 . S
H2934 C2940 0.950 . S
H2935 C2941 0.950 . S
H2936 C2942 0.949 . S
C2937 H2932 0.950 . S
C2937 C2939 1.327 . S
C2937 C2943 1.429 . S
C2938 C2930 1.574 . S
C2938 H2933 0.949 . S
C2938 C2944 1.368 . S
C2939 C2923 1.349 . S
C2939 H2931 0.950 . S
C2939 C2937 1.327 . S
C2940 C2928 1.349 . S
C2940 H2934 0.950 . S
C2940 C2941 1.327 . S
C2941 H2935 0.950 . S
C2941 C2940 1.327 . S
C2941 C2945 1.429 . S
C2942 C2925 1.574 . S
C2942 H2936 0.949 . S
C2942 C2946 1.368 . S
C2943 C2924 1.429 . S
C2943 C2937 1.429 . S
C2943 C2944 1.523 . S
C2944 C2925 1.368 . S
C2944 C2938 1.368 . S
C2944 C2943 1.523 . S
C2945 C2929 1.429 . S
C2945 C2941 1.429 . S
C2945 C2946 1.523 . S
C2946 C2930 1.368 . S
C2946 C2942 1.368 . S
C2946 C2945 1.523 . S
H2947 C2922 0.950 . S
H2948 C2924 0.950 . S
H2949 C2925 0.949 . S
H2950 C2927 0.950 . S
H2951 C2929 0.950 . S
C2952 C2953 1.349 . S
C2952 C2954 1.327 . S
C2952 H2977 0.950 . S
C2953 C2952 1.349 . S
C2953 C2969 1.349 . S
C2954 C2952 1.327 . S
C2954 C2973 1.429 . S
C2954 H2978 0.950 . S
C2955 C2972 1.574 . S
C2955 C2974 1.368 . S
C2955 H2979 0.949 . S
H2956 C2960 0.949 . S
C2957 C2958 1.349 . S
C2957 C2959 1.327 . S
C2957 H2980 0.950 . S
C2958 C2957 1.349 . S
C2958 C2970 1.349 . S
C2959 C2957 1.327 . S
C2959 C2975 1.429 . S
C2959 H2981 0.950 . S
C2960 H2956 0.949 . S
C2960 C2968 1.574 . S
C2960 C2976 1.368 . S
H2961 C2969 0.950 . S
H2962 C2967 0.950 . S
H2963 C2968 0.949 . S
H2964 C2970 0.950 . S
H2965 C2971 0.950 . S
H2966 C2972 0.949 . S
C2967 H2962 0.950 . S
C2967 C2969 1.327 . S
C2967 C2973 1.429 . S
C2968 C2960 1.574 . S
C2968 H2963 0.949 . S
C2968 C2974 1.368 . S
C2969 C2953 1.349 . S
C2969 H2961 0.950 . S
C2969 C2967 1.327 . S
C2970 C2958 1.349 . S
C2970 H2964 0.950 . S
C2970 C2971 1.327 . S
C2971 H2965 0.950 . S
C2971 C2970 1.327 . S
C2971 C2975 1.429 . S
C2972 C2955 1.574 . S
C2972 H2966 0.949 . S
C2972 C2976 1.368 . S
C2973 C2954 1.429 . S
C2973 C2967 1.429 . S
C2973 C2974 1.523 . S
C2974 C2955 1.368 . S
C2974 C2968 1.368 . S
C2974 C2973 1.523 . S
C2975 C2959 1.429 . S
C2975 C2971 1.429 . S
C2975 C2976 1.523 . S
C2976 C2960 1.368 . S
C2976 C2972 1.368 . S
C2976 C2975 1.523 . S
H2977 C2952 0.950 . S
H2978 C2954 0.950 . S
H2979 C2955 0.949 . S
H2980 C2957 0.950 . S
H2981 C2959 0.950 . S
C2982 C2983 1.349 . S
C2982 C2984 1.327 . S
C2982 H3007 0.950 . S
C2983 C2982 1.349 . S
C2983 C2999 1.349 . S
C2984 C2982 1.327 . S
C2984 C3003 1.429 . S
C2984 H3008 0.950 . S
C2985 C3002 1.574 . S
C2985 C3004 1.368 . S
C2985 H3009 0.949 . S
H2986 C2990 0.949 . S
C2987 C2988 1.349 . S
C2987 C2989 1.327 . S
C2987 H3010 0.950 . S
C2988 C2987 1.349 . S
C2988 C3000 1.349 . S
C2989 C2987 1.327 . S
C2989 C3005 1.429 . S
C2989 H3011 0.950 . S
C2990 H2986 0.949 . S
C2990 C2998 1.574 . S
C2990 C3006 1.368 . S
H2991 C2999 0.950 . S
H2992 C2997 0.950 . S
H2993 C2998 0.949 . S
H2994 C3000 0.950 . S
H2995 C3001 0.950 . S
H2996 C3002 0.949 . S
C2997 H2992 0.950 . S
C2997 C2999 1.327 . S
C2997 C3003 1.429 . S
C2998 C2990 1.574 . S
C2998 H2993 0.949 . S
C2998 C3004 1.368 . S
C2999 C2983 1.349 . S
C2999 H2991 0.950 . S
C2999 C2997 1.327 . S
C3000 C2988 1.349 . S
C3000 H2994 0.950 . S
C3000 C3001 1.327 . S
C3001 H2995 0.950 . S
C3001 C3000 1.327 . S
C3001 C3005 1.429 . S
C3002 C2985 1.574 . S
C3002 H2996 0.949 . S
C3002 C3006 1.368 . S
C3003 C2984 1.429 . S
C3003 C2997 1.429 . S
C3003 C3004 1.523 . S
C3004 C2985 1.368 . S
C3004 C2998 1.368 . S
C3004 C3003 1.523 . S
C3005 C2989 1.429 . S
C3005 C3001 1.429 . S
C3005 C3006 1.523 . S
C3006 C2990 1.368 . S
C3006 C3002 1.368 . S
C3006 C3005 1.523 . S
H3007 C2982 0.950 . S
H3008 C2984 0.950 . S
H3009 C2985 0.949 . S
H3010 C2987 0.950 . S
H3011 C2989 0.950 . S
C3012 C3013 1.349 . S
C3012 C3014 1.327 . S
C3012 H3037 0.950 . S
C3013 C3012 1.349 . S
C3013 C3029 1.349 . S
C3014 C3012 1.327 . S
C3014 C3033 1.429 . S
C3014 H3038 0.950 . S
C3015 C3032 1.574 . S
C3015 C3034 1.368 . S
C3015 H3039 0.949 . S
H3016 C3020 0.949 . S
C3017 C3018 1.349 . S
C3017 C3019 1.327 . S
C3017 H3040 0.950 . S
C3018 C3017 1.349 . S
C3018 C3030 1.349 . S
C3019 C3017 1.327 . S
C3019 C3035 1.429 . S
C3019 H3041 0.950 . S
C3020 H3016 0.949 . S
C3020 C3028 1.574 . S
C3020 C3036 1.368 . S
H3021 C3029 0.950 . S
H3022 C3027 0.950 . S
H3023 C3028 0.949 . S
H3024 C3030 0.950 . S
H3025 C3031 0.950 . S
H3026 C3032 0.949 . S
C3027 H3022 0.950 . S
C3027 C3029 1.327 . S
C3027 C3033 1.429 . S
C3028 C3020 1.574 . S
C3028 H3023 0.949 . S
C3028 C3034 1.368 . S
C3029 C3013 1.349 . S
C3029 H3021 0.950 . S
C3029 C3027 1.327 . S
C3030 C3018 1.349 . S
C3030 H3024 0.950 . S
C3030 C3031 1.327 . S
C3031 H3025 0.950 . S
C3031 C3030 1.327 . S
C3031 C3035 1.429 . S
C3032 C3015 1.574 . S
C3032 H3026 0.949 . S
C3032 C3036 1.368 . S
C3033 C3014 1.429 . S
C3033 C3027 1.429 . S
C3033 C3034 1.523 . S
C3034 C3015 1.368 . S
C3034 C3028 1.368 . S
C3034 C3033 1.523 . S
C3035 C3019 1.429 . S
C3035 C3031 1.429 . S
C3035 C3036 1.523 . S
C3036 C3020 1.368 . S
C3036 C3032 1.368 . S
C3036 C3035 1.523 . S
H3037 C3012 0.950 . S
H3038 C3014 0.950 . S
H3039 C3015 0.949 . S
H3040 C3017 0.950 . S
H3041 C3019 0.950 . S
C3042 C3043 1.349 . S
C3042 C3044 1.327 . S
C3042 H3067 0.950 . S
C3043 C3042 1.349 . S
C3043 C3059 1.349 . S
C3044 C3042 1.327 . S
C3044 C3063 1.429 . S
C3044 H3068 0.950 . S
C3045 C3062 1.574 . S
C3045 C3064 1.368 . S
C3045 H3069 0.949 . S
H3046 C3050 0.949 . S
C3047 C3048 1.349 . S
C3047 C3049 1.327 . S
C3047 H3070 0.950 . S
C3048 C3047 1.349 . S
C3048 C3060 1.349 . S
C3049 C3047 1.327 . S
C3049 C3065 1.429 . S
C3049 H3071 0.950 . S
C3050 H3046 0.949 . S
C3050 C3058 1.574 . S
C3050 C3066 1.368 . S
H3051 C3059 0.950 . S
H3052 C3057 0.950 . S
H3053 C3058 0.949 . S
H3054 C3060 0.950 . S
H3055 C3061 0.950 . S
H3056 C3062 0.949 . S
C3057 H3052 0.950 . S
C3057 C3059 1.327 . S
C3057 C3063 1.429 . S
C3058 C3050 1.574 . S
C3058 H3053 0.949 . S
C3058 C3064 1.368 . S
C3059 C3043 1.349 . S
C3059 H3051 0.950 . S
C3059 C3057 1.327 . S
C3060 C3048 1.349 . S
C3060 H3054 0.950 . S
C3060 C3061 1.327 . S
C3061 H3055 0.950 . S
C3061 C3060 1.327 . S
C3061 C3065 1.429 . S
C3062 C3045 1.574 . S
C3062 H3056 0.949 . S
C3062 C3066 1.368 . S
C3063 C3044 1.429 . S
C3063 C3057 1.429 . S
C3063 C3064 1.523 . S
C3064 C3045 1.368 . S
C3064 C3058 1.368 . S
C3064 C3063 1.523 . S
C3065 C3049 1.429 . S
C3065 C3061 1.429 . S
C3065 C3066 1.523 . S
C3066 C3050 1.368 . S
C3066 C3062 1.368 . S
C3066 C3065 1.523 . S
H3067 C3042 0.950 . S
H3068 C3044 0.950 . S
H3069 C3045 0.949 . S
H3070 C3047 0.950 . S
H3071 C3049 0.950 . S
C1153 C974 1.262 . S
C1158 C4 1.241 . S
C1183 C40 1.240 1_655 S
C1188 C290 1.262 . S
C1213 C902 1.262 . S
C1218 C76 1.240 . S
C1243 C112 1.241 . S
C1248 C362 1.262 . S
C1273 C148 1.241 . S
C1278 C1046 1.262 . S
C1303 C184 1.241 . S
C1308 C506 1.262 . S
C1333 C220 1.240 . S
C1338 C1118 1.262 . S
C1363 C256 1.241 1_655 S
C1368 C434 1.262 . S
C1393 C686 1.181 . S
C1398 C291 1.184 . S
C1423 C2 1.181 . S
C1428 C327 1.184 1_455 S
C1453 C614 1.181 . S
C1458 C363 1.184 . S
C1483 C399 1.184 . S
C1488 C74 1.181 . S
C1513 C758 1.181 . S
C1518 C435 1.184 . S
C1543 C218 1.181 . S
C1548 C471 1.184 . S
C1573 C507 1.184 . S
C1578 C830 1.181 . S
C1603 C146 1.181 . S
C1608 C543 1.184 1_455 S
C1633 C580 1.241 . S
C1638 C398 1.262 . S
C1663 C616 1.240 . S
C1668 C866 1.262 . S
C1693 C326 1.262 . S
C1698 C652 1.241 . S
C1723 C938 1.262 . S
C1728 C688 1.240 1_455 S
C1753 C470 1.262 . S
C1758 C724 1.240 . S
C1783 C1082 1.262 . S
C1788 C760 1.241 1_455 S
C1813 C542 1.262 . S
C1818 C796 1.241 . S
C1843 C832 1.241 . S
C1848 C1010 1.262 . S
C1873 C110 1.181 . S
C1878 C867 1.184 . S
C1903 C903 1.184 . S
C1908 C578 1.181 . S
C1933 C939 1.184 . S
C1938 C38 1.181 . S
C1963 C975 1.184 1_655 S
C1968 C650 1.181 . S
C1993 C1011 1.184 . S
C1998 C182 1.181 . S
C2023 C1047 1.184 1_655 S
C2028 C794 1.181 . S
C2053 C1083 1.184 . S
C2058 C254 1.181 . S
C2083 C1119 1.184 . S
C2088 C722 1.181 . S
C2113 C878 1.488 . S
C2118 C14 1.448 . S
C2143 C50 1.448 . S
C2148 C338 1.488 . S
C2173 C950 1.488 . S
C2178 C86 1.448 . S
C2203 C122 1.448 . S
C2208 C410 1.488 . S
C2233 C1022 1.488 . S
C2238 C158 1.448 . S
C2263 C194 1.448 . S
C2268 C482 1.488 . S
C2293 C1094 1.488 . S
C2298 C230 1.448 . S
C2323 C266 1.448 . S
C2328 C554 1.488 . S
C2353 C302 1.488 . S
C2358 C590 1.448 . S
C2383 C374 1.488 . S
C2388 C662 1.448 . S
C2413 C446 1.488 . S
C2418 C734 1.448 . S
C2443 C518 1.488 . S
C2448 C806 1.448 . S
C2473 C626 1.448 . S
C2478 C914 1.488 . S
C2503 C986 1.488 . S
C2508 C698 1.448 . S
C2533 C1058 1.488 . S
C2538 C770 1.448 . S
C2563 C842 1.448 . S
C2568 C1130 1.488 . S
C2593 C3 1.482 . S
C2598 C183 1.482 . S
C2623 C39 1.482 . S
C2628 C219 1.482 . S
C2653 C75 1.482 . S
C2658 C255 1.482 . S
C2683 C147 1.482 . S
C2688 C111 1.482 . S
C2713 C292 1.314 . S
C2718 C472 1.314 . S
C2743 C328 1.314 . S
C2748 C508 1.314 . S
C2773 C364 1.314 . S
C2778 C544 1.314 . S
C2803 C400 1.314 . S
C2808 C436 1.314 . S
C2833 C579 1.482 . S
C2838 C759 1.482 . S
C2863 C795 1.482 . S
C2868 C615 1.482 . S
C2893 C651 1.482 . S
C2898 C831 1.482 . S
C2923 C687 1.482 . S
C2928 C723 1.482 . S
C2953 C1048 1.314 . S
C2958 C868 1.314 . S
C2983 C904 1.314 . S
C2988 C1084 1.314 . S
C3013 C1120 1.314 . S
C3018 C940 1.314 . S
C3043 C976 1.314 . S
C3048 C1012 1.314 . S
