# Generated by pormake.
# Topology utk, (3)-cn, num edge types: 1
# Building blocks:
#     Node 0, Type 0, BuildingBlock: OLANEW_clean_sbu_2, # of connection points: 3
#     Node 1, Type 0, BuildingBlock: OLANEW_clean_sbu_2, # of connection points: 3
#     Node 2, Type 0, BuildingBlock: OLANEW_clean_sbu_2, # of connection points: 3
#     Node 3, Type 0, BuildingBlock: OLANEW_clean_sbu_2, # of connection points: 3
#     Node 4, Type 0, BuildingBlock: OLANEW_clean_sbu_2, # of connection points: 3
#     Node 5, Type 0, BuildingBlock: OLANEW_clean_sbu_2, # of connection points: 3
#     Node 6, Type 0, BuildingBlock: OLANEW_clean_sbu_2, # of connection points: 3
#     Node 7, Type 0, BuildingBlock: OLANEW_clean_sbu_2, # of connection points: 3
#     Edge 8, Type (0, 0), BuildingBlock: CIFDUS_clean_linker_0, # of connection points: 2
#     Edge 9, Type (0, 0), BuildingBlock: CIFDUS_clean_linker_0, # of connection points: 2
#     Edge 10, Type (0, 0), BuildingBlock: CIFDUS_clean_linker_0, # of connection points: 2
#     Edge 11, Type (0, 0), BuildingBlock: CIFDUS_clean_linker_0, # of connection points: 2
#     Edge 12, Type (0, 0), BuildingBlock: CIFDUS_clean_linker_0, # of connection points: 2
#     Edge 13, Type (0, 0), BuildingBlock: CIFDUS_clean_linker_0, # of connection points: 2
#     Edge 14, Type (0, 0), BuildingBlock: CIFDUS_clean_linker_0, # of connection points: 2
#     Edge 15, Type (0, 0), BuildingBlock: CIFDUS_clean_linker_0, # of connection points: 2
#     Edge 16, Type (0, 0), BuildingBlock: CIFDUS_clean_linker_0, # of connection points: 2
#     Edge 17, Type (0, 0), BuildingBlock: CIFDUS_clean_linker_0, # of connection points: 2
#     Edge 18, Type (0, 0), BuildingBlock: CIFDUS_clean_linker_0, # of connection points: 2
#     Edge 19, Type (0, 0), BuildingBlock: CIFDUS_clean_linker_0, # of connection points: 2
# Relax obj value: 0.000
# Max RMSD: 0.037
# Mean RMSD: 0.037
data_MOF--net-utk--node1-OLANEW_clean_sbu_2--edge1-CIFDUS_clean_linker_0
_symmetry_space_group_name_H-M    P1
_symmetry_Int_Tables_number       1
_symmetry_cell_setting            triclinic
loop_
_symmetry_equiv_pos_as_xyz
'x, y, z'
_cell_length_a     39.76188
_cell_length_b     39.940209
_cell_length_c     28.353434
_cell_angle_alpha  91.1251
_cell_angle_beta   89.537964
_cell_angle_gamma 89.798499
loop_
_atom_site_label
_atom_site_type_symbol
_atom_site_fract_x
_atom_site_fract_y
_atom_site_fract_z
_atom_type_partial_charge
O0 O 0.14724 0.37743 0.19336 0.0
Cd1 Cd 0.1562 0.31849 0.17159 0.0
O2 O 0.10025 0.36794 0.23218 0.0
Cd3 Cd 0.09227 0.31881 0.19895 0.0
O4 O 0.05713 0.29449 0.15028 0.0
C5 C 0.063 0.29431 0.10613 0.0
O6 O 0.09192 0.30591 0.0909 0.0
C7 C 0.12355 0.38787 0.22024 0.0
C8 C 0.19241 0.28732 0.2426 0.0
O9 O 0.20722 0.30477 0.21126 0.0
O10 O 0.16042 0.28403 0.24011 0.0
O11 O 0.6008 0.14326 0.43994 0.0
Cd12 Cd 0.65939 0.15065 0.41536 0.0
O13 O 0.60833 0.09308 0.4688 0.0
Cd14 Cd 0.65668 0.08467 0.43324 0.0
O15 O 0.67978 0.05077 0.38069 0.0
C16 C 0.68304 0.02027 0.39189 0.0
O17 O 0.67542 0.01172 0.4352 0.0
C18 C 0.58954 0.11838 0.46237 0.0
C19 C 0.69457 0.18568 0.48547 0.0
O20 O 0.67564 0.20095 0.45648 0.0
O21 O 0.69733 0.15378 0.48116 0.0
O22 O 0.83542 0.59098 0.68321 0.0
Cd23 Cd 0.82386 0.64847 0.65969 0.0
O24 O 0.88459 0.60256 0.71437 0.0
Cd25 Cd 0.88871 0.65058 0.67919 0.0
O26 O 0.91622 0.67525 0.62261 0.0
C27 C 0.90566 0.67247 0.58053 0.0
O28 O 0.87673 0.65757 0.57296 0.0
C29 C 0.86092 0.5819 0.70656 0.0
C30 C 0.78734 0.68193 0.73097 0.0
O31 O 0.77282 0.6624 0.70116 0.0
O32 O 0.81916 0.68614 0.72684 0.0
O33 O 0.37746 0.84642 0.95393 0.0
Cd34 Cd 0.31743 0.84831 0.9355 0.0
O35 O 0.37542 0.89841 0.98098 0.0
Cd36 Cd 0.32784 0.91013 0.94686 0.0
O37 O 0.3053 0.93575 0.88739 0.0
C38 C 0.30424 0.92073 0.8475 0.0
O39 O 0.31392 0.88927 0.84441 0.0
C40 C 0.39152 0.87106 0.97482 0.0
C41 C 0.27934 0.815 0.0032 0.0
O42 O 0.28733 0.80053 0.96392 0.0
O43 O 0.2892 0.84516 0.0104 0.0
O44 O 0.13688 0.60881 0.23019 0.0
Cd45 Cd 0.12417 0.6688 0.2336 0.0
O46 O 0.09849 0.59551 0.28301 0.0
Cd47 Cd 0.08033 0.64539 0.30387 0.0
O48 O 0.04466 0.66942 0.35311 0.0
C49 C 0.01348 0.66667 0.34431 0.0
O50 O 0.00445 0.65248 0.30418 0.0
C51 C 0.12138 0.58677 0.25366 0.0
C52 C 0.16155 0.70306 0.16603 0.0
O53 O 0.17106 0.70241 0.20909 0.0
O54 O 0.13438 0.68775 0.155 0.0
O55 O 0.37169 0.15642 0.50511 0.0
Cd56 Cd 0.3123 0.16094 0.52758 0.0
O57 O 0.38445 0.11529 0.55253 0.0
Cd58 Cd 0.3352 0.10805 0.58547 0.0
O59 O 0.30979 0.08245 0.64314 0.0
C60 C 0.30686 0.0508 0.63995 0.0
O61 O 0.31639 0.03545 0.60063 0.0
C62 C 0.3932 0.1362 0.52155 0.0
C63 C 0.27471 0.18752 0.45419 0.0
O64 O 0.29189 0.20646 0.48179 0.0
O65 O 0.27496 0.15593 0.46135 0.0
O66 O 0.84081 0.36293 0.74042 0.0
Cd67 Cd 0.84157 0.30327 0.7583 0.0
O68 O 0.88272 0.37824 0.78642 0.0
Cd69 Cd 0.89803 0.32937 0.8125 0.0
O70 O 0.93672 0.30546 0.85497 0.0
C71 C 0.93128 0.29845 0.89789 0.0
O72 O 0.9009 0.30292 0.91554 0.0
C73 C 0.85962 0.38569 0.75766 0.0
C74 C 0.80956 0.26615 0.68716 0.0
O75 O 0.79259 0.28201 0.7191 0.0
O76 O 0.84172 0.26749 0.68889 0.0
O77 O 0.60839 0.82309 -0.00032 0.0
Cd78 Cd 0.66836 0.8187 0.01743 0.0
O79 O 0.5989 0.86665 0.0469 0.0
Cd80 Cd 0.64963 0.87581 0.07316 0.0
O81 O 0.67591 0.90935 0.1223 0.0
C82 C 0.67901 0.90118 0.16515 0.0
O83 O 0.66922 0.87124 0.17776 0.0
C84 C 0.58819 0.84454 0.01789 0.0
C85 C 0.70462 0.78975 0.94211 0.0
O86 O 0.68792 0.77169 0.97082 0.0
O87 O 0.70434 0.82157 0.94892 0.0
H88 H 0.16147 0.43965 0.1883 0.0
H89 H 0.08142 0.41644 0.28604 0.0
H90 H 0.07516 0.47567 0.30674 0.0
H91 H 0.0901 0.5341 0.29409 0.0
H92 H 0.16886 0.55805 0.19471 0.0
H93 H 0.178 0.49843 0.17791 0.0
C94 C 0.14288 0.4475 0.21448 0.0
C95 C 0.12186 0.42357 0.23542 0.0
C96 C 0.13903 0.48175 0.22576 0.0
C97 C 0.09783 0.43426 0.26916 0.0
C98 C 0.0942 0.46817 0.28103 0.0
C99 C 0.10946 0.52638 0.26895 0.0
C100 C 0.12864 0.55063 0.24555 0.0
C101 C 0.1143 0.49214 0.25904 0.0
C102 C 0.15363 0.54 0.21315 0.0
C103 C 0.15886 0.50588 0.20348 0.0
H104 H 0.53903 0.16112 0.43912 0.0
H105 H 0.56042 0.07472 0.52316 0.0
H106 H 0.50172 0.07268 0.54864 0.0
H107 H 0.44429 0.09484 0.54638 0.0
H108 H 0.42234 0.18051 0.46115 0.0
H109 H 0.48129 0.18324 0.43667 0.0
C110 C 0.53091 0.14197 0.46325 0.0
C111 C 0.55417 0.11817 0.47927 0.0
C112 C 0.49698 0.14065 0.47733 0.0
C113 C 0.5431 0.09334 0.51021 0.0
C114 C 0.50951 0.09212 0.52479 0.0
C115 C 0.45232 0.11413 0.52241 0.0
C116 C 0.42882 0.13743 0.50567 0.0
C117 C 0.48621 0.11553 0.50838 0.0
C118 C 0.43979 0.16219 0.47455 0.0
C119 C 0.47355 0.16383 0.46059 0.0
H120 H 0.82113 0.52884 0.683 0.0
H121 H 0.90772 0.55622 0.76601 0.0
H122 H 0.91454 0.49817 0.7895 0.0
H123 H 0.8969 0.43954 0.78504 0.0
H124 H 0.81104 0.41169 0.70081 0.0
H125 H 0.80308 0.47006 0.67921 0.0
C126 C 0.84136 0.52218 0.70649 0.0
C127 C 0.86386 0.54693 0.7227 0.0
C128 C 0.84542 0.48864 0.71945 0.0
C129 C 0.89006 0.53774 0.75291 0.0
C130 C 0.89402 0.50452 0.76635 0.0
C131 C 0.87638 0.44616 0.762 0.0
C132 C 0.85465 0.42114 0.74455 0.0
C133 C 0.87202 0.47973 0.74954 0.0
C134 C 0.82823 0.43033 0.7147 0.0
C135 C 0.82361 0.46375 0.70235 0.0
H136 H 0.53969 0.88799 0.04835 0.0
H137 H 0.55497 0.79952 0.96075 0.0
H138 H 0.49512 0.79883 0.94159 0.0
H139 H 0.43858 0.82423 0.94838 0.0
H140 H 0.42442 0.91351 0.03473 0.0
H141 H 0.48367 0.91274 0.05595 0.0
C142 C 0.53003 0.86848 0.02508 0.0
C143 C 0.55192 0.84389 0.00597 0.0
C144 C 0.4957 0.8683 0.01408 0.0
C145 C 0.53878 0.81884 0.97589 0.0
C146 C 0.50452 0.81838 0.96497 0.0
C147 C 0.44841 0.84333 0.97217 0.0
C148 C 0.42703 0.86888 -0.01008 0.0
C149 C 0.48275 0.84307 -0.01626 0.0
C150 C 0.44027 0.8936 0.02042 0.0
C151 C 0.47419 0.89323 0.03257 0.0
H152 H 0.17697 0.23152 0.29175 0.0
H153 H 0.25122 0.30942 0.27974 0.0
H154 H 0.28266 0.28604 0.34514 0.0
H155 H 0.28895 0.24363 0.40607 0.0
H156 H 0.21753 0.16293 0.41409 0.0
H157 H 0.18507 0.18709 0.34999 0.0
C158 C 0.20003 0.24331 0.30354 0.0
C159 C 0.21168 0.27224 0.28121 0.0
C160 C 0.21844 0.22924 0.34043 0.0
C161 C 0.24181 0.28707 0.29633 0.0
C162 C 0.25974 0.27379 0.33379 0.0
C163 C 0.26622 0.23142 0.39381 0.0
C164 C 0.25542 0.20176 0.41497 0.0
C165 C 0.24826 0.24494 0.35617 0.0
C166 C 0.22629 0.18582 0.39829 0.0
C167 C 0.20771 0.19965 0.36173 0.0
H168 H 0.75426 0.17018 0.52593 0.0
H169 H 0.67413 0.24326 0.5296 0.0
H170 H 0.702 0.27393 0.5936 0.0
H171 H 0.74917 0.28 0.6486 0.0
H172 H 0.83192 0.21005 0.64025 0.0
H173 H 0.80316 0.17811 0.57805 0.0
C174 C 0.74295 0.1928 0.54087 0.0
C175 C 0.71211 0.20436 0.52339 0.0
C176 C 0.7596 0.21083 0.57677 0.0
C177 C 0.69791 0.23394 0.54246 0.0
C178 C 0.71377 0.25143 0.57912 0.0
C179 C 0.76081 0.2577 0.6332 0.0
C180 C 0.79242 0.24716 0.64918 0.0
C181 C 0.7446 0.2401 0.59658 0.0
C182 C 0.80756 0.21859 0.62845 0.0
C183 C 0.79111 0.20032 0.59299 0.0
H184 H 0.80168 0.74046 0.7771 0.0
H185 H 0.72939 0.66024 0.77136 0.0
H186 H 0.69789 0.68605 0.83698 0.0
H187 H 0.69108 0.73119 0.89647 0.0
H188 H 0.7606 0.81381 0.89836 0.0
H189 H 0.79297 0.78743 0.8338 0.0
C190 C 0.77903 0.72869 0.7903 0.0
C191 C 0.76797 0.6984 0.76968 0.0
C192 C 0.76058 0.7441 0.82732 0.0
C193 C 0.73835 0.68361 0.78661 0.0
C194 C 0.72038 0.69829 0.8242 0.0
C195 C 0.71336 0.74336 0.88274 0.0
C196 C 0.72365 0.77422 0.90233 0.0
C197 C 0.7313 0.72848 0.8449 0.0
C198 C 0.75221 0.79003 0.88378 0.0
C199 C 0.77075 0.77493 0.84697 0.0
H200 H 0.23683 0.76267 -0.01035 0.0
H201 H 0.27719 0.82809 0.09783 0.0
H202 H 0.24509 0.79865 0.15803 0.0
H203 H 0.20542 0.75427 0.17995 0.0
H204 H 0.16202 0.69151 0.07106 0.0
H205 H 0.19534 0.7199 0.01116 0.0
C206 C 0.23862 0.7704 0.02643 0.0
C207 C 0.25948 0.79736 0.03933 0.0
C208 C 0.21951 0.75385 0.06071 0.0
C209 C 0.26125 0.80743 0.08702 0.0
C210 C 0.24296 0.79057 0.12146 0.0
C211 C 0.20334 0.7468 0.1431 0.0
C212 C 0.18145 0.72072 0.12996 0.0
C213 C 0.22201 0.76374 0.10873 0.0
C214 C 0.17865 0.71157 0.08205 0.0
C215 C 0.19774 0.72774 0.04779 0.0
H216 H 0.06685 0.29224 0.01021 0.0
H217 H -0.00268 0.27972 0.12622 0.0
H218 H 0.95054 0.27641 0.0712 0.0
H219 H 0.92874 0.2834 -0.00884 0.0
H220 H -0.00174 0.2966 0.8753 0.0
H221 H 0.04555 0.29291 0.9292 0.0
C222 C 0.04153 0.28831 0.02346 0.0
C223 C 0.03562 0.28674 0.07237 0.0
C224 C 0.01463 0.28681 -0.00835 0.0
C225 C 0.00265 0.28126 0.08881 0.0
C226 C 0.97581 0.27949 0.05735 0.0
C227 C 0.95424 0.285 0.97754 0.0
C228 C 0.95983 0.29078 0.92931 0.0
C229 C 0.98139 0.28323 0.00884 0.0
C230 C -0.00689 0.29242 0.91228 0.0
C231 C 0.02024 0.29042 0.94313 0.0
H232 H 0.69344 0.02851 0.29752 0.0
H233 H 0.68735 0.9528 0.40388 0.0
H234 H 0.68928 0.90897 0.34289 0.0
H235 H 0.68629 0.89231 0.25937 0.0
H236 H 0.69127 0.96786 0.15275 0.0
H237 H 0.69665 0.01139 0.2138 0.0
C238 C 0.69306 0.00242 0.30743 0.0
C239 C 0.68975 -0.00596 0.35525 0.0
C240 C 0.69372 0.97723 0.27208 0.0
C241 C 0.68957 0.96006 0.36738 0.0
C242 C 0.69059 0.93491 0.33249 0.0
C243 C 0.68903 0.91823 0.24939 0.0
C244 C 0.68787 0.92677 0.20153 0.0
C245 C 0.69165 0.94323 0.2847 0.0
C246 C 0.69183 0.96052 0.1893 0.0
C247 C 0.69479 0.9855 0.22424 0.0
H248 H 0.89168 0.66727 0.48693 0.0
H249 H 0.9704 0.69545 0.58373 0.0
H250 H 0.01011 0.69982 0.51808 0.0
H251 H 0.02399 0.6893 0.43443 0.0
H252 H 0.94538 0.65986 0.33812 0.0
H253 H 0.9042 0.66273 0.40223 0.0
C254 C 0.91739 0.67484 0.49367 0.0
C255 C 0.9281 0.68053 0.54032 0.0
C256 C 0.94027 0.67683 0.45582 0.0
C257 C 0.96147 0.69066 0.54826 0.0
C258 C 0.98427 0.69306 0.51071 0.0
C259 C -0.00224 0.68401 0.42728 0.0
C260 C 0.98795 0.67389 0.38159 0.0
C261 C 0.9742 0.68522 0.46451 0.0
C262 C 0.95377 0.66741 0.37297 0.0
C263 C 0.93015 0.66895 0.40968 0.0
H264 H 0.29136 -0.01243 0.84041 0.0
H265 H 0.30275 0.89666 0.75676 0.0
H266 H 0.30082 0.92886 0.68463 0.0
H267 H 0.30219 0.98311 0.64574 0.0
H268 H 0.29248 0.07421 0.7293 0.0
H269 H 0.28703 0.04158 0.80085 0.0
C270 C 0.29291 0.97471 0.80642 0.0
C271 C 0.29766 0.93976 0.80412 0.0
C272 C 0.29235 -0.00656 0.76498 0.0
C273 C 0.29939 0.92355 0.75968 0.0
C274 C 0.29837 0.94196 0.71833 0.0
C275 C 0.29841 -0.00413 0.67949 0.0
C276 C 0.29822 0.0311 0.68212 0.0
C277 C 0.29585 0.97698 0.72062 0.0
C278 C 0.29298 0.04714 0.72619 0.0
C279 C 0.28997 0.02849 0.76721 0.0
loop_
_geom_bond_atom_site_label_1
_geom_bond_atom_site_label_2
_geom_bond_distance
_geom_bond_site_symmetry_2
_ccdc_geom_bond_type
O0 Cd1 2.300 . S
O0 C7 1.275 . S
Cd1 O0 2.300 . S
Cd1 O9 2.381 . S
Cd1 O10 2.378 . S
O2 Cd3 2.385 . S
O2 C7 1.255 . S
Cd3 O2 2.385 . S
Cd3 O4 2.317 . S
O4 Cd3 2.317 . S
O4 C5 1.232 . S
C5 O4 1.232 . S
C5 O6 1.218 . S
O6 C5 1.218 . S
C7 O0 1.275 . S
C7 O2 1.255 . S
C8 O9 1.258 . S
C8 O10 1.256 . S
O9 Cd1 2.381 . S
O9 C8 1.258 . S
O10 Cd1 2.378 . S
O10 C8 1.256 . S
O11 Cd12 2.300 . S
O11 C18 1.275 . S
Cd12 O11 2.300 . S
Cd12 O20 2.381 . S
Cd12 O21 2.378 . S
O13 Cd14 2.385 . S
O13 C18 1.255 . S
Cd14 O13 2.385 . S
Cd14 O15 2.317 . S
O15 Cd14 2.317 . S
O15 C16 1.232 . S
C16 O15 1.232 . S
C16 O17 1.218 . S
O17 C16 1.218 . S
C18 O11 1.275 . S
C18 O13 1.255 . S
C19 O20 1.258 . S
C19 O21 1.256 . S
O20 Cd12 2.381 . S
O20 C19 1.258 . S
O21 Cd12 2.378 . S
O21 C19 1.256 . S
O22 Cd23 2.300 . S
O22 C29 1.275 . S
Cd23 O22 2.300 . S
Cd23 O31 2.381 . S
Cd23 O32 2.378 . S
O24 Cd25 2.385 . S
O24 C29 1.255 . S
Cd25 O24 2.385 . S
Cd25 O26 2.317 . S
O26 Cd25 2.317 . S
O26 C27 1.232 . S
C27 O26 1.232 . S
C27 O28 1.218 . S
O28 C27 1.218 . S
C29 O22 1.275 . S
C29 O24 1.255 . S
C30 O31 1.258 . S
C30 O32 1.256 . S
O31 Cd23 2.381 . S
O31 C30 1.258 . S
O32 Cd23 2.378 . S
O32 C30 1.256 . S
O33 Cd34 2.300 . S
O33 C40 1.275 1_554 S
Cd34 O33 2.300 . S
Cd34 O42 2.381 . S
Cd34 O43 2.378 . S
O35 Cd36 2.385 . S
O35 C40 1.255 . S
Cd36 O35 2.385 . S
Cd36 O37 2.317 . S
O37 Cd36 2.317 . S
O37 C38 1.232 . S
C38 O37 1.232 . S
C38 O39 1.218 . S
O39 C38 1.218 . S
C40 O33 1.275 1_556 S
C40 O35 1.255 . S
C41 O42 1.258 . S
C41 O43 1.256 . S
O42 Cd34 2.381 . S
O42 C41 1.258 . S
O43 Cd34 2.378 . S
O43 C41 1.256 . S
O44 Cd45 2.300 . S
O44 C51 1.275 . S
Cd45 O44 2.300 . S
Cd45 O53 2.381 . S
Cd45 O54 2.378 . S
O46 Cd47 2.385 . S
O46 C51 1.255 . S
Cd47 O46 2.385 . S
Cd47 O48 2.317 . S
O48 Cd47 2.317 . S
O48 C49 1.232 . S
C49 O48 1.232 . S
C49 O50 1.218 . S
O50 C49 1.218 . S
C51 O44 1.275 . S
C51 O46 1.255 . S
C52 O53 1.258 . S
C52 O54 1.256 . S
O53 Cd45 2.381 . S
O53 C52 1.258 . S
O54 Cd45 2.378 . S
O54 C52 1.256 . S
O55 Cd56 2.300 . S
O55 C62 1.275 . S
Cd56 O55 2.300 . S
Cd56 O64 2.381 . S
Cd56 O65 2.378 . S
O57 Cd58 2.385 . S
O57 C62 1.255 . S
Cd58 O57 2.385 . S
Cd58 O59 2.317 . S
O59 Cd58 2.317 . S
O59 C60 1.232 . S
C60 O59 1.232 . S
C60 O61 1.218 . S
O61 C60 1.218 . S
C62 O55 1.275 . S
C62 O57 1.255 . S
C63 O64 1.258 . S
C63 O65 1.256 . S
O64 Cd56 2.381 . S
O64 C63 1.258 . S
O65 Cd56 2.378 . S
O65 C63 1.256 . S
O66 Cd67 2.300 . S
O66 C73 1.275 . S
Cd67 O66 2.300 . S
Cd67 O75 2.381 . S
Cd67 O76 2.378 . S
O68 Cd69 2.385 . S
O68 C73 1.255 . S
Cd69 O68 2.385 . S
Cd69 O70 2.317 . S
O70 Cd69 2.317 . S
O70 C71 1.232 . S
C71 O70 1.232 . S
C71 O72 1.218 . S
O72 C71 1.218 . S
C73 O66 1.275 . S
C73 O68 1.255 . S
C74 O75 1.258 . S
C74 O76 1.256 . S
O75 Cd67 2.381 . S
O75 C74 1.258 . S
O76 Cd67 2.378 . S
O76 C74 1.256 . S
O77 Cd78 2.300 . S
O77 C84 1.275 1_556 S
Cd78 O77 2.300 . S
Cd78 O86 2.381 . S
Cd78 O87 2.378 . S
O79 Cd80 2.385 . S
O79 C84 1.255 . S
Cd80 O79 2.385 . S
Cd80 O81 2.317 . S
O81 Cd80 2.317 . S
O81 C82 1.232 . S
C82 O81 1.232 . S
C82 O83 1.218 . S
O83 C82 1.218 . S
C84 O77 1.275 1_554 S
C84 O79 1.255 . S
C85 O86 1.258 . S
C85 O87 1.256 . S
O86 Cd78 2.381 . S
O86 C85 1.258 . S
O87 Cd78 2.378 . S
O87 C85 1.256 . S
H88 C94 0.930 . S
H89 C97 0.930 . S
H90 C98 0.930 . S
H91 C99 0.930 . S
H92 C102 0.930 . S
H93 C103 0.930 . S
C94 H88 0.930 . S
C94 C95 1.355 . S
C94 C96 1.415 . S
C95 C94 1.355 . S
C95 C97 1.419 . S
C96 C94 1.415 . S
C96 C101 1.425 . S
C96 C103 1.409 . S
C97 H89 0.930 . S
C97 C95 1.419 . S
C97 C98 1.362 . S
C98 H90 0.930 . S
C98 C97 1.362 . S
C98 C101 1.409 . S
C99 H91 0.930 . S
C99 C100 1.355 . S
C99 C101 1.415 . S
C100 C99 1.355 . S
C100 C102 1.419 . S
C101 C96 1.425 . S
C101 C98 1.409 . S
C101 C99 1.415 . S
C102 H92 0.930 . S
C102 C100 1.419 . S
C102 C103 1.362 . S
C103 H93 0.930 . S
C103 C96 1.409 . S
C103 C102 1.362 . S
H104 C110 0.930 . S
H105 C113 0.930 . S
H106 C114 0.930 . S
H107 C115 0.930 . S
H108 C118 0.930 . S
H109 C119 0.930 . S
C110 H104 0.930 . S
C110 C111 1.355 . S
C110 C112 1.415 . S
C111 C110 1.355 . S
C111 C113 1.419 . S
C112 C110 1.415 . S
C112 C117 1.425 . S
C112 C119 1.409 . S
C113 H105 0.930 . S
C113 C111 1.419 . S
C113 C114 1.362 . S
C114 H106 0.930 . S
C114 C113 1.362 . S
C114 C117 1.409 . S
C115 H107 0.930 . S
C115 C116 1.355 . S
C115 C117 1.415 . S
C116 C115 1.355 . S
C116 C118 1.419 . S
C117 C112 1.425 . S
C117 C114 1.409 . S
C117 C115 1.415 . S
C118 H108 0.930 . S
C118 C116 1.419 . S
C118 C119 1.362 . S
C119 H109 0.930 . S
C119 C112 1.409 . S
C119 C118 1.362 . S
H120 C126 0.930 . S
H121 C129 0.930 . S
H122 C130 0.930 . S
H123 C131 0.930 . S
H124 C134 0.930 . S
H125 C135 0.930 . S
C126 H120 0.930 . S
C126 C127 1.355 . S
C126 C128 1.415 . S
C127 C126 1.355 . S
C127 C129 1.419 . S
C128 C126 1.415 . S
C128 C133 1.425 . S
C128 C135 1.409 . S
C129 H121 0.930 . S
C129 C127 1.419 . S
C129 C130 1.362 . S
C130 H122 0.930 . S
C130 C129 1.362 . S
C130 C133 1.409 . S
C131 H123 0.930 . S
C131 C132 1.355 . S
C131 C133 1.415 . S
C132 C131 1.355 . S
C132 C134 1.419 . S
C133 C128 1.425 . S
C133 C130 1.409 . S
C133 C131 1.415 . S
C134 H124 0.930 . S
C134 C132 1.419 . S
C134 C135 1.362 . S
C135 H125 0.930 . S
C135 C128 1.409 . S
C135 C134 1.362 . S
H136 C142 0.930 . S
H137 C145 0.930 . S
H138 C146 0.930 . S
H139 C147 0.930 . S
H140 C150 0.930 . S
H141 C151 0.930 . S
C142 H136 0.930 . S
C142 C143 1.355 . S
C142 C144 1.415 . S
C143 C142 1.355 . S
C143 C145 1.419 1_554 S
C144 C142 1.415 . S
C144 C149 1.425 1_554 S
C144 C151 1.409 . S
C145 H137 0.930 . S
C145 C143 1.419 1_556 S
C145 C146 1.362 . S
C146 H138 0.930 . S
C146 C145 1.362 . S
C146 C149 1.409 . S
C147 H139 0.930 . S
C147 C148 1.355 . S
C147 C149 1.415 . S
C148 C147 1.355 . S
C148 C150 1.419 1_556 S
C149 C144 1.425 1_556 S
C149 C146 1.409 . S
C149 C147 1.415 . S
C150 H140 0.930 . S
C150 C148 1.419 1_554 S
C150 C151 1.362 . S
C151 H141 0.930 . S
C151 C144 1.409 . S
C151 C150 1.362 . S
H152 C158 0.930 . S
H153 C161 0.930 . S
H154 C162 0.930 . S
H155 C163 0.930 . S
H156 C166 0.930 . S
H157 C167 0.930 . S
C158 H152 0.930 . S
C158 C159 1.355 . S
C158 C160 1.415 . S
C159 C158 1.355 . S
C159 C161 1.419 . S
C160 C158 1.415 . S
C160 C165 1.425 . S
C160 C167 1.409 . S
C161 H153 0.930 . S
C161 C159 1.419 . S
C161 C162 1.362 . S
C162 H154 0.930 . S
C162 C161 1.362 . S
C162 C165 1.409 . S
C163 H155 0.930 . S
C163 C164 1.355 . S
C163 C165 1.415 . S
C164 C163 1.355 . S
C164 C166 1.419 . S
C165 C160 1.425 . S
C165 C162 1.409 . S
C165 C163 1.415 . S
C166 H156 0.930 . S
C166 C164 1.419 . S
C166 C167 1.362 . S
C167 H157 0.930 . S
C167 C160 1.409 . S
C167 C166 1.362 . S
H168 C174 0.930 . S
H169 C177 0.930 . S
H170 C178 0.930 . S
H171 C179 0.930 . S
H172 C182 0.930 . S
H173 C183 0.930 . S
C174 H168 0.930 . S
C174 C175 1.355 . S
C174 C176 1.415 . S
C175 C174 1.355 . S
C175 C177 1.419 . S
C176 C174 1.415 . S
C176 C181 1.425 . S
C176 C183 1.409 . S
C177 H169 0.930 . S
C177 C175 1.419 . S
C177 C178 1.362 . S
C178 H170 0.930 . S
C178 C177 1.362 . S
C178 C181 1.409 . S
C179 H171 0.930 . S
C179 C180 1.355 . S
C179 C181 1.415 . S
C180 C179 1.355 . S
C180 C182 1.419 . S
C181 C176 1.425 . S
C181 C178 1.409 . S
C181 C179 1.415 . S
C182 H172 0.930 . S
C182 C180 1.419 . S
C182 C183 1.362 . S
C183 H173 0.930 . S
C183 C176 1.409 . S
C183 C182 1.362 . S
H184 C190 0.930 . S
H185 C193 0.930 . S
H186 C194 0.930 . S
H187 C195 0.930 . S
H188 C198 0.930 . S
H189 C199 0.930 . S
C190 H184 0.930 . S
C190 C191 1.355 . S
C190 C192 1.415 . S
C191 C190 1.355 . S
C191 C193 1.419 . S
C192 C190 1.415 . S
C192 C197 1.425 . S
C192 C199 1.409 . S
C193 H185 0.930 . S
C193 C191 1.419 . S
C193 C194 1.362 . S
C194 H186 0.930 . S
C194 C193 1.362 . S
C194 C197 1.409 . S
C195 H187 0.930 . S
C195 C196 1.355 . S
C195 C197 1.415 . S
C196 C195 1.355 . S
C196 C198 1.419 . S
C197 C192 1.425 . S
C197 C194 1.409 . S
C197 C195 1.415 . S
C198 H188 0.930 . S
C198 C196 1.419 . S
C198 C199 1.362 . S
C199 H189 0.930 . S
C199 C192 1.409 . S
C199 C198 1.362 . S
H200 C206 0.930 . S
H201 C209 0.930 . S
H202 C210 0.930 . S
H203 C211 0.930 . S
H204 C214 0.930 . S
H205 C215 0.930 . S
C206 H200 0.930 . S
C206 C207 1.355 . S
C206 C208 1.415 . S
C207 C206 1.355 . S
C207 C209 1.419 . S
C208 C206 1.415 . S
C208 C213 1.425 . S
C208 C215 1.409 . S
C209 H201 0.930 . S
C209 C207 1.419 . S
C209 C210 1.362 . S
C210 H202 0.930 . S
C210 C209 1.362 . S
C210 C213 1.409 . S
C211 H203 0.930 . S
C211 C212 1.355 . S
C211 C213 1.415 . S
C212 C211 1.355 . S
C212 C214 1.419 . S
C213 C208 1.425 . S
C213 C210 1.409 . S
C213 C211 1.415 . S
C214 H204 0.930 . S
C214 C212 1.419 . S
C214 C215 1.362 . S
C215 H205 0.930 . S
C215 C208 1.409 . S
C215 C214 1.362 . S
H216 C222 0.930 . S
H217 C225 0.930 . S
H218 C226 0.930 . S
H219 C227 0.930 . S
H220 C230 0.930 . S
H221 C231 0.930 . S
C222 H216 0.930 . S
C222 C223 1.355 . S
C222 C224 1.415 1_554 S
C223 C222 1.355 . S
C223 C225 1.419 1_455 S
C224 C222 1.415 1_556 S
C224 C229 1.425 1_456 S
C224 C231 1.409 . S
C225 H217 0.930 . S
C225 C223 1.419 1_655 S
C225 C226 1.362 . S
C226 H218 0.930 . S
C226 C225 1.362 . S
C226 C229 1.409 . S
C227 H219 0.930 . S
C227 C228 1.355 . S
C227 C229 1.415 1_556 S
C228 C227 1.355 . S
C228 C230 1.419 1_655 S
C229 C224 1.425 1_654 S
C229 C226 1.409 . S
C229 C227 1.415 1_554 S
C230 H220 0.930 . S
C230 C228 1.419 1_455 S
C230 C231 1.362 . S
C231 H221 0.930 . S
C231 C224 1.409 . S
C231 C230 1.362 . S
H232 C238 0.930 . S
H233 C241 0.930 . S
H234 C242 0.930 . S
H235 C243 0.930 . S
H236 C246 0.930 . S
H237 C247 0.930 . S
C238 H232 0.930 . S
C238 C239 1.355 . S
C238 C240 1.415 . S
C239 C238 1.355 . S
C239 C241 1.419 . S
C240 C238 1.415 . S
C240 C245 1.425 1_545 S
C240 C247 1.409 . S
C241 H233 0.930 . S
C241 C239 1.419 . S
C241 C242 1.362 1_545 S
C242 H234 0.930 . S
C242 C241 1.362 1_565 S
C242 C245 1.409 . S
C243 H235 0.930 . S
C243 C244 1.355 . S
C243 C245 1.415 . S
C244 C243 1.355 . S
C244 C246 1.419 . S
C245 C240 1.425 1_565 S
C245 C242 1.409 . S
C245 C243 1.415 . S
C246 H236 0.930 . S
C246 C244 1.419 . S
C246 C247 1.362 1_565 S
C247 H237 0.930 . S
C247 C240 1.409 . S
C247 C246 1.362 1_545 S
H248 C254 0.930 . S
H249 C257 0.925 1_455 S
H250 C258 0.930 . S
H251 C259 0.930 . S
H252 C262 0.925 1_655 S
H253 C263 0.930 . S
C254 H248 0.930 . S
C254 C255 1.355 . S
C254 C256 1.415 . S
C255 C254 1.355 . S
C255 C257 1.444 . S
C256 C254 1.415 . S
C256 C261 1.425 1_655 S
C256 C263 1.409 . S
C257 H249 0.925 1_655 S
C257 C255 1.444 . S
C257 C258 1.343 1_655 S
C258 H250 0.930 . S
C258 C257 1.343 1_455 S
C258 C261 1.409 . S
C259 H251 0.930 . S
C259 C260 1.355 . S
C259 C261 1.415 . S
C260 C259 1.355 . S
C260 C262 1.444 . S
C261 C256 1.425 1_455 S
C261 C258 1.409 . S
C261 C259 1.415 . S
C262 H252 0.925 1_455 S
C262 C260 1.444 . S
C262 C263 1.343 1_455 S
C263 H253 0.930 . S
C263 C256 1.409 . S
C263 C262 1.343 1_655 S
H264 C270 0.930 . S
H265 C273 0.930 . S
H266 C274 0.930 . S
H267 C275 0.930 . S
H268 C278 0.930 . S
H269 C279 0.930 . S
C270 H264 0.930 . S
C270 C271 1.355 . S
C270 C272 1.415 . S
C271 C270 1.355 . S
C271 C273 1.419 . S
C272 C270 1.415 . S
C272 C277 1.425 1_565 S
C272 C279 1.409 1_565 S
C273 H265 0.930 . S
C273 C271 1.419 . S
C273 C274 1.362 . S
C274 H266 0.930 . S
C274 C273 1.362 . S
C274 C277 1.409 1_565 S
C275 H267 0.930 . S
C275 C276 1.355 . S
C275 C277 1.415 . S
C276 C275 1.355 . S
C276 C278 1.419 . S
C277 C272 1.425 1_545 S
C277 C274 1.409 1_545 S
C277 C275 1.415 . S
C278 H268 0.930 . S
C278 C276 1.419 . S
C278 C279 1.362 . S
C279 H269 0.930 . S
C279 C272 1.409 1_545 S
C279 C278 1.362 . S
C95 C7 1.484 . S
C100 C51 1.486 . S
C111 C18 1.458 . S
C116 C62 1.459 . S
C127 C29 1.459 . S
C132 C73 1.458 . S
C143 C84 1.462 . S
C148 C40 1.461 . S
C159 C8 1.512 . S
C164 C63 1.507 . S
C175 C19 1.503 . S
C180 C74 1.499 . S
C191 C30 1.511 . S
C196 C85 1.506 . S
C207 C41 1.498 . S
C212 C52 1.499 . S
C223 C5 1.290 . S
C228 C71 1.309 . S
C239 C16 1.319 . S
C244 C82 1.347 . S
C255 C27 1.296 . S
C260 C49 1.285 . S
C271 C38 1.350 . S
C276 C60 1.376 . S
