# Generated by pormake.
# Topology smu, (6)-cn, num edge types: 1
# Building blocks:
#     Node 0, Type 0, BuildingBlock: INOVEN_clean_sbu_0, # of connection points: 6
#     Node 1, Type 0, BuildingBlock: INOVEN_clean_sbu_0, # of connection points: 6
#     Node 2, Type 0, BuildingBlock: INOVEN_clean_sbu_0, # of connection points: 6
#     Node 3, Type 0, BuildingBlock: INOVEN_clean_sbu_0, # of connection points: 6
#     Node 4, Type 0, BuildingBlock: INOVEN_clean_sbu_0, # of connection points: 6
#     Node 5, Type 0, BuildingBlock: INOVEN_clean_sbu_0, # of connection points: 6
#     Edge 6, Type (0, 0), BuildingBlock: ZUJKAS_clean_linker_0, # of connection points: 2
#     Edge 7, Type (0, 0), BuildingBlock: ZUJKAS_clean_linker_0, # of connection points: 2
#     Edge 8, Type (0, 0), BuildingBlock: ZUJKAS_clean_linker_0, # of connection points: 2
#     Edge 9, Type (0, 0), BuildingBlock: ZUJKAS_clean_linker_0, # of connection points: 2
#     Edge 10, Type (0, 0), BuildingBlock: ZUJKAS_clean_linker_0, # of connection points: 2
#     Edge 11, Type (0, 0), BuildingBlock: ZUJKAS_clean_linker_0, # of connection points: 2
#     Edge 12, Type (0, 0), BuildingBlock: ZUJKAS_clean_linker_0, # of connection points: 2
#     Edge 13, Type (0, 0), BuildingBlock: ZUJKAS_clean_linker_0, # of connection points: 2
#     Edge 14, Type (0, 0), BuildingBlock: ZUJKAS_clean_linker_0, # of connection points: 2
#     Edge 15, Type (0, 0), BuildingBlock: ZUJKAS_clean_linker_0, # of connection points: 2
#     Edge 16, Type (0, 0), BuildingBlock: ZUJKAS_clean_linker_0, # of connection points: 2
#     Edge 17, Type (0, 0), BuildingBlock: ZUJKAS_clean_linker_0, # of connection points: 2
#     Edge 18, Type (0, 0), BuildingBlock: ZUJKAS_clean_linker_0, # of connection points: 2
#     Edge 19, Type (0, 0), BuildingBlock: ZUJKAS_clean_linker_0, # of connection points: 2
#     Edge 20, Type (0, 0), BuildingBlock: ZUJKAS_clean_linker_0, # of connection points: 2
#     Edge 21, Type (0, 0), BuildingBlock: ZUJKAS_clean_linker_0, # of connection points: 2
#     Edge 22, Type (0, 0), BuildingBlock: ZUJKAS_clean_linker_0, # of connection points: 2
#     Edge 23, Type (0, 0), BuildingBlock: ZUJKAS_clean_linker_0, # of connection points: 2
# Relax obj value: 0.208
# Max RMSD: 0.300
# Mean RMSD: 0.300
data_MOF--net-smu--node1-INOVEN_clean_sbu_0--edge1-ZUJKAS_clean_linker_0
_symmetry_space_group_name_H-M    P1
_symmetry_Int_Tables_number       1
_symmetry_cell_setting            triclinic
loop_
_symmetry_equiv_pos_as_xyz
'x, y, z'
_cell_length_a     47.79559
_cell_length_b     47.732943
_cell_length_c     33.463438
_cell_angle_alpha  90.614037
_cell_angle_beta   90.188461
_cell_angle_gamma 120.01976
loop_
_atom_site_label
_atom_site_type_symbol
_atom_site_fract_x
_atom_site_fract_y
_atom_site_fract_z
_atom_type_partial_charge
Gd0 Gd 0.37961 0.10383 0.30366 0.0
Gd1 Gd 0.33694 0.13279 0.32127 0.0
C2 C 0.41352 0.17912 0.32032 0.0
C3 C 0.41574 0.08103 0.27888 0.0
C4 C 0.45125 0.0953 0.27878 0.0
C5 C 0.46501 0.07535 0.27857 0.0
C6 C 0.47168 0.12901 0.28083 0.0
C7 C 0.51927 0.12271 0.28295 0.0
C8 C 0.50526 0.14256 0.28283 0.0
C9 C 0.49868 0.08889 0.28061 0.0
C10 C 0.37044 0.1103 0.3831 0.0
C11 C 0.30097 0.05722 0.30474 0.0
C12 C 0.30954 0.16415 0.34777 0.0
C13 C 0.28194 0.16873 0.33935 0.0
C14 C 0.26706 0.16172 0.30147 0.0
C15 C 0.27213 0.18292 0.36883 0.0
C16 C 0.23389 0.18478 0.32219 0.0
C17 C 0.24834 0.19087 0.36039 0.0
C18 C 0.24323 0.16973 0.29294 0.0
C19 C 0.33856 0.11891 0.24311 0.0
O20 O 0.41541 0.15705 0.2984 0.0
O21 O 0.3869 0.17168 0.33986 0.0
O22 O 0.4024 0.07492 0.31409 0.0
O23 O 0.40402 0.0944 0.25529 0.0
O24 O 0.39779 0.1164 0.36777 0.0
O25 O 0.34979 0.1017 0.35546 0.0
O26 O 0.29887 0.08098 0.32242 0.0
O27 O 0.32896 0.06078 0.29208 0.0
O28 O 0.33245 0.1755 0.32111 0.0
O29 O 0.30333 0.13615 0.36195 0.0
O30 O 0.31432 0.11902 0.26012 0.0
O31 O 0.36228 0.13024 0.26729 0.0
H32 H 0.44971 0.04927 0.27716 0.0
H33 H 0.46171 0.14496 0.28138 0.0
H34 H 0.5202 0.16863 0.28521 0.0
H35 H 0.50857 0.07285 0.28018 0.0
H36 H 0.2744 0.15078 0.2783 0.0
H37 H 0.28357 0.18873 0.39811 0.0
H38 H 0.24209 0.20283 0.38345 0.0
H39 H 0.23231 0.16438 0.2634 0.0
Gd40 Gd 0.74944 0.66122 0.30766 0.0
Gd41 Gd 0.82097 0.70199 0.32745 0.0
C42 C 0.78915 0.62513 0.31686 0.0
C43 C 0.69037 0.62696 0.2825 0.0
C44 C 0.66675 0.59192 0.28621 0.0
C45 C 0.66131 0.57637 0.32321 0.0
C46 C 0.65143 0.57315 0.25191 0.0
C47 C 0.62628 0.52385 0.29132 0.0
C48 C 0.63148 0.5395 0.25439 0.0
C49 C 0.64119 0.54279 0.32574 0.0
C50 C 0.76422 0.66389 0.38724 0.0
C51 C 0.78172 0.73875 0.32088 0.0
C52 C 0.87975 0.727 0.35417 0.0
C53 C 0.91285 0.75334 0.34691 0.0
C54 C 0.92095 0.77139 0.31172 0.0
C55 C 0.93726 0.75863 0.37436 0.0
C56 C 0.97802 0.79868 0.33074 0.0
C57 C 0.96952 0.78107 0.3664 0.0
C58 C 0.9533 0.79398 0.30375 0.0
C59 C 0.80614 0.70548 0.25031 0.0
O60 O 0.76504 0.62461 0.29712 0.0
O61 O 0.80934 0.65077 0.33824 0.0
O62 O 0.6984 0.64461 0.31527 0.0
O63 O 0.71526 0.63403 0.25998 0.0
O64 O 0.74243 0.63826 0.36848 0.0
O65 O 0.77699 0.6865 0.36268 0.0
O66 O 0.80592 0.73845 0.33971 0.0
O67 O 0.75912 0.71288 0.30118 0.0
O68 O 0.86721 0.70429 0.32663 0.0
O69 O 0.85904 0.73474 0.36856 0.0
O70 O 0.83013 0.7288 0.26968 0.0
O71 O 0.79339 0.68034 0.27136 0.0
H72 H 0.67312 0.59002 0.35017 0.0
H73 H 0.65539 0.58448 0.223 0.0
H74 H 0.62012 0.52572 0.22735 0.0
H75 H 0.63807 0.53155 0.35458 0.0
H76 H 0.90239 0.76742 0.29005 0.0
H77 H 0.93143 0.74485 0.40163 0.0
H78 H 0.98785 0.7845 0.38813 0.0
H79 H 0.95905 0.80703 0.27593 0.0
Gd80 Gd 0.93871 0.29175 0.2991 0.0
Gd81 Gd 0.91373 0.22312 0.32912 0.0
C82 C 0.86268 0.24804 0.32101 0.0
C83 C 0.95067 0.3463 0.26843 0.0
C84 C 0.93316 0.36319 0.2572 0.0
C85 C 0.95075 0.39519 0.24411 0.0
C86 C 0.90023 0.3499 0.26573 0.0
C87 C 0.90351 0.40154 0.25223 0.0
C88 C 0.88547 0.36883 0.26311 0.0
C89 C 0.93608 0.41419 0.24158 0.0
C90 C 0.95507 0.28865 0.37565 0.0
C91 C 0.98802 0.26559 0.30738 0.0
C92 C 0.88834 0.16763 0.36375 0.0
C93 C 0.88515 0.13554 0.35814 0.0
C94 C 0.88971 0.12521 0.32052 0.0
C95 C 0.87359 0.11359 0.38962 0.0
C96 C 0.86878 0.07049 0.3453 0.0
C97 C 0.86553 0.08139 0.38333 0.0
C98 C 0.88157 0.09295 0.31414 0.0
C99 C 0.92508 0.22988 0.24922 0.0
O100 O 0.88527 0.27456 0.30402 0.0
O101 O 0.86905 0.22649 0.33608 0.0
O102 O 0.9509 0.3414 0.3067 0.0
O103 O 0.94639 0.32146 0.24658 0.0
O104 O 0.97348 0.31019 0.3503 0.0
O105 O 0.92765 0.26958 0.36 0.0
O106 O 0.9674 0.24461 0.33315 0.0
O107 O 0.98041 0.28358 0.28477 0.0
O108 O 0.87332 0.17524 0.33701 0.0
O109 O 0.91683 0.19193 0.3739 0.0
O110 O 0.92759 0.20909 0.27113 0.0
O111 O 0.91345 0.24377 0.27008 0.0
H112 H 0.97627 0.40601 0.23774 0.0
H113 H 0.88638 0.32548 0.27649 0.0
H114 H 0.86044 0.35837 0.27182 0.0
H115 H 0.95054 0.43913 0.2325 0.0
H116 H 0.89851 0.1418 0.29576 0.0
H117 H 0.86957 0.12104 0.41873 0.0
H118 H 0.85543 0.06472 0.40788 0.0
H119 H 0.8848 0.08547 0.28467 0.0
Gd120 Gd 0.13254 0.33229 0.82959 0.0
Gd121 Gd 0.10432 0.37409 0.80303 0.0
C122 C 0.05753 0.29774 0.80857 0.0
C123 C 0.16062 0.30321 0.8608 0.0
C124 C 0.16457 0.27488 0.8533 0.0
C125 C 0.16026 0.26116 0.81484 0.0
C126 C 0.17618 0.26364 0.88409 0.0
C127 C 0.18107 0.22659 0.83765 0.0
C128 C 0.18429 0.23971 0.87642 0.0
C129 C 0.16847 0.23727 0.80708 0.0
C130 C 0.11965 0.32888 0.74998 0.0
C131 C 0.18111 0.4089 0.82352 0.0
C132 C 0.09048 0.41653 0.77602 0.0
C133 C 0.10755 0.4511 0.76548 0.0
C134 C 0.09077 0.46817 0.76753 0.0
C135 C 0.14103 0.46824 0.75928 0.0
C136 C 0.14106 0.51949 0.7605 0.0
C137 C 0.15768 0.50212 0.75689 0.0
C138 C 0.10727 0.50193 0.76495 0.0
C139 C 0.08957 0.35253 0.87867 0.0
O140 O 0.07932 0.29804 0.83339 0.0
O141 O 0.06351 0.3235 0.78725 0.0
O142 O 0.17416 0.32632 0.83467 0.0
O143 O 0.13224 0.29803 0.87244 0.0
O144 O 0.11822 0.30546 0.77057 0.0
O145 O 0.13081 0.35398 0.77186 0.0
O146 O 0.15745 0.41177 0.80737 0.0
O147 O 0.17616 0.38127 0.83784 0.0
O148 O 0.09207 0.41122 0.81392 0.0
O149 O 0.0936 0.396 0.75269 0.0
O150 O 0.07024 0.35514 0.8539 0.0
O151 O 0.11712 0.36259 0.86302 0.0
H152 H 0.15142 0.26957 0.79057 0.0
H153 H 0.18 0.27416 0.91386 0.0
H154 H 0.19422 0.23236 0.90059 0.0
H155 H 0.16523 0.22737 0.77704 0.0
H156 H 0.06499 0.45547 0.77289 0.0
H157 H 0.15439 0.45549 0.75759 0.0
H158 H 0.18361 0.51475 0.75291 0.0
H159 H 0.09366 0.51435 0.76838 0.0
Gd160 Gd 0.22986 0.90899 0.81872 0.0
Gd161 Gd 0.30029 0.93695 0.79753 0.0
C162 C 0.27247 0.98485 0.80851 0.0
C163 C 0.17127 0.87997 0.84514 0.0
C164 C 0.13927 0.87655 0.83796 0.0
C165 C 0.1301 0.88172 0.80005 0.0
C166 C 0.11626 0.86415 0.86832 0.0
C167 C 0.07451 0.8598 0.82236 0.0
C168 C 0.08424 0.85588 0.86067 0.0
C169 C 0.09799 0.87341 0.79231 0.0
C170 C 0.24365 0.92644 0.74101 0.0
C171 C 0.25665 0.85936 0.8112 0.0
C172 C 0.35638 0.94904 0.77169 0.0
C173 C 0.37231 0.92954 0.76589 0.0
C174 C 0.36166 0.90062 0.78683 0.0
C175 C 0.40028 0.94131 0.74276 0.0
C176 C 0.40755 0.89633 0.76325 0.0
C177 C 0.41782 0.92494 0.74153 0.0
C178 C 0.37889 0.88408 0.78527 0.0
C179 C 0.29095 0.94622 0.87484 0.0
O180 O 0.25006 0.96183 0.83068 0.0
O181 O 0.29241 0.97952 0.78623 0.0
O182 O 0.18157 0.86813 0.81713 0.0
O183 O 0.19419 0.90728 0.86061 0.0
O184 O 0.2217 0.92843 0.76124 0.0
O185 O 0.25551 0.91311 0.76207 0.0
O186 O 0.2847 0.88376 0.80019 0.0
O187 O 0.23273 0.86375 0.82213 0.0
O188 O 0.35048 0.95265 0.80884 0.0
O189 O 0.33236 0.9434 0.7477 0.0
O190 O 0.31441 0.96688 0.85317 0.0
O191 O 0.27327 0.92013 0.8553 0.0
H192 H 0.14751 0.8912 0.77612 0.0
H193 H 0.12277 0.85964 0.89763 0.0
H194 H 0.06682 0.84512 0.8844 0.0
H195 H 0.09147 0.87719 0.76266 0.0
H196 H 0.34076 0.89146 0.80585 0.0
H197 H 0.40915 0.96372 0.72667 0.0
H198 H 0.43969 0.93491 0.72406 0.0
H199 H 0.37053 0.86247 0.80289 0.0
Gd200 Gd 0.70803 0.81244 0.82076 0.0
Gd201 Gd 0.66721 0.74057 0.80147 0.0
C202 C 0.74414 0.77299 0.80325 0.0
C203 C 0.73673 0.87124 0.84822 0.0
C204 C 0.76498 0.90336 0.84136 0.0
C205 C 0.78054 0.91149 0.80427 0.0
C206 C 0.77437 0.92725 0.8712 0.0
C207 C 0.81329 0.96779 0.8263 0.0
C208 C 0.79826 0.95912 0.86381 0.0
C209 C 0.8045 0.94346 0.7968 0.0
C210 C 0.70722 0.79687 0.74226 0.0
C211 C 0.63115 0.78225 0.81736 0.0
C212 C 0.62499 0.68174 0.78028 0.0
C213 C 0.59005 0.66271 0.77134 0.0
C214 C 0.57449 0.62891 0.77305 0.0
C215 C 0.57137 0.67769 0.767 0.0
C216 C 0.52172 0.62529 0.77057 0.0
C217 C 0.53751 0.65919 0.76671 0.0
C218 C 0.54074 0.61038 0.77241 0.0
C219 C 0.692 0.75448 0.87627 0.0
O220 O 0.74415 0.79592 0.82581 0.0
O221 O 0.71751 0.75074 0.78443 0.0
O222 O 0.71441 0.86038 0.82025 0.0
O223 O 0.74179 0.84879 0.86299 0.0
O224 O 0.73159 0.82072 0.76039 0.0
O225 O 0.6836 0.7842 0.76579 0.0
O226 O 0.6282 0.75447 0.80509 0.0
O227 O 0.65927 0.80685 0.82816 0.0
O228 O 0.63201 0.69179 0.81734 0.0
O229 O 0.64378 0.70369 0.7547 0.0
O230 O 0.6905 0.73155 0.85386 0.0
O231 O 0.67996 0.76942 0.85859 0.0
H232 H 0.77353 0.89334 0.78078 0.0
H233 H 0.7624 0.92148 0.89986 0.0
H234 H 0.80402 0.97721 0.88706 0.0
H235 H 0.81587 0.94919 0.76779 0.0
H236 H 0.58845 0.61686 0.77651 0.0
H237 H 0.58296 0.70374 0.76544 0.0
H238 H 0.52381 0.67162 0.76533 0.0
H239 H 0.52956 0.58433 0.77437 0.0
H240 H 0.2412 0.93989 0.92225 0.0
H241 H 0.24754 0.96466 0.98924 0.0
H242 H 0.34813 0.99159 0.99085 0.0
H243 H 0.34199 0.96743 0.92441 0.0
H244 H 0.2763 0.95944 0.06843 0.0
H245 H 0.34603 0.07851 0.99482 0.0
H246 H 0.31992 0.04166 0.9673 0.0
H247 H 0.35918 0.04999 0.98384 0.0
C248 C 0.26425 0.94999 0.93768 0.0
C249 C 0.29105 0.95159 0.91839 0.0
C250 C 0.26797 0.96439 0.97572 0.0
C251 C 0.29849 0.98048 0.99468 0.0
C252 C 0.32451 0.97972 0.9766 0.0
H253 H 0.38502 0.1169 0.19616 0.0
H254 H 0.37573 0.08167 0.13733 0.0
C255 C 0.32088 0.96567 0.93877 0.0
C256 C 0.30433 1.00062 1.03138 0.0
H257 H 0.34544 0.07902 0.06545 0.0
C258 C 0.29124 0.98558 0.06781 0.0
C259 C 0.32405 0.03475 1.03056 0.0
C260 C 0.33794 0.05232 0.99203 0.0
C261 C 0.29782 1.00375 0.10358 0.0
C262 C 0.31752 0.03793 0.10273 0.0
C263 C 0.33057 0.05288 0.06623 0.0
C264 C 0.32355 0.05877 0.13891 0.0
C265 C 0.28414 0.98609 0.1421 0.0
C266 C 0.29749 0.05814 0.15883 0.0
C267 C 0.30277 0.07801 0.19225 0.0
C268 C 0.33428 0.09917 0.20661 0.0
C269 C 0.36051 0.10038 0.18628 0.0
C270 C 0.35518 0.08038 0.15261 0.0
H271 H 0.27834 0.96049 0.13987 0.0
H272 H 0.30126 0.99805 0.16746 0.0
H273 H 0.26142 0.98608 0.14885 0.0
H274 H 0.27296 0.04244 0.14831 0.0
H275 H 0.28196 0.07651 0.20707 0.0
H276 H 0.76261 0.81332 0.70241 0.0
H277 H 0.77001 0.78622 0.64462 0.0
H278 H 0.66773 0.7174 0.64197 0.0
H279 H 0.66002 0.74576 0.69875 0.0
H280 H 0.76033 0.72683 0.63683 0.0
H281 H 0.68192 0.74212 0.52702 0.0
H282 H 0.69293 0.76317 0.57458 0.0
H283 H 0.66104 0.7216 0.57132 0.0
C284 C 0.74157 0.79273 0.68914 0.0
C285 C 0.7107 0.78151 0.7053 0.0
C286 C 0.74589 0.77708 0.65622 0.0
C287 C 0.71946 0.74982 0.63855 0.0
C288 C 0.68848 0.73869 0.65447 0.0
H289 H 0.71399 0.62751 0.43751 0.0
H290 H 0.70292 0.64519 0.50171 0.0
C291 C 0.68411 0.75463 0.68727 0.0
C292 C 0.72482 0.73294 0.60417 0.0
H293 H 0.70365 0.7093 0.50665 0.0
C294 C 0.74787 0.723 0.60841 0.0
C295 C 0.70865 0.7279 0.56693 0.0
C296 C 0.68499 0.73952 0.55945 0.0
C297 C 0.7553 0.70848 0.57651 0.0
C298 C 0.73923 0.70361 0.53943 0.0
C299 C 0.71574 0.71285 0.5353 0.0
C300 C 0.74781 0.69086 0.50368 0.0
C301 C 0.78038 0.69853 0.58249 0.0
C302 C 0.77704 0.71036 0.48402 0.0
C303 C 0.78334 0.70044 0.44728 0.0
C304 C 0.7606 0.67073 0.42962 0.0
C305 C 0.73214 0.65039 0.45049 0.0
C306 C 0.72567 0.66053 0.48705 0.0
H307 H 0.78631 0.69844 0.61461 0.0
H308 H 0.77187 0.67406 0.56941 0.0
H309 H 0.80285 0.71577 0.56688 0.0
H310 H 0.79432 0.73397 0.49616 0.0
H311 H 0.80535 0.71671 0.43176 0.0
H312 H 0.92302 0.27187 0.19483 0.0
H313 H 0.95568 0.29272 0.13406 0.0
H314 H 1.00132 0.23637 0.15891 0.0
H315 H 0.9688 0.21538 0.21873 0.0
H316 H 1.02313 0.32742 0.12377 0.0
H317 H 0.96876 0.20849 1.04512 0.0
H318 H 0.95109 0.21511 0.0892 0.0
H319 H 0.98501 0.20873 0.09362 0.0
C320 C 0.94003 0.26401 0.1872 0.0
C321 C 0.94323 0.24194 0.21147 0.0
C322 C 0.95868 0.27591 0.15255 0.0
C323 C 0.98069 0.26578 0.14157 0.0
C324 C 0.98406 0.24401 0.16614 0.0
H325 H 0.12487 0.35838 0.94769 0.0
H326 H 0.10228 0.33707 1.01423 0.0
C327 C 0.96538 0.23203 0.20042 0.0
C328 C 1.0 0.2776 0.10436 0.0
H329 H 1.01412 0.25194 1.01487 0.0
C330 C 1.02124 0.31094 0.09996 0.0
C331 C 0.99753 0.25608 0.07327 0.0
C332 C 0.97417 0.22015 0.07524 0.0
C333 C 0.03974 0.32335 0.06515 0.0
C334 C 0.03728 0.30179 1.03413 0.0
C335 C 1.01641 0.26843 1.03888 0.0
C336 C 0.0523 0.3134 0.99431 0.0
C337 C 0.06078 0.35948 0.06114 0.0
C338 C 0.03194 0.30622 0.96097 0.0
C339 C 0.04467 0.31812 0.92354 0.0
C340 C 0.0782 0.33744 0.91817 0.0
C341 C 0.09896 0.34359 0.95104 0.0
C342 C 0.08604 0.33169 0.98902 0.0
H343 H 0.05613 0.37298 0.08498 0.0
H344 H 0.08655 0.3661 0.06311 0.0
H345 H 0.05675 0.36736 1.03162 0.0
H346 H 1.00593 0.29205 0.96409 0.0
H347 H 0.02799 0.3126 0.89874 0.0
H348 H 0.31039 0.08316 0.41519 0.0
H349 H 0.29237 0.05448 0.47837 0.0
H350 H 0.39035 0.08004 0.50724 0.0
H351 H 0.40863 0.10877 0.44371 0.0
H352 H 0.30238 1.00086 0.49851 0.0
H353 H 0.35489 0.10098 0.61145 0.0
H354 H 0.34835 0.10736 0.55993 0.0
H355 H 0.38148 0.10154 0.57309 0.0
C356 C 0.32825 0.08325 0.43529 0.0
C357 C 0.36096 0.0982 0.42436 0.0
C358 C 0.31786 0.06671 0.47134 0.0
C359 C 0.33997 0.06507 0.49753 0.0
C360 C 0.3729 0.08122 0.48763 0.0
H361 H 0.28663 0.92277 0.68982 0.0
H362 H 0.312 0.95626 0.63087 0.0
C363 C 0.38332 0.09766 0.45135 0.0
C364 C 0.32803 0.04464 0.53372 0.0
H365 H 0.32733 0.04765 0.63583 0.0
C366 C 0.30798 1.01105 0.52856 0.0
C367 C 0.33522 0.058 0.57285 0.0
C368 C 0.35598 0.09396 0.57998 0.0
C369 C 0.29479 0.9905 0.56144 0.0
C370 C 0.30195 1.00384 0.6006 0.0
C371 C 0.3221 0.03743 0.60579 0.0
C372 C 0.28714 0.98355 0.63637 0.0
C373 C 0.27253 0.95477 0.55406 0.0
C374 C 0.26496 0.98787 0.65913 0.0
C375 C 0.25046 0.96877 0.69252 0.0
C376 C 0.25816 0.94521 0.7043 0.0
C377 C 0.28042 0.94087 0.68158 0.0
C378 C 0.29478 0.95988 0.64785 0.0
H379 H 0.26503 0.94913 0.52217 0.0
H380 H 0.28513 0.94147 0.56257 0.0
H381 H 0.25056 0.94569 0.57268 0.0
H382 H 0.2587 1.00596 0.65089 0.0
H383 H 0.23356 0.97287 0.70955 0.0
H384 H 0.66449 0.75762 0.94683 0.0
H385 H 0.68188 0.75159 1.01392 0.0
H386 H 0.76768 0.75752 0.96353 0.0
H387 H 0.74931 0.76146 0.89693 0.0
H388 H 0.73843 0.70622 1.00611 0.0
H389 H 0.74674 0.80815 0.09652 0.0
H390 H 0.70794 0.78368 0.07313 0.0
H391 H 0.74303 0.80653 1.04277 0.0
C392 C 0.68759 0.75881 0.95051 0.0
C393 C 0.70589 0.76052 0.91694 0.0
C394 C 0.69754 0.7553 0.98884 0.0
C395 C 0.72625 0.75419 0.99405 0.0
C396 C 0.74542 0.75814 0.96051 0.0
H397 H 0.82772 0.76184 0.21098 0.0
H398 H 0.80623 0.77164 0.14987 0.0
C399 C 0.73513 0.76082 0.92244 0.0
C400 C 0.73505 0.74561 1.03309 0.0
H401 H 0.75106 0.7675 0.13173 0.0
C402 C 0.74128 0.71975 1.03354 0.0
C403 C 0.73883 0.76316 0.06899 0.0
C404 C 0.73409 0.79211 0.0704 0.0
C405 C 0.75191 0.71149 0.06829 0.0
C406 C 0.75518 0.72865 0.1044 0.0
C407 C 0.74834 0.75412 0.10421 0.0
C408 C 0.76769 0.72205 0.14199 0.0
C409 C 0.76083 0.68534 0.06532 0.0
C410 C 0.75334 0.69083 0.15824 0.0
C411 C 0.7662 0.685 0.19285 0.0
C412 C 0.79302 0.71043 0.21251 0.0
C413 C 0.80706 0.74165 0.19649 0.0
C414 C 0.79461 0.74736 0.16166 0.0
H415 H 0.76589 0.6814 1.034 0.0
H416 H 0.78245 0.6914 0.08395 0.0
H417 H 0.74035 0.66221 0.07587 0.0
H418 H 0.73216 0.67094 0.14423 0.0
H419 H 0.75521 0.66066 0.20411 0.0
H420 H 0.92093 0.25399 0.44201 0.0
H421 H 0.9438 0.25548 0.50896 0.0
H422 H 0.03942 0.32048 0.46535 0.0
H423 H 1.01717 0.31905 0.39959 0.0
H424 H 0.03518 0.26906 0.51055 0.0
H425 H 0.98197 0.33504 0.58817 0.0
H426 H 0.95485 0.29855 0.56094 0.0
H427 H 0.98391 0.33341 0.53437 0.0
C428 C 0.94679 0.2684 0.4469 0.0
C429 C 0.9672 0.28664 0.4157 0.0
C430 C 0.95981 0.26942 0.48509 0.0
C431 C 0.99334 0.28847 0.49226 0.0
C432 C 1.01354 0.30577 0.46068 0.0
H433 H 0.11929 0.37357 0.69882 0.0
H434 H 0.08669 0.36234 0.63732 0.0
C435 C 1.00068 0.30496 0.42303 0.0
C436 C 1.00824 0.29104 0.53223 0.0
H437 H 1.01811 0.32529 0.6253 0.0
C438 C 0.03114 0.28096 0.53584 0.0
C439 C 1.0034 0.30716 0.56491 0.0
C440 C 0.97988 0.31943 0.56216 0.0
C441 C 0.0497 0.28701 0.57086 0.0
C442 C 0.04496 0.3032 0.60356 0.0
C443 C 1.02173 0.31291 0.60023 0.0
C444 C 0.06401 0.31024 0.64132 0.0
C445 C 0.07508 0.27702 0.572 0.0
C446 C 0.06188 0.28478 0.66411 0.0
C447 C 0.08048 0.29115 0.69886 0.0
C448 C 0.10137 0.32315 0.712 0.0
C449 C 0.1033 0.34872 0.6895 0.0
C450 C 0.08467 0.3423 0.65446 0.0
H451 H 0.08128 0.27249 0.54154 0.0
H452 H 0.0975 0.29584 0.58707 0.0
H453 H 0.06575 0.2543 0.58904 0.0
H454 H 0.0457 0.25988 0.65507 0.0
H455 H 0.07807 0.27086 0.71579 0.0
H456 H 0.55345 0.10115 0.32648 0.0
H457 H 0.61211 0.12571 0.33287 0.0
H458 H 0.62516 0.2019 0.25371 0.0
H459 H 0.56653 0.17743 0.24693 0.0
H460 H 0.65754 0.13798 0.27455 0.0
H461 H 0.6823 0.25281 0.34887 0.0
H462 H 0.64212 0.21818 0.34448 0.0
H463 H 0.66031 0.24411 0.30248 0.0
C464 C 0.56874 0.12301 0.31017 0.0
C465 C 0.55512 0.13732 0.28628 0.0
C466 C 0.60233 0.13715 0.31407 0.0
C467 C 0.62313 0.16601 0.29437 0.0
C468 C 0.60967 0.18012 0.27005 0.0
H469 H 0.83467 0.27673 0.27784 0.0
H470 H 0.77687 0.25849 0.27147 0.0
C471 C 0.57608 0.16602 0.26615 0.0
C472 C 0.65884 0.18066 0.29842 0.0
H473 H 0.72789 0.24871 0.32979 0.0
C474 C 0.67287 0.16216 0.28672 0.0
C475 C 0.67895 0.21233 0.31409 0.0
C476 C 0.66521 0.23298 0.32855 0.0
C477 C 0.70635 0.1744 0.29009 0.0
C478 C 0.7264 0.20586 0.30625 0.0
C479 C 0.7125 0.22461 0.31743 0.0
C480 C 0.76165 0.21907 0.31284 0.0
C481 C 0.72004 0.15364 0.27587 0.0
C482 C 0.77238 0.20376 0.3393 0.0
C483 C 0.8053 0.2142 0.34316 0.0
C484 C 0.82839 0.24035 0.32079 0.0
C485 C 0.8177 0.2567 0.29573 0.0
C486 C 0.78461 0.24619 0.29189 0.0
H487 H 0.70319 0.13413 0.25502 0.0
H488 H 0.74347 0.16844 0.26063 0.0
H489 H 0.72429 0.14208 0.30199 0.0
H490 H 0.75517 0.18322 0.35639 0.0
H491 H 0.81253 0.20114 0.36303 0.0
H492 H 0.58114 0.48857 0.34783 0.0
H493 H 0.54829 0.42962 0.35258 0.0
H494 H 0.59189 0.41866 0.24541 0.0
H495 H 0.62519 0.47763 0.24072 0.0
H496 H 0.50367 0.38578 0.29316 0.0
H497 H 0.60185 0.35911 0.3273 0.0
H498 H 0.60687 0.399 0.33374 0.0
H499 H 0.60796 0.38408 0.28464 0.0
C500 C 0.58399 0.47365 0.32545 0.0
C501 C 0.60589 0.4879 0.29392 0.0
C502 C 0.56509 0.43994 0.32813 0.0
C503 C 0.56791 0.41969 0.29966 0.0
C504 C 0.58964 0.43377 0.26807 0.0
H505 H 0.46624 0.20828 0.27092 0.0
H506 H 0.50479 0.26647 0.2656 0.0
C507 C 0.6084 0.46751 0.26519 0.0
C508 C 0.54725 0.3839 0.30238 0.0
H509 H 0.54935 0.31419 0.3176 0.0
C510 C 0.51366 0.37013 0.29857 0.0
C511 C 0.56032 0.36346 0.30905 0.0
C512 C 0.5962 0.37704 0.31423 0.0
C513 C 0.49277 0.33655 0.30108 0.0
C514 C 0.50571 0.3161 0.30872 0.0
C515 C 0.53939 0.32981 0.31194 0.0
C516 C 0.48446 0.28058 0.3142 0.0
C517 C 0.457 0.32326 0.29477 0.0
C518 C 0.46108 0.26899 0.3443 0.0
C519 C 0.43902 0.2359 0.34729 0.0
C520 C 0.44003 0.21346 0.32056 0.0
C521 C 0.46472 0.22487 0.29194 0.0
C522 C 0.48674 0.25815 0.2888 0.0
H523 H 0.45214 0.34027 0.27778 0.0
H524 H 0.44573 0.29969 0.27844 0.0
H525 H 0.44516 0.31949 0.32425 0.0
H526 H 0.4594 0.28567 0.365 0.0
H527 H 0.4206 0.22801 0.37001 0.0
H528 H 0.8428 0.38863 0.22911 0.0
H529 H 0.81936 0.42385 0.23695 0.0
H530 H 0.90816 0.49753 0.29152 0.0
H531 H 0.93169 0.46279 0.28358 0.0
H532 H 0.80852 0.44971 0.30452 0.0
H533 H 0.8934 0.54863 0.2072 0.0
H534 H 0.89067 0.50953 0.20746 0.0
H535 H 0.91412 0.53954 0.24514 0.0
C536 C 0.85736 0.41242 0.24259 0.0
C537 C 0.8893 0.42305 0.2552 0.0
C538 C 0.84394 0.43252 0.24701 0.0
C539 C 0.8622 0.46362 0.26409 0.0
C540 C 0.8939 0.47406 0.27715 0.0
H541 H 0.83991 0.62108 0.34793 0.0
H542 H 0.8542 0.57944 0.33477 0.0
C543 C 0.90735 0.45413 0.27255 0.0
C544 C 0.84803 0.48495 0.26956 0.0
H545 H 0.86219 0.56134 0.25204 0.0
C546 C 0.81998 0.47396 0.29258 0.0
C547 C 0.86287 0.51655 0.25381 0.0
C548 C 0.89172 0.52915 0.22668 0.0
C549 C 0.80727 0.49424 0.30168 0.0
C550 C 0.82295 0.52621 0.28727 0.0
C551 C 0.85039 0.53687 0.26334 0.0
C552 C 0.81219 0.54958 0.29785 0.0
C553 C 0.77788 0.48186 0.32777 0.0
C554 C 0.78353 0.54638 0.28183 0.0
C555 C 0.77525 0.57029 0.28919 0.0
C556 C 0.79552 0.5978 0.31273 0.0
C557 C 0.82365 0.60026 0.32975 0.0
C558 C 0.83195 0.5765 0.32219 0.0
H559 H 0.77108 0.45801 0.34086 0.0
H560 H 0.7823 0.49943 0.35239 0.0
H561 H 0.75717 0.47923 0.30971 0.0
H562 H 0.7681 0.52591 0.26265 0.0
H563 H 0.75346 0.56765 0.27553 0.0
H564 H 0.12342 0.56071 0.72679 0.0
H565 H 0.14965 0.61943 0.73507 0.0
H566 H 0.22523 0.61938 0.80568 0.0
H567 H 0.19856 0.56043 0.79862 0.0
H568 H 0.20123 0.65442 0.84148 0.0
H569 H 0.22992 0.69164 0.68401 0.0
H570 H 0.18811 0.66218 0.69073 0.0
H571 H 0.21861 0.65143 0.70033 0.0
C572 C 0.1457 0.57314 0.74396 0.0
C573 C 0.15881 0.55568 0.76203 0.0
C574 C 0.1609 0.60685 0.74829 0.0
C575 C 0.18972 0.62401 0.77054 0.0
C576 C 0.20316 0.60676 0.78811 0.0
H577 H 0.29533 0.8374 0.77894 0.0
H578 H 0.2828 0.78111 0.77135 0.0
C579 C 0.18798 0.57302 0.78377 0.0
C580 C 0.20458 0.65959 0.77754 0.0
H581 H 0.23159 0.73149 0.72977 0.0
C582 C 0.2082 0.67129 0.81703 0.0
C583 C 0.2142 0.68182 0.74578 0.0
C584 C 0.21285 0.67121 0.70285 0.0
C585 C 0.21983 0.70426 0.82552 0.0
C586 C 0.22761 0.72616 0.79365 0.0
C587 C 0.22533 0.71472 0.75423 0.0
C588 C 0.23643 0.76056 0.80047 0.0
C589 C 0.22359 0.71528 0.86861 0.0
C590 C 0.21463 0.76786 0.81938 0.0
C591 C 0.22176 0.79994 0.82391 0.0
C592 C 0.25084 0.82564 0.8094 0.0
C593 C 0.27289 0.81835 0.79088 0.0
C594 C 0.26568 0.78612 0.7863 0.0
H595 H 0.22664 0.69855 0.88861 0.0
H596 H 0.24465 0.74001 0.87278 0.0
H597 H 0.20152 0.71564 0.87797 0.0
H598 H 0.19161 0.74864 0.8298 0.0
H599 H 0.20405 0.80447 0.83812 0.0
H600 H 0.47311 0.92525 0.77304 0.0
H601 H 0.50554 0.8991 0.78225 0.0
H602 H 0.41999 0.80541 0.76893 0.0
H603 H 0.38728 0.83137 0.75942 0.0
H604 H 0.49014 0.84835 0.84667 0.0
H605 H 0.49179 0.80694 0.69079 0.0
H606 H 0.48586 0.84082 0.70132 0.0
H607 H 0.45411 0.80045 0.71097 0.0
C608 C 0.46123 0.8991 0.7713 0.0
C609 C 0.42758 0.88043 0.76536 0.0
C610 C 0.47978 0.8842 0.77686 0.0
C611 C 0.46519 0.85034 0.77611 0.0
C612 C 0.43175 0.83157 0.76934 0.0
H613 H 0.56769 0.73981 0.79458 0.0
H614 H 0.52375 0.75204 0.78746 0.0
C615 C 0.4131 0.84646 0.76411 0.0
C616 C 0.48488 0.83487 0.78438 0.0
H617 H 0.52091 0.79654 0.73953 0.0
C618 C 0.49671 0.83681 0.82333 0.0
C619 C 0.49293 0.81937 0.75405 0.0
C620 C 0.48072 0.81671 0.7118 0.0
C621 C 0.51701 0.82431 0.8326 0.0
C622 C 0.52658 0.81034 0.80182 0.0
C623 C 0.51369 0.80728 0.76313 0.0
C624 C 0.55219 0.80168 0.80836 0.0
C625 C 0.528 0.82628 0.87538 0.0
C626 C 0.58277 0.82538 0.82239 0.0
C627 C 0.6077 0.81844 0.82668 0.0
C628 C 0.60302 0.78766 0.81645 0.0
C629 C 0.57224 0.76371 0.80277 0.0
C630 C 0.54709 0.77071 0.79861 0.0
H631 H 0.51009 0.82623 0.89652 0.0
H632 H 0.5319 0.80584 0.88265 0.0
H633 H 0.55107 0.84929 0.88021 0.0
H634 H 0.5877 0.84969 0.82909 0.0
H635 H 0.63101 0.83772 0.83702 0.0
H636 H 0.2054 0.46612 0.78248 0.0
H637 H 0.26239 0.50646 0.77253 0.0
H638 H 0.29065 0.45413 0.85168 0.0
H639 H 0.23408 0.41367 0.86143 0.0
H640 H 0.31499 0.54702 0.82474 0.0
H641 H 0.33575 0.45608 0.74676 0.0
H642 H 0.29578 0.44934 0.75683 0.0
H643 H 0.31869 0.44372 0.7955 0.0
C644 C 0.22366 0.46341 0.79825 0.0
C645 C 0.215 0.43632 0.82235 0.0
C646 C 0.2563 0.4865 0.79244 0.0
C647 C 0.28083 0.48288 0.81057 0.0
C648 C 0.27218 0.457 0.83658 0.0
H649 H 0.48732 0.57354 0.81932 0.0
H650 H 0.4289 0.54105 0.82668 0.0
C651 C 0.23971 0.43394 0.84228 0.0
C652 C 0.31547 0.50513 0.80121 0.0
H653 H 0.38262 0.50582 0.76505 0.0
C654 C 0.32975 0.53814 0.81132 0.0
C655 C 0.33466 0.49356 0.78337 0.0
C656 C 0.32042 0.45881 0.76959 0.0
C657 C 0.363 0.55954 0.80568 0.0
C658 C 0.38233 0.54766 0.78907 0.0
C659 C 0.36783 0.51486 0.778 0.0
C660 C 0.41792 0.56833 0.78459 0.0
C661 C 0.37747 0.59442 0.81882 0.0
C662 C 0.4313 0.59442 0.75814 0.0
C663 C 0.46491 0.61295 0.75341 0.0
C664 C 0.48582 0.60567 0.77496 0.0
C665 C 0.47214 0.57954 0.80152 0.0
C666 C 0.43866 0.56104 0.80608 0.0
H667 H 0.36066 0.59838 0.83773 0.0
H668 H 0.40031 0.60249 0.83579 0.0
H669 H 0.38323 0.60983 0.79206 0.0
H670 H 0.41574 0.60016 0.74071 0.0
H671 H 0.47446 0.63262 0.73239 0.0
H672 H 0.18524 0.18024 0.36941 0.0
H673 H 0.14933 0.20184 0.35658 0.0
H674 H 0.19256 0.23475 0.24119 0.0
H675 H 0.22912 0.21366 0.25402 0.0
H676 H 0.17241 0.27037 0.33754 0.0
H677 H 0.09186 0.18275 0.22045 0.0
H678 H 0.11505 0.17303 0.25456 0.0
H679 H 0.13495 0.20094 0.21498 0.0
C680 C 0.18717 0.19207 0.34128 0.0
C681 C 0.21016 0.19534 0.31282 0.0
C682 C 0.16656 0.20428 0.33395 0.0
C683 C 0.1683 0.21979 0.29794 0.0
C684 C 0.19065 0.22253 0.269 0.0
H685 H 0.02815 0.2839 0.2424 0.0
H686 H 0.07708 0.27953 0.23495 0.0
C687 C 0.21141 0.21035 0.27634 0.0
C688 C 0.14734 0.23403 0.29183 0.0
H689 H 0.07852 0.22105 0.24421 0.0
C690 C 0.15215 0.25993 0.31671 0.0
C691 C 0.12127 0.22063 0.26423 0.0
C692 C 0.11517 0.19271 0.23702 0.0
C693 C 0.13061 0.2718 0.31609 0.0
C694 C 0.10325 0.25695 0.29049 0.0
C695 C 0.09954 0.23238 0.26381 0.0
C696 C 0.07598 0.26309 0.29527 0.0
C697 C 0.13681 0.29953 0.34376 0.0
C698 C 0.05938 0.25544 0.33157 0.0
C699 C 0.0316 0.25769 0.33576 0.0
C700 C 1.01974 0.26761 0.30369 0.0
C701 C 0.03692 0.2764 0.26766 0.0
C702 C 0.06473 0.2738 0.26334 0.0
H703 H 0.163 0.315 0.35059 0.0
H704 H 0.1277 0.31478 0.33068 0.0
H705 H 0.12419 0.28973 0.37239 0.0
H706 H 0.06725 0.24655 0.35634 0.0
H707 H 1.01895 0.25087 0.36394 0.0
H708 H 1.00496 0.85948 0.29935 0.0
H709 H 0.06213 0.89728 0.28694 0.0
H710 H 0.08651 0.82699 0.32905 0.0
H711 H 0.02941 0.78916 0.34176 0.0
H712 H 0.12471 0.8854 0.36265 0.0
H713 H 0.12094 0.8995 0.1993 0.0
H714 H 0.09273 0.90758 0.22477 0.0
H715 H 0.08767 0.86759 0.22597 0.0
C716 C 1.02244 0.85189 0.3054 0.0
C717 C 1.01261 0.82133 0.32161 0.0
C718 C 0.05513 0.87348 0.29813 0.0
C719 C 0.07863 0.86479 0.30638 0.0
C720 C 0.06884 0.83419 0.32227 0.0
H721 H 0.29166 0.99539 0.29841 0.0
H722 H 0.23928 0.94446 0.29497 0.0
C723 C 0.0362 0.81267 0.32973 0.0
C724 C 0.11353 0.88844 0.30099 0.0
H725 H 0.16783 0.94126 0.23431 0.0
C726 C 0.13429 0.89711 0.33437 0.0
C727 C 0.12614 0.90359 0.264 0.0
C728 C 0.10576 0.89384 0.22639 0.0
C729 C 0.16674 0.92182 0.33233 0.0
C730 C 0.17876 0.93816 0.29597 0.0
C731 C 0.15849 0.92859 0.26213 0.0
C732 C 0.21066 0.96808 0.29424 0.0
C733 C 0.18758 0.93164 0.36956 0.0
C734 C 0.21174 0.99791 0.29414 0.0
C735 C 0.24125 0.02666 0.29651 0.0
C736 C 0.27044 0.02626 0.29866 0.0
C737 C 0.26953 0.99638 0.29688 0.0
C738 C 0.23972 0.96737 0.295 0.0
H739 H 0.17418 0.91737 0.39595 0.0
H740 H 0.20862 0.9282 0.36454 0.0
H741 H 0.19708 0.95771 0.37631 0.0
H742 H 0.18959 0.99893 0.29347 0.0
H743 H 0.24112 0.0493 0.2972 0.0
H744 H 0.87622 0.02863 0.39364 0.0
H745 H 0.85433 0.97052 0.38333 0.0
H746 H 0.81311 0.97489 0.27039 0.0
H747 H 0.83475 0.03304 0.28055 0.0
H748 H 0.78867 0.92287 0.37293 0.0
H749 H 0.86192 0.92696 0.2418 0.0
H750 H 0.87267 0.96204 0.27305 0.0
H751 H 0.84029 0.9486 0.23721 0.0
C752 C 0.86253 0.01727 0.36657 0.0
C753 C 0.85732 0.03555 0.33789 0.0
C754 C 0.8501 0.98407 0.36068 0.0
C755 C 0.83233 0.96842 0.32595 0.0
C756 C 0.82726 0.98656 0.29707 0.0
H757 H 0.75669 0.76188 0.26444 0.0
H758 H 0.76292 0.81634 0.26298 0.0
C759 C 0.83972 0.01983 0.30291 0.0
C760 C 0.81841 0.93295 0.32086 0.0
H761 H 0.82422 0.87548 0.26562 0.0
C762 C 0.79625 0.91249 0.34926 0.0
C763 C 0.828 0.91939 0.28968 0.0
C764 C 0.85219 0.94029 0.25878 0.0
C765 C 0.7842 0.87897 0.34808 0.0
C766 C 0.79497 0.8656 0.31806 0.0
C767 C 0.81594 0.8858 0.28853 0.0
C768 C 0.78813 0.83171 0.31987 0.0
C769 C 0.76047 0.85818 0.37943 0.0
C770 C 0.80011 0.82239 0.35229 0.0
C771 C 0.79675 0.79168 0.35307 0.0
C772 C 0.78127 0.76949 0.32146 0.0
C773 C 0.76836 0.77838 0.28943 0.0
C774 C 0.77207 0.80946 0.28846 0.0
H775 H 0.74702 0.86969 0.39175 0.0
H776 H 0.74285 0.83391 0.3671 0.0
H777 H 0.77382 0.85495 0.40448 0.0
H778 H 0.81309 0.83931 0.37649 0.0
H779 H 0.80696 0.78554 0.37817 0.0
H780 H 0.21442 0.22361 0.77258 0.0
H781 H 0.23323 0.18513 0.75957 0.0
H782 H 0.19223 0.13805 0.87088 0.0
H783 H 0.17261 0.17575 0.88359 0.0
H784 H 0.27545 0.17291 0.80564 0.0
H785 H 0.15499 0.06292 0.78995 0.0
H786 H 0.16068 0.10323 0.7879 0.0
H787 H 0.15935 0.0852 0.83532 0.0
C788 C 0.20895 0.20474 0.794 0.0
C789 C 0.1918 0.20268 0.82905 0.0
C790 C 0.21998 0.18295 0.78666 0.0
C791 C 0.21381 0.15846 0.81399 0.0
C792 C 0.19682 0.15641 0.84902 0.0
H793 H 0.25445 1.01077 0.86824 0.0
H794 H 0.24408 0.0557 0.86454 0.0
C795 C 0.18587 0.1782 0.85643 0.0
C796 C 0.22549 0.13526 0.80653 0.0
H797 H 0.1997 0.05444 0.80118 0.0
C798 C 0.25891 0.14702 0.804 0.0
C799 C 0.20388 0.10151 0.80399 0.0
C800 C 0.16772 0.08744 0.80401 0.0
C801 C 0.27128 0.12576 0.80135 0.0
C802 C 0.24966 0.09202 0.80098 0.0
C803 C 0.21626 0.08037 0.80169 0.0
C804 C 0.26084 0.06816 0.80392 0.0
C805 C 0.30731 0.13928 0.80089 0.0
C806 C 0.27475 0.06086 0.77134 0.0
C807 C 0.28092 0.03501 0.77342 0.0
C808 C 0.27289 1.01607 0.80795 0.0
C809 C 0.26066 0.02472 0.84108 0.0
C810 C 0.25468 0.05041 0.83905 0.0
H811 H 0.32097 0.16607 0.80416 0.0
H812 H 0.31456 0.12869 0.82544 0.0
H813 H 0.31419 0.13249 0.77228 0.0
H814 H 0.27945 0.07415 0.74381 0.0
H815 H 0.29012 0.02873 0.74735 0.0
H816 H 0.03082 0.86523 0.86993 0.0
H817 H 0.97294 0.8424 0.85803 0.0
H818 H 0.98124 0.80564 0.74314 0.0
H819 H 0.03927 0.82803 0.75501 0.0
H820 H 0.94257 0.83612 0.74295 0.0
H821 H 0.90587 0.74479 0.86177 0.0
H822 H 0.93419 0.78503 0.879 0.0
H823 H 0.94631 0.7657 0.84196 0.0
C824 C 1.02039 0.85215 0.8422 0.0
C825 C 0.03975 0.84825 0.81362 0.0
C826 C 0.98727 0.8391 0.83544 0.0
C827 C 0.97267 0.82176 0.80005 0.0
C828 C 0.99199 0.81875 0.77078 0.0
H829 H 0.76405 0.74635 0.74376 0.0
H830 H 0.81821 0.75239 0.73698 0.0
C831 C 0.0252 0.83177 0.77754 0.0
C832 C 0.93721 0.8069 0.79405 0.0
H833 H 0.86531 0.75658 0.83864 0.0
C834 C 0.92554 0.81822 0.76328 0.0
C835 C 0.91503 0.78325 0.82032 0.0
C836 C 0.92591 0.7687 0.85238 0.0
C837 C 0.89247 0.80827 0.76003 0.0
C838 C 0.87063 0.78624 0.78802 0.0
C839 C 0.88209 0.77347 0.8172 0.0
C840 C 0.83719 0.78035 0.79177 0.0
C841 C 0.88134 0.8229 0.72841 0.0
C842 C 0.82984 0.7934 0.82504 0.0
C843 C 0.79935 0.79008 0.82889 0.0
C844 C 0.77518 0.77327 0.79973 0.0
C845 C 0.7821 0.75921 0.76684 0.0
C846 C 0.81304 0.76286 0.7628 0.0
H847 H 0.90175 0.84149 0.71082 0.0
H848 H 0.86425 0.80358 0.70759 0.0
H849 H 0.86827 0.83419 0.74243 0.0
H850 H 0.84806 0.80694 0.84774 0.0
H851 H 0.79494 0.80121 0.85465 0.0
H852 H 0.02947 0.25208 0.86501 0.0
H853 H 0.98232 0.19834 0.85785 0.0
H854 H 0.96738 0.21985 0.73742 0.0
H855 H 1.01536 0.27423 0.74432 0.0
H856 H 0.91727 0.17751 0.83905 0.0
H857 H 0.97508 0.13746 0.72487 0.0
H858 H 0.99809 0.17389 0.75449 0.0
H859 H 0.97254 0.17305 0.71454 0.0
C860 C 1.01608 0.24556 0.83702 0.0
C861 C 0.02629 0.26724 0.80505 0.0
C862 C 0.98904 0.21482 0.83304 0.0
C863 C 0.97162 0.20489 0.79694 0.0
C864 C 0.98081 0.2269 0.76536 0.0
H865 H 0.8195 1.00124 0.75743 0.0
H866 H 0.85573 0.05903 0.74566 0.0
C867 C 1.00797 0.258 0.76943 0.0
C868 C 0.94482 0.17093 0.7929 0.0
H869 H 0.92594 0.09765 0.75157 0.0
C870 C 0.91887 0.16013 0.81943 0.0
C871 C 0.94696 0.14829 0.76727 0.0
C872 C 0.97469 0.15851 0.73875 0.0
C873 C 0.89576 0.12718 0.82223 0.0
C874 C 0.89892 0.10436 0.79827 0.0
C875 C 0.92376 0.11525 0.77009 0.0
C876 C 0.87807 0.06907 0.8043 0.0
C877 C 0.86853 0.11695 0.85153 0.0
C878 C 0.87936 0.05543 0.8407 0.0
C879 C 0.85901 0.02245 0.8474 0.0
C880 C 0.83688 1.00233 0.81778 0.0
C881 C 0.83642 1.01592 0.78078 0.0
C882 C 0.85693 0.04898 0.77406 0.0
H883 H 0.86431 0.13723 0.85925 0.0
H884 H 0.84574 0.09642 0.83934 0.0
H885 H 0.87482 0.10896 0.87949 0.0
H886 H 0.89605 0.07041 0.86411 0.0
H887 H 0.86053 1.01274 0.87591 0.0
loop_
_geom_bond_atom_site_label_1
_geom_bond_atom_site_label_2
_geom_bond_distance
_geom_bond_site_symmetry_2
_ccdc_geom_bond_type
Gd0 C3 2.818 . S
Gd0 O20 2.377 . S
Gd0 O22 2.448 . S
Gd0 O23 2.506 . S
Gd0 O24 2.435 . S
Gd0 O25 2.717 . S
Gd0 O27 2.395 . S
Gd0 O31 2.327 . S
Gd1 C12 2.818 . S
Gd1 O21 2.395 . S
Gd1 O25 2.327 . S
Gd1 O26 2.377 . S
Gd1 O28 2.448 . S
Gd1 O29 2.506 . S
Gd1 O30 2.435 . S
Gd1 O31 2.717 . S
C2 O20 1.240 . S
C2 O21 1.240 . S
C3 Gd0 2.818 . S
C3 C4 1.510 . S
C3 O22 1.249 . S
C3 O23 1.252 . S
C4 C3 1.510 . S
C4 C5 1.404 . S
C4 C6 1.352 . S
C5 C4 1.404 . S
C5 C9 1.389 . S
C5 H32 0.930 . S
C6 C4 1.352 . S
C6 C8 1.374 . S
C6 H33 0.931 . S
C7 C8 1.359 . S
C7 C9 1.364 . S
C8 C6 1.374 . S
C8 C7 1.359 . S
C8 H34 0.931 . S
C9 C5 1.389 . S
C9 C7 1.364 . S
C9 H35 0.931 . S
C10 O24 1.256 . S
C10 O25 1.257 . S
C11 O26 1.240 . S
C11 O27 1.240 . S
C12 Gd1 2.818 . S
C12 C13 1.510 . S
C12 O28 1.249 . S
C12 O29 1.252 . S
C13 C12 1.510 . S
C13 C14 1.404 . S
C13 C15 1.352 . S
C14 C13 1.404 . S
C14 C18 1.389 . S
C14 H36 0.930 . S
C15 C13 1.352 . S
C15 C17 1.374 . S
C15 H37 0.931 . S
C16 C17 1.359 . S
C16 C18 1.364 . S
C17 C15 1.374 . S
C17 C16 1.359 . S
C17 H38 0.931 . S
C18 C14 1.389 . S
C18 C16 1.364 . S
C18 H39 0.931 . S
C19 O30 1.256 . S
C19 O31 1.257 . S
O20 Gd0 2.377 . S
O20 C2 1.240 . S
O21 Gd1 2.395 . S
O21 C2 1.240 . S
O22 Gd0 2.448 . S
O22 C3 1.249 . S
O23 Gd0 2.506 . S
O23 C3 1.252 . S
O24 Gd0 2.435 . S
O24 C10 1.256 . S
O25 Gd0 2.717 . S
O25 Gd1 2.327 . S
O25 C10 1.257 . S
O26 Gd1 2.377 . S
O26 C11 1.240 . S
O27 Gd0 2.395 . S
O27 C11 1.240 . S
O28 Gd1 2.448 . S
O28 C12 1.249 . S
O29 Gd1 2.506 . S
O29 C12 1.252 . S
O30 Gd1 2.435 . S
O30 C19 1.256 . S
O31 Gd0 2.327 . S
O31 Gd1 2.717 . S
O31 C19 1.257 . S
H32 C5 0.930 . S
H33 C6 0.931 . S
H34 C8 0.931 . S
H35 C9 0.931 . S
H36 C14 0.930 . S
H37 C15 0.931 . S
H38 C17 0.931 . S
H39 C18 0.931 . S
Gd40 C43 2.818 . S
Gd40 O60 2.377 . S
Gd40 O62 2.448 . S
Gd40 O63 2.506 . S
Gd40 O64 2.435 . S
Gd40 O65 2.717 . S
Gd40 O67 2.395 . S
Gd40 O71 2.327 . S
Gd41 C52 2.818 . S
Gd41 O61 2.395 . S
Gd41 O65 2.327 . S
Gd41 O66 2.377 . S
Gd41 O68 2.448 . S
Gd41 O69 2.506 . S
Gd41 O70 2.435 . S
Gd41 O71 2.717 . S
C42 O60 1.240 . S
C42 O61 1.240 . S
C43 Gd40 2.818 . S
C43 C44 1.510 . S
C43 O62 1.249 . S
C43 O63 1.252 . S
C44 C43 1.510 . S
C44 C45 1.404 . S
C44 C46 1.352 . S
C45 C44 1.404 . S
C45 C49 1.389 . S
C45 H72 0.930 . S
C46 C44 1.352 . S
C46 C48 1.374 . S
C46 H73 0.931 . S
C47 C48 1.359 . S
C47 C49 1.364 . S
C48 C46 1.374 . S
C48 C47 1.359 . S
C48 H74 0.931 . S
C49 C45 1.389 . S
C49 C47 1.364 . S
C49 H75 0.931 . S
C50 O64 1.256 . S
C50 O65 1.257 . S
C51 O66 1.240 . S
C51 O67 1.240 . S
C52 Gd41 2.818 . S
C52 C53 1.510 . S
C52 O68 1.249 . S
C52 O69 1.252 . S
C53 C52 1.510 . S
C53 C54 1.404 . S
C53 C55 1.352 . S
C54 C53 1.404 . S
C54 C58 1.389 . S
C54 H76 0.930 . S
C55 C53 1.352 . S
C55 C57 1.374 . S
C55 H77 0.931 . S
C56 C57 1.359 . S
C56 C58 1.364 . S
C57 C55 1.374 . S
C57 C56 1.359 . S
C57 H78 0.931 . S
C58 C54 1.389 . S
C58 C56 1.364 . S
C58 H79 0.931 . S
C59 O70 1.256 . S
C59 O71 1.257 . S
O60 Gd40 2.377 . S
O60 C42 1.240 . S
O61 Gd41 2.395 . S
O61 C42 1.240 . S
O62 Gd40 2.448 . S
O62 C43 1.249 . S
O63 Gd40 2.506 . S
O63 C43 1.252 . S
O64 Gd40 2.435 . S
O64 C50 1.256 . S
O65 Gd40 2.717 . S
O65 Gd41 2.327 . S
O65 C50 1.257 . S
O66 Gd41 2.377 . S
O66 C51 1.240 . S
O67 Gd40 2.395 . S
O67 C51 1.240 . S
O68 Gd41 2.448 . S
O68 C52 1.249 . S
O69 Gd41 2.506 . S
O69 C52 1.252 . S
O70 Gd41 2.435 . S
O70 C59 1.256 . S
O71 Gd40 2.327 . S
O71 Gd41 2.717 . S
O71 C59 1.257 . S
H72 C45 0.930 . S
H73 C46 0.931 . S
H74 C48 0.931 . S
H75 C49 0.931 . S
H76 C54 0.930 . S
H77 C55 0.931 . S
H78 C57 0.931 . S
H79 C58 0.931 . S
Gd80 C83 2.818 . S
Gd80 O100 2.377 . S
Gd80 O102 2.448 . S
Gd80 O103 2.506 . S
Gd80 O104 2.435 . S
Gd80 O105 2.717 . S
Gd80 O107 2.395 . S
Gd80 O111 2.327 . S
Gd81 C92 2.818 . S
Gd81 O101 2.395 . S
Gd81 O105 2.327 . S
Gd81 O106 2.377 . S
Gd81 O108 2.448 . S
Gd81 O109 2.506 . S
Gd81 O110 2.435 . S
Gd81 O111 2.717 . S
C82 O100 1.240 . S
C82 O101 1.240 . S
C83 Gd80 2.818 . S
C83 C84 1.510 . S
C83 O102 1.249 . S
C83 O103 1.252 . S
C84 C83 1.510 . S
C84 C85 1.404 . S
C84 C86 1.352 . S
C85 C84 1.404 . S
C85 C89 1.389 . S
C85 H112 0.930 . S
C86 C84 1.352 . S
C86 C88 1.374 . S
C86 H113 0.931 . S
C87 C88 1.359 . S
C87 C89 1.364 . S
C88 C86 1.374 . S
C88 C87 1.359 . S
C88 H114 0.931 . S
C89 C85 1.389 . S
C89 C87 1.364 . S
C89 H115 0.931 . S
C90 O104 1.256 . S
C90 O105 1.257 . S
C91 O106 1.240 . S
C91 O107 1.240 . S
C92 Gd81 2.818 . S
C92 C93 1.510 . S
C92 O108 1.249 . S
C92 O109 1.252 . S
C93 C92 1.510 . S
C93 C94 1.404 . S
C93 C95 1.352 . S
C94 C93 1.404 . S
C94 C98 1.389 . S
C94 H116 0.930 . S
C95 C93 1.352 . S
C95 C97 1.374 . S
C95 H117 0.931 . S
C96 C97 1.359 . S
C96 C98 1.364 . S
C97 C95 1.374 . S
C97 C96 1.359 . S
C97 H118 0.931 . S
C98 C94 1.389 . S
C98 C96 1.364 . S
C98 H119 0.931 . S
C99 O110 1.256 . S
C99 O111 1.257 . S
O100 Gd80 2.377 . S
O100 C82 1.240 . S
O101 Gd81 2.395 . S
O101 C82 1.240 . S
O102 Gd80 2.448 . S
O102 C83 1.249 . S
O103 Gd80 2.506 . S
O103 C83 1.252 . S
O104 Gd80 2.435 . S
O104 C90 1.256 . S
O105 Gd80 2.717 . S
O105 Gd81 2.327 . S
O105 C90 1.257 . S
O106 Gd81 2.377 . S
O106 C91 1.240 . S
O107 Gd80 2.395 . S
O107 C91 1.240 . S
O108 Gd81 2.448 . S
O108 C92 1.249 . S
O109 Gd81 2.506 . S
O109 C92 1.252 . S
O110 Gd81 2.435 . S
O110 C99 1.256 . S
O111 Gd80 2.327 . S
O111 Gd81 2.717 . S
O111 C99 1.257 . S
H112 C85 0.930 . S
H113 C86 0.931 . S
H114 C88 0.931 . S
H115 C89 0.931 . S
H116 C94 0.930 . S
H117 C95 0.931 . S
H118 C97 0.931 . S
H119 C98 0.931 . S
Gd120 C123 2.818 . S
Gd120 O140 2.377 . S
Gd120 O142 2.448 . S
Gd120 O143 2.506 . S
Gd120 O144 2.435 . S
Gd120 O145 2.717 . S
Gd120 O147 2.395 . S
Gd120 O151 2.327 . S
Gd121 C132 2.818 . S
Gd121 O141 2.395 . S
Gd121 O145 2.327 . S
Gd121 O146 2.377 . S
Gd121 O148 2.448 . S
Gd121 O149 2.506 . S
Gd121 O150 2.435 . S
Gd121 O151 2.717 . S
C122 O140 1.240 . S
C122 O141 1.240 . S
C123 Gd120 2.818 . S
C123 C124 1.510 . S
C123 O142 1.249 . S
C123 O143 1.252 . S
C124 C123 1.510 . S
C124 C125 1.404 . S
C124 C126 1.352 . S
C125 C124 1.404 . S
C125 C129 1.389 . S
C125 H152 0.930 . S
C126 C124 1.352 . S
C126 C128 1.374 . S
C126 H153 0.931 . S
C127 C128 1.359 . S
C127 C129 1.364 . S
C128 C126 1.374 . S
C128 C127 1.359 . S
C128 H154 0.931 . S
C129 C125 1.389 . S
C129 C127 1.364 . S
C129 H155 0.931 . S
C130 O144 1.256 . S
C130 O145 1.257 . S
C131 O146 1.240 . S
C131 O147 1.240 . S
C132 Gd121 2.818 . S
C132 C133 1.510 . S
C132 O148 1.249 . S
C132 O149 1.252 . S
C133 C132 1.510 . S
C133 C134 1.404 . S
C133 C135 1.352 . S
C134 C133 1.404 . S
C134 C138 1.389 . S
C134 H156 0.930 . S
C135 C133 1.352 . S
C135 C137 1.374 . S
C135 H157 0.931 . S
C136 C137 1.359 . S
C136 C138 1.364 . S
C137 C135 1.374 . S
C137 C136 1.359 . S
C137 H158 0.931 . S
C138 C134 1.389 . S
C138 C136 1.364 . S
C138 H159 0.931 . S
C139 O150 1.256 . S
C139 O151 1.257 . S
O140 Gd120 2.377 . S
O140 C122 1.240 . S
O141 Gd121 2.395 . S
O141 C122 1.240 . S
O142 Gd120 2.448 . S
O142 C123 1.249 . S
O143 Gd120 2.506 . S
O143 C123 1.252 . S
O144 Gd120 2.435 . S
O144 C130 1.256 . S
O145 Gd120 2.717 . S
O145 Gd121 2.327 . S
O145 C130 1.257 . S
O146 Gd121 2.377 . S
O146 C131 1.240 . S
O147 Gd120 2.395 . S
O147 C131 1.240 . S
O148 Gd121 2.448 . S
O148 C132 1.249 . S
O149 Gd121 2.506 . S
O149 C132 1.252 . S
O150 Gd121 2.435 . S
O150 C139 1.256 . S
O151 Gd120 2.327 . S
O151 Gd121 2.717 . S
O151 C139 1.257 . S
H152 C125 0.930 . S
H153 C126 0.931 . S
H154 C128 0.931 . S
H155 C129 0.931 . S
H156 C134 0.930 . S
H157 C135 0.931 . S
H158 C137 0.931 . S
H159 C138 0.931 . S
Gd160 C163 2.818 . S
Gd160 O180 2.377 . S
Gd160 O182 2.448 . S
Gd160 O183 2.506 . S
Gd160 O184 2.435 . S
Gd160 O185 2.717 . S
Gd160 O187 2.395 . S
Gd160 O191 2.327 . S
Gd161 C172 2.818 . S
Gd161 O181 2.395 . S
Gd161 O185 2.327 . S
Gd161 O186 2.377 . S
Gd161 O188 2.448 . S
Gd161 O189 2.506 . S
Gd161 O190 2.435 . S
Gd161 O191 2.717 . S
C162 O180 1.240 . S
C162 O181 1.240 . S
C163 Gd160 2.818 . S
C163 C164 1.510 . S
C163 O182 1.249 . S
C163 O183 1.252 . S
C164 C163 1.510 . S
C164 C165 1.404 . S
C164 C166 1.352 . S
C165 C164 1.404 . S
C165 C169 1.389 . S
C165 H192 0.930 . S
C166 C164 1.352 . S
C166 C168 1.374 . S
C166 H193 0.931 . S
C167 C168 1.359 . S
C167 C169 1.364 . S
C168 C166 1.374 . S
C168 C167 1.359 . S
C168 H194 0.931 . S
C169 C165 1.389 . S
C169 C167 1.364 . S
C169 H195 0.931 . S
C170 O184 1.256 . S
C170 O185 1.257 . S
C171 O186 1.240 . S
C171 O187 1.240 . S
C172 Gd161 2.818 . S
C172 C173 1.510 . S
C172 O188 1.249 . S
C172 O189 1.252 . S
C173 C172 1.510 . S
C173 C174 1.404 . S
C173 C175 1.352 . S
C174 C173 1.404 . S
C174 C178 1.389 . S
C174 H196 0.930 . S
C175 C173 1.352 . S
C175 C177 1.374 . S
C175 H197 0.931 . S
C176 C177 1.359 . S
C176 C178 1.364 . S
C177 C175 1.374 . S
C177 C176 1.359 . S
C177 H198 0.931 . S
C178 C174 1.389 . S
C178 C176 1.364 . S
C178 H199 0.931 . S
C179 O190 1.256 . S
C179 O191 1.257 . S
O180 Gd160 2.377 . S
O180 C162 1.240 . S
O181 Gd161 2.395 . S
O181 C162 1.240 . S
O182 Gd160 2.448 . S
O182 C163 1.249 . S
O183 Gd160 2.506 . S
O183 C163 1.252 . S
O184 Gd160 2.435 . S
O184 C170 1.256 . S
O185 Gd160 2.717 . S
O185 Gd161 2.327 . S
O185 C170 1.257 . S
O186 Gd161 2.377 . S
O186 C171 1.240 . S
O187 Gd160 2.395 . S
O187 C171 1.240 . S
O188 Gd161 2.448 . S
O188 C172 1.249 . S
O189 Gd161 2.506 . S
O189 C172 1.252 . S
O190 Gd161 2.435 . S
O190 C179 1.256 . S
O191 Gd160 2.327 . S
O191 Gd161 2.717 . S
O191 C179 1.257 . S
H192 C165 0.930 . S
H193 C166 0.931 . S
H194 C168 0.931 . S
H195 C169 0.931 . S
H196 C174 0.930 . S
H197 C175 0.931 . S
H198 C177 0.931 . S
H199 C178 0.931 . S
Gd200 C203 2.818 . S
Gd200 O220 2.377 . S
Gd200 O222 2.448 . S
Gd200 O223 2.506 . S
Gd200 O224 2.435 . S
Gd200 O225 2.717 . S
Gd200 O227 2.395 . S
Gd200 O231 2.327 . S
Gd201 C212 2.818 . S
Gd201 O221 2.395 . S
Gd201 O225 2.327 . S
Gd201 O226 2.377 . S
Gd201 O228 2.448 . S
Gd201 O229 2.506 . S
Gd201 O230 2.435 . S
Gd201 O231 2.717 . S
C202 O220 1.240 . S
C202 O221 1.240 . S
C203 Gd200 2.818 . S
C203 C204 1.510 . S
C203 O222 1.249 . S
C203 O223 1.252 . S
C204 C203 1.510 . S
C204 C205 1.404 . S
C204 C206 1.352 . S
C205 C204 1.404 . S
C205 C209 1.389 . S
C205 H232 0.930 . S
C206 C204 1.352 . S
C206 C208 1.374 . S
C206 H233 0.931 . S
C207 C208 1.359 . S
C207 C209 1.364 . S
C208 C206 1.374 . S
C208 C207 1.359 . S
C208 H234 0.931 . S
C209 C205 1.389 . S
C209 C207 1.364 . S
C209 H235 0.931 . S
C210 O224 1.256 . S
C210 O225 1.257 . S
C211 O226 1.240 . S
C211 O227 1.240 . S
C212 Gd201 2.818 . S
C212 C213 1.510 . S
C212 O228 1.249 . S
C212 O229 1.252 . S
C213 C212 1.510 . S
C213 C214 1.404 . S
C213 C215 1.352 . S
C214 C213 1.404 . S
C214 C218 1.389 . S
C214 H236 0.930 . S
C215 C213 1.352 . S
C215 C217 1.374 . S
C215 H237 0.931 . S
C216 C217 1.359 . S
C216 C218 1.364 . S
C217 C215 1.374 . S
C217 C216 1.359 . S
C217 H238 0.931 . S
C218 C214 1.389 . S
C218 C216 1.364 . S
C218 H239 0.931 . S
C219 O230 1.256 . S
C219 O231 1.257 . S
O220 Gd200 2.377 . S
O220 C202 1.240 . S
O221 Gd201 2.395 . S
O221 C202 1.240 . S
O222 Gd200 2.448 . S
O222 C203 1.249 . S
O223 Gd200 2.506 . S
O223 C203 1.252 . S
O224 Gd200 2.435 . S
O224 C210 1.256 . S
O225 Gd200 2.717 . S
O225 Gd201 2.327 . S
O225 C210 1.257 . S
O226 Gd201 2.377 . S
O226 C211 1.240 . S
O227 Gd200 2.395 . S
O227 C211 1.240 . S
O228 Gd201 2.448 . S
O228 C212 1.249 . S
O229 Gd201 2.506 . S
O229 C212 1.252 . S
O230 Gd201 2.435 . S
O230 C219 1.256 . S
O231 Gd200 2.327 . S
O231 Gd201 2.717 . S
O231 C219 1.257 . S
H232 C205 0.930 . S
H233 C206 0.931 . S
H234 C208 0.931 . S
H235 C209 0.931 . S
H236 C214 0.930 . S
H237 C215 0.931 . S
H238 C217 0.931 . S
H239 C218 0.931 . S
H240 C248 0.929 . S
H241 C250 0.930 . S
H242 C252 0.930 . S
H243 C255 0.929 . S
H244 C258 0.930 . S
H245 C260 0.960 . S
H246 C260 0.960 . S
H247 C260 0.960 . S
C248 H240 0.929 . S
C248 C249 1.377 . S
C248 C250 1.384 . S
C249 C248 1.377 . S
C249 C255 1.390 . S
C250 H241 0.930 . S
C250 C248 1.384 . S
C250 C251 1.372 . S
C251 C250 1.372 . S
C251 C252 1.400 . S
C251 C256 1.490 . S
C252 H242 0.930 . S
C252 C251 1.400 . S
C252 C255 1.386 . S
H253 C269 0.930 . S
H254 C270 0.931 . S
C255 H243 0.929 . S
C255 C249 1.390 . S
C255 C252 1.386 . S
C256 C251 1.490 . S
C256 C258 1.395 1_556 S
C256 C259 1.403 1_565 S
H257 C263 0.930 . S
C258 H244 0.930 . S
C258 C256 1.395 1_554 S
C258 C261 1.403 . S
C259 C256 1.403 1_545 S
C259 C260 1.524 . S
C259 C263 1.400 1_556 S
C260 H245 0.960 . S
C260 H246 0.960 . S
C260 H247 0.960 . S
C260 C259 1.524 . S
C261 C258 1.403 . S
C261 C262 1.392 1_565 S
C261 C265 1.495 . S
C262 C261 1.392 1_545 S
C262 C263 1.385 . S
C262 C264 1.478 . S
C263 H257 0.930 . S
C263 C259 1.400 1_554 S
C263 C262 1.385 . S
C264 C262 1.478 . S
C264 C266 1.381 . S
C264 C270 1.383 . S
C265 C261 1.495 . S
C265 H271 0.959 . S
C265 H272 0.961 . S
C265 H273 0.960 . S
C266 C264 1.381 . S
C266 C267 1.394 . S
C266 H274 0.930 . S
C267 C266 1.394 . S
C267 C268 1.383 . S
C267 H275 0.929 . S
C268 C267 1.383 . S
C268 C269 1.377 . S
C269 H253 0.930 . S
C269 C268 1.377 . S
C269 C270 1.379 . S
C270 H254 0.931 . S
C270 C264 1.383 . S
C270 C269 1.379 . S
H271 C265 0.959 . S
H272 C265 0.961 . S
H273 C265 0.960 . S
H274 C266 0.930 . S
H275 C267 0.929 . S
H276 C284 0.929 . S
H277 C286 0.930 . S
H278 C288 0.930 . S
H279 C291 0.929 . S
H280 C294 0.930 . S
H281 C296 0.960 . S
H282 C296 0.960 . S
H283 C296 0.960 . S
C284 H276 0.929 . S
C284 C285 1.377 . S
C284 C286 1.384 . S
C285 C284 1.377 . S
C285 C291 1.390 . S
C286 H277 0.930 . S
C286 C284 1.384 . S
C286 C287 1.372 . S
C287 C286 1.372 . S
C287 C288 1.400 . S
C287 C292 1.490 . S
C288 H278 0.930 . S
C288 C287 1.400 . S
C288 C291 1.386 . S
H289 C305 0.930 . S
H290 C306 0.931 . S
C291 H279 0.929 . S
C291 C285 1.390 . S
C291 C288 1.386 . S
C292 C287 1.490 . S
C292 C294 1.395 . S
C292 C295 1.403 . S
H293 C299 0.930 . S
C294 H280 0.930 . S
C294 C292 1.395 . S
C294 C297 1.403 . S
C295 C292 1.403 . S
C295 C296 1.524 . S
C295 C299 1.400 . S
C296 H281 0.960 . S
C296 H282 0.960 . S
C296 H283 0.960 . S
C296 C295 1.524 . S
C297 C294 1.403 . S
C297 C298 1.392 . S
C297 C301 1.495 . S
C298 C297 1.392 . S
C298 C299 1.385 . S
C298 C300 1.478 . S
C299 H293 0.930 . S
C299 C295 1.400 . S
C299 C298 1.385 . S
C300 C298 1.478 . S
C300 C302 1.381 . S
C300 C306 1.383 . S
C301 C297 1.495 . S
C301 H307 0.959 . S
C301 H308 0.961 . S
C301 H309 0.960 . S
C302 C300 1.381 . S
C302 C303 1.394 . S
C302 H310 0.930 . S
C303 C302 1.394 . S
C303 C304 1.383 . S
C303 H311 0.929 . S
C304 C303 1.383 . S
C304 C305 1.377 . S
C305 H289 0.930 . S
C305 C304 1.377 . S
C305 C306 1.379 . S
C306 H290 0.931 . S
C306 C300 1.383 . S
C306 C305 1.379 . S
H307 C301 0.959 . S
H308 C301 0.961 . S
H309 C301 0.960 . S
H310 C302 0.930 . S
H311 C303 0.929 . S
H312 C320 0.929 . S
H313 C322 0.930 . S
H314 C324 0.930 . S
H315 C327 0.929 . S
H316 C330 0.930 . S
H317 C332 0.969 . S
H318 C332 0.960 . S
H319 C332 0.960 . S
C320 H312 0.929 . S
C320 C321 1.377 . S
C320 C322 1.384 . S
C321 C320 1.377 . S
C321 C327 1.390 . S
C322 H313 0.930 . S
C322 C320 1.384 . S
C322 C323 1.372 . S
C323 C322 1.372 . S
C323 C324 1.400 . S
C323 C328 1.490 . S
C324 H314 0.930 . S
C324 C323 1.400 . S
C324 C327 1.386 . S
H325 C341 0.930 . S
H326 C342 0.931 . S
C327 H315 0.929 . S
C327 C321 1.390 . S
C327 C324 1.386 . S
C328 C323 1.490 . S
C328 C330 1.395 . S
C328 C331 1.403 . S
H329 C335 0.930 . S
C330 H316 0.930 . S
C330 C328 1.395 . S
C330 C333 1.403 1_654 S
C331 C328 1.403 . S
C331 C332 1.524 . S
C331 C335 1.400 1_654 S
C332 H317 0.969 . S
C332 H318 0.960 . S
C332 H319 0.960 . S
C332 C331 1.524 . S
C333 C330 1.403 1_456 S
C333 C334 1.392 . S
C333 C337 1.495 . S
C334 C333 1.392 . S
C334 C335 1.385 . S
C334 C336 1.478 . S
C335 H329 0.930 . S
C335 C331 1.400 1_456 S
C335 C334 1.385 . S
C336 C334 1.478 . S
C336 C338 1.381 . S
C336 C342 1.383 . S
C337 C333 1.495 . S
C337 H343 0.959 . S
C337 H344 0.961 . S
C337 H345 0.960 . S
C338 C336 1.381 . S
C338 C339 1.394 . S
C338 H346 0.930 . S
C339 C338 1.394 . S
C339 C340 1.383 . S
C339 H347 0.929 . S
C340 C339 1.383 . S
C340 C341 1.377 . S
C341 H325 0.930 . S
C341 C340 1.377 . S
C341 C342 1.379 . S
C342 H326 0.931 . S
C342 C336 1.383 . S
C342 C341 1.379 . S
H343 C337 0.959 . S
H344 C337 0.961 . S
H345 C337 0.960 . S
H346 C338 0.930 . S
H347 C339 0.929 . S
H348 C356 0.929 . S
H349 C358 0.930 . S
H350 C360 0.930 . S
H351 C363 0.929 . S
H352 C366 0.930 . S
H353 C368 0.960 . S
H354 C368 0.960 . S
H355 C368 0.960 . S
C356 H348 0.929 . S
C356 C357 1.377 . S
C356 C358 1.384 . S
C357 C356 1.377 . S
C357 C363 1.390 . S
C358 H349 0.930 . S
C358 C356 1.384 . S
C358 C359 1.372 . S
C359 C358 1.372 . S
C359 C360 1.400 . S
C359 C364 1.490 . S
C360 H350 0.930 . S
C360 C359 1.400 . S
C360 C363 1.386 . S
H361 C377 0.930 . S
H362 C378 0.931 . S
C363 H351 0.929 . S
C363 C357 1.390 . S
C363 C360 1.386 . S
C364 C359 1.490 . S
C364 C366 1.395 1_545 S
C364 C367 1.403 . S
H365 C371 0.930 . S
C366 H352 0.930 . S
C366 C364 1.395 1_565 S
C366 C369 1.403 . S
C367 C364 1.403 . S
C367 C368 1.524 . S
C367 C371 1.400 . S
C368 H353 0.960 . S
C368 H354 0.960 . S
C368 H355 0.960 . S
C368 C367 1.524 . S
C369 C366 1.403 . S
C369 C370 1.392 . S
C369 C373 1.495 . S
C370 C369 1.392 . S
C370 C371 1.385 1_565 S
C370 C372 1.478 . S
C371 H365 0.930 . S
C371 C367 1.400 . S
C371 C370 1.385 1_545 S
C372 C370 1.478 . S
C372 C374 1.381 . S
C372 C378 1.383 . S
C373 C369 1.495 . S
C373 H379 0.959 . S
C373 H380 0.961 . S
C373 H381 0.960 . S
C374 C372 1.381 . S
C374 C375 1.394 . S
C374 H382 0.930 . S
C375 C374 1.394 . S
C375 C376 1.383 . S
C375 H383 0.929 . S
C376 C375 1.383 . S
C376 C377 1.377 . S
C377 H361 0.930 . S
C377 C376 1.377 . S
C377 C378 1.379 . S
C378 H362 0.931 . S
C378 C372 1.383 . S
C378 C377 1.379 . S
H379 C373 0.959 . S
H380 C373 0.961 . S
H381 C373 0.960 . S
H382 C374 0.930 . S
H383 C375 0.929 . S
H384 C392 0.929 . S
H385 C394 0.930 . S
H386 C396 0.930 . S
H387 C399 0.929 . S
H388 C402 0.930 . S
H389 C404 0.960 . S
H390 C404 0.960 . S
H391 C404 0.960 . S
C392 H384 0.929 . S
C392 C393 1.377 . S
C392 C394 1.384 . S
C393 C392 1.377 . S
C393 C399 1.390 . S
C394 H385 0.930 . S
C394 C392 1.384 . S
C394 C395 1.372 . S
C395 C394 1.372 . S
C395 C396 1.400 . S
C395 C400 1.490 . S
C396 H386 0.930 . S
C396 C395 1.400 . S
C396 C399 1.386 . S
H397 C413 0.930 . S
H398 C414 0.931 . S
C399 H387 0.929 . S
C399 C393 1.390 . S
C399 C396 1.386 . S
C400 C395 1.490 . S
C400 C402 1.395 . S
C400 C403 1.403 . S
H401 C407 0.930 . S
C402 H388 0.930 . S
C402 C400 1.395 . S
C402 C405 1.403 1_556 S
C403 C400 1.403 . S
C403 C404 1.524 . S
C403 C407 1.400 1_556 S
C404 H389 0.960 . S
C404 H390 0.960 . S
C404 H391 0.960 . S
C404 C403 1.524 . S
C405 C402 1.403 1_554 S
C405 C406 1.392 . S
C405 C409 1.495 . S
C406 C405 1.392 . S
C406 C407 1.385 . S
C406 C408 1.478 . S
C407 H401 0.930 . S
C407 C403 1.400 1_554 S
C407 C406 1.385 . S
C408 C406 1.478 . S
C408 C410 1.381 . S
C408 C414 1.383 . S
C409 C405 1.495 . S
C409 H415 0.959 . S
C409 H416 0.961 . S
C409 H417 0.960 . S
C410 C408 1.381 . S
C410 C411 1.394 . S
C410 H418 0.930 . S
C411 C410 1.394 . S
C411 C412 1.383 . S
C411 H419 0.929 . S
C412 C411 1.383 . S
C412 C413 1.377 . S
C413 H397 0.930 . S
C413 C412 1.377 . S
C413 C414 1.379 . S
C414 H398 0.931 . S
C414 C408 1.383 . S
C414 C413 1.379 . S
H415 C409 0.959 . S
H416 C409 0.961 . S
H417 C409 0.960 . S
H418 C410 0.930 . S
H419 C411 0.929 . S
H420 C428 0.929 . S
H421 C430 0.930 . S
H422 C432 0.930 . S
H423 C435 0.929 . S
H424 C438 0.930 . S
H425 C440 0.960 . S
H426 C440 0.960 . S
H427 C440 0.960 . S
C428 H420 0.929 . S
C428 C429 1.377 . S
C428 C430 1.384 . S
C429 C428 1.377 . S
C429 C435 1.390 . S
C430 H421 0.930 . S
C430 C428 1.384 . S
C430 C431 1.372 . S
C431 C430 1.372 . S
C431 C432 1.400 . S
C431 C436 1.490 . S
C432 H422 0.930 . S
C432 C431 1.400 . S
C432 C435 1.386 . S
H433 C449 0.930 . S
H434 C450 0.931 . S
C435 H423 0.929 . S
C435 C429 1.390 . S
C435 C432 1.386 . S
C436 C431 1.490 . S
C436 C438 1.395 . S
C436 C439 1.403 . S
H437 C443 0.930 . S
C438 H424 0.930 . S
C438 C436 1.395 . S
C438 C441 1.403 1_655 S
C439 C436 1.403 . S
C439 C440 1.524 . S
C439 C443 1.400 1_655 S
C440 H425 0.960 . S
C440 H426 0.960 . S
C440 H427 0.960 . S
C440 C439 1.524 . S
C441 C438 1.403 1_455 S
C441 C442 1.392 . S
C441 C445 1.495 . S
C442 C441 1.392 . S
C442 C443 1.385 . S
C442 C444 1.478 . S
C443 H437 0.930 . S
C443 C439 1.400 1_455 S
C443 C442 1.385 . S
C444 C442 1.478 . S
C444 C446 1.381 . S
C444 C450 1.383 . S
C445 C441 1.495 . S
C445 H451 0.959 . S
C445 H452 0.961 . S
C445 H453 0.960 . S
C446 C444 1.381 . S
C446 C447 1.394 . S
C446 H454 0.930 . S
C447 C446 1.394 . S
C447 C448 1.383 . S
C447 H455 0.929 . S
C448 C447 1.383 . S
C448 C449 1.377 . S
C449 H433 0.930 . S
C449 C448 1.377 . S
C449 C450 1.379 . S
C450 H434 0.931 . S
C450 C444 1.383 . S
C450 C449 1.379 . S
H451 C445 0.959 . S
H452 C445 0.961 . S
H453 C445 0.960 . S
H454 C446 0.930 . S
H455 C447 0.929 . S
H456 C464 0.929 . S
H457 C466 0.930 . S
H458 C468 0.930 . S
H459 C471 0.929 . S
H460 C474 0.930 . S
H461 C476 0.960 . S
H462 C476 0.960 . S
H463 C476 0.960 . S
C464 H456 0.929 . S
C464 C465 1.377 . S
C464 C466 1.384 . S
C465 C464 1.377 . S
C465 C471 1.390 . S
C466 H457 0.930 . S
C466 C464 1.384 . S
C466 C467 1.372 . S
C467 C466 1.372 . S
C467 C468 1.400 . S
C467 C472 1.490 . S
C468 H458 0.930 . S
C468 C467 1.400 . S
C468 C471 1.386 . S
H469 C485 0.930 . S
H470 C486 0.931 . S
C471 H459 0.929 . S
C471 C465 1.390 . S
C471 C468 1.386 . S
C472 C467 1.490 . S
C472 C474 1.395 . S
C472 C475 1.403 . S
H473 C479 0.930 . S
C474 H460 0.930 . S
C474 C472 1.395 . S
C474 C477 1.403 . S
C475 C472 1.403 . S
C475 C476 1.524 . S
C475 C479 1.400 . S
C476 H461 0.960 . S
C476 H462 0.960 . S
C476 H463 0.960 . S
C476 C475 1.524 . S
C477 C474 1.403 . S
C477 C478 1.392 . S
C477 C481 1.495 . S
C478 C477 1.392 . S
C478 C479 1.385 . S
C478 C480 1.478 . S
C479 H473 0.930 . S
C479 C475 1.400 . S
C479 C478 1.385 . S
C480 C478 1.478 . S
C480 C482 1.381 . S
C480 C486 1.383 . S
C481 C477 1.495 . S
C481 H487 0.959 . S
C481 H488 0.961 . S
C481 H489 0.960 . S
C482 C480 1.381 . S
C482 C483 1.394 . S
C482 H490 0.930 . S
C483 C482 1.394 . S
C483 C484 1.383 . S
C483 H491 0.929 . S
C484 C483 1.383 . S
C484 C485 1.377 . S
C485 H469 0.930 . S
C485 C484 1.377 . S
C485 C486 1.379 . S
C486 H470 0.931 . S
C486 C480 1.383 . S
C486 C485 1.379 . S
H487 C481 0.959 . S
H488 C481 0.961 . S
H489 C481 0.960 . S
H490 C482 0.930 . S
H491 C483 0.929 . S
H492 C500 0.929 . S
H493 C502 0.930 . S
H494 C504 0.930 . S
H495 C507 0.929 . S
H496 C510 0.930 . S
H497 C512 0.960 . S
H498 C512 0.960 . S
H499 C512 0.960 . S
C500 H492 0.929 . S
C500 C501 1.377 . S
C500 C502 1.384 . S
C501 C500 1.377 . S
C501 C507 1.390 . S
C502 H493 0.930 . S
C502 C500 1.384 . S
C502 C503 1.372 . S
C503 C502 1.372 . S
C503 C504 1.400 . S
C503 C508 1.490 . S
C504 H494 0.930 . S
C504 C503 1.400 . S
C504 C507 1.386 . S
H505 C521 0.930 . S
H506 C522 0.931 . S
C507 H495 0.929 . S
C507 C501 1.390 . S
C507 C504 1.386 . S
C508 C503 1.490 . S
C508 C510 1.395 . S
C508 C511 1.403 . S
H509 C515 0.930 . S
C510 H496 0.930 . S
C510 C508 1.395 . S
C510 C513 1.403 . S
C511 C508 1.403 . S
C511 C512 1.524 . S
C511 C515 1.400 . S
C512 H497 0.960 . S
C512 H498 0.960 . S
C512 H499 0.960 . S
C512 C511 1.524 . S
C513 C510 1.403 . S
C513 C514 1.392 . S
C513 C517 1.495 . S
C514 C513 1.392 . S
C514 C515 1.385 . S
C514 C516 1.478 . S
C515 H509 0.930 . S
C515 C511 1.400 . S
C515 C514 1.385 . S
C516 C514 1.478 . S
C516 C518 1.381 . S
C516 C522 1.383 . S
C517 C513 1.495 . S
C517 H523 0.959 . S
C517 H524 0.961 . S
C517 H525 0.960 . S
C518 C516 1.381 . S
C518 C519 1.394 . S
C518 H526 0.930 . S
C519 C518 1.394 . S
C519 C520 1.383 . S
C519 H527 0.929 . S
C520 C519 1.383 . S
C520 C521 1.377 . S
C521 H505 0.930 . S
C521 C520 1.377 . S
C521 C522 1.379 . S
C522 H506 0.931 . S
C522 C516 1.383 . S
C522 C521 1.379 . S
H523 C517 0.959 . S
H524 C517 0.961 . S
H525 C517 0.960 . S
H526 C518 0.930 . S
H527 C519 0.929 . S
H528 C536 0.929 . S
H529 C538 0.930 . S
H530 C540 0.930 . S
H531 C543 0.929 . S
H532 C546 0.930 . S
H533 C548 0.960 . S
H534 C548 0.960 . S
H535 C548 0.960 . S
C536 H528 0.929 . S
C536 C537 1.377 . S
C536 C538 1.384 . S
C537 C536 1.377 . S
C537 C543 1.390 . S
C538 H529 0.930 . S
C538 C536 1.384 . S
C538 C539 1.372 . S
C539 C538 1.372 . S
C539 C540 1.400 . S
C539 C544 1.490 . S
C540 H530 0.930 . S
C540 C539 1.400 . S
C540 C543 1.386 . S
H541 C557 0.930 . S
H542 C558 0.931 . S
C543 H531 0.929 . S
C543 C537 1.390 . S
C543 C540 1.386 . S
C544 C539 1.490 . S
C544 C546 1.395 . S
C544 C547 1.403 . S
H545 C551 0.930 . S
C546 H532 0.930 . S
C546 C544 1.395 . S
C546 C549 1.403 . S
C547 C544 1.403 . S
C547 C548 1.524 . S
C547 C551 1.400 . S
C548 H533 0.960 . S
C548 H534 0.960 . S
C548 H535 0.960 . S
C548 C547 1.524 . S
C549 C546 1.403 . S
C549 C550 1.392 . S
C549 C553 1.495 . S
C550 C549 1.392 . S
C550 C551 1.385 . S
C550 C552 1.478 . S
C551 H545 0.930 . S
C551 C547 1.400 . S
C551 C550 1.385 . S
C552 C550 1.478 . S
C552 C554 1.381 . S
C552 C558 1.383 . S
C553 C549 1.495 . S
C553 H559 0.959 . S
C553 H560 0.961 . S
C553 H561 0.960 . S
C554 C552 1.381 . S
C554 C555 1.394 . S
C554 H562 0.930 . S
C555 C554 1.394 . S
C555 C556 1.383 . S
C555 H563 0.929 . S
C556 C555 1.383 . S
C556 C557 1.377 . S
C557 H541 0.930 . S
C557 C556 1.377 . S
C557 C558 1.379 . S
C558 H542 0.931 . S
C558 C552 1.383 . S
C558 C557 1.379 . S
H559 C553 0.959 . S
H560 C553 0.961 . S
H561 C553 0.960 . S
H562 C554 0.930 . S
H563 C555 0.929 . S
H564 C572 0.929 . S
H565 C574 0.930 . S
H566 C576 0.930 . S
H567 C579 0.929 . S
H568 C582 0.930 . S
H569 C584 0.960 . S
H570 C584 0.960 . S
H571 C584 0.960 . S
C572 H564 0.929 . S
C572 C573 1.377 . S
C572 C574 1.384 . S
C573 C572 1.377 . S
C573 C579 1.390 . S
C574 H565 0.930 . S
C574 C572 1.384 . S
C574 C575 1.372 . S
C575 C574 1.372 . S
C575 C576 1.400 . S
C575 C580 1.490 . S
C576 H566 0.930 . S
C576 C575 1.400 . S
C576 C579 1.386 . S
H577 C593 0.930 . S
H578 C594 0.931 . S
C579 H567 0.929 . S
C579 C573 1.390 . S
C579 C576 1.386 . S
C580 C575 1.490 . S
C580 C582 1.395 . S
C580 C583 1.403 . S
H581 C587 0.930 . S
C582 H568 0.930 . S
C582 C580 1.395 . S
C582 C585 1.403 . S
C583 C580 1.403 . S
C583 C584 1.524 . S
C583 C587 1.400 . S
C584 H569 0.960 . S
C584 H570 0.960 . S
C584 H571 0.960 . S
C584 C583 1.524 . S
C585 C582 1.403 . S
C585 C586 1.392 . S
C585 C589 1.495 . S
C586 C585 1.392 . S
C586 C587 1.385 . S
C586 C588 1.478 . S
C587 H581 0.930 . S
C587 C583 1.400 . S
C587 C586 1.385 . S
C588 C586 1.478 . S
C588 C590 1.381 . S
C588 C594 1.383 . S
C589 C585 1.495 . S
C589 H595 0.959 . S
C589 H596 0.961 . S
C589 H597 0.960 . S
C590 C588 1.381 . S
C590 C591 1.394 . S
C590 H598 0.930 . S
C591 C590 1.394 . S
C591 C592 1.383 . S
C591 H599 0.929 . S
C592 C591 1.383 . S
C592 C593 1.377 . S
C593 H577 0.930 . S
C593 C592 1.377 . S
C593 C594 1.379 . S
C594 H578 0.931 . S
C594 C588 1.383 . S
C594 C593 1.379 . S
H595 C589 0.959 . S
H596 C589 0.961 . S
H597 C589 0.960 . S
H598 C590 0.930 . S
H599 C591 0.929 . S
H600 C608 0.929 . S
H601 C610 0.930 . S
H602 C612 0.930 . S
H603 C615 0.929 . S
H604 C618 0.930 . S
H605 C620 0.960 . S
H606 C620 0.960 . S
H607 C620 0.960 . S
C608 H600 0.929 . S
C608 C609 1.377 . S
C608 C610 1.384 . S
C609 C608 1.377 . S
C609 C615 1.390 . S
C610 H601 0.930 . S
C610 C608 1.384 . S
C610 C611 1.372 . S
C611 C610 1.372 . S
C611 C612 1.400 . S
C611 C616 1.490 . S
C612 H602 0.930 . S
C612 C611 1.400 . S
C612 C615 1.386 . S
H613 C629 0.930 . S
H614 C630 0.931 . S
C615 H603 0.929 . S
C615 C609 1.390 . S
C615 C612 1.386 . S
C616 C611 1.490 . S
C616 C618 1.395 . S
C616 C619 1.403 . S
H617 C623 0.930 . S
C618 H604 0.930 . S
C618 C616 1.395 . S
C618 C621 1.403 . S
C619 C616 1.403 . S
C619 C620 1.524 . S
C619 C623 1.400 . S
C620 H605 0.960 . S
C620 H606 0.960 . S
C620 H607 0.960 . S
C620 C619 1.524 . S
C621 C618 1.403 . S
C621 C622 1.392 . S
C621 C625 1.495 . S
C622 C621 1.392 . S
C622 C623 1.385 . S
C622 C624 1.478 . S
C623 H617 0.930 . S
C623 C619 1.400 . S
C623 C622 1.385 . S
C624 C622 1.478 . S
C624 C626 1.381 . S
C624 C630 1.383 . S
C625 C621 1.495 . S
C625 H631 0.959 . S
C625 H632 0.961 . S
C625 H633 0.960 . S
C626 C624 1.381 . S
C626 C627 1.394 . S
C626 H634 0.930 . S
C627 C626 1.394 . S
C627 C628 1.383 . S
C627 H635 0.929 . S
C628 C627 1.383 . S
C628 C629 1.377 . S
C629 H613 0.930 . S
C629 C628 1.377 . S
C629 C630 1.379 . S
C630 H614 0.931 . S
C630 C624 1.383 . S
C630 C629 1.379 . S
H631 C625 0.959 . S
H632 C625 0.961 . S
H633 C625 0.960 . S
H634 C626 0.930 . S
H635 C627 0.929 . S
H636 C644 0.929 . S
H637 C646 0.930 . S
H638 C648 0.930 . S
H639 C651 0.929 . S
H640 C654 0.930 . S
H641 C656 0.960 . S
H642 C656 0.960 . S
H643 C656 0.960 . S
C644 H636 0.929 . S
C644 C645 1.377 . S
C644 C646 1.384 . S
C645 C644 1.377 . S
C645 C651 1.390 . S
C646 H637 0.930 . S
C646 C644 1.384 . S
C646 C647 1.372 . S
C647 C646 1.372 . S
C647 C648 1.400 . S
C647 C652 1.490 . S
C648 H638 0.930 . S
C648 C647 1.400 . S
C648 C651 1.386 . S
H649 C665 0.930 . S
H650 C666 0.931 . S
C651 H639 0.929 . S
C651 C645 1.390 . S
C651 C648 1.386 . S
C652 C647 1.490 . S
C652 C654 1.395 . S
C652 C655 1.403 . S
H653 C659 0.930 . S
C654 H640 0.930 . S
C654 C652 1.395 . S
C654 C657 1.403 . S
C655 C652 1.403 . S
C655 C656 1.524 . S
C655 C659 1.400 . S
C656 H641 0.960 . S
C656 H642 0.960 . S
C656 H643 0.960 . S
C656 C655 1.524 . S
C657 C654 1.403 . S
C657 C658 1.392 . S
C657 C661 1.495 . S
C658 C657 1.392 . S
C658 C659 1.385 . S
C658 C660 1.478 . S
C659 H653 0.930 . S
C659 C655 1.400 . S
C659 C658 1.385 . S
C660 C658 1.478 . S
C660 C662 1.381 . S
C660 C666 1.383 . S
C661 C657 1.495 . S
C661 H667 0.959 . S
C661 H668 0.961 . S
C661 H669 0.960 . S
C662 C660 1.381 . S
C662 C663 1.394 . S
C662 H670 0.930 . S
C663 C662 1.394 . S
C663 C664 1.383 . S
C663 H671 0.929 . S
C664 C663 1.383 . S
C664 C665 1.377 . S
C665 H649 0.930 . S
C665 C664 1.377 . S
C665 C666 1.379 . S
C666 H650 0.931 . S
C666 C660 1.383 . S
C666 C665 1.379 . S
H667 C661 0.959 . S
H668 C661 0.961 . S
H669 C661 0.960 . S
H670 C662 0.930 . S
H671 C663 0.929 . S
H672 C680 0.929 . S
H673 C682 0.930 . S
H674 C684 0.930 . S
H675 C687 0.929 . S
H676 C690 0.930 . S
H677 C692 0.960 . S
H678 C692 0.960 . S
H679 C692 0.960 . S
C680 H672 0.929 . S
C680 C681 1.377 . S
C680 C682 1.384 . S
C681 C680 1.377 . S
C681 C687 1.390 . S
C682 H673 0.930 . S
C682 C680 1.384 . S
C682 C683 1.372 . S
C683 C682 1.372 . S
C683 C684 1.400 . S
C683 C688 1.490 . S
C684 H674 0.930 . S
C684 C683 1.400 . S
C684 C687 1.386 . S
H685 C701 0.930 1_455 S
H686 C702 0.931 . S
C687 H675 0.929 . S
C687 C681 1.390 . S
C687 C684 1.386 . S
C688 C683 1.490 . S
C688 C690 1.395 . S
C688 C691 1.403 . S
H689 C695 0.930 . S
C690 H676 0.930 . S
C690 C688 1.395 . S
C690 C693 1.403 . S
C691 C688 1.403 . S
C691 C692 1.524 . S
C691 C695 1.400 . S
C692 H677 0.960 . S
C692 H678 0.960 . S
C692 H679 0.960 . S
C692 C691 1.524 . S
C693 C690 1.403 . S
C693 C694 1.392 . S
C693 C697 1.495 . S
C694 C693 1.392 . S
C694 C695 1.385 . S
C694 C696 1.478 . S
C695 H689 0.930 . S
C695 C691 1.400 . S
C695 C694 1.385 . S
C696 C694 1.478 . S
C696 C698 1.381 1_455 S
C696 C702 1.383 . S
C697 C693 1.495 . S
C697 H703 0.959 . S
C697 H704 0.961 . S
C697 H705 0.960 . S
C698 C696 1.381 1_655 S
C698 C699 1.394 . S
C698 H706 0.930 . S
C699 C698 1.394 . S
C699 C700 1.383 . S
C699 H707 0.929 . S
C700 C699 1.383 . S
C700 C701 1.377 . S
C701 H685 0.930 1_655 S
C701 C700 1.377 . S
C701 C702 1.379 1_655 S
C702 H686 0.931 . S
C702 C696 1.383 . S
C702 C701 1.379 1_455 S
H703 C697 0.959 . S
H704 C697 0.961 . S
H705 C697 0.960 . S
H706 C698 0.930 . S
H707 C699 0.929 . S
H708 C716 0.929 . S
H709 C718 0.930 . S
H710 C720 0.930 . S
H711 C723 0.929 . S
H712 C726 0.930 . S
H713 C728 0.960 . S
H714 C728 0.960 . S
H715 C728 0.960 . S
C716 H708 0.929 . S
C716 C717 1.377 . S
C716 C718 1.384 1_655 S
C717 C716 1.377 . S
C717 C723 1.390 . S
C718 H709 0.930 . S
C718 C716 1.384 1_455 S
C718 C719 1.372 . S
C719 C718 1.372 . S
C719 C720 1.400 . S
C719 C724 1.490 . S
C720 H710 0.930 . S
C720 C719 1.400 . S
C720 C723 1.386 1_455 S
H721 C737 0.935 . S
H722 C738 0.931 . S
C723 H711 0.929 . S
C723 C717 1.390 . S
C723 C720 1.386 1_655 S
C724 C719 1.490 . S
C724 C726 1.395 . S
C724 C727 1.403 . S
H725 C731 0.930 . S
C726 H712 0.930 . S
C726 C724 1.395 . S
C726 C729 1.403 . S
C727 C724 1.403 . S
C727 C728 1.524 . S
C727 C731 1.400 . S
C728 H713 0.960 . S
C728 H714 0.960 . S
C728 H715 0.960 . S
C728 C727 1.524 . S
C729 C726 1.403 . S
C729 C730 1.392 . S
C729 C733 1.495 1_565 S
C730 C729 1.392 . S
C730 C731 1.385 . S
C730 C732 1.478 . S
C731 H725 0.930 . S
C731 C727 1.400 . S
C731 C730 1.385 . S
C732 C730 1.478 . S
C732 C734 1.381 1_565 S
C732 C738 1.383 . S
C733 C729 1.495 1_545 S
C733 H739 0.951 . S
C733 H740 0.961 1_545 S
C733 H741 0.960 . S
C734 C732 1.381 1_545 S
C734 C735 1.394 . S
C734 H742 0.930 . S
C735 C734 1.394 . S
C735 C736 1.383 . S
C735 H743 0.929 . S
C736 C735 1.383 . S
C736 C737 1.372 1_545 S
C737 H721 0.935 . S
C737 C736 1.372 1_565 S
C737 C738 1.380 . S
C738 H722 0.931 . S
C738 C732 1.383 . S
C738 C737 1.380 . S
H739 C733 0.951 . S
H740 C733 0.961 1_565 S
H741 C733 0.960 . S
H742 C734 0.930 . S
H743 C735 0.929 . S
H744 C752 0.929 . S
H745 C754 0.930 . S
H746 C756 0.930 . S
H747 C759 0.929 . S
H748 C762 0.930 . S
H749 C764 0.960 . S
H750 C764 0.960 . S
H751 C764 0.960 . S
C752 H744 0.929 . S
C752 C753 1.377 . S
C752 C754 1.384 1_545 S
C753 C752 1.377 . S
C753 C759 1.390 . S
C754 H745 0.930 . S
C754 C752 1.384 1_565 S
C754 C755 1.372 . S
C755 C754 1.372 . S
C755 C756 1.400 . S
C755 C760 1.490 . S
C756 H746 0.930 . S
C756 C755 1.400 . S
C756 C759 1.386 1_565 S
H757 C773 0.930 . S
H758 C774 0.931 . S
C759 H747 0.929 . S
C759 C753 1.390 . S
C759 C756 1.386 1_545 S
C760 C755 1.490 . S
C760 C762 1.395 . S
C760 C763 1.403 . S
H761 C767 0.930 . S
C762 H748 0.930 . S
C762 C760 1.395 . S
C762 C765 1.403 . S
C763 C760 1.403 . S
C763 C764 1.524 . S
C763 C767 1.400 . S
C764 H749 0.960 . S
C764 H750 0.960 . S
C764 H751 0.960 . S
C764 C763 1.524 . S
C765 C762 1.403 . S
C765 C766 1.392 . S
C765 C769 1.495 . S
C766 C765 1.392 . S
C766 C767 1.385 . S
C766 C768 1.478 . S
C767 H761 0.930 . S
C767 C763 1.400 . S
C767 C766 1.385 . S
C768 C766 1.478 . S
C768 C770 1.381 . S
C768 C774 1.383 . S
C769 C765 1.495 . S
C769 H775 0.959 . S
C769 H776 0.961 . S
C769 H777 0.960 . S
C770 C768 1.381 . S
C770 C771 1.394 . S
C770 H778 0.930 . S
C771 C770 1.394 . S
C771 C772 1.383 . S
C771 H779 0.929 . S
C772 C771 1.383 . S
C772 C773 1.377 . S
C773 H757 0.930 . S
C773 C772 1.377 . S
C773 C774 1.379 . S
C774 H758 0.931 . S
C774 C768 1.383 . S
C774 C773 1.379 . S
H775 C769 0.959 . S
H776 C769 0.961 . S
H777 C769 0.960 . S
H778 C770 0.930 . S
H779 C771 0.929 . S
H780 C788 0.929 . S
H781 C790 0.930 . S
H782 C792 0.930 . S
H783 C795 0.929 . S
H784 C798 0.930 . S
H785 C800 0.960 1_565 S
H786 C800 0.960 . S
H787 C800 0.960 . S
C788 H780 0.929 . S
C788 C789 1.377 . S
C788 C790 1.384 . S
C789 C788 1.377 . S
C789 C795 1.390 . S
C790 H781 0.930 . S
C790 C788 1.384 . S
C790 C791 1.372 . S
C791 C790 1.372 . S
C791 C792 1.400 . S
C791 C796 1.490 . S
C792 H782 0.930 . S
C792 C791 1.400 . S
C792 C795 1.386 . S
H793 C809 0.930 . S
H794 C810 0.931 . S
C795 H783 0.929 . S
C795 C789 1.390 . S
C795 C792 1.386 . S
C796 C791 1.490 . S
C796 C798 1.395 . S
C796 C799 1.403 . S
H797 C803 0.930 1_565 S
C798 H784 0.930 . S
C798 C796 1.395 . S
C798 C801 1.403 . S
C799 C796 1.403 . S
C799 C800 1.524 . S
C799 C803 1.400 . S
C800 H785 0.960 1_545 S
C800 H786 0.960 . S
C800 H787 0.960 . S
C800 C799 1.524 . S
C801 C798 1.403 . S
C801 C802 1.392 . S
C801 C805 1.495 . S
C802 C801 1.392 . S
C802 C803 1.385 . S
C802 C804 1.478 . S
C803 H797 0.930 1_545 S
C803 C799 1.400 . S
C803 C802 1.385 . S
C804 C802 1.478 . S
C804 C806 1.381 . S
C804 C810 1.383 1_545 S
C805 C801 1.495 . S
C805 H811 0.959 . S
C805 H812 0.961 . S
C805 H813 0.960 . S
C806 C804 1.381 . S
C806 C807 1.394 1_545 S
C806 H814 0.930 . S
C807 C806 1.394 1_565 S
C807 C808 1.383 . S
C807 H815 0.929 . S
C808 C807 1.383 . S
C808 C809 1.377 . S
C809 H793 0.930 . S
C809 C808 1.377 . S
C809 C810 1.379 . S
C810 H794 0.931 . S
C810 C804 1.383 1_565 S
C810 C809 1.379 . S
H811 C805 0.959 . S
H812 C805 0.961 . S
H813 C805 0.960 . S
H814 C806 0.930 . S
H815 C807 0.929 . S
H816 C824 0.929 . S
H817 C826 0.930 . S
H818 C828 0.930 . S
H819 C831 0.929 . S
H820 C834 0.930 . S
H821 C836 0.960 . S
H822 C836 0.960 . S
H823 C836 0.960 . S
C824 H816 0.929 . S
C824 C825 1.377 . S
C824 C826 1.384 1_455 S
C825 C824 1.377 . S
C825 C831 1.390 . S
C826 H817 0.930 . S
C826 C824 1.384 1_655 S
C826 C827 1.372 . S
C827 C826 1.372 . S
C827 C828 1.400 . S
C827 C832 1.490 . S
C828 H818 0.930 . S
C828 C827 1.400 . S
C828 C831 1.386 1_655 S
H829 C845 0.930 . S
H830 C846 0.931 . S
C831 H819 0.929 . S
C831 C825 1.390 . S
C831 C828 1.386 1_455 S
C832 C827 1.490 . S
C832 C834 1.395 . S
C832 C835 1.403 . S
H833 C839 0.930 . S
C834 H820 0.930 . S
C834 C832 1.395 . S
C834 C837 1.403 . S
C835 C832 1.403 . S
C835 C836 1.524 . S
C835 C839 1.400 . S
C836 H821 0.960 . S
C836 H822 0.960 . S
C836 H823 0.960 . S
C836 C835 1.524 . S
C837 C834 1.403 . S
C837 C838 1.392 . S
C837 C841 1.495 . S
C838 C837 1.392 . S
C838 C839 1.385 . S
C838 C840 1.478 . S
C839 H833 0.930 . S
C839 C835 1.400 . S
C839 C838 1.385 . S
C840 C838 1.478 . S
C840 C842 1.381 . S
C840 C846 1.383 . S
C841 C837 1.495 . S
C841 H847 0.959 . S
C841 H848 0.961 . S
C841 H849 0.960 . S
C842 C840 1.381 . S
C842 C843 1.394 . S
C842 H850 0.930 . S
C843 C842 1.394 . S
C843 C844 1.383 . S
C843 H851 0.929 . S
C844 C843 1.383 . S
C844 C845 1.377 . S
C845 H829 0.930 . S
C845 C844 1.377 . S
C845 C846 1.379 . S
C846 H830 0.931 . S
C846 C840 1.383 . S
C846 C845 1.379 . S
H847 C841 0.959 . S
H848 C841 0.961 . S
H849 C841 0.960 . S
H850 C842 0.930 . S
H851 C843 0.929 . S
H852 C860 0.929 . S
H853 C862 0.930 . S
H854 C864 0.930 . S
H855 C867 0.929 . S
H856 C870 0.930 . S
H857 C872 0.960 . S
H858 C872 0.960 1_455 S
H859 C872 0.960 . S
C860 H852 0.929 . S
C860 C861 1.377 . S
C860 C862 1.384 . S
C861 C860 1.377 . S
C861 C867 1.390 . S
C862 H853 0.930 . S
C862 C860 1.384 . S
C862 C863 1.372 1_455 S
C863 C862 1.372 1_655 S
C863 C864 1.400 . S
C863 C868 1.490 . S
C864 H854 0.930 . S
C864 C863 1.400 . S
C864 C867 1.386 1_655 S
H865 C881 0.930 . S
H866 C882 0.931 . S
C867 H855 0.929 . S
C867 C861 1.390 . S
C867 C864 1.386 1_455 S
C868 C863 1.490 . S
C868 C870 1.395 . S
C868 C871 1.403 . S
H869 C875 0.930 . S
C870 H856 0.930 . S
C870 C868 1.395 . S
C870 C873 1.403 . S
C871 C868 1.403 . S
C871 C872 1.524 . S
C871 C875 1.400 . S
C872 H857 0.960 . S
C872 H858 0.960 1_655 S
C872 H859 0.960 . S
C872 C871 1.524 . S
C873 C870 1.403 . S
C873 C874 1.392 . S
C873 C877 1.495 . S
C874 C873 1.392 . S
C874 C875 1.385 . S
C874 C876 1.478 . S
C875 H869 0.930 . S
C875 C871 1.400 . S
C875 C874 1.385 . S
C876 C874 1.478 . S
C876 C878 1.381 . S
C876 C882 1.383 . S
C877 C873 1.495 . S
C877 H883 0.959 . S
C877 H884 0.961 . S
C877 H885 0.960 . S
C878 C876 1.381 . S
C878 C879 1.394 1_545 S
C878 H886 0.930 . S
C879 C878 1.394 1_565 S
C879 C880 1.383 . S
C879 H887 0.929 . S
C880 C879 1.383 . S
C880 C881 1.377 . S
C881 H865 0.930 . S
C881 C880 1.377 . S
C881 C882 1.379 1_565 S
C882 H866 0.931 . S
C882 C876 1.383 . S
C882 C881 1.379 1_545 S
H883 C877 0.959 . S
H884 C877 0.961 . S
H885 C877 0.960 . S
H886 C878 0.930 . S
H887 C879 0.929 . S
C249 C179 2.344 . S
C268 C19 2.449 . S
C285 C210 2.463 . S
C304 C50 2.361 . S
C321 C99 2.467 . S
C340 C139 2.331 . S
C357 C10 2.349 . S
C376 C170 2.460 . S
C393 C219 2.349 . S
C412 C59 2.474 . S
C429 C90 2.346 . S
C448 C130 2.447 . S
C465 C7 1.908 . S
C484 C82 1.841 . S
C501 C47 1.911 . S
C520 C2 1.853 . S
C537 C87 1.912 . S
C556 C42 1.881 . S
C573 C136 1.911 . S
C592 C171 1.847 . S
C609 C176 1.909 . S
C628 C211 1.843 . S
C645 C131 1.864 . S
C664 C216 1.896 . S
C681 C16 1.040 . S
C700 C91 1.068 . S
C717 C56 1.036 . S
C736 C11 1.050 . S
C753 C96 1.040 . S
C772 C51 1.068 . S
C789 C127 1.034 . S
C808 C162 1.073 . S
C825 C167 1.032 . S
C844 C202 1.029 . S
C861 C122 1.049 . S
C880 C207 1.012 . S
