# Generated by pormake.
# Topology mmt, (4)-cn, num edge types: 1
# Building blocks:
#     Node 0, Type 0, BuildingBlock: GALJAG_clean_sbu_0, # of connection points: 4
#     Node 1, Type 0, BuildingBlock: GALJAG_clean_sbu_0, # of connection points: 4
#     Node 2, Type 0, BuildingBlock: GALJAG_clean_sbu_0, # of connection points: 4
#     Node 3, Type 0, BuildingBlock: GALJAG_clean_sbu_0, # of connection points: 4
#     Node 4, Type 0, BuildingBlock: GALJAG_clean_sbu_0, # of connection points: 4
#     Node 5, Type 0, BuildingBlock: GALJAG_clean_sbu_0, # of connection points: 4
#     Node 6, Type 0, BuildingBlock: GALJAG_clean_sbu_0, # of connection points: 4
#     Node 7, Type 0, BuildingBlock: GALJAG_clean_sbu_0, # of connection points: 4
#     Edge 8, Type (0, 0), BuildingBlock: OJICUG_clean_linker_0, # of connection points: 2
#     Edge 9, Type (0, 0), BuildingBlock: OJICUG_clean_linker_0, # of connection points: 2
#     Edge 10, Type (0, 0), BuildingBlock: OJICUG_clean_linker_0, # of connection points: 2
#     Edge 11, Type (0, 0), BuildingBlock: OJICUG_clean_linker_0, # of connection points: 2
#     Edge 12, Type (0, 0), BuildingBlock: OJICUG_clean_linker_0, # of connection points: 2
#     Edge 13, Type (0, 0), BuildingBlock: OJICUG_clean_linker_0, # of connection points: 2
#     Edge 14, Type (0, 0), BuildingBlock: OJICUG_clean_linker_0, # of connection points: 2
#     Edge 15, Type (0, 0), BuildingBlock: OJICUG_clean_linker_0, # of connection points: 2
#     Edge 16, Type (0, 0), BuildingBlock: OJICUG_clean_linker_0, # of connection points: 2
#     Edge 17, Type (0, 0), BuildingBlock: OJICUG_clean_linker_0, # of connection points: 2
#     Edge 18, Type (0, 0), BuildingBlock: OJICUG_clean_linker_0, # of connection points: 2
#     Edge 19, Type (0, 0), BuildingBlock: OJICUG_clean_linker_0, # of connection points: 2
#     Edge 20, Type (0, 0), BuildingBlock: OJICUG_clean_linker_0, # of connection points: 2
#     Edge 21, Type (0, 0), BuildingBlock: OJICUG_clean_linker_0, # of connection points: 2
#     Edge 22, Type (0, 0), BuildingBlock: OJICUG_clean_linker_0, # of connection points: 2
#     Edge 23, Type (0, 0), BuildingBlock: OJICUG_clean_linker_0, # of connection points: 2
# Relax obj value: 0.016
# Max RMSD: 0.061
# Mean RMSD: 0.061
data_MOF--net-mmt--node1-GALJAG_clean_sbu_0--edge1-OJICUG_clean_linker_0
_symmetry_space_group_name_H-M    P1
_symmetry_Int_Tables_number       1
_symmetry_cell_setting            triclinic
loop_
_symmetry_equiv_pos_as_xyz
'x, y, z'
_cell_length_a     18.16307
_cell_length_b     27.051274
_cell_length_c     30.073531
_cell_angle_alpha  90.004417
_cell_angle_beta   89.983058
_cell_angle_gamma 89.851173
loop_
_atom_site_label
_atom_site_type_symbol
_atom_site_fract_x
_atom_site_fract_y
_atom_site_fract_z
_atom_type_partial_charge
In0 In 0.12233 0.56799 0.34935 0.0
O1 O 0.21528 0.50989 0.3448 0.0
O2 O 0.20918 0.56557 0.29528 0.0
C3 C 0.07196 0.54531 0.43111 0.0
C4 C 0.17194 0.6616 0.35476 0.0
C5 C 0.00612 0.5381 0.30021 0.0
O6 O 0.12975 0.52635 0.41499 0.0
O7 O 0.04111 0.57713 0.40662 0.0
O8 O 0.0197 0.58313 0.30709 0.0
O9 O 0.05172 0.50848 0.31726 0.0
C10 C 0.24305 0.5285 0.31017 0.0
O11 O 0.13401 0.64587 0.32263 0.0
O12 O 0.18228 0.63072 0.38564 0.0
In13 In 0.38233 0.93799 0.32982 0.0
O14 O 0.28867 0.99528 0.32349 0.0
O15 O 0.29591 0.93697 0.27619 0.0
C16 C 0.43936 0.97295 0.40646 0.0
C17 C 0.32589 0.84724 0.3444 0.0
C18 C 0.49674 0.95455 0.27433 0.0
O19 O 0.38557 0.99367 0.3873 0.0
O20 O 0.46267 0.93438 0.3875 0.0
O21 O 0.49205 0.91633 0.29809 0.0
O22 O 0.4437 0.98435 0.27834 0.0
C23 C 0.26142 0.97461 0.28955 0.0
O24 O 0.36279 0.85818 0.31031 0.0
O25 O 0.31972 0.88156 0.3726 0.0
In26 In 0.62292 0.43225 0.17228 0.0
O27 O 0.63429 0.35139 0.1922 0.0
O28 O 0.69013 0.37491 0.13378 0.0
C29 C 0.50774 0.46046 0.22328 0.0
C30 C 0.7424 0.47047 0.21294 0.0
C31 C 0.56786 0.45915 0.09256 0.0
O32 O 0.52146 0.41554 0.21539 0.0
O33 O 0.55288 0.49044 0.20654 0.0
O34 O 0.62429 0.47905 0.10928 0.0
O35 O 0.5409 0.42436 0.11529 0.0
C36 C 0.67726 0.34021 0.16074 0.0
O37 O 0.71675 0.48874 0.17754 0.0
O38 O 0.70694 0.43422 0.228 0.0
In39 In 0.87784 0.05814 0.14851 0.0
O40 O 0.75598 0.03775 0.14323 0.0
O41 O 0.81784 0.00668 0.19621 0.0
C42 C 0.93035 0.03113 0.06803 0.0
C43 C 0.82829 0.15223 0.15293 0.0
C44 C 0.99638 0.03494 0.19844 0.0
O45 O 0.87581 0.01011 0.08588 0.0
O46 O 0.95621 0.06686 0.08995 0.0
O47 O 0.97294 0.07886 0.19565 0.0
O48 O 0.95944 0.00366 0.17695 0.0
C49 C 0.75601 0.01114 0.17766 0.0
O50 O 0.83839 0.1258 0.18697 0.0
O51 O 0.84665 0.13209 0.11672 0.0
In52 In 0.8839 0.43877 0.67053 0.0
O53 O 0.86463 0.35893 0.69005 0.0
O54 O 0.82332 0.38186 0.62721 0.0
C55 C 0.99757 0.45569 0.72648 0.0
C56 C 0.76249 0.47534 0.7104 0.0
C57 C 0.94051 0.47352 0.59367 0.0
O58 O 0.9932 0.41737 0.70282 0.0
O59 O 0.94444 0.48537 0.72225 0.0
O60 O 0.88397 0.4924 0.61146 0.0
O61 O 0.96689 0.43685 0.61414 0.0
C62 C 0.82898 0.34766 0.65557 0.0
O63 O 0.79268 0.49765 0.67826 0.0
O64 O 0.79431 0.43607 0.72224 0.0
In65 In 0.62353 0.06891 0.64962 0.0
O66 O 0.71884 0.01256 0.65319 0.0
O67 O 0.70669 0.06439 0.70564 0.0
C68 C 0.57304 0.04554 0.56805 0.0
C69 C 0.67476 0.16217 0.64436 0.0
C70 C 0.50625 0.03953 0.69809 0.0
O71 O 0.62883 0.02501 0.58515 0.0
O72 O 0.54437 0.07928 0.59144 0.0
O73 O 0.5203 0.08451 0.69126 0.0
O74 O 0.55182 0.00972 0.68128 0.0
C75 C 0.74337 0.0292 0.68948 0.0
O76 O 0.63571 0.14684 0.67615 0.0
O77 O 0.68545 0.13109 0.61368 0.0
In78 In 0.3792 0.55995 0.85141 0.0
O79 O 0.25711 0.54016 0.85675 0.0
O80 O 0.3188 0.50854 0.8039 0.0
C81 C 0.43112 0.53227 0.93185 0.0
C82 C 0.33006 0.65413 0.84674 0.0
C83 C 0.49745 0.53651 0.80123 0.0
O84 O 0.37625 0.51176 0.91392 0.0
O85 O 0.45765 0.56785 0.91004 0.0
O86 O 0.47536 0.58066 0.80501 0.0
O87 O 0.45932 0.50517 0.82188 0.0
C88 C 0.25698 0.51332 0.82245 0.0
O89 O 0.33949 0.62741 0.8128 0.0
O90 O 0.34891 0.63423 0.88296 0.0
In91 In 0.12389 0.93388 0.82714 0.0
O92 O 0.21772 0.99037 0.82159 0.0
O93 O 0.20665 0.93641 0.77074 0.0
C94 C 0.06854 0.95991 0.90702 0.0
C95 C 0.17899 0.84208 0.83878 0.0
C96 C 0.00818 0.96204 0.77665 0.0
O97 O 0.12451 0.98042 0.89031 0.0
O98 O 0.04224 0.92496 0.88419 0.0
O99 O 0.02354 0.91709 0.78317 0.0
O100 O 0.05198 0.99214 0.79449 0.0
C101 C 0.24255 0.97246 0.78582 0.0
O102 O 0.13486 0.85281 0.80779 0.0
O103 O 0.19271 0.87711 0.86522 0.0
C104 C 0.33652 0.46169 0.29574 0.0
C105 C 0.31143 0.51033 0.28927 0.0
H106 H 0.41844 0.40721 0.27917 0.0
C107 C 0.35227 0.54234 0.26211 0.0
H108 H 0.3059 0.43632 0.31654 0.0
C109 C 0.4169 0.5262 0.24173 0.0
C110 C 0.44139 0.47734 0.24727 0.0
H111 H 0.33447 0.58014 0.25677 0.0
H112 H 0.44691 0.55181 0.22084 0.0
C113 C 0.40067 0.44509 0.2744 0.0
C114 C 0.09836 0.05297 0.25286 0.0
C115 C 0.06349 0.02058 0.223 0.0
H116 H 0.18863 0.06361 0.29815 0.0
C117 C 0.09391 0.97351 0.21581 0.0
H118 H 0.07592 0.08947 0.259 0.0
C119 C 0.15816 0.95916 0.23747 0.0
C120 C 0.19324 0.99123 0.26736 0.0
H121 H 0.06853 0.94774 0.19293 0.0
H122 H 0.18017 0.92262 0.23088 0.0
C123 C 0.16258 0.0382 0.27523 0.0
C124 C 0.8495 0.45677 0.26296 0.0
C125 C 0.81024 0.48833 0.23442 0.0
H126 H 0.94307 0.4476 0.30532 0.0
C127 C 0.83665 0.53632 0.22671 0.0
H128 H 0.83062 0.41945 0.26923 0.0
C129 C 0.90057 0.55278 0.24808 0.0
C130 C 0.93985 0.52102 0.27651 0.0
H131 H 0.80731 0.56131 0.20481 0.0
H132 H 0.91942 0.59018 0.24223 0.0
C133 C 0.91408 0.47277 0.2834 0.0
C134 C 0.69164 0.95476 0.23054 0.0
C135 C 0.68802 0.9919 0.19798 0.0
H136 H 0.63322 0.91315 0.27975 0.0
C137 C 0.61983 0.01404 0.18837 0.0
H138 H 0.7436 0.93716 0.23858 0.0
C139 C 0.55707 0.00109 0.21257 0.0
C140 C 0.56119 0.96505 0.24609 0.0
H141 H 0.61564 0.04301 0.16363 0.0
H142 H 0.50565 0.01995 0.20564 0.0
C143 C 0.62856 0.94106 0.25406 0.0
C144 C 0.60194 0.55515 0.7487 0.0
C145 C 0.56437 0.52191 0.77655 0.0
H146 H 0.69444 0.56633 0.70515 0.0
C147 C 0.59202 0.47376 0.7817 0.0
H148 H 0.5817 0.5925 0.74413 0.0
C149 C 0.65625 0.45918 0.76012 0.0
C150 C 0.69415 0.49215 0.73234 0.0
H151 H 0.56451 0.44728 0.80298 0.0
H152 H 0.6761 0.42179 0.76517 0.0
C153 C 0.6662 0.54022 0.72642 0.0
C154 C 0.84932 0.04231 0.74027 0.0
C155 C 0.8115 0.01121 0.71076 0.0
H156 H 0.94179 0.05134 0.78337 0.0
C157 C 0.83955 0.96372 0.70211 0.0
H158 H 0.8292 0.07923 0.74732 0.0
C159 C 0.9037 0.94731 0.72352 0.0
C160 C 0.94154 0.9787 0.75288 0.0
H161 H 0.81129 0.93908 0.67947 0.0
H162 H 0.92387 0.9103 0.71698 0.0
C163 C 0.91403 0.02644 0.76071 0.0
C164 C 0.12077 0.51627 0.81176 0.0
C165 C 0.18892 0.49396 0.80233 0.0
H166 H 0.00655 0.522 0.79452 0.0
C167 C 0.19244 0.45637 0.77019 0.0
H168 H 0.11666 0.54557 0.8362 0.0
C169 C 0.12932 0.44238 0.74688 0.0
C170 C 0.06198 0.4665 0.75464 0.0
H171 H 0.24436 0.43862 0.7623 0.0
H172 H 0.13394 0.41412 0.72149 0.0
C173 C 0.05794 0.50301 0.78777 0.0
C174 C 0.33708 0.03812 0.77192 0.0
C175 C 0.31014 0.9903 0.76402 0.0
H176 H 0.42031 0.0917 0.75646 0.0
C177 C 0.34876 0.95882 0.73508 0.0
H178 H 0.30823 0.06304 0.79413 0.0
C179 C 0.41331 0.97467 0.71451 0.0
C180 C 0.43969 0.02272 0.72166 0.0
H181 H 0.32946 0.92163 0.72865 0.0
H182 H 0.44187 0.94953 0.69234 0.0
C183 C 0.40097 0.05446 0.75041 0.0
C184 C 0.07273 0.48992 0.49759 0.0
C185 C 0.04011 0.52895 0.47388 0.0
H186 H 0.06651 0.44169 0.5538 0.0
C187 C 0.9748 0.55028 0.49022 0.0
H188 H 0.12289 0.4726 0.48577 0.0
C189 C 0.94236 0.53252 0.52929 0.0
C190 C 0.97449 0.49297 0.55259 0.0
H191 H 0.94829 0.58034 0.47256 0.0
H192 H 0.89186 0.54946 0.54101 0.0
C193 C 0.04021 0.47207 0.53647 0.0
C194 C 0.44506 0.03432 0.46896 0.0
C195 C 0.47389 0.9925 0.44733 0.0
H196 H 0.4541 0.08414 0.52415 0.0
C197 C 0.53697 0.96947 0.46486 0.0
H198 H 0.39666 0.05293 0.45612 0.0
C199 C 0.57011 0.9875 0.50347 0.0
C200 C 0.54075 0.02885 0.52552 0.0
H201 H 0.56073 0.93731 0.44883 0.0
H202 H 0.61815 0.96854 0.51639 0.0
C203 C 0.47809 0.05226 0.50779 0.0
C204 C 0.56289 0.51817 0.02857 0.0
C205 C 0.53353 0.47715 0.051 0.0
H206 H 0.55308 0.56802 0.9736 0.0
C207 C 0.46942 0.45482 0.03433 0.0
H208 H 0.61201 0.53633 0.04073 0.0
C209 C 0.43545 0.47311 0.99594 0.0
C210 C 0.46484 0.51415 0.97354 0.0
H211 H 0.44532 0.42328 0.05102 0.0
H212 H 0.38637 0.45496 0.9837 0.0
C213 C 0.52888 0.53649 0.99027 0.0
C214 C 0.97027 0.95441 0.9653 0.0
C215 C 0.03389 0.9774 0.94868 0.0
H216 H 0.88723 0.95358 0.01596 0.0
C217 C 0.06241 0.0186 0.97123 0.0
H218 H 0.94681 0.92271 0.94852 0.0
C219 C 0.02803 0.03646 0.00961 0.0
C220 C 0.96446 0.01346 0.02628 0.0
H221 H 0.11114 0.03727 0.95911 0.0
H222 H 0.05158 0.06814 0.02636 0.0
C223 C 0.93592 0.97223 0.00377 0.0
C224 C 0.231 0.73438 0.39231 0.0
C225 C 0.20875 0.71007 0.35328 0.0
H226 H 0.28475 0.79801 0.4202 0.0
C227 C 0.22556 0.7311 0.31186 0.0
H228 H 0.21886 0.7187 0.42463 0.0
C229 C 0.265 0.77511 0.30935 0.0
C230 C 0.28677 0.79978 0.34821 0.0
H231 H 0.20973 0.71288 0.28124 0.0
H232 H 0.27753 0.79025 0.27687 0.0
C233 C 0.26871 0.77947 0.38979 0.0
C234 C 0.79074 0.23249 0.11784 0.0
C235 C 0.79169 0.20102 0.15501 0.0
H236 H 0.75381 0.30149 0.09052 0.0
C237 C 0.75373 0.21533 0.19364 0.0
H238 H 0.81925 0.22225 0.08755 0.0
C239 C 0.71509 0.26002 0.195 0.0
C240 C 0.71454 0.2917 0.158 0.0
H241 H 0.75292 0.19163 0.22268 0.0
H242 H 0.68648 0.27006 0.22531 0.0
C243 C 0.75304 0.27766 0.11946 0.0
C244 C 0.72811 0.23153 0.68753 0.0
C245 C 0.7121 0.21044 0.64602 0.0
H246 H 0.77941 0.29072 0.72282 0.0
C247 C 0.73534 0.2346 0.60712 0.0
H248 H 0.71152 0.21343 0.71806 0.0
C249 C 0.77311 0.27966 0.60985 0.0
C250 C 0.79023 0.30008 0.65154 0.0
H251 H 0.72382 0.21888 0.57474 0.0
H252 H 0.78982 0.29813 0.57954 0.0
C253 C 0.76761 0.27551 0.69026 0.0
C254 C 0.29362 0.73482 0.88147 0.0
C255 C 0.29357 0.70294 0.84458 0.0
H256 H 0.25747 0.80414 0.90853 0.0
C257 C 0.25465 0.71686 0.80619 0.0
H258 H 0.32289 0.7249 0.91157 0.0
C259 C 0.21601 0.76154 0.80481 0.0
C260 C 0.21643 0.79362 0.84154 0.0
H261 H 0.25306 0.69284 0.77738 0.0
H262 H 0.18661 0.77126 0.77471 0.0
C263 C 0.25594 0.78 0.87981 0.0
loop_
_geom_bond_atom_site_label_1
_geom_bond_atom_site_label_2
_geom_bond_distance
_geom_bond_site_symmetry_2
_ccdc_geom_bond_type
In0 O1 2.294 . S
In0 O2 2.326 . S
In0 O6 2.266 . S
In0 O7 2.326 . S
In0 O8 2.266 . S
In0 O9 2.326 . S
In0 O11 2.294 . S
In0 O12 2.326 . S
O1 In0 2.294 . S
O1 C10 1.240 . S
O2 In0 2.326 . S
O2 C10 1.252 . S
C3 O6 1.252 . S
C3 O7 1.260 . S
C4 O11 1.240 . S
C4 O12 1.252 . S
C5 O8 1.252 . S
C5 O9 1.260 . S
O6 In0 2.266 . S
O6 C3 1.252 . S
O7 In0 2.326 . S
O7 C3 1.260 . S
O8 In0 2.266 . S
O8 C5 1.252 . S
O9 In0 2.326 . S
O9 C5 1.260 . S
C10 O1 1.240 . S
C10 O2 1.252 . S
O11 In0 2.294 . S
O11 C4 1.240 . S
O12 In0 2.326 . S
O12 C4 1.252 . S
In13 O14 2.294 . S
In13 O15 2.326 . S
In13 O19 2.266 . S
In13 O20 2.326 . S
In13 O21 2.266 . S
In13 O22 2.326 1_565 S
In13 O24 2.294 . S
In13 O25 2.326 . S
O14 In13 2.294 . S
O14 C23 1.240 . S
O15 In13 2.326 . S
O15 C23 1.252 . S
C16 O19 1.252 . S
C16 O20 1.260 . S
C17 O24 1.240 . S
C17 O25 1.252 . S
C18 O21 1.252 . S
C18 O22 1.260 1_565 S
O19 In13 2.266 . S
O19 C16 1.252 . S
O20 In13 2.326 . S
O20 C16 1.260 . S
O21 In13 2.266 . S
O21 C18 1.252 . S
O22 In13 2.326 1_545 S
O22 C18 1.260 1_545 S
C23 O14 1.240 . S
C23 O15 1.252 . S
O24 In13 2.294 . S
O24 C17 1.240 . S
O25 In13 2.326 . S
O25 C17 1.252 . S
In26 O27 2.294 . S
In26 O28 2.326 . S
In26 O32 2.266 . S
In26 O33 2.326 . S
In26 O34 2.266 . S
In26 O35 2.326 . S
In26 O37 2.294 . S
In26 O38 2.326 . S
O27 In26 2.294 . S
O27 C36 1.240 . S
O28 In26 2.326 . S
O28 C36 1.252 . S
C29 O32 1.252 . S
C29 O33 1.260 . S
C30 O37 1.240 . S
C30 O38 1.252 . S
C31 O34 1.252 . S
C31 O35 1.260 . S
O32 In26 2.266 . S
O32 C29 1.252 . S
O33 In26 2.326 . S
O33 C29 1.260 . S
O34 In26 2.266 . S
O34 C31 1.252 . S
O35 In26 2.326 . S
O35 C31 1.260 . S
C36 O27 1.240 . S
C36 O28 1.252 . S
O37 In26 2.294 . S
O37 C30 1.240 . S
O38 In26 2.326 . S
O38 C30 1.252 . S
In39 O40 2.294 . S
In39 O41 2.326 . S
In39 O45 2.266 . S
In39 O46 2.326 . S
In39 O47 2.266 . S
In39 O48 2.326 1_545 S
In39 O50 2.294 . S
In39 O51 2.326 . S
O40 In39 2.294 . S
O40 C49 1.240 . S
O41 In39 2.326 . S
O41 C49 1.252 . S
C42 O45 1.252 . S
C42 O46 1.260 . S
C43 O50 1.240 . S
C43 O51 1.252 . S
C44 O47 1.252 . S
C44 O48 1.260 1_545 S
O45 In39 2.266 . S
O45 C42 1.252 . S
O46 In39 2.326 . S
O46 C42 1.260 . S
O47 In39 2.266 . S
O47 C44 1.252 . S
O48 In39 2.326 1_565 S
O48 C44 1.260 1_565 S
C49 O40 1.240 . S
C49 O41 1.252 . S
O50 In39 2.294 . S
O50 C43 1.240 . S
O51 In39 2.326 . S
O51 C43 1.252 . S
In52 O53 2.294 . S
In52 O54 2.326 . S
In52 O58 2.266 . S
In52 O59 2.326 . S
In52 O60 2.266 . S
In52 O61 2.326 . S
In52 O63 2.294 . S
In52 O64 2.326 . S
O53 In52 2.294 . S
O53 C62 1.240 . S
O54 In52 2.326 . S
O54 C62 1.252 . S
C55 O58 1.252 . S
C55 O59 1.260 . S
C56 O63 1.240 . S
C56 O64 1.252 . S
C57 O60 1.252 . S
C57 O61 1.260 . S
O58 In52 2.266 . S
O58 C55 1.252 . S
O59 In52 2.326 . S
O59 C55 1.260 . S
O60 In52 2.266 . S
O60 C57 1.252 . S
O61 In52 2.326 . S
O61 C57 1.260 . S
C62 O53 1.240 . S
C62 O54 1.252 . S
O63 In52 2.294 . S
O63 C56 1.240 . S
O64 In52 2.326 . S
O64 C56 1.252 . S
In65 O66 2.294 . S
In65 O67 2.326 . S
In65 O71 2.266 . S
In65 O72 2.326 . S
In65 O73 2.266 . S
In65 O74 2.326 1_545 S
In65 O76 2.294 . S
In65 O77 2.326 . S
O66 In65 2.294 . S
O66 C75 1.240 . S
O67 In65 2.326 . S
O67 C75 1.252 . S
C68 O71 1.252 . S
C68 O72 1.260 . S
C69 O76 1.240 . S
C69 O77 1.252 . S
C70 O73 1.252 . S
C70 O74 1.260 1_545 S
O71 In65 2.266 . S
O71 C68 1.252 . S
O72 In65 2.326 . S
O72 C68 1.260 . S
O73 In65 2.266 . S
O73 C70 1.252 . S
O74 In65 2.326 1_565 S
O74 C70 1.260 1_565 S
C75 O66 1.240 . S
C75 O67 1.252 . S
O76 In65 2.294 . S
O76 C69 1.240 . S
O77 In65 2.326 . S
O77 C69 1.252 . S
In78 O79 2.294 . S
In78 O80 2.326 . S
In78 O84 2.266 . S
In78 O85 2.326 . S
In78 O86 2.266 . S
In78 O87 2.326 . S
In78 O89 2.294 . S
In78 O90 2.326 . S
O79 In78 2.294 . S
O79 C88 1.240 . S
O80 In78 2.326 . S
O80 C88 1.252 . S
C81 O84 1.252 . S
C81 O85 1.260 . S
C82 O89 1.240 . S
C82 O90 1.252 . S
C83 O86 1.252 . S
C83 O87 1.260 . S
O84 In78 2.266 . S
O84 C81 1.252 . S
O85 In78 2.326 . S
O85 C81 1.260 . S
O86 In78 2.266 . S
O86 C83 1.252 . S
O87 In78 2.326 . S
O87 C83 1.260 . S
C88 O79 1.240 . S
C88 O80 1.252 . S
O89 In78 2.294 . S
O89 C82 1.240 . S
O90 In78 2.326 . S
O90 C82 1.252 . S
In91 O92 2.294 . S
In91 O93 2.326 . S
In91 O97 2.266 . S
In91 O98 2.326 . S
In91 O99 2.266 . S
In91 O100 2.326 1_565 S
In91 O102 2.294 . S
In91 O103 2.326 . S
O92 In91 2.294 . S
O92 C101 1.240 . S
O93 In91 2.326 . S
O93 C101 1.252 . S
C94 O97 1.252 . S
C94 O98 1.260 . S
C95 O102 1.240 . S
C95 O103 1.252 . S
C96 O99 1.252 . S
C96 O100 1.260 1_565 S
O97 In91 2.266 . S
O97 C94 1.252 . S
O98 In91 2.326 . S
O98 C94 1.260 . S
O99 In91 2.266 . S
O99 C96 1.252 . S
O100 In91 2.326 1_545 S
O100 C96 1.260 1_545 S
C101 O92 1.240 . S
C101 O93 1.252 . S
O102 In91 2.294 . S
O102 C95 1.240 . S
O103 In91 2.326 . S
O103 C95 1.252 . S
C104 C105 1.387 . S
C104 H108 0.950 . S
C104 C113 1.390 . S
C105 C104 1.387 . S
C105 C107 1.387 . S
H106 C113 0.950 . S
C107 C105 1.387 . S
C107 C109 1.390 . S
C107 H111 0.950 . S
H108 C104 0.950 . S
C109 C107 1.390 . S
C109 C110 1.387 . S
C109 H112 0.950 . S
C110 C109 1.387 . S
C110 C113 1.387 . S
H111 C107 0.950 . S
H112 C109 0.950 . S
C113 C104 1.390 . S
C113 H106 0.950 . S
C113 C110 1.387 . S
C114 C115 1.387 . S
C114 H118 0.950 . S
C114 C123 1.390 . S
C115 C114 1.387 . S
C115 C117 1.387 1_545 S
H116 C123 0.950 . S
C117 C115 1.387 1_565 S
C117 C119 1.390 . S
C117 H121 0.950 . S
H118 C114 0.950 . S
C119 C117 1.390 . S
C119 C120 1.387 . S
C119 H122 0.950 . S
C120 C119 1.387 . S
C120 C123 1.387 1_565 S
H121 C117 0.950 . S
H122 C119 0.950 . S
C123 C114 1.390 . S
C123 H116 0.950 . S
C123 C120 1.387 1_545 S
C124 C125 1.387 . S
C124 H128 0.950 . S
C124 C133 1.390 . S
C125 C124 1.387 . S
C125 C127 1.387 . S
H126 C133 0.950 . S
C127 C125 1.387 . S
C127 C129 1.390 . S
C127 H131 0.950 . S
H128 C124 0.950 . S
C129 C127 1.390 . S
C129 C130 1.387 . S
C129 H132 0.950 . S
C130 C129 1.387 . S
C130 C133 1.387 . S
H131 C127 0.950 . S
H132 C129 0.950 . S
C133 C124 1.390 . S
C133 H126 0.950 . S
C133 C130 1.387 . S
C134 C135 1.387 1_565 S
C134 H138 0.950 . S
C134 C143 1.390 . S
C135 C134 1.387 1_545 S
C135 C137 1.387 . S
H136 C143 0.950 . S
C137 C135 1.387 . S
C137 C139 1.390 . S
C137 H141 0.950 . S
H138 C134 0.950 . S
C139 C137 1.390 . S
C139 C140 1.387 1_545 S
C139 H142 0.950 . S
C140 C139 1.387 1_565 S
C140 C143 1.387 . S
H141 C137 0.950 . S
H142 C139 0.950 . S
C143 C134 1.390 . S
C143 H136 0.950 . S
C143 C140 1.387 . S
C144 C145 1.387 . S
C144 H148 0.950 . S
C144 C153 1.390 . S
C145 C144 1.387 . S
C145 C147 1.387 . S
H146 C153 0.950 . S
C147 C145 1.387 . S
C147 C149 1.390 . S
C147 H151 0.950 . S
H148 C144 0.950 . S
C149 C147 1.390 . S
C149 C150 1.387 . S
C149 H152 0.950 . S
C150 C149 1.387 . S
C150 C153 1.387 . S
H151 C147 0.950 . S
H152 C149 0.950 . S
C153 C144 1.390 . S
C153 H146 0.950 . S
C153 C150 1.387 . S
C154 C155 1.387 . S
C154 H158 0.950 . S
C154 C163 1.390 . S
C155 C154 1.387 . S
C155 C157 1.387 1_545 S
H156 C163 0.950 . S
C157 C155 1.387 1_565 S
C157 C159 1.390 . S
C157 H161 0.950 . S
H158 C154 0.950 . S
C159 C157 1.390 . S
C159 C160 1.387 . S
C159 H162 0.950 . S
C160 C159 1.387 . S
C160 C163 1.387 1_565 S
H161 C157 0.950 . S
H162 C159 0.950 . S
C163 C154 1.390 . S
C163 H156 0.950 . S
C163 C160 1.387 1_545 S
C164 C165 1.387 . S
C164 H168 0.950 . S
C164 C173 1.390 . S
C165 C164 1.387 . S
C165 C167 1.387 . S
H166 C173 0.950 . S
C167 C165 1.387 . S
C167 C169 1.390 . S
C167 H171 0.950 . S
H168 C164 0.950 . S
C169 C167 1.390 . S
C169 C170 1.387 . S
C169 H172 0.950 . S
C170 C169 1.387 . S
C170 C173 1.387 . S
H171 C167 0.950 . S
H172 C169 0.950 . S
C173 C164 1.390 . S
C173 H166 0.950 . S
C173 C170 1.387 . S
C174 C175 1.387 1_545 S
C174 H178 0.950 . S
C174 C183 1.390 . S
C175 C174 1.387 1_565 S
C175 C177 1.387 . S
H176 C183 0.950 . S
C177 C175 1.387 . S
C177 C179 1.390 . S
C177 H181 0.950 . S
H178 C174 0.950 . S
C179 C177 1.390 . S
C179 C180 1.387 1_565 S
C179 H182 0.950 . S
C180 C179 1.387 1_545 S
C180 C183 1.387 . S
H181 C177 0.950 . S
H182 C179 0.950 . S
C183 C174 1.390 . S
C183 H176 0.950 . S
C183 C180 1.387 . S
C184 C185 1.387 . S
C184 H188 0.950 . S
C184 C193 1.390 . S
C185 C184 1.387 . S
C185 C187 1.387 1_455 S
H186 C193 0.950 . S
C187 C185 1.387 1_655 S
C187 C189 1.390 . S
C187 H191 0.950 . S
H188 C184 0.950 . S
C189 C187 1.390 . S
C189 C190 1.387 . S
C189 H192 0.950 . S
C190 C189 1.387 . S
C190 C193 1.387 1_655 S
H191 C187 0.950 . S
H192 C189 0.950 . S
C193 C184 1.390 . S
C193 H186 0.950 . S
C193 C190 1.387 1_455 S
C194 C195 1.387 1_545 S
C194 H198 0.950 . S
C194 C203 1.390 . S
C195 C194 1.387 1_565 S
C195 C197 1.387 . S
H196 C203 0.950 . S
C197 C195 1.387 . S
C197 C199 1.390 . S
C197 H201 0.950 . S
H198 C194 0.950 . S
C199 C197 1.390 . S
C199 C200 1.387 1_565 S
C199 H202 0.950 . S
C200 C199 1.387 1_545 S
C200 C203 1.387 . S
H201 C197 0.950 . S
H202 C199 0.950 . S
C203 C194 1.390 . S
C203 H196 0.950 . S
C203 C200 1.387 . S
C204 C205 1.387 . S
C204 H208 0.950 . S
C204 C213 1.405 . S
C205 C204 1.387 . S
C205 C207 1.372 1_554 S
H206 C213 0.950 . S
C207 C205 1.372 1_556 S
C207 C209 1.405 . S
C207 H211 0.950 . S
H208 C204 0.950 . S
C209 C207 1.405 . S
C209 C210 1.387 . S
C209 H212 0.950 . S
C210 C209 1.387 . S
C210 C213 1.372 1_556 S
H211 C207 0.950 . S
H212 C209 0.950 . S
C213 C204 1.405 . S
C213 H206 0.950 . S
C213 C210 1.372 1_554 S
C214 C215 1.387 . S
C214 H218 0.950 . S
C214 C223 1.390 1_456 S
C215 C214 1.387 . S
C215 C217 1.387 1_565 S
H216 C223 0.950 . S
C217 C215 1.387 1_545 S
C217 C219 1.390 1_456 S
C217 H221 0.950 . S
H218 C214 0.950 . S
C219 C217 1.390 1_654 S
C219 C220 1.387 . S
C219 H222 0.950 . S
C220 C219 1.387 . S
C220 C223 1.387 1_545 S
H221 C217 0.950 . S
H222 C219 0.950 . S
C223 C214 1.390 1_654 S
C223 H216 0.950 . S
C223 C220 1.387 1_565 S
C224 C225 1.387 . S
C224 H228 0.950 . S
C224 C233 1.390 . S
C225 C224 1.387 . S
C225 C227 1.387 . S
H226 C233 0.950 . S
C227 C225 1.387 . S
C227 C229 1.390 . S
C227 H231 0.950 . S
H228 C224 0.950 . S
C229 C227 1.390 . S
C229 C230 1.387 . S
C229 H232 0.950 . S
C230 C229 1.387 . S
C230 C233 1.387 . S
H231 C227 0.950 . S
H232 C229 0.950 . S
C233 C224 1.390 . S
C233 H226 0.950 . S
C233 C230 1.387 . S
C234 C235 1.387 . S
C234 H238 0.950 . S
C234 C243 1.390 . S
C235 C234 1.387 . S
C235 C237 1.387 . S
H236 C243 0.950 . S
C237 C235 1.387 . S
C237 C239 1.390 . S
C237 H241 0.950 . S
H238 C234 0.950 . S
C239 C237 1.390 . S
C239 C240 1.387 . S
C239 H242 0.950 . S
C240 C239 1.387 . S
C240 C243 1.387 . S
H241 C237 0.950 . S
H242 C239 0.950 . S
C243 C234 1.390 . S
C243 H236 0.950 . S
C243 C240 1.387 . S
C244 C245 1.387 . S
C244 H248 0.950 . S
C244 C253 1.390 . S
C245 C244 1.387 . S
C245 C247 1.387 . S
H246 C253 0.950 . S
C247 C245 1.387 . S
C247 C249 1.390 . S
C247 H251 0.950 . S
H248 C244 0.950 . S
C249 C247 1.390 . S
C249 C250 1.387 . S
C249 H252 0.950 . S
C250 C249 1.387 . S
C250 C253 1.387 . S
H251 C247 0.950 . S
H252 C249 0.950 . S
C253 C244 1.390 . S
C253 H246 0.950 . S
C253 C250 1.387 . S
C254 C255 1.387 . S
C254 H258 0.950 . S
C254 C263 1.390 . S
C255 C254 1.387 . S
C255 C257 1.387 . S
H256 C263 0.950 . S
C257 C255 1.387 . S
C257 C259 1.390 . S
C257 H261 0.950 . S
H258 C254 0.950 . S
C259 C257 1.390 . S
C259 C260 1.387 . S
C259 H262 0.950 . S
C260 C259 1.387 . S
C260 C263 1.387 . S
H261 C257 0.950 . S
H262 C259 0.950 . S
C263 C254 1.390 . S
C263 H256 0.950 . S
C263 C260 1.387 . S
C105 C10 1.543 . S
C110 C29 1.544 . S
C115 C44 1.544 1_455 S
C120 C23 1.543 . S
C125 C30 1.543 . S
C130 C5 1.544 1_655 S
C135 C49 1.543 . S
C140 C18 1.544 . S
C145 C83 1.544 . S
C150 C56 1.543 . S
C155 C75 1.543 . S
C160 C96 1.544 1_655 S
C165 C88 1.543 . S
C170 C55 1.544 1_455 S
C175 C101 1.543 . S
C180 C70 1.544 . S
C185 C3 1.519 . S
C190 C57 1.519 . S
C195 C16 1.519 . S
C200 C68 1.519 . S
C205 C31 1.519 . S
C210 C81 1.519 . S
C215 C94 1.519 . S
C220 C42 1.519 . S
C225 C4 1.520 . S
C230 C17 1.520 . S
C235 C43 1.520 . S
C240 C36 1.520 . S
C245 C69 1.520 . S
C250 C62 1.520 . S
C255 C82 1.521 . S
C260 C95 1.521 . S
