# Generated by pormake.
# Topology wiu, (6)-cn, num edge types: 1
# Building blocks:
#     Node 0, Type 0, BuildingBlock: KUMBOL_clean_sbu_0, # of connection points: 6
#     Node 1, Type 0, BuildingBlock: KUMBOL_clean_sbu_0, # of connection points: 6
#     Node 2, Type 0, BuildingBlock: KUMBOL_clean_sbu_0, # of connection points: 6
#     Node 3, Type 0, BuildingBlock: KUMBOL_clean_sbu_0, # of connection points: 6
#     Node 4, Type 0, BuildingBlock: KUMBOL_clean_sbu_0, # of connection points: 6
#     Node 5, Type 0, BuildingBlock: KUMBOL_clean_sbu_0, # of connection points: 6
#     Node 6, Type 0, BuildingBlock: KUMBOL_clean_sbu_0, # of connection points: 6
#     Node 7, Type 0, BuildingBlock: KUMBOL_clean_sbu_0, # of connection points: 6
#     Node 8, Type 0, BuildingBlock: KUMBOL_clean_sbu_0, # of connection points: 6
#     Node 9, Type 0, BuildingBlock: KUMBOL_clean_sbu_0, # of connection points: 6
#     Node 10, Type 0, BuildingBlock: KUMBOL_clean_sbu_0, # of connection points: 6
#     Node 11, Type 0, BuildingBlock: KUMBOL_clean_sbu_0, # of connection points: 6
#     Node 12, Type 0, BuildingBlock: KUMBOL_clean_sbu_0, # of connection points: 6
#     Node 13, Type 0, BuildingBlock: KUMBOL_clean_sbu_0, # of connection points: 6
#     Node 14, Type 0, BuildingBlock: KUMBOL_clean_sbu_0, # of connection points: 6
#     Node 15, Type 0, BuildingBlock: KUMBOL_clean_sbu_0, # of connection points: 6
#     Edge 16, Type (0, 0), BuildingBlock: UVAHIK_clean_linker_0, # of connection points: 2
#     Edge 17, Type (0, 0), BuildingBlock: UVAHIK_clean_linker_0, # of connection points: 2
#     Edge 18, Type (0, 0), BuildingBlock: UVAHIK_clean_linker_0, # of connection points: 2
#     Edge 19, Type (0, 0), BuildingBlock: UVAHIK_clean_linker_0, # of connection points: 2
#     Edge 20, Type (0, 0), BuildingBlock: UVAHIK_clean_linker_0, # of connection points: 2
#     Edge 21, Type (0, 0), BuildingBlock: UVAHIK_clean_linker_0, # of connection points: 2
#     Edge 22, Type (0, 0), BuildingBlock: UVAHIK_clean_linker_0, # of connection points: 2
#     Edge 23, Type (0, 0), BuildingBlock: UVAHIK_clean_linker_0, # of connection points: 2
#     Edge 24, Type (0, 0), BuildingBlock: UVAHIK_clean_linker_0, # of connection points: 2
#     Edge 25, Type (0, 0), BuildingBlock: UVAHIK_clean_linker_0, # of connection points: 2
#     Edge 26, Type (0, 0), BuildingBlock: UVAHIK_clean_linker_0, # of connection points: 2
#     Edge 27, Type (0, 0), BuildingBlock: UVAHIK_clean_linker_0, # of connection points: 2
#     Edge 28, Type (0, 0), BuildingBlock: UVAHIK_clean_linker_0, # of connection points: 2
#     Edge 29, Type (0, 0), BuildingBlock: UVAHIK_clean_linker_0, # of connection points: 2
#     Edge 30, Type (0, 0), BuildingBlock: UVAHIK_clean_linker_0, # of connection points: 2
#     Edge 31, Type (0, 0), BuildingBlock: UVAHIK_clean_linker_0, # of connection points: 2
#     Edge 32, Type (0, 0), BuildingBlock: UVAHIK_clean_linker_0, # of connection points: 2
#     Edge 33, Type (0, 0), BuildingBlock: UVAHIK_clean_linker_0, # of connection points: 2
#     Edge 34, Type (0, 0), BuildingBlock: UVAHIK_clean_linker_0, # of connection points: 2
#     Edge 35, Type (0, 0), BuildingBlock: UVAHIK_clean_linker_0, # of connection points: 2
#     Edge 36, Type (0, 0), BuildingBlock: UVAHIK_clean_linker_0, # of connection points: 2
#     Edge 37, Type (0, 0), BuildingBlock: UVAHIK_clean_linker_0, # of connection points: 2
#     Edge 38, Type (0, 0), BuildingBlock: UVAHIK_clean_linker_0, # of connection points: 2
#     Edge 39, Type (0, 0), BuildingBlock: UVAHIK_clean_linker_0, # of connection points: 2
#     Edge 40, Type (0, 0), BuildingBlock: UVAHIK_clean_linker_0, # of connection points: 2
#     Edge 41, Type (0, 0), BuildingBlock: UVAHIK_clean_linker_0, # of connection points: 2
#     Edge 42, Type (0, 0), BuildingBlock: UVAHIK_clean_linker_0, # of connection points: 2
#     Edge 43, Type (0, 0), BuildingBlock: UVAHIK_clean_linker_0, # of connection points: 2
#     Edge 44, Type (0, 0), BuildingBlock: UVAHIK_clean_linker_0, # of connection points: 2
#     Edge 45, Type (0, 0), BuildingBlock: UVAHIK_clean_linker_0, # of connection points: 2
#     Edge 46, Type (0, 0), BuildingBlock: UVAHIK_clean_linker_0, # of connection points: 2
#     Edge 47, Type (0, 0), BuildingBlock: UVAHIK_clean_linker_0, # of connection points: 2
#     Edge 48, Type (0, 0), BuildingBlock: UVAHIK_clean_linker_0, # of connection points: 2
#     Edge 49, Type (0, 0), BuildingBlock: UVAHIK_clean_linker_0, # of connection points: 2
#     Edge 50, Type (0, 0), BuildingBlock: UVAHIK_clean_linker_0, # of connection points: 2
#     Edge 51, Type (0, 0), BuildingBlock: UVAHIK_clean_linker_0, # of connection points: 2
#     Edge 52, Type (0, 0), BuildingBlock: UVAHIK_clean_linker_0, # of connection points: 2
#     Edge 53, Type (0, 0), BuildingBlock: UVAHIK_clean_linker_0, # of connection points: 2
#     Edge 54, Type (0, 0), BuildingBlock: UVAHIK_clean_linker_0, # of connection points: 2
#     Edge 55, Type (0, 0), BuildingBlock: UVAHIK_clean_linker_0, # of connection points: 2
#     Edge 56, Type (0, 0), BuildingBlock: UVAHIK_clean_linker_0, # of connection points: 2
#     Edge 57, Type (0, 0), BuildingBlock: UVAHIK_clean_linker_0, # of connection points: 2
#     Edge 58, Type (0, 0), BuildingBlock: UVAHIK_clean_linker_0, # of connection points: 2
#     Edge 59, Type (0, 0), BuildingBlock: UVAHIK_clean_linker_0, # of connection points: 2
#     Edge 60, Type (0, 0), BuildingBlock: UVAHIK_clean_linker_0, # of connection points: 2
#     Edge 61, Type (0, 0), BuildingBlock: UVAHIK_clean_linker_0, # of connection points: 2
#     Edge 62, Type (0, 0), BuildingBlock: UVAHIK_clean_linker_0, # of connection points: 2
#     Edge 63, Type (0, 0), BuildingBlock: UVAHIK_clean_linker_0, # of connection points: 2
# Relax obj value: 0.289
# Max RMSD: 0.285
# Mean RMSD: 0.285
data_MOF--net-wiu--node1-KUMBOL_clean_sbu_0--edge1-UVAHIK_clean_linker_0
_symmetry_space_group_name_H-M    P1
_symmetry_Int_Tables_number       1
_symmetry_cell_setting            triclinic
loop_
_symmetry_equiv_pos_as_xyz
'x, y, z'
_cell_length_a     45.978304
_cell_length_b     45.950383
_cell_length_c     68.107449
_cell_angle_alpha  89.795952
_cell_angle_beta   89.717072
_cell_angle_gamma 90.108894
loop_
_atom_site_label
_atom_site_type_symbol
_atom_site_fract_x
_atom_site_fract_y
_atom_site_fract_z
_atom_type_partial_charge
Gd0 Gd 0.35256 0.07723 0.25478 0.0
Gd1 Gd 0.30699 0.13727 0.26857 0.0
C2 C 0.21882 0.15654 0.24079 0.0
C3 C 0.23286 0.18003 0.21015 0.0
C4 C 0.26984 0.1636 0.23307 0.0
C5 C 0.24844 0.15313 0.24557 0.0
C6 C 0.26226 0.17783 0.21544 0.0
C7 C 0.21117 0.16937 0.2228 0.0
C8 C 0.19776 0.14788 0.25454 0.0
C9 C 0.20646 0.13735 0.27284 0.0
N10 N 0.25655 0.14115 0.26292 0.0
C11 C 0.23609 0.13475 0.27697 0.0
H12 H 0.24282 0.12671 0.29118 0.0
C13 C 0.31973 0.17318 0.22745 0.0
N14 N 0.29807 0.1608 0.23848 0.0
C15 C 0.31324 0.18799 0.21004 0.0
C16 C 0.28441 0.18999 0.20385 0.0
H17 H 0.34212 0.17148 0.2319 0.0
H18 H 0.18854 0.17188 0.21877 0.0
H19 H 0.4026 0.10685 0.28651 0.0
H20 H 0.17479 0.1501 0.25141 0.0
H21 H 0.19039 0.13136 0.28379 0.0
H22 H 0.22664 0.19053 0.19654 0.0
H23 H 0.323 0.01577 0.23775 0.0
H24 H 0.42797 0.04086 0.3268 0.0
H25 H 0.43209 0.09108 0.3141 0.0
H26 H 0.37371 0.95734 0.30689 0.0
H27 H 0.33052 0.19751 0.20128 0.0
H28 H 0.27946 0.2012 0.19026 0.0
H29 H 0.40535 0.99154 0.32445 0.0
H30 H 0.31804 0.96429 0.24775 0.0
N31 N 0.38204 0.06554 0.28219 0.0
C32 C 0.41516 0.04744 0.31424 0.0
C33 C 0.41759 0.07577 0.30708 0.0
C34 C 0.39627 0.02793 0.30511 0.0
C35 C 0.38004 0.03756 0.28876 0.0
C36 C 0.40077 0.08455 0.29108 0.0
N37 N 0.34743 0.02774 0.26294 0.0
C38 C 0.36197 0.01827 0.27901 0.0
C39 C 0.33019 0.97928 0.2568 0.0
C40 C 0.34338 0.96957 0.27402 0.0
C41 C 0.33293 0.00845 0.25123 0.0
C42 C 0.35999 0.98895 0.28515 0.0
H43 H 0.34136 0.9469 0.27825 0.0
O44 O 0.38387 0.04747 0.24167 0.0
O45 O 0.32398 0.11263 0.2425 0.0
O46 O 0.27729 0.09843 0.26662 0.0
O47 O 0.30823 0.05814 0.26349 0.0
O48 O 0.31747 0.07023 0.2324 0.0
O49 O 0.37446 0.08815 0.22734 0.0
O50 O 0.31122 0.18433 0.27187 0.0
O51 O 0.33994 0.10516 0.27997 0.0
O52 O 0.38281 0.11655 0.25595 0.0
O53 O 0.35291 0.15484 0.26538 0.0
O54 O 0.30233 0.1113 0.29668 0.0
O55 O 0.29799 0.15797 0.29651 0.0
C56 C 0.30924 0.0969 0.2305 0.0
C57 C 0.37526 0.97968 0.30182 0.0
C58 C 0.39335 0.99912 0.31178 0.0
C59 C 0.38577 0.0624 0.2255 0.0
C60 C 0.37909 0.04626 0.20736 0.0
C61 C 0.35653 0.05516 0.19485 0.0
C62 C 0.39424 0.02055 0.20312 0.0
C63 C 0.38678 1.00355 0.18672 0.0
C64 C 0.3487 0.03822 0.17877 0.0
C65 C 0.36359 0.0125 0.17475 0.0
C66 C 0.28225 0.0701 0.26635 0.0
C67 C 0.32645 0.09713 0.29562 0.0
C68 C 0.30111 0.18424 0.28972 0.0
C69 C 0.27775 0.20533 0.29427 0.0
C70 C 0.25164 0.19613 0.30317 0.0
C71 C 0.28173 0.23512 0.29005 0.0
C72 C 0.25973 0.25547 0.29446 0.0
C73 C 0.22957 0.21599 0.30713 0.0
C74 C 0.23344 0.24538 0.30275 0.0
C75 C 0.37859 0.14437 0.2602 0.0
H76 H 0.34469 0.07502 0.19756 0.0
H77 H 0.41214 0.01411 0.21247 0.0
H78 H 0.33105 0.0451 0.16938 0.0
H79 H 0.35708 0.99973 0.16217 0.0
H80 H 0.24819 0.17361 0.30719 0.0
H81 H 0.30216 0.24243 0.28371 0.0
H82 H 0.20938 0.20859 0.31372 0.0
H83 H 0.21573 0.26021 0.30582 0.0
Gd84 Gd 0.67764 0.61528 0.5041 0.0
Gd85 Gd 0.62198 0.56175 0.51441 0.0
C86 C 0.60856 0.47013 0.49037 0.0
C87 C 0.58757 0.47983 0.45832 0.0
C88 C 0.59984 0.51985 0.48008 0.0
C89 C 0.60993 0.50032 0.4939 0.0
C90 C 0.58811 0.50982 0.46224 0.0
C91 C 0.59775 0.46002 0.47238 0.0
C92 C 0.61761 0.45102 0.50517 0.0
C93 C 0.62705 0.46217 0.5231 0.0
N94 N 0.62037 0.51083 0.51105 0.0
C95 C 0.62795 0.49229 0.52589 0.0
H96 H 0.63534 0.50079 0.53977 0.0
C97 C 0.58931 0.56861 0.47163 0.0
N98 N 0.60101 0.54867 0.48425 0.0
C99 C 0.57729 0.55971 0.4538 0.0
C100 C 0.57701 0.53022 0.44896 0.0
H101 H 0.5897 0.5915 0.475 0.0
H102 H 0.59676 0.43691 0.46931 0.0
H103 H 0.63269 0.62308 0.46396 0.0
H104 H 0.61689 0.42768 0.50304 0.0
H105 H 0.63364 0.44759 0.53476 0.0
H106 H 0.57893 0.47173 0.44461 0.0
H107 H 0.70206 0.64793 0.54408 0.0
H108 H 0.62483 0.71329 0.45129 0.0
H109 H 0.61483 0.662 0.44295 0.0
H110 H 0.66867 0.75892 0.50674 0.0
H111 H 0.56853 0.57566 0.44371 0.0
H112 H 0.56789 0.52341 0.43507 0.0
H113 H 0.64479 0.74921 0.47522 0.0
H114 H 0.70764 0.69755 0.55725 0.0
N115 N 0.65673 0.65088 0.48298 0.0
C116 C 0.63376 0.69605 0.46032 0.0
C117 C 0.62819 0.66715 0.45552 0.0
C118 C 0.6493 0.70235 0.47735 0.0
C119 C 0.66034 0.67906 0.48867 0.0
C120 C 0.63925 0.64485 0.46729 0.0
N121 N 0.68099 0.66168 0.51808 0.0
C122 C 0.673 0.6846 0.5067 0.0
C123 C 0.69754 0.69423 0.54311 0.0
C124 C 0.68852 0.71803 0.53193 0.0
C125 C 0.69385 0.66608 0.53581 0.0
C126 C 0.6761 0.71342 0.51347 0.0
H127 H 0.69132 0.73984 0.53763 0.0
O128 O 0.71744 0.60816 0.52066 0.0
O129 O 0.64854 0.58266 0.49084 0.0
O130 O 0.66112 0.53462 0.50836 0.0
O131 O 0.69817 0.56994 0.50762 0.0
O132 O 0.68039 0.59863 0.47248 0.0
O133 O 0.71766 0.63528 0.49438 0.0
O134 O 0.57474 0.56416 0.51658 0.0
O135 O 0.65315 0.59388 0.52819 0.0
O136 O 0.63942 0.63638 0.52011 0.0
O137 O 0.60419 0.60693 0.50721 0.0
O138 O 0.64878 0.55407 0.54203 0.0
O139 O 0.60025 0.55769 0.54267 0.0
C140 C 0.66032 0.57888 0.47392 0.0
C141 C 0.66641 0.73664 0.5018 0.0
C142 C 0.65294 0.73111 0.48381 0.0
C143 C 0.73326 0.62262 0.50791 0.0
C144 C 0.76072 0.60954 0.5009 0.0
C145 C 0.76947 0.58129 0.50618 0.0
C146 C 0.77816 0.62577 0.48795 0.0
C147 C 0.8032 0.61373 0.47947 0.0
C148 C 0.79459 0.5692 0.49783 0.0
C149 C 0.81122 0.58518 0.48427 0.0
C150 C 0.68877 0.54248 0.5077 0.0
C151 C 0.66221 0.57878 0.54267 0.0
C152 C 0.57426 0.55823 0.53525 0.0
C153 C 0.55371 0.53534 0.54171 0.0
C154 C 0.5636 0.50998 0.55111 0.0
C155 C 0.52371 0.53894 0.53851 0.0
C156 C 0.5037 0.51725 0.54436 0.0
C157 C 0.54402 0.48829 0.55673 0.0
C158 C 0.51435 0.49174 0.55331 0.0
C159 C 0.61216 0.63229 0.51457 0.0
H160 H 0.75678 0.5684 0.51645 0.0
H161 H 0.77165 0.64766 0.48387 0.0
H162 H 0.80094 0.54725 0.50168 0.0
H163 H 0.83028 0.5754 0.47764 0.0
H164 H 0.58642 0.50686 0.55419 0.0
H165 H 0.51604 0.55882 0.53168 0.0
H166 H 0.55188 0.46867 0.56374 0.0
H167 H 0.4998 0.47423 0.55753 0.0
Gd168 Gd 0.15282 0.92879 0.75546 0.0
Gd169 Gd 0.20027 0.86811 0.76822 0.0
C170 C 0.27786 0.84494 0.72916 0.0
C171 C 0.25479 0.82081 0.70166 0.0
C172 C 0.22554 0.83814 0.72917 0.0
C173 C 0.25033 0.84896 0.73801 0.0
C174 C 0.22761 0.82368 0.71093 0.0
C175 C 0.27987 0.83136 0.71078 0.0
C176 C 0.30267 0.85398 0.73929 0.0
C177 C 0.29975 0.86556 0.75809 0.0
N178 N 0.24774 0.86237 0.75563 0.0
C179 C 0.27203 0.86901 0.76623 0.0
H180 H 0.26989 0.87725 0.78099 0.0
C181 C 0.17477 0.8302 0.73025 0.0
N182 N 0.19944 0.84165 0.73835 0.0
C183 C 0.17583 0.81561 0.71229 0.0
C184 C 0.20232 0.81249 0.70252 0.0
H185 H 0.15392 0.83255 0.73717 0.0
H186 H 0.30078 0.82842 0.70366 0.0
H187 H 0.09899 0.91124 0.72458 0.0
H188 H 0.32418 0.85121 0.733 0.0
H189 H 0.31883 0.87163 0.76638 0.0
H190 H 0.25669 0.81009 0.68757 0.0
H191 H 0.16988 0.97807 0.79001 0.0
H192 H 0.01745 0.92713 0.75323 0.0
H193 H 0.04521 0.90987 0.72434 0.0
H194 H 0.04532 0.97805 0.81136 0.0
H195 H 0.15612 0.80696 0.70593 0.0
H196 H 0.20301 0.80134 0.68853 0.0
H197 H 0.01773 0.95191 0.78606 0.0
H198 H 0.14567 0.00536 0.81641 0.0
N199 N 0.10153 0.92783 0.75367 0.0
C200 C 0.04101 0.92761 0.75345 0.0
C201 C 0.05658 0.918 0.73707 0.0
C202 C 0.05599 0.93921 0.76947 0.0
C203 C 0.08667 0.93929 0.76904 0.0
C204 C 0.08698 0.91893 0.73722 0.0
N205 N 0.13156 0.95537 0.78141 0.0
C206 C 0.10222 0.95359 0.78339 0.0
C207 C 0.1332 0.99062 0.80738 0.0
C208 C 0.10348 0.98688 0.81078 0.0
C209 C 0.14687 0.97492 0.79239 0.0
C210 C 0.08744 0.96878 0.79839 0.0
H211 H 0.09296 0.99902 0.82242 0.0
O212 O 0.16513 0.97412 0.75185 0.0
O213 O 0.1894 0.90071 0.7449 0.0
O214 O 0.22904 0.90778 0.76574 0.0
O215 O 0.19591 0.94636 0.76709 0.0
O216 O 0.15684 0.90834 0.72519 0.0
O217 O 0.14206 0.95197 0.72865 0.0
O218 O 0.19609 0.82184 0.77504 0.0
O219 O 0.16805 0.9004 0.78029 0.0
O220 O 0.12307 0.88925 0.75957 0.0
O221 O 0.15353 0.85144 0.76944 0.0
O222 O 0.20383 0.89049 0.79754 0.0
O223 O 0.22158 0.85007 0.79371 0.0
C224 C 0.18224 0.89699 0.72711 0.0
C225 C 0.057 0.96694 0.79975 0.0
C226 C 0.04128 0.95209 0.78532 0.0
C227 C 0.15567 0.9755 0.7339 0.0
C228 C 0.17551 0.988 0.7192 0.0
C229 C 0.20434 0.9785 0.71734 0.0
C230 C 0.16473 0.00875 0.70611 0.0
C231 C 0.18245 0.02036 0.69111 0.0
C232 C 0.22235 0.99025 0.70273 0.0
C233 C 0.21152 0.01105 0.68963 0.0
C234 C 0.22275 0.93576 0.7677 0.0
C235 C 0.18029 0.90569 0.79682 0.0
C236 C 0.21441 0.82333 0.78959 0.0
C237 C 0.23794 0.80132 0.79034 0.0
C238 C 0.26632 0.80943 0.79579 0.0
C239 C 0.23193 0.77174 0.78661 0.0
C240 C 0.25402 0.75063 0.78833 0.0
C241 C 0.28835 0.78876 0.79692 0.0
C242 C 0.28232 0.7596 0.79323 0.0
C243 C 0.1275 0.8619 0.76504 0.0
H244 H 0.21279 0.96192 0.72706 0.0
H245 H 0.14201 0.0149 0.70718 0.0
H246 H 0.24463 0.9829 0.70138 0.0
H247 H 0.2257 0.01957 0.67824 0.0
H248 H 0.27161 0.83171 0.79939 0.0
H249 H 0.21 0.76507 0.78295 0.0
H250 H 0.31015 0.79534 0.80091 0.0
H251 H 0.29988 0.74398 0.79425 0.0
Gd252 Gd 0.82872 0.40094 1.00309 0.0
Gd253 Gd 0.8901 0.44668 1.01677 0.0
C254 C 0.92064 0.5268 0.98265 0.0
C255 C 0.94421 0.50543 0.95417 0.0
C256 C 0.92366 0.47433 0.97975 0.0
C257 C 0.91418 0.49866 0.98981 0.0
C258 C 0.93918 0.47751 0.96193 0.0
C259 C 0.93506 0.53004 0.96455 0.0
C260 C 0.91325 0.55083 0.9942 0.0
C261 C 0.90069 0.54641 1.01268 0.0
N262 N 0.90001 0.49486 1.00713 0.0
C263 C 0.89463 0.51808 1.01907 0.0
H264 H 0.88455 0.51468 1.03327 0.0
C265 C 0.92985 0.42331 0.97899 0.0
N266 N 0.91851 0.44762 0.98767 0.0
C267 C 0.94525 0.42539 0.96129 0.0
C268 C 0.94964 0.45256 0.95259 0.0
H269 H 0.92646 0.40206 0.9852 0.0
H270 H 0.93984 0.55148 0.95869 0.0
H271 H 0.84239 0.33541 0.98271 0.0
H272 H 0.91791 0.57279 0.98925 0.0
H273 H 0.89555 0.56478 1.02196 0.0
H274 H 0.9558 0.50825 0.9404 0.0
H275 H 0.77826 0.43454 1.03135 0.0
H276 H 0.81512 0.26875 1.0228 0.0
H277 H 0.83838 0.28338 0.99147 0.0
H278 H 0.76012 0.32138 1.07059 0.0
H279 H 0.95358 0.40597 0.95431 0.0
H280 H 0.96156 0.45408 0.93885 0.0
H281 H 0.78634 0.28322 1.05255 0.0
H282 H 0.7453 0.423 1.05856 0.0
N283 N 0.82396 0.35032 1.00963 0.0
C284 C 0.81729 0.29164 1.01919 0.0
C285 C 0.83032 0.29979 1.00147 0.0
C286 C 0.80549 0.31305 1.03139 0.0
C287 C 0.80899 0.3426 1.02604 0.0
C288 C 0.8326 0.32927 0.99661 0.0
N289 N 0.79661 0.39192 1.02973 0.0
C290 C 0.79446 0.36403 1.03624 0.0
C291 C 0.75917 0.40622 1.05254 0.0
C292 C 0.75833 0.37814 1.06032 0.0
C293 C 0.77818 0.41267 1.03703 0.0
C294 C 0.7757 0.35649 1.05197 0.0
H295 H 0.74365 0.37324 1.07238 0.0
O296 O 0.78696 0.41734 0.99324 0.0
O297 O 0.8602 0.43424 0.99235 0.0
O298 O 0.85438 0.4782 1.00958 0.0
O299 O 0.81362 0.44778 1.00807 0.0
O300 O 0.85195 0.40083 0.97349 0.0
O301 O 0.80685 0.38084 0.97845 0.0
O302 O 0.93576 0.44049 1.02431 0.0
O303 O 0.85553 0.41599 1.02884 0.0
O304 O 0.86819 0.37108 1.00534 0.0
O305 O 0.9054 0.39986 1.01771 0.0
O306 O 0.86234 0.45523 1.04341 0.0
O307 O 0.90667 0.46235 1.04448 0.0
C308 C 0.86486 0.42567 0.97491 0.0
C309 C 0.77393 0.32744 1.0583 0.0
C310 C 0.7889 0.30573 1.04805 0.0
C311 C 0.78619 0.4001 0.97814 0.0
C312 C 0.78066 0.41342 0.95887 0.0
C313 C 0.79015 0.4417 0.95423 0.0
C314 C 0.76783 0.39635 0.94433 0.0
C315 C 0.76496 0.40689 0.92506 0.0
C316 C 0.78702 0.4525 0.93513 0.0
C317 C 0.77476 0.4351 0.92051 0.0
C318 C 0.82595 0.47395 1.00849 0.0
C319 C 0.84766 0.43124 1.04371 0.0
C320 C 0.93355 0.45565 1.04041 0.0
C321 C 0.95583 0.47844 1.04386 0.0
C322 C 0.94775 0.50573 1.05143 0.0
C323 C 0.98555 0.47272 1.04037 0.0
C324 C 0.00684 0.49414 1.04416 0.0
C325 C 0.96854 0.52721 1.05463 0.0
C326 C 0.9978 0.5216 1.05094 0.0
C327 C 0.89494 0.3745 1.01201 0.0
H328 H 0.80048 0.45515 0.96519 0.0
H329 H 0.7613 0.37423 0.94784 0.0
H330 H 0.79461 0.47421 0.93156 0.0
H331 H 0.77303 0.44357 0.9057 0.0
H332 H 0.92534 0.5106 1.055 0.0
H333 H 0.99209 0.45143 1.03518 0.0
H334 H 0.96197 0.54828 1.06013 0.0
H335 H 0.01339 0.53888 1.05344 0.0
Gd336 Gd 0.68245 0.87507 1.00085 0.0
Gd337 Gd 0.64193 0.93982 1.01097 0.0
C338 C 0.59848 0.98581 0.95862 0.0
C339 C 0.62007 0.03398 0.96009 0.0
C340 C 0.6327 0.99712 0.98435 0.0
C341 C 0.61449 0.97737 0.97537 0.0
C342 C 0.63546 0.02576 0.97695 0.0
C343 C 0.60158 0.01406 0.95096 0.0
C344 C 0.57986 0.96563 0.94995 0.0
C345 C 0.57791 0.93766 0.95773 0.0
N346 N 0.61263 0.94992 0.98285 0.0
C347 C 0.59471 0.93003 0.974 0.0
H348 H 0.59375 0.90772 0.97858 0.0
C349 C 0.66404 0.00805 1.01067 0.0
N350 N 0.6474 0.98853 1.00053 0.0
C351 C 0.66753 0.03658 1.0039 0.0
C352 C 0.65337 0.04543 0.98685 0.0
H353 H 0.67493 1.00144 1.02396 0.0
H354 H 0.58968 0.02073 0.93801 0.0
H355 H 0.75006 0.87513 0.98192 0.0
H356 H 0.56721 0.97128 0.93712 0.0
H357 H 0.56401 0.92165 0.95088 0.0
H358 H 0.62209 0.05579 0.95412 0.0
H359 H 0.63861 0.85322 1.03899 0.0
H360 H 0.80949 0.8526 1.0277 0.0
H361 H 0.80048 0.86753 0.99334 0.0
H362 H 0.74691 0.8267 1.08127 0.0
H363 H 0.68109 0.05172 1.01187 0.0
H364 H 0.65606 0.06758 0.98162 0.0
H365 H 0.78932 0.83742 1.06038 0.0
H366 H 0.64404 0.83231 1.07176 0.0
N367 N 0.7311 0.86705 1.00997 0.0
C368 C 0.78741 0.85637 1.02284 0.0
C369 C 0.78243 0.86482 1.00345 0.0
C370 C 0.76377 0.85173 1.03551 0.0
C371 C 0.7354 0.85703 1.02851 0.0
C372 C 0.75396 0.86943 0.9971 0.0
N373 N 0.68422 0.85618 1.03319 0.0
C374 C 0.71136 0.85086 1.04028 0.0
C375 C 0.66316 0.83742 1.06306 0.0
C376 C 0.69079 0.83264 1.07071 0.0
C377 C 0.66022 0.84924 1.04425 0.0
C378 C 0.71532 0.8394 1.05936 0.0
H379 H 0.69296 0.82381 1.0854 0.0
O380 O 0.66065 0.8435 0.98229 0.0
O381 O 0.65421 0.90917 0.98728 0.0
O382 O 0.60809 0.90322 1.0108 0.0
O383 O 0.6356 0.86184 1.00461 0.0
O384 O 0.69029 0.89636 0.97095 0.0
O385 O 0.70341 0.83403 0.99293 0.0
O386 O 0.62001 0.97296 1.02845 0.0
O387 O 0.66845 0.90431 1.02534 0.0
O388 O 0.71455 0.91203 0.99666 0.0
O389 O 0.68757 0.95468 1.00185 0.0
O390 O 0.67862 0.9471 1.03228 0.0
O391 O 0.61396 0.92762 1.03542 0.0
C392 C 0.6679 0.91349 0.97112 0.0
C393 C 0.74354 0.83509 1.06657 0.0
C394 C 0.76769 0.8413 1.0547 0.0
C395 C 0.68045 0.82366 0.98448 0.0
C396 C 0.67029 0.79476 0.99137 0.0
C397 C 0.64713 0.79235 1.00486 0.0
C398 C 0.68408 0.76926 0.9848 0.0
C399 C 0.6742 0.74173 0.99124 0.0
C400 C 0.63701 0.76522 1.01096 0.0
C401 C 0.65032 0.74003 1.00415 0.0
C402 C 0.61054 0.87475 1.00805 0.0
C403 C 0.68501 0.92039 1.0359 0.0
C404 C 0.61123 0.95419 1.04153 0.0
C405 C 0.62022 0.95882 1.06205 0.0
C406 C 0.64486 0.9756 1.06664 0.0
C407 C 0.60571 0.94372 1.07711 0.0
C408 C 0.61571 0.94498 1.09659 0.0
C409 C 0.65518 0.97658 1.08586 0.0
C410 C 0.64081 0.9613 1.10077 0.0
C411 C 0.71214 0.94074 0.99761 0.0
H412 H 0.63674 0.81123 1.01093 0.0
H413 H 0.70241 0.7708 0.97478 0.0
H414 H 0.61903 0.76373 1.02124 0.0
H415 H 0.64256 0.71918 1.00954 0.0
H416 H 0.65652 0.9875 1.05537 0.0
H417 H 0.5864 0.93123 1.07361 0.0
H418 H 0.67443 0.98918 1.08921 0.0
H419 H 0.64919 0.96243 1.11558 0.0
Gd420 Gd 0.39254 0.43988 0.76028 0.0
Gd421 Gd 0.33205 0.39035 0.76545 0.0
C422 C 0.35413 0.30112 0.79173 0.0
C423 C 0.34029 0.26866 0.76528 0.0
C424 C 0.33499 0.32106 0.76149 0.0
C425 C 0.34515 0.32529 0.78041 0.0
C426 C 0.33234 0.29271 0.75377 0.0
C427 C 0.35126 0.27286 0.78419 0.0
C428 C 0.36677 0.30604 0.81003 0.0
C429 C 0.37137 0.33449 0.81625 0.0
N430 N 0.34803 0.35302 0.78722 0.0
C431 C 0.3624 0.35771 0.80446 0.0
H432 H 0.36814 0.37912 0.80913 0.0
C433 C 0.31701 0.34156 0.73211 0.0
N434 N 0.32856 0.34475 0.75037 0.0
C435 C 0.31385 0.31394 0.72385 0.0
C436 C 0.32181 0.28939 0.73466 0.0
H437 H 0.30938 0.36026 0.72415 0.0
H438 H 0.35792 0.25411 0.79275 0.0
H439 H 0.38853 0.50411 0.73725 0.0
H440 H 0.37406 0.28809 0.81911 0.0
H441 H 0.38239 0.33861 0.82997 0.0
H442 H 0.3384 0.24674 0.7596 0.0
H443 H 0.41477 0.40329 0.8017 0.0
H444 H 0.40234 0.57147 0.7795 0.0
H445 H 0.3915 0.55644 0.74547 0.0
H446 H 0.42727 0.51895 0.8378 0.0
H447 H 0.30492 0.3116 0.70927 0.0
H448 H 0.31938 0.26799 0.72824 0.0
H449 H 0.41552 0.55728 0.81389 0.0
H450 H 0.43163 0.41505 0.83458 0.0
N451 N 0.39598 0.48995 0.76655 0.0
C452 C 0.40082 0.54854 0.776 0.0
C453 C 0.39472 0.54016 0.75677 0.0
C454 C 0.40591 0.52724 0.79032 0.0
C455 C 0.40359 0.49766 0.78504 0.0
C456 C 0.39296 0.51059 0.75218 0.0
N457 N 0.40831 0.44756 0.7929 0.0
C458 C 0.41035 0.47592 0.79849 0.0
C459 C 0.42574 0.43239 0.82458 0.0
C460 C 0.42711 0.46127 0.83066 0.0
C461 C 0.41619 0.42586 0.80565 0.0
C462 C 0.41944 0.48346 0.81761 0.0
H463 H 0.43417 0.46619 0.84544 0.0
O464 O 0.42559 0.41957 0.74173 0.0
O465 O 0.3612 0.41156 0.74354 0.0
O466 O 0.3713 0.36813 0.75143 0.0
O467 O 0.40469 0.39359 0.76918 0.0
O468 O 0.37253 0.45023 0.73021 0.0
O469 O 0.43397 0.46136 0.75418 0.0
O470 O 0.29451 0.401 0.74729 0.0
O471 O 0.36044 0.42122 0.78145 0.0
O472 O 0.35333 0.46877 0.75988 0.0
O473 O 0.31408 0.43611 0.76027 0.0
O474 O 0.32492 0.40664 0.79691 0.0
O475 O 0.2905 0.37095 0.77189 0.0
C476 C 0.35668 0.42706 0.72832 0.0
C477 C 0.42072 0.51285 0.82311 0.0
C478 C 0.41393 0.53468 0.80952 0.0
C479 C 0.44515 0.43937 0.74505 0.0
C480 C 0.47332 0.42905 0.7528 0.0
C481 C 0.47361 0.4119 0.76985 0.0
C482 C 0.49998 0.43744 0.74415 0.0
C483 C 0.52657 0.428 0.75237 0.0
C484 C 0.49959 0.40203 0.77776 0.0
C485 C 0.52589 0.40996 0.76913 0.0
C486 C 0.39706 0.36953 0.75994 0.0
C487 C 0.34595 0.42543 0.79729 0.0
C488 C 0.27676 0.38675 0.75894 0.0
C489 C 0.25069 0.40227 0.76631 0.0
C490 C 0.23655 0.4234 0.75488 0.0
C491 C 0.23955 0.39565 0.78503 0.0
C492 C 0.21489 0.4098 0.79248 0.0
C493 C 0.21178 0.43752 0.76217 0.0
C494 C 0.20082 0.43066 0.78086 0.0
C495 C 0.32521 0.46279 0.7595 0.0
H496 H 0.45377 0.40653 0.77734 0.0
H497 H 0.50004 0.4514 0.73129 0.0
H498 H 0.49935 0.38872 0.79091 0.0
H499 H 0.54578 0.40283 0.77609 0.0
H500 H 0.24459 0.42897 0.74037 0.0
H501 H 0.24979 0.37894 0.79388 0.0
H502 H 0.201 0.45379 0.75329 0.0
H503 H 0.1816 0.4417 0.78625 0.0
Gd504 Gd 0.81004 0.14588 0.49634 0.0
Gd505 Gd 0.85943 0.08754 0.50744 0.0
C506 C 0.89243 0.03107 0.45669 0.0
C507 C 0.86988 0.98448 0.46408 0.0
C508 C 0.86305 0.02558 0.48607 0.0
C509 C 0.8795 0.04307 0.4737 0.0
C510 C 0.85883 0.99586 0.48168 0.0
C511 C 0.88672 1.00204 0.45162 0.0
C512 C 0.91156 0.04823 0.44563 0.0
C513 C 0.9179 0.07638 0.4518 0.0
N514 N 0.88439 0.07122 0.4789 0.0
C515 C 0.90417 0.08757 0.46851 0.0
H516 H 0.90969 0.10942 0.47259 0.0
C517 C 0.84152 0.01925 0.51736 0.0
N518 N 0.85309 0.03703 0.50315 0.0
C519 C 0.83655 0.98979 0.51359 0.0
C520 C 0.8447 0.97815 0.4955 0.0
H521 H 0.83532 0.02785 0.53148 0.0
H522 H 0.89601 0.9927 0.43842 0.0
H523 H 0.75228 0.13702 0.46694 0.0
H524 H 0.92201 0.03976 0.43255 0.0
H525 H 0.93313 0.08967 0.44355 0.0
H526 H 0.86648 0.96183 0.46033 0.0
H527 H 0.8344 0.18035 0.53736 0.0
H528 H 0.67515 0.14849 0.50143 0.0
H529 H 0.69876 0.13667 0.46974 0.0
H530 H 0.71159 0.18332 0.56276 0.0
H531 H 0.82651 0.97607 0.52467 0.0
H532 H 0.84103 0.95525 0.49267 0.0
H533 H 0.68018 0.16553 0.53624 0.0
H534 H 0.81415 0.20019 0.56776 0.0
N535 N 0.75895 0.14724 0.49705 0.0
C536 C 0.69867 0.14844 0.50033 0.0
C537 C 0.71191 0.1418 0.48241 0.0
C538 C 0.7159 0.15622 0.51636 0.0
C539 C 0.74643 0.15576 0.51417 0.0
C540 C 0.74225 0.14192 0.4809 0.0
N541 N 0.79342 0.16631 0.52611 0.0
C542 C 0.76416 0.1658 0.52908 0.0
C543 C 0.79984 0.1905 0.55702 0.0
C544 C 0.77004 0.18869 0.56073 0.0
C545 C 0.81124 0.17921 0.53957 0.0
C546 C 0.75174 0.17655 0.54661 0.0
H547 H 0.76134 0.19718 0.57436 0.0
O548 O 0.79739 0.19106 0.49134 0.0
O549 O 0.84213 0.11427 0.48304 0.0
O550 O 0.88444 0.12827 0.49826 0.0
O551 O 0.85274 0.16445 0.5073 0.0
O552 O 0.80257 0.11947 0.46872 0.0
O553 O 0.824 0.16909 0.47008 0.0
O554 O 0.89554 0.06258 0.51929 0.0
O555 O 0.83046 0.12143 0.5211 0.0
O556 O 0.78175 0.10584 0.49896 0.0
O557 O 0.81475 0.06697 0.50217 0.0
O558 O 0.82982 0.08003 0.53349 0.0
O559 O 0.88635 0.10529 0.53059 0.0
C560 C 0.82707 0.10578 0.46836 0.0
C561 C 0.72145 0.17555 0.54928 0.0
C562 C 0.70356 0.16538 0.53419 0.0
C563 C 0.81296 0.19376 0.47548 0.0
C564 C 0.83177 0.21987 0.47386 0.0
C565 C 0.86092 0.21761 0.46769 0.0
C566 C 0.82022 0.24757 0.47791 0.0
C567 C 0.83757 0.2728 0.47607 0.0
C568 C 0.87827 0.24244 0.46601 0.0
C569 C 0.8668 0.26982 0.47022 0.0
C570 C 0.87932 0.15562 0.50312 0.0
C571 C 0.81877 0.10566 0.53464 0.0
C572 C 0.90226 0.08218 0.53218 0.0
C573 C 0.90791 0.07212 0.55221 0.0
C574 C 0.88622 0.05877 0.56366 0.0
C575 C 0.93549 0.07695 0.56016 0.0
C576 C 0.94173 0.06846 0.57951 0.0
C577 C 0.89216 0.05045 0.58298 0.0
C578 C 0.91973 0.05528 0.59091 0.0
C579 C 0.78804 0.07772 0.50019 0.0
H580 H 0.87046 0.19668 0.46433 0.0
H581 H 0.79754 0.24947 0.48212 0.0
H582 H 0.9008 0.24043 0.46152 0.0
H583 H 0.8809 0.28865 0.46902 0.0
H584 H 0.8648 0.05484 0.55775 0.0
H585 H 0.95202 0.08765 0.55129 0.0
H586 H 0.87539 0.04014 0.5918 0.0
H587 H 0.92399 0.04823 0.60581 0.0
Gd588 Gd 0.11772 0.56594 0.25807 0.0
Gd589 Gd 0.17596 0.61541 0.26953 0.0
C590 C 0.22141 0.65845 0.21674 0.0
C591 C 0.27079 0.64052 0.21997 0.0
C592 C 0.23372 0.6268 0.24394 0.0
C593 C 0.21321 0.64291 0.23385 0.0
C594 C 0.26285 0.62586 0.2373 0.0
C595 C 0.25012 0.6568 0.20972 0.0
C596 C 0.20057 0.67531 0.20716 0.0
C597 C 0.17234 0.67633 0.21457 0.0
N598 N 0.18537 0.64349 0.24074 0.0
C599 C 0.16501 0.66014 0.2313 0.0
H600 H 0.14271 0.66073 0.23595 0.0
C601 C 0.24573 0.5993 0.27213 0.0
N602 N 0.22547 0.61279 0.26061 0.0
C603 C 0.27477 0.59764 0.2661 0.0
C604 C 0.28332 0.61069 0.24848 0.0
H605 H 0.2393 0.58921 0.28581 0.0
H606 H 0.25663 0.66829 0.19649 0.0
H607 H 0.12841 0.50111 0.23724 0.0
H608 H 0.20603 0.68755 0.19401 0.0
H609 H 0.15597 0.68916 0.20717 0.0
H610 H 0.29297 0.63979 0.21455 0.0
H611 H 0.08569 0.60271 0.29479 0.0
H612 H 0.10725 0.43462 0.27923 0.0
H613 H 0.12466 0.44893 0.24612 0.0
H614 H 0.06897 0.48865 0.33357 0.0
H615 H 0.29052 0.58635 0.27508 0.0
H616 H 0.30587 0.60946 0.24385 0.0
H617 H 0.08672 0.44969 0.31192 0.0
H618 H 0.06185 0.59236 0.32651 0.0
N619 N 0.11477 0.5159 0.2653 0.0
C620 C 0.10906 0.45747 0.27543 0.0
C621 C 0.11886 0.46545 0.25673 0.0
C622 C 0.10065 0.47907 0.28873 0.0
C623 C 0.10347 0.50849 0.28305 0.0
C624 C 0.121 0.49492 0.25175 0.0
N625 N 0.09569 0.55837 0.28892 0.0
C626 C 0.09334 0.53037 0.29515 0.0
C627 C 0.07066 0.57471 0.31786 0.0
C628 C 0.06896 0.54612 0.32478 0.0
C629 C 0.08417 0.58049 0.29981 0.0
C630 C 0.08028 0.5235 0.31338 0.0
H631 H 0.05873 0.54174 0.33885 0.0
O632 O 0.07046 0.56661 0.25522 0.0
O633 O 0.14851 0.59927 0.24509 0.0
O634 O 0.13521 0.64338 0.26737 0.0
O635 O 0.09792 0.61111 0.25988 0.0
O636 O 0.1439 0.55991 0.23018 0.0
O637 O 0.09726 0.55639 0.23019 0.0
O638 O 0.20529 0.64577 0.28389 0.0
O639 O 0.14261 0.5855 0.28298 0.0
O640 O 0.15751 0.5378 0.26075 0.0
O641 O 0.19638 0.57091 0.26287 0.0
O642 O 0.1847 0.5834 0.29403 0.0
O643 O 0.16059 0.64295 0.29327 0.0
C644 C 0.15702 0.58476 0.23006 0.0
C645 C 0.07859 0.49432 0.31951 0.0
C646 C 0.08877 0.47215 0.30721 0.0
C647 C 0.07097 0.5574 0.2372 0.0
C648 C 0.05135 0.53295 0.23232 0.0
C649 C 0.06202 0.50783 0.22304 0.0
C650 C 0.02141 0.53503 0.23648 0.0
C651 C 1.00232 0.51211 0.23165 0.0
C652 C 0.0434 0.48484 0.21865 0.0
C653 C 0.01383 0.48683 0.22298 0.0
C654 C 0.1075 0.63762 0.26373 0.0
C655 C 0.1588 0.57298 0.29585 0.0
C656 C 0.18622 0.65329 0.29707 0.0
C657 C 0.1951 0.6515 0.31776 0.0
C658 C 0.21385 0.62945 0.32429 0.0
C659 C 0.18341 0.6712 0.33136 0.0
C660 C 0.19032 0.66897 0.35141 0.0
C661 C 0.22071 0.62706 0.34415 0.0
C662 C 0.20906 0.64663 0.35766 0.0
C663 C 0.18562 0.54415 0.26094 0.0
H664 H 0.0847 0.5059 0.21902 0.0
H665 H 0.01297 0.55474 0.24307 0.0
H666 H 0.05191 0.46543 0.21175 0.0
H667 H 0.99997 0.46847 0.21956 0.0
H668 H 0.22309 0.61399 0.31412 0.0
H669 H 0.16862 0.68797 0.32634 0.0
H670 H 0.23519 0.61001 0.34908 0.0
H671 H 0.21515 0.64461 0.37294 0.0
Gd672 Gd 0.87136 0.57903 0.75139 0.0
Gd673 Gd 0.81958 0.6348 0.76354 0.0
C674 C 0.73418 0.65148 0.7316 0.0
C675 C 0.7506 0.6765 0.70205 0.0
C676 C 0.78557 0.66081 0.72658 0.0
C677 C 0.76329 0.6491 0.73782 0.0
C678 C 0.77942 0.67508 0.70871 0.0
C679 C 0.72802 0.66472 0.71347 0.0
C680 C 0.71208 0.64121 0.74404 0.0
C681 C 0.71922 0.6299 0.76245 0.0
N682 N 0.76998 0.63645 0.75523 0.0
C683 C 0.7484 0.62824 0.768 0.0
H684 H 0.75392 0.61969 0.78232 0.0
C685 C 0.8357 0.67139 0.72322 0.0
N686 N 0.81324 0.65863 0.73326 0.0
C687 C 0.83064 0.68609 0.70555 0.0
C688 C 0.80241 0.68774 0.69816 0.0
H689 H 0.85764 0.66999 0.72865 0.0
H690 H 0.70581 0.66649 0.70835 0.0
H691 H 0.91558 0.60875 0.78644 0.0
H692 H 0.68945 0.64263 0.7398 0.0
H693 H 0.70227 0.62261 0.77241 0.0
H694 H 0.74549 0.68706 0.68824 0.0
H695 H 0.84826 0.51689 0.73075 0.0
H696 H 0.93752 0.54207 0.82723 0.0
H697 H 0.94176 0.59284 0.81556 0.0
H698 H 0.89014 0.45746 0.80217 0.0
H699 H 0.84855 0.69592 0.69755 0.0
H700 H 0.79859 0.69892 0.68438 0.0
H701 H 0.91719 0.49209 0.82258 0.0
H702 H 0.84449 0.4648 0.73924 0.0
N703 N 0.89675 0.56712 0.78049 0.0
C704 C 0.9262 0.54876 0.81405 0.0
C705 C 0.92869 0.57741 0.80749 0.0
C706 C 0.90936 0.52901 0.80345 0.0
C707 C 0.89513 0.53877 0.7863 0.0
C708 C 0.91372 0.5863 0.79069 0.0
N709 N 0.86794 0.52875 0.7578 0.0
C710 C 0.87992 0.51917 0.77479 0.0
C711 C 0.85431 0.47986 0.74944 0.0
C712 C 0.86495 0.46992 0.7674 0.0
C713 C 0.85652 0.50938 0.74468 0.0
C714 C 0.87848 0.48948 0.78015 0.0
H715 H 0.86339 0.44698 0.77101 0.0
O716 O 0.90723 0.55309 0.74028 0.0
O717 O 0.84119 0.61212 0.73837 0.0
O718 O 0.79301 0.59435 0.7586 0.0
O719 O 0.8273 0.55669 0.756 0.0
O720 O 0.84258 0.57134 0.72507 0.0
O721 O 0.89853 0.59512 0.72746 0.0
O722 O 0.82046 0.68174 0.76804 0.0
O723 O 0.85323 0.60448 0.77646 0.0
O724 O 0.89761 0.62048 0.75562 0.0
O725 O 0.86419 0.65635 0.76381 0.0
O726 O 0.81284 0.60672 0.79049 0.0
O727 O 0.80485 0.65336 0.79106 0.0
C728 C 0.83065 0.59671 0.72431 0.0
C729 C 0.89134 0.48009 0.7977 0.0
C730 C 0.90679 0.49979 0.8093 0.0
C731 C 0.91415 0.57166 0.72661 0.0
C732 C 0.91977 0.55984 0.70701 0.0
C733 C 0.90012 0.54074 0.69802 0.0
C734 C 0.94575 0.56732 0.69738 0.0
C735 C 0.95258 0.55517 0.67906 0.0
C736 C 0.90674 0.52877 0.67971 0.0
C737 C 0.93295 0.53572 0.67032 0.0
C738 C 0.80021 0.56653 0.75748 0.0
C739 C 0.83806 0.59452 0.79089 0.0
C740 C 0.80732 0.6801 0.78497 0.0
C741 C 0.782 0.69946 0.78801 0.0
C742 C 0.75634 0.68894 0.7969 0.0
C743 C 0.78361 0.72897 0.78244 0.0
C744 C 0.75989 0.74775 0.78566 0.0
C745 C 0.73265 0.70731 0.7998 0.0
C746 C 0.73433 0.73649 0.79424 0.0
C747 C 0.89108 0.6477 0.7601 0.0
H748 H 0.87989 0.53492 0.70518 0.0
H749 H 0.96099 0.58201 0.70436 0.0
H750 H 0.89161 0.51392 0.67284 0.0
H751 H 0.93784 0.5261 0.65618 0.0
H752 H 0.75449 0.66653 0.80168 0.0
H753 H 0.80351 0.73741 0.77597 0.0
H754 H 0.71292 0.69893 0.80649 0.0
H755 H 0.71552 0.75023 0.79657 0.0
Gd756 Gd 0.17521 0.11631 1.00445 0.0
Gd757 Gd 0.11769 0.0656 1.01579 0.0
C758 C 0.09985 0.98168 0.98223 0.0
C759 C 0.07654 0.99968 0.95265 0.0
C760 C 0.09227 0.03348 0.97791 0.0
C761 C 0.10286 0.01054 0.98893 0.0
C762 C 0.0786 0.02826 0.95975 0.0
C763 C 0.08715 0.97643 0.96386 0.0
C764 C 0.10897 0.95892 0.99443 0.0
C765 C 0.11969 0.96518 1.01309 0.0
N766 N 0.11507 0.01635 1.00657 0.0
C767 C 0.122 0.99414 1.01911 0.0
H768 H 0.12984 0.99898 1.03368 0.0
C769 C 0.08379 0.08403 0.975 0.0
N770 N 0.09515 0.0609 0.985 0.0
C771 C 0.06974 0.07991 0.95705 0.0
C772 C 0.0673 0.05192 0.94931 0.0
H773 H 0.0858 0.10579 0.98066 0.0
H774 H 0.08492 0.95444 0.95838 0.0
H775 H 0.14482 0.16358 1.03754 0.0
H776 H 0.10702 0.93646 0.98983 0.0
H777 H 0.12599 0.94774 1.02289 0.0
H778 H 0.06643 0.99529 0.93862 0.0
H779 H 0.23811 0.09174 0.98547 0.0
H780 H 0.20919 0.18522 1.07973 0.0
H781 H 0.15959 0.1907 1.06649 0.0
H782 H 0.29377 0.13434 1.05782 0.0
H783 H 0.06102 0.09835 0.94912 0.0
H784 H 0.05663 0.04882 0.93532 0.0
H785 H 0.25863 0.16305 1.07689 0.0
H786 H 0.28946 0.08712 0.99528 0.0
N787 N 0.18595 0.14277 1.0333 0.0
C788 C 0.20302 0.17342 1.06664 0.0
C789 C 0.17504 0.1766 1.05919 0.0
C790 C 0.22282 0.15535 1.05698 0.0
C791 C 0.21377 0.14057 1.0399 0.0
C792 C 0.16678 0.16102 1.04252 0.0
N793 N 0.22494 0.11224 1.01203 0.0
C794 C 0.23368 0.12449 1.02912 0.0
C795 C 0.27398 0.09749 1.00501 0.0
C796 C 0.28297 0.10834 1.0231 0.0
C797 C 0.24488 0.10018 0.99949 0.0
C798 C 0.26293 0.12261 1.03521 0.0
H799 H 0.30559 0.10642 1.02728 0.0
O800 O 0.20225 0.15166 0.99346 0.0
O801 O 0.14251 0.08619 0.99108 0.0
O802 O 0.15809 0.03851 1.01253 0.0
O803 O 0.19652 0.07221 1.01067 0.0
O804 O 0.18419 0.08632 0.97888 0.0
O805 O 0.16123 0.14256 0.97959 0.0
O806 O 0.07065 0.06699 1.01988 0.0
O807 O 0.14766 0.09929 1.02901 0.0
O808 O 0.13383 0.14307 1.00743 0.0
O809 O 0.09721 0.1105 1.01613 0.0
O810 O 0.14392 0.05916 1.04335 0.0
O811 O 0.09802 0.05028 1.04289 0.0
C812 C 0.15864 0.07481 0.97769 0.0
C813 C 0.2715 0.13587 1.0528 0.0
C814 C 0.2515 0.15226 1.06363 0.0
C815 C 0.18481 0.1581 0.97916 0.0
C816 C 0.19814 0.16295 0.95982 0.0
C817 C 0.21745 0.1427 0.95162 0.0
C818 C 0.19184 0.18871 0.94961 0.0
C819 C 0.20533 0.1947 0.93151 0.0
C820 C 0.23077 0.14848 0.93355 0.0
C821 C 0.22497 0.17445 0.92358 0.0
C822 C 0.1861 0.04529 1.01232 0.0
C823 C 0.15628 0.08436 1.04385 0.0
C824 C 0.07156 0.05322 1.03659 0.0
C825 C 0.05191 0.02791 1.039 0.0
C826 C 0.06181 1.00191 1.04764 0.0
C827 C 0.02272 0.02985 1.03302 0.0
C828 C 0.00367 0.00608 1.03552 0.0
C829 C 0.04319 0.97814 1.04978 0.0
C830 C 0.01435 0.98012 1.04375 0.0
C831 C 0.10643 0.13708 1.01197 0.0
H832 H 0.22236 0.12262 0.95922 0.0
H833 H 0.17697 0.20441 0.95598 0.0
H834 H 0.24577 0.13287 0.9273 0.0
H835 H 0.23558 0.17862 0.90961 0.0
H836 H 0.08391 0.99984 1.05283 0.0
H837 H 0.01473 0.05006 1.02683 0.0
H838 H 0.05112 0.95813 1.05625 0.0
H839 H 1.00037 0.96128 1.04552 0.0
Gd840 Gd 0.64156 0.42268 0.25461 0.0
Gd841 Gd 0.68906 0.36265 0.26498 0.0
C842 C 0.78257 0.34945 0.2445 0.0
C843 C 0.77618 0.33171 0.21125 0.0
C844 C 0.73392 0.34233 0.2317 0.0
C845 C 0.75209 0.35106 0.24675 0.0
C846 C 0.74589 0.33178 0.21397 0.0
C847 C 0.79449 0.34056 0.22648 0.0
C848 C 0.80015 0.35579 0.26065 0.0
C849 C 0.78724 0.36212 0.27873 0.0
N850 N 0.73999 0.35929 0.26407 0.0
C851 C 0.75693 0.36317 0.28029 0.0
H852 H 0.74711 0.36784 0.29436 0.0
C853 C 0.68634 0.33121 0.221 0.0
N854 N 0.70465 0.34283 0.23471 0.0
C855 C 0.69729 0.32009 0.20337 0.0
C856 C 0.72713 0.32087 0.19967 0.0
H857 H 0.66315 0.33098 0.2231 0.0
H858 H 0.81784 0.33955 0.22439 0.0
H859 H 0.59636 0.39397 0.29072 0.0
H860 H 0.82364 0.35483 0.2595 0.0
H861 H 0.80062 0.36613 0.29147 0.0
H862 H 0.78569 0.3241 0.19762 0.0
H863 H 0.6687 0.48404 0.23483 0.0
H864 H 0.57688 0.46108 0.33131 0.0
H865 H 0.57106 0.41056 0.31984 0.0
H866 H 0.62756 0.54404 0.30613 0.0
H867 H 0.68261 0.3114 0.19248 0.0
H868 H 0.73548 0.31255 0.18589 0.0
H869 H 0.59887 0.51026 0.32651 0.0
H870 H 0.67473 0.53559 0.24357 0.0
N871 N 0.61611 0.43522 0.28393 0.0
C872 C 0.58777 0.45417 0.31798 0.0
C873 C 0.58438 0.42569 0.31152 0.0
C874 C 0.60514 0.47341 0.30717 0.0
C875 C 0.61885 0.46337 0.28984 0.0
C876 C 0.59883 0.41646 0.29455 0.0
N877 N 0.647 0.47262 0.26146 0.0
C878 C 0.63503 0.48247 0.27841 0.0
C879 C 0.66366 0.52089 0.25357 0.0
C880 C 0.65284 0.53104 0.27142 0.0
C881 C 0.66012 0.49161 0.24865 0.0
C882 C 0.63791 0.51194 0.28395 0.0
H883 H 0.65552 0.55378 0.27518 0.0
O884 O 0.6081 0.45039 0.24198 0.0
O885 O 0.66996 0.38866 0.2404 0.0
O886 O 0.71839 0.40203 0.2637 0.0
O887 O 0.6867 0.44195 0.26046 0.0
O888 O 0.67261 0.43094 0.2294 0.0
O889 O 0.6142 0.40709 0.23088 0.0
O890 O 0.70277 0.318 0.27072 0.0
O891 O 0.65835 0.395 0.27869 0.0
O892 O 0.6143 0.38219 0.26087 0.0
O893 O 0.64625 0.34506 0.2537 0.0
O894 O 0.69721 0.38745 0.29327 0.0
O895 O 0.67126 0.33825 0.28963 0.0
C896 C 0.6826 0.40493 0.22751 0.0
C897 C 0.62529 0.5216 0.30155 0.0
C898 C 0.6089 0.50239 0.31312 0.0
C899 C 0.60093 0.43171 0.22856 0.0
C900 C 0.5992 0.44247 0.20824 0.0
C901 C 0.62059 0.46117 0.20056 0.0
C902 C 0.57642 0.43306 0.19613 0.0
C903 C 0.57484 0.44234 0.17642 0.0
C904 C 0.61914 0.47054 0.1811 0.0
C905 C 0.59645 0.46128 0.16909 0.0
C906 C 0.713 0.43036 0.26278 0.0
C907 C 0.67344 0.40236 0.29367 0.0
C908 C 0.68433 0.3142 0.285 0.0
C909 C 0.66653 0.28727 0.28471 0.0
C910 C 0.63695 0.28779 0.29009 0.0
C911 C 0.67948 0.26046 0.27989 0.0
C912 C 0.66318 0.23447 0.2805 0.0
C913 C 0.62061 0.26216 0.29041 0.0
C914 C 0.63359 0.23566 0.2857 0.0
C915 C 0.6196 0.35451 0.25694 0.0
H916 H 0.63842 0.46848 0.20955 0.0
H917 H 0.56023 0.41816 0.202 0.0
H918 H 0.63565 0.48508 0.1753 0.0
H919 H 0.59564 0.46928 0.15413 0.0
H920 H 0.62631 0.30797 0.29403 0.0
H921 H 0.70243 0.25971 0.2762 0.0
H922 H 0.5978 0.26284 0.29439 0.0
H923 H 0.62048 0.21605 0.28609 0.0
Gd924 Gd 0.33395 0.89214 0.50735 0.0
Gd925 Gd 0.39393 0.93994 0.5154 0.0
C926 C 0.40487 0.03257 0.49235 0.0
C927 C 0.42422 0.02449 0.45959 0.0
C928 C 0.41421 0.98332 0.48122 0.0
C929 C 0.40434 1.00223 0.49562 0.0
C930 C 0.42523 0.99444 0.46331 0.0
C931 C 0.414 0.04351 0.47406 0.0
C932 C 0.39713 0.05108 0.50779 0.0
C933 C 0.39042 0.03931 0.52618 0.0
N934 N 0.39585 0.99108 0.51325 0.0
C935 C 0.39049 0.00912 0.5288 0.0
H936 H 0.38542 1.0003 0.54311 0.0
C937 C 0.42826 0.93558 0.47249 0.0
N938 N 0.41474 0.95428 0.48516 0.0
C939 C 0.44002 0.94574 0.45477 0.0
C940 C 0.43793 0.97518 0.44995 0.0
H941 H 0.42992 0.9127 0.47565 0.0
H942 H 0.41417 0.06673 0.4712 0.0
H943 H 0.34534 0.88623 0.45681 0.0
H944 H 0.3972 0.07449 0.50583 0.0
H945 H 0.38526 0.05348 0.53836 0.0
H946 H 0.43213 0.03333 0.44578 0.0
H947 H 0.31741 0.8556 0.54779 0.0
H948 H 0.3682 0.79874 0.44468 0.0
H949 H 0.36071 0.84938 0.43372 0.0
H950 H 0.35491 0.74971 0.50604 0.0
H951 H 0.45031 0.93074 0.44469 0.0
H952 H 0.44677 0.98289 0.4361 0.0
H953 H 0.36602 0.76187 0.47165 0.0
H954 H 0.32028 0.80537 0.56082 0.0
N955 N 0.3457 0.85829 0.48203 0.0
C956 C 0.36183 0.81513 0.45525 0.0
C957 C 0.35769 0.84369 0.44903 0.0
C958 C 0.35691 0.80789 0.47491 0.0
C959 C 0.34869 0.83009 0.48813 0.0
C960 C 0.34928 0.86492 0.46254 0.0
N961 N 0.3354 0.84479 0.52014 0.0
C962 C 0.34278 0.82307 0.50759 0.0
C963 C 0.32718 0.8101 0.54593 0.0
C964 C 0.33687 0.78774 0.53372 0.0
C965 C 0.32611 0.83858 0.53872 0.0
C966 C 0.34443 0.79399 0.51421 0.0
H967 H 0.33776 0.76567 0.53934 0.0
O968 O 0.29516 0.89714 0.52561 0.0
O969 O 0.36754 0.91933 0.49143 0.0
O970 O 0.35567 0.96917 0.51165 0.0
O971 O 0.31609 0.93759 0.51539 0.0
O972 O 0.32583 0.91893 0.47998 0.0
O973 O 0.29412 0.87079 0.49912 0.0
O974 O 0.4194 0.92322 0.53978 0.0
O975 O 0.36133 0.91076 0.53067 0.0
O976 O 0.37366 0.86926 0.5207 0.0
O977 O 0.40784 0.89571 0.50423 0.0
O978 O 0.3702 0.94964 0.54433 0.0
O979 O 0.43873 0.95397 0.51978 0.0
C980 C 0.35122 0.93068 0.47826 0.0
C981 C 0.35323 0.77212 0.50118 0.0
C982 C 0.35956 0.77907 0.4816 0.0
C983 C 0.27909 0.88208 0.51348 0.0
C984 C 0.25043 0.89355 0.50767 0.0
C985 C 0.24304 0.92299 0.50963 0.0
C986 C 0.23092 0.87464 0.49839 0.0
C987 C 0.20485 0.88507 0.49037 0.0
C988 C 0.21678 0.93341 0.5021 0.0
C989 C 0.19788 0.91464 0.49225 0.0
C990 C 0.32763 0.96419 0.51401 0.0
C991 C 0.35497 0.92603 0.54565 0.0
C992 C 0.44319 0.93623 0.53431 0.0
C993 C 0.47016 0.91869 0.53357 0.0
C994 C 0.46999 0.88894 0.53844 0.0
C995 C 0.49671 0.93213 0.52853 0.0
C996 C 0.5228 0.91608 0.52806 0.0
C997 C 0.49564 0.87279 0.53769 0.0
C998 C 0.52186 0.88616 0.5325 0.0
C999 C 0.39982 0.87107 0.51256 0.0
H1000 H 0.25775 0.93794 0.51654 0.0
H1001 H 0.23681 0.85197 0.49646 0.0
H1002 H 0.21139 0.95624 0.5035 0.0
H1003 H 0.17803 0.92318 0.48597 0.0
H1004 H 0.45008 0.87808 0.54284 0.0
H1005 H 0.49709 0.95528 0.52543 0.0
H1006 H 0.4952 0.8498 0.54122 0.0
H1007 H 0.5414 0.87307 0.53195 0.0
Gd1008 Gd 0.194 0.36941 0.5097 0.0
Gd1009 Gd 0.14396 0.42838 0.51867 0.0
C1010 C 0.05667 0.40834 0.54851 0.0
C1011 C 0.02247 0.42771 0.52477 0.0
C1012 C 0.07449 0.42942 0.51812 0.0
C1013 C 0.08006 0.41686 0.53623 0.0
C1014 C 0.04565 0.43488 0.51216 0.0
C1015 C 0.02796 0.41437 0.54287 0.0
C1016 C 0.0627 0.39289 0.56571 0.0
C1017 C 0.09128 0.38501 0.56979 0.0
N1018 N 0.10813 0.41098 0.54115 0.0
C1019 C 0.11366 0.39368 0.55709 0.0
H1020 H 0.13503 0.38565 0.56004 0.0
C1021 C 0.09282 0.44743 0.48795 0.0
N1022 N 0.09723 0.43493 0.50587 0.0
C1023 C 0.06467 0.45337 0.48143 0.0
C1024 C 0.04094 0.44698 0.49356 0.0
H1025 H 0.11106 0.45367 0.47893 0.0
H1026 H 0.00981 0.40818 0.55221 0.0
H1027 H 0.2573 0.37689 0.48613 0.0
H1028 H 0.04537 0.38585 0.57548 0.0
H1029 H 0.09607 0.37178 0.58255 0.0
H1030 H 1.00019 0.43181 0.52047 0.0
H1031 H 0.15903 0.34064 0.54868 0.0
H1032 H 0.32612 0.35761 0.52633 0.0
H1033 H 0.30991 0.37259 0.49319 0.0
H1034 H 0.27507 0.32599 0.58419 0.0
H1035 H 0.06133 0.46319 0.46715 0.0
H1036 H 0.01913 0.45154 0.48846 0.0
H1037 H 0.31289 0.34056 0.56038 0.0
H1038 H 0.17093 0.32019 0.58109 0.0
N1039 N 0.24424 0.36546 0.51509 0.0
C1040 C 0.30309 0.35954 0.5233 0.0
C1041 C 0.29404 0.36796 0.50457 0.0
C1042 C 0.28229 0.3528 0.5377 0.0
C1043 C 0.25261 0.35568 0.53299 0.0
C1044 C 0.26432 0.37034 0.5006 0.0
N1045 N 0.20308 0.34964 0.54097 0.0
C1046 C 0.23137 0.34738 0.54631 0.0
C1047 C 0.18815 0.32782 0.57147 0.0
C1048 C 0.2171 0.32644 0.57751 0.0
C1049 C 0.18149 0.33947 0.55303 0.0
C1050 C 0.23917 0.33606 0.56483 0.0
H1051 H 0.22218 0.31763 0.59186 0.0
O1052 O 0.19016 0.3221 0.50895 0.0
O1053 O 0.16307 0.40107 0.4952 0.0
O1054 O 0.1194 0.39118 0.50391 0.0
O1055 O 0.14758 0.35334 0.51521 0.0
O1056 O 0.20229 0.39395 0.48105 0.0
O1057 O 0.20037 0.3459 0.48246 0.0
O1058 O 0.15379 0.46651 0.50065 0.0
O1059 O 0.17541 0.3986 0.5325 0.0
O1060 O 0.2231 0.40782 0.51377 0.0
O1061 O 0.18985 0.44653 0.51323 0.0
O1062 O 0.16162 0.43218 0.54999 0.0
O1063 O 0.12747 0.47032 0.52712 0.0
C1064 C 0.17817 0.40834 0.48019 0.0
C1065 C 0.26867 0.33429 0.56995 0.0
C1066 C 0.2902 0.34263 0.5564 0.0
C1067 C 0.19848 0.32039 0.49072 0.0
C1068 C 0.22172 0.29916 0.48616 0.0
C1069 C 0.24643 0.30759 0.47526 0.0
C1070 C 0.21893 0.26993 0.49226 0.0
C1071 C 0.24044 0.24935 0.48735 0.0
C1072 C 0.26803 0.28744 0.47075 0.0
C1073 C 0.26509 0.25852 0.47668 0.0
C1074 C 0.12242 0.36334 0.50868 0.0
C1075 C 0.18025 0.41112 0.54897 0.0
C1076 C 0.14176 0.48416 0.51332 0.0
C1077 C 0.15887 0.50974 0.51974 0.0
C1078 C 0.18011 0.52256 0.50756 0.0
C1079 C 0.15347 0.52196 0.53825 0.0
C1080 C 0.16894 0.54638 0.54477 0.0
C1081 C 0.19558 0.54705 0.51393 0.0
C1082 C 0.18993 0.55909 0.53242 0.0
C1083 C 0.21672 0.43586 0.51318 0.0
H1084 H 0.24907 0.32971 0.47005 0.0
H1085 H 0.19974 0.26308 0.50038 0.0
H1086 H 0.28704 0.2942 0.46247 0.0
H1087 H 0.28218 0.24328 0.47296 0.0
H1088 H 0.18473 0.51371 0.49316 0.0
H1089 H 0.13664 0.5128 0.54764 0.0
H1090 H 0.21192 0.55678 0.50447 0.0
H1091 H 0.20194 0.57812 0.5371 0.0
Gd1092 Gd 0.88897 0.9429 0.25031 0.0
Gd1093 Gd 0.82616 0.89744 0.25891 0.0
C1094 C 0.77487 0.8645 0.20597 0.0
C1095 C 0.72828 0.88835 0.21048 0.0
C1096 C 0.76697 0.89528 0.23433 0.0
C1097 C 0.78526 0.87767 0.22332 0.0
C1098 C 0.73806 0.90021 0.22822 0.0
C1099 C 0.74662 0.8705 0.1994 0.0
C1100 C 0.79294 0.84522 0.19588 0.0
C1101 C 0.82053 0.83923 0.20315 0.0
N1102 N 0.81275 0.87261 0.22984 0.0
C1103 C 0.83016 0.85313 0.22015 0.0
H1104 H 0.85175 0.84812 0.22498 0.0
C1105 C 0.7583 0.92069 0.26392 0.0
N1106 N 0.7769 0.90645 0.25146 0.0
C1107 C 0.72959 0.92617 0.25845 0.0
C1108 C 0.71953 0.91627 0.24039 0.0
H1109 H 0.7659 0.92905 0.27775 0.0
H1110 H 0.73854 0.86095 0.18596 0.0
H1111 H 0.91737 0.95282 0.29429 0.0
H1112 H 0.78571 0.83464 0.18256 0.0
H1113 H 0.83463 0.82415 0.19552 0.0
H1114 H 0.70629 0.89224 0.20546 0.0
H1115 H 0.8996 0.91781 0.20297 0.0
H1116 H 0.00555 0.92328 0.29369 0.0
H1117 H 0.96386 0.94472 0.31158 0.0
H1118 H 0.0195 0.89197 0.22734 0.0
H1119 H 0.71528 0.93819 0.26812 0.0
H1120 H 0.69723 0.92053 0.23619 0.0
H1121 H 0.02634 0.90448 0.26208 0.0
H1122 H 0.93869 0.89705 0.1835 0.0
N1123 N 0.9321 0.93463 0.26756 0.0
C1124 C 0.98511 0.92661 0.28616 0.0
C1125 C 0.9616 0.93856 0.29634 0.0
C1126 C 0.98221 0.91974 0.26625 0.0
C1127 C 0.95511 0.9244 0.25713 0.0
C1128 C 0.93521 0.94276 0.28667 0.0
N1129 N 0.9246 0.92222 0.22918 0.0
C1130 C 0.95116 0.91764 0.23748 0.0
C1131 C 0.94252 0.9028 0.19867 0.0
C1132 C 0.96978 0.89829 0.20694 0.0
C1133 C 0.92014 0.91477 0.20999 0.0
C1134 C 0.97441 0.90565 0.22656 0.0
H1135 H 0.98705 0.88899 0.1981 0.0
O1136 O 0.91388 0.97973 0.23943 0.0
O1137 O 0.85577 0.91427 0.23568 0.0
O1138 O 0.8673 0.871 0.2525 0.0
O1139 O 0.90142 0.90108 0.26609 0.0
O1140 O 0.86899 0.95036 0.21999 0.0
O1141 O 0.89056 0.98263 0.26735 0.0
O1142 O 0.79724 0.86328 0.2696 0.0
O1143 O 0.85983 0.92527 0.27382 0.0
O1144 O 0.84989 0.97187 0.25431 0.0
O1145 O 0.80882 0.94243 0.25117 0.0
O1146 O 0.81816 0.92678 0.28515 0.0
O1147 O 0.83899 0.86917 0.28305 0.0
C1148 C 0.8508 0.9289 0.22012 0.0
C1149 C 1.00147 0.9011 0.23555 0.0
C1150 C 0.00537 0.90818 0.25533 0.0
C1151 C 0.90872 0.9952 0.25516 0.0
C1152 C 0.93316 0.01135 0.26397 0.0
C1153 C 0.92657 0.03435 0.27673 0.0
C1154 C 0.96252 0.00529 0.25941 0.0
C1155 C 0.98485 0.02271 0.26725 0.0
C1156 C 0.94871 0.05135 0.28467 0.0
C1157 C 0.97766 0.04574 0.27986 0.0
C1158 C 0.89347 0.87499 0.26009 0.0
C1159 C 0.84421 0.93668 0.28736 0.0
C1160 C 0.81417 0.85582 0.28397 0.0
C1161 C 0.80087 0.85397 0.30361 0.0
C1162 C 0.78218 0.87591 0.31032 0.0
C1163 C 0.80785 0.83065 0.31609 0.0
C1164 C 0.79624 0.8292 0.33525 0.0
C1165 C 0.77069 0.87471 0.32927 0.0
C1166 C 0.7777 0.85162 0.3417 0.0
C1167 C 0.82157 0.96828 0.2521 0.0
H1168 H 0.90418 0.03936 0.28041 0.0
H1169 H 0.96799 0.98766 0.24955 0.0
H1170 H 0.94338 0.06908 0.29446 0.0
H1171 H 0.99453 0.05928 0.28612 0.0
H1172 H 0.7766 0.89406 0.301 0.0
H1173 H 0.82213 0.81362 0.3108 0.0
H1174 H 0.75646 0.89185 0.3344 0.0
H1175 H 0.76887 0.85155 0.35647 0.0
Gd1176 Gd 0.30918 0.63974 1.00585 0.0
Gd1177 Gd 0.36269 0.58598 1.01841 0.0
C1178 C 0.44968 0.59414 1.04987 0.0
C1179 C 0.4834 0.59759 1.02233 0.0
C1180 C 0.43139 0.59392 1.01649 0.0
C1181 C 0.42616 0.59253 1.03667 0.0
C1182 C 0.46 0.59685 1.00919 0.0
C1183 C 0.47826 0.59625 1.0426 0.0
C1184 C 0.44383 0.59422 1.07002 0.0
C1185 C 0.4151 0.59329 1.07661 0.0
N1186 N 0.39809 0.59106 1.04333 0.0
C1187 C 0.39241 0.59182 1.06307 0.0
H1188 H 0.37063 0.59132 1.0688 0.0
C1189 C 0.41221 0.59676 0.98434 0.0
N1190 N 0.40825 0.59447 1.00408 0.0
C1191 C 0.44018 0.59947 0.97641 0.0
C1192 C 0.4642 0.5995 0.98888 0.0
H1193 H 0.39377 0.59634 0.97482 0.0
H1194 H 0.49654 0.59736 1.05255 0.0
H1195 H 0.24276 0.62408 0.98908 0.0
H1196 H 0.4613 0.59546 1.08061 0.0
H1197 H 0.41038 0.59373 1.0922 0.0
H1198 H 0.50554 0.59969 1.01699 0.0
H1199 H 0.34822 0.67626 1.0394 0.0
H1200 H 0.18016 0.64571 1.03345 0.0
H1201 H 0.19165 0.62588 1.00058 0.0
H1202 H 0.238 0.69135 1.08297 0.0
H1203 H 0.4432 0.60143 0.96069 0.0
H1204 H 0.48586 0.60176 0.98271 0.0
H1205 H 0.1977 0.66997 1.06421 0.0
H1206 H 0.34029 0.70195 1.07057 0.0
N1207 N 0.25995 0.64099 1.01559 0.0
C1208 C 0.20258 0.6447 1.02852 0.0
C1209 C 0.20897 0.63348 1.00998 0.0
C1210 C 0.22512 0.65545 1.0402 0.0
C1211 C 0.25393 0.6536 1.0331 0.0
C1212 C 0.23786 0.63235 1.00356 0.0
N1213 N 0.3039 0.66397 1.03609 0.0
C1214 C 0.27655 0.66576 1.04357 0.0
C1215 C 0.32216 0.6918 1.06316 0.0
C1216 C 0.29431 0.693 1.07136 0.0
C1217 C 0.32658 0.67718 1.04542 0.0
C1218 C 0.27105 0.67996 1.06155 0.0
H1219 H 0.29099 0.70413 1.08518 0.0
O1220 O 0.31136 0.68638 1.0 0.0
O1221 O 0.34331 0.60959 0.99304 0.0
O1222 O 0.3858 0.62998 1.01776 0.0
O1223 O 0.35331 0.66187 1.00331 0.0
O1224 O 0.30334 0.61136 0.97897 0.0
O1225 O 0.29057 0.65774 0.97928 0.0
O1226 O 0.36438 0.54997 0.99762 0.0
O1227 O 0.33106 0.61751 1.03122 0.0
O1228 O 0.28361 0.59896 1.01123 0.0
O1229 O 0.31922 0.56275 1.01357 0.0
O1230 O 0.33608 0.57818 1.04597 0.0
O1231 O 0.38261 0.54568 1.02698 0.0
C1232 C 0.32871 0.59941 0.97862 0.0
C1233 C 0.24257 0.68087 1.06907 0.0
C1234 C 0.21965 0.66862 1.05842 0.0
C1235 C 0.2956 0.6846 0.98423 0.0
C1236 C 0.27127 0.70547 0.98234 0.0
C1237 C 0.24336 0.69601 0.97688 0.0
C1238 C 0.27616 0.73539 0.98537 0.0
C1239 C 0.25339 0.75562 0.98312 0.0
C1240 C 0.22062 0.71581 0.9751 0.0
C1241 C 0.22549 0.74536 0.97824 0.0
C1242 C 0.37941 0.65562 1.01014 0.0
C1243 C 0.32161 0.60224 1.04576 0.0
C1244 C 0.37602 0.53251 1.01064 0.0
C1245 C 0.36384 0.50307 1.01342 0.0
C1246 C 0.33657 0.49469 1.00613 0.0
C1247 C 0.37928 0.4837 1.0254 0.0
C1248 C 0.36729 0.45689 1.03108 0.0
C1249 C 0.32468 0.46766 1.01142 0.0
C1250 C 0.33972 0.44898 1.02411 0.0
C1251 C 0.29177 0.57145 1.01223 0.0
H1252 H 0.239 0.67336 0.97382 0.0
H1253 H 0.29782 0.74293 0.98901 0.0
H1254 H 0.19914 0.70824 0.97112 0.0
H1255 H 0.20734 0.7602 0.97687 0.0
H1256 H 0.32418 0.50914 0.9968 0.0
H1257 H 0.40019 0.4903 1.03126 0.0
H1258 H 0.30345 0.46146 1.00604 0.0
H1259 H 0.32989 0.42852 1.02851 0.0
Gd1260 Gd 0.61131 0.06262 0.74575 0.0
Gd1261 Gd 0.67469 0.10426 0.75848 0.0
C1262 C 0.69416 0.19761 0.74035 0.0
C1263 C 0.72416 0.19097 0.71127 0.0
C1264 C 0.70603 0.14877 0.72934 0.0
C1265 C 0.69169 0.16713 0.74238 0.0
C1266 C 0.7235 0.16071 0.7142 0.0
C1267 C 0.70947 0.20938 0.7243 0.0
C1268 C 0.6825 0.21538 0.75508 0.0
C1269 C 0.67022 0.20268 0.77184 0.0
N1270 N 0.67776 0.15526 0.75811 0.0
C1271 C 0.66859 0.17239 0.77334 0.0
H1272 H 0.65908 0.16261 0.78632 0.0
C1273 C 0.72446 0.10168 0.72305 0.0
N1274 N 0.70537 0.11952 0.73266 0.0
C1275 C 0.74211 0.11255 0.70793 0.0
C1276 C 0.74111 0.14207 0.70316 0.0
H1277 H 0.72611 0.07892 0.72663 0.0
H1278 H 0.71123 0.23274 0.72235 0.0
H1279 H 0.6115 0.00917 0.71204 0.0
H1280 H 0.68398 0.23887 0.75404 0.0
H1281 H 0.66209 0.2162 0.78363 0.0
H1282 H 0.73704 0.20043 0.6995 0.0
H1283 H 0.57442 0.08394 0.78745 0.0
H1284 H 0.59383 0.92881 0.74165 0.0
H1285 H 0.60597 0.95584 0.71123 0.0
H1286 H 0.56602 0.95892 0.80621 0.0
H1287 H 0.75647 0.09813 0.69995 0.0
H1288 H 0.75486 0.15041 0.69145 0.0
H1289 H 0.57973 0.93012 0.77727 0.0
H1290 H 0.55491 0.06114 0.81712 0.0
N1291 N 0.60366 0.0123 0.74281 0.0
C1292 C 0.59632 0.95225 0.74212 0.0
C1293 C 0.6031 0.96743 0.72491 0.0
C1294 C 0.59145 0.96762 0.75953 0.0
C1295 C 0.59489 0.99815 0.75935 0.0
C1296 C 0.60632 0.99769 0.72545 0.0
N1297 N 0.5883 0.044 0.77436 0.0
C1298 C 0.58708 0.01447 0.77563 0.0
C1299 C 0.56412 0.04774 0.80563 0.0
C1300 C 0.56492 0.0176 0.80783 0.0
C1301 C 0.57538 0.06062 0.78858 0.0
C1302 C 0.57571 1.0005 0.79251 0.0
H1303 H 0.5561 0.0077 0.82104 0.0
O1304 O 0.58871 0.08894 0.72413 0.0
O1305 O 0.64687 0.09109 0.73334 0.0
O1306 O 0.63603 0.13502 0.75351 0.0
O1307 O 0.59754 0.10443 0.76047 0.0
O1308 O 0.63406 0.05621 0.71635 0.0
O1309 O 0.56687 0.0522 0.73736 0.0
O1310 O 0.70183 0.07729 0.77728 0.0
O1311 O 0.64218 0.07279 0.7702 0.0
O1312 O 0.64798 0.0303 0.74699 0.0
O1313 O 0.68932 0.06029 0.74666 0.0
O1314 O 0.65119 0.10751 0.7879 0.0
O1315 O 0.71268 0.1224 0.77273 0.0
C1316 C 0.65157 0.0782 0.71702 0.0
C1317 C 0.57426 0.96999 0.79325 0.0
C1318 C 0.58207 0.95358 0.77677 0.0
C1319 C 0.56414 0.07522 0.72635 0.0
C1320 C 0.53772 0.09321 0.72925 0.0
C1321 C 0.53817 0.12321 0.72512 0.0
C1322 C 0.51146 0.08025 0.7355 0.0
C1323 C 0.48609 0.09706 0.7381 0.0
C1324 C 0.51322 0.14001 0.72776 0.0
C1325 C 0.48744 0.12716 0.73435 0.0
C1326 C 0.60815 0.1308 0.75771 0.0
C1327 C 0.63795 0.08266 0.78739 0.0
C1328 C 0.71692 0.09934 0.78344 0.0
C1329 C 0.71786 0.10369 0.80494 0.0
C1330 C 0.71545 0.0799 0.81789 0.0
C1331 C 0.71954 0.13193 0.81268 0.0
C1332 C 0.71827 0.13663 0.833 0.0
C1333 C 0.71443 0.08441 0.83816 0.0
C1334 C 0.71584 0.11261 0.84573 0.0
C1335 C 0.67651 0.03434 0.74605 0.0
H1336 H 0.55785 0.13383 0.71998 0.0
H1337 H 0.51067 0.05695 0.73793 0.0
H1338 H 0.51393 0.16316 0.72478 0.0
H1339 H 0.46857 0.14087 0.73655 0.0
H1340 H 0.71394 0.05788 0.81235 0.0
H1341 H 0.72182 0.15045 0.80288 0.0
H1342 H 0.71227 0.066 0.84803 0.0
H1343 H 0.71465 0.11566 0.86147 0.0
C1344 C 0.4 0.19494 0.26416 0.0
C1345 C 0.40395 0.16529 0.25957 0.0
C1346 C 0.42332 0.21481 0.26353 0.0
C1347 C 0.47199 0.25687 0.25176 0.0
H1348 H 0.54962 0.23295 0.26656 0.0
C1349 C 0.56635 0.34101 0.26191 0.0
C1350 C 0.59476 0.33306 0.25625 0.0
C1351 C 0.54343 0.32057 0.26194 0.0
C1352 C 0.52819 0.24006 0.26214 0.0
H1353 H 0.43637 0.13373 0.25068 0.0
H1354 H 0.47687 0.16831 0.24933 0.0
H1355 H 0.50988 0.19766 0.26732 0.0
H1356 H 0.62072 0.29687 0.24578 0.0
H1357 H 0.58106 0.26153 0.2458 0.0
H1358 H 0.49024 0.29928 0.24668 0.0
C1359 C 0.45566 0.17622 0.25371 0.0
C1360 C 0.50521 0.21965 0.26256 0.0
C1361 C 0.43225 0.15626 0.25436 0.0
C1362 C 0.59931 0.30401 0.25036 0.0
C1363 C 0.57644 0.28354 0.25048 0.0
C1364 C 0.49492 0.27726 0.25139 0.0
C1365 C 0.45164 0.20595 0.25823 0.0
C1366 C 0.47659 0.22765 0.25745 0.0
C1367 C 0.54805 0.29137 0.25634 0.0
C1368 C 0.52347 0.26931 0.25662 0.0
H1369 H 0.37873 0.203 0.26832 0.0
H1370 H 0.41906 0.23719 0.2675 0.0
H1371 H 0.45063 0.26407 0.24728 0.0
H1372 H 0.5618 0.36304 0.26659 0.0
H1373 H 0.52212 0.32763 0.26677 0.0
C1374 C 0.56246 0.65341 0.50714 0.0
C1375 C 0.5905 0.65694 0.5151 0.0
C1376 C 0.54209 0.67627 0.50724 0.0
C1377 C 0.53522 0.75761 0.51317 0.0
H1378 H 0.45316 0.73965 0.51851 0.0
C1379 C 0.44623 0.84646 0.50128 0.0
C1380 C 0.42069 0.84578 0.51282 0.0
C1381 C 0.46656 0.8236 0.50187 0.0
C1382 C 0.47595 0.74528 0.51716 0.0
H1383 H 0.61858 0.68799 0.52958 0.0
H1384 H 0.58326 0.7277 0.52984 0.0
H1385 H 0.48884 0.70055 0.51949 0.0
H1386 H 0.39696 0.81989 0.53415 0.0
H1387 H 0.43213 0.78 0.53515 0.0
H1388 H 0.52235 0.80243 0.51128 0.0
C1389 C 0.57701 0.70725 0.52324 0.0
C1390 C 0.49661 0.72261 0.51746 0.0
C1391 C 0.59741 0.68429 0.52317 0.0
C1392 C 0.41607 0.82117 0.52484 0.0
C1393 C 0.43641 0.79818 0.5254 0.0
C1394 C 0.51456 0.78029 0.51286 0.0
C1395 C 0.54885 0.7037 0.51531 0.0
C1396 C 0.52669 0.72825 0.51538 0.0
C1397 C 0.46221 0.79901 0.51401 0.0
C1398 C 0.48446 0.77461 0.51475 0.0
H1399 H 0.55616 0.63288 0.50063 0.0
H1400 H 0.52108 0.67245 0.50062 0.0
H1401 H 0.55795 0.7632 0.51133 0.0
H1402 H 0.45073 0.86489 0.49178 0.0
H1403 H 0.48567 0.82519 0.49259 0.0
C1404 C 0.10038 0.81867 0.7796 0.0
C1405 C 0.10215 0.84111 0.76548 0.0
C1406 C 0.07727 0.79839 0.77949 0.0
C1407 C 0.02339 0.76351 0.74661 0.0
H1408 H 0.98199 0.7428 0.7944 0.0
C1409 C 0.94231 0.66483 0.75175 0.0
C1410 C 0.91535 0.66978 0.76112 0.0
C1411 C 0.96478 0.68577 0.75228 0.0
C1412 C 0.99327 0.74831 0.78089 0.0
H1413 H 0.08126 0.85865 0.73964 0.0
H1414 H 0.04135 0.82333 0.73926 0.0
H1415 H 0.02133 0.77891 0.79542 0.0
H1416 H 0.89151 0.70101 0.77869 0.0
H1417 H 0.93087 0.73697 0.7801 0.0
H1418 H 0.99573 0.73251 0.73215 0.0
C1419 C 0.05754 0.82171 0.75071 0.0
C1420 C 0.01602 0.76895 0.7815 0.0
C1421 C 0.08029 0.84233 0.75108 0.0
C1422 C 0.91183 0.69626 0.77126 0.0
C1423 C 0.93453 0.71692 0.77215 0.0
C1424 C 1.00108 0.7424 0.74608 0.0
C1425 C 0.05558 0.79939 0.76492 0.0
C1426 C 0.03137 0.77705 0.76435 0.0
C1427 C 0.96135 0.71214 0.76256 0.0
C1428 C 0.9855 0.73453 0.76319 0.0
H1429 H 0.1169 0.8168 0.79081 0.0
H1430 H 0.07677 0.78146 0.79058 0.0
H1431 H 0.03472 0.76893 0.73311 0.0
H1432 H 0.94599 0.64486 0.74372 0.0
H1433 H 0.98508 0.68111 0.74481 0.0
C1434 C 0.05811 0.15862 1.02266 0.0
C1435 C 0.08468 0.16153 1.01241 0.0
C1436 C 0.03753 0.18131 1.02288 0.0
C1437 C 0.01217 0.24571 0.99496 0.0
H1438 H 0.9763 0.26959 1.04395 0.0
C1439 C 0.91282 0.32582 0.99906 0.0
C1440 C 0.91515 0.34881 1.0126 0.0
C1441 C 0.93307 0.30277 0.99897 0.0
C1442 C 0.98606 0.26321 1.03012 0.0
H1443 H 0.10991 0.19095 0.99409 0.0
H1444 H 0.07374 0.23009 0.99404 0.0
H1445 H 0.01231 0.2303 1.04386 0.0
H1446 H 0.94074 0.36502 1.03687 0.0
H1447 H 0.97528 0.32455 1.03712 0.0
H1448 H 0.98554 0.27831 0.98117 0.0
C1449 C 0.06898 0.21028 1.00211 0.0
C1450 C 0.00665 0.24053 1.03006 0.0
C1451 C 0.08986 0.18784 1.00224 0.0
C1452 C 0.93809 0.34774 1.02624 0.0
C1453 C 0.95792 0.32442 1.02643 0.0
C1454 C 0.99109 0.26797 0.99496 0.0
C1455 C 0.04251 0.20744 1.01249 0.0
C1456 C 0.02021 0.23152 1.0125 0.0
C1457 C 0.95594 0.30168 1.01268 0.0
C1458 C 0.97783 0.27724 1.01256 0.0
H1459 H 0.05321 0.13879 1.03068 0.0
H1460 H 0.0174 0.17816 1.03094 0.0
H1461 H 0.02193 0.23932 0.98113 0.0
H1462 H 0.89583 0.326 0.98812 0.0
H1463 H 0.93071 0.28566 0.9882 0.0
C1464 C 0.56134 0.85826 1.02167 0.0
C1465 C 0.58407 0.85552 1.00787 0.0
C1466 C 0.53823 0.83787 1.02224 0.0
C1467 C 0.49943 0.78276 0.99176 0.0
H1468 H 0.47547 0.74797 1.04119 0.0
C1469 C 0.39918 0.70439 0.99837 0.0
C1470 C 0.40247 0.679 1.00984 0.0
C1471 C 0.42056 0.72643 0.99826 0.0
C1472 C 0.48187 0.75741 1.02723 0.0
H1473 H 0.59951 0.82964 0.98344 0.0
H1474 H 0.55934 0.79495 0.98411 0.0
H1475 H 0.51304 0.78598 1.04076 0.0
H1476 H 0.43125 0.65758 1.03045 0.0
H1477 H 0.46814 0.69601 1.03043 0.0
H1478 H 0.46828 0.75437 0.97821 0.0
C1479 C 0.55931 0.81254 0.99466 0.0
C1480 C 0.5033 0.77947 1.02701 0.0
C1481 C 0.58251 0.83246 0.99433 0.0
C1482 C 0.42784 0.67657 1.0213 0.0
C1483 C 0.449 0.69883 1.02143 0.0
C1484 C 0.47767 0.76113 0.99202 0.0
C1485 C 0.53688 0.81462 1.00873 0.0
C1486 C 0.51266 0.79232 1.00924 0.0
C1487 C 0.44579 0.72413 1.00986 0.0
C1488 C 0.46867 0.74785 1.00973 0.0
H1489 H 0.56189 0.87558 1.0324 0.0
H1490 H 0.52133 0.84036 1.03323 0.0
H1491 H 0.50584 0.79214 0.97779 0.0
H1492 H 0.38006 0.70726 0.98936 0.0
H1493 H 0.41708 0.74557 0.98926 0.0
C1494 C 0.59487 0.18399 0.75191 0.0
C1495 C 0.58754 0.15617 0.7592 0.0
C1496 C 0.57445 0.20691 0.75207 0.0
C1497 C 0.49396 0.22114 0.75536 0.0
H1498 H 0.51769 0.30054 0.76561 0.0
C1499 C 0.41451 0.32069 0.7467 0.0
C1500 C 0.41729 0.34379 0.76011 0.0
C1501 C 0.43471 0.29753 0.74648 0.0
C1502 C 0.51049 0.2785 0.76282 0.0
H1503 H 0.5527 0.13137 0.77291 0.0
H1504 H 0.51766 0.17099 0.77341 0.0
H1505 H 0.55382 0.26174 0.76587 0.0
H1506 H 0.44241 0.35882 0.78493 0.0
H1507 H 0.47759 0.31943 0.78428 0.0
H1508 H 0.45055 0.23789 0.75254 0.0
C1509 C 0.53901 0.17514 0.76723 0.0
C1510 C 0.53144 0.25614 0.76275 0.0
C1511 C 0.55936 0.15232 0.76708 0.0
C1512 C 0.44018 0.34233 0.77376 0.0
C1513 C 0.46042 0.31945 0.77345 0.0
C1514 C 0.47303 0.24355 0.75529 0.0
C1515 C 0.54597 0.2028 0.75951 0.0
C1516 C 0.52358 0.22697 0.75915 0.0
C1517 C 0.45837 0.29675 0.75966 0.0
C1518 C 0.48084 0.27266 0.75916 0.0
H1519 H 0.61618 0.1879 0.74558 0.0
H1520 H 0.58081 0.2277 0.74587 0.0
H1521 H 0.48686 0.19916 0.75225 0.0
H1522 H 0.39703 0.32075 0.7361 0.0
H1523 H 0.43216 0.28059 0.73562 0.0
C1524 C 0.1012 0.31235 0.50974 0.0
C1525 C 0.09706 0.34256 0.50725 0.0
C1526 C 0.07769 0.2927 0.50889 0.0
C1527 C 0.99779 0.28679 0.51561 0.0
H1528 H 0.00504 0.21587 0.48545 0.0
C1529 C 0.93314 0.16824 0.50084 0.0
C1530 C 0.90416 0.17709 0.50392 0.0
C1531 C 0.9563 0.18839 0.50137 0.0
C1532 C 1.00251 0.23517 0.49433 0.0
H1533 H 0.06422 0.37522 0.50159 0.0
H1534 H 0.02318 0.3412 0.50093 0.0
H1535 H 0.04533 0.25022 0.48643 0.0
H1536 H 0.87735 0.21466 0.51026 0.0
H1537 H 0.91694 0.24973 0.51009 0.0
H1538 H 0.95559 0.27155 0.52424 0.0
C1539 C 0.04481 0.33273 0.50346 0.0
C1540 C 0.02582 0.25514 0.49474 0.0
C1541 C 0.06847 0.35235 0.50386 0.0
C1542 C 0.89924 0.20681 0.50771 0.0
C1543 C 0.9223 0.22708 0.50784 0.0
C1544 C 0.97466 0.26657 0.51554 0.0
C1545 C 0.04904 0.30253 0.5059 0.0
C1546 C 0.02387 0.28133 0.50535 0.0
C1547 C 0.95143 0.21838 0.50468 0.0
C1548 C 0.97642 0.24026 0.50485 0.0
H1549 H 0.12275 0.30373 0.51234 0.0
H1550 H 0.08193 0.26972 0.51096 0.0
H1551 H 0.99549 0.3065 0.52415 0.0
H1552 H 0.93807 0.14556 0.49813 0.0
H1553 H 0.97811 0.18013 0.49938 0.0
C1554 C 0.09309 0.69036 0.27019 0.0
C1555 C 0.0858 0.66228 0.26348 0.0
C1556 C 0.07252 0.71315 0.27009 0.0
C1557 C 1.00242 0.7367 0.24698 0.0
H1558 H 0.99765 0.78992 0.29082 0.0
C1559 C 0.90938 0.82331 0.25191 0.0
C1560 C 0.91478 0.85006 0.26127 0.0
C1561 C 0.92994 0.80053 0.25238 0.0
C1562 C 0.99877 0.7757 0.27822 0.0
H1563 H 0.05054 0.63677 0.25126 0.0
H1564 H 0.01515 0.67624 0.25089 0.0
H1565 H 0.03386 0.75128 0.29094 0.0
H1566 H 0.94606 0.87274 0.2793 0.0
H1567 H 0.98223 0.83428 0.27927 0.0
H1568 H 0.96787 0.76128 0.234 0.0
C1569 C 0.03683 0.68077 0.25623 0.0
C1570 C 0.01971 0.75327 0.27835 0.0
C1571 C 0.05725 0.65793 0.25655 0.0
C1572 C 0.94124 0.85295 0.27143 0.0
C1573 C 0.96196 0.83039 0.27171 0.0
C1574 C 0.98171 0.7593 0.24674 0.0
C1575 C 0.04401 0.70882 0.26303 0.0
C1576 C 0.02187 0.73325 0.26277 0.0
C1577 C 0.95685 0.80363 0.26215 0.0
C1578 C 0.9793 0.77929 0.26239 0.0
H1579 H 0.11473 0.69476 0.27566 0.0
H1580 H 0.07916 0.73437 0.2753 0.0
H1581 H 0.0035 0.72215 0.23453 0.0
H1582 H 0.88925 0.81991 0.24406 0.0
H1583 H 0.92446 0.78034 0.24516 0.0
C1584 C 0.41618 0.95933 0.19579 0.0
C1585 C 0.40464 0.97789 0.18132 0.0
C1586 C 0.43677 0.9382 0.19078 0.0
C1587 C 0.47542 0.9052 0.14773 0.0
H1588 H 0.54418 0.92025 0.17877 0.0
C1589 C 0.59263 0.9472 1.12977 0.0
C1590 C 0.59842 0.93138 1.11261 0.0
C1591 C 0.57159 0.93755 0.14307 0.0
C1592 C 0.52517 0.9154 0.17003 0.0
H1593 H 0.40429 0.98749 0.15011 0.0
H1594 H 0.43987 0.95115 0.14144 0.0
H1595 H 0.49652 0.93141 0.19223 0.0
H1596 H 0.58935 0.89125 1.09712 0.0
H1597 H 0.55236 0.87434 1.12043 0.0
H1598 H 0.50413 0.89251 1.12467 0.0
C1599 C 0.43288 0.95235 0.15662 0.0
C1600 C 0.49772 0.92148 0.17785 0.0
C1601 C 0.41245 0.97342 0.16162 0.0
C1602 C 0.58477 0.90426 1.11 0.0
C1603 C 0.56369 0.89453 1.12337 0.0
C1604 C 0.50286 0.89951 0.13981 0.0
C1605 C 0.44611 0.93521 0.17121 0.0
C1606 C 0.47276 0.91856 0.16618 0.0
C1607 C 0.55583 0.91181 0.13955 0.0
C1608 C 0.5281 0.90672 0.15035 0.0
H1609 H 0.41008 0.96182 0.21107 0.0
H1610 H 0.44631 0.92512 0.20232 0.0
H1611 H 0.45647 0.90185 0.13861 0.0
H1612 H 0.60263 0.96824 1.13219 0.0
H1613 H 0.56599 0.95173 0.15517 0.0
C1614 C 0.81781 0.62331 0.4448 0.0
C1615 C 0.81915 0.63106 0.46467 0.0
C1616 C 0.82477 0.64376 0.43022 0.0
C1617 C 0.84353 0.6918 0.40137 0.0
H1618 H 0.80325 0.76323 0.41468 0.0
C1619 C 0.83175 0.79318 0.34953 0.0
C1620 C 0.80339 0.80463 0.34864 0.0
C1621 C 0.83857 0.77124 0.36307 0.0
C1622 C 0.81468 0.74347 0.41076 0.0
H1623 H 0.83143 0.66475 0.48513 0.0
H1624 H 0.84455 0.70018 0.45977 0.0
H1625 H 0.80987 0.72603 0.43962 0.0
H1626 H 0.75967 0.80076 0.36053 0.0
H1627 H 0.77171 0.7631 0.3843 0.0
H1628 H 0.84722 0.70929 0.37216 0.0
C1629 C 0.83749 0.67869 0.45533 0.0
C1630 C 0.81884 0.72226 0.42512 0.0
C1631 C 0.83026 0.6584 0.46985 0.0
C1632 C 0.78188 0.79302 0.36115 0.0
C1633 C 0.78874 0.77138 0.37473 0.0
C1634 C 0.83952 0.71326 0.38696 0.0
C1635 C 0.83323 0.67216 0.43539 0.0
C1636 C 0.83282 0.69593 0.42055 0.0
C1637 C 0.81722 0.76058 0.37605 0.0
C1638 C 0.82439 0.73896 0.39145 0.0
H1639 H 0.80896 0.60241 0.44053 0.0
H1640 H 0.82113 0.63807 0.41501 0.0
H1641 H 0.85445 0.67178 0.39743 0.0
H1642 H 0.84889 0.80178 0.3402 0.0
H1643 H 0.86071 0.76331 0.36384 0.0
C1644 C 0.17463 0.03497 0.65604 0.0
C1645 C 0.16926 0.03969 0.6761 0.0
C1646 C 0.1568 0.04773 0.64188 0.0
C1647 C 0.09234 0.09696 0.63516 0.0
H1648 H 0.06802 0.03542 0.60004 0.0
C1649 C 0.97534 0.08282 0.60678 0.0
C1650 C 0.97135 0.07278 0.58751 0.0
C1651 C 0.00331 0.08566 0.61448 0.0
C1652 C 0.07482 0.05312 0.60943 0.0
H1653 H 0.14371 0.06464 0.6969 0.0
H1654 H 0.11181 0.08565 0.67245 0.0
H1655 H 0.11242 0.02989 0.61855 0.0
H1656 H 0.99356 0.05842 0.5611 0.0
H1657 H 0.04233 0.06347 0.57454 0.0
H1658 H 0.05333 0.11921 0.62677 0.0
C1659 C 0.12976 0.07233 0.66746 0.0
C1660 C 0.10048 0.05006 0.62002 0.0
C1661 C 0.14784 0.05993 0.68156 0.0
C1662 C 0.99592 0.06638 0.57595 0.0
C1663 C 0.02383 0.06912 0.58367 0.0
C1664 C 0.06643 0.09989 0.62466 0.0
C1665 C 0.13302 0.06511 0.64752 0.0
C1666 C 0.10917 0.07151 0.63348 0.0
C1667 C 0.02781 0.07835 0.60311 0.0
C1668 C 0.05706 0.07761 0.6121 0.0
H1669 H 0.19109 0.01966 0.6513 0.0
H1670 H 0.16048 0.04241 0.62659 0.0
H1671 H 0.09862 0.11414 0.64513 0.0
H1672 H 0.95683 0.08827 0.61594 0.0
H1673 H 0.00569 0.09252 0.62959 0.0
C1674 C 0.77048 0.38207 0.89266 0.0
C1675 C 0.75399 0.38706 0.90972 0.0
C1676 C 0.76368 0.35875 0.88037 0.0
C1677 C 0.70851 0.30162 0.86996 0.0
H1678 H 0.77618 0.25299 0.86121 0.0
C1679 C 0.73818 0.17357 0.85633 0.0
C1680 C 0.71969 0.16672 0.84067 0.0
C1681 C 0.74108 0.20233 0.86258 0.0
C1682 C 0.75708 0.26633 0.86356 0.0
H1683 H 0.71605 0.37352 0.9264 0.0
H1684 H 0.70419 0.33283 0.90503 0.0
H1685 H 0.78241 0.30181 0.87434 0.0
H1686 H 0.68888 0.18435 0.81976 0.0
H1687 H 0.69401 0.23465 0.83069 0.0
H1688 H 0.68314 0.26556 0.85982 0.0
C1689 C 0.72233 0.34676 0.90108 0.0
C1690 C 0.76067 0.29445 0.8708 0.0
C1691 C 0.72922 0.36993 0.91339 0.0
C1692 C 0.70354 0.18907 0.83174 0.0
C1693 C 0.70631 0.21781 0.83807 0.0
C1694 C 0.70493 0.27348 0.86261 0.0
C1695 C 0.74018 0.34021 0.88489 0.0
C1696 C 0.73639 0.3122 0.87445 0.0
C1697 C 0.72539 0.22477 0.85339 0.0
C1698 C 0.72916 0.25534 0.85976 0.0
H1699 H 0.78975 0.39491 0.88955 0.0
H1700 H 0.77757 0.35442 0.86783 0.0
H1701 H 0.68942 0.31487 0.87254 0.0
H1702 H 0.751 0.15681 0.8634 0.0
H1703 H 0.75562 0.20702 0.87464 0.0
C1704 C 0.22352 0.39844 0.82772 0.0
C1705 C 0.20388 0.40116 0.81212 0.0
C1706 C 0.21577 0.38314 0.84465 0.0
C1707 C 0.16774 0.32234 0.85786 0.0
H1708 H 0.20818 0.32974 0.90743 0.0
C1709 C 0.17075 0.23078 0.9169 0.0
C1710 C 0.19942 0.22236 0.92112 0.0
C1711 C 0.16536 0.25658 0.90658 0.0
C1712 C 0.19651 0.32755 0.89373 0.0
H1713 H 0.15976 0.39276 0.80272 0.0
H1714 H 0.14571 0.36661 0.8327 0.0
H1715 H 0.20687 0.37101 0.88477 0.0
H1716 H 0.2448 0.23451 0.91855 0.0
H1717 H 0.23538 0.27991 0.90083 0.0
H1718 H 0.15785 0.27866 0.86683 0.0
C1719 C 0.16744 0.37561 0.83162 0.0
C1720 C 0.19583 0.3511 0.88071 0.0
C1721 C 0.17532 0.39089 0.81456 0.0
C1722 C 0.22254 0.24048 0.91533 0.0
C1723 C 0.21713 0.26651 0.90539 0.0
C1724 C 0.16801 0.29897 0.87105 0.0
C1725 C 0.18805 0.37034 0.84646 0.0
C1726 C 0.1826 0.34835 0.8622 0.0
C1727 C 0.18853 0.27466 0.90076 0.0
C1728 C 0.18342 0.30101 0.88872 0.0
H1729 H 0.24562 0.40643 0.82624 0.0
H1730 H 0.23239 0.37949 0.85558 0.0
H1731 H 0.15759 0.31916 0.84372 0.0
H1732 H 0.15259 0.21707 0.92121 0.0
H1733 H 0.14315 0.2624 0.9031 0.0
C1734 C 0.17856 0.83804 0.48589 0.0
C1735 C 0.18696 0.86526 0.47839 0.0
C1736 C 0.16755 0.81669 0.47342 0.0
C1737 C 0.17389 0.77044 0.44278 0.0
H1738 H 0.13407 0.78374 0.39352 0.0
C1739 C 0.17866 0.72022 0.36127 0.0
C1740 C 0.17885 0.69034 0.36578 0.0
C1741 C 0.1709 0.7406 0.37553 0.0
C1742 C 0.14513 0.7797 0.40726 0.0
H1743 H 0.18878 0.89237 0.45237 0.0
H1744 H 0.17043 0.85492 0.43039 0.0
H1745 H 0.13459 0.82194 0.41843 0.0
H1746 H 0.16891 0.6583 0.3883 0.0
H1747 H 0.15552 0.69393 0.41323 0.0
H1748 H 0.18522 0.72869 0.43149 0.0
C1749 C 0.17162 0.85007 0.44593 0.0
C1750 C 0.14547 0.80156 0.42152 0.0
C1751 C 0.18221 0.87157 0.4585 0.0
C1752 C 0.1696 0.68121 0.38452 0.0
C1753 C 0.16184 0.70159 0.39877 0.0
C1754 C 0.17339 0.74861 0.42863 0.0
C1755 C 0.16533 0.82196 0.45311 0.0
C1756 C 0.16053 0.79747 0.43925 0.0
C1757 C 0.16316 0.73154 0.39459 0.0
C1758 C 0.15968 0.75324 0.41051 0.0
H1759 H 0.18184 0.83282 0.50125 0.0
H1760 H 0.1622 0.79555 0.47954 0.0
H1761 H 0.18624 0.7666 0.45602 0.0
H1762 H 0.18588 0.72796 0.34702 0.0
H1763 H 0.17248 0.76353 0.37191 0.0
C1764 C 0.15142 0.58739 0.56578 0.0
C1765 C 0.16142 0.55867 0.56417 0.0
C1766 C 0.13644 0.59624 0.58269 0.0
C1767 C 0.11119 0.56996 0.63239 0.0
H1768 H 0.03857 0.60554 0.61649 0.0
C1769 C 0.99956 0.53967 0.66398 0.0
C1770 C 0.98057 0.56214 0.66939 0.0
C1771 C 0.02603 0.54608 0.65482 0.0
C1772 C 0.05892 0.59611 0.62128 0.0
H1773 H 0.16675 0.51774 0.57953 0.0
H1774 H 0.14037 0.53264 0.60863 0.0
H1775 H 0.07995 0.60621 0.5941 0.0
H1776 H 0.9741 0.60881 0.66962 0.0
H1777 H 0.02021 0.62002 0.65276 0.0
H1778 H 0.08895 0.55766 0.65891 0.0
C1779 C 0.14399 0.54868 0.59719 0.0
C1780 C 0.0828 0.59663 0.60851 0.0
C1781 C 0.15899 0.53996 0.58041 0.0
C1782 C 0.98849 0.59117 0.66557 0.0
C1783 C 0.01475 0.59756 0.65599 0.0
C1784 C 0.08714 0.56899 0.64499 0.0
C1785 C 0.13119 0.57644 0.59816 0.0
C1786 C 0.10887 0.58245 0.61355 0.0
C1787 C 0.03372 0.57504 0.65057 0.0
C1788 C 0.06053 0.58112 0.63921 0.0
H1789 H 0.15309 0.60222 0.55343 0.0
H1790 H 0.12745 0.618 0.58313 0.0
H1791 H 0.13112 0.55949 0.63699 0.0
H1792 H 0.99394 0.51716 0.66691 0.0
H1793 H 0.04015 0.52833 0.65053 0.0
C1794 C 0.52191 0.43125 0.17064 0.0
C1795 C 0.55064 0.43273 0.16351 0.0
C1796 C 0.49894 0.42447 0.15804 0.0
C1797 C 0.48207 0.39631 1.10792 0.0
H1798 H 0.41543 0.4475 1.11215 0.0
C1799 C 0.41255 0.43275 1.04279 0.0
C1800 C 0.38301 0.43912 1.04574 0.0
C1801 C 0.42957 0.42268 1.0583 0.0
C1802 C 0.4335 0.4325 1.11097 0.0
H1803 H 0.57786 0.42658 0.13777 0.0
H1804 H 0.53791 0.41575 1.11573 0.0
H1805 H 0.45217 0.44794 0.13765 0.0
H1806 H 0.34753 0.43811 1.06674 0.0
H1807 H 0.37735 0.42041 1.094 0.0
H1808 H 0.46397 0.3821 1.08062 0.0
C1809 C 0.53303 0.41947 1.13108 0.0
C1810 C 0.45465 0.43276 1.12563 0.0
C1811 C 0.55595 0.42615 0.14368 0.0
C1812 C 0.37023 0.43314 1.06408 0.0
C1813 C 0.38735 0.4233 1.0797 0.0
C1814 C 0.46096 0.39618 1.09319 0.0
C1815 C 0.50416 0.41904 0.13801 0.0
C1816 C 0.47965 0.41532 1.12401 0.0
C1817 C 0.41743 0.41905 1.07714 0.0
C1818 C 0.43687 0.41489 1.09429 0.0
H1819 H 0.51701 0.43631 0.18582 0.0
H1820 H 0.47702 0.42399 0.16393 0.0
H1821 H 0.50072 0.38213 1.1064 0.0
H1822 H 0.42286 0.43727 1.02876 0.0
H1823 H 0.45268 0.41985 1.05584 0.0
C1824 C 0.27766 0.29727 0.27344 0.0
C1825 C 0.26379 0.28718 0.29062 0.0
C1826 C 0.27908 0.32714 0.26925 0.0
C1827 C 0.26507 0.4007 0.29133 0.0
H1828 H 0.2476 0.42203 0.2376 0.0
C1829 C 0.19836 0.49492 0.24877 0.0
C1830 C 0.20574 0.51919 0.26013 0.0
C1831 C 0.2138 0.46898 0.25051 0.0
C1832 C 0.25245 0.41651 0.2527 0.0
H1833 H 0.24226 0.30083 0.31746 0.0
H1834 H 0.24339 0.35226 0.30981 0.0
H1835 H 0.25847 0.37171 0.24555 0.0
H1836 H 0.23638 0.53612 0.28125 0.0
H1837 H 0.26429 0.49098 0.28386 0.0
H1838 H 0.25663 0.44502 0.29876 0.0
C1839 C 0.25368 0.33742 0.29962 0.0
C1840 C 0.25915 0.38759 0.25724 0.0
C1841 C 0.25253 0.30772 0.30387 0.0
C1842 C 0.2303 0.51776 0.27224 0.0
C1843 C 0.246 0.49174 0.27393 0.0
C1844 C 0.25792 0.42953 0.28685 0.0
C1845 C 0.26653 0.34759 0.2821 0.0
C1846 C 0.26454 0.37907 0.27674 0.0
C1847 C 0.23735 0.46671 0.26353 0.0
C1848 C 0.25047 0.43762 0.26758 0.0
H1849 H 0.28656 0.28209 0.26288 0.0
H1850 H 0.28956 0.33412 0.25576 0.0
H1851 H 0.2699 0.3952 0.30644 0.0
H1852 H 0.17997 0.49565 0.23895 0.0
H1853 H 0.20614 0.4503 0.24237 0.0
C1854 C 0.45166 0.5098 0.55477 0.0
C1855 C 0.47185 0.52072 0.54101 0.0
C1856 C 0.42188 0.51036 0.55091 0.0
C1857 C 0.37145 0.5132 0.50883 0.0
H1858 H 0.31401 0.51052 0.55066 0.0
C1859 C 0.24193 0.48146 0.52409 0.0
C1860 C 0.24156 0.45616 0.51261 0.0
C1861 C 0.26756 0.49789 0.52573 0.0
C1862 C 0.32954 0.51184 0.53869 0.0
H1863 H 0.47612 0.54231 0.51274 0.0
H1864 H 0.42411 0.54448 0.50639 0.0
H1865 H 0.36361 0.52523 0.55793 0.0
H1866 H 0.26656 0.42958 0.49258 0.0
H1867 H 0.31113 0.45715 0.49584 0.0
H1868 H 0.33733 0.50012 0.48956 0.0
C1869 C 0.43138 0.53463 0.51996 0.0
C1870 C 0.35821 0.51982 0.54292 0.0
C1871 C 0.46129 0.53373 0.52373 0.0
C1872 C 0.26649 0.44858 0.50189 0.0
C1873 C 0.29195 0.46479 0.50352 0.0
C1874 C 0.34273 0.50565 0.50455 0.0
C1875 C 0.41129 0.52229 0.53328 0.0
C1876 C 0.37985 0.51937 0.52821 0.0
C1877 C 0.29313 0.48928 0.51583 0.0
C1878 C 0.3217 0.50357 0.51957 0.0
H1879 H 0.45887 0.50024 0.56845 0.0
H1880 H 0.40732 0.5003 0.56147 0.0
H1881 H 0.38731 0.5125 0.49705 0.0
H1882 H 0.22295 0.48767 0.53256 0.0
H1883 H 0.26756 0.51683 0.53515 0.0
C1884 C 0.23241 0.70915 0.76909 0.0
C1885 C 0.24804 0.71913 0.78543 0.0
C1886 C 0.23008 0.67924 0.76533 0.0
C1887 C 0.24359 0.60574 0.78752 0.0
H1888 H 0.26344 0.58422 0.73417 0.0
C1889 C 0.31423 0.51281 0.74779 0.0
C1890 C 0.30539 0.48793 0.75822 0.0
C1891 C 0.29828 0.5385 0.74894 0.0
C1892 C 0.25771 0.58981 0.74913 0.0
H1893 H 0.27163 0.70562 0.81137 0.0
H1894 H 0.26816 0.65391 0.80471 0.0
H1895 H 0.25171 0.63461 0.74163 0.0
H1896 H 0.27198 0.46973 0.77714 0.0
H1897 H 0.24361 0.51485 0.77907 0.0
H1898 H 0.25171 0.56135 0.79527 0.0
C1899 C 0.25748 0.66888 0.79479 0.0
C1900 C 0.25063 0.6187 0.75338 0.0
C1901 C 0.25983 0.69862 0.79849 0.0
C1902 C 0.27921 0.48864 0.76891 0.0
C1903 C 0.26317 0.51453 0.77014 0.0
C1904 C 0.25082 0.57687 0.78329 0.0
C1905 C 0.24316 0.65875 0.77793 0.0
C1906 C 0.24463 0.62727 0.77278 0.0
C1907 C 0.27297 0.54 0.76057 0.0
C1908 C 0.25913 0.5688 0.76418 0.0
H1909 H 0.22308 0.72446 0.75877 0.0
H1910 H 0.21864 0.67219 0.75233 0.0
H1911 H 0.23846 0.61144 0.80256 0.0
H1912 H 0.33403 0.51269 0.73914 0.0
H1913 H 0.30675 0.55763 0.74153 0.0
C1914 C 0.04887 0.473 1.02489 0.0
C1915 C 0.03848 0.48838 1.04129 0.0
C1916 C 0.07885 0.47061 1.02133 0.0
C1917 C 0.15201 0.48626 1.04381 0.0
H1918 H 0.17454 0.50033 0.98974 0.0
C1919 C 0.24387 0.55475 1.00014 0.0
C1920 C 0.2682 0.54964 1.01196 0.0
C1921 C 0.21894 0.53774 1.00208 0.0
C1922 C 0.1687 0.4964 1.00494 0.0
H1923 H 0.05162 0.51129 1.06761 0.0
H1924 H 0.10321 0.5085 1.061 0.0
H1925 H 0.12432 0.48873 0.99748 0.0
H1926 H 0.28662 0.52123 1.03402 0.0
H1927 H 0.24296 0.49064 1.03722 0.0
H1928 H 0.19588 0.49657 1.05141 0.0
C1929 C 0.08857 0.49779 1.05093 0.0
C1930 C 0.13982 0.48927 1.00938 0.0
C1931 C 0.05877 0.49989 1.05456 0.0
C1932 C 0.26802 0.52566 1.02478 0.0
C1933 C 0.24292 0.50839 1.02672 0.0
C1934 C 0.1808 0.49389 1.03939 0.0
C1935 C 0.09912 0.48368 1.03404 0.0
C1936 C 0.13078 0.48529 1.02897 0.0
C1937 C 0.21771 0.51482 1.0158 0.0
C1938 C 0.18924 0.5003 1.01998 0.0
H1939 H 0.03387 0.4638 1.01437 0.0
H1940 H 0.08607 0.45912 1.00835 0.0
H1941 H 0.14617 0.48244 1.05902 0.0
H1942 H 0.24374 0.57263 0.98976 0.0
H1943 H 0.20009 0.54376 0.99353 0.0
C1944 C 0.81815 0.52767 1.01013 0.0
C1945 C 0.80729 0.49989 1.00575 0.0
C1946 C 0.80244 0.55257 1.00541 0.0
C1947 C 0.72997 0.58073 0.99608 0.0
H1948 H 0.77223 0.64416 0.97115 0.0
C1949 C 0.67385 0.68982 0.9803 0.0
C1950 C 0.68964 0.71464 0.98588 0.0
C1951 C 0.6876 0.66285 0.97874 0.0
C1952 C 0.76013 0.62674 0.97819 0.0
H1953 H 0.77027 0.47648 0.99395 0.0
H1954 H 0.74239 0.52029 0.98597 0.0
H1955 H 0.79661 0.5979 0.97714 0.0
H1956 H 0.73234 0.73107 0.99328 0.0
H1957 H 0.75637 0.68399 0.99086 0.0
H1958 H 0.69385 0.60981 0.99792 0.0
C1959 C 0.76347 0.5226 0.99282 0.0
C1960 C 0.77407 0.60024 0.98157 0.0
C1961 C 0.77942 0.49755 0.99744 0.0
C1962 C 0.71974 0.71234 0.98875 0.0
C1963 C 0.73347 0.68531 0.98735 0.0
C1964 C 0.71605 0.60734 0.99284 0.0
C1965 C 0.77519 0.55036 0.99638 0.0
C1966 C 0.75932 0.5772 0.99092 0.0
C1967 C 0.71739 0.66008 0.98289 0.0
C1968 C 0.73115 0.63086 0.9842 0.0
H1969 H 0.83888 0.53036 1.01716 0.0
H1970 H 0.81164 0.57365 1.00887 0.0
H1971 H 0.71815 0.56339 1.00343 0.0
H1972 H 0.65064 0.69112 0.97779 0.0
H1973 H 0.6747 0.64401 0.97484 0.0
C1974 C 0.56007 0.46798 0.74082 0.0
C1975 C 0.55529 0.43833 0.74493 0.0
C1976 C 0.58843 0.47866 0.7383 0.0
C1977 C 0.65333 0.49141 0.72742 0.0
H1978 H 0.69924 0.47214 0.77336 0.0
C1979 C 0.7747 0.52552 0.74081 0.0
C1980 C 0.77595 0.54573 0.7562 0.0
C1981 C 0.74927 0.50939 0.73764 0.0
C1982 C 0.68678 0.47735 0.76035 0.0
H1983 H 0.57625 0.39622 0.7475 0.0
H1984 H 0.6256 0.41502 0.74361 0.0
H1985 H 0.65139 0.44968 0.76894 0.0
H1986 H 0.75256 0.56407 0.78086 0.0
H1987 H 0.7086 0.53486 0.77588 0.0
H1988 H 0.6889 0.51931 0.719 0.0
C1989 C 0.60749 0.42999 0.74254 0.0
C1990 C 0.65952 0.46451 0.75778 0.0
C1991 C 0.57924 0.41928 0.7448 0.0
C1992 C 0.75205 0.54857 0.76892 0.0
C1993 C 0.72699 0.53195 0.76608 0.0
C1994 C 0.68096 0.5038 0.72979 0.0
C1995 C 0.61242 0.45989 0.73999 0.0
C1996 C 0.64233 0.47175 0.74146 0.0
C1997 C 0.72517 0.51273 0.75017 0.0
C1998 C 0.69763 0.49718 0.74645 0.0
H1999 H 0.54215 0.48324 0.74093 0.0
H2000 H 0.5917 0.50185 0.73638 0.0
H2001 H 0.64046 0.49736 0.71475 0.0
H2002 H 0.79271 0.52339 0.73061 0.0
H2003 H 0.74823 0.49464 0.72529 0.0
C2004 C 0.80596 0.30676 0.49574 0.0
C2005 C 0.82521 0.30219 0.47995 0.0
C2006 C 0.79442 0.33441 0.49933 0.0
C2007 C 0.78004 0.40517 0.47509 0.0
H2008 H 0.76929 0.43195 0.52855 0.0
C2009 C 0.73235 0.51887 0.49248 0.0
C2010 C 0.71013 0.51869 0.50666 0.0
C2011 C 0.74995 0.49429 0.48988 0.0
C2012 C 0.77208 0.42475 0.51353 0.0
H2013 H 0.84712 0.32323 0.45542 0.0
H2014 H 0.82749 0.37146 0.46191 0.0
H2015 H 0.79256 0.38514 0.52255 0.0
H2016 H 0.68955 0.49354 0.52978 0.0
H2017 H 0.71988 0.45068 0.52525 0.0
H2018 H 0.7592 0.44466 0.4661 0.0
C2019 C 0.8211 0.35362 0.47144 0.0
C2020 C 0.78532 0.39786 0.51009 0.0
C2021 C 0.83263 0.32599 0.46785 0.0
C2022 C 0.70643 0.49408 0.51866 0.0
C2023 C 0.72402 0.46966 0.51617 0.0
C2024 C 0.76684 0.43211 0.47853 0.0
C2025 C 0.80182 0.3582 0.48721 0.0
C2026 C 0.78911 0.38753 0.49084 0.0
C2027 C 0.74566 0.46922 0.50152 0.0
C2028 C 0.76232 0.44202 0.49781 0.0
H2029 H 0.8 0.28901 0.50547 0.0
H2030 H 0.77935 0.33703 0.51146 0.0
H2031 H 0.78228 0.39778 0.46008 0.0
H2032 H 0.7353 0.5375 0.48287 0.0
H2033 H 0.76659 0.49471 0.47858 0.0
C2034 C 0.76284 0.44153 0.2746 0.0
C2035 C 0.73851 0.44985 0.26361 0.0
C2036 C 0.78887 0.45698 0.27314 0.0
C2037 C 0.84104 0.49642 0.27217 0.0
H2038 H 0.86283 0.51761 0.21898 0.0
C2039 C 0.95962 0.52692 0.25277 0.0
C2040 C 0.97047 0.51431 0.23543 0.0
C2041 C 0.9297 0.5269 0.25677 0.0
C2042 C 0.85716 0.51175 0.23393 0.0
H2043 H 0.72175 0.48202 0.24334 0.0
H2044 H 0.76704 0.50985 0.24121 0.0
H2045 H 0.81311 0.50292 0.22607 0.0
H2046 H 0.95809 0.49338 0.2082 0.0
H2047 H 0.90654 0.49208 0.21553 0.0
H2048 H 0.88559 0.50299 0.27972 0.0
C2049 C 0.76621 0.49087 0.25066 0.0
C2050 C 0.82843 0.50376 0.23808 0.0
C2051 C 0.74011 0.47518 0.25207 0.0
C2052 C 0.95061 0.50272 0.2219 0.0
C2053 C 0.92085 0.50247 0.22596 0.0
C2054 C 0.86986 0.50403 0.26797 0.0
C2055 C 0.79118 0.48146 0.26077 0.0
C2056 C 0.8202 0.49504 0.25713 0.0
C2057 C 0.90997 0.51415 0.24358 0.0
C2058 C 0.87853 0.51085 0.24865 0.0
H2059 H 0.76201 0.42254 0.284 0.0
H2060 H 0.80755 0.44875 0.28101 0.0
H2061 H 0.83538 0.49051 0.28711 0.0
H2062 H 0.97427 0.53598 0.26355 0.0
H2063 H 0.92212 0.53647 0.27037 0.0
C2064 C 0.77312 0.7881 0.7621 0.0
C2065 C 0.76149 0.7791 0.78026 0.0
C2066 C 0.77229 0.81748 0.75653 0.0
C2067 C 0.74638 0.87546 0.74347 0.0
H2068 H 0.75235 0.93741 0.78177 0.0
C2069 C 0.68358 0.98226 0.73695 0.0
C2070 C 0.69496 0.00806 0.74477 0.0
C2071 C 0.69879 0.95615 0.73848 0.0
C2072 C 0.75114 0.92054 0.77074 0.0
H2073 H 0.74135 0.79404 0.80725 0.0
H2074 H 0.73936 0.84489 0.79745 0.0
H2075 H 0.76718 0.88825 0.79064 0.0
H2076 H 0.73225 0.02713 0.75926 0.0
H2077 H 0.75914 0.9813 0.76188 0.0
H2078 H 0.72991 0.90768 0.72367 0.0
C2079 C 0.74934 0.82947 0.78751 0.0
C2080 C 0.7593 0.89224 0.77591 0.0
C2081 C 0.7501 0.80021 0.79303 0.0
C2082 C 0.72286 0.00756 0.75311 0.0
C2083 C 0.73813 0.98128 0.75475 0.0
C2084 C 0.73828 0.90377 0.73828 0.0
C2085 C 0.75998 0.83845 0.76906 0.0
C2086 C 0.75609 0.86918 0.76256 0.0
C2087 C 0.72591 0.95513 0.74788 0.0
C2088 C 0.73962 0.92646 0.75207 0.0
H2089 H 0.78196 0.77233 0.75192 0.0
H2090 H 0.7809 0.8237 0.74229 0.0
H2091 H 0.74352 0.85826 0.73282 0.0
H2092 H 0.6625 0.98202 0.73011 0.0
H2093 H 0.68851 0.93649 0.73316 0.0
C2094 C 0.76343 0.94595 0.98581 0.0
C2095 C 0.73926 0.95786 0.99555 0.0
C2096 C 0.79069 0.95918 0.98707 0.0
C2097 C 0.84652 0.99408 0.98811 0.0
H2098 H 0.86463 0.01772 1.04125 0.0
C2099 C 0.96419 0.02126 1.01213 0.0
C2100 C 0.97256 0.00825 1.02994 0.0
C2101 C 0.9349 0.02173 1.00659 0.0
C2102 C 0.85994 0.01125 1.02632 0.0
H2103 H 0.72438 0.99431 1.01298 0.0
H2104 H 0.77169 0.018 1.01465 0.0
H2105 H 0.81464 0.0067 1.03261 0.0
H2106 H 0.95666 0.98671 1.05627 0.0
H2107 H 0.90596 0.98688 1.04649 0.0
H2108 H 0.89222 0.99683 0.98225 0.0
C2109 C 0.76974 0.99796 1.00644 0.0
C2110 C 0.83116 0.00532 1.02126 0.0
C2111 C 0.74247 0.98457 1.00527 0.0
C2112 C 0.95098 0.99651 1.04232 0.0
C2113 C 0.92182 0.997 1.03683 0.0
C2114 C 0.87538 0.99988 0.99322 0.0
C2115 C 0.7944 0.98485 0.99797 0.0
C2116 C 0.82417 0.99583 1.00225 0.0
C2117 C 0.91341 0.00935 1.01882 0.0
C2118 C 0.88252 0.00765 1.01255 0.0
H2119 H 0.76155 0.92574 0.97782 0.0
H2120 H 0.80913 0.94831 0.98043 0.0
H2121 H 0.84185 0.98728 0.97325 0.0
H2122 H 0.98035 0.03039 1.00224 0.0
H2123 H 0.92911 0.0316 0.99269 0.0
C2124 C 0.7742 0.99478 0.2467 0.0
C2125 C 0.8033 0.99481 0.25297 0.0
C2126 C 0.75705 0.01986 0.24864 0.0
C2127 C 0.75014 0.08492 0.27883 0.0
H2128 H 0.70818 0.11981 0.23548 0.0
C2129 C 0.67263 0.18233 0.28924 0.0
C2130 C 0.67715 0.20598 0.27643 0.0
C2131 C 0.68618 0.15563 0.28578 0.0
C2132 C 0.71978 0.11024 0.2477 0.0
H2133 H 0.83725 0.02144 0.26593 0.0
H2134 H 0.80734 0.06457 0.26954 0.0
H2135 H 0.73504 0.07425 0.23043 0.0
H2136 H 0.69889 0.22004 0.24973 0.0
H2137 H 0.72243 0.17308 0.24355 0.0
H2138 H 0.73509 0.12073 0.29612 0.0
C2139 C 0.79778 0.04526 0.26312 0.0
C2140 C 0.73491 0.08412 0.24485 0.0
C2141 C 0.81496 0.02054 0.26089 0.0
C2142 C 0.69517 0.20222 0.2599 0.0
C2143 C 0.70841 0.17532 0.25628 0.0
C2144 C 0.73468 0.11068 0.28176 0.0
C2145 C 0.76863 0.04517 0.25717 0.0
C2146 C 0.75057 0.07147 0.26034 0.0
C2147 C 0.70426 0.15184 0.2693 0.0
C2148 C 0.71961 0.12381 0.26618 0.0
H2149 H 0.76469 0.97545 0.24032 0.0
H2150 H 0.7346 0.01928 0.24391 0.0
H2151 H 0.76193 0.07554 0.29104 0.0
H2152 H 0.65902 0.18465 0.30216 0.0
H2153 H 0.68249 0.13787 0.29601 0.0
C2154 C 0.73894 0.06321 0.48837 0.0
C2155 C 0.76319 0.05735 0.50015 0.0
C2156 C 0.71389 0.04611 0.48986 0.0
C2157 C 0.68497 0.97594 0.50898 0.0
H2158 H 0.61176 0.01773 0.50919 0.0
C2159 C 0.57624 0.92355 0.53403 0.0
C2160 C 0.55101 0.93062 0.52344 0.0
C2161 C 0.60258 0.93774 0.53012 0.0
C2162 C 0.63196 0.00565 0.5089 0.0
H2163 H 0.78054 0.02871 0.52247 0.0
H2164 H 0.73678 0.99867 0.52514 0.0
H2165 H 0.65703 0.04427 0.50416 0.0
H2166 H 0.534 0.95768 0.50002 0.0
H2167 H 0.57992 0.98255 0.49326 0.0
H2168 H 0.65975 0.93733 0.51401 0.0
C2169 C 0.7372 0.01627 0.51453 0.0
C2170 C 0.65797 0.02087 0.50599 0.0
C2171 C 0.76235 0.03338 0.51296 0.0
C2172 C 0.55287 0.95203 0.50868 0.0
C2173 C 0.57921 0.96627 0.50479 0.0
C2174 C 0.65891 0.96069 0.51193 0.0
C2175 C 0.71245 0.02279 0.50325 0.0
C2176 C 0.68482 0.00624 0.506 0.0
C2177 C 0.60434 0.95943 0.51555 0.0
C2178 C 0.63209 0.97539 0.51196 0.0
H2179 H 0.73926 0.08116 0.47806 0.0
H2180 H 0.69553 0.05136 0.4806 0.0
H2181 H 0.70522 0.96393 0.50884 0.0
H2182 H 0.57552 0.90749 0.54571 0.0
H2183 H 0.6214 0.93224 0.53887 0.0
C2184 C 0.23057 0.20974 0.51221 0.0
C2185 C 0.23739 0.21818 0.49286 0.0
C2186 C 0.23092 0.18024 0.51762 0.0
C2187 C 0.2579 0.12049 0.52635 0.0
H2188 H 0.23635 0.05986 0.48966 0.0
C2189 C 0.31849 0.01581 0.50498 0.0
C2190 C 0.30905 0.99052 0.51486 0.0
C2191 C 0.30219 0.04124 0.50555 0.0
C2192 C 0.24178 0.07646 0.5003 0.0
H2193 H 0.24819 0.20238 0.4638 0.0
H2194 H 0.24894 0.15128 0.47315 0.0
H2195 H 0.21988 0.10981 0.48409 0.0
H2196 H 0.27649 0.97337 0.5349 0.0
H2197 H 0.24704 0.01823 0.53536 0.0
H2198 H 0.28137 0.08719 0.54178 0.0
C2199 C 0.24323 0.1672 0.4842 0.0
C2200 C 0.23268 0.10509 0.49702 0.0
C2201 C 0.24314 0.19654 0.47887 0.0
C2202 C 0.28332 0.99179 0.5261 0.0
C2203 C 0.26683 0.01755 0.52669 0.0
C2204 C 0.267 0.09181 0.52961 0.0
C2205 C 0.23768 0.15866 0.50371 0.0
C2206 C 0.24167 0.12765 0.50955 0.0
C2207 C 0.2762 0.04231 0.51626 0.0
C2208 C 0.25976 0.06983 0.51625 0.0
H2209 H 0.22612 0.22598 0.52331 0.0
H2210 H 0.22643 0.17436 0.53275 0.0
H2211 H 0.26544 0.13733 0.53619 0.0
H2212 H 0.33863 0.01609 0.4967 0.0
H2213 H 0.30996 0.06024 0.49762 0.0
C2214 C 0.03263 0.03985 0.25402 0.0
C2215 C 0.01582 0.01748 0.26243 0.0
C2216 C 0.06272 0.03675 0.25198 0.0
C2217 C 0.12328 1.00261 0.2766 0.0
H2218 H 0.16787 0.03172 0.23218 0.0
C2219 C 0.24994 0.03173 0.25244 0.0
C2220 C 0.25637 0.05134 0.26757 0.0
C2221 C 0.2221 0.01939 0.25114 0.0
C2222 C 0.15579 0.02301 0.24457 0.0
H2223 H 0.01699 0.97426 0.27489 0.0
H2224 H 0.06987 0.96876 0.27159 0.0
H2225 H 0.11517 0.02571 0.22933 0.0
H2226 H 0.23997 0.07188 0.2939 0.0
H2227 H 0.19177 0.04978 0.29202 0.0
H2228 H 0.16369 1.00148 0.2922 0.0
C2229 C 0.05969 0.98857 0.26639 0.0
C2230 C 0.12562 0.01979 0.24299 0.0
C2231 C 0.02947 0.99155 0.26814 0.0
C2232 C 0.23543 0.05676 0.28213 0.0
C2233 C 0.20792 0.04403 0.28107 0.0
C2234 C 0.15339 0.00622 0.27828 0.0
C2235 C 0.07668 0.01139 0.25862 0.0
C2236 C 0.10897 0.01025 0.25914 0.0
C2237 C 0.20061 0.02602 0.26521 0.0
C2238 C 0.16984 0.01714 0.26243 0.0
H2239 H 0.02255 0.06012 0.24959 0.0
H2240 H 0.07523 0.05484 0.24615 0.0
H2241 H 0.11101 0.99543 0.28935 0.0
H2242 H 0.26568 0.02759 0.2409 0.0
H2243 H 0.21703 0.00555 0.23877 0.0
C2244 C 0.23019 0.01884 1.00006 0.0
C2245 C 0.20645 0.0206 1.01303 0.0
C2246 C 0.2457 0.99273 0.99822 0.0
C2247 C 0.25509 0.92982 0.98582 0.0
H2248 H 0.26071 0.87386 1.02836 0.0
C2249 C 0.24477 0.8074 0.97303 0.0
C2250 C 0.25836 0.78741 0.98565 0.0
C2251 C 0.24706 0.83727 0.97625 0.0
C2252 C 0.25994 0.88923 1.01629 0.0
H2253 H 0.18189 0.99768 1.03542 0.0
H2254 H 0.2081 0.95225 1.032 0.0
H2255 H 0.25115 0.92468 1.0357 0.0
H2256 H 0.28627 0.78333 1.01108 0.0
H2257 H 0.2909 0.83569 1.01647 0.0
H2258 H 0.26382 0.89438 0.9664 0.0
C2259 C 0.21516 0.97072 1.02327 0.0
C2260 C 0.25407 0.9184 1.0205 0.0
C2261 C 0.19979 0.99668 1.02507 0.0
C2262 C 0.27553 0.79813 1.00106 0.0
C2263 C 0.27795 0.82815 1.00426 0.0
C2264 C 0.26125 0.9007 0.98161 0.0
C2265 C 0.23775 0.96806 1.0094 0.0
C2266 C 0.25032 0.93882 1.00528 0.0
C2267 C 0.26325 0.8481 0.99211 0.0
C2268 C 0.26252 0.87979 0.99674 0.0
H2269 H 0.2356 0.03695 0.9905 0.0
H2270 H 0.2632 0.99156 0.98756 0.0
H2271 H 0.25231 0.94482 0.97368 0.0
H2272 H 0.23184 0.79993 0.96078 0.0
H2273 H 0.23508 0.85179 0.96671 0.0
C2274 C 0.43161 0.09231 0.73606 0.0
C2275 C 0.45816 0.0831 0.74419 0.0
C2276 C 0.4055 0.07854 0.74119 0.0
C2277 C 0.37751 0.00852 0.75845 0.0
H2278 H 0.30637 0.0509 0.76927 0.0
C2279 C 0.27332 0.94684 0.77855 0.0
C2280 C 0.24741 0.95622 0.76981 0.0
C2281 C 0.2982 0.96424 0.77798 0.0
C2282 C 0.32596 0.03872 0.76609 0.0
H2283 H 0.4777 0.05271 0.76471 0.0
H2284 H 0.43219 0.02826 0.77326 0.0
H2285 H 0.35159 0.07758 0.76311 0.0
H2286 H 0.22639 0.99254 0.75536 0.0
H2287 H 0.27015 0.02257 0.75349 0.0
H2288 H 0.35211 0.96975 0.76067 0.0
C2289 C 0.43172 0.04608 0.76282 0.0
C2290 C 0.35187 0.05402 0.76263 0.0
C2291 C 0.45781 0.06002 0.75783 0.0
C2292 C 0.24626 0.98439 0.76178 0.0
C2293 C 0.27134 1.00171 0.76089 0.0
C2294 C 0.35165 0.99325 0.76169 0.0
C2295 C 0.40532 0.05504 0.75443 0.0
C2296 C 0.37791 0.03905 0.75876 0.0
C2297 C 0.29789 0.99145 0.76846 0.0
C2298 C 0.32549 0.0081 0.76558 0.0
H2299 H 0.43103 0.10968 0.72529 0.0
H2300 H 0.38556 0.08568 0.7343 0.0
H2301 H 0.3971 0.99638 0.75515 0.0
H2302 H 0.27452 0.92588 0.78571 0.0
H2303 H 0.31786 0.95606 0.7847 0.0
C2304 C 0.30299 0.12023 0.19678 0.0
C2305 C 0.29094 0.1054 0.21307 0.0
C2306 C 0.2882 0.12172 0.17859 0.0
C2307 C 0.23869 0.0788 0.14766 0.0
H2308 H 0.22353 0.14911 1.1178 0.0
C2309 C 0.20031 0.07715 1.06538 0.0
C2310 C 0.17484 0.09295 1.0611 0.0
C2311 C 0.21504 0.08061 1.0834 0.0
C2312 C 0.22763 0.12923 1.12591 0.0
H2313 H 0.25421 0.07916 0.22223 0.0
H2314 H 0.22887 0.0811 0.19067 0.0
H2315 H 0.24752 0.15215 0.15005 0.0
H2316 H 0.14386 0.12312 1.07355 0.0
H2317 H 0.17037 0.13052 1.10447 0.0
H2318 H 0.21971 0.05577 1.12336 0.0
C2319 C 0.24934 0.09256 0.19211 0.0
C2320 C 0.24152 0.13097 0.14442 0.0
C2321 C 0.26379 0.09171 0.21036 0.0
C2322 C 0.16428 0.11188 1.07573 0.0
C2323 C 0.17934 0.11583 1.09363 0.0
C2324 C 0.22561 0.07699 1.12896 0.0
C2325 C 0.26142 0.10726 0.17578 0.0
C2326 C 0.24704 0.10577 0.15574 0.0
C2327 C 0.20479 0.09993 1.09792 0.0
C2328 C 0.21959 0.10216 1.11778 0.0
H2329 H 0.32466 0.12935 0.19774 0.0
H2330 H 0.29854 0.13286 0.16637 0.0
H2331 H 0.24265 0.05886 0.15574 0.0
H2332 H 0.2085 0.06144 1.05491 0.0
H2333 H 0.23437 0.06779 1.08608 0.0
C2334 C 0.68017 0.44902 0.31312 0.0
C2335 C 0.66603 0.42203 0.31076 0.0
C2336 C 0.67715 0.46542 0.33059 0.0
C2337 C 0.65303 0.45893 0.38438 0.0
H2338 H 0.66273 0.54252 0.38309 0.0
C2339 C 0.66127 0.52855 0.45745 0.0
C2340 C 0.65372 0.55832 0.45709 0.0
C2341 C 0.66082 0.51136 0.44013 0.0
C2342 C 0.65948 0.51925 0.38401 0.0
H2343 H 0.63934 0.3904 0.32598 0.0
H2344 H 0.63303 0.419 0.35593 0.0
H2345 H 0.66424 0.51525 0.35278 0.0
H2346 H 0.64078 0.59294 0.4374 0.0
H2347 H 0.63827 0.56344 0.40808 0.0
H2348 H 0.64719 0.46317 0.41561 0.0
C2349 C 0.64645 0.42798 0.34431 0.0
C2350 C 0.66092 0.50325 0.3663 0.0
C2351 C 0.64958 0.4116 0.32683 0.0
C2352 C 0.64586 0.57005 0.4387 0.0
C2353 C 0.64503 0.55295 0.42153 0.0
C2354 C 0.65132 0.475 0.40212 0.0
C2355 C 0.66033 0.45528 0.34674 0.0
C2356 C 0.65793 0.47262 0.36597 0.0
C2357 C 0.65316 0.52329 0.4216 0.0
C2358 C 0.65457 0.50563 0.40244 0.0
H2359 H 0.6941 0.45732 0.30152 0.0
H2360 H 0.68896 0.48573 0.33155 0.0
H2361 H 0.65092 0.43552 0.3853 0.0
H2362 H 0.66864 0.51866 0.47095 0.0
H2363 H 0.66766 0.48892 0.44126 0.0
C2364 C 0.23138 0.90578 0.70997 0.0
C2365 C 0.20254 0.89523 0.70954 0.0
C2366 C 0.24849 0.90754 0.69262 0.0
C2367 C 0.25607 0.87867 0.64123 0.0
H2368 H 0.29754 0.95035 0.63001 0.0
C2369 C 0.33675 0.89322 0.57359 0.0
C2370 C 0.33505 0.91944 0.56286 0.0
C2371 C 0.32064 0.88901 0.5912 0.0
C2372 C 0.28612 0.93011 0.6328 0.0
H2373 H 0.16965 0.87797 0.69019 0.0
H2374 H 0.19962 0.87975 0.66037 0.0
H2375 H 0.27085 0.94481 0.66106 0.0
H2376 H 0.31637 0.96258 0.56342 0.0
H2377 H 0.28884 0.95562 0.59399 0.0
H2378 H 0.27162 0.86386 0.61306 0.0
C2379 C 0.20908 0.88693 0.67406 0.0
C2380 C 0.27092 0.92683 0.65081 0.0
C2381 C 0.19179 0.8859 0.69125 0.0
C2382 C 0.31757 0.94171 0.57082 0.0
C2383 C 0.30193 0.93778 0.58857 0.0
C2384 C 0.27181 0.88171 0.6234 0.0
C2385 C 0.23762 0.89826 0.67426 0.0
C2386 C 0.25532 0.90116 0.65534 0.0
C2387 C 0.30315 0.91138 0.59921 0.0
C2388 C 0.28692 0.90763 0.61868 0.0
H2389 H 0.24045 0.91357 0.72362 0.0
H2390 H 0.27033 0.91626 0.69358 0.0
H2391 H 0.24457 0.85849 0.64404 0.0
H2392 H 0.35147 0.87629 0.56877 0.0
H2393 H 0.32283 0.86855 0.59898 0.0
C2394 C 0.83357 0.54836 0.81122 0.0
C2395 C 0.84684 0.57566 0.80812 0.0
C2396 C 0.83756 0.5325 0.82887 0.0
C2397 C 0.86375 0.54103 0.88194 0.0
H2398 H 0.85431 0.45739 0.88263 0.0
C2399 C 0.86084 0.47469 0.95665 0.0
C2400 C 0.86803 0.44484 0.95677 0.0
C2401 C 0.85978 0.49091 0.93889 0.0
C2402 C 0.85752 0.48069 0.88297 0.0
H2403 H 0.87296 0.60849 0.82229 0.0
H2404 H 0.88116 0.58079 0.85248 0.0
H2405 H 0.85122 0.48362 0.85184 0.0
H2406 H 0.88029 0.40926 0.93782 0.0
H2407 H 0.87978 0.43717 0.90741 0.0
H2408 H 0.8713 0.53789 0.91299 0.0
C2409 C 0.86762 0.57112 0.84131 0.0
C2410 C 0.85514 0.4961 0.865 0.0
C2411 C 0.86345 0.58699 0.82366 0.0
C2412 C 0.87476 0.43214 0.9385 0.0
C2413 C 0.87401 0.44832 0.92082 0.0
C2414 C 0.86647 0.52556 0.8999 0.0
C2415 C 0.85459 0.5435 0.8445 0.0
C2416 C 0.858 0.52674 0.86397 0.0
C2417 C 0.86592 0.47802 0.92042 0.0
C2418 C 0.86335 0.49494 0.90095 0.0
H2419 H 0.81952 0.53939 0.80003 0.0
H2420 H 0.8263 0.51194 0.83039 0.0
H2421 H 0.86578 0.56447 0.88237 0.0
H2422 H 0.8549 0.48537 0.9702 0.0
H2423 H 0.85309 0.51342 0.93972 0.0
C2424 C 0.83975 0.90367 0.18781 0.0
C2425 C 0.83091 0.92242 0.20303 0.0
C2426 C 0.82339 0.90075 0.17037 0.0
C2427 C 0.7504 0.91997 0.14681 0.0
H2428 H 0.79132 0.90043 1.09884 0.0
C2429 C 0.68748 0.90605 1.072 0.0
C2430 C 0.70182 0.91305 1.05426 0.0
C2431 C 0.70265 0.90499 1.09007 0.0
C2432 C 0.77927 0.90623 1.11193 0.0
H2433 H 0.79834 0.95425 0.21084 0.0
H2434 H 0.76982 0.94927 0.18082 0.0
H2435 H 0.81783 0.90378 1.12945 0.0
H2436 H 0.74329 0.92632 1.04217 0.0
H2437 H 0.76968 0.92442 1.07315 0.0
H2438 H 0.71202 0.92359 1.12907 0.0
C2439 C 0.78894 0.93582 0.18246 0.0
C2440 C 0.79465 0.9077 1.12986 0.0
C2441 C 0.80539 0.93873 0.1999 0.0
C2442 C 0.7317 0.91959 1.05532 0.0
C2443 C 0.7469 0.91851 1.07331 0.0
C2444 C 0.73502 0.91868 1.12883 0.0
C2445 C 0.79765 0.91692 0.16713 0.0
C2446 C 0.78069 0.91472 0.14779 0.0
C2447 C 0.73275 0.91149 1.09124 0.0
C2448 C 0.74908 0.91193 1.11087 0.0
H2449 H 0.85961 0.89127 0.1893 0.0
H2450 H 0.8311 0.88555 0.15944 0.0
H2451 H 0.73827 0.925 0.16002 0.0
H2452 H 0.66423 0.90226 1.07202 0.0
H2453 H 0.69049 0.89928 1.10317 0.0
C2454 C 0.32226 0.55318 0.95902 0.0
C2455 C 0.33763 0.57933 0.96205 0.0
C2456 C 0.32526 0.53702 0.94147 0.0
C2457 C 0.35332 0.54294 0.88839 0.0
H2458 H 0.33553 0.46068 0.88835 0.0
C2459 C 0.34554 0.47529 0.81433 0.0
C2460 C 0.35091 0.44507 0.81484 0.0
C2461 C 0.34546 0.4922 0.8318 0.0
C2462 C 0.34111 0.48354 0.88781 0.0
H2463 H 0.36641 0.60995 0.94756 0.0
H2464 H 0.37343 0.58125 0.91779 0.0
H2465 H 0.33442 0.48724 0.91884 0.0
H2466 H 0.3586 0.40923 0.83483 0.0
H2467 H 0.3603 0.43805 0.8644 0.0
H2468 H 0.36118 0.53874 0.85733 0.0
C2469 C 0.35897 0.57275 0.929 0.0
C2470 C 0.33987 0.49922 0.90563 0.0
C2471 C 0.35564 0.58904 0.94652 0.0
C2472 C 0.35545 0.43246 0.83346 0.0
C2473 C 0.3558 0.44922 0.85076 0.0
C2474 C 0.35489 0.52712 0.87054 0.0
C2475 C 0.34356 0.54643 0.92586 0.0
C2476 C 0.34577 0.52941 0.90646 0.0
C2477 C 0.35029 0.47948 0.85054 0.0
C2478 C 0.34879 0.49695 0.86976 0.0
H2479 H 0.30691 0.54566 0.97005 0.0
H2480 H 0.31211 0.51764 0.93998 0.0
H2481 H 0.3577 0.56606 0.88781 0.0
H2482 H 0.34061 0.4858 0.8005 0.0
H2483 H 0.34064 0.51516 0.83056 0.0
C2484 C 0.67248 0.11422 0.69158 0.0
C2485 C 0.67089 0.086 0.69976 0.0
C2486 C 0.68787 0.11955 0.67376 0.0
C2487 C 0.71544 0.08087 0.62852 0.0
H2488 H 0.76321 0.1493 0.6199 0.0
C2489 C 0.77015 0.10244 0.55202 0.0
C2490 C 0.79887 0.11322 0.55154 0.0
C2491 C 0.75354 0.10218 0.56955 0.0
C2492 C 0.75003 0.12997 0.62197 0.0
H2493 H 0.68361 0.04131 0.69494 0.0
H2494 H 0.71039 0.05044 0.66453 0.0
H2495 H 0.73708 0.14295 0.65118 0.0
H2496 H 0.8329 0.13054 0.56991 0.0
H2497 H 0.80397 0.13089 0.60029 0.0
H2498 H 0.72839 0.06764 0.59956 0.0
C2499 C 0.69996 0.06866 0.6717 0.0
C2500 C 0.73473 0.12644 0.63999 0.0
C2501 C 0.68475 0.06342 0.68938 0.0
C2502 C 0.81043 0.12348 0.56937 0.0
C2503 C 0.79377 0.12342 0.58693 0.0
C2504 C 0.73039 0.08456 0.6105 0.0
C2505 C 0.70172 0.09676 0.66334 0.0
C2506 C 0.71733 0.10162 0.64373 0.0
C2507 C 0.76514 0.11214 0.58752 0.0
C2508 C 0.7482 0.10907 0.60681 0.0
H2509 H 0.66134 0.13205 0.69872 0.0
H2510 H 0.68831 0.14148 0.66791 0.0
H2511 H 0.70216 0.06159 0.63046 0.0
H2512 H 0.76076 0.0932 0.53889 0.0
H2513 H 0.73164 0.09352 0.56904 0.0
C2514 C 0.19338 0.44518 0.45451 0.0
C2515 C 0.17102 0.42829 0.46311 0.0
C2516 C 0.1893 0.46046 0.43669 0.0
C2517 C 0.13342 0.48996 0.40155 0.0
H2518 H 0.19728 0.48879 0.36421 0.0
C2519 C 0.13939 0.56523 0.33051 0.0
C2520 C 0.15128 0.55354 0.31311 0.0
C2521 C 0.13888 0.54912 0.34832 0.0
C2522 C 0.17904 0.48935 0.37431 0.0
H2523 H 0.12698 0.41336 0.45857 0.0
H2524 H 0.1192 0.4411 0.42799 0.0
H2525 H 0.20187 0.46356 0.39565 0.0
H2526 H 0.17361 0.5159 0.30157 0.0
H2527 H 0.17274 0.48791 0.33225 0.0
H2528 H 0.11079 0.51623 0.38017 0.0
C2529 C 0.13998 0.44294 0.43529 0.0
C2530 C 0.1818 0.47497 0.39261 0.0
C2531 C 0.14429 0.4272 0.45306 0.0
C2532 C 0.16317 0.52533 0.31433 0.0
C2533 C 0.16304 0.50936 0.33214 0.0
C2534 C 0.13085 0.50485 0.38332 0.0
C2535 C 0.16261 0.45952 0.42652 0.0
C2536 C 0.1591 0.47491 0.40669 0.0
C2537 C 0.15131 0.52105 0.34965 0.0
C2538 C 0.1536 0.50481 0.36925 0.0
H2539 H 0.21453 0.44612 0.46143 0.0
H2540 H 0.20733 0.47297 0.43079 0.0
H2541 H 0.11538 0.49074 0.4118 0.0
H2542 H 0.13156 0.58744 0.33057 0.0
H2543 H 0.13003 0.55935 0.36132 0.0
C2544 C 0.6797 0.61236 0.57036 0.0
C2545 C 0.68247 0.58653 0.55936 0.0
C2546 C 0.69569 0.61667 0.58794 0.0
C2547 C 0.73142 0.57461 0.62869 0.0
H2548 H 0.76925 0.64709 0.64244 0.0
C2549 C 0.78245 0.59184 0.70665 0.0
C2550 C 0.81039 0.60447 0.70765 0.0
C2551 C 0.76604 0.59224 0.68912 0.0
C2552 C 0.75883 0.62663 0.63891 0.0
H2553 H 0.70351 0.54449 0.55922 0.0
H2554 H 0.73075 0.55165 0.58957 0.0
H2555 H 0.74317 0.64292 0.61111 0.0
H2556 H 0.84314 0.62625 0.69007 0.0
H2557 H 0.81419 0.62832 0.65986 0.0
H2558 H 0.74669 0.55833 0.65644 0.0
C2559 C 0.71678 0.56904 0.58451 0.0
C2560 C 0.74362 0.62428 0.62088 0.0
C2561 C 0.70128 0.56502 0.56686 0.0
C2562 C 0.82121 0.61762 0.69033 0.0
C2563 C 0.80461 0.61848 0.67283 0.0
C2564 C 0.74606 0.57713 0.64683 0.0
C2565 C 0.71418 0.59482 0.5956 0.0
C2566 C 0.72982 0.59808 0.61526 0.0
C2567 C 0.77692 0.60514 0.67169 0.0
C2568 C 0.76031 0.6031 0.65233 0.0
H2569 H 0.66434 0.62884 0.56576 0.0
H2570 H 0.69255 0.6367 0.596 0.0
H2571 H 0.72101 0.5541 0.62525 0.0
H2572 H 0.77355 0.58067 0.71932 0.0
H2573 H 0.74489 0.58186 0.68916 0.0
C2574 C 0.19415 0.94158 0.8228 0.0
C2575 C 0.17204 0.92511 0.8138 0.0
C2576 C 0.18936 0.95667 0.84048 0.0
C2577 C 0.1328 0.98709 0.87453 0.0
H2578 H 0.19574 0.98557 0.91219 0.0
C2579 C 0.13912 0.06512 0.94354 0.0
C2580 C 0.15129 0.0544 0.9611 0.0
C2581 C 0.13827 0.04801 0.92628 0.0
C2582 C 0.1777 0.9862 0.90203 0.0
H2583 H 0.12746 0.9108 0.81738 0.0
H2584 H 0.11875 0.93769 0.84825 0.0
H2585 H 0.20035 0.95906 0.88141 0.0
H2586 H 0.17355 0.01734 0.97356 0.0
H2587 H 0.17193 0.98755 0.94387 0.0
H2588 H 0.11034 0.01467 0.89523 0.0
C2589 C 0.13989 0.93931 0.84125 0.0
C2590 C 0.1805 0.97108 0.8841 0.0
C2591 C 0.14478 0.92397 0.82342 0.0
C2592 C 0.16302 0.0261 0.96066 0.0
C2593 C 0.16243 0.00908 0.9434 0.0
C2594 C 0.13016 1.00264 0.89244 0.0
C2595 C 0.16227 0.95573 0.85026 0.0
C2596 C 0.15822 0.97125 0.86988 0.0
C2597 C 0.15052 0.01982 0.92569 0.0
C2598 C 0.1526 1.00255 0.90659 0.0
H2599 H 0.21562 0.94253 0.81618 0.0
H2600 H 0.20718 0.96909 0.84657 0.0
H2601 H 0.11513 0.98807 0.8641 0.0
H2602 H 0.13125 0.0873 0.94292 0.0
H2603 H 0.12928 0.05754 0.91309 0.0
C2604 C 0.83033 0.39514 1.07069 0.0
C2605 C 0.83039 0.42307 1.06198 0.0
C2606 C 0.81547 0.38977 1.08875 0.0
C2607 C 0.78705 0.42846 1.1337 0.0
H2608 H 0.73877 0.36042 0.14245 0.0
C2609 C 0.73133 0.4077 0.21012 0.0
C2610 C 0.70237 0.39757 0.21044 0.0
C2611 C 0.74813 0.40772 0.19265 0.0
C2612 C 0.75212 0.37963 0.14035 0.0
H2613 H 0.81576 0.46733 1.06636 0.0
H2614 H 0.79039 0.45819 1.09724 0.0
H2615 H 0.76549 0.36617 1.1113 0.0
H2616 H 0.66813 0.38124 0.19183 0.0
H2617 H 0.69742 0.38035 0.16158 0.0
H2618 H 0.77379 0.44212 0.16253 0.0
C2619 C 0.80142 0.44017 1.09023 0.0
C2620 C 0.76775 0.3828 1.12241 0.0
C2621 C 0.81592 0.44541 1.07228 0.0
C2622 C 0.69075 0.38779 0.1925 0.0
C2623 C 0.70762 0.38753 0.17502 0.0
C2624 C 0.77186 0.42508 0.15167 0.0
C2625 C 0.8008 0.41231 1.09895 0.0
C2626 C 0.78529 0.40751 1.11861 0.0
C2627 C 0.73653 0.39809 0.17459 0.0
C2628 C 0.75382 0.40074 0.1554 0.0
H2629 H 0.84197 0.37753 1.06366 0.0
H2630 H 0.81593 0.36803 1.09491 0.0
H2631 H 0.80036 0.44771 1.13168 0.0
H2632 H 0.74081 0.41655 0.22334 0.0
H2633 H 0.77021 0.41588 0.19327 0.0
C2634 C 0.34362 0.97677 0.45878 0.0
C2635 C 0.3583 0.95008 0.46087 0.0
C2636 C 0.34413 0.99267 0.44099 0.0
C2637 C 0.3549 0.98335 0.38638 0.0
H2638 H 0.35225 0.06759 0.3859 0.0
C2639 C 0.32308 0.05063 0.31574 0.0
C2640 C 0.33629 0.0779 0.31232 0.0
C2641 C 0.32847 0.03456 0.33311 0.0
C2642 C 0.35321 0.04407 0.38556 0.0
H2643 H 0.38309 0.91822 0.44459 0.0
H2644 H 0.38443 0.94578 0.41369 0.0
H2645 H 0.35779 0.0416 0.41692 0.0
H2646 H 0.36385 0.11042 0.32556 0.0
H2647 H 0.37357 0.08265 0.35561 0.0
H2648 H 0.35041 0.9859 0.35496 0.0
C2649 C 0.37303 0.95506 0.42611 0.0
C2650 C 0.35608 0.02898 0.40359 0.0
C2651 C 0.37276 0.93935 0.44408 0.0
C2652 C 0.35424 0.08901 0.32723 0.0
C2653 C 0.35942 0.07314 0.34471 0.0
C2654 C 0.35183 0.99846 0.36833 0.0
C2655 C 0.35844 0.98201 0.4241 0.0
C2656 C 0.35681 0.99824 0.40447 0.0
C2657 C 0.34648 0.04561 0.34815 0.0
C2658 C 0.35076 0.02919 0.3675 0.0
H2659 H 0.33036 0.98475 0.4707 0.0
H2660 H 0.33186 0.01272 0.44026 0.0
H2661 H 0.35508 0.9598 0.38613 0.0
H2662 H 0.30813 0.04183 0.30503 0.0
H2663 H 0.31754 0.01386 0.33504 0.0
C2664 C 0.32122 0.44498 0.70257 0.0
C2665 C 0.33703 0.42172 0.71085 0.0
C2666 C 0.30555 0.4418 0.68486 0.0
C2667 C 0.27142 0.38724 0.65102 0.0
H2668 H 0.2748 0.44936 0.61239 0.0
C2669 C 0.1906 0.39664 0.58417 0.0
C2670 C 0.20143 0.40492 0.56552 0.0
C2671 C 0.20847 0.39616 0.60101 0.0
C2672 C 0.27362 0.43164 0.6229 0.0
H2673 H 0.35036 0.37739 0.70556 0.0
H2674 H 0.32164 0.37107 0.67542 0.0
H2675 H 0.30205 0.45362 0.64311 0.0
H2676 H 0.24003 0.42131 0.55088 0.0
H2677 H 0.27103 0.42102 0.58016 0.0
H2678 H 0.2423 0.36565 0.63101 0.0
C2679 C 0.32086 0.39183 0.68288 0.0
C2680 C 0.28917 0.43421 0.64074 0.0
C2681 C 0.33708 0.39527 0.70043 0.0
C2682 C 0.23089 0.41359 0.56459 0.0
C2683 C 0.24869 0.41379 0.58159 0.0
C2684 C 0.25532 0.38498 0.63337 0.0
C2685 C 0.30497 0.41515 0.67458 0.0
C2686 C 0.28843 0.41208 0.65523 0.0
C2687 C 0.23777 0.40527 0.60022 0.0
C2688 C 0.25606 0.40713 0.61889 0.0
H2689 H 0.32123 0.46599 0.70974 0.0
H2690 H 0.29375 0.46038 0.67923 0.0
H2691 H 0.26998 0.36968 0.66163 0.0
H2692 H 0.16788 0.39103 0.58592 0.0
H2693 H 0.19883 0.38984 0.61492 0.0
C2694 C 0.81914 0.06045 0.44806 0.0
C2695 C 0.83516 0.08609 0.45152 0.0
C2696 C 0.82292 0.04424 0.43062 0.0
C2697 C 0.87267 0.03119 0.38759 0.0
H2698 H 0.80291 0.00424 0.36159 0.0
C2699 C 0.87134 0.95161 0.3185 0.0
C2700 C 0.85118 0.95797 0.30354 0.0
C2701 C 0.87203 0.96794 0.33618 0.0
C2702 C 0.82273 0.01159 0.36853 0.0
H2703 H 0.86619 0.11571 0.4383 0.0
H2704 H 0.87358 0.08709 0.40823 0.0
H2705 H 0.79911 0.03 0.39283 0.0
H2706 H 0.81473 0.98571 0.29651 0.0
H2707 H 0.81595 0.01395 0.32674 0.0
H2708 H 0.89627 0.01229 0.36329 0.0
C2709 C 0.85858 0.07899 0.41927 0.0
C2710 C 0.82054 0.02626 0.38668 0.0
C2711 C 0.85453 0.09536 0.43666 0.0
C2712 C 0.83156 0.98094 0.30709 0.0
C2713 C 0.8319 0.99689 0.32475 0.0
C2714 C 0.87491 0.01591 0.36957 0.0
C2715 C 0.84262 0.05322 0.41579 0.0
C2716 C 0.8454 0.03661 0.39654 0.0
C2717 C 0.85177 0.99046 0.33985 0.0
C2718 C 0.84993 0.00608 0.35955 0.0
H2719 H 0.80322 0.05312 0.45876 0.0
H2720 H 0.81013 0.02466 0.42868 0.0
H2721 H 0.89241 0.03852 0.39464 0.0
H2722 H 0.88538 0.93283 0.31713 0.0
H2723 H 0.88739 0.9618 0.34745 0.0
C2724 C 0.20325 0.58139 0.20968 0.0
C2725 C 0.1757 0.594 0.21282 0.0
C2726 C 0.2188 0.58578 0.19192 0.0
C2727 C 0.20803 0.6079 0.13858 0.0
H2728 H 0.29219 0.60747 0.13727 0.0
C2729 C 0.27384 0.59791 1.06432 0.0
C2730 C 0.30192 0.61007 1.06273 0.0
C2731 C 0.2579 0.59881 1.08216 0.0
C2732 C 0.26867 0.60801 0.13715 0.0
H2733 H 0.14227 0.61949 0.19877 0.0
H2734 H 0.16928 0.62784 0.16817 0.0
H2735 H 0.26671 0.60457 0.16863 0.0
H2736 H 0.3355 0.63156 1.0794 0.0
H2737 H 0.30779 0.63417 1.11007 0.0
H2738 H 0.20999 0.61191 1.10713 0.0
C2739 C 0.17934 0.61475 0.17948 0.0
C2740 C 0.25385 0.60587 0.15539 0.0
C2741 C 0.1639 0.61042 0.1973 0.0
C2742 C 0.31355 0.62298 1.07971 0.0
C2743 C 0.29769 0.6239 1.09756 0.0
C2744 C 0.22285 0.61006 1.12035 0.0
C2745 C 0.20709 0.60228 0.17625 0.0
C2746 C 0.22314 0.60558 0.15657 0.0
C2747 C 0.26968 0.6113 1.09937 0.0
C2748 C 0.25356 0.61001 1.11914 0.0
H2749 H 0.21262 0.56758 0.2209 0.0
H2750 H 0.23966 0.57518 0.19026 0.0
H2751 H 0.1845 0.60747 0.13844 0.0
H2752 H 0.26453 0.58664 1.0519 0.0
H2753 H 0.2368 0.58837 1.08261 0.0
C2754 C 0.64194 0.9233 0.93902 0.0
C2755 C 0.66045 0.93315 0.95402 0.0
C2756 C 0.6378 0.93956 0.92157 0.0
C2757 C 0.65367 0.01345 0.89754 0.0
H2758 H 0.63289 0.97237 0.85008 0.0
C2759 C 0.63176 0.07752 0.82428 0.0
C2760 C 0.63688 0.0643 0.80595 0.0
C2761 C 0.63343 0.06164 0.84205 0.0
C2762 C 0.63904 0.98447 0.86301 0.0
H2763 H 0.69071 0.9674 0.96142 0.0
H2764 H 0.68398 0.99552 0.93131 0.0
H2765 H 0.63866 0.94565 0.8806 0.0
H2766 H 0.64851 0.02342 0.79239 0.0
H2767 H 0.65184 0.99581 0.82307 0.0
H2768 H 0.65544 0.05205 0.87977 0.0
C2769 C 0.67144 0.97576 0.93316 0.0
C2770 C 0.6419 0.96896 0.88091 0.0
C2771 C 0.67542 0.9595 0.95065 0.0
C2772 C 0.64378 0.03441 0.80608 0.0
C2773 C 0.64568 0.01847 0.8239 0.0
C2774 C 0.6511 0.02892 0.8796 0.0
C2775 C 0.65268 0.9661 0.91804 0.0
C2776 C 0.64927 0.98301 0.89868 0.0
C2777 C 0.64078 0.03174 0.8424 0.0
C2778 C 0.64364 0.01488 0.86183 0.0
H2779 H 0.63076 0.90267 0.9407 0.0
H2780 H 0.62278 0.93106 0.91084 0.0
H2781 H 0.65894 0.02569 0.91059 0.0
H2782 H 0.62662 0.1005 0.82492 0.0
H2783 H 0.6288 0.07307 0.85555 0.0
loop_
_geom_bond_atom_site_label_1
_geom_bond_atom_site_label_2
_geom_bond_distance
_geom_bond_site_symmetry_2
_ccdc_geom_bond_type
Gd0 N31 2.661 . S
Gd0 N37 2.601 . S
Gd0 O44 2.545 . S
Gd0 O45 2.606 . S
Gd0 O47 2.429 . S
Gd0 O48 2.545 . S
Gd0 O49 2.412 . S
Gd0 O51 2.362 . S
Gd0 O52 2.324 . S
Gd0 C59 2.828 . S
Gd1 N10 2.661 . S
Gd1 N14 2.601 . S
Gd1 O45 2.362 . S
Gd1 O46 2.324 . S
Gd1 O50 2.545 . S
Gd1 O51 2.606 . S
Gd1 O53 2.429 . S
Gd1 O54 2.545 . S
Gd1 O55 2.412 . S
Gd1 C68 2.828 . S
C2 C5 1.417 . S
C2 C7 1.431 . S
C2 C8 1.412 . S
C3 C6 1.437 . S
C3 C7 1.317 . S
C3 H22 0.929 . S
C4 C5 1.426 . S
C4 C6 1.413 . S
C4 N14 1.359 . S
C5 C2 1.417 . S
C5 C4 1.426 . S
C5 N10 1.350 . S
C6 C3 1.437 . S
C6 C4 1.413 . S
C6 C16 1.391 . S
C7 C2 1.431 . S
C7 C3 1.317 . S
C7 H18 0.930 . S
C8 C2 1.412 . S
C8 C9 1.355 . S
C8 H20 0.930 . S
C9 C8 1.355 . S
C9 C11 1.402 . S
C9 H21 0.930 . S
N10 Gd1 2.661 . S
N10 C5 1.350 . S
N10 C11 1.307 . S
C11 C9 1.402 . S
C11 N10 1.307 . S
C11 H12 0.930 . S
H12 C11 0.930 . S
C13 N14 1.334 . S
C13 C15 1.394 . S
C13 H17 0.930 . S
N14 Gd1 2.601 . S
N14 C4 1.359 . S
N14 C13 1.334 . S
C15 C13 1.394 . S
C15 C16 1.359 . S
C15 H27 0.930 . S
C16 C6 1.391 . S
C16 C15 1.359 . S
C16 H28 0.929 . S
H17 C13 0.930 . S
H18 C7 0.930 . S
H19 C36 0.930 . S
H20 C8 0.930 . S
H21 C9 0.930 . S
H22 C3 0.929 . S
H23 C41 0.930 . S
H24 C32 0.930 . S
H25 C33 0.930 . S
H26 C57 0.929 . S
H27 C15 0.930 . S
H28 C16 0.929 . S
H29 C58 0.930 . S
H30 C39 0.930 1_565 S
N31 Gd0 2.661 . S
N31 C35 1.350 . S
N31 C36 1.307 . S
C32 H24 0.930 . S
C32 C33 1.355 . S
C32 C34 1.412 . S
C33 H25 0.930 . S
C33 C32 1.355 . S
C33 C36 1.402 . S
C34 C32 1.412 . S
C34 C35 1.417 . S
C34 C58 1.431 . S
C35 N31 1.350 . S
C35 C34 1.417 . S
C35 C38 1.426 . S
C36 H19 0.930 . S
C36 N31 1.307 . S
C36 C33 1.402 . S
N37 Gd0 2.601 . S
N37 C38 1.359 . S
N37 C41 1.334 . S
C38 C35 1.426 . S
C38 N37 1.359 . S
C38 C42 1.413 . S
C39 H30 0.930 1_545 S
C39 C40 1.359 . S
C39 C41 1.394 . S
C40 C39 1.359 . S
C40 C42 1.391 . S
C40 H43 0.929 1_545 S
C41 H23 0.930 . S
C41 N37 1.334 . S
C41 C39 1.394 . S
C42 C38 1.413 . S
C42 C40 1.391 . S
C42 C57 1.437 . S
H43 C40 0.929 1_565 S
O44 Gd0 2.545 . S
O44 C59 1.258 . S
O45 Gd0 2.606 . S
O45 Gd1 2.362 . S
O45 C56 1.284 . S
O46 Gd1 2.324 . S
O46 C66 1.254 . S
O47 Gd0 2.429 . S
O47 C66 1.268 . S
O48 Gd0 2.545 . S
O48 C56 1.250 . S
O49 Gd0 2.412 . S
O49 C59 1.252 . S
O50 Gd1 2.545 . S
O50 C68 1.258 . S
O51 Gd0 2.362 . S
O51 Gd1 2.606 . S
O51 C67 1.284 . S
O52 Gd0 2.324 . S
O52 C75 1.254 . S
O53 Gd1 2.429 . S
O53 C75 1.268 . S
O54 Gd1 2.545 . S
O54 C67 1.250 . S
O55 Gd1 2.412 . S
O55 C68 1.252 . S
C56 O45 1.284 . S
C56 O48 1.250 . S
C57 H26 0.929 . S
C57 C42 1.437 . S
C57 C58 1.317 . S
C58 H29 0.930 . S
C58 C34 1.431 . S
C58 C57 1.317 . S
C59 Gd0 2.828 . S
C59 O44 1.258 . S
C59 O49 1.252 . S
C59 C60 1.497 . S
C60 C59 1.497 . S
C60 C61 1.395 . S
C60 C62 1.380 . S
C61 C60 1.395 . S
C61 C64 1.398 1_545 S
C61 H76 0.930 1_545 S
C62 C60 1.380 . S
C62 C63 1.391 . S
C62 H77 0.930 . S
C63 C62 1.391 . S
C63 C65 1.387 1_545 S
C64 C61 1.398 1_565 S
C64 C65 1.380 . S
C64 H78 0.930 . S
C65 C63 1.387 1_565 S
C65 C64 1.380 . S
C65 H79 0.930 . S
C66 O46 1.254 . S
C66 O47 1.268 . S
C67 O51 1.284 . S
C67 O54 1.250 . S
C68 Gd1 2.828 . S
C68 O50 1.258 . S
C68 O55 1.252 . S
C68 C69 1.497 . S
C69 C68 1.497 . S
C69 C70 1.395 . S
C69 C71 1.380 . S
C70 C69 1.395 . S
C70 C73 1.398 . S
C70 H80 0.930 . S
C71 C69 1.380 . S
C71 C72 1.391 . S
C71 H81 0.930 . S
C72 C71 1.391 . S
C72 C74 1.387 . S
C73 C70 1.398 . S
C73 C74 1.380 . S
C73 H82 0.930 . S
C74 C72 1.387 . S
C74 C73 1.380 . S
C74 H83 0.930 . S
C75 O52 1.254 . S
C75 O53 1.268 . S
H76 C61 0.930 1_565 S
H77 C62 0.930 . S
H78 C64 0.930 . S
H79 C65 0.930 . S
H80 C70 0.930 . S
H81 C71 0.930 . S
H82 C73 0.930 . S
H83 C74 0.930 . S
Gd84 N115 2.661 . S
Gd84 N121 2.601 . S
Gd84 O128 2.545 . S
Gd84 O129 2.606 . S
Gd84 O131 2.429 . S
Gd84 O132 2.545 . S
Gd84 O133 2.412 . S
Gd84 O135 2.362 . S
Gd84 O136 2.324 . S
Gd84 C143 2.828 . S
Gd85 N94 2.661 . S
Gd85 N98 2.601 . S
Gd85 O129 2.362 . S
Gd85 O130 2.324 . S
Gd85 O134 2.545 . S
Gd85 O135 2.606 . S
Gd85 O137 2.429 . S
Gd85 O138 2.545 . S
Gd85 O139 2.412 . S
Gd85 C152 2.828 . S
C86 C89 1.417 . S
C86 C91 1.431 . S
C86 C92 1.412 . S
C87 C90 1.437 . S
C87 C91 1.317 . S
C87 H106 0.929 . S
C88 C89 1.426 . S
C88 C90 1.413 . S
C88 N98 1.359 . S
C89 C86 1.417 . S
C89 C88 1.426 . S
C89 N94 1.350 . S
C90 C87 1.437 . S
C90 C88 1.413 . S
C90 C100 1.391 . S
C91 C86 1.431 . S
C91 C87 1.317 . S
C91 H102 0.930 . S
C92 C86 1.412 . S
C92 C93 1.355 . S
C92 H104 0.930 . S
C93 C92 1.355 . S
C93 C95 1.402 . S
C93 H105 0.930 . S
N94 Gd85 2.661 . S
N94 C89 1.350 . S
N94 C95 1.307 . S
C95 C93 1.402 . S
C95 N94 1.307 . S
C95 H96 0.930 . S
H96 C95 0.930 . S
C97 N98 1.334 . S
C97 C99 1.394 . S
C97 H101 0.930 . S
N98 Gd85 2.601 . S
N98 C88 1.359 . S
N98 C97 1.334 . S
C99 C97 1.394 . S
C99 C100 1.359 . S
C99 H111 0.930 . S
C100 C90 1.391 . S
C100 C99 1.359 . S
C100 H112 0.929 . S
H101 C97 0.930 . S
H102 C91 0.930 . S
H103 C120 0.930 . S
H104 C92 0.930 . S
H105 C93 0.930 . S
H106 C87 0.929 . S
H107 C125 0.930 . S
H108 C116 0.930 . S
H109 C117 0.930 . S
H110 C141 0.929 . S
H111 C99 0.930 . S
H112 C100 0.929 . S
H113 C142 0.930 . S
H114 C123 0.930 . S
N115 Gd84 2.661 . S
N115 C119 1.350 . S
N115 C120 1.307 . S
C116 H108 0.930 . S
C116 C117 1.355 . S
C116 C118 1.412 . S
C117 H109 0.930 . S
C117 C116 1.355 . S
C117 C120 1.402 . S
C118 C116 1.412 . S
C118 C119 1.417 . S
C118 C142 1.431 . S
C119 N115 1.350 . S
C119 C118 1.417 . S
C119 C122 1.426 . S
C120 H103 0.930 . S
C120 N115 1.307 . S
C120 C117 1.402 . S
N121 Gd84 2.601 . S
N121 C122 1.359 . S
N121 C125 1.334 . S
C122 C119 1.426 . S
C122 N121 1.359 . S
C122 C126 1.413 . S
C123 H114 0.930 . S
C123 C124 1.359 . S
C123 C125 1.394 . S
C124 C123 1.359 . S
C124 C126 1.391 . S
C124 H127 0.929 . S
C125 H107 0.930 . S
C125 N121 1.334 . S
C125 C123 1.394 . S
C126 C122 1.413 . S
C126 C124 1.391 . S
C126 C141 1.437 . S
H127 C124 0.929 . S
O128 Gd84 2.545 . S
O128 C143 1.258 . S
O129 Gd84 2.606 . S
O129 Gd85 2.362 . S
O129 C140 1.284 . S
O130 Gd85 2.324 . S
O130 C150 1.254 . S
O131 Gd84 2.429 . S
O131 C150 1.268 . S
O132 Gd84 2.545 . S
O132 C140 1.250 . S
O133 Gd84 2.412 . S
O133 C143 1.252 . S
O134 Gd85 2.545 . S
O134 C152 1.258 . S
O135 Gd84 2.362 . S
O135 Gd85 2.606 . S
O135 C151 1.284 . S
O136 Gd84 2.324 . S
O136 C159 1.254 . S
O137 Gd85 2.429 . S
O137 C159 1.268 . S
O138 Gd85 2.545 . S
O138 C151 1.250 . S
O139 Gd85 2.412 . S
O139 C152 1.252 . S
C140 O129 1.284 . S
C140 O132 1.250 . S
C141 H110 0.929 . S
C141 C126 1.437 . S
C141 C142 1.317 . S
C142 H113 0.930 . S
C142 C118 1.431 . S
C142 C141 1.317 . S
C143 Gd84 2.828 . S
C143 O128 1.258 . S
C143 O133 1.252 . S
C143 C144 1.497 . S
C144 C143 1.497 . S
C144 C145 1.395 . S
C144 C146 1.380 . S
C145 C144 1.395 . S
C145 C148 1.398 . S
C145 H160 0.930 . S
C146 C144 1.380 . S
C146 C147 1.391 . S
C146 H161 0.930 . S
C147 C146 1.391 . S
C147 C149 1.387 . S
C148 C145 1.398 . S
C148 C149 1.380 . S
C148 H162 0.930 . S
C149 C147 1.387 . S
C149 C148 1.380 . S
C149 H163 0.930 . S
C150 O130 1.254 . S
C150 O131 1.268 . S
C151 O135 1.284 . S
C151 O138 1.250 . S
C152 Gd85 2.828 . S
C152 O134 1.258 . S
C152 O139 1.252 . S
C152 C153 1.497 . S
C153 C152 1.497 . S
C153 C154 1.395 . S
C153 C155 1.380 . S
C154 C153 1.395 . S
C154 C157 1.398 . S
C154 H164 0.930 . S
C155 C153 1.380 . S
C155 C156 1.391 . S
C155 H165 0.930 . S
C156 C155 1.391 . S
C156 C158 1.387 . S
C157 C154 1.398 . S
C157 C158 1.380 . S
C157 H166 0.930 . S
C158 C156 1.387 . S
C158 C157 1.380 . S
C158 H167 0.930 . S
C159 O136 1.254 . S
C159 O137 1.268 . S
H160 C145 0.930 . S
H161 C146 0.930 . S
H162 C148 0.930 . S
H163 C149 0.930 . S
H164 C154 0.930 . S
H165 C155 0.930 . S
H166 C157 0.930 . S
H167 C158 0.930 . S
Gd168 N199 2.661 . S
Gd168 N205 2.601 . S
Gd168 O212 2.545 . S
Gd168 O213 2.606 . S
Gd168 O215 2.429 . S
Gd168 O216 2.545 . S
Gd168 O217 2.412 . S
Gd168 O219 2.362 . S
Gd168 O220 2.324 . S
Gd168 C227 2.828 . S
Gd169 N178 2.661 . S
Gd169 N182 2.601 . S
Gd169 O213 2.362 . S
Gd169 O214 2.324 . S
Gd169 O218 2.545 . S
Gd169 O219 2.606 . S
Gd169 O221 2.429 . S
Gd169 O222 2.545 . S
Gd169 O223 2.412 . S
Gd169 C236 2.828 . S
C170 C173 1.417 . S
C170 C175 1.431 . S
C170 C176 1.412 . S
C171 C174 1.437 . S
C171 C175 1.317 . S
C171 H190 0.929 . S
C172 C173 1.426 . S
C172 C174 1.413 . S
C172 N182 1.359 . S
C173 C170 1.417 . S
C173 C172 1.426 . S
C173 N178 1.350 . S
C174 C171 1.437 . S
C174 C172 1.413 . S
C174 C184 1.391 . S
C175 C170 1.431 . S
C175 C171 1.317 . S
C175 H186 0.930 . S
C176 C170 1.412 . S
C176 C177 1.355 . S
C176 H188 0.930 . S
C177 C176 1.355 . S
C177 C179 1.402 . S
C177 H189 0.930 . S
N178 Gd169 2.661 . S
N178 C173 1.350 . S
N178 C179 1.307 . S
C179 C177 1.402 . S
C179 N178 1.307 . S
C179 H180 0.930 . S
H180 C179 0.930 . S
C181 N182 1.334 . S
C181 C183 1.394 . S
C181 H185 0.930 . S
N182 Gd169 2.601 . S
N182 C172 1.359 . S
N182 C181 1.334 . S
C183 C181 1.394 . S
C183 C184 1.359 . S
C183 H195 0.930 . S
C184 C174 1.391 . S
C184 C183 1.359 . S
C184 H196 0.929 . S
H185 C181 0.930 . S
H186 C175 0.930 . S
H187 C204 0.930 . S
H188 C176 0.930 . S
H189 C177 0.930 . S
H190 C171 0.929 . S
H191 C209 0.930 . S
H192 C200 0.930 . S
H193 C201 0.930 . S
H194 C225 0.929 . S
H195 C183 0.930 . S
H196 C184 0.929 . S
H197 C226 0.930 . S
H198 C207 0.930 1_545 S
N199 Gd168 2.661 . S
N199 C203 1.350 . S
N199 C204 1.307 . S
C200 H192 0.930 . S
C200 C201 1.355 . S
C200 C202 1.412 . S
C201 H193 0.930 . S
C201 C200 1.355 . S
C201 C204 1.402 . S
C202 C200 1.412 . S
C202 C203 1.417 . S
C202 C226 1.431 . S
C203 N199 1.350 . S
C203 C202 1.417 . S
C203 C206 1.426 . S
C204 H187 0.930 . S
C204 N199 1.307 . S
C204 C201 1.402 . S
N205 Gd168 2.601 . S
N205 C206 1.359 . S
N205 C209 1.334 . S
C206 C203 1.426 . S
C206 N205 1.359 . S
C206 C210 1.413 . S
C207 H198 0.930 1_565 S
C207 C208 1.359 . S
C207 C209 1.394 . S
C208 C207 1.359 . S
C208 C210 1.391 . S
C208 H211 0.929 1_565 S
C209 H191 0.930 . S
C209 N205 1.334 . S
C209 C207 1.394 . S
C210 C206 1.413 . S
C210 C208 1.391 . S
C210 C225 1.437 . S
H211 C208 0.929 1_545 S
O212 Gd168 2.545 . S
O212 C227 1.258 . S
O213 Gd168 2.606 . S
O213 Gd169 2.362 . S
O213 C224 1.284 . S
O214 Gd169 2.324 . S
O214 C234 1.254 . S
O215 Gd168 2.429 . S
O215 C234 1.268 . S
O216 Gd168 2.545 . S
O216 C224 1.250 . S
O217 Gd168 2.412 . S
O217 C227 1.252 . S
O218 Gd169 2.545 . S
O218 C236 1.258 . S
O219 Gd168 2.362 . S
O219 Gd169 2.606 . S
O219 C235 1.284 . S
O220 Gd168 2.324 . S
O220 C243 1.254 . S
O221 Gd169 2.429 . S
O221 C243 1.268 . S
O222 Gd169 2.545 . S
O222 C235 1.250 . S
O223 Gd169 2.412 . S
O223 C236 1.252 . S
C224 O213 1.284 . S
C224 O216 1.250 . S
C225 H194 0.929 . S
C225 C210 1.437 . S
C225 C226 1.317 . S
C226 H197 0.930 . S
C226 C202 1.431 . S
C226 C225 1.317 . S
C227 Gd168 2.828 . S
C227 O212 1.258 . S
C227 O217 1.252 . S
C227 C228 1.497 . S
C228 C227 1.497 . S
C228 C229 1.395 . S
C228 C230 1.380 . S
C229 C228 1.395 . S
C229 C232 1.398 1_565 S
C229 H244 0.930 1_565 S
C230 C228 1.380 . S
C230 C231 1.391 . S
C230 H245 0.930 . S
C231 C230 1.391 . S
C231 C233 1.387 1_565 S
C232 C229 1.398 1_545 S
C232 C233 1.380 . S
C232 H246 0.930 . S
C233 C231 1.387 1_545 S
C233 C232 1.380 . S
C233 H247 0.930 . S
C234 O214 1.254 . S
C234 O215 1.268 . S
C235 O219 1.284 . S
C235 O222 1.250 . S
C236 Gd169 2.828 . S
C236 O218 1.258 . S
C236 O223 1.252 . S
C236 C237 1.497 . S
C237 C236 1.497 . S
C237 C238 1.395 . S
C237 C239 1.380 . S
C238 C237 1.395 . S
C238 C241 1.398 . S
C238 H248 0.930 . S
C239 C237 1.380 . S
C239 C240 1.391 . S
C239 H249 0.930 . S
C240 C239 1.391 . S
C240 C242 1.387 . S
C241 C238 1.398 . S
C241 C242 1.380 . S
C241 H250 0.930 . S
C242 C240 1.387 . S
C242 C241 1.380 . S
C242 H251 0.930 . S
C243 O220 1.254 . S
C243 O221 1.268 . S
H244 C229 0.930 1_545 S
H245 C230 0.930 . S
H246 C232 0.930 . S
H247 C233 0.930 . S
H248 C238 0.930 . S
H249 C239 0.930 . S
H250 C241 0.930 . S
H251 C242 0.930 . S
Gd252 N283 2.661 . S
Gd252 N289 2.601 . S
Gd252 O296 2.545 . S
Gd252 O297 2.606 . S
Gd252 O299 2.429 . S
Gd252 O300 2.545 . S
Gd252 O301 2.412 . S
Gd252 O303 2.362 . S
Gd252 O304 2.324 . S
Gd252 C311 2.828 . S
Gd253 N262 2.661 . S
Gd253 N266 2.601 . S
Gd253 O297 2.362 . S
Gd253 O298 2.324 . S
Gd253 O302 2.545 . S
Gd253 O303 2.606 . S
Gd253 O305 2.429 . S
Gd253 O306 2.545 . S
Gd253 O307 2.412 . S
Gd253 C320 2.828 . S
C254 C257 1.417 . S
C254 C259 1.431 . S
C254 C260 1.412 . S
C255 C258 1.437 . S
C255 C259 1.317 1_455 S
C255 H274 0.929 . S
C256 C257 1.426 . S
C256 C258 1.413 1_655 S
C256 N266 1.359 . S
C257 C254 1.417 . S
C257 C256 1.426 . S
C257 N262 1.350 . S
C258 C255 1.437 . S
C258 C256 1.413 1_455 S
C258 C268 1.391 . S
C259 C254 1.431 . S
C259 C255 1.317 1_655 S
C259 H270 0.930 . S
C260 C254 1.412 . S
C260 C261 1.355 . S
C260 H272 0.930 . S
C261 C260 1.355 . S
C261 C263 1.402 . S
C261 H273 0.930 . S
N262 Gd253 2.661 . S
N262 C257 1.350 . S
N262 C263 1.307 . S
C263 C261 1.402 . S
C263 N262 1.307 . S
C263 H264 0.930 . S
H264 C263 0.930 . S
C265 N266 1.334 . S
C265 C267 1.394 1_655 S
C265 H269 0.930 . S
N266 Gd253 2.601 . S
N266 C256 1.359 . S
N266 C265 1.334 . S
C267 C265 1.394 1_455 S
C267 C268 1.359 . S
C267 H279 0.930 . S
C268 C258 1.391 . S
C268 C267 1.359 . S
C268 H280 0.929 . S
H269 C265 0.930 . S
H270 C259 0.930 . S
H271 C288 0.930 . S
H272 C260 0.930 . S
H273 C261 0.930 . S
H274 C255 0.929 . S
H275 C293 0.930 . S
H276 C284 0.930 . S
H277 C285 0.930 . S
H278 C309 0.929 . S
H279 C267 0.930 . S
H280 C268 0.929 . S
H281 C310 0.930 . S
H282 C291 0.930 . S
N283 Gd252 2.661 . S
N283 C287 1.350 . S
N283 C288 1.307 . S
C284 H276 0.930 . S
C284 C285 1.355 . S
C284 C286 1.412 . S
C285 H277 0.930 . S
C285 C284 1.355 . S
C285 C288 1.402 . S
C286 C284 1.412 . S
C286 C287 1.417 . S
C286 C310 1.431 . S
C287 N283 1.350 . S
C287 C286 1.417 . S
C287 C290 1.426 . S
C288 H271 0.930 . S
C288 N283 1.307 . S
C288 C285 1.402 . S
N289 Gd252 2.601 . S
N289 C290 1.359 . S
N289 C293 1.334 . S
C290 C287 1.426 . S
C290 N289 1.359 . S
C290 C294 1.413 . S
C291 H282 0.930 . S
C291 C292 1.359 . S
C291 C293 1.394 . S
C292 C291 1.359 . S
C292 C294 1.391 . S
C292 H295 0.929 . S
C293 H275 0.930 . S
C293 N289 1.334 . S
C293 C291 1.394 . S
C294 C290 1.413 . S
C294 C292 1.391 . S
C294 C309 1.437 . S
H295 C292 0.929 . S
O296 Gd252 2.545 . S
O296 C311 1.258 . S
O297 Gd252 2.606 . S
O297 Gd253 2.362 . S
O297 C308 1.284 . S
O298 Gd253 2.324 . S
O298 C318 1.254 . S
O299 Gd252 2.429 . S
O299 C318 1.268 . S
O300 Gd252 2.545 . S
O300 C308 1.250 . S
O301 Gd252 2.412 . S
O301 C311 1.252 . S
O302 Gd253 2.545 . S
O302 C320 1.258 . S
O303 Gd252 2.362 . S
O303 Gd253 2.606 . S
O303 C319 1.284 . S
O304 Gd252 2.324 . S
O304 C327 1.254 . S
O305 Gd253 2.429 . S
O305 C327 1.268 . S
O306 Gd253 2.545 . S
O306 C319 1.250 . S
O307 Gd253 2.412 . S
O307 C320 1.252 . S
C308 O297 1.284 . S
C308 O300 1.250 . S
C309 H278 0.929 . S
C309 C294 1.437 . S
C309 C310 1.317 . S
C310 H281 0.930 . S
C310 C286 1.431 . S
C310 C309 1.317 . S
C311 Gd252 2.828 . S
C311 O296 1.258 . S
C311 O301 1.252 . S
C311 C312 1.497 . S
C312 C311 1.497 . S
C312 C313 1.395 . S
C312 C314 1.380 . S
C313 C312 1.395 . S
C313 C316 1.398 . S
C313 H328 0.930 . S
C314 C312 1.380 . S
C314 C315 1.391 . S
C314 H329 0.930 . S
C315 C314 1.391 . S
C315 C317 1.387 . S
C316 C313 1.398 . S
C316 C317 1.380 . S
C316 H330 0.930 . S
C317 C315 1.387 . S
C317 C316 1.380 . S
C317 H331 0.930 . S
C318 O298 1.254 . S
C318 O299 1.268 . S
C319 O303 1.284 . S
C319 O306 1.250 . S
C320 Gd253 2.828 . S
C320 O302 1.258 . S
C320 O307 1.252 . S
C320 C321 1.497 . S
C321 C320 1.497 . S
C321 C322 1.395 1_655 S
C321 C323 1.380 . S
C322 C321 1.395 1_455 S
C322 C325 1.398 . S
C322 H332 0.930 . S
C323 C321 1.380 . S
C323 C324 1.391 1_655 S
C323 H333 0.930 . S
C324 C323 1.391 1_455 S
C324 C326 1.387 . S
C325 C322 1.398 . S
C325 C326 1.380 . S
C325 H334 0.930 . S
C326 C324 1.387 . S
C326 C325 1.380 . S
C326 H335 0.930 . S
C327 O304 1.254 . S
C327 O305 1.268 . S
H328 C313 0.930 . S
H329 C314 0.930 . S
H330 C316 0.930 . S
H331 C317 0.930 . S
H332 C322 0.930 . S
H333 C323 0.930 . S
H334 C325 0.930 . S
H335 C326 0.930 . S
Gd336 N367 2.661 . S
Gd336 N373 2.601 . S
Gd336 O380 2.545 . S
Gd336 O381 2.606 . S
Gd336 O383 2.429 . S
Gd336 O384 2.545 . S
Gd336 O385 2.412 . S
Gd336 O387 2.362 . S
Gd336 O388 2.324 . S
Gd336 C395 2.828 . S
Gd337 N346 2.661 . S
Gd337 N350 2.601 . S
Gd337 O381 2.362 . S
Gd337 O382 2.324 . S
Gd337 O386 2.545 . S
Gd337 O387 2.606 . S
Gd337 O389 2.429 . S
Gd337 O390 2.545 . S
Gd337 O391 2.412 . S
Gd337 C404 2.828 . S
C338 C341 1.417 . S
C338 C343 1.431 . S
C338 C344 1.412 . S
C339 C342 1.437 . S
C339 C343 1.317 . S
C339 H358 0.929 . S
C340 C341 1.426 . S
C340 C342 1.413 . S
C340 N350 1.359 . S
C341 C338 1.417 . S
C341 C340 1.426 . S
C341 N346 1.350 . S
C342 C339 1.437 . S
C342 C340 1.413 . S
C342 C352 1.391 . S
C343 C338 1.431 . S
C343 C339 1.317 . S
C343 H354 0.930 . S
C344 C338 1.412 . S
C344 C345 1.355 . S
C344 H356 0.930 . S
C345 C344 1.355 . S
C345 C347 1.402 . S
C345 H357 0.930 . S
N346 Gd337 2.661 . S
N346 C341 1.350 . S
N346 C347 1.307 . S
C347 C345 1.402 . S
C347 N346 1.307 . S
C347 H348 0.930 . S
H348 C347 0.930 . S
C349 N350 1.334 . S
C349 C351 1.394 . S
C349 H353 0.930 . S
N350 Gd337 2.601 . S
N350 C340 1.359 . S
N350 C349 1.334 . S
C351 C349 1.394 . S
C351 C352 1.359 . S
C351 H363 0.930 1_565 S
C352 C342 1.391 . S
C352 C351 1.359 . S
C352 H364 0.929 1_565 S
H353 C349 0.930 . S
H354 C343 0.930 . S
H355 C372 0.930 . S
H356 C344 0.930 . S
H357 C345 0.930 . S
H358 C339 0.929 . S
H359 C377 0.930 . S
H360 C368 0.930 . S
H361 C369 0.930 . S
H362 C393 0.929 . S
H363 C351 0.930 1_545 S
H364 C352 0.929 1_545 S
H365 C394 0.930 . S
H366 C375 0.930 . S
N367 Gd336 2.661 . S
N367 C371 1.350 . S
N367 C372 1.307 . S
C368 H360 0.930 . S
C368 C369 1.355 . S
C368 C370 1.412 . S
C369 H361 0.930 . S
C369 C368 1.355 . S
C369 C372 1.402 . S
C370 C368 1.412 . S
C370 C371 1.417 . S
C370 C394 1.431 . S
C371 N367 1.350 . S
C371 C370 1.417 . S
C371 C374 1.426 . S
C372 H355 0.930 . S
C372 N367 1.307 . S
C372 C369 1.402 . S
N373 Gd336 2.601 . S
N373 C374 1.359 . S
N373 C377 1.334 . S
C374 C371 1.426 . S
C374 N373 1.359 . S
C374 C378 1.413 . S
C375 H366 0.930 . S
C375 C376 1.359 . S
C375 C377 1.394 . S
C376 C375 1.359 . S
C376 C378 1.391 . S
C376 H379 0.929 . S
C377 H359 0.930 . S
C377 N373 1.334 . S
C377 C375 1.394 . S
C378 C374 1.413 . S
C378 C376 1.391 . S
C378 C393 1.437 . S
H379 C376 0.929 . S
O380 Gd336 2.545 . S
O380 C395 1.258 . S
O381 Gd336 2.606 . S
O381 Gd337 2.362 . S
O381 C392 1.284 . S
O382 Gd337 2.324 . S
O382 C402 1.254 . S
O383 Gd336 2.429 . S
O383 C402 1.268 . S
O384 Gd336 2.545 . S
O384 C392 1.250 . S
O385 Gd336 2.412 . S
O385 C395 1.252 . S
O386 Gd337 2.545 . S
O386 C404 1.258 . S
O387 Gd336 2.362 . S
O387 Gd337 2.606 . S
O387 C403 1.284 . S
O388 Gd336 2.324 . S
O388 C411 1.254 . S
O389 Gd337 2.429 . S
O389 C411 1.268 . S
O390 Gd337 2.545 . S
O390 C403 1.250 . S
O391 Gd337 2.412 . S
O391 C404 1.252 . S
C392 O381 1.284 . S
C392 O384 1.250 . S
C393 H362 0.929 . S
C393 C378 1.437 . S
C393 C394 1.317 . S
C394 H365 0.930 . S
C394 C370 1.431 . S
C394 C393 1.317 . S
C395 Gd336 2.828 . S
C395 O380 1.258 . S
C395 O385 1.252 . S
C395 C396 1.497 . S
C396 C395 1.497 . S
C396 C397 1.395 . S
C396 C398 1.380 . S
C397 C396 1.395 . S
C397 C400 1.398 . S
C397 H412 0.930 . S
C398 C396 1.380 . S
C398 C399 1.391 . S
C398 H413 0.930 . S
C399 C398 1.391 . S
C399 C401 1.387 . S
C400 C397 1.398 . S
C400 C401 1.380 . S
C400 H414 0.930 . S
C401 C399 1.387 . S
C401 C400 1.380 . S
C401 H415 0.930 . S
C402 O382 1.254 . S
C402 O383 1.268 . S
C403 O387 1.284 . S
C403 O390 1.250 . S
C404 Gd337 2.828 . S
C404 O386 1.258 . S
C404 O391 1.252 . S
C404 C405 1.497 . S
C405 C404 1.497 . S
C405 C406 1.395 . S
C405 C407 1.380 . S
C406 C405 1.395 . S
C406 C409 1.398 1_565 S
C406 H416 0.930 1_565 S
C407 C405 1.380 . S
C407 C408 1.391 . S
C407 H417 0.930 . S
C408 C407 1.391 . S
C408 C410 1.387 1_565 S
C409 C406 1.398 1_545 S
C409 C410 1.380 . S
C409 H418 0.930 . S
C410 C408 1.387 1_545 S
C410 C409 1.380 . S
C410 H419 0.930 . S
C411 O388 1.254 . S
C411 O389 1.268 . S
H412 C397 0.930 . S
H413 C398 0.930 . S
H414 C400 0.930 . S
H415 C401 0.930 . S
H416 C406 0.930 1_545 S
H417 C407 0.930 . S
H418 C409 0.930 . S
H419 C410 0.930 . S
Gd420 N451 2.661 . S
Gd420 N457 2.601 . S
Gd420 O464 2.545 . S
Gd420 O465 2.606 . S
Gd420 O467 2.429 . S
Gd420 O468 2.545 . S
Gd420 O469 2.412 . S
Gd420 O471 2.362 . S
Gd420 O472 2.324 . S
Gd420 C479 2.828 . S
Gd421 N430 2.661 . S
Gd421 N434 2.601 . S
Gd421 O465 2.362 . S
Gd421 O466 2.324 . S
Gd421 O470 2.545 . S
Gd421 O471 2.606 . S
Gd421 O473 2.429 . S
Gd421 O474 2.545 . S
Gd421 O475 2.412 . S
Gd421 C488 2.828 . S
C422 C425 1.417 . S
C422 C427 1.431 . S
C422 C428 1.412 . S
C423 C426 1.437 . S
C423 C427 1.317 . S
C423 H442 0.929 . S
C424 C425 1.426 . S
C424 C426 1.413 . S
C424 N434 1.359 . S
C425 C422 1.417 . S
C425 C424 1.426 . S
C425 N430 1.350 . S
C426 C423 1.437 . S
C426 C424 1.413 . S
C426 C436 1.391 . S
C427 C422 1.431 . S
C427 C423 1.317 . S
C427 H438 0.930 . S
C428 C422 1.412 . S
C428 C429 1.355 . S
C428 H440 0.930 . S
C429 C428 1.355 . S
C429 C431 1.402 . S
C429 H441 0.930 . S
N430 Gd421 2.661 . S
N430 C425 1.350 . S
N430 C431 1.307 . S
C431 C429 1.402 . S
C431 N430 1.307 . S
C431 H432 0.930 . S
H432 C431 0.930 . S
C433 N434 1.334 . S
C433 C435 1.394 . S
C433 H437 0.930 . S
N434 Gd421 2.601 . S
N434 C424 1.359 . S
N434 C433 1.334 . S
C435 C433 1.394 . S
C435 C436 1.359 . S
C435 H447 0.930 . S
C436 C426 1.391 . S
C436 C435 1.359 . S
C436 H448 0.929 . S
H437 C433 0.930 . S
H438 C427 0.930 . S
H439 C456 0.930 . S
H440 C428 0.930 . S
H441 C429 0.930 . S
H442 C423 0.929 . S
H443 C461 0.930 . S
H444 C452 0.930 . S
H445 C453 0.930 . S
H446 C477 0.929 . S
H447 C435 0.930 . S
H448 C436 0.929 . S
H449 C478 0.930 . S
H450 C459 0.930 . S
N451 Gd420 2.661 . S
N451 C455 1.350 . S
N451 C456 1.307 . S
C452 H444 0.930 . S
C452 C453 1.355 . S
C452 C454 1.412 . S
C453 H445 0.930 . S
C453 C452 1.355 . S
C453 C456 1.402 . S
C454 C452 1.412 . S
C454 C455 1.417 . S
C454 C478 1.431 . S
C455 N451 1.350 . S
C455 C454 1.417 . S
C455 C458 1.426 . S
C456 H439 0.930 . S
C456 N451 1.307 . S
C456 C453 1.402 . S
N457 Gd420 2.601 . S
N457 C458 1.359 . S
N457 C461 1.334 . S
C458 C455 1.426 . S
C458 N457 1.359 . S
C458 C462 1.413 . S
C459 H450 0.930 . S
C459 C460 1.359 . S
C459 C461 1.394 . S
C460 C459 1.359 . S
C460 C462 1.391 . S
C460 H463 0.929 . S
C461 H443 0.930 . S
C461 N457 1.334 . S
C461 C459 1.394 . S
C462 C458 1.413 . S
C462 C460 1.391 . S
C462 C477 1.437 . S
H463 C460 0.929 . S
O464 Gd420 2.545 . S
O464 C479 1.258 . S
O465 Gd420 2.606 . S
O465 Gd421 2.362 . S
O465 C476 1.284 . S
O466 Gd421 2.324 . S
O466 C486 1.254 . S
O467 Gd420 2.429 . S
O467 C486 1.268 . S
O468 Gd420 2.545 . S
O468 C476 1.250 . S
O469 Gd420 2.412 . S
O469 C479 1.252 . S
O470 Gd421 2.545 . S
O470 C488 1.258 . S
O471 Gd420 2.362 . S
O471 Gd421 2.606 . S
O471 C487 1.284 . S
O472 Gd420 2.324 . S
O472 C495 1.254 . S
O473 Gd421 2.429 . S
O473 C495 1.268 . S
O474 Gd421 2.545 . S
O474 C487 1.250 . S
O475 Gd421 2.412 . S
O475 C488 1.252 . S
C476 O465 1.284 . S
C476 O468 1.250 . S
C477 H446 0.929 . S
C477 C462 1.437 . S
C477 C478 1.317 . S
C478 H449 0.930 . S
C478 C454 1.431 . S
C478 C477 1.317 . S
C479 Gd420 2.828 . S
C479 O464 1.258 . S
C479 O469 1.252 . S
C479 C480 1.497 . S
C480 C479 1.497 . S
C480 C481 1.395 . S
C480 C482 1.380 . S
C481 C480 1.395 . S
C481 C484 1.398 . S
C481 H496 0.930 . S
C482 C480 1.380 . S
C482 C483 1.391 . S
C482 H497 0.930 . S
C483 C482 1.391 . S
C483 C485 1.387 . S
C484 C481 1.398 . S
C484 C485 1.380 . S
C484 H498 0.930 . S
C485 C483 1.387 . S
C485 C484 1.380 . S
C485 H499 0.930 . S
C486 O466 1.254 . S
C486 O467 1.268 . S
C487 O471 1.284 . S
C487 O474 1.250 . S
C488 Gd421 2.828 . S
C488 O470 1.258 . S
C488 O475 1.252 . S
C488 C489 1.497 . S
C489 C488 1.497 . S
C489 C490 1.395 . S
C489 C491 1.380 . S
C490 C489 1.395 . S
C490 C493 1.398 . S
C490 H500 0.930 . S
C491 C489 1.380 . S
C491 C492 1.391 . S
C491 H501 0.930 . S
C492 C491 1.391 . S
C492 C494 1.387 . S
C493 C490 1.398 . S
C493 C494 1.380 . S
C493 H502 0.930 . S
C494 C492 1.387 . S
C494 C493 1.380 . S
C494 H503 0.930 . S
C495 O472 1.254 . S
C495 O473 1.268 . S
H496 C481 0.930 . S
H497 C482 0.930 . S
H498 C484 0.930 . S
H499 C485 0.930 . S
H500 C490 0.930 . S
H501 C491 0.930 . S
H502 C493 0.930 . S
H503 C494 0.930 . S
Gd504 N535 2.661 . S
Gd504 N541 2.601 . S
Gd504 O548 2.545 . S
Gd504 O549 2.606 . S
Gd504 O551 2.429 . S
Gd504 O552 2.545 . S
Gd504 O553 2.412 . S
Gd504 O555 2.362 . S
Gd504 O556 2.324 . S
Gd504 C563 2.828 . S
Gd505 N514 2.661 . S
Gd505 N518 2.601 . S
Gd505 O549 2.362 . S
Gd505 O550 2.324 . S
Gd505 O554 2.545 . S
Gd505 O555 2.606 . S
Gd505 O557 2.429 . S
Gd505 O558 2.545 . S
Gd505 O559 2.412 . S
Gd505 C572 2.828 . S
C506 C509 1.417 . S
C506 C511 1.431 . S
C506 C512 1.412 . S
C507 C510 1.437 . S
C507 C511 1.317 . S
C507 H526 0.929 . S
C508 C509 1.426 . S
C508 C510 1.413 . S
C508 N518 1.359 . S
C509 C506 1.417 . S
C509 C508 1.426 . S
C509 N514 1.350 . S
C510 C507 1.437 . S
C510 C508 1.413 . S
C510 C520 1.391 . S
C511 C506 1.431 . S
C511 C507 1.317 . S
C511 H522 0.930 . S
C512 C506 1.412 . S
C512 C513 1.355 . S
C512 H524 0.930 . S
C513 C512 1.355 . S
C513 C515 1.402 . S
C513 H525 0.930 . S
N514 Gd505 2.661 . S
N514 C509 1.350 . S
N514 C515 1.307 . S
C515 C513 1.402 . S
C515 N514 1.307 . S
C515 H516 0.930 . S
H516 C515 0.930 . S
C517 N518 1.334 . S
C517 C519 1.394 . S
C517 H521 0.930 . S
N518 Gd505 2.601 . S
N518 C508 1.359 . S
N518 C517 1.334 . S
C519 C517 1.394 . S
C519 C520 1.359 . S
C519 H531 0.930 1_545 S
C520 C510 1.391 . S
C520 C519 1.359 . S
C520 H532 0.929 1_545 S
H521 C517 0.930 . S
H522 C511 0.930 . S
H523 C540 0.930 . S
H524 C512 0.930 . S
H525 C513 0.930 . S
H526 C507 0.929 . S
H527 C545 0.930 . S
H528 C536 0.930 . S
H529 C537 0.930 . S
H530 C561 0.929 . S
H531 C519 0.930 1_565 S
H532 C520 0.929 1_565 S
H533 C562 0.930 . S
H534 C543 0.930 . S
N535 Gd504 2.661 . S
N535 C539 1.350 . S
N535 C540 1.307 . S
C536 H528 0.930 . S
C536 C537 1.355 . S
C536 C538 1.412 . S
C537 H529 0.930 . S
C537 C536 1.355 . S
C537 C540 1.402 . S
C538 C536 1.412 . S
C538 C539 1.417 . S
C538 C562 1.431 . S
C539 N535 1.350 . S
C539 C538 1.417 . S
C539 C542 1.426 . S
C540 H523 0.930 . S
C540 N535 1.307 . S
C540 C537 1.402 . S
N541 Gd504 2.601 . S
N541 C542 1.359 . S
N541 C545 1.334 . S
C542 C539 1.426 . S
C542 N541 1.359 . S
C542 C546 1.413 . S
C543 H534 0.930 . S
C543 C544 1.359 . S
C543 C545 1.394 . S
C544 C543 1.359 . S
C544 C546 1.391 . S
C544 H547 0.929 . S
C545 H527 0.930 . S
C545 N541 1.334 . S
C545 C543 1.394 . S
C546 C542 1.413 . S
C546 C544 1.391 . S
C546 C561 1.437 . S
H547 C544 0.929 . S
O548 Gd504 2.545 . S
O548 C563 1.258 . S
O549 Gd504 2.606 . S
O549 Gd505 2.362 . S
O549 C560 1.284 . S
O550 Gd505 2.324 . S
O550 C570 1.254 . S
O551 Gd504 2.429 . S
O551 C570 1.268 . S
O552 Gd504 2.545 . S
O552 C560 1.250 . S
O553 Gd504 2.412 . S
O553 C563 1.252 . S
O554 Gd505 2.545 . S
O554 C572 1.258 . S
O555 Gd504 2.362 . S
O555 Gd505 2.606 . S
O555 C571 1.284 . S
O556 Gd504 2.324 . S
O556 C579 1.254 . S
O557 Gd505 2.429 . S
O557 C579 1.268 . S
O558 Gd505 2.545 . S
O558 C571 1.250 . S
O559 Gd505 2.412 . S
O559 C572 1.252 . S
C560 O549 1.284 . S
C560 O552 1.250 . S
C561 H530 0.929 . S
C561 C546 1.437 . S
C561 C562 1.317 . S
C562 H533 0.930 . S
C562 C538 1.431 . S
C562 C561 1.317 . S
C563 Gd504 2.828 . S
C563 O548 1.258 . S
C563 O553 1.252 . S
C563 C564 1.497 . S
C564 C563 1.497 . S
C564 C565 1.395 . S
C564 C566 1.380 . S
C565 C564 1.395 . S
C565 C568 1.398 . S
C565 H580 0.930 . S
C566 C564 1.380 . S
C566 C567 1.391 . S
C566 H581 0.930 . S
C567 C566 1.391 . S
C567 C569 1.387 . S
C568 C565 1.398 . S
C568 C569 1.380 . S
C568 H582 0.930 . S
C569 C567 1.387 . S
C569 C568 1.380 . S
C569 H583 0.930 . S
C570 O550 1.254 . S
C570 O551 1.268 . S
C571 O555 1.284 . S
C571 O558 1.250 . S
C572 Gd505 2.828 . S
C572 O554 1.258 . S
C572 O559 1.252 . S
C572 C573 1.497 . S
C573 C572 1.497 . S
C573 C574 1.395 . S
C573 C575 1.380 . S
C574 C573 1.395 . S
C574 C577 1.398 1_545 S
C574 H584 0.930 1_545 S
C575 C573 1.380 . S
C575 C576 1.391 . S
C575 H585 0.930 . S
C576 C575 1.391 . S
C576 C578 1.387 1_545 S
C577 C574 1.398 1_565 S
C577 C578 1.380 . S
C577 H586 0.930 . S
C578 C576 1.387 1_565 S
C578 C577 1.380 . S
C578 H587 0.930 . S
C579 O556 1.254 . S
C579 O557 1.268 . S
H580 C565 0.930 . S
H581 C566 0.930 . S
H582 C568 0.930 . S
H583 C569 0.930 . S
H584 C574 0.930 1_565 S
H585 C575 0.930 . S
H586 C577 0.930 . S
H587 C578 0.930 . S
Gd588 N619 2.661 . S
Gd588 N625 2.601 . S
Gd588 O632 2.545 . S
Gd588 O633 2.606 . S
Gd588 O635 2.429 . S
Gd588 O636 2.545 . S
Gd588 O637 2.412 . S
Gd588 O639 2.362 . S
Gd588 O640 2.324 . S
Gd588 C647 2.828 . S
Gd589 N598 2.661 . S
Gd589 N602 2.601 . S
Gd589 O633 2.362 . S
Gd589 O634 2.324 . S
Gd589 O638 2.545 . S
Gd589 O639 2.606 . S
Gd589 O641 2.429 . S
Gd589 O642 2.545 . S
Gd589 O643 2.412 . S
Gd589 C656 2.828 . S
C590 C593 1.417 . S
C590 C595 1.431 . S
C590 C596 1.412 . S
C591 C594 1.437 . S
C591 C595 1.317 . S
C591 H610 0.929 . S
C592 C593 1.426 . S
C592 C594 1.413 . S
C592 N602 1.359 . S
C593 C590 1.417 . S
C593 C592 1.426 . S
C593 N598 1.350 . S
C594 C591 1.437 . S
C594 C592 1.413 . S
C594 C604 1.391 . S
C595 C590 1.431 . S
C595 C591 1.317 . S
C595 H606 0.930 . S
C596 C590 1.412 . S
C596 C597 1.355 . S
C596 H608 0.930 . S
C597 C596 1.355 . S
C597 C599 1.402 . S
C597 H609 0.930 . S
N598 Gd589 2.661 . S
N598 C593 1.350 . S
N598 C599 1.307 . S
C599 C597 1.402 . S
C599 N598 1.307 . S
C599 H600 0.930 . S
H600 C599 0.930 . S
C601 N602 1.334 . S
C601 C603 1.394 . S
C601 H605 0.930 . S
N602 Gd589 2.601 . S
N602 C592 1.359 . S
N602 C601 1.334 . S
C603 C601 1.394 . S
C603 C604 1.359 . S
C603 H615 0.930 . S
C604 C594 1.391 . S
C604 C603 1.359 . S
C604 H616 0.929 . S
H605 C601 0.930 . S
H606 C595 0.930 . S
H607 C624 0.930 . S
H608 C596 0.930 . S
H609 C597 0.930 . S
H610 C591 0.929 . S
H611 C629 0.930 . S
H612 C620 0.930 . S
H613 C621 0.930 . S
H614 C645 0.929 . S
H615 C603 0.930 . S
H616 C604 0.929 . S
H617 C646 0.930 . S
H618 C627 0.930 . S
N619 Gd588 2.661 . S
N619 C623 1.350 . S
N619 C624 1.307 . S
C620 H612 0.930 . S
C620 C621 1.355 . S
C620 C622 1.412 . S
C621 H613 0.930 . S
C621 C620 1.355 . S
C621 C624 1.402 . S
C622 C620 1.412 . S
C622 C623 1.417 . S
C622 C646 1.431 . S
C623 N619 1.350 . S
C623 C622 1.417 . S
C623 C626 1.426 . S
C624 H607 0.930 . S
C624 N619 1.307 . S
C624 C621 1.402 . S
N625 Gd588 2.601 . S
N625 C626 1.359 . S
N625 C629 1.334 . S
C626 C623 1.426 . S
C626 N625 1.359 . S
C626 C630 1.413 1_455 S
C627 H618 0.930 . S
C627 C628 1.359 . S
C627 C629 1.394 1_655 S
C628 C627 1.359 . S
C628 C630 1.391 . S
C628 H631 0.929 . S
C629 H611 0.930 . S
C629 N625 1.334 . S
C629 C627 1.394 1_455 S
C630 C626 1.413 1_655 S
C630 C628 1.391 . S
C630 C645 1.437 . S
H631 C628 0.929 . S
O632 Gd588 2.545 . S
O632 C647 1.258 . S
O633 Gd588 2.606 . S
O633 Gd589 2.362 . S
O633 C644 1.284 . S
O634 Gd589 2.324 . S
O634 C654 1.254 . S
O635 Gd588 2.429 . S
O635 C654 1.268 . S
O636 Gd588 2.545 . S
O636 C644 1.250 . S
O637 Gd588 2.412 . S
O637 C647 1.252 . S
O638 Gd589 2.545 . S
O638 C656 1.258 . S
O639 Gd588 2.362 . S
O639 Gd589 2.606 . S
O639 C655 1.284 . S
O640 Gd588 2.324 . S
O640 C663 1.254 . S
O641 Gd589 2.429 . S
O641 C663 1.268 . S
O642 Gd589 2.545 . S
O642 C655 1.250 . S
O643 Gd589 2.412 . S
O643 C656 1.252 . S
C644 O633 1.284 . S
C644 O636 1.250 . S
C645 H614 0.929 . S
C645 C630 1.437 . S
C645 C646 1.317 1_655 S
C646 H617 0.930 . S
C646 C622 1.431 . S
C646 C645 1.317 1_455 S
C647 Gd588 2.828 . S
C647 O632 1.258 . S
C647 O637 1.252 . S
C647 C648 1.497 . S
C648 C647 1.497 . S
C648 C649 1.395 1_455 S
C648 C650 1.380 . S
C649 C648 1.395 1_655 S
C649 C652 1.398 . S
C649 H664 0.930 . S
C650 C648 1.380 . S
C650 C651 1.391 1_455 S
C650 H665 0.930 . S
C651 C650 1.391 1_655 S
C651 C653 1.387 . S
C652 C649 1.398 . S
C652 C653 1.380 . S
C652 H666 0.930 . S
C653 C651 1.387 . S
C653 C652 1.380 . S
C653 H667 0.930 . S
C654 O634 1.254 . S
C654 O635 1.268 . S
C655 O639 1.284 . S
C655 O642 1.250 . S
C656 Gd589 2.828 . S
C656 O638 1.258 . S
C656 O643 1.252 . S
C656 C657 1.497 . S
C657 C656 1.497 . S
C657 C658 1.395 . S
C657 C659 1.380 . S
C658 C657 1.395 . S
C658 C661 1.398 . S
C658 H668 0.930 . S
C659 C657 1.380 . S
C659 C660 1.391 . S
C659 H669 0.930 . S
C660 C659 1.391 . S
C660 C662 1.387 . S
C661 C658 1.398 . S
C661 C662 1.380 . S
C661 H670 0.930 . S
C662 C660 1.387 . S
C662 C661 1.380 . S
C662 H671 0.930 . S
C663 O640 1.254 . S
C663 O641 1.268 . S
H664 C649 0.930 . S
H665 C650 0.930 . S
H666 C652 0.930 . S
H667 C653 0.930 . S
H668 C658 0.930 . S
H669 C659 0.930 . S
H670 C661 0.930 . S
H671 C662 0.930 . S
Gd672 N703 2.661 . S
Gd672 N709 2.601 . S
Gd672 O716 2.545 . S
Gd672 O717 2.606 . S
Gd672 O719 2.429 . S
Gd672 O720 2.545 . S
Gd672 O721 2.412 . S
Gd672 O723 2.362 . S
Gd672 O724 2.324 . S
Gd672 C731 2.828 . S
Gd673 N682 2.661 . S
Gd673 N686 2.601 . S
Gd673 O717 2.362 . S
Gd673 O718 2.324 . S
Gd673 O722 2.545 . S
Gd673 O723 2.606 . S
Gd673 O725 2.429 . S
Gd673 O726 2.545 . S
Gd673 O727 2.412 . S
Gd673 C740 2.828 . S
C674 C677 1.417 . S
C674 C679 1.431 . S
C674 C680 1.412 . S
C675 C678 1.437 . S
C675 C679 1.317 . S
C675 H694 0.929 . S
C676 C677 1.426 . S
C676 C678 1.413 . S
C676 N686 1.359 . S
C677 C674 1.417 . S
C677 C676 1.426 . S
C677 N682 1.350 . S
C678 C675 1.437 . S
C678 C676 1.413 . S
C678 C688 1.391 . S
C679 C674 1.431 . S
C679 C675 1.317 . S
C679 H690 0.930 . S
C680 C674 1.412 . S
C680 C681 1.355 . S
C680 H692 0.930 . S
C681 C680 1.355 . S
C681 C683 1.402 . S
C681 H693 0.930 . S
N682 Gd673 2.661 . S
N682 C677 1.350 . S
N682 C683 1.307 . S
C683 C681 1.402 . S
C683 N682 1.307 . S
C683 H684 0.930 . S
H684 C683 0.930 . S
C685 N686 1.334 . S
C685 C687 1.394 . S
C685 H689 0.930 . S
N686 Gd673 2.601 . S
N686 C676 1.359 . S
N686 C685 1.334 . S
C687 C685 1.394 . S
C687 C688 1.359 . S
C687 H699 0.930 . S
C688 C678 1.391 . S
C688 C687 1.359 . S
C688 H700 0.929 . S
H689 C685 0.930 . S
H690 C679 0.930 . S
H691 C708 0.930 . S
H692 C680 0.930 . S
H693 C681 0.930 . S
H694 C675 0.929 . S
H695 C713 0.930 . S
H696 C704 0.930 . S
H697 C705 0.930 . S
H698 C729 0.929 . S
H699 C687 0.930 . S
H700 C688 0.929 . S
H701 C730 0.930 . S
H702 C711 0.930 . S
N703 Gd672 2.661 . S
N703 C707 1.350 . S
N703 C708 1.307 . S
C704 H696 0.930 . S
C704 C705 1.355 . S
C704 C706 1.412 . S
C705 H697 0.930 . S
C705 C704 1.355 . S
C705 C708 1.402 . S
C706 C704 1.412 . S
C706 C707 1.417 . S
C706 C730 1.431 . S
C707 N703 1.350 . S
C707 C706 1.417 . S
C707 C710 1.426 . S
C708 H691 0.930 . S
C708 N703 1.307 . S
C708 C705 1.402 . S
N709 Gd672 2.601 . S
N709 C710 1.359 . S
N709 C713 1.334 . S
C710 C707 1.426 . S
C710 N709 1.359 . S
C710 C714 1.413 . S
C711 H702 0.930 . S
C711 C712 1.359 . S
C711 C713 1.394 . S
C712 C711 1.359 . S
C712 C714 1.391 . S
C712 H715 0.929 . S
C713 H695 0.930 . S
C713 N709 1.334 . S
C713 C711 1.394 . S
C714 C710 1.413 . S
C714 C712 1.391 . S
C714 C729 1.437 . S
H715 C712 0.929 . S
O716 Gd672 2.545 . S
O716 C731 1.258 . S
O717 Gd672 2.606 . S
O717 Gd673 2.362 . S
O717 C728 1.284 . S
O718 Gd673 2.324 . S
O718 C738 1.254 . S
O719 Gd672 2.429 . S
O719 C738 1.268 . S
O720 Gd672 2.545 . S
O720 C728 1.250 . S
O721 Gd672 2.412 . S
O721 C731 1.252 . S
O722 Gd673 2.545 . S
O722 C740 1.258 . S
O723 Gd672 2.362 . S
O723 Gd673 2.606 . S
O723 C739 1.284 . S
O724 Gd672 2.324 . S
O724 C747 1.254 . S
O725 Gd673 2.429 . S
O725 C747 1.268 . S
O726 Gd673 2.545 . S
O726 C739 1.250 . S
O727 Gd673 2.412 . S
O727 C740 1.252 . S
C728 O717 1.284 . S
C728 O720 1.250 . S
C729 H698 0.929 . S
C729 C714 1.437 . S
C729 C730 1.317 . S
C730 H701 0.930 . S
C730 C706 1.431 . S
C730 C729 1.317 . S
C731 Gd672 2.828 . S
C731 O716 1.258 . S
C731 O721 1.252 . S
C731 C732 1.497 . S
C732 C731 1.497 . S
C732 C733 1.395 . S
C732 C734 1.380 . S
C733 C732 1.395 . S
C733 C736 1.398 . S
C733 H748 0.930 . S
C734 C732 1.380 . S
C734 C735 1.391 . S
C734 H749 0.930 . S
C735 C734 1.391 . S
C735 C737 1.387 . S
C736 C733 1.398 . S
C736 C737 1.380 . S
C736 H750 0.930 . S
C737 C735 1.387 . S
C737 C736 1.380 . S
C737 H751 0.930 . S
C738 O718 1.254 . S
C738 O719 1.268 . S
C739 O723 1.284 . S
C739 O726 1.250 . S
C740 Gd673 2.828 . S
C740 O722 1.258 . S
C740 O727 1.252 . S
C740 C741 1.497 . S
C741 C740 1.497 . S
C741 C742 1.395 . S
C741 C743 1.380 . S
C742 C741 1.395 . S
C742 C745 1.398 . S
C742 H752 0.930 . S
C743 C741 1.380 . S
C743 C744 1.391 . S
C743 H753 0.930 . S
C744 C743 1.391 . S
C744 C746 1.387 . S
C745 C742 1.398 . S
C745 C746 1.380 . S
C745 H754 0.930 . S
C746 C744 1.387 . S
C746 C745 1.380 . S
C746 H755 0.930 . S
C747 O724 1.254 . S
C747 O725 1.268 . S
H748 C733 0.930 . S
H749 C734 0.930 . S
H750 C736 0.930 . S
H751 C737 0.930 . S
H752 C742 0.930 . S
H753 C743 0.930 . S
H754 C745 0.930 . S
H755 C746 0.930 . S
Gd756 N787 2.661 . S
Gd756 N793 2.601 . S
Gd756 O800 2.545 . S
Gd756 O801 2.606 . S
Gd756 O803 2.429 . S
Gd756 O804 2.545 . S
Gd756 O805 2.412 . S
Gd756 O807 2.362 . S
Gd756 O808 2.324 . S
Gd756 C815 2.828 . S
Gd757 N766 2.661 1_545 S
Gd757 N770 2.601 . S
Gd757 O801 2.362 . S
Gd757 O802 2.324 1_545 S
Gd757 O806 2.545 . S
Gd757 O807 2.606 . S
Gd757 O809 2.429 . S
Gd757 O810 2.545 . S
Gd757 O811 2.412 1_545 S
Gd757 C824 2.828 1_545 S
C758 C761 1.417 . S
C758 C763 1.431 . S
C758 C764 1.412 . S
C759 C762 1.437 1_565 S
C759 C763 1.317 1_655 S
C759 H778 0.929 . S
C760 C761 1.426 1_545 S
C760 C762 1.413 1_455 S
C760 N770 1.359 . S
C761 C758 1.417 . S
C761 C760 1.426 1_565 S
C761 N766 1.350 . S
C762 C759 1.437 1_545 S
C762 C760 1.413 1_655 S
C762 C772 1.391 . S
C763 C758 1.431 . S
C763 C759 1.317 1_455 S
C763 H774 0.930 . S
C764 C758 1.412 . S
C764 C765 1.355 . S
C764 H776 0.930 . S
C765 C764 1.355 . S
C765 C767 1.402 . S
C765 H777 0.930 . S
N766 Gd757 2.661 1_565 S
N766 C761 1.350 . S
N766 C767 1.307 . S
C767 C765 1.402 . S
C767 N766 1.307 . S
C767 H768 0.930 . S
H768 C767 0.930 . S
C769 N770 1.334 . S
C769 C771 1.394 1_455 S
C769 H773 0.930 . S
N770 Gd757 2.601 . S
N770 C760 1.359 . S
N770 C769 1.334 . S
C771 C769 1.394 1_655 S
C771 C772 1.359 . S
C771 H783 0.930 . S
C772 C762 1.391 . S
C772 C771 1.359 . S
C772 H784 0.929 . S
H773 C769 0.930 . S
H774 C763 0.930 . S
H775 C792 0.930 . S
H776 C764 0.930 . S
H777 C765 0.930 . S
H778 C759 0.929 . S
H779 C797 0.930 . S
H780 C788 0.930 . S
H781 C789 0.930 . S
H782 C813 0.929 . S
H783 C771 0.930 . S
H784 C772 0.929 . S
H785 C814 0.930 . S
H786 C795 0.930 . S
N787 Gd756 2.661 . S
N787 C791 1.350 . S
N787 C792 1.307 . S
C788 H780 0.930 . S
C788 C789 1.355 . S
C788 C790 1.412 . S
C789 H781 0.930 . S
C789 C788 1.355 . S
C789 C792 1.402 . S
C790 C788 1.412 . S
C790 C791 1.417 . S
C790 C814 1.431 . S
C791 N787 1.350 . S
C791 C790 1.417 . S
C791 C794 1.426 . S
C792 H775 0.930 . S
C792 N787 1.307 . S
C792 C789 1.402 . S
N793 Gd756 2.601 . S
N793 C794 1.359 . S
N793 C797 1.334 . S
C794 C791 1.426 . S
C794 N793 1.359 . S
C794 C798 1.413 . S
C795 H786 0.930 . S
C795 C796 1.359 . S
C795 C797 1.394 . S
C796 C795 1.359 . S
C796 C798 1.391 . S
C796 H799 0.929 . S
C797 H779 0.930 . S
C797 N793 1.334 . S
C797 C795 1.394 . S
C798 C794 1.413 . S
C798 C796 1.391 . S
C798 C813 1.437 . S
H799 C796 0.929 . S
O800 Gd756 2.545 . S
O800 C815 1.258 . S
O801 Gd756 2.606 . S
O801 Gd757 2.362 . S
O801 C812 1.284 . S
O802 Gd757 2.324 1_565 S
O802 C822 1.254 . S
O803 Gd756 2.429 . S
O803 C822 1.268 1_545 S
O804 Gd756 2.545 . S
O804 C812 1.250 . S
O805 Gd756 2.412 . S
O805 C815 1.252 . S
O806 Gd757 2.545 . S
O806 C824 1.258 1_545 S
O807 Gd756 2.362 . S
O807 Gd757 2.606 . S
O807 C823 1.284 . S
O808 Gd756 2.324 . S
O808 C831 1.254 . S
O809 Gd757 2.429 . S
O809 C831 1.268 . S
O810 Gd757 2.545 . S
O810 C823 1.250 . S
O811 Gd757 2.412 1_565 S
O811 C824 1.252 . S
C812 O801 1.284 . S
C812 O804 1.250 . S
C813 H782 0.929 . S
C813 C798 1.437 . S
C813 C814 1.317 . S
C814 H785 0.930 . S
C814 C790 1.431 . S
C814 C813 1.317 . S
C815 Gd756 2.828 . S
C815 O800 1.258 . S
C815 O805 1.252 . S
C815 C816 1.497 . S
C816 C815 1.497 . S
C816 C817 1.395 . S
C816 C818 1.380 . S
C817 C816 1.395 . S
C817 C820 1.398 . S
C817 H832 0.930 . S
C818 C816 1.380 . S
C818 C819 1.391 . S
C818 H833 0.930 . S
C819 C818 1.391 . S
C819 C821 1.387 . S
C820 C817 1.398 . S
C820 C821 1.380 . S
C820 H834 0.930 . S
C821 C819 1.387 . S
C821 C820 1.380 . S
C821 H835 0.930 . S
C822 O802 1.254 . S
C822 O803 1.268 1_565 S
C823 O807 1.284 . S
C823 O810 1.250 . S
C824 Gd757 2.828 1_565 S
C824 O806 1.258 1_565 S
C824 O811 1.252 . S
C824 C825 1.497 . S
C825 C824 1.497 . S
C825 C826 1.395 1_455 S
C825 C827 1.380 . S
C826 C825 1.395 1_655 S
C826 C829 1.398 . S
C826 H836 0.930 1_565 S
C827 C825 1.380 . S
C827 C828 1.391 1_455 S
C827 H837 0.930 . S
C828 C827 1.391 1_655 S
C828 C830 1.387 . S
C829 C826 1.398 . S
C829 C830 1.380 . S
C829 H838 0.930 . S
C830 C828 1.387 . S
C830 C829 1.380 . S
C830 H839 0.930 . S
C831 O808 1.254 . S
C831 O809 1.268 . S
H832 C817 0.930 . S
H833 C818 0.930 . S
H834 C820 0.930 . S
H835 C821 0.930 . S
H836 C826 0.930 1_545 S
H837 C827 0.930 . S
H838 C829 0.930 . S
H839 C830 0.930 . S
Gd840 N871 2.661 . S
Gd840 N877 2.601 . S
Gd840 O884 2.545 . S
Gd840 O885 2.606 . S
Gd840 O887 2.429 . S
Gd840 O888 2.545 . S
Gd840 O889 2.412 . S
Gd840 O891 2.362 . S
Gd840 O892 2.324 . S
Gd840 C899 2.828 . S
Gd841 N850 2.661 . S
Gd841 N854 2.601 . S
Gd841 O885 2.362 . S
Gd841 O886 2.324 . S
Gd841 O890 2.545 . S
Gd841 O891 2.606 . S
Gd841 O893 2.429 . S
Gd841 O894 2.545 . S
Gd841 O895 2.412 . S
Gd841 C908 2.828 . S
C842 C845 1.417 . S
C842 C847 1.431 . S
C842 C848 1.412 . S
C843 C846 1.437 . S
C843 C847 1.317 . S
C843 H862 0.929 . S
C844 C845 1.426 . S
C844 C846 1.413 . S
C844 N854 1.359 . S
C845 C842 1.417 . S
C845 C844 1.426 . S
C845 N850 1.350 . S
C846 C843 1.437 . S
C846 C844 1.413 . S
C846 C856 1.391 . S
C847 C842 1.431 . S
C847 C843 1.317 . S
C847 H858 0.930 . S
C848 C842 1.412 . S
C848 C849 1.355 . S
C848 H860 0.930 . S
C849 C848 1.355 . S
C849 C851 1.402 . S
C849 H861 0.930 . S
N850 Gd841 2.661 . S
N850 C845 1.350 . S
N850 C851 1.307 . S
C851 C849 1.402 . S
C851 N850 1.307 . S
C851 H852 0.930 . S
H852 C851 0.930 . S
C853 N854 1.334 . S
C853 C855 1.394 . S
C853 H857 0.930 . S
N854 Gd841 2.601 . S
N854 C844 1.359 . S
N854 C853 1.334 . S
C855 C853 1.394 . S
C855 C856 1.359 . S
C855 H867 0.930 . S
C856 C846 1.391 . S
C856 C855 1.359 . S
C856 H868 0.929 . S
H857 C853 0.930 . S
H858 C847 0.930 . S
H859 C876 0.930 . S
H860 C848 0.930 . S
H861 C849 0.930 . S
H862 C843 0.929 . S
H863 C881 0.930 . S
H864 C872 0.930 . S
H865 C873 0.930 . S
H866 C897 0.929 . S
H867 C855 0.930 . S
H868 C856 0.929 . S
H869 C898 0.930 . S
H870 C879 0.930 . S
N871 Gd840 2.661 . S
N871 C875 1.350 . S
N871 C876 1.307 . S
C872 H864 0.930 . S
C872 C873 1.355 . S
C872 C874 1.412 . S
C873 H865 0.930 . S
C873 C872 1.355 . S
C873 C876 1.402 . S
C874 C872 1.412 . S
C874 C875 1.417 . S
C874 C898 1.431 . S
C875 N871 1.350 . S
C875 C874 1.417 . S
C875 C878 1.426 . S
C876 H859 0.930 . S
C876 N871 1.307 . S
C876 C873 1.402 . S
N877 Gd840 2.601 . S
N877 C878 1.359 . S
N877 C881 1.334 . S
C878 C875 1.426 . S
C878 N877 1.359 . S
C878 C882 1.413 . S
C879 H870 0.930 . S
C879 C880 1.359 . S
C879 C881 1.394 . S
C880 C879 1.359 . S
C880 C882 1.391 . S
C880 H883 0.929 . S
C881 H863 0.930 . S
C881 N877 1.334 . S
C881 C879 1.394 . S
C882 C878 1.413 . S
C882 C880 1.391 . S
C882 C897 1.437 . S
H883 C880 0.929 . S
O884 Gd840 2.545 . S
O884 C899 1.258 . S
O885 Gd840 2.606 . S
O885 Gd841 2.362 . S
O885 C896 1.284 . S
O886 Gd841 2.324 . S
O886 C906 1.254 . S
O887 Gd840 2.429 . S
O887 C906 1.268 . S
O888 Gd840 2.545 . S
O888 C896 1.250 . S
O889 Gd840 2.412 . S
O889 C899 1.252 . S
O890 Gd841 2.545 . S
O890 C908 1.258 . S
O891 Gd840 2.362 . S
O891 Gd841 2.606 . S
O891 C907 1.284 . S
O892 Gd840 2.324 . S
O892 C915 1.254 . S
O893 Gd841 2.429 . S
O893 C915 1.268 . S
O894 Gd841 2.545 . S
O894 C907 1.250 . S
O895 Gd841 2.412 . S
O895 C908 1.252 . S
C896 O885 1.284 . S
C896 O888 1.250 . S
C897 H866 0.929 . S
C897 C882 1.437 . S
C897 C898 1.317 . S
C898 H869 0.930 . S
C898 C874 1.431 . S
C898 C897 1.317 . S
C899 Gd840 2.828 . S
C899 O884 1.258 . S
C899 O889 1.252 . S
C899 C900 1.497 . S
C900 C899 1.497 . S
C900 C901 1.395 . S
C900 C902 1.380 . S
C901 C900 1.395 . S
C901 C904 1.398 . S
C901 H916 0.930 . S
C902 C900 1.380 . S
C902 C903 1.391 . S
C902 H917 0.930 . S
C903 C902 1.391 . S
C903 C905 1.387 . S
C904 C901 1.398 . S
C904 C905 1.380 . S
C904 H918 0.930 . S
C905 C903 1.387 . S
C905 C904 1.380 . S
C905 H919 0.930 . S
C906 O886 1.254 . S
C906 O887 1.268 . S
C907 O891 1.284 . S
C907 O894 1.250 . S
C908 Gd841 2.828 . S
C908 O890 1.258 . S
C908 O895 1.252 . S
C908 C909 1.497 . S
C909 C908 1.497 . S
C909 C910 1.395 . S
C909 C911 1.380 . S
C910 C909 1.395 . S
C910 C913 1.398 . S
C910 H920 0.930 . S
C911 C909 1.380 . S
C911 C912 1.391 . S
C911 H921 0.930 . S
C912 C911 1.391 . S
C912 C914 1.387 . S
C913 C910 1.398 . S
C913 C914 1.380 . S
C913 H922 0.930 . S
C914 C912 1.387 . S
C914 C913 1.380 . S
C914 H923 0.930 . S
C915 O892 1.254 . S
C915 O893 1.268 . S
H916 C901 0.930 . S
H917 C902 0.930 . S
H918 C904 0.930 . S
H919 C905 0.930 . S
H920 C910 0.930 . S
H921 C911 0.930 . S
H922 C913 0.930 . S
H923 C914 0.930 . S
Gd924 N955 2.661 . S
Gd924 N961 2.601 . S
Gd924 O968 2.545 . S
Gd924 O969 2.606 . S
Gd924 O971 2.429 . S
Gd924 O972 2.545 . S
Gd924 O973 2.412 . S
Gd924 O975 2.362 . S
Gd924 O976 2.324 . S
Gd924 C983 2.828 . S
Gd925 N934 2.661 1_565 S
Gd925 N938 2.601 . S
Gd925 O969 2.362 . S
Gd925 O970 2.324 1_565 S
Gd925 O974 2.545 . S
Gd925 O975 2.606 . S
Gd925 O977 2.429 . S
Gd925 O978 2.545 . S
Gd925 O979 2.412 1_565 S
Gd925 C992 2.828 1_565 S
C926 C929 1.417 . S
C926 C931 1.431 . S
C926 C932 1.412 . S
C927 C930 1.437 1_545 S
C927 C931 1.317 . S
C927 H946 0.929 . S
C928 C929 1.426 1_565 S
C928 C930 1.413 . S
C928 N938 1.359 . S
C929 C926 1.417 . S
C929 C928 1.426 1_545 S
C929 N934 1.350 . S
C930 C927 1.437 1_565 S
C930 C928 1.413 . S
C930 C940 1.391 . S
C931 C926 1.431 . S
C931 C927 1.317 . S
C931 H942 0.930 . S
C932 C926 1.412 . S
C932 C933 1.355 . S
C932 H944 0.930 . S
C933 C932 1.355 . S
C933 C935 1.402 . S
C933 H945 0.930 . S
N934 Gd925 2.661 1_545 S
N934 C929 1.350 . S
N934 C935 1.307 . S
C935 C933 1.402 . S
C935 N934 1.307 . S
C935 H936 0.930 . S
H936 C935 0.930 . S
C937 N938 1.334 . S
C937 C939 1.394 . S
C937 H941 0.930 . S
N938 Gd925 2.601 . S
N938 C928 1.359 . S
N938 C937 1.334 . S
C939 C937 1.394 . S
C939 C940 1.359 . S
C939 H951 0.930 . S
C940 C930 1.391 . S
C940 C939 1.359 . S
C940 H952 0.929 . S
H941 C937 0.930 . S
H942 C931 0.930 . S
H943 C960 0.930 . S
H944 C932 0.930 . S
H945 C933 0.930 . S
H946 C927 0.929 . S
H947 C965 0.930 . S
H948 C956 0.930 . S
H949 C957 0.930 . S
H950 C981 0.929 . S
H951 C939 0.930 . S
H952 C940 0.929 . S
H953 C982 0.930 . S
H954 C963 0.930 . S
N955 Gd924 2.661 . S
N955 C959 1.350 . S
N955 C960 1.307 . S
C956 H948 0.930 . S
C956 C957 1.355 . S
C956 C958 1.412 . S
C957 H949 0.930 . S
C957 C956 1.355 . S
C957 C960 1.402 . S
C958 C956 1.412 . S
C958 C959 1.417 . S
C958 C982 1.431 . S
C959 N955 1.350 . S
C959 C958 1.417 . S
C959 C962 1.426 . S
C960 H943 0.930 . S
C960 N955 1.307 . S
C960 C957 1.402 . S
N961 Gd924 2.601 . S
N961 C962 1.359 . S
N961 C965 1.334 . S
C962 C959 1.426 . S
C962 N961 1.359 . S
C962 C966 1.413 . S
C963 H954 0.930 . S
C963 C964 1.359 . S
C963 C965 1.394 . S
C964 C963 1.359 . S
C964 C966 1.391 . S
C964 H967 0.929 . S
C965 H947 0.930 . S
C965 N961 1.334 . S
C965 C963 1.394 . S
C966 C962 1.413 . S
C966 C964 1.391 . S
C966 C981 1.437 . S
H967 C964 0.929 . S
O968 Gd924 2.545 . S
O968 C983 1.258 . S
O969 Gd924 2.606 . S
O969 Gd925 2.362 . S
O969 C980 1.284 . S
O970 Gd925 2.324 1_545 S
O970 C990 1.254 . S
O971 Gd924 2.429 . S
O971 C990 1.268 1_565 S
O972 Gd924 2.545 . S
O972 C980 1.250 . S
O973 Gd924 2.412 . S
O973 C983 1.252 . S
O974 Gd925 2.545 . S
O974 C992 1.258 1_565 S
O975 Gd924 2.362 . S
O975 Gd925 2.606 . S
O975 C991 1.284 . S
O976 Gd924 2.324 . S
O976 C999 1.254 . S
O977 Gd925 2.429 . S
O977 C999 1.268 . S
O978 Gd925 2.545 . S
O978 C991 1.250 . S
O979 Gd925 2.412 1_545 S
O979 C992 1.252 . S
C980 O969 1.284 . S
C980 O972 1.250 . S
C981 H950 0.929 . S
C981 C966 1.437 . S
C981 C982 1.317 . S
C982 H953 0.930 . S
C982 C958 1.431 . S
C982 C981 1.317 . S
C983 Gd924 2.828 . S
C983 O968 1.258 . S
C983 O973 1.252 . S
C983 C984 1.497 . S
C984 C983 1.497 . S
C984 C985 1.395 . S
C984 C986 1.380 . S
C985 C984 1.395 . S
C985 C988 1.398 . S
C985 H1000 0.930 . S
C986 C984 1.380 . S
C986 C987 1.391 . S
C986 H1001 0.930 . S
C987 C986 1.391 . S
C987 C989 1.387 . S
C988 C985 1.398 . S
C988 C989 1.380 . S
C988 H1002 0.930 . S
C989 C987 1.387 . S
C989 C988 1.380 . S
C989 H1003 0.930 . S
C990 O970 1.254 . S
C990 O971 1.268 1_545 S
C991 O975 1.284 . S
C991 O978 1.250 . S
C992 Gd925 2.828 1_545 S
C992 O974 1.258 1_545 S
C992 O979 1.252 . S
C992 C993 1.497 . S
C993 C992 1.497 . S
C993 C994 1.395 . S
C993 C995 1.380 . S
C994 C993 1.395 . S
C994 C997 1.398 . S
C994 H1004 0.930 1_545 S
C995 C993 1.380 . S
C995 C996 1.391 . S
C995 H1005 0.930 . S
C996 C995 1.391 . S
C996 C998 1.387 . S
C997 C994 1.398 . S
C997 C998 1.380 . S
C997 H1006 0.930 . S
C998 C996 1.387 . S
C998 C997 1.380 . S
C998 H1007 0.930 . S
C999 O976 1.254 . S
C999 O977 1.268 . S
H1000 C985 0.930 . S
H1001 C986 0.930 . S
H1002 C988 0.930 . S
H1003 C989 0.930 . S
H1004 C994 0.930 1_565 S
H1005 C995 0.930 . S
H1006 C997 0.930 . S
H1007 C998 0.930 . S
Gd1008 N1039 2.661 . S
Gd1008 N1045 2.601 . S
Gd1008 O1052 2.545 . S
Gd1008 O1053 2.606 . S
Gd1008 O1055 2.429 . S
Gd1008 O1056 2.545 . S
Gd1008 O1057 2.412 . S
Gd1008 O1059 2.362 . S
Gd1008 O1060 2.324 . S
Gd1008 C1067 2.828 . S
Gd1009 N1018 2.661 . S
Gd1009 N1022 2.601 . S
Gd1009 O1053 2.362 . S
Gd1009 O1054 2.324 . S
Gd1009 O1058 2.545 . S
Gd1009 O1059 2.606 . S
Gd1009 O1061 2.429 . S
Gd1009 O1062 2.545 . S
Gd1009 O1063 2.412 . S
Gd1009 C1076 2.828 . S
C1010 C1013 1.417 . S
C1010 C1015 1.431 . S
C1010 C1016 1.412 . S
C1011 C1014 1.437 . S
C1011 C1015 1.317 . S
C1011 H1030 0.929 . S
C1012 C1013 1.426 . S
C1012 C1014 1.413 . S
C1012 N1022 1.359 . S
C1013 C1010 1.417 . S
C1013 C1012 1.426 . S
C1013 N1018 1.350 . S
C1014 C1011 1.437 . S
C1014 C1012 1.413 . S
C1014 C1024 1.391 . S
C1015 C1010 1.431 . S
C1015 C1011 1.317 . S
C1015 H1026 0.930 . S
C1016 C1010 1.412 . S
C1016 C1017 1.355 . S
C1016 H1028 0.930 . S
C1017 C1016 1.355 . S
C1017 C1019 1.402 . S
C1017 H1029 0.930 . S
N1018 Gd1009 2.661 . S
N1018 C1013 1.350 . S
N1018 C1019 1.307 . S
C1019 C1017 1.402 . S
C1019 N1018 1.307 . S
C1019 H1020 0.930 . S
H1020 C1019 0.930 . S
C1021 N1022 1.334 . S
C1021 C1023 1.394 . S
C1021 H1025 0.930 . S
N1022 Gd1009 2.601 . S
N1022 C1012 1.359 . S
N1022 C1021 1.334 . S
C1023 C1021 1.394 . S
C1023 C1024 1.359 . S
C1023 H1035 0.930 . S
C1024 C1014 1.391 . S
C1024 C1023 1.359 . S
C1024 H1036 0.929 . S
H1025 C1021 0.930 . S
H1026 C1015 0.930 . S
H1027 C1044 0.930 . S
H1028 C1016 0.930 . S
H1029 C1017 0.930 . S
H1030 C1011 0.929 . S
H1031 C1049 0.930 . S
H1032 C1040 0.930 . S
H1033 C1041 0.930 . S
H1034 C1065 0.929 . S
H1035 C1023 0.930 . S
H1036 C1024 0.929 . S
H1037 C1066 0.930 . S
H1038 C1047 0.930 . S
N1039 Gd1008 2.661 . S
N1039 C1043 1.350 . S
N1039 C1044 1.307 . S
C1040 H1032 0.930 . S
C1040 C1041 1.355 . S
C1040 C1042 1.412 . S
C1041 H1033 0.930 . S
C1041 C1040 1.355 . S
C1041 C1044 1.402 . S
C1042 C1040 1.412 . S
C1042 C1043 1.417 . S
C1042 C1066 1.431 . S
C1043 N1039 1.350 . S
C1043 C1042 1.417 . S
C1043 C1046 1.426 . S
C1044 H1027 0.930 . S
C1044 N1039 1.307 . S
C1044 C1041 1.402 . S
N1045 Gd1008 2.601 . S
N1045 C1046 1.359 . S
N1045 C1049 1.334 . S
C1046 C1043 1.426 . S
C1046 N1045 1.359 . S
C1046 C1050 1.413 . S
C1047 H1038 0.930 . S
C1047 C1048 1.359 . S
C1047 C1049 1.394 . S
C1048 C1047 1.359 . S
C1048 C1050 1.391 . S
C1048 H1051 0.929 . S
C1049 H1031 0.930 . S
C1049 N1045 1.334 . S
C1049 C1047 1.394 . S
C1050 C1046 1.413 . S
C1050 C1048 1.391 . S
C1050 C1065 1.437 . S
H1051 C1048 0.929 . S
O1052 Gd1008 2.545 . S
O1052 C1067 1.258 . S
O1053 Gd1008 2.606 . S
O1053 Gd1009 2.362 . S
O1053 C1064 1.284 . S
O1054 Gd1009 2.324 . S
O1054 C1074 1.254 . S
O1055 Gd1008 2.429 . S
O1055 C1074 1.268 . S
O1056 Gd1008 2.545 . S
O1056 C1064 1.250 . S
O1057 Gd1008 2.412 . S
O1057 C1067 1.252 . S
O1058 Gd1009 2.545 . S
O1058 C1076 1.258 . S
O1059 Gd1008 2.362 . S
O1059 Gd1009 2.606 . S
O1059 C1075 1.284 . S
O1060 Gd1008 2.324 . S
O1060 C1083 1.254 . S
O1061 Gd1009 2.429 . S
O1061 C1083 1.268 . S
O1062 Gd1009 2.545 . S
O1062 C1075 1.250 . S
O1063 Gd1009 2.412 . S
O1063 C1076 1.252 . S
C1064 O1053 1.284 . S
C1064 O1056 1.250 . S
C1065 H1034 0.929 . S
C1065 C1050 1.437 . S
C1065 C1066 1.317 . S
C1066 H1037 0.930 . S
C1066 C1042 1.431 . S
C1066 C1065 1.317 . S
C1067 Gd1008 2.828 . S
C1067 O1052 1.258 . S
C1067 O1057 1.252 . S
C1067 C1068 1.497 . S
C1068 C1067 1.497 . S
C1068 C1069 1.395 . S
C1068 C1070 1.380 . S
C1069 C1068 1.395 . S
C1069 C1072 1.398 . S
C1069 H1084 0.930 . S
C1070 C1068 1.380 . S
C1070 C1071 1.391 . S
C1070 H1085 0.930 . S
C1071 C1070 1.391 . S
C1071 C1073 1.387 . S
C1072 C1069 1.398 . S
C1072 C1073 1.380 . S
C1072 H1086 0.930 . S
C1073 C1071 1.387 . S
C1073 C1072 1.380 . S
C1073 H1087 0.930 . S
C1074 O1054 1.254 . S
C1074 O1055 1.268 . S
C1075 O1059 1.284 . S
C1075 O1062 1.250 . S
C1076 Gd1009 2.828 . S
C1076 O1058 1.258 . S
C1076 O1063 1.252 . S
C1076 C1077 1.497 . S
C1077 C1076 1.497 . S
C1077 C1078 1.395 . S
C1077 C1079 1.380 . S
C1078 C1077 1.395 . S
C1078 C1081 1.398 . S
C1078 H1088 0.930 . S
C1079 C1077 1.380 . S
C1079 C1080 1.391 . S
C1079 H1089 0.930 . S
C1080 C1079 1.391 . S
C1080 C1082 1.387 . S
C1081 C1078 1.398 . S
C1081 C1082 1.380 . S
C1081 H1090 0.930 . S
C1082 C1080 1.387 . S
C1082 C1081 1.380 . S
C1082 H1091 0.930 . S
C1083 O1060 1.254 . S
C1083 O1061 1.268 . S
H1084 C1069 0.930 . S
H1085 C1070 0.930 . S
H1086 C1072 0.930 . S
H1087 C1073 0.930 . S
H1088 C1078 0.930 . S
H1089 C1079 0.930 . S
H1090 C1081 0.930 . S
H1091 C1082 0.930 . S
Gd1092 N1123 2.661 1_565 S
Gd1092 N1129 2.601 . S
Gd1092 O1136 2.545 . S
Gd1092 O1137 2.606 . S
Gd1092 O1139 2.429 . S
Gd1092 O1140 2.545 . S
Gd1092 O1141 2.412 1_565 S
Gd1092 O1143 2.362 . S
Gd1092 O1144 2.324 1_565 S
Gd1092 C1151 2.828 1_565 S
Gd1093 N1102 2.661 . S
Gd1093 N1106 2.601 . S
Gd1093 O1137 2.362 . S
Gd1093 O1138 2.324 . S
Gd1093 O1142 2.545 . S
Gd1093 O1143 2.606 . S
Gd1093 O1145 2.429 . S
Gd1093 O1146 2.545 . S
Gd1093 O1147 2.412 . S
Gd1093 C1160 2.828 . S
C1094 C1097 1.417 . S
C1094 C1099 1.431 . S
C1094 C1100 1.412 . S
C1095 C1098 1.437 . S
C1095 C1099 1.317 . S
C1095 H1114 0.929 . S
C1096 C1097 1.426 . S
C1096 C1098 1.413 . S
C1096 N1106 1.359 . S
C1097 C1094 1.417 . S
C1097 C1096 1.426 . S
C1097 N1102 1.350 . S
C1098 C1095 1.437 . S
C1098 C1096 1.413 . S
C1098 C1108 1.391 . S
C1099 C1094 1.431 . S
C1099 C1095 1.317 . S
C1099 H1110 0.930 . S
C1100 C1094 1.412 . S
C1100 C1101 1.355 . S
C1100 H1112 0.930 . S
C1101 C1100 1.355 . S
C1101 C1103 1.402 . S
C1101 H1113 0.930 . S
N1102 Gd1093 2.661 . S
N1102 C1097 1.350 . S
N1102 C1103 1.307 . S
C1103 C1101 1.402 . S
C1103 N1102 1.307 . S
C1103 H1104 0.930 . S
H1104 C1103 0.930 . S
C1105 N1106 1.334 . S
C1105 C1107 1.394 . S
C1105 H1109 0.930 . S
N1106 Gd1093 2.601 . S
N1106 C1096 1.359 . S
N1106 C1105 1.334 . S
C1107 C1105 1.394 . S
C1107 C1108 1.359 . S
C1107 H1119 0.930 . S
C1108 C1098 1.391 . S
C1108 C1107 1.359 . S
C1108 H1120 0.929 . S
H1109 C1105 0.930 . S
H1110 C1099 0.930 . S
H1111 C1128 0.930 . S
H1112 C1100 0.930 . S
H1113 C1101 0.930 . S
H1114 C1095 0.929 . S
H1115 C1133 0.930 . S
H1116 C1124 0.930 . S
H1117 C1125 0.930 . S
H1118 C1149 0.929 . S
H1119 C1107 0.930 . S
H1120 C1108 0.929 . S
H1121 C1150 0.930 . S
H1122 C1131 0.930 . S
N1123 Gd1092 2.661 1_545 S
N1123 C1127 1.350 . S
N1123 C1128 1.307 . S
C1124 H1116 0.930 . S
C1124 C1125 1.355 . S
C1124 C1126 1.412 . S
C1125 H1117 0.930 . S
C1125 C1124 1.355 . S
C1125 C1128 1.402 . S
C1126 C1124 1.412 . S
C1126 C1127 1.417 . S
C1126 C1150 1.431 . S
C1127 N1123 1.350 . S
C1127 C1126 1.417 . S
C1127 C1130 1.426 1_545 S
C1128 H1111 0.930 . S
C1128 N1123 1.307 . S
C1128 C1125 1.402 . S
N1129 Gd1092 2.601 . S
N1129 C1130 1.359 . S
N1129 C1133 1.334 . S
C1130 C1127 1.426 1_565 S
C1130 N1129 1.359 . S
C1130 C1134 1.413 1_655 S
C1131 H1122 0.930 . S
C1131 C1132 1.359 . S
C1131 C1133 1.394 1_455 S
C1132 C1131 1.359 . S
C1132 C1134 1.391 . S
C1132 H1135 0.929 . S
C1133 H1115 0.930 . S
C1133 N1129 1.334 . S
C1133 C1131 1.394 1_655 S
C1134 C1130 1.413 1_455 S
C1134 C1132 1.391 . S
C1134 C1149 1.437 1_565 S
H1135 C1132 0.929 . S
O1136 Gd1092 2.545 . S
O1136 C1151 1.258 1_565 S
O1137 Gd1092 2.606 . S
O1137 Gd1093 2.362 . S
O1137 C1148 1.284 . S
O1138 Gd1093 2.324 . S
O1138 C1158 1.254 . S
O1139 Gd1092 2.429 . S
O1139 C1158 1.268 . S
O1140 Gd1092 2.545 . S
O1140 C1148 1.250 . S
O1141 Gd1092 2.412 1_545 S
O1141 C1151 1.252 . S
O1142 Gd1093 2.545 . S
O1142 C1160 1.258 . S
O1143 Gd1092 2.362 . S
O1143 Gd1093 2.606 . S
O1143 C1159 1.284 . S
O1144 Gd1092 2.324 1_545 S
O1144 C1167 1.254 . S
O1145 Gd1093 2.429 . S
O1145 C1167 1.268 1_565 S
O1146 Gd1093 2.545 . S
O1146 C1159 1.250 . S
O1147 Gd1093 2.412 . S
O1147 C1160 1.252 . S
C1148 O1137 1.284 . S
C1148 O1140 1.250 . S
C1149 H1118 0.929 . S
C1149 C1134 1.437 1_545 S
C1149 C1150 1.317 1_455 S
C1150 H1121 0.930 . S
C1150 C1126 1.431 . S
C1150 C1149 1.317 1_655 S
C1151 Gd1092 2.828 1_545 S
C1151 O1136 1.258 1_545 S
C1151 O1141 1.252 . S
C1151 C1152 1.497 . S
C1152 C1151 1.497 . S
C1152 C1153 1.395 1_655 S
C1152 C1154 1.380 . S
C1153 C1152 1.395 1_455 S
C1153 C1156 1.398 . S
C1153 H1168 0.930 1_545 S
C1154 C1152 1.380 . S
C1154 C1155 1.391 1_655 S
C1154 H1169 0.930 . S
C1155 C1154 1.391 1_455 S
C1155 C1157 1.387 . S
C1156 C1153 1.398 . S
C1156 C1157 1.380 . S
C1156 H1170 0.930 . S
C1157 C1155 1.387 . S
C1157 C1156 1.380 . S
C1157 H1171 0.930 . S
C1158 O1138 1.254 . S
C1158 O1139 1.268 . S
C1159 O1143 1.284 . S
C1159 O1146 1.250 . S
C1160 Gd1093 2.828 . S
C1160 O1142 1.258 . S
C1160 O1147 1.252 . S
C1160 C1161 1.497 . S
C1161 C1160 1.497 . S
C1161 C1162 1.395 . S
C1161 C1163 1.380 . S
C1162 C1161 1.395 . S
C1162 C1165 1.398 . S
C1162 H1172 0.930 . S
C1163 C1161 1.380 . S
C1163 C1164 1.391 . S
C1163 H1173 0.930 . S
C1164 C1163 1.391 . S
C1164 C1166 1.387 . S
C1165 C1162 1.398 . S
C1165 C1166 1.380 . S
C1165 H1174 0.930 . S
C1166 C1164 1.387 . S
C1166 C1165 1.380 . S
C1166 H1175 0.930 . S
C1167 O1144 1.254 . S
C1167 O1145 1.268 1_545 S
H1168 C1153 0.930 1_565 S
H1169 C1154 0.930 . S
H1170 C1156 0.930 . S
H1171 C1157 0.930 . S
H1172 C1162 0.930 . S
H1173 C1163 0.930 . S
H1174 C1165 0.930 . S
H1175 C1166 0.930 . S
Gd1176 N1207 2.661 . S
Gd1176 N1213 2.601 . S
Gd1176 O1220 2.545 . S
Gd1176 O1221 2.606 . S
Gd1176 O1223 2.429 . S
Gd1176 O1224 2.545 . S
Gd1176 O1225 2.412 . S
Gd1176 O1227 2.362 . S
Gd1176 O1228 2.324 . S
Gd1176 C1235 2.828 . S
Gd1177 N1186 2.661 . S
Gd1177 N1190 2.601 . S
Gd1177 O1221 2.362 . S
Gd1177 O1222 2.324 . S
Gd1177 O1226 2.545 . S
Gd1177 O1227 2.606 . S
Gd1177 O1229 2.429 . S
Gd1177 O1230 2.545 . S
Gd1177 O1231 2.412 . S
Gd1177 C1244 2.828 . S
C1178 C1181 1.417 . S
C1178 C1183 1.431 . S
C1178 C1184 1.412 . S
C1179 C1182 1.437 . S
C1179 C1183 1.317 . S
C1179 H1198 0.929 . S
C1180 C1181 1.426 . S
C1180 C1182 1.413 . S
C1180 N1190 1.359 . S
C1181 C1178 1.417 . S
C1181 C1180 1.426 . S
C1181 N1186 1.350 . S
C1182 C1179 1.437 . S
C1182 C1180 1.413 . S
C1182 C1192 1.391 . S
C1183 C1178 1.431 . S
C1183 C1179 1.317 . S
C1183 H1194 0.930 . S
C1184 C1178 1.412 . S
C1184 C1185 1.355 . S
C1184 H1196 0.930 . S
C1185 C1184 1.355 . S
C1185 C1187 1.402 . S
C1185 H1197 0.930 . S
N1186 Gd1177 2.661 . S
N1186 C1181 1.350 . S
N1186 C1187 1.307 . S
C1187 C1185 1.402 . S
C1187 N1186 1.307 . S
C1187 H1188 0.930 . S
H1188 C1187 0.930 . S
C1189 N1190 1.334 . S
C1189 C1191 1.394 . S
C1189 H1193 0.930 . S
N1190 Gd1177 2.601 . S
N1190 C1180 1.359 . S
N1190 C1189 1.334 . S
C1191 C1189 1.394 . S
C1191 C1192 1.359 . S
C1191 H1203 0.930 . S
C1192 C1182 1.391 . S
C1192 C1191 1.359 . S
C1192 H1204 0.929 . S
H1193 C1189 0.930 . S
H1194 C1183 0.930 . S
H1195 C1212 0.930 . S
H1196 C1184 0.930 . S
H1197 C1185 0.930 . S
H1198 C1179 0.929 . S
H1199 C1217 0.930 . S
H1200 C1208 0.930 . S
H1201 C1209 0.930 . S
H1202 C1233 0.929 . S
H1203 C1191 0.930 . S
H1204 C1192 0.929 . S
H1205 C1234 0.930 . S
H1206 C1215 0.930 . S
N1207 Gd1176 2.661 . S
N1207 C1211 1.350 . S
N1207 C1212 1.307 . S
C1208 H1200 0.930 . S
C1208 C1209 1.355 . S
C1208 C1210 1.412 . S
C1209 H1201 0.930 . S
C1209 C1208 1.355 . S
C1209 C1212 1.402 . S
C1210 C1208 1.412 . S
C1210 C1211 1.417 . S
C1210 C1234 1.431 . S
C1211 N1207 1.350 . S
C1211 C1210 1.417 . S
C1211 C1214 1.426 . S
C1212 H1195 0.930 . S
C1212 N1207 1.307 . S
C1212 C1209 1.402 . S
N1213 Gd1176 2.601 . S
N1213 C1214 1.359 . S
N1213 C1217 1.334 . S
C1214 C1211 1.426 . S
C1214 N1213 1.359 . S
C1214 C1218 1.413 . S
C1215 H1206 0.930 . S
C1215 C1216 1.359 . S
C1215 C1217 1.394 . S
C1216 C1215 1.359 . S
C1216 C1218 1.391 . S
C1216 H1219 0.929 . S
C1217 H1199 0.930 . S
C1217 N1213 1.334 . S
C1217 C1215 1.394 . S
C1218 C1214 1.413 . S
C1218 C1216 1.391 . S
C1218 C1233 1.437 . S
H1219 C1216 0.929 . S
O1220 Gd1176 2.545 . S
O1220 C1235 1.258 . S
O1221 Gd1176 2.606 . S
O1221 Gd1177 2.362 . S
O1221 C1232 1.284 . S
O1222 Gd1177 2.324 . S
O1222 C1242 1.254 . S
O1223 Gd1176 2.429 . S
O1223 C1242 1.268 . S
O1224 Gd1176 2.545 . S
O1224 C1232 1.250 . S
O1225 Gd1176 2.412 . S
O1225 C1235 1.252 . S
O1226 Gd1177 2.545 . S
O1226 C1244 1.258 . S
O1227 Gd1176 2.362 . S
O1227 Gd1177 2.606 . S
O1227 C1243 1.284 . S
O1228 Gd1176 2.324 . S
O1228 C1251 1.254 . S
O1229 Gd1177 2.429 . S
O1229 C1251 1.268 . S
O1230 Gd1177 2.545 . S
O1230 C1243 1.250 . S
O1231 Gd1177 2.412 . S
O1231 C1244 1.252 . S
C1232 O1221 1.284 . S
C1232 O1224 1.250 . S
C1233 H1202 0.929 . S
C1233 C1218 1.437 . S
C1233 C1234 1.317 . S
C1234 H1205 0.930 . S
C1234 C1210 1.431 . S
C1234 C1233 1.317 . S
C1235 Gd1176 2.828 . S
C1235 O1220 1.258 . S
C1235 O1225 1.252 . S
C1235 C1236 1.497 . S
C1236 C1235 1.497 . S
C1236 C1237 1.395 . S
C1236 C1238 1.380 . S
C1237 C1236 1.395 . S
C1237 C1240 1.398 . S
C1237 H1252 0.930 . S
C1238 C1236 1.380 . S
C1238 C1239 1.391 . S
C1238 H1253 0.930 . S
C1239 C1238 1.391 . S
C1239 C1241 1.387 . S
C1240 C1237 1.398 . S
C1240 C1241 1.380 . S
C1240 H1254 0.930 . S
C1241 C1239 1.387 . S
C1241 C1240 1.380 . S
C1241 H1255 0.930 . S
C1242 O1222 1.254 . S
C1242 O1223 1.268 . S
C1243 O1227 1.284 . S
C1243 O1230 1.250 . S
C1244 Gd1177 2.828 . S
C1244 O1226 1.258 . S
C1244 O1231 1.252 . S
C1244 C1245 1.497 . S
C1245 C1244 1.497 . S
C1245 C1246 1.395 . S
C1245 C1247 1.380 . S
C1246 C1245 1.395 . S
C1246 C1249 1.398 . S
C1246 H1256 0.930 . S
C1247 C1245 1.380 . S
C1247 C1248 1.391 . S
C1247 H1257 0.930 . S
C1248 C1247 1.391 . S
C1248 C1250 1.387 . S
C1249 C1246 1.398 . S
C1249 C1250 1.380 . S
C1249 H1258 0.930 . S
C1250 C1248 1.387 . S
C1250 C1249 1.380 . S
C1250 H1259 0.930 . S
C1251 O1228 1.254 . S
C1251 O1229 1.268 . S
H1252 C1237 0.930 . S
H1253 C1238 0.930 . S
H1254 C1240 0.930 . S
H1255 C1241 0.930 . S
H1256 C1246 0.930 . S
H1257 C1247 0.930 . S
H1258 C1249 0.930 . S
H1259 C1250 0.930 . S
Gd1260 N1291 2.661 1_545 S
Gd1260 N1297 2.601 . S
Gd1260 O1304 2.545 . S
Gd1260 O1305 2.606 . S
Gd1260 O1307 2.429 . S
Gd1260 O1308 2.545 . S
Gd1260 O1309 2.412 1_545 S
Gd1260 O1311 2.362 . S
Gd1260 O1312 2.324 1_545 S
Gd1260 C1319 2.828 1_545 S
Gd1261 N1270 2.661 . S
Gd1261 N1274 2.601 . S
Gd1261 O1305 2.362 . S
Gd1261 O1306 2.324 . S
Gd1261 O1310 2.545 . S
Gd1261 O1311 2.606 . S
Gd1261 O1313 2.429 . S
Gd1261 O1314 2.545 . S
Gd1261 O1315 2.412 . S
Gd1261 C1328 2.828 . S
C1262 C1265 1.417 . S
C1262 C1267 1.431 . S
C1262 C1268 1.412 . S
C1263 C1266 1.437 . S
C1263 C1267 1.317 . S
C1263 H1282 0.929 . S
C1264 C1265 1.426 . S
C1264 C1266 1.413 . S
C1264 N1274 1.359 . S
C1265 C1262 1.417 . S
C1265 C1264 1.426 . S
C1265 N1270 1.350 . S
C1266 C1263 1.437 . S
C1266 C1264 1.413 . S
C1266 C1276 1.391 . S
C1267 C1262 1.431 . S
C1267 C1263 1.317 . S
C1267 H1278 0.930 . S
C1268 C1262 1.412 . S
C1268 C1269 1.355 . S
C1268 H1280 0.930 . S
C1269 C1268 1.355 . S
C1269 C1271 1.402 . S
C1269 H1281 0.930 . S
N1270 Gd1261 2.661 . S
N1270 C1265 1.350 . S
N1270 C1271 1.307 . S
C1271 C1269 1.402 . S
C1271 N1270 1.307 . S
C1271 H1272 0.930 . S
H1272 C1271 0.930 . S
C1273 N1274 1.334 . S
C1273 C1275 1.394 . S
C1273 H1277 0.930 . S
N1274 Gd1261 2.601 . S
N1274 C1264 1.359 . S
N1274 C1273 1.334 . S
C1275 C1273 1.394 . S
C1275 C1276 1.359 . S
C1275 H1287 0.930 . S
C1276 C1266 1.391 . S
C1276 C1275 1.359 . S
C1276 H1288 0.929 . S
H1277 C1273 0.930 . S
H1278 C1267 0.930 . S
H1279 C1296 0.930 . S
H1280 C1268 0.930 . S
H1281 C1269 0.930 . S
H1282 C1263 0.929 . S
H1283 C1301 0.930 . S
H1284 C1292 0.930 . S
H1285 C1293 0.930 . S
H1286 C1317 0.929 . S
H1287 C1275 0.930 . S
H1288 C1276 0.929 . S
H1289 C1318 0.930 . S
H1290 C1299 0.930 . S
N1291 Gd1260 2.661 1_565 S
N1291 C1295 1.350 . S
N1291 C1296 1.307 . S
C1292 H1284 0.930 . S
C1292 C1293 1.355 . S
C1292 C1294 1.412 . S
C1293 H1285 0.930 . S
C1293 C1292 1.355 . S
C1293 C1296 1.402 . S
C1294 C1292 1.412 . S
C1294 C1295 1.417 . S
C1294 C1318 1.431 . S
C1295 N1291 1.350 . S
C1295 C1294 1.417 . S
C1295 C1298 1.426 1_565 S
C1296 H1279 0.930 . S
C1296 N1291 1.307 . S
C1296 C1293 1.402 . S
N1297 Gd1260 2.601 . S
N1297 C1298 1.359 . S
N1297 C1301 1.334 . S
C1298 C1295 1.426 1_545 S
C1298 N1297 1.359 . S
C1298 C1302 1.413 . S
C1299 H1290 0.930 . S
C1299 C1300 1.359 . S
C1299 C1301 1.394 . S
C1300 C1299 1.359 . S
C1300 C1302 1.391 . S
C1300 H1303 0.929 . S
C1301 H1283 0.930 . S
C1301 N1297 1.334 . S
C1301 C1299 1.394 . S
C1302 C1298 1.413 . S
C1302 C1300 1.391 . S
C1302 C1317 1.437 1_545 S
H1303 C1300 0.929 . S
O1304 Gd1260 2.545 . S
O1304 C1319 1.258 1_545 S
O1305 Gd1260 2.606 . S
O1305 Gd1261 2.362 . S
O1305 C1316 1.284 . S
O1306 Gd1261 2.324 . S
O1306 C1326 1.254 . S
O1307 Gd1260 2.429 . S
O1307 C1326 1.268 . S
O1308 Gd1260 2.545 . S
O1308 C1316 1.250 . S
O1309 Gd1260 2.412 1_565 S
O1309 C1319 1.252 . S
O1310 Gd1261 2.545 . S
O1310 C1328 1.258 . S
O1311 Gd1260 2.362 . S
O1311 Gd1261 2.606 . S
O1311 C1327 1.284 . S
O1312 Gd1260 2.324 1_565 S
O1312 C1335 1.254 . S
O1313 Gd1261 2.429 . S
O1313 C1335 1.268 1_545 S
O1314 Gd1261 2.545 . S
O1314 C1327 1.250 . S
O1315 Gd1261 2.412 . S
O1315 C1328 1.252 . S
C1316 O1305 1.284 . S
C1316 O1308 1.250 . S
C1317 H1286 0.929 . S
C1317 C1302 1.437 1_565 S
C1317 C1318 1.317 . S
C1318 H1289 0.930 . S
C1318 C1294 1.431 . S
C1318 C1317 1.317 . S
C1319 Gd1260 2.828 1_565 S
C1319 O1304 1.258 1_565 S
C1319 O1309 1.252 . S
C1319 C1320 1.497 . S
C1320 C1319 1.497 . S
C1320 C1321 1.395 . S
C1320 C1322 1.380 . S
C1321 C1320 1.395 . S
C1321 C1324 1.398 . S
C1321 H1336 0.930 1_565 S
C1322 C1320 1.380 . S
C1322 C1323 1.391 . S
C1322 H1337 0.930 . S
C1323 C1322 1.391 . S
C1323 C1325 1.387 . S
C1324 C1321 1.398 . S
C1324 C1325 1.380 . S
C1324 H1338 0.930 . S
C1325 C1323 1.387 . S
C1325 C1324 1.380 . S
C1325 H1339 0.930 . S
C1326 O1306 1.254 . S
C1326 O1307 1.268 . S
C1327 O1311 1.284 . S
C1327 O1314 1.250 . S
C1328 Gd1261 2.828 . S
C1328 O1310 1.258 . S
C1328 O1315 1.252 . S
C1328 C1329 1.497 . S
C1329 C1328 1.497 . S
C1329 C1330 1.395 . S
C1329 C1331 1.380 . S
C1330 C1329 1.395 . S
C1330 C1333 1.398 . S
C1330 H1340 0.930 . S
C1331 C1329 1.380 . S
C1331 C1332 1.391 . S
C1331 H1341 0.930 . S
C1332 C1331 1.391 . S
C1332 C1334 1.387 . S
C1333 C1330 1.398 . S
C1333 C1334 1.380 . S
C1333 H1342 0.930 . S
C1334 C1332 1.387 . S
C1334 C1333 1.380 . S
C1334 H1343 0.930 . S
C1335 O1312 1.254 . S
C1335 O1313 1.268 1_565 S
H1336 C1321 0.930 1_545 S
H1337 C1322 0.930 . S
H1338 C1324 0.930 . S
H1339 C1325 0.930 . S
H1340 C1330 0.930 . S
H1341 C1331 0.930 . S
H1342 C1333 0.930 . S
H1343 C1334 0.930 . S
C1344 C1345 1.349 . S
C1344 C1346 1.327 . S
C1344 H1369 0.950 . S
C1345 C1344 1.349 . S
C1345 C1361 1.349 . S
C1346 C1344 1.327 . S
C1346 C1365 1.429 . S
C1346 H1370 0.950 . S
C1347 C1364 1.574 . S
C1347 C1366 1.368 . S
C1347 H1371 0.949 . S
H1348 C1352 0.949 . S
C1349 C1350 1.349 . S
C1349 C1351 1.327 . S
C1349 H1372 0.950 . S
C1350 C1349 1.349 . S
C1350 C1362 1.349 . S
C1351 C1349 1.327 . S
C1351 C1367 1.429 . S
C1351 H1373 0.950 . S
C1352 H1348 0.949 . S
C1352 C1360 1.574 . S
C1352 C1368 1.368 . S
H1353 C1361 0.950 . S
H1354 C1359 0.950 . S
H1355 C1360 0.949 . S
H1356 C1362 0.950 . S
H1357 C1363 0.950 . S
H1358 C1364 0.949 . S
C1359 H1354 0.950 . S
C1359 C1361 1.327 . S
C1359 C1365 1.429 . S
C1360 C1352 1.574 . S
C1360 H1355 0.949 . S
C1360 C1366 1.368 . S
C1361 C1345 1.349 . S
C1361 H1353 0.950 . S
C1361 C1359 1.327 . S
C1362 C1350 1.349 . S
C1362 H1356 0.950 . S
C1362 C1363 1.327 . S
C1363 H1357 0.950 . S
C1363 C1362 1.327 . S
C1363 C1367 1.429 . S
C1364 C1347 1.574 . S
C1364 H1358 0.949 . S
C1364 C1368 1.368 . S
C1365 C1346 1.429 . S
C1365 C1359 1.429 . S
C1365 C1366 1.523 . S
C1366 C1347 1.368 . S
C1366 C1360 1.368 . S
C1366 C1365 1.523 . S
C1367 C1351 1.429 . S
C1367 C1363 1.429 . S
C1367 C1368 1.523 . S
C1368 C1352 1.368 . S
C1368 C1364 1.368 . S
C1368 C1367 1.523 . S
H1369 C1344 0.950 . S
H1370 C1346 0.950 . S
H1371 C1347 0.949 . S
H1372 C1349 0.950 . S
H1373 C1351 0.950 . S
C1374 C1375 1.349 . S
C1374 C1376 1.327 . S
C1374 H1399 0.950 . S
C1375 C1374 1.349 . S
C1375 C1391 1.349 . S
C1376 C1374 1.327 . S
C1376 C1395 1.429 . S
C1376 H1400 0.950 . S
C1377 C1394 1.574 . S
C1377 C1396 1.368 . S
C1377 H1401 0.949 . S
H1378 C1382 0.949 . S
C1379 C1380 1.349 . S
C1379 C1381 1.327 . S
C1379 H1402 0.950 . S
C1380 C1379 1.349 . S
C1380 C1392 1.349 . S
C1381 C1379 1.327 . S
C1381 C1397 1.429 . S
C1381 H1403 0.950 . S
C1382 H1378 0.949 . S
C1382 C1390 1.574 . S
C1382 C1398 1.368 . S
H1383 C1391 0.950 . S
H1384 C1389 0.950 . S
H1385 C1390 0.949 . S
H1386 C1392 0.950 . S
H1387 C1393 0.950 . S
H1388 C1394 0.949 . S
C1389 H1384 0.950 . S
C1389 C1391 1.327 . S
C1389 C1395 1.429 . S
C1390 C1382 1.574 . S
C1390 H1385 0.949 . S
C1390 C1396 1.368 . S
C1391 C1375 1.349 . S
C1391 H1383 0.950 . S
C1391 C1389 1.327 . S
C1392 C1380 1.349 . S
C1392 H1386 0.950 . S
C1392 C1393 1.327 . S
C1393 H1387 0.950 . S
C1393 C1392 1.327 . S
C1393 C1397 1.429 . S
C1394 C1377 1.574 . S
C1394 H1388 0.949 . S
C1394 C1398 1.368 . S
C1395 C1376 1.429 . S
C1395 C1389 1.429 . S
C1395 C1396 1.523 . S
C1396 C1377 1.368 . S
C1396 C1390 1.368 . S
C1396 C1395 1.523 . S
C1397 C1381 1.429 . S
C1397 C1393 1.429 . S
C1397 C1398 1.523 . S
C1398 C1382 1.368 . S
C1398 C1394 1.368 . S
C1398 C1397 1.523 . S
H1399 C1374 0.950 . S
H1400 C1376 0.950 . S
H1401 C1377 0.949 . S
H1402 C1379 0.950 . S
H1403 C1381 0.950 . S
C1404 C1405 1.349 . S
C1404 C1406 1.327 . S
C1404 H1429 0.950 . S
C1405 C1404 1.349 . S
C1405 C1421 1.349 . S
C1406 C1404 1.327 . S
C1406 C1425 1.429 . S
C1406 H1430 0.950 . S
C1407 C1424 1.574 1_455 S
C1407 C1426 1.368 . S
C1407 H1431 0.949 . S
H1408 C1412 0.949 . S
C1409 C1410 1.349 . S
C1409 C1411 1.327 . S
C1409 H1432 0.950 . S
C1410 C1409 1.349 . S
C1410 C1422 1.349 . S
C1411 C1409 1.327 . S
C1411 C1427 1.429 . S
C1411 H1433 0.950 . S
C1412 H1408 0.949 . S
C1412 C1420 1.574 1_655 S
C1412 C1428 1.368 . S
H1413 C1421 0.950 . S
H1414 C1419 0.950 . S
H1415 C1420 0.949 . S
H1416 C1422 0.950 . S
H1417 C1423 0.950 . S
H1418 C1424 0.949 . S
C1419 H1414 0.950 . S
C1419 C1421 1.327 . S
C1419 C1425 1.429 . S
C1420 C1412 1.574 1_455 S
C1420 H1415 0.949 . S
C1420 C1426 1.368 . S
C1421 C1405 1.349 . S
C1421 H1413 0.950 . S
C1421 C1419 1.327 . S
C1422 C1410 1.349 . S
C1422 H1416 0.950 . S
C1422 C1423 1.327 . S
C1423 H1417 0.950 . S
C1423 C1422 1.327 . S
C1423 C1427 1.429 . S
C1424 C1407 1.574 1_655 S
C1424 H1418 0.949 . S
C1424 C1428 1.368 . S
C1425 C1406 1.429 . S
C1425 C1419 1.429 . S
C1425 C1426 1.523 . S
C1426 C1407 1.368 . S
C1426 C1420 1.368 . S
C1426 C1425 1.523 . S
C1427 C1411 1.429 . S
C1427 C1423 1.429 . S
C1427 C1428 1.523 . S
C1428 C1412 1.368 . S
C1428 C1424 1.368 . S
C1428 C1427 1.523 . S
H1429 C1404 0.950 . S
H1430 C1406 0.950 . S
H1431 C1407 0.949 . S
H1432 C1409 0.950 . S
H1433 C1411 0.950 . S
C1434 C1435 1.349 . S
C1434 C1436 1.327 . S
C1434 H1459 0.950 . S
C1435 C1434 1.349 . S
C1435 C1451 1.349 . S
C1436 C1434 1.327 . S
C1436 C1455 1.429 . S
C1436 H1460 0.950 . S
C1437 C1454 1.574 . S
C1437 C1456 1.368 1_655 S
C1437 H1461 0.949 . S
H1438 C1442 0.949 . S
C1439 C1440 1.349 . S
C1439 C1441 1.327 . S
C1439 H1462 0.950 . S
C1440 C1439 1.349 . S
C1440 C1452 1.349 . S
C1441 C1439 1.327 . S
C1441 C1457 1.429 . S
C1441 H1463 0.950 . S
C1442 H1438 0.949 . S
C1442 C1450 1.574 . S
C1442 C1458 1.368 1_455 S
H1443 C1451 0.950 . S
H1444 C1449 0.950 . S
H1445 C1450 0.949 . S
H1446 C1452 0.950 . S
H1447 C1453 0.950 . S
H1448 C1454 0.949 . S
C1449 H1444 0.950 . S
C1449 C1451 1.327 . S
C1449 C1455 1.429 . S
C1450 C1442 1.574 . S
C1450 H1445 0.949 . S
C1450 C1456 1.368 . S
C1451 C1435 1.349 . S
C1451 H1443 0.950 . S
C1451 C1449 1.327 . S
C1452 C1440 1.349 . S
C1452 H1446 0.950 . S
C1452 C1453 1.327 . S
C1453 H1447 0.950 . S
C1453 C1452 1.327 . S
C1453 C1457 1.429 . S
C1454 C1437 1.574 . S
C1454 H1448 0.949 . S
C1454 C1458 1.368 . S
C1455 C1436 1.429 . S
C1455 C1449 1.429 . S
C1455 C1456 1.523 . S
C1456 C1437 1.368 1_455 S
C1456 C1450 1.368 . S
C1456 C1455 1.523 . S
C1457 C1441 1.429 . S
C1457 C1453 1.429 . S
C1457 C1458 1.523 . S
C1458 C1442 1.368 1_655 S
C1458 C1454 1.368 . S
C1458 C1457 1.523 . S
H1459 C1434 0.950 . S
H1460 C1436 0.950 . S
H1461 C1437 0.949 . S
H1462 C1439 0.950 . S
H1463 C1441 0.950 . S
C1464 C1465 1.349 . S
C1464 C1466 1.327 . S
C1464 H1489 0.950 . S
C1465 C1464 1.349 . S
C1465 C1481 1.349 . S
C1466 C1464 1.327 . S
C1466 C1485 1.429 . S
C1466 H1490 0.950 . S
C1467 C1484 1.574 . S
C1467 C1486 1.368 . S
C1467 H1491 0.949 . S
H1468 C1472 0.949 . S
C1469 C1470 1.349 . S
C1469 C1471 1.327 . S
C1469 H1492 0.950 . S
C1470 C1469 1.349 . S
C1470 C1482 1.349 . S
C1471 C1469 1.327 . S
C1471 C1487 1.429 . S
C1471 H1493 0.950 . S
C1472 H1468 0.949 . S
C1472 C1480 1.574 . S
C1472 C1488 1.368 . S
H1473 C1481 0.950 . S
H1474 C1479 0.950 . S
H1475 C1480 0.949 . S
H1476 C1482 0.950 . S
H1477 C1483 0.950 . S
H1478 C1484 0.949 . S
C1479 H1474 0.950 . S
C1479 C1481 1.327 . S
C1479 C1485 1.429 . S
C1480 C1472 1.574 . S
C1480 H1475 0.949 . S
C1480 C1486 1.368 . S
C1481 C1465 1.349 . S
C1481 H1473 0.950 . S
C1481 C1479 1.327 . S
C1482 C1470 1.349 . S
C1482 H1476 0.950 . S
C1482 C1483 1.327 . S
C1483 H1477 0.950 . S
C1483 C1482 1.327 . S
C1483 C1487 1.429 . S
C1484 C1467 1.574 . S
C1484 H1478 0.949 . S
C1484 C1488 1.368 . S
C1485 C1466 1.429 . S
C1485 C1479 1.429 . S
C1485 C1486 1.523 . S
C1486 C1467 1.368 . S
C1486 C1480 1.368 . S
C1486 C1485 1.523 . S
C1487 C1471 1.429 . S
C1487 C1483 1.429 . S
C1487 C1488 1.523 . S
C1488 C1472 1.368 . S
C1488 C1484 1.368 . S
C1488 C1487 1.523 . S
H1489 C1464 0.950 . S
H1490 C1466 0.950 . S
H1491 C1467 0.949 . S
H1492 C1469 0.950 . S
H1493 C1471 0.950 . S
C1494 C1495 1.349 . S
C1494 C1496 1.327 . S
C1494 H1519 0.950 . S
C1495 C1494 1.349 . S
C1495 C1511 1.349 . S
C1496 C1494 1.327 . S
C1496 C1515 1.429 . S
C1496 H1520 0.950 . S
C1497 C1514 1.574 . S
C1497 C1516 1.368 . S
C1497 H1521 0.949 . S
H1498 C1502 0.949 . S
C1499 C1500 1.349 . S
C1499 C1501 1.327 . S
C1499 H1522 0.950 . S
C1500 C1499 1.349 . S
C1500 C1512 1.349 . S
C1501 C1499 1.327 . S
C1501 C1517 1.429 . S
C1501 H1523 0.950 . S
C1502 H1498 0.949 . S
C1502 C1510 1.574 . S
C1502 C1518 1.368 . S
H1503 C1511 0.950 . S
H1504 C1509 0.950 . S
H1505 C1510 0.949 . S
H1506 C1512 0.950 . S
H1507 C1513 0.950 . S
H1508 C1514 0.949 . S
C1509 H1504 0.950 . S
C1509 C1511 1.327 . S
C1509 C1515 1.429 . S
C1510 C1502 1.574 . S
C1510 H1505 0.949 . S
C1510 C1516 1.368 . S
C1511 C1495 1.349 . S
C1511 H1503 0.950 . S
C1511 C1509 1.327 . S
C1512 C1500 1.349 . S
C1512 H1506 0.950 . S
C1512 C1513 1.327 . S
C1513 H1507 0.950 . S
C1513 C1512 1.327 . S
C1513 C1517 1.429 . S
C1514 C1497 1.574 . S
C1514 H1508 0.949 . S
C1514 C1518 1.368 . S
C1515 C1496 1.429 . S
C1515 C1509 1.429 . S
C1515 C1516 1.523 . S
C1516 C1497 1.368 . S
C1516 C1510 1.368 . S
C1516 C1515 1.523 . S
C1517 C1501 1.429 . S
C1517 C1513 1.429 . S
C1517 C1518 1.523 . S
C1518 C1502 1.368 . S
C1518 C1514 1.368 . S
C1518 C1517 1.523 . S
H1519 C1494 0.950 . S
H1520 C1496 0.950 . S
H1521 C1497 0.949 . S
H1522 C1499 0.950 . S
H1523 C1501 0.950 . S
C1524 C1525 1.349 . S
C1524 C1526 1.327 . S
C1524 H1549 0.950 . S
C1525 C1524 1.349 . S
C1525 C1541 1.349 . S
C1526 C1524 1.327 . S
C1526 C1545 1.429 . S
C1526 H1550 0.950 . S
C1527 C1544 1.574 1_455 S
C1527 C1546 1.368 . S
C1527 H1551 0.949 . S
H1528 C1532 0.949 . S
C1529 C1530 1.349 . S
C1529 C1531 1.327 . S
C1529 H1552 0.950 . S
C1530 C1529 1.349 . S
C1530 C1542 1.349 . S
C1531 C1529 1.327 . S
C1531 C1547 1.429 . S
C1531 H1553 0.950 . S
C1532 H1528 0.949 . S
C1532 C1540 1.574 1_655 S
C1532 C1548 1.368 . S
H1533 C1541 0.950 . S
H1534 C1539 0.950 . S
H1535 C1540 0.949 . S
H1536 C1542 0.950 . S
H1537 C1543 0.950 . S
H1538 C1544 0.949 . S
C1539 H1534 0.950 . S
C1539 C1541 1.327 . S
C1539 C1545 1.429 . S
C1540 C1532 1.574 1_455 S
C1540 H1535 0.949 . S
C1540 C1546 1.368 . S
C1541 C1525 1.349 . S
C1541 H1533 0.950 . S
C1541 C1539 1.327 . S
C1542 C1530 1.349 . S
C1542 H1536 0.950 . S
C1542 C1543 1.327 . S
C1543 H1537 0.950 . S
C1543 C1542 1.327 . S
C1543 C1547 1.429 . S
C1544 C1527 1.574 1_655 S
C1544 H1538 0.949 . S
C1544 C1548 1.368 . S
C1545 C1526 1.429 . S
C1545 C1539 1.429 . S
C1545 C1546 1.523 . S
C1546 C1527 1.368 . S
C1546 C1540 1.368 . S
C1546 C1545 1.523 . S
C1547 C1531 1.429 . S
C1547 C1543 1.429 . S
C1547 C1548 1.523 . S
C1548 C1532 1.368 . S
C1548 C1544 1.368 . S
C1548 C1547 1.523 . S
H1549 C1524 0.950 . S
H1550 C1526 0.950 . S
H1551 C1527 0.949 . S
H1552 C1529 0.950 . S
H1553 C1531 0.950 . S
C1554 C1555 1.349 . S
C1554 C1556 1.327 . S
C1554 H1579 0.950 . S
C1555 C1554 1.349 . S
C1555 C1571 1.349 . S
C1556 C1554 1.327 . S
C1556 C1575 1.429 . S
C1556 H1580 0.950 . S
C1557 C1574 1.574 . S
C1557 C1576 1.368 1_655 S
C1557 H1581 0.949 . S
H1558 C1562 0.949 . S
C1559 C1560 1.349 . S
C1559 C1561 1.327 . S
C1559 H1582 0.950 . S
C1560 C1559 1.349 . S
C1560 C1572 1.349 . S
C1561 C1559 1.327 . S
C1561 C1577 1.429 . S
C1561 H1583 0.950 . S
C1562 H1558 0.949 . S
C1562 C1570 1.574 . S
C1562 C1578 1.368 1_455 S
H1563 C1571 0.950 . S
H1564 C1569 0.950 . S
H1565 C1570 0.949 . S
H1566 C1572 0.950 . S
H1567 C1573 0.950 . S
H1568 C1574 0.949 . S
C1569 H1564 0.950 . S
C1569 C1571 1.327 . S
C1569 C1575 1.429 . S
C1570 C1562 1.574 . S
C1570 H1565 0.949 . S
C1570 C1576 1.368 . S
C1571 C1555 1.349 . S
C1571 H1563 0.950 . S
C1571 C1569 1.327 . S
C1572 C1560 1.349 . S
C1572 H1566 0.950 . S
C1572 C1573 1.327 . S
C1573 H1567 0.950 . S
C1573 C1572 1.327 . S
C1573 C1577 1.429 . S
C1574 C1557 1.574 . S
C1574 H1568 0.949 . S
C1574 C1578 1.368 . S
C1575 C1556 1.429 . S
C1575 C1569 1.429 . S
C1575 C1576 1.523 . S
C1576 C1557 1.368 1_455 S
C1576 C1570 1.368 . S
C1576 C1575 1.523 . S
C1577 C1561 1.429 . S
C1577 C1573 1.429 . S
C1577 C1578 1.523 . S
C1578 C1562 1.368 1_655 S
C1578 C1574 1.368 . S
C1578 C1577 1.523 . S
H1579 C1554 0.950 . S
H1580 C1556 0.950 . S
H1581 C1557 0.949 . S
H1582 C1559 0.950 . S
H1583 C1561 0.950 . S
C1584 C1585 1.354 . S
C1584 C1586 1.326 1_554 S
C1584 H1609 0.946 1_554 S
C1585 C1584 1.354 . S
C1585 C1601 1.349 . S
C1586 C1584 1.326 1_556 S
C1586 C1605 1.429 1_556 S
C1586 H1610 0.950 1_545 S
C1587 C1604 1.574 . S
C1587 C1606 1.368 . S
C1587 H1611 0.949 . S
H1588 C1592 0.949 . S
C1589 C1590 1.354 . S
C1589 C1591 1.326 1_556 S
C1589 H1612 0.946 1_556 S
C1590 C1589 1.354 . S
C1590 C1602 1.349 . S
C1591 C1589 1.326 1_554 S
C1591 C1607 1.429 1_554 S
C1591 H1613 0.950 1_565 S
C1592 H1588 0.949 . S
C1592 C1600 1.574 . S
C1592 C1608 1.368 . S
H1593 C1601 0.950 . S
H1594 C1599 0.950 . S
H1595 C1600 0.949 . S
H1596 C1602 0.950 . S
H1597 C1603 0.950 . S
H1598 C1604 0.949 . S
C1599 H1594 0.950 . S
C1599 C1601 1.327 . S
C1599 C1605 1.429 . S
C1600 C1592 1.574 . S
C1600 H1595 0.949 . S
C1600 C1606 1.368 1_566 S
C1601 C1585 1.349 . S
C1601 H1593 0.950 . S
C1601 C1599 1.327 . S
C1602 C1590 1.349 . S
C1602 H1596 0.950 . S
C1602 C1603 1.327 . S
C1603 H1597 0.950 . S
C1603 C1602 1.327 . S
C1603 C1607 1.429 . S
C1604 C1587 1.574 . S
C1604 H1598 0.949 . S
C1604 C1608 1.368 1_544 S
C1605 C1586 1.429 1_554 S
C1605 C1599 1.429 . S
C1605 C1606 1.523 . S
C1606 C1587 1.368 . S
C1606 C1600 1.368 1_544 S
C1606 C1605 1.523 . S
C1607 C1591 1.429 1_556 S
C1607 C1603 1.429 . S
C1607 C1608 1.523 . S
C1608 C1592 1.368 . S
C1608 C1604 1.368 1_566 S
C1608 C1607 1.523 . S
H1609 C1584 0.946 1_556 S
H1610 C1586 0.950 1_565 S
H1611 C1587 0.949 . S
H1612 C1589 0.946 1_554 S
H1613 C1591 0.950 1_545 S
C1614 C1615 1.349 . S
C1614 C1616 1.327 . S
C1614 H1639 0.950 . S
C1615 C1614 1.349 . S
C1615 C1631 1.349 . S
C1616 C1614 1.327 . S
C1616 C1635 1.429 . S
C1616 H1640 0.950 . S
C1617 C1634 1.574 . S
C1617 C1636 1.368 . S
C1617 H1641 0.949 . S
H1618 C1622 0.949 . S
C1619 C1620 1.349 . S
C1619 C1621 1.327 . S
C1619 H1642 0.950 . S
C1620 C1619 1.349 . S
C1620 C1632 1.349 . S
C1621 C1619 1.327 . S
C1621 C1637 1.429 . S
C1621 H1643 0.950 . S
C1622 H1618 0.949 . S
C1622 C1630 1.574 . S
C1622 C1638 1.368 . S
H1623 C1631 0.950 . S
H1624 C1629 0.950 . S
H1625 C1630 0.949 . S
H1626 C1632 0.950 . S
H1627 C1633 0.950 . S
H1628 C1634 0.949 . S
C1629 H1624 0.950 . S
C1629 C1631 1.327 . S
C1629 C1635 1.429 . S
C1630 C1622 1.574 . S
C1630 H1625 0.949 . S
C1630 C1636 1.368 . S
C1631 C1615 1.349 . S
C1631 H1623 0.950 . S
C1631 C1629 1.327 . S
C1632 C1620 1.349 . S
C1632 H1626 0.950 . S
C1632 C1633 1.327 . S
C1633 H1627 0.950 . S
C1633 C1632 1.327 . S
C1633 C1637 1.429 . S
C1634 C1617 1.574 . S
C1634 H1628 0.949 . S
C1634 C1638 1.368 . S
C1635 C1616 1.429 . S
C1635 C1629 1.429 . S
C1635 C1636 1.523 . S
C1636 C1617 1.368 . S
C1636 C1630 1.368 . S
C1636 C1635 1.523 . S
C1637 C1621 1.429 . S
C1637 C1633 1.429 . S
C1637 C1638 1.523 . S
C1638 C1622 1.368 . S
C1638 C1634 1.368 . S
C1638 C1637 1.523 . S
H1639 C1614 0.950 . S
H1640 C1616 0.950 . S
H1641 C1617 0.949 . S
H1642 C1619 0.950 . S
H1643 C1621 0.950 . S
C1644 C1645 1.349 . S
C1644 C1646 1.327 . S
C1644 H1669 0.950 . S
C1645 C1644 1.349 . S
C1645 C1661 1.349 . S
C1646 C1644 1.327 . S
C1646 C1665 1.429 . S
C1646 H1670 0.950 . S
C1647 C1664 1.574 1_455 S
C1647 C1666 1.368 1_545 S
C1647 H1671 0.949 . S
H1648 C1652 0.949 . S
C1649 C1650 1.349 . S
C1649 C1651 1.327 . S
C1649 H1672 0.950 . S
C1650 C1649 1.349 . S
C1650 C1662 1.349 . S
C1651 C1649 1.327 . S
C1651 C1667 1.429 . S
C1651 H1673 0.950 . S
C1652 H1648 0.949 . S
C1652 C1660 1.574 1_655 S
C1652 C1668 1.368 1_565 S
H1653 C1661 0.950 1_545 S
H1654 C1659 0.950 . S
H1655 C1660 0.949 . S
H1656 C1662 0.950 1_565 S
H1657 C1663 0.950 . S
H1658 C1664 0.949 . S
C1659 H1654 0.950 . S
C1659 C1661 1.327 1_545 S
C1659 C1665 1.429 1_545 S
C1660 C1652 1.574 1_455 S
C1660 H1655 0.949 . S
C1660 C1666 1.368 . S
C1661 C1645 1.349 . S
C1661 H1653 0.950 1_565 S
C1661 C1659 1.327 1_565 S
C1662 C1650 1.349 . S
C1662 H1656 0.950 1_545 S
C1662 C1663 1.327 1_545 S
C1663 H1657 0.950 . S
C1663 C1662 1.327 1_565 S
C1663 C1667 1.429 1_565 S
C1664 C1647 1.574 1_655 S
C1664 H1658 0.949 . S
C1664 C1668 1.368 . S
C1665 C1646 1.429 . S
C1665 C1659 1.429 1_565 S
C1665 C1666 1.523 . S
C1666 C1647 1.368 1_565 S
C1666 C1660 1.368 . S
C1666 C1665 1.523 . S
C1667 C1651 1.429 . S
C1667 C1663 1.429 1_545 S
C1667 C1668 1.523 . S
C1668 C1652 1.368 1_545 S
C1668 C1664 1.368 . S
C1668 C1667 1.523 . S
H1669 C1644 0.950 . S
H1670 C1646 0.950 . S
H1671 C1647 0.949 . S
H1672 C1649 0.950 . S
H1673 C1651 0.950 . S
C1674 C1675 1.349 . S
C1674 C1676 1.327 . S
C1674 H1699 0.950 . S
C1675 C1674 1.349 . S
C1675 C1691 1.349 . S
C1676 C1674 1.327 . S
C1676 C1695 1.429 . S
C1676 H1700 0.950 . S
C1677 C1694 1.574 . S
C1677 C1696 1.368 . S
C1677 H1701 0.949 . S
H1678 C1682 0.949 . S
C1679 C1680 1.349 . S
C1679 C1681 1.327 . S
C1679 H1702 0.950 . S
C1680 C1679 1.349 . S
C1680 C1692 1.349 . S
C1681 C1679 1.327 . S
C1681 C1697 1.429 . S
C1681 H1703 0.950 . S
C1682 H1678 0.949 . S
C1682 C1690 1.574 . S
C1682 C1698 1.368 . S
H1683 C1691 0.950 . S
H1684 C1689 0.950 . S
H1685 C1690 0.949 . S
H1686 C1692 0.950 . S
H1687 C1693 0.950 . S
H1688 C1694 0.949 . S
C1689 H1684 0.950 . S
C1689 C1691 1.327 . S
C1689 C1695 1.429 . S
C1690 C1682 1.574 . S
C1690 H1685 0.949 . S
C1690 C1696 1.368 . S
C1691 C1675 1.349 . S
C1691 H1683 0.950 . S
C1691 C1689 1.327 . S
C1692 C1680 1.349 . S
C1692 H1686 0.950 . S
C1692 C1693 1.327 . S
C1693 H1687 0.950 . S
C1693 C1692 1.327 . S
C1693 C1697 1.429 . S
C1694 C1677 1.574 . S
C1694 H1688 0.949 . S
C1694 C1698 1.368 . S
C1695 C1676 1.429 . S
C1695 C1689 1.429 . S
C1695 C1696 1.523 . S
C1696 C1677 1.368 . S
C1696 C1690 1.368 . S
C1696 C1695 1.523 . S
C1697 C1681 1.429 . S
C1697 C1693 1.429 . S
C1697 C1698 1.523 . S
C1698 C1682 1.368 . S
C1698 C1694 1.368 . S
C1698 C1697 1.523 . S
H1699 C1674 0.950 . S
H1700 C1676 0.950 . S
H1701 C1677 0.949 . S
H1702 C1679 0.950 . S
H1703 C1681 0.950 . S
C1704 C1705 1.349 . S
C1704 C1706 1.327 . S
C1704 H1729 0.950 . S
C1705 C1704 1.349 . S
C1705 C1721 1.349 . S
C1706 C1704 1.327 . S
C1706 C1725 1.429 . S
C1706 H1730 0.950 . S
C1707 C1724 1.574 . S
C1707 C1726 1.368 . S
C1707 H1731 0.949 . S
H1708 C1712 0.949 . S
C1709 C1710 1.349 . S
C1709 C1711 1.327 . S
C1709 H1732 0.950 . S
C1710 C1709 1.349 . S
C1710 C1722 1.349 . S
C1711 C1709 1.327 . S
C1711 C1727 1.429 . S
C1711 H1733 0.950 . S
C1712 H1708 0.949 . S
C1712 C1720 1.574 . S
C1712 C1728 1.368 . S
H1713 C1721 0.950 . S
H1714 C1719 0.950 . S
H1715 C1720 0.949 . S
H1716 C1722 0.950 . S
H1717 C1723 0.950 . S
H1718 C1724 0.949 . S
C1719 H1714 0.950 . S
C1719 C1721 1.327 . S
C1719 C1725 1.429 . S
C1720 C1712 1.574 . S
C1720 H1715 0.949 . S
C1720 C1726 1.368 . S
C1721 C1705 1.349 . S
C1721 H1713 0.950 . S
C1721 C1719 1.327 . S
C1722 C1710 1.349 . S
C1722 H1716 0.950 . S
C1722 C1723 1.327 . S
C1723 H1717 0.950 . S
C1723 C1722 1.327 . S
C1723 C1727 1.429 . S
C1724 C1707 1.574 . S
C1724 H1718 0.949 . S
C1724 C1728 1.368 . S
C1725 C1706 1.429 . S
C1725 C1719 1.429 . S
C1725 C1726 1.523 . S
C1726 C1707 1.368 . S
C1726 C1720 1.368 . S
C1726 C1725 1.523 . S
C1727 C1711 1.429 . S
C1727 C1723 1.429 . S
C1727 C1728 1.523 . S
C1728 C1712 1.368 . S
C1728 C1724 1.368 . S
C1728 C1727 1.523 . S
H1729 C1704 0.950 . S
H1730 C1706 0.950 . S
H1731 C1707 0.949 . S
H1732 C1709 0.950 . S
H1733 C1711 0.950 . S
C1734 C1735 1.349 . S
C1734 C1736 1.327 . S
C1734 H1759 0.950 . S
C1735 C1734 1.349 . S
C1735 C1751 1.349 . S
C1736 C1734 1.327 . S
C1736 C1755 1.429 . S
C1736 H1760 0.950 . S
C1737 C1754 1.574 . S
C1737 C1756 1.368 . S
C1737 H1761 0.949 . S
H1738 C1742 0.949 . S
C1739 C1740 1.349 . S
C1739 C1741 1.327 . S
C1739 H1762 0.950 . S
C1740 C1739 1.349 . S
C1740 C1752 1.349 . S
C1741 C1739 1.327 . S
C1741 C1757 1.429 . S
C1741 H1763 0.950 . S
C1742 H1738 0.949 . S
C1742 C1750 1.574 . S
C1742 C1758 1.368 . S
H1743 C1751 0.950 . S
H1744 C1749 0.950 . S
H1745 C1750 0.949 . S
H1746 C1752 0.950 . S
H1747 C1753 0.950 . S
H1748 C1754 0.949 . S
C1749 H1744 0.950 . S
C1749 C1751 1.327 . S
C1749 C1755 1.429 . S
C1750 C1742 1.574 . S
C1750 H1745 0.949 . S
C1750 C1756 1.368 . S
C1751 C1735 1.349 . S
C1751 H1743 0.950 . S
C1751 C1749 1.327 . S
C1752 C1740 1.349 . S
C1752 H1746 0.950 . S
C1752 C1753 1.327 . S
C1753 H1747 0.950 . S
C1753 C1752 1.327 . S
C1753 C1757 1.429 . S
C1754 C1737 1.574 . S
C1754 H1748 0.949 . S
C1754 C1758 1.368 . S
C1755 C1736 1.429 . S
C1755 C1749 1.429 . S
C1755 C1756 1.523 . S
C1756 C1737 1.368 . S
C1756 C1750 1.368 . S
C1756 C1755 1.523 . S
C1757 C1741 1.429 . S
C1757 C1753 1.429 . S
C1757 C1758 1.523 . S
C1758 C1742 1.368 . S
C1758 C1754 1.368 . S
C1758 C1757 1.523 . S
H1759 C1734 0.950 . S
H1760 C1736 0.950 . S
H1761 C1737 0.949 . S
H1762 C1739 0.950 . S
H1763 C1741 0.950 . S
C1764 C1765 1.349 . S
C1764 C1766 1.327 . S
C1764 H1789 0.950 . S
C1765 C1764 1.349 . S
C1765 C1781 1.349 . S
C1766 C1764 1.327 . S
C1766 C1785 1.429 . S
C1766 H1790 0.950 . S
C1767 C1784 1.574 1_455 S
C1767 C1786 1.368 . S
C1767 H1791 0.949 . S
H1768 C1772 0.949 . S
C1769 C1770 1.349 . S
C1769 C1771 1.327 . S
C1769 H1792 0.950 . S
C1770 C1769 1.349 . S
C1770 C1782 1.349 . S
C1771 C1769 1.327 . S
C1771 C1787 1.429 . S
C1771 H1793 0.950 . S
C1772 H1768 0.949 . S
C1772 C1780 1.574 1_655 S
C1772 C1788 1.368 . S
H1773 C1781 0.950 . S
H1774 C1779 0.950 . S
H1775 C1780 0.949 . S
H1776 C1782 0.950 . S
H1777 C1783 0.950 . S
H1778 C1784 0.949 . S
C1779 H1774 0.950 . S
C1779 C1781 1.327 . S
C1779 C1785 1.429 . S
C1780 C1772 1.574 1_455 S
C1780 H1775 0.949 . S
C1780 C1786 1.368 . S
C1781 C1765 1.349 . S
C1781 H1773 0.950 . S
C1781 C1779 1.327 . S
C1782 C1770 1.349 . S
C1782 H1776 0.950 . S
C1782 C1783 1.327 . S
C1783 H1777 0.950 . S
C1783 C1782 1.327 . S
C1783 C1787 1.429 . S
C1784 C1767 1.574 1_655 S
C1784 H1778 0.949 . S
C1784 C1788 1.368 . S
C1785 C1766 1.429 . S
C1785 C1779 1.429 . S
C1785 C1786 1.523 . S
C1786 C1767 1.368 . S
C1786 C1780 1.368 . S
C1786 C1785 1.523 . S
C1787 C1771 1.429 . S
C1787 C1783 1.429 . S
C1787 C1788 1.523 . S
C1788 C1772 1.368 . S
C1788 C1784 1.368 . S
C1788 C1787 1.523 . S
H1789 C1764 0.950 . S
H1790 C1766 0.950 . S
H1791 C1767 0.949 . S
H1792 C1769 0.950 . S
H1793 C1771 0.950 . S
C1794 C1795 1.349 . S
C1794 C1796 1.327 . S
C1794 H1819 0.950 . S
C1795 C1794 1.349 . S
C1795 C1811 1.349 1_554 S
C1796 C1794 1.327 . S
C1796 C1815 1.429 . S
C1796 H1820 0.950 . S
C1797 C1814 1.574 . S
C1797 C1816 1.368 1_556 S
C1797 H1821 0.949 . S
H1798 C1802 0.949 . S
C1799 C1800 1.349 . S
C1799 C1801 1.327 . S
C1799 H1822 0.950 . S
C1800 C1799 1.349 . S
C1800 C1812 1.349 1_556 S
C1801 C1799 1.327 . S
C1801 C1817 1.429 . S
C1801 H1823 0.950 . S
C1802 H1798 0.949 . S
C1802 C1810 1.574 . S
C1802 C1818 1.368 1_554 S
H1803 C1811 0.950 . S
H1804 C1809 0.950 . S
H1805 C1810 0.949 . S
H1806 C1812 0.950 . S
H1807 C1813 0.950 . S
H1808 C1814 0.949 . S
C1809 H1804 0.950 . S
C1809 C1811 1.327 . S
C1809 C1815 1.429 1_556 S
C1810 C1802 1.574 . S
C1810 H1805 0.949 . S
C1810 C1816 1.368 . S
C1811 C1795 1.349 1_556 S
C1811 H1803 0.950 . S
C1811 C1809 1.327 . S
C1812 C1800 1.349 1_554 S
C1812 H1806 0.950 . S
C1812 C1813 1.327 . S
C1813 H1807 0.950 . S
C1813 C1812 1.327 . S
C1813 C1817 1.429 1_554 S
C1814 C1797 1.574 . S
C1814 H1808 0.949 . S
C1814 C1818 1.368 . S
C1815 C1796 1.429 . S
C1815 C1809 1.429 1_554 S
C1815 C1816 1.523 . S
C1816 C1797 1.368 1_554 S
C1816 C1810 1.368 . S
C1816 C1815 1.523 . S
C1817 C1801 1.429 . S
C1817 C1813 1.429 1_556 S
C1817 C1818 1.523 . S
C1818 C1802 1.368 1_556 S
C1818 C1814 1.368 . S
C1818 C1817 1.523 . S
H1819 C1794 0.950 . S
H1820 C1796 0.950 . S
H1821 C1797 0.949 . S
H1822 C1799 0.950 . S
H1823 C1801 0.950 . S
C1824 C1825 1.349 . S
C1824 C1826 1.327 . S
C1824 H1849 0.950 . S
C1825 C1824 1.349 . S
C1825 C1841 1.349 . S
C1826 C1824 1.327 . S
C1826 C1845 1.429 . S
C1826 H1850 0.950 . S
C1827 C1844 1.574 . S
C1827 C1846 1.368 . S
C1827 H1851 0.949 . S
H1828 C1832 0.949 . S
C1829 C1830 1.349 . S
C1829 C1831 1.327 . S
C1829 H1852 0.950 . S
C1830 C1829 1.349 . S
C1830 C1842 1.349 . S
C1831 C1829 1.327 . S
C1831 C1847 1.429 . S
C1831 H1853 0.950 . S
C1832 H1828 0.949 . S
C1832 C1840 1.574 . S
C1832 C1848 1.368 . S
H1833 C1841 0.950 . S
H1834 C1839 0.950 . S
H1835 C1840 0.949 . S
H1836 C1842 0.950 . S
H1837 C1843 0.950 . S
H1838 C1844 0.949 . S
C1839 H1834 0.950 . S
C1839 C1841 1.327 . S
C1839 C1845 1.429 . S
C1840 C1832 1.574 . S
C1840 H1835 0.949 . S
C1840 C1846 1.368 . S
C1841 C1825 1.349 . S
C1841 H1833 0.950 . S
C1841 C1839 1.327 . S
C1842 C1830 1.349 . S
C1842 H1836 0.950 . S
C1842 C1843 1.327 . S
C1843 H1837 0.950 . S
C1843 C1842 1.327 . S
C1843 C1847 1.429 . S
C1844 C1827 1.574 . S
C1844 H1838 0.949 . S
C1844 C1848 1.368 . S
C1845 C1826 1.429 . S
C1845 C1839 1.429 . S
C1845 C1846 1.523 . S
C1846 C1827 1.368 . S
C1846 C1840 1.368 . S
C1846 C1845 1.523 . S
C1847 C1831 1.429 . S
C1847 C1843 1.429 . S
C1847 C1848 1.523 . S
C1848 C1832 1.368 . S
C1848 C1844 1.368 . S
C1848 C1847 1.523 . S
H1849 C1824 0.950 . S
H1850 C1826 0.950 . S
H1851 C1827 0.949 . S
H1852 C1829 0.950 . S
H1853 C1831 0.950 . S
C1854 C1855 1.349 . S
C1854 C1856 1.327 . S
C1854 H1879 0.950 . S
C1855 C1854 1.349 . S
C1855 C1871 1.349 . S
C1856 C1854 1.327 . S
C1856 C1875 1.429 . S
C1856 H1880 0.950 . S
C1857 C1874 1.574 . S
C1857 C1876 1.368 . S
C1857 H1881 0.949 . S
H1858 C1862 0.949 . S
C1859 C1860 1.349 . S
C1859 C1861 1.327 . S
C1859 H1882 0.950 . S
C1860 C1859 1.349 . S
C1860 C1872 1.349 . S
C1861 C1859 1.327 . S
C1861 C1877 1.429 . S
C1861 H1883 0.950 . S
C1862 H1858 0.949 . S
C1862 C1870 1.574 . S
C1862 C1878 1.368 . S
H1863 C1871 0.950 . S
H1864 C1869 0.950 . S
H1865 C1870 0.949 . S
H1866 C1872 0.950 . S
H1867 C1873 0.950 . S
H1868 C1874 0.949 . S
C1869 H1864 0.950 . S
C1869 C1871 1.327 . S
C1869 C1875 1.429 . S
C1870 C1862 1.574 . S
C1870 H1865 0.949 . S
C1870 C1876 1.368 . S
C1871 C1855 1.349 . S
C1871 H1863 0.950 . S
C1871 C1869 1.327 . S
C1872 C1860 1.349 . S
C1872 H1866 0.950 . S
C1872 C1873 1.327 . S
C1873 H1867 0.950 . S
C1873 C1872 1.327 . S
C1873 C1877 1.429 . S
C1874 C1857 1.574 . S
C1874 H1868 0.949 . S
C1874 C1878 1.368 . S
C1875 C1856 1.429 . S
C1875 C1869 1.429 . S
C1875 C1876 1.523 . S
C1876 C1857 1.368 . S
C1876 C1870 1.368 . S
C1876 C1875 1.523 . S
C1877 C1861 1.429 . S
C1877 C1873 1.429 . S
C1877 C1878 1.523 . S
C1878 C1862 1.368 . S
C1878 C1874 1.368 . S
C1878 C1877 1.523 . S
H1879 C1854 0.950 . S
H1880 C1856 0.950 . S
H1881 C1857 0.949 . S
H1882 C1859 0.950 . S
H1883 C1861 0.950 . S
C1884 C1885 1.349 . S
C1884 C1886 1.327 . S
C1884 H1909 0.950 . S
C1885 C1884 1.349 . S
C1885 C1901 1.349 . S
C1886 C1884 1.327 . S
C1886 C1905 1.429 . S
C1886 H1910 0.950 . S
C1887 C1904 1.574 . S
C1887 C1906 1.368 . S
C1887 H1911 0.949 . S
H1888 C1892 0.949 . S
C1889 C1890 1.349 . S
C1889 C1891 1.327 . S
C1889 H1912 0.950 . S
C1890 C1889 1.349 . S
C1890 C1902 1.349 . S
C1891 C1889 1.327 . S
C1891 C1907 1.429 . S
C1891 H1913 0.950 . S
C1892 H1888 0.949 . S
C1892 C1900 1.574 . S
C1892 C1908 1.368 . S
H1893 C1901 0.950 . S
H1894 C1899 0.950 . S
H1895 C1900 0.949 . S
H1896 C1902 0.950 . S
H1897 C1903 0.950 . S
H1898 C1904 0.949 . S
C1899 H1894 0.950 . S
C1899 C1901 1.327 . S
C1899 C1905 1.429 . S
C1900 C1892 1.574 . S
C1900 H1895 0.949 . S
C1900 C1906 1.368 . S
C1901 C1885 1.349 . S
C1901 H1893 0.950 . S
C1901 C1899 1.327 . S
C1902 C1890 1.349 . S
C1902 H1896 0.950 . S
C1902 C1903 1.327 . S
C1903 H1897 0.950 . S
C1903 C1902 1.327 . S
C1903 C1907 1.429 . S
C1904 C1887 1.574 . S
C1904 H1898 0.949 . S
C1904 C1908 1.368 . S
C1905 C1886 1.429 . S
C1905 C1899 1.429 . S
C1905 C1906 1.523 . S
C1906 C1887 1.368 . S
C1906 C1900 1.368 . S
C1906 C1905 1.523 . S
C1907 C1891 1.429 . S
C1907 C1903 1.429 . S
C1907 C1908 1.523 . S
C1908 C1892 1.368 . S
C1908 C1904 1.368 . S
C1908 C1907 1.523 . S
H1909 C1884 0.950 . S
H1910 C1886 0.950 . S
H1911 C1887 0.949 . S
H1912 C1889 0.950 . S
H1913 C1891 0.950 . S
C1914 C1915 1.349 . S
C1914 C1916 1.327 . S
C1914 H1939 0.950 . S
C1915 C1914 1.349 . S
C1915 C1931 1.349 . S
C1916 C1914 1.327 . S
C1916 C1935 1.429 . S
C1916 H1940 0.950 . S
C1917 C1934 1.574 . S
C1917 C1936 1.368 . S
C1917 H1941 0.949 . S
H1918 C1922 0.949 . S
C1919 C1920 1.349 . S
C1919 C1921 1.327 . S
C1919 H1942 0.950 . S
C1920 C1919 1.349 . S
C1920 C1932 1.349 . S
C1921 C1919 1.327 . S
C1921 C1937 1.429 . S
C1921 H1943 0.950 . S
C1922 H1918 0.949 . S
C1922 C1930 1.574 . S
C1922 C1938 1.368 . S
H1923 C1931 0.950 . S
H1924 C1929 0.950 . S
H1925 C1930 0.949 . S
H1926 C1932 0.950 . S
H1927 C1933 0.950 . S
H1928 C1934 0.949 . S
C1929 H1924 0.950 . S
C1929 C1931 1.327 . S
C1929 C1935 1.429 . S
C1930 C1922 1.574 . S
C1930 H1925 0.949 . S
C1930 C1936 1.368 . S
C1931 C1915 1.349 . S
C1931 H1923 0.950 . S
C1931 C1929 1.327 . S
C1932 C1920 1.349 . S
C1932 H1926 0.950 . S
C1932 C1933 1.327 . S
C1933 H1927 0.950 . S
C1933 C1932 1.327 . S
C1933 C1937 1.429 . S
C1934 C1917 1.574 . S
C1934 H1928 0.949 . S
C1934 C1938 1.368 . S
C1935 C1916 1.429 . S
C1935 C1929 1.429 . S
C1935 C1936 1.523 . S
C1936 C1917 1.368 . S
C1936 C1930 1.368 . S
C1936 C1935 1.523 . S
C1937 C1921 1.429 . S
C1937 C1933 1.429 . S
C1937 C1938 1.523 . S
C1938 C1922 1.368 . S
C1938 C1934 1.368 . S
C1938 C1937 1.523 . S
H1939 C1914 0.950 . S
H1940 C1916 0.950 . S
H1941 C1917 0.949 . S
H1942 C1919 0.950 . S
H1943 C1921 0.950 . S
C1944 C1945 1.349 . S
C1944 C1946 1.327 . S
C1944 H1969 0.950 . S
C1945 C1944 1.349 . S
C1945 C1961 1.349 . S
C1946 C1944 1.327 . S
C1946 C1965 1.429 . S
C1946 H1970 0.950 . S
C1947 C1964 1.574 . S
C1947 C1966 1.368 . S
C1947 H1971 0.949 . S
H1948 C1952 0.949 . S
C1949 C1950 1.349 . S
C1949 C1951 1.327 . S
C1949 H1972 0.950 . S
C1950 C1949 1.349 . S
C1950 C1962 1.349 . S
C1951 C1949 1.327 . S
C1951 C1967 1.429 . S
C1951 H1973 0.950 . S
C1952 H1948 0.949 . S
C1952 C1960 1.574 . S
C1952 C1968 1.368 . S
H1953 C1961 0.950 . S
H1954 C1959 0.950 . S
H1955 C1960 0.949 . S
H1956 C1962 0.950 . S
H1957 C1963 0.950 . S
H1958 C1964 0.949 . S
C1959 H1954 0.950 . S
C1959 C1961 1.327 . S
C1959 C1965 1.429 . S
C1960 C1952 1.574 . S
C1960 H1955 0.949 . S
C1960 C1966 1.368 . S
C1961 C1945 1.349 . S
C1961 H1953 0.950 . S
C1961 C1959 1.327 . S
C1962 C1950 1.349 . S
C1962 H1956 0.950 . S
C1962 C1963 1.327 . S
C1963 H1957 0.950 . S
C1963 C1962 1.327 . S
C1963 C1967 1.429 . S
C1964 C1947 1.574 . S
C1964 H1958 0.949 . S
C1964 C1968 1.368 . S
C1965 C1946 1.429 . S
C1965 C1959 1.429 . S
C1965 C1966 1.523 . S
C1966 C1947 1.368 . S
C1966 C1960 1.368 . S
C1966 C1965 1.523 . S
C1967 C1951 1.429 . S
C1967 C1963 1.429 . S
C1967 C1968 1.523 . S
C1968 C1952 1.368 . S
C1968 C1964 1.368 . S
C1968 C1967 1.523 . S
H1969 C1944 0.950 . S
H1970 C1946 0.950 . S
H1971 C1947 0.949 . S
H1972 C1949 0.950 . S
H1973 C1951 0.950 . S
C1974 C1975 1.349 . S
C1974 C1976 1.327 . S
C1974 H1999 0.950 . S
C1975 C1974 1.349 . S
C1975 C1991 1.349 . S
C1976 C1974 1.327 . S
C1976 C1995 1.429 . S
C1976 H2000 0.950 . S
C1977 C1994 1.574 . S
C1977 C1996 1.368 . S
C1977 H2001 0.949 . S
H1978 C1982 0.949 . S
C1979 C1980 1.349 . S
C1979 C1981 1.327 . S
C1979 H2002 0.950 . S
C1980 C1979 1.349 . S
C1980 C1992 1.349 . S
C1981 C1979 1.327 . S
C1981 C1997 1.429 . S
C1981 H2003 0.950 . S
C1982 H1978 0.949 . S
C1982 C1990 1.574 . S
C1982 C1998 1.368 . S
H1983 C1991 0.950 . S
H1984 C1989 0.950 . S
H1985 C1990 0.949 . S
H1986 C1992 0.950 . S
H1987 C1993 0.950 . S
H1988 C1994 0.949 . S
C1989 H1984 0.950 . S
C1989 C1991 1.327 . S
C1989 C1995 1.429 . S
C1990 C1982 1.574 . S
C1990 H1985 0.949 . S
C1990 C1996 1.368 . S
C1991 C1975 1.349 . S
C1991 H1983 0.950 . S
C1991 C1989 1.327 . S
C1992 C1980 1.349 . S
C1992 H1986 0.950 . S
C1992 C1993 1.327 . S
C1993 H1987 0.950 . S
C1993 C1992 1.327 . S
C1993 C1997 1.429 . S
C1994 C1977 1.574 . S
C1994 H1988 0.949 . S
C1994 C1998 1.368 . S
C1995 C1976 1.429 . S
C1995 C1989 1.429 . S
C1995 C1996 1.523 . S
C1996 C1977 1.368 . S
C1996 C1990 1.368 . S
C1996 C1995 1.523 . S
C1997 C1981 1.429 . S
C1997 C1993 1.429 . S
C1997 C1998 1.523 . S
C1998 C1982 1.368 . S
C1998 C1994 1.368 . S
C1998 C1997 1.523 . S
H1999 C1974 0.950 . S
H2000 C1976 0.950 . S
H2001 C1977 0.949 . S
H2002 C1979 0.950 . S
H2003 C1981 0.950 . S
C2004 C2005 1.349 . S
C2004 C2006 1.327 . S
C2004 H2029 0.950 . S
C2005 C2004 1.349 . S
C2005 C2021 1.349 . S
C2006 C2004 1.327 . S
C2006 C2025 1.429 . S
C2006 H2030 0.950 . S
C2007 C2024 1.574 . S
C2007 C2026 1.368 . S
C2007 H2031 0.949 . S
H2008 C2012 0.949 . S
C2009 C2010 1.349 . S
C2009 C2011 1.327 . S
C2009 H2032 0.950 . S
C2010 C2009 1.349 . S
C2010 C2022 1.349 . S
C2011 C2009 1.327 . S
C2011 C2027 1.429 . S
C2011 H2033 0.950 . S
C2012 H2008 0.949 . S
C2012 C2020 1.574 . S
C2012 C2028 1.368 . S
H2013 C2021 0.950 . S
H2014 C2019 0.950 . S
H2015 C2020 0.949 . S
H2016 C2022 0.950 . S
H2017 C2023 0.950 . S
H2018 C2024 0.949 . S
C2019 H2014 0.950 . S
C2019 C2021 1.327 . S
C2019 C2025 1.429 . S
C2020 C2012 1.574 . S
C2020 H2015 0.949 . S
C2020 C2026 1.368 . S
C2021 C2005 1.349 . S
C2021 H2013 0.950 . S
C2021 C2019 1.327 . S
C2022 C2010 1.349 . S
C2022 H2016 0.950 . S
C2022 C2023 1.327 . S
C2023 H2017 0.950 . S
C2023 C2022 1.327 . S
C2023 C2027 1.429 . S
C2024 C2007 1.574 . S
C2024 H2018 0.949 . S
C2024 C2028 1.368 . S
C2025 C2006 1.429 . S
C2025 C2019 1.429 . S
C2025 C2026 1.523 . S
C2026 C2007 1.368 . S
C2026 C2020 1.368 . S
C2026 C2025 1.523 . S
C2027 C2011 1.429 . S
C2027 C2023 1.429 . S
C2027 C2028 1.523 . S
C2028 C2012 1.368 . S
C2028 C2024 1.368 . S
C2028 C2027 1.523 . S
H2029 C2004 0.950 . S
H2030 C2006 0.950 . S
H2031 C2007 0.949 . S
H2032 C2009 0.950 . S
H2033 C2011 0.950 . S
C2034 C2035 1.349 . S
C2034 C2036 1.327 . S
C2034 H2059 0.950 . S
C2035 C2034 1.349 . S
C2035 C2051 1.349 . S
C2036 C2034 1.327 . S
C2036 C2055 1.429 . S
C2036 H2060 0.950 . S
C2037 C2054 1.574 . S
C2037 C2056 1.368 . S
C2037 H2061 0.949 . S
H2038 C2042 0.949 . S
C2039 C2040 1.349 . S
C2039 C2041 1.327 . S
C2039 H2062 0.950 . S
C2040 C2039 1.349 . S
C2040 C2052 1.349 . S
C2041 C2039 1.327 . S
C2041 C2057 1.429 . S
C2041 H2063 0.950 . S
C2042 H2038 0.949 . S
C2042 C2050 1.574 . S
C2042 C2058 1.368 . S
H2043 C2051 0.950 . S
H2044 C2049 0.950 . S
H2045 C2050 0.949 . S
H2046 C2052 0.950 . S
H2047 C2053 0.950 . S
H2048 C2054 0.949 . S
C2049 H2044 0.950 . S
C2049 C2051 1.327 . S
C2049 C2055 1.429 . S
C2050 C2042 1.574 . S
C2050 H2045 0.949 . S
C2050 C2056 1.368 . S
C2051 C2035 1.349 . S
C2051 H2043 0.950 . S
C2051 C2049 1.327 . S
C2052 C2040 1.349 . S
C2052 H2046 0.950 . S
C2052 C2053 1.327 . S
C2053 H2047 0.950 . S
C2053 C2052 1.327 . S
C2053 C2057 1.429 . S
C2054 C2037 1.574 . S
C2054 H2048 0.949 . S
C2054 C2058 1.368 . S
C2055 C2036 1.429 . S
C2055 C2049 1.429 . S
C2055 C2056 1.523 . S
C2056 C2037 1.368 . S
C2056 C2050 1.368 . S
C2056 C2055 1.523 . S
C2057 C2041 1.429 . S
C2057 C2053 1.429 . S
C2057 C2058 1.523 . S
C2058 C2042 1.368 . S
C2058 C2054 1.368 . S
C2058 C2057 1.523 . S
H2059 C2034 0.950 . S
H2060 C2036 0.950 . S
H2061 C2037 0.949 . S
H2062 C2039 0.950 . S
H2063 C2041 0.950 . S
C2064 C2065 1.349 . S
C2064 C2066 1.327 . S
C2064 H2089 0.950 . S
C2065 C2064 1.349 . S
C2065 C2081 1.349 . S
C2066 C2064 1.327 . S
C2066 C2085 1.429 . S
C2066 H2090 0.950 . S
C2067 C2084 1.574 . S
C2067 C2086 1.368 . S
C2067 H2091 0.949 . S
H2068 C2072 0.949 . S
C2069 C2070 1.349 . S
C2069 C2071 1.327 . S
C2069 H2092 0.950 . S
C2070 C2069 1.349 . S
C2070 C2082 1.349 . S
C2071 C2069 1.327 . S
C2071 C2087 1.429 . S
C2071 H2093 0.950 . S
C2072 H2068 0.949 . S
C2072 C2080 1.574 . S
C2072 C2088 1.368 . S
H2073 C2081 0.950 . S
H2074 C2079 0.950 . S
H2075 C2080 0.949 . S
H2076 C2082 0.950 . S
H2077 C2083 0.950 . S
H2078 C2084 0.949 . S
C2079 H2074 0.950 . S
C2079 C2081 1.327 . S
C2079 C2085 1.429 . S
C2080 C2072 1.574 . S
C2080 H2075 0.949 . S
C2080 C2086 1.368 . S
C2081 C2065 1.349 . S
C2081 H2073 0.950 . S
C2081 C2079 1.327 . S
C2082 C2070 1.349 . S
C2082 H2076 0.950 . S
C2082 C2083 1.327 . S
C2083 H2077 0.950 . S
C2083 C2082 1.327 . S
C2083 C2087 1.429 . S
C2084 C2067 1.574 . S
C2084 H2078 0.949 . S
C2084 C2088 1.368 . S
C2085 C2066 1.429 . S
C2085 C2079 1.429 . S
C2085 C2086 1.523 . S
C2086 C2067 1.368 . S
C2086 C2080 1.368 . S
C2086 C2085 1.523 . S
C2087 C2071 1.429 . S
C2087 C2083 1.429 . S
C2087 C2088 1.523 . S
C2088 C2072 1.368 . S
C2088 C2084 1.368 . S
C2088 C2087 1.523 . S
H2089 C2064 0.950 . S
H2090 C2066 0.950 . S
H2091 C2067 0.949 . S
H2092 C2069 0.950 . S
H2093 C2071 0.950 . S
C2094 C2095 1.349 . S
C2094 C2096 1.327 . S
C2094 H2119 0.950 . S
C2095 C2094 1.349 . S
C2095 C2111 1.349 . S
C2096 C2094 1.327 . S
C2096 C2115 1.429 . S
C2096 H2120 0.950 . S
C2097 C2114 1.574 . S
C2097 C2116 1.368 . S
C2097 H2121 0.949 . S
H2098 C2102 0.949 . S
C2099 C2100 1.349 . S
C2099 C2101 1.327 . S
C2099 H2122 0.950 . S
C2100 C2099 1.349 . S
C2100 C2112 1.349 . S
C2101 C2099 1.327 . S
C2101 C2117 1.429 . S
C2101 H2123 0.950 . S
C2102 H2098 0.949 . S
C2102 C2110 1.574 . S
C2102 C2118 1.368 . S
H2103 C2111 0.950 . S
H2104 C2109 0.950 . S
H2105 C2110 0.949 . S
H2106 C2112 0.950 . S
H2107 C2113 0.950 . S
H2108 C2114 0.949 . S
C2109 H2104 0.950 . S
C2109 C2111 1.327 . S
C2109 C2115 1.429 . S
C2110 C2102 1.574 . S
C2110 H2105 0.949 . S
C2110 C2116 1.368 . S
C2111 C2095 1.349 . S
C2111 H2103 0.950 . S
C2111 C2109 1.327 . S
C2112 C2100 1.349 . S
C2112 H2106 0.950 . S
C2112 C2113 1.327 . S
C2113 H2107 0.950 . S
C2113 C2112 1.327 . S
C2113 C2117 1.429 . S
C2114 C2097 1.574 . S
C2114 H2108 0.949 . S
C2114 C2118 1.368 . S
C2115 C2096 1.429 . S
C2115 C2109 1.429 . S
C2115 C2116 1.523 . S
C2116 C2097 1.368 . S
C2116 C2110 1.368 . S
C2116 C2115 1.523 . S
C2117 C2101 1.429 . S
C2117 C2113 1.429 . S
C2117 C2118 1.523 . S
C2118 C2102 1.368 . S
C2118 C2114 1.368 . S
C2118 C2117 1.523 . S
H2119 C2094 0.950 . S
H2120 C2096 0.950 . S
H2121 C2097 0.949 . S
H2122 C2099 0.950 . S
H2123 C2101 0.950 . S
C2124 C2125 1.349 . S
C2124 C2126 1.327 . S
C2124 H2149 0.950 . S
C2125 C2124 1.349 . S
C2125 C2141 1.349 . S
C2126 C2124 1.327 . S
C2126 C2145 1.429 . S
C2126 H2150 0.950 . S
C2127 C2144 1.574 . S
C2127 C2146 1.368 . S
C2127 H2151 0.949 . S
H2128 C2132 0.949 . S
C2129 C2130 1.349 . S
C2129 C2131 1.327 . S
C2129 H2152 0.950 . S
C2130 C2129 1.349 . S
C2130 C2142 1.349 . S
C2131 C2129 1.327 . S
C2131 C2147 1.429 . S
C2131 H2153 0.950 . S
C2132 H2128 0.949 . S
C2132 C2140 1.574 . S
C2132 C2148 1.368 . S
H2133 C2141 0.950 . S
H2134 C2139 0.950 . S
H2135 C2140 0.949 . S
H2136 C2142 0.950 . S
H2137 C2143 0.950 . S
H2138 C2144 0.949 . S
C2139 H2134 0.950 . S
C2139 C2141 1.327 . S
C2139 C2145 1.429 . S
C2140 C2132 1.574 . S
C2140 H2135 0.949 . S
C2140 C2146 1.368 . S
C2141 C2125 1.349 . S
C2141 H2133 0.950 . S
C2141 C2139 1.327 . S
C2142 C2130 1.349 . S
C2142 H2136 0.950 . S
C2142 C2143 1.327 . S
C2143 H2137 0.950 . S
C2143 C2142 1.327 . S
C2143 C2147 1.429 . S
C2144 C2127 1.574 . S
C2144 H2138 0.949 . S
C2144 C2148 1.368 . S
C2145 C2126 1.429 . S
C2145 C2139 1.429 . S
C2145 C2146 1.523 . S
C2146 C2127 1.368 . S
C2146 C2140 1.368 . S
C2146 C2145 1.523 . S
C2147 C2131 1.429 . S
C2147 C2143 1.429 . S
C2147 C2148 1.523 . S
C2148 C2132 1.368 . S
C2148 C2144 1.368 . S
C2148 C2147 1.523 . S
H2149 C2124 0.950 . S
H2150 C2126 0.950 . S
H2151 C2127 0.949 . S
H2152 C2129 0.950 . S
H2153 C2131 0.950 . S
C2154 C2155 1.349 . S
C2154 C2156 1.327 . S
C2154 H2179 0.950 . S
C2155 C2154 1.349 . S
C2155 C2171 1.349 . S
C2156 C2154 1.327 . S
C2156 C2175 1.429 . S
C2156 H2180 0.950 . S
C2157 C2174 1.574 . S
C2157 C2176 1.368 . S
C2157 H2181 0.949 . S
H2158 C2162 0.949 . S
C2159 C2160 1.349 . S
C2159 C2161 1.327 . S
C2159 H2182 0.950 . S
C2160 C2159 1.349 . S
C2160 C2172 1.349 . S
C2161 C2159 1.327 . S
C2161 C2177 1.429 . S
C2161 H2183 0.950 . S
C2162 H2158 0.949 . S
C2162 C2170 1.574 . S
C2162 C2178 1.368 . S
H2163 C2171 0.950 . S
H2164 C2169 0.950 . S
H2165 C2170 0.949 . S
H2166 C2172 0.950 . S
H2167 C2173 0.950 . S
H2168 C2174 0.949 . S
C2169 H2164 0.950 . S
C2169 C2171 1.327 . S
C2169 C2175 1.429 . S
C2170 C2162 1.574 . S
C2170 H2165 0.949 . S
C2170 C2176 1.368 . S
C2171 C2155 1.349 . S
C2171 H2163 0.950 . S
C2171 C2169 1.327 . S
C2172 C2160 1.349 . S
C2172 H2166 0.950 . S
C2172 C2173 1.327 . S
C2173 H2167 0.950 . S
C2173 C2172 1.327 . S
C2173 C2177 1.429 . S
C2174 C2157 1.574 . S
C2174 H2168 0.949 . S
C2174 C2178 1.368 . S
C2175 C2156 1.429 . S
C2175 C2169 1.429 . S
C2175 C2176 1.523 . S
C2176 C2157 1.368 . S
C2176 C2170 1.368 . S
C2176 C2175 1.523 . S
C2177 C2161 1.429 . S
C2177 C2173 1.429 . S
C2177 C2178 1.523 . S
C2178 C2162 1.368 . S
C2178 C2174 1.368 . S
C2178 C2177 1.523 . S
H2179 C2154 0.950 . S
H2180 C2156 0.950 . S
H2181 C2157 0.949 . S
H2182 C2159 0.950 . S
H2183 C2161 0.950 . S
C2184 C2185 1.349 . S
C2184 C2186 1.327 . S
C2184 H2209 0.950 . S
C2185 C2184 1.349 . S
C2185 C2201 1.349 . S
C2186 C2184 1.327 . S
C2186 C2205 1.429 . S
C2186 H2210 0.950 . S
C2187 C2204 1.574 . S
C2187 C2206 1.368 . S
C2187 H2211 0.949 . S
H2188 C2192 0.949 . S
C2189 C2190 1.349 . S
C2189 C2191 1.327 . S
C2189 H2212 0.950 . S
C2190 C2189 1.349 . S
C2190 C2202 1.349 . S
C2191 C2189 1.327 . S
C2191 C2207 1.429 . S
C2191 H2213 0.950 . S
C2192 H2188 0.949 . S
C2192 C2200 1.574 . S
C2192 C2208 1.368 . S
H2193 C2201 0.950 . S
H2194 C2199 0.950 . S
H2195 C2200 0.949 . S
H2196 C2202 0.950 . S
H2197 C2203 0.950 . S
H2198 C2204 0.949 . S
C2199 H2194 0.950 . S
C2199 C2201 1.327 . S
C2199 C2205 1.429 . S
C2200 C2192 1.574 . S
C2200 H2195 0.949 . S
C2200 C2206 1.368 . S
C2201 C2185 1.349 . S
C2201 H2193 0.950 . S
C2201 C2199 1.327 . S
C2202 C2190 1.349 . S
C2202 H2196 0.950 . S
C2202 C2203 1.327 . S
C2203 H2197 0.950 . S
C2203 C2202 1.327 . S
C2203 C2207 1.429 . S
C2204 C2187 1.574 . S
C2204 H2198 0.949 . S
C2204 C2208 1.368 . S
C2205 C2186 1.429 . S
C2205 C2199 1.429 . S
C2205 C2206 1.523 . S
C2206 C2187 1.368 . S
C2206 C2200 1.368 . S
C2206 C2205 1.523 . S
C2207 C2191 1.429 . S
C2207 C2203 1.429 . S
C2207 C2208 1.523 . S
C2208 C2192 1.368 . S
C2208 C2204 1.368 . S
C2208 C2207 1.523 . S
H2209 C2184 0.950 . S
H2210 C2186 0.950 . S
H2211 C2187 0.949 . S
H2212 C2189 0.950 . S
H2213 C2191 0.950 . S
C2214 C2215 1.349 . S
C2214 C2216 1.327 . S
C2214 H2239 0.950 . S
C2215 C2214 1.349 . S
C2215 C2231 1.349 . S
C2216 C2214 1.327 . S
C2216 C2235 1.429 . S
C2216 H2240 0.950 . S
C2217 C2234 1.574 . S
C2217 C2236 1.368 . S
C2217 H2241 0.949 . S
H2218 C2222 0.949 . S
C2219 C2220 1.349 . S
C2219 C2221 1.327 . S
C2219 H2242 0.950 . S
C2220 C2219 1.349 . S
C2220 C2232 1.349 . S
C2221 C2219 1.327 . S
C2221 C2237 1.429 . S
C2221 H2243 0.950 . S
C2222 H2218 0.949 . S
C2222 C2230 1.574 . S
C2222 C2238 1.368 . S
H2223 C2231 0.950 . S
H2224 C2229 0.950 . S
H2225 C2230 0.949 . S
H2226 C2232 0.950 . S
H2227 C2233 0.950 . S
H2228 C2234 0.949 . S
C2229 H2224 0.950 . S
C2229 C2231 1.327 . S
C2229 C2235 1.429 . S
C2230 C2222 1.574 . S
C2230 H2225 0.949 . S
C2230 C2236 1.368 . S
C2231 C2215 1.349 . S
C2231 H2223 0.950 . S
C2231 C2229 1.327 . S
C2232 C2220 1.349 . S
C2232 H2226 0.950 . S
C2232 C2233 1.327 . S
C2233 H2227 0.950 . S
C2233 C2232 1.327 . S
C2233 C2237 1.429 . S
C2234 C2217 1.574 . S
C2234 H2228 0.949 . S
C2234 C2238 1.368 . S
C2235 C2216 1.429 . S
C2235 C2229 1.429 . S
C2235 C2236 1.523 . S
C2236 C2217 1.368 . S
C2236 C2230 1.368 . S
C2236 C2235 1.523 . S
C2237 C2221 1.429 . S
C2237 C2233 1.429 . S
C2237 C2238 1.523 . S
C2238 C2222 1.368 . S
C2238 C2234 1.368 . S
C2238 C2237 1.523 . S
H2239 C2214 0.950 . S
H2240 C2216 0.950 . S
H2241 C2217 0.949 . S
H2242 C2219 0.950 . S
H2243 C2221 0.950 . S
C2244 C2245 1.349 . S
C2244 C2246 1.327 . S
C2244 H2269 0.950 . S
C2245 C2244 1.349 . S
C2245 C2261 1.349 . S
C2246 C2244 1.327 . S
C2246 C2265 1.429 . S
C2246 H2270 0.950 . S
C2247 C2264 1.574 . S
C2247 C2266 1.368 . S
C2247 H2271 0.949 . S
H2248 C2252 0.949 . S
C2249 C2250 1.349 . S
C2249 C2251 1.327 . S
C2249 H2272 0.950 . S
C2250 C2249 1.349 . S
C2250 C2262 1.349 . S
C2251 C2249 1.327 . S
C2251 C2267 1.429 . S
C2251 H2273 0.950 . S
C2252 H2248 0.949 . S
C2252 C2260 1.574 . S
C2252 C2268 1.368 . S
H2253 C2261 0.950 . S
H2254 C2259 0.950 . S
H2255 C2260 0.949 . S
H2256 C2262 0.950 . S
H2257 C2263 0.950 . S
H2258 C2264 0.949 . S
C2259 H2254 0.950 . S
C2259 C2261 1.327 . S
C2259 C2265 1.429 . S
C2260 C2252 1.574 . S
C2260 H2255 0.949 . S
C2260 C2266 1.368 . S
C2261 C2245 1.349 . S
C2261 H2253 0.950 . S
C2261 C2259 1.327 . S
C2262 C2250 1.349 . S
C2262 H2256 0.950 . S
C2262 C2263 1.327 . S
C2263 H2257 0.950 . S
C2263 C2262 1.327 . S
C2263 C2267 1.429 . S
C2264 C2247 1.574 . S
C2264 H2258 0.949 . S
C2264 C2268 1.368 . S
C2265 C2246 1.429 . S
C2265 C2259 1.429 . S
C2265 C2266 1.523 . S
C2266 C2247 1.368 . S
C2266 C2260 1.368 . S
C2266 C2265 1.523 . S
C2267 C2251 1.429 . S
C2267 C2263 1.429 . S
C2267 C2268 1.523 . S
C2268 C2252 1.368 . S
C2268 C2264 1.368 . S
C2268 C2267 1.523 . S
H2269 C2244 0.950 . S
H2270 C2246 0.950 . S
H2271 C2247 0.949 . S
H2272 C2249 0.950 . S
H2273 C2251 0.950 . S
C2274 C2275 1.349 . S
C2274 C2276 1.327 . S
C2274 H2299 0.950 . S
C2275 C2274 1.349 . S
C2275 C2291 1.349 . S
C2276 C2274 1.327 . S
C2276 C2295 1.429 . S
C2276 H2300 0.950 . S
C2277 C2294 1.574 . S
C2277 C2296 1.368 . S
C2277 H2301 0.949 . S
H2278 C2282 0.949 . S
C2279 C2280 1.349 . S
C2279 C2281 1.327 . S
C2279 H2302 0.950 . S
C2280 C2279 1.349 . S
C2280 C2292 1.349 . S
C2281 C2279 1.327 . S
C2281 C2297 1.429 . S
C2281 H2303 0.950 . S
C2282 H2278 0.949 . S
C2282 C2290 1.574 . S
C2282 C2298 1.368 . S
H2283 C2291 0.950 . S
H2284 C2289 0.950 . S
H2285 C2290 0.949 . S
H2286 C2292 0.950 . S
H2287 C2293 0.950 . S
H2288 C2294 0.949 . S
C2289 H2284 0.950 . S
C2289 C2291 1.327 . S
C2289 C2295 1.429 . S
C2290 C2282 1.574 . S
C2290 H2285 0.949 . S
C2290 C2296 1.368 . S
C2291 C2275 1.349 . S
C2291 H2283 0.950 . S
C2291 C2289 1.327 . S
C2292 C2280 1.349 . S
C2292 H2286 0.950 . S
C2292 C2293 1.327 . S
C2293 H2287 0.950 . S
C2293 C2292 1.327 . S
C2293 C2297 1.429 . S
C2294 C2277 1.574 . S
C2294 H2288 0.949 . S
C2294 C2298 1.368 . S
C2295 C2276 1.429 . S
C2295 C2289 1.429 . S
C2295 C2296 1.523 . S
C2296 C2277 1.368 . S
C2296 C2290 1.368 . S
C2296 C2295 1.523 . S
C2297 C2281 1.429 . S
C2297 C2293 1.429 . S
C2297 C2298 1.523 . S
C2298 C2282 1.368 . S
C2298 C2294 1.368 . S
C2298 C2297 1.523 . S
H2299 C2274 0.950 . S
H2300 C2276 0.950 . S
H2301 C2277 0.949 . S
H2302 C2279 0.950 . S
H2303 C2281 0.950 . S
C2304 C2305 1.349 . S
C2304 C2306 1.327 . S
C2304 H2329 0.950 . S
C2305 C2304 1.349 . S
C2305 C2321 1.349 . S
C2306 C2304 1.327 . S
C2306 C2325 1.429 . S
C2306 H2330 0.950 . S
C2307 C2324 1.574 . S
C2307 C2326 1.368 . S
C2307 H2331 0.949 . S
H2308 C2312 0.949 . S
C2309 C2310 1.349 . S
C2309 C2311 1.327 . S
C2309 H2332 0.950 . S
C2310 C2309 1.349 . S
C2310 C2322 1.349 . S
C2311 C2309 1.327 . S
C2311 C2327 1.429 . S
C2311 H2333 0.950 . S
C2312 H2308 0.949 . S
C2312 C2320 1.574 . S
C2312 C2328 1.368 . S
H2313 C2321 0.950 . S
H2314 C2319 0.950 . S
H2315 C2320 0.949 . S
H2316 C2322 0.950 . S
H2317 C2323 0.950 . S
H2318 C2324 0.949 . S
C2319 H2314 0.950 . S
C2319 C2321 1.327 . S
C2319 C2325 1.429 . S
C2320 C2312 1.574 . S
C2320 H2315 0.949 . S
C2320 C2326 1.368 . S
C2321 C2305 1.349 . S
C2321 H2313 0.950 . S
C2321 C2319 1.327 . S
C2322 C2310 1.349 . S
C2322 H2316 0.950 . S
C2322 C2323 1.327 . S
C2323 H2317 0.950 . S
C2323 C2322 1.327 . S
C2323 C2327 1.429 . S
C2324 C2307 1.574 . S
C2324 H2318 0.949 . S
C2324 C2328 1.368 . S
C2325 C2306 1.429 . S
C2325 C2319 1.429 . S
C2325 C2326 1.523 . S
C2326 C2307 1.368 . S
C2326 C2320 1.368 . S
C2326 C2325 1.523 . S
C2327 C2311 1.429 . S
C2327 C2323 1.429 . S
C2327 C2328 1.523 . S
C2328 C2312 1.368 . S
C2328 C2324 1.368 . S
C2328 C2327 1.523 . S
H2329 C2304 0.950 . S
H2330 C2306 0.950 . S
H2331 C2307 0.949 . S
H2332 C2309 0.950 . S
H2333 C2311 0.950 . S
C2334 C2335 1.349 . S
C2334 C2336 1.327 . S
C2334 H2359 0.950 . S
C2335 C2334 1.349 . S
C2335 C2351 1.349 . S
C2336 C2334 1.327 . S
C2336 C2355 1.429 . S
C2336 H2360 0.950 . S
C2337 C2354 1.574 . S
C2337 C2356 1.368 . S
C2337 H2361 0.949 . S
H2338 C2342 0.949 . S
C2339 C2340 1.349 . S
C2339 C2341 1.327 . S
C2339 H2362 0.950 . S
C2340 C2339 1.349 . S
C2340 C2352 1.349 . S
C2341 C2339 1.327 . S
C2341 C2357 1.429 . S
C2341 H2363 0.950 . S
C2342 H2338 0.949 . S
C2342 C2350 1.574 . S
C2342 C2358 1.368 . S
H2343 C2351 0.950 . S
H2344 C2349 0.950 . S
H2345 C2350 0.949 . S
H2346 C2352 0.950 . S
H2347 C2353 0.950 . S
H2348 C2354 0.949 . S
C2349 H2344 0.950 . S
C2349 C2351 1.327 . S
C2349 C2355 1.429 . S
C2350 C2342 1.574 . S
C2350 H2345 0.949 . S
C2350 C2356 1.368 . S
C2351 C2335 1.349 . S
C2351 H2343 0.950 . S
C2351 C2349 1.327 . S
C2352 C2340 1.349 . S
C2352 H2346 0.950 . S
C2352 C2353 1.327 . S
C2353 H2347 0.950 . S
C2353 C2352 1.327 . S
C2353 C2357 1.429 . S
C2354 C2337 1.574 . S
C2354 H2348 0.949 . S
C2354 C2358 1.368 . S
C2355 C2336 1.429 . S
C2355 C2349 1.429 . S
C2355 C2356 1.523 . S
C2356 C2337 1.368 . S
C2356 C2350 1.368 . S
C2356 C2355 1.523 . S
C2357 C2341 1.429 . S
C2357 C2353 1.429 . S
C2357 C2358 1.523 . S
C2358 C2342 1.368 . S
C2358 C2354 1.368 . S
C2358 C2357 1.523 . S
H2359 C2334 0.950 . S
H2360 C2336 0.950 . S
H2361 C2337 0.949 . S
H2362 C2339 0.950 . S
H2363 C2341 0.950 . S
C2364 C2365 1.349 . S
C2364 C2366 1.327 . S
C2364 H2389 0.950 . S
C2365 C2364 1.349 . S
C2365 C2381 1.349 . S
C2366 C2364 1.327 . S
C2366 C2385 1.429 . S
C2366 H2390 0.950 . S
C2367 C2384 1.574 . S
C2367 C2386 1.368 . S
C2367 H2391 0.949 . S
H2368 C2372 0.949 . S
C2369 C2370 1.349 . S
C2369 C2371 1.327 . S
C2369 H2392 0.950 . S
C2370 C2369 1.349 . S
C2370 C2382 1.349 . S
C2371 C2369 1.327 . S
C2371 C2387 1.429 . S
C2371 H2393 0.950 . S
C2372 H2368 0.949 . S
C2372 C2380 1.574 . S
C2372 C2388 1.368 . S
H2373 C2381 0.950 . S
H2374 C2379 0.950 . S
H2375 C2380 0.949 . S
H2376 C2382 0.950 . S
H2377 C2383 0.950 . S
H2378 C2384 0.949 . S
C2379 H2374 0.950 . S
C2379 C2381 1.327 . S
C2379 C2385 1.429 . S
C2380 C2372 1.574 . S
C2380 H2375 0.949 . S
C2380 C2386 1.368 . S
C2381 C2365 1.349 . S
C2381 H2373 0.950 . S
C2381 C2379 1.327 . S
C2382 C2370 1.349 . S
C2382 H2376 0.950 . S
C2382 C2383 1.327 . S
C2383 H2377 0.950 . S
C2383 C2382 1.327 . S
C2383 C2387 1.429 . S
C2384 C2367 1.574 . S
C2384 H2378 0.949 . S
C2384 C2388 1.368 . S
C2385 C2366 1.429 . S
C2385 C2379 1.429 . S
C2385 C2386 1.523 . S
C2386 C2367 1.368 . S
C2386 C2380 1.368 . S
C2386 C2385 1.523 . S
C2387 C2371 1.429 . S
C2387 C2383 1.429 . S
C2387 C2388 1.523 . S
C2388 C2372 1.368 . S
C2388 C2384 1.368 . S
C2388 C2387 1.523 . S
H2389 C2364 0.950 . S
H2390 C2366 0.950 . S
H2391 C2367 0.949 . S
H2392 C2369 0.950 . S
H2393 C2371 0.950 . S
C2394 C2395 1.349 . S
C2394 C2396 1.327 . S
C2394 H2419 0.950 . S
C2395 C2394 1.349 . S
C2395 C2411 1.349 . S
C2396 C2394 1.327 . S
C2396 C2415 1.429 . S
C2396 H2420 0.950 . S
C2397 C2414 1.574 . S
C2397 C2416 1.368 . S
C2397 H2421 0.949 . S
H2398 C2402 0.949 . S
C2399 C2400 1.349 . S
C2399 C2401 1.327 . S
C2399 H2422 0.950 . S
C2400 C2399 1.349 . S
C2400 C2412 1.349 . S
C2401 C2399 1.327 . S
C2401 C2417 1.429 . S
C2401 H2423 0.950 . S
C2402 H2398 0.949 . S
C2402 C2410 1.574 . S
C2402 C2418 1.368 . S
H2403 C2411 0.950 . S
H2404 C2409 0.950 . S
H2405 C2410 0.949 . S
H2406 C2412 0.950 . S
H2407 C2413 0.950 . S
H2408 C2414 0.949 . S
C2409 H2404 0.950 . S
C2409 C2411 1.327 . S
C2409 C2415 1.429 . S
C2410 C2402 1.574 . S
C2410 H2405 0.949 . S
C2410 C2416 1.368 . S
C2411 C2395 1.349 . S
C2411 H2403 0.950 . S
C2411 C2409 1.327 . S
C2412 C2400 1.349 . S
C2412 H2406 0.950 . S
C2412 C2413 1.327 . S
C2413 H2407 0.950 . S
C2413 C2412 1.327 . S
C2413 C2417 1.429 . S
C2414 C2397 1.574 . S
C2414 H2408 0.949 . S
C2414 C2418 1.368 . S
C2415 C2396 1.429 . S
C2415 C2409 1.429 . S
C2415 C2416 1.523 . S
C2416 C2397 1.368 . S
C2416 C2410 1.368 . S
C2416 C2415 1.523 . S
C2417 C2401 1.429 . S
C2417 C2413 1.429 . S
C2417 C2418 1.523 . S
C2418 C2402 1.368 . S
C2418 C2414 1.368 . S
C2418 C2417 1.523 . S
H2419 C2394 0.950 . S
H2420 C2396 0.950 . S
H2421 C2397 0.949 . S
H2422 C2399 0.950 . S
H2423 C2401 0.950 . S
C2424 C2425 1.349 . S
C2424 C2426 1.327 . S
C2424 H2449 0.950 . S
C2425 C2424 1.349 . S
C2425 C2441 1.349 . S
C2426 C2424 1.327 . S
C2426 C2445 1.429 . S
C2426 H2450 0.950 . S
C2427 C2444 1.574 . S
C2427 C2446 1.368 . S
C2427 H2451 0.949 . S
H2428 C2432 0.949 . S
C2429 C2430 1.349 . S
C2429 C2431 1.327 . S
C2429 H2452 0.950 . S
C2430 C2429 1.349 . S
C2430 C2442 1.349 . S
C2431 C2429 1.327 . S
C2431 C2447 1.429 . S
C2431 H2453 0.950 . S
C2432 H2428 0.949 . S
C2432 C2440 1.574 . S
C2432 C2448 1.368 . S
H2433 C2441 0.950 . S
H2434 C2439 0.950 . S
H2435 C2440 0.949 . S
H2436 C2442 0.950 1_556 S
H2437 C2443 0.950 . S
H2438 C2444 0.949 . S
C2439 H2434 0.950 . S
C2439 C2441 1.327 . S
C2439 C2445 1.429 . S
C2440 C2432 1.574 . S
C2440 H2435 0.949 . S
C2440 C2446 1.368 . S
C2441 C2425 1.349 . S
C2441 H2433 0.950 . S
C2441 C2439 1.327 . S
C2442 C2430 1.349 . S
C2442 H2436 0.950 1_554 S
C2442 C2443 1.327 . S
C2443 H2437 0.950 . S
C2443 C2442 1.327 . S
C2443 C2447 1.429 . S
C2444 C2427 1.574 . S
C2444 H2438 0.949 . S
C2444 C2448 1.368 . S
C2445 C2426 1.429 . S
C2445 C2439 1.429 . S
C2445 C2446 1.523 . S
C2446 C2427 1.368 . S
C2446 C2440 1.368 . S
C2446 C2445 1.523 . S
C2447 C2431 1.429 . S
C2447 C2443 1.429 . S
C2447 C2448 1.523 . S
C2448 C2432 1.368 . S
C2448 C2444 1.368 . S
C2448 C2447 1.523 . S
H2449 C2424 0.950 . S
H2450 C2426 0.950 . S
H2451 C2427 0.949 . S
H2452 C2429 0.950 . S
H2453 C2431 0.950 . S
C2454 C2455 1.349 . S
C2454 C2456 1.327 . S
C2454 H2479 0.950 . S
C2455 C2454 1.349 . S
C2455 C2471 1.349 . S
C2456 C2454 1.327 . S
C2456 C2475 1.429 . S
C2456 H2480 0.950 . S
C2457 C2474 1.574 . S
C2457 C2476 1.368 . S
C2457 H2481 0.949 . S
H2458 C2462 0.949 . S
C2459 C2460 1.349 . S
C2459 C2461 1.327 . S
C2459 H2482 0.950 . S
C2460 C2459 1.349 . S
C2460 C2472 1.349 . S
C2461 C2459 1.327 . S
C2461 C2477 1.429 . S
C2461 H2483 0.950 . S
C2462 H2458 0.949 . S
C2462 C2470 1.574 . S
C2462 C2478 1.368 . S
H2463 C2471 0.950 . S
H2464 C2469 0.950 . S
H2465 C2470 0.949 . S
H2466 C2472 0.950 . S
H2467 C2473 0.950 . S
H2468 C2474 0.949 . S
C2469 H2464 0.950 . S
C2469 C2471 1.327 . S
C2469 C2475 1.429 . S
C2470 C2462 1.574 . S
C2470 H2465 0.949 . S
C2470 C2476 1.368 . S
C2471 C2455 1.349 . S
C2471 H2463 0.950 . S
C2471 C2469 1.327 . S
C2472 C2460 1.349 . S
C2472 H2466 0.950 . S
C2472 C2473 1.327 . S
C2473 H2467 0.950 . S
C2473 C2472 1.327 . S
C2473 C2477 1.429 . S
C2474 C2457 1.574 . S
C2474 H2468 0.949 . S
C2474 C2478 1.368 . S
C2475 C2456 1.429 . S
C2475 C2469 1.429 . S
C2475 C2476 1.523 . S
C2476 C2457 1.368 . S
C2476 C2470 1.368 . S
C2476 C2475 1.523 . S
C2477 C2461 1.429 . S
C2477 C2473 1.429 . S
C2477 C2478 1.523 . S
C2478 C2462 1.368 . S
C2478 C2474 1.368 . S
C2478 C2477 1.523 . S
H2479 C2454 0.950 . S
H2480 C2456 0.950 . S
H2481 C2457 0.949 . S
H2482 C2459 0.950 . S
H2483 C2461 0.950 . S
C2484 C2485 1.349 . S
C2484 C2486 1.327 . S
C2484 H2509 0.950 . S
C2485 C2484 1.349 . S
C2485 C2501 1.349 . S
C2486 C2484 1.327 . S
C2486 C2505 1.429 . S
C2486 H2510 0.950 . S
C2487 C2504 1.574 . S
C2487 C2506 1.368 . S
C2487 H2511 0.949 . S
H2488 C2492 0.949 . S
C2489 C2490 1.349 . S
C2489 C2491 1.327 . S
C2489 H2512 0.950 . S
C2490 C2489 1.349 . S
C2490 C2502 1.349 . S
C2491 C2489 1.327 . S
C2491 C2507 1.429 . S
C2491 H2513 0.950 . S
C2492 H2488 0.949 . S
C2492 C2500 1.574 . S
C2492 C2508 1.368 . S
H2493 C2501 0.950 . S
H2494 C2499 0.950 . S
H2495 C2500 0.949 . S
H2496 C2502 0.950 . S
H2497 C2503 0.950 . S
H2498 C2504 0.949 . S
C2499 H2494 0.950 . S
C2499 C2501 1.327 . S
C2499 C2505 1.429 . S
C2500 C2492 1.574 . S
C2500 H2495 0.949 . S
C2500 C2506 1.368 . S
C2501 C2485 1.349 . S
C2501 H2493 0.950 . S
C2501 C2499 1.327 . S
C2502 C2490 1.349 . S
C2502 H2496 0.950 . S
C2502 C2503 1.327 . S
C2503 H2497 0.950 . S
C2503 C2502 1.327 . S
C2503 C2507 1.429 . S
C2504 C2487 1.574 . S
C2504 H2498 0.949 . S
C2504 C2508 1.368 . S
C2505 C2486 1.429 . S
C2505 C2499 1.429 . S
C2505 C2506 1.523 . S
C2506 C2487 1.368 . S
C2506 C2500 1.368 . S
C2506 C2505 1.523 . S
C2507 C2491 1.429 . S
C2507 C2503 1.429 . S
C2507 C2508 1.523 . S
C2508 C2492 1.368 . S
C2508 C2504 1.368 . S
C2508 C2507 1.523 . S
H2509 C2484 0.950 . S
H2510 C2486 0.950 . S
H2511 C2487 0.949 . S
H2512 C2489 0.950 . S
H2513 C2491 0.950 . S
C2514 C2515 1.349 . S
C2514 C2516 1.327 . S
C2514 H2539 0.950 . S
C2515 C2514 1.349 . S
C2515 C2531 1.349 . S
C2516 C2514 1.327 . S
C2516 C2535 1.429 . S
C2516 H2540 0.950 . S
C2517 C2534 1.574 . S
C2517 C2536 1.368 . S
C2517 H2541 0.949 . S
H2518 C2522 0.949 . S
C2519 C2520 1.349 . S
C2519 C2521 1.327 . S
C2519 H2542 0.950 . S
C2520 C2519 1.349 . S
C2520 C2532 1.349 . S
C2521 C2519 1.327 . S
C2521 C2537 1.429 . S
C2521 H2543 0.950 . S
C2522 H2518 0.949 . S
C2522 C2530 1.574 . S
C2522 C2538 1.368 . S
H2523 C2531 0.950 . S
H2524 C2529 0.950 . S
H2525 C2530 0.949 . S
H2526 C2532 0.950 . S
H2527 C2533 0.950 . S
H2528 C2534 0.949 . S
C2529 H2524 0.950 . S
C2529 C2531 1.327 . S
C2529 C2535 1.429 . S
C2530 C2522 1.574 . S
C2530 H2525 0.949 . S
C2530 C2536 1.368 . S
C2531 C2515 1.349 . S
C2531 H2523 0.950 . S
C2531 C2529 1.327 . S
C2532 C2520 1.349 . S
C2532 H2526 0.950 . S
C2532 C2533 1.327 . S
C2533 H2527 0.950 . S
C2533 C2532 1.327 . S
C2533 C2537 1.429 . S
C2534 C2517 1.574 . S
C2534 H2528 0.949 . S
C2534 C2538 1.368 . S
C2535 C2516 1.429 . S
C2535 C2529 1.429 . S
C2535 C2536 1.523 . S
C2536 C2517 1.368 . S
C2536 C2530 1.368 . S
C2536 C2535 1.523 . S
C2537 C2521 1.429 . S
C2537 C2533 1.429 . S
C2537 C2538 1.523 . S
C2538 C2522 1.368 . S
C2538 C2534 1.368 . S
C2538 C2537 1.523 . S
H2539 C2514 0.950 . S
H2540 C2516 0.950 . S
H2541 C2517 0.949 . S
H2542 C2519 0.950 . S
H2543 C2521 0.950 . S
C2544 C2545 1.349 . S
C2544 C2546 1.327 . S
C2544 H2569 0.950 . S
C2545 C2544 1.349 . S
C2545 C2561 1.349 . S
C2546 C2544 1.327 . S
C2546 C2565 1.429 . S
C2546 H2570 0.950 . S
C2547 C2564 1.574 . S
C2547 C2566 1.368 . S
C2547 H2571 0.949 . S
H2548 C2552 0.949 . S
C2549 C2550 1.349 . S
C2549 C2551 1.327 . S
C2549 H2572 0.950 . S
C2550 C2549 1.349 . S
C2550 C2562 1.349 . S
C2551 C2549 1.327 . S
C2551 C2567 1.429 . S
C2551 H2573 0.950 . S
C2552 H2548 0.949 . S
C2552 C2560 1.574 . S
C2552 C2568 1.368 . S
H2553 C2561 0.950 . S
H2554 C2559 0.950 . S
H2555 C2560 0.949 . S
H2556 C2562 0.950 . S
H2557 C2563 0.950 . S
H2558 C2564 0.949 . S
C2559 H2554 0.950 . S
C2559 C2561 1.327 . S
C2559 C2565 1.429 . S
C2560 C2552 1.574 . S
C2560 H2555 0.949 . S
C2560 C2566 1.368 . S
C2561 C2545 1.349 . S
C2561 H2553 0.950 . S
C2561 C2559 1.327 . S
C2562 C2550 1.349 . S
C2562 H2556 0.950 . S
C2562 C2563 1.327 . S
C2563 H2557 0.950 . S
C2563 C2562 1.327 . S
C2563 C2567 1.429 . S
C2564 C2547 1.574 . S
C2564 H2558 0.949 . S
C2564 C2568 1.368 . S
C2565 C2546 1.429 . S
C2565 C2559 1.429 . S
C2565 C2566 1.523 . S
C2566 C2547 1.368 . S
C2566 C2560 1.368 . S
C2566 C2565 1.523 . S
C2567 C2551 1.429 . S
C2567 C2563 1.429 . S
C2567 C2568 1.523 . S
C2568 C2552 1.368 . S
C2568 C2564 1.368 . S
C2568 C2567 1.523 . S
H2569 C2544 0.950 . S
H2570 C2546 0.950 . S
H2571 C2547 0.949 . S
H2572 C2549 0.950 . S
H2573 C2551 0.950 . S
C2574 C2575 1.349 . S
C2574 C2576 1.327 . S
C2574 H2599 0.950 . S
C2575 C2574 1.349 . S
C2575 C2591 1.349 . S
C2576 C2574 1.327 . S
C2576 C2595 1.429 . S
C2576 H2600 0.950 . S
C2577 C2594 1.574 . S
C2577 C2596 1.368 . S
C2577 H2601 0.949 . S
H2578 C2582 0.949 . S
C2579 C2580 1.349 . S
C2579 C2581 1.327 1_545 S
C2579 H2602 0.950 . S
C2580 C2579 1.349 . S
C2580 C2592 1.349 1_545 S
C2581 C2579 1.327 1_565 S
C2581 C2597 1.429 . S
C2581 H2603 0.950 1_565 S
C2582 H2578 0.949 . S
C2582 C2590 1.574 . S
C2582 C2598 1.368 . S
H2583 C2591 0.950 . S
H2584 C2589 0.950 . S
H2585 C2590 0.949 . S
H2586 C2592 0.950 . S
H2587 C2593 0.950 . S
H2588 C2594 0.949 . S
C2589 H2584 0.950 . S
C2589 C2591 1.327 . S
C2589 C2595 1.429 . S
C2590 C2582 1.574 . S
C2590 H2585 0.949 . S
C2590 C2596 1.368 . S
C2591 C2575 1.349 . S
C2591 H2583 0.950 . S
C2591 C2589 1.327 . S
C2592 C2580 1.349 1_565 S
C2592 H2586 0.950 . S
C2592 C2593 1.327 . S
C2593 H2587 0.950 . S
C2593 C2592 1.327 . S
C2593 C2597 1.429 . S
C2594 C2577 1.574 . S
C2594 H2588 0.949 . S
C2594 C2598 1.368 . S
C2595 C2576 1.429 . S
C2595 C2589 1.429 . S
C2595 C2596 1.523 . S
C2596 C2577 1.368 . S
C2596 C2590 1.368 . S
C2596 C2595 1.523 . S
C2597 C2581 1.429 . S
C2597 C2593 1.429 . S
C2597 C2598 1.523 . S
C2598 C2582 1.368 . S
C2598 C2594 1.368 . S
C2598 C2597 1.523 . S
H2599 C2574 0.950 . S
H2600 C2576 0.950 . S
H2601 C2577 0.949 . S
H2602 C2579 0.950 . S
H2603 C2581 0.950 1_545 S
C2604 C2605 1.349 . S
C2604 C2606 1.327 . S
C2604 H2629 0.950 . S
C2605 C2604 1.349 . S
C2605 C2621 1.349 . S
C2606 C2604 1.327 . S
C2606 C2625 1.429 . S
C2606 H2630 0.950 . S
C2607 C2624 1.574 . S
C2607 C2626 1.368 . S
C2607 H2631 0.949 . S
H2608 C2612 0.949 . S
C2609 C2610 1.349 . S
C2609 C2611 1.327 . S
C2609 H2632 0.950 . S
C2610 C2609 1.349 . S
C2610 C2622 1.349 . S
C2611 C2609 1.327 . S
C2611 C2627 1.429 . S
C2611 H2633 0.950 . S
C2612 H2608 0.949 . S
C2612 C2620 1.574 . S
C2612 C2628 1.368 . S
H2613 C2621 0.950 . S
H2614 C2619 0.950 . S
H2615 C2620 0.949 . S
H2616 C2622 0.950 . S
H2617 C2623 0.950 . S
H2618 C2624 0.949 . S
C2619 H2614 0.950 . S
C2619 C2621 1.327 . S
C2619 C2625 1.429 . S
C2620 C2612 1.574 . S
C2620 H2615 0.949 . S
C2620 C2626 1.368 . S
C2621 C2605 1.349 . S
C2621 H2613 0.950 . S
C2621 C2619 1.327 . S
C2622 C2610 1.349 . S
C2622 H2616 0.950 . S
C2622 C2623 1.327 . S
C2623 H2617 0.950 . S
C2623 C2622 1.327 . S
C2623 C2627 1.429 . S
C2624 C2607 1.574 . S
C2624 H2618 0.949 . S
C2624 C2628 1.368 . S
C2625 C2606 1.429 . S
C2625 C2619 1.429 . S
C2625 C2626 1.523 . S
C2626 C2607 1.368 . S
C2626 C2620 1.368 . S
C2626 C2625 1.523 . S
C2627 C2611 1.429 . S
C2627 C2623 1.429 . S
C2627 C2628 1.523 . S
C2628 C2612 1.368 . S
C2628 C2624 1.368 . S
C2628 C2627 1.523 . S
H2629 C2604 0.950 . S
H2630 C2606 0.950 . S
H2631 C2607 0.949 . S
H2632 C2609 0.950 . S
H2633 C2611 0.950 . S
C2634 C2635 1.349 1_545 S
C2634 C2636 1.327 . S
C2634 H2659 0.950 . S
C2635 C2634 1.349 1_565 S
C2635 C2651 1.349 . S
C2636 C2634 1.327 . S
C2636 C2655 1.429 . S
C2636 H2660 0.950 . S
C2637 C2654 1.574 . S
C2637 C2656 1.368 . S
C2637 H2661 0.949 . S
H2638 C2642 0.949 . S
C2639 C2640 1.349 . S
C2639 C2641 1.327 . S
C2639 H2662 0.950 . S
C2640 C2639 1.349 . S
C2640 C2652 1.349 . S
C2641 C2639 1.327 . S
C2641 C2657 1.429 . S
C2641 H2663 0.950 . S
C2642 H2638 0.949 . S
C2642 C2650 1.574 . S
C2642 C2658 1.368 . S
H2643 C2651 0.950 . S
H2644 C2649 0.950 . S
H2645 C2650 0.949 . S
H2646 C2652 0.950 . S
H2647 C2653 0.950 . S
H2648 C2654 0.949 . S
C2649 H2644 0.950 . S
C2649 C2651 1.327 . S
C2649 C2655 1.429 1_565 S
C2650 C2642 1.574 . S
C2650 H2645 0.949 . S
C2650 C2656 1.368 . S
C2651 C2635 1.349 . S
C2651 H2643 0.950 . S
C2651 C2649 1.327 . S
C2652 C2640 1.349 . S
C2652 H2646 0.950 . S
C2652 C2653 1.327 . S
C2653 H2647 0.950 . S
C2653 C2652 1.327 . S
C2653 C2657 1.429 . S
C2654 C2637 1.574 . S
C2654 H2648 0.949 . S
C2654 C2658 1.368 . S
C2655 C2636 1.429 . S
C2655 C2649 1.429 1_545 S
C2655 C2656 1.523 . S
C2656 C2637 1.368 . S
C2656 C2650 1.368 . S
C2656 C2655 1.523 . S
C2657 C2641 1.429 . S
C2657 C2653 1.429 . S
C2657 C2658 1.523 . S
C2658 C2642 1.368 . S
C2658 C2654 1.368 . S
C2658 C2657 1.523 . S
H2659 C2634 0.950 . S
H2660 C2636 0.950 . S
H2661 C2637 0.949 . S
H2662 C2639 0.950 . S
H2663 C2641 0.950 . S
C2664 C2665 1.349 . S
C2664 C2666 1.327 . S
C2664 H2689 0.950 . S
C2665 C2664 1.349 . S
C2665 C2681 1.349 . S
C2666 C2664 1.327 . S
C2666 C2685 1.429 . S
C2666 H2690 0.950 . S
C2667 C2684 1.574 . S
C2667 C2686 1.368 . S
C2667 H2691 0.949 . S
H2668 C2672 0.949 . S
C2669 C2670 1.349 . S
C2669 C2671 1.327 . S
C2669 H2692 0.950 . S
C2670 C2669 1.349 . S
C2670 C2682 1.349 . S
C2671 C2669 1.327 . S
C2671 C2687 1.429 . S
C2671 H2693 0.950 . S
C2672 H2668 0.949 . S
C2672 C2680 1.574 . S
C2672 C2688 1.368 . S
H2673 C2681 0.950 . S
H2674 C2679 0.950 . S
H2675 C2680 0.949 . S
H2676 C2682 0.950 . S
H2677 C2683 0.950 . S
H2678 C2684 0.949 . S
C2679 H2674 0.950 . S
C2679 C2681 1.327 . S
C2679 C2685 1.429 . S
C2680 C2672 1.574 . S
C2680 H2675 0.949 . S
C2680 C2686 1.368 . S
C2681 C2665 1.349 . S
C2681 H2673 0.950 . S
C2681 C2679 1.327 . S
C2682 C2670 1.349 . S
C2682 H2676 0.950 . S
C2682 C2683 1.327 . S
C2683 H2677 0.950 . S
C2683 C2682 1.327 . S
C2683 C2687 1.429 . S
C2684 C2667 1.574 . S
C2684 H2678 0.949 . S
C2684 C2688 1.368 . S
C2685 C2666 1.429 . S
C2685 C2679 1.429 . S
C2685 C2686 1.523 . S
C2686 C2667 1.368 . S
C2686 C2680 1.368 . S
C2686 C2685 1.523 . S
C2687 C2671 1.429 . S
C2687 C2683 1.429 . S
C2687 C2688 1.523 . S
C2688 C2672 1.368 . S
C2688 C2684 1.368 . S
C2688 C2687 1.523 . S
H2689 C2664 0.950 . S
H2690 C2666 0.950 . S
H2691 C2667 0.949 . S
H2692 C2669 0.950 . S
H2693 C2671 0.950 . S
C2694 C2695 1.349 . S
C2694 C2696 1.327 . S
C2694 H2719 0.950 . S
C2695 C2694 1.349 . S
C2695 C2711 1.349 . S
C2696 C2694 1.327 . S
C2696 C2715 1.429 . S
C2696 H2720 0.950 . S
C2697 C2714 1.574 . S
C2697 C2716 1.368 . S
C2697 H2721 0.949 . S
H2698 C2702 0.949 . S
C2699 C2700 1.349 1_545 S
C2699 C2701 1.327 . S
C2699 H2722 0.950 . S
C2700 C2699 1.349 1_565 S
C2700 C2712 1.349 . S
C2701 C2699 1.327 . S
C2701 C2717 1.429 . S
C2701 H2723 0.950 . S
C2702 H2698 0.949 . S
C2702 C2710 1.574 . S
C2702 C2718 1.368 . S
H2703 C2711 0.950 . S
H2704 C2709 0.950 . S
H2705 C2710 0.949 . S
H2706 C2712 0.950 . S
H2707 C2713 0.950 . S
H2708 C2714 0.949 . S
C2709 H2704 0.950 . S
C2709 C2711 1.327 . S
C2709 C2715 1.429 . S
C2710 C2702 1.574 . S
C2710 H2705 0.949 . S
C2710 C2716 1.368 . S
C2711 C2695 1.349 . S
C2711 H2703 0.950 . S
C2711 C2709 1.327 . S
C2712 C2700 1.349 . S
C2712 H2706 0.950 . S
C2712 C2713 1.327 . S
C2713 H2707 0.950 . S
C2713 C2712 1.327 . S
C2713 C2717 1.429 1_565 S
C2714 C2697 1.574 . S
C2714 H2708 0.949 . S
C2714 C2718 1.368 . S
C2715 C2696 1.429 . S
C2715 C2709 1.429 . S
C2715 C2716 1.523 . S
C2716 C2697 1.368 . S
C2716 C2710 1.368 . S
C2716 C2715 1.523 . S
C2717 C2701 1.429 . S
C2717 C2713 1.429 1_545 S
C2717 C2718 1.523 . S
C2718 C2702 1.368 . S
C2718 C2714 1.368 . S
C2718 C2717 1.523 . S
H2719 C2694 0.950 . S
H2720 C2696 0.950 . S
H2721 C2697 0.949 . S
H2722 C2699 0.950 . S
H2723 C2701 0.950 . S
C2724 C2725 1.349 . S
C2724 C2726 1.327 . S
C2724 H2749 0.950 . S
C2725 C2724 1.349 . S
C2725 C2741 1.349 . S
C2726 C2724 1.327 . S
C2726 C2745 1.429 . S
C2726 H2750 0.950 . S
C2727 C2744 1.574 . S
C2727 C2746 1.368 . S
C2727 H2751 0.949 . S
H2728 C2732 0.949 . S
C2729 C2730 1.349 . S
C2729 C2731 1.327 . S
C2729 H2752 0.950 1_554 S
C2730 C2729 1.349 . S
C2730 C2742 1.349 . S
C2731 C2729 1.327 . S
C2731 C2747 1.429 . S
C2731 H2753 0.950 . S
C2732 H2728 0.949 . S
C2732 C2740 1.574 . S
C2732 C2748 1.368 . S
H2733 C2741 0.950 . S
H2734 C2739 0.950 . S
H2735 C2740 0.949 . S
H2736 C2742 0.950 . S
H2737 C2743 0.950 . S
H2738 C2744 0.949 . S
C2739 H2734 0.950 . S
C2739 C2741 1.327 . S
C2739 C2745 1.429 . S
C2740 C2732 1.574 . S
C2740 H2735 0.949 . S
C2740 C2746 1.368 . S
C2741 C2725 1.349 . S
C2741 H2733 0.950 . S
C2741 C2739 1.327 . S
C2742 C2730 1.349 . S
C2742 H2736 0.950 . S
C2742 C2743 1.327 . S
C2743 H2737 0.950 . S
C2743 C2742 1.327 . S
C2743 C2747 1.429 . S
C2744 C2727 1.574 . S
C2744 H2738 0.949 . S
C2744 C2748 1.368 . S
C2745 C2726 1.429 . S
C2745 C2739 1.429 . S
C2745 C2746 1.523 . S
C2746 C2727 1.368 . S
C2746 C2740 1.368 . S
C2746 C2745 1.523 . S
C2747 C2731 1.429 . S
C2747 C2743 1.429 . S
C2747 C2748 1.523 . S
C2748 C2732 1.368 . S
C2748 C2744 1.368 . S
C2748 C2747 1.523 . S
H2749 C2724 0.950 . S
H2750 C2726 0.950 . S
H2751 C2727 0.949 . S
H2752 C2729 0.950 1_556 S
H2753 C2731 0.950 . S
C2754 C2755 1.349 . S
C2754 C2756 1.327 . S
C2754 H2779 0.950 . S
C2755 C2754 1.349 . S
C2755 C2771 1.349 . S
C2756 C2754 1.327 . S
C2756 C2775 1.429 . S
C2756 H2780 0.950 . S
C2757 C2774 1.574 . S
C2757 C2776 1.368 . S
C2757 H2781 0.949 . S
H2758 C2762 0.949 . S
C2759 C2760 1.349 . S
C2759 C2761 1.327 . S
C2759 H2782 0.950 . S
C2760 C2759 1.349 . S
C2760 C2772 1.349 1_545 S
C2761 C2759 1.327 . S
C2761 C2777 1.429 1_545 S
C2761 H2783 0.950 . S
C2762 H2758 0.949 . S
C2762 C2770 1.574 . S
C2762 C2778 1.368 . S
H2763 C2771 0.950 . S
H2764 C2769 0.950 . S
H2765 C2770 0.949 . S
H2766 C2772 0.950 . S
H2767 C2773 0.950 . S
H2768 C2774 0.949 . S
C2769 H2764 0.950 . S
C2769 C2771 1.327 . S
C2769 C2775 1.429 . S
C2770 C2762 1.574 . S
C2770 H2765 0.949 . S
C2770 C2776 1.368 . S
C2771 C2755 1.349 . S
C2771 H2763 0.950 . S
C2771 C2769 1.327 . S
C2772 C2760 1.349 1_565 S
C2772 H2766 0.950 . S
C2772 C2773 1.327 . S
C2773 H2767 0.950 . S
C2773 C2772 1.327 . S
C2773 C2777 1.429 . S
C2774 C2757 1.574 . S
C2774 H2768 0.949 . S
C2774 C2778 1.368 . S
C2775 C2756 1.429 . S
C2775 C2769 1.429 . S
C2775 C2776 1.523 . S
C2776 C2757 1.368 . S
C2776 C2770 1.368 . S
C2776 C2775 1.523 . S
C2777 C2761 1.429 1_565 S
C2777 C2773 1.429 . S
C2777 C2778 1.523 . S
C2778 C2762 1.368 . S
C2778 C2774 1.368 . S
C2778 C2777 1.523 . S
H2779 C2754 0.950 . S
H2780 C2756 0.950 . S
H2781 C2757 0.949 . S
H2782 C2759 0.950 . S
H2783 C2761 0.950 . S
C1345 C75 2.787 . S
C1350 C915 2.787 . S
C1375 C159 2.787 . S
C1380 C999 2.787 . S
C1405 C243 2.787 . S
C1410 C747 2.787 . S
C1435 C831 2.787 . S
C1440 C327 2.787 . S
C1465 C402 2.787 . S
C1470 C1242 2.787 . S
C1495 C1326 2.787 . S
C1500 C486 2.787 . S
C1525 C1074 2.787 . S
C1530 C570 2.787 . S
C1555 C654 2.787 . S
C1560 C1158 2.787 . S
C1585 C63 0.579 . S
C1590 C408 0.579 . S
C1615 C147 0.579 . S
C1620 C1164 0.579 . S
C1645 C231 0.579 . S
C1650 C576 0.579 . S
C1675 C315 0.579 . S
C1680 C1332 0.579 . S
C1705 C492 0.579 . S
C1710 C819 0.579 . S
C1735 C987 0.579 . S
C1740 C660 0.579 . S
C1765 C1080 0.579 . S
C1770 C735 0.579 . S
C1795 C903 0.579 . S
C1800 C1248 0.579 . S
C1825 C72 0.775 . S
C1830 C663 0.893 . S
C1855 C156 0.775 . S
C1860 C1083 0.893 . S
C1885 C240 0.775 . S
C1890 C495 0.893 . S
C1915 C324 0.775 . S
C1920 C1251 0.893 . S
C1945 C318 0.893 . S
C1950 C399 0.775 . S
C1975 C483 0.775 . S
C1980 C738 0.893 . S
C2005 C567 0.775 . S
C2010 C150 0.893 . S
C2035 C906 0.893 . S
C2040 C651 0.775 . S
C2065 C744 0.775 . S
C2070 C1335 0.893 . S
C2095 C411 0.893 . S
C2100 C828 0.775 . S
C2125 C1167 0.893 . S
C2130 C912 0.775 . S
C2155 C579 0.893 . S
C2160 C996 0.775 . S
C2185 C1071 0.775 . S
C2190 C990 0.893 . S
C2215 C1155 0.775 . S
C2220 C66 0.893 . S
C2245 C822 0.893 . S
C2250 C1239 0.775 . S
C2275 C1323 0.775 . S
C2280 C234 0.893 . S
C2305 C56 3.778 1_556 S
C2310 C823 4.011 . S
C2335 C907 4.011 . S
C2340 C140 3.779 . S
C2365 C224 3.778 . S
C2370 C991 4.011 . S
C2395 C739 4.011 . S
C2400 C308 3.779 . S
C2425 C1148 4.011 . S
C2430 C403 3.778 1_554 S
C2455 C1232 4.011 . S
C2460 C487 3.779 . S
C2485 C1316 4.011 . S
C2490 C571 3.778 . S
C2515 C1064 4.011 . S
C2520 C655 3.779 . S
C2545 C151 4.011 . S
C2550 C728 3.779 . S
C2575 C235 4.011 . S
C2580 C812 3.779 . S
C2605 C319 4.011 . S
C2610 C896 3.779 1_556 S
C2635 C980 3.779 . S
C2640 C67 4.011 . S
C2665 C476 4.011 . S
C2670 C1075 3.779 . S
C2695 C560 4.011 . S
C2700 C1159 3.779 . S
C2725 C644 4.011 . S
C2730 C1243 3.779 1_554 S
C2755 C392 4.011 . S
C2760 C1327 3.779 . S
