# Generated by pormake.
# Topology zfl, (5)-cn, num edge types: 1
# Building blocks:
#     Node 0, Type 0, BuildingBlock: BEQFEK_clean_sbu_0, # of connection points: 5
#     Node 1, Type 0, BuildingBlock: BEQFEK_clean_sbu_0, # of connection points: 5
#     Node 2, Type 0, BuildingBlock: BEQFEK_clean_sbu_0, # of connection points: 5
#     Node 3, Type 0, BuildingBlock: BEQFEK_clean_sbu_0, # of connection points: 5
#     Node 4, Type 0, BuildingBlock: BEQFEK_clean_sbu_0, # of connection points: 5
#     Node 5, Type 0, BuildingBlock: BEQFEK_clean_sbu_0, # of connection points: 5
#     Node 6, Type 0, BuildingBlock: BEQFEK_clean_sbu_0, # of connection points: 5
#     Node 7, Type 0, BuildingBlock: BEQFEK_clean_sbu_0, # of connection points: 5
#     Node 8, Type 0, BuildingBlock: BEQFEK_clean_sbu_0, # of connection points: 5
#     Node 9, Type 0, BuildingBlock: BEQFEK_clean_sbu_0, # of connection points: 5
#     Node 10, Type 0, BuildingBlock: BEQFEK_clean_sbu_0, # of connection points: 5
#     Node 11, Type 0, BuildingBlock: BEQFEK_clean_sbu_0, # of connection points: 5
#     Node 12, Type 0, BuildingBlock: BEQFEK_clean_sbu_0, # of connection points: 5
#     Node 13, Type 0, BuildingBlock: BEQFEK_clean_sbu_0, # of connection points: 5
#     Node 14, Type 0, BuildingBlock: BEQFEK_clean_sbu_0, # of connection points: 5
#     Node 15, Type 0, BuildingBlock: BEQFEK_clean_sbu_0, # of connection points: 5
#     Edge 16, Type (0, 0), BuildingBlock: CIFDUS_clean_linker_0, # of connection points: 2
#     Edge 17, Type (0, 0), BuildingBlock: CIFDUS_clean_linker_0, # of connection points: 2
#     Edge 18, Type (0, 0), BuildingBlock: CIFDUS_clean_linker_0, # of connection points: 2
#     Edge 19, Type (0, 0), BuildingBlock: CIFDUS_clean_linker_0, # of connection points: 2
#     Edge 20, Type (0, 0), BuildingBlock: CIFDUS_clean_linker_0, # of connection points: 2
#     Edge 21, Type (0, 0), BuildingBlock: CIFDUS_clean_linker_0, # of connection points: 2
#     Edge 22, Type (0, 0), BuildingBlock: CIFDUS_clean_linker_0, # of connection points: 2
#     Edge 23, Type (0, 0), BuildingBlock: CIFDUS_clean_linker_0, # of connection points: 2
#     Edge 24, Type (0, 0), BuildingBlock: CIFDUS_clean_linker_0, # of connection points: 2
#     Edge 25, Type (0, 0), BuildingBlock: CIFDUS_clean_linker_0, # of connection points: 2
#     Edge 26, Type (0, 0), BuildingBlock: CIFDUS_clean_linker_0, # of connection points: 2
#     Edge 27, Type (0, 0), BuildingBlock: CIFDUS_clean_linker_0, # of connection points: 2
#     Edge 28, Type (0, 0), BuildingBlock: CIFDUS_clean_linker_0, # of connection points: 2
#     Edge 29, Type (0, 0), BuildingBlock: CIFDUS_clean_linker_0, # of connection points: 2
#     Edge 30, Type (0, 0), BuildingBlock: CIFDUS_clean_linker_0, # of connection points: 2
#     Edge 31, Type (0, 0), BuildingBlock: CIFDUS_clean_linker_0, # of connection points: 2
#     Edge 32, Type (0, 0), BuildingBlock: CIFDUS_clean_linker_0, # of connection points: 2
#     Edge 33, Type (0, 0), BuildingBlock: CIFDUS_clean_linker_0, # of connection points: 2
#     Edge 34, Type (0, 0), BuildingBlock: CIFDUS_clean_linker_0, # of connection points: 2
#     Edge 35, Type (0, 0), BuildingBlock: CIFDUS_clean_linker_0, # of connection points: 2
#     Edge 36, Type (0, 0), BuildingBlock: CIFDUS_clean_linker_0, # of connection points: 2
#     Edge 37, Type (0, 0), BuildingBlock: CIFDUS_clean_linker_0, # of connection points: 2
#     Edge 38, Type (0, 0), BuildingBlock: CIFDUS_clean_linker_0, # of connection points: 2
#     Edge 39, Type (0, 0), BuildingBlock: CIFDUS_clean_linker_0, # of connection points: 2
#     Edge 40, Type (0, 0), BuildingBlock: CIFDUS_clean_linker_0, # of connection points: 2
#     Edge 41, Type (0, 0), BuildingBlock: CIFDUS_clean_linker_0, # of connection points: 2
#     Edge 42, Type (0, 0), BuildingBlock: CIFDUS_clean_linker_0, # of connection points: 2
#     Edge 43, Type (0, 0), BuildingBlock: CIFDUS_clean_linker_0, # of connection points: 2
#     Edge 44, Type (0, 0), BuildingBlock: CIFDUS_clean_linker_0, # of connection points: 2
#     Edge 45, Type (0, 0), BuildingBlock: CIFDUS_clean_linker_0, # of connection points: 2
#     Edge 46, Type (0, 0), BuildingBlock: CIFDUS_clean_linker_0, # of connection points: 2
#     Edge 47, Type (0, 0), BuildingBlock: CIFDUS_clean_linker_0, # of connection points: 2
#     Edge 48, Type (0, 0), BuildingBlock: CIFDUS_clean_linker_0, # of connection points: 2
#     Edge 49, Type (0, 0), BuildingBlock: CIFDUS_clean_linker_0, # of connection points: 2
#     Edge 50, Type (0, 0), BuildingBlock: CIFDUS_clean_linker_0, # of connection points: 2
#     Edge 51, Type (0, 0), BuildingBlock: CIFDUS_clean_linker_0, # of connection points: 2
#     Edge 52, Type (0, 0), BuildingBlock: CIFDUS_clean_linker_0, # of connection points: 2
#     Edge 53, Type (0, 0), BuildingBlock: CIFDUS_clean_linker_0, # of connection points: 2
#     Edge 54, Type (0, 0), BuildingBlock: CIFDUS_clean_linker_0, # of connection points: 2
#     Edge 55, Type (0, 0), BuildingBlock: CIFDUS_clean_linker_0, # of connection points: 2
# Relax obj value: 0.183
# Max RMSD: 0.232
# Mean RMSD: 0.218
data_MOF--net-zfl--node1-BEQFEK_clean_sbu_0--edge1-CIFDUS_clean_linker_0
_symmetry_space_group_name_H-M    P1
_symmetry_Int_Tables_number       1
_symmetry_cell_setting            triclinic
loop_
_symmetry_equiv_pos_as_xyz
'x, y, z'
_cell_length_a     24.213135
_cell_length_b     24.210423
_cell_length_c     67.750913
_cell_angle_alpha  89.841724
_cell_angle_beta   90.411791
_cell_angle_gamma 90.243774
loop_
_atom_site_label
_atom_site_type_symbol
_atom_site_fract_x
_atom_site_fract_y
_atom_site_fract_z
_atom_type_partial_charge
Co0 Co 0.58157 0.03269 0.18026 0.0
Co1 Co 0.56612 0.02874 0.1334 0.0
C2 C 0.48364 0.08318 0.15875 0.0
O3 O 0.51066 0.07131 0.17441 0.0
O4 O 0.4998 0.06705 0.14195 0.0
C5 C 0.54724 -0.00227 0.21906 0.0
O6 O 0.5077 0.97341 0.20888 0.0
C7 C 0.51708 0.00509 0.09361 0.0
C8 C 0.58937 0.0178 0.07444 0.0
C9 C 0.53368 0.00455 0.074 0.0
N10 N 0.56117 0.01748 0.10513 0.0
N11 N 0.60414 0.02498 0.09348 0.0
C12 C 0.45952 0.99673 0.10104 0.0
H13 H 0.45621 0.00822 0.11676 0.0
H14 H 0.44775 0.95262 0.09965 0.0
H15 H 0.43002 0.02126 0.09201 0.0
C16 C 0.60324 0.91299 0.17291 0.0
N17 N 0.58861 0.96391 0.16669 0.0
N18 N 0.57857 0.96215 0.14757 0.0
C19 C 0.58426 0.90991 0.14119 0.0
C20 C 0.60104 0.87682 0.15696 0.0
C21 C 0.62243 0.9002 0.19346 0.0
H22 H 0.64392 0.93654 0.19989 0.0
H23 H 0.58617 0.89026 0.20274 0.0
H24 H 0.65067 0.86419 0.19358 0.0
O25 O 0.6398 0.0849 0.17137 0.0
O26 O 0.62763 0.08176 0.13874 0.0
H27 H 0.60223 0.90269 0.11043 0.0
H28 H 0.55987 0.84694 0.11994 0.0
C29 C 0.56857 0.8918 0.12078 0.0
H30 H 0.5307 0.91354 0.1161 0.0
H31 H 0.64355 0.03578 0.09852 0.0
O32 O 0.58477 0.02407 0.20982 0.0
C33 C 0.65216 0.10116 0.154 0.0
Co34 Co 0.4728 0.56232 0.67648 0.0
Co35 Co 0.45835 0.56599 0.62949 0.0
C36 C 0.41303 0.47342 0.65479 0.0
O37 O 0.43143 0.49378 0.67085 0.0
O38 O 0.42178 0.49696 0.63828 0.0
C39 C 0.49424 0.51733 0.7157 0.0
O40 O 0.48327 0.47094 0.70643 0.0
C41 C 0.48455 0.52407 0.5898 0.0
C42 C 0.44847 0.58807 0.57041 0.0
C43 C 0.47707 0.53857 0.57006 0.0
N44 N 0.46211 0.56352 0.60116 0.0
N45 N 0.44048 0.60155 0.58945 0.0
C46 C 0.51062 0.47272 0.59786 0.0
H47 H 0.49607 0.46431 0.61306 0.0
H48 H 0.55608 0.47838 0.59851 0.0
H49 H 0.50124 0.43691 0.58819 0.0
C50 C 0.59195 0.56611 0.66306 0.0
N51 N 0.53681 0.56747 0.6598 0.0
N52 N 0.52827 0.57654 0.64088 0.0
C53 C 0.57643 0.58665 0.63194 0.0
C54 C 0.61919 0.57801 0.64536 0.0
C55 C 0.61749 0.54851 0.68222 0.0
H56 H 0.58717 0.5256 0.69128 0.0
H57 H 0.65376 0.52171 0.67964 0.0
H58 H 0.63138 0.58564 0.69047 0.0
O59 O 0.41774 0.62422 0.67039 0.0
O60 O 0.4116 0.62622 0.63747 0.0
H61 H 0.61911 0.63588 0.61015 0.0
H62 H 0.58053 0.57828 0.6004 0.0
C63 C 0.58055 0.6113 0.61165 0.0
H64 H 0.54453 0.63836 0.60872 0.0
H65 H 0.42004 0.63664 0.59446 0.0
O66 O 0.4933 0.56242 0.70584 0.0
C67 C 0.39788 0.6444 0.65431 0.0
Co68 Co 0.93053 0.4502 0.16967 0.0
Co69 Co 0.88169 0.45325 0.12591 0.0
C70 C 0.99446 0.40612 0.13612 0.0
O71 O 0.99257 0.41631 0.15459 0.0
O72 O 0.95505 0.41987 0.12465 0.0
C73 C 0.95635 0.42185 0.21026 0.0
O74 O 0.9461 0.37181 0.20368 0.0
C75 C 0.89156 0.48608 0.08448 0.0
C76 C 0.81056 0.46278 0.07186 0.0
C77 C 0.86174 0.48459 0.0668 0.0
N78 N 0.85966 0.46576 0.09901 0.0
N79 N 0.81125 0.45193 0.09137 0.0
C80 C 0.94828 0.50885 0.08806 0.0
H81 H 0.97921 0.47646 0.08484 0.0
H82 H 0.9533 0.52105 0.10376 0.0
H83 H 0.95613 0.54509 0.0784 0.0
C84 C 0.91239 0.57149 0.16423 0.0
N85 N 0.90782 0.51877 0.15804 0.0
N86 N 0.88266 0.51843 0.14078 0.0
C87 C 0.8676 0.57007 0.13592 0.0
C88 C 0.88682 0.60609 0.15041 0.0
C89 C 0.94634 0.58834 0.18179 0.0
H90 H 0.91914 0.59156 0.19484 0.0
H91 H 0.97859 0.55711 0.18493 0.0
H92 H 0.96666 0.62888 0.17929 0.0
O93 O 0.86862 0.39375 0.1689 0.0
O94 O 0.83473 0.39741 0.13824 0.0
H95 H 0.80291 0.55057 0.11525 0.0
H96 H 0.8115 0.62357 0.12 0.0
C97 C 0.83355 0.58388 0.11805 0.0
H98 H 0.86072 0.58714 0.10499 0.0
H99 H 0.77896 0.4345 0.09942 0.0
O100 O 0.95287 0.46221 0.19822 0.0
C101 C 0.83529 0.37645 0.15551 0.0
Co102 Co 0.0362 0.87938 0.67518 0.0
Co103 Co 0.04421 0.88221 0.62858 0.0
C104 C 0.08942 0.9736 0.65182 0.0
O105 O 0.07595 0.94809 0.66756 0.0
O106 O 0.07697 0.9544 0.63489 0.0
C107 C 0.00119 0.9303 0.7107 0.0
O108 O 0.9881 0.97035 0.69842 0.0
C109 C 0.04367 0.91072 0.5856 0.0
C110 C 0.01822 0.83106 0.57254 0.0
C111 C 0.03195 0.88502 0.56767 0.0
N112 N 0.03652 0.87368 0.60031 0.0
N113 N 0.02131 0.82622 0.59232 0.0
C114 C 0.06519 0.96804 0.58876 0.0
H115 H 0.10375 0.96601 0.59764 0.0
H116 H 0.03455 0.99207 0.59725 0.0
H117 H 0.07424 0.98941 0.57465 0.0
C118 C 0.91862 0.86262 0.66561 0.0
N119 N 0.97151 0.86875 0.6601 0.0
N120 N 0.97375 0.87477 0.64084 0.0
C121 C 0.92179 0.87615 0.63356 0.0
C122 C 0.88474 0.86799 0.64902 0.0
C123 C 0.90156 0.85047 0.68638 0.0
H124 H 0.93321 0.82457 0.69381 0.0
H125 H 0.89814 0.88971 0.69467 0.0
H126 H 0.86109 0.82879 0.68668 0.0
O127 O 0.08769 0.81897 0.67112 0.0
O128 O 0.09931 0.82561 0.63862 0.0
H129 H 0.90565 0.85578 0.60338 0.0
H130 H 0.86846 0.91542 0.61196 0.0
C131 C 0.9083 0.89312 0.6128 0.0
H132 H 0.94105 0.92064 0.60698 0.0
H133 H 0.01292 0.79045 0.60041 0.0
O134 O 0.02092 0.88575 0.70385 0.0
C135 C 0.11186 0.80441 0.65538 0.0
Co136 Co 0.58361 0.48 0.87033 0.0
Co137 Co 0.62307 0.48177 0.91538 0.0
C138 C 0.51801 0.42394 0.90102 0.0
O139 O 0.52169 0.43895 0.88299 0.0
O140 O 0.55399 0.43862 0.9138 0.0
C141 C 0.55562 0.4508 0.83043 0.0
O142 O 0.55538 0.4017 0.83876 0.0
C143 C 0.60582 0.50255 0.95772 0.0
C144 C 0.69063 0.49773 0.96976 0.0
C145 C 0.6362 0.50634 0.9752 0.0
N146 N 0.6407 0.49211 0.94281 0.0
N147 N 0.69129 0.48895 0.95015 0.0
C148 C 0.5454 0.51256 0.95474 0.0
H149 H 0.53707 0.52623 0.93935 0.0
H150 H 0.53035 0.54418 0.96522 0.0
H151 H 0.52248 0.47346 0.95733 0.0
C152 C 0.58295 0.60156 0.87887 0.0
N153 N 0.59592 0.549 0.88367 0.0
N154 N 0.61707 0.54864 0.90162 0.0
C155 C 0.62129 0.60059 0.90832 0.0
C156 C 0.59836 0.63611 0.89445 0.0
C157 C 0.54969 0.61696 0.861 0.0
H158 H 0.5782 0.62885 0.84894 0.0
H159 H 0.52432 0.58136 0.85598 0.0
H160 H 0.52227 0.65246 0.86408 0.0
O161 O 0.64904 0.42805 0.8727 0.0
O162 O 0.67919 0.43602 0.9037 0.0
H163 H 0.65888 0.66006 0.92806 0.0
H164 H 0.61636 0.60827 0.93973 0.0
C165 C 0.64656 0.61585 0.92781 0.0
H166 H 0.68349 0.59006 0.93068 0.0
H167 H 0.72633 0.48114 0.94174 0.0
O168 O 0.56677 0.4925 0.8412 0.0
C169 C 0.68274 0.41508 0.88658 0.0
Co170 Co 0.03796 0.57 0.35915 0.0
Co171 Co 0.01383 0.58476 0.40508 0.0
C172 C 0.07936 0.49034 0.39054 0.0
O173 O 0.07517 0.50454 0.37239 0.0
O174 O 0.05542 0.51725 0.40402 0.0
C175 C 0.0238 0.51121 0.3222 0.0
O176 O 0.01495 0.46946 0.33422 0.0
C177 C 0.98751 0.55999 0.44678 0.0
C178 C 0.96108 0.64145 0.45772 0.0
C179 C 0.96908 0.58709 0.46353 0.0
N180 N 0.99069 0.59677 0.43185 0.0
N181 N 0.97499 0.6454 0.43854 0.0
C182 C 0.99708 0.49931 0.44446 0.0
H183 H 0.98448 0.48581 0.42945 0.0
H184 H 0.9735 0.47516 0.45552 0.0
H185 H 0.04173 0.49068 0.44645 0.0
C186 C 0.91557 0.58568 0.35848 0.0
N187 N 0.9641 0.58198 0.36827 0.0
N188 N 0.95427 0.58267 0.38732 0.0
C189 C 0.89947 0.58296 0.39034 0.0
C190 C 0.87256 0.58589 0.37211 0.0
C191 C 0.91104 0.59134 0.33652 0.0
H192 H 0.94612 0.61617 0.33084 0.0
H193 H 0.91269 0.5498 0.32969 0.0
H194 H 0.87171 0.61156 0.33218 0.0
O195 O 0.08622 0.63437 0.366 0.0
O196 O 0.06712 0.64363 0.39794 0.0
H197 H 0.86732 0.61203 0.41775 0.0
H198 H 0.8345 0.54958 0.40883 0.0
C199 C 0.87425 0.57217 0.41013 0.0
H200 H 0.90227 0.54662 0.41927 0.0
H201 H 0.9734 0.68125 0.42997 0.0
O202 O 0.0359 0.55819 0.32958 0.0
C203 C 0.09378 0.65831 0.38259 0.0
Co204 Co 0.9026 0.05309 0.8587 0.0
Co205 Co 0.89111 0.04125 0.90509 0.0
C206 C 0.98858 0.0962 0.88788 0.0
O207 O 0.97034 0.08975 0.87031 0.0
O208 O 0.96318 0.07602 0.9026 0.0
C209 C 0.95298 0.01877 0.82277 0.0
O210 O 0.98764 0.9944 0.83498 0.0
C211 C 0.91293 0.02586 0.948 0.0
C212 C 0.83217 0.99606 0.95864 0.0
C213 C 0.88535 0.00877 0.96491 0.0
N214 N 0.87782 0.02289 0.93249 0.0
N215 N 0.82969 0.00477 0.939 0.0
C216 C 0.96969 0.05009 0.94678 0.0
H217 H 0.96601 0.09277 0.94118 0.0
H218 H 0.99466 0.02603 0.93619 0.0
H219 H 0.9911 0.05199 0.96124 0.0
C220 C 0.87593 0.93381 0.86147 0.0
N221 N 0.88567 0.98323 0.86987 0.0
N222 N 0.88702 0.97723 0.88913 0.0
C223 C 0.88315 0.9231 0.89359 0.0
C224 C 0.8752 0.89338 0.87615 0.0
C225 C 0.86248 0.92647 0.84002 0.0
H226 H 0.84206 0.96403 0.83411 0.0
H227 H 0.90095 0.91967 0.83163 0.0
H228 H 0.8349 0.89024 0.83778 0.0
O229 O 0.84158 0.10345 0.8634 0.0
O230 O 0.83714 0.09994 0.89626 0.0
H231 H 0.85514 0.89494 0.92177 0.0
H232 H 0.91604 0.86013 0.91305 0.0
C233 C 0.89467 0.90048 0.91381 0.0
H234 H 0.92134 0.92935 0.92227 0.0
H235 H 0.79497 -0.00126 0.93004 0.0
O236 O 0.91326 0.04656 0.82976 0.0
C237 C 0.82154 0.1199 0.87963 0.0
Co238 Co 0.45869 0.91454 0.37358 0.0
Co239 Co 0.44851 0.87687 0.41839 0.0
C240 C 0.40797 0.98815 0.40238 0.0
O241 O 0.42398 0.98287 0.38457 0.0
O242 O 0.41633 0.95012 0.41499 0.0
C243 C 0.49176 0.9651 0.33511 0.0
O244 O 0.50137 0.01128 0.34469 0.0
C245 C 0.4755 0.90228 0.4596 0.0
C246 C 0.43613 0.83371 0.47586 0.0
C247 C 0.465 0.8828 0.47853 0.0
N248 N 0.45411 0.86632 0.44644 0.0
N249 N 0.43101 0.82518 0.45627 0.0
C250 C 0.5013 0.95643 0.45404 0.0
H251 H 0.49695 0.96447 0.43801 0.0
H252 H 0.54602 0.95568 0.45762 0.0
H253 H 0.48227 0.99038 0.46258 0.0
C254 C 0.57809 0.89727 0.38443 0.0
N255 N 0.52356 0.89337 0.38827 0.0
N256 N 0.51747 0.8724 0.40606 0.0
C257 C 0.56721 0.85981 0.41368 0.0
C258 C 0.60773 0.87634 0.40055 0.0
C259 C 0.60057 0.9274 0.36691 0.0
H260 H 0.58145 0.96884 0.36605 0.0
H261 H 0.64599 0.93247 0.3676 0.0
H262 H 0.58911 0.90461 0.35329 0.0
O263 O 0.39987 0.85528 0.37511 0.0
O264 O 0.39469 0.82654 0.40633 0.0
H265 H 0.54143 0.80336 0.43637 0.0
H266 H 0.61561 0.80961 0.43358 0.0
C267 C 0.5759 0.83238 0.4333 0.0
H268 H 0.57723 0.86388 0.4451 0.0
H269 H 0.41005 0.79229 0.44963 0.0
O270 O 0.47502 0.92267 0.34455 0.0
C271 C 0.37829 0.82474 0.38843 0.0
Co272 Co 0.37954 0.98331 0.92391 0.0
Co273 Co 0.36492 0.98094 0.87735 0.0
C274 C 0.46195 0.93065 0.89544 0.0
O275 O 0.44304 0.94237 0.91245 0.0
O276 O 0.43744 0.94621 0.87976 0.0
C277 C 0.39644 0.96978 0.96682 0.0
O278 O 0.37148 0.92179 0.9649 0.0
C279 C 0.3811 0.99336 0.83432 0.0
C280 C 0.29781 0.01764 0.82415 0.0
C281 C 0.35146 0.01016 0.81774 0.0
N282 N 0.34683 0.99223 0.8499 0.0
N283 N 0.29695 0.00612 0.84363 0.0
C284 C 0.44066 0.97713 0.83538 0.0
H285 H 0.44394 0.93561 0.84221 0.0
H286 H 0.46364 0.0067 0.84488 0.0
H287 H 0.45981 0.97556 0.82058 0.0
C288 C 0.36291 0.10197 0.91663 0.0
N289 N 0.36503 0.04964 0.9101 0.0
N290 N 0.36458 0.04969 0.89073 0.0
C291 C 0.3658 0.10236 0.88423 0.0
C292 C 0.36423 0.13779 0.90046 0.0
C293 C 0.35905 0.11648 0.93804 0.0
H294 H 0.33305 0.08554 0.94579 0.0
H295 H 0.40089 0.1154 0.94482 0.0
H296 H 0.34105 0.15818 0.94002 0.0
O297 O 0.31633 0.9323 0.92198 0.0
O298 O 0.31112 0.92652 0.88916 0.0
H299 H 0.33782 0.12083 0.85494 0.0
H300 H 0.40006 0.15732 0.86208 0.0
C301 C 0.37739 0.11761 0.86321 0.0
H302 H 0.40302 0.08545 0.85629 0.0
H303 H 0.26264 0.00942 0.85278 0.0
O304 O 0.40178 0.0008 0.95175 0.0
C305 C 0.29574 0.91104 0.90635 0.0
Co306 Co 0.52682 0.39948 0.41954 0.0
Co307 Co 0.53015 0.37359 0.37371 0.0
C308 C 0.57702 0.47773 0.38956 0.0
O309 O 0.56411 0.46593 0.40732 0.0
O310 O 0.56433 0.4457 0.37545 0.0
C311 C 0.53739 0.41793 0.46242 0.0
O312 O 0.58746 0.39773 0.46096 0.0
C313 C 0.51722 0.39095 0.331 0.0
C314 C 0.4937 0.30783 0.32043 0.0
C315 C 0.50057 0.36207 0.31434 0.0
N316 N 0.52017 0.35543 0.3463 0.0
N317 N 0.5069 0.30563 0.33979 0.0
C318 C 0.52181 0.45244 0.33299 0.0
H319 H 0.50145 0.46613 0.34673 0.0
H320 H 0.50251 0.47431 0.32032 0.0
H321 H 0.56607 0.46414 0.33383 0.0
C322 C 0.40945 0.36937 0.41245 0.0
N323 N 0.46133 0.37717 0.40598 0.0
N324 N 0.46164 0.37269 0.38669 0.0
C325 C 0.40944 0.36637 0.38005 0.0
C326 C 0.37409 0.36294 0.39619 0.0
C327 C 0.39533 0.3657 0.4339 0.0
H328 H 0.42934 0.34517 0.44213 0.0
H329 H 0.39067 0.40796 0.43994 0.0
H330 H 0.35652 0.34203 0.43615 0.0
O331 O 0.5818 0.33947 0.41887 0.0
O332 O 0.58447 0.32243 0.38652 0.0
H333 H 0.39367 0.33185 0.35147 0.0
H334 H 0.35213 0.39168 0.35699 0.0
C335 C 0.39348 0.37284 0.35875 0.0
H336 H 0.42304 0.4004 0.35124 0.0
H337 H 0.50417 0.27066 0.34878 0.0
O338 O 0.50691 0.42085 0.44708 0.0
C339 C 0.60178 0.31379 0.40414 0.0
Co340 Co 0.05129 0.55705 0.92452 0.0
Co341 Co 0.06288 0.54078 0.87812 0.0
C342 C 0.96415 0.59357 0.89451 0.0
O343 O 0.9833 0.589 0.91201 0.0
O344 O 0.98992 0.57412 0.87981 0.0
C345 C 0.98735 0.54237 0.95945 0.0
O346 O 0.94747 0.53992 0.94624 0.0
C347 C 0.04301 0.51069 0.83629 0.0
C348 C 0.12541 0.48129 0.82747 0.0
C349 C 0.07133 0.48597 0.82087 0.0
N350 N 0.07841 0.51859 0.85146 0.0
N351 N 0.12777 0.5017 0.84594 0.0
C352 C 0.9837 0.52783 0.83659 0.0
H353 H 0.98067 0.57013 0.84264 0.0
H354 H 0.96018 0.49955 0.84636 0.0
H355 H 0.96503 0.52784 0.8216 0.0
C356 C 0.07757 0.43755 0.92313 0.0
N357 N 0.06921 0.48656 0.91419 0.0
N358 N 0.06793 0.47912 0.89501 0.0
C359 C 0.07142 0.42481 0.8911 0.0
C360 C 0.07899 0.39624 0.9088 0.0
C361 C 0.08485 0.43126 0.94498 0.0
H362 H 0.10757 0.46745 0.951 0.0
H363 H 0.04368 0.42973 0.95206 0.0
H364 H 0.10785 0.39299 0.94865 0.0
O365 O 0.11055 0.61135 0.91855 0.0
O366 O 0.11654 0.59972 0.886 0.0
H367 H 0.09586 0.39651 0.86255 0.0
H368 H 0.03744 0.35973 0.87265 0.0
C369 C 0.05756 0.40075 0.87129 0.0
H370 H 0.02849 0.42806 0.86329 0.0
H371 H 0.16268 0.5022 0.85506 0.0
O372 O 0.03676 0.55027 0.95366 0.0
C373 C 0.13102 0.62451 0.90185 0.0
Co374 Co 0.95978 0.07889 0.42654 0.0
Co375 Co 0.96186 0.07211 0.37991 0.0
C376 C 0.91194 0.98255 0.40212 0.0
O377 O 0.92157 0.00945 0.41796 0.0
O378 O 0.92911 -3e-05 0.38555 0.0
C379 C 0.99707 0.02553 0.46112 0.0
O380 O 0.01412 0.99135 0.44744 0.0
C381 C 0.97936 0.04155 0.33829 0.0
C382 C 0.99128 0.12342 0.32442 0.0
C383 C 0.9915 0.06732 0.32051 0.0
N384 N 0.97333 0.08067 0.35216 0.0
N385 N 0.97986 0.12951 0.34371 0.0
C386 C 0.97144 0.98105 0.34204 0.0
H387 H 0.92959 0.97409 0.34812 0.0
H388 H 0.00179 0.96676 0.35326 0.0
H389 H 0.97542 0.95631 0.32839 0.0
C390 C 0.07864 0.1056 0.41922 0.0
N391 N 0.02747 0.09163 0.41296 0.0
N392 N 0.02867 0.08324 0.39383 0.0
C393 C 0.08086 0.08834 0.38742 0.0
C394 C 0.11471 0.10405 0.40319 0.0
C395 C 0.09154 0.12225 0.44 0.0
H396 H 0.05502 0.14219 0.44671 0.0
H397 H 0.10155 0.0849 0.44883 0.0
H398 H 0.12727 0.1511 0.44052 0.0
O399 O 0.90557 0.13779 0.42032 0.0
O400 O 0.90639 0.12814 0.38764 0.0
H401 H 0.09586 0.10648 0.35696 0.0
H402 H 0.14112 0.05446 0.36729 0.0
C403 C 0.09844 0.07078 0.36723 0.0
H404 H 0.07096 0.03754 0.36177 0.0
H405 H 0.97774 0.167 0.35123 0.0
O406 O 0.97279 0.06972 0.45571 0.0
C407 C 0.88734 0.15056 0.40318 0.0
Co408 Co 0.43287 0.53503 0.11709 0.0
Co409 Co 0.38018 0.53338 0.1597 0.0
C410 C 0.49432 0.58026 0.15125 0.0
O411 O 0.49405 0.56841 0.13293 0.0
O412 O 0.4536 0.56766 0.16213 0.0
C413 C 0.50216 0.54256 0.08229 0.0
O414 O 0.53424 0.57239 0.09382 0.0
C415 C 0.39094 0.49317 0.19957 0.0
C416 C 0.30922 0.50695 0.21286 0.0
C417 C 0.36127 0.48557 0.2168 0.0
N418 N 0.35824 0.51791 0.18615 0.0
N419 N 0.30948 0.52655 0.19419 0.0
C420 C 0.44758 0.4723 0.19504 0.0
H421 H 0.45205 0.46538 0.17895 0.0
H422 H 0.45602 0.43323 0.2031 0.0
H423 H 0.47857 0.50367 0.19966 0.0
C424 C 0.41167 0.41382 0.1222 0.0
N425 N 0.40811 0.46677 0.1282 0.0
N426 N 0.38098 0.46803 0.14491 0.0
C427 C 0.36362 0.41684 0.14952 0.0
C428 C 0.38348 0.38018 0.13559 0.0
C429 C 0.44622 0.39575 0.10518 0.0
H430 H 0.47996 0.42589 0.10251 0.0
H431 H 0.46444 0.35448 0.10798 0.0
H432 H 0.4199 0.39341 0.09173 0.0
O433 O 0.37192 0.59175 0.11681 0.0
O434 O 0.33442 0.5892 0.14682 0.0
H435 H 0.30278 0.36496 0.16369 0.0
H436 H 0.3508 0.39886 0.18013 0.0
C437 C 0.3261 0.40381 0.16641 0.0
H438 H 0.29644 0.43801 0.16853 0.0
H439 H 0.27613 0.54464 0.18683 0.0
O440 O 0.45725 0.52311 0.08916 0.0
C441 C 0.33742 0.60958 0.12948 0.0
Co442 Co 0.97219 0.40216 0.60854 0.0
Co443 Co 0.96594 0.37168 0.65396 0.0
C444 C 0.9245 0.47982 0.63775 0.0
O445 O 0.93882 0.46826 0.62022 0.0
O446 O 0.93416 0.44682 0.65197 0.0
C447 C 0.9509 0.44722 0.57053 0.0
O448 O 0.90505 0.46138 0.5794 0.0
C449 C 0.00485 0.3916 0.69406 0.0
C450 C 0.96673 0.32415 0.71127 0.0
C451 C 1e-05 0.37071 0.7131 0.0
N452 N 0.97638 0.3587 0.68163 0.0
N453 N 0.95377 0.31831 0.69199 0.0
C454 C 0.03308 0.44393 0.6878 0.0
H455 H 0.01968 0.45656 0.67281 0.0
H456 H 0.07833 0.4373 0.68737 0.0
H457 H 0.02464 0.47746 0.69849 0.0
C458 C 0.09107 0.38075 0.61688 0.0
N459 N 0.03763 0.38189 0.62224 0.0
N460 N 0.03339 0.36332 0.6404 0.0
C461 C 0.08312 0.3457 0.64667 0.0
C462 C 0.12211 0.3574 0.63222 0.0
C463 C 0.11206 0.40753 0.59843 0.0
H464 H 0.0825 0.43901 0.59301 0.0
H465 H 0.15253 0.42792 0.60109 0.0
H466 H 0.11708 0.37563 0.58687 0.0
O467 O 0.91427 0.34269 0.61022 0.0
O468 O 0.90875 0.3235 0.64244 0.0
H469 H 0.05485 0.28813 0.66861 0.0
H470 H 0.12841 0.28617 0.6641 0.0
C471 C 0.09194 0.31353 0.66535 0.0
H472 H 0.09894 0.34214 0.67785 0.0
H473 H 0.92866 0.28744 0.68597 0.0
O474 O 0.98663 0.41931 0.58011 0.0
C475 C 0.89229 0.31688 0.62466 0.0
Co476 Co 0.0898 0.95674 0.10515 0.0
Co477 Co 0.08397 0.95862 0.15169 0.0
C478 C 0.99735 0.90284 0.12943 0.0
O479 O 0.0233 0.91445 0.11365 0.0
O480 O 0.01414 0.92063 0.14605 0.0
C481 C 0.03153 0.98727 0.07107 0.0
O482 O 0.99696 0.00191 0.08496 0.0
C483 C 0.05189 0.97616 0.19307 0.0
C484 C 0.13314 0.98739 0.20761 0.0
C485 C 0.07685 0.98777 0.21109 0.0
N486 N 0.09165 0.97023 0.17948 0.0
N487 N 0.14011 0.97638 0.18832 0.0
C488 C 0.99158 0.96842 0.18881 0.0
H489 H 0.98453 0.92554 0.18365 0.0
H490 H 0.97858 0.99659 0.17671 0.0
H491 H 0.96582 0.97531 0.20202 0.0
C492 C 0.10954 0.07699 0.1124 0.0
N493 N 0.0981 0.02528 0.11865 0.0
N494 N 0.09098 0.02606 0.13786 0.0
C495 C 0.09528 0.07833 0.14437 0.0
C496 C 0.1085 0.11265 0.12855 0.0
C497 C 0.1234 0.09101 0.09149 0.0
H498 H 0.14449 0.05568 0.08442 0.0
H499 H 0.08466 0.09919 0.08316 0.0
H500 H 0.15021 0.12825 0.09077 0.0
O501 O 0.15265 0.90692 0.11113 0.0
O502 O 0.14356 0.90749 0.14381 0.0
H503 H 0.11732 0.09078 0.1747 0.0
H504 H 0.066 0.1386 0.16549 0.0
C505 C 0.08066 0.09534 0.16492 0.0
H506 H 0.04708 0.06872 0.17054 0.0
H507 H 0.17794 0.97414 0.18109 0.0
O508 O 0.07839 0.96797 0.07617 0.0
C509 C 0.16712 0.89 0.12826 0.0
Co510 Co 0.53878 0.06734 0.61706 0.0
Co511 Co 0.53317 0.11013 0.66105 0.0
C512 C 0.59261 0.00497 0.64918 0.0
O513 O 0.57866 0.00806 0.63107 0.0
O514 O 0.57708 0.04119 0.66152 0.0
C515 C 0.56557 0.0395 0.57653 0.0
O516 O 0.61556 0.05617 0.58137 0.0
C517 C 0.49447 0.09646 0.70171 0.0
C518 C 0.51926 0.1752 0.7156 0.0
C519 C 0.49411 0.12479 0.71953 0.0
N520 N 0.51822 0.12881 0.68795 0.0
N521 N 0.53279 0.1759 0.69635 0.0
C522 C 0.47571 0.03841 0.69793 0.0
H523 H 0.43011 0.03753 0.69632 0.0
H524 H 0.48731 0.01128 0.71052 0.0
H525 H 0.49363 0.02241 0.68409 0.0
C526 C 0.41672 0.07545 0.62205 0.0
N527 N 0.4689 0.08154 0.62879 0.0
N528 N 0.46753 0.10423 0.64636 0.0
C529 C 0.41513 0.11702 0.65082 0.0
C530 C 0.38059 0.09822 0.63577 0.0
C531 C 0.40213 0.04335 0.60387 0.0
H532 H 0.4337 0.01134 0.60111 0.0
H533 H 0.3614 0.0227 0.60532 0.0
H534 H 0.40077 0.07183 0.59102 0.0
O535 O 0.58902 0.13436 0.61806 0.0
O536 O 0.58052 0.16553 0.64885 0.0
H537 H 0.35989 0.17325 0.66547 0.0
H538 H 0.39421 0.12427 0.68137 0.0
C539 C 0.39931 0.15123 0.66827 0.0
H540 H 0.4322 0.18194 0.67156 0.0
H541 H 0.55274 0.20818 0.68901 0.0
O542 O 0.52735 0.04231 0.58925 0.0
C543 C 0.60127 0.16903 0.63166 0.0
H544 H 0.49073 0.92659 0.24273 0.0
H545 H 0.60098 0.0669 0.24478 0.0
H546 H 0.59363 0.06944 0.28077 0.0
H547 H 0.55338 0.03349 0.31171 0.0
H548 H 0.44665 0.89041 0.30953 0.0
H549 H 0.45516 0.88732 0.27367 0.0
C550 C 0.51333 0.95763 0.25104 0.0
C551 C 0.54606 0.99674 0.24101 0.0
C552 C 0.50937 0.95849 0.27177 0.0
C553 C 0.57555 0.03624 0.25208 0.0
C554 C 0.57119 0.03786 0.27269 0.0
C555 C 0.53202 0.00162 0.30338 0.0
C556 C 0.49904 0.96252 0.31335 0.0
C557 C 0.53779 -0.00049 0.28269 0.0
C558 C 0.47228 0.92105 0.30231 0.0
C559 C 0.47704 0.91929 0.28176 0.0
H560 H 0.553 0.54506 0.80712 0.0
H561 H 0.52999 0.36813 0.80489 0.0
H562 H 0.50964 0.37352 0.7698 0.0
H563 H 0.49806 0.42718 0.73959 0.0
H564 H 0.52037 0.60399 0.74062 0.0
H565 H 0.54123 0.59978 0.7761 0.0
C566 C 0.54353 0.50772 0.79895 0.0
C567 C 0.54316 0.4562 0.80885 0.0
C568 C 0.5317 0.51097 0.77846 0.0
C569 C 0.53073 0.40838 0.79788 0.0
C570 C 0.51901 0.41133 0.7777 0.0
C571 C 0.5075 0.46501 0.74748 0.0
C572 C 0.50755 0.51587 0.7373 0.0
C573 C 0.51938 0.46226 0.76783 0.0
C574 C 0.51995 0.56421 0.74797 0.0
C575 C 0.53189 0.5618 0.76831 0.0
H576 H 0.98258 0.51893 0.2294 0.0
H577 H 0.96121 0.34385 0.23925 0.0
H578 H 0.98127 0.35595 0.27421 0.0
H579 H 0.00309 0.41572 0.30231 0.0
H580 H 0.02517 0.5908 0.29315 0.0
H581 H 0.00702 0.57907 0.2578 0.0
C582 C 0.98245 0.48341 0.23919 0.0
C583 C 0.97017 0.43051 0.23155 0.0
C584 C 0.99421 0.49058 0.2595 0.0
C585 C 0.97038 0.38506 0.24455 0.0
C586 C 0.98187 0.3919 0.26464 0.0
C587 C 0.00418 0.45142 0.29262 0.0
C588 C 0.01551 0.50411 0.3005 0.0
C589 C 0.99359 0.44441 0.27231 0.0
C590 C 0.01676 0.54971 0.28757 0.0
C591 C 0.00621 0.54304 0.26732 0.0
H592 H 0.94668 0.01237 0.72962 0.0
H593 H 0.04309 0.86556 0.74025 0.0
H594 H 0.03781 0.88076 0.7758 0.0
H595 H 0.00683 0.93636 0.8039 0.0
H596 H 0.90741 0.08109 0.79334 0.0
H597 H 0.91306 0.0662 0.75775 0.0
C598 C 0.96647 0.98363 0.73971 0.0
C599 C 0.99544 0.93804 0.73226 0.0
C600 C 0.96297 0.99239 0.76016 0.0
C601 C 0.02044 0.90095 0.74557 0.0
C602 C 0.01762 0.90971 0.76591 0.0
C603 C 0.98667 0.96481 0.7938 0.0
C604 C 0.95717 0.01004 0.80124 0.0
C605 C 0.98928 0.95546 0.77337 0.0
C606 C 0.93048 0.04602 0.78798 0.0
C607 C 0.93367 0.03752 0.76763 0.0
H608 H 0.44315 0.06994 0.8088 0.0
H609 H 0.3041 0.98608 0.78225 0.0
H610 H 0.33586 0.01338 0.74935 0.0
H611 H 0.40234 0.06284 0.7283 0.0
H612 H 0.54126 0.14671 0.75508 0.0
H613 H 0.51036 0.11778 0.78777 0.0
C614 C 0.42057 0.05652 0.79578 0.0
C615 C 0.37225 0.0247 0.79787 0.0
C616 C 0.43888 0.0727 0.77699 0.0
C617 C 0.34187 0.00994 0.78095 0.0
C618 C 0.35999 0.02557 0.76216 0.0
C619 C 0.4266 0.07368 0.74121 0.0
C620 C 0.47479 0.10588 0.73918 0.0
C621 C 0.40847 0.05698 0.76 0.0
C622 C 0.50419 0.12172 0.75622 0.0
C623 C 0.48663 0.1051 0.77492 0.0
H624 H 0.40315 0.34875 0.2951 0.0
H625 H 0.5618 0.42894 0.29076 0.0
H626 H 0.5328 0.47443 0.26008 0.0
H627 H 0.461 0.49414 0.23533 0.0
H628 H 0.30134 0.41589 0.23991 0.0
H629 H 0.33136 0.36783 0.26995 0.0
C630 C 0.43144 0.37565 0.28723 0.0
C631 C 0.48448 0.38557 0.29502 0.0
C632 C 0.41401 0.40248 0.26986 0.0
C633 C 0.52073 0.42096 0.28495 0.0
C634 C 0.50411 0.44701 0.26749 0.0
C635 C 0.43312 0.46582 0.24269 0.0
C636 C 0.3794 0.45769 0.23521 0.0
C637 C 0.45068 0.43848 0.25991 0.0
C638 C 0.34297 0.42262 0.24538 0.0
C639 C 0.3602 0.39495 0.26248 0.0
H640 H 0.12178 0.48455 0.78534 0.0
H641 H 0.97343 0.43115 0.81475 0.0
H642 H 0.93826 0.39174 0.78402 0.0
H643 H 0.94973 0.37189 0.74868 0.0
H644 H 0.10095 0.41953 0.71988 0.0
H645 H 0.13487 0.46137 0.75033 0.0
C646 C 0.08162 0.46455 0.78496 0.0
C647 C 0.04937 0.46281 0.80213 0.0
C648 C 0.06215 0.4408 0.76731 0.0
C649 C -0.00204 0.4356 0.80155 0.0
C650 C 0.97813 0.41225 0.78402 0.0
C651 C 0.99014 0.39138 0.74909 0.0
C652 C 0.02193 0.3941 0.73182 0.0
C653 C 0.0098 0.41472 0.76679 0.0
C654 C 0.07449 0.41891 0.73266 0.0
C655 C 0.09428 0.44231 0.75018 0.0
H656 H 0.10233 0.95121 0.24771 0.0
H657 H 0.99565 0.06364 0.21626 0.0
H658 H 0.95758 0.09633 0.24744 0.0
H659 H 0.95805 0.09607 0.2838 0.0
H660 H 0.06588 0.98471 0.31525 0.0
H661 H 0.09993 0.94815 0.28404 0.0
C662 C 0.0703 0.98241 0.24776 0.0
C663 C 0.05091 0.00423 0.2298 0.0
C664 C 0.04892 0.00117 0.26574 0.0
C665 C 0.00996 0.04512 0.22993 0.0
C666 C 0.98862 0.0642 0.24774 0.0
C667 C 0.98854 0.06336 0.28374 0.0
C668 C 0.00864 0.04224 0.3017 0.0
C669 C 0.00813 0.04286 0.26574 0.0
C670 C 0.04863 0.00039 0.30156 0.0
C671 C 0.06851 0.9799 0.28373 0.0
H672 H 0.70035 0.16528 0.18268 0.0
H673 H 0.69046 0.14395 0.11943 0.0
H674 H 0.7441 0.22799 0.11461 0.0
H675 H 0.79095 0.30881 0.12799 0.0
H676 H 0.80461 0.33064 0.19104 0.0
H677 H 0.75172 0.24526 0.19626 0.0
C678 C 0.71049 0.17859 0.16785 0.0
C679 C 0.69104 0.14818 0.15145 0.0
C680 C 0.74124 0.22747 0.16511 0.0
C681 C 0.70461 0.16634 0.13234 0.0
C682 C 0.73512 0.21465 0.12954 0.0
C683 C 0.78202 0.29534 0.14292 0.0
C684 C 0.80098 0.32662 0.15911 0.0
C685 C 0.75285 0.2459 0.14578 0.0
C686 C 0.79003 0.30765 0.17832 0.0
C687 C 0.76002 0.25873 0.1813 0.0
H688 H 0.2035 0.80446 0.63269 0.0
H689 H 0.13053 0.72516 0.68331 0.0
H690 H 0.21546 0.67296 0.68907 0.0
H691 H 0.31043 0.64862 0.67928 0.0
H692 H 0.38262 0.7288 0.62869 0.0
H693 H 0.29894 0.78307 0.62374 0.0
C694 C 0.20592 0.77512 0.64479 0.0
C695 C 0.1605 0.76798 0.65734 0.0
C696 C 0.25533 0.74642 0.64833 0.0
C697 C 0.16478 0.73091 0.6733 0.0
C698 C 0.21347 0.7014 0.67671 0.0
C699 C 0.30824 0.67908 0.66753 0.0
C700 C 0.35277 0.6852 0.65451 0.0
C701 C 0.25922 0.70907 0.6644 0.0
C702 C 0.34897 0.7238 0.63901 0.0
C703 C 0.30093 0.75438 0.63603 0.0
H704 H 0.83584 0.21099 0.9015 0.0
H705 H 0.73441 0.14192 0.85521 0.0
H706 H 0.68574 0.23011 0.8515 0.0
H707 H 0.67129 0.32656 0.86208 0.0
H708 H 0.7769 0.39574 0.90736 0.0
H709 H 0.82611 0.30849 0.91031 0.0
C710 C 0.80235 0.21512 0.89087 0.0
C711 C 0.78732 0.16992 0.87906 0.0
C712 C 0.77645 0.26635 0.88827 0.0
C713 C 0.74556 0.17609 0.86475 0.0
C714 C 0.71827 0.22656 0.86249 0.0
C715 C 0.70601 0.32294 0.8722 0.0
C716 C 0.72038 0.3676 0.88448 0.0
C717 C 0.73357 0.27213 0.87412 0.0
C718 C 0.76503 0.36199 0.89773 0.0
C719 C 0.79283 0.31194 0.89959 0.0
H720 H 0.17542 0.6851 0.35629 0.0
H721 H 0.11718 0.72037 0.41506 0.0
H722 H 0.20085 0.77272 0.42205 0.0
H723 H 0.29249 0.80443 0.41239 0.0
H724 H 0.35071 0.7745 0.35342 0.0
H725 H 0.26538 0.72359 0.34567 0.0
C726 C 0.18056 0.70502 0.3705 0.0
C727 C 0.13999 0.69824 0.38515 0.0
C728 C 0.22927 0.7351 0.37455 0.0
C729 C 0.14761 0.72446 0.4035 0.0
C730 C 0.1957 0.75423 0.40759 0.0
C731 C 0.28676 0.78632 0.39788 0.0
C732 C 0.32827 0.79207 0.38363 0.0
C733 C 0.23725 0.75874 0.39341 0.0
C734 C 0.31956 0.76992 0.36471 0.0
C735 C 0.27072 0.74109 0.36027 0.0
H736 H 0.15074 0.70367 0.92971 0.0
H737 H 0.19168 0.6574 0.87007 0.0
H738 H 0.24269 0.74356 0.86583 0.0
H739 H 0.27497 0.8324 0.87878 0.0
H740 H 0.2361 0.87851 0.93857 0.0
H741 H 0.18418 0.7925 0.94285 0.0
C742 C 0.17137 0.71206 0.91586 0.0
C743 C 0.16739 0.67383 0.90027 0.0
C744 C 0.20023 0.76214 0.9134 0.0
C745 C 0.19402 0.68587 0.88236 0.0
C746 C 0.223 0.73534 0.87986 0.0
C747 C 0.2545 0.82409 0.89267 0.0
C748 C 0.25898 0.86221 0.90826 0.0
C749 C 0.22588 0.77402 0.8952 0.0
C750 C 0.23304 0.85011 0.92628 0.0
C751 C 0.20362 0.80076 0.92878 0.0
H752 H 0.8123 0.17906 0.4313 0.0
H753 H 0.85216 0.20264 0.3698 0.0
H754 H 0.76584 0.25191 0.36453 0.0
H755 H 0.67825 0.28642 0.37698 0.0
H756 H 0.63795 0.26555 0.4385 0.0
H757 H 0.72479 0.21628 0.44405 0.0
C758 C 0.80249 0.19573 0.41682 0.0
C759 C 0.83878 0.18714 0.40099 0.0
C760 C 0.75221 0.22355 0.41378 0.0
C761 C 0.82505 0.20854 0.38227 0.0
C762 C 0.7755 0.2365 0.37919 0.0
C763 C 0.68801 0.27048 0.39157 0.0
C764 C 0.65128 0.27902 0.40724 0.0
C765 C 0.73844 0.24351 0.39475 0.0
C766 C 0.66528 0.25911 0.42613 0.0
C767 C 0.71509 0.23125 0.42935 0.0
H768 H 0.20403 0.81866 0.0999 0.0
H769 H 0.21915 0.85767 0.16192 0.0
H770 H 0.27154 0.7737 0.16754 0.0
H771 H 0.30832 0.687 0.15557 0.0
H772 H 0.29826 0.64715 0.09366 0.0
H773 H 0.24812 0.73351 0.08729 0.0
C774 C 0.21966 0.80926 0.11456 0.0
C775 C 0.20714 0.84429 0.13048 0.0
C776 C 0.24966 0.7603 0.1178 0.0
C777 C 0.22768 0.83135 0.14941 0.0
C778 C 0.25748 0.78315 0.15269 0.0
C779 C 0.29473 0.69688 0.14068 0.0
C780 C 0.30573 0.66025 0.12517 0.0
C781 C 0.26751 0.74679 0.13712 0.0
C782 C 0.2895 0.67446 0.10587 0.0
C783 C 0.26112 0.72387 0.10224 0.0
H784 H 0.68631 0.1651 0.60524 0.0
H785 H 0.61878 0.263 0.65243 0.0
H786 H 0.70326 0.3175 0.65403 0.0
H787 H 0.79928 0.33117 0.64464 0.0
H788 H 0.86818 0.23767 0.59685 0.0
H789 H 0.78033 0.18711 0.59291 0.0
C790 C 0.6896 0.19929 0.6155 0.0
C791 C 0.6465 0.2095 0.62886 0.0
C792 C 0.73894 0.23021 0.61657 0.0
C793 C 0.65148 0.25388 0.64211 0.0
C794 C 0.69992 0.2849 0.64315 0.0
C795 C 0.79499 0.29959 0.63338 0.0
C796 C 0.84013 0.28676 0.62141 0.0
C797 C 0.74448 0.27211 0.63097 0.0
C798 C 0.83392 0.24731 0.60643 0.0
C799 C 0.78377 0.21869 0.60416 0.0
H800 H 0.579 0.63216 0.13177 0.0
H801 H 0.49923 0.62245 0.18852 0.0
H802 H 0.53394 0.71362 0.19696 0.0
H803 H 0.56503 0.80356 0.18455 0.0
H804 H 0.65225 0.81269 0.1294 0.0
H805 H 0.63626 0.71407 0.124 0.0
C806 C 0.57092 0.649 0.14628 0.0
C807 C 0.53423 0.62157 0.15905 0.0
C808 C 0.59075 0.702 0.15109 0.0
C809 C 0.5258 0.64334 0.17806 0.0
C810 C 0.54534 0.69583 0.18291 0.0
C811 C 0.58276 0.78376 0.17177 0.0
C812 C 0.60734 0.81583 0.15692 0.0
C813 C 0.57446 0.72693 0.16897 0.0
C814 C 0.63074 0.78912 0.1406 0.0
C815 C 0.62186 0.73271 0.13754 0.0
H816 H 0.84761 0.50705 0.61129 0.0
H817 H 0.90073 0.54114 0.67087 0.0
H818 H 0.81117 0.58421 0.67775 0.0
H819 H 0.7129 0.59815 0.66799 0.0
H820 H 0.6591 0.53566 0.61128 0.0
H821 H 0.75303 0.51945 0.60193 0.0
C822 C 0.84052 0.52555 0.62562 0.0
C823 C 0.88081 0.5213 0.64049 0.0
C824 C 0.78777 0.54469 0.63 0.0
C825 C 0.87036 0.5444 0.65911 0.0
C826 C 0.81891 0.56823 0.66311 0.0
C827 C 0.72168 0.58075 0.65365 0.0
C828 C 0.67828 0.57002 0.6402 0.0
C829 C 0.77628 0.56602 0.64892 0.0
C830 C 0.69101 0.54766 0.62163 0.0
C831 C 0.74512 0.53719 0.61631 0.0
H832 H 0.90612 0.66798 0.11775 0.0
H833 H 0.87603 0.68195 0.1802 0.0
H834 H 0.89868 0.78056 0.17874 0.0
H835 H 0.94012 0.85819 0.16033 0.0
H836 H 0.96357 0.84318 0.0974 0.0
H837 H 0.92576 0.7501 0.09825 0.0
C838 C 0.90188 0.69266 0.13094 0.0
C839 C 0.89021 0.66726 0.14913 0.0
C840 C 0.91338 0.74926 0.12987 0.0
C841 C 0.88653 0.70019 0.16611 0.0
C842 C 0.89899 0.75664 0.16525 0.0
C843 C 0.93546 0.83528 0.14669 0.0
C844 C 0.95656 0.85708 0.12895 0.0
C845 C 0.91451 0.78111 0.1473 0.0
C846 C 0.94882 0.82719 0.11136 0.0
C847 C 0.92763 0.77362 0.11183 0.0
H848 H 0.6381 0.92156 0.62753 0.0
H849 H 0.64913 0.00315 0.68409 0.0
H850 H 0.73967 0.9632 0.68979 0.0
H851 H 0.82172 0.92146 0.67585 0.0
H852 H 0.81059 0.83216 0.62096 0.0
H853 H 0.71413 0.86049 0.61717 0.0
C854 C 0.65958 0.92935 0.64135 0.0
C855 C 0.63742 0.96672 0.65507 0.0
C856 C 0.71216 0.90645 0.64456 0.0
C857 C 0.66539 0.97536 0.67308 0.0
C858 C 0.71753 0.95287 0.67632 0.0
C859 C 0.79794 0.90583 0.66348 0.0
C860 C 0.82386 0.87552 0.64853 0.0
C861 C 0.74232 0.92073 0.66173 0.0
C862 C 0.79209 0.85701 0.63239 0.0
C863 C 0.73683 0.87284 0.63029 0.0
H864 H 0.60266 0.72617 0.86995 0.0
H865 H 0.54855 0.6728 0.92751 0.0
H866 H 0.51385 0.76429 0.93447 0.0
H867 H 0.48846 0.85531 0.92306 0.0
H868 H 0.52854 0.90711 0.86388 0.0
H869 H 0.5797 0.82124 0.85878 0.0
C870 C 0.58355 0.73495 0.88402 0.0
C871 C 0.57935 0.69305 0.89834 0.0
C872 C 0.56104 0.78745 0.88763 0.0
C873 C 0.55418 0.70469 0.91648 0.0
C874 C 0.5337 0.75697 0.92043 0.0
C875 C 0.50962 0.8487 0.9092 0.0
C876 C 0.50459 0.88746 0.89387 0.0
C877 C 0.53592 0.79826 0.906 0.0
C878 C 0.53174 0.87776 0.87593 0.0
C879 C 0.56055 0.82848 0.87294 0.0
H880 H 0.63998 0.48592 0.35719 0.0
H881 H 0.61017 0.56514 0.41309 0.0
H882 H 0.69605 0.61831 0.40946 0.0
H883 H 0.78692 0.62806 0.39338 0.0
H884 H 0.82222 0.52682 0.34265 0.0
H885 H 0.72626 0.49939 0.34049 0.0
C886 C 0.65106 0.5159 0.3684 0.0
C887 C 0.61881 0.52108 0.3855 0.0
C888 C 0.70217 0.54245 0.36702 0.0
C889 C 0.6344 0.56008 0.39984 0.0
C890 C 0.68369 0.59014 0.39782 0.0
C891 C 0.77356 0.59997 0.38186 0.0
C892 C 0.81234 0.57907 0.36839 0.0
C893 C 0.71928 0.57928 0.38199 0.0
C894 C 0.79379 0.54453 0.35307 0.0
C895 C 0.73878 0.52787 0.35202 0.0
H896 H 0.83316 0.81234 0.90021 0.0
H897 H 0.92407 0.83665 0.84622 0.0
H898 H 0.94149 0.73893 0.84416 0.0
H899 H 0.95091 0.6522 0.8612 0.0
H900 H 0.88366 0.6315 0.91955 0.0
H901 H 0.83747 0.72112 0.91662 0.0
C902 C 0.85683 0.79625 0.88801 0.0
C903 C 0.87739 0.83248 0.87348 0.0
C904 C 0.8718 0.74022 0.88793 0.0
C905 C 0.90629 0.8104 0.85742 0.0
C906 C 0.91726 0.75418 0.85638 0.0
C907 C 0.92463 0.66615 0.87306 0.0
C908 C 0.92121 0.63548 0.89065 0.0
C909 C 0.9028 0.71939 0.87203 0.0
C910 C 0.88717 0.65456 0.90589 0.0
C911 C 0.86132 0.70606 0.90429 0.0
H912 H 0.6992 0.85178 0.37879 0.0
H913 H 0.64765 0.92484 0.43363 0.0
H914 H 0.74233 0.95011 0.44144 0.0
H915 H 0.83592 0.96567 0.4304 0.0
H916 H 0.88689 0.90624 0.37342 0.0
H917 H 0.79734 0.86054 0.36891 0.0
C918 C 0.70907 0.87283 0.39248 0.0
C919 C 0.66653 0.88626 0.40561 0.0
C920 C 0.76364 0.88991 0.39647 0.0
C921 C 0.67967 0.91302 0.42343 0.0
C922 C 0.73386 0.92801 0.42785 0.0
C923 C 0.8283 0.94133 0.41723 0.0
C924 C 0.86779 0.94009 0.40215 0.0
C925 C 0.77578 0.91837 0.4142 0.0
C926 C 0.85697 0.90827 0.3852 0.0
C927 C 0.80554 0.88262 0.38252 0.0
H928 H 0.4295 0.3827 0.87991 0.0
H929 H 0.51931 0.36375 0.93489 0.0
H930 H 0.4759 0.27482 0.94033 0.0
H931 H 0.42737 0.19609 0.92647 0.0
H932 H 0.32556 0.21646 0.87448 0.0
H933 H 0.36022 0.31103 0.87059 0.0
C934 C 0.43839 0.35981 0.89333 0.0
C935 C 0.47902 0.37931 0.90661 0.0
C936 C 0.41257 0.3084 0.89664 0.0
C937 C 0.48906 0.3496 0.92417 0.0
C938 C 0.46448 0.29835 0.9273 0.0
C939 C 0.41029 0.22152 0.9148 0.0
C940 C 0.37487 0.19841 0.90052 0.0
C941 C 0.42825 0.27633 0.91319 0.0
C942 C 0.35453 0.23253 0.8853 0.0
C943 C 0.37399 0.28676 0.88314 0.0
H944 H 0.1296 0.40563 0.37016 0.0
H945 H 0.13143 0.49249 0.42586 0.0
H946 H 0.22133 0.45569 0.43365 0.0
H947 H 0.30608 0.41685 0.42141 0.0
H948 H 0.30228 0.31255 0.36991 0.0
H949 H 0.20649 0.33947 0.36346 0.0
C950 C 0.14897 0.41499 0.38424 0.0
C951 C 0.12435 0.45321 0.39703 0.0
C952 C 0.20084 0.39227 0.38911 0.0
C953 C 0.1494 0.46385 0.41549 0.0
C954 C 0.2013 0.44315 0.42001 0.0
C955 C 0.28423 0.39719 0.40935 0.0
C956 C 0.3126 0.36478 0.39567 0.0
C957 C 0.22849 0.40976 0.40646 0.0
C958 C 0.28241 0.34037 0.38009 0.0
C959 C 0.22741 0.35527 0.37648 0.0
H960 H 0.99493 0.15731 0.92059 0.0
H961 H 0.07065 0.13765 0.8637 0.0
H962 H 0.11827 0.22673 0.86798 0.0
H963 H 0.12383 0.31638 0.88544 0.0
H964 H 0.02685 0.33873 0.93808 0.0
H965 H 0.00574 0.24118 0.93884 0.0
C966 C 0.02371 0.17079 0.90946 0.0
C967 C 0.02953 0.14038 0.89195 0.0
C968 C 0.04721 0.22316 0.9114 0.0
C969 C 0.06556 0.16016 0.87736 0.0
C970 C 0.0924 0.21123 0.87976 0.0
C971 C 0.09824 0.29976 0.89711 0.0
C972 C 0.07658 0.33539 0.91155 0.0
C973 C 0.08114 0.24427 0.8963 0.0
C974 C 0.04512 0.31285 0.92695 0.0
C975 C 0.03204 0.25688 0.9272 0.0
H976 H 0.35776 0.06662 0.37881 0.0
H977 H 0.36729 0.0076 0.439 0.0
H978 H 0.27724 0.04601 0.44579 0.0
H979 H 0.188 0.07307 0.43199 0.0
H980 H 0.18079 0.14737 0.37412 0.0
H981 H 0.27809 0.12557 0.36904 0.0
C982 C 0.34122 0.06407 0.39362 0.0
C983 C 0.36792 0.03147 0.40799 0.0
C984 C 0.28919 0.08708 0.39767 0.0
C985 C 0.34667 0.03043 0.42732 0.0
C986 C 0.29487 0.05222 0.43129 0.0
C987 C 0.20776 0.08722 0.41863 0.0
C988 C 0.17609 0.10876 0.403 0.0
C989 C 0.26424 0.07707 0.41616 0.0
C990 C 0.20348 0.12736 0.38594 0.0
C991 C 0.2593 0.11541 0.38306 0.0
H992 H 0.42442 0.12579 0.12795 0.0
H993 H 0.45257 0.14449 0.19064 0.0
H994 H 0.41761 0.2385 0.18904 0.0
H995 H 0.40029 0.32 0.16878 0.0
H996 H 0.37057 0.30321 0.10624 0.0
H997 H 0.38744 0.2037 0.10872 0.0
C998 C 0.42135 0.14975 0.1414 0.0
C999 C 0.44295 0.12865 0.15928 0.0
C1000 C 0.40314 0.20461 0.14026 0.0
C1001 C 0.43726 0.15985 0.17661 0.0
C1002 C 0.41788 0.21397 0.17567 0.0
C1003 C 0.39511 0.29453 0.15578 0.0
C1004 C 0.38479 0.31912 0.13729 0.0
C1005 C 0.40401 0.23763 0.1574 0.0
C1006 C 0.3798 0.28538 0.12056 0.0
C1007 C 0.38898 0.2285 0.12201 0.0
H1008 H 0.37387 0.40897 0.62475 0.0
H1009 H 0.35304 0.44263 0.68684 0.0
H1010 H 0.26122 0.40187 0.68575 0.0
H1011 H 0.18108 0.37905 0.66557 0.0
H1012 H 0.20124 0.33659 0.60424 0.0
H1013 H 0.2994 0.36031 0.60653 0.0
C1014 C 0.34997 0.40563 0.63819 0.0
C1015 C 0.36951 0.43055 0.65567 0.0
C1016 C 0.29665 0.38263 0.63745 0.0
C1017 C 0.33875 0.42465 0.67308 0.0
C1018 C 0.28586 0.40184 0.67245 0.0
C1019 C 0.2069 0.37206 0.65287 0.0
C1020 C 0.18319 0.35764 0.63459 0.0
C1021 C 0.26333 0.38396 0.65446 0.0
C1022 C 0.21796 0.34995 0.6183 0.0
C1023 C 0.2742 0.36299 0.61964 0.0
H1024 H 0.0797 0.35462 0.15579 0.0
H1025 H -8e-05 0.36577 0.09866 0.0
H1026 H 0.03614 0.27619 0.08968 0.0
H1027 H 0.06919 0.18648 0.10148 0.0
H1028 H 0.15925 0.17712 0.1565 0.0
H1029 H 0.13999 0.27442 0.16287 0.0
C1030 C 0.07191 0.33848 0.14111 0.0
C1031 C 0.03476 0.36573 0.12838 0.0
C1032 C 0.09314 0.28657 0.13586 0.0
C1033 C 0.02677 0.34495 0.10913 0.0
C1034 C 0.04723 0.29336 0.10394 0.0
C1035 C 0.08691 0.20599 0.11444 0.0
C1036 C 0.11303 0.17388 0.129 0.0
C1037 C 0.0772 0.2623 0.11772 0.0
C1038 C 0.13634 0.20045 0.14554 0.0
C1039 C 0.12565 0.25618 0.14916 0.0
H1040 H 0.31662 0.07654 0.66749 0.0
H1041 H 0.3068 0.10995 0.605 0.0
H1042 H 0.20909 0.08345 0.60492 0.0
H1043 H 0.13223 0.03651 0.62195 0.0
H1044 H 0.14297 0.0097 0.68494 0.0
H1045 H 0.23368 0.05281 0.6857 0.0
C1046 C 0.29294 0.08065 0.65397 0.0
C1047 C 0.31946 0.09387 0.63618 0.0
C1048 C 0.23679 0.06695 0.65415 0.0
C1049 C 0.2878 0.09784 0.61877 0.0
C1050 C 0.23184 0.08324 0.61875 0.0
C1051 C 0.15369 0.04146 0.63593 0.0
C1052 C 0.13177 0.0177 0.6532 0.0
C1053 C 0.20661 0.06539 0.63625 0.0
C1054 C 0.15929 0.02631 0.6713 0.0
C1055 C 0.21155 0.05053 0.67175 0.0
H1056 H 0.38815 0.91749 1.00252 0.0
H1057 H 0.46349 0.05855 0.97417 0.0
H1058 H 0.51149 0.08208 1.0048 0.0
H1059 H 0.53512 0.06084 0.03941 0.0
H1060 H 0.45976 0.92029 0.06781 0.0
H1061 H 0.40856 0.89874 0.03759 0.0
C1062 C 0.4148 0.95357 1.00305 0.0
C1063 C 0.42232 0.98592 0.98595 0.0
C1064 C 0.4423 0.9671 0.0208 0.0
C1065 C 0.45686 0.03275 0.98702 0.0
C1066 C 0.48452 0.04624 1.00456 0.0
C1067 C 0.50719 0.0257 0.03898 0.0
C1068 C 0.50052 0.99284 0.05596 0.0
C1069 C 0.47803 0.01341 0.02148 0.0
C1070 C 0.46437 0.94732 0.05519 0.0
C1071 C 0.43554 0.93457 0.0378 0.0
H1072 H 0.42214 0.5314 0.53526 0.0
H1073 H 0.57411 0.48288 0.56384 0.0
H1074 H 0.605 0.43922 0.53345 0.0
H1075 H 0.59044 0.41785 0.49822 0.0
H1076 H 0.43855 0.46764 0.46964 0.0
H1077 H 0.40637 0.50775 0.50042 0.0
C1078 C 0.46191 0.51099 0.53485 0.0
C1079 C 0.49522 0.50955 0.55195 0.0
C1080 C 0.47967 0.48643 0.51723 0.0
C1081 C 0.54676 0.48316 0.55115 0.0
C1082 C 0.56479 0.45869 0.53366 0.0
C1083 C 0.55019 0.43724 0.49873 0.0
C1084 C 0.51719 0.43984 0.48153 0.0
C1085 C 0.53175 0.46035 0.51655 0.0
C1086 C 0.46502 0.46504 0.48256 0.0
C1087 C 0.4465 0.48811 0.50019 0.0
H1088 H 0.96556 0.48332 0.05001 0.0
H1089 H 0.79458 0.51958 0.03711 0.0
H1090 H 0.81827 0.54119 1.00305 0.0
H1091 H 0.88691 0.54839 0.97675 0.0
H1092 H 0.05847 0.51606 0.98972 0.0
H1093 H 0.03535 0.49616 0.02415 0.0
C1094 C 0.9336 0.49766 0.04005 0.0
C1095 C 0.87837 0.50084 0.04643 0.0
C1096 C 0.94763 0.51072 0.02043 0.0
C1097 C 0.83744 0.51689 0.03275 0.0
C1098 C 0.85094 0.52939 1.01322 0.0
C1099 C 0.91938 0.53722 0.98711 0.0
C1100 C 0.97436 0.53356 0.98062 0.0
C1101 C 0.90582 0.52616 1.00687 0.0
C1102 C 0.01587 0.51941 0.99431 0.0
C1103 C 0.0026 0.50781 1.014 0.0
H1104 H 0.04486 0.9334 0.47631 0.0
H1105 H 0.96307 0.08335 0.49375 0.0
H1106 H 0.96885 0.05472 0.52842 0.0
H1107 H 0.99288 0.98422 0.55369 0.0
H1108 H 0.07316 0.8342 0.53556 0.0
H1109 H 0.0717 0.86547 0.50128 0.0
C1110 C 0.02854 0.96015 0.48765 0.0
C1111 C 0.00339 0.01045 0.48234 0.0
C1112 C 0.03153 0.94321 0.50749 0.0
C1113 C 0.98259 0.0444 0.49735 0.0
C1114 C 0.9858 0.02798 0.51721 0.0
C1115 C 0.01118 0.95905 0.54228 0.0
C1116 C 0.034 0.90731 0.54723 0.0
C1117 C 0.00972 0.97716 0.52246 0.0
C1118 C 0.05566 0.87426 0.53216 0.0
C1119 C 0.05485 0.89212 0.51255 0.0
H1120 H 0.53984 0.47429 0.99323 0.0
H1121 H 0.69196 0.56354 1.00341 0.0
H1122 H 0.66416 0.58272 0.03725 0.0
H1123 H 0.59674 0.57458 0.06394 0.0
H1124 H 0.44462 0.48496 0.05401 0.0
H1125 H 0.47188 0.46649 0.02 0.0
C1126 C 0.56635 0.49902 1.00266 0.0
C1127 C 0.61739 0.51856 0.99557 0.0
C1128 C 0.55014 0.50981 0.0222 0.0
C1129 C 0.65227 0.54836 1.0084 0.0
C1130 C 0.63638 0.55943 0.02777 0.0
C1131 C 0.56939 0.5511 0.05436 0.0
C1132 C 0.51857 0.53139 0.06158 0.0
C1133 C 0.58541 0.54041 0.03483 0.0
C1134 C 0.48391 0.50079 0.04889 0.0
C1135 C 0.49949 0.49017 0.02941 0.0
H1136 H 0.02992 0.51188 0.48454 0.0
H1137 H 0.88409 0.61307 0.48754 0.0
H1138 H 0.86486 0.57775 0.52062 0.0
H1139 H 0.8896 0.5188 0.5487 0.0
H1140 H 0.03657 0.41885 0.54633 0.0
H1141 H 0.05473 0.45227 0.51287 0.0
C1142 C 0.99343 0.52542 0.49231 0.0
C1143 C 0.95786 0.56428 0.48345 0.0
C1144 C 0.98286 0.50518 0.51142 0.0
C1145 C 0.9119 0.58299 0.49401 0.0
C1146 C 0.90083 0.56273 0.5129 0.0
C1147 C 0.9255 0.50401 0.54087 0.0
C1148 C 0.96153 0.46615 0.55003 0.0
C1149 C 0.93603 0.52387 0.52175 0.0
C1150 C 0.00808 0.4479 0.53965 0.0
C1151 C 0.01853 0.46705 0.52051 0.0
H1152 H 0.93401 0.02481 0.05636 0.0
H1153 H 0.08897 0.95391 0.03844 0.0
H1154 H 0.05714 0.95304 1.00408 0.0
H1155 H 0.98399 0.9701 0.97922 0.0
H1156 H 0.83031 0.04294 0.99732 0.0
H1157 H 0.86225 0.04366 0.03162 0.0
C1158 C 0.96107 0.0094 0.04497 0.0
C1159 C 0.0139 0.98949 0.05004 0.0
C1160 C 0.94244 0.00882 0.02528 0.0
C1161 C 0.0482 0.96961 0.035 0.0
C1162 C 0.02993 0.96892 1.01534 0.0
C1163 C 0.95803 0.98726 0.99063 0.0
C1164 C 0.90541 0.00786 0.98566 0.0
C1165 C 0.97703 0.98823 1.01031 0.0
C1166 C 0.87116 0.02734 1.00074 0.0
C1167 C 0.88949 0.02798 0.02034 0.0
H1168 H 0.55828 0.9379 0.49061 0.0
H1169 H 0.39651 0.88741 0.51 0.0
H1170 H 0.41235 0.93264 0.54176 0.0
H1171 H 0.47212 0.98648 0.56404 0.0
H1172 H 0.63448 0.03618 0.54475 0.0
H1173 H 0.61785 0.99261 0.51277 0.0
C1174 C 0.52601 0.93785 0.50158 0.0
C1175 C 0.47578 0.91033 0.49774 0.0
C1176 C 0.53548 0.96389 0.51985 0.0
C1177 C 0.43546 0.90847 0.51255 0.0
C1178 C 0.44441 0.9345 0.5307 0.0
C1179 C 0.50381 0.9881 0.55282 0.0
C1180 C 0.55447 0.01475 0.55684 0.0
C1181 C 0.49424 0.96239 0.53451 0.0
C1182 C 0.59512 0.01599 0.54212 0.0
C1183 C 0.58568 0.991 0.5238 0.0
loop_
_geom_bond_atom_site_label_1
_geom_bond_atom_site_label_2
_geom_bond_distance
_geom_bond_site_symmetry_2
_ccdc_geom_bond_type
Co0 O3 1.970 . S
Co0 N17 1.989 1_545 S
Co0 O25 1.967 . S
Co0 O32 1.920 . S
Co1 O4 1.966 . S
Co1 N10 2.022 . S
Co1 N18 1.993 1_545 S
Co1 O26 1.941 . S
C2 O3 1.258 . S
C2 O4 1.263 . S
O3 Co0 1.970 . S
O3 C2 1.258 . S
O4 Co1 1.966 . S
O4 C2 1.263 . S
C5 O6 1.235 . S
C5 O32 1.289 . S
O6 C5 1.235 . S
C7 C9 1.400 . S
C7 N10 1.351 . S
C7 C12 1.501 . S
C8 C9 1.387 . S
C8 N11 1.341 . S
C9 C7 1.400 . S
C9 C8 1.387 . S
N10 Co1 2.022 . S
N10 C7 1.351 . S
N10 N11 1.365 . S
N11 C8 1.341 . S
N11 N10 1.365 . S
N11 H31 0.862 . S
C12 C7 1.501 . S
C12 H13 0.961 . S
C12 H14 0.961 . S
C12 H15 0.960 . S
H13 C12 0.961 . S
H14 C12 0.961 . S
H15 C12 0.960 . S
C16 N17 1.342 . S
C16 C20 1.401 . S
C16 C21 1.499 . S
N17 Co0 1.989 1_565 S
N17 C16 1.342 . S
N17 N18 1.388 . S
N18 Co1 1.993 1_565 S
N18 N17 1.388 . S
N18 C19 1.346 . S
C19 N18 1.346 . S
C19 C20 1.396 . S
C19 C29 1.510 . S
C20 C16 1.401 . S
C20 C19 1.396 . S
C21 C16 1.499 . S
C21 H22 0.959 . S
C21 H23 0.960 . S
C21 H24 0.961 . S
H22 C21 0.959 . S
H23 C21 0.960 . S
H24 C21 0.961 . S
O25 Co0 1.967 . S
O25 C33 1.258 . S
O26 Co1 1.941 . S
O26 C33 1.266 . S
H27 C29 0.959 . S
H28 C29 0.961 . S
C29 C19 1.510 . S
C29 H27 0.959 . S
C29 H28 0.961 . S
C29 H30 0.960 . S
H30 C29 0.960 . S
H31 N11 0.862 . S
O32 Co0 1.920 . S
O32 C5 1.289 . S
C33 O25 1.258 . S
C33 O26 1.266 . S
Co34 O37 1.970 . S
Co34 N51 1.989 . S
Co34 O59 1.967 . S
Co34 O66 1.920 . S
Co35 O38 1.966 . S
Co35 N44 2.022 . S
Co35 N52 1.993 . S
Co35 O60 1.941 . S
C36 O37 1.258 . S
C36 O38 1.263 . S
O37 Co34 1.970 . S
O37 C36 1.258 . S
O38 Co35 1.966 . S
O38 C36 1.263 . S
C39 O40 1.235 . S
C39 O66 1.289 . S
O40 C39 1.235 . S
C41 C43 1.400 . S
C41 N44 1.351 . S
C41 C46 1.501 . S
C42 C43 1.387 . S
C42 N45 1.341 . S
C43 C41 1.400 . S
C43 C42 1.387 . S
N44 Co35 2.022 . S
N44 C41 1.351 . S
N44 N45 1.365 . S
N45 C42 1.341 . S
N45 N44 1.365 . S
N45 H65 0.862 . S
C46 C41 1.501 . S
C46 H47 0.961 . S
C46 H48 0.961 . S
C46 H49 0.960 . S
H47 C46 0.961 . S
H48 C46 0.961 . S
H49 C46 0.960 . S
C50 N51 1.342 . S
C50 C54 1.401 . S
C50 C55 1.499 . S
N51 Co34 1.989 . S
N51 C50 1.342 . S
N51 N52 1.388 . S
N52 Co35 1.993 . S
N52 N51 1.388 . S
N52 C53 1.346 . S
C53 N52 1.346 . S
C53 C54 1.396 . S
C53 C63 1.510 . S
C54 C50 1.401 . S
C54 C53 1.396 . S
C55 C50 1.499 . S
C55 H56 0.959 . S
C55 H57 0.960 . S
C55 H58 0.961 . S
H56 C55 0.959 . S
H57 C55 0.960 . S
H58 C55 0.961 . S
O59 Co34 1.967 . S
O59 C67 1.258 . S
O60 Co35 1.941 . S
O60 C67 1.266 . S
H61 C63 0.959 . S
H62 C63 0.961 . S
C63 C53 1.510 . S
C63 H61 0.959 . S
C63 H62 0.961 . S
C63 H64 0.960 . S
H64 C63 0.960 . S
H65 N45 0.862 . S
O66 Co34 1.920 . S
O66 C39 1.289 . S
C67 O59 1.258 . S
C67 O60 1.266 . S
Co68 O71 1.970 1_655 S
Co68 N85 1.989 . S
Co68 O93 1.967 . S
Co68 O100 1.920 . S
Co69 O72 1.966 . S
Co69 N78 2.022 . S
Co69 N86 1.993 . S
Co69 O94 1.941 . S
C70 O71 1.258 . S
C70 O72 1.263 1_455 S
O71 Co68 1.970 1_455 S
O71 C70 1.258 . S
O72 Co69 1.966 . S
O72 C70 1.263 1_655 S
C73 O74 1.235 1_655 S
C73 O100 1.289 . S
O74 C73 1.235 1_455 S
C75 C77 1.400 . S
C75 N78 1.351 . S
C75 C80 1.501 1_655 S
C76 C77 1.387 . S
C76 N79 1.341 . S
C77 C75 1.400 . S
C77 C76 1.387 . S
N78 Co69 2.022 . S
N78 C75 1.351 . S
N78 N79 1.365 . S
N79 C76 1.341 . S
N79 N78 1.365 . S
N79 H99 0.862 . S
C80 C75 1.501 1_455 S
C80 H81 0.961 . S
C80 H82 0.961 . S
C80 H83 0.960 . S
H81 C80 0.961 . S
H82 C80 0.961 . S
H83 C80 0.960 . S
C84 N85 1.342 . S
C84 C88 1.401 . S
C84 C89 1.499 . S
N85 Co68 1.989 . S
N85 C84 1.342 . S
N85 N86 1.388 . S
N86 Co69 1.993 . S
N86 N85 1.388 . S
N86 C87 1.346 . S
C87 N86 1.346 . S
C87 C88 1.396 . S
C87 C97 1.510 . S
C88 C84 1.401 . S
C88 C87 1.396 . S
C89 C84 1.499 . S
C89 H90 0.959 . S
C89 H91 0.960 1_655 S
C89 H92 0.961 . S
H90 C89 0.959 . S
H91 C89 0.960 1_455 S
H92 C89 0.961 . S
O93 Co68 1.967 . S
O93 C101 1.258 . S
O94 Co69 1.941 . S
O94 C101 1.266 . S
H95 C97 0.959 . S
H96 C97 0.961 1_455 S
C97 C87 1.510 . S
C97 H95 0.959 . S
C97 H96 0.961 1_655 S
C97 H98 0.960 . S
H98 C97 0.960 . S
H99 N79 0.862 . S
O100 Co68 1.920 . S
O100 C73 1.289 . S
C101 O93 1.258 . S
C101 O94 1.266 . S
Co102 O105 1.970 1_565 S
Co102 N119 1.989 1_455 S
Co102 O127 1.967 . S
Co102 O134 1.920 . S
Co103 O106 1.966 . S
Co103 N112 2.022 . S
Co103 N120 1.993 1_455 S
Co103 O128 1.941 . S
C104 O105 1.258 . S
C104 O106 1.263 1_545 S
O105 Co102 1.970 1_545 S
O105 C104 1.258 . S
O106 Co103 1.966 . S
O106 C104 1.263 1_565 S
C107 O108 1.235 1_565 S
C107 O134 1.289 . S
O108 C107 1.235 1_545 S
C109 C111 1.400 . S
C109 N112 1.351 . S
C109 C114 1.501 1_565 S
C110 C111 1.387 . S
C110 N113 1.341 . S
C111 C109 1.400 . S
C111 C110 1.387 . S
N112 Co103 2.022 . S
N112 C109 1.351 . S
N112 N113 1.365 . S
N113 C110 1.341 . S
N113 N112 1.365 . S
N113 H133 0.862 . S
C114 C109 1.501 1_545 S
C114 H115 0.961 . S
C114 H116 0.961 . S
C114 H117 0.960 . S
H115 C114 0.961 . S
H116 C114 0.961 . S
H117 C114 0.960 . S
C118 N119 1.342 . S
C118 C122 1.401 . S
C118 C123 1.499 . S
N119 Co102 1.989 1_655 S
N119 C118 1.342 . S
N119 N120 1.388 . S
N120 Co103 1.993 1_655 S
N120 N119 1.388 . S
N120 C121 1.346 . S
C121 N120 1.346 . S
C121 C122 1.396 . S
C121 C131 1.510 . S
C122 C118 1.401 . S
C122 C121 1.396 . S
C123 C118 1.499 . S
C123 H124 0.959 . S
C123 H125 0.960 1_565 S
C123 H126 0.961 . S
H124 C123 0.959 . S
H125 C123 0.960 1_545 S
H126 C123 0.961 . S
O127 Co102 1.967 . S
O127 C135 1.258 . S
O128 Co103 1.941 . S
O128 C135 1.266 . S
H129 C131 0.959 . S
H130 C131 0.961 1_545 S
C131 C121 1.510 . S
C131 H129 0.959 . S
C131 H130 0.961 1_565 S
C131 H132 0.960 . S
H132 C131 0.960 . S
H133 N113 0.862 . S
O134 Co102 1.920 . S
O134 C107 1.289 . S
C135 O127 1.258 . S
C135 O128 1.266 . S
Co136 O139 1.970 . S
Co136 N153 1.989 . S
Co136 O161 1.967 . S
Co136 O168 1.920 . S
Co137 O140 1.966 . S
Co137 N146 2.022 . S
Co137 N154 1.993 . S
Co137 O162 1.941 . S
C138 O139 1.258 . S
C138 O140 1.263 . S
O139 Co136 1.970 . S
O139 C138 1.258 . S
O140 Co137 1.966 . S
O140 C138 1.263 . S
C141 O142 1.235 . S
C141 O168 1.289 . S
O142 C141 1.235 . S
C143 C145 1.400 . S
C143 N146 1.351 . S
C143 C148 1.501 . S
C144 C145 1.387 . S
C144 N147 1.341 . S
C145 C143 1.400 . S
C145 C144 1.387 . S
N146 Co137 2.022 . S
N146 C143 1.351 . S
N146 N147 1.365 . S
N147 C144 1.341 . S
N147 N146 1.365 . S
N147 H167 0.862 . S
C148 C143 1.501 . S
C148 H149 0.961 . S
C148 H150 0.961 . S
C148 H151 0.960 . S
H149 C148 0.961 . S
H150 C148 0.961 . S
H151 C148 0.960 . S
C152 N153 1.342 . S
C152 C156 1.401 . S
C152 C157 1.499 . S
N153 Co136 1.989 . S
N153 C152 1.342 . S
N153 N154 1.388 . S
N154 Co137 1.993 . S
N154 N153 1.388 . S
N154 C155 1.346 . S
C155 N154 1.346 . S
C155 C156 1.396 . S
C155 C165 1.510 . S
C156 C152 1.401 . S
C156 C155 1.396 . S
C157 C152 1.499 . S
C157 H158 0.959 . S
C157 H159 0.960 . S
C157 H160 0.961 . S
H158 C157 0.959 . S
H159 C157 0.960 . S
H160 C157 0.961 . S
O161 Co136 1.967 . S
O161 C169 1.258 . S
O162 Co137 1.941 . S
O162 C169 1.266 . S
H163 C165 0.959 . S
H164 C165 0.961 . S
C165 C155 1.510 . S
C165 H163 0.959 . S
C165 H164 0.961 . S
C165 H166 0.960 . S
H166 C165 0.960 . S
H167 N147 0.862 . S
O168 Co136 1.920 . S
O168 C141 1.289 . S
C169 O161 1.258 . S
C169 O162 1.266 . S
Co170 O173 1.970 . S
Co170 N187 1.989 1_455 S
Co170 O195 1.967 . S
Co170 O202 1.920 . S
Co171 O174 1.966 . S
Co171 N180 2.022 . S
Co171 N188 1.993 1_455 S
Co171 O196 1.941 . S
C172 O173 1.258 . S
C172 O174 1.263 . S
O173 Co170 1.970 . S
O173 C172 1.258 . S
O174 Co171 1.966 . S
O174 C172 1.263 . S
C175 O176 1.235 . S
C175 O202 1.289 . S
O176 C175 1.235 . S
C177 C179 1.400 . S
C177 N180 1.351 . S
C177 C182 1.501 . S
C178 C179 1.387 . S
C178 N181 1.341 . S
C179 C177 1.400 . S
C179 C178 1.387 . S
N180 Co171 2.022 . S
N180 C177 1.351 . S
N180 N181 1.365 . S
N181 C178 1.341 . S
N181 N180 1.365 . S
N181 H201 0.862 . S
C182 C177 1.501 . S
C182 H183 0.961 . S
C182 H184 0.961 . S
C182 H185 0.960 . S
H183 C182 0.961 . S
H184 C182 0.961 . S
H185 C182 0.960 . S
C186 N187 1.342 . S
C186 C190 1.401 . S
C186 C191 1.499 . S
N187 Co170 1.989 1_655 S
N187 C186 1.342 . S
N187 N188 1.388 . S
N188 Co171 1.993 1_655 S
N188 N187 1.388 . S
N188 C189 1.346 . S
C189 N188 1.346 . S
C189 C190 1.396 . S
C189 C199 1.510 . S
C190 C186 1.401 . S
C190 C189 1.396 . S
C191 C186 1.499 . S
C191 H192 0.959 . S
C191 H193 0.960 . S
C191 H194 0.961 . S
H192 C191 0.959 . S
H193 C191 0.960 . S
H194 C191 0.961 . S
O195 Co170 1.967 . S
O195 C203 1.258 . S
O196 Co171 1.941 . S
O196 C203 1.266 . S
H197 C199 0.959 . S
H198 C199 0.961 . S
C199 C189 1.510 . S
C199 H197 0.959 . S
C199 H198 0.961 . S
C199 H200 0.960 . S
H200 C199 0.960 . S
H201 N181 0.862 . S
O202 Co170 1.920 . S
O202 C175 1.289 . S
C203 O195 1.258 . S
C203 O196 1.266 . S
Co204 O207 1.970 1_655 S
Co204 N221 1.989 1_545 S
Co204 O229 1.967 . S
Co204 O236 1.920 . S
Co205 O208 1.966 . S
Co205 N214 2.022 . S
Co205 N222 1.993 1_545 S
Co205 O230 1.941 . S
C206 O207 1.258 . S
C206 O208 1.263 1_455 S
O207 Co204 1.970 1_455 S
O207 C206 1.258 . S
O208 Co205 1.966 . S
O208 C206 1.263 1_655 S
C209 O210 1.235 1_655 S
C209 O236 1.289 . S
O210 C209 1.235 1_455 S
C211 C213 1.400 . S
C211 N214 1.351 . S
C211 C216 1.501 1_655 S
C212 C213 1.387 . S
C212 N215 1.341 . S
C213 C211 1.400 . S
C213 C212 1.387 . S
N214 Co205 2.022 . S
N214 C211 1.351 . S
N214 N215 1.365 . S
N215 C212 1.341 . S
N215 N214 1.365 . S
N215 H235 0.862 . S
C216 C211 1.501 1_455 S
C216 H217 0.961 . S
C216 H218 0.961 . S
C216 H219 0.960 . S
H217 C216 0.961 . S
H218 C216 0.961 . S
H219 C216 0.960 . S
C220 N221 1.342 . S
C220 C224 1.401 . S
C220 C225 1.499 . S
N221 Co204 1.989 1_565 S
N221 C220 1.342 . S
N221 N222 1.388 . S
N222 Co205 1.993 1_565 S
N222 N221 1.388 . S
N222 C223 1.346 . S
C223 N222 1.346 . S
C223 C224 1.396 . S
C223 C233 1.510 . S
C224 C220 1.401 . S
C224 C223 1.396 . S
C225 C220 1.499 . S
C225 H226 0.959 . S
C225 H227 0.960 1_655 S
C225 H228 0.961 . S
H226 C225 0.959 . S
H227 C225 0.960 1_455 S
H228 C225 0.961 . S
O229 Co204 1.967 . S
O229 C237 1.258 . S
O230 Co205 1.941 . S
O230 C237 1.266 . S
H231 C233 0.959 . S
H232 C233 0.961 1_455 S
C233 C223 1.510 . S
C233 H231 0.959 . S
C233 H232 0.961 1_655 S
C233 H234 0.960 . S
H234 C233 0.960 . S
H235 N215 0.862 . S
O236 Co204 1.920 . S
O236 C209 1.289 . S
C237 O229 1.258 . S
C237 O230 1.266 . S
Co238 O241 1.970 1_565 S
Co238 N255 1.989 . S
Co238 O263 1.967 . S
Co238 O270 1.920 . S
Co239 O242 1.966 . S
Co239 N248 2.022 . S
Co239 N256 1.993 . S
Co239 O264 1.941 . S
C240 O241 1.258 . S
C240 O242 1.263 1_545 S
O241 Co238 1.970 1_545 S
O241 C240 1.258 . S
O242 Co239 1.966 . S
O242 C240 1.263 1_565 S
C243 O244 1.235 1_565 S
C243 O270 1.289 . S
O244 C243 1.235 1_545 S
C245 C247 1.400 . S
C245 N248 1.351 . S
C245 C250 1.501 1_565 S
C246 C247 1.387 . S
C246 N249 1.341 . S
C247 C245 1.400 . S
C247 C246 1.387 . S
N248 Co239 2.022 . S
N248 C245 1.351 . S
N248 N249 1.365 . S
N249 C246 1.341 . S
N249 N248 1.365 . S
N249 H269 0.862 . S
C250 C245 1.501 1_545 S
C250 H251 0.961 . S
C250 H252 0.961 . S
C250 H253 0.960 . S
H251 C250 0.961 . S
H252 C250 0.961 . S
H253 C250 0.960 . S
C254 N255 1.342 . S
C254 C258 1.401 . S
C254 C259 1.499 . S
N255 Co238 1.989 . S
N255 C254 1.342 . S
N255 N256 1.388 . S
N256 Co239 1.993 . S
N256 N255 1.388 . S
N256 C257 1.346 . S
C257 N256 1.346 . S
C257 C258 1.396 . S
C257 C267 1.510 . S
C258 C254 1.401 . S
C258 C257 1.396 . S
C259 C254 1.499 . S
C259 H260 0.959 . S
C259 H261 0.960 1_565 S
C259 H262 0.961 . S
H260 C259 0.959 . S
H261 C259 0.960 1_545 S
H262 C259 0.961 . S
O263 Co238 1.967 . S
O263 C271 1.258 . S
O264 Co239 1.941 . S
O264 C271 1.266 . S
H265 C267 0.959 . S
H266 C267 0.961 1_545 S
C267 C257 1.510 . S
C267 H265 0.959 . S
C267 H266 0.961 1_565 S
C267 H268 0.960 . S
H268 C267 0.960 . S
H269 N249 0.862 . S
O270 Co238 1.920 . S
O270 C243 1.289 . S
C271 O263 1.258 . S
C271 O264 1.266 . S
Co272 O275 1.970 . S
Co272 N289 1.989 . S
Co272 O297 1.967 . S
Co272 O304 1.920 . S
Co273 O276 1.966 . S
Co273 N282 2.022 . S
Co273 N290 1.993 . S
Co273 O298 1.941 . S
C274 O275 1.258 . S
C274 O276 1.263 . S
O275 Co272 1.970 . S
O275 C274 1.258 . S
O276 Co273 1.966 . S
O276 C274 1.263 . S
C277 O278 1.235 . S
C277 O304 1.289 . S
O278 C277 1.235 . S
C279 C281 1.400 . S
C279 N282 1.351 . S
C279 C284 1.501 . S
C280 C281 1.387 . S
C280 N283 1.341 . S
C281 C279 1.400 . S
C281 C280 1.387 . S
N282 Co273 2.022 . S
N282 C279 1.351 . S
N282 N283 1.365 . S
N283 C280 1.341 . S
N283 N282 1.365 . S
N283 H303 0.862 . S
C284 C279 1.501 . S
C284 H285 0.961 . S
C284 H286 0.961 . S
C284 H287 0.960 . S
H285 C284 0.961 . S
H286 C284 0.961 . S
H287 C284 0.960 . S
C288 N289 1.342 1_545 S
C288 C292 1.401 . S
C288 C293 1.499 . S
N289 Co272 1.989 . S
N289 C288 1.342 1_565 S
N289 N290 1.388 . S
N290 Co273 1.993 . S
N290 N289 1.388 . S
N290 C291 1.346 1_565 S
C291 N290 1.346 1_545 S
C291 C292 1.396 . S
C291 C301 1.510 . S
C292 C288 1.401 . S
C292 C291 1.396 . S
C293 C288 1.499 . S
C293 H294 0.959 . S
C293 H295 0.960 . S
C293 H296 0.961 . S
H294 C293 0.959 . S
H295 C293 0.960 . S
H296 C293 0.961 . S
O297 Co272 1.967 . S
O297 C305 1.258 . S
O298 Co273 1.941 . S
O298 C305 1.266 . S
H299 C301 0.959 . S
H300 C301 0.961 . S
C301 C291 1.510 . S
C301 H299 0.959 . S
C301 H300 0.961 . S
C301 H302 0.960 . S
H302 C301 0.960 . S
H303 N283 0.862 . S
O304 Co272 1.920 . S
O304 C277 1.289 . S
C305 O297 1.258 . S
C305 O298 1.266 . S
Co306 O309 1.970 . S
Co306 N323 1.989 . S
Co306 O331 1.967 . S
Co306 O338 1.920 . S
Co307 O310 1.966 . S
Co307 N316 2.022 . S
Co307 N324 1.993 . S
Co307 O332 1.941 . S
C308 O309 1.258 . S
C308 O310 1.263 . S
O309 Co306 1.970 . S
O309 C308 1.258 . S
O310 Co307 1.966 . S
O310 C308 1.263 . S
C311 O312 1.235 . S
C311 O338 1.289 . S
O312 C311 1.235 . S
C313 C315 1.400 . S
C313 N316 1.351 . S
C313 C318 1.501 . S
C314 C315 1.387 . S
C314 N317 1.341 . S
C315 C313 1.400 . S
C315 C314 1.387 . S
N316 Co307 2.022 . S
N316 C313 1.351 . S
N316 N317 1.365 . S
N317 C314 1.341 . S
N317 N316 1.365 . S
N317 H337 0.862 . S
C318 C313 1.501 . S
C318 H319 0.961 . S
C318 H320 0.961 . S
C318 H321 0.960 . S
H319 C318 0.961 . S
H320 C318 0.961 . S
H321 C318 0.960 . S
C322 N323 1.342 . S
C322 C326 1.401 . S
C322 C327 1.499 . S
N323 Co306 1.989 . S
N323 C322 1.342 . S
N323 N324 1.388 . S
N324 Co307 1.993 . S
N324 N323 1.388 . S
N324 C325 1.346 . S
C325 N324 1.346 . S
C325 C326 1.396 . S
C325 C335 1.510 . S
C326 C322 1.401 . S
C326 C325 1.396 . S
C327 C322 1.499 . S
C327 H328 0.959 . S
C327 H329 0.960 . S
C327 H330 0.961 . S
H328 C327 0.959 . S
H329 C327 0.960 . S
H330 C327 0.961 . S
O331 Co306 1.967 . S
O331 C339 1.258 . S
O332 Co307 1.941 . S
O332 C339 1.266 . S
H333 C335 0.959 . S
H334 C335 0.961 . S
C335 C325 1.510 . S
C335 H333 0.959 . S
C335 H334 0.961 . S
C335 H336 0.960 . S
H336 C335 0.960 . S
H337 N317 0.862 . S
O338 Co306 1.920 . S
O338 C311 1.289 . S
C339 O331 1.258 . S
C339 O332 1.266 . S
Co340 O343 1.970 . S
Co340 N357 1.989 . S
Co340 O365 1.967 . S
Co340 O372 1.920 . S
Co341 O344 1.966 . S
Co341 N350 2.022 . S
Co341 N358 1.993 . S
Co341 O366 1.941 . S
C342 O343 1.258 . S
C342 O344 1.263 . S
O343 Co340 1.970 . S
O343 C342 1.258 . S
O344 Co341 1.966 . S
O344 C342 1.263 . S
C345 O346 1.235 1_455 S
C345 O372 1.289 . S
O346 C345 1.235 1_655 S
C347 C349 1.400 . S
C347 N350 1.351 . S
C347 C352 1.501 1_455 S
C348 C349 1.387 . S
C348 N351 1.341 . S
C349 C347 1.400 . S
C349 C348 1.387 . S
N350 Co341 2.022 . S
N350 C347 1.351 . S
N350 N351 1.365 . S
N351 C348 1.341 . S
N351 N350 1.365 . S
N351 H371 0.862 . S
C352 C347 1.501 1_655 S
C352 H353 0.961 . S
C352 H354 0.961 . S
C352 H355 0.960 . S
H353 C352 0.961 . S
H354 C352 0.961 . S
H355 C352 0.960 . S
C356 N357 1.342 . S
C356 C360 1.401 . S
C356 C361 1.499 . S
N357 Co340 1.989 . S
N357 C356 1.342 . S
N357 N358 1.388 . S
N358 Co341 1.993 . S
N358 N357 1.388 . S
N358 C359 1.346 . S
C359 N358 1.346 . S
C359 C360 1.396 . S
C359 C369 1.510 . S
C360 C356 1.401 . S
C360 C359 1.396 . S
C361 C356 1.499 . S
C361 H362 0.959 . S
C361 H363 0.960 . S
C361 H364 0.961 . S
H362 C361 0.959 . S
H363 C361 0.960 . S
H364 C361 0.961 . S
O365 Co340 1.967 . S
O365 C373 1.258 . S
O366 Co341 1.941 . S
O366 C373 1.266 . S
H367 C369 0.959 . S
H368 C369 0.969 . S
C369 C359 1.510 . S
C369 H367 0.959 . S
C369 H368 0.969 . S
C369 H370 0.960 . S
H370 C369 0.960 . S
H371 N351 0.862 . S
O372 Co340 1.920 . S
O372 C345 1.289 . S
C373 O365 1.258 . S
C373 O366 1.266 . S
Co374 O377 1.970 . S
Co374 N391 1.989 . S
Co374 O399 1.967 . S
Co374 O406 1.920 . S
Co375 O378 1.966 . S
Co375 N384 2.022 . S
Co375 N392 1.993 . S
Co375 O400 1.941 . S
C376 O377 1.258 . S
C376 O378 1.263 . S
O377 Co374 1.970 . S
O377 C376 1.258 . S
O378 Co375 1.966 . S
O378 C376 1.263 . S
C379 O380 1.235 1_545 S
C379 O406 1.289 . S
O380 C379 1.235 1_565 S
C381 C383 1.400 . S
C381 N384 1.351 . S
C381 C386 1.501 1_545 S
C382 C383 1.387 . S
C382 N385 1.341 . S
C383 C381 1.400 . S
C383 C382 1.387 . S
N384 Co375 2.022 . S
N384 C381 1.351 . S
N384 N385 1.365 . S
N385 C382 1.341 . S
N385 N384 1.365 . S
N385 H405 0.862 . S
C386 C381 1.501 1_565 S
C386 H387 0.961 . S
C386 H388 0.961 . S
C386 H389 0.960 . S
H387 C386 0.961 . S
H388 C386 0.961 . S
H389 C386 0.960 . S
C390 N391 1.342 1_455 S
C390 C394 1.401 . S
C390 C395 1.499 . S
N391 Co374 1.989 . S
N391 C390 1.342 1_655 S
N391 N392 1.388 . S
N392 Co375 1.993 . S
N392 N391 1.388 . S
N392 C393 1.346 1_655 S
C393 N392 1.346 1_455 S
C393 C394 1.396 . S
C393 C403 1.510 . S
C394 C390 1.401 . S
C394 C393 1.396 . S
C395 C390 1.499 . S
C395 H396 0.959 . S
C395 H397 0.960 . S
C395 H398 0.961 . S
H396 C395 0.959 . S
H397 C395 0.960 . S
H398 C395 0.961 . S
O399 Co374 1.967 . S
O399 C407 1.258 . S
O400 Co375 1.941 . S
O400 C407 1.266 . S
H401 C403 0.959 . S
H402 C403 0.970 . S
C403 C393 1.510 . S
C403 H401 0.959 . S
C403 H402 0.970 . S
C403 H404 0.960 . S
H404 C403 0.960 . S
H405 N385 0.862 . S
O406 Co374 1.920 . S
O406 C379 1.289 . S
C407 O399 1.258 . S
C407 O400 1.266 . S
Co408 O411 1.970 . S
Co408 N425 1.989 . S
Co408 O433 1.967 . S
Co408 O440 1.920 . S
Co409 O412 1.966 . S
Co409 N418 2.022 . S
Co409 N426 1.993 . S
Co409 O434 1.941 . S
C410 O411 1.258 . S
C410 O412 1.263 . S
O411 Co408 1.970 . S
O411 C410 1.258 . S
O412 Co409 1.966 . S
O412 C410 1.263 . S
C413 O414 1.235 . S
C413 O440 1.289 . S
O414 C413 1.235 . S
C415 C417 1.400 . S
C415 N418 1.351 . S
C415 C420 1.501 . S
C416 C417 1.387 . S
C416 N419 1.341 . S
C417 C415 1.400 . S
C417 C416 1.387 . S
N418 Co409 2.022 . S
N418 C415 1.351 . S
N418 N419 1.365 . S
N419 C416 1.341 . S
N419 N418 1.365 . S
N419 H439 0.862 . S
C420 C415 1.501 . S
C420 H421 0.961 . S
C420 H422 0.961 . S
C420 H423 0.960 . S
H421 C420 0.961 . S
H422 C420 0.961 . S
H423 C420 0.960 . S
C424 N425 1.342 . S
C424 C428 1.401 . S
C424 C429 1.499 . S
N425 Co408 1.989 . S
N425 C424 1.342 . S
N425 N426 1.388 . S
N426 Co409 1.993 . S
N426 N425 1.388 . S
N426 C427 1.346 . S
C427 N426 1.346 . S
C427 C428 1.396 . S
C427 C437 1.510 . S
C428 C424 1.401 . S
C428 C427 1.396 . S
C429 C424 1.499 . S
C429 H430 0.959 . S
C429 H431 0.960 . S
C429 H432 0.961 . S
H430 C429 0.959 . S
H431 C429 0.960 . S
H432 C429 0.961 . S
O433 Co408 1.967 . S
O433 C441 1.258 . S
O434 Co409 1.941 . S
O434 C441 1.266 . S
H435 C437 0.959 . S
H436 C437 0.961 . S
C437 C427 1.510 . S
C437 H435 0.959 . S
C437 H436 0.961 . S
C437 H438 0.960 . S
H438 C437 0.960 . S
H439 N419 0.862 . S
O440 Co408 1.920 . S
O440 C413 1.289 . S
C441 O433 1.258 . S
C441 O434 1.266 . S
Co442 O445 1.970 . S
Co442 N459 1.989 . S
Co442 O467 1.967 . S
Co442 O474 1.920 . S
Co443 O446 1.966 . S
Co443 N452 2.022 . S
Co443 N460 1.993 . S
Co443 O468 1.941 . S
C444 O445 1.258 . S
C444 O446 1.263 . S
O445 Co442 1.970 . S
O445 C444 1.258 . S
O446 Co443 1.966 . S
O446 C444 1.263 . S
C447 O448 1.235 . S
C447 O474 1.289 . S
O448 C447 1.235 . S
C449 C451 1.400 . S
C449 N452 1.351 . S
C449 C454 1.501 . S
C450 C451 1.387 . S
C450 N453 1.341 . S
C451 C449 1.400 . S
C451 C450 1.387 . S
N452 Co443 2.022 . S
N452 C449 1.351 . S
N452 N453 1.365 . S
N453 C450 1.341 . S
N453 N452 1.365 . S
N453 H473 0.862 . S
C454 C449 1.501 . S
C454 H455 0.961 . S
C454 H456 0.961 . S
C454 H457 0.960 . S
H455 C454 0.961 . S
H456 C454 0.961 . S
H457 C454 0.960 . S
C458 N459 1.342 1_455 S
C458 C462 1.401 . S
C458 C463 1.499 . S
N459 Co442 1.989 . S
N459 C458 1.342 1_655 S
N459 N460 1.388 . S
N460 Co443 1.993 . S
N460 N459 1.388 . S
N460 C461 1.346 1_655 S
C461 N460 1.346 1_455 S
C461 C462 1.396 . S
C461 C471 1.510 . S
C462 C458 1.401 . S
C462 C461 1.396 . S
C463 C458 1.499 . S
C463 H464 0.959 . S
C463 H465 0.960 . S
C463 H466 0.961 . S
H464 C463 0.959 . S
H465 C463 0.960 . S
H466 C463 0.961 . S
O467 Co442 1.967 . S
O467 C475 1.258 . S
O468 Co443 1.941 . S
O468 C475 1.266 . S
H469 C471 0.959 . S
H470 C471 0.961 . S
C471 C461 1.510 . S
C471 H469 0.959 . S
C471 H470 0.961 . S
C471 H472 0.960 . S
H472 C471 0.960 . S
H473 N453 0.862 . S
O474 Co442 1.920 . S
O474 C447 1.289 . S
C475 O467 1.258 . S
C475 O468 1.266 . S
Co476 O479 1.970 . S
Co476 N493 1.989 . S
Co476 O501 1.967 . S
Co476 O508 1.920 . S
Co477 O480 1.966 . S
Co477 N486 2.022 . S
Co477 N494 1.993 . S
Co477 O502 1.941 . S
C478 O479 1.258 . S
C478 O480 1.263 . S
O479 Co476 1.970 . S
O479 C478 1.258 . S
O480 Co477 1.966 . S
O480 C478 1.263 . S
C481 O482 1.235 1_455 S
C481 O508 1.289 . S
O482 C481 1.235 1_655 S
C483 C485 1.400 . S
C483 N486 1.351 . S
C483 C488 1.501 1_455 S
C484 C485 1.387 . S
C484 N487 1.341 . S
C485 C483 1.400 . S
C485 C484 1.387 . S
N486 Co477 2.022 . S
N486 C483 1.351 . S
N486 N487 1.365 . S
N487 C484 1.341 . S
N487 N486 1.365 . S
N487 H507 0.862 . S
C488 C483 1.501 1_655 S
C488 H489 0.961 . S
C488 H490 0.961 . S
C488 H491 0.960 . S
H489 C488 0.961 . S
H490 C488 0.961 . S
H491 C488 0.960 . S
C492 N493 1.342 1_545 S
C492 C496 1.401 . S
C492 C497 1.499 . S
N493 Co476 1.989 . S
N493 C492 1.342 1_565 S
N493 N494 1.388 . S
N494 Co477 1.993 . S
N494 N493 1.388 . S
N494 C495 1.346 1_565 S
C495 N494 1.346 1_545 S
C495 C496 1.396 . S
C495 C505 1.510 . S
C496 C492 1.401 . S
C496 C495 1.396 . S
C497 C492 1.499 . S
C497 H498 0.959 . S
C497 H499 0.960 . S
C497 H500 0.961 . S
H498 C497 0.959 . S
H499 C497 0.960 . S
H500 C497 0.961 . S
O501 Co476 1.967 . S
O501 C509 1.258 . S
O502 Co477 1.941 . S
O502 C509 1.266 . S
H503 C505 0.959 . S
H504 C505 0.970 . S
C505 C495 1.510 . S
C505 H503 0.959 . S
C505 H504 0.970 . S
C505 H506 0.960 . S
H506 C505 0.960 . S
H507 N487 0.862 . S
O508 Co476 1.920 . S
O508 C481 1.289 . S
C509 O501 1.258 . S
C509 O502 1.266 . S
Co510 O513 1.970 . S
Co510 N527 1.989 . S
Co510 O535 1.967 . S
Co510 O542 1.920 . S
Co511 O514 1.966 . S
Co511 N520 2.022 . S
Co511 N528 1.993 . S
Co511 O536 1.941 . S
C512 O513 1.258 . S
C512 O514 1.263 . S
O513 Co510 1.970 . S
O513 C512 1.258 . S
O514 Co511 1.966 . S
O514 C512 1.263 . S
C515 O516 1.235 1_545 S
C515 O542 1.289 . S
O516 C515 1.235 1_565 S
C517 C519 1.400 . S
C517 N520 1.351 . S
C517 C522 1.501 1_545 S
C518 C519 1.387 . S
C518 N521 1.341 . S
C519 C517 1.400 . S
C519 C518 1.387 . S
N520 Co511 2.022 . S
N520 C517 1.351 . S
N520 N521 1.365 . S
N521 C518 1.341 . S
N521 N520 1.365 . S
N521 H541 0.862 . S
C522 C517 1.501 1_565 S
C522 H523 0.961 . S
C522 H524 0.961 . S
C522 H525 0.960 . S
H523 C522 0.961 . S
H524 C522 0.961 . S
H525 C522 0.960 . S
C526 N527 1.342 . S
C526 C530 1.401 . S
C526 C531 1.499 . S
N527 Co510 1.989 . S
N527 C526 1.342 . S
N527 N528 1.388 . S
N528 Co511 1.993 . S
N528 N527 1.388 . S
N528 C529 1.346 . S
C529 N528 1.346 . S
C529 C530 1.396 . S
C529 C539 1.510 . S
C530 C526 1.401 . S
C530 C529 1.396 . S
C531 C526 1.499 . S
C531 H532 0.959 . S
C531 H533 0.960 . S
C531 H534 0.961 . S
H532 C531 0.959 . S
H533 C531 0.960 . S
H534 C531 0.961 . S
O535 Co510 1.967 . S
O535 C543 1.258 . S
O536 Co511 1.941 . S
O536 C543 1.266 . S
H537 C539 0.959 . S
H538 C539 0.969 . S
C539 C529 1.510 . S
C539 H537 0.959 . S
C539 H538 0.969 . S
C539 H540 0.960 . S
H540 C539 0.960 . S
H541 N521 0.862 . S
O542 Co510 1.920 . S
O542 C515 1.289 . S
C543 O535 1.258 . S
C543 O536 1.266 . S
H544 C550 0.930 1_565 S
H545 C553 0.930 . S
H546 C554 0.930 . S
H547 C555 0.930 . S
H548 C558 0.930 . S
H549 C559 0.930 . S
C550 H544 0.930 1_545 S
C550 C551 1.355 . S
C550 C552 1.415 . S
C551 C550 1.355 . S
C551 C553 1.419 . S
C552 C550 1.415 . S
C552 C557 1.425 . S
C552 C559 1.409 1_545 S
C553 H545 0.930 . S
C553 C551 1.419 . S
C553 C554 1.362 . S
C554 H546 0.930 . S
C554 C553 1.362 . S
C554 C557 1.409 . S
C555 H547 0.930 . S
C555 C556 1.355 1_545 S
C555 C557 1.415 . S
C556 C555 1.355 1_565 S
C556 C558 1.419 . S
C557 C552 1.425 . S
C557 C554 1.409 . S
C557 C555 1.415 . S
C558 H548 0.930 . S
C558 C556 1.419 . S
C558 C559 1.362 . S
C559 H549 0.930 . S
C559 C552 1.409 1_565 S
C559 C558 1.362 . S
H560 C566 0.930 . S
H561 C569 0.930 . S
H562 C570 0.930 . S
H563 C571 0.930 . S
H564 C574 0.930 . S
H565 C575 0.930 . S
C566 H560 0.930 . S
C566 C567 1.355 . S
C566 C568 1.415 . S
C567 C566 1.355 . S
C567 C569 1.419 . S
C568 C566 1.415 . S
C568 C573 1.425 . S
C568 C575 1.409 . S
C569 H561 0.930 . S
C569 C567 1.419 . S
C569 C570 1.362 . S
C570 H562 0.930 . S
C570 C569 1.362 . S
C570 C573 1.409 . S
C571 H563 0.930 . S
C571 C572 1.355 . S
C571 C573 1.415 . S
C572 C571 1.355 . S
C572 C574 1.419 . S
C573 C568 1.425 . S
C573 C570 1.409 . S
C573 C571 1.415 . S
C574 H564 0.930 . S
C574 C572 1.419 . S
C574 C575 1.362 . S
C575 H565 0.930 . S
C575 C568 1.409 . S
C575 C574 1.362 . S
H576 C582 0.930 . S
H577 C585 0.930 . S
H578 C586 0.930 . S
H579 C587 0.930 . S
H580 C590 0.930 . S
H581 C591 0.930 . S
C582 H576 0.930 . S
C582 C583 1.355 1_655 S
C582 C584 1.415 . S
C583 C582 1.355 1_455 S
C583 C585 1.419 . S
C584 C582 1.415 . S
C584 C589 1.425 1_655 S
C584 C591 1.409 . S
C585 H577 0.930 . S
C585 C583 1.419 . S
C585 C586 1.362 . S
C586 H578 0.930 . S
C586 C585 1.362 . S
C586 C589 1.409 . S
C587 H579 0.930 . S
C587 C588 1.355 . S
C587 C589 1.415 . S
C588 C587 1.355 . S
C588 C590 1.419 1_455 S
C589 C584 1.425 1_455 S
C589 C586 1.409 . S
C589 C587 1.415 . S
C590 H580 0.930 . S
C590 C588 1.419 1_655 S
C590 C591 1.362 . S
C591 H581 0.930 . S
C591 C584 1.409 . S
C591 C590 1.362 . S
H592 C598 0.930 . S
H593 C601 0.930 . S
H594 C602 0.930 . S
H595 C603 0.934 . S
H596 C606 0.930 1_655 S
H597 C607 0.930 . S
C598 H592 0.930 . S
C598 C599 1.355 1_545 S
C598 C600 1.415 . S
C599 C598 1.355 1_565 S
C599 C601 1.419 . S
C600 C598 1.415 . S
C600 C605 1.425 1_545 S
C600 C607 1.409 . S
C601 H593 0.930 . S
C601 C599 1.419 . S
C601 C602 1.362 . S
C602 H594 0.930 . S
C602 C601 1.362 . S
C602 C605 1.409 . S
C603 H595 0.934 . S
C603 C604 1.352 1_465 S
C603 C605 1.415 . S
C604 C603 1.352 1_645 S
C604 C606 1.419 1_655 S
C605 C600 1.425 1_565 S
C605 C602 1.409 . S
C605 C603 1.415 . S
C606 H596 0.930 1_455 S
C606 C604 1.419 1_455 S
C606 C607 1.362 . S
C607 H597 0.930 . S
C607 C600 1.409 . S
C607 C606 1.362 . S
H608 C614 0.930 . S
H609 C617 0.930 . S
H610 C618 0.930 . S
H611 C619 0.930 . S
H612 C622 0.930 . S
H613 C623 0.930 . S
C614 H608 0.930 . S
C614 C615 1.355 . S
C614 C616 1.415 . S
C615 C614 1.355 . S
C615 C617 1.419 . S
C616 C614 1.415 . S
C616 C621 1.425 . S
C616 C623 1.409 1_565 S
C617 H609 0.930 . S
C617 C615 1.419 . S
C617 C618 1.362 . S
C618 H610 0.930 . S
C618 C617 1.362 . S
C618 C621 1.409 . S
C619 H611 0.930 . S
C619 C620 1.355 1_565 S
C619 C621 1.415 . S
C620 C619 1.355 1_545 S
C620 C622 1.419 . S
C621 C616 1.425 . S
C621 C618 1.409 . S
C621 C619 1.415 . S
C622 H612 0.930 . S
C622 C620 1.419 . S
C622 C623 1.362 . S
C623 H613 0.930 . S
C623 C616 1.409 1_545 S
C623 C622 1.362 . S
H624 C630 0.930 . S
H625 C633 0.930 . S
H626 C634 0.930 . S
H627 C635 0.930 . S
H628 C638 0.930 . S
H629 C639 0.930 . S
C630 H624 0.930 . S
C630 C631 1.355 . S
C630 C632 1.415 . S
C631 C630 1.355 . S
C631 C633 1.419 . S
C632 C630 1.415 . S
C632 C637 1.425 . S
C632 C639 1.409 . S
C633 H625 0.930 . S
C633 C631 1.419 . S
C633 C634 1.362 . S
C634 H626 0.930 . S
C634 C633 1.362 . S
C634 C637 1.409 . S
C635 H627 0.930 . S
C635 C636 1.355 . S
C635 C637 1.415 . S
C636 C635 1.355 . S
C636 C638 1.419 . S
C637 C632 1.425 . S
C637 C634 1.409 . S
C637 C635 1.415 . S
C638 H628 0.930 . S
C638 C636 1.419 . S
C638 C639 1.362 . S
C639 H629 0.930 . S
C639 C632 1.409 . S
C639 C638 1.362 . S
H640 C646 0.930 . S
H641 C649 0.930 . S
H642 C650 0.930 . S
H643 C651 0.930 . S
H644 C654 0.931 . S
H645 C655 0.930 . S
C646 H640 0.930 . S
C646 C647 1.355 . S
C646 C648 1.415 . S
C647 C646 1.355 . S
C647 C649 1.419 1_455 S
C648 C646 1.415 . S
C648 C653 1.425 1_455 S
C648 C655 1.409 . S
C649 H641 0.930 . S
C649 C647 1.419 1_655 S
C649 C650 1.362 . S
C650 H642 0.930 . S
C650 C649 1.362 . S
C650 C653 1.409 . S
C651 H643 0.930 . S
C651 C652 1.355 . S
C651 C653 1.415 . S
C652 C651 1.355 . S
C652 C654 1.417 1_655 S
C653 C648 1.425 1_655 S
C653 C650 1.409 . S
C653 C651 1.415 . S
C654 H644 0.931 . S
C654 C652 1.417 1_455 S
C654 C655 1.364 . S
C655 H645 0.930 . S
C655 C648 1.409 . S
C655 C654 1.364 . S
H656 C662 0.930 . S
H657 C665 0.930 . S
H658 C666 0.930 . S
H659 C667 0.930 . S
H660 C670 0.930 . S
H661 C671 0.930 . S
C662 H656 0.930 . S
C662 C663 1.355 . S
C662 C664 1.415 . S
C663 C662 1.355 . S
C663 C665 1.419 1_455 S
C664 C662 1.415 . S
C664 C669 1.425 1_455 S
C664 C671 1.409 . S
C665 H657 0.930 . S
C665 C663 1.419 1_655 S
C665 C666 1.362 . S
C666 H658 0.930 . S
C666 C665 1.362 . S
C666 C669 1.409 . S
C667 H659 0.930 . S
C667 C668 1.355 . S
C667 C669 1.415 1_545 S
C668 C667 1.355 . S
C668 C670 1.419 1_645 S
C669 C664 1.425 1_655 S
C669 C666 1.409 . S
C669 C667 1.415 1_565 S
C670 H660 0.930 . S
C670 C668 1.419 1_465 S
C670 C671 1.362 . S
C671 H661 0.930 . S
C671 C664 1.409 . S
C671 C670 1.362 . S
H672 C678 0.930 . S
H673 C681 0.930 . S
H674 C682 0.930 . S
H675 C683 0.930 . S
H676 C686 0.930 . S
H677 C687 0.930 . S
C678 H672 0.930 . S
C678 C679 1.355 . S
C678 C680 1.415 . S
C679 C678 1.355 . S
C679 C681 1.419 . S
C680 C678 1.415 . S
C680 C685 1.425 . S
C680 C687 1.409 . S
C681 H673 0.930 . S
C681 C679 1.419 . S
C681 C682 1.362 . S
C682 H674 0.930 . S
C682 C681 1.362 . S
C682 C685 1.409 . S
C683 H675 0.930 . S
C683 C684 1.355 . S
C683 C685 1.415 . S
C684 C683 1.355 . S
C684 C686 1.419 . S
C685 C680 1.425 . S
C685 C682 1.409 . S
C685 C683 1.415 . S
C686 H676 0.930 . S
C686 C684 1.419 . S
C686 C687 1.362 . S
C687 H677 0.930 . S
C687 C680 1.409 . S
C687 C686 1.362 . S
H688 C694 0.930 . S
H689 C697 0.930 . S
H690 C698 0.930 . S
H691 C699 0.930 . S
H692 C702 0.930 . S
H693 C703 0.930 . S
C694 H688 0.930 . S
C694 C695 1.355 . S
C694 C696 1.415 . S
C695 C694 1.355 . S
C695 C697 1.419 . S
C696 C694 1.415 . S
C696 C701 1.425 . S
C696 C703 1.409 . S
C697 H689 0.930 . S
C697 C695 1.419 . S
C697 C698 1.362 . S
C698 H690 0.930 . S
C698 C697 1.362 . S
C698 C701 1.409 . S
C699 H691 0.930 . S
C699 C700 1.355 . S
C699 C701 1.415 . S
C700 C699 1.355 . S
C700 C702 1.419 . S
C701 C696 1.425 . S
C701 C698 1.409 . S
C701 C699 1.415 . S
C702 H692 0.930 . S
C702 C700 1.419 . S
C702 C703 1.362 . S
C703 H693 0.930 . S
C703 C696 1.409 . S
C703 C702 1.362 . S
H704 C710 0.930 . S
H705 C713 0.930 . S
H706 C714 0.930 . S
H707 C715 0.930 . S
H708 C718 0.930 . S
H709 C719 0.930 . S
C710 H704 0.930 . S
C710 C711 1.355 . S
C710 C712 1.415 . S
C711 C710 1.355 . S
C711 C713 1.419 . S
C712 C710 1.415 . S
C712 C717 1.425 . S
C712 C719 1.409 . S
C713 H705 0.930 . S
C713 C711 1.419 . S
C713 C714 1.362 . S
C714 H706 0.930 . S
C714 C713 1.362 . S
C714 C717 1.409 . S
C715 H707 0.930 . S
C715 C716 1.355 . S
C715 C717 1.415 . S
C716 C715 1.355 . S
C716 C718 1.419 . S
C717 C712 1.425 . S
C717 C714 1.409 . S
C717 C715 1.415 . S
C718 H708 0.930 . S
C718 C716 1.419 . S
C718 C719 1.362 . S
C719 H709 0.930 . S
C719 C712 1.409 . S
C719 C718 1.362 . S
H720 C726 0.930 . S
H721 C729 0.930 . S
H722 C730 0.930 . S
H723 C731 0.930 . S
H724 C734 0.930 . S
H725 C735 0.930 . S
C726 H720 0.930 . S
C726 C727 1.355 . S
C726 C728 1.415 . S
C727 C726 1.355 . S
C727 C729 1.419 . S
C728 C726 1.415 . S
C728 C733 1.425 . S
C728 C735 1.409 . S
C729 H721 0.930 . S
C729 C727 1.419 . S
C729 C730 1.362 . S
C730 H722 0.930 . S
C730 C729 1.362 . S
C730 C733 1.409 . S
C731 H723 0.930 . S
C731 C732 1.355 . S
C731 C733 1.415 . S
C732 C731 1.355 . S
C732 C734 1.419 . S
C733 C728 1.425 . S
C733 C730 1.409 . S
C733 C731 1.415 . S
C734 H724 0.930 . S
C734 C732 1.419 . S
C734 C735 1.362 . S
C735 H725 0.930 . S
C735 C728 1.409 . S
C735 C734 1.362 . S
H736 C742 0.930 . S
H737 C745 0.930 . S
H738 C746 0.930 . S
H739 C747 0.930 . S
H740 C750 0.930 . S
H741 C751 0.930 . S
C742 H736 0.930 . S
C742 C743 1.355 . S
C742 C744 1.415 . S
C743 C742 1.355 . S
C743 C745 1.419 . S
C744 C742 1.415 . S
C744 C749 1.425 . S
C744 C751 1.409 . S
C745 H737 0.930 . S
C745 C743 1.419 . S
C745 C746 1.362 . S
C746 H738 0.930 . S
C746 C745 1.362 . S
C746 C749 1.409 . S
C747 H739 0.930 . S
C747 C748 1.355 . S
C747 C749 1.415 . S
C748 C747 1.355 . S
C748 C750 1.419 . S
C749 C744 1.425 . S
C749 C746 1.409 . S
C749 C747 1.415 . S
C750 H740 0.930 . S
C750 C748 1.419 . S
C750 C751 1.362 . S
C751 H741 0.930 . S
C751 C744 1.409 . S
C751 C750 1.362 . S
H752 C758 0.930 . S
H753 C761 0.930 . S
H754 C762 0.930 . S
H755 C763 0.930 . S
H756 C766 0.930 . S
H757 C767 0.930 . S
C758 H752 0.930 . S
C758 C759 1.355 . S
C758 C760 1.415 . S
C759 C758 1.355 . S
C759 C761 1.419 . S
C760 C758 1.415 . S
C760 C765 1.425 . S
C760 C767 1.409 . S
C761 H753 0.930 . S
C761 C759 1.419 . S
C761 C762 1.362 . S
C762 H754 0.930 . S
C762 C761 1.362 . S
C762 C765 1.409 . S
C763 H755 0.930 . S
C763 C764 1.355 . S
C763 C765 1.415 . S
C764 C763 1.355 . S
C764 C766 1.419 . S
C765 C760 1.425 . S
C765 C762 1.409 . S
C765 C763 1.415 . S
C766 H756 0.930 . S
C766 C764 1.419 . S
C766 C767 1.362 . S
C767 H757 0.930 . S
C767 C760 1.409 . S
C767 C766 1.362 . S
H768 C774 0.930 . S
H769 C777 0.930 . S
H770 C778 0.930 . S
H771 C779 0.930 . S
H772 C782 0.930 . S
H773 C783 0.930 . S
C774 H768 0.930 . S
C774 C775 1.355 . S
C774 C776 1.415 . S
C775 C774 1.355 . S
C775 C777 1.419 . S
C776 C774 1.415 . S
C776 C781 1.425 . S
C776 C783 1.409 . S
C777 H769 0.930 . S
C777 C775 1.419 . S
C777 C778 1.362 . S
C778 H770 0.930 . S
C778 C777 1.362 . S
C778 C781 1.409 . S
C779 H771 0.930 . S
C779 C780 1.355 . S
C779 C781 1.415 . S
C780 C779 1.355 . S
C780 C782 1.419 . S
C781 C776 1.425 . S
C781 C778 1.409 . S
C781 C779 1.415 . S
C782 H772 0.930 . S
C782 C780 1.419 . S
C782 C783 1.362 . S
C783 H773 0.930 . S
C783 C776 1.409 . S
C783 C782 1.362 . S
H784 C790 0.930 . S
H785 C793 0.930 . S
H786 C794 0.930 . S
H787 C795 0.930 . S
H788 C798 0.930 . S
H789 C799 0.930 . S
C790 H784 0.930 . S
C790 C791 1.355 . S
C790 C792 1.415 . S
C791 C790 1.355 . S
C791 C793 1.419 . S
C792 C790 1.415 . S
C792 C797 1.425 . S
C792 C799 1.409 . S
C793 H785 0.930 . S
C793 C791 1.419 . S
C793 C794 1.362 . S
C794 H786 0.930 . S
C794 C793 1.362 . S
C794 C797 1.409 . S
C795 H787 0.930 . S
C795 C796 1.355 . S
C795 C797 1.415 . S
C796 C795 1.355 . S
C796 C798 1.419 . S
C797 C792 1.425 . S
C797 C794 1.409 . S
C797 C795 1.415 . S
C798 H788 0.930 . S
C798 C796 1.419 . S
C798 C799 1.362 . S
C799 H789 0.930 . S
C799 C792 1.409 . S
C799 C798 1.362 . S
H800 C806 0.930 . S
H801 C809 0.930 . S
H802 C810 0.930 . S
H803 C811 0.930 . S
H804 C814 0.930 . S
H805 C815 0.930 . S
C806 H800 0.930 . S
C806 C807 1.355 . S
C806 C808 1.415 . S
C807 C806 1.355 . S
C807 C809 1.419 . S
C808 C806 1.415 . S
C808 C813 1.425 . S
C808 C815 1.409 . S
C809 H801 0.930 . S
C809 C807 1.419 . S
C809 C810 1.362 . S
C810 H802 0.930 . S
C810 C809 1.362 . S
C810 C813 1.409 . S
C811 H803 0.930 . S
C811 C812 1.355 . S
C811 C813 1.415 . S
C812 C811 1.355 . S
C812 C814 1.419 . S
C813 C808 1.425 . S
C813 C810 1.409 . S
C813 C811 1.415 . S
C814 H804 0.930 . S
C814 C812 1.419 . S
C814 C815 1.362 . S
C815 H805 0.930 . S
C815 C808 1.409 . S
C815 C814 1.362 . S
H816 C822 0.930 . S
H817 C825 0.930 . S
H818 C826 0.930 . S
H819 C827 0.930 . S
H820 C830 0.930 . S
H821 C831 0.930 . S
C822 H816 0.930 . S
C822 C823 1.355 . S
C822 C824 1.415 . S
C823 C822 1.355 . S
C823 C825 1.419 . S
C824 C822 1.415 . S
C824 C829 1.425 . S
C824 C831 1.409 . S
C825 H817 0.930 . S
C825 C823 1.419 . S
C825 C826 1.362 . S
C826 H818 0.930 . S
C826 C825 1.362 . S
C826 C829 1.409 . S
C827 H819 0.930 . S
C827 C828 1.355 . S
C827 C829 1.415 . S
C828 C827 1.355 . S
C828 C830 1.419 . S
C829 C824 1.425 . S
C829 C826 1.409 . S
C829 C827 1.415 . S
C830 H820 0.930 . S
C830 C828 1.419 . S
C830 C831 1.362 . S
C831 H821 0.930 . S
C831 C824 1.409 . S
C831 C830 1.362 . S
H832 C838 0.930 . S
H833 C841 0.930 . S
H834 C842 0.930 . S
H835 C843 0.930 . S
H836 C846 0.930 . S
H837 C847 0.930 . S
C838 H832 0.930 . S
C838 C839 1.355 1_455 S
C838 C840 1.415 . S
C839 C838 1.355 1_655 S
C839 C841 1.419 . S
C840 C838 1.415 . S
C840 C845 1.425 1_455 S
C840 C847 1.409 . S
C841 H833 0.930 . S
C841 C839 1.419 . S
C841 C842 1.362 . S
C842 H834 0.930 . S
C842 C841 1.362 . S
C842 C845 1.409 . S
C843 H835 0.930 . S
C843 C844 1.355 . S
C843 C845 1.415 . S
C844 C843 1.355 . S
C844 C846 1.419 1_655 S
C845 C840 1.425 1_655 S
C845 C842 1.409 . S
C845 C843 1.415 . S
C846 H836 0.930 . S
C846 C844 1.419 1_455 S
C846 C847 1.362 . S
C847 H837 0.930 . S
C847 C840 1.409 . S
C847 C846 1.362 . S
H848 C854 0.930 . S
H849 C857 0.930 . S
H850 C858 0.930 . S
H851 C859 0.930 . S
H852 C862 0.930 . S
H853 C863 0.930 . S
C854 H848 0.930 . S
C854 C855 1.355 . S
C854 C856 1.415 . S
C855 C854 1.355 . S
C855 C857 1.419 1_565 S
C856 C854 1.415 . S
C856 C861 1.425 1_565 S
C856 C863 1.409 . S
C857 H849 0.930 . S
C857 C855 1.419 1_545 S
C857 C858 1.362 . S
C858 H850 0.930 . S
C858 C857 1.362 . S
C858 C861 1.409 . S
C859 H851 0.930 . S
C859 C860 1.355 1_545 S
C859 C861 1.415 . S
C860 C859 1.355 1_565 S
C860 C862 1.419 . S
C861 C856 1.425 1_545 S
C861 C858 1.409 . S
C861 C859 1.415 . S
C862 H852 0.930 . S
C862 C860 1.419 . S
C862 C863 1.362 . S
C863 H853 0.930 . S
C863 C856 1.409 . S
C863 C862 1.362 . S
H864 C870 0.930 . S
H865 C873 0.930 . S
H866 C874 0.930 . S
H867 C875 0.930 . S
H868 C878 0.930 . S
H869 C879 0.930 . S
C870 H864 0.930 . S
C870 C871 1.355 . S
C870 C872 1.415 . S
C871 C870 1.355 . S
C871 C873 1.419 . S
C872 C870 1.415 . S
C872 C877 1.425 . S
C872 C879 1.409 . S
C873 H865 0.930 . S
C873 C871 1.419 . S
C873 C874 1.362 . S
C874 H866 0.930 . S
C874 C873 1.362 . S
C874 C877 1.409 . S
C875 H867 0.930 . S
C875 C876 1.355 . S
C875 C877 1.415 . S
C876 C875 1.355 . S
C876 C878 1.419 . S
C877 C872 1.425 . S
C877 C874 1.409 . S
C877 C875 1.415 . S
C878 H868 0.930 . S
C878 C876 1.419 . S
C878 C879 1.362 . S
C879 H869 0.930 . S
C879 C872 1.409 . S
C879 C878 1.362 . S
H880 C886 0.930 . S
H881 C889 0.930 . S
H882 C890 0.930 . S
H883 C891 0.930 . S
H884 C894 0.930 . S
H885 C895 0.930 . S
C886 H880 0.930 . S
C886 C887 1.355 . S
C886 C888 1.415 . S
C887 C886 1.355 . S
C887 C889 1.419 . S
C888 C886 1.415 . S
C888 C893 1.425 . S
C888 C895 1.409 . S
C889 H881 0.930 . S
C889 C887 1.419 . S
C889 C890 1.362 . S
C890 H882 0.930 . S
C890 C889 1.362 . S
C890 C893 1.409 . S
C891 H883 0.930 . S
C891 C892 1.355 . S
C891 C893 1.415 . S
C892 C891 1.355 . S
C892 C894 1.419 . S
C893 C888 1.425 . S
C893 C890 1.409 . S
C893 C891 1.415 . S
C894 H884 0.930 . S
C894 C892 1.419 . S
C894 C895 1.362 . S
C895 H885 0.930 . S
C895 C888 1.409 . S
C895 C894 1.362 . S
H896 C902 0.930 . S
H897 C905 0.930 . S
H898 C906 0.930 . S
H899 C907 0.930 . S
H900 C910 0.930 . S
H901 C911 0.930 . S
C902 H896 0.930 . S
C902 C903 1.355 . S
C902 C904 1.415 . S
C903 C902 1.355 . S
C903 C905 1.419 1_655 S
C904 C902 1.415 . S
C904 C909 1.425 1_655 S
C904 C911 1.409 . S
C905 H897 0.930 . S
C905 C903 1.419 1_455 S
C905 C906 1.362 . S
C906 H898 0.930 . S
C906 C905 1.362 . S
C906 C909 1.409 . S
C907 H899 0.930 . S
C907 C908 1.355 1_455 S
C907 C909 1.415 . S
C908 C907 1.355 1_655 S
C908 C910 1.419 . S
C909 C904 1.425 1_455 S
C909 C906 1.409 . S
C909 C907 1.415 . S
C910 H900 0.930 . S
C910 C908 1.419 . S
C910 C911 1.362 . S
C911 H901 0.930 . S
C911 C904 1.409 . S
C911 C910 1.362 . S
H912 C918 0.930 . S
H913 C921 0.930 . S
H914 C922 0.930 . S
H915 C923 0.930 . S
H916 C926 0.930 . S
H917 C927 0.930 . S
C918 H912 0.930 . S
C918 C919 1.355 . S
C918 C920 1.415 . S
C919 C918 1.355 . S
C919 C921 1.419 1_565 S
C920 C918 1.415 . S
C920 C925 1.425 1_565 S
C920 C927 1.409 . S
C921 H913 0.930 . S
C921 C919 1.419 1_545 S
C921 C922 1.362 . S
C922 H914 0.930 . S
C922 C921 1.362 . S
C922 C925 1.409 . S
C923 H915 0.930 . S
C923 C924 1.355 1_545 S
C923 C925 1.415 . S
C924 C923 1.355 1_565 S
C924 C926 1.419 . S
C925 C920 1.425 1_545 S
C925 C922 1.409 . S
C925 C923 1.415 . S
C926 H916 0.930 . S
C926 C924 1.419 . S
C926 C927 1.362 . S
C927 H917 0.930 . S
C927 C920 1.409 . S
C927 C926 1.362 . S
H928 C934 0.930 . S
H929 C937 0.930 . S
H930 C938 0.930 . S
H931 C939 0.930 . S
H932 C942 0.930 . S
H933 C943 0.930 . S
C934 H928 0.930 . S
C934 C935 1.355 . S
C934 C936 1.415 . S
C935 C934 1.355 . S
C935 C937 1.419 . S
C936 C934 1.415 . S
C936 C941 1.425 . S
C936 C943 1.409 . S
C937 H929 0.930 . S
C937 C935 1.419 . S
C937 C938 1.362 . S
C938 H930 0.930 . S
C938 C937 1.362 . S
C938 C941 1.409 . S
C939 H931 0.930 . S
C939 C940 1.355 . S
C939 C941 1.415 . S
C940 C939 1.355 . S
C940 C942 1.419 . S
C941 C936 1.425 . S
C941 C938 1.409 . S
C941 C939 1.415 . S
C942 H932 0.930 . S
C942 C940 1.419 . S
C942 C943 1.362 . S
C943 H933 0.930 . S
C943 C936 1.409 . S
C943 C942 1.362 . S
H944 C950 0.930 . S
H945 C953 0.930 . S
H946 C954 0.930 . S
H947 C955 0.930 . S
H948 C958 0.930 . S
H949 C959 0.930 . S
C950 H944 0.930 . S
C950 C951 1.355 . S
C950 C952 1.415 . S
C951 C950 1.355 . S
C951 C953 1.419 . S
C952 C950 1.415 . S
C952 C957 1.425 . S
C952 C959 1.409 . S
C953 H945 0.930 . S
C953 C951 1.419 . S
C953 C954 1.362 . S
C954 H946 0.930 . S
C954 C953 1.362 . S
C954 C957 1.409 . S
C955 H947 0.930 . S
C955 C956 1.355 . S
C955 C957 1.415 . S
C956 C955 1.355 . S
C956 C958 1.419 . S
C957 C952 1.425 . S
C957 C954 1.409 . S
C957 C955 1.415 . S
C958 H948 0.930 . S
C958 C956 1.419 . S
C958 C959 1.362 . S
C959 H949 0.930 . S
C959 C952 1.409 . S
C959 C958 1.362 . S
H960 C966 0.930 . S
H961 C969 0.930 . S
H962 C970 0.930 . S
H963 C971 0.930 . S
H964 C974 0.930 . S
H965 C975 0.930 . S
C966 H960 0.930 . S
C966 C967 1.355 1_655 S
C966 C968 1.415 1_655 S
C967 C966 1.355 1_455 S
C967 C969 1.419 . S
C968 C966 1.415 1_455 S
C968 C973 1.425 . S
C968 C975 1.409 1_455 S
C969 H961 0.930 . S
C969 C967 1.419 . S
C969 C970 1.362 . S
C970 H962 0.930 . S
C970 C969 1.362 . S
C970 C973 1.409 . S
C971 H963 0.930 . S
C971 C972 1.355 . S
C971 C973 1.415 . S
C972 C971 1.355 . S
C972 C974 1.419 1_455 S
C973 C968 1.425 . S
C973 C970 1.409 . S
C973 C971 1.415 . S
C974 H964 0.930 . S
C974 C972 1.419 1_655 S
C974 C975 1.362 . S
C975 H965 0.930 . S
C975 C968 1.409 1_655 S
C975 C974 1.362 . S
H976 C982 0.930 . S
H977 C985 0.930 . S
H978 C986 0.930 . S
H979 C987 0.930 1_565 S
H980 C990 0.930 . S
H981 C991 0.930 . S
C982 H976 0.930 . S
C982 C983 1.355 . S
C982 C984 1.415 . S
C983 C982 1.355 . S
C983 C985 1.419 1_545 S
C984 C982 1.415 . S
C984 C989 1.425 . S
C984 C991 1.409 . S
C985 H977 0.930 . S
C985 C983 1.419 1_565 S
C985 C986 1.362 . S
C986 H978 0.930 . S
C986 C985 1.362 . S
C986 C989 1.409 1_565 S
C987 H979 0.930 1_545 S
C987 C988 1.355 . S
C987 C989 1.415 . S
C988 C987 1.355 . S
C988 C990 1.419 . S
C989 C984 1.425 . S
C989 C986 1.409 1_545 S
C989 C987 1.415 . S
C990 H980 0.930 . S
C990 C988 1.419 . S
C990 C991 1.362 . S
C991 H981 0.930 . S
C991 C984 1.409 . S
C991 C990 1.362 . S
H992 C998 0.930 . S
H993 C1001 0.930 . S
H994 C1002 0.930 . S
H995 C1003 0.930 . S
H996 C1006 0.930 . S
H997 C1007 0.930 . S
C998 H992 0.930 . S
C998 C999 1.355 . S
C998 C1000 1.415 . S
C999 C998 1.355 . S
C999 C1001 1.419 . S
C1000 C998 1.415 . S
C1000 C1005 1.425 . S
C1000 C1007 1.409 . S
C1001 H993 0.930 . S
C1001 C999 1.419 . S
C1001 C1002 1.362 . S
C1002 H994 0.930 . S
C1002 C1001 1.362 . S
C1002 C1005 1.409 . S
C1003 H995 0.930 . S
C1003 C1004 1.355 . S
C1003 C1005 1.415 . S
C1004 C1003 1.355 . S
C1004 C1006 1.419 . S
C1005 C1000 1.425 . S
C1005 C1002 1.409 . S
C1005 C1003 1.415 . S
C1006 H996 0.930 . S
C1006 C1004 1.419 . S
C1006 C1007 1.362 . S
C1007 H997 0.930 . S
C1007 C1000 1.409 . S
C1007 C1006 1.362 . S
H1008 C1014 0.930 . S
H1009 C1017 0.930 . S
H1010 C1018 0.930 . S
H1011 C1019 0.930 . S
H1012 C1022 0.930 . S
H1013 C1023 0.930 . S
C1014 H1008 0.930 . S
C1014 C1015 1.355 . S
C1014 C1016 1.415 . S
C1015 C1014 1.355 . S
C1015 C1017 1.419 . S
C1016 C1014 1.415 . S
C1016 C1021 1.425 . S
C1016 C1023 1.409 . S
C1017 H1009 0.930 . S
C1017 C1015 1.419 . S
C1017 C1018 1.362 . S
C1018 H1010 0.930 . S
C1018 C1017 1.362 . S
C1018 C1021 1.409 . S
C1019 H1011 0.930 . S
C1019 C1020 1.355 . S
C1019 C1021 1.415 . S
C1020 C1019 1.355 . S
C1020 C1022 1.419 . S
C1021 C1016 1.425 . S
C1021 C1018 1.409 . S
C1021 C1019 1.415 . S
C1022 H1012 0.930 . S
C1022 C1020 1.419 . S
C1022 C1023 1.362 . S
C1023 H1013 0.930 . S
C1023 C1016 1.409 . S
C1023 C1022 1.362 . S
H1024 C1030 0.930 . S
H1025 C1033 0.930 . S
H1026 C1034 0.930 . S
H1027 C1035 0.930 1_655 S
H1028 C1038 0.930 . S
H1029 C1039 0.930 . S
C1030 H1024 0.930 . S
C1030 C1031 1.355 . S
C1030 C1032 1.415 . S
C1031 C1030 1.355 . S
C1031 C1033 1.419 1_455 S
C1032 C1030 1.415 . S
C1032 C1037 1.425 . S
C1032 C1039 1.409 . S
C1033 H1025 0.930 . S
C1033 C1031 1.419 1_655 S
C1033 C1034 1.362 . S
C1034 H1026 0.930 . S
C1034 C1033 1.362 . S
C1034 C1037 1.409 1_655 S
C1035 H1027 0.930 1_455 S
C1035 C1036 1.355 . S
C1035 C1037 1.415 . S
C1036 C1035 1.355 . S
C1036 C1038 1.419 . S
C1037 C1032 1.425 . S
C1037 C1034 1.409 1_455 S
C1037 C1035 1.415 . S
C1038 H1028 0.930 . S
C1038 C1036 1.419 . S
C1038 C1039 1.362 . S
C1039 H1029 0.930 . S
C1039 C1032 1.409 . S
C1039 C1038 1.362 . S
H1040 C1046 0.939 . S
H1041 C1049 0.930 . S
H1042 C1050 0.930 . S
H1043 C1051 0.930 . S
H1044 C1054 0.930 . S
H1045 C1055 0.930 . S
C1046 H1040 0.939 . S
C1046 C1047 1.355 . S
C1046 C1048 1.415 . S
C1047 C1046 1.355 . S
C1047 C1049 1.419 . S
C1048 C1046 1.415 . S
C1048 C1053 1.425 . S
C1048 C1055 1.409 1_545 S
C1049 H1041 0.930 . S
C1049 C1047 1.419 . S
C1049 C1050 1.362 . S
C1050 H1042 0.930 . S
C1050 C1049 1.362 . S
C1050 C1053 1.409 . S
C1051 H1043 0.930 . S
C1051 C1052 1.355 . S
C1051 C1053 1.415 . S
C1052 C1051 1.355 . S
C1052 C1054 1.419 1_545 S
C1053 C1048 1.425 . S
C1053 C1050 1.409 . S
C1053 C1051 1.415 . S
C1054 H1044 0.930 . S
C1054 C1052 1.419 1_565 S
C1054 C1055 1.362 . S
C1055 H1045 0.930 . S
C1055 C1048 1.409 1_565 S
C1055 C1054 1.362 . S
H1056 C1062 0.930 . S
H1057 C1065 0.930 . S
H1058 C1066 0.930 . S
H1059 C1067 0.930 . S
H1060 C1070 0.930 . S
H1061 C1071 0.930 . S
C1062 H1056 0.930 . S
C1062 C1063 1.355 . S
C1062 C1064 1.415 . S
C1063 C1062 1.355 . S
C1063 C1065 1.419 1_565 S
C1064 C1062 1.415 . S
C1064 C1069 1.425 1_565 S
C1064 C1071 1.409 1_556 S
C1065 H1057 0.930 . S
C1065 C1063 1.419 1_545 S
C1065 C1066 1.362 . S
C1066 H1058 0.930 . S
C1066 C1065 1.362 . S
C1066 C1069 1.409 . S
C1067 H1059 0.930 . S
C1067 C1068 1.355 . S
C1067 C1069 1.415 1_554 S
C1068 C1067 1.355 . S
C1068 C1070 1.419 1_545 S
C1069 C1064 1.425 1_545 S
C1069 C1066 1.409 . S
C1069 C1067 1.415 1_556 S
C1070 H1060 0.930 . S
C1070 C1068 1.419 1_565 S
C1070 C1071 1.362 . S
C1071 H1061 0.930 . S
C1071 C1064 1.409 1_554 S
C1071 C1070 1.362 . S
H1072 C1078 0.930 . S
H1073 C1081 0.930 . S
H1074 C1082 0.930 . S
H1075 C1083 0.930 . S
H1076 C1086 0.930 . S
H1077 C1087 0.930 . S
C1078 H1072 0.930 . S
C1078 C1079 1.355 . S
C1078 C1080 1.415 . S
C1079 C1078 1.355 . S
C1079 C1081 1.419 . S
C1080 C1078 1.415 . S
C1080 C1085 1.425 . S
C1080 C1087 1.409 . S
C1081 H1073 0.930 . S
C1081 C1079 1.419 . S
C1081 C1082 1.362 . S
C1082 H1074 0.930 . S
C1082 C1081 1.362 . S
C1082 C1085 1.409 . S
C1083 H1075 0.930 . S
C1083 C1084 1.355 . S
C1083 C1085 1.415 . S
C1084 C1083 1.355 . S
C1084 C1086 1.419 . S
C1085 C1080 1.425 . S
C1085 C1082 1.409 . S
C1085 C1083 1.415 . S
C1086 H1076 0.930 . S
C1086 C1084 1.419 . S
C1086 C1087 1.362 . S
C1087 H1077 0.930 . S
C1087 C1080 1.409 . S
C1087 C1086 1.362 . S
H1088 C1094 0.930 . S
H1089 C1097 0.930 . S
H1090 C1098 0.930 . S
H1091 C1099 0.930 1_655 S
H1092 C1102 0.930 . S
H1093 C1103 0.930 . S
C1094 H1088 0.930 . S
C1094 C1095 1.355 . S
C1094 C1096 1.415 1_554 S
C1095 C1094 1.355 . S
C1095 C1097 1.419 1_455 S
C1096 C1094 1.415 1_556 S
C1096 C1101 1.425 . S
C1096 C1103 1.409 . S
C1097 H1089 0.930 . S
C1097 C1095 1.419 1_655 S
C1097 C1098 1.362 . S
C1098 H1090 0.930 . S
C1098 C1097 1.362 . S
C1098 C1101 1.409 1_654 S
C1099 H1091 0.930 1_455 S
C1099 C1100 1.355 . S
C1099 C1101 1.415 . S
C1100 C1099 1.355 . S
C1100 C1102 1.419 . S
C1101 C1096 1.425 . S
C1101 C1098 1.409 1_456 S
C1101 C1099 1.415 . S
C1102 H1092 0.930 . S
C1102 C1100 1.419 . S
C1102 C1103 1.362 . S
C1103 H1093 0.930 . S
C1103 C1096 1.409 . S
C1103 C1102 1.362 . S
H1104 C1110 0.930 1_465 S
H1105 C1113 0.930 . S
H1106 C1114 0.930 . S
H1107 C1115 0.930 . S
H1108 C1118 0.930 . S
H1109 C1119 0.930 . S
C1110 H1104 0.930 1_645 S
C1110 C1111 1.355 . S
C1110 C1112 1.412 1_655 S
C1111 C1110 1.355 . S
C1111 C1113 1.419 . S
C1112 C1110 1.412 1_455 S
C1112 C1117 1.419 1_455 S
C1112 C1119 1.418 1_545 S
C1113 H1105 0.930 . S
C1113 C1111 1.419 . S
C1113 C1114 1.362 . S
C1114 H1106 0.930 . S
C1114 C1113 1.362 . S
C1114 C1117 1.409 . S
C1115 H1107 0.930 . S
C1115 C1116 1.355 1_655 S
C1115 C1117 1.415 . S
C1116 C1115 1.355 1_455 S
C1116 C1118 1.419 1_545 S
C1117 C1112 1.419 1_655 S
C1117 C1114 1.409 . S
C1117 C1115 1.415 . S
C1118 H1108 0.930 . S
C1118 C1116 1.419 1_565 S
C1118 C1119 1.362 . S
C1119 H1109 0.930 . S
C1119 C1112 1.418 1_565 S
C1119 C1118 1.362 . S
H1120 C1126 0.930 . S
H1121 C1129 0.930 . S
H1122 C1130 0.930 . S
H1123 C1131 0.930 . S
H1124 C1134 0.930 . S
H1125 C1135 0.930 . S
C1126 H1120 0.930 . S
C1126 C1127 1.355 . S
C1126 C1128 1.415 1_556 S
C1127 C1126 1.355 . S
C1127 C1129 1.419 . S
C1128 C1126 1.415 1_554 S
C1128 C1133 1.425 . S
C1128 C1135 1.409 . S
C1129 H1121 0.930 . S
C1129 C1127 1.419 . S
C1129 C1130 1.362 . S
C1130 H1122 0.930 . S
C1130 C1129 1.362 . S
C1130 C1133 1.409 1_556 S
C1131 H1123 0.930 . S
C1131 C1132 1.355 . S
C1131 C1133 1.415 . S
C1132 C1131 1.355 . S
C1132 C1134 1.419 . S
C1133 C1128 1.425 . S
C1133 C1130 1.409 1_554 S
C1133 C1131 1.415 . S
C1134 H1124 0.930 . S
C1134 C1132 1.419 . S
C1134 C1135 1.362 . S
C1135 H1125 0.930 . S
C1135 C1128 1.409 . S
C1135 C1134 1.362 . S
H1136 C1142 0.930 . S
H1137 C1145 0.930 . S
H1138 C1146 0.930 . S
H1139 C1147 0.930 . S
H1140 C1150 0.930 . S
H1141 C1151 0.930 . S
C1142 H1136 0.930 . S
C1142 C1143 1.355 . S
C1142 C1144 1.415 . S
C1143 C1142 1.355 . S
C1143 C1145 1.419 1_455 S
C1144 C1142 1.415 . S
C1144 C1149 1.425 1_455 S
C1144 C1151 1.409 . S
C1145 H1137 0.930 . S
C1145 C1143 1.419 1_655 S
C1145 C1146 1.362 . S
C1146 H1138 0.930 . S
C1146 C1145 1.362 . S
C1146 C1149 1.409 . S
C1147 H1139 0.930 . S
C1147 C1148 1.355 . S
C1147 C1149 1.415 . S
C1148 C1147 1.355 . S
C1148 C1150 1.419 1_655 S
C1149 C1144 1.425 1_655 S
C1149 C1146 1.409 . S
C1149 C1147 1.415 . S
C1150 H1140 0.930 . S
C1150 C1148 1.419 1_455 S
C1150 C1151 1.362 . S
C1151 H1141 0.930 . S
C1151 C1144 1.409 . S
C1151 C1150 1.362 . S
H1152 C1158 0.930 . S
H1153 C1161 0.930 . S
H1154 C1162 0.949 . S
H1155 C1163 0.931 . S
H1156 C1166 0.930 . S
H1157 C1167 0.931 . S
C1158 H1152 0.930 . S
C1158 C1159 1.355 1_655 S
C1158 C1160 1.415 . S
C1159 C1158 1.355 1_455 S
C1159 C1161 1.419 . S
C1160 C1158 1.415 . S
C1160 C1165 1.425 1_654 S
C1160 C1167 1.410 1_565 S
C1161 H1153 0.930 . S
C1161 C1159 1.419 . S
C1161 C1162 1.362 . S
C1162 H1154 0.949 . S
C1162 C1161 1.362 . S
C1162 C1165 1.409 1_554 S
C1163 H1155 0.931 . S
C1163 C1164 1.348 1_565 S
C1163 C1165 1.420 . S
C1164 C1163 1.348 1_545 S
C1164 C1166 1.419 1_455 S
C1165 C1160 1.425 1_456 S
C1165 C1162 1.409 1_556 S
C1165 C1163 1.420 . S
C1166 H1156 0.930 . S
C1166 C1164 1.419 1_655 S
C1166 C1167 1.360 1_556 S
C1167 H1157 0.931 . S
C1167 C1160 1.410 1_545 S
C1167 C1166 1.360 1_554 S
H1168 C1174 0.930 . S
H1169 C1177 0.930 . S
H1170 C1178 0.930 . S
H1171 C1179 0.930 . S
H1172 C1182 0.930 . S
H1173 C1183 0.930 . S
C1174 H1168 0.930 . S
C1174 C1175 1.355 . S
C1174 C1176 1.415 . S
C1175 C1174 1.355 . S
C1175 C1177 1.419 1_545 S
C1176 C1174 1.415 . S
C1176 C1181 1.425 . S
C1176 C1183 1.409 . S
C1177 H1169 0.930 . S
C1177 C1175 1.419 1_565 S
C1177 C1178 1.362 . S
C1178 H1170 0.930 . S
C1178 C1177 1.362 . S
C1178 C1181 1.409 1_565 S
C1179 H1171 0.930 . S
C1179 C1180 1.355 . S
C1179 C1181 1.415 . S
C1180 C1179 1.355 . S
C1180 C1182 1.419 . S
C1181 C1176 1.425 . S
C1181 C1178 1.409 1_545 S
C1181 C1179 1.415 . S
C1182 H1172 0.930 . S
C1182 C1180 1.419 . S
C1182 C1183 1.362 . S
C1183 H1173 0.930 . S
C1183 C1176 1.409 . S
C1183 C1182 1.362 . S
C551 C5 1.842 . S
C556 C243 1.854 . S
C567 C141 1.841 . S
C572 C39 1.853 . S
C583 C73 1.834 1_455 S
C588 C175 1.845 . S
C599 C107 1.875 . S
C604 C209 1.870 . S
C615 C281 1.307 . S
C620 C519 1.359 . S
C631 C315 1.379 . S
C636 C417 1.311 . S
C647 C349 1.364 . S
C652 C451 1.344 . S
C663 C485 1.377 . S
C668 C383 1.321 . S
C679 C33 1.871 . S
C684 C101 1.879 . S
C695 C135 1.879 . S
C700 C67 1.871 . S
C711 C237 1.935 . S
C716 C169 1.935 . S
C727 C203 1.870 . S
C732 C271 1.876 . S
C743 C373 1.366 . S
C748 C305 1.375 . S
C759 C407 1.457 . S
C764 C339 1.467 . S
C775 C509 1.371 . S
C780 C441 1.364 . S
C791 C543 1.365 . S
C796 C475 1.363 . S
C807 C410 0.663 . S
C812 C20 0.668 . S
C823 C444 0.744 . S
C828 C54 0.676 . S
C839 C88 0.672 . S
C844 C478 0.635 1_655 S
C855 C512 0.650 1_565 S
C860 C122 0.669 . S
C871 C156 0.674 . S
C876 C274 0.738 . S
C887 C308 0.684 . S
C892 C190 0.695 . S
C903 C224 0.681 . S
C908 C342 0.755 1_655 S
C919 C258 0.670 . S
C924 C376 0.712 1_565 S
C935 C138 0.724 . S
C940 C292 0.695 . S
C951 C172 0.675 . S
C956 C326 0.701 . S
C967 C206 0.761 . S
C972 C360 0.708 . S
C983 C240 0.687 . S
C988 C394 0.699 . S
C999 C2 0.667 . S
C1004 C428 0.717 . S
C1015 C36 0.656 . S
C1020 C462 0.715 . S
C1031 C70 0.660 . S
C1036 C496 0.704 . S
C1047 C530 0.717 . S
C1052 C104 0.703 . S
C1063 C277 1.634 . S
C1068 C9 1.554 . S
C1079 C43 1.556 . S
C1084 C311 1.630 . S
C1095 C77 1.564 1_455 S
C1100 C345 1.622 . S
C1111 C379 1.666 . S
C1116 C111 1.598 1_545 S
C1127 C145 1.557 . S
C1132 C413 1.629 . S
C1143 C179 1.569 . S
C1148 C447 1.619 . S
C1159 C481 1.667 . S
C1164 C213 1.576 1_455 S
C1175 C247 1.587 1_545 S
C1180 C515 1.668 . S
