# Generated by pormake.
# Topology win, (6)-cn, num edge types: 1
# Building blocks:
#     Node 0, Type 0, BuildingBlock: OJICUG_clean_sbu_0, # of connection points: 6
#     Node 1, Type 0, BuildingBlock: OJICUG_clean_sbu_0, # of connection points: 6
#     Node 2, Type 0, BuildingBlock: OJICUG_clean_sbu_0, # of connection points: 6
#     Node 3, Type 0, BuildingBlock: OJICUG_clean_sbu_0, # of connection points: 6
#     Node 4, Type 0, BuildingBlock: OJICUG_clean_sbu_0, # of connection points: 6
#     Node 5, Type 0, BuildingBlock: OJICUG_clean_sbu_0, # of connection points: 6
#     Node 6, Type 0, BuildingBlock: OJICUG_clean_sbu_0, # of connection points: 6
#     Node 7, Type 0, BuildingBlock: OJICUG_clean_sbu_0, # of connection points: 6
#     Node 8, Type 0, BuildingBlock: OJICUG_clean_sbu_0, # of connection points: 6
#     Node 9, Type 0, BuildingBlock: OJICUG_clean_sbu_0, # of connection points: 6
#     Node 10, Type 0, BuildingBlock: OJICUG_clean_sbu_0, # of connection points: 6
#     Node 11, Type 0, BuildingBlock: OJICUG_clean_sbu_0, # of connection points: 6
#     Node 12, Type 0, BuildingBlock: OJICUG_clean_sbu_0, # of connection points: 6
#     Node 13, Type 0, BuildingBlock: OJICUG_clean_sbu_0, # of connection points: 6
#     Node 14, Type 0, BuildingBlock: OJICUG_clean_sbu_0, # of connection points: 6
#     Node 15, Type 0, BuildingBlock: OJICUG_clean_sbu_0, # of connection points: 6
#     Node 16, Type 0, BuildingBlock: OJICUG_clean_sbu_0, # of connection points: 6
#     Node 17, Type 0, BuildingBlock: OJICUG_clean_sbu_0, # of connection points: 6
#     Node 18, Type 0, BuildingBlock: OJICUG_clean_sbu_0, # of connection points: 6
#     Node 19, Type 0, BuildingBlock: OJICUG_clean_sbu_0, # of connection points: 6
#     Node 20, Type 0, BuildingBlock: OJICUG_clean_sbu_0, # of connection points: 6
#     Node 21, Type 0, BuildingBlock: OJICUG_clean_sbu_0, # of connection points: 6
#     Node 22, Type 0, BuildingBlock: OJICUG_clean_sbu_0, # of connection points: 6
#     Node 23, Type 0, BuildingBlock: OJICUG_clean_sbu_0, # of connection points: 6
#     Node 24, Type 0, BuildingBlock: OJICUG_clean_sbu_0, # of connection points: 6
#     Node 25, Type 0, BuildingBlock: OJICUG_clean_sbu_0, # of connection points: 6
#     Node 26, Type 0, BuildingBlock: OJICUG_clean_sbu_0, # of connection points: 6
#     Node 27, Type 0, BuildingBlock: OJICUG_clean_sbu_0, # of connection points: 6
#     Node 28, Type 0, BuildingBlock: OJICUG_clean_sbu_0, # of connection points: 6
#     Node 29, Type 0, BuildingBlock: OJICUG_clean_sbu_0, # of connection points: 6
#     Node 30, Type 0, BuildingBlock: OJICUG_clean_sbu_0, # of connection points: 6
#     Node 31, Type 0, BuildingBlock: OJICUG_clean_sbu_0, # of connection points: 6
#     Edge 32, Type (0, 0), None
#     Edge 33, Type (0, 0), None
#     Edge 34, Type (0, 0), None
#     Edge 35, Type (0, 0), None
#     Edge 36, Type (0, 0), None
#     Edge 37, Type (0, 0), None
#     Edge 38, Type (0, 0), None
#     Edge 39, Type (0, 0), None
#     Edge 40, Type (0, 0), None
#     Edge 41, Type (0, 0), None
#     Edge 42, Type (0, 0), None
#     Edge 43, Type (0, 0), None
#     Edge 44, Type (0, 0), None
#     Edge 45, Type (0, 0), None
#     Edge 46, Type (0, 0), None
#     Edge 47, Type (0, 0), None
#     Edge 48, Type (0, 0), None
#     Edge 49, Type (0, 0), None
#     Edge 50, Type (0, 0), None
#     Edge 51, Type (0, 0), None
#     Edge 52, Type (0, 0), None
#     Edge 53, Type (0, 0), None
#     Edge 54, Type (0, 0), None
#     Edge 55, Type (0, 0), None
#     Edge 56, Type (0, 0), None
#     Edge 57, Type (0, 0), None
#     Edge 58, Type (0, 0), None
#     Edge 59, Type (0, 0), None
#     Edge 60, Type (0, 0), None
#     Edge 61, Type (0, 0), None
#     Edge 62, Type (0, 0), None
#     Edge 63, Type (0, 0), None
#     Edge 64, Type (0, 0), None
#     Edge 65, Type (0, 0), None
#     Edge 66, Type (0, 0), None
#     Edge 67, Type (0, 0), None
#     Edge 68, Type (0, 0), None
#     Edge 69, Type (0, 0), None
#     Edge 70, Type (0, 0), None
#     Edge 71, Type (0, 0), None
#     Edge 72, Type (0, 0), None
#     Edge 73, Type (0, 0), None
#     Edge 74, Type (0, 0), None
#     Edge 75, Type (0, 0), None
#     Edge 76, Type (0, 0), None
#     Edge 77, Type (0, 0), None
#     Edge 78, Type (0, 0), None
#     Edge 79, Type (0, 0), None
#     Edge 80, Type (0, 0), None
#     Edge 81, Type (0, 0), None
#     Edge 82, Type (0, 0), None
#     Edge 83, Type (0, 0), None
#     Edge 84, Type (0, 0), None
#     Edge 85, Type (0, 0), None
#     Edge 86, Type (0, 0), None
#     Edge 87, Type (0, 0), None
#     Edge 88, Type (0, 0), None
#     Edge 89, Type (0, 0), None
#     Edge 90, Type (0, 0), None
#     Edge 91, Type (0, 0), None
#     Edge 92, Type (0, 0), None
#     Edge 93, Type (0, 0), None
#     Edge 94, Type (0, 0), None
#     Edge 95, Type (0, 0), None
#     Edge 96, Type (0, 0), None
#     Edge 97, Type (0, 0), None
#     Edge 98, Type (0, 0), None
#     Edge 99, Type (0, 0), None
#     Edge 100, Type (0, 0), None
#     Edge 101, Type (0, 0), None
#     Edge 102, Type (0, 0), None
#     Edge 103, Type (0, 0), None
#     Edge 104, Type (0, 0), None
#     Edge 105, Type (0, 0), None
#     Edge 106, Type (0, 0), None
#     Edge 107, Type (0, 0), None
#     Edge 108, Type (0, 0), None
#     Edge 109, Type (0, 0), None
#     Edge 110, Type (0, 0), None
#     Edge 111, Type (0, 0), None
#     Edge 112, Type (0, 0), None
#     Edge 113, Type (0, 0), None
#     Edge 114, Type (0, 0), None
#     Edge 115, Type (0, 0), None
#     Edge 116, Type (0, 0), None
#     Edge 117, Type (0, 0), None
#     Edge 118, Type (0, 0), None
#     Edge 119, Type (0, 0), None
#     Edge 120, Type (0, 0), None
#     Edge 121, Type (0, 0), None
#     Edge 122, Type (0, 0), None
#     Edge 123, Type (0, 0), None
#     Edge 124, Type (0, 0), None
#     Edge 125, Type (0, 0), None
#     Edge 126, Type (0, 0), None
#     Edge 127, Type (0, 0), None
# Relax obj value: 0.308
# Max RMSD: 0.275
# Mean RMSD: 0.275
data_MOF--net-win--node1-OJICUG_clean_sbu_0--edge1-none
_symmetry_space_group_name_H-M    P1
_symmetry_Int_Tables_number       1
_symmetry_cell_setting            triclinic
loop_
_symmetry_equiv_pos_as_xyz
'x, y, z'
_cell_length_a     36.084686
_cell_length_b     36.086093
_cell_length_c     14.125814
_cell_angle_alpha  89.998152
_cell_angle_beta   89.998922
_cell_angle_gamma 90.000183
loop_
_atom_site_label
_atom_site_type_symbol
_atom_site_fract_x
_atom_site_fract_y
_atom_site_fract_z
_atom_type_partial_charge
Sc0 Sc 0.1396 0.19087 0.33836 0.0
Sc1 Sc 0.14074 0.28512 0.35357 0.0
Sc2 Sc 0.06755 0.23942 0.24476 0.0
O3 O 0.11498 0.2394 0.31306 0.0
C4 C 0.12684 0.20239 0.12464 0.0
C5 C 0.20617 0.23125 0.30912 0.0
C6 C 0.0945 0.31601 0.17325 0.0
C7 C 0.1377 0.23326 0.52663 0.0
C8 C 0.0615 0.16404 0.34306 0.0
C9 C 0.05679 0.29494 0.41527 0.0
O10 O 0.15102 0.19224 0.18642 0.0
O11 O 0.19089 0.26168 0.27949 0.0
O12 O 0.08471 0.28331 0.15219 0.0
O13 O 0.12522 0.20388 0.48476 0.0
O14 O 0.04757 0.19607 0.33627 0.0
O15 O 0.09122 0.30188 0.42878 0.0
O16 O 0.09266 0.15714 0.30855 0.0
O17 O 0.15729 0.25739 0.48352 0.0
O18 O 0.04409 0.27601 0.34659 0.0
O19 O 0.19099 0.21361 0.37357 0.0
O20 O 0.09225 0.20287 0.1434 0.0
O21 O 0.11834 0.32174 0.23905 0.0
Sc22 Sc 0.00281 0.88961 0.58845 0.0
Sc23 Sc 0.90855 0.89073 0.60368 0.0
Sc24 Sc 0.95425 0.81758 0.49475 0.0
O25 O 0.95427 0.86499 0.56314 0.0
C26 C -0.0087 0.87686 0.37471 0.0
C27 C 0.9624 0.95616 0.55914 0.0
C28 C 0.87767 0.84452 0.42333 0.0
C29 C 0.96042 0.88773 0.77672 0.0
C30 C 0.02961 0.81149 0.5931 0.0
C31 C 0.89875 0.80679 0.66531 0.0
O32 O 0.00145 0.90104 0.43651 0.0
O33 O 0.93197 0.94088 0.52954 0.0
O34 O 0.91039 0.83482 0.40218 0.0
O35 O -0.01021 0.87524 0.73484 0.0
O36 O -0.00242 0.79756 0.58624 0.0
O37 O 0.89182 0.84122 0.67892 0.0
O38 O 0.03653 0.84267 0.55866 0.0
O39 O 0.93628 0.90731 0.7336 0.0
O40 O 0.91764 0.7941 0.59653 0.0
O41 O -0.01995 0.94099 0.62362 0.0
O42 O -0.00917 0.84228 0.39347 0.0
O43 O 0.87191 0.86831 0.48922 0.0
Sc44 Sc 0.30407 0.75281 0.83847 0.0
Sc45 Sc 0.30293 0.65856 0.85371 0.0
Sc46 Sc 0.3761 0.70425 0.74478 0.0
O47 O 0.32869 0.70428 0.81317 0.0
C48 C 0.31682 0.74132 0.62473 0.0
C49 C 0.23751 0.71242 0.80918 0.0
C50 C 0.34915 0.62767 0.67336 0.0
C51 C 0.30596 0.71042 1.02674 0.0
C52 C 0.38219 0.77962 0.84311 0.0
C53 C 0.38687 0.64874 0.91533 0.0
O54 O 0.29265 0.75146 0.68653 0.0
O55 O 0.25279 0.68199 0.77958 0.0
O56 O 0.35885 0.66039 0.65221 0.0
O57 O 0.31844 0.73979 0.98487 0.0
O58 O 0.39612 0.74758 0.83626 0.0
O59 O 0.35245 0.64182 0.92894 0.0
O60 O 0.35102 0.78653 0.80869 0.0
O61 O 0.28636 0.6863 0.98363 0.0
O62 O 0.39957 0.66764 0.84656 0.0
O63 O 0.25269 0.73007 0.87366 0.0
O64 O 0.35141 0.74084 0.64349 0.0
O65 O 0.32535 0.62192 0.73924 0.0
Sc66 Sc 0.44091 0.05405 0.08849 0.0
Sc67 Sc 0.53517 0.05293 0.10372 0.0
Sc68 Sc 0.48947 0.12608 0.99478 0.0
O69 O 0.48944 0.07867 0.06318 0.0
C70 C 0.45241 0.0668 0.87475 0.0
C71 C 0.48131 -0.0125 0.05917 0.0
C72 C 0.56605 0.09915 0.92336 0.0
C73 C 0.4833 0.05594 0.27676 0.0
C74 C 0.4141 0.13217 0.09313 0.0
C75 C 0.54497 0.13687 0.16533 0.0
O76 O 0.44226 0.04263 0.93656 0.0
O77 O 0.51175 0.00279 1.02958 0.0
O78 O 0.53332 0.10883 0.9022 0.0
O79 O 0.45393 0.06842 0.23489 0.0
O80 O 0.44613 0.1461 0.08626 0.0
O81 O 0.5519 0.10245 0.17895 0.0
O82 O 0.40719 0.101 0.05873 0.0
O83 O 0.50743 0.03635 0.23364 0.0
O84 O 0.52608 0.14956 0.09654 0.0
O85 O 0.46367 0.00267 0.12366 0.0
O86 O 0.45288 0.10138 0.8935 0.0
O87 O 0.57181 0.07536 0.98926 0.0
Sc88 Sc 0.06768 0.70423 0.32599 0.0
Sc89 Sc 0.14082 0.65855 0.21696 0.0
Sc90 Sc 0.13967 0.75281 0.23219 0.0
O91 O 0.11507 0.70427 0.25751 0.0
C92 C 0.06153 0.77958 0.2276 0.0
C93 C 0.05689 0.64872 0.15541 0.0
C94 C 0.1378 0.71042 0.04393 0.0
C95 C 0.09463 0.62768 0.39733 0.0
C96 C 0.12694 0.74133 0.44594 0.0
C97 C 0.20624 0.71242 0.26151 0.0
O98 O 0.04761 0.74754 0.23451 0.0
O99 O 0.09132 0.64183 0.14171 0.0
O100 O 0.12531 0.73978 0.0858 0.0
O101 O 0.08503 0.66042 0.41857 0.0
O102 O 0.15111 0.75147 0.38413 0.0
O103 O 0.19096 0.68198 0.29111 0.0
O104 O 0.09235 0.74086 0.42718 0.0
O105 O 0.11838 0.62189 0.33137 0.0
O106 O 0.19107 0.73006 0.19704 0.0
O107 O 0.04421 0.66758 0.22428 0.0
O108 O 0.09271 0.7865 0.26196 0.0
O109 O 0.15741 0.6863 0.08705 0.0
Sc110 Sc 0.48948 0.81765 0.576 0.0
Sc111 Sc 0.53517 0.89078 0.46695 0.0
Sc112 Sc 0.44091 0.88965 0.4822 0.0
O113 O 0.48944 0.86504 0.50751 0.0
C114 C 0.41413 0.81151 0.47761 0.0
C115 C 0.54498 0.80685 0.40541 0.0
C116 C 0.4833 0.88778 0.29393 0.0
C117 C 0.56604 0.84459 0.64734 0.0
C118 C 0.45239 0.87692 0.69595 0.0
C119 C 0.48131 0.95621 0.51153 0.0
O120 O 0.44617 0.79759 0.48453 0.0
O121 O 0.55188 0.84127 0.3917 0.0
O122 O 0.45393 0.87529 0.33581 0.0
O123 O 0.5333 0.83499 0.66857 0.0
O124 O 0.44225 0.90109 0.63414 0.0
O125 O 0.51175 0.94093 0.54111 0.0
O126 O 0.45286 0.84233 0.6772 0.0
O127 O 0.57182 0.86834 0.58136 0.0
O128 O 0.46366 0.94104 0.44705 0.0
O129 O 0.52612 0.79417 0.47428 0.0
O130 O 0.40721 0.84269 0.51196 0.0
O131 O 0.50743 0.90738 0.33706 0.0
Sc132 Sc 0.37604 0.23944 0.82599 0.0
Sc133 Sc 0.3029 0.28512 0.71698 0.0
Sc134 Sc 0.30405 0.19087 0.73223 0.0
O135 O 0.32865 0.2394 0.75753 0.0
C136 C 0.38219 0.16409 0.72763 0.0
C137 C 0.38684 0.29495 0.65542 0.0
C138 C 0.30592 0.23326 0.54396 0.0
C139 C 0.3491 0.316 0.89734 0.0
C140 C 0.31678 0.20235 0.94597 0.0
C141 C 0.23747 0.23126 0.76152 0.0
O142 O 0.39611 0.19613 0.73452 0.0
O143 O 0.35241 0.30185 0.64173 0.0
O144 O 0.31841 0.20389 0.58583 0.0
O145 O 0.35871 0.28327 0.91857 0.0
O146 O 0.29261 0.19221 0.88417 0.0
O147 O 0.25275 0.2617 0.79111 0.0
O148 O 0.35137 0.20283 0.92721 0.0
O149 O 0.32533 0.32178 0.83139 0.0
O150 O 0.25265 0.21361 0.69707 0.0
O151 O 0.39952 0.27609 0.72427 0.0
O152 O 0.35101 0.15717 0.762 0.0
O153 O 0.28632 0.25738 0.58708 0.0
Sc154 Sc 0.9542 0.12598 0.07601 0.0
Sc155 Sc 0.90853 0.05287 0.96688 0.0
Sc156 Sc 0.00279 0.05401 0.98213 0.0
O157 O 0.95426 0.07862 1.00744 0.0
C158 C 0.02954 0.13218 0.97758 0.0
C159 C 0.89871 0.1368 0.9054 0.0
C160 C 0.9604 0.05586 0.79387 0.0
C161 C 0.87767 0.09904 0.14729 0.0
C162 C -0.00867 0.06673 0.19588 0.0
C163 C 0.96239 -0.01255 1.01149 0.0
O164 O -0.0025 0.1461 0.98455 0.0
O165 O 0.89183 0.10238 0.89161 0.0
O166 O -0.01024 0.06837 0.83574 0.0
O167 O 0.91042 0.10855 0.16859 0.0
O168 O 0.00147 0.04256 0.13407 0.0
O169 O 0.93195 0.00273 0.04107 0.0
O170 O -0.00914 0.10131 0.17713 0.0
O171 O 0.87186 0.07533 0.08125 0.0
O172 O -0.01996 0.00262 0.94701 0.0
O173 O 0.91753 0.14946 0.97435 0.0
O174 O 0.03648 0.10099 1.01187 0.0
O175 O 0.93628 0.03627 0.83701 0.0
Sc176 Sc 0.80404 0.75279 0.7322 0.0
Sc177 Sc 0.80291 0.65853 0.71698 0.0
Sc178 Sc 0.87604 0.70423 0.82601 0.0
O179 O 0.82865 0.70426 0.75752 0.0
C180 C 0.88218 0.77958 0.72767 0.0
C181 C 0.80592 0.71039 0.54395 0.0
C182 C 0.88685 0.64872 0.65545 0.0
C183 C 0.73747 0.71238 0.76149 0.0
C184 C 0.81676 0.74131 0.94594 0.0
C185 C 0.84912 0.62768 0.89734 0.0
O186 O 0.85099 0.7865 0.76198 0.0
O187 O 0.78633 0.68627 0.58707 0.0
O188 O 0.89952 0.66758 0.72431 0.0
O189 O 0.75265 0.73003 0.69703 0.0
O190 O 0.85135 0.74085 0.92719 0.0
O191 O 0.82535 0.62187 0.83141 0.0
O192 O 0.79259 0.75145 0.88414 0.0
O193 O 0.75276 0.68195 0.79111 0.0
O194 O 0.85868 0.66042 0.9186 0.0
O195 O 0.81841 0.73976 0.58582 0.0
O196 O 0.8961 0.74754 0.73454 0.0
O197 O 0.85242 0.64181 0.64175 0.0
Sc198 Sc 0.94089 0.05401 0.48214 0.0
Sc199 Sc 0.03516 0.05287 0.46689 0.0
Sc200 Sc -0.01052 0.12598 0.57604 0.0
O201 O -0.01057 0.07862 0.50745 0.0
C202 C 0.91415 0.13219 0.47762 0.0
C203 C -0.01671 0.05586 0.29387 0.0
C204 C 0.04497 0.1368 0.40542 0.0
C205 C -0.0187 -0.01255 0.51147 0.0
C206 C 0.95236 0.06673 0.69587 0.0
C207 C 0.06601 0.09905 0.64728 0.0
O208 O 0.90721 0.10099 0.51188 0.0
O209 O 0.00741 0.03627 0.33701 0.0
O210 O 0.02616 0.14947 0.47439 0.0
O211 O 0.96364 0.00262 0.44701 0.0
O212 O 0.95281 0.10131 0.67713 0.0
O213 O 0.07183 0.07533 0.58126 0.0
O214 O 0.94221 0.04256 0.63407 0.0
O215 O 0.01174 0.00273 0.54106 0.0
O216 O 0.03325 0.10853 0.66861 0.0
O217 O 0.95393 0.06837 0.33575 0.0
O218 O 0.94619 0.1461 0.48458 0.0
O219 O 0.05186 0.10238 0.39163 0.0
Sc220 Sc 0.63968 0.19089 0.23222 0.0
Sc221 Sc 0.6408 0.28515 0.21699 0.0
Sc222 Sc 0.56767 0.23944 0.32601 0.0
O223 O 0.61506 0.23942 0.25753 0.0
C224 C 0.56153 0.16409 0.22769 0.0
C225 C 0.63779 0.23328 0.04396 0.0
C226 C 0.55686 0.29495 0.15544 0.0
C227 C 0.70624 0.2313 0.26148 0.0
C228 C 0.62694 0.20237 0.44596 0.0
C229 C 0.59458 0.316 0.39733 0.0
O230 O 0.59273 0.15717 0.262 0.0
O231 O 0.65738 0.25741 0.08708 0.0
O232 O 0.54418 0.27608 0.22428 0.0
O233 O 0.69106 0.21364 0.19704 0.0
O234 O 0.59236 0.20283 0.42721 0.0
O235 O 0.61836 0.3218 0.33142 0.0
O236 O 0.65112 0.19223 0.38416 0.0
O237 O 0.69095 0.26173 0.29111 0.0
O238 O 0.585 0.28326 0.41858 0.0
O239 O 0.62531 0.20391 0.08583 0.0
O240 O 0.54761 0.19613 0.23454 0.0
O241 O 0.59128 0.30187 0.14175 0.0
Sc242 Sc 0.50282 0.88965 0.9822 0.0
Sc243 Sc 0.40856 0.89079 0.96697 0.0
Sc244 Sc 0.45425 0.81766 0.07602 0.0
O245 O 0.45429 0.86504 1.00752 0.0
C246 C 0.5296 0.8115 0.97764 0.0
C247 C 0.46043 0.88779 0.79394 0.0
C248 C 0.39875 0.80685 0.90544 0.0
C249 C 0.46242 0.95621 1.01151 0.0
C250 C 0.49133 0.87692 0.19593 0.0
C251 C 0.3777 0.84458 0.14734 0.0
O252 O 0.53652 0.84269 1.01196 0.0
O253 O 0.4363 0.90737 0.83707 0.0
O254 O 0.4176 0.79417 0.97433 0.0
O255 O 0.48007 0.94104 0.94704 0.0
O256 O 0.49088 0.84234 0.17719 0.0
O257 O 0.3719 0.86835 0.0814 0.0
O258 O 0.50149 0.9011 0.13414 0.0
O259 O 0.43198 0.94093 0.04112 0.0
O260 O 0.41044 0.83501 0.1686 0.0
O261 O 0.48979 0.87529 0.83581 0.0
O262 O 0.49756 0.79759 0.98455 0.0
O263 O 0.39184 0.84127 0.89174 0.0
Sc264 Sc 0.87616 0.23942 0.74475 0.0
Sc265 Sc 0.80299 0.28514 0.85357 0.0
Sc266 Sc 0.8041 0.19089 0.83837 0.0
O267 O 0.82873 0.23942 0.81306 0.0
C268 C 0.81686 0.20241 0.62465 0.0
C269 C 0.84925 0.31602 0.67327 0.0
C270 C 0.73754 0.2313 0.80916 0.0
C271 C 0.88694 0.29494 0.91525 0.0
C272 C 0.8822 0.16404 0.84301 0.0
C273 C 0.80602 0.23328 1.02664 0.0
O274 O 0.85145 0.20287 0.64341 0.0
O275 O 0.82539 0.32176 0.73903 0.0
O276 O 0.75272 0.21364 0.8736 0.0
O277 O 0.89964 0.276 0.84657 0.0
O278 O 0.85103 0.15715 0.80855 0.0
O279 O 0.78643 0.25742 0.98353 0.0
O280 O 0.89613 0.19607 0.83625 0.0
O281 O 0.85251 0.3019 0.92876 0.0
O282 O 0.81848 0.2039 0.98476 0.0
O283 O 0.859 0.28331 0.65218 0.0
O284 O 0.79268 0.19226 0.68644 0.0
O285 O 0.75283 0.26172 0.7795 0.0
Sc286 Sc 0.45428 0.12608 0.49475 0.0
Sc287 Sc 0.40857 0.05293 0.60371 0.0
Sc288 Sc 0.50283 0.05406 0.58849 0.0
O289 O 0.4543 0.07868 0.56317 0.0
C290 C 0.49132 0.06679 0.37476 0.0
C291 C 0.3777 0.09915 0.42337 0.0
C292 C 0.46242 -0.0125 0.5592 0.0
C293 C 0.39877 0.13688 0.66531 0.0
C294 C 0.52964 0.13218 0.59309 0.0
C295 C 0.46044 0.05593 0.77675 0.0
O296 O 0.49087 0.10138 0.39351 0.0
O297 O 0.37193 0.07535 0.48924 0.0
O298 O 0.48007 0.00267 0.62366 0.0
O299 O 0.41766 0.14956 0.5965 0.0
O300 O 0.53655 0.101 0.55872 0.0
O301 O 0.4363 0.03635 0.73363 0.0
O302 O 0.4976 0.1461 0.58623 0.0
O303 O 0.39184 0.10245 0.67893 0.0
O304 O 0.48981 0.06842 0.73488 0.0
O305 O 0.41043 0.10881 0.40218 0.0
O306 O 0.50148 0.04262 0.43655 0.0
O307 O 0.43199 0.00279 0.52958 0.0
Sc308 Sc 0.5676 0.70425 0.24475 0.0
Sc309 Sc 0.64075 0.65854 0.35368 0.0
Sc310 Sc 0.63963 0.75279 0.33845 0.0
O311 O 0.61501 0.70427 0.31315 0.0
C312 C 0.62689 0.7413 0.12472 0.0
C313 C 0.59452 0.62767 0.17335 0.0
C314 C 0.7062 0.71238 0.3092 0.0
C315 C 0.55681 0.64874 0.4153 0.0
C316 C 0.56152 0.77962 0.34303 0.0
C317 C 0.63773 0.7104 0.52672 0.0
O318 O 0.59231 0.74084 0.14348 0.0
O319 O 0.61833 0.62191 0.2392 0.0
O320 O 0.69102 0.73004 0.37365 0.0
O321 O 0.54412 0.66764 0.34652 0.0
O322 O 0.5927 0.78653 0.30865 0.0
O323 O 0.65732 0.68627 0.48361 0.0
O324 O 0.54759 0.74759 0.33623 0.0
O325 O 0.59124 0.64181 0.4289 0.0
O326 O 0.62526 0.73978 0.48484 0.0
O327 O 0.58485 0.6604 0.15218 0.0
O328 O 0.65107 0.75144 0.18652 0.0
O329 O 0.6909 0.68196 0.27957 0.0
Sc330 Sc -0.01056 0.81759 0.99473 0.0
Sc331 Sc 0.03514 0.89073 0.10367 0.0
Sc332 Sc 0.94088 0.88961 0.08845 0.0
O333 O -0.01058 0.86499 0.06314 0.0
C334 C 0.9524 0.87687 0.87473 0.0
C335 C 0.06601 0.84452 0.92333 0.0
C336 C -0.01871 0.95617 0.05916 0.0
C337 C 0.04494 0.80679 0.16529 0.0
C338 C 0.91408 0.81149 0.09306 0.0
C339 C -0.01673 0.88773 0.27671 0.0
O340 O 0.95285 0.84229 0.89348 0.0
O341 O 0.07178 0.86832 0.98919 0.0
O342 O 0.96363 0.94099 0.12363 0.0
O343 O 0.02606 0.7941 0.09648 0.0
O344 O 0.90716 0.84267 0.05866 0.0
O345 O 0.00741 0.90731 0.23359 0.0
O346 O 0.94611 0.79756 0.08621 0.0
O347 O 0.05188 0.84122 0.17889 0.0
O348 O 0.9539 0.87524 0.23484 0.0
O349 O 0.03329 0.83485 0.90215 0.0
O350 O 0.94224 0.90104 0.93651 0.0
O351 O 0.01172 0.94088 1.02955 0.0
Sc352 Sc 0.63962 0.69088 0.83846 0.0
Sc353 Sc 0.64075 0.78513 0.85364 0.0
Sc354 Sc 0.56758 0.73942 0.74476 0.0
O355 O 0.615 0.73941 0.81312 0.0
C356 C 0.62687 0.70238 0.62473 0.0
C357 C 0.70617 0.73127 0.80913 0.0
C358 C 0.59455 0.81599 0.67322 0.0
C359 C 0.63775 0.73327 1.02672 0.0
C360 C 0.56151 0.66406 0.84313 0.0
C361 C 0.55681 0.79493 0.9153 0.0
O362 O 0.65105 0.69222 0.68651 0.0
O363 O 0.6909 0.76171 0.77952 0.0
O364 O 0.58478 0.78329 0.65214 0.0
O365 O 0.62526 0.7039 0.98485 0.0
O366 O 0.54758 0.6961 0.83628 0.0
O367 O 0.59123 0.80187 0.92886 0.0
O368 O 0.59268 0.65715 0.8087 0.0
O369 O 0.65733 0.75741 0.98358 0.0
O370 O 0.54411 0.77603 0.84653 0.0
O371 O 0.69101 0.71363 0.87362 0.0
O372 O 0.59229 0.70284 0.64348 0.0
O373 O 0.61833 0.82175 0.73913 0.0
Sc374 Sc 0.50281 0.3896 0.08842 0.0
Sc375 Sc 0.40855 0.39073 0.10361 0.0
Sc376 Sc 0.45427 0.31757 0.99474 0.0
O377 O 0.45428 0.36498 0.06309 0.0
C378 C 0.49131 0.37685 0.87468 0.0
C379 C 0.46241 0.45616 0.05914 0.0
C380 C 0.37769 0.34452 0.92321 0.0
C381 C 0.46041 0.38771 0.27668 0.0
C382 C 0.52964 0.3115 0.09307 0.0
C383 C 0.39875 0.30679 0.16527 0.0
O384 O 0.50145 0.40103 0.93648 0.0
O385 O 0.43198 0.44088 1.02951 0.0
O386 O 0.4104 0.33475 0.90213 0.0
O387 O 0.48978 0.37524 0.23481 0.0
O388 O 0.4976 0.29757 0.08626 0.0
O389 O 0.39181 0.34121 0.17884 0.0
O390 O 0.53654 0.34267 0.05865 0.0
O391 O 0.43627 0.4073 0.23356 0.0
O392 O 0.41766 0.29409 0.09653 0.0
O393 O 0.48005 0.44098 0.12361 0.0
O394 O 0.49084 0.34227 0.89344 0.0
O395 O 0.37193 0.36831 0.98911 0.0
Sc396 Sc 0.80412 0.25282 0.33837 0.0
Sc397 Sc 0.803 0.15857 0.35356 0.0
Sc398 Sc 0.87618 0.20429 0.24477 0.0
O399 O 0.82874 0.20429 0.31304 0.0
C400 C 0.81688 0.2413 0.12465 0.0
C401 C 0.73756 0.21242 0.30909 0.0
C402 C 0.84922 0.1277 0.17317 0.0
C403 C 0.806 0.21043 0.52664 0.0
C404 C 0.88221 0.27967 0.34308 0.0
C405 C 0.88695 0.14878 0.41529 0.0
O406 O 0.7927 0.25146 0.18643 0.0
O407 O 0.75284 0.18199 0.27947 0.0
O408 O 0.85909 0.16039 0.15217 0.0
O409 O 0.81848 0.23981 0.48476 0.0
O410 O 0.89614 0.24764 0.33628 0.0
O411 O 0.85252 0.14182 0.42877 0.0
O412 O 0.85104 0.28656 0.30858 0.0
O413 O 0.78643 0.18629 0.48352 0.0
O414 O 0.89966 0.16772 0.3466 0.0
O415 O 0.75273 0.23007 0.37356 0.0
O416 O 0.85147 0.24083 0.14339 0.0
O417 O 0.82539 0.12197 0.23901 0.0
Sc418 Sc 0.94091 0.55408 0.58844 0.0
Sc419 Sc 0.03516 0.55296 0.60361 0.0
Sc420 Sc -0.01056 0.62612 0.49476 0.0
O421 O -0.01056 0.5787 0.5631 0.0
C422 C 0.9524 0.56683 0.37469 0.0
C423 C -0.01869 0.48753 0.55913 0.0
C424 C 0.06602 0.59917 0.42321 0.0
C425 C -0.01669 0.55597 0.77669 0.0
C426 C 0.91407 0.63218 0.59308 0.0
C427 C 0.04497 0.6369 0.66528 0.0
O428 O 0.94226 0.54265 0.43649 0.0
O429 O 0.01174 0.50282 0.5295 0.0
O430 O 0.03332 0.60896 0.40215 0.0
O431 O 0.95393 0.56844 0.73482 0.0
O432 O 0.9461 0.64611 0.58627 0.0
O433 O 0.05191 0.60247 0.67883 0.0
O434 O 0.90717 0.601 0.55866 0.0
O435 O 0.00744 0.53639 0.73357 0.0
O436 O 0.02604 0.64959 0.59655 0.0
O437 O 0.96367 0.5027 0.62362 0.0
O438 O 0.95287 0.60142 0.39345 0.0
O439 O 0.07178 0.57538 0.4891 0.0
Sc440 Sc 0.56765 0.20424 0.826 0.0
Sc441 Sc 0.6408 0.15855 0.71703 0.0
Sc442 Sc 0.63966 0.2528 0.73222 0.0
O443 O 0.61505 0.20427 0.75756 0.0
C444 C 0.56152 0.27958 0.72758 0.0
C445 C 0.55686 0.14873 0.65544 0.0
C446 C 0.6378 0.2104 0.54397 0.0
C447 C 0.59461 0.12769 0.89748 0.0
C448 C 0.62692 0.24132 0.94596 0.0
C449 C 0.70623 0.21241 0.76155 0.0
O450 O 0.54761 0.24755 0.73449 0.0
O451 O 0.59129 0.14182 0.6418 0.0
O452 O 0.62531 0.23977 0.58583 0.0
O453 O 0.58492 0.16041 0.91862 0.0
O454 O 0.6511 0.25147 0.88416 0.0
O455 O 0.69095 0.18197 0.79116 0.0
O456 O 0.59234 0.24085 0.92721 0.0
O457 O 0.61836 0.12191 0.8315 0.0
O458 O 0.69105 0.23005 0.69707 0.0
O459 O 0.54417 0.16761 0.72427 0.0
O460 O 0.59271 0.28651 0.76195 0.0
O461 O 0.65739 0.18627 0.5871 0.0
Sc462 Sc -0.01052 0.3177 0.07599 0.0
Sc463 Sc 0.03518 0.39082 0.96693 0.0
Sc464 Sc 0.94092 0.38969 0.98212 0.0
O465 O -0.01055 0.36508 1.00747 0.0
C466 C 0.91414 0.31154 0.97758 0.0
C467 C 0.045 0.30689 0.90541 0.0
C468 C -0.01667 0.38783 0.79387 0.0
C469 C 0.06602 0.34465 0.14738 0.0
C470 C 0.95237 0.37696 0.19588 0.0
C471 C -0.01867 0.45624 1.01149 0.0
O472 O 0.94618 0.29763 0.9845 0.0
O473 O 0.05189 0.34132 0.89167 0.0
O474 O 0.95396 0.37534 0.83573 0.0
O475 O 0.03328 0.33506 0.1686 0.0
O476 O 0.94224 0.40114 0.13406 0.0
O477 O 0.01177 0.44096 0.04109 0.0
O478 O 0.95284 0.34238 0.17714 0.0
O479 O 0.07183 0.36836 0.08134 0.0
O480 O 0.96369 0.44108 0.94699 0.0
O481 O 0.02614 0.29422 0.9743 0.0
O482 O 0.90721 0.34274 1.01184 0.0
O483 O 0.00745 0.40742 0.83701 0.0
Sc484 Sc 0.87606 0.73944 0.326 0.0
Sc485 Sc 0.80292 0.78514 0.21701 0.0
Sc486 Sc 0.80405 0.69088 0.23221 0.0
O487 O 0.82866 0.73941 0.25755 0.0
C488 C 0.88219 0.6641 0.22759 0.0
C489 C 0.88686 0.79494 0.15543 0.0
C490 C 0.80591 0.73328 0.04395 0.0
C491 C 0.84909 0.81598 0.39745 0.0
C492 C 0.81679 0.70236 0.44595 0.0
C493 C 0.73749 0.73128 0.26156 0.0
O494 O 0.89611 0.69614 0.23451 0.0
O495 O 0.85243 0.80186 0.14176 0.0
O496 O 0.81841 0.70391 0.08582 0.0
O497 O 0.85877 0.78326 0.41862 0.0
O498 O 0.79261 0.69221 0.38415 0.0
O499 O 0.75277 0.76172 0.29115 0.0
O500 O 0.85137 0.70282 0.4272 0.0
O501 O 0.82535 0.82177 0.33145 0.0
O502 O 0.75266 0.71363 0.19707 0.0
O503 O 0.89954 0.77608 0.22429 0.0
O504 O 0.85101 0.65717 0.26195 0.0
O505 O 0.78633 0.75741 0.08709 0.0
Sc506 Sc 0.45425 0.62605 0.57602 0.0
Sc507 Sc 0.40854 0.55291 0.46707 0.0
Sc508 Sc 0.5028 0.55404 0.48225 0.0
O509 O 0.45427 0.57865 0.50759 0.0
C510 C 0.5296 0.63217 0.47765 0.0
C511 C 0.39872 0.63684 0.40547 0.0
C512 C 0.4604 0.55592 0.294 0.0
C513 C 0.37769 0.5991 0.64749 0.0
C514 C 0.49132 0.56678 0.696 0.0
C515 C 0.4624 0.48748 0.51157 0.0
O516 O 0.49756 0.64609 0.48451 0.0
O517 O 0.39181 0.60242 0.39183 0.0
O518 O 0.48977 0.5684 0.33586 0.0
O519 O 0.41041 0.60878 0.66864 0.0
O520 O 0.50146 0.54261 0.6342 0.0
O521 O 0.43196 0.50276 0.54119 0.0
O522 O 0.49085 0.60136 0.67725 0.0
O523 O 0.37191 0.57535 0.58153 0.0
O524 O 0.48005 0.50266 0.44709 0.0
O525 O 0.41761 0.64953 0.47429 0.0
O526 O 0.53652 0.60099 0.51201 0.0
O527 O 0.43627 0.53633 0.33713 0.0
Sc528 Sc 0.30405 0.25278 0.23223 0.0
Sc529 Sc 0.30293 0.15852 0.21706 0.0
Sc530 Sc 0.37607 0.20424 0.32602 0.0
O531 O 0.32867 0.20425 0.25757 0.0
C532 C 0.38219 0.27958 0.22765 0.0
C533 C 0.30592 0.21038 0.04398 0.0
C534 C 0.38688 0.14873 0.15548 0.0
C535 C 0.23749 0.21237 0.26152 0.0
C536 C 0.31678 0.24129 0.44596 0.0
C537 C 0.34913 0.12769 0.39748 0.0
O538 O 0.35099 0.2865 0.26197 0.0
O539 O 0.28635 0.18624 0.08712 0.0
O540 O 0.39956 0.1676 0.22431 0.0
O541 O 0.25266 0.23002 0.19706 0.0
O542 O 0.35137 0.24085 0.42721 0.0
O543 O 0.32537 0.12189 0.33153 0.0
O544 O 0.29261 0.25144 0.38416 0.0
O545 O 0.25278 0.18194 0.29116 0.0
O546 O 0.35879 0.16042 0.41865 0.0
O547 O 0.31841 0.23975 0.08584 0.0
O548 O 0.39611 0.24755 0.23452 0.0
O549 O 0.35245 0.1418 0.14183 0.0
Sc550 Sc 0.44088 0.55404 0.98226 0.0
Sc551 Sc 0.53514 0.55291 0.96707 0.0
Sc552 Sc 0.48943 0.62605 0.07604 0.0
O553 O 0.48942 0.57865 1.0076 0.0
C554 C 0.41408 0.63218 0.9777 0.0
C555 C 0.48329 0.55592 0.794 0.0
C556 C 0.54495 0.63685 0.90549 0.0
C557 C 0.48129 0.48748 1.01154 0.0
C558 C 0.45237 0.56677 0.19599 0.0
C559 C 0.56598 0.59911 0.14748 0.0
O560 O 0.40716 0.60099 1.01202 0.0
O561 O 0.50742 0.53633 0.83714 0.0
O562 O 0.52608 0.64953 0.97432 0.0
O563 O 0.46364 0.50265 0.94709 0.0
O564 O 0.45282 0.60136 0.17724 0.0
O565 O 0.57178 0.57535 0.08153 0.0
O566 O 0.44222 0.5426 0.1342 0.0
O567 O 0.51172 0.50276 0.04118 0.0
O568 O 0.53326 0.60876 0.16866 0.0
O569 O 0.45392 0.56841 0.83587 0.0
O570 O 0.44612 0.64609 0.98454 0.0
O571 O 0.55187 0.60242 0.89184 0.0
Sc572 Sc 0.13967 0.6909 0.7322 0.0
Sc573 Sc 0.14078 0.78516 0.71701 0.0
Sc574 Sc 0.06765 0.73944 0.82602 0.0
O575 O 0.11505 0.73943 0.75754 0.0
C576 C 0.06153 0.6641 0.72765 0.0
C577 C 0.1378 0.7333 0.54394 0.0
C578 C 0.05684 0.79495 0.65545 0.0
C579 C 0.20622 0.73132 0.76152 0.0
C580 C 0.12694 0.70238 0.94593 0.0
C581 C 0.09459 0.81599 0.89744 0.0
O582 O 0.09273 0.65718 0.76195 0.0
O583 O 0.15737 0.75744 0.58708 0.0
O584 O 0.04416 0.77608 0.7243 0.0
O585 O 0.19105 0.71367 0.69704 0.0
O586 O 0.09236 0.70283 0.9272 0.0
O587 O 0.11834 0.82179 0.83147 0.0
O588 O 0.15111 0.69223 0.88414 0.0
O589 O 0.19093 0.76175 0.79115 0.0
O590 O 0.08494 0.78326 0.91863 0.0
O591 O 0.12531 0.70393 0.58581 0.0
O592 O 0.04761 0.69613 0.73453 0.0
O593 O 0.09126 0.80187 0.64178 0.0
Sc594 Sc 0.00282 0.38969 0.48212 0.0
Sc595 Sc 0.90855 0.39082 0.46694 0.0
Sc596 Sc 0.95425 0.31771 0.57601 0.0
O597 O 0.95428 0.36508 0.50747 0.0
C598 C 0.02959 0.31153 0.47761 0.0
C599 C 0.96041 0.38783 0.29388 0.0
C600 C 0.89874 0.30689 0.40544 0.0
C601 C 0.9624 0.45625 0.51146 0.0
C602 C -0.00864 0.37697 0.69587 0.0
C603 C 0.87772 0.34465 0.64739 0.0
O604 O 0.03653 0.34274 0.51184 0.0
O605 O 0.93628 0.40742 0.33702 0.0
O606 O 0.91758 0.29423 0.47435 0.0
O607 O -0.01995 0.44108 0.44698 0.0
O608 O -0.00909 0.34239 0.67712 0.0
O609 O 0.8719 0.36837 0.58136 0.0
O610 O 0.0015 0.40114 0.63406 0.0
O611 O 0.93197 0.44096 0.54109 0.0
O612 O 0.91047 0.33508 0.66863 0.0
O613 O -0.01023 0.37533 0.33574 0.0
O614 O -0.00245 0.29762 0.48453 0.0
O615 O 0.89184 0.34132 0.3917 0.0
Sc616 Sc 0.37612 0.73942 0.24475 0.0
Sc617 Sc 0.30298 0.78515 0.35364 0.0
Sc618 Sc 0.30407 0.6909 0.33848 0.0
O619 O 0.32871 0.73942 0.31313 0.0
C620 C 0.31682 0.7024 0.12475 0.0
C621 C 0.34919 0.81599 0.17324 0.0
C622 C 0.23753 0.73132 0.30917 0.0
C623 C 0.38692 0.79493 0.41528 0.0
C624 C 0.38219 0.66406 0.34309 0.0
C625 C 0.30596 0.73329 0.52673 0.0
O626 O 0.35141 0.70284 0.14349 0.0
O627 O 0.3254 0.82176 0.23912 0.0
O628 O 0.2527 0.71367 0.37365 0.0
O629 O 0.39961 0.77603 0.34652 0.0
O630 O 0.351 0.65715 0.30871 0.0
O631 O 0.2864 0.75744 0.48359 0.0
O632 O 0.39611 0.69609 0.33626 0.0
O633 O 0.3525 0.80188 0.42885 0.0
O634 O 0.31844 0.70392 0.48486 0.0
O635 O 0.35893 0.78328 0.15214 0.0
O636 O 0.29264 0.69225 0.18654 0.0
O637 O 0.25282 0.76174 0.27953 0.0
Sc638 Sc 0.9543 0.62612 0.99474 0.0
Sc639 Sc 0.90857 0.55296 0.1036 0.0
Sc640 Sc 0.00283 0.55408 0.08843 0.0
O641 O 0.9543 0.5787 0.06309 0.0
C642 C -0.00867 0.56683 0.8747 0.0
C643 C 0.87772 0.59918 0.92322 0.0
C644 C 0.96242 0.48753 0.05915 0.0
C645 C 0.89877 0.6369 0.16526 0.0
C646 C 0.02967 0.63219 0.09304 0.0
C647 C 0.96043 0.55597 0.27669 0.0
O648 O -0.00913 0.60141 0.89345 0.0
O649 O 0.87196 0.57537 0.98908 0.0
O650 O -0.01993 0.5027 0.12363 0.0
O651 O 0.91769 0.64959 0.09652 0.0
O652 O 0.03657 0.60101 0.05865 0.0
O653 O 0.93629 0.53639 0.23356 0.0
O654 O -0.00237 0.64611 0.08624 0.0
O655 O 0.89183 0.60247 0.17881 0.0
O656 O -0.0102 0.56845 0.23482 0.0
O657 O 0.91043 0.60894 0.90213 0.0
O658 O 0.00148 0.54265 0.93649 0.0
O659 O 0.932 0.50282 1.02951 0.0
Sc660 Sc 0.06752 0.20429 0.74474 0.0
Sc661 Sc 0.14069 0.15855 0.85353 0.0
Sc662 Sc 0.1396 0.2528 0.83835 0.0
O663 O 0.11496 0.20428 0.81303 0.0
C664 C 0.12684 0.24127 0.62464 0.0
C665 C 0.09446 0.1277 0.67316 0.0
C666 C 0.20615 0.21238 0.80911 0.0
C667 C 0.05674 0.14878 0.91526 0.0
C668 C 0.06151 0.27967 0.84301 0.0
C669 C 0.13769 0.21041 1.02662 0.0
O670 O 0.09225 0.24083 0.64339 0.0
O671 O 0.11829 0.12196 0.73898 0.0
O672 O 0.19097 0.23004 0.87356 0.0
O673 O 0.04404 0.16772 0.84657 0.0
O674 O 0.09268 0.28656 0.80856 0.0
O675 O 0.15726 0.18626 0.9835 0.0
O676 O 0.04757 0.24764 0.83625 0.0
O677 O 0.09117 0.14181 0.92873 0.0
O678 O 0.12522 0.23979 0.98475 0.0
O679 O 0.08462 0.16039 0.65214 0.0
O680 O 0.15102 0.25143 0.68641 0.0
O681 O 0.19085 0.18196 0.77946 0.0
Sc682 Sc 0.48942 0.31757 0.49472 0.0
Sc683 Sc 0.53514 0.39073 0.6036 0.0
Sc684 Sc 0.44088 0.3896 0.58842 0.0
O685 O 0.48941 0.36499 0.56309 0.0
C686 C 0.45239 0.37686 0.3747 0.0
C687 C 0.56599 0.34452 0.42321 0.0
C688 C 0.48129 0.45617 0.55916 0.0
C689 C 0.54495 0.30679 0.66525 0.0
C690 C 0.41406 0.31149 0.59303 0.0
C691 C 0.48328 0.38772 0.77668 0.0
O692 O 0.45284 0.34228 0.39345 0.0
O693 O 0.57176 0.36831 0.48908 0.0
O694 O 0.46363 0.44099 0.62362 0.0
O695 O 0.52604 0.2941 0.59649 0.0
O696 O 0.40715 0.34267 0.55864 0.0
O697 O 0.50742 0.4073 0.73355 0.0
O698 O 0.44609 0.29757 0.58623 0.0
O699 O 0.55189 0.34122 0.67881 0.0
O700 O 0.45391 0.37523 0.73481 0.0
O701 O 0.53328 0.33478 0.4021 0.0
O702 O 0.44223 0.40104 0.43648 0.0
O703 O 0.51171 0.44088 0.52951 0.0
loop_
_geom_bond_atom_site_label_1
_geom_bond_atom_site_label_2
_geom_bond_distance
_geom_bond_site_symmetry_2
_ccdc_geom_bond_type
Sc0 O3 2.025 . S
Sc0 O10 2.105 . S
Sc0 O13 2.105 . S
Sc0 O16 2.105 . S
Sc0 O19 2.105 . S
Sc1 O3 2.025 . S
Sc1 O11 2.105 . S
Sc1 O15 2.105 . S
Sc1 O17 2.105 . S
Sc1 O21 2.105 . S
Sc2 O3 2.025 . S
Sc2 O12 2.105 . S
Sc2 O14 2.105 . S
Sc2 O18 2.105 . S
Sc2 O20 2.105 . S
O3 Sc0 2.025 . S
O3 Sc1 2.025 . S
O3 Sc2 2.025 . S
C4 O10 1.268 . S
C4 O20 1.268 . S
C5 O11 1.268 . S
C5 O19 1.268 . S
C6 O12 1.268 . S
C6 O21 1.268 . S
C7 O13 1.268 . S
C7 O17 1.268 . S
C8 O14 1.268 . S
C8 O16 1.268 . S
C9 O15 1.268 . S
C9 O18 1.268 . S
O10 Sc0 2.105 . S
O10 C4 1.268 . S
O11 Sc1 2.105 . S
O11 C5 1.268 . S
O12 Sc2 2.105 . S
O12 C6 1.268 . S
O13 Sc0 2.105 . S
O13 C7 1.268 . S
O14 Sc2 2.105 . S
O14 C8 1.268 . S
O15 Sc1 2.105 . S
O15 C9 1.268 . S
O16 Sc0 2.105 . S
O16 C8 1.268 . S
O17 Sc1 2.105 . S
O17 C7 1.268 . S
O18 Sc2 2.105 . S
O18 C9 1.268 . S
O19 Sc0 2.105 . S
O19 C5 1.268 . S
O20 Sc2 2.105 . S
O20 C4 1.268 . S
O21 Sc1 2.105 . S
O21 C6 1.268 . S
Sc22 O25 2.025 1_455 S
Sc22 O32 2.105 . S
Sc22 O35 2.105 . S
Sc22 O38 2.105 . S
Sc22 O41 2.105 1_455 S
Sc23 O25 2.025 . S
Sc23 O33 2.105 . S
Sc23 O37 2.105 . S
Sc23 O39 2.105 . S
Sc23 O43 2.105 . S
Sc24 O25 2.025 . S
Sc24 O34 2.105 . S
Sc24 O36 2.105 1_655 S
Sc24 O40 2.105 . S
Sc24 O42 2.105 1_655 S
O25 Sc22 2.025 1_655 S
O25 Sc23 2.025 . S
O25 Sc24 2.025 . S
C26 O32 1.268 . S
C26 O42 1.268 . S
C27 O33 1.268 . S
C27 O41 1.268 . S
C28 O34 1.268 . S
C28 O43 1.268 . S
C29 O35 1.268 1_655 S
C29 O39 1.268 . S
C30 O36 1.268 . S
C30 O38 1.268 . S
C31 O37 1.268 . S
C31 O40 1.268 . S
O32 Sc22 2.105 . S
O32 C26 1.268 . S
O33 Sc23 2.105 . S
O33 C27 1.268 . S
O34 Sc24 2.105 . S
O34 C28 1.268 . S
O35 Sc22 2.105 . S
O35 C29 1.268 1_455 S
O36 Sc24 2.105 1_455 S
O36 C30 1.268 . S
O37 Sc23 2.105 . S
O37 C31 1.268 . S
O38 Sc22 2.105 . S
O38 C30 1.268 . S
O39 Sc23 2.105 . S
O39 C29 1.268 . S
O40 Sc24 2.105 . S
O40 C31 1.268 . S
O41 Sc22 2.105 1_655 S
O41 C27 1.268 . S
O42 Sc24 2.105 1_455 S
O42 C26 1.268 . S
O43 Sc23 2.105 . S
O43 C28 1.268 . S
Sc44 O47 2.025 . S
Sc44 O54 2.105 . S
Sc44 O57 2.105 . S
Sc44 O60 2.105 . S
Sc44 O63 2.105 . S
Sc45 O47 2.025 . S
Sc45 O55 2.105 . S
Sc45 O59 2.105 . S
Sc45 O61 2.105 . S
Sc45 O65 2.105 . S
Sc46 O47 2.025 . S
Sc46 O56 2.105 . S
Sc46 O58 2.105 . S
Sc46 O62 2.105 . S
Sc46 O64 2.105 . S
O47 Sc44 2.025 . S
O47 Sc45 2.025 . S
O47 Sc46 2.025 . S
C48 O54 1.268 . S
C48 O64 1.268 . S
C49 O55 1.268 . S
C49 O63 1.268 . S
C50 O56 1.268 . S
C50 O65 1.268 . S
C51 O57 1.268 . S
C51 O61 1.268 . S
C52 O58 1.268 . S
C52 O60 1.268 . S
C53 O59 1.268 . S
C53 O62 1.268 . S
O54 Sc44 2.105 . S
O54 C48 1.268 . S
O55 Sc45 2.105 . S
O55 C49 1.268 . S
O56 Sc46 2.105 . S
O56 C50 1.268 . S
O57 Sc44 2.105 . S
O57 C51 1.268 . S
O58 Sc46 2.105 . S
O58 C52 1.268 . S
O59 Sc45 2.105 . S
O59 C53 1.268 . S
O60 Sc44 2.105 . S
O60 C52 1.268 . S
O61 Sc45 2.105 . S
O61 C51 1.268 . S
O62 Sc46 2.105 . S
O62 C53 1.268 . S
O63 Sc44 2.105 . S
O63 C49 1.268 . S
O64 Sc46 2.105 . S
O64 C48 1.268 . S
O65 Sc45 2.105 . S
O65 C50 1.268 . S
Sc66 O69 2.025 . S
Sc66 O76 2.105 1_554 S
Sc66 O79 2.105 . S
Sc66 O82 2.105 . S
Sc66 O85 2.105 . S
Sc67 O69 2.025 . S
Sc67 O77 2.105 . S
Sc67 O81 2.105 . S
Sc67 O83 2.105 . S
Sc67 O87 2.105 1_554 S
Sc68 O69 2.025 1_556 S
Sc68 O78 2.105 . S
Sc68 O80 2.105 1_556 S
Sc68 O84 2.105 1_556 S
Sc68 O86 2.105 . S
O69 Sc66 2.025 . S
O69 Sc67 2.025 . S
O69 Sc68 2.025 1_554 S
C70 O76 1.268 . S
C70 O86 1.268 . S
C71 O77 1.268 . S
C71 O85 1.268 . S
C72 O78 1.268 . S
C72 O87 1.268 . S
C73 O79 1.268 . S
C73 O83 1.268 . S
C74 O80 1.268 . S
C74 O82 1.268 . S
C75 O81 1.268 . S
C75 O84 1.268 . S
O76 Sc66 2.105 1_556 S
O76 C70 1.268 . S
O77 Sc67 2.105 . S
O77 C71 1.268 . S
O78 Sc68 2.105 . S
O78 C72 1.268 . S
O79 Sc66 2.105 . S
O79 C73 1.268 . S
O80 Sc68 2.105 1_554 S
O80 C74 1.268 . S
O81 Sc67 2.105 . S
O81 C75 1.268 . S
O82 Sc66 2.105 . S
O82 C74 1.268 . S
O83 Sc67 2.105 . S
O83 C73 1.268 . S
O84 Sc68 2.105 1_554 S
O84 C75 1.268 . S
O85 Sc66 2.105 . S
O85 C71 1.268 . S
O86 Sc68 2.105 . S
O86 C70 1.268 . S
O87 Sc67 2.105 1_556 S
O87 C72 1.268 . S
Sc88 O91 2.025 . S
Sc88 O98 2.105 . S
Sc88 O101 2.105 . S
Sc88 O104 2.105 . S
Sc88 O107 2.105 . S
Sc89 O91 2.025 . S
Sc89 O99 2.105 . S
Sc89 O103 2.105 . S
Sc89 O105 2.105 . S
Sc89 O109 2.105 . S
Sc90 O91 2.025 . S
Sc90 O100 2.105 . S
Sc90 O102 2.105 . S
Sc90 O106 2.105 . S
Sc90 O108 2.105 . S
O91 Sc88 2.025 . S
O91 Sc89 2.025 . S
O91 Sc90 2.025 . S
C92 O98 1.268 . S
C92 O108 1.268 . S
C93 O99 1.268 . S
C93 O107 1.268 . S
C94 O100 1.268 . S
C94 O109 1.268 . S
C95 O101 1.268 . S
C95 O105 1.268 . S
C96 O102 1.268 . S
C96 O104 1.268 . S
C97 O103 1.268 . S
C97 O106 1.268 . S
O98 Sc88 2.105 . S
O98 C92 1.268 . S
O99 Sc89 2.105 . S
O99 C93 1.268 . S
O100 Sc90 2.105 . S
O100 C94 1.268 . S
O101 Sc88 2.105 . S
O101 C95 1.268 . S
O102 Sc90 2.105 . S
O102 C96 1.268 . S
O103 Sc89 2.105 . S
O103 C97 1.268 . S
O104 Sc88 2.105 . S
O104 C96 1.268 . S
O105 Sc89 2.105 . S
O105 C95 1.268 . S
O106 Sc90 2.105 . S
O106 C97 1.268 . S
O107 Sc88 2.105 . S
O107 C93 1.268 . S
O108 Sc90 2.105 . S
O108 C92 1.268 . S
O109 Sc89 2.105 . S
O109 C94 1.268 . S
Sc110 O113 2.025 . S
Sc110 O120 2.105 . S
Sc110 O123 2.105 . S
Sc110 O126 2.105 . S
Sc110 O129 2.105 . S
Sc111 O113 2.025 . S
Sc111 O121 2.105 . S
Sc111 O125 2.105 . S
Sc111 O127 2.105 . S
Sc111 O131 2.105 . S
Sc112 O113 2.025 . S
Sc112 O122 2.105 . S
Sc112 O124 2.105 . S
Sc112 O128 2.105 . S
Sc112 O130 2.105 . S
O113 Sc110 2.025 . S
O113 Sc111 2.025 . S
O113 Sc112 2.025 . S
C114 O120 1.268 . S
C114 O130 1.268 . S
C115 O121 1.268 . S
C115 O129 1.268 . S
C116 O122 1.268 . S
C116 O131 1.268 . S
C117 O123 1.268 . S
C117 O127 1.268 . S
C118 O124 1.268 . S
C118 O126 1.268 . S
C119 O125 1.268 . S
C119 O128 1.268 . S
O120 Sc110 2.105 . S
O120 C114 1.268 . S
O121 Sc111 2.105 . S
O121 C115 1.268 . S
O122 Sc112 2.105 . S
O122 C116 1.268 . S
O123 Sc110 2.105 . S
O123 C117 1.268 . S
O124 Sc112 2.105 . S
O124 C118 1.268 . S
O125 Sc111 2.105 . S
O125 C119 1.268 . S
O126 Sc110 2.105 . S
O126 C118 1.268 . S
O127 Sc111 2.105 . S
O127 C117 1.268 . S
O128 Sc112 2.105 . S
O128 C119 1.268 . S
O129 Sc110 2.105 . S
O129 C115 1.268 . S
O130 Sc112 2.105 . S
O130 C114 1.268 . S
O131 Sc111 2.105 . S
O131 C116 1.268 . S
Sc132 O135 2.025 . S
Sc132 O142 2.105 . S
Sc132 O145 2.105 . S
Sc132 O148 2.105 . S
Sc132 O151 2.105 . S
Sc133 O135 2.025 . S
Sc133 O143 2.105 . S
Sc133 O147 2.105 . S
Sc133 O149 2.105 . S
Sc133 O153 2.105 . S
Sc134 O135 2.025 . S
Sc134 O144 2.105 . S
Sc134 O146 2.105 . S
Sc134 O150 2.105 . S
Sc134 O152 2.105 . S
O135 Sc132 2.025 . S
O135 Sc133 2.025 . S
O135 Sc134 2.025 . S
C136 O142 1.268 . S
C136 O152 1.268 . S
C137 O143 1.268 . S
C137 O151 1.268 . S
C138 O144 1.268 . S
C138 O153 1.268 . S
C139 O145 1.268 . S
C139 O149 1.268 . S
C140 O146 1.268 . S
C140 O148 1.268 . S
C141 O147 1.268 . S
C141 O150 1.268 . S
O142 Sc132 2.105 . S
O142 C136 1.268 . S
O143 Sc133 2.105 . S
O143 C137 1.268 . S
O144 Sc134 2.105 . S
O144 C138 1.268 . S
O145 Sc132 2.105 . S
O145 C139 1.268 . S
O146 Sc134 2.105 . S
O146 C140 1.268 . S
O147 Sc133 2.105 . S
O147 C141 1.268 . S
O148 Sc132 2.105 . S
O148 C140 1.268 . S
O149 Sc133 2.105 . S
O149 C139 1.268 . S
O150 Sc134 2.105 . S
O150 C141 1.268 . S
O151 Sc132 2.105 . S
O151 C137 1.268 . S
O152 Sc134 2.105 . S
O152 C136 1.268 . S
O153 Sc133 2.105 . S
O153 C138 1.268 . S
Sc154 O157 2.025 1_554 S
Sc154 O164 2.105 1_654 S
Sc154 O167 2.105 . S
Sc154 O170 2.105 1_655 S
Sc154 O173 2.105 1_554 S
Sc155 O157 2.025 . S
Sc155 O165 2.105 . S
Sc155 O169 2.105 . S
Sc155 O171 2.105 1_556 S
Sc155 O175 2.105 . S
Sc156 O157 2.025 1_455 S
Sc156 O166 2.105 . S
Sc156 O168 2.105 1_556 S
Sc156 O172 2.105 1_455 S
Sc156 O174 2.105 . S
O157 Sc154 2.025 1_556 S
O157 Sc155 2.025 . S
O157 Sc156 2.025 1_655 S
C158 O164 1.268 . S
C158 O174 1.268 . S
C159 O165 1.268 . S
C159 O173 1.268 . S
C160 O166 1.268 1_655 S
C160 O175 1.268 . S
C161 O167 1.268 . S
C161 O171 1.268 . S
C162 O168 1.268 . S
C162 O170 1.268 . S
C163 O169 1.268 . S
C163 O172 1.268 . S
O164 Sc154 2.105 1_456 S
O164 C158 1.268 . S
O165 Sc155 2.105 . S
O165 C159 1.268 . S
O166 Sc156 2.105 . S
O166 C160 1.268 1_455 S
O167 Sc154 2.105 . S
O167 C161 1.268 . S
O168 Sc156 2.105 1_554 S
O168 C162 1.268 . S
O169 Sc155 2.105 . S
O169 C163 1.268 . S
O170 Sc154 2.105 1_455 S
O170 C162 1.268 . S
O171 Sc155 2.105 1_554 S
O171 C161 1.268 . S
O172 Sc156 2.105 1_655 S
O172 C163 1.268 . S
O173 Sc154 2.105 1_556 S
O173 C159 1.268 . S
O174 Sc156 2.105 . S
O174 C158 1.268 . S
O175 Sc155 2.105 . S
O175 C160 1.268 . S
Sc176 O179 2.025 . S
Sc176 O186 2.105 . S
Sc176 O189 2.105 . S
Sc176 O192 2.105 . S
Sc176 O195 2.105 . S
Sc177 O179 2.025 . S
Sc177 O187 2.105 . S
Sc177 O191 2.105 . S
Sc177 O193 2.105 . S
Sc177 O197 2.105 . S
Sc178 O179 2.025 . S
Sc178 O188 2.105 . S
Sc178 O190 2.105 . S
Sc178 O194 2.105 . S
Sc178 O196 2.105 . S
O179 Sc176 2.025 . S
O179 Sc177 2.025 . S
O179 Sc178 2.025 . S
C180 O186 1.268 . S
C180 O196 1.268 . S
C181 O187 1.268 . S
C181 O195 1.268 . S
C182 O188 1.268 . S
C182 O197 1.268 . S
C183 O189 1.268 . S
C183 O193 1.268 . S
C184 O190 1.268 . S
C184 O192 1.268 . S
C185 O191 1.268 . S
C185 O194 1.268 . S
O186 Sc176 2.105 . S
O186 C180 1.268 . S
O187 Sc177 2.105 . S
O187 C181 1.268 . S
O188 Sc178 2.105 . S
O188 C182 1.268 . S
O189 Sc176 2.105 . S
O189 C183 1.268 . S
O190 Sc178 2.105 . S
O190 C184 1.268 . S
O191 Sc177 2.105 . S
O191 C185 1.268 . S
O192 Sc176 2.105 . S
O192 C184 1.268 . S
O193 Sc177 2.105 . S
O193 C183 1.268 . S
O194 Sc178 2.105 . S
O194 C185 1.268 . S
O195 Sc176 2.105 . S
O195 C181 1.268 . S
O196 Sc178 2.105 . S
O196 C180 1.268 . S
O197 Sc177 2.105 . S
O197 C182 1.268 . S
Sc198 O201 2.025 1_655 S
Sc198 O208 2.105 . S
Sc198 O211 2.105 1_655 S
Sc198 O214 2.105 . S
Sc198 O217 2.105 . S
Sc199 O201 2.025 . S
Sc199 O209 2.105 . S
Sc199 O213 2.105 . S
Sc199 O215 2.105 . S
Sc199 O219 2.105 . S
Sc200 O201 2.025 . S
Sc200 O210 2.105 . S
Sc200 O212 2.105 1_455 S
Sc200 O216 2.105 . S
Sc200 O218 2.105 1_455 S
O201 Sc198 2.025 1_455 S
O201 Sc199 2.025 . S
O201 Sc200 2.025 . S
C202 O208 1.268 . S
C202 O218 1.268 . S
C203 O209 1.268 . S
C203 O217 1.268 1_455 S
C204 O210 1.268 . S
C204 O219 1.268 . S
C205 O211 1.268 . S
C205 O215 1.268 . S
C206 O212 1.268 . S
C206 O214 1.268 . S
C207 O213 1.268 . S
C207 O216 1.268 . S
O208 Sc198 2.105 . S
O208 C202 1.268 . S
O209 Sc199 2.105 . S
O209 C203 1.268 . S
O210 Sc200 2.105 . S
O210 C204 1.268 . S
O211 Sc198 2.105 1_455 S
O211 C205 1.268 . S
O212 Sc200 2.105 1_655 S
O212 C206 1.268 . S
O213 Sc199 2.105 . S
O213 C207 1.268 . S
O214 Sc198 2.105 . S
O214 C206 1.268 . S
O215 Sc199 2.105 . S
O215 C205 1.268 . S
O216 Sc200 2.105 . S
O216 C207 1.268 . S
O217 Sc198 2.105 . S
O217 C203 1.268 1_655 S
O218 Sc200 2.105 1_655 S
O218 C202 1.268 . S
O219 Sc199 2.105 . S
O219 C204 1.268 . S
Sc220 O223 2.025 . S
Sc220 O230 2.105 . S
Sc220 O233 2.105 . S
Sc220 O236 2.105 . S
Sc220 O239 2.105 . S
Sc221 O223 2.025 . S
Sc221 O231 2.105 . S
Sc221 O235 2.105 . S
Sc221 O237 2.105 . S
Sc221 O241 2.105 . S
Sc222 O223 2.025 . S
Sc222 O232 2.105 . S
Sc222 O234 2.105 . S
Sc222 O238 2.105 . S
Sc222 O240 2.105 . S
O223 Sc220 2.025 . S
O223 Sc221 2.025 . S
O223 Sc222 2.025 . S
C224 O230 1.268 . S
C224 O240 1.268 . S
C225 O231 1.268 . S
C225 O239 1.268 . S
C226 O232 1.268 . S
C226 O241 1.268 . S
C227 O233 1.268 . S
C227 O237 1.268 . S
C228 O234 1.268 . S
C228 O236 1.268 . S
C229 O235 1.268 . S
C229 O238 1.268 . S
O230 Sc220 2.105 . S
O230 C224 1.268 . S
O231 Sc221 2.105 . S
O231 C225 1.268 . S
O232 Sc222 2.105 . S
O232 C226 1.268 . S
O233 Sc220 2.105 . S
O233 C227 1.268 . S
O234 Sc222 2.105 . S
O234 C228 1.268 . S
O235 Sc221 2.105 . S
O235 C229 1.268 . S
O236 Sc220 2.105 . S
O236 C228 1.268 . S
O237 Sc221 2.105 . S
O237 C227 1.268 . S
O238 Sc222 2.105 . S
O238 C229 1.268 . S
O239 Sc220 2.105 . S
O239 C225 1.268 . S
O240 Sc222 2.105 . S
O240 C224 1.268 . S
O241 Sc221 2.105 . S
O241 C226 1.268 . S
Sc242 O245 2.025 . S
Sc242 O252 2.105 . S
Sc242 O255 2.105 . S
Sc242 O258 2.105 1_556 S
Sc242 O261 2.105 . S
Sc243 O245 2.025 . S
Sc243 O253 2.105 . S
Sc243 O257 2.105 1_556 S
Sc243 O259 2.105 . S
Sc243 O263 2.105 . S
Sc244 O245 2.025 1_554 S
Sc244 O254 2.105 1_554 S
Sc244 O256 2.105 . S
Sc244 O260 2.105 . S
Sc244 O262 2.105 1_554 S
O245 Sc242 2.025 . S
O245 Sc243 2.025 . S
O245 Sc244 2.025 1_556 S
C246 O252 1.268 . S
C246 O262 1.268 . S
C247 O253 1.268 . S
C247 O261 1.268 . S
C248 O254 1.268 . S
C248 O263 1.268 . S
C249 O255 1.268 . S
C249 O259 1.268 . S
C250 O256 1.268 . S
C250 O258 1.268 . S
C251 O257 1.268 . S
C251 O260 1.268 . S
O252 Sc242 2.105 . S
O252 C246 1.268 . S
O253 Sc243 2.105 . S
O253 C247 1.268 . S
O254 Sc244 2.105 1_556 S
O254 C248 1.268 . S
O255 Sc242 2.105 . S
O255 C249 1.268 . S
O256 Sc244 2.105 . S
O256 C250 1.268 . S
O257 Sc243 2.105 1_554 S
O257 C251 1.268 . S
O258 Sc242 2.105 1_554 S
O258 C250 1.268 . S
O259 Sc243 2.105 . S
O259 C249 1.268 . S
O260 Sc244 2.105 . S
O260 C251 1.268 . S
O261 Sc242 2.105 . S
O261 C247 1.268 . S
O262 Sc244 2.105 1_556 S
O262 C246 1.268 . S
O263 Sc243 2.105 . S
O263 C248 1.268 . S
Sc264 O267 2.025 . S
Sc264 O274 2.105 . S
Sc264 O277 2.105 . S
Sc264 O280 2.105 . S
Sc264 O283 2.105 . S
Sc265 O267 2.025 . S
Sc265 O275 2.105 . S
Sc265 O279 2.105 . S
Sc265 O281 2.105 . S
Sc265 O285 2.105 . S
Sc266 O267 2.025 . S
Sc266 O276 2.105 . S
Sc266 O278 2.105 . S
Sc266 O282 2.105 . S
Sc266 O284 2.105 . S
O267 Sc264 2.025 . S
O267 Sc265 2.025 . S
O267 Sc266 2.025 . S
C268 O274 1.268 . S
C268 O284 1.268 . S
C269 O275 1.268 . S
C269 O283 1.268 . S
C270 O276 1.268 . S
C270 O285 1.268 . S
C271 O277 1.268 . S
C271 O281 1.268 . S
C272 O278 1.268 . S
C272 O280 1.268 . S
C273 O279 1.268 . S
C273 O282 1.268 . S
O274 Sc264 2.105 . S
O274 C268 1.268 . S
O275 Sc265 2.105 . S
O275 C269 1.268 . S
O276 Sc266 2.105 . S
O276 C270 1.268 . S
O277 Sc264 2.105 . S
O277 C271 1.268 . S
O278 Sc266 2.105 . S
O278 C272 1.268 . S
O279 Sc265 2.105 . S
O279 C273 1.268 . S
O280 Sc264 2.105 . S
O280 C272 1.268 . S
O281 Sc265 2.105 . S
O281 C271 1.268 . S
O282 Sc266 2.105 . S
O282 C273 1.268 . S
O283 Sc264 2.105 . S
O283 C269 1.268 . S
O284 Sc266 2.105 . S
O284 C268 1.268 . S
O285 Sc265 2.105 . S
O285 C270 1.268 . S
Sc286 O289 2.025 . S
Sc286 O296 2.105 . S
Sc286 O299 2.105 . S
Sc286 O302 2.105 . S
Sc286 O305 2.105 . S
Sc287 O289 2.025 . S
Sc287 O297 2.105 . S
Sc287 O301 2.105 . S
Sc287 O303 2.105 . S
Sc287 O307 2.105 . S
Sc288 O289 2.025 . S
Sc288 O298 2.105 . S
Sc288 O300 2.105 . S
Sc288 O304 2.105 . S
Sc288 O306 2.105 . S
O289 Sc286 2.025 . S
O289 Sc287 2.025 . S
O289 Sc288 2.025 . S
C290 O296 1.268 . S
C290 O306 1.268 . S
C291 O297 1.268 . S
C291 O305 1.268 . S
C292 O298 1.268 . S
C292 O307 1.268 . S
C293 O299 1.268 . S
C293 O303 1.268 . S
C294 O300 1.268 . S
C294 O302 1.268 . S
C295 O301 1.268 . S
C295 O304 1.268 . S
O296 Sc286 2.105 . S
O296 C290 1.268 . S
O297 Sc287 2.105 . S
O297 C291 1.268 . S
O298 Sc288 2.105 . S
O298 C292 1.268 . S
O299 Sc286 2.105 . S
O299 C293 1.268 . S
O300 Sc288 2.105 . S
O300 C294 1.268 . S
O301 Sc287 2.105 . S
O301 C295 1.268 . S
O302 Sc286 2.105 . S
O302 C294 1.268 . S
O303 Sc287 2.105 . S
O303 C293 1.268 . S
O304 Sc288 2.105 . S
O304 C295 1.268 . S
O305 Sc286 2.105 . S
O305 C291 1.268 . S
O306 Sc288 2.105 . S
O306 C290 1.268 . S
O307 Sc287 2.105 . S
O307 C292 1.268 . S
Sc308 O311 2.025 . S
Sc308 O318 2.105 . S
Sc308 O321 2.105 . S
Sc308 O324 2.105 . S
Sc308 O327 2.105 . S
Sc309 O311 2.025 . S
Sc309 O319 2.105 . S
Sc309 O323 2.105 . S
Sc309 O325 2.105 . S
Sc309 O329 2.105 . S
Sc310 O311 2.025 . S
Sc310 O320 2.105 . S
Sc310 O322 2.105 . S
Sc310 O326 2.105 . S
Sc310 O328 2.105 . S
O311 Sc308 2.025 . S
O311 Sc309 2.025 . S
O311 Sc310 2.025 . S
C312 O318 1.268 . S
C312 O328 1.268 . S
C313 O319 1.268 . S
C313 O327 1.268 . S
C314 O320 1.268 . S
C314 O329 1.268 . S
C315 O321 1.268 . S
C315 O325 1.268 . S
C316 O322 1.268 . S
C316 O324 1.268 . S
C317 O323 1.268 . S
C317 O326 1.268 . S
O318 Sc308 2.105 . S
O318 C312 1.268 . S
O319 Sc309 2.105 . S
O319 C313 1.268 . S
O320 Sc310 2.105 . S
O320 C314 1.268 . S
O321 Sc308 2.105 . S
O321 C315 1.268 . S
O322 Sc310 2.105 . S
O322 C316 1.268 . S
O323 Sc309 2.105 . S
O323 C317 1.268 . S
O324 Sc308 2.105 . S
O324 C316 1.268 . S
O325 Sc309 2.105 . S
O325 C315 1.268 . S
O326 Sc310 2.105 . S
O326 C317 1.268 . S
O327 Sc308 2.105 . S
O327 C313 1.268 . S
O328 Sc310 2.105 . S
O328 C312 1.268 . S
O329 Sc309 2.105 . S
O329 C314 1.268 . S
Sc330 O333 2.025 1_556 S
Sc330 O340 2.105 1_455 S
Sc330 O343 2.105 1_556 S
Sc330 O346 2.105 1_456 S
Sc330 O349 2.105 . S
Sc331 O333 2.025 . S
Sc331 O341 2.105 1_554 S
Sc331 O345 2.105 . S
Sc331 O347 2.105 . S
Sc331 O351 2.105 . S
Sc332 O333 2.025 1_655 S
Sc332 O342 2.105 1_655 S
Sc332 O344 2.105 . S
Sc332 O348 2.105 . S
Sc332 O350 2.105 1_554 S
O333 Sc330 2.025 1_554 S
O333 Sc331 2.025 . S
O333 Sc332 2.025 1_455 S
C334 O340 1.268 . S
C334 O350 1.268 . S
C335 O341 1.268 . S
C335 O349 1.268 . S
C336 O342 1.268 . S
C336 O351 1.268 . S
C337 O343 1.268 . S
C337 O347 1.268 . S
C338 O344 1.268 . S
C338 O346 1.268 . S
C339 O345 1.268 . S
C339 O348 1.268 1_455 S
O340 Sc330 2.105 1_655 S
O340 C334 1.268 . S
O341 Sc331 2.105 1_556 S
O341 C335 1.268 . S
O342 Sc332 2.105 1_455 S
O342 C336 1.268 . S
O343 Sc330 2.105 1_554 S
O343 C337 1.268 . S
O344 Sc332 2.105 . S
O344 C338 1.268 . S
O345 Sc331 2.105 . S
O345 C339 1.268 . S
O346 Sc330 2.105 1_654 S
O346 C338 1.268 . S
O347 Sc331 2.105 . S
O347 C337 1.268 . S
O348 Sc332 2.105 . S
O348 C339 1.268 1_655 S
O349 Sc330 2.105 . S
O349 C335 1.268 . S
O350 Sc332 2.105 1_556 S
O350 C334 1.268 . S
O351 Sc331 2.105 . S
O351 C336 1.268 . S
Sc352 O355 2.025 . S
Sc352 O362 2.105 . S
Sc352 O365 2.105 . S
Sc352 O368 2.105 . S
Sc352 O371 2.105 . S
Sc353 O355 2.025 . S
Sc353 O363 2.105 . S
Sc353 O367 2.105 . S
Sc353 O369 2.105 . S
Sc353 O373 2.105 . S
Sc354 O355 2.025 . S
Sc354 O364 2.105 . S
Sc354 O366 2.105 . S
Sc354 O370 2.105 . S
Sc354 O372 2.105 . S
O355 Sc352 2.025 . S
O355 Sc353 2.025 . S
O355 Sc354 2.025 . S
C356 O362 1.268 . S
C356 O372 1.268 . S
C357 O363 1.268 . S
C357 O371 1.268 . S
C358 O364 1.268 . S
C358 O373 1.268 . S
C359 O365 1.268 . S
C359 O369 1.268 . S
C360 O366 1.268 . S
C360 O368 1.268 . S
C361 O367 1.268 . S
C361 O370 1.268 . S
O362 Sc352 2.105 . S
O362 C356 1.268 . S
O363 Sc353 2.105 . S
O363 C357 1.268 . S
O364 Sc354 2.105 . S
O364 C358 1.268 . S
O365 Sc352 2.105 . S
O365 C359 1.268 . S
O366 Sc354 2.105 . S
O366 C360 1.268 . S
O367 Sc353 2.105 . S
O367 C361 1.268 . S
O368 Sc352 2.105 . S
O368 C360 1.268 . S
O369 Sc353 2.105 . S
O369 C359 1.268 . S
O370 Sc354 2.105 . S
O370 C361 1.268 . S
O371 Sc352 2.105 . S
O371 C357 1.268 . S
O372 Sc354 2.105 . S
O372 C356 1.268 . S
O373 Sc353 2.105 . S
O373 C358 1.268 . S
Sc374 O377 2.025 . S
Sc374 O384 2.105 1_554 S
Sc374 O387 2.105 . S
Sc374 O390 2.105 . S
Sc374 O393 2.105 . S
Sc375 O377 2.025 . S
Sc375 O385 2.105 . S
Sc375 O389 2.105 . S
Sc375 O391 2.105 . S
Sc375 O395 2.105 1_554 S
Sc376 O377 2.025 1_556 S
Sc376 O386 2.105 . S
Sc376 O388 2.105 1_556 S
Sc376 O392 2.105 1_556 S
Sc376 O394 2.105 . S
O377 Sc374 2.025 . S
O377 Sc375 2.025 . S
O377 Sc376 2.025 1_554 S
C378 O384 1.268 . S
C378 O394 1.268 . S
C379 O385 1.268 . S
C379 O393 1.268 . S
C380 O386 1.268 . S
C380 O395 1.268 . S
C381 O387 1.268 . S
C381 O391 1.268 . S
C382 O388 1.268 . S
C382 O390 1.268 . S
C383 O389 1.268 . S
C383 O392 1.268 . S
O384 Sc374 2.105 1_556 S
O384 C378 1.268 . S
O385 Sc375 2.105 . S
O385 C379 1.268 . S
O386 Sc376 2.105 . S
O386 C380 1.268 . S
O387 Sc374 2.105 . S
O387 C381 1.268 . S
O388 Sc376 2.105 1_554 S
O388 C382 1.268 . S
O389 Sc375 2.105 . S
O389 C383 1.268 . S
O390 Sc374 2.105 . S
O390 C382 1.268 . S
O391 Sc375 2.105 . S
O391 C381 1.268 . S
O392 Sc376 2.105 1_554 S
O392 C383 1.268 . S
O393 Sc374 2.105 . S
O393 C379 1.268 . S
O394 Sc376 2.105 . S
O394 C378 1.268 . S
O395 Sc375 2.105 1_556 S
O395 C380 1.268 . S
Sc396 O399 2.025 . S
Sc396 O406 2.105 . S
Sc396 O409 2.105 . S
Sc396 O412 2.105 . S
Sc396 O415 2.105 . S
Sc397 O399 2.025 . S
Sc397 O407 2.105 . S
Sc397 O411 2.105 . S
Sc397 O413 2.105 . S
Sc397 O417 2.105 . S
Sc398 O399 2.025 . S
Sc398 O408 2.105 . S
Sc398 O410 2.105 . S
Sc398 O414 2.105 . S
Sc398 O416 2.105 . S
O399 Sc396 2.025 . S
O399 Sc397 2.025 . S
O399 Sc398 2.025 . S
C400 O406 1.268 . S
C400 O416 1.268 . S
C401 O407 1.268 . S
C401 O415 1.268 . S
C402 O408 1.268 . S
C402 O417 1.268 . S
C403 O409 1.268 . S
C403 O413 1.268 . S
C404 O410 1.268 . S
C404 O412 1.268 . S
C405 O411 1.268 . S
C405 O414 1.268 . S
O406 Sc396 2.105 . S
O406 C400 1.268 . S
O407 Sc397 2.105 . S
O407 C401 1.268 . S
O408 Sc398 2.105 . S
O408 C402 1.268 . S
O409 Sc396 2.105 . S
O409 C403 1.268 . S
O410 Sc398 2.105 . S
O410 C404 1.268 . S
O411 Sc397 2.105 . S
O411 C405 1.268 . S
O412 Sc396 2.105 . S
O412 C404 1.268 . S
O413 Sc397 2.105 . S
O413 C403 1.268 . S
O414 Sc398 2.105 . S
O414 C405 1.268 . S
O415 Sc396 2.105 . S
O415 C401 1.268 . S
O416 Sc398 2.105 . S
O416 C400 1.268 . S
O417 Sc397 2.105 . S
O417 C402 1.268 . S
Sc418 O421 2.025 1_655 S
Sc418 O428 2.105 . S
Sc418 O431 2.105 . S
Sc418 O434 2.105 . S
Sc418 O437 2.105 1_655 S
Sc419 O421 2.025 . S
Sc419 O429 2.105 . S
Sc419 O433 2.105 . S
Sc419 O435 2.105 . S
Sc419 O439 2.105 . S
Sc420 O421 2.025 . S
Sc420 O430 2.105 . S
Sc420 O432 2.105 1_455 S
Sc420 O436 2.105 . S
Sc420 O438 2.105 1_455 S
O421 Sc418 2.025 1_455 S
O421 Sc419 2.025 . S
O421 Sc420 2.025 . S
C422 O428 1.268 . S
C422 O438 1.268 . S
C423 O429 1.268 . S
C423 O437 1.268 . S
C424 O430 1.268 . S
C424 O439 1.268 . S
C425 O431 1.268 1_455 S
C425 O435 1.268 . S
C426 O432 1.268 . S
C426 O434 1.268 . S
C427 O433 1.268 . S
C427 O436 1.268 . S
O428 Sc418 2.105 . S
O428 C422 1.268 . S
O429 Sc419 2.105 . S
O429 C423 1.268 . S
O430 Sc420 2.105 . S
O430 C424 1.268 . S
O431 Sc418 2.105 . S
O431 C425 1.268 1_655 S
O432 Sc420 2.105 1_655 S
O432 C426 1.268 . S
O433 Sc419 2.105 . S
O433 C427 1.268 . S
O434 Sc418 2.105 . S
O434 C426 1.268 . S
O435 Sc419 2.105 . S
O435 C425 1.268 . S
O436 Sc420 2.105 . S
O436 C427 1.268 . S
O437 Sc418 2.105 1_455 S
O437 C423 1.268 . S
O438 Sc420 2.105 1_655 S
O438 C422 1.268 . S
O439 Sc419 2.105 . S
O439 C424 1.268 . S
Sc440 O443 2.025 . S
Sc440 O450 2.105 . S
Sc440 O453 2.105 . S
Sc440 O456 2.105 . S
Sc440 O459 2.105 . S
Sc441 O443 2.025 . S
Sc441 O451 2.105 . S
Sc441 O455 2.105 . S
Sc441 O457 2.105 . S
Sc441 O461 2.105 . S
Sc442 O443 2.025 . S
Sc442 O452 2.105 . S
Sc442 O454 2.105 . S
Sc442 O458 2.105 . S
Sc442 O460 2.105 . S
O443 Sc440 2.025 . S
O443 Sc441 2.025 . S
O443 Sc442 2.025 . S
C444 O450 1.268 . S
C444 O460 1.268 . S
C445 O451 1.268 . S
C445 O459 1.268 . S
C446 O452 1.268 . S
C446 O461 1.268 . S
C447 O453 1.268 . S
C447 O457 1.268 . S
C448 O454 1.268 . S
C448 O456 1.268 . S
C449 O455 1.268 . S
C449 O458 1.268 . S
O450 Sc440 2.105 . S
O450 C444 1.268 . S
O451 Sc441 2.105 . S
O451 C445 1.268 . S
O452 Sc442 2.105 . S
O452 C446 1.268 . S
O453 Sc440 2.105 . S
O453 C447 1.268 . S
O454 Sc442 2.105 . S
O454 C448 1.268 . S
O455 Sc441 2.105 . S
O455 C449 1.268 . S
O456 Sc440 2.105 . S
O456 C448 1.268 . S
O457 Sc441 2.105 . S
O457 C447 1.268 . S
O458 Sc442 2.105 . S
O458 C449 1.268 . S
O459 Sc440 2.105 . S
O459 C445 1.268 . S
O460 Sc442 2.105 . S
O460 C444 1.268 . S
O461 Sc441 2.105 . S
O461 C446 1.268 . S
Sc462 O465 2.025 1_554 S
Sc462 O472 2.105 1_454 S
Sc462 O475 2.105 . S
Sc462 O478 2.105 1_455 S
Sc462 O481 2.105 1_554 S
Sc463 O465 2.025 . S
Sc463 O473 2.105 . S
Sc463 O477 2.105 . S
Sc463 O479 2.105 1_556 S
Sc463 O483 2.105 . S
Sc464 O465 2.025 1_655 S
Sc464 O474 2.105 . S
Sc464 O476 2.105 1_556 S
Sc464 O480 2.105 1_655 S
Sc464 O482 2.105 . S
O465 Sc462 2.025 1_556 S
O465 Sc463 2.025 . S
O465 Sc464 2.025 1_455 S
C466 O472 1.268 . S
C466 O482 1.268 . S
C467 O473 1.268 . S
C467 O481 1.268 . S
C468 O474 1.268 1_455 S
C468 O483 1.268 . S
C469 O475 1.268 . S
C469 O479 1.268 . S
C470 O476 1.268 . S
C470 O478 1.268 . S
C471 O477 1.268 . S
C471 O480 1.268 . S
O472 Sc462 2.105 1_656 S
O472 C466 1.268 . S
O473 Sc463 2.105 . S
O473 C467 1.268 . S
O474 Sc464 2.105 . S
O474 C468 1.268 1_655 S
O475 Sc462 2.105 . S
O475 C469 1.268 . S
O476 Sc464 2.105 1_554 S
O476 C470 1.268 . S
O477 Sc463 2.105 . S
O477 C471 1.268 . S
O478 Sc462 2.105 1_655 S
O478 C470 1.268 . S
O479 Sc463 2.105 1_554 S
O479 C469 1.268 . S
O480 Sc464 2.105 1_455 S
O480 C471 1.268 . S
O481 Sc462 2.105 1_556 S
O481 C467 1.268 . S
O482 Sc464 2.105 . S
O482 C466 1.268 . S
O483 Sc463 2.105 . S
O483 C468 1.268 . S
Sc484 O487 2.025 . S
Sc484 O494 2.105 . S
Sc484 O497 2.105 . S
Sc484 O500 2.105 . S
Sc484 O503 2.105 . S
Sc485 O487 2.025 . S
Sc485 O495 2.105 . S
Sc485 O499 2.105 . S
Sc485 O501 2.105 . S
Sc485 O505 2.105 . S
Sc486 O487 2.025 . S
Sc486 O496 2.105 . S
Sc486 O498 2.105 . S
Sc486 O502 2.105 . S
Sc486 O504 2.105 . S
O487 Sc484 2.025 . S
O487 Sc485 2.025 . S
O487 Sc486 2.025 . S
C488 O494 1.268 . S
C488 O504 1.268 . S
C489 O495 1.268 . S
C489 O503 1.268 . S
C490 O496 1.268 . S
C490 O505 1.268 . S
C491 O497 1.268 . S
C491 O501 1.268 . S
C492 O498 1.268 . S
C492 O500 1.268 . S
C493 O499 1.268 . S
C493 O502 1.268 . S
O494 Sc484 2.105 . S
O494 C488 1.268 . S
O495 Sc485 2.105 . S
O495 C489 1.268 . S
O496 Sc486 2.105 . S
O496 C490 1.268 . S
O497 Sc484 2.105 . S
O497 C491 1.268 . S
O498 Sc486 2.105 . S
O498 C492 1.268 . S
O499 Sc485 2.105 . S
O499 C493 1.268 . S
O500 Sc484 2.105 . S
O500 C492 1.268 . S
O501 Sc485 2.105 . S
O501 C491 1.268 . S
O502 Sc486 2.105 . S
O502 C493 1.268 . S
O503 Sc484 2.105 . S
O503 C489 1.268 . S
O504 Sc486 2.105 . S
O504 C488 1.268 . S
O505 Sc485 2.105 . S
O505 C490 1.268 . S
Sc506 O509 2.025 . S
Sc506 O516 2.105 . S
Sc506 O519 2.105 . S
Sc506 O522 2.105 . S
Sc506 O525 2.105 . S
Sc507 O509 2.025 . S
Sc507 O517 2.105 . S
Sc507 O521 2.105 . S
Sc507 O523 2.105 . S
Sc507 O527 2.105 . S
Sc508 O509 2.025 . S
Sc508 O518 2.105 . S
Sc508 O520 2.105 . S
Sc508 O524 2.105 . S
Sc508 O526 2.105 . S
O509 Sc506 2.025 . S
O509 Sc507 2.025 . S
O509 Sc508 2.025 . S
C510 O516 1.268 . S
C510 O526 1.268 . S
C511 O517 1.268 . S
C511 O525 1.268 . S
C512 O518 1.268 . S
C512 O527 1.268 . S
C513 O519 1.268 . S
C513 O523 1.268 . S
C514 O520 1.268 . S
C514 O522 1.268 . S
C515 O521 1.268 . S
C515 O524 1.268 . S
O516 Sc506 2.105 . S
O516 C510 1.268 . S
O517 Sc507 2.105 . S
O517 C511 1.268 . S
O518 Sc508 2.105 . S
O518 C512 1.268 . S
O519 Sc506 2.105 . S
O519 C513 1.268 . S
O520 Sc508 2.105 . S
O520 C514 1.268 . S
O521 Sc507 2.105 . S
O521 C515 1.268 . S
O522 Sc506 2.105 . S
O522 C514 1.268 . S
O523 Sc507 2.105 . S
O523 C513 1.268 . S
O524 Sc508 2.105 . S
O524 C515 1.268 . S
O525 Sc506 2.105 . S
O525 C511 1.268 . S
O526 Sc508 2.105 . S
O526 C510 1.268 . S
O527 Sc507 2.105 . S
O527 C512 1.268 . S
Sc528 O531 2.025 . S
Sc528 O538 2.105 . S
Sc528 O541 2.105 . S
Sc528 O544 2.105 . S
Sc528 O547 2.105 . S
Sc529 O531 2.025 . S
Sc529 O539 2.105 . S
Sc529 O543 2.105 . S
Sc529 O545 2.105 . S
Sc529 O549 2.105 . S
Sc530 O531 2.025 . S
Sc530 O540 2.105 . S
Sc530 O542 2.105 . S
Sc530 O546 2.105 . S
Sc530 O548 2.105 . S
O531 Sc528 2.025 . S
O531 Sc529 2.025 . S
O531 Sc530 2.025 . S
C532 O538 1.268 . S
C532 O548 1.268 . S
C533 O539 1.268 . S
C533 O547 1.268 . S
C534 O540 1.268 . S
C534 O549 1.268 . S
C535 O541 1.268 . S
C535 O545 1.268 . S
C536 O542 1.268 . S
C536 O544 1.268 . S
C537 O543 1.268 . S
C537 O546 1.268 . S
O538 Sc528 2.105 . S
O538 C532 1.268 . S
O539 Sc529 2.105 . S
O539 C533 1.268 . S
O540 Sc530 2.105 . S
O540 C534 1.268 . S
O541 Sc528 2.105 . S
O541 C535 1.268 . S
O542 Sc530 2.105 . S
O542 C536 1.268 . S
O543 Sc529 2.105 . S
O543 C537 1.268 . S
O544 Sc528 2.105 . S
O544 C536 1.268 . S
O545 Sc529 2.105 . S
O545 C535 1.268 . S
O546 Sc530 2.105 . S
O546 C537 1.268 . S
O547 Sc528 2.105 . S
O547 C533 1.268 . S
O548 Sc530 2.105 . S
O548 C532 1.268 . S
O549 Sc529 2.105 . S
O549 C534 1.268 . S
Sc550 O553 2.025 . S
Sc550 O560 2.105 . S
Sc550 O563 2.105 . S
Sc550 O566 2.105 1_556 S
Sc550 O569 2.105 . S
Sc551 O553 2.025 . S
Sc551 O561 2.105 . S
Sc551 O565 2.105 1_556 S
Sc551 O567 2.105 . S
Sc551 O571 2.105 . S
Sc552 O553 2.025 1_554 S
Sc552 O562 2.105 1_554 S
Sc552 O564 2.105 . S
Sc552 O568 2.105 . S
Sc552 O570 2.105 1_554 S
O553 Sc550 2.025 . S
O553 Sc551 2.025 . S
O553 Sc552 2.025 1_556 S
C554 O560 1.268 . S
C554 O570 1.268 . S
C555 O561 1.268 . S
C555 O569 1.268 . S
C556 O562 1.268 . S
C556 O571 1.268 . S
C557 O563 1.268 . S
C557 O567 1.268 . S
C558 O564 1.268 . S
C558 O566 1.268 . S
C559 O565 1.268 . S
C559 O568 1.268 . S
O560 Sc550 2.105 . S
O560 C554 1.268 . S
O561 Sc551 2.105 . S
O561 C555 1.268 . S
O562 Sc552 2.105 1_556 S
O562 C556 1.268 . S
O563 Sc550 2.105 . S
O563 C557 1.268 . S
O564 Sc552 2.105 . S
O564 C558 1.268 . S
O565 Sc551 2.105 1_554 S
O565 C559 1.268 . S
O566 Sc550 2.105 1_554 S
O566 C558 1.268 . S
O567 Sc551 2.105 . S
O567 C557 1.268 . S
O568 Sc552 2.105 . S
O568 C559 1.268 . S
O569 Sc550 2.105 . S
O569 C555 1.268 . S
O570 Sc552 2.105 1_556 S
O570 C554 1.268 . S
O571 Sc551 2.105 . S
O571 C556 1.268 . S
Sc572 O575 2.025 . S
Sc572 O582 2.105 . S
Sc572 O585 2.105 . S
Sc572 O588 2.105 . S
Sc572 O591 2.105 . S
Sc573 O575 2.025 . S
Sc573 O583 2.105 . S
Sc573 O587 2.105 . S
Sc573 O589 2.105 . S
Sc573 O593 2.105 . S
Sc574 O575 2.025 . S
Sc574 O584 2.105 . S
Sc574 O586 2.105 . S
Sc574 O590 2.105 . S
Sc574 O592 2.105 . S
O575 Sc572 2.025 . S
O575 Sc573 2.025 . S
O575 Sc574 2.025 . S
C576 O582 1.268 . S
C576 O592 1.268 . S
C577 O583 1.268 . S
C577 O591 1.268 . S
C578 O584 1.268 . S
C578 O593 1.268 . S
C579 O585 1.268 . S
C579 O589 1.268 . S
C580 O586 1.268 . S
C580 O588 1.268 . S
C581 O587 1.268 . S
C581 O590 1.268 . S
O582 Sc572 2.105 . S
O582 C576 1.268 . S
O583 Sc573 2.105 . S
O583 C577 1.268 . S
O584 Sc574 2.105 . S
O584 C578 1.268 . S
O585 Sc572 2.105 . S
O585 C579 1.268 . S
O586 Sc574 2.105 . S
O586 C580 1.268 . S
O587 Sc573 2.105 . S
O587 C581 1.268 . S
O588 Sc572 2.105 . S
O588 C580 1.268 . S
O589 Sc573 2.105 . S
O589 C579 1.268 . S
O590 Sc574 2.105 . S
O590 C581 1.268 . S
O591 Sc572 2.105 . S
O591 C577 1.268 . S
O592 Sc574 2.105 . S
O592 C576 1.268 . S
O593 Sc573 2.105 . S
O593 C578 1.268 . S
Sc594 O597 2.025 1_455 S
Sc594 O604 2.105 . S
Sc594 O607 2.105 1_455 S
Sc594 O610 2.105 . S
Sc594 O613 2.105 . S
Sc595 O597 2.025 . S
Sc595 O605 2.105 . S
Sc595 O609 2.105 . S
Sc595 O611 2.105 . S
Sc595 O615 2.105 . S
Sc596 O597 2.025 . S
Sc596 O606 2.105 . S
Sc596 O608 2.105 1_655 S
Sc596 O612 2.105 . S
Sc596 O614 2.105 1_655 S
O597 Sc594 2.025 1_655 S
O597 Sc595 2.025 . S
O597 Sc596 2.025 . S
C598 O604 1.268 . S
C598 O614 1.268 . S
C599 O605 1.268 . S
C599 O613 1.268 1_655 S
C600 O606 1.268 . S
C600 O615 1.268 . S
C601 O607 1.268 . S
C601 O611 1.268 . S
C602 O608 1.268 . S
C602 O610 1.268 . S
C603 O609 1.268 . S
C603 O612 1.268 . S
O604 Sc594 2.105 . S
O604 C598 1.268 . S
O605 Sc595 2.105 . S
O605 C599 1.268 . S
O606 Sc596 2.105 . S
O606 C600 1.268 . S
O607 Sc594 2.105 1_655 S
O607 C601 1.268 . S
O608 Sc596 2.105 1_455 S
O608 C602 1.268 . S
O609 Sc595 2.105 . S
O609 C603 1.268 . S
O610 Sc594 2.105 . S
O610 C602 1.268 . S
O611 Sc595 2.105 . S
O611 C601 1.268 . S
O612 Sc596 2.105 . S
O612 C603 1.268 . S
O613 Sc594 2.105 . S
O613 C599 1.268 1_455 S
O614 Sc596 2.105 1_455 S
O614 C598 1.268 . S
O615 Sc595 2.105 . S
O615 C600 1.268 . S
Sc616 O619 2.025 . S
Sc616 O626 2.105 . S
Sc616 O629 2.105 . S
Sc616 O632 2.105 . S
Sc616 O635 2.105 . S
Sc617 O619 2.025 . S
Sc617 O627 2.105 . S
Sc617 O631 2.105 . S
Sc617 O633 2.105 . S
Sc617 O637 2.105 . S
Sc618 O619 2.025 . S
Sc618 O628 2.105 . S
Sc618 O630 2.105 . S
Sc618 O634 2.105 . S
Sc618 O636 2.105 . S
O619 Sc616 2.025 . S
O619 Sc617 2.025 . S
O619 Sc618 2.025 . S
C620 O626 1.268 . S
C620 O636 1.268 . S
C621 O627 1.268 . S
C621 O635 1.268 . S
C622 O628 1.268 . S
C622 O637 1.268 . S
C623 O629 1.268 . S
C623 O633 1.268 . S
C624 O630 1.268 . S
C624 O632 1.268 . S
C625 O631 1.268 . S
C625 O634 1.268 . S
O626 Sc616 2.105 . S
O626 C620 1.268 . S
O627 Sc617 2.105 . S
O627 C621 1.268 . S
O628 Sc618 2.105 . S
O628 C622 1.268 . S
O629 Sc616 2.105 . S
O629 C623 1.268 . S
O630 Sc618 2.105 . S
O630 C624 1.268 . S
O631 Sc617 2.105 . S
O631 C625 1.268 . S
O632 Sc616 2.105 . S
O632 C624 1.268 . S
O633 Sc617 2.105 . S
O633 C623 1.268 . S
O634 Sc618 2.105 . S
O634 C625 1.268 . S
O635 Sc616 2.105 . S
O635 C621 1.268 . S
O636 Sc618 2.105 . S
O636 C620 1.268 . S
O637 Sc617 2.105 . S
O637 C622 1.268 . S
Sc638 O641 2.025 1_556 S
Sc638 O648 2.105 1_655 S
Sc638 O651 2.105 1_556 S
Sc638 O654 2.105 1_656 S
Sc638 O657 2.105 . S
Sc639 O641 2.025 . S
Sc639 O649 2.105 1_554 S
Sc639 O653 2.105 . S
Sc639 O655 2.105 . S
Sc639 O659 2.105 . S
Sc640 O641 2.025 1_455 S
Sc640 O650 2.105 1_455 S
Sc640 O652 2.105 . S
Sc640 O656 2.105 . S
Sc640 O658 2.105 1_554 S
O641 Sc638 2.025 1_554 S
O641 Sc639 2.025 . S
O641 Sc640 2.025 1_655 S
C642 O648 1.268 . S
C642 O658 1.268 . S
C643 O649 1.268 . S
C643 O657 1.268 . S
C644 O650 1.268 . S
C644 O659 1.268 . S
C645 O651 1.268 . S
C645 O655 1.268 . S
C646 O652 1.268 . S
C646 O654 1.268 . S
C647 O653 1.268 . S
C647 O656 1.268 1_655 S
O648 Sc638 2.105 1_455 S
O648 C642 1.268 . S
O649 Sc639 2.105 1_556 S
O649 C643 1.268 . S
O650 Sc640 2.105 1_655 S
O650 C644 1.268 . S
O651 Sc638 2.105 1_554 S
O651 C645 1.268 . S
O652 Sc640 2.105 . S
O652 C646 1.268 . S
O653 Sc639 2.105 . S
O653 C647 1.268 . S
O654 Sc638 2.105 1_454 S
O654 C646 1.268 . S
O655 Sc639 2.105 . S
O655 C645 1.268 . S
O656 Sc640 2.105 . S
O656 C647 1.268 1_455 S
O657 Sc638 2.105 . S
O657 C643 1.268 . S
O658 Sc640 2.105 1_556 S
O658 C642 1.268 . S
O659 Sc639 2.105 . S
O659 C644 1.268 . S
Sc660 O663 2.025 . S
Sc660 O670 2.105 . S
Sc660 O673 2.105 . S
Sc660 O676 2.105 . S
Sc660 O679 2.105 . S
Sc661 O663 2.025 . S
Sc661 O671 2.105 . S
Sc661 O675 2.105 . S
Sc661 O677 2.105 . S
Sc661 O681 2.105 . S
Sc662 O663 2.025 . S
Sc662 O672 2.105 . S
Sc662 O674 2.105 . S
Sc662 O678 2.105 . S
Sc662 O680 2.105 . S
O663 Sc660 2.025 . S
O663 Sc661 2.025 . S
O663 Sc662 2.025 . S
C664 O670 1.268 . S
C664 O680 1.268 . S
C665 O671 1.268 . S
C665 O679 1.268 . S
C666 O672 1.268 . S
C666 O681 1.268 . S
C667 O673 1.268 . S
C667 O677 1.268 . S
C668 O674 1.268 . S
C668 O676 1.268 . S
C669 O675 1.268 . S
C669 O678 1.268 . S
O670 Sc660 2.105 . S
O670 C664 1.268 . S
O671 Sc661 2.105 . S
O671 C665 1.268 . S
O672 Sc662 2.105 . S
O672 C666 1.268 . S
O673 Sc660 2.105 . S
O673 C667 1.268 . S
O674 Sc662 2.105 . S
O674 C668 1.268 . S
O675 Sc661 2.105 . S
O675 C669 1.268 . S
O676 Sc660 2.105 . S
O676 C668 1.268 . S
O677 Sc661 2.105 . S
O677 C667 1.268 . S
O678 Sc662 2.105 . S
O678 C669 1.268 . S
O679 Sc660 2.105 . S
O679 C665 1.268 . S
O680 Sc662 2.105 . S
O680 C664 1.268 . S
O681 Sc661 2.105 . S
O681 C666 1.268 . S
Sc682 O685 2.025 . S
Sc682 O692 2.105 . S
Sc682 O695 2.105 . S
Sc682 O698 2.105 . S
Sc682 O701 2.105 . S
Sc683 O685 2.025 . S
Sc683 O693 2.105 . S
Sc683 O697 2.105 . S
Sc683 O699 2.105 . S
Sc683 O703 2.105 . S
Sc684 O685 2.025 . S
Sc684 O694 2.105 . S
Sc684 O696 2.105 . S
Sc684 O700 2.105 . S
Sc684 O702 2.105 . S
O685 Sc682 2.025 . S
O685 Sc683 2.025 . S
O685 Sc684 2.025 . S
C686 O692 1.268 . S
C686 O702 1.268 . S
C687 O693 1.268 . S
C687 O701 1.268 . S
C688 O694 1.268 . S
C688 O703 1.268 . S
C689 O695 1.268 . S
C689 O699 1.268 . S
C690 O696 1.268 . S
C690 O698 1.268 . S
C691 O697 1.268 . S
C691 O700 1.268 . S
O692 Sc682 2.105 . S
O692 C686 1.268 . S
O693 Sc683 2.105 . S
O693 C687 1.268 . S
O694 Sc684 2.105 . S
O694 C688 1.268 . S
O695 Sc682 2.105 . S
O695 C689 1.268 . S
O696 Sc684 2.105 . S
O696 C690 1.268 . S
O697 Sc683 2.105 . S
O697 C691 1.268 . S
O698 Sc682 2.105 . S
O698 C690 1.268 . S
O699 Sc683 2.105 . S
O699 C689 1.268 . S
O700 Sc684 2.105 . S
O700 C691 1.268 . S
O701 Sc682 2.105 . S
O701 C687 1.268 . S
O702 Sc684 2.105 . S
O702 C686 1.268 . S
O703 Sc683 2.105 . S
O703 C688 1.268 . S
C669 C4 2.125 1_556 S
C339 C26 2.125 . S
C625 C48 2.125 . S
C295 C70 2.125 . S
C577 C96 2.125 . S
C247 C118 2.125 . S
C533 C140 2.125 1_554 S
C203 C162 2.125 . S
C184 C490 2.125 1_556 S
C160 C206 2.125 . S
C446 C228 2.125 . S
C250 C116 2.125 . S
C268 C403 2.125 . S
C290 C73 2.125 . S
C359 C312 2.125 1_556 S
C334 C29 2.125 . S
C356 C317 2.125 . S
C691 C378 2.125 . S
C273 C400 2.125 1_556 S
C647 C422 2.125 . S
C448 C225 2.125 1_556 S
C470 C599 2.125 . S
C492 C181 2.125 . S
C514 C555 2.125 . S
C536 C138 2.125 . S
C512 C558 2.125 . S
C580 C94 2.125 1_556 S
C468 C602 2.125 . S
C620 C51 2.125 1_554 S
C642 C425 2.125 . S
C664 C7 2.125 . S
C686 C381 2.125 . S
C469 C6 1.627 . S
C491 C28 1.627 . S
C50 C513 1.627 . S
C447 C72 1.627 . S
C95 C424 1.627 . S
C117 C358 1.627 . S
C139 C380 1.627 . S
C161 C402 1.627 . S
C643 C185 1.627 . S
C207 C665 1.627 . S
C687 C229 1.627 . S
C621 C251 1.627 . S
C603 C269 1.627 . S
C537 C291 1.627 . S
C559 C313 1.627 . S
C581 C335 1.627 . S
C535 C5 3.058 . S
C205 C27 3.058 1_445 S
C579 C49 3.058 . S
C249 C71 3.058 1_566 S
C622 C97 3.058 . S
C119 C292 3.058 1_565 S
C666 C141 3.058 . S
C336 C163 3.058 1_464 S
C183 C357 3.058 . S
C227 C401 3.058 . S
C449 C270 3.058 . S
C314 C493 3.058 . S
C557 C379 3.058 1_556 S
C423 C601 3.058 1_455 S
C471 C644 3.058 1_456 S
C515 C688 3.058 . S
C204 C8 0.996 . S
C578 C30 0.996 . S
C52 C248 0.996 . S
C534 C74 0.996 . S
C337 C92 0.996 . S
C114 C623 0.996 . S
C293 C136 0.996 . S
C158 C667 0.996 . S
C31 C180 0.996 . S
C405 C202 0.996 . S
C224 C75 0.996 . S
C246 C361 0.996 . S
C272 C159 0.996 . S
C294 C445 0.996 . S
C316 C115 0.996 . S
C489 C338 0.996 . S
C556 C360 0.996 . S
C382 C226 0.996 . S
C404 C600 0.996 . S
C182 C426 0.996 . S
C689 C444 0.996 . S
C271 C466 0.996 . S
C645 C488 0.996 . S
C510 C315 0.996 . S
C383 C532 0.996 . S
C554 C53 0.996 . S
C427 C576 0.996 . S
C598 C9 0.996 . S
C511 C624 0.996 . S
C93 C646 0.996 . S
C467 C668 0.996 . S
C690 C137 0.996 . S
