# Generated by pormake.
# Topology ukg, (4)-cn, num edge types: 1
# Building blocks:
#     Node 0, Type 0, BuildingBlock: QUQFOY_clean_sbu_3, # of connection points: 4
#     Node 1, Type 0, BuildingBlock: QUQFOY_clean_sbu_3, # of connection points: 4
#     Node 2, Type 0, BuildingBlock: QUQFOY_clean_sbu_3, # of connection points: 4
#     Node 3, Type 0, BuildingBlock: QUQFOY_clean_sbu_3, # of connection points: 4
#     Node 4, Type 0, BuildingBlock: QUQFOY_clean_sbu_3, # of connection points: 4
#     Node 5, Type 0, BuildingBlock: QUQFOY_clean_sbu_3, # of connection points: 4
#     Node 6, Type 0, BuildingBlock: QUQFOY_clean_sbu_3, # of connection points: 4
#     Node 7, Type 0, BuildingBlock: QUQFOY_clean_sbu_3, # of connection points: 4
#     Edge 8, Type (0, 0), BuildingBlock: FUNLAD_clean_linker_1, # of connection points: 2
#     Edge 9, Type (0, 0), BuildingBlock: FUNLAD_clean_linker_1, # of connection points: 2
#     Edge 10, Type (0, 0), BuildingBlock: FUNLAD_clean_linker_1, # of connection points: 2
#     Edge 11, Type (0, 0), BuildingBlock: FUNLAD_clean_linker_1, # of connection points: 2
#     Edge 12, Type (0, 0), BuildingBlock: FUNLAD_clean_linker_1, # of connection points: 2
#     Edge 13, Type (0, 0), BuildingBlock: FUNLAD_clean_linker_1, # of connection points: 2
#     Edge 14, Type (0, 0), BuildingBlock: FUNLAD_clean_linker_1, # of connection points: 2
#     Edge 15, Type (0, 0), BuildingBlock: FUNLAD_clean_linker_1, # of connection points: 2
#     Edge 16, Type (0, 0), BuildingBlock: FUNLAD_clean_linker_1, # of connection points: 2
#     Edge 17, Type (0, 0), BuildingBlock: FUNLAD_clean_linker_1, # of connection points: 2
#     Edge 18, Type (0, 0), BuildingBlock: FUNLAD_clean_linker_1, # of connection points: 2
#     Edge 19, Type (0, 0), BuildingBlock: FUNLAD_clean_linker_1, # of connection points: 2
#     Edge 20, Type (0, 0), BuildingBlock: FUNLAD_clean_linker_1, # of connection points: 2
#     Edge 21, Type (0, 0), BuildingBlock: FUNLAD_clean_linker_1, # of connection points: 2
#     Edge 22, Type (0, 0), BuildingBlock: FUNLAD_clean_linker_1, # of connection points: 2
#     Edge 23, Type (0, 0), BuildingBlock: FUNLAD_clean_linker_1, # of connection points: 2
# Relax obj value: 0.115
# Max RMSD: 0.203
# Mean RMSD: 0.200
data_MOF--net-ukg--node1-QUQFOY_clean_sbu_3--edge1-FUNLAD_clean_linker_1
_symmetry_space_group_name_H-M    P1
_symmetry_Int_Tables_number       1
_symmetry_cell_setting            triclinic
loop_
_symmetry_equiv_pos_as_xyz
'x, y, z'
_cell_length_a     32.348113
_cell_length_b     32.098704
_cell_length_c     41.456917
_cell_angle_alpha  89.82458
_cell_angle_beta   90.093245
_cell_angle_gamma 90.079355
loop_
_atom_site_label
_atom_site_type_symbol
_atom_site_fract_x
_atom_site_fract_y
_atom_site_fract_z
_atom_type_partial_charge
C0 C 0.10658 0.63201 0.18292 0.0
O1 O 0.09849 0.61344 0.2092 0.0
Cd2 Cd 0.02815 0.60956 0.22718 0.0
O3 O 0.07814 0.63997 0.16255 0.0
Cd4 Cd 0.00407 0.62372 0.15311 0.0
C5 C -0.00441 0.70734 0.20024 0.0
O6 O -0.01208 0.56799 0.1919 0.0
O7 O 0.93704 0.60595 0.17496 0.0
O8 O 0.02534 0.58328 0.10625 0.0
C9 C 0.94935 0.57541 0.19188 0.0
O10 O 0.00535 0.68204 0.22273 0.0
C11 C -0.00151 0.59845 0.08718 0.0
O12 O -0.00636 0.69564 0.17087 0.0
O13 O 0.97475 0.62641 0.09838 0.0
C14 C 0.30095 0.59858 0.68077 0.0
O15 O 0.3041 0.58176 0.70845 0.0
Cd16 Cd 0.31624 0.50857 0.71713 0.0
O17 O 0.30709 0.57761 0.65525 0.0
Cd18 Cd 0.32604 0.50641 0.6385 0.0
C19 C 0.23432 0.4759 0.66995 0.0
O20 O 0.36995 0.48423 0.68349 0.0
O21 O 0.34848 0.43614 0.651 0.0
O22 O 0.37764 0.5398 0.60454 0.0
C23 C 0.36927 0.44598 0.67574 0.0
O24 O 0.25274 0.47846 0.69701 0.0
C25 C 0.3695 0.51911 0.5793 0.0
O26 O 0.25189 0.48696 0.64366 0.0
O27 O 0.33945 0.49351 0.58079 0.0
C28 C 0.35903 0.82577 0.1888 0.0
O29 O 0.36806 0.83852 0.21683 0.0
Cd30 Cd 0.43927 0.83444 0.23166 0.0
O31 O 0.38668 0.82298 0.16706 0.0
Cd32 Cd 0.45965 0.84548 0.15807 0.0
C33 C 0.47081 0.7491 0.1856 0.0
O34 O 0.47791 0.88754 0.20538 0.0
O35 O 0.52829 0.85819 0.17973 0.0
O36 O 0.43594 0.9021 0.12374 0.0
C37 C 0.51656 0.8819 0.20237 0.0
O38 O 0.45913 0.76529 0.21211 0.0
C39 C 0.45714 0.89206 0.09926 0.0
O40 O 0.47533 0.77109 0.16022 0.0
O41 O 0.47942 0.85952 0.10162 0.0
C42 C 0.15732 0.88402 0.70733 0.0
O43 O 0.15023 0.90191 0.734 0.0
Cd44 Cd 0.14413 0.97587 0.74046 0.0
O45 O 0.15783 0.90457 0.68095 0.0
Cd46 Cd 0.1461 0.97685 0.66142 0.0
C47 C 0.23438 0.0029 0.70053 0.0
O48 O 0.09725 0.00186 0.70161 0.0
O49 O 0.12715 0.04904 0.67261 0.0
O50 O 0.09607 0.95321 0.62116 0.0
C51 C 0.10133 0.04008 0.69455 0.0
O52 O 0.21257 0.00118 0.72604 0.0
C53 C 0.11409 0.96991 0.59718 0.0
O54 O 0.21946 -0.00683 0.67301 0.0
O55 O 0.14816 0.98839 0.60269 0.0
C56 C 0.94527 0.4313 0.74042 0.0
O57 O 0.90893 0.4206 0.73235 0.0
Cd58 Cd 0.87258 0.36917 0.76429 0.0
O59 O 0.95954 0.42182 0.76814 0.0
Cd60 Cd 0.94123 0.38989 0.82043 0.0
C61 C 0.95869 0.30518 0.77544 0.0
O62 O 0.86558 0.38591 0.81996 0.0
O63 O 0.89917 0.34263 0.85052 0.0
O64 O 0.95614 0.4568 0.84583 0.0
C65 C 0.86479 0.35554 0.83986 0.0
O66 O 0.92382 0.31369 0.76271 0.0
C67 C 0.97684 0.44154 0.86906 0.0
O68 O 0.97491 0.32846 0.79701 0.0
O69 O 0.98232 0.40231 0.86933 0.0
C70 C 0.55007 0.45038 0.25355 0.0
O71 O 0.55426 0.41445 0.24139 0.0
Cd72 Cd 0.60895 0.37237 0.26463 0.0
O73 O 0.56593 0.45884 0.28084 0.0
Cd74 Cd 0.60084 0.42819 0.32774 0.0
C75 C 0.68156 0.45034 0.28088 0.0
O76 O 0.5988 0.35265 0.31982 0.0
O77 O 0.64705 0.37801 0.35058 0.0
O78 O 0.5351 0.43235 0.35462 0.0
C79 C 0.63021 0.34637 0.33776 0.0
O80 O 0.6677 0.42017 0.26413 0.0
C81 C 0.54712 0.45434 0.37819 0.0
O82 O 0.66309 0.46258 0.30636 0.0
O83 O 0.58511 0.46505 0.37878 0.0
C84 C 0.52282 0.08773 0.7613 0.0
O85 O 0.55407 0.10713 0.75046 0.0
Cd86 Cd 0.58711 0.16113 0.78169 0.0
O87 O 0.51217 0.09143 0.79073 0.0
Cd88 Cd 0.53387 0.12347 0.84226 0.0
C89 C 0.49637 0.20975 0.80724 0.0
O90 O 0.6067 0.14044 0.83453 0.0
O91 O 0.57353 0.1756 0.87064 0.0
O92 O 0.54276 0.05593 0.86779 0.0
C93 C 0.60696 0.16924 0.85557 0.0
O94 O 0.52937 0.20814 0.79048 0.0
C95 C 0.51732 0.06211 0.89054 0.0
O96 O 0.48763 0.18145 0.82785 0.0
O97 O 0.49848 0.09692 0.8908 0.0
C98 C 0.91701 0.00027 0.27285 0.0
O99 O 0.90961 0.03612 0.26128 0.0
Cd100 Cd 0.85724 0.07918 0.28539 0.0
O101 O 0.90286 -0.01039 0.30033 0.0
Cd102 Cd 0.86485 0.01659 0.34748 0.0
C103 C 0.78393 0.00084 0.298 0.0
O104 O 0.86847 0.09197 0.34119 0.0
O105 O 0.8182 0.06742 0.36994 0.0
O106 O 0.92551 0.0089 0.38163 0.0
C107 C 0.83624 0.09889 0.35782 0.0
O108 O 0.79772 0.03269 0.28308 0.0
C109 C 0.90875 0.98511 0.40237 0.0
O110 O 0.80261 0.98572 0.32259 0.0
O111 O 0.87124 0.97484 0.39744 0.0
H112 H 0.00736 0.49731 0.88918 0.0
C113 C -0.00817 0.46834 0.89535 0.0
H114 H 0.96581 0.43099 0.9317 0.0
H115 H 0.05191 0.49056 0.05673 0.0
H116 H 0.07218 0.41831 0.05393 0.0
H117 H 0.05895 0.37692 0.00499 0.0
H118 H 0.02449 0.40744 0.95882 0.0
C119 C 0.98226 0.45971 0.9262 0.0
C120 C -0.00558 0.48704 0.95385 0.0
C121 C 0.01643 0.46935 0.98018 0.0
C122 C 0.02566 0.49379 0.0079 0.0
C123 C 0.0453 0.47424 0.03456 0.0
C124 C 0.057 0.43255 0.03339 0.0
C125 C 0.04945 0.40922 0.00589 0.0
C126 C 0.02942 0.42718 0.97957 0.0
H127 H 0.96185 0.58398 0.04379 0.0
C128 C -0.00754 0.58155 0.05445 0.0
H129 H 0.0532 0.55939 0.04974 0.0
H130 H 0.94462 0.52995 0.91119 0.0
H131 H 0.93138 0.60408 0.91111 0.0
H132 H 0.95967 0.64909 0.95396 0.0
H133 H -0.0004 0.61962 -0.00202 0.0
C134 C 0.02274 0.56125 0.03876 0.0
C135 C 0.01477 0.53667 0.00871 0.0
C136 C -0.00468 0.55505 0.98142 0.0
C137 C 0.98282 0.52976 0.95493 0.0
C138 C 0.95817 0.54805 0.93042 0.0
C139 C 0.9498 0.5906 0.9303 0.0
C140 C 0.96545 0.61588 0.95453 0.0
C141 C -0.01206 0.59848 0.97986 0.0
H142 H 0.41903 0.54799 0.55037 0.0
C143 C 0.39643 0.52289 0.55073 0.0
H144 H 0.37716 0.46688 0.52882 0.0
H145 H 0.4867 0.54714 0.40882 0.0
H146 H 0.42926 0.59503 0.40209 0.0
H147 H 0.37224 0.59658 0.44155 0.0
H148 H 0.37238 0.55037 0.48806 0.0
C149 C 0.39764 0.4937 0.52763 0.0
C150 C 0.43178 0.49316 0.50355 0.0
C151 C 0.43104 0.52011 0.47641 0.0
C152 C 0.46352 0.51861 0.45329 0.0
C153 C 0.46235 0.54633 0.42668 0.0
C154 C 0.42968 0.57411 0.42263 0.0
C155 C 0.39762 0.57504 0.44488 0.0
C156 C 0.39811 0.54843 0.4715 0.0
H157 H 0.48534 0.45615 0.39997 0.0
C158 C 0.51733 0.46553 0.4036 0.0
H159 H 0.5599 0.49239 0.43619 0.0
H160 H 0.44364 0.43857 0.55358 0.0
H161 H 0.50111 0.39086 0.5603 0.0
H162 H 0.55705 0.38785 0.52 0.0
H163 H 0.55592 0.43262 0.47277 0.0
C164 C 0.52786 0.48444 0.43124 0.0
C165 C 0.49638 0.48976 0.45714 0.0
C166 C 0.49771 0.46369 0.48478 0.0
C167 C 0.4653 0.46525 0.50791 0.0
C168 C 0.46729 0.43855 0.53515 0.0
C169 C 0.50013 0.41102 0.53933 0.0
C170 C 0.53163 0.40934 0.51665 0.0
C171 C 0.53058 0.43523 0.48964 0.0
H172 H 0.43658 0.94584 0.07034 0.0
C173 C 0.45645 0.91854 0.07011 0.0
H174 H 0.50195 0.88547 0.0443 0.0
H175 H 0.41447 0.00864 0.93297 0.0
H176 H 0.35345 0.96541 0.93972 0.0
H177 H 0.35119 0.91059 0.98153 0.0
H178 H 0.40982 0.89877 0.01693 0.0
C179 C 0.4806 0.91158 0.04438 0.0
C180 C 0.48264 0.94238 0.01741 0.0
C181 C 0.44824 0.94856 -0.00335 0.0
C182 C 0.44977 0.97976 0.97219 0.0
C183 C 0.41496 0.98536 0.9519 0.0
C184 C 0.37977 0.96072 0.95548 0.0
C185 C 0.37848 0.92989 0.97905 0.0
C186 C 0.41226 0.92363 -0.00063 0.0
H187 H 0.52987 0.00185 0.91408 0.0
C188 C 0.51191 0.03035 0.91599 0.0
H189 H 0.46888 0.06388 0.94408 0.0
H190 H 0.55429 0.93803 0.05255 0.0
H191 H 0.61519 0.98123 0.04578 0.0
H192 H 0.6174 0.03606 0.004 0.0
H193 H 0.55884 0.04787 0.96866 0.0
C194 C 0.48778 0.03607 0.94191 0.0
C195 C 0.48592 0.00419 0.96811 0.0
C196 C 0.52038 -0.00206 0.98881 0.0
C197 C 0.51887 0.96672 0.01324 0.0
C198 C 0.55371 0.96122 0.03357 0.0
C199 C 0.58888 0.98588 0.03 0.0
C200 C 0.59014 0.0167 0.00646 0.0
C201 C 0.55636 0.02294 0.98615 0.0
H202 H 0.91479 0.95322 0.44963 0.0
C203 C 0.93121 0.97166 0.43172 0.0
H204 H -0.01357 0.00339 0.42011 0.0
H205 H 0.04164 0.03512 0.56346 0.0
H206 H 0.01849 0.10389 0.54767 0.0
H207 H 0.98287 0.11517 0.49574 0.0
H208 H 0.96989 0.05761 0.45943 0.0
C209 C 0.97043 0.9837 0.43745 0.0
C210 C -0.00857 0.976 0.46897 0.0
C211 C -0.00038 0.01014 0.48969 0.0
C212 C 0.02078 0.00374 0.51942 0.0
C213 C 0.02687 0.03823 0.54018 0.0
C214 C 0.01345 0.07793 0.53152 0.0
C215 C -0.00664 0.08427 0.50231 0.0
C216 C -0.01373 0.05092 0.48162 0.0
H217 H 0.11117 0.98713 0.54555 0.0
C218 C 0.09486 0.97101 0.56481 0.0
H219 H 0.03993 0.93974 0.5783 0.0
H220 H 0.98259 0.90406 0.4343 0.0
H221 H 0.00529 0.83503 0.45032 0.0
H222 H 0.0414 0.82384 0.50208 0.0
H223 H 0.05529 0.88172 0.53809 0.0
C224 C 0.05645 0.95635 0.55942 0.0
C225 C 0.03459 0.96326 0.52813 0.0
C226 C 0.026 0.92906 0.5076 0.0
C227 C 0.00467 0.93545 0.47788 0.0
C228 C -0.00217 0.90089 0.45741 0.0
C229 C 0.01089 0.86111 0.46624 0.0
C230 C 0.03125 0.85481 0.49538 0.0
C231 C 0.03893 0.88828 0.51586 0.0
H232 H 0.17402 0.63416 0.19066 0.0
C233 C 0.14838 0.64905 0.17819 0.0
H234 H 0.12819 0.70172 0.15198 0.0
H235 H 0.30581 0.75171 0.22664 0.0
H236 H 0.27063 0.73501 0.2765 0.0
H237 H 0.19842 0.71016 0.27607 0.0
H238 H 0.162 0.69985 0.22571 0.0
C239 C 0.154 0.68626 0.1638 0.0
C240 C 0.19446 0.70854 0.16462 0.0
C241 C 0.21357 0.71847 0.19452 0.0
C242 C 0.25343 0.73715 0.19494 0.0
C243 C 0.27414 0.74119 0.22494 0.0
C244 C 0.25449 0.73118 0.2538 0.0
C245 C 0.214 0.71689 0.25355 0.0
C246 C 0.19362 0.71059 0.22436 0.0
H247 H 0.29186 0.82164 0.19699 0.0
C248 C 0.31736 0.80899 0.18309 0.0
H249 H 0.3377 0.76045 0.15282 0.0
H250 H 0.16652 0.69435 0.10321 0.0
H251 H 0.19916 0.71687 0.05352 0.0
H252 H 0.26477 0.75609 0.05451 0.0
H253 H 0.29846 0.77252 0.10518 0.0
C254 C 0.31193 0.77384 0.16601 0.0
C255 C 0.27178 0.75094 0.16566 0.0
C256 C 0.25201 0.7424 0.13584 0.0
C257 C 0.21364 0.72065 0.1353 0.0
C258 C 0.19527 0.71143 0.1051 0.0
C259 C 0.21372 0.7241 0.07636 0.0
C260 C 0.25069 0.74612 0.07692 0.0
C261 C 0.26974 0.75527 0.10621 0.0
H262 H 0.28688 0.65599 0.65359 0.0
C263 C 0.28672 0.64197 0.67751 0.0
H264 H 0.26706 0.64831 0.7258 0.0
H265 H 0.26028 0.84411 0.67255 0.0
H266 H 0.33498 0.84026 0.67042 0.0
H267 H 0.37118 0.77401 0.68105 0.0
H268 H 0.33272 0.71109 0.69354 0.0
C269 C 0.26978 0.66284 0.70218 0.0
C270 C 0.24847 0.70325 0.6967 0.0
C271 C 0.27148 0.73973 0.68957 0.0
C272 C 0.25063 0.77802 0.68385 0.0
C273 C 0.2744 0.81411 0.67699 0.0
C274 C 0.31738 0.8124 0.6758 0.0
C275 C 0.33774 0.77509 0.68172 0.0
C276 C 0.31525 0.73913 0.68867 0.0
H277 H 0.16824 0.82341 0.73088 0.0
C278 C 0.16923 0.83973 0.70787 0.0
H279 H 0.18909 0.83735 0.65941 0.0
H280 H 0.1951 0.63881 0.70925 0.0
H281 H 0.12027 0.6425 0.71079 0.0
H282 H 0.08412 0.70874 0.70011 0.0
H283 H 0.12267 0.77185 0.68814 0.0
C284 C 0.1858 0.82073 0.68214 0.0
C285 C 0.20688 0.77984 0.68578 0.0
C286 C 0.18385 0.74323 0.69248 0.0
C287 C 0.2047 0.70495 0.6982 0.0
C288 C 0.18093 0.66879 0.70481 0.0
C289 C 0.13791 0.67042 0.70566 0.0
C290 C 0.11756 0.70774 0.69971 0.0
C291 C 0.14008 0.74379 0.69308 0.0
H292 H 0.63348 0.22876 0.87117 0.0
C293 C 0.63981 0.20091 0.85716 0.0
H294 H 0.68134 0.17106 0.82579 0.0
H295 H 0.77194 0.32968 0.77282 0.0
H296 H 0.74215 0.29973 0.72459 0.0
H297 H 0.69356 0.24063 0.72801 0.0
H298 H 0.67517 0.21056 0.77964 0.0
C299 C 0.67534 0.19819 0.84067 0.0
C300 C 0.70442 0.23433 0.83901 0.0
C301 C 0.71379 0.25249 0.8086 0.0
C302 C 0.74079 0.28749 0.80669 0.0
C303 C 0.75102 0.30369 0.77587 0.0
C304 C 0.73414 0.28677 0.7479 0.0
C305 C 0.70684 0.25346 0.74982 0.0
C306 C 0.69665 0.23641 0.7797 0.0
H307 H 0.83287 0.30067 0.85862 0.0
C308 C 0.82804 0.3295 0.84528 0.0
H309 H 0.78546 0.36545 0.81865 0.0
H310 H 0.69897 0.20384 0.90093 0.0
H311 H 0.72311 0.23796 0.94951 0.0
H312 H 0.7601 0.30515 0.94656 0.0
H313 H 0.77466 0.33756 0.8948 0.0
C314 C 0.79052 0.3375 0.83294 0.0
C315 C 0.75733 0.30518 0.83526 0.0
C316 C 0.74569 0.28871 0.86575 0.0
C317 C 0.72121 0.25196 0.86757 0.0
C318 C 0.7147 0.23337 0.8982 0.0
C319 C 0.72881 0.25239 0.9263 0.0
C320 C 0.74985 0.29007 0.92464 0.0
C321 C 0.75831 0.30813 0.89478 0.0
H322 H 0.63353 0.27808 0.33049 0.0
C323 C 0.64932 0.30485 0.34075 0.0
H324 H 0.70247 0.32701 0.36498 0.0
H325 H 0.76551 0.1609 0.42585 0.0
H326 H 0.74075 0.19715 0.47327 0.0
H327 H 0.70033 0.26194 0.46804 0.0
H328 H 0.68461 0.29099 0.41538 0.0
C329 C 0.68688 0.30035 0.35434 0.0
C330 C 0.70817 0.25946 0.35689 0.0
C331 C 0.71659 0.24258 0.38786 0.0
C332 C 0.73928 0.20489 0.39086 0.0
C333 C 0.7479 0.18915 0.42213 0.0
C334 C 0.73395 0.20969 0.44958 0.0
C335 C 0.71125 0.24619 0.44663 0.0
C336 C 0.70256 0.26259 0.41623 0.0
H337 H 0.83198 0.16613 0.34643 0.0
C338 C 0.81568 0.13982 0.35702 0.0
H339 H 0.75967 0.11792 0.37717 0.0
H340 H 0.70162 0.28556 0.29389 0.0
H341 H 0.72297 0.24739 0.24651 0.0
H342 H 0.75632 0.17861 0.25159 0.0
H343 H 0.76951 0.14823 0.30412 0.0
C344 C 0.7761 0.14403 0.36638 0.0
C345 C 0.75318 0.1839 0.36289 0.0
C346 C 0.74373 0.20011 0.33184 0.0
C347 C 0.72228 0.23859 0.32886 0.0
C348 C 0.71597 0.25555 0.29764 0.0
C349 C 0.72834 0.23408 0.27017 0.0
C350 C 0.74727 0.19545 0.27303 0.0
C351 C 0.75494 0.1785 0.30341 0.0
H352 H 0.72794 0.46522 0.2443 0.0
C353 C 0.71956 0.47063 0.26935 0.0
H354 H 0.73819 0.49792 0.31339 0.0
H355 H 0.89198 0.47907 0.20373 0.0
H356 H 0.88456 0.40488 0.2122 0.0
H357 H 0.83359 0.37726 0.251 0.0
H358 H 0.7887 0.42405 0.2807 0.0
C359 C 0.74566 0.49209 0.28827 0.0
C360 C 0.7849 0.50875 0.27434 0.0
C361 C 0.8134 0.48133 0.25938 0.0
C362 C 0.84484 0.49743 0.23887 0.0
C363 C 0.8694 0.46897 0.22124 0.0
C364 C 0.86518 0.42612 0.22563 0.0
C365 C 0.83636 0.41056 0.24733 0.0
C366 C 0.81061 0.43769 0.26402 0.0
H367 H 0.93381 0.53283 0.2322 0.0
C368 C 0.92092 0.55338 0.2139 0.0
H369 H 0.86732 0.58065 0.1942 0.0
H370 H 0.73962 0.5697 0.30372 0.0
H371 H 0.75164 0.64421 0.30036 0.0
H372 H 0.80958 0.67238 0.26836 0.0
H373 H 0.8555 0.62629 0.23919 0.0
C374 C 0.87981 0.55925 0.21209 0.0
C375 C 0.85004 0.54119 0.23572 0.0
C376 C 0.82436 0.56852 0.25365 0.0
C377 C 0.7915 0.55229 0.27271 0.0
C378 C 0.76527 0.58036 0.28916 0.0
C379 C 0.77185 0.62321 0.28747 0.0
C380 C 0.80444 0.63907 0.26943 0.0
C381 C 0.83047 0.61224 0.25267 0.0
H382 H 0.39419 0.38351 0.6846 0.0
C383 C 0.38749 0.41321 0.69599 0.0
H384 H 0.38541 0.44661 0.73977 0.0
H385 H 0.40501 0.2386 0.76239 0.0
H386 H 0.3361 0.23365 0.73985 0.0
H387 H 0.29844 0.29675 0.72265 0.0
H388 H 0.33028 0.36513 0.72702 0.0
C389 C 0.3925 0.41729 0.72799 0.0
C390 C 0.40898 0.38194 0.74751 0.0
C391 C 0.38872 0.34266 0.74716 0.0
C392 C 0.40948 0.30662 0.75885 0.0
C393 C 0.39014 0.26728 0.75522 0.0
C394 C 0.35055 0.26394 0.74217 0.0
C395 C 0.32941 0.29944 0.73236 0.0
C396 C 0.34813 0.33841 0.73476 0.0
H397 H 0.44079 0.24814 0.81742 0.0
C398 C 0.46794 0.24516 0.8022 0.0
H399 H 0.50314 0.27091 0.76417 0.0
H400 H 0.45295 0.45385 0.75733 0.0
H401 H 0.51884 0.46003 0.78494 0.0
H402 H 0.55314 0.39812 0.80805 0.0
H403 H 0.52183 0.32956 0.80344 0.0
C404 C 0.47539 0.27333 0.7788 0.0
C405 C 0.44934 0.31058 0.77279 0.0
C406 C 0.46723 0.35061 0.77672 0.0
C407 C 0.44715 0.38636 0.76389 0.0
C408 C 0.46665 0.42569 0.76689 0.0
C409 C 0.50449 0.42968 0.78271 0.0
C410 C 0.52382 0.39483 0.79569 0.0
C411 C 0.50561 0.35567 0.79275 0.0
H412 H 0.53418 0.9138 0.24756 0.0
C413 C 0.54618 0.8991 0.22593 0.0
H414 H 0.59904 0.88099 0.19994 0.0
H415 H 0.67443 0.01989 0.30444 0.0
H416 H 0.62456 0.06938 0.28314 0.0
H417 H 0.57298 0.04765 0.24262 0.0
H418 H 0.57002 0.97637 0.22406 0.0
C419 C 0.58722 0.89659 0.22125 0.0
C420 C 0.61811 0.91103 0.24554 0.0
C421 C 0.62058 0.95358 0.25467 0.0
C422 C 0.65222 0.96689 0.27618 0.0
C423 C 0.65237 0.00879 0.28679 0.0
C424 C 0.62377 0.0374 0.27495 0.0
C425 C 0.59462 0.02511 0.25227 0.0
C426 C 0.59299 0.98382 0.24207 0.0
H427 H 0.73581 -0.00767 0.2615 0.0
C428 C 0.74586 0.98189 0.28525 0.0
H429 H 0.73149 0.94327 0.3251 0.0
H430 H 0.61936 0.8265 0.23636 0.0
H431 H 0.67077 0.77807 0.25659 0.0
H432 H 0.72878 0.80255 0.2903 0.0
H433 H 0.73536 0.87554 0.3044 0.0
C434 C 0.72216 0.95465 0.30149 0.0
C435 C 0.68346 0.93864 0.28622 0.0
C436 C 0.68003 0.89592 0.27827 0.0
C437 C 0.64709 0.88202 0.25819 0.0
C438 C 0.64423 0.83901 0.2509 0.0
C439 C 0.67344 0.81081 0.26246 0.0
C440 C 0.70607 0.82457 0.28148 0.0
C441 C 0.70951 0.86659 0.28935 0.0
H442 H 0.96628 0.25242 0.74277 0.0
C443 C 0.97997 0.26788 0.76354 0.0
H444 H 0.02908 0.26682 0.79725 0.0
H445 H 0.00352 0.08592 0.71617 0.0
H446 H 0.93864 0.08025 0.74477 0.0
H447 H 0.91765 0.13395 0.78391 0.0
H448 H 0.96092 0.19456 0.79347 0.0
C449 C 0.01412 0.25165 0.77695 0.0
C450 C 0.03307 0.21382 0.76242 0.0
C451 C 0.00958 0.17663 0.75962 0.0
C452 C 0.02347 0.14392 0.73934 0.0
C453 C -0.0036 0.11002 0.7334 0.0
C454 C 0.95865 0.10665 0.74934 0.0
C455 C 0.94671 0.13699 0.7712 0.0
C456 C 0.97168 0.17172 0.77629 0.0
H457 H 0.07126 0.06412 0.73836 0.0
C458 C 0.08238 0.07266 0.71451 0.0
H459 H 0.09054 0.12033 0.68018 0.0
H460 H 0.0865 0.27998 0.76397 0.0
H461 H 0.15422 0.28357 0.73916 0.0
H462 H 0.18212 0.22376 0.70904 0.0
H463 H 0.14209 0.16048 0.70279 0.0
C464 C 0.07904 0.11215 0.704 0.0
C465 C 0.06319 0.14642 0.72483 0.0
C466 C 0.088 0.18249 0.72961 0.0
C467 C 0.07258 0.2165 0.74793 0.0
C468 C 0.097 0.25298 0.75078 0.0
C469 C 0.13597 0.25546 0.73669 0.0
C470 C 0.15163 0.22183 0.71967 0.0
C471 C 0.12816 0.18569 0.71615 0.0
H472 H 0.96141 0.45458 0.6916 0.0
C473 C 0.9733 0.449 0.71576 0.0
H474 H 0.02645 0.44435 0.74511 0.0
H475 H 0.15213 0.39205 0.64076 0.0
H476 H 0.12886 0.32302 0.65741 0.0
H477 H 0.06668 0.31463 0.69126 0.0
H478 H 0.02713 0.37495 0.70834 0.0
C479 C 0.01413 0.45196 0.72142 0.0
C480 C 0.04493 0.45666 0.69513 0.0
C481 C 0.06705 0.42104 0.68481 0.0
C482 C 0.10322 0.42584 0.66579 0.0
C483 C 0.12494 0.38987 0.65588 0.0
C484 C 0.11178 0.35022 0.66508 0.0
C485 C 0.07675 0.34549 0.68412 0.0
C486 C 0.05444 0.38036 0.69387 0.0
H487 H 0.18127 0.44671 0.69318 0.0
C488 C 0.19105 0.46189 0.67094 0.0
H489 H 0.17048 0.49019 0.62777 0.0
H490 H 0.00572 0.53037 0.70659 0.0
H491 H 0.02796 0.59904 0.68859 0.0
H492 H 0.09109 0.60747 0.65587 0.0
H493 H 0.13249 0.54748 0.64104 0.0
C494 C 0.16217 0.47232 0.64908 0.0
C495 C 0.11783 0.46627 0.65794 0.0
C496 C 0.09309 0.5015 0.6651 0.0
C497 C 0.05659 0.49667 0.68391 0.0
C498 C 0.03357 0.53246 0.69226 0.0
C499 C 0.04599 0.57196 0.68208 0.0
C500 C 0.08157 0.57671 0.66367 0.0
C501 C 0.10509 0.54203 0.65536 0.0
H502 H 0.50223 0.47444 0.21977 0.0
C503 C 0.52676 0.48313 0.23638 0.0
H504 H 0.56061 0.53136 0.25837 0.0
H505 H 0.46537 0.64102 0.14473 0.0
H506 H 0.49574 0.59467 0.10516 0.0
H507 H 0.53501 0.53258 0.12233 0.0
H508 H 0.54296 0.51574 0.17901 0.0
C509 C 0.53579 0.52344 0.24174 0.0
C510 C 0.51008 0.55876 0.23004 0.0
C511 C 0.50754 0.56903 0.19678 0.0
C512 C 0.48727 0.60632 0.18692 0.0
C513 C 0.4825 0.6144 0.15354 0.0
C514 C 0.49945 0.58785 0.13059 0.0
C515 C 0.5214 0.5528 0.14026 0.0
C516 C 0.52555 0.54336 0.17293 0.0
H517 H 0.51016 0.69496 0.17451 0.0
C518 C 0.48113 0.70452 0.18533 0.0
H519 H 0.42797 0.68746 0.21108 0.0
H520 H 0.50347 0.54474 0.29504 0.0
H521 H 0.47473 0.59175 0.33469 0.0
H522 H 0.44576 0.6596 0.31825 0.0
H523 H 0.44467 0.68048 0.26231 0.0
C524 C 0.4572 0.67693 0.20113 0.0
C525 C 0.47236 0.63467 0.21041 0.0
C526 C 0.47341 0.62347 0.24359 0.0
C527 C 0.49153 0.58511 0.25326 0.0
C528 C 0.49121 0.5741 0.28643 0.0
C529 C 0.47463 0.60069 0.30948 0.0
C530 C 0.45822 0.6388 0.30021 0.0
C531 C 0.45764 0.65029 0.26779 0.0
H532 H 0.50324 0.06598 0.71298 0.0
C533 C 0.49527 0.06585 0.73844 0.0
H534 H 0.44919 0.05232 0.77301 0.0
H535 H 0.30858 0.08877 0.67001 0.0
H536 H 0.3267 0.16129 0.67965 0.0
H537 H 0.38995 0.17955 0.70986 0.0
H538 H 0.43552 0.12569 0.73039 0.0
C539 C 0.45798 0.05179 0.74773 0.0
C540 C 0.42493 0.04125 0.72421 0.0
C541 C 0.39893 0.07328 0.71215 0.0
C542 C 0.36209 0.06282 0.6953 0.0
C543 C 0.33649 0.09523 0.68355 0.0
C544 C 0.34663 0.13688 0.68877 0.0
C545 C 0.38226 0.14716 0.70575 0.0
C546 C 0.40819 0.11589 0.7174 0.0
H547 H 0.28595 0.03033 0.72727 0.0
C548 C 0.27764 0.01628 0.70429 0.0
H549 H 0.30101 -0.0067 0.6601 0.0
H550 H 0.471 0.97313 0.74021 0.0
H551 H 0.4534 0.90071 0.72955 0.0
H552 H 0.38898 0.88252 0.70092 0.0
H553 H 0.34169 0.93657 0.68261 0.0
C554 C 0.3075 0.00956 0.68249 0.0
C555 C 0.35087 0.02047 0.69122 0.0
C556 C 0.37867 0.98862 0.70071 0.0
C557 C 0.41575 -0.00094 0.71736 0.0
C558 C 0.44236 0.9667 0.72762 0.0
C559 C 0.43266 0.92512 0.7216 0.0
C560 C 0.39636 0.91488 0.70545 0.0
C561 C 0.36949 0.94613 0.69513 0.0
H562 H -0.01065 0.75833 0.23493 0.0
C563 C -0.01267 0.75078 0.2094 0.0
H564 H 0.97418 0.77456 0.16278 0.0
H565 H 0.8656 0.91242 0.23672 0.0
H566 H 0.81187 0.87209 0.21026 0.0
H567 H 0.82926 0.80939 0.17879 0.0
H568 H 0.90055 0.78663 0.1736 0.0
C569 C 0.97767 0.78107 0.18834 0.0
C570 C 0.96841 0.82347 0.20073 0.0
C571 C 0.92685 0.8369 0.20273 0.0
C572 C 0.91686 0.87291 0.22096 0.0
C573 C 0.8749 0.8851 0.22334 0.0
C574 C 0.84377 0.8623 0.20821 0.0
C575 C 0.85356 0.827 0.19048 0.0
C576 C 0.89456 0.81425 0.18774 0.0
H577 H 0.95039 0.97885 0.22934 0.0
C578 C 0.93794 0.96909 0.25251 0.0
H579 H 0.92245 0.91813 0.28248 0.0
H580 H 0.05163 0.8104 0.19631 0.0
H581 H 0.10574 0.85161 0.2217 0.0
H582 H 0.08835 0.91331 0.25436 0.0
H583 H 0.01685 0.93435 0.26167 0.0
C584 C 0.937 0.92843 0.26023 0.0
C585 C 0.94855 0.89556 0.23683 0.0
C586 C -0.00957 0.88403 0.2327 0.0
C587 C 0.0004 0.84805 0.21439 0.0
C588 C 0.04244 0.83701 0.21057 0.0
C589 C 0.07373 0.86049 0.22486 0.0
C590 C 0.06394 0.89527 0.24321 0.0
C591 C 0.02281 0.90702 0.24721 0.0
loop_
_geom_bond_atom_site_label_1
_geom_bond_atom_site_label_2
_geom_bond_distance
_geom_bond_site_symmetry_2
_ccdc_geom_bond_type
C0 O1 1.306 . S
C0 O3 1.160 . S
O1 C0 1.306 . S
O1 Cd2 2.228 . S
Cd2 O1 2.228 . S
Cd2 O6 2.273 . S
Cd2 O10 2.277 . S
O3 C0 1.160 . S
O3 Cd4 2.203 . S
Cd4 O3 2.203 . S
Cd4 O6 2.411 . S
Cd4 O7 2.333 1_455 S
Cd4 O8 2.352 . S
Cd4 O12 2.277 1_455 S
Cd4 O13 2.356 1_455 S
C5 O10 1.209 1_655 S
C5 O12 1.226 . S
O6 Cd2 2.273 . S
O6 Cd4 2.411 . S
O6 C9 1.320 1_455 S
O7 Cd4 2.333 1_655 S
O7 C9 1.214 . S
O8 Cd4 2.352 . S
O8 C11 1.258 . S
C9 O6 1.320 1_655 S
C9 O7 1.214 . S
O10 Cd2 2.277 . S
O10 C5 1.209 1_455 S
C11 O8 1.258 . S
C11 O13 1.282 1_455 S
O12 Cd4 2.277 1_655 S
O12 C5 1.226 . S
O13 Cd4 2.356 1_655 S
O13 C11 1.282 1_655 S
C14 O15 1.306 . S
C14 O17 1.160 . S
O15 C14 1.306 . S
O15 Cd16 2.228 . S
Cd16 O15 2.228 . S
Cd16 O20 2.273 . S
Cd16 O24 2.277 . S
O17 C14 1.160 . S
O17 Cd18 2.203 . S
Cd18 O17 2.203 . S
Cd18 O20 2.411 . S
Cd18 O21 2.333 . S
Cd18 O22 2.352 . S
Cd18 O26 2.277 . S
Cd18 O27 2.356 . S
C19 O24 1.209 . S
C19 O26 1.226 . S
O20 Cd16 2.273 . S
O20 Cd18 2.411 . S
O20 C23 1.320 . S
O21 Cd18 2.333 . S
O21 C23 1.214 . S
O22 Cd18 2.352 . S
O22 C25 1.258 . S
C23 O20 1.320 . S
C23 O21 1.214 . S
O24 Cd16 2.277 . S
O24 C19 1.209 . S
C25 O22 1.258 . S
C25 O27 1.282 . S
O26 Cd18 2.277 . S
O26 C19 1.226 . S
O27 Cd18 2.356 . S
O27 C25 1.282 . S
C28 O29 1.306 . S
C28 O31 1.160 . S
O29 C28 1.306 . S
O29 Cd30 2.228 . S
Cd30 O29 2.228 . S
Cd30 O34 2.273 . S
Cd30 O38 2.277 . S
O31 C28 1.160 . S
O31 Cd32 2.203 . S
Cd32 O31 2.203 . S
Cd32 O34 2.411 . S
Cd32 O35 2.333 . S
Cd32 O36 2.352 . S
Cd32 O40 2.277 . S
Cd32 O41 2.356 . S
C33 O38 1.209 . S
C33 O40 1.226 . S
O34 Cd30 2.273 . S
O34 Cd32 2.411 . S
O34 C37 1.320 . S
O35 Cd32 2.333 . S
O35 C37 1.214 . S
O36 Cd32 2.352 . S
O36 C39 1.258 . S
C37 O34 1.320 . S
C37 O35 1.214 . S
O38 Cd30 2.277 . S
O38 C33 1.209 . S
C39 O36 1.258 . S
C39 O41 1.282 . S
O40 Cd32 2.277 . S
O40 C33 1.226 . S
O41 Cd32 2.356 . S
O41 C39 1.282 . S
C42 O43 1.306 . S
C42 O45 1.160 . S
O43 C42 1.306 . S
O43 Cd44 2.228 . S
Cd44 O43 2.228 . S
Cd44 O48 2.273 . S
Cd44 O52 2.277 . S
O45 C42 1.160 . S
O45 Cd46 2.203 . S
Cd46 O45 2.203 . S
Cd46 O48 2.411 . S
Cd46 O49 2.333 1_565 S
Cd46 O50 2.352 . S
Cd46 O54 2.277 1_565 S
Cd46 O55 2.356 1_565 S
C47 O52 1.209 1_545 S
C47 O54 1.226 . S
O48 Cd44 2.273 . S
O48 Cd46 2.411 . S
O48 C51 1.320 1_565 S
O49 Cd46 2.333 1_545 S
O49 C51 1.214 . S
O50 Cd46 2.352 . S
O50 C53 1.258 . S
C51 O48 1.320 1_545 S
C51 O49 1.214 . S
O52 Cd44 2.277 . S
O52 C47 1.209 1_565 S
C53 O50 1.258 . S
C53 O55 1.282 1_565 S
O54 Cd46 2.277 1_545 S
O54 C47 1.226 . S
O55 Cd46 2.356 1_545 S
O55 C53 1.282 1_545 S
C56 O57 1.306 1_455 S
C56 O59 1.160 . S
O57 C56 1.306 1_655 S
O57 Cd58 2.228 . S
Cd58 O57 2.228 . S
Cd58 O62 2.273 . S
Cd58 O66 2.277 . S
O59 C56 1.160 . S
O59 Cd60 2.203 1_455 S
Cd60 O59 2.203 1_655 S
Cd60 O62 2.411 . S
Cd60 O63 2.333 . S
Cd60 O64 2.352 . S
Cd60 O68 2.277 1_655 S
Cd60 O69 2.356 . S
C61 O66 1.209 1_455 S
C61 O68 1.226 . S
O62 Cd58 2.273 . S
O62 Cd60 2.411 . S
O62 C65 1.320 . S
O63 Cd60 2.333 . S
O63 C65 1.214 . S
O64 Cd60 2.352 . S
O64 C67 1.258 . S
C65 O62 1.320 . S
C65 O63 1.214 . S
O66 Cd58 2.277 . S
O66 C61 1.209 1_655 S
C67 O64 1.258 . S
C67 O69 1.282 . S
O68 Cd60 2.277 1_455 S
O68 C61 1.226 . S
O69 Cd60 2.356 . S
O69 C67 1.282 . S
C70 O71 1.306 . S
C70 O73 1.160 . S
O71 C70 1.306 . S
O71 Cd72 2.228 . S
Cd72 O71 2.228 . S
Cd72 O76 2.273 . S
Cd72 O80 2.277 . S
O73 C70 1.160 . S
O73 Cd74 2.203 . S
Cd74 O73 2.203 . S
Cd74 O76 2.411 . S
Cd74 O77 2.333 . S
Cd74 O78 2.352 . S
Cd74 O82 2.277 . S
Cd74 O83 2.356 . S
C75 O80 1.209 . S
C75 O82 1.226 . S
O76 Cd72 2.273 . S
O76 Cd74 2.411 . S
O76 C79 1.320 . S
O77 Cd74 2.333 . S
O77 C79 1.214 . S
O78 Cd74 2.352 . S
O78 C81 1.258 . S
C79 O76 1.320 . S
C79 O77 1.214 . S
O80 Cd72 2.277 . S
O80 C75 1.209 . S
C81 O78 1.258 . S
C81 O83 1.282 . S
O82 Cd74 2.277 . S
O82 C75 1.226 . S
O83 Cd74 2.356 . S
O83 C81 1.282 . S
C84 O85 1.306 . S
C84 O87 1.160 . S
O85 C84 1.306 . S
O85 Cd86 2.228 . S
Cd86 O85 2.228 . S
Cd86 O90 2.273 . S
Cd86 O94 2.277 . S
O87 C84 1.160 . S
O87 Cd88 2.203 . S
Cd88 O87 2.203 . S
Cd88 O90 2.411 . S
Cd88 O91 2.333 . S
Cd88 O92 2.352 . S
Cd88 O96 2.277 . S
Cd88 O97 2.356 . S
C89 O94 1.209 . S
C89 O96 1.226 . S
O90 Cd86 2.273 . S
O90 Cd88 2.411 . S
O90 C93 1.320 . S
O91 Cd88 2.333 . S
O91 C93 1.214 . S
O92 Cd88 2.352 . S
O92 C95 1.258 . S
C93 O90 1.320 . S
C93 O91 1.214 . S
O94 Cd86 2.277 . S
O94 C89 1.209 . S
C95 O92 1.258 . S
C95 O97 1.282 . S
O96 Cd88 2.277 . S
O96 C89 1.226 . S
O97 Cd88 2.356 . S
O97 C95 1.282 . S
C98 O99 1.306 1_565 S
C98 O101 1.160 . S
O99 C98 1.306 1_545 S
O99 Cd100 2.228 . S
Cd100 O99 2.228 . S
Cd100 O104 2.273 . S
Cd100 O108 2.277 . S
O101 C98 1.160 . S
O101 Cd102 2.203 1_565 S
Cd102 O101 2.203 1_545 S
Cd102 O104 2.411 . S
Cd102 O105 2.333 . S
Cd102 O106 2.352 . S
Cd102 O110 2.277 1_545 S
Cd102 O111 2.356 . S
C103 O108 1.209 1_565 S
C103 O110 1.226 . S
O104 Cd100 2.273 . S
O104 Cd102 2.411 . S
O104 C107 1.320 . S
O105 Cd102 2.333 . S
O105 C107 1.214 . S
O106 Cd102 2.352 . S
O106 C109 1.258 . S
C107 O104 1.320 . S
C107 O105 1.214 . S
O108 Cd100 2.277 . S
O108 C103 1.209 1_545 S
C109 O106 1.258 . S
C109 O111 1.282 . S
O110 Cd102 2.277 1_565 S
O110 C103 1.226 . S
O111 Cd102 2.356 . S
O111 C109 1.282 . S
H112 C113 0.951 1_455 S
C113 H112 0.951 1_655 S
C113 C119 1.265 . S
H114 C119 0.950 . S
H115 C123 0.949 . S
H116 C124 0.950 . S
H117 C125 0.951 . S
H118 C126 0.951 . S
C119 C113 1.265 . S
C119 H114 0.950 . S
C119 C120 1.478 . S
C120 C119 1.478 . S
C120 C121 1.397 1_656 S
C120 C137 1.394 . S
C121 C120 1.397 1_454 S
C121 C122 1.438 . S
C121 C126 1.429 . S
C122 C121 1.438 . S
C122 C123 1.428 . S
C122 C135 1.394 . S
C123 H115 0.949 . S
C123 C122 1.428 . S
C123 C124 1.345 . S
C124 H116 0.950 . S
C124 C123 1.345 . S
C124 C125 1.424 . S
C125 H117 0.951 . S
C125 C124 1.424 . S
C125 C126 1.347 . S
C126 H118 0.951 . S
C126 C121 1.429 . S
C126 C125 1.347 . S
H127 C128 0.951 1_655 S
C128 H127 0.951 1_455 S
C128 C134 1.265 . S
H129 C134 0.950 . S
H130 C138 0.949 . S
H131 C139 0.950 . S
H132 C140 0.951 . S
H133 C141 0.951 . S
C134 C128 1.265 . S
C134 H129 0.950 . S
C134 C135 1.478 . S
C135 C122 1.394 . S
C135 C134 1.478 . S
C135 C136 1.397 1_454 S
C136 C135 1.397 1_656 S
C136 C137 1.438 . S
C136 C141 1.429 . S
C137 C120 1.394 . S
C137 C136 1.438 . S
C137 C138 1.428 . S
C138 H130 0.949 . S
C138 C137 1.428 . S
C138 C139 1.345 . S
C139 H131 0.950 . S
C139 C138 1.345 . S
C139 C140 1.424 . S
C140 H132 0.951 . S
C140 C139 1.424 . S
C140 C141 1.347 . S
C141 H133 0.951 . S
C141 C136 1.429 . S
C141 C140 1.347 . S
H142 C143 0.951 . S
C143 H142 0.951 . S
C143 C149 1.265 . S
H144 C149 0.950 . S
H145 C153 0.949 . S
H146 C154 0.950 . S
H147 C155 0.951 . S
H148 C156 0.951 . S
C149 C143 1.265 . S
C149 H144 0.950 . S
C149 C150 1.478 . S
C150 C149 1.478 . S
C150 C151 1.397 . S
C150 C167 1.394 . S
C151 C150 1.397 . S
C151 C152 1.438 . S
C151 C156 1.429 . S
C152 C151 1.438 . S
C152 C153 1.428 . S
C152 C165 1.394 . S
C153 H145 0.949 . S
C153 C152 1.428 . S
C153 C154 1.345 . S
C154 H146 0.950 . S
C154 C153 1.345 . S
C154 C155 1.424 . S
C155 H147 0.951 . S
C155 C154 1.424 . S
C155 C156 1.347 . S
C156 H148 0.951 . S
C156 C151 1.429 . S
C156 C155 1.347 . S
H157 C158 0.951 . S
C158 H157 0.951 . S
C158 C164 1.265 . S
H159 C164 0.950 . S
H160 C168 0.949 . S
H161 C169 0.950 . S
H162 C170 0.951 . S
H163 C171 0.951 . S
C164 C158 1.265 . S
C164 H159 0.950 . S
C164 C165 1.478 . S
C165 C152 1.394 . S
C165 C164 1.478 . S
C165 C166 1.397 . S
C166 C165 1.397 . S
C166 C167 1.438 . S
C166 C171 1.429 . S
C167 C150 1.394 . S
C167 C166 1.438 . S
C167 C168 1.428 . S
C168 H160 0.949 . S
C168 C167 1.428 . S
C168 C169 1.345 . S
C169 H161 0.950 . S
C169 C168 1.345 . S
C169 C170 1.424 . S
C170 H162 0.951 . S
C170 C169 1.424 . S
C170 C171 1.347 . S
C171 H163 0.951 . S
C171 C166 1.429 . S
C171 C170 1.347 . S
H172 C173 0.951 . S
C173 H172 0.951 . S
C173 C179 1.265 . S
H174 C179 0.950 . S
H175 C183 0.949 . S
H176 C184 0.950 1_545 S
H177 C185 0.951 . S
H178 C186 0.951 1_554 S
C179 C173 1.265 . S
C179 H174 0.950 . S
C179 C180 1.478 . S
C180 C179 1.478 . S
C180 C181 1.397 1_554 S
C180 C197 1.394 . S
C181 C180 1.397 1_556 S
C181 C182 1.438 1_565 S
C181 C186 1.429 . S
C182 C181 1.438 1_545 S
C182 C183 1.428 . S
C182 C195 1.394 . S
C183 H175 0.949 . S
C183 C182 1.428 . S
C183 C184 1.345 1_545 S
C184 H176 0.950 1_565 S
C184 C183 1.345 1_565 S
C184 C185 1.424 . S
C185 H177 0.951 . S
C185 C184 1.424 . S
C185 C186 1.347 . S
C186 H178 0.951 1_556 S
C186 C181 1.429 . S
C186 C185 1.347 . S
H187 C188 0.951 . S
C188 H187 0.951 . S
C188 C194 1.265 . S
H189 C194 0.950 . S
H190 C198 0.949 . S
H191 C199 0.949 . S
H192 C200 0.951 . S
H193 C201 0.951 1_556 S
C194 C188 1.265 . S
C194 H189 0.950 . S
C194 C195 1.478 . S
C195 C182 1.394 . S
C195 C194 1.478 . S
C195 C196 1.397 1_556 S
C196 C195 1.397 1_554 S
C196 C197 1.438 1_545 S
C196 C201 1.429 . S
C197 C180 1.394 . S
C197 C196 1.438 1_565 S
C197 C198 1.428 . S
C198 H190 0.949 . S
C198 C197 1.428 . S
C198 C199 1.345 1_565 S
C199 H191 0.949 . S
C199 C198 1.345 1_545 S
C199 C200 1.424 . S
C200 H192 0.951 . S
C200 C199 1.424 . S
C200 C201 1.347 . S
C201 H193 0.951 1_554 S
C201 C196 1.429 . S
C201 C200 1.347 . S
H202 C203 0.951 1_565 S
C203 H202 0.951 1_545 S
C203 C209 1.265 . S
H204 C209 0.950 . S
H205 C213 0.949 . S
H206 C214 0.950 . S
H207 C215 0.951 . S
H208 C216 0.951 . S
C209 C203 1.265 . S
C209 H204 0.950 . S
C209 C210 1.478 . S
C210 C209 1.478 . S
C210 C211 1.397 . S
C210 C227 1.394 1_545 S
C211 C210 1.397 . S
C211 C212 1.438 1_655 S
C211 C216 1.429 . S
C212 C211 1.438 1_455 S
C212 C213 1.428 . S
C212 C225 1.394 1_545 S
C213 H205 0.949 . S
C213 C212 1.428 . S
C213 C214 1.345 . S
C214 H206 0.950 . S
C214 C213 1.345 . S
C214 C215 1.424 1_455 S
C215 H207 0.951 . S
C215 C214 1.424 1_655 S
C215 C216 1.347 . S
C216 H208 0.951 . S
C216 C211 1.429 . S
C216 C215 1.347 . S
H217 C218 0.951 1_545 S
C218 H217 0.951 1_565 S
C218 C224 1.265 . S
H219 C224 0.950 . S
H220 C228 0.949 . S
H221 C229 0.950 . S
H222 C230 0.951 . S
H223 C231 0.951 . S
C224 C218 1.265 . S
C224 H219 0.950 . S
C224 C225 1.478 . S
C225 C212 1.394 1_565 S
C225 C224 1.478 . S
C225 C226 1.397 . S
C226 C225 1.397 . S
C226 C227 1.438 1_455 S
C226 C231 1.429 . S
C227 C210 1.394 1_565 S
C227 C226 1.438 1_655 S
C227 C228 1.428 . S
C228 H220 0.949 . S
C228 C227 1.428 . S
C228 C229 1.345 . S
C229 H221 0.950 . S
C229 C228 1.345 . S
C229 C230 1.424 1_655 S
C230 H222 0.951 . S
C230 C229 1.424 1_455 S
C230 C231 1.347 . S
C231 H223 0.951 . S
C231 C226 1.429 . S
C231 C230 1.347 . S
H232 C233 0.951 . S
C233 H232 0.951 . S
C233 C239 1.265 . S
H234 C239 0.950 . S
H235 C243 0.949 . S
H236 C244 0.950 . S
H237 C245 0.951 . S
H238 C246 0.951 . S
C239 C233 1.265 . S
C239 H234 0.950 . S
C239 C240 1.478 . S
C240 C239 1.478 . S
C240 C241 1.397 . S
C240 C257 1.394 . S
C241 C240 1.397 . S
C241 C242 1.438 . S
C241 C246 1.429 . S
C242 C241 1.438 . S
C242 C243 1.428 . S
C242 C255 1.394 . S
C243 H235 0.949 . S
C243 C242 1.428 . S
C243 C244 1.345 . S
C244 H236 0.950 . S
C244 C243 1.345 . S
C244 C245 1.424 . S
C245 H237 0.951 . S
C245 C244 1.424 . S
C245 C246 1.347 . S
C246 H238 0.951 . S
C246 C241 1.429 . S
C246 C245 1.347 . S
H247 C248 0.951 . S
C248 H247 0.951 . S
C248 C254 1.265 . S
H249 C254 0.950 . S
H250 C258 0.949 . S
H251 C259 0.950 . S
H252 C260 0.951 . S
H253 C261 0.951 . S
C254 C248 1.265 . S
C254 H249 0.950 . S
C254 C255 1.478 . S
C255 C242 1.394 . S
C255 C254 1.478 . S
C255 C256 1.397 . S
C256 C255 1.397 . S
C256 C257 1.438 . S
C256 C261 1.429 . S
C257 C240 1.394 . S
C257 C256 1.438 . S
C257 C258 1.428 . S
C258 H250 0.949 . S
C258 C257 1.428 . S
C258 C259 1.345 . S
C259 H251 0.950 . S
C259 C258 1.345 . S
C259 C260 1.424 . S
C260 H252 0.951 . S
C260 C259 1.424 . S
C260 C261 1.347 . S
C261 H253 0.951 . S
C261 C256 1.429 . S
C261 C260 1.347 . S
H262 C263 0.951 . S
C263 H262 0.951 . S
C263 C269 1.265 . S
H264 C269 0.950 . S
H265 C273 0.949 . S
H266 C274 0.950 . S
H267 C275 0.951 . S
H268 C276 0.951 . S
C269 C263 1.265 . S
C269 H264 0.950 . S
C269 C270 1.478 . S
C270 C269 1.478 . S
C270 C271 1.397 . S
C270 C287 1.394 . S
C271 C270 1.397 . S
C271 C272 1.438 . S
C271 C276 1.429 . S
C272 C271 1.438 . S
C272 C273 1.428 . S
C272 C285 1.394 . S
C273 H265 0.949 . S
C273 C272 1.428 . S
C273 C274 1.345 . S
C274 H266 0.950 . S
C274 C273 1.345 . S
C274 C275 1.424 . S
C275 H267 0.951 . S
C275 C274 1.424 . S
C275 C276 1.347 . S
C276 H268 0.951 . S
C276 C271 1.429 . S
C276 C275 1.347 . S
H277 C278 0.951 . S
C278 H277 0.951 . S
C278 C284 1.265 . S
H279 C284 0.950 . S
H280 C288 0.949 . S
H281 C289 0.950 . S
H282 C290 0.951 . S
H283 C291 0.951 . S
C284 C278 1.265 . S
C284 H279 0.950 . S
C284 C285 1.478 . S
C285 C272 1.394 . S
C285 C284 1.478 . S
C285 C286 1.397 . S
C286 C285 1.397 . S
C286 C287 1.438 . S
C286 C291 1.429 . S
C287 C270 1.394 . S
C287 C286 1.438 . S
C287 C288 1.428 . S
C288 H280 0.949 . S
C288 C287 1.428 . S
C288 C289 1.345 . S
C289 H281 0.950 . S
C289 C288 1.345 . S
C289 C290 1.424 . S
C290 H282 0.951 . S
C290 C289 1.424 . S
C290 C291 1.347 . S
C291 H283 0.951 . S
C291 C286 1.429 . S
C291 C290 1.347 . S
H292 C293 0.951 . S
C293 H292 0.951 . S
C293 C299 1.265 . S
H294 C299 0.950 . S
H295 C303 0.949 . S
H296 C304 0.950 . S
H297 C305 0.951 . S
H298 C306 0.951 . S
C299 C293 1.265 . S
C299 H294 0.950 . S
C299 C300 1.478 . S
C300 C299 1.478 . S
C300 C301 1.397 . S
C300 C317 1.394 . S
C301 C300 1.397 . S
C301 C302 1.438 . S
C301 C306 1.429 . S
C302 C301 1.438 . S
C302 C303 1.428 . S
C302 C315 1.394 . S
C303 H295 0.949 . S
C303 C302 1.428 . S
C303 C304 1.345 . S
C304 H296 0.950 . S
C304 C303 1.345 . S
C304 C305 1.424 . S
C305 H297 0.951 . S
C305 C304 1.424 . S
C305 C306 1.347 . S
C306 H298 0.951 . S
C306 C301 1.429 . S
C306 C305 1.347 . S
H307 C308 0.951 . S
C308 H307 0.951 . S
C308 C314 1.265 . S
H309 C314 0.950 . S
H310 C318 0.949 . S
H311 C319 0.950 . S
H312 C320 0.951 . S
H313 C321 0.951 . S
C314 C308 1.265 . S
C314 H309 0.950 . S
C314 C315 1.478 . S
C315 C302 1.394 . S
C315 C314 1.478 . S
C315 C316 1.397 . S
C316 C315 1.397 . S
C316 C317 1.438 . S
C316 C321 1.429 . S
C317 C300 1.394 . S
C317 C316 1.438 . S
C317 C318 1.428 . S
C318 H310 0.949 . S
C318 C317 1.428 . S
C318 C319 1.345 . S
C319 H311 0.950 . S
C319 C318 1.345 . S
C319 C320 1.424 . S
C320 H312 0.951 . S
C320 C319 1.424 . S
C320 C321 1.347 . S
C321 H313 0.951 . S
C321 C316 1.429 . S
C321 C320 1.347 . S
H322 C323 0.951 . S
C323 H322 0.951 . S
C323 C329 1.265 . S
H324 C329 0.950 . S
H325 C333 0.949 . S
H326 C334 0.950 . S
H327 C335 0.951 . S
H328 C336 0.951 . S
C329 C323 1.265 . S
C329 H324 0.950 . S
C329 C330 1.478 . S
C330 C329 1.478 . S
C330 C331 1.397 . S
C330 C347 1.394 . S
C331 C330 1.397 . S
C331 C332 1.438 . S
C331 C336 1.429 . S
C332 C331 1.438 . S
C332 C333 1.428 . S
C332 C345 1.394 . S
C333 H325 0.949 . S
C333 C332 1.428 . S
C333 C334 1.345 . S
C334 H326 0.950 . S
C334 C333 1.345 . S
C334 C335 1.424 . S
C335 H327 0.951 . S
C335 C334 1.424 . S
C335 C336 1.347 . S
C336 H328 0.951 . S
C336 C331 1.429 . S
C336 C335 1.347 . S
H337 C338 0.951 . S
C338 H337 0.951 . S
C338 C344 1.265 . S
H339 C344 0.950 . S
H340 C348 0.949 . S
H341 C349 0.950 . S
H342 C350 0.951 . S
H343 C351 0.951 . S
C344 C338 1.265 . S
C344 H339 0.950 . S
C344 C345 1.478 . S
C345 C332 1.394 . S
C345 C344 1.478 . S
C345 C346 1.397 . S
C346 C345 1.397 . S
C346 C347 1.438 . S
C346 C351 1.429 . S
C347 C330 1.394 . S
C347 C346 1.438 . S
C347 C348 1.428 . S
C348 H340 0.949 . S
C348 C347 1.428 . S
C348 C349 1.345 . S
C349 H341 0.950 . S
C349 C348 1.345 . S
C349 C350 1.424 . S
C350 H342 0.951 . S
C350 C349 1.424 . S
C350 C351 1.347 . S
C351 H343 0.951 . S
C351 C346 1.429 . S
C351 C350 1.347 . S
H352 C353 0.951 . S
C353 H352 0.951 . S
C353 C359 1.265 . S
H354 C359 0.950 . S
H355 C363 0.949 . S
H356 C364 0.950 . S
H357 C365 0.951 . S
H358 C366 0.951 . S
C359 C353 1.265 . S
C359 H354 0.950 . S
C359 C360 1.478 . S
C360 C359 1.478 . S
C360 C361 1.397 . S
C360 C377 1.394 . S
C361 C360 1.397 . S
C361 C362 1.438 . S
C361 C366 1.429 . S
C362 C361 1.438 . S
C362 C363 1.428 . S
C362 C375 1.394 . S
C363 H355 0.949 . S
C363 C362 1.428 . S
C363 C364 1.345 . S
C364 H356 0.950 . S
C364 C363 1.345 . S
C364 C365 1.424 . S
C365 H357 0.951 . S
C365 C364 1.424 . S
C365 C366 1.347 . S
C366 H358 0.951 . S
C366 C361 1.429 . S
C366 C365 1.347 . S
H367 C368 0.951 . S
C368 H367 0.951 . S
C368 C374 1.265 . S
H369 C374 0.950 . S
H370 C378 0.949 . S
H371 C379 0.950 . S
H372 C380 0.951 . S
H373 C381 0.951 . S
C374 C368 1.265 . S
C374 H369 0.950 . S
C374 C375 1.478 . S
C375 C362 1.394 . S
C375 C374 1.478 . S
C375 C376 1.397 . S
C376 C375 1.397 . S
C376 C377 1.438 . S
C376 C381 1.429 . S
C377 C360 1.394 . S
C377 C376 1.438 . S
C377 C378 1.428 . S
C378 H370 0.949 . S
C378 C377 1.428 . S
C378 C379 1.345 . S
C379 H371 0.950 . S
C379 C378 1.345 . S
C379 C380 1.424 . S
C380 H372 0.951 . S
C380 C379 1.424 . S
C380 C381 1.347 . S
C381 H373 0.951 . S
C381 C376 1.429 . S
C381 C380 1.347 . S
H382 C383 0.951 . S
C383 H382 0.951 . S
C383 C389 1.265 . S
H384 C389 0.950 . S
H385 C393 0.949 . S
H386 C394 0.950 . S
H387 C395 0.951 . S
H388 C396 0.951 . S
C389 C383 1.265 . S
C389 H384 0.950 . S
C389 C390 1.478 . S
C390 C389 1.478 . S
C390 C391 1.397 . S
C390 C407 1.394 . S
C391 C390 1.397 . S
C391 C392 1.438 . S
C391 C396 1.429 . S
C392 C391 1.438 . S
C392 C393 1.428 . S
C392 C405 1.394 . S
C393 H385 0.949 . S
C393 C392 1.428 . S
C393 C394 1.345 . S
C394 H386 0.950 . S
C394 C393 1.345 . S
C394 C395 1.424 . S
C395 H387 0.951 . S
C395 C394 1.424 . S
C395 C396 1.347 . S
C396 H388 0.951 . S
C396 C391 1.429 . S
C396 C395 1.347 . S
H397 C398 0.951 . S
C398 H397 0.951 . S
C398 C404 1.265 . S
H399 C404 0.950 . S
H400 C408 0.949 . S
H401 C409 0.950 . S
H402 C410 0.951 . S
H403 C411 0.951 . S
C404 C398 1.265 . S
C404 H399 0.950 . S
C404 C405 1.478 . S
C405 C392 1.394 . S
C405 C404 1.478 . S
C405 C406 1.397 . S
C406 C405 1.397 . S
C406 C407 1.438 . S
C406 C411 1.429 . S
C407 C390 1.394 . S
C407 C406 1.438 . S
C407 C408 1.428 . S
C408 H400 0.949 . S
C408 C407 1.428 . S
C408 C409 1.345 . S
C409 H401 0.950 . S
C409 C408 1.345 . S
C409 C410 1.424 . S
C410 H402 0.951 . S
C410 C409 1.424 . S
C410 C411 1.347 . S
C411 H403 0.951 . S
C411 C406 1.429 . S
C411 C410 1.347 . S
H412 C413 0.951 . S
C413 H412 0.951 . S
C413 C419 1.265 . S
H414 C419 0.950 . S
H415 C423 0.949 . S
H416 C424 0.950 . S
H417 C425 0.951 . S
H418 C426 0.951 . S
C419 C413 1.265 . S
C419 H414 0.950 . S
C419 C420 1.478 . S
C420 C419 1.478 . S
C420 C421 1.397 . S
C420 C437 1.394 . S
C421 C420 1.397 . S
C421 C422 1.438 . S
C421 C426 1.429 1_565 S
C422 C421 1.438 . S
C422 C423 1.428 1_565 S
C422 C435 1.394 . S
C423 H415 0.949 . S
C423 C422 1.428 1_545 S
C423 C424 1.345 . S
C424 H416 0.950 . S
C424 C423 1.345 . S
C424 C425 1.424 . S
C425 H417 0.951 . S
C425 C424 1.424 . S
C425 C426 1.347 . S
C426 H418 0.951 . S
C426 C421 1.429 1_545 S
C426 C425 1.347 . S
H427 C428 0.951 1_545 S
C428 H427 0.951 1_565 S
C428 C434 1.265 . S
H429 C434 0.950 . S
H430 C438 0.949 . S
H431 C439 0.950 . S
H432 C440 0.951 . S
H433 C441 0.951 . S
C434 C428 1.265 . S
C434 H429 0.950 . S
C434 C435 1.478 . S
C435 C422 1.394 . S
C435 C434 1.478 . S
C435 C436 1.397 . S
C436 C435 1.397 . S
C436 C437 1.438 . S
C436 C441 1.429 . S
C437 C420 1.394 . S
C437 C436 1.438 . S
C437 C438 1.428 . S
C438 H430 0.949 . S
C438 C437 1.428 . S
C438 C439 1.345 . S
C439 H431 0.950 . S
C439 C438 1.345 . S
C439 C440 1.424 . S
C440 H432 0.951 . S
C440 C439 1.424 . S
C440 C441 1.347 . S
C441 H433 0.951 . S
C441 C436 1.429 . S
C441 C440 1.347 . S
H442 C443 0.951 1_655 S
C443 H442 0.951 1_455 S
C443 C449 1.265 . S
H444 C449 0.950 . S
H445 C453 0.949 . S
H446 C454 0.950 . S
H447 C455 0.951 1_655 S
H448 C456 0.951 . S
C449 C443 1.265 . S
C449 H444 0.950 . S
C449 C450 1.478 . S
C450 C449 1.478 . S
C450 C451 1.397 . S
C450 C467 1.394 . S
C451 C450 1.397 . S
C451 C452 1.438 . S
C451 C456 1.429 . S
C452 C451 1.438 . S
C452 C453 1.428 . S
C452 C465 1.394 . S
C453 H445 0.949 . S
C453 C452 1.428 . S
C453 C454 1.345 . S
C454 H446 0.950 . S
C454 C453 1.345 . S
C454 C455 1.424 . S
C455 H447 0.951 1_455 S
C455 C454 1.424 . S
C455 C456 1.347 . S
C456 H448 0.951 . S
C456 C451 1.429 . S
C456 C455 1.347 . S
H457 C458 0.951 . S
C458 H457 0.951 . S
C458 C464 1.265 . S
H459 C464 0.950 . S
H460 C468 0.949 . S
H461 C469 0.950 . S
H462 C470 0.951 . S
H463 C471 0.951 . S
C464 C458 1.265 . S
C464 H459 0.950 . S
C464 C465 1.478 . S
C465 C452 1.394 . S
C465 C464 1.478 . S
C465 C466 1.397 . S
C466 C465 1.397 . S
C466 C467 1.438 . S
C466 C471 1.429 . S
C467 C450 1.394 . S
C467 C466 1.438 . S
C467 C468 1.428 . S
C468 H460 0.949 . S
C468 C467 1.428 . S
C468 C469 1.345 . S
C469 H461 0.950 . S
C469 C468 1.345 . S
C469 C470 1.424 . S
C470 H462 0.951 . S
C470 C469 1.424 . S
C470 C471 1.347 . S
C471 H463 0.951 . S
C471 C466 1.429 . S
C471 C470 1.347 . S
H472 C473 0.951 . S
C473 H472 0.951 . S
C473 C479 1.265 . S
H474 C479 0.950 . S
H475 C483 0.949 . S
H476 C484 0.950 . S
H477 C485 0.951 . S
H478 C486 0.951 . S
C479 C473 1.265 . S
C479 H474 0.950 . S
C479 C480 1.478 . S
C480 C479 1.478 . S
C480 C481 1.397 . S
C480 C497 1.394 . S
C481 C480 1.397 . S
C481 C482 1.438 . S
C481 C486 1.429 . S
C482 C481 1.438 . S
C482 C483 1.428 . S
C482 C495 1.394 . S
C483 H475 0.949 . S
C483 C482 1.428 . S
C483 C484 1.345 . S
C484 H476 0.950 . S
C484 C483 1.345 . S
C484 C485 1.424 . S
C485 H477 0.951 . S
C485 C484 1.424 . S
C485 C486 1.347 . S
C486 H478 0.951 . S
C486 C481 1.429 . S
C486 C485 1.347 . S
H487 C488 0.951 . S
C488 H487 0.951 . S
C488 C494 1.265 . S
H489 C494 0.950 . S
H490 C498 0.949 . S
H491 C499 0.950 . S
H492 C500 0.951 . S
H493 C501 0.951 . S
C494 C488 1.265 . S
C494 H489 0.950 . S
C494 C495 1.478 . S
C495 C482 1.394 . S
C495 C494 1.478 . S
C495 C496 1.397 . S
C496 C495 1.397 . S
C496 C497 1.438 . S
C496 C501 1.429 . S
C497 C480 1.394 . S
C497 C496 1.438 . S
C497 C498 1.428 . S
C498 H490 0.949 . S
C498 C497 1.428 . S
C498 C499 1.345 . S
C499 H491 0.950 . S
C499 C498 1.345 . S
C499 C500 1.424 . S
C500 H492 0.951 . S
C500 C499 1.424 . S
C500 C501 1.347 . S
C501 H493 0.951 . S
C501 C496 1.429 . S
C501 C500 1.347 . S
H502 C503 0.951 . S
C503 H502 0.951 . S
C503 C509 1.265 . S
H504 C509 0.950 . S
H505 C513 0.949 . S
H506 C514 0.950 . S
H507 C515 0.951 . S
H508 C516 0.951 . S
C509 C503 1.265 . S
C509 H504 0.950 . S
C509 C510 1.478 . S
C510 C509 1.478 . S
C510 C511 1.397 . S
C510 C527 1.394 . S
C511 C510 1.397 . S
C511 C512 1.438 . S
C511 C516 1.429 . S
C512 C511 1.438 . S
C512 C513 1.428 . S
C512 C525 1.394 . S
C513 H505 0.949 . S
C513 C512 1.428 . S
C513 C514 1.345 . S
C514 H506 0.950 . S
C514 C513 1.345 . S
C514 C515 1.424 . S
C515 H507 0.951 . S
C515 C514 1.424 . S
C515 C516 1.347 . S
C516 H508 0.951 . S
C516 C511 1.429 . S
C516 C515 1.347 . S
H517 C518 0.951 . S
C518 H517 0.951 . S
C518 C524 1.265 . S
H519 C524 0.950 . S
H520 C528 0.949 . S
H521 C529 0.950 . S
H522 C530 0.951 . S
H523 C531 0.951 . S
C524 C518 1.265 . S
C524 H519 0.950 . S
C524 C525 1.478 . S
C525 C512 1.394 . S
C525 C524 1.478 . S
C525 C526 1.397 . S
C526 C525 1.397 . S
C526 C527 1.438 . S
C526 C531 1.429 . S
C527 C510 1.394 . S
C527 C526 1.438 . S
C527 C528 1.428 . S
C528 H520 0.949 . S
C528 C527 1.428 . S
C528 C529 1.345 . S
C529 H521 0.950 . S
C529 C528 1.345 . S
C529 C530 1.424 . S
C530 H522 0.951 . S
C530 C529 1.424 . S
C530 C531 1.347 . S
C531 H523 0.951 . S
C531 C526 1.429 . S
C531 C530 1.347 . S
H532 C533 0.951 . S
C533 H532 0.951 . S
C533 C539 1.265 . S
H534 C539 0.950 . S
H535 C543 0.949 . S
H536 C544 0.950 . S
H537 C545 0.951 . S
H538 C546 0.951 . S
C539 C533 1.265 . S
C539 H534 0.950 . S
C539 C540 1.478 . S
C540 C539 1.478 . S
C540 C541 1.397 . S
C540 C557 1.394 . S
C541 C540 1.397 . S
C541 C542 1.438 . S
C541 C546 1.429 . S
C542 C541 1.438 . S
C542 C543 1.428 . S
C542 C555 1.394 . S
C543 H535 0.949 . S
C543 C542 1.428 . S
C543 C544 1.345 . S
C544 H536 0.950 . S
C544 C543 1.345 . S
C544 C545 1.424 . S
C545 H537 0.951 . S
C545 C544 1.424 . S
C545 C546 1.347 . S
C546 H538 0.951 . S
C546 C541 1.429 . S
C546 C545 1.347 . S
H547 C548 0.951 . S
C548 H547 0.951 . S
C548 C554 1.265 . S
H549 C554 0.950 1_565 S
H550 C558 0.949 . S
H551 C559 0.950 . S
H552 C560 0.951 . S
H553 C561 0.951 . S
C554 C548 1.265 . S
C554 H549 0.950 1_545 S
C554 C555 1.478 . S
C555 C542 1.394 . S
C555 C554 1.478 . S
C555 C556 1.397 . S
C556 C555 1.397 . S
C556 C557 1.438 . S
C556 C561 1.429 1_545 S
C557 C540 1.394 . S
C557 C556 1.438 . S
C557 C558 1.428 . S
C558 H550 0.949 . S
C558 C557 1.428 . S
C558 C559 1.345 1_545 S
C559 H551 0.950 . S
C559 C558 1.345 1_565 S
C559 C560 1.424 . S
C560 H552 0.951 . S
C560 C559 1.424 . S
C560 C561 1.347 . S
C561 H553 0.951 . S
C561 C556 1.429 1_565 S
C561 C560 1.347 . S
H562 C563 0.951 . S
C563 H562 0.951 . S
C563 C569 1.265 . S
H564 C569 0.950 . S
H565 C573 0.949 . S
H566 C574 0.950 . S
H567 C575 0.951 . S
H568 C576 0.951 . S
C569 C563 1.265 . S
C569 H564 0.950 . S
C569 C570 1.478 . S
C570 C569 1.478 . S
C570 C571 1.397 . S
C570 C587 1.394 . S
C571 C570 1.397 . S
C571 C572 1.438 . S
C571 C576 1.429 . S
C572 C571 1.438 . S
C572 C573 1.428 . S
C572 C585 1.394 . S
C573 H565 0.949 . S
C573 C572 1.428 . S
C573 C574 1.345 . S
C574 H566 0.950 . S
C574 C573 1.345 . S
C574 C575 1.424 . S
C575 H567 0.951 . S
C575 C574 1.424 . S
C575 C576 1.347 . S
C576 H568 0.951 . S
C576 C571 1.429 . S
C576 C575 1.347 . S
H577 C578 0.951 . S
C578 H577 0.951 . S
C578 C584 1.265 . S
H579 C584 0.950 . S
H580 C588 0.949 . S
H581 C589 0.950 . S
H582 C590 0.951 . S
H583 C591 0.951 . S
C584 C578 1.265 . S
C584 H579 0.950 . S
C584 C585 1.478 . S
C585 C572 1.394 . S
C585 C584 1.478 . S
C585 C586 1.397 . S
C586 C585 1.397 . S
C586 C587 1.438 . S
C586 C591 1.429 . S
C587 C570 1.394 . S
C587 C586 1.438 . S
C587 C588 1.428 1_655 S
C588 H580 0.949 . S
C588 C587 1.428 1_455 S
C588 C589 1.345 . S
C589 H581 0.950 . S
C589 C588 1.345 . S
C589 C590 1.424 . S
C590 H582 0.951 . S
C590 C589 1.424 . S
C590 C591 1.347 1_455 S
C591 H583 0.951 . S
C591 C586 1.429 . S
C591 C590 1.347 1_655 S
C113 C67 1.582 . S
C128 C11 1.568 . S
C143 C25 1.573 . S
C158 C81 1.584 . S
C173 C39 1.575 . S
C188 C95 1.585 . S
C203 C109 1.598 . S
C218 C53 1.591 . S
C233 C0 1.451 . S
C248 C28 1.453 . S
C263 C14 1.374 . S
C278 C42 1.373 . S
C293 C93 1.330 . S
C308 C65 1.318 . S
C323 C79 1.399 . S
C338 C107 1.396 . S
C353 C75 0.983 . S
C368 C9 1.038 . S
C383 C23 1.000 . S
C398 C89 1.046 . S
C413 C37 1.014 . S
C428 C103 0.986 . S
C443 C61 0.987 . S
C458 C51 1.012 . S
C473 C56 1.062 . S
C488 C19 1.017 . S
C503 C70 1.075 . S
C518 C33 1.048 . S
C533 C84 1.074 . S
C548 C47 1.032 . S
C563 C5 1.015 . S
C578 C98 1.058 . S
