# Generated by pormake.
# Topology dft, (4)-cn, num edge types: 1
# Building blocks:
#     Node 0, Type 0, BuildingBlock: AZAVOO_clean_sbu_0, # of connection points: 4
#     Node 1, Type 0, BuildingBlock: AZAVOO_clean_sbu_0, # of connection points: 4
#     Node 2, Type 0, BuildingBlock: AZAVOO_clean_sbu_0, # of connection points: 4
#     Node 3, Type 0, BuildingBlock: AZAVOO_clean_sbu_0, # of connection points: 4
#     Node 4, Type 0, BuildingBlock: AZAVOO_clean_sbu_0, # of connection points: 4
#     Node 5, Type 0, BuildingBlock: AZAVOO_clean_sbu_0, # of connection points: 4
#     Node 6, Type 0, BuildingBlock: AZAVOO_clean_sbu_0, # of connection points: 4
#     Node 7, Type 0, BuildingBlock: AZAVOO_clean_sbu_0, # of connection points: 4
#     Edge 8, Type (0, 0), BuildingBlock: MIFKUJ_clean_linker_0, # of connection points: 2
#     Edge 9, Type (0, 0), BuildingBlock: MIFKUJ_clean_linker_0, # of connection points: 2
#     Edge 10, Type (0, 0), BuildingBlock: MIFKUJ_clean_linker_0, # of connection points: 2
#     Edge 11, Type (0, 0), BuildingBlock: MIFKUJ_clean_linker_0, # of connection points: 2
#     Edge 12, Type (0, 0), BuildingBlock: MIFKUJ_clean_linker_0, # of connection points: 2
#     Edge 13, Type (0, 0), BuildingBlock: MIFKUJ_clean_linker_0, # of connection points: 2
#     Edge 14, Type (0, 0), BuildingBlock: MIFKUJ_clean_linker_0, # of connection points: 2
#     Edge 15, Type (0, 0), BuildingBlock: MIFKUJ_clean_linker_0, # of connection points: 2
#     Edge 16, Type (0, 0), BuildingBlock: MIFKUJ_clean_linker_0, # of connection points: 2
#     Edge 17, Type (0, 0), BuildingBlock: MIFKUJ_clean_linker_0, # of connection points: 2
#     Edge 18, Type (0, 0), BuildingBlock: MIFKUJ_clean_linker_0, # of connection points: 2
#     Edge 19, Type (0, 0), BuildingBlock: MIFKUJ_clean_linker_0, # of connection points: 2
#     Edge 20, Type (0, 0), BuildingBlock: MIFKUJ_clean_linker_0, # of connection points: 2
#     Edge 21, Type (0, 0), BuildingBlock: MIFKUJ_clean_linker_0, # of connection points: 2
#     Edge 22, Type (0, 0), BuildingBlock: MIFKUJ_clean_linker_0, # of connection points: 2
#     Edge 23, Type (0, 0), BuildingBlock: MIFKUJ_clean_linker_0, # of connection points: 2
# Relax obj value: 0.185
# Max RMSD: 0.167
# Mean RMSD: 0.161
data_MOF--net-dft--node1-AZAVOO_clean_sbu_0--edge1-MIFKUJ_clean_linker_0
_symmetry_space_group_name_H-M    P1
_symmetry_Int_Tables_number       1
_symmetry_cell_setting            triclinic
loop_
_symmetry_equiv_pos_as_xyz
'x, y, z'
_cell_length_a     44.732039
_cell_length_b     44.598029
_cell_length_c     48.734563
_cell_angle_alpha  90.029294
_cell_angle_beta   90.069096
_cell_angle_gamma 89.983174
loop_
_atom_site_label
_atom_site_type_symbol
_atom_site_fract_x
_atom_site_fract_y
_atom_site_fract_z
_atom_type_partial_charge
Mg0 Mg 0.29529 0.00969 0.18596 0.0
O1 O 0.29069 0.0015 0.13939 0.0
O2 O 0.24182 -0.0018 0.13034 0.0
Mg3 Mg 0.21537 0.00407 0.16982 0.0
C4 C 0.26904 -0.00195 0.12253 0.0
C5 C 0.36044 0.01118 0.20185 0.0
O6 O 0.34654 -0.00122 0.22271 0.0
O7 O 0.28116 0.05861 0.1798 0.0
O8 O 0.23228 0.05255 0.17146 0.0
O9 O 0.29427 0.96047 0.19529 0.0
O10 O 0.25427 0.98926 0.19344 0.0
C11 C 0.25522 0.06928 0.17465 0.0
C12 C 0.26552 0.96304 0.19715 0.0
O13 O 0.34499 0.01993 0.18144 0.0
Mg14 Mg 0.96504 0.32271 0.69163 0.0
O15 O 0.01223 0.30338 0.69773 0.0
O16 O 0.04439 0.33218 0.67452 0.0
Mg17 Mg 0.01791 0.36963 0.65387 0.0
C18 C 0.03879 0.30988 0.69011 0.0
C19 C 0.9241 0.30163 0.73907 0.0
O20 O 0.9141 0.32908 0.73563 0.0
O21 O 0.97632 0.35951 0.72217 0.0
O22 O 0.00779 0.38724 0.69722 0.0
O23 O 0.95919 0.29546 0.65376 0.0
O24 O 0.97784 0.34135 0.65438 0.0
C25 C 0.99355 0.3821 0.71947 0.0
C26 C 0.97134 0.31754 0.64065 0.0
O27 O 0.94639 0.29285 0.72505 0.0
Mg28 Mg 0.74587 0.04705 0.19487 0.0
O29 O 0.74792 0.04675 0.14797 0.0
O30 O 0.79536 0.05115 0.13451 0.0
Mg31 Mg 0.82411 0.054 0.17318 0.0
C32 C 0.7676 0.04828 0.12911 0.0
C33 C 0.6819 0.02374 0.21208 0.0
O34 O 0.69537 0.01987 0.23579 0.0
O35 O 0.76278 -0.00153 0.19568 0.0
O36 O 0.81052 0.00587 0.18377 0.0
O37 O 0.74463 0.0974 0.19619 0.0
O38 O 0.78605 0.07064 0.19725 0.0
C39 C 0.78914 0.98858 0.19097 0.0
C40 C 0.77355 0.09659 0.19707 0.0
O41 O 0.69691 0.03332 0.19178 0.0
Mg42 Mg 0.0657 0.71206 0.7393 0.0
O43 O 0.01795 0.72831 0.73298 0.0
O44 O 0.99728 0.7078 0.69576 0.0
Mg45 Mg 0.03255 0.67502 0.67947 0.0
C46 C 0.99602 0.72528 0.71647 0.0
C47 C 0.07639 0.75411 0.79274 0.0
O48 O 0.0696 0.7622 0.8179 0.0
O49 O 0.04756 0.66839 0.75646 0.0
O50 O 0.0271 0.64782 0.71911 0.0
O51 O 0.08098 0.74807 0.70994 0.0
O52 O 0.06885 0.70197 0.69778 0.0
C53 C 0.03297 0.64739 0.74478 0.0
C54 C 0.07643 0.72862 0.69065 0.0
O55 O 0.06354 0.73134 0.78252 0.0
Mg56 Mg 0.28913 0.0511 0.77139 0.0
O57 O 0.28348 0.04826 0.81831 0.0
O58 O 0.23459 0.04931 0.82752 0.0
Mg59 Mg 0.20904 0.05339 0.78724 0.0
C60 C 0.26178 0.04754 0.83532 0.0
C61 C 0.35269 0.02837 0.75576 0.0
O62 O 0.33867 0.0239 0.7324 0.0
O63 O 0.27479 0.00185 0.76739 0.0
O64 O 0.22598 0.00664 0.77645 0.0
O65 O 0.28848 0.10151 0.77232 0.0
O66 O 0.24838 0.07327 0.76757 0.0
C67 C 0.24867 0.99066 0.77018 0.0
C68 C 0.25973 0.09964 0.76979 0.0
O69 O 0.33816 0.03867 0.77606 0.0
Mg70 Mg 0.04617 0.3364 0.30333 0.0
O71 O 0.00179 0.31575 0.28882 0.0
O72 O 0.96452 0.34058 0.30919 0.0
Mg73 Mg 0.9848 0.3765 0.33684 0.0
C74 C 0.97394 0.3202 0.29296 0.0
C75 C 0.09675 0.31986 0.26194 0.0
O76 O 0.10686 0.34591 0.27045 0.0
O77 O 0.03883 0.37692 0.27557 0.0
O78 O 0.00236 0.40046 0.29843 0.0
O79 O 0.04705 0.30561 0.33941 0.0
O80 O 0.02645 0.35062 0.33968 0.0
C81 C 0.02069 0.39884 0.27838 0.0
C82 C 0.03216 0.32603 0.35244 0.0
O83 O 0.07153 0.31069 0.27053 0.0
Mg84 Mg 0.7358 0.97976 0.78526 0.0
O85 O 0.73557 0.9735 0.83204 0.0
O86 O 0.78284 0.9668 0.84583 0.0
Mg87 Mg 0.81321 0.96933 0.80836 0.0
C88 C 0.75495 0.9692 0.85093 0.0
C89 C 0.67156 0.98825 0.76516 0.0
O90 O 0.68447 0.9747 0.74436 0.0
O91 O 0.75268 0.02747 0.79219 0.0
O92 O 0.79997 0.01886 0.80495 0.0
O93 O 0.73366 0.93015 0.77726 0.0
O94 O 0.77542 0.95592 0.7826 0.0
C95 C 0.77845 0.03681 0.79964 0.0
C96 C 0.76253 0.93046 0.77896 0.0
O97 O 0.68719 0.99457 0.78617 0.0
Mg98 Mg 0.00454 0.74 0.3552 0.0
O99 O 0.0468 0.7642 0.33997 0.0
O100 O 0.08659 0.742 0.35892 0.0
Mg101 Mg 0.07003 0.70338 0.38537 0.0
C102 C 0.07506 0.76186 0.34331 0.0
C103 C 0.94859 0.75804 0.32161 0.0
O104 O 0.93738 0.73746 0.3379 0.0
O105 O 0.01447 0.70179 0.32562 0.0
O106 O 0.05478 0.68093 0.34515 0.0
O107 O 0.00264 0.76937 0.39231 0.0
O108 O 0.02683 0.72625 0.39046 0.0
C109 C 0.03535 0.68229 0.32593 0.0
C110 C 0.01978 0.74989 0.40419 0.0
O111 O 0.97631 0.7641 0.32323 0.0
H112 H 0.22912 0.98679 0.08147 0.0
H113 H 0.23719 0.99037 0.03234 0.0
H114 H 0.33063 0.00914 0.04605 0.0
H115 H 0.32259 0.00621 0.09574 0.0
H116 H 0.30741 0.04837 0.01099 0.0
H117 H 0.30886 0.9426 0.01656 0.0
H118 H 0.2927 0.89205 0.03059 0.0
H119 H 0.20948 0.90413 0.98801 0.0
H120 H 0.22493 0.95494 0.97405 0.0
H121 H 0.31617 0.04739 0.86184 0.0
H122 H 0.32589 0.03526 0.91014 0.0
H123 H 0.23143 0.023 0.92354 0.0
H124 H 0.22144 0.03519 0.87571 0.0
H125 H 0.26672 0.97567 0.94355 0.0
H126 H 0.26382 0.08486 0.94529 0.0
H127 H 0.28087 0.13522 0.93149 0.0
H128 H 0.36941 0.11494 0.96015 0.0
H129 H 0.35294 0.06427 0.97379 0.0
C130 C 0.25153 0.99128 0.07417 0.0
C131 C 0.27518 0.99632 0.09266 0.0
C132 C 0.25616 0.99313 0.04595 0.0
C133 C 0.28459 -0.00028 0.03543 0.0
C134 C 0.30851 0.00394 0.05372 0.0
C135 C 0.3039 0.00211 0.08211 0.0
C136 C 0.28833 0.00438 0.00545 0.0
C137 C 0.29923 0.03213 0.9962 0.0
C138 C 0.27747 0.98333 0.9861 0.0
C139 C 0.26804 0.95269 0.99436 0.0
C140 C 0.28703 0.93458 0.01033 0.0
C141 C 0.278 0.90585 0.01826 0.0
C142 C 0.25007 0.8949 0.01022 0.0
C143 C 0.23112 0.91264 0.99421 0.0
C144 C 0.24003 0.94139 0.98624 0.0
C145 C 0.29745 0.04233 0.87512 0.0
C146 C 0.26801 0.04229 0.86484 0.0
C147 C 0.30307 0.03539 0.90269 0.0
C148 C 0.27937 0.02813 0.92033 0.0
C149 C 0.25003 0.02838 0.9102 0.0
C150 C 0.24438 0.03555 0.88284 0.0
C151 C 0.2847 0.01996 0.94939 0.0
C152 C 0.27555 0.99153 0.95837 0.0
C153 C 0.2974 0.04025 0.96841 0.0
C154 C 0.30726 0.07067 0.96021 0.0
C155 C 0.28699 0.09104 0.9484 0.0
C156 C 0.29653 0.11966 0.94067 0.0
C157 C 0.32623 0.12824 0.94485 0.0
C158 C 0.34643 0.10824 0.95686 0.0
C159 C 0.337 0.07958 0.9646 0.0
H160 H 0.33358 0.15041 0.93886 0.0
H161 H 0.24312 0.87266 0.01638 0.0
H162 H 0.98423 0.36324 0.60558 0.0
H163 H 0.99258 0.36009 0.55606 0.0
H164 H 0.98219 0.26405 0.55931 0.0
H165 H 0.9733 0.267 0.60892 0.0
H166 H 0.03359 0.28724 0.52735 0.0
H167 H 0.92679 0.29768 0.53655 0.0
H168 H 0.88071 0.32124 0.55401 0.0
H169 H 0.90507 0.4044 0.51571 0.0
H170 H 0.95154 0.38144 0.49836 0.0
H171 H 0.03089 0.27383 0.38202 0.0
H172 H 0.01806 0.26792 0.43055 0.0
H173 H 0.00051 0.36291 0.43631 0.0
H174 H 0.01207 0.36867 0.38777 0.0
H175 H 0.96078 0.33512 0.46416 0.0
H176 H 0.06801 0.32907 0.4585 0.0
H177 H 0.11643 0.30919 0.44254 0.0
H178 H 0.09451 0.22256 0.47523 0.0
H179 H 0.04578 0.24185 0.49109 0.0
C180 C 0.98391 0.34142 0.59581 0.0
C181 C 0.97803 0.31536 0.61107 0.0
C182 C 0.98859 0.33969 0.56755 0.0
C183 C 0.98779 0.31187 0.55414 0.0
C184 C 0.98282 0.2857 0.56939 0.0
C185 C 0.97767 0.28745 0.59764 0.0
C186 C 0.99156 0.31041 0.52406 0.0
C187 C 0.01748 0.2972 0.5134 0.0
C188 C 0.97082 0.32411 0.50613 0.0
C189 C 0.94277 0.3379 0.51636 0.0
C190 C 0.92244 0.32106 0.53204 0.0
C191 C 0.89623 0.33429 0.54188 0.0
C192 C 0.89 0.36432 0.53602 0.0
C193 C 0.90994 0.38115 0.52025 0.0
C194 C 0.9362 0.36802 0.51038 0.0
C195 C 0.02401 0.29336 0.39362 0.0
C196 C 0.02255 0.32172 0.38113 0.0
C197 C 0.01687 0.29001 0.42139 0.0
C198 C 0.00883 0.31507 0.43725 0.0
C199 C 0.00663 0.34323 0.42455 0.0
C200 C 0.01329 0.3465 0.39677 0.0
C201 C 0.00321 0.31237 0.46719 0.0
C202 C 0.97686 0.32482 0.47793 0.0
C203 C 0.02387 0.29845 0.48523 0.0
C204 C 0.05312 0.2868 0.47568 0.0
C205 C 0.07343 0.30572 0.46208 0.0
C206 C 0.10094 0.29457 0.45309 0.0
C207 C 0.1085 0.26461 0.45778 0.0
C208 C 0.08859 0.24575 0.47155 0.0
C209 C 0.06104 0.25678 0.48056 0.0
H210 H 0.12981 0.25602 0.45081 0.0
H211 H 0.86969 0.37453 0.54366 0.0
H212 H 0.78426 0.94769 0.89595 0.0
H213 H 0.77411 0.95991 0.94392 0.0
H214 H 0.69537 0.00903 0.91964 0.0
H215 H 0.70513 0.99659 0.87154 0.0
H216 H 0.73622 0.04263 0.95062 0.0
H217 H 0.6848 0.9495 0.95629 0.0
H218 H 0.67743 0.89516 0.94997 0.0
H219 H 0.75281 0.87713 0.00203 0.0
H220 H 0.76094 0.93139 0.00835 0.0
H221 H 0.71367 0.02799 0.11006 0.0
H222 H 0.7004 0.01552 0.06271 0.0
H223 H 0.78693 0.04591 0.03549 0.0
H224 H 0.8005 0.05834 0.08271 0.0
H225 H 0.72957 0.97395 0.03043 0.0
H226 H 0.77871 0.07527 0.97054 0.0
H227 H 0.78517 0.12981 0.97636 0.0
H228 H 0.7112 0.13205 0.0324 0.0
H229 H 0.70393 0.07763 0.02654 0.0
C230 C 0.76437 0.96046 0.90086 0.0
C231 C 0.74559 0.9713 0.87995 0.0
C232 C 0.75857 0.96736 0.92828 0.0
C233 C 0.73404 0.98542 0.93526 0.0
C234 C 0.71439 0.99503 0.91461 0.0
C235 C 0.71993 0.98775 0.88718 0.0
C236 C 0.73104 0.99679 0.96365 0.0
C237 C 0.73445 0.02769 0.96811 0.0
C238 C 0.72839 0.97725 0.98633 0.0
C239 C 0.72358 0.94456 0.98266 0.0
C240 C 0.69996 0.93397 0.96623 0.0
C241 C 0.69561 0.90317 0.96268 0.0
C242 C 0.71466 0.88271 0.97556 0.0
C243 C 0.73807 0.89301 0.99206 0.0
C244 C 0.74253 0.92379 0.99567 0.0
C245 C 0.72974 0.03248 0.09397 0.0
C246 C 0.75823 0.04406 0.1002 0.0
C247 C 0.72213 0.02522 0.06694 0.0
C248 C 0.74264 0.02987 0.04564 0.0
C249 C 0.77066 0.04242 0.05163 0.0
C250 C 0.77842 0.0494 0.07865 0.0
C251 C 0.73577 0.01969 0.0174 0.0
C252 C 0.73074 0.98899 0.01297 0.0
C253 C 0.73688 0.03944 0.99473 0.0
C254 C 0.74094 0.07227 0.99826 0.0
C255 C 0.76372 0.0874 0.98401 0.0
C256 C 0.76754 0.11831 0.98733 0.0
C257 C 0.74867 0.13437 0.00481 0.0
C258 C 0.72588 0.11957 0.01894 0.0
C259 C 0.72192 0.08867 0.01566 0.0
H260 H 0.75167 0.15829 0.00736 0.0
H261 H 0.71126 0.85887 0.97279 0.0
H262 H 0.04885 0.70927 0.43629 0.0
H263 H 0.06089 0.71362 0.48495 0.0
H264 H 0.02626 0.80383 0.48588 0.0
H265 H 0.01389 0.79965 0.43691 0.0
H266 H 0.08237 0.79315 0.51814 0.0
H267 H 0.9816 0.75775 0.50799 0.0
H268 H 0.94182 0.72581 0.48865 0.0
H269 H 0.986 0.6473 0.51962 0.0
H270 H 0.02633 0.67876 0.53877 0.0
H271 H 0.06957 0.78452 0.66737 0.0
H272 H 0.06238 0.79561 0.61834 0.0
H273 H 0.07558 0.70207 0.59912 0.0
H274 H 0.08216 0.69093 0.6476 0.0
H275 H 0.02572 0.72206 0.5766 0.0
H276 H 0.12807 0.7565 0.58405 0.0
H277 H 0.16874 0.78775 0.60278 0.0
H278 H 0.12248 0.86739 0.57725 0.0
H279 H 0.08132 0.83659 0.55867 0.0
C280 C 0.04424 0.73026 0.44663 0.0
C281 C 0.03024 0.75406 0.43276 0.0
C282 C 0.05112 0.73268 0.47447 0.0
C283 C 0.04428 0.75897 0.48898 0.0
C284 C 0.03175 0.78339 0.47497 0.0
C285 C 0.02458 0.7809 0.44706 0.0
C286 C 0.04788 0.75951 0.51918 0.0
C287 C 0.06969 0.77802 0.53109 0.0
C288 C 0.03144 0.7396 0.53591 0.0
C289 C 0.00711 0.7206 0.52461 0.0
C290 C 0.98297 0.73366 0.51047 0.0
C291 C 0.9603 0.71564 0.49958 0.0
C292 C 0.96142 0.68454 0.50285 0.0
C293 C 0.98518 0.67139 0.51708 0.0
C294 C 0.00793 0.68931 0.52798 0.0
C295 C 0.07139 0.7665 0.65256 0.0
C296 C 0.07611 0.73682 0.66128 0.0
C297 C 0.0673 0.77284 0.62459 0.0
C298 C 0.06828 0.74962 0.60506 0.0
C299 C 0.0744 0.7203 0.6138 0.0
C300 C 0.07821 0.71396 0.64155 0.0
C301 C 0.06108 0.75489 0.57569 0.0
C302 C 0.03829 0.73751 0.56386 0.0
C303 C 0.07671 0.77578 0.55919 0.0
C304 C 0.10146 0.79426 0.57028 0.0
C305 C 0.12645 0.78068 0.58265 0.0
C306 C 0.14961 0.79831 0.59319 0.0
C307 C 0.14815 0.82954 0.59129 0.0
C308 C 0.12355 0.8432 0.57876 0.0
C309 C 0.10031 0.82567 0.56821 0.0
H310 H 0.16611 0.84315 0.59947 0.0
H311 H 0.94384 0.67063 0.49441 0.0
H312 H 0.39726 0.03247 0.16117 0.0
H313 H 0.45203 0.0345 0.16158 0.0
H314 H 0.45291 0.99671 0.24304 0.0
H315 H 0.39845 0.99496 0.24295 0.0
H316 H 0.49112 0.04264 0.23932 0.0
H317 H 0.46875 0.95385 0.18675 0.0
H318 H 0.4453 0.92523 0.14915 0.0
H319 H 0.4909 0.9797 0.08985 0.0
H320 H 0.51434 0.00891 0.12713 0.0
H321 H 0.64304 0.00207 0.25065 0.0
H322 H 0.58856 -0.00077 0.24753 0.0
H323 H 0.59199 0.03443 0.16515 0.0
H324 H 0.64647 0.03666 0.16785 0.0
H325 H 0.55157 0.99111 0.1682 0.0
H326 H 0.57442 0.07953 0.22036 0.0
H327 H 0.59779 0.10859 0.25773 0.0
H328 H 0.55105 0.05566 0.31745 0.0
H329 H 0.5277 0.02601 0.28043 0.0
C330 C 0.40913 0.0247 0.17919 0.0
C331 C 0.39348 0.0135 0.202 0.0
C332 C 0.44043 0.02573 0.17935 0.0
C333 C 0.45657 0.01546 0.20225 0.0
C334 C 0.44094 0.00474 0.22515 0.0
C335 C 0.40976 0.0037 0.22502 0.0
C336 C 0.48977 0.01583 0.20258 0.0
C337 C 0.50433 0.03109 0.22394 0.0
C338 C 0.50703 0.00137 0.18214 0.0
C339 C 0.49304 0.98377 0.15972 0.0
C340 C 0.47359 0.95988 0.16569 0.0
C341 C 0.46034 0.94352 0.14444 0.0
C342 C 0.46654 0.9507 0.11713 0.0
C343 C 0.48608 0.9742 0.11101 0.0
C344 C 0.49937 0.99065 0.13219 0.0
C345 C 0.63223 0.00899 0.23179 0.0
C346 C 0.64911 0.01981 0.20959 0.0
C347 C 0.60106 0.0075 0.23008 0.0
C348 C 0.58613 0.01717 0.20628 0.0
C349 C 0.60299 0.02697 0.18375 0.0
C350 C 0.63416 0.02828 0.18537 0.0
C351 C 0.55293 0.01773 0.20509 0.0
C352 C 0.53837 0.00271 0.18356 0.0
C353 C 0.53563 0.03249 0.22533 0.0
C354 C 0.54954 0.05038 0.24763 0.0
C355 C 0.56929 0.07395 0.24147 0.0
C356 C 0.58251 0.09055 0.26259 0.0
C357 C 0.57597 0.08392 0.28995 0.0
C358 C 0.55613 0.06074 0.29625 0.0
C359 C 0.54287 0.04405 0.27521 0.0
H360 H 0.58623 0.0968 0.30627 0.0
H361 H 0.45626 0.93801 0.1007 0.0
H362 H 0.03566 0.42552 0.72444 0.0
H363 H 0.03806 0.46515 0.75807 0.0
H364 H 0.96256 0.42722 0.80093 0.0
H365 H 0.95956 0.38726 0.76636 0.0
H366 H 0.95172 0.48209 0.79261 0.0
H367 H 0.03063 0.43958 0.83732 0.0
H368 H 0.07629 0.41024 0.84624 0.0
H369 H 0.12826 0.47406 0.80084 0.0
H370 H 0.08297 0.50354 0.79117 0.0
H371 H 0.04584 0.63356 0.79865 0.0
H372 H 0.03117 0.58813 0.82367 0.0
H373 H 0.98244 0.55763 0.7524 0.0
H374 H 0.99621 0.60255 0.72789 0.0
H375 H 0.0469 0.53433 0.81344 0.0
H376 H 0.9277 0.51635 0.76209 0.0
H377 H 0.88131 0.54556 0.75733 0.0
H378 H 0.90764 0.60185 0.82461 0.0
H379 H 0.95403 0.57268 0.83019 0.0
C380 C 0.0198 0.42517 0.74122 0.0
C381 C 0.99709 0.40352 0.74241 0.0
C382 C 0.02153 0.44767 0.76087 0.0
C383 C 0.0008 0.44904 0.78247 0.0
C384 C 0.97898 0.4265 0.78463 0.0
C385 C 0.97723 0.40377 0.76481 0.0
C386 C 0.99914 0.47705 0.79887 0.0
C387 C 0.97237 0.49344 0.79784 0.0
C388 C 0.02554 0.49142 0.80804 0.0
C389 C 0.05324 0.47398 0.81372 0.0
C390 C 0.05177 0.44737 0.82915 0.0
C391 C 0.07762 0.43067 0.83433 0.0
C392 C 0.10517 0.44033 0.82418 0.0
C393 C 0.10692 0.46669 0.8088 0.0
C394 C 0.08114 0.48348 0.80356 0.0
C395 C 0.0315 0.61736 0.78858 0.0
C396 C 0.02248 0.62152 0.76115 0.0
C397 C 0.02305 0.59151 0.80296 0.0
C398 C 0.00519 0.56965 0.7902 0.0
C399 C 0.99539 0.57447 0.76316 0.0
C400 C 0.00376 0.60008 0.7489 0.0
C401 C 0.00053 0.53961 0.80253 0.0
C402 C 0.02597 0.52286 0.80954 0.0
C403 C 0.97269 0.52483 0.79984 0.0
C404 C 0.9444 0.54209 0.79671 0.0
C405 C 0.9235 0.53466 0.77617 0.0
C406 C 0.89721 0.55132 0.77323 0.0
C407 C 0.89151 0.57551 0.79068 0.0
C408 C 0.91209 0.5831 0.81111 0.0
C409 C 0.93841 0.56652 0.81415 0.0
H410 H 0.87116 0.5884 0.78834 0.0
H411 H 0.12515 0.42736 0.8282 0.0
H412 H 0.63712 0.01328 0.80564 0.0
H413 H 0.58302 0.02148 0.805 0.0
H414 H 0.57847 0.98532 0.72298 0.0
H415 H 0.63247 0.9774 0.72329 0.0
H416 H 0.54472 0.03526 0.72798 0.0
H417 H 0.55884 0.94301 0.77805 0.0
H418 H 0.57988 0.91128 0.81473 0.0
H419 H 0.54032 0.96827 0.87576 0.0
H420 H 0.51936 0.00059 0.83942 0.0
H421 H 0.39026 0.00594 0.71658 0.0
H422 H 0.44448 0.00019 0.71938 0.0
H423 H 0.44336 0.03432 0.80221 0.0
H424 H 0.38903 0.03963 0.79978 0.0
H425 H 0.48018 0.98743 0.79819 0.0
H426 H 0.46478 0.07887 0.74881 0.0
H427 H 0.44395 0.11132 0.71257 0.0
H428 H 0.48612 0.05715 0.65088 0.0
H429 H 0.50689 0.02411 0.68675 0.0
C430 C 0.62463 0.00721 0.78741 0.0
C431 C 0.63908 0.99455 0.76456 0.0
C432 C 0.5937 0.01179 0.78713 0.0
C433 C 0.57669 0.00366 0.76406 0.0
C434 C 0.59117 0.9917 0.74101 0.0
C435 C 0.62205 0.98712 0.74126 0.0
C436 C 0.54373 0.00724 0.76394 0.0
C437 C 0.53057 0.02454 0.74315 0.0
C438 C 0.52537 0.99389 0.78417 0.0
C439 C 0.5378 0.97438 0.80602 0.0
C440 C 0.55482 0.9489 0.7993 0.0
C441 C 0.5667 0.93079 0.82002 0.0
C442 C 0.56152 0.9378 0.84756 0.0
C443 C 0.54436 0.9629 0.85442 0.0
C444 C 0.53245 0.9811 0.83377 0.0
C445 C 0.4015 0.0121 0.73545 0.0
C446 C 0.38533 0.02341 0.7579 0.0
C447 C 0.43253 0.00894 0.73696 0.0
C448 C 0.44803 0.0173 0.76085 0.0
C449 C 0.43187 0.02784 0.78355 0.0
C450 C 0.40082 0.03091 0.78209 0.0
C451 C 0.48111 0.01523 0.76206 0.0
C452 C 0.49432 -0.00175 0.78307 0.0
C453 C 0.49954 0.02898 0.74209 0.0
C454 C 0.48715 0.04885 0.72046 0.0
C455 C 0.46942 0.07374 0.72751 0.0
C456 C 0.45766 0.09226 0.70703 0.0
C457 C 0.46365 0.08626 0.67944 0.0
C458 C 0.48148 0.06175 0.67227 0.0
C459 C 0.49327 0.04313 0.69266 0.0
H460 H 0.45452 0.10063 0.66362 0.0
H461 H 0.57074 0.92376 0.86358 0.0
H462 H 0.97787 0.44026 0.26703 0.0
H463 H 0.98662 0.49131 0.25162 0.0
H464 H 0.07879 0.46955 0.23479 0.0
H465 H 0.07014 0.41815 0.25046 0.0
H466 H 0.07361 0.50943 0.27473 0.0
H467 H 0.03584 0.50306 0.18478 0.0
H468 H 0.00158 0.48845 0.14747 0.0
H469 H 0.9312 0.54006 0.18428 0.0
H470 H 0.96485 0.55464 0.22206 0.0
H471 H 0.08484 0.66166 0.2999 0.0
H472 H 0.08825 0.61791 0.26974 0.0
H473 H 0.99254 0.60661 0.27449 0.0
H474 H 0.98897 0.65158 0.30314 0.0
H475 H 0.01147 0.58541 0.22707 0.0
H476 H 0.04221 0.57421 0.32258 0.0
H477 H 0.07293 0.58605 0.36326 0.0
H478 H 0.1526 0.56391 0.31851 0.0
H479 H 0.1223 0.55227 0.27746 0.0
C480 C 0.99972 0.44599 0.25902 0.0
C481 C 0.02351 0.42548 0.26058 0.0
C482 C 0.00465 0.47519 0.2499 0.0
C483 C 0.03345 0.48438 0.24222 0.0
C484 C 0.05639 0.46291 0.24063 0.0
C485 C 0.05141 0.43353 0.2496 0.0
C486 C 0.04068 0.51681 0.24312 0.0
C487 C 0.06082 0.52609 0.2635 0.0
C488 C 0.0234 0.53851 0.22908 0.0
C489 C 0.00295 0.52994 0.20633 0.0
C490 C 0.01301 0.51117 0.18504 0.0
C491 C 0.99369 0.50291 0.16377 0.0
C492 C 0.96423 0.51332 0.1635 0.0
C493 C 0.95404 0.53205 0.18449 0.0
C494 C 0.97327 0.54039 0.20581 0.0
C495 C 0.0645 0.65025 0.29383 0.0
C496 C 0.0367 0.65949 0.30414 0.0
C497 C 0.06645 0.6253 0.27663 0.0
C498 C 0.04077 0.60842 0.27053 0.0
C499 C 0.0127 0.61916 0.27899 0.0
C500 C 0.01065 0.64473 0.2955 0.0
C501 C 0.04339 0.57753 0.25938 0.0
C502 C 0.0251 0.56872 0.23734 0.0
C503 C 0.06188 0.5559 0.27226 0.0
C504 C 0.08008 0.56279 0.2969 0.0
C505 C 0.0663 0.57205 0.3214 0.0
C506 C 0.08362 0.57871 0.34451 0.0
C507 C 0.11471 0.57584 0.34344 0.0
C508 C 0.12852 0.56621 0.31928 0.0
C509 C 0.1113 0.55959 0.29609 0.0
H510 H 0.12808 0.581 0.36135 0.0
H511 H 0.94931 0.50689 0.14703 0.0
H512 H 0.15198 0.33169 0.24001 0.0
H513 H 0.1867 0.29553 0.21941 0.0
H514 H 0.12082 0.22568 0.22836 0.0
H515 H 0.08601 0.26144 0.24861 0.0
H516 H 0.17689 0.21225 0.2519 0.0
H517 H 0.13418 0.25057 0.16744 0.0
H518 H 0.12165 0.29016 0.13404 0.0
H519 H 0.21476 0.31145 0.1252 0.0
H520 H 0.2278 0.27222 0.15887 0.0
H521 H 0.21289 0.10012 0.14645 0.0
H522 H 0.19604 0.15117 0.15541 0.0
H523 H 0.2685 0.16343 0.2128 0.0
H524 H 0.28562 0.11208 0.20381 0.0
H525 H 0.21667 0.2108 0.15688 0.0
H526 H 0.23478 0.19092 0.27097 0.0
H527 H 0.24428 0.14945 0.30341 0.0
H528 H 0.19515 0.08915 0.2515 0.0
H529 H 0.18506 0.13035 0.21901 0.0
C530 C 0.14473 0.30872 0.23719 0.0
C531 C 0.1163 0.29939 0.24615 0.0
C532 C 0.16459 0.28814 0.22542 0.0
C533 C 0.15634 0.25796 0.22261 0.0
C534 C 0.12762 0.24888 0.23055 0.0
C535 C 0.10772 0.2694 0.24203 0.0
C536 C 0.17799 0.23518 0.21301 0.0
C537 C 0.1859 0.21218 0.23123 0.0
C538 C 0.18978 0.23518 0.18611 0.0
C539 C 0.18193 0.25875 0.16593 0.0
C540 C 0.15196 0.26391 0.15859 0.0
C541 C 0.14477 0.28623 0.13956 0.0
C542 C 0.16739 0.30338 0.12758 0.0
C543 C 0.19726 0.29819 0.13455 0.0
C544 C 0.20456 0.27591 0.15359 0.0
C545 C 0.22579 0.11398 0.16036 0.0
C546 C 0.25025 0.10201 0.1748 0.0
C547 C 0.21627 0.14325 0.1653 0.0
C548 C 0.23078 0.1609 0.18502 0.0
C549 C 0.25694 0.15005 0.19757 0.0
C550 C 0.26671 0.12075 0.1924 0.0
C551 C 0.21528 0.1878 0.19572 0.0
C552 C 0.20842 0.21147 0.17779 0.0
C553 C 0.20411 0.18839 0.22286 0.0
C554 C 0.20953 0.16359 0.24246 0.0
C555 C 0.22597 0.16881 0.26656 0.0
C556 C 0.23144 0.14537 0.28494 0.0
C557 C 0.22042 0.11666 0.27946 0.0
C558 C 0.20377 0.11136 0.25567 0.0
C559 C 0.19818 0.13474 0.23727 0.0
H560 H 0.22473 0.09853 0.29369 0.0
H561 H 0.16178 0.32064 0.11284 0.0
H562 H 0.9346 0.24166 0.74419 0.0
H563 H 0.90062 0.20397 0.76253 0.0
H564 H 0.83947 0.27334 0.78787 0.0
H565 H 0.8733 0.31153 0.76923 0.0
H566 H 0.84849 0.21902 0.82608 0.0
H567 H 0.81913 0.24801 0.7349 0.0
H568 H 0.8288 0.26078 0.68649 0.0
H569 H 0.8656 0.1731 0.67286 0.0
H570 H 0.85659 0.15999 0.72133 0.0
H571 H 0.74498 0.08314 0.77868 0.0
H572 H 0.75885 0.13629 0.77709 0.0
H573 H 0.83926 0.11686 0.82272 0.0
H574 H 0.82556 0.06418 0.82464 0.0
H575 H 0.80715 0.15597 0.75111 0.0
H576 H 0.86302 0.17646 0.85809 0.0
H577 H 0.85351 0.16384 0.90654 0.0
H578 H 0.75994 0.15354 0.88925 0.0
H579 H 0.76877 0.16655 0.84078 0.0
C580 C 0.91425 0.24907 0.75414 0.0
C581 C 0.90643 0.27959 0.75487 0.0
C582 C 0.89489 0.22747 0.76464 0.0
C583 C 0.86751 0.23598 0.77622 0.0
C584 C 0.86056 0.26647 0.77894 0.0
C585 C 0.87987 0.28818 0.76822 0.0
C586 C 0.84514 0.21266 0.78245 0.0
C587 C 0.83909 0.20532 0.80983 0.0
C588 C 0.83234 0.19551 0.76107 0.0
C589 C 0.83734 0.2031 0.73178 0.0
C590 C 0.82947 0.23153 0.72163 0.0
C591 C 0.83481 0.23882 0.69417 0.0
C592 C 0.84785 0.21778 0.67662 0.0
C593 C 0.8555 0.18938 0.68648 0.0
C594 C 0.85025 0.18199 0.71393 0.0
C595 C 0.76529 0.09033 0.78886 0.0
C596 C 0.78437 0.06938 0.80146 0.0
C597 C 0.77315 0.12069 0.78796 0.0
C598 C 0.79997 0.13057 0.79996 0.0
C599 C 0.81821 0.10989 0.81373 0.0
C600 C 0.81049 0.07966 0.81452 0.0
C601 C 0.81131 0.16127 0.79492 0.0
C602 C 0.81559 0.17001 0.76757 0.0
C603 C 0.82216 0.17974 0.81641 0.0
C604 C 0.81661 0.17238 0.8457 0.0
C605 C 0.84037 0.17173 0.86463 0.0
C606 C 0.83511 0.16445 0.89211 0.0
C607 C 0.80615 0.15784 0.90096 0.0
C608 C 0.78238 0.15858 0.88236 0.0
C609 C 0.78751 0.16587 0.85486 0.0
H610 H 0.80213 0.15217 0.92223 0.0
H611 H 0.85198 0.22347 0.65537 0.0
H612 H 0.8876 0.75512 0.31744 0.0
H613 H 0.8548 0.78788 0.29072 0.0
H614 H 0.93189 0.83331 0.25765 0.0
H615 H 0.96478 0.80105 0.28461 0.0
H616 H 0.89344 0.87218 0.27795 0.0
H617 H 0.88787 0.78691 0.21815 0.0
H618 H 0.87881 0.73412 0.20562 0.0
H619 H 0.78729 0.7422 0.23105 0.0
H620 H 0.79592 0.79496 0.2441 0.0
H621 H 0.83749 0.95771 0.17257 0.0
H622 H 0.85709 0.91087 0.19083 0.0
H623 H 0.77844 0.90054 0.2409 0.0
H624 H 0.75851 0.94797 0.22287 0.0
H625 H 0.81264 0.84263 0.21344 0.0
H626 H 0.82094 0.92837 0.27574 0.0
H627 H 0.83121 0.98176 0.28504 0.0
H628 H 0.9197 0.97189 0.25216 0.0
H629 H 0.90971 0.91852 0.24225 0.0
C630 C 0.8976 0.77185 0.30422 0.0
C631 C 0.92881 0.77566 0.30334 0.0
C632 C 0.87879 0.79046 0.28884 0.0
C633 C 0.89088 0.81302 0.27214 0.0
C634 C 0.92207 0.81611 0.27048 0.0
C635 C 0.94085 0.79763 0.2859 0.0
C636 C 0.87123 0.83507 0.25816 0.0
C637 C 0.87593 0.86556 0.26375 0.0
C638 C 0.84784 0.82654 0.24011 0.0
C639 C 0.84264 0.79479 0.23241 0.0
C640 C 0.86589 0.77735 0.22133 0.0
C641 C 0.86082 0.74745 0.21407 0.0
C642 C 0.83252 0.73478 0.21762 0.0
C643 C 0.80921 0.75203 0.22837 0.0
C644 C 0.81418 0.78194 0.23568 0.0
C645 C 0.82389 0.94517 0.18692 0.0
C646 C 0.79671 0.95688 0.19671 0.0
C647 C 0.83508 0.91829 0.19718 0.0
C648 C 0.8193 0.90251 0.21732 0.0
C649 C 0.79081 0.91245 0.22524 0.0
C650 C 0.77953 0.93956 0.21497 0.0
C651 C 0.83522 0.87931 0.23325 0.0
C652 C 0.82992 0.84888 0.22799 0.0
C653 C 0.85821 0.8877 0.25161 0.0
C654 C 0.86447 0.91959 0.25802 0.0
C655 C 0.84248 0.93767 0.27029 0.0
C656 C 0.84827 0.9679 0.2757 0.0
C657 C 0.87607 0.98023 0.26913 0.0
C658 C 0.89816 0.96232 0.25721 0.0
C659 C 0.89246 0.93208 0.25171 0.0
H660 H 0.8805 0.00364 0.27333 0.0
H661 H 0.82863 0.71164 0.21197 0.0
H662 H 0.12018 0.73401 0.75806 0.0
H663 H 0.16013 0.76434 0.73703 0.0
H664 H 0.1211 0.84424 0.77188 0.0
H665 H 0.08177 0.81423 0.7929 0.0
H666 H 0.1419 0.85242 0.71784 0.0
H667 H 0.17431 0.80752 0.80682 0.0
H668 H 0.18662 0.76339 0.83523 0.0
H669 H 0.25008 0.73414 0.7748 0.0
H670 H 0.23787 0.77802 0.74594 0.0
H671 H 0.20711 0.95661 0.79515 0.0
H672 H 0.19112 0.90636 0.78267 0.0
H673 H 0.26124 0.90101 0.72225 0.0
H674 H 0.27766 0.95212 0.73477 0.0
H675 H 0.23867 0.84436 0.76717 0.0
H676 H 0.21563 0.90308 0.68685 0.0
H677 H 0.20207 0.95009 0.66326 0.0
H678 H 0.12002 0.95418 0.70875 0.0
H679 H 0.13331 0.90745 0.73291 0.0
C680 C 0.11993 0.75814 0.76062 0.0
C681 C 0.09802 0.77194 0.77699 0.0
C682 C 0.14269 0.77535 0.74869 0.0
C683 C 0.14347 0.8065 0.75286 0.0
C684 C 0.12074 0.82027 0.76818 0.0
C685 C 0.09841 0.80313 0.78033 0.0
C686 C 0.16919 0.82508 0.74425 0.0
C687 C 0.16347 0.85024 0.72784 0.0
C688 C 0.19757 0.82186 0.75676 0.0
C689 C 0.20497 0.79574 0.77416 0.0
C690 C 0.19076 0.79156 0.79957 0.0
C691 C 0.19773 0.76663 0.81574 0.0
C692 C 0.21906 0.74592 0.80678 0.0
C693 C 0.23352 0.75016 0.78167 0.0
C694 C 0.22659 0.77503 0.76541 0.0
C695 C 0.21954 0.94465 0.77952 0.0
C696 C 0.24338 0.95838 0.76567 0.0
C697 C 0.21044 0.9159 0.7725 0.0
C698 C 0.22484 0.90025 0.75141 0.0
C699 C 0.24992 0.91291 0.73859 0.0
C700 C 0.25926 0.94195 0.74578 0.0
C701 C 0.21076 0.87224 0.74179 0.0
C702 C 0.21821 0.8455 0.75523 0.0
C703 C 0.18396 0.87394 0.72647 0.0
C704 C 0.17551 0.90177 0.71168 0.0
C705 C 0.19477 0.91409 0.69191 0.0
C706 C 0.18712 0.94068 0.67843 0.0
C707 C 0.1602 0.95511 0.6845 0.0
C708 C 0.14084 0.94295 0.70403 0.0
C709 C 0.1484 0.91638 0.71758 0.0
H710 H 0.15433 0.97571 0.67406 0.0
H711 H 0.22443 0.72664 0.81933 0.0
H712 H 0.7517 0.88301 0.74504 0.0
H713 H 0.78691 0.84275 0.73317 0.0
H714 H 0.84887 0.87614 0.79385 0.0
H715 H 0.81405 0.91612 0.80552 0.0
H716 H 0.87447 0.87198 0.74455 0.0
H717 H 0.81225 0.80916 0.80162 0.0
H718 H 0.76497 0.78552 0.81599 0.0
H719 H 0.75709 0.74288 0.7373 0.0
H720 H 0.80416 0.7666 0.72233 0.0
H721 H 0.98645 0.76545 0.75772 0.0
H722 H 0.94206 0.79548 0.76619 0.0
H723 H 0.89848 0.7554 0.69625 0.0
H724 H 0.9431 0.72478 0.68753 0.0
H725 H 0.86082 0.76159 0.74337 0.0
H726 H 0.92495 0.82175 0.68764 0.0
H727 H 0.97272 0.84477 0.67381 0.0
H728 H 0.97672 0.89265 0.75018 0.0
H729 H 0.92919 0.86956 0.76467 0.0
C730 C 0.77256 0.88122 0.75624 0.0
C731 C 0.78051 0.903 0.77577 0.0
C732 C 0.79264 0.85828 0.74944 0.0
C733 C 0.82066 0.85668 0.76243 0.0
C734 C 0.82757 0.87724 0.78329 0.0
C735 C 0.80771 0.90018 0.78986 0.0
C736 C 0.84406 0.83562 0.75284 0.0
C737 C 0.87152 0.84783 0.74455 0.0
C738 C 0.83981 0.8042 0.75176 0.0
C739 C 0.81154 0.78994 0.76075 0.0
C740 C 0.8003 0.79497 0.78729 0.0
C741 C 0.77357 0.7815 0.79557 0.0
C742 C 0.75798 0.76279 0.77754 0.0
C743 C 0.76915 0.75743 0.75122 0.0
C744 C 0.79587 0.77086 0.74284 0.0
C745 C 0.96749 0.76281 0.74409 0.0
C746 C 0.96849 0.74283 0.72176 0.0
C747 C 0.9421 0.78004 0.74901 0.0
C748 C 0.91716 0.77784 0.73168 0.0
C749 C 0.91758 0.75739 0.70981 0.0
C750 C 0.94313 0.74007 0.7048 0.0
C751 C 0.89137 0.79804 0.73611 0.0
C752 C 0.86354 0.78576 0.74317 0.0
C753 C 0.89515 0.8295 0.73608 0.0
C754 C 0.92359 0.84375 0.72731 0.0
C755 C 0.93611 0.83704 0.70157 0.0
C756 C 0.96314 0.85012 0.6936 0.0
C757 C 0.97777 0.87012 0.71112 0.0
C758 C 0.96536 0.87714 0.73663 0.0
C759 C 0.93836 0.86409 0.74472 0.0
H760 H 0.9987 0.88022 0.70492 0.0
H761 H 0.7373 0.75238 0.78398 0.0
H762 H 0.20454 0.96152 0.19999 0.0
H763 H 0.17354 0.9228 0.22063 0.0
H764 H 0.25176 0.86841 0.23479 0.0
H765 H 0.28315 0.90717 0.21389 0.0
H766 H 0.16299 0.86189 0.21179 0.0
H767 H 0.24436 0.8403 0.30069 0.0
H768 H 0.28602 0.86531 0.32481 0.0
H769 H 0.24917 0.95142 0.3045 0.0
H770 H 0.20712 0.92691 0.28061 0.0
H771 H 0.13583 0.75775 0.33883 0.0
H772 H 0.16889 0.7878 0.31019 0.0
H773 H 0.09365 0.84069 0.28314 0.0
H774 H 0.06019 0.81017 0.31122 0.0
H775 H 0.18323 0.84439 0.31065 0.0
H776 H 0.1041 0.86447 0.21789 0.0
H777 H 0.06286 0.83877 0.19383 0.0
H778 H 0.09574 0.75358 0.22168 0.0
H779 H 0.13739 0.77872 0.24557 0.0
C780 C 0.21519 0.94109 0.20685 0.0
C781 C 0.24639 0.93754 0.20538 0.0
C782 C 0.19736 0.91892 0.21865 0.0
C783 C 0.2104 0.89295 0.22952 0.0
C784 C 0.24133 0.88848 0.22672 0.0
C785 C 0.2592 0.9106 0.2147 0.0
C786 C 0.1919 0.87206 0.24589 0.0
C787 C 0.16727 0.85811 0.23344 0.0
C788 C 0.19789 0.86675 0.27398 0.0
C789 C 0.22284 0.88176 0.28858 0.0
C790 C 0.24514 0.86457 0.30144 0.0
C791 C 0.26881 0.87865 0.31507 0.0
C792 C 0.27031 0.90993 0.31609 0.0
C793 C 0.24806 0.9272 0.30359 0.0
C794 C 0.22432 0.91322 0.28998 0.0
C795 C 0.12624 0.77582 0.32687 0.0
C796 C 0.09528 0.78147 0.32728 0.0
C797 C 0.14522 0.79298 0.31047 0.0
C798 C 0.13373 0.81619 0.29417 0.0
C799 C 0.10295 0.82243 0.29506 0.0
C800 C 0.08387 0.80511 0.3113 0.0
C801 C 0.15407 0.83418 0.27665 0.0
C802 C 0.17904 0.84774 0.28893 0.0
C803 C 0.14846 0.83893 0.24837 0.0
C804 C 0.1237 0.82354 0.23374 0.0
C805 C 0.1026 0.84025 0.21878 0.0
C806 C 0.07914 0.82578 0.20519 0.0
C807 C 0.07663 0.79457 0.2063 0.0
C808 C 0.09764 0.77776 0.22092 0.0
C809 C 0.12116 0.79211 0.23452 0.0
H810 H 0.05843 0.78341 0.19578 0.0
H811 H 0.28866 0.92079 0.32663 0.0
H812 H 0.09829 0.32392 0.68897 0.0
H813 H 0.13989 0.29483 0.70748 0.0
H814 H 0.07846 0.22574 0.73313 0.0
H815 H 0.0366 0.25514 0.71542 0.0
H816 H 0.11797 0.23567 0.77205 0.0
H817 H 0.12259 0.2199 0.67393 0.0
H818 H 0.12614 0.23553 0.6255 0.0
H819 H 0.21015 0.27854 0.64197 0.0
H820 H 0.2069 0.26345 0.6906 0.0
H821 H 0.19878 0.10176 0.77104 0.0
H822 H 0.16669 0.14477 0.76394 0.0
H823 H 0.244 0.20192 0.75668 0.0
H824 H 0.27678 0.15849 0.76448 0.0
H825 H 0.20302 0.20615 0.71262 0.0
H826 H 0.20117 0.21263 0.80993 0.0
H827 H 0.197 0.19385 0.85733 0.0
H828 H 0.10694 0.1653 0.84158 0.0
H829 H 0.1107 0.18348 0.79394 0.0
C830 C 0.0936 0.30247 0.69845 0.0
C831 C 0.0641 0.29176 0.70055 0.0
C832 C 0.11745 0.28586 0.70901 0.0
C833 C 0.11237 0.25794 0.72143 0.0
C834 C 0.08293 0.24727 0.72368 0.0
C835 C 0.05902 0.26403 0.71342 0.0
C836 C 0.13761 0.23957 0.73187 0.0
C837 C 0.13649 0.2291 0.75901 0.0
C838 C 0.16235 0.23183 0.71516 0.0
C839 C 0.16432 0.24088 0.68595 0.0
C840 C 0.1417 0.23289 0.66726 0.0
C841 C 0.14368 0.24161 0.63977 0.0
C842 C 0.16831 0.2581 0.63069 0.0
C843 C 0.19106 0.26582 0.64905 0.0
C844 C 0.18917 0.25719 0.67657 0.0
C845 C 0.20918 0.12342 0.76868 0.0
C846 C 0.24044 0.12659 0.76856 0.0
C847 C 0.19068 0.14811 0.7646 0.0
C848 C 0.20295 0.17655 0.76002 0.0
C849 C 0.23414 0.18012 0.76037 0.0
C850 C 0.25278 0.15533 0.7649 0.0
C851 C 0.18282 0.20156 0.75247 0.0
C852 C 0.18486 0.21328 0.72585 0.0
C853 C 0.15876 0.21016 0.76954 0.0
C854 C 0.15629 0.19933 0.79827 0.0
C855 C 0.18054 0.20216 0.8165 0.0
C856 C 0.17824 0.19165 0.84343 0.0
C857 C 0.15174 0.17836 0.85245 0.0
C858 C 0.12746 0.17561 0.83456 0.0
C859 C 0.12965 0.18607 0.8076 0.0
H860 H 0.15 0.17023 0.87331 0.0
H861 H 0.16981 0.26483 0.6094 0.0
H862 H 0.98385 0.26773 0.26519 0.0
H863 H 0.94682 0.23546 0.24321 0.0
H864 H 0.87691 0.29744 0.2657 0.0
H865 H 0.91367 0.32938 0.28845 0.0
H866 H 0.85992 0.24335 0.27691 0.0
H867 H 0.902 0.28993 0.19796 0.0
H868 H 0.94204 0.30715 0.16702 0.0
H869 H 0.97001 0.2161 0.15427 0.0
H870 H 0.93039 0.19834 0.18543 0.0
H871 H 0.75427 0.15463 0.20332 0.0
H872 H 0.78515 0.19877 0.21335 0.0
H873 H 0.86475 0.14474 0.20638 0.0
H874 H 0.83438 0.10087 0.1967 0.0
H875 H 0.87205 0.20091 0.18346 0.0
H876 H 0.83458 0.15629 0.26776 0.0
H877 H 0.79482 0.13915 0.29907 0.0
H878 H 0.75795 0.22805 0.3011 0.0
H879 H 0.79732 0.24561 0.26949 0.0
C880 C 0.96063 0.27461 0.26531 0.0
C881 C 0.95175 0.30112 0.27864 0.0
C882 C 0.93947 0.25622 0.25256 0.0
C883 C 0.90908 0.26422 0.25242 0.0
C884 C 0.90021 0.29081 0.26549 0.0
C885 C 0.92129 0.30905 0.27849 0.0
C886 C 0.8864 0.24401 0.23996 0.0
C887 C 0.86225 0.23465 0.25623 0.0
C888 C 0.88956 0.23227 0.21311 0.0
C889 C 0.91332 0.24283 0.19419 0.0
C890 C 0.91681 0.27359 0.1887 0.0
C891 C 0.93941 0.28345 0.1711 0.0
C892 C 0.95859 0.26274 0.15873 0.0
C893 C 0.95514 0.23212 0.16387 0.0
C894 C 0.93258 0.22214 0.18148 0.0
C895 C 0.77837 0.1523 0.20342 0.0
C896 C 0.79182 0.12416 0.19922 0.0
C897 C 0.79596 0.17751 0.20921 0.0
C898 C 0.82722 0.17493 0.21079 0.0
C899 C 0.84069 0.14725 0.20515 0.0
C900 C 0.8232 0.12211 0.1996 0.0
C901 C 0.84605 0.2001 0.22058 0.0
C902 C 0.86948 0.21025 0.20388 0.0
C903 C 0.84221 0.21269 0.24698 0.0
C904 C 0.81863 0.20216 0.26601 0.0
C905 C 0.81784 0.17211 0.27471 0.0
C906 C 0.79541 0.16234 0.29254 0.0
C907 C 0.77381 0.18247 0.30199 0.0
C908 C 0.77466 0.21246 0.2937 0.0
C909 C 0.79702 0.22233 0.27584 0.0
H910 H 0.75647 0.17487 0.3158 0.0
H911 H 0.97608 0.27042 0.14511 0.0
loop_
_geom_bond_atom_site_label_1
_geom_bond_atom_site_label_2
_geom_bond_distance
_geom_bond_site_symmetry_2
_ccdc_geom_bond_type
Mg0 O1 2.028 . S
Mg0 O7 1.986 . S
Mg0 O9 2.114 1_545 S
Mg0 O10 2.251 1_545 S
Mg0 O13 2.010 . S
O1 Mg0 2.028 . S
O1 C4 1.250 . S
O2 Mg3 2.028 . S
O2 C4 1.248 . S
Mg3 O2 2.028 . S
Mg3 O8 2.032 . S
Mg3 O10 2.079 1_545 S
C4 O1 1.250 . S
C4 O2 1.248 . S
C5 O6 1.264 . S
C5 O13 1.249 . S
O6 C5 1.264 . S
O7 Mg0 1.986 . S
O7 C11 1.246 . S
O8 Mg3 2.032 . S
O8 C11 1.259 . S
O9 Mg0 2.114 1_565 S
O9 C12 1.252 . S
O10 Mg0 2.251 1_565 S
O10 Mg3 2.079 1_565 S
O10 C12 1.273 . S
C11 O7 1.246 . S
C11 O8 1.259 . S
C12 O9 1.252 . S
C12 O10 1.273 . S
O13 Mg0 2.010 . S
O13 C5 1.249 . S
Mg14 O15 2.028 1_655 S
Mg14 O21 1.986 1_655 S
Mg14 O23 2.114 . S
Mg14 O24 2.251 1_655 S
Mg14 O27 2.010 . S
O15 Mg14 2.028 1_455 S
O15 C18 1.250 . S
O16 Mg17 2.028 . S
O16 C18 1.248 . S
Mg17 O16 2.028 . S
Mg17 O22 2.032 . S
Mg17 O24 2.079 . S
C18 O15 1.250 . S
C18 O16 1.248 . S
C19 O20 1.264 . S
C19 O27 1.249 . S
O20 C19 1.264 . S
O21 Mg14 1.986 1_455 S
O21 C25 1.246 . S
O22 Mg17 2.032 . S
O22 C25 1.259 . S
O23 Mg14 2.114 . S
O23 C26 1.235 1_655 S
O24 Mg14 2.251 1_455 S
O24 Mg17 2.079 . S
O24 C26 1.273 . S
C25 O21 1.246 . S
C25 O22 1.259 . S
C26 O23 1.235 1_455 S
C26 O24 1.273 . S
O27 Mg14 2.010 . S
O27 C19 1.249 . S
Mg28 O29 2.028 . S
Mg28 O35 1.986 1_545 S
Mg28 O37 2.114 . S
Mg28 O38 2.251 . S
Mg28 O41 2.010 . S
O29 Mg28 2.028 . S
O29 C32 1.250 . S
O30 Mg31 2.028 . S
O30 C32 1.248 . S
Mg31 O30 2.028 . S
Mg31 O36 2.032 1_545 S
Mg31 O38 2.079 . S
C32 O29 1.250 . S
C32 O30 1.248 . S
C33 O34 1.264 . S
C33 O41 1.249 . S
O34 C33 1.264 . S
O35 Mg28 1.986 1_565 S
O35 C39 1.246 . S
O36 Mg31 2.032 1_565 S
O36 C39 1.259 . S
O37 Mg28 2.114 . S
O37 C40 1.252 . S
O38 Mg28 2.251 . S
O38 Mg31 2.079 . S
O38 C40 1.273 . S
C39 O35 1.246 . S
C39 O36 1.259 . S
C40 O37 1.252 . S
C40 O38 1.273 . S
O41 Mg28 2.010 . S
O41 C33 1.249 . S
Mg42 O43 2.028 . S
Mg42 O49 1.986 . S
Mg42 O51 2.114 . S
Mg42 O52 2.251 . S
Mg42 O55 2.010 . S
O43 Mg42 2.028 . S
O43 C46 1.250 1_455 S
O44 Mg45 2.028 . S
O44 C46 1.248 . S
Mg45 O44 2.028 . S
Mg45 O50 2.032 . S
Mg45 O52 2.079 1_655 S
C46 O43 1.250 1_655 S
C46 O44 1.248 . S
C47 O48 1.264 . S
C47 O55 1.249 . S
O48 C47 1.264 . S
O49 Mg42 1.986 . S
O49 C53 1.246 . S
O50 Mg45 2.032 . S
O50 C53 1.259 1_655 S
O51 Mg42 2.114 . S
O51 C54 1.252 . S
O52 Mg42 2.251 . S
O52 Mg45 2.079 1_455 S
O52 C54 1.273 . S
C53 O49 1.246 . S
C53 O50 1.259 1_455 S
C54 O51 1.252 . S
C54 O52 1.273 . S
O55 Mg42 2.010 . S
O55 C47 1.249 . S
Mg56 O57 2.028 . S
Mg56 O63 1.986 1_545 S
Mg56 O65 2.114 . S
Mg56 O66 2.251 . S
Mg56 O69 2.010 . S
O57 Mg56 2.028 . S
O57 C60 1.250 . S
O58 Mg59 2.028 . S
O58 C60 1.248 . S
Mg59 O58 2.028 . S
Mg59 O64 2.032 1_545 S
Mg59 O66 2.079 . S
C60 O57 1.250 . S
C60 O58 1.248 . S
C61 O62 1.264 . S
C61 O69 1.249 . S
O62 C61 1.264 . S
O63 Mg56 1.986 1_565 S
O63 C67 1.246 . S
O64 Mg59 2.032 1_565 S
O64 C67 1.259 . S
O65 Mg56 2.114 . S
O65 C68 1.252 . S
O66 Mg56 2.251 . S
O66 Mg59 2.079 . S
O66 C68 1.273 . S
C67 O63 1.246 . S
C67 O64 1.259 . S
C68 O65 1.252 . S
C68 O66 1.273 . S
O69 Mg56 2.010 . S
O69 C61 1.249 . S
Mg70 O71 2.028 . S
Mg70 O77 1.986 . S
Mg70 O79 2.114 . S
Mg70 O80 2.251 . S
Mg70 O83 2.010 . S
O71 Mg70 2.028 . S
O71 C74 1.250 1_455 S
O72 Mg73 2.028 . S
O72 C74 1.248 . S
Mg73 O72 2.028 . S
Mg73 O78 2.032 . S
Mg73 O80 2.079 1_655 S
C74 O71 1.250 1_655 S
C74 O72 1.248 . S
C75 O76 1.264 . S
C75 O83 1.249 . S
O76 C75 1.264 . S
O77 Mg70 1.986 . S
O77 C81 1.246 . S
O78 Mg73 2.032 . S
O78 C81 1.259 1_655 S
O79 Mg70 2.114 . S
O79 C82 1.252 . S
O80 Mg70 2.251 . S
O80 Mg73 2.079 1_455 S
O80 C82 1.273 . S
C81 O77 1.246 . S
C81 O78 1.259 1_455 S
C82 O79 1.252 . S
C82 O80 1.273 . S
O83 Mg70 2.010 . S
O83 C75 1.249 . S
Mg84 O85 2.028 . S
Mg84 O91 1.986 . S
Mg84 O93 2.114 1_545 S
Mg84 O94 2.251 1_545 S
Mg84 O97 2.010 . S
O85 Mg84 2.028 . S
O85 C88 1.250 . S
O86 Mg87 2.028 . S
O86 C88 1.248 . S
Mg87 O86 2.028 . S
Mg87 O92 2.032 . S
Mg87 O94 2.079 1_545 S
C88 O85 1.250 . S
C88 O86 1.248 . S
C89 O90 1.264 . S
C89 O97 1.249 . S
O90 C89 1.264 . S
O91 Mg84 1.986 . S
O91 C95 1.246 . S
O92 Mg87 2.032 . S
O92 C95 1.259 . S
O93 Mg84 2.114 1_565 S
O93 C96 1.252 . S
O94 Mg84 2.251 1_565 S
O94 Mg87 2.079 1_565 S
O94 C96 1.273 . S
C95 O91 1.246 . S
C95 O92 1.259 . S
C96 O93 1.252 . S
C96 O94 1.273 . S
O97 Mg84 2.010 . S
O97 C89 1.249 . S
Mg98 O99 2.028 1_655 S
Mg98 O105 1.986 1_655 S
Mg98 O107 2.114 . S
Mg98 O108 2.251 1_655 S
Mg98 O111 2.010 . S
O99 Mg98 2.028 1_455 S
O99 C102 1.250 . S
O100 Mg101 2.028 . S
O100 C102 1.248 . S
Mg101 O100 2.028 . S
Mg101 O106 2.032 . S
Mg101 O108 2.079 . S
C102 O99 1.250 . S
C102 O100 1.248 . S
C103 O104 1.264 . S
C103 O111 1.249 . S
O104 C103 1.264 . S
O105 Mg98 1.986 1_455 S
O105 C109 1.246 . S
O106 Mg101 2.032 . S
O106 C109 1.259 . S
O107 Mg98 2.114 . S
O107 C110 1.236 1_655 S
O108 Mg98 2.251 1_455 S
O108 Mg101 2.079 . S
O108 C110 1.273 . S
C109 O105 1.246 . S
C109 O106 1.259 . S
C110 O107 1.236 1_455 S
C110 O108 1.273 . S
O111 Mg98 2.010 . S
O111 C103 1.249 . S
H112 C130 0.951 . S
H113 C132 0.951 . S
H114 C134 0.950 . S
H115 C135 0.950 . S
H116 C137 0.950 . S
H117 C140 0.950 . S
H118 C141 0.950 . S
H119 C143 0.950 . S
H120 C144 0.950 . S
H121 C145 0.951 . S
H122 C147 0.951 . S
H123 C149 0.950 . S
H124 C150 0.950 . S
H125 C152 0.950 1_565 S
H126 C155 0.950 . S
H127 C156 0.950 . S
H128 C158 0.950 . S
H129 C159 0.950 . S
C130 H112 0.951 . S
C130 C131 1.366 . S
C130 C132 1.388 . S
C131 C130 1.366 . S
C131 C135 1.385 . S
C132 H113 0.951 . S
C132 C130 1.388 . S
C132 C133 1.366 . S
C133 C132 1.366 . S
C133 C134 1.414 . S
C133 C136 1.499 . S
C134 H114 0.950 . S
C134 C133 1.414 . S
C134 C135 1.374 . S
C135 H115 0.950 . S
C135 C131 1.385 . S
C135 C134 1.374 . S
C136 C133 1.499 . S
C136 C137 1.373 . S
C136 C138 1.389 . S
C137 H116 0.950 . S
C137 C136 1.373 . S
C137 C153 1.377 1_554 S
C138 C136 1.389 . S
C138 C139 1.524 1_545 S
C138 C152 1.377 1_554 S
C139 C138 1.524 1_565 S
C139 C140 1.397 . S
C139 C144 1.363 . S
C140 H117 0.950 . S
C140 C139 1.397 . S
C140 C141 1.334 . S
C141 H118 0.950 . S
C141 C140 1.334 . S
C141 C142 1.287 . S
C142 C141 1.287 . S
C142 C143 1.524 . S
C142 H161 0.913 . S
C143 H119 0.950 . S
C143 C142 1.524 . S
C143 C144 1.415 . S
C144 H120 0.950 . S
C144 C139 1.363 . S
C144 C143 1.415 . S
C145 H121 0.951 . S
C145 C146 1.366 . S
C145 C147 1.388 . S
C146 C145 1.366 . S
C146 C150 1.385 . S
C147 H122 0.951 . S
C147 C145 1.388 . S
C147 C148 1.366 . S
C148 C147 1.366 . S
C148 C149 1.414 . S
C148 C151 1.499 . S
C149 H123 0.950 . S
C149 C148 1.414 . S
C149 C150 1.374 . S
C150 H124 0.950 . S
C150 C146 1.385 . S
C150 C149 1.374 . S
C151 C148 1.499 . S
C151 C152 1.373 . S
C151 C153 1.389 . S
C152 H125 0.950 1_545 S
C152 C138 1.377 1_556 S
C152 C151 1.373 . S
C153 C137 1.377 1_556 S
C153 C151 1.389 . S
C153 C154 1.524 . S
C154 C153 1.524 . S
C154 C155 1.397 . S
C154 C159 1.363 . S
C155 H126 0.950 . S
C155 C154 1.397 . S
C155 C156 1.334 . S
C156 H127 0.950 . S
C156 C155 1.334 . S
C156 C157 1.287 . S
C157 C156 1.287 . S
C157 C158 1.524 . S
C157 H160 0.999 . S
C158 H128 0.950 . S
C158 C157 1.524 . S
C158 C159 1.415 . S
C159 H129 0.950 . S
C159 C154 1.363 . S
C159 C158 1.415 . S
H160 C157 0.999 . S
H161 C142 0.913 . S
H162 C180 0.951 . S
H163 C182 0.951 . S
H164 C184 0.950 1_655 S
H165 C185 0.950 1_655 S
H166 C187 0.950 . S
H167 C190 0.950 . S
H168 C191 0.950 . S
H169 C193 0.950 . S
H170 C194 0.950 1_455 S
H171 C195 0.951 1_655 S
H172 C197 0.938 1_655 S
H173 C199 0.950 . S
H174 C200 0.950 . S
H175 C202 0.950 . S
H176 C205 0.950 . S
H177 C206 0.950 . S
H178 C208 0.950 . S
H179 C209 0.950 . S
C180 H162 0.951 . S
C180 C181 1.366 . S
C180 C182 1.388 . S
C181 C180 1.366 . S
C181 C185 1.385 . S
C182 H163 0.951 . S
C182 C180 1.388 . S
C182 C183 1.366 . S
C183 C182 1.366 . S
C183 C184 1.414 . S
C183 C186 1.499 . S
C184 H164 0.950 1_455 S
C184 C183 1.414 . S
C184 C185 1.374 . S
C185 H165 0.950 1_455 S
C185 C181 1.385 . S
C185 C184 1.374 . S
C186 C183 1.499 . S
C186 C187 1.373 . S
C186 C188 1.389 . S
C187 H166 0.950 . S
C187 C186 1.373 . S
C187 C203 1.377 . S
C188 C186 1.389 . S
C188 C189 1.524 1_455 S
C188 C202 1.377 . S
C189 C188 1.524 1_655 S
C189 C190 1.397 . S
C189 C194 1.363 . S
C190 H167 0.950 . S
C190 C189 1.397 . S
C190 C191 1.334 . S
C191 H168 0.950 . S
C191 C190 1.334 . S
C191 C192 1.287 . S
C192 C191 1.287 . S
C192 C193 1.524 . S
C192 H211 0.913 . S
C193 H169 0.950 . S
C193 C192 1.524 . S
C193 C194 1.415 . S
C194 H170 0.950 1_655 S
C194 C189 1.363 . S
C194 C193 1.415 . S
C195 H171 0.951 1_455 S
C195 C196 1.366 . S
C195 C197 1.388 . S
C196 C195 1.366 . S
C196 C200 1.385 . S
C197 H172 0.938 1_455 S
C197 C195 1.388 . S
C197 C198 1.366 . S
C198 C197 1.366 . S
C198 C199 1.414 . S
C198 C201 1.499 . S
C199 H173 0.950 . S
C199 C198 1.414 . S
C199 C200 1.374 . S
C200 H174 0.950 . S
C200 C196 1.385 . S
C200 C199 1.374 . S
C201 C198 1.499 . S
C201 C202 1.373 . S
C201 C203 1.389 . S
C202 H175 0.950 . S
C202 C188 1.377 . S
C202 C201 1.373 . S
C203 C187 1.377 . S
C203 C201 1.389 . S
C203 C204 1.524 . S
C204 C203 1.524 . S
C204 C205 1.397 . S
C204 C209 1.363 . S
C205 H176 0.950 . S
C205 C204 1.397 . S
C205 C206 1.334 . S
C206 H177 0.950 . S
C206 C205 1.334 . S
C206 C207 1.287 . S
C207 C206 1.287 . S
C207 C208 1.524 . S
C207 H210 0.999 . S
C208 H178 0.950 . S
C208 C207 1.524 . S
C208 C209 1.415 . S
C209 H179 0.950 . S
C209 C204 1.363 . S
C209 C208 1.415 . S
H210 C207 0.999 . S
H211 C192 0.913 . S
H212 C230 0.951 . S
H213 C232 0.951 . S
H214 C234 0.950 . S
H215 C235 0.950 . S
H216 C237 0.950 . S
H217 C240 0.981 . S
H218 C241 0.950 . S
H219 C243 0.950 . S
H220 C244 0.950 . S
H221 C245 0.951 . S
H222 C247 0.951 . S
H223 C249 0.950 1_565 S
H224 C250 0.950 1_565 S
H225 C252 0.950 1_565 S
H226 C255 0.950 . S
H227 C256 0.950 . S
H228 C258 0.950 . S
H229 C259 0.950 . S
C230 H212 0.951 . S
C230 C231 1.366 1_565 S
C230 C232 1.388 . S
C231 C230 1.366 1_545 S
C231 C235 1.385 . S
C232 H213 0.951 . S
C232 C230 1.388 . S
C232 C233 1.366 1_565 S
C233 C232 1.366 1_545 S
C233 C234 1.414 . S
C233 C236 1.499 . S
C234 H214 0.950 . S
C234 C233 1.414 . S
C234 C235 1.374 . S
C235 H215 0.950 . S
C235 C231 1.385 . S
C235 C234 1.374 . S
C236 C233 1.499 . S
C236 C237 1.373 . S
C236 C238 1.389 . S
C237 H216 0.950 . S
C237 C236 1.373 . S
C237 C253 1.377 1_556 S
C238 C236 1.389 . S
C238 C239 1.524 1_545 S
C238 C252 1.377 1_556 S
C239 C238 1.524 1_565 S
C239 C240 1.397 . S
C239 C244 1.363 . S
C240 H217 0.981 . S
C240 C239 1.397 . S
C240 C241 1.334 . S
C241 H218 0.950 . S
C241 C240 1.334 . S
C241 C242 1.287 . S
C242 C241 1.287 . S
C242 C243 1.524 . S
C242 H261 0.913 . S
C243 H219 0.950 . S
C243 C242 1.524 . S
C243 C244 1.415 . S
C244 H220 0.950 . S
C244 C239 1.363 . S
C244 C243 1.415 . S
C245 H221 0.951 . S
C245 C246 1.366 . S
C245 C247 1.388 . S
C246 C245 1.366 . S
C246 C250 1.385 . S
C247 H222 0.951 . S
C247 C245 1.388 . S
C247 C248 1.366 . S
C248 C247 1.366 . S
C248 C249 1.414 . S
C248 C251 1.499 . S
C249 H223 0.950 1_545 S
C249 C248 1.414 . S
C249 C250 1.374 . S
C250 H224 0.950 1_545 S
C250 C246 1.385 . S
C250 C249 1.374 . S
C251 C248 1.499 . S
C251 C252 1.373 . S
C251 C253 1.389 . S
C252 H225 0.950 1_545 S
C252 C238 1.377 1_554 S
C252 C251 1.373 . S
C253 C237 1.377 1_554 S
C253 C251 1.389 . S
C253 C254 1.524 . S
C254 C253 1.524 . S
C254 C255 1.397 . S
C254 C259 1.363 . S
C255 H226 0.950 . S
C255 C254 1.397 . S
C255 C256 1.334 . S
C256 H227 0.950 . S
C256 C255 1.334 . S
C256 C257 1.287 . S
C257 C256 1.287 . S
C257 C258 1.524 . S
C257 H260 0.999 . S
C258 H228 0.950 . S
C258 C257 1.524 . S
C258 C259 1.415 . S
C259 H229 0.950 . S
C259 C254 1.363 . S
C259 C258 1.415 . S
H260 C257 0.999 . S
H261 C242 0.913 . S
H262 C280 0.951 . S
H263 C282 0.958 . S
H264 C284 0.950 . S
H265 C285 0.950 . S
H266 C287 0.950 . S
H267 C290 0.950 . S
H268 C291 0.950 . S
H269 C293 0.950 . S
H270 C294 0.950 . S
H271 C295 0.951 . S
H272 C297 0.951 . S
H273 C299 0.950 . S
H274 C300 0.962 . S
H275 C302 0.950 . S
H276 C305 0.950 . S
H277 C306 0.950 . S
H278 C308 0.950 . S
H279 C309 0.950 . S
C280 H262 0.951 . S
C280 C281 1.366 . S
C280 C282 1.388 . S
C281 C280 1.366 . S
C281 C285 1.385 . S
C282 H263 0.958 . S
C282 C280 1.388 . S
C282 C283 1.366 . S
C283 C282 1.366 . S
C283 C284 1.414 . S
C283 C286 1.499 . S
C284 H264 0.950 . S
C284 C283 1.414 . S
C284 C285 1.374 . S
C285 H265 0.950 . S
C285 C281 1.385 . S
C285 C284 1.374 . S
C286 C283 1.499 . S
C286 C287 1.373 . S
C286 C288 1.389 1_455 S
C287 H266 0.950 . S
C287 C286 1.373 . S
C287 C303 1.377 . S
C288 C286 1.389 1_655 S
C288 C289 1.524 . S
C288 C302 1.377 . S
C289 C288 1.524 . S
C289 C290 1.397 . S
C289 C294 1.363 . S
C290 H267 0.950 . S
C290 C289 1.397 . S
C290 C291 1.334 . S
C291 H268 0.950 . S
C291 C290 1.334 . S
C291 C292 1.287 . S
C292 C291 1.287 . S
C292 C293 1.524 . S
C292 H311 0.913 . S
C293 H269 0.950 . S
C293 C292 1.524 . S
C293 C294 1.415 . S
C294 H270 0.950 . S
C294 C289 1.363 . S
C294 C293 1.415 . S
C295 H271 0.951 . S
C295 C296 1.366 . S
C295 C297 1.388 . S
C296 C295 1.366 . S
C296 C300 1.385 . S
C297 H272 0.951 . S
C297 C295 1.388 . S
C297 C298 1.366 . S
C298 C297 1.366 . S
C298 C299 1.414 . S
C298 C301 1.499 . S
C299 H273 0.950 . S
C299 C298 1.414 . S
C299 C300 1.374 . S
C300 H274 0.962 . S
C300 C296 1.385 . S
C300 C299 1.374 . S
C301 C298 1.499 . S
C301 C302 1.373 1_455 S
C301 C303 1.389 . S
C302 H275 0.950 . S
C302 C288 1.377 . S
C302 C301 1.373 1_655 S
C303 C287 1.377 . S
C303 C301 1.389 . S
C303 C304 1.524 . S
C304 C303 1.524 . S
C304 C305 1.397 . S
C304 C309 1.363 . S
C305 H276 0.950 . S
C305 C304 1.397 . S
C305 C306 1.334 . S
C306 H277 0.950 . S
C306 C305 1.334 . S
C306 C307 1.287 . S
C307 C306 1.287 . S
C307 C308 1.524 . S
C307 H310 0.999 . S
C308 H278 0.950 . S
C308 C307 1.524 . S
C308 C309 1.415 . S
C309 H279 0.950 . S
C309 C304 1.363 . S
C309 C308 1.415 . S
H310 C307 0.999 . S
H311 C292 0.913 . S
H312 C330 0.951 . S
H313 C332 0.951 . S
H314 C334 0.950 1_565 S
H315 C335 0.950 1_565 S
H316 C337 0.950 . S
H317 C340 0.950 . S
H318 C341 0.950 . S
H319 C343 0.950 . S
H320 C344 0.950 . S
H321 C345 0.951 . S
H322 C347 0.951 . S
H323 C349 0.950 . S
H324 C350 0.950 . S
H325 C352 0.950 . S
H326 C355 0.950 . S
H327 C356 0.950 . S
H328 C358 0.950 . S
H329 C359 0.950 . S
C330 H312 0.951 . S
C330 C331 1.366 . S
C330 C332 1.388 . S
C331 C330 1.366 . S
C331 C335 1.385 . S
C332 H313 0.951 . S
C332 C330 1.388 . S
C332 C333 1.366 . S
C333 C332 1.366 . S
C333 C334 1.414 . S
C333 C336 1.499 . S
C334 H314 0.950 1_545 S
C334 C333 1.414 . S
C334 C335 1.374 . S
C335 H315 0.950 1_545 S
C335 C331 1.385 . S
C335 C334 1.374 . S
C336 C333 1.499 . S
C336 C337 1.373 . S
C336 C338 1.389 . S
C337 H316 0.950 . S
C337 C336 1.373 . S
C337 C353 1.377 . S
C338 C336 1.389 . S
C338 C339 1.524 . S
C338 C352 1.377 . S
C339 C338 1.524 . S
C339 C340 1.397 1_545 S
C339 C344 1.363 . S
C340 H317 0.950 . S
C340 C339 1.397 1_565 S
C340 C341 1.334 . S
C341 H318 0.950 . S
C341 C340 1.334 . S
C341 C342 1.287 . S
C342 C341 1.287 . S
C342 C343 1.524 1_565 S
C342 H361 0.913 . S
C343 H319 0.950 . S
C343 C342 1.524 1_545 S
C343 C344 1.415 . S
C344 H320 0.950 . S
C344 C339 1.363 . S
C344 C343 1.415 . S
C345 H321 0.951 . S
C345 C346 1.366 . S
C345 C347 1.388 . S
C346 C345 1.366 . S
C346 C350 1.385 . S
C347 H322 0.951 . S
C347 C345 1.388 . S
C347 C348 1.366 . S
C348 C347 1.366 . S
C348 C349 1.414 . S
C348 C351 1.499 . S
C349 H323 0.950 . S
C349 C348 1.414 . S
C349 C350 1.374 . S
C350 H324 0.950 . S
C350 C346 1.385 . S
C350 C349 1.374 . S
C351 C348 1.499 . S
C351 C352 1.373 . S
C351 C353 1.389 . S
C352 H325 0.950 . S
C352 C338 1.377 . S
C352 C351 1.373 . S
C353 C337 1.377 . S
C353 C351 1.389 . S
C353 C354 1.524 . S
C354 C353 1.524 . S
C354 C355 1.397 . S
C354 C359 1.363 . S
C355 H326 0.950 . S
C355 C354 1.397 . S
C355 C356 1.334 . S
C356 H327 0.950 . S
C356 C355 1.334 . S
C356 C357 1.287 . S
C357 C356 1.287 . S
C357 C358 1.524 . S
C357 H360 0.999 . S
C358 H328 0.950 . S
C358 C357 1.524 . S
C358 C359 1.415 . S
C359 H329 0.950 . S
C359 C354 1.363 . S
C359 C358 1.415 . S
H360 C357 0.999 . S
H361 C342 0.913 . S
H362 C380 0.951 . S
H363 C382 0.951 . S
H364 C384 0.945 1_655 S
H365 C385 0.950 1_655 S
H366 C387 0.950 . S
H367 C390 0.950 . S
H368 C391 0.950 . S
H369 C393 0.950 . S
H370 C394 0.950 . S
H371 C395 0.951 . S
H372 C397 0.953 . S
H373 C399 0.950 . S
H374 C400 0.950 . S
H375 C402 0.950 . S
H376 C405 0.950 . S
H377 C406 0.950 . S
H378 C408 0.950 . S
H379 C409 0.950 . S
C380 H362 0.951 . S
C380 C381 1.366 . S
C380 C382 1.388 . S
C381 C380 1.366 . S
C381 C385 1.385 . S
C382 H363 0.951 . S
C382 C380 1.388 . S
C382 C383 1.366 . S
C383 C382 1.366 . S
C383 C384 1.414 . S
C383 C386 1.499 . S
C384 H364 0.945 1_455 S
C384 C383 1.414 . S
C384 C385 1.374 . S
C385 H365 0.950 1_455 S
C385 C381 1.385 . S
C385 C384 1.374 . S
C386 C383 1.499 . S
C386 C387 1.373 1_455 S
C386 C388 1.389 . S
C387 H366 0.950 . S
C387 C386 1.373 1_655 S
C387 C403 1.377 . S
C388 C386 1.389 . S
C388 C389 1.524 . S
C388 C402 1.377 . S
C389 C388 1.524 . S
C389 C390 1.397 . S
C389 C394 1.363 . S
C390 H367 0.950 . S
C390 C389 1.397 . S
C390 C391 1.334 . S
C391 H368 0.950 . S
C391 C390 1.334 . S
C391 C392 1.287 . S
C392 C391 1.287 . S
C392 C393 1.524 . S
C392 H411 0.913 . S
C393 H369 0.950 . S
C393 C392 1.524 . S
C393 C394 1.415 . S
C394 H370 0.950 . S
C394 C389 1.363 . S
C394 C393 1.415 . S
C395 H371 0.951 . S
C395 C396 1.366 . S
C395 C397 1.388 . S
C396 C395 1.366 . S
C396 C400 1.385 . S
C397 H372 0.953 . S
C397 C395 1.388 . S
C397 C398 1.366 . S
C398 C397 1.366 . S
C398 C399 1.414 . S
C398 C401 1.499 . S
C399 H373 0.950 . S
C399 C398 1.414 . S
C399 C400 1.374 . S
C400 H374 0.950 . S
C400 C396 1.385 . S
C400 C399 1.374 . S
C401 C398 1.499 . S
C401 C402 1.373 . S
C401 C403 1.389 1_455 S
C402 H375 0.950 . S
C402 C388 1.377 . S
C402 C401 1.373 . S
C403 C387 1.377 . S
C403 C401 1.389 1_655 S
C403 C404 1.524 . S
C404 C403 1.524 . S
C404 C405 1.397 . S
C404 C409 1.363 . S
C405 H376 0.950 . S
C405 C404 1.397 . S
C405 C406 1.334 . S
C406 H377 0.950 . S
C406 C405 1.334 . S
C406 C407 1.287 . S
C407 C406 1.287 . S
C407 C408 1.524 . S
C407 H410 0.999 . S
C408 H378 0.950 . S
C408 C407 1.524 . S
C408 C409 1.415 . S
C409 H379 0.950 . S
C409 C404 1.363 . S
C409 C408 1.415 . S
H410 C407 0.999 . S
H411 C392 0.913 . S
H412 C430 0.951 . S
H413 C432 0.951 . S
H414 C434 0.950 1_565 S
H415 C435 0.950 1_565 S
H416 C437 0.950 . S
H417 C440 0.950 . S
H418 C441 0.950 . S
H419 C443 0.950 . S
H420 C444 0.950 . S
H421 C445 0.951 . S
H422 C447 0.951 . S
H423 C449 0.950 . S
H424 C450 0.950 . S
H425 C452 0.950 . S
H426 C455 0.950 . S
H427 C456 0.950 . S
H428 C458 0.950 . S
H429 C459 0.950 . S
C430 H412 0.951 . S
C430 C431 1.366 . S
C430 C432 1.388 . S
C431 C430 1.366 . S
C431 C435 1.385 . S
C432 H413 0.951 . S
C432 C430 1.388 . S
C432 C433 1.366 . S
C433 C432 1.366 . S
C433 C434 1.414 . S
C433 C436 1.499 . S
C434 H414 0.950 1_545 S
C434 C433 1.414 . S
C434 C435 1.374 . S
C435 H415 0.950 1_545 S
C435 C431 1.385 . S
C435 C434 1.374 . S
C436 C433 1.499 . S
C436 C437 1.373 . S
C436 C438 1.389 . S
C437 H416 0.950 . S
C437 C436 1.373 . S
C437 C453 1.377 . S
C438 C436 1.389 . S
C438 C439 1.524 . S
C438 C452 1.377 . S
C439 C438 1.524 . S
C439 C440 1.397 1_545 S
C439 C444 1.363 . S
C440 H417 0.950 . S
C440 C439 1.397 1_565 S
C440 C441 1.334 . S
C441 H418 0.950 . S
C441 C440 1.334 . S
C441 C442 1.287 . S
C442 C441 1.287 . S
C442 C443 1.524 1_565 S
C442 H461 0.913 . S
C443 H419 0.950 . S
C443 C442 1.524 1_545 S
C443 C444 1.415 . S
C444 H420 0.950 . S
C444 C439 1.363 . S
C444 C443 1.415 . S
C445 H421 0.951 . S
C445 C446 1.366 . S
C445 C447 1.388 . S
C446 C445 1.366 . S
C446 C450 1.385 . S
C447 H422 0.951 . S
C447 C445 1.388 . S
C447 C448 1.366 . S
C448 C447 1.366 . S
C448 C449 1.414 . S
C448 C451 1.499 . S
C449 H423 0.950 . S
C449 C448 1.414 . S
C449 C450 1.374 . S
C450 H424 0.950 . S
C450 C446 1.385 . S
C450 C449 1.374 . S
C451 C448 1.499 . S
C451 C452 1.373 . S
C451 C453 1.389 . S
C452 H425 0.950 . S
C452 C438 1.377 . S
C452 C451 1.373 . S
C453 C437 1.377 . S
C453 C451 1.389 . S
C453 C454 1.524 . S
C454 C453 1.524 . S
C454 C455 1.397 . S
C454 C459 1.363 . S
C455 H426 0.950 . S
C455 C454 1.397 . S
C455 C456 1.334 . S
C456 H427 0.950 . S
C456 C455 1.334 . S
C456 C457 1.287 . S
C457 C456 1.287 . S
C457 C458 1.524 . S
C457 H460 0.999 . S
C458 H428 0.950 . S
C458 C457 1.524 . S
C458 C459 1.415 . S
C459 H429 0.950 . S
C459 C454 1.363 . S
C459 C458 1.415 . S
H460 C457 0.999 . S
H461 C442 0.913 . S
H462 C480 0.951 . S
H463 C482 0.951 . S
H464 C484 0.950 . S
H465 C485 0.950 . S
H466 C487 0.950 . S
H467 C490 0.950 . S
H468 C491 0.950 . S
H469 C493 0.950 . S
H470 C494 0.950 . S
H471 C495 0.951 . S
H472 C497 0.951 . S
H473 C499 0.950 . S
H474 C500 0.950 . S
H475 C502 0.950 . S
H476 C505 0.950 1_655 S
H477 C506 0.950 1_655 S
H478 C508 0.950 . S
H479 C509 0.950 . S
C480 H462 0.951 . S
C480 C481 1.366 1_655 S
C480 C482 1.388 . S
C481 C480 1.366 1_455 S
C481 C485 1.385 . S
C482 H463 0.951 . S
C482 C480 1.388 . S
C482 C483 1.366 1_655 S
C483 C482 1.366 1_455 S
C483 C484 1.414 . S
C483 C486 1.499 . S
C484 H464 0.950 . S
C484 C483 1.414 . S
C484 C485 1.374 . S
C485 H465 0.950 . S
C485 C481 1.385 . S
C485 C484 1.374 . S
C486 C483 1.499 . S
C486 C487 1.373 . S
C486 C488 1.389 . S
C487 H466 0.950 . S
C487 C486 1.373 . S
C487 C503 1.377 . S
C488 C486 1.389 . S
C488 C489 1.524 . S
C488 C502 1.377 . S
C489 C488 1.524 . S
C489 C490 1.397 . S
C489 C494 1.363 1_455 S
C490 H467 0.950 . S
C490 C489 1.397 . S
C490 C491 1.334 . S
C491 H468 0.950 . S
C491 C490 1.334 . S
C491 C492 1.287 . S
C492 C491 1.287 . S
C492 C493 1.524 1_455 S
C492 H511 0.913 . S
C493 H469 0.950 . S
C493 C492 1.524 1_655 S
C493 C494 1.415 . S
C494 H470 0.950 . S
C494 C489 1.363 1_655 S
C494 C493 1.415 . S
C495 H471 0.951 . S
C495 C496 1.366 . S
C495 C497 1.388 . S
C496 C495 1.366 . S
C496 C500 1.385 1_455 S
C497 H472 0.951 . S
C497 C495 1.388 . S
C497 C498 1.366 . S
C498 C497 1.366 . S
C498 C499 1.414 1_455 S
C498 C501 1.499 . S
C499 H473 0.950 . S
C499 C498 1.414 1_655 S
C499 C500 1.374 . S
C500 H474 0.950 . S
C500 C496 1.385 1_655 S
C500 C499 1.374 . S
C501 C498 1.499 . S
C501 C502 1.373 . S
C501 C503 1.389 . S
C502 H475 0.950 . S
C502 C488 1.377 . S
C502 C501 1.373 . S
C503 C487 1.377 . S
C503 C501 1.389 . S
C503 C504 1.524 . S
C504 C503 1.524 . S
C504 C505 1.397 . S
C504 C509 1.363 . S
C505 H476 0.950 1_455 S
C505 C504 1.397 . S
C505 C506 1.334 . S
C506 H477 0.950 1_455 S
C506 C505 1.334 . S
C506 C507 1.287 . S
C507 C506 1.287 . S
C507 C508 1.524 . S
C507 H510 0.999 . S
C508 H478 0.950 . S
C508 C507 1.524 . S
C508 C509 1.415 . S
C509 H479 0.950 . S
C509 C504 1.363 . S
C509 C508 1.415 . S
H510 C507 0.999 . S
H511 C492 0.913 . S
H512 C530 0.951 . S
H513 C532 0.951 . S
H514 C534 0.950 . S
H515 C535 0.950 . S
H516 C537 0.950 . S
H517 C540 0.950 . S
H518 C541 0.950 . S
H519 C543 0.950 . S
H520 C544 0.950 . S
H521 C545 0.951 . S
H522 C547 0.951 . S
H523 C549 0.950 . S
H524 C550 0.950 . S
H525 C552 0.950 . S
H526 C555 0.950 . S
H527 C556 0.950 . S
H528 C558 0.950 . S
H529 C559 0.950 . S
C530 H512 0.951 . S
C530 C531 1.366 . S
C530 C532 1.388 . S
C531 C530 1.366 . S
C531 C535 1.385 . S
C532 H513 0.951 . S
C532 C530 1.388 . S
C532 C533 1.366 . S
C533 C532 1.366 . S
C533 C534 1.414 . S
C533 C536 1.499 . S
C534 H514 0.950 . S
C534 C533 1.414 . S
C534 C535 1.374 . S
C535 H515 0.950 . S
C535 C531 1.385 . S
C535 C534 1.374 . S
C536 C533 1.499 . S
C536 C537 1.373 . S
C536 C538 1.389 . S
C537 H516 0.950 . S
C537 C536 1.373 . S
C537 C553 1.377 . S
C538 C536 1.389 . S
C538 C539 1.524 . S
C538 C552 1.377 . S
C539 C538 1.524 . S
C539 C540 1.397 . S
C539 C544 1.363 . S
C540 H517 0.950 . S
C540 C539 1.397 . S
C540 C541 1.334 . S
C541 H518 0.950 . S
C541 C540 1.334 . S
C541 C542 1.287 . S
C542 C541 1.287 . S
C542 C543 1.524 . S
C542 H561 0.913 . S
C543 H519 0.950 . S
C543 C542 1.524 . S
C543 C544 1.415 . S
C544 H520 0.950 . S
C544 C539 1.363 . S
C544 C543 1.415 . S
C545 H521 0.951 . S
C545 C546 1.366 . S
C545 C547 1.388 . S
C546 C545 1.366 . S
C546 C550 1.385 . S
C547 H522 0.951 . S
C547 C545 1.388 . S
C547 C548 1.366 . S
C548 C547 1.366 . S
C548 C549 1.414 . S
C548 C551 1.499 . S
C549 H523 0.950 . S
C549 C548 1.414 . S
C549 C550 1.374 . S
C550 H524 0.950 . S
C550 C546 1.385 . S
C550 C549 1.374 . S
C551 C548 1.499 . S
C551 C552 1.373 . S
C551 C553 1.389 . S
C552 H525 0.950 . S
C552 C538 1.377 . S
C552 C551 1.373 . S
C553 C537 1.377 . S
C553 C551 1.389 . S
C553 C554 1.524 . S
C554 C553 1.524 . S
C554 C555 1.397 . S
C554 C559 1.363 . S
C555 H526 0.950 . S
C555 C554 1.397 . S
C555 C556 1.334 . S
C556 H527 0.950 . S
C556 C555 1.334 . S
C556 C557 1.287 . S
C557 C556 1.287 . S
C557 C558 1.524 . S
C557 H560 0.999 . S
C558 H528 0.950 . S
C558 C557 1.524 . S
C558 C559 1.415 . S
C559 H529 0.950 . S
C559 C554 1.363 . S
C559 C558 1.415 . S
H560 C557 0.999 . S
H561 C542 0.913 . S
H562 C580 0.951 . S
H563 C582 0.951 . S
H564 C584 0.950 . S
H565 C585 0.950 . S
H566 C587 0.950 . S
H567 C590 0.950 . S
H568 C591 0.950 . S
H569 C593 0.950 . S
H570 C594 0.950 . S
H571 C595 0.951 . S
H572 C597 0.951 . S
H573 C599 0.950 . S
H574 C600 0.950 . S
H575 C602 0.950 . S
H576 C605 0.950 . S
H577 C606 0.950 . S
H578 C608 0.950 . S
H579 C609 0.950 . S
C580 H562 0.951 . S
C580 C581 1.366 . S
C580 C582 1.388 . S
C581 C580 1.366 . S
C581 C585 1.385 . S
C582 H563 0.951 . S
C582 C580 1.388 . S
C582 C583 1.366 . S
C583 C582 1.366 . S
C583 C584 1.414 . S
C583 C586 1.499 . S
C584 H564 0.950 . S
C584 C583 1.414 . S
C584 C585 1.374 . S
C585 H565 0.950 . S
C585 C581 1.385 . S
C585 C584 1.374 . S
C586 C583 1.499 . S
C586 C587 1.373 . S
C586 C588 1.389 . S
C587 H566 0.950 . S
C587 C586 1.373 . S
C587 C603 1.377 . S
C588 C586 1.389 . S
C588 C589 1.524 . S
C588 C602 1.377 . S
C589 C588 1.524 . S
C589 C590 1.397 . S
C589 C594 1.363 . S
C590 H567 0.950 . S
C590 C589 1.397 . S
C590 C591 1.334 . S
C591 H568 0.950 . S
C591 C590 1.334 . S
C591 C592 1.287 . S
C592 C591 1.287 . S
C592 C593 1.524 . S
C592 H611 0.913 . S
C593 H569 0.950 . S
C593 C592 1.524 . S
C593 C594 1.415 . S
C594 H570 0.950 . S
C594 C589 1.363 . S
C594 C593 1.415 . S
C595 H571 0.951 . S
C595 C596 1.366 . S
C595 C597 1.388 . S
C596 C595 1.366 . S
C596 C600 1.385 . S
C597 H572 0.951 . S
C597 C595 1.388 . S
C597 C598 1.366 . S
C598 C597 1.366 . S
C598 C599 1.414 . S
C598 C601 1.499 . S
C599 H573 0.950 . S
C599 C598 1.414 . S
C599 C600 1.374 . S
C600 H574 0.950 . S
C600 C596 1.385 . S
C600 C599 1.374 . S
C601 C598 1.499 . S
C601 C602 1.373 . S
C601 C603 1.389 . S
C602 H575 0.950 . S
C602 C588 1.377 . S
C602 C601 1.373 . S
C603 C587 1.377 . S
C603 C601 1.389 . S
C603 C604 1.524 . S
C604 C603 1.524 . S
C604 C605 1.397 . S
C604 C609 1.363 . S
C605 H576 0.950 . S
C605 C604 1.397 . S
C605 C606 1.334 . S
C606 H577 0.950 . S
C606 C605 1.334 . S
C606 C607 1.287 . S
C607 C606 1.287 . S
C607 C608 1.524 . S
C607 H610 0.999 . S
C608 H578 0.950 . S
C608 C607 1.524 . S
C608 C609 1.415 . S
C609 H579 0.950 . S
C609 C604 1.363 . S
C609 C608 1.415 . S
H610 C607 0.999 . S
H611 C592 0.913 . S
H612 C630 0.951 . S
H613 C632 0.951 . S
H614 C634 0.950 . S
H615 C635 0.950 . S
H616 C637 0.950 . S
H617 C640 0.950 . S
H618 C641 0.950 . S
H619 C643 0.950 . S
H620 C644 0.950 . S
H621 C645 0.951 . S
H622 C647 0.951 . S
H623 C649 0.950 . S
H624 C650 0.950 . S
H625 C652 0.950 . S
H626 C655 0.950 . S
H627 C656 0.950 . S
H628 C658 0.950 . S
H629 C659 0.950 . S
C630 H612 0.951 . S
C630 C631 1.366 . S
C630 C632 1.388 . S
C631 C630 1.366 . S
C631 C635 1.385 . S
C632 H613 0.951 . S
C632 C630 1.388 . S
C632 C633 1.366 . S
C633 C632 1.366 . S
C633 C634 1.414 . S
C633 C636 1.499 . S
C634 H614 0.950 . S
C634 C633 1.414 . S
C634 C635 1.374 . S
C635 H615 0.950 . S
C635 C631 1.385 . S
C635 C634 1.374 . S
C636 C633 1.499 . S
C636 C637 1.373 . S
C636 C638 1.389 . S
C637 H616 0.950 . S
C637 C636 1.373 . S
C637 C653 1.377 . S
C638 C636 1.389 . S
C638 C639 1.524 . S
C638 C652 1.377 . S
C639 C638 1.524 . S
C639 C640 1.397 . S
C639 C644 1.363 . S
C640 H617 0.950 . S
C640 C639 1.397 . S
C640 C641 1.334 . S
C641 H618 0.950 . S
C641 C640 1.334 . S
C641 C642 1.287 . S
C642 C641 1.287 . S
C642 C643 1.524 . S
C642 H661 0.913 . S
C643 H619 0.950 . S
C643 C642 1.524 . S
C643 C644 1.415 . S
C644 H620 0.950 . S
C644 C639 1.363 . S
C644 C643 1.415 . S
C645 H621 0.951 . S
C645 C646 1.366 . S
C645 C647 1.388 . S
C646 C645 1.366 . S
C646 C650 1.385 . S
C647 H622 0.951 . S
C647 C645 1.388 . S
C647 C648 1.366 . S
C648 C647 1.366 . S
C648 C649 1.414 . S
C648 C651 1.499 . S
C649 H623 0.950 . S
C649 C648 1.414 . S
C649 C650 1.374 . S
C650 H624 0.950 . S
C650 C646 1.385 . S
C650 C649 1.374 . S
C651 C648 1.499 . S
C651 C652 1.373 . S
C651 C653 1.389 . S
C652 H625 0.950 . S
C652 C638 1.377 . S
C652 C651 1.373 . S
C653 C637 1.377 . S
C653 C651 1.389 . S
C653 C654 1.524 . S
C654 C653 1.524 . S
C654 C655 1.397 . S
C654 C659 1.363 . S
C655 H626 0.950 . S
C655 C654 1.397 . S
C655 C656 1.334 . S
C656 H627 0.950 . S
C656 C655 1.334 . S
C656 C657 1.287 . S
C657 C656 1.287 . S
C657 C658 1.524 . S
C657 H660 0.999 . S
C658 H628 0.950 . S
C658 C657 1.524 . S
C658 C659 1.415 . S
C659 H629 0.950 . S
C659 C654 1.363 . S
C659 C658 1.415 . S
H660 C657 0.999 . S
H661 C642 0.913 . S
H662 C680 0.951 . S
H663 C682 0.951 . S
H664 C684 0.950 . S
H665 C685 0.950 . S
H666 C687 0.950 . S
H667 C690 0.950 . S
H668 C691 0.950 . S
H669 C693 0.950 . S
H670 C694 0.950 . S
H671 C695 0.951 . S
H672 C697 0.951 . S
H673 C699 0.950 . S
H674 C700 0.950 . S
H675 C702 0.950 . S
H676 C705 0.950 . S
H677 C706 0.950 . S
H678 C708 0.950 . S
H679 C709 0.950 . S
C680 H662 0.951 . S
C680 C681 1.366 . S
C680 C682 1.388 . S
C681 C680 1.366 . S
C681 C685 1.385 . S
C682 H663 0.951 . S
C682 C680 1.388 . S
C682 C683 1.366 . S
C683 C682 1.366 . S
C683 C684 1.414 . S
C683 C686 1.499 . S
C684 H664 0.950 . S
C684 C683 1.414 . S
C684 C685 1.374 . S
C685 H665 0.950 . S
C685 C681 1.385 . S
C685 C684 1.374 . S
C686 C683 1.499 . S
C686 C687 1.373 . S
C686 C688 1.389 . S
C687 H666 0.950 . S
C687 C686 1.373 . S
C687 C703 1.377 . S
C688 C686 1.389 . S
C688 C689 1.524 . S
C688 C702 1.377 . S
C689 C688 1.524 . S
C689 C690 1.397 . S
C689 C694 1.363 . S
C690 H667 0.950 . S
C690 C689 1.397 . S
C690 C691 1.334 . S
C691 H668 0.950 . S
C691 C690 1.334 . S
C691 C692 1.287 . S
C692 C691 1.287 . S
C692 C693 1.524 . S
C692 H711 0.913 . S
C693 H669 0.950 . S
C693 C692 1.524 . S
C693 C694 1.415 . S
C694 H670 0.950 . S
C694 C689 1.363 . S
C694 C693 1.415 . S
C695 H671 0.951 . S
C695 C696 1.366 . S
C695 C697 1.388 . S
C696 C695 1.366 . S
C696 C700 1.385 . S
C697 H672 0.951 . S
C697 C695 1.388 . S
C697 C698 1.366 . S
C698 C697 1.366 . S
C698 C699 1.414 . S
C698 C701 1.499 . S
C699 H673 0.950 . S
C699 C698 1.414 . S
C699 C700 1.374 . S
C700 H674 0.950 . S
C700 C696 1.385 . S
C700 C699 1.374 . S
C701 C698 1.499 . S
C701 C702 1.373 . S
C701 C703 1.389 . S
C702 H675 0.950 . S
C702 C688 1.377 . S
C702 C701 1.373 . S
C703 C687 1.377 . S
C703 C701 1.389 . S
C703 C704 1.524 . S
C704 C703 1.524 . S
C704 C705 1.397 . S
C704 C709 1.363 . S
C705 H676 0.950 . S
C705 C704 1.397 . S
C705 C706 1.334 . S
C706 H677 0.950 . S
C706 C705 1.334 . S
C706 C707 1.287 . S
C707 C706 1.287 . S
C707 C708 1.524 . S
C707 H710 0.999 . S
C708 H678 0.950 . S
C708 C707 1.524 . S
C708 C709 1.415 . S
C709 H679 0.950 . S
C709 C704 1.363 . S
C709 C708 1.415 . S
H710 C707 0.999 . S
H711 C692 0.913 . S
H712 C730 0.951 . S
H713 C732 0.951 . S
H714 C734 0.950 . S
H715 C735 0.950 . S
H716 C737 0.950 . S
H717 C740 0.950 . S
H718 C741 0.950 . S
H719 C743 0.950 . S
H720 C744 0.950 . S
H721 C745 0.951 . S
H722 C747 0.951 . S
H723 C749 0.950 . S
H724 C750 0.950 . S
H725 C752 0.950 . S
H726 C755 0.950 . S
H727 C756 0.950 . S
H728 C758 0.950 . S
H729 C759 0.950 . S
C730 H712 0.951 . S
C730 C731 1.366 . S
C730 C732 1.388 . S
C731 C730 1.366 . S
C731 C735 1.385 . S
C732 H713 0.951 . S
C732 C730 1.388 . S
C732 C733 1.366 . S
C733 C732 1.366 . S
C733 C734 1.414 . S
C733 C736 1.499 . S
C734 H714 0.950 . S
C734 C733 1.414 . S
C734 C735 1.374 . S
C735 H715 0.950 . S
C735 C731 1.385 . S
C735 C734 1.374 . S
C736 C733 1.499 . S
C736 C737 1.373 . S
C736 C738 1.389 . S
C737 H716 0.950 . S
C737 C736 1.373 . S
C737 C753 1.377 . S
C738 C736 1.389 . S
C738 C739 1.524 . S
C738 C752 1.377 . S
C739 C738 1.524 . S
C739 C740 1.397 . S
C739 C744 1.363 . S
C740 H717 0.950 . S
C740 C739 1.397 . S
C740 C741 1.334 . S
C741 H718 0.950 . S
C741 C740 1.334 . S
C741 C742 1.287 . S
C742 C741 1.287 . S
C742 C743 1.524 . S
C742 H761 0.913 . S
C743 H719 0.950 . S
C743 C742 1.524 . S
C743 C744 1.415 . S
C744 H720 0.950 . S
C744 C739 1.363 . S
C744 C743 1.415 . S
C745 H721 0.951 . S
C745 C746 1.366 . S
C745 C747 1.388 . S
C746 C745 1.366 . S
C746 C750 1.385 . S
C747 H722 0.951 . S
C747 C745 1.388 . S
C747 C748 1.366 . S
C748 C747 1.366 . S
C748 C749 1.414 . S
C748 C751 1.499 . S
C749 H723 0.950 . S
C749 C748 1.414 . S
C749 C750 1.374 . S
C750 H724 0.950 . S
C750 C746 1.385 . S
C750 C749 1.374 . S
C751 C748 1.499 . S
C751 C752 1.373 . S
C751 C753 1.389 . S
C752 H725 0.950 . S
C752 C738 1.377 . S
C752 C751 1.373 . S
C753 C737 1.377 . S
C753 C751 1.389 . S
C753 C754 1.524 . S
C754 C753 1.524 . S
C754 C755 1.397 . S
C754 C759 1.363 . S
C755 H726 0.950 . S
C755 C754 1.397 . S
C755 C756 1.334 . S
C756 H727 0.950 . S
C756 C755 1.334 . S
C756 C757 1.287 . S
C757 C756 1.287 . S
C757 C758 1.524 . S
C757 H760 0.999 1_655 S
C758 H728 0.950 . S
C758 C757 1.524 . S
C758 C759 1.415 . S
C759 H729 0.950 . S
C759 C754 1.363 . S
C759 C758 1.415 . S
H760 C757 0.999 1_455 S
H761 C742 0.913 . S
H762 C780 0.951 . S
H763 C782 0.951 . S
H764 C784 0.950 . S
H765 C785 0.950 . S
H766 C787 0.950 . S
H767 C790 0.950 . S
H768 C791 0.950 . S
H769 C793 0.950 . S
H770 C794 0.950 . S
H771 C795 0.951 . S
H772 C797 0.951 . S
H773 C799 0.950 . S
H774 C800 0.950 . S
H775 C802 0.950 . S
H776 C805 0.950 . S
H777 C806 0.950 . S
H778 C808 0.950 . S
H779 C809 0.950 . S
C780 H762 0.951 . S
C780 C781 1.366 . S
C780 C782 1.388 . S
C781 C780 1.366 . S
C781 C785 1.385 . S
C782 H763 0.951 . S
C782 C780 1.388 . S
C782 C783 1.366 . S
C783 C782 1.366 . S
C783 C784 1.414 . S
C783 C786 1.499 . S
C784 H764 0.950 . S
C784 C783 1.414 . S
C784 C785 1.374 . S
C785 H765 0.950 . S
C785 C781 1.385 . S
C785 C784 1.374 . S
C786 C783 1.499 . S
C786 C787 1.373 . S
C786 C788 1.389 . S
C787 H766 0.950 . S
C787 C786 1.373 . S
C787 C803 1.377 . S
C788 C786 1.389 . S
C788 C789 1.524 . S
C788 C802 1.377 . S
C789 C788 1.524 . S
C789 C790 1.397 . S
C789 C794 1.363 . S
C790 H767 0.950 . S
C790 C789 1.397 . S
C790 C791 1.334 . S
C791 H768 0.950 . S
C791 C790 1.334 . S
C791 C792 1.287 . S
C792 C791 1.287 . S
C792 C793 1.524 . S
C792 H811 0.913 . S
C793 H769 0.950 . S
C793 C792 1.524 . S
C793 C794 1.415 . S
C794 H770 0.950 . S
C794 C789 1.363 . S
C794 C793 1.415 . S
C795 H771 0.951 . S
C795 C796 1.366 . S
C795 C797 1.388 . S
C796 C795 1.366 . S
C796 C800 1.385 . S
C797 H772 0.951 . S
C797 C795 1.388 . S
C797 C798 1.366 . S
C798 C797 1.366 . S
C798 C799 1.414 . S
C798 C801 1.499 . S
C799 H773 0.950 . S
C799 C798 1.414 . S
C799 C800 1.374 . S
C800 H774 0.950 . S
C800 C796 1.385 . S
C800 C799 1.374 . S
C801 C798 1.499 . S
C801 C802 1.373 . S
C801 C803 1.389 . S
C802 H775 0.950 . S
C802 C788 1.377 . S
C802 C801 1.373 . S
C803 C787 1.377 . S
C803 C801 1.389 . S
C803 C804 1.524 . S
C804 C803 1.524 . S
C804 C805 1.397 . S
C804 C809 1.363 . S
C805 H776 0.950 . S
C805 C804 1.397 . S
C805 C806 1.334 . S
C806 H777 0.950 . S
C806 C805 1.334 . S
C806 C807 1.287 . S
C807 C806 1.287 . S
C807 C808 1.524 . S
C807 H810 0.999 . S
C808 H778 0.950 . S
C808 C807 1.524 . S
C808 C809 1.415 . S
C809 H779 0.950 . S
C809 C804 1.363 . S
C809 C808 1.415 . S
H810 C807 0.999 . S
H811 C792 0.913 . S
H812 C830 0.951 . S
H813 C832 0.951 . S
H814 C834 0.950 . S
H815 C835 0.950 . S
H816 C837 0.950 . S
H817 C840 0.950 . S
H818 C841 0.950 . S
H819 C843 0.950 . S
H820 C844 0.950 . S
H821 C845 0.951 . S
H822 C847 0.951 . S
H823 C849 0.950 . S
H824 C850 0.950 . S
H825 C852 0.950 . S
H826 C855 0.950 . S
H827 C856 0.950 . S
H828 C858 0.950 . S
H829 C859 0.950 . S
C830 H812 0.951 . S
C830 C831 1.366 . S
C830 C832 1.388 . S
C831 C830 1.366 . S
C831 C835 1.385 . S
C832 H813 0.951 . S
C832 C830 1.388 . S
C832 C833 1.366 . S
C833 C832 1.366 . S
C833 C834 1.414 . S
C833 C836 1.499 . S
C834 H814 0.950 . S
C834 C833 1.414 . S
C834 C835 1.374 . S
C835 H815 0.950 . S
C835 C831 1.385 . S
C835 C834 1.374 . S
C836 C833 1.499 . S
C836 C837 1.373 . S
C836 C838 1.389 . S
C837 H816 0.950 . S
C837 C836 1.373 . S
C837 C853 1.377 . S
C838 C836 1.389 . S
C838 C839 1.524 . S
C838 C852 1.377 . S
C839 C838 1.524 . S
C839 C840 1.397 . S
C839 C844 1.363 . S
C840 H817 0.950 . S
C840 C839 1.397 . S
C840 C841 1.334 . S
C841 H818 0.950 . S
C841 C840 1.334 . S
C841 C842 1.287 . S
C842 C841 1.287 . S
C842 C843 1.524 . S
C842 H861 0.913 . S
C843 H819 0.950 . S
C843 C842 1.524 . S
C843 C844 1.415 . S
C844 H820 0.950 . S
C844 C839 1.363 . S
C844 C843 1.415 . S
C845 H821 0.951 . S
C845 C846 1.366 . S
C845 C847 1.388 . S
C846 C845 1.366 . S
C846 C850 1.385 . S
C847 H822 0.951 . S
C847 C845 1.388 . S
C847 C848 1.366 . S
C848 C847 1.366 . S
C848 C849 1.414 . S
C848 C851 1.499 . S
C849 H823 0.950 . S
C849 C848 1.414 . S
C849 C850 1.374 . S
C850 H824 0.950 . S
C850 C846 1.385 . S
C850 C849 1.374 . S
C851 C848 1.499 . S
C851 C852 1.373 . S
C851 C853 1.389 . S
C852 H825 0.950 . S
C852 C838 1.377 . S
C852 C851 1.373 . S
C853 C837 1.377 . S
C853 C851 1.389 . S
C853 C854 1.524 . S
C854 C853 1.524 . S
C854 C855 1.397 . S
C854 C859 1.363 . S
C855 H826 0.950 . S
C855 C854 1.397 . S
C855 C856 1.334 . S
C856 H827 0.950 . S
C856 C855 1.334 . S
C856 C857 1.287 . S
C857 C856 1.287 . S
C857 C858 1.524 . S
C857 H860 0.999 . S
C858 H828 0.950 . S
C858 C857 1.524 . S
C858 C859 1.415 . S
C859 H829 0.950 . S
C859 C854 1.363 . S
C859 C858 1.415 . S
H860 C857 0.999 . S
H861 C842 0.913 . S
H862 C880 0.951 . S
H863 C882 0.951 . S
H864 C884 0.950 . S
H865 C885 0.950 . S
H866 C887 0.950 . S
H867 C890 0.950 . S
H868 C891 0.950 . S
H869 C893 0.950 . S
H870 C894 0.950 . S
H871 C895 0.951 . S
H872 C897 0.951 . S
H873 C899 0.950 . S
H874 C900 0.950 . S
H875 C902 0.950 . S
H876 C905 0.950 . S
H877 C906 0.950 . S
H878 C908 0.950 . S
H879 C909 0.950 . S
C880 H862 0.951 . S
C880 C881 1.366 . S
C880 C882 1.388 . S
C881 C880 1.366 . S
C881 C885 1.385 . S
C882 H863 0.951 . S
C882 C880 1.388 . S
C882 C883 1.366 . S
C883 C882 1.366 . S
C883 C884 1.414 . S
C883 C886 1.499 . S
C884 H864 0.950 . S
C884 C883 1.414 . S
C884 C885 1.374 . S
C885 H865 0.950 . S
C885 C881 1.385 . S
C885 C884 1.374 . S
C886 C883 1.499 . S
C886 C887 1.373 . S
C886 C888 1.389 . S
C887 H866 0.950 . S
C887 C886 1.373 . S
C887 C903 1.377 . S
C888 C886 1.389 . S
C888 C889 1.524 . S
C888 C902 1.377 . S
C889 C888 1.524 . S
C889 C890 1.397 . S
C889 C894 1.363 . S
C890 H867 0.950 . S
C890 C889 1.397 . S
C890 C891 1.334 . S
C891 H868 0.950 . S
C891 C890 1.334 . S
C891 C892 1.287 . S
C892 C891 1.287 . S
C892 C893 1.524 . S
C892 H911 0.913 1_655 S
C893 H869 0.950 . S
C893 C892 1.524 . S
C893 C894 1.415 . S
C894 H870 0.950 . S
C894 C889 1.363 . S
C894 C893 1.415 . S
C895 H871 0.951 . S
C895 C896 1.366 . S
C895 C897 1.388 . S
C896 C895 1.366 . S
C896 C900 1.385 . S
C897 H872 0.951 . S
C897 C895 1.388 . S
C897 C898 1.366 . S
C898 C897 1.366 . S
C898 C899 1.414 . S
C898 C901 1.499 . S
C899 H873 0.950 . S
C899 C898 1.414 . S
C899 C900 1.374 . S
C900 H874 0.950 . S
C900 C896 1.385 . S
C900 C899 1.374 . S
C901 C898 1.499 . S
C901 C902 1.373 . S
C901 C903 1.389 . S
C902 H875 0.950 . S
C902 C888 1.377 . S
C902 C901 1.373 . S
C903 C887 1.377 . S
C903 C901 1.389 . S
C903 C904 1.524 . S
C904 C903 1.524 . S
C904 C905 1.397 . S
C904 C909 1.363 . S
C905 H876 0.950 . S
C905 C904 1.397 . S
C905 C906 1.334 . S
C906 H877 0.950 . S
C906 C905 1.334 . S
C906 C907 1.287 . S
C907 C906 1.287 . S
C907 C908 1.524 . S
C907 H910 0.999 . S
C908 H878 0.950 . S
C908 C907 1.524 . S
C908 C909 1.415 . S
C909 H879 0.950 . S
C909 C904 1.363 . S
C909 C908 1.415 . S
H910 C907 0.999 . S
H911 C892 0.913 1_455 S
C131 C4 1.507 . S
C146 C60 1.506 . S
C181 C26 1.605 . S
C196 C82 1.605 . S
C231 C88 1.506 . S
C246 C32 1.507 . S
C281 C110 1.605 . S
C296 C54 1.605 . S
C331 C5 0.892 . S
C346 C33 0.895 . S
C381 C25 0.789 . S
C396 C53 0.789 . S
C431 C89 0.892 . S
C446 C61 0.894 . S
C481 C81 0.787 . S
C496 C109 0.789 . S
C531 C75 0.910 . S
C546 C11 0.984 . S
C581 C19 0.913 . S
C596 C95 0.985 . S
C631 C103 0.911 . S
C646 C39 0.985 . S
C681 C47 0.913 . S
C696 C67 0.985 . S
C731 C96 1.394 . S
C746 C46 1.381 . S
C781 C12 1.394 . S
C796 C102 1.381 . S
C831 C18 1.382 . S
C846 C68 1.394 . S
C881 C74 1.381 . S
C896 C40 1.394 . S
