# Generated by pormake.
# Topology ukr, (4)-cn, num edge types: 1
# Building blocks:
#     Node 0, Type 0, BuildingBlock: QUQFOY_clean_sbu_1, # of connection points: 4
#     Node 1, Type 0, BuildingBlock: QUQFOY_clean_sbu_1, # of connection points: 4
#     Node 2, Type 0, BuildingBlock: QUQFOY_clean_sbu_1, # of connection points: 4
#     Node 3, Type 0, BuildingBlock: QUQFOY_clean_sbu_1, # of connection points: 4
#     Node 4, Type 0, BuildingBlock: QUQFOY_clean_sbu_1, # of connection points: 4
#     Node 5, Type 0, BuildingBlock: QUQFOY_clean_sbu_1, # of connection points: 4
#     Node 6, Type 0, BuildingBlock: QUQFOY_clean_sbu_1, # of connection points: 4
#     Node 7, Type 0, BuildingBlock: QUQFOY_clean_sbu_1, # of connection points: 4
#     Node 8, Type 0, BuildingBlock: QUQFOY_clean_sbu_1, # of connection points: 4
#     Node 9, Type 0, BuildingBlock: QUQFOY_clean_sbu_1, # of connection points: 4
#     Node 10, Type 0, BuildingBlock: QUQFOY_clean_sbu_1, # of connection points: 4
#     Node 11, Type 0, BuildingBlock: QUQFOY_clean_sbu_1, # of connection points: 4
#     Node 12, Type 0, BuildingBlock: QUQFOY_clean_sbu_1, # of connection points: 4
#     Node 13, Type 0, BuildingBlock: QUQFOY_clean_sbu_1, # of connection points: 4
#     Node 14, Type 0, BuildingBlock: QUQFOY_clean_sbu_1, # of connection points: 4
#     Node 15, Type 0, BuildingBlock: QUQFOY_clean_sbu_1, # of connection points: 4
#     Node 16, Type 0, BuildingBlock: QUQFOY_clean_sbu_1, # of connection points: 4
#     Node 17, Type 0, BuildingBlock: QUQFOY_clean_sbu_1, # of connection points: 4
#     Node 18, Type 0, BuildingBlock: QUQFOY_clean_sbu_1, # of connection points: 4
#     Node 19, Type 0, BuildingBlock: QUQFOY_clean_sbu_1, # of connection points: 4
#     Node 20, Type 0, BuildingBlock: QUQFOY_clean_sbu_1, # of connection points: 4
#     Node 21, Type 0, BuildingBlock: QUQFOY_clean_sbu_1, # of connection points: 4
#     Node 22, Type 0, BuildingBlock: QUQFOY_clean_sbu_1, # of connection points: 4
#     Node 23, Type 0, BuildingBlock: QUQFOY_clean_sbu_1, # of connection points: 4
#     Node 24, Type 0, BuildingBlock: QUQFOY_clean_sbu_1, # of connection points: 4
#     Node 25, Type 0, BuildingBlock: QUQFOY_clean_sbu_1, # of connection points: 4
#     Node 26, Type 0, BuildingBlock: QUQFOY_clean_sbu_1, # of connection points: 4
#     Node 27, Type 0, BuildingBlock: QUQFOY_clean_sbu_1, # of connection points: 4
#     Node 28, Type 0, BuildingBlock: QUQFOY_clean_sbu_1, # of connection points: 4
#     Node 29, Type 0, BuildingBlock: QUQFOY_clean_sbu_1, # of connection points: 4
#     Node 30, Type 0, BuildingBlock: QUQFOY_clean_sbu_1, # of connection points: 4
#     Node 31, Type 0, BuildingBlock: QUQFOY_clean_sbu_1, # of connection points: 4
#     Node 32, Type 0, BuildingBlock: QUQFOY_clean_sbu_1, # of connection points: 4
#     Node 33, Type 0, BuildingBlock: QUQFOY_clean_sbu_1, # of connection points: 4
#     Node 34, Type 0, BuildingBlock: QUQFOY_clean_sbu_1, # of connection points: 4
#     Node 35, Type 0, BuildingBlock: QUQFOY_clean_sbu_1, # of connection points: 4
#     Node 36, Type 0, BuildingBlock: QUQFOY_clean_sbu_1, # of connection points: 4
#     Node 37, Type 0, BuildingBlock: QUQFOY_clean_sbu_1, # of connection points: 4
#     Node 38, Type 0, BuildingBlock: QUQFOY_clean_sbu_1, # of connection points: 4
#     Node 39, Type 0, BuildingBlock: QUQFOY_clean_sbu_1, # of connection points: 4
#     Node 40, Type 0, BuildingBlock: QUQFOY_clean_sbu_1, # of connection points: 4
#     Node 41, Type 0, BuildingBlock: QUQFOY_clean_sbu_1, # of connection points: 4
#     Node 42, Type 0, BuildingBlock: QUQFOY_clean_sbu_1, # of connection points: 4
#     Node 43, Type 0, BuildingBlock: QUQFOY_clean_sbu_1, # of connection points: 4
#     Node 44, Type 0, BuildingBlock: QUQFOY_clean_sbu_1, # of connection points: 4
#     Node 45, Type 0, BuildingBlock: QUQFOY_clean_sbu_1, # of connection points: 4
#     Node 46, Type 0, BuildingBlock: QUQFOY_clean_sbu_1, # of connection points: 4
#     Node 47, Type 0, BuildingBlock: QUQFOY_clean_sbu_1, # of connection points: 4
#     Edge 48, Type (0, 0), BuildingBlock: EZIPEK_clean_linker_0, # of connection points: 2
#     Edge 49, Type (0, 0), BuildingBlock: EZIPEK_clean_linker_0, # of connection points: 2
#     Edge 50, Type (0, 0), BuildingBlock: EZIPEK_clean_linker_0, # of connection points: 2
#     Edge 51, Type (0, 0), BuildingBlock: EZIPEK_clean_linker_0, # of connection points: 2
#     Edge 52, Type (0, 0), BuildingBlock: EZIPEK_clean_linker_0, # of connection points: 2
#     Edge 53, Type (0, 0), BuildingBlock: EZIPEK_clean_linker_0, # of connection points: 2
#     Edge 54, Type (0, 0), BuildingBlock: EZIPEK_clean_linker_0, # of connection points: 2
#     Edge 55, Type (0, 0), BuildingBlock: EZIPEK_clean_linker_0, # of connection points: 2
#     Edge 56, Type (0, 0), BuildingBlock: EZIPEK_clean_linker_0, # of connection points: 2
#     Edge 57, Type (0, 0), BuildingBlock: EZIPEK_clean_linker_0, # of connection points: 2
#     Edge 58, Type (0, 0), BuildingBlock: EZIPEK_clean_linker_0, # of connection points: 2
#     Edge 59, Type (0, 0), BuildingBlock: EZIPEK_clean_linker_0, # of connection points: 2
#     Edge 60, Type (0, 0), BuildingBlock: EZIPEK_clean_linker_0, # of connection points: 2
#     Edge 61, Type (0, 0), BuildingBlock: EZIPEK_clean_linker_0, # of connection points: 2
#     Edge 62, Type (0, 0), BuildingBlock: EZIPEK_clean_linker_0, # of connection points: 2
#     Edge 63, Type (0, 0), BuildingBlock: EZIPEK_clean_linker_0, # of connection points: 2
#     Edge 64, Type (0, 0), BuildingBlock: EZIPEK_clean_linker_0, # of connection points: 2
#     Edge 65, Type (0, 0), BuildingBlock: EZIPEK_clean_linker_0, # of connection points: 2
#     Edge 66, Type (0, 0), BuildingBlock: EZIPEK_clean_linker_0, # of connection points: 2
#     Edge 67, Type (0, 0), BuildingBlock: EZIPEK_clean_linker_0, # of connection points: 2
#     Edge 68, Type (0, 0), BuildingBlock: EZIPEK_clean_linker_0, # of connection points: 2
#     Edge 69, Type (0, 0), BuildingBlock: EZIPEK_clean_linker_0, # of connection points: 2
#     Edge 70, Type (0, 0), BuildingBlock: EZIPEK_clean_linker_0, # of connection points: 2
#     Edge 71, Type (0, 0), BuildingBlock: EZIPEK_clean_linker_0, # of connection points: 2
#     Edge 72, Type (0, 0), BuildingBlock: EZIPEK_clean_linker_0, # of connection points: 2
#     Edge 73, Type (0, 0), BuildingBlock: EZIPEK_clean_linker_0, # of connection points: 2
#     Edge 74, Type (0, 0), BuildingBlock: EZIPEK_clean_linker_0, # of connection points: 2
#     Edge 75, Type (0, 0), BuildingBlock: EZIPEK_clean_linker_0, # of connection points: 2
#     Edge 76, Type (0, 0), BuildingBlock: EZIPEK_clean_linker_0, # of connection points: 2
#     Edge 77, Type (0, 0), BuildingBlock: EZIPEK_clean_linker_0, # of connection points: 2
#     Edge 78, Type (0, 0), BuildingBlock: EZIPEK_clean_linker_0, # of connection points: 2
#     Edge 79, Type (0, 0), BuildingBlock: EZIPEK_clean_linker_0, # of connection points: 2
#     Edge 80, Type (0, 0), BuildingBlock: EZIPEK_clean_linker_0, # of connection points: 2
#     Edge 81, Type (0, 0), BuildingBlock: EZIPEK_clean_linker_0, # of connection points: 2
#     Edge 82, Type (0, 0), BuildingBlock: EZIPEK_clean_linker_0, # of connection points: 2
#     Edge 83, Type (0, 0), BuildingBlock: EZIPEK_clean_linker_0, # of connection points: 2
#     Edge 84, Type (0, 0), BuildingBlock: EZIPEK_clean_linker_0, # of connection points: 2
#     Edge 85, Type (0, 0), BuildingBlock: EZIPEK_clean_linker_0, # of connection points: 2
#     Edge 86, Type (0, 0), BuildingBlock: EZIPEK_clean_linker_0, # of connection points: 2
#     Edge 87, Type (0, 0), BuildingBlock: EZIPEK_clean_linker_0, # of connection points: 2
#     Edge 88, Type (0, 0), BuildingBlock: EZIPEK_clean_linker_0, # of connection points: 2
#     Edge 89, Type (0, 0), BuildingBlock: EZIPEK_clean_linker_0, # of connection points: 2
#     Edge 90, Type (0, 0), BuildingBlock: EZIPEK_clean_linker_0, # of connection points: 2
#     Edge 91, Type (0, 0), BuildingBlock: EZIPEK_clean_linker_0, # of connection points: 2
#     Edge 92, Type (0, 0), BuildingBlock: EZIPEK_clean_linker_0, # of connection points: 2
#     Edge 93, Type (0, 0), BuildingBlock: EZIPEK_clean_linker_0, # of connection points: 2
#     Edge 94, Type (0, 0), BuildingBlock: EZIPEK_clean_linker_0, # of connection points: 2
#     Edge 95, Type (0, 0), BuildingBlock: EZIPEK_clean_linker_0, # of connection points: 2
#     Edge 96, Type (0, 0), BuildingBlock: EZIPEK_clean_linker_0, # of connection points: 2
#     Edge 97, Type (0, 0), BuildingBlock: EZIPEK_clean_linker_0, # of connection points: 2
#     Edge 98, Type (0, 0), BuildingBlock: EZIPEK_clean_linker_0, # of connection points: 2
#     Edge 99, Type (0, 0), BuildingBlock: EZIPEK_clean_linker_0, # of connection points: 2
#     Edge 100, Type (0, 0), BuildingBlock: EZIPEK_clean_linker_0, # of connection points: 2
#     Edge 101, Type (0, 0), BuildingBlock: EZIPEK_clean_linker_0, # of connection points: 2
#     Edge 102, Type (0, 0), BuildingBlock: EZIPEK_clean_linker_0, # of connection points: 2
#     Edge 103, Type (0, 0), BuildingBlock: EZIPEK_clean_linker_0, # of connection points: 2
#     Edge 104, Type (0, 0), BuildingBlock: EZIPEK_clean_linker_0, # of connection points: 2
#     Edge 105, Type (0, 0), BuildingBlock: EZIPEK_clean_linker_0, # of connection points: 2
#     Edge 106, Type (0, 0), BuildingBlock: EZIPEK_clean_linker_0, # of connection points: 2
#     Edge 107, Type (0, 0), BuildingBlock: EZIPEK_clean_linker_0, # of connection points: 2
#     Edge 108, Type (0, 0), BuildingBlock: EZIPEK_clean_linker_0, # of connection points: 2
#     Edge 109, Type (0, 0), BuildingBlock: EZIPEK_clean_linker_0, # of connection points: 2
#     Edge 110, Type (0, 0), BuildingBlock: EZIPEK_clean_linker_0, # of connection points: 2
#     Edge 111, Type (0, 0), BuildingBlock: EZIPEK_clean_linker_0, # of connection points: 2
#     Edge 112, Type (0, 0), BuildingBlock: EZIPEK_clean_linker_0, # of connection points: 2
#     Edge 113, Type (0, 0), BuildingBlock: EZIPEK_clean_linker_0, # of connection points: 2
#     Edge 114, Type (0, 0), BuildingBlock: EZIPEK_clean_linker_0, # of connection points: 2
#     Edge 115, Type (0, 0), BuildingBlock: EZIPEK_clean_linker_0, # of connection points: 2
#     Edge 116, Type (0, 0), BuildingBlock: EZIPEK_clean_linker_0, # of connection points: 2
#     Edge 117, Type (0, 0), BuildingBlock: EZIPEK_clean_linker_0, # of connection points: 2
#     Edge 118, Type (0, 0), BuildingBlock: EZIPEK_clean_linker_0, # of connection points: 2
#     Edge 119, Type (0, 0), BuildingBlock: EZIPEK_clean_linker_0, # of connection points: 2
#     Edge 120, Type (0, 0), BuildingBlock: EZIPEK_clean_linker_0, # of connection points: 2
#     Edge 121, Type (0, 0), BuildingBlock: EZIPEK_clean_linker_0, # of connection points: 2
#     Edge 122, Type (0, 0), BuildingBlock: EZIPEK_clean_linker_0, # of connection points: 2
#     Edge 123, Type (0, 0), BuildingBlock: EZIPEK_clean_linker_0, # of connection points: 2
#     Edge 124, Type (0, 0), BuildingBlock: EZIPEK_clean_linker_0, # of connection points: 2
#     Edge 125, Type (0, 0), BuildingBlock: EZIPEK_clean_linker_0, # of connection points: 2
#     Edge 126, Type (0, 0), BuildingBlock: EZIPEK_clean_linker_0, # of connection points: 2
#     Edge 127, Type (0, 0), BuildingBlock: EZIPEK_clean_linker_0, # of connection points: 2
#     Edge 128, Type (0, 0), BuildingBlock: EZIPEK_clean_linker_0, # of connection points: 2
#     Edge 129, Type (0, 0), BuildingBlock: EZIPEK_clean_linker_0, # of connection points: 2
#     Edge 130, Type (0, 0), BuildingBlock: EZIPEK_clean_linker_0, # of connection points: 2
#     Edge 131, Type (0, 0), BuildingBlock: EZIPEK_clean_linker_0, # of connection points: 2
#     Edge 132, Type (0, 0), BuildingBlock: EZIPEK_clean_linker_0, # of connection points: 2
#     Edge 133, Type (0, 0), BuildingBlock: EZIPEK_clean_linker_0, # of connection points: 2
#     Edge 134, Type (0, 0), BuildingBlock: EZIPEK_clean_linker_0, # of connection points: 2
#     Edge 135, Type (0, 0), BuildingBlock: EZIPEK_clean_linker_0, # of connection points: 2
#     Edge 136, Type (0, 0), BuildingBlock: EZIPEK_clean_linker_0, # of connection points: 2
#     Edge 137, Type (0, 0), BuildingBlock: EZIPEK_clean_linker_0, # of connection points: 2
#     Edge 138, Type (0, 0), BuildingBlock: EZIPEK_clean_linker_0, # of connection points: 2
#     Edge 139, Type (0, 0), BuildingBlock: EZIPEK_clean_linker_0, # of connection points: 2
#     Edge 140, Type (0, 0), BuildingBlock: EZIPEK_clean_linker_0, # of connection points: 2
#     Edge 141, Type (0, 0), BuildingBlock: EZIPEK_clean_linker_0, # of connection points: 2
#     Edge 142, Type (0, 0), BuildingBlock: EZIPEK_clean_linker_0, # of connection points: 2
#     Edge 143, Type (0, 0), BuildingBlock: EZIPEK_clean_linker_0, # of connection points: 2
# Relax obj value: 0.368
# Max RMSD: 0.186
# Mean RMSD: 0.186
data_MOF--net-ukr--node1-QUQFOY_clean_sbu_1--edge1-EZIPEK_clean_linker_0
_symmetry_space_group_name_H-M    P1
_symmetry_Int_Tables_number       1
_symmetry_cell_setting            triclinic
loop_
_symmetry_equiv_pos_as_xyz
'x, y, z'
_cell_length_a     54.95893
_cell_length_b     54.940659
_cell_length_c     54.949934
_cell_angle_alpha  89.982186
_cell_angle_beta   90.02364
_cell_angle_gamma 89.98862
loop_
_atom_site_label
_atom_site_type_symbol
_atom_site_fract_x
_atom_site_fract_y
_atom_site_fract_z
_atom_type_partial_charge
O0 O 0.08561 0.21363 0.20116 0.0
Cd1 Cd 0.08295 0.24656 0.18335 0.0
Cd2 Cd 0.11623 0.25719 0.21518 0.0
O3 O 0.09946 0.22988 0.23456 0.0
O4 O 0.04997 0.24767 0.16911 0.0
O5 O 0.06295 0.27372 0.19717 0.0
C6 C 0.04549 0.26556 0.18366 0.0
C7 C 0.13783 0.28683 0.23743 0.0
C8 C 0.09125 0.21138 0.22343 0.0
C9 C 0.13041 0.24653 0.16314 0.0
O10 O 0.13624 0.24561 0.1855 0.0
O11 O 0.10868 0.25111 0.15685 0.0
O12 O 0.142 0.26396 0.23963 0.0
O13 O 0.1201 0.29309 0.2234 0.0
O14 O 0.27658 0.60489 0.69593 0.0
Cd15 Cd 0.24705 0.59423 0.67524 0.0
Cd16 Cd 0.22625 0.62321 0.70645 0.0
O17 O 0.25387 0.60972 0.72818 0.0
O18 O 0.25599 0.56277 0.65997 0.0
O19 O 0.22625 0.56674 0.68712 0.0
C20 C 0.23946 0.55289 0.67341 0.0
C21 C 0.19068 0.63521 0.72634 0.0
C22 C 0.27483 0.60833 0.7187 0.0
C23 C 0.23736 0.64075 0.65537 0.0
O24 O 0.23595 0.64618 0.67782 0.0
O25 O 0.23677 0.61859 0.64891 0.0
O26 O 0.21076 0.64688 0.72893 0.0
O27 O 0.19055 0.61607 0.71273 0.0
O28 O 0.9149 0.78805 0.19098 0.0
Cd29 Cd 0.91504 0.75402 0.17503 0.0
Cd30 Cd 0.88262 0.74548 0.20813 0.0
O31 O 0.90113 0.77328 0.22513 0.0
O32 O 0.94764 0.74854 0.16082 0.0
O33 O 0.93301 0.72704 0.19163 0.0
C34 C 0.95085 0.73186 0.17709 0.0
C35 C 0.8633 0.71693 0.23358 0.0
C36 C 0.91038 0.79091 0.21343 0.0
C37 C 0.86621 0.75199 0.1563 0.0
O38 O 0.86076 0.75442 0.17866 0.0
O39 O 0.88802 0.74766 0.15005 0.0
O40 O 0.85869 0.73981 0.23458 0.0
O41 O 0.88014 0.71014 0.21873 0.0
O42 O 0.71846 0.40373 0.69491 0.0
Cd43 Cd 0.74974 0.41046 0.67551 0.0
Cd44 Cd 0.76945 0.37717 0.70756 0.0
O45 O 0.73465 0.37832 0.72154 0.0
O46 O 0.74522 0.4433 0.66104 0.0
O47 O 0.77399 0.43469 0.68811 0.0
C48 C 0.76274 0.45059 0.67486 0.0
C49 C 0.8004 0.36663 0.73506 0.0
C50 C 0.71631 0.38949 0.71298 0.0
C51 C 0.76664 0.36458 0.65308 0.0
O52 O 0.77239 0.35929 0.67486 0.0
O53 O 0.75733 0.38526 0.64855 0.0
O54 O 0.78375 0.35151 0.72885 0.0
O55 O 0.79962 0.38829 0.72606 0.0
O56 O 0.1086 0.79329 0.80042 0.0
Cd57 Cd 0.09574 0.76656 0.82319 0.0
Cd58 Cd 0.12334 0.73648 0.79643 0.0
O59 O 0.11796 0.76584 0.77302 0.0
O60 O 0.06215 0.77453 0.83331 0.0
O61 O 0.07161 0.74299 0.80965 0.0
C62 C 0.05531 0.75606 0.82049 0.0
C63 C 0.13181 0.7001 0.77614 0.0
C64 C 0.11507 0.788 0.7789 0.0
C65 C 0.13657 0.74635 0.85015 0.0
O66 O 0.14289 0.73923 0.82902 0.0
O67 O 0.11655 0.75749 0.85259 0.0
O68 O 0.14724 0.71761 0.777 0.0
O69 O 0.11102 0.703 0.78664 0.0
O70 O 0.71705 0.60406 0.3027 0.0
Cd71 Cd 0.7441 0.59207 0.32595 0.0
Cd72 Cd 0.7683 0.62693 0.30263 0.0
O73 O 0.74513 0.61299 0.27612 0.0
O74 O 0.73759 0.5577 0.33401 0.0
O75 O 0.77013 0.57006 0.31323 0.0
C76 C 0.75733 0.55255 0.32237 0.0
C77 C 0.80019 0.65035 0.286 0.0
C78 C 0.72284 0.60986 0.28114 0.0
C79 C 0.75021 0.63446 0.35464 0.0
O80 O 0.75471 0.64376 0.33391 0.0
O81 O 0.74906 0.61158 0.35707 0.0
O82 O 0.77771 0.65617 0.28384 0.0
O83 O 0.80498 0.63049 0.29754 0.0
O84 O 0.89893 0.22349 0.81223 0.0
Cd85 Cd 0.90653 0.25007 0.83751 0.0
Cd86 Cd 0.86583 0.27185 0.81876 0.0
O87 O 0.86458 0.23978 0.79917 0.0
O88 O 0.94033 0.24241 0.84796 0.0
O89 O 0.92995 0.27742 0.83089 0.0
C90 C 0.94665 0.26347 0.83982 0.0
C91 C 0.8553 0.30692 0.797 0.0
C92 C 0.87988 0.22245 0.79919 0.0
C93 C 0.86468 0.25785 0.8718 0.0
O94 O 0.85425 0.26896 0.85436 0.0
O95 O 0.88568 0.24875 0.86866 0.0
O96 O 0.8393 0.29102 0.80319 0.0
O97 O 0.87755 0.30346 0.8037 0.0
O98 O 0.28228 0.41417 0.29589 0.0
Cd99 Cd 0.25496 0.41702 0.32148 0.0
Cd100 Cd 0.23814 0.37806 0.29764 0.0
O101 O 0.26166 0.39075 0.27129 0.0
O102 O 0.2563 0.45124 0.33251 0.0
O103 O 0.22444 0.43547 0.31329 0.0
C104 C 0.23518 0.45415 0.32272 0.0
C105 C 0.20572 0.3544 0.28244 0.0
C106 C 0.28027 0.40379 0.27536 0.0
C107 C 0.25935 0.37199 0.34854 0.0
O108 O 0.25385 0.36251 0.32818 0.0
O109 O 0.25862 0.39488 0.35145 0.0
O110 O 0.22812 0.34865 0.2793 0.0
O111 O 0.20138 0.37432 0.29405 0.0
O112 O 0.20229 0.09005 0.21486 0.0
Cd113 Cd 0.17961 0.08854 0.24479 0.0
Cd114 Cd 0.20469 0.12887 0.25833 0.0
O115 O 0.22774 0.11555 0.23168 0.0
O116 O 0.1679 0.05451 0.24523 0.0
O117 O 0.19107 0.07022 0.27434 0.0
C118 C 0.18009 0.0516 0.26507 0.0
C119 C 0.2236 0.15064 0.2901 0.0
C120 C 0.22275 0.10071 0.21467 0.0
C121 C 0.15121 0.13399 0.24589 0.0
O122 O 0.17172 0.14438 0.24851 0.0
O123 O 0.14959 0.11095 0.24598 0.0
O124 O 0.22447 0.15755 0.26778 0.0
O125 O 0.2124 0.1305 0.29453 0.0
O126 O 0.40797 0.68125 0.71104 0.0
Cd127 Cd 0.41239 0.66484 0.74464 0.0
Cd128 Cd 0.3814 0.69922 0.7568 0.0
O129 O 0.39491 0.7158 0.72634 0.0
O130 O 0.44498 0.64963 0.74525 0.0
O131 O 0.43434 0.68096 0.76869 0.0
C132 C 0.45089 0.66606 0.76099 0.0
C133 C 0.36162 0.72401 0.78583 0.0
C134 C 0.40095 0.70308 0.70806 0.0
C135 C 0.36365 0.64757 0.75119 0.0
O136 O 0.35917 0.67016 0.74924 0.0
O137 O 0.38541 0.64037 0.75413 0.0
O138 O 0.35665 0.72481 0.76307 0.0
O139 O 0.37951 0.71028 0.79224 0.0
O140 O 0.80705 0.91256 0.21537 0.0
Cd141 Cd 0.82999 0.91508 0.24498 0.0
Cd142 Cd 0.80558 0.8747 0.25907 0.0
O143 O 0.78202 0.88667 0.23235 0.0
O144 O 0.84112 0.94931 0.24474 0.0
O145 O 0.81918 0.93347 0.2747 0.0
C146 C 0.82958 0.95218 0.26495 0.0
C147 C 0.78745 0.85244 0.29099 0.0
C148 C 0.78711 0.90097 0.21492 0.0
C149 C 0.85869 0.87016 0.24435 0.0
O150 O 0.83838 0.85972 0.2481 0.0
O151 O 0.86037 0.89319 0.24473 0.0
O152 O 0.78666 0.84545 0.2687 0.0
O153 O 0.79823 0.87282 0.29535 0.0
O154 O 0.58784 0.30159 0.71661 0.0
Cd155 Cd 0.58325 0.32256 0.74737 0.0
Cd156 Cd 0.61787 0.29206 0.76265 0.0
O157 O 0.60273 0.27035 0.73606 0.0
O158 O 0.55055 0.33744 0.74403 0.0
O159 O 0.56016 0.31105 0.77317 0.0
C160 C 0.54397 0.32425 0.7623 0.0
C161 C 0.64031 0.27177 0.79324 0.0
C162 C 0.59424 0.27939 0.71657 0.0
C163 C 0.63082 0.34386 0.74898 0.0
O164 O 0.63733 0.32172 0.7502 0.0
O165 O 0.60862 0.34975 0.75136 0.0
O166 O 0.64464 0.26908 0.77048 0.0
O167 O 0.62199 0.28524 0.79895 0.0
O168 O 0.19455 0.90942 0.77812 0.0
Cd169 Cd 0.17544 0.91526 0.74643 0.0
Cd170 Cd 0.20642 0.8825 0.72747 0.0
O171 O 0.22061 0.88339 0.76213 0.0
O172 O 0.16284 0.94906 0.74802 0.0
O173 O 0.18941 0.93651 0.72028 0.0
C174 C 0.17717 0.95407 0.73008 0.0
C175 C 0.23359 0.87204 0.69632 0.0
C176 C 0.21226 0.89476 0.78042 0.0
C177 C 0.15246 0.86927 0.7313 0.0
O178 O 0.17409 0.86402 0.72506 0.0
O179 O 0.14809 0.89016 0.7402 0.0
O180 O 0.22785 0.85707 0.71327 0.0
O181 O 0.22449 0.89365 0.69705 0.0
O182 O 0.61136 0.69189 0.27972 0.0
Cd183 Cd 0.59837 0.67068 0.25174 0.0
Cd184 Cd 0.62458 0.70112 0.22479 0.0
O185 O 0.61935 0.7225 0.25539 0.0
O186 O 0.56446 0.66065 0.25852 0.0
O187 O 0.57502 0.68487 0.22777 0.0
C188 C 0.5582 0.67412 0.24027 0.0
C189 C 0.6348 0.72414 0.19041 0.0
C190 C 0.61794 0.71381 0.27672 0.0
C191 C 0.64152 0.64783 0.23394 0.0
O192 O 0.64578 0.66981 0.22788 0.0
O193 O 0.62084 0.64251 0.24263 0.0
O194 O 0.64921 0.72203 0.20862 0.0
O195 O 0.61407 0.71319 0.19129 0.0
O196 O 0.79457 0.09129 0.7894 0.0
Cd197 Cd 0.81533 0.08989 0.75814 0.0
Cd198 Cd 0.78408 0.12291 0.74462 0.0
O199 O 0.7634 0.10973 0.77292 0.0
O200 O 0.83097 0.05743 0.75966 0.0
O201 O 0.80474 0.06812 0.73081 0.0
C202 C 0.81797 0.05154 0.74103 0.0
C203 C 0.76468 0.1344 0.70871 0.0
C204 C 0.77271 0.09857 0.7909 0.0
C205 C 0.83529 0.13854 0.75724 0.0
O206 O 0.8131 0.14454 0.75488 0.0
O207 O 0.84167 0.1164 0.75531 0.0
O208 O 0.76194 0.14651 0.72854 0.0
O209 O 0.77805 0.11508 0.70914 0.0
O210 O 0.39135 0.30836 0.27286 0.0
Cd211 Cd 0.40219 0.32853 0.24303 0.0
Cd212 Cd 0.37044 0.30152 0.22222 0.0
O213 O 0.38237 0.27789 0.24903 0.0
O214 O 0.4362 0.33856 0.24867 0.0
O215 O 0.42492 0.31309 0.21921 0.0
C216 C 0.44201 0.32411 0.23108 0.0
C217 C 0.35739 0.28226 0.18676 0.0
C218 C 0.3859 0.28607 0.27028 0.0
C219 C 0.35829 0.35392 0.23519 0.0
O220 O 0.35048 0.33227 0.23252 0.0
O221 O 0.38098 0.35798 0.23496 0.0
O222 O 0.34484 0.28156 0.20647 0.0
O223 O 0.37756 0.29428 0.18674 0.0
O224 O 0.21388 0.18994 0.0995 0.0
Cd225 Cd 0.24428 0.17003 0.09079 0.0
Cd226 Cd 0.2653 0.19507 0.12689 0.0
O227 O 0.23163 0.21131 0.12849 0.0
O228 O 0.23845 0.15832 0.05717 0.0
O229 O 0.26807 0.18408 0.06687 0.0
C230 C 0.25607 0.17226 0.05044 0.0
C231 C 0.29833 0.22095 0.13302 0.0
C232 C 0.2129 0.20597 0.11607 0.0
C233 C 0.26017 0.14067 0.13368 0.0
O234 O 0.2673 0.16093 0.14229 0.0
O235 O 0.25082 0.14003 0.11255 0.0
O236 O 0.28394 0.21505 0.15047 0.0
O237 O 0.29434 0.212 0.11168 0.0
O238 O 0.21697 0.79658 0.90632 0.0
Cd239 Cd 0.24647 0.81953 0.90998 0.0
Cd240 Cd 0.26316 0.79268 0.87321 0.0
O241 O 0.23739 0.76888 0.88657 0.0
O242 O 0.24496 0.83142 0.94394 0.0
O243 O 0.27522 0.8087 0.92976 0.0
C244 C 0.26478 0.81947 0.94788 0.0
C245 C 0.295 0.77419 0.85109 0.0
C246 C 0.21824 0.77515 0.89783 0.0
C247 C 0.24667 0.84462 0.86383 0.0
O248 O 0.25039 0.82338 0.85549 0.0
O249 O 0.24733 0.84864 0.88656 0.0
O250 O 0.27251 0.77189 0.84528 0.0
O251 O 0.29972 0.78662 0.8704 0.0
O252 O 0.69738 0.7162 0.40783 0.0
Cd253 Cd 0.68009 0.7494 0.41068 0.0
Cd254 Cd 0.71496 0.75927 0.38089 0.0
O255 O 0.73247 0.73338 0.40151 0.0
O256 O 0.66376 0.74872 0.4427 0.0
O257 O 0.6947 0.77332 0.4338 0.0
C258 C 0.67995 0.76423 0.44976 0.0
C259 C 0.73862 0.78793 0.35952 0.0
C260 C 0.7204 0.7145 0.40704 0.0
C261 C 0.66444 0.75095 0.36193 0.0
O262 O 0.68702 0.74694 0.35889 0.0
O263 O 0.65679 0.75796 0.38257 0.0
O264 O 0.74149 0.76489 0.35693 0.0
O265 O 0.72323 0.79496 0.37577 0.0
O266 O 0.78002 0.19377 0.91992 0.0
Cd267 Cd 0.74785 0.17422 0.91961 0.0
Cd268 Cd 0.73836 0.20162 0.88022 0.0
O269 O 0.76828 0.22038 0.89243 0.0
O270 O 0.74482 0.16165 0.95318 0.0
O271 O 0.7192 0.18853 0.93716 0.0
C272 C 0.7266 0.17621 0.9558 0.0
C273 C 0.70821 0.22355 0.85902 0.0
C274 C 0.7841 0.21277 0.90744 0.0
C275 C 0.74604 0.14793 0.87281 0.0
O276 O 0.74536 0.169 0.86336 0.0
O277 O 0.74486 0.14524 0.89575 0.0
O278 O 0.70291 0.21224 0.87888 0.0
O279 O 0.73061 0.22331 0.85242 0.0
O280 O 0.32125 0.28681 0.40409 0.0
Cd281 Cd 0.33652 0.25262 0.40799 0.0
Cd282 Cd 0.30045 0.2423 0.37807 0.0
O283 O 0.28545 0.27304 0.39279 0.0
O284 O 0.35222 0.25099 0.4404 0.0
O285 O 0.31991 0.22888 0.42993 0.0
C286 C 0.33523 0.2359 0.44641 0.0
C287 C 0.27463 0.2143 0.35792 0.0
C288 C 0.29931 0.29076 0.39799 0.0
C289 C 0.35162 0.24721 0.35863 0.0
O290 O 0.32893 0.24999 0.35527 0.0
O291 O 0.35968 0.243 0.37989 0.0
O292 O 0.27384 0.23726 0.35396 0.0
O293 O 0.28883 0.20711 0.37512 0.0
O294 O 0.78141 0.80112 0.09562 0.0
Cd295 Cd 0.7519 0.82403 0.0908 0.0
Cd296 Cd 0.73478 0.79913 0.12791 0.0
O297 O 0.76398 0.77665 0.12176 0.0
O298 O 0.75594 0.8367 0.05728 0.0
O299 O 0.72455 0.81397 0.06861 0.0
C300 C 0.73622 0.82535 0.05166 0.0
C301 C 0.69781 0.78025 0.13617 0.0
C302 C 0.782 0.78176 0.10824 0.0
C303 C 0.7482 0.85167 0.13643 0.0
O304 O 0.74269 0.83125 0.14578 0.0
O305 O 0.75007 0.85384 0.1135 0.0
O306 O 0.71514 0.78067 0.15189 0.0
O307 O 0.70111 0.79088 0.11548 0.0
O308 O 0.70255 0.28605 0.60617 0.0
Cd309 Cd 0.67981 0.25801 0.59534 0.0
Cd310 Cd 0.70373 0.23405 0.62867 0.0
O311 O 0.72955 0.25976 0.6188 0.0
O312 O 0.67086 0.26239 0.56076 0.0
O313 O 0.69247 0.23095 0.57448 0.0
C314 C 0.68244 0.24239 0.5565 0.0
C315 C 0.72004 0.19741 0.64268 0.0
C316 C 0.72384 0.28157 0.61392 0.0
C317 C 0.65154 0.25021 0.63839 0.0
O318 O 0.67223 0.24469 0.64723 0.0
O319 O 0.64911 0.25311 0.61565 0.0
O320 O 0.7214 0.21707 0.65524 0.0
O321 O 0.70942 0.1982 0.62176 0.0
O322 O 0.2902 0.72449 0.59288 0.0
Cd323 Cd 0.31699 0.75057 0.58842 0.0
Cd324 Cd 0.29919 0.76725 0.62946 0.0
O325 O 0.27338 0.74033 0.62533 0.0
O326 O 0.32602 0.7479 0.55368 0.0
O327 O 0.31013 0.78138 0.5697 0.0
C328 C 0.31809 0.76978 0.55088 0.0
C329 C 0.28524 0.80562 0.64072 0.0
C330 C 0.27366 0.72397 0.60899 0.0
C331 C 0.35005 0.74672 0.63048 0.0
O332 O 0.33234 0.75538 0.64253 0.0
O333 O 0.34873 0.74467 0.60752 0.0
O334 O 0.28613 0.78791 0.65602 0.0
O335 O 0.2928 0.80189 0.61879 0.0
O336 O 0.89688 0.78819 0.79085 0.0
Cd337 Cd 0.91071 0.76415 0.81631 0.0
Cd338 Cd 0.87866 0.7346 0.79629 0.0
O339 O 0.88159 0.75921 0.76802 0.0
O340 O 0.94393 0.7752 0.82466 0.0
O341 O 0.93598 0.73938 0.80752 0.0
C342 C 0.95163 0.75482 0.81592 0.0
C343 C 0.86968 0.69505 0.78328 0.0
C344 C 0.88632 0.78155 0.7714 0.0
C345 C 0.86879 0.75659 0.84639 0.0
O346 O 0.86036 0.74696 0.82711 0.0
O347 O 0.89113 0.76208 0.84784 0.0
O348 O 0.8539 0.71225 0.78235 0.0
O349 O 0.89082 0.69984 0.7923 0.0
O350 O 0.70627 0.40731 0.30179 0.0
Cd351 Cd 0.73866 0.41167 0.3202 0.0
Cd352 Cd 0.75146 0.37725 0.29012 0.0
O353 O 0.72336 0.39145 0.26969 0.0
O354 O 0.73763 0.44479 0.33406 0.0
O355 O 0.76447 0.43317 0.30607 0.0
C356 C 0.75522 0.45015 0.31949 0.0
C357 C 0.78254 0.35604 0.26963 0.0
C358 C 0.70462 0.40038 0.27982 0.0
C359 C 0.74148 0.36498 0.34268 0.0
O360 O 0.74105 0.35798 0.32067 0.0
O361 O 0.74435 0.38728 0.34784 0.0
O362 O 0.75997 0.35054 0.26739 0.0
O363 O 0.78765 0.375 0.28246 0.0
O364 O 0.08289 0.2132 0.80154 0.0
Cd365 Cd 0.08498 0.24248 0.82546 0.0
Cd366 Cd 0.13143 0.26227 0.77275 0.0
O367 O 0.10105 0.24108 0.78059 0.0
O368 O 0.05823 0.26438 0.8144 0.0
O369 O 0.05987 0.24934 0.85131 0.0
C370 C 0.04865 0.26288 0.83571 0.0
C371 C 0.13487 0.28921 0.74032 0.0
C372 C 0.09717 0.21845 0.78412 0.0
C373 C 0.13968 0.26068 0.82174 0.0
O374 O 0.15259 0.26719 0.80369 0.0
O375 O 0.1167 0.2623 0.81888 0.0
O376 O 0.1225 0.29468 0.75954 0.0
O377 O 0.14493 0.26789 0.73963 0.0
O378 O 0.28035 0.59861 0.30403 0.0
Cd379 Cd 0.24917 0.59419 0.32465 0.0
Cd380 Cd 0.23535 0.63379 0.30051 0.0
O381 O 0.26718 0.6292 0.28162 0.0
O382 O 0.25137 0.5602 0.33645 0.0
O383 O 0.2218 0.57323 0.31223 0.0
C384 C 0.23226 0.55555 0.32369 0.0
C385 C 0.2006 0.64568 0.27942 0.0
C386 C 0.28387 0.61434 0.28744 0.0
C387 C 0.24466 0.63881 0.35424 0.0
O388 O 0.24014 0.64922 0.33413 0.0
O389 O 0.24668 0.61581 0.35534 0.0
O390 O 0.21867 0.66022 0.28247 0.0
O391 O 0.20211 0.6239 0.2881 0.0
O392 O 0.90621 0.21306 0.1961 0.0
Cd393 Cd 0.90745 0.24481 0.17598 0.0
Cd394 Cd 0.87313 0.25751 0.20608 0.0
O395 O 0.89148 0.23247 0.22736 0.0
O396 O 0.94088 0.24703 0.16301 0.0
O397 O 0.92595 0.27237 0.19086 0.0
C398 C 0.94423 0.2646 0.17824 0.0
C399 C 0.85148 0.28848 0.22598 0.0
C400 C 0.90189 0.21372 0.21877 0.0
C401 C 0.85979 0.2467 0.15429 0.0
O402 O 0.85313 0.24567 0.17641 0.0
O403 O 0.88202 0.24997 0.14902 0.0
O404 O 0.84705 0.2658 0.22951 0.0
O405 O 0.86969 0.29383 0.21217 0.0
O406 O 0.28478 0.39614 0.69441 0.0
Cd407 Cd 0.2612 0.40908 0.66798 0.0
Cd408 Cd 0.23369 0.37356 0.68704 0.0
O409 O 0.25463 0.38293 0.71686 0.0
O410 O 0.26944 0.44354 0.66114 0.0
O411 O 0.23423 0.43178 0.6773 0.0
C412 C 0.2484 0.44909 0.66996 0.0
C413 C 0.19666 0.35471 0.69628 0.0
C414 C 0.27709 0.38757 0.71444 0.0
C415 C 0.25789 0.36692 0.63762 0.0
O416 O 0.25004 0.35734 0.65714 0.0
O417 O 0.26032 0.38981 0.63607 0.0
O418 O 0.21716 0.34429 0.70035 0.0
O419 O 0.19686 0.37636 0.68717 0.0
O420 O 0.09008 0.78493 0.2008 0.0
Cd421 Cd 0.08833 0.75397 0.17937 0.0
Cd422 Cd 0.12788 0.74123 0.20467 0.0
O423 O 0.12127 0.77309 0.22306 0.0
O424 O 0.05459 0.75359 0.16671 0.0
O425 O 0.06917 0.7253 0.19162 0.0
C426 C 0.05107 0.73431 0.1796 0.0
C427 C 0.13918 0.70708 0.22693 0.0
C428 C 0.1053 0.78893 0.21772 0.0
C429 C 0.13417 0.74914 0.15095 0.0
O430 O 0.14419 0.74495 0.17133 0.0
O431 O 0.11124 0.75179 0.14948 0.0
O432 O 0.1536 0.72532 0.22434 0.0
O433 O 0.11784 0.70811 0.21716 0.0
O434 O 0.72621 0.60564 0.69581 0.0
Cd435 Cd 0.7551 0.59559 0.67416 0.0
Cd436 Cd 0.7801 0.61939 0.70834 0.0
O437 O 0.74964 0.60875 0.72794 0.0
O438 O 0.74852 0.56324 0.65951 0.0
O439 O 0.77749 0.57 0.68707 0.0
C440 C 0.76547 0.55492 0.67354 0.0
C441 C 0.8138 0.62922 0.73259 0.0
C442 C 0.72853 0.6083 0.71864 0.0
C443 C 0.77245 0.64173 0.65702 0.0
O444 O 0.7764 0.64412 0.67974 0.0
O445 O 0.76556 0.62117 0.64912 0.0
O446 O 0.79433 0.64208 0.73264 0.0
O447 O 0.8143 0.60996 0.71919 0.0
O448 O 0.80315 0.8966 0.77594 0.0
Cd449 Cd 0.82355 0.9076 0.74645 0.0
Cd450 Cd 0.78939 0.88438 0.7224 0.0
O451 O 0.77025 0.89352 0.75363 0.0
O452 O 0.83721 0.94044 0.75231 0.0
O453 O 0.80905 0.9324 0.72424 0.0
C454 C 0.82239 0.94807 0.73571 0.0
C455 C 0.76522 0.87621 0.68831 0.0
C456 C 0.78031 0.89351 0.77441 0.0
C457 C 0.84086 0.86226 0.72792 0.0
O458 O 0.81806 0.85963 0.72479 0.0
O459 O 0.84874 0.88284 0.73478 0.0
O460 O 0.76507 0.86248 0.70718 0.0
O461 O 0.77859 0.8955 0.68873 0.0
O462 O 0.5833 0.29033 0.29002 0.0
Cd463 Cd 0.58085 0.31333 0.26028 0.0
Cd464 Cd 0.6195 0.28845 0.24534 0.0
O465 O 0.61158 0.26668 0.27486 0.0
O466 O 0.54719 0.32601 0.26126 0.0
O467 O 0.56125 0.30298 0.23118 0.0
C468 C 0.5434 0.31462 0.24111 0.0
C469 C 0.63066 0.26932 0.20936 0.0
C470 C 0.59638 0.27136 0.29162 0.0
C471 C 0.62636 0.34181 0.2563 0.0
O472 O 0.63634 0.32147 0.25171 0.0
O473 O 0.60345 0.34327 0.25886 0.0
O474 O 0.64492 0.26976 0.22792 0.0
O475 O 0.60954 0.27947 0.2111 0.0
O476 O 0.20511 0.09599 0.77617 0.0
Cd477 Cd 0.18383 0.0958 0.74519 0.0
Cd478 Cd 0.21377 0.13132 0.73381 0.0
O479 O 0.23511 0.11763 0.7615 0.0
O480 O 0.16755 0.06356 0.74694 0.0
O481 O 0.19397 0.07341 0.71805 0.0
C482 C 0.18048 0.05719 0.72846 0.0
C483 C 0.23146 0.14294 0.69722 0.0
C484 C 0.22659 0.10424 0.77831 0.0
C485 C 0.16217 0.14452 0.74603 0.0
O486 O 0.18407 0.15171 0.74453 0.0
O487 O 0.15698 0.12212 0.74343 0.0
O488 O 0.2348 0.15526 0.71685 0.0
O489 O 0.21848 0.12337 0.69824 0.0
O490 O 0.40962 0.70621 0.28366 0.0
Cd491 Cd 0.41491 0.68342 0.25418 0.0
Cd492 Cd 0.37738 0.70963 0.23704 0.0
O493 O 0.38544 0.73233 0.26573 0.0
O494 O 0.44774 0.66947 0.25985 0.0
O495 O 0.43894 0.69312 0.2283 0.0
C496 C 0.4548 0.6809 0.24066 0.0
C497 C 0.36382 0.72707 0.20081 0.0
C498 C 0.39813 0.72626 0.28409 0.0
C499 C 0.36886 0.65691 0.25061 0.0
O500 O 0.35989 0.67774 0.24618 0.0
O501 O 0.39174 0.65403 0.25163 0.0
O502 O 0.35083 0.72747 0.22023 0.0
O503 O 0.3851 0.71718 0.20177 0.0
O504 O 0.80663 0.09769 0.22337 0.0
Cd505 Cd 0.82982 0.09234 0.25232 0.0
Cd506 Cd 0.80776 0.13151 0.27105 0.0
O507 O 0.7887 0.13013 0.23877 0.0
O508 O 0.84105 0.05829 0.24882 0.0
O509 O 0.81902 0.07116 0.28015 0.0
C510 C 0.82958 0.05354 0.26871 0.0
C511 C 0.78489 0.14066 0.30551 0.0
C512 C 0.79136 0.11493 0.22159 0.0
C513 C 0.86165 0.13552 0.26117 0.0
O514 O 0.84246 0.14559 0.26923 0.0
O515 O 0.86066 0.1138 0.25336 0.0
O516 O 0.78992 0.15692 0.28945 0.0
O517 O 0.79315 0.11888 0.30241 0.0
O518 O 0.38977 0.30514 0.72451 0.0
Cd519 Cd 0.4 0.32704 0.75314 0.0
Cd520 Cd 0.37353 0.29512 0.77767 0.0
O521 O 0.38351 0.27368 0.74818 0.0
O522 O 0.43318 0.3395 0.74668 0.0
O523 O 0.42415 0.31453 0.77731 0.0
C524 C 0.44028 0.32632 0.76484 0.0
C525 C 0.36149 0.27348 0.81233 0.0
C526 C 0.38536 0.2826 0.72697 0.0
C527 C 0.3544 0.34722 0.76727 0.0
O528 O 0.35071 0.3248 0.77183 0.0
O529 O 0.37564 0.35395 0.76131 0.0
O530 O 0.34908 0.27306 0.79258 0.0
O531 O 0.38148 0.28575 0.81266 0.0
O532 O 0.19888 0.90491 0.22211 0.0
Cd533 Cd 0.17696 0.91173 0.25174 0.0
Cd534 Cd 0.19745 0.87228 0.2704 0.0
O535 O 0.21566 0.87188 0.2376 0.0
O536 O 0.16708 0.9462 0.2484 0.0
O537 O 0.18908 0.93244 0.2794 0.0
C538 C 0.17891 0.95046 0.26819 0.0
C539 C 0.21978 0.86198 0.30489 0.0
C540 C 0.21301 0.88674 0.2201 0.0
C541 C 0.14362 0.86993 0.26058 0.0
O542 O 0.16238 0.85931 0.26893 0.0
O543 O 0.14525 0.89168 0.25295 0.0
O544 O 0.21413 0.84606 0.28873 0.0
O545 O 0.21281 0.88418 0.30172 0.0
O546 O 0.60026 0.6823 0.71844 0.0
Cd547 Cd 0.59341 0.66411 0.75061 0.0
Cd548 Cd 0.62394 0.69752 0.76618 0.0
O549 O 0.61096 0.71625 0.73655 0.0
O550 O 0.56037 0.65022 0.74801 0.0
O551 O 0.5706 0.67899 0.77466 0.0
C552 C 0.55403 0.66558 0.76464 0.0
C553 C 0.64383 0.72105 0.79621 0.0
C554 C 0.60642 0.70454 0.7172 0.0
C555 C 0.64118 0.64559 0.75763 0.0
O556 O 0.64579 0.66826 0.75756 0.0
O557 O 0.61931 0.63842 0.75955 0.0
O558 O 0.64934 0.72206 0.77359 0.0
O559 O 0.62558 0.70755 0.80202 0.0
O560 O 0.78433 0.81763 0.90433 0.0
Cd561 Cd 0.75114 0.83427 0.91018 0.0
Cd562 Cd 0.73773 0.80067 0.87926 0.0
O563 O 0.76812 0.78323 0.89208 0.0
O564 O 0.75139 0.84788 0.94347 0.0
O565 O 0.72712 0.81761 0.93175 0.0
C566 C 0.73553 0.83139 0.94891 0.0
C567 C 0.70813 0.77618 0.85986 0.0
C568 C 0.78678 0.79574 0.89732 0.0
C569 C 0.74458 0.85261 0.86205 0.0
O570 O 0.74556 0.83 0.8573 0.0
O571 O 0.74194 0.85962 0.88392 0.0
O572 O 0.73075 0.77552 0.8543 0.0
O573 O 0.70214 0.78986 0.87792 0.0
O574 O 0.77334 0.20148 0.09619 0.0
Cd575 Cd 0.74244 0.18013 0.09402 0.0
Cd576 Cd 0.72932 0.20742 0.12993 0.0
O577 O 0.75716 0.22981 0.11894 0.0
O578 O 0.74271 0.16716 0.06045 0.0
O579 O 0.71368 0.19147 0.07447 0.0
C580 C 0.72324 0.17967 0.05652 0.0
C581 C 0.69326 0.225 0.14331 0.0
C582 C 0.77488 0.22225 0.10619 0.0
C583 C 0.74366 0.15544 0.14039 0.0
O584 O 0.74045 0.17681 0.14857 0.0
O585 O 0.74163 0.15123 0.11779 0.0
O586 O 0.71305 0.22672 0.15567 0.0
O587 O 0.69373 0.21355 0.12282 0.0
O588 O 0.31557 0.28273 0.58946 0.0
Cd589 Cd 0.33357 0.24971 0.58817 0.0
Cd590 Cd 0.29819 0.23832 0.61659 0.0
O591 O 0.28067 0.26705 0.60019 0.0
O592 O 0.34975 0.24931 0.55598 0.0
O593 O 0.31967 0.22425 0.56618 0.0
C594 C 0.33407 0.23296 0.54972 0.0
C595 C 0.27639 0.20418 0.62913 0.0
C596 C 0.29274 0.28507 0.59221 0.0
C597 C 0.34847 0.24593 0.63779 0.0
O598 O 0.32557 0.24723 0.64072 0.0
O599 O 0.35707 0.24242 0.61663 0.0
O600 O 0.27335 0.22506 0.63924 0.0
O601 O 0.29086 0.20271 0.61069 0.0
O602 O 0.21725 0.79706 0.09077 0.0
Cd603 Cd 0.24877 0.81746 0.08842 0.0
Cd604 Cd 0.26191 0.78807 0.12341 0.0
O605 O 0.23299 0.76719 0.11188 0.0
O606 O 0.24761 0.83191 0.05541 0.0
O607 O 0.27587 0.80546 0.06707 0.0
C608 C 0.26603 0.8184 0.05005 0.0
C609 C 0.29768 0.76903 0.13582 0.0
C610 C 0.2153 0.77586 0.09978 0.0
C611 C 0.25056 0.84034 0.13593 0.0
O612 O 0.25271 0.81855 0.14331 0.0
O613 O 0.25196 0.84525 0.11339 0.0
O614 O 0.27791 0.76722 0.1482 0.0
O615 O 0.29722 0.78109 0.11566 0.0
O616 O 0.70869 0.71798 0.60352 0.0
Cd617 Cd 0.68278 0.7429 0.59209 0.0
Cd618 Cd 0.70397 0.77069 0.62369 0.0
O619 O 0.73212 0.74611 0.61944 0.0
O620 O 0.67414 0.73648 0.55773 0.0
O621 O 0.69166 0.77078 0.57036 0.0
C622 C 0.68309 0.75765 0.55281 0.0
C623 C 0.71648 0.81049 0.63198 0.0
C624 C 0.72843 0.72398 0.61394 0.0
C625 C 0.65452 0.74831 0.63546 0.0
O626 O 0.67412 0.75788 0.64318 0.0
O627 O 0.65207 0.74333 0.61307 0.0
O628 O 0.71862 0.79334 0.64771 0.0
O629 O 0.70672 0.80545 0.61124 0.0
O630 O 0.20658 0.19313 0.89624 0.0
Cd631 Cd 0.23708 0.17376 0.90729 0.0
Cd632 Cd 0.25919 0.19959 0.87347 0.0
O633 O 0.22708 0.21865 0.87304 0.0
O634 O 0.23173 0.16288 0.94127 0.0
O635 O 0.26159 0.1879 0.93037 0.0
C636 C 0.2502 0.1761 0.94725 0.0
C637 C 0.29517 0.22133 0.86707 0.0
C638 C 0.20713 0.21155 0.88226 0.0
C639 C 0.25155 0.14591 0.86415 0.0
O640 O 0.25725 0.16666 0.85574 0.0
O641 O 0.24536 0.14377 0.88628 0.0
O642 O 0.27929 0.21853 0.85015 0.0
O643 O 0.29075 0.21205 0.88817 0.0
O644 O 0.30064 0.72104 0.41079 0.0
Cd645 Cd 0.32135 0.7524 0.41235 0.0
Cd646 Cd 0.29326 0.76565 0.37633 0.0
O647 O 0.27255 0.73626 0.38701 0.0
O648 O 0.3345 0.75272 0.44583 0.0
O649 O 0.30859 0.78045 0.43193 0.0
C650 C 0.32079 0.77134 0.44986 0.0
C651 C 0.27303 0.8011 0.36532 0.0
C652 C 0.27998 0.71914 0.40066 0.0
C653 C 0.34615 0.75602 0.36534 0.0
O654 O 0.32473 0.75858 0.35703 0.0
O655 O 0.34984 0.75568 0.38815 0.0
O656 O 0.27254 0.78202 0.35178 0.0
O657 O 0.2848 0.80022 0.38564 0.0
O658 O 0.69289 0.27657 0.40594 0.0
Cd659 Cd 0.67527 0.2444 0.4139 0.0
Cd660 Cd 0.6995 0.22918 0.37476 0.0
O661 O 0.71669 0.26213 0.37705 0.0
O662 O 0.66387 0.24958 0.44768 0.0
O663 O 0.6906 0.22103 0.43762 0.0
C664 C 0.67857 0.23254 0.45423 0.0
C665 C 0.72324 0.19573 0.364 0.0
C666 C 0.70945 0.27969 0.39015 0.0
C667 C 0.64516 0.23538 0.3705 0.0
O668 O 0.66533 0.23178 0.35984 0.0
O669 O 0.64438 0.23772 0.39348 0.0
O670 O 0.71804 0.21257 0.34862 0.0
O671 O 0.71481 0.19751 0.38585 0.0
C672 C 0.9826 0.28307 0.16276 0.0
C673 C 0.96924 0.2735 0.1826 0.0
C674 C 0.00667 0.27097 0.20675 0.0
C675 C 0.02031 0.27506 0.18523 0.0
N676 N 0.02209 0.28817 0.14354 0.0
N677 N 0.96821 0.25799 0.22378 0.0
C678 C 0.00846 0.28251 0.16354 0.0
C679 C 0.98104 0.26803 0.20496 0.0
N680 N 0.97038 0.29251 0.14326 0.0
N681 N 0.01816 0.26922 0.22873 0.0
H682 H 0.94942 0.25562 0.22354 0.0
H683 H 0.97635 0.25046 0.23915 0.0
H684 H 0.03689 0.27098 0.23081 0.0
H685 H 0.00893 0.2686 0.24527 0.0
H686 H 0.97879 0.30136 0.12879 0.0
H687 H 0.9514 0.29326 0.14264 0.0
H688 H 0.01487 0.291 0.12626 0.0
H689 H 0.04103 0.28948 0.14427 0.0
C690 C 0.2431 0.51287 0.69523 0.0
C691 C 0.23694 0.52606 0.67384 0.0
C692 C 0.23503 0.48807 0.65049 0.0
C693 C 0.24117 0.47494 0.67186 0.0
N694 N 0.24581 0.47368 0.71545 0.0
N695 N 0.2216 0.52632 0.63281 0.0
C696 C 0.24327 0.48699 0.69457 0.0
C697 C 0.23119 0.51364 0.65197 0.0
N698 N 0.2505 0.52504 0.71566 0.0
N699 N 0.23346 0.47614 0.62872 0.0
H700 H 0.2183 0.54501 0.63356 0.0
H701 H 0.21492 0.51815 0.61709 0.0
H702 H 0.23478 0.45725 0.62724 0.0
H703 H 0.232 0.48494 0.612 0.0
H704 H 0.25809 0.51648 0.73077 0.0
H705 H 0.25083 0.54395 0.71698 0.0
H706 H 0.24483 0.48121 0.73281 0.0
H707 H 0.24689 0.45473 0.71555 0.0
C708 C 0.01286 0.72543 0.20305 0.0
C709 C 0.02631 0.72387 0.18105 0.0
C710 C 0.98892 0.71578 0.15826 0.0
C711 C 0.97536 0.72056 0.17968 0.0
N712 N 0.97459 0.71775 0.22352 0.0
N713 N 0.02873 0.71008 0.13965 0.0
C714 C 0.98737 0.72119 0.2025 0.0
C715 C 0.01478 0.71636 0.15925 0.0
N716 N 0.024 0.7327 0.22406 0.0
N717 N 0.97682 0.71147 0.13698 0.0
H718 H 0.04771 0.7101 0.14036 0.0
H719 H 0.02178 0.70312 0.12347 0.0
H720 H 0.95797 0.70911 0.13649 0.0
H721 H 0.98514 0.71042 0.12001 0.0
H722 H 0.0145 0.7373 0.2398 0.0
H723 H 0.04268 0.73564 0.22544 0.0
H724 H 0.9828 0.71636 0.24055 0.0
H725 H 0.9563 0.71287 0.22368 0.0
C726 C 0.76286 0.49009 0.69774 0.0
C727 C 0.76854 0.47693 0.67621 0.0
C728 C 0.77824 0.51521 0.6552 0.0
C729 C 0.76931 0.52832 0.67552 0.0
N730 N 0.75131 0.52877 0.71557 0.0
N731 N 0.78198 0.47632 0.63449 0.0
C732 C 0.76157 0.51594 0.69684 0.0
C733 C 0.77651 0.48934 0.65498 0.0
N734 N 0.75817 0.47792 0.71894 0.0
N735 N 0.7888 0.52758 0.63636 0.0
H736 H 0.78264 0.45734 0.63427 0.0
H737 H 0.78498 0.48415 0.61752 0.0
H738 H 0.79042 0.54651 0.6362 0.0
H739 H 0.79768 0.51922 0.62189 0.0
H740 H 0.75688 0.48646 0.7358 0.0
H741 H 0.75732 0.45903 0.72021 0.0
H742 H 0.74237 0.52069 0.73018 0.0
H743 H 0.75007 0.5477 0.71581 0.0
C744 C 0.9899 0.74511 0.83842 0.0
C745 C 0.97797 0.74957 0.81596 0.0
C746 C 0.0172 0.75456 0.79543 0.0
C747 C 0.02911 0.75059 0.81801 0.0
N748 N 0.02781 0.73637 0.85941 0.0
N749 N 0.97957 0.75307 0.77229 0.0
C750 C 0.01572 0.74403 0.83904 0.0
C751 C 0.99144 0.75229 0.79414 0.0
N752 N 0.97647 0.74253 0.85921 0.0
N753 N 0.03029 0.7621 0.77564 0.0
H754 H 0.96067 0.75224 0.7708 0.0
H755 H 0.9884 0.75254 0.75554 0.0
H756 H 0.04918 0.76387 0.77577 0.0
H757 H 0.02242 0.76818 0.75952 0.0
H758 H 0.98397 0.74226 0.87661 0.0
H759 H 0.9575 0.74169 0.85915 0.0
H760 H 0.01921 0.72922 0.8747 0.0
H761 H 0.04674 0.73516 0.86023 0.0
C762 C 0.77144 0.51321 0.34015 0.0
C763 C 0.76441 0.52682 0.31939 0.0
C764 C 0.75758 0.48937 0.2963 0.0
C765 C 0.76322 0.47574 0.31754 0.0
N766 N 0.78178 0.47366 0.35708 0.0
N767 N 0.7573 0.52871 0.27616 0.0
C768 C 0.77231 0.48741 0.33864 0.0
C769 C 0.75993 0.51513 0.29685 0.0
N770 N 0.77644 0.52502 0.36146 0.0
N771 N 0.74813 0.47793 0.27631 0.0
H772 H 0.75814 0.54766 0.2761 0.0
H773 H 0.75638 0.52123 0.25878 0.0
H774 H 0.74636 0.4591 0.27497 0.0
H775 H 0.74068 0.4871 0.2615 0.0
H776 H 0.77884 0.51624 0.37808 0.0
H777 H 0.77737 0.54396 0.36265 0.0
H778 H 0.79047 0.48091 0.37226 0.0
H779 H 0.78282 0.45471 0.35609 0.0
C780 C 0.01151 0.26875 0.86283 0.0
C781 C 0.02374 0.27311 0.8405 0.0
C782 C 0.98498 0.27869 0.81956 0.0
C783 C 0.97258 0.27092 0.84086 0.0
N784 N 0.97286 0.26666 0.88448 0.0
N785 N 0.02172 0.29705 0.80383 0.0
C786 C 0.98553 0.26851 0.86315 0.0
C787 C 0.01035 0.28296 0.82081 0.0
N788 N 0.0247 0.26542 0.88361 0.0
N789 N 0.97316 0.2804 0.79775 0.0
H790 H 0.03978 0.30254 0.80587 0.0
H791 H 0.01238 0.30605 0.78996 0.0
H792 H 0.95472 0.27673 0.7955 0.0
H793 H 0.98228 0.28345 0.78139 0.0
H794 H 0.01751 0.25895 0.89988 0.0
H795 H 0.04308 0.27006 0.88466 0.0
H796 H 0.98086 0.26608 0.90162 0.0
H797 H 0.95391 0.26761 0.88517 0.0
C798 C 0.22011 0.4915 0.34366 0.0
C799 C 0.22465 0.47892 0.32162 0.0
C800 C 0.2262 0.51741 0.29924 0.0
C801 C 0.22381 0.53006 0.32165 0.0
N802 N 0.21113 0.53003 0.36347 0.0
N803 N 0.22413 0.47887 0.27776 0.0
C804 C 0.21818 0.51729 0.34332 0.0
C805 C 0.22473 0.49156 0.29913 0.0
N806 N 0.21864 0.47871 0.36494 0.0
N807 N 0.23192 0.52985 0.27846 0.0
H808 H 0.22358 0.45994 0.27706 0.0
H809 H 0.22186 0.48704 0.26082 0.0
H810 H 0.23279 0.54877 0.27757 0.0
H811 H 0.23716 0.52146 0.26231 0.0
H812 H 0.21824 0.48674 0.38208 0.0
H813 H 0.21849 0.45971 0.36536 0.0
H814 H 0.20506 0.52194 0.37948 0.0
H815 H 0.20933 0.54896 0.36333 0.0
C816 C 0.16006 0.9887 0.28327 0.0
C817 C 0.18138 0.97584 0.27672 0.0
C818 C 0.20414 0.01414 0.27473 0.0
C819 C 0.18174 0.02694 0.27583 0.0
N820 N 0.13889 0.02753 0.28454 0.0
N821 N 0.22425 0.9755 0.26743 0.0
C822 C 0.15988 0.01452 0.28161 0.0
C823 C 0.20378 0.98828 0.27352 0.0
N824 N 0.14007 0.976 0.29086 0.0
N825 N 0.2256 0.02668 0.27416 0.0
H826 H 0.22484 0.95655 0.26702 0.0
H827 H 0.24036 0.98357 0.26163 0.0
H828 H 0.22652 0.04559 0.2746 0.0
H829 H 0.24259 0.01842 0.27557 0.0
H830 H 0.12428 0.98407 0.29747 0.0
H831 H 0.14014 0.95705 0.2924 0.0
H832 H 0.12171 0.01975 0.28605 0.0
H833 H 0.13875 0.04654 0.28498 0.0
C834 C 0.51566 0.68997 0.76264 0.0
C835 C 0.5279 0.66859 0.77044 0.0
C836 C 0.48872 0.64936 0.7798 0.0
C837 C 0.4767 0.6689 0.76801 0.0
N838 N 0.47838 0.70746 0.74693 0.0
N839 N 0.5268 0.62832 0.78766 0.0
C840 C 0.48998 0.68942 0.75961 0.0
C841 C 0.5146 0.64848 0.77966 0.0
N842 N 0.52857 0.71061 0.75743 0.0
N843 N 0.47525 0.63186 0.79125 0.0
H844 H 0.54571 0.62784 0.78934 0.0
H845 H 0.5184 0.61187 0.79185 0.0
H846 H 0.45627 0.63237 0.79177 0.0
H847 H 0.4827 0.6181 0.80192 0.0
H848 H 0.52048 0.72747 0.75438 0.0
H849 H 0.54747 0.71156 0.75811 0.0
H850 H 0.48744 0.72114 0.73747 0.0
H851 H 0.45961 0.70797 0.74426 0.0
C852 C 0.80541 0.01527 0.27412 0.0
C853 C 0.82772 0.02798 0.27692 0.0
C854 C 0.84985 0.98954 0.28083 0.0
C855 C 0.82798 0.97687 0.27564 0.0
N856 N 0.78409 0.97661 0.27512 0.0
N857 N 0.86941 0.02822 0.28994 0.0
C858 C 0.80541 0.9894 0.2752 0.0
C859 C 0.84939 0.01534 0.28275 0.0
N860 N 0.78464 0.02778 0.26848 0.0
N861 N 0.8711 0.9768 0.283 0.0
H862 H 0.86916 0.04714 0.29167 0.0
H863 H 0.88547 0.02028 0.29607 0.0
H864 H 0.87153 0.9578 0.28328 0.0
H865 H 0.88822 0.98482 0.28398 0.0
H866 H 0.76855 0.01949 0.26294 0.0
H867 H 0.78374 0.04672 0.2681 0.0
H868 H 0.76706 0.98466 0.27709 0.0
H869 H 0.7834 0.95768 0.27538 0.0
C870 C 0.50447 0.30156 0.76293 0.0
C871 C 0.5179 0.32284 0.76883 0.0
C872 C 0.48008 0.34513 0.77675 0.0
C873 C 0.46662 0.32409 0.77012 0.0
N874 N 0.46553 0.28086 0.76217 0.0
N875 N 0.51948 0.36277 0.78657 0.0
C876 C 0.47869 0.30176 0.76523 0.0
C877 C 0.50595 0.34398 0.77745 0.0
N878 N 0.51617 0.28177 0.75332 0.0
N879 N 0.46804 0.36631 0.78184 0.0
H880 H 0.53844 0.36215 0.78746 0.0
H881 H 0.51208 0.37799 0.79505 0.0
H882 H 0.44912 0.36726 0.78318 0.0
H883 H 0.47658 0.38308 0.78392 0.0
H884 H 0.50722 0.26699 0.74557 0.0
H885 H 0.53501 0.28065 0.75154 0.0
H886 H 0.47334 0.26361 0.76145 0.0
H887 H 0.44659 0.28034 0.76214 0.0
C888 C 0.16057 0.01911 0.71358 0.0
C889 C 0.18186 0.03111 0.72174 0.0
C890 C 0.20266 0.99179 0.72602 0.0
C891 C 0.18007 0.97978 0.72222 0.0
N892 N 0.13793 0.98123 0.71035 0.0
N893 N 0.22315 0.02933 0.73669 0.0
C894 C 0.15919 0.99325 0.71509 0.0
C895 C 0.20312 0.01763 0.72761 0.0
N896 N 0.14183 0.03258 0.70428 0.0
N897 N 0.22358 0.9786 0.72875 0.0
H898 H 0.22455 0.04819 0.73795 0.0
H899 H 0.23787 0.02037 0.74456 0.0
H900 H 0.22411 0.95968 0.72902 0.0
H901 H 0.24086 0.98637 0.72867 0.0
H902 H 0.1264 0.02513 0.69624 0.0
H903 H 0.14271 0.05151 0.70282 0.0
H904 H 0.12124 0.98983 0.7079 0.0
H905 H 0.13691 0.96228 0.70949 0.0
C906 C 0.49208 0.65922 0.22659 0.0
C907 C 0.48094 0.68112 0.23436 0.0
C908 C 0.52096 0.70046 0.23855 0.0
C909 C 0.53208 0.67747 0.23451 0.0
N910 N 0.52904 0.63516 0.2234 0.0
N911 N 0.48399 0.72265 0.24814 0.0
C912 C 0.51785 0.65694 0.2279 0.0
C913 C 0.49514 0.70196 0.2399 0.0
N914 N 0.47788 0.64081 0.21773 0.0
N915 N 0.53504 0.72075 0.24167 0.0
H916 H 0.46515 0.72469 0.24883 0.0
H917 H 0.49325 0.73739 0.2556 0.0
H918 H 0.55397 0.72031 0.24237 0.0
H919 H 0.52813 0.73838 0.24187 0.0
H920 H 0.4847 0.62499 0.20988 0.0
H921 H 0.45899 0.64228 0.21641 0.0
H922 H 0.51983 0.61875 0.22136 0.0
H923 H 0.54791 0.63334 0.22246 0.0
C924 C 0.79581 0.01191 0.73769 0.0
C925 C 0.81716 0.02576 0.73318 0.0
C926 C 0.83947 0.98837 0.72321 0.0
C927 C 0.81942 0.97451 0.73162 0.0
N928 N 0.77893 0.97268 0.7486 0.0
N929 N 0.85913 0.0279 0.72084 0.0
C930 C 0.79749 0.98612 0.73882 0.0
C931 C 0.8389 0.01417 0.72545 0.0
N932 N 0.77405 0.02335 0.74151 0.0
N933 N 0.85884 0.97675 0.71278 0.0
H934 H 0.85876 0.04689 0.72064 0.0
H935 H 0.87639 0.02062 0.71806 0.0
H936 H 0.85952 0.95787 0.71074 0.0
H937 H 0.87321 0.98573 0.70434 0.0
H938 H 0.75745 0.01422 0.74205 0.0
H939 H 0.77209 0.04218 0.74214 0.0
H940 H 0.76386 0.98031 0.75717 0.0
H941 H 0.77927 0.95376 0.74992 0.0
C942 C 0.5086 0.33723 0.2227 0.0
C943 C 0.51872 0.3148 0.23046 0.0
C944 C 0.47822 0.29643 0.2324 0.0
C945 C 0.46798 0.31932 0.2261 0.0
N946 N 0.47278 0.35924 0.20889 0.0
N947 N 0.5145 0.27148 0.2359 0.0
C948 C 0.48306 0.33899 0.21907 0.0
C949 C 0.50395 0.29379 0.23275 0.0
N950 N 0.52343 0.35697 0.21966 0.0
N951 N 0.46348 0.27783 0.23994 0.0
H952 H 0.53327 0.26902 0.23691 0.0
H953 H 0.50486 0.25518 0.23531 0.0
H954 H 0.44455 0.27885 0.23979 0.0
H955 H 0.46994 0.26185 0.24781 0.0
H956 H 0.5171 0.3746 0.21688 0.0
H957 H 0.54235 0.35572 0.2207 0.0
H958 H 0.48273 0.3736 0.20158 0.0
H959 H 0.45408 0.36068 0.20585 0.0
C960 C 0.26894 0.15532 0.01039 0.0
C961 C 0.26094 0.17556 0.02418 0.0
C962 C 0.25395 0.19877 0.98665 0.0
C963 C 0.25792 0.1772 0.97304 0.0
N964 N 0.27061 0.13527 0.97105 0.0
N965 N 0.24545 0.21661 0.02613 0.0
C966 C 0.26612 0.15561 0.98466 0.0
C967 C 0.2539 0.19754 0.01253 0.0
N968 N 0.27946 0.13601 0.02206 0.0
N969 N 0.24973 0.22029 0.97488 0.0
H970 H 0.24549 0.21664 0.0451 0.0
H971 H 0.23706 0.2319 0.01876 0.0
H972 H 0.24855 0.22172 0.95601 0.0
H973 H 0.24929 0.23709 0.9836 0.0
H974 H 0.28756 0.12139 0.01315 0.0
H975 H 0.28194 0.13562 0.04089 0.0
H976 H 0.27375 0.11811 0.97841 0.0
H977 H 0.27041 0.13541 0.95205 0.0
C978 C 0.27 0.79466 0.01125 0.0
C979 C 0.27393 0.8166 0.02436 0.0
C980 C 0.27959 0.83896 0.98622 0.0
C981 C 0.27403 0.81742 0.97314 0.0
N982 N 0.2715 0.77356 0.97254 0.0
N983 N 0.2891 0.85758 0.02523 0.0
C984 C 0.27208 0.79481 0.98545 0.0
C985 C 0.28102 0.8381 0.01205 0.0
N986 N 0.26222 0.77421 0.02313 0.0
N987 N 0.28268 0.86032 0.97385 0.0
H988 H 0.29055 0.85708 0.04417 0.0
H989 H 0.29631 0.8733 0.01751 0.0
H990 H 0.28335 0.86105 0.95487 0.0
H991 H 0.28388 0.87728 0.98219 0.0
H992 H 0.25581 0.75874 0.01427 0.0
H993 H 0.26059 0.77306 0.04198 0.0
H994 H 0.27263 0.75644 0.98059 0.0
H995 H 0.27224 0.77289 0.95363 0.0
C996 C 0.66239 0.77349 0.51545 0.0
C997 C 0.68404 0.76597 0.52728 0.0
C998 C 0.70477 0.76192 0.48813 0.0
C999 C 0.68294 0.76902 0.47612 0.0
N1000 N 0.64332 0.78754 0.47809 0.0
N1001 N 0.72737 0.75971 0.526 0.0
C1002 C 0.66248 0.77681 0.48977 0.0
C1003 C 0.70581 0.76268 0.51395 0.0
N1004 N 0.64161 0.77671 0.52872 0.0
N1005 N 0.72378 0.7524 0.47518 0.0
H1006 H 0.72863 0.75951 0.54494 0.0
H1007 H 0.74422 0.75975 0.51732 0.0
H1008 H 0.72394 0.75089 0.4563 0.0
H1009 H 0.73877 0.74409 0.48326 0.0
H1010 H 0.62452 0.77934 0.52098 0.0
H1011 H 0.64135 0.77569 0.54769 0.0
H1012 H 0.62866 0.79547 0.48707 0.0
H1013 H 0.64323 0.79049 0.45932 0.0
C1014 C 0.71594 0.20316 0.0183 0.0
C1015 C 0.71353 0.18108 0.03141 0.0
C1016 C 0.70785 0.15893 0.99316 0.0
C1017 C 0.71616 0.17969 0.98037 0.0
N1018 N 0.72781 0.22214 0.98036 0.0
N1019 N 0.70386 0.13845 0.03217 0.0
C1020 C 0.71938 0.20221 0.99268 0.0
C1021 C 0.70799 0.15916 0.01903 0.0
N1022 N 0.71568 0.22491 0.03034 0.0
N1023 N 0.70011 0.13906 0.98039 0.0
H1024 H 0.70237 0.13865 0.05111 0.0
H1025 H 0.7025 0.12117 0.02453 0.0
H1026 H 0.69966 0.13885 0.96139 0.0
H1027 H 0.69224 0.12379 0.98836 0.0
H1028 H 0.71512 0.24169 0.02154 0.0
H1029 H 0.71342 0.22627 0.0491 0.0
H1030 H 0.73378 0.23796 0.98891 0.0
H1031 H 0.73029 0.22253 0.96159 0.0
C1032 C 0.31029 0.23462 0.5109 0.0
C1033 C 0.33136 0.22667 0.52361 0.0
C1034 C 0.35121 0.21714 0.48473 0.0
C1035 C 0.33205 0.22916 0.47231 0.0
N1036 N 0.29396 0.25114 0.47348 0.0
N1037 N 0.37148 0.20913 0.52322 0.0
C1038 C 0.31145 0.23787 0.48527 0.0
C1039 C 0.35163 0.21729 0.51065 0.0
N1040 N 0.28933 0.23979 0.52328 0.0
N1041 N 0.3688 0.20544 0.47161 0.0
H1042 H 0.37156 0.20744 0.54215 0.0
H1043 H 0.38804 0.20481 0.51513 0.0
H1044 H 0.36863 0.2049 0.45262 0.0
H1045 H 0.38226 0.19459 0.47935 0.0
H1046 H 0.2727 0.24285 0.5147 0.0
H1047 H 0.28777 0.23896 0.54212 0.0
H1048 H 0.28036 0.26083 0.48243 0.0
H1049 H 0.29394 0.25425 0.45478 0.0
C1050 C 0.73277 0.80334 0.01213 0.0
C1051 C 0.72837 0.82467 0.02592 0.0
C1052 C 0.71982 0.84731 0.98845 0.0
C1053 C 0.72892 0.82744 0.97474 0.0
N1054 N 0.74556 0.78667 0.97346 0.0
N1055 N 0.71654 0.86678 0.02798 0.0
C1056 C 0.73523 0.80523 0.98645 0.0
C1057 C 0.72123 0.84656 0.01428 0.0
N1058 N 0.73528 0.78141 0.02361 0.0
N1059 N 0.7097 0.86673 0.97664 0.0
H1060 H 0.71597 0.86629 0.04697 0.0
H1061 H 0.71414 0.8841 0.02069 0.0
H1062 H 0.70815 0.86743 0.95771 0.0
H1063 H 0.70091 0.88099 0.98547 0.0
H1064 H 0.736 0.76486 0.0144 0.0
H1065 H 0.73433 0.77946 0.04245 0.0
H1066 H 0.75341 0.77141 0.98149 0.0
H1067 H 0.7481 0.78715 0.95469 0.0
C1068 C 0.66213 0.22436 0.52006 0.0
C1069 C 0.68368 0.23299 0.53134 0.0
C1070 C 0.70424 0.23509 0.49189 0.0
C1071 C 0.68223 0.22779 0.48046 0.0
N1072 N 0.64276 0.20924 0.48326 0.0
N1073 N 0.72683 0.24041 0.52952 0.0
C1074 C 0.66199 0.22031 0.49451 0.0
C1075 C 0.70536 0.23605 0.51774 0.0
N1076 N 0.64166 0.22083 0.53373 0.0
N1077 N 0.72342 0.24287 0.47807 0.0
H1078 H 0.72808 0.24199 0.54839 0.0
H1079 H 0.74369 0.24044 0.5209 0.0
H1080 H 0.72353 0.2421 0.45912 0.0
H1081 H 0.73875 0.25139 0.48521 0.0
H1082 H 0.62454 0.21739 0.5264 0.0
H1083 H 0.64165 0.2222 0.55268 0.0
H1084 H 0.62814 0.20154 0.49249 0.0
H1085 H 0.64254 0.20585 0.46457 0.0
C1086 C 0.29567 0.77843 0.48746 0.0
C1087 C 0.3183 0.78049 0.47507 0.0
C1088 C 0.33977 0.78452 0.51389 0.0
C1089 C 0.31752 0.78033 0.52616 0.0
N1090 N 0.27378 0.78155 0.52572 0.0
N1091 N 0.36012 0.79321 0.47559 0.0
C1092 C 0.29525 0.7804 0.51325 0.0
C1093 C 0.33979 0.78627 0.48809 0.0
N1094 N 0.27501 0.77245 0.47495 0.0
N1095 N 0.3609 0.78575 0.52694 0.0
H1096 H 0.36022 0.79489 0.45666 0.0
H1097 H 0.37599 0.79936 0.48388 0.0
H1098 H 0.36106 0.78588 0.54594 0.0
H1099 H 0.37813 0.78589 0.5191 0.0
H1100 H 0.25878 0.76747 0.48336 0.0
H1101 H 0.27424 0.77104 0.45609 0.0
H1102 H 0.25695 0.78389 0.51732 0.0
H1103 H 0.27301 0.78257 0.54464 0.0
C1104 C 0.16338 0.34601 0.26452 0.0
C1105 C 0.18628 0.3377 0.27343 0.0
C1106 C 0.17847 0.29815 0.25517 0.0
C1107 C 0.15412 0.30488 0.24964 0.0
N1108 N 0.12178 0.3342 0.25649 0.0
N1109 N 0.20956 0.30219 0.28555 0.0
C1110 C 0.14595 0.32851 0.25653 0.0
C1111 C 0.19187 0.31258 0.27153 0.0
N1112 N 0.1584 0.37026 0.26242 0.0
N1113 N 0.18969 0.27909 0.24382 0.0
H1114 H 0.21822 0.31151 0.29965 0.0
H1115 H 0.21302 0.2835 0.28525 0.0
H1116 H 0.18225 0.27013 0.22886 0.0
H1117 H 0.20794 0.27483 0.24691 0.0
H1118 H 0.14264 0.37669 0.25401 0.0
H1119 H 0.1709 0.38389 0.2664 0.0
H1120 H 0.11521 0.35071 0.26316 0.0
H1121 H 0.10818 0.32151 0.2529 0.0
C1122 C 0.13669 0.67573 0.73836 0.0
C1123 C 0.13883 0.67721 0.76397 0.0
C1124 C 0.16688 0.6426 0.764 0.0
C1125 C 0.16857 0.64458 0.73838 0.0
N1126 N 0.15409 0.661 0.70045 0.0
N1127 N 0.15357 0.66113 0.80191 0.0
C1128 C 0.15267 0.66011 0.72527 0.0
C1129 C 0.15279 0.65993 0.77707 0.0
N1130 N 0.1197 0.6897 0.72676 0.0
N1131 N 0.17912 0.62433 0.77562 0.0
H1132 H 0.14253 0.67299 0.81182 0.0
H1133 H 0.16545 0.65103 0.81265 0.0
H1134 H 0.1894 0.61147 0.76612 0.0
H1135 H 0.17759 0.62065 0.79412 0.0
H1136 H 0.11586 0.6885 0.70825 0.0
H1137 H 0.10794 0.70122 0.73625 0.0
H1138 H 0.14514 0.67385 0.68978 0.0
H1139 H 0.16501 0.64913 0.69045 0.0
C1140 C 0.84141 0.6587 0.26546 0.0
C1141 C 0.81911 0.66697 0.2758 0.0
C1142 C 0.82472 0.706 0.25577 0.0
C1143 C 0.84856 0.69935 0.24823 0.0
N1144 N 0.88198 0.67096 0.25374 0.0
N1145 N 0.79657 0.70253 0.28896 0.0
C1146 C 0.85776 0.67618 0.25542 0.0
C1147 C 0.81313 0.69197 0.27376 0.0
N1148 N 0.84677 0.63449 0.264 0.0
N1149 N 0.81211 0.72441 0.24481 0.0
H1150 H 0.78923 0.6934 0.30393 0.0
H1151 H 0.79284 0.72115 0.28847 0.0
H1152 H 0.8178 0.73277 0.22877 0.0
H1153 H 0.79419 0.72857 0.24952 0.0
H1154 H 0.8619 0.62802 0.25455 0.0
H1155 H 0.8351 0.62078 0.2698 0.0
H1156 H 0.88941 0.65485 0.26051 0.0
H1157 H 0.89499 0.6838 0.24875 0.0
C1158 C 0.85345 0.32895 0.75713 0.0
C1159 C 0.84767 0.32822 0.78228 0.0
C1160 C 0.81774 0.36093 0.77663 0.0
C1161 C 0.82029 0.35825 0.75115 0.0
N1162 N 0.84134 0.34181 0.71652 0.0
N1163 N 0.82671 0.34485 0.81691 0.0
C1164 C 0.8388 0.34325 0.74124 0.0
C1165 C 0.83079 0.34498 0.79236 0.0
N1166 N 0.87252 0.31552 0.74848 0.0
N1167 N 0.80252 0.37847 0.78554 0.0
H1168 H 0.83709 0.33437 0.82889 0.0
H1169 H 0.8129 0.35457 0.82545 0.0
H1170 H 0.79286 0.39024 0.77416 0.0
H1171 H 0.80074 0.38266 0.8039 0.0
H1172 H 0.87901 0.31662 0.73073 0.0
H1173 H 0.8832 0.30447 0.75959 0.0
H1174 H 0.85232 0.32917 0.70769 0.0
H1175 H 0.83168 0.35303 0.70461 0.0
C1176 C 0.25483 0.20478 0.31772 0.0
C1177 C 0.261 0.19719 0.34167 0.0
C1178 C 0.24436 0.15691 0.33165 0.0
C1179 C 0.23462 0.1663 0.30948 0.0
N1180 N 0.22262 0.20325 0.28837 0.0
N1181 N 0.25446 0.16701 0.37328 0.0
C1182 C 0.23721 0.19154 0.30473 0.0
C1183 C 0.25362 0.17354 0.34933 0.0
N1184 N 0.26667 0.22349 0.3064 0.0
N1185 N 0.24607 0.13245 0.33568 0.0
H1186 H 0.25902 0.1791 0.38713 0.0
H1187 H 0.24751 0.1505 0.37956 0.0
H1188 H 0.24145 0.11938 0.3228 0.0
H1189 H 0.25491 0.12526 0.35086 0.0
H1190 H 0.26291 0.22836 0.28843 0.0
H1191 H 0.28251 0.23135 0.31325 0.0
H1192 H 0.22367 0.22202 0.28557 0.0
H1193 H 0.20746 0.19502 0.28046 0.0
C1194 C 0.33704 0.75487 0.84369 0.0
C1195 C 0.31412 0.76343 0.835 0.0
C1196 C 0.32122 0.74202 0.79699 0.0
C1197 C 0.34571 0.73708 0.80359 0.0
N1198 N 0.37844 0.7455 0.83204 0.0
N1199 N 0.29077 0.77315 0.79873 0.0
C1200 C 0.35422 0.74548 0.8266 0.0
C1201 C 0.30823 0.75965 0.81016 0.0
N1202 N 0.34228 0.75444 0.86796 0.0
N1203 N 0.30956 0.72907 0.77926 0.0
H1204 H 0.2827 0.78834 0.80677 0.0
H1205 H 0.28709 0.77123 0.78019 0.0
H1206 H 0.31681 0.71334 0.77152 0.0
H1207 H 0.29123 0.73188 0.77515 0.0
H1208 H 0.35805 0.74638 0.8748 0.0
H1209 H 0.32993 0.75939 0.88141 0.0
H1210 H 0.38529 0.75326 0.84795 0.0
H1211 H 0.39185 0.74066 0.81957 0.0
C1212 C 0.75748 0.82946 0.35007 0.0
C1213 C 0.75154 0.80525 0.34295 0.0
C1214 C 0.77554 0.81119 0.30617 0.0
C1215 C 0.77684 0.83662 0.31043 0.0
N1216 N 0.76329 0.8705 0.33547 0.0
N1217 N 0.74816 0.77742 0.30864 0.0
C1218 C 0.76625 0.84606 0.33215 0.0
C1219 C 0.75857 0.79728 0.31938 0.0
N1220 N 0.75577 0.83656 0.37381 0.0
N1221 N 0.7908 0.79997 0.2901 0.0
H1222 H 0.73294 0.76861 0.31574 0.0
H1223 H 0.75236 0.7722 0.29087 0.0
H1224 H 0.80545 0.80889 0.28197 0.0
H1225 H 0.79086 0.78112 0.28772 0.0
H1226 H 0.76173 0.85357 0.37978 0.0
H1227 H 0.75149 0.82463 0.38789 0.0
H1228 H 0.7538 0.87765 0.35026 0.0
H1229 H 0.76757 0.88343 0.32233 0.0
C1230 C 0.6946 0.23806 0.81795 0.0
C1231 C 0.68954 0.23542 0.84314 0.0
C1232 C 0.64949 0.25378 0.83545 0.0
C1233 C 0.65704 0.26056 0.81157 0.0
N1234 N 0.69223 0.26703 0.78553 0.0
N1235 N 0.66336 0.24741 0.87671 0.0
C1236 C 0.68127 0.2552 0.80444 0.0
C1237 C 0.66732 0.24519 0.85229 0.0
N1238 N 0.71115 0.2236 0.80635 0.0
N1239 N 0.62556 0.25435 0.84202 0.0
H1240 H 0.67648 0.24345 0.88977 0.0
H1241 H 0.64807 0.25617 0.88374 0.0
H1242 H 0.61155 0.25849 0.82997 0.0
H1243 H 0.61947 0.24769 0.85872 0.0
H1244 H 0.71411 0.22476 0.78762 0.0
H1245 H 0.71892 0.2083 0.81446 0.0
H1246 H 0.71039 0.26392 0.78091 0.0
H1247 H 0.68459 0.28222 0.77709 0.0
C1248 C 0.25177 0.83669 0.64131 0.0
C1249 C 0.2754 0.82936 0.64873 0.0
C1250 C 0.27444 0.85825 0.68259 0.0
C1251 C 0.24995 0.86367 0.67671 0.0
N1252 N 0.2177 0.86439 0.64719 0.0
N1253 N 0.31199 0.83784 0.67107 0.0
C1254 C 0.23954 0.8552 0.65471 0.0
C1255 C 0.2877 0.8419 0.66758 0.0
N1256 N 0.2404 0.82473 0.6227 0.0
N1257 N 0.28444 0.86789 0.70322 0.0
H1258 H 0.32195 0.82606 0.65998 0.0
H1259 H 0.32265 0.8475 0.68339 0.0
H1260 H 0.2754 0.88093 0.71369 0.0
H1261 H 0.3012 0.86266 0.71031 0.0
H1262 H 0.22215 0.82707 0.61823 0.0
H1263 H 0.24906 0.81154 0.61217 0.0
H1264 H 0.20982 0.86045 0.63043 0.0
H1265 H 0.20843 0.87776 0.65696 0.0
C1266 C 0.65824 0.77896 0.15825 0.0
C1267 C 0.67497 0.76753 0.14231 0.0
C1268 C 0.65743 0.72763 0.15133 0.0
C1269 C 0.64272 0.73875 0.16932 0.0
N1270 N 0.62349 0.77449 0.18538 0.0
N1271 N 0.6863 0.73291 0.11816 0.0
C1272 C 0.6411 0.76438 0.17103 0.0
C1273 C 0.67291 0.74245 0.13681 0.0
N1274 N 0.65977 0.8035 0.162 0.0
N1275 N 0.6576 0.70283 0.14935 0.0
H1276 H 0.6978 0.74361 0.10747 0.0
H1277 H 0.68469 0.71508 0.11202 0.0
H1278 H 0.64565 0.69181 0.15917 0.0
H1279 H 0.66979 0.69313 0.1386 0.0
H1280 H 0.64998 0.81285 0.17522 0.0
H1281 H 0.67151 0.81457 0.15196 0.0
H1282 H 0.62015 0.79308 0.18656 0.0
H1283 H 0.61083 0.76384 0.19473 0.0
C1284 C 0.76729 0.15573 0.66848 0.0
C1285 C 0.75307 0.14342 0.68617 0.0
C1286 C 0.71574 0.16086 0.6692 0.0
C1287 C 0.73013 0.17472 0.65293 0.0
N1288 N 0.76792 0.18072 0.6319 0.0
N1289 N 0.71418 0.12842 0.69929 0.0
C1290 C 0.7554 0.17039 0.65073 0.0
C1291 C 0.72733 0.14397 0.68503 0.0
N1292 N 0.79212 0.15477 0.66974 0.0
N1293 N 0.69122 0.16488 0.67034 0.0
H1294 H 0.72249 0.11581 0.71084 0.0
H1295 H 0.69537 0.12648 0.69822 0.0
H1296 H 0.68222 0.17634 0.65814 0.0
H1297 H 0.67994 0.15761 0.68369 0.0
H1298 H 0.80362 0.16561 0.65931 0.0
H1299 H 0.80136 0.14374 0.68212 0.0
H1300 H 0.78605 0.17693 0.62797 0.0
H1301 H 0.75938 0.19157 0.61884 0.0
C1302 C 0.31355 0.26321 0.13782 0.0
C1303 C 0.31851 0.23794 0.13801 0.0
C1304 C 0.35599 0.24504 0.16102 0.0
C1305 C 0.34824 0.26927 0.1651 0.0
N1306 N 0.32182 0.30284 0.15574 0.0
N1307 N 0.34516 0.20445 0.14699 0.0
C1308 C 0.32792 0.27894 0.15251 0.0
C1309 C 0.34032 0.22882 0.14829 0.0
N1310 N 0.29476 0.27183 0.12399 0.0
N1311 N 0.37798 0.23758 0.16994 0.0
H1312 H 0.33439 0.19252 0.13686 0.0
H1313 H 0.35928 0.1959 0.15627 0.0
H1314 H 0.38956 0.24928 0.1794 0.0
H1315 H 0.38562 0.22061 0.16645 0.0
H1316 H 0.29084 0.29021 0.1217 0.0
H1317 H 0.28413 0.26041 0.11315 0.0
H1318 H 0.30581 0.31068 0.14936 0.0
H1319 H 0.33283 0.31487 0.1655 0.0
C1320 C 0.8315 0.6394 0.77281 0.0
C1321 C 0.83477 0.63744 0.74734 0.0
C1322 C 0.86999 0.66469 0.74963 0.0
C1323 C 0.86304 0.67082 0.77367 0.0
N1324 N 0.83975 0.66244 0.80967 0.0
N1325 N 0.85814 0.6461 0.7113 0.0
C1326 C 0.84488 0.65725 0.78591 0.0
C1327 C 0.85482 0.64887 0.73579 0.0
N1328 N 0.81522 0.6244 0.78413 0.0
N1329 N 0.8906 0.67464 0.73995 0.0
H1330 H 0.84779 0.63409 0.70088 0.0
H1331 H 0.87047 0.65621 0.7011 0.0
H1332 H 0.90173 0.68644 0.74981 0.0
H1333 H 0.89781 0.66967 0.72317 0.0
H1334 H 0.8128 0.62364 0.80289 0.0
H1335 H 0.8055 0.61113 0.77461 0.0
H1336 H 0.82499 0.6553 0.81913 0.0
H1337 H 0.85024 0.67459 0.81985 0.0
C1338 C 0.84241 0.33085 0.24334 0.0
C1339 C 0.83462 0.30718 0.23617 0.0
C1340 C 0.79579 0.31464 0.25597 0.0
C1341 C 0.80149 0.33964 0.25907 0.0
N1342 N 0.82949 0.37247 0.24954 0.0
N1343 N 0.79944 0.28183 0.22755 0.0
C1344 C 0.82462 0.34816 0.25101 0.0
C1345 C 0.80994 0.30065 0.23993 0.0
N1346 N 0.86653 0.33672 0.24393 0.0
N1347 N 0.77775 0.30365 0.26906 0.0
H1348 H 0.80804 0.27291 0.21318 0.0
H1349 H 0.78099 0.27768 0.22928 0.0
H1350 H 0.76896 0.31213 0.28358 0.0
H1351 H 0.77426 0.28503 0.26776 0.0
H1352 H 0.87283 0.35318 0.25098 0.0
H1353 H 0.88032 0.32429 0.24018 0.0
H1354 H 0.84549 0.3792 0.24188 0.0
H1355 H 0.81659 0.38587 0.25312 0.0
C1356 C 0.15394 0.30117 0.70043 0.0
C1357 C 0.141 0.30804 0.72159 0.0
C1358 C 0.15719 0.34933 0.71893 0.0
C1359 C 0.17391 0.34111 0.70107 0.0
N1360 N 0.18493 0.31165 0.67053 0.0
N1361 N 0.11924 0.34135 0.73993 0.0
C1362 C 0.17093 0.31783 0.69015 0.0
C1363 C 0.13898 0.33307 0.72736 0.0
N1364 N 0.14921 0.2791 0.69003 0.0
N1365 N 0.15968 0.37187 0.7291 0.0
H1366 H 0.10441 0.33015 0.74374 0.0
H1367 H 0.11601 0.35973 0.74328 0.0
H1368 H 0.17259 0.38448 0.7233 0.0
H1369 H 0.14985 0.37749 0.7443 0.0
H1370 H 0.15749 0.27262 0.67431 0.0
H1371 H 0.13512 0.26799 0.69629 0.0
H1372 H 0.18543 0.29443 0.66273 0.0
H1373 H 0.19626 0.32418 0.66184 0.0
C1374 C 0.17606 0.6511 0.24166 0.0
C1375 C 0.17855 0.65473 0.26704 0.0
C1376 C 0.14663 0.68584 0.26615 0.0
C1377 C 0.14773 0.68551 0.24044 0.0
N1378 N 0.16122 0.66707 0.20312 0.0
N1379 N 0.16511 0.67324 0.30435 0.0
C1380 C 0.16137 0.66749 0.228 0.0
C1381 C 0.16309 0.6711 0.27964 0.0
N1382 N 0.18819 0.63232 0.23077 0.0
N1383 N 0.13006 0.70055 0.27744 0.0
H1384 H 0.17617 0.66176 0.31469 0.0
H1385 H 0.15647 0.68662 0.31458 0.0
H1386 H 0.11787 0.71139 0.26769 0.0
H1387 H 0.127 0.70069 0.29611 0.0
H1388 H 0.18603 0.62745 0.2126 0.0
H1389 H 0.19913 0.62027 0.24057 0.0
H1390 H 0.17273 0.65631 0.19263 0.0
H1391 H 0.14982 0.67825 0.19281 0.0
C1392 C 0.76293 0.85746 0.64692 0.0
C1393 C 0.75092 0.86872 0.6668 0.0
C1394 C 0.71272 0.84868 0.65596 0.0
C1395 C 0.72549 0.83502 0.63825 0.0
N1396 N 0.75966 0.83127 0.61133 0.0
N1397 N 0.71374 0.88156 0.68563 0.0
C1398 C 0.74955 0.84135 0.63166 0.0
C1399 C 0.72542 0.86664 0.66955 0.0
N1400 N 0.78739 0.86069 0.64391 0.0
N1401 N 0.68887 0.84338 0.66053 0.0
H1402 H 0.72305 0.89488 0.6955 0.0
H1403 H 0.69494 0.88218 0.68779 0.0
H1404 H 0.67908 0.83102 0.64991 0.0
H1405 H 0.67894 0.85068 0.6749 0.0
H1406 H 0.79794 0.85082 0.63168 0.0
H1407 H 0.7974 0.87299 0.65434 0.0
H1408 H 0.77657 0.83621 0.60439 0.0
H1409 H 0.75004 0.81931 0.60015 0.0
C1410 C 0.63939 0.23225 0.18503 0.0
C1411 C 0.63924 0.25795 0.18663 0.0
C1412 C 0.6668 0.26068 0.15175 0.0
C1413 C 0.67065 0.23527 0.15347 0.0
N1414 N 0.65977 0.19609 0.16972 0.0
N1415 N 0.65065 0.29717 0.17084 0.0
C1416 C 0.65623 0.22072 0.16913 0.0
C1417 C 0.65187 0.27236 0.16936 0.0
N1418 N 0.62363 0.21909 0.19906 0.0
N1419 N 0.67779 0.27345 0.13347 0.0
H1420 H 0.6391 0.30609 0.18299 0.0
H1421 H 0.66149 0.30893 0.16071 0.0
H1422 H 0.68874 0.265 0.12044 0.0
H1423 H 0.67459 0.29178 0.12995 0.0
H1424 H 0.62144 0.20032 0.19775 0.0
H1425 H 0.61117 0.2274 0.21075 0.0
H1426 H 0.65199 0.18458 0.18257 0.0
H1427 H 0.67131 0.18717 0.15756 0.0
C1428 C 0.23877 0.18207 0.64114 0.0
C1429 C 0.26451 0.18257 0.63996 0.0
C1430 C 0.26667 0.14917 0.66948 0.0
C1431 C 0.24154 0.15219 0.6741 0.0
N1432 N 0.20288 0.17015 0.66399 0.0
N1433 N 0.30345 0.16634 0.65222 0.0
C1434 C 0.22722 0.16788 0.65944 0.0
C1435 C 0.27862 0.16558 0.65342 0.0
N1436 N 0.22557 0.19535 0.62476 0.0
N1437 N 0.279 0.13073 0.68073 0.0
H1438 H 0.31286 0.17759 0.64021 0.0
H1439 H 0.31484 0.15668 0.66389 0.0
H1440 H 0.27045 0.11859 0.69259 0.0
H1441 H 0.29691 0.12608 0.67672 0.0
H1442 H 0.20671 0.19449 0.62326 0.0
H1443 H 0.23384 0.20567 0.61112 0.0
H1444 H 0.19186 0.18336 0.65606 0.0
H1445 H 0.19379 0.15927 0.67663 0.0
C1446 C 0.32161 0.7323 0.14697 0.0
C1447 C 0.32021 0.75798 0.1455 0.0
C1448 C 0.35524 0.76171 0.17286 0.0
C1449 C 0.35336 0.73654 0.17795 0.0
N1450 N 0.33652 0.69708 0.16919 0.0
N1451 N 0.33602 0.79762 0.15563 0.0
C1452 C 0.3374 0.72149 0.16439 0.0
C1453 C 0.33756 0.77285 0.15755 0.0
N1454 N 0.30765 0.71845 0.13174 0.0
N1455 N 0.37371 0.77485 0.18308 0.0
H1456 H 0.32372 0.80627 0.14405 0.0
H1457 H 0.34616 0.80966 0.16615 0.0
H1458 H 0.38671 0.76687 0.19442 0.0
H1459 H 0.37742 0.79292 0.1788 0.0
H1460 H 0.30893 0.6996 0.13046 0.0
H1461 H 0.29612 0.72619 0.11876 0.0
H1462 H 0.32338 0.68539 0.16217 0.0
H1463 H 0.34869 0.68857 0.18106 0.0
C1464 C 0.72855 0.15766 0.33995 0.0
C1465 C 0.73857 0.17512 0.35608 0.0
C1466 C 0.77983 0.16303 0.34463 0.0
C1467 C 0.76979 0.14748 0.32667 0.0
N1468 N 0.73576 0.1247 0.31126 0.0
N1469 N 0.7727 0.19012 0.37894 0.0
C1470 C 0.74446 0.14284 0.32589 0.0
C1471 C 0.76395 0.17615 0.36031 0.0
N1472 N 0.70385 0.15625 0.33735 0.0
N1473 N 0.80451 0.16601 0.34574 0.0
H1474 H 0.76127 0.19995 0.39048 0.0
H1475 H 0.79087 0.19062 0.3842 0.0
H1476 H 0.81646 0.15562 0.33526 0.0
H1477 H 0.81318 0.17898 0.35646 0.0
H1478 H 0.69511 0.14596 0.32408 0.0
H1479 H 0.69191 0.16607 0.34839 0.0
H1480 H 0.71768 0.11915 0.31087 0.0
H1481 H 0.74716 0.11383 0.30067 0.0
C1482 C 0.33655 0.22177 0.84858 0.0
C1483 C 0.31803 0.23427 0.86146 0.0
C1484 C 0.33493 0.27353 0.84906 0.0
C1485 C 0.35171 0.26099 0.83401 0.0
N1486 N 0.37352 0.22446 0.8243 0.0
N1487 N 0.30329 0.27098 0.87997 0.0
C1488 C 0.35431 0.23543 0.83563 0.0
C1489 C 0.31867 0.25989 0.86389 0.0
N1490 N 0.33619 0.1969 0.84776 0.0
N1491 N 0.33363 0.29835 0.84786 0.0
H1492 H 0.29127 0.26111 0.89087 0.0
H1493 H 0.3037 0.28949 0.88396 0.0
H1494 H 0.34602 0.30869 0.83784 0.0
H1495 H 0.32008 0.30867 0.85612 0.0
H1496 H 0.34744 0.18649 0.83666 0.0
H1497 H 0.32395 0.18659 0.858 0.0
H1498 H 0.37759 0.20603 0.82578 0.0
H1499 H 0.38664 0.23444 0.81485 0.0
C1500 C 0.27308 0.83903 0.34047 0.0
C1501 C 0.26073 0.82339 0.35684 0.0
C1502 C 0.2215 0.8405 0.34474 0.0
C1503 C 0.23363 0.85415 0.32653 0.0
N1504 N 0.27036 0.87205 0.31104 0.0
N1505 N 0.2249 0.81356 0.37978 0.0
C1506 C 0.25933 0.85548 0.32594 0.0
C1507 C 0.23543 0.82578 0.36085 0.0
N1508 N 0.29775 0.83704 0.33796 0.0
N1509 N 0.19664 0.84078 0.34566 0.0
H1510 H 0.23502 0.80276 0.39171 0.0
H1511 H 0.20677 0.81549 0.38486 0.0
H1512 H 0.18622 0.85236 0.33477 0.0
H1513 H 0.1863 0.82935 0.35663 0.0
H1514 H 0.3078 0.84583 0.32454 0.0
H1515 H 0.30824 0.82585 0.34918 0.0
H1516 H 0.28901 0.87522 0.3107 0.0
H1517 H 0.26044 0.88412 0.30022 0.0
C1518 C 0.65062 0.74314 0.83692 0.0
C1519 C 0.65947 0.73394 0.81434 0.0
C1520 C 0.69652 0.7573 0.82011 0.0
C1521 C 0.69013 0.76271 0.84453 0.0
N1522 N 0.66216 0.75466 0.87781 0.0
N1523 N 0.69599 0.72484 0.79111 0.0
C1524 C 0.66746 0.7539 0.85357 0.0
C1525 C 0.68403 0.73863 0.80797 0.0
N1526 N 0.62639 0.74274 0.84231 0.0
N1527 N 0.71355 0.77056 0.8078 0.0
H1528 H 0.68875 0.70881 0.78397 0.0
H1529 H 0.71437 0.72752 0.78714 0.0
H1530 H 0.72077 0.78678 0.8145 0.0
H1531 H 0.71753 0.76731 0.78951 0.0
H1532 H 0.61929 0.75115 0.85777 0.0
H1533 H 0.61314 0.7367 0.83022 0.0
H1534 H 0.64658 0.7466 0.88506 0.0
H1535 H 0.67445 0.76053 0.89096 0.0
C1536 C 0.09654 0.16627 0.21823 0.0
C1537 C 0.09558 0.1866 0.23396 0.0
C1538 C 0.12311 0.16599 0.26227 0.0
C1539 C 0.12908 0.14924 0.24344 0.0
N1540 N 0.12071 0.13257 0.20354 0.0
N1541 N 0.09745 0.19975 0.27544 0.0
C1542 C 0.11511 0.14863 0.22168 0.0
C1543 C 0.10553 0.18447 0.2576 0.0
N1544 N 0.07932 0.16362 0.20055 0.0
N1545 N 0.13487 0.16459 0.28416 0.0
H1546 H 0.08322 0.21196 0.27229 0.0
H1547 H 0.10293 0.19892 0.29354 0.0
H1548 H 0.14659 0.1503 0.28856 0.0
H1549 H 0.1334 0.17757 0.29785 0.0
H1550 H 0.078 0.14827 0.1895 0.0
H1551 H 0.06447 0.17542 0.19929 0.0
H1552 H 0.11301 0.13342 0.18624 0.0
H1553 H 0.13427 0.11941 0.20513 0.0
C1554 C 0.32098 0.6381 0.76141 0.0
C1555 C 0.34266 0.63059 0.74978 0.0
C1556 C 0.31893 0.60049 0.72712 0.0
C1557 C 0.29724 0.61318 0.7332 0.0
N1558 N 0.27874 0.64715 0.75509 0.0
N1559 N 0.36231 0.60377 0.72081 0.0
C1560 C 0.29832 0.63246 0.75056 0.0
C1561 C 0.34183 0.61112 0.7328 0.0
N1562 N 0.32221 0.65156 0.78226 0.0
N1563 N 0.31761 0.57833 0.71595 0.0
H1564 H 0.37958 0.61056 0.72449 0.0
H1565 H 0.36184 0.5918 0.70611 0.0
H1566 H 0.30104 0.5697 0.71248 0.0
H1567 H 0.33282 0.56745 0.7128 0.0
H1568 H 0.30689 0.65604 0.79252 0.0
H1569 H 0.3388 0.65577 0.79054 0.0
H1570 H 0.27999 0.66282 0.76571 0.0
H1571 H 0.26201 0.64572 0.74646 0.0
C1572 C 0.89112 0.85521 0.2157 0.0
C1573 C 0.88027 0.85486 0.23918 0.0
C1574 C 0.90333 0.81808 0.24942 0.0
C1575 C 0.90948 0.81577 0.22453 0.0
N1576 N 0.92229 0.83829 0.18934 0.0
N1577 N 0.8793 0.83909 0.28008 0.0
C1578 C 0.9077 0.83643 0.20933 0.0
C1579 C 0.88784 0.83748 0.25678 0.0
N1580 N 0.88423 0.87219 0.19887 0.0
N1581 N 0.91279 0.80186 0.26569 0.0
H1582 H 0.86906 0.85391 0.28614 0.0
H1583 H 0.88196 0.82581 0.29331 0.0
H1584 H 0.92535 0.78865 0.2603 0.0
H1585 H 0.91012 0.80271 0.28441 0.0
H1586 H 0.8893 0.87135 0.18063 0.0
H1587 H 0.87223 0.88635 0.20272 0.0
H1588 H 0.92303 0.85373 0.17836 0.0
H1589 H 0.93601 0.82563 0.18585 0.0
C1590 C 0.65189 0.36426 0.71487 0.0
C1591 C 0.64884 0.36174 0.7403 0.0
C1592 C 0.68659 0.38436 0.74724 0.0
C1593 C 0.69178 0.38287 0.72198 0.0
N1594 N 0.68064 0.36795 0.68194 0.0
N1595 N 0.66278 0.36891 0.78114 0.0
C1596 C 0.67459 0.37235 0.7057 0.0
C1597 C 0.66593 0.37192 0.75667 0.0
N1598 N 0.6333 0.35824 0.69947 0.0
N1599 N 0.7013 0.39787 0.76206 0.0
H1600 H 0.64721 0.36086 0.78847 0.0
H1601 H 0.67595 0.37333 0.79402 0.0
H1602 H 0.71634 0.40744 0.75549 0.0
H1603 H 0.69742 0.40138 0.78026 0.0
H1604 H 0.63362 0.36195 0.68088 0.0
H1605 H 0.61657 0.35173 0.70562 0.0
H1606 H 0.66982 0.35772 0.6702 0.0
H1607 H 0.69745 0.37225 0.67435 0.0
C1608 C 0.13926 0.80589 0.74378 0.0
C1609 C 0.11983 0.80777 0.76085 0.0
C1610 C 0.11363 0.85042 0.74848 0.0
C1611 C 0.13465 0.84866 0.73361 0.0
N1612 N 0.1556 0.82184 0.70616 0.0
N1613 N 0.08257 0.82869 0.77132 0.0
C1614 C 0.1431 0.82524 0.72732 0.0
C1615 C 0.10505 0.82913 0.76071 0.0
N1616 N 0.15558 0.78714 0.74448 0.0
N1617 N 0.10188 0.87216 0.7507 0.0
H1618 H 0.07512 0.81289 0.77875 0.0
H1619 H 0.07028 0.84308 0.77041 0.0
H1620 H 0.10531 0.88667 0.73894 0.0
H1621 H 0.08865 0.8756 0.76382 0.0
H1622 H 0.17091 0.78662 0.73331 0.0
H1623 H 0.15588 0.77382 0.75792 0.0
H1624 H 0.161 0.80467 0.70012 0.0
H1625 H 0.15778 0.83595 0.69359 0.0
C1626 C 0.68587 0.63959 0.23021 0.0
C1627 C 0.6626 0.63052 0.236 0.0
C1628 C 0.68234 0.59985 0.26184 0.0
C1629 C 0.70354 0.61477 0.26262 0.0
N1630 N 0.72392 0.65136 0.24781 0.0
N1631 N 0.63957 0.59634 0.25087 0.0
C1632 C 0.70528 0.63499 0.24641 0.0
C1633 C 0.66107 0.60866 0.2497 0.0
N1634 N 0.68916 0.65315 0.20968 0.0
N1635 N 0.68291 0.57713 0.27196 0.0
H1636 H 0.62525 0.60004 0.23897 0.0
H1637 H 0.63614 0.58232 0.26316 0.0
H1638 H 0.69868 0.56979 0.27958 0.0
H1639 H 0.66869 0.56469 0.27069 0.0
H1640 H 0.70627 0.65901 0.20392 0.0
H1641 H 0.67512 0.65571 0.19712 0.0
H1642 H 0.7243 0.66728 0.23746 0.0
H1643 H 0.7373 0.65099 0.26112 0.0
C1644 C 0.86931 0.19855 0.76171 0.0
C1645 C 0.87321 0.19925 0.78721 0.0
C1646 C 0.86021 0.15668 0.79059 0.0
C1647 C 0.85263 0.15728 0.76589 0.0
N1648 N 0.8498 0.17831 0.72756 0.0
N1649 N 0.86921 0.18012 0.82669 0.0
C1650 C 0.85736 0.17805 0.75126 0.0
C1651 C 0.86828 0.17849 0.80183 0.0
N1652 N 0.87732 0.21738 0.74757 0.0
N1653 N 0.85906 0.13551 0.80363 0.0
H1654 H 0.87433 0.1958 0.83603 0.0
H1655 H 0.86271 0.16662 0.83829 0.0
H1656 H 0.85211 0.11929 0.79676 0.0
H1657 H 0.86704 0.13342 0.82071 0.0
H1658 H 0.877 0.21719 0.72864 0.0
H1659 H 0.88622 0.23252 0.75483 0.0
H1660 H 0.84994 0.1938 0.71665 0.0
H1661 H 0.84242 0.16302 0.71904 0.0
C1662 C 0.34384 0.38842 0.26203 0.0
C1663 C 0.34075 0.37371 0.24091 0.0
C1664 C 0.29938 0.38988 0.23584 0.0
C1665 C 0.30177 0.40173 0.25867 0.0
N1666 N 0.32996 0.42432 0.2834 0.0
N1667 N 0.3189 0.36652 0.20358 0.0
C1668 C 0.3253 0.40512 0.26838 0.0
C1669 C 0.31953 0.3765 0.22636 0.0
N1670 N 0.36322 0.38523 0.2773 0.0
N1671 N 0.27786 0.3915 0.22355 0.0
H1672 H 0.3338 0.35743 0.19608 0.0
H1673 H 0.30457 0.36868 0.19141 0.0
H1674 H 0.26425 0.40364 0.22891 0.0
H1675 H 0.27355 0.3813 0.2082 0.0
H1676 H 0.3645 0.39394 0.29411 0.0
H1677 H 0.37681 0.37233 0.27461 0.0
H1678 H 0.34736 0.42839 0.28977 0.0
H1679 H 0.3171 0.43797 0.28643 0.0
C1680 C 0.27288 0.11989 0.17224 0.0
C1681 C 0.25891 0.11921 0.15055 0.0
C1682 C 0.23068 0.0908 0.17017 0.0
C1683 C 0.23935 0.0992 0.19298 0.0
N1684 N 0.27518 0.11028 0.2155 0.0
N1685 N 0.23091 0.09564 0.12622 0.0
C1686 C 0.2628 0.10997 0.19395 0.0
C1687 C 0.23996 0.1017 0.14853 0.0
N1688 N 0.29549 0.13017 0.17167 0.0
N1689 N 0.21498 0.07157 0.16931 0.0
H1690 H 0.2403 0.09942 0.11018 0.0
H1691 H 0.21477 0.08608 0.12363 0.0
H1692 H 0.21087 0.06131 0.18473 0.0
H1693 H 0.20856 0.06382 0.15328 0.0
H1694 H 0.30689 0.13194 0.18666 0.0
H1695 H 0.30335 0.13584 0.15532 0.0
H1696 H 0.29175 0.11898 0.21824 0.0
H1697 H 0.26911 0.10047 0.23059 0.0
C1698 C 0.38626 0.74814 0.65832 0.0
C1699 C 0.36972 0.7344 0.64413 0.0
C1700 C 0.37719 0.69844 0.66909 0.0
C1701 C 0.39389 0.71206 0.68356 0.0
N1702 N 0.4191 0.74762 0.68794 0.0
N1703 N 0.35606 0.69487 0.63069 0.0
C1704 C 0.40009 0.73621 0.67672 0.0
C1705 C 0.36783 0.70894 0.64749 0.0
N1706 N 0.38805 0.77266 0.65469 0.0
N1707 N 0.36797 0.67669 0.67704 0.0
H1708 H 0.34828 0.70188 0.61489 0.0
H1709 H 0.3563 0.6759 0.63121 0.0
H1710 H 0.37244 0.66849 0.69348 0.0
H1711 H 0.35359 0.66783 0.66843 0.0
H1712 H 0.39764 0.78425 0.66622 0.0
H1713 H 0.37898 0.78148 0.64051 0.0
H1714 H 0.42575 0.76454 0.68259 0.0
H1715 H 0.42968 0.73901 0.70119 0.0
C1716 C 0.7481 0.8902 0.1933 0.0
C1717 C 0.77204 0.89975 0.19223 0.0
C1718 C 0.77699 0.88462 0.15091 0.0
C1719 C 0.75431 0.87223 0.15291 0.0
N1720 N 0.71487 0.87016 0.17188 0.0
N1721 N 0.80098 0.91863 0.16526 0.0
C1722 C 0.73863 0.87742 0.1728 0.0
C1723 C 0.78374 0.90127 0.16939 0.0
N1724 N 0.7348 0.89313 0.21407 0.0
N1725 N 0.79312 0.87926 0.13276 0.0
H1726 H 0.8044 0.93254 0.17771 0.0
H1727 H 0.80898 0.92132 0.14827 0.0
H1728 H 0.78992 0.86648 0.11918 0.0
H1729 H 0.81082 0.88607 0.13252 0.0
H1730 H 0.71837 0.88437 0.21746 0.0
H1731 H 0.74063 0.90457 0.22808 0.0
H1732 H 0.70199 0.87446 0.18506 0.0
H1733 H 0.70754 0.86145 0.15667 0.0
C1734 C 0.609 0.24293 0.69249 0.0
C1735 C 0.59842 0.26649 0.69286 0.0
C1736 C 0.61711 0.27637 0.65396 0.0
C1737 C 0.63061 0.25428 0.65501 0.0
N1738 N 0.63386 0.21339 0.67061 0.0
N1739 N 0.58066 0.29719 0.66724 0.0
C1740 C 0.62471 0.23643 0.67283 0.0
C1741 C 0.59848 0.28038 0.67125 0.0
N1742 N 0.6038 0.22701 0.71083 0.0
N1743 N 0.62316 0.29441 0.63794 0.0
H1744 H 0.56579 0.2989 0.67895 0.0
H1745 H 0.57899 0.30676 0.65094 0.0
H1746 H 0.63755 0.29321 0.62569 0.0
H1747 H 0.61526 0.31165 0.6385 0.0
H1748 H 0.61267 0.21051 0.71353 0.0
H1749 H 0.58985 0.23043 0.72327 0.0
H1750 H 0.62969 0.19908 0.68226 0.0
H1751 H 0.64451 0.20806 0.65583 0.0
C1752 C 0.2461 0.88795 0.81017 0.0
C1753 C 0.22082 0.88757 0.80496 0.0
C1754 C 0.21311 0.86739 0.84399 0.0
C1755 C 0.23843 0.86367 0.84677 0.0
N1756 N 0.27948 0.87025 0.83314 0.0
N1757 N 0.18026 0.87372 0.8156 0.0
C1758 C 0.25511 0.87417 0.83017 0.0
C1759 C 0.20418 0.87694 0.82174 0.0
N1760 N 0.26134 0.90161 0.79605 0.0
N1761 N 0.1975 0.86105 0.86229 0.0
H1762 H 0.17271 0.8792 0.79911 0.0
H1763 H 0.1682 0.86338 0.82594 0.0
H1764 H 0.20333 0.8533 0.87861 0.0
H1765 H 0.17911 0.86567 0.86226 0.0
H1766 H 0.27967 0.90429 0.80001 0.0
H1767 H 0.25505 0.91212 0.78152 0.0
H1768 H 0.29249 0.87489 0.82017 0.0
H1769 H 0.28658 0.86129 0.84832 0.0
C1770 C 0.61421 0.72614 0.32061 0.0
C1771 C 0.62655 0.72821 0.298 0.0
C1772 C 0.65646 0.75462 0.31769 0.0
C1773 C 0.64792 0.7472 0.34082 0.0
N1774 N 0.61879 0.72373 0.36426 0.0
N1775 N 0.66307 0.74139 0.2766 0.0
C1776 C 0.62654 0.7327 0.34242 0.0
C1777 C 0.64847 0.742 0.29673 0.0
N1778 N 0.59071 0.71808 0.32127 0.0
N1779 N 0.67269 0.77335 0.3158 0.0
H1780 H 0.65987 0.73046 0.2615 0.0
H1781 H 0.68021 0.74951 0.27618 0.0
H1782 H 0.67844 0.78334 0.33091 0.0
H1783 H 0.6781 0.7806 0.29911 0.0
H1784 H 0.58026 0.71813 0.33709 0.0
H1785 H 0.58089 0.71405 0.30551 0.0
H1786 H 0.60495 0.71084 0.3657 0.0
H1787 H 0.62725 0.72749 0.38076 0.0
C1788 C 0.77394 0.09634 0.83662 0.0
C1789 C 0.76018 0.09941 0.81508 0.0
C1790 C 0.7306 0.12392 0.83747 0.0
C1791 C 0.74811 0.12672 0.85632 0.0
N1792 N 0.78599 0.11413 0.87499 0.0
N1793 N 0.72002 0.10457 0.79894 0.0
C1794 C 0.76932 0.11193 0.85667 0.0
C1795 C 0.73657 0.10948 0.81681 0.0
N1796 N 0.79079 0.07816 0.83799 0.0
N1797 N 0.70888 0.13593 0.83905 0.0
H1798 H 0.72398 0.09241 0.78488 0.0
H1799 H 0.70204 0.11046 0.7991 0.0
H1800 H 0.70365 0.14535 0.85469 0.0
H1801 H 0.69617 0.13683 0.82505 0.0
H1802 H 0.80029 0.07394 0.85385 0.0
H1803 H 0.79267 0.06528 0.82416 0.0
H1804 H 0.80312 0.10603 0.87441 0.0
H1805 H 0.78335 0.12519 0.89015 0.0
C1806 C 0.36216 0.25354 0.2931 0.0
C1807 C 0.38179 0.27048 0.29211 0.0
C1808 C 0.38734 0.26638 0.33625 0.0
C1809 C 0.36759 0.24972 0.33694 0.0
N1810 N 0.3445 0.2197 0.31507 0.0
N1811 N 0.41867 0.28478 0.31126 0.0
C1812 C 0.35826 0.24038 0.31488 0.0
C1813 C 0.3963 0.27415 0.31323 0.0
N1814 N 0.34558 0.25159 0.27464 0.0
N1815 N 0.39666 0.276 0.35717 0.0
H1816 H 0.42624 0.2895 0.29449 0.0
H1817 H 0.43073 0.28618 0.32584 0.0
H1818 H 0.39147 0.27039 0.37447 0.0
H1819 H 0.40884 0.29055 0.35721 0.0
H1820 H 0.32992 0.24097 0.27608 0.0
H1821 H 0.34539 0.26256 0.25925 0.0
H1822 H 0.33856 0.21116 0.29919 0.0
H1823 H 0.34147 0.20984 0.33105 0.0
C1824 C 0.18677 0.24244 0.12378 0.0
C1825 C 0.18928 0.21674 0.12306 0.0
C1826 C 0.1486 0.21212 0.14055 0.0
C1827 C 0.14808 0.23746 0.14519 0.0
N1828 N 0.16615 0.27716 0.14176 0.0
N1829 N 0.17377 0.17681 0.13355 0.0
C1830 C 0.16691 0.25283 0.1367 0.0
C1831 C 0.17032 0.20141 0.13172 0.0
N1832 N 0.20324 0.25677 0.11188 0.0
N1833 N 0.12849 0.19821 0.14519 0.0
H1834 H 0.18965 0.16797 0.12817 0.0
H1835 H 0.16173 0.16524 0.14252 0.0
H1836 H 0.11241 0.20539 0.15224 0.0
H1837 H 0.12695 0.18007 0.1399 0.0
H1838 H 0.20135 0.27553 0.10996 0.0
H1839 H 0.21776 0.24956 0.10198 0.0
H1840 H 0.18064 0.28897 0.13865 0.0
H1841 H 0.15123 0.28534 0.1502 0.0
C1842 C 0.17285 0.76818 0.9039 0.0
C1843 C 0.19592 0.75944 0.89619 0.0
C1844 C 0.17598 0.73077 0.86861 0.0
C1845 C 0.15428 0.74464 0.87096 0.0
N1846 N 0.1289 0.7639 0.90111 0.0
N1847 N 0.21687 0.72307 0.88388 0.0
C1848 C 0.15155 0.75953 0.89191 0.0
C1849 C 0.19674 0.73758 0.88252 0.0
N1850 N 0.1714 0.78429 0.92274 0.0
N1851 N 0.17651 0.71113 0.85342 0.0
H1852 H 0.23095 0.72676 0.89609 0.0
H1853 H 0.21846 0.70629 0.87526 0.0
H1854 H 0.16063 0.70359 0.84622 0.0
H1855 H 0.19238 0.70211 0.84836 0.0
H1856 H 0.15575 0.79404 0.92706 0.0
H1857 H 0.18603 0.78736 0.93444 0.0
H1858 H 0.12562 0.77384 0.91688 0.0
H1859 H 0.11356 0.75472 0.89475 0.0
C1860 C 0.71714 0.6691 0.4045 0.0
C1861 C 0.73208 0.68996 0.40525 0.0
C1862 C 0.76334 0.66851 0.38199 0.0
C1863 C 0.7456 0.65075 0.37562 0.0
N1864 N 0.70541 0.63351 0.3816 0.0
N1865 N 0.77335 0.70395 0.40674 0.0
C1866 C 0.72269 0.65034 0.38767 0.0
C1867 C 0.75662 0.68791 0.3978 0.0
N1868 N 0.69801 0.6672 0.4202 0.0
N1869 N 0.78618 0.66715 0.37225 0.0
H1870 H 0.76873 0.71667 0.42008 0.0
H1871 H 0.7919 0.70312 0.40312 0.0
H1872 H 0.79203 0.65225 0.36203 0.0
H1873 H 0.79918 0.68081 0.37383 0.0
H1874 H 0.6874 0.65158 0.42186 0.0
H1875 H 0.69492 0.68024 0.43368 0.0
H1876 H 0.68752 0.63438 0.38778 0.0
H1877 H 0.70826 0.61964 0.36902 0.0
C1878 C 0.80774 0.25163 0.90831 0.0
C1879 C 0.80784 0.22575 0.90874 0.0
C1880 C 0.85185 0.22676 0.90234 0.0
C1881 C 0.84965 0.25073 0.89332 0.0
N1882 N 0.82781 0.2885 0.89415 0.0
N1883 N 0.83141 0.18826 0.90615 0.0
C1884 C 0.82836 0.26412 0.89883 0.0
C1885 C 0.83038 0.2131 0.90649 0.0
N1886 N 0.78793 0.26397 0.91684 0.0
N1887 N 0.87426 0.2171 0.90684 0.0
H1888 H 0.81643 0.17695 0.90843 0.0
H1889 H 0.84721 0.17878 0.90163 0.0
H1890 H 0.89004 0.22762 0.90589 0.0
H1891 H 0.8767 0.20005 0.91482 0.0
H1892 H 0.78717 0.28283 0.91839 0.0
H1893 H 0.77305 0.255 0.92453 0.0
H1894 H 0.8121 0.29907 0.89498 0.0
H1895 H 0.84347 0.29797 0.889 0.0
C1896 C 0.30523 0.32836 0.37241 0.0
C1897 C 0.29157 0.31553 0.39041 0.0
C1898 C 0.25743 0.34379 0.38455 0.0
C1899 C 0.27128 0.35636 0.36685 0.0
N1900 N 0.31048 0.36588 0.34992 0.0
N1901 N 0.25736 0.31452 0.41776 0.0
C1902 C 0.29601 0.35055 0.36311 0.0
C1903 C 0.26852 0.3245 0.39791 0.0
N1904 N 0.32562 0.31839 0.36215 0.0
N1905 N 0.23353 0.34968 0.38785 0.0
H1906 H 0.26536 0.30063 0.42797 0.0
H1907 H 0.24144 0.32142 0.42535 0.0
H1908 H 0.22539 0.36438 0.37896 0.0
H1909 H 0.2216 0.33946 0.39845 0.0
H1910 H 0.33428 0.32589 0.34704 0.0
H1911 H 0.33266 0.30141 0.36662 0.0
H1912 H 0.32927 0.36371 0.34856 0.0
H1913 H 0.30407 0.38216 0.34249 0.0
C1914 C 0.82772 0.77846 0.10522 0.0
C1915 C 0.80515 0.76762 0.11115 0.0
C1916 C 0.82595 0.73957 0.1389 0.0
C1917 C 0.84686 0.75477 0.13774 0.0
N1918 N 0.8679 0.78897 0.11954 0.0
N1919 N 0.78543 0.73062 0.12323 0.0
C1920 C 0.84812 0.77392 0.12038 0.0
C1921 C 0.80508 0.74576 0.12481 0.0
N1922 N 0.8299 0.79209 0.08457 0.0
N1923 N 0.82592 0.71981 0.15403 0.0
H1924 H 0.77115 0.73411 0.11118 0.0
H1925 H 0.78423 0.71373 0.13168 0.0
H1926 H 0.84148 0.71393 0.1632 0.0
H1927 H 0.81057 0.70946 0.15793 0.0
H1928 H 0.84643 0.79905 0.07844 0.0
H1929 H 0.81593 0.79321 0.07176 0.0
H1930 H 0.8683 0.80491 0.10926 0.0
H1931 H 0.88322 0.78671 0.13047 0.0
C1932 C 0.77323 0.321 0.64322 0.0
C1933 C 0.7658 0.34412 0.63493 0.0
C1934 C 0.7407 0.32341 0.60436 0.0
C1935 C 0.74123 0.30194 0.61898 0.0
N1936 N 0.75755 0.28232 0.65552 0.0
N1937 N 0.7481 0.36701 0.60199 0.0
C1938 C 0.75784 0.30089 0.63896 0.0
C1939 C 0.75139 0.34529 0.61354 0.0
N1940 N 0.79426 0.31861 0.65618 0.0
N1941 N 0.73093 0.32259 0.58151 0.0
H1942 H 0.75885 0.38216 0.60586 0.0
H1943 H 0.73511 0.36978 0.58847 0.0
H1944 H 0.72475 0.30644 0.57368 0.0
H1945 H 0.73146 0.33714 0.56938 0.0
H1946 H 0.8011 0.30172 0.66154 0.0
H1947 H 0.80598 0.33335 0.65882 0.0
H1948 H 0.76843 0.28245 0.67107 0.0
H1949 H 0.74456 0.26859 0.65597 0.0
C1950 C 0.26167 0.65887 0.62071 0.0
C1951 C 0.24188 0.66043 0.63734 0.0
C1952 C 0.23635 0.70346 0.6265 0.0
C1953 C 0.25754 0.70211 0.6118 0.0
N1954 N 0.27937 0.67579 0.58422 0.0
N1955 N 0.20562 0.68169 0.64983 0.0
C1956 C 0.26658 0.6789 0.60526 0.0
C1957 C 0.22759 0.68199 0.63819 0.0
N1958 N 0.27706 0.63933 0.62074 0.0
N1959 N 0.22481 0.7253 0.62923 0.0
H1960 H 0.19852 0.66594 0.65773 0.0
H1961 H 0.19348 0.69623 0.64987 0.0
H1962 H 0.22921 0.74035 0.61849 0.0
H1963 H 0.21116 0.72853 0.64195 0.0
H1964 H 0.29305 0.63897 0.61053 0.0
H1965 H 0.27549 0.62465 0.6326 0.0
H1966 H 0.28509 0.65874 0.57815 0.0
H1967 H 0.28075 0.68946 0.57114 0.0
C1968 C 0.84561 0.81701 0.72774 0.0
C1969 C 0.85688 0.84007 0.72878 0.0
C1970 C 0.89236 0.8205 0.74774 0.0
C1971 C 0.87742 0.80022 0.75384 0.0
N1972 N 0.83745 0.78112 0.75112 0.0
N1973 N 0.89461 0.86205 0.73254 0.0
C1974 C 0.85354 0.79864 0.74385 0.0
C1975 C 0.88155 0.84131 0.73644 0.0
N1976 N 0.82738 0.81268 0.71145 0.0
N1977 N 0.91684 0.81945 0.75203 0.0
H1978 H 0.8886 0.87562 0.72068 0.0
H1979 H 0.91139 0.86559 0.74059 0.0
H1980 H 0.92529 0.80395 0.75905 0.0
H1981 H 0.92908 0.83283 0.7466 0.0
H1982 H 0.81959 0.79552 0.70917 0.0
H1983 H 0.82269 0.82539 0.69812 0.0
H1984 H 0.81934 0.78103 0.74545 0.0
H1985 H 0.84092 0.76859 0.76488 0.0
C1986 C 0.64178 0.37757 0.28069 0.0
C1987 C 0.64195 0.36372 0.25883 0.0
C1988 C 0.67825 0.38586 0.24505 0.0
C1989 C 0.68009 0.39628 0.26857 0.0
N1990 N 0.65647 0.41391 0.30087 0.0
N1991 N 0.65547 0.35973 0.21732 0.0
C1992 C 0.65939 0.39613 0.2838 0.0
C1993 C 0.65861 0.36965 0.23992 0.0
N1994 N 0.62626 0.37192 0.29927 0.0
N1995 N 0.69524 0.39175 0.22791 0.0
H1996 H 0.6406 0.34872 0.21304 0.0
H1997 H 0.6666 0.36322 0.20244 0.0
H1998 H 0.70778 0.40574 0.23081 0.0
H1999 H 0.69657 0.38369 0.21086 0.0
H2000 H 0.62755 0.37982 0.31647 0.0
H2001 H 0.61341 0.35804 0.29834 0.0
H2002 H 0.64083 0.41561 0.31145 0.0
H2003 H 0.66829 0.42875 0.3019 0.0
C2004 C 0.13616 0.18168 0.73953 0.0
C2005 C 0.14346 0.16197 0.75455 0.0
C2006 C 0.12269 0.18051 0.78931 0.0
C2007 C 0.11332 0.19916 0.77383 0.0
N2008 N 0.1076 0.2147 0.73308 0.0
N2009 N 0.1403 0.14036 0.79275 0.0
C2010 C 0.11913 0.19903 0.7486 0.0
C2011 C 0.13532 0.16051 0.77898 0.0
N2012 N 0.14559 0.18389 0.71662 0.0
N2013 N 0.12176 0.18294 0.81409 0.0
H2014 H 0.15111 0.12596 0.78681 0.0
H2015 H 0.13208 0.13704 0.80951 0.0
H2016 H 0.1158 0.19863 0.82287 0.0
H2017 H 0.1304 0.17107 0.82609 0.0
H2018 H 0.14339 0.19939 0.70592 0.0
H2019 H 0.15689 0.17076 0.70885 0.0
H2020 H 0.10933 0.21386 0.71423 0.0
H2021 H 0.09446 0.22714 0.73877 0.0
C2022 C 0.33235 0.63127 0.24181 0.0
C2023 C 0.35189 0.63714 0.2576 0.0
C2024 C 0.32853 0.6231 0.29267 0.0
C2025 C 0.30851 0.61792 0.27705 0.0
N2026 N 0.29375 0.61036 0.23651 0.0
N2027 N 0.37186 0.62981 0.29607 0.0
C2028 C 0.31128 0.61971 0.25145 0.0
C2029 C 0.35118 0.62974 0.28228 0.0
N2030 N 0.3337 0.6376 0.21781 0.0
N2031 N 0.32553 0.6241 0.31737 0.0
H2032 H 0.38888 0.63441 0.28918 0.0
H2033 H 0.37261 0.62249 0.31356 0.0
H2034 H 0.30916 0.62064 0.32622 0.0
H2035 H 0.33881 0.63078 0.32914 0.0
H2036 H 0.31904 0.63664 0.20585 0.0
H2037 H 0.34958 0.64467 0.21012 0.0
H2038 H 0.29548 0.60939 0.21767 0.0
H2039 H 0.27837 0.60148 0.24325 0.0
C2040 C 0.88623 0.17296 0.27056 0.0
C2041 C 0.88373 0.15101 0.25723 0.0
C2042 C 0.90838 0.16803 0.22429 0.0
C2043 C 0.90441 0.19147 0.23449 0.0
N2044 N 0.90423 0.21337 0.27235 0.0
N2045 N 0.90482 0.12418 0.22973 0.0
C2046 C 0.89815 0.19304 0.25945 0.0
C2047 C 0.89882 0.14727 0.23661 0.0
N2048 N 0.87671 0.17454 0.29343 0.0
N2049 N 0.92139 0.16568 0.20329 0.0
H2050 H 0.90071 0.10911 0.24051 0.0
H2051 H 0.91634 0.12007 0.21529 0.0
H2052 H 0.93235 0.17968 0.19667 0.0
H2053 H 0.92204 0.1498 0.193 0.0
H2054 H 0.87526 0.19073 0.30315 0.0
H2055 H 0.8701 0.15922 0.30255 0.0
H2056 H 0.9013 0.21534 0.29095 0.0
H2057 H 0.91478 0.2272 0.26468 0.0
C2058 C 0.29208 0.35882 0.74732 0.0
C2059 C 0.29465 0.38098 0.73407 0.0
C2060 C 0.33495 0.38696 0.75271 0.0
C2061 C 0.33282 0.36364 0.76368 0.0
N2062 N 0.30414 0.33735 0.78375 0.0
N2063 N 0.31442 0.42015 0.73169 0.0
C2064 C 0.30948 0.35309 0.76532 0.0
C2065 C 0.31487 0.39641 0.73912 0.0
N2066 N 0.27473 0.34198 0.74152 0.0
N2067 N 0.35583 0.40006 0.75555 0.0
H2068 H 0.29934 0.42783 0.72305 0.0
H2069 H 0.32776 0.43282 0.73615 0.0
H2070 H 0.36878 0.39557 0.76869 0.0
H2071 H 0.36004 0.41545 0.74534 0.0
H2072 H 0.27397 0.32493 0.74984 0.0
H2073 H 0.26317 0.34335 0.7266 0.0
H2074 H 0.28673 0.33025 0.7864 0.0
H2075 H 0.31635 0.33417 0.79798 0.0
C2076 C 0.11786 0.83321 0.26849 0.0
C2077 C 0.12193 0.85466 0.25481 0.0
C2078 C 0.10681 0.83505 0.2181 0.0
C2079 C 0.10563 0.81254 0.23091 0.0
N2080 N 0.10096 0.79231 0.26954 0.0
N2081 N 0.10641 0.87897 0.22182 0.0
C2082 C 0.10802 0.81237 0.25666 0.0
C2083 C 0.11154 0.85665 0.23138 0.0
N2084 N 0.12439 0.83271 0.29244 0.0
N2085 N 0.10557 0.83588 0.19328 0.0
H2086 H 0.10788 0.89485 0.23212 0.0
H2087 H 0.09747 0.88125 0.20524 0.0
H2088 H 0.10305 0.82067 0.18231 0.0
H2089 H 0.10917 0.85167 0.18339 0.0
H2090 H 0.1247 0.81697 0.303 0.0
H2091 H 0.13001 0.84844 0.30152 0.0
H2092 H 0.1008 0.7915 0.28846 0.0
H2093 H 0.09309 0.77718 0.26116 0.0
C2094 C 0.68472 0.6 0.72865 0.0
C2095 C 0.70657 0.61276 0.7339 0.0
C2096 C 0.68444 0.6359 0.76477 0.0
C2097 C 0.66209 0.62864 0.75429 0.0
N2098 N 0.64094 0.60238 0.72573 0.0
N2099 N 0.72591 0.64618 0.75575 0.0
C2100 C 0.66206 0.60988 0.73643 0.0
C2101 C 0.70634 0.63127 0.75207 0.0
N2102 N 0.68563 0.57834 0.71648 0.0
N2103 N 0.68455 0.64821 0.78635 0.0
H2104 H 0.74178 0.64564 0.74548 0.0
H2105 H 0.72524 0.66126 0.76725 0.0
H2106 H 0.66855 0.65157 0.79605 0.0
H2107 H 0.70052 0.65251 0.79566 0.0
H2108 H 0.67044 0.56728 0.71394 0.0
H2109 H 0.70204 0.57017 0.7115 0.0
H2110 H 0.64061 0.59123 0.71039 0.0
H2111 H 0.62376 0.60796 0.73129 0.0
C2112 C 0.73647 0.86309 0.81908 0.0
C2113 C 0.74754 0.86981 0.84133 0.0
C2114 C 0.77201 0.89963 0.81896 0.0
C2115 C 0.76602 0.8878 0.79676 0.0
N2116 N 0.74421 0.85464 0.77693 0.0
N2117 N 0.77721 0.89488 0.86233 0.0
C2118 C 0.74828 0.86888 0.79693 0.0
C2119 C 0.76536 0.88858 0.84142 0.0
N2120 N 0.71518 0.8503 0.81923 0.0
N2121 N 0.78386 0.92147 0.81858 0.0
H2122 H 0.77301 0.88776 0.87935 0.0
H2123 H 0.7924 0.90623 0.86247 0.0
H2124 H 0.78801 0.93051 0.80239 0.0
H2125 H 0.78693 0.9318 0.8342 0.0
H2126 H 0.70541 0.84643 0.80342 0.0
H2127 H 0.70611 0.84607 0.83539 0.0
H2128 H 0.73306 0.8393 0.77741 0.0
H2129 H 0.7539 0.85599 0.76075 0.0
C2130 C 0.59432 0.26838 0.33725 0.0
C2131 C 0.5972 0.25663 0.31456 0.0
C2132 C 0.61925 0.22376 0.33514 0.0
C2133 C 0.62337 0.23967 0.35506 0.0
N2134 N 0.61377 0.27792 0.37529 0.0
N2135 N 0.6052 0.21929 0.29333 0.0
C2136 C 0.61009 0.26191 0.35662 0.0
C2137 C 0.60711 0.23281 0.31408 0.0
N2138 N 0.57645 0.2853 0.34044 0.0
N2139 N 0.62731 0.20027 0.33648 0.0
H2140 H 0.59431 0.22486 0.27878 0.0
H2141 H 0.61417 0.20286 0.29049 0.0
H2142 H 0.63572 0.19343 0.3521 0.0
H2143 H 0.62404 0.18716 0.32322 0.0
H2144 H 0.57272 0.29327 0.35725 0.0
H2145 H 0.56309 0.28844 0.32734 0.0
H2146 H 0.60681 0.29557 0.37511 0.0
H2147 H 0.62489 0.2745 0.39019 0.0
C2148 C 0.26272 0.11328 0.80554 0.0
C2149 C 0.2394 0.10277 0.80237 0.0
C2150 C 0.22948 0.11 0.84495 0.0
C2151 C 0.25052 0.12507 0.84684 0.0
N2152 N 0.29142 0.13264 0.8333 0.0
N2153 N 0.21015 0.07728 0.82254 0.0
C2154 C 0.26872 0.12371 0.82852 0.0
C2155 C 0.2259 0.09645 0.8233 0.0
N2156 N 0.27876 0.11327 0.78659 0.0
N2157 N 0.21198 0.10976 0.86259 0.0
H2158 H 0.20903 0.06591 0.80736 0.0
H2159 H 0.20102 0.0708 0.83785 0.0
H2160 H 0.21371 0.11814 0.87942 0.0
H2161 H 0.19499 0.10174 0.85998 0.0
H2162 H 0.29516 0.12271 0.78649 0.0
H2163 H 0.27557 0.10303 0.7709 0.0
H2164 H 0.30599 0.13173 0.82126 0.0
H2165 H 0.29608 0.13946 0.85042 0.0
C2166 C 0.38162 0.73181 0.34893 0.0
C2167 C 0.36649 0.75279 0.34789 0.0
C2168 C 0.38305 0.76283 0.30762 0.0
C2169 C 0.3951 0.73999 0.3075 0.0
N2170 N 0.41776 0.71241 0.33296 0.0
N2171 N 0.35873 0.79219 0.3303 0.0
C2172 C 0.39839 0.72761 0.32983 0.0
C2173 C 0.36923 0.7697 0.32849 0.0
N2174 N 0.37889 0.71491 0.36697 0.0
N2175 N 0.38499 0.77768 0.2878 0.0
H2176 H 0.34936 0.79778 0.34585 0.0
H2177 H 0.36061 0.80592 0.31742 0.0
H2178 H 0.39749 0.77414 0.27392 0.0
H2179 H 0.37482 0.79342 0.28517 0.0
H2180 H 0.38774 0.69812 0.36668 0.0
H2181 H 0.36641 0.71657 0.38111 0.0
H2182 H 0.42177 0.70411 0.34955 0.0
H2183 H 0.43166 0.71113 0.3201 0.0
C2184 C 0.73998 0.13162 0.17893 0.0
C2185 C 0.75317 0.13678 0.15737 0.0
C2186 C 0.79096 0.12336 0.17666 0.0
C2187 C 0.77795 0.11887 0.19855 0.0
N2188 N 0.7396 0.1122 0.21866 0.0
N2189 N 0.78919 0.12965 0.13315 0.0
C2190 C 0.75222 0.12082 0.19904 0.0
C2191 C 0.7779 0.12968 0.1553 0.0
N2192 N 0.71596 0.13787 0.18033 0.0
N2193 N 0.81586 0.12377 0.17663 0.0
H2194 H 0.78046 0.13428 0.117 0.0
H2195 H 0.80648 0.12239 0.13039 0.0
H2196 H 0.82647 0.12007 0.19189 0.0
H2197 H 0.82612 0.13003 0.16198 0.0
H2198 H 0.70593 0.13748 0.1964 0.0
H2199 H 0.70627 0.14433 0.1653 0.0
H2200 H 0.7207 0.11127 0.21937 0.0
H2201 H 0.74819 0.10389 0.23344 0.0
C2202 C 0.36082 0.25069 0.70398 0.0
C2203 C 0.38051 0.26755 0.70489 0.0
C2204 C 0.38381 0.26589 0.66037 0.0
C2205 C 0.36415 0.24906 0.65969 0.0
N2206 N 0.34206 0.21799 0.68124 0.0
N2207 N 0.41635 0.28297 0.68475 0.0
C2208 C 0.35568 0.23877 0.68172 0.0
C2209 C 0.39393 0.27235 0.68331 0.0
N2210 N 0.34544 0.24753 0.72328 0.0
N2211 N 0.39187 0.27704 0.63968 0.0
H2212 H 0.42465 0.28692 0.70138 0.0
H2213 H 0.4277 0.28511 0.66972 0.0
H2214 H 0.38533 0.27313 0.62237 0.0
H2215 H 0.40408 0.29155 0.63998 0.0
H2216 H 0.3296 0.23715 0.72209 0.0
H2217 H 0.34653 0.25716 0.73951 0.0
H2218 H 0.33692 0.2087 0.69697 0.0
H2219 H 0.33847 0.20869 0.66506 0.0
C2220 C 0.24929 0.87702 0.19426 0.0
C2221 C 0.22381 0.88061 0.19618 0.0
C2222 C 0.21864 0.86698 0.15401 0.0
C2223 C 0.2432 0.85907 0.15383 0.0
N2224 N 0.28247 0.85688 0.17308 0.0
N2225 N 0.18355 0.87619 0.17877 0.0
C2226 C 0.25879 0.86447 0.17368 0.0
C2227 C 0.20831 0.87537 0.17613 0.0
N2228 N 0.2643 0.88578 0.21205 0.0
N2229 N 0.20488 0.86576 0.13332 0.0
H2230 H 0.17481 0.88137 0.19476 0.0
H2231 H 0.17146 0.86951 0.16578 0.0
H2232 H 0.21135 0.85896 0.11687 0.0
H2233 H 0.18773 0.87372 0.13181 0.0
H2234 H 0.2832 0.88559 0.21087 0.0
H2235 H 0.25773 0.89526 0.22715 0.0
H2236 H 0.29409 0.85751 0.18803 0.0
H2237 H 0.29023 0.84902 0.15763 0.0
C2238 C 0.61987 0.74881 0.66557 0.0
C2239 C 0.63865 0.73606 0.65335 0.0
C2240 C 0.63548 0.70244 0.68225 0.0
C2241 C 0.61571 0.71444 0.6939 0.0
N2242 N 0.58639 0.74699 0.69448 0.0
N2243 N 0.66017 0.69837 0.64618 0.0
C2244 C 0.60702 0.73704 0.68484 0.0
C2245 C 0.64487 0.71202 0.66031 0.0
N2246 N 0.61481 0.77228 0.65912 0.0
N2247 N 0.64686 0.6831 0.69311 0.0
H2248 H 0.66825 0.70484 0.6303 0.0
H2249 H 0.66306 0.67983 0.649 0.0
H2250 H 0.64179 0.67585 0.70984 0.0
H2251 H 0.66318 0.67578 0.68682 0.0
H2252 H 0.60317 0.78356 0.66892 0.0
H2253 H 0.62334 0.78088 0.64449 0.0
H2254 H 0.57785 0.76235 0.68738 0.0
H2255 H 0.57664 0.73863 0.70847 0.0
C2256 C 0.84473 0.7923 0.85976 0.0
C2257 C 0.85141 0.7677 0.86363 0.0
C2258 C 0.81973 0.76403 0.89486 0.0
C2259 C 0.81067 0.78727 0.88807 0.0
N2260 N 0.81185 0.82115 0.85961 0.0
N2261 N 0.8452 0.72947 0.88402 0.0
C2262 C 0.82263 0.80102 0.86963 0.0
C2263 C 0.83898 0.75336 0.88109 0.0
N2264 N 0.85905 0.80728 0.84596 0.0
N2265 N 0.81005 0.75238 0.91457 0.0
H2266 H 0.85988 0.72159 0.8749 0.0
H2267 H 0.83518 0.71725 0.89446 0.0
H2268 H 0.79614 0.75997 0.92504 0.0
H2269 H 0.81712 0.73633 0.92176 0.0
H2270 H 0.85639 0.82605 0.84501 0.0
H2271 H 0.87487 0.80156 0.83725 0.0
H2272 H 0.81851 0.82987 0.84414 0.0
H2273 H 0.79487 0.82778 0.86466 0.0
C2274 C 0.84118 0.22555 0.11813 0.0
C2275 C 0.84103 0.24515 0.13499 0.0
C2276 C 0.80051 0.25728 0.1207 0.0
C2277 C 0.79894 0.23493 0.10803 0.0
N2278 N 0.82172 0.20726 0.08297 0.0
N2279 N 0.8228 0.28236 0.14953 0.0
C2280 C 0.82061 0.22203 0.10289 0.0
C2281 C 0.8215 0.26215 0.13507 0.0
N2282 N 0.85996 0.20926 0.11789 0.0
N2283 N 0.78226 0.27395 0.11806 0.0
H2284 H 0.83861 0.28723 0.15888 0.0
H2285 H 0.80828 0.29407 0.15271 0.0
H2286 H 0.76792 0.27109 0.10591 0.0
H2287 H 0.78242 0.29126 0.1257 0.0
H2288 H 0.85948 0.19306 0.10805 0.0
H2289 H 0.8754 0.21104 0.12876 0.0
H2290 H 0.8376 0.19863 0.07728 0.0
H2291 H 0.80757 0.20651 0.07031 0.0
C2292 C 0.2475 0.33293 0.60924 0.0
C2293 C 0.26461 0.35067 0.61717 0.0
C2294 C 0.2961 0.3307 0.59293 0.0
C2295 C 0.28123 0.30977 0.59172 0.0
N2296 N 0.24044 0.29515 0.58694 0.0
N2297 N 0.30556 0.36712 0.61551 0.0
C2298 C 0.25598 0.31226 0.59607 0.0
C2299 C 0.28886 0.35024 0.60812 0.0
N2300 N 0.22347 0.33568 0.61506 0.0
N2301 N 0.31665 0.3321 0.57909 0.0
H2302 H 0.30141 0.38175 0.62679 0.0
H2303 H 0.32407 0.3656 0.61172 0.0
H2304 H 0.32086 0.31885 0.56615 0.0
H2305 H 0.32736 0.34771 0.57798 0.0
H2306 H 0.21011 0.32271 0.61175 0.0
H2307 H 0.2168 0.35145 0.62329 0.0
H2308 H 0.22164 0.29553 0.58895 0.0
H2309 H 0.24659 0.28135 0.57541 0.0
C2310 C 0.18902 0.73989 0.11104 0.0
C2311 C 0.19094 0.76364 0.10116 0.0
C2312 C 0.15033 0.77383 0.11567 0.0
C2313 C 0.15008 0.75182 0.12931 0.0
N2314 N 0.16447 0.71069 0.13372 0.0
N2315 N 0.1678 0.795 0.08117 0.0
C2316 C 0.16789 0.73364 0.12473 0.0
C2317 C 0.16966 0.77793 0.0991 0.0
N2318 N 0.2075 0.72371 0.10732 0.0
N2319 N 0.13351 0.79167 0.11975 0.0
H2320 H 0.18089 0.79656 0.06751 0.0
H2321 H 0.15194 0.80489 0.07793 0.0
H2322 H 0.11906 0.78991 0.13184 0.0
H2323 H 0.13496 0.80904 0.11226 0.0
H2324 H 0.20875 0.70675 0.11562 0.0
H2325 H 0.2216 0.72742 0.09513 0.0
H2326 H 0.17624 0.69618 0.13075 0.0
H2327 H 0.14867 0.70578 0.14304 0.0
C2328 C 0.77267 0.68708 0.65281 0.0
C2329 C 0.77095 0.66417 0.64131 0.0
C2330 C 0.7511 0.68456 0.60671 0.0
C2331 C 0.74583 0.70476 0.62208 0.0
N2332 N 0.74988 0.72297 0.66237 0.0
N2333 N 0.76528 0.64273 0.60347 0.0
C2334 C 0.75652 0.70575 0.64569 0.0
C2335 C 0.76233 0.66338 0.61692 0.0
N2336 N 0.78969 0.69104 0.67045 0.0
N2337 N 0.74618 0.68603 0.58238 0.0
H2338 H 0.77718 0.6289 0.60875 0.0
H2339 H 0.75643 0.63955 0.58702 0.0
H2340 H 0.73928 0.70178 0.57431 0.0
H2341 H 0.75107 0.67273 0.56982 0.0
H2342 H 0.79241 0.70809 0.67834 0.0
H2343 H 0.80309 0.67817 0.67447 0.0
H2344 H 0.75616 0.72266 0.68028 0.0
H2345 H 0.736 0.73556 0.65966 0.0
C2346 C 0.15315 0.25129 0.86446 0.0
C2347 C 0.15113 0.24405 0.83973 0.0
C2348 C 0.17874 0.20989 0.84754 0.0
C2349 C 0.18451 0.22005 0.87045 0.0
N2350 N 0.17717 0.24964 0.90174 0.0
N2351 N 0.16325 0.21692 0.80717 0.0
C2352 C 0.1714 0.24034 0.87943 0.0
C2353 C 0.164 0.22325 0.83121 0.0
N2354 N 0.13811 0.26897 0.87333 0.0
N2355 N 0.18755 0.18744 0.8413 0.0
H2356 H 0.1513 0.22477 0.79475 0.0
H2357 H 0.17508 0.20436 0.79932 0.0
H2358 H 0.19863 0.17716 0.85281 0.0
H2359 H 0.18191 0.17799 0.82586 0.0
H2360 H 0.13737 0.27388 0.89161 0.0
H2361 H 0.1249 0.2774 0.86261 0.0
H2362 H 0.17026 0.26595 0.90844 0.0
H2363 H 0.18984 0.24131 0.9132 0.0
C2364 C 0.2793 0.67341 0.40283 0.0
C2365 C 0.26633 0.69554 0.40086 0.0
C2366 C 0.23307 0.67365 0.38083 0.0
C2367 C 0.2496 0.65448 0.37565 0.0
N2368 N 0.28894 0.6356 0.3829 0.0
N2369 N 0.22736 0.71477 0.39647 0.0
C2370 C 0.27261 0.65376 0.38754 0.0
C2371 C 0.24182 0.6949 0.39282 0.0
N2372 N 0.29753 0.67102 0.41951 0.0
N2373 N 0.20931 0.67141 0.37385 0.0
H2374 H 0.23299 0.72928 0.40739 0.0
H2375 H 0.21001 0.71685 0.3892 0.0
H2376 H 0.20272 0.65559 0.36562 0.0
H2377 H 0.19585 0.68418 0.37756 0.0
H2378 H 0.30655 0.65463 0.42264 0.0
H2379 H 0.30096 0.68433 0.43259 0.0
H2380 H 0.30696 0.63629 0.38878 0.0
H2381 H 0.28523 0.62061 0.37197 0.0
C2382 C 0.70945 0.34479 0.36691 0.0
C2383 C 0.73449 0.34737 0.36162 0.0
C2384 C 0.74319 0.30939 0.38318 0.0
C2385 C 0.71785 0.30452 0.38409 0.0
N2386 N 0.67658 0.31661 0.37396 0.0
N2387 N 0.77568 0.33296 0.36466 0.0
C2388 C 0.7008 0.32216 0.37574 0.0
C2389 C 0.75159 0.33005 0.37005 0.0
N2390 N 0.69385 0.36371 0.36271 0.0
N2391 N 0.75905 0.29428 0.39494 0.0
H2392 H 0.78235 0.34854 0.35607 0.0
H2393 H 0.78878 0.31962 0.36773 0.0
H2394 H 0.75321 0.27922 0.40496 0.0
H2395 H 0.77758 0.29783 0.39664 0.0
H2396 H 0.67578 0.36371 0.36842 0.0
H2397 H 0.69959 0.38039 0.35569 0.0
H2398 H 0.66398 0.32775 0.3652 0.0
H2399 H 0.66913 0.29997 0.37909 0.0
loop_
_geom_bond_atom_site_label_1
_geom_bond_atom_site_label_2
_geom_bond_distance
_geom_bond_site_symmetry_2
_ccdc_geom_bond_type
O0 Cd1 2.223 . S
O0 C8 1.315 . S
Cd1 O0 2.223 . S
Cd1 O4 2.297 . S
Cd1 O5 2.439 . S
Cd1 O11 2.240 . S
Cd2 O3 2.240 . S
Cd2 O10 2.223 . S
Cd2 O12 2.297 . S
Cd2 O13 2.439 . S
O3 Cd2 2.240 . S
O3 C8 1.279 . S
O4 Cd1 2.297 . S
O4 C6 1.247 . S
O5 Cd1 2.439 . S
O5 C6 1.208 . S
C6 O4 1.247 . S
C6 O5 1.208 . S
C7 O12 1.247 . S
C7 O13 1.208 . S
C8 O0 1.315 . S
C8 O3 1.279 . S
C9 O10 1.315 . S
C9 O11 1.279 . S
O10 Cd2 2.223 . S
O10 C9 1.315 . S
O11 Cd1 2.240 . S
O11 C9 1.279 . S
O12 Cd2 2.297 . S
O12 C7 1.247 . S
O13 Cd2 2.439 . S
O13 C7 1.208 . S
O14 Cd15 2.223 . S
O14 C22 1.315 . S
Cd15 O14 2.223 . S
Cd15 O18 2.297 . S
Cd15 O19 2.439 . S
Cd15 O25 2.240 . S
Cd16 O17 2.240 . S
Cd16 O24 2.223 . S
Cd16 O26 2.297 . S
Cd16 O27 2.439 . S
O17 Cd16 2.240 . S
O17 C22 1.279 . S
O18 Cd15 2.297 . S
O18 C20 1.247 . S
O19 Cd15 2.439 . S
O19 C20 1.208 . S
C20 O18 1.247 . S
C20 O19 1.208 . S
C21 O26 1.247 . S
C21 O27 1.208 . S
C22 O14 1.315 . S
C22 O17 1.279 . S
C23 O24 1.315 . S
C23 O25 1.279 . S
O24 Cd16 2.223 . S
O24 C23 1.315 . S
O25 Cd15 2.240 . S
O25 C23 1.279 . S
O26 Cd16 2.297 . S
O26 C21 1.247 . S
O27 Cd16 2.439 . S
O27 C21 1.208 . S
O28 Cd29 2.223 . S
O28 C36 1.315 . S
Cd29 O28 2.223 . S
Cd29 O32 2.297 . S
Cd29 O33 2.439 . S
Cd29 O39 2.240 . S
Cd30 O31 2.240 . S
Cd30 O38 2.223 . S
Cd30 O40 2.297 . S
Cd30 O41 2.439 . S
O31 Cd30 2.240 . S
O31 C36 1.279 . S
O32 Cd29 2.297 . S
O32 C34 1.247 . S
O33 Cd29 2.439 . S
O33 C34 1.208 . S
C34 O32 1.247 . S
C34 O33 1.208 . S
C35 O40 1.247 . S
C35 O41 1.208 . S
C36 O28 1.315 . S
C36 O31 1.279 . S
C37 O38 1.315 . S
C37 O39 1.279 . S
O38 Cd30 2.223 . S
O38 C37 1.315 . S
O39 Cd29 2.240 . S
O39 C37 1.279 . S
O40 Cd30 2.297 . S
O40 C35 1.247 . S
O41 Cd30 2.439 . S
O41 C35 1.208 . S
O42 Cd43 2.223 . S
O42 C50 1.315 . S
Cd43 O42 2.223 . S
Cd43 O46 2.297 . S
Cd43 O47 2.439 . S
Cd43 O53 2.240 . S
Cd44 O45 2.240 . S
Cd44 O52 2.223 . S
Cd44 O54 2.297 . S
Cd44 O55 2.439 . S
O45 Cd44 2.240 . S
O45 C50 1.279 . S
O46 Cd43 2.297 . S
O46 C48 1.247 . S
O47 Cd43 2.439 . S
O47 C48 1.208 . S
C48 O46 1.247 . S
C48 O47 1.208 . S
C49 O54 1.247 . S
C49 O55 1.208 . S
C50 O42 1.315 . S
C50 O45 1.279 . S
C51 O52 1.315 . S
C51 O53 1.279 . S
O52 Cd44 2.223 . S
O52 C51 1.315 . S
O53 Cd43 2.240 . S
O53 C51 1.279 . S
O54 Cd44 2.297 . S
O54 C49 1.247 . S
O55 Cd44 2.439 . S
O55 C49 1.208 . S
O56 Cd57 2.223 . S
O56 C64 1.315 . S
Cd57 O56 2.223 . S
Cd57 O60 2.297 . S
Cd57 O61 2.439 . S
Cd57 O67 2.240 . S
Cd58 O59 2.240 . S
Cd58 O66 2.223 . S
Cd58 O68 2.297 . S
Cd58 O69 2.439 . S
O59 Cd58 2.240 . S
O59 C64 1.279 . S
O60 Cd57 2.297 . S
O60 C62 1.247 . S
O61 Cd57 2.439 . S
O61 C62 1.208 . S
C62 O60 1.247 . S
C62 O61 1.208 . S
C63 O68 1.247 . S
C63 O69 1.208 . S
C64 O56 1.315 . S
C64 O59 1.279 . S
C65 O66 1.315 . S
C65 O67 1.279 . S
O66 Cd58 2.223 . S
O66 C65 1.315 . S
O67 Cd57 2.240 . S
O67 C65 1.279 . S
O68 Cd58 2.297 . S
O68 C63 1.247 . S
O69 Cd58 2.439 . S
O69 C63 1.208 . S
O70 Cd71 2.223 . S
O70 C78 1.315 . S
Cd71 O70 2.223 . S
Cd71 O74 2.297 . S
Cd71 O75 2.439 . S
Cd71 O81 2.240 . S
Cd72 O73 2.240 . S
Cd72 O80 2.223 . S
Cd72 O82 2.297 . S
Cd72 O83 2.439 . S
O73 Cd72 2.240 . S
O73 C78 1.279 . S
O74 Cd71 2.297 . S
O74 C76 1.247 . S
O75 Cd71 2.439 . S
O75 C76 1.208 . S
C76 O74 1.247 . S
C76 O75 1.208 . S
C77 O82 1.247 . S
C77 O83 1.208 . S
C78 O70 1.315 . S
C78 O73 1.279 . S
C79 O80 1.315 . S
C79 O81 1.279 . S
O80 Cd72 2.223 . S
O80 C79 1.315 . S
O81 Cd71 2.240 . S
O81 C79 1.279 . S
O82 Cd72 2.297 . S
O82 C77 1.247 . S
O83 Cd72 2.439 . S
O83 C77 1.208 . S
O84 Cd85 2.223 . S
O84 C92 1.315 . S
Cd85 O84 2.223 . S
Cd85 O88 2.297 . S
Cd85 O89 2.439 . S
Cd85 O95 2.240 . S
Cd86 O87 2.240 . S
Cd86 O94 2.223 . S
Cd86 O96 2.297 . S
Cd86 O97 2.439 . S
O87 Cd86 2.240 . S
O87 C92 1.279 . S
O88 Cd85 2.297 . S
O88 C90 1.247 . S
O89 Cd85 2.439 . S
O89 C90 1.208 . S
C90 O88 1.247 . S
C90 O89 1.208 . S
C91 O96 1.247 . S
C91 O97 1.208 . S
C92 O84 1.315 . S
C92 O87 1.279 . S
C93 O94 1.315 . S
C93 O95 1.279 . S
O94 Cd86 2.223 . S
O94 C93 1.315 . S
O95 Cd85 2.240 . S
O95 C93 1.279 . S
O96 Cd86 2.297 . S
O96 C91 1.247 . S
O97 Cd86 2.439 . S
O97 C91 1.208 . S
O98 Cd99 2.223 . S
O98 C106 1.315 . S
Cd99 O98 2.223 . S
Cd99 O102 2.297 . S
Cd99 O103 2.439 . S
Cd99 O109 2.240 . S
Cd100 O101 2.240 . S
Cd100 O108 2.223 . S
Cd100 O110 2.297 . S
Cd100 O111 2.439 . S
O101 Cd100 2.240 . S
O101 C106 1.279 . S
O102 Cd99 2.297 . S
O102 C104 1.247 . S
O103 Cd99 2.439 . S
O103 C104 1.208 . S
C104 O102 1.247 . S
C104 O103 1.208 . S
C105 O110 1.247 . S
C105 O111 1.208 . S
C106 O98 1.315 . S
C106 O101 1.279 . S
C107 O108 1.315 . S
C107 O109 1.279 . S
O108 Cd100 2.223 . S
O108 C107 1.315 . S
O109 Cd99 2.240 . S
O109 C107 1.279 . S
O110 Cd100 2.297 . S
O110 C105 1.247 . S
O111 Cd100 2.439 . S
O111 C105 1.208 . S
O112 Cd113 2.223 . S
O112 C120 1.315 . S
Cd113 O112 2.223 . S
Cd113 O116 2.297 . S
Cd113 O117 2.439 . S
Cd113 O123 2.240 . S
Cd114 O115 2.240 . S
Cd114 O122 2.223 . S
Cd114 O124 2.297 . S
Cd114 O125 2.439 . S
O115 Cd114 2.240 . S
O115 C120 1.279 . S
O116 Cd113 2.297 . S
O116 C118 1.247 . S
O117 Cd113 2.439 . S
O117 C118 1.208 . S
C118 O116 1.247 . S
C118 O117 1.208 . S
C119 O124 1.247 . S
C119 O125 1.208 . S
C120 O112 1.315 . S
C120 O115 1.279 . S
C121 O122 1.315 . S
C121 O123 1.279 . S
O122 Cd114 2.223 . S
O122 C121 1.315 . S
O123 Cd113 2.240 . S
O123 C121 1.279 . S
O124 Cd114 2.297 . S
O124 C119 1.247 . S
O125 Cd114 2.439 . S
O125 C119 1.208 . S
O126 Cd127 2.223 . S
O126 C134 1.315 . S
Cd127 O126 2.223 . S
Cd127 O130 2.297 . S
Cd127 O131 2.439 . S
Cd127 O137 2.240 . S
Cd128 O129 2.240 . S
Cd128 O136 2.223 . S
Cd128 O138 2.297 . S
Cd128 O139 2.439 . S
O129 Cd128 2.240 . S
O129 C134 1.279 . S
O130 Cd127 2.297 . S
O130 C132 1.247 . S
O131 Cd127 2.439 . S
O131 C132 1.208 . S
C132 O130 1.247 . S
C132 O131 1.208 . S
C133 O138 1.247 . S
C133 O139 1.208 . S
C134 O126 1.315 . S
C134 O129 1.279 . S
C135 O136 1.315 . S
C135 O137 1.279 . S
O136 Cd128 2.223 . S
O136 C135 1.315 . S
O137 Cd127 2.240 . S
O137 C135 1.279 . S
O138 Cd128 2.297 . S
O138 C133 1.247 . S
O139 Cd128 2.439 . S
O139 C133 1.208 . S
O140 Cd141 2.223 . S
O140 C148 1.315 . S
Cd141 O140 2.223 . S
Cd141 O144 2.297 . S
Cd141 O145 2.439 . S
Cd141 O151 2.240 . S
Cd142 O143 2.240 . S
Cd142 O150 2.223 . S
Cd142 O152 2.297 . S
Cd142 O153 2.439 . S
O143 Cd142 2.240 . S
O143 C148 1.279 . S
O144 Cd141 2.297 . S
O144 C146 1.247 . S
O145 Cd141 2.439 . S
O145 C146 1.208 . S
C146 O144 1.247 . S
C146 O145 1.208 . S
C147 O152 1.247 . S
C147 O153 1.208 . S
C148 O140 1.315 . S
C148 O143 1.279 . S
C149 O150 1.315 . S
C149 O151 1.279 . S
O150 Cd142 2.223 . S
O150 C149 1.315 . S
O151 Cd141 2.240 . S
O151 C149 1.279 . S
O152 Cd142 2.297 . S
O152 C147 1.247 . S
O153 Cd142 2.439 . S
O153 C147 1.208 . S
O154 Cd155 2.223 . S
O154 C162 1.315 . S
Cd155 O154 2.223 . S
Cd155 O158 2.297 . S
Cd155 O159 2.439 . S
Cd155 O165 2.240 . S
Cd156 O157 2.240 . S
Cd156 O164 2.223 . S
Cd156 O166 2.297 . S
Cd156 O167 2.439 . S
O157 Cd156 2.240 . S
O157 C162 1.279 . S
O158 Cd155 2.297 . S
O158 C160 1.247 . S
O159 Cd155 2.439 . S
O159 C160 1.208 . S
C160 O158 1.247 . S
C160 O159 1.208 . S
C161 O166 1.247 . S
C161 O167 1.208 . S
C162 O154 1.315 . S
C162 O157 1.279 . S
C163 O164 1.315 . S
C163 O165 1.279 . S
O164 Cd156 2.223 . S
O164 C163 1.315 . S
O165 Cd155 2.240 . S
O165 C163 1.279 . S
O166 Cd156 2.297 . S
O166 C161 1.247 . S
O167 Cd156 2.439 . S
O167 C161 1.208 . S
O168 Cd169 2.223 . S
O168 C176 1.315 . S
Cd169 O168 2.223 . S
Cd169 O172 2.297 . S
Cd169 O173 2.439 . S
Cd169 O179 2.240 . S
Cd170 O171 2.240 . S
Cd170 O178 2.223 . S
Cd170 O180 2.297 . S
Cd170 O181 2.439 . S
O171 Cd170 2.240 . S
O171 C176 1.279 . S
O172 Cd169 2.297 . S
O172 C174 1.247 . S
O173 Cd169 2.439 . S
O173 C174 1.208 . S
C174 O172 1.247 . S
C174 O173 1.208 . S
C175 O180 1.247 . S
C175 O181 1.208 . S
C176 O168 1.315 . S
C176 O171 1.279 . S
C177 O178 1.315 . S
C177 O179 1.279 . S
O178 Cd170 2.223 . S
O178 C177 1.315 . S
O179 Cd169 2.240 . S
O179 C177 1.279 . S
O180 Cd170 2.297 . S
O180 C175 1.247 . S
O181 Cd170 2.439 . S
O181 C175 1.208 . S
O182 Cd183 2.223 . S
O182 C190 1.315 . S
Cd183 O182 2.223 . S
Cd183 O186 2.297 . S
Cd183 O187 2.439 . S
Cd183 O193 2.240 . S
Cd184 O185 2.240 . S
Cd184 O192 2.223 . S
Cd184 O194 2.297 . S
Cd184 O195 2.439 . S
O185 Cd184 2.240 . S
O185 C190 1.279 . S
O186 Cd183 2.297 . S
O186 C188 1.247 . S
O187 Cd183 2.439 . S
O187 C188 1.208 . S
C188 O186 1.247 . S
C188 O187 1.208 . S
C189 O194 1.247 . S
C189 O195 1.208 . S
C190 O182 1.315 . S
C190 O185 1.279 . S
C191 O192 1.315 . S
C191 O193 1.279 . S
O192 Cd184 2.223 . S
O192 C191 1.315 . S
O193 Cd183 2.240 . S
O193 C191 1.279 . S
O194 Cd184 2.297 . S
O194 C189 1.247 . S
O195 Cd184 2.439 . S
O195 C189 1.208 . S
O196 Cd197 2.223 . S
O196 C204 1.315 . S
Cd197 O196 2.223 . S
Cd197 O200 2.297 . S
Cd197 O201 2.439 . S
Cd197 O207 2.240 . S
Cd198 O199 2.240 . S
Cd198 O206 2.223 . S
Cd198 O208 2.297 . S
Cd198 O209 2.439 . S
O199 Cd198 2.240 . S
O199 C204 1.279 . S
O200 Cd197 2.297 . S
O200 C202 1.247 . S
O201 Cd197 2.439 . S
O201 C202 1.208 . S
C202 O200 1.247 . S
C202 O201 1.208 . S
C203 O208 1.247 . S
C203 O209 1.208 . S
C204 O196 1.315 . S
C204 O199 1.279 . S
C205 O206 1.315 . S
C205 O207 1.279 . S
O206 Cd198 2.223 . S
O206 C205 1.315 . S
O207 Cd197 2.240 . S
O207 C205 1.279 . S
O208 Cd198 2.297 . S
O208 C203 1.247 . S
O209 Cd198 2.439 . S
O209 C203 1.208 . S
O210 Cd211 2.223 . S
O210 C218 1.315 . S
Cd211 O210 2.223 . S
Cd211 O214 2.297 . S
Cd211 O215 2.439 . S
Cd211 O221 2.240 . S
Cd212 O213 2.240 . S
Cd212 O220 2.223 . S
Cd212 O222 2.297 . S
Cd212 O223 2.439 . S
O213 Cd212 2.240 . S
O213 C218 1.279 . S
O214 Cd211 2.297 . S
O214 C216 1.247 . S
O215 Cd211 2.439 . S
O215 C216 1.208 . S
C216 O214 1.247 . S
C216 O215 1.208 . S
C217 O222 1.247 . S
C217 O223 1.208 . S
C218 O210 1.315 . S
C218 O213 1.279 . S
C219 O220 1.315 . S
C219 O221 1.279 . S
O220 Cd212 2.223 . S
O220 C219 1.315 . S
O221 Cd211 2.240 . S
O221 C219 1.279 . S
O222 Cd212 2.297 . S
O222 C217 1.247 . S
O223 Cd212 2.439 . S
O223 C217 1.208 . S
O224 Cd225 2.223 . S
O224 C232 1.315 . S
Cd225 O224 2.223 . S
Cd225 O228 2.297 . S
Cd225 O229 2.439 . S
Cd225 O235 2.240 . S
Cd226 O227 2.240 . S
Cd226 O234 2.223 . S
Cd226 O236 2.297 . S
Cd226 O237 2.439 . S
O227 Cd226 2.240 . S
O227 C232 1.279 . S
O228 Cd225 2.297 . S
O228 C230 1.247 . S
O229 Cd225 2.439 . S
O229 C230 1.208 . S
C230 O228 1.247 . S
C230 O229 1.208 . S
C231 O236 1.247 . S
C231 O237 1.208 . S
C232 O224 1.315 . S
C232 O227 1.279 . S
C233 O234 1.315 . S
C233 O235 1.279 . S
O234 Cd226 2.223 . S
O234 C233 1.315 . S
O235 Cd225 2.240 . S
O235 C233 1.279 . S
O236 Cd226 2.297 . S
O236 C231 1.247 . S
O237 Cd226 2.439 . S
O237 C231 1.208 . S
O238 Cd239 2.223 . S
O238 C246 1.315 . S
Cd239 O238 2.223 . S
Cd239 O242 2.297 . S
Cd239 O243 2.439 . S
Cd239 O249 2.240 . S
Cd240 O241 2.240 . S
Cd240 O248 2.223 . S
Cd240 O250 2.297 . S
Cd240 O251 2.439 . S
O241 Cd240 2.240 . S
O241 C246 1.279 . S
O242 Cd239 2.297 . S
O242 C244 1.247 . S
O243 Cd239 2.439 . S
O243 C244 1.208 . S
C244 O242 1.247 . S
C244 O243 1.208 . S
C245 O250 1.247 . S
C245 O251 1.208 . S
C246 O238 1.315 . S
C246 O241 1.279 . S
C247 O248 1.315 . S
C247 O249 1.279 . S
O248 Cd240 2.223 . S
O248 C247 1.315 . S
O249 Cd239 2.240 . S
O249 C247 1.279 . S
O250 Cd240 2.297 . S
O250 C245 1.247 . S
O251 Cd240 2.439 . S
O251 C245 1.208 . S
O252 Cd253 2.223 . S
O252 C260 1.315 . S
Cd253 O252 2.223 . S
Cd253 O256 2.297 . S
Cd253 O257 2.439 . S
Cd253 O263 2.240 . S
Cd254 O255 2.240 . S
Cd254 O262 2.223 . S
Cd254 O264 2.297 . S
Cd254 O265 2.439 . S
O255 Cd254 2.240 . S
O255 C260 1.279 . S
O256 Cd253 2.297 . S
O256 C258 1.247 . S
O257 Cd253 2.439 . S
O257 C258 1.208 . S
C258 O256 1.247 . S
C258 O257 1.208 . S
C259 O264 1.247 . S
C259 O265 1.208 . S
C260 O252 1.315 . S
C260 O255 1.279 . S
C261 O262 1.315 . S
C261 O263 1.279 . S
O262 Cd254 2.223 . S
O262 C261 1.315 . S
O263 Cd253 2.240 . S
O263 C261 1.279 . S
O264 Cd254 2.297 . S
O264 C259 1.247 . S
O265 Cd254 2.439 . S
O265 C259 1.208 . S
O266 Cd267 2.223 . S
O266 C274 1.315 . S
Cd267 O266 2.223 . S
Cd267 O270 2.297 . S
Cd267 O271 2.439 . S
Cd267 O277 2.240 . S
Cd268 O269 2.240 . S
Cd268 O276 2.223 . S
Cd268 O278 2.297 . S
Cd268 O279 2.439 . S
O269 Cd268 2.240 . S
O269 C274 1.279 . S
O270 Cd267 2.297 . S
O270 C272 1.247 . S
O271 Cd267 2.439 . S
O271 C272 1.208 . S
C272 O270 1.247 . S
C272 O271 1.208 . S
C273 O278 1.247 . S
C273 O279 1.208 . S
C274 O266 1.315 . S
C274 O269 1.279 . S
C275 O276 1.315 . S
C275 O277 1.279 . S
O276 Cd268 2.223 . S
O276 C275 1.315 . S
O277 Cd267 2.240 . S
O277 C275 1.279 . S
O278 Cd268 2.297 . S
O278 C273 1.247 . S
O279 Cd268 2.439 . S
O279 C273 1.208 . S
O280 Cd281 2.223 . S
O280 C288 1.315 . S
Cd281 O280 2.223 . S
Cd281 O284 2.297 . S
Cd281 O285 2.439 . S
Cd281 O291 2.240 . S
Cd282 O283 2.240 . S
Cd282 O290 2.223 . S
Cd282 O292 2.297 . S
Cd282 O293 2.439 . S
O283 Cd282 2.240 . S
O283 C288 1.279 . S
O284 Cd281 2.297 . S
O284 C286 1.247 . S
O285 Cd281 2.439 . S
O285 C286 1.208 . S
C286 O284 1.247 . S
C286 O285 1.208 . S
C287 O292 1.247 . S
C287 O293 1.208 . S
C288 O280 1.315 . S
C288 O283 1.279 . S
C289 O290 1.315 . S
C289 O291 1.279 . S
O290 Cd282 2.223 . S
O290 C289 1.315 . S
O291 Cd281 2.240 . S
O291 C289 1.279 . S
O292 Cd282 2.297 . S
O292 C287 1.247 . S
O293 Cd282 2.439 . S
O293 C287 1.208 . S
O294 Cd295 2.223 . S
O294 C302 1.315 . S
Cd295 O294 2.223 . S
Cd295 O298 2.297 . S
Cd295 O299 2.439 . S
Cd295 O305 2.240 . S
Cd296 O297 2.240 . S
Cd296 O304 2.223 . S
Cd296 O306 2.297 . S
Cd296 O307 2.439 . S
O297 Cd296 2.240 . S
O297 C302 1.279 . S
O298 Cd295 2.297 . S
O298 C300 1.247 . S
O299 Cd295 2.439 . S
O299 C300 1.208 . S
C300 O298 1.247 . S
C300 O299 1.208 . S
C301 O306 1.247 . S
C301 O307 1.208 . S
C302 O294 1.315 . S
C302 O297 1.279 . S
C303 O304 1.315 . S
C303 O305 1.279 . S
O304 Cd296 2.223 . S
O304 C303 1.315 . S
O305 Cd295 2.240 . S
O305 C303 1.279 . S
O306 Cd296 2.297 . S
O306 C301 1.247 . S
O307 Cd296 2.439 . S
O307 C301 1.208 . S
O308 Cd309 2.223 . S
O308 C316 1.315 . S
Cd309 O308 2.223 . S
Cd309 O312 2.297 . S
Cd309 O313 2.439 . S
Cd309 O319 2.240 . S
Cd310 O311 2.240 . S
Cd310 O318 2.223 . S
Cd310 O320 2.297 . S
Cd310 O321 2.439 . S
O311 Cd310 2.240 . S
O311 C316 1.279 . S
O312 Cd309 2.297 . S
O312 C314 1.247 . S
O313 Cd309 2.439 . S
O313 C314 1.208 . S
C314 O312 1.247 . S
C314 O313 1.208 . S
C315 O320 1.247 . S
C315 O321 1.208 . S
C316 O308 1.315 . S
C316 O311 1.279 . S
C317 O318 1.315 . S
C317 O319 1.279 . S
O318 Cd310 2.223 . S
O318 C317 1.315 . S
O319 Cd309 2.240 . S
O319 C317 1.279 . S
O320 Cd310 2.297 . S
O320 C315 1.247 . S
O321 Cd310 2.439 . S
O321 C315 1.208 . S
O322 Cd323 2.223 . S
O322 C330 1.315 . S
Cd323 O322 2.223 . S
Cd323 O326 2.297 . S
Cd323 O327 2.439 . S
Cd323 O333 2.240 . S
Cd324 O325 2.240 . S
Cd324 O332 2.223 . S
Cd324 O334 2.297 . S
Cd324 O335 2.439 . S
O325 Cd324 2.240 . S
O325 C330 1.279 . S
O326 Cd323 2.297 . S
O326 C328 1.247 . S
O327 Cd323 2.439 . S
O327 C328 1.208 . S
C328 O326 1.247 . S
C328 O327 1.208 . S
C329 O334 1.247 . S
C329 O335 1.208 . S
C330 O322 1.315 . S
C330 O325 1.279 . S
C331 O332 1.315 . S
C331 O333 1.279 . S
O332 Cd324 2.223 . S
O332 C331 1.315 . S
O333 Cd323 2.240 . S
O333 C331 1.279 . S
O334 Cd324 2.297 . S
O334 C329 1.247 . S
O335 Cd324 2.439 . S
O335 C329 1.208 . S
O336 Cd337 2.223 . S
O336 C344 1.315 . S
Cd337 O336 2.223 . S
Cd337 O340 2.297 . S
Cd337 O341 2.439 . S
Cd337 O347 2.240 . S
Cd338 O339 2.240 . S
Cd338 O346 2.223 . S
Cd338 O348 2.297 . S
Cd338 O349 2.439 . S
O339 Cd338 2.240 . S
O339 C344 1.279 . S
O340 Cd337 2.297 . S
O340 C342 1.247 . S
O341 Cd337 2.439 . S
O341 C342 1.208 . S
C342 O340 1.247 . S
C342 O341 1.208 . S
C343 O348 1.247 . S
C343 O349 1.208 . S
C344 O336 1.315 . S
C344 O339 1.279 . S
C345 O346 1.315 . S
C345 O347 1.279 . S
O346 Cd338 2.223 . S
O346 C345 1.315 . S
O347 Cd337 2.240 . S
O347 C345 1.279 . S
O348 Cd338 2.297 . S
O348 C343 1.247 . S
O349 Cd338 2.439 . S
O349 C343 1.208 . S
O350 Cd351 2.223 . S
O350 C358 1.315 . S
Cd351 O350 2.223 . S
Cd351 O354 2.297 . S
Cd351 O355 2.439 . S
Cd351 O361 2.240 . S
Cd352 O353 2.240 . S
Cd352 O360 2.223 . S
Cd352 O362 2.297 . S
Cd352 O363 2.439 . S
O353 Cd352 2.240 . S
O353 C358 1.279 . S
O354 Cd351 2.297 . S
O354 C356 1.247 . S
O355 Cd351 2.439 . S
O355 C356 1.208 . S
C356 O354 1.247 . S
C356 O355 1.208 . S
C357 O362 1.247 . S
C357 O363 1.208 . S
C358 O350 1.315 . S
C358 O353 1.279 . S
C359 O360 1.315 . S
C359 O361 1.279 . S
O360 Cd352 2.223 . S
O360 C359 1.315 . S
O361 Cd351 2.240 . S
O361 C359 1.279 . S
O362 Cd352 2.297 . S
O362 C357 1.247 . S
O363 Cd352 2.439 . S
O363 C357 1.208 . S
O364 Cd365 2.223 . S
O364 C372 1.315 . S
Cd365 O364 2.223 . S
Cd365 O368 2.297 . S
Cd365 O369 2.439 . S
Cd365 O375 2.240 . S
Cd366 O367 2.240 . S
Cd366 O374 2.223 . S
Cd366 O376 2.297 . S
Cd366 O377 2.439 . S
O367 Cd366 2.240 . S
O367 C372 1.279 . S
O368 Cd365 2.297 . S
O368 C370 1.247 . S
O369 Cd365 2.439 . S
O369 C370 1.208 . S
C370 O368 1.247 . S
C370 O369 1.208 . S
C371 O376 1.247 . S
C371 O377 1.208 . S
C372 O364 1.315 . S
C372 O367 1.279 . S
C373 O374 1.315 . S
C373 O375 1.279 . S
O374 Cd366 2.223 . S
O374 C373 1.315 . S
O375 Cd365 2.240 . S
O375 C373 1.279 . S
O376 Cd366 2.297 . S
O376 C371 1.247 . S
O377 Cd366 2.439 . S
O377 C371 1.208 . S
O378 Cd379 2.223 . S
O378 C386 1.315 . S
Cd379 O378 2.223 . S
Cd379 O382 2.297 . S
Cd379 O383 2.439 . S
Cd379 O389 2.240 . S
Cd380 O381 2.240 . S
Cd380 O388 2.223 . S
Cd380 O390 2.297 . S
Cd380 O391 2.439 . S
O381 Cd380 2.240 . S
O381 C386 1.279 . S
O382 Cd379 2.297 . S
O382 C384 1.247 . S
O383 Cd379 2.439 . S
O383 C384 1.208 . S
C384 O382 1.247 . S
C384 O383 1.208 . S
C385 O390 1.247 . S
C385 O391 1.208 . S
C386 O378 1.315 . S
C386 O381 1.279 . S
C387 O388 1.315 . S
C387 O389 1.279 . S
O388 Cd380 2.223 . S
O388 C387 1.315 . S
O389 Cd379 2.240 . S
O389 C387 1.279 . S
O390 Cd380 2.297 . S
O390 C385 1.247 . S
O391 Cd380 2.439 . S
O391 C385 1.208 . S
O392 Cd393 2.223 . S
O392 C400 1.315 . S
Cd393 O392 2.223 . S
Cd393 O396 2.297 . S
Cd393 O397 2.439 . S
Cd393 O403 2.240 . S
Cd394 O395 2.240 . S
Cd394 O402 2.223 . S
Cd394 O404 2.297 . S
Cd394 O405 2.439 . S
O395 Cd394 2.240 . S
O395 C400 1.279 . S
O396 Cd393 2.297 . S
O396 C398 1.247 . S
O397 Cd393 2.439 . S
O397 C398 1.208 . S
C398 O396 1.247 . S
C398 O397 1.208 . S
C399 O404 1.247 . S
C399 O405 1.208 . S
C400 O392 1.315 . S
C400 O395 1.279 . S
C401 O402 1.315 . S
C401 O403 1.279 . S
O402 Cd394 2.223 . S
O402 C401 1.315 . S
O403 Cd393 2.240 . S
O403 C401 1.279 . S
O404 Cd394 2.297 . S
O404 C399 1.247 . S
O405 Cd394 2.439 . S
O405 C399 1.208 . S
O406 Cd407 2.223 . S
O406 C414 1.315 . S
Cd407 O406 2.223 . S
Cd407 O410 2.297 . S
Cd407 O411 2.439 . S
Cd407 O417 2.240 . S
Cd408 O409 2.240 . S
Cd408 O416 2.223 . S
Cd408 O418 2.297 . S
Cd408 O419 2.439 . S
O409 Cd408 2.240 . S
O409 C414 1.279 . S
O410 Cd407 2.297 . S
O410 C412 1.247 . S
O411 Cd407 2.439 . S
O411 C412 1.208 . S
C412 O410 1.247 . S
C412 O411 1.208 . S
C413 O418 1.247 . S
C413 O419 1.208 . S
C414 O406 1.315 . S
C414 O409 1.279 . S
C415 O416 1.315 . S
C415 O417 1.279 . S
O416 Cd408 2.223 . S
O416 C415 1.315 . S
O417 Cd407 2.240 . S
O417 C415 1.279 . S
O418 Cd408 2.297 . S
O418 C413 1.247 . S
O419 Cd408 2.439 . S
O419 C413 1.208 . S
O420 Cd421 2.223 . S
O420 C428 1.315 . S
Cd421 O420 2.223 . S
Cd421 O424 2.297 . S
Cd421 O425 2.439 . S
Cd421 O431 2.240 . S
Cd422 O423 2.240 . S
Cd422 O430 2.223 . S
Cd422 O432 2.297 . S
Cd422 O433 2.439 . S
O423 Cd422 2.240 . S
O423 C428 1.279 . S
O424 Cd421 2.297 . S
O424 C426 1.247 . S
O425 Cd421 2.439 . S
O425 C426 1.208 . S
C426 O424 1.247 . S
C426 O425 1.208 . S
C427 O432 1.247 . S
C427 O433 1.208 . S
C428 O420 1.315 . S
C428 O423 1.279 . S
C429 O430 1.315 . S
C429 O431 1.279 . S
O430 Cd422 2.223 . S
O430 C429 1.315 . S
O431 Cd421 2.240 . S
O431 C429 1.279 . S
O432 Cd422 2.297 . S
O432 C427 1.247 . S
O433 Cd422 2.439 . S
O433 C427 1.208 . S
O434 Cd435 2.223 . S
O434 C442 1.315 . S
Cd435 O434 2.223 . S
Cd435 O438 2.297 . S
Cd435 O439 2.439 . S
Cd435 O445 2.240 . S
Cd436 O437 2.240 . S
Cd436 O444 2.223 . S
Cd436 O446 2.297 . S
Cd436 O447 2.439 . S
O437 Cd436 2.240 . S
O437 C442 1.279 . S
O438 Cd435 2.297 . S
O438 C440 1.247 . S
O439 Cd435 2.439 . S
O439 C440 1.208 . S
C440 O438 1.247 . S
C440 O439 1.208 . S
C441 O446 1.247 . S
C441 O447 1.208 . S
C442 O434 1.315 . S
C442 O437 1.279 . S
C443 O444 1.315 . S
C443 O445 1.279 . S
O444 Cd436 2.223 . S
O444 C443 1.315 . S
O445 Cd435 2.240 . S
O445 C443 1.279 . S
O446 Cd436 2.297 . S
O446 C441 1.247 . S
O447 Cd436 2.439 . S
O447 C441 1.208 . S
O448 Cd449 2.223 . S
O448 C456 1.315 . S
Cd449 O448 2.223 . S
Cd449 O452 2.297 . S
Cd449 O453 2.439 . S
Cd449 O459 2.240 . S
Cd450 O451 2.240 . S
Cd450 O458 2.223 . S
Cd450 O460 2.297 . S
Cd450 O461 2.439 . S
O451 Cd450 2.240 . S
O451 C456 1.279 . S
O452 Cd449 2.297 . S
O452 C454 1.247 . S
O453 Cd449 2.439 . S
O453 C454 1.208 . S
C454 O452 1.247 . S
C454 O453 1.208 . S
C455 O460 1.247 . S
C455 O461 1.208 . S
C456 O448 1.315 . S
C456 O451 1.279 . S
C457 O458 1.315 . S
C457 O459 1.279 . S
O458 Cd450 2.223 . S
O458 C457 1.315 . S
O459 Cd449 2.240 . S
O459 C457 1.279 . S
O460 Cd450 2.297 . S
O460 C455 1.247 . S
O461 Cd450 2.439 . S
O461 C455 1.208 . S
O462 Cd463 2.223 . S
O462 C470 1.315 . S
Cd463 O462 2.223 . S
Cd463 O466 2.297 . S
Cd463 O467 2.439 . S
Cd463 O473 2.240 . S
Cd464 O465 2.240 . S
Cd464 O472 2.223 . S
Cd464 O474 2.297 . S
Cd464 O475 2.439 . S
O465 Cd464 2.240 . S
O465 C470 1.279 . S
O466 Cd463 2.297 . S
O466 C468 1.247 . S
O467 Cd463 2.439 . S
O467 C468 1.208 . S
C468 O466 1.247 . S
C468 O467 1.208 . S
C469 O474 1.247 . S
C469 O475 1.208 . S
C470 O462 1.315 . S
C470 O465 1.279 . S
C471 O472 1.315 . S
C471 O473 1.279 . S
O472 Cd464 2.223 . S
O472 C471 1.315 . S
O473 Cd463 2.240 . S
O473 C471 1.279 . S
O474 Cd464 2.297 . S
O474 C469 1.247 . S
O475 Cd464 2.439 . S
O475 C469 1.208 . S
O476 Cd477 2.223 . S
O476 C484 1.315 . S
Cd477 O476 2.223 . S
Cd477 O480 2.297 . S
Cd477 O481 2.439 . S
Cd477 O487 2.240 . S
Cd478 O479 2.240 . S
Cd478 O486 2.223 . S
Cd478 O488 2.297 . S
Cd478 O489 2.439 . S
O479 Cd478 2.240 . S
O479 C484 1.279 . S
O480 Cd477 2.297 . S
O480 C482 1.247 . S
O481 Cd477 2.439 . S
O481 C482 1.208 . S
C482 O480 1.247 . S
C482 O481 1.208 . S
C483 O488 1.247 . S
C483 O489 1.208 . S
C484 O476 1.315 . S
C484 O479 1.279 . S
C485 O486 1.315 . S
C485 O487 1.279 . S
O486 Cd478 2.223 . S
O486 C485 1.315 . S
O487 Cd477 2.240 . S
O487 C485 1.279 . S
O488 Cd478 2.297 . S
O488 C483 1.247 . S
O489 Cd478 2.439 . S
O489 C483 1.208 . S
O490 Cd491 2.223 . S
O490 C498 1.315 . S
Cd491 O490 2.223 . S
Cd491 O494 2.297 . S
Cd491 O495 2.439 . S
Cd491 O501 2.240 . S
Cd492 O493 2.240 . S
Cd492 O500 2.223 . S
Cd492 O502 2.297 . S
Cd492 O503 2.439 . S
O493 Cd492 2.240 . S
O493 C498 1.279 . S
O494 Cd491 2.297 . S
O494 C496 1.247 . S
O495 Cd491 2.439 . S
O495 C496 1.208 . S
C496 O494 1.247 . S
C496 O495 1.208 . S
C497 O502 1.247 . S
C497 O503 1.208 . S
C498 O490 1.315 . S
C498 O493 1.279 . S
C499 O500 1.315 . S
C499 O501 1.279 . S
O500 Cd492 2.223 . S
O500 C499 1.315 . S
O501 Cd491 2.240 . S
O501 C499 1.279 . S
O502 Cd492 2.297 . S
O502 C497 1.247 . S
O503 Cd492 2.439 . S
O503 C497 1.208 . S
O504 Cd505 2.223 . S
O504 C512 1.315 . S
Cd505 O504 2.223 . S
Cd505 O508 2.297 . S
Cd505 O509 2.439 . S
Cd505 O515 2.240 . S
Cd506 O507 2.240 . S
Cd506 O514 2.223 . S
Cd506 O516 2.297 . S
Cd506 O517 2.439 . S
O507 Cd506 2.240 . S
O507 C512 1.279 . S
O508 Cd505 2.297 . S
O508 C510 1.247 . S
O509 Cd505 2.439 . S
O509 C510 1.208 . S
C510 O508 1.247 . S
C510 O509 1.208 . S
C511 O516 1.247 . S
C511 O517 1.208 . S
C512 O504 1.315 . S
C512 O507 1.279 . S
C513 O514 1.315 . S
C513 O515 1.279 . S
O514 Cd506 2.223 . S
O514 C513 1.315 . S
O515 Cd505 2.240 . S
O515 C513 1.279 . S
O516 Cd506 2.297 . S
O516 C511 1.247 . S
O517 Cd506 2.439 . S
O517 C511 1.208 . S
O518 Cd519 2.223 . S
O518 C526 1.315 . S
Cd519 O518 2.223 . S
Cd519 O522 2.297 . S
Cd519 O523 2.439 . S
Cd519 O529 2.240 . S
Cd520 O521 2.240 . S
Cd520 O528 2.223 . S
Cd520 O530 2.297 . S
Cd520 O531 2.439 . S
O521 Cd520 2.240 . S
O521 C526 1.279 . S
O522 Cd519 2.297 . S
O522 C524 1.247 . S
O523 Cd519 2.439 . S
O523 C524 1.208 . S
C524 O522 1.247 . S
C524 O523 1.208 . S
C525 O530 1.247 . S
C525 O531 1.208 . S
C526 O518 1.315 . S
C526 O521 1.279 . S
C527 O528 1.315 . S
C527 O529 1.279 . S
O528 Cd520 2.223 . S
O528 C527 1.315 . S
O529 Cd519 2.240 . S
O529 C527 1.279 . S
O530 Cd520 2.297 . S
O530 C525 1.247 . S
O531 Cd520 2.439 . S
O531 C525 1.208 . S
O532 Cd533 2.223 . S
O532 C540 1.315 . S
Cd533 O532 2.223 . S
Cd533 O536 2.297 . S
Cd533 O537 2.439 . S
Cd533 O543 2.240 . S
Cd534 O535 2.240 . S
Cd534 O542 2.223 . S
Cd534 O544 2.297 . S
Cd534 O545 2.439 . S
O535 Cd534 2.240 . S
O535 C540 1.279 . S
O536 Cd533 2.297 . S
O536 C538 1.247 . S
O537 Cd533 2.439 . S
O537 C538 1.208 . S
C538 O536 1.247 . S
C538 O537 1.208 . S
C539 O544 1.247 . S
C539 O545 1.208 . S
C540 O532 1.315 . S
C540 O535 1.279 . S
C541 O542 1.315 . S
C541 O543 1.279 . S
O542 Cd534 2.223 . S
O542 C541 1.315 . S
O543 Cd533 2.240 . S
O543 C541 1.279 . S
O544 Cd534 2.297 . S
O544 C539 1.247 . S
O545 Cd534 2.439 . S
O545 C539 1.208 . S
O546 Cd547 2.223 . S
O546 C554 1.315 . S
Cd547 O546 2.223 . S
Cd547 O550 2.297 . S
Cd547 O551 2.439 . S
Cd547 O557 2.240 . S
Cd548 O549 2.240 . S
Cd548 O556 2.223 . S
Cd548 O558 2.297 . S
Cd548 O559 2.439 . S
O549 Cd548 2.240 . S
O549 C554 1.279 . S
O550 Cd547 2.297 . S
O550 C552 1.247 . S
O551 Cd547 2.439 . S
O551 C552 1.208 . S
C552 O550 1.247 . S
C552 O551 1.208 . S
C553 O558 1.247 . S
C553 O559 1.208 . S
C554 O546 1.315 . S
C554 O549 1.279 . S
C555 O556 1.315 . S
C555 O557 1.279 . S
O556 Cd548 2.223 . S
O556 C555 1.315 . S
O557 Cd547 2.240 . S
O557 C555 1.279 . S
O558 Cd548 2.297 . S
O558 C553 1.247 . S
O559 Cd548 2.439 . S
O559 C553 1.208 . S
O560 Cd561 2.223 . S
O560 C568 1.315 . S
Cd561 O560 2.223 . S
Cd561 O564 2.297 . S
Cd561 O565 2.439 . S
Cd561 O571 2.240 . S
Cd562 O563 2.240 . S
Cd562 O570 2.223 . S
Cd562 O572 2.297 . S
Cd562 O573 2.439 . S
O563 Cd562 2.240 . S
O563 C568 1.279 . S
O564 Cd561 2.297 . S
O564 C566 1.247 . S
O565 Cd561 2.439 . S
O565 C566 1.208 . S
C566 O564 1.247 . S
C566 O565 1.208 . S
C567 O572 1.247 . S
C567 O573 1.208 . S
C568 O560 1.315 . S
C568 O563 1.279 . S
C569 O570 1.315 . S
C569 O571 1.279 . S
O570 Cd562 2.223 . S
O570 C569 1.315 . S
O571 Cd561 2.240 . S
O571 C569 1.279 . S
O572 Cd562 2.297 . S
O572 C567 1.247 . S
O573 Cd562 2.439 . S
O573 C567 1.208 . S
O574 Cd575 2.223 . S
O574 C582 1.315 . S
Cd575 O574 2.223 . S
Cd575 O578 2.297 . S
Cd575 O579 2.439 . S
Cd575 O585 2.240 . S
Cd576 O577 2.240 . S
Cd576 O584 2.223 . S
Cd576 O586 2.297 . S
Cd576 O587 2.439 . S
O577 Cd576 2.240 . S
O577 C582 1.279 . S
O578 Cd575 2.297 . S
O578 C580 1.247 . S
O579 Cd575 2.439 . S
O579 C580 1.208 . S
C580 O578 1.247 . S
C580 O579 1.208 . S
C581 O586 1.247 . S
C581 O587 1.208 . S
C582 O574 1.315 . S
C582 O577 1.279 . S
C583 O584 1.315 . S
C583 O585 1.279 . S
O584 Cd576 2.223 . S
O584 C583 1.315 . S
O585 Cd575 2.240 . S
O585 C583 1.279 . S
O586 Cd576 2.297 . S
O586 C581 1.247 . S
O587 Cd576 2.439 . S
O587 C581 1.208 . S
O588 Cd589 2.223 . S
O588 C596 1.315 . S
Cd589 O588 2.223 . S
Cd589 O592 2.297 . S
Cd589 O593 2.439 . S
Cd589 O599 2.240 . S
Cd590 O591 2.240 . S
Cd590 O598 2.223 . S
Cd590 O600 2.297 . S
Cd590 O601 2.439 . S
O591 Cd590 2.240 . S
O591 C596 1.279 . S
O592 Cd589 2.297 . S
O592 C594 1.247 . S
O593 Cd589 2.439 . S
O593 C594 1.208 . S
C594 O592 1.247 . S
C594 O593 1.208 . S
C595 O600 1.247 . S
C595 O601 1.208 . S
C596 O588 1.315 . S
C596 O591 1.279 . S
C597 O598 1.315 . S
C597 O599 1.279 . S
O598 Cd590 2.223 . S
O598 C597 1.315 . S
O599 Cd589 2.240 . S
O599 C597 1.279 . S
O600 Cd590 2.297 . S
O600 C595 1.247 . S
O601 Cd590 2.439 . S
O601 C595 1.208 . S
O602 Cd603 2.223 . S
O602 C610 1.315 . S
Cd603 O602 2.223 . S
Cd603 O606 2.297 . S
Cd603 O607 2.439 . S
Cd603 O613 2.240 . S
Cd604 O605 2.240 . S
Cd604 O612 2.223 . S
Cd604 O614 2.297 . S
Cd604 O615 2.439 . S
O605 Cd604 2.240 . S
O605 C610 1.279 . S
O606 Cd603 2.297 . S
O606 C608 1.247 . S
O607 Cd603 2.439 . S
O607 C608 1.208 . S
C608 O606 1.247 . S
C608 O607 1.208 . S
C609 O614 1.247 . S
C609 O615 1.208 . S
C610 O602 1.315 . S
C610 O605 1.279 . S
C611 O612 1.315 . S
C611 O613 1.279 . S
O612 Cd604 2.223 . S
O612 C611 1.315 . S
O613 Cd603 2.240 . S
O613 C611 1.279 . S
O614 Cd604 2.297 . S
O614 C609 1.247 . S
O615 Cd604 2.439 . S
O615 C609 1.208 . S
O616 Cd617 2.223 . S
O616 C624 1.315 . S
Cd617 O616 2.223 . S
Cd617 O620 2.297 . S
Cd617 O621 2.439 . S
Cd617 O627 2.240 . S
Cd618 O619 2.240 . S
Cd618 O626 2.223 . S
Cd618 O628 2.297 . S
Cd618 O629 2.439 . S
O619 Cd618 2.240 . S
O619 C624 1.279 . S
O620 Cd617 2.297 . S
O620 C622 1.247 . S
O621 Cd617 2.439 . S
O621 C622 1.208 . S
C622 O620 1.247 . S
C622 O621 1.208 . S
C623 O628 1.247 . S
C623 O629 1.208 . S
C624 O616 1.315 . S
C624 O619 1.279 . S
C625 O626 1.315 . S
C625 O627 1.279 . S
O626 Cd618 2.223 . S
O626 C625 1.315 . S
O627 Cd617 2.240 . S
O627 C625 1.279 . S
O628 Cd618 2.297 . S
O628 C623 1.247 . S
O629 Cd618 2.439 . S
O629 C623 1.208 . S
O630 Cd631 2.223 . S
O630 C638 1.315 . S
Cd631 O630 2.223 . S
Cd631 O634 2.297 . S
Cd631 O635 2.439 . S
Cd631 O641 2.240 . S
Cd632 O633 2.240 . S
Cd632 O640 2.223 . S
Cd632 O642 2.297 . S
Cd632 O643 2.439 . S
O633 Cd632 2.240 . S
O633 C638 1.279 . S
O634 Cd631 2.297 . S
O634 C636 1.247 . S
O635 Cd631 2.439 . S
O635 C636 1.208 . S
C636 O634 1.247 . S
C636 O635 1.208 . S
C637 O642 1.247 . S
C637 O643 1.208 . S
C638 O630 1.315 . S
C638 O633 1.279 . S
C639 O640 1.315 . S
C639 O641 1.279 . S
O640 Cd632 2.223 . S
O640 C639 1.315 . S
O641 Cd631 2.240 . S
O641 C639 1.279 . S
O642 Cd632 2.297 . S
O642 C637 1.247 . S
O643 Cd632 2.439 . S
O643 C637 1.208 . S
O644 Cd645 2.223 . S
O644 C652 1.315 . S
Cd645 O644 2.223 . S
Cd645 O648 2.297 . S
Cd645 O649 2.439 . S
Cd645 O655 2.240 . S
Cd646 O647 2.240 . S
Cd646 O654 2.223 . S
Cd646 O656 2.297 . S
Cd646 O657 2.439 . S
O647 Cd646 2.240 . S
O647 C652 1.279 . S
O648 Cd645 2.297 . S
O648 C650 1.247 . S
O649 Cd645 2.439 . S
O649 C650 1.208 . S
C650 O648 1.247 . S
C650 O649 1.208 . S
C651 O656 1.247 . S
C651 O657 1.208 . S
C652 O644 1.315 . S
C652 O647 1.279 . S
C653 O654 1.315 . S
C653 O655 1.279 . S
O654 Cd646 2.223 . S
O654 C653 1.315 . S
O655 Cd645 2.240 . S
O655 C653 1.279 . S
O656 Cd646 2.297 . S
O656 C651 1.247 . S
O657 Cd646 2.439 . S
O657 C651 1.208 . S
O658 Cd659 2.223 . S
O658 C666 1.315 . S
Cd659 O658 2.223 . S
Cd659 O662 2.297 . S
Cd659 O663 2.439 . S
Cd659 O669 2.240 . S
Cd660 O661 2.240 . S
Cd660 O668 2.223 . S
Cd660 O670 2.297 . S
Cd660 O671 2.439 . S
O661 Cd660 2.240 . S
O661 C666 1.279 . S
O662 Cd659 2.297 . S
O662 C664 1.247 . S
O663 Cd659 2.439 . S
O663 C664 1.208 . S
C664 O662 1.247 . S
C664 O663 1.208 . S
C665 O670 1.247 . S
C665 O671 1.208 . S
C666 O658 1.315 . S
C666 O661 1.279 . S
C667 O668 1.315 . S
C667 O669 1.279 . S
O668 Cd660 2.223 . S
O668 C667 1.315 . S
O669 Cd659 2.240 . S
O669 C667 1.279 . S
O670 Cd660 2.297 . S
O670 C665 1.247 . S
O671 Cd660 2.439 . S
O671 C665 1.208 . S
C672 C673 1.363 . S
C672 C678 1.379 1_655 S
C672 N680 1.356 . S
C673 C672 1.363 . S
C673 C679 1.363 . S
C674 C675 1.363 . S
C674 C679 1.379 1_455 S
C674 N681 1.356 . S
C675 C674 1.363 . S
C675 C678 1.363 . S
N676 C678 1.356 . S
N676 H688 0.984 . S
N676 H689 0.985 . S
N677 C679 1.356 . S
N677 H682 0.984 . S
N677 H683 0.985 . S
C678 C672 1.379 1_455 S
C678 C675 1.363 . S
C678 N676 1.356 . S
C679 C673 1.363 . S
C679 C674 1.379 1_655 S
C679 N677 1.356 . S
N680 C672 1.356 . S
N680 H686 0.984 . S
N680 H687 0.984 . S
N681 C674 1.356 . S
N681 H684 0.984 . S
N681 H685 0.985 . S
H682 N677 0.984 . S
H683 N677 0.985 . S
H684 N681 0.984 . S
H685 N681 0.985 . S
H686 N680 0.984 . S
H687 N680 0.984 . S
H688 N676 0.984 . S
H689 N676 0.985 . S
C690 C691 1.363 . S
C690 C696 1.379 . S
C690 N698 1.356 . S
C691 C690 1.363 . S
C691 C697 1.363 . S
C692 C693 1.363 . S
C692 C697 1.379 . S
C692 N699 1.356 . S
C693 C692 1.363 . S
C693 C696 1.363 . S
N694 C696 1.356 . S
N694 H706 0.984 . S
N694 H707 0.985 . S
N695 C697 1.356 . S
N695 H700 0.984 . S
N695 H701 0.985 . S
C696 C690 1.379 . S
C696 C693 1.363 . S
C696 N694 1.356 . S
C697 C691 1.363 . S
C697 C692 1.379 . S
C697 N695 1.356 . S
N698 C690 1.356 . S
N698 H704 0.984 . S
N698 H705 0.984 . S
N699 C692 1.356 . S
N699 H702 0.984 . S
N699 H703 0.985 . S
H700 N695 0.984 . S
H701 N695 0.985 . S
H702 N699 0.984 . S
H703 N699 0.985 . S
H704 N698 0.984 . S
H705 N698 0.984 . S
H706 N694 0.984 . S
H707 N694 0.985 . S
C708 C709 1.363 . S
C708 C714 1.379 1_455 S
C708 N716 1.356 . S
C709 C708 1.363 . S
C709 C715 1.363 . S
C710 C711 1.363 . S
C710 C715 1.379 1_655 S
C710 N717 1.356 . S
C711 C710 1.363 . S
C711 C714 1.363 . S
N712 C714 1.356 . S
N712 H724 0.984 . S
N712 H725 0.985 . S
N713 C715 1.356 . S
N713 H718 0.984 . S
N713 H719 0.985 . S
C714 C708 1.379 1_655 S
C714 C711 1.363 . S
C714 N712 1.356 . S
C715 C709 1.363 . S
C715 C710 1.379 1_455 S
C715 N713 1.356 . S
N716 C708 1.356 . S
N716 H722 0.984 . S
N716 H723 0.984 . S
N717 C710 1.356 . S
N717 H720 0.984 . S
N717 H721 0.985 . S
H718 N713 0.984 . S
H719 N713 0.985 . S
H720 N717 0.984 . S
H721 N717 0.985 . S
H722 N716 0.984 . S
H723 N716 0.984 . S
H724 N712 0.984 . S
H725 N712 0.985 . S
C726 C727 1.363 . S
C726 C732 1.379 . S
C726 N734 1.356 . S
C727 C726 1.363 . S
C727 C733 1.363 . S
C728 C729 1.363 . S
C728 C733 1.379 . S
C728 N735 1.356 . S
C729 C728 1.363 . S
C729 C732 1.363 . S
N730 C732 1.356 . S
N730 H742 0.984 . S
N730 H743 0.985 . S
N731 C733 1.356 . S
N731 H736 0.984 . S
N731 H737 0.985 . S
C732 C726 1.379 . S
C732 C729 1.363 . S
C732 N730 1.356 . S
C733 C727 1.363 . S
C733 C728 1.379 . S
C733 N731 1.356 . S
N734 C726 1.356 . S
N734 H740 0.984 . S
N734 H741 0.984 . S
N735 C728 1.356 . S
N735 H738 0.984 . S
N735 H739 0.985 . S
H736 N731 0.984 . S
H737 N731 0.985 . S
H738 N735 0.984 . S
H739 N735 0.985 . S
H740 N734 0.984 . S
H741 N734 0.984 . S
H742 N730 0.984 . S
H743 N730 0.985 . S
C744 C745 1.363 . S
C744 C750 1.379 1_655 S
C744 N752 1.356 . S
C745 C744 1.363 . S
C745 C751 1.363 . S
C746 C747 1.363 . S
C746 C751 1.379 1_455 S
C746 N753 1.356 . S
C747 C746 1.363 . S
C747 C750 1.363 . S
N748 C750 1.356 . S
N748 H760 0.984 . S
N748 H761 0.985 . S
N749 C751 1.356 . S
N749 H754 0.984 . S
N749 H755 0.985 . S
C750 C744 1.379 1_455 S
C750 C747 1.363 . S
C750 N748 1.356 . S
C751 C745 1.363 . S
C751 C746 1.379 1_655 S
C751 N749 1.356 . S
N752 C744 1.356 . S
N752 H758 0.984 . S
N752 H759 0.984 . S
N753 C746 1.356 . S
N753 H756 0.984 . S
N753 H757 0.985 . S
H754 N749 0.984 . S
H755 N749 0.985 . S
H756 N753 0.984 . S
H757 N753 0.985 . S
H758 N752 0.984 . S
H759 N752 0.984 . S
H760 N748 0.984 . S
H761 N748 0.985 . S
C762 C763 1.363 . S
C762 C768 1.379 . S
C762 N770 1.356 . S
C763 C762 1.363 . S
C763 C769 1.363 . S
C764 C765 1.363 . S
C764 C769 1.379 . S
C764 N771 1.356 . S
C765 C764 1.363 . S
C765 C768 1.363 . S
N766 C768 1.356 . S
N766 H778 0.984 . S
N766 H779 0.985 . S
N767 C769 1.356 . S
N767 H772 0.984 . S
N767 H773 0.985 . S
C768 C762 1.379 . S
C768 C765 1.363 . S
C768 N766 1.356 . S
C769 C763 1.363 . S
C769 C764 1.379 . S
C769 N767 1.356 . S
N770 C762 1.356 . S
N770 H776 0.984 . S
N770 H777 0.984 . S
N771 C764 1.356 . S
N771 H774 0.984 . S
N771 H775 0.985 . S
H772 N767 0.984 . S
H773 N767 0.985 . S
H774 N771 0.984 . S
H775 N771 0.985 . S
H776 N770 0.984 . S
H777 N770 0.984 . S
H778 N766 0.984 . S
H779 N766 0.985 . S
C780 C781 1.363 . S
C780 C786 1.379 1_455 S
C780 N788 1.356 . S
C781 C780 1.363 . S
C781 C787 1.363 . S
C782 C783 1.363 . S
C782 C787 1.379 1_655 S
C782 N789 1.356 . S
C783 C782 1.363 . S
C783 C786 1.363 . S
N784 C786 1.356 . S
N784 H796 0.984 . S
N784 H797 0.985 . S
N785 C787 1.356 . S
N785 H790 0.984 . S
N785 H791 0.985 . S
C786 C780 1.379 1_655 S
C786 C783 1.363 . S
C786 N784 1.356 . S
C787 C781 1.363 . S
C787 C782 1.379 1_455 S
C787 N785 1.356 . S
N788 C780 1.356 . S
N788 H794 0.984 . S
N788 H795 0.984 . S
N789 C782 1.356 . S
N789 H792 0.984 . S
N789 H793 0.985 . S
H790 N785 0.984 . S
H791 N785 0.985 . S
H792 N789 0.984 . S
H793 N789 0.985 . S
H794 N788 0.984 . S
H795 N788 0.984 . S
H796 N784 0.984 . S
H797 N784 0.985 . S
C798 C799 1.363 . S
C798 C804 1.379 . S
C798 N806 1.356 . S
C799 C798 1.363 . S
C799 C805 1.363 . S
C800 C801 1.363 . S
C800 C805 1.379 . S
C800 N807 1.356 . S
C801 C800 1.363 . S
C801 C804 1.363 . S
N802 C804 1.356 . S
N802 H814 0.984 . S
N802 H815 0.985 . S
N803 C805 1.356 . S
N803 H808 0.984 . S
N803 H809 0.985 . S
C804 C798 1.379 . S
C804 C801 1.363 . S
C804 N802 1.356 . S
C805 C799 1.363 . S
C805 C800 1.379 . S
C805 N803 1.356 . S
N806 C798 1.356 . S
N806 H812 0.984 . S
N806 H813 0.984 . S
N807 C800 1.356 . S
N807 H810 0.984 . S
N807 H811 0.985 . S
H808 N803 0.984 . S
H809 N803 0.985 . S
H810 N807 0.984 . S
H811 N807 0.985 . S
H812 N806 0.984 . S
H813 N806 0.984 . S
H814 N802 0.984 . S
H815 N802 0.985 . S
C816 C817 1.363 . S
C816 C822 1.379 1_565 S
C816 N824 1.356 . S
C817 C816 1.363 . S
C817 C823 1.363 . S
C818 C819 1.363 . S
C818 C823 1.379 1_545 S
C818 N825 1.356 . S
C819 C818 1.363 . S
C819 C822 1.363 . S
N820 C822 1.356 . S
N820 H832 0.984 . S
N820 H833 0.985 . S
N821 C823 1.356 . S
N821 H826 0.984 . S
N821 H827 0.985 . S
C822 C816 1.379 1_545 S
C822 C819 1.363 . S
C822 N820 1.356 . S
C823 C817 1.363 . S
C823 C818 1.379 1_565 S
C823 N821 1.356 . S
N824 C816 1.356 . S
N824 H830 0.984 . S
N824 H831 0.984 . S
N825 C818 1.356 . S
N825 H828 0.984 . S
N825 H829 0.985 . S
H826 N821 0.984 . S
H827 N821 0.985 . S
H828 N825 0.984 . S
H829 N825 0.985 . S
H830 N824 0.984 . S
H831 N824 0.984 . S
H832 N820 0.984 . S
H833 N820 0.985 . S
C834 C835 1.363 . S
C834 C840 1.379 . S
C834 N842 1.356 . S
C835 C834 1.363 . S
C835 C841 1.363 . S
C836 C837 1.363 . S
C836 C841 1.379 . S
C836 N843 1.356 . S
C837 C836 1.363 . S
C837 C840 1.363 . S
N838 C840 1.356 . S
N838 H850 0.984 . S
N838 H851 0.985 . S
N839 C841 1.356 . S
N839 H844 0.984 . S
N839 H845 0.985 . S
C840 C834 1.379 . S
C840 C837 1.363 . S
C840 N838 1.356 . S
C841 C835 1.363 . S
C841 C836 1.379 . S
C841 N839 1.356 . S
N842 C834 1.356 . S
N842 H848 0.984 . S
N842 H849 0.984 . S
N843 C836 1.356 . S
N843 H846 0.984 . S
N843 H847 0.985 . S
H844 N839 0.984 . S
H845 N839 0.985 . S
H846 N843 0.984 . S
H847 N843 0.985 . S
H848 N842 0.984 . S
H849 N842 0.984 . S
H850 N838 0.984 . S
H851 N838 0.985 . S
C852 C853 1.363 . S
C852 C858 1.379 1_545 S
C852 N860 1.356 . S
C853 C852 1.363 . S
C853 C859 1.363 . S
C854 C855 1.363 . S
C854 C859 1.379 1_565 S
C854 N861 1.356 . S
C855 C854 1.363 . S
C855 C858 1.363 . S
N856 C858 1.356 . S
N856 H868 0.984 . S
N856 H869 0.985 . S
N857 C859 1.356 . S
N857 H862 0.984 . S
N857 H863 0.985 . S
C858 C852 1.379 1_565 S
C858 C855 1.363 . S
C858 N856 1.356 . S
C859 C853 1.363 . S
C859 C854 1.379 1_545 S
C859 N857 1.356 . S
N860 C852 1.356 . S
N860 H866 0.984 . S
N860 H867 0.984 . S
N861 C854 1.356 . S
N861 H864 0.984 . S
N861 H865 0.985 . S
H862 N857 0.984 . S
H863 N857 0.985 . S
H864 N861 0.984 . S
H865 N861 0.985 . S
H866 N860 0.984 . S
H867 N860 0.984 . S
H868 N856 0.984 . S
H869 N856 0.985 . S
C870 C871 1.363 . S
C870 C876 1.379 . S
C870 N878 1.356 . S
C871 C870 1.363 . S
C871 C877 1.363 . S
C872 C873 1.363 . S
C872 C877 1.379 . S
C872 N879 1.356 . S
C873 C872 1.363 . S
C873 C876 1.363 . S
N874 C876 1.356 . S
N874 H886 0.984 . S
N874 H887 0.985 . S
N875 C877 1.356 . S
N875 H880 0.984 . S
N875 H881 0.985 . S
C876 C870 1.379 . S
C876 C873 1.363 . S
C876 N874 1.356 . S
C877 C871 1.363 . S
C877 C872 1.379 . S
C877 N875 1.356 . S
N878 C870 1.356 . S
N878 H884 0.984 . S
N878 H885 0.984 . S
N879 C872 1.356 . S
N879 H882 0.984 . S
N879 H883 0.985 . S
H880 N875 0.984 . S
H881 N875 0.985 . S
H882 N879 0.984 . S
H883 N879 0.985 . S
H884 N878 0.984 . S
H885 N878 0.984 . S
H886 N874 0.984 . S
H887 N874 0.985 . S
C888 C889 1.363 . S
C888 C894 1.379 1_545 S
C888 N896 1.356 . S
C889 C888 1.363 . S
C889 C895 1.363 . S
C890 C891 1.363 . S
C890 C895 1.379 1_565 S
C890 N897 1.356 . S
C891 C890 1.363 . S
C891 C894 1.363 . S
N892 C894 1.356 . S
N892 H904 0.984 . S
N892 H905 0.985 . S
N893 C895 1.356 . S
N893 H898 0.984 . S
N893 H899 0.985 . S
C894 C888 1.379 1_565 S
C894 C891 1.363 . S
C894 N892 1.356 . S
C895 C889 1.363 . S
C895 C890 1.379 1_545 S
C895 N893 1.356 . S
N896 C888 1.356 . S
N896 H902 0.984 . S
N896 H903 0.984 . S
N897 C890 1.356 . S
N897 H900 0.984 . S
N897 H901 0.985 . S
H898 N893 0.984 . S
H899 N893 0.985 . S
H900 N897 0.984 . S
H901 N897 0.985 . S
H902 N896 0.984 . S
H903 N896 0.984 . S
H904 N892 0.984 . S
H905 N892 0.985 . S
C906 C907 1.363 . S
C906 C912 1.379 . S
C906 N914 1.356 . S
C907 C906 1.363 . S
C907 C913 1.363 . S
C908 C909 1.363 . S
C908 C913 1.379 . S
C908 N915 1.356 . S
C909 C908 1.363 . S
C909 C912 1.363 . S
N910 C912 1.356 . S
N910 H922 0.984 . S
N910 H923 0.985 . S
N911 C913 1.356 . S
N911 H916 0.984 . S
N911 H917 0.985 . S
C912 C906 1.379 . S
C912 C909 1.363 . S
C912 N910 1.356 . S
C913 C907 1.363 . S
C913 C908 1.379 . S
C913 N911 1.356 . S
N914 C906 1.356 . S
N914 H920 0.984 . S
N914 H921 0.984 . S
N915 C908 1.356 . S
N915 H918 0.984 . S
N915 H919 0.985 . S
H916 N911 0.984 . S
H917 N911 0.985 . S
H918 N915 0.984 . S
H919 N915 0.985 . S
H920 N914 0.984 . S
H921 N914 0.984 . S
H922 N910 0.984 . S
H923 N910 0.985 . S
C924 C925 1.363 . S
C924 C930 1.379 1_545 S
C924 N932 1.356 . S
C925 C924 1.363 . S
C925 C931 1.363 . S
C926 C927 1.363 . S
C926 C931 1.379 1_565 S
C926 N933 1.356 . S
C927 C926 1.363 . S
C927 C930 1.363 . S
N928 C930 1.356 . S
N928 H940 0.984 . S
N928 H941 0.985 . S
N929 C931 1.356 . S
N929 H934 0.984 . S
N929 H935 0.985 . S
C930 C924 1.379 1_565 S
C930 C927 1.363 . S
C930 N928 1.356 . S
C931 C925 1.363 . S
C931 C926 1.379 1_545 S
C931 N929 1.356 . S
N932 C924 1.356 . S
N932 H938 0.984 . S
N932 H939 0.984 . S
N933 C926 1.356 . S
N933 H936 0.984 . S
N933 H937 0.985 . S
H934 N929 0.984 . S
H935 N929 0.985 . S
H936 N933 0.984 . S
H937 N933 0.985 . S
H938 N932 0.984 . S
H939 N932 0.984 . S
H940 N928 0.984 . S
H941 N928 0.985 . S
C942 C943 1.363 . S
C942 C948 1.379 . S
C942 N950 1.356 . S
C943 C942 1.363 . S
C943 C949 1.363 . S
C944 C945 1.363 . S
C944 C949 1.379 . S
C944 N951 1.356 . S
C945 C944 1.363 . S
C945 C948 1.363 . S
N946 C948 1.356 . S
N946 H958 0.984 . S
N946 H959 0.985 . S
N947 C949 1.356 . S
N947 H952 0.984 . S
N947 H953 0.985 . S
C948 C942 1.379 . S
C948 C945 1.363 . S
C948 N946 1.356 . S
C949 C943 1.363 . S
C949 C944 1.379 . S
C949 N947 1.356 . S
N950 C942 1.356 . S
N950 H956 0.984 . S
N950 H957 0.984 . S
N951 C944 1.356 . S
N951 H954 0.984 . S
N951 H955 0.985 . S
H952 N947 0.984 . S
H953 N947 0.985 . S
H954 N951 0.984 . S
H955 N951 0.985 . S
H956 N950 0.984 . S
H957 N950 0.984 . S
H958 N946 0.984 . S
H959 N946 0.985 . S
C960 C961 1.363 . S
C960 C966 1.379 1_554 S
C960 N968 1.356 . S
C961 C960 1.363 . S
C961 C967 1.363 . S
C962 C963 1.363 . S
C962 C967 1.379 1_556 S
C962 N969 1.356 . S
C963 C962 1.363 . S
C963 C966 1.363 . S
N964 C966 1.356 . S
N964 H976 0.984 . S
N964 H977 0.985 . S
N965 C967 1.356 . S
N965 H970 0.984 . S
N965 H971 0.985 . S
C966 C960 1.379 1_556 S
C966 C963 1.363 . S
C966 N964 1.356 . S
C967 C961 1.363 . S
C967 C962 1.379 1_554 S
C967 N965 1.356 . S
N968 C960 1.356 . S
N968 H974 0.984 . S
N968 H975 0.984 . S
N969 C962 1.356 . S
N969 H972 0.984 . S
N969 H973 0.985 . S
H970 N965 0.984 . S
H971 N965 0.985 . S
H972 N969 0.984 . S
H973 N969 0.985 . S
H974 N968 0.984 . S
H975 N968 0.984 . S
H976 N964 0.984 . S
H977 N964 0.985 . S
C978 C979 1.363 . S
C978 C984 1.379 1_554 S
C978 N986 1.356 . S
C979 C978 1.363 . S
C979 C985 1.363 . S
C980 C981 1.363 . S
C980 C985 1.379 1_556 S
C980 N987 1.356 . S
C981 C980 1.363 . S
C981 C984 1.363 . S
N982 C984 1.356 . S
N982 H994 0.984 . S
N982 H995 0.985 . S
N983 C985 1.356 . S
N983 H988 0.984 . S
N983 H989 0.985 . S
C984 C978 1.379 1_556 S
C984 C981 1.363 . S
C984 N982 1.356 . S
C985 C979 1.363 . S
C985 C980 1.379 1_554 S
C985 N983 1.356 . S
N986 C978 1.356 . S
N986 H992 0.984 . S
N986 H993 0.984 . S
N987 C980 1.356 . S
N987 H990 0.984 . S
N987 H991 0.985 . S
H988 N983 0.984 . S
H989 N983 0.985 . S
H990 N987 0.984 . S
H991 N987 0.985 . S
H992 N986 0.984 . S
H993 N986 0.984 . S
H994 N982 0.984 . S
H995 N982 0.985 . S
C996 C997 1.363 . S
C996 C1002 1.379 . S
C996 N1004 1.356 . S
C997 C996 1.363 . S
C997 C1003 1.363 . S
C998 C999 1.363 . S
C998 C1003 1.379 . S
C998 N1005 1.356 . S
C999 C998 1.363 . S
C999 C1002 1.363 . S
N1000 C1002 1.356 . S
N1000 H1012 0.984 . S
N1000 H1013 0.985 . S
N1001 C1003 1.356 . S
N1001 H1006 0.984 . S
N1001 H1007 0.985 . S
C1002 C996 1.379 . S
C1002 C999 1.363 . S
C1002 N1000 1.356 . S
C1003 C997 1.363 . S
C1003 C998 1.379 . S
C1003 N1001 1.356 . S
N1004 C996 1.356 . S
N1004 H1010 0.984 . S
N1004 H1011 0.984 . S
N1005 C998 1.356 . S
N1005 H1008 0.984 . S
N1005 H1009 0.985 . S
H1006 N1001 0.984 . S
H1007 N1001 0.985 . S
H1008 N1005 0.984 . S
H1009 N1005 0.985 . S
H1010 N1004 0.984 . S
H1011 N1004 0.984 . S
H1012 N1000 0.984 . S
H1013 N1000 0.985 . S
C1014 C1015 1.363 . S
C1014 C1020 1.379 1_554 S
C1014 N1022 1.356 . S
C1015 C1014 1.363 . S
C1015 C1021 1.363 . S
C1016 C1017 1.363 . S
C1016 C1021 1.379 1_556 S
C1016 N1023 1.356 . S
C1017 C1016 1.363 . S
C1017 C1020 1.363 . S
N1018 C1020 1.356 . S
N1018 H1030 0.984 . S
N1018 H1031 0.985 . S
N1019 C1021 1.356 . S
N1019 H1024 0.984 . S
N1019 H1025 0.985 . S
C1020 C1014 1.379 1_556 S
C1020 C1017 1.363 . S
C1020 N1018 1.356 . S
C1021 C1015 1.363 . S
C1021 C1016 1.379 1_554 S
C1021 N1019 1.356 . S
N1022 C1014 1.356 . S
N1022 H1028 0.984 . S
N1022 H1029 0.984 . S
N1023 C1016 1.356 . S
N1023 H1026 0.984 . S
N1023 H1027 0.985 . S
H1024 N1019 0.984 . S
H1025 N1019 0.985 . S
H1026 N1023 0.984 . S
H1027 N1023 0.985 . S
H1028 N1022 0.984 . S
H1029 N1022 0.984 . S
H1030 N1018 0.984 . S
H1031 N1018 0.985 . S
C1032 C1033 1.363 . S
C1032 C1038 1.379 . S
C1032 N1040 1.356 . S
C1033 C1032 1.363 . S
C1033 C1039 1.363 . S
C1034 C1035 1.363 . S
C1034 C1039 1.379 . S
C1034 N1041 1.356 . S
C1035 C1034 1.363 . S
C1035 C1038 1.363 . S
N1036 C1038 1.356 . S
N1036 H1048 0.984 . S
N1036 H1049 0.985 . S
N1037 C1039 1.356 . S
N1037 H1042 0.984 . S
N1037 H1043 0.985 . S
C1038 C1032 1.379 . S
C1038 C1035 1.363 . S
C1038 N1036 1.356 . S
C1039 C1033 1.363 . S
C1039 C1034 1.379 . S
C1039 N1037 1.356 . S
N1040 C1032 1.356 . S
N1040 H1046 0.984 . S
N1040 H1047 0.984 . S
N1041 C1034 1.356 . S
N1041 H1044 0.984 . S
N1041 H1045 0.985 . S
H1042 N1037 0.984 . S
H1043 N1037 0.985 . S
H1044 N1041 0.984 . S
H1045 N1041 0.985 . S
H1046 N1040 0.984 . S
H1047 N1040 0.984 . S
H1048 N1036 0.984 . S
H1049 N1036 0.985 . S
C1050 C1051 1.363 . S
C1050 C1056 1.379 1_554 S
C1050 N1058 1.356 . S
C1051 C1050 1.363 . S
C1051 C1057 1.363 . S
C1052 C1053 1.363 . S
C1052 C1057 1.379 1_556 S
C1052 N1059 1.356 . S
C1053 C1052 1.363 . S
C1053 C1056 1.363 . S
N1054 C1056 1.356 . S
N1054 H1066 0.984 . S
N1054 H1067 0.985 . S
N1055 C1057 1.356 . S
N1055 H1060 0.984 . S
N1055 H1061 0.985 . S
C1056 C1050 1.379 1_556 S
C1056 C1053 1.363 . S
C1056 N1054 1.356 . S
C1057 C1051 1.363 . S
C1057 C1052 1.379 1_554 S
C1057 N1055 1.356 . S
N1058 C1050 1.356 . S
N1058 H1064 0.984 . S
N1058 H1065 0.984 . S
N1059 C1052 1.356 . S
N1059 H1062 0.984 . S
N1059 H1063 0.985 . S
H1060 N1055 0.984 . S
H1061 N1055 0.985 . S
H1062 N1059 0.984 . S
H1063 N1059 0.985 . S
H1064 N1058 0.984 . S
H1065 N1058 0.984 . S
H1066 N1054 0.984 . S
H1067 N1054 0.985 . S
C1068 C1069 1.363 . S
C1068 C1074 1.379 . S
C1068 N1076 1.356 . S
C1069 C1068 1.363 . S
C1069 C1075 1.363 . S
C1070 C1071 1.363 . S
C1070 C1075 1.379 . S
C1070 N1077 1.356 . S
C1071 C1070 1.363 . S
C1071 C1074 1.363 . S
N1072 C1074 1.356 . S
N1072 H1084 0.984 . S
N1072 H1085 0.985 . S
N1073 C1075 1.356 . S
N1073 H1078 0.984 . S
N1073 H1079 0.985 . S
C1074 C1068 1.379 . S
C1074 C1071 1.363 . S
C1074 N1072 1.356 . S
C1075 C1069 1.363 . S
C1075 C1070 1.379 . S
C1075 N1073 1.356 . S
N1076 C1068 1.356 . S
N1076 H1082 0.984 . S
N1076 H1083 0.984 . S
N1077 C1070 1.356 . S
N1077 H1080 0.984 . S
N1077 H1081 0.985 . S
H1078 N1073 0.984 . S
H1079 N1073 0.985 . S
H1080 N1077 0.984 . S
H1081 N1077 0.985 . S
H1082 N1076 0.984 . S
H1083 N1076 0.984 . S
H1084 N1072 0.984 . S
H1085 N1072 0.985 . S
C1086 C1087 1.363 . S
C1086 C1092 1.379 . S
C1086 N1094 1.356 . S
C1087 C1086 1.363 . S
C1087 C1093 1.363 . S
C1088 C1089 1.363 . S
C1088 C1093 1.379 . S
C1088 N1095 1.356 . S
C1089 C1088 1.363 . S
C1089 C1092 1.363 . S
N1090 C1092 1.356 . S
N1090 H1102 0.984 . S
N1090 H1103 0.985 . S
N1091 C1093 1.356 . S
N1091 H1096 0.984 . S
N1091 H1097 0.985 . S
C1092 C1086 1.379 . S
C1092 C1089 1.363 . S
C1092 N1090 1.356 . S
C1093 C1087 1.363 . S
C1093 C1088 1.379 . S
C1093 N1091 1.356 . S
N1094 C1086 1.356 . S
N1094 H1100 0.984 . S
N1094 H1101 0.984 . S
N1095 C1088 1.356 . S
N1095 H1098 0.984 . S
N1095 H1099 0.985 . S
H1096 N1091 0.984 . S
H1097 N1091 0.985 . S
H1098 N1095 0.984 . S
H1099 N1095 0.985 . S
H1100 N1094 0.984 . S
H1101 N1094 0.984 . S
H1102 N1090 0.984 . S
H1103 N1090 0.985 . S
C1104 C1105 1.363 . S
C1104 C1110 1.379 . S
C1104 N1112 1.356 . S
C1105 C1104 1.363 . S
C1105 C1111 1.363 . S
C1106 C1107 1.363 . S
C1106 C1111 1.379 . S
C1106 N1113 1.356 . S
C1107 C1106 1.363 . S
C1107 C1110 1.363 . S
N1108 C1110 1.356 . S
N1108 H1120 0.984 . S
N1108 H1121 0.985 . S
N1109 C1111 1.356 . S
N1109 H1114 0.984 . S
N1109 H1115 0.985 . S
C1110 C1104 1.379 . S
C1110 C1107 1.363 . S
C1110 N1108 1.356 . S
C1111 C1105 1.363 . S
C1111 C1106 1.379 . S
C1111 N1109 1.356 . S
N1112 C1104 1.356 . S
N1112 H1118 0.984 . S
N1112 H1119 0.984 . S
N1113 C1106 1.356 . S
N1113 H1116 0.984 . S
N1113 H1117 0.985 . S
H1114 N1109 0.984 . S
H1115 N1109 0.985 . S
H1116 N1113 0.984 . S
H1117 N1113 0.985 . S
H1118 N1112 0.984 . S
H1119 N1112 0.984 . S
H1120 N1108 0.984 . S
H1121 N1108 0.985 . S
C1122 C1123 1.363 . S
C1122 C1128 1.379 . S
C1122 N1130 1.356 . S
C1123 C1122 1.363 . S
C1123 C1129 1.363 . S
C1124 C1125 1.363 . S
C1124 C1129 1.379 . S
C1124 N1131 1.356 . S
C1125 C1124 1.363 . S
C1125 C1128 1.363 . S
N1126 C1128 1.356 . S
N1126 H1138 0.984 . S
N1126 H1139 0.985 . S
N1127 C1129 1.356 . S
N1127 H1132 0.984 . S
N1127 H1133 0.985 . S
C1128 C1122 1.379 . S
C1128 C1125 1.363 . S
C1128 N1126 1.356 . S
C1129 C1123 1.363 . S
C1129 C1124 1.379 . S
C1129 N1127 1.356 . S
N1130 C1122 1.356 . S
N1130 H1136 0.984 . S
N1130 H1137 0.984 . S
N1131 C1124 1.356 . S
N1131 H1134 0.984 . S
N1131 H1135 0.985 . S
H1132 N1127 0.984 . S
H1133 N1127 0.985 . S
H1134 N1131 0.984 . S
H1135 N1131 0.985 . S
H1136 N1130 0.984 . S
H1137 N1130 0.984 . S
H1138 N1126 0.984 . S
H1139 N1126 0.985 . S
C1140 C1141 1.363 . S
C1140 C1146 1.379 . S
C1140 N1148 1.356 . S
C1141 C1140 1.363 . S
C1141 C1147 1.363 . S
C1142 C1143 1.363 . S
C1142 C1147 1.379 . S
C1142 N1149 1.356 . S
C1143 C1142 1.363 . S
C1143 C1146 1.363 . S
N1144 C1146 1.356 . S
N1144 H1156 0.984 . S
N1144 H1157 0.985 . S
N1145 C1147 1.356 . S
N1145 H1150 0.984 . S
N1145 H1151 0.985 . S
C1146 C1140 1.379 . S
C1146 C1143 1.363 . S
C1146 N1144 1.356 . S
C1147 C1141 1.363 . S
C1147 C1142 1.379 . S
C1147 N1145 1.356 . S
N1148 C1140 1.356 . S
N1148 H1154 0.984 . S
N1148 H1155 0.984 . S
N1149 C1142 1.356 . S
N1149 H1152 0.984 . S
N1149 H1153 0.985 . S
H1150 N1145 0.984 . S
H1151 N1145 0.985 . S
H1152 N1149 0.984 . S
H1153 N1149 0.985 . S
H1154 N1148 0.984 . S
H1155 N1148 0.984 . S
H1156 N1144 0.984 . S
H1157 N1144 0.985 . S
C1158 C1159 1.363 . S
C1158 C1164 1.379 . S
C1158 N1166 1.356 . S
C1159 C1158 1.363 . S
C1159 C1165 1.363 . S
C1160 C1161 1.363 . S
C1160 C1165 1.379 . S
C1160 N1167 1.356 . S
C1161 C1160 1.363 . S
C1161 C1164 1.363 . S
N1162 C1164 1.356 . S
N1162 H1174 0.984 . S
N1162 H1175 0.985 . S
N1163 C1165 1.356 . S
N1163 H1168 0.984 . S
N1163 H1169 0.985 . S
C1164 C1158 1.379 . S
C1164 C1161 1.363 . S
C1164 N1162 1.356 . S
C1165 C1159 1.363 . S
C1165 C1160 1.379 . S
C1165 N1163 1.356 . S
N1166 C1158 1.356 . S
N1166 H1172 0.984 . S
N1166 H1173 0.984 . S
N1167 C1160 1.356 . S
N1167 H1170 0.984 . S
N1167 H1171 0.985 . S
H1168 N1163 0.984 . S
H1169 N1163 0.985 . S
H1170 N1167 0.984 . S
H1171 N1167 0.985 . S
H1172 N1166 0.984 . S
H1173 N1166 0.984 . S
H1174 N1162 0.984 . S
H1175 N1162 0.985 . S
C1176 C1177 1.363 . S
C1176 C1182 1.379 . S
C1176 N1184 1.356 . S
C1177 C1176 1.363 . S
C1177 C1183 1.363 . S
C1178 C1179 1.363 . S
C1178 C1183 1.379 . S
C1178 N1185 1.356 . S
C1179 C1178 1.363 . S
C1179 C1182 1.363 . S
N1180 C1182 1.356 . S
N1180 H1192 0.984 . S
N1180 H1193 0.985 . S
N1181 C1183 1.356 . S
N1181 H1186 0.984 . S
N1181 H1187 0.985 . S
C1182 C1176 1.379 . S
C1182 C1179 1.363 . S
C1182 N1180 1.356 . S
C1183 C1177 1.363 . S
C1183 C1178 1.379 . S
C1183 N1181 1.356 . S
N1184 C1176 1.356 . S
N1184 H1190 0.984 . S
N1184 H1191 0.984 . S
N1185 C1178 1.356 . S
N1185 H1188 0.984 . S
N1185 H1189 0.985 . S
H1186 N1181 0.984 . S
H1187 N1181 0.985 . S
H1188 N1185 0.984 . S
H1189 N1185 0.985 . S
H1190 N1184 0.984 . S
H1191 N1184 0.984 . S
H1192 N1180 0.984 . S
H1193 N1180 0.985 . S
C1194 C1195 1.363 . S
C1194 C1200 1.379 . S
C1194 N1202 1.356 . S
C1195 C1194 1.363 . S
C1195 C1201 1.363 . S
C1196 C1197 1.363 . S
C1196 C1201 1.379 . S
C1196 N1203 1.356 . S
C1197 C1196 1.363 . S
C1197 C1200 1.363 . S
N1198 C1200 1.356 . S
N1198 H1210 0.984 . S
N1198 H1211 0.985 . S
N1199 C1201 1.356 . S
N1199 H1204 0.984 . S
N1199 H1205 0.985 . S
C1200 C1194 1.379 . S
C1200 C1197 1.363 . S
C1200 N1198 1.356 . S
C1201 C1195 1.363 . S
C1201 C1196 1.379 . S
C1201 N1199 1.356 . S
N1202 C1194 1.356 . S
N1202 H1208 0.984 . S
N1202 H1209 0.984 . S
N1203 C1196 1.356 . S
N1203 H1206 0.984 . S
N1203 H1207 0.985 . S
H1204 N1199 0.984 . S
H1205 N1199 0.985 . S
H1206 N1203 0.984 . S
H1207 N1203 0.985 . S
H1208 N1202 0.984 . S
H1209 N1202 0.984 . S
H1210 N1198 0.984 . S
H1211 N1198 0.985 . S
C1212 C1213 1.363 . S
C1212 C1218 1.379 . S
C1212 N1220 1.356 . S
C1213 C1212 1.363 . S
C1213 C1219 1.363 . S
C1214 C1215 1.363 . S
C1214 C1219 1.379 . S
C1214 N1221 1.356 . S
C1215 C1214 1.363 . S
C1215 C1218 1.363 . S
N1216 C1218 1.356 . S
N1216 H1228 0.984 . S
N1216 H1229 0.985 . S
N1217 C1219 1.356 . S
N1217 H1222 0.984 . S
N1217 H1223 0.985 . S
C1218 C1212 1.379 . S
C1218 C1215 1.363 . S
C1218 N1216 1.356 . S
C1219 C1213 1.363 . S
C1219 C1214 1.379 . S
C1219 N1217 1.356 . S
N1220 C1212 1.356 . S
N1220 H1226 0.984 . S
N1220 H1227 0.984 . S
N1221 C1214 1.356 . S
N1221 H1224 0.984 . S
N1221 H1225 0.985 . S
H1222 N1217 0.984 . S
H1223 N1217 0.985 . S
H1224 N1221 0.984 . S
H1225 N1221 0.985 . S
H1226 N1220 0.984 . S
H1227 N1220 0.984 . S
H1228 N1216 0.984 . S
H1229 N1216 0.985 . S
C1230 C1231 1.363 . S
C1230 C1236 1.379 . S
C1230 N1238 1.356 . S
C1231 C1230 1.363 . S
C1231 C1237 1.363 . S
C1232 C1233 1.363 . S
C1232 C1237 1.379 . S
C1232 N1239 1.356 . S
C1233 C1232 1.363 . S
C1233 C1236 1.363 . S
N1234 C1236 1.356 . S
N1234 H1246 0.984 . S
N1234 H1247 0.985 . S
N1235 C1237 1.356 . S
N1235 H1240 0.984 . S
N1235 H1241 0.985 . S
C1236 C1230 1.379 . S
C1236 C1233 1.363 . S
C1236 N1234 1.356 . S
C1237 C1231 1.363 . S
C1237 C1232 1.379 . S
C1237 N1235 1.356 . S
N1238 C1230 1.356 . S
N1238 H1244 0.984 . S
N1238 H1245 0.984 . S
N1239 C1232 1.356 . S
N1239 H1242 0.984 . S
N1239 H1243 0.985 . S
H1240 N1235 0.984 . S
H1241 N1235 0.985 . S
H1242 N1239 0.984 . S
H1243 N1239 0.985 . S
H1244 N1238 0.984 . S
H1245 N1238 0.984 . S
H1246 N1234 0.984 . S
H1247 N1234 0.985 . S
C1248 C1249 1.363 . S
C1248 C1254 1.379 . S
C1248 N1256 1.356 . S
C1249 C1248 1.363 . S
C1249 C1255 1.363 . S
C1250 C1251 1.363 . S
C1250 C1255 1.379 . S
C1250 N1257 1.356 . S
C1251 C1250 1.363 . S
C1251 C1254 1.363 . S
N1252 C1254 1.356 . S
N1252 H1264 0.984 . S
N1252 H1265 0.985 . S
N1253 C1255 1.356 . S
N1253 H1258 0.984 . S
N1253 H1259 0.985 . S
C1254 C1248 1.379 . S
C1254 C1251 1.363 . S
C1254 N1252 1.356 . S
C1255 C1249 1.363 . S
C1255 C1250 1.379 . S
C1255 N1253 1.356 . S
N1256 C1248 1.356 . S
N1256 H1262 0.984 . S
N1256 H1263 0.984 . S
N1257 C1250 1.356 . S
N1257 H1260 0.984 . S
N1257 H1261 0.985 . S
H1258 N1253 0.984 . S
H1259 N1253 0.985 . S
H1260 N1257 0.984 . S
H1261 N1257 0.985 . S
H1262 N1256 0.984 . S
H1263 N1256 0.984 . S
H1264 N1252 0.984 . S
H1265 N1252 0.985 . S
C1266 C1267 1.363 . S
C1266 C1272 1.379 . S
C1266 N1274 1.356 . S
C1267 C1266 1.363 . S
C1267 C1273 1.363 . S
C1268 C1269 1.363 . S
C1268 C1273 1.379 . S
C1268 N1275 1.356 . S
C1269 C1268 1.363 . S
C1269 C1272 1.363 . S
N1270 C1272 1.356 . S
N1270 H1282 0.984 . S
N1270 H1283 0.985 . S
N1271 C1273 1.356 . S
N1271 H1276 0.984 . S
N1271 H1277 0.985 . S
C1272 C1266 1.379 . S
C1272 C1269 1.363 . S
C1272 N1270 1.356 . S
C1273 C1267 1.363 . S
C1273 C1268 1.379 . S
C1273 N1271 1.356 . S
N1274 C1266 1.356 . S
N1274 H1280 0.984 . S
N1274 H1281 0.984 . S
N1275 C1268 1.356 . S
N1275 H1278 0.984 . S
N1275 H1279 0.985 . S
H1276 N1271 0.984 . S
H1277 N1271 0.985 . S
H1278 N1275 0.984 . S
H1279 N1275 0.985 . S
H1280 N1274 0.984 . S
H1281 N1274 0.984 . S
H1282 N1270 0.984 . S
H1283 N1270 0.985 . S
C1284 C1285 1.363 . S
C1284 C1290 1.379 . S
C1284 N1292 1.356 . S
C1285 C1284 1.363 . S
C1285 C1291 1.363 . S
C1286 C1287 1.363 . S
C1286 C1291 1.379 . S
C1286 N1293 1.356 . S
C1287 C1286 1.363 . S
C1287 C1290 1.363 . S
N1288 C1290 1.356 . S
N1288 H1300 0.984 . S
N1288 H1301 0.985 . S
N1289 C1291 1.356 . S
N1289 H1294 0.984 . S
N1289 H1295 0.985 . S
C1290 C1284 1.379 . S
C1290 C1287 1.363 . S
C1290 N1288 1.356 . S
C1291 C1285 1.363 . S
C1291 C1286 1.379 . S
C1291 N1289 1.356 . S
N1292 C1284 1.356 . S
N1292 H1298 0.984 . S
N1292 H1299 0.984 . S
N1293 C1286 1.356 . S
N1293 H1296 0.984 . S
N1293 H1297 0.985 . S
H1294 N1289 0.984 . S
H1295 N1289 0.985 . S
H1296 N1293 0.984 . S
H1297 N1293 0.985 . S
H1298 N1292 0.984 . S
H1299 N1292 0.984 . S
H1300 N1288 0.984 . S
H1301 N1288 0.985 . S
C1302 C1303 1.363 . S
C1302 C1308 1.379 . S
C1302 N1310 1.356 . S
C1303 C1302 1.363 . S
C1303 C1309 1.363 . S
C1304 C1305 1.363 . S
C1304 C1309 1.379 . S
C1304 N1311 1.356 . S
C1305 C1304 1.363 . S
C1305 C1308 1.363 . S
N1306 C1308 1.356 . S
N1306 H1318 0.984 . S
N1306 H1319 0.985 . S
N1307 C1309 1.356 . S
N1307 H1312 0.984 . S
N1307 H1313 0.985 . S
C1308 C1302 1.379 . S
C1308 C1305 1.363 . S
C1308 N1306 1.356 . S
C1309 C1303 1.363 . S
C1309 C1304 1.379 . S
C1309 N1307 1.356 . S
N1310 C1302 1.356 . S
N1310 H1316 0.984 . S
N1310 H1317 0.984 . S
N1311 C1304 1.356 . S
N1311 H1314 0.984 . S
N1311 H1315 0.985 . S
H1312 N1307 0.984 . S
H1313 N1307 0.985 . S
H1314 N1311 0.984 . S
H1315 N1311 0.985 . S
H1316 N1310 0.984 . S
H1317 N1310 0.984 . S
H1318 N1306 0.984 . S
H1319 N1306 0.985 . S
C1320 C1321 1.363 . S
C1320 C1326 1.379 . S
C1320 N1328 1.356 . S
C1321 C1320 1.363 . S
C1321 C1327 1.363 . S
C1322 C1323 1.363 . S
C1322 C1327 1.379 . S
C1322 N1329 1.356 . S
C1323 C1322 1.363 . S
C1323 C1326 1.363 . S
N1324 C1326 1.356 . S
N1324 H1336 0.984 . S
N1324 H1337 0.985 . S
N1325 C1327 1.356 . S
N1325 H1330 0.984 . S
N1325 H1331 0.985 . S
C1326 C1320 1.379 . S
C1326 C1323 1.363 . S
C1326 N1324 1.356 . S
C1327 C1321 1.363 . S
C1327 C1322 1.379 . S
C1327 N1325 1.356 . S
N1328 C1320 1.356 . S
N1328 H1334 0.984 . S
N1328 H1335 0.984 . S
N1329 C1322 1.356 . S
N1329 H1332 0.984 . S
N1329 H1333 0.985 . S
H1330 N1325 0.984 . S
H1331 N1325 0.985 . S
H1332 N1329 0.984 . S
H1333 N1329 0.985 . S
H1334 N1328 0.984 . S
H1335 N1328 0.984 . S
H1336 N1324 0.984 . S
H1337 N1324 0.985 . S
C1338 C1339 1.363 . S
C1338 C1344 1.379 . S
C1338 N1346 1.356 . S
C1339 C1338 1.363 . S
C1339 C1345 1.363 . S
C1340 C1341 1.363 . S
C1340 C1345 1.379 . S
C1340 N1347 1.356 . S
C1341 C1340 1.363 . S
C1341 C1344 1.363 . S
N1342 C1344 1.356 . S
N1342 H1354 0.984 . S
N1342 H1355 0.985 . S
N1343 C1345 1.356 . S
N1343 H1348 0.984 . S
N1343 H1349 0.985 . S
C1344 C1338 1.379 . S
C1344 C1341 1.363 . S
C1344 N1342 1.356 . S
C1345 C1339 1.363 . S
C1345 C1340 1.379 . S
C1345 N1343 1.356 . S
N1346 C1338 1.356 . S
N1346 H1352 0.984 . S
N1346 H1353 0.984 . S
N1347 C1340 1.356 . S
N1347 H1350 0.984 . S
N1347 H1351 0.985 . S
H1348 N1343 0.984 . S
H1349 N1343 0.985 . S
H1350 N1347 0.984 . S
H1351 N1347 0.985 . S
H1352 N1346 0.984 . S
H1353 N1346 0.984 . S
H1354 N1342 0.984 . S
H1355 N1342 0.985 . S
C1356 C1357 1.363 . S
C1356 C1362 1.379 . S
C1356 N1364 1.356 . S
C1357 C1356 1.363 . S
C1357 C1363 1.363 . S
C1358 C1359 1.363 . S
C1358 C1363 1.379 . S
C1358 N1365 1.356 . S
C1359 C1358 1.363 . S
C1359 C1362 1.363 . S
N1360 C1362 1.356 . S
N1360 H1372 0.984 . S
N1360 H1373 0.985 . S
N1361 C1363 1.356 . S
N1361 H1366 0.984 . S
N1361 H1367 0.985 . S
C1362 C1356 1.379 . S
C1362 C1359 1.363 . S
C1362 N1360 1.356 . S
C1363 C1357 1.363 . S
C1363 C1358 1.379 . S
C1363 N1361 1.356 . S
N1364 C1356 1.356 . S
N1364 H1370 0.984 . S
N1364 H1371 0.984 . S
N1365 C1358 1.356 . S
N1365 H1368 0.984 . S
N1365 H1369 0.985 . S
H1366 N1361 0.984 . S
H1367 N1361 0.985 . S
H1368 N1365 0.984 . S
H1369 N1365 0.985 . S
H1370 N1364 0.984 . S
H1371 N1364 0.984 . S
H1372 N1360 0.984 . S
H1373 N1360 0.985 . S
C1374 C1375 1.363 . S
C1374 C1380 1.379 . S
C1374 N1382 1.356 . S
C1375 C1374 1.363 . S
C1375 C1381 1.363 . S
C1376 C1377 1.363 . S
C1376 C1381 1.379 . S
C1376 N1383 1.356 . S
C1377 C1376 1.363 . S
C1377 C1380 1.363 . S
N1378 C1380 1.356 . S
N1378 H1390 0.984 . S
N1378 H1391 0.985 . S
N1379 C1381 1.356 . S
N1379 H1384 0.984 . S
N1379 H1385 0.985 . S
C1380 C1374 1.379 . S
C1380 C1377 1.363 . S
C1380 N1378 1.356 . S
C1381 C1375 1.363 . S
C1381 C1376 1.379 . S
C1381 N1379 1.356 . S
N1382 C1374 1.356 . S
N1382 H1388 0.984 . S
N1382 H1389 0.984 . S
N1383 C1376 1.356 . S
N1383 H1386 0.984 . S
N1383 H1387 0.985 . S
H1384 N1379 0.984 . S
H1385 N1379 0.985 . S
H1386 N1383 0.984 . S
H1387 N1383 0.985 . S
H1388 N1382 0.984 . S
H1389 N1382 0.984 . S
H1390 N1378 0.984 . S
H1391 N1378 0.985 . S
C1392 C1393 1.363 . S
C1392 C1398 1.379 . S
C1392 N1400 1.356 . S
C1393 C1392 1.363 . S
C1393 C1399 1.363 . S
C1394 C1395 1.363 . S
C1394 C1399 1.379 . S
C1394 N1401 1.356 . S
C1395 C1394 1.363 . S
C1395 C1398 1.363 . S
N1396 C1398 1.356 . S
N1396 H1408 0.984 . S
N1396 H1409 0.985 . S
N1397 C1399 1.356 . S
N1397 H1402 0.984 . S
N1397 H1403 0.985 . S
C1398 C1392 1.379 . S
C1398 C1395 1.363 . S
C1398 N1396 1.356 . S
C1399 C1393 1.363 . S
C1399 C1394 1.379 . S
C1399 N1397 1.356 . S
N1400 C1392 1.356 . S
N1400 H1406 0.984 . S
N1400 H1407 0.984 . S
N1401 C1394 1.356 . S
N1401 H1404 0.984 . S
N1401 H1405 0.985 . S
H1402 N1397 0.984 . S
H1403 N1397 0.985 . S
H1404 N1401 0.984 . S
H1405 N1401 0.985 . S
H1406 N1400 0.984 . S
H1407 N1400 0.984 . S
H1408 N1396 0.984 . S
H1409 N1396 0.985 . S
C1410 C1411 1.363 . S
C1410 C1416 1.379 . S
C1410 N1418 1.356 . S
C1411 C1410 1.363 . S
C1411 C1417 1.363 . S
C1412 C1413 1.363 . S
C1412 C1417 1.379 . S
C1412 N1419 1.356 . S
C1413 C1412 1.363 . S
C1413 C1416 1.363 . S
N1414 C1416 1.356 . S
N1414 H1426 0.984 . S
N1414 H1427 0.985 . S
N1415 C1417 1.356 . S
N1415 H1420 0.984 . S
N1415 H1421 0.985 . S
C1416 C1410 1.379 . S
C1416 C1413 1.363 . S
C1416 N1414 1.356 . S
C1417 C1411 1.363 . S
C1417 C1412 1.379 . S
C1417 N1415 1.356 . S
N1418 C1410 1.356 . S
N1418 H1424 0.984 . S
N1418 H1425 0.984 . S
N1419 C1412 1.356 . S
N1419 H1422 0.984 . S
N1419 H1423 0.985 . S
H1420 N1415 0.984 . S
H1421 N1415 0.985 . S
H1422 N1419 0.984 . S
H1423 N1419 0.985 . S
H1424 N1418 0.984 . S
H1425 N1418 0.984 . S
H1426 N1414 0.984 . S
H1427 N1414 0.985 . S
C1428 C1429 1.363 . S
C1428 C1434 1.379 . S
C1428 N1436 1.356 . S
C1429 C1428 1.363 . S
C1429 C1435 1.363 . S
C1430 C1431 1.363 . S
C1430 C1435 1.379 . S
C1430 N1437 1.356 . S
C1431 C1430 1.363 . S
C1431 C1434 1.363 . S
N1432 C1434 1.356 . S
N1432 H1444 0.984 . S
N1432 H1445 0.985 . S
N1433 C1435 1.356 . S
N1433 H1438 0.984 . S
N1433 H1439 0.985 . S
C1434 C1428 1.379 . S
C1434 C1431 1.363 . S
C1434 N1432 1.356 . S
C1435 C1429 1.363 . S
C1435 C1430 1.379 . S
C1435 N1433 1.356 . S
N1436 C1428 1.356 . S
N1436 H1442 0.984 . S
N1436 H1443 0.984 . S
N1437 C1430 1.356 . S
N1437 H1440 0.984 . S
N1437 H1441 0.985 . S
H1438 N1433 0.984 . S
H1439 N1433 0.985 . S
H1440 N1437 0.984 . S
H1441 N1437 0.985 . S
H1442 N1436 0.984 . S
H1443 N1436 0.984 . S
H1444 N1432 0.984 . S
H1445 N1432 0.985 . S
C1446 C1447 1.363 . S
C1446 C1452 1.379 . S
C1446 N1454 1.356 . S
C1447 C1446 1.363 . S
C1447 C1453 1.363 . S
C1448 C1449 1.363 . S
C1448 C1453 1.379 . S
C1448 N1455 1.356 . S
C1449 C1448 1.363 . S
C1449 C1452 1.363 . S
N1450 C1452 1.356 . S
N1450 H1462 0.984 . S
N1450 H1463 0.985 . S
N1451 C1453 1.356 . S
N1451 H1456 0.984 . S
N1451 H1457 0.985 . S
C1452 C1446 1.379 . S
C1452 C1449 1.363 . S
C1452 N1450 1.356 . S
C1453 C1447 1.363 . S
C1453 C1448 1.379 . S
C1453 N1451 1.356 . S
N1454 C1446 1.356 . S
N1454 H1460 0.984 . S
N1454 H1461 0.984 . S
N1455 C1448 1.356 . S
N1455 H1458 0.984 . S
N1455 H1459 0.985 . S
H1456 N1451 0.984 . S
H1457 N1451 0.985 . S
H1458 N1455 0.984 . S
H1459 N1455 0.985 . S
H1460 N1454 0.984 . S
H1461 N1454 0.984 . S
H1462 N1450 0.984 . S
H1463 N1450 0.985 . S
C1464 C1465 1.363 . S
C1464 C1470 1.379 . S
C1464 N1472 1.356 . S
C1465 C1464 1.363 . S
C1465 C1471 1.363 . S
C1466 C1467 1.363 . S
C1466 C1471 1.379 . S
C1466 N1473 1.356 . S
C1467 C1466 1.363 . S
C1467 C1470 1.363 . S
N1468 C1470 1.356 . S
N1468 H1480 0.984 . S
N1468 H1481 0.985 . S
N1469 C1471 1.356 . S
N1469 H1474 0.984 . S
N1469 H1475 0.985 . S
C1470 C1464 1.379 . S
C1470 C1467 1.363 . S
C1470 N1468 1.356 . S
C1471 C1465 1.363 . S
C1471 C1466 1.379 . S
C1471 N1469 1.356 . S
N1472 C1464 1.356 . S
N1472 H1478 0.984 . S
N1472 H1479 0.984 . S
N1473 C1466 1.356 . S
N1473 H1476 0.984 . S
N1473 H1477 0.985 . S
H1474 N1469 0.984 . S
H1475 N1469 0.985 . S
H1476 N1473 0.984 . S
H1477 N1473 0.985 . S
H1478 N1472 0.984 . S
H1479 N1472 0.984 . S
H1480 N1468 0.984 . S
H1481 N1468 0.985 . S
C1482 C1483 1.363 . S
C1482 C1488 1.379 . S
C1482 N1490 1.356 . S
C1483 C1482 1.363 . S
C1483 C1489 1.363 . S
C1484 C1485 1.363 . S
C1484 C1489 1.379 . S
C1484 N1491 1.356 . S
C1485 C1484 1.363 . S
C1485 C1488 1.363 . S
N1486 C1488 1.356 . S
N1486 H1498 0.984 . S
N1486 H1499 0.985 . S
N1487 C1489 1.356 . S
N1487 H1492 0.984 . S
N1487 H1493 0.985 . S
C1488 C1482 1.379 . S
C1488 C1485 1.363 . S
C1488 N1486 1.356 . S
C1489 C1483 1.363 . S
C1489 C1484 1.379 . S
C1489 N1487 1.356 . S
N1490 C1482 1.356 . S
N1490 H1496 0.984 . S
N1490 H1497 0.984 . S
N1491 C1484 1.356 . S
N1491 H1494 0.984 . S
N1491 H1495 0.985 . S
H1492 N1487 0.984 . S
H1493 N1487 0.985 . S
H1494 N1491 0.984 . S
H1495 N1491 0.985 . S
H1496 N1490 0.984 . S
H1497 N1490 0.984 . S
H1498 N1486 0.984 . S
H1499 N1486 0.985 . S
C1500 C1501 1.363 . S
C1500 C1506 1.379 . S
C1500 N1508 1.356 . S
C1501 C1500 1.363 . S
C1501 C1507 1.363 . S
C1502 C1503 1.363 . S
C1502 C1507 1.379 . S
C1502 N1509 1.356 . S
C1503 C1502 1.363 . S
C1503 C1506 1.363 . S
N1504 C1506 1.356 . S
N1504 H1516 0.984 . S
N1504 H1517 0.985 . S
N1505 C1507 1.356 . S
N1505 H1510 0.984 . S
N1505 H1511 0.985 . S
C1506 C1500 1.379 . S
C1506 C1503 1.363 . S
C1506 N1504 1.356 . S
C1507 C1501 1.363 . S
C1507 C1502 1.379 . S
C1507 N1505 1.356 . S
N1508 C1500 1.356 . S
N1508 H1514 0.984 . S
N1508 H1515 0.984 . S
N1509 C1502 1.356 . S
N1509 H1512 0.984 . S
N1509 H1513 0.985 . S
H1510 N1505 0.984 . S
H1511 N1505 0.985 . S
H1512 N1509 0.984 . S
H1513 N1509 0.985 . S
H1514 N1508 0.984 . S
H1515 N1508 0.984 . S
H1516 N1504 0.984 . S
H1517 N1504 0.985 . S
C1518 C1519 1.363 . S
C1518 C1524 1.379 . S
C1518 N1526 1.356 . S
C1519 C1518 1.363 . S
C1519 C1525 1.363 . S
C1520 C1521 1.363 . S
C1520 C1525 1.379 . S
C1520 N1527 1.356 . S
C1521 C1520 1.363 . S
C1521 C1524 1.363 . S
N1522 C1524 1.356 . S
N1522 H1534 0.984 . S
N1522 H1535 0.985 . S
N1523 C1525 1.356 . S
N1523 H1528 0.984 . S
N1523 H1529 0.985 . S
C1524 C1518 1.379 . S
C1524 C1521 1.363 . S
C1524 N1522 1.356 . S
C1525 C1519 1.363 . S
C1525 C1520 1.379 . S
C1525 N1523 1.356 . S
N1526 C1518 1.356 . S
N1526 H1532 0.984 . S
N1526 H1533 0.984 . S
N1527 C1520 1.356 . S
N1527 H1530 0.984 . S
N1527 H1531 0.985 . S
H1528 N1523 0.984 . S
H1529 N1523 0.985 . S
H1530 N1527 0.984 . S
H1531 N1527 0.985 . S
H1532 N1526 0.984 . S
H1533 N1526 0.984 . S
H1534 N1522 0.984 . S
H1535 N1522 0.985 . S
C1536 C1537 1.363 . S
C1536 C1542 1.379 . S
C1536 N1544 1.356 . S
C1537 C1536 1.363 . S
C1537 C1543 1.363 . S
C1538 C1539 1.363 . S
C1538 C1543 1.379 . S
C1538 N1545 1.356 . S
C1539 C1538 1.363 . S
C1539 C1542 1.363 . S
N1540 C1542 1.356 . S
N1540 H1552 0.984 . S
N1540 H1553 0.985 . S
N1541 C1543 1.356 . S
N1541 H1546 0.984 . S
N1541 H1547 0.985 . S
C1542 C1536 1.379 . S
C1542 C1539 1.363 . S
C1542 N1540 1.356 . S
C1543 C1537 1.363 . S
C1543 C1538 1.379 . S
C1543 N1541 1.356 . S
N1544 C1536 1.356 . S
N1544 H1550 0.984 . S
N1544 H1551 0.984 . S
N1545 C1538 1.356 . S
N1545 H1548 0.984 . S
N1545 H1549 0.985 . S
H1546 N1541 0.984 . S
H1547 N1541 0.985 . S
H1548 N1545 0.984 . S
H1549 N1545 0.985 . S
H1550 N1544 0.984 . S
H1551 N1544 0.984 . S
H1552 N1540 0.984 . S
H1553 N1540 0.985 . S
C1554 C1555 1.363 . S
C1554 C1560 1.379 . S
C1554 N1562 1.356 . S
C1555 C1554 1.363 . S
C1555 C1561 1.363 . S
C1556 C1557 1.363 . S
C1556 C1561 1.379 . S
C1556 N1563 1.356 . S
C1557 C1556 1.363 . S
C1557 C1560 1.363 . S
N1558 C1560 1.356 . S
N1558 H1570 0.984 . S
N1558 H1571 0.985 . S
N1559 C1561 1.356 . S
N1559 H1564 0.984 . S
N1559 H1565 0.985 . S
C1560 C1554 1.379 . S
C1560 C1557 1.363 . S
C1560 N1558 1.356 . S
C1561 C1555 1.363 . S
C1561 C1556 1.379 . S
C1561 N1559 1.356 . S
N1562 C1554 1.356 . S
N1562 H1568 0.984 . S
N1562 H1569 0.984 . S
N1563 C1556 1.356 . S
N1563 H1566 0.984 . S
N1563 H1567 0.985 . S
H1564 N1559 0.984 . S
H1565 N1559 0.985 . S
H1566 N1563 0.984 . S
H1567 N1563 0.985 . S
H1568 N1562 0.984 . S
H1569 N1562 0.984 . S
H1570 N1558 0.984 . S
H1571 N1558 0.985 . S
C1572 C1573 1.363 . S
C1572 C1578 1.379 . S
C1572 N1580 1.356 . S
C1573 C1572 1.363 . S
C1573 C1579 1.363 . S
C1574 C1575 1.363 . S
C1574 C1579 1.379 . S
C1574 N1581 1.356 . S
C1575 C1574 1.363 . S
C1575 C1578 1.363 . S
N1576 C1578 1.356 . S
N1576 H1588 0.984 . S
N1576 H1589 0.985 . S
N1577 C1579 1.356 . S
N1577 H1582 0.984 . S
N1577 H1583 0.985 . S
C1578 C1572 1.379 . S
C1578 C1575 1.363 . S
C1578 N1576 1.356 . S
C1579 C1573 1.363 . S
C1579 C1574 1.379 . S
C1579 N1577 1.356 . S
N1580 C1572 1.356 . S
N1580 H1586 0.984 . S
N1580 H1587 0.984 . S
N1581 C1574 1.356 . S
N1581 H1584 0.984 . S
N1581 H1585 0.985 . S
H1582 N1577 0.984 . S
H1583 N1577 0.985 . S
H1584 N1581 0.984 . S
H1585 N1581 0.985 . S
H1586 N1580 0.984 . S
H1587 N1580 0.984 . S
H1588 N1576 0.984 . S
H1589 N1576 0.985 . S
C1590 C1591 1.363 . S
C1590 C1596 1.379 . S
C1590 N1598 1.356 . S
C1591 C1590 1.363 . S
C1591 C1597 1.363 . S
C1592 C1593 1.363 . S
C1592 C1597 1.379 . S
C1592 N1599 1.356 . S
C1593 C1592 1.363 . S
C1593 C1596 1.363 . S
N1594 C1596 1.356 . S
N1594 H1606 0.984 . S
N1594 H1607 0.985 . S
N1595 C1597 1.356 . S
N1595 H1600 0.984 . S
N1595 H1601 0.985 . S
C1596 C1590 1.379 . S
C1596 C1593 1.363 . S
C1596 N1594 1.356 . S
C1597 C1591 1.363 . S
C1597 C1592 1.379 . S
C1597 N1595 1.356 . S
N1598 C1590 1.356 . S
N1598 H1604 0.984 . S
N1598 H1605 0.984 . S
N1599 C1592 1.356 . S
N1599 H1602 0.984 . S
N1599 H1603 0.985 . S
H1600 N1595 0.984 . S
H1601 N1595 0.985 . S
H1602 N1599 0.984 . S
H1603 N1599 0.985 . S
H1604 N1598 0.984 . S
H1605 N1598 0.984 . S
H1606 N1594 0.984 . S
H1607 N1594 0.985 . S
C1608 C1609 1.363 . S
C1608 C1614 1.379 . S
C1608 N1616 1.356 . S
C1609 C1608 1.363 . S
C1609 C1615 1.363 . S
C1610 C1611 1.363 . S
C1610 C1615 1.379 . S
C1610 N1617 1.356 . S
C1611 C1610 1.363 . S
C1611 C1614 1.363 . S
N1612 C1614 1.356 . S
N1612 H1624 0.984 . S
N1612 H1625 0.985 . S
N1613 C1615 1.356 . S
N1613 H1618 0.984 . S
N1613 H1619 0.985 . S
C1614 C1608 1.379 . S
C1614 C1611 1.363 . S
C1614 N1612 1.356 . S
C1615 C1609 1.363 . S
C1615 C1610 1.379 . S
C1615 N1613 1.356 . S
N1616 C1608 1.356 . S
N1616 H1622 0.984 . S
N1616 H1623 0.984 . S
N1617 C1610 1.356 . S
N1617 H1620 0.984 . S
N1617 H1621 0.985 . S
H1618 N1613 0.984 . S
H1619 N1613 0.985 . S
H1620 N1617 0.984 . S
H1621 N1617 0.985 . S
H1622 N1616 0.984 . S
H1623 N1616 0.984 . S
H1624 N1612 0.984 . S
H1625 N1612 0.985 . S
C1626 C1627 1.363 . S
C1626 C1632 1.379 . S
C1626 N1634 1.356 . S
C1627 C1626 1.363 . S
C1627 C1633 1.363 . S
C1628 C1629 1.363 . S
C1628 C1633 1.379 . S
C1628 N1635 1.356 . S
C1629 C1628 1.363 . S
C1629 C1632 1.363 . S
N1630 C1632 1.356 . S
N1630 H1642 0.984 . S
N1630 H1643 0.985 . S
N1631 C1633 1.356 . S
N1631 H1636 0.984 . S
N1631 H1637 0.985 . S
C1632 C1626 1.379 . S
C1632 C1629 1.363 . S
C1632 N1630 1.356 . S
C1633 C1627 1.363 . S
C1633 C1628 1.379 . S
C1633 N1631 1.356 . S
N1634 C1626 1.356 . S
N1634 H1640 0.984 . S
N1634 H1641 0.984 . S
N1635 C1628 1.356 . S
N1635 H1638 0.984 . S
N1635 H1639 0.985 . S
H1636 N1631 0.984 . S
H1637 N1631 0.985 . S
H1638 N1635 0.984 . S
H1639 N1635 0.985 . S
H1640 N1634 0.984 . S
H1641 N1634 0.984 . S
H1642 N1630 0.984 . S
H1643 N1630 0.985 . S
C1644 C1645 1.363 . S
C1644 C1650 1.379 . S
C1644 N1652 1.356 . S
C1645 C1644 1.363 . S
C1645 C1651 1.363 . S
C1646 C1647 1.363 . S
C1646 C1651 1.379 . S
C1646 N1653 1.356 . S
C1647 C1646 1.363 . S
C1647 C1650 1.363 . S
N1648 C1650 1.356 . S
N1648 H1660 0.984 . S
N1648 H1661 0.985 . S
N1649 C1651 1.356 . S
N1649 H1654 0.984 . S
N1649 H1655 0.985 . S
C1650 C1644 1.379 . S
C1650 C1647 1.363 . S
C1650 N1648 1.356 . S
C1651 C1645 1.363 . S
C1651 C1646 1.379 . S
C1651 N1649 1.356 . S
N1652 C1644 1.356 . S
N1652 H1658 0.984 . S
N1652 H1659 0.984 . S
N1653 C1646 1.356 . S
N1653 H1656 0.984 . S
N1653 H1657 0.985 . S
H1654 N1649 0.984 . S
H1655 N1649 0.985 . S
H1656 N1653 0.984 . S
H1657 N1653 0.985 . S
H1658 N1652 0.984 . S
H1659 N1652 0.984 . S
H1660 N1648 0.984 . S
H1661 N1648 0.985 . S
C1662 C1663 1.363 . S
C1662 C1668 1.379 . S
C1662 N1670 1.356 . S
C1663 C1662 1.363 . S
C1663 C1669 1.363 . S
C1664 C1665 1.363 . S
C1664 C1669 1.379 . S
C1664 N1671 1.356 . S
C1665 C1664 1.363 . S
C1665 C1668 1.363 . S
N1666 C1668 1.356 . S
N1666 H1678 0.984 . S
N1666 H1679 0.985 . S
N1667 C1669 1.356 . S
N1667 H1672 0.984 . S
N1667 H1673 0.985 . S
C1668 C1662 1.379 . S
C1668 C1665 1.363 . S
C1668 N1666 1.356 . S
C1669 C1663 1.363 . S
C1669 C1664 1.379 . S
C1669 N1667 1.356 . S
N1670 C1662 1.356 . S
N1670 H1676 0.984 . S
N1670 H1677 0.984 . S
N1671 C1664 1.356 . S
N1671 H1674 0.984 . S
N1671 H1675 0.985 . S
H1672 N1667 0.984 . S
H1673 N1667 0.985 . S
H1674 N1671 0.984 . S
H1675 N1671 0.985 . S
H1676 N1670 0.984 . S
H1677 N1670 0.984 . S
H1678 N1666 0.984 . S
H1679 N1666 0.985 . S
C1680 C1681 1.363 . S
C1680 C1686 1.379 . S
C1680 N1688 1.356 . S
C1681 C1680 1.363 . S
C1681 C1687 1.363 . S
C1682 C1683 1.363 . S
C1682 C1687 1.379 . S
C1682 N1689 1.356 . S
C1683 C1682 1.363 . S
C1683 C1686 1.363 . S
N1684 C1686 1.356 . S
N1684 H1696 0.984 . S
N1684 H1697 0.985 . S
N1685 C1687 1.356 . S
N1685 H1690 0.984 . S
N1685 H1691 0.985 . S
C1686 C1680 1.379 . S
C1686 C1683 1.363 . S
C1686 N1684 1.356 . S
C1687 C1681 1.363 . S
C1687 C1682 1.379 . S
C1687 N1685 1.356 . S
N1688 C1680 1.356 . S
N1688 H1694 0.984 . S
N1688 H1695 0.984 . S
N1689 C1682 1.356 . S
N1689 H1692 0.984 . S
N1689 H1693 0.985 . S
H1690 N1685 0.984 . S
H1691 N1685 0.985 . S
H1692 N1689 0.984 . S
H1693 N1689 0.985 . S
H1694 N1688 0.984 . S
H1695 N1688 0.984 . S
H1696 N1684 0.984 . S
H1697 N1684 0.985 . S
C1698 C1699 1.363 . S
C1698 C1704 1.379 . S
C1698 N1706 1.356 . S
C1699 C1698 1.363 . S
C1699 C1705 1.363 . S
C1700 C1701 1.363 . S
C1700 C1705 1.379 . S
C1700 N1707 1.356 . S
C1701 C1700 1.363 . S
C1701 C1704 1.363 . S
N1702 C1704 1.356 . S
N1702 H1714 0.984 . S
N1702 H1715 0.985 . S
N1703 C1705 1.356 . S
N1703 H1708 0.984 . S
N1703 H1709 0.985 . S
C1704 C1698 1.379 . S
C1704 C1701 1.363 . S
C1704 N1702 1.356 . S
C1705 C1699 1.363 . S
C1705 C1700 1.379 . S
C1705 N1703 1.356 . S
N1706 C1698 1.356 . S
N1706 H1712 0.984 . S
N1706 H1713 0.984 . S
N1707 C1700 1.356 . S
N1707 H1710 0.984 . S
N1707 H1711 0.985 . S
H1708 N1703 0.984 . S
H1709 N1703 0.985 . S
H1710 N1707 0.984 . S
H1711 N1707 0.985 . S
H1712 N1706 0.984 . S
H1713 N1706 0.984 . S
H1714 N1702 0.984 . S
H1715 N1702 0.985 . S
C1716 C1717 1.363 . S
C1716 C1722 1.379 . S
C1716 N1724 1.356 . S
C1717 C1716 1.363 . S
C1717 C1723 1.363 . S
C1718 C1719 1.363 . S
C1718 C1723 1.379 . S
C1718 N1725 1.356 . S
C1719 C1718 1.363 . S
C1719 C1722 1.363 . S
N1720 C1722 1.356 . S
N1720 H1732 0.984 . S
N1720 H1733 0.985 . S
N1721 C1723 1.356 . S
N1721 H1726 0.984 . S
N1721 H1727 0.985 . S
C1722 C1716 1.379 . S
C1722 C1719 1.363 . S
C1722 N1720 1.356 . S
C1723 C1717 1.363 . S
C1723 C1718 1.379 . S
C1723 N1721 1.356 . S
N1724 C1716 1.356 . S
N1724 H1730 0.984 . S
N1724 H1731 0.984 . S
N1725 C1718 1.356 . S
N1725 H1728 0.984 . S
N1725 H1729 0.985 . S
H1726 N1721 0.984 . S
H1727 N1721 0.985 . S
H1728 N1725 0.984 . S
H1729 N1725 0.985 . S
H1730 N1724 0.984 . S
H1731 N1724 0.984 . S
H1732 N1720 0.984 . S
H1733 N1720 0.985 . S
C1734 C1735 1.363 . S
C1734 C1740 1.379 . S
C1734 N1742 1.356 . S
C1735 C1734 1.363 . S
C1735 C1741 1.363 . S
C1736 C1737 1.363 . S
C1736 C1741 1.379 . S
C1736 N1743 1.356 . S
C1737 C1736 1.363 . S
C1737 C1740 1.363 . S
N1738 C1740 1.356 . S
N1738 H1750 0.984 . S
N1738 H1751 0.985 . S
N1739 C1741 1.356 . S
N1739 H1744 0.984 . S
N1739 H1745 0.985 . S
C1740 C1734 1.379 . S
C1740 C1737 1.363 . S
C1740 N1738 1.356 . S
C1741 C1735 1.363 . S
C1741 C1736 1.379 . S
C1741 N1739 1.356 . S
N1742 C1734 1.356 . S
N1742 H1748 0.984 . S
N1742 H1749 0.984 . S
N1743 C1736 1.356 . S
N1743 H1746 0.984 . S
N1743 H1747 0.985 . S
H1744 N1739 0.984 . S
H1745 N1739 0.985 . S
H1746 N1743 0.984 . S
H1747 N1743 0.985 . S
H1748 N1742 0.984 . S
H1749 N1742 0.984 . S
H1750 N1738 0.984 . S
H1751 N1738 0.985 . S
C1752 C1753 1.363 . S
C1752 C1758 1.379 . S
C1752 N1760 1.356 . S
C1753 C1752 1.363 . S
C1753 C1759 1.363 . S
C1754 C1755 1.363 . S
C1754 C1759 1.379 . S
C1754 N1761 1.356 . S
C1755 C1754 1.363 . S
C1755 C1758 1.363 . S
N1756 C1758 1.356 . S
N1756 H1768 0.984 . S
N1756 H1769 0.985 . S
N1757 C1759 1.356 . S
N1757 H1762 0.984 . S
N1757 H1763 0.985 . S
C1758 C1752 1.379 . S
C1758 C1755 1.363 . S
C1758 N1756 1.356 . S
C1759 C1753 1.363 . S
C1759 C1754 1.379 . S
C1759 N1757 1.356 . S
N1760 C1752 1.356 . S
N1760 H1766 0.984 . S
N1760 H1767 0.984 . S
N1761 C1754 1.356 . S
N1761 H1764 0.984 . S
N1761 H1765 0.985 . S
H1762 N1757 0.984 . S
H1763 N1757 0.985 . S
H1764 N1761 0.984 . S
H1765 N1761 0.985 . S
H1766 N1760 0.984 . S
H1767 N1760 0.984 . S
H1768 N1756 0.984 . S
H1769 N1756 0.985 . S
C1770 C1771 1.363 . S
C1770 C1776 1.379 . S
C1770 N1778 1.356 . S
C1771 C1770 1.363 . S
C1771 C1777 1.363 . S
C1772 C1773 1.363 . S
C1772 C1777 1.379 . S
C1772 N1779 1.356 . S
C1773 C1772 1.363 . S
C1773 C1776 1.363 . S
N1774 C1776 1.356 . S
N1774 H1786 0.984 . S
N1774 H1787 0.985 . S
N1775 C1777 1.356 . S
N1775 H1780 0.984 . S
N1775 H1781 0.985 . S
C1776 C1770 1.379 . S
C1776 C1773 1.363 . S
C1776 N1774 1.356 . S
C1777 C1771 1.363 . S
C1777 C1772 1.379 . S
C1777 N1775 1.356 . S
N1778 C1770 1.356 . S
N1778 H1784 0.984 . S
N1778 H1785 0.984 . S
N1779 C1772 1.356 . S
N1779 H1782 0.984 . S
N1779 H1783 0.985 . S
H1780 N1775 0.984 . S
H1781 N1775 0.985 . S
H1782 N1779 0.984 . S
H1783 N1779 0.985 . S
H1784 N1778 0.984 . S
H1785 N1778 0.984 . S
H1786 N1774 0.984 . S
H1787 N1774 0.985 . S
C1788 C1789 1.363 . S
C1788 C1794 1.379 . S
C1788 N1796 1.356 . S
C1789 C1788 1.363 . S
C1789 C1795 1.363 . S
C1790 C1791 1.363 . S
C1790 C1795 1.379 . S
C1790 N1797 1.356 . S
C1791 C1790 1.363 . S
C1791 C1794 1.363 . S
N1792 C1794 1.356 . S
N1792 H1804 0.984 . S
N1792 H1805 0.985 . S
N1793 C1795 1.356 . S
N1793 H1798 0.984 . S
N1793 H1799 0.985 . S
C1794 C1788 1.379 . S
C1794 C1791 1.363 . S
C1794 N1792 1.356 . S
C1795 C1789 1.363 . S
C1795 C1790 1.379 . S
C1795 N1793 1.356 . S
N1796 C1788 1.356 . S
N1796 H1802 0.984 . S
N1796 H1803 0.984 . S
N1797 C1790 1.356 . S
N1797 H1800 0.984 . S
N1797 H1801 0.985 . S
H1798 N1793 0.984 . S
H1799 N1793 0.985 . S
H1800 N1797 0.984 . S
H1801 N1797 0.985 . S
H1802 N1796 0.984 . S
H1803 N1796 0.984 . S
H1804 N1792 0.984 . S
H1805 N1792 0.985 . S
C1806 C1807 1.363 . S
C1806 C1812 1.379 . S
C1806 N1814 1.356 . S
C1807 C1806 1.363 . S
C1807 C1813 1.363 . S
C1808 C1809 1.363 . S
C1808 C1813 1.379 . S
C1808 N1815 1.356 . S
C1809 C1808 1.363 . S
C1809 C1812 1.363 . S
N1810 C1812 1.356 . S
N1810 H1822 0.984 . S
N1810 H1823 0.985 . S
N1811 C1813 1.356 . S
N1811 H1816 0.984 . S
N1811 H1817 0.985 . S
C1812 C1806 1.379 . S
C1812 C1809 1.363 . S
C1812 N1810 1.356 . S
C1813 C1807 1.363 . S
C1813 C1808 1.379 . S
C1813 N1811 1.356 . S
N1814 C1806 1.356 . S
N1814 H1820 0.984 . S
N1814 H1821 0.984 . S
N1815 C1808 1.356 . S
N1815 H1818 0.984 . S
N1815 H1819 0.985 . S
H1816 N1811 0.984 . S
H1817 N1811 0.985 . S
H1818 N1815 0.984 . S
H1819 N1815 0.985 . S
H1820 N1814 0.984 . S
H1821 N1814 0.984 . S
H1822 N1810 0.984 . S
H1823 N1810 0.985 . S
C1824 C1825 1.363 . S
C1824 C1830 1.379 . S
C1824 N1832 1.356 . S
C1825 C1824 1.363 . S
C1825 C1831 1.363 . S
C1826 C1827 1.363 . S
C1826 C1831 1.379 . S
C1826 N1833 1.356 . S
C1827 C1826 1.363 . S
C1827 C1830 1.363 . S
N1828 C1830 1.356 . S
N1828 H1840 0.984 . S
N1828 H1841 0.985 . S
N1829 C1831 1.356 . S
N1829 H1834 0.984 . S
N1829 H1835 0.985 . S
C1830 C1824 1.379 . S
C1830 C1827 1.363 . S
C1830 N1828 1.356 . S
C1831 C1825 1.363 . S
C1831 C1826 1.379 . S
C1831 N1829 1.356 . S
N1832 C1824 1.356 . S
N1832 H1838 0.984 . S
N1832 H1839 0.984 . S
N1833 C1826 1.356 . S
N1833 H1836 0.984 . S
N1833 H1837 0.985 . S
H1834 N1829 0.984 . S
H1835 N1829 0.985 . S
H1836 N1833 0.984 . S
H1837 N1833 0.985 . S
H1838 N1832 0.984 . S
H1839 N1832 0.984 . S
H1840 N1828 0.984 . S
H1841 N1828 0.985 . S
C1842 C1843 1.363 . S
C1842 C1848 1.379 . S
C1842 N1850 1.356 . S
C1843 C1842 1.363 . S
C1843 C1849 1.363 . S
C1844 C1845 1.363 . S
C1844 C1849 1.379 . S
C1844 N1851 1.356 . S
C1845 C1844 1.363 . S
C1845 C1848 1.363 . S
N1846 C1848 1.356 . S
N1846 H1858 0.984 . S
N1846 H1859 0.985 . S
N1847 C1849 1.356 . S
N1847 H1852 0.984 . S
N1847 H1853 0.985 . S
C1848 C1842 1.379 . S
C1848 C1845 1.363 . S
C1848 N1846 1.356 . S
C1849 C1843 1.363 . S
C1849 C1844 1.379 . S
C1849 N1847 1.356 . S
N1850 C1842 1.356 . S
N1850 H1856 0.984 . S
N1850 H1857 0.984 . S
N1851 C1844 1.356 . S
N1851 H1854 0.984 . S
N1851 H1855 0.985 . S
H1852 N1847 0.984 . S
H1853 N1847 0.985 . S
H1854 N1851 0.984 . S
H1855 N1851 0.985 . S
H1856 N1850 0.984 . S
H1857 N1850 0.984 . S
H1858 N1846 0.984 . S
H1859 N1846 0.985 . S
C1860 C1861 1.363 . S
C1860 C1866 1.379 . S
C1860 N1868 1.356 . S
C1861 C1860 1.363 . S
C1861 C1867 1.363 . S
C1862 C1863 1.363 . S
C1862 C1867 1.379 . S
C1862 N1869 1.356 . S
C1863 C1862 1.363 . S
C1863 C1866 1.363 . S
N1864 C1866 1.356 . S
N1864 H1876 0.984 . S
N1864 H1877 0.985 . S
N1865 C1867 1.356 . S
N1865 H1870 0.984 . S
N1865 H1871 0.985 . S
C1866 C1860 1.379 . S
C1866 C1863 1.363 . S
C1866 N1864 1.356 . S
C1867 C1861 1.363 . S
C1867 C1862 1.379 . S
C1867 N1865 1.356 . S
N1868 C1860 1.356 . S
N1868 H1874 0.984 . S
N1868 H1875 0.984 . S
N1869 C1862 1.356 . S
N1869 H1872 0.984 . S
N1869 H1873 0.985 . S
H1870 N1865 0.984 . S
H1871 N1865 0.985 . S
H1872 N1869 0.984 . S
H1873 N1869 0.985 . S
H1874 N1868 0.984 . S
H1875 N1868 0.984 . S
H1876 N1864 0.984 . S
H1877 N1864 0.985 . S
C1878 C1879 1.363 . S
C1878 C1884 1.379 . S
C1878 N1886 1.356 . S
C1879 C1878 1.363 . S
C1879 C1885 1.363 . S
C1880 C1881 1.363 . S
C1880 C1885 1.379 . S
C1880 N1887 1.356 . S
C1881 C1880 1.363 . S
C1881 C1884 1.363 . S
N1882 C1884 1.356 . S
N1882 H1894 0.984 . S
N1882 H1895 0.985 . S
N1883 C1885 1.356 . S
N1883 H1888 0.984 . S
N1883 H1889 0.985 . S
C1884 C1878 1.379 . S
C1884 C1881 1.363 . S
C1884 N1882 1.356 . S
C1885 C1879 1.363 . S
C1885 C1880 1.379 . S
C1885 N1883 1.356 . S
N1886 C1878 1.356 . S
N1886 H1892 0.984 . S
N1886 H1893 0.984 . S
N1887 C1880 1.356 . S
N1887 H1890 0.984 . S
N1887 H1891 0.985 . S
H1888 N1883 0.984 . S
H1889 N1883 0.985 . S
H1890 N1887 0.984 . S
H1891 N1887 0.985 . S
H1892 N1886 0.984 . S
H1893 N1886 0.984 . S
H1894 N1882 0.984 . S
H1895 N1882 0.985 . S
C1896 C1897 1.363 . S
C1896 C1902 1.379 . S
C1896 N1904 1.356 . S
C1897 C1896 1.363 . S
C1897 C1903 1.363 . S
C1898 C1899 1.363 . S
C1898 C1903 1.379 . S
C1898 N1905 1.356 . S
C1899 C1898 1.363 . S
C1899 C1902 1.363 . S
N1900 C1902 1.356 . S
N1900 H1912 0.984 . S
N1900 H1913 0.985 . S
N1901 C1903 1.356 . S
N1901 H1906 0.984 . S
N1901 H1907 0.985 . S
C1902 C1896 1.379 . S
C1902 C1899 1.363 . S
C1902 N1900 1.356 . S
C1903 C1897 1.363 . S
C1903 C1898 1.379 . S
C1903 N1901 1.356 . S
N1904 C1896 1.356 . S
N1904 H1910 0.984 . S
N1904 H1911 0.984 . S
N1905 C1898 1.356 . S
N1905 H1908 0.984 . S
N1905 H1909 0.985 . S
H1906 N1901 0.984 . S
H1907 N1901 0.985 . S
H1908 N1905 0.984 . S
H1909 N1905 0.985 . S
H1910 N1904 0.984 . S
H1911 N1904 0.984 . S
H1912 N1900 0.984 . S
H1913 N1900 0.985 . S
C1914 C1915 1.363 . S
C1914 C1920 1.379 . S
C1914 N1922 1.356 . S
C1915 C1914 1.363 . S
C1915 C1921 1.363 . S
C1916 C1917 1.363 . S
C1916 C1921 1.379 . S
C1916 N1923 1.356 . S
C1917 C1916 1.363 . S
C1917 C1920 1.363 . S
N1918 C1920 1.356 . S
N1918 H1930 0.984 . S
N1918 H1931 0.985 . S
N1919 C1921 1.356 . S
N1919 H1924 0.984 . S
N1919 H1925 0.985 . S
C1920 C1914 1.379 . S
C1920 C1917 1.363 . S
C1920 N1918 1.356 . S
C1921 C1915 1.363 . S
C1921 C1916 1.379 . S
C1921 N1919 1.356 . S
N1922 C1914 1.356 . S
N1922 H1928 0.984 . S
N1922 H1929 0.984 . S
N1923 C1916 1.356 . S
N1923 H1926 0.984 . S
N1923 H1927 0.985 . S
H1924 N1919 0.984 . S
H1925 N1919 0.985 . S
H1926 N1923 0.984 . S
H1927 N1923 0.985 . S
H1928 N1922 0.984 . S
H1929 N1922 0.984 . S
H1930 N1918 0.984 . S
H1931 N1918 0.985 . S
C1932 C1933 1.363 . S
C1932 C1938 1.379 . S
C1932 N1940 1.356 . S
C1933 C1932 1.363 . S
C1933 C1939 1.363 . S
C1934 C1935 1.363 . S
C1934 C1939 1.379 . S
C1934 N1941 1.356 . S
C1935 C1934 1.363 . S
C1935 C1938 1.363 . S
N1936 C1938 1.356 . S
N1936 H1948 0.984 . S
N1936 H1949 0.985 . S
N1937 C1939 1.356 . S
N1937 H1942 0.984 . S
N1937 H1943 0.985 . S
C1938 C1932 1.379 . S
C1938 C1935 1.363 . S
C1938 N1936 1.356 . S
C1939 C1933 1.363 . S
C1939 C1934 1.379 . S
C1939 N1937 1.356 . S
N1940 C1932 1.356 . S
N1940 H1946 0.984 . S
N1940 H1947 0.984 . S
N1941 C1934 1.356 . S
N1941 H1944 0.984 . S
N1941 H1945 0.985 . S
H1942 N1937 0.984 . S
H1943 N1937 0.985 . S
H1944 N1941 0.984 . S
H1945 N1941 0.985 . S
H1946 N1940 0.984 . S
H1947 N1940 0.984 . S
H1948 N1936 0.984 . S
H1949 N1936 0.985 . S
C1950 C1951 1.363 . S
C1950 C1956 1.379 . S
C1950 N1958 1.356 . S
C1951 C1950 1.363 . S
C1951 C1957 1.363 . S
C1952 C1953 1.363 . S
C1952 C1957 1.379 . S
C1952 N1959 1.356 . S
C1953 C1952 1.363 . S
C1953 C1956 1.363 . S
N1954 C1956 1.356 . S
N1954 H1966 0.984 . S
N1954 H1967 0.985 . S
N1955 C1957 1.356 . S
N1955 H1960 0.984 . S
N1955 H1961 0.985 . S
C1956 C1950 1.379 . S
C1956 C1953 1.363 . S
C1956 N1954 1.356 . S
C1957 C1951 1.363 . S
C1957 C1952 1.379 . S
C1957 N1955 1.356 . S
N1958 C1950 1.356 . S
N1958 H1964 0.984 . S
N1958 H1965 0.984 . S
N1959 C1952 1.356 . S
N1959 H1962 0.984 . S
N1959 H1963 0.985 . S
H1960 N1955 0.984 . S
H1961 N1955 0.985 . S
H1962 N1959 0.984 . S
H1963 N1959 0.985 . S
H1964 N1958 0.984 . S
H1965 N1958 0.984 . S
H1966 N1954 0.984 . S
H1967 N1954 0.985 . S
C1968 C1969 1.363 . S
C1968 C1974 1.379 . S
C1968 N1976 1.356 . S
C1969 C1968 1.363 . S
C1969 C1975 1.363 . S
C1970 C1971 1.363 . S
C1970 C1975 1.379 . S
C1970 N1977 1.356 . S
C1971 C1970 1.363 . S
C1971 C1974 1.363 . S
N1972 C1974 1.356 . S
N1972 H1984 0.984 . S
N1972 H1985 0.985 . S
N1973 C1975 1.356 . S
N1973 H1978 0.984 . S
N1973 H1979 0.985 . S
C1974 C1968 1.379 . S
C1974 C1971 1.363 . S
C1974 N1972 1.356 . S
C1975 C1969 1.363 . S
C1975 C1970 1.379 . S
C1975 N1973 1.356 . S
N1976 C1968 1.356 . S
N1976 H1982 0.984 . S
N1976 H1983 0.984 . S
N1977 C1970 1.356 . S
N1977 H1980 0.984 . S
N1977 H1981 0.985 . S
H1978 N1973 0.984 . S
H1979 N1973 0.985 . S
H1980 N1977 0.984 . S
H1981 N1977 0.985 . S
H1982 N1976 0.984 . S
H1983 N1976 0.984 . S
H1984 N1972 0.984 . S
H1985 N1972 0.985 . S
C1986 C1987 1.363 . S
C1986 C1992 1.379 . S
C1986 N1994 1.356 . S
C1987 C1986 1.363 . S
C1987 C1993 1.363 . S
C1988 C1989 1.363 . S
C1988 C1993 1.379 . S
C1988 N1995 1.356 . S
C1989 C1988 1.363 . S
C1989 C1992 1.363 . S
N1990 C1992 1.356 . S
N1990 H2002 0.984 . S
N1990 H2003 0.985 . S
N1991 C1993 1.356 . S
N1991 H1996 0.984 . S
N1991 H1997 0.985 . S
C1992 C1986 1.379 . S
C1992 C1989 1.363 . S
C1992 N1990 1.356 . S
C1993 C1987 1.363 . S
C1993 C1988 1.379 . S
C1993 N1991 1.356 . S
N1994 C1986 1.356 . S
N1994 H2000 0.984 . S
N1994 H2001 0.984 . S
N1995 C1988 1.356 . S
N1995 H1998 0.984 . S
N1995 H1999 0.985 . S
H1996 N1991 0.984 . S
H1997 N1991 0.985 . S
H1998 N1995 0.984 . S
H1999 N1995 0.985 . S
H2000 N1994 0.984 . S
H2001 N1994 0.984 . S
H2002 N1990 0.984 . S
H2003 N1990 0.985 . S
C2004 C2005 1.363 . S
C2004 C2010 1.379 . S
C2004 N2012 1.356 . S
C2005 C2004 1.363 . S
C2005 C2011 1.363 . S
C2006 C2007 1.363 . S
C2006 C2011 1.379 . S
C2006 N2013 1.356 . S
C2007 C2006 1.363 . S
C2007 C2010 1.363 . S
N2008 C2010 1.356 . S
N2008 H2020 0.984 . S
N2008 H2021 0.985 . S
N2009 C2011 1.356 . S
N2009 H2014 0.984 . S
N2009 H2015 0.985 . S
C2010 C2004 1.379 . S
C2010 C2007 1.363 . S
C2010 N2008 1.356 . S
C2011 C2005 1.363 . S
C2011 C2006 1.379 . S
C2011 N2009 1.356 . S
N2012 C2004 1.356 . S
N2012 H2018 0.984 . S
N2012 H2019 0.984 . S
N2013 C2006 1.356 . S
N2013 H2016 0.984 . S
N2013 H2017 0.985 . S
H2014 N2009 0.984 . S
H2015 N2009 0.985 . S
H2016 N2013 0.984 . S
H2017 N2013 0.985 . S
H2018 N2012 0.984 . S
H2019 N2012 0.984 . S
H2020 N2008 0.984 . S
H2021 N2008 0.985 . S
C2022 C2023 1.363 . S
C2022 C2028 1.379 . S
C2022 N2030 1.356 . S
C2023 C2022 1.363 . S
C2023 C2029 1.363 . S
C2024 C2025 1.363 . S
C2024 C2029 1.379 . S
C2024 N2031 1.356 . S
C2025 C2024 1.363 . S
C2025 C2028 1.363 . S
N2026 C2028 1.356 . S
N2026 H2038 0.984 . S
N2026 H2039 0.985 . S
N2027 C2029 1.356 . S
N2027 H2032 0.984 . S
N2027 H2033 0.985 . S
C2028 C2022 1.379 . S
C2028 C2025 1.363 . S
C2028 N2026 1.356 . S
C2029 C2023 1.363 . S
C2029 C2024 1.379 . S
C2029 N2027 1.356 . S
N2030 C2022 1.356 . S
N2030 H2036 0.984 . S
N2030 H2037 0.984 . S
N2031 C2024 1.356 . S
N2031 H2034 0.984 . S
N2031 H2035 0.985 . S
H2032 N2027 0.984 . S
H2033 N2027 0.985 . S
H2034 N2031 0.984 . S
H2035 N2031 0.985 . S
H2036 N2030 0.984 . S
H2037 N2030 0.984 . S
H2038 N2026 0.984 . S
H2039 N2026 0.985 . S
C2040 C2041 1.363 . S
C2040 C2046 1.379 . S
C2040 N2048 1.356 . S
C2041 C2040 1.363 . S
C2041 C2047 1.363 . S
C2042 C2043 1.363 . S
C2042 C2047 1.379 . S
C2042 N2049 1.356 . S
C2043 C2042 1.363 . S
C2043 C2046 1.363 . S
N2044 C2046 1.356 . S
N2044 H2056 0.984 . S
N2044 H2057 0.985 . S
N2045 C2047 1.356 . S
N2045 H2050 0.984 . S
N2045 H2051 0.985 . S
C2046 C2040 1.379 . S
C2046 C2043 1.363 . S
C2046 N2044 1.356 . S
C2047 C2041 1.363 . S
C2047 C2042 1.379 . S
C2047 N2045 1.356 . S
N2048 C2040 1.356 . S
N2048 H2054 0.984 . S
N2048 H2055 0.984 . S
N2049 C2042 1.356 . S
N2049 H2052 0.984 . S
N2049 H2053 0.985 . S
H2050 N2045 0.984 . S
H2051 N2045 0.985 . S
H2052 N2049 0.984 . S
H2053 N2049 0.985 . S
H2054 N2048 0.984 . S
H2055 N2048 0.984 . S
H2056 N2044 0.984 . S
H2057 N2044 0.985 . S
C2058 C2059 1.363 . S
C2058 C2064 1.379 . S
C2058 N2066 1.356 . S
C2059 C2058 1.363 . S
C2059 C2065 1.363 . S
C2060 C2061 1.363 . S
C2060 C2065 1.379 . S
C2060 N2067 1.356 . S
C2061 C2060 1.363 . S
C2061 C2064 1.363 . S
N2062 C2064 1.356 . S
N2062 H2074 0.984 . S
N2062 H2075 0.985 . S
N2063 C2065 1.356 . S
N2063 H2068 0.984 . S
N2063 H2069 0.985 . S
C2064 C2058 1.379 . S
C2064 C2061 1.363 . S
C2064 N2062 1.356 . S
C2065 C2059 1.363 . S
C2065 C2060 1.379 . S
C2065 N2063 1.356 . S
N2066 C2058 1.356 . S
N2066 H2072 0.984 . S
N2066 H2073 0.984 . S
N2067 C2060 1.356 . S
N2067 H2070 0.984 . S
N2067 H2071 0.985 . S
H2068 N2063 0.984 . S
H2069 N2063 0.985 . S
H2070 N2067 0.984 . S
H2071 N2067 0.985 . S
H2072 N2066 0.984 . S
H2073 N2066 0.984 . S
H2074 N2062 0.984 . S
H2075 N2062 0.985 . S
C2076 C2077 1.363 . S
C2076 C2082 1.379 . S
C2076 N2084 1.356 . S
C2077 C2076 1.363 . S
C2077 C2083 1.363 . S
C2078 C2079 1.363 . S
C2078 C2083 1.379 . S
C2078 N2085 1.356 . S
C2079 C2078 1.363 . S
C2079 C2082 1.363 . S
N2080 C2082 1.356 . S
N2080 H2092 0.984 . S
N2080 H2093 0.985 . S
N2081 C2083 1.356 . S
N2081 H2086 0.984 . S
N2081 H2087 0.985 . S
C2082 C2076 1.379 . S
C2082 C2079 1.363 . S
C2082 N2080 1.356 . S
C2083 C2077 1.363 . S
C2083 C2078 1.379 . S
C2083 N2081 1.356 . S
N2084 C2076 1.356 . S
N2084 H2090 0.984 . S
N2084 H2091 0.984 . S
N2085 C2078 1.356 . S
N2085 H2088 0.984 . S
N2085 H2089 0.985 . S
H2086 N2081 0.984 . S
H2087 N2081 0.985 . S
H2088 N2085 0.984 . S
H2089 N2085 0.985 . S
H2090 N2084 0.984 . S
H2091 N2084 0.984 . S
H2092 N2080 0.984 . S
H2093 N2080 0.985 . S
C2094 C2095 1.363 . S
C2094 C2100 1.379 . S
C2094 N2102 1.356 . S
C2095 C2094 1.363 . S
C2095 C2101 1.363 . S
C2096 C2097 1.363 . S
C2096 C2101 1.379 . S
C2096 N2103 1.356 . S
C2097 C2096 1.363 . S
C2097 C2100 1.363 . S
N2098 C2100 1.356 . S
N2098 H2110 0.984 . S
N2098 H2111 0.985 . S
N2099 C2101 1.356 . S
N2099 H2104 0.984 . S
N2099 H2105 0.985 . S
C2100 C2094 1.379 . S
C2100 C2097 1.363 . S
C2100 N2098 1.356 . S
C2101 C2095 1.363 . S
C2101 C2096 1.379 . S
C2101 N2099 1.356 . S
N2102 C2094 1.356 . S
N2102 H2108 0.984 . S
N2102 H2109 0.984 . S
N2103 C2096 1.356 . S
N2103 H2106 0.984 . S
N2103 H2107 0.985 . S
H2104 N2099 0.984 . S
H2105 N2099 0.985 . S
H2106 N2103 0.984 . S
H2107 N2103 0.985 . S
H2108 N2102 0.984 . S
H2109 N2102 0.984 . S
H2110 N2098 0.984 . S
H2111 N2098 0.985 . S
C2112 C2113 1.363 . S
C2112 C2118 1.379 . S
C2112 N2120 1.356 . S
C2113 C2112 1.363 . S
C2113 C2119 1.363 . S
C2114 C2115 1.363 . S
C2114 C2119 1.379 . S
C2114 N2121 1.356 . S
C2115 C2114 1.363 . S
C2115 C2118 1.363 . S
N2116 C2118 1.356 . S
N2116 H2128 0.984 . S
N2116 H2129 0.985 . S
N2117 C2119 1.356 . S
N2117 H2122 0.984 . S
N2117 H2123 0.985 . S
C2118 C2112 1.379 . S
C2118 C2115 1.363 . S
C2118 N2116 1.356 . S
C2119 C2113 1.363 . S
C2119 C2114 1.379 . S
C2119 N2117 1.356 . S
N2120 C2112 1.356 . S
N2120 H2126 0.984 . S
N2120 H2127 0.984 . S
N2121 C2114 1.356 . S
N2121 H2124 0.984 . S
N2121 H2125 0.985 . S
H2122 N2117 0.984 . S
H2123 N2117 0.985 . S
H2124 N2121 0.984 . S
H2125 N2121 0.985 . S
H2126 N2120 0.984 . S
H2127 N2120 0.984 . S
H2128 N2116 0.984 . S
H2129 N2116 0.985 . S
C2130 C2131 1.363 . S
C2130 C2136 1.379 . S
C2130 N2138 1.356 . S
C2131 C2130 1.363 . S
C2131 C2137 1.363 . S
C2132 C2133 1.363 . S
C2132 C2137 1.379 . S
C2132 N2139 1.356 . S
C2133 C2132 1.363 . S
C2133 C2136 1.363 . S
N2134 C2136 1.356 . S
N2134 H2146 0.984 . S
N2134 H2147 0.985 . S
N2135 C2137 1.356 . S
N2135 H2140 0.984 . S
N2135 H2141 0.985 . S
C2136 C2130 1.379 . S
C2136 C2133 1.363 . S
C2136 N2134 1.356 . S
C2137 C2131 1.363 . S
C2137 C2132 1.379 . S
C2137 N2135 1.356 . S
N2138 C2130 1.356 . S
N2138 H2144 0.984 . S
N2138 H2145 0.984 . S
N2139 C2132 1.356 . S
N2139 H2142 0.984 . S
N2139 H2143 0.985 . S
H2140 N2135 0.984 . S
H2141 N2135 0.985 . S
H2142 N2139 0.984 . S
H2143 N2139 0.985 . S
H2144 N2138 0.984 . S
H2145 N2138 0.984 . S
H2146 N2134 0.984 . S
H2147 N2134 0.985 . S
C2148 C2149 1.363 . S
C2148 C2154 1.379 . S
C2148 N2156 1.356 . S
C2149 C2148 1.363 . S
C2149 C2155 1.363 . S
C2150 C2151 1.363 . S
C2150 C2155 1.379 . S
C2150 N2157 1.356 . S
C2151 C2150 1.363 . S
C2151 C2154 1.363 . S
N2152 C2154 1.356 . S
N2152 H2164 0.984 . S
N2152 H2165 0.985 . S
N2153 C2155 1.356 . S
N2153 H2158 0.984 . S
N2153 H2159 0.985 . S
C2154 C2148 1.379 . S
C2154 C2151 1.363 . S
C2154 N2152 1.356 . S
C2155 C2149 1.363 . S
C2155 C2150 1.379 . S
C2155 N2153 1.356 . S
N2156 C2148 1.356 . S
N2156 H2162 0.984 . S
N2156 H2163 0.984 . S
N2157 C2150 1.356 . S
N2157 H2160 0.984 . S
N2157 H2161 0.985 . S
H2158 N2153 0.984 . S
H2159 N2153 0.985 . S
H2160 N2157 0.984 . S
H2161 N2157 0.985 . S
H2162 N2156 0.984 . S
H2163 N2156 0.984 . S
H2164 N2152 0.984 . S
H2165 N2152 0.985 . S
C2166 C2167 1.363 . S
C2166 C2172 1.379 . S
C2166 N2174 1.356 . S
C2167 C2166 1.363 . S
C2167 C2173 1.363 . S
C2168 C2169 1.363 . S
C2168 C2173 1.379 . S
C2168 N2175 1.356 . S
C2169 C2168 1.363 . S
C2169 C2172 1.363 . S
N2170 C2172 1.356 . S
N2170 H2182 0.984 . S
N2170 H2183 0.985 . S
N2171 C2173 1.356 . S
N2171 H2176 0.984 . S
N2171 H2177 0.985 . S
C2172 C2166 1.379 . S
C2172 C2169 1.363 . S
C2172 N2170 1.356 . S
C2173 C2167 1.363 . S
C2173 C2168 1.379 . S
C2173 N2171 1.356 . S
N2174 C2166 1.356 . S
N2174 H2180 0.984 . S
N2174 H2181 0.984 . S
N2175 C2168 1.356 . S
N2175 H2178 0.984 . S
N2175 H2179 0.985 . S
H2176 N2171 0.984 . S
H2177 N2171 0.985 . S
H2178 N2175 0.984 . S
H2179 N2175 0.985 . S
H2180 N2174 0.984 . S
H2181 N2174 0.984 . S
H2182 N2170 0.984 . S
H2183 N2170 0.985 . S
C2184 C2185 1.363 . S
C2184 C2190 1.379 . S
C2184 N2192 1.356 . S
C2185 C2184 1.363 . S
C2185 C2191 1.363 . S
C2186 C2187 1.363 . S
C2186 C2191 1.379 . S
C2186 N2193 1.356 . S
C2187 C2186 1.363 . S
C2187 C2190 1.363 . S
N2188 C2190 1.356 . S
N2188 H2200 0.984 . S
N2188 H2201 0.985 . S
N2189 C2191 1.356 . S
N2189 H2194 0.984 . S
N2189 H2195 0.985 . S
C2190 C2184 1.379 . S
C2190 C2187 1.363 . S
C2190 N2188 1.356 . S
C2191 C2185 1.363 . S
C2191 C2186 1.379 . S
C2191 N2189 1.356 . S
N2192 C2184 1.356 . S
N2192 H2198 0.984 . S
N2192 H2199 0.984 . S
N2193 C2186 1.356 . S
N2193 H2196 0.984 . S
N2193 H2197 0.985 . S
H2194 N2189 0.984 . S
H2195 N2189 0.985 . S
H2196 N2193 0.984 . S
H2197 N2193 0.985 . S
H2198 N2192 0.984 . S
H2199 N2192 0.984 . S
H2200 N2188 0.984 . S
H2201 N2188 0.985 . S
C2202 C2203 1.363 . S
C2202 C2208 1.379 . S
C2202 N2210 1.356 . S
C2203 C2202 1.363 . S
C2203 C2209 1.363 . S
C2204 C2205 1.363 . S
C2204 C2209 1.379 . S
C2204 N2211 1.356 . S
C2205 C2204 1.363 . S
C2205 C2208 1.363 . S
N2206 C2208 1.356 . S
N2206 H2218 0.984 . S
N2206 H2219 0.985 . S
N2207 C2209 1.356 . S
N2207 H2212 0.984 . S
N2207 H2213 0.985 . S
C2208 C2202 1.379 . S
C2208 C2205 1.363 . S
C2208 N2206 1.356 . S
C2209 C2203 1.363 . S
C2209 C2204 1.379 . S
C2209 N2207 1.356 . S
N2210 C2202 1.356 . S
N2210 H2216 0.984 . S
N2210 H2217 0.984 . S
N2211 C2204 1.356 . S
N2211 H2214 0.984 . S
N2211 H2215 0.985 . S
H2212 N2207 0.984 . S
H2213 N2207 0.985 . S
H2214 N2211 0.984 . S
H2215 N2211 0.985 . S
H2216 N2210 0.984 . S
H2217 N2210 0.984 . S
H2218 N2206 0.984 . S
H2219 N2206 0.985 . S
C2220 C2221 1.363 . S
C2220 C2226 1.379 . S
C2220 N2228 1.356 . S
C2221 C2220 1.363 . S
C2221 C2227 1.363 . S
C2222 C2223 1.363 . S
C2222 C2227 1.379 . S
C2222 N2229 1.356 . S
C2223 C2222 1.363 . S
C2223 C2226 1.363 . S
N2224 C2226 1.356 . S
N2224 H2236 0.984 . S
N2224 H2237 0.985 . S
N2225 C2227 1.356 . S
N2225 H2230 0.984 . S
N2225 H2231 0.985 . S
C2226 C2220 1.379 . S
C2226 C2223 1.363 . S
C2226 N2224 1.356 . S
C2227 C2221 1.363 . S
C2227 C2222 1.379 . S
C2227 N2225 1.356 . S
N2228 C2220 1.356 . S
N2228 H2234 0.984 . S
N2228 H2235 0.984 . S
N2229 C2222 1.356 . S
N2229 H2232 0.984 . S
N2229 H2233 0.985 . S
H2230 N2225 0.984 . S
H2231 N2225 0.985 . S
H2232 N2229 0.984 . S
H2233 N2229 0.985 . S
H2234 N2228 0.984 . S
H2235 N2228 0.984 . S
H2236 N2224 0.984 . S
H2237 N2224 0.985 . S
C2238 C2239 1.363 . S
C2238 C2244 1.379 . S
C2238 N2246 1.356 . S
C2239 C2238 1.363 . S
C2239 C2245 1.363 . S
C2240 C2241 1.363 . S
C2240 C2245 1.379 . S
C2240 N2247 1.356 . S
C2241 C2240 1.363 . S
C2241 C2244 1.363 . S
N2242 C2244 1.356 . S
N2242 H2254 0.984 . S
N2242 H2255 0.985 . S
N2243 C2245 1.356 . S
N2243 H2248 0.984 . S
N2243 H2249 0.985 . S
C2244 C2238 1.379 . S
C2244 C2241 1.363 . S
C2244 N2242 1.356 . S
C2245 C2239 1.363 . S
C2245 C2240 1.379 . S
C2245 N2243 1.356 . S
N2246 C2238 1.356 . S
N2246 H2252 0.984 . S
N2246 H2253 0.984 . S
N2247 C2240 1.356 . S
N2247 H2250 0.984 . S
N2247 H2251 0.985 . S
H2248 N2243 0.984 . S
H2249 N2243 0.985 . S
H2250 N2247 0.984 . S
H2251 N2247 0.985 . S
H2252 N2246 0.984 . S
H2253 N2246 0.984 . S
H2254 N2242 0.984 . S
H2255 N2242 0.985 . S
C2256 C2257 1.363 . S
C2256 C2262 1.379 . S
C2256 N2264 1.356 . S
C2257 C2256 1.363 . S
C2257 C2263 1.363 . S
C2258 C2259 1.363 . S
C2258 C2263 1.379 . S
C2258 N2265 1.356 . S
C2259 C2258 1.363 . S
C2259 C2262 1.363 . S
N2260 C2262 1.356 . S
N2260 H2272 0.984 . S
N2260 H2273 0.985 . S
N2261 C2263 1.356 . S
N2261 H2266 0.984 . S
N2261 H2267 0.985 . S
C2262 C2256 1.379 . S
C2262 C2259 1.363 . S
C2262 N2260 1.356 . S
C2263 C2257 1.363 . S
C2263 C2258 1.379 . S
C2263 N2261 1.356 . S
N2264 C2256 1.356 . S
N2264 H2270 0.984 . S
N2264 H2271 0.984 . S
N2265 C2258 1.356 . S
N2265 H2268 0.984 . S
N2265 H2269 0.985 . S
H2266 N2261 0.984 . S
H2267 N2261 0.985 . S
H2268 N2265 0.984 . S
H2269 N2265 0.985 . S
H2270 N2264 0.984 . S
H2271 N2264 0.984 . S
H2272 N2260 0.984 . S
H2273 N2260 0.985 . S
C2274 C2275 1.363 . S
C2274 C2280 1.379 . S
C2274 N2282 1.356 . S
C2275 C2274 1.363 . S
C2275 C2281 1.363 . S
C2276 C2277 1.363 . S
C2276 C2281 1.379 . S
C2276 N2283 1.356 . S
C2277 C2276 1.363 . S
C2277 C2280 1.363 . S
N2278 C2280 1.356 . S
N2278 H2290 0.984 . S
N2278 H2291 0.985 . S
N2279 C2281 1.356 . S
N2279 H2284 0.984 . S
N2279 H2285 0.985 . S
C2280 C2274 1.379 . S
C2280 C2277 1.363 . S
C2280 N2278 1.356 . S
C2281 C2275 1.363 . S
C2281 C2276 1.379 . S
C2281 N2279 1.356 . S
N2282 C2274 1.356 . S
N2282 H2288 0.984 . S
N2282 H2289 0.984 . S
N2283 C2276 1.356 . S
N2283 H2286 0.984 . S
N2283 H2287 0.985 . S
H2284 N2279 0.984 . S
H2285 N2279 0.985 . S
H2286 N2283 0.984 . S
H2287 N2283 0.985 . S
H2288 N2282 0.984 . S
H2289 N2282 0.984 . S
H2290 N2278 0.984 . S
H2291 N2278 0.985 . S
C2292 C2293 1.363 . S
C2292 C2298 1.379 . S
C2292 N2300 1.356 . S
C2293 C2292 1.363 . S
C2293 C2299 1.363 . S
C2294 C2295 1.363 . S
C2294 C2299 1.379 . S
C2294 N2301 1.356 . S
C2295 C2294 1.363 . S
C2295 C2298 1.363 . S
N2296 C2298 1.356 . S
N2296 H2308 0.984 . S
N2296 H2309 0.985 . S
N2297 C2299 1.356 . S
N2297 H2302 0.984 . S
N2297 H2303 0.985 . S
C2298 C2292 1.379 . S
C2298 C2295 1.363 . S
C2298 N2296 1.356 . S
C2299 C2293 1.363 . S
C2299 C2294 1.379 . S
C2299 N2297 1.356 . S
N2300 C2292 1.356 . S
N2300 H2306 0.984 . S
N2300 H2307 0.984 . S
N2301 C2294 1.356 . S
N2301 H2304 0.984 . S
N2301 H2305 0.985 . S
H2302 N2297 0.984 . S
H2303 N2297 0.985 . S
H2304 N2301 0.984 . S
H2305 N2301 0.985 . S
H2306 N2300 0.984 . S
H2307 N2300 0.984 . S
H2308 N2296 0.984 . S
H2309 N2296 0.985 . S
C2310 C2311 1.363 . S
C2310 C2316 1.379 . S
C2310 N2318 1.356 . S
C2311 C2310 1.363 . S
C2311 C2317 1.363 . S
C2312 C2313 1.363 . S
C2312 C2317 1.379 . S
C2312 N2319 1.356 . S
C2313 C2312 1.363 . S
C2313 C2316 1.363 . S
N2314 C2316 1.356 . S
N2314 H2326 0.984 . S
N2314 H2327 0.985 . S
N2315 C2317 1.356 . S
N2315 H2320 0.984 . S
N2315 H2321 0.985 . S
C2316 C2310 1.379 . S
C2316 C2313 1.363 . S
C2316 N2314 1.356 . S
C2317 C2311 1.363 . S
C2317 C2312 1.379 . S
C2317 N2315 1.356 . S
N2318 C2310 1.356 . S
N2318 H2324 0.984 . S
N2318 H2325 0.984 . S
N2319 C2312 1.356 . S
N2319 H2322 0.984 . S
N2319 H2323 0.985 . S
H2320 N2315 0.984 . S
H2321 N2315 0.985 . S
H2322 N2319 0.984 . S
H2323 N2319 0.985 . S
H2324 N2318 0.984 . S
H2325 N2318 0.984 . S
H2326 N2314 0.984 . S
H2327 N2314 0.985 . S
C2328 C2329 1.363 . S
C2328 C2334 1.379 . S
C2328 N2336 1.356 . S
C2329 C2328 1.363 . S
C2329 C2335 1.363 . S
C2330 C2331 1.363 . S
C2330 C2335 1.379 . S
C2330 N2337 1.356 . S
C2331 C2330 1.363 . S
C2331 C2334 1.363 . S
N2332 C2334 1.356 . S
N2332 H2344 0.984 . S
N2332 H2345 0.985 . S
N2333 C2335 1.356 . S
N2333 H2338 0.984 . S
N2333 H2339 0.985 . S
C2334 C2328 1.379 . S
C2334 C2331 1.363 . S
C2334 N2332 1.356 . S
C2335 C2329 1.363 . S
C2335 C2330 1.379 . S
C2335 N2333 1.356 . S
N2336 C2328 1.356 . S
N2336 H2342 0.984 . S
N2336 H2343 0.984 . S
N2337 C2330 1.356 . S
N2337 H2340 0.984 . S
N2337 H2341 0.985 . S
H2338 N2333 0.984 . S
H2339 N2333 0.985 . S
H2340 N2337 0.984 . S
H2341 N2337 0.985 . S
H2342 N2336 0.984 . S
H2343 N2336 0.984 . S
H2344 N2332 0.984 . S
H2345 N2332 0.985 . S
C2346 C2347 1.363 . S
C2346 C2352 1.379 . S
C2346 N2354 1.356 . S
C2347 C2346 1.363 . S
C2347 C2353 1.363 . S
C2348 C2349 1.363 . S
C2348 C2353 1.379 . S
C2348 N2355 1.356 . S
C2349 C2348 1.363 . S
C2349 C2352 1.363 . S
N2350 C2352 1.356 . S
N2350 H2362 0.984 . S
N2350 H2363 0.985 . S
N2351 C2353 1.356 . S
N2351 H2356 0.984 . S
N2351 H2357 0.985 . S
C2352 C2346 1.379 . S
C2352 C2349 1.363 . S
C2352 N2350 1.356 . S
C2353 C2347 1.363 . S
C2353 C2348 1.379 . S
C2353 N2351 1.356 . S
N2354 C2346 1.356 . S
N2354 H2360 0.984 . S
N2354 H2361 0.984 . S
N2355 C2348 1.356 . S
N2355 H2358 0.984 . S
N2355 H2359 0.985 . S
H2356 N2351 0.984 . S
H2357 N2351 0.985 . S
H2358 N2355 0.984 . S
H2359 N2355 0.985 . S
H2360 N2354 0.984 . S
H2361 N2354 0.984 . S
H2362 N2350 0.984 . S
H2363 N2350 0.985 . S
C2364 C2365 1.363 . S
C2364 C2370 1.379 . S
C2364 N2372 1.356 . S
C2365 C2364 1.363 . S
C2365 C2371 1.363 . S
C2366 C2367 1.363 . S
C2366 C2371 1.379 . S
C2366 N2373 1.356 . S
C2367 C2366 1.363 . S
C2367 C2370 1.363 . S
N2368 C2370 1.356 . S
N2368 H2380 0.984 . S
N2368 H2381 0.985 . S
N2369 C2371 1.356 . S
N2369 H2374 0.984 . S
N2369 H2375 0.985 . S
C2370 C2364 1.379 . S
C2370 C2367 1.363 . S
C2370 N2368 1.356 . S
C2371 C2365 1.363 . S
C2371 C2366 1.379 . S
C2371 N2369 1.356 . S
N2372 C2364 1.356 . S
N2372 H2378 0.984 . S
N2372 H2379 0.984 . S
N2373 C2366 1.356 . S
N2373 H2376 0.984 . S
N2373 H2377 0.985 . S
H2374 N2369 0.984 . S
H2375 N2369 0.985 . S
H2376 N2373 0.984 . S
H2377 N2373 0.985 . S
H2378 N2372 0.984 . S
H2379 N2372 0.984 . S
H2380 N2368 0.984 . S
H2381 N2368 0.985 . S
C2382 C2383 1.363 . S
C2382 C2388 1.379 . S
C2382 N2390 1.356 . S
C2383 C2382 1.363 . S
C2383 C2389 1.363 . S
C2384 C2385 1.363 . S
C2384 C2389 1.379 . S
C2384 N2391 1.356 . S
C2385 C2384 1.363 . S
C2385 C2388 1.363 . S
N2386 C2388 1.356 . S
N2386 H2398 0.984 . S
N2386 H2399 0.985 . S
N2387 C2389 1.356 . S
N2387 H2392 0.984 . S
N2387 H2393 0.985 . S
C2388 C2382 1.379 . S
C2388 C2385 1.363 . S
C2388 N2386 1.356 . S
C2389 C2383 1.363 . S
C2389 C2384 1.379 . S
C2389 N2387 1.356 . S
N2390 C2382 1.356 . S
N2390 H2396 0.984 . S
N2390 H2397 0.984 . S
N2391 C2384 1.356 . S
N2391 H2394 0.984 . S
N2391 H2395 0.985 . S
H2392 N2387 0.984 . S
H2393 N2387 0.985 . S
H2394 N2391 0.984 . S
H2395 N2391 0.985 . S
H2396 N2390 0.984 . S
H2397 N2390 0.984 . S
H2398 N2386 0.984 . S
H2399 N2386 0.985 . S
C673 C398 1.200 . S
C675 C6 1.200 . S
C691 C20 1.200 . S
C693 C412 1.200 . S
C709 C426 1.200 . S
C711 C34 1.200 . S
C727 C48 1.200 . S
C729 C440 1.200 . S
C745 C342 1.200 . S
C747 C62 1.200 . S
C763 C76 1.200 . S
C765 C356 1.200 . S
C781 C370 1.200 . S
C783 C90 1.200 . S
C799 C104 1.200 . S
C801 C384 1.200 . S
C817 C538 1.200 . S
C819 C118 1.200 . S
C835 C552 1.200 . S
C837 C132 1.200 . S
C853 C510 1.200 . S
C855 C146 1.200 . S
C871 C160 1.200 . S
C873 C524 1.200 . S
C889 C482 1.200 . S
C891 C174 1.200 . S
C907 C496 1.200 . S
C909 C188 1.200 . S
C925 C202 1.200 . S
C927 C454 1.200 . S
C943 C468 1.200 . S
C945 C216 1.200 . S
C961 C230 1.200 . S
C963 C636 1.200 . S
C979 C608 1.200 . S
C981 C244 1.200 . S
C997 C622 1.200 . S
C999 C258 1.200 . S
C1015 C580 1.200 . S
C1017 C272 1.200 . S
C1033 C594 1.200 . S
C1035 C286 1.200 . S
C1051 C300 1.200 . S
C1053 C566 1.200 . S
C1069 C314 1.200 . S
C1071 C664 1.200 . S
C1087 C650 1.200 . S
C1089 C328 1.200 . S
C1105 C105 1.646 . S
C1107 C7 1.646 . S
C1123 C63 1.646 . S
C1125 C21 1.646 . S
C1141 C77 1.646 . S
C1143 C35 1.646 . S
C1159 C91 1.646 . S
C1161 C49 1.646 . S
C1177 C287 1.646 . S
C1179 C119 1.646 . S
C1195 C245 1.646 . S
C1197 C133 1.646 . S
C1213 C259 1.646 . S
C1215 C147 1.646 . S
C1231 C273 1.646 . S
C1233 C161 1.646 . S
C1249 C329 1.646 . S
C1251 C175 1.646 . S
C1267 C301 1.646 . S
C1269 C189 1.646 . S
C1285 C203 1.646 . S
C1287 C315 1.646 . S
C1303 C231 1.646 . S
C1305 C217 1.646 . S
C1321 C441 1.646 . S
C1323 C343 1.646 . S
C1339 C399 1.646 . S
C1341 C357 1.646 . S
C1357 C371 1.646 . S
C1359 C413 1.646 . S
C1375 C385 1.646 . S
C1377 C427 1.646 . S
C1393 C455 1.646 . S
C1395 C623 1.646 . S
C1411 C469 1.646 . S
C1413 C581 1.646 . S
C1429 C595 1.646 . S
C1431 C483 1.646 . S
C1447 C609 1.646 . S
C1449 C497 1.646 . S
C1465 C665 1.646 . S
C1467 C511 1.646 . S
C1483 C637 1.646 . S
C1485 C525 1.646 . S
C1501 C651 1.646 . S
C1503 C539 1.646 . S
C1519 C553 1.646 . S
C1521 C567 1.646 . S
C1537 C8 1.440 . S
C1539 C121 1.404 . S
C1555 C135 1.404 . S
C1557 C22 1.440 . S
C1573 C149 1.404 . S
C1575 C36 1.440 . S
C1591 C163 1.404 . S
C1593 C50 1.440 . S
C1609 C64 1.440 . S
C1611 C177 1.404 . S
C1627 C191 1.404 . S
C1629 C78 1.440 . S
C1645 C92 1.440 . S
C1647 C205 1.404 . S
C1663 C219 1.404 . S
C1665 C106 1.440 . S
C1681 C233 1.404 . S
C1683 C120 1.440 . S
C1699 C331 1.404 . S
C1701 C134 1.440 . S
C1717 C148 1.440 . S
C1719 C303 1.404 . S
C1735 C162 1.440 . S
C1737 C317 1.404 . S
C1753 C176 1.440 . S
C1755 C247 1.404 . S
C1771 C190 1.440 . S
C1773 C261 1.404 . S
C1789 C204 1.440 . S
C1791 C275 1.404 . S
C1807 C218 1.440 . S
C1809 C289 1.404 . S
C1825 C232 1.440 . S
C1827 C9 1.404 . S
C1843 C246 1.440 . S
C1845 C65 1.404 . S
C1861 C260 1.440 . S
C1863 C79 1.404 . S
C1879 C274 1.440 . S
C1881 C93 1.404 . S
C1897 C288 1.440 . S
C1899 C107 1.404 . S
C1915 C302 1.440 . S
C1917 C37 1.404 . S
C1933 C51 1.404 . S
C1935 C316 1.440 . S
C1951 C23 1.404 . S
C1953 C330 1.440 . S
C1969 C457 1.404 . S
C1971 C344 1.440 . S
C1987 C471 1.404 . S
C1989 C358 1.440 . S
C2005 C485 1.404 . S
C2007 C372 1.440 . S
C2023 C499 1.404 . S
C2025 C386 1.440 . S
C2041 C513 1.404 . S
C2043 C400 1.440 . S
C2059 C414 1.440 . S
C2061 C527 1.404 . S
C2077 C541 1.404 . S
C2079 C428 1.440 . S
C2095 C442 1.440 . S
C2097 C555 1.404 . S
C2113 C569 1.404 . S
C2115 C456 1.440 . S
C2131 C470 1.440 . S
C2133 C667 1.404 . S
C2149 C484 1.440 . S
C2151 C639 1.404 . S
C2167 C653 1.404 . S
C2169 C498 1.440 . S
C2185 C583 1.404 . S
C2187 C512 1.440 . S
C2203 C526 1.440 . S
C2205 C597 1.404 . S
C2221 C540 1.440 . S
C2223 C611 1.404 . S
C2239 C625 1.404 . S
C2241 C554 1.440 . S
C2257 C345 1.404 . S
C2259 C568 1.440 . S
C2275 C401 1.404 . S
C2277 C582 1.440 . S
C2293 C415 1.404 . S
C2295 C596 1.440 . S
C2311 C610 1.440 . S
C2313 C429 1.404 . S
C2329 C443 1.404 . S
C2331 C624 1.440 . S
C2347 C373 1.404 . S
C2349 C638 1.440 . S
C2365 C652 1.440 . S
C2367 C387 1.404 . S
C2383 C359 1.404 . S
C2385 C666 1.440 . S
