# Generated by pormake.
# Topology uns, (4)-cn, num edge types: 1
# Building blocks:
#     Node 0, Type 0, BuildingBlock: QUQFOY_clean_sbu_1, # of connection points: 4
#     Node 1, Type 0, BuildingBlock: QUQFOY_clean_sbu_1, # of connection points: 4
#     Node 2, Type 0, BuildingBlock: QUQFOY_clean_sbu_1, # of connection points: 4
#     Node 3, Type 0, BuildingBlock: QUQFOY_clean_sbu_1, # of connection points: 4
#     Node 4, Type 0, BuildingBlock: QUQFOY_clean_sbu_1, # of connection points: 4
#     Node 5, Type 0, BuildingBlock: QUQFOY_clean_sbu_1, # of connection points: 4
#     Node 6, Type 0, BuildingBlock: QUQFOY_clean_sbu_1, # of connection points: 4
#     Node 7, Type 0, BuildingBlock: QUQFOY_clean_sbu_1, # of connection points: 4
#     Node 8, Type 0, BuildingBlock: QUQFOY_clean_sbu_1, # of connection points: 4
#     Node 9, Type 0, BuildingBlock: QUQFOY_clean_sbu_1, # of connection points: 4
#     Node 10, Type 0, BuildingBlock: QUQFOY_clean_sbu_1, # of connection points: 4
#     Node 11, Type 0, BuildingBlock: QUQFOY_clean_sbu_1, # of connection points: 4
#     Node 12, Type 0, BuildingBlock: QUQFOY_clean_sbu_1, # of connection points: 4
#     Node 13, Type 0, BuildingBlock: QUQFOY_clean_sbu_1, # of connection points: 4
#     Node 14, Type 0, BuildingBlock: QUQFOY_clean_sbu_1, # of connection points: 4
#     Node 15, Type 0, BuildingBlock: QUQFOY_clean_sbu_1, # of connection points: 4
#     Node 16, Type 0, BuildingBlock: QUQFOY_clean_sbu_1, # of connection points: 4
#     Node 17, Type 0, BuildingBlock: QUQFOY_clean_sbu_1, # of connection points: 4
#     Node 18, Type 0, BuildingBlock: QUQFOY_clean_sbu_1, # of connection points: 4
#     Node 19, Type 0, BuildingBlock: QUQFOY_clean_sbu_1, # of connection points: 4
#     Node 20, Type 0, BuildingBlock: QUQFOY_clean_sbu_1, # of connection points: 4
#     Node 21, Type 0, BuildingBlock: QUQFOY_clean_sbu_1, # of connection points: 4
#     Node 22, Type 0, BuildingBlock: QUQFOY_clean_sbu_1, # of connection points: 4
#     Node 23, Type 0, BuildingBlock: QUQFOY_clean_sbu_1, # of connection points: 4
#     Node 24, Type 0, BuildingBlock: QUQFOY_clean_sbu_1, # of connection points: 4
#     Node 25, Type 0, BuildingBlock: QUQFOY_clean_sbu_1, # of connection points: 4
#     Node 26, Type 0, BuildingBlock: QUQFOY_clean_sbu_1, # of connection points: 4
#     Node 27, Type 0, BuildingBlock: QUQFOY_clean_sbu_1, # of connection points: 4
#     Node 28, Type 0, BuildingBlock: QUQFOY_clean_sbu_1, # of connection points: 4
#     Node 29, Type 0, BuildingBlock: QUQFOY_clean_sbu_1, # of connection points: 4
#     Node 30, Type 0, BuildingBlock: QUQFOY_clean_sbu_1, # of connection points: 4
#     Node 31, Type 0, BuildingBlock: QUQFOY_clean_sbu_1, # of connection points: 4
#     Node 32, Type 0, BuildingBlock: QUQFOY_clean_sbu_1, # of connection points: 4
#     Node 33, Type 0, BuildingBlock: QUQFOY_clean_sbu_1, # of connection points: 4
#     Node 34, Type 0, BuildingBlock: QUQFOY_clean_sbu_1, # of connection points: 4
#     Node 35, Type 0, BuildingBlock: QUQFOY_clean_sbu_1, # of connection points: 4
#     Edge 36, Type (0, 0), BuildingBlock: XIVTED_clean_linker_0, # of connection points: 2
#     Edge 37, Type (0, 0), BuildingBlock: XIVTED_clean_linker_0, # of connection points: 2
#     Edge 38, Type (0, 0), BuildingBlock: XIVTED_clean_linker_0, # of connection points: 2
#     Edge 39, Type (0, 0), BuildingBlock: XIVTED_clean_linker_0, # of connection points: 2
#     Edge 40, Type (0, 0), BuildingBlock: XIVTED_clean_linker_0, # of connection points: 2
#     Edge 41, Type (0, 0), BuildingBlock: XIVTED_clean_linker_0, # of connection points: 2
#     Edge 42, Type (0, 0), BuildingBlock: XIVTED_clean_linker_0, # of connection points: 2
#     Edge 43, Type (0, 0), BuildingBlock: XIVTED_clean_linker_0, # of connection points: 2
#     Edge 44, Type (0, 0), BuildingBlock: XIVTED_clean_linker_0, # of connection points: 2
#     Edge 45, Type (0, 0), BuildingBlock: XIVTED_clean_linker_0, # of connection points: 2
#     Edge 46, Type (0, 0), BuildingBlock: XIVTED_clean_linker_0, # of connection points: 2
#     Edge 47, Type (0, 0), BuildingBlock: XIVTED_clean_linker_0, # of connection points: 2
#     Edge 48, Type (0, 0), BuildingBlock: XIVTED_clean_linker_0, # of connection points: 2
#     Edge 49, Type (0, 0), BuildingBlock: XIVTED_clean_linker_0, # of connection points: 2
#     Edge 50, Type (0, 0), BuildingBlock: XIVTED_clean_linker_0, # of connection points: 2
#     Edge 51, Type (0, 0), BuildingBlock: XIVTED_clean_linker_0, # of connection points: 2
#     Edge 52, Type (0, 0), BuildingBlock: XIVTED_clean_linker_0, # of connection points: 2
#     Edge 53, Type (0, 0), BuildingBlock: XIVTED_clean_linker_0, # of connection points: 2
#     Edge 54, Type (0, 0), BuildingBlock: XIVTED_clean_linker_0, # of connection points: 2
#     Edge 55, Type (0, 0), BuildingBlock: XIVTED_clean_linker_0, # of connection points: 2
#     Edge 56, Type (0, 0), BuildingBlock: XIVTED_clean_linker_0, # of connection points: 2
#     Edge 57, Type (0, 0), BuildingBlock: XIVTED_clean_linker_0, # of connection points: 2
#     Edge 58, Type (0, 0), BuildingBlock: XIVTED_clean_linker_0, # of connection points: 2
#     Edge 59, Type (0, 0), BuildingBlock: XIVTED_clean_linker_0, # of connection points: 2
#     Edge 60, Type (0, 0), BuildingBlock: XIVTED_clean_linker_0, # of connection points: 2
#     Edge 61, Type (0, 0), BuildingBlock: XIVTED_clean_linker_0, # of connection points: 2
#     Edge 62, Type (0, 0), BuildingBlock: XIVTED_clean_linker_0, # of connection points: 2
#     Edge 63, Type (0, 0), BuildingBlock: XIVTED_clean_linker_0, # of connection points: 2
#     Edge 64, Type (0, 0), BuildingBlock: XIVTED_clean_linker_0, # of connection points: 2
#     Edge 65, Type (0, 0), BuildingBlock: XIVTED_clean_linker_0, # of connection points: 2
#     Edge 66, Type (0, 0), BuildingBlock: XIVTED_clean_linker_0, # of connection points: 2
#     Edge 67, Type (0, 0), BuildingBlock: XIVTED_clean_linker_0, # of connection points: 2
#     Edge 68, Type (0, 0), BuildingBlock: XIVTED_clean_linker_0, # of connection points: 2
#     Edge 69, Type (0, 0), BuildingBlock: XIVTED_clean_linker_0, # of connection points: 2
#     Edge 70, Type (0, 0), BuildingBlock: XIVTED_clean_linker_0, # of connection points: 2
#     Edge 71, Type (0, 0), BuildingBlock: XIVTED_clean_linker_0, # of connection points: 2
#     Edge 72, Type (0, 0), BuildingBlock: XIVTED_clean_linker_0, # of connection points: 2
#     Edge 73, Type (0, 0), BuildingBlock: XIVTED_clean_linker_0, # of connection points: 2
#     Edge 74, Type (0, 0), BuildingBlock: XIVTED_clean_linker_0, # of connection points: 2
#     Edge 75, Type (0, 0), BuildingBlock: XIVTED_clean_linker_0, # of connection points: 2
#     Edge 76, Type (0, 0), BuildingBlock: XIVTED_clean_linker_0, # of connection points: 2
#     Edge 77, Type (0, 0), BuildingBlock: XIVTED_clean_linker_0, # of connection points: 2
#     Edge 78, Type (0, 0), BuildingBlock: XIVTED_clean_linker_0, # of connection points: 2
#     Edge 79, Type (0, 0), BuildingBlock: XIVTED_clean_linker_0, # of connection points: 2
#     Edge 80, Type (0, 0), BuildingBlock: XIVTED_clean_linker_0, # of connection points: 2
#     Edge 81, Type (0, 0), BuildingBlock: XIVTED_clean_linker_0, # of connection points: 2
#     Edge 82, Type (0, 0), BuildingBlock: XIVTED_clean_linker_0, # of connection points: 2
#     Edge 83, Type (0, 0), BuildingBlock: XIVTED_clean_linker_0, # of connection points: 2
#     Edge 84, Type (0, 0), BuildingBlock: XIVTED_clean_linker_0, # of connection points: 2
#     Edge 85, Type (0, 0), BuildingBlock: XIVTED_clean_linker_0, # of connection points: 2
#     Edge 86, Type (0, 0), BuildingBlock: XIVTED_clean_linker_0, # of connection points: 2
#     Edge 87, Type (0, 0), BuildingBlock: XIVTED_clean_linker_0, # of connection points: 2
#     Edge 88, Type (0, 0), BuildingBlock: XIVTED_clean_linker_0, # of connection points: 2
#     Edge 89, Type (0, 0), BuildingBlock: XIVTED_clean_linker_0, # of connection points: 2
#     Edge 90, Type (0, 0), BuildingBlock: XIVTED_clean_linker_0, # of connection points: 2
#     Edge 91, Type (0, 0), BuildingBlock: XIVTED_clean_linker_0, # of connection points: 2
#     Edge 92, Type (0, 0), BuildingBlock: XIVTED_clean_linker_0, # of connection points: 2
#     Edge 93, Type (0, 0), BuildingBlock: XIVTED_clean_linker_0, # of connection points: 2
#     Edge 94, Type (0, 0), BuildingBlock: XIVTED_clean_linker_0, # of connection points: 2
#     Edge 95, Type (0, 0), BuildingBlock: XIVTED_clean_linker_0, # of connection points: 2
#     Edge 96, Type (0, 0), BuildingBlock: XIVTED_clean_linker_0, # of connection points: 2
#     Edge 97, Type (0, 0), BuildingBlock: XIVTED_clean_linker_0, # of connection points: 2
#     Edge 98, Type (0, 0), BuildingBlock: XIVTED_clean_linker_0, # of connection points: 2
#     Edge 99, Type (0, 0), BuildingBlock: XIVTED_clean_linker_0, # of connection points: 2
#     Edge 100, Type (0, 0), BuildingBlock: XIVTED_clean_linker_0, # of connection points: 2
#     Edge 101, Type (0, 0), BuildingBlock: XIVTED_clean_linker_0, # of connection points: 2
#     Edge 102, Type (0, 0), BuildingBlock: XIVTED_clean_linker_0, # of connection points: 2
#     Edge 103, Type (0, 0), BuildingBlock: XIVTED_clean_linker_0, # of connection points: 2
#     Edge 104, Type (0, 0), BuildingBlock: XIVTED_clean_linker_0, # of connection points: 2
#     Edge 105, Type (0, 0), BuildingBlock: XIVTED_clean_linker_0, # of connection points: 2
#     Edge 106, Type (0, 0), BuildingBlock: XIVTED_clean_linker_0, # of connection points: 2
#     Edge 107, Type (0, 0), BuildingBlock: XIVTED_clean_linker_0, # of connection points: 2
# Relax obj value: 0.035
# Max RMSD: 0.166
# Mean RMSD: 0.166
data_MOF--net-uns--node1-QUQFOY_clean_sbu_1--edge1-XIVTED_clean_linker_0
_symmetry_space_group_name_H-M    P1
_symmetry_Int_Tables_number       1
_symmetry_cell_setting            triclinic
loop_
_symmetry_equiv_pos_as_xyz
'x, y, z'
_cell_length_a     53.016515
_cell_length_b     53.028967
_cell_length_c     66.289831
_cell_angle_alpha  89.991667
_cell_angle_beta   90.001419
_cell_angle_gamma 119.98611
loop_
_atom_site_label
_atom_site_type_symbol
_atom_site_fract_x
_atom_site_fract_y
_atom_site_fract_z
_atom_type_partial_charge
O0 O 0.28459 0.21233 0.05063 0.0
Cd1 Cd 0.31229 0.19674 0.05756 0.0
Cd2 Cd 0.29676 0.20297 0.0955 0.0
O3 O 0.26523 0.20853 0.08076 0.0
O4 O 0.31153 0.17286 0.03404 0.0
O5 O 0.29398 0.15421 0.06416 0.0
C6 C 0.29808 0.15021 0.04546 0.0
C7 C 0.29316 0.18089 0.12651 0.0
C8 C 0.26623 0.21417 0.06199 0.0
C9 C 0.35935 0.2416 0.08209 0.0
O10 O 0.33863 0.23649 0.094 0.0
O11 O 0.35468 0.22695 0.06596 0.0
O12 O 0.29045 0.20366 0.12506 0.0
O13 O 0.29366 0.16818 0.10999 0.0
O14 O 0.7938 0.07483 0.05271 0.0
Cd15 Cd 0.80891 0.11789 0.06008 0.0
Cd16 Cd 0.80334 0.09567 0.09761 0.0
O17 O 0.79839 0.05905 0.08256 0.0
O18 O 0.8325 0.14159 0.03664 0.0
O19 O 0.85145 0.14233 0.06658 0.0
C20 C 0.85526 0.15075 0.04796 0.0
C21 C 0.82617 0.11481 0.12828 0.0
C22 C 0.79252 0.05464 0.0638 0.0
C23 C 0.76374 0.11877 0.08509 0.0
O24 O 0.76912 0.103 0.09665 0.0
O25 O 0.77839 0.12939 0.06903 0.0
O26 O 0.80379 0.08901 0.12713 0.0
O27 O 0.83815 0.12801 0.1116 0.0
O28 O 0.93286 0.71995 0.05275 0.0
Cd29 Cd 0.88963 0.69246 0.06001 0.0
Cd30 Cd 0.91162 0.70918 0.09754 0.0
O31 O 0.94819 0.74087 0.08249 0.0
O32 O 0.86631 0.69245 0.03637 0.0
O33 O 0.86555 0.7111 0.06612 0.0
C34 C 0.85731 0.70639 0.04746 0.0
C35 C 0.89295 0.71282 0.12844 0.0
C36 C 0.95289 0.73908 0.06383 0.0
C37 C 0.88834 0.64643 0.0852 0.0
O38 O 0.9044 0.66768 0.09659 0.0
O39 O 0.87756 0.65039 0.0692 0.0
O40 O 0.91878 0.7164 0.12702 0.0
O41 O 0.87939 0.71146 0.11189 0.0
O42 O 0.21577 0.28536 0.49853 0.0
Cd43 Cd 0.20031 0.31322 0.49173 0.0
Cd44 Cd 0.20555 0.2972 0.4537 0.0
O45 O 0.21097 0.26558 0.46844 0.0
O46 O 0.17677 0.31281 0.51536 0.0
O47 O 0.15772 0.29501 0.48537 0.0
C48 C 0.15397 0.29933 0.50407 0.0
C49 C 0.1833 0.29348 0.42273 0.0
C50 C 0.21707 0.26674 0.48714 0.0
C51 C 0.24485 0.35984 0.46677 0.0
O52 O 0.23932 0.33896 0.45491 0.0
O53 O 0.23056 0.35544 0.48305 0.0
O54 O 0.20597 0.29059 0.42416 0.0
O55 O 0.17076 0.29424 0.43927 0.0
O56 O 0.72205 0.93065 0.49519 0.0
Cd57 Cd 0.69434 0.88755 0.48777 0.0
Cd58 Cd 0.71136 0.90989 0.45031 0.0
O59 O 0.74299 0.94638 0.4655 0.0
O60 O 0.69375 0.86404 0.51148 0.0
O61 O 0.71266 0.86311 0.48187 0.0
C62 C 0.70763 0.85483 0.50051 0.0
C63 C 0.71506 0.89088 0.41959 0.0
C64 C 0.7412 0.95082 0.48421 0.0
C65 C 0.64859 0.88675 0.46243 0.0
O66 O 0.6699 0.90281 0.45108 0.0
O67 O 0.65241 0.87585 0.47843 0.0
O68 O 0.7188 0.91679 0.42084 0.0
O69 O 0.71354 0.87745 0.43623 0.0
O70 O 0.0753 0.79236 0.49745 0.0
Cd71 Cd 0.11854 0.80803 0.49028 0.0
Cd72 Cd 0.09644 0.80194 0.45252 0.0
O73 O 0.0595 0.7964 0.46746 0.0
O74 O 0.14183 0.83179 0.51378 0.0
O75 O 0.14264 0.85061 0.48378 0.0
C76 C 0.15089 0.8545 0.50244 0.0
C77 C 0.11478 0.82415 0.42154 0.0
C78 C 0.05503 0.79064 0.48623 0.0
C79 C 0.12057 0.76332 0.46548 0.0
O80 O 0.10473 0.76837 0.45376 0.0
O81 O 0.13077 0.77797 0.48159 0.0
O82 O 0.08926 0.80144 0.423 0.0
O83 O 0.1281 0.83676 0.43806 0.0
O84 O 0.72332 0.79307 0.99814 0.0
Cd85 Cd 0.69588 0.80875 0.99045 0.0
Cd86 Cd 0.71409 0.80442 0.95343 0.0
O87 O 0.74573 0.79995 0.96887 0.0
O88 O 0.69483 0.8316 1.01405 0.0
O89 O 0.71464 0.85154 0.98465 0.0
C90 C 0.70916 0.85473 1.00319 0.0
C91 C 0.71785 0.82731 0.92277 0.0
C92 C 0.74314 0.79284 0.98744 0.0
C93 C 0.65117 0.7641 0.96448 0.0
O94 O 0.67307 0.76941 0.95375 0.0
O95 O 0.65424 0.77891 0.98031 0.0
O96 O 0.7222 0.80552 0.92402 0.0
O97 O 0.71569 0.83884 0.93941 0.0
O98 O 0.21333 0.93039 0.99625 0.0
Cd99 Cd 0.19814 0.88718 0.98929 0.0
Cd100 Cd 0.2024 0.90835 0.9516 0.0
O101 O 0.20724 0.94508 0.96641 0.0
O102 O 0.17484 0.8638 1.01292 0.0
O103 O 0.15555 0.86266 0.98304 0.0
C104 C 0.15196 0.85449 1.00172 0.0
C105 C 0.17962 0.88911 0.92091 0.0
C106 C 0.21388 0.95013 0.98503 0.0
C107 C 0.24281 0.88608 0.96393 0.0
O108 O 0.23693 0.9015 0.95239 0.0
O109 O 0.22856 0.87564 0.98016 0.0
O110 O 0.20186 0.91498 0.92208 0.0
O111 O 0.1677 0.87583 0.93758 0.0
O112 O 0.07483 0.28611 0.99804 0.0
Cd113 Cd 0.11809 0.31373 0.99093 0.0
Cd114 Cd 0.09661 0.29672 0.95327 0.0
O115 O 0.05985 0.26519 0.96826 0.0
O116 O 0.14156 0.31379 1.0145 0.0
O117 O 0.14215 0.29513 0.98472 0.0
C118 C 0.15053 0.29988 1.00334 0.0
C119 C 0.11562 0.29274 0.92262 0.0
C120 C 0.05494 0.26696 0.98689 0.0
C121 C 0.1197 0.35957 0.96531 0.0
O122 O 0.10397 0.33828 0.95386 0.0
O123 O 0.1301 0.35572 0.98155 0.0
O124 O 0.08983 0.28934 0.92379 0.0
O125 O 0.12889 0.29408 0.93929 0.0
O126 O 0.79227 0.71932 0.55048 0.0
Cd127 Cd 0.80799 0.69195 0.55818 0.0
Cd128 Cd 0.8031 0.70965 0.59544 0.0
O129 O 0.79804 0.74094 0.57996 0.0
O130 O 0.83124 0.69128 0.5347 0.0
O131 O 0.85072 0.7108 0.56426 0.0
C132 C 0.85421 0.70555 0.54572 0.0
C133 C 0.82608 0.71397 0.62614 0.0
C134 C 0.79147 0.73872 0.5613 0.0
C135 C 0.76362 0.64662 0.58404 0.0
O136 O 0.7688 0.66815 0.59512 0.0
O137 O 0.77817 0.65015 0.568 0.0
O138 O 0.80389 0.71768 0.62484 0.0
O139 O 0.83788 0.71217 0.60953 0.0
O140 O 0.28587 0.07394 0.55252 0.0
Cd141 Cd 0.31374 0.11705 0.55984 0.0
Cd142 Cd 0.29628 0.09548 0.59734 0.0
O143 O 0.26464 0.05897 0.58221 0.0
O144 O 0.31405 0.14096 0.53646 0.0
O145 O 0.29542 0.14128 0.56632 0.0
C146 C 0.30025 0.14993 0.54775 0.0
C147 C 0.29219 0.11444 0.62798 0.0
C148 C 0.26651 0.05411 0.56359 0.0
C149 C 0.35912 0.11794 0.58558 0.0
O150 O 0.33768 0.10232 0.59694 0.0
O151 O 0.35555 0.12855 0.56934 0.0
O152 O 0.28843 0.08852 0.62677 0.0
O153 O 0.294 0.12794 0.61132 0.0
O154 O 0.93224 0.21263 0.55075 0.0
Cd155 Cd 0.8889 0.19705 0.55755 0.0
Cd156 Cd 0.9105 0.20267 0.59559 0.0
O157 O 0.94747 0.20804 0.58081 0.0
O158 O 0.86609 0.17402 0.53366 0.0
O159 O 0.86443 0.1543 0.56345 0.0
C160 C 0.85664 0.15097 0.5447 0.0
C161 C 0.8922 0.1808 0.62668 0.0
C162 C 0.95227 0.21405 0.56209 0.0
C163 C 0.88688 0.2417 0.58246 0.0
O164 O 0.90249 0.23643 0.59425 0.0
O165 O 0.87678 0.22719 0.56629 0.0
O166 O 0.91779 0.20336 0.6251 0.0
O167 O 0.87872 0.16812 0.61023 0.0
O168 O 0.95329 0.54754 0.38558 0.0
Cd169 Cd 0.98107 0.53208 0.39267 0.0
Cd170 Cd 0.96411 0.53667 0.43034 0.0
O171 O 0.93249 0.54181 0.41539 0.0
O172 O 0.98136 0.50902 0.36897 0.0
O173 O 0.96273 0.48939 0.39868 0.0
C174 C 0.96756 0.486 0.38002 0.0
C175 C 0.96021 0.5136 0.46093 0.0
C176 C 0.93417 0.54833 0.39674 0.0
C177 C 0.02692 0.57645 0.41821 0.0
O178 O 0.00566 0.5709 0.4297 0.0
O179 O 0.02304 0.56217 0.40199 0.0
O180 O 0.95676 0.53596 0.45983 0.0
O181 O 0.96157 0.50175 0.44423 0.0
O182 O 0.45987 0.40614 0.38659 0.0
Cd183 Cd 0.47585 0.44937 0.3939 0.0
Cd184 Cd 0.4707 0.42738 0.43141 0.0
O185 O 0.46524 0.3906 0.41632 0.0
O186 O 0.49947 0.47278 0.37039 0.0
O187 O 0.5185 0.47313 0.40022 0.0
C188 C 0.52228 0.48155 0.3816 0.0
C189 C 0.49369 0.44623 0.46207 0.0
C190 C 0.45877 0.38599 0.39765 0.0
C191 C 0.43162 0.45127 0.41933 0.0
O192 O 0.43677 0.43519 0.43073 0.0
O193 O 0.44612 0.46176 0.40319 0.0
O194 O 0.47117 0.42053 0.46089 0.0
O195 O 0.50572 0.45945 0.4454 0.0
O196 O 0.6003 0.05548 0.38502 0.0
Cd197 Cd 0.55697 0.02767 0.39174 0.0
Cd198 Cd 0.57821 0.04332 0.42982 0.0
O199 O 0.61535 0.07494 0.41519 0.0
O200 O 0.534 0.02834 0.36808 0.0
O201 O 0.53256 0.04583 0.39814 0.0
C202 C 0.52461 0.04171 0.37942 0.0
C203 C 0.55968 0.04692 0.46082 0.0
C204 C 0.62027 0.07393 0.39647 0.0
C205 C 0.55468 0.98074 0.41647 0.0
O206 O 0.57003 1.00149 0.42842 0.0
O207 O 0.54489 0.98535 0.40022 0.0
O208 O 0.58518 0.04967 0.45938 0.0
O209 O 0.54645 0.04635 0.44429 0.0
O210 O 0.88079 0.61748 0.82885 0.0
Cd211 Cd 0.86537 0.6453 0.82175 0.0
Cd212 Cd 0.87029 0.62847 0.784 0.0
O213 O 0.87532 0.59683 0.79902 0.0
O214 O 0.84243 0.64568 0.84552 0.0
O215 O 0.82263 0.62712 0.81584 0.0
C216 C 0.81935 0.632 0.83452 0.0
C217 C 0.84788 0.62472 0.75313 0.0
C218 C 0.88172 0.59844 0.81769 0.0
C219 C 0.90997 0.69121 0.79634 0.0
O220 O 0.90451 0.67 0.78483 0.0
O221 O 0.89556 0.68728 0.81251 0.0
O222 O 0.87017 0.62119 0.75453 0.0
O223 O 0.8357 0.62607 0.76968 0.0
O224 O 0.38887 0.26601 0.83077 0.0
Cd225 Cd 0.36119 0.22271 0.8239 0.0
Cd226 Cd 0.37709 0.24403 0.78594 0.0
O227 O 0.40867 0.28102 0.80068 0.0
O228 O 0.3619 0.19951 0.84738 0.0
O229 O 0.37958 0.19859 0.81727 0.0
C230 C 0.37541 0.19039 0.83594 0.0
C231 C 0.38088 0.22577 0.7549 0.0
C232 C 0.40748 0.28595 0.81938 0.0
C233 C 0.31442 0.22042 0.79902 0.0
O234 O 0.33527 0.23593 0.78719 0.0
O235 O 0.31889 0.21051 0.81526 0.0
O236 O 0.3838 0.25132 0.75644 0.0
O237 O 0.38005 0.21232 0.77138 0.0
O238 O 0.74203 0.12628 0.82961 0.0
Cd239 Cd 0.78515 0.14181 0.8221 0.0
Cd240 Cd 0.76275 0.13638 0.78468 0.0
O241 O 0.72624 0.1314 0.79991 0.0
O242 O 0.8089 0.16538 0.84552 0.0
O243 O 0.80923 0.1844 0.81569 0.0
C244 C 0.81781 0.18817 0.83427 0.0
C245 C 0.7813 0.15886 0.75381 0.0
C246 C 0.72182 0.12517 0.81863 0.0
C247 C 0.78618 0.09696 0.79686 0.0
O248 O 0.77008 0.10216 0.78552 0.0
O249 O 0.79703 0.11169 0.81286 0.0
O250 O 0.75549 0.13656 0.75523 0.0
O251 O 0.79488 0.17099 0.77036 0.0
O252 O 0.38924 0.12583 0.32952 0.0
Cd253 Cd 0.36124 0.14106 0.32255 0.0
Cd254 Cd 0.37796 0.13644 0.28483 0.0
O255 O 0.40989 0.13163 0.29965 0.0
O256 O 0.36117 0.16427 0.34624 0.0
O257 O 0.37931 0.18368 0.31639 0.0
C258 C 0.37474 0.1872 0.33509 0.0
C259 C 0.38139 0.15915 0.25413 0.0
C260 C 0.40835 0.12514 0.3183 0.0
C261 C 0.31533 0.09628 0.29733 0.0
O262 O 0.33655 0.10198 0.28576 0.0
O263 O 0.31923 0.11068 0.3135 0.0
O264 O 0.38497 0.13688 0.2553 0.0
O265 O 0.38012 0.17112 0.2708 0.0
O266 O 0.88238 0.26539 0.33128 0.0
Cd267 Cd 0.86689 0.22226 0.32392 0.0
Cd268 Cd 0.87211 0.24434 0.28639 0.0
O269 O 0.87735 0.28103 0.30149 0.0
O270 O 0.84315 0.19854 0.34731 0.0
O271 O 0.82434 0.19824 0.3174 0.0
C272 C 0.82043 0.18968 0.33599 0.0
C273 C 0.84908 0.22535 0.25575 0.0
C274 C 0.88354 0.28555 0.3202 0.0
C275 C 0.91154 0.22091 0.29859 0.0
O276 O 0.90619 0.23679 0.28712 0.0
O277 O 0.89704 0.21038 0.31472 0.0
O278 O 0.87153 0.2511 0.25689 0.0
O279 O 0.83714 0.21213 0.27244 0.0
O280 O 0.74121 0.61604 0.33037 0.0
Cd281 Cd 0.78429 0.64384 0.32277 0.0
Cd282 Cd 0.76222 0.62574 0.28575 0.0
O283 O 0.72623 0.59371 0.30103 0.0
O284 O 0.80839 0.64467 0.34618 0.0
O285 O 0.80848 0.62543 0.31652 0.0
C286 C 0.81727 0.63064 0.33505 0.0
C287 C 0.78179 0.62236 0.25518 0.0
C288 C 0.72143 0.59612 0.31958 0.0
C289 C 0.78399 0.68845 0.29692 0.0
O290 O 0.76768 0.66656 0.28611 0.0
O291 O 0.79572 0.68545 0.31279 0.0
O292 O 0.75553 0.61772 0.25631 0.0
O293 O 0.79539 0.62463 0.27188 0.0
O294 O 0.46007 0.055 0.88474 0.0
Cd295 Cd 0.4754 0.02704 0.89157 0.0
Cd296 Cd 0.47084 0.0436 0.92934 0.0
O297 O 0.46604 0.07558 0.91465 0.0
O298 O 0.49843 0.02696 0.86777 0.0
O299 O 0.5181 0.04516 0.89754 0.0
C300 C 0.52146 0.04056 0.87883 0.0
C301 C 0.49343 0.04686 0.96006 0.0
C302 C 0.45944 0.07409 0.89603 0.0
C303 C 0.43072 0.98103 0.91681 0.0
O304 O 0.43636 1.00222 0.92838 0.0
O305 O 0.44513 0.98499 0.90064 0.0
O306 O 0.47119 0.0505 0.95888 0.0
O307 O 0.50546 0.04566 0.94339 0.0
O308 O 0.9526 0.40766 0.88437 0.0
Cd309 Cd 0.98021 0.45092 0.89143 0.0
Cd310 Cd 0.96374 0.42921 0.92927 0.0
O311 O 0.93224 0.39243 0.91428 0.0
O312 O 0.97988 0.47423 0.86788 0.0
O313 O 0.96168 0.47501 0.89781 0.0
C314 C 0.96614 0.48327 0.87916 0.0
C315 C 0.95978 0.44728 0.96034 0.0
C316 C 0.93374 0.38766 0.89559 0.0
C317 C 0.02655 0.4528 0.91661 0.0
O318 O 0.00549 0.43709 0.92824 0.0
O319 O 0.02238 0.46304 0.90042 0.0
O320 O 0.9567 0.42167 0.95873 0.0
O321 O 0.96085 0.46092 0.94391 0.0
O322 O 0.59905 0.54833 0.88392 0.0
Cd323 Cd 0.55593 0.53268 0.89148 0.0
Cd324 Cd 0.57826 0.53773 0.9289 0.0
O325 O 0.61479 0.54293 0.91356 0.0
O326 O 0.53201 0.50883 0.86821 0.0
O327 O 0.53216 0.49016 0.8981 0.0
C328 C 0.52336 0.48617 0.87956 0.0
C329 C 0.55978 0.51498 0.9597 0.0
C330 C 0.61924 0.54931 0.89487 0.0
C331 C 0.55451 0.57702 0.91702 0.0
O332 O 0.57062 0.57175 0.92831 0.0
O333 O 0.54385 0.56259 0.9009 0.0
O334 O 0.58555 0.53735 0.95833 0.0
O335 O 0.54624 0.50293 0.94313 0.0
O336 O 0.61906 0.8791 0.71966 0.0
Cd337 Cd 0.64701 0.86379 0.72658 0.0
Cd338 Cd 0.63108 0.86947 0.76449 0.0
O339 O 0.59914 0.87431 0.7497 0.0
O340 O 0.6466 0.84013 0.70303 0.0
O341 O 0.62896 0.82126 0.73308 0.0
C342 C 0.63322 0.81741 0.71439 0.0
C343 C 0.6279 0.84786 0.79565 0.0
C344 C 0.60032 0.88032 0.73098 0.0
C345 C 0.69357 0.90891 0.75122 0.0
O346 O 0.67265 0.90355 0.76299 0.0
O347 O 0.68923 0.89422 0.73514 0.0
O348 O 0.62456 0.87023 0.79402 0.0
O349 O 0.62881 0.83519 0.77922 0.0
O350 O 0.12604 0.73934 0.71739 0.0
Cd351 Cd 0.14165 0.78264 0.72429 0.0
Cd352 Cd 0.13618 0.76121 0.76223 0.0
O353 O 0.13067 0.72419 0.74747 0.0
O354 O 0.16564 0.80592 0.70085 0.0
O355 O 0.18415 0.80672 0.73098 0.0
C356 C 0.18824 0.815 0.71232 0.0
C357 C 0.15839 0.77963 0.79321 0.0
C358 C 0.12462 0.71933 0.72875 0.0
C359 C 0.09713 0.78487 0.74918 0.0
O360 O 0.1025 0.76936 0.76101 0.0
O361 O 0.11151 0.7948 0.73295 0.0
O362 O 0.13569 0.75411 0.79176 0.0
O363 O 0.17098 0.79293 0.77668 0.0
O364 O 0.26647 0.38801 0.71959 0.0
Cd365 Cd 0.22315 0.3603 0.72648 0.0
Cd366 Cd 0.24447 0.37696 0.76434 0.0
O367 O 0.28144 0.40845 0.7495 0.0
O368 O 0.20011 0.36014 0.70262 0.0
O369 O 0.19866 0.37857 0.7323 0.0
C370 C 0.19067 0.37381 0.71359 0.0
C371 C 0.22563 0.38091 0.79508 0.0
C372 C 0.28638 0.40691 0.73085 0.0
C373 C 0.22118 0.31415 0.75194 0.0
O374 O 0.23674 0.33527 0.76356 0.0
O375 O 0.21109 0.31824 0.73564 0.0
O376 O 0.25131 0.38406 0.79384 0.0
O377 O 0.2124 0.37983 0.77844 0.0
O378 O 0.54649 0.94918 0.16291 0.0
Cd379 Cd 0.53096 0.97693 0.15595 0.0
Cd380 Cd 0.53623 0.96074 0.11814 0.0
O381 O 0.54146 0.92906 0.13292 0.0
O382 O 0.50736 0.97655 0.17953 0.0
O383 O 0.48838 0.95861 0.14956 0.0
C384 C 0.48458 0.96297 0.16824 0.0
C385 C 0.51377 0.95712 0.08731 0.0
C386 C 0.54766 0.9304 0.15161 0.0
C387 C 0.57559 0.02338 0.13094 0.0
O388 O 0.57021 1.0024 0.11923 0.0
O389 O 0.56113 0.01911 0.14712 0.0
O390 O 0.53629 0.95395 0.08861 0.0
O391 O 0.50145 0.95805 0.10391 0.0
O392 O 0.05548 0.59705 0.16379 0.0
Cd393 Cd 0.02786 0.55378 0.1568 0.0
Cd394 Cd 0.0442 0.57533 0.11897 0.0
O395 O 0.0758 0.61217 0.13386 0.0
O396 O 0.02828 0.53053 0.18035 0.0
O397 O 0.04633 0.52966 0.15038 0.0
C398 C 0.04196 0.52145 0.16905 0.0
C399 C 0.04802 0.55715 0.08789 0.0
C400 C 0.07432 0.61702 0.15253 0.0
C401 C 0.98146 0.55198 0.13176 0.0
O402 O 1.00252 0.56762 0.12011 0.0
O403 O 0.98566 0.54172 0.14793 0.0
O404 O 0.05114 0.58278 0.08949 0.0
O405 O 0.04696 0.54354 0.10433 0.0
O406 O 0.4091 0.45808 0.16237 0.0
Cd407 Cd 0.45215 0.47357 0.15471 0.0
Cd408 Cd 0.42952 0.46863 0.11742 0.0
O409 O 0.39319 0.4637 0.13287 0.0
O410 O 0.47595 0.49649 0.17832 0.0
O411 O 0.47638 0.51634 0.14882 0.0
C412 C 0.48492 0.51959 0.1674 0.0
C413 C 0.44839 0.49172 0.08679 0.0
C414 C 0.38887 0.45724 0.15155 0.0
C415 C 0.45278 0.42891 0.12895 0.0
O416 O 0.43656 0.43422 0.11781 0.0
O417 O 0.46384 0.44349 0.14497 0.0
O418 O 0.42246 0.46957 0.08801 0.0
O419 O 0.46193 0.5034 0.10344 0.0
O420 O 0.05426 0.45744 0.66377 0.0
Cd421 Cd 0.02668 0.47292 0.65612 0.0
Cd422 Cd 0.04418 0.468 0.61885 0.0
O423 O 0.07562 0.46303 0.6342 0.0
O424 O 0.02633 0.49663 0.6794 0.0
O425 O 0.04534 0.51548 0.6496 0.0
C426 C 0.04038 0.51936 0.66812 0.0
C427 C 0.04836 0.49129 0.58832 0.0
C428 C 0.0736 0.45661 0.65289 0.0
C429 C 0.98121 0.42837 0.63046 0.0
O430 O 1.00268 0.43369 0.61926 0.0
O431 O 0.98482 0.44288 0.64653 0.0
O432 O 0.05198 0.46903 0.58941 0.0
O433 O 0.04671 0.50295 0.60504 0.0
O434 O 0.54852 0.59764 0.66495 0.0
Cd435 Cd 0.53298 0.55435 0.65807 0.0
Cd436 Cd 0.53819 0.57568 0.62021 0.0
O437 O 0.54344 0.61264 0.63494 0.0
O438 O 0.5092 0.53113 0.6816 0.0
O439 O 0.49044 0.53018 0.65154 0.0
C440 C 0.4865 0.522 0.67022 0.0
C441 C 0.51571 0.55673 0.5894 0.0
C442 C 0.54967 0.61756 0.65362 0.0
C443 C 0.57756 0.55239 0.6331 0.0
O444 O 0.57214 0.56794 0.62135 0.0
O445 O 0.56315 0.54228 0.64931 0.0
O446 O 0.53824 0.58239 0.59065 0.0
O447 O 0.50339 0.54357 0.60602 0.0
O448 O 0.40865 0.95004 0.66416 0.0
Cd449 Cd 0.45196 0.9781 0.65754 0.0
Cd450 Cd 0.43108 0.96224 0.61946 0.0
O451 O 0.39401 0.93037 0.634 0.0
O452 O 0.475 0.97754 0.6812 0.0
O453 O 0.47654 0.96012 0.65113 0.0
C454 C 0.48447 0.96424 0.66986 0.0
C455 C 0.45 0.9589 0.58855 0.0
C456 C 0.38888 0.9314 0.65268 0.0
C457 C 0.45384 0.02472 0.63269 0.0
O458 O 0.43869 0.00387 0.62076 0.0
O459 O 0.46373 0.02032 0.64898 0.0
O460 O 0.42435 0.95581 0.58989 0.0
O461 O 0.4632 0.95966 0.60514 0.0
O462 O 0.12778 0.38754 0.21893 0.0
Cd463 Cd 0.14325 0.35973 0.2258 0.0
Cd464 Cd 0.13849 0.37635 0.26373 0.0
O465 O 0.13309 0.40789 0.24887 0.0
O466 O 0.16604 0.35956 0.20188 0.0
O467 O 0.18604 0.37791 0.23155 0.0
C468 C 0.1892 0.37321 0.21281 0.0
C469 C 0.16109 0.38029 0.29457 0.0
C470 C 0.12672 0.40642 0.2302 0.0
C471 C 0.09885 0.31358 0.25115 0.0
O472 O 0.10451 0.33468 0.26283 0.0
O473 O 0.11305 0.31767 0.23487 0.0
O474 O 0.13853 0.38337 0.29324 0.0
O475 O 0.17335 0.37922 0.27798 0.0
O476 O 0.61955 0.73992 0.21712 0.0
Cd477 Cd 0.64675 0.78308 0.22464 0.0
Cd478 Cd 0.62976 0.76059 0.26208 0.0
O479 O 0.59857 0.72396 0.24677 0.0
O480 O 0.64662 0.80675 0.20127 0.0
O481 O 0.62775 0.80669 0.23111 0.0
C482 C 0.63249 0.81535 0.21254 0.0
C483 C 0.62554 0.77898 0.29293 0.0
C484 C 0.60051 0.71961 0.22807 0.0
C485 C 0.69279 0.7848 0.25005 0.0
O486 O 0.67151 0.76852 0.26135 0.0
O487 O 0.68884 0.79545 0.23398 0.0
O488 O 0.62231 0.75328 0.29153 0.0
O489 O 0.62681 0.79247 0.27638 0.0
O490 O 0.26518 0.87854 0.21841 0.0
Cd491 Cd 0.222 0.86327 0.22554 0.0
Cd492 Cd 0.2435 0.86796 0.26313 0.0
O493 O 0.28016 0.87275 0.24823 0.0
O494 O 0.19844 0.83963 0.20208 0.0
O495 O 0.19773 0.82075 0.23205 0.0
C496 C 0.18936 0.8169 0.21341 0.0
C497 C 0.22432 0.84529 0.29385 0.0
C498 C 0.28504 0.87924 0.22958 0.0
C499 C 0.22097 0.9081 0.25074 0.0
O500 O 0.23658 0.90245 0.26225 0.0
O501 O 0.21037 0.89365 0.2346 0.0
O502 O 0.25018 0.86753 0.29265 0.0
O503 O 0.21102 0.83331 0.2772 0.0
H504 H 0.31105 0.14133 0.13402 0.0
H505 H 0.36259 0.19811 0.24699 0.0
H506 H 0.29572 0.20502 0.16349 0.0
H507 H 0.3795 0.13585 0.21695 0.0
H508 H 0.33893 0.20177 0.21632 0.0
H509 H 0.33463 0.13771 0.16473 0.0
C510 C 0.31206 0.15409 0.14707 0.0
C511 C 0.30136 0.17353 0.14612 0.0
C512 C 0.34806 0.18751 0.21638 0.0
C513 C 0.32908 0.17007 0.1812 0.0
C514 C 0.36191 0.18567 0.23383 0.0
C515 C 0.37308 0.16663 0.2346 0.0
C516 C 0.34526 0.1701 0.19957 0.0
C517 C 0.37123 0.15083 0.2171 0.0
C518 C 0.32586 0.15229 0.16454 0.0
C519 C 0.30362 0.18974 0.16349 0.0
N520 N 0.35739 0.15275 0.20039 0.0
N521 N 0.31739 0.18781 0.18022 0.0
H522 H 0.86524 0.17252 0.13533 0.0
H523 H 0.80991 0.16767 0.24869 0.0
H524 H 0.80304 0.09348 0.16552 0.0
H525 H 0.87208 0.24672 0.21848 0.0
H526 H 0.80597 0.14029 0.21802 0.0
H527 H 0.86909 0.19991 0.16598 0.0
C528 C 0.85285 0.16081 0.14852 0.0
C529 C 0.83377 0.13061 0.1478 0.0
C530 C 0.82027 0.16367 0.21804 0.0
C531 C 0.83747 0.16199 0.18281 0.0
C532 C 0.82226 0.17939 0.23549 0.0
C533 C 0.84137 0.20958 0.23622 0.0
C534 C 0.83757 0.17821 0.20118 0.0
C535 C 0.85705 0.22348 0.21866 0.0
C536 C 0.85479 0.17653 0.16596 0.0
C537 C 0.81805 0.11672 0.16534 0.0
N538 N 0.85498 0.20768 0.20195 0.0
N539 N 0.82008 0.13252 0.18204 0.0
H540 H 0.75925 0.6207 0.21775 0.0
H541 H 0.91571 0.71384 0.16568 0.0
H542 H 0.84024 0.64509 0.24817 0.0
H543 H 0.83474 0.69105 0.1358 0.0
H544 H 0.88859 0.68975 0.19622 0.0
H545 H 0.78647 0.64488 0.18728 0.0
C546 C 0.78274 0.63063 0.21793 0.0
C547 C 0.79745 0.63083 0.23561 0.0
C548 C 0.87674 0.69025 0.18306 0.0
C549 C 0.82888 0.6593 0.20079 0.0
C550 C 0.89226 0.70429 0.16564 0.0
C551 C 0.87751 0.7045 0.14809 0.0
C552 C 0.84619 0.67613 0.18296 0.0
C553 C 0.84707 0.69158 0.14897 0.0
C554 C 0.79831 0.64473 0.20055 0.0
C555 C 0.82794 0.64424 0.2349 0.0
N556 N 0.83242 0.67771 0.16604 0.0
N557 N 0.84264 0.65812 0.21785 0.0
H558 H 0.14384 0.3115 0.41517 0.0
H559 H 0.20045 0.3621 0.30203 0.0
H560 H 0.20722 0.29563 0.38574 0.0
H561 H 0.13755 0.3785 0.33164 0.0
H562 H 0.20425 0.33885 0.33287 0.0
H563 H 0.14013 0.33481 0.38434 0.0
C564 C 0.15652 0.31233 0.40211 0.0
C565 C 0.17588 0.30156 0.4031 0.0
C566 C 0.18982 0.34778 0.33268 0.0
C567 C 0.17232 0.32897 0.36788 0.0
C568 C 0.18791 0.3614 0.31513 0.0
C569 C 0.16864 0.37229 0.31419 0.0
C570 C 0.17229 0.34495 0.34942 0.0
C571 C 0.15271 0.37043 0.33163 0.0
C572 C 0.15465 0.32599 0.38457 0.0
C573 C 0.19198 0.30359 0.38571 0.0
N574 N 0.15471 0.35682 0.34843 0.0
N575 N 0.19001 0.31722 0.36891 0.0
H576 H 0.62511 0.75648 0.33018 0.0
H577 H 0.71575 0.91321 0.38225 0.0
H578 H 0.64631 0.83701 0.3003 0.0
H579 H 0.69365 0.83266 0.41247 0.0
H580 H 0.69176 0.88577 0.35181 0.0
H581 H 0.64899 0.78384 0.36068 0.0
C582 C 0.63426 0.77987 0.33013 0.0
C583 C 0.63367 0.79443 0.31258 0.0
C584 C 0.69238 0.87408 0.36502 0.0
C585 C 0.6618 0.82605 0.34742 0.0
C586 C 0.70637 0.88978 0.38239 0.0
C587 C 0.70675 0.87526 0.40001 0.0
C588 C 0.67851 0.84355 0.36523 0.0
C589 C 0.69405 0.84483 0.39925 0.0
C590 C 0.64818 0.79553 0.34753 0.0
C591 C 0.64608 0.82482 0.31346 0.0
N592 N 0.68025 0.82999 0.38222 0.0
N593 N 0.65984 0.83962 0.33051 0.0
H594 H 0.17226 0.86354 0.41399 0.0
H595 H 0.16654 0.8065 0.30105 0.0
H596 H 0.09305 0.80014 0.38457 0.0
H597 H 0.24587 0.86857 0.33101 0.0
H598 H 0.13933 0.80303 0.33172 0.0
H599 H 0.19934 0.86701 0.38326 0.0
C600 C 0.16044 0.85082 0.40094 0.0
C601 C 0.1303 0.8315 0.40192 0.0
C602 C 0.16273 0.8172 0.33165 0.0
C603 C 0.16134 0.83477 0.36681 0.0
C604 C 0.17835 0.81893 0.31419 0.0
C605 C 0.20858 0.83787 0.31339 0.0
C606 C 0.17741 0.83461 0.34843 0.0
C607 C 0.22261 0.85367 0.33088 0.0
C608 C 0.17599 0.85253 0.38346 0.0
C609 C 0.11626 0.81534 0.38455 0.0
N610 N 0.20691 0.85186 0.34759 0.0
N611 N 0.1319 0.81717 0.3678 0.0
H612 H 0.62758 0.87048 0.83269 0.0
H613 H 0.71932 0.80604 0.88545 0.0
H614 H 0.6492 0.8111 0.80333 0.0
H615 H 0.69571 0.86349 0.91548 0.0
H616 H 0.69537 0.80918 0.85488 0.0
H617 H 0.65162 0.86754 0.86329 0.0
C618 C 0.63687 0.85635 0.83278 0.0
C619 C 0.63633 0.841 0.81535 0.0
C620 C 0.69565 0.82133 0.86808 0.0
C621 C 0.66464 0.83814 0.8503 0.0
C622 C 0.70962 0.81981 0.88552 0.0
C623 C 0.70956 0.83452 0.90313 0.0
C624 C 0.68137 0.83761 0.86819 0.0
C625 C 0.69645 0.85187 0.90228 0.0
C626 C 0.65088 0.85492 0.85023 0.0
C627 C 0.64892 0.8232 0.8164 0.0
N628 N 0.68268 0.85274 0.88517 0.0
N629 N 0.66277 0.82246 0.8335 0.0
H630 H 0.1409 0.83132 0.91376 0.0
H631 H 0.19771 0.83712 0.80073 0.0
H632 H 0.20274 0.91067 0.88372 0.0
H633 H 0.13446 0.75789 0.8302 0.0
H634 H 0.20118 0.86419 0.83146 0.0
H635 H 0.1374 0.80412 0.88308 0.0
C636 C 0.15327 0.84313 0.9006 0.0
C637 C 0.17216 0.87337 0.90137 0.0
C638 C 0.18674 0.84083 0.83127 0.0
C639 C 0.16887 0.84222 0.86632 0.0
C640 C 0.18502 0.8253 0.81379 0.0
C641 C 0.16575 0.79515 0.81283 0.0
C642 C 0.16902 0.82616 0.84794 0.0
C643 C 0.14962 0.7811 0.83021 0.0
C644 C 0.15153 0.82753 0.88313 0.0
C645 C 0.18788 0.8874 0.88386 0.0
N646 N 0.15146 0.79673 0.84696 0.0
N647 N 0.18606 0.87171 0.86715 0.0
H648 H 0.1734 0.31168 0.91551 0.0
H649 H 0.16792 0.3622 0.80227 0.0
H650 H 0.0941 0.29422 0.88539 0.0
H651 H 0.24719 0.37928 0.83227 0.0
H652 H 0.14068 0.33855 0.83295 0.0
H653 H 0.20067 0.33535 0.88484 0.0
C654 C 0.16161 0.31223 0.90233 0.0
C655 C 0.13137 0.30092 0.90308 0.0
C656 C 0.16407 0.34772 0.83288 0.0
C657 C 0.1626 0.32874 0.86804 0.0
C658 C 0.17971 0.36157 0.81543 0.0
C659 C 0.20993 0.37276 0.81463 0.0
C660 C 0.17872 0.34497 0.84968 0.0
C661 C 0.22393 0.37098 0.83214 0.0
C662 C 0.17726 0.32609 0.88488 0.0
C663 C 0.11737 0.3026 0.88554 0.0
N664 N 0.20821 0.35715 0.84885 0.0
N665 N 0.1331 0.31645 0.86884 0.0
H666 H 0.80473 0.71531 0.66346 0.0
H667 H 0.86974 0.62388 0.7159 0.0
H668 H 0.86276 0.69245 0.63343 0.0
H669 H 0.81117 0.64618 0.74575 0.0
H670 H 0.86651 0.64782 0.68535 0.0
H671 H 0.80811 0.6915 0.69403 0.0
C672 C 0.81868 0.70581 0.66339 0.0
C673 C 0.83347 0.70591 0.64578 0.0
C674 C 0.85413 0.64726 0.6985 0.0
C675 C 0.83684 0.67787 0.68071 0.0
C676 C 0.85571 0.63329 0.71593 0.0
C677 C 0.8407 0.63298 0.73348 0.0
C678 C 0.8375 0.66118 0.69858 0.0
C679 C 0.82302 0.64573 0.73258 0.0
C680 C 0.82034 0.69192 0.68083 0.0
C681 C 0.85107 0.69306 0.64664 0.0
N682 N 0.82211 0.65951 0.7155 0.0
N683 N 0.85206 0.67936 0.66374 0.0
H684 H 0.38108 0.24844 0.71778 0.0
H685 H 0.29097 0.09195 0.66534 0.0
H686 H 0.36035 0.16784 0.74736 0.0
H687 H 0.31351 0.17262 0.63514 0.0
H688 H 0.31467 0.11928 0.69588 0.0
H689 H 0.3573 0.22122 0.68721 0.0
C690 C 0.37205 0.22506 0.71774 0.0
C691 C 0.37275 0.21043 0.73523 0.0
C692 C 0.31421 0.13102 0.68264 0.0
C693 C 0.34474 0.17898 0.70032 0.0
C694 C 0.30038 0.11538 0.66523 0.0
C695 C 0.30023 0.12998 0.64758 0.0
C696 C 0.32814 0.16155 0.68247 0.0
C697 C 0.31296 0.16041 0.64837 0.0
C698 C 0.35819 0.20948 0.70031 0.0
C699 C 0.36049 0.18008 0.73425 0.0
N700 N 0.3266 0.17518 0.66546 0.0
N701 N 0.34678 0.16535 0.71717 0.0
H702 H 0.91492 0.20353 0.66374 0.0
H703 H 0.75861 0.13676 0.71662 0.0
H704 H 0.83426 0.14341 0.63433 0.0
H705 H 0.83934 0.19605 0.74632 0.0
H706 H 0.78581 0.14023 0.68604 0.0
H707 H 0.88776 0.2002 0.69432 0.0
C708 C 0.89154 0.18915 0.66382 0.0
C709 C 0.87688 0.17372 0.64638 0.0
C710 C 0.79758 0.15271 0.69917 0.0
C711 C 0.84549 0.17039 0.68131 0.0
C712 C 0.78202 0.15099 0.71661 0.0
C713 C 0.79668 0.16613 0.73414 0.0
C714 C 0.8281 0.16961 0.69919 0.0
C715 C 0.82707 0.18408 0.73318 0.0
C716 C 0.876 0.1875 0.68126 0.0
C717 C 0.84653 0.15559 0.64741 0.0
N718 N 0.84178 0.18512 0.71608 0.0
N719 N 0.83183 0.15463 0.6645 0.0
H720 H 0.97938 0.47491 0.46789 0.0
H721 H 0.02923 0.53 0.58135 0.0
H722 H 0.96148 0.53629 0.49824 0.0
H723 H 0.04722 0.46869 0.551 0.0
H724 H 0.0056 0.53371 0.55071 0.0
H725 H 1.00306 0.47123 0.49853 0.0
C726 C 0.97984 0.48713 0.48112 0.0
C727 C 0.96841 0.50596 0.48044 0.0
C728 C 0.01497 0.51965 0.55068 0.0
C729 C 0.99624 0.50246 0.51544 0.0
C730 C 0.0288 0.5178 0.56813 0.0
C731 C 0.04024 0.49898 0.56881 0.0
C732 C 0.01247 0.50252 0.53379 0.0
C733 C 0.03873 0.48349 0.55121 0.0
C734 C 0.99371 0.4853 0.49855 0.0
C735 C 0.96997 0.52149 0.49803 0.0
N736 N 0.02489 0.48542 0.53451 0.0
N737 N 0.98383 0.51957 0.51472 0.0
H738 H 0.53291 0.50388 0.46919 0.0
H739 H 0.47653 0.49908 0.58222 0.0
H740 H 0.47049 0.42486 0.49929 0.0
H741 H 0.53934 0.57806 0.55227 0.0
H742 H 0.47294 0.47169 0.55163 0.0
H743 H 0.53666 0.53127 0.49981 0.0
C744 C 0.52047 0.49217 0.48236 0.0
C745 C 0.50133 0.46198 0.4816 0.0
C746 C 0.48731 0.49506 0.55168 0.0
C747 C 0.50492 0.49336 0.5166 0.0
C748 C 0.4891 0.51078 0.56909 0.0
C749 C 0.50828 0.54096 0.56987 0.0
C750 C 0.50487 0.50958 0.53492 0.0
C751 C 0.52425 0.55484 0.5524 0.0
C752 C 0.52235 0.50789 0.49978 0.0
C753 C 0.48554 0.44809 0.49913 0.0
N754 N 0.52236 0.53904 0.53573 0.0
N755 N 0.4875 0.46389 0.51581 0.0
H756 H 0.50225 0.02913 0.46835 0.0
H757 H 0.50758 0.97714 0.58118 0.0
H758 H 0.58127 0.04435 0.49778 0.0
H759 H 0.4285 0.96131 0.55152 0.0
H760 H 0.53481 1.00076 0.55049 0.0
H761 H 0.47508 0.00562 0.49908 0.0
C762 C 0.51401 0.02811 0.4814 0.0
C763 C 0.54413 0.03875 0.48043 0.0
C764 C 0.51146 0.99188 0.55063 0.0
C765 C 0.51299 0.01111 0.51554 0.0
C766 C 0.49582 0.97805 0.5681 0.0
C767 C 0.46567 0.9672 0.56899 0.0
C768 C 0.49687 0.99496 0.53392 0.0
C769 C 0.45171 0.96934 0.55157 0.0
C770 C 0.49841 0.01434 0.49888 0.0
C771 C 0.55809 0.03649 0.49779 0.0
N772 N 0.46743 0.98314 0.53485 0.0
N773 N 0.54241 0.02275 0.51454 0.0
H774 H 0.53192 0.02746 0.96712 0.0
H775 H 0.47489 0.97596 0.08005 0.0
H776 H 0.47018 0.04509 0.99724 0.0
H777 H 0.53728 0.95903 0.05019 0.0
H778 H 0.47161 0.99991 0.04943 0.0
H779 H 0.53512 0.00336 0.99769 0.0
C780 C 0.51951 0.02685 0.98028 0.0
C781 C 0.50074 0.03834 0.97956 0.0
C782 C 0.48582 0.99071 0.04951 0.0
C783 C 0.50369 0.01003 1.01447 0.0
C784 C 0.48742 0.97669 0.06693 0.0
C785 C 0.50641 0.96545 0.06775 0.0
C786 C 0.50337 0.99359 0.03277 0.0
C787 C 0.52234 0.96736 0.0503 0.0
C788 C 0.52108 0.01275 0.99768 0.0
C789 C 0.48496 0.03657 0.99706 0.0
N790 N 0.52063 0.98136 0.03362 0.0
N791 N 0.48662 0.02248 1.01371 0.0
H792 H 0.95945 0.42429 0.99736 0.0
H793 H 0.04837 0.58013 0.05086 0.0
H794 H 0.98023 0.50516 0.96816 0.0
H795 H 0.02751 0.49926 0.0801 0.0
H796 H 0.02476 0.55319 1.02018 0.0
H797 H 0.98306 0.45122 0.02805 0.0
C798 C 0.96846 0.44767 0.9975 0.0
C799 C 0.96783 0.46245 0.98009 0.0
C800 C 0.02557 0.54133 0.03323 0.0
C801 C 0.99564 0.49358 1.01515 0.0
C802 C 0.03934 0.55675 0.05073 0.0
C803 C 0.03995 0.54196 0.06815 0.0
C804 C 0.01214 0.51083 0.03309 0.0
C805 C 0.02771 0.51162 0.06704 0.0
C806 C 0.98223 0.46308 1.01501 0.0
C807 C 0.98005 0.49279 0.98121 0.0
N808 N 0.0141 0.49705 0.04989 0.0
N809 N 0.99366 0.50736 0.99836 0.0
H810 H 0.58242 0.53666 0.99698 0.0
H811 H 0.42586 0.47055 0.0494 0.0
H812 H 0.5017 0.4779 0.96707 0.0
H813 H 0.5066 0.52851 0.0796 0.0
H814 H 0.45316 0.47427 1.01882 0.0
H815 H 0.55517 0.53301 0.02759 0.0
C816 C 0.559 0.5225 0.99695 0.0
C817 C 0.54436 0.50757 0.97936 0.0
C818 C 0.46492 0.4864 0.03206 0.0
C819 C 0.51288 0.50389 1.01432 0.0
C820 C 0.4493 0.48455 0.04951 0.0
C821 C 0.46392 0.49923 0.06716 0.0
C822 C 0.49546 0.50299 0.03222 0.0
C823 C 0.49436 0.5169 0.06635 0.0
C824 C 0.54341 0.52068 1.0144 0.0
C825 C 0.51396 0.48971 0.98026 0.0
N826 N 0.50912 0.51808 0.04925 0.0
N827 N 0.49923 0.48857 0.99737 0.0
H828 H 0.22938 1.00133 0.965 0.0
H829 H 0.27228 0.09801 0.06566 0.0
H830 H 0.2221 0.96608 0.02481 0.0
H831 H 0.2963 0.13465 1.00588 0.0
H832 H 0.25043 0.04918 0.05098 0.0
H833 H 0.24983 0.05005 0.97973 0.0
C834 C 0.23182 0.00376 0.98123 0.0
C835 C 0.22406 0.97952 0.99366 0.0
C836 C 0.26058 0.06792 0.04109 0.0
C837 C 0.24759 0.03527 1.01062 0.0
C838 C 0.27311 0.09581 0.04947 0.0
C839 C 0.28626 0.12051 0.03701 0.0
C840 C 0.26093 0.06462 1.02006 0.0
C841 C 0.28655 0.11627 1.0161 0.0
C842 C 0.24367 0.03161 0.98962 0.0
C843 C 0.22787 0.98409 1.0146 0.0
N844 N 0.27398 0.08892 1.00829 0.0
N845 N 0.23935 0.01135 1.02239 0.0
H846 H 1.00357 0.23134 0.96704 0.0
H847 H 0.90759 0.17726 0.06799 0.0
H848 H 0.03923 0.25951 0.02672 0.0
H849 H 0.8705 0.16498 1.00837 0.0
H850 H 0.95632 0.20449 0.05315 0.0
H851 H 0.95494 0.20315 0.98193 0.0
C852 C 1.00125 0.23142 0.98327 0.0
C853 C 0.02558 0.24792 0.99562 0.0
C854 C 0.9375 0.19593 0.04333 0.0
C855 C 0.96992 0.21578 1.01276 0.0
C856 C 0.90967 0.18042 0.0518 0.0
C857 C 0.88488 0.16888 0.03943 0.0
C858 C 0.94064 0.19972 1.0223 0.0
C859 C 0.88895 0.17359 1.01852 0.0
C860 C 0.97344 0.21547 0.99175 0.0
C861 C 0.02114 0.24726 1.01657 0.0
N862 N 0.91626 0.1885 1.01063 0.0
N863 N 0.99393 0.2315 0.02445 0.0
H864 H 0.84329 0.70682 1.00777 0.0
H865 H 0.74981 0.78491 0.02747 0.0
H866 H 0.83144 0.73337 0.0669 0.0
H867 H 0.77863 0.77631 0.96828 0.0
H868 H 0.77739 0.76388 0.0422 0.0
H869 H 0.81678 0.72911 0.99312 0.0
C870 C 0.83493 0.71715 1.01771 0.0
C871 C 0.83958 0.71816 0.03863 0.0
C872 C 0.77783 0.76673 0.026 0.0
C873 C 0.80927 0.7439 1.02188 0.0
C874 C 0.76208 0.77876 1.01755 0.0
C875 C 0.76185 0.78239 0.99656 0.0
C876 C 0.79327 0.75789 1.0134 0.0
C877 C 0.77824 0.77404 0.98452 0.0
C878 C 0.81995 0.73004 1.0093 0.0
C879 C 0.82836 0.73203 0.05071 0.0
N880 N 0.7931 0.76199 0.9931 0.0
N881 N 0.81369 0.74429 0.04217 0.0
H882 H 0.96769 0.22045 0.52224 0.0
H883 H 0.13896 0.29909 0.54363 0.0
H884 H 0.00406 0.23199 0.58205 0.0
H885 H 0.10143 0.27253 0.48427 0.0
H886 H 0.08996 0.27718 0.55789 0.0
H887 H 0.01655 0.2412 0.50807 0.0
C888 C 0.98594 0.22719 0.53242 0.0
C889 C 0.98168 0.22447 0.55341 0.0
C890 C 0.09243 0.27616 0.54175 0.0
C891 C 0.03794 0.24863 0.5372 0.0
C892 C 0.12043 0.28883 0.53356 0.0
C893 C 0.12437 0.28772 0.51268 0.0
C894 C 0.06808 0.2624 0.52899 0.0
C895 C 0.09948 0.27396 0.50043 0.0
C896 C 0.01388 0.23907 0.52429 0.0
C897 C 0.00624 0.23356 0.5658 0.0
N898 N 0.07243 0.26189 0.50876 0.0
N899 N 0.03331 0.24541 0.55751 0.0
H900 H 0.78448 0.74604 0.52122 0.0
H901 H 0.70713 0.84039 0.54022 0.0
H902 H 0.77442 0.77388 0.58038 0.0
H903 H 0.73451 0.82865 0.48135 0.0
H904 H 0.72865 0.8133 0.55509 0.0
H905 H 0.76403 0.77402 0.50633 0.0
C906 C 0.77812 0.75816 0.5311 0.0
C907 C 0.78117 0.75754 0.55213 0.0
C908 C 0.72993 0.81662 0.53892 0.0
C909 C 0.75736 0.78946 0.53509 0.0
C910 C 0.71748 0.83194 0.53038 0.0
C911 C 0.71895 0.83678 0.50947 0.0
C912 C 0.74381 0.80581 0.52648 0.0
C913 C 0.73282 0.82543 0.49753 0.0
C914 C 0.76642 0.77415 0.52256 0.0
C915 C 0.77257 0.77377 0.56411 0.0
N916 N 0.74465 0.81044 0.5062 0.0
N917 N 0.76088 0.7889 0.55544 0.0
H918 H 0.2305 0.00279 0.58335 0.0
H919 H 0.17726 0.90683 0.48239 0.0
H920 H 0.25928 0.03848 0.52374 0.0
H921 H 0.1647 0.86981 0.54205 0.0
H922 H 0.20423 0.95557 0.49721 0.0
H923 H 0.20233 0.95421 0.56842 0.0
C924 C 0.23071 1.00049 0.56713 0.0
C925 C 0.24739 0.02481 0.55481 0.0
C926 C 0.19565 0.93677 0.50705 0.0
C927 C 0.21526 0.9692 0.53762 0.0
C928 C 0.18029 0.90893 0.49858 0.0
C929 C 0.16877 0.88416 0.51097 0.0
C930 C 0.19929 0.93993 0.52808 0.0
C931 C 0.1733 0.88825 0.53189 0.0
C932 C 0.21476 0.97271 0.55862 0.0
C933 C 0.24688 0.0204 0.53386 0.0
N934 N 0.18807 0.91556 0.53978 0.0
N935 N 0.23113 0.9932 0.52596 0.0
H936 H 0.70756 0.86857 0.0428 0.0
H937 H 0.78733 0.04038 1.02377 0.0
H938 H 0.7371 0.90783 0.98418 0.0
H939 H 0.77415 1.00233 0.08313 0.0
H940 H 0.76705 0.99195 1.00898 0.0
H941 H 0.72905 0.91715 0.05771 0.0
C942 C 0.71838 0.8874 0.03302 0.0
C943 C 0.72046 0.88407 1.01217 0.0
C944 C 0.76872 0.99416 0.02524 0.0
C945 C 0.74528 0.93985 0.02923 0.0
C946 C 0.78032 0.02185 0.03373 0.0
C947 C 0.78245 0.0255 0.05477 0.0
C948 C 0.75881 0.96974 0.03783 0.0
C949 C 0.77304 1.00061 0.06685 0.0
C950 C 0.7308 0.91514 0.04159 0.0
C951 C 0.73492 0.90931 1.00031 0.0
N952 N 0.76145 0.97378 0.05821 0.0
N953 N 0.74672 0.9361 1.00899 0.0
H954 H 0.0994 0.82788 0.98197 0.0
H955 H 0.00451 0.77461 0.08344 0.0
H956 H 0.13714 0.84061 0.0414 0.0
H957 H 0.96816 0.74644 1.02392 0.0
H958 H 0.05301 0.8026 0.0683 0.0
H959 H 0.05084 0.80087 0.99707 0.0
C960 C 0.0975 0.82486 0.99818 0.0
C961 C 0.12242 0.83646 1.01041 0.0
C962 C 0.03438 0.79033 0.05857 0.0
C963 C 0.06685 0.80588 0.02784 0.0
C964 C 0.00666 0.77449 0.0672 0.0
C965 C 0.98217 0.75805 0.05496 0.0
C966 C 0.03766 0.78995 0.03754 0.0
C967 C 0.98637 0.75866 0.03398 0.0
C968 C 0.06976 0.80948 1.0068 0.0
C969 C 0.11858 0.83195 0.03135 0.0
N970 N 0.01352 0.7743 0.02597 0.0
N971 N 0.09136 0.81715 0.03939 0.0
H972 H 0.16584 0.30044 0.04288 0.0
H973 H 0.25669 0.21975 1.0221 0.0
H974 H 0.17556 0.27221 0.98378 0.0
H975 H 0.23305 0.23303 0.08184 0.0
H976 H 0.22877 0.24062 1.00779 0.0
H977 H 0.19274 0.27842 0.05731 0.0
C978 C 0.1738 0.28979 0.03289 0.0
C979 C 0.16845 0.28824 1.01205 0.0
C980 C 0.22954 0.23885 1.02403 0.0
C981 C 0.19919 0.2628 0.02856 0.0
C982 C 0.24549 0.22691 0.03224 0.0
C983 C 0.2473 0.22464 0.05325 0.0
C984 C 0.21543 0.24894 0.03686 0.0
C985 C 0.23223 0.23425 0.06558 0.0
C986 C 0.18902 0.27706 0.04119 0.0
C987 C 0.17918 0.27399 0.99991 0.0
N988 N 0.2171 0.24615 0.0572 0.0
N989 N 0.19405 0.26187 1.00834 0.0
H990 H 0.86862 0.70427 0.50621 0.0
H991 H 0.0403 0.7851 0.52619 0.0
H992 H 0.90707 0.7336 0.56506 0.0
H993 H 1.00282 0.77178 0.46663 0.0
H994 H 0.99165 0.76434 0.54073 0.0
H995 H 0.9174 0.72609 0.49158 0.0
C996 C 0.88731 0.71511 0.5161 0.0
C997 C 0.88369 0.71704 0.53693 0.0
C998 C 0.99404 0.76608 0.52449 0.0
C999 C 0.93972 0.74225 0.5202 0.0
C1000 C 0.02185 0.77796 0.51614 0.0
C1001 C 0.02573 0.7802 0.49511 0.0
C1002 C 0.96973 0.75601 0.51176 0.0
C1003 C 1.00093 0.7706 0.48291 0.0
C1004 C 0.91518 0.72773 0.5077 0.0
C1005 C 0.90878 0.73153 0.54894 0.0
N1006 N 0.97399 0.75875 0.4914 0.0
N1007 N 0.93569 0.74353 0.54041 0.0
H1008 H 0.23386 0.2321 0.46702 0.0
H1009 H 0.27385 0.17584 0.56779 0.0
H1010 H 0.22424 0.25806 0.52694 0.0
H1011 H 0.29991 0.16491 0.50824 0.0
H1012 H 0.25246 0.2032 0.55303 0.0
H1013 H 0.25427 0.20377 0.48177 0.0
C1014 C 0.23579 0.23167 0.48326 0.0
C1015 C 0.22737 0.24759 0.49573 0.0
C1016 C 0.26296 0.19491 0.5432 0.0
C1017 C 0.25083 0.21529 0.51271 0.0
C1018 C 0.27523 0.17932 0.55163 0.0
C1019 C 0.2888 0.16812 0.53926 0.0
C1020 C 0.26399 0.19912 0.5222 0.0
C1021 C 0.2898 0.17324 0.51839 0.0
C1022 C 0.24761 0.21563 0.49167 0.0
C1023 C 0.23053 0.24627 0.5167 0.0
N1024 N 0.27746 0.18823 0.51052 0.0
N1025 N 0.24198 0.23045 0.5245 0.0
H1026 H 0.74921 0.96524 0.52424 0.0
H1027 H 0.84272 0.13691 0.50493 0.0
H1028 H 0.7759 0.00301 0.46494 0.0
H1029 H 0.83051 0.09795 0.5639 0.0
H1030 H 0.81595 0.08828 0.49009 0.0
H1031 H 0.77714 0.01371 0.53902 0.0
C1032 C 0.76108 0.98371 0.5143 0.0
C1033 C 0.76013 0.97997 0.49327 0.0
C1034 C 0.8191 0.09036 0.50627 0.0
C1035 C 0.79201 0.03578 0.51019 0.0
C1036 C 0.83424 0.11815 0.5148 0.0
C1037 C 0.83885 0.12158 0.53573 0.0
C1038 C 0.80824 0.06571 0.51875 0.0
C1039 C 0.82747 0.09639 0.5477 0.0
C1040 C 0.77704 0.01142 0.52278 0.0
C1041 C 0.77605 0.00479 0.48121 0.0
N1042 N 0.81267 0.06956 0.53905 0.0
N1043 N 0.79116 0.03164 0.48983 0.0
H1044 H 0.96799 0.47176 0.34037 0.0
H1045 H 0.8899 0.30021 0.36019 0.0
H1046 H 0.94057 0.43311 0.39936 0.0
H1047 H 0.90115 0.33763 0.30075 0.0
H1048 H 0.91036 0.34877 0.37481 0.0
H1049 H 0.94639 0.42304 0.32568 0.0
C1050 C 0.95761 0.45304 0.35027 0.0
C1051 C 0.95616 0.45658 0.37116 0.0
C1052 C 0.90823 0.34639 0.35858 0.0
C1053 C 0.93121 0.40063 0.35437 0.0
C1054 C 0.89652 0.31862 0.35019 0.0
C1055 C 0.8938 0.31476 0.32917 0.0
C1056 C 0.91763 0.37066 0.3459 0.0
C1057 C 0.90273 0.33951 0.31702 0.0
C1058 C 0.94512 0.42521 0.34184 0.0
C1059 C 0.94226 0.43147 0.3832 0.0
N1060 N 0.91442 0.3664 0.32556 0.0
N1061 N 0.93038 0.40459 0.37464 0.0
H1062 H 0.57477 0.50776 0.40146 0.0
H1063 H 0.67003 0.55949 0.30016 0.0
H1064 H 0.53733 0.49513 0.34194 0.0
H1065 H 0.70614 0.58968 0.35949 0.0
H1066 H 0.62156 0.53154 0.31532 0.0
H1067 H 0.62343 0.53443 0.38644 0.0
C1068 C 0.57676 0.51072 0.38525 0.0
C1069 C 0.55189 0.49927 0.37296 0.0
C1070 C 0.64013 0.54423 0.32501 0.0
C1071 C 0.60756 0.52942 0.35564 0.0
C1072 C 0.66784 0.56004 0.31637 0.0
C1073 C 0.69224 0.57706 0.32854 0.0
C1074 C 0.63677 0.5452 0.34598 0.0
C1075 C 0.68799 0.577 0.34948 0.0
C1076 C 0.60455 0.5259 0.37668 0.0
C1077 C 0.55585 0.50369 0.35203 0.0
N1078 N 0.66085 0.56137 0.35752 0.0
N1079 N 0.58311 0.51828 0.34404 0.0
H1080 H 0.49798 0.06745 0.39941 0.0
H1081 H 0.444 0.10943 0.29839 0.0
H1082 H 0.51094 0.04326 0.33977 0.0
H1083 H 0.4162 0.11728 0.35812 0.0
H1084 H 0.47236 0.08914 0.31327 0.0
H1085 H 0.4709 0.08907 0.38454 0.0
C1086 C 0.49501 0.06654 0.3832 0.0
C1087 C 0.50668 0.05341 0.37084 0.0
C1088 C 0.4601 0.09539 0.3231 0.0
C1089 C 0.476 0.07848 0.35367 0.0
C1090 C 0.44404 0.10715 0.31462 0.0
C1091 C 0.42759 0.11502 0.32699 0.0
C1092 C 0.45991 0.09168 0.34412 0.0
C1093 C 0.42842 0.11141 0.34795 0.0
C1094 C 0.47958 0.07894 0.37471 0.0
C1095 C 0.50222 0.05301 0.34991 0.0
N1096 N 0.44425 0.10003 0.35583 0.0
N1097 N 0.48736 0.06545 0.342 0.0
H1098 H 0.63375 0.55612 0.85483 0.0
H1099 H 0.80532 0.63243 0.87422 0.0
H1100 H 0.67134 0.56632 0.91412 0.0
H1101 H 0.76636 0.60548 0.81527 0.0
H1102 H 0.75669 0.61124 0.889 0.0
H1103 H 0.68222 0.57628 0.84007 0.0
C1104 C 0.65218 0.56246 0.86477 0.0
C1105 C 0.64839 0.55951 0.88579 0.0
C1106 C 0.75876 0.60998 0.87284 0.0
C1107 C 0.70419 0.58299 0.86889 0.0
C1108 C 0.78655 0.62224 0.86434 0.0
C1109 C 0.78998 0.6208 0.84343 0.0
C1110 C 0.73411 0.59633 0.86035 0.0
C1111 C 0.7648 0.60714 0.83145 0.0
C1112 C 0.67989 0.57399 0.8563 0.0
C1113 C 0.67316 0.56808 0.89785 0.0
N1114 N 0.73796 0.5955 0.84007 0.0
N1115 N 0.7 0.5796 0.88924 0.0
H1116 H 0.40127 0.1641 0.81567 0.0
H1117 H 0.44385 0.10963 0.91616 0.0
H1118 H 0.37707 0.17637 0.87549 0.0
H1119 H 0.4513 0.08205 0.85627 0.0
H1120 H 0.42343 0.138 0.90153 0.0
H1121 H 0.42305 0.13701 0.83027 0.0
C1122 C 0.40039 0.16098 0.83186 0.0
C1123 C 0.38721 0.17246 0.84435 0.0
C1124 C 0.42962 0.12579 0.8916 0.0
C1125 C 0.41246 0.14176 0.86121 0.0
C1126 C 0.44145 0.10973 0.89994 0.0
C1127 C 0.44925 0.09333 0.88746 0.0
C1128 C 0.42576 0.12567 0.87061 0.0
C1129 C 0.44549 0.09422 0.86652 0.0
C1130 C 0.41288 0.14554 0.8402 0.0
C1131 C 0.38685 0.1678 0.86525 0.0
N1132 N 0.43403 0.11007 0.85878 0.0
N1133 N 0.39938 0.15294 0.87302 0.0
H1134 H 0.89874 0.33612 0.91545 0.0
H1135 H 0.84371 0.24059 0.81437 0.0
H1136 H 0.9257 0.37214 0.85573 0.0
H1137 H 0.83245 0.20327 0.87383 0.0
H1138 H 0.87085 0.28925 0.82927 0.0
H1139 H 0.8706 0.28753 0.90051 0.0
C1140 C 0.89856 0.33388 0.89921 0.0
C1141 C 0.91471 0.3583 0.88686 0.0
C1142 C 0.86253 0.27041 0.83905 0.0
C1143 C 0.88262 0.3027 0.86965 0.0
C1144 C 0.84707 0.24261 0.83054 0.0
C1145 C 0.83585 0.21777 0.84284 0.0
C1146 C 0.86659 0.27346 0.86006 0.0
C1147 C 0.84081 0.22176 0.86373 0.0
C1148 C 0.88263 0.3061 0.89069 0.0
C1149 C 0.91372 0.35398 0.86588 0.0
N1150 N 0.85567 0.24903 0.87167 0.0
N1151 N 0.89799 0.32679 0.85796 0.0
H1152 H 0.40076 0.23985 0.31547 0.0
H1153 H 0.4424 0.33422 0.41716 0.0
H1154 H 0.37566 0.20181 0.37481 0.0
H1155 H 0.4508 0.37088 0.35771 0.0
H1156 H 0.42177 0.28579 0.40192 0.0
H1157 H 0.42233 0.28832 0.33068 0.0
C1158 C 0.39963 0.24166 0.33168 0.0
C1159 C 0.38627 0.21669 0.34386 0.0
C1160 C 0.42821 0.30447 0.39223 0.0
C1161 C 0.4113 0.27216 0.36142 0.0
C1162 C 0.44015 0.33216 0.40091 0.0
C1163 C 0.4483 0.35671 0.38873 0.0
C1164 C 0.42459 0.3013 0.37119 0.0
C1165 C 0.44473 0.35261 0.36774 0.0
C1166 C 0.412 0.26936 0.34036 0.0
C1167 C 0.38559 0.22043 0.3648 0.0
N1168 N 0.43317 0.32551 0.35967 0.0
N1169 N 0.39803 0.2476 0.37291 0.0
H1170 H 0.67174 0.10819 0.41665 0.0
H1171 H 0.76814 0.16414 0.31592 0.0
H1172 H 0.63615 0.08282 0.35668 0.0
H1173 H 0.80501 0.1748 0.37549 0.0
H1174 H 0.71936 0.13711 0.33066 0.0
H1175 H 0.72052 0.13631 0.40194 0.0
C1176 C 0.67411 0.10871 0.4004 0.0
C1177 C 0.64975 0.09301 0.38791 0.0
C1178 C 0.73813 0.14528 0.3405 0.0
C1179 C 0.70556 0.12507 0.37097 0.0
C1180 C 0.766 0.16067 0.33208 0.0
C1181 C 0.79074 0.17169 0.34446 0.0
C1182 C 0.7349 0.14107 0.36149 0.0
C1183 C 0.78659 0.1666 0.36533 0.0
C1184 C 0.702 0.12464 0.39201 0.0
C1185 C 0.65425 0.09445 0.36694 0.0
N1186 N 0.75924 0.15179 0.37319 0.0
N1187 N 0.68154 0.11014 0.35916 0.0
H1188 H 0.8988 0.56449 0.41652 0.0
H1189 H 0.84344 0.60428 0.31528 0.0
H1190 H 0.92627 0.55587 0.35687 0.0
H1191 H 0.83208 0.63059 0.37463 0.0
H1192 H 0.87084 0.58311 0.3303 0.0
H1193 H 0.87045 0.5847 0.4015 0.0
C1194 C 0.89869 0.5666 0.40028 0.0
C1195 C 0.91504 0.55852 0.38797 0.0
C1196 C 0.86245 0.59362 0.34002 0.0
C1197 C 0.88272 0.58174 0.37068 0.0
C1198 C 0.84684 0.60576 0.33145 0.0
C1199 C 0.83551 0.61934 0.34369 0.0
C1200 C 0.86654 0.59477 0.36103 0.0
C1201 C 0.84052 0.62048 0.36458 0.0
C1202 C 0.88264 0.57831 0.39172 0.0
C1203 C 0.91414 0.5619 0.36699 0.0
N1204 N 0.85553 0.60825 0.37259 0.0
N1205 N 0.89829 0.57322 0.35903 0.0
H1206 H 0.53563 0.04053 0.83911 0.0
H1207 H 0.70728 0.11851 0.85865 0.0
H1208 H 0.5744 0.06731 0.89812 0.0
H1209 H 0.66967 0.10773 0.79932 0.0
H1210 H 0.65875 0.0979 0.87338 0.0
H1211 H 0.58433 0.06229 0.82435 0.0
C1212 C 0.55437 0.0508 0.849 0.0
C1213 C 0.55087 0.05203 0.86992 0.0
C1214 C 0.66109 0.10017 0.85714 0.0
C1215 C 0.60681 0.07716 0.85304 0.0
C1216 C 0.68884 0.11197 0.84869 0.0
C1217 C 0.69264 0.11486 0.82767 0.0
C1218 C 0.63676 0.09085 0.84452 0.0
C1219 C 0.66784 0.10601 0.81559 0.0
C1220 C 0.5822 0.06338 0.84053 0.0
C1221 C 0.57602 0.0658 0.88193 0.0
N1222 N 0.64096 0.09424 0.82418 0.0
N1223 N 0.60289 0.07777 0.87333 0.0
H1224 H 0.93979 0.50937 0.89906 0.0
H1225 H 0.89792 0.56311 0.79791 0.0
H1226 H 0.965 0.49728 0.83953 0.0
H1227 H 0.88951 0.59072 0.85756 0.0
H1228 H 0.9185 0.53509 0.81288 0.0
H1229 H 0.91797 0.53623 0.88413 0.0
C1230 C 0.94089 0.51249 0.88287 0.0
C1231 C 0.95436 0.50113 0.87056 0.0
C1232 C 0.91207 0.54723 0.82268 0.0
C1233 C 0.92905 0.53154 0.85331 0.0
C1234 C 0.90014 0.56309 0.81415 0.0
C1235 C 0.89202 0.5794 0.82646 0.0
C1236 C 0.91569 0.54745 0.84371 0.0
C1237 C 0.89557 0.57861 0.84744 0.0
C1238 C 0.92837 0.52779 0.87434 0.0
C1239 C 0.95499 0.50577 0.84964 0.0
N1240 N 0.90711 0.56295 0.85537 0.0
N1241 N 0.94242 0.52048 0.84169 0.0
H1242 H 0.498 0.43397 0.89973 0.0
H1243 H 0.44196 0.33732 0.79919 0.0
H1244 H 0.50825 0.4706 0.84012 0.0
H1245 H 0.41612 0.30189 0.85916 0.0
H1246 H 0.47011 0.38609 0.81385 0.0
H1247 H 0.47091 0.38514 0.88509 0.0
C1248 C 0.49443 0.43177 0.88358 0.0
C1249 C 0.50535 0.45646 0.87116 0.0
C1250 C 0.45832 0.36761 0.82379 0.0
C1251 C 0.47467 0.40058 0.85425 0.0
C1252 C 0.44239 0.33973 0.81543 0.0
C1253 C 0.42655 0.31542 0.82793 0.0
C1254 C 0.45864 0.37122 0.84482 0.0
C1255 C 0.42786 0.31995 0.8489 0.0
C1256 C 0.47899 0.40387 0.87522 0.0
C1257 C 0.50013 0.45223 0.85031 0.0
N1258 N 0.44357 0.34725 0.85665 0.0
N1259 N 0.48529 0.42486 0.84251 0.0
H1260 H 0.566 0.66895 0.63358 0.0
H1261 H 0.60734 0.7651 0.73445 0.0
H1262 H 0.55728 0.63337 0.69342 0.0
H1263 H 0.63204 0.8021 0.6748 0.0
H1264 H 0.5858 0.71638 0.71966 0.0
H1265 H 0.58642 0.71764 0.64837 0.0
C1266 C 0.56813 0.6713 0.64982 0.0
C1267 C 0.55996 0.64697 0.66225 0.0
C1268 C 0.59603 0.73516 0.70981 0.0
C1269 C 0.58344 0.70269 0.67928 0.0
C1270 C 0.60839 0.763 0.71826 0.0
C1271 C 0.62163 0.78777 0.70587 0.0
C1272 C 0.59665 0.73199 0.68879 0.0
C1273 C 0.6222 0.78366 0.68496 0.0
C1274 C 0.57996 0.69914 0.65825 0.0
C1275 C 0.56337 0.65145 0.68321 0.0
N1276 N 0.6098 0.75635 0.67709 0.0
N1277 N 0.57483 0.67869 0.69104 0.0
H1278 H 0.24033 0.84091 0.73264 0.0
H1279 H 0.33771 0.89664 0.63233 0.0
H1280 H 0.20405 0.82944 0.67282 0.0
H1281 H 0.37262 0.92262 0.6924 0.0
H1282 H 0.28883 0.86826 0.64683 0.0
H1283 H 0.28925 0.86803 0.71813 0.0
C1284 C 0.24263 0.84421 0.71647 0.0
C1285 C 0.21801 0.83295 0.70396 0.0
C1286 C 0.30723 0.88012 0.65683 0.0
C1287 C 0.27401 0.86368 0.68718 0.0
C1288 C 0.33517 0.89619 0.64856 0.0
C1289 C 0.35937 0.91214 0.66113 0.0
C1290 C 0.30344 0.87979 0.67784 0.0
C1291 C 0.35466 0.9108 0.68208 0.0
C1292 C 0.27058 0.85966 0.70818 0.0
C1293 C 0.22237 0.83783 0.68308 0.0
N1294 N 0.32731 0.89497 0.68974 0.0
N1295 N 0.24978 0.85271 0.67536 0.0
H1296 H 0.17654 0.37358 0.67384 0.0
H1297 H 0.08116 0.44982 0.69295 0.0
H1298 H 0.16414 0.40033 0.73275 0.0
H1299 H 0.1089 0.43978 0.63374 0.0
H1300 H 0.10946 0.4297 0.7078 0.0
H1301 H 0.14925 0.39488 0.65897 0.0
C1302 C 0.16792 0.38376 0.68369 0.0
C1303 C 0.17262 0.3851 0.70461 0.0
C1304 C 0.10949 0.43202 0.69157 0.0
C1305 C 0.14141 0.4097 0.6876 0.0
C1306 C 0.09333 0.44353 0.68304 0.0
C1307 C 0.09258 0.44649 0.66202 0.0
C1308 C 0.12488 0.42306 0.67901 0.0
C1309 C 0.10888 0.438 0.65001 0.0
C1310 C 0.15247 0.39608 0.67515 0.0
C1311 C 0.16104 0.39874 0.71657 0.0
N1312 N 0.12419 0.42649 0.65866 0.0
N1313 N 0.14594 0.41045 0.7079 0.0
H1314 H 0.33647 0.89506 0.24941 0.0
H1315 H 0.43217 0.93692 0.1483 0.0
H1316 H 0.30062 0.88707 0.18973 0.0
H1317 H 0.46943 0.96169 0.20787 0.0
H1318 H 0.38349 0.91522 0.16321 0.0
H1319 H 0.38507 0.91543 0.23446 0.0
C1320 C 0.33874 0.89733 0.23317 0.0
C1321 C 0.31437 0.88939 0.22084 0.0
C1322 C 0.40233 0.9255 0.17301 0.0
C1323 C 0.36998 0.91283 0.20363 0.0
C1324 C 0.43014 0.93794 0.1645 0.0
C1325 C 0.45496 0.95126 0.17683 0.0
C1326 C 0.39924 0.92609 0.19405 0.0
C1327 C 0.45095 0.9518 0.19775 0.0
C1328 C 0.36653 0.90913 0.22465 0.0
C1329 C 0.31874 0.89299 0.19987 0.0
N1330 N 0.42366 0.93931 0.20569 0.0
N1331 N 0.34594 0.90442 0.19196 0.0
H1332 H 0.11019 0.44139 0.25014 0.0
H1333 H 0.06836 0.49546 0.1491 0.0
H1334 H 0.1191 0.41446 0.19037 0.0
H1335 H 0.04311 0.50738 0.20866 0.0
H1336 H 0.09026 0.46865 0.16398 0.0
H1337 H 0.08951 0.4694 0.23525 0.0
C1338 C 0.10805 0.44155 0.23389 0.0
C1339 C 0.11634 0.42545 0.22152 0.0
C1340 C 0.07984 0.47704 0.17379 0.0
C1341 C 0.09256 0.45736 0.20438 0.0
C1342 C 0.06727 0.49231 0.16529 0.0
C1343 C 0.05377 0.50362 0.17763 0.0
C1344 C 0.07916 0.47325 0.19482 0.0
C1345 C 0.05315 0.49894 0.19854 0.0
C1346 C 0.09608 0.45741 0.22541 0.0
C1347 C 0.11291 0.42641 0.20055 0.0
N1348 N 0.06576 0.48425 0.20647 0.0
N1349 N 0.10131 0.44204 0.19267 0.0
H1350 H 0.59257 0.70529 0.18801 0.0
H1351 H 0.49995 0.53352 0.20704 0.0
H1352 H 0.56621 0.66728 0.24727 0.0
H1353 H 0.5105 0.57266 0.14829 0.0
H1354 H 0.52695 0.58211 0.22192 0.0
H1355 H 0.56478 0.65684 0.17317 0.0
C1356 C 0.58082 0.68677 0.19793 0.0
C1357 C 0.5818 0.69044 0.21897 0.0
C1358 C 0.5234 0.58008 0.20578 0.0
C1359 C 0.55008 0.63466 0.20198 0.0
C1360 C 0.50812 0.55232 0.19723 0.0
C1361 C 0.50296 0.54895 0.17635 0.0
C1362 C 0.53383 0.60477 0.19337 0.0
C1363 C 0.51396 0.57417 0.16444 0.0
C1364 C 0.56493 0.65907 0.18941 0.0
C1365 C 0.56603 0.66556 0.231 0.0
N1366 N 0.5289 0.60098 0.17311 0.0
N1367 N 0.55099 0.63873 0.22234 0.0
H1368 H 0.10751 0.66784 0.74885 0.0
H1369 H 0.06727 0.57166 0.64808 0.0
H1370 H 0.11747 0.70357 0.68894 0.0
H1371 H 0.04059 0.53473 0.70759 0.0
H1372 H 0.08895 0.62042 0.66284 0.0
H1373 H 0.08686 0.61912 0.73408 0.0
C1374 C 0.10561 0.66551 0.7326 0.0
C1375 C 0.1142 0.68989 0.72014 0.0
C1376 C 0.07825 0.60164 0.67266 0.0
C1377 C 0.09044 0.63414 0.70314 0.0
C1378 C 0.06582 0.57378 0.66423 0.0
C1379 C 0.05199 0.54903 0.67659 0.0
C1380 C 0.07712 0.60483 0.69364 0.0
C1381 C 0.05089 0.55316 0.69745 0.0
C1382 C 0.09364 0.63766 0.72418 0.0
C1383 C 0.11105 0.68545 0.69917 0.0
N1384 N 0.0634 0.58048 0.70531 0.0
N1385 N 0.09946 0.65819 0.69135 0.0
H1386 H 0.33776 0.44206 0.75087 0.0
H1387 H 0.43424 0.49581 0.6501 0.0
H1388 H 0.30228 0.41469 0.69106 0.0
H1389 H 0.47103 0.50804 0.70981 0.0
H1390 H 0.38544 0.46894 0.66484 0.0
H1391 H 0.3865 0.47004 0.7361 0.0
C1392 C 0.34014 0.44211 0.73464 0.0
C1393 C 0.31583 0.42589 0.72222 0.0
C1394 C 0.4042 0.47742 0.67471 0.0
C1395 C 0.37161 0.45779 0.70521 0.0
C1396 C 0.43208 0.49272 0.66629 0.0
C1397 C 0.45681 0.50413 0.67871 0.0
C1398 C 0.40095 0.4737 0.69573 0.0
C1399 C 0.45263 0.49952 0.69962 0.0
C1400 C 0.36801 0.45796 0.72622 0.0
C1401 C 0.32035 0.42673 0.70127 0.0
N1402 N 0.42528 0.48479 0.70747 0.0
N1403 N 0.34762 0.44236 0.69345 0.0
H1404 H 0.5653 0.89679 0.75094 0.0
H1405 H 0.51096 0.93835 0.64989 0.0
H1406 H 0.59201 0.88769 0.69115 0.0
H1407 H 0.49833 0.96289 0.7095 0.0
H1408 H 0.53797 0.91666 0.66477 0.0
H1409 H 0.53711 0.91727 0.73607 0.0
C1410 C 0.56505 0.89884 0.7347 0.0
C1411 C 0.58115 0.89055 0.72231 0.0
C1412 C 0.52938 0.92688 0.67459 0.0
C1413 C 0.54903 0.91412 0.70518 0.0
C1414 C 0.514 0.93933 0.66609 0.0
C1415 C 0.50243 0.95257 0.67844 0.0
C1416 C 0.53303 0.92741 0.69562 0.0
C1417 C 0.50696 0.95305 0.69936 0.0
C1418 C 0.54909 0.9107 0.72622 0.0
C1419 C 0.58007 0.89387 0.70133 0.0
N1420 N 0.52178 0.94057 0.70729 0.0
N1421 N 0.56435 0.90538 0.69346 0.0
H1422 H 0.20293 0.37312 0.17301 0.0
H1423 H 0.37473 0.45047 0.19164 0.0
H1424 H 0.24235 0.39992 0.23183 0.0
H1425 H 0.33657 0.44011 0.13254 0.0
H1426 H 0.32636 0.43003 0.20662 0.0
H1427 H 0.25146 0.39474 0.15799 0.0
C1428 C 0.22178 0.38336 0.18281 0.0
C1429 C 0.21851 0.38463 0.20375 0.0
C1430 C 0.32855 0.43235 0.19039 0.0
C1431 C 0.27425 0.40961 0.18658 0.0
C1432 C 0.3562 0.44405 0.18179 0.0
C1433 C 0.35979 0.44701 0.16076 0.0
C1434 C 0.30411 0.4232 0.1779 0.0
C1435 C 0.3349 0.43834 0.14881 0.0
C1436 C 0.2495 0.39587 0.17418 0.0
C1437 C 0.24379 0.39838 0.21564 0.0
N1438 N 0.30812 0.42665 0.15754 0.0
N1439 N 0.27056 0.41027 0.20689 0.0
H1440 H 0.56446 0.89569 0.13161 0.0
H1441 H 0.60539 0.84061 0.23252 0.0
H1442 H 0.5549 0.92198 0.19144 0.0
H1443 H 0.63188 0.83006 0.17302 0.0
H1444 H 0.58342 0.86739 0.21769 0.0
H1445 H 0.58511 0.86765 0.14646 0.0
C1446 C 0.56645 0.89538 0.14786 0.0
C1447 C 0.55799 0.91133 0.16027 0.0
C1448 C 0.59414 0.8593 0.20789 0.0
C1449 C 0.58173 0.87936 0.17736 0.0
C1450 C 0.60674 0.84405 0.21636 0.0
C1451 C 0.62061 0.83315 0.20402 0.0
C1452 C 0.59514 0.86347 0.1869 0.0
C1453 C 0.62155 0.83819 0.18315 0.0
C1454 C 0.57841 0.87951 0.15632 0.0
C1455 C 0.56123 0.91017 0.18125 0.0
N1456 N 0.6089 0.85285 0.17525 0.0
N1457 N 0.57282 0.89451 0.1891 0.0
H1458 H 0.16332 0.76459 0.23346 0.0
H1459 H 0.10926 0.66849 0.13257 0.0
H1460 H 0.17507 0.80157 0.17384 0.0
H1461 H 0.08226 0.63275 0.19236 0.0
H1462 H 0.13717 0.71718 0.1474 0.0
H1463 H 0.13644 0.71584 0.21865 0.0
C1464 C 0.16012 0.76248 0.21727 0.0
C1465 C 0.1714 0.78725 0.2049 0.0
C1466 C 0.12518 0.69864 0.15726 0.0
C1467 C 0.14096 0.73146 0.1878 0.0
C1468 C 0.10938 0.67081 0.1488 0.0
C1469 C 0.09329 0.64643 0.16121 0.0
C1470 C 0.1251 0.70215 0.17828 0.0
C1471 C 0.09421 0.65086 0.18217 0.0
C1472 C 0.1448 0.73463 0.20882 0.0
C1473 C 0.16665 0.78313 0.184 0.0
N1474 N 0.10979 0.67811 0.19002 0.0
N1475 N 0.15193 0.75582 0.17611 0.0
H1476 H 0.38525 0.25268 0.1186 0.0
H1477 H 0.46481 0.41803 0.09147 0.0
H1478 H 0.39808 0.2863 0.05801 0.0
H1479 H 0.44931 0.38441 0.15214 0.0
H1480 H 0.4562 0.37114 0.07896 0.0
H1481 H 0.42353 0.30004 0.13043 0.0
C1482 C 0.39692 0.26989 0.10768 0.0
C1483 C 0.38829 0.26589 0.08738 0.0
C1484 C 0.45544 0.37411 0.09507 0.0
C1485 C 0.43134 0.32039 0.1009 0.0
C1486 C 0.46047 0.40092 0.10222 0.0
C1487 C 0.45721 0.40476 0.1228 0.0
C1488 C 0.44636 0.35077 0.10856 0.0
C1489 C 0.45181 0.38216 0.13614 0.0
C1490 C 0.41867 0.29697 0.11446 0.0
C1491 C 0.40405 0.28865 0.07381 0.0
N1492 N 0.44576 0.35578 0.12872 0.0
N1493 N 0.42435 0.31526 0.08091 0.0
H1494 H 0.58698 0.04799 0.09397 0.0
H1495 H 0.75209 0.13165 0.12208 0.0
H1496 H 0.61989 0.06324 0.15482 0.0
H1497 H 0.71921 0.11379 0.06123 0.0
H1498 H 0.70464 0.12222 0.134 0.0
H1499 H 0.63415 0.08655 0.08208 0.0
C1500 C 0.604 0.06019 0.10491 0.0
C1501 C 0.59987 0.05219 0.12533 0.0
C1502 C 0.70789 0.12113 0.11797 0.0
C1503 C 0.65416 0.09565 0.11178 0.0
C1504 C 0.73502 0.12664 0.11114 0.0
C1505 C 0.73925 0.12295 0.09071 0.0
C1506 C 0.68465 0.11114 0.1043 0.0
C1507 C 0.71667 0.11666 0.07712 0.0
C1508 C 0.63096 0.08213 0.09811 0.0
C1509 C 0.62235 0.06869 0.13893 0.0
N1510 N 0.69001 0.11016 0.08424 0.0
N1511 N 0.64888 0.08919 0.13183 0.0
H1512 H 0.88896 0.60469 0.06101 0.0
H1513 H 0.94039 0.55354 0.15617 0.0
H1514 H 0.87889 0.62367 0.12272 0.0
H1515 H 0.95799 0.54193 0.09444 0.0
H1516 H 0.90185 0.56275 0.14437 0.0
H1517 H 0.89768 0.56588 0.07295 0.0
C1518 C 0.88752 0.59994 0.077 0.0
C1519 C 0.88395 0.6177 0.09096 0.0
C1520 C 0.91355 0.55731 0.13343 0.0
C1521 C 0.89442 0.57408 0.10476 0.0
C1522 C 0.93538 0.55185 0.14022 0.0
C1523 C 0.95271 0.54772 0.12619 0.0
C1524 C 0.90941 0.55878 0.11255 0.0
C1525 C 0.94543 0.54573 0.10567 0.0
C1526 C 0.89269 0.57796 0.08386 0.0
C1527 C 0.88226 0.61076 0.11153 0.0
N1528 N 0.92476 0.5519 0.09942 0.0
N1529 N 0.88812 0.58991 0.11785 0.0
H1530 H 0.25569 0.38521 0.43007 0.0
H1531 H 0.42132 0.46468 0.45654 0.0
H1532 H 0.2899 0.3988 0.49052 0.0
H1533 H 0.38708 0.44751 0.39604 0.0
H1534 H 0.37463 0.45668 0.46905 0.0
H1535 H 0.30302 0.42314 0.41791 0.0
C1536 C 0.27303 0.39696 0.44089 0.0
C1537 C 0.2692 0.38863 0.46125 0.0
C1538 C 0.37744 0.45544 0.45297 0.0
C1539 C 0.32365 0.4313 0.44736 0.0
C1540 C 0.40413 0.46011 0.44581 0.0
C1541 C 0.40772 0.45619 0.4253 0.0
C1542 C 0.35396 0.44605 0.43956 0.0
C1543 C 0.38502 0.45052 0.41198 0.0
C1544 C 0.30009 0.41852 0.43393 0.0
C1545 C 0.29212 0.40453 0.47468 0.0
N1546 N 0.35875 0.44483 0.41942 0.0
N1547 N 0.3187 0.42463 0.46741 0.0
H1548 H 0.54058 0.95522 0.45314 0.0
H1549 H 0.62486 0.87434 0.4252 0.0
H1550 H 0.56009 0.94168 0.39236 0.0
H1551 H 0.6082 0.89071 0.48602 0.0
H1552 H 0.58655 0.88319 0.41305 0.0
H1553 H 0.54959 0.91684 0.46487 0.0
C1554 C 0.54586 0.94341 0.44216 0.0
C1555 C 0.55016 0.95186 0.42183 0.0
C1556 C 0.5906 0.88407 0.42912 0.0
C1557 C 0.56147 0.90865 0.43522 0.0
C1558 C 0.6124 0.87892 0.43607 0.0
C1559 C 0.61992 0.88236 0.45658 0.0
C1560 C 0.57676 0.89348 0.44274 0.0
C1561 C 0.60311 0.88806 0.47008 0.0
C1562 C 0.55112 0.92158 0.44888 0.0
C1563 C 0.55676 0.93587 0.40819 0.0
N1564 N 0.58276 0.89423 0.46285 0.0
N1565 N 0.56301 0.91549 0.41522 0.0
H1566 H 0.13515 0.75264 0.42876 0.0
H1567 H 0.05069 0.5871 0.45543 0.0
H1568 H 0.11514 0.71856 0.48926 0.0
H1569 H 0.06734 0.62118 0.39488 0.0
H1570 H 0.08904 0.63399 0.46788 0.0
H1571 H 0.12627 0.70548 0.41664 0.0
C1572 C 0.12982 0.73538 0.4396 0.0
C1573 C 0.12534 0.73918 0.45996 0.0
C1574 C 0.08498 0.63111 0.4518 0.0
C1575 C 0.11413 0.6849 0.44613 0.0
C1576 C 0.06315 0.60431 0.44468 0.0
C1577 C 0.05561 0.6006 0.42417 0.0
C1578 C 0.09883 0.65458 0.43836 0.0
C1579 C 0.07244 0.62333 0.41082 0.0
C1580 C 0.12461 0.70841 0.43266 0.0
C1581 C 0.11863 0.71636 0.47342 0.0
N1582 N 0.09282 0.6497 0.41823 0.0
N1583 N 0.11243 0.68985 0.46617 0.0
H1584 H 0.54148 0.58733 0.95431 0.0
H1585 H 0.60497 0.72544 0.98802 0.0
H1586 H 0.55859 0.62185 0.89392 0.0
H1587 H 0.63281 0.74743 0.92626 0.0
H1588 H 0.56489 0.67856 0.97664 0.0
H1589 H 0.55098 0.63399 0.96711 0.0
C1590 C 0.54624 0.60467 0.94366 0.0
C1591 C 0.54984 0.60104 0.92311 0.0
C1592 C 0.5796 0.69355 0.96548 0.0
C1593 C 0.56155 0.65522 0.93765 0.0
C1594 C 0.60225 0.72057 0.97204 0.0
C1595 C 0.62274 0.73973 0.95813 0.0
C1596 C 0.57795 0.68579 0.94494 0.0
C1597 C 0.61799 0.73272 0.93755 0.0
C1598 C 0.55173 0.63155 0.95099 0.0
C1599 C 0.55582 0.62391 0.9099 0.0
N1600 N 0.5965 0.70614 0.93164 0.0
N1601 N 0.5623 0.65034 0.91748 0.0
H1602 H 0.28575 0.88774 0.98806 0.0
H1603 H 0.38799 0.93965 0.89261 0.0
H1604 H 0.25626 0.87677 0.92641 0.0
H1605 H 0.4174 0.95808 0.95428 0.0
H1606 H 0.34043 0.90099 0.90458 0.0
H1607 H 0.33351 0.89726 0.97603 0.0
C1608 C 0.28903 0.88628 0.97207 0.0
C1609 C 0.26747 0.88222 0.95815 0.0
C1610 C 0.35757 0.91292 0.91547 0.0
C1611 C 0.32183 0.8936 0.94424 0.0
C1612 C 0.38475 0.93482 0.90859 0.0
C1613 C 0.40621 0.95239 0.92254 0.0
C1614 C 0.35207 0.90891 0.93637 0.0
C1615 C 0.40102 0.94533 0.9431 0.0
C1616 C 0.31631 0.89191 0.96515 0.0
C1617 C 0.2727 0.88052 0.93757 0.0
N1618 N 0.3743 0.92455 0.94944 0.0
N1619 N 0.29953 0.88683 0.9312 0.0
H1620 H 0.1334 0.38336 0.92813 0.0
H1621 H 0.05126 0.46735 0.95349 0.0
H1622 H 0.1148 0.39985 0.98839 0.0
H1623 H 0.06617 0.44719 0.89326 0.0
H1624 H 0.08941 0.45853 0.96604 0.0
H1625 H 0.12472 0.4215 0.91537 0.0
C1626 C 0.12838 0.39577 0.93876 0.0
C1627 C 0.12427 0.38824 0.95927 0.0
C1628 C 0.08503 0.45682 0.94999 0.0
C1629 C 0.11334 0.43119 0.94472 0.0
C1630 C 0.06335 0.46199 0.94281 0.0
C1631 C 0.05536 0.45747 0.92239 0.0
C1632 C 0.09829 0.44635 0.93671 0.0
C1633 C 0.07165 0.45072 0.90913 0.0
C1634 C 0.12331 0.41746 0.93146 0.0
C1635 C 0.118 0.40496 0.97245 0.0
N1636 N 0.09189 0.44457 0.91662 0.0
N1637 N 0.11193 0.4252 0.96487 0.0
H1638 H 0.75386 0.62376 0.62149 0.0
H1639 H 0.58779 0.53733 0.59641 0.0
H1640 H 0.71864 0.60545 0.56127 0.0
H1641 H 0.62298 0.55879 0.65657 0.0
H1642 H 0.63491 0.54651 0.58394 0.0
H1643 H 0.70735 0.58541 0.6345 0.0
C1644 C 0.73648 0.61093 0.61094 0.0
C1645 C 0.73975 0.61798 0.59035 0.0
C1646 C 0.63224 0.54842 0.59997 0.0
C1647 C 0.6862 0.57478 0.60517 0.0
C1648 C 0.6053 0.54305 0.60711 0.0
C1649 C 0.6018 0.54783 0.62747 0.0
C1650 C 0.65603 0.55938 0.61322 0.0
C1651 C 0.62494 0.55505 0.64074 0.0
C1652 C 0.7099 0.58911 0.61838 0.0
C1653 C 0.71682 0.60072 0.57726 0.0
N1654 N 0.6514 0.56139 0.63328 0.0
N1655 N 0.69067 0.58035 0.58497 0.0
H1656 H 0.38225 0.13004 0.623 0.0
H1657 H 0.46802 0.0502 0.59601 0.0
H1658 H 0.39983 0.1139 0.56236 0.0
H1659 H 0.44756 0.06344 0.65659 0.0
H1660 H 0.45851 0.08814 0.58405 0.0
H1661 H 0.42044 0.12125 0.63548 0.0
C1662 C 0.39486 0.12549 0.61225 0.0
C1663 C 0.38764 0.12213 0.59168 0.0
C1664 C 0.45687 0.08344 0.60005 0.0
C1665 C 0.43071 0.11111 0.6059 0.0
C1666 C 0.46243 0.06187 0.6069 0.0
C1667 C 0.45804 0.05346 0.62724 0.0
C1668 C 0.44614 0.09616 0.61358 0.0
C1669 C 0.451 0.06924 0.64077 0.0
C1670 C 0.4166 0.12038 0.61939 0.0
C1671 C 0.40467 0.11649 0.57834 0.0
N1672 N 0.44448 0.08937 0.6336 0.0
N1673 N 0.42497 0.11038 0.58575 0.0
H1674 H 0.95811 0.41808 0.59306 0.0
H1675 H 0.87203 0.25232 0.6191 0.0
H1676 H 0.94026 0.38358 0.65349 0.0
H1677 H 0.89304 0.2868 0.55874 0.0
H1678 H 0.88125 0.29956 0.63132 0.0
H1679 H 0.91973 0.37139 0.58033 0.0
C1680 C 0.94538 0.40082 0.60372 0.0
C1681 C 0.95257 0.40435 0.62428 0.0
C1682 C 0.88305 0.29671 0.61531 0.0
C1683 C 0.90932 0.3506 0.60978 0.0
C1684 C 0.87765 0.2697 0.60831 0.0
C1685 C 0.8823 0.26597 0.58797 0.0
C1686 C 0.8939 0.32033 0.60191 0.0
C1687 C 0.88939 0.28894 0.57456 0.0
C1688 C 0.92354 0.37413 0.59644 0.0
C1689 C 0.93542 0.38157 0.63751 0.0
N1690 N 0.89577 0.31547 0.58187 0.0
N1691 N 0.91504 0.35531 0.62996 0.0
H1692 H 0.9207 0.71521 0.7592 0.0
H1693 H 0.08634 0.79928 0.78593 0.0
H1694 H 0.95476 0.73139 0.81975 0.0
H1695 H 0.05229 0.77935 0.72542 0.0
H1696 H 0.03915 0.79036 0.79806 0.0
H1697 H 0.96769 0.75349 0.74681 0.0
C1698 C 0.93793 0.72757 0.76997 0.0
C1699 C 0.93418 0.71991 0.79045 0.0
C1700 C 0.04209 0.78872 0.78204 0.0
C1701 C 0.98826 0.76303 0.77633 0.0
C1702 C 0.06907 0.79394 0.7751 0.0
C1703 C 0.0729 0.7895 0.75472 0.0
C1704 C 0.01859 0.77828 0.76857 0.0
C1705 C 0.05007 0.78281 0.74127 0.0
C1706 C 0.96479 0.74934 0.76288 0.0
C1707 C 0.95693 0.73659 0.80382 0.0
N1708 N 0.02356 0.7766 0.74852 0.0
N1709 N 0.98335 0.75691 0.79644 0.0
H1710 H 0.20771 0.29004 0.78906 0.0
H1711 H 0.28919 0.20595 0.76229 0.0
H1712 H 0.22564 0.27391 0.72851 0.0
H1713 H 0.27507 0.22587 0.8228 0.0
H1714 H 0.25085 0.21477 0.75018 0.0
H1715 H 0.21625 0.25164 0.80143 0.0
C1716 C 0.21256 0.27768 0.77828 0.0
C1717 C 0.21655 0.28539 0.75781 0.0
C1718 C 0.25544 0.21643 0.76619 0.0
C1719 C 0.2273 0.24212 0.77191 0.0
C1720 C 0.27724 0.21127 0.77312 0.0
C1721 C 0.28553 0.21574 0.79349 0.0
C1722 C 0.24237 0.22686 0.77967 0.0
C1723 C 0.26939 0.2224 0.80696 0.0
C1724 C 0.21754 0.25583 0.78536 0.0
C1725 C 0.22257 0.26868 0.74443 0.0
N1726 N 0.24904 0.22856 0.79971 0.0
N1727 N 0.22856 0.24828 0.7518 0.0
H1728 H 0.734 0.95141 0.72644 0.0
H1729 H 0.78633 0.05497 0.82108 0.0
H1730 H 0.71767 0.92284 0.78834 0.0
H1731 H 0.79491 0.0833 0.75925 0.0
H1732 H 0.77781 0.00748 0.80925 0.0
H1733 H 0.77243 0.99941 0.73788 0.0
C1734 C 0.73928 0.95494 0.74235 0.0
C1735 C 0.72233 0.93357 0.75653 0.0
C1736 C 0.78242 0.02439 0.79828 0.0
C1737 C 0.7655 0.98821 0.76977 0.0
C1738 C 0.78747 0.05152 0.80507 0.0
C1739 C 0.79056 0.07262 0.79107 0.0
C1740 C 0.78035 0.01857 0.77741 0.0
C1741 C 0.79189 0.06719 0.77049 0.0
C1742 C 0.76104 0.98236 0.74893 0.0
C1743 C 0.72994 0.93912 0.77699 0.0
N1744 N 0.78618 0.0405 0.76424 0.0
N1745 N 0.75053 0.96609 0.78305 0.0
H1746 H 0.22232 0.95077 0.22647 0.0
H1747 H 0.27401 0.05364 0.32161 0.0
H1748 H 0.21177 0.92175 0.28822 0.0
H1749 H 0.29241 0.08264 0.25985 0.0
H1750 H 0.23548 0.00594 0.30976 0.0
H1751 H 0.23168 0.99853 0.23835 0.0
C1752 C 0.22092 0.95415 0.24246 0.0
C1753 C 0.21702 0.93273 0.25645 0.0
C1754 C 0.24738 0.02302 0.29882 0.0
C1755 C 0.2282 0.98708 0.27017 0.0
C1756 C 0.2692 0.05027 0.30563 0.0
C1757 C 0.28673 0.07167 0.29163 0.0
C1758 C 0.2434 0.01737 0.27794 0.0
C1759 C 0.2797 0.06633 0.27108 0.0
C1760 C 0.22645 0.98143 0.24928 0.0
C1761 C 0.21539 0.93809 0.27701 0.0
N1762 N 0.25899 0.03953 0.26481 0.0
N1763 N 0.22159 0.96491 0.28329 0.0
H1764 H 0.92226 0.2076 0.26146 0.0
H1765 H 0.0879 0.28903 0.28814 0.0
H1766 H 0.95627 0.22542 0.32202 0.0
H1767 H 0.0539 0.27403 0.22758 0.0
H1768 H 0.04066 0.25106 0.3004 0.0
H1769 H 0.96923 0.21619 0.2491 0.0
C1770 C 0.93947 0.21244 0.27224 0.0
C1771 C 0.93571 0.21635 0.29272 0.0
C1772 C 0.04362 0.25539 0.28435 0.0
C1773 C 0.98978 0.22718 0.27863 0.0
C1774 C 0.07062 0.27698 0.27733 0.0
C1775 C 0.07448 0.2849 0.25689 0.0
C1776 C 0.02012 0.24215 0.27088 0.0
C1777 C 0.05165 0.26862 0.24348 0.0
C1778 C 0.96633 0.21745 0.26517 0.0
C1779 C 0.95845 0.22238 0.3061 0.0
N1780 N 0.02512 0.24848 0.25079 0.0
N1781 N 0.98486 0.22841 0.29874 0.0
H1782 H 0.79138 0.73452 0.32055 0.0
H1783 H 0.71636 0.79791 0.28727 0.0
H1784 H 0.78523 0.70679 0.25874 0.0
H1785 H 0.7335 0.78091 0.22678 0.0
H1786 H 0.75363 0.78845 0.29992 0.0
H1787 H 0.78435 0.77453 0.3093 0.0
C1788 C 0.78909 0.73724 0.30459 0.0
C1789 C 0.78775 0.71679 0.29063 0.0
C1790 C 0.75036 0.78772 0.2838 0.0
C1791 C 0.77838 0.76153 0.2776 0.0
C1792 C 0.72891 0.7932 0.27656 0.0
C1793 C 0.72157 0.78961 0.25603 0.0
C1794 C 0.76416 0.77793 0.27039 0.0
C1795 C 0.73843 0.78368 0.24275 0.0
C1796 C 0.78461 0.75985 0.29811 0.0
C1797 C 0.78534 0.72155 0.27008 0.0
N1798 N 0.75843 0.77721 0.25024 0.0
N1799 N 0.78015 0.74302 0.26424 0.0
loop_
_geom_bond_atom_site_label_1
_geom_bond_atom_site_label_2
_geom_bond_distance
_geom_bond_site_symmetry_2
_ccdc_geom_bond_type
O0 Cd1 2.223 . S
O0 C8 1.315 . S
Cd1 O0 2.223 . S
Cd1 O4 2.297 . S
Cd1 O5 2.439 . S
Cd1 O11 2.240 . S
Cd2 O3 2.240 . S
Cd2 O10 2.223 . S
Cd2 O12 2.297 . S
Cd2 O13 2.439 . S
O3 Cd2 2.240 . S
O3 C8 1.279 . S
O4 Cd1 2.297 . S
O4 C6 1.247 . S
O5 Cd1 2.439 . S
O5 C6 1.208 . S
C6 O4 1.247 . S
C6 O5 1.208 . S
C7 O12 1.247 . S
C7 O13 1.208 . S
C8 O0 1.315 . S
C8 O3 1.279 . S
C9 O10 1.315 . S
C9 O11 1.279 . S
O10 Cd2 2.223 . S
O10 C9 1.315 . S
O11 Cd1 2.240 . S
O11 C9 1.279 . S
O12 Cd2 2.297 . S
O12 C7 1.247 . S
O13 Cd2 2.439 . S
O13 C7 1.208 . S
O14 Cd15 2.223 . S
O14 C22 1.315 . S
Cd15 O14 2.223 . S
Cd15 O18 2.297 . S
Cd15 O19 2.439 . S
Cd15 O25 2.240 . S
Cd16 O17 2.240 . S
Cd16 O24 2.223 . S
Cd16 O26 2.297 . S
Cd16 O27 2.439 . S
O17 Cd16 2.240 . S
O17 C22 1.279 . S
O18 Cd15 2.297 . S
O18 C20 1.247 . S
O19 Cd15 2.439 . S
O19 C20 1.208 . S
C20 O18 1.247 . S
C20 O19 1.208 . S
C21 O26 1.247 . S
C21 O27 1.208 . S
C22 O14 1.315 . S
C22 O17 1.279 . S
C23 O24 1.315 . S
C23 O25 1.279 . S
O24 Cd16 2.223 . S
O24 C23 1.315 . S
O25 Cd15 2.240 . S
O25 C23 1.279 . S
O26 Cd16 2.297 . S
O26 C21 1.247 . S
O27 Cd16 2.439 . S
O27 C21 1.208 . S
O28 Cd29 2.223 . S
O28 C36 1.315 . S
Cd29 O28 2.223 . S
Cd29 O32 2.297 . S
Cd29 O33 2.439 . S
Cd29 O39 2.240 . S
Cd30 O31 2.240 . S
Cd30 O38 2.223 . S
Cd30 O40 2.297 . S
Cd30 O41 2.439 . S
O31 Cd30 2.240 . S
O31 C36 1.279 . S
O32 Cd29 2.297 . S
O32 C34 1.247 . S
O33 Cd29 2.439 . S
O33 C34 1.208 . S
C34 O32 1.247 . S
C34 O33 1.208 . S
C35 O40 1.247 . S
C35 O41 1.208 . S
C36 O28 1.315 . S
C36 O31 1.279 . S
C37 O38 1.315 . S
C37 O39 1.279 . S
O38 Cd30 2.223 . S
O38 C37 1.315 . S
O39 Cd29 2.240 . S
O39 C37 1.279 . S
O40 Cd30 2.297 . S
O40 C35 1.247 . S
O41 Cd30 2.439 . S
O41 C35 1.208 . S
O42 Cd43 2.223 . S
O42 C50 1.315 . S
Cd43 O42 2.223 . S
Cd43 O46 2.297 . S
Cd43 O47 2.439 . S
Cd43 O53 2.240 . S
Cd44 O45 2.240 . S
Cd44 O52 2.223 . S
Cd44 O54 2.297 . S
Cd44 O55 2.439 . S
O45 Cd44 2.240 . S
O45 C50 1.279 . S
O46 Cd43 2.297 . S
O46 C48 1.247 . S
O47 Cd43 2.439 . S
O47 C48 1.208 . S
C48 O46 1.247 . S
C48 O47 1.208 . S
C49 O54 1.247 . S
C49 O55 1.208 . S
C50 O42 1.315 . S
C50 O45 1.279 . S
C51 O52 1.315 . S
C51 O53 1.279 . S
O52 Cd44 2.223 . S
O52 C51 1.315 . S
O53 Cd43 2.240 . S
O53 C51 1.279 . S
O54 Cd44 2.297 . S
O54 C49 1.247 . S
O55 Cd44 2.439 . S
O55 C49 1.208 . S
O56 Cd57 2.223 . S
O56 C64 1.315 . S
Cd57 O56 2.223 . S
Cd57 O60 2.297 . S
Cd57 O61 2.439 . S
Cd57 O67 2.240 . S
Cd58 O59 2.240 . S
Cd58 O66 2.223 . S
Cd58 O68 2.297 . S
Cd58 O69 2.439 . S
O59 Cd58 2.240 . S
O59 C64 1.279 . S
O60 Cd57 2.297 . S
O60 C62 1.247 . S
O61 Cd57 2.439 . S
O61 C62 1.208 . S
C62 O60 1.247 . S
C62 O61 1.208 . S
C63 O68 1.247 . S
C63 O69 1.208 . S
C64 O56 1.315 . S
C64 O59 1.279 . S
C65 O66 1.315 . S
C65 O67 1.279 . S
O66 Cd58 2.223 . S
O66 C65 1.315 . S
O67 Cd57 2.240 . S
O67 C65 1.279 . S
O68 Cd58 2.297 . S
O68 C63 1.247 . S
O69 Cd58 2.439 . S
O69 C63 1.208 . S
O70 Cd71 2.223 . S
O70 C78 1.315 . S
Cd71 O70 2.223 . S
Cd71 O74 2.297 . S
Cd71 O75 2.439 . S
Cd71 O81 2.240 . S
Cd72 O73 2.240 . S
Cd72 O80 2.223 . S
Cd72 O82 2.297 . S
Cd72 O83 2.439 . S
O73 Cd72 2.240 . S
O73 C78 1.279 . S
O74 Cd71 2.297 . S
O74 C76 1.247 . S
O75 Cd71 2.439 . S
O75 C76 1.208 . S
C76 O74 1.247 . S
C76 O75 1.208 . S
C77 O82 1.247 . S
C77 O83 1.208 . S
C78 O70 1.315 . S
C78 O73 1.279 . S
C79 O80 1.315 . S
C79 O81 1.279 . S
O80 Cd72 2.223 . S
O80 C79 1.315 . S
O81 Cd71 2.240 . S
O81 C79 1.279 . S
O82 Cd72 2.297 . S
O82 C77 1.247 . S
O83 Cd72 2.439 . S
O83 C77 1.208 . S
O84 Cd85 2.223 . S
O84 C92 1.315 . S
Cd85 O84 2.223 . S
Cd85 O88 2.297 . S
Cd85 O89 2.439 . S
Cd85 O95 2.240 . S
Cd86 O87 2.240 . S
Cd86 O94 2.223 . S
Cd86 O96 2.297 . S
Cd86 O97 2.439 . S
O87 Cd86 2.240 . S
O87 C92 1.279 . S
O88 Cd85 2.297 . S
O88 C90 1.247 . S
O89 Cd85 2.439 . S
O89 C90 1.208 . S
C90 O88 1.247 . S
C90 O89 1.208 . S
C91 O96 1.247 . S
C91 O97 1.208 . S
C92 O84 1.315 . S
C92 O87 1.279 . S
C93 O94 1.315 . S
C93 O95 1.279 . S
O94 Cd86 2.223 . S
O94 C93 1.315 . S
O95 Cd85 2.240 . S
O95 C93 1.279 . S
O96 Cd86 2.297 . S
O96 C91 1.247 . S
O97 Cd86 2.439 . S
O97 C91 1.208 . S
O98 Cd99 2.223 . S
O98 C106 1.315 . S
Cd99 O98 2.223 . S
Cd99 O102 2.297 . S
Cd99 O103 2.439 . S
Cd99 O109 2.240 . S
Cd100 O101 2.240 . S
Cd100 O108 2.223 . S
Cd100 O110 2.297 . S
Cd100 O111 2.439 . S
O101 Cd100 2.240 . S
O101 C106 1.279 . S
O102 Cd99 2.297 . S
O102 C104 1.247 . S
O103 Cd99 2.439 . S
O103 C104 1.208 . S
C104 O102 1.247 . S
C104 O103 1.208 . S
C105 O110 1.247 . S
C105 O111 1.208 . S
C106 O98 1.315 . S
C106 O101 1.279 . S
C107 O108 1.315 . S
C107 O109 1.279 . S
O108 Cd100 2.223 . S
O108 C107 1.315 . S
O109 Cd99 2.240 . S
O109 C107 1.279 . S
O110 Cd100 2.297 . S
O110 C105 1.247 . S
O111 Cd100 2.439 . S
O111 C105 1.208 . S
O112 Cd113 2.223 . S
O112 C120 1.315 . S
Cd113 O112 2.223 . S
Cd113 O116 2.297 . S
Cd113 O117 2.439 . S
Cd113 O123 2.240 . S
Cd114 O115 2.240 . S
Cd114 O122 2.223 . S
Cd114 O124 2.297 . S
Cd114 O125 2.439 . S
O115 Cd114 2.240 . S
O115 C120 1.279 . S
O116 Cd113 2.297 . S
O116 C118 1.247 . S
O117 Cd113 2.439 . S
O117 C118 1.208 . S
C118 O116 1.247 . S
C118 O117 1.208 . S
C119 O124 1.247 . S
C119 O125 1.208 . S
C120 O112 1.315 . S
C120 O115 1.279 . S
C121 O122 1.315 . S
C121 O123 1.279 . S
O122 Cd114 2.223 . S
O122 C121 1.315 . S
O123 Cd113 2.240 . S
O123 C121 1.279 . S
O124 Cd114 2.297 . S
O124 C119 1.247 . S
O125 Cd114 2.439 . S
O125 C119 1.208 . S
O126 Cd127 2.223 . S
O126 C134 1.315 . S
Cd127 O126 2.223 . S
Cd127 O130 2.297 . S
Cd127 O131 2.439 . S
Cd127 O137 2.240 . S
Cd128 O129 2.240 . S
Cd128 O136 2.223 . S
Cd128 O138 2.297 . S
Cd128 O139 2.439 . S
O129 Cd128 2.240 . S
O129 C134 1.279 . S
O130 Cd127 2.297 . S
O130 C132 1.247 . S
O131 Cd127 2.439 . S
O131 C132 1.208 . S
C132 O130 1.247 . S
C132 O131 1.208 . S
C133 O138 1.247 . S
C133 O139 1.208 . S
C134 O126 1.315 . S
C134 O129 1.279 . S
C135 O136 1.315 . S
C135 O137 1.279 . S
O136 Cd128 2.223 . S
O136 C135 1.315 . S
O137 Cd127 2.240 . S
O137 C135 1.279 . S
O138 Cd128 2.297 . S
O138 C133 1.247 . S
O139 Cd128 2.439 . S
O139 C133 1.208 . S
O140 Cd141 2.223 . S
O140 C148 1.315 . S
Cd141 O140 2.223 . S
Cd141 O144 2.297 . S
Cd141 O145 2.439 . S
Cd141 O151 2.240 . S
Cd142 O143 2.240 . S
Cd142 O150 2.223 . S
Cd142 O152 2.297 . S
Cd142 O153 2.439 . S
O143 Cd142 2.240 . S
O143 C148 1.279 . S
O144 Cd141 2.297 . S
O144 C146 1.247 . S
O145 Cd141 2.439 . S
O145 C146 1.208 . S
C146 O144 1.247 . S
C146 O145 1.208 . S
C147 O152 1.247 . S
C147 O153 1.208 . S
C148 O140 1.315 . S
C148 O143 1.279 . S
C149 O150 1.315 . S
C149 O151 1.279 . S
O150 Cd142 2.223 . S
O150 C149 1.315 . S
O151 Cd141 2.240 . S
O151 C149 1.279 . S
O152 Cd142 2.297 . S
O152 C147 1.247 . S
O153 Cd142 2.439 . S
O153 C147 1.208 . S
O154 Cd155 2.223 . S
O154 C162 1.315 . S
Cd155 O154 2.223 . S
Cd155 O158 2.297 . S
Cd155 O159 2.439 . S
Cd155 O165 2.240 . S
Cd156 O157 2.240 . S
Cd156 O164 2.223 . S
Cd156 O166 2.297 . S
Cd156 O167 2.439 . S
O157 Cd156 2.240 . S
O157 C162 1.279 . S
O158 Cd155 2.297 . S
O158 C160 1.247 . S
O159 Cd155 2.439 . S
O159 C160 1.208 . S
C160 O158 1.247 . S
C160 O159 1.208 . S
C161 O166 1.247 . S
C161 O167 1.208 . S
C162 O154 1.315 . S
C162 O157 1.279 . S
C163 O164 1.315 . S
C163 O165 1.279 . S
O164 Cd156 2.223 . S
O164 C163 1.315 . S
O165 Cd155 2.240 . S
O165 C163 1.279 . S
O166 Cd156 2.297 . S
O166 C161 1.247 . S
O167 Cd156 2.439 . S
O167 C161 1.208 . S
O168 Cd169 2.223 . S
O168 C176 1.315 . S
Cd169 O168 2.223 . S
Cd169 O172 2.297 . S
Cd169 O173 2.439 . S
Cd169 O179 2.240 . S
Cd170 O171 2.240 . S
Cd170 O178 2.223 . S
Cd170 O180 2.297 . S
Cd170 O181 2.439 . S
O171 Cd170 2.240 . S
O171 C176 1.279 . S
O172 Cd169 2.297 . S
O172 C174 1.247 . S
O173 Cd169 2.439 . S
O173 C174 1.208 . S
C174 O172 1.247 . S
C174 O173 1.208 . S
C175 O180 1.247 . S
C175 O181 1.208 . S
C176 O168 1.315 . S
C176 O171 1.279 . S
C177 O178 1.315 . S
C177 O179 1.279 . S
O178 Cd170 2.223 . S
O178 C177 1.315 . S
O179 Cd169 2.240 . S
O179 C177 1.279 . S
O180 Cd170 2.297 . S
O180 C175 1.247 . S
O181 Cd170 2.439 . S
O181 C175 1.208 . S
O182 Cd183 2.223 . S
O182 C190 1.315 . S
Cd183 O182 2.223 . S
Cd183 O186 2.297 . S
Cd183 O187 2.439 . S
Cd183 O193 2.240 . S
Cd184 O185 2.240 . S
Cd184 O192 2.223 . S
Cd184 O194 2.297 . S
Cd184 O195 2.439 . S
O185 Cd184 2.240 . S
O185 C190 1.279 . S
O186 Cd183 2.297 . S
O186 C188 1.247 . S
O187 Cd183 2.439 . S
O187 C188 1.208 . S
C188 O186 1.247 . S
C188 O187 1.208 . S
C189 O194 1.247 . S
C189 O195 1.208 . S
C190 O182 1.315 . S
C190 O185 1.279 . S
C191 O192 1.315 . S
C191 O193 1.279 . S
O192 Cd184 2.223 . S
O192 C191 1.315 . S
O193 Cd183 2.240 . S
O193 C191 1.279 . S
O194 Cd184 2.297 . S
O194 C189 1.247 . S
O195 Cd184 2.439 . S
O195 C189 1.208 . S
O196 Cd197 2.223 . S
O196 C204 1.315 . S
Cd197 O196 2.223 . S
Cd197 O200 2.297 . S
Cd197 O201 2.439 . S
Cd197 O207 2.240 . S
Cd198 O199 2.240 . S
Cd198 O206 2.223 . S
Cd198 O208 2.297 . S
Cd198 O209 2.439 . S
O199 Cd198 2.240 . S
O199 C204 1.279 . S
O200 Cd197 2.297 . S
O200 C202 1.247 . S
O201 Cd197 2.439 . S
O201 C202 1.208 . S
C202 O200 1.247 . S
C202 O201 1.208 . S
C203 O208 1.247 . S
C203 O209 1.208 . S
C204 O196 1.315 . S
C204 O199 1.279 . S
C205 O206 1.315 . S
C205 O207 1.279 . S
O206 Cd198 2.223 . S
O206 C205 1.315 . S
O207 Cd197 2.240 . S
O207 C205 1.279 . S
O208 Cd198 2.297 . S
O208 C203 1.247 . S
O209 Cd198 2.439 . S
O209 C203 1.208 . S
O210 Cd211 2.223 . S
O210 C218 1.315 . S
Cd211 O210 2.223 . S
Cd211 O214 2.297 . S
Cd211 O215 2.439 . S
Cd211 O221 2.240 . S
Cd212 O213 2.240 . S
Cd212 O220 2.223 . S
Cd212 O222 2.297 . S
Cd212 O223 2.439 . S
O213 Cd212 2.240 . S
O213 C218 1.279 . S
O214 Cd211 2.297 . S
O214 C216 1.247 . S
O215 Cd211 2.439 . S
O215 C216 1.208 . S
C216 O214 1.247 . S
C216 O215 1.208 . S
C217 O222 1.247 . S
C217 O223 1.208 . S
C218 O210 1.315 . S
C218 O213 1.279 . S
C219 O220 1.315 . S
C219 O221 1.279 . S
O220 Cd212 2.223 . S
O220 C219 1.315 . S
O221 Cd211 2.240 . S
O221 C219 1.279 . S
O222 Cd212 2.297 . S
O222 C217 1.247 . S
O223 Cd212 2.439 . S
O223 C217 1.208 . S
O224 Cd225 2.223 . S
O224 C232 1.315 . S
Cd225 O224 2.223 . S
Cd225 O228 2.297 . S
Cd225 O229 2.439 . S
Cd225 O235 2.240 . S
Cd226 O227 2.240 . S
Cd226 O234 2.223 . S
Cd226 O236 2.297 . S
Cd226 O237 2.439 . S
O227 Cd226 2.240 . S
O227 C232 1.279 . S
O228 Cd225 2.297 . S
O228 C230 1.247 . S
O229 Cd225 2.439 . S
O229 C230 1.208 . S
C230 O228 1.247 . S
C230 O229 1.208 . S
C231 O236 1.247 . S
C231 O237 1.208 . S
C232 O224 1.315 . S
C232 O227 1.279 . S
C233 O234 1.315 . S
C233 O235 1.279 . S
O234 Cd226 2.223 . S
O234 C233 1.315 . S
O235 Cd225 2.240 . S
O235 C233 1.279 . S
O236 Cd226 2.297 . S
O236 C231 1.247 . S
O237 Cd226 2.439 . S
O237 C231 1.208 . S
O238 Cd239 2.223 . S
O238 C246 1.315 . S
Cd239 O238 2.223 . S
Cd239 O242 2.297 . S
Cd239 O243 2.439 . S
Cd239 O249 2.240 . S
Cd240 O241 2.240 . S
Cd240 O248 2.223 . S
Cd240 O250 2.297 . S
Cd240 O251 2.439 . S
O241 Cd240 2.240 . S
O241 C246 1.279 . S
O242 Cd239 2.297 . S
O242 C244 1.247 . S
O243 Cd239 2.439 . S
O243 C244 1.208 . S
C244 O242 1.247 . S
C244 O243 1.208 . S
C245 O250 1.247 . S
C245 O251 1.208 . S
C246 O238 1.315 . S
C246 O241 1.279 . S
C247 O248 1.315 . S
C247 O249 1.279 . S
O248 Cd240 2.223 . S
O248 C247 1.315 . S
O249 Cd239 2.240 . S
O249 C247 1.279 . S
O250 Cd240 2.297 . S
O250 C245 1.247 . S
O251 Cd240 2.439 . S
O251 C245 1.208 . S
O252 Cd253 2.223 . S
O252 C260 1.315 . S
Cd253 O252 2.223 . S
Cd253 O256 2.297 . S
Cd253 O257 2.439 . S
Cd253 O263 2.240 . S
Cd254 O255 2.240 . S
Cd254 O262 2.223 . S
Cd254 O264 2.297 . S
Cd254 O265 2.439 . S
O255 Cd254 2.240 . S
O255 C260 1.279 . S
O256 Cd253 2.297 . S
O256 C258 1.247 . S
O257 Cd253 2.439 . S
O257 C258 1.208 . S
C258 O256 1.247 . S
C258 O257 1.208 . S
C259 O264 1.247 . S
C259 O265 1.208 . S
C260 O252 1.315 . S
C260 O255 1.279 . S
C261 O262 1.315 . S
C261 O263 1.279 . S
O262 Cd254 2.223 . S
O262 C261 1.315 . S
O263 Cd253 2.240 . S
O263 C261 1.279 . S
O264 Cd254 2.297 . S
O264 C259 1.247 . S
O265 Cd254 2.439 . S
O265 C259 1.208 . S
O266 Cd267 2.223 . S
O266 C274 1.315 . S
Cd267 O266 2.223 . S
Cd267 O270 2.297 . S
Cd267 O271 2.439 . S
Cd267 O277 2.240 . S
Cd268 O269 2.240 . S
Cd268 O276 2.223 . S
Cd268 O278 2.297 . S
Cd268 O279 2.439 . S
O269 Cd268 2.240 . S
O269 C274 1.279 . S
O270 Cd267 2.297 . S
O270 C272 1.247 . S
O271 Cd267 2.439 . S
O271 C272 1.208 . S
C272 O270 1.247 . S
C272 O271 1.208 . S
C273 O278 1.247 . S
C273 O279 1.208 . S
C274 O266 1.315 . S
C274 O269 1.279 . S
C275 O276 1.315 . S
C275 O277 1.279 . S
O276 Cd268 2.223 . S
O276 C275 1.315 . S
O277 Cd267 2.240 . S
O277 C275 1.279 . S
O278 Cd268 2.297 . S
O278 C273 1.247 . S
O279 Cd268 2.439 . S
O279 C273 1.208 . S
O280 Cd281 2.223 . S
O280 C288 1.315 . S
Cd281 O280 2.223 . S
Cd281 O284 2.297 . S
Cd281 O285 2.439 . S
Cd281 O291 2.240 . S
Cd282 O283 2.240 . S
Cd282 O290 2.223 . S
Cd282 O292 2.297 . S
Cd282 O293 2.439 . S
O283 Cd282 2.240 . S
O283 C288 1.279 . S
O284 Cd281 2.297 . S
O284 C286 1.247 . S
O285 Cd281 2.439 . S
O285 C286 1.208 . S
C286 O284 1.247 . S
C286 O285 1.208 . S
C287 O292 1.247 . S
C287 O293 1.208 . S
C288 O280 1.315 . S
C288 O283 1.279 . S
C289 O290 1.315 . S
C289 O291 1.279 . S
O290 Cd282 2.223 . S
O290 C289 1.315 . S
O291 Cd281 2.240 . S
O291 C289 1.279 . S
O292 Cd282 2.297 . S
O292 C287 1.247 . S
O293 Cd282 2.439 . S
O293 C287 1.208 . S
O294 Cd295 2.223 . S
O294 C302 1.315 . S
Cd295 O294 2.223 . S
Cd295 O298 2.297 . S
Cd295 O299 2.439 . S
Cd295 O305 2.240 . S
Cd296 O297 2.240 . S
Cd296 O304 2.223 . S
Cd296 O306 2.297 . S
Cd296 O307 2.439 . S
O297 Cd296 2.240 . S
O297 C302 1.279 . S
O298 Cd295 2.297 . S
O298 C300 1.247 . S
O299 Cd295 2.439 . S
O299 C300 1.208 . S
C300 O298 1.247 . S
C300 O299 1.208 . S
C301 O306 1.247 . S
C301 O307 1.208 . S
C302 O294 1.315 . S
C302 O297 1.279 . S
C303 O304 1.315 . S
C303 O305 1.279 . S
O304 Cd296 2.223 . S
O304 C303 1.315 . S
O305 Cd295 2.240 . S
O305 C303 1.279 . S
O306 Cd296 2.297 . S
O306 C301 1.247 . S
O307 Cd296 2.439 . S
O307 C301 1.208 . S
O308 Cd309 2.223 . S
O308 C316 1.315 . S
Cd309 O308 2.223 . S
Cd309 O312 2.297 . S
Cd309 O313 2.439 . S
Cd309 O319 2.240 . S
Cd310 O311 2.240 . S
Cd310 O318 2.223 . S
Cd310 O320 2.297 . S
Cd310 O321 2.439 . S
O311 Cd310 2.240 . S
O311 C316 1.279 . S
O312 Cd309 2.297 . S
O312 C314 1.247 . S
O313 Cd309 2.439 . S
O313 C314 1.208 . S
C314 O312 1.247 . S
C314 O313 1.208 . S
C315 O320 1.247 . S
C315 O321 1.208 . S
C316 O308 1.315 . S
C316 O311 1.279 . S
C317 O318 1.315 . S
C317 O319 1.279 . S
O318 Cd310 2.223 . S
O318 C317 1.315 . S
O319 Cd309 2.240 . S
O319 C317 1.279 . S
O320 Cd310 2.297 . S
O320 C315 1.247 . S
O321 Cd310 2.439 . S
O321 C315 1.208 . S
O322 Cd323 2.223 . S
O322 C330 1.315 . S
Cd323 O322 2.223 . S
Cd323 O326 2.297 . S
Cd323 O327 2.439 . S
Cd323 O333 2.240 . S
Cd324 O325 2.240 . S
Cd324 O332 2.223 . S
Cd324 O334 2.297 . S
Cd324 O335 2.439 . S
O325 Cd324 2.240 . S
O325 C330 1.279 . S
O326 Cd323 2.297 . S
O326 C328 1.247 . S
O327 Cd323 2.439 . S
O327 C328 1.208 . S
C328 O326 1.247 . S
C328 O327 1.208 . S
C329 O334 1.247 . S
C329 O335 1.208 . S
C330 O322 1.315 . S
C330 O325 1.279 . S
C331 O332 1.315 . S
C331 O333 1.279 . S
O332 Cd324 2.223 . S
O332 C331 1.315 . S
O333 Cd323 2.240 . S
O333 C331 1.279 . S
O334 Cd324 2.297 . S
O334 C329 1.247 . S
O335 Cd324 2.439 . S
O335 C329 1.208 . S
O336 Cd337 2.223 . S
O336 C344 1.315 . S
Cd337 O336 2.223 . S
Cd337 O340 2.297 . S
Cd337 O341 2.439 . S
Cd337 O347 2.240 . S
Cd338 O339 2.240 . S
Cd338 O346 2.223 . S
Cd338 O348 2.297 . S
Cd338 O349 2.439 . S
O339 Cd338 2.240 . S
O339 C344 1.279 . S
O340 Cd337 2.297 . S
O340 C342 1.247 . S
O341 Cd337 2.439 . S
O341 C342 1.208 . S
C342 O340 1.247 . S
C342 O341 1.208 . S
C343 O348 1.247 . S
C343 O349 1.208 . S
C344 O336 1.315 . S
C344 O339 1.279 . S
C345 O346 1.315 . S
C345 O347 1.279 . S
O346 Cd338 2.223 . S
O346 C345 1.315 . S
O347 Cd337 2.240 . S
O347 C345 1.279 . S
O348 Cd338 2.297 . S
O348 C343 1.247 . S
O349 Cd338 2.439 . S
O349 C343 1.208 . S
O350 Cd351 2.223 . S
O350 C358 1.315 . S
Cd351 O350 2.223 . S
Cd351 O354 2.297 . S
Cd351 O355 2.439 . S
Cd351 O361 2.240 . S
Cd352 O353 2.240 . S
Cd352 O360 2.223 . S
Cd352 O362 2.297 . S
Cd352 O363 2.439 . S
O353 Cd352 2.240 . S
O353 C358 1.279 . S
O354 Cd351 2.297 . S
O354 C356 1.247 . S
O355 Cd351 2.439 . S
O355 C356 1.208 . S
C356 O354 1.247 . S
C356 O355 1.208 . S
C357 O362 1.247 . S
C357 O363 1.208 . S
C358 O350 1.315 . S
C358 O353 1.279 . S
C359 O360 1.315 . S
C359 O361 1.279 . S
O360 Cd352 2.223 . S
O360 C359 1.315 . S
O361 Cd351 2.240 . S
O361 C359 1.279 . S
O362 Cd352 2.297 . S
O362 C357 1.247 . S
O363 Cd352 2.439 . S
O363 C357 1.208 . S
O364 Cd365 2.223 . S
O364 C372 1.315 . S
Cd365 O364 2.223 . S
Cd365 O368 2.297 . S
Cd365 O369 2.439 . S
Cd365 O375 2.240 . S
Cd366 O367 2.240 . S
Cd366 O374 2.223 . S
Cd366 O376 2.297 . S
Cd366 O377 2.439 . S
O367 Cd366 2.240 . S
O367 C372 1.279 . S
O368 Cd365 2.297 . S
O368 C370 1.247 . S
O369 Cd365 2.439 . S
O369 C370 1.208 . S
C370 O368 1.247 . S
C370 O369 1.208 . S
C371 O376 1.247 . S
C371 O377 1.208 . S
C372 O364 1.315 . S
C372 O367 1.279 . S
C373 O374 1.315 . S
C373 O375 1.279 . S
O374 Cd366 2.223 . S
O374 C373 1.315 . S
O375 Cd365 2.240 . S
O375 C373 1.279 . S
O376 Cd366 2.297 . S
O376 C371 1.247 . S
O377 Cd366 2.439 . S
O377 C371 1.208 . S
O378 Cd379 2.223 . S
O378 C386 1.315 . S
Cd379 O378 2.223 . S
Cd379 O382 2.297 . S
Cd379 O383 2.439 . S
Cd379 O389 2.240 . S
Cd380 O381 2.240 . S
Cd380 O388 2.223 . S
Cd380 O390 2.297 . S
Cd380 O391 2.439 . S
O381 Cd380 2.240 . S
O381 C386 1.279 . S
O382 Cd379 2.297 . S
O382 C384 1.247 . S
O383 Cd379 2.439 . S
O383 C384 1.208 . S
C384 O382 1.247 . S
C384 O383 1.208 . S
C385 O390 1.247 . S
C385 O391 1.208 . S
C386 O378 1.315 . S
C386 O381 1.279 . S
C387 O388 1.315 . S
C387 O389 1.279 . S
O388 Cd380 2.223 . S
O388 C387 1.315 . S
O389 Cd379 2.240 . S
O389 C387 1.279 . S
O390 Cd380 2.297 . S
O390 C385 1.247 . S
O391 Cd380 2.439 . S
O391 C385 1.208 . S
O392 Cd393 2.223 . S
O392 C400 1.315 . S
Cd393 O392 2.223 . S
Cd393 O396 2.297 . S
Cd393 O397 2.439 . S
Cd393 O403 2.240 . S
Cd394 O395 2.240 . S
Cd394 O402 2.223 . S
Cd394 O404 2.297 . S
Cd394 O405 2.439 . S
O395 Cd394 2.240 . S
O395 C400 1.279 . S
O396 Cd393 2.297 . S
O396 C398 1.247 . S
O397 Cd393 2.439 . S
O397 C398 1.208 . S
C398 O396 1.247 . S
C398 O397 1.208 . S
C399 O404 1.247 . S
C399 O405 1.208 . S
C400 O392 1.315 . S
C400 O395 1.279 . S
C401 O402 1.315 . S
C401 O403 1.279 . S
O402 Cd394 2.223 . S
O402 C401 1.315 . S
O403 Cd393 2.240 . S
O403 C401 1.279 . S
O404 Cd394 2.297 . S
O404 C399 1.247 . S
O405 Cd394 2.439 . S
O405 C399 1.208 . S
O406 Cd407 2.223 . S
O406 C414 1.315 . S
Cd407 O406 2.223 . S
Cd407 O410 2.297 . S
Cd407 O411 2.439 . S
Cd407 O417 2.240 . S
Cd408 O409 2.240 . S
Cd408 O416 2.223 . S
Cd408 O418 2.297 . S
Cd408 O419 2.439 . S
O409 Cd408 2.240 . S
O409 C414 1.279 . S
O410 Cd407 2.297 . S
O410 C412 1.247 . S
O411 Cd407 2.439 . S
O411 C412 1.208 . S
C412 O410 1.247 . S
C412 O411 1.208 . S
C413 O418 1.247 . S
C413 O419 1.208 . S
C414 O406 1.315 . S
C414 O409 1.279 . S
C415 O416 1.315 . S
C415 O417 1.279 . S
O416 Cd408 2.223 . S
O416 C415 1.315 . S
O417 Cd407 2.240 . S
O417 C415 1.279 . S
O418 Cd408 2.297 . S
O418 C413 1.247 . S
O419 Cd408 2.439 . S
O419 C413 1.208 . S
O420 Cd421 2.223 . S
O420 C428 1.315 . S
Cd421 O420 2.223 . S
Cd421 O424 2.297 . S
Cd421 O425 2.439 . S
Cd421 O431 2.240 . S
Cd422 O423 2.240 . S
Cd422 O430 2.223 . S
Cd422 O432 2.297 . S
Cd422 O433 2.439 . S
O423 Cd422 2.240 . S
O423 C428 1.279 . S
O424 Cd421 2.297 . S
O424 C426 1.247 . S
O425 Cd421 2.439 . S
O425 C426 1.208 . S
C426 O424 1.247 . S
C426 O425 1.208 . S
C427 O432 1.247 . S
C427 O433 1.208 . S
C428 O420 1.315 . S
C428 O423 1.279 . S
C429 O430 1.315 . S
C429 O431 1.279 . S
O430 Cd422 2.223 . S
O430 C429 1.315 . S
O431 Cd421 2.240 . S
O431 C429 1.279 . S
O432 Cd422 2.297 . S
O432 C427 1.247 . S
O433 Cd422 2.439 . S
O433 C427 1.208 . S
O434 Cd435 2.223 . S
O434 C442 1.315 . S
Cd435 O434 2.223 . S
Cd435 O438 2.297 . S
Cd435 O439 2.439 . S
Cd435 O445 2.240 . S
Cd436 O437 2.240 . S
Cd436 O444 2.223 . S
Cd436 O446 2.297 . S
Cd436 O447 2.439 . S
O437 Cd436 2.240 . S
O437 C442 1.279 . S
O438 Cd435 2.297 . S
O438 C440 1.247 . S
O439 Cd435 2.439 . S
O439 C440 1.208 . S
C440 O438 1.247 . S
C440 O439 1.208 . S
C441 O446 1.247 . S
C441 O447 1.208 . S
C442 O434 1.315 . S
C442 O437 1.279 . S
C443 O444 1.315 . S
C443 O445 1.279 . S
O444 Cd436 2.223 . S
O444 C443 1.315 . S
O445 Cd435 2.240 . S
O445 C443 1.279 . S
O446 Cd436 2.297 . S
O446 C441 1.247 . S
O447 Cd436 2.439 . S
O447 C441 1.208 . S
O448 Cd449 2.223 . S
O448 C456 1.315 . S
Cd449 O448 2.223 . S
Cd449 O452 2.297 . S
Cd449 O453 2.439 . S
Cd449 O459 2.240 . S
Cd450 O451 2.240 . S
Cd450 O458 2.223 . S
Cd450 O460 2.297 . S
Cd450 O461 2.439 . S
O451 Cd450 2.240 . S
O451 C456 1.279 . S
O452 Cd449 2.297 . S
O452 C454 1.247 . S
O453 Cd449 2.439 . S
O453 C454 1.208 . S
C454 O452 1.247 . S
C454 O453 1.208 . S
C455 O460 1.247 . S
C455 O461 1.208 . S
C456 O448 1.315 . S
C456 O451 1.279 . S
C457 O458 1.315 . S
C457 O459 1.279 . S
O458 Cd450 2.223 . S
O458 C457 1.315 . S
O459 Cd449 2.240 . S
O459 C457 1.279 . S
O460 Cd450 2.297 . S
O460 C455 1.247 . S
O461 Cd450 2.439 . S
O461 C455 1.208 . S
O462 Cd463 2.223 . S
O462 C470 1.315 . S
Cd463 O462 2.223 . S
Cd463 O466 2.297 . S
Cd463 O467 2.439 . S
Cd463 O473 2.240 . S
Cd464 O465 2.240 . S
Cd464 O472 2.223 . S
Cd464 O474 2.297 . S
Cd464 O475 2.439 . S
O465 Cd464 2.240 . S
O465 C470 1.279 . S
O466 Cd463 2.297 . S
O466 C468 1.247 . S
O467 Cd463 2.439 . S
O467 C468 1.208 . S
C468 O466 1.247 . S
C468 O467 1.208 . S
C469 O474 1.247 . S
C469 O475 1.208 . S
C470 O462 1.315 . S
C470 O465 1.279 . S
C471 O472 1.315 . S
C471 O473 1.279 . S
O472 Cd464 2.223 . S
O472 C471 1.315 . S
O473 Cd463 2.240 . S
O473 C471 1.279 . S
O474 Cd464 2.297 . S
O474 C469 1.247 . S
O475 Cd464 2.439 . S
O475 C469 1.208 . S
O476 Cd477 2.223 . S
O476 C484 1.315 . S
Cd477 O476 2.223 . S
Cd477 O480 2.297 . S
Cd477 O481 2.439 . S
Cd477 O487 2.240 . S
Cd478 O479 2.240 . S
Cd478 O486 2.223 . S
Cd478 O488 2.297 . S
Cd478 O489 2.439 . S
O479 Cd478 2.240 . S
O479 C484 1.279 . S
O480 Cd477 2.297 . S
O480 C482 1.247 . S
O481 Cd477 2.439 . S
O481 C482 1.208 . S
C482 O480 1.247 . S
C482 O481 1.208 . S
C483 O488 1.247 . S
C483 O489 1.208 . S
C484 O476 1.315 . S
C484 O479 1.279 . S
C485 O486 1.315 . S
C485 O487 1.279 . S
O486 Cd478 2.223 . S
O486 C485 1.315 . S
O487 Cd477 2.240 . S
O487 C485 1.279 . S
O488 Cd478 2.297 . S
O488 C483 1.247 . S
O489 Cd478 2.439 . S
O489 C483 1.208 . S
O490 Cd491 2.223 . S
O490 C498 1.315 . S
Cd491 O490 2.223 . S
Cd491 O494 2.297 . S
Cd491 O495 2.439 . S
Cd491 O501 2.240 . S
Cd492 O493 2.240 . S
Cd492 O500 2.223 . S
Cd492 O502 2.297 . S
Cd492 O503 2.439 . S
O493 Cd492 2.240 . S
O493 C498 1.279 . S
O494 Cd491 2.297 . S
O494 C496 1.247 . S
O495 Cd491 2.439 . S
O495 C496 1.208 . S
C496 O494 1.247 . S
C496 O495 1.208 . S
C497 O502 1.247 . S
C497 O503 1.208 . S
C498 O490 1.315 . S
C498 O493 1.279 . S
C499 O500 1.315 . S
C499 O501 1.279 . S
O500 Cd492 2.223 . S
O500 C499 1.315 . S
O501 Cd491 2.240 . S
O501 C499 1.279 . S
O502 Cd492 2.297 . S
O502 C497 1.247 . S
O503 Cd492 2.439 . S
O503 C497 1.208 . S
H504 C510 0.930 . S
H505 C514 0.930 . S
H506 C519 0.929 . S
H507 C517 0.929 . S
H508 C512 0.929 . S
H509 C518 0.929 . S
C510 H504 0.930 . S
C510 C511 1.367 . S
C510 C518 1.378 . S
C511 C510 1.367 . S
C511 C519 1.433 . S
C512 H508 0.929 . S
C512 C514 1.378 . S
C512 C516 1.350 . S
C513 C516 1.463 . S
C513 C518 1.350 . S
C513 N521 1.427 . S
C514 H505 0.930 . S
C514 C512 1.378 . S
C514 C515 1.367 . S
C515 C514 1.367 . S
C515 C517 1.433 . S
C516 C512 1.350 . S
C516 C513 1.463 . S
C516 N520 1.427 . S
C517 H507 0.929 . S
C517 C515 1.433 . S
C517 N520 1.384 . S
C518 H509 0.929 . S
C518 C510 1.378 . S
C518 C513 1.350 . S
C519 H506 0.929 . S
C519 C511 1.433 . S
C519 N521 1.384 . S
N520 C516 1.427 . S
N520 C517 1.384 . S
N521 C513 1.427 . S
N521 C519 1.384 . S
H522 C528 0.930 . S
H523 C532 0.930 . S
H524 C537 0.929 . S
H525 C535 0.929 . S
H526 C530 0.929 . S
H527 C536 0.929 . S
C528 H522 0.930 . S
C528 C529 1.367 . S
C528 C536 1.378 . S
C529 C528 1.367 . S
C529 C537 1.433 . S
C530 H526 0.929 . S
C530 C532 1.378 . S
C530 C534 1.350 . S
C531 C534 1.463 . S
C531 C536 1.350 . S
C531 N539 1.427 . S
C532 H523 0.930 . S
C532 C530 1.378 . S
C532 C533 1.367 . S
C533 C532 1.367 . S
C533 C535 1.433 . S
C534 C530 1.350 . S
C534 C531 1.463 . S
C534 N538 1.427 . S
C535 H525 0.929 . S
C535 C533 1.433 . S
C535 N538 1.384 . S
C536 H527 0.929 . S
C536 C528 1.378 . S
C536 C531 1.350 . S
C537 H524 0.929 . S
C537 C529 1.433 . S
C537 N539 1.384 . S
N538 C534 1.427 . S
N538 C535 1.384 . S
N539 C531 1.427 . S
N539 C537 1.384 . S
H540 C546 0.930 . S
H541 C550 0.930 . S
H542 C555 0.929 . S
H543 C553 0.929 . S
H544 C548 0.929 . S
H545 C554 0.929 . S
C546 H540 0.930 . S
C546 C547 1.367 . S
C546 C554 1.378 . S
C547 C546 1.367 . S
C547 C555 1.433 . S
C548 H544 0.929 . S
C548 C550 1.378 . S
C548 C552 1.350 . S
C549 C552 1.463 . S
C549 C554 1.350 . S
C549 N557 1.427 . S
C550 H541 0.930 . S
C550 C548 1.378 . S
C550 C551 1.367 . S
C551 C550 1.367 . S
C551 C553 1.433 . S
C552 C548 1.350 . S
C552 C549 1.463 . S
C552 N556 1.427 . S
C553 H543 0.929 . S
C553 C551 1.433 . S
C553 N556 1.384 . S
C554 H545 0.929 . S
C554 C546 1.378 . S
C554 C549 1.350 . S
C555 H542 0.929 . S
C555 C547 1.433 . S
C555 N557 1.384 . S
N556 C552 1.427 . S
N556 C553 1.384 . S
N557 C549 1.427 . S
N557 C555 1.384 . S
H558 C564 0.930 . S
H559 C568 0.930 . S
H560 C573 0.929 . S
H561 C571 0.929 . S
H562 C566 0.929 . S
H563 C572 0.929 . S
C564 H558 0.930 . S
C564 C565 1.367 . S
C564 C572 1.378 . S
C565 C564 1.367 . S
C565 C573 1.433 . S
C566 H562 0.929 . S
C566 C568 1.378 . S
C566 C570 1.350 . S
C567 C570 1.463 . S
C567 C572 1.350 . S
C567 N575 1.427 . S
C568 H559 0.930 . S
C568 C566 1.378 . S
C568 C569 1.367 . S
C569 C568 1.367 . S
C569 C571 1.433 . S
C570 C566 1.350 . S
C570 C567 1.463 . S
C570 N574 1.427 . S
C571 H561 0.929 . S
C571 C569 1.433 . S
C571 N574 1.384 . S
C572 H563 0.929 . S
C572 C564 1.378 . S
C572 C567 1.350 . S
C573 H560 0.929 . S
C573 C565 1.433 . S
C573 N575 1.384 . S
N574 C570 1.427 . S
N574 C571 1.384 . S
N575 C567 1.427 . S
N575 C573 1.384 . S
H576 C582 0.930 . S
H577 C586 0.930 . S
H578 C591 0.929 . S
H579 C589 0.929 . S
H580 C584 0.929 . S
H581 C590 0.929 . S
C582 H576 0.930 . S
C582 C583 1.367 . S
C582 C590 1.378 . S
C583 C582 1.367 . S
C583 C591 1.433 . S
C584 H580 0.929 . S
C584 C586 1.378 . S
C584 C588 1.350 . S
C585 C588 1.463 . S
C585 C590 1.350 . S
C585 N593 1.427 . S
C586 H577 0.930 . S
C586 C584 1.378 . S
C586 C587 1.367 . S
C587 C586 1.367 . S
C587 C589 1.433 . S
C588 C584 1.350 . S
C588 C585 1.463 . S
C588 N592 1.427 . S
C589 H579 0.929 . S
C589 C587 1.433 . S
C589 N592 1.384 . S
C590 H581 0.929 . S
C590 C582 1.378 . S
C590 C585 1.350 . S
C591 H578 0.929 . S
C591 C583 1.433 . S
C591 N593 1.384 . S
N592 C588 1.427 . S
N592 C589 1.384 . S
N593 C585 1.427 . S
N593 C591 1.384 . S
H594 C600 0.930 . S
H595 C604 0.930 . S
H596 C609 0.929 . S
H597 C607 0.929 . S
H598 C602 0.929 . S
H599 C608 0.929 . S
C600 H594 0.930 . S
C600 C601 1.367 . S
C600 C608 1.378 . S
C601 C600 1.367 . S
C601 C609 1.433 . S
C602 H598 0.929 . S
C602 C604 1.378 . S
C602 C606 1.350 . S
C603 C606 1.463 . S
C603 C608 1.350 . S
C603 N611 1.427 . S
C604 H595 0.930 . S
C604 C602 1.378 . S
C604 C605 1.367 . S
C605 C604 1.367 . S
C605 C607 1.433 . S
C606 C602 1.350 . S
C606 C603 1.463 . S
C606 N610 1.427 . S
C607 H597 0.929 . S
C607 C605 1.433 . S
C607 N610 1.384 . S
C608 H599 0.929 . S
C608 C600 1.378 . S
C608 C603 1.350 . S
C609 H596 0.929 . S
C609 C601 1.433 . S
C609 N611 1.384 . S
N610 C606 1.427 . S
N610 C607 1.384 . S
N611 C603 1.427 . S
N611 C609 1.384 . S
H612 C618 0.930 . S
H613 C622 0.930 . S
H614 C627 0.929 . S
H615 C625 0.929 . S
H616 C620 0.929 . S
H617 C626 0.929 . S
C618 H612 0.930 . S
C618 C619 1.367 . S
C618 C626 1.378 . S
C619 C618 1.367 . S
C619 C627 1.433 . S
C620 H616 0.929 . S
C620 C622 1.378 . S
C620 C624 1.350 . S
C621 C624 1.463 . S
C621 C626 1.350 . S
C621 N629 1.427 . S
C622 H613 0.930 . S
C622 C620 1.378 . S
C622 C623 1.367 . S
C623 C622 1.367 . S
C623 C625 1.433 . S
C624 C620 1.350 . S
C624 C621 1.463 . S
C624 N628 1.427 . S
C625 H615 0.929 . S
C625 C623 1.433 . S
C625 N628 1.384 . S
C626 H617 0.929 . S
C626 C618 1.378 . S
C626 C621 1.350 . S
C627 H614 0.929 . S
C627 C619 1.433 . S
C627 N629 1.384 . S
N628 C624 1.427 . S
N628 C625 1.384 . S
N629 C621 1.427 . S
N629 C627 1.384 . S
H630 C636 0.930 . S
H631 C640 0.930 . S
H632 C645 0.929 . S
H633 C643 0.929 . S
H634 C638 0.929 . S
H635 C644 0.929 . S
C636 H630 0.930 . S
C636 C637 1.367 . S
C636 C644 1.378 . S
C637 C636 1.367 . S
C637 C645 1.433 . S
C638 H634 0.929 . S
C638 C640 1.378 . S
C638 C642 1.350 . S
C639 C642 1.463 . S
C639 C644 1.350 . S
C639 N647 1.427 . S
C640 H631 0.930 . S
C640 C638 1.378 . S
C640 C641 1.367 . S
C641 C640 1.367 . S
C641 C643 1.433 . S
C642 C638 1.350 . S
C642 C639 1.463 . S
C642 N646 1.427 . S
C643 H633 0.929 . S
C643 C641 1.433 . S
C643 N646 1.384 . S
C644 H635 0.929 . S
C644 C636 1.378 . S
C644 C639 1.350 . S
C645 H632 0.929 . S
C645 C637 1.433 . S
C645 N647 1.384 . S
N646 C642 1.427 . S
N646 C643 1.384 . S
N647 C639 1.427 . S
N647 C645 1.384 . S
H648 C654 0.930 . S
H649 C658 0.930 . S
H650 C663 0.929 . S
H651 C661 0.929 . S
H652 C656 0.929 . S
H653 C662 0.929 . S
C654 H648 0.930 . S
C654 C655 1.367 . S
C654 C662 1.378 . S
C655 C654 1.367 . S
C655 C663 1.433 . S
C656 H652 0.929 . S
C656 C658 1.378 . S
C656 C660 1.350 . S
C657 C660 1.463 . S
C657 C662 1.350 . S
C657 N665 1.427 . S
C658 H649 0.930 . S
C658 C656 1.378 . S
C658 C659 1.367 . S
C659 C658 1.367 . S
C659 C661 1.433 . S
C660 C656 1.350 . S
C660 C657 1.463 . S
C660 N664 1.427 . S
C661 H651 0.929 . S
C661 C659 1.433 . S
C661 N664 1.384 . S
C662 H653 0.929 . S
C662 C654 1.378 . S
C662 C657 1.350 . S
C663 H650 0.929 . S
C663 C655 1.433 . S
C663 N665 1.384 . S
N664 C660 1.427 . S
N664 C661 1.384 . S
N665 C657 1.427 . S
N665 C663 1.384 . S
H666 C672 0.930 . S
H667 C676 0.930 . S
H668 C681 0.929 . S
H669 C679 0.929 . S
H670 C674 0.929 . S
H671 C680 0.929 . S
C672 H666 0.930 . S
C672 C673 1.367 . S
C672 C680 1.378 . S
C673 C672 1.367 . S
C673 C681 1.433 . S
C674 H670 0.929 . S
C674 C676 1.378 . S
C674 C678 1.350 . S
C675 C678 1.463 . S
C675 C680 1.350 . S
C675 N683 1.427 . S
C676 H667 0.930 . S
C676 C674 1.378 . S
C676 C677 1.367 . S
C677 C676 1.367 . S
C677 C679 1.433 . S
C678 C674 1.350 . S
C678 C675 1.463 . S
C678 N682 1.427 . S
C679 H669 0.929 . S
C679 C677 1.433 . S
C679 N682 1.384 . S
C680 H671 0.929 . S
C680 C672 1.378 . S
C680 C675 1.350 . S
C681 H668 0.929 . S
C681 C673 1.433 . S
C681 N683 1.384 . S
N682 C678 1.427 . S
N682 C679 1.384 . S
N683 C675 1.427 . S
N683 C681 1.384 . S
H684 C690 0.930 . S
H685 C694 0.930 . S
H686 C699 0.929 . S
H687 C697 0.929 . S
H688 C692 0.929 . S
H689 C698 0.929 . S
C690 H684 0.930 . S
C690 C691 1.367 . S
C690 C698 1.378 . S
C691 C690 1.367 . S
C691 C699 1.433 . S
C692 H688 0.929 . S
C692 C694 1.378 . S
C692 C696 1.350 . S
C693 C696 1.463 . S
C693 C698 1.350 . S
C693 N701 1.427 . S
C694 H685 0.930 . S
C694 C692 1.378 . S
C694 C695 1.367 . S
C695 C694 1.367 . S
C695 C697 1.433 . S
C696 C692 1.350 . S
C696 C693 1.463 . S
C696 N700 1.427 . S
C697 H687 0.929 . S
C697 C695 1.433 . S
C697 N700 1.384 . S
C698 H689 0.929 . S
C698 C690 1.378 . S
C698 C693 1.350 . S
C699 H686 0.929 . S
C699 C691 1.433 . S
C699 N701 1.384 . S
N700 C696 1.427 . S
N700 C697 1.384 . S
N701 C693 1.427 . S
N701 C699 1.384 . S
H702 C708 0.930 . S
H703 C712 0.930 . S
H704 C717 0.929 . S
H705 C715 0.929 . S
H706 C710 0.929 . S
H707 C716 0.929 . S
C708 H702 0.930 . S
C708 C709 1.367 . S
C708 C716 1.378 . S
C709 C708 1.367 . S
C709 C717 1.433 . S
C710 H706 0.929 . S
C710 C712 1.378 . S
C710 C714 1.350 . S
C711 C714 1.463 . S
C711 C716 1.350 . S
C711 N719 1.427 . S
C712 H703 0.930 . S
C712 C710 1.378 . S
C712 C713 1.367 . S
C713 C712 1.367 . S
C713 C715 1.433 . S
C714 C710 1.350 . S
C714 C711 1.463 . S
C714 N718 1.427 . S
C715 H705 0.929 . S
C715 C713 1.433 . S
C715 N718 1.384 . S
C716 H707 0.929 . S
C716 C708 1.378 . S
C716 C711 1.350 . S
C717 H704 0.929 . S
C717 C709 1.433 . S
C717 N719 1.384 . S
N718 C714 1.427 . S
N718 C715 1.384 . S
N719 C711 1.427 . S
N719 C717 1.384 . S
H720 C726 0.930 1_455 S
H721 C730 0.930 1_655 S
H722 C735 0.929 . S
H723 C733 0.929 . S
H724 C728 0.929 . S
H725 C734 0.929 . S
C726 H720 0.930 1_655 S
C726 C727 1.367 . S
C726 C734 1.378 1_655 S
C727 C726 1.367 . S
C727 C735 1.433 . S
C728 H724 0.929 . S
C728 C730 1.378 1_655 S
C728 C732 1.350 1_655 S
C729 C732 1.463 1_655 S
C729 C734 1.350 1_655 S
C729 N737 1.427 . S
C730 H721 0.930 1_455 S
C730 C728 1.378 1_455 S
C730 C731 1.367 . S
C731 C730 1.367 . S
C731 C733 1.433 . S
C732 C728 1.350 1_455 S
C732 C729 1.463 1_455 S
C732 N736 1.427 . S
C733 H723 0.929 . S
C733 C731 1.433 . S
C733 N736 1.384 . S
C734 H725 0.929 . S
C734 C726 1.378 1_455 S
C734 C729 1.350 1_455 S
C735 H722 0.929 . S
C735 C727 1.433 . S
C735 N737 1.384 . S
N736 C732 1.427 . S
N736 C733 1.384 . S
N737 C729 1.427 . S
N737 C735 1.384 . S
H738 C744 0.930 . S
H739 C748 0.930 . S
H740 C753 0.929 . S
H741 C751 0.929 . S
H742 C746 0.929 . S
H743 C752 0.929 . S
C744 H738 0.930 . S
C744 C745 1.367 . S
C744 C752 1.378 . S
C745 C744 1.367 . S
C745 C753 1.433 . S
C746 H742 0.929 . S
C746 C748 1.378 . S
C746 C750 1.350 . S
C747 C750 1.463 . S
C747 C752 1.350 . S
C747 N755 1.427 . S
C748 H739 0.930 . S
C748 C746 1.378 . S
C748 C749 1.367 . S
C749 C748 1.367 . S
C749 C751 1.433 . S
C750 C746 1.350 . S
C750 C747 1.463 . S
C750 N754 1.427 . S
C751 H741 0.929 . S
C751 C749 1.433 . S
C751 N754 1.384 . S
C752 H743 0.929 . S
C752 C744 1.378 . S
C752 C747 1.350 . S
C753 H740 0.929 . S
C753 C745 1.433 . S
C753 N755 1.384 . S
N754 C750 1.427 . S
N754 C751 1.384 . S
N755 C747 1.427 . S
N755 C753 1.384 . S
H756 C762 0.930 . S
H757 C766 0.930 . S
H758 C771 0.929 . S
H759 C769 0.929 . S
H760 C764 0.929 . S
H761 C770 0.929 . S
C762 H756 0.930 . S
C762 C763 1.367 . S
C762 C770 1.378 1_545 S
C763 C762 1.367 . S
C763 C771 1.433 . S
C764 H760 0.929 . S
C764 C766 1.378 1_545 S
C764 C768 1.350 1_545 S
C765 C768 1.463 1_545 S
C765 C770 1.350 1_545 S
C765 N773 1.427 . S
C766 H757 0.930 . S
C766 C764 1.378 1_565 S
C766 C767 1.367 . S
C767 C766 1.367 . S
C767 C769 1.433 . S
C768 C764 1.350 1_565 S
C768 C765 1.463 1_565 S
C768 N772 1.427 . S
C769 H759 0.929 . S
C769 C767 1.433 . S
C769 N772 1.384 . S
C770 H761 0.929 . S
C770 C762 1.378 1_565 S
C770 C765 1.350 1_565 S
C771 H758 0.929 . S
C771 C763 1.433 . S
C771 N773 1.384 . S
N772 C768 1.427 . S
N772 C769 1.384 . S
N773 C765 1.427 . S
N773 C771 1.384 . S
H774 C780 0.930 . S
H775 C784 0.930 . S
H776 C789 0.929 . S
H777 C787 0.929 . S
H778 C782 0.929 . S
H779 C788 0.929 . S
C780 H774 0.930 . S
C780 C781 1.367 . S
C780 C788 1.378 1_545 S
C781 C780 1.367 . S
C781 C789 1.433 . S
C782 H778 0.929 . S
C782 C784 1.378 1_545 S
C782 C786 1.350 1_545 S
C783 C786 1.463 1_546 S
C783 C788 1.350 1_545 S
C783 N791 1.427 . S
C784 H775 0.930 . S
C784 C782 1.378 1_565 S
C784 C785 1.367 . S
C785 C784 1.367 . S
C785 C787 1.433 . S
C786 C782 1.350 1_565 S
C786 C783 1.463 1_564 S
C786 N790 1.427 . S
C787 H777 0.929 . S
C787 C785 1.433 . S
C787 N790 1.384 . S
C788 H779 0.929 . S
C788 C780 1.378 1_565 S
C788 C783 1.350 1_565 S
C789 H776 0.929 . S
C789 C781 1.433 . S
C789 N791 1.384 . S
N790 C786 1.427 . S
N790 C787 1.384 . S
N791 C783 1.427 . S
N791 C789 1.384 . S
H792 C798 0.930 . S
H793 C802 0.930 . S
H794 C807 0.929 1_455 S
H795 C805 0.929 1_655 S
H796 C800 0.972 . S
H797 C806 0.972 . S
C798 H792 0.930 . S
C798 C799 1.367 . S
C798 C806 1.378 . S
C799 C798 1.367 . S
C799 C807 1.433 . S
C800 H796 0.972 . S
C800 C802 1.378 . S
C800 C804 1.350 . S
C801 C804 1.463 1_656 S
C801 C806 1.350 . S
C801 N809 1.427 1_655 S
C802 H793 0.930 . S
C802 C800 1.378 . S
C802 C803 1.367 . S
C803 C802 1.367 . S
C803 C805 1.433 . S
C804 C800 1.350 . S
C804 C801 1.463 1_454 S
C804 N808 1.427 1_455 S
C805 H795 0.929 1_455 S
C805 C803 1.433 . S
C805 N808 1.384 1_455 S
C806 H797 0.972 . S
C806 C798 1.378 . S
C806 C801 1.350 . S
C807 H794 0.929 1_655 S
C807 C799 1.433 . S
C807 N809 1.384 1_655 S
N808 C804 1.427 1_655 S
N808 C805 1.384 1_655 S
N809 C801 1.427 1_455 S
N809 C807 1.384 1_455 S
H810 C816 0.930 . S
H811 C820 0.930 . S
H812 C825 0.929 . S
H813 C823 0.929 . S
H814 C818 0.929 . S
H815 C824 0.929 . S
C816 H810 0.930 . S
C816 C817 1.367 . S
C816 C824 1.378 . S
C817 C816 1.367 . S
C817 C825 1.433 . S
C818 H814 0.929 . S
C818 C820 1.378 . S
C818 C822 1.350 . S
C819 C822 1.463 1_556 S
C819 C824 1.350 . S
C819 N827 1.427 . S
C820 H811 0.930 . S
C820 C818 1.378 . S
C820 C821 1.367 . S
C821 C820 1.367 . S
C821 C823 1.433 . S
C822 C818 1.350 . S
C822 C819 1.463 1_554 S
C822 N826 1.427 . S
C823 H813 0.929 . S
C823 C821 1.433 . S
C823 N826 1.384 . S
C824 H815 0.929 . S
C824 C816 1.378 . S
C824 C819 1.350 . S
C825 H812 0.929 . S
C825 C817 1.433 . S
C825 N827 1.384 . S
N826 C822 1.427 . S
N826 C823 1.384 . S
N827 C819 1.427 . S
N827 C825 1.384 . S
H828 C834 0.930 . S
H829 C838 0.930 . S
H830 C843 0.929 . S
H831 C841 0.922 1_556 S
H832 C836 0.929 . S
H833 C842 0.929 . S
C834 H828 0.930 . S
C834 C835 1.367 1_545 S
C834 C842 1.378 . S
C835 C834 1.367 1_565 S
C835 C843 1.433 . S
C836 H832 0.929 . S
C836 C838 1.378 . S
C836 C840 1.350 1_554 S
C837 C840 1.463 . S
C837 C842 1.350 . S
C837 N845 1.427 . S
C838 H829 0.930 . S
C838 C836 1.378 . S
C838 C839 1.367 . S
C839 C838 1.367 . S
C839 C841 1.433 . S
C840 C836 1.350 1_556 S
C840 C837 1.463 . S
C840 N844 1.427 . S
C841 H831 0.922 1_554 S
C841 C839 1.433 . S
C841 N844 1.384 1_554 S
C842 H833 0.929 . S
C842 C834 1.378 . S
C842 C837 1.350 . S
C843 H830 0.929 . S
C843 C835 1.433 . S
C843 N845 1.384 1_565 S
N844 C840 1.427 . S
N844 C841 1.384 1_556 S
N845 C837 1.427 . S
N845 C843 1.384 1_545 S
H846 C852 0.930 . S
H847 C856 0.930 . S
H848 C861 0.929 . S
H849 C859 0.929 . S
H850 C854 0.929 . S
H851 C860 0.929 . S
C852 H846 0.930 . S
C852 C853 1.367 . S
C852 C860 1.378 1_455 S
C853 C852 1.367 . S
C853 C861 1.433 . S
C854 H850 0.929 . S
C854 C856 1.378 . S
C854 C858 1.350 1_554 S
C855 C858 1.463 . S
C855 C860 1.350 . S
C855 N863 1.427 . S
C856 H847 0.930 . S
C856 C854 1.378 . S
C856 C857 1.367 . S
C857 C856 1.367 . S
C857 C859 1.433 . S
C858 C854 1.350 1_556 S
C858 C855 1.463 . S
C858 N862 1.433 . S
C859 H849 0.929 . S
C859 C857 1.433 . S
C859 N862 1.356 1_554 S
C860 H851 0.929 . S
C860 C852 1.378 1_655 S
C860 C855 1.350 . S
C861 H848 0.929 . S
C861 C853 1.433 . S
C861 N863 1.384 1_455 S
N862 C858 1.433 . S
N862 C859 1.356 1_556 S
N863 C855 1.427 . S
N863 C861 1.384 1_655 S
H864 C870 0.930 1_556 S
H865 C874 0.930 . S
H866 C879 0.929 . S
H867 C877 0.929 . S
H868 C872 0.929 1_554 S
H869 C878 0.929 . S
C870 H864 0.930 1_554 S
C870 C871 1.367 . S
C870 C878 1.378 1_554 S
C871 C870 1.367 . S
C871 C879 1.433 . S
C872 H868 0.929 1_556 S
C872 C874 1.378 . S
C872 C876 1.350 . S
C873 C876 1.463 . S
C873 C878 1.350 . S
C873 N881 1.427 1_556 S
C874 H865 0.930 . S
C874 C872 1.378 . S
C874 C875 1.367 . S
C875 C874 1.367 . S
C875 C877 1.433 . S
C876 C872 1.350 . S
C876 C873 1.463 . S
C876 N880 1.427 . S
C877 H867 0.929 . S
C877 C875 1.433 . S
C877 N880 1.384 . S
C878 H869 0.929 . S
C878 C870 1.378 1_556 S
C878 C873 1.350 . S
C879 H866 0.929 . S
C879 C871 1.433 . S
C879 N881 1.384 . S
N880 C876 1.427 . S
N880 C877 1.384 . S
N881 C873 1.427 1_554 S
N881 C879 1.384 . S
H882 C888 0.930 . S
H883 C892 0.930 . S
H884 C897 0.929 . S
H885 C895 0.929 . S
H886 C890 0.929 . S
H887 C896 0.929 . S
C888 H882 0.930 . S
C888 C889 1.367 . S
C888 C896 1.378 1_655 S
C889 C888 1.367 . S
C889 C897 1.433 1_655 S
C890 H886 0.929 . S
C890 C892 1.378 . S
C890 C894 1.350 . S
C891 C894 1.463 . S
C891 C896 1.350 . S
C891 N899 1.427 . S
C892 H883 0.930 . S
C892 C890 1.378 . S
C892 C893 1.367 . S
C893 C892 1.367 . S
C893 C895 1.433 . S
C894 C890 1.350 . S
C894 C891 1.463 . S
C894 N898 1.427 . S
C895 H885 0.929 . S
C895 C893 1.433 . S
C895 N898 1.384 . S
C896 H887 0.929 . S
C896 C888 1.378 1_455 S
C896 C891 1.350 . S
C897 H884 0.929 . S
C897 C889 1.433 1_455 S
C897 N899 1.384 . S
N898 C894 1.427 . S
N898 C895 1.384 . S
N899 C891 1.427 . S
N899 C897 1.384 . S
H900 C906 0.930 . S
H901 C910 0.930 . S
H902 C915 0.929 . S
H903 C913 0.929 . S
H904 C908 0.929 . S
H905 C914 0.929 . S
C906 H900 0.930 . S
C906 C907 1.367 . S
C906 C914 1.378 . S
C907 C906 1.367 . S
C907 C915 1.433 . S
C908 H904 0.929 . S
C908 C910 1.378 . S
C908 C912 1.350 . S
C909 C912 1.463 . S
C909 C914 1.350 . S
C909 N917 1.427 . S
C910 H901 0.930 . S
C910 C908 1.378 . S
C910 C911 1.367 . S
C911 C910 1.367 . S
C911 C913 1.433 . S
C912 C908 1.350 . S
C912 C909 1.463 . S
C912 N916 1.427 . S
C913 H903 0.929 . S
C913 C911 1.433 . S
C913 N916 1.384 . S
C914 H905 0.929 . S
C914 C906 1.378 . S
C914 C909 1.350 . S
C915 H902 0.929 . S
C915 C907 1.433 . S
C915 N917 1.384 . S
N916 C912 1.427 . S
N916 C913 1.384 . S
N917 C909 1.427 . S
N917 C915 1.384 . S
H918 C924 0.923 1_545 S
H919 C928 0.930 . S
H920 C933 0.929 . S
H921 C931 0.929 . S
H922 C926 0.929 . S
H923 C932 0.929 . S
C924 H918 0.923 1_565 S
C924 C925 1.367 1_565 S
C924 C932 1.378 . S
C925 C924 1.367 1_545 S
C925 C933 1.433 . S
C926 H922 0.929 . S
C926 C928 1.378 . S
C926 C930 1.350 . S
C927 C930 1.463 . S
C927 C932 1.350 . S
C927 N935 1.427 . S
C928 H919 0.930 . S
C928 C926 1.378 . S
C928 C929 1.367 . S
C929 C928 1.367 . S
C929 C931 1.433 . S
C930 C926 1.350 . S
C930 C927 1.463 . S
C930 N934 1.427 . S
C931 H921 0.929 . S
C931 C929 1.433 . S
C931 N934 1.384 . S
C932 H923 0.929 . S
C932 C924 1.378 . S
C932 C927 1.350 . S
C933 H920 0.929 . S
C933 C925 1.433 . S
C933 N935 1.384 1_545 S
N934 C930 1.427 . S
N934 C931 1.384 . S
N935 C927 1.427 . S
N935 C933 1.384 1_565 S
H936 C942 0.930 . S
H937 C946 0.930 . S
H938 C951 0.929 . S
H939 C949 0.929 . S
H940 C944 0.929 . S
H941 C950 0.911 1_554 S
C942 H936 0.930 . S
C942 C943 1.367 . S
C942 C950 1.407 . S
C943 C942 1.367 . S
C943 C951 1.433 . S
C944 H940 0.929 . S
C944 C946 1.378 1_565 S
C944 C948 1.350 . S
C945 C948 1.463 . S
C945 C950 1.341 1_554 S
C945 N953 1.427 1_554 S
C946 H937 0.930 . S
C946 C944 1.378 1_545 S
C946 C947 1.367 . S
C947 C946 1.367 . S
C947 C949 1.433 . S
C948 C944 1.350 . S
C948 C945 1.463 . S
C948 N952 1.427 . S
C949 H939 0.929 . S
C949 C947 1.433 . S
C949 N952 1.384 1_545 S
C950 H941 0.911 1_556 S
C950 C942 1.407 . S
C950 C945 1.341 1_556 S
C951 H938 0.929 . S
C951 C943 1.433 . S
C951 N953 1.384 . S
N952 C948 1.427 . S
N952 C949 1.384 1_565 S
N953 C945 1.427 1_556 S
N953 C951 1.384 . S
H954 C960 0.930 . S
H955 C964 0.930 . S
H956 C969 0.929 . S
H957 C967 0.929 . S
H958 C962 0.929 . S
H959 C968 0.929 . S
C960 H954 0.930 . S
C960 C961 1.367 . S
C960 C968 1.378 . S
C961 C960 1.367 . S
C961 C969 1.433 . S
C962 H958 0.929 . S
C962 C964 1.378 . S
C962 C966 1.350 . S
C963 C966 1.463 . S
C963 C968 1.350 1_554 S
C963 N971 1.427 . S
C964 H955 0.930 . S
C964 C962 1.378 . S
C964 C965 1.367 1_455 S
C965 C964 1.367 1_655 S
C965 C967 1.433 . S
C966 C962 1.350 . S
C966 C963 1.463 . S
C966 N970 1.427 . S
C967 H957 0.929 . S
C967 C965 1.433 . S
C967 N970 1.384 1_655 S
C968 H959 0.929 . S
C968 C960 1.378 . S
C968 C963 1.350 1_556 S
C969 H956 0.929 . S
C969 C961 1.433 . S
C969 N971 1.384 1_556 S
N970 C966 1.427 . S
N970 C967 1.384 1_455 S
N971 C963 1.427 . S
N971 C969 1.384 1_554 S
H972 C978 0.930 . S
H973 C982 0.930 . S
H974 C987 0.929 . S
H975 C985 0.929 . S
H976 C980 0.929 . S
H977 C986 0.929 . S
C978 H972 0.930 . S
C978 C979 1.367 . S
C978 C986 1.378 1_556 S
C979 C978 1.367 . S
C979 C987 1.433 . S
C980 H976 0.929 . S
C980 C982 1.378 . S
C980 C984 1.350 . S
C981 C984 1.463 . S
C981 C986 1.350 . S
C981 N989 1.427 1_554 S
C982 H973 0.930 . S
C982 C980 1.378 . S
C982 C983 1.367 . S
C983 C982 1.367 . S
C983 C985 1.433 . S
C984 C980 1.350 . S
C984 C981 1.463 . S
C984 N988 1.427 . S
C985 H975 0.929 . S
C985 C983 1.433 . S
C985 N988 1.384 . S
C986 H977 0.929 . S
C986 C978 1.378 1_554 S
C986 C981 1.350 . S
C987 H974 0.929 . S
C987 C979 1.433 . S
C987 N989 1.384 . S
N988 C984 1.427 . S
N988 C985 1.384 . S
N989 C981 1.427 1_556 S
N989 C987 1.384 . S
H990 C996 0.930 . S
H991 C1000 0.930 . S
H992 C1005 0.929 . S
H993 C1003 0.930 . S
H994 C998 0.929 . S
H995 C1004 0.929 . S
C996 H990 0.930 . S
C996 C997 1.367 . S
C996 C1004 1.378 . S
C997 C996 1.367 . S
C997 C1005 1.433 . S
C998 H994 0.929 . S
C998 C1000 1.378 1_655 S
C998 C1002 1.350 . S
C999 C1002 1.463 . S
C999 C1004 1.350 . S
C999 N1007 1.427 . S
C1000 H991 0.930 . S
C1000 C998 1.378 1_455 S
C1000 C1001 1.367 . S
C1001 C1000 1.367 . S
C1001 C1003 1.433 1_455 S
C1002 C998 1.350 . S
C1002 C999 1.463 . S
C1002 N1006 1.427 . S
C1003 H993 0.930 . S
C1003 C1001 1.433 1_655 S
C1003 N1006 1.384 . S
C1004 H995 0.929 . S
C1004 C996 1.378 . S
C1004 C999 1.350 . S
C1005 H992 0.929 . S
C1005 C997 1.433 . S
C1005 N1007 1.384 . S
N1006 C1002 1.427 . S
N1006 C1003 1.384 . S
N1007 C999 1.427 . S
N1007 C1005 1.384 . S
H1008 C1014 0.930 . S
H1009 C1018 0.930 . S
H1010 C1023 0.929 . S
H1011 C1021 0.929 . S
H1012 C1016 0.929 . S
H1013 C1022 0.929 . S
C1014 H1008 0.930 . S
C1014 C1015 1.367 . S
C1014 C1022 1.378 . S
C1015 C1014 1.367 . S
C1015 C1023 1.433 . S
C1016 H1012 0.929 . S
C1016 C1018 1.378 . S
C1016 C1020 1.350 . S
C1017 C1020 1.463 . S
C1017 C1022 1.350 . S
C1017 N1025 1.427 . S
C1018 H1009 0.930 . S
C1018 C1016 1.378 . S
C1018 C1019 1.367 . S
C1019 C1018 1.367 . S
C1019 C1021 1.433 . S
C1020 C1016 1.350 . S
C1020 C1017 1.463 . S
C1020 N1024 1.427 . S
C1021 H1011 0.929 . S
C1021 C1019 1.433 . S
C1021 N1024 1.384 . S
C1022 H1013 0.929 . S
C1022 C1014 1.378 . S
C1022 C1017 1.350 . S
C1023 H1010 0.929 . S
C1023 C1015 1.433 . S
C1023 N1025 1.384 . S
N1024 C1020 1.427 . S
N1024 C1021 1.384 . S
N1025 C1017 1.427 . S
N1025 C1023 1.384 . S
H1026 C1032 0.930 . S
H1027 C1036 0.930 . S
H1028 C1041 0.929 . S
H1029 C1039 0.929 . S
H1030 C1034 0.929 . S
H1031 C1040 0.929 . S
C1032 H1026 0.930 . S
C1032 C1033 1.367 . S
C1032 C1040 1.378 1_565 S
C1033 C1032 1.367 . S
C1033 C1041 1.433 1_565 S
C1034 H1030 0.929 . S
C1034 C1036 1.378 . S
C1034 C1038 1.350 . S
C1035 C1038 1.463 . S
C1035 C1040 1.350 . S
C1035 N1043 1.427 . S
C1036 H1027 0.930 . S
C1036 C1034 1.378 . S
C1036 C1037 1.367 . S
C1037 C1036 1.367 . S
C1037 C1039 1.433 . S
C1038 C1034 1.350 . S
C1038 C1035 1.463 . S
C1038 N1042 1.427 . S
C1039 H1029 0.929 . S
C1039 C1037 1.433 . S
C1039 N1042 1.384 . S
C1040 H1031 0.929 . S
C1040 C1032 1.378 1_545 S
C1040 C1035 1.350 . S
C1041 H1028 0.929 . S
C1041 C1033 1.433 1_545 S
C1041 N1043 1.384 . S
N1042 C1038 1.427 . S
N1042 C1039 1.384 . S
N1043 C1035 1.427 . S
N1043 C1041 1.384 . S
H1044 C1050 0.930 . S
H1045 C1054 0.930 . S
H1046 C1059 0.929 . S
H1047 C1057 0.929 . S
H1048 C1052 0.929 . S
H1049 C1058 0.929 . S
C1050 H1044 0.930 . S
C1050 C1051 1.367 . S
C1050 C1058 1.378 . S
C1051 C1050 1.367 . S
C1051 C1059 1.433 . S
C1052 H1048 0.929 . S
C1052 C1054 1.378 . S
C1052 C1056 1.350 . S
C1053 C1056 1.463 . S
C1053 C1058 1.350 . S
C1053 N1061 1.427 . S
C1054 H1045 0.930 . S
C1054 C1052 1.378 . S
C1054 C1055 1.367 . S
C1055 C1054 1.367 . S
C1055 C1057 1.433 . S
C1056 C1052 1.350 . S
C1056 C1053 1.463 . S
C1056 N1060 1.427 . S
C1057 H1047 0.929 . S
C1057 C1055 1.433 . S
C1057 N1060 1.384 . S
C1058 H1049 0.929 . S
C1058 C1050 1.378 . S
C1058 C1053 1.350 . S
C1059 H1046 0.929 . S
C1059 C1051 1.433 . S
C1059 N1061 1.384 . S
N1060 C1056 1.427 . S
N1060 C1057 1.384 . S
N1061 C1053 1.427 . S
N1061 C1059 1.384 . S
H1062 C1068 0.930 . S
H1063 C1072 0.930 . S
H1064 C1077 0.929 . S
H1065 C1075 0.929 . S
H1066 C1070 0.929 . S
H1067 C1076 0.929 . S
C1068 H1062 0.930 . S
C1068 C1069 1.367 . S
C1068 C1076 1.378 . S
C1069 C1068 1.367 . S
C1069 C1077 1.433 . S
C1070 H1066 0.929 . S
C1070 C1072 1.378 . S
C1070 C1074 1.350 . S
C1071 C1074 1.463 . S
C1071 C1076 1.350 . S
C1071 N1079 1.427 . S
C1072 H1063 0.930 . S
C1072 C1070 1.378 . S
C1072 C1073 1.367 . S
C1073 C1072 1.367 . S
C1073 C1075 1.433 . S
C1074 C1070 1.350 . S
C1074 C1071 1.463 . S
C1074 N1078 1.427 . S
C1075 H1065 0.929 . S
C1075 C1073 1.433 . S
C1075 N1078 1.384 . S
C1076 H1067 0.929 . S
C1076 C1068 1.378 . S
C1076 C1071 1.350 . S
C1077 H1064 0.929 . S
C1077 C1069 1.433 . S
C1077 N1079 1.384 . S
N1078 C1074 1.427 . S
N1078 C1075 1.384 . S
N1079 C1071 1.427 . S
N1079 C1077 1.384 . S
H1080 C1086 0.930 . S
H1081 C1090 0.930 . S
H1082 C1095 0.929 . S
H1083 C1093 0.929 . S
H1084 C1088 0.929 . S
H1085 C1094 0.929 . S
C1086 H1080 0.930 . S
C1086 C1087 1.367 . S
C1086 C1094 1.378 . S
C1087 C1086 1.367 . S
C1087 C1095 1.433 . S
C1088 H1084 0.929 . S
C1088 C1090 1.378 . S
C1088 C1092 1.350 . S
C1089 C1092 1.463 . S
C1089 C1094 1.350 . S
C1089 N1097 1.427 . S
C1090 H1081 0.930 . S
C1090 C1088 1.378 . S
C1090 C1091 1.367 . S
C1091 C1090 1.367 . S
C1091 C1093 1.433 . S
C1092 C1088 1.350 . S
C1092 C1089 1.463 . S
C1092 N1096 1.427 . S
C1093 H1083 0.929 . S
C1093 C1091 1.433 . S
C1093 N1096 1.384 . S
C1094 H1085 0.929 . S
C1094 C1086 1.378 . S
C1094 C1089 1.350 . S
C1095 H1082 0.929 . S
C1095 C1087 1.433 . S
C1095 N1097 1.384 . S
N1096 C1092 1.427 . S
N1096 C1093 1.384 . S
N1097 C1089 1.427 . S
N1097 C1095 1.384 . S
H1098 C1104 0.930 . S
H1099 C1108 0.930 . S
H1100 C1113 0.929 . S
H1101 C1111 0.929 . S
H1102 C1106 0.929 . S
H1103 C1112 0.929 . S
C1104 H1098 0.930 . S
C1104 C1105 1.367 . S
C1104 C1112 1.378 . S
C1105 C1104 1.367 . S
C1105 C1113 1.433 . S
C1106 H1102 0.929 . S
C1106 C1108 1.378 . S
C1106 C1110 1.350 . S
C1107 C1110 1.463 . S
C1107 C1112 1.350 . S
C1107 N1115 1.427 . S
C1108 H1099 0.930 . S
C1108 C1106 1.378 . S
C1108 C1109 1.367 . S
C1109 C1108 1.367 . S
C1109 C1111 1.433 . S
C1110 C1106 1.350 . S
C1110 C1107 1.463 . S
C1110 N1114 1.427 . S
C1111 H1101 0.929 . S
C1111 C1109 1.433 . S
C1111 N1114 1.384 . S
C1112 H1103 0.929 . S
C1112 C1104 1.378 . S
C1112 C1107 1.350 . S
C1113 H1100 0.929 . S
C1113 C1105 1.433 . S
C1113 N1115 1.384 . S
N1114 C1110 1.427 . S
N1114 C1111 1.384 . S
N1115 C1107 1.427 . S
N1115 C1113 1.384 . S
H1116 C1122 0.930 . S
H1117 C1126 0.930 . S
H1118 C1131 0.929 . S
H1119 C1129 0.929 . S
H1120 C1124 0.929 . S
H1121 C1130 0.929 . S
C1122 H1116 0.930 . S
C1122 C1123 1.367 . S
C1122 C1130 1.378 . S
C1123 C1122 1.367 . S
C1123 C1131 1.433 . S
C1124 H1120 0.929 . S
C1124 C1126 1.378 . S
C1124 C1128 1.350 . S
C1125 C1128 1.463 . S
C1125 C1130 1.350 . S
C1125 N1133 1.427 . S
C1126 H1117 0.930 . S
C1126 C1124 1.378 . S
C1126 C1127 1.367 . S
C1127 C1126 1.367 . S
C1127 C1129 1.433 . S
C1128 C1124 1.350 . S
C1128 C1125 1.463 . S
C1128 N1132 1.427 . S
C1129 H1119 0.929 . S
C1129 C1127 1.433 . S
C1129 N1132 1.384 . S
C1130 H1121 0.929 . S
C1130 C1122 1.378 . S
C1130 C1125 1.350 . S
C1131 H1118 0.929 . S
C1131 C1123 1.433 . S
C1131 N1133 1.384 . S
N1132 C1128 1.427 . S
N1132 C1129 1.384 . S
N1133 C1125 1.427 . S
N1133 C1131 1.384 . S
H1134 C1140 0.930 . S
H1135 C1144 0.930 . S
H1136 C1149 0.929 . S
H1137 C1147 0.929 . S
H1138 C1142 0.929 . S
H1139 C1148 0.929 . S
C1140 H1134 0.930 . S
C1140 C1141 1.367 . S
C1140 C1148 1.378 . S
C1141 C1140 1.367 . S
C1141 C1149 1.433 . S
C1142 H1138 0.929 . S
C1142 C1144 1.378 . S
C1142 C1146 1.350 . S
C1143 C1146 1.463 . S
C1143 C1148 1.350 . S
C1143 N1151 1.427 . S
C1144 H1135 0.930 . S
C1144 C1142 1.378 . S
C1144 C1145 1.367 . S
C1145 C1144 1.367 . S
C1145 C1147 1.433 . S
C1146 C1142 1.350 . S
C1146 C1143 1.463 . S
C1146 N1150 1.427 . S
C1147 H1137 0.929 . S
C1147 C1145 1.433 . S
C1147 N1150 1.384 . S
C1148 H1139 0.929 . S
C1148 C1140 1.378 . S
C1148 C1143 1.350 . S
C1149 H1136 0.929 . S
C1149 C1141 1.433 . S
C1149 N1151 1.384 . S
N1150 C1146 1.427 . S
N1150 C1147 1.384 . S
N1151 C1143 1.427 . S
N1151 C1149 1.384 . S
H1152 C1158 0.930 . S
H1153 C1162 0.930 . S
H1154 C1167 0.929 . S
H1155 C1165 0.929 . S
H1156 C1160 0.929 . S
H1157 C1166 0.929 . S
C1158 H1152 0.930 . S
C1158 C1159 1.367 . S
C1158 C1166 1.378 . S
C1159 C1158 1.367 . S
C1159 C1167 1.433 . S
C1160 H1156 0.929 . S
C1160 C1162 1.378 . S
C1160 C1164 1.350 . S
C1161 C1164 1.463 . S
C1161 C1166 1.350 . S
C1161 N1169 1.427 . S
C1162 H1153 0.930 . S
C1162 C1160 1.378 . S
C1162 C1163 1.367 . S
C1163 C1162 1.367 . S
C1163 C1165 1.433 . S
C1164 C1160 1.350 . S
C1164 C1161 1.463 . S
C1164 N1168 1.427 . S
C1165 H1155 0.929 . S
C1165 C1163 1.433 . S
C1165 N1168 1.384 . S
C1166 H1157 0.929 . S
C1166 C1158 1.378 . S
C1166 C1161 1.350 . S
C1167 H1154 0.929 . S
C1167 C1159 1.433 . S
C1167 N1169 1.384 . S
N1168 C1164 1.427 . S
N1168 C1165 1.384 . S
N1169 C1161 1.427 . S
N1169 C1167 1.384 . S
H1170 C1176 0.930 . S
H1171 C1180 0.930 . S
H1172 C1185 0.929 . S
H1173 C1183 0.929 . S
H1174 C1178 0.929 . S
H1175 C1184 0.929 . S
C1176 H1170 0.930 . S
C1176 C1177 1.367 . S
C1176 C1184 1.378 . S
C1177 C1176 1.367 . S
C1177 C1185 1.433 . S
C1178 H1174 0.929 . S
C1178 C1180 1.378 . S
C1178 C1182 1.350 . S
C1179 C1182 1.463 . S
C1179 C1184 1.350 . S
C1179 N1187 1.427 . S
C1180 H1171 0.930 . S
C1180 C1178 1.378 . S
C1180 C1181 1.367 . S
C1181 C1180 1.367 . S
C1181 C1183 1.433 . S
C1182 C1178 1.350 . S
C1182 C1179 1.463 . S
C1182 N1186 1.427 . S
C1183 H1173 0.929 . S
C1183 C1181 1.433 . S
C1183 N1186 1.384 . S
C1184 H1175 0.929 . S
C1184 C1176 1.378 . S
C1184 C1179 1.350 . S
C1185 H1172 0.929 . S
C1185 C1177 1.433 . S
C1185 N1187 1.384 . S
N1186 C1182 1.427 . S
N1186 C1183 1.384 . S
N1187 C1179 1.427 . S
N1187 C1185 1.384 . S
H1188 C1194 0.930 . S
H1189 C1198 0.930 . S
H1190 C1203 0.929 . S
H1191 C1201 0.929 . S
H1192 C1196 0.929 . S
H1193 C1202 0.929 . S
C1194 H1188 0.930 . S
C1194 C1195 1.367 . S
C1194 C1202 1.378 . S
C1195 C1194 1.367 . S
C1195 C1203 1.433 . S
C1196 H1192 0.929 . S
C1196 C1198 1.378 . S
C1196 C1200 1.350 . S
C1197 C1200 1.463 . S
C1197 C1202 1.350 . S
C1197 N1205 1.427 . S
C1198 H1189 0.930 . S
C1198 C1196 1.378 . S
C1198 C1199 1.367 . S
C1199 C1198 1.367 . S
C1199 C1201 1.433 . S
C1200 C1196 1.350 . S
C1200 C1197 1.463 . S
C1200 N1204 1.427 . S
C1201 H1191 0.929 . S
C1201 C1199 1.433 . S
C1201 N1204 1.384 . S
C1202 H1193 0.929 . S
C1202 C1194 1.378 . S
C1202 C1197 1.350 . S
C1203 H1190 0.929 . S
C1203 C1195 1.433 . S
C1203 N1205 1.384 . S
N1204 C1200 1.427 . S
N1204 C1201 1.384 . S
N1205 C1197 1.427 . S
N1205 C1203 1.384 . S
H1206 C1212 0.930 . S
H1207 C1216 0.930 . S
H1208 C1221 0.929 . S
H1209 C1219 0.929 . S
H1210 C1214 0.929 . S
H1211 C1220 0.929 . S
C1212 H1206 0.930 . S
C1212 C1213 1.367 . S
C1212 C1220 1.378 . S
C1213 C1212 1.367 . S
C1213 C1221 1.433 . S
C1214 H1210 0.929 . S
C1214 C1216 1.378 . S
C1214 C1218 1.350 . S
C1215 C1218 1.463 . S
C1215 C1220 1.350 . S
C1215 N1223 1.427 . S
C1216 H1207 0.930 . S
C1216 C1214 1.378 . S
C1216 C1217 1.367 . S
C1217 C1216 1.367 . S
C1217 C1219 1.433 . S
C1218 C1214 1.350 . S
C1218 C1215 1.463 . S
C1218 N1222 1.427 . S
C1219 H1209 0.929 . S
C1219 C1217 1.433 . S
C1219 N1222 1.384 . S
C1220 H1211 0.929 . S
C1220 C1212 1.378 . S
C1220 C1215 1.350 . S
C1221 H1208 0.929 . S
C1221 C1213 1.433 . S
C1221 N1223 1.384 . S
N1222 C1218 1.427 . S
N1222 C1219 1.384 . S
N1223 C1215 1.427 . S
N1223 C1221 1.384 . S
H1224 C1230 0.930 . S
H1225 C1234 0.930 . S
H1226 C1239 0.929 . S
H1227 C1237 0.929 . S
H1228 C1232 0.929 . S
H1229 C1238 0.929 . S
C1230 H1224 0.930 . S
C1230 C1231 1.367 . S
C1230 C1238 1.378 . S
C1231 C1230 1.367 . S
C1231 C1239 1.433 . S
C1232 H1228 0.929 . S
C1232 C1234 1.378 . S
C1232 C1236 1.350 . S
C1233 C1236 1.463 . S
C1233 C1238 1.350 . S
C1233 N1241 1.427 . S
C1234 H1225 0.930 . S
C1234 C1232 1.378 . S
C1234 C1235 1.367 . S
C1235 C1234 1.367 . S
C1235 C1237 1.433 . S
C1236 C1232 1.350 . S
C1236 C1233 1.463 . S
C1236 N1240 1.427 . S
C1237 H1227 0.929 . S
C1237 C1235 1.433 . S
C1237 N1240 1.384 . S
C1238 H1229 0.929 . S
C1238 C1230 1.378 . S
C1238 C1233 1.350 . S
C1239 H1226 0.929 . S
C1239 C1231 1.433 . S
C1239 N1241 1.384 . S
N1240 C1236 1.427 . S
N1240 C1237 1.384 . S
N1241 C1233 1.427 . S
N1241 C1239 1.384 . S
H1242 C1248 0.930 . S
H1243 C1252 0.930 . S
H1244 C1257 0.929 . S
H1245 C1255 0.929 . S
H1246 C1250 0.929 . S
H1247 C1256 0.929 . S
C1248 H1242 0.930 . S
C1248 C1249 1.367 . S
C1248 C1256 1.378 . S
C1249 C1248 1.367 . S
C1249 C1257 1.433 . S
C1250 H1246 0.929 . S
C1250 C1252 1.378 . S
C1250 C1254 1.350 . S
C1251 C1254 1.463 . S
C1251 C1256 1.350 . S
C1251 N1259 1.427 . S
C1252 H1243 0.930 . S
C1252 C1250 1.378 . S
C1252 C1253 1.367 . S
C1253 C1252 1.367 . S
C1253 C1255 1.433 . S
C1254 C1250 1.350 . S
C1254 C1251 1.463 . S
C1254 N1258 1.427 . S
C1255 H1245 0.929 . S
C1255 C1253 1.433 . S
C1255 N1258 1.384 . S
C1256 H1247 0.929 . S
C1256 C1248 1.378 . S
C1256 C1251 1.350 . S
C1257 H1244 0.929 . S
C1257 C1249 1.433 . S
C1257 N1259 1.384 . S
N1258 C1254 1.427 . S
N1258 C1255 1.384 . S
N1259 C1251 1.427 . S
N1259 C1257 1.384 . S
H1260 C1266 0.930 . S
H1261 C1270 0.930 . S
H1262 C1275 0.929 . S
H1263 C1273 0.929 . S
H1264 C1268 0.929 . S
H1265 C1274 0.929 . S
C1266 H1260 0.930 . S
C1266 C1267 1.367 . S
C1266 C1274 1.378 . S
C1267 C1266 1.367 . S
C1267 C1275 1.433 . S
C1268 H1264 0.929 . S
C1268 C1270 1.378 . S
C1268 C1272 1.350 . S
C1269 C1272 1.463 . S
C1269 C1274 1.350 . S
C1269 N1277 1.427 . S
C1270 H1261 0.930 . S
C1270 C1268 1.378 . S
C1270 C1271 1.367 . S
C1271 C1270 1.367 . S
C1271 C1273 1.433 . S
C1272 C1268 1.350 . S
C1272 C1269 1.463 . S
C1272 N1276 1.427 . S
C1273 H1263 0.929 . S
C1273 C1271 1.433 . S
C1273 N1276 1.384 . S
C1274 H1265 0.929 . S
C1274 C1266 1.378 . S
C1274 C1269 1.350 . S
C1275 H1262 0.929 . S
C1275 C1267 1.433 . S
C1275 N1277 1.384 . S
N1276 C1272 1.427 . S
N1276 C1273 1.384 . S
N1277 C1269 1.427 . S
N1277 C1275 1.384 . S
H1278 C1284 0.930 . S
H1279 C1288 0.930 . S
H1280 C1293 0.929 . S
H1281 C1291 0.929 . S
H1282 C1286 0.929 . S
H1283 C1292 0.929 . S
C1284 H1278 0.930 . S
C1284 C1285 1.367 . S
C1284 C1292 1.378 . S
C1285 C1284 1.367 . S
C1285 C1293 1.433 . S
C1286 H1282 0.929 . S
C1286 C1288 1.378 . S
C1286 C1290 1.350 . S
C1287 C1290 1.463 . S
C1287 C1292 1.350 . S
C1287 N1295 1.427 . S
C1288 H1279 0.930 . S
C1288 C1286 1.378 . S
C1288 C1289 1.367 . S
C1289 C1288 1.367 . S
C1289 C1291 1.433 . S
C1290 C1286 1.350 . S
C1290 C1287 1.463 . S
C1290 N1294 1.427 . S
C1291 H1281 0.929 . S
C1291 C1289 1.433 . S
C1291 N1294 1.384 . S
C1292 H1283 0.929 . S
C1292 C1284 1.378 . S
C1292 C1287 1.350 . S
C1293 H1280 0.929 . S
C1293 C1285 1.433 . S
C1293 N1295 1.384 . S
N1294 C1290 1.427 . S
N1294 C1291 1.384 . S
N1295 C1287 1.427 . S
N1295 C1293 1.384 . S
H1296 C1302 0.930 . S
H1297 C1306 0.930 . S
H1298 C1311 0.929 . S
H1299 C1309 0.929 . S
H1300 C1304 0.929 . S
H1301 C1310 0.929 . S
C1302 H1296 0.930 . S
C1302 C1303 1.367 . S
C1302 C1310 1.378 . S
C1303 C1302 1.367 . S
C1303 C1311 1.433 . S
C1304 H1300 0.929 . S
C1304 C1306 1.378 . S
C1304 C1308 1.350 . S
C1305 C1308 1.463 . S
C1305 C1310 1.350 . S
C1305 N1313 1.427 . S
C1306 H1297 0.930 . S
C1306 C1304 1.378 . S
C1306 C1307 1.367 . S
C1307 C1306 1.367 . S
C1307 C1309 1.433 . S
C1308 C1304 1.350 . S
C1308 C1305 1.463 . S
C1308 N1312 1.427 . S
C1309 H1299 0.929 . S
C1309 C1307 1.433 . S
C1309 N1312 1.384 . S
C1310 H1301 0.929 . S
C1310 C1302 1.378 . S
C1310 C1305 1.350 . S
C1311 H1298 0.929 . S
C1311 C1303 1.433 . S
C1311 N1313 1.384 . S
N1312 C1308 1.427 . S
N1312 C1309 1.384 . S
N1313 C1305 1.427 . S
N1313 C1311 1.384 . S
H1314 C1320 0.930 . S
H1315 C1324 0.930 . S
H1316 C1329 0.929 . S
H1317 C1327 0.929 . S
H1318 C1322 0.929 . S
H1319 C1328 0.929 . S
C1320 H1314 0.930 . S
C1320 C1321 1.367 . S
C1320 C1328 1.378 . S
C1321 C1320 1.367 . S
C1321 C1329 1.433 . S
C1322 H1318 0.929 . S
C1322 C1324 1.378 . S
C1322 C1326 1.350 . S
C1323 C1326 1.463 . S
C1323 C1328 1.350 . S
C1323 N1331 1.427 . S
C1324 H1315 0.930 . S
C1324 C1322 1.378 . S
C1324 C1325 1.367 . S
C1325 C1324 1.367 . S
C1325 C1327 1.433 . S
C1326 C1322 1.350 . S
C1326 C1323 1.463 . S
C1326 N1330 1.427 . S
C1327 H1317 0.929 . S
C1327 C1325 1.433 . S
C1327 N1330 1.384 . S
C1328 H1319 0.929 . S
C1328 C1320 1.378 . S
C1328 C1323 1.350 . S
C1329 H1316 0.929 . S
C1329 C1321 1.433 . S
C1329 N1331 1.384 . S
N1330 C1326 1.427 . S
N1330 C1327 1.384 . S
N1331 C1323 1.427 . S
N1331 C1329 1.384 . S
H1332 C1338 0.930 . S
H1333 C1342 0.930 . S
H1334 C1347 0.929 . S
H1335 C1345 0.929 . S
H1336 C1340 0.929 . S
H1337 C1346 0.929 . S
C1338 H1332 0.930 . S
C1338 C1339 1.367 . S
C1338 C1346 1.378 . S
C1339 C1338 1.367 . S
C1339 C1347 1.433 . S
C1340 H1336 0.929 . S
C1340 C1342 1.378 . S
C1340 C1344 1.350 . S
C1341 C1344 1.463 . S
C1341 C1346 1.350 . S
C1341 N1349 1.427 . S
C1342 H1333 0.930 . S
C1342 C1340 1.378 . S
C1342 C1343 1.367 . S
C1343 C1342 1.367 . S
C1343 C1345 1.433 . S
C1344 C1340 1.350 . S
C1344 C1341 1.463 . S
C1344 N1348 1.427 . S
C1345 H1335 0.929 . S
C1345 C1343 1.433 . S
C1345 N1348 1.384 . S
C1346 H1337 0.929 . S
C1346 C1338 1.378 . S
C1346 C1341 1.350 . S
C1347 H1334 0.929 . S
C1347 C1339 1.433 . S
C1347 N1349 1.384 . S
N1348 C1344 1.427 . S
N1348 C1345 1.384 . S
N1349 C1341 1.427 . S
N1349 C1347 1.384 . S
H1350 C1356 0.930 . S
H1351 C1360 0.930 . S
H1352 C1365 0.929 . S
H1353 C1363 0.929 . S
H1354 C1358 0.929 . S
H1355 C1364 0.929 . S
C1356 H1350 0.930 . S
C1356 C1357 1.367 . S
C1356 C1364 1.378 . S
C1357 C1356 1.367 . S
C1357 C1365 1.433 . S
C1358 H1354 0.929 . S
C1358 C1360 1.378 . S
C1358 C1362 1.350 . S
C1359 C1362 1.463 . S
C1359 C1364 1.350 . S
C1359 N1367 1.427 . S
C1360 H1351 0.930 . S
C1360 C1358 1.378 . S
C1360 C1361 1.367 . S
C1361 C1360 1.367 . S
C1361 C1363 1.433 . S
C1362 C1358 1.350 . S
C1362 C1359 1.463 . S
C1362 N1366 1.427 . S
C1363 H1353 0.929 . S
C1363 C1361 1.433 . S
C1363 N1366 1.384 . S
C1364 H1355 0.929 . S
C1364 C1356 1.378 . S
C1364 C1359 1.350 . S
C1365 H1352 0.929 . S
C1365 C1357 1.433 . S
C1365 N1367 1.384 . S
N1366 C1362 1.427 . S
N1366 C1363 1.384 . S
N1367 C1359 1.427 . S
N1367 C1365 1.384 . S
H1368 C1374 0.930 . S
H1369 C1378 0.930 . S
H1370 C1383 0.929 . S
H1371 C1381 0.929 . S
H1372 C1376 0.929 . S
H1373 C1382 0.929 . S
C1374 H1368 0.930 . S
C1374 C1375 1.367 . S
C1374 C1382 1.378 . S
C1375 C1374 1.367 . S
C1375 C1383 1.433 . S
C1376 H1372 0.929 . S
C1376 C1378 1.378 . S
C1376 C1380 1.350 . S
C1377 C1380 1.463 . S
C1377 C1382 1.350 . S
C1377 N1385 1.427 . S
C1378 H1369 0.930 . S
C1378 C1376 1.378 . S
C1378 C1379 1.367 . S
C1379 C1378 1.367 . S
C1379 C1381 1.433 . S
C1380 C1376 1.350 . S
C1380 C1377 1.463 . S
C1380 N1384 1.427 . S
C1381 H1371 0.929 . S
C1381 C1379 1.433 . S
C1381 N1384 1.384 . S
C1382 H1373 0.929 . S
C1382 C1374 1.378 . S
C1382 C1377 1.350 . S
C1383 H1370 0.929 . S
C1383 C1375 1.433 . S
C1383 N1385 1.384 . S
N1384 C1380 1.427 . S
N1384 C1381 1.384 . S
N1385 C1377 1.427 . S
N1385 C1383 1.384 . S
H1386 C1392 0.930 . S
H1387 C1396 0.930 . S
H1388 C1401 0.929 . S
H1389 C1399 0.929 . S
H1390 C1394 0.929 . S
H1391 C1400 0.929 . S
C1392 H1386 0.930 . S
C1392 C1393 1.367 . S
C1392 C1400 1.378 . S
C1393 C1392 1.367 . S
C1393 C1401 1.433 . S
C1394 H1390 0.929 . S
C1394 C1396 1.378 . S
C1394 C1398 1.350 . S
C1395 C1398 1.463 . S
C1395 C1400 1.350 . S
C1395 N1403 1.427 . S
C1396 H1387 0.930 . S
C1396 C1394 1.378 . S
C1396 C1397 1.367 . S
C1397 C1396 1.367 . S
C1397 C1399 1.433 . S
C1398 C1394 1.350 . S
C1398 C1395 1.463 . S
C1398 N1402 1.427 . S
C1399 H1389 0.929 . S
C1399 C1397 1.433 . S
C1399 N1402 1.384 . S
C1400 H1391 0.929 . S
C1400 C1392 1.378 . S
C1400 C1395 1.350 . S
C1401 H1388 0.929 . S
C1401 C1393 1.433 . S
C1401 N1403 1.384 . S
N1402 C1398 1.427 . S
N1402 C1399 1.384 . S
N1403 C1395 1.427 . S
N1403 C1401 1.384 . S
H1404 C1410 0.930 . S
H1405 C1414 0.930 . S
H1406 C1419 0.929 . S
H1407 C1417 0.929 . S
H1408 C1412 0.929 . S
H1409 C1418 0.929 . S
C1410 H1404 0.930 . S
C1410 C1411 1.367 . S
C1410 C1418 1.378 . S
C1411 C1410 1.367 . S
C1411 C1419 1.433 . S
C1412 H1408 0.929 . S
C1412 C1414 1.378 . S
C1412 C1416 1.350 . S
C1413 C1416 1.463 . S
C1413 C1418 1.350 . S
C1413 N1421 1.427 . S
C1414 H1405 0.930 . S
C1414 C1412 1.378 . S
C1414 C1415 1.367 . S
C1415 C1414 1.367 . S
C1415 C1417 1.433 . S
C1416 C1412 1.350 . S
C1416 C1413 1.463 . S
C1416 N1420 1.427 . S
C1417 H1407 0.929 . S
C1417 C1415 1.433 . S
C1417 N1420 1.384 . S
C1418 H1409 0.929 . S
C1418 C1410 1.378 . S
C1418 C1413 1.350 . S
C1419 H1406 0.929 . S
C1419 C1411 1.433 . S
C1419 N1421 1.384 . S
N1420 C1416 1.427 . S
N1420 C1417 1.384 . S
N1421 C1413 1.427 . S
N1421 C1419 1.384 . S
H1422 C1428 0.930 . S
H1423 C1432 0.930 . S
H1424 C1437 0.929 . S
H1425 C1435 0.929 . S
H1426 C1430 0.929 . S
H1427 C1436 0.929 . S
C1428 H1422 0.930 . S
C1428 C1429 1.367 . S
C1428 C1436 1.378 . S
C1429 C1428 1.367 . S
C1429 C1437 1.433 . S
C1430 H1426 0.929 . S
C1430 C1432 1.378 . S
C1430 C1434 1.350 . S
C1431 C1434 1.463 . S
C1431 C1436 1.350 . S
C1431 N1439 1.427 . S
C1432 H1423 0.930 . S
C1432 C1430 1.378 . S
C1432 C1433 1.367 . S
C1433 C1432 1.367 . S
C1433 C1435 1.433 . S
C1434 C1430 1.350 . S
C1434 C1431 1.463 . S
C1434 N1438 1.427 . S
C1435 H1425 0.929 . S
C1435 C1433 1.433 . S
C1435 N1438 1.384 . S
C1436 H1427 0.929 . S
C1436 C1428 1.378 . S
C1436 C1431 1.350 . S
C1437 H1424 0.929 . S
C1437 C1429 1.433 . S
C1437 N1439 1.384 . S
N1438 C1434 1.427 . S
N1438 C1435 1.384 . S
N1439 C1431 1.427 . S
N1439 C1437 1.384 . S
H1440 C1446 0.930 . S
H1441 C1450 0.930 . S
H1442 C1455 0.929 . S
H1443 C1453 0.929 . S
H1444 C1448 0.929 . S
H1445 C1454 0.929 . S
C1446 H1440 0.930 . S
C1446 C1447 1.367 . S
C1446 C1454 1.378 . S
C1447 C1446 1.367 . S
C1447 C1455 1.433 . S
C1448 H1444 0.929 . S
C1448 C1450 1.378 . S
C1448 C1452 1.350 . S
C1449 C1452 1.463 . S
C1449 C1454 1.350 . S
C1449 N1457 1.427 . S
C1450 H1441 0.930 . S
C1450 C1448 1.378 . S
C1450 C1451 1.367 . S
C1451 C1450 1.367 . S
C1451 C1453 1.433 . S
C1452 C1448 1.350 . S
C1452 C1449 1.463 . S
C1452 N1456 1.427 . S
C1453 H1443 0.929 . S
C1453 C1451 1.433 . S
C1453 N1456 1.384 . S
C1454 H1445 0.929 . S
C1454 C1446 1.378 . S
C1454 C1449 1.350 . S
C1455 H1442 0.929 . S
C1455 C1447 1.433 . S
C1455 N1457 1.384 . S
N1456 C1452 1.427 . S
N1456 C1453 1.384 . S
N1457 C1449 1.427 . S
N1457 C1455 1.384 . S
H1458 C1464 0.930 . S
H1459 C1468 0.930 . S
H1460 C1473 0.929 . S
H1461 C1471 0.929 . S
H1462 C1466 0.929 . S
H1463 C1472 0.929 . S
C1464 H1458 0.930 . S
C1464 C1465 1.367 . S
C1464 C1472 1.378 . S
C1465 C1464 1.367 . S
C1465 C1473 1.433 . S
C1466 H1462 0.929 . S
C1466 C1468 1.378 . S
C1466 C1470 1.350 . S
C1467 C1470 1.463 . S
C1467 C1472 1.350 . S
C1467 N1475 1.427 . S
C1468 H1459 0.930 . S
C1468 C1466 1.378 . S
C1468 C1469 1.367 . S
C1469 C1468 1.367 . S
C1469 C1471 1.433 . S
C1470 C1466 1.350 . S
C1470 C1467 1.463 . S
C1470 N1474 1.427 . S
C1471 H1461 0.929 . S
C1471 C1469 1.433 . S
C1471 N1474 1.384 . S
C1472 H1463 0.929 . S
C1472 C1464 1.378 . S
C1472 C1467 1.350 . S
C1473 H1460 0.929 . S
C1473 C1465 1.433 . S
C1473 N1475 1.384 . S
N1474 C1470 1.427 . S
N1474 C1471 1.384 . S
N1475 C1467 1.427 . S
N1475 C1473 1.384 . S
H1476 C1482 0.930 . S
H1477 C1486 0.930 . S
H1478 C1491 0.929 . S
H1479 C1489 0.929 . S
H1480 C1484 0.929 . S
H1481 C1490 0.929 . S
C1482 H1476 0.930 . S
C1482 C1483 1.367 . S
C1482 C1490 1.378 . S
C1483 C1482 1.367 . S
C1483 C1491 1.433 . S
C1484 H1480 0.929 . S
C1484 C1486 1.378 . S
C1484 C1488 1.350 . S
C1485 C1488 1.463 . S
C1485 C1490 1.350 . S
C1485 N1493 1.427 . S
C1486 H1477 0.930 . S
C1486 C1484 1.378 . S
C1486 C1487 1.367 . S
C1487 C1486 1.367 . S
C1487 C1489 1.433 . S
C1488 C1484 1.350 . S
C1488 C1485 1.463 . S
C1488 N1492 1.427 . S
C1489 H1479 0.929 . S
C1489 C1487 1.433 . S
C1489 N1492 1.384 . S
C1490 H1481 0.929 . S
C1490 C1482 1.378 . S
C1490 C1485 1.350 . S
C1491 H1478 0.929 . S
C1491 C1483 1.433 . S
C1491 N1493 1.384 . S
N1492 C1488 1.427 . S
N1492 C1489 1.384 . S
N1493 C1485 1.427 . S
N1493 C1491 1.384 . S
H1494 C1500 0.930 . S
H1495 C1504 0.930 . S
H1496 C1509 0.929 . S
H1497 C1507 0.929 . S
H1498 C1502 0.929 . S
H1499 C1508 0.929 . S
C1500 H1494 0.930 . S
C1500 C1501 1.367 . S
C1500 C1508 1.378 . S
C1501 C1500 1.367 . S
C1501 C1509 1.433 1_565 S
C1502 H1498 0.929 . S
C1502 C1504 1.378 . S
C1502 C1506 1.350 . S
C1503 C1506 1.463 . S
C1503 C1508 1.350 1_545 S
C1503 N1511 1.427 . S
C1504 H1495 0.930 . S
C1504 C1502 1.378 . S
C1504 C1505 1.367 . S
C1505 C1504 1.367 . S
C1505 C1507 1.433 . S
C1506 C1502 1.350 . S
C1506 C1503 1.463 . S
C1506 N1510 1.427 . S
C1507 H1497 0.929 . S
C1507 C1505 1.433 . S
C1507 N1510 1.384 . S
C1508 H1499 0.929 . S
C1508 C1500 1.378 . S
C1508 C1503 1.350 1_565 S
C1509 H1496 0.929 . S
C1509 C1501 1.433 1_545 S
C1509 N1511 1.384 . S
N1510 C1506 1.427 . S
N1510 C1507 1.384 . S
N1511 C1503 1.427 . S
N1511 C1509 1.384 . S
H1512 C1518 0.930 . S
H1513 C1522 0.929 1_455 S
H1514 C1527 0.929 . S
H1515 C1525 0.929 . S
H1516 C1520 0.929 . S
H1517 C1526 0.929 . S
C1518 H1512 0.930 . S
C1518 C1519 1.367 . S
C1518 C1526 1.378 . S
C1519 C1518 1.367 . S
C1519 C1527 1.433 . S
C1520 H1516 0.929 . S
C1520 C1522 1.388 . S
C1520 C1524 1.350 . S
C1521 C1524 1.463 . S
C1521 C1526 1.350 . S
C1521 N1529 1.427 . S
C1522 H1513 0.929 1_655 S
C1522 C1520 1.388 . S
C1522 C1523 1.358 1_655 S
C1523 C1522 1.358 1_455 S
C1523 C1525 1.433 . S
C1524 C1520 1.350 . S
C1524 C1521 1.463 . S
C1524 N1528 1.427 . S
C1525 H1515 0.929 . S
C1525 C1523 1.433 . S
C1525 N1528 1.384 1_455 S
C1526 H1517 0.929 . S
C1526 C1518 1.378 . S
C1526 C1521 1.350 . S
C1527 H1514 0.929 . S
C1527 C1519 1.433 . S
C1527 N1529 1.384 . S
N1528 C1524 1.427 . S
N1528 C1525 1.384 1_655 S
N1529 C1521 1.427 . S
N1529 C1527 1.384 . S
H1530 C1536 0.930 . S
H1531 C1540 0.930 . S
H1532 C1545 0.929 . S
H1533 C1543 0.929 . S
H1534 C1538 0.929 . S
H1535 C1544 0.929 . S
C1536 H1530 0.930 . S
C1536 C1537 1.367 . S
C1536 C1544 1.378 . S
C1537 C1536 1.367 . S
C1537 C1545 1.433 . S
C1538 H1534 0.929 . S
C1538 C1540 1.378 . S
C1538 C1542 1.350 . S
C1539 C1542 1.463 . S
C1539 C1544 1.350 . S
C1539 N1547 1.427 . S
C1540 H1531 0.930 . S
C1540 C1538 1.378 . S
C1540 C1541 1.367 . S
C1541 C1540 1.367 . S
C1541 C1543 1.433 . S
C1542 C1538 1.350 . S
C1542 C1539 1.463 . S
C1542 N1546 1.427 . S
C1543 H1533 0.929 . S
C1543 C1541 1.433 . S
C1543 N1546 1.384 . S
C1544 H1535 0.929 . S
C1544 C1536 1.378 . S
C1544 C1539 1.350 . S
C1545 H1532 0.929 . S
C1545 C1537 1.433 . S
C1545 N1547 1.384 . S
N1546 C1542 1.427 . S
N1546 C1543 1.384 . S
N1547 C1539 1.427 . S
N1547 C1545 1.384 . S
H1548 C1554 0.930 . S
H1549 C1558 0.930 . S
H1550 C1563 0.929 . S
H1551 C1561 0.929 . S
H1552 C1556 0.929 . S
H1553 C1562 0.931 . S
C1554 H1548 0.930 . S
C1554 C1555 1.367 . S
C1554 C1562 1.377 . S
C1555 C1554 1.367 . S
C1555 C1563 1.433 1_545 S
C1556 H1552 0.929 . S
C1556 C1558 1.378 . S
C1556 C1560 1.350 . S
C1557 C1560 1.463 . S
C1557 C1562 1.351 1_565 S
C1557 N1565 1.427 . S
C1558 H1549 0.930 . S
C1558 C1556 1.378 . S
C1558 C1559 1.367 . S
C1559 C1558 1.367 . S
C1559 C1561 1.433 . S
C1560 C1556 1.350 . S
C1560 C1557 1.463 . S
C1560 N1564 1.427 . S
C1561 H1551 0.929 . S
C1561 C1559 1.433 . S
C1561 N1564 1.384 . S
C1562 H1553 0.931 . S
C1562 C1554 1.377 . S
C1562 C1557 1.351 1_545 S
C1563 H1550 0.929 . S
C1563 C1555 1.433 1_565 S
C1563 N1565 1.384 . S
N1564 C1560 1.427 . S
N1564 C1561 1.384 . S
N1565 C1557 1.427 . S
N1565 C1563 1.384 . S
H1566 C1572 0.930 . S
H1567 C1576 0.930 . S
H1568 C1581 0.929 . S
H1569 C1579 0.929 . S
H1570 C1574 0.929 . S
H1571 C1580 0.929 . S
C1572 H1566 0.930 . S
C1572 C1573 1.367 . S
C1572 C1580 1.378 . S
C1573 C1572 1.367 . S
C1573 C1581 1.433 . S
C1574 H1570 0.929 . S
C1574 C1576 1.378 . S
C1574 C1578 1.350 1_655 S
C1575 C1578 1.463 . S
C1575 C1580 1.350 . S
C1575 N1583 1.427 . S
C1576 H1567 0.930 . S
C1576 C1574 1.378 . S
C1576 C1577 1.367 . S
C1577 C1576 1.367 . S
C1577 C1579 1.433 1_655 S
C1578 C1574 1.350 1_455 S
C1578 C1575 1.463 . S
C1578 N1582 1.427 . S
C1579 H1569 0.929 . S
C1579 C1577 1.433 1_455 S
C1579 N1582 1.384 . S
C1580 H1571 0.929 . S
C1580 C1572 1.378 . S
C1580 C1575 1.350 . S
C1581 H1568 0.929 . S
C1581 C1573 1.433 . S
C1581 N1583 1.384 . S
N1582 C1578 1.427 . S
N1582 C1579 1.384 . S
N1583 C1575 1.427 . S
N1583 C1581 1.384 . S
H1584 C1590 0.930 . S
H1585 C1594 0.930 . S
H1586 C1599 0.929 . S
H1587 C1597 0.929 . S
H1588 C1592 0.929 . S
H1589 C1598 0.929 . S
C1590 H1584 0.930 . S
C1590 C1591 1.367 . S
C1590 C1598 1.378 . S
C1591 C1590 1.367 . S
C1591 C1599 1.433 . S
C1592 H1588 0.929 . S
C1592 C1594 1.378 . S
C1592 C1596 1.350 . S
C1593 C1596 1.463 . S
C1593 C1598 1.350 . S
C1593 N1601 1.427 . S
C1594 H1585 0.930 . S
C1594 C1592 1.378 . S
C1594 C1595 1.367 . S
C1595 C1594 1.367 . S
C1595 C1597 1.433 . S
C1596 C1592 1.350 . S
C1596 C1593 1.463 . S
C1596 N1600 1.427 . S
C1597 H1587 0.929 . S
C1597 C1595 1.433 . S
C1597 N1600 1.384 . S
C1598 H1589 0.929 . S
C1598 C1590 1.378 . S
C1598 C1593 1.350 . S
C1599 H1586 0.929 . S
C1599 C1591 1.433 . S
C1599 N1601 1.384 . S
N1600 C1596 1.427 . S
N1600 C1597 1.384 . S
N1601 C1593 1.427 . S
N1601 C1599 1.384 . S
H1602 C1608 0.930 . S
H1603 C1612 0.930 . S
H1604 C1617 0.929 . S
H1605 C1615 0.937 1_545 S
H1606 C1610 0.929 . S
H1607 C1616 0.929 . S
C1608 H1602 0.930 . S
C1608 C1609 1.367 . S
C1608 C1616 1.378 . S
C1609 C1608 1.367 . S
C1609 C1617 1.433 . S
C1610 H1606 0.929 . S
C1610 C1612 1.378 1_565 S
C1610 C1614 1.350 . S
C1611 C1614 1.463 . S
C1611 C1616 1.350 . S
C1611 N1619 1.427 . S
C1612 H1603 0.930 . S
C1612 C1610 1.378 1_545 S
C1612 C1613 1.367 . S
C1613 C1612 1.367 . S
C1613 C1615 1.429 1_545 S
C1614 C1610 1.350 . S
C1614 C1611 1.463 . S
C1614 N1618 1.427 . S
C1615 H1605 0.937 1_565 S
C1615 C1613 1.429 1_565 S
C1615 N1618 1.384 . S
C1616 H1607 0.929 . S
C1616 C1608 1.378 . S
C1616 C1611 1.350 . S
C1617 H1604 0.929 . S
C1617 C1609 1.433 . S
C1617 N1619 1.384 . S
N1618 C1614 1.427 . S
N1618 C1615 1.384 . S
N1619 C1611 1.427 . S
N1619 C1617 1.384 . S
H1620 C1626 0.930 . S
H1621 C1630 0.930 . S
H1622 C1635 0.929 . S
H1623 C1633 0.929 . S
H1624 C1628 0.929 . S
H1625 C1634 0.929 . S
C1626 H1620 0.930 . S
C1626 C1627 1.367 . S
C1626 C1634 1.378 . S
C1627 C1626 1.367 . S
C1627 C1635 1.433 . S
C1628 H1624 0.929 . S
C1628 C1630 1.378 1_455 S
C1628 C1632 1.350 . S
C1629 C1632 1.463 . S
C1629 C1634 1.350 . S
C1629 N1637 1.427 . S
C1630 H1621 0.930 . S
C1630 C1628 1.378 1_655 S
C1630 C1631 1.367 . S
C1631 C1630 1.367 . S
C1631 C1633 1.433 . S
C1632 C1628 1.350 . S
C1632 C1629 1.463 . S
C1632 N1636 1.427 . S
C1633 H1623 0.929 . S
C1633 C1631 1.433 . S
C1633 N1636 1.384 1_655 S
C1634 H1625 0.929 . S
C1634 C1626 1.378 . S
C1634 C1629 1.350 . S
C1635 H1622 0.929 . S
C1635 C1627 1.433 . S
C1635 N1637 1.384 . S
N1636 C1632 1.427 . S
N1636 C1633 1.384 1_455 S
N1637 C1629 1.427 . S
N1637 C1635 1.384 . S
H1638 C1644 0.930 . S
H1639 C1648 0.930 . S
H1640 C1653 0.929 . S
H1641 C1651 0.929 . S
H1642 C1646 0.929 . S
H1643 C1652 0.929 . S
C1644 H1638 0.930 . S
C1644 C1645 1.367 . S
C1644 C1652 1.378 . S
C1645 C1644 1.367 . S
C1645 C1653 1.433 . S
C1646 H1642 0.929 . S
C1646 C1648 1.378 . S
C1646 C1650 1.350 . S
C1647 C1650 1.463 . S
C1647 C1652 1.350 . S
C1647 N1655 1.427 . S
C1648 H1639 0.930 . S
C1648 C1646 1.378 . S
C1648 C1649 1.367 . S
C1649 C1648 1.367 . S
C1649 C1651 1.433 . S
C1650 C1646 1.350 . S
C1650 C1647 1.463 . S
C1650 N1654 1.427 . S
C1651 H1641 0.929 . S
C1651 C1649 1.433 . S
C1651 N1654 1.384 . S
C1652 H1643 0.929 . S
C1652 C1644 1.378 . S
C1652 C1647 1.350 . S
C1653 H1640 0.929 . S
C1653 C1645 1.433 . S
C1653 N1655 1.384 . S
N1654 C1650 1.427 . S
N1654 C1651 1.384 . S
N1655 C1647 1.427 . S
N1655 C1653 1.384 . S
H1656 C1662 0.930 . S
H1657 C1666 0.930 . S
H1658 C1671 0.929 . S
H1659 C1669 0.929 . S
H1660 C1664 0.929 . S
H1661 C1670 0.929 1_565 S
C1662 H1656 0.930 . S
C1662 C1663 1.367 . S
C1662 C1670 1.378 . S
C1663 C1662 1.367 . S
C1663 C1671 1.433 . S
C1664 H1660 0.929 . S
C1664 C1666 1.378 . S
C1664 C1668 1.350 . S
C1665 C1668 1.463 . S
C1665 C1670 1.350 . S
C1665 N1673 1.427 . S
C1666 H1657 0.930 . S
C1666 C1664 1.378 . S
C1666 C1667 1.367 1_545 S
C1667 C1666 1.367 1_565 S
C1667 C1669 1.433 . S
C1668 C1664 1.350 . S
C1668 C1665 1.463 . S
C1668 N1672 1.427 1_545 S
C1669 H1659 0.929 . S
C1669 C1667 1.433 . S
C1669 N1672 1.384 . S
C1670 H1661 0.929 1_545 S
C1670 C1662 1.378 . S
C1670 C1665 1.350 . S
C1671 H1658 0.929 . S
C1671 C1663 1.433 . S
C1671 N1673 1.384 . S
N1672 C1668 1.427 1_565 S
N1672 C1669 1.384 . S
N1673 C1665 1.427 . S
N1673 C1671 1.384 . S
H1674 C1680 0.930 . S
H1675 C1684 0.930 . S
H1676 C1689 0.929 . S
H1677 C1687 0.929 . S
H1678 C1682 0.929 . S
H1679 C1688 0.929 . S
C1680 H1674 0.930 . S
C1680 C1681 1.367 . S
C1680 C1688 1.378 . S
C1681 C1680 1.367 . S
C1681 C1689 1.433 1_455 S
C1682 H1678 0.929 . S
C1682 C1684 1.378 . S
C1682 C1686 1.350 . S
C1683 C1686 1.463 . S
C1683 C1688 1.350 1_655 S
C1683 N1691 1.427 . S
C1684 H1675 0.930 . S
C1684 C1682 1.378 . S
C1684 C1685 1.367 . S
C1685 C1684 1.367 . S
C1685 C1687 1.433 . S
C1686 C1682 1.350 . S
C1686 C1683 1.463 . S
C1686 N1690 1.427 . S
C1687 H1677 0.929 . S
C1687 C1685 1.433 . S
C1687 N1690 1.384 . S
C1688 H1679 0.929 . S
C1688 C1680 1.378 . S
C1688 C1683 1.350 1_455 S
C1689 H1676 0.929 . S
C1689 C1681 1.433 1_655 S
C1689 N1691 1.384 . S
N1690 C1686 1.427 . S
N1690 C1687 1.384 . S
N1691 C1683 1.427 . S
N1691 C1689 1.384 . S
H1692 C1698 0.930 . S
H1693 C1702 0.930 . S
H1694 C1707 0.929 . S
H1695 C1705 0.929 . S
H1696 C1700 0.929 . S
H1697 C1706 0.929 . S
C1698 H1692 0.930 . S
C1698 C1699 1.367 . S
C1698 C1706 1.378 . S
C1699 C1698 1.367 . S
C1699 C1707 1.433 . S
C1700 H1696 0.929 . S
C1700 C1702 1.378 . S
C1700 C1704 1.350 . S
C1701 C1704 1.463 1_655 S
C1701 C1706 1.350 . S
C1701 N1709 1.427 . S
C1702 H1693 0.930 . S
C1702 C1700 1.378 . S
C1702 C1703 1.367 . S
C1703 C1702 1.367 . S
C1703 C1705 1.433 . S
C1704 C1700 1.350 . S
C1704 C1701 1.463 1_455 S
C1704 N1708 1.427 . S
C1705 H1695 0.929 . S
C1705 C1703 1.433 . S
C1705 N1708 1.384 . S
C1706 H1697 0.929 . S
C1706 C1698 1.378 . S
C1706 C1701 1.350 . S
C1707 H1694 0.929 . S
C1707 C1699 1.433 . S
C1707 N1709 1.384 . S
N1708 C1704 1.427 . S
N1708 C1705 1.384 . S
N1709 C1701 1.427 . S
N1709 C1707 1.384 . S
H1710 C1716 0.930 . S
H1711 C1720 0.930 . S
H1712 C1725 0.929 . S
H1713 C1723 0.929 . S
H1714 C1718 0.929 . S
H1715 C1724 0.929 . S
C1716 H1710 0.930 . S
C1716 C1717 1.367 . S
C1716 C1724 1.378 . S
C1717 C1716 1.367 . S
C1717 C1725 1.433 . S
C1718 H1714 0.929 . S
C1718 C1720 1.378 . S
C1718 C1722 1.350 . S
C1719 C1722 1.463 . S
C1719 C1724 1.350 . S
C1719 N1727 1.427 . S
C1720 H1711 0.930 . S
C1720 C1718 1.378 . S
C1720 C1721 1.367 . S
C1721 C1720 1.367 . S
C1721 C1723 1.433 . S
C1722 C1718 1.350 . S
C1722 C1719 1.463 . S
C1722 N1726 1.427 . S
C1723 H1713 0.929 . S
C1723 C1721 1.433 . S
C1723 N1726 1.384 . S
C1724 H1715 0.929 . S
C1724 C1716 1.378 . S
C1724 C1719 1.350 . S
C1725 H1712 0.929 . S
C1725 C1717 1.433 . S
C1725 N1727 1.384 . S
N1726 C1722 1.427 . S
N1726 C1723 1.384 . S
N1727 C1719 1.427 . S
N1727 C1725 1.384 . S
H1728 C1734 0.930 . S
H1729 C1738 0.930 . S
H1730 C1743 0.929 . S
H1731 C1741 0.929 . S
H1732 C1736 0.929 . S
H1733 C1742 0.929 . S
C1734 H1728 0.930 . S
C1734 C1735 1.367 . S
C1734 C1742 1.378 . S
C1735 C1734 1.367 . S
C1735 C1743 1.433 . S
C1736 H1732 0.929 . S
C1736 C1738 1.378 . S
C1736 C1740 1.350 . S
C1737 C1740 1.463 1_565 S
C1737 C1742 1.350 . S
C1737 N1745 1.427 . S
C1738 H1729 0.930 . S
C1738 C1736 1.378 . S
C1738 C1739 1.367 . S
C1739 C1738 1.367 . S
C1739 C1741 1.433 . S
C1740 C1736 1.350 . S
C1740 C1737 1.463 1_545 S
C1740 N1744 1.427 . S
C1741 H1731 0.929 . S
C1741 C1739 1.433 . S
C1741 N1744 1.384 . S
C1742 H1733 0.929 . S
C1742 C1734 1.378 . S
C1742 C1737 1.350 . S
C1743 H1730 0.929 . S
C1743 C1735 1.433 . S
C1743 N1745 1.384 . S
N1744 C1740 1.427 . S
N1744 C1741 1.384 . S
N1745 C1737 1.427 . S
N1745 C1743 1.384 . S
H1746 C1752 0.930 . S
H1747 C1756 0.930 . S
H1748 C1761 0.929 . S
H1749 C1759 0.929 . S
H1750 C1754 0.929 . S
H1751 C1760 0.929 . S
C1752 H1746 0.930 . S
C1752 C1753 1.367 . S
C1752 C1760 1.378 . S
C1753 C1752 1.367 . S
C1753 C1761 1.433 . S
C1754 H1750 0.929 . S
C1754 C1756 1.378 . S
C1754 C1758 1.350 . S
C1755 C1758 1.463 1_565 S
C1755 C1760 1.350 . S
C1755 N1763 1.427 . S
C1756 H1747 0.930 . S
C1756 C1754 1.378 . S
C1756 C1757 1.367 . S
C1757 C1756 1.367 . S
C1757 C1759 1.433 . S
C1758 C1754 1.350 . S
C1758 C1755 1.463 1_545 S
C1758 N1762 1.427 . S
C1759 H1749 0.929 . S
C1759 C1757 1.433 . S
C1759 N1762 1.384 . S
C1760 H1751 0.929 . S
C1760 C1752 1.378 . S
C1760 C1755 1.350 . S
C1761 H1748 0.929 . S
C1761 C1753 1.433 . S
C1761 N1763 1.384 . S
N1762 C1758 1.427 . S
N1762 C1759 1.384 . S
N1763 C1755 1.427 . S
N1763 C1761 1.384 . S
H1764 C1770 0.930 . S
H1765 C1774 0.930 . S
H1766 C1779 0.929 . S
H1767 C1777 0.929 . S
H1768 C1772 0.929 . S
H1769 C1778 0.929 . S
C1770 H1764 0.930 . S
C1770 C1771 1.367 . S
C1770 C1778 1.378 . S
C1771 C1770 1.367 . S
C1771 C1779 1.433 . S
C1772 H1768 0.929 . S
C1772 C1774 1.378 . S
C1772 C1776 1.350 . S
C1773 C1776 1.463 1_655 S
C1773 C1778 1.350 . S
C1773 N1781 1.427 . S
C1774 H1765 0.930 . S
C1774 C1772 1.378 . S
C1774 C1775 1.367 . S
C1775 C1774 1.367 . S
C1775 C1777 1.433 . S
C1776 C1772 1.350 . S
C1776 C1773 1.463 1_455 S
C1776 N1780 1.427 . S
C1777 H1767 0.929 . S
C1777 C1775 1.433 . S
C1777 N1780 1.384 . S
C1778 H1769 0.929 . S
C1778 C1770 1.378 . S
C1778 C1773 1.350 . S
C1779 H1766 0.929 . S
C1779 C1771 1.433 . S
C1779 N1781 1.384 . S
N1780 C1776 1.427 . S
N1780 C1777 1.384 . S
N1781 C1773 1.427 . S
N1781 C1779 1.384 . S
H1782 C1788 0.930 . S
H1783 C1792 0.930 . S
H1784 C1797 0.929 . S
H1785 C1795 0.929 . S
H1786 C1790 0.929 . S
H1787 C1796 0.929 . S
C1788 H1782 0.930 . S
C1788 C1789 1.367 . S
C1788 C1796 1.378 . S
C1789 C1788 1.367 . S
C1789 C1797 1.433 . S
C1790 H1786 0.929 . S
C1790 C1792 1.378 . S
C1790 C1794 1.350 . S
C1791 C1794 1.463 . S
C1791 C1796 1.350 . S
C1791 N1799 1.427 . S
C1792 H1783 0.930 . S
C1792 C1790 1.378 . S
C1792 C1793 1.367 . S
C1793 C1792 1.367 . S
C1793 C1795 1.433 . S
C1794 C1790 1.350 . S
C1794 C1791 1.463 . S
C1794 N1798 1.427 . S
C1795 H1785 0.929 . S
C1795 C1793 1.433 . S
C1795 N1798 1.384 . S
C1796 H1787 0.929 . S
C1796 C1788 1.378 . S
C1796 C1791 1.350 . S
C1797 H1784 0.929 . S
C1797 C1789 1.433 . S
C1797 N1799 1.384 . S
N1798 C1794 1.427 . S
N1798 C1795 1.384 . S
N1799 C1791 1.427 . S
N1799 C1797 1.384 . S
C511 C7 1.334 . S
C515 C259 1.334 . S
C529 C21 1.336 . S
C533 C273 1.336 . S
C547 C287 1.335 . S
C551 C35 1.335 . S
C565 C49 1.337 . S
C569 C469 1.337 . S
C583 C483 1.330 . S
C587 C63 1.330 . S
C601 C77 1.339 . S
C605 C497 1.339 . S
C619 C343 1.330 . S
C623 C91 1.330 . S
C637 C105 1.339 . S
C641 C357 1.339 . S
C655 C119 1.335 . S
C659 C371 1.335 . S
C673 C133 1.330 . S
C677 C217 1.330 . S
C691 C231 1.335 . S
C695 C147 1.335 . S
C709 C161 1.330 . S
C713 C245 1.330 . S
C727 C175 1.332 . S
C731 C427 1.332 . S
C745 C189 1.333 . S
C749 C441 1.333 . S
C763 C203 1.336 . S
C767 C455 1.336 . S
C781 C301 1.336 . S
C785 C385 1.336 . S
C799 C315 1.337 . S
C803 C399 1.337 . S
C817 C329 1.329 . S
C821 C413 1.329 . S
C835 C106 1.415 . S
C839 C6 1.449 . S
C853 C120 1.413 . S
C857 C20 1.448 . S
C871 C34 1.443 . S
C875 C92 1.404 . S
C889 C162 1.404 . S
C893 C48 1.443 . S
C907 C134 1.400 . S
C911 C62 1.442 . S
C925 C148 1.415 . S
C929 C76 1.449 . S
C943 C90 1.447 . S
C947 C22 1.410 . S
C961 C104 1.447 . S
C965 C36 1.408 . S
C979 C118 1.445 . S
C983 C8 1.409 . S
C997 C132 1.442 . S
C1001 C78 1.401 . S
C1015 C50 1.415 . S
C1019 C146 1.450 . S
C1033 C64 1.402 . S
C1037 C160 1.443 . S
C1051 C174 1.442 . S
C1055 C274 1.402 . S
C1069 C188 1.449 . S
C1073 C288 1.414 . S
C1087 C202 1.448 . S
C1091 C260 1.412 . S
C1105 C330 1.404 . S
C1109 C216 1.443 . S
C1123 C230 1.449 . S
C1127 C302 1.413 . S
C1141 C316 1.415 . S
C1145 C244 1.450 . S
C1159 C258 1.449 . S
C1163 C190 1.415 . S
C1177 C204 1.414 . S
C1181 C272 1.449 . S
C1195 C176 1.415 . S
C1199 C286 1.450 . S
C1213 C300 1.442 . S
C1217 C246 1.401 . S
C1231 C314 1.448 . S
C1235 C218 1.413 . S
C1249 C328 1.445 . S
C1253 C232 1.405 . S
C1267 C442 1.416 . S
C1271 C342 1.450 . S
C1285 C356 1.450 . S
C1289 C456 1.416 . S
C1303 C370 1.446 . S
C1307 C428 1.410 . S
C1321 C498 1.415 . S
C1325 C384 1.449 . S
C1339 C470 1.406 . S
C1343 C398 1.445 . S
C1357 C484 1.407 . S
C1361 C412 1.445 . S
C1375 C358 1.413 . S
C1379 C426 1.449 . S
C1393 C372 1.412 . S
C1397 C440 1.448 . S
C1411 C344 1.414 . S
C1415 C454 1.449 . S
C1429 C468 1.443 . S
C1433 C414 1.404 . S
C1447 C386 1.405 . S
C1451 C482 1.445 . S
C1465 C496 1.450 . S
C1469 C400 1.416 . S
C1483 C9 1.128 . S
C1487 C415 1.121 . S
C1501 C387 1.125 . S
C1505 C23 1.135 . S
C1519 C37 1.142 . S
C1523 C401 1.143 . S
C1537 C51 1.131 . S
C1541 C191 1.122 . S
C1555 C205 1.121 . S
C1559 C65 1.123 . S
C1573 C79 1.131 . S
C1577 C177 1.123 . S
C1591 C331 1.138 . S
C1595 C93 1.128 . S
C1609 C107 1.144 . S
C1613 C303 1.139 . S
C1627 C121 1.122 . S
C1631 C317 1.122 . S
C1645 C135 1.124 . S
C1649 C443 1.134 . S
C1663 C149 1.124 . S
C1667 C457 1.134 . S
C1681 C429 1.123 . S
C1685 C163 1.131 . S
C1699 C219 1.121 . S
C1703 C359 1.126 . S
C1717 C373 1.121 . S
C1721 C233 1.127 . S
C1735 C345 1.134 . S
C1739 C247 1.142 . S
C1753 C499 1.144 . S
C1757 C261 1.140 . S
C1771 C275 1.126 . S
C1775 C471 1.121 . S
C1789 C289 1.128 . S
C1793 C485 1.138 . S
