# Generated by pormake.
# Topology fnw, (5)-cn, num edge types: 1
# Building blocks:
#     Node 0, Type 0, BuildingBlock: BEQFEK_clean_sbu_0, # of connection points: 5
#     Node 1, Type 0, BuildingBlock: BEQFEK_clean_sbu_0, # of connection points: 5
#     Node 2, Type 0, BuildingBlock: BEQFEK_clean_sbu_0, # of connection points: 5
#     Node 3, Type 0, BuildingBlock: BEQFEK_clean_sbu_0, # of connection points: 5
#     Node 4, Type 0, BuildingBlock: BEQFEK_clean_sbu_0, # of connection points: 5
#     Node 5, Type 0, BuildingBlock: BEQFEK_clean_sbu_0, # of connection points: 5
#     Node 6, Type 0, BuildingBlock: BEQFEK_clean_sbu_0, # of connection points: 5
#     Node 7, Type 0, BuildingBlock: BEQFEK_clean_sbu_0, # of connection points: 5
#     Node 8, Type 0, BuildingBlock: BEQFEK_clean_sbu_0, # of connection points: 5
#     Node 9, Type 0, BuildingBlock: BEQFEK_clean_sbu_0, # of connection points: 5
#     Node 10, Type 0, BuildingBlock: BEQFEK_clean_sbu_0, # of connection points: 5
#     Node 11, Type 0, BuildingBlock: BEQFEK_clean_sbu_0, # of connection points: 5
#     Edge 12, Type (0, 0), None
#     Edge 13, Type (0, 0), None
#     Edge 14, Type (0, 0), None
#     Edge 15, Type (0, 0), None
#     Edge 16, Type (0, 0), None
#     Edge 17, Type (0, 0), None
#     Edge 18, Type (0, 0), None
#     Edge 19, Type (0, 0), None
#     Edge 20, Type (0, 0), None
#     Edge 21, Type (0, 0), None
#     Edge 22, Type (0, 0), None
#     Edge 23, Type (0, 0), None
#     Edge 24, Type (0, 0), None
#     Edge 25, Type (0, 0), None
#     Edge 26, Type (0, 0), None
#     Edge 27, Type (0, 0), None
#     Edge 28, Type (0, 0), None
#     Edge 29, Type (0, 0), None
#     Edge 30, Type (0, 0), None
#     Edge 31, Type (0, 0), None
#     Edge 32, Type (0, 0), None
#     Edge 33, Type (0, 0), None
#     Edge 34, Type (0, 0), None
#     Edge 35, Type (0, 0), None
#     Edge 36, Type (0, 0), None
#     Edge 37, Type (0, 0), None
#     Edge 38, Type (0, 0), None
#     Edge 39, Type (0, 0), None
#     Edge 40, Type (0, 0), None
#     Edge 41, Type (0, 0), None
# Relax obj value: 0.196
# Max RMSD: 0.148
# Mean RMSD: 0.148
data_MOF--net-fnw--node1-BEQFEK_clean_sbu_0--edge1-none
_symmetry_space_group_name_H-M    P1
_symmetry_Int_Tables_number       1
_symmetry_cell_setting            triclinic
loop_
_symmetry_equiv_pos_as_xyz
'x, y, z'
_cell_length_a     32.267237
_cell_length_b     32.267109
_cell_length_c     14.488129
_cell_angle_alpha  89.999099
_cell_angle_beta   90.001812
_cell_angle_gamma 119.99485
loop_
_atom_site_label
_atom_site_type_symbol
_atom_site_fract_x
_atom_site_fract_y
_atom_site_fract_z
_atom_type_partial_charge
Co0 Co 0.23788 0.52383 0.22017 0.0
Co1 Co 0.27557 0.45134 0.21448 0.0
C2 C 0.22009 0.45925 0.05561 0.0
O3 O 0.21532 0.49046 0.10084 0.0
O4 O 0.24401 0.44053 0.08811 0.0
C5 C 0.18224 0.57615 0.21449 0.0
O6 O 0.14346 0.53953 0.1807 0.0
C7 C 0.30673 0.37766 0.20894 0.0
C8 C 0.34383 0.39439 0.34372 0.0
C9 C 0.33255 0.36488 0.2679 0.0
N10 N 0.30177 0.41229 0.24987 0.0
N11 N 0.32455 0.4223 0.32984 0.0
C12 C 0.29079 0.36031 0.11275 0.0
H13 H 0.25785 0.36156 0.09624 0.0
H14 H 0.28437 0.32337 0.10407 0.0
H15 H 0.31926 0.38419 0.06386 0.0
C16 C 0.20628 0.48196 0.40356 0.0
N17 N 0.2218 0.48105 0.31804 0.0
N18 N 0.23361 0.44753 0.313 0.0
C19 C 0.22287 0.4241 0.39467 0.0
C20 C 0.20714 0.44627 0.45523 0.0
C21 C 0.19782 0.52079 0.43828 0.0
H22 H 0.17119 0.52309 0.39342 0.0
H23 H 0.18467 0.5142 0.51059 0.0
H24 H 0.23168 0.55561 0.43408 0.0
O25 O 0.30703 0.56467 0.21902 0.0
O26 O 0.33561 0.51526 0.21175 0.0
H27 H 0.25932 0.39197 0.46067 0.0
H28 H 0.19596 0.35559 0.45871 0.0
C29 C 0.22726 0.38119 0.41712 0.0
H30 H 0.22864 0.36283 0.35359 0.0
H31 H 0.32825 0.44951 0.37395 0.0
O32 O 0.21844 0.57239 0.23516 0.0
C33 C 0.34204 0.55734 0.2158 0.0
Co34 Co 0.70062 0.2446 0.72017 0.0
Co35 Co 0.81079 0.28228 0.71448 0.0
C36 C 0.74741 0.2268 0.55561 0.0
O37 O 0.71143 0.22203 0.60085 0.0
O38 O 0.79004 0.25071 0.58811 0.0
C39 C 0.59267 0.18896 0.7145 0.0
O40 O 0.59051 0.15018 0.68071 0.0
C41 C 0.91563 0.31344 0.70894 0.0
C42 C 0.93599 0.35053 0.84373 0.0
C43 C 0.95423 0.33926 0.7679 0.0
N44 N 0.87604 0.30847 0.74987 0.0
N45 N 0.8888 0.33124 0.82985 0.0
C46 C 0.91704 0.29752 0.61274 0.0
H47 H 0.88286 0.26458 0.59621 0.0
H48 H 0.94757 0.29111 0.60404 0.0
H49 H 0.92163 0.326 0.56386 0.0
C50 C 0.7109 0.21299 0.90357 0.0
N51 N 0.72732 0.22851 0.81804 0.0
N52 N 0.77265 0.24031 0.81301 0.0
C53 C 0.78533 0.22957 0.89467 0.0
C54 C 0.74744 0.21385 0.95523 0.0
C55 C 0.66361 0.20454 0.93829 0.0
H56 H 0.63468 0.17791 0.89343 0.0
H57 H 0.65705 0.19139 0.0106 0.0
H58 H 0.66265 0.2384 0.93409 0.0
O59 O 0.72893 0.31374 0.71902 0.0
O60 O 0.80691 0.34232 0.71175 0.0
H61 H 0.85391 0.266 0.96067 0.0
H62 H 0.82694 0.20265 0.9587 0.0
C63 C 0.83263 0.23395 0.91711 0.0
H64 H 0.85237 0.23533 0.85358 0.0
H65 H 0.86528 0.33493 0.87397 0.0
O66 O 0.63262 0.22516 0.73516 0.0
C67 C 0.77126 0.34876 0.7158 0.0
Co68 Co 0.44253 0.70733 0.22021 0.0
Co69 Co 0.51501 0.8175 0.2145 0.0
C70 C 0.50711 0.75411 0.05565 0.0
O71 O 0.47591 0.71813 0.10088 0.0
O72 O 0.52582 0.79674 0.08814 0.0
C73 C 0.39023 0.59938 0.21451 0.0
O74 O 0.42684 0.59723 0.18064 0.0
C75 C 0.5887 0.92233 0.20896 0.0
C76 C 0.57196 0.94271 0.34371 0.0
C77 C 0.60148 0.96093 0.2679 0.0
N78 N 0.55406 0.88275 0.24987 0.0
N79 N 0.54405 0.89553 0.32983 0.0
C80 C 0.60606 0.92373 0.11278 0.0
H81 H 0.60481 0.88953 0.09629 0.0
H82 H 0.64301 0.95424 0.10411 0.0
H83 H 0.5822 0.92833 0.06386 0.0
C84 C 0.48441 0.71761 0.4036 0.0
N85 N 0.48531 0.73403 0.31807 0.0
N86 N 0.51883 0.77936 0.31304 0.0
C87 C 0.54225 0.79204 0.3947 0.0
C88 C 0.52009 0.75415 0.45527 0.0
C89 C 0.44558 0.67032 0.43832 0.0
H90 H 0.44328 0.64139 0.39346 0.0
H91 H 0.45217 0.66376 0.51063 0.0
H92 H 0.41076 0.66936 0.43413 0.0
O93 O 0.40169 0.73564 0.21904 0.0
O94 O 0.45109 0.81363 0.21176 0.0
H95 H 0.57437 0.86062 0.46068 0.0
H96 H 0.61076 0.83366 0.45877 0.0
C97 C 0.58516 0.83935 0.41715 0.0
H98 H 0.60352 0.85908 0.35363 0.0
H99 H 0.51682 0.87201 0.37393 0.0
O100 O 0.39398 0.63933 0.23521 0.0
C101 C 0.40901 0.77798 0.21581 0.0
Co102 Co 0.72176 0.44926 0.7202 0.0
Co103 Co 0.68407 0.52174 0.71449 0.0
C104 C 0.73955 0.51384 0.55564 0.0
O105 O 0.74433 0.48263 0.60087 0.0
O106 O 0.71564 0.53255 0.58813 0.0
C107 C 0.7774 0.39694 0.7145 0.0
O108 O 0.81617 0.43355 0.68064 0.0
C109 C 0.6529 0.59542 0.70895 0.0
C110 C 0.6158 0.57868 0.84373 0.0
C111 C 0.62708 0.6082 0.76791 0.0
N112 N 0.65786 0.56079 0.74987 0.0
N113 N 0.63509 0.55078 0.82984 0.0
C114 C 0.66884 0.61277 0.61277 0.0
H115 H 0.70178 0.61152 0.59625 0.0
H116 H 0.67527 0.64972 0.60409 0.0
H117 H 0.64037 0.58891 0.56387 0.0
C118 C 0.75336 0.49113 0.9036 0.0
N119 N 0.73784 0.49204 0.81807 0.0
N120 N 0.72603 0.52556 0.81303 0.0
C121 C 0.73677 0.54898 0.89469 0.0
C122 C 0.7525 0.52682 0.95526 0.0
C123 C 0.76181 0.4523 0.93832 0.0
H124 H 0.78844 0.44999 0.89346 0.0
H125 H 0.77496 0.45889 0.01063 0.0
H126 H 0.72796 0.41748 0.93412 0.0
O127 O 0.65261 0.40842 0.71904 0.0
O128 O 0.62403 0.45782 0.71175 0.0
H129 H 0.70032 0.58111 0.96068 0.0
H130 H 0.76367 0.6175 0.95873 0.0
C131 C 0.73238 0.59189 0.91713 0.0
H132 H 0.731 0.61025 0.8536 0.0
H133 H 0.63139 0.52356 0.87396 0.0
O134 O 0.74121 0.4007 0.7352 0.0
C135 C 0.6176 0.41574 0.71581 0.0
Co136 Co 0.25902 0.72849 0.2202 0.0
Co137 Co 0.14885 0.69081 0.21449 0.0
C138 C 0.21223 0.74629 0.05563 0.0
O139 O 0.24821 0.75107 0.10087 0.0
O140 O 0.16961 0.72238 0.08813 0.0
C141 C 0.36697 0.78413 0.21451 0.0
O142 O 0.36912 0.82289 0.18063 0.0
C143 C 0.04401 0.65964 0.20895 0.0
C144 C 0.02366 0.62255 0.34374 0.0
C145 C 0.00541 0.63382 0.26791 0.0
N146 N 0.0836 0.66461 0.24988 0.0
N147 N 0.07084 0.64184 0.32986 0.0
C148 C 0.04259 0.67557 0.11275 0.0
H149 H 0.07677 0.7085 0.09622 0.0
H150 H 0.01207 0.68198 0.10406 0.0
H151 H 0.03799 0.64709 0.06387 0.0
C152 C 0.24874 0.76009 0.40359 0.0
N153 N 0.23232 0.74458 0.31806 0.0
N154 N 0.18699 0.73277 0.31302 0.0
C155 C 0.1743 0.74351 0.39468 0.0
C156 C 0.21219 0.75924 0.45525 0.0
C157 C 0.29603 0.76855 0.43832 0.0
H158 H 0.32495 0.79517 0.39346 0.0
H159 H 0.30259 0.7817 0.51063 0.0
H160 H 0.29699 0.73469 0.43413 0.0
O161 O 0.23072 0.65935 0.21903 0.0
O162 O 0.15273 0.63077 0.21176 0.0
H163 H 0.10573 0.70708 0.46068 0.0
H164 H 0.1327 0.77043 0.4587 0.0
C165 C 0.12701 0.73913 0.41712 0.0
H166 H 0.10727 0.73775 0.35358 0.0
H167 H 0.09437 0.63815 0.37398 0.0
O168 O 0.32702 0.74794 0.23521 0.0
C169 C 0.18838 0.62433 0.21581 0.0
Co170 Co 0.5171 0.26575 0.7202 0.0
Co171 Co 0.44462 0.15558 0.71449 0.0
C172 C 0.45252 0.21897 0.55564 0.0
O173 O 0.48373 0.25495 0.60088 0.0
O174 O 0.43382 0.17635 0.58813 0.0
C175 C 0.56941 0.3737 0.7145 0.0
O176 O 0.5328 0.37586 0.68063 0.0
C177 C 0.37094 0.05076 0.70896 0.0
C178 C 0.38768 0.03038 0.84371 0.0
C179 C 0.35816 0.01215 0.76791 0.0
N180 N 0.40558 0.09034 0.74987 0.0
N181 N 0.41559 0.07756 0.82983 0.0
C182 C 0.35357 0.04936 0.61278 0.0
H183 H 0.35482 0.08355 0.59629 0.0
H184 H 0.31662 0.01885 0.60411 0.0
H185 H 0.37743 0.04475 0.56387 0.0
C186 C 0.47523 0.25548 0.90359 0.0
N187 N 0.47432 0.23905 0.81807 0.0
N188 N 0.44081 0.19373 0.81303 0.0
C189 C 0.41738 0.18104 0.89469 0.0
C190 C 0.43954 0.21893 0.95526 0.0
C191 C 0.51406 0.30277 0.93832 0.0
H192 H 0.51636 0.33169 0.89345 0.0
H193 H 0.50747 0.30933 0.01062 0.0
H194 H 0.54888 0.30372 0.93412 0.0
O195 O 0.55794 0.23744 0.71903 0.0
O196 O 0.50854 0.15946 0.71177 0.0
H197 H 0.38527 0.11246 0.96067 0.0
H198 H 0.34888 0.13943 0.95876 0.0
C199 C 0.37448 0.13374 0.91714 0.0
H200 H 0.35612 0.11401 0.85361 0.0
H201 H 0.44282 0.10108 0.87394 0.0
O202 O 0.56566 0.33375 0.73521 0.0
C203 C 0.55062 0.1951 0.71581 0.0
Co204 Co 0.44259 0.7283 0.79118 0.0
Co205 Co 0.51483 0.69032 0.79741 0.0
C206 C 0.50714 0.74613 0.95585 0.0
O207 O 0.47597 0.75095 0.91054 0.0
O208 O 0.52573 0.72207 0.92355 0.0
C209 C 0.39041 0.78401 0.79738 0.0
O210 O 0.42696 0.82249 0.83224 0.0
C211 C 0.58866 0.65936 0.80321 0.0
C212 C 0.57155 0.62159 0.66909 0.0
C213 C 0.60131 0.63332 0.74462 0.0
N214 N 0.55377 0.66393 0.76243 0.0
N215 N 0.54355 0.64077 0.68287 0.0
C216 C 0.60648 0.67599 0.89891 0.0
H217 H 0.60513 0.70894 0.91478 0.0
H218 H 0.64353 0.68265 0.9071 0.0
H219 H 0.58296 0.64779 0.94859 0.0
C220 C 0.48447 0.7595 0.60765 0.0
N221 N 0.48537 0.74414 0.69334 0.0
N222 N 0.51878 0.73218 0.69858 0.0
C223 C 0.54215 0.74264 0.61688 0.0
C224 C 0.52 0.75828 0.55611 0.0
C225 C 0.44575 0.76808 0.57272 0.0
H226 H 0.44338 0.79464 0.61767 0.0
H227 H 0.45251 0.78135 0.5005 0.0
H228 H 0.41091 0.73423 0.57657 0.0
O229 O 0.40159 0.65916 0.79253 0.0
O230 O 0.45083 0.63039 0.80029 0.0
H231 H 0.57388 0.70565 0.55154 0.0
H232 H 0.6105 0.76898 0.55245 0.0
C233 C 0.58488 0.73793 0.59455 0.0
H234 H 0.60331 0.73673 0.65812 0.0
H235 H 0.51618 0.63683 0.63888 0.0
O236 O 0.39413 0.74788 0.77588 0.0
C237 C 0.40879 0.62407 0.79602 0.0
Co238 Co 0.70084 0.44932 0.29118 0.0
Co239 Co 0.81107 0.52155 0.2974 0.0
C240 C 0.74756 0.51387 0.45584 0.0
O241 O 0.71158 0.4827 0.41053 0.0
O242 O 0.79021 0.53245 0.42355 0.0
C243 C 0.59297 0.39715 0.29737 0.0
O244 O 0.59104 0.4337 0.33224 0.0
C245 C 0.91583 0.59539 0.30321 0.0
C246 C 0.93651 0.57827 0.1691 0.0
C247 C 0.95453 0.60804 0.24461 0.0
N248 N 0.87638 0.56049 0.26243 0.0
N249 N 0.88933 0.55026 0.18288 0.0
C250 C 0.91701 0.61322 0.39888 0.0
H251 H 0.88271 0.61187 0.41474 0.0
H252 H 0.9474 0.65028 0.40707 0.0
H253 H 0.9217 0.58971 0.44859 0.0
C254 C 0.71153 0.4912 0.10764 0.0
N255 N 0.72778 0.49209 0.19333 0.0
N256 N 0.77315 0.5255 0.19858 0.0
C257 C 0.78606 0.54887 0.11687 0.0
C258 C 0.74828 0.52673 0.05609 0.0
C259 C 0.66423 0.45248 0.07272 0.0
H260 H 0.6353 0.45012 0.11766 0.0
H261 H 0.65772 0.45925 1.00049 0.0
H262 H 0.66324 0.41764 0.07656 0.0
O263 O 0.72899 0.40831 0.29253 0.0
O264 O 0.80699 0.45754 0.30029 0.0
H265 H 0.85478 0.58058 0.05154 0.0
H266 H 0.82807 0.61721 0.05242 0.0
C267 C 0.83351 0.5916 0.09453 0.0
H268 H 0.85313 0.61003 0.1581 0.0
H269 H 0.86591 0.52289 0.13891 0.0
O270 O 0.63282 0.40087 0.27587 0.0
C271 C 0.77128 0.41551 0.29602 0.0
Co272 Co 0.23804 0.70758 0.79118 0.0
Co273 Co 0.27602 0.8178 0.79739 0.0
C274 C 0.22021 0.7543 0.95583 0.0
O275 O 0.21539 0.71832 0.91053 0.0
O276 O 0.24427 0.79695 0.92354 0.0
C277 C 0.18235 0.5997 0.79736 0.0
O278 O 0.14387 0.59777 0.83222 0.0
C279 C 0.30698 0.92258 0.80321 0.0
C280 C 0.34475 0.94324 0.66907 0.0
C281 C 0.33303 0.96127 0.74461 0.0
N282 N 0.3024 0.88312 0.76241 0.0
N283 N 0.32556 0.89605 0.68284 0.0
C284 C 0.29037 0.92377 0.89891 0.0
H285 H 0.25742 0.88948 0.9148 0.0
H286 H 0.28371 0.95417 0.90712 0.0
H287 H 0.31858 0.92844 0.94858 0.0
C288 C 0.20685 0.71827 0.60763 0.0
N289 N 0.22221 0.73452 0.69333 0.0
N290 N 0.23416 0.77989 0.69857 0.0
C291 C 0.2237 0.7928 0.61687 0.0
C292 C 0.20806 0.75502 0.55609 0.0
C293 C 0.19827 0.67097 0.57271 0.0
H294 H 0.17171 0.64204 0.61766 0.0
H295 H 0.18501 0.66446 0.50048 0.0
H296 H 0.23212 0.66997 0.57656 0.0
O297 O 0.30719 0.73572 0.79254 0.0
O298 O 0.33596 0.81372 0.80028 0.0
H299 H 0.26067 0.86151 0.55152 0.0
H300 H 0.19734 0.8348 0.55245 0.0
C301 C 0.2284 0.84024 0.59454 0.0
H302 H 0.2296 0.85987 0.65811 0.0
H303 H 0.32949 0.87263 0.63886 0.0
O304 O 0.21847 0.63955 0.77587 0.0
C305 C 0.34228 0.77801 0.79602 0.0
Co306 Co 0.51705 0.24478 0.29118 0.0
Co307 Co 0.4448 0.28277 0.29739 0.0
C308 C 0.45249 0.22695 0.45584 0.0
O309 O 0.48366 0.22213 0.41054 0.0
O310 O 0.43391 0.25102 0.42354 0.0
C311 C 0.56923 0.18907 0.29736 0.0
O312 O 0.53268 0.15059 0.33221 0.0
C313 C 0.37098 0.31372 0.3032 0.0
C314 C 0.38808 0.3515 0.16908 0.0
C315 C 0.35832 0.33976 0.2446 0.0
N316 N 0.40587 0.30915 0.26242 0.0
N317 N 0.41609 0.33232 0.18285 0.0
C318 C 0.35316 0.29709 0.39889 0.0
H319 H 0.35451 0.26414 0.41476 0.0
H320 H 0.31611 0.29042 0.40709 0.0
H321 H 0.37668 0.32529 0.44858 0.0
C322 C 0.47517 0.21359 0.10764 0.0
N323 N 0.47427 0.22895 0.19333 0.0
N324 N 0.44086 0.24091 0.19857 0.0
C325 C 0.41749 0.23045 0.11687 0.0
C326 C 0.43964 0.21481 0.0561 0.0
C327 C 0.51389 0.205 0.07273 0.0
H328 H 0.51625 0.17844 0.11767 0.0
H329 H 0.50713 0.19174 1.0005 0.0
H330 H 0.54873 0.23885 0.07658 0.0
O331 O 0.55804 0.31392 0.29254 0.0
O332 O 0.50881 0.3427 0.30028 0.0
H333 H 0.38576 0.26744 0.05152 0.0
H334 H 0.34914 0.20411 0.05242 0.0
C335 C 0.37476 0.23516 0.09453 0.0
H336 H 0.35632 0.23636 0.15809 0.0
H337 H 0.44345 0.33626 0.13888 0.0
O338 O 0.5655 0.2252 0.27588 0.0
C339 C 0.55084 0.34902 0.29601 0.0
Co340 Co 0.2588 0.52377 0.79115 0.0
Co341 Co 0.14857 0.45153 0.79737 0.0
C342 C 0.21208 0.45922 0.95581 0.0
O343 O 0.24806 0.49038 0.9105 0.0
O344 O 0.16943 0.44063 0.92352 0.0
C345 C 0.36667 0.57593 0.79736 0.0
O346 O 0.3686 0.5394 0.8323 0.0
C347 C 0.04381 0.3777 0.80319 0.0
C348 C 0.02312 0.39482 0.66909 0.0
C349 C 0.00511 0.36504 0.7446 0.0
N350 N 0.08326 0.4126 0.76241 0.0
N351 N 0.07031 0.42283 0.68286 0.0
C352 C 0.04263 0.35987 0.89886 0.0
H353 H 0.07693 0.36122 0.91472 0.0
H354 H 0.01225 0.32281 0.90705 0.0
H355 H 0.03795 0.38338 0.94857 0.0
C356 C 0.2481 0.48189 0.60761 0.0
N357 N 0.23185 0.48099 0.6933 0.0
N358 N 0.18648 0.44759 0.69855 0.0
C359 C 0.17357 0.42422 0.61684 0.0
C360 C 0.21135 0.44636 0.55607 0.0
C361 C 0.2954 0.5206 0.57269 0.0
H362 H 0.32433 0.52296 0.61764 0.0
H363 H 0.30191 0.51384 0.50047 0.0
H364 H 0.2964 0.55544 0.57653 0.0
O365 O 0.23065 0.56477 0.79251 0.0
O366 O 0.15264 0.51554 0.80026 0.0
H367 H 0.10486 0.39251 0.55151 0.0
H368 H 0.13156 0.35587 0.55238 0.0
C369 C 0.12612 0.38149 0.5945 0.0
H370 H 0.1065 0.36305 0.65806 0.0
H371 H 0.09372 0.45019 0.63889 0.0
O372 O 0.32682 0.57222 0.77583 0.0
C373 C 0.18836 0.55757 0.796 0.0
Co374 Co 0.7216 0.26551 0.29115 0.0
Co375 Co 0.68362 0.15529 0.29738 0.0
C376 C 0.73944 0.21879 0.45581 0.0
O377 O 0.74425 0.25477 0.41051 0.0
O378 O 0.71537 0.17614 0.42352 0.0
C379 C 0.7773 0.37339 0.29736 0.0
O380 O 0.81576 0.37531 0.33231 0.0
C381 C 0.65265 0.05051 0.3032 0.0
C382 C 0.61489 0.02985 0.16906 0.0
C383 C 0.62661 0.01181 0.2446 0.0
N384 N 0.65723 0.08997 0.2624 0.0
N385 N 0.63408 0.07703 0.18283 0.0
C386 C 0.66927 0.04932 0.3989 0.0
H387 H 0.70222 0.08361 0.41479 0.0
H388 H 0.67593 0.01892 0.40712 0.0
H389 H 0.64106 0.04464 0.44857 0.0
C390 C 0.75279 0.25482 0.10761 0.0
N391 N 0.73743 0.23857 0.1933 0.0
N392 N 0.72547 0.1932 0.19855 0.0
C393 C 0.73594 0.18029 0.11685 0.0
C394 C 0.75157 0.21806 0.05607 0.0
C395 C 0.76136 0.30211 0.07269 0.0
H396 H 0.78792 0.33104 0.11764 0.0
H397 H 0.77463 0.30862 1.00046 0.0
H398 H 0.72752 0.30311 0.07652 0.0
O399 O 0.65245 0.23737 0.29251 0.0
O400 O 0.62368 0.15937 0.30026 0.0
H401 H 0.69896 0.11157 0.0515 0.0
H402 H 0.7623 0.13828 0.05244 0.0
C403 C 0.73123 0.13284 0.09452 0.0
H404 H 0.73003 0.11321 0.1581 0.0
H405 H 0.63014 0.10046 0.13884 0.0
O406 O 0.74117 0.33354 0.27583 0.0
C407 C 0.61736 0.19508 0.296 0.0
loop_
_geom_bond_atom_site_label_1
_geom_bond_atom_site_label_2
_geom_bond_distance
_geom_bond_site_symmetry_2
_ccdc_geom_bond_type
Co0 O3 1.970 . S
Co0 N17 1.989 . S
Co0 O25 1.967 . S
Co0 O32 1.920 . S
Co1 O4 1.966 . S
Co1 N10 2.022 . S
Co1 N18 1.993 . S
Co1 O26 1.941 . S
C2 O3 1.258 . S
C2 O4 1.263 . S
O3 Co0 1.970 . S
O3 C2 1.258 . S
O4 Co1 1.966 . S
O4 C2 1.263 . S
C5 O6 1.235 . S
C5 O32 1.289 . S
O6 C5 1.235 . S
C7 C9 1.400 . S
C7 N10 1.351 . S
C7 C12 1.501 . S
C8 C9 1.387 . S
C8 N11 1.341 . S
C9 C7 1.400 . S
C9 C8 1.387 . S
N10 Co1 2.022 . S
N10 C7 1.351 . S
N10 N11 1.365 . S
N11 C8 1.341 . S
N11 N10 1.365 . S
N11 H31 0.862 . S
C12 C7 1.501 . S
C12 H13 0.961 . S
C12 H14 0.961 . S
C12 H15 0.960 . S
H13 C12 0.961 . S
H14 C12 0.961 . S
H15 C12 0.960 . S
C16 N17 1.342 . S
C16 C20 1.401 . S
C16 C21 1.499 . S
N17 Co0 1.989 . S
N17 C16 1.342 . S
N17 N18 1.388 . S
N18 Co1 1.993 . S
N18 N17 1.388 . S
N18 C19 1.346 . S
C19 N18 1.346 . S
C19 C20 1.396 . S
C19 C29 1.510 . S
C20 C16 1.401 . S
C20 C19 1.396 . S
C21 C16 1.499 . S
C21 H22 0.959 . S
C21 H23 0.960 . S
C21 H24 0.961 . S
H22 C21 0.959 . S
H23 C21 0.960 . S
H24 C21 0.961 . S
O25 Co0 1.967 . S
O25 C33 1.258 . S
O26 Co1 1.941 . S
O26 C33 1.266 . S
H27 C29 0.959 . S
H28 C29 0.961 . S
C29 C19 1.510 . S
C29 H27 0.959 . S
C29 H28 0.961 . S
C29 H30 0.960 . S
H30 C29 0.960 . S
H31 N11 0.862 . S
O32 Co0 1.920 . S
O32 C5 1.289 . S
C33 O25 1.258 . S
C33 O26 1.266 . S
Co34 O37 1.970 . S
Co34 N51 1.989 . S
Co34 O59 1.967 . S
Co34 O66 1.920 . S
Co35 O38 1.966 . S
Co35 N44 2.022 . S
Co35 N52 1.993 . S
Co35 O60 1.941 . S
C36 O37 1.258 . S
C36 O38 1.263 . S
O37 Co34 1.970 . S
O37 C36 1.258 . S
O38 Co35 1.966 . S
O38 C36 1.263 . S
C39 O40 1.235 . S
C39 O66 1.289 . S
O40 C39 1.235 . S
C41 C43 1.400 . S
C41 N44 1.351 . S
C41 C46 1.501 . S
C42 C43 1.387 . S
C42 N45 1.341 . S
C43 C41 1.400 . S
C43 C42 1.387 . S
N44 Co35 2.022 . S
N44 C41 1.351 . S
N44 N45 1.365 . S
N45 C42 1.341 . S
N45 N44 1.365 . S
N45 H65 0.862 . S
C46 C41 1.501 . S
C46 H47 0.961 . S
C46 H48 0.961 . S
C46 H49 0.960 . S
H47 C46 0.961 . S
H48 C46 0.961 . S
H49 C46 0.960 . S
C50 N51 1.342 . S
C50 C54 1.401 . S
C50 C55 1.499 . S
N51 Co34 1.989 . S
N51 C50 1.342 . S
N51 N52 1.388 . S
N52 Co35 1.993 . S
N52 N51 1.388 . S
N52 C53 1.346 . S
C53 N52 1.346 . S
C53 C54 1.396 . S
C53 C63 1.510 . S
C54 C50 1.401 . S
C54 C53 1.396 . S
C55 C50 1.499 . S
C55 H56 0.959 . S
C55 H57 0.960 . S
C55 H58 0.961 . S
H56 C55 0.959 . S
H57 C55 0.960 . S
H58 C55 0.961 . S
O59 Co34 1.967 . S
O59 C67 1.258 . S
O60 Co35 1.941 . S
O60 C67 1.266 . S
H61 C63 0.959 . S
H62 C63 0.961 . S
C63 C53 1.510 . S
C63 H61 0.959 . S
C63 H62 0.961 . S
C63 H64 0.960 . S
H64 C63 0.960 . S
H65 N45 0.862 . S
O66 Co34 1.920 . S
O66 C39 1.289 . S
C67 O59 1.258 . S
C67 O60 1.266 . S
Co68 O71 1.970 . S
Co68 N85 1.989 . S
Co68 O93 1.967 . S
Co68 O100 1.920 . S
Co69 O72 1.966 . S
Co69 N78 2.022 . S
Co69 N86 1.993 . S
Co69 O94 1.941 . S
C70 O71 1.258 . S
C70 O72 1.263 . S
O71 Co68 1.970 . S
O71 C70 1.258 . S
O72 Co69 1.966 . S
O72 C70 1.263 . S
C73 O74 1.235 . S
C73 O100 1.289 . S
O74 C73 1.235 . S
C75 C77 1.400 . S
C75 N78 1.351 . S
C75 C80 1.501 . S
C76 C77 1.387 . S
C76 N79 1.341 . S
C77 C75 1.400 . S
C77 C76 1.387 . S
N78 Co69 2.022 . S
N78 C75 1.351 . S
N78 N79 1.365 . S
N79 C76 1.341 . S
N79 N78 1.365 . S
N79 H99 0.862 . S
C80 C75 1.501 . S
C80 H81 0.961 . S
C80 H82 0.961 . S
C80 H83 0.960 . S
H81 C80 0.961 . S
H82 C80 0.961 . S
H83 C80 0.960 . S
C84 N85 1.342 . S
C84 C88 1.401 . S
C84 C89 1.499 . S
N85 Co68 1.989 . S
N85 C84 1.342 . S
N85 N86 1.388 . S
N86 Co69 1.993 . S
N86 N85 1.388 . S
N86 C87 1.346 . S
C87 N86 1.346 . S
C87 C88 1.396 . S
C87 C97 1.510 . S
C88 C84 1.401 . S
C88 C87 1.396 . S
C89 C84 1.499 . S
C89 H90 0.959 . S
C89 H91 0.960 . S
C89 H92 0.961 . S
H90 C89 0.959 . S
H91 C89 0.960 . S
H92 C89 0.961 . S
O93 Co68 1.967 . S
O93 C101 1.258 . S
O94 Co69 1.941 . S
O94 C101 1.266 . S
H95 C97 0.959 . S
H96 C97 0.961 . S
C97 C87 1.510 . S
C97 H95 0.959 . S
C97 H96 0.961 . S
C97 H98 0.960 . S
H98 C97 0.960 . S
H99 N79 0.862 . S
O100 Co68 1.920 . S
O100 C73 1.289 . S
C101 O93 1.258 . S
C101 O94 1.266 . S
Co102 O105 1.970 . S
Co102 N119 1.989 . S
Co102 O127 1.967 . S
Co102 O134 1.920 . S
Co103 O106 1.966 . S
Co103 N112 2.022 . S
Co103 N120 1.993 . S
Co103 O128 1.941 . S
C104 O105 1.258 . S
C104 O106 1.263 . S
O105 Co102 1.970 . S
O105 C104 1.258 . S
O106 Co103 1.966 . S
O106 C104 1.263 . S
C107 O108 1.235 . S
C107 O134 1.289 . S
O108 C107 1.235 . S
C109 C111 1.400 . S
C109 N112 1.351 . S
C109 C114 1.501 . S
C110 C111 1.387 . S
C110 N113 1.341 . S
C111 C109 1.400 . S
C111 C110 1.387 . S
N112 Co103 2.022 . S
N112 C109 1.351 . S
N112 N113 1.365 . S
N113 C110 1.341 . S
N113 N112 1.365 . S
N113 H133 0.862 . S
C114 C109 1.501 . S
C114 H115 0.961 . S
C114 H116 0.961 . S
C114 H117 0.960 . S
H115 C114 0.961 . S
H116 C114 0.961 . S
H117 C114 0.960 . S
C118 N119 1.342 . S
C118 C122 1.401 . S
C118 C123 1.499 . S
N119 Co102 1.989 . S
N119 C118 1.342 . S
N119 N120 1.388 . S
N120 Co103 1.993 . S
N120 N119 1.388 . S
N120 C121 1.346 . S
C121 N120 1.346 . S
C121 C122 1.396 . S
C121 C131 1.510 . S
C122 C118 1.401 . S
C122 C121 1.396 . S
C123 C118 1.499 . S
C123 H124 0.959 . S
C123 H125 0.960 . S
C123 H126 0.961 . S
H124 C123 0.959 . S
H125 C123 0.960 . S
H126 C123 0.961 . S
O127 Co102 1.967 . S
O127 C135 1.258 . S
O128 Co103 1.941 . S
O128 C135 1.266 . S
H129 C131 0.959 . S
H130 C131 0.961 . S
C131 C121 1.510 . S
C131 H129 0.959 . S
C131 H130 0.961 . S
C131 H132 0.960 . S
H132 C131 0.960 . S
H133 N113 0.862 . S
O134 Co102 1.920 . S
O134 C107 1.289 . S
C135 O127 1.258 . S
C135 O128 1.266 . S
Co136 O139 1.970 . S
Co136 N153 1.989 . S
Co136 O161 1.967 . S
Co136 O168 1.920 . S
Co137 O140 1.966 . S
Co137 N146 2.022 . S
Co137 N154 1.993 . S
Co137 O162 1.941 . S
C138 O139 1.258 . S
C138 O140 1.263 . S
O139 Co136 1.970 . S
O139 C138 1.258 . S
O140 Co137 1.966 . S
O140 C138 1.263 . S
C141 O142 1.235 . S
C141 O168 1.289 . S
O142 C141 1.235 . S
C143 C145 1.400 . S
C143 N146 1.351 . S
C143 C148 1.501 . S
C144 C145 1.387 . S
C144 N147 1.341 . S
C145 C143 1.400 . S
C145 C144 1.387 . S
N146 Co137 2.022 . S
N146 C143 1.351 . S
N146 N147 1.365 . S
N147 C144 1.341 . S
N147 N146 1.365 . S
N147 H167 0.862 . S
C148 C143 1.501 . S
C148 H149 0.961 . S
C148 H150 0.961 . S
C148 H151 0.960 . S
H149 C148 0.961 . S
H150 C148 0.961 . S
H151 C148 0.960 . S
C152 N153 1.342 . S
C152 C156 1.401 . S
C152 C157 1.499 . S
N153 Co136 1.989 . S
N153 C152 1.342 . S
N153 N154 1.388 . S
N154 Co137 1.993 . S
N154 N153 1.388 . S
N154 C155 1.346 . S
C155 N154 1.346 . S
C155 C156 1.396 . S
C155 C165 1.510 . S
C156 C152 1.401 . S
C156 C155 1.396 . S
C157 C152 1.499 . S
C157 H158 0.959 . S
C157 H159 0.960 . S
C157 H160 0.961 . S
H158 C157 0.959 . S
H159 C157 0.960 . S
H160 C157 0.961 . S
O161 Co136 1.967 . S
O161 C169 1.258 . S
O162 Co137 1.941 . S
O162 C169 1.266 . S
H163 C165 0.959 . S
H164 C165 0.961 . S
C165 C155 1.510 . S
C165 H163 0.959 . S
C165 H164 0.961 . S
C165 H166 0.960 . S
H166 C165 0.960 . S
H167 N147 0.862 . S
O168 Co136 1.920 . S
O168 C141 1.289 . S
C169 O161 1.258 . S
C169 O162 1.266 . S
Co170 O173 1.970 . S
Co170 N187 1.989 . S
Co170 O195 1.967 . S
Co170 O202 1.920 . S
Co171 O174 1.966 . S
Co171 N180 2.022 . S
Co171 N188 1.993 . S
Co171 O196 1.941 . S
C172 O173 1.258 . S
C172 O174 1.263 . S
O173 Co170 1.970 . S
O173 C172 1.258 . S
O174 Co171 1.966 . S
O174 C172 1.263 . S
C175 O176 1.235 . S
C175 O202 1.289 . S
O176 C175 1.235 . S
C177 C179 1.400 . S
C177 N180 1.351 . S
C177 C182 1.501 . S
C178 C179 1.387 . S
C178 N181 1.341 . S
C179 C177 1.400 . S
C179 C178 1.387 . S
N180 Co171 2.022 . S
N180 C177 1.351 . S
N180 N181 1.365 . S
N181 C178 1.341 . S
N181 N180 1.365 . S
N181 H201 0.862 . S
C182 C177 1.501 . S
C182 H183 0.961 . S
C182 H184 0.961 . S
C182 H185 0.960 . S
H183 C182 0.961 . S
H184 C182 0.961 . S
H185 C182 0.960 . S
C186 N187 1.342 . S
C186 C190 1.401 . S
C186 C191 1.499 . S
N187 Co170 1.989 . S
N187 C186 1.342 . S
N187 N188 1.388 . S
N188 Co171 1.993 . S
N188 N187 1.388 . S
N188 C189 1.346 . S
C189 N188 1.346 . S
C189 C190 1.396 . S
C189 C199 1.510 . S
C190 C186 1.401 . S
C190 C189 1.396 . S
C191 C186 1.499 . S
C191 H192 0.959 . S
C191 H193 0.960 . S
C191 H194 0.961 . S
H192 C191 0.959 . S
H193 C191 0.960 . S
H194 C191 0.961 . S
O195 Co170 1.967 . S
O195 C203 1.258 . S
O196 Co171 1.941 . S
O196 C203 1.266 . S
H197 C199 0.959 . S
H198 C199 0.961 . S
C199 C189 1.510 . S
C199 H197 0.959 . S
C199 H198 0.961 . S
C199 H200 0.960 . S
H200 C199 0.960 . S
H201 N181 0.862 . S
O202 Co170 1.920 . S
O202 C175 1.289 . S
C203 O195 1.258 . S
C203 O196 1.266 . S
Co204 O207 1.970 . S
Co204 N221 1.989 . S
Co204 O229 1.967 . S
Co204 O236 1.920 . S
Co205 O208 1.966 . S
Co205 N214 2.022 . S
Co205 N222 1.993 . S
Co205 O230 1.941 . S
C206 O207 1.258 . S
C206 O208 1.263 . S
O207 Co204 1.970 . S
O207 C206 1.258 . S
O208 Co205 1.966 . S
O208 C206 1.263 . S
C209 O210 1.235 . S
C209 O236 1.289 . S
O210 C209 1.235 . S
C211 C213 1.400 . S
C211 N214 1.351 . S
C211 C216 1.501 . S
C212 C213 1.387 . S
C212 N215 1.341 . S
C213 C211 1.400 . S
C213 C212 1.387 . S
N214 Co205 2.022 . S
N214 C211 1.351 . S
N214 N215 1.365 . S
N215 C212 1.341 . S
N215 N214 1.365 . S
N215 H235 0.862 . S
C216 C211 1.501 . S
C216 H217 0.961 . S
C216 H218 0.961 . S
C216 H219 0.960 . S
H217 C216 0.961 . S
H218 C216 0.961 . S
H219 C216 0.960 . S
C220 N221 1.342 . S
C220 C224 1.401 . S
C220 C225 1.499 . S
N221 Co204 1.989 . S
N221 C220 1.342 . S
N221 N222 1.388 . S
N222 Co205 1.993 . S
N222 N221 1.388 . S
N222 C223 1.346 . S
C223 N222 1.346 . S
C223 C224 1.396 . S
C223 C233 1.510 . S
C224 C220 1.401 . S
C224 C223 1.396 . S
C225 C220 1.499 . S
C225 H226 0.959 . S
C225 H227 0.960 . S
C225 H228 0.961 . S
H226 C225 0.959 . S
H227 C225 0.960 . S
H228 C225 0.961 . S
O229 Co204 1.967 . S
O229 C237 1.258 . S
O230 Co205 1.941 . S
O230 C237 1.266 . S
H231 C233 0.959 . S
H232 C233 0.961 . S
C233 C223 1.510 . S
C233 H231 0.959 . S
C233 H232 0.961 . S
C233 H234 0.960 . S
H234 C233 0.960 . S
H235 N215 0.862 . S
O236 Co204 1.920 . S
O236 C209 1.289 . S
C237 O229 1.258 . S
C237 O230 1.266 . S
Co238 O241 1.970 . S
Co238 N255 1.989 . S
Co238 O263 1.967 . S
Co238 O270 1.920 . S
Co239 O242 1.966 . S
Co239 N248 2.022 . S
Co239 N256 1.993 . S
Co239 O264 1.941 . S
C240 O241 1.258 . S
C240 O242 1.263 . S
O241 Co238 1.970 . S
O241 C240 1.258 . S
O242 Co239 1.966 . S
O242 C240 1.263 . S
C243 O244 1.235 . S
C243 O270 1.289 . S
O244 C243 1.235 . S
C245 C247 1.400 . S
C245 N248 1.351 . S
C245 C250 1.501 . S
C246 C247 1.387 . S
C246 N249 1.341 . S
C247 C245 1.400 . S
C247 C246 1.387 . S
N248 Co239 2.022 . S
N248 C245 1.351 . S
N248 N249 1.365 . S
N249 C246 1.341 . S
N249 N248 1.365 . S
N249 H269 0.862 . S
C250 C245 1.501 . S
C250 H251 0.961 . S
C250 H252 0.961 . S
C250 H253 0.960 . S
H251 C250 0.961 . S
H252 C250 0.961 . S
H253 C250 0.960 . S
C254 N255 1.342 . S
C254 C258 1.401 . S
C254 C259 1.499 . S
N255 Co238 1.989 . S
N255 C254 1.342 . S
N255 N256 1.388 . S
N256 Co239 1.993 . S
N256 N255 1.388 . S
N256 C257 1.346 . S
C257 N256 1.346 . S
C257 C258 1.396 . S
C257 C267 1.510 . S
C258 C254 1.401 . S
C258 C257 1.396 . S
C259 C254 1.499 . S
C259 H260 0.959 . S
C259 H261 0.960 . S
C259 H262 0.961 . S
H260 C259 0.959 . S
H261 C259 0.960 . S
H262 C259 0.961 . S
O263 Co238 1.967 . S
O263 C271 1.258 . S
O264 Co239 1.941 . S
O264 C271 1.266 . S
H265 C267 0.959 . S
H266 C267 0.961 . S
C267 C257 1.510 . S
C267 H265 0.959 . S
C267 H266 0.961 . S
C267 H268 0.960 . S
H268 C267 0.960 . S
H269 N249 0.862 . S
O270 Co238 1.920 . S
O270 C243 1.289 . S
C271 O263 1.258 . S
C271 O264 1.266 . S
Co272 O275 1.970 . S
Co272 N289 1.989 . S
Co272 O297 1.967 . S
Co272 O304 1.920 . S
Co273 O276 1.966 . S
Co273 N282 2.022 . S
Co273 N290 1.993 . S
Co273 O298 1.941 . S
C274 O275 1.258 . S
C274 O276 1.263 . S
O275 Co272 1.970 . S
O275 C274 1.258 . S
O276 Co273 1.966 . S
O276 C274 1.263 . S
C277 O278 1.235 . S
C277 O304 1.289 . S
O278 C277 1.235 . S
C279 C281 1.400 . S
C279 N282 1.351 . S
C279 C284 1.501 . S
C280 C281 1.387 . S
C280 N283 1.341 . S
C281 C279 1.400 . S
C281 C280 1.387 . S
N282 Co273 2.022 . S
N282 C279 1.351 . S
N282 N283 1.365 . S
N283 C280 1.341 . S
N283 N282 1.365 . S
N283 H303 0.862 . S
C284 C279 1.501 . S
C284 H285 0.961 . S
C284 H286 0.961 . S
C284 H287 0.960 . S
H285 C284 0.961 . S
H286 C284 0.961 . S
H287 C284 0.960 . S
C288 N289 1.342 . S
C288 C292 1.401 . S
C288 C293 1.499 . S
N289 Co272 1.989 . S
N289 C288 1.342 . S
N289 N290 1.388 . S
N290 Co273 1.993 . S
N290 N289 1.388 . S
N290 C291 1.346 . S
C291 N290 1.346 . S
C291 C292 1.396 . S
C291 C301 1.510 . S
C292 C288 1.401 . S
C292 C291 1.396 . S
C293 C288 1.499 . S
C293 H294 0.959 . S
C293 H295 0.960 . S
C293 H296 0.961 . S
H294 C293 0.959 . S
H295 C293 0.960 . S
H296 C293 0.961 . S
O297 Co272 1.967 . S
O297 C305 1.258 . S
O298 Co273 1.941 . S
O298 C305 1.266 . S
H299 C301 0.959 . S
H300 C301 0.961 . S
C301 C291 1.510 . S
C301 H299 0.959 . S
C301 H300 0.961 . S
C301 H302 0.960 . S
H302 C301 0.960 . S
H303 N283 0.862 . S
O304 Co272 1.920 . S
O304 C277 1.289 . S
C305 O297 1.258 . S
C305 O298 1.266 . S
Co306 O309 1.970 . S
Co306 N323 1.989 . S
Co306 O331 1.967 . S
Co306 O338 1.920 . S
Co307 O310 1.966 . S
Co307 N316 2.022 . S
Co307 N324 1.993 . S
Co307 O332 1.941 . S
C308 O309 1.258 . S
C308 O310 1.263 . S
O309 Co306 1.970 . S
O309 C308 1.258 . S
O310 Co307 1.966 . S
O310 C308 1.263 . S
C311 O312 1.235 . S
C311 O338 1.289 . S
O312 C311 1.235 . S
C313 C315 1.400 . S
C313 N316 1.351 . S
C313 C318 1.501 . S
C314 C315 1.387 . S
C314 N317 1.341 . S
C315 C313 1.400 . S
C315 C314 1.387 . S
N316 Co307 2.022 . S
N316 C313 1.351 . S
N316 N317 1.365 . S
N317 C314 1.341 . S
N317 N316 1.365 . S
N317 H337 0.862 . S
C318 C313 1.501 . S
C318 H319 0.961 . S
C318 H320 0.961 . S
C318 H321 0.960 . S
H319 C318 0.961 . S
H320 C318 0.961 . S
H321 C318 0.960 . S
C322 N323 1.342 . S
C322 C326 1.401 . S
C322 C327 1.499 . S
N323 Co306 1.989 . S
N323 C322 1.342 . S
N323 N324 1.388 . S
N324 Co307 1.993 . S
N324 N323 1.388 . S
N324 C325 1.346 . S
C325 N324 1.346 . S
C325 C326 1.396 . S
C325 C335 1.510 . S
C326 C322 1.401 . S
C326 C325 1.396 . S
C327 C322 1.499 . S
C327 H328 0.959 . S
C327 H329 0.960 . S
C327 H330 0.961 . S
H328 C327 0.959 . S
H329 C327 0.960 . S
H330 C327 0.961 . S
O331 Co306 1.967 . S
O331 C339 1.258 . S
O332 Co307 1.941 . S
O332 C339 1.266 . S
H333 C335 0.959 . S
H334 C335 0.961 . S
C335 C325 1.510 . S
C335 H333 0.959 . S
C335 H334 0.961 . S
C335 H336 0.960 . S
H336 C335 0.960 . S
H337 N317 0.862 . S
O338 Co306 1.920 . S
O338 C311 1.289 . S
C339 O331 1.258 . S
C339 O332 1.266 . S
Co340 O343 1.970 . S
Co340 N357 1.989 . S
Co340 O365 1.967 . S
Co340 O372 1.920 . S
Co341 O344 1.966 . S
Co341 N350 2.022 . S
Co341 N358 1.993 . S
Co341 O366 1.941 . S
C342 O343 1.258 . S
C342 O344 1.263 . S
O343 Co340 1.970 . S
O343 C342 1.258 . S
O344 Co341 1.966 . S
O344 C342 1.263 . S
C345 O346 1.235 . S
C345 O372 1.289 . S
O346 C345 1.235 . S
C347 C349 1.400 . S
C347 N350 1.351 . S
C347 C352 1.501 . S
C348 C349 1.387 . S
C348 N351 1.341 . S
C349 C347 1.400 . S
C349 C348 1.387 . S
N350 Co341 2.022 . S
N350 C347 1.351 . S
N350 N351 1.365 . S
N351 C348 1.341 . S
N351 N350 1.365 . S
N351 H371 0.862 . S
C352 C347 1.501 . S
C352 H353 0.961 . S
C352 H354 0.961 . S
C352 H355 0.960 . S
H353 C352 0.961 . S
H354 C352 0.961 . S
H355 C352 0.960 . S
C356 N357 1.342 . S
C356 C360 1.401 . S
C356 C361 1.499 . S
N357 Co340 1.989 . S
N357 C356 1.342 . S
N357 N358 1.388 . S
N358 Co341 1.993 . S
N358 N357 1.388 . S
N358 C359 1.346 . S
C359 N358 1.346 . S
C359 C360 1.396 . S
C359 C369 1.510 . S
C360 C356 1.401 . S
C360 C359 1.396 . S
C361 C356 1.499 . S
C361 H362 0.959 . S
C361 H363 0.960 . S
C361 H364 0.961 . S
H362 C361 0.959 . S
H363 C361 0.960 . S
H364 C361 0.961 . S
O365 Co340 1.967 . S
O365 C373 1.258 . S
O366 Co341 1.941 . S
O366 C373 1.266 . S
H367 C369 0.959 . S
H368 C369 0.961 . S
C369 C359 1.510 . S
C369 H367 0.959 . S
C369 H368 0.961 . S
C369 H370 0.960 . S
H370 C369 0.960 . S
H371 N351 0.862 . S
O372 Co340 1.920 . S
O372 C345 1.289 . S
C373 O365 1.258 . S
C373 O366 1.266 . S
Co374 O377 1.970 . S
Co374 N391 1.989 . S
Co374 O399 1.967 . S
Co374 O406 1.920 . S
Co375 O378 1.966 . S
Co375 N384 2.022 . S
Co375 N392 1.993 . S
Co375 O400 1.941 . S
C376 O377 1.258 . S
C376 O378 1.263 . S
O377 Co374 1.970 . S
O377 C376 1.258 . S
O378 Co375 1.966 . S
O378 C376 1.263 . S
C379 O380 1.235 . S
C379 O406 1.289 . S
O380 C379 1.235 . S
C381 C383 1.400 . S
C381 N384 1.351 . S
C381 C386 1.501 . S
C382 C383 1.387 . S
C382 N385 1.341 . S
C383 C381 1.400 . S
C383 C382 1.387 . S
N384 Co375 2.022 . S
N384 C381 1.351 . S
N384 N385 1.365 . S
N385 C382 1.341 . S
N385 N384 1.365 . S
N385 H405 0.862 . S
C386 C381 1.501 . S
C386 H387 0.961 . S
C386 H388 0.961 . S
C386 H389 0.960 . S
H387 C386 0.961 . S
H388 C386 0.961 . S
H389 C386 0.960 . S
C390 N391 1.342 . S
C390 C394 1.401 . S
C390 C395 1.499 . S
N391 Co374 1.989 . S
N391 C390 1.342 . S
N391 N392 1.388 . S
N392 Co375 1.993 . S
N392 N391 1.388 . S
N392 C393 1.346 . S
C393 N392 1.346 . S
C393 C394 1.396 . S
C393 C403 1.510 . S
C394 C390 1.401 . S
C394 C393 1.396 . S
C395 C390 1.499 . S
C395 H396 0.959 . S
C395 H397 0.960 . S
C395 H398 0.961 . S
H396 C395 0.959 . S
H397 C395 0.960 . S
H398 C395 0.961 . S
O399 Co374 1.967 . S
O399 C407 1.258 . S
O400 Co375 1.941 . S
O400 C407 1.266 . S
H401 C403 0.959 . S
H402 C403 0.961 . S
C403 C393 1.510 . S
C403 H401 0.959 . S
C403 H402 0.961 . S
C403 H404 0.960 . S
H404 C403 0.960 . S
H405 N385 0.862 . S
O406 Co374 1.920 . S
O406 C379 1.289 . S
C407 O399 1.258 . S
C407 O400 1.266 . S
C315 C9 1.548 . S
C43 C349 1.549 1_655 S
C383 C77 1.549 1_545 S
C111 C213 1.548 . S
C145 C247 1.549 1_455 S
C281 C179 1.549 1_565 S
C342 C2 1.409 1_556 S
C376 C36 1.409 . S
C70 C206 1.409 1_554 S
C240 C104 1.409 . S
C274 C138 1.409 1_556 S
C172 C308 1.409 . S
C258 C122 1.679 1_554 S
C292 C156 1.679 . S
C190 C326 1.679 1_556 S
C20 C360 1.679 . S
C54 C394 1.679 1_556 S
C224 C88 1.679 . S
C5 C169 2.475 . S
C39 C203 2.475 . S
C73 C33 2.475 . S
C67 C107 2.475 . S
C141 C101 2.475 . S
C135 C175 2.475 . S
C305 C209 2.475 . S
C339 C243 2.475 . S
C373 C277 2.475 . S
C311 C407 2.475 . S
C237 C345 2.475 . S
C379 C271 2.475 . S
