# Generated by pormake.
# Topology snz, (6)-cn, num edge types: 1
# Building blocks:
#     Node 0, Type 0, BuildingBlock: VOLQOD_clean_sbu_1, # of connection points: 6
#     Node 1, Type 0, BuildingBlock: VOLQOD_clean_sbu_1, # of connection points: 6
#     Node 2, Type 0, BuildingBlock: VOLQOD_clean_sbu_1, # of connection points: 6
#     Node 3, Type 0, BuildingBlock: VOLQOD_clean_sbu_1, # of connection points: 6
#     Node 4, Type 0, BuildingBlock: VOLQOD_clean_sbu_1, # of connection points: 6
#     Node 5, Type 0, BuildingBlock: VOLQOD_clean_sbu_1, # of connection points: 6
#     Node 6, Type 0, BuildingBlock: VOLQOD_clean_sbu_1, # of connection points: 6
#     Node 7, Type 0, BuildingBlock: VOLQOD_clean_sbu_1, # of connection points: 6
#     Node 8, Type 0, BuildingBlock: VOLQOD_clean_sbu_1, # of connection points: 6
#     Edge 9, Type (0, 0), BuildingBlock: OJICUG_clean_linker_0, # of connection points: 2
#     Edge 10, Type (0, 0), BuildingBlock: OJICUG_clean_linker_0, # of connection points: 2
#     Edge 11, Type (0, 0), BuildingBlock: OJICUG_clean_linker_0, # of connection points: 2
#     Edge 12, Type (0, 0), BuildingBlock: OJICUG_clean_linker_0, # of connection points: 2
#     Edge 13, Type (0, 0), BuildingBlock: OJICUG_clean_linker_0, # of connection points: 2
#     Edge 14, Type (0, 0), BuildingBlock: OJICUG_clean_linker_0, # of connection points: 2
#     Edge 15, Type (0, 0), BuildingBlock: OJICUG_clean_linker_0, # of connection points: 2
#     Edge 16, Type (0, 0), BuildingBlock: OJICUG_clean_linker_0, # of connection points: 2
#     Edge 17, Type (0, 0), BuildingBlock: OJICUG_clean_linker_0, # of connection points: 2
#     Edge 18, Type (0, 0), BuildingBlock: OJICUG_clean_linker_0, # of connection points: 2
#     Edge 19, Type (0, 0), BuildingBlock: OJICUG_clean_linker_0, # of connection points: 2
#     Edge 20, Type (0, 0), BuildingBlock: OJICUG_clean_linker_0, # of connection points: 2
#     Edge 21, Type (0, 0), BuildingBlock: OJICUG_clean_linker_0, # of connection points: 2
#     Edge 22, Type (0, 0), BuildingBlock: OJICUG_clean_linker_0, # of connection points: 2
#     Edge 23, Type (0, 0), BuildingBlock: OJICUG_clean_linker_0, # of connection points: 2
#     Edge 24, Type (0, 0), BuildingBlock: OJICUG_clean_linker_0, # of connection points: 2
#     Edge 25, Type (0, 0), BuildingBlock: OJICUG_clean_linker_0, # of connection points: 2
#     Edge 26, Type (0, 0), BuildingBlock: OJICUG_clean_linker_0, # of connection points: 2
#     Edge 27, Type (0, 0), BuildingBlock: OJICUG_clean_linker_0, # of connection points: 2
#     Edge 28, Type (0, 0), BuildingBlock: OJICUG_clean_linker_0, # of connection points: 2
#     Edge 29, Type (0, 0), BuildingBlock: OJICUG_clean_linker_0, # of connection points: 2
#     Edge 30, Type (0, 0), BuildingBlock: OJICUG_clean_linker_0, # of connection points: 2
#     Edge 31, Type (0, 0), BuildingBlock: OJICUG_clean_linker_0, # of connection points: 2
#     Edge 32, Type (0, 0), BuildingBlock: OJICUG_clean_linker_0, # of connection points: 2
#     Edge 33, Type (0, 0), BuildingBlock: OJICUG_clean_linker_0, # of connection points: 2
#     Edge 34, Type (0, 0), BuildingBlock: OJICUG_clean_linker_0, # of connection points: 2
#     Edge 35, Type (0, 0), BuildingBlock: OJICUG_clean_linker_0, # of connection points: 2
# Relax obj value: 0.409
# Max RMSD: 0.302
# Mean RMSD: 0.293
data_MOF--net-snz--node1-VOLQOD_clean_sbu_1--edge1-OJICUG_clean_linker_0
_symmetry_space_group_name_H-M    P1
_symmetry_Int_Tables_number       1
_symmetry_cell_setting            triclinic
loop_
_symmetry_equiv_pos_as_xyz
'x, y, z'
_cell_length_a     40.171896
_cell_length_b     40.824533
_cell_length_c     12.34254
_cell_angle_alpha  89.762689
_cell_angle_beta   89.860329
_cell_angle_gamma 120.14596
loop_
_atom_site_label
_atom_site_type_symbol
_atom_site_fract_x
_atom_site_fract_y
_atom_site_fract_z
_atom_type_partial_charge
O0 O 0.04635 0.49657 -0.0153 0.0
Zn1 Zn 0.01808 0.5214 0.91968 0.0
O2 O 0.96502 0.49781 -0.02032 0.0
Zn3 Zn 0.92543 0.4826 0.87361 0.0
Zn4 Zn 0.95218 0.45248 0.05786 0.0
Zn5 Zn 0.95991 0.53255 0.06896 0.0
O6 O 0.90298 0.51623 0.86059 0.0
O7 O 0.92759 0.55201 0.00553 0.0
O8 O 0.01502 0.51596 0.7556 0.0
O9 O 0.95114 0.48727 0.73854 0.0
O10 O 0.88508 0.4282 0.87422 0.0
O11 O 0.91545 0.40627 -0.02622 0.0
O12 O 0.93714 0.45478 0.21 0.0
O13 O 0.05152 0.57604 -0.0297 0.0
O14 O 0.94509 0.51264 0.21583 0.0
O15 O 0.01113 0.57617 0.09287 0.0
C16 C 0.03467 0.46976 0.05381 0.0
C17 C 0.90725 0.54329 0.92029 0.0
C18 C 0.88955 0.40099 0.90525 0.0
C19 C 0.9844 0.49961 0.69898 0.0
C20 C 0.94014 0.48283 0.26285 0.0
C21 C 0.0444 0.59111 0.05072 0.0
O22 O -0.00028 0.45112 0.0836 0.0
O23 O 0.49389 0.55936 0.03914 0.0
Zn24 Zn 0.47833 0.5054 -0.00322 0.0
O25 O 0.51008 0.48907 0.0726 0.0
Zn26 Zn 0.5397 0.48102 -0.03209 0.0
Zn27 Zn 0.54738 0.52701 0.15846 0.0
Zn28 Zn 0.47887 0.44344 0.14923 0.0
O29 O 0.51058 0.4272 0.91679 0.0
O30 O 0.46997 0.40009 0.05511 0.0
O31 O 0.48231 0.49707 0.83592 0.0
O32 O 0.54358 0.51367 0.84705 0.0
O33 O 0.59503 0.50057 0.00259 0.0
O34 O 0.59975 0.54969 0.09096 0.0
O35 O 0.54531 0.50605 0.30305 0.0
O36 O 0.42346 0.4757 0.05014 0.0
O37 O 0.49903 0.44544 0.29825 0.0
O38 O 0.42772 0.43855 0.17431 0.0
C39 C 0.51268 0.57672 0.12353 0.0
C40 C 0.4828 0.3982 0.96202 0.0
C41 C 0.61515 0.53447 0.03567 0.0
C42 C 0.51415 0.50514 0.79074 0.0
C43 C 0.52477 0.47408 0.34898 0.0
C44 C 0.40889 0.45194 0.12783 0.0
O45 O 0.53267 0.56595 0.17629 0.0
O46 O 0.43773 0.98179 0.00892 0.0
Zn47 Zn 0.49484 0.00984 -0.03055 0.0
O48 O 0.52162 0.05552 0.05386 0.0
Zn49 Zn 0.54605 0.10254 -0.02201 0.0
Zn50 Zn 0.48779 0.0597 0.14717 0.0
Zn51 Zn 0.56423 0.05677 0.1216 0.0
O52 O 0.60171 0.13434 0.0121 0.0
O53 O 0.60925 0.08482 0.02101 0.0
O54 O 0.50796 0.0254 0.81185 0.0
O55 O 0.54441 0.08833 0.82948 0.0
O56 O 0.51715 0.13011 -0.02487 0.0
O57 O 0.46775 0.09104 0.07799 0.0
O58 O 0.51488 0.07888 0.28595 0.0
O59 O 0.50981 0.9714 0.01714 0.0
O60 O 0.57034 0.07906 0.26634 0.0
O61 O 0.55171 0.00392 0.14657 0.0
C62 C 0.42475 0.98133 0.10397 0.0
C63 C 0.62047 0.11815 -0.01428 0.0
C64 C 0.48337 0.11851 0.0108 0.0
C65 C 0.52907 0.05869 0.77252 0.0
C66 C 0.5469 0.08435 0.32275 0.0
C67 C 0.53017 0.97297 0.09802 0.0
O68 O 0.44343 0.00823 0.17016 0.0
O69 O 0.68443 0.90087 0.31374 0.0
Zn70 Zn 0.65894 0.84473 0.28481 0.0
O71 O 0.60652 0.81667 0.34705 0.0
Zn72 Zn 0.60083 0.77495 0.43076 0.0
Zn73 Zn 0.59716 0.84935 0.43425 0.0
Zn74 Zn 0.56615 0.7952 0.24247 0.0
O75 O 0.56598 0.72577 0.36136 0.0
O76 O 0.53059 0.73894 0.25149 0.0
O77 O 0.69406 0.82952 0.35858 0.0
O78 O 0.65196 0.78063 0.45777 0.0
O79 O 0.58342 0.77567 0.57889 0.0
O80 O 0.59068 0.83319 0.58577 0.0
O81 O 0.55639 0.85857 0.37541 0.0
O82 O 0.65629 0.83523 0.12466 0.0
O83 O 0.5398 0.82548 0.22352 0.0
O84 O 0.59248 0.80033 0.10818 0.0
C85 C 0.67537 0.91706 0.38638 0.0
C86 C 0.53814 0.71524 0.29569 0.0
C87 C 0.58641 0.80352 0.63208 0.0
C88 C 0.68635 0.80365 0.42854 0.0
C89 C 0.53868 0.84975 0.28538 0.0
C90 C 0.62613 0.81519 0.06907 0.0
O91 O 0.64378 0.89951 0.43792 0.0
O92 O 0.09428 0.84085 0.32928 0.0
Zn93 Zn 0.14697 0.86065 0.2615 0.0
O94 O 0.1711 0.83181 0.31581 0.0
Zn95 Zn 0.21367 0.86263 0.40753 0.0
Zn96 Zn 0.13361 0.78774 0.3931 0.0
Zn97 Zn 0.19207 0.81502 0.20382 0.0
O98 O 0.26495 0.87689 0.3439 0.0
O99 O 0.24956 0.84518 0.1899 0.0
O100 O 0.17533 0.91481 0.31459 0.0
O101 O 0.21432 0.91026 0.43281 0.0
O102 O 0.20617 0.84235 0.55553 0.0
O103 O 0.14722 0.7925 0.54812 0.0
O104 O 0.12509 0.7396 0.32512 0.0
O105 O 0.14345 0.85736 0.0974 0.0
O106 O 0.17159 0.75927 0.20166 0.0
O107 O 0.17304 0.82409 0.07129 0.0
C108 C 0.07357 0.81132 0.386 0.0
C109 C 0.27469 0.86894 0.25404 0.0
C110 C 0.17593 0.81674 0.60179 0.0
C111 C 0.19924 0.92829 0.39231 0.0
C112 C 0.14275 0.73269 0.25071 0.0
C113 C 0.15508 0.83998 0.03627 0.0
O114 O 0.08425 0.78747 0.40652 0.0
O115 O 0.14439 0.26475 0.35057 0.0
Zn116 Zn 0.12583 0.29756 0.27795 0.0
O117 O 0.15219 0.34898 0.3394 0.0
Zn118 Zn 0.11689 0.35792 0.41852 0.0
Zn119 Zn 0.19171 0.35455 0.43394 0.0
Zn120 Zn 0.17914 0.38958 0.23812 0.0
O121 O 0.11212 0.40048 0.35431 0.0
O122 O 0.1562 0.42285 0.22358 0.0
O123 O 0.06848 0.27028 0.30947 0.0
O124 O 0.06536 0.31221 0.41662 0.0
O125 O 0.13036 0.36281 0.57318 0.0
O126 O 0.19202 0.37976 0.56929 0.0
O127 O 0.24349 0.3809 0.36475 0.0
O128 O 0.13437 0.30171 0.11609 0.0
O129 O 0.23677 0.41823 0.24773 0.0
O130 O 0.17043 0.36462 0.1009 0.0
C131 C 0.16378 0.2714 0.43759 0.0
C132 C 0.12875 0.42294 0.27478 0.0
C133 C 0.16159 0.37174 0.62153 0.0
C134 C 0.04966 0.27998 0.37178 0.0
C135 C 0.2577 0.40734 0.29457 0.0
C136 C 0.15394 0.33182 0.06021 0.0
O137 O 0.18134 0.30421 0.47875 0.0
O138 O 0.39429 0.24968 0.66148 0.0
Zn139 Zn 0.36573 0.1963 0.6041 0.0
O140 O 0.31175 0.17211 0.65183 0.0
Zn141 Zn 0.2987 0.13 0.74732 0.0
Zn142 Zn 0.3032 0.20828 0.72519 0.0
Zn143 Zn 0.27619 0.15362 0.53627 0.0
O144 O 0.26186 0.0796 0.68055 0.0
O145 O 0.24967 0.09813 0.52407 0.0
O146 O 0.39345 0.17216 0.67807 0.0
O147 O 0.34615 0.12946 0.7813 0.0
O148 O 0.28486 0.13858 0.89539 0.0
O149 O 0.3066 0.20026 0.88113 0.0
O150 O 0.25396 0.20658 0.68365 0.0
O151 O 0.36807 0.19642 0.4387 0.0
O152 O 0.23717 0.16959 0.53972 0.0
O153 O 0.30556 0.17301 0.40421 0.0
C154 C 0.38258 0.27149 0.69596 0.0
C155 C 0.24602 0.07205 0.58762 0.0
C156 C 0.29827 0.17115 0.93799 0.0
C157 C 0.38125 0.147 0.75266 0.0
C158 C 0.23151 0.19045 0.60415 0.0
C159 C 0.34024 0.18757 0.37335 0.0
O160 O 0.34689 0.26042 0.70379 0.0
O161 O 0.72516 0.19417 0.56197 0.0
Zn162 Zn 0.77597 0.2113 0.48472 0.0
O163 O 0.79236 0.17498 0.52603 0.0
Zn164 Zn 0.83148 0.19402 0.63107 0.0
Zn165 Zn 0.74831 0.13408 0.592 0.0
Zn166 Zn 0.80806 0.15553 0.41049 0.0
O167 O 0.88006 0.19723 0.57729 0.0
O168 O 0.86542 0.17846 0.40682 0.0
O169 O 0.81104 0.26288 0.55403 0.0
O170 O 0.8434 0.24559 0.66332 0.0
O171 O 0.81273 0.16926 0.77483 0.0
O172 O 0.75013 0.14569 0.74999 0.0
O173 O 0.7446 0.08468 0.56118 0.0
O174 O 0.77106 0.21034 0.31902 0.0
O175 O 0.78295 0.09896 0.41754 0.0
O176 O 0.79127 0.16962 0.27882 0.0
C177 C 0.69855 0.15986 0.57282 0.0
C178 C 0.8899 0.19261 0.48286 0.0
C179 C 0.7793 0.15929 0.8117 0.0
C180 C 0.83455 0.26984 0.63197 0.0
C181 C 0.75897 0.07484 0.48458 0.0
C182 C 0.77769 0.19059 0.25126 0.0
O183 O 0.7033 0.13444 0.52943 0.0
O184 O 0.84228 0.6433 0.68445 0.0
Zn185 Zn 0.8144 0.6716 0.64774 0.0
O186 O 0.84113 0.7232 0.70913 0.0
Zn187 Zn 0.80671 0.72967 0.79946 0.0
Zn188 Zn 0.8847 0.73154 0.79012 0.0
Zn189 Zn 0.85853 0.76379 0.6058 0.0
O190 O 0.78544 0.75782 0.72287 0.0
O191 O 0.83317 0.79551 0.61272 0.0
O192 O 0.76271 0.63861 0.7227 0.0
O193 O 0.76395 0.67947 0.84264 0.0
O194 O 0.83006 0.7531 0.93885 0.0
O195 O 0.87811 0.74112 0.943 0.0
O196 O 0.93412 0.7681 0.71646 0.0
O197 O 0.81024 0.67535 0.48473 0.0
O198 O 0.91587 0.7921 0.58329 0.0
O199 O 0.83945 0.7383 0.47048 0.0
C200 C 0.86808 0.65153 0.75582 0.0
C201 C 0.80007 0.78458 0.65354 0.0
C202 C 0.85441 0.74816 -0.00896 0.0
C203 C 0.74902 0.646 0.80636 0.0
C204 C 0.94195 0.78892 0.63229 0.0
C205 C 0.82168 0.70564 0.42933 0.0
O206 O 0.88488 0.68369 0.80091 0.0
C207 C 0.9653 0.46078 0.53687 0.0
C208 C 0.98513 0.49709 0.58242 0.0
H209 H 0.93381 0.4273 0.40084 0.0
C210 C -0.00997 0.52836 0.52299 0.0
H211 H 0.95995 0.43612 0.58403 0.0
C212 C 0.97338 0.52321 0.4214 0.0
C213 C 0.95209 0.48666 0.37665 0.0
H214 H 0.00387 0.55632 0.55881 0.0
H215 H 0.97738 0.54808 0.37807 0.0
C216 C 0.94911 0.45559 0.43424 0.0
C217 C 0.55244 0.51223 0.62656 0.0
C218 C 0.51618 0.49626 0.6771 0.0
H219 H 0.58391 0.51578 0.48326 0.0
C220 C 0.48365 0.46805 0.62383 0.0
H221 H 0.57817 0.53348 0.66697 0.0
C222 C 0.48721 0.45714 0.51943 0.0
C223 C 0.52326 0.4747 0.46707 0.0
H224 H 0.45562 0.45442 0.6627 0.0
H225 H 0.4614 0.43694 0.4772 0.0
C226 C 0.55595 0.50151 0.52264 0.0
C227 C 0.52516 0.09094 0.61058 0.0
C228 C 0.53435 0.06513 0.65723 0.0
H229 H 0.52343 0.11864 0.46539 0.0
C230 C 0.55362 0.05081 0.59716 0.0
H231 H 0.5113 0.1031 0.65794 0.0
C232 C 0.56204 0.06097 0.4886 0.0
C233 C 0.55049 0.08488 0.4398 0.0
H234 H 0.56218 0.03205 0.63409 0.0
H235 H 0.5751 0.04803 0.44133 0.0
C236 C 0.53289 0.10054 0.50201 0.0
C237 C 0.62069 0.84235 0.79127 0.0
C238 C 0.59761 0.80632 0.7455 0.0
H239 H 0.65115 0.87349 0.93129 0.0
C240 C 0.59152 0.77393 0.80222 0.0
H241 H 0.62706 0.86799 0.74784 0.0
C242 C 0.60635 0.7774 0.90567 0.0
C243 C 0.62759 0.81324 0.95294 0.0
H244 H 0.57475 0.74596 0.76754 0.0
H245 H 0.59874 0.75196 0.95209 0.0
C246 C 0.63589 0.84577 0.89417 0.0
C247 C 0.1359 0.79608 0.76991 0.0
C248 C 0.16913 0.82306 0.71466 0.0
H249 H 0.10355 0.78186 0.91773 0.0
C250 C 0.19209 0.85907 0.76073 0.0
H251 H 0.11705 0.76851 0.73519 0.0
C252 C 0.18312 0.8672 0.86223 0.0
C253 C 0.15147 0.83938 0.91991 0.0
H254 H 0.21716 0.88106 0.7188 0.0
H255 H 0.20292 0.894 0.89975 0.0
C256 C 0.12726 0.80417 0.87216 0.0
C257 C 0.19287 0.36675 0.78878 0.0
C258 C 0.15943 0.36062 0.73537 0.0
H259 H 0.21667 0.35946 0.93514 0.0
C260 C 0.12331 0.33817 0.78544 0.0
H261 H 0.22101 0.38318 0.75144 0.0
C262 C 0.12087 0.32344 0.88883 0.0
C263 C 0.15449 0.33131 0.94341 0.0
H264 H 0.09688 0.33205 0.74517 0.0
H265 H 0.09312 0.30856 0.92924 0.0
C266 C 0.19036 0.35216 0.89207 0.0
C267 C 0.34129 0.21851 0.20385 0.0
C268 C 0.34534 0.19032 0.25686 0.0
H269 H 0.32163 0.23392 0.06243 0.0
C270 C 0.33615 0.15681 0.20233 0.0
H271 H 0.34697 0.24399 0.2463 0.0
C272 C 0.32003 0.15018 0.09932 0.0
C273 C 0.31322 0.1772 0.0491 0.0
H274 H 0.33791 0.13422 0.24355 0.0
H275 H 0.31224 0.12359 0.06013 0.0
C276 C 0.32549 0.21209 0.10044 0.0
C277 C 0.80568 0.21354 0.07304 0.0
C278 C 0.77236 0.1923 0.1353 0.0
H279 H 0.83429 0.21879 0.92271 0.0
C280 C 0.73962 0.16229 0.08734 0.0
H281 H 0.83152 0.23615 0.10952 0.0
C282 C 0.74124 0.15187 -0.01951 0.0
C283 C 0.77596 0.1708 0.92204 0.0
H284 H 0.71401 0.14485 0.13536 0.0
H285 H 0.71621 0.12772 0.94606 0.0
C286 C 0.80758 0.20276 -0.0325 0.0
C287 C 0.84714 0.69938 0.25653 0.0
C288 C 0.82057 0.70567 0.31229 0.0
H289 H 0.88068 0.71001 0.11293 0.0
C290 C 0.80544 0.72632 0.26283 0.0
H291 H 0.86027 0.68484 0.2955 0.0
C292 C 0.81791 0.74189 0.16017 0.0
C293 C 0.84586 0.73713 0.10551 0.0
H294 H 0.78597 0.73264 0.30692 0.0
H295 H 0.80589 0.75789 0.12409 0.0
C296 C 0.85991 0.71517 0.15404 0.0
C297 C 0.12084 0.45954 0.12294 0.0
C298 C 0.11027 0.44304 0.22711 0.0
H299 H 0.10487 0.48085 -0.01511 0.0
C300 C 0.0772 0.43958 0.27667 0.0
H301 H 0.14625 0.46268 0.08251 0.0
C302 C 0.05337 0.44907 0.22005 0.0
C303 C 0.06228 0.46279 0.11307 0.0
H304 H 0.06838 0.42743 0.35707 0.0
H305 H 0.02736 0.44481 0.25964 0.0
C306 C 0.09705 0.46958 0.06645 0.0
C307 C 0.51452 0.61497 0.28017 0.0
C308 C 0.5102 0.60879 0.16788 0.0
H309 H 0.52535 0.65348 0.40955 0.0
C310 C 0.50651 0.63469 0.10124 0.0
H311 H 0.51625 0.59483 0.33398 0.0
C312 C 0.5114 0.66841 0.14529 0.0
C313 C 0.51985 0.67616 0.25608 0.0
H314 H 0.5027 0.63023 0.01465 0.0
H315 H 0.51199 0.68968 0.09127 0.0
C316 C 0.51927 0.6483 0.32382 0.0
C317 C 0.37874 0.94527 0.25267 0.0
C318 C 0.38773 0.94912 0.14145 0.0
H319 H 0.33649 0.91623 0.37567 0.0
C320 C 0.3609 0.92269 0.06894 0.0
H321 H 0.3991 0.96457 0.31131 0.0
C322 C 0.32471 0.89455 0.10647 0.0
C323 C 0.31497 0.89244 0.21702 0.0
H324 H 0.36722 0.92469 -0.01698 0.0
H325 H 0.30375 0.87582 0.04812 0.0
C326 C 0.34288 0.91728 0.28996 0.0
C327 C 0.41994 0.11402 -0.01894 0.0
C328 C 0.4591 0.13089 0.95441 0.0
H329 H 0.36483 0.10502 0.93731 0.0
C330 C 0.47301 0.15433 0.86168 0.0
H331 H 0.40818 0.09574 0.05145 0.0
C332 C 0.44789 0.15945 0.79475 0.0
C333 C 0.40841 0.14111 0.81914 0.0
H334 H 0.50304 0.16758 0.83826 0.0
H335 H 0.45928 0.17729 0.72341 0.0
C336 C 0.39493 0.11892 0.91418 0.0
C337 C 0.83755 0.33133 0.67913 0.0
C338 C 0.84806 0.30393 0.70002 0.0
H339 H 0.8416 0.38333 0.72957 0.0
C340 C 0.86913 0.30717 0.79451 0.0
H341 H 0.82077 0.32929 0.6083 0.0
C342 C 0.88011 0.33728 0.86504 0.0
C343 C 0.87085 0.36542 0.84273 0.0
H344 H 0.8773 0.28633 0.81487 0.0
H345 H 0.89708 0.33909 0.93526 0.0
C346 C 0.84894 0.36189 0.74975 0.0
C347 C 0.70783 0.62336 -0.02804 0.0
C348 C 0.71682 0.6154 0.86865 0.0
H349 H 0.66953 0.60348 0.10762 0.0
C350 C 0.69533 0.57839 0.82843 0.0
H351 H 0.72438 0.65129 0.00708 0.0
C352 C 0.66383 0.55063 0.88743 0.0
C353 C 0.65347 0.55952 -0.01247 0.0
H354 H 0.70195 0.57123 0.74997 0.0
H355 H 0.64631 0.52297 0.85158 0.0
C356 C 0.67663 0.59578 0.03062 0.0
C357 C 0.8645 0.58842 0.74214 0.0
C358 C 0.87647 0.62256 0.79707 0.0
H359 H 0.86459 0.536 0.73874 0.0
C360 C 0.8956 0.62869 0.89662 0.0
H361 H 0.84929 0.58277 0.66599 0.0
C362 C 0.90362 0.6019 0.93906 0.0
C363 C 0.89314 0.56841 0.88253 0.0
H364 H 0.90454 0.65435 0.94244 0.0
H365 H 0.91914 0.60813 0.01483 0.0
C366 C 0.87299 0.56159 0.78431 0.0
C367 C 0.42036 0.3408 0.92414 0.0
C368 C 0.45931 0.3641 0.89652 0.0
H369 H 0.36579 0.2947 0.88024 0.0
C370 C 0.47322 0.35728 0.79937 0.0
H371 H 0.40842 0.34544 -0.0026 0.0
C372 C 0.44841 0.32743 0.73161 0.0
C373 C 0.40921 0.30516 0.7584 0.0
H374 H 0.50307 0.3751 0.77557 0.0
H375 H 0.45966 0.32202 0.65822 0.0
C376 C 0.39562 0.31212 0.85548 0.0
C377 C 0.67708 0.17742 0.74368 0.0
C378 C 0.67487 0.14943 0.6729 0.0
H379 H 0.66226 0.18954 0.89987 0.0
C380 C 0.65486 0.11137 0.70708 0.0
H381 H 0.69244 0.20704 0.72028 0.0
C382 C 0.63904 0.1017 0.81074 0.0
C383 C 0.64192 0.12967 0.88231 0.0
H384 H 0.65244 0.08898 0.65504 0.0
H385 H 0.62374 0.07203 0.8337 0.0
C386 C 0.66047 0.16756 0.84715 0.0
C387 C 0.51825 0.90656 0.08229 0.0
C388 C 0.52585 0.93795 0.14582 0.0
H389 H 0.51559 0.85284 0.07763 0.0
C390 C 0.52967 0.93617 0.25838 0.0
H391 H 0.5144 0.90702 -0.00442 0.0
C392 C 0.52921 0.905 0.30576 0.0
C393 C 0.52577 0.87521 0.24127 0.0
H394 H 0.53418 0.95948 0.30989 0.0
H395 H 0.53435 0.90563 0.39206 0.0
C396 C 0.51846 0.87541 0.12966 0.0
C397 C 0.13127 0.68795 0.09806 0.0
C398 C 0.12466 0.69402 0.20653 0.0
H399 H 0.1106 0.65019 0.96195 0.0
C400 C 0.09535 0.66405 0.26577 0.0
H401 H 0.15373 0.71062 0.05024 0.0
C402 C 0.07077 0.63001 0.21517 0.0
C403 C 0.07496 0.62509 0.10419 0.0
H404 H 0.08986 0.66764 0.34965 0.0
H405 H 0.04733 0.608 0.26227 0.0
C406 C 0.10652 0.65355 0.0471 0.0
C407 C 0.34832 0.45552 0.12318 0.0
C408 C 0.37039 0.44138 0.17059 0.0
H409 H 0.29546 0.45634 0.1262 0.0
C410 C 0.35608 0.41813 0.26313 0.0
H411 H 0.35871 0.47381 0.05247 0.0
C412 C 0.32023 0.40856 0.30602 0.0
C413 C 0.29767 0.42186 0.25727 0.0
H414 H 0.37249 0.4071 0.30268 0.0
H415 H 0.30988 0.39 0.37621 0.0
C416 C 0.31225 0.44582 0.1661 0.0
C417 C 0.78311 0.8147 0.50191 0.0
C418 C 0.77466 0.79689 0.60434 0.0
H419 H 0.76145 0.83056 0.36439 0.0
C420 C 0.73831 0.78452 0.65081 0.0
H421 H 0.81084 0.82437 0.46368 0.0
C422 C 0.71008 0.78714 0.5932 0.0
C423 C 0.71759 0.80271 0.4882 0.0
H424 H 0.73092 0.77101 0.72986 0.0
H425 H 0.68206 0.7764 0.63079 0.0
C426 C 0.75477 0.8178 0.44442 0.0
C427 C 0.23355 0.00601 0.59918 0.0
C428 C 0.22829 0.03326 0.54495 0.0
H429 H 0.22889 0.95179 0.59264 0.0
C430 C 0.21067 0.0247 0.44232 0.0
H431 H 0.24697 0.01165 0.67817 0.0
C432 C 0.20038 -0.00975 0.39256 0.0
C433 C 0.20791 0.96407 0.44433 0.0
H434 H 0.20608 0.04515 0.39861 0.0
H435 H 0.18775 0.98468 0.31252 0.0
C436 C 0.22364 0.97187 0.54923 0.0
C437 C 0.94396 0.20656 0.35338 0.0
C438 C 0.93127 0.20912 0.45792 0.0
H439 H -0.00791 0.227 0.24356 0.0
C440 C 0.95858 0.23176 0.53557 0.0
H441 H 0.92359 0.18917 0.29191 0.0
C442 C -0.00282 0.25365 0.50727 0.0
C443 C 0.00955 0.25293 0.40134 0.0
H444 H 0.94999 0.23424 0.617 0.0
H445 H 0.01733 0.27201 0.5679 0.0
C446 C 0.98302 0.22815 0.32551 0.0
C447 C 0.19822 0.22683 0.63992 0.0
C448 C 0.20323 0.20179 0.57386 0.0
H449 H 0.18071 0.26816 0.64806 0.0
C450 C 0.18665 0.19342 0.46984 0.0
H451 H 0.2099 0.23327 0.7211 0.0
C452 C 0.17005 0.21365 0.42752 0.0
C453 C 0.16979 0.24227 0.48904 0.0
H454 H 0.18952 0.17376 0.4174 0.0
H455 H 0.16068 0.20924 0.34394 0.0
C456 C 0.1816 0.2469 0.59782 0.0
C457 C 0.69753 0.96962 0.51706 0.0
C458 C 0.70155 0.95681 0.41506 0.0
H459 H 0.71333 0.01684 0.62001 0.0
C460 C 0.72891 0.98257 0.3414 0.0
H461 H 0.67732 0.9502 0.57669 0.0
C462 C 0.74976 0.02112 0.36652 0.0
C463 C 0.74353 0.03416 0.46575 0.0
H464 H 0.73275 0.97326 0.26268 0.0
H465 H 0.76915 0.04082 0.30607 0.0
C466 C 0.71835 0.00782 0.54225 0.0
C467 C 0.00369 0.78898 0.61631 0.0
C468 C 0.97921 0.8015 0.57665 0.0
H469 H 0.05146 0.78123 0.58575 0.0
C470 C 0.98734 0.81955 0.47443 0.0
H471 H -0.00143 0.77505 0.69448 0.0
C472 C 0.01823 0.82328 0.41149 0.0
C473 C 0.04078 0.80821 0.44883 0.0
H474 H 0.96898 0.82942 0.44124 0.0
H475 H 0.02369 0.83679 0.3326 0.0
C476 C 0.03371 0.7919 0.55286 0.0
loop_
_geom_bond_atom_site_label_1
_geom_bond_atom_site_label_2
_geom_bond_distance
_geom_bond_site_symmetry_2
_ccdc_geom_bond_type
O0 Zn1 1.953 . S
O0 C16 1.225 1_556 S
Zn1 O0 1.953 . S
Zn1 O2 1.949 1_556 S
Zn1 O8 1.919 . S
Zn1 O13 1.924 . S
O2 Zn1 1.949 1_554 S
O2 Zn3 1.923 1_454 S
O2 Zn4 1.950 . S
O2 Zn5 1.945 . S
Zn3 O2 1.923 1_656 S
Zn3 O6 1.933 . S
Zn3 O9 1.941 . S
Zn3 O10 1.965 . S
Zn4 O2 1.950 . S
Zn4 O11 1.938 1_455 S
Zn4 O12 1.906 1_455 S
Zn4 O22 1.953 . S
Zn5 O2 1.945 . S
Zn5 O7 1.932 1_455 S
Zn5 O14 1.977 1_455 S
Zn5 O15 1.910 . S
O6 Zn3 1.933 . S
O6 C17 1.226 . S
O7 Zn5 1.932 1_655 S
O7 C17 1.307 1_554 S
O8 Zn1 1.919 . S
O8 C19 1.253 . S
O9 Zn3 1.941 . S
O9 C19 1.283 1_655 S
O10 Zn3 1.965 . S
O10 C18 1.303 . S
O11 Zn4 1.938 1_655 S
O11 C18 1.247 1_554 S
O12 Zn4 1.906 1_655 S
O12 C20 1.304 . S
O13 Zn1 1.924 . S
O13 C21 1.311 1_556 S
O14 Zn5 1.977 1_655 S
O14 C20 1.272 . S
O15 Zn5 1.910 . S
O15 C21 1.231 . S
C16 O0 1.225 1_554 S
C16 O22 1.298 . S
C17 O6 1.226 . S
C17 O7 1.307 1_556 S
C18 O10 1.303 . S
C18 O11 1.247 1_556 S
C19 O8 1.253 . S
C19 O9 1.283 1_455 S
C20 O12 1.304 . S
C20 O14 1.272 . S
C21 O13 1.311 1_554 S
C21 O15 1.231 . S
O22 Zn4 1.953 . S
O22 C16 1.298 . S
O23 Zn24 1.953 . S
O23 C39 1.225 1_556 S
Zn24 O23 1.953 . S
Zn24 O25 1.949 1_556 S
Zn24 O31 1.919 . S
Zn24 O36 1.924 . S
O25 Zn24 1.949 1_554 S
O25 Zn26 1.923 1_554 S
O25 Zn27 1.950 . S
O25 Zn28 1.945 . S
Zn26 O25 1.923 1_556 S
Zn26 O29 1.933 . S
Zn26 O32 1.941 . S
Zn26 O33 1.965 . S
Zn27 O25 1.950 . S
Zn27 O34 1.938 . S
Zn27 O35 1.906 . S
Zn27 O45 1.953 . S
Zn28 O25 1.945 . S
Zn28 O30 1.932 . S
Zn28 O37 1.977 . S
Zn28 O38 1.910 . S
O29 Zn26 1.933 . S
O29 C40 1.226 . S
O30 Zn28 1.932 . S
O30 C40 1.307 1_554 S
O31 Zn24 1.919 . S
O31 C42 1.253 . S
O32 Zn26 1.941 . S
O32 C42 1.283 . S
O33 Zn26 1.965 . S
O33 C41 1.303 . S
O34 Zn27 1.938 . S
O34 C41 1.247 1_554 S
O35 Zn27 1.906 . S
O35 C43 1.304 . S
O36 Zn24 1.924 . S
O36 C44 1.311 1_556 S
O37 Zn28 1.977 . S
O37 C43 1.272 . S
O38 Zn28 1.910 . S
O38 C44 1.231 . S
C39 O23 1.225 1_554 S
C39 O45 1.298 . S
C40 O29 1.226 . S
C40 O30 1.307 1_556 S
C41 O33 1.303 . S
C41 O34 1.247 1_556 S
C42 O31 1.253 . S
C42 O32 1.283 . S
C43 O35 1.304 . S
C43 O37 1.272 . S
C44 O36 1.311 1_554 S
C44 O38 1.231 . S
O45 Zn27 1.953 . S
O45 C39 1.298 . S
O46 Zn47 1.953 . S
O46 C62 1.225 1_556 S
Zn47 O46 1.953 . S
Zn47 O48 1.949 1_566 S
Zn47 O54 1.919 . S
Zn47 O59 1.924 . S
O48 Zn47 1.949 1_544 S
O48 Zn49 1.923 1_554 S
O48 Zn50 1.950 . S
O48 Zn51 1.945 . S
Zn49 O48 1.923 1_556 S
Zn49 O52 1.933 . S
Zn49 O55 1.941 . S
Zn49 O56 1.965 . S
Zn50 O48 1.950 . S
Zn50 O57 1.938 . S
Zn50 O58 1.906 . S
Zn50 O68 1.953 1_545 S
Zn51 O48 1.945 . S
Zn51 O53 1.932 . S
Zn51 O60 1.977 . S
Zn51 O61 1.910 1_545 S
O52 Zn49 1.933 . S
O52 C63 1.226 . S
O53 Zn51 1.932 . S
O53 C63 1.307 1_554 S
O54 Zn47 1.919 . S
O54 C65 1.253 1_565 S
O55 Zn49 1.941 . S
O55 C65 1.283 . S
O56 Zn49 1.965 . S
O56 C64 1.303 . S
O57 Zn50 1.938 . S
O57 C64 1.247 1_554 S
O58 Zn50 1.906 . S
O58 C66 1.304 . S
O59 Zn47 1.924 . S
O59 C67 1.311 1_556 S
O60 Zn51 1.977 . S
O60 C66 1.272 . S
O61 Zn51 1.910 1_565 S
O61 C67 1.231 . S
C62 O46 1.225 1_554 S
C62 O68 1.298 . S
C63 O52 1.226 . S
C63 O53 1.307 1_556 S
C64 O56 1.303 . S
C64 O57 1.247 1_556 S
C65 O54 1.253 1_545 S
C65 O55 1.283 . S
C66 O58 1.304 . S
C66 O60 1.272 . S
C67 O59 1.311 1_554 S
C67 O61 1.231 . S
O68 Zn50 1.953 1_565 S
O68 C62 1.298 . S
O69 Zn70 1.953 . S
O69 C85 1.225 . S
Zn70 O69 1.953 . S
Zn70 O71 1.949 . S
Zn70 O77 1.919 . S
Zn70 O82 1.924 . S
O71 Zn70 1.949 . S
O71 Zn72 1.923 . S
O71 Zn73 1.950 . S
O71 Zn74 1.945 . S
Zn72 O71 1.923 . S
Zn72 O75 1.933 . S
Zn72 O78 1.941 . S
Zn72 O79 1.965 . S
Zn73 O71 1.950 . S
Zn73 O80 1.938 . S
Zn73 O81 1.906 . S
Zn73 O91 1.953 . S
Zn74 O71 1.945 . S
Zn74 O76 1.932 . S
Zn74 O83 1.977 . S
Zn74 O84 1.910 . S
O75 Zn72 1.933 . S
O75 C86 1.226 . S
O76 Zn74 1.932 . S
O76 C86 1.307 . S
O77 Zn70 1.919 . S
O77 C88 1.253 . S
O78 Zn72 1.941 . S
O78 C88 1.283 . S
O79 Zn72 1.965 . S
O79 C87 1.303 . S
O80 Zn73 1.938 . S
O80 C87 1.247 . S
O81 Zn73 1.906 . S
O81 C89 1.304 . S
O82 Zn70 1.924 . S
O82 C90 1.311 . S
O83 Zn74 1.977 . S
O83 C89 1.272 . S
O84 Zn74 1.910 . S
O84 C90 1.231 . S
C85 O69 1.225 . S
C85 O91 1.298 . S
C86 O75 1.226 . S
C86 O76 1.307 . S
C87 O79 1.303 . S
C87 O80 1.247 . S
C88 O77 1.253 . S
C88 O78 1.283 . S
C89 O81 1.304 . S
C89 O83 1.272 . S
C90 O82 1.311 . S
C90 O84 1.231 . S
O91 Zn73 1.953 . S
O91 C85 1.298 . S
O92 Zn93 1.953 . S
O92 C108 1.225 . S
Zn93 O92 1.953 . S
Zn93 O94 1.949 . S
Zn93 O100 1.919 . S
Zn93 O105 1.924 . S
O94 Zn93 1.949 . S
O94 Zn95 1.923 . S
O94 Zn96 1.950 . S
O94 Zn97 1.945 . S
Zn95 O94 1.923 . S
Zn95 O98 1.933 . S
Zn95 O101 1.941 . S
Zn95 O102 1.965 . S
Zn96 O94 1.950 . S
Zn96 O103 1.938 . S
Zn96 O104 1.906 . S
Zn96 O114 1.953 . S
Zn97 O94 1.945 . S
Zn97 O99 1.932 . S
Zn97 O106 1.977 . S
Zn97 O107 1.910 . S
O98 Zn95 1.933 . S
O98 C109 1.226 . S
O99 Zn97 1.932 . S
O99 C109 1.307 . S
O100 Zn93 1.919 . S
O100 C111 1.253 . S
O101 Zn95 1.941 . S
O101 C111 1.283 . S
O102 Zn95 1.965 . S
O102 C110 1.303 . S
O103 Zn96 1.938 . S
O103 C110 1.247 . S
O104 Zn96 1.906 . S
O104 C112 1.304 . S
O105 Zn93 1.924 . S
O105 C113 1.311 . S
O106 Zn97 1.977 . S
O106 C112 1.272 . S
O107 Zn97 1.910 . S
O107 C113 1.231 . S
C108 O92 1.225 . S
C108 O114 1.298 . S
C109 O98 1.226 . S
C109 O99 1.307 . S
C110 O102 1.303 . S
C110 O103 1.247 . S
C111 O100 1.253 . S
C111 O101 1.283 . S
C112 O104 1.304 . S
C112 O106 1.272 . S
C113 O105 1.311 . S
C113 O107 1.231 . S
O114 Zn96 1.953 . S
O114 C108 1.298 . S
O115 Zn116 1.953 . S
O115 C131 1.225 . S
Zn116 O115 1.953 . S
Zn116 O117 1.949 . S
Zn116 O123 1.919 . S
Zn116 O128 1.924 . S
O117 Zn116 1.949 . S
O117 Zn118 1.923 . S
O117 Zn119 1.950 . S
O117 Zn120 1.945 . S
Zn118 O117 1.923 . S
Zn118 O121 1.933 . S
Zn118 O124 1.941 . S
Zn118 O125 1.965 . S
Zn119 O117 1.950 . S
Zn119 O126 1.938 . S
Zn119 O127 1.906 . S
Zn119 O137 1.953 . S
Zn120 O117 1.945 . S
Zn120 O122 1.932 . S
Zn120 O129 1.977 . S
Zn120 O130 1.910 . S
O121 Zn118 1.933 . S
O121 C132 1.226 . S
O122 Zn120 1.932 . S
O122 C132 1.307 . S
O123 Zn116 1.919 . S
O123 C134 1.253 . S
O124 Zn118 1.941 . S
O124 C134 1.283 . S
O125 Zn118 1.965 . S
O125 C133 1.303 . S
O126 Zn119 1.938 . S
O126 C133 1.247 . S
O127 Zn119 1.906 . S
O127 C135 1.304 . S
O128 Zn116 1.924 . S
O128 C136 1.311 . S
O129 Zn120 1.977 . S
O129 C135 1.272 . S
O130 Zn120 1.910 . S
O130 C136 1.231 . S
C131 O115 1.225 . S
C131 O137 1.298 . S
C132 O121 1.226 . S
C132 O122 1.307 . S
C133 O125 1.303 . S
C133 O126 1.247 . S
C134 O123 1.253 . S
C134 O124 1.283 . S
C135 O127 1.304 . S
C135 O129 1.272 . S
C136 O128 1.311 . S
C136 O130 1.231 . S
O137 Zn119 1.953 . S
O137 C131 1.298 . S
O138 Zn139 1.953 . S
O138 C154 1.225 . S
Zn139 O138 1.953 . S
Zn139 O140 1.949 . S
Zn139 O146 1.919 . S
Zn139 O151 1.924 . S
O140 Zn139 1.949 . S
O140 Zn141 1.923 . S
O140 Zn142 1.950 . S
O140 Zn143 1.945 . S
Zn141 O140 1.923 . S
Zn141 O144 1.933 . S
Zn141 O147 1.941 . S
Zn141 O148 1.965 . S
Zn142 O140 1.950 . S
Zn142 O149 1.938 . S
Zn142 O150 1.906 . S
Zn142 O160 1.953 . S
Zn143 O140 1.945 . S
Zn143 O145 1.932 . S
Zn143 O152 1.977 . S
Zn143 O153 1.910 . S
O144 Zn141 1.933 . S
O144 C155 1.226 . S
O145 Zn143 1.932 . S
O145 C155 1.307 . S
O146 Zn139 1.919 . S
O146 C157 1.253 . S
O147 Zn141 1.941 . S
O147 C157 1.283 . S
O148 Zn141 1.965 . S
O148 C156 1.303 1_556 S
O149 Zn142 1.938 . S
O149 C156 1.247 1_556 S
O150 Zn142 1.906 . S
O150 C158 1.304 . S
O151 Zn139 1.924 . S
O151 C159 1.311 . S
O152 Zn143 1.977 . S
O152 C158 1.272 . S
O153 Zn143 1.910 . S
O153 C159 1.231 . S
C154 O138 1.225 . S
C154 O160 1.298 . S
C155 O144 1.226 . S
C155 O145 1.307 . S
C156 O148 1.303 1_554 S
C156 O149 1.247 1_554 S
C157 O146 1.253 . S
C157 O147 1.283 . S
C158 O150 1.304 . S
C158 O152 1.272 . S
C159 O151 1.311 . S
C159 O153 1.231 . S
O160 Zn142 1.953 . S
O160 C154 1.298 . S
O161 Zn162 1.953 . S
O161 C177 1.225 . S
Zn162 O161 1.953 . S
Zn162 O163 1.949 . S
Zn162 O169 1.919 . S
Zn162 O174 1.924 . S
O163 Zn162 1.949 . S
O163 Zn164 1.923 . S
O163 Zn165 1.950 . S
O163 Zn166 1.945 . S
Zn164 O163 1.923 . S
Zn164 O167 1.933 . S
Zn164 O170 1.941 . S
Zn164 O171 1.965 . S
Zn165 O163 1.950 . S
Zn165 O172 1.938 . S
Zn165 O173 1.906 . S
Zn165 O183 1.953 . S
Zn166 O163 1.945 . S
Zn166 O168 1.932 . S
Zn166 O175 1.977 . S
Zn166 O176 1.910 . S
O167 Zn164 1.933 . S
O167 C178 1.226 . S
O168 Zn166 1.932 . S
O168 C178 1.307 . S
O169 Zn162 1.919 . S
O169 C180 1.253 . S
O170 Zn164 1.941 . S
O170 C180 1.283 . S
O171 Zn164 1.965 . S
O171 C179 1.303 1_556 S
O172 Zn165 1.938 . S
O172 C179 1.247 1_556 S
O173 Zn165 1.906 . S
O173 C181 1.304 . S
O174 Zn162 1.924 . S
O174 C182 1.311 . S
O175 Zn166 1.977 . S
O175 C181 1.272 . S
O176 Zn166 1.910 . S
O176 C182 1.231 . S
C177 O161 1.225 . S
C177 O183 1.298 . S
C178 O167 1.226 . S
C178 O168 1.307 . S
C179 O171 1.303 1_554 S
C179 O172 1.247 1_554 S
C180 O169 1.253 . S
C180 O170 1.283 . S
C181 O173 1.304 . S
C181 O175 1.272 . S
C182 O174 1.311 . S
C182 O176 1.231 . S
O183 Zn165 1.953 . S
O183 C177 1.298 . S
O184 Zn185 1.953 . S
O184 C200 1.225 . S
Zn185 O184 1.953 . S
Zn185 O186 1.949 . S
Zn185 O192 1.919 . S
Zn185 O197 1.924 . S
O186 Zn185 1.949 . S
O186 Zn187 1.923 . S
O186 Zn188 1.950 . S
O186 Zn189 1.945 . S
Zn187 O186 1.923 . S
Zn187 O190 1.933 . S
Zn187 O193 1.941 . S
Zn187 O194 1.965 . S
Zn188 O186 1.950 . S
Zn188 O195 1.938 . S
Zn188 O196 1.906 . S
Zn188 O206 1.953 . S
Zn189 O186 1.945 . S
Zn189 O191 1.932 . S
Zn189 O198 1.977 . S
Zn189 O199 1.910 . S
O190 Zn187 1.933 . S
O190 C201 1.226 . S
O191 Zn189 1.932 . S
O191 C201 1.307 . S
O192 Zn185 1.919 . S
O192 C203 1.253 . S
O193 Zn187 1.941 . S
O193 C203 1.283 . S
O194 Zn187 1.965 . S
O194 C202 1.303 1_556 S
O195 Zn188 1.938 . S
O195 C202 1.247 1_556 S
O196 Zn188 1.906 . S
O196 C204 1.304 . S
O197 Zn185 1.924 . S
O197 C205 1.311 . S
O198 Zn189 1.977 . S
O198 C204 1.272 . S
O199 Zn189 1.910 . S
O199 C205 1.231 . S
C200 O184 1.225 . S
C200 O206 1.298 . S
C201 O190 1.226 . S
C201 O191 1.307 . S
C202 O194 1.303 1_554 S
C202 O195 1.247 1_554 S
C203 O192 1.253 . S
C203 O193 1.283 . S
C204 O196 1.304 . S
C204 O198 1.272 . S
C205 O197 1.311 . S
C205 O199 1.231 . S
O206 Zn188 1.953 . S
O206 C200 1.298 . S
C207 C208 1.387 1_655 S
C207 H211 0.950 . S
C207 C216 1.390 . S
C208 C207 1.387 1_455 S
C208 C210 1.387 . S
H209 C216 0.950 . S
C210 C208 1.387 . S
C210 C212 1.390 . S
C210 H214 0.950 . S
H211 C207 0.950 . S
C212 C210 1.390 . S
C212 C213 1.387 1_455 S
C212 H215 0.950 . S
C213 C212 1.387 1_655 S
C213 C216 1.387 . S
H214 C210 0.950 . S
H215 C212 0.950 . S
C216 C207 1.390 . S
C216 H209 0.950 . S
C216 C213 1.387 . S
C217 C218 1.387 . S
C217 H221 0.950 . S
C217 C226 1.390 . S
C218 C217 1.387 . S
C218 C220 1.387 . S
H219 C226 0.950 . S
C220 C218 1.387 . S
C220 C222 1.390 . S
C220 H224 0.950 . S
H221 C217 0.950 . S
C222 C220 1.390 . S
C222 C223 1.387 . S
C222 H225 0.950 . S
C223 C222 1.387 . S
C223 C226 1.387 . S
H224 C220 0.950 . S
H225 C222 0.950 . S
C226 C217 1.390 . S
C226 H219 0.950 . S
C226 C223 1.387 . S
C227 C228 1.387 . S
C227 H231 0.950 . S
C227 C236 1.390 . S
C228 C227 1.387 . S
C228 C230 1.387 . S
H229 C236 0.950 . S
C230 C228 1.387 . S
C230 C232 1.390 . S
C230 H234 0.950 1_545 S
H231 C227 0.950 . S
C232 C230 1.390 . S
C232 C233 1.387 . S
C232 H235 0.950 . S
C233 C232 1.387 . S
C233 C236 1.387 . S
H234 C230 0.950 1_565 S
H235 C232 0.950 . S
C236 C227 1.390 . S
C236 H229 0.950 . S
C236 C233 1.387 . S
C237 C238 1.387 . S
C237 H241 0.950 . S
C237 C246 1.390 . S
C238 C237 1.387 . S
C238 C240 1.387 . S
H239 C246 0.950 . S
C240 C238 1.387 . S
C240 C242 1.390 . S
C240 H244 0.950 . S
H241 C237 0.950 . S
C242 C240 1.390 . S
C242 C243 1.387 . S
C242 H245 0.950 1_556 S
C243 C242 1.387 . S
C243 C246 1.387 . S
H244 C240 0.950 . S
H245 C242 0.950 1_554 S
C246 C237 1.390 . S
C246 H239 0.950 . S
C246 C243 1.387 . S
C247 C248 1.387 . S
C247 H251 0.950 . S
C247 C256 1.390 . S
C248 C247 1.387 . S
C248 C250 1.387 . S
H249 C256 0.950 1_554 S
C250 C248 1.387 . S
C250 C252 1.390 . S
C250 H254 0.950 . S
H251 C247 0.950 . S
C252 C250 1.390 . S
C252 C253 1.387 . S
C252 H255 0.950 . S
C253 C252 1.387 . S
C253 C256 1.387 . S
H254 C250 0.950 . S
H255 C252 0.950 . S
C256 C247 1.390 . S
C256 H249 0.950 1_556 S
C256 C253 1.387 . S
C257 C258 1.387 . S
C257 H261 0.950 . S
C257 C266 1.390 . S
C258 C257 1.387 . S
C258 C260 1.387 . S
H259 C266 0.950 . S
C260 C258 1.387 . S
C260 C262 1.390 . S
C260 H264 0.950 . S
H261 C257 0.950 . S
C262 C260 1.390 . S
C262 C263 1.387 . S
C262 H265 0.950 . S
C263 C262 1.387 . S
C263 C266 1.387 . S
H264 C260 0.950 . S
H265 C262 0.950 . S
C266 C257 1.390 . S
C266 H259 0.950 . S
C266 C263 1.387 . S
C267 C268 1.387 . S
C267 H271 0.950 . S
C267 C276 1.390 . S
C268 C267 1.387 . S
C268 C270 1.387 . S
H269 C276 0.950 . S
C270 C268 1.387 . S
C270 C272 1.390 . S
C270 H274 0.950 . S
H271 C267 0.950 . S
C272 C270 1.390 . S
C272 C273 1.387 . S
C272 H275 0.950 . S
C273 C272 1.387 . S
C273 C276 1.387 . S
H274 C270 0.950 . S
H275 C272 0.950 . S
C276 C267 1.390 . S
C276 H269 0.950 . S
C276 C273 1.387 . S
C277 C278 1.387 . S
C277 H281 0.950 . S
C277 C286 1.390 . S
C278 C277 1.387 . S
C278 C280 1.387 . S
H279 C286 0.950 . S
C280 C278 1.387 . S
C280 C282 1.390 . S
C280 H284 0.950 . S
H281 C277 0.950 . S
C282 C280 1.390 . S
C282 C283 1.387 . S
C282 H285 0.950 . S
C283 C282 1.387 . S
C283 C286 1.387 . S
H284 C280 0.950 . S
H285 C282 0.950 . S
C286 C277 1.390 . S
C286 H279 0.950 . S
C286 C283 1.387 . S
C287 C288 1.387 . S
C287 H291 0.950 . S
C287 C296 1.390 . S
C288 C287 1.387 . S
C288 C290 1.387 . S
H289 C296 0.950 . S
C290 C288 1.387 . S
C290 C292 1.390 . S
C290 H294 0.950 . S
H291 C287 0.950 . S
C292 C290 1.390 . S
C292 C293 1.387 . S
C292 H295 0.950 . S
C293 C292 1.387 . S
C293 C296 1.387 . S
H294 C290 0.950 . S
H295 C292 0.950 . S
C296 C287 1.390 . S
C296 H289 0.950 . S
C296 C293 1.387 . S
C297 C298 1.387 . S
C297 H301 0.950 . S
C297 C306 1.390 . S
C298 C297 1.387 . S
C298 C300 1.387 . S
H299 C306 0.950 . S
C300 C298 1.387 . S
C300 C302 1.390 . S
C300 H304 0.950 . S
H301 C297 0.950 . S
C302 C300 1.390 . S
C302 C303 1.387 . S
C302 H305 0.950 . S
C303 C302 1.387 . S
C303 C306 1.387 . S
H304 C300 0.950 . S
H305 C302 0.950 . S
C306 C297 1.390 . S
C306 H299 0.950 . S
C306 C303 1.387 . S
C307 C308 1.387 . S
C307 H311 0.950 . S
C307 C316 1.390 . S
C308 C307 1.387 . S
C308 C310 1.387 . S
H309 C316 0.950 . S
C310 C308 1.387 . S
C310 C312 1.390 . S
C310 H314 0.950 . S
H311 C307 0.950 . S
C312 C310 1.390 . S
C312 C313 1.387 . S
C312 H315 0.950 . S
C313 C312 1.387 . S
C313 C316 1.387 . S
H314 C310 0.950 . S
H315 C312 0.950 . S
C316 C307 1.390 . S
C316 H309 0.950 . S
C316 C313 1.387 . S
C317 C318 1.387 . S
C317 H321 0.950 . S
C317 C326 1.390 . S
C318 C317 1.387 . S
C318 C320 1.387 . S
H319 C326 0.950 . S
C320 C318 1.387 . S
C320 C322 1.390 . S
C320 H324 0.950 . S
H321 C317 0.950 . S
C322 C320 1.390 . S
C322 C323 1.387 . S
C322 H325 0.950 . S
C323 C322 1.387 . S
C323 C326 1.387 . S
H324 C320 0.950 . S
H325 C322 0.950 . S
C326 C317 1.390 . S
C326 H319 0.950 . S
C326 C323 1.387 . S
C327 C328 1.387 . S
C327 H331 0.950 . S
C327 C336 1.390 . S
C328 C327 1.387 . S
C328 C330 1.387 . S
H329 C336 0.950 . S
C330 C328 1.387 . S
C330 C332 1.390 . S
C330 H334 0.950 1_556 S
H331 C327 0.950 . S
C332 C330 1.390 . S
C332 C333 1.387 . S
C332 H335 0.950 . S
C333 C332 1.387 . S
C333 C336 1.387 . S
H334 C330 0.950 1_554 S
H335 C332 0.950 . S
C336 C327 1.390 . S
C336 H329 0.950 . S
C336 C333 1.387 . S
C337 C338 1.387 . S
C337 H341 0.950 . S
C337 C346 1.390 . S
C338 C337 1.387 . S
C338 C340 1.387 . S
H339 C346 0.950 . S
C340 C338 1.387 . S
C340 C342 1.390 . S
C340 H344 0.950 . S
H341 C337 0.950 . S
C342 C340 1.390 . S
C342 C343 1.387 . S
C342 H345 0.950 . S
C343 C342 1.387 . S
C343 C346 1.387 . S
H344 C340 0.950 . S
H345 C342 0.950 . S
C346 C337 1.390 . S
C346 H339 0.950 . S
C346 C343 1.387 . S
C347 C348 1.387 . S
C347 H351 0.950 . S
C347 C356 1.390 . S
C348 C347 1.387 . S
C348 C350 1.387 . S
H349 C356 0.950 1_554 S
C350 C348 1.387 . S
C350 C352 1.390 . S
C350 H354 0.950 . S
H351 C347 0.950 . S
C352 C350 1.390 . S
C352 C353 1.387 . S
C352 H355 0.950 . S
C353 C352 1.387 . S
C353 C356 1.387 . S
H354 C350 0.950 . S
H355 C352 0.950 . S
C356 C347 1.390 . S
C356 H349 0.950 1_556 S
C356 C353 1.387 . S
C357 C358 1.387 . S
C357 H361 0.950 . S
C357 C366 1.390 . S
C358 C357 1.387 . S
C358 C360 1.387 . S
H359 C366 0.950 1_554 S
C360 C358 1.387 . S
C360 C362 1.390 . S
C360 H364 0.950 . S
H361 C357 0.950 . S
C362 C360 1.390 . S
C362 C363 1.387 . S
C362 H365 0.950 . S
C363 C362 1.387 . S
C363 C366 1.387 . S
H364 C360 0.950 . S
H365 C362 0.950 . S
C366 C357 1.390 . S
C366 H359 0.950 1_556 S
C366 C363 1.387 . S
C367 C368 1.387 . S
C367 H371 0.950 1_556 S
C367 C376 1.390 . S
C368 C367 1.387 . S
C368 C370 1.387 . S
H369 C376 0.950 . S
C370 C368 1.387 . S
C370 C372 1.390 . S
C370 H374 0.950 . S
H371 C367 0.950 1_554 S
C372 C370 1.390 . S
C372 C373 1.387 . S
C372 H375 0.950 . S
C373 C372 1.387 . S
C373 C376 1.387 . S
H374 C370 0.950 . S
H375 C372 0.950 . S
C376 C367 1.390 . S
C376 H369 0.950 . S
C376 C373 1.387 . S
C377 C378 1.387 . S
C377 H381 0.950 . S
C377 C386 1.390 . S
C378 C377 1.387 . S
C378 C380 1.387 . S
H379 C386 0.950 . S
C380 C378 1.387 . S
C380 C382 1.390 . S
C380 H384 0.950 . S
H381 C377 0.950 . S
C382 C380 1.390 . S
C382 C383 1.387 . S
C382 H385 0.950 . S
C383 C382 1.387 . S
C383 C386 1.387 . S
H384 C380 0.950 . S
H385 C382 0.950 . S
C386 C377 1.390 . S
C386 H379 0.950 . S
C386 C383 1.387 . S
C387 C388 1.387 . S
C387 H391 0.950 . S
C387 C396 1.390 . S
C388 C387 1.387 . S
C388 C390 1.387 . S
H389 C396 0.950 . S
C390 C388 1.387 . S
C390 C392 1.390 . S
C390 H394 0.950 . S
H391 C387 0.950 . S
C392 C390 1.390 . S
C392 C393 1.387 . S
C392 H395 0.950 . S
C393 C392 1.387 . S
C393 C396 1.387 . S
H394 C390 0.950 . S
H395 C392 0.950 . S
C396 C387 1.390 . S
C396 H389 0.950 . S
C396 C393 1.387 . S
C397 C398 1.387 . S
C397 H401 0.950 . S
C397 C406 1.390 . S
C398 C397 1.387 . S
C398 C400 1.387 . S
H399 C406 0.950 . S
C400 C398 1.387 . S
C400 C402 1.390 . S
C400 H404 0.950 . S
H401 C397 0.950 . S
C402 C400 1.390 . S
C402 C403 1.387 . S
C402 H405 0.950 . S
C403 C402 1.387 . S
C403 C406 1.387 . S
H404 C400 0.950 . S
H405 C402 0.950 . S
C406 C397 1.390 . S
C406 H399 0.950 . S
C406 C403 1.387 . S
C407 C408 1.387 . S
C407 H411 0.950 . S
C407 C416 1.390 . S
C408 C407 1.387 . S
C408 C410 1.387 . S
H409 C416 0.950 . S
C410 C408 1.387 . S
C410 C412 1.390 . S
C410 H414 0.950 . S
H411 C407 0.950 . S
C412 C410 1.390 . S
C412 C413 1.387 . S
C412 H415 0.950 . S
C413 C412 1.387 . S
C413 C416 1.387 . S
H414 C410 0.950 . S
H415 C412 0.950 . S
C416 C407 1.390 . S
C416 H409 0.950 . S
C416 C413 1.387 . S
C417 C418 1.387 . S
C417 H421 0.950 . S
C417 C426 1.390 . S
C418 C417 1.387 . S
C418 C420 1.387 . S
H419 C426 0.950 . S
C420 C418 1.387 . S
C420 C422 1.390 . S
C420 H424 0.950 . S
H421 C417 0.950 . S
C422 C420 1.390 . S
C422 C423 1.387 . S
C422 H425 0.950 . S
C423 C422 1.387 . S
C423 C426 1.387 . S
H424 C420 0.950 . S
H425 C422 0.950 . S
C426 C417 1.390 . S
C426 H419 0.950 . S
C426 C423 1.387 . S
C427 C428 1.387 . S
C427 H431 0.950 . S
C427 C436 1.375 1_545 S
C428 C427 1.387 . S
C428 C430 1.387 . S
H429 C436 0.969 . S
C430 C428 1.387 . S
C430 C432 1.390 . S
C430 H434 0.950 . S
H431 C427 0.950 . S
C432 C430 1.390 . S
C432 C433 1.387 1_545 S
C432 H435 0.950 . S
C433 C432 1.387 1_565 S
C433 C436 1.384 . S
H434 C430 0.950 . S
H435 C432 0.950 . S
C436 C427 1.375 1_565 S
C436 H429 0.969 . S
C436 C433 1.384 . S
C437 C438 1.387 . S
C437 H441 0.950 . S
C437 C446 1.395 . S
C438 C437 1.387 . S
C438 C440 1.383 1_655 S
H439 C446 0.951 . S
C440 C438 1.383 1_455 S
C440 C442 1.396 . S
C440 H444 0.951 . S
H441 C437 0.950 . S
C442 C440 1.396 . S
C442 C443 1.387 . S
C442 H445 0.950 . S
C443 C442 1.387 . S
C443 C446 1.384 1_455 S
H444 C440 0.951 . S
H445 C442 0.950 . S
C446 C437 1.395 . S
C446 H439 0.951 . S
C446 C443 1.384 1_655 S
C447 C448 1.387 . S
C447 H451 0.950 . S
C447 C456 1.390 . S
C448 C447 1.387 . S
C448 C450 1.387 . S
H449 C456 0.950 . S
C450 C448 1.387 . S
C450 C452 1.390 . S
C450 H454 0.950 . S
H451 C447 0.950 . S
C452 C450 1.390 . S
C452 C453 1.387 . S
C452 H455 0.950 . S
C453 C452 1.387 . S
C453 C456 1.387 . S
H454 C450 0.950 . S
H455 C452 0.950 . S
C456 C447 1.390 . S
C456 H449 0.950 . S
C456 C453 1.387 . S
C457 C458 1.387 . S
C457 H461 0.950 1_545 S
C457 C466 1.390 . S
C458 C457 1.387 . S
C458 C460 1.387 . S
H459 C466 0.950 . S
C460 C458 1.387 . S
C460 C462 1.390 . S
C460 H464 0.950 . S
H461 C457 0.950 1_565 S
C462 C460 1.390 . S
C462 C463 1.387 . S
C462 H465 0.950 . S
C463 C462 1.387 . S
C463 C466 1.387 . S
H464 C460 0.950 . S
H465 C462 0.950 . S
C466 C457 1.390 . S
C466 H459 0.950 . S
C466 C463 1.387 . S
C467 C468 1.387 . S
C467 H471 0.950 . S
C467 C476 1.390 1_655 S
C468 C467 1.387 . S
C468 C470 1.387 . S
H469 C476 0.950 . S
C470 C468 1.387 . S
C470 C472 1.390 . S
C470 H474 0.950 . S
H471 C467 0.950 . S
C472 C470 1.390 . S
C472 C473 1.387 1_655 S
C472 H475 0.950 . S
C473 C472 1.387 1_455 S
C473 C476 1.387 . S
H474 C470 0.950 . S
H475 C472 0.950 . S
C476 C467 1.390 1_455 S
C476 H469 0.950 . S
C476 C473 1.387 . S
C208 C19 1.306 . S
C213 C20 1.143 . S
C218 C42 1.305 . S
C223 C43 1.141 . S
C228 C65 1.307 . S
C233 C66 1.145 . S
C238 C87 1.404 . S
C243 C90 1.219 1_556 S
C248 C110 1.404 . S
C253 C113 1.217 1_556 S
C258 C133 1.404 . S
C263 C136 1.218 1_556 S
C268 C159 1.188 . S
C273 C156 1.355 . S
C278 C182 1.192 . S
C283 C179 1.356 . S
C288 C205 1.186 . S
C293 C202 1.355 . S
C298 C132 1.535 . S
C303 C16 1.514 . S
C308 C39 1.514 . S
C313 C86 1.535 . S
C318 C62 1.513 . S
C323 C109 1.533 . S
C328 C64 1.322 . S
C333 C157 1.281 . S
C338 C180 1.284 . S
C343 C18 1.324 . S
C348 C203 1.282 . S
C353 C41 1.324 . S
C358 C200 1.179 . S
C363 C17 1.201 . S
C368 C40 1.202 . S
C373 C154 1.180 . S
C378 C177 1.179 . S
C383 C63 1.200 . S
C388 C67 1.344 . S
C393 C89 1.356 . S
C398 C112 1.356 . S
C403 C21 1.342 . S
C408 C44 1.343 . S
C413 C135 1.359 . S
C418 C201 1.397 . S
C423 C88 1.352 . S
C428 C155 1.395 . S
C433 C111 1.348 . S
C438 C178 1.398 . S
C443 C134 1.352 . S
C448 C158 1.199 . S
C453 C131 1.297 . S
C458 C85 1.297 1_545 S
C463 C181 1.199 . S
C468 C204 1.197 . S
C473 C108 1.295 . S
