# Generated by pormake.
# Topology uns, (4)-cn, num edge types: 1
# Building blocks:
#     Node 0, Type 0, BuildingBlock: MUDLON_clean_sbu_0, # of connection points: 4
#     Node 1, Type 0, BuildingBlock: MUDLON_clean_sbu_0, # of connection points: 4
#     Node 2, Type 0, BuildingBlock: MUDLON_clean_sbu_0, # of connection points: 4
#     Node 3, Type 0, BuildingBlock: MUDLON_clean_sbu_0, # of connection points: 4
#     Node 4, Type 0, BuildingBlock: MUDLON_clean_sbu_0, # of connection points: 4
#     Node 5, Type 0, BuildingBlock: MUDLON_clean_sbu_0, # of connection points: 4
#     Node 6, Type 0, BuildingBlock: MUDLON_clean_sbu_0, # of connection points: 4
#     Node 7, Type 0, BuildingBlock: MUDLON_clean_sbu_0, # of connection points: 4
#     Node 8, Type 0, BuildingBlock: MUDLON_clean_sbu_0, # of connection points: 4
#     Node 9, Type 0, BuildingBlock: MUDLON_clean_sbu_0, # of connection points: 4
#     Node 10, Type 0, BuildingBlock: MUDLON_clean_sbu_0, # of connection points: 4
#     Node 11, Type 0, BuildingBlock: MUDLON_clean_sbu_0, # of connection points: 4
#     Node 12, Type 0, BuildingBlock: MUDLON_clean_sbu_0, # of connection points: 4
#     Node 13, Type 0, BuildingBlock: MUDLON_clean_sbu_0, # of connection points: 4
#     Node 14, Type 0, BuildingBlock: MUDLON_clean_sbu_0, # of connection points: 4
#     Node 15, Type 0, BuildingBlock: MUDLON_clean_sbu_0, # of connection points: 4
#     Node 16, Type 0, BuildingBlock: MUDLON_clean_sbu_0, # of connection points: 4
#     Node 17, Type 0, BuildingBlock: MUDLON_clean_sbu_0, # of connection points: 4
#     Node 18, Type 0, BuildingBlock: MUDLON_clean_sbu_0, # of connection points: 4
#     Node 19, Type 0, BuildingBlock: MUDLON_clean_sbu_0, # of connection points: 4
#     Node 20, Type 0, BuildingBlock: MUDLON_clean_sbu_0, # of connection points: 4
#     Node 21, Type 0, BuildingBlock: MUDLON_clean_sbu_0, # of connection points: 4
#     Node 22, Type 0, BuildingBlock: MUDLON_clean_sbu_0, # of connection points: 4
#     Node 23, Type 0, BuildingBlock: MUDLON_clean_sbu_0, # of connection points: 4
#     Node 24, Type 0, BuildingBlock: MUDLON_clean_sbu_0, # of connection points: 4
#     Node 25, Type 0, BuildingBlock: MUDLON_clean_sbu_0, # of connection points: 4
#     Node 26, Type 0, BuildingBlock: MUDLON_clean_sbu_0, # of connection points: 4
#     Node 27, Type 0, BuildingBlock: MUDLON_clean_sbu_0, # of connection points: 4
#     Node 28, Type 0, BuildingBlock: MUDLON_clean_sbu_0, # of connection points: 4
#     Node 29, Type 0, BuildingBlock: MUDLON_clean_sbu_0, # of connection points: 4
#     Node 30, Type 0, BuildingBlock: MUDLON_clean_sbu_0, # of connection points: 4
#     Node 31, Type 0, BuildingBlock: MUDLON_clean_sbu_0, # of connection points: 4
#     Node 32, Type 0, BuildingBlock: MUDLON_clean_sbu_0, # of connection points: 4
#     Node 33, Type 0, BuildingBlock: MUDLON_clean_sbu_0, # of connection points: 4
#     Node 34, Type 0, BuildingBlock: MUDLON_clean_sbu_0, # of connection points: 4
#     Node 35, Type 0, BuildingBlock: MUDLON_clean_sbu_0, # of connection points: 4
#     Edge 36, Type (0, 0), BuildingBlock: KIFKEQ_clean_linker_1, # of connection points: 2
#     Edge 37, Type (0, 0), BuildingBlock: KIFKEQ_clean_linker_1, # of connection points: 2
#     Edge 38, Type (0, 0), BuildingBlock: KIFKEQ_clean_linker_1, # of connection points: 2
#     Edge 39, Type (0, 0), BuildingBlock: KIFKEQ_clean_linker_1, # of connection points: 2
#     Edge 40, Type (0, 0), BuildingBlock: KIFKEQ_clean_linker_1, # of connection points: 2
#     Edge 41, Type (0, 0), BuildingBlock: KIFKEQ_clean_linker_1, # of connection points: 2
#     Edge 42, Type (0, 0), BuildingBlock: KIFKEQ_clean_linker_1, # of connection points: 2
#     Edge 43, Type (0, 0), BuildingBlock: KIFKEQ_clean_linker_1, # of connection points: 2
#     Edge 44, Type (0, 0), BuildingBlock: KIFKEQ_clean_linker_1, # of connection points: 2
#     Edge 45, Type (0, 0), BuildingBlock: KIFKEQ_clean_linker_1, # of connection points: 2
#     Edge 46, Type (0, 0), BuildingBlock: KIFKEQ_clean_linker_1, # of connection points: 2
#     Edge 47, Type (0, 0), BuildingBlock: KIFKEQ_clean_linker_1, # of connection points: 2
#     Edge 48, Type (0, 0), BuildingBlock: KIFKEQ_clean_linker_1, # of connection points: 2
#     Edge 49, Type (0, 0), BuildingBlock: KIFKEQ_clean_linker_1, # of connection points: 2
#     Edge 50, Type (0, 0), BuildingBlock: KIFKEQ_clean_linker_1, # of connection points: 2
#     Edge 51, Type (0, 0), BuildingBlock: KIFKEQ_clean_linker_1, # of connection points: 2
#     Edge 52, Type (0, 0), BuildingBlock: KIFKEQ_clean_linker_1, # of connection points: 2
#     Edge 53, Type (0, 0), BuildingBlock: KIFKEQ_clean_linker_1, # of connection points: 2
#     Edge 54, Type (0, 0), BuildingBlock: KIFKEQ_clean_linker_1, # of connection points: 2
#     Edge 55, Type (0, 0), BuildingBlock: KIFKEQ_clean_linker_1, # of connection points: 2
#     Edge 56, Type (0, 0), BuildingBlock: KIFKEQ_clean_linker_1, # of connection points: 2
#     Edge 57, Type (0, 0), BuildingBlock: KIFKEQ_clean_linker_1, # of connection points: 2
#     Edge 58, Type (0, 0), BuildingBlock: KIFKEQ_clean_linker_1, # of connection points: 2
#     Edge 59, Type (0, 0), BuildingBlock: KIFKEQ_clean_linker_1, # of connection points: 2
#     Edge 60, Type (0, 0), BuildingBlock: KIFKEQ_clean_linker_1, # of connection points: 2
#     Edge 61, Type (0, 0), BuildingBlock: KIFKEQ_clean_linker_1, # of connection points: 2
#     Edge 62, Type (0, 0), BuildingBlock: KIFKEQ_clean_linker_1, # of connection points: 2
#     Edge 63, Type (0, 0), BuildingBlock: KIFKEQ_clean_linker_1, # of connection points: 2
#     Edge 64, Type (0, 0), BuildingBlock: KIFKEQ_clean_linker_1, # of connection points: 2
#     Edge 65, Type (0, 0), BuildingBlock: KIFKEQ_clean_linker_1, # of connection points: 2
#     Edge 66, Type (0, 0), BuildingBlock: KIFKEQ_clean_linker_1, # of connection points: 2
#     Edge 67, Type (0, 0), BuildingBlock: KIFKEQ_clean_linker_1, # of connection points: 2
#     Edge 68, Type (0, 0), BuildingBlock: KIFKEQ_clean_linker_1, # of connection points: 2
#     Edge 69, Type (0, 0), BuildingBlock: KIFKEQ_clean_linker_1, # of connection points: 2
#     Edge 70, Type (0, 0), BuildingBlock: KIFKEQ_clean_linker_1, # of connection points: 2
#     Edge 71, Type (0, 0), BuildingBlock: KIFKEQ_clean_linker_1, # of connection points: 2
#     Edge 72, Type (0, 0), BuildingBlock: KIFKEQ_clean_linker_1, # of connection points: 2
#     Edge 73, Type (0, 0), BuildingBlock: KIFKEQ_clean_linker_1, # of connection points: 2
#     Edge 74, Type (0, 0), BuildingBlock: KIFKEQ_clean_linker_1, # of connection points: 2
#     Edge 75, Type (0, 0), BuildingBlock: KIFKEQ_clean_linker_1, # of connection points: 2
#     Edge 76, Type (0, 0), BuildingBlock: KIFKEQ_clean_linker_1, # of connection points: 2
#     Edge 77, Type (0, 0), BuildingBlock: KIFKEQ_clean_linker_1, # of connection points: 2
#     Edge 78, Type (0, 0), BuildingBlock: KIFKEQ_clean_linker_1, # of connection points: 2
#     Edge 79, Type (0, 0), BuildingBlock: KIFKEQ_clean_linker_1, # of connection points: 2
#     Edge 80, Type (0, 0), BuildingBlock: KIFKEQ_clean_linker_1, # of connection points: 2
#     Edge 81, Type (0, 0), BuildingBlock: KIFKEQ_clean_linker_1, # of connection points: 2
#     Edge 82, Type (0, 0), BuildingBlock: KIFKEQ_clean_linker_1, # of connection points: 2
#     Edge 83, Type (0, 0), BuildingBlock: KIFKEQ_clean_linker_1, # of connection points: 2
#     Edge 84, Type (0, 0), BuildingBlock: KIFKEQ_clean_linker_1, # of connection points: 2
#     Edge 85, Type (0, 0), BuildingBlock: KIFKEQ_clean_linker_1, # of connection points: 2
#     Edge 86, Type (0, 0), BuildingBlock: KIFKEQ_clean_linker_1, # of connection points: 2
#     Edge 87, Type (0, 0), BuildingBlock: KIFKEQ_clean_linker_1, # of connection points: 2
#     Edge 88, Type (0, 0), BuildingBlock: KIFKEQ_clean_linker_1, # of connection points: 2
#     Edge 89, Type (0, 0), BuildingBlock: KIFKEQ_clean_linker_1, # of connection points: 2
#     Edge 90, Type (0, 0), BuildingBlock: KIFKEQ_clean_linker_1, # of connection points: 2
#     Edge 91, Type (0, 0), BuildingBlock: KIFKEQ_clean_linker_1, # of connection points: 2
#     Edge 92, Type (0, 0), BuildingBlock: KIFKEQ_clean_linker_1, # of connection points: 2
#     Edge 93, Type (0, 0), BuildingBlock: KIFKEQ_clean_linker_1, # of connection points: 2
#     Edge 94, Type (0, 0), BuildingBlock: KIFKEQ_clean_linker_1, # of connection points: 2
#     Edge 95, Type (0, 0), BuildingBlock: KIFKEQ_clean_linker_1, # of connection points: 2
#     Edge 96, Type (0, 0), BuildingBlock: KIFKEQ_clean_linker_1, # of connection points: 2
#     Edge 97, Type (0, 0), BuildingBlock: KIFKEQ_clean_linker_1, # of connection points: 2
#     Edge 98, Type (0, 0), BuildingBlock: KIFKEQ_clean_linker_1, # of connection points: 2
#     Edge 99, Type (0, 0), BuildingBlock: KIFKEQ_clean_linker_1, # of connection points: 2
#     Edge 100, Type (0, 0), BuildingBlock: KIFKEQ_clean_linker_1, # of connection points: 2
#     Edge 101, Type (0, 0), BuildingBlock: KIFKEQ_clean_linker_1, # of connection points: 2
#     Edge 102, Type (0, 0), BuildingBlock: KIFKEQ_clean_linker_1, # of connection points: 2
#     Edge 103, Type (0, 0), BuildingBlock: KIFKEQ_clean_linker_1, # of connection points: 2
#     Edge 104, Type (0, 0), BuildingBlock: KIFKEQ_clean_linker_1, # of connection points: 2
#     Edge 105, Type (0, 0), BuildingBlock: KIFKEQ_clean_linker_1, # of connection points: 2
#     Edge 106, Type (0, 0), BuildingBlock: KIFKEQ_clean_linker_1, # of connection points: 2
#     Edge 107, Type (0, 0), BuildingBlock: KIFKEQ_clean_linker_1, # of connection points: 2
# Relax obj value: 0.027
# Max RMSD: 0.173
# Mean RMSD: 0.173
data_MOF--net-uns--node1-MUDLON_clean_sbu_0--edge1-KIFKEQ_clean_linker_1
_symmetry_space_group_name_H-M    P1
_symmetry_Int_Tables_number       1
_symmetry_cell_setting            triclinic
loop_
_symmetry_equiv_pos_as_xyz
'x, y, z'
_cell_length_a     59.92306
_cell_length_b     59.960982
_cell_length_c     58.799099
_cell_angle_alpha  89.832656
_cell_angle_beta   90.01225
_cell_angle_gamma 119.95618
loop_
_atom_site_label
_atom_site_type_symbol
_atom_site_fract_x
_atom_site_fract_y
_atom_site_fract_z
_atom_type_partial_charge
Mg0 Mg 0.28003 0.19343 0.06707 0.0
C1 C 0.31357 0.2452 0.08266 0.0
O2 O 0.29659 0.23306 0.09884 0.0
C3 C 0.26129 0.14201 0.04618 0.0
O4 O 0.24777 0.13694 0.06501 0.0
C5 C 0.31079 0.185 0.10093 0.0
O6 O 0.32489 0.19292 0.08238 0.0
O7 O 0.28804 0.18168 0.10016 0.0
O8 O 0.31214 0.23285 0.06459 0.0
O9 O 0.24634 0.19878 0.06309 0.0
C10 C 0.23221 0.18941 0.04553 0.0
O11 O 0.23647 0.17449 0.03208 0.0
O12 O 0.2779 0.16539 0.04183 0.0
Mg13 Mg 0.82867 0.08894 0.0697 0.0
C14 C 0.80565 0.03634 0.05053 0.0
O15 O 0.79301 0.04634 0.04059 0.0
C16 C 0.84419 0.12971 0.10389 0.0
O17 O 0.8417 0.13995 0.08494 0.0
C18 C 0.87293 0.10909 0.03605 0.0
O19 O 0.87024 0.08652 0.0411 0.0
O20 O 0.85718 0.11519 0.04469 0.0
O21 O 0.82306 0.05003 0.06493 0.0
O22 O 0.78962 0.0832 0.06843 0.0
C23 C 0.77711 0.07223 0.0865 0.0
O24 O 0.78892 0.06676 0.10253 0.0
O25 O 0.8413 0.10716 0.10309 0.0
Mg26 Mg 0.93255 0.74446 0.06255 0.0
C27 C 0.98486 0.77421 0.04258 0.0
O28 O 0.97442 0.75175 0.0324 0.0
C29 C 0.89421 0.71483 0.09714 0.0
O30 O 0.8868 0.7012 0.07836 0.0
C31 C 0.91032 0.75696 0.01928 0.0
O32 O 0.93273 0.76327 0.01015 0.0
O33 O 0.9053 0.74764 0.03936 0.0
O34 O 0.97146 0.77793 0.05737 0.0
O35 O 0.93888 0.71151 0.06041 0.0
C36 C 0.95087 0.71082 0.0781 0.0
O37 O 0.95693 0.72869 0.09359 0.0
O38 O 0.91435 0.73708 0.09632 0.0
Mg39 Mg 0.20757 0.28343 0.45002 0.0
C40 C 0.21027 0.23946 0.47161 0.0
O41 O 0.20022 0.24671 0.48782 0.0
C42 C 0.20478 0.31606 0.41357 0.0
O43 O 0.21782 0.33214 0.42998 0.0
C44 C 0.16378 0.28719 0.47503 0.0
O45 O 0.16745 0.30377 0.45879 0.0
O46 O 0.1783 0.27732 0.4759 0.0
O47 O 0.2143 0.25048 0.45224 0.0
O48 O 0.24634 0.31676 0.45331 0.0
C49 C 0.26581 0.3153 0.45988 0.0
O50 O 0.26225 0.29409 0.46973 0.0
O51 O 0.19608 0.29203 0.41684 0.0
Mg52 Mg 0.7504 0.93005 0.44932 0.0
C53 C 0.78155 0.98188 0.46944 0.0
O54 O 0.75906 0.97212 0.4796 0.0
C55 C 0.71983 0.89423 0.4135 0.0
O56 O 0.7045 0.88855 0.43119 0.0
C57 C 0.76106 0.90677 0.49271 0.0
O58 O 0.76742 0.92908 0.50196 0.0
O59 O 0.75235 0.9022 0.47246 0.0
O60 O 0.7847 0.96822 0.45457 0.0
O61 O 0.7181 0.93731 0.45181 0.0
C62 C 0.71787 0.9501 0.43453 0.0
O63 O 0.73597 0.95662 0.4191 0.0
O64 O 0.74322 0.91214 0.41556 0.0
Mg65 Mg 0.09604 0.82416 0.4506 0.0
C66 C 0.08452 0.77343 0.43426 0.0
O67 O 0.0823 0.7854 0.41641 0.0
C68 C 0.11583 0.87108 0.4792 0.0
O69 O 0.09541 0.86936 0.46923 0.0
C70 C 0.13776 0.84089 0.41662 0.0
O71 O 0.14843 0.83961 0.43574 0.0
O72 O 0.11482 0.83704 0.41728 0.0
O73 O 0.09123 0.78549 0.45312 0.0
O74 O 0.05709 0.81915 0.45501 0.0
C75 C 0.03734 0.79683 0.45746 0.0
O76 O 0.04 0.77652 0.45513 0.0
O77 O 0.1214 0.8535 0.47534 0.0
Mg78 Mg 0.75048 0.82598 0.94678 0.0
C79 C 0.78748 0.80414 0.94334 0.0
O80 O 0.76831 0.78587 0.93183 0.0
C81 C 0.7449 0.84053 0.8955 0.0
O82 O 0.75933 0.8309 0.88899 0.0
C83 C 0.77526 0.87145 0.97789 0.0
O84 O 0.795 0.87342 0.96646 0.0
O85 O 0.75302 0.85212 0.9741 0.0
O86 O 0.78612 0.82384 0.94938 0.0
O87 O 0.71911 0.78591 0.9501 0.0
C88 C 0.71 0.7739 0.93149 0.0
O89 O 0.71875 0.78655 0.91231 0.0
O90 O 0.7407 0.84141 0.91662 0.0
Mg91 Mg 0.20243 0.92966 0.94542 0.0
C92 C 0.25364 0.93811 0.93001 0.0
O93 O 0.24136 0.93488 0.91073 0.0
C94 C 0.15483 0.90755 0.97445 0.0
O95 O 0.15495 0.92741 0.96482 0.0
C96 C 0.1846 0.88771 0.91169 0.0
O97 O 0.18514 0.87682 0.93095 0.0
O98 O 0.18951 0.91101 0.91212 0.0
O99 O 0.24167 0.93577 0.94861 0.0
O100 O 0.20649 0.96796 0.95062 0.0
C101 C 0.22876 0.98802 0.95158 0.0
O102 O 0.249 0.98596 0.94653 0.0
O103 O 0.17345 0.90357 0.97021 0.0
Mg104 Mg 0.09406 0.27392 0.94704 0.0
C105 C 0.04534 0.24104 0.97076 0.0
O106 O 0.05876 0.261 0.98399 0.0
C107 C 0.10755 0.29052 0.89682 0.0
O108 O 0.0864 0.29184 0.89816 0.0
C109 C 0.12805 0.25531 0.96406 0.0
O110 O 0.12193 0.24647 0.94322 0.0
O111 O 0.11929 0.26936 0.97163 0.0
O112 O 0.05558 0.23983 0.95211 0.0
O113 O 0.08749 0.3067 0.95079 0.0
C114 C 0.06687 0.30289 0.94104 0.0
O115 O 0.05138 0.28012 0.93236 0.0
O116 O 0.11388 0.28145 0.91369 0.0
Mg117 Mg 0.82886 0.74635 0.56711 0.0
C118 C 0.8065 0.7826 0.56821 0.0
O119 O 0.78882 0.76391 0.58069 0.0
C120 C 0.85458 0.73187 0.60419 0.0
O121 O 0.86838 0.73253 0.58658 0.0
C122 C 0.87337 0.76912 0.53325 0.0
O123 O 0.86998 0.78895 0.5361 0.0
O124 O 0.85821 0.74805 0.5434 0.0
O125 O 0.82609 0.7812 0.56185 0.0
O126 O 0.78937 0.71527 0.56146 0.0
C127 C 0.77872 0.69627 0.57518 0.0
O128 O 0.79292 0.69347 0.59068 0.0
O129 O 0.83789 0.73893 0.60159 0.0
Mg130 Mg 0.28336 0.09134 0.56622 0.0
C131 C 0.31685 0.06955 0.55012 0.0
O132 O 0.29611 0.05452 0.5383 0.0
C133 C 0.2877 0.13494 0.53201 0.0
O134 O 0.31275 0.14442 0.53151 0.0
C135 C 0.31295 0.1304 0.60058 0.0
O136 O 0.32594 0.13918 0.58152 0.0
O137 O 0.29168 0.10914 0.6 0.0
O138 O 0.31795 0.08859 0.56061 0.0
O139 O 0.25119 0.05139 0.56329 0.0
C140 C 0.23941 0.04567 0.54427 0.0
O141 O 0.24617 0.06394 0.52897 0.0
O142 O 0.27369 0.11491 0.54388 0.0
Mg143 Mg 0.94079 0.19838 0.56502 0.0
C144 C 0.99984 0.22554 0.56612 0.0
O145 O 0.99659 0.24208 0.57825 0.0
C146 C 0.92268 0.20444 0.61158 0.0
O147 O 0.93736 0.2287 0.60578 0.0
C148 C 0.91881 0.14993 0.53667 0.0
O149 O 0.93906 0.15022 0.5456 0.0
O150 O 0.9148 0.16843 0.54117 0.0
O151 O 0.98002 0.20453 0.56023 0.0
O152 O 0.94438 0.23607 0.5596 0.0
C153 C 0.96129 0.25315 0.54665 0.0
O154 O 0.97421 0.24664 0.53273 0.0
O155 O 0.92237 0.18713 0.59879 0.0
Mg156 Mg 0.94721 0.53088 0.40147 0.0
C157 C 0.98275 0.5818 0.41877 0.0
O158 O 0.96527 0.57002 0.43466 0.0
C159 C 0.92291 0.48455 0.37108 0.0
O160 O 0.9027 0.48457 0.37971 0.0
C161 C 0.97271 0.51486 0.43508 0.0
O162 O 0.98496 0.51727 0.41588 0.0
O163 O 0.95306 0.51783 0.43471 0.0
O164 O 0.98094 0.56956 0.40052 0.0
O165 O 0.91328 0.53579 0.39647 0.0
C166 C 0.91708 0.55708 0.38809 0.0
O167 O 0.94083 0.57532 0.38401 0.0
O168 O 0.94526 0.5028 0.37641 0.0
Mg169 Mg 0.49717 0.42209 0.39967 0.0
C170 C 0.49353 0.37723 0.37414 0.0
O171 O 0.50299 0.3958 0.35894 0.0
C172 C 0.51112 0.46077 0.43524 0.0
O173 O 0.51134 0.47233 0.41614 0.0
C174 C 0.53003 0.45617 0.35799 0.0
O175 O 0.50792 0.44809 0.34756 0.0
O176 O 0.5301 0.44883 0.37833 0.0
O177 O 0.48953 0.38245 0.39422 0.0
O178 O 0.46027 0.42082 0.39643 0.0
C179 C 0.44018 0.40097 0.3892 0.0
O180 O 0.44262 0.38303 0.37865 0.0
O181 O 0.50675 0.43767 0.43423 0.0
Mg182 Mg 0.60314 0.0789 0.40326 0.0
C183 C 0.65568 0.10828 0.38417 0.0
O184 O 0.6443 0.08691 0.37229 0.0
C185 C 0.56068 0.06461 0.43897 0.0
O186 O 0.54793 0.06542 0.42113 0.0
C187 C 0.55917 0.07003 0.36877 0.0
O188 O 0.54879 0.04554 0.37406 0.0
O189 O 0.5806 0.08616 0.37768 0.0
O190 O 0.64287 0.11131 0.4 0.0
O191 O 0.60818 0.04532 0.40005 0.0
C192 C 0.61834 0.0426 0.41815 0.0
O193 O 0.62316 0.05888 0.43487 0.0
O194 O 0.58447 0.07169 0.43685 0.0
Mg195 Mg 0.86861 0.60962 0.7822 0.0
C196 C 0.89124 0.57772 0.79737 0.0
O197 O 0.90593 0.60013 0.80698 0.0
C198 C 0.86652 0.64336 0.74668 0.0
O199 O 0.87923 0.65872 0.76362 0.0
C200 C 0.82409 0.61286 0.80423 0.0
O201 O 0.82663 0.62578 0.78542 0.0
O202 O 0.8401 0.60522 0.80822 0.0
O203 O 0.87257 0.57493 0.78488 0.0
O204 O 0.90859 0.64111 0.78494 0.0
C205 C 0.92117 0.64168 0.76723 0.0
O206 O 0.90896 0.62447 0.75132 0.0
O207 O 0.85758 0.61919 0.74922 0.0
Mg208 Mg 0.41467 0.263 0.78397 0.0
C209 C 0.44463 0.31475 0.805 0.0
O210 O 0.42214 0.30439 0.81522 0.0
C211 C 0.39637 0.22303 0.74752 0.0
O212 O 0.39004 0.20912 0.7662 0.0
C213 C 0.42767 0.24034 0.82636 0.0
O214 O 0.43396 0.26262 0.83562 0.0
O215 O 0.41824 0.23547 0.80637 0.0
O216 O 0.44816 0.30159 0.78987 0.0
O217 O 0.38174 0.26893 0.78862 0.0
C218 C 0.36121 0.25735 0.77688 0.0
O219 O 0.35732 0.23767 0.76431 0.0
O220 O 0.40902 0.2475 0.74929 0.0
Mg221 Mg 0.76242 0.15631 0.77823 0.0
C222 C 0.7341 0.1004 0.76926 0.0
O223 O 0.71949 0.10887 0.76061 0.0
C224 C 0.78298 0.20105 0.81025 0.0
O225 O 0.76326 0.20144 0.8009 0.0
C226 C 0.78226 0.15755 0.72962 0.0
O227 O 0.76349 0.13353 0.72975 0.0
O228 O 0.78453 0.17195 0.74643 0.0
O229 O 0.75491 0.11643 0.77921 0.0
O230 O 0.72413 0.15278 0.78277 0.0
C231 C 0.71125 0.13761 0.79903 0.0
O232 O 0.7219 0.12673 0.81082 0.0
O233 O 0.7873 0.18295 0.80482 0.0
Mg234 Mg 0.41782 0.15495 0.28148 0.0
C235 C 0.45052 0.12822 0.28261 0.0
O236 O 0.43089 0.11059 0.27107 0.0
C237 C 0.39409 0.17265 0.24731 0.0
O238 O 0.38209 0.17137 0.2664 0.0
C239 C 0.44466 0.20344 0.30746 0.0
O240 O 0.46279 0.20259 0.29557 0.0
O241 O 0.42173 0.18455 0.30587 0.0
O242 O 0.45103 0.14919 0.28749 0.0
O243 O 0.3839 0.11625 0.28389 0.0
C244 C 0.37763 0.10437 0.26493 0.0
O245 O 0.39065 0.11661 0.24667 0.0
O246 O 0.41285 0.16829 0.248 0.0
Mg247 Mg 0.87 0.26441 0.28467 0.0
C248 C 0.92117 0.28139 0.26686 0.0
O249 O 0.9084 0.28532 0.25067 0.0
C250 C 0.82472 0.2431 0.31656 0.0
O251 O 0.82477 0.26346 0.30818 0.0
C252 C 0.86025 0.22508 0.25086 0.0
O253 O 0.86906 0.21915 0.26899 0.0
O254 O 0.85679 0.24439 0.25197 0.0
O255 O 0.90964 0.27169 0.2856 0.0
O256 O 0.87473 0.30303 0.2888 0.0
C257 C 0.89091 0.31616 0.30426 0.0
O258 O 0.90232 0.30555 0.31531 0.0
O259 O 0.84263 0.23871 0.31056 0.0
Mg260 Mg 0.75949 0.60767 0.27893 0.0
C261 C 0.70097 0.5755 0.28125 0.0
O262 O 0.70363 0.59677 0.27225 0.0
C263 C 0.80118 0.62915 0.244 0.0
O264 O 0.81374 0.63839 0.26313 0.0
C265 C 0.7801 0.58629 0.31592 0.0
O266 O 0.75589 0.56785 0.31623 0.0
O267 O 0.78669 0.60571 0.30297 0.0
O268 O 0.72107 0.57366 0.28435 0.0
O269 O 0.75294 0.64036 0.28332 0.0
C270 C 0.75691 0.65563 0.26669 0.0
O271 O 0.76786 0.65341 0.24819 0.0
O272 O 0.77699 0.61334 0.24497 0.0
Mg273 Mg 0.49799 0.08118 0.90014 0.0
C274 C 0.47625 0.11806 0.90122 0.0
O275 O 0.45983 0.10075 0.9155 0.0
C276 C 0.5155 0.05755 0.93454 0.0
O277 O 0.51507 0.04605 0.91542 0.0
C278 C 0.53747 0.0986 0.8607 0.0
O279 O 0.5288 0.11441 0.85631 0.0
O280 O 0.527 0.08204 0.87661 0.0
O281 O 0.49488 0.11566 0.8937 0.0
O282 O 0.45842 0.04864 0.89742 0.0
C283 C 0.44653 0.03982 0.91622 0.0
O284 O 0.4588 0.04984 0.93529 0.0
O285 O 0.5105 0.07587 0.93384 0.0
Mg286 Mg 0.94621 0.42079 0.90048 0.0
C287 C 0.99697 0.42123 0.91003 0.0
O288 O 0.99955 0.43755 0.92605 0.0
C289 C 0.9252 0.44136 0.86287 0.0
O290 O 0.90771 0.4169 0.86121 0.0
C291 C 0.96682 0.4621 0.93565 0.0
O292 O 0.97448 0.47517 0.91652 0.0
O293 O 0.95244 0.43769 0.93463 0.0
O294 O 0.97848 0.41378 0.89591 0.0
O295 O 0.91261 0.38207 0.89525 0.0
C296 C 0.91578 0.3696 0.8792 0.0
O297 O 0.93756 0.38096 0.86781 0.0
O298 O 0.94384 0.44803 0.87674 0.0
Mg299 Mg 0.60301 0.52904 0.90408 0.0
C300 C 0.6487 0.54256 0.87699 0.0
O301 O 0.6318 0.54354 0.86338 0.0
C302 C 0.5626 0.5139 0.9386 0.0
O303 O 0.55203 0.51529 0.91946 0.0
C304 C 0.58005 0.48168 0.87501 0.0
O305 O 0.59986 0.48138 0.88427 0.0
O306 O 0.57639 0.5004 0.87961 0.0
O307 O 0.64196 0.53546 0.89752 0.0
O308 O 0.60924 0.56806 0.90199 0.0
C309 C 0.62358 0.58134 0.91841 0.0
O310 O 0.63151 0.57001 0.93286 0.0
O311 O 0.58545 0.51748 0.93793 0.0
Mg312 Mg 0.61782 0.86548 0.72935 0.0
C313 C 0.67084 0.91467 0.73192 0.0
O314 O 0.67685 0.90024 0.74441 0.0
C315 C 0.59191 0.81294 0.71075 0.0
O316 O 0.578 0.81201 0.72839 0.0
C317 C 0.63629 0.86966 0.77937 0.0
O318 O 0.63653 0.89169 0.77887 0.0
O319 O 0.62753 0.85476 0.76224 0.0
O320 O 0.64932 0.90421 0.72155 0.0
O321 O 0.58312 0.8693 0.72688 0.0
C322 C 0.58492 0.8914 0.72802 0.0
O323 O 0.60711 0.91132 0.73378 0.0
O324 O 0.61162 0.83449 0.70574 0.0
Mg325 Mg 0.16483 0.75295 0.73235 0.0
C326 C 0.14262 0.70057 0.71333 0.0
O327 O 0.13121 0.71122 0.70234 0.0
C328 C 0.17371 0.79219 0.76599 0.0
O329 O 0.16603 0.79851 0.74735 0.0
C330 C 0.20548 0.77094 0.69486 0.0
O331 O 0.1994 0.74669 0.69639 0.0
O332 O 0.19315 0.77879 0.70701 0.0
O333 O 0.15923 0.71386 0.72847 0.0
O334 O 0.12554 0.74641 0.73044 0.0
C335 C 0.11308 0.7353 0.74848 0.0
O336 O 0.12504 0.73001 0.7645 0.0
O337 O 0.1768 0.77262 0.76535 0.0
Mg338 Mg 0.27116 0.40553 0.73189 0.0
C339 C 0.3298 0.44032 0.73057 0.0
O340 O 0.32869 0.41889 0.73733 0.0
C341 C 0.2262 0.38223 0.76319 0.0
O342 O 0.21592 0.3761 0.74281 0.0
C343 C 0.24959 0.4314 0.70255 0.0
O344 O 0.26839 0.45094 0.71328 0.0
O345 O 0.24617 0.40891 0.70621 0.0
O346 O 0.3089 0.44095 0.72883 0.0
O347 O 0.28007 0.37456 0.72732 0.0
C348 C 0.26758 0.35283 0.73728 0.0
O349 O 0.24602 0.34696 0.74783 0.0
O350 O 0.25057 0.39669 0.76468 0.0
Mg351 Mg 0.5328 0.9404 0.11423 0.0
C352 C 0.52902 0.88925 0.12961 0.0
O353 O 0.50833 0.886 0.14025 0.0
C354 C 0.52559 0.97222 0.08047 0.0
O355 O 0.53208 0.98557 0.09942 0.0
C356 C 0.50015 0.93196 0.15881 0.0
O357 O 0.52066 0.93548 0.16996 0.0
O358 O 0.50106 0.93386 0.1372 0.0
O359 O 0.54094 0.90853 0.11636 0.0
O360 O 0.57145 0.97346 0.11906 0.0
C361 C 0.58497 0.97552 0.10157 0.0
O362 O 0.574 0.95876 0.08508 0.0
O363 O 0.52295 0.94974 0.0809 0.0
Mg364 Mg 0.07996 0.59633 0.11546 0.0
C365 C 0.11056 0.64852 0.13533 0.0
O366 O 0.08777 0.639 0.14488 0.0
C367 C 0.05149 0.55719 0.0814 0.0
O368 O 0.03793 0.5495 0.10027 0.0
C369 C 0.09083 0.57351 0.15916 0.0
O370 O 0.09727 0.59592 0.16824 0.0
O371 O 0.08198 0.56874 0.13896 0.0
O372 O 0.11404 0.63466 0.12091 0.0
O373 O 0.04726 0.6031 0.11707 0.0
C374 C 0.04635 0.61456 0.09908 0.0
O375 O 0.06392 0.62001 0.08334 0.0
O376 O 0.07324 0.57795 0.08195 0.0
Mg377 Mg 0.42675 0.48745 0.11932 0.0
C378 C 0.40992 0.43638 0.10252 0.0
O379 O 0.40417 0.44844 0.08693 0.0
C380 C 0.44808 0.53277 0.15117 0.0
O381 O 0.42707 0.53211 0.14381 0.0
C382 C 0.46558 0.49803 0.08497 0.0
O383 O 0.47238 0.49052 0.10343 0.0
O384 O 0.44554 0.50034 0.08594 0.0
O385 O 0.42116 0.44858 0.12056 0.0
O386 O 0.38723 0.47926 0.12597 0.0
C387 C 0.37479 0.4904 0.12006 0.0
O388 O 0.38581 0.5107 0.1067 0.0
O389 O 0.45287 0.51536 0.14452 0.0
Mg390 Mg 0.08673 0.48863 0.6121 0.0
C391 C 0.11678 0.46647 0.63124 0.0
O392 O 0.09416 0.45423 0.64126 0.0
C393 C 0.0575 0.50047 0.57967 0.0
O394 O 0.0432 0.49135 0.59803 0.0
C395 C 0.11002 0.53309 0.64422 0.0
O396 O 0.13026 0.53389 0.63474 0.0
O397 O 0.08773 0.51471 0.63888 0.0
O398 O 0.12059 0.48375 0.61655 0.0
O399 O 0.05469 0.44884 0.61058 0.0
C400 C 0.05431 0.43944 0.59106 0.0
O401 O 0.07203 0.45401 0.57618 0.0
O402 O 0.08021 0.50364 0.58012 0.0
Mg403 Mg 0.5355 0.59488 0.61612 0.0
C404 C 0.58688 0.61241 0.59866 0.0
O405 O 0.57413 0.61625 0.58239 0.0
C406 C 0.49067 0.57323 0.64877 0.0
O407 O 0.49083 0.59395 0.64122 0.0
C408 C 0.52539 0.55558 0.5822 0.0
O409 O 0.53365 0.54926 0.60048 0.0
O410 O 0.52253 0.57527 0.5832 0.0
O411 O 0.57523 0.60255 0.61733 0.0
O412 O 0.54033 0.63339 0.62143 0.0
C413 C 0.54941 0.64192 0.64114 0.0
O414 O 0.55381 0.62708 0.65472 0.0
O415 O 0.50812 0.56861 0.64182 0.0
Mg416 Mg 0.42835 0.94494 0.6189 0.0
C417 C 0.37343 0.89309 0.61549 0.0
O418 O 0.37728 0.89194 0.59363 0.0
C419 C 0.46126 0.97564 0.58167 0.0
O420 O 0.46509 0.99144 0.59856 0.0
C421 C 0.45179 0.92339 0.6511 0.0
O422 O 0.43009 0.90293 0.64519 0.0
O423 O 0.45664 0.94526 0.64328 0.0
O424 O 0.39085 0.91105 0.6274 0.0
O425 O 0.41808 0.97539 0.61923 0.0
C426 C 0.40066 0.96981 0.60427 0.0
O427 O 0.39225 0.94823 0.59296 0.0
O428 O 0.44587 0.95161 0.5848 0.0
Mg429 Mg 0.16226 0.41601 0.23412 0.0
C430 C 0.13814 0.45091 0.23517 0.0
O431 O 0.12035 0.43171 0.24714 0.0
C432 C 0.18811 0.40046 0.27018 0.0
O433 O 0.20041 0.39973 0.25196 0.0
C434 C 0.21069 0.44273 0.20665 0.0
O435 O 0.21062 0.46164 0.21782 0.0
O436 O 0.1919 0.41995 0.20965 0.0
O437 O 0.15827 0.45026 0.22927 0.0
O438 O 0.12311 0.38427 0.22842 0.0
C439 C 0.11269 0.36547 0.24236 0.0
O440 O 0.12701 0.36326 0.2581 0.0
O441 O 0.17224 0.40867 0.2683 0.0
Mg442 Mg 0.6129 0.75518 0.23346 0.0
C443 C 0.64994 0.74089 0.24907 0.0
O444 O 0.6346 0.73735 0.26635 0.0
C445 C 0.61265 0.80017 0.20735 0.0
O446 O 0.62788 0.81405 0.22394 0.0
C447 C 0.64381 0.79503 0.26751 0.0
O448 O 0.65944 0.80047 0.25009 0.0
O449 O 0.62084 0.77616 0.26582 0.0
O450 O 0.64614 0.74947 0.23046 0.0
O451 O 0.58036 0.71551 0.23178 0.0
C452 C 0.58306 0.70263 0.21584 0.0
O453 O 0.604 0.7141 0.2033 0.0
O454 O 0.60519 0.77621 0.20655 0.0
Mg455 Mg 0.27167 0.86012 0.23674 0.0
C456 C 0.33085 0.88313 0.23688 0.0
O457 O 0.33016 0.90134 0.24866 0.0
C458 C 0.23159 0.84937 0.27016 0.0
O459 O 0.22492 0.85654 0.25142 0.0
C460 C 0.24808 0.81321 0.20711 0.0
O461 O 0.26709 0.81192 0.21695 0.0
O462 O 0.24524 0.83249 0.21147 0.0
O463 O 0.30967 0.86323 0.23139 0.0
O464 O 0.2787 0.89969 0.23468 0.0
C465 C 0.28537 0.91165 0.2536 0.0
O466 O 0.28661 0.8993 0.27162 0.0
O467 O 0.25173 0.84723 0.26965 0.0
H468 H 0.36014 0.1956 0.10729 0.0
H469 H 0.28812 0.16812 0.14309 0.0
H470 H 0.38062 0.19331 0.14208 0.0
H471 H 0.30853 0.16494 0.17806 0.0
H472 H 0.35894 0.18838 0.24145 0.0
H473 H 0.33868 0.19071 0.20638 0.0
H474 H 0.38383 0.16539 0.16861 0.0
H475 H 0.4047 0.16384 0.2038 0.0
C476 C 0.34852 0.18876 0.12257 0.0
C477 C 0.3224 0.18206 0.12232 0.0
C478 C 0.36032 0.1873 0.14259 0.0
C479 C 0.34635 0.17893 0.16304 0.0
C480 C 0.32008 0.17187 0.16276 0.0
C481 C 0.30826 0.17349 0.14266 0.0
C482 C 0.36473 0.1835 0.22564 0.0
C483 C 0.38355 0.176 0.22547 0.0
C484 C 0.35286 0.18457 0.20549 0.0
C485 C 0.35932 0.17801 0.18453 0.0
C486 C 0.37848 0.17087 0.18433 0.0
C487 C 0.3905 0.16996 0.20452 0.0
H488 H 0.83799 0.1107 0.14748 0.0
H489 H 0.85783 0.18001 0.10967 0.0
H490 H 0.84027 0.13296 0.18287 0.0
H491 H 0.86097 0.20249 0.14492 0.0
H492 H 0.8406 0.22975 0.20979 0.0
H493 H 0.83629 0.20615 0.17466 0.0
H494 H 0.86876 0.1647 0.20834 0.0
H495 H 0.87212 0.18743 0.24333 0.0
C496 C 0.84322 0.13079 0.14674 0.0
C497 C 0.84775 0.14354 0.12572 0.0
C498 C 0.84456 0.14362 0.16706 0.0
C499 C 0.85067 0.16961 0.16688 0.0
C500 C 0.85566 0.1824 0.14581 0.0
C501 C 0.85412 0.16953 0.12555 0.0
C502 C 0.84662 0.21546 0.20968 0.0
C503 C 0.85664 0.2105 0.22943 0.0
C504 C 0.84435 0.20203 0.18949 0.0
C505 C 0.85222 0.18344 0.18852 0.0
C506 C 0.86206 0.17846 0.20839 0.0
C507 C 0.86414 0.1917 0.22852 0.0
H508 H 0.77997 0.62335 0.2014 0.0
H509 H 0.85271 0.66064 0.23689 0.0
H510 H 0.8019 0.64503 0.16627 0.0
H511 H 0.8747 0.68175 0.20179 0.0
H512 H 0.90375 0.73576 0.14029 0.0
H513 H 0.88085 0.71493 0.17548 0.0
H514 H 0.83046 0.64608 0.1378 0.0
H515 H 0.85264 0.66698 0.1029 0.0
C516 C 0.80067 0.63586 0.20165 0.0
C517 C 0.81453 0.64017 0.222 0.0
C518 C 0.81331 0.64834 0.18148 0.0
C519 C 0.84016 0.66537 0.1811 0.0
C520 C 0.854 0.66925 0.20142 0.0
C521 C 0.84137 0.65687 0.22156 0.0
C522 C 0.88766 0.71626 0.13955 0.0
C523 C 0.88008 0.70314 0.11871 0.0
C524 C 0.87461 0.7042 0.15975 0.0
C525 C 0.85373 0.6787 0.1596 0.0
C526 C 0.84611 0.66579 0.13867 0.0
C527 C 0.85903 0.67783 0.11857 0.0
H528 H 0.16507 0.29415 0.38232 0.0
H529 H 0.23798 0.36255 0.39556 0.0
H530 H 0.16021 0.31456 0.34762 0.0
H531 H 0.2334 0.38243 0.36103 0.0
H532 H 0.22823 0.39429 0.2835 0.0
H533 H 0.23139 0.37245 0.31747 0.0
H534 H 0.15622 0.35709 0.33909 0.0
H535 H 0.1532 0.37951 0.3052 0.0
C536 C 0.18012 0.31334 0.37771 0.0
C537 C 0.20188 0.32675 0.39167 0.0
C538 C 0.17726 0.32508 0.358 0.0
C539 C 0.19643 0.35012 0.35168 0.0
C540 C 0.21837 0.36314 0.36541 0.0
C541 C 0.22093 0.35172 0.38522 0.0
C542 C 0.21245 0.38647 0.29557 0.0
C543 C 0.19058 0.38886 0.29174 0.0
C544 C 0.21424 0.3739 0.31498 0.0
C545 C 0.19398 0.36291 0.33084 0.0
C546 C 0.17202 0.36517 0.32703 0.0
C547 C 0.17044 0.37826 0.30779 0.0
H548 H 0.68674 0.84199 0.2724 0.0
H549 H 0.62388 0.78208 0.31078 0.0
H550 H 0.70504 0.86621 0.3071 0.0
H551 H 0.64275 0.80578 0.34585 0.0
H552 H 0.66934 0.86486 0.40224 0.0
H553 H 0.65076 0.84176 0.36723 0.0
H554 H 0.72718 0.86802 0.34056 0.0
H555 H 0.74583 0.89223 0.37555 0.0
C556 C 0.67683 0.83392 0.28832 0.0
C557 C 0.65378 0.81009 0.2888 0.0
C558 C 0.68751 0.84775 0.30833 0.0
C559 C 0.67561 0.83802 0.32949 0.0
C560 C 0.65237 0.8142 0.32991 0.0
C561 C 0.6415 0.80049 0.3098 0.0
C562 C 0.68226 0.86575 0.38893 0.0
C563 C 0.70913 0.88038 0.39176 0.0
C564 C 0.67153 0.85228 0.36881 0.0
C565 C 0.68732 0.85272 0.35093 0.0
C566 C 0.71429 0.86743 0.35375 0.0
C567 C 0.72507 0.88124 0.37387 0.0
H568 H 0.18861 0.85663 0.41047 0.0
H569 H 0.11772 0.83054 0.37336 0.0
H570 H 0.21071 0.8579 0.37539 0.0
H571 H 0.13959 0.8309 0.33823 0.0
H572 H 0.19207 0.8589 0.2761 0.0
H573 H 0.16981 0.85755 0.3109 0.0
H574 H 0.21526 0.8318 0.34777 0.0
H575 H 0.23842 0.83416 0.31275 0.0
C576 C 0.17771 0.85117 0.39478 0.0
C577 C 0.15138 0.84359 0.39475 0.0
C578 C 0.19037 0.85162 0.37463 0.0
C579 C 0.17702 0.84429 0.35384 0.0
C580 C 0.15069 0.83701 0.35379 0.0
C581 C 0.13807 0.83678 0.37396 0.0
C582 C 0.19733 0.85281 0.29157 0.0
C583 C 0.21713 0.84665 0.29156 0.0
C584 C 0.18435 0.85189 0.31162 0.0
C585 C 0.19059 0.84456 0.33233 0.0
C586 C 0.21015 0.83796 0.33227 0.0
C587 C 0.22332 0.83908 0.31215 0.0
H588 H 0.6449 0.82888 0.78312 0.0
H589 H 0.66014 0.89896 0.81693 0.0
H590 H 0.67142 0.82266 0.81108 0.0
H591 H 0.68695 0.89294 0.84465 0.0
H592 H 0.71284 0.86005 0.90331 0.0
H593 H 0.68581 0.86636 0.87611 0.0
H594 H 0.71642 0.84117 0.82178 0.0
H595 H 0.74321 0.83443 0.84909 0.0
C596 C 0.65372 0.84288 0.7966 0.0
C597 C 0.65028 0.86442 0.79772 0.0
C598 C 0.66919 0.83945 0.81253 0.0
C599 C 0.6816 0.8574 0.83008 0.0
C600 C 0.67759 0.87859 0.83152 0.0
C601 C 0.66219 0.88206 0.81556 0.0
C602 C 0.71401 0.85602 0.88554 0.0
C603 C 0.73028 0.84669 0.87847 0.0
C604 C 0.69849 0.85972 0.86989 0.0
C605 C 0.69872 0.85414 0.84669 0.0
C606 C 0.71537 0.84528 0.83954 0.0
C607 C 0.73097 0.84165 0.8552 0.0
H608 H 0.1685 0.83676 0.90609 0.0
H609 H 0.19457 0.90726 0.86815 0.0
H610 H 0.16662 0.8142 0.8712 0.0
H611 H 0.19347 0.88487 0.83318 0.0
H612 H 0.1637 0.83136 0.77193 0.0
H613 H 0.16571 0.85407 0.80657 0.0
H614 H 0.19265 0.80948 0.84324 0.0
H615 H 0.18975 0.78595 0.80839 0.0
C616 C 0.17381 0.84748 0.89026 0.0
C617 C 0.18159 0.87385 0.88995 0.0
C618 C 0.173 0.83455 0.87022 0.0
C619 C 0.1801 0.84763 0.84925 0.0
C620 C 0.18756 0.87399 0.84891 0.0
C621 C 0.18821 0.8869 0.86899 0.0
C622 C 0.17018 0.82638 0.78732 0.0
C623 C 0.17656 0.80674 0.7873 0.0
C624 C 0.17148 0.83961 0.80727 0.0
C625 C 0.17937 0.83376 0.82786 0.0
C626 C 0.1861 0.81431 0.82781 0.0
C627 C 0.18465 0.80091 0.80779 0.0
H628 H 0.15572 0.29634 0.88923 0.0
H629 H 0.09956 0.31298 0.85978 0.0
H630 H 0.18514 0.31902 0.85757 0.0
H631 H 0.12889 0.33597 0.82884 0.0
H632 H 0.1742 0.3511 0.76392 0.0
H633 H 0.14657 0.32821 0.79581 0.0
H634 H 0.21228 0.36195 0.84077 0.0
H635 H 0.2404 0.38461 0.80831 0.0
C636 C 0.14957 0.30467 0.87599 0.0
C637 C 0.12513 0.30259 0.87702 0.0
C638 C 0.16655 0.31793 0.85796 0.0
C639 C 0.15945 0.32935 0.84054 0.0
C640 C 0.13496 0.32711 0.84165 0.0
C641 C 0.11807 0.3139 0.85953 0.0
C642 C 0.1829 0.35384 0.78057 0.0
C643 C 0.2096 0.36988 0.78348 0.0
C644 C 0.16693 0.34071 0.79898 0.0
C645 C 0.17706 0.34324 0.821 0.0
C646 C 0.20381 0.35933 0.82403 0.0
C647 C 0.21991 0.37254 0.80547 0.0
H648 H 0.89494 0.72699 0.61918 0.0
H649 H 0.81786 0.70876 0.63756 0.0
H650 H 0.89698 0.70435 0.65302 0.0
H651 H 0.8198 0.68558 0.67132 0.0
H652 H 0.82839 0.62226 0.71396 0.0
H653 H 0.8247 0.64382 0.67956 0.0
H654 H 0.89621 0.71206 0.69655 0.0
H655 H 0.89964 0.691 0.73076 0.0
C656 C 0.87847 0.71826 0.6305 0.0
C657 C 0.85633 0.71988 0.62576 0.0
C658 C 0.87963 0.70523 0.64985 0.0
C659 C 0.85849 0.69305 0.66471 0.0
C660 C 0.83628 0.69459 0.66002 0.0
C661 C 0.83531 0.70811 0.64086 0.0
C662 C 0.84331 0.6418 0.71021 0.0
C663 C 0.86426 0.65494 0.72507 0.0
C664 C 0.84112 0.65419 0.69068 0.0
C665 C 0.86018 0.67964 0.68543 0.0
C666 C 0.8813 0.69244 0.70009 0.0
C667 C 0.88319 0.68036 0.71973 0.0
H668 H 0.37088 0.17151 0.7387 0.0
H669 H 0.39687 0.24519 0.70631 0.0
H670 H 0.3502 0.14972 0.70354 0.0
H671 H 0.37562 0.22331 0.67111 0.0
H672 H 0.35781 0.17578 0.60575 0.0
H673 H 0.37816 0.19823 0.64067 0.0
H674 H 0.31405 0.14021 0.67942 0.0
H675 H 0.29384 0.11724 0.64425 0.0
C676 C 0.37225 0.18311 0.72404 0.0
C677 C 0.38565 0.21016 0.72536 0.0
C678 C 0.36011 0.17055 0.70389 0.0
C679 C 0.36096 0.18466 0.68445 0.0
C680 C 0.37472 0.21176 0.68565 0.0
C681 C 0.38694 0.22436 0.70585 0.0
C682 C 0.3479 0.16777 0.62168 0.0
C683 C 0.32415 0.14458 0.62213 0.0
C684 C 0.35958 0.18081 0.64177 0.0
C685 C 0.34787 0.1711 0.66297 0.0
C686 C 0.32386 0.1481 0.66344 0.0
C687 C 0.31214 0.13499 0.64326 0.0
H688 H 0.91462 0.23731 0.63777 0.0
H689 H 0.88776 0.15642 0.62824 0.0
H690 H 0.88094 0.22684 0.66568 0.0
H691 H 0.85448 0.14586 0.65697 0.0
H692 H 0.78048 0.13357 0.68967 0.0
H693 H 0.81494 0.14494 0.66225 0.0
H694 H 0.86535 0.21159 0.70246 0.0
H695 H 0.83045 0.20062 0.72948 0.0
C696 C 0.90179 0.21723 0.64191 0.0
C697 C 0.90394 0.1977 0.63062 0.0
C698 C 0.88243 0.21121 0.65807 0.0
C699 C 0.86468 0.18546 0.66362 0.0
C700 C 0.86737 0.16592 0.65286 0.0
C701 C 0.88668 0.17196 0.63652 0.0
C702 C 0.79883 0.15083 0.69255 0.0
C703 C 0.80261 0.16621 0.7118 0.0
C704 C 0.81878 0.1572 0.67692 0.0
C705 C 0.84321 0.17905 0.68013 0.0
C706 C 0.8468 0.19475 0.69918 0.0
C707 C 0.82675 0.18847 0.71474 0.0
H708 H 0.96187 0.5223 0.47896 0.0
H709 H 1.00903 0.50055 0.44 0.0
H710 H 0.98329 0.52072 0.51378 0.0
H711 H 0.02979 0.4981 0.47469 0.0
H712 H 0.08019 0.51918 0.53779 0.0
H713 H 0.05959 0.52318 0.50328 0.0
H714 H 0.98744 0.49294 0.53954 0.0
H715 H 1.00811 0.48993 0.57388 0.0
C716 C 0.9765 0.51678 0.47786 0.0
C717 C 0.98367 0.51153 0.45668 0.0
C718 C 0.98884 0.51585 0.49785 0.0
C719 C 1.00852 0.50944 0.49718 0.0
C720 C 1.01522 0.50369 0.47596 0.0
C721 C 1.00306 0.50482 0.45602 0.0
C722 C 0.06 0.51363 0.53839 0.0
C723 C 0.0459 0.50429 0.55866 0.0
C724 C 0.04807 0.5157 0.51854 0.0
C725 C 0.02169 0.5083 0.51846 0.0
C726 C 1.0078 0.49924 0.53888 0.0
C727 C 0.01972 0.49736 0.55865 0.0
H728 H 0.52684 0.51148 0.44156 0.0
H729 H 0.50115 0.44047 0.47859 0.0
H730 H 0.52917 0.53359 0.47678 0.0
H731 H 0.5027 0.46247 0.514 0.0
H732 H 0.53448 0.5159 0.57544 0.0
H733 H 0.53111 0.49302 0.54054 0.0
H734 H 0.50385 0.53823 0.5054 0.0
H735 H 0.50813 0.56192 0.54046 0.0
C736 C 0.52164 0.50052 0.45726 0.0
C737 C 0.51387 0.47415 0.45721 0.0
C738 C 0.52272 0.51321 0.47751 0.0
C739 C 0.51592 0.49989 0.49836 0.0
C740 C 0.50837 0.47351 0.49835 0.0
C741 C 0.50745 0.46082 0.47804 0.0
C742 C 0.52764 0.52098 0.56033 0.0
C743 C 0.52162 0.54087 0.56082 0.0
C744 C 0.52554 0.50764 0.54025 0.0
C745 C 0.5172 0.51364 0.51999 0.0
C746 C 0.51074 0.53328 0.52054 0.0
C747 C 0.51299 0.54678 0.54069 0.0
H748 H 0.51453 0.05842 0.45302 0.0
H749 H 0.57421 0.04187 0.4727 0.0
H750 H 0.48942 0.03524 0.48654 0.0
H751 H 0.54873 0.01822 0.5061 0.0
H752 H 0.47852 0.95464 0.54906 0.0
H753 H 0.503 0.97603 0.51428 0.0
H754 H 0.49673 0.04293 0.52998 0.0
H755 H 0.47302 0.02205 0.56456 0.0
C756 C 0.52235 0.04994 0.46455 0.0
C757 C 0.54649 0.05222 0.46029 0.0
C758 C 0.50792 0.0366 0.4837 0.0
C759 C 0.51702 0.02475 0.49884 0.0
C760 C 0.54112 0.02692 0.49459 0.0
C761 C 0.55583 0.04073 0.47563 0.0
C762 C 0.48223 0.9738 0.54489 0.0
C763 C 0.47391 0.98668 0.55953 0.0
C764 C 0.49637 0.9861 0.52515 0.0
C765 C 0.50181 0.01119 0.51947 0.0
C766 C 0.49277 0.02361 0.53383 0.0
C767 C 0.47924 0.01163 0.55367 0.0
H768 H 0.50458 0.06651 0.97788 0.0
H769 H 0.53294 0.02381 0.94055 0.0
H770 H 0.50579 0.04524 0.01299 0.0
H771 H 0.53491 1.00318 0.97555 0.0
H772 H 0.53514 0.02131 0.07479 0.0
H773 H 0.53349 0.04243 0.04011 0.0
H774 H 0.50849 0.97178 1.00295 0.0
H775 H 0.51101 0.95078 0.0378 0.0
C776 C 0.51147 0.05291 0.97722 0.0
C777 C 0.51866 0.0469 0.95639 0.0
C778 C 0.51218 0.04067 0.99736 0.0
C779 C 0.52027 0.02224 0.99719 0.0
C780 C 0.52802 0.01676 0.97637 0.0
C781 C 0.52714 0.02884 0.95628 0.0
C782 C 0.5292 0.01016 0.05926 0.0
C783 C 0.52323 0.98428 0.05913 0.0
C784 C 0.5281 0.02231 0.03931 0.0
C785 C 0.52085 1.00893 0.01859 0.0
C786 C 0.51456 0.98289 0.01848 0.0
C787 C 0.5158 0.97073 0.0385 0.0
H788 H 0.99527 0.51386 0.94294 0.0
H789 H 0.96414 0.44083 0.97781 0.0
H790 H 0.01634 0.53622 0.9778 0.0
H791 H 0.9858 0.46322 0.01268 0.0
H792 H 1.00542 0.51311 0.07646 0.0
H793 H 0.98488 0.49023 0.04181 0.0
H794 H 0.05121 0.54463 1.00297 0.0
H795 H 0.07162 0.56816 0.0379 0.0
C796 C 0.99286 0.50253 0.95808 0.0
C797 C 0.97788 0.47549 0.95754 0.0
C798 C 1.00522 0.5154 0.97806 0.0
C799 C 1.00305 0.50162 0.99812 0.0
C800 C 0.98775 0.47455 0.99766 0.0
C801 C 0.97529 0.46166 0.97765 0.0
C802 C 0.01579 0.52023 0.06058 0.0
C803 C 0.04023 0.54259 0.06003 0.0
C804 C 1.00399 0.50692 0.04064 0.0
C805 C 0.01627 0.51548 0.01947 0.0
C806 C 0.04096 0.53764 0.01891 0.0
C807 C 0.0528 0.55105 0.03896 0.0
H808 H 0.51182 0.49863 0.94419 0.0
H809 H 0.58167 0.52215 0.98225 0.0
H810 H 0.4889 0.49561 0.97919 0.0
H811 H 0.55894 0.52001 0.01739 0.0
H812 H 0.50474 0.4882 0.07816 0.0
H813 H 0.52785 0.49161 0.04337 0.0
H814 H 0.48364 0.51999 0.00814 0.0
H815 H 0.45963 0.51558 0.04314 0.0
C816 C 0.52234 0.5032 0.96007 0.0
C817 C 0.54861 0.51055 0.96038 0.0
C818 C 0.50919 0.50172 0.9802 0.0
C819 C 0.52197 0.50775 1.00127 0.0
C820 C 0.54827 0.51489 1.00158 0.0
C821 C 0.56139 0.51616 0.98141 0.0
C822 C 0.49991 0.49528 0.06306 0.0
C823 C 0.48023 0.50161 0.06353 0.0
C824 C 0.51339 0.49741 0.04302 0.0
C825 C 0.50781 0.50614 0.02278 0.0
C826 C 0.48829 0.51281 0.02327 0.0
C827 C 0.47461 0.51048 0.04339 0.0
H828 H 0.27394 0.0334 0.95679 0.0
H829 H 0.1922 0.99803 0.9694 0.0
H830 H 0.28124 0.0714 0.97773 0.0
H831 H 0.19946 0.03643 0.98994 0.0
H832 H 0.22603 0.09108 0.05116 0.0
H833 H 0.21748 0.05566 0.02603 0.0
H834 H 0.27591 0.10873 0.97961 0.0
H835 H 0.28487 0.14441 1.0052 0.0
C836 C 0.25742 0.03388 0.96368 0.0
C837 C 0.23247 0.01247 0.96153 0.0
C838 C 0.26163 0.05582 0.97563 0.0
C839 C 0.241 0.057 0.98578 0.0
C840 C 0.21589 0.03605 0.98274 0.0
C841 C 0.21168 0.01407 0.97077 0.0
C842 C 0.23709 0.09532 0.03559 0.0
C843 C 0.25625 0.12068 0.0303 0.0
C844 C 0.23198 0.07494 0.02101 0.0
C845 C 0.24585 0.07922 1.00064 0.0
C846 C 0.26496 0.10463 0.99523 0.0
C847 C 0.27007 0.12512 0.00987 0.0
H848 H 0.01784 0.24352 1.00645 0.0
H849 H 1.01232 0.19407 0.95088 0.0
H850 H 0.97503 0.21182 0.01913 0.0
H851 H 0.96884 0.16205 0.96363 0.0
H852 H 0.90814 0.10064 0.01388 0.0
H853 H 0.94821 0.13216 0.99571 0.0
H854 H 0.92971 0.19181 0.00934 0.0
H855 H 0.88969 0.16027 0.02788 0.0
C856 C 1.00744 0.22589 0.9968 0.0
C857 C 0.01869 0.22136 0.97764 0.0
C858 C 0.98266 0.20774 1.00401 0.0
C859 C 0.96829 0.18437 0.99238 0.0
C860 C 0.97941 0.1798 0.97308 0.0
C861 C 1.00429 0.19816 0.96572 0.0
C862 C 0.91243 0.12042 0.01281 0.0
C863 C 0.89572 0.12791 0.02257 0.0
C864 C 0.9354 0.1385 1.00222 0.0
C865 C 0.94239 0.16462 1.00119 0.0
C866 C 0.92516 0.17193 0.01013 0.0
C867 C 0.9021 0.15381 0.02064 0.0
H868 H 0.90931 0.76707 0.97386 0.0
H869 H 0.87047 0.76127 0.03732 0.0
H870 H 0.88103 0.7796 0.95445 0.0
H871 H 0.8426 0.77424 0.01795 0.0
H872 H 0.81908 0.82708 0.97994 0.0
H873 H 0.84886 0.81551 0.99771 0.0
H874 H 0.83224 0.75912 0.94533 0.0
H875 H 0.80207 0.77031 0.92774 0.0
C876 C 0.8947 0.76837 0.98366 0.0
C877 C 0.89215 0.76307 0.00716 0.0
C878 C 0.8785 0.77553 0.97252 0.0
C879 C 0.8597 0.77811 0.98469 0.0
C880 C 0.85708 0.77271 0.00815 0.0
C881 C 0.87292 0.76506 0.0192 0.0
C882 C 0.82202 0.81247 0.972 0.0
C883 C 0.80816 0.79964 0.95237 0.0
C884 C 0.83892 0.80568 0.98232 0.0
C885 C 0.84277 0.78626 0.97303 0.0
C886 C 0.82974 0.77419 0.95287 0.0
C887 C 0.81245 0.78061 0.94281 0.0
H888 H 0.04331 0.27289 0.56793 0.0
H889 H 1.01473 0.19642 0.54101 0.0
H890 H 0.0839 0.28762 0.54787 0.0
H891 H 0.05562 0.21129 0.52095 0.0
H892 H 0.14207 0.24456 0.50289 0.0
H893 H 0.10362 0.22898 0.52682 0.0
H894 H 0.09659 0.29451 0.5068 0.0
H895 H 0.13476 0.30996 0.48285 0.0
C896 C 0.04576 0.25907 0.558 0.0
C897 C 0.02561 0.23342 0.55609 0.0
C898 C 0.06904 0.26762 0.54635 0.0
C899 C 0.07298 0.25072 0.53264 0.0
C900 C 0.05328 0.22479 0.53145 0.0
C901 C 0.02981 0.21628 0.54292 0.0
C902 C 0.13245 0.25576 0.50376 0.0
C903 C 0.14157 0.27855 0.49093 0.0
C904 C 0.11031 0.24673 0.51736 0.0
C905 C 0.097 0.26048 0.51876 0.0
C906 C 0.10649 0.28355 0.50632 0.0
C907 C 0.12835 0.29237 0.49249 0.0
H908 H 0.82935 0.81414 0.53146 0.0
H909 H 0.77235 0.79683 0.58378 0.0
H910 H 0.81801 0.84416 0.51389 0.0
H911 H 0.76135 0.82723 0.56634 0.0
H912 H 0.77047 0.90507 0.53817 0.0
H913 H 0.7823 0.87618 0.55748 0.0
H914 H 0.77697 0.83827 0.4938 0.0
H915 H 0.76475 0.86675 0.47455 0.0
C916 C 0.81469 0.81701 0.53943 0.0
C917 C 0.80175 0.80303 0.55904 0.0
C918 C 0.80805 0.83407 0.52924 0.0
C919 C 0.78866 0.83792 0.53864 0.0
C920 C 0.77642 0.82472 0.55874 0.0
C921 C 0.78271 0.80729 0.5687 0.0
C922 C 0.77162 0.89044 0.52832 0.0
C923 C 0.7666 0.88822 0.5048 0.0
C924 C 0.77837 0.87389 0.53939 0.0
C925 C 0.78076 0.85509 0.52713 0.0
C926 C 0.77557 0.85276 0.50367 0.0
C927 C 0.76836 0.86895 0.49268 0.0
H928 H 0.23037 0.99993 0.56398 0.0
H929 H 0.20431 0.03068 0.51029 0.0
H930 H 0.19984 0.956 0.55105 0.0
H931 H 0.17427 0.98739 0.49753 0.0
H932 H 0.10594 0.90877 0.49216 0.0
H933 H 0.13452 0.94925 0.51081 0.0
H934 H 0.19294 0.92746 0.51611 0.0
H935 H 0.16398 0.88636 0.49738 0.0
C936 C 0.21796 0.99734 0.54964 0.0
C937 C 0.21972 0.01884 0.53823 0.0
C938 C 0.20067 0.97222 0.54212 0.0
C939 C 0.18453 0.96816 0.5233 0.0
C940 C 0.18611 0.98972 0.51225 0.0
C941 C 0.20347 0.01463 0.51954 0.0
C942 C 0.12477 0.91236 0.49743 0.0
C943 C 0.13273 0.89434 0.49297 0.0
C944 C 0.14121 0.93569 0.50811 0.0
C945 C 0.16617 0.9418 0.51469 0.0
C946 C 0.1738 0.92331 0.51131 0.0
C947 C 0.15725 0.89981 0.5005 0.0
H948 H 0.82063 0.91336 0.99058 0.0
H949 H 0.73832 0.87849 0.99924 0.0
H950 H 0.82705 0.95114 0.01131 0.0
H951 H 0.7448 0.91629 0.02046 0.0
H952 H 0.7658 1.00167 0.02464 0.0
H953 H 0.75782 0.96029 0.0107 0.0
H954 H 0.82438 0.9695 0.04734 0.0
H955 H 0.83268 0.01152 0.06113 0.0
C956 C 0.80387 0.91356 0.99721 0.0
C957 C 0.77891 0.89291 0.99301 0.0
C958 C 0.8076 0.93524 0.00929 0.0
C959 C 0.78647 0.93695 0.01749 0.0
C960 C 0.76153 0.91582 0.01411 0.0
C961 C 0.75779 0.89405 1.00206 0.0
C962 C 0.7787 0.99488 0.02993 0.0
C963 C 0.80003 1.01009 0.04391 0.0
C964 C 0.77395 0.97093 0.02205 0.0
C965 C 0.79041 0.96142 0.02784 0.0
C966 C 0.81142 0.97631 0.04234 0.0
C967 C 0.81612 1.00034 0.05036 0.0
H968 H 0.114 0.91278 0.98764 0.0
H969 H 0.14402 0.86076 0.99262 0.0
H970 H 0.07473 0.88148 1.00685 0.0
H971 H 0.10474 0.82948 0.01235 0.0
H972 H 0.01834 0.76864 0.01522 0.0
H973 H 0.0605 0.80127 1.00196 0.0
H974 H 0.05454 0.85852 0.04176 0.0
H975 H 1.01168 0.82557 0.05486 0.0
C976 C 0.1124 0.89477 0.9931 0.0
C977 C 0.13217 0.88925 0.98835 0.0
C978 C 0.08986 0.87685 1.00432 0.0
C979 C 0.08636 0.8528 0.0111 0.0
C980 C 0.10655 0.84764 1.00709 0.0
C981 C 0.12918 0.86564 0.99588 0.0
C982 C 0.02596 0.78813 0.02132 0.0
C983 C 1.01142 0.79444 0.03604 0.0
C984 C 0.05038 0.80688 0.01383 0.0
C985 C 0.06111 0.83263 0.02076 0.0
C986 C 0.04682 0.83893 0.03588 0.0
C987 C 0.02229 0.82004 0.0435 0.0
H988 H 0.15437 0.23214 0.94946 0.0
H989 H 0.13759 0.26099 0.01048 0.0
H990 H 0.17776 0.21645 0.9716 0.0
H991 H 0.16098 0.24461 0.03304 0.0
H992 H 0.22982 0.23242 0.05855 0.0
H993 H 0.2042 0.24932 0.0407 0.0
H994 H 0.16737 0.18199 0.99795 0.0
H995 H 0.19316 0.16561 0.01522 0.0
C996 C 0.1556 0.23512 0.96769 0.0
C997 C 0.14382 0.24766 0.97816 0.0
C998 C 0.16893 0.2259 0.98046 0.0
C999 C 0.17085 0.22871 1.00423 0.0
C1000 C 0.15984 0.24205 0.01478 0.0
C1001 C 0.14643 0.25142 1.00186 0.0
C1002 C 0.21589 0.22106 0.04562 0.0
C1003 C 0.21378 0.1978 0.03812 0.0
C1004 C 0.20122 0.23076 0.03538 0.0
C1005 C 0.18411 0.21733 0.01749 0.0
C1006 C 0.18087 0.19327 0.01118 0.0
C1007 C 0.19556 0.18374 0.02123 0.0
H1008 H 0.90544 0.80958 0.506 0.0
H1009 H 0.89248 0.736 0.53023 0.0
H1010 H 0.94372 0.81629 0.4857 0.0
H1011 H 0.9313 0.74303 0.51051 0.0
H1012 H 0.99084 0.75242 0.45853 0.0
H1013 H 0.9505 0.7454 0.4748 0.0
H1014 H 0.98673 0.82611 0.49188 0.0
H1015 H 0.02694 0.83323 0.47487 0.0
C1016 C 0.91074 0.79478 0.50699 0.0
C1017 C 0.89581 0.77222 0.51978 0.0
C1018 C 0.93289 0.79874 0.49546 0.0
C1019 C 0.94089 0.78033 0.49647 0.0
C1020 C 0.92566 0.75754 0.50899 0.0
C1021 C 0.90339 0.75351 0.52042 0.0
C1022 C 0.99016 0.76876 0.46554 0.0
C1023 C 1.01221 0.7934 0.4654 0.0
C1024 C 0.967 0.76467 0.47509 0.0
C1025 C 0.96522 0.78507 0.48497 0.0
C1026 C 0.98714 0.80991 0.48425 0.0
C1027 C 1.0103 0.81403 0.47452 0.0
H1028 H 0.24447 0.22998 0.44791 0.0
H1029 H 0.19729 0.20783 0.50842 0.0
H1030 H 0.26258 0.2031 0.46005 0.0
H1031 H 0.21543 0.1815 0.52058 0.0
H1032 H 0.2365 0.12 0.52951 0.0
H1033 H 0.21674 0.14281 0.51218 0.0
H1034 H 0.29155 0.20306 0.49004 0.0
H1035 H 0.3114 0.17996 0.50715 0.0
C1036 C 0.23769 0.21913 0.4636 0.0
C1037 C 0.21939 0.22107 0.47716 0.0
C1038 C 0.24825 0.20392 0.47069 0.0
C1039 C 0.24052 0.1901 0.49135 0.0
C1040 C 0.22165 0.19153 0.50446 0.0
C1041 C 0.21131 0.2068 0.4975 0.0
C1042 C 0.2488 0.13802 0.52083 0.0
C1043 C 0.27564 0.1482 0.51996 0.0
C1044 C 0.23743 0.15119 0.51094 0.0
C1045 C 0.25252 0.17495 0.49985 0.0
C1046 C 0.27928 0.18473 0.49827 0.0
C1047 C 0.2907 0.17154 0.50822 0.0
H1048 H 0.83302 1.00698 0.45722 0.0
H1049 H 0.77746 0.01601 0.49699 0.0
H1050 H 0.86709 0.04919 0.47038 0.0
H1051 H 0.81118 0.0575 0.51028 0.0
H1052 H 0.87252 0.1403 0.51855 0.0
H1053 H 0.84046 0.10136 0.49924 0.0
H1054 H 0.89037 0.06895 0.50541 0.0
H1055 H 0.92254 0.10796 0.52427 0.0
C1056 C 0.82804 0.01797 0.46863 0.0
C1057 C 0.80249 1.00799 0.47609 0.0
C1058 C 0.84757 0.04211 0.47628 0.0
C1059 C 0.84194 0.05687 0.49141 0.0
C1060 C 0.81627 0.047 0.49839 0.0
C1061 C 0.7969 0.02297 0.49088 0.0
C1062 C 0.87678 0.12499 0.51556 0.0
C1063 C 0.90007 0.12726 0.52316 0.0
C1064 C 0.85832 0.10256 0.50459 0.0
C1065 C 0.86267 0.08182 0.50089 0.0
C1066 C 0.88638 0.08453 0.50773 0.0
C1067 C 0.9048 0.10692 0.51873 0.0
H1068 H 0.9599 0.47431 0.3547 0.0
H1069 H 0.87764 0.44396 0.35622 0.0
H1070 H 0.95315 0.43546 0.33524 0.0
H1071 H 0.87091 0.40507 0.33727 0.0
H1072 H 0.86689 0.34293 0.29007 0.0
H1073 H 0.8758 0.38552 0.30281 0.0
H1074 H 0.93675 0.39115 0.34595 0.0
H1075 H 0.92823 0.34925 0.33307 0.0
C1076 C 0.94041 0.4595 0.35071 0.0
C1077 C 0.91934 0.46224 0.35722 0.0
C1078 C 0.9365 0.43711 0.33967 0.0
C1079 C 0.91144 0.41693 0.33481 0.0
C1080 C 0.89047 0.42021 0.3405 0.0
C1081 C 0.89436 0.44252 0.35156 0.0
C1082 C 0.88234 0.35342 0.3021 0.0
C1083 C 0.89673 0.34255 0.3106 0.0
C1084 C 0.88738 0.37778 0.3095 0.0
C1085 C 0.90705 0.39188 0.32543 0.0
C1086 C 0.92175 0.38116 0.33343 0.0
C1087 C 0.91666 0.35691 0.32615 0.0
H1088 H 0.5373 0.47459 0.31421 0.0
H1089 H 0.57915 0.47526 0.37426 0.0
H1090 H 0.57793 0.50119 0.29431 0.0
H1091 H 0.61974 0.50223 0.35451 0.0
H1092 H 0.68896 0.5324 0.30692 0.0
H1093 H 0.64753 0.50249 0.32443 0.0
H1094 H 0.6138 0.54445 0.29406 0.0
H1095 H 0.65485 0.57388 0.27629 0.0
C1096 C 0.55514 0.48047 0.32322 0.0
C1097 C 0.55484 0.47277 0.3459 0.0
C1098 C 0.57851 0.49584 0.31181 0.0
C1099 C 0.60226 0.50393 0.32273 0.0
C1100 C 0.60192 0.4961 0.34539 0.0
C1101 C 0.57856 0.48077 0.35681 0.0
C1102 C 0.67261 0.53503 0.30374 0.0
C1103 C 0.67534 0.55562 0.29018 0.0
C1104 C 0.64888 0.518 0.31396 0.0
C1105 C 0.62723 0.52107 0.31083 0.0
C1106 C 0.62986 0.54123 0.29672 0.0
C1107 C 0.65354 0.55824 0.28657 0.0
H1108 H 0.51118 0.04156 0.34993 0.0
H1109 H 0.57504 0.11936 0.35434 0.0
H1110 H 0.48705 0.0568 0.32784 0.0
H1111 H 0.55113 0.13457 0.3317 0.0
H1112 H 0.48784 0.15511 0.3147 0.0
H1113 H 0.51521 0.14163 0.3341 0.0
H1114 H 0.4841 0.07369 0.29203 0.0
H1115 H 0.45634 0.08681 0.27314 0.0
C1116 C 0.52023 0.0619 0.34597 0.0
C1117 C 0.54509 0.07919 0.35401 0.0
C1118 C 0.50641 0.07067 0.33314 0.0
C1119 C 0.51705 0.097 0.32788 0.0
C1120 C 0.5421 0.11424 0.33564 0.0
C1121 C 0.55592 0.10546 0.34852 0.0
C1122 C 0.48708 0.13746 0.3094 0.0
C1123 C 0.46972 0.122 0.29243 0.0
C1124 C 0.50285 0.12972 0.32051 0.0
C1125 C 0.50176 0.10635 0.31488 0.0
C1126 C 0.48513 0.09148 0.29724 0.0
C1127 C 0.46931 0.09915 0.28623 0.0
H1128 H 0.69219 0.55079 0.90073 0.0
H1129 H 0.66526 0.55416 0.83336 0.0
H1130 H 0.7362 0.56874 0.88565 0.0
H1131 H 0.7085 0.57161 0.81854 0.0
H1132 H 0.78952 0.62966 0.8019 0.0
H1133 H 0.74852 0.61264 0.8215 0.0
H1134 H 0.76404 0.55974 0.85877 0.0
H1135 H 0.80566 0.57716 0.8392 0.0
C1136 C 0.69556 0.5551 0.88275 0.0
C1137 C 0.67517 0.55125 0.86833 0.0
C1138 C 0.72075 0.56536 0.8741 0.0
C1139 C 0.726 0.57208 0.85094 0.0
C1140 C 0.70537 0.56732 0.83655 0.0
C1141 C 0.68043 0.55711 0.84509 0.0
C1142 C 0.78444 0.6146 0.81444 0.0
C1143 C 0.80085 0.60461 0.81874 0.0
C1144 C 0.76079 0.60471 0.82562 0.0
C1145 C 0.7527 0.58444 0.84141 0.0
C1146 C 0.76966 0.57533 0.8467 0.0
C1147 C 0.7935 0.5853 0.83546 0.0
H1148 H 0.43003 0.19955 0.80815 0.0
H1149 H 0.43978 0.24005 0.87129 0.0
H1150 H 0.44297 0.1714 0.82699 0.0
H1151 H 0.45242 0.2116 0.89017 0.0
H1152 H 0.44396 0.13401 0.91813 0.0
H1153 H 0.43222 0.1638 0.90066 0.0
H1154 H 0.48421 0.17651 0.84499 0.0
H1155 H 0.49623 0.14698 0.86254 0.0
C1156 C 0.43471 0.20233 0.82609 0.0
C1157 C 0.43384 0.22209 0.8382 0.0
C1158 C 0.44233 0.18631 0.83684 0.0
C1159 C 0.44887 0.18936 0.86004 0.0
C1160 C 0.44743 0.20872 0.87229 0.0
C1161 C 0.44022 0.22503 0.86146 0.0
C1162 C 0.45313 0.14338 0.90229 0.0
C1163 C 0.47106 0.13808 0.89176 0.0
C1164 C 0.44641 0.16048 0.89231 0.0
C1165 C 0.45713 0.17236 0.87135 0.0
C1166 C 0.4754 0.16744 0.86102 0.0
C1167 C 0.48244 0.15068 0.87119 0.0
H1168 H 0.86512 0.34139 0.89357 0.0
H1169 H 0.92099 0.33757 0.84982 0.0
H1170 H 0.83227 0.29852 0.88058 0.0
H1171 H 0.88846 0.2954 0.83673 0.0
H1172 H 0.83032 0.2119 0.82694 0.0
H1173 H 0.8616 0.25069 0.84707 0.0
H1174 H 0.80801 0.27903 0.84597 0.0
H1175 H 0.77673 0.24025 0.82634 0.0
C1176 C 0.87044 0.3314 0.88133 0.0
C1177 C 0.89568 0.34305 0.87268 0.0
C1178 C 0.85161 0.30687 0.87379 0.0
C1179 C 0.85767 0.29338 0.85758 0.0
C1180 C 0.88309 0.3049 0.84945 0.0
C1181 C 0.90175 0.32932 0.85685 0.0
C1182 C 0.82508 0.22623 0.83131 0.0
C1183 C 0.80106 0.22299 0.82481 0.0
C1184 C 0.84307 0.24858 0.84273 0.0
C1185 C 0.83748 0.2682 0.848 0.0
C1186 C 0.81299 0.26434 0.84241 0.0
C1187 C 0.79507 0.24208 0.83096 0.0
H1188 H 0.41211 0.21594 0.33057 0.0
H1189 H 0.4923 0.24455 0.31473 0.0
H1190 H 0.42382 0.25702 0.34921 0.0
H1191 H 0.50378 0.28498 0.33322 0.0
H1192 H 0.50892 0.36344 0.33591 0.0
H1193 H 0.49638 0.32057 0.3224 0.0
H1194 H 0.44944 0.28745 0.38227 0.0
H1195 H 0.4621 0.33094 0.39599 0.0
C1196 C 0.4322 0.23078 0.33129 0.0
C1197 C 0.4512 0.22698 0.32088 0.0
C1198 C 0.43891 0.25427 0.34204 0.0
C1199 C 0.46471 0.27442 0.34245 0.0
C1200 C 0.48368 0.27009 0.33287 0.0
C1201 C 0.47705 0.24677 0.32228 0.0
C1202 C 0.49604 0.34712 0.34636 0.0
C1203 C 0.48664 0.35071 0.36712 0.0
C1204 C 0.48891 0.32246 0.33862 0.0
C1205 C 0.47199 0.30052 0.35129 0.0
C1206 C 0.46244 0.30396 0.37208 0.0
C1207 C 0.46985 0.32885 0.38001 0.0
H1208 H 0.68384 0.15846 0.39939 0.0
H1209 H 0.68821 0.1036 0.35487 0.0
H1210 H 0.72677 0.19163 0.38664 0.0
H1211 H 0.73045 0.13649 0.34198 0.0
H1212 H 0.81388 0.19536 0.33216 0.0
H1213 H 0.77508 0.16344 0.35203 0.0
H1214 H 0.74625 0.21662 0.35237 0.0
H1215 H 0.78509 0.24855 0.33301 0.0
C1216 C 0.69399 0.15341 0.38706 0.0
C1217 C 0.68245 0.12837 0.37809 0.0
C1218 C 0.71854 0.17244 0.37964 0.0
C1219 C 0.73218 0.16681 0.36322 0.0
C1220 C 0.72084 0.14155 0.35485 0.0
C1221 C 0.69638 0.12267 0.36214 0.0
C1222 C 0.79944 0.20036 0.33677 0.0
C1223 C 0.80259 0.22449 0.33079 0.0
C1224 C 0.77708 0.182 0.34805 0.0
C1225 C 0.75732 0.18731 0.35368 0.0
C1226 C 0.76105 0.21185 0.34855 0.0
C1227 C 0.78334 0.23015 0.33725 0.0
H1228 H 0.86649 0.52083 0.37939 0.0
H1229 H 0.91905 0.6028 0.38067 0.0
H1230 H 0.83311 0.52831 0.36336 0.0
H1231 H 0.88568 0.6104 0.36562 0.0
H1232 H 0.83272 0.61482 0.31243 0.0
H1233 H 0.86457 0.60746 0.33141 0.0
H1234 H 0.80384 0.54352 0.36837 0.0
H1235 H 0.77194 0.55035 0.34865 0.0
C1236 C 0.87076 0.54045 0.37667 0.0
C1237 C 0.89551 0.56118 0.38115 0.0
C1238 C 0.85159 0.54481 0.36751 0.0
C1239 C 0.85664 0.57002 0.36283 0.0
C1240 C 0.88113 0.5907 0.36832 0.0
C1241 C 0.90028 0.58634 0.37719 0.0
C1242 C 0.82616 0.59932 0.32473 0.0
C1243 C 0.79972 0.5832 0.32896 0.0
C1244 C 0.84448 0.59512 0.33577 0.0
C1245 C 0.83695 0.57484 0.35156 0.0
C1246 C 0.81048 0.55905 0.3561 0.0
C1247 C 0.79214 0.56311 0.34489 0.0
H1248 H 0.56025 0.12603 0.82182 0.0
H1249 H 0.56889 0.08001 0.87387 0.0
H1250 H 0.60074 0.1344 0.80452 0.0
H1251 H 0.60983 0.08936 0.85748 0.0
H1252 H 0.67354 0.09259 0.81624 0.0
H1253 H 0.6306 0.08168 0.82843 0.0
H1254 H 0.64562 0.15728 0.8079 0.0
H1255 H 0.68839 0.16751 0.79441 0.0
C1256 C 0.57078 0.11766 0.82956 0.0
C1257 C 0.56119 0.10221 0.84918 0.0
C1258 C 0.59421 0.12267 0.81975 0.0
C1259 C 0.60889 0.11266 0.82947 0.0
C1260 C 0.59904 0.09703 0.84904 0.0
C1261 C 0.57548 0.09171 0.8586 0.0
C1262 C 0.66759 0.10683 0.81414 0.0
C1263 C 0.68443 0.13099 0.80451 0.0
C1264 C 0.64294 0.10066 0.82136 0.0
C1265 C 0.63449 0.11869 0.81969 0.0
C1266 C 0.65116 0.14271 0.80937 0.0
C1267 C 0.67578 0.14869 0.80168 0.0
H1268 H 0.95018 0.49342 0.8699 0.0
H1269 H 0.89183 0.43388 0.82796 0.0
H1270 H 0.94184 0.52508 0.85196 0.0
H1271 H 0.88416 0.46577 0.80918 0.0
H1272 H 0.85695 0.52553 0.79981 0.0
H1273 H 0.86574 0.4922 0.81393 0.0
H1274 H 0.94659 0.54895 0.81945 0.0
H1275 H 0.93747 0.58206 0.80654 0.0
C1276 C 0.93588 0.48715 0.85652 0.0
C1277 C 0.92172 0.46107 0.8504 0.0
C1278 C 0.93113 0.50538 0.84607 0.0
C1279 C 0.91231 0.49819 0.82892 0.0
C1280 C 0.89851 0.47211 0.8225 0.0
C1281 C 0.90307 0.4538 0.83316 0.0
C1282 C 0.8766 0.53069 0.80378 0.0
C1283 C 0.89646 0.55644 0.80227 0.0
C1284 C 0.88172 0.51159 0.81187 0.0
C1285 C 0.90689 0.5178 0.81831 0.0
C1286 C 0.92685 0.5434 0.81545 0.0
C1287 C 0.92167 0.56243 0.80778 0.0
H1288 H 0.53367 0.47224 0.85714 0.0
H1289 H 0.58432 0.44051 0.86122 0.0
H1290 H 0.50192 0.43373 0.83702 0.0
H1291 H 0.55252 0.40198 0.8416 0.0
H1292 H 0.49604 0.34097 0.79267 0.0
H1293 H 0.52957 0.38315 0.80635 0.0
H1294 H 0.47297 0.38939 0.84708 0.0
H1295 H 0.43976 0.3479 0.83327 0.0
C1296 C 0.53814 0.45718 0.8536 0.0
C1297 C 0.5615 0.45945 0.86099 0.0
C1298 C 0.51987 0.435 0.84217 0.0
C1299 C 0.52452 0.41456 0.83779 0.0
C1300 C 0.54831 0.41734 0.84443 0.0
C1301 C 0.56651 0.43944 0.85588 0.0
C1302 C 0.49078 0.3515 0.80437 0.0
C1303 C 0.46519 0.34092 0.81192 0.0
C1304 C 0.51 0.37563 0.81231 0.0
C1305 C 0.50403 0.38978 0.82786 0.0
C1306 C 0.47832 0.37935 0.8349 0.0
C1307 C 0.45923 0.35533 0.82708 0.0
H1308 H 0.55377 0.68341 0.61649 0.0
H1309 H 0.55793 0.6588 0.6847 0.0
H1310 H 0.56411 0.72591 0.63137 0.0
H1311 H 0.56797 0.70059 0.69928 0.0
H1312 H 0.55392 0.76449 0.72123 0.0
H1313 H 0.54316 0.72431 0.70256 0.0
H1314 H 0.60275 0.76564 0.65271 0.0
H1315 H 0.61383 0.80647 0.67162 0.0
C1316 C 0.55676 0.68698 0.63458 0.0
C1317 C 0.55491 0.66763 0.64939 0.0
C1318 C 0.56286 0.71134 0.64307 0.0
C1319 C 0.56674 0.71655 0.66653 0.0
C1320 C 0.56483 0.69714 0.68118 0.0
C1321 C 0.55913 0.67314 0.67275 0.0
C1322 C 0.56476 0.76524 0.70623 0.0
C1323 C 0.58495 0.78882 0.69809 0.0
C1324 C 0.55856 0.74209 0.69554 0.0
C1325 C 0.5722 0.74174 0.67625 0.0
C1326 C 0.59183 0.76532 0.6675 0.0
C1327 C 0.59827 0.78866 0.67841 0.0
H1328 H 0.23051 0.82387 0.69438 0.0
H1329 H 0.23225 0.75922 0.66411 0.0
H1330 H 0.27021 0.85336 0.67419 0.0
H1331 H 0.2719 0.78861 0.64413 0.0
H1332 H 0.33208 0.85068 0.59648 0.0
H1333 H 0.29036 0.82172 0.61406 0.0
H1334 H 0.31592 0.86533 0.67632 0.0
H1335 H 0.3574 0.89424 0.65883 0.0
C1336 C 0.23917 0.81594 0.68325 0.0
C1337 C 0.22817 0.78914 0.68097 0.0
C1338 C 0.26207 0.83284 0.67181 0.0
C1339 C 0.27441 0.82338 0.65762 0.0
C1340 C 0.26288 0.79661 0.65475 0.0
C1341 C 0.24015 0.77973 0.66632 0.0
C1342 C 0.32882 0.85406 0.61392 0.0
C1343 C 0.34821 0.87481 0.6262 0.0
C1344 C 0.3049 0.83742 0.62403 0.0
C1345 C 0.29968 0.84125 0.64659 0.0
C1346 C 0.31908 0.862 0.65882 0.0
C1347 C 0.34301 0.87848 0.64881 0.0
H1348 H 0.25413 0.47739 0.69007 0.0
H1349 H 0.20432 0.39537 0.6824 0.0
H1350 H 0.22311 0.48503 0.66992 0.0
H1351 H 0.17335 0.40306 0.66174 0.0
H1352 H 0.1109 0.42661 0.65767 0.0
H1353 H 0.14365 0.41757 0.67161 0.0
H1354 H 0.20173 0.48295 0.63416 0.0
H1355 H 0.16863 0.49234 0.62037 0.0
C1356 C 0.23669 0.46094 0.68381 0.0
C1357 C 0.23166 0.43571 0.68808 0.0
C1358 C 0.21894 0.46537 0.67205 0.0
C1359 C 0.19558 0.4447 0.66425 0.0
C1360 C 0.19096 0.41947 0.66778 0.0
C1361 C 0.20879 0.41503 0.67951 0.0
C1362 C 0.13061 0.43905 0.65222 0.0
C1363 C 0.1371 0.46035 0.63797 0.0
C1364 C 0.14943 0.43367 0.6601 0.0
C1365 C 0.17542 0.44946 0.65405 0.0
C1366 C 0.18193 0.47049 0.63936 0.0
C1367 C 0.16296 0.47582 0.63133 0.0
H1368 H 0.37928 0.92071 0.24888 0.0
H1369 H 0.33926 0.85626 0.20335 0.0
H1370 H 0.42007 0.93153 0.23076 0.0
H1371 H 0.38023 0.8671 0.18524 0.0
H1372 H 0.45242 0.91581 0.14053 0.0
H1373 H 0.41193 0.90224 0.16048 0.0
H1374 H 0.45131 0.91655 0.22487 0.0
H1375 H 0.49194 0.93023 0.20491 0.0
C1376 C 0.37919 0.90862 0.23519 0.0
C1377 C 0.3559 0.88762 0.22757 0.0
C1378 C 0.40265 0.9148 0.22483 0.0
C1379 C 0.40347 0.90032 0.20641 0.0
C1380 C 0.38027 0.87888 0.19919 0.0
C1381 C 0.35679 0.87252 0.20971 0.0
C1382 C 0.45252 0.91613 0.15895 0.0
C1383 C 0.47555 0.92422 0.17108 0.0
C1384 C 0.4292 0.90811 0.1704 0.0
C1385 C 0.42828 0.90816 0.1943 0.0
C1386 C 0.45133 0.9164 0.20645 0.0
C1387 C 0.47463 0.9242 0.19499 0.0
H1388 H 0.16108 0.48293 0.19873 0.0
H1389 H 0.103 0.46403 0.25034 0.0
H1390 H 0.14917 0.51247 0.18102 0.0
H1391 H 0.09147 0.49401 0.23279 0.0
H1392 H 0.10006 0.5719 0.20468 0.0
H1393 H 0.1122 0.54331 0.22414 0.0
H1394 H 0.10768 0.50561 0.16053 0.0
H1395 H 0.09508 0.53375 0.14114 0.0
C1396 C 0.14606 0.48536 0.20652 0.0
C1397 C 0.13299 0.47107 0.22597 0.0
C1398 C 0.1391 0.50214 0.19625 0.0
C1399 C 0.11926 0.50544 0.20543 0.0
C1400 C 0.10687 0.49192 0.22537 0.0
C1401 C 0.11347 0.47474 0.23539 0.0
C1402 C 0.10144 0.55737 0.19488 0.0
C1403 C 0.09653 0.55511 0.17134 0.0
C1404 C 0.10837 0.541 0.20604 0.0
C1405 C 0.11109 0.52235 0.19383 0.0
C1406 C 0.10601 0.51997 0.17035 0.0
C1407 C 0.09859 0.53597 0.15929 0.0
H1408 H 0.5334 0.67412 0.23248 0.0
H1409 H 0.58746 0.67013 0.18646 0.0
H1410 H 0.50026 0.63091 0.22058 0.0
H1411 H 0.5546 0.62765 0.17439 0.0
H1412 H 0.49637 0.54421 0.16556 0.0
H1413 H 0.52842 0.58316 0.18493 0.0
H1414 H 0.47443 0.61099 0.18696 0.0
H1415 H 0.44237 0.57199 0.16814 0.0
C1416 C 0.53828 0.664 0.22 0.0
C1417 C 0.56307 0.67572 0.21036 0.0
C1418 C 0.51927 0.63929 0.21307 0.0
C1419 C 0.52469 0.6257 0.19647 0.0
C1420 C 0.54972 0.63723 0.18742 0.0
C1421 C 0.56858 0.66182 0.19424 0.0
C1422 C 0.49123 0.55847 0.17043 0.0
C1423 C 0.46684 0.555 0.16508 0.0
C1424 C 0.50966 0.58091 0.18143 0.0
C1425 C 0.50415 0.60042 0.18737 0.0
C1426 C 0.47935 0.59637 0.18288 0.0
C1427 C 0.46098 0.57399 0.17189 0.0
H1428 H 0.16688 0.67376 0.72679 0.0
H1429 H 0.10436 0.66721 0.68538 0.0
H1430 H 0.15768 0.63115 0.71382 0.0
H1431 H 0.09557 0.62532 0.67224 0.0
H1432 H 0.07294 0.54258 0.66183 0.0
H1433 H 0.07968 0.581 0.68214 0.0
H1434 H 0.16196 0.61181 0.67919 0.0
H1435 H 0.15523 0.57337 0.65945 0.0
C1436 C 0.1511 0.66321 0.71509 0.0
C1437 C 0.13649 0.67405 0.70707 0.0
C1438 C 0.14589 0.63883 0.70754 0.0
C1439 C 0.12584 0.62467 0.69192 0.0
C1440 C 0.11087 0.63533 0.68449 0.0
C1441 C 0.11612 0.6596 0.69192 0.0
C1442 C 0.09244 0.55737 0.66583 0.0
C1443 C 0.11352 0.5549 0.65881 0.0
C1444 C 0.09634 0.57952 0.67735 0.0
C1445 C 0.12142 0.59973 0.68218 0.0
C1446 C 0.14239 0.59666 0.67602 0.0
C1447 C 0.13849 0.57459 0.6645 0.0
H1448 H 0.3379 0.48326 0.70683 0.0
H1449 H 0.37795 0.44608 0.73422 0.0
H1450 H 0.3776 0.51566 0.68879 0.0
H1451 H 0.41788 0.47894 0.71683 0.0
H1452 H 0.47614 0.52302 0.65937 0.0
H1453 H 0.43822 0.49218 0.68084 0.0
H1454 H 0.419 0.55151 0.69388 0.0
H1455 H 0.45626 0.58189 0.67183 0.0
C1456 C 0.35528 0.48226 0.70939 0.0
C1457 C 0.35462 0.46197 0.72196 0.0
C1458 C 0.37818 0.50095 0.69907 0.0
C1459 C 0.40114 0.49999 0.70116 0.0
C1460 C 0.40059 0.48013 0.7144 0.0
C1461 C 0.37767 0.46136 0.72459 0.0
C1462 C 0.46393 0.5295 0.66701 0.0
C1463 C 0.4692 0.55491 0.66372 0.0
C1464 C 0.44217 0.51183 0.67943 0.0
C1465 C 0.42523 0.51917 0.68906 0.0
C1466 C 0.43113 0.54487 0.68636 0.0
C1467 C 0.45269 0.56242 0.67381 0.0
H1468 H 0.58181 0.93536 0.73077 0.0
H1469 H 0.54014 0.85714 0.70633 0.0
H1470 H 0.54934 0.9437 0.71435 0.0
H1471 H 0.50807 0.86565 0.68928 0.0
H1472 H 0.44305 0.88095 0.67528 0.0
H1473 H 0.47378 0.87339 0.69591 0.0
H1474 H 0.53441 0.95017 0.67885 0.0
H1475 H 0.50322 0.958 0.65872 0.0
C1476 C 0.56564 0.91985 0.72198 0.0
C1477 C 0.56364 0.89553 0.71993 0.0
C1478 C 0.54708 0.92474 0.71235 0.0
C1479 C 0.52601 0.90548 0.70026 0.0
C1480 C 0.52374 0.88095 0.69868 0.0
C1481 C 0.54223 0.87603 0.70844 0.0
C1482 C 0.4629 0.89636 0.67605 0.0
C1483 C 0.47063 0.92009 0.66522 0.0
C1484 C 0.48064 0.89192 0.68778 0.0
C1485 C 0.5068 0.91099 0.68893 0.0
C1486 C 0.51443 0.93504 0.67859 0.0
C1487 C 0.49656 0.93955 0.66695 0.0
H1488 H 0.22144 0.40855 0.18462 0.0
H1489 H 0.25051 0.4898 0.19461 0.0
H1490 H 0.25932 0.41869 0.16137 0.0
H1491 H 0.28821 0.49982 0.17187 0.0
H1492 H 0.34413 0.5122 0.11521 0.0
H1493 H 0.30294 0.49929 0.13374 0.0
H1494 H 0.3055 0.43593 0.16624 0.0
H1495 H 0.34636 0.44853 0.14747 0.0
C1496 C 0.23579 0.42854 0.18179 0.0
C1497 C 0.23288 0.44832 0.19156 0.0
C1498 C 0.25759 0.43437 0.16856 0.0
C1499 C 0.2769 0.46012 0.16468 0.0
C1500 C 0.27365 0.47981 0.17415 0.0
C1501 C 0.25202 0.47401 0.1874 0.0
C1502 C 0.3358 0.49537 0.12613 0.0
C1503 C 0.34874 0.48155 0.12991 0.0
C1504 C 0.31222 0.48803 0.13688 0.0
C1505 C 0.30088 0.46663 0.15166 0.0
C1506 C 0.31344 0.45234 0.15484 0.0
C1507 C 0.33704 0.45971 0.14416 0.0
H1508 H 0.57814 0.89899 0.12124 0.0
H1509 H 0.50664 0.84369 0.15317 0.0
H1510 H 0.59904 0.87615 0.1367 0.0
H1511 H 0.52755 0.82082 0.16848 0.0
H1512 H 0.56964 0.77563 0.18035 0.0
H1513 H 0.54936 0.7953 0.15808 0.0
H1514 H 0.61083 0.87078 0.17668 0.0
H1515 H 0.63095 0.85124 0.199 0.0
C1516 C 0.56673 0.8817 0.13118 0.0
C1517 C 0.5407 0.87326 0.13603 0.0
C1518 C 0.57878 0.86871 0.14017 0.0
C1519 C 0.56502 0.84675 0.15394 0.0
C1520 C 0.53867 0.83756 0.15781 0.0
C1521 C 0.5267 0.85074 0.14909 0.0
C1522 C 0.57903 0.79642 0.1794 0.0
C1523 C 0.60191 0.81185 0.19153 0.0
C1524 C 0.56731 0.80768 0.16676 0.0
C1525 C 0.57844 0.83461 0.16563 0.0
C1526 C 0.60186 0.85 0.177 0.0
C1527 C 0.61335 0.83877 0.1899 0.0
H1528 H 0.20287 0.80568 0.18791 0.0
H1529 H 0.25074 0.77096 0.19398 0.0
H1530 H 0.17074 0.76779 0.16732 0.0
H1531 H 0.21856 0.73306 0.17392 0.0
H1532 H 0.16236 0.67304 0.12441 0.0
H1533 H 0.19649 0.7147 0.13845 0.0
H1534 H 0.14003 0.72385 0.17666 0.0
H1535 H 0.10624 0.68288 0.16244 0.0
C1536 C 0.20666 0.7901 0.18472 0.0
C1537 C 0.22935 0.79137 0.19279 0.0
C1538 C 0.18816 0.76826 0.17301 0.0
C1539 C 0.19189 0.74716 0.16904 0.0
C1540 C 0.21505 0.74893 0.1764 0.0
C1541 C 0.23347 0.77069 0.1881 0.0
C1542 C 0.15727 0.68411 0.13561 0.0
C1543 C 0.13154 0.67447 0.14234 0.0
C1544 C 0.17684 0.70794 0.14378 0.0
C1545 C 0.1711 0.72275 0.15876 0.0
C1546 C 0.14525 0.71331 0.16493 0.0
C1547 C 0.12582 0.68957 0.15688 0.0
H1548 H 0.34835 0.27916 0.05143 0.0
H1549 H 0.32227 0.27387 0.12077 0.0
H1550 H 0.37704 0.32555 0.05622 0.0
H1551 H 0.35014 0.31984 0.12533 0.0
H1552 H 0.38948 0.40809 0.06429 0.0
H1553 H 0.37087 0.36207 0.05947 0.0
H1554 H 0.3932 0.35578 0.12802 0.0
H1555 H 0.41141 0.4022 0.13308 0.0
C1556 C 0.34889 0.28782 0.06771 0.0
C1557 C 0.3328 0.27284 0.0856 0.0
C1558 C 0.36523 0.3144 0.07045 0.0
C1559 C 0.36584 0.32651 0.09115 0.0
C1560 C 0.35051 0.31124 0.10927 0.0
C1561 C 0.33425 0.28481 0.10653 0.0
C1562 C 0.3907 0.39701 0.07833 0.0
C1563 C 0.40163 0.40881 0.09922 0.0
C1564 C 0.38021 0.37055 0.07545 0.0
C1565 C 0.38037 0.3551 0.09337 0.0
C1566 C 0.39242 0.36707 0.11396 0.0
C1567 C 0.40297 0.39367 0.11685 0.0
H1568 H 0.61508 0.98643 0.06409 0.0
H1569 H 0.61777 1.00871 0.13428 0.0
H1570 H 0.66121 0.01419 0.06089 0.0
H1571 H 0.66443 0.03741 0.13088 0.0
H1572 H 0.7474 0.05033 0.12397 0.0
H1573 H 0.70121 0.03174 0.12785 0.0
H1574 H 0.69739 0.05674 0.05968 0.0
H1575 H 0.74392 0.07482 0.05553 0.0
C1576 C 0.62549 0.99758 0.07882 0.0
C1577 C 0.61271 0.99505 0.09957 0.0
C1578 C 0.65205 0.0138 0.07688 0.0
C1579 C 0.6667 0.02807 0.09561 0.0
C1580 C 0.65379 0.02644 0.11616 0.0
C1581 C 0.62704 1.01011 0.11811 0.0
C1582 C 0.73682 0.05212 0.10981 0.0
C1583 C 0.74937 0.06378 0.08929 0.0
C1584 C 0.71025 0.04164 0.11217 0.0
C1585 C 0.69542 0.04255 0.09407 0.0
C1586 C 0.70814 0.05532 0.07387 0.0
C1587 C 0.73484 0.06581 0.0715 0.0
H1588 H 0.9499 0.67562 0.04737 0.0
H1589 H 0.97125 0.70265 0.11631 0.0
H1590 H 0.96804 0.64726 0.05255 0.0
H1591 H 0.98976 0.67512 0.12126 0.0
H1592 H 1.01135 0.61401 0.12989 0.0
H1593 H 0.98315 0.63231 0.12467 0.0
H1594 H 1.01081 0.65352 0.05572 0.0
H1595 H 0.03821 0.63483 0.06071 0.0
C1596 C 0.9582 0.67533 0.06365 0.0
C1597 C 0.95934 0.6916 0.08131 0.0
C1598 C 0.96873 0.6592 0.06662 0.0
C1599 C 0.98052 0.65896 0.08732 0.0
C1600 C 0.98059 0.67446 0.10521 0.0
C1601 C 0.97017 0.69052 0.10224 0.0
C1602 C 1.01107 0.62224 0.11354 0.0
C1603 C 0.02725 0.62318 0.09583 0.0
C1604 C 0.99502 0.63285 0.11055 0.0
C1605 C 0.99477 0.64456 0.08978 0.0
C1606 C 1.01017 0.64443 0.07184 0.0
C1607 C 0.02615 0.6339 0.07482 0.0
H1608 H 0.27795 0.34669 0.42266 0.0
H1609 H 0.31242 0.32605 0.47734 0.0
H1610 H 0.32027 0.37183 0.4047 0.0
H1611 H 0.35486 0.35197 0.45966 0.0
H1612 H 0.42921 0.41908 0.42771 0.0
H1613 H 0.38704 0.40257 0.44581 0.0
H1614 H 0.35084 0.35245 0.38862 0.0
H1615 H 0.39308 0.36826 0.37075 0.0
C1616 C 0.29464 0.34812 0.4312 0.0
C1617 C 0.29185 0.33437 0.45147 0.0
C1618 C 0.3188 0.36239 0.42082 0.0
C1619 C 0.34073 0.36378 0.43079 0.0
C1620 C 0.33822 0.35131 0.45171 0.0
C1621 C 0.31397 0.33649 0.46181 0.0
C1622 C 0.41222 0.40498 0.41872 0.0
C1623 C 0.41447 0.39496 0.39776 0.0
C1624 C 0.38814 0.39544 0.42918 0.0
C1625 C 0.36579 0.37624 0.41862 0.0
C1626 C 0.36781 0.36737 0.39704 0.0
C1627 C 0.39195 0.37642 0.38683 0.0
H1628 H 0.63483 0.02994 0.45646 0.0
H1629 H 0.62148 0.01188 0.38494 0.0
H1630 H 0.65454 1.00332 0.45996 0.0
H1631 H 0.64075 0.98436 0.38859 0.0
H1632 H 0.71243 0.97496 0.39811 0.0
H1633 H 0.68386 0.99237 0.39384 0.0
H1634 H 0.65029 0.96139 0.45959 0.0
H1635 H 0.67965 0.94438 0.46415 0.0
C1636 C 0.6357 0.0199 0.4415 0.0
C1637 C 0.62687 0.02333 0.42032 0.0
C1638 C 0.64683 1.00437 0.44359 0.0
C1639 C 0.64944 0.99175 0.42456 0.0
C1640 C 0.63941 0.99412 0.40355 0.0
C1641 C 0.62821 1.00973 0.40145 0.0
C1642 C 0.69886 0.97164 0.41166 0.0
C1643 C 0.69857 0.95851 0.43163 0.0
C1644 C 0.68221 0.98143 0.40906 0.0
C1645 C 0.66472 0.97837 0.42634 0.0
C1646 C 0.66374 0.96439 0.44603 0.0
C1647 C 0.68049 0.95455 0.44864 0.0
H1648 H 0.06999 0.74434 0.39595 0.0
H1649 H 0.07907 0.73937 0.46835 0.0
H1650 H 0.04967 0.69804 0.39289 0.0
H1651 H 0.05947 0.69263 0.46516 0.0
H1652 H 0.02189 0.61375 0.38964 0.0
H1653 H 0.05192 0.65983 0.39426 0.0
H1654 H 0.01726 0.65791 0.45924 0.0
H1655 H 0.98823 0.61215 0.45502 0.0
C1656 C 0.0681 0.73339 0.41122 0.0
C1657 C 0.07584 0.74559 0.43249 0.0
C1658 C 0.05661 0.7067 0.4094 0.0
C1659 C 0.05266 0.6914 0.42878 0.0
C1660 C 0.06174 0.70374 0.44991 0.0
C1661 C 0.07316 0.73056 0.45176 0.0
C1662 C 0.02097 0.62317 0.40502 0.0
C1663 C 1.00249 0.60928 0.42183 0.0
C1664 C 0.0381 0.64961 0.40765 0.0
C1665 C 0.037 0.66276 0.4271 0.0
C1666 C 0.01907 0.64854 0.44421 0.0
C1667 C 1.00215 0.6222 0.44165 0.0
H1668 H 0.61068 0.61199 0.89301 0.0
H1669 H 0.6563 0.61355 0.95054 0.0
H1670 H 0.62697 0.65815 0.89764 0.0
H1671 H 0.67308 0.65934 0.95466 0.0
H1672 H 0.69008 0.74401 0.89391 0.0
H1673 H 0.66597 0.69748 0.89172 0.0
H1674 H 0.66492 0.69273 0.96511 0.0
H1675 H 0.69012 0.73967 0.96727 0.0
C1676 C 0.62411 0.62213 0.90663 0.0
C1677 C 0.63226 0.60907 0.92129 0.0
C1678 C 0.63355 0.64861 0.90927 0.0
C1679 C 0.65141 0.6626 0.92655 0.0
C1680 C 0.65904 0.64928 0.94144 0.0
C1681 C 0.64955 0.62293 0.93889 0.0
C1682 C 0.68453 0.73313 0.90966 0.0
C1683 C 0.69234 0.74563 0.9308 0.0
C1684 C 0.67044 0.70631 0.90837 0.0
C1685 C 0.66357 0.69118 0.9282 0.0
C1686 C 0.67028 0.70373 0.94944 0.0
C1687 C 0.68458 0.73066 0.95072 0.0
H1688 H 0.28945 0.9638 0.96336 0.0
H1689 H 0.2815 0.9353 0.89477 0.0
H1690 H 0.33623 0.9857 0.95954 0.0
H1691 H 0.32813 0.95639 0.89114 0.0
H1692 H 0.41013 0.02616 0.88262 0.0
H1693 H 0.36354 0.99867 0.88657 0.0
H1694 H 0.37364 0.98203 0.95618 0.0
H1695 H 0.41992 1.01012 0.95238 0.0
C1696 C 0.29769 0.96169 0.94768 0.0
C1697 C 0.28177 0.94794 0.92935 0.0
C1698 C 0.32456 0.97423 0.94544 0.0
C1699 C 0.3361 0.97309 0.92489 0.0
C1700 C 0.32003 0.95824 0.907 0.0
C1701 C 0.29325 0.94594 0.90917 0.0
C1702 C 0.40237 0.01632 0.89863 0.0
C1703 C 0.41869 0.02047 0.91721 0.0
C1704 C 0.37564 1.00048 0.90094 0.0
C1705 C 0.36467 0.98824 0.92182 0.0
C1706 C 0.38123 0.99155 0.94003 0.0
C1707 C 0.40784 1.00754 0.93778 0.0
H1708 H 0.07059 0.34147 0.96888 0.0
H1709 H 0.05227 0.31205 0.9005 0.0
H1710 H 0.05668 0.37263 0.95984 0.0
H1711 H 0.0402 0.34393 0.89087 0.0
H1712 H 0.98612 0.37614 0.88962 0.0
H1713 H 1.00593 0.35017 0.89675 0.0
H1714 H 0.06191 0.40944 0.94073 0.0
H1715 H 0.04094 0.43492 0.93443 0.0
C1716 C 0.06416 0.34212 0.9518 0.0
C1717 C 0.06213 0.3242 0.93549 0.0
C1718 C 0.05628 0.36003 0.94651 0.0
C1719 C 0.04678 0.36063 0.92465 0.0
C1720 C 0.04646 0.34361 0.90807 0.0
C1721 C 0.05364 0.32543 0.91353 0.0
C1722 C 1.00291 0.38388 0.90051 0.0
C1723 C 1.01191 0.40763 0.91144 0.0
C1724 C 1.01445 0.36896 0.90459 0.0
C1725 C 0.03569 0.37757 0.91939 0.0
C1726 C 0.04536 0.40189 0.92958 0.0
C1727 C 0.03351 0.41666 0.92576 0.0
H1728 H 0.74291 0.7022 0.55108 0.0
H1729 H 0.74997 0.65452 0.60255 0.0
H1730 H 0.69651 0.67963 0.55674 0.0
H1731 H 0.70335 0.63142 0.60782 0.0
H1732 H 0.62393 0.62043 0.63048 0.0
H1733 H 0.67011 0.63829 0.62373 0.0
H1734 H 0.6577 0.63996 0.55148 0.0
H1735 H 0.61208 0.62297 0.55829 0.0
C1736 C 0.73453 0.68655 0.56328 0.0
C1737 C 0.75023 0.68022 0.57635 0.0
C1738 C 0.70783 0.67351 0.56652 0.0
C1739 C 0.69608 0.6537 0.58283 0.0
C1740 C 0.71173 0.64683 0.59539 0.0
C1741 C 0.73847 0.65994 0.59219 0.0
C1742 C 0.63111 0.6244 0.61318 0.0
C1743 C 0.6144 0.62056 0.59497 0.0
C1744 C 0.65756 0.63456 0.60926 0.0
C1745 C 0.66776 0.64089 0.58704 0.0
C1746 C 0.65073 0.63594 0.56884 0.0
C1747 C 0.62447 0.62604 0.57276 0.0
H1748 H 0.35015 0.08358 0.58632 0.0
H1749 H 0.32459 0.03456 0.52716 0.0
H1750 H 0.3727 0.06164 0.59995 0.0
H1751 H 0.34784 0.01334 0.54028 0.0
H1752 H 0.35527 0.95591 0.58386 0.0
H1753 H 0.33901 0.98307 0.56997 0.0
H1754 H 0.40643 0.05017 0.59611 0.0
H1755 H 0.42262 0.02239 0.61071 0.0
C1756 C 0.34996 0.06863 0.57587 0.0
C1757 C 0.33525 0.06057 0.55577 0.0
C1758 C 0.36292 0.05604 0.58372 0.0
C1759 C 0.36159 0.03525 0.57154 0.0
C1760 C 0.34862 0.02871 0.55051 0.0
C1761 C 0.33547 0.04106 0.54282 0.0
C1762 C 0.36668 0.97645 0.58678 0.0
C1763 C 0.39034 0.98699 0.59828 0.0
C1764 C 0.35744 0.99212 0.57857 0.0
C1765 C 0.37167 0.01896 0.58134 0.0
C1766 C 0.395 0.02958 0.59359 0.0
C1767 C 0.40425 0.0137 0.60202 0.0
H1768 H 0.03977 0.42074 0.54854 0.0
H1769 H 0.0265 0.39747 0.61907 0.0
H1770 H 1.01355 0.37622 0.53684 0.0
H1771 H 1.00059 0.35237 0.6073 0.0
H1772 H 0.94286 0.27385 0.57803 0.0
H1773 H 0.96173 0.31906 0.58868 0.0
H1774 H 0.01976 0.33989 0.53662 0.0
H1775 H 1.0007 0.29502 0.52572 0.0
C1776 C 0.0311 0.40605 0.56159 0.0
C1777 C 0.03546 0.41258 0.58474 0.0
C1778 C 0.01615 0.38046 0.55485 0.0
C1779 C 1.00532 0.36059 0.57107 0.0
C1780 C 1.00855 0.36719 0.59433 0.0
C1781 C 0.02342 0.393 0.60111 0.0
C1782 C 0.95937 0.28815 0.56858 0.0
C1783 C 0.97024 0.28075 0.55097 0.0
C1784 C 0.97033 0.31405 0.57486 0.0
C1785 C 0.99234 0.33317 0.56361 0.0
C1786 C 1.00261 0.3258 0.54549 0.0
C1787 C 0.99169 0.29997 0.53924 0.0
H1788 H 0.95018 0.64909 0.72947 0.0
H1789 H 0.95531 0.67621 0.79832 0.0
H1790 H 0.99636 0.67594 0.72507 0.0
H1791 H 1.00195 0.70386 0.79369 0.0
H1792 H 0.08411 0.71498 0.78656 0.0
H1793 H 0.03804 0.69678 0.79103 0.0
H1794 H 0.03287 0.71868 0.722 0.0
H1795 H 0.07933 0.73648 0.7173 0.0
C1796 C 0.96114 0.66108 0.74363 0.0
C1797 C 0.94905 0.66025 0.76438 0.0
C1798 C 0.9877 0.67674 0.74099 0.0
C1799 C 1.00299 0.69208 0.75901 0.0
C1800 C 0.99079 0.69204 0.77953 0.0
C1801 C 0.96407 0.6763 0.78218 0.0
C1802 C 0.07326 0.71616 0.77232 0.0
C1803 C 0.0854 0.72692 0.75144 0.0
C1804 C 0.04677 0.70591 0.77501 0.0
C1805 C 0.03162 0.70613 0.75688 0.0
C1806 C 0.04391 0.71788 0.73624 0.0
C1807 C 0.07054 0.72819 0.73355 0.0
H1808 H 0.24494 0.30358 0.75392 0.0
H1809 H 0.31753 0.3655 0.72912 0.0
H1810 H 0.2661 0.27915 0.76447 0.0
H1811 H 0.33858 0.34115 0.73988 0.0
H1812 H 0.37185 0.3057 0.78898 0.0
H1813 H 0.3481 0.3274 0.77831 0.0
H1814 H 0.28995 0.25793 0.74614 0.0
H1815 H 0.31382 0.23614 0.75659 0.0
C1816 C 0.26532 0.31185 0.75045 0.0
C1817 C 0.27954 0.33654 0.74071 0.0
C1818 C 0.27741 0.29784 0.75651 0.0
C1819 C 0.30404 0.30839 0.75329 0.0
C1820 C 0.31809 0.33271 0.7429 0.0
C1821 C 0.30596 0.34654 0.73653 0.0
C1822 C 0.3538 0.29487 0.77994 0.0
C1823 C 0.34478 0.26917 0.77359 0.0
C1824 C 0.34035 0.30741 0.77363 0.0
C1825 C 0.31736 0.29446 0.76113 0.0
C1826 C 0.30763 0.2684 0.75575 0.0
C1827 C 0.3213 0.25594 0.76176 0.0
H1828 H 0.7088 0.94319 0.76276 0.0
H1829 H 0.66547 0.95048 0.70737 0.0
H1830 H 0.72621 0.98856 0.77195 0.0
H1831 H 0.68343 0.99591 0.71612 0.0
H1832 H 0.68739 0.06138 0.75669 0.0
H1833 H 0.67559 0.0178 0.74633 0.0
H1834 H 0.75282 0.03396 0.76141 0.0
H1835 H 0.7646 0.07799 0.77237 0.0
C1836 C 0.70351 0.95461 0.75215 0.0
C1837 C 0.68549 0.94309 0.73446 0.0
C1838 C 0.71353 0.98067 0.75744 0.0
C1839 C 0.70582 0.99581 0.7451 0.0
C1840 C 0.68924 0.98467 0.7264 0.0
C1841 C 0.67911 0.95864 0.72122 0.0
C1842 C 0.70192 0.05571 0.75791 0.0
C1843 C 0.727 0.07324 0.76523 0.0
C1844 C 0.69519 0.0307 0.75173 0.0
C1845 C 0.71338 0.02244 0.75251 0.0
C1846 C 0.73834 0.03969 0.76056 0.0
C1847 C 0.74509 0.06488 0.76688 0.0
H1848 H 0.28277 0.94387 0.2215 0.0
H1849 H 0.30783 0.94252 0.29012 0.0
H1850 H 0.29979 0.99025 0.22467 0.0
H1851 H 0.32578 0.98856 0.29294 0.0
H1852 H 0.36563 0.0743 0.22733 0.0
H1853 H 0.33976 0.028 0.22484 0.0
H1854 H 0.32004 0.02423 0.29604 0.0
H1855 H 0.34729 0.07098 0.29875 0.0
C1856 C 0.29186 0.95344 0.23724 0.0
C1857 C 0.29407 0.93948 0.25546 0.0
C1858 C 0.30176 0.98007 0.23907 0.0
C1859 C 0.31438 0.99338 0.25905 0.0
C1860 C 0.31586 0.97914 0.27743 0.0
C1861 C 0.30573 0.9526 0.2757 0.0
C1862 C 0.35563 0.06371 0.24248 0.0
C1863 C 0.35884 0.0764 0.26335 0.0
C1864 C 0.34049 0.03699 0.24098 0.0
C1865 C 0.32781 0.02211 0.26024 0.0
C1866 C 0.32993 0.03495 0.28091 0.0
C1867 C 0.3454 0.06179 0.28248 0.0
H1868 H 0.95853 0.2899 0.29849 0.0
H1869 H 0.94584 0.29091 0.22629 0.0
H1870 H 1.00462 0.30759 0.29141 0.0
H1871 H 0.99138 0.30771 0.21916 0.0
H1872 H 0.0765 0.37043 0.21793 0.0
H1873 H 0.03013 0.34758 0.22378 0.0
H1874 H 0.03781 0.30059 0.27559 0.0
H1875 H 0.08439 0.32397 0.27012 0.0
C1876 C 0.9655 0.29348 0.28112 0.0
C1877 C 0.94859 0.28929 0.263 0.0
C1878 C 0.9919 0.30353 0.27701 0.0
C1879 C 1.00184 0.30941 0.25469 0.0
C1880 C 0.9846 0.30406 0.23659 0.0
C1881 C 0.9584 0.29426 0.24069 0.0
C1882 C 0.0683 0.35497 0.23033 0.0
C1883 C 0.08423 0.3491 0.24356 0.0
C1884 C 0.04163 0.34178 0.23368 0.0
C1885 C 0.03013 0.32225 0.25027 0.0
C1886 C 0.04599 0.31578 0.26295 0.0
C1887 C 0.07271 0.32905 0.25964 0.0
H1888 H 0.72123 0.65562 0.29588 0.0
H1889 H 0.76638 0.69371 0.23615 0.0
H1890 H 0.69806 0.67912 0.29157 0.0
H1891 H 0.74377 0.71781 0.2322 0.0
H1892 H 0.67379 0.72831 0.21562 0.0
H1893 H 0.70236 0.71053 0.22096 0.0
H1894 H 0.70006 0.71947 0.2937 0.0
H1895 H 0.67098 0.73627 0.28835 0.0
C1896 C 0.72664 0.66946 0.28215 0.0
C1897 C 0.7456 0.6727 0.26634 0.0
C1898 C 0.71336 0.68301 0.27965 0.0
C1899 C 0.71887 0.70031 0.2614 0.0
C1900 C 0.73862 0.70431 0.24618 0.0
C1901 C 0.75177 0.69064 0.24858 0.0
C1902 C 0.67971 0.72677 0.23269 0.0
C1903 C 0.66994 0.73344 0.25155 0.0
C1904 C 0.69614 0.71663 0.23579 0.0
C1905 C 0.70333 0.71323 0.25783 0.0
C1906 C 0.69448 0.72116 0.27654 0.0
C1907 C 0.67791 0.73098 0.27345 0.0
loop_
_geom_bond_atom_site_label_1
_geom_bond_atom_site_label_2
_geom_bond_distance
_geom_bond_site_symmetry_2
_ccdc_geom_bond_type
Mg0 O7 2.141 . S
Mg0 O8 2.048 . S
Mg0 O9 2.048 . S
Mg0 O12 2.141 . S
C1 O2 1.313 . S
C1 O8 1.195 . S
O2 C1 1.313 . S
C3 O4 1.245 . S
C3 O12 1.289 . S
O4 C3 1.245 . S
C5 O6 1.245 . S
C5 O7 1.289 . S
O6 C5 1.245 . S
O7 Mg0 2.141 . S
O7 C5 1.289 . S
O8 Mg0 2.048 . S
O8 C1 1.195 . S
O9 Mg0 2.048 . S
O9 C10 1.195 . S
C10 O9 1.195 . S
C10 O11 1.313 . S
O11 C10 1.313 . S
O12 Mg0 2.141 . S
O12 C3 1.289 . S
Mg13 O20 2.141 . S
Mg13 O21 2.048 . S
Mg13 O22 2.048 . S
Mg13 O25 2.141 . S
C14 O15 1.313 . S
C14 O21 1.195 . S
O15 C14 1.313 . S
C16 O17 1.245 . S
C16 O25 1.289 . S
O17 C16 1.245 . S
C18 O19 1.245 . S
C18 O20 1.289 . S
O19 C18 1.245 . S
O20 Mg13 2.141 . S
O20 C18 1.289 . S
O21 Mg13 2.048 . S
O21 C14 1.195 . S
O22 Mg13 2.048 . S
O22 C23 1.195 . S
C23 O22 1.195 . S
C23 O24 1.313 . S
O24 C23 1.313 . S
O25 Mg13 2.141 . S
O25 C16 1.289 . S
Mg26 O33 2.141 . S
Mg26 O34 2.048 . S
Mg26 O35 2.048 . S
Mg26 O38 2.141 . S
C27 O28 1.313 . S
C27 O34 1.195 . S
O28 C27 1.313 . S
C29 O30 1.245 . S
C29 O38 1.289 . S
O30 C29 1.245 . S
C31 O32 1.245 . S
C31 O33 1.289 . S
O32 C31 1.245 . S
O33 Mg26 2.141 . S
O33 C31 1.289 . S
O34 Mg26 2.048 . S
O34 C27 1.195 . S
O35 Mg26 2.048 . S
O35 C36 1.195 . S
C36 O35 1.195 . S
C36 O37 1.313 . S
O37 C36 1.313 . S
O38 Mg26 2.141 . S
O38 C29 1.289 . S
Mg39 O46 2.141 . S
Mg39 O47 2.048 . S
Mg39 O48 2.048 . S
Mg39 O51 2.141 . S
C40 O41 1.313 . S
C40 O47 1.195 . S
O41 C40 1.313 . S
C42 O43 1.245 . S
C42 O51 1.289 . S
O43 C42 1.245 . S
C44 O45 1.245 . S
C44 O46 1.289 . S
O45 C44 1.245 . S
O46 Mg39 2.141 . S
O46 C44 1.289 . S
O47 Mg39 2.048 . S
O47 C40 1.195 . S
O48 Mg39 2.048 . S
O48 C49 1.195 . S
C49 O48 1.195 . S
C49 O50 1.313 . S
O50 C49 1.313 . S
O51 Mg39 2.141 . S
O51 C42 1.289 . S
Mg52 O59 2.141 . S
Mg52 O60 2.048 . S
Mg52 O61 2.048 . S
Mg52 O64 2.141 . S
C53 O54 1.313 . S
C53 O60 1.195 . S
O54 C53 1.313 . S
C55 O56 1.245 . S
C55 O64 1.289 . S
O56 C55 1.245 . S
C57 O58 1.245 . S
C57 O59 1.289 . S
O58 C57 1.245 . S
O59 Mg52 2.141 . S
O59 C57 1.289 . S
O60 Mg52 2.048 . S
O60 C53 1.195 . S
O61 Mg52 2.048 . S
O61 C62 1.195 . S
C62 O61 1.195 . S
C62 O63 1.313 . S
O63 C62 1.313 . S
O64 Mg52 2.141 . S
O64 C55 1.289 . S
Mg65 O72 2.141 . S
Mg65 O73 2.048 . S
Mg65 O74 2.048 . S
Mg65 O77 2.141 . S
C66 O67 1.313 . S
C66 O73 1.195 . S
O67 C66 1.313 . S
C68 O69 1.245 . S
C68 O77 1.289 . S
O69 C68 1.245 . S
C70 O71 1.245 . S
C70 O72 1.289 . S
O71 C70 1.245 . S
O72 Mg65 2.141 . S
O72 C70 1.289 . S
O73 Mg65 2.048 . S
O73 C66 1.195 . S
O74 Mg65 2.048 . S
O74 C75 1.195 . S
C75 O74 1.195 . S
C75 O76 1.313 . S
O76 C75 1.313 . S
O77 Mg65 2.141 . S
O77 C68 1.289 . S
Mg78 O85 2.141 . S
Mg78 O86 2.048 . S
Mg78 O87 2.048 . S
Mg78 O90 2.141 . S
C79 O80 1.313 . S
C79 O86 1.195 . S
O80 C79 1.313 . S
C81 O82 1.245 . S
C81 O90 1.289 . S
O82 C81 1.245 . S
C83 O84 1.245 . S
C83 O85 1.289 . S
O84 C83 1.245 . S
O85 Mg78 2.141 . S
O85 C83 1.289 . S
O86 Mg78 2.048 . S
O86 C79 1.195 . S
O87 Mg78 2.048 . S
O87 C88 1.195 . S
C88 O87 1.195 . S
C88 O89 1.313 . S
O89 C88 1.313 . S
O90 Mg78 2.141 . S
O90 C81 1.289 . S
Mg91 O98 2.141 . S
Mg91 O99 2.048 . S
Mg91 O100 2.048 . S
Mg91 O103 2.141 . S
C92 O93 1.313 . S
C92 O99 1.195 . S
O93 C92 1.313 . S
C94 O95 1.245 . S
C94 O103 1.289 . S
O95 C94 1.245 . S
C96 O97 1.245 . S
C96 O98 1.289 . S
O97 C96 1.245 . S
O98 Mg91 2.141 . S
O98 C96 1.289 . S
O99 Mg91 2.048 . S
O99 C92 1.195 . S
O100 Mg91 2.048 . S
O100 C101 1.195 . S
C101 O100 1.195 . S
C101 O102 1.313 . S
O102 C101 1.313 . S
O103 Mg91 2.141 . S
O103 C94 1.289 . S
Mg104 O111 2.141 . S
Mg104 O112 2.048 . S
Mg104 O113 2.048 . S
Mg104 O116 2.141 . S
C105 O106 1.313 . S
C105 O112 1.195 . S
O106 C105 1.313 . S
C107 O108 1.245 . S
C107 O116 1.289 . S
O108 C107 1.245 . S
C109 O110 1.245 . S
C109 O111 1.289 . S
O110 C109 1.245 . S
O111 Mg104 2.141 . S
O111 C109 1.289 . S
O112 Mg104 2.048 . S
O112 C105 1.195 . S
O113 Mg104 2.048 . S
O113 C114 1.195 . S
C114 O113 1.195 . S
C114 O115 1.313 . S
O115 C114 1.313 . S
O116 Mg104 2.141 . S
O116 C107 1.289 . S
Mg117 O124 2.141 . S
Mg117 O125 2.048 . S
Mg117 O126 2.048 . S
Mg117 O129 2.141 . S
C118 O119 1.313 . S
C118 O125 1.195 . S
O119 C118 1.313 . S
C120 O121 1.245 . S
C120 O129 1.289 . S
O121 C120 1.245 . S
C122 O123 1.245 . S
C122 O124 1.289 . S
O123 C122 1.245 . S
O124 Mg117 2.141 . S
O124 C122 1.289 . S
O125 Mg117 2.048 . S
O125 C118 1.195 . S
O126 Mg117 2.048 . S
O126 C127 1.195 . S
C127 O126 1.195 . S
C127 O128 1.313 . S
O128 C127 1.313 . S
O129 Mg117 2.141 . S
O129 C120 1.289 . S
Mg130 O137 2.141 . S
Mg130 O138 2.048 . S
Mg130 O139 2.048 . S
Mg130 O142 2.141 . S
C131 O132 1.313 . S
C131 O138 1.195 . S
O132 C131 1.313 . S
C133 O134 1.245 . S
C133 O142 1.289 . S
O134 C133 1.245 . S
C135 O136 1.245 . S
C135 O137 1.289 . S
O136 C135 1.245 . S
O137 Mg130 2.141 . S
O137 C135 1.289 . S
O138 Mg130 2.048 . S
O138 C131 1.195 . S
O139 Mg130 2.048 . S
O139 C140 1.195 . S
C140 O139 1.195 . S
C140 O141 1.313 . S
O141 C140 1.313 . S
O142 Mg130 2.141 . S
O142 C133 1.289 . S
Mg143 O150 2.141 . S
Mg143 O151 2.048 . S
Mg143 O152 2.048 . S
Mg143 O155 2.141 . S
C144 O145 1.313 . S
C144 O151 1.195 . S
O145 C144 1.313 . S
C146 O147 1.245 . S
C146 O155 1.289 . S
O147 C146 1.245 . S
C148 O149 1.245 . S
C148 O150 1.289 . S
O149 C148 1.245 . S
O150 Mg143 2.141 . S
O150 C148 1.289 . S
O151 Mg143 2.048 . S
O151 C144 1.195 . S
O152 Mg143 2.048 . S
O152 C153 1.195 . S
C153 O152 1.195 . S
C153 O154 1.313 . S
O154 C153 1.313 . S
O155 Mg143 2.141 . S
O155 C146 1.289 . S
Mg156 O163 2.141 . S
Mg156 O164 2.048 . S
Mg156 O165 2.048 . S
Mg156 O168 2.141 . S
C157 O158 1.313 . S
C157 O164 1.195 . S
O158 C157 1.313 . S
C159 O160 1.245 . S
C159 O168 1.289 . S
O160 C159 1.245 . S
C161 O162 1.245 . S
C161 O163 1.289 . S
O162 C161 1.245 . S
O163 Mg156 2.141 . S
O163 C161 1.289 . S
O164 Mg156 2.048 . S
O164 C157 1.195 . S
O165 Mg156 2.048 . S
O165 C166 1.195 . S
C166 O165 1.195 . S
C166 O167 1.313 . S
O167 C166 1.313 . S
O168 Mg156 2.141 . S
O168 C159 1.289 . S
Mg169 O176 2.141 . S
Mg169 O177 2.048 . S
Mg169 O178 2.048 . S
Mg169 O181 2.141 . S
C170 O171 1.313 . S
C170 O177 1.195 . S
O171 C170 1.313 . S
C172 O173 1.245 . S
C172 O181 1.289 . S
O173 C172 1.245 . S
C174 O175 1.245 . S
C174 O176 1.289 . S
O175 C174 1.245 . S
O176 Mg169 2.141 . S
O176 C174 1.289 . S
O177 Mg169 2.048 . S
O177 C170 1.195 . S
O178 Mg169 2.048 . S
O178 C179 1.195 . S
C179 O178 1.195 . S
C179 O180 1.313 . S
O180 C179 1.313 . S
O181 Mg169 2.141 . S
O181 C172 1.289 . S
Mg182 O189 2.141 . S
Mg182 O190 2.048 . S
Mg182 O191 2.048 . S
Mg182 O194 2.141 . S
C183 O184 1.313 . S
C183 O190 1.195 . S
O184 C183 1.313 . S
C185 O186 1.245 . S
C185 O194 1.289 . S
O186 C185 1.245 . S
C187 O188 1.245 . S
C187 O189 1.289 . S
O188 C187 1.245 . S
O189 Mg182 2.141 . S
O189 C187 1.289 . S
O190 Mg182 2.048 . S
O190 C183 1.195 . S
O191 Mg182 2.048 . S
O191 C192 1.195 . S
C192 O191 1.195 . S
C192 O193 1.313 . S
O193 C192 1.313 . S
O194 Mg182 2.141 . S
O194 C185 1.289 . S
Mg195 O202 2.141 . S
Mg195 O203 2.048 . S
Mg195 O204 2.048 . S
Mg195 O207 2.141 . S
C196 O197 1.313 . S
C196 O203 1.195 . S
O197 C196 1.313 . S
C198 O199 1.245 . S
C198 O207 1.289 . S
O199 C198 1.245 . S
C200 O201 1.245 . S
C200 O202 1.289 . S
O201 C200 1.245 . S
O202 Mg195 2.141 . S
O202 C200 1.289 . S
O203 Mg195 2.048 . S
O203 C196 1.195 . S
O204 Mg195 2.048 . S
O204 C205 1.195 . S
C205 O204 1.195 . S
C205 O206 1.313 . S
O206 C205 1.313 . S
O207 Mg195 2.141 . S
O207 C198 1.289 . S
Mg208 O215 2.141 . S
Mg208 O216 2.048 . S
Mg208 O217 2.048 . S
Mg208 O220 2.141 . S
C209 O210 1.313 . S
C209 O216 1.195 . S
O210 C209 1.313 . S
C211 O212 1.245 . S
C211 O220 1.289 . S
O212 C211 1.245 . S
C213 O214 1.245 . S
C213 O215 1.289 . S
O214 C213 1.245 . S
O215 Mg208 2.141 . S
O215 C213 1.289 . S
O216 Mg208 2.048 . S
O216 C209 1.195 . S
O217 Mg208 2.048 . S
O217 C218 1.195 . S
C218 O217 1.195 . S
C218 O219 1.313 . S
O219 C218 1.313 . S
O220 Mg208 2.141 . S
O220 C211 1.289 . S
Mg221 O228 2.141 . S
Mg221 O229 2.048 . S
Mg221 O230 2.048 . S
Mg221 O233 2.141 . S
C222 O223 1.313 . S
C222 O229 1.195 . S
O223 C222 1.313 . S
C224 O225 1.245 . S
C224 O233 1.289 . S
O225 C224 1.245 . S
C226 O227 1.245 . S
C226 O228 1.289 . S
O227 C226 1.245 . S
O228 Mg221 2.141 . S
O228 C226 1.289 . S
O229 Mg221 2.048 . S
O229 C222 1.195 . S
O230 Mg221 2.048 . S
O230 C231 1.195 . S
C231 O230 1.195 . S
C231 O232 1.313 . S
O232 C231 1.313 . S
O233 Mg221 2.141 . S
O233 C224 1.289 . S
Mg234 O241 2.141 . S
Mg234 O242 2.048 . S
Mg234 O243 2.048 . S
Mg234 O246 2.141 . S
C235 O236 1.313 . S
C235 O242 1.195 . S
O236 C235 1.313 . S
C237 O238 1.245 . S
C237 O246 1.289 . S
O238 C237 1.245 . S
C239 O240 1.245 . S
C239 O241 1.289 . S
O240 C239 1.245 . S
O241 Mg234 2.141 . S
O241 C239 1.289 . S
O242 Mg234 2.048 . S
O242 C235 1.195 . S
O243 Mg234 2.048 . S
O243 C244 1.195 . S
C244 O243 1.195 . S
C244 O245 1.313 . S
O245 C244 1.313 . S
O246 Mg234 2.141 . S
O246 C237 1.289 . S
Mg247 O254 2.141 . S
Mg247 O255 2.048 . S
Mg247 O256 2.048 . S
Mg247 O259 2.141 . S
C248 O249 1.313 . S
C248 O255 1.195 . S
O249 C248 1.313 . S
C250 O251 1.245 . S
C250 O259 1.289 . S
O251 C250 1.245 . S
C252 O253 1.245 . S
C252 O254 1.289 . S
O253 C252 1.245 . S
O254 Mg247 2.141 . S
O254 C252 1.289 . S
O255 Mg247 2.048 . S
O255 C248 1.195 . S
O256 Mg247 2.048 . S
O256 C257 1.195 . S
C257 O256 1.195 . S
C257 O258 1.313 . S
O258 C257 1.313 . S
O259 Mg247 2.141 . S
O259 C250 1.289 . S
Mg260 O267 2.141 . S
Mg260 O268 2.048 . S
Mg260 O269 2.048 . S
Mg260 O272 2.141 . S
C261 O262 1.313 . S
C261 O268 1.195 . S
O262 C261 1.313 . S
C263 O264 1.245 . S
C263 O272 1.289 . S
O264 C263 1.245 . S
C265 O266 1.245 . S
C265 O267 1.289 . S
O266 C265 1.245 . S
O267 Mg260 2.141 . S
O267 C265 1.289 . S
O268 Mg260 2.048 . S
O268 C261 1.195 . S
O269 Mg260 2.048 . S
O269 C270 1.195 . S
C270 O269 1.195 . S
C270 O271 1.313 . S
O271 C270 1.313 . S
O272 Mg260 2.141 . S
O272 C263 1.289 . S
Mg273 O280 2.141 . S
Mg273 O281 2.048 . S
Mg273 O282 2.048 . S
Mg273 O285 2.141 . S
C274 O275 1.313 . S
C274 O281 1.195 . S
O275 C274 1.313 . S
C276 O277 1.245 . S
C276 O285 1.289 . S
O277 C276 1.245 . S
C278 O279 1.245 . S
C278 O280 1.289 . S
O279 C278 1.245 . S
O280 Mg273 2.141 . S
O280 C278 1.289 . S
O281 Mg273 2.048 . S
O281 C274 1.195 . S
O282 Mg273 2.048 . S
O282 C283 1.195 . S
C283 O282 1.195 . S
C283 O284 1.313 . S
O284 C283 1.313 . S
O285 Mg273 2.141 . S
O285 C276 1.289 . S
Mg286 O293 2.141 . S
Mg286 O294 2.048 . S
Mg286 O295 2.048 . S
Mg286 O298 2.141 . S
C287 O288 1.313 . S
C287 O294 1.195 . S
O288 C287 1.313 . S
C289 O290 1.245 . S
C289 O298 1.289 . S
O290 C289 1.245 . S
C291 O292 1.245 . S
C291 O293 1.289 . S
O292 C291 1.245 . S
O293 Mg286 2.141 . S
O293 C291 1.289 . S
O294 Mg286 2.048 . S
O294 C287 1.195 . S
O295 Mg286 2.048 . S
O295 C296 1.195 . S
C296 O295 1.195 . S
C296 O297 1.313 . S
O297 C296 1.313 . S
O298 Mg286 2.141 . S
O298 C289 1.289 . S
Mg299 O306 2.141 . S
Mg299 O307 2.048 . S
Mg299 O308 2.048 . S
Mg299 O311 2.141 . S
C300 O301 1.313 . S
C300 O307 1.195 . S
O301 C300 1.313 . S
C302 O303 1.245 . S
C302 O311 1.289 . S
O303 C302 1.245 . S
C304 O305 1.245 . S
C304 O306 1.289 . S
O305 C304 1.245 . S
O306 Mg299 2.141 . S
O306 C304 1.289 . S
O307 Mg299 2.048 . S
O307 C300 1.195 . S
O308 Mg299 2.048 . S
O308 C309 1.195 . S
C309 O308 1.195 . S
C309 O310 1.313 . S
O310 C309 1.313 . S
O311 Mg299 2.141 . S
O311 C302 1.289 . S
Mg312 O319 2.141 . S
Mg312 O320 2.048 . S
Mg312 O321 2.048 . S
Mg312 O324 2.141 . S
C313 O314 1.313 . S
C313 O320 1.195 . S
O314 C313 1.313 . S
C315 O316 1.245 . S
C315 O324 1.289 . S
O316 C315 1.245 . S
C317 O318 1.245 . S
C317 O319 1.289 . S
O318 C317 1.245 . S
O319 Mg312 2.141 . S
O319 C317 1.289 . S
O320 Mg312 2.048 . S
O320 C313 1.195 . S
O321 Mg312 2.048 . S
O321 C322 1.195 . S
C322 O321 1.195 . S
C322 O323 1.313 . S
O323 C322 1.313 . S
O324 Mg312 2.141 . S
O324 C315 1.289 . S
Mg325 O332 2.141 . S
Mg325 O333 2.048 . S
Mg325 O334 2.048 . S
Mg325 O337 2.141 . S
C326 O327 1.313 . S
C326 O333 1.195 . S
O327 C326 1.313 . S
C328 O329 1.245 . S
C328 O337 1.289 . S
O329 C328 1.245 . S
C330 O331 1.245 . S
C330 O332 1.289 . S
O331 C330 1.245 . S
O332 Mg325 2.141 . S
O332 C330 1.289 . S
O333 Mg325 2.048 . S
O333 C326 1.195 . S
O334 Mg325 2.048 . S
O334 C335 1.195 . S
C335 O334 1.195 . S
C335 O336 1.313 . S
O336 C335 1.313 . S
O337 Mg325 2.141 . S
O337 C328 1.289 . S
Mg338 O345 2.141 . S
Mg338 O346 2.048 . S
Mg338 O347 2.048 . S
Mg338 O350 2.141 . S
C339 O340 1.313 . S
C339 O346 1.195 . S
O340 C339 1.313 . S
C341 O342 1.245 . S
C341 O350 1.289 . S
O342 C341 1.245 . S
C343 O344 1.245 . S
C343 O345 1.289 . S
O344 C343 1.245 . S
O345 Mg338 2.141 . S
O345 C343 1.289 . S
O346 Mg338 2.048 . S
O346 C339 1.195 . S
O347 Mg338 2.048 . S
O347 C348 1.195 . S
C348 O347 1.195 . S
C348 O349 1.313 . S
O349 C348 1.313 . S
O350 Mg338 2.141 . S
O350 C341 1.289 . S
Mg351 O358 2.141 . S
Mg351 O359 2.048 . S
Mg351 O360 2.048 . S
Mg351 O363 2.141 . S
C352 O353 1.313 . S
C352 O359 1.195 . S
O353 C352 1.313 . S
C354 O355 1.245 . S
C354 O363 1.289 . S
O355 C354 1.245 . S
C356 O357 1.245 . S
C356 O358 1.289 . S
O357 C356 1.245 . S
O358 Mg351 2.141 . S
O358 C356 1.289 . S
O359 Mg351 2.048 . S
O359 C352 1.195 . S
O360 Mg351 2.048 . S
O360 C361 1.195 . S
C361 O360 1.195 . S
C361 O362 1.313 . S
O362 C361 1.313 . S
O363 Mg351 2.141 . S
O363 C354 1.289 . S
Mg364 O371 2.141 . S
Mg364 O372 2.048 . S
Mg364 O373 2.048 . S
Mg364 O376 2.141 . S
C365 O366 1.313 . S
C365 O372 1.195 . S
O366 C365 1.313 . S
C367 O368 1.245 . S
C367 O376 1.289 . S
O368 C367 1.245 . S
C369 O370 1.245 . S
C369 O371 1.289 . S
O370 C369 1.245 . S
O371 Mg364 2.141 . S
O371 C369 1.289 . S
O372 Mg364 2.048 . S
O372 C365 1.195 . S
O373 Mg364 2.048 . S
O373 C374 1.195 . S
C374 O373 1.195 . S
C374 O375 1.313 . S
O375 C374 1.313 . S
O376 Mg364 2.141 . S
O376 C367 1.289 . S
Mg377 O384 2.141 . S
Mg377 O385 2.048 . S
Mg377 O386 2.048 . S
Mg377 O389 2.141 . S
C378 O379 1.313 . S
C378 O385 1.195 . S
O379 C378 1.313 . S
C380 O381 1.245 . S
C380 O389 1.289 . S
O381 C380 1.245 . S
C382 O383 1.245 . S
C382 O384 1.289 . S
O383 C382 1.245 . S
O384 Mg377 2.141 . S
O384 C382 1.289 . S
O385 Mg377 2.048 . S
O385 C378 1.195 . S
O386 Mg377 2.048 . S
O386 C387 1.195 . S
C387 O386 1.195 . S
C387 O388 1.313 . S
O388 C387 1.313 . S
O389 Mg377 2.141 . S
O389 C380 1.289 . S
Mg390 O397 2.141 . S
Mg390 O398 2.048 . S
Mg390 O399 2.048 . S
Mg390 O402 2.141 . S
C391 O392 1.313 . S
C391 O398 1.195 . S
O392 C391 1.313 . S
C393 O394 1.245 . S
C393 O402 1.289 . S
O394 C393 1.245 . S
C395 O396 1.245 . S
C395 O397 1.289 . S
O396 C395 1.245 . S
O397 Mg390 2.141 . S
O397 C395 1.289 . S
O398 Mg390 2.048 . S
O398 C391 1.195 . S
O399 Mg390 2.048 . S
O399 C400 1.195 . S
C400 O399 1.195 . S
C400 O401 1.313 . S
O401 C400 1.313 . S
O402 Mg390 2.141 . S
O402 C393 1.289 . S
Mg403 O410 2.141 . S
Mg403 O411 2.048 . S
Mg403 O412 2.048 . S
Mg403 O415 2.141 . S
C404 O405 1.313 . S
C404 O411 1.195 . S
O405 C404 1.313 . S
C406 O407 1.245 . S
C406 O415 1.289 . S
O407 C406 1.245 . S
C408 O409 1.245 . S
C408 O410 1.289 . S
O409 C408 1.245 . S
O410 Mg403 2.141 . S
O410 C408 1.289 . S
O411 Mg403 2.048 . S
O411 C404 1.195 . S
O412 Mg403 2.048 . S
O412 C413 1.195 . S
C413 O412 1.195 . S
C413 O414 1.313 . S
O414 C413 1.313 . S
O415 Mg403 2.141 . S
O415 C406 1.289 . S
Mg416 O423 2.141 . S
Mg416 O424 2.048 . S
Mg416 O425 2.048 . S
Mg416 O428 2.141 . S
C417 O418 1.313 . S
C417 O424 1.195 . S
O418 C417 1.313 . S
C419 O420 1.245 . S
C419 O428 1.289 . S
O420 C419 1.245 . S
C421 O422 1.245 . S
C421 O423 1.289 . S
O422 C421 1.245 . S
O423 Mg416 2.141 . S
O423 C421 1.289 . S
O424 Mg416 2.048 . S
O424 C417 1.195 . S
O425 Mg416 2.048 . S
O425 C426 1.195 . S
C426 O425 1.195 . S
C426 O427 1.313 . S
O427 C426 1.313 . S
O428 Mg416 2.141 . S
O428 C419 1.289 . S
Mg429 O436 2.141 . S
Mg429 O437 2.048 . S
Mg429 O438 2.048 . S
Mg429 O441 2.141 . S
C430 O431 1.313 . S
C430 O437 1.195 . S
O431 C430 1.313 . S
C432 O433 1.245 . S
C432 O441 1.289 . S
O433 C432 1.245 . S
C434 O435 1.245 . S
C434 O436 1.289 . S
O435 C434 1.245 . S
O436 Mg429 2.141 . S
O436 C434 1.289 . S
O437 Mg429 2.048 . S
O437 C430 1.195 . S
O438 Mg429 2.048 . S
O438 C439 1.195 . S
C439 O438 1.195 . S
C439 O440 1.313 . S
O440 C439 1.313 . S
O441 Mg429 2.141 . S
O441 C432 1.289 . S
Mg442 O449 2.141 . S
Mg442 O450 2.048 . S
Mg442 O451 2.048 . S
Mg442 O454 2.141 . S
C443 O444 1.313 . S
C443 O450 1.195 . S
O444 C443 1.313 . S
C445 O446 1.245 . S
C445 O454 1.289 . S
O446 C445 1.245 . S
C447 O448 1.245 . S
C447 O449 1.289 . S
O448 C447 1.245 . S
O449 Mg442 2.141 . S
O449 C447 1.289 . S
O450 Mg442 2.048 . S
O450 C443 1.195 . S
O451 Mg442 2.048 . S
O451 C452 1.195 . S
C452 O451 1.195 . S
C452 O453 1.313 . S
O453 C452 1.313 . S
O454 Mg442 2.141 . S
O454 C445 1.289 . S
Mg455 O462 2.141 . S
Mg455 O463 2.048 . S
Mg455 O464 2.048 . S
Mg455 O467 2.141 . S
C456 O457 1.313 . S
C456 O463 1.195 . S
O457 C456 1.313 . S
C458 O459 1.245 . S
C458 O467 1.289 . S
O459 C458 1.245 . S
C460 O461 1.245 . S
C460 O462 1.289 . S
O461 C460 1.245 . S
O462 Mg455 2.141 . S
O462 C460 1.289 . S
O463 Mg455 2.048 . S
O463 C456 1.195 . S
O464 Mg455 2.048 . S
O464 C465 1.195 . S
C465 O464 1.195 . S
C465 O466 1.313 . S
O466 C465 1.313 . S
O467 Mg455 2.141 . S
O467 C458 1.289 . S
H468 C476 0.950 . S
H469 C481 0.950 . S
H470 C478 0.950 . S
H471 C480 0.950 . S
H472 C482 0.950 . S
H473 C484 0.950 . S
H474 C486 0.950 . S
H475 C487 0.950 . S
C476 H468 0.950 . S
C476 C477 1.386 . S
C476 C478 1.391 . S
C477 C476 1.386 . S
C477 C481 1.393 . S
C478 H470 0.950 . S
C478 C476 1.391 . S
C478 C479 1.400 . S
C479 C478 1.400 . S
C479 C480 1.398 . S
C479 C485 1.491 . S
C480 H471 0.950 . S
C480 C479 1.398 . S
C480 C481 1.391 . S
C481 H469 0.950 . S
C481 C477 1.393 . S
C481 C480 1.391 . S
C482 H472 0.950 . S
C482 C483 1.386 . S
C482 C484 1.391 . S
C483 C482 1.386 . S
C483 C487 1.393 . S
C484 H473 0.950 . S
C484 C482 1.391 . S
C484 C485 1.400 . S
C485 C479 1.491 . S
C485 C484 1.400 . S
C485 C486 1.398 . S
C486 H474 0.950 . S
C486 C485 1.398 . S
C486 C487 1.391 . S
C487 H475 0.950 . S
C487 C483 1.393 . S
C487 C486 1.391 . S
H488 C496 0.950 . S
H489 C501 0.950 . S
H490 C498 0.950 . S
H491 C500 0.950 . S
H492 C502 0.950 . S
H493 C504 0.950 . S
H494 C506 0.950 . S
H495 C507 0.950 . S
C496 H488 0.950 . S
C496 C497 1.386 . S
C496 C498 1.391 . S
C497 C496 1.386 . S
C497 C501 1.393 . S
C498 H490 0.950 . S
C498 C496 1.391 . S
C498 C499 1.400 . S
C499 C498 1.400 . S
C499 C500 1.398 . S
C499 C505 1.491 . S
C500 H491 0.950 . S
C500 C499 1.398 . S
C500 C501 1.391 . S
C501 H489 0.950 . S
C501 C497 1.393 . S
C501 C500 1.391 . S
C502 H492 0.950 . S
C502 C503 1.386 . S
C502 C504 1.391 . S
C503 C502 1.386 . S
C503 C507 1.393 . S
C504 H493 0.950 . S
C504 C502 1.391 . S
C504 C505 1.400 . S
C505 C499 1.491 . S
C505 C504 1.400 . S
C505 C506 1.398 . S
C506 H494 0.950 . S
C506 C505 1.398 . S
C506 C507 1.391 . S
C507 H495 0.950 . S
C507 C503 1.393 . S
C507 C506 1.391 . S
H508 C516 0.950 . S
H509 C521 0.950 . S
H510 C518 0.950 . S
H511 C520 0.950 . S
H512 C522 0.950 . S
H513 C524 0.950 . S
H514 C526 0.950 . S
H515 C527 0.950 . S
C516 H508 0.950 . S
C516 C517 1.386 . S
C516 C518 1.391 . S
C517 C516 1.386 . S
C517 C521 1.393 . S
C518 H510 0.950 . S
C518 C516 1.391 . S
C518 C519 1.400 . S
C519 C518 1.400 . S
C519 C520 1.398 . S
C519 C525 1.491 . S
C520 H511 0.950 . S
C520 C519 1.398 . S
C520 C521 1.391 . S
C521 H509 0.950 . S
C521 C517 1.393 . S
C521 C520 1.391 . S
C522 H512 0.950 . S
C522 C523 1.386 . S
C522 C524 1.391 . S
C523 C522 1.386 . S
C523 C527 1.393 . S
C524 H513 0.950 . S
C524 C522 1.391 . S
C524 C525 1.400 . S
C525 C519 1.491 . S
C525 C524 1.400 . S
C525 C526 1.398 . S
C526 H514 0.950 . S
C526 C525 1.398 . S
C526 C527 1.391 . S
C527 H515 0.950 . S
C527 C523 1.393 . S
C527 C526 1.391 . S
H528 C536 0.950 . S
H529 C541 0.950 . S
H530 C538 0.950 . S
H531 C540 0.950 . S
H532 C542 0.950 . S
H533 C544 0.950 . S
H534 C546 0.950 . S
H535 C547 0.950 . S
C536 H528 0.950 . S
C536 C537 1.386 . S
C536 C538 1.391 . S
C537 C536 1.386 . S
C537 C541 1.393 . S
C538 H530 0.950 . S
C538 C536 1.391 . S
C538 C539 1.400 . S
C539 C538 1.400 . S
C539 C540 1.398 . S
C539 C545 1.491 . S
C540 H531 0.950 . S
C540 C539 1.398 . S
C540 C541 1.391 . S
C541 H529 0.950 . S
C541 C537 1.393 . S
C541 C540 1.391 . S
C542 H532 0.950 . S
C542 C543 1.386 . S
C542 C544 1.391 . S
C543 C542 1.386 . S
C543 C547 1.393 . S
C544 H533 0.950 . S
C544 C542 1.391 . S
C544 C545 1.400 . S
C545 C539 1.491 . S
C545 C544 1.400 . S
C545 C546 1.398 . S
C546 H534 0.950 . S
C546 C545 1.398 . S
C546 C547 1.391 . S
C547 H535 0.950 . S
C547 C543 1.393 . S
C547 C546 1.391 . S
H548 C556 0.950 . S
H549 C561 0.950 . S
H550 C558 0.950 . S
H551 C560 0.950 . S
H552 C562 0.950 . S
H553 C564 0.950 . S
H554 C566 0.950 . S
H555 C567 0.950 . S
C556 H548 0.950 . S
C556 C557 1.386 . S
C556 C558 1.391 . S
C557 C556 1.386 . S
C557 C561 1.393 . S
C558 H550 0.950 . S
C558 C556 1.391 . S
C558 C559 1.400 . S
C559 C558 1.400 . S
C559 C560 1.398 . S
C559 C565 1.491 . S
C560 H551 0.950 . S
C560 C559 1.398 . S
C560 C561 1.391 . S
C561 H549 0.950 . S
C561 C557 1.393 . S
C561 C560 1.391 . S
C562 H552 0.950 . S
C562 C563 1.386 . S
C562 C564 1.391 . S
C563 C562 1.386 . S
C563 C567 1.393 . S
C564 H553 0.950 . S
C564 C562 1.391 . S
C564 C565 1.400 . S
C565 C559 1.491 . S
C565 C564 1.400 . S
C565 C566 1.398 . S
C566 H554 0.950 . S
C566 C565 1.398 . S
C566 C567 1.391 . S
C567 H555 0.950 . S
C567 C563 1.393 . S
C567 C566 1.391 . S
H568 C576 0.950 . S
H569 C581 0.950 . S
H570 C578 0.950 . S
H571 C580 0.950 . S
H572 C582 0.950 . S
H573 C584 0.950 . S
H574 C586 0.950 . S
H575 C587 0.950 . S
C576 H568 0.950 . S
C576 C577 1.386 . S
C576 C578 1.391 . S
C577 C576 1.386 . S
C577 C581 1.393 . S
C578 H570 0.950 . S
C578 C576 1.391 . S
C578 C579 1.400 . S
C579 C578 1.400 . S
C579 C580 1.398 . S
C579 C585 1.491 . S
C580 H571 0.950 . S
C580 C579 1.398 . S
C580 C581 1.391 . S
C581 H569 0.950 . S
C581 C577 1.393 . S
C581 C580 1.391 . S
C582 H572 0.950 . S
C582 C583 1.386 . S
C582 C584 1.391 . S
C583 C582 1.386 . S
C583 C587 1.393 . S
C584 H573 0.950 . S
C584 C582 1.391 . S
C584 C585 1.400 . S
C585 C579 1.491 . S
C585 C584 1.400 . S
C585 C586 1.398 . S
C586 H574 0.950 . S
C586 C585 1.398 . S
C586 C587 1.391 . S
C587 H575 0.950 . S
C587 C583 1.393 . S
C587 C586 1.391 . S
H588 C596 0.950 . S
H589 C601 0.950 . S
H590 C598 0.950 . S
H591 C600 0.950 . S
H592 C602 0.950 . S
H593 C604 0.950 . S
H594 C606 0.950 . S
H595 C607 0.950 . S
C596 H588 0.950 . S
C596 C597 1.386 . S
C596 C598 1.391 . S
C597 C596 1.386 . S
C597 C601 1.393 . S
C598 H590 0.950 . S
C598 C596 1.391 . S
C598 C599 1.400 . S
C599 C598 1.400 . S
C599 C600 1.398 . S
C599 C605 1.491 . S
C600 H591 0.950 . S
C600 C599 1.398 . S
C600 C601 1.391 . S
C601 H589 0.950 . S
C601 C597 1.393 . S
C601 C600 1.391 . S
C602 H592 0.950 . S
C602 C603 1.386 . S
C602 C604 1.391 . S
C603 C602 1.386 . S
C603 C607 1.393 . S
C604 H593 0.950 . S
C604 C602 1.391 . S
C604 C605 1.400 . S
C605 C599 1.491 . S
C605 C604 1.400 . S
C605 C606 1.398 . S
C606 H594 0.950 . S
C606 C605 1.398 . S
C606 C607 1.391 . S
C607 H595 0.950 . S
C607 C603 1.393 . S
C607 C606 1.391 . S
H608 C616 0.950 . S
H609 C621 0.950 . S
H610 C618 0.950 . S
H611 C620 0.950 . S
H612 C622 0.950 . S
H613 C624 0.950 . S
H614 C626 0.950 . S
H615 C627 0.950 . S
C616 H608 0.950 . S
C616 C617 1.386 . S
C616 C618 1.391 . S
C617 C616 1.386 . S
C617 C621 1.393 . S
C618 H610 0.950 . S
C618 C616 1.391 . S
C618 C619 1.400 . S
C619 C618 1.400 . S
C619 C620 1.398 . S
C619 C625 1.491 . S
C620 H611 0.950 . S
C620 C619 1.398 . S
C620 C621 1.391 . S
C621 H609 0.950 . S
C621 C617 1.393 . S
C621 C620 1.391 . S
C622 H612 0.950 . S
C622 C623 1.386 . S
C622 C624 1.391 . S
C623 C622 1.386 . S
C623 C627 1.393 . S
C624 H613 0.950 . S
C624 C622 1.391 . S
C624 C625 1.400 . S
C625 C619 1.491 . S
C625 C624 1.400 . S
C625 C626 1.398 . S
C626 H614 0.950 . S
C626 C625 1.398 . S
C626 C627 1.391 . S
C627 H615 0.950 . S
C627 C623 1.393 . S
C627 C626 1.391 . S
H628 C636 0.950 . S
H629 C641 0.950 . S
H630 C638 0.950 . S
H631 C640 0.950 . S
H632 C642 0.950 . S
H633 C644 0.950 . S
H634 C646 0.950 . S
H635 C647 0.950 . S
C636 H628 0.950 . S
C636 C637 1.386 . S
C636 C638 1.391 . S
C637 C636 1.386 . S
C637 C641 1.393 . S
C638 H630 0.950 . S
C638 C636 1.391 . S
C638 C639 1.400 . S
C639 C638 1.400 . S
C639 C640 1.398 . S
C639 C645 1.491 . S
C640 H631 0.950 . S
C640 C639 1.398 . S
C640 C641 1.391 . S
C641 H629 0.950 . S
C641 C637 1.393 . S
C641 C640 1.391 . S
C642 H632 0.950 . S
C642 C643 1.386 . S
C642 C644 1.391 . S
C643 C642 1.386 . S
C643 C647 1.393 . S
C644 H633 0.950 . S
C644 C642 1.391 . S
C644 C645 1.400 . S
C645 C639 1.491 . S
C645 C644 1.400 . S
C645 C646 1.398 . S
C646 H634 0.950 . S
C646 C645 1.398 . S
C646 C647 1.391 . S
C647 H635 0.950 . S
C647 C643 1.393 . S
C647 C646 1.391 . S
H648 C656 0.950 . S
H649 C661 0.950 . S
H650 C658 0.950 . S
H651 C660 0.950 . S
H652 C662 0.950 . S
H653 C664 0.950 . S
H654 C666 0.950 . S
H655 C667 0.950 . S
C656 H648 0.950 . S
C656 C657 1.386 . S
C656 C658 1.391 . S
C657 C656 1.386 . S
C657 C661 1.393 . S
C658 H650 0.950 . S
C658 C656 1.391 . S
C658 C659 1.400 . S
C659 C658 1.400 . S
C659 C660 1.398 . S
C659 C665 1.491 . S
C660 H651 0.950 . S
C660 C659 1.398 . S
C660 C661 1.391 . S
C661 H649 0.950 . S
C661 C657 1.393 . S
C661 C660 1.391 . S
C662 H652 0.950 . S
C662 C663 1.386 . S
C662 C664 1.391 . S
C663 C662 1.386 . S
C663 C667 1.393 . S
C664 H653 0.950 . S
C664 C662 1.391 . S
C664 C665 1.400 . S
C665 C659 1.491 . S
C665 C664 1.400 . S
C665 C666 1.398 . S
C666 H654 0.950 . S
C666 C665 1.398 . S
C666 C667 1.391 . S
C667 H655 0.950 . S
C667 C663 1.393 . S
C667 C666 1.391 . S
H668 C676 0.950 . S
H669 C681 0.950 . S
H670 C678 0.950 . S
H671 C680 0.950 . S
H672 C682 0.950 . S
H673 C684 0.950 . S
H674 C686 0.950 . S
H675 C687 0.950 . S
C676 H668 0.950 . S
C676 C677 1.386 . S
C676 C678 1.391 . S
C677 C676 1.386 . S
C677 C681 1.393 . S
C678 H670 0.950 . S
C678 C676 1.391 . S
C678 C679 1.400 . S
C679 C678 1.400 . S
C679 C680 1.398 . S
C679 C685 1.491 . S
C680 H671 0.950 . S
C680 C679 1.398 . S
C680 C681 1.391 . S
C681 H669 0.950 . S
C681 C677 1.393 . S
C681 C680 1.391 . S
C682 H672 0.950 . S
C682 C683 1.386 . S
C682 C684 1.391 . S
C683 C682 1.386 . S
C683 C687 1.393 . S
C684 H673 0.950 . S
C684 C682 1.391 . S
C684 C685 1.400 . S
C685 C679 1.491 . S
C685 C684 1.400 . S
C685 C686 1.398 . S
C686 H674 0.950 . S
C686 C685 1.398 . S
C686 C687 1.391 . S
C687 H675 0.950 . S
C687 C683 1.393 . S
C687 C686 1.391 . S
H688 C696 0.950 . S
H689 C701 0.950 . S
H690 C698 0.950 . S
H691 C700 0.950 . S
H692 C702 0.950 . S
H693 C704 0.950 . S
H694 C706 0.950 . S
H695 C707 0.950 . S
C696 H688 0.950 . S
C696 C697 1.386 . S
C696 C698 1.391 . S
C697 C696 1.386 . S
C697 C701 1.393 . S
C698 H690 0.950 . S
C698 C696 1.391 . S
C698 C699 1.400 . S
C699 C698 1.400 . S
C699 C700 1.398 . S
C699 C705 1.491 . S
C700 H691 0.950 . S
C700 C699 1.398 . S
C700 C701 1.391 . S
C701 H689 0.950 . S
C701 C697 1.393 . S
C701 C700 1.391 . S
C702 H692 0.950 . S
C702 C703 1.386 . S
C702 C704 1.391 . S
C703 C702 1.386 . S
C703 C707 1.393 . S
C704 H693 0.950 . S
C704 C702 1.391 . S
C704 C705 1.400 . S
C705 C699 1.491 . S
C705 C704 1.400 . S
C705 C706 1.398 . S
C706 H694 0.950 . S
C706 C705 1.398 . S
C706 C707 1.391 . S
C707 H695 0.950 . S
C707 C703 1.393 . S
C707 C706 1.391 . S
H708 C716 0.950 . S
H709 C721 0.950 . S
H710 C718 0.898 1_455 S
H711 C720 0.950 . S
H712 C722 0.950 . S
H713 C724 0.898 1_655 S
H714 C726 0.950 . S
H715 C727 0.950 . S
C716 H708 0.950 . S
C716 C717 1.386 . S
C716 C718 1.427 . S
C717 C716 1.386 . S
C717 C721 1.393 . S
C718 H710 0.898 1_655 S
C718 C716 1.427 . S
C718 C719 1.417 . S
C719 C718 1.417 . S
C719 C720 1.398 . S
C719 C725 1.491 1_655 S
C720 H711 0.950 . S
C720 C719 1.398 . S
C720 C721 1.391 . S
C721 H709 0.950 . S
C721 C717 1.393 . S
C721 C720 1.391 . S
C722 H712 0.950 . S
C722 C723 1.386 . S
C722 C724 1.427 . S
C723 C722 1.386 . S
C723 C727 1.393 . S
C724 H713 0.898 1_455 S
C724 C722 1.427 . S
C724 C725 1.417 . S
C725 C719 1.491 1_455 S
C725 C724 1.417 . S
C725 C726 1.398 . S
C726 H714 0.950 . S
C726 C725 1.398 . S
C726 C727 1.391 . S
C727 H715 0.950 . S
C727 C723 1.393 . S
C727 C726 1.391 . S
H728 C736 0.950 . S
H729 C741 0.950 . S
H730 C738 0.950 . S
H731 C740 0.950 . S
H732 C742 0.950 . S
H733 C744 0.950 . S
H734 C746 0.950 . S
H735 C747 0.950 . S
C736 H728 0.950 . S
C736 C737 1.386 . S
C736 C738 1.391 . S
C737 C736 1.386 . S
C737 C741 1.393 . S
C738 H730 0.950 . S
C738 C736 1.391 . S
C738 C739 1.400 . S
C739 C738 1.400 . S
C739 C740 1.398 . S
C739 C745 1.491 . S
C740 H731 0.950 . S
C740 C739 1.398 . S
C740 C741 1.391 . S
C741 H729 0.950 . S
C741 C737 1.393 . S
C741 C740 1.391 . S
C742 H732 0.950 . S
C742 C743 1.386 . S
C742 C744 1.391 . S
C743 C742 1.386 . S
C743 C747 1.393 . S
C744 H733 0.950 . S
C744 C742 1.391 . S
C744 C745 1.400 . S
C745 C739 1.491 . S
C745 C744 1.400 . S
C745 C746 1.398 . S
C746 H734 0.950 . S
C746 C745 1.398 . S
C746 C747 1.391 . S
C747 H735 0.950 . S
C747 C743 1.393 . S
C747 C746 1.391 . S
H748 C756 0.950 . S
H749 C761 0.950 . S
H750 C758 0.950 . S
H751 C760 0.950 . S
H752 C762 0.950 . S
H753 C764 0.950 . S
H754 C766 0.950 . S
H755 C767 0.950 . S
C756 H748 0.950 . S
C756 C757 1.386 . S
C756 C758 1.391 . S
C757 C756 1.386 . S
C757 C761 1.393 . S
C758 H750 0.950 . S
C758 C756 1.391 . S
C758 C759 1.400 . S
C759 C758 1.400 . S
C759 C760 1.398 . S
C759 C765 1.491 1_545 S
C760 H751 0.950 . S
C760 C759 1.398 . S
C760 C761 1.391 . S
C761 H749 0.950 . S
C761 C757 1.393 . S
C761 C760 1.391 . S
C762 H752 0.950 . S
C762 C763 1.386 . S
C762 C764 1.391 . S
C763 C762 1.386 . S
C763 C767 1.393 . S
C764 H753 0.950 . S
C764 C762 1.391 . S
C764 C765 1.400 . S
C765 C759 1.491 1_565 S
C765 C764 1.400 . S
C765 C766 1.398 . S
C766 H754 0.950 . S
C766 C765 1.398 . S
C766 C767 1.391 . S
C767 H755 0.950 . S
C767 C763 1.393 . S
C767 C766 1.391 . S
H768 C776 0.947 1_565 S
H769 C781 0.950 . S
H770 C778 0.950 . S
H771 C780 0.950 1_554 S
H772 C782 0.947 1_545 S
H773 C784 0.950 . S
H774 C786 0.950 1_556 S
H775 C787 0.950 . S
C776 H768 0.947 1_545 S
C776 C777 1.386 . S
C776 C778 1.391 1_545 S
C777 C776 1.386 . S
C777 C781 1.393 . S
C778 H770 0.950 . S
C778 C776 1.391 1_565 S
C778 C779 1.400 1_565 S
C779 C778 1.400 1_545 S
C779 C780 1.398 . S
C779 C785 1.491 1_546 S
C780 H771 0.950 1_556 S
C780 C779 1.398 . S
C780 C781 1.391 . S
C781 H769 0.950 . S
C781 C777 1.393 . S
C781 C780 1.391 . S
C782 H772 0.947 1_565 S
C782 C783 1.386 . S
C782 C784 1.391 1_565 S
C783 C782 1.386 . S
C783 C787 1.393 . S
C784 H773 0.950 . S
C784 C782 1.391 1_545 S
C784 C785 1.400 1_545 S
C785 C779 1.491 1_564 S
C785 C784 1.400 1_565 S
C785 C786 1.398 . S
C786 H774 0.950 1_554 S
C786 C785 1.398 . S
C786 C787 1.391 . S
C787 H775 0.950 . S
C787 C783 1.393 . S
C787 C786 1.391 . S
H788 C796 0.950 . S
H789 C801 0.950 . S
H790 C798 0.950 . S
H791 C800 0.950 1_554 S
H792 C802 0.950 . S
H793 C804 0.950 . S
H794 C806 0.950 1_556 S
H795 C807 0.950 . S
C796 H788 0.950 . S
C796 C797 1.386 . S
C796 C798 1.391 . S
C797 C796 1.386 . S
C797 C801 1.393 . S
C798 H790 0.950 . S
C798 C796 1.391 . S
C798 C799 1.400 . S
C799 C798 1.400 . S
C799 C800 1.398 . S
C799 C805 1.491 1_656 S
C800 H791 0.950 1_556 S
C800 C799 1.398 . S
C800 C801 1.391 . S
C801 H789 0.950 . S
C801 C797 1.393 . S
C801 C800 1.391 . S
C802 H792 0.950 . S
C802 C803 1.386 . S
C802 C804 1.391 . S
C803 C802 1.386 . S
C803 C807 1.393 . S
C804 H793 0.950 . S
C804 C802 1.391 . S
C804 C805 1.400 . S
C805 C799 1.491 1_454 S
C805 C804 1.400 . S
C805 C806 1.398 . S
C806 H794 0.950 1_554 S
C806 C805 1.398 . S
C806 C807 1.391 . S
C807 H795 0.950 . S
C807 C803 1.393 . S
C807 C806 1.391 . S
H808 C816 0.950 . S
H809 C821 0.950 . S
H810 C818 0.950 1_554 S
H811 C820 0.950 . S
H812 C822 0.950 . S
H813 C824 0.950 1_556 S
H814 C826 0.950 . S
H815 C827 0.950 . S
C816 H808 0.950 . S
C816 C817 1.386 . S
C816 C818 1.391 . S
C817 C816 1.386 . S
C817 C821 1.393 . S
C818 H810 0.950 1_556 S
C818 C816 1.391 . S
C818 C819 1.400 . S
C819 C818 1.400 . S
C819 C820 1.398 . S
C819 C825 1.491 1_556 S
C820 H811 0.950 . S
C820 C819 1.398 . S
C820 C821 1.391 . S
C821 H809 0.950 . S
C821 C817 1.393 . S
C821 C820 1.391 . S
C822 H812 0.950 . S
C822 C823 1.386 . S
C822 C824 1.391 . S
C823 C822 1.386 . S
C823 C827 1.393 . S
C824 H813 0.950 1_554 S
C824 C822 1.391 . S
C824 C825 1.400 . S
C825 C819 1.491 1_554 S
C825 C824 1.400 . S
C825 C826 1.398 . S
C826 H814 0.950 . S
C826 C825 1.398 . S
C826 C827 1.391 . S
C827 H815 0.950 . S
C827 C823 1.393 . S
C827 C826 1.391 . S
H828 C836 0.950 . S
H829 C841 0.950 1_565 S
H830 C838 0.950 1_554 S
H831 C840 0.950 . S
H832 C842 0.950 . S
H833 C844 0.950 . S
H834 C846 0.950 . S
H835 C847 0.950 . S
C836 H828 0.950 . S
C836 C837 1.385 . S
C836 C838 1.391 . S
C837 C836 1.385 . S
C837 C841 1.390 . S
C838 H830 0.950 1_556 S
C838 C836 1.391 . S
C838 C839 1.394 1_556 S
C839 C838 1.394 1_554 S
C839 C840 1.389 1_554 S
C839 C845 1.506 . S
C840 H831 0.950 . S
C840 C839 1.389 1_556 S
C840 C841 1.391 . S
C841 H829 0.950 1_545 S
C841 C837 1.390 . S
C841 C840 1.391 . S
C842 H832 0.950 . S
C842 C843 1.386 . S
C842 C844 1.391 . S
C843 C842 1.386 . S
C843 C847 1.393 . S
C844 H833 0.950 . S
C844 C842 1.391 . S
C844 C845 1.400 . S
C845 C839 1.506 . S
C845 C844 1.400 . S
C845 C846 1.398 . S
C846 H834 0.950 . S
C846 C845 1.398 . S
C846 C847 1.391 . S
C847 H835 0.950 . S
C847 C843 1.393 . S
C847 C846 1.391 . S
H848 C856 0.963 . S
H849 C861 0.950 . S
H850 C858 0.950 1_554 S
H851 C860 0.950 . S
H852 C862 0.950 . S
H853 C864 0.950 . S
H854 C866 0.950 . S
H855 C867 0.950 . S
C856 H848 0.963 . S
C856 C857 1.398 . S
C856 C858 1.384 1_455 S
C857 C856 1.398 . S
C857 C861 1.351 1_455 S
C858 H850 0.950 1_556 S
C858 C856 1.384 1_655 S
C858 C859 1.400 1_556 S
C859 C858 1.400 1_554 S
C859 C860 1.398 1_554 S
C859 C865 1.491 . S
C860 H851 0.950 . S
C860 C859 1.398 1_556 S
C860 C861 1.391 . S
C861 H849 0.950 . S
C861 C857 1.351 1_655 S
C861 C860 1.391 . S
C862 H852 0.950 . S
C862 C863 1.386 . S
C862 C864 1.391 . S
C863 C862 1.386 . S
C863 C867 1.393 . S
C864 H853 0.950 . S
C864 C862 1.391 . S
C864 C865 1.400 . S
C865 C859 1.491 . S
C865 C864 1.400 . S
C865 C866 1.398 . S
C866 H854 0.950 . S
C866 C865 1.398 . S
C866 C867 1.391 . S
C867 H855 0.950 . S
C867 C863 1.393 . S
C867 C866 1.391 . S
H868 C876 0.950 . S
H869 C881 0.950 . S
H870 C878 0.950 1_556 S
H871 C880 0.950 . S
H872 C882 0.950 1_554 S
H873 C884 0.950 . S
H874 C886 0.950 . S
H875 C887 0.950 . S
C876 H868 0.950 . S
C876 C877 1.386 . S
C876 C878 1.391 . S
C877 C876 1.386 . S
C877 C881 1.393 . S
C878 H870 0.950 1_554 S
C878 C876 1.391 . S
C878 C879 1.400 . S
C879 C878 1.400 . S
C879 C880 1.398 . S
C879 C885 1.517 . S
C880 H871 0.950 . S
C880 C879 1.398 . S
C880 C881 1.391 . S
C881 H869 0.950 . S
C881 C877 1.393 . S
C881 C880 1.391 . S
C882 H872 0.950 1_556 S
C882 C883 1.386 . S
C882 C884 1.391 1_556 S
C883 C882 1.386 . S
C883 C887 1.393 . S
C884 H873 0.950 . S
C884 C882 1.391 1_554 S
C884 C885 1.421 . S
C885 C879 1.517 . S
C885 C884 1.421 . S
C885 C886 1.352 1_554 S
C886 H874 0.950 . S
C886 C885 1.352 1_556 S
C886 C887 1.391 . S
C887 H875 0.950 . S
C887 C883 1.393 . S
C887 C886 1.391 . S
H888 C896 0.950 . S
H889 C901 0.950 1_655 S
H890 C898 0.950 . S
H891 C900 0.950 . S
H892 C902 0.950 . S
H893 C904 0.950 . S
H894 C906 0.950 . S
H895 C907 0.950 . S
C896 H888 0.950 . S
C896 C897 1.339 1_455 S
C896 C898 1.391 . S
C897 C896 1.339 1_655 S
C897 C901 1.398 1_655 S
C898 H890 0.950 . S
C898 C896 1.391 . S
C898 C899 1.400 . S
C899 C898 1.400 . S
C899 C900 1.398 . S
C899 C905 1.491 . S
C900 H891 0.950 . S
C900 C899 1.398 . S
C900 C901 1.391 . S
C901 H889 0.950 1_455 S
C901 C897 1.398 1_455 S
C901 C900 1.391 . S
C902 H892 0.950 . S
C902 C903 1.386 . S
C902 C904 1.391 . S
C903 C902 1.386 . S
C903 C907 1.393 . S
C904 H893 0.950 . S
C904 C902 1.391 . S
C904 C905 1.400 . S
C905 C899 1.491 . S
C905 C904 1.400 . S
C905 C906 1.398 . S
C906 H894 0.950 . S
C906 C905 1.398 . S
C906 C907 1.391 . S
C907 H895 0.950 . S
C907 C903 1.393 . S
C907 C906 1.391 . S
H908 C916 0.950 . S
H909 C921 0.950 . S
H910 C918 0.950 . S
H911 C920 0.950 . S
H912 C922 0.950 . S
H913 C924 0.950 . S
H914 C926 0.950 . S
H915 C927 0.950 . S
C916 H908 0.950 . S
C916 C917 1.386 . S
C916 C918 1.391 . S
C917 C916 1.386 . S
C917 C921 1.393 . S
C918 H910 0.950 . S
C918 C916 1.391 . S
C918 C919 1.400 . S
C919 C918 1.400 . S
C919 C920 1.398 . S
C919 C925 1.491 . S
C920 H911 0.950 . S
C920 C919 1.398 . S
C920 C921 1.391 . S
C921 H909 0.950 . S
C921 C917 1.393 . S
C921 C920 1.391 . S
C922 H912 0.950 . S
C922 C923 1.386 . S
C922 C924 1.391 . S
C923 C922 1.386 . S
C923 C927 1.393 . S
C924 H913 0.950 . S
C924 C922 1.391 . S
C924 C925 1.400 . S
C925 C919 1.491 . S
C925 C924 1.400 . S
C925 C926 1.398 . S
C926 H914 0.950 . S
C926 C925 1.398 . S
C926 C927 1.391 . S
C927 H915 0.950 . S
C927 C923 1.393 . S
C927 C926 1.391 . S
H928 C936 0.950 . S
H929 C941 0.950 . S
H930 C938 0.950 . S
H931 C940 0.950 . S
H932 C942 0.950 . S
H933 C944 0.950 . S
H934 C946 0.950 . S
H935 C947 0.950 . S
C936 H928 0.950 . S
C936 C937 1.372 1_565 S
C936 C938 1.391 . S
C937 C936 1.372 1_545 S
C937 C941 1.399 . S
C938 H930 0.950 . S
C938 C936 1.391 . S
C938 C939 1.400 . S
C939 C938 1.400 . S
C939 C940 1.398 . S
C939 C945 1.491 . S
C940 H931 0.950 . S
C940 C939 1.398 . S
C940 C941 1.391 1_565 S
C941 H929 0.950 . S
C941 C937 1.399 . S
C941 C940 1.391 1_545 S
C942 H932 0.950 . S
C942 C943 1.386 . S
C942 C944 1.391 . S
C943 C942 1.386 . S
C943 C947 1.393 . S
C944 H933 0.950 . S
C944 C942 1.391 . S
C944 C945 1.400 . S
C945 C939 1.491 . S
C945 C944 1.400 . S
C945 C946 1.398 . S
C946 H934 0.950 . S
C946 C945 1.398 . S
C946 C947 1.391 . S
C947 H935 0.950 . S
C947 C943 1.393 . S
C947 C946 1.391 . S
H948 C956 0.950 . S
H949 C961 0.950 . S
H950 C958 0.950 . S
H951 C960 0.950 . S
H952 C962 0.950 . S
H953 C964 0.950 1_556 S
H954 C966 0.950 . S
H955 C967 0.950 1_545 S
C956 H948 0.950 . S
C956 C957 1.386 . S
C956 C958 1.391 . S
C957 C956 1.386 . S
C957 C961 1.393 . S
C958 H950 0.950 . S
C958 C956 1.391 . S
C958 C959 1.400 . S
C959 C958 1.400 . S
C959 C960 1.398 . S
C959 C965 1.506 . S
C960 H951 0.950 . S
C960 C959 1.398 . S
C960 C961 1.391 . S
C961 H949 0.950 . S
C961 C957 1.393 . S
C961 C960 1.391 . S
C962 H952 0.950 . S
C962 C963 1.385 . S
C962 C964 1.391 . S
C963 C962 1.385 . S
C963 C967 1.391 . S
C964 H953 0.950 1_554 S
C964 C962 1.391 . S
C964 C965 1.395 1_554 S
C965 C959 1.506 . S
C965 C964 1.395 1_556 S
C965 C966 1.387 1_556 S
C966 H954 0.950 . S
C966 C965 1.387 1_554 S
C966 C967 1.391 . S
C967 H955 0.950 1_565 S
C967 C963 1.391 . S
C967 C966 1.391 . S
H968 C976 0.950 . S
H969 C981 0.950 . S
H970 C978 0.950 . S
H971 C980 0.950 . S
H972 C982 0.961 . S
H973 C984 0.950 1_556 S
H974 C986 0.950 . S
H975 C987 0.950 . S
C976 H968 0.950 . S
C976 C977 1.386 . S
C976 C978 1.391 . S
C977 C976 1.386 . S
C977 C981 1.393 . S
C978 H970 0.950 . S
C978 C976 1.391 . S
C978 C979 1.400 . S
C979 C978 1.400 . S
C979 C980 1.398 . S
C979 C985 1.491 . S
C980 H971 0.950 . S
C980 C979 1.398 . S
C980 C981 1.391 . S
C981 H969 0.950 . S
C981 C977 1.393 . S
C981 C980 1.391 . S
C982 H972 0.961 . S
C982 C983 1.399 . S
C982 C984 1.385 1_655 S
C983 C982 1.399 . S
C983 C987 1.351 1_655 S
C984 H973 0.950 1_554 S
C984 C982 1.385 1_455 S
C984 C985 1.400 1_554 S
C985 C979 1.491 . S
C985 C984 1.400 1_556 S
C985 C986 1.398 1_556 S
C986 H974 0.950 . S
C986 C985 1.398 1_554 S
C986 C987 1.391 . S
C987 H975 0.950 . S
C987 C983 1.351 1_455 S
C987 C986 1.391 . S
H988 C996 0.950 . S
H989 C1001 0.950 . S
H990 C998 0.950 . S
H991 C1000 0.950 . S
H992 C1002 0.950 . S
H993 C1004 0.950 1_556 S
H994 C1006 0.950 . S
H995 C1007 0.950 . S
C996 H988 0.950 . S
C996 C997 1.386 . S
C996 C998 1.391 . S
C997 C996 1.386 . S
C997 C1001 1.393 . S
C998 H990 0.950 . S
C998 C996 1.391 . S
C998 C999 1.400 . S
C999 C998 1.400 . S
C999 C1000 1.398 . S
C999 C1005 1.506 . S
C1000 H991 0.950 . S
C1000 C999 1.398 . S
C1000 C1001 1.391 . S
C1001 H989 0.950 . S
C1001 C997 1.393 . S
C1001 C1000 1.391 . S
C1002 H992 0.950 . S
C1002 C1003 1.386 . S
C1002 C1004 1.391 . S
C1003 C1002 1.386 . S
C1003 C1007 1.393 . S
C1004 H993 0.950 1_554 S
C1004 C1002 1.391 . S
C1004 C1005 1.398 1_554 S
C1005 C999 1.506 . S
C1005 C1004 1.398 1_556 S
C1005 C1006 1.385 1_556 S
C1006 H994 0.950 . S
C1006 C1005 1.385 1_554 S
C1006 C1007 1.391 . S
C1007 H995 0.950 . S
C1007 C1003 1.393 . S
C1007 C1006 1.391 . S
H1008 C1016 0.950 . S
H1009 C1021 0.950 . S
H1010 C1018 0.950 . S
H1011 C1020 0.950 . S
H1012 C1022 0.950 . S
H1013 C1024 0.950 . S
H1014 C1026 0.950 . S
H1015 C1027 0.950 . S
C1016 H1008 0.950 . S
C1016 C1017 1.386 . S
C1016 C1018 1.391 . S
C1017 C1016 1.386 . S
C1017 C1021 1.393 . S
C1018 H1010 0.950 . S
C1018 C1016 1.391 . S
C1018 C1019 1.400 . S
C1019 C1018 1.400 . S
C1019 C1020 1.398 . S
C1019 C1025 1.491 . S
C1020 H1011 0.950 . S
C1020 C1019 1.398 . S
C1020 C1021 1.391 . S
C1021 H1009 0.950 . S
C1021 C1017 1.393 . S
C1021 C1020 1.391 . S
C1022 H1012 0.950 . S
C1022 C1023 1.343 1_655 S
C1022 C1024 1.391 . S
C1023 C1022 1.343 1_455 S
C1023 C1027 1.397 . S
C1024 H1013 0.950 . S
C1024 C1022 1.391 . S
C1024 C1025 1.400 . S
C1025 C1019 1.491 . S
C1025 C1024 1.400 . S
C1025 C1026 1.398 . S
C1026 H1014 0.950 . S
C1026 C1025 1.398 . S
C1026 C1027 1.391 1_655 S
C1027 H1015 0.950 . S
C1027 C1023 1.397 . S
C1027 C1026 1.391 1_455 S
H1028 C1036 0.950 . S
H1029 C1041 0.950 . S
H1030 C1038 0.950 . S
H1031 C1040 0.950 . S
H1032 C1042 0.950 . S
H1033 C1044 0.950 . S
H1034 C1046 0.950 . S
H1035 C1047 0.950 . S
C1036 H1028 0.950 . S
C1036 C1037 1.386 . S
C1036 C1038 1.391 . S
C1037 C1036 1.386 . S
C1037 C1041 1.393 . S
C1038 H1030 0.950 . S
C1038 C1036 1.391 . S
C1038 C1039 1.400 . S
C1039 C1038 1.400 . S
C1039 C1040 1.398 . S
C1039 C1045 1.491 . S
C1040 H1031 0.950 . S
C1040 C1039 1.398 . S
C1040 C1041 1.391 . S
C1041 H1029 0.950 . S
C1041 C1037 1.393 . S
C1041 C1040 1.391 . S
C1042 H1032 0.950 . S
C1042 C1043 1.386 . S
C1042 C1044 1.391 . S
C1043 C1042 1.386 . S
C1043 C1047 1.393 . S
C1044 H1033 0.950 . S
C1044 C1042 1.391 . S
C1044 C1045 1.400 . S
C1045 C1039 1.491 . S
C1045 C1044 1.400 . S
C1045 C1046 1.398 . S
C1046 H1034 0.950 . S
C1046 C1045 1.398 . S
C1046 C1047 1.391 . S
C1047 H1035 0.950 . S
C1047 C1043 1.393 . S
C1047 C1046 1.391 . S
H1048 C1056 0.950 . S
H1049 C1061 0.950 . S
H1050 C1058 0.950 . S
H1051 C1060 0.950 . S
H1052 C1062 0.950 . S
H1053 C1064 0.950 . S
H1054 C1066 0.950 . S
H1055 C1067 0.950 . S
C1056 H1048 0.950 . S
C1056 C1057 1.385 . S
C1056 C1058 1.391 1_565 S
C1057 C1056 1.385 . S
C1057 C1061 1.395 1_565 S
C1058 H1050 0.950 . S
C1058 C1056 1.391 1_545 S
C1058 C1059 1.400 . S
C1059 C1058 1.400 . S
C1059 C1060 1.398 . S
C1059 C1065 1.491 . S
C1060 H1051 0.950 . S
C1060 C1059 1.398 . S
C1060 C1061 1.391 . S
C1061 H1049 0.950 . S
C1061 C1057 1.395 1_545 S
C1061 C1060 1.391 . S
C1062 H1052 0.950 . S
C1062 C1063 1.386 . S
C1062 C1064 1.391 . S
C1063 C1062 1.386 . S
C1063 C1067 1.393 . S
C1064 H1053 0.950 . S
C1064 C1062 1.391 . S
C1064 C1065 1.400 . S
C1065 C1059 1.491 . S
C1065 C1064 1.400 . S
C1065 C1066 1.398 . S
C1066 H1054 0.950 . S
C1066 C1065 1.398 . S
C1066 C1067 1.391 . S
C1067 H1055 0.950 . S
C1067 C1063 1.393 . S
C1067 C1066 1.391 . S
H1068 C1076 0.950 . S
H1069 C1081 0.950 . S
H1070 C1078 0.950 . S
H1071 C1080 0.950 . S
H1072 C1082 0.950 . S
H1073 C1084 0.950 . S
H1074 C1086 0.950 . S
H1075 C1087 0.950 . S
C1076 H1068 0.950 . S
C1076 C1077 1.386 . S
C1076 C1078 1.391 . S
C1077 C1076 1.386 . S
C1077 C1081 1.393 . S
C1078 H1070 0.950 . S
C1078 C1076 1.391 . S
C1078 C1079 1.400 . S
C1079 C1078 1.400 . S
C1079 C1080 1.398 . S
C1079 C1085 1.491 . S
C1080 H1071 0.950 . S
C1080 C1079 1.398 . S
C1080 C1081 1.391 . S
C1081 H1069 0.950 . S
C1081 C1077 1.393 . S
C1081 C1080 1.391 . S
C1082 H1072 0.950 . S
C1082 C1083 1.386 . S
C1082 C1084 1.391 . S
C1083 C1082 1.386 . S
C1083 C1087 1.393 . S
C1084 H1073 0.950 . S
C1084 C1082 1.391 . S
C1084 C1085 1.400 . S
C1085 C1079 1.491 . S
C1085 C1084 1.400 . S
C1085 C1086 1.398 . S
C1086 H1074 0.950 . S
C1086 C1085 1.398 . S
C1086 C1087 1.391 . S
C1087 H1075 0.950 . S
C1087 C1083 1.393 . S
C1087 C1086 1.391 . S
H1088 C1096 0.950 . S
H1089 C1101 0.950 . S
H1090 C1098 0.950 . S
H1091 C1100 0.950 . S
H1092 C1102 0.950 . S
H1093 C1104 0.950 . S
H1094 C1106 0.950 . S
H1095 C1107 0.950 . S
C1096 H1088 0.950 . S
C1096 C1097 1.386 . S
C1096 C1098 1.391 . S
C1097 C1096 1.386 . S
C1097 C1101 1.393 . S
C1098 H1090 0.950 . S
C1098 C1096 1.391 . S
C1098 C1099 1.400 . S
C1099 C1098 1.400 . S
C1099 C1100 1.398 . S
C1099 C1105 1.491 . S
C1100 H1091 0.950 . S
C1100 C1099 1.398 . S
C1100 C1101 1.391 . S
C1101 H1089 0.950 . S
C1101 C1097 1.393 . S
C1101 C1100 1.391 . S
C1102 H1092 0.950 . S
C1102 C1103 1.386 . S
C1102 C1104 1.391 . S
C1103 C1102 1.386 . S
C1103 C1107 1.393 . S
C1104 H1093 0.950 . S
C1104 C1102 1.391 . S
C1104 C1105 1.400 . S
C1105 C1099 1.491 . S
C1105 C1104 1.400 . S
C1105 C1106 1.398 . S
C1106 H1094 0.950 . S
C1106 C1105 1.398 . S
C1106 C1107 1.391 . S
C1107 H1095 0.950 . S
C1107 C1103 1.393 . S
C1107 C1106 1.391 . S
H1108 C1116 0.950 . S
H1109 C1121 0.950 . S
H1110 C1118 0.950 . S
H1111 C1120 0.950 . S
H1112 C1122 0.950 . S
H1113 C1124 0.950 . S
H1114 C1126 0.950 . S
H1115 C1127 0.950 . S
C1116 H1108 0.950 . S
C1116 C1117 1.386 . S
C1116 C1118 1.391 . S
C1117 C1116 1.386 . S
C1117 C1121 1.393 . S
C1118 H1110 0.950 . S
C1118 C1116 1.391 . S
C1118 C1119 1.400 . S
C1119 C1118 1.400 . S
C1119 C1120 1.398 . S
C1119 C1125 1.491 . S
C1120 H1111 0.950 . S
C1120 C1119 1.398 . S
C1120 C1121 1.391 . S
C1121 H1109 0.950 . S
C1121 C1117 1.393 . S
C1121 C1120 1.391 . S
C1122 H1112 0.950 . S
C1122 C1123 1.386 . S
C1122 C1124 1.391 . S
C1123 C1122 1.386 . S
C1123 C1127 1.393 . S
C1124 H1113 0.950 . S
C1124 C1122 1.391 . S
C1124 C1125 1.400 . S
C1125 C1119 1.491 . S
C1125 C1124 1.400 . S
C1125 C1126 1.398 . S
C1126 H1114 0.950 . S
C1126 C1125 1.398 . S
C1126 C1127 1.391 . S
C1127 H1115 0.950 . S
C1127 C1123 1.393 . S
C1127 C1126 1.391 . S
H1128 C1136 0.950 . S
H1129 C1141 0.950 . S
H1130 C1138 0.950 . S
H1131 C1140 0.950 . S
H1132 C1142 0.950 . S
H1133 C1144 0.950 . S
H1134 C1146 0.950 . S
H1135 C1147 0.950 . S
C1136 H1128 0.950 . S
C1136 C1137 1.386 . S
C1136 C1138 1.391 . S
C1137 C1136 1.386 . S
C1137 C1141 1.393 . S
C1138 H1130 0.950 . S
C1138 C1136 1.391 . S
C1138 C1139 1.400 . S
C1139 C1138 1.400 . S
C1139 C1140 1.398 . S
C1139 C1145 1.491 . S
C1140 H1131 0.950 . S
C1140 C1139 1.398 . S
C1140 C1141 1.391 . S
C1141 H1129 0.950 . S
C1141 C1137 1.393 . S
C1141 C1140 1.391 . S
C1142 H1132 0.950 . S
C1142 C1143 1.386 . S
C1142 C1144 1.391 . S
C1143 C1142 1.386 . S
C1143 C1147 1.393 . S
C1144 H1133 0.950 . S
C1144 C1142 1.391 . S
C1144 C1145 1.400 . S
C1145 C1139 1.491 . S
C1145 C1144 1.400 . S
C1145 C1146 1.398 . S
C1146 H1134 0.950 . S
C1146 C1145 1.398 . S
C1146 C1147 1.391 . S
C1147 H1135 0.950 . S
C1147 C1143 1.393 . S
C1147 C1146 1.391 . S
H1148 C1156 0.950 . S
H1149 C1161 0.950 . S
H1150 C1158 0.950 . S
H1151 C1160 0.950 . S
H1152 C1162 0.950 . S
H1153 C1164 0.950 . S
H1154 C1166 0.950 . S
H1155 C1167 0.950 . S
C1156 H1148 0.950 . S
C1156 C1157 1.386 . S
C1156 C1158 1.391 . S
C1157 C1156 1.386 . S
C1157 C1161 1.393 . S
C1158 H1150 0.950 . S
C1158 C1156 1.391 . S
C1158 C1159 1.400 . S
C1159 C1158 1.400 . S
C1159 C1160 1.398 . S
C1159 C1165 1.491 . S
C1160 H1151 0.950 . S
C1160 C1159 1.398 . S
C1160 C1161 1.391 . S
C1161 H1149 0.950 . S
C1161 C1157 1.393 . S
C1161 C1160 1.391 . S
C1162 H1152 0.950 . S
C1162 C1163 1.386 . S
C1162 C1164 1.391 . S
C1163 C1162 1.386 . S
C1163 C1167 1.393 . S
C1164 H1153 0.950 . S
C1164 C1162 1.391 . S
C1164 C1165 1.400 . S
C1165 C1159 1.491 . S
C1165 C1164 1.400 . S
C1165 C1166 1.398 . S
C1166 H1154 0.950 . S
C1166 C1165 1.398 . S
C1166 C1167 1.391 . S
C1167 H1155 0.950 . S
C1167 C1163 1.393 . S
C1167 C1166 1.391 . S
H1168 C1176 0.950 . S
H1169 C1181 0.950 . S
H1170 C1178 0.950 . S
H1171 C1180 0.950 . S
H1172 C1182 0.950 . S
H1173 C1184 0.950 . S
H1174 C1186 0.950 . S
H1175 C1187 0.950 . S
C1176 H1168 0.950 . S
C1176 C1177 1.386 . S
C1176 C1178 1.391 . S
C1177 C1176 1.386 . S
C1177 C1181 1.393 . S
C1178 H1170 0.950 . S
C1178 C1176 1.391 . S
C1178 C1179 1.400 . S
C1179 C1178 1.400 . S
C1179 C1180 1.398 . S
C1179 C1185 1.491 . S
C1180 H1171 0.950 . S
C1180 C1179 1.398 . S
C1180 C1181 1.391 . S
C1181 H1169 0.950 . S
C1181 C1177 1.393 . S
C1181 C1180 1.391 . S
C1182 H1172 0.950 . S
C1182 C1183 1.386 . S
C1182 C1184 1.391 . S
C1183 C1182 1.386 . S
C1183 C1187 1.393 . S
C1184 H1173 0.950 . S
C1184 C1182 1.391 . S
C1184 C1185 1.400 . S
C1185 C1179 1.491 . S
C1185 C1184 1.400 . S
C1185 C1186 1.398 . S
C1186 H1174 0.950 . S
C1186 C1185 1.398 . S
C1186 C1187 1.391 . S
C1187 H1175 0.950 . S
C1187 C1183 1.393 . S
C1187 C1186 1.391 . S
H1188 C1196 0.950 . S
H1189 C1201 0.950 . S
H1190 C1198 0.950 . S
H1191 C1200 0.950 . S
H1192 C1202 0.950 . S
H1193 C1204 0.950 . S
H1194 C1206 0.950 . S
H1195 C1207 0.950 . S
C1196 H1188 0.950 . S
C1196 C1197 1.386 . S
C1196 C1198 1.391 . S
C1197 C1196 1.386 . S
C1197 C1201 1.393 . S
C1198 H1190 0.950 . S
C1198 C1196 1.391 . S
C1198 C1199 1.400 . S
C1199 C1198 1.400 . S
C1199 C1200 1.398 . S
C1199 C1205 1.491 . S
C1200 H1191 0.950 . S
C1200 C1199 1.398 . S
C1200 C1201 1.391 . S
C1201 H1189 0.950 . S
C1201 C1197 1.393 . S
C1201 C1200 1.391 . S
C1202 H1192 0.950 . S
C1202 C1203 1.386 . S
C1202 C1204 1.391 . S
C1203 C1202 1.386 . S
C1203 C1207 1.393 . S
C1204 H1193 0.950 . S
C1204 C1202 1.391 . S
C1204 C1205 1.400 . S
C1205 C1199 1.491 . S
C1205 C1204 1.400 . S
C1205 C1206 1.398 . S
C1206 H1194 0.950 . S
C1206 C1205 1.398 . S
C1206 C1207 1.391 . S
C1207 H1195 0.950 . S
C1207 C1203 1.393 . S
C1207 C1206 1.391 . S
H1208 C1216 0.950 . S
H1209 C1221 0.950 . S
H1210 C1218 0.950 . S
H1211 C1220 0.950 . S
H1212 C1222 0.950 . S
H1213 C1224 0.950 . S
H1214 C1226 0.950 . S
H1215 C1227 0.950 . S
C1216 H1208 0.950 . S
C1216 C1217 1.386 . S
C1216 C1218 1.391 . S
C1217 C1216 1.386 . S
C1217 C1221 1.393 . S
C1218 H1210 0.950 . S
C1218 C1216 1.391 . S
C1218 C1219 1.400 . S
C1219 C1218 1.400 . S
C1219 C1220 1.398 . S
C1219 C1225 1.491 . S
C1220 H1211 0.950 . S
C1220 C1219 1.398 . S
C1220 C1221 1.391 . S
C1221 H1209 0.950 . S
C1221 C1217 1.393 . S
C1221 C1220 1.391 . S
C1222 H1212 0.950 . S
C1222 C1223 1.386 . S
C1222 C1224 1.391 . S
C1223 C1222 1.386 . S
C1223 C1227 1.393 . S
C1224 H1213 0.950 . S
C1224 C1222 1.391 . S
C1224 C1225 1.400 . S
C1225 C1219 1.491 . S
C1225 C1224 1.400 . S
C1225 C1226 1.398 . S
C1226 H1214 0.950 . S
C1226 C1225 1.398 . S
C1226 C1227 1.391 . S
C1227 H1215 0.950 . S
C1227 C1223 1.393 . S
C1227 C1226 1.391 . S
H1228 C1236 0.950 . S
H1229 C1241 0.950 . S
H1230 C1238 0.950 . S
H1231 C1240 0.950 . S
H1232 C1242 0.950 . S
H1233 C1244 0.950 . S
H1234 C1246 0.950 . S
H1235 C1247 0.950 . S
C1236 H1228 0.950 . S
C1236 C1237 1.386 . S
C1236 C1238 1.391 . S
C1237 C1236 1.386 . S
C1237 C1241 1.393 . S
C1238 H1230 0.950 . S
C1238 C1236 1.391 . S
C1238 C1239 1.400 . S
C1239 C1238 1.400 . S
C1239 C1240 1.398 . S
C1239 C1245 1.491 . S
C1240 H1231 0.950 . S
C1240 C1239 1.398 . S
C1240 C1241 1.391 . S
C1241 H1229 0.950 . S
C1241 C1237 1.393 . S
C1241 C1240 1.391 . S
C1242 H1232 0.950 . S
C1242 C1243 1.386 . S
C1242 C1244 1.391 . S
C1243 C1242 1.386 . S
C1243 C1247 1.393 . S
C1244 H1233 0.950 . S
C1244 C1242 1.391 . S
C1244 C1245 1.400 . S
C1245 C1239 1.491 . S
C1245 C1244 1.400 . S
C1245 C1246 1.398 . S
C1246 H1234 0.950 . S
C1246 C1245 1.398 . S
C1246 C1247 1.391 . S
C1247 H1235 0.950 . S
C1247 C1243 1.393 . S
C1247 C1246 1.391 . S
H1248 C1256 0.950 . S
H1249 C1261 0.950 . S
H1250 C1258 0.950 . S
H1251 C1260 0.950 . S
H1252 C1262 0.950 . S
H1253 C1264 0.950 . S
H1254 C1266 0.950 . S
H1255 C1267 0.950 . S
C1256 H1248 0.950 . S
C1256 C1257 1.386 . S
C1256 C1258 1.391 . S
C1257 C1256 1.386 . S
C1257 C1261 1.393 . S
C1258 H1250 0.950 . S
C1258 C1256 1.391 . S
C1258 C1259 1.400 . S
C1259 C1258 1.400 . S
C1259 C1260 1.398 . S
C1259 C1265 1.491 . S
C1260 H1251 0.950 . S
C1260 C1259 1.398 . S
C1260 C1261 1.391 . S
C1261 H1249 0.950 . S
C1261 C1257 1.393 . S
C1261 C1260 1.391 . S
C1262 H1252 0.950 . S
C1262 C1263 1.386 . S
C1262 C1264 1.391 . S
C1263 C1262 1.386 . S
C1263 C1267 1.393 . S
C1264 H1253 0.950 . S
C1264 C1262 1.391 . S
C1264 C1265 1.400 . S
C1265 C1259 1.491 . S
C1265 C1264 1.400 . S
C1265 C1266 1.398 . S
C1266 H1254 0.950 . S
C1266 C1265 1.398 . S
C1266 C1267 1.391 . S
C1267 H1255 0.950 . S
C1267 C1263 1.393 . S
C1267 C1266 1.391 . S
H1268 C1276 0.950 . S
H1269 C1281 0.950 . S
H1270 C1278 0.950 . S
H1271 C1280 0.950 . S
H1272 C1282 0.950 . S
H1273 C1284 0.950 . S
H1274 C1286 0.950 . S
H1275 C1287 0.950 . S
C1276 H1268 0.950 . S
C1276 C1277 1.386 . S
C1276 C1278 1.391 . S
C1277 C1276 1.386 . S
C1277 C1281 1.393 . S
C1278 H1270 0.950 . S
C1278 C1276 1.391 . S
C1278 C1279 1.400 . S
C1279 C1278 1.400 . S
C1279 C1280 1.398 . S
C1279 C1285 1.491 . S
C1280 H1271 0.950 . S
C1280 C1279 1.398 . S
C1280 C1281 1.391 . S
C1281 H1269 0.950 . S
C1281 C1277 1.393 . S
C1281 C1280 1.391 . S
C1282 H1272 0.950 . S
C1282 C1283 1.386 . S
C1282 C1284 1.391 . S
C1283 C1282 1.386 . S
C1283 C1287 1.393 . S
C1284 H1273 0.950 . S
C1284 C1282 1.391 . S
C1284 C1285 1.400 . S
C1285 C1279 1.491 . S
C1285 C1284 1.400 . S
C1285 C1286 1.398 . S
C1286 H1274 0.950 . S
C1286 C1285 1.398 . S
C1286 C1287 1.391 . S
C1287 H1275 0.950 . S
C1287 C1283 1.393 . S
C1287 C1286 1.391 . S
H1288 C1296 0.950 . S
H1289 C1301 0.950 . S
H1290 C1298 0.950 . S
H1291 C1300 0.950 . S
H1292 C1302 0.950 . S
H1293 C1304 0.950 . S
H1294 C1306 0.950 . S
H1295 C1307 0.950 . S
C1296 H1288 0.950 . S
C1296 C1297 1.386 . S
C1296 C1298 1.391 . S
C1297 C1296 1.386 . S
C1297 C1301 1.393 . S
C1298 H1290 0.950 . S
C1298 C1296 1.391 . S
C1298 C1299 1.400 . S
C1299 C1298 1.400 . S
C1299 C1300 1.398 . S
C1299 C1305 1.491 . S
C1300 H1291 0.950 . S
C1300 C1299 1.398 . S
C1300 C1301 1.391 . S
C1301 H1289 0.950 . S
C1301 C1297 1.393 . S
C1301 C1300 1.391 . S
C1302 H1292 0.950 . S
C1302 C1303 1.386 . S
C1302 C1304 1.391 . S
C1303 C1302 1.386 . S
C1303 C1307 1.393 . S
C1304 H1293 0.950 . S
C1304 C1302 1.391 . S
C1304 C1305 1.400 . S
C1305 C1299 1.491 . S
C1305 C1304 1.400 . S
C1305 C1306 1.398 . S
C1306 H1294 0.950 . S
C1306 C1305 1.398 . S
C1306 C1307 1.391 . S
C1307 H1295 0.950 . S
C1307 C1303 1.393 . S
C1307 C1306 1.391 . S
H1308 C1316 0.950 . S
H1309 C1321 0.950 . S
H1310 C1318 0.950 . S
H1311 C1320 0.950 . S
H1312 C1322 0.950 . S
H1313 C1324 0.950 . S
H1314 C1326 0.950 . S
H1315 C1327 0.950 . S
C1316 H1308 0.950 . S
C1316 C1317 1.386 . S
C1316 C1318 1.391 . S
C1317 C1316 1.386 . S
C1317 C1321 1.393 . S
C1318 H1310 0.950 . S
C1318 C1316 1.391 . S
C1318 C1319 1.400 . S
C1319 C1318 1.400 . S
C1319 C1320 1.398 . S
C1319 C1325 1.491 . S
C1320 H1311 0.950 . S
C1320 C1319 1.398 . S
C1320 C1321 1.391 . S
C1321 H1309 0.950 . S
C1321 C1317 1.393 . S
C1321 C1320 1.391 . S
C1322 H1312 0.950 . S
C1322 C1323 1.386 . S
C1322 C1324 1.391 . S
C1323 C1322 1.386 . S
C1323 C1327 1.393 . S
C1324 H1313 0.950 . S
C1324 C1322 1.391 . S
C1324 C1325 1.400 . S
C1325 C1319 1.491 . S
C1325 C1324 1.400 . S
C1325 C1326 1.398 . S
C1326 H1314 0.950 . S
C1326 C1325 1.398 . S
C1326 C1327 1.391 . S
C1327 H1315 0.950 . S
C1327 C1323 1.393 . S
C1327 C1326 1.391 . S
H1328 C1336 0.950 . S
H1329 C1341 0.950 . S
H1330 C1338 0.950 . S
H1331 C1340 0.950 . S
H1332 C1342 0.950 . S
H1333 C1344 0.950 . S
H1334 C1346 0.950 . S
H1335 C1347 0.950 . S
C1336 H1328 0.950 . S
C1336 C1337 1.386 . S
C1336 C1338 1.391 . S
C1337 C1336 1.386 . S
C1337 C1341 1.393 . S
C1338 H1330 0.950 . S
C1338 C1336 1.391 . S
C1338 C1339 1.400 . S
C1339 C1338 1.400 . S
C1339 C1340 1.398 . S
C1339 C1345 1.491 . S
C1340 H1331 0.950 . S
C1340 C1339 1.398 . S
C1340 C1341 1.391 . S
C1341 H1329 0.950 . S
C1341 C1337 1.393 . S
C1341 C1340 1.391 . S
C1342 H1332 0.950 . S
C1342 C1343 1.386 . S
C1342 C1344 1.391 . S
C1343 C1342 1.386 . S
C1343 C1347 1.393 . S
C1344 H1333 0.950 . S
C1344 C1342 1.391 . S
C1344 C1345 1.400 . S
C1345 C1339 1.491 . S
C1345 C1344 1.400 . S
C1345 C1346 1.398 . S
C1346 H1334 0.950 . S
C1346 C1345 1.398 . S
C1346 C1347 1.391 . S
C1347 H1335 0.950 . S
C1347 C1343 1.393 . S
C1347 C1346 1.391 . S
H1348 C1356 0.950 . S
H1349 C1361 0.950 . S
H1350 C1358 0.950 . S
H1351 C1360 0.950 . S
H1352 C1362 0.950 . S
H1353 C1364 0.950 . S
H1354 C1366 0.950 . S
H1355 C1367 0.950 . S
C1356 H1348 0.950 . S
C1356 C1357 1.386 . S
C1356 C1358 1.391 . S
C1357 C1356 1.386 . S
C1357 C1361 1.393 . S
C1358 H1350 0.950 . S
C1358 C1356 1.391 . S
C1358 C1359 1.400 . S
C1359 C1358 1.400 . S
C1359 C1360 1.398 . S
C1359 C1365 1.491 . S
C1360 H1351 0.950 . S
C1360 C1359 1.398 . S
C1360 C1361 1.391 . S
C1361 H1349 0.950 . S
C1361 C1357 1.393 . S
C1361 C1360 1.391 . S
C1362 H1352 0.950 . S
C1362 C1363 1.386 . S
C1362 C1364 1.391 . S
C1363 C1362 1.386 . S
C1363 C1367 1.393 . S
C1364 H1353 0.950 . S
C1364 C1362 1.391 . S
C1364 C1365 1.400 . S
C1365 C1359 1.491 . S
C1365 C1364 1.400 . S
C1365 C1366 1.398 . S
C1366 H1354 0.950 . S
C1366 C1365 1.398 . S
C1366 C1367 1.391 . S
C1367 H1355 0.950 . S
C1367 C1363 1.393 . S
C1367 C1366 1.391 . S
H1368 C1376 0.950 . S
H1369 C1381 0.950 . S
H1370 C1378 0.950 . S
H1371 C1380 0.950 . S
H1372 C1382 0.950 . S
H1373 C1384 0.950 . S
H1374 C1386 0.950 . S
H1375 C1387 0.950 . S
C1376 H1368 0.950 . S
C1376 C1377 1.386 . S
C1376 C1378 1.391 . S
C1377 C1376 1.386 . S
C1377 C1381 1.393 . S
C1378 H1370 0.950 . S
C1378 C1376 1.391 . S
C1378 C1379 1.400 . S
C1379 C1378 1.400 . S
C1379 C1380 1.398 . S
C1379 C1385 1.491 . S
C1380 H1371 0.950 . S
C1380 C1379 1.398 . S
C1380 C1381 1.391 . S
C1381 H1369 0.950 . S
C1381 C1377 1.393 . S
C1381 C1380 1.391 . S
C1382 H1372 0.950 . S
C1382 C1383 1.386 . S
C1382 C1384 1.391 . S
C1383 C1382 1.386 . S
C1383 C1387 1.393 . S
C1384 H1373 0.950 . S
C1384 C1382 1.391 . S
C1384 C1385 1.400 . S
C1385 C1379 1.491 . S
C1385 C1384 1.400 . S
C1385 C1386 1.398 . S
C1386 H1374 0.950 . S
C1386 C1385 1.398 . S
C1386 C1387 1.391 . S
C1387 H1375 0.950 . S
C1387 C1383 1.393 . S
C1387 C1386 1.391 . S
H1388 C1396 0.950 . S
H1389 C1401 0.950 . S
H1390 C1398 0.950 . S
H1391 C1400 0.950 . S
H1392 C1402 0.950 . S
H1393 C1404 0.950 . S
H1394 C1406 0.950 . S
H1395 C1407 0.950 . S
C1396 H1388 0.950 . S
C1396 C1397 1.386 . S
C1396 C1398 1.391 . S
C1397 C1396 1.386 . S
C1397 C1401 1.393 . S
C1398 H1390 0.950 . S
C1398 C1396 1.391 . S
C1398 C1399 1.400 . S
C1399 C1398 1.400 . S
C1399 C1400 1.398 . S
C1399 C1405 1.491 . S
C1400 H1391 0.950 . S
C1400 C1399 1.398 . S
C1400 C1401 1.391 . S
C1401 H1389 0.950 . S
C1401 C1397 1.393 . S
C1401 C1400 1.391 . S
C1402 H1392 0.950 . S
C1402 C1403 1.386 . S
C1402 C1404 1.391 . S
C1403 C1402 1.386 . S
C1403 C1407 1.393 . S
C1404 H1393 0.950 . S
C1404 C1402 1.391 . S
C1404 C1405 1.400 . S
C1405 C1399 1.491 . S
C1405 C1404 1.400 . S
C1405 C1406 1.398 . S
C1406 H1394 0.950 . S
C1406 C1405 1.398 . S
C1406 C1407 1.391 . S
C1407 H1395 0.950 . S
C1407 C1403 1.393 . S
C1407 C1406 1.391 . S
H1408 C1416 0.950 . S
H1409 C1421 0.950 . S
H1410 C1418 0.950 . S
H1411 C1420 0.950 . S
H1412 C1422 0.950 . S
H1413 C1424 0.950 . S
H1414 C1426 0.950 . S
H1415 C1427 0.950 . S
C1416 H1408 0.950 . S
C1416 C1417 1.386 . S
C1416 C1418 1.391 . S
C1417 C1416 1.386 . S
C1417 C1421 1.393 . S
C1418 H1410 0.950 . S
C1418 C1416 1.391 . S
C1418 C1419 1.400 . S
C1419 C1418 1.400 . S
C1419 C1420 1.398 . S
C1419 C1425 1.491 . S
C1420 H1411 0.950 . S
C1420 C1419 1.398 . S
C1420 C1421 1.391 . S
C1421 H1409 0.950 . S
C1421 C1417 1.393 . S
C1421 C1420 1.391 . S
C1422 H1412 0.950 . S
C1422 C1423 1.386 . S
C1422 C1424 1.391 . S
C1423 C1422 1.386 . S
C1423 C1427 1.393 . S
C1424 H1413 0.950 . S
C1424 C1422 1.391 . S
C1424 C1425 1.400 . S
C1425 C1419 1.491 . S
C1425 C1424 1.400 . S
C1425 C1426 1.398 . S
C1426 H1414 0.950 . S
C1426 C1425 1.398 . S
C1426 C1427 1.391 . S
C1427 H1415 0.950 . S
C1427 C1423 1.393 . S
C1427 C1426 1.391 . S
H1428 C1436 0.950 . S
H1429 C1441 0.950 . S
H1430 C1438 0.950 . S
H1431 C1440 0.950 . S
H1432 C1442 0.950 . S
H1433 C1444 0.950 . S
H1434 C1446 0.950 . S
H1435 C1447 0.950 . S
C1436 H1428 0.950 . S
C1436 C1437 1.386 . S
C1436 C1438 1.391 . S
C1437 C1436 1.386 . S
C1437 C1441 1.393 . S
C1438 H1430 0.950 . S
C1438 C1436 1.391 . S
C1438 C1439 1.400 . S
C1439 C1438 1.400 . S
C1439 C1440 1.398 . S
C1439 C1445 1.491 . S
C1440 H1431 0.950 . S
C1440 C1439 1.398 . S
C1440 C1441 1.391 . S
C1441 H1429 0.950 . S
C1441 C1437 1.393 . S
C1441 C1440 1.391 . S
C1442 H1432 0.950 . S
C1442 C1443 1.386 . S
C1442 C1444 1.391 . S
C1443 C1442 1.386 . S
C1443 C1447 1.393 . S
C1444 H1433 0.950 . S
C1444 C1442 1.391 . S
C1444 C1445 1.400 . S
C1445 C1439 1.491 . S
C1445 C1444 1.400 . S
C1445 C1446 1.398 . S
C1446 H1434 0.950 . S
C1446 C1445 1.398 . S
C1446 C1447 1.391 . S
C1447 H1435 0.950 . S
C1447 C1443 1.393 . S
C1447 C1446 1.391 . S
H1448 C1456 0.950 . S
H1449 C1461 0.950 . S
H1450 C1458 0.950 . S
H1451 C1460 0.950 . S
H1452 C1462 0.950 . S
H1453 C1464 0.950 . S
H1454 C1466 0.950 . S
H1455 C1467 0.950 . S
C1456 H1448 0.950 . S
C1456 C1457 1.386 . S
C1456 C1458 1.391 . S
C1457 C1456 1.386 . S
C1457 C1461 1.393 . S
C1458 H1450 0.950 . S
C1458 C1456 1.391 . S
C1458 C1459 1.400 . S
C1459 C1458 1.400 . S
C1459 C1460 1.398 . S
C1459 C1465 1.491 . S
C1460 H1451 0.950 . S
C1460 C1459 1.398 . S
C1460 C1461 1.391 . S
C1461 H1449 0.950 . S
C1461 C1457 1.393 . S
C1461 C1460 1.391 . S
C1462 H1452 0.950 . S
C1462 C1463 1.386 . S
C1462 C1464 1.391 . S
C1463 C1462 1.386 . S
C1463 C1467 1.393 . S
C1464 H1453 0.950 . S
C1464 C1462 1.391 . S
C1464 C1465 1.400 . S
C1465 C1459 1.491 . S
C1465 C1464 1.400 . S
C1465 C1466 1.398 . S
C1466 H1454 0.950 . S
C1466 C1465 1.398 . S
C1466 C1467 1.391 . S
C1467 H1455 0.950 . S
C1467 C1463 1.393 . S
C1467 C1466 1.391 . S
H1468 C1476 0.950 . S
H1469 C1481 0.950 . S
H1470 C1478 0.950 . S
H1471 C1480 0.950 . S
H1472 C1482 0.950 . S
H1473 C1484 0.950 . S
H1474 C1486 0.950 . S
H1475 C1487 0.950 . S
C1476 H1468 0.950 . S
C1476 C1477 1.386 . S
C1476 C1478 1.391 . S
C1477 C1476 1.386 . S
C1477 C1481 1.393 . S
C1478 H1470 0.950 . S
C1478 C1476 1.391 . S
C1478 C1479 1.400 . S
C1479 C1478 1.400 . S
C1479 C1480 1.398 . S
C1479 C1485 1.491 . S
C1480 H1471 0.950 . S
C1480 C1479 1.398 . S
C1480 C1481 1.391 . S
C1481 H1469 0.950 . S
C1481 C1477 1.393 . S
C1481 C1480 1.391 . S
C1482 H1472 0.950 . S
C1482 C1483 1.386 . S
C1482 C1484 1.391 . S
C1483 C1482 1.386 . S
C1483 C1487 1.393 . S
C1484 H1473 0.950 . S
C1484 C1482 1.391 . S
C1484 C1485 1.400 . S
C1485 C1479 1.491 . S
C1485 C1484 1.400 . S
C1485 C1486 1.398 . S
C1486 H1474 0.950 . S
C1486 C1485 1.398 . S
C1486 C1487 1.391 . S
C1487 H1475 0.950 . S
C1487 C1483 1.393 . S
C1487 C1486 1.391 . S
H1488 C1496 0.950 . S
H1489 C1501 0.950 . S
H1490 C1498 0.950 . S
H1491 C1500 0.950 . S
H1492 C1502 0.950 . S
H1493 C1504 0.950 . S
H1494 C1506 0.950 . S
H1495 C1507 0.950 . S
C1496 H1488 0.950 . S
C1496 C1497 1.386 . S
C1496 C1498 1.391 . S
C1497 C1496 1.386 . S
C1497 C1501 1.393 . S
C1498 H1490 0.950 . S
C1498 C1496 1.391 . S
C1498 C1499 1.400 . S
C1499 C1498 1.400 . S
C1499 C1500 1.398 . S
C1499 C1505 1.491 . S
C1500 H1491 0.950 . S
C1500 C1499 1.398 . S
C1500 C1501 1.391 . S
C1501 H1489 0.950 . S
C1501 C1497 1.393 . S
C1501 C1500 1.391 . S
C1502 H1492 0.950 . S
C1502 C1503 1.386 . S
C1502 C1504 1.391 . S
C1503 C1502 1.386 . S
C1503 C1507 1.393 . S
C1504 H1493 0.950 . S
C1504 C1502 1.391 . S
C1504 C1505 1.400 . S
C1505 C1499 1.491 . S
C1505 C1504 1.400 . S
C1505 C1506 1.398 . S
C1506 H1494 0.950 . S
C1506 C1505 1.398 . S
C1506 C1507 1.391 . S
C1507 H1495 0.950 . S
C1507 C1503 1.393 . S
C1507 C1506 1.391 . S
H1508 C1516 0.950 . S
H1509 C1521 0.950 . S
H1510 C1518 0.950 . S
H1511 C1520 0.950 . S
H1512 C1522 0.950 . S
H1513 C1524 0.950 . S
H1514 C1526 0.950 . S
H1515 C1527 0.950 . S
C1516 H1508 0.950 . S
C1516 C1517 1.386 . S
C1516 C1518 1.391 . S
C1517 C1516 1.386 . S
C1517 C1521 1.393 . S
C1518 H1510 0.950 . S
C1518 C1516 1.391 . S
C1518 C1519 1.400 . S
C1519 C1518 1.400 . S
C1519 C1520 1.398 . S
C1519 C1525 1.491 . S
C1520 H1511 0.950 . S
C1520 C1519 1.398 . S
C1520 C1521 1.391 . S
C1521 H1509 0.950 . S
C1521 C1517 1.393 . S
C1521 C1520 1.391 . S
C1522 H1512 0.950 . S
C1522 C1523 1.386 . S
C1522 C1524 1.391 . S
C1523 C1522 1.386 . S
C1523 C1527 1.393 . S
C1524 H1513 0.950 . S
C1524 C1522 1.391 . S
C1524 C1525 1.400 . S
C1525 C1519 1.491 . S
C1525 C1524 1.400 . S
C1525 C1526 1.398 . S
C1526 H1514 0.950 . S
C1526 C1525 1.398 . S
C1526 C1527 1.391 . S
C1527 H1515 0.950 . S
C1527 C1523 1.393 . S
C1527 C1526 1.391 . S
H1528 C1536 0.950 . S
H1529 C1541 0.950 . S
H1530 C1538 0.950 . S
H1531 C1540 0.950 . S
H1532 C1542 0.950 . S
H1533 C1544 0.950 . S
H1534 C1546 0.950 . S
H1535 C1547 0.950 . S
C1536 H1528 0.950 . S
C1536 C1537 1.386 . S
C1536 C1538 1.391 . S
C1537 C1536 1.386 . S
C1537 C1541 1.393 . S
C1538 H1530 0.950 . S
C1538 C1536 1.391 . S
C1538 C1539 1.400 . S
C1539 C1538 1.400 . S
C1539 C1540 1.398 . S
C1539 C1545 1.491 . S
C1540 H1531 0.950 . S
C1540 C1539 1.398 . S
C1540 C1541 1.391 . S
C1541 H1529 0.950 . S
C1541 C1537 1.393 . S
C1541 C1540 1.391 . S
C1542 H1532 0.950 . S
C1542 C1543 1.386 . S
C1542 C1544 1.391 . S
C1543 C1542 1.386 . S
C1543 C1547 1.393 . S
C1544 H1533 0.950 . S
C1544 C1542 1.391 . S
C1544 C1545 1.400 . S
C1545 C1539 1.491 . S
C1545 C1544 1.400 . S
C1545 C1546 1.398 . S
C1546 H1534 0.950 . S
C1546 C1545 1.398 . S
C1546 C1547 1.391 . S
C1547 H1535 0.950 . S
C1547 C1543 1.393 . S
C1547 C1546 1.391 . S
H1548 C1556 0.950 . S
H1549 C1561 0.950 . S
H1550 C1558 0.950 . S
H1551 C1560 0.950 . S
H1552 C1562 0.950 . S
H1553 C1564 0.950 . S
H1554 C1566 0.950 . S
H1555 C1567 0.950 . S
C1556 H1548 0.950 . S
C1556 C1557 1.386 . S
C1556 C1558 1.391 . S
C1557 C1556 1.386 . S
C1557 C1561 1.393 . S
C1558 H1550 0.950 . S
C1558 C1556 1.391 . S
C1558 C1559 1.400 . S
C1559 C1558 1.400 . S
C1559 C1560 1.398 . S
C1559 C1565 1.491 . S
C1560 H1551 0.950 . S
C1560 C1559 1.398 . S
C1560 C1561 1.391 . S
C1561 H1549 0.950 . S
C1561 C1557 1.393 . S
C1561 C1560 1.391 . S
C1562 H1552 0.950 . S
C1562 C1563 1.386 . S
C1562 C1564 1.391 . S
C1563 C1562 1.386 . S
C1563 C1567 1.393 . S
C1564 H1553 0.950 . S
C1564 C1562 1.391 . S
C1564 C1565 1.400 . S
C1565 C1559 1.491 . S
C1565 C1564 1.400 . S
C1565 C1566 1.398 . S
C1566 H1554 0.950 . S
C1566 C1565 1.398 . S
C1566 C1567 1.391 . S
C1567 H1555 0.950 . S
C1567 C1563 1.393 . S
C1567 C1566 1.391 . S
H1568 C1576 0.950 . S
H1569 C1581 0.950 . S
H1570 C1578 0.950 . S
H1571 C1580 0.950 . S
H1572 C1582 0.950 . S
H1573 C1584 0.950 . S
H1574 C1586 0.950 . S
H1575 C1587 0.950 . S
C1576 H1568 0.950 . S
C1576 C1577 1.386 . S
C1576 C1578 1.391 . S
C1577 C1576 1.386 . S
C1577 C1581 1.393 . S
C1578 H1570 0.950 . S
C1578 C1576 1.391 . S
C1578 C1579 1.400 . S
C1579 C1578 1.400 . S
C1579 C1580 1.398 . S
C1579 C1585 1.491 . S
C1580 H1571 0.950 . S
C1580 C1579 1.398 . S
C1580 C1581 1.391 . S
C1581 H1569 0.950 . S
C1581 C1577 1.393 . S
C1581 C1580 1.391 . S
C1582 H1572 0.950 . S
C1582 C1583 1.386 1_565 S
C1582 C1584 1.391 . S
C1583 C1582 1.386 1_545 S
C1583 C1587 1.393 . S
C1584 H1573 0.950 . S
C1584 C1582 1.391 . S
C1584 C1585 1.400 . S
C1585 C1579 1.491 . S
C1585 C1584 1.400 . S
C1585 C1586 1.398 1_565 S
C1586 H1574 0.950 . S
C1586 C1585 1.398 1_545 S
C1586 C1587 1.391 . S
C1587 H1575 0.950 . S
C1587 C1583 1.393 . S
C1587 C1586 1.391 . S
H1588 C1596 0.950 . S
H1589 C1601 0.950 . S
H1590 C1598 0.959 . S
H1591 C1600 0.950 . S
H1592 C1602 0.950 . S
H1593 C1604 0.950 . S
H1594 C1606 0.950 . S
H1595 C1607 0.950 . S
C1596 H1588 0.950 . S
C1596 C1597 1.386 . S
C1596 C1598 1.391 . S
C1597 C1596 1.386 . S
C1597 C1601 1.393 . S
C1598 H1590 0.959 . S
C1598 C1596 1.391 . S
C1598 C1599 1.400 1_655 S
C1599 C1598 1.400 1_455 S
C1599 C1600 1.398 . S
C1599 C1605 1.491 . S
C1600 H1591 0.950 . S
C1600 C1599 1.398 . S
C1600 C1601 1.391 1_455 S
C1601 H1589 0.950 . S
C1601 C1597 1.393 . S
C1601 C1600 1.391 1_655 S
C1602 H1592 0.950 . S
C1602 C1603 1.386 . S
C1602 C1604 1.391 . S
C1603 C1602 1.386 . S
C1603 C1607 1.393 . S
C1604 H1593 0.950 . S
C1604 C1602 1.391 . S
C1604 C1605 1.400 . S
C1605 C1599 1.491 . S
C1605 C1604 1.400 . S
C1605 C1606 1.398 . S
C1606 H1594 0.950 . S
C1606 C1605 1.398 . S
C1606 C1607 1.391 . S
C1607 H1595 0.950 . S
C1607 C1603 1.393 . S
C1607 C1606 1.391 . S
H1608 C1616 0.950 . S
H1609 C1621 0.950 . S
H1610 C1618 0.950 . S
H1611 C1620 0.950 . S
H1612 C1622 0.950 . S
H1613 C1624 0.950 . S
H1614 C1626 0.950 . S
H1615 C1627 0.950 . S
C1616 H1608 0.950 . S
C1616 C1617 1.386 . S
C1616 C1618 1.391 . S
C1617 C1616 1.386 . S
C1617 C1621 1.393 . S
C1618 H1610 0.950 . S
C1618 C1616 1.391 . S
C1618 C1619 1.400 . S
C1619 C1618 1.400 . S
C1619 C1620 1.398 . S
C1619 C1625 1.491 . S
C1620 H1611 0.950 . S
C1620 C1619 1.398 . S
C1620 C1621 1.391 . S
C1621 H1609 0.950 . S
C1621 C1617 1.393 . S
C1621 C1620 1.391 . S
C1622 H1612 0.950 . S
C1622 C1623 1.386 . S
C1622 C1624 1.391 . S
C1623 C1622 1.386 . S
C1623 C1627 1.393 . S
C1624 H1613 0.950 . S
C1624 C1622 1.391 . S
C1624 C1625 1.400 . S
C1625 C1619 1.491 . S
C1625 C1624 1.400 . S
C1625 C1626 1.398 . S
C1626 H1614 0.950 . S
C1626 C1625 1.398 . S
C1626 C1627 1.391 . S
C1627 H1615 0.950 . S
C1627 C1623 1.393 . S
C1627 C1626 1.391 . S
H1628 C1636 0.950 . S
H1629 C1641 0.950 . S
H1630 C1638 0.950 . S
H1631 C1640 0.950 . S
H1632 C1642 0.950 . S
H1633 C1644 0.950 . S
H1634 C1646 0.950 . S
H1635 C1647 0.950 . S
C1636 H1628 0.950 . S
C1636 C1637 1.386 . S
C1636 C1638 1.391 . S
C1637 C1636 1.386 . S
C1637 C1641 1.393 . S
C1638 H1630 0.950 . S
C1638 C1636 1.391 . S
C1638 C1639 1.400 . S
C1639 C1638 1.400 . S
C1639 C1640 1.398 . S
C1639 C1645 1.491 . S
C1640 H1631 0.950 . S
C1640 C1639 1.398 . S
C1640 C1641 1.391 . S
C1641 H1629 0.950 . S
C1641 C1637 1.393 . S
C1641 C1640 1.391 . S
C1642 H1632 0.950 . S
C1642 C1643 1.386 . S
C1642 C1644 1.391 . S
C1643 C1642 1.386 . S
C1643 C1647 1.393 1_565 S
C1644 H1633 0.950 . S
C1644 C1642 1.391 . S
C1644 C1645 1.400 1_565 S
C1645 C1639 1.491 . S
C1645 C1644 1.400 1_545 S
C1645 C1646 1.398 . S
C1646 H1634 0.950 . S
C1646 C1645 1.398 . S
C1646 C1647 1.391 . S
C1647 H1635 0.950 . S
C1647 C1643 1.393 1_545 S
C1647 C1646 1.391 . S
H1648 C1656 0.950 . S
H1649 C1661 0.950 . S
H1650 C1658 0.950 . S
H1651 C1660 0.950 . S
H1652 C1662 0.950 . S
H1653 C1664 0.950 1_455 S
H1654 C1666 0.950 . S
H1655 C1667 0.950 . S
C1656 H1648 0.950 . S
C1656 C1657 1.386 1_655 S
C1656 C1658 1.391 . S
C1657 C1656 1.386 1_455 S
C1657 C1661 1.393 . S
C1658 H1650 0.950 . S
C1658 C1656 1.391 . S
C1658 C1659 1.400 . S
C1659 C1658 1.400 . S
C1659 C1660 1.398 1_655 S
C1659 C1665 1.491 . S
C1660 H1651 0.950 . S
C1660 C1659 1.398 1_455 S
C1660 C1661 1.391 . S
C1661 H1649 0.950 . S
C1661 C1657 1.393 . S
C1661 C1660 1.391 . S
C1662 H1652 0.950 . S
C1662 C1663 1.386 . S
C1662 C1664 1.391 . S
C1663 C1662 1.386 . S
C1663 C1667 1.393 . S
C1664 H1653 0.950 1_655 S
C1664 C1662 1.391 . S
C1664 C1665 1.400 . S
C1665 C1659 1.491 . S
C1665 C1664 1.400 . S
C1665 C1666 1.398 . S
C1666 H1654 0.950 . S
C1666 C1665 1.398 . S
C1666 C1667 1.391 . S
C1667 H1655 0.950 . S
C1667 C1663 1.393 . S
C1667 C1666 1.391 . S
H1668 C1676 0.950 . S
H1669 C1681 0.950 . S
H1670 C1678 0.950 . S
H1671 C1680 0.950 . S
H1672 C1682 0.950 . S
H1673 C1684 0.950 . S
H1674 C1686 0.950 . S
H1675 C1687 0.950 . S
C1676 H1668 0.950 . S
C1676 C1677 1.386 . S
C1676 C1678 1.391 . S
C1677 C1676 1.386 . S
C1677 C1681 1.393 . S
C1678 H1670 0.950 . S
C1678 C1676 1.391 . S
C1678 C1679 1.400 . S
C1679 C1678 1.400 . S
C1679 C1680 1.398 . S
C1679 C1685 1.491 . S
C1680 H1671 0.950 . S
C1680 C1679 1.398 . S
C1680 C1681 1.391 . S
C1681 H1669 0.950 . S
C1681 C1677 1.393 . S
C1681 C1680 1.391 . S
C1682 H1672 0.950 . S
C1682 C1683 1.386 . S
C1682 C1684 1.391 . S
C1683 C1682 1.386 . S
C1683 C1687 1.393 . S
C1684 H1673 0.950 . S
C1684 C1682 1.391 . S
C1684 C1685 1.400 . S
C1685 C1679 1.491 . S
C1685 C1684 1.400 . S
C1685 C1686 1.398 . S
C1686 H1674 0.950 . S
C1686 C1685 1.398 . S
C1686 C1687 1.391 . S
C1687 H1675 0.950 . S
C1687 C1683 1.393 . S
C1687 C1686 1.391 . S
H1688 C1696 0.950 . S
H1689 C1701 0.950 . S
H1690 C1698 0.950 . S
H1691 C1700 0.950 . S
H1692 C1702 0.950 . S
H1693 C1704 0.956 . S
H1694 C1706 0.950 . S
H1695 C1707 0.950 . S
C1696 H1688 0.950 . S
C1696 C1697 1.386 1_545 S
C1696 C1698 1.391 . S
C1697 C1696 1.386 1_565 S
C1697 C1701 1.393 . S
C1698 H1690 0.950 . S
C1698 C1696 1.391 . S
C1698 C1699 1.400 . S
C1699 C1698 1.400 . S
C1699 C1700 1.398 1_545 S
C1699 C1705 1.491 . S
C1700 H1691 0.950 . S
C1700 C1699 1.398 1_565 S
C1700 C1701 1.391 . S
C1701 H1689 0.950 . S
C1701 C1697 1.393 . S
C1701 C1700 1.391 . S
C1702 H1692 0.950 . S
C1702 C1703 1.386 . S
C1702 C1704 1.391 . S
C1703 C1702 1.386 . S
C1703 C1707 1.393 . S
C1704 H1693 0.956 . S
C1704 C1702 1.391 . S
C1704 C1705 1.400 . S
C1705 C1699 1.491 . S
C1705 C1704 1.400 . S
C1705 C1706 1.398 . S
C1706 H1694 0.950 . S
C1706 C1705 1.398 . S
C1706 C1707 1.391 . S
C1707 H1695 0.950 . S
C1707 C1703 1.393 . S
C1707 C1706 1.391 . S
H1708 C1716 0.950 . S
H1709 C1721 0.950 . S
H1710 C1718 0.950 . S
H1711 C1720 0.950 . S
H1712 C1722 0.950 . S
H1713 C1724 0.950 . S
H1714 C1726 0.950 1_455 S
H1715 C1727 0.950 . S
C1716 H1708 0.950 . S
C1716 C1717 1.386 . S
C1716 C1718 1.391 . S
C1717 C1716 1.386 . S
C1717 C1721 1.393 1_455 S
C1718 H1710 0.950 . S
C1718 C1716 1.391 . S
C1718 C1719 1.400 1_455 S
C1719 C1718 1.400 1_655 S
C1719 C1720 1.398 . S
C1719 C1725 1.491 . S
C1720 H1711 0.950 . S
C1720 C1719 1.398 . S
C1720 C1721 1.391 . S
C1721 H1709 0.950 . S
C1721 C1717 1.393 1_655 S
C1721 C1720 1.391 . S
C1722 H1712 0.950 . S
C1722 C1723 1.386 . S
C1722 C1724 1.391 . S
C1723 C1722 1.386 . S
C1723 C1727 1.393 . S
C1724 H1713 0.950 . S
C1724 C1722 1.391 . S
C1724 C1725 1.400 . S
C1725 C1719 1.491 . S
C1725 C1724 1.400 . S
C1725 C1726 1.398 . S
C1726 H1714 0.950 1_655 S
C1726 C1725 1.398 . S
C1726 C1727 1.391 . S
C1727 H1715 0.950 . S
C1727 C1723 1.393 . S
C1727 C1726 1.391 . S
H1728 C1736 0.950 . S
H1729 C1741 0.950 . S
H1730 C1738 0.950 . S
H1731 C1740 0.950 . S
H1732 C1742 0.950 . S
H1733 C1744 0.950 . S
H1734 C1746 0.950 . S
H1735 C1747 0.950 . S
C1736 H1728 0.950 . S
C1736 C1737 1.386 . S
C1736 C1738 1.391 . S
C1737 C1736 1.386 . S
C1737 C1741 1.393 . S
C1738 H1730 0.950 . S
C1738 C1736 1.391 . S
C1738 C1739 1.400 . S
C1739 C1738 1.400 . S
C1739 C1740 1.398 . S
C1739 C1745 1.491 . S
C1740 H1731 0.950 . S
C1740 C1739 1.398 . S
C1740 C1741 1.391 . S
C1741 H1729 0.950 . S
C1741 C1737 1.393 . S
C1741 C1740 1.391 . S
C1742 H1732 0.950 . S
C1742 C1743 1.386 . S
C1742 C1744 1.391 . S
C1743 C1742 1.386 . S
C1743 C1747 1.393 . S
C1744 H1733 0.950 . S
C1744 C1742 1.391 . S
C1744 C1745 1.400 . S
C1745 C1739 1.491 . S
C1745 C1744 1.400 . S
C1745 C1746 1.398 . S
C1746 H1734 0.950 . S
C1746 C1745 1.398 . S
C1746 C1747 1.391 . S
C1747 H1735 0.950 . S
C1747 C1743 1.393 . S
C1747 C1746 1.391 . S
H1748 C1756 0.950 . S
H1749 C1761 0.950 . S
H1750 C1758 0.950 . S
H1751 C1760 0.950 . S
H1752 C1762 0.950 . S
H1753 C1764 0.950 . S
H1754 C1766 0.950 . S
H1755 C1767 0.950 . S
C1756 H1748 0.950 . S
C1756 C1757 1.386 . S
C1756 C1758 1.391 . S
C1757 C1756 1.386 . S
C1757 C1761 1.393 1_545 S
C1758 H1750 0.950 . S
C1758 C1756 1.391 . S
C1758 C1759 1.400 1_545 S
C1759 C1758 1.400 1_565 S
C1759 C1760 1.398 . S
C1759 C1765 1.491 . S
C1760 H1751 0.950 . S
C1760 C1759 1.398 . S
C1760 C1761 1.391 . S
C1761 H1749 0.950 . S
C1761 C1757 1.393 1_565 S
C1761 C1760 1.391 . S
C1762 H1752 0.950 . S
C1762 C1763 1.386 . S
C1762 C1764 1.391 . S
C1763 C1762 1.386 . S
C1763 C1767 1.393 . S
C1764 H1753 0.950 . S
C1764 C1762 1.391 . S
C1764 C1765 1.400 . S
C1765 C1759 1.491 . S
C1765 C1764 1.400 . S
C1765 C1766 1.398 . S
C1766 H1754 0.950 . S
C1766 C1765 1.398 . S
C1766 C1767 1.391 . S
C1767 H1755 0.950 . S
C1767 C1763 1.393 . S
C1767 C1766 1.391 . S
H1768 C1776 0.950 . S
H1769 C1781 0.950 . S
H1770 C1778 0.950 . S
H1771 C1780 0.950 1_655 S
H1772 C1782 0.950 . S
H1773 C1784 0.950 . S
H1774 C1786 0.950 . S
H1775 C1787 0.950 . S
C1776 H1768 0.950 . S
C1776 C1777 1.386 . S
C1776 C1778 1.391 . S
C1777 C1776 1.386 . S
C1777 C1781 1.393 . S
C1778 H1770 0.950 . S
C1778 C1776 1.391 . S
C1778 C1779 1.400 . S
C1779 C1778 1.400 . S
C1779 C1780 1.398 . S
C1779 C1785 1.491 . S
C1780 H1771 0.950 1_455 S
C1780 C1779 1.398 . S
C1780 C1781 1.391 . S
C1781 H1769 0.950 . S
C1781 C1777 1.393 . S
C1781 C1780 1.391 . S
C1782 H1772 0.950 . S
C1782 C1783 1.386 . S
C1782 C1784 1.391 . S
C1783 C1782 1.386 . S
C1783 C1787 1.393 1_655 S
C1784 H1773 0.950 . S
C1784 C1782 1.391 . S
C1784 C1785 1.400 1_655 S
C1785 C1779 1.491 . S
C1785 C1784 1.400 1_455 S
C1785 C1786 1.398 . S
C1786 H1774 0.950 . S
C1786 C1785 1.398 . S
C1786 C1787 1.391 . S
C1787 H1775 0.950 . S
C1787 C1783 1.393 1_455 S
C1787 C1786 1.391 . S
H1788 C1796 0.950 . S
H1789 C1801 0.950 . S
H1790 C1798 0.950 . S
H1791 C1800 0.950 . S
H1792 C1802 0.950 . S
H1793 C1804 0.950 . S
H1794 C1806 0.950 . S
H1795 C1807 0.950 . S
C1796 H1788 0.950 . S
C1796 C1797 1.386 . S
C1796 C1798 1.391 . S
C1797 C1796 1.386 . S
C1797 C1801 1.393 . S
C1798 H1790 0.950 . S
C1798 C1796 1.391 . S
C1798 C1799 1.400 . S
C1799 C1798 1.400 . S
C1799 C1800 1.398 . S
C1799 C1805 1.491 1_655 S
C1800 H1791 0.950 . S
C1800 C1799 1.398 . S
C1800 C1801 1.391 . S
C1801 H1789 0.950 . S
C1801 C1797 1.393 . S
C1801 C1800 1.391 . S
C1802 H1792 0.950 . S
C1802 C1803 1.386 . S
C1802 C1804 1.391 . S
C1803 C1802 1.386 . S
C1803 C1807 1.393 . S
C1804 H1793 0.950 . S
C1804 C1802 1.391 . S
C1804 C1805 1.400 . S
C1805 C1799 1.491 1_455 S
C1805 C1804 1.400 . S
C1805 C1806 1.398 . S
C1806 H1794 0.950 . S
C1806 C1805 1.398 . S
C1806 C1807 1.391 . S
C1807 H1795 0.950 . S
C1807 C1803 1.393 . S
C1807 C1806 1.391 . S
H1808 C1816 0.950 . S
H1809 C1821 0.950 . S
H1810 C1818 0.950 . S
H1811 C1820 0.950 . S
H1812 C1822 0.950 . S
H1813 C1824 0.950 . S
H1814 C1826 0.950 . S
H1815 C1827 0.950 . S
C1816 H1808 0.950 . S
C1816 C1817 1.386 . S
C1816 C1818 1.391 . S
C1817 C1816 1.386 . S
C1817 C1821 1.393 . S
C1818 H1810 0.950 . S
C1818 C1816 1.391 . S
C1818 C1819 1.400 . S
C1819 C1818 1.400 . S
C1819 C1820 1.398 . S
C1819 C1825 1.491 . S
C1820 H1811 0.950 . S
C1820 C1819 1.398 . S
C1820 C1821 1.391 . S
C1821 H1809 0.950 . S
C1821 C1817 1.393 . S
C1821 C1820 1.391 . S
C1822 H1812 0.950 . S
C1822 C1823 1.386 . S
C1822 C1824 1.391 . S
C1823 C1822 1.386 . S
C1823 C1827 1.393 . S
C1824 H1813 0.950 . S
C1824 C1822 1.391 . S
C1824 C1825 1.400 . S
C1825 C1819 1.491 . S
C1825 C1824 1.400 . S
C1825 C1826 1.398 . S
C1826 H1814 0.950 . S
C1826 C1825 1.398 . S
C1826 C1827 1.391 . S
C1827 H1815 0.950 . S
C1827 C1823 1.393 . S
C1827 C1826 1.391 . S
H1828 C1836 0.950 . S
H1829 C1841 0.950 . S
H1830 C1838 0.950 . S
H1831 C1840 0.950 . S
H1832 C1842 0.950 . S
H1833 C1844 0.950 . S
H1834 C1846 0.950 . S
H1835 C1847 0.950 . S
C1836 H1828 0.950 . S
C1836 C1837 1.386 . S
C1836 C1838 1.391 . S
C1837 C1836 1.386 . S
C1837 C1841 1.393 . S
C1838 H1830 0.950 . S
C1838 C1836 1.391 . S
C1838 C1839 1.400 . S
C1839 C1838 1.400 . S
C1839 C1840 1.398 . S
C1839 C1845 1.491 1_565 S
C1840 H1831 0.950 . S
C1840 C1839 1.398 . S
C1840 C1841 1.391 . S
C1841 H1829 0.950 . S
C1841 C1837 1.393 . S
C1841 C1840 1.391 . S
C1842 H1832 0.950 . S
C1842 C1843 1.386 . S
C1842 C1844 1.391 . S
C1843 C1842 1.386 . S
C1843 C1847 1.393 . S
C1844 H1833 0.950 . S
C1844 C1842 1.391 . S
C1844 C1845 1.400 . S
C1845 C1839 1.491 1_545 S
C1845 C1844 1.400 . S
C1845 C1846 1.398 . S
C1846 H1834 0.950 . S
C1846 C1845 1.398 . S
C1846 C1847 1.391 . S
C1847 H1835 0.950 . S
C1847 C1843 1.393 . S
C1847 C1846 1.391 . S
H1848 C1856 0.950 . S
H1849 C1861 0.950 . S
H1850 C1858 0.950 . S
H1851 C1860 0.950 . S
H1852 C1862 0.950 . S
H1853 C1864 0.950 . S
H1854 C1866 0.950 . S
H1855 C1867 0.950 . S
C1856 H1848 0.950 . S
C1856 C1857 1.386 . S
C1856 C1858 1.391 . S
C1857 C1856 1.386 . S
C1857 C1861 1.393 . S
C1858 H1850 0.950 . S
C1858 C1856 1.391 . S
C1858 C1859 1.400 . S
C1859 C1858 1.400 . S
C1859 C1860 1.398 . S
C1859 C1865 1.491 1_565 S
C1860 H1851 0.950 . S
C1860 C1859 1.398 . S
C1860 C1861 1.391 . S
C1861 H1849 0.950 . S
C1861 C1857 1.393 . S
C1861 C1860 1.391 . S
C1862 H1852 0.950 . S
C1862 C1863 1.386 . S
C1862 C1864 1.391 . S
C1863 C1862 1.386 . S
C1863 C1867 1.393 . S
C1864 H1853 0.950 . S
C1864 C1862 1.391 . S
C1864 C1865 1.400 . S
C1865 C1859 1.491 1_545 S
C1865 C1864 1.400 . S
C1865 C1866 1.398 . S
C1866 H1854 0.950 . S
C1866 C1865 1.398 . S
C1866 C1867 1.391 . S
C1867 H1855 0.950 . S
C1867 C1863 1.393 . S
C1867 C1866 1.391 . S
H1868 C1876 0.950 . S
H1869 C1881 0.950 . S
H1870 C1878 0.950 . S
H1871 C1880 0.950 . S
H1872 C1882 0.950 . S
H1873 C1884 0.950 . S
H1874 C1886 0.950 . S
H1875 C1887 0.950 . S
C1876 H1868 0.950 . S
C1876 C1877 1.386 . S
C1876 C1878 1.391 . S
C1877 C1876 1.386 . S
C1877 C1881 1.393 . S
C1878 H1870 0.950 . S
C1878 C1876 1.391 . S
C1878 C1879 1.400 . S
C1879 C1878 1.400 . S
C1879 C1880 1.398 . S
C1879 C1885 1.491 1_655 S
C1880 H1871 0.950 . S
C1880 C1879 1.398 . S
C1880 C1881 1.391 . S
C1881 H1869 0.950 . S
C1881 C1877 1.393 . S
C1881 C1880 1.391 . S
C1882 H1872 0.950 . S
C1882 C1883 1.386 . S
C1882 C1884 1.391 . S
C1883 C1882 1.386 . S
C1883 C1887 1.393 . S
C1884 H1873 0.950 . S
C1884 C1882 1.391 . S
C1884 C1885 1.400 . S
C1885 C1879 1.491 1_455 S
C1885 C1884 1.400 . S
C1885 C1886 1.398 . S
C1886 H1874 0.950 . S
C1886 C1885 1.398 . S
C1886 C1887 1.391 . S
C1887 H1875 0.950 . S
C1887 C1883 1.393 . S
C1887 C1886 1.391 . S
H1888 C1896 0.950 . S
H1889 C1901 0.950 . S
H1890 C1898 0.950 . S
H1891 C1900 0.950 . S
H1892 C1902 0.950 . S
H1893 C1904 0.950 . S
H1894 C1906 0.950 . S
H1895 C1907 0.950 . S
C1896 H1888 0.950 . S
C1896 C1897 1.386 . S
C1896 C1898 1.391 . S
C1897 C1896 1.386 . S
C1897 C1901 1.393 . S
C1898 H1890 0.950 . S
C1898 C1896 1.391 . S
C1898 C1899 1.400 . S
C1899 C1898 1.400 . S
C1899 C1900 1.398 . S
C1899 C1905 1.491 . S
C1900 H1891 0.950 . S
C1900 C1899 1.398 . S
C1900 C1901 1.391 . S
C1901 H1889 0.950 . S
C1901 C1897 1.393 . S
C1901 C1900 1.391 . S
C1902 H1892 0.950 . S
C1902 C1903 1.386 . S
C1902 C1904 1.391 . S
C1903 C1902 1.386 . S
C1903 C1907 1.393 . S
C1904 H1893 0.950 . S
C1904 C1902 1.391 . S
C1904 C1905 1.400 . S
C1905 C1899 1.491 . S
C1905 C1904 1.400 . S
C1905 C1906 1.398 . S
C1906 H1894 0.950 . S
C1906 C1905 1.398 . S
C1906 C1907 1.391 . S
C1907 H1895 0.950 . S
C1907 C1903 1.393 . S
C1907 C1906 1.391 . S
C477 C5 1.683 . S
C483 C237 1.683 . S
C497 C16 1.708 . S
C503 C252 1.708 . S
C517 C263 1.680 . S
C523 C29 1.704 . S
C537 C42 1.706 . S
C543 C432 1.678 . S
C557 C447 1.706 . S
C563 C55 1.706 . S
C577 C70 1.674 . S
C583 C458 1.674 . S
C597 C317 1.675 . S
C603 C81 1.675 . S
C617 C96 1.708 . S
C623 C328 1.708 . S
C637 C107 1.669 . S
C643 C341 1.708 . S
C657 C120 1.669 . S
C663 C198 1.707 . S
C677 C211 1.707 . S
C683 C135 1.707 . S
C697 C146 1.675 . S
C703 C226 1.675 . S
C717 C161 1.678 . S
C723 C393 1.678 . S
C737 C172 1.707 . S
C743 C408 1.707 . S
C757 C185 1.704 . S
C763 C419 1.683 . S
C777 C276 1.679 . S
C783 C354 1.706 . S
C797 C291 1.708 . S
C803 C367 1.708 . S
C817 C302 1.678 . S
C823 C382 1.678 . S
C837 C101 1.594 1_545 S
C843 C3 1.592 . S
C857 C105 1.605 . S
C863 C18 1.528 . S
C877 C31 1.522 . S
C883 C79 1.577 . S
C897 C144 1.620 . S
C903 C44 1.519 . S
C917 C118 1.574 . S
C923 C57 1.544 . S
C937 C140 1.599 . S
C943 C68 1.591 . S
C957 C83 1.592 . S
C963 C14 1.593 1_565 S
C977 C94 1.527 . S
C983 C27 1.608 . S
C997 C109 1.593 . S
C1003 C10 1.571 . S
C1017 C122 1.589 . S
C1023 C75 1.614 . S
C1037 C40 1.586 . S
C1043 C133 1.542 . S
C1057 C53 1.590 . S
C1063 C148 1.592 . S
C1077 C159 1.592 . S
C1083 C257 1.590 . S
C1097 C174 1.525 . S
C1103 C261 1.575 . S
C1117 C187 1.533 . S
C1123 C235 1.572 . S
C1137 C300 1.579 . S
C1143 C200 1.540 . S
C1157 C213 1.534 . S
C1163 C274 1.582 . S
C1177 C296 1.588 . S
C1183 C224 1.591 . S
C1197 C239 1.593 . S
C1203 C170 1.585 . S
C1217 C183 1.587 . S
C1223 C250 1.525 . S
C1237 C166 1.571 . S
C1243 C265 1.592 . S
C1257 C278 1.590 . S
C1263 C231 1.577 . S
C1277 C289 1.527 . S
C1283 C196 1.592 . S
C1297 C304 1.592 . S
C1303 C209 1.586 . S
C1317 C413 1.592 . S
C1323 C315 1.590 . S
C1337 C330 1.542 . S
C1343 C417 1.578 . S
C1357 C343 1.544 . S
C1363 C391 1.574 . S
C1377 C456 1.577 . S
C1383 C356 1.522 . S
C1397 C430 1.579 . S
C1403 C369 1.540 . S
C1417 C452 1.590 . S
C1423 C380 1.590 . S
C1437 C326 1.589 . S
C1443 C395 1.592 . S
C1457 C339 1.586 . S
C1463 C406 1.535 . S
C1477 C322 1.581 . S
C1483 C421 1.593 . S
C1497 C434 1.590 . S
C1503 C387 1.583 . S
C1517 C352 1.587 . S
C1523 C445 1.528 . S
C1537 C460 1.591 . S
C1543 C365 1.588 . S
C1557 C1 1.732 . S
C1563 C378 1.732 . S
C1577 C361 1.675 . S
C1583 C23 1.670 . S
C1597 C36 1.671 . S
C1603 C374 1.677 . S
C1617 C49 1.675 . S
C1623 C179 1.682 . S
C1637 C192 1.690 . S
C1643 C62 1.686 . S
C1657 C66 1.746 . S
C1663 C157 1.746 . S
C1677 C309 1.746 . S
C1683 C88 1.745 . S
C1697 C92 1.667 . S
C1703 C283 1.732 . S
C1717 C114 1.746 . S
C1723 C287 1.691 . S
C1737 C127 1.746 . S
C1743 C404 1.692 . S
C1757 C131 1.689 . S
C1763 C426 1.744 . S
C1777 C400 1.732 . S
C1783 C153 1.732 . S
C1797 C205 1.688 . S
C1803 C335 1.682 . S
C1817 C348 1.668 . S
C1823 C218 1.666 . S
C1837 C313 1.742 . S
C1843 C222 1.740 . S
C1857 C465 1.743 . S
C1863 C244 1.745 . S
C1877 C248 1.666 . S
C1883 C439 1.732 . S
C1897 C270 1.746 . S
C1903 C443 1.692 . S
