# Generated by pormake.
# Topology mok, (4)-cn, num edge types: 1
# Building blocks:
#     Node 0, Type 0, BuildingBlock: ICAMEG_clean_sbu_1, # of connection points: 4
#     Node 1, Type 0, BuildingBlock: ICAMEG_clean_sbu_1, # of connection points: 4
#     Node 2, Type 0, BuildingBlock: ICAMEG_clean_sbu_1, # of connection points: 4
#     Node 3, Type 0, BuildingBlock: ICAMEG_clean_sbu_1, # of connection points: 4
#     Node 4, Type 0, BuildingBlock: ICAMEG_clean_sbu_1, # of connection points: 4
#     Node 5, Type 0, BuildingBlock: ICAMEG_clean_sbu_1, # of connection points: 4
#     Node 6, Type 0, BuildingBlock: ICAMEG_clean_sbu_1, # of connection points: 4
#     Node 7, Type 0, BuildingBlock: ICAMEG_clean_sbu_1, # of connection points: 4
#     Edge 8, Type (0, 0), BuildingBlock: EZIPEK_clean_linker_0, # of connection points: 2
#     Edge 9, Type (0, 0), BuildingBlock: EZIPEK_clean_linker_0, # of connection points: 2
#     Edge 10, Type (0, 0), BuildingBlock: EZIPEK_clean_linker_0, # of connection points: 2
#     Edge 11, Type (0, 0), BuildingBlock: EZIPEK_clean_linker_0, # of connection points: 2
#     Edge 12, Type (0, 0), BuildingBlock: EZIPEK_clean_linker_0, # of connection points: 2
#     Edge 13, Type (0, 0), BuildingBlock: EZIPEK_clean_linker_0, # of connection points: 2
#     Edge 14, Type (0, 0), BuildingBlock: EZIPEK_clean_linker_0, # of connection points: 2
#     Edge 15, Type (0, 0), BuildingBlock: EZIPEK_clean_linker_0, # of connection points: 2
#     Edge 16, Type (0, 0), BuildingBlock: EZIPEK_clean_linker_0, # of connection points: 2
#     Edge 17, Type (0, 0), BuildingBlock: EZIPEK_clean_linker_0, # of connection points: 2
#     Edge 18, Type (0, 0), BuildingBlock: EZIPEK_clean_linker_0, # of connection points: 2
#     Edge 19, Type (0, 0), BuildingBlock: EZIPEK_clean_linker_0, # of connection points: 2
#     Edge 20, Type (0, 0), BuildingBlock: EZIPEK_clean_linker_0, # of connection points: 2
#     Edge 21, Type (0, 0), BuildingBlock: EZIPEK_clean_linker_0, # of connection points: 2
#     Edge 22, Type (0, 0), BuildingBlock: EZIPEK_clean_linker_0, # of connection points: 2
#     Edge 23, Type (0, 0), BuildingBlock: EZIPEK_clean_linker_0, # of connection points: 2
# Relax obj value: 0.014
# Max RMSD: 0.046
# Mean RMSD: 0.046
data_MOF--net-mok--node1-ICAMEG_clean_sbu_1--edge1-EZIPEK_clean_linker_0
_symmetry_space_group_name_H-M    P1
_symmetry_Int_Tables_number       1
_symmetry_cell_setting            triclinic
loop_
_symmetry_equiv_pos_as_xyz
'x, y, z'
_cell_length_a     43.429072
_cell_length_b     11.085545
_cell_length_c     22.426174
_cell_angle_alpha  89.959465
_cell_angle_beta   90.043279
_cell_angle_gamma 89.999144
loop_
_atom_site_label
_atom_site_type_symbol
_atom_site_fract_x
_atom_site_fract_y
_atom_site_fract_z
_atom_type_partial_charge
Co0 Co 0.62926 0.45733 0.0572 0.0
Co1 Co 0.62933 0.15969 0.01153 0.0
O2 O 0.61296 0.29276 0.06004 0.0
C3 C 0.63434 0.39139 0.1853 0.0
O4 O 0.64235 0.28244 0.16955 0.0
C5 C 0.5606 0.14317 0.99337 0.0
O6 O 0.55996 0.25942 0.98266 0.0
O7 O 0.62234 0.25525 0.93667 0.0
O8 O 0.63044 0.44728 0.96771 0.0
H9 H 0.70665 0.94181 0.88038 0.0
H10 H 0.57077 0.39655 0.11773 0.0
O11 O 0.62716 0.46923 0.14627 0.0
H12 H 0.54474 0.71906 0.97474 0.0
H13 H 0.67027 0.79867 0.16444 0.0
H14 H 0.6719 0.58523 0.97397 0.0
H15 H 0.59849 0.65075 0.98731 0.0
H16 H 0.6263 0.67753 0.13526 0.0
O17 O 0.586 0.09094 0.006 0.0
H18 H 0.68706 0.11034 0.9373 0.0
H19 H 0.60695 0.90651 0.9826 0.0
H20 H 0.71173 0.73602 0.99387 0.0
H21 H 0.51678 0.46068 0.10666 0.0
H22 H 0.71263 0.83932 0.092 0.0
H23 H 0.50323 0.61799 0.0324 0.0
O24 O 0.67235 0.40048 0.0647 0.0
H25 H 0.59902 0.00681 0.21379 0.0
H26 H 0.68544 0.06002 0.07429 0.0
H27 H 0.6961 0.01724 0.17963 0.0
H28 H 0.65278 0.98877 0.25044 0.0
H29 H 0.58962 0.06986 0.1109 0.0
H30 H 0.6238 0.74647 0.91489 0.0
H31 H 0.67447 0.75949 0.86584 0.0
O32 O 0.67245 0.22695 0.01508 0.0
C33 C 0.62562 0.36876 0.92689 0.0
C34 C 0.6844 0.93487 0.90185 0.0
C35 C 0.63792 0.82551 0.92148 0.0
N36 N 0.64509 0.02336 0.96406 0.0
C37 C 0.67297 0.03088 0.93542 0.0
C38 C 0.62817 0.91937 0.95863 0.0
C39 C 0.66638 0.83281 0.89358 0.0
C40 C 0.56515 0.46724 0.08632 0.0
N41 N 0.58764 0.51869 0.05219 0.0
C42 C 0.53451 0.50298 0.08015 0.0
C43 C 0.527 0.5925 0.03903 0.0
C44 C 0.55025 0.64836 0.00633 0.0
C45 C 0.58066 0.61001 0.01371 0.0
C46 C 0.66945 0.76239 0.12 0.0
C47 C 0.66988 0.63922 0.01364 0.0
C48 C 0.64498 0.68852 0.10398 0.0
N49 N 0.64706 0.61788 0.05444 0.0
C50 C 0.69316 0.7228 0.02536 0.0
C51 C 0.69357 0.78115 0.08017 0.0
C52 C 0.68639 0.31369 0.0404 0.0
C53 C 0.61815 0.01975 0.18354 0.0
C54 C 0.66628 0.05241 0.10463 0.0
C55 C 0.67256 0.02763 0.16457 0.0
C56 C 0.64827 0.01071 0.20421 0.0
N57 N 0.63674 0.07192 0.0857 0.0
C58 C 0.61286 0.05267 0.12426 0.0
Co59 Co 0.37067 0.50778 0.0664 0.0
Co60 Co 0.38591 0.79751 0.01569 0.0
O61 O 0.39478 0.65891 0.06911 0.0
C62 C 0.36802 0.57838 0.19504 0.0
O63 O 0.36313 0.69033 0.1787 0.0
C64 C 0.45115 0.83804 0.97089 0.0
O65 O 0.4449 0.78186 0.92082 0.0
O66 O 0.38969 0.69053 0.94456 0.0
O67 O 0.3686 0.51701 0.97659 0.0
H68 H 0.33445 0.99152 0.83961 0.0
H69 H 0.42346 0.46576 0.15137 0.0
O70 O 0.37142 0.49551 0.15623 0.0
H71 H 0.45495 0.25611 0.96864 0.0
H72 H 0.28174 0.25441 0.13321 0.0
H73 H 0.36088 0.29987 0.97858 0.0
H74 H 0.40667 0.36736 0.97117 0.0
H75 H 0.32126 0.41026 0.14266 0.0
O76 O 0.43139 0.83907 0.01309 0.0
H77 H 0.34207 0.83677 0.91658 0.0
H78 H 0.41252 0.04679 0.99703 0.0
H79 H 0.32234 0.14177 0.96859 0.0
H80 H 0.47102 0.35113 0.15086 0.0
H81 H 0.28219 0.11708 0.04591 0.0
H82 H 0.48762 0.24577 0.05892 0.0
O83 O 0.33155 0.59747 0.07208 0.0
H84 H 0.42141 0.95764 0.21317 0.0
H85 H 0.34019 0.97878 0.05971 0.0
H86 H 0.33531 0.09934 0.15237 0.0
H87 H 0.3764 0.0923 0.22839 0.0
H88 H 0.4244 0.83286 0.12274 0.0
H89 H 0.40826 0.19573 0.9153 0.0
H90 H 0.36835 0.17172 0.83781 0.0
O91 O 0.33975 0.7661 0.01944 0.0
C92 C 0.37939 0.58448 0.9354 0.0
C93 C 0.35171 0.00421 0.87389 0.0
C94 C 0.39294 0.11937 0.91702 0.0
N95 N 0.37768 0.93179 0.96176 0.0
C96 C 0.35589 0.9173 0.91826 0.0
C97 C 0.3955 0.03346 0.96251 0.0
C98 C 0.37069 0.10519 0.8729 0.0
C99 C 0.42878 0.41569 0.11174 0.0
N100 N 0.40974 0.41697 0.06285 0.0
C101 C 0.45655 0.35225 0.11154 0.0
C102 C 0.46588 0.29316 0.06006 0.0
C103 C 0.44747 0.29889 0.00953 0.0
C104 C 0.41956 0.36165 0.01167 0.0
C105 C 0.29964 0.26203 0.09986 0.0
C106 C 0.34505 0.28758 0.01458 0.0
C107 C 0.32277 0.34878 0.10568 0.0
N108 N 0.34534 0.36152 0.06347 0.0
C109 C 0.32251 0.1987 0.00769 0.0
C110 C 0.29974 0.18571 0.05074 0.0
C111 C 0.322 0.69221 0.04661 0.0
C112 C 0.40354 0.96367 0.17961 0.0
C113 C 0.35815 0.97527 0.09294 0.0
C114 C 0.35535 0.04421 0.14488 0.0
C115 C 0.37833 0.0391 0.18811 0.0
N116 N 0.38275 0.90053 0.08528 0.0
C117 C 0.40524 0.89401 0.12792 0.0
Co118 Co 0.6385 0.50804 0.5618 0.0
Co119 Co 0.62653 0.80249 0.61063 0.0
O120 O 0.61758 0.66577 0.5569 0.0
C121 C 0.63148 0.55996 0.42935 0.0
O122 O 0.6188 0.66554 0.43887 0.0
C123 C 0.5564 0.79644 0.61051 0.0
O124 O 0.55489 0.67832 0.60907 0.0
O125 O 0.62046 0.69787 0.68262 0.0
O126 O 0.63497 0.51491 0.65 0.0
H127 H 0.67128 -0.00226 0.79228 0.0
H128 H 0.57884 0.56423 0.50116 0.0
O129 O 0.64114 0.49543 0.4724 0.0
H130 H 0.55844 0.18495 0.60733 0.0
H131 H 0.72163 0.22329 0.49557 0.0
H132 H 0.65208 0.32133 0.66084 0.0
H133 H 0.60939 0.2775 0.61111 0.0
H134 H 0.68295 0.37634 0.48216 0.0
O135 O 0.58207 0.8507 0.61208 0.0
H136 H 0.66599 0.83952 0.71665 0.0
H137 H 0.60168 0.05292 0.62171 0.0
H138 H 0.69085 0.16693 0.67443 0.0
H139 H 0.52786 0.47359 0.49512 0.0
H140 H 0.72648 0.11582 0.59213 0.0
H141 H 0.51696 0.28248 0.5488 0.0
O142 O 0.67936 0.58774 0.56466 0.0
H143 H 0.59531 0.97667 0.41255 0.0
H144 H 0.67818 0.95574 0.5625 0.0
H145 H 0.68781 0.05482 0.46581 0.0
H146 H 0.64582 0.07248 0.39175 0.0
H147 H 0.58806 0.86246 0.50511 0.0
H148 H 0.60099 0.20068 0.70445 0.0
H149 H 0.6361 0.17332 0.78991 0.0
O150 O 0.67188 0.7643 0.61071 0.0
C151 C 0.6269 0.58672 0.69134 0.0
C152 C 0.65547 0.00927 0.75581 0.0
C153 C 0.61642 0.12414 0.70567 0.0
N154 N 0.63422 0.93744 0.66373 0.0
C155 C 0.65342 0.92205 0.71126 0.0
C156 C 0.61669 0.03948 0.65947 0.0
C157 C 0.63612 0.10895 0.75389 0.0
C158 C 0.575 0.48144 0.52497 0.0
N159 N 0.59808 0.42801 0.55739 0.0
C160 C 0.54568 0.43016 0.52116 0.0
C161 C 0.5396 0.32304 0.55108 0.0
C162 C 0.56291 0.26838 0.58384 0.0
C163 C 0.59205 0.32204 0.58618 0.0
C164 C 0.70579 0.24235 0.53153 0.0
C165 C 0.666 0.29916 0.62279 0.0
C166 C 0.68258 0.32799 0.52369 0.0
N167 N 0.66238 0.35631 0.56871 0.0
C168 C 0.68849 0.21077 0.63156 0.0
C169 C 0.70861 0.18266 0.58565 0.0
C170 C 0.68948 0.68461 0.58777 0.0
C171 C 0.61363 0.97259 0.44525 0.0
C172 C 0.65995 0.95899 0.52983 0.0
C173 C 0.66541 0.01774 0.47566 0.0
C174 C 0.64194 0.02613 0.43359 0.0
N175 N 0.63239 0.9034 0.54034 0.0
C176 C 0.60945 0.90967 0.49859 0.0
Co177 Co 0.36827 0.43928 0.57033 0.0
Co178 Co 0.38787 0.15289 0.61905 0.0
O179 O 0.39482 0.29429 0.56691 0.0
C180 C 0.38429 0.41032 0.43799 0.0
O181 O 0.4033 0.32056 0.44789 0.0
C182 C 0.45405 0.12971 0.58412 0.0
O183 O 0.44896 0.19591 0.53659 0.0
O184 O 0.39005 0.26024 0.69064 0.0
O185 O 0.36568 0.42741 0.65931 0.0
H186 H 0.33233 0.78413 0.69616 0.0
H187 H 0.43239 0.44199 0.52017 0.0
O188 O 0.36963 0.46064 0.48056 0.0
H189 H 0.43046 0.75904 0.67336 0.0
H190 H 0.32837 0.84582 0.50497 0.0
H191 H 0.31179 0.49902 0.63849 0.0
H192 H 0.3834 0.64562 0.64892 0.0
H193 H 0.36499 0.67497 0.50615 0.0
O194 O 0.43351 0.12073 0.62456 0.0
H195 H 0.34166 0.95197 0.62593 0.0
H196 H 0.41888 0.06393 0.7282 0.0
H197 H 0.27465 0.66678 0.63878 0.0
H198 H 0.47948 0.55694 0.54113 0.0
H199 H 0.28284 0.84211 0.57161 0.0
H200 H 0.47891 0.71418 0.6198 0.0
O201 O 0.33089 0.33856 0.56096 0.0
H202 H 0.4147 0.78252 0.50004 0.0
H203 H 0.36138 0.17409 0.49713 0.0
H204 H 0.36156 0.04881 0.40655 0.0
H205 H 0.38865 0.85122 0.40745 0.0
H206 H 0.41308 0.91006 0.58987 0.0
H207 H 0.41112 0.89412 0.79758 0.0
H208 H 0.36753 0.75324 0.7818 0.0
O209 O 0.34195 0.17462 0.61508 0.0
C210 C 0.37798 0.36351 0.70015 0.0
C211 C 0.35154 0.84448 0.70296 0.0
C212 C 0.39581 0.90609 0.75996 0.0
N213 N 0.38105 0.01693 0.67235 0.0
C214 C 0.35687 0.93998 0.66357 0.0
C215 C 0.40017 0.00165 0.72024 0.0
C216 C 0.3713 0.82711 0.75115 0.0
C217 C 0.43136 0.51434 0.55191 0.0
N218 N 0.4046 0.53981 0.58126 0.0
C219 C 0.45836 0.57803 0.56441 0.0
C220 C 0.45805 0.66648 0.60842 0.0
C221 C 0.43085 0.69135 0.63867 0.0
C222 C 0.4042 0.62737 0.62422 0.0
C223 C 0.3248 0.77056 0.53488 0.0
C224 C 0.31593 0.57585 0.61002 0.0
C225 C 0.34559 0.67428 0.53603 0.0
N226 N 0.34114 0.57884 0.57354 0.0
C227 C 0.29459 0.67015 0.60992 0.0
C228 C 0.29916 0.7683 0.57215 0.0
C229 C 0.32278 0.24388 0.58892 0.0
C230 C 0.40235 0.86733 0.4993 0.0
C231 C 0.37223 0.08697 0.49852 0.0
C232 C 0.37265 0.01683 0.4468 0.0
C233 C 0.3879 0.90627 0.44727 0.0
N234 N 0.38629 0.04812 0.54947 0.0
C235 C 0.40116 0.93948 0.55026 0.0
Co236 Co 0.1428 0.97903 0.0651 0.0
Co237 Co 0.12463 0.68925 0.01725 0.0
O238 O 0.11734 0.83087 0.06896 0.0
C239 C 0.12905 0.93821 0.1971 0.0
O240 O 0.11684 0.83242 0.1862 0.0
C241 C 0.05697 0.67969 0.04596 0.0
O242 O 0.06056 0.75901 0.0888 0.0
O243 O 0.1227 0.79579 0.94574 0.0
O244 O 0.14506 0.96789 0.97639 0.0
H245 H 0.1796 0.31767 0.94206 0.0
H246 H 0.08067 0.98058 0.12109 0.0
O247 O 0.14068 0.00089 0.15491 0.0
H248 H 0.07741 0.29905 0.96834 0.0
H249 H 0.18212 0.38394 0.13363 0.0
H250 H 0.19842 0.04433 0.99602 0.0
H251 H 0.12489 0.18203 0.98549 0.0
H252 H 0.14475 0.21587 0.12926 0.0
O253 O 0.07905 0.65695 0.01029 0.0
H254 H 0.17089 0.48854 0.01101 0.0
H255 H 0.0939 0.59974 0.90799 0.0
H256 H 0.23558 0.21175 0.99768 0.0
H257 H 0.03297 0.09755 0.10719 0.0
H258 H 0.22779 0.38259 0.06758 0.0
H259 H 0.03111 0.25782 0.02989 0.0
O260 O 0.18102 0.88208 0.07269 0.0
H261 H 0.09123 0.33195 0.13962 0.0
H262 H 0.15664 0.69446 0.13565 0.0
H263 H 0.15436 0.57175 0.22687 0.0
H264 H 0.12104 0.38966 0.22972 0.0
H265 H 0.09483 0.45616 0.04888 0.0
H266 H 0.10071 0.42623 0.8408 0.0
H267 H 0.14376 0.28305 0.85808 0.0
O268 O 0.17064 0.71199 0.02267 0.0
C269 C 0.13363 0.9007 0.93603 0.0
C270 C 0.16043 0.37799 0.93528 0.0
C271 C 0.11618 0.43896 0.87814 0.0
N272 N 0.13155 0.55287 0.9644 0.0
C273 C 0.15552 0.47534 0.97374 0.0
C274 C 0.11235 0.53673 0.91666 0.0
C275 C 0.14035 0.35882 0.88778 0.0
C276 C 0.08031 0.05212 0.08885 0.0
N277 N 0.10584 0.07627 0.05553 0.0
C278 C 0.05312 0.11739 0.08055 0.0
C279 C 0.05205 0.2071 0.03708 0.0
C280 C 0.07804 0.23024 0.00257 0.0
C281 C 0.10491 0.16399 0.01266 0.0
C282 C 0.18551 0.31049 0.10275 0.0
C283 C 0.19427 0.11973 0.02538 0.0
C284 C 0.16441 0.21541 0.09991 0.0
N285 N 0.169 0.12118 0.06176 0.0
C286 C 0.21573 0.2135 0.02679 0.0
C287 C 0.21131 0.30936 0.0659 0.0
C288 C 0.18961 0.7849 0.04725 0.0
C289 C 0.10574 0.4113 0.13908 0.0
C290 C 0.14264 0.61447 0.1358 0.0
C291 C 0.14118 0.5457 0.18798 0.0
C292 C 0.12244 0.44378 0.18962 0.0
N293 N 0.1257 0.58382 0.08682 0.0
C294 C 0.10795 0.48192 0.08768 0.0
Co295 Co 0.86524 0.05485 0.05729 0.0
Co296 Co 0.88479 0.34236 0.00825 0.0
O297 O 0.89122 0.20123 0.06081 0.0
C298 C 0.87995 0.09005 0.18905 0.0
O299 O 0.89724 0.18459 0.17836 0.0
C300 C 0.95183 0.35092 0.04011 0.0
O301 O 0.94744 0.27184 0.08279 0.0
O302 O 0.88628 0.23458 0.93696 0.0
O303 O 0.8632 0.06498 0.96882 0.0
H304 H 0.83114 0.71568 0.93175 0.0
H305 H 0.92816 0.05092 0.11338 0.0
O306 O 0.8661 0.03481 0.14701 0.0
H307 H 0.93008 0.73619 0.95891 0.0
H308 H 0.82724 0.64571 0.12247 0.0
H309 H 0.80889 0.99189 0.98942 0.0
H310 H 0.88262 0.85124 0.97834 0.0
H311 H 0.86358 0.81744 0.12033 0.0
O312 O 0.93055 0.37199 0.00226 0.0
H313 H 0.8393 0.54516 1.00108 0.0
H314 H 0.91625 0.42959 0.89932 0.0
H315 H 0.77216 0.82259 0.98994 0.0
H316 H 0.97562 0.93542 0.09706 0.0
H317 H 0.78125 0.64772 0.05698 0.0
H318 H 0.97692 0.77697 0.01899 0.0
O319 O 0.82731 0.15464 0.0643 0.0
H320 H 0.91699 0.70565 0.12759 0.0
H321 H 0.85669 0.33042 0.12827 0.0
H322 H 0.85819 0.45628 0.21914 0.0
H323 H 0.88892 0.64418 0.21925 0.0
H324 H 0.91356 0.57911 0.0375 0.0
H325 H 0.90996 0.60269 0.83146 0.0
H326 H 0.86706 0.74632 0.84737 0.0
O327 O 0.83861 0.32315 0.01328 0.0
C328 C 0.87486 0.13009 0.92797 0.0
C329 C 0.85007 0.65397 0.92497 0.0
C330 C 0.89436 0.59072 0.8686 0.0
N331 N 0.87848 0.47835 0.95489 0.0
C332 C 0.8547 0.55696 0.96377 0.0
C333 C 0.8979 0.49331 0.90748 0.0
C334 C 0.87023 0.67128 0.87747 0.0
C335 C 0.92804 0.98035 0.08061 0.0
N336 N 0.9021 0.95606 0.04831 0.0
C337 C 0.95522 0.9157 0.07108 0.0
C338 C 0.95598 0.827 0.0272 0.0
C339 C 0.92968 0.80403 0.99357 0.0
C340 C 0.90279 0.86913 0.00505 0.0
C341 C 0.82329 0.72086 0.09273 0.0
C342 C 0.81337 0.91532 0.01789 0.0
C343 C 0.84385 0.81784 0.0911 0.0
N344 N 0.83877 0.91349 0.05397 0.0
C345 C 0.7923 0.82011 0.0184 0.0
C346 C 0.79736 0.72221 0.05609 0.0
C347 C 0.81931 0.25222 0.03832 0.0
C348 C 0.90326 0.62425 0.12795 0.0
C349 C 0.86901 0.41415 0.12759 0.0
C350 C 0.8703 0.48411 0.17931 0.0
C351 C 0.88764 0.58965 0.17941 0.0
N352 N 0.88424 0.44843 0.07729 0.0
C353 C 0.90106 0.55269 0.07692 0.0
Co354 Co 0.13544 0.0613 0.56733 0.0
Co355 Co 0.12934 0.34531 0.62812 0.0
O356 O 0.11576 0.21959 0.57227 0.0
C357 C 0.12176 0.1329 0.43773 0.0
O358 O 0.1052 0.22674 0.45296 0.0
C359 C 0.0606 0.35524 0.63876 0.0
O360 O 0.06005 0.23736 0.64267 0.0
O361 O 0.12126 0.23284 0.69659 0.0
O362 O 0.13615 0.05386 0.65703 0.0
H363 H 0.18097 0.50807 0.81226 0.0
H364 H 0.07154 0.12535 0.52548 0.0
O365 O 0.1346 0.06642 0.47696 0.0
H366 H 0.06092 0.74152 0.6339 0.0
H367 H 0.1828 0.73332 0.44988 0.0
H368 H 0.18027 0.93073 0.64518 0.0
H369 H 0.11189 0.83309 0.61926 0.0
H370 H 0.13863 0.85769 0.47747 0.0
O371 O 0.08603 0.41116 0.63264 0.0
H372 H 0.16268 0.34986 0.74403 0.0
H373 H 0.1211 0.6131 0.63272 0.0
H374 H 0.22057 0.78309 0.62487 0.0
H375 H 0.02037 0.03741 0.53879 0.0
H376 H 0.22371 0.68959 0.52466 0.0
H377 H 0.01449 0.84705 0.59553 0.0
O378 O 0.17684 0.13531 0.56477 0.0
H379 H 0.10294 0.51272 0.42757 0.0
H380 H 0.1859 0.46608 0.57552 0.0
H381 H 0.19899 0.51114 0.47149 0.0
H382 H 0.15742 0.53752 0.39665 0.0
H383 H 0.09134 0.44293 0.52848 0.0
H384 H 0.13772 0.77443 0.70239 0.0
H385 H 0.1681 0.72205 0.79184 0.0
O386 O 0.17339 0.28884 0.62799 0.0
C387 C 0.12837 0.12063 0.70121 0.0
C388 C 0.16794 0.53202 0.77284 0.0
C389 C 0.14365 0.68134 0.71085 0.0
N390 N 0.14194 0.4721 0.68293 0.0
C391 C 0.15788 0.44274 0.73346 0.0
C392 C 0.13442 0.58974 0.67175 0.0
C393 C 0.16071 0.65206 0.76139 0.0
C394 C 0.06974 0.03988 0.54788 0.0
N395 N 0.09525 0.98325 0.57008 0.0
C396 C 0.04042 0.99095 0.55588 0.0
C397 C 0.03714 0.88356 0.58735 0.0
C398 C 0.06316 0.82504 0.60922 0.0
C399 C 0.09211 0.87683 0.60029 0.0
C400 C 0.18147 0.77095 0.49425 0.0
C401 C 0.17925 0.88212 0.60394 0.0
C402 C 0.15676 0.84465 0.50977 0.0
N403 N 0.15717 0.90758 0.56215 0.0
C404 C 0.20284 0.80024 0.592 0.0
C405 C 0.20458 0.74788 0.53585 0.0
C406 C 0.18926 0.21462 0.59762 0.0
C407 C 0.12133 0.50107 0.45967 0.0
C408 C 0.16753 0.4723 0.54325 0.0
C409 C 0.17515 0.49947 0.48427 0.0
C410 C 0.15185 0.51425 0.44226 0.0
N411 N 0.13781 0.44591 0.5585 0.0
C412 C 0.11477 0.46453 0.51788 0.0
Co413 Co 0.86849 0.97777 0.56708 0.0
Co414 Co 0.88538 0.68837 0.61615 0.0
O415 O 0.8931 0.8278 0.56222 0.0
C416 C 0.85863 0.93938 0.43419 0.0
O417 O 0.84234 0.84177 0.44411 0.0
C418 C 0.95053 0.65316 0.66073 0.0
O419 O 0.94391 0.70835 0.71084 0.0
O420 O 0.88899 0.79525 0.68713 0.0
O421 O 0.86609 0.96533 0.65612 0.0
H422 H 0.83489 0.49254 0.79258 0.0
H423 H 0.92194 0.0176 0.48399 0.0
O424 O 0.86999 -0.00114 0.47751 0.0
H425 H 0.95369 0.22343 0.6675 0.0
H426 H 0.7756 0.21991 0.51134 0.0
H427 H 0.86135 0.19212 0.65297 0.0
H428 H 0.90503 0.11446 0.66424 0.0
H429 H 0.81392 0.06011 0.50129 0.0
O430 O 0.93093 0.65103 0.61826 0.0
H431 H 0.84193 0.6468 0.71532 0.0
H432 H 0.91349 0.44115 0.63602 0.0
H433 H 0.82289 0.34936 0.66584 0.0
H434 H 0.96978 0.13027 0.48536 0.0
H435 H 0.7795 0.36627 0.5947 0.0
H436 H 0.98629 0.23544 0.57747 0.0
O437 O 0.82989 0.88388 0.56049 0.0
H438 H 0.92076 0.52872 0.41882 0.0
H439 H 0.84166 0.49733 0.57564 0.0
H440 H 0.83851 0.3653 0.48685 0.0
H441 H 0.8787 0.37965 0.40835 0.0
H442 H 0.92255 0.66013 0.50716 0.0
H443 H 0.9096 0.29241 0.71808 0.0
H444 H 0.86952 0.31461 0.79504 0.0
O445 O 0.83927 0.71531 0.61257 0.0
C446 C 0.87779 0.8994 0.69674 0.0
C447 C 0.85228 0.48072 0.75851 0.0
C448 C 0.89404 0.36796 0.71602 0.0
N449 N 0.87806 0.55406 0.67067 0.0
C450 C 0.85615 0.56742 0.71398 0.0
C451 C 0.89636 0.45369 0.67038 0.0
C452 C 0.87167 0.38102 0.75988 0.0
C453 C 0.92699 0.06891 0.52352 0.0
N454 N 0.90759 0.06925 0.57192 0.0
C455 C 0.95505 0.13053 0.52428 0.0
C456 C 0.96439 0.18899 0.57591 0.0
C457 C 0.94592 0.18286 0.62627 0.0
C458 C 0.91774 0.12181 0.62361 0.0
C459 C 0.79479 0.21603 0.54194 0.0
C460 C 0.84402 0.20044 0.6195 0.0
C461 C 0.8173 0.12719 0.53549 0.0
N462 N 0.84234 0.1217 0.5726 0.0
C463 C 0.82153 0.28893 0.62819 0.0
C464 C 0.79697 0.29772 0.58864 0.0
C465 C 0.8211 0.78692 0.58506 0.0
C466 C 0.90337 0.52049 0.45313 0.0
C467 C 0.85915 0.50295 0.54166 0.0
C468 C 0.85729 0.42827 0.49159 0.0
C469 C 0.87969 0.43682 0.44732 0.0
N470 N 0.88249 0.58445 0.54704 0.0
C471 C 0.90429 0.59441 0.50339 0.0
C472 C 0.76973 0.3187 0.98655 0.0
C473 C 0.78585 0.2863 0.03967 0.0
C474 C 0.73673 0.28338 0.09457 0.0
C475 C 0.72073 0.31324 0.04151 0.0
N476 N 0.72262 0.39598 0.94258 0.0
N477 N 0.78521 0.2757 0.14709 0.0
C478 C 0.73745 0.34178 0.98913 0.0
C479 C 0.76944 0.27944 0.09449 0.0
N480 N 0.78469 0.32296 0.933 0.0
N481 N 0.72069 0.25695 0.1452 0.0
H482 H 0.80903 0.27799 0.14887 0.0
H483 H 0.77497 0.28398 0.18884 0.0
H484 H 0.69703 0.26813 0.14834 0.0
H485 H 0.73051 0.21766 0.18287 0.0
H486 H 0.77329 0.32867 0.89222 0.0
H487 H 0.80836 0.31353 0.92824 0.0
H488 H 0.73388 0.43177 0.90559 0.0
H489 H 0.69923 0.41628 0.94388 0.0
C490 C 0.23779 0.6953 0.99893 0.0
C491 C 0.22332 0.75374 0.04825 0.0
C492 C 0.27435 0.77827 0.09499 0.0
C493 C 0.28813 0.71356 0.04753 0.0
N494 N 0.2804 0.56947 0.96851 0.0
N495 N 0.22796 0.81012 0.15225 0.0
C496 C 0.2691 0.65938 0.00381 0.0
C497 C 0.24165 0.78444 0.09888 0.0
N498 N 0.2226 0.67832 0.94621 0.0
N499 N 0.29237 0.83105 0.13746 0.0
H500 H 0.20434 0.80216 0.15931 0.0
H501 H 0.24027 0.82335 0.1916 0.0
H502 H 0.31614 0.81943 0.13897 0.0
H503 H 0.28384 0.89179 0.16882 0.0
H504 H 0.23358 0.64615 0.90806 0.0
H505 H 0.20031 0.70797 0.9379 0.0
H506 H 0.26653 0.51931 0.93977 0.0
H507 H 0.30268 0.53572 0.97323 0.0
C508 C 0.77413 0.69218 0.53766 0.0
C509 C 0.78755 0.76075 0.5843 0.0
C510 C 0.73828 0.76303 0.63608 0.0
C511 C 0.72354 0.70756 0.5866 0.0
N512 N 0.72746 0.65064 0.48243 0.0
N513 N 0.77879 0.89895 0.6655 0.0
C514 C 0.74146 0.67989 0.53508 0.0
C515 C 0.76854 0.80811 0.62966 0.0
N516 N 0.79237 0.64082 0.49519 0.0
N517 N 0.72444 0.76584 0.69051 0.0
H518 H 0.80018 0.9399 0.6594 0.0
H519 H 0.76457 0.94213 0.69629 0.0
H520 H 0.70423 0.71875 0.69896 0.0
H521 H 0.73534 0.79917 0.72856 0.0
H522 H 0.78413 0.57873 0.46415 0.0
H523 H 0.81609 0.65418 0.49377 0.0
H524 H 0.7395 0.63991 0.44262 0.0
H525 H 0.70367 0.65173 0.47645 0.0
C526 C 0.24148 0.22573 0.64987 0.0
C527 C 0.22371 0.22513 0.59635 0.0
C528 C 0.27173 0.21606 0.53799 0.0
C529 C 0.28916 0.21642 0.59152 0.0
N530 N 0.28967 0.1784 0.69789 0.0
N531 N 0.22265 0.24806 0.48931 0.0
C532 C 0.27383 0.20805 0.64722 0.0
C533 C 0.23909 0.22671 0.54028 0.0
N534 N 0.22816 0.25096 0.70349 0.0
N535 N 0.28643 0.19756 0.48495 0.0
H536 H 0.19899 0.26275 0.48917 0.0
H537 H 0.23261 0.26448 0.4479 0.0
H538 H 0.31003 0.18262 0.48241 0.0
H539 H 0.27518 0.1831 0.4446 0.0
H540 H 0.24073 0.26916 0.74206 0.0
H541 H 0.20493 0.2671 0.70894 0.0
H542 H 0.27882 0.15498 0.73768 0.0
H543 H 0.31328 0.16438 0.69974 0.0
C544 C 0.6157 0.37081 0.29054 0.0
C545 C 0.63523 0.4278 0.24869 0.0
C546 C 0.65206 0.5726 0.32478 0.0
C547 C 0.63368 0.51182 0.36767 0.0
N548 N 0.60355 0.33523 0.394 0.0
N549 N 0.67781 0.5614 0.22906 0.0
C550 C 0.61736 0.40501 0.3515 0.0
C551 C 0.65503 0.52295 0.26661 0.0
N552 N 0.59439 0.28828 0.2717 0.0
N553 N 0.66691 0.67716 0.33959 0.0
H554 H 0.68147 0.52359 0.18706 0.0
H555 H 0.69494 0.62207 0.24157 0.0
H556 H 0.66739 0.71182 0.38279 0.0
H557 H 0.67733 0.73326 0.30825 0.0
H558 H 0.57707 0.25414 0.29901 0.0
H559 H 0.59217 0.2617 0.22731 0.0
H560 H 0.59475 0.24958 0.38539 0.0
H561 H 0.60316 0.35707 0.43895 0.0
C562 C 0.34641 0.49265 0.2897 0.0
C563 C 0.37135 0.5473 0.25918 0.0
C564 C 0.40375 0.52493 0.3484 0.0
C565 C 0.37999 0.45701 0.37624 0.0
N566 N 0.32973 0.36531 0.37157 0.0
N567 N 0.42422 0.61276 0.25739 0.0
C568 C 0.35152 0.43835 0.34645 0.0
C569 C 0.40013 0.56323 0.28808 0.0
N570 N 0.3176 0.49653 0.2652 0.0
N571 N 0.42931 0.55668 0.38033 0.0
H572 H 0.42194 0.6483 0.21452 0.0
H573 H 0.44681 0.61296 0.27294 0.0
H574 H 0.43297 0.5291 0.42414 0.0
H575 H 0.44577 0.61773 0.36526 0.0
H576 H 0.29783 0.46824 0.28739 0.0
H577 H 0.31303 0.53968 0.22478 0.0
H578 H 0.30989 0.33731 0.34946 0.0
H579 H 0.33267 0.32449 0.41307 0.0
C580 C 0.35187 0.52453 0.84154 0.0
C581 C 0.37985 0.53509 0.87357 0.0
C582 C 0.40739 0.44074 0.78974 0.0
C583 C 0.37875 0.41639 0.76134 0.0
N584 N 0.32322 0.42174 0.76441 0.0
N585 N 0.43437 0.49661 0.88047 0.0
C586 C 0.35086 0.45474 0.78847 0.0
C587 C 0.40768 0.49136 0.84828 0.0
N588 N 0.32655 0.58681 0.86018 0.0
N589 N 0.43433 0.42195 0.7596 0.0
H590 H 0.43581 0.53825 0.92206 0.0
H591 H 0.45454 0.45266 0.86792 0.0
H592 H 0.43521 0.38749 0.71639 0.0
H593 H 0.45572 0.45042 0.77519 0.0
H594 H 0.30632 0.59356 0.83542 0.0
H595 H 0.32699 0.64265 0.89747 0.0
H596 H 0.3022 0.43505 0.78576 0.0
H597 H 0.32146 0.37146 0.72543 0.0
C598 C 0.65095 0.40605 0.82809 0.0
C599 C 0.62445 0.4151 0.86456 0.0
C600 C 0.59855 0.53439 0.78648 0.0
C601 C 0.62623 0.53534 0.75277 0.0
N602 N 0.68041 0.4869 0.74594 0.0
N603 N 0.57344 0.49357 0.88091 0.0
C604 C 0.65286 0.47509 0.77485 0.0
C605 C 0.59841 0.48145 0.84448 0.0
N606 N 0.67401 0.32818 0.84334 0.0
N607 N 0.57197 0.57797 0.76187 0.0
H608 H 0.57145 0.44747 0.92117 0.0
H609 H 0.55546 0.55352 0.87279 0.0
H610 H 0.57101 0.61649 0.71956 0.0
H611 H 0.55034 0.56761 0.78119 0.0
H612 H 0.69229 0.30648 0.8153 0.0
H613 H 0.67321 0.27545 0.88167 0.0
H614 H 0.70131 0.45816 0.76375 0.0
H615 H 0.68294 0.53419 0.70616 0.0
C616 C 0.1533 0.04416 0.28549 0.0
C617 C 0.12693 0.99105 0.25835 0.0
C618 C 0.09703 0.03221 0.34931 0.0
C619 C 0.12269 0.09289 0.37439 0.0
N620 N 0.17299 0.17955 0.36158 0.0
N621 N 0.07166 0.96059 0.26037 0.0
C622 C 0.15016 0.10581 0.34095 0.0
C623 C 0.09824 0.99205 0.28915 0.0
N624 N 0.18167 0.03065 0.25997 0.0
N625 N 0.07162 0.00964 0.38341 0.0
H626 H 0.07084 0.93199 0.21632 0.0
H627 H 0.04984 0.97396 0.27846 0.0
H628 H 0.06902 0.04275 0.42647 0.0
H629 H 0.05408 0.95107 0.37048 0.0
H630 H 0.20206 0.05687 0.28071 0.0
H631 H 0.18528 0.98238 0.22074 0.0
H632 H 0.19237 0.20244 0.3367 0.0
H633 H 0.17091 0.2278 0.40127 0.0
C634 C 0.88193 0.90311 0.33255 0.0
C635 C 0.86504 0.97932 0.37169 0.0
C636 C 0.85619 0.12197 0.28938 0.0
C637 C 0.87479 0.05065 0.25159 0.0
N638 N 0.90912 0.88223 0.23851 0.0
N639 N 0.84211 0.17503 0.38963 0.0
C640 C 0.88858 0.94315 0.27342 0.0
C641 C 0.85392 0.09267 0.35077 0.0
N642 N 0.89192 0.79292 0.35201 0.0
N643 N 0.84011 0.21706 0.26627 0.0
H644 H 0.84267 0.16313 0.43523 0.0
H645 H 0.83521 0.2616 0.37767 0.0
H646 H 0.84237 0.24438 0.2222 0.0
H647 H 0.82272 0.26241 0.289 0.0
H648 H 0.90089 0.72696 0.32394 0.0
H649 H 0.89009 0.76476 0.39621 0.0
H650 H 0.92308 0.81264 0.25403 0.0
H651 H 0.91391 0.90711 0.19474 0.0
C652 C 0.8499 0.96126 0.7891 0.0
C653 C 0.87811 0.94892 0.75822 0.0
C654 C 0.90501 0.04942 0.84082 0.0
C655 C 0.87611 0.07573 0.86759 0.0
N656 N 0.82059 0.06839 0.86355 0.0
N657 N 0.9327 0.98716 0.75216 0.0
C658 C 0.84843 0.0349 0.84062 0.0
C659 C 0.90578 0.99438 0.78344 0.0
N660 N 0.82487 0.89629 0.77119 0.0
N661 N 0.9317 0.07094 0.87146 0.0
H662 H 0.93441 0.94343 0.71117 0.0
H663 H 0.95278 0.03191 0.76462 0.0
H664 H 0.93224 0.10963 0.91381 0.0
H665 H 0.9532 0.04104 0.85726 0.0
H666 H 0.8045 0.89083 0.79552 0.0
H667 H 0.82579 0.83687 0.73533 0.0
H668 H 0.79973 0.05314 0.84186 0.0
H669 H 0.81847 0.12032 0.90192 0.0
C670 C 0.15983 0.97534 0.84356 0.0
C671 C 0.13214 0.95122 0.87486 0.0
C672 C 0.10187 0.03716 0.79242 0.0
C673 C 0.12956 0.06418 0.76156 0.0
N674 N 0.18462 0.04177 0.75272 0.0
N675 N 0.07729 0.97818 0.88509 0.0
C676 C 0.15847 0.02871 0.78591 0.0
C677 C 0.10325 0.98668 0.8508 0.0
N678 N 0.18754 0.95053 0.86995 0.0
N679 N 0.07421 0.05263 0.76435 0.0
H680 H 0.07719 0.94109 0.92785 0.0
H681 H 0.05626 0.01656 0.87339 0.0
H682 H 0.07242 0.08565 0.72105 0.0
H683 H 0.05331 0.02234 0.78139 0.0
H684 H 0.20869 0.98015 0.85388 0.0
H685 H 0.18951 0.90543 0.91051 0.0
H686 H 0.20585 0.0045 0.76369 0.0
H687 H 0.18475 0.08347 0.71128 0.0
C688 C 0.48903 0.99071 0.92764 0.0
C689 C 0.47946 0.91597 0.97616 0.0
C690 C 0.51885 0.01384 0.03857 0.0
C691 C 0.53181 0.07001 0.98772 0.0
N692 N 0.53104 0.10024 0.88131 0.0
N693 N 0.48954 0.84567 0.07669 0.0
C694 C 0.51747 0.0547 0.93144 0.0
C695 C 0.49563 0.92438 0.03134 0.0
N696 N 0.47012 0.0085 0.87967 0.0
N697 N 0.52714 0.05191 0.09415 0.0
H698 H 0.47368 0.77557 0.07313 0.0
H699 H 0.50277 0.84169 0.11544 0.0
H700 H 0.54126 0.12692 0.10051 0.0
H701 H 0.51659 0.02108 0.133 0.0
H702 H 0.47486 0.07091 0.84613 0.0
H703 H 0.44795 0.97345 0.87682 0.0
H704 H 0.52304 0.08191 0.83849 0.0
H705 H 0.55172 0.14814 0.88215 0.0
C706 C 0.52028 0.95069 0.65212 0.0
C707 C 0.52847 0.87292 0.60454 0.0
C708 C 0.48862 0.9657 0.54152 0.0
C709 C 0.4817 0.04936 0.58809 0.0
N710 N 0.49543 0.13649 0.68287 0.0
N711 N 0.52364 0.81577 0.50135 0.0
C712 C 0.49876 0.04564 0.64215 0.0
C713 C 0.51351 0.88301 0.54856 0.0
N714 N 0.53262 0.93174 0.70742 0.0
N715 N 0.47072 0.96058 0.49142 0.0
H716 H 0.54039 0.74891 0.5053 0.0
H717 H 0.51694 0.83123 0.45743 0.0
H718 H 0.45303 0.02065 0.48197 0.0
H719 H 0.4718 0.89044 0.46064 0.0
H720 H 0.52512 0.97634 0.74552 0.0
H721 H 0.5484 0.86297 0.71627 0.0
H722 H 0.50937 0.14594 0.72038 0.0
H723 H 0.4808 0.20988 0.67605 0.0
C724 C 0.01595 0.56445 0.98926 0.0
C725 C 0.02928 0.59931 0.0446 0.0
C726 C 0.98952 0.48281 0.09665 0.0
C727 C 0.9792 0.43302 0.04167 0.0
N728 N 0.98792 0.40959 0.93589 0.0
N729 N 0.03357 0.55669 0.1505 0.0
C730 C 0.99392 0.46913 0.98792 0.0
C731 C 0.01751 0.54865 0.09822 0.0
N732 N 0.02335 0.62499 0.93817 0.0
N733 N 0.97214 0.47363 0.14723 0.0
H734 H 0.05533 0.59539 0.15396 0.0
H735 H 0.02689 0.51081 0.18899 0.0
H736 H 0.95035 0.43473 0.14839 0.0
H737 H 0.97779 0.51885 0.18651 0.0
H738 H 0.01219 0.60997 0.89768 0.0
H739 H 0.03805 0.69938 0.93767 0.0
H740 H 1.00018 0.42537 0.89675 0.0
H741 H 0.97325 0.33526 0.93347 0.0
C742 C 0.01772 0.44229 0.70071 0.0
C743 C 0.03157 0.4255 0.64421 0.0
C744 C 0.99486 0.56802 0.60017 0.0
C745 C 0.97903 0.5771 0.65565 0.0
N746 N 0.97056 0.48658 0.75299 0.0
N747 N 0.02715 0.44274 0.53764 0.0
C748 C 0.98912 0.50455 0.7046 0.0
C749 C 0.01833 0.47965 0.59311 0.0
N750 N 0.03185 0.3995 0.75091 0.0
N751 N 0.98841 0.646 0.55465 0.0
H752 H 0.04254 0.37166 0.53127 0.0
H753 H 0.01633 0.47161 0.49867 0.0
H754 H 0.97296 0.7174 0.55874 0.0
H755 H 1.00123 0.64917 0.51542 0.0
H756 H 0.0244 0.42112 0.79376 0.0
H757 H 0.05241 0.35081 0.74981 0.0
H758 H 0.97586 0.42558 0.78686 0.0
H759 H 0.94816 0.51933 0.75592 0.0
loop_
_geom_bond_atom_site_label_1
_geom_bond_atom_site_label_2
_geom_bond_distance
_geom_bond_site_symmetry_2
_ccdc_geom_bond_type
Co0 O2 2.143 . S
Co0 O8 2.074 1_554 S
Co0 O11 2.093 . S
Co0 O24 2.097 . S
Co0 N41 2.151 . S
Co0 N49 2.214 . S
Co1 O2 2.160 . S
Co1 O7 2.058 1_554 S
Co1 O17 2.057 . S
Co1 O32 2.037 . S
Co1 N36 2.145 1_554 S
Co1 N57 2.257 . S
O2 Co0 2.143 . S
O2 Co1 2.160 . S
C3 O4 1.278 . S
C3 O11 1.224 . S
O4 C3 1.278 . S
C5 O6 1.245 . S
C5 O17 1.232 . S
O6 C5 1.245 . S
O7 Co1 2.058 1_556 S
O7 C33 1.269 . S
O8 Co0 2.074 1_556 S
O8 C33 1.257 . S
H9 C34 0.930 . S
H10 C40 0.930 . S
O11 Co0 2.093 . S
O11 C3 1.224 . S
H12 C44 0.929 1_556 S
H13 C46 0.930 . S
H14 C47 0.930 1_556 S
H15 C45 0.929 1_556 S
H16 C48 0.928 . S
O17 Co1 2.057 . S
O17 C5 1.232 . S
H18 C37 0.929 . S
H19 C38 0.929 . S
H20 C50 0.939 . S
H21 C42 0.929 . S
H22 C51 0.930 . S
H23 C43 0.931 . S
O24 Co0 2.097 . S
O24 C52 1.214 . S
H25 C53 0.929 . S
H26 C54 0.929 . S
H27 C55 0.930 . S
H28 C56 0.929 . S
H29 C58 0.930 . S
H30 C35 0.930 . S
H31 C39 0.930 . S
O32 Co1 2.037 . S
O32 C52 1.234 . S
C33 O7 1.269 . S
C33 O8 1.257 . S
C34 H9 0.930 . S
C34 C37 1.388 1_565 S
C34 C39 1.418 . S
C35 H30 0.930 . S
C35 C38 1.404 . S
C35 C39 1.353 . S
N36 Co1 2.145 1_556 S
N36 C37 1.397 . S
N36 C38 1.334 1_545 S
C37 H18 0.929 . S
C37 C34 1.388 1_545 S
C37 N36 1.397 . S
C38 H19 0.929 . S
C38 C35 1.404 . S
C38 N36 1.334 1_565 S
C39 H31 0.930 . S
C39 C34 1.418 . S
C39 C35 1.353 . S
C40 H10 0.930 . S
C40 N41 1.330 . S
C40 C42 1.446 . S
N41 Co0 2.151 . S
N41 C40 1.330 . S
N41 C45 1.418 . S
C42 H21 0.929 . S
C42 C40 1.446 . S
C42 C43 1.332 . S
C43 H23 0.931 . S
C43 C42 1.332 . S
C43 C44 1.267 . S
C44 H12 0.929 1_554 S
C44 C43 1.267 . S
C44 C45 1.251 . S
C45 H15 0.929 1_554 S
C45 N41 1.418 . S
C45 C44 1.251 . S
C46 H13 0.930 . S
C46 C48 1.406 . S
C46 C51 1.261 . S
C47 H14 0.930 1_554 S
C47 N49 1.325 . S
C47 C50 1.354 1_554 S
C48 H16 0.928 . S
C48 C46 1.406 . S
C48 N49 1.261 . S
N49 Co0 2.214 . S
N49 C47 1.325 . S
N49 C48 1.261 . S
C50 H20 0.939 . S
C50 C47 1.354 1_556 S
C50 C51 1.306 1_556 S
C51 H22 0.930 . S
C51 C46 1.261 . S
C51 C50 1.306 1_554 S
C52 O24 1.214 . S
C52 O32 1.234 . S
C53 H25 0.929 . S
C53 C56 1.391 . S
C53 C58 1.391 1_565 S
C54 H26 0.929 . S
C54 C55 1.390 . S
C54 N57 1.391 1_565 S
C55 H27 0.930 . S
C55 C54 1.390 . S
C55 C56 1.392 . S
C56 H28 0.929 . S
C56 C53 1.391 . S
C56 C55 1.392 . S
N57 Co1 2.257 . S
N57 C54 1.391 1_545 S
N57 C58 1.388 . S
C58 H29 0.930 . S
C58 C53 1.391 1_545 S
C58 N57 1.388 . S
Co59 O61 2.143 . S
Co59 O67 2.074 1_554 S
Co59 O70 2.093 . S
Co59 O83 2.097 . S
Co59 N100 2.151 . S
Co59 N108 2.214 . S
Co60 O61 2.160 . S
Co60 O66 2.058 1_554 S
Co60 O76 2.057 . S
Co60 O91 2.037 . S
Co60 N95 2.145 1_554 S
Co60 N116 2.257 . S
O61 Co59 2.143 . S
O61 Co60 2.160 . S
C62 O63 1.278 . S
C62 O70 1.224 . S
O63 C62 1.278 . S
C64 O65 1.245 . S
C64 O76 1.232 . S
O65 C64 1.245 . S
O66 Co60 2.058 1_556 S
O66 C92 1.269 . S
O67 Co59 2.074 1_556 S
O67 C92 1.257 . S
H68 C93 0.930 . S
H69 C99 0.930 . S
O70 Co59 2.093 . S
O70 C62 1.224 . S
H71 C103 0.929 1_556 S
H72 C105 0.930 . S
H73 C106 0.930 1_556 S
H74 C104 0.929 1_556 S
H75 C107 0.928 . S
O76 Co60 2.057 . S
O76 C64 1.232 . S
H77 C96 0.929 . S
H78 C97 0.929 . S
H79 C109 0.939 . S
H80 C101 0.929 . S
H81 C110 0.930 . S
H82 C102 0.931 . S
O83 Co59 2.097 . S
O83 C111 1.214 . S
H84 C112 0.929 . S
H85 C113 0.929 . S
H86 C114 0.930 . S
H87 C115 0.929 . S
H88 C117 0.930 . S
H89 C94 0.930 . S
H90 C98 0.930 . S
O91 Co60 2.037 . S
O91 C111 1.234 . S
C92 O66 1.269 . S
C92 O67 1.257 . S
C93 H68 0.930 . S
C93 C96 1.388 1_545 S
C93 C98 1.418 . S
C94 H89 0.930 . S
C94 C97 1.404 . S
C94 C98 1.353 . S
N95 Co60 2.145 1_556 S
N95 C96 1.397 . S
N95 C97 1.334 1_565 S
C96 H77 0.929 . S
C96 C93 1.388 1_565 S
C96 N95 1.397 . S
C97 H78 0.929 . S
C97 C94 1.404 . S
C97 N95 1.334 1_545 S
C98 H90 0.930 . S
C98 C93 1.418 . S
C98 C94 1.353 . S
C99 H69 0.930 . S
C99 N100 1.330 . S
C99 C101 1.446 . S
N100 Co59 2.151 . S
N100 C99 1.330 . S
N100 C104 1.418 . S
C101 H80 0.929 . S
C101 C99 1.446 . S
C101 C102 1.332 . S
C102 H82 0.931 . S
C102 C101 1.332 . S
C102 C103 1.267 . S
C103 H71 0.929 1_554 S
C103 C102 1.267 . S
C103 C104 1.251 . S
C104 H74 0.929 1_554 S
C104 N100 1.418 . S
C104 C103 1.251 . S
C105 H72 0.930 . S
C105 C107 1.406 . S
C105 C110 1.261 . S
C106 H73 0.930 1_554 S
C106 N108 1.325 . S
C106 C109 1.354 1_554 S
C107 H75 0.928 . S
C107 C105 1.406 . S
C107 N108 1.261 . S
N108 Co59 2.214 . S
N108 C106 1.325 . S
N108 C107 1.261 . S
C109 H79 0.939 . S
C109 C106 1.354 1_556 S
C109 C110 1.306 1_556 S
C110 H81 0.930 . S
C110 C105 1.261 . S
C110 C109 1.306 1_554 S
C111 O83 1.214 . S
C111 O91 1.234 . S
C112 H84 0.929 . S
C112 C115 1.391 . S
C112 C117 1.391 1_545 S
C113 H85 0.929 . S
C113 C114 1.390 . S
C113 N116 1.391 1_545 S
C114 H86 0.930 . S
C114 C113 1.390 . S
C114 C115 1.392 . S
C115 H87 0.929 . S
C115 C112 1.391 . S
C115 C114 1.392 . S
N116 Co60 2.257 . S
N116 C113 1.391 1_565 S
N116 C117 1.388 . S
C117 H88 0.930 . S
C117 C112 1.391 1_565 S
C117 N116 1.388 . S
Co118 O120 2.143 . S
Co118 O126 2.074 . S
Co118 O129 2.093 . S
Co118 O142 2.097 . S
Co118 N159 2.151 . S
Co118 N167 2.214 . S
Co119 O120 2.160 . S
Co119 O125 2.058 . S
Co119 O135 2.057 . S
Co119 O150 2.037 . S
Co119 N154 2.145 . S
Co119 N175 2.257 . S
O120 Co118 2.143 . S
O120 Co119 2.160 . S
C121 O122 1.278 . S
C121 O129 1.224 . S
O122 C121 1.278 . S
C123 O124 1.245 . S
C123 O135 1.232 . S
O124 C123 1.245 . S
O125 Co119 2.058 . S
O125 C151 1.269 . S
O126 Co118 2.074 . S
O126 C151 1.257 . S
H127 C152 0.930 . S
H128 C158 0.930 . S
O129 Co118 2.093 . S
O129 C121 1.224 . S
H130 C162 0.929 . S
H131 C164 0.930 . S
H132 C165 0.930 . S
H133 C163 0.929 . S
H134 C166 0.928 . S
O135 Co119 2.057 . S
O135 C123 1.232 . S
H136 C155 0.929 . S
H137 C156 0.929 . S
H138 C168 0.931 . S
H139 C160 0.929 . S
H140 C169 0.930 . S
H141 C161 0.931 . S
O142 Co118 2.097 . S
O142 C170 1.214 . S
H143 C171 0.929 . S
H144 C172 0.929 . S
H145 C173 0.930 . S
H146 C174 0.929 . S
H147 C176 0.930 . S
H148 C153 0.930 . S
H149 C157 0.930 . S
O150 Co119 2.037 . S
O150 C170 1.234 . S
C151 O125 1.269 . S
C151 O126 1.257 . S
C152 H127 0.930 . S
C152 C155 1.388 1_545 S
C152 C157 1.418 . S
C153 H148 0.930 . S
C153 C156 1.404 . S
C153 C157 1.353 . S
N154 Co119 2.145 . S
N154 C155 1.397 . S
N154 C156 1.334 1_565 S
C155 H136 0.929 . S
C155 C152 1.388 1_565 S
C155 N154 1.397 . S
C156 H137 0.929 . S
C156 C153 1.404 . S
C156 N154 1.334 1_545 S
C157 H149 0.930 . S
C157 C152 1.418 . S
C157 C153 1.353 . S
C158 H128 0.930 . S
C158 N159 1.330 . S
C158 C160 1.446 . S
N159 Co118 2.151 . S
N159 C158 1.330 . S
N159 C163 1.418 . S
C160 H139 0.929 . S
C160 C158 1.446 . S
C160 C161 1.332 . S
C161 H141 0.931 . S
C161 C160 1.332 . S
C161 C162 1.267 . S
C162 H130 0.929 . S
C162 C161 1.267 . S
C162 C163 1.251 . S
C163 H133 0.929 . S
C163 N159 1.418 . S
C163 C162 1.251 . S
C164 H131 0.930 . S
C164 C166 1.406 . S
C164 C169 1.261 . S
C165 H132 0.930 . S
C165 N167 1.325 . S
C165 C168 1.357 . S
C166 H134 0.928 . S
C166 C164 1.406 . S
C166 N167 1.261 . S
N167 Co118 2.214 . S
N167 C165 1.325 . S
N167 C166 1.261 . S
C168 H138 0.931 . S
C168 C165 1.357 . S
C168 C169 1.312 . S
C169 H140 0.930 . S
C169 C164 1.261 . S
C169 C168 1.312 . S
C170 O142 1.214 . S
C170 O150 1.234 . S
C171 H143 0.929 . S
C171 C174 1.391 . S
C171 C176 1.391 1_545 S
C172 H144 0.929 . S
C172 C173 1.390 . S
C172 N175 1.391 1_545 S
C173 H145 0.930 . S
C173 C172 1.390 . S
C173 C174 1.392 . S
C174 H146 0.929 . S
C174 C171 1.391 . S
C174 C173 1.392 . S
N175 Co119 2.257 . S
N175 C172 1.391 1_565 S
N175 C176 1.388 . S
C176 H147 0.930 . S
C176 C171 1.391 1_565 S
C176 N175 1.388 . S
Co177 O179 2.143 . S
Co177 O185 2.074 . S
Co177 O188 2.093 . S
Co177 O201 2.097 . S
Co177 N218 2.151 . S
Co177 N226 2.214 . S
Co178 O179 2.160 . S
Co178 O184 2.058 . S
Co178 O194 2.057 . S
Co178 O209 2.037 . S
Co178 N213 2.145 . S
Co178 N234 2.257 . S
O179 Co177 2.143 . S
O179 Co178 2.160 . S
C180 O181 1.278 . S
C180 O188 1.224 . S
O181 C180 1.278 . S
C182 O183 1.245 . S
C182 O194 1.232 . S
O183 C182 1.245 . S
O184 Co178 2.058 . S
O184 C210 1.269 . S
O185 Co177 2.074 . S
O185 C210 1.257 . S
H186 C211 0.930 . S
H187 C217 0.930 . S
O188 Co177 2.093 . S
O188 C180 1.224 . S
H189 C221 0.929 . S
H190 C223 0.930 . S
H191 C224 0.930 . S
H192 C222 0.929 . S
H193 C225 0.928 . S
O194 Co178 2.057 . S
O194 C182 1.232 . S
H195 C214 0.929 . S
H196 C215 0.929 . S
H197 C227 0.931 . S
H198 C219 0.929 . S
H199 C228 0.930 . S
H200 C220 0.931 . S
O201 Co177 2.097 . S
O201 C229 1.214 . S
H202 C230 0.929 . S
H203 C231 0.929 . S
H204 C232 0.930 . S
H205 C233 0.929 . S
H206 C235 0.930 . S
H207 C212 0.930 . S
H208 C216 0.930 . S
O209 Co178 2.037 . S
O209 C229 1.234 . S
C210 O184 1.269 . S
C210 O185 1.257 . S
C211 H186 0.930 . S
C211 C214 1.388 1_565 S
C211 C216 1.418 . S
C212 H207 0.930 . S
C212 C215 1.404 . S
C212 C216 1.353 . S
N213 Co178 2.145 . S
N213 C214 1.397 . S
N213 C215 1.334 1_545 S
C214 H195 0.929 . S
C214 C211 1.388 1_545 S
C214 N213 1.397 . S
C215 H196 0.929 . S
C215 C212 1.404 . S
C215 N213 1.334 1_565 S
C216 H208 0.930 . S
C216 C211 1.418 . S
C216 C212 1.353 . S
C217 H187 0.930 . S
C217 N218 1.330 . S
C217 C219 1.446 . S
N218 Co177 2.151 . S
N218 C217 1.330 . S
N218 C222 1.418 . S
C219 H198 0.929 . S
C219 C217 1.446 . S
C219 C220 1.332 . S
C220 H200 0.931 . S
C220 C219 1.332 . S
C220 C221 1.267 . S
C221 H189 0.929 . S
C221 C220 1.267 . S
C221 C222 1.251 . S
C222 H192 0.929 . S
C222 N218 1.418 . S
C222 C221 1.251 . S
C223 H190 0.930 . S
C223 C225 1.406 . S
C223 C228 1.261 . S
C224 H191 0.930 . S
C224 N226 1.325 . S
C224 C227 1.357 . S
C225 H193 0.928 . S
C225 C223 1.406 . S
C225 N226 1.261 . S
N226 Co177 2.214 . S
N226 C224 1.325 . S
N226 C225 1.261 . S
C227 H197 0.931 . S
C227 C224 1.357 . S
C227 C228 1.312 . S
C228 H199 0.930 . S
C228 C223 1.261 . S
C228 C227 1.312 . S
C229 O201 1.214 . S
C229 O209 1.234 . S
C230 H202 0.929 . S
C230 C233 1.391 . S
C230 C235 1.391 1_565 S
C231 H203 0.929 . S
C231 C232 1.390 . S
C231 N234 1.391 1_565 S
C232 H204 0.930 . S
C232 C231 1.390 . S
C232 C233 1.392 . S
C233 H205 0.929 . S
C233 C230 1.391 . S
C233 C232 1.392 . S
N234 Co178 2.257 . S
N234 C231 1.391 1_545 S
N234 C235 1.388 . S
C235 H206 0.930 . S
C235 C230 1.391 1_545 S
C235 N234 1.388 . S
Co236 O238 2.143 . S
Co236 O244 2.074 1_554 S
Co236 O247 2.093 . S
Co236 O260 2.097 . S
Co236 N277 2.151 1_565 S
Co236 N285 2.214 1_565 S
Co237 O238 2.160 . S
Co237 O243 2.058 1_554 S
Co237 O253 2.057 . S
Co237 O268 2.037 . S
Co237 N272 2.145 1_554 S
Co237 N293 2.257 . S
O238 Co236 2.143 . S
O238 Co237 2.160 . S
C239 O240 1.278 . S
C239 O247 1.224 . S
O240 C239 1.278 . S
C241 O242 1.245 . S
C241 O253 1.232 . S
O242 C241 1.245 . S
O243 Co237 2.058 1_556 S
O243 C269 1.269 . S
O244 Co236 2.074 1_556 S
O244 C269 1.257 . S
H245 C270 0.930 . S
H246 C276 0.930 . S
O247 Co236 2.093 . S
O247 C239 1.224 . S
H248 C280 0.929 1_556 S
H249 C282 0.930 . S
H250 C283 0.930 1_556 S
H251 C281 0.929 1_556 S
H252 C284 0.928 . S
O253 Co237 2.057 . S
O253 C241 1.232 . S
H254 C273 0.929 . S
H255 C274 0.929 . S
H256 C286 0.939 . S
H257 C278 0.929 . S
H258 C287 0.930 . S
H259 C279 0.931 . S
O260 Co236 2.097 . S
O260 C288 1.214 . S
H261 C289 0.929 . S
H262 C290 0.929 . S
H263 C291 0.930 . S
H264 C292 0.929 . S
H265 C294 0.930 . S
H266 C271 0.930 . S
H267 C275 0.930 . S
O268 Co237 2.037 . S
O268 C288 1.234 . S
C269 O243 1.269 . S
C269 O244 1.257 . S
C270 H245 0.930 . S
C270 C273 1.388 . S
C270 C275 1.418 . S
C271 H266 0.930 . S
C271 C274 1.404 . S
C271 C275 1.353 . S
N272 Co237 2.145 1_556 S
N272 C273 1.397 . S
N272 C274 1.334 . S
C273 H254 0.929 . S
C273 C270 1.388 . S
C273 N272 1.397 . S
C274 H255 0.929 . S
C274 C271 1.404 . S
C274 N272 1.334 . S
C275 H267 0.930 . S
C275 C270 1.418 . S
C275 C271 1.353 . S
C276 H246 0.930 . S
C276 N277 1.330 . S
C276 C278 1.446 . S
N277 Co236 2.151 1_545 S
N277 C276 1.330 . S
N277 C281 1.418 . S
C278 H257 0.929 . S
C278 C276 1.446 . S
C278 C279 1.332 . S
C279 H259 0.931 . S
C279 C278 1.332 . S
C279 C280 1.267 . S
C280 H248 0.929 1_554 S
C280 C279 1.267 . S
C280 C281 1.251 . S
C281 H251 0.929 1_554 S
C281 N277 1.418 . S
C281 C280 1.251 . S
C282 H249 0.930 . S
C282 C284 1.406 . S
C282 C287 1.261 . S
C283 H250 0.930 1_554 S
C283 N285 1.325 . S
C283 C286 1.354 1_554 S
C284 H252 0.928 . S
C284 C282 1.406 . S
C284 N285 1.261 . S
N285 Co236 2.214 1_545 S
N285 C283 1.325 . S
N285 C284 1.261 . S
C286 H256 0.939 . S
C286 C283 1.354 1_556 S
C286 C287 1.306 1_556 S
C287 H258 0.930 . S
C287 C282 1.261 . S
C287 C286 1.306 1_554 S
C288 O260 1.214 . S
C288 O268 1.234 . S
C289 H261 0.929 . S
C289 C292 1.391 . S
C289 C294 1.391 . S
C290 H262 0.929 . S
C290 C291 1.390 . S
C290 N293 1.391 . S
C291 H263 0.930 . S
C291 C290 1.390 . S
C291 C292 1.392 . S
C292 H264 0.929 . S
C292 C289 1.391 . S
C292 C291 1.392 . S
N293 Co237 2.257 . S
N293 C290 1.391 . S
N293 C294 1.388 . S
C294 H265 0.930 . S
C294 C289 1.391 . S
C294 N293 1.388 . S
Co295 O297 2.143 . S
Co295 O303 2.074 1_554 S
Co295 O306 2.093 . S
Co295 O319 2.097 . S
Co295 N336 2.151 1_545 S
Co295 N344 2.214 1_545 S
Co296 O297 2.160 . S
Co296 O302 2.058 1_554 S
Co296 O312 2.057 . S
Co296 O327 2.037 . S
Co296 N331 2.145 1_554 S
Co296 N352 2.257 . S
O297 Co295 2.143 . S
O297 Co296 2.160 . S
C298 O299 1.278 . S
C298 O306 1.224 . S
O299 C298 1.278 . S
C300 O301 1.245 . S
C300 O312 1.232 . S
O301 C300 1.245 . S
O302 Co296 2.058 1_556 S
O302 C328 1.269 . S
O303 Co295 2.074 1_556 S
O303 C328 1.257 . S
H304 C329 0.930 . S
H305 C335 0.930 . S
O306 Co295 2.093 . S
O306 C298 1.224 . S
H307 C339 0.929 1_556 S
H308 C341 0.930 . S
H309 C342 0.930 1_556 S
H310 C340 0.929 1_556 S
H311 C343 0.928 . S
O312 Co296 2.057 . S
O312 C300 1.232 . S
H313 C332 0.929 . S
H314 C333 0.929 . S
H315 C345 0.939 . S
H316 C337 0.929 . S
H317 C346 0.930 . S
H318 C338 0.931 . S
O319 Co295 2.097 . S
O319 C347 1.214 . S
H320 C348 0.929 . S
H321 C349 0.929 . S
H322 C350 0.930 . S
H323 C351 0.929 . S
H324 C353 0.930 . S
H325 C330 0.930 . S
H326 C334 0.930 . S
O327 Co296 2.037 . S
O327 C347 1.234 . S
C328 O302 1.269 . S
C328 O303 1.257 . S
C329 H304 0.930 . S
C329 C332 1.388 . S
C329 C334 1.418 . S
C330 H325 0.930 . S
C330 C333 1.404 . S
C330 C334 1.353 . S
N331 Co296 2.145 1_556 S
N331 C332 1.397 . S
N331 C333 1.334 . S
C332 H313 0.929 . S
C332 C329 1.388 . S
C332 N331 1.397 . S
C333 H314 0.929 . S
C333 C330 1.404 . S
C333 N331 1.334 . S
C334 H326 0.930 . S
C334 C329 1.418 . S
C334 C330 1.353 . S
C335 H305 0.930 . S
C335 N336 1.330 . S
C335 C337 1.446 . S
N336 Co295 2.151 1_565 S
N336 C335 1.330 . S
N336 C340 1.418 . S
C337 H316 0.929 . S
C337 C335 1.446 . S
C337 C338 1.332 . S
C338 H318 0.931 . S
C338 C337 1.332 . S
C338 C339 1.267 . S
C339 H307 0.929 1_554 S
C339 C338 1.267 . S
C339 C340 1.251 . S
C340 H310 0.929 1_554 S
C340 N336 1.418 . S
C340 C339 1.251 . S
C341 H308 0.930 . S
C341 C343 1.406 . S
C341 C346 1.261 . S
C342 H309 0.930 1_554 S
C342 N344 1.325 . S
C342 C345 1.354 1_554 S
C343 H311 0.928 . S
C343 C341 1.406 . S
C343 N344 1.261 . S
N344 Co295 2.214 1_565 S
N344 C342 1.325 . S
N344 C343 1.261 . S
C345 H315 0.939 . S
C345 C342 1.354 1_556 S
C345 C346 1.306 1_556 S
C346 H317 0.930 . S
C346 C341 1.261 . S
C346 C345 1.306 1_554 S
C347 O319 1.214 . S
C347 O327 1.234 . S
C348 H320 0.929 . S
C348 C351 1.391 . S
C348 C353 1.391 . S
C349 H321 0.929 . S
C349 C350 1.390 . S
C349 N352 1.391 . S
C350 H322 0.930 . S
C350 C349 1.390 . S
C350 C351 1.392 . S
C351 H323 0.929 . S
C351 C348 1.391 . S
C351 C350 1.392 . S
N352 Co296 2.257 . S
N352 C349 1.391 . S
N352 C353 1.388 . S
C353 H324 0.930 . S
C353 C348 1.391 . S
C353 N352 1.388 . S
Co354 O356 2.143 . S
Co354 O362 2.074 . S
Co354 O365 2.093 . S
Co354 O378 2.097 . S
Co354 N395 2.151 1_545 S
Co354 N403 2.214 1_545 S
Co355 O356 2.160 . S
Co355 O361 2.058 . S
Co355 O371 2.057 . S
Co355 O386 2.037 . S
Co355 N390 2.145 . S
Co355 N411 2.257 . S
O356 Co354 2.143 . S
O356 Co355 2.160 . S
C357 O358 1.278 . S
C357 O365 1.224 . S
O358 C357 1.278 . S
C359 O360 1.245 . S
C359 O371 1.232 . S
O360 C359 1.245 . S
O361 Co355 2.058 . S
O361 C387 1.269 . S
O362 Co354 2.074 . S
O362 C387 1.257 . S
H363 C388 0.930 . S
H364 C394 0.930 . S
O365 Co354 2.093 . S
O365 C357 1.224 . S
H366 C398 0.929 . S
H367 C400 0.930 . S
H368 C401 0.930 . S
H369 C399 0.929 . S
H370 C402 0.928 . S
O371 Co355 2.057 . S
O371 C359 1.232 . S
H372 C391 0.929 . S
H373 C392 0.929 . S
H374 C404 0.931 . S
H375 C396 0.929 . S
H376 C405 0.930 . S
H377 C397 0.931 . S
O378 Co354 2.097 . S
O378 C406 1.214 . S
H379 C407 0.929 . S
H380 C408 0.929 . S
H381 C409 0.930 . S
H382 C410 0.929 . S
H383 C412 0.930 . S
H384 C389 0.930 . S
H385 C393 0.930 . S
O386 Co355 2.037 . S
O386 C406 1.234 . S
C387 O361 1.269 . S
C387 O362 1.257 . S
C388 H363 0.930 . S
C388 C391 1.388 . S
C388 C393 1.418 . S
C389 H384 0.930 . S
C389 C392 1.404 . S
C389 C393 1.353 . S
N390 Co355 2.145 . S
N390 C391 1.397 . S
N390 C392 1.334 . S
C391 H372 0.929 . S
C391 C388 1.388 . S
C391 N390 1.397 . S
C392 H373 0.929 . S
C392 C389 1.404 . S
C392 N390 1.334 . S
C393 H385 0.930 . S
C393 C388 1.418 . S
C393 C389 1.353 . S
C394 H364 0.930 . S
C394 N395 1.330 . S
C394 C396 1.446 . S
N395 Co354 2.151 1_565 S
N395 C394 1.330 . S
N395 C399 1.418 . S
C396 H375 0.929 . S
C396 C394 1.446 . S
C396 C397 1.332 . S
C397 H377 0.931 . S
C397 C396 1.332 . S
C397 C398 1.267 . S
C398 H366 0.929 . S
C398 C397 1.267 . S
C398 C399 1.251 . S
C399 H369 0.929 . S
C399 N395 1.418 . S
C399 C398 1.251 . S
C400 H367 0.930 . S
C400 C402 1.406 . S
C400 C405 1.261 . S
C401 H368 0.930 . S
C401 N403 1.325 . S
C401 C404 1.357 . S
C402 H370 0.928 . S
C402 C400 1.406 . S
C402 N403 1.261 . S
N403 Co354 2.214 1_565 S
N403 C401 1.325 . S
N403 C402 1.261 . S
C404 H374 0.931 . S
C404 C401 1.357 . S
C404 C405 1.312 . S
C405 H376 0.930 . S
C405 C400 1.261 . S
C405 C404 1.312 . S
C406 O378 1.214 . S
C406 O386 1.234 . S
C407 H379 0.929 . S
C407 C410 1.391 . S
C407 C412 1.391 . S
C408 H380 0.929 . S
C408 C409 1.390 . S
C408 N411 1.391 . S
C409 H381 0.930 . S
C409 C408 1.390 . S
C409 C410 1.392 . S
C410 H382 0.929 . S
C410 C407 1.391 . S
C410 C409 1.392 . S
N411 Co355 2.257 . S
N411 C408 1.391 . S
N411 C412 1.388 . S
C412 H383 0.930 . S
C412 C407 1.391 . S
C412 N411 1.388 . S
Co413 O415 2.143 . S
Co413 O421 2.074 . S
Co413 O424 2.093 . S
Co413 O437 2.097 . S
Co413 N454 2.151 1_565 S
Co413 N462 2.214 1_565 S
Co414 O415 2.160 . S
Co414 O420 2.058 . S
Co414 O430 2.057 . S
Co414 O445 2.037 . S
Co414 N449 2.145 . S
Co414 N470 2.257 . S
O415 Co413 2.143 . S
O415 Co414 2.160 . S
C416 O417 1.278 . S
C416 O424 1.224 . S
O417 C416 1.278 . S
C418 O419 1.245 . S
C418 O430 1.232 . S
O419 C418 1.245 . S
O420 Co414 2.058 . S
O420 C446 1.269 . S
O421 Co413 2.074 . S
O421 C446 1.257 . S
H422 C447 0.930 . S
H423 C453 0.930 . S
O424 Co413 2.093 . S
O424 C416 1.224 . S
H425 C457 0.929 . S
H426 C459 0.930 . S
H427 C460 0.930 . S
H428 C458 0.929 . S
H429 C461 0.928 . S
O430 Co414 2.057 . S
O430 C418 1.232 . S
H431 C450 0.929 . S
H432 C451 0.929 . S
H433 C463 0.931 . S
H434 C455 0.929 . S
H435 C464 0.930 . S
H436 C456 0.931 . S
O437 Co413 2.097 . S
O437 C465 1.214 . S
H438 C466 0.929 . S
H439 C467 0.929 . S
H440 C468 0.930 . S
H441 C469 0.929 . S
H442 C471 0.930 . S
H443 C448 0.930 . S
H444 C452 0.930 . S
O445 Co414 2.037 . S
O445 C465 1.234 . S
C446 O420 1.269 . S
C446 O421 1.257 . S
C447 H422 0.930 . S
C447 C450 1.388 . S
C447 C452 1.418 . S
C448 H443 0.930 . S
C448 C451 1.404 . S
C448 C452 1.353 . S
N449 Co414 2.145 . S
N449 C450 1.397 . S
N449 C451 1.334 . S
C450 H431 0.929 . S
C450 C447 1.388 . S
C450 N449 1.397 . S
C451 H432 0.929 . S
C451 C448 1.404 . S
C451 N449 1.334 . S
C452 H444 0.930 . S
C452 C447 1.418 . S
C452 C448 1.353 . S
C453 H423 0.930 . S
C453 N454 1.330 . S
C453 C455 1.446 . S
N454 Co413 2.151 1_545 S
N454 C453 1.330 . S
N454 C458 1.418 . S
C455 H434 0.929 . S
C455 C453 1.446 . S
C455 C456 1.332 . S
C456 H436 0.931 . S
C456 C455 1.332 . S
C456 C457 1.267 . S
C457 H425 0.929 . S
C457 C456 1.267 . S
C457 C458 1.251 . S
C458 H428 0.929 . S
C458 N454 1.418 . S
C458 C457 1.251 . S
C459 H426 0.930 . S
C459 C461 1.406 . S
C459 C464 1.261 . S
C460 H427 0.930 . S
C460 N462 1.325 . S
C460 C463 1.357 . S
C461 H429 0.928 . S
C461 C459 1.406 . S
C461 N462 1.261 . S
N462 Co413 2.214 1_545 S
N462 C460 1.325 . S
N462 C461 1.261 . S
C463 H433 0.931 . S
C463 C460 1.357 . S
C463 C464 1.312 . S
C464 H435 0.930 . S
C464 C459 1.261 . S
C464 C463 1.312 . S
C465 O437 1.214 . S
C465 O445 1.234 . S
C466 H438 0.929 . S
C466 C469 1.391 . S
C466 C471 1.391 . S
C467 H439 0.929 . S
C467 C468 1.390 . S
C467 N470 1.391 . S
C468 H440 0.930 . S
C468 C467 1.390 . S
C468 C469 1.392 . S
C469 H441 0.929 . S
C469 C466 1.391 . S
C469 C468 1.392 . S
N470 Co414 2.257 . S
N470 C467 1.391 . S
N470 C471 1.388 . S
C471 H442 0.930 . S
C471 C466 1.391 . S
C471 N470 1.388 . S
C472 C473 1.363 1_556 S
C472 C478 1.379 . S
C472 N480 1.356 . S
C473 C472 1.363 1_554 S
C473 C479 1.363 . S
C474 C475 1.363 . S
C474 C479 1.379 . S
C474 N481 1.356 . S
C475 C474 1.363 . S
C475 C478 1.363 1_554 S
N476 C478 1.356 . S
N476 H488 0.984 . S
N476 H489 0.985 . S
N477 C479 1.356 . S
N477 H482 0.984 . S
N477 H483 0.985 . S
C478 C472 1.379 . S
C478 C475 1.363 1_556 S
C478 N476 1.356 . S
C479 C473 1.363 . S
C479 C474 1.379 . S
C479 N477 1.356 . S
N480 C472 1.356 . S
N480 H486 0.984 . S
N480 H487 0.984 . S
N481 C474 1.356 . S
N481 H484 0.984 . S
N481 H485 0.985 . S
H482 N477 0.984 . S
H483 N477 0.985 . S
H484 N481 0.984 . S
H485 N481 0.985 . S
H486 N480 0.984 . S
H487 N480 0.984 . S
H488 N476 0.984 . S
H489 N476 0.985 . S
C490 C491 1.363 1_556 S
C490 C496 1.379 . S
C490 N498 1.356 . S
C491 C490 1.363 1_554 S
C491 C497 1.363 . S
C492 C493 1.363 . S
C492 C497 1.379 . S
C492 N499 1.356 . S
C493 C492 1.363 . S
C493 C496 1.363 1_554 S
N494 C496 1.356 . S
N494 H506 0.984 . S
N494 H507 0.985 . S
N495 C497 1.356 . S
N495 H500 0.984 . S
N495 H501 0.985 . S
C496 C490 1.379 . S
C496 C493 1.363 1_556 S
C496 N494 1.356 . S
C497 C491 1.363 . S
C497 C492 1.379 . S
C497 N495 1.356 . S
N498 C490 1.356 . S
N498 H504 0.984 . S
N498 H505 0.984 . S
N499 C492 1.356 . S
N499 H502 0.984 . S
N499 H503 0.985 . S
H500 N495 0.984 . S
H501 N495 0.985 . S
H502 N499 0.984 . S
H503 N499 0.985 . S
H504 N498 0.984 . S
H505 N498 0.984 . S
H506 N494 0.984 . S
H507 N494 0.985 . S
C508 C509 1.363 . S
C508 C514 1.379 . S
C508 N516 1.356 . S
C509 C508 1.363 . S
C509 C515 1.363 . S
C510 C511 1.363 . S
C510 C515 1.379 . S
C510 N517 1.356 . S
C511 C510 1.363 . S
C511 C514 1.363 . S
N512 C514 1.356 . S
N512 H524 0.984 . S
N512 H525 0.985 . S
N513 C515 1.356 . S
N513 H518 0.984 . S
N513 H519 0.985 . S
C514 C508 1.379 . S
C514 C511 1.363 . S
C514 N512 1.356 . S
C515 C509 1.363 . S
C515 C510 1.379 . S
C515 N513 1.356 . S
N516 C508 1.356 . S
N516 H522 0.984 . S
N516 H523 0.984 . S
N517 C510 1.356 . S
N517 H520 0.984 . S
N517 H521 0.985 . S
H518 N513 0.984 . S
H519 N513 0.985 . S
H520 N517 0.984 . S
H521 N517 0.985 . S
H522 N516 0.984 . S
H523 N516 0.984 . S
H524 N512 0.984 . S
H525 N512 0.985 . S
C526 C527 1.363 . S
C526 C532 1.379 . S
C526 N534 1.356 . S
C527 C526 1.363 . S
C527 C533 1.363 . S
C528 C529 1.363 . S
C528 C533 1.379 . S
C528 N535 1.356 . S
C529 C528 1.363 . S
C529 C532 1.363 . S
N530 C532 1.356 . S
N530 H542 0.984 . S
N530 H543 0.985 . S
N531 C533 1.356 . S
N531 H536 0.984 . S
N531 H537 0.985 . S
C532 C526 1.379 . S
C532 C529 1.363 . S
C532 N530 1.356 . S
C533 C527 1.363 . S
C533 C528 1.379 . S
C533 N531 1.356 . S
N534 C526 1.356 . S
N534 H540 0.984 . S
N534 H541 0.984 . S
N535 C528 1.356 . S
N535 H538 0.984 . S
N535 H539 0.985 . S
H536 N531 0.984 . S
H537 N531 0.985 . S
H538 N535 0.984 . S
H539 N535 0.985 . S
H540 N534 0.984 . S
H541 N534 0.984 . S
H542 N530 0.984 . S
H543 N530 0.985 . S
C544 C545 1.363 . S
C544 C550 1.379 . S
C544 N552 1.356 . S
C545 C544 1.363 . S
C545 C551 1.363 . S
C546 C547 1.363 . S
C546 C551 1.379 . S
C546 N553 1.356 . S
C547 C546 1.363 . S
C547 C550 1.363 . S
N548 C550 1.356 . S
N548 H560 0.984 . S
N548 H561 0.985 . S
N549 C551 1.356 . S
N549 H554 0.984 . S
N549 H555 0.985 . S
C550 C544 1.379 . S
C550 C547 1.363 . S
C550 N548 1.356 . S
C551 C545 1.363 . S
C551 C546 1.379 . S
C551 N549 1.356 . S
N552 C544 1.356 . S
N552 H558 0.984 . S
N552 H559 0.984 . S
N553 C546 1.356 . S
N553 H556 0.984 . S
N553 H557 0.985 . S
H554 N549 0.984 . S
H555 N549 0.985 . S
H556 N553 0.984 . S
H557 N553 0.985 . S
H558 N552 0.984 . S
H559 N552 0.984 . S
H560 N548 0.984 . S
H561 N548 0.985 . S
C562 C563 1.363 . S
C562 C568 1.379 . S
C562 N570 1.356 . S
C563 C562 1.363 . S
C563 C569 1.363 . S
C564 C565 1.363 . S
C564 C569 1.379 . S
C564 N571 1.356 . S
C565 C564 1.363 . S
C565 C568 1.363 . S
N566 C568 1.356 . S
N566 H578 0.984 . S
N566 H579 0.985 . S
N567 C569 1.356 . S
N567 H572 0.984 . S
N567 H573 0.985 . S
C568 C562 1.379 . S
C568 C565 1.363 . S
C568 N566 1.356 . S
C569 C563 1.363 . S
C569 C564 1.379 . S
C569 N567 1.356 . S
N570 C562 1.356 . S
N570 H576 0.984 . S
N570 H577 0.984 . S
N571 C564 1.356 . S
N571 H574 0.984 . S
N571 H575 0.985 . S
H572 N567 0.984 . S
H573 N567 0.985 . S
H574 N571 0.984 . S
H575 N571 0.985 . S
H576 N570 0.984 . S
H577 N570 0.984 . S
H578 N566 0.984 . S
H579 N566 0.985 . S
C580 C581 1.363 . S
C580 C586 1.379 . S
C580 N588 1.356 . S
C581 C580 1.363 . S
C581 C587 1.363 . S
C582 C583 1.363 . S
C582 C587 1.379 . S
C582 N589 1.356 . S
C583 C582 1.363 . S
C583 C586 1.363 . S
N584 C586 1.356 . S
N584 H596 0.984 . S
N584 H597 0.985 . S
N585 C587 1.356 . S
N585 H590 0.984 . S
N585 H591 0.985 . S
C586 C580 1.379 . S
C586 C583 1.363 . S
C586 N584 1.356 . S
C587 C581 1.363 . S
C587 C582 1.379 . S
C587 N585 1.356 . S
N588 C580 1.356 . S
N588 H594 0.984 . S
N588 H595 0.984 . S
N589 C582 1.356 . S
N589 H592 0.984 . S
N589 H593 0.985 . S
H590 N585 0.984 . S
H591 N585 0.985 . S
H592 N589 0.984 . S
H593 N589 0.985 . S
H594 N588 0.984 . S
H595 N588 0.984 . S
H596 N584 0.984 . S
H597 N584 0.985 . S
C598 C599 1.363 . S
C598 C604 1.379 . S
C598 N606 1.356 . S
C599 C598 1.363 . S
C599 C605 1.363 . S
C600 C601 1.363 . S
C600 C605 1.379 . S
C600 N607 1.356 . S
C601 C600 1.363 . S
C601 C604 1.363 . S
N602 C604 1.356 . S
N602 H614 0.984 . S
N602 H615 0.985 . S
N603 C605 1.356 . S
N603 H608 0.984 . S
N603 H609 0.985 . S
C604 C598 1.379 . S
C604 C601 1.363 . S
C604 N602 1.356 . S
C605 C599 1.363 . S
C605 C600 1.379 . S
C605 N603 1.356 . S
N606 C598 1.356 . S
N606 H612 0.984 . S
N606 H613 0.984 . S
N607 C600 1.356 . S
N607 H610 0.984 . S
N607 H611 0.985 . S
H608 N603 0.984 . S
H609 N603 0.985 . S
H610 N607 0.984 . S
H611 N607 0.985 . S
H612 N606 0.984 . S
H613 N606 0.984 . S
H614 N602 0.984 . S
H615 N602 0.985 . S
C616 C617 1.363 1_545 S
C616 C622 1.379 . S
C616 N624 1.356 . S
C617 C616 1.363 1_565 S
C617 C623 1.363 . S
C618 C619 1.363 1_565 S
C618 C623 1.379 . S
C618 N625 1.356 . S
C619 C618 1.363 1_545 S
C619 C622 1.363 . S
N620 C622 1.356 . S
N620 H632 0.984 . S
N620 H633 0.985 . S
N621 C623 1.356 . S
N621 H626 0.984 . S
N621 H627 0.985 . S
C622 C616 1.379 . S
C622 C619 1.363 . S
C622 N620 1.356 . S
C623 C617 1.363 . S
C623 C618 1.379 . S
C623 N621 1.356 . S
N624 C616 1.356 . S
N624 H630 0.984 . S
N624 H631 0.984 . S
N625 C618 1.356 . S
N625 H628 0.984 . S
N625 H629 0.985 . S
H626 N621 0.984 . S
H627 N621 0.985 . S
H628 N625 0.984 . S
H629 N625 0.985 . S
H630 N624 0.984 . S
H631 N624 0.984 . S
H632 N620 0.984 . S
H633 N620 0.985 . S
C634 C635 1.363 . S
C634 C640 1.379 . S
C634 N642 1.356 . S
C635 C634 1.363 . S
C635 C641 1.363 1_565 S
C636 C637 1.363 . S
C636 C641 1.379 . S
C636 N643 1.356 . S
C637 C636 1.363 . S
C637 C640 1.363 1_545 S
N638 C640 1.356 . S
N638 H650 0.984 . S
N638 H651 0.985 . S
N639 C641 1.356 . S
N639 H644 0.984 . S
N639 H645 0.985 . S
C640 C634 1.379 . S
C640 C637 1.363 1_565 S
C640 N638 1.356 . S
C641 C635 1.363 1_545 S
C641 C636 1.379 . S
C641 N639 1.356 . S
N642 C634 1.356 . S
N642 H648 0.984 . S
N642 H649 0.984 . S
N643 C636 1.356 . S
N643 H646 0.984 . S
N643 H647 0.985 . S
H644 N639 0.984 . S
H645 N639 0.985 . S
H646 N643 0.984 . S
H647 N643 0.985 . S
H648 N642 0.984 . S
H649 N642 0.984 . S
H650 N638 0.984 . S
H651 N638 0.985 . S
C652 C653 1.363 . S
C652 C658 1.379 . S
C652 N660 1.356 . S
C653 C652 1.363 . S
C653 C659 1.363 1_565 S
C654 C655 1.363 . S
C654 C659 1.379 . S
C654 N661 1.356 . S
C655 C654 1.363 . S
C655 C658 1.363 1_545 S
N656 C658 1.356 . S
N656 H668 0.984 . S
N656 H669 0.985 . S
N657 C659 1.356 . S
N657 H662 0.984 . S
N657 H663 0.985 . S
C658 C652 1.379 . S
C658 C655 1.363 1_565 S
C658 N656 1.356 . S
C659 C653 1.363 1_545 S
C659 C654 1.379 . S
C659 N657 1.356 . S
N660 C652 1.356 . S
N660 H666 0.984 . S
N660 H667 0.984 . S
N661 C654 1.356 . S
N661 H664 0.984 . S
N661 H665 0.985 . S
H662 N657 0.984 . S
H663 N657 0.985 . S
H664 N661 0.984 . S
H665 N661 0.985 . S
H666 N660 0.984 . S
H667 N660 0.984 . S
H668 N656 0.984 . S
H669 N656 0.985 . S
C670 C671 1.363 . S
C670 C676 1.379 . S
C670 N678 1.356 . S
C671 C670 1.363 . S
C671 C677 1.363 1_565 S
C672 C673 1.363 . S
C672 C677 1.379 . S
C672 N679 1.356 . S
C673 C672 1.363 . S
C673 C676 1.363 1_545 S
N674 C676 1.356 . S
N674 H686 0.984 . S
N674 H687 0.985 . S
N675 C677 1.356 . S
N675 H680 0.984 . S
N675 H681 0.985 . S
C676 C670 1.379 . S
C676 C673 1.363 1_565 S
C676 N674 1.356 . S
C677 C671 1.363 1_545 S
C677 C672 1.379 . S
C677 N675 1.356 . S
N678 C670 1.356 . S
N678 H684 0.984 . S
N678 H685 0.984 . S
N679 C672 1.356 . S
N679 H682 0.984 . S
N679 H683 0.985 . S
H680 N675 0.984 . S
H681 N675 0.985 . S
H682 N679 0.984 . S
H683 N679 0.985 . S
H684 N678 0.984 . S
H685 N678 0.984 . S
H686 N674 0.984 . S
H687 N674 0.985 . S
C688 C689 1.363 1_556 S
C688 C694 1.379 . S
C688 N696 1.356 . S
C689 C688 1.363 1_554 S
C689 C695 1.363 1_565 S
C690 C691 1.363 . S
C690 C695 1.379 . S
C690 N697 1.356 . S
C691 C690 1.363 . S
C691 C694 1.363 1_544 S
N692 C694 1.356 . S
N692 H704 0.984 . S
N692 H705 0.985 1_565 S
N693 C695 1.356 . S
N693 H698 0.984 1_545 S
N693 H699 0.985 . S
C694 C688 1.379 . S
C694 C691 1.363 1_566 S
C694 N692 1.356 . S
C695 C689 1.363 1_545 S
C695 C690 1.379 . S
C695 N693 1.356 . S
N696 C688 1.356 . S
N696 H702 0.984 . S
N696 H703 0.984 . S
N697 C690 1.356 . S
N697 H700 0.984 . S
N697 H701 0.985 . S
H698 N693 0.984 1_565 S
H699 N693 0.985 . S
H700 N697 0.984 . S
H701 N697 0.985 . S
H702 N696 0.984 . S
H703 N696 0.984 . S
H704 N692 0.984 . S
H705 N692 0.985 1_545 S
C706 C707 1.363 . S
C706 C712 1.379 . S
C706 N714 1.356 . S
C707 C706 1.363 . S
C707 C713 1.363 1_565 S
C708 C709 1.363 . S
C708 C713 1.379 . S
C708 N715 1.356 . S
C709 C708 1.363 . S
C709 C712 1.363 1_545 S
N710 C712 1.356 . S
N710 H722 0.984 . S
N710 H723 0.985 1_565 S
N711 C713 1.356 . S
N711 H716 0.984 1_545 S
N711 H717 0.985 . S
C712 C706 1.379 . S
C712 C709 1.363 1_565 S
C712 N710 1.356 . S
C713 C707 1.363 1_545 S
C713 C708 1.379 . S
C713 N711 1.356 . S
N714 C706 1.356 . S
N714 H720 0.984 . S
N714 H721 0.984 . S
N715 C708 1.356 . S
N715 H718 0.984 . S
N715 H719 0.985 . S
H716 N711 0.984 1_565 S
H717 N711 0.985 . S
H718 N715 0.984 . S
H719 N715 0.985 . S
H720 N714 0.984 . S
H721 N714 0.984 . S
H722 N710 0.984 . S
H723 N710 0.985 1_545 S
C724 C725 1.363 1_556 S
C724 C730 1.379 1_455 S
C724 N732 1.356 . S
C725 C724 1.363 1_554 S
C725 C731 1.363 . S
C726 C727 1.363 . S
C726 C731 1.379 1_655 S
C726 N733 1.356 . S
C727 C726 1.363 . S
C727 C730 1.363 1_554 S
N728 C730 1.356 . S
N728 H740 0.984 . S
N728 H741 0.985 . S
N729 C731 1.356 . S
N729 H734 0.984 . S
N729 H735 0.985 . S
C730 C724 1.379 1_655 S
C730 C727 1.363 1_556 S
C730 N728 1.356 . S
C731 C725 1.363 . S
C731 C726 1.379 1_455 S
C731 N729 1.356 . S
N732 C724 1.356 . S
N732 H738 0.984 . S
N732 H739 0.984 . S
N733 C726 1.356 . S
N733 H736 0.984 . S
N733 H737 0.985 . S
H734 N729 0.984 . S
H735 N729 0.985 . S
H736 N733 0.984 . S
H737 N733 0.985 . S
H738 N732 0.984 . S
H739 N732 0.984 . S
H740 N728 0.984 . S
H741 N728 0.985 . S
C742 C743 1.363 . S
C742 C748 1.379 1_455 S
C742 N750 1.356 . S
C743 C742 1.363 . S
C743 C749 1.363 . S
C744 C745 1.363 . S
C744 C749 1.379 1_655 S
C744 N751 1.356 . S
C745 C744 1.363 . S
C745 C748 1.363 . S
N746 C748 1.356 . S
N746 H758 0.984 . S
N746 H759 0.985 . S
N747 C749 1.356 . S
N747 H752 0.984 . S
N747 H753 0.985 . S
C748 C742 1.379 1_655 S
C748 C745 1.363 . S
C748 N746 1.356 . S
C749 C743 1.363 . S
C749 C744 1.379 1_455 S
C749 N747 1.356 . S
N750 C742 1.356 . S
N750 H756 0.984 . S
N750 H757 0.984 . S
N751 C744 1.356 . S
N751 H754 0.984 . S
N751 H755 0.985 . S
H752 N747 0.984 . S
H753 N747 0.985 . S
H754 N751 0.984 . S
H755 N751 0.985 . S
H756 N750 0.984 . S
H757 N750 0.984 . S
H758 N746 0.984 . S
H759 N746 0.985 . S
C473 C347 1.516 . S
C475 C52 1.516 . S
C491 C288 1.516 . S
C493 C111 1.516 . S
C509 C465 1.516 . S
C511 C170 1.516 . S
C527 C406 1.516 . S
C529 C229 1.516 . S
C545 C3 1.497 . S
C547 C121 1.497 . S
C563 C62 1.497 . S
C565 C180 1.497 . S
C581 C92 1.515 . S
C583 C210 1.515 . S
C599 C33 1.515 . S
C601 C151 1.515 . S
C617 C239 1.497 . S
C619 C357 1.497 . S
C635 C416 1.497 . S
C637 C298 1.497 . S
C653 C446 1.515 . S
C655 C328 1.515 . S
C671 C269 1.515 . S
C673 C387 1.515 . S
C689 C64 1.510 . S
C691 C5 1.510 . S
C707 C123 1.510 . S
C709 C182 1.510 . S
C725 C241 1.510 . S
C727 C300 1.510 . S
C743 C359 1.510 . S
C745 C418 1.510 . S
