# Generated by pormake.
# Topology whb, (6)-cn, num edge types: 1
# Building blocks:
#     Node 0, Type 0, BuildingBlock: KUMBUR_clean_sbu_1, # of connection points: 6
#     Node 1, Type 0, BuildingBlock: KUMBUR_clean_sbu_1, # of connection points: 6
#     Node 2, Type 0, BuildingBlock: KUMBUR_clean_sbu_1, # of connection points: 6
#     Node 3, Type 0, BuildingBlock: KUMBUR_clean_sbu_1, # of connection points: 6
#     Node 4, Type 0, BuildingBlock: KUMBUR_clean_sbu_1, # of connection points: 6
#     Node 5, Type 0, BuildingBlock: KUMBUR_clean_sbu_1, # of connection points: 6
#     Node 6, Type 0, BuildingBlock: KUMBUR_clean_sbu_1, # of connection points: 6
#     Node 7, Type 0, BuildingBlock: KUMBUR_clean_sbu_1, # of connection points: 6
#     Edge 8, Type (0, 0), BuildingBlock: KIFKEQ_clean_linker_1, # of connection points: 2
#     Edge 9, Type (0, 0), BuildingBlock: KIFKEQ_clean_linker_1, # of connection points: 2
#     Edge 10, Type (0, 0), BuildingBlock: KIFKEQ_clean_linker_1, # of connection points: 2
#     Edge 11, Type (0, 0), BuildingBlock: KIFKEQ_clean_linker_1, # of connection points: 2
#     Edge 12, Type (0, 0), BuildingBlock: KIFKEQ_clean_linker_1, # of connection points: 2
#     Edge 13, Type (0, 0), BuildingBlock: KIFKEQ_clean_linker_1, # of connection points: 2
#     Edge 14, Type (0, 0), BuildingBlock: KIFKEQ_clean_linker_1, # of connection points: 2
#     Edge 15, Type (0, 0), BuildingBlock: KIFKEQ_clean_linker_1, # of connection points: 2
#     Edge 16, Type (0, 0), BuildingBlock: KIFKEQ_clean_linker_1, # of connection points: 2
#     Edge 17, Type (0, 0), BuildingBlock: KIFKEQ_clean_linker_1, # of connection points: 2
#     Edge 18, Type (0, 0), BuildingBlock: KIFKEQ_clean_linker_1, # of connection points: 2
#     Edge 19, Type (0, 0), BuildingBlock: KIFKEQ_clean_linker_1, # of connection points: 2
#     Edge 20, Type (0, 0), BuildingBlock: KIFKEQ_clean_linker_1, # of connection points: 2
#     Edge 21, Type (0, 0), BuildingBlock: KIFKEQ_clean_linker_1, # of connection points: 2
#     Edge 22, Type (0, 0), BuildingBlock: KIFKEQ_clean_linker_1, # of connection points: 2
#     Edge 23, Type (0, 0), BuildingBlock: KIFKEQ_clean_linker_1, # of connection points: 2
#     Edge 24, Type (0, 0), BuildingBlock: KIFKEQ_clean_linker_1, # of connection points: 2
#     Edge 25, Type (0, 0), BuildingBlock: KIFKEQ_clean_linker_1, # of connection points: 2
#     Edge 26, Type (0, 0), BuildingBlock: KIFKEQ_clean_linker_1, # of connection points: 2
#     Edge 27, Type (0, 0), BuildingBlock: KIFKEQ_clean_linker_1, # of connection points: 2
#     Edge 28, Type (0, 0), BuildingBlock: KIFKEQ_clean_linker_1, # of connection points: 2
#     Edge 29, Type (0, 0), BuildingBlock: KIFKEQ_clean_linker_1, # of connection points: 2
#     Edge 30, Type (0, 0), BuildingBlock: KIFKEQ_clean_linker_1, # of connection points: 2
#     Edge 31, Type (0, 0), BuildingBlock: KIFKEQ_clean_linker_1, # of connection points: 2
# Relax obj value: 0.581
# Max RMSD: 0.322
# Mean RMSD: 0.269
data_MOF--net-whb--node1-KUMBUR_clean_sbu_1--edge1-KIFKEQ_clean_linker_1
_symmetry_space_group_name_H-M    P1
_symmetry_Int_Tables_number       1
_symmetry_cell_setting            triclinic
loop_
_symmetry_equiv_pos_as_xyz
'x, y, z'
_cell_length_a     32.211739
_cell_length_b     32.062369
_cell_length_c     45.619369
_cell_angle_alpha  105.27244
_cell_angle_beta   89.683157
_cell_angle_gamma 103.24346
loop_
_atom_site_label
_atom_site_type_symbol
_atom_site_fract_x
_atom_site_fract_y
_atom_site_fract_z
_atom_type_partial_charge
Tb0 Tb 0.14746 0.37647 0.07792 0.0
C1 C 0.19925 0.35149 0.20869 0.0
N2 N 0.18959 0.32196 0.18093 0.0
C3 C 0.24178 0.28401 0.19101 0.0
C4 C 0.23183 0.3496 0.22842 0.0
C5 C 0.20872 0.28701 0.17246 0.0
C6 C 0.25385 0.31587 0.21894 0.0
C7 C 0.18033 0.41043 0.24771 0.0
C8 C 0.17401 0.38135 0.21813 0.0
C9 C 0.21426 0.41055 0.267 0.0
C10 C 0.24001 0.38018 0.25735 0.0
Tb11 Tb 0.13526 0.32948 0.15227 0.0
N12 N 0.14125 0.37956 0.19899 0.0
C13 C 0.15145 0.43727 0.2573 0.0
C14 C 0.11179 0.4041 0.20867 0.0
C15 C 0.11673 0.43369 0.23779 0.0
H16 H 0.19934 0.26244 0.15085 0.0
H17 H 0.09379 0.45371 0.24517 0.0
H18 H 1.0565 0.32184 0.03761 0.0
H19 H 0.30451 0.4198 0.03635 0.0
H20 H 0.08456 0.40104 0.19386 0.0
H21 H 0.15515 0.46011 0.27986 0.0
H22 H 0.24606 0.43051 0.07115 0.0
H23 H 0.25778 0.25709 0.18382 0.0
H24 H 0.22001 0.433 0.28971 0.0
H25 H 0.2652 0.37963 0.27279 0.0
H26 H 1.03404 0.26622 0.98827 0.0
H27 H 0.27916 0.31326 0.2334 0.0
H28 H 0.29265 0.35453 -0.00878 0.0
N29 N 0.12289 0.3263 0.03214 0.0
C30 C 0.15299 0.31389 0.01315 0.0
C31 C 0.06766 0.27919 -0.00495 0.0
C32 C 0.14175 0.28194 0.98485 0.0
C33 C 0.08054 0.3109 0.023 0.0
C34 C 0.09839 0.26382 0.9762 0.0
N35 N 0.20283 0.37084 0.04659 0.0
C36 C 0.2409 0.40195 0.05146 0.0
C37 C 0.22675 0.32968 0.00013 0.0
C38 C 0.19476 0.33712 0.02071 0.0
C39 C 0.26717 0.35896 0.00649 0.0
C40 C 0.27391 0.39599 0.03185 0.0
H41 H 0.08834 0.23921 0.95462 0.0
H42 H 0.16614 0.24615 0.94382 0.0
H43 H 0.2408 0.28831 0.95715 0.0
O44 O 0.15061 0.4142 0.04631 0.0
O45 O 0.10993 0.3127 0.08123 0.0
O46 O 0.14922 0.28635 0.10944 0.0
O47 O 0.12748 0.43654 0.09048 0.0
O48 O 0.20909 0.36403 0.09432 0.0
O49 O 0.20435 0.34412 0.14042 0.0
O50 O 0.09661 0.264 0.1391 0.0
O51 O 0.13109 0.39367 0.14732 0.0
O52 O 0.18267 0.41977 0.11946 0.0
O53 O 0.10185 0.30353 0.1856 0.0
O54 O 0.07449 0.34594 0.13888 0.0
O55 O 0.07863 0.36323 0.09181 0.0
C56 C 0.12896 0.28198 0.08369 0.0
C57 C 0.10061 0.4577 0.04984 0.0
C58 C 0.07938 0.51099 0.02673 0.0
C59 C 1.0392 0.48107 0.01811 0.0
C60 C 1.06045 0.42864 0.04113 0.0
C61 C 1.02981 0.44044 0.02552 0.0
C62 C 0.10977 0.49893 0.04301 0.0
C63 C 0.22683 0.35413 0.11742 0.0
C64 C 0.1344 0.44441 0.06411 0.0
C65 C 0.17401 0.27123 0.96543 0.0
C66 C 0.21653 0.29518 0.97305 0.0
C67 C 0.16568 0.42322 0.14568 0.0
C68 C 0.09256 0.22688 0.17857 0.0
C69 C 0.07786 0.1868 0.21784 0.0
C70 C 0.10375 0.1585 0.20344 0.0
C71 C 0.11786 0.19792 0.16437 0.0
C72 C 0.07266 0.22105 0.20519 0.0
C73 C 0.12347 0.16404 0.17687 0.0
C74 C 1.05639 0.35494 0.11554 0.0
C75 C 0.08738 0.26445 0.16704 0.0
H76 H 1.01523 0.48842 0.00503 0.0
H77 H 1.05317 0.39667 0.04596 0.0
H78 H 0.99893 0.41765 0.01862 0.0
H79 H 0.1408 0.52132 0.05026 0.0
H80 H 0.10812 0.13157 0.21237 0.0
H81 H 0.13348 0.20157 0.14381 0.0
H82 H 1.05355 0.24379 0.21632 0.0
H83 H 0.14311 0.14188 0.16586 0.0
Tb84 Tb 0.44432 0.22146 0.60368 0.0
C85 C 0.28683 0.09059 0.51703 0.0
N86 N 0.32952 0.0961 0.51407 0.0
C87 C 0.31927 1.01786 0.48989 0.0
C88 C 0.25857 0.04832 0.50693 0.0
C89 C 0.34591 0.06058 0.4998 0.0
C90 C 0.27545 1.01161 0.49378 0.0
C91 C 0.22684 0.12465 0.52867 0.0
C92 C 0.27125 0.12807 0.52794 0.0
C93 C 0.19854 0.08247 0.52009 0.0
C94 C 0.2144 1.04434 0.50926 0.0
Tb95 Tb 0.37068 0.16702 0.53353 0.0
N96 N 0.29963 0.16825 0.53551 0.0
C97 C 0.2122 0.16375 0.53669 0.0
C98 C 0.28525 0.20648 0.54089 0.0
C99 C 0.24153 0.20483 0.54221 0.0
H100 H 0.37982 0.06533 0.49662 0.0
H101 H 0.23045 0.23523 0.54717 0.0
H102 H 0.4138 0.2696 0.67078 0.0
H103 H 0.50211 0.29165 0.50936 0.0
H104 H 0.30732 0.23838 0.54452 0.0
H105 H 0.17833 0.16255 0.53742 0.0
H106 H 0.46599 0.23236 0.53078 0.0
H107 H 0.33253 0.98983 0.47918 0.0
H108 H 0.16432 0.07912 0.52073 0.0
H109 H 0.19216 1.01213 0.50181 0.0
H110 H 0.42523 0.34611 0.70445 0.0
H111 H 0.25482 0.97855 0.4858 0.0
H112 H 0.52486 0.3686 0.54191 0.0
N113 N 0.44688 0.29011 0.63467 0.0
C114 C 0.46939 0.32447 0.62457 0.0
C115 C 0.43772 0.34046 0.68204 0.0
C116 C 0.4765 0.3686 0.64298 0.0
C117 C 0.43106 0.29728 0.66291 0.0
C118 C 0.46073 0.37626 0.67211 0.0
N119 N 0.47175 0.27259 0.57671 0.0
C120 C 0.4777 0.26444 0.54616 0.0
C121 C 0.50156 0.3512 0.58273 0.0
C122 C 0.48206 0.31553 0.59468 0.0
C123 C 0.51009 0.34211 0.55194 0.0
C124 C 0.49741 0.29871 0.53353 0.0
H125 H 0.46554 0.40971 0.68691 0.0
H126 H 0.50376 0.43783 0.64534 0.0
H127 H 0.5255 0.42268 0.59262 0.0
O128 O 0.50801 0.24367 0.62061 0.0
O129 O 0.39605 0.26155 0.60017 0.0
O130 O 0.38464 0.24255 0.54865 0.0
O131 O 0.46006 0.21587 0.64716 0.0
O132 O 0.48063 0.19013 0.56782 0.0
O133 O 0.43485 0.15017 0.52584 0.0
O134 O 0.35552 0.14185 0.48662 0.0
O135 O 0.38468 0.11384 0.55232 0.0
O136 O 0.42444 0.14633 0.59815 0.0
O137 O 0.39045 0.2095 0.50505 0.0
O138 O 0.33588 0.17981 0.57576 0.0
O139 O 0.38324 0.18928 0.61649 0.0
C140 C 0.38468 0.27181 0.5755 0.0
C141 C 0.52946 0.2057 0.65221 0.0
C142 C 0.58581 0.20165 0.68561 0.0
C143 C 0.59209 0.16361 0.66404 0.0
C144 C 0.53528 0.16725 0.63094 0.0
C145 C 0.56664 0.14635 0.63689 0.0
C146 C 0.55439 0.2225 0.67953 0.0
C147 C 0.47326 0.16279 0.54042 0.0
C148 C 0.50055 0.23123 0.64525 0.0
C149 C 0.49782 0.40371 0.63148 0.0
C150 C 0.51026 0.39505 0.60145 0.0
C151 C 0.40195 0.11018 0.5775 0.0
C152 C 0.335 0.19566 0.46723 0.0
C153 C 0.25928 0.18843 0.45495 0.0
C154 C 0.27017 0.22897 0.4471 0.0
C155 C 0.34524 0.23594 0.45918 0.0
C156 C 0.29209 0.17158 0.46409 0.0
C157 C 0.31296 0.2522 0.44884 0.0
C158 C 0.34442 0.18053 0.60421 0.0
C159 C 0.36791 0.18067 0.48161 0.0
H160 H 0.61596 0.14678 0.6685 0.0
H161 H 0.51619 0.15397 0.60963 0.0
H162 H 0.57131 0.11685 0.62041 0.0
H163 H 0.54989 0.25233 0.69586 0.0
H164 H 0.24566 0.24277 0.43976 0.0
H165 H 0.37798 0.2552 0.46148 0.0
H166 H 0.28374 0.14064 0.47042 0.0
H167 H 0.32103 0.28346 0.44284 0.0
Tb168 Tb 0.63045 0.32709 0.14865 0.0
C169 C 0.72157 0.41277 0.04463 0.0
N170 N 0.71554 0.42946 0.0744 0.0
C171 C 0.78501 0.47915 0.08073 0.0
C172 C 0.76018 0.42742 0.03175 0.0
C173 C 0.7458 0.46375 0.09228 0.0
C174 C 0.79254 0.46037 0.05044 0.0
C175 C 0.69001 0.36908 -0.00504 0.0
C176 C 0.68729 0.38407 0.02667 0.0
C177 C 0.72923 0.38098 0.98205 0.0
C178 C 0.76434 0.41015 0.00046 0.0
Tb179 Tb 0.65195 0.39996 0.09199 0.0
N180 N 0.64992 0.37486 0.04004 0.0
C181 C 0.65272 0.34478 0.97714 0.0
C182 C 0.61284 0.3547 0.02255 0.0
C183 C 0.61377 0.33843 -0.00905 0.0
H184 H 0.74004 0.47863 0.11562 0.0
H185 H 0.58446 0.3212 0.97729 0.0
H186 H 0.57533 0.37971 0.2021 0.0
H187 H 0.73712 0.22412 0.15917 0.0
H188 H 0.58258 0.35028 0.03312 0.0
H189 H 0.65333 0.33259 0.95265 0.0
H190 H 0.68364 0.24848 0.13291 0.0
H191 H 0.80932 0.50556 0.09515 0.0
H192 H 0.73221 0.36935 0.95776 0.0
H193 H 0.79392 0.42051 0.99011 0.0
H194 H 0.58351 0.41325 0.25769 0.0
H195 H 0.82275 0.4726 0.04147 0.0
H196 H 0.75832 0.2609 0.21368 0.0
N197 N 0.63068 0.35362 0.20056 0.0
C198 C 0.6618 0.34637 0.217 0.0
C199 C 0.60599 0.39472 0.2465 0.0
C200 C 0.6676 0.36441 0.24878 0.0
C201 C 0.60147 0.37566 0.21496 0.0
C202 C 0.63977 0.38987 0.26343 0.0
N203 N 0.67564 0.2987 0.17196 0.0
C204 C 0.69262 0.26434 0.15671 0.0
C205 C 0.71537 0.30495 0.21809 0.0
C206 C 0.68523 0.31745 0.20204 0.0
C207 C 0.73496 0.2716 0.20223 0.0
C208 C 0.72293 0.25064 0.1715 0.0
H209 H 0.64313 0.40449 0.28783 0.0
H210 H 0.70519 0.36879 0.28926 0.0
H211 H 0.74705 0.31633 0.26229 0.0
O212 O 0.59359 0.27299 0.16269 0.0
O213 O 0.63393 0.39804 0.16374 0.0
O214 O 0.68656 0.42709 0.13749 0.0
O215 O 0.57721 0.28603 0.12086 0.0
O216 O 0.70102 0.34074 0.13808 0.0
O217 O 0.71283 0.38108 0.1016 0.0
O218 O 0.62808 0.4537 0.11774 0.0
O219 O 0.62002 0.32879 0.07484 0.0
O220 O 0.6541 0.29902 0.10452 0.0
O221 O 0.63697 0.44448 0.06972 0.0
O222 O 0.58285 0.36722 0.09569 0.0
O223 O 0.58126 0.36577 0.14551 0.0
C224 C 0.67021 0.42602 0.16374 0.0
C225 C 0.5582 0.21087 0.12209 0.0
C226 C 0.54281 0.13371 0.12461 0.0
C227 C 0.53374 0.11917 0.09299 0.0
C228 C 0.54764 0.19564 0.09056 0.0
C229 C 0.53608 0.1501 0.07611 0.0
C230 C 0.55538 0.17963 0.1389 0.0
C231 C 0.72713 0.36032 0.11991 0.0
C232 C 0.56855 0.25894 0.13794 0.0
C233 C 0.6997 0.35475 0.26486 0.0
C234 C 0.72353 0.3249 0.24952 0.0
C235 C 0.6362 0.29611 0.07815 0.0
C236 C 0.64297 0.5183 0.09849 0.0
C237 C 0.64641 0.58329 0.07895 0.0
C238 C 0.67031 0.61036 0.10564 0.0
C239 C 0.66728 0.54593 0.12479 0.0
C240 C 0.63297 0.53718 0.07558 0.0
C241 C 0.68083 0.59171 0.12825 0.0
C242 C 0.56101 0.36703 0.12053 0.0
C243 C 0.6266 0.46999 0.09442 0.0
H244 H 0.52432 0.08401 0.08142 0.0
H245 H 0.54793 0.21881 0.07704 0.0
H246 H 0.52852 0.13878 0.05179 0.0
H247 H 0.56325 0.19114 0.16321 0.0
H248 H 0.68131 0.64591 0.10886 0.0
H249 H 0.67565 0.53229 0.14267 0.0
H250 H 0.61394 0.51601 0.05531 0.0
H251 H 0.6995 0.61288 0.1486 0.0
Tb252 Tb 0.35579 0.67944 0.5502 0.0
C253 C 0.31297 0.75116 0.68509 0.0
N254 N 0.32237 0.71232 0.6699 0.0
C255 C 0.36223 0.7124 0.71424 0.0
C256 C 0.32872 0.7729 0.71533 0.0
C257 C 0.34512 0.69172 0.68443 0.0
C258 C 0.3545 0.7535 0.72963 0.0
C259 C 0.26994 0.80447 0.6869 0.0
C260 C 0.28439 0.76692 0.67105 0.0
C261 C 0.28719 0.82778 0.71649 0.0
C262 C 0.31671 0.81212 0.73064 0.0
Tb263 Tb 0.29591 0.68363 0.6204 0.0
N264 N 0.26828 0.74324 0.64259 0.0
C265 C 0.23734 0.81622 0.673 0.0
C266 C 0.23436 0.75255 0.62983 0.0
C267 C 0.21896 0.78965 0.64456 0.0
H268 H 0.35061 0.65955 0.67288 0.0
H269 H 0.19288 0.79765 0.63402 0.0
H270 H 0.3788 0.75989 0.51572 0.0
H271 H 0.2258 0.52801 0.52344 0.0
H272 H 0.22007 0.73206 0.60793 0.0
H273 H 0.22517 0.84475 0.68446 0.0
H274 H 0.2759 0.58962 0.55774 0.0
H275 H 0.38115 0.69652 0.72539 0.0
H276 H 0.2769 0.85707 0.72896 0.0
H277 H 0.3288 0.82961 0.7538 0.0
H278 H 0.36439 0.76879 0.46481 0.0
H279 H 0.36728 0.76912 0.75286 0.0
H280 H 0.21747 0.52553 0.46926 0.0
N281 N 0.34182 0.6932 0.50544 0.0
C282 C 0.31523 0.659 0.48487 0.0
C283 C 0.35051 0.73776 0.47015 0.0
C284 C 0.30605 0.66282 0.45564 0.0
C285 C 0.35851 0.73271 0.49893 0.0
C286 C 0.32454 0.70253 0.4483 0.0
N287 N 0.30258 0.61986 0.52316 0.0
C288 C 0.27586 0.58809 0.53402 0.0
C289 C 0.26491 0.58705 0.47359 0.0
C290 C 0.29536 0.62114 0.49386 0.0
C291 C 0.24121 0.55218 0.48409 0.0
C292 C 0.24596 0.55335 0.51461 0.0
H293 H 0.31823 0.70668 0.42606 0.0
H294 H 0.2706 0.6298 0.41237 0.0
H295 H 0.23435 0.56372 0.42812 0.0
O296 O 0.42254 0.68987 0.55664 0.0
O297 O 0.29532 0.70051 0.54519 0.0
O298 O 0.25598 0.66786 0.57835 0.0
O299 O 0.39325 0.66745 0.51196 0.0
O300 O 0.3539 0.61564 0.56303 0.0
O301 O 0.32674 0.62378 0.61091 0.0
O302 O 0.25717 0.66185 0.65326 0.0
O303 O 0.36194 0.68045 0.62396 0.0
O304 O 0.38888 0.72374 0.59413 0.0
O305 O 0.24413 0.62849 0.60551 0.0
O306 O 0.31301 0.75297 0.6096 0.0
O307 O 0.35578 0.75082 0.56815 0.0
C308 C 0.25792 0.68529 0.55528 0.0
C309 C 0.45641 0.72305 0.51962 0.0
C310 C 0.49851 0.75188 0.48164 0.0
C311 C 0.50406 0.79531 0.50063 0.0
C312 C 0.4624 0.76669 0.53845 0.0
C313 C 0.4859 0.80258 0.52886 0.0
C314 C 0.47439 0.71596 0.4913 0.0
C315 C 0.34365 0.59978 0.58706 0.0
C316 C 0.4287 0.68511 0.52801 0.0
C317 C 0.27781 0.6276 0.43501 0.0
C318 C 0.25728 0.58988 0.44397 0.0
C319 C 0.39167 0.71245 0.61953 0.0
C320 C 0.18432 0.63132 0.63566 0.0
C321 C 0.12652 0.65598 0.66526 0.0
C322 C 0.09757 0.63278 0.64016 0.0
C323 C 0.15454 0.60735 0.61125 0.0
C324 C 0.1698 0.65439 0.66283 0.0
C325 C 0.11153 0.60833 0.61349 0.0
C326 C 0.33636 0.77356 0.59036 0.0
C327 C 0.23026 0.63203 0.63276 0.0
H328 H 0.52275 0.82345 0.49376 0.0
H329 H 0.44837 0.77312 0.56032 0.0
H330 H 0.49017 0.8361 0.54341 0.0
H331 H 0.47027 0.68218 0.47707 0.0
H332 H 0.06425 0.63393 0.64087 0.0
H333 H 0.16462 0.58845 0.59021 0.0
H334 H 0.19238 0.67106 0.68215 0.0
H335 H 0.08899 0.59049 0.59432 0.0
Tb336 Tb 0.57222 0.90073 0.89513 0.0
C337 C 0.56459 0.96585 0.77344 0.0
N338 N 0.59472 0.95547 0.7889 0.0
C339 C 0.61838 0.91675 0.74169 0.0
C340 C 0.55884 0.9508 0.7415 0.0
C341 C 0.62294 0.93297 0.77346 0.0
C342 C 0.58562 0.92495 0.72566 0.0
C343 C 0.51298 1.0103 0.77492 0.0
C344 C 0.54213 0.99484 0.78973 0.0
C345 C 0.50497 0.9935 0.74323 0.0
C346 C 0.52786 0.96366 0.72651 0.0
Tb347 Tb 0.5954 0.97807 0.84099 0.0
N348 N 0.55157 1.01057 0.82004 0.0
C349 C 0.49414 1.04325 0.79231 0.0
C350 C 0.53526 1.04445 0.8369 0.0
C351 C 0.50588 0.06092 0.82338 0.0
H352 H 0.64836 0.92645 0.78562 0.0
H353 H 0.49225 0.08709 0.83692 0.0
H354 H 0.48351 0.82349 0.87177 0.0
H355 H 0.63781 0.98657 0.00972 0.0
H356 H 0.54411 0.05794 0.86095 0.0
H357 H 0.47154 0.05614 0.78185 0.0
H358 H 0.64087 0.95408 0.95443 0.0
H359 H 0.64005 0.89787 0.72963 0.0
H360 H 0.48226 1.00444 0.73135 0.0
H361 H 0.52248 0.95203 0.70198 0.0
H362 H 0.41413 0.79709 0.89237 0.0
H363 H 0.58226 0.91256 0.70108 0.0
H364 H 0.56855 0.97571 0.03389 0.0
N365 N 0.50819 0.8728 0.91283 0.0
C366 C 0.50195 0.8904 0.94243 0.0
C367 C 0.43849 0.82357 0.90667 0.0
C368 C 0.46312 0.87646 0.95529 0.0
C369 C 0.4778 0.83851 0.89509 0.0
C370 C 0.43084 0.8431 0.93681 0.0
N371 N 0.57361 0.92844 0.94702 0.0
C372 C 0.61035 0.95007 0.96467 0.0
C373 C 0.53275 0.93644 -0.00823 0.0
C374 C 0.53603 0.91977 0.96024 0.0
C375 C 0.56963 0.96213 0.00957 0.0
C376 C 0.60879 0.96822 -0.00398 0.0
H377 H 0.40048 0.83136 0.94578 0.0
H378 H 0.42879 0.8852 -0.00333 0.0
H379 H 0.48998 0.93791 0.02872 0.0
O380 O 0.59225 0.84393 0.86999 0.0
O381 O 0.60608 0.97101 0.91107 0.0
O382 O 0.57055 1.00386 0.88515 0.0
O383 O 0.58766 0.85784 0.91862 0.0
O384 O 0.64197 0.93101 0.89113 0.0
O385 O 0.64426 0.93842 0.84246 0.0
O386 O 0.63442 1.03223 0.82842 0.0
O387 O 0.59177 0.90715 0.82423 0.0
O388 O 0.53895 0.87498 0.84912 0.0
O389 O 0.64758 1.01796 0.87051 0.0
O390 O 0.52459 0.96313 0.85016 0.0
O391 O 0.51163 0.92006 0.88503 0.0
C392 C 0.58675 1.00275 0.91103 0.0
C393 C 0.57489 0.78253 0.89239 0.0
C394 C 0.56781 0.71985 0.91512 0.0
C395 C 0.53415 0.69557 0.89332 0.0
C396 C 0.54165 0.75736 0.87081 0.0
C397 C 0.52152 0.71411 0.87132 0.0
C398 C 0.58814 0.76345 0.91418 0.0
C399 C 0.66407 0.93438 0.86674 0.0
C400 C 0.59475 0.82955 0.89409 0.0
C401 C 0.45855 0.89501 0.98635 0.0
C402 C 0.49336 0.92506 0.00459 0.0
C403 C 0.55555 0.87858 0.82331 0.0
C404 C 0.66809 0.0935 0.86987 0.0
C405 C 0.68667 0.17051 0.86721 0.0
C406 C 0.69101 0.18532 0.89907 0.0
C407 C 0.67447 0.10879 0.90175 0.0
C408 C 0.6747 0.12464 0.85288 0.0
C409 C 0.68518 0.15441 0.91624 0.0
C410 C 0.49795 0.94211 0.86731 0.0
C411 C 0.65796 1.04552 0.85386 0.0
H412 H 0.51688 0.66245 0.89351 0.0
H413 H 0.53086 0.77124 0.85385 0.0
H414 H 0.49553 0.69501 0.85482 0.0
H415 H 0.61431 0.78291 0.93047 0.0
H416 H 0.69951 0.22056 0.91054 0.0
H417 H 0.67182 0.08559 0.91541 0.0
H418 H 0.67031 0.1131 0.82826 0.0
H419 H 0.68939 0.16577 0.94082 0.0
Tb420 Tb 0.93785 0.62325 0.37178 0.0
C421 C 0.88385 0.62201 0.50339 0.0
N422 N 0.86521 0.59265 0.47703 0.0
C423 C 0.8506 0.53368 0.50169 0.0
C424 C 0.88547 0.6084 0.53029 0.0
C425 C 0.84983 0.54858 0.47558 0.0
C426 C 0.86804 0.5638 0.52925 0.0
C427 C 0.92613 0.69537 0.52948 0.0
C428 C 0.90406 0.66501 0.50287 0.0
C429 C 0.92583 0.68262 0.55667 0.0
C430 C 0.90565 0.63922 0.55706 0.0
Tb431 Tb 0.86434 0.62111 0.4362 0.0
N432 N 0.90525 0.67568 0.47578 0.0
C433 C 0.9494 0.73707 0.52777 0.0
C434 C 0.93031 0.71567 0.47391 0.0
C435 C 0.95202 0.74693 0.49979 0.0
H436 H 0.83545 0.52517 0.45454 0.0
H437 H 0.97146 0.77843 0.49798 0.0
H438 H 0.88524 0.62755 0.3098 0.0
H439 H 1.05479 0.52982 0.37975 0.0
H440 H 0.9356 0.72378 0.45258 0.0
H441 H 0.96682 0.76121 0.54767 0.0
H442 H 1.0194 0.59252 0.39603 0.0
H443 H 0.83763 0.499 0.50056 0.0
H444 H 0.94234 0.70566 0.57732 0.0
H445 H 0.90686 0.62948 0.578 0.0
H446 H 0.8607 0.5774 0.25878 0.0
H447 H 0.86877 0.55209 0.54941 0.0
H448 H 1.02909 0.47084 0.33203 0.0
N449 N 0.91656 0.58272 0.32269 0.0
C450 C 0.93083 0.54494 0.31297 0.0
C451 C 0.8801 0.56766 0.27391 0.0
C452 C 0.91896 0.51609 0.2836 0.0
C453 C 0.89365 0.59573 0.30299 0.0
C454 C 0.89211 0.52723 0.26437 0.0
N455 N 0.97288 0.56738 0.35896 0.0
C456 C 1.00786 0.56654 0.37544 0.0
C457 C 0.97988 0.50135 0.32114 0.0
C458 C 0.96063 0.53742 0.33151 0.0
C459 C 1.01332 0.49799 0.33923 0.0
C460 C 1.02794 0.53125 0.36619 0.0
H461 H 0.88202 0.50582 0.2417 0.0
H462 H 0.9268 0.45551 0.25152 0.0
H463 H 0.98045 0.44279 0.28433 0.0
O464 O 0.97592 0.64304 0.33781 0.0
O465 O 0.87162 0.62339 0.36177 0.0
O466 O 0.83909 0.57901 0.39007 0.0
O467 O 0.99155 0.67659 0.38519 0.0
O468 O 0.92579 0.55798 0.38793 0.0
O469 O 0.86103 0.55146 0.40991 0.0
O470 O 0.81428 0.65266 0.43443 0.0
O471 O 0.92939 0.61295 0.4471 0.0
O472 O 0.96456 0.65468 0.41823 0.0
O473 O 0.80841 0.60272 0.45858 0.0
O474 O 0.87336 0.68641 0.42366 0.0
O475 O 0.90642 0.68165 0.37803 0.0
C476 C 0.83963 0.59221 0.36519 0.0
C477 C 1.04953 0.67569 0.35344 0.0
C478 C 0.10766 0.65252 0.32346 0.0
C479 C 0.1369 0.68867 0.34293 0.0
C480 C 0.07944 0.7112 0.37255 0.0
C481 C 0.12284 0.71729 0.36749 0.0
C482 C 0.0639 0.64576 0.32949 0.0
C483 C 0.89236 0.53301 0.39835 0.0
C484 C 1.0036 0.67297 0.3576 0.0
C485 C 0.93586 0.47832 0.2739 0.0
C486 C 0.96642 0.47107 0.29259 0.0
C487 C 0.96593 0.63416 0.4392 0.0
C488 C 0.75045 0.598 0.42553 0.0
C489 C 0.68905 0.59661 0.39399 0.0
C490 C 0.68495 0.551 0.38054 0.0
C491 C 0.74594 0.55227 0.41182 0.0
C492 C 0.72192 0.61983 0.4165 0.0
C493 C 0.71338 0.52903 0.38943 0.0
C494 C 0.88746 0.70436 0.40108 0.0
C495 C 0.78808 0.62441 0.4458 0.0
H496 H 0.17057 0.69583 0.33885 0.0
H497 H 0.06911 0.73479 0.39111 0.0
H498 H 0.14561 0.74507 0.38218 0.0
H499 H 1.04082 0.61767 0.31539 0.0
H500 H 0.65976 0.53242 0.36325 0.0
H501 H 0.76814 0.53466 0.4178 0.0
H502 H 0.72534 0.65502 0.42716 0.0
H503 H 0.71033 0.49395 0.37884 0.0
Tb504 Tb 0.08874 0.97181 0.83153 0.0
C505 C 0.08299 0.99832 0.97209 0.0
N506 N 0.10999 0.98378 0.95101 0.0
C507 C 0.16964 1.03513 0.98229 0.0
C508 C 0.09805 1.03276 -0.00122 0.0
C509 C 0.15313 1.0007 0.95627 0.0
C510 C 0.14195 0.05163 0.00348 0.0
C511 C 1.0115 0.98803 0.98999 0.0
C512 C 1.04045 0.9766 0.9677 0.0
C513 C 1.02568 1.02409 0.01575 0.0
C514 C 0.06895 1.04642 0.02016 0.0
Tb515 Tb 0.07907 0.92865 0.90851 0.0
N516 N 1.02837 0.94138 0.94294 0.0
C517 C 0.96986 0.9614 0.98646 0.0
C518 C 0.98932 0.91265 0.94115 0.0
C519 C 0.95903 0.9229 0.96227 0.0
H520 H 0.17512 0.98854 0.94027 0.0
H521 H 0.92759 0.90085 0.96009 0.0
H522 H 1.02107 1.03085 0.82223 0.0
H523 H 0.1418 0.84553 0.7471 0.0
H524 H 0.9815 0.88207 0.92303 0.0
H525 H 0.9466 0.969 0.00304 0.0
H526 H 0.14783 0.9054 0.79478 0.0
H527 H 0.20375 0.04897 0.98595 0.0
H528 H 1.00381 1.03386 0.03293 0.0
H529 H 0.07978 0.07334 0.04055 0.0
H530 H 0.95924 1.02249 0.78725 0.0
H531 H 0.15481 0.07827 0.02362 0.0
H532 H 0.07572 0.82141 0.71356 0.0
N533 N 1.03219 0.96764 0.80003 0.0
C534 C 1.02263 0.93195 0.77538 0.0
C535 C 0.97655 0.99653 0.78379 0.0
C536 C 0.9882 0.92588 0.75457 0.0
C537 C 1.01152 1.00124 0.80348 0.0
C538 C 0.96422 0.95817 0.75959 0.0
N539 N 0.0857 0.91508 0.78839 0.0
C540 C 0.11883 0.89514 0.78033 0.0
C541 C 1.04551 0.87028 0.74194 0.0
C542 C 1.05066 0.9046 0.76923 0.0
C543 C 0.07817 0.84775 0.73445 0.0
C544 C 0.11545 0.86106 0.75339 0.0
H545 H 0.93748 0.95482 0.74415 0.0
H546 H 0.95397 0.88371 0.71248 0.0
H547 H 1.00437 0.83492 0.70136 0.0
O548 O 0.13024 1.03576 0.84121 0.0
O549 O 0.09481 0.9103 0.84005 0.0
O550 O 1.04363 0.88343 0.8676 0.0
O551 O 0.11454 0.99577 0.79511 0.0
O552 O 0.15157 0.9613 0.84737 0.0
O553 O 0.14671 0.93792 0.89237 0.0
O554 O 0.07652 0.89441 0.94227 0.0
O555 O 0.11129 0.99146 0.90056 0.0
O556 O 0.0729 1.01754 0.87203 0.0
O557 O 0.09845 0.86832 0.89826 0.0
O558 O 1.01495 0.93183 0.88939 0.0
O559 O 1.02167 0.96488 0.84862 0.0
C560 C 1.06141 0.87934 0.84164 0.0
C561 C 0.12841 0.07276 0.80229 0.0
C562 C 0.14365 0.11688 0.76535 0.0
C563 C 0.11653 0.14342 0.78035 0.0
C564 C 0.10174 0.09981 0.81693 0.0
C565 C 0.09583 0.13489 0.80591 0.0
C566 C 0.14923 0.08141 0.77656 0.0
C567 C 0.1694 0.94978 0.86978 0.0
C568 C 0.13394 1.03429 0.81249 0.0
C569 C 0.98063 0.88939 0.72857 0.0
C570 C 1.00933 0.86161 0.72223 0.0
C571 C 0.08923 1.02006 0.89864 0.0
C572 C 0.12614 0.85037 0.93985 0.0
C573 C 0.14917 0.79736 0.96192 0.0
C574 C 0.19101 0.82404 0.96595 0.0
C575 C 0.16768 0.87735 0.94491 0.0
C576 C 0.11683 0.81072 0.94877 0.0
C577 C 0.20007 0.86405 0.95769 0.0
C578 C 0.99807 0.94775 0.86893 0.0
C579 C 0.0921 0.86295 0.92535 0.0
H580 H 0.11105 0.17063 0.7722 0.0
H581 H 0.08532 0.09372 0.83672 0.0
H582 H 0.07503 0.15552 0.81719 0.0
H583 H 0.17023 0.06075 0.76554 0.0
H584 H 0.21642 0.81436 0.97604 0.0
H585 H 0.1748 0.90858 0.93903 0.0
H586 H 0.08455 0.79003 0.94519 0.0
H587 H 0.2322 0.88488 0.96131 0.0
Tb588 Tb 0.86167 0.13081 0.45034 0.0
C589 C 0.80138 0.9864 0.34493 0.0
N590 N 0.82564 1.02861 0.34855 0.0
C591 C 0.87814 0.99923 0.31736 0.0
C592 C 0.81558 0.94903 0.3283 0.0
C593 C 0.86257 1.03531 0.33374 0.0
C594 C 0.85483 0.95592 0.31491 0.0
C595 C 0.73651 0.93754 0.35528 0.0
C596 C 0.76205 0.98057 0.35811 0.0
C597 C 0.75064 0.90036 0.33868 0.0
C598 C 0.79009 0.90608 0.32531 0.0
Tb599 Tb 0.79436 0.08366 0.37503 0.0
N600 N 0.75037 1.01721 0.3755 0.0
C601 C 0.69797 0.93318 0.3698 0.0
C602 C 0.71253 1.01322 0.38935 0.0
C603 C 0.68591 0.97117 0.38683 0.0
H604 H 0.87939 0.06807 0.33314 0.0
H605 H 0.65601 0.96808 0.39793 0.0
H606 H 0.80552 0.19858 0.49065 0.0
H607 H 1.03204 0.14509 0.44715 0.0
H608 H 0.70249 1.04233 0.40201 0.0
H609 H 0.6774 0.90066 0.36813 0.0
H610 H 0.95607 0.10518 0.43905 0.0
H611 H 0.9077 1.00489 0.30603 0.0
H612 H 0.73149 0.86699 0.3363 0.0
H613 H 0.80057 0.87702 0.31266 0.0
H614 H 0.8191 0.27711 0.52081 0.0
H615 H 0.86688 0.92808 0.30198 0.0
H616 H 1.05216 0.22576 0.47274 0.0
N617 N 0.87043 0.20219 0.47994 0.0
C618 C 0.91119 0.22726 0.48478 0.0
C619 C 0.84525 0.26354 0.51064 0.0
C620 C 0.92051 0.2721 0.50198 0.0
C621 C 0.83766 0.21904 0.49356 0.0
C622 C 0.88678 0.29035 0.51457 0.0
N623 N 0.93317 0.16321 0.45841 0.0
C624 C 0.96436 0.14061 0.44969 0.0
C625 C 0.98666 0.23111 0.47895 0.0
C626 C 0.94369 0.20712 0.47337 0.0
C627 C 1.01871 0.20857 0.46887 0.0
C628 C 1.00749 0.16301 0.45446 0.0
H629 H 0.89256 0.32474 0.5279 0.0
H630 H 0.97099 0.33146 0.51951 0.0
H631 H 1.02898 0.2955 0.4994 0.0
O632 O 0.88673 0.13468 0.49349 0.0
O633 O 0.85182 0.18795 0.43342 0.0
O634 O 0.81096 0.16004 0.38752 0.0
O635 O 0.83243 0.08211 0.47234 0.0
O636 O 0.89514 0.11238 0.4086 0.0
O637 O 0.85658 0.12515 0.37169 0.0
O638 O 0.73554 0.0791 0.35263 0.0
O639 O 0.80573 1.03979 0.40538 0.0
O640 O 0.87421 0.0666 0.4223 0.0
O641 O 0.79309 0.08035 0.32856 0.0
O642 O 0.7556 0.11533 0.40901 0.0
O643 O 0.79093 0.12272 0.45489 0.0
C644 C 0.83327 0.19463 0.40961 0.0
C645 C 0.88874 0.06223 0.49485 0.0
C646 C 0.95828 1.04322 0.49056 0.0
C647 C 0.93769 0.99797 0.48441 0.0
C648 C 0.86865 1.01691 0.48935 0.0
C649 C 0.89313 0.98506 0.48462 0.0
C650 C 0.93365 0.07499 0.49704 0.0
C651 C 0.89315 0.12903 0.38555 0.0
C652 C 0.86397 0.09533 0.49312 0.0
C653 C 0.96315 0.29681 0.50657 0.0
C654 C 0.99617 0.27634 0.49509 0.0
C655 C 0.8428 1.03116 0.41169 0.0
C656 C 0.72889 1.03789 0.30069 0.0
C657 C 0.67022 1.01092 0.26159 0.0
C658 C 0.68859 0.97528 0.24753 0.0
C659 C 0.7472 1.00284 0.2857 0.0
C660 C 0.68977 1.04075 0.28914 0.0
C661 C 0.72646 0.97104 0.25983 0.0
C662 C 0.75639 0.12186 0.43866 0.0
C663 C 0.75192 0.07454 0.32621 0.0
H664 H 0.95595 0.97273 0.47916 0.0
H665 H 0.83413 1.00599 0.48743 0.0
H666 H 0.8774 0.95011 0.47975 0.0
H667 H 0.94974 0.10979 0.5014 0.0
H668 H 0.67528 0.95195 0.22612 0.0
H669 H 0.77813 1.00066 0.29317 0.0
H670 H 0.67587 0.06781 0.30097 0.0
H671 H 0.74092 0.94425 0.24838 0.0
H672 H 0.9102 0.20312 0.36653 0.0
H673 H 0.9608 0.09059 0.36892 0.0
H674 H 0.96075 0.22064 0.32926 0.0
H675 H 1.01088 0.107 0.33034 0.0
H676 H 0.1086 0.16649 0.26738 0.0
H677 H 0.07126 0.15709 0.31304 0.0
H678 H 0.9592 0.18238 0.27609 0.0
H679 H 0.99613 0.19168 0.23094 0.0
C680 C 0.933 0.18277 0.35953 0.0
C681 C 0.93153 0.1454 0.37034 0.0
C682 C 0.96162 0.19243 0.3379 0.0
C683 C 0.98895 0.16441 0.32606 0.0
C684 C 0.99015 0.12917 0.33889 0.0
C685 C 0.9617 0.11986 0.36108 0.0
C686 C 0.07591 0.16984 0.26903 0.0
C687 C 1.05552 0.18033 0.2456 0.0
C688 C 1.05458 0.16452 0.29521 0.0
C689 C 1.01248 0.16972 0.29852 0.0
C690 C 0.99203 0.17944 0.2748 0.0
C691 C 1.01322 0.18472 0.24879 0.0
H692 H 0.55378 0.21695 0.74121 0.0
H693 H 0.67244 0.22403 0.69641 0.0
H694 H 0.59193 0.23324 0.78993 0.0
H695 H 0.71175 0.24316 0.74568 0.0
H696 H 0.73405 0.16946 0.8179 0.0
H697 H 0.71989 0.19829 0.77615 0.0
H698 H 0.63824 0.27317 0.83185 0.0
H699 H 0.65051 0.24129 0.87315 0.0
C700 C 0.58835 0.22345 0.74206 0.0
C701 C 0.61023 0.21829 0.71521 0.0
C702 C 0.61048 0.23346 0.77009 0.0
C703 C 0.65515 0.2391 0.77192 0.0
C704 C 0.67731 0.23795 0.74511 0.0
C705 C 0.65495 0.22695 0.71692 0.0
C706 C 0.71413 0.1932 0.82148 0.0
C707 C 0.69189 0.20174 0.84808 0.0
C708 C 0.70623 0.21024 0.79757 0.0
C709 C 0.67632 0.23663 0.80009 0.0
C710 C 0.66004 0.25139 0.82874 0.0
C711 C 0.66743 0.23363 0.85256 0.0
H712 H 0.82304 0.50261 0.33725 0.0
H713 H 0.79132 0.62346 0.33087 0.0
H714 H 0.7825 0.46221 0.28847 0.0
H715 H 0.74938 0.58285 0.28287 0.0
H716 H 0.64072 0.47347 0.21509 0.0
H717 H 0.67925 0.51221 0.26463 0.0
H718 H 0.7929 0.47234 0.22975 0.0
H719 H 0.75466 0.43485 0.17978 0.0
C720 C 0.8065 0.52027 0.32582 0.0
C721 C 0.80998 0.56617 0.33812 0.0
C722 C 0.78366 0.49726 0.29772 0.0
C723 C 0.7627 0.51928 0.28165 0.0
C724 C 0.76496 0.56482 0.29461 0.0
C725 C 0.78883 0.58806 0.32218 0.0
C726 C 0.67405 0.47332 0.21791 0.0
C727 C 0.69466 0.45141 0.19334 0.0
C728 C 0.69611 0.49548 0.24632 0.0
C729 C 0.73917 0.49533 0.25129 0.0
C730 C 0.75972 0.47295 0.22679 0.0
C731 C 0.73793 0.45182 0.19808 0.0
H732 H 0.17128 0.7344 0.70345 0.0
H733 H 1.0491 0.63921 0.69165 0.0
H734 H 0.15023 0.77658 0.75071 0.0
H735 H 1.02665 0.68459 0.73823 0.0
H736 H 1.00151 0.82611 0.79748 0.0
H737 H 1.01285 0.76323 0.75653 0.0
H738 H 0.13238 0.77071 0.80239 0.0
H739 H 0.12155 0.83379 0.84239 0.0
C740 C 0.14001 0.72208 0.71095 0.0
C741 C 0.11225 0.68276 0.69371 0.0
C742 C 0.12772 0.74674 0.73803 0.0
C743 C 0.08675 0.73389 0.7482 0.0
C744 C 1.05841 0.69524 0.73085 0.0
C745 C 0.07122 0.66956 0.70404 0.0
C746 C 1.02917 0.81285 0.79928 0.0
C747 C 1.06062 0.83437 0.8229 0.0
C748 C 1.03572 0.77699 0.77593 0.0
C749 C 0.07388 0.7627 0.77608 0.0
C750 C 0.10305 0.78155 0.80145 0.0
C751 C 0.09665 0.81731 0.82451 0.0
H752 H 0.34734 0.21883 0.66474 0.0
H753 H 0.26264 0.12716 0.59101 0.0
H754 H 0.29436 0.2042 0.70083 0.0
H755 H 0.20854 0.11242 0.62763 0.0
H756 H 0.15835 0.05828 0.71243 0.0
H757 H 0.20158 0.07536 0.67092 0.0
H758 H 0.22397 0.21557 0.71621 0.0
H759 H 0.18211 0.19861 0.75796 0.0
C760 C 0.31708 0.19589 0.65614 0.0
C761 C 0.30927 0.17426 0.62493 0.0
C762 C 0.28647 0.1877 0.6769 0.0
C763 C 0.24708 0.15725 0.66718 0.0
C764 C 0.23867 0.136 0.63584 0.0
C765 C 0.26941 0.14474 0.61484 0.0
C766 C 0.17249 0.09275 0.7135 0.0
C767 C 0.16704 0.12703 0.73875 0.0
C768 C 0.19678 0.10254 0.6895 0.0
C769 C 0.2164 0.14681 0.6903 0.0
C770 C 0.20964 0.18108 0.715 0.0
C771 C 0.18532 0.17134 0.73888 0.0
H772 H 0.5092 0.13674 0.17994 0.0
H773 H 0.57367 0.0586 0.11086 0.0
H774 H 0.5242 0.09648 0.21566 0.0
H775 H 0.58763 1.01768 0.14646 0.0
H776 H 0.60489 0.95192 0.22184 0.0
H777 H 0.55795 0.97053 0.18776 0.0
H778 H 0.60689 0.11007 0.23163 0.0
H779 H 0.65582 0.09267 0.26354 0.0
C780 C 0.52547 0.1101 0.17214 0.0
C781 C 0.54144 0.10166 0.14296 0.0
C782 C 0.53358 0.08683 0.19246 0.0
C783 C 0.55734 0.05443 0.18378 0.0
C784 C 0.56891 1.04233 0.15354 0.0
C785 C 0.56109 0.0659 0.13323 0.0
C786 C 0.60563 0.9866 0.22436 0.0
C787 C 0.6349 1.02066 0.24546 0.0
C788 C 0.57832 0.99705 0.20507 0.0
C789 C 0.57876 1.04161 0.20733 0.0
C790 C 0.60538 0.07536 0.22986 0.0
C791 C 0.63342 0.06513 0.24841 0.0
H792 H 0.58725 0.83481 0.77156 0.0
H793 H 0.47098 0.868 0.80642 0.0
H794 H 0.55039 0.79753 0.72137 0.0
H795 H 0.43429 0.83197 0.75583 0.0
H796 H 0.39879 0.8003 0.65039 0.0
H797 H 0.43782 0.84112 0.69968 0.0
H798 H 0.48852 0.7276 0.69915 0.0
H799 H 0.44843 0.68661 0.65065 0.0
C800 C 0.55374 0.83406 0.76851 0.0
C801 C 0.53204 0.854 0.79317 0.0
C802 C 0.53257 0.81269 0.73969 0.0
C803 C 0.48922 0.81156 0.73434 0.0
C804 C 0.46762 0.83215 0.75896 0.0
C805 C 0.48856 0.85249 0.78807 0.0
C806 C 0.41916 0.78456 0.66046 0.0
C807 C 0.42139 0.74055 0.64614 0.0
C808 C 0.44107 0.80771 0.68894 0.0
C809 C 0.46656 0.78781 0.70352 0.0
C810 C 0.46968 0.74427 0.68859 0.0
C811 C 0.44692 0.72081 0.66064 0.0
H812 H 0.18555 0.62954 0.31581 0.0
H813 H 0.06362 0.60949 0.26833 0.0
H814 H 0.21007 0.58558 0.27036 0.0
H815 H 0.08575 0.56086 0.22486 0.0
H816 H 0.12857 0.48954 0.14219 0.0
H817 H 0.1236 0.55325 0.18333 0.0
H818 H 0.20792 0.51645 0.2406 0.0
H819 H 0.21628 0.45555 0.19777 0.0
C820 C 0.16378 0.61579 0.29583 0.0
C821 C 0.12239 0.62345 0.29612 0.0
C822 C 0.17773 0.58976 0.26973 0.0
C823 C 0.15028 0.56956 0.24343 0.0
C824 C 0.1087 0.57672 0.24401 0.0
C825 C 0.09533 0.60385 0.26963 0.0
C826 C 0.14741 0.49625 0.16317 0.0
C827 C 0.17219 0.46737 0.16717 0.0
C828 C 0.1438 0.53226 0.18717 0.0
C829 C 0.16332 0.53891 0.21612 0.0
C830 C 0.19179 0.51249 0.21898 0.0
C831 C 0.19644 0.47723 0.19452 0.0
H832 H 0.16108 0.08297 0.92151 0.0
H833 H 1.02581 1.04682 0.9323 0.0
H834 H 0.16934 0.14548 0.96675 0.0
H835 H 1.03384 0.1065 0.97921 0.0
H836 H 1.05506 0.23924 0.05033 0.0
H837 H 1.04448 0.17842 0.00443 0.0
H838 H 0.17321 0.16511 0.01835 0.0
H839 H 0.18451 0.22926 0.06298 0.0
C840 C 0.13309 0.08878 0.93372 0.0
C841 C 0.09286 0.06056 0.92365 0.0
C842 C 0.1378 0.1241 0.96 0.0
C843 C 0.10251 0.13105 0.97745 0.0
C844 C 1.06187 0.10319 0.96649 0.0
C845 C 1.05706 0.06874 0.9396 0.0
C846 C 0.08114 0.22334 0.04337 0.0
C847 C 0.12101 0.23975 0.05949 0.0
C848 C 0.07493 0.18783 0.01717 0.0
C849 C 0.10821 0.1669 0.00682 0.0
C850 C 0.14723 0.18131 0.02461 0.0
C851 C 0.15362 0.21755 0.05059 0.0
H852 H 0.55513 0.18242 0.56555 0.0
H853 H 0.48345 0.11846 0.47963 0.0
H854 H 0.62058 0.17238 0.54187 0.0
H855 H 0.54983 0.10673 0.45566 0.0
H856 H 0.68126 0.12921 0.4136 0.0
H857 H 0.61413 0.13581 0.43686 0.0
H858 H 0.66783 0.13045 0.52191 0.0
H859 H 0.73567 0.12536 0.49867 0.0
C860 C 0.5529 0.16546 0.54151 0.0
C861 C 0.51289 0.15133 0.52483 0.0
C862 C 0.59118 0.15936 0.52775 0.0
C863 C 0.59187 0.13855 0.49643 0.0
C864 C 0.5517 0.12355 0.47968 0.0
C865 C 0.51306 0.12983 0.49356 0.0
C866 C 0.6791 0.12962 0.43736 0.0
C867 C 0.7149 0.12695 0.45403 0.0
C868 C 0.63987 0.133 0.4508 0.0
C869 C 0.6342 0.13373 0.48166 0.0
C870 C 0.67009 0.13089 0.49832 0.0
C871 C 0.7095 0.12772 0.48487 0.0
H872 H 0.56793 0.63222 0.91013 0.0
H873 H 0.59742 0.76214 0.97469 0.0
H874 H 0.58527 0.59955 0.94933 0.0
H875 H 0.61847 0.73003 0.01314 0.0
H876 H 0.61247 0.6558 0.08582 0.0
H877 H 0.59365 0.68818 0.04655 0.0
H878 H 0.63864 0.58921 0.97831 0.0
H879 H 0.65534 0.55579 0.01764 0.0
C880 C 0.57822 0.65402 0.93263 0.0
C881 C 0.58088 0.70004 0.93898 0.0
C882 C 0.58898 0.63523 0.95515 0.0
C883 C 0.60346 0.66188 0.98472 0.0
C884 C 0.60681 0.70802 -0.00906 0.0
C885 C 0.59541 0.72672 0.96854 0.0
C886 C 0.61833 0.64107 0.06239 0.0
C887 C 0.63532 0.6032 0.05483 0.0
C888 C 0.60779 0.6598 0.03977 0.0
C889 C 0.61462 0.64166 0.00895 0.0
C890 C 0.63198 0.60383 0.00154 0.0
C891 C 0.64183 0.58468 0.02413 0.0
H892 H 0.17657 0.66315 0.57375 0.0
H893 H 0.24223 0.69652 0.49762 0.0
H894 H 0.10826 0.65122 0.54717 0.0
H895 H 0.17345 0.68259 0.46992 0.0
H896 H 1.04326 0.68962 0.43432 0.0
H897 H 0.11164 0.70261 0.46122 0.0
H898 H 1.05505 0.60895 0.51142 0.0
H899 H 0.98576 0.59725 0.48488 0.0
C900 C 0.17666 0.66753 0.55108 0.0
C901 C 0.21585 0.68049 0.53809 0.0
C902 C 0.13684 0.66026 0.53547 0.0
C903 C 0.13389 0.66521 0.50575 0.0
C904 C 0.17325 0.67866 0.49275 0.0
C905 C 0.2133 0.68643 0.50866 0.0
C906 C 1.04504 0.67168 0.45112 0.0
C907 C 1.00812 0.64218 0.45711 0.0
C908 C 0.085 0.67896 0.46661 0.0
C909 C 0.09033 0.65697 0.4889 0.0
C910 C 1.05319 0.62744 0.49497 0.0
C911 C 1.01298 0.62034 0.4795 0.0
H912 H 0.6504 1.03629 0.95685 0.0
H913 H 0.53538 0.06116 0.9246 0.0
H914 H 0.66226 0.10584 -0.00337 0.0
H915 H 0.5451 0.12927 0.96555 0.0
H916 H 0.58914 0.27027 0.02327 0.0
H917 H 0.57862 0.20089 0.98397 0.0
H918 H 0.64918 0.14976 0.04128 0.0
H919 H 0.66378 0.22136 0.07884 0.0
C920 C 0.62686 0.056 0.95885 0.0
C921 C 0.59192 1.04298 0.93747 0.0
C922 C 0.63362 0.0963 0.98184 0.0
C923 C 0.60496 0.12441 0.98477 0.0
C924 C 0.56897 0.11004 0.96394 0.0
C925 C 0.56293 0.07039 0.94049 0.0
C926 C 0.60376 0.24497 0.02708 0.0
C927 C 0.62857 0.25259 0.05404 0.0
C928 C 0.59668 0.20412 0.00468 0.0
C929 C 0.61288 0.16857 0.00885 0.0
C930 C 0.6369 0.17599 0.03631 0.0
C931 C 0.645 0.21735 0.05827 0.0
H932 H 0.58197 0.786 0.47444 0.0
H933 H 0.46773 0.69625 0.42571 0.0
H934 H 0.62503 0.75252 0.43582 0.0
H935 H 0.51099 0.6627 0.38634 0.0
H936 H 0.70331 0.67798 0.38227 0.0
H937 H 0.65186 0.72445 0.38733 0.0
H938 H 0.55176 0.61349 0.3962 0.0
H939 H 0.60276 0.56748 0.39067 0.0
C940 C 0.56589 0.76052 0.45465 0.0
C941 C 0.52173 0.74269 0.45351 0.0
C942 C 0.59062 0.74128 0.43227 0.0
C943 C 0.57152 0.70391 0.4084 0.0
C944 C 0.5267 0.69064 0.40491 0.0
C945 C 0.50196 0.70976 0.42743 0.0
C946 C 0.66994 0.66331 0.38424 0.0
C947 C 0.65709 0.61966 0.38704 0.0
C948 C 0.64051 0.68983 0.38706 0.0
C949 C 0.59797 0.67315 0.39307 0.0
C950 C 0.5842 0.62762 0.39158 0.0
C951 C 0.61355 0.6011 0.38857 0.0
H952 H 0.08989 0.77457 0.00113 0.0
H953 H 0.18599 0.72692 0.94457 0.0
H954 H 0.07407 0.7069 0.01811 0.0
H955 H 0.16863 0.65777 0.95975 0.0
H956 H 0.15705 0.55496 0.01174 0.0
H957 H 0.17429 0.6247 -0.00189 0.0
H958 H 1.04206 0.6321 0.00492 0.0
H959 H 1.02575 0.56475 0.02165 0.0
C960 C 0.10723 0.74917 -0.00791 0.0
C961 C 0.13915 0.7558 0.97164 0.0
C962 C 0.09802 0.71016 0.0016 0.0
C963 C 0.11991 0.67638 0.99034 0.0
C964 C 0.15165 0.68316 0.96954 0.0
C965 C 0.16147 0.72263 0.96058 0.0
C966 C 0.13173 0.57186 0.01108 0.0
C967 C 0.08993 0.55388 0.01803 0.0
C968 C 0.14151 0.61168 0.00259 0.0
C969 C 0.10963 0.63434 0.00012 0.0
C970 C 0.06778 0.61626 0.00695 0.0
C971 C 1.05818 0.57692 0.01606 0.0
H972 H 0.22336 0.09866 0.43757 0.0
H973 H 0.1929 0.22551 0.4766 0.0
H974 H 0.15213 0.06047 0.44717 0.0
H975 H 0.12105 0.18729 0.48491 0.0
H976 H 1.01655 0.11003 0.52933 0.0
H977 H 0.08918 0.14359 0.51904 0.0
H978 H 0.07642 1.04551 0.43201 0.0
H979 H 1.00381 1.01167 0.44259 0.0
C980 C 0.20127 0.11842 0.44782 0.0
C981 C 0.21397 0.16521 0.45643 0.0
C982 C 0.16033 0.09648 0.45311 0.0
C983 C 0.13107 0.12079 0.46715 0.0
C984 C 0.14313 0.16755 0.47461 0.0
C985 C 0.1841 0.1895 0.46934 0.0
C986 C 1.0296 0.09524 0.50824 0.0
C987 C 1.00463 0.05817 0.48681 0.0
C988 C 0.071 0.1147 0.50219 0.0
C989 C 0.08835 0.09769 0.47448 0.0
C990 C 0.0641 0.0593 0.45364 0.0
C991 C 1.02262 1.03972 0.45975 0.0
H992 H 1.00055 0.35337 0.16304 0.0
H993 H 0.99945 0.35729 0.06961 0.0
H994 H 0.92506 0.35487 0.16455 0.0
H995 H 0.92398 0.35806 0.07065 0.0
H996 H 0.78936 0.38549 0.08075 0.0
H997 H 0.86487 0.38533 0.08017 0.0
H998 H 0.85246 0.3301 0.15725 0.0
H999 H 0.77698 0.33222 0.15835 0.0
C1000 C 0.98451 0.35447 0.14256 0.0
C1001 C 1.00804 0.35566 0.11624 0.0
C1002 C 0.94014 0.35509 0.14335 0.0
C1003 C 0.91597 0.35674 0.11779 0.0
C1004 C 0.93971 0.35767 0.09141 0.0
C1005 C 0.98408 0.35717 0.0907 0.0
C1006 C 0.80241 0.37352 0.09785 0.0
C1007 C 0.77528 0.35894 0.11961 0.0
C1008 C 0.84669 0.3729 0.09735 0.0
C1009 C 0.86722 0.35747 0.11855 0.0
C1010 C 0.83988 0.34285 0.14039 0.0
C1011 C 0.79549 0.34359 0.1409 0.0
H1012 H 0.32927 1.04048 0.56043 0.0
H1013 H 0.45279 0.06793 0.6061 0.0
H1014 H 0.31329 0.96449 0.56592 0.0
H1015 H 0.43724 0.99098 0.61093 0.0
H1016 H 0.41193 0.83206 0.58419 0.0
H1017 H 0.42733 0.91006 0.58324 0.0
H1018 H 0.29623 0.91244 0.59986 0.0
H1019 H 0.28115 0.83403 0.60178 0.0
C1020 C 0.35352 1.03064 0.57159 0.0
C1021 C 0.39282 0.06223 0.58252 0.0
C1022 C 0.34399 0.98621 0.57501 0.0
C1023 C 0.37348 0.96939 0.58895 0.0
C1024 C 0.413 1.00095 0.59985 0.0
C1025 C 0.4221 1.04601 0.59718 0.0
C1026 C 0.38611 0.84894 0.58817 0.0
C1027 C 0.34507 0.82489 0.59349 0.0
C1028 C 0.39518 0.89468 0.58762 0.0
C1029 C 0.36353 0.91976 0.59135 0.0
C1030 C 0.32223 0.89577 0.59667 0.0
C1031 C 0.31341 0.85008 0.5981 0.0
H1032 H 0.44992 0.97288 0.82945 0.0
H1033 H 0.43423 0.91501 0.90492 0.0
H1034 H 0.37454 0.97552 0.82984 0.0
H1035 H 0.35887 0.91569 0.90475 0.0
H1036 H 0.22577 0.94596 0.91539 0.0
H1037 H 0.30078 0.9444 0.9146 0.0
H1038 H 0.3016 0.95111 0.82144 0.0
H1039 H 0.2261 0.95323 0.82269 0.0
C1040 C 0.43068 0.96051 0.84625 0.0
C1041 C 0.44989 0.94366 0.86715 0.0
C1042 C 0.38638 0.96161 0.84634 0.0
C1043 C 0.35821 0.94594 0.86739 0.0
C1044 C 0.37775 0.92901 0.8882 0.0
C1045 C 0.42192 0.92802 0.8881 0.0
C1046 C 0.24129 0.94653 0.89446 0.0
C1047 C 0.21779 0.94915 0.86907 0.0
C1048 C 0.28549 0.94563 0.89391 0.0
C1049 C 0.30964 0.94725 0.86784 0.0
C1050 C 0.28608 0.95019 0.84241 0.0
C1051 C 0.24176 0.95122 0.84304 0.0
H1052 H 0.89955 0.26919 0.43625 0.0
H1053 H 0.78807 0.23496 0.37559 0.0
H1054 H 0.91494 0.34578 0.43191 0.0
H1055 H 0.8029 0.31214 0.3717 0.0
H1056 H 0.81714 0.46799 0.39397 0.0
H1057 H 0.80387 0.39045 0.39549 0.0
H1058 H 0.9393 0.40156 0.40237 0.0
H1059 H 0.95262 0.47972 0.40004 0.0
C1060 C 0.8777 0.27759 0.42207 0.0
C1061 C 0.84188 0.24384 0.40664 0.0
C1062 C 0.88698 0.32246 0.41931 0.0
C1063 C 0.86063 0.33753 0.40139 0.0
C1064 C 0.82457 0.30379 0.38606 0.0
C1065 C 0.81586 0.25852 0.38825 0.0
C1066 C 0.8446 0.45431 0.39543 0.0
C1067 C 0.88631 0.48216 0.39658 0.0
C1068 C 0.83675 0.40873 0.39629 0.0
C1069 C 0.87 0.38737 0.39919 0.0
C1070 C 0.91198 0.41517 0.40035 0.0
C1071 C 0.91989 0.46079 0.39871 0.0
H1072 H 0.28151 0.34103 0.0693 0.0
H1073 H 0.28551 0.3686 0.16669 0.0
H1074 H 0.35792 0.3444 0.06978 0.0
H1075 H 0.36209 0.3722 0.16766 0.0
H1076 H 0.5021 0.35735 0.16542 0.0
H1077 H 0.42555 0.35345 0.16477 0.0
H1078 H 0.42953 0.36977 0.07384 0.0
H1079 H 0.50594 0.37234 0.0745 0.0
C1080 C 0.29862 0.34881 0.09109 0.0
C1081 C 0.2757 0.35543 0.11792 0.0
C1082 C 0.34354 0.35057 0.09148 0.0
C1083 C 0.36903 0.35905 0.11881 0.0
C1084 C 0.34568 0.36516 0.14569 0.0
C1085 C 0.30068 0.36321 0.14522 0.0
C1086 C 0.48695 0.36015 0.14513 0.0
C1087 C 0.51203 0.36526 0.12005 0.0
C1088 C 0.44196 0.35811 0.14474 0.0
C1089 C 0.41861 0.36122 0.11924 0.0
C1090 C 0.44406 0.36646 0.09415 0.0
C1091 C 0.48903 0.36829 0.09453 0.0
H1092 H 0.37507 0.31319 0.52916 0.0
H1093 H 0.37836 0.34257 0.62667 0.0
H1094 H 0.36574 0.38778 0.53208 0.0
H1095 H 0.37003 0.41767 0.62992 0.0
H1096 H 0.32981 0.55042 0.63138 0.0
H1097 H 0.33867 0.47556 0.62898 0.0
H1098 H 0.38193 0.46304 0.53827 0.0
H1099 H 0.37253 0.5373 0.54074 0.0
C1100 C 0.37394 0.33531 0.55148 0.0
C1101 C 0.37782 0.31976 0.57758 0.0
C1102 C 0.36878 0.3794 0.55329 0.0
C1103 C 0.36692 0.41164 0.58138 0.0
C1104 C 0.37061 0.39576 0.60749 0.0
C1105 C 0.37583 0.35165 0.60564 0.0
C1106 C 0.34138 0.53208 0.6108 0.0
C1107 C 0.35036 0.55216 0.58638 0.0
C1108 C 0.34676 0.48806 0.60936 0.0
C1109 C 0.36129 0.46042 0.58329 0.0
C1110 C 0.37022 0.48083 0.55895 0.0
C1111 C 0.36502 0.52478 0.56045 0.0
H1112 H 0.71705 0.91734 0.90904 0.0
H1113 H 0.72495 0.9554 0.8252 0.0
H1114 H 0.79388 0.92037 0.90959 0.0
H1115 H 0.80174 0.95864 0.82568 0.0
H1116 H 0.95048 0.99652 0.84513 0.0
H1117 H 0.87381 0.99284 0.844 0.0
H1118 H 0.85416 0.89169 0.8921 0.0
H1119 H 0.93053 0.89422 0.89191 0.0
C1120 C 0.73484 0.92635 0.89052 0.0
C1121 C 0.713 0.93593 0.86703 0.0
C1122 C 0.77976 0.92793 0.89073 0.0
C1123 C 0.8062 0.93984 0.86768 0.0
C1124 C 0.78424 0.94971 0.8443 0.0
C1125 C 0.73923 0.94755 0.84389 0.0
C1126 C 0.93017 0.97275 0.85504 0.0
C1127 C 0.94889 0.94575 0.86859 0.0
C1128 C 0.88517 0.97073 0.85457 0.0
C1129 C 0.85555 0.94192 0.86801 0.0
C1130 C 0.87436 0.91511 0.88174 0.0
C1131 C 0.91927 0.91676 0.88182 0.0
H1132 H 0.83033 0.75233 0.43365 0.0
H1133 H 0.92797 0.76804 0.37024 0.0
H1134 H 0.81942 0.82636 0.43553 0.0
H1135 H 0.91796 0.84279 0.37276 0.0
H1136 H 0.91671 0.99703 0.40391 0.0
H1137 H 0.9267 0.92215 0.40055 0.0
H1138 H 0.79284 0.87763 0.41251 0.0
H1139 H 0.78291 0.95244 0.4153 0.0
C1140 C 0.8498 0.77117 0.41992 0.0
C1141 C 0.8802 0.75188 0.40161 0.0
C1142 C 0.84331 0.81463 0.42096 0.0
C1143 C 0.86749 0.84302 0.4044 0.0
C1144 C 0.89823 0.82386 0.38631 0.0
C1145 C 0.90398 0.77988 0.38468 0.0
C1146 C 0.889 0.97151 0.40569 0.0
C1147 C 0.84865 0.98277 0.40968 0.0
C1148 C 0.8948 0.9275 0.4036 0.0
C1149 C 0.8609 0.89136 0.40611 0.0
C1150 C 0.82059 0.90291 0.41051 0.0
C1151 C 0.81464 0.94672 0.41193 0.0
loop_
_geom_bond_atom_site_label_1
_geom_bond_atom_site_label_2
_geom_bond_distance
_geom_bond_site_symmetry_2
_ccdc_geom_bond_type
Tb0 N29 2.617 1_455 S
Tb0 N35 2.572 . S
Tb0 O44 2.465 . S
Tb0 O45 2.387 . S
Tb0 O47 2.428 . S
Tb0 O48 2.308 . S
Tb0 O52 2.349 . S
Tb0 O55 2.393 1_455 S
Tb0 C64 2.802 . S
C1 N2 1.379 . S
C1 C4 1.416 . S
C1 C8 1.424 . S
N2 C1 1.379 . S
N2 C5 1.334 . S
N2 Tb11 2.617 . S
C3 C5 1.390 . S
C3 C6 1.339 . S
C3 H23 0.930 . S
C4 C1 1.416 . S
C4 C6 1.416 . S
C4 C10 1.448 . S
C5 N2 1.334 . S
C5 C3 1.390 . S
C5 H16 0.930 . S
C6 C3 1.339 . S
C6 C4 1.416 . S
C6 H27 0.930 . S
C7 C8 1.413 . S
C7 C9 1.427 . S
C7 C13 1.416 1_455 S
C8 C1 1.424 . S
C8 C7 1.413 . S
C8 N12 1.361 . S
C9 C7 1.427 . S
C9 C10 1.328 . S
C9 H24 0.929 . S
C10 C4 1.448 . S
C10 C9 1.328 . S
C10 H25 0.930 . S
Tb11 N2 2.617 . S
Tb11 N12 2.572 . S
Tb11 O46 2.349 . S
Tb11 O49 2.393 . S
Tb11 O50 2.465 1_455 S
Tb11 O51 2.387 . S
Tb11 O53 2.428 . S
Tb11 O54 2.308 1_455 S
Tb11 C75 2.802 . S
N12 C8 1.361 . S
N12 Tb11 2.572 . S
N12 C14 1.340 1_455 S
C13 C7 1.416 1_655 S
C13 C15 1.332 . S
C13 H21 0.931 . S
C14 N12 1.340 1_655 S
C14 C15 1.407 . S
C14 H20 0.930 . S
C15 C13 1.332 . S
C15 C14 1.407 . S
C15 H17 0.929 . S
H16 C5 0.930 . S
H17 C15 0.929 . S
H18 C33 0.930 . S
H19 C40 0.929 . S
H20 C14 0.930 . S
H21 C13 0.931 . S
H22 C36 0.930 . S
H23 C3 0.930 . S
H24 C9 0.929 . S
H25 C10 0.930 . S
H26 C31 0.930 . S
H27 C6 0.930 . S
H28 C39 0.931 . S
N29 Tb0 2.617 1_655 S
N29 C30 1.379 1_654 S
N29 C33 1.334 . S
C30 N29 1.379 1_456 S
C30 C32 1.416 1_455 S
C30 C38 1.424 . S
C31 H26 0.930 . S
C31 C33 1.390 1_556 S
C31 C34 1.339 . S
C32 C30 1.416 1_655 S
C32 C34 1.416 . S
C32 C65 1.457 . S
C33 H18 0.930 . S
C33 N29 1.334 . S
C33 C31 1.390 1_554 S
C34 C31 1.339 . S
C34 C32 1.416 . S
C34 H41 0.930 . S
N35 Tb0 2.572 . S
N35 C36 1.340 . S
N35 C38 1.361 1_554 S
C36 H22 0.930 . S
C36 N35 1.340 . S
C36 C40 1.407 1_554 S
C37 C38 1.413 . S
C37 C39 1.416 . S
C37 C66 1.427 . S
C38 C30 1.424 . S
C38 N35 1.361 1_556 S
C38 C37 1.413 . S
C39 H28 0.931 . S
C39 C37 1.416 . S
C39 C40 1.332 . S
C40 H19 0.929 . S
C40 C36 1.407 1_556 S
C40 C39 1.332 . S
H41 C34 0.930 . S
H42 C65 0.938 . S
H43 C66 0.929 . S
O44 Tb0 2.465 . S
O44 C64 1.264 . S
O45 Tb0 2.387 . S
O45 C56 1.264 . S
O46 Tb11 2.349 . S
O46 C56 1.243 . S
O47 Tb0 2.428 . S
O47 C64 1.256 . S
O48 Tb0 2.308 . S
O48 C63 1.266 . S
O49 Tb11 2.393 . S
O49 C63 1.248 . S
O50 Tb11 2.465 1_655 S
O50 C75 1.264 1_655 S
O51 Tb11 2.387 . S
O51 C67 1.264 . S
O52 Tb0 2.349 . S
O52 C67 1.243 . S
O53 Tb11 2.428 . S
O53 C75 1.256 . S
O54 Tb11 2.308 1_655 S
O54 C74 1.266 . S
O55 Tb0 2.393 1_655 S
O55 C74 1.248 . S
C56 O45 1.264 . S
C56 O46 1.243 . S
C57 C60 1.399 . S
C57 C62 1.383 . S
C57 C64 1.496 . S
C58 C59 1.399 . S
C58 C62 1.389 . S
C59 C58 1.399 . S
C59 C61 1.380 . S
C59 H76 0.929 . S
C60 C57 1.399 . S
C60 C61 1.392 . S
C60 H77 0.929 . S
C61 C59 1.380 . S
C61 C60 1.392 . S
C61 H78 0.929 . S
C62 C57 1.383 . S
C62 C58 1.389 . S
C62 H79 0.931 . S
C63 O48 1.266 . S
C63 O49 1.248 . S
C64 Tb0 2.802 . S
C64 O44 1.264 . S
C64 O47 1.256 . S
C64 C57 1.496 . S
C65 C32 1.457 . S
C65 H42 0.938 . S
C65 C66 1.312 1_655 S
C66 C37 1.427 . S
C66 H43 0.929 . S
C66 C65 1.312 1_455 S
C67 O51 1.264 . S
C67 O52 1.243 . S
C68 C71 1.399 . S
C68 C72 1.383 1_455 S
C68 C75 1.496 . S
C69 C70 1.399 . S
C69 C72 1.389 . S
C70 C69 1.399 . S
C70 C73 1.380 1_655 S
C70 H80 0.929 . S
C71 C68 1.399 . S
C71 C73 1.392 . S
C71 H81 0.929 . S
C72 C68 1.383 1_655 S
C72 C69 1.389 . S
C72 H82 0.931 . S
C73 C70 1.380 1_455 S
C73 C71 1.392 . S
C73 H83 0.929 . S
C74 O54 1.266 . S
C74 O55 1.248 . S
C75 Tb11 2.802 . S
C75 O50 1.264 1_455 S
C75 O53 1.256 . S
C75 C68 1.496 . S
H76 C59 0.929 . S
H77 C60 0.929 . S
H78 C61 0.929 . S
H79 C62 0.931 . S
H80 C70 0.929 . S
H81 C71 0.929 . S
H82 C72 0.931 . S
H83 C73 0.929 . S
Tb84 N113 2.617 . S
Tb84 N119 2.572 . S
Tb84 O128 2.465 . S
Tb84 O129 2.387 . S
Tb84 O131 2.428 . S
Tb84 O132 2.308 . S
Tb84 O136 2.349 . S
Tb84 O139 2.393 . S
Tb84 C148 2.802 . S
C85 N86 1.379 . S
C85 C88 1.416 . S
C85 C92 1.424 . S
N86 C85 1.379 . S
N86 C89 1.334 . S
N86 Tb95 2.617 . S
C87 C89 1.390 . S
C87 C90 1.339 . S
C87 H107 0.930 . S
C88 C85 1.416 . S
C88 C90 1.416 . S
C88 C94 1.448 1_545 S
C89 N86 1.334 . S
C89 C87 1.390 . S
C89 H100 0.930 . S
C90 C87 1.339 . S
C90 C88 1.416 . S
C90 H111 0.930 . S
C91 C92 1.413 1_565 S
C91 C93 1.427 . S
C91 C97 1.416 . S
C92 C85 1.424 . S
C92 C91 1.413 1_545 S
C92 N96 1.361 . S
C93 C91 1.427 . S
C93 C94 1.328 . S
C93 H108 0.929 . S
C94 C88 1.448 1_565 S
C94 C93 1.328 . S
C94 H109 0.930 . S
Tb95 N86 2.617 . S
Tb95 N96 2.572 . S
Tb95 O130 2.349 . S
Tb95 O133 2.393 . S
Tb95 O134 2.465 . S
Tb95 O135 2.387 . S
Tb95 O137 2.428 . S
Tb95 O138 2.308 . S
Tb95 C159 2.802 . S
N96 C92 1.361 . S
N96 Tb95 2.572 . S
N96 C98 1.340 . S
C97 C91 1.416 . S
C97 C99 1.332 1_565 S
C97 H105 0.931 . S
C98 N96 1.340 . S
C98 C99 1.407 . S
C98 H104 0.930 . S
C99 C97 1.332 1_545 S
C99 C98 1.407 . S
C99 H101 0.929 . S
H100 C89 0.930 . S
H101 C99 0.929 . S
H102 C117 0.930 . S
H103 C124 0.929 . S
H104 C98 0.930 . S
H105 C97 0.931 . S
H106 C120 0.930 . S
H107 C87 0.930 . S
H108 C93 0.929 . S
H109 C94 0.930 . S
H110 C115 0.930 . S
H111 C90 0.930 . S
H112 C123 0.931 . S
N113 Tb84 2.617 . S
N113 C114 1.379 . S
N113 C117 1.334 . S
C114 N113 1.379 . S
C114 C116 1.416 . S
C114 C122 1.424 . S
C115 H110 0.930 . S
C115 C117 1.390 . S
C115 C118 1.339 . S
C116 C114 1.416 . S
C116 C118 1.416 . S
C116 C149 1.448 . S
C117 H102 0.930 . S
C117 N113 1.334 . S
C117 C115 1.390 . S
C118 C115 1.339 . S
C118 C116 1.416 . S
C118 H125 0.930 . S
N119 Tb84 2.572 . S
N119 C120 1.340 . S
N119 C122 1.361 . S
C120 H106 0.930 . S
C120 N119 1.340 . S
C120 C124 1.407 . S
C121 C122 1.413 . S
C121 C123 1.416 . S
C121 C150 1.427 . S
C122 C114 1.424 . S
C122 N119 1.361 . S
C122 C121 1.413 . S
C123 H112 0.931 . S
C123 C121 1.416 . S
C123 C124 1.332 . S
C124 H103 0.929 . S
C124 C120 1.407 . S
C124 C123 1.332 . S
H125 C118 0.930 . S
H126 C149 0.930 . S
H127 C150 0.929 . S
O128 Tb84 2.465 . S
O128 C148 1.264 . S
O129 Tb84 2.387 . S
O129 C140 1.264 . S
O130 Tb95 2.349 . S
O130 C140 1.243 . S
O131 Tb84 2.428 . S
O131 C148 1.256 . S
O132 Tb84 2.308 . S
O132 C147 1.266 . S
O133 Tb95 2.393 . S
O133 C147 1.248 . S
O134 Tb95 2.465 . S
O134 C159 1.264 . S
O135 Tb95 2.387 . S
O135 C151 1.264 . S
O136 Tb84 2.349 . S
O136 C151 1.243 . S
O137 Tb95 2.428 . S
O137 C159 1.256 . S
O138 Tb95 2.308 . S
O138 C158 1.266 . S
O139 Tb84 2.393 . S
O139 C158 1.248 . S
C140 O129 1.264 . S
C140 O130 1.243 . S
C141 C144 1.399 . S
C141 C146 1.383 . S
C141 C148 1.496 . S
C142 C143 1.399 . S
C142 C146 1.389 . S
C143 C142 1.399 . S
C143 C145 1.380 . S
C143 H160 0.929 . S
C144 C141 1.399 . S
C144 C145 1.392 . S
C144 H161 0.929 . S
C145 C143 1.380 . S
C145 C144 1.392 . S
C145 H162 0.929 . S
C146 C141 1.383 . S
C146 C142 1.389 . S
C146 H163 0.931 . S
C147 O132 1.266 . S
C147 O133 1.248 . S
C148 Tb84 2.802 . S
C148 O128 1.264 . S
C148 O131 1.256 . S
C148 C141 1.496 . S
C149 C116 1.448 . S
C149 H126 0.930 . S
C149 C150 1.328 . S
C150 C121 1.427 . S
C150 H127 0.929 . S
C150 C149 1.328 . S
C151 O135 1.264 . S
C151 O136 1.243 . S
C152 C155 1.399 . S
C152 C156 1.383 . S
C152 C159 1.496 . S
C153 C154 1.399 . S
C153 C156 1.389 . S
C154 C153 1.399 . S
C154 C157 1.380 . S
C154 H164 0.929 . S
C155 C152 1.399 . S
C155 C157 1.392 . S
C155 H165 0.929 . S
C156 C152 1.383 . S
C156 C153 1.389 . S
C156 H166 0.931 . S
C157 C154 1.380 . S
C157 C155 1.392 . S
C157 H167 0.929 . S
C158 O138 1.266 . S
C158 O139 1.248 . S
C159 Tb95 2.802 . S
C159 O134 1.264 . S
C159 O137 1.256 . S
C159 C152 1.496 . S
H160 C143 0.929 . S
H161 C144 0.929 . S
H162 C145 0.929 . S
H163 C146 0.931 . S
H164 C154 0.929 . S
H165 C155 0.929 . S
H166 C156 0.931 . S
H167 C157 0.929 . S
Tb168 N197 2.617 . S
Tb168 N203 2.572 . S
Tb168 O212 2.465 . S
Tb168 O213 2.387 . S
Tb168 O215 2.428 . S
Tb168 O216 2.308 . S
Tb168 O220 2.349 . S
Tb168 O223 2.393 . S
Tb168 C232 2.802 . S
C169 N170 1.379 . S
C169 C172 1.416 1_554 S
C169 C176 1.425 . S
N170 C169 1.379 . S
N170 C173 1.334 . S
N170 Tb179 2.617 . S
C171 C173 1.390 . S
C171 C174 1.339 1_554 S
C171 H191 0.930 . S
C172 C169 1.416 1_556 S
C172 C174 1.416 . S
C172 C178 1.448 . S
C173 N170 1.334 . S
C173 C171 1.390 . S
C173 H184 0.930 . S
C174 C171 1.339 1_556 S
C174 C172 1.416 . S
C174 H195 0.930 . S
C175 C176 1.387 1_556 S
C175 C177 1.427 . S
C175 C181 1.416 . S
C176 C169 1.425 . S
C176 C175 1.387 1_554 S
C176 N180 1.386 . S
C177 C175 1.427 . S
C177 C178 1.328 . S
C177 H192 0.929 . S
C178 C172 1.448 . S
C178 C177 1.328 . S
C178 H193 0.930 . S
Tb179 N170 2.617 . S
Tb179 N180 2.572 . S
Tb179 O214 2.349 . S
Tb179 O217 2.393 . S
Tb179 O218 2.465 . S
Tb179 O219 2.387 . S
Tb179 O221 2.428 . S
Tb179 O222 2.308 . S
Tb179 C243 2.802 . S
N180 C176 1.386 . S
N180 Tb179 2.572 . S
N180 C182 1.340 . S
C181 C175 1.416 . S
C181 C183 1.332 . S
C181 H189 0.931 . S
C182 N180 1.340 . S
C182 C183 1.407 1_554 S
C182 H188 0.930 . S
C183 C181 1.332 . S
C183 C182 1.407 1_556 S
C183 H185 0.929 . S
H184 C173 0.930 . S
H185 C183 0.929 . S
H186 C201 0.930 . S
H187 C208 0.929 . S
H188 C182 0.930 . S
H189 C181 0.931 . S
H190 C204 0.930 . S
H191 C171 0.930 . S
H192 C177 0.929 . S
H193 C178 0.930 . S
H194 C199 0.930 . S
H195 C174 0.930 . S
H196 C207 0.931 . S
N197 Tb168 2.617 . S
N197 C198 1.379 . S
N197 C201 1.334 . S
C198 N197 1.379 . S
C198 C200 1.416 . S
C198 C206 1.424 . S
C199 H194 0.930 . S
C199 C201 1.390 . S
C199 C202 1.339 . S
C200 C198 1.416 . S
C200 C202 1.416 . S
C200 C233 1.448 . S
C201 H186 0.930 . S
C201 N197 1.334 . S
C201 C199 1.390 . S
C202 C199 1.339 . S
C202 C200 1.416 . S
C202 H209 0.930 . S
N203 Tb168 2.572 . S
N203 C204 1.340 . S
N203 C206 1.361 . S
C204 H190 0.930 . S
C204 N203 1.340 . S
C204 C208 1.407 . S
C205 C206 1.413 . S
C205 C207 1.416 . S
C205 C234 1.427 . S
C206 C198 1.424 . S
C206 N203 1.361 . S
C206 C205 1.413 . S
C207 H196 0.931 . S
C207 C205 1.416 . S
C207 C208 1.332 . S
C208 H187 0.929 . S
C208 C204 1.407 . S
C208 C207 1.332 . S
H209 C202 0.930 . S
H210 C233 0.930 . S
H211 C234 0.929 . S
O212 Tb168 2.465 . S
O212 C232 1.264 . S
O213 Tb168 2.387 . S
O213 C224 1.264 . S
O214 Tb179 2.349 . S
O214 C224 1.243 . S
O215 Tb168 2.428 . S
O215 C232 1.256 . S
O216 Tb168 2.308 . S
O216 C231 1.266 . S
O217 Tb179 2.393 . S
O217 C231 1.248 . S
O218 Tb179 2.465 . S
O218 C243 1.264 . S
O219 Tb179 2.387 . S
O219 C235 1.264 . S
O220 Tb168 2.349 . S
O220 C235 1.243 . S
O221 Tb179 2.428 . S
O221 C243 1.256 . S
O222 Tb179 2.308 . S
O222 C242 1.266 . S
O223 Tb168 2.393 . S
O223 C242 1.248 . S
C224 O213 1.264 . S
C224 O214 1.243 . S
C225 C228 1.399 . S
C225 C230 1.383 . S
C225 C232 1.496 . S
C226 C227 1.399 . S
C226 C230 1.389 . S
C227 C226 1.399 . S
C227 C229 1.380 . S
C227 H244 0.929 . S
C228 C225 1.399 . S
C228 C229 1.392 . S
C228 H245 0.929 . S
C229 C227 1.380 . S
C229 C228 1.392 . S
C229 H246 0.929 . S
C230 C225 1.383 . S
C230 C226 1.389 . S
C230 H247 0.931 . S
C231 O216 1.266 . S
C231 O217 1.248 . S
C232 Tb168 2.802 . S
C232 O212 1.264 . S
C232 O215 1.256 . S
C232 C225 1.496 . S
C233 C200 1.448 . S
C233 H210 0.930 . S
C233 C234 1.328 . S
C234 C205 1.427 . S
C234 H211 0.929 . S
C234 C233 1.328 . S
C235 O219 1.264 . S
C235 O220 1.243 . S
C236 C239 1.399 . S
C236 C240 1.383 . S
C236 C243 1.496 . S
C237 C238 1.399 . S
C237 C240 1.389 . S
C238 C237 1.399 . S
C238 C241 1.380 . S
C238 H248 0.929 . S
C239 C236 1.399 . S
C239 C241 1.392 . S
C239 H249 0.929 . S
C240 C236 1.383 . S
C240 C237 1.389 . S
C240 H250 0.931 . S
C241 C238 1.380 . S
C241 C239 1.392 . S
C241 H251 0.929 . S
C242 O222 1.266 . S
C242 O223 1.248 . S
C243 Tb179 2.802 . S
C243 O218 1.264 . S
C243 O221 1.256 . S
C243 C236 1.496 . S
H244 C227 0.929 . S
H245 C228 0.929 . S
H246 C229 0.929 . S
H247 C230 0.931 . S
H248 C238 0.929 . S
H249 C239 0.929 . S
H250 C240 0.931 . S
H251 C241 0.929 . S
Tb252 N281 2.617 . S
Tb252 N287 2.572 . S
Tb252 O296 2.465 . S
Tb252 O297 2.387 . S
Tb252 O299 2.428 . S
Tb252 O300 2.308 . S
Tb252 O304 2.349 . S
Tb252 O307 2.393 . S
Tb252 C316 2.802 . S
C253 N254 1.379 . S
C253 C256 1.416 . S
C253 C260 1.424 . S
N254 C253 1.379 . S
N254 C257 1.334 . S
N254 Tb263 2.617 . S
C255 C257 1.390 . S
C255 C258 1.339 . S
C255 H275 0.930 . S
C256 C253 1.416 . S
C256 C258 1.416 . S
C256 C262 1.448 . S
C257 N254 1.334 . S
C257 C255 1.390 . S
C257 H268 0.930 . S
C258 C255 1.339 . S
C258 C256 1.416 . S
C258 H279 0.930 . S
C259 C260 1.413 . S
C259 C261 1.427 . S
C259 C265 1.416 . S
C260 C253 1.424 . S
C260 C259 1.413 . S
C260 N264 1.361 . S
C261 C259 1.427 . S
C261 C262 1.328 . S
C261 H276 0.929 . S
C262 C256 1.448 . S
C262 C261 1.328 . S
C262 H277 0.930 . S
Tb263 N254 2.617 . S
Tb263 N264 2.572 . S
Tb263 O298 2.349 . S
Tb263 O301 2.393 . S
Tb263 O302 2.465 . S
Tb263 O303 2.387 . S
Tb263 O305 2.428 . S
Tb263 O306 2.308 . S
Tb263 C327 2.802 . S
N264 C260 1.361 . S
N264 Tb263 2.572 . S
N264 C266 1.340 . S
C265 C259 1.416 . S
C265 C267 1.332 . S
C265 H273 0.931 . S
C266 N264 1.340 . S
C266 C267 1.407 . S
C266 H272 0.930 . S
C267 C265 1.332 . S
C267 C266 1.407 . S
C267 H269 0.929 . S
H268 C257 0.930 . S
H269 C267 0.929 . S
H270 C285 0.930 . S
H271 C292 0.929 . S
H272 C266 0.930 . S
H273 C265 0.931 . S
H274 C288 0.930 . S
H275 C255 0.930 . S
H276 C261 0.929 . S
H277 C262 0.930 . S
H278 C283 0.930 . S
H279 C258 0.930 . S
H280 C291 0.931 . S
N281 Tb252 2.617 . S
N281 C282 1.379 . S
N281 C285 1.334 . S
C282 N281 1.379 . S
C282 C284 1.416 . S
C282 C290 1.424 . S
C283 H278 0.930 . S
C283 C285 1.390 . S
C283 C286 1.339 . S
C284 C282 1.416 . S
C284 C286 1.416 . S
C284 C317 1.448 . S
C285 H270 0.930 . S
C285 N281 1.334 . S
C285 C283 1.390 . S
C286 C283 1.339 . S
C286 C284 1.416 . S
C286 H293 0.930 . S
N287 Tb252 2.572 . S
N287 C288 1.340 . S
N287 C290 1.361 . S
C288 H274 0.930 . S
C288 N287 1.340 . S
C288 C292 1.407 . S
C289 C290 1.413 . S
C289 C291 1.416 . S
C289 C318 1.427 . S
C290 C282 1.424 . S
C290 N287 1.361 . S
C290 C289 1.413 . S
C291 H280 0.931 . S
C291 C289 1.416 . S
C291 C292 1.332 . S
C292 H271 0.929 . S
C292 C288 1.407 . S
C292 C291 1.332 . S
H293 C286 0.930 . S
H294 C317 0.930 . S
H295 C318 0.929 . S
O296 Tb252 2.465 . S
O296 C316 1.264 . S
O297 Tb252 2.387 . S
O297 C308 1.264 . S
O298 Tb263 2.349 . S
O298 C308 1.243 . S
O299 Tb252 2.428 . S
O299 C316 1.256 . S
O300 Tb252 2.308 . S
O300 C315 1.266 . S
O301 Tb263 2.393 . S
O301 C315 1.248 . S
O302 Tb263 2.465 . S
O302 C327 1.264 . S
O303 Tb263 2.387 . S
O303 C319 1.264 . S
O304 Tb252 2.349 . S
O304 C319 1.243 . S
O305 Tb263 2.428 . S
O305 C327 1.256 . S
O306 Tb263 2.308 . S
O306 C326 1.266 . S
O307 Tb252 2.393 . S
O307 C326 1.248 . S
C308 O297 1.264 . S
C308 O298 1.243 . S
C309 C312 1.399 . S
C309 C314 1.383 . S
C309 C316 1.496 . S
C310 C311 1.399 . S
C310 C314 1.389 . S
C311 C310 1.399 . S
C311 C313 1.380 . S
C311 H328 0.929 . S
C312 C309 1.399 . S
C312 C313 1.392 . S
C312 H329 0.929 . S
C313 C311 1.380 . S
C313 C312 1.392 . S
C313 H330 0.929 . S
C314 C309 1.383 . S
C314 C310 1.389 . S
C314 H331 0.931 . S
C315 O300 1.266 . S
C315 O301 1.248 . S
C316 Tb252 2.802 . S
C316 O296 1.264 . S
C316 O299 1.256 . S
C316 C309 1.496 . S
C317 C284 1.448 . S
C317 H294 0.930 . S
C317 C318 1.328 . S
C318 C289 1.427 . S
C318 H295 0.929 . S
C318 C317 1.328 . S
C319 O303 1.264 . S
C319 O304 1.243 . S
C320 C323 1.399 . S
C320 C324 1.383 . S
C320 C327 1.496 . S
C321 C322 1.399 . S
C321 C324 1.389 . S
C322 C321 1.399 . S
C322 C325 1.380 . S
C322 H332 0.929 . S
C323 C320 1.399 . S
C323 C325 1.392 . S
C323 H333 0.929 . S
C324 C320 1.383 . S
C324 C321 1.389 . S
C324 H334 0.931 . S
C325 C322 1.380 . S
C325 C323 1.392 . S
C325 H335 0.929 . S
C326 O306 1.266 . S
C326 O307 1.248 . S
C327 Tb263 2.802 . S
C327 O302 1.264 . S
C327 O305 1.256 . S
C327 C320 1.496 . S
H328 C311 0.929 . S
H329 C312 0.929 . S
H330 C313 0.929 . S
H331 C314 0.931 . S
H332 C322 0.929 . S
H333 C323 0.929 . S
H334 C324 0.931 . S
H335 C325 0.929 . S
Tb336 N365 2.617 . S
Tb336 N371 2.572 . S
Tb336 O380 2.465 . S
Tb336 O381 2.387 . S
Tb336 O383 2.428 . S
Tb336 O384 2.308 . S
Tb336 O388 2.349 . S
Tb336 O391 2.393 . S
Tb336 C400 2.802 . S
C337 N338 1.379 . S
C337 C340 1.416 . S
C337 C344 1.424 . S
N338 C337 1.379 . S
N338 C341 1.334 . S
N338 Tb347 2.617 . S
C339 C341 1.390 . S
C339 C342 1.339 . S
C339 H359 0.930 . S
C340 C337 1.416 . S
C340 C342 1.416 . S
C340 C346 1.448 . S
C341 N338 1.334 . S
C341 C339 1.390 . S
C341 H352 0.930 . S
C342 C339 1.339 . S
C342 C340 1.416 . S
C342 H363 0.930 . S
C343 C344 1.413 . S
C343 C345 1.427 . S
C343 C349 1.416 . S
C344 C337 1.424 . S
C344 C343 1.413 . S
C344 N348 1.361 . S
C345 C343 1.427 . S
C345 C346 1.328 . S
C345 H360 0.929 . S
C346 C340 1.448 . S
C346 C345 1.328 . S
C346 H361 0.930 . S
Tb347 N338 2.617 . S
Tb347 N348 2.572 . S
Tb347 O382 2.349 . S
Tb347 O385 2.393 . S
Tb347 O386 2.465 . S
Tb347 O387 2.387 . S
Tb347 O389 2.428 . S
Tb347 O390 2.308 . S
Tb347 C411 2.802 . S
N348 C344 1.361 . S
N348 Tb347 2.572 . S
N348 C350 1.340 . S
C349 C343 1.416 . S
C349 C351 1.332 . S
C349 H357 0.931 . S
C350 N348 1.340 . S
C350 C351 1.407 . S
C350 H356 0.930 . S
C351 C349 1.332 . S
C351 C350 1.407 . S
C351 H353 0.929 . S
H352 C341 0.930 . S
H353 C351 0.929 . S
H354 C369 0.930 . S
H355 C376 0.929 . S
H356 C350 0.930 . S
H357 C349 0.931 . S
H358 C372 0.930 . S
H359 C339 0.930 . S
H360 C345 0.929 . S
H361 C346 0.930 . S
H362 C367 0.930 . S
H363 C342 0.930 . S
H364 C375 0.931 . S
N365 Tb336 2.617 . S
N365 C366 1.379 . S
N365 C369 1.334 . S
C366 N365 1.379 . S
C366 C368 1.416 1_556 S
C366 C374 1.425 . S
C367 H362 0.930 . S
C367 C369 1.390 . S
C367 C370 1.339 1_556 S
C368 C366 1.416 1_554 S
C368 C370 1.416 . S
C368 C401 1.448 . S
C369 H354 0.930 . S
C369 N365 1.334 . S
C369 C367 1.390 . S
C370 C367 1.339 1_554 S
C370 C368 1.416 . S
C370 H377 0.930 . S
N371 Tb336 2.572 . S
N371 C372 1.340 . S
N371 C374 1.386 . S
C372 H358 0.930 . S
C372 N371 1.340 . S
C372 C376 1.407 1_556 S
C373 C374 1.387 1_554 S
C373 C375 1.416 . S
C373 C402 1.427 . S
C374 C366 1.425 . S
C374 N371 1.386 . S
C374 C373 1.387 1_556 S
C375 H364 0.931 . S
C375 C373 1.416 . S
C375 C376 1.332 . S
C376 H355 0.929 . S
C376 C372 1.407 1_554 S
C376 C375 1.332 . S
H377 C370 0.930 . S
H378 C401 0.930 . S
H379 C402 0.929 . S
O380 Tb336 2.465 . S
O380 C400 1.264 . S
O381 Tb336 2.387 . S
O381 C392 1.264 . S
O382 Tb347 2.349 . S
O382 C392 1.243 . S
O383 Tb336 2.428 . S
O383 C400 1.256 . S
O384 Tb336 2.308 . S
O384 C399 1.266 . S
O385 Tb347 2.393 . S
O385 C399 1.248 . S
O386 Tb347 2.465 . S
O386 C411 1.264 . S
O387 Tb347 2.387 . S
O387 C403 1.264 . S
O388 Tb336 2.349 . S
O388 C403 1.243 . S
O389 Tb347 2.428 . S
O389 C411 1.256 . S
O390 Tb347 2.308 . S
O390 C410 1.266 . S
O391 Tb336 2.393 . S
O391 C410 1.248 . S
C392 O381 1.264 . S
C392 O382 1.243 . S
C393 C396 1.399 . S
C393 C398 1.383 . S
C393 C400 1.496 . S
C394 C395 1.399 . S
C394 C398 1.389 . S
C395 C394 1.399 . S
C395 C397 1.380 . S
C395 H412 0.929 . S
C396 C393 1.399 . S
C396 C397 1.392 . S
C396 H413 0.929 . S
C397 C395 1.380 . S
C397 C396 1.392 . S
C397 H414 0.929 . S
C398 C393 1.383 . S
C398 C394 1.389 . S
C398 H415 0.931 . S
C399 O384 1.266 . S
C399 O385 1.248 . S
C400 Tb336 2.802 . S
C400 O380 1.264 . S
C400 O383 1.256 . S
C400 C393 1.496 . S
C401 C368 1.448 . S
C401 H378 0.930 . S
C401 C402 1.328 . S
C402 C373 1.427 . S
C402 H379 0.929 . S
C402 C401 1.328 . S
C403 O387 1.264 . S
C403 O388 1.243 . S
C404 C407 1.399 . S
C404 C408 1.383 . S
C404 C411 1.496 1_545 S
C405 C406 1.399 . S
C405 C408 1.389 . S
C406 C405 1.399 . S
C406 C409 1.380 . S
C406 H416 0.929 . S
C407 C404 1.399 . S
C407 C409 1.392 . S
C407 H417 0.929 . S
C408 C404 1.383 . S
C408 C405 1.389 . S
C408 H418 0.931 . S
C409 C406 1.380 . S
C409 C407 1.392 . S
C409 H419 0.929 . S
C410 O390 1.266 . S
C410 O391 1.248 . S
C411 Tb347 2.802 . S
C411 O386 1.264 . S
C411 O389 1.256 . S
C411 C404 1.496 1_565 S
H412 C395 0.929 . S
H413 C396 0.929 . S
H414 C397 0.929 . S
H415 C398 0.931 . S
H416 C406 0.929 . S
H417 C407 0.929 . S
H418 C408 0.931 . S
H419 C409 0.929 . S
Tb420 N449 2.617 . S
Tb420 N455 2.572 . S
Tb420 O464 2.465 . S
Tb420 O465 2.387 . S
Tb420 O467 2.428 . S
Tb420 O468 2.308 . S
Tb420 O472 2.349 . S
Tb420 O475 2.393 . S
Tb420 C484 2.802 . S
C421 N422 1.379 . S
C421 C424 1.416 . S
C421 C428 1.424 . S
N422 C421 1.379 . S
N422 C425 1.334 . S
N422 Tb431 2.617 . S
C423 C425 1.390 . S
C423 C426 1.339 . S
C423 H443 0.930 . S
C424 C421 1.416 . S
C424 C426 1.416 . S
C424 C430 1.448 . S
C425 N422 1.334 . S
C425 C423 1.390 . S
C425 H436 0.930 . S
C426 C423 1.339 . S
C426 C424 1.416 . S
C426 H447 0.930 . S
C427 C428 1.413 . S
C427 C429 1.427 . S
C427 C433 1.416 . S
C428 C421 1.424 . S
C428 C427 1.413 . S
C428 N432 1.361 . S
C429 C427 1.427 . S
C429 C430 1.328 . S
C429 H444 0.929 . S
C430 C424 1.448 . S
C430 C429 1.328 . S
C430 H445 0.930 . S
Tb431 N422 2.617 . S
Tb431 N432 2.572 . S
Tb431 O466 2.349 . S
Tb431 O469 2.393 . S
Tb431 O470 2.465 . S
Tb431 O471 2.387 . S
Tb431 O473 2.428 . S
Tb431 O474 2.308 . S
Tb431 C495 2.802 . S
N432 C428 1.361 . S
N432 Tb431 2.572 . S
N432 C434 1.340 . S
C433 C427 1.416 . S
C433 C435 1.332 . S
C433 H441 0.931 . S
C434 N432 1.340 . S
C434 C435 1.407 . S
C434 H440 0.930 . S
C435 C433 1.332 . S
C435 C434 1.407 . S
C435 H437 0.929 . S
H436 C425 0.930 . S
H437 C435 0.929 . S
H438 C453 0.930 . S
H439 C460 0.929 . S
H440 C434 0.930 . S
H441 C433 0.931 . S
H442 C456 0.930 . S
H443 C423 0.930 . S
H444 C429 0.929 . S
H445 C430 0.930 . S
H446 C451 0.930 . S
H447 C426 0.930 . S
H448 C459 0.931 . S
N449 Tb420 2.617 . S
N449 C450 1.379 . S
N449 C453 1.334 . S
C450 N449 1.379 . S
C450 C452 1.416 . S
C450 C458 1.424 . S
C451 H446 0.930 . S
C451 C453 1.390 . S
C451 C454 1.339 . S
C452 C450 1.416 . S
C452 C454 1.416 . S
C452 C485 1.448 . S
C453 H438 0.930 . S
C453 N449 1.334 . S
C453 C451 1.390 . S
C454 C451 1.339 . S
C454 C452 1.416 . S
C454 H461 0.930 . S
N455 Tb420 2.572 . S
N455 C456 1.340 . S
N455 C458 1.361 . S
C456 H442 0.930 . S
C456 N455 1.340 . S
C456 C460 1.407 . S
C457 C458 1.413 . S
C457 C459 1.416 . S
C457 C486 1.427 . S
C458 C450 1.424 . S
C458 N455 1.361 . S
C458 C457 1.413 . S
C459 H448 0.931 . S
C459 C457 1.416 . S
C459 C460 1.332 . S
C460 H439 0.929 . S
C460 C456 1.407 . S
C460 C459 1.332 . S
H461 C454 0.930 . S
H462 C485 0.930 . S
H463 C486 0.929 . S
O464 Tb420 2.465 . S
O464 C484 1.264 . S
O465 Tb420 2.387 . S
O465 C476 1.264 . S
O466 Tb431 2.349 . S
O466 C476 1.243 . S
O467 Tb420 2.428 . S
O467 C484 1.256 . S
O468 Tb420 2.308 . S
O468 C483 1.266 . S
O469 Tb431 2.393 . S
O469 C483 1.248 . S
O470 Tb431 2.465 . S
O470 C495 1.264 . S
O471 Tb431 2.387 . S
O471 C487 1.264 . S
O472 Tb420 2.349 . S
O472 C487 1.243 . S
O473 Tb431 2.428 . S
O473 C495 1.256 . S
O474 Tb431 2.308 . S
O474 C494 1.266 . S
O475 Tb420 2.393 . S
O475 C494 1.248 . S
C476 O465 1.264 . S
C476 O466 1.243 . S
C477 C480 1.399 1_655 S
C477 C482 1.383 . S
C477 C484 1.496 . S
C478 C479 1.399 . S
C478 C482 1.389 1_455 S
C479 C478 1.399 . S
C479 C481 1.380 . S
C479 H496 0.929 . S
C480 C477 1.399 1_455 S
C480 C481 1.392 . S
C480 H497 0.944 . S
C481 C479 1.380 . S
C481 C480 1.392 . S
C481 H498 0.929 . S
C482 C477 1.383 . S
C482 C478 1.389 1_655 S
C482 H499 0.931 . S
C483 O468 1.266 . S
C483 O469 1.248 . S
C484 Tb420 2.802 . S
C484 O464 1.264 . S
C484 O467 1.256 . S
C484 C477 1.496 . S
C485 C452 1.448 . S
C485 H462 0.930 . S
C485 C486 1.328 . S
C486 C457 1.427 . S
C486 H463 0.929 . S
C486 C485 1.328 . S
C487 O471 1.264 . S
C487 O472 1.243 . S
C488 C491 1.399 . S
C488 C492 1.383 . S
C488 C495 1.496 . S
C489 C490 1.399 . S
C489 C492 1.389 . S
C490 C489 1.399 . S
C490 C493 1.380 . S
C490 H500 0.929 . S
C491 C488 1.399 . S
C491 C493 1.392 . S
C491 H501 0.929 . S
C492 C488 1.383 . S
C492 C489 1.389 . S
C492 H502 0.931 . S
C493 C490 1.380 . S
C493 C491 1.392 . S
C493 H503 0.929 . S
C494 O474 1.266 . S
C494 O475 1.248 . S
C495 Tb431 2.802 . S
C495 O470 1.264 . S
C495 O473 1.256 . S
C495 C488 1.496 . S
H496 C479 0.929 . S
H497 C480 0.944 . S
H498 C481 0.929 . S
H499 C482 0.931 . S
H500 C490 0.929 . S
H501 C491 0.929 . S
H502 C492 0.931 . S
H503 C493 0.929 . S
Tb504 N533 2.617 . S
Tb504 N539 2.572 . S
Tb504 O548 2.468 . S
Tb504 O549 2.387 . S
Tb504 O551 2.428 . S
Tb504 O552 2.308 . S
Tb504 O556 2.349 . S
Tb504 O559 2.393 1_455 S
Tb504 C568 2.802 1_565 S
C505 N506 1.379 1_554 S
C505 C508 1.416 . S
C505 C512 1.424 . S
N506 C505 1.379 1_556 S
N506 C509 1.334 . S
N506 Tb515 2.617 . S
C507 C509 1.390 1_554 S
C507 C510 1.339 . S
C507 H527 0.930 . S
C508 C505 1.416 . S
C508 C510 1.416 . S
C508 C514 1.448 . S
C509 N506 1.334 . S
C509 C507 1.390 1_556 S
C509 H520 0.930 . S
C510 C507 1.339 . S
C510 C508 1.416 . S
C510 H531 0.930 . S
C511 C512 1.413 . S
C511 C513 1.427 . S
C511 C517 1.393 1_455 S
C512 C505 1.424 . S
C512 C511 1.413 . S
C512 N516 1.361 1_554 S
C513 C511 1.427 . S
C513 C514 1.328 . S
C513 H528 0.929 . S
C514 C508 1.448 . S
C514 C513 1.328 . S
C514 H529 0.930 . S
Tb515 N506 2.617 . S
Tb515 N516 2.572 . S
Tb515 O550 2.349 . S
Tb515 O553 2.393 . S
Tb515 O554 2.465 . S
Tb515 O555 2.387 . S
Tb515 O557 2.428 . S
Tb515 O558 2.308 . S
Tb515 C579 2.802 . S
N516 C512 1.361 1_556 S
N516 Tb515 2.572 . S
N516 C518 1.340 1_455 S
C517 C511 1.393 1_655 S
C517 C519 1.343 . S
C517 H525 0.944 . S
C518 N516 1.340 1_655 S
C518 C519 1.407 1_556 S
C518 H524 0.930 . S
C519 C517 1.343 . S
C519 C518 1.407 1_554 S
C519 H521 0.929 . S
H520 C509 0.930 . S
H521 C519 0.929 . S
H522 C537 0.930 . S
H523 C544 0.929 . S
H524 C518 0.930 . S
H525 C517 0.944 . S
H526 C540 0.930 . S
H527 C507 0.930 . S
H528 C513 0.929 . S
H529 C514 0.930 . S
H530 C535 0.930 . S
H531 C510 0.930 . S
H532 C543 0.931 . S
N533 Tb504 2.617 . S
N533 C534 1.379 . S
N533 C537 1.334 1_455 S
C534 N533 1.379 . S
C534 C536 1.416 . S
C534 C542 1.424 . S
C535 H530 0.930 . S
C535 C537 1.390 . S
C535 C538 1.339 . S
C536 C534 1.416 . S
C536 C538 1.416 1_455 S
C536 C569 1.448 . S
C537 H522 0.930 . S
C537 N533 1.334 1_655 S
C537 C535 1.390 . S
C538 C535 1.339 . S
C538 C536 1.416 1_655 S
C538 H545 0.930 . S
N539 Tb504 2.572 . S
N539 C540 1.340 . S
N539 C542 1.361 . S
C540 H526 0.930 . S
C540 N539 1.340 . S
C540 C544 1.407 . S
C541 C542 1.413 . S
C541 C543 1.416 . S
C541 C570 1.427 . S
C542 C534 1.424 . S
C542 N539 1.361 . S
C542 C541 1.413 . S
C543 H532 0.931 . S
C543 C541 1.416 . S
C543 C544 1.332 . S
C544 H523 0.929 . S
C544 C540 1.407 . S
C544 C543 1.332 . S
H545 C538 0.930 . S
H546 C569 0.930 . S
H547 C570 0.929 . S
O548 Tb504 2.468 . S
O548 C568 1.261 1_565 S
O549 Tb504 2.387 . S
O549 C560 1.264 . S
O550 Tb515 2.349 . S
O550 C560 1.243 . S
O551 Tb504 2.428 . S
O551 C568 1.256 1_565 S
O552 Tb504 2.308 . S
O552 C567 1.266 . S
O553 Tb515 2.393 . S
O553 C567 1.248 . S
O554 Tb515 2.465 . S
O554 C579 1.264 . S
O555 Tb515 2.387 . S
O555 C571 1.264 . S
O556 Tb504 2.349 . S
O556 C571 1.243 . S
O557 Tb515 2.428 . S
O557 C579 1.256 . S
O558 Tb515 2.308 . S
O558 C578 1.266 1_455 S
O559 Tb504 2.393 1_655 S
O559 C578 1.248 . S
C560 O549 1.264 . S
C560 O550 1.243 . S
C561 C564 1.399 . S
C561 C566 1.383 . S
C561 C568 1.496 . S
C562 C563 1.399 . S
C562 C566 1.389 . S
C563 C562 1.399 . S
C563 C565 1.380 . S
C563 H580 0.929 . S
C564 C561 1.399 . S
C564 C565 1.392 . S
C564 H581 0.929 . S
C565 C563 1.380 . S
C565 C564 1.392 . S
C565 H582 0.929 . S
C566 C561 1.383 . S
C566 C562 1.389 . S
C566 H583 0.931 . S
C567 O552 1.266 . S
C567 O553 1.248 . S
C568 Tb504 2.802 1_545 S
C568 O548 1.261 1_545 S
C568 O551 1.256 1_545 S
C568 C561 1.496 . S
C569 C536 1.448 . S
C569 H546 0.930 . S
C569 C570 1.328 . S
C570 C541 1.427 . S
C570 H547 0.929 . S
C570 C569 1.328 . S
C571 O555 1.264 . S
C571 O556 1.243 . S
C572 C575 1.399 . S
C572 C576 1.383 1_455 S
C572 C579 1.496 . S
C573 C574 1.399 1_655 S
C573 C576 1.389 . S
C574 C573 1.399 1_455 S
C574 C577 1.380 . S
C574 H584 0.929 . S
C575 C572 1.399 . S
C575 C577 1.392 . S
C575 H585 0.929 . S
C576 C572 1.383 1_655 S
C576 C573 1.389 . S
C576 H586 0.931 . S
C577 C574 1.380 . S
C577 C575 1.392 . S
C577 H587 0.929 . S
C578 O558 1.266 1_655 S
C578 O559 1.248 . S
C579 Tb515 2.802 . S
C579 O554 1.264 . S
C579 O557 1.256 . S
C579 C572 1.496 . S
H580 C563 0.929 . S
H581 C564 0.929 . S
H582 C565 0.929 . S
H583 C566 0.931 . S
H584 C574 0.929 . S
H585 C575 0.929 . S
H586 C576 0.931 . S
H587 C577 0.929 . S
Tb588 N617 2.617 . S
Tb588 N623 2.572 . S
Tb588 O632 2.465 . S
Tb588 O633 2.387 . S
Tb588 O635 2.428 . S
Tb588 O636 2.308 . S
Tb588 O640 2.329 1_545 S
Tb588 O643 2.393 . S
Tb588 C652 2.802 . S
C589 N590 1.379 . S
C589 C592 1.416 . S
C589 C596 1.424 . S
N590 C589 1.379 . S
N590 C593 1.334 . S
N590 Tb599 2.617 1_565 S
C591 C593 1.390 . S
C591 C594 1.339 . S
C591 H611 0.930 . S
C592 C589 1.416 . S
C592 C594 1.416 . S
C592 C598 1.448 . S
C593 N590 1.334 . S
C593 C591 1.390 . S
C593 H604 0.930 1_565 S
C594 C591 1.339 . S
C594 C592 1.416 . S
C594 H615 0.930 . S
C595 C596 1.413 . S
C595 C597 1.427 . S
C595 C601 1.416 . S
C596 C589 1.424 . S
C596 C595 1.413 . S
C596 N600 1.361 . S
C597 C595 1.427 . S
C597 C598 1.328 . S
C597 H612 0.929 . S
C598 C592 1.448 . S
C598 C597 1.328 . S
C598 H613 0.930 . S
Tb599 N590 2.617 1_545 S
Tb599 N600 2.572 1_545 S
Tb599 O634 2.349 . S
Tb599 O637 2.393 . S
Tb599 O638 2.465 . S
Tb599 O639 2.387 1_545 S
Tb599 O641 2.428 . S
Tb599 O642 2.308 . S
Tb599 C663 2.802 . S
N600 C596 1.361 . S
N600 Tb599 2.572 1_565 S
N600 C602 1.340 . S
C601 C595 1.416 . S
C601 C603 1.332 . S
C601 H609 0.931 . S
C602 N600 1.340 . S
C602 C603 1.407 . S
C602 H608 0.930 . S
C603 C601 1.332 . S
C603 C602 1.407 . S
C603 H605 0.929 . S
H604 C593 0.930 1_545 S
H605 C603 0.929 . S
H606 C621 0.930 . S
H607 C628 0.929 . S
H608 C602 0.930 . S
H609 C601 0.931 . S
H610 C624 0.930 . S
H611 C591 0.930 . S
H612 C597 0.929 . S
H613 C598 0.930 . S
H614 C619 0.930 . S
H615 C594 0.930 . S
H616 C627 0.931 . S
N617 Tb588 2.617 . S
N617 C618 1.379 . S
N617 C621 1.334 . S
C618 N617 1.379 . S
C618 C620 1.416 . S
C618 C626 1.424 . S
C619 H614 0.930 . S
C619 C621 1.390 . S
C619 C622 1.339 . S
C620 C618 1.416 . S
C620 C622 1.416 . S
C620 C653 1.448 . S
C621 H606 0.930 . S
C621 N617 1.334 . S
C621 C619 1.390 . S
C622 C619 1.339 . S
C622 C620 1.416 . S
C622 H629 0.930 . S
N623 Tb588 2.572 . S
N623 C624 1.340 . S
N623 C626 1.361 . S
C624 H610 0.930 . S
C624 N623 1.340 . S
C624 C628 1.407 . S
C625 C626 1.413 . S
C625 C627 1.416 . S
C625 C654 1.427 . S
C626 C618 1.424 . S
C626 N623 1.361 . S
C626 C625 1.413 . S
C627 H616 0.931 . S
C627 C625 1.416 . S
C627 C628 1.332 . S
C628 H607 0.929 . S
C628 C624 1.407 . S
C628 C627 1.332 . S
H629 C622 0.930 . S
H630 C653 0.930 . S
H631 C654 0.929 . S
O632 Tb588 2.465 . S
O632 C652 1.264 . S
O633 Tb588 2.387 . S
O633 C644 1.264 . S
O634 Tb599 2.349 . S
O634 C644 1.243 . S
O635 Tb588 2.428 . S
O635 C652 1.256 . S
O636 Tb588 2.308 . S
O636 C651 1.266 . S
O637 Tb599 2.393 . S
O637 C651 1.248 . S
O638 Tb599 2.465 . S
O638 C663 1.264 . S
O639 Tb599 2.387 1_565 S
O639 C655 1.264 . S
O640 Tb588 2.329 1_565 S
O640 C655 1.253 . S
O641 Tb599 2.428 . S
O641 C663 1.256 . S
O642 Tb599 2.308 . S
O642 C662 1.266 . S
O643 Tb588 2.393 . S
O643 C662 1.248 . S
C644 O633 1.264 . S
C644 O634 1.243 . S
C645 C648 1.399 . S
C645 C650 1.383 . S
C645 C652 1.496 . S
C646 C647 1.399 . S
C646 C650 1.389 . S
C647 C646 1.399 . S
C647 C649 1.380 . S
C647 H664 0.929 . S
C648 C645 1.399 . S
C648 C649 1.392 . S
C648 H665 0.929 . S
C649 C647 1.380 . S
C649 C648 1.392 . S
C649 H666 0.929 . S
C650 C645 1.383 . S
C650 C646 1.389 . S
C650 H667 0.931 . S
C651 O636 1.266 . S
C651 O637 1.248 . S
C652 Tb588 2.802 . S
C652 O632 1.264 . S
C652 O635 1.256 . S
C652 C645 1.496 . S
C653 C620 1.448 . S
C653 H630 0.930 . S
C653 C654 1.328 . S
C654 C625 1.427 . S
C654 H631 0.929 . S
C654 C653 1.328 . S
C655 O639 1.264 . S
C655 O640 1.253 . S
C656 C659 1.399 . S
C656 C660 1.383 . S
C656 C663 1.496 . S
C657 C658 1.399 . S
C657 C660 1.389 . S
C658 C657 1.399 . S
C658 C661 1.380 . S
C658 H668 0.929 . S
C659 C656 1.399 . S
C659 C661 1.392 . S
C659 H669 0.929 . S
C660 C656 1.383 . S
C660 C657 1.389 . S
C660 H670 0.931 . S
C661 C658 1.380 . S
C661 C659 1.392 . S
C661 H671 0.929 . S
C662 O642 1.266 . S
C662 O643 1.248 . S
C663 Tb599 2.802 . S
C663 O638 1.264 . S
C663 O641 1.256 . S
C663 C656 1.496 . S
H664 C647 0.929 . S
H665 C648 0.929 . S
H666 C649 0.929 . S
H667 C650 0.931 . S
H668 C658 0.929 . S
H669 C659 0.929 . S
H670 C660 0.931 . S
H671 C661 0.929 . S
H672 C680 0.950 . S
H673 C685 0.950 . S
H674 C682 0.950 . S
H675 C684 0.950 . S
H676 C686 0.950 . S
H677 C688 0.950 . S
H678 C690 0.950 . S
H679 C691 0.950 . S
C680 H672 0.950 . S
C680 C681 1.386 . S
C680 C682 1.391 . S
C681 C680 1.386 . S
C681 C685 1.393 . S
C682 H674 0.950 . S
C682 C680 1.391 . S
C682 C683 1.400 . S
C683 C682 1.400 . S
C683 C684 1.398 . S
C683 C689 1.491 . S
C684 H675 0.950 . S
C684 C683 1.398 . S
C684 C685 1.391 . S
C685 H673 0.950 . S
C685 C681 1.393 . S
C685 C684 1.391 . S
C686 H676 0.950 . S
C686 C687 1.386 . S
C686 C688 1.391 . S
C687 C686 1.386 . S
C687 C691 1.393 . S
C688 H677 0.950 . S
C688 C686 1.391 . S
C688 C689 1.400 . S
C689 C683 1.491 . S
C689 C688 1.400 . S
C689 C690 1.398 . S
C690 H678 0.950 . S
C690 C689 1.398 . S
C690 C691 1.391 . S
C691 H679 0.950 . S
C691 C687 1.393 . S
C691 C690 1.391 . S
H692 C700 0.950 . S
H693 C705 0.950 . S
H694 C702 0.950 . S
H695 C704 0.950 . S
H696 C706 0.950 . S
H697 C708 0.950 . S
H698 C710 0.950 . S
H699 C711 0.950 . S
C700 H692 0.950 . S
C700 C701 1.386 . S
C700 C702 1.391 . S
C701 C700 1.386 . S
C701 C705 1.393 . S
C702 H694 0.950 . S
C702 C700 1.391 . S
C702 C703 1.400 . S
C703 C702 1.400 . S
C703 C704 1.398 . S
C703 C709 1.491 . S
C704 H695 0.950 . S
C704 C703 1.398 . S
C704 C705 1.391 . S
C705 H693 0.950 . S
C705 C701 1.393 . S
C705 C704 1.391 . S
C706 H696 0.950 . S
C706 C707 1.386 . S
C706 C708 1.391 . S
C707 C706 1.386 . S
C707 C711 1.393 . S
C708 H697 0.950 . S
C708 C706 1.391 . S
C708 C709 1.400 . S
C709 C703 1.491 . S
C709 C708 1.400 . S
C709 C710 1.398 . S
C710 H698 0.950 . S
C710 C709 1.398 . S
C710 C711 1.391 . S
C711 H699 0.950 . S
C711 C707 1.393 . S
C711 C710 1.391 . S
H712 C720 0.950 . S
H713 C725 0.950 . S
H714 C722 0.950 . S
H715 C724 0.950 . S
H716 C726 0.950 . S
H717 C728 0.950 . S
H718 C730 0.950 . S
H719 C731 0.950 . S
C720 H712 0.950 . S
C720 C721 1.386 . S
C720 C722 1.391 . S
C721 C720 1.386 . S
C721 C725 1.393 . S
C722 H714 0.950 . S
C722 C720 1.391 . S
C722 C723 1.400 . S
C723 C722 1.400 . S
C723 C724 1.398 . S
C723 C729 1.491 . S
C724 H715 0.950 . S
C724 C723 1.398 . S
C724 C725 1.391 . S
C725 H713 0.950 . S
C725 C721 1.393 . S
C725 C724 1.391 . S
C726 H716 0.950 . S
C726 C727 1.386 . S
C726 C728 1.391 . S
C727 C726 1.386 . S
C727 C731 1.393 . S
C728 H717 0.950 . S
C728 C726 1.391 . S
C728 C729 1.400 . S
C729 C723 1.491 . S
C729 C728 1.400 . S
C729 C730 1.398 . S
C730 H718 0.950 . S
C730 C729 1.398 . S
C730 C731 1.391 . S
C731 H719 0.950 . S
C731 C727 1.393 . S
C731 C730 1.391 . S
H732 C740 0.950 . S
H733 C745 0.950 . S
H734 C742 0.950 . S
H735 C744 0.950 . S
H736 C746 0.950 . S
H737 C748 0.950 . S
H738 C750 0.950 . S
H739 C751 0.950 . S
C740 H732 0.950 . S
C740 C741 1.386 . S
C740 C742 1.391 . S
C741 C740 1.386 . S
C741 C745 1.393 . S
C742 H734 0.950 . S
C742 C740 1.391 . S
C742 C743 1.400 . S
C743 C742 1.400 . S
C743 C744 1.398 . S
C743 C749 1.491 . S
C744 H735 0.950 . S
C744 C743 1.398 . S
C744 C745 1.391 . S
C745 H733 0.950 . S
C745 C741 1.393 . S
C745 C744 1.391 . S
C746 H736 0.950 . S
C746 C747 1.386 . S
C746 C748 1.391 . S
C747 C746 1.386 . S
C747 C751 1.393 . S
C748 H737 0.950 . S
C748 C746 1.391 . S
C748 C749 1.400 . S
C749 C743 1.491 . S
C749 C748 1.400 . S
C749 C750 1.398 . S
C750 H738 0.950 . S
C750 C749 1.398 . S
C750 C751 1.391 . S
C751 H739 0.950 . S
C751 C747 1.393 . S
C751 C750 1.391 . S
H752 C760 0.950 . S
H753 C765 0.950 . S
H754 C762 0.950 . S
H755 C764 0.950 . S
H756 C766 0.950 . S
H757 C768 0.950 . S
H758 C770 0.950 . S
H759 C771 0.950 . S
C760 H752 0.950 . S
C760 C761 1.386 . S
C760 C762 1.391 . S
C761 C760 1.386 . S
C761 C765 1.393 . S
C762 H754 0.950 . S
C762 C760 1.391 . S
C762 C763 1.400 . S
C763 C762 1.400 . S
C763 C764 1.398 . S
C763 C769 1.491 . S
C764 H755 0.950 . S
C764 C763 1.398 . S
C764 C765 1.391 . S
C765 H753 0.950 . S
C765 C761 1.393 . S
C765 C764 1.391 . S
C766 H756 0.950 . S
C766 C767 1.386 . S
C766 C768 1.391 . S
C767 C766 1.386 . S
C767 C771 1.393 . S
C768 H757 0.950 . S
C768 C766 1.391 . S
C768 C769 1.400 . S
C769 C763 1.491 . S
C769 C768 1.400 . S
C769 C770 1.398 . S
C770 H758 0.950 . S
C770 C769 1.398 . S
C770 C771 1.391 . S
C771 H759 0.950 . S
C771 C767 1.393 . S
C771 C770 1.391 . S
H772 C780 0.950 . S
H773 C785 0.950 . S
H774 C782 0.950 . S
H775 C784 0.950 . S
H776 C786 0.950 . S
H777 C788 0.950 . S
H778 C790 0.950 . S
H779 C791 0.950 . S
C780 H772 0.950 . S
C780 C781 1.386 . S
C780 C782 1.391 . S
C781 C780 1.386 . S
C781 C785 1.393 . S
C782 H774 0.950 . S
C782 C780 1.391 . S
C782 C783 1.400 . S
C783 C782 1.400 . S
C783 C784 1.398 . S
C783 C789 1.491 . S
C784 H775 0.950 . S
C784 C783 1.398 . S
C784 C785 1.391 . S
C785 H773 0.950 . S
C785 C781 1.393 . S
C785 C784 1.391 . S
C786 H776 0.950 . S
C786 C787 1.386 . S
C786 C788 1.391 . S
C787 C786 1.386 . S
C787 C791 1.393 . S
C788 H777 0.950 . S
C788 C786 1.391 . S
C788 C789 1.400 . S
C789 C783 1.491 . S
C789 C788 1.400 . S
C789 C790 1.398 . S
C790 H778 0.950 . S
C790 C789 1.398 . S
C790 C791 1.391 . S
C791 H779 0.950 . S
C791 C787 1.393 . S
C791 C790 1.391 . S
H792 C800 0.950 . S
H793 C805 0.950 . S
H794 C802 0.950 . S
H795 C804 0.950 . S
H796 C806 0.950 . S
H797 C808 0.950 . S
H798 C810 0.950 . S
H799 C811 0.950 . S
C800 H792 0.950 . S
C800 C801 1.386 . S
C800 C802 1.391 . S
C801 C800 1.386 . S
C801 C805 1.393 . S
C802 H794 0.950 . S
C802 C800 1.391 . S
C802 C803 1.400 . S
C803 C802 1.400 . S
C803 C804 1.398 . S
C803 C809 1.491 . S
C804 H795 0.950 . S
C804 C803 1.398 . S
C804 C805 1.391 . S
C805 H793 0.950 . S
C805 C801 1.393 . S
C805 C804 1.391 . S
C806 H796 0.950 . S
C806 C807 1.386 . S
C806 C808 1.391 . S
C807 C806 1.386 . S
C807 C811 1.393 . S
C808 H797 0.950 . S
C808 C806 1.391 . S
C808 C809 1.400 . S
C809 C803 1.491 . S
C809 C808 1.400 . S
C809 C810 1.398 . S
C810 H798 0.950 . S
C810 C809 1.398 . S
C810 C811 1.391 . S
C811 H799 0.950 . S
C811 C807 1.393 . S
C811 C810 1.391 . S
H812 C820 0.950 . S
H813 C825 0.950 1_655 S
H814 C822 0.950 . S
H815 C824 0.950 1_655 S
H816 C826 0.950 1_655 S
H817 C828 0.950 1_655 S
H818 C830 0.950 . S
H819 C831 0.950 . S
C820 H812 0.950 . S
C820 C821 1.386 . S
C820 C822 1.391 . S
C821 C820 1.386 . S
C821 C825 1.393 . S
C822 H814 0.950 . S
C822 C820 1.391 . S
C822 C823 1.400 . S
C823 C822 1.400 . S
C823 C824 1.398 . S
C823 C829 1.491 . S
C824 H815 0.950 1_455 S
C824 C823 1.398 . S
C824 C825 1.391 . S
C825 H813 0.950 1_455 S
C825 C821 1.393 . S
C825 C824 1.391 . S
C826 H816 0.950 1_455 S
C826 C827 1.386 . S
C826 C828 1.391 . S
C827 C826 1.386 . S
C827 C831 1.393 . S
C828 H817 0.950 1_455 S
C828 C826 1.391 . S
C828 C829 1.400 . S
C829 C823 1.491 . S
C829 C828 1.400 . S
C829 C830 1.398 . S
C830 H818 0.950 . S
C830 C829 1.398 . S
C830 C831 1.391 . S
C831 H819 0.950 . S
C831 C827 1.393 . S
C831 C830 1.391 . S
H832 C840 0.950 . S
H833 C845 0.950 . S
H834 C842 0.950 1_554 S
H835 C844 0.950 . S
H836 C846 0.950 1_655 S
H837 C848 0.950 1_556 S
H838 C850 0.950 . S
H839 C851 0.950 . S
C840 H832 0.950 . S
C840 C841 1.386 . S
C840 C842 1.391 . S
C841 C840 1.386 . S
C841 C845 1.393 . S
C842 H834 0.950 1_556 S
C842 C840 1.391 . S
C842 C843 1.400 . S
C843 C842 1.400 . S
C843 C844 1.398 . S
C843 C849 1.491 1_556 S
C844 H835 0.950 . S
C844 C843 1.398 . S
C844 C845 1.391 . S
C845 H833 0.950 . S
C845 C841 1.393 . S
C845 C844 1.391 . S
C846 H836 0.950 1_455 S
C846 C847 1.386 . S
C846 C848 1.391 . S
C847 C846 1.386 . S
C847 C851 1.393 . S
C848 H837 0.950 1_554 S
C848 C846 1.391 . S
C848 C849 1.400 . S
C849 C843 1.491 1_554 S
C849 C848 1.400 . S
C849 C850 1.398 . S
C850 H838 0.950 . S
C850 C849 1.398 . S
C850 C851 1.391 . S
C851 H839 0.950 . S
C851 C847 1.393 . S
C851 C850 1.391 . S
H852 C860 0.950 . S
H853 C865 0.950 . S
H854 C862 0.950 . S
H855 C864 0.950 . S
H856 C866 0.950 . S
H857 C868 0.950 . S
H858 C870 0.950 . S
H859 C871 0.950 . S
C860 H852 0.950 . S
C860 C861 1.386 . S
C860 C862 1.391 . S
C861 C860 1.386 . S
C861 C865 1.393 . S
C862 H854 0.950 . S
C862 C860 1.391 . S
C862 C863 1.400 . S
C863 C862 1.400 . S
C863 C864 1.398 . S
C863 C869 1.491 . S
C864 H855 0.950 . S
C864 C863 1.398 . S
C864 C865 1.391 . S
C865 H853 0.950 . S
C865 C861 1.393 . S
C865 C864 1.391 . S
C866 H856 0.950 . S
C866 C867 1.386 . S
C866 C868 1.391 . S
C867 C866 1.386 . S
C867 C871 1.393 . S
C868 H857 0.950 . S
C868 C866 1.391 . S
C868 C869 1.400 . S
C869 C863 1.491 . S
C869 C868 1.400 . S
C869 C870 1.398 . S
C870 H858 0.950 . S
C870 C869 1.398 . S
C870 C871 1.391 . S
C871 H859 0.950 . S
C871 C867 1.393 . S
C871 C870 1.391 . S
H872 C880 0.950 . S
H873 C885 0.950 . S
H874 C882 0.950 . S
H875 C884 0.950 . S
H876 C886 0.950 . S
H877 C888 0.950 . S
H878 C890 0.950 . S
H879 C891 0.950 . S
C880 H872 0.950 . S
C880 C881 1.386 . S
C880 C882 1.391 . S
C881 C880 1.386 . S
C881 C885 1.393 . S
C882 H874 0.950 . S
C882 C880 1.391 . S
C882 C883 1.400 . S
C883 C882 1.400 . S
C883 C884 1.398 1_556 S
C883 C889 1.491 1_556 S
C884 H875 0.950 . S
C884 C883 1.398 1_554 S
C884 C885 1.391 1_554 S
C885 H873 0.950 . S
C885 C881 1.393 . S
C885 C884 1.391 1_556 S
C886 H876 0.950 . S
C886 C887 1.386 . S
C886 C888 1.391 . S
C887 C886 1.386 . S
C887 C891 1.393 . S
C888 H877 0.950 . S
C888 C886 1.391 . S
C888 C889 1.400 . S
C889 C883 1.491 1_554 S
C889 C888 1.400 . S
C889 C890 1.398 1_554 S
C890 H878 0.950 . S
C890 C889 1.398 1_556 S
C890 C891 1.391 1_556 S
C891 H879 0.950 . S
C891 C887 1.393 . S
C891 C890 1.391 1_554 S
H892 C900 0.950 . S
H893 C905 0.950 . S
H894 C902 0.950 . S
H895 C904 0.950 . S
H896 C906 0.950 . S
H897 C908 0.950 . S
H898 C910 0.950 1_655 S
H899 C911 0.950 . S
C900 H892 0.950 . S
C900 C901 1.386 . S
C900 C902 1.391 . S
C901 C900 1.386 . S
C901 C905 1.393 . S
C902 H894 0.950 . S
C902 C900 1.391 . S
C902 C903 1.400 . S
C903 C902 1.400 . S
C903 C904 1.398 . S
C903 C909 1.491 . S
C904 H895 0.950 . S
C904 C903 1.398 . S
C904 C905 1.391 . S
C905 H893 0.950 . S
C905 C901 1.393 . S
C905 C904 1.391 . S
C906 H896 0.950 . S
C906 C907 1.386 1_455 S
C906 C908 1.391 . S
C907 C906 1.386 1_655 S
C907 C911 1.393 . S
C908 H897 0.950 . S
C908 C906 1.391 . S
C908 C909 1.400 . S
C909 C903 1.491 . S
C909 C908 1.400 . S
C909 C910 1.398 . S
C910 H898 0.950 1_455 S
C910 C909 1.398 . S
C910 C911 1.391 1_455 S
C911 H899 0.950 . S
C911 C907 1.393 . S
C911 C910 1.391 1_655 S
H912 C920 0.950 . S
H913 C925 0.950 1_565 S
H914 C922 0.950 . S
H915 C924 0.950 . S
H916 C926 0.950 . S
H917 C928 0.950 . S
H918 C930 0.950 . S
H919 C931 0.950 . S
C920 H912 0.950 . S
C920 C921 1.386 . S
C920 C922 1.391 . S
C921 C920 1.386 . S
C921 C925 1.393 . S
C922 H914 0.950 . S
C922 C920 1.391 . S
C922 C923 1.400 . S
C923 C922 1.400 . S
C923 C924 1.398 . S
C923 C929 1.491 1_556 S
C924 H915 0.950 . S
C924 C923 1.398 . S
C924 C925 1.391 . S
C925 H913 0.950 1_545 S
C925 C921 1.393 . S
C925 C924 1.391 . S
C926 H916 0.950 . S
C926 C927 1.386 . S
C926 C928 1.391 . S
C927 C926 1.386 . S
C927 C931 1.393 . S
C928 H917 0.950 . S
C928 C926 1.391 . S
C928 C929 1.400 . S
C929 C923 1.491 1_554 S
C929 C928 1.400 . S
C929 C930 1.398 . S
C930 H918 0.950 . S
C930 C929 1.398 . S
C930 C931 1.391 . S
C931 H919 0.950 . S
C931 C927 1.393 . S
C931 C930 1.391 . S
H932 C940 0.950 . S
H933 C945 0.950 . S
H934 C942 0.950 . S
H935 C944 0.950 . S
H936 C946 0.950 . S
H937 C948 0.950 . S
H938 C950 0.950 . S
H939 C951 0.950 . S
C940 H932 0.950 . S
C940 C941 1.386 . S
C940 C942 1.391 . S
C941 C940 1.386 . S
C941 C945 1.393 . S
C942 H934 0.950 . S
C942 C940 1.391 . S
C942 C943 1.400 . S
C943 C942 1.400 . S
C943 C944 1.398 . S
C943 C949 1.491 . S
C944 H935 0.950 . S
C944 C943 1.398 . S
C944 C945 1.391 . S
C945 H933 0.950 . S
C945 C941 1.393 . S
C945 C944 1.391 . S
C946 H936 0.950 . S
C946 C947 1.386 . S
C946 C948 1.391 . S
C947 C946 1.386 . S
C947 C951 1.393 . S
C948 H937 0.950 . S
C948 C946 1.391 . S
C948 C949 1.400 . S
C949 C943 1.491 . S
C949 C948 1.400 . S
C949 C950 1.398 . S
C950 H938 0.950 . S
C950 C949 1.398 . S
C950 C951 1.391 . S
C951 H939 0.950 . S
C951 C947 1.393 . S
C951 C950 1.391 . S
H952 C960 0.950 . S
H953 C965 0.950 . S
H954 C962 0.937 1_654 S
H955 C964 0.950 . S
H956 C966 0.950 . S
H957 C968 0.936 1_556 S
H958 C970 0.950 . S
H959 C971 0.950 . S
C960 H952 0.950 . S
C960 C961 1.386 1_655 S
C960 C962 1.393 1_655 S
C961 C960 1.386 1_455 S
C961 C965 1.393 . S
C962 H954 0.937 1_456 S
C962 C960 1.393 1_455 S
C962 C963 1.397 . S
C963 C962 1.397 . S
C963 C964 1.398 . S
C963 C969 1.491 1_556 S
C964 H955 0.950 . S
C964 C963 1.398 . S
C964 C965 1.391 . S
C965 H953 0.950 . S
C965 C961 1.393 . S
C965 C964 1.391 . S
C966 H956 0.950 . S
C966 C967 1.386 . S
C966 C968 1.391 . S
C967 C966 1.386 . S
C967 C971 1.393 . S
C968 H957 0.936 1_554 S
C968 C966 1.391 . S
C968 C969 1.400 . S
C969 C963 1.491 1_554 S
C969 C968 1.400 . S
C969 C970 1.398 . S
C970 H958 0.950 . S
C970 C969 1.398 . S
C970 C971 1.391 . S
C971 H959 0.950 . S
C971 C967 1.393 . S
C971 C970 1.391 . S
H972 C980 0.950 . S
H973 C985 0.950 . S
H974 C982 0.950 . S
H975 C984 0.950 . S
H976 C986 0.950 . S
H977 C988 0.950 . S
H978 C990 0.950 . S
H979 C991 0.950 1_565 S
C980 H972 0.950 . S
C980 C981 1.386 . S
C980 C982 1.391 . S
C981 C980 1.386 . S
C981 C985 1.393 . S
C982 H974 0.950 . S
C982 C980 1.391 . S
C982 C983 1.400 . S
C983 C982 1.400 . S
C983 C984 1.398 . S
C983 C989 1.491 . S
C984 H975 0.950 . S
C984 C983 1.398 . S
C984 C985 1.391 . S
C985 H973 0.950 . S
C985 C981 1.393 . S
C985 C984 1.391 . S
C986 H976 0.950 . S
C986 C987 1.386 . S
C986 C988 1.391 1_655 S
C987 C986 1.386 . S
C987 C991 1.393 . S
C988 H977 0.950 . S
C988 C986 1.391 1_455 S
C988 C989 1.400 . S
C989 C983 1.491 . S
C989 C988 1.400 . S
C989 C990 1.398 . S
C990 H978 0.950 . S
C990 C989 1.398 . S
C990 C991 1.391 1_455 S
C991 H979 0.950 1_545 S
C991 C987 1.393 . S
C991 C990 1.391 1_655 S
H992 C1000 0.950 . S
H993 C1005 0.950 . S
H994 C1002 0.950 . S
H995 C1004 0.950 . S
H996 C1006 0.950 . S
H997 C1008 0.950 . S
H998 C1010 0.950 . S
H999 C1011 0.950 . S
C1000 H992 0.950 . S
C1000 C1001 1.386 . S
C1000 C1002 1.391 . S
C1001 C1000 1.386 . S
C1001 C1005 1.393 . S
C1002 H994 0.950 . S
C1002 C1000 1.391 . S
C1002 C1003 1.400 . S
C1003 C1002 1.400 . S
C1003 C1004 1.398 . S
C1003 C1009 1.491 . S
C1004 H995 0.950 . S
C1004 C1003 1.398 . S
C1004 C1005 1.391 . S
C1005 H993 0.950 . S
C1005 C1001 1.393 . S
C1005 C1004 1.391 . S
C1006 H996 0.950 . S
C1006 C1007 1.386 . S
C1006 C1008 1.391 . S
C1007 C1006 1.386 . S
C1007 C1011 1.393 . S
C1008 H997 0.950 . S
C1008 C1006 1.391 . S
C1008 C1009 1.400 . S
C1009 C1003 1.491 . S
C1009 C1008 1.400 . S
C1009 C1010 1.398 . S
C1010 H998 0.950 . S
C1010 C1009 1.398 . S
C1010 C1011 1.391 . S
C1011 H999 0.950 . S
C1011 C1007 1.393 . S
C1011 C1010 1.391 . S
H1012 C1020 0.950 . S
H1013 C1025 0.950 . S
H1014 C1022 0.950 . S
H1015 C1024 0.950 . S
H1016 C1026 0.950 . S
H1017 C1028 0.950 . S
H1018 C1030 0.950 . S
H1019 C1031 0.950 . S
C1020 H1012 0.950 . S
C1020 C1021 1.386 . S
C1020 C1022 1.391 . S
C1021 C1020 1.386 . S
C1021 C1025 1.393 . S
C1022 H1014 0.950 . S
C1022 C1020 1.391 . S
C1022 C1023 1.400 . S
C1023 C1022 1.400 . S
C1023 C1024 1.398 . S
C1023 C1029 1.491 . S
C1024 H1015 0.950 . S
C1024 C1023 1.398 . S
C1024 C1025 1.391 . S
C1025 H1013 0.950 . S
C1025 C1021 1.393 . S
C1025 C1024 1.391 . S
C1026 H1016 0.950 . S
C1026 C1027 1.386 . S
C1026 C1028 1.391 . S
C1027 C1026 1.386 . S
C1027 C1031 1.393 . S
C1028 H1017 0.950 . S
C1028 C1026 1.391 . S
C1028 C1029 1.400 . S
C1029 C1023 1.491 . S
C1029 C1028 1.400 . S
C1029 C1030 1.398 . S
C1030 H1018 0.950 . S
C1030 C1029 1.398 . S
C1030 C1031 1.391 . S
C1031 H1019 0.950 . S
C1031 C1027 1.393 . S
C1031 C1030 1.391 . S
H1032 C1040 0.950 . S
H1033 C1045 0.950 . S
H1034 C1042 0.950 . S
H1035 C1044 0.950 . S
H1036 C1046 0.950 . S
H1037 C1048 0.950 . S
H1038 C1050 0.950 . S
H1039 C1051 0.950 . S
C1040 H1032 0.950 . S
C1040 C1041 1.386 . S
C1040 C1042 1.391 . S
C1041 C1040 1.386 . S
C1041 C1045 1.393 . S
C1042 H1034 0.950 . S
C1042 C1040 1.391 . S
C1042 C1043 1.400 . S
C1043 C1042 1.400 . S
C1043 C1044 1.398 . S
C1043 C1049 1.491 . S
C1044 H1035 0.950 . S
C1044 C1043 1.398 . S
C1044 C1045 1.391 . S
C1045 H1033 0.950 . S
C1045 C1041 1.393 . S
C1045 C1044 1.391 . S
C1046 H1036 0.950 . S
C1046 C1047 1.386 . S
C1046 C1048 1.391 . S
C1047 C1046 1.386 . S
C1047 C1051 1.393 . S
C1048 H1037 0.950 . S
C1048 C1046 1.391 . S
C1048 C1049 1.400 . S
C1049 C1043 1.491 . S
C1049 C1048 1.400 . S
C1049 C1050 1.398 . S
C1050 H1038 0.950 . S
C1050 C1049 1.398 . S
C1050 C1051 1.391 . S
C1051 H1039 0.950 . S
C1051 C1047 1.393 . S
C1051 C1050 1.391 . S
H1052 C1060 0.950 . S
H1053 C1065 0.950 . S
H1054 C1062 0.950 . S
H1055 C1064 0.950 . S
H1056 C1066 0.950 . S
H1057 C1068 0.950 . S
H1058 C1070 0.950 . S
H1059 C1071 0.950 . S
C1060 H1052 0.950 . S
C1060 C1061 1.386 . S
C1060 C1062 1.391 . S
C1061 C1060 1.386 . S
C1061 C1065 1.393 . S
C1062 H1054 0.950 . S
C1062 C1060 1.391 . S
C1062 C1063 1.400 . S
C1063 C1062 1.400 . S
C1063 C1064 1.398 . S
C1063 C1069 1.491 . S
C1064 H1055 0.950 . S
C1064 C1063 1.398 . S
C1064 C1065 1.391 . S
C1065 H1053 0.950 . S
C1065 C1061 1.393 . S
C1065 C1064 1.391 . S
C1066 H1056 0.950 . S
C1066 C1067 1.386 . S
C1066 C1068 1.391 . S
C1067 C1066 1.386 . S
C1067 C1071 1.393 . S
C1068 H1057 0.950 . S
C1068 C1066 1.391 . S
C1068 C1069 1.400 . S
C1069 C1063 1.491 . S
C1069 C1068 1.400 . S
C1069 C1070 1.398 . S
C1070 H1058 0.950 . S
C1070 C1069 1.398 . S
C1070 C1071 1.391 . S
C1071 H1059 0.950 . S
C1071 C1067 1.393 . S
C1071 C1070 1.391 . S
H1072 C1080 0.950 . S
H1073 C1085 0.950 . S
H1074 C1082 0.950 . S
H1075 C1084 0.950 . S
H1076 C1086 0.950 . S
H1077 C1088 0.950 . S
H1078 C1090 0.950 . S
H1079 C1091 0.950 . S
C1080 H1072 0.950 . S
C1080 C1081 1.386 . S
C1080 C1082 1.391 . S
C1081 C1080 1.386 . S
C1081 C1085 1.393 . S
C1082 H1074 0.950 . S
C1082 C1080 1.391 . S
C1082 C1083 1.400 . S
C1083 C1082 1.400 . S
C1083 C1084 1.398 . S
C1083 C1089 1.491 . S
C1084 H1075 0.950 . S
C1084 C1083 1.398 . S
C1084 C1085 1.391 . S
C1085 H1073 0.950 . S
C1085 C1081 1.393 . S
C1085 C1084 1.391 . S
C1086 H1076 0.950 . S
C1086 C1087 1.386 . S
C1086 C1088 1.391 . S
C1087 C1086 1.386 . S
C1087 C1091 1.393 . S
C1088 H1077 0.950 . S
C1088 C1086 1.391 . S
C1088 C1089 1.400 . S
C1089 C1083 1.491 . S
C1089 C1088 1.400 . S
C1089 C1090 1.398 . S
C1090 H1078 0.950 . S
C1090 C1089 1.398 . S
C1090 C1091 1.391 . S
C1091 H1079 0.950 . S
C1091 C1087 1.393 . S
C1091 C1090 1.391 . S
H1092 C1100 0.950 . S
H1093 C1105 0.950 . S
H1094 C1102 0.950 . S
H1095 C1104 0.950 . S
H1096 C1106 0.950 . S
H1097 C1108 0.950 . S
H1098 C1110 0.950 . S
H1099 C1111 0.950 . S
C1100 H1092 0.950 . S
C1100 C1101 1.386 . S
C1100 C1102 1.391 . S
C1101 C1100 1.386 . S
C1101 C1105 1.393 . S
C1102 H1094 0.950 . S
C1102 C1100 1.391 . S
C1102 C1103 1.400 . S
C1103 C1102 1.400 . S
C1103 C1104 1.398 . S
C1103 C1109 1.491 . S
C1104 H1095 0.950 . S
C1104 C1103 1.398 . S
C1104 C1105 1.391 . S
C1105 H1093 0.950 . S
C1105 C1101 1.393 . S
C1105 C1104 1.391 . S
C1106 H1096 0.950 . S
C1106 C1107 1.386 . S
C1106 C1108 1.391 . S
C1107 C1106 1.386 . S
C1107 C1111 1.393 . S
C1108 H1097 0.950 . S
C1108 C1106 1.391 . S
C1108 C1109 1.400 . S
C1109 C1103 1.491 . S
C1109 C1108 1.400 . S
C1109 C1110 1.398 . S
C1110 H1098 0.950 . S
C1110 C1109 1.398 . S
C1110 C1111 1.391 . S
C1111 H1099 0.950 . S
C1111 C1107 1.393 . S
C1111 C1110 1.391 . S
H1112 C1120 0.950 . S
H1113 C1125 0.950 . S
H1114 C1122 0.950 . S
H1115 C1124 0.950 . S
H1116 C1126 0.950 . S
H1117 C1128 0.950 . S
H1118 C1130 0.950 . S
H1119 C1131 0.950 . S
C1120 H1112 0.950 . S
C1120 C1121 1.386 . S
C1120 C1122 1.391 . S
C1121 C1120 1.386 . S
C1121 C1125 1.393 . S
C1122 H1114 0.950 . S
C1122 C1120 1.391 . S
C1122 C1123 1.400 . S
C1123 C1122 1.400 . S
C1123 C1124 1.398 . S
C1123 C1129 1.491 . S
C1124 H1115 0.950 . S
C1124 C1123 1.398 . S
C1124 C1125 1.391 . S
C1125 H1113 0.950 . S
C1125 C1121 1.393 . S
C1125 C1124 1.391 . S
C1126 H1116 0.950 . S
C1126 C1127 1.386 . S
C1126 C1128 1.391 . S
C1127 C1126 1.386 . S
C1127 C1131 1.393 . S
C1128 H1117 0.950 . S
C1128 C1126 1.391 . S
C1128 C1129 1.400 . S
C1129 C1123 1.491 . S
C1129 C1128 1.400 . S
C1129 C1130 1.398 . S
C1130 H1118 0.950 . S
C1130 C1129 1.398 . S
C1130 C1131 1.391 . S
C1131 H1119 0.950 . S
C1131 C1127 1.393 . S
C1131 C1130 1.391 . S
H1132 C1140 0.950 . S
H1133 C1145 0.950 . S
H1134 C1142 0.950 . S
H1135 C1144 0.950 . S
H1136 C1146 0.950 . S
H1137 C1148 0.950 . S
H1138 C1150 0.950 . S
H1139 C1151 0.950 . S
C1140 H1132 0.950 . S
C1140 C1141 1.386 . S
C1140 C1142 1.391 . S
C1141 C1140 1.386 . S
C1141 C1145 1.393 . S
C1142 H1134 0.950 . S
C1142 C1140 1.391 . S
C1142 C1143 1.400 . S
C1143 C1142 1.400 . S
C1143 C1144 1.398 . S
C1143 C1149 1.491 . S
C1144 H1135 0.950 . S
C1144 C1143 1.398 . S
C1144 C1145 1.391 . S
C1145 H1133 0.950 . S
C1145 C1141 1.393 . S
C1145 C1144 1.391 . S
C1146 H1136 0.950 . S
C1146 C1147 1.386 . S
C1146 C1148 1.391 . S
C1147 C1146 1.386 . S
C1147 C1151 1.393 . S
C1148 H1137 0.950 . S
C1148 C1146 1.391 . S
C1148 C1149 1.400 . S
C1149 C1143 1.491 . S
C1149 C1148 1.400 . S
C1149 C1150 1.398 . S
C1150 H1138 0.950 . S
C1150 C1149 1.398 . S
C1150 C1151 1.391 . S
C1151 H1139 0.950 . S
C1151 C1147 1.393 . S
C1151 C1150 1.391 . S
C681 C651 1.064 . S
C687 C69 1.030 . S
C701 C142 1.326 . S
C707 C405 1.053 . S
C721 C476 1.713 . S
C727 C224 1.627 . S
C741 C321 0.723 . S
C747 C560 0.333 . S
C761 C158 1.076 . S
C767 C562 1.041 . S
C781 C226 1.020 . S
C787 C657 1.304 . S
C801 C403 1.645 . S
C807 C319 1.711 . S
C821 C478 0.720 . S
C827 C67 0.323 . S
C841 C571 1.022 1_545 S
C847 C56 1.022 . S
C861 C147 3.148 . S
C867 C662 3.148 . S
C881 C394 1.445 . S
C887 C237 1.445 . S
C901 C308 3.477 . S
C907 C487 3.477 . S
C921 C392 1.974 1_545 S
C927 C235 1.974 . S
C941 C310 0.940 . S
C947 C489 0.940 . S
C961 C573 2.626 1_455 S
C967 C58 2.626 . S
C981 C153 1.175 . S
C987 C646 1.175 . S
C1001 C74 2.871 . S
C1007 C231 3.001 . S
C1021 C151 3.123 1_565 S
C1027 C326 3.021 . S
C1041 C410 2.999 . S
C1047 C567 2.879 . S
C1061 C644 3.121 . S
C1067 C483 3.013 . S
C1081 C63 2.556 . S
C1087 C242 2.625 . S
C1101 C140 2.783 . S
C1107 C315 2.828 . S
C1121 C399 2.617 . S
C1127 C578 2.568 . S
C1141 C494 2.828 . S
C1147 C655 2.787 . S
