# Generated by pormake.
# Topology cbo, (4)-cn, num edge types: 1
# Building blocks:
#     Node 0, Type 0, BuildingBlock: CEKHIL_clean_sbu_0, # of connection points: 4
#     Node 1, Type 0, BuildingBlock: CEKHIL_clean_sbu_0, # of connection points: 4
#     Node 2, Type 0, BuildingBlock: CEKHIL_clean_sbu_0, # of connection points: 4
#     Node 3, Type 0, BuildingBlock: CEKHIL_clean_sbu_0, # of connection points: 4
#     Node 4, Type 0, BuildingBlock: CEKHIL_clean_sbu_0, # of connection points: 4
#     Node 5, Type 0, BuildingBlock: CEKHIL_clean_sbu_0, # of connection points: 4
#     Node 6, Type 0, BuildingBlock: CEKHIL_clean_sbu_0, # of connection points: 4
#     Node 7, Type 0, BuildingBlock: CEKHIL_clean_sbu_0, # of connection points: 4
#     Node 8, Type 0, BuildingBlock: CEKHIL_clean_sbu_0, # of connection points: 4
#     Node 9, Type 0, BuildingBlock: CEKHIL_clean_sbu_0, # of connection points: 4
#     Node 10, Type 0, BuildingBlock: CEKHIL_clean_sbu_0, # of connection points: 4
#     Node 11, Type 0, BuildingBlock: CEKHIL_clean_sbu_0, # of connection points: 4
#     Node 12, Type 0, BuildingBlock: CEKHIL_clean_sbu_0, # of connection points: 4
#     Node 13, Type 0, BuildingBlock: CEKHIL_clean_sbu_0, # of connection points: 4
#     Node 14, Type 0, BuildingBlock: CEKHIL_clean_sbu_0, # of connection points: 4
#     Node 15, Type 0, BuildingBlock: CEKHIL_clean_sbu_0, # of connection points: 4
#     Node 16, Type 0, BuildingBlock: CEKHIL_clean_sbu_0, # of connection points: 4
#     Node 17, Type 0, BuildingBlock: CEKHIL_clean_sbu_0, # of connection points: 4
#     Node 18, Type 0, BuildingBlock: CEKHIL_clean_sbu_0, # of connection points: 4
#     Node 19, Type 0, BuildingBlock: CEKHIL_clean_sbu_0, # of connection points: 4
#     Node 20, Type 0, BuildingBlock: CEKHIL_clean_sbu_0, # of connection points: 4
#     Node 21, Type 0, BuildingBlock: CEKHIL_clean_sbu_0, # of connection points: 4
#     Node 22, Type 0, BuildingBlock: CEKHIL_clean_sbu_0, # of connection points: 4
#     Node 23, Type 0, BuildingBlock: CEKHIL_clean_sbu_0, # of connection points: 4
#     Edge 24, Type (0, 0), BuildingBlock: UVAHIK_clean_linker_0, # of connection points: 2
#     Edge 25, Type (0, 0), BuildingBlock: UVAHIK_clean_linker_0, # of connection points: 2
#     Edge 26, Type (0, 0), BuildingBlock: UVAHIK_clean_linker_0, # of connection points: 2
#     Edge 27, Type (0, 0), BuildingBlock: UVAHIK_clean_linker_0, # of connection points: 2
#     Edge 28, Type (0, 0), BuildingBlock: UVAHIK_clean_linker_0, # of connection points: 2
#     Edge 29, Type (0, 0), BuildingBlock: UVAHIK_clean_linker_0, # of connection points: 2
#     Edge 30, Type (0, 0), BuildingBlock: UVAHIK_clean_linker_0, # of connection points: 2
#     Edge 31, Type (0, 0), BuildingBlock: UVAHIK_clean_linker_0, # of connection points: 2
#     Edge 32, Type (0, 0), BuildingBlock: UVAHIK_clean_linker_0, # of connection points: 2
#     Edge 33, Type (0, 0), BuildingBlock: UVAHIK_clean_linker_0, # of connection points: 2
#     Edge 34, Type (0, 0), BuildingBlock: UVAHIK_clean_linker_0, # of connection points: 2
#     Edge 35, Type (0, 0), BuildingBlock: UVAHIK_clean_linker_0, # of connection points: 2
#     Edge 36, Type (0, 0), BuildingBlock: UVAHIK_clean_linker_0, # of connection points: 2
#     Edge 37, Type (0, 0), BuildingBlock: UVAHIK_clean_linker_0, # of connection points: 2
#     Edge 38, Type (0, 0), BuildingBlock: UVAHIK_clean_linker_0, # of connection points: 2
#     Edge 39, Type (0, 0), BuildingBlock: UVAHIK_clean_linker_0, # of connection points: 2
#     Edge 40, Type (0, 0), BuildingBlock: UVAHIK_clean_linker_0, # of connection points: 2
#     Edge 41, Type (0, 0), BuildingBlock: UVAHIK_clean_linker_0, # of connection points: 2
#     Edge 42, Type (0, 0), BuildingBlock: UVAHIK_clean_linker_0, # of connection points: 2
#     Edge 43, Type (0, 0), BuildingBlock: UVAHIK_clean_linker_0, # of connection points: 2
#     Edge 44, Type (0, 0), BuildingBlock: UVAHIK_clean_linker_0, # of connection points: 2
#     Edge 45, Type (0, 0), BuildingBlock: UVAHIK_clean_linker_0, # of connection points: 2
#     Edge 46, Type (0, 0), BuildingBlock: UVAHIK_clean_linker_0, # of connection points: 2
#     Edge 47, Type (0, 0), BuildingBlock: UVAHIK_clean_linker_0, # of connection points: 2
#     Edge 48, Type (0, 0), BuildingBlock: UVAHIK_clean_linker_0, # of connection points: 2
#     Edge 49, Type (0, 0), BuildingBlock: UVAHIK_clean_linker_0, # of connection points: 2
#     Edge 50, Type (0, 0), BuildingBlock: UVAHIK_clean_linker_0, # of connection points: 2
#     Edge 51, Type (0, 0), BuildingBlock: UVAHIK_clean_linker_0, # of connection points: 2
#     Edge 52, Type (0, 0), BuildingBlock: UVAHIK_clean_linker_0, # of connection points: 2
#     Edge 53, Type (0, 0), BuildingBlock: UVAHIK_clean_linker_0, # of connection points: 2
#     Edge 54, Type (0, 0), BuildingBlock: UVAHIK_clean_linker_0, # of connection points: 2
#     Edge 55, Type (0, 0), BuildingBlock: UVAHIK_clean_linker_0, # of connection points: 2
#     Edge 56, Type (0, 0), BuildingBlock: UVAHIK_clean_linker_0, # of connection points: 2
#     Edge 57, Type (0, 0), BuildingBlock: UVAHIK_clean_linker_0, # of connection points: 2
#     Edge 58, Type (0, 0), BuildingBlock: UVAHIK_clean_linker_0, # of connection points: 2
#     Edge 59, Type (0, 0), BuildingBlock: UVAHIK_clean_linker_0, # of connection points: 2
#     Edge 60, Type (0, 0), BuildingBlock: UVAHIK_clean_linker_0, # of connection points: 2
#     Edge 61, Type (0, 0), BuildingBlock: UVAHIK_clean_linker_0, # of connection points: 2
#     Edge 62, Type (0, 0), BuildingBlock: UVAHIK_clean_linker_0, # of connection points: 2
#     Edge 63, Type (0, 0), BuildingBlock: UVAHIK_clean_linker_0, # of connection points: 2
#     Edge 64, Type (0, 0), BuildingBlock: UVAHIK_clean_linker_0, # of connection points: 2
#     Edge 65, Type (0, 0), BuildingBlock: UVAHIK_clean_linker_0, # of connection points: 2
#     Edge 66, Type (0, 0), BuildingBlock: UVAHIK_clean_linker_0, # of connection points: 2
#     Edge 67, Type (0, 0), BuildingBlock: UVAHIK_clean_linker_0, # of connection points: 2
#     Edge 68, Type (0, 0), BuildingBlock: UVAHIK_clean_linker_0, # of connection points: 2
#     Edge 69, Type (0, 0), BuildingBlock: UVAHIK_clean_linker_0, # of connection points: 2
#     Edge 70, Type (0, 0), BuildingBlock: UVAHIK_clean_linker_0, # of connection points: 2
#     Edge 71, Type (0, 0), BuildingBlock: UVAHIK_clean_linker_0, # of connection points: 2
# Relax obj value: 0.197
# Max RMSD: 0.201
# Mean RMSD: 0.197
data_MOF--net-cbo--node1-CEKHIL_clean_sbu_0--edge1-UVAHIK_clean_linker_0
_symmetry_space_group_name_H-M    P1
_symmetry_Int_Tables_number       1
_symmetry_cell_setting            triclinic
loop_
_symmetry_equiv_pos_as_xyz
'x, y, z'
_cell_length_a     66.947101
_cell_length_b     66.29351
_cell_length_c     65.527903
_cell_angle_alpha  90.000108
_cell_angle_beta   90.013238
_cell_angle_gamma 90.022683
loop_
_atom_site_label
_atom_site_type_symbol
_atom_site_fract_x
_atom_site_fract_y
_atom_site_fract_z
_atom_type_partial_charge
Co0 Co 0.09582 0.19609 0.32334 0.0
O1 O 0.06801 0.19558 0.33074 0.0
O2 O 0.08627 0.16871 0.3231 0.0
C3 C 0.09429 0.22139 0.30056 0.0
O4 O 0.12428 0.19042 0.31411 0.0
Co5 Co 0.12294 0.2333 0.33185 0.0
O6 O 0.14299 0.21856 0.31543 0.0
C7 C 0.11388 0.2048 0.36514 0.0
C8 C 0.06899 0.17618 0.32801 0.0
C9 C 0.14066 0.20005 0.31083 0.0
O10 O 0.1039 0.19353 0.35284 0.0
O11 O 0.12175 0.22164 0.35999 0.0
O12 O 0.08884 0.20326 0.29552 0.0
O13 O 0.09813 0.22413 0.31971 0.0
Co14 Co 0.39924 0.801 0.82414 0.0
O15 O 0.42706 0.80068 0.83098 0.0
O16 O 0.40901 0.82831 0.82621 0.0
C17 C 0.40072 0.77794 0.79905 0.0
O18 O 0.37063 0.80738 0.81603 0.0
Co19 Co 0.37244 0.76301 0.82923 0.0
O20 O 0.35322 0.7786 0.81251 0.0
C21 C 0.38112 0.78886 0.86493 0.0
C22 C 0.42635 0.82023 0.82975 0.0
C23 C 0.35485 0.79765 0.81064 0.0
O24 O 0.39155 0.80084 0.85377 0.0
O25 O 0.37297 0.77267 0.85825 0.0
O26 O 0.40577 0.79655 0.79566 0.0
O27 O 0.39709 0.7734 0.8179 0.0
Co28 Co 0.5966 0.29758 0.67038 0.0
O29 O 0.56872 0.29763 0.66352 0.0
O30 O 0.58638 0.32472 0.67182 0.0
C31 C 0.59567 0.27137 0.69211 0.0
O32 O 0.62505 0.30343 0.67938 0.0
Co33 Co 0.62404 0.26121 0.65976 0.0
O34 O 0.64426 0.27577 0.67621 0.0
C35 C 0.61328 0.29051 0.6277 0.0
C36 C 0.56918 0.3169 0.66712 0.0
C37 C 0.64167 0.29399 0.68179 0.0
O38 O 0.60421 0.30151 0.64093 0.0
O39 O 0.62084 0.27327 0.63191 0.0
O40 O 0.59014 0.28921 0.698 0.0
O41 O 0.59942 0.26948 0.67284 0.0
Co42 Co 0.89898 0.69633 0.17008 0.0
O43 O 0.92706 0.69692 0.16409 0.0
O44 O 0.90978 0.66944 0.17186 0.0
C45 C 0.89861 0.72255 0.19179 0.0
O46 O 0.8704 0.68983 0.17821 0.0
Co47 Co 0.87107 0.73201 0.15841 0.0
O48 O 0.85081 0.71714 0.17452 0.0
C49 C 0.88364 0.70304 0.12678 0.0
C50 C 0.92694 0.67764 0.16767 0.0
C51 C 0.85357 0.69898 0.18021 0.0
O52 O 0.89236 0.6922 0.14041 0.0
O53 O 0.87563 0.72015 0.13066 0.0
O54 O 0.90442 0.70486 0.19786 0.0
O55 O 0.89542 0.72436 0.1724 0.0
Co56 Co 0.33119 0.10336 0.18789 0.0
O57 O 0.33216 0.07447 0.18868 0.0
O58 O 0.33196 0.09291 0.16044 0.0
C59 C 0.30631 0.10697 0.21053 0.0
O60 O 0.32914 0.13314 0.18097 0.0
Co61 Co 0.34141 0.12895 0.22607 0.0
O62 O 0.32929 0.15124 0.20998 0.0
C63 C 0.37379 0.1097 0.20279 0.0
C64 C 0.33173 0.07516 0.16887 0.0
C65 C 0.3269 0.14982 0.19073 0.0
O66 O 0.36118 0.10492 0.18881 0.0
O67 O 0.3687 0.11776 0.21978 0.0
O68 O 0.30251 0.10249 0.19165 0.0
O69 O 0.325 0.10711 0.21563 0.0
Co70 Co 0.16454 0.89481 0.68952 0.0
O71 O 0.16478 0.92368 0.68843 0.0
O72 O 0.16331 0.90353 0.66145 0.0
C73 C 0.18997 0.89154 0.71155 0.0
O74 O 0.16529 0.86454 0.68459 0.0
Co75 Co 0.15461 0.87215 0.72953 0.0
O76 O 0.16702 0.84904 0.71502 0.0
C77 C 0.12199 0.89034 0.70562 0.0
C78 C 0.16452 0.92175 0.66871 0.0
C79 C 0.16848 0.84881 0.69563 0.0
O80 O 0.13458 0.89475 0.69148 0.0
O81 O 0.12715 0.88238 0.72264 0.0
O82 O 0.1933 0.89458 0.69229 0.0
O83 O 0.17147 0.89268 0.71726 0.0
Co84 Co 0.83121 0.3932 0.80385 0.0
O85 O 0.83218 0.42208 0.80411 0.0
O86 O 0.83233 0.40266 0.83167 0.0
C87 C 0.80608 0.39033 0.7814 0.0
O88 O 0.82912 0.36311 0.80962 0.0
Co89 Co 0.84104 0.36913 0.76456 0.0
O90 O 0.82828 0.34661 0.77967 0.0
C91 C 0.87381 0.38684 0.7886 0.0
C92 C 0.83204 0.4207 0.82388 0.0
C93 C 0.82617 0.34706 0.79899 0.0
O94 O 0.86119 0.39182 0.80249 0.0
O95 O 0.86864 0.37887 0.77159 0.0
O96 O 0.8025 0.39417 0.80047 0.0
O97 O 0.82471 0.39048 0.77607 0.0
Co98 Co 0.66515 0.60009 0.30463 0.0
O99 O 0.66321 0.57125 0.30332 0.0
O100 O 0.66449 0.58919 0.33187 0.0
C101 C 0.68964 0.60347 0.28153 0.0
O102 O 0.66835 0.62967 0.31215 0.0
Co103 Co 0.65503 0.62694 0.26736 0.0
O104 O 0.66851 0.64831 0.28352 0.0
C105 C 0.62235 0.60892 0.29133 0.0
C106 C 0.66388 0.5716 0.32314 0.0
C107 C 0.67117 0.64643 0.30268 0.0
O108 O 0.63522 0.60254 0.30439 0.0
O109 O 0.62729 0.6178 0.27472 0.0
O110 O 0.6937 0.59841 0.30021 0.0
O111 O 0.67086 0.60426 0.27684 0.0
Co112 Co 0.19839 0.33344 0.09607 0.0
O113 O 0.19784 0.34087 0.06761 0.0
O114 O 0.17134 0.3334 0.08652 0.0
C115 C 0.22334 0.31088 0.0948 0.0
O116 O 0.19245 0.32428 0.12489 0.0
Co117 Co 0.23439 0.34175 0.12456 0.0
O118 O 0.21965 0.32532 0.1449 0.0
C119 C 0.20707 0.37495 0.11395 0.0
C120 C 0.17857 0.33848 0.06888 0.0
C121 C 0.20142 0.32074 0.14184 0.0
O122 O 0.19591 0.36253 0.10415 0.0
O123 O 0.2236 0.36993 0.12235 0.0
O124 O 0.2054 0.30594 0.0891 0.0
O125 O 0.22616 0.32982 0.09874 0.0
Co126 Co 0.70215 0.15673 0.89445 0.0
O127 O 0.70535 0.15031 0.92288 0.0
O128 O 0.67633 0.15465 0.90714 0.0
C129 C 0.72508 0.18137 0.89255 0.0
O130 O 0.69266 0.16431 0.86607 0.0
Co131 Co 0.73605 0.14995 0.86304 0.0
O132 O 0.71835 0.16483 0.84403 0.0
C133 C 0.712 0.11536 0.87668 0.0
C134 C 0.68596 0.15081 0.92391 0.0
C135 C 0.70007 0.16799 0.84836 0.0
O136 O 0.70124 0.12731 0.88745 0.0
O137 O 0.72723 0.12116 0.86643 0.0
O138 O 0.70741 0.18496 0.89988 0.0
O139 O 0.72912 0.1626 0.88889 0.0
Co140 Co 0.79622 0.83498 0.39675 0.0
O141 O 0.79627 0.84143 0.42544 0.0
O142 O 0.82324 0.83692 0.40628 0.0
C143 C 0.77321 0.81033 0.39744 0.0
O144 O 0.80274 0.82734 0.36758 0.0
Co145 Co 0.75941 0.84098 0.36873 0.0
O146 O 0.77529 0.82631 0.34793 0.0
C147 C 0.78377 0.87615 0.38048 0.0
C148 C 0.81566 0.84071 0.4241 0.0
C149 C 0.79391 0.8234 0.35064 0.0
O150 O 0.79613 0.86445 0.38969 0.0
O151 O 0.76766 0.86993 0.37205 0.0
O152 O 0.79156 0.80671 0.40276 0.0
O153 O 0.76885 0.82907 0.39411 0.0
Co154 Co 0.29167 0.65862 0.59974 0.0
O155 O 0.28819 0.65129 0.57157 0.0
O156 O 0.31735 0.65639 0.5868 0.0
C157 C 0.26856 0.68311 0.60111 0.0
O158 O 0.30144 0.66714 0.62778 0.0
Co159 Co 0.25817 0.65293 0.63186 0.0
O160 O 0.27513 0.67099 0.64868 0.0
C161 C 0.28216 0.6179 0.61908 0.0
C162 C 0.30756 0.65199 0.57027 0.0
C163 C 0.29361 0.67315 0.64462 0.0
O164 O 0.29276 0.62944 0.60768 0.0
O165 O 0.26713 0.62408 0.62942 0.0
O166 O 0.28612 0.68666 0.59347 0.0
O167 O 0.26476 0.66443 0.60542 0.0
Co168 Co 0.89722 0.82003 0.66519 0.0
O169 O 0.92545 0.81992 0.66015 0.0
O170 O 0.90736 0.8473 0.66618 0.0
C171 C 0.8967 0.79468 0.68795 0.0
O172 O 0.86813 0.82585 0.67191 0.0
Co173 Co 0.87137 0.78281 0.65342 0.0
O174 O 0.85041 0.79712 0.66928 0.0
C175 C 0.88705 0.8095 0.62146 0.0
C176 C 0.92477 0.83935 0.66259 0.0
C177 C 0.85192 0.81566 0.67428 0.0
O178 O 0.89185 0.82255 0.63511 0.0
O179 O 0.88064 0.79179 0.62569 0.0
O180 O 0.90168 0.81278 0.69359 0.0
O181 O 0.89447 0.79209 0.66853 0.0
Co182 Co 0.60078 0.17363 0.1653 0.0
O183 O 0.57259 0.17267 0.15988 0.0
O184 O 0.59158 0.146 0.1663 0.0
C185 C 0.59997 0.19899 0.18808 0.0
O186 O 0.63006 0.16887 0.17245 0.0
Co187 Co 0.62552 0.21193 0.15449 0.0
O188 O 0.64683 0.19821 0.17027 0.0
C189 C 0.61138 0.18491 0.12183 0.0
C190 C 0.57394 0.15332 0.16253 0.0
C191 C 0.64592 0.17959 0.17508 0.0
O192 O 0.60649 0.17154 0.13517 0.0
O193 O 0.61733 0.20265 0.12661 0.0
O194 O 0.5957 0.18071 0.1937 0.0
O195 O 0.6024 0.20162 0.16871 0.0
Co196 Co 0.39786 0.68092 0.33053 0.0
O197 O 0.42561 0.68142 0.33799 0.0
O198 O 0.40823 0.65378 0.3311 0.0
C199 C 0.39917 0.70574 0.30718 0.0
O200 O 0.36952 0.67444 0.32134 0.0
Co201 Co 0.37038 0.71792 0.33833 0.0
O202 O 0.35054 0.70242 0.32221 0.0
C203 C 0.38241 0.69193 0.37268 0.0
C204 C 0.42528 0.66194 0.33583 0.0
C205 C 0.35307 0.68387 0.3178 0.0
O206 O 0.38995 0.67911 0.36012 0.0
O207 O 0.37558 0.70911 0.36711 0.0
O208 O 0.40469 0.68755 0.30246 0.0
O209 O 0.39513 0.70876 0.32622 0.0
Co210 Co 0.09912 0.31464 0.82786 0.0
O211 O 0.07091 0.31405 0.83308 0.0
O212 O 0.0885 0.34167 0.82661 0.0
C213 C 0.10008 0.28904 0.80546 0.0
O214 O 0.128 0.32101 0.82084 0.0
Co215 Co 0.12593 0.27834 0.84006 0.0
O216 O 0.14698 0.2933 0.82493 0.0
C217 C 0.10939 0.3048 0.87165 0.0
C218 C 0.07125 0.33346 0.83042 0.0
C219 C 0.14472 0.31155 0.81921 0.0
O220 O 0.10458 0.31767 0.85786 0.0
O221 O 0.11607 0.28716 0.86762 0.0
O222 O 0.09465 0.30695 0.79963 0.0
O223 O 0.10248 0.28671 0.8249 0.0
Co224 Co 0.65713 0.87143 0.82601 0.0
O225 O 0.63059 0.86844 0.83626 0.0
O226 O 0.63816 0.87867 0.80491 0.0
C227 C 0.6689 0.84188 0.83792 0.0
O228 O 0.68295 0.87507 0.81004 0.0
Co229 Co 0.6925 0.874 0.8568 0.0
O230 O 0.70875 0.87078 0.83165 0.0
C231 C 0.6658 0.90865 0.85149 0.0
C232 C 0.62458 0.87409 0.81834 0.0
C233 C 0.70176 0.87307 0.81368 0.0
O234 O 0.65807 0.90027 0.83565 0.0
O235 O 0.67817 0.89975 0.86335 0.0
O236 O 0.65873 0.84236 0.82103 0.0
O237 O 0.66957 0.85864 0.84791 0.0
Co238 Co 0.84213 0.12095 0.32983 0.0
O239 O 0.86799 0.11719 0.34158 0.0
O240 O 0.86021 0.11011 0.30944 0.0
C241 C 0.83679 0.15231 0.34181 0.0
O242 O 0.8168 0.12351 0.3127 0.0
Co243 Co 0.80604 0.12614 0.3594 0.0
O244 O 0.79178 0.13276 0.33369 0.0
C245 C 0.82441 0.08631 0.35414 0.0
C246 C 0.87358 0.11061 0.32387 0.0
C247 C 0.79865 0.12922 0.31588 0.0
O248 O 0.83432 0.09297 0.33875 0.0
O249 O 0.81389 0.09761 0.36577 0.0
O250 O 0.84737 0.14961 0.32542 0.0
O251 O 0.83201 0.13606 0.35151 0.0
Co252 Co 0.15743 0.62026 0.16711 0.0
O253 O 0.13135 0.62038 0.15513 0.0
O254 O 0.13781 0.61278 0.18743 0.0
C255 C 0.168 0.64997 0.15449 0.0
O256 O 0.18251 0.61931 0.18468 0.0
Co257 Co 0.19432 0.61836 0.13817 0.0
O258 O 0.20951 0.62059 0.16409 0.0
C259 C 0.1688 0.58295 0.1432 0.0
C260 C 0.12471 0.61501 0.17292 0.0
C261 C 0.20153 0.62002 0.18176 0.0
O262 O 0.16083 0.59114 0.15901 0.0
O263 O 0.18071 0.5923 0.13122 0.0
O264 O 0.15673 0.64954 0.17064 0.0
O265 O 0.17028 0.63289 0.14533 0.0
Co266 Co 0.33963 0.37205 0.6651 0.0
O267 O 0.3657 0.37304 0.65312 0.0
O268 O 0.35897 0.37997 0.68552 0.0
C269 C 0.33005 0.34216 0.65208 0.0
O270 O 0.31461 0.37192 0.68273 0.0
Co271 Co 0.30256 0.37294 0.63632 0.0
O272 O 0.28756 0.36995 0.66227 0.0
C273 C 0.32654 0.40936 0.64203 0.0
C274 C 0.37214 0.37842 0.67099 0.0
C275 C 0.29562 0.37063 0.6799 0.0
O276 O 0.33516 0.40114 0.65746 0.0
O277 O 0.31486 0.39979 0.62999 0.0
O278 O 0.34135 0.34275 0.6682 0.0
O279 O 0.32717 0.35928 0.64317 0.0
Co280 Co 0.83341 0.64899 0.87983 0.0
O281 O 0.84483 0.62255 0.8809 0.0
O282 O 0.81327 0.62982 0.88817 0.0
C283 C 0.84608 0.65839 0.8495 0.0
O284 O 0.81628 0.67434 0.87958 0.0
Co285 Co 0.86139 0.68651 0.88018 0.0
O286 O 0.83616 0.70152 0.87566 0.0
C287 C 0.85617 0.66259 0.91745 0.0
C288 C 0.82732 0.61634 0.88666 0.0
C289 C 0.81893 0.69341 0.87702 0.0
O290 O 0.84129 0.65345 0.90916 0.0
O291 O 0.86743 0.67486 0.90769 0.0
O292 O 0.83017 0.64715 0.85021 0.0
O293 O 0.85489 0.66134 0.86676 0.0
Co294 Co 0.32922 0.84548 0.11341 0.0
O295 O 0.34068 0.87181 0.11075 0.0
O296 O 0.30855 0.86467 0.10662 0.0
C297 C 0.34458 0.83675 0.14263 0.0
O298 O 0.31208 0.82027 0.11566 0.0
Co299 Co 0.35686 0.80773 0.1115 0.0
O300 O 0.33191 0.79292 0.11816 0.0
C301 C 0.34877 0.83116 0.07447 0.0
C302 C 0.32276 0.87807 0.10663 0.0
C303 C 0.3147 0.80119 0.11812 0.0
O304 O 0.33437 0.84025 0.08362 0.0
O305 O 0.361 0.81937 0.08356 0.0
O306 O 0.32867 0.84798 0.14315 0.0
O307 O 0.35174 0.83329 0.1247 0.0
Co308 Co 0.16773 0.14752 0.6127 0.0
O309 O 0.15593 0.12134 0.61007 0.0
O310 O 0.18782 0.1284 0.60418 0.0
C311 C 0.15416 0.15577 0.64296 0.0
O312 O 0.18521 0.17253 0.61455 0.0
Co313 Co 0.14041 0.1855 0.61313 0.0
O314 O 0.1658 0.19998 0.61879 0.0
C315 C 0.14618 0.16286 0.5752 0.0
C316 C 0.17353 0.1151 0.60464 0.0
C317 C 0.1829 0.19156 0.61765 0.0
O318 O 0.16093 0.15346 0.58338 0.0
O319 O 0.13459 0.17461 0.58519 0.0
O320 O 0.16994 0.14436 0.64231 0.0
O321 O 0.14602 0.15963 0.62554 0.0
Co322 Co 0.66944 0.33994 0.38112 0.0
O323 O 0.65594 0.36538 0.38267 0.0
O324 O 0.68824 0.36072 0.3886 0.0
C325 C 0.65609 0.32986 0.35132 0.0
O326 O 0.68871 0.31623 0.38013 0.0
Co327 Co 0.64554 0.29971 0.38174 0.0
O328 O 0.67138 0.28812 0.37263 0.0
C329 C 0.64927 0.3241 0.41915 0.0
C330 C 0.67315 0.37304 0.38751 0.0
C331 C 0.68784 0.29754 0.37488 0.0
O332 O 0.66295 0.33481 0.41065 0.0
O333 O 0.63933 0.31055 0.4096 0.0
O334 O 0.67125 0.34214 0.3514 0.0
O335 O 0.64851 0.32584 0.36895 0.0
C336 C 0.17214 0.30078 0.15384 0.0
C337 C 0.18977 0.31138 0.15842 0.0
C338 C 0.16064 0.2924 0.16939 0.0
C339 C 0.14821 0.29722 0.22313 0.0
H340 H 0.13221 0.24119 0.21861 0.0
C341 C 0.11337 0.25194 0.2896 0.0
C342 C 0.10045 0.23595 0.28479 0.0
C343 C 0.12237 0.26316 0.27407 0.0
C344 C 0.13615 0.25697 0.21995 0.0
H345 H 0.20916 0.32155 0.18288 0.0
H346 H 0.18877 0.30699 0.21021 0.0
H347 H 0.15242 0.25631 0.19188 0.0
H348 H 0.08511 0.2205 0.2602 0.0
H349 H 0.10004 0.24064 0.23317 0.0
H350 H 0.13168 0.29801 0.25108 0.0
C351 C 0.18398 0.30523 0.19452 0.0
C352 C 0.14788 0.26555 0.2047 0.0
C353 C 0.19569 0.31339 0.1789 0.0
C354 C 0.0953 0.23253 0.26432 0.0
C355 C 0.10401 0.24395 0.24884 0.0
C356 C 0.13622 0.2887 0.23833 0.0
C357 C 0.16638 0.29465 0.18985 0.0
C358 C 0.15406 0.2857 0.20618 0.0
C359 C 0.11831 0.25881 0.25348 0.0
C360 C 0.1301 0.26844 0.23693 0.0
H361 H 0.16723 0.29891 0.1382 0.0
H362 H 0.14708 0.28438 0.16544 0.0
H363 H 0.15266 0.31288 0.22447 0.0
H364 H 0.11745 0.25509 0.30525 0.0
H365 H 0.13332 0.27446 0.27824 0.0
C366 C 0.39626 0.77156 0.7619 0.0
C367 C 0.39526 0.76446 0.78207 0.0
C368 C 0.38825 0.76022 0.74598 0.0
C369 C 0.3702 0.71036 0.73023 0.0
H370 H 0.33159 0.74106 0.69877 0.0
C371 C 0.32743 0.67966 0.65952 0.0
C372 C 0.30664 0.6827 0.66 0.0
C373 C 0.33973 0.68875 0.67408 0.0
C374 C 0.34234 0.73233 0.70742 0.0
H375 H 0.38647 0.73933 0.80126 0.0
H376 H 0.37247 0.7194 0.77326 0.0
H377 H 0.35186 0.75806 0.72449 0.0
H378 H 0.28247 0.6977 0.67599 0.0
H379 H 0.30405 0.71386 0.70118 0.0
H380 H 0.36045 0.68457 0.71312 0.0
C381 C 0.37941 0.73378 0.76986 0.0
C382 C 0.35405 0.74206 0.72198 0.0
C383 C 0.38733 0.74521 0.78586 0.0
C384 C 0.29841 0.69502 0.67527 0.0
C385 C 0.31074 0.70434 0.68961 0.0
C386 C 0.35864 0.70065 0.71541 0.0
C387 C 0.37923 0.74152 0.74991 0.0
C388 C 0.36794 0.73115 0.73363 0.0
C389 C 0.33149 0.70129 0.68912 0.0
C390 C 0.34445 0.71154 0.7041 0.0
H391 H 0.40246 0.78627 0.75848 0.0
H392 H 0.38851 0.76637 0.73067 0.0
H393 H 0.38084 0.70166 0.73903 0.0
H394 H 0.33419 0.67017 0.64798 0.0
H395 H 0.35572 0.68629 0.67336 0.0
C396 C 0.61482 0.24067 0.70243 0.0
C397 C 0.60093 0.25579 0.70718 0.0
C398 C 0.62241 0.22823 0.71779 0.0
C399 C 0.62993 0.22951 0.77355 0.0
H400 H 0.6503 0.17541 0.76505 0.0
C401 C 0.66797 0.18401 0.83746 0.0
C402 C 0.68673 0.17595 0.83231 0.0
C403 C 0.65546 0.19178 0.82235 0.0
C404 C 0.64466 0.19052 0.76757 0.0
H405 H 0.58254 0.26853 0.73113 0.0
H406 H 0.595 0.24623 0.75774 0.0
H407 H 0.63062 0.19165 0.73825 0.0
H408 H 0.70686 0.16931 0.80722 0.0
H409 H 0.68486 0.18283 0.78083 0.0
H410 H 0.64394 0.22833 0.80285 0.0
C411 C 0.60079 0.24452 0.74241 0.0
C412 C 0.63345 0.19985 0.75225 0.0
C413 C 0.59353 0.2572 0.72715 0.0
C414 C 0.69255 0.17551 0.8117 0.0
C415 C 0.67991 0.18307 0.79657 0.0
C416 C 0.64088 0.2201 0.78891 0.0
C417 C 0.61594 0.23045 0.7381 0.0
C418 C 0.62618 0.21958 0.75495 0.0
C419 C 0.66134 0.19142 0.8018 0.0
C420 C 0.64857 0.20065 0.78596 0.0
H421 H 0.62071 0.23918 0.68712 0.0
H422 H 0.63413 0.21766 0.71388 0.0
H423 H 0.62504 0.24488 0.77604 0.0
H424 H 0.66305 0.18458 0.85319 0.0
H425 H 0.64116 0.19808 0.82674 0.0
C426 C 0.89941 0.73675 0.22683 0.0
C427 C 0.8924 0.7379 0.2067 0.0
C428 C 0.8912 0.74895 0.24197 0.0
C429 C 0.85644 0.79196 0.25151 0.0
H430 H 0.84696 0.76275 0.30189 0.0
C431 C 0.79897 0.81555 0.31353 0.0
C432 C 0.80606 0.81527 0.33372 0.0
C433 C 0.81071 0.80792 0.29766 0.0
C434 C 0.84966 0.77116 0.28798 0.0
H435 H 0.87233 0.75368 0.18624 0.0
H436 H 0.85728 0.77437 0.21281 0.0
H437 H 0.86613 0.74695 0.27484 0.0
H438 H 0.831 0.80675 0.3531 0.0
H439 H 0.85123 0.79318 0.32547 0.0
H440 H 0.8391 0.81587 0.26468 0.0
C441 C 0.86939 0.76434 0.21692 0.0
C442 C 0.86078 0.76219 0.27249 0.0
C443 C 0.87793 0.75238 0.20168 0.0
C444 C 0.82509 0.80723 0.33772 0.0
C445 C 0.83667 0.7994 0.32193 0.0
C446 C 0.84505 0.80085 0.26697 0.0
C447 C 0.87547 0.76226 0.23737 0.0
C448 C 0.86437 0.77247 0.25407 0.0
C449 C 0.82958 0.79964 0.30179 0.0
C450 C 0.84161 0.7905 0.28533 0.0
H451 H 0.91083 0.72593 0.23103 0.0
H452 H 0.89673 0.74743 0.25742 0.0
H453 H 0.85906 0.80038 0.23761 0.0
H454 H 0.7844 0.82173 0.30996 0.0
H455 H 0.80487 0.8081 0.28224 0.0
C456 C 0.27063 0.10632 0.22055 0.0
C457 C 0.29013 0.11306 0.22439 0.0
C458 C 0.25466 0.11364 0.23196 0.0
C459 C 0.24123 0.14378 0.278 0.0
H460 H 0.1933 0.15429 0.24643 0.0
C461 C 0.17726 0.19666 0.3039 0.0
C462 C 0.15774 0.18903 0.30193 0.0
C463 C 0.19347 0.18612 0.29581 0.0
C464 C 0.20651 0.15125 0.25547 0.0
H465 H 0.30846 0.13207 0.24366 0.0
H466 H 0.2804 0.14568 0.26312 0.0
H467 H 0.22169 0.13807 0.23021 0.0
H468 H 0.13993 0.16441 0.28986 0.0
H469 H 0.16831 0.14622 0.27532 0.0
H470 H 0.22603 0.15788 0.30304 0.0
C471 C 0.27744 0.13435 0.25161 0.0
C472 C 0.22278 0.14184 0.24624 0.0
C473 C 0.29353 0.12665 0.24042 0.0
C474 C 0.15478 0.17067 0.29165 0.0
C475 C 0.17098 0.16029 0.28329 0.0
C476 C 0.225 0.15348 0.28715 0.0
C477 C 0.25774 0.12827 0.24717 0.0
C478 C 0.24035 0.13792 0.25738 0.0
C479 C 0.19045 0.16792 0.28533 0.0
C480 C 0.20751 0.15726 0.27595 0.0
H481 H 0.26767 0.09558 0.20845 0.0
H482 H 0.23981 0.10809 0.22853 0.0
H483 H 0.25439 0.14079 0.28711 0.0
H484 H 0.18005 0.21071 0.31185 0.0
H485 H 0.20833 0.19239 0.2974 0.0
C486 C 0.33669 0.83018 0.80493 0.0
C487 C 0.33754 0.8091 0.80281 0.0
C488 C 0.32003 0.84091 0.7981 0.0
C489 C 0.2671 0.83432 0.78252 0.0
H490 H 0.27606 0.88434 0.75329 0.0
C491 C 0.2024 0.87903 0.74539 0.0
C492 C 0.20623 0.88523 0.72528 0.0
C493 C 0.21797 0.87188 0.75768 0.0
C494 C 0.2733 0.8704 0.76144 0.0
H495 H 0.32165 0.78277 0.79164 0.0
H496 H 0.2929 0.80151 0.77924 0.0
H497 H 0.30417 0.867 0.7689 0.0
H498 H 0.22932 0.88932 0.70241 0.0
H499 H 0.25622 0.8767 0.72359 0.0
H500 H 0.23636 0.83722 0.77406 0.0
C501 C 0.30485 0.80973 0.78666 0.0
C502 C 0.28939 0.86057 0.77059 0.0
C503 C 0.32142 0.799 0.79362 0.0
C504 C 0.22588 0.88465 0.71786 0.0
C505 C 0.24136 0.87757 0.73007 0.0
C506 C 0.25101 0.84412 0.77328 0.0
C507 C 0.30393 0.8308 0.78887 0.0
C508 C 0.28654 0.84219 0.78086 0.0
C509 C 0.23759 0.87093 0.75005 0.0
C510 C 0.25403 0.86202 0.76223 0.0
H511 H 0.34878 0.83842 0.8121 0.0
H512 H 0.3197 0.8571 0.80022 0.0
H513 H 0.26435 0.82037 0.79066 0.0
H514 H 0.18737 0.87935 0.75149 0.0
H515 H 0.21464 0.86699 0.77308 0.0
C516 C 0.77012 0.38918 0.77255 0.0
C517 C 0.78985 0.38391 0.76775 0.0
C518 C 0.75425 0.38122 0.76143 0.0
C519 C 0.741 0.35232 0.71463 0.0
H520 H 0.69511 0.33723 0.74745 0.0
C521 C 0.67835 0.29807 0.68786 0.0
C522 C 0.65869 0.30491 0.69092 0.0
C523 C 0.69448 0.30863 0.69613 0.0
C524 C 0.70776 0.34152 0.73808 0.0
H525 H 0.80862 0.36696 0.74701 0.0
H526 H 0.7808 0.35226 0.72801 0.0
H527 H 0.72321 0.35426 0.76342 0.0
H528 H 0.64052 0.32807 0.70515 0.0
H529 H 0.66876 0.34625 0.71998 0.0
H530 H 0.72556 0.33873 0.68943 0.0
C531 C 0.77756 0.3629 0.7401 0.0
C532 C 0.72384 0.35139 0.74717 0.0
C533 C 0.79352 0.37123 0.75103 0.0
C534 C 0.65549 0.32244 0.7025 0.0
C535 C 0.6716 0.33281 0.71103 0.0
C536 C 0.72498 0.34215 0.70559 0.0
C537 C 0.75771 0.36743 0.74553 0.0
C538 C 0.74062 0.35705 0.73556 0.0
C539 C 0.69122 0.32602 0.70786 0.0
C540 C 0.7082 0.33677 0.71725 0.0
H541 H 0.76691 0.3992 0.78519 0.0
H542 H 0.73921 0.38559 0.76562 0.0
H543 H 0.75356 0.35662 0.70518 0.0
H544 H 0.68131 0.28467 0.6789 0.0
H545 H 0.70948 0.30302 0.69364 0.0
C546 C 0.81692 0.69502 0.1867 0.0
C547 C 0.83655 0.68785 0.18914 0.0
C548 C 0.80082 0.68444 0.195 0.0
C549 C 0.7882 0.65027 0.23628 0.0
H550 H 0.74058 0.63832 0.20475 0.0
C551 C 0.72531 0.60367 0.27135 0.0
C552 C 0.70565 0.60996 0.26762 0.0
C553 C 0.74107 0.61144 0.25992 0.0
C554 C 0.75368 0.64173 0.21382 0.0
H555 H 0.85466 0.66399 0.20224 0.0
H556 H 0.8265 0.64572 0.21704 0.0
H557 H 0.7686 0.6558 0.18859 0.0
H558 H 0.68683 0.62862 0.24848 0.0
H559 H 0.71449 0.64295 0.22896 0.0
H560 H 0.77329 0.63701 0.26169 0.0
C561 C 0.82364 0.65947 0.20859 0.0
C562 C 0.76971 0.65167 0.20455 0.0
C563 C 0.83973 0.66989 0.20007 0.0
C564 C 0.70188 0.62354 0.25166 0.0
C565 C 0.71774 0.63166 0.24043 0.0
C566 C 0.77213 0.6406 0.24561 0.0
C567 C 0.80406 0.66666 0.20613 0.0
C568 C 0.78712 0.65595 0.21571 0.0
C569 C 0.73758 0.62604 0.24477 0.0
C570 C 0.75469 0.63611 0.2345 0.0
H571 H 0.81395 0.70876 0.17829 0.0
H572 H 0.78586 0.69038 0.19306 0.0
H573 H 0.80133 0.65371 0.2453 0.0
H574 H 0.72857 0.59295 0.28338 0.0
H575 H 0.75605 0.60627 0.26326 0.0
C576 C 0.32316 0.16873 0.15787 0.0
C577 C 0.32084 0.16797 0.17917 0.0
C578 C 0.31638 0.18539 0.14681 0.0
C579 C 0.29787 0.2382 0.15268 0.0
H580 H 0.27101 0.2266 0.1016 0.0
C581 C 0.23289 0.27482 0.09927 0.0
C582 C 0.23815 0.29529 0.10024 0.0
C583 C 0.24589 0.26003 0.1065 0.0
C584 C 0.2784 0.23011 0.11586 0.0
H585 H 0.30982 0.1842 0.20561 0.0
H586 H 0.29739 0.21288 0.18632 0.0
H587 H 0.28798 0.19965 0.1197 0.0
H588 H 0.26156 0.31632 0.10861 0.0
H589 H 0.28459 0.2904 0.12081 0.0
H590 H 0.28714 0.26839 0.14949 0.0
C591 C 0.30494 0.20092 0.17814 0.0
C592 C 0.28841 0.21469 0.12613 0.0
C593 C 0.31196 0.18439 0.18922 0.0
C594 C 0.25706 0.30065 0.10778 0.0
C595 C 0.27018 0.28581 0.11489 0.0
C596 C 0.28766 0.25359 0.14252 0.0
C597 C 0.30687 0.20155 0.15676 0.0
C598 C 0.29796 0.21843 0.14488 0.0
C599 C 0.26458 0.26534 0.1147 0.0
C600 C 0.27745 0.24964 0.12419 0.0
H601 H 0.33014 0.1564 0.1497 0.0
H602 H 0.31847 0.18551 0.13043 0.0
H603 H 0.30537 0.24174 0.16688 0.0
H604 H 0.21839 0.2702 0.09359 0.0
H605 H 0.2409 0.2445 0.10639 0.0
C606 C 0.8099 0.31315 0.79813 0.0
C607 C 0.8192 0.32856 0.80941 0.0
C608 C 0.80174 0.29643 0.80799 0.0
C609 C 0.80256 0.26584 0.85422 0.0
H610 H 0.74691 0.2555 0.84134 0.0
C611 C 0.75725 0.19413 0.87775 0.0
C612 C 0.73821 0.19799 0.88588 0.0
C613 C 0.7688 0.20993 0.86988 0.0
C614 C 0.76244 0.25824 0.8451 0.0
H615 H 0.82799 0.33807 0.83981 0.0
H616 H 0.81391 0.30851 0.85702 0.0
H617 H 0.76449 0.28295 0.82423 0.0
H618 H 0.71662 0.22143 0.89283 0.0
H619 H 0.73662 0.24882 0.87883 0.0
H620 H 0.80043 0.24087 0.87501 0.0
C621 C 0.8129 0.30956 0.84055 0.0
C622 C 0.77251 0.27382 0.83522 0.0
C623 C 0.82084 0.32649 0.83071 0.0
C624 C 0.7312 0.21795 0.88659 0.0
C625 C 0.7426 0.23363 0.87853 0.0
C626 C 0.79253 0.24997 0.8639 0.0
C627 C 0.80294 0.29461 0.82929 0.0
C628 C 0.79263 0.27781 0.83972 0.0
C629 C 0.76134 0.22973 0.86981 0.0
C630 C 0.77233 0.24617 0.85951 0.0
H631 H 0.80834 0.31428 0.78172 0.0
H632 H 0.79423 0.28501 0.79898 0.0
H633 H 0.8181 0.26864 0.85787 0.0
H634 H 0.76303 0.17889 0.87706 0.0
H635 H 0.7832 0.20657 0.86315 0.0
C636 C 0.76632 0.77379 0.39172 0.0
C637 C 0.75944 0.79379 0.392 0.0
C638 C 0.75404 0.75827 0.38468 0.0
C639 C 0.7231 0.72625 0.3763 0.0
H640 H 0.6917 0.73775 0.32797 0.0
C641 C 0.67745 0.66416 0.33588 0.0
C642 C 0.67809 0.66416 0.31444 0.0
C643 C 0.68476 0.68061 0.34694 0.0
C644 C 0.70045 0.73425 0.34141 0.0
H645 H 0.73403 0.81316 0.38605 0.0
H646 H 0.71233 0.78596 0.37421 0.0
H647 H 0.70957 0.76494 0.34489 0.0
H648 H 0.68683 0.68151 0.28781 0.0
H649 H 0.70005 0.70984 0.30704 0.0
H650 H 0.71495 0.69537 0.37212 0.0
C651 C 0.72739 0.78231 0.37897 0.0
C652 C 0.71047 0.74992 0.35132 0.0
C653 C 0.73977 0.79788 0.38587 0.0
C654 C 0.68597 0.68107 0.30431 0.0
C655 C 0.69344 0.69741 0.31536 0.0
C656 C 0.71323 0.71055 0.36628 0.0
C657 C 0.73451 0.76237 0.37792 0.0
C658 C 0.72221 0.74607 0.36868 0.0
C659 C 0.69305 0.69734 0.33682 0.0
C660 C 0.70206 0.7143 0.3485 0.0
H661 H 0.78145 0.77016 0.3963 0.0
H662 H 0.76017 0.74319 0.38381 0.0
H663 H 0.73173 0.72278 0.38983 0.0
H664 H 0.67134 0.65143 0.34415 0.0
H665 H 0.68394 0.68017 0.36344 0.0
C666 C 0.173 0.8275 0.66432 0.0
C667 C 0.17505 0.83 0.68553 0.0
C668 C 0.18084 0.81046 0.65464 0.0
C669 C 0.22157 0.77503 0.6599 0.0
H670 H 0.19355 0.74221 0.62007 0.0
C671 C 0.26269 0.71967 0.60763 0.0
C672 C 0.25556 0.69974 0.60799 0.0
C673 C 0.25143 0.73525 0.61608 0.0
C674 C 0.20148 0.75127 0.63119 0.0
H675 H 0.18649 0.8163 0.71327 0.0
H676 H 0.20042 0.78677 0.69628 0.0
H677 H 0.17586 0.76972 0.63754 0.0
H678 H 0.23069 0.6806 0.61662 0.0
H679 H 0.21076 0.70809 0.63116 0.0
H680 H 0.24723 0.7569 0.65344 0.0
C681 C 0.19267 0.79798 0.68721 0.0
C682 C 0.19143 0.76699 0.64108 0.0
C683 C 0.18461 0.81484 0.69692 0.0
C684 C 0.23655 0.69582 0.61617 0.0
C685 C 0.22514 0.71151 0.62442 0.0
C686 C 0.23166 0.75958 0.64982 0.0
C687 C 0.19113 0.79579 0.66597 0.0
C688 C 0.20141 0.77894 0.65557 0.0
C689 C 0.2327 0.73128 0.62483 0.0
C690 C 0.22173 0.74757 0.63538 0.0
H691 H 0.16565 0.83888 0.65514 0.0
H692 H 0.17955 0.80914 0.63822 0.0
H693 H 0.22964 0.78415 0.67087 0.0
H694 H 0.27727 0.72317 0.6014 0.0
H695 H 0.25748 0.75041 0.61604 0.0
C696 C 0.84179 0.6668 0.81242 0.0
C697 C 0.85183 0.66972 0.83104 0.0
C698 C 0.84633 0.67886 0.7955 0.0
C699 C 0.86397 0.72907 0.78358 0.0
H700 H 0.87897 0.70867 0.73028 0.0
C701 C 0.8973 0.7816 0.72352 0.0
C702 C 0.89193 0.77889 0.70302 0.0
C703 C 0.892 0.76732 0.73816 0.0
C704 C 0.8745 0.71462 0.74497 0.0
H705 H 0.87494 0.68703 0.84633 0.0
H706 H 0.88249 0.70823 0.81703 0.0
H707 H 0.87 0.68501 0.75751 0.0
H708 H 0.87706 0.75897 0.68162 0.0
H709 H 0.86722 0.73421 0.70734 0.0
H710 H 0.86798 0.75858 0.77129 0.0
C711 C 0.87113 0.69667 0.81553 0.0
C712 C 0.86943 0.70106 0.76052 0.0
C713 C 0.86682 0.68449 0.83227 0.0
C714 C 0.88142 0.76143 0.69734 0.0
C715 C 0.87587 0.7472 0.71206 0.0
C716 C 0.86874 0.74258 0.76804 0.0
C717 C 0.86075 0.69417 0.7971 0.0
C718 C 0.86454 0.70822 0.78005 0.0
C719 C 0.88091 0.75011 0.7327 0.0
C720 C 0.8745 0.73555 0.74867 0.0
H721 H 0.83019 0.65549 0.81104 0.0
H722 H 0.83814 0.6767 0.78141 0.0
H723 H 0.85989 0.73494 0.79844 0.0
H724 H 0.90559 0.79482 0.72831 0.0
H725 H 0.89662 0.76982 0.75379 0.0
C726 C 0.61385 0.23287 0.19712 0.0
C727 C 0.60406 0.21505 0.20306 0.0
C728 C 0.61868 0.24756 0.2116 0.0
C729 C 0.60484 0.26669 0.26189 0.0
H730 H 0.65997 0.28419 0.2663 0.0
C731 C 0.63456 0.30433 0.33427 0.0
C732 C 0.64925 0.31936 0.33275 0.0
C733 C 0.62842 0.2937 0.31704 0.0
C734 C 0.64443 0.27981 0.26505 0.0
H735 H 0.59125 0.19879 0.2286 0.0
H736 H 0.59934 0.22466 0.25382 0.0
H737 H 0.65004 0.26187 0.23843 0.0
H738 H 0.66884 0.33533 0.31195 0.0
H739 H 0.65773 0.31701 0.28158 0.0
H740 H 0.59908 0.28458 0.28833 0.0
C741 C 0.60334 0.22719 0.23801 0.0
C742 C 0.63879 0.26698 0.24913 0.0
C743 C 0.5988 0.21238 0.22361 0.0
C744 C 0.65751 0.32377 0.31356 0.0
C745 C 0.65122 0.31321 0.29621 0.0
C746 C 0.6104 0.2797 0.27762 0.0
C747 C 0.61348 0.24482 0.23216 0.0
C748 C 0.61904 0.25997 0.2477 0.0
C749 C 0.63664 0.29798 0.29779 0.0
C750 C 0.63037 0.28602 0.2797 0.0
H751 H 0.61809 0.23534 0.18138 0.0
H752 H 0.62643 0.26108 0.20674 0.0
H753 H 0.58946 0.26171 0.26091 0.0
H754 H 0.62796 0.30051 0.34885 0.0
H755 H 0.6175 0.2818 0.31896 0.0
C756 C 0.40248 0.71803 0.27142 0.0
C757 C 0.39564 0.72117 0.2914 0.0
C758 C 0.39821 0.73198 0.2561 0.0
C759 C 0.38013 0.78424 0.24685 0.0
H760 H 0.36722 0.76222 0.19362 0.0
C761 C 0.34362 0.82922 0.18011 0.0
C762 C 0.35223 0.82614 0.1608 0.0
C763 C 0.34993 0.8178 0.19687 0.0
C764 C 0.37095 0.76859 0.20837 0.0
H765 H 0.37931 0.74154 0.31117 0.0
H766 H 0.37126 0.76562 0.28427 0.0
H767 H 0.37615 0.73954 0.22129 0.0
H768 H 0.37471 0.80934 0.14406 0.0
H769 H 0.38546 0.78932 0.17319 0.0
H770 H 0.37428 0.81334 0.23376 0.0
C771 C 0.38029 0.7526 0.28049 0.0
C772 C 0.37617 0.75562 0.22422 0.0
C773 C 0.38479 0.73874 0.29589 0.0
C774 C 0.36766 0.81195 0.1587 0.0
C775 C 0.3738 0.80044 0.17534 0.0
C776 C 0.37466 0.79724 0.23098 0.0
C777 C 0.38674 0.74925 0.26034 0.0
C778 C 0.381 0.76326 0.24362 0.0
C779 C 0.36477 0.80301 0.1945 0.0
C780 C 0.37021 0.7895 0.21156 0.0
H781 H 0.41106 0.70471 0.26757 0.0
H782 H 0.40384 0.72914 0.24088 0.0
H783 H 0.38395 0.79066 0.26153 0.0
H784 H 0.33173 0.8401 0.18217 0.0
H785 H 0.34271 0.82 0.21149 0.0
C786 C 0.13249 0.18071 0.66064 0.0
C787 C 0.14782 0.16631 0.66168 0.0
C788 C 0.12768 0.19233 0.67764 0.0
C789 C 0.12905 0.19597 0.73278 0.0
H790 H 0.12943 0.25359 0.72255 0.0
C791 C 0.11597 0.25603 0.79622 0.0
C792 C 0.105 0.27319 0.79052 0.0
C793 C 0.12173 0.24186 0.78153 0.0
C794 C 0.12898 0.23755 0.72564 0.0
H795 H 0.16947 0.15201 0.68162 0.0
H796 H 0.16071 0.1723 0.71167 0.0
H797 H 0.13809 0.23039 0.69523 0.0
H798 H 0.09068 0.28857 0.76526 0.0
H799 H 0.10007 0.26368 0.73986 0.0
H800 H 0.11931 0.20314 0.76309 0.0
C801 C 0.15262 0.1746 0.69754 0.0
C802 C 0.13406 0.2243 0.71002 0.0
C803 C 0.15763 0.16307 0.68038 0.0
C804 C 0.09934 0.27561 0.77006 0.0
C805 C 0.10487 0.26139 0.75547 0.0
C806 C 0.12369 0.20928 0.74845 0.0
C807 C 0.13792 0.18964 0.69612 0.0
C808 C 0.13384 0.2034 0.71334 0.0
C809 C 0.11647 0.24454 0.76092 0.0
C810 C 0.12328 0.23023 0.74492 0.0
H811 H 0.12452 0.18344 0.64653 0.0
H812 H 0.1161 0.20367 0.67627 0.0
H813 H 0.12878 0.17987 0.73565 0.0
H814 H 0.12055 0.25382 0.81191 0.0
H815 H 0.13074 0.22911 0.78622 0.0
C816 C 0.70927 0.87403 0.77603 0.0
C817 C 0.71598 0.87276 0.79634 0.0
C818 C 0.72276 0.87226 0.7598 0.0
C819 C 0.77713 0.8728 0.74756 0.0
H820 H 0.76198 0.83623 0.70407 0.0
C821 C 0.83459 0.84647 0.68789 0.0
C822 C 0.83446 0.82564 0.68383 0.0
C823 C 0.81866 0.85551 0.69821 0.0
C824 C 0.76645 0.84648 0.7161 0.0
H825 H 0.7423 0.86928 0.81542 0.0
H826 H 0.76554 0.86587 0.78735 0.0
H827 H 0.73718 0.84653 0.72917 0.0
H828 H 0.81712 0.79812 0.68693 0.0
H829 H 0.78973 0.81372 0.70529 0.0
H830 H 0.80667 0.87174 0.73534 0.0
C831 C 0.74995 0.86854 0.78385 0.0
C832 C 0.75215 0.85261 0.73034 0.0
C833 C 0.73653 0.87032 0.80001 0.0
C834 C 0.81774 0.81421 0.68976 0.0
C835 C 0.80191 0.82321 0.70017 0.0
C836 C 0.79144 0.86657 0.73342 0.0
C837 C 0.74323 0.86923 0.76355 0.0
C838 C 0.75748 0.86535 0.74661 0.0
C839 C 0.80229 0.84392 0.70481 0.0
C840 C 0.78642 0.85287 0.71786 0.0
H841 H 0.69356 0.87599 0.77263 0.0
H842 H 0.71713 0.87305 0.74432 0.0
H843 H 0.78163 0.88293 0.75968 0.0
H844 H 0.84713 0.85577 0.68337 0.0
H845 H 0.8193 0.87156 0.70127 0.0
C846 C 0.68098 0.18186 0.18834 0.0
C847 C 0.66375 0.17025 0.18469 0.0
C848 C 0.69719 0.17375 0.19891 0.0
C849 C 0.70804 0.13501 0.2372 0.0
H850 H 0.76272 0.1523 0.22827 0.0
C851 C 0.76483 0.13728 0.30193 0.0
C852 C 0.78471 0.13138 0.29838 0.0
C853 C 0.7513 0.13894 0.28587 0.0
C854 C 0.74759 0.14706 0.2308 0.0
H855 H 0.65057 0.14056 0.18844 0.0
H856 H 0.67901 0.12634 0.20678 0.0
H857 H 0.73717 0.16 0.2028 0.0
H858 H 0.80594 0.12278 0.27492 0.0
H859 H 0.7821 0.12577 0.24667 0.0
H860 H 0.71836 0.12227 0.26525 0.0
C861 C 0.67979 0.14187 0.20171 0.0
C862 C 0.73291 0.15165 0.21632 0.0
C863 C 0.66351 0.15001 0.19113 0.0
C864 C 0.79075 0.12735 0.27821 0.0
C865 C 0.77713 0.12909 0.26203 0.0
C866 C 0.72269 0.13041 0.25161 0.0
C867 C 0.69666 0.15378 0.20609 0.0
C868 C 0.71284 0.14621 0.21966 0.0
C869 C 0.7572 0.13475 0.26575 0.0
C870 C 0.7425 0.13695 0.24891 0.0
H871 H 0.68178 0.19748 0.18356 0.0
H872 H 0.70978 0.18347 0.20223 0.0
H873 H 0.69276 0.13067 0.24037 0.0
H874 H 0.75958 0.14065 0.31718 0.0
H875 H 0.73621 0.1438 0.28923 0.0
C876 C 0.33999 0.65463 0.29751 0.0
C877 C 0.33647 0.67291 0.30777 0.0
C878 C 0.32464 0.64519 0.28664 0.0
C879 C 0.27008 0.64255 0.27961 0.0
H880 H 0.28331 0.63176 0.22309 0.0
C881 C 0.21016 0.63234 0.21676 0.0
C882 C 0.21501 0.62079 0.19952 0.0
C883 C 0.22432 0.63539 0.23219 0.0
C884 C 0.27934 0.63416 0.23892 0.0
H885 H 0.31381 0.69504 0.31554 0.0
H886 H 0.28705 0.67844 0.29667 0.0
H887 H 0.30928 0.6426 0.24642 0.0
H888 H 0.23763 0.60197 0.18558 0.0
H889 H 0.26188 0.60629 0.21287 0.0
H890 H 0.2401 0.63408 0.27214 0.0
C891 C 0.30168 0.67147 0.29701 0.0
C892 C 0.29429 0.64048 0.25228 0.0
C893 C 0.31707 0.68105 0.30767 0.0
C894 C 0.23367 0.61123 0.19859 0.0
C895 C 0.24761 0.61386 0.21418 0.0
C896 C 0.25511 0.63591 0.26629 0.0
C897 C 0.30542 0.65368 0.28605 0.0
C898 C 0.28978 0.64504 0.27266 0.0
C899 C 0.24344 0.6266 0.23082 0.0
C900 C 0.25949 0.63193 0.24566 0.0
H901 H 0.35474 0.64792 0.29731 0.0
H902 H 0.32787 0.6314 0.2784 0.0
H903 H 0.26625 0.64585 0.29532 0.0
H904 H 0.19586 0.63993 0.21777 0.0
H905 H 0.22056 0.64543 0.24464 0.0
C906 C 0.28752 0.35841 0.71509 0.0
C907 C 0.28228 0.36964 0.69774 0.0
C908 C 0.27365 0.35547 0.7308 0.0
C909 C 0.21876 0.35655 0.73857 0.0
H910 H 0.23276 0.34702 0.79518 0.0
C911 C 0.15873 0.34001 0.79852 0.0
C912 C 0.16176 0.32196 0.80936 0.0
C913 C 0.17429 0.34867 0.78735 0.0
C914 C 0.2287 0.3497 0.77941 0.0
H915 H 0.25922 0.38795 0.68384 0.0
H916 H 0.23547 0.38383 0.71158 0.0
H917 H 0.2586 0.35768 0.77105 0.0
H918 H 0.18388 0.29957 0.81797 0.0
H919 H 0.21105 0.31484 0.79851 0.0
H920 H 0.18891 0.34867 0.74694 0.0
C921 C 0.24983 0.37641 0.71277 0.0
C922 C 0.24347 0.3557 0.76555 0.0
C923 C 0.26348 0.37892 0.69692 0.0
C924 C 0.18098 0.31338 0.80966 0.0
C925 C 0.1966 0.32219 0.79865 0.0
C926 C 0.20402 0.35088 0.75244 0.0
C927 C 0.25443 0.36405 0.72959 0.0
C928 C 0.23872 0.359 0.74488 0.0
C929 C 0.19324 0.33962 0.78697 0.0
C930 C 0.20885 0.34719 0.77292 0.0
H931 H 0.30195 0.35107 0.71602 0.0
H932 H 0.27772 0.34573 0.74339 0.0
H933 H 0.21452 0.35836 0.72274 0.0
H934 H 0.14416 0.34708 0.79801 0.0
H935 H 0.17137 0.36222 0.7786 0.0
C936 C 0.80267 0.72678 0.88192 0.0
C937 C 0.80136 0.7067 0.87532 0.0
C938 C 0.78674 0.73999 0.87903 0.0
C939 C 0.73288 0.74288 0.8648 0.0
H940 H 0.7477 0.79794 0.85167 0.0
C941 C 0.68032 0.80623 0.83279 0.0
C942 C 0.6813 0.82443 0.84375 0.0
C943 C 0.69338 0.79039 0.8374 0.0
C944 C 0.74337 0.78262 0.85539 0.0
H945 H 0.78226 0.68448 0.86093 0.0
H946 H 0.7546 0.70783 0.85502 0.0
H947 H 0.77364 0.7731 0.8579 0.0
H948 H 0.69611 0.84003 0.86864 0.0
H949 H 0.71917 0.81264 0.87625 0.0
H950 H 0.70244 0.75266 0.86144 0.0
C951 C 0.76774 0.71328 0.86293 0.0
C952 C 0.7582 0.76839 0.85914 0.0
C953 C 0.7836 0.6999 0.86623 0.0
C954 C 0.69508 0.82627 0.85981 0.0
C955 C 0.70829 0.81062 0.86418 0.0
C956 C 0.71798 0.75714 0.86068 0.0
C957 C 0.76927 0.7336 0.86898 0.0
C958 C 0.7532 0.7484 0.86425 0.0
C959 C 0.70776 0.7927 0.85282 0.0
C960 C 0.72317 0.77717 0.85626 0.0
H961 H 0.81608 0.73233 0.88928 0.0
H962 H 0.78826 0.75532 0.88452 0.0
H963 H 0.72844 0.72768 0.86882 0.0
H964 H 0.66977 0.80439 0.82039 0.0
H965 H 0.69279 0.77669 0.82842 0.0
C966 C 0.17606 0.68666 0.15826 0.0
C967 C 0.17948 0.66806 0.14863 0.0
C968 C 0.18785 0.70343 0.15352 0.0
C969 C 0.22521 0.72213 0.11559 0.0
H970 H 0.24273 0.75593 0.16047 0.0
C971 C 0.29812 0.76762 0.11513 0.0
C972 C 0.29703 0.78807 0.12062 0.0
C973 C 0.28154 0.75507 0.11737 0.0
C974 C 0.23772 0.74678 0.14777 0.0
H975 H 0.19766 0.65248 0.12626 0.0
H976 H 0.21863 0.6813 0.11855 0.0
H977 H 0.21755 0.72996 0.16647 0.0
H978 H 0.2778 0.81141 0.13293 0.0
H979 H 0.24884 0.78913 0.13745 0.0
H980 H 0.24632 0.73827 0.09723 0.0
C981 C 0.20655 0.68327 0.12936 0.0
C982 C 0.22324 0.73194 0.15114 0.0
C983 C 0.19462 0.66662 0.13391 0.0
C984 C 0.27902 0.79572 0.1285 0.0
C985 C 0.26252 0.78302 0.13114 0.0
C986 C 0.23989 0.73671 0.11232 0.0
C987 C 0.20344 0.70187 0.1392 0.0
C988 C 0.21711 0.71913 0.13517 0.0
C989 C 0.26366 0.76262 0.12549 0.0
C990 C 0.24652 0.74889 0.12846 0.0
H991 H 0.16438 0.68822 0.1696 0.0
H992 H 0.18482 0.71758 0.16117 0.0
H993 H 0.22049 0.71293 0.1028 0.0
H994 H 0.31175 0.7613 0.10892 0.0
H995 H 0.28281 0.73934 0.11309 0.0
C996 C 0.32249 0.30534 0.65585 0.0
C997 C 0.31892 0.32387 0.64613 0.0
C998 C 0.31084 0.28843 0.65115 0.0
C999 C 0.2734 0.26936 0.61339 0.0
H1000 H 0.25592 0.23601 0.65863 0.0
C1001 C 0.19984 0.22492 0.61439 0.0
C1002 C 0.20081 0.20441 0.61966 0.0
C1003 C 0.21663 0.23723 0.6163 0.0
C1004 C 0.26092 0.24504 0.64583 0.0
H1005 H 0.30069 0.33915 0.62357 0.0
H1006 H 0.28 0.31013 0.61595 0.0
H1007 H 0.28131 0.26185 0.66429 0.0
H1008 H 0.22005 0.18071 0.63123 0.0
H1009 H 0.2494 0.20259 0.63521 0.0
H1010 H 0.252 0.25328 0.59531 0.0
C1011 C 0.29207 0.30831 0.6268 0.0
C1012 C 0.27553 0.25979 0.64901 0.0
C1013 C 0.30384 0.32508 0.63131 0.0
C1014 C 0.21892 0.19645 0.62697 0.0
C1015 C 0.23564 0.20892 0.62931 0.0
C1016 C 0.25858 0.25487 0.61033 0.0
C1017 C 0.29527 0.28979 0.63678 0.0
C1018 C 0.28163 0.27246 0.63292 0.0
C1019 C 0.23461 0.22938 0.62389 0.0
C1020 C 0.25196 0.24288 0.6266 0.0
H1021 H 0.33411 0.30395 0.66727 0.0
H1022 H 0.31395 0.27436 0.65891 0.0
H1023 H 0.27809 0.27844 0.60052 0.0
H1024 H 0.18612 0.23146 0.60863 0.0
H1025 H 0.21545 0.25303 0.61221 0.0
C1026 C 0.72503 0.2937 0.37861 0.0
C1027 C 0.70666 0.28641 0.37121 0.0
C1028 C 0.74265 0.28283 0.37527 0.0
C1029 C 0.76469 0.24441 0.34172 0.0
H1030 H 0.79742 0.22969 0.38825 0.0
C1031 C 0.82919 0.18822 0.33318 0.0
C1032 C 0.82781 0.17198 0.34686 0.0
C1033 C 0.81834 0.20589 0.33665 0.0
C1034 C 0.78852 0.23385 0.37509 0.0
H1035 H 0.69247 0.26226 0.35416 0.0
H1036 H 0.72313 0.2435 0.34825 0.0
H1037 H 0.77009 0.25385 0.39259 0.0
H1038 H 0.81511 0.16191 0.37554 0.0
H1039 H 0.79616 0.19269 0.38158 0.0
H1040 H 0.78244 0.22383 0.32439 0.0
C1041 C 0.72392 0.25759 0.35661 0.0
C1042 C 0.773 0.24775 0.37755 0.0
C1043 C 0.70633 0.26825 0.36016 0.0
C1044 C 0.81637 0.17416 0.36468 0.0
C1045 C 0.80564 0.19186 0.36822 0.0
C1046 C 0.78028 0.23067 0.33923 0.0
C1047 C 0.74223 0.2647 0.36418 0.0
C1048 C 0.76056 0.25264 0.36101 0.0
C1049 C 0.80605 0.20767 0.35395 0.0
C1050 C 0.79197 0.22478 0.35602 0.0
H1051 H 0.72576 0.30764 0.38719 0.0
H1052 H 0.75661 0.28863 0.38124 0.0
H1053 H 0.75543 0.24809 0.32869 0.0
H1054 H 0.83797 0.18699 0.31935 0.0
H1055 H 0.81907 0.21793 0.32549 0.0
C1056 C 0.1596 0.1584 0.53995 0.0
C1057 C 0.14318 0.16122 0.553 0.0
C1058 C 0.1571 0.15953 0.51882 0.0
C1059 C 0.12351 0.15515 0.47628 0.0
H1060 H 0.1483 0.20341 0.45447 0.0
C1061 C 0.10302 0.18666 0.39672 0.0
C1062 C 0.11762 0.19747 0.38596 0.0
C1063 C 0.10677 0.18012 0.41665 0.0
C1064 C 0.14163 0.18959 0.46003 0.0
H1065 H 0.11116 0.16601 0.55431 0.0
H1066 H 0.10678 0.16737 0.51724 0.0
H1067 H 0.15434 0.19386 0.4897 0.0
H1068 H 0.14788 0.20899 0.38692 0.0
H1069 H 0.15491 0.19665 0.42101 0.0
H1070 H 0.11117 0.15045 0.44657 0.0
C1071 C 0.12153 0.16458 0.52344 0.0
C1072 C 0.14504 0.18423 0.48029 0.0
C1073 C 0.12407 0.16393 0.54457 0.0
C1074 C 0.13622 0.20105 0.3951 0.0
C1075 C 0.14018 0.19404 0.41473 0.0
C1076 C 0.12046 0.16022 0.4558 0.0
C1077 C 0.1381 0.16293 0.51049 0.0
C1078 C 0.13584 0.16715 0.48859 0.0
C1079 C 0.1254 0.18381 0.42596 0.0
C1080 C 0.12929 0.17767 0.44746 0.0
H1081 H 0.17449 0.15635 0.54607 0.0
H1082 H 0.17006 0.15832 0.509 0.0
H1083 H 0.11626 0.14191 0.48252 0.0
H1084 H 0.08855 0.18372 0.38992 0.0
H1085 H 0.09488 0.17258 0.42485 0.0
C1086 C 0.36942 0.83189 0.0429 0.0
C1087 C 0.35056 0.83313 0.05219 0.0
C1088 C 0.37104 0.8312 0.0217 0.0
C1089 C 0.34703 0.80924 0.97977 0.0
H1090 H 0.37959 0.8434 0.94515 0.0
C1091 C 0.35845 0.79029 0.89496 0.0
C1092 C 0.37698 0.7949 0.88612 0.0
C1093 C 0.35374 0.79722 0.91446 0.0
C1094 C 0.37067 0.83353 0.95463 0.0
H1095 H 0.31869 0.83538 0.04677 0.0
H1096 H 0.32156 0.83332 0.0095 0.0
H1097 H 0.37397 0.85284 0.98073 0.0
H1098 H 0.40528 0.81006 0.89072 0.0
H1099 H 0.39768 0.82106 0.92534 0.0
H1100 H 0.3448 0.7891 0.95455 0.0
C1101 C 0.335 0.83329 0.01871 0.0
C1102 C 0.36728 0.83912 0.97489 0.0
C1103 C 0.33339 0.8345 0.03994 0.0
C1104 C 0.39087 0.80632 0.89723 0.0
C1105 C 0.38637 0.81283 0.91698 0.0
C1106 C 0.3508 0.80338 0.95971 0.0
C1107 C 0.35383 0.8313 0.00952 0.0
C1108 C 0.35556 0.82692 0.98759 0.0
C1109 C 0.36767 0.8085 0.92581 0.0
C1110 C 0.36285 0.81533 0.94689 0.0
H1111 H 0.38286 0.83092 0.05205 0.0
H1112 H 0.38568 0.82951 0.01486 0.0
H1113 H 0.33819 0.79946 0.98948 0.0
H1114 H 0.34731 0.78183 0.88655 0.0
H1115 H 0.33902 0.79396 0.92045 0.0
C1116 C 0.62798 0.31821 0.44987 0.0
C1117 C 0.64489 0.32726 0.44103 0.0
C1118 C 0.62419 0.32026 0.47066 0.0
C1119 C 0.65055 0.32663 0.51843 0.0
H1120 H 0.59682 0.3291 0.5405 0.0
C1121 C 0.62909 0.28863 0.59322 0.0
C1122 C 0.61629 0.29863 0.60688 0.0
C1123 C 0.63298 0.2967 0.57401 0.0
C1124 C 0.61194 0.32874 0.53464 0.0
H1125 H 0.67068 0.34623 0.44703 0.0
H1126 H 0.6641 0.34958 0.48358 0.0
H1127 H 0.60245 0.33649 0.50443 0.0
H1128 H 0.59739 0.32495 0.61091 0.0
H1129 H 0.60403 0.33889 0.57701 0.0
H1130 H 0.65995 0.31824 0.54847 0.0
C1131 C 0.65385 0.34088 0.47429 0.0
C1132 C 0.61515 0.33282 0.51399 0.0
C1133 C 0.65759 0.33896 0.45339 0.0
C1134 C 0.60729 0.31683 0.60075 0.0
C1135 C 0.61108 0.32484 0.58138 0.0
C1136 C 0.64733 0.32249 0.53904 0.0
C1137 C 0.63724 0.33132 0.48316 0.0
C1138 C 0.63438 0.33108 0.50555 0.0
C1139 C 0.6241 0.3149 0.56791 0.0
C1140 C 0.6279 0.32278 0.54715 0.0
H1141 H 0.61778 0.30924 0.4408 0.0
H1142 H 0.61144 0.31246 0.47709 0.0
H1143 H 0.66552 0.32511 0.51236 0.0
H1144 H 0.63635 0.27462 0.5974 0.0
H1145 H 0.64277 0.2885 0.56379 0.0
C1146 C 0.8703 0.70526 0.0912 0.0
C1147 C 0.88166 0.69485 0.10586 0.0
C1148 C 0.86726 0.69707 0.07187 0.0
C1149 C 0.88856 0.66229 0.03471 0.0
H1150 H 0.83661 0.66825 0.00917 0.0
C1151 C 0.84589 0.64992 0.95201 0.0
C1152 C 0.85996 0.6597 0.9395 0.0
C1153 C 0.8487 0.64906 0.97313 0.0
C1154 C 0.85111 0.66609 0.01617 0.0
H1155 H 0.89897 0.66771 0.11149 0.0
H1156 H 0.89374 0.6535 0.0775 0.0
H1157 H 0.84076 0.67686 0.04506 0.0
H1158 H 0.88858 0.67513 0.93927 0.0
H1159 H 0.89332 0.67378 0.97594 0.0
H1160 H 0.899 0.65196 0.00565 0.0
C1161 C 0.8872 0.668 0.08112 0.0
C1162 C 0.85354 0.67126 0.03665 0.0
C1163 C 0.89017 0.67616 0.10057 0.0
C1164 C 0.87734 0.66765 0.94844 0.0
C1165 C 0.88019 0.66668 0.96948 0.0
C1166 C 0.88614 0.65716 0.01419 0.0
C1167 C 0.87555 0.67831 0.06667 0.0
C1168 C 0.87242 0.67002 0.04593 0.0
C1169 C 0.8657 0.6578 0.9821 0.0
C1170 C 0.86753 0.65961 0.00455 0.0
H1171 H 0.86351 0.71968 0.09469 0.0
H1172 H 0.85855 0.70556 0.0609 0.0
H1173 H 0.90328 0.66117 0.04148 0.0
H1174 H 0.83238 0.64352 0.94559 0.0
H1175 H 0.83737 0.64196 0.98249 0.0
C1176 C 0.40228 0.10849 0.1783 0.0
C1177 C 0.39526 0.107 0.19842 0.0
C1178 C 0.42272 0.10788 0.17417 0.0
C1179 C 0.4716 0.11535 0.20021 0.0
H1180 H 0.49183 0.10122 0.14661 0.0
C1181 C 0.55448 0.12451 0.17692 0.0
C1182 C 0.55581 0.14076 0.16323 0.0
C1183 C 0.53607 0.11514 0.18048 0.0
C1184 C 0.48638 0.10494 0.16172 0.0
H1185 H 0.404 0.10244 0.2299 0.0
H1186 H 0.43964 0.10017 0.22268 0.0
H1187 H 0.45716 0.09363 0.15533 0.0
H1188 H 0.5395 0.15903 0.14146 0.0
H1189 H 0.5075 0.14204 0.14708 0.0
H1190 H 0.50106 0.12641 0.20649 0.0
C1191 C 0.4295 0.10275 0.21008 0.0
C1192 C 0.46646 0.10086 0.16669 0.0
C1193 C 0.40904 0.1039 0.21426 0.0
C1194 C 0.53883 0.14652 0.15209 0.0
C1195 C 0.52059 0.1368 0.15524 0.0
C1196 C 0.49161 0.11893 0.19539 0.0
C1197 C 0.4367 0.10525 0.19002 0.0
C1198 C 0.45859 0.10666 0.18577 0.0
C1199 C 0.51895 0.1215 0.16993 0.0
C1200 C 0.49897 0.11428 0.17594 0.0
H1201 H 0.392 0.11105 0.16578 0.0
H1202 H 0.42749 0.11031 0.15859 0.0
H1203 H 0.46622 0.12041 0.21491 0.0
H1204 H 0.56734 0.11992 0.18581 0.0
H1205 H 0.53504 0.10343 0.19197 0.0
C1206 C 0.96119 0.84277 0.65581 0.0
C1207 C 0.94329 0.85142 0.66269 0.0
C1208 C 0.97925 0.85299 0.65811 0.0
C1209 C 0.01511 0.8806 0.6581 0.0
H1210 H 0.02521 0.8995 0.71316 0.0
C1211 C 0.09422 0.9026 0.68311 0.0
C1212 C 0.10045 0.89337 0.70137 0.0
C1213 C 0.074 0.90325 0.67789 0.0
C1214 C 0.02259 0.8944 0.69768 0.0
H1215 H 0.93006 0.87793 0.67657 0.0
H1216 H 0.96183 0.89584 0.68075 0.0
H1217 H 0.99142 0.8897 0.70324 0.0
H1218 H 0.0901 0.87867 0.72903 0.0
H1219 H 0.05496 0.8795 0.71977 0.0
H1220 H 0.0464 0.8841 0.65285 0.0
C1221 C 0.96182 0.8811 0.67362 0.0
C1222 C 0.0032 0.889 0.69193 0.0
C1223 C 0.94366 0.87091 0.67113 0.0
C1224 C 0.08588 0.88583 0.71481 0.0
C1225 C 0.06567 0.88644 0.70956 0.0
C1226 C 0.03446 0.886 0.66383 0.0
C1227 C 0.97983 0.87206 0.66746 0.0
C1228 C -0.00059 0.88139 0.67229 0.0
C1229 C 0.05955 0.89467 0.69079 0.0
C1230 C 0.03854 0.89234 0.68389 0.0
H1231 H 0.96137 0.8278 0.64919 0.0
H1232 H 0.99287 0.8455 0.65343 0.0
H1233 H 0.01258 0.875 0.64279 0.0
H1234 H 0.105 0.90881 0.6725 0.0
H1235 H 0.06973 0.90999 0.66348 0.0
C1236 C 0.05211 0.365 0.82256 0.0
C1237 C 0.05259 0.34529 0.83043 0.0
C1238 C 0.03391 0.37514 0.82034 0.0
C1239 C 0.99257 0.38357 0.80233 0.0
H1240 H 0.94937 0.37743 0.84124 0.0
C1241 C 0.90986 0.38186 0.77944 0.0
C1242 C 0.89539 0.38925 0.79308 0.0
C1243 C 0.93007 0.38198 0.78474 0.0
C1244 C 0.96131 0.37966 0.83033 0.0
H1245 H 0.03461 0.32114 0.84313 0.0
H1246 H 0.003 0.33875 0.83931 0.0
H1247 H 0.98316 0.3678 0.85092 0.0
H1248 H 0.89104 0.40383 0.82243 0.0
H1249 H 0.92631 0.40411 0.83156 0.0
H1250 H 0.9706 0.39495 0.78154 0.0
C1251 C 0.0166 0.34646 0.83491 0.0
C1252 C 0.98064 0.37395 0.83582 0.0
C1253 C 0.03471 0.33629 0.83695 0.0
C1254 C 0.90173 0.39777 0.81165 0.0
C1255 C 0.92195 0.3979 0.81693 0.0
C1256 C 0.97321 0.38926 0.79681 0.0
C1257 C 0.01593 0.36581 0.82618 0.0
C1258 C 0.99634 0.37523 0.82167 0.0
C1259 C 0.93628 0.38954 0.80376 0.0
C1260 C 0.95726 0.38678 0.81054 0.0
H1261 H 0.06568 0.3723 0.81742 0.0
H1262 H 0.03384 0.3901 0.81369 0.0
H1263 H 0.00434 0.38465 0.79105 0.0
H1264 H 0.90556 0.37525 0.76498 0.0
H1265 H 0.94069 0.37522 0.77432 0.0
C1266 C 0.46166 0.65915 0.34344 0.0
C1267 C 0.4439 0.65006 0.33671 0.0
C1268 C 0.47988 0.64914 0.34144 0.0
C1269 C 0.51643 0.62226 0.34136 0.0
H1270 H 0.52557 0.60186 0.28668 0.0
C1271 C 0.59485 0.59834 0.31506 0.0
C1272 C 0.60085 0.607 0.29643 0.0
C1273 C 0.57478 0.5985 0.32089 0.0
C1274 C 0.52321 0.60739 0.30205 0.0
H1275 H 0.4311 0.6229 0.32366 0.0
H1276 H 0.46308 0.6054 0.32009 0.0
H1277 H 0.49192 0.61161 0.29702 0.0
H1278 H 0.59021 0.62166 0.26887 0.0
H1279 H 0.55531 0.6221 0.27915 0.0
H1280 H 0.54787 0.61909 0.34606 0.0
C1281 C 0.46286 0.62033 0.3268 0.0
C1282 C 0.50391 0.61276 0.30805 0.0
C1283 C 0.44457 0.6303 0.32895 0.0
C1284 C 0.58617 0.61492 0.28335 0.0
C1285 C 0.5661 0.61504 0.28918 0.0
C1286 C 0.53571 0.61684 0.33539 0.0
C1287 C 0.48075 0.62986 0.33257 0.0
C1288 C 0.50042 0.62084 0.32756 0.0
C1289 C 0.56025 0.60725 0.30822 0.0
C1290 C 0.53941 0.60992 0.31546 0.0
H1291 H 0.46161 0.67434 0.34954 0.0
H1292 H 0.4934 0.65699 0.34585 0.0
H1293 H 0.51415 0.62825 0.35657 0.0
H1294 H 0.6057 0.59192 0.32545 0.0
H1295 H 0.57068 0.59214 0.33553 0.0
C1296 C 0.20527 0.40727 0.13342 0.0
C1297 C 0.20006 0.3959 0.11613 0.0
C1298 C 0.198 0.42686 0.13585 0.0
C1299 C 0.1851 0.47092 0.10854 0.0
H1300 H 0.1535 0.48687 0.15544 0.0
C1301 C 0.16461 0.55384 0.11961 0.0
C1302 C 0.16566 0.5613 0.13959 0.0
C1303 C 0.16439 0.5331 0.11604 0.0
C1304 C 0.16249 0.48277 0.14236 0.0
H1305 H 0.18337 0.39607 0.08774 0.0
H1306 H 0.17135 0.43077 0.09165 0.0
H1307 H 0.16275 0.4515 0.15092 0.0
H1308 H 0.16655 0.55319 0.17158 0.0
H1309 H 0.16742 0.51704 0.16546 0.0
H1310 H 0.18629 0.50201 0.10055 0.0
C1311 C 0.18072 0.42427 0.10343 0.0
C1312 C 0.16763 0.4625 0.13975 0.0
C1313 C 0.1876 0.40452 0.10122 0.0
C1314 C 0.16562 0.54775 0.15602 0.0
C1315 C 0.166 0.52699 0.15245 0.0
C1316 C 0.1804 0.49121 0.11138 0.0
C1317 C 0.18578 0.43549 0.12082 0.0
C1318 C 0.1791 0.45653 0.12292 0.0
C1319 C 0.16592 0.51938 0.13237 0.0
C1320 C 0.1692 0.49749 0.12845 0.0
H1321 H 0.2147 0.40093 0.14522 0.0
H1322 H 0.20218 0.4354 0.14928 0.0
H1323 H 0.19412 0.46657 0.09555 0.0
H1324 H 0.16434 0.56407 0.10672 0.0
H1325 H 0.16362 0.52788 0.10041 0.0
C1326 C 0.66209 0.93804 0.87483 0.0
C1327 C 0.66239 0.93029 0.85493 0.0
C1328 C 0.66284 0.95882 0.87812 0.0
C1329 C 0.66339 0.00892 0.85129 0.0
H1330 H 0.69832 0.02302 0.89636 0.0
C1331 C 0.70904 0.08297 0.85743 0.0
C1332 C 0.70564 0.09413 0.87531 0.0
C1333 C 0.70137 0.06346 0.85548 0.0
C1334 C 0.68842 0.01928 0.88383 0.0
H1335 H 0.66254 0.938 0.82282 0.0
H1336 H 0.66496 0.97415 0.82841 0.0
H1337 H 0.68767 0.98825 0.89211 0.0
H1338 H 0.69203 0.09356 0.90536 0.0
H1339 H 0.67934 0.05908 0.9022 0.0
H1340 H 0.66544 0.04004 0.84247 0.0
C1341 C 0.6635 0.96442 0.8416 0.0
C1342 C 0.68209 -0.00062 0.88145 0.0
C1343 C 0.66219 0.94365 0.83833 0.0
C1344 C 0.69487 0.08527 0.8914 0.0
C1345 C 0.6876 0.06563 0.88962 0.0
C1346 C 0.67012 0.02877 0.85345 0.0
C1347 C 0.66458 0.97224 0.86156 0.0
C1348 C 0.66961 0.99386 0.86506 0.0
C1349 C 0.69059 0.0547 0.87156 0.0
C1350 C 0.68279 0.03401 0.86965 0.0
H1351 H 0.66198 0.92798 0.88787 0.0
H1352 H 0.66288 0.96426 0.89369 0.0
H1353 H 0.65351 0.00539 0.83871 0.0
H1354 H 0.71712 0.08951 0.84472 0.0
H1355 H 0.70396 0.05516 0.84149 0.0
C1356 C 0.82121 0.05692 0.37771 0.0
C1357 C 0.82403 0.0644 0.35789 0.0
C1358 C 0.81921 0.03623 0.38106 0.0
C1359 C 0.82429 0.98594 0.35558 0.0
H1360 H 0.78622 0.96989 0.39718 0.0
C1361 C 0.78209 0.9092 0.36226 0.0
C1362 C 0.78886 0.89773 0.37893 0.0
C1363 C 0.78776 0.92936 0.36022 0.0
C1364 C 0.79695 0.97425 0.38561 0.0
H1365 H 0.82732 0.05621 0.32606 0.0
H1366 H 0.82281 0.02024 0.33168 0.0
H1367 H 0.79396 0.00553 0.39252 0.0
H1368 H 0.8065 0.8984 0.40671 0.0
H1369 H 0.81579 0.93405 0.40342 0.0
H1370 H 0.82621 0.95447 0.34809 0.0
C1371 C 0.82282 0.03014 0.34481 0.0
C1372 C 0.80157 0.99462 0.38301 0.0
C1373 C 0.8253 0.0508 0.34153 0.0
C1374 C 0.80112 0.90689 0.39369 0.0
C1375 C 0.80642 0.92719 0.39185 0.0
C1376 C 0.81933 0.96561 0.35793 0.0
C1377 C 0.81946 0.02259 0.3646 0.0
C1378 C 0.81528 0.00077 0.36792 0.0
C1379 C 0.79991 0.93843 0.37502 0.0
C1380 C 0.80562 0.95971 0.37293 0.0
H1381 H 0.82044 0.06709 0.39063 0.0
H1382 H 0.81723 0.03099 0.39658 0.0
H1383 H 0.83517 0.98999 0.34407 0.0
H1384 H 0.77278 0.90247 0.35057 0.0
H1385 H 0.78258 0.93792 0.34717 0.0
C1386 C 0.32792 0.43945 0.61936 0.0
C1387 C 0.32845 0.43126 0.63908 0.0
C1388 C 0.32667 0.46027 0.61658 0.0
C1389 C 0.32747 0.50976 0.64432 0.0
H1390 H 0.29213 0.52538 0.60013 0.0
C1391 C 0.28475 0.58576 0.63885 0.0
C1392 C 0.28823 0.59661 0.62078 0.0
C1393 C 0.29171 0.56599 0.64085 0.0
C1394 C 0.30212 0.5212 0.61243 0.0
H1395 H 0.32899 0.43825 0.67135 0.0
H1396 H 0.3257 0.47449 0.66665 0.0
H1397 H 0.30161 0.49022 0.60395 0.0
H1398 H 0.30137 0.59529 0.59054 0.0
H1399 H 0.31284 0.56041 0.59383 0.0
H1400 H 0.3268 0.54089 0.65333 0.0
C1401 C 0.3269 0.46506 0.65323 0.0
C1402 C 0.30777 0.50108 0.61456 0.0
C1403 C 0.3287 0.44424 0.65598 0.0
C1404 C 0.29849 0.58725 0.60464 0.0
C1405 C 0.30505 0.56737 0.60649 0.0
C1406 C 0.32144 0.52985 0.64243 0.0
C1407 C 0.32528 0.4733 0.63348 0.0
C1408 C 0.32048 0.49504 0.63057 0.0
C1409 C 0.30186 0.55669 0.62466 0.0
C1410 C 0.30868 0.53565 0.6265 0.0
H1411 H 0.328 0.4297 0.60608 0.0
H1412 H 0.32617 0.46605 0.60114 0.0
H1413 H 0.33753 0.5058 0.65662 0.0
H1414 H 0.27705 0.59268 0.65159 0.0
H1415 H 0.28899 0.55789 0.65494 0.0
C1416 C 0.84798 0.83458 0.4419 0.0
C1417 C 0.82852 0.84255 0.44224 0.0
C1418 C 0.85934 0.83384 0.45974 0.0
C1419 C 0.86891 0.85361 0.50954 0.0
H1420 H 0.87051 0.79857 0.52943 0.0
C1421 C 0.88068 0.83494 0.59432 0.0
C1422 C 0.88737 0.81569 0.59992 0.0
C1423 C 0.87818 0.83988 0.57376 0.0
C1424 C 0.87086 0.81398 0.52404 0.0
H1425 H 0.80618 0.85719 0.46104 0.0
H1426 H 0.8264 0.85634 0.49224 0.0
H1427 H 0.85799 0.80539 0.49542 0.0
H1428 H 0.8984 0.78708 0.58872 0.0
H1429 H 0.89545 0.79607 0.55281 0.0
H1430 H 0.88209 0.86234 0.53791 0.0
C1431 C 0.83266 0.85054 0.47817 0.0
C1432 C 0.86348 0.81785 0.50455 0.0
C1433 C 0.82109 0.85089 0.46041 0.0
C1434 C 0.89289 0.80193 0.5847 0.0
C1435 C 0.89101 0.80707 0.56413 0.0
C1436 C 0.87682 0.84972 0.52891 0.0
C1437 C 0.85161 0.84152 0.47802 0.0
C1438 C 0.86199 0.83768 0.4974 0.0
C1439 C 0.88284 0.82581 0.55836 0.0
C1440 C 0.87735 0.82988 0.53668 0.0
H1441 H 0.85406 0.82801 0.4281 0.0
H1442 H 0.87389 0.8267 0.45944 0.0
H1443 H 0.86792 0.86903 0.50416 0.0
H1444 H 0.87625 0.84577 0.60584 0.0
H1445 H 0.8716 0.85434 0.57013 0.0
C1446 C 0.65455 0.15042 0.94462 0.0
C1447 C 0.67543 0.14847 0.94354 0.0
C1448 C 0.64492 0.15089 0.96355 0.0
C1449 C 0.62865 0.14452 0.00746 0.0
H1450 H 0.65426 0.18349 0.04306 0.0
C1451 C 0.61153 0.15894 0.09387 0.0
C1452 C 0.61191 0.17929 0.09999 0.0
C1453 C 0.61568 0.1537 0.07361 0.0
C1454 C 0.64687 0.17265 0.03325 0.0
H1455 H 0.70245 0.14398 0.96125 0.0
H1456 H 0.68566 0.1449 0.99422 0.0
H1457 H 0.66941 0.17535 0.01041 0.0
H1458 H 0.61479 0.21014 0.08922 0.0
H1459 H 0.62204 0.20096 0.0541 0.0
H1460 H 0.60607 0.14193 0.03067 0.0
C1461 C 0.67678 0.14628 0.98047 0.0
C1462 C 0.65567 0.16781 0.01468 0.0
C1463 C 0.68637 0.14574 0.9616 0.0
C1464 C 0.6148 0.19431 0.08514 0.0
C1465 C 0.61893 0.18908 0.06501 0.0
C1466 C 0.61992 0.14921 0.02631 0.0
C1467 C 0.65607 0.1495 0.98164 0.0
C1468 C 0.64668 0.15373 0.00159 0.0
C1469 C 0.62024 0.16875 0.05927 0.0
C1470 C 0.62892 0.16347 0.03924 0.0
H1471 H 0.64572 0.15242 0.93092 0.0
H1472 H 0.62895 0.15346 0.96406 0.0
H1473 H 0.62145 0.13363 -0.00243 0.0
H1474 H 0.60918 0.14701 0.10492 0.0
H1475 H 0.61659 0.1379 0.0695 0.0
C1476 C 0.38396 0.66625 0.40089 0.0
C1477 C 0.37989 0.68605 0.39433 0.0
C1478 C 0.37875 0.66009 0.42062 0.0
C1479 C 0.34126 0.67189 0.45875 0.0
H1480 H 0.37316 0.64062 0.4967 0.0
C1481 C 0.33832 0.65372 0.54871 0.0
C1482 C 0.31784 0.64945 0.55054 0.0
C1483 C 0.34737 0.65429 0.52951 0.0
C1484 C 0.3641 0.64929 0.48618 0.0
H1485 H 0.36865 0.7153 0.40393 0.0
H1486 H 0.35964 0.70451 0.43812 0.0
H1487 H 0.38742 0.65071 0.46369 0.0
H1488 H 0.29115 0.64073 0.53397 0.0
H1489 H 0.30699 0.64152 0.5005 0.0
H1490 H 0.31812 0.67097 0.48107 0.0
C1491 C 0.3665 0.69369 0.4279 0.0
C1492 C 0.37221 0.65498 0.46734 0.0
C1493 C 0.37172 0.69986 0.40831 0.0
C1494 C 0.3069 0.64436 0.533 0.0
C1495 C 0.31595 0.64485 0.51384 0.0
C1496 C 0.33314 0.66612 0.47739 0.0
C1497 C 0.36935 0.67361 0.43401 0.0
C1498 C 0.36093 0.66663 0.45364 0.0
C1499 C 0.33608 0.65055 0.51184 0.0
C1500 C 0.3445 0.65493 0.49141 0.0
H1501 H 0.39036 0.65527 0.39056 0.0
H1502 H 0.38114 0.64452 0.42501 0.0
H1503 H 0.33213 0.68061 0.44833 0.0
H1504 H 0.34716 0.65761 0.562 0.0
H1505 H 0.36288 0.65882 0.52843 0.0
C1506 C 0.17233 0.34924 0.03287 0.0
C1507 C 0.16554 0.33999 0.05085 0.0
C1508 C 0.16068 0.34863 0.01518 0.0
C1509 C 0.13074 0.31443 0.98884 0.0
H1510 H 0.11234 0.35843 0.95474 0.0
C1511 C 0.10295 0.29747 0.90834 0.0
C1512 C 0.10869 0.31113 0.89312 0.0
C1513 C 0.10434 0.30284 0.92889 0.0
C1514 C 0.11756 0.34595 0.96395 0.0
H1515 H 0.14097 0.32363 0.06476 0.0
H1516 H 0.12103 0.32191 0.03355 0.0
H1517 H 0.12604 0.36558 0.98858 0.0
H1518 H 0.11968 0.34127 0.88713 0.0
H1519 H 0.12351 0.35022 0.92285 0.0
H1520 H 0.12417 0.29484 0.96408 0.0
C1521 C 0.13515 0.32991 0.03333 0.0
C1522 C 0.12519 0.3501 0.98337 0.0
C1523 C 0.14657 0.33088 0.0511 0.0
C1524 C 0.1151 0.3305 0.89867 0.0
C1525 C 0.11712 0.33566 0.91922 0.0
C1526 C 0.12364 0.31031 0.9693 0.0
C1527 C 0.14229 0.33846 0.01519 0.0
C1528 C 0.13206 0.33435 0.99577 0.0
C1529 C 0.11223 0.32171 0.93465 0.0
C1530 C 0.11727 0.32603 0.95639 0.0
H1531 H 0.18684 0.35645 0.03232 0.0
H1532 H 0.1665 0.35513 0.00122 0.0
H1533 H 0.1362 0.3021 -0.00184 0.0
H1534 H 0.09764 0.28254 0.90435 0.0
H1535 H 0.09974 0.29191 0.94023 0.0
C1536 C 0.59205 0.857 0.82044 0.0
C1537 C 0.60324 0.87344 0.81341 0.0
C1538 C 0.57158 0.85624 0.81718 0.0
C1539 C 0.52783 0.88342 0.8177 0.0
H1540 H 0.50569 0.83579 0.79179 0.0
C1541 C 0.44489 0.8524 0.82268 0.0
C1542 C 0.44493 0.83217 0.82925 0.0
C1543 C 0.4629 0.8622 0.81814 0.0
C1544 C 0.51159 0.84935 0.79879 0.0
H1545 H 0.60212 0.90203 0.79745 0.0
H1546 H 0.56549 0.90105 0.79239 0.0
H1547 H 0.54053 0.84487 0.78577 0.0
H1548 H 0.46382 0.80696 0.83782 0.0
H1549 H 0.49502 0.82401 0.82989 0.0
H1550 H 0.49914 0.88691 0.83201 0.0
C1551 C 0.57288 0.88864 0.80004 0.0
C1552 C 0.5314 0.8546 0.79522 0.0
C1553 C 0.59367 0.88915 0.80285 0.0
C1554 C 0.46326 0.82245 0.83259 0.0
C1555 C 0.48111 0.83214 0.82794 0.0
C1556 C 0.50787 0.87815 0.82128 0.0
C1557 C 0.5618 0.87211 0.80721 0.0
C1558 C 0.53992 0.87107 0.80542 0.0
C1559 C 0.48104 0.85179 0.81999 0.0
C1560 C 0.5 0.86047 0.81265 0.0
H1561 H 0.59917 0.84469 0.82854 0.0
H1562 H 0.56324 0.84342 0.82293 0.0
H1563 H 0.53426 0.89605 0.82589 0.0
H1564 H 0.43095 0.86026 0.82 0.0
H1565 H 0.46259 0.87744 0.81219 0.0
C1566 C 0.90479 0.11269 0.30318 0.0
C1567 C 0.8947 0.10561 0.32051 0.0
C1568 C 0.92571 0.11329 0.30297 0.0
C1569 C 0.9646 0.1201 0.34128 0.0
H1570 H 0.00022 0.12073 0.29467 0.0
C1571 C 0.05103 0.14381 0.32087 0.0
C1572 C 0.05095 0.16343 0.32903 0.0
C1573 C 0.03342 0.13247 0.32017 0.0
C1574 C 0.99051 0.12032 0.30789 0.0
H1575 H 0.89812 0.09127 0.34998 0.0
H1576 H 0.9345 0.09145 0.34927 0.0
H1577 H 0.96677 0.10605 0.29125 0.0
H1578 H 0.03261 0.18635 0.34336 0.0
H1579 H 0.002 0.16648 0.3424 0.0
H1580 H 0.98798 0.13484 0.35775 0.0
C1581 C 0.92646 0.09728 0.33619 0.0
C1582 C 0.97135 0.11207 0.30589 0.0
C1583 C 0.90566 0.09704 0.33655 0.0
C1584 C 0.03313 0.17127 0.33701 0.0
C1585 C 0.01563 0.15986 0.33654 0.0
C1586 C 0.98362 0.12838 0.34323 0.0
C1587 C 0.9367 0.10657 0.32 0.0
C1588 C 0.95803 0.11227 0.32248 0.0
C1589 C 0.01554 0.14045 0.3279 0.0
C1590 C 0.99656 0.12907 0.32643 0.0
H1591 H 0.89659 0.11946 0.29068 0.0
H1592 H 0.93312 0.12057 0.29026 0.0
H1593 H 0.95468 0.12083 0.35432 0.0
H1594 H 0.06456 0.13742 0.31453 0.0
H1595 H 0.03376 0.11751 0.31353 0.0
C1596 C 0.09487 0.61373 0.196 0.0
C1597 C 0.10308 0.61254 0.17632 0.0
C1598 C 0.07413 0.6146 0.19858 0.0
C1599 C 0.03425 0.63622 0.19487 0.0
H1600 H 0.99545 0.60986 0.15984 0.0
C1601 C 0.96409 0.67626 0.16758 0.0
C1602 C 0.94574 0.66611 0.16894 0.0
C1603 C 0.98194 0.66603 0.17108 0.0
C1604 C 0.00605 0.61714 0.16995 0.0
H1605 H 0.09619 0.60954 0.14413 0.0
H1606 H 0.06023 0.61108 0.14859 0.0
H1607 H 0.0293 0.59611 0.16267 0.0
H1608 H 0.9317 0.63707 0.17426 0.0
H1609 H 0.96318 0.61902 0.17998 0.0
H1610 H 0.01133 0.65772 0.20146 0.0
C1611 C 0.06962 0.61135 0.16205 0.0
C1612 C 0.0254 0.60934 0.17151 0.0
C1613 C 0.09026 0.61069 0.15947 0.0
C1614 C 0.94564 0.64529 0.17311 0.0
C1615 C 0.9636 0.63497 0.17642 0.0
C1616 C 0.01501 0.64407 0.19319 0.0
C1617 C 0.06134 0.61404 0.18154 0.0
C1618 C 0.03988 0.61924 0.18343 0.0
C1619 C 0.98186 0.64538 0.17585 0.0
C1620 C 0.00097 0.63504 0.18014 0.0
H1621 H 0.10444 0.61507 0.20926 0.0
H1622 H 0.06812 0.61653 0.2138 0.0
H1623 H 0.04508 0.64429 0.20406 0.0
H1624 H 0.9647 0.69228 0.16435 0.0
H1625 H 0.99586 0.67432 0.17012 0.0
C1626 C 0.40655 0.38358 0.65773 0.0
C1627 C 0.39366 0.38157 0.67451 0.0
C1628 C 0.42718 0.38349 0.66049 0.0
C1629 C 0.46258 0.35951 0.69387 0.0
H1630 H 0.50126 0.38553 0.65846 0.0
C1631 C 0.53209 0.31899 0.66625 0.0
C1632 C 0.55059 0.32881 0.66801 0.0
C1633 C 0.51439 0.32949 0.66963 0.0
C1634 C 0.49069 0.37837 0.66868 0.0
H1635 H 0.39213 0.37945 0.70747 0.0
H1636 H 0.42842 0.37899 0.71232 0.0
H1637 H 0.46736 0.39923 0.66114 0.0
H1638 H 0.56506 0.35754 0.67381 0.0
H1639 H 0.5338 0.37609 0.67929 0.0
H1640 H 0.48555 0.33812 0.70065 0.0
C1641 C 0.42248 0.38059 0.69703 0.0
C1642 C 0.47132 0.38613 0.67017 0.0
C1643 C 0.40175 0.38088 0.69427 0.0
C1644 C 0.551 0.34959 0.67236 0.0
C1645 C 0.53318 0.36018 0.67554 0.0
C1646 C 0.48183 0.35169 0.69226 0.0
C1647 C 0.43538 0.38122 0.68008 0.0
C1648 C 0.45687 0.37631 0.68219 0.0
C1649 C 0.51477 0.35006 0.67468 0.0
C1650 C 0.4958 0.36058 0.67905 0.0
H1651 H 0.40071 0.38438 0.64233 0.0
H1652 H 0.43666 0.3838 0.6471 0.0
H1653 H 0.45179 0.35149 0.70314 0.0
H1654 H 0.53126 0.30302 0.66287 0.0
H1655 H 0.50034 0.32145 0.66846 0.0
C1656 C 0.83993 0.58145 0.89167 0.0
C1657 C 0.82368 0.59477 0.89058 0.0
C1658 C 0.8368 0.56071 0.89259 0.0
C1659 C 0.82738 0.51657 0.89695 0.0
H1660 H 0.7926 0.50158 0.85215 0.0
C1661 C 0.82806 0.43743 0.85801 0.0
C1662 C 0.82962 0.43884 0.83666 0.0
C1663 C 0.82389 0.45461 0.8697 0.0
C1664 C 0.8022 0.50548 0.86487 0.0
H1665 H 0.79138 0.59702 0.89127 0.0
H1666 H 0.78585 0.56052 0.8927 0.0
H1667 H 0.79101 0.53558 0.8659 0.0
H1668 H 0.82849 0.45934 0.81086 0.0
H1669 H 0.8214 0.4891 0.83113 0.0
H1670 H 0.8396 0.48678 0.8947 0.0
C1671 C 0.80102 0.56619 0.8927 0.0
C1672 C 0.80112 0.52489 0.87294 0.0
C1673 C 0.80418 0.58705 0.89189 0.0
C1674 C 0.82733 0.45772 0.82726 0.0
C1675 C 0.82303 0.47475 0.83886 0.0
C1676 C 0.82846 0.49711 0.88883 0.0
C1677 C 0.81732 0.5528 0.89236 0.0
C1678 C 0.81444 0.53098 0.88833 0.0
C1679 C 0.821 0.47335 0.86013 0.0
C1680 C 0.81661 0.49179 0.872 0.0
H1681 H 0.85514 0.58698 0.89095 0.0
H1682 H 0.8497 0.55088 0.89205 0.0
H1683 H 0.83758 0.52075 0.90906 0.0
H1684 H 0.82971 0.42304 0.86565 0.0
H1685 H 0.82253 0.45319 0.8861 0.0
C1686 C 0.29945 0.90756 0.10417 0.0
C1687 C 0.31889 0.89968 0.10315 0.0
C1688 C 0.29642 0.92845 0.10406 0.0
C1689 C 0.29894 0.96944 0.12428 0.0
H1690 H 0.33483 0.00781 0.09867 0.0
C1691 C 0.32766 0.03794 0.16677 0.0
C1692 C 0.32899 0.05661 0.15678 0.0
C1693 C 0.32291 0.02054 0.15591 0.0
C1694 C 0.32442 -0.0026 0.1057 0.0
H1695 H 0.35018 0.90725 0.09931 0.0
H1696 H 0.34501 0.94341 0.0994 0.0
H1697 H 0.33144 0.9739 0.08446 0.0
H1698 H 0.32689 0.07167 0.12746 0.0
H1699 H 0.31879 0.04096 0.10832 0.0
H1700 H 0.29245 0.99266 0.14592 0.0
C1701 C 0.33203 0.93368 0.10018 0.0
C1702 C 0.32257 0.97797 0.09765 0.0
C1703 C 0.33504 0.9129 0.10039 0.0
C1704 C 0.32603 0.05745 0.13555 0.0
C1705 C 0.32133 0.03993 0.12461 0.0
C1706 C 0.30078 0.98883 0.13228 0.0
C1707 C 0.31279 0.94172 0.10279 0.0
C1708 C 0.31056 0.96349 0.10747 0.0
C1709 C 0.31938 0.02139 0.1348 0.0
C1710 C 0.31428 0.00264 0.12368 0.0
H1711 H 0.2867 0.89768 0.10613 0.0
H1712 H 0.28139 0.93422 0.10588 0.0
H1713 H 0.2896 0.9587 0.13228 0.0
H1714 H 0.32993 0.03677 0.18309 0.0
H1715 H 0.32204 0.00637 0.16409 0.0
C1716 C 0.16913 0.93735 0.63411 0.0
C1717 C 0.16753 0.93942 0.65541 0.0
C1718 C 0.17395 0.95404 0.62196 0.0
C1719 C 0.19724 0.00433 0.62558 0.0
H1720 H 0.16235 0.01972 0.58105 0.0
C1721 C 0.19645 0.08574 0.59888 0.0
C1722 C 0.17701 0.09361 0.6001 0.0
C1723 C 0.19942 0.06488 0.59772 0.0
C1724 C 0.17243 0.0155 0.59325 0.0
H1725 H 0.1692 0.9606 0.68061 0.0
H1726 H 0.17737 0.98951 0.65954 0.0
H1727 H 0.15948 0.98604 0.59595 0.0
H1728 H 0.14549 0.08613 0.59908 0.0
H1729 H 0.15058 0.05002 0.59747 0.0
H1730 H 0.20908 0.03414 0.6242 0.0
C1731 C 0.17532 0.975 0.65222 0.0
C1732 C 0.17086 0.99619 0.60168 0.0
C1733 C 0.17039 0.95847 0.66427 0.0
C1734 C 0.16065 0.08047 0.59846 0.0
C1735 C 0.1636 0.05972 0.59724 0.0
C1736 C 0.19878 0.02359 0.61724 0.0
C1737 C 0.17743 0.97293 0.631 0.0
C1738 C 0.18249 0.9909 0.61867 0.0
C1739 C 0.18299 0.05162 0.59768 0.0
C1740 C 0.1856 0.02977 0.60176 0.0
H1741 H 0.16705 0.9228 0.62689 0.0
H1742 H 0.17534 0.95212 0.60561 0.0
H1743 H 0.20669 0.00041 0.63841 0.0
H1744 H 0.20933 0.09558 0.59989 0.0
H1745 H 0.21454 0.05908 0.59785 0.0
C1746 C 0.65844 0.4073 0.39114 0.0
C1747 C 0.67546 0.39496 0.39036 0.0
C1748 C 0.66031 0.42822 0.39075 0.0
C1749 C 0.66765 0.47311 0.39318 0.0
H1750 H 0.70089 0.48854 0.34732 0.0
C1751 C 0.66737 0.55319 0.35637 0.0
C1752 C 0.66572 0.55278 0.33498 0.0
C1753 C 0.67099 0.5354 0.36724 0.0
C1754 C 0.69166 0.48449 0.36027 0.0
H1755 H 0.70784 0.39477 0.39019 0.0
H1756 H 0.71114 0.43152 0.38937 0.0
H1757 H 0.70351 0.45464 0.36122 0.0
H1758 H 0.66605 0.53343 0.30827 0.0
H1759 H 0.67222 0.50253 0.32719 0.0
H1760 H 0.65497 0.50273 0.39128 0.0
C1761 C 0.69634 0.42494 0.39013 0.0
C1762 C 0.69334 0.46516 0.36842 0.0
C1763 C 0.69446 0.40394 0.39063 0.0
C1764 C 0.6673 0.53426 0.32473 0.0
C1765 C 0.67104 0.51659 0.33554 0.0
C1766 C 0.66601 0.49252 0.38503 0.0
C1767 C 0.67925 0.43726 0.38949 0.0
C1768 C 0.68078 0.45899 0.38441 0.0
C1769 C 0.6732 0.51701 0.35686 0.0
C1770 C 0.67741 0.49805 0.36794 0.0
H1771 H 0.64359 0.4008 0.39116 0.0
H1772 H 0.64683 0.43723 0.39006 0.0
H1773 H 0.65796 0.46882 0.40569 0.0
H1774 H 0.66625 0.56728 0.36466 0.0
H1775 H 0.67252 0.53608 0.38369 0.0
loop_
_geom_bond_atom_site_label_1
_geom_bond_atom_site_label_2
_geom_bond_distance
_geom_bond_site_symmetry_2
_ccdc_geom_bond_type
Co0 O1 2.216 . S
Co0 O2 2.091 . S
Co0 O4 2.004 . S
Co0 O10 2.021 . S
Co0 O12 2.137 . S
Co0 O13 2.244 . S
O1 Co0 2.216 . S
O1 C8 1.247 . S
O2 Co0 2.091 . S
O2 C8 1.261 . S
C3 O12 1.247 . S
C3 O13 1.272 . S
O4 Co0 2.004 . S
O4 C9 1.259 . S
Co5 O6 2.061 . S
Co5 O11 2.052 . S
Co5 O13 2.135 . S
O6 Co5 2.061 . S
O6 C9 1.235 . S
C7 O10 1.238 . S
C7 O11 1.241 . S
C8 O1 1.247 . S
C8 O2 1.261 . S
C9 O4 1.259 . S
C9 O6 1.235 . S
O10 Co0 2.021 . S
O10 C7 1.238 . S
O11 Co5 2.052 . S
O11 C7 1.241 . S
O12 Co0 2.137 . S
O12 C3 1.247 . S
O13 Co0 2.244 . S
O13 C3 1.272 . S
O13 Co5 2.135 . S
Co14 O15 2.216 . S
Co14 O16 2.091 . S
Co14 O18 2.004 . S
Co14 O24 2.021 . S
Co14 O26 2.137 . S
Co14 O27 2.244 . S
O15 Co14 2.216 . S
O15 C22 1.247 . S
O16 Co14 2.091 . S
O16 C22 1.261 . S
C17 O26 1.247 . S
C17 O27 1.272 . S
O18 Co14 2.004 . S
O18 C23 1.259 . S
Co19 O20 2.061 . S
Co19 O25 2.052 . S
Co19 O27 2.135 . S
O20 Co19 2.061 . S
O20 C23 1.235 . S
C21 O24 1.238 . S
C21 O25 1.241 . S
C22 O15 1.247 . S
C22 O16 1.261 . S
C23 O18 1.259 . S
C23 O20 1.235 . S
O24 Co14 2.021 . S
O24 C21 1.238 . S
O25 Co19 2.052 . S
O25 C21 1.241 . S
O26 Co14 2.137 . S
O26 C17 1.247 . S
O27 Co14 2.244 . S
O27 C17 1.272 . S
O27 Co19 2.135 . S
Co28 O29 2.216 . S
Co28 O30 2.091 . S
Co28 O32 2.004 . S
Co28 O38 2.021 . S
Co28 O40 2.137 . S
Co28 O41 2.244 . S
O29 Co28 2.216 . S
O29 C36 1.247 . S
O30 Co28 2.091 . S
O30 C36 1.261 . S
C31 O40 1.247 . S
C31 O41 1.272 . S
O32 Co28 2.004 . S
O32 C37 1.259 . S
Co33 O34 2.061 . S
Co33 O39 2.052 . S
Co33 O41 2.135 . S
O34 Co33 2.061 . S
O34 C37 1.235 . S
C35 O38 1.238 . S
C35 O39 1.241 . S
C36 O29 1.247 . S
C36 O30 1.261 . S
C37 O32 1.259 . S
C37 O34 1.235 . S
O38 Co28 2.021 . S
O38 C35 1.238 . S
O39 Co33 2.052 . S
O39 C35 1.241 . S
O40 Co28 2.137 . S
O40 C31 1.247 . S
O41 Co28 2.244 . S
O41 C31 1.272 . S
O41 Co33 2.135 . S
Co42 O43 2.216 . S
Co42 O44 2.091 . S
Co42 O46 2.004 . S
Co42 O52 2.021 . S
Co42 O54 2.137 . S
Co42 O55 2.244 . S
O43 Co42 2.216 . S
O43 C50 1.247 . S
O44 Co42 2.091 . S
O44 C50 1.261 . S
C45 O54 1.247 . S
C45 O55 1.272 . S
O46 Co42 2.004 . S
O46 C51 1.259 . S
Co47 O48 2.061 . S
Co47 O53 2.052 . S
Co47 O55 2.135 . S
O48 Co47 2.061 . S
O48 C51 1.235 . S
C49 O52 1.238 . S
C49 O53 1.241 . S
C50 O43 1.247 . S
C50 O44 1.261 . S
C51 O46 1.259 . S
C51 O48 1.235 . S
O52 Co42 2.021 . S
O52 C49 1.238 . S
O53 Co47 2.052 . S
O53 C49 1.241 . S
O54 Co42 2.137 . S
O54 C45 1.247 . S
O55 Co42 2.244 . S
O55 C45 1.272 . S
O55 Co47 2.135 . S
Co56 O57 2.216 . S
Co56 O58 2.091 . S
Co56 O60 2.004 . S
Co56 O66 2.021 . S
Co56 O68 2.137 . S
Co56 O69 2.244 . S
O57 Co56 2.216 . S
O57 C64 1.247 . S
O58 Co56 2.091 . S
O58 C64 1.261 . S
C59 O68 1.247 . S
C59 O69 1.272 . S
O60 Co56 2.004 . S
O60 C65 1.259 . S
Co61 O62 2.061 . S
Co61 O67 2.052 . S
Co61 O69 2.135 . S
O62 Co61 2.061 . S
O62 C65 1.235 . S
C63 O66 1.238 . S
C63 O67 1.241 . S
C64 O57 1.247 . S
C64 O58 1.261 . S
C65 O60 1.259 . S
C65 O62 1.235 . S
O66 Co56 2.021 . S
O66 C63 1.238 . S
O67 Co61 2.052 . S
O67 C63 1.241 . S
O68 Co56 2.137 . S
O68 C59 1.247 . S
O69 Co56 2.244 . S
O69 C59 1.272 . S
O69 Co61 2.135 . S
Co70 O71 2.216 . S
Co70 O72 2.091 . S
Co70 O74 2.004 . S
Co70 O80 2.021 . S
Co70 O82 2.137 . S
Co70 O83 2.244 . S
O71 Co70 2.216 . S
O71 C78 1.247 . S
O72 Co70 2.091 . S
O72 C78 1.261 . S
C73 O82 1.247 . S
C73 O83 1.272 . S
O74 Co70 2.004 . S
O74 C79 1.259 . S
Co75 O76 2.061 . S
Co75 O81 2.052 . S
Co75 O83 2.135 . S
O76 Co75 2.061 . S
O76 C79 1.235 . S
C77 O80 1.238 . S
C77 O81 1.241 . S
C78 O71 1.247 . S
C78 O72 1.261 . S
C79 O74 1.259 . S
C79 O76 1.235 . S
O80 Co70 2.021 . S
O80 C77 1.238 . S
O81 Co75 2.052 . S
O81 C77 1.241 . S
O82 Co70 2.137 . S
O82 C73 1.247 . S
O83 Co70 2.244 . S
O83 C73 1.272 . S
O83 Co75 2.135 . S
Co84 O85 2.216 . S
Co84 O86 2.091 . S
Co84 O88 2.004 . S
Co84 O94 2.021 . S
Co84 O96 2.137 . S
Co84 O97 2.244 . S
O85 Co84 2.216 . S
O85 C92 1.247 . S
O86 Co84 2.091 . S
O86 C92 1.261 . S
C87 O96 1.247 . S
C87 O97 1.272 . S
O88 Co84 2.004 . S
O88 C93 1.259 . S
Co89 O90 2.061 . S
Co89 O95 2.052 . S
Co89 O97 2.135 . S
O90 Co89 2.061 . S
O90 C93 1.235 . S
C91 O94 1.238 . S
C91 O95 1.241 . S
C92 O85 1.247 . S
C92 O86 1.261 . S
C93 O88 1.259 . S
C93 O90 1.235 . S
O94 Co84 2.021 . S
O94 C91 1.238 . S
O95 Co89 2.052 . S
O95 C91 1.241 . S
O96 Co84 2.137 . S
O96 C87 1.247 . S
O97 Co84 2.244 . S
O97 C87 1.272 . S
O97 Co89 2.135 . S
Co98 O99 2.216 . S
Co98 O100 2.091 . S
Co98 O102 2.004 . S
Co98 O108 2.021 . S
Co98 O110 2.137 . S
Co98 O111 2.244 . S
O99 Co98 2.216 . S
O99 C106 1.247 . S
O100 Co98 2.091 . S
O100 C106 1.261 . S
C101 O110 1.247 . S
C101 O111 1.272 . S
O102 Co98 2.004 . S
O102 C107 1.259 . S
Co103 O104 2.061 . S
Co103 O109 2.052 . S
Co103 O111 2.135 . S
O104 Co103 2.061 . S
O104 C107 1.235 . S
C105 O108 1.238 . S
C105 O109 1.241 . S
C106 O99 1.247 . S
C106 O100 1.261 . S
C107 O102 1.259 . S
C107 O104 1.235 . S
O108 Co98 2.021 . S
O108 C105 1.238 . S
O109 Co103 2.052 . S
O109 C105 1.241 . S
O110 Co98 2.137 . S
O110 C101 1.247 . S
O111 Co98 2.244 . S
O111 C101 1.272 . S
O111 Co103 2.135 . S
Co112 O113 2.216 . S
Co112 O114 2.091 . S
Co112 O116 2.004 . S
Co112 O122 2.021 . S
Co112 O124 2.137 . S
Co112 O125 2.244 . S
O113 Co112 2.216 . S
O113 C120 1.247 . S
O114 Co112 2.091 . S
O114 C120 1.261 . S
C115 O124 1.247 . S
C115 O125 1.272 . S
O116 Co112 2.004 . S
O116 C121 1.259 . S
Co117 O118 2.061 . S
Co117 O123 2.052 . S
Co117 O125 2.135 . S
O118 Co117 2.061 . S
O118 C121 1.235 . S
C119 O122 1.238 . S
C119 O123 1.241 . S
C120 O113 1.247 . S
C120 O114 1.261 . S
C121 O116 1.259 . S
C121 O118 1.235 . S
O122 Co112 2.021 . S
O122 C119 1.238 . S
O123 Co117 2.052 . S
O123 C119 1.241 . S
O124 Co112 2.137 . S
O124 C115 1.247 . S
O125 Co112 2.244 . S
O125 C115 1.272 . S
O125 Co117 2.135 . S
Co126 O127 2.216 . S
Co126 O128 2.091 . S
Co126 O130 2.004 . S
Co126 O136 2.021 . S
Co126 O138 2.137 . S
Co126 O139 2.244 . S
O127 Co126 2.216 . S
O127 C134 1.247 . S
O128 Co126 2.091 . S
O128 C134 1.261 . S
C129 O138 1.247 . S
C129 O139 1.272 . S
O130 Co126 2.004 . S
O130 C135 1.259 . S
Co131 O132 2.061 . S
Co131 O137 2.052 . S
Co131 O139 2.135 . S
O132 Co131 2.061 . S
O132 C135 1.235 . S
C133 O136 1.238 . S
C133 O137 1.241 . S
C134 O127 1.247 . S
C134 O128 1.261 . S
C135 O130 1.259 . S
C135 O132 1.235 . S
O136 Co126 2.021 . S
O136 C133 1.238 . S
O137 Co131 2.052 . S
O137 C133 1.241 . S
O138 Co126 2.137 . S
O138 C129 1.247 . S
O139 Co126 2.244 . S
O139 C129 1.272 . S
O139 Co131 2.135 . S
Co140 O141 2.216 . S
Co140 O142 2.091 . S
Co140 O144 2.004 . S
Co140 O150 2.021 . S
Co140 O152 2.137 . S
Co140 O153 2.244 . S
O141 Co140 2.216 . S
O141 C148 1.247 . S
O142 Co140 2.091 . S
O142 C148 1.261 . S
C143 O152 1.247 . S
C143 O153 1.272 . S
O144 Co140 2.004 . S
O144 C149 1.259 . S
Co145 O146 2.061 . S
Co145 O151 2.052 . S
Co145 O153 2.135 . S
O146 Co145 2.061 . S
O146 C149 1.235 . S
C147 O150 1.238 . S
C147 O151 1.241 . S
C148 O141 1.247 . S
C148 O142 1.261 . S
C149 O144 1.259 . S
C149 O146 1.235 . S
O150 Co140 2.021 . S
O150 C147 1.238 . S
O151 Co145 2.052 . S
O151 C147 1.241 . S
O152 Co140 2.137 . S
O152 C143 1.247 . S
O153 Co140 2.244 . S
O153 C143 1.272 . S
O153 Co145 2.135 . S
Co154 O155 2.216 . S
Co154 O156 2.091 . S
Co154 O158 2.004 . S
Co154 O164 2.021 . S
Co154 O166 2.137 . S
Co154 O167 2.244 . S
O155 Co154 2.216 . S
O155 C162 1.247 . S
O156 Co154 2.091 . S
O156 C162 1.261 . S
C157 O166 1.247 . S
C157 O167 1.272 . S
O158 Co154 2.004 . S
O158 C163 1.259 . S
Co159 O160 2.061 . S
Co159 O165 2.052 . S
Co159 O167 2.135 . S
O160 Co159 2.061 . S
O160 C163 1.235 . S
C161 O164 1.238 . S
C161 O165 1.241 . S
C162 O155 1.247 . S
C162 O156 1.261 . S
C163 O158 1.259 . S
C163 O160 1.235 . S
O164 Co154 2.021 . S
O164 C161 1.238 . S
O165 Co159 2.052 . S
O165 C161 1.241 . S
O166 Co154 2.137 . S
O166 C157 1.247 . S
O167 Co154 2.244 . S
O167 C157 1.272 . S
O167 Co159 2.135 . S
Co168 O169 2.216 . S
Co168 O170 2.091 . S
Co168 O172 2.004 . S
Co168 O178 2.021 . S
Co168 O180 2.137 . S
Co168 O181 2.244 . S
O169 Co168 2.216 . S
O169 C176 1.247 . S
O170 Co168 2.091 . S
O170 C176 1.261 . S
C171 O180 1.247 . S
C171 O181 1.272 . S
O172 Co168 2.004 . S
O172 C177 1.259 . S
Co173 O174 2.061 . S
Co173 O179 2.052 . S
Co173 O181 2.135 . S
O174 Co173 2.061 . S
O174 C177 1.235 . S
C175 O178 1.238 . S
C175 O179 1.241 . S
C176 O169 1.247 . S
C176 O170 1.261 . S
C177 O172 1.259 . S
C177 O174 1.235 . S
O178 Co168 2.021 . S
O178 C175 1.238 . S
O179 Co173 2.052 . S
O179 C175 1.241 . S
O180 Co168 2.137 . S
O180 C171 1.247 . S
O181 Co168 2.244 . S
O181 C171 1.272 . S
O181 Co173 2.135 . S
Co182 O183 2.216 . S
Co182 O184 2.091 . S
Co182 O186 2.004 . S
Co182 O192 2.021 . S
Co182 O194 2.137 . S
Co182 O195 2.244 . S
O183 Co182 2.216 . S
O183 C190 1.247 . S
O184 Co182 2.091 . S
O184 C190 1.261 . S
C185 O194 1.247 . S
C185 O195 1.272 . S
O186 Co182 2.004 . S
O186 C191 1.259 . S
Co187 O188 2.061 . S
Co187 O193 2.052 . S
Co187 O195 2.135 . S
O188 Co187 2.061 . S
O188 C191 1.235 . S
C189 O192 1.238 . S
C189 O193 1.241 . S
C190 O183 1.247 . S
C190 O184 1.261 . S
C191 O186 1.259 . S
C191 O188 1.235 . S
O192 Co182 2.021 . S
O192 C189 1.238 . S
O193 Co187 2.052 . S
O193 C189 1.241 . S
O194 Co182 2.137 . S
O194 C185 1.247 . S
O195 Co182 2.244 . S
O195 C185 1.272 . S
O195 Co187 2.135 . S
Co196 O197 2.216 . S
Co196 O198 2.091 . S
Co196 O200 2.004 . S
Co196 O206 2.021 . S
Co196 O208 2.137 . S
Co196 O209 2.244 . S
O197 Co196 2.216 . S
O197 C204 1.247 . S
O198 Co196 2.091 . S
O198 C204 1.261 . S
C199 O208 1.247 . S
C199 O209 1.272 . S
O200 Co196 2.004 . S
O200 C205 1.259 . S
Co201 O202 2.061 . S
Co201 O207 2.052 . S
Co201 O209 2.135 . S
O202 Co201 2.061 . S
O202 C205 1.235 . S
C203 O206 1.238 . S
C203 O207 1.241 . S
C204 O197 1.247 . S
C204 O198 1.261 . S
C205 O200 1.259 . S
C205 O202 1.235 . S
O206 Co196 2.021 . S
O206 C203 1.238 . S
O207 Co201 2.052 . S
O207 C203 1.241 . S
O208 Co196 2.137 . S
O208 C199 1.247 . S
O209 Co196 2.244 . S
O209 C199 1.272 . S
O209 Co201 2.135 . S
Co210 O211 2.216 . S
Co210 O212 2.091 . S
Co210 O214 2.004 . S
Co210 O220 2.021 . S
Co210 O222 2.137 . S
Co210 O223 2.244 . S
O211 Co210 2.216 . S
O211 C218 1.247 . S
O212 Co210 2.091 . S
O212 C218 1.261 . S
C213 O222 1.247 . S
C213 O223 1.272 . S
O214 Co210 2.004 . S
O214 C219 1.259 . S
Co215 O216 2.061 . S
Co215 O221 2.052 . S
Co215 O223 2.135 . S
O216 Co215 2.061 . S
O216 C219 1.235 . S
C217 O220 1.238 . S
C217 O221 1.241 . S
C218 O211 1.247 . S
C218 O212 1.261 . S
C219 O214 1.259 . S
C219 O216 1.235 . S
O220 Co210 2.021 . S
O220 C217 1.238 . S
O221 Co215 2.052 . S
O221 C217 1.241 . S
O222 Co210 2.137 . S
O222 C213 1.247 . S
O223 Co210 2.244 . S
O223 C213 1.272 . S
O223 Co215 2.135 . S
Co224 O225 2.216 . S
Co224 O226 2.091 . S
Co224 O228 2.004 . S
Co224 O234 2.021 . S
Co224 O236 2.137 . S
Co224 O237 2.244 . S
O225 Co224 2.216 . S
O225 C232 1.247 . S
O226 Co224 2.091 . S
O226 C232 1.261 . S
C227 O236 1.247 . S
C227 O237 1.272 . S
O228 Co224 2.004 . S
O228 C233 1.259 . S
Co229 O230 2.061 . S
Co229 O235 2.052 . S
Co229 O237 2.135 . S
O230 Co229 2.061 . S
O230 C233 1.235 . S
C231 O234 1.238 . S
C231 O235 1.241 . S
C232 O225 1.247 . S
C232 O226 1.261 . S
C233 O228 1.259 . S
C233 O230 1.235 . S
O234 Co224 2.021 . S
O234 C231 1.238 . S
O235 Co229 2.052 . S
O235 C231 1.241 . S
O236 Co224 2.137 . S
O236 C227 1.247 . S
O237 Co224 2.244 . S
O237 C227 1.272 . S
O237 Co229 2.135 . S
Co238 O239 2.216 . S
Co238 O240 2.091 . S
Co238 O242 2.004 . S
Co238 O248 2.021 . S
Co238 O250 2.137 . S
Co238 O251 2.244 . S
O239 Co238 2.216 . S
O239 C246 1.247 . S
O240 Co238 2.091 . S
O240 C246 1.261 . S
C241 O250 1.247 . S
C241 O251 1.272 . S
O242 Co238 2.004 . S
O242 C247 1.259 . S
Co243 O244 2.061 . S
Co243 O249 2.052 . S
Co243 O251 2.135 . S
O244 Co243 2.061 . S
O244 C247 1.235 . S
C245 O248 1.238 . S
C245 O249 1.241 . S
C246 O239 1.247 . S
C246 O240 1.261 . S
C247 O242 1.259 . S
C247 O244 1.235 . S
O248 Co238 2.021 . S
O248 C245 1.238 . S
O249 Co243 2.052 . S
O249 C245 1.241 . S
O250 Co238 2.137 . S
O250 C241 1.247 . S
O251 Co238 2.244 . S
O251 C241 1.272 . S
O251 Co243 2.135 . S
Co252 O253 2.216 . S
Co252 O254 2.091 . S
Co252 O256 2.004 . S
Co252 O262 2.021 . S
Co252 O264 2.137 . S
Co252 O265 2.244 . S
O253 Co252 2.216 . S
O253 C260 1.247 . S
O254 Co252 2.091 . S
O254 C260 1.261 . S
C255 O264 1.247 . S
C255 O265 1.272 . S
O256 Co252 2.004 . S
O256 C261 1.259 . S
Co257 O258 2.061 . S
Co257 O263 2.052 . S
Co257 O265 2.135 . S
O258 Co257 2.061 . S
O258 C261 1.235 . S
C259 O262 1.238 . S
C259 O263 1.241 . S
C260 O253 1.247 . S
C260 O254 1.261 . S
C261 O256 1.259 . S
C261 O258 1.235 . S
O262 Co252 2.021 . S
O262 C259 1.238 . S
O263 Co257 2.052 . S
O263 C259 1.241 . S
O264 Co252 2.137 . S
O264 C255 1.247 . S
O265 Co252 2.244 . S
O265 C255 1.272 . S
O265 Co257 2.135 . S
Co266 O267 2.216 . S
Co266 O268 2.091 . S
Co266 O270 2.004 . S
Co266 O276 2.021 . S
Co266 O278 2.137 . S
Co266 O279 2.244 . S
O267 Co266 2.216 . S
O267 C274 1.247 . S
O268 Co266 2.091 . S
O268 C274 1.261 . S
C269 O278 1.247 . S
C269 O279 1.272 . S
O270 Co266 2.004 . S
O270 C275 1.259 . S
Co271 O272 2.061 . S
Co271 O277 2.052 . S
Co271 O279 2.135 . S
O272 Co271 2.061 . S
O272 C275 1.235 . S
C273 O276 1.238 . S
C273 O277 1.241 . S
C274 O267 1.247 . S
C274 O268 1.261 . S
C275 O270 1.259 . S
C275 O272 1.235 . S
O276 Co266 2.021 . S
O276 C273 1.238 . S
O277 Co271 2.052 . S
O277 C273 1.241 . S
O278 Co266 2.137 . S
O278 C269 1.247 . S
O279 Co266 2.244 . S
O279 C269 1.272 . S
O279 Co271 2.135 . S
Co280 O281 2.216 . S
Co280 O282 2.091 . S
Co280 O284 2.004 . S
Co280 O290 2.021 . S
Co280 O292 2.137 . S
Co280 O293 2.244 . S
O281 Co280 2.216 . S
O281 C288 1.247 . S
O282 Co280 2.091 . S
O282 C288 1.261 . S
C283 O292 1.247 . S
C283 O293 1.272 . S
O284 Co280 2.004 . S
O284 C289 1.259 . S
Co285 O286 2.061 . S
Co285 O291 2.052 . S
Co285 O293 2.135 . S
O286 Co285 2.061 . S
O286 C289 1.235 . S
C287 O290 1.238 . S
C287 O291 1.241 . S
C288 O281 1.247 . S
C288 O282 1.261 . S
C289 O284 1.259 . S
C289 O286 1.235 . S
O290 Co280 2.021 . S
O290 C287 1.238 . S
O291 Co285 2.052 . S
O291 C287 1.241 . S
O292 Co280 2.137 . S
O292 C283 1.247 . S
O293 Co280 2.244 . S
O293 C283 1.272 . S
O293 Co285 2.135 . S
Co294 O295 2.216 . S
Co294 O296 2.091 . S
Co294 O298 2.004 . S
Co294 O304 2.021 . S
Co294 O306 2.137 . S
Co294 O307 2.244 . S
O295 Co294 2.216 . S
O295 C302 1.247 . S
O296 Co294 2.091 . S
O296 C302 1.261 . S
C297 O306 1.247 . S
C297 O307 1.272 . S
O298 Co294 2.004 . S
O298 C303 1.259 . S
Co299 O300 2.061 . S
Co299 O305 2.052 . S
Co299 O307 2.135 . S
O300 Co299 2.061 . S
O300 C303 1.235 . S
C301 O304 1.238 . S
C301 O305 1.241 . S
C302 O295 1.247 . S
C302 O296 1.261 . S
C303 O298 1.259 . S
C303 O300 1.235 . S
O304 Co294 2.021 . S
O304 C301 1.238 . S
O305 Co299 2.052 . S
O305 C301 1.241 . S
O306 Co294 2.137 . S
O306 C297 1.247 . S
O307 Co294 2.244 . S
O307 C297 1.272 . S
O307 Co299 2.135 . S
Co308 O309 2.216 . S
Co308 O310 2.091 . S
Co308 O312 2.004 . S
Co308 O318 2.021 . S
Co308 O320 2.137 . S
Co308 O321 2.244 . S
O309 Co308 2.216 . S
O309 C316 1.247 . S
O310 Co308 2.091 . S
O310 C316 1.261 . S
C311 O320 1.247 . S
C311 O321 1.272 . S
O312 Co308 2.004 . S
O312 C317 1.259 . S
Co313 O314 2.061 . S
Co313 O319 2.052 . S
Co313 O321 2.135 . S
O314 Co313 2.061 . S
O314 C317 1.235 . S
C315 O318 1.238 . S
C315 O319 1.241 . S
C316 O309 1.247 . S
C316 O310 1.261 . S
C317 O312 1.259 . S
C317 O314 1.235 . S
O318 Co308 2.021 . S
O318 C315 1.238 . S
O319 Co313 2.052 . S
O319 C315 1.241 . S
O320 Co308 2.137 . S
O320 C311 1.247 . S
O321 Co308 2.244 . S
O321 C311 1.272 . S
O321 Co313 2.135 . S
Co322 O323 2.216 . S
Co322 O324 2.091 . S
Co322 O326 2.004 . S
Co322 O332 2.021 . S
Co322 O334 2.137 . S
Co322 O335 2.244 . S
O323 Co322 2.216 . S
O323 C330 1.247 . S
O324 Co322 2.091 . S
O324 C330 1.261 . S
C325 O334 1.247 . S
C325 O335 1.272 . S
O326 Co322 2.004 . S
O326 C331 1.259 . S
Co327 O328 2.061 . S
Co327 O333 2.052 . S
Co327 O335 2.135 . S
O328 Co327 2.061 . S
O328 C331 1.235 . S
C329 O332 1.238 . S
C329 O333 1.241 . S
C330 O323 1.247 . S
C330 O324 1.261 . S
C331 O326 1.259 . S
C331 O328 1.235 . S
O332 Co322 2.021 . S
O332 C329 1.238 . S
O333 Co327 2.052 . S
O333 C329 1.241 . S
O334 Co322 2.137 . S
O334 C325 1.247 . S
O335 Co322 2.244 . S
O335 C325 1.272 . S
O335 Co327 2.135 . S
C336 C337 1.349 . S
C336 C338 1.327 . S
C336 H361 0.950 . S
C337 C336 1.349 . S
C337 C353 1.349 . S
C338 C336 1.327 . S
C338 C357 1.429 . S
C338 H362 0.950 . S
C339 C356 1.574 . S
C339 C358 1.368 . S
C339 H363 0.949 . S
H340 C344 0.949 . S
C341 C342 1.349 . S
C341 C343 1.327 . S
C341 H364 0.950 . S
C342 C341 1.349 . S
C342 C354 1.349 . S
C343 C341 1.327 . S
C343 C359 1.429 . S
C343 H365 0.950 . S
C344 H340 0.949 . S
C344 C352 1.574 . S
C344 C360 1.368 . S
H345 C353 0.950 . S
H346 C351 0.950 . S
H347 C352 0.949 . S
H348 C354 0.950 . S
H349 C355 0.950 . S
H350 C356 0.949 . S
C351 H346 0.950 . S
C351 C353 1.327 . S
C351 C357 1.429 . S
C352 C344 1.574 . S
C352 H347 0.949 . S
C352 C358 1.368 . S
C353 C337 1.349 . S
C353 H345 0.950 . S
C353 C351 1.327 . S
C354 C342 1.349 . S
C354 H348 0.950 . S
C354 C355 1.327 . S
C355 H349 0.950 . S
C355 C354 1.327 . S
C355 C359 1.429 . S
C356 C339 1.574 . S
C356 H350 0.949 . S
C356 C360 1.368 . S
C357 C338 1.429 . S
C357 C351 1.429 . S
C357 C358 1.523 . S
C358 C339 1.368 . S
C358 C352 1.368 . S
C358 C357 1.523 . S
C359 C343 1.429 . S
C359 C355 1.429 . S
C359 C360 1.523 . S
C360 C344 1.368 . S
C360 C356 1.368 . S
C360 C359 1.523 . S
H361 C336 0.950 . S
H362 C338 0.950 . S
H363 C339 0.949 . S
H364 C341 0.950 . S
H365 C343 0.950 . S
C366 C367 1.349 . S
C366 C368 1.327 . S
C366 H391 0.950 . S
C367 C366 1.349 . S
C367 C383 1.349 . S
C368 C366 1.327 . S
C368 C387 1.429 . S
C368 H392 0.950 . S
C369 C386 1.574 . S
C369 C388 1.368 . S
C369 H393 0.949 . S
H370 C374 0.949 . S
C371 C372 1.349 . S
C371 C373 1.327 . S
C371 H394 0.950 . S
C372 C371 1.349 . S
C372 C384 1.349 . S
C373 C371 1.327 . S
C373 C389 1.429 . S
C373 H395 0.950 . S
C374 H370 0.949 . S
C374 C382 1.574 . S
C374 C390 1.368 . S
H375 C383 0.950 . S
H376 C381 0.950 . S
H377 C382 0.949 . S
H378 C384 0.950 . S
H379 C385 0.950 . S
H380 C386 0.949 . S
C381 H376 0.950 . S
C381 C383 1.327 . S
C381 C387 1.429 . S
C382 C374 1.574 . S
C382 H377 0.949 . S
C382 C388 1.368 . S
C383 C367 1.349 . S
C383 H375 0.950 . S
C383 C381 1.327 . S
C384 C372 1.349 . S
C384 H378 0.950 . S
C384 C385 1.327 . S
C385 H379 0.950 . S
C385 C384 1.327 . S
C385 C389 1.429 . S
C386 C369 1.574 . S
C386 H380 0.949 . S
C386 C390 1.368 . S
C387 C368 1.429 . S
C387 C381 1.429 . S
C387 C388 1.523 . S
C388 C369 1.368 . S
C388 C382 1.368 . S
C388 C387 1.523 . S
C389 C373 1.429 . S
C389 C385 1.429 . S
C389 C390 1.523 . S
C390 C374 1.368 . S
C390 C386 1.368 . S
C390 C389 1.523 . S
H391 C366 0.950 . S
H392 C368 0.950 . S
H393 C369 0.949 . S
H394 C371 0.950 . S
H395 C373 0.950 . S
C396 C397 1.349 . S
C396 C398 1.327 . S
C396 H421 0.950 . S
C397 C396 1.349 . S
C397 C413 1.349 . S
C398 C396 1.327 . S
C398 C417 1.429 . S
C398 H422 0.950 . S
C399 C416 1.574 . S
C399 C418 1.368 . S
C399 H423 0.949 . S
H400 C404 0.949 . S
C401 C402 1.349 . S
C401 C403 1.327 . S
C401 H424 0.950 . S
C402 C401 1.349 . S
C402 C414 1.349 . S
C403 C401 1.327 . S
C403 C419 1.429 . S
C403 H425 0.950 . S
C404 H400 0.949 . S
C404 C412 1.574 . S
C404 C420 1.368 . S
H405 C413 0.950 . S
H406 C411 0.950 . S
H407 C412 0.949 . S
H408 C414 0.950 . S
H409 C415 0.950 . S
H410 C416 0.949 . S
C411 H406 0.950 . S
C411 C413 1.327 . S
C411 C417 1.429 . S
C412 C404 1.574 . S
C412 H407 0.949 . S
C412 C418 1.368 . S
C413 C397 1.349 . S
C413 H405 0.950 . S
C413 C411 1.327 . S
C414 C402 1.349 . S
C414 H408 0.950 . S
C414 C415 1.327 . S
C415 H409 0.950 . S
C415 C414 1.327 . S
C415 C419 1.429 . S
C416 C399 1.574 . S
C416 H410 0.949 . S
C416 C420 1.368 . S
C417 C398 1.429 . S
C417 C411 1.429 . S
C417 C418 1.523 . S
C418 C399 1.368 . S
C418 C412 1.368 . S
C418 C417 1.523 . S
C419 C403 1.429 . S
C419 C415 1.429 . S
C419 C420 1.523 . S
C420 C404 1.368 . S
C420 C416 1.368 . S
C420 C419 1.523 . S
H421 C396 0.950 . S
H422 C398 0.950 . S
H423 C399 0.949 . S
H424 C401 0.950 . S
H425 C403 0.950 . S
C426 C427 1.349 . S
C426 C428 1.327 . S
C426 H451 0.950 . S
C427 C426 1.349 . S
C427 C443 1.349 . S
C428 C426 1.327 . S
C428 C447 1.429 . S
C428 H452 0.950 . S
C429 C446 1.574 . S
C429 C448 1.368 . S
C429 H453 0.949 . S
H430 C434 0.949 . S
C431 C432 1.349 . S
C431 C433 1.327 . S
C431 H454 0.950 . S
C432 C431 1.349 . S
C432 C444 1.349 . S
C433 C431 1.327 . S
C433 C449 1.429 . S
C433 H455 0.950 . S
C434 H430 0.949 . S
C434 C442 1.574 . S
C434 C450 1.368 . S
H435 C443 0.950 . S
H436 C441 0.950 . S
H437 C442 0.949 . S
H438 C444 0.950 . S
H439 C445 0.950 . S
H440 C446 0.949 . S
C441 H436 0.950 . S
C441 C443 1.327 . S
C441 C447 1.429 . S
C442 C434 1.574 . S
C442 H437 0.949 . S
C442 C448 1.368 . S
C443 C427 1.349 . S
C443 H435 0.950 . S
C443 C441 1.327 . S
C444 C432 1.349 . S
C444 H438 0.950 . S
C444 C445 1.327 . S
C445 H439 0.950 . S
C445 C444 1.327 . S
C445 C449 1.429 . S
C446 C429 1.574 . S
C446 H440 0.949 . S
C446 C450 1.368 . S
C447 C428 1.429 . S
C447 C441 1.429 . S
C447 C448 1.523 . S
C448 C429 1.368 . S
C448 C442 1.368 . S
C448 C447 1.523 . S
C449 C433 1.429 . S
C449 C445 1.429 . S
C449 C450 1.523 . S
C450 C434 1.368 . S
C450 C446 1.368 . S
C450 C449 1.523 . S
H451 C426 0.950 . S
H452 C428 0.950 . S
H453 C429 0.949 . S
H454 C431 0.950 . S
H455 C433 0.950 . S
C456 C457 1.349 . S
C456 C458 1.327 . S
C456 H481 0.950 . S
C457 C456 1.349 . S
C457 C473 1.349 . S
C458 C456 1.327 . S
C458 C477 1.429 . S
C458 H482 0.950 . S
C459 C476 1.574 . S
C459 C478 1.368 . S
C459 H483 0.949 . S
H460 C464 0.949 . S
C461 C462 1.349 . S
C461 C463 1.327 . S
C461 H484 0.950 . S
C462 C461 1.349 . S
C462 C474 1.349 . S
C463 C461 1.327 . S
C463 C479 1.429 . S
C463 H485 0.950 . S
C464 H460 0.949 . S
C464 C472 1.574 . S
C464 C480 1.368 . S
H465 C473 0.950 . S
H466 C471 0.950 . S
H467 C472 0.949 . S
H468 C474 0.950 . S
H469 C475 0.950 . S
H470 C476 0.949 . S
C471 H466 0.950 . S
C471 C473 1.327 . S
C471 C477 1.429 . S
C472 C464 1.574 . S
C472 H467 0.949 . S
C472 C478 1.368 . S
C473 C457 1.349 . S
C473 H465 0.950 . S
C473 C471 1.327 . S
C474 C462 1.349 . S
C474 H468 0.950 . S
C474 C475 1.327 . S
C475 H469 0.950 . S
C475 C474 1.327 . S
C475 C479 1.429 . S
C476 C459 1.574 . S
C476 H470 0.949 . S
C476 C480 1.368 . S
C477 C458 1.429 . S
C477 C471 1.429 . S
C477 C478 1.523 . S
C478 C459 1.368 . S
C478 C472 1.368 . S
C478 C477 1.523 . S
C479 C463 1.429 . S
C479 C475 1.429 . S
C479 C480 1.523 . S
C480 C464 1.368 . S
C480 C476 1.368 . S
C480 C479 1.523 . S
H481 C456 0.950 . S
H482 C458 0.950 . S
H483 C459 0.949 . S
H484 C461 0.950 . S
H485 C463 0.950 . S
C486 C487 1.349 . S
C486 C488 1.327 . S
C486 H511 0.950 . S
C487 C486 1.349 . S
C487 C503 1.349 . S
C488 C486 1.327 . S
C488 C507 1.429 . S
C488 H512 0.950 . S
C489 C506 1.574 . S
C489 C508 1.368 . S
C489 H513 0.949 . S
H490 C494 0.949 . S
C491 C492 1.349 . S
C491 C493 1.327 . S
C491 H514 0.950 . S
C492 C491 1.349 . S
C492 C504 1.349 . S
C493 C491 1.327 . S
C493 C509 1.429 . S
C493 H515 0.950 . S
C494 H490 0.949 . S
C494 C502 1.574 . S
C494 C510 1.368 . S
H495 C503 0.950 . S
H496 C501 0.950 . S
H497 C502 0.949 . S
H498 C504 0.950 . S
H499 C505 0.950 . S
H500 C506 0.949 . S
C501 H496 0.950 . S
C501 C503 1.327 . S
C501 C507 1.429 . S
C502 C494 1.574 . S
C502 H497 0.949 . S
C502 C508 1.368 . S
C503 C487 1.349 . S
C503 H495 0.950 . S
C503 C501 1.327 . S
C504 C492 1.349 . S
C504 H498 0.950 . S
C504 C505 1.327 . S
C505 H499 0.950 . S
C505 C504 1.327 . S
C505 C509 1.429 . S
C506 C489 1.574 . S
C506 H500 0.949 . S
C506 C510 1.368 . S
C507 C488 1.429 . S
C507 C501 1.429 . S
C507 C508 1.523 . S
C508 C489 1.368 . S
C508 C502 1.368 . S
C508 C507 1.523 . S
C509 C493 1.429 . S
C509 C505 1.429 . S
C509 C510 1.523 . S
C510 C494 1.368 . S
C510 C506 1.368 . S
C510 C509 1.523 . S
H511 C486 0.950 . S
H512 C488 0.950 . S
H513 C489 0.949 . S
H514 C491 0.950 . S
H515 C493 0.950 . S
C516 C517 1.349 . S
C516 C518 1.327 . S
C516 H541 0.950 . S
C517 C516 1.349 . S
C517 C533 1.349 . S
C518 C516 1.327 . S
C518 C537 1.429 . S
C518 H542 0.950 . S
C519 C536 1.574 . S
C519 C538 1.368 . S
C519 H543 0.949 . S
H520 C524 0.949 . S
C521 C522 1.349 . S
C521 C523 1.327 . S
C521 H544 0.950 . S
C522 C521 1.349 . S
C522 C534 1.349 . S
C523 C521 1.327 . S
C523 C539 1.429 . S
C523 H545 0.950 . S
C524 H520 0.949 . S
C524 C532 1.574 . S
C524 C540 1.368 . S
H525 C533 0.950 . S
H526 C531 0.950 . S
H527 C532 0.949 . S
H528 C534 0.950 . S
H529 C535 0.950 . S
H530 C536 0.949 . S
C531 H526 0.950 . S
C531 C533 1.327 . S
C531 C537 1.429 . S
C532 C524 1.574 . S
C532 H527 0.949 . S
C532 C538 1.368 . S
C533 C517 1.349 . S
C533 H525 0.950 . S
C533 C531 1.327 . S
C534 C522 1.349 . S
C534 H528 0.950 . S
C534 C535 1.327 . S
C535 H529 0.950 . S
C535 C534 1.327 . S
C535 C539 1.429 . S
C536 C519 1.574 . S
C536 H530 0.949 . S
C536 C540 1.368 . S
C537 C518 1.429 . S
C537 C531 1.429 . S
C537 C538 1.523 . S
C538 C519 1.368 . S
C538 C532 1.368 . S
C538 C537 1.523 . S
C539 C523 1.429 . S
C539 C535 1.429 . S
C539 C540 1.523 . S
C540 C524 1.368 . S
C540 C536 1.368 . S
C540 C539 1.523 . S
H541 C516 0.950 . S
H542 C518 0.950 . S
H543 C519 0.949 . S
H544 C521 0.950 . S
H545 C523 0.950 . S
C546 C547 1.349 . S
C546 C548 1.327 . S
C546 H571 0.950 . S
C547 C546 1.349 . S
C547 C563 1.349 . S
C548 C546 1.327 . S
C548 C567 1.429 . S
C548 H572 0.950 . S
C549 C566 1.574 . S
C549 C568 1.368 . S
C549 H573 0.949 . S
H550 C554 0.949 . S
C551 C552 1.349 . S
C551 C553 1.327 . S
C551 H574 0.950 . S
C552 C551 1.349 . S
C552 C564 1.349 . S
C553 C551 1.327 . S
C553 C569 1.429 . S
C553 H575 0.950 . S
C554 H550 0.949 . S
C554 C562 1.574 . S
C554 C570 1.368 . S
H555 C563 0.950 . S
H556 C561 0.950 . S
H557 C562 0.949 . S
H558 C564 0.950 . S
H559 C565 0.950 . S
H560 C566 0.949 . S
C561 H556 0.950 . S
C561 C563 1.327 . S
C561 C567 1.429 . S
C562 C554 1.574 . S
C562 H557 0.949 . S
C562 C568 1.368 . S
C563 C547 1.349 . S
C563 H555 0.950 . S
C563 C561 1.327 . S
C564 C552 1.349 . S
C564 H558 0.950 . S
C564 C565 1.327 . S
C565 H559 0.950 . S
C565 C564 1.327 . S
C565 C569 1.429 . S
C566 C549 1.574 . S
C566 H560 0.949 . S
C566 C570 1.368 . S
C567 C548 1.429 . S
C567 C561 1.429 . S
C567 C568 1.523 . S
C568 C549 1.368 . S
C568 C562 1.368 . S
C568 C567 1.523 . S
C569 C553 1.429 . S
C569 C565 1.429 . S
C569 C570 1.523 . S
C570 C554 1.368 . S
C570 C566 1.368 . S
C570 C569 1.523 . S
H571 C546 0.950 . S
H572 C548 0.950 . S
H573 C549 0.949 . S
H574 C551 0.950 . S
H575 C553 0.950 . S
C576 C577 1.349 . S
C576 C578 1.327 . S
C576 H601 0.950 . S
C577 C576 1.349 . S
C577 C593 1.349 . S
C578 C576 1.327 . S
C578 C597 1.429 . S
C578 H602 0.950 . S
C579 C596 1.574 . S
C579 C598 1.368 . S
C579 H603 0.949 . S
H580 C584 0.949 . S
C581 C582 1.349 . S
C581 C583 1.327 . S
C581 H604 0.950 . S
C582 C581 1.349 . S
C582 C594 1.349 . S
C583 C581 1.327 . S
C583 C599 1.429 . S
C583 H605 0.950 . S
C584 H580 0.949 . S
C584 C592 1.574 . S
C584 C600 1.368 . S
H585 C593 0.950 . S
H586 C591 0.950 . S
H587 C592 0.949 . S
H588 C594 0.950 . S
H589 C595 0.950 . S
H590 C596 0.949 . S
C591 H586 0.950 . S
C591 C593 1.327 . S
C591 C597 1.429 . S
C592 C584 1.574 . S
C592 H587 0.949 . S
C592 C598 1.368 . S
C593 C577 1.349 . S
C593 H585 0.950 . S
C593 C591 1.327 . S
C594 C582 1.349 . S
C594 H588 0.950 . S
C594 C595 1.327 . S
C595 H589 0.950 . S
C595 C594 1.327 . S
C595 C599 1.429 . S
C596 C579 1.574 . S
C596 H590 0.949 . S
C596 C600 1.368 . S
C597 C578 1.429 . S
C597 C591 1.429 . S
C597 C598 1.523 . S
C598 C579 1.368 . S
C598 C592 1.368 . S
C598 C597 1.523 . S
C599 C583 1.429 . S
C599 C595 1.429 . S
C599 C600 1.523 . S
C600 C584 1.368 . S
C600 C596 1.368 . S
C600 C599 1.523 . S
H601 C576 0.950 . S
H602 C578 0.950 . S
H603 C579 0.949 . S
H604 C581 0.950 . S
H605 C583 0.950 . S
C606 C607 1.349 . S
C606 C608 1.327 . S
C606 H631 0.950 . S
C607 C606 1.349 . S
C607 C623 1.349 . S
C608 C606 1.327 . S
C608 C627 1.429 . S
C608 H632 0.950 . S
C609 C626 1.574 . S
C609 C628 1.368 . S
C609 H633 0.949 . S
H610 C614 0.949 . S
C611 C612 1.349 . S
C611 C613 1.327 . S
C611 H634 0.950 . S
C612 C611 1.349 . S
C612 C624 1.349 . S
C613 C611 1.327 . S
C613 C629 1.429 . S
C613 H635 0.950 . S
C614 H610 0.949 . S
C614 C622 1.574 . S
C614 C630 1.368 . S
H615 C623 0.950 . S
H616 C621 0.950 . S
H617 C622 0.949 . S
H618 C624 0.950 . S
H619 C625 0.950 . S
H620 C626 0.949 . S
C621 H616 0.950 . S
C621 C623 1.327 . S
C621 C627 1.429 . S
C622 C614 1.574 . S
C622 H617 0.949 . S
C622 C628 1.368 . S
C623 C607 1.349 . S
C623 H615 0.950 . S
C623 C621 1.327 . S
C624 C612 1.349 . S
C624 H618 0.950 . S
C624 C625 1.327 . S
C625 H619 0.950 . S
C625 C624 1.327 . S
C625 C629 1.429 . S
C626 C609 1.574 . S
C626 H620 0.949 . S
C626 C630 1.368 . S
C627 C608 1.429 . S
C627 C621 1.429 . S
C627 C628 1.523 . S
C628 C609 1.368 . S
C628 C622 1.368 . S
C628 C627 1.523 . S
C629 C613 1.429 . S
C629 C625 1.429 . S
C629 C630 1.523 . S
C630 C614 1.368 . S
C630 C626 1.368 . S
C630 C629 1.523 . S
H631 C606 0.950 . S
H632 C608 0.950 . S
H633 C609 0.949 . S
H634 C611 0.950 . S
H635 C613 0.950 . S
C636 C637 1.349 . S
C636 C638 1.327 . S
C636 H661 0.950 . S
C637 C636 1.349 . S
C637 C653 1.349 . S
C638 C636 1.327 . S
C638 C657 1.429 . S
C638 H662 0.950 . S
C639 C656 1.574 . S
C639 C658 1.368 . S
C639 H663 0.949 . S
H640 C644 0.949 . S
C641 C642 1.349 . S
C641 C643 1.327 . S
C641 H664 0.950 . S
C642 C641 1.349 . S
C642 C654 1.349 . S
C643 C641 1.327 . S
C643 C659 1.429 . S
C643 H665 0.950 . S
C644 H640 0.949 . S
C644 C652 1.574 . S
C644 C660 1.368 . S
H645 C653 0.950 . S
H646 C651 0.950 . S
H647 C652 0.949 . S
H648 C654 0.950 . S
H649 C655 0.950 . S
H650 C656 0.949 . S
C651 H646 0.950 . S
C651 C653 1.327 . S
C651 C657 1.429 . S
C652 C644 1.574 . S
C652 H647 0.949 . S
C652 C658 1.368 . S
C653 C637 1.349 . S
C653 H645 0.950 . S
C653 C651 1.327 . S
C654 C642 1.349 . S
C654 H648 0.950 . S
C654 C655 1.327 . S
C655 H649 0.950 . S
C655 C654 1.327 . S
C655 C659 1.429 . S
C656 C639 1.574 . S
C656 H650 0.949 . S
C656 C660 1.368 . S
C657 C638 1.429 . S
C657 C651 1.429 . S
C657 C658 1.523 . S
C658 C639 1.368 . S
C658 C652 1.368 . S
C658 C657 1.523 . S
C659 C643 1.429 . S
C659 C655 1.429 . S
C659 C660 1.523 . S
C660 C644 1.368 . S
C660 C656 1.368 . S
C660 C659 1.523 . S
H661 C636 0.950 . S
H662 C638 0.950 . S
H663 C639 0.949 . S
H664 C641 0.950 . S
H665 C643 0.950 . S
C666 C667 1.349 . S
C666 C668 1.327 . S
C666 H691 0.950 . S
C667 C666 1.349 . S
C667 C683 1.349 . S
C668 C666 1.327 . S
C668 C687 1.429 . S
C668 H692 0.950 . S
C669 C686 1.574 . S
C669 C688 1.368 . S
C669 H693 0.949 . S
H670 C674 0.949 . S
C671 C672 1.349 . S
C671 C673 1.327 . S
C671 H694 0.950 . S
C672 C671 1.349 . S
C672 C684 1.349 . S
C673 C671 1.327 . S
C673 C689 1.429 . S
C673 H695 0.950 . S
C674 H670 0.949 . S
C674 C682 1.574 . S
C674 C690 1.368 . S
H675 C683 0.950 . S
H676 C681 0.950 . S
H677 C682 0.949 . S
H678 C684 0.950 . S
H679 C685 0.950 . S
H680 C686 0.949 . S
C681 H676 0.950 . S
C681 C683 1.327 . S
C681 C687 1.429 . S
C682 C674 1.574 . S
C682 H677 0.949 . S
C682 C688 1.368 . S
C683 C667 1.349 . S
C683 H675 0.950 . S
C683 C681 1.327 . S
C684 C672 1.349 . S
C684 H678 0.950 . S
C684 C685 1.327 . S
C685 H679 0.950 . S
C685 C684 1.327 . S
C685 C689 1.429 . S
C686 C669 1.574 . S
C686 H680 0.949 . S
C686 C690 1.368 . S
C687 C668 1.429 . S
C687 C681 1.429 . S
C687 C688 1.523 . S
C688 C669 1.368 . S
C688 C682 1.368 . S
C688 C687 1.523 . S
C689 C673 1.429 . S
C689 C685 1.429 . S
C689 C690 1.523 . S
C690 C674 1.368 . S
C690 C686 1.368 . S
C690 C689 1.523 . S
H691 C666 0.950 . S
H692 C668 0.950 . S
H693 C669 0.949 . S
H694 C671 0.950 . S
H695 C673 0.950 . S
C696 C697 1.349 . S
C696 C698 1.327 . S
C696 H721 0.950 . S
C697 C696 1.349 . S
C697 C713 1.349 . S
C698 C696 1.327 . S
C698 C717 1.429 . S
C698 H722 0.950 . S
C699 C716 1.574 . S
C699 C718 1.368 . S
C699 H723 0.949 . S
H700 C704 0.949 . S
C701 C702 1.349 . S
C701 C703 1.327 . S
C701 H724 0.950 . S
C702 C701 1.349 . S
C702 C714 1.349 . S
C703 C701 1.327 . S
C703 C719 1.429 . S
C703 H725 0.950 . S
C704 H700 0.949 . S
C704 C712 1.574 . S
C704 C720 1.368 . S
H705 C713 0.950 . S
H706 C711 0.950 . S
H707 C712 0.949 . S
H708 C714 0.950 . S
H709 C715 0.950 . S
H710 C716 0.949 . S
C711 H706 0.950 . S
C711 C713 1.327 . S
C711 C717 1.429 . S
C712 C704 1.574 . S
C712 H707 0.949 . S
C712 C718 1.368 . S
C713 C697 1.349 . S
C713 H705 0.950 . S
C713 C711 1.327 . S
C714 C702 1.349 . S
C714 H708 0.950 . S
C714 C715 1.327 . S
C715 H709 0.950 . S
C715 C714 1.327 . S
C715 C719 1.429 . S
C716 C699 1.574 . S
C716 H710 0.949 . S
C716 C720 1.368 . S
C717 C698 1.429 . S
C717 C711 1.429 . S
C717 C718 1.523 . S
C718 C699 1.368 . S
C718 C712 1.368 . S
C718 C717 1.523 . S
C719 C703 1.429 . S
C719 C715 1.429 . S
C719 C720 1.523 . S
C720 C704 1.368 . S
C720 C716 1.368 . S
C720 C719 1.523 . S
H721 C696 0.950 . S
H722 C698 0.950 . S
H723 C699 0.949 . S
H724 C701 0.950 . S
H725 C703 0.950 . S
C726 C727 1.349 . S
C726 C728 1.327 . S
C726 H751 0.950 . S
C727 C726 1.349 . S
C727 C743 1.349 . S
C728 C726 1.327 . S
C728 C747 1.429 . S
C728 H752 0.950 . S
C729 C746 1.574 . S
C729 C748 1.368 . S
C729 H753 0.949 . S
H730 C734 0.949 . S
C731 C732 1.349 . S
C731 C733 1.327 . S
C731 H754 0.950 . S
C732 C731 1.349 . S
C732 C744 1.349 . S
C733 C731 1.327 . S
C733 C749 1.429 . S
C733 H755 0.950 . S
C734 H730 0.949 . S
C734 C742 1.574 . S
C734 C750 1.368 . S
H735 C743 0.950 . S
H736 C741 0.950 . S
H737 C742 0.949 . S
H738 C744 0.950 . S
H739 C745 0.950 . S
H740 C746 0.949 . S
C741 H736 0.950 . S
C741 C743 1.327 . S
C741 C747 1.429 . S
C742 C734 1.574 . S
C742 H737 0.949 . S
C742 C748 1.368 . S
C743 C727 1.349 . S
C743 H735 0.950 . S
C743 C741 1.327 . S
C744 C732 1.349 . S
C744 H738 0.950 . S
C744 C745 1.327 . S
C745 H739 0.950 . S
C745 C744 1.327 . S
C745 C749 1.429 . S
C746 C729 1.574 . S
C746 H740 0.949 . S
C746 C750 1.368 . S
C747 C728 1.429 . S
C747 C741 1.429 . S
C747 C748 1.523 . S
C748 C729 1.368 . S
C748 C742 1.368 . S
C748 C747 1.523 . S
C749 C733 1.429 . S
C749 C745 1.429 . S
C749 C750 1.523 . S
C750 C734 1.368 . S
C750 C746 1.368 . S
C750 C749 1.523 . S
H751 C726 0.950 . S
H752 C728 0.950 . S
H753 C729 0.949 . S
H754 C731 0.950 . S
H755 C733 0.950 . S
C756 C757 1.349 . S
C756 C758 1.327 . S
C756 H781 0.950 . S
C757 C756 1.349 . S
C757 C773 1.349 . S
C758 C756 1.327 . S
C758 C777 1.429 . S
C758 H782 0.950 . S
C759 C776 1.574 . S
C759 C778 1.368 . S
C759 H783 0.949 . S
H760 C764 0.949 . S
C761 C762 1.349 . S
C761 C763 1.327 . S
C761 H784 0.950 . S
C762 C761 1.349 . S
C762 C774 1.349 . S
C763 C761 1.327 . S
C763 C779 1.429 . S
C763 H785 0.950 . S
C764 H760 0.949 . S
C764 C772 1.574 . S
C764 C780 1.368 . S
H765 C773 0.950 . S
H766 C771 0.950 . S
H767 C772 0.949 . S
H768 C774 0.950 . S
H769 C775 0.950 . S
H770 C776 0.949 . S
C771 H766 0.950 . S
C771 C773 1.327 . S
C771 C777 1.429 . S
C772 C764 1.574 . S
C772 H767 0.949 . S
C772 C778 1.368 . S
C773 C757 1.349 . S
C773 H765 0.950 . S
C773 C771 1.327 . S
C774 C762 1.349 . S
C774 H768 0.950 . S
C774 C775 1.327 . S
C775 H769 0.950 . S
C775 C774 1.327 . S
C775 C779 1.429 . S
C776 C759 1.574 . S
C776 H770 0.949 . S
C776 C780 1.368 . S
C777 C758 1.429 . S
C777 C771 1.429 . S
C777 C778 1.523 . S
C778 C759 1.368 . S
C778 C772 1.368 . S
C778 C777 1.523 . S
C779 C763 1.429 . S
C779 C775 1.429 . S
C779 C780 1.523 . S
C780 C764 1.368 . S
C780 C776 1.368 . S
C780 C779 1.523 . S
H781 C756 0.950 . S
H782 C758 0.950 . S
H783 C759 0.949 . S
H784 C761 0.950 . S
H785 C763 0.950 . S
C786 C787 1.349 . S
C786 C788 1.327 . S
C786 H811 0.950 . S
C787 C786 1.349 . S
C787 C803 1.349 . S
C788 C786 1.327 . S
C788 C807 1.429 . S
C788 H812 0.950 . S
C789 C806 1.574 . S
C789 C808 1.368 . S
C789 H813 0.949 . S
H790 C794 0.949 . S
C791 C792 1.349 . S
C791 C793 1.327 . S
C791 H814 0.950 . S
C792 C791 1.349 . S
C792 C804 1.349 . S
C793 C791 1.327 . S
C793 C809 1.429 . S
C793 H815 0.950 . S
C794 H790 0.949 . S
C794 C802 1.574 . S
C794 C810 1.368 . S
H795 C803 0.950 . S
H796 C801 0.950 . S
H797 C802 0.949 . S
H798 C804 0.950 . S
H799 C805 0.950 . S
H800 C806 0.949 . S
C801 H796 0.950 . S
C801 C803 1.327 . S
C801 C807 1.429 . S
C802 C794 1.574 . S
C802 H797 0.949 . S
C802 C808 1.368 . S
C803 C787 1.349 . S
C803 H795 0.950 . S
C803 C801 1.327 . S
C804 C792 1.349 . S
C804 H798 0.950 . S
C804 C805 1.327 . S
C805 H799 0.950 . S
C805 C804 1.327 . S
C805 C809 1.429 . S
C806 C789 1.574 . S
C806 H800 0.949 . S
C806 C810 1.368 . S
C807 C788 1.429 . S
C807 C801 1.429 . S
C807 C808 1.523 . S
C808 C789 1.368 . S
C808 C802 1.368 . S
C808 C807 1.523 . S
C809 C793 1.429 . S
C809 C805 1.429 . S
C809 C810 1.523 . S
C810 C794 1.368 . S
C810 C806 1.368 . S
C810 C809 1.523 . S
H811 C786 0.950 . S
H812 C788 0.950 . S
H813 C789 0.949 . S
H814 C791 0.950 . S
H815 C793 0.950 . S
C816 C817 1.349 . S
C816 C818 1.327 . S
C816 H841 0.950 . S
C817 C816 1.349 . S
C817 C833 1.349 . S
C818 C816 1.327 . S
C818 C837 1.429 . S
C818 H842 0.950 . S
C819 C836 1.574 . S
C819 C838 1.368 . S
C819 H843 0.949 . S
H820 C824 0.949 . S
C821 C822 1.349 . S
C821 C823 1.327 . S
C821 H844 0.950 . S
C822 C821 1.349 . S
C822 C834 1.349 . S
C823 C821 1.327 . S
C823 C839 1.429 . S
C823 H845 0.950 . S
C824 H820 0.949 . S
C824 C832 1.574 . S
C824 C840 1.368 . S
H825 C833 0.950 . S
H826 C831 0.950 . S
H827 C832 0.949 . S
H828 C834 0.950 . S
H829 C835 0.950 . S
H830 C836 0.949 . S
C831 H826 0.950 . S
C831 C833 1.327 . S
C831 C837 1.429 . S
C832 C824 1.574 . S
C832 H827 0.949 . S
C832 C838 1.368 . S
C833 C817 1.349 . S
C833 H825 0.950 . S
C833 C831 1.327 . S
C834 C822 1.349 . S
C834 H828 0.950 . S
C834 C835 1.327 . S
C835 H829 0.950 . S
C835 C834 1.327 . S
C835 C839 1.429 . S
C836 C819 1.574 . S
C836 H830 0.949 . S
C836 C840 1.368 . S
C837 C818 1.429 . S
C837 C831 1.429 . S
C837 C838 1.523 . S
C838 C819 1.368 . S
C838 C832 1.368 . S
C838 C837 1.523 . S
C839 C823 1.429 . S
C839 C835 1.429 . S
C839 C840 1.523 . S
C840 C824 1.368 . S
C840 C836 1.368 . S
C840 C839 1.523 . S
H841 C816 0.950 . S
H842 C818 0.950 . S
H843 C819 0.949 . S
H844 C821 0.950 . S
H845 C823 0.950 . S
C846 C847 1.349 . S
C846 C848 1.327 . S
C846 H871 0.950 . S
C847 C846 1.349 . S
C847 C863 1.349 . S
C848 C846 1.327 . S
C848 C867 1.429 . S
C848 H872 0.950 . S
C849 C866 1.574 . S
C849 C868 1.368 . S
C849 H873 0.949 . S
H850 C854 0.949 . S
C851 C852 1.349 . S
C851 C853 1.327 . S
C851 H874 0.950 . S
C852 C851 1.349 . S
C852 C864 1.349 . S
C853 C851 1.327 . S
C853 C869 1.429 . S
C853 H875 0.950 . S
C854 H850 0.949 . S
C854 C862 1.574 . S
C854 C870 1.368 . S
H855 C863 0.950 . S
H856 C861 0.950 . S
H857 C862 0.949 . S
H858 C864 0.950 . S
H859 C865 0.950 . S
H860 C866 0.949 . S
C861 H856 0.950 . S
C861 C863 1.327 . S
C861 C867 1.429 . S
C862 C854 1.574 . S
C862 H857 0.949 . S
C862 C868 1.368 . S
C863 C847 1.349 . S
C863 H855 0.950 . S
C863 C861 1.327 . S
C864 C852 1.349 . S
C864 H858 0.950 . S
C864 C865 1.327 . S
C865 H859 0.950 . S
C865 C864 1.327 . S
C865 C869 1.429 . S
C866 C849 1.574 . S
C866 H860 0.949 . S
C866 C870 1.368 . S
C867 C848 1.429 . S
C867 C861 1.429 . S
C867 C868 1.523 . S
C868 C849 1.368 . S
C868 C862 1.368 . S
C868 C867 1.523 . S
C869 C853 1.429 . S
C869 C865 1.429 . S
C869 C870 1.523 . S
C870 C854 1.368 . S
C870 C866 1.368 . S
C870 C869 1.523 . S
H871 C846 0.950 . S
H872 C848 0.950 . S
H873 C849 0.949 . S
H874 C851 0.950 . S
H875 C853 0.950 . S
C876 C877 1.349 . S
C876 C878 1.327 . S
C876 H901 0.950 . S
C877 C876 1.349 . S
C877 C893 1.349 . S
C878 C876 1.327 . S
C878 C897 1.429 . S
C878 H902 0.950 . S
C879 C896 1.574 . S
C879 C898 1.368 . S
C879 H903 0.949 . S
H880 C884 0.949 . S
C881 C882 1.349 . S
C881 C883 1.327 . S
C881 H904 0.950 . S
C882 C881 1.349 . S
C882 C894 1.349 . S
C883 C881 1.327 . S
C883 C899 1.429 . S
C883 H905 0.950 . S
C884 H880 0.949 . S
C884 C892 1.574 . S
C884 C900 1.368 . S
H885 C893 0.950 . S
H886 C891 0.950 . S
H887 C892 0.949 . S
H888 C894 0.950 . S
H889 C895 0.950 . S
H890 C896 0.949 . S
C891 H886 0.950 . S
C891 C893 1.327 . S
C891 C897 1.429 . S
C892 C884 1.574 . S
C892 H887 0.949 . S
C892 C898 1.368 . S
C893 C877 1.349 . S
C893 H885 0.950 . S
C893 C891 1.327 . S
C894 C882 1.349 . S
C894 H888 0.950 . S
C894 C895 1.327 . S
C895 H889 0.950 . S
C895 C894 1.327 . S
C895 C899 1.429 . S
C896 C879 1.574 . S
C896 H890 0.949 . S
C896 C900 1.368 . S
C897 C878 1.429 . S
C897 C891 1.429 . S
C897 C898 1.523 . S
C898 C879 1.368 . S
C898 C892 1.368 . S
C898 C897 1.523 . S
C899 C883 1.429 . S
C899 C895 1.429 . S
C899 C900 1.523 . S
C900 C884 1.368 . S
C900 C896 1.368 . S
C900 C899 1.523 . S
H901 C876 0.950 . S
H902 C878 0.950 . S
H903 C879 0.949 . S
H904 C881 0.950 . S
H905 C883 0.950 . S
C906 C907 1.349 . S
C906 C908 1.327 . S
C906 H931 0.950 . S
C907 C906 1.349 . S
C907 C923 1.349 . S
C908 C906 1.327 . S
C908 C927 1.429 . S
C908 H932 0.950 . S
C909 C926 1.574 . S
C909 C928 1.368 . S
C909 H933 0.949 . S
H910 C914 0.949 . S
C911 C912 1.349 . S
C911 C913 1.327 . S
C911 H934 0.950 . S
C912 C911 1.349 . S
C912 C924 1.349 . S
C913 C911 1.327 . S
C913 C929 1.429 . S
C913 H935 0.950 . S
C914 H910 0.949 . S
C914 C922 1.574 . S
C914 C930 1.368 . S
H915 C923 0.950 . S
H916 C921 0.950 . S
H917 C922 0.949 . S
H918 C924 0.950 . S
H919 C925 0.950 . S
H920 C926 0.949 . S
C921 H916 0.950 . S
C921 C923 1.327 . S
C921 C927 1.429 . S
C922 C914 1.574 . S
C922 H917 0.949 . S
C922 C928 1.368 . S
C923 C907 1.349 . S
C923 H915 0.950 . S
C923 C921 1.327 . S
C924 C912 1.349 . S
C924 H918 0.950 . S
C924 C925 1.327 . S
C925 H919 0.950 . S
C925 C924 1.327 . S
C925 C929 1.429 . S
C926 C909 1.574 . S
C926 H920 0.949 . S
C926 C930 1.368 . S
C927 C908 1.429 . S
C927 C921 1.429 . S
C927 C928 1.523 . S
C928 C909 1.368 . S
C928 C922 1.368 . S
C928 C927 1.523 . S
C929 C913 1.429 . S
C929 C925 1.429 . S
C929 C930 1.523 . S
C930 C914 1.368 . S
C930 C926 1.368 . S
C930 C929 1.523 . S
H931 C906 0.950 . S
H932 C908 0.950 . S
H933 C909 0.949 . S
H934 C911 0.950 . S
H935 C913 0.950 . S
C936 C937 1.349 . S
C936 C938 1.327 . S
C936 H961 0.950 . S
C937 C936 1.349 . S
C937 C953 1.349 . S
C938 C936 1.327 . S
C938 C957 1.429 . S
C938 H962 0.950 . S
C939 C956 1.574 . S
C939 C958 1.368 . S
C939 H963 0.949 . S
H940 C944 0.949 . S
C941 C942 1.349 . S
C941 C943 1.327 . S
C941 H964 0.950 . S
C942 C941 1.349 . S
C942 C954 1.349 . S
C943 C941 1.327 . S
C943 C959 1.429 . S
C943 H965 0.950 . S
C944 H940 0.949 . S
C944 C952 1.574 . S
C944 C960 1.368 . S
H945 C953 0.950 . S
H946 C951 0.950 . S
H947 C952 0.949 . S
H948 C954 0.950 . S
H949 C955 0.950 . S
H950 C956 0.949 . S
C951 H946 0.950 . S
C951 C953 1.327 . S
C951 C957 1.429 . S
C952 C944 1.574 . S
C952 H947 0.949 . S
C952 C958 1.368 . S
C953 C937 1.349 . S
C953 H945 0.950 . S
C953 C951 1.327 . S
C954 C942 1.349 . S
C954 H948 0.950 . S
C954 C955 1.327 . S
C955 H949 0.950 . S
C955 C954 1.327 . S
C955 C959 1.429 . S
C956 C939 1.574 . S
C956 H950 0.949 . S
C956 C960 1.368 . S
C957 C938 1.429 . S
C957 C951 1.429 . S
C957 C958 1.523 . S
C958 C939 1.368 . S
C958 C952 1.368 . S
C958 C957 1.523 . S
C959 C943 1.429 . S
C959 C955 1.429 . S
C959 C960 1.523 . S
C960 C944 1.368 . S
C960 C956 1.368 . S
C960 C959 1.523 . S
H961 C936 0.950 . S
H962 C938 0.950 . S
H963 C939 0.949 . S
H964 C941 0.950 . S
H965 C943 0.950 . S
C966 C967 1.349 . S
C966 C968 1.327 . S
C966 H991 0.950 . S
C967 C966 1.349 . S
C967 C983 1.349 . S
C968 C966 1.327 . S
C968 C987 1.429 . S
C968 H992 0.950 . S
C969 C986 1.574 . S
C969 C988 1.368 . S
C969 H993 0.949 . S
H970 C974 0.949 . S
C971 C972 1.349 . S
C971 C973 1.327 . S
C971 H994 0.950 . S
C972 C971 1.349 . S
C972 C984 1.349 . S
C973 C971 1.327 . S
C973 C989 1.429 . S
C973 H995 0.950 . S
C974 H970 0.949 . S
C974 C982 1.574 . S
C974 C990 1.368 . S
H975 C983 0.950 . S
H976 C981 0.950 . S
H977 C982 0.949 . S
H978 C984 0.950 . S
H979 C985 0.950 . S
H980 C986 0.949 . S
C981 H976 0.950 . S
C981 C983 1.327 . S
C981 C987 1.429 . S
C982 C974 1.574 . S
C982 H977 0.949 . S
C982 C988 1.368 . S
C983 C967 1.349 . S
C983 H975 0.950 . S
C983 C981 1.327 . S
C984 C972 1.349 . S
C984 H978 0.950 . S
C984 C985 1.327 . S
C985 H979 0.950 . S
C985 C984 1.327 . S
C985 C989 1.429 . S
C986 C969 1.574 . S
C986 H980 0.949 . S
C986 C990 1.368 . S
C987 C968 1.429 . S
C987 C981 1.429 . S
C987 C988 1.523 . S
C988 C969 1.368 . S
C988 C982 1.368 . S
C988 C987 1.523 . S
C989 C973 1.429 . S
C989 C985 1.429 . S
C989 C990 1.523 . S
C990 C974 1.368 . S
C990 C986 1.368 . S
C990 C989 1.523 . S
H991 C966 0.950 . S
H992 C968 0.950 . S
H993 C969 0.949 . S
H994 C971 0.950 . S
H995 C973 0.950 . S
C996 C997 1.349 . S
C996 C998 1.327 . S
C996 H1021 0.950 . S
C997 C996 1.349 . S
C997 C1013 1.349 . S
C998 C996 1.327 . S
C998 C1017 1.429 . S
C998 H1022 0.950 . S
C999 C1016 1.574 . S
C999 C1018 1.368 . S
C999 H1023 0.949 . S
H1000 C1004 0.949 . S
C1001 C1002 1.349 . S
C1001 C1003 1.327 . S
C1001 H1024 0.950 . S
C1002 C1001 1.349 . S
C1002 C1014 1.349 . S
C1003 C1001 1.327 . S
C1003 C1019 1.429 . S
C1003 H1025 0.950 . S
C1004 H1000 0.949 . S
C1004 C1012 1.574 . S
C1004 C1020 1.368 . S
H1005 C1013 0.950 . S
H1006 C1011 0.950 . S
H1007 C1012 0.949 . S
H1008 C1014 0.950 . S
H1009 C1015 0.950 . S
H1010 C1016 0.949 . S
C1011 H1006 0.950 . S
C1011 C1013 1.327 . S
C1011 C1017 1.429 . S
C1012 C1004 1.574 . S
C1012 H1007 0.949 . S
C1012 C1018 1.368 . S
C1013 C997 1.349 . S
C1013 H1005 0.950 . S
C1013 C1011 1.327 . S
C1014 C1002 1.349 . S
C1014 H1008 0.950 . S
C1014 C1015 1.327 . S
C1015 H1009 0.950 . S
C1015 C1014 1.327 . S
C1015 C1019 1.429 . S
C1016 C999 1.574 . S
C1016 H1010 0.949 . S
C1016 C1020 1.368 . S
C1017 C998 1.429 . S
C1017 C1011 1.429 . S
C1017 C1018 1.523 . S
C1018 C999 1.368 . S
C1018 C1012 1.368 . S
C1018 C1017 1.523 . S
C1019 C1003 1.429 . S
C1019 C1015 1.429 . S
C1019 C1020 1.523 . S
C1020 C1004 1.368 . S
C1020 C1016 1.368 . S
C1020 C1019 1.523 . S
H1021 C996 0.950 . S
H1022 C998 0.950 . S
H1023 C999 0.949 . S
H1024 C1001 0.950 . S
H1025 C1003 0.950 . S
C1026 C1027 1.349 . S
C1026 C1028 1.327 . S
C1026 H1051 0.950 . S
C1027 C1026 1.349 . S
C1027 C1043 1.349 . S
C1028 C1026 1.327 . S
C1028 C1047 1.429 . S
C1028 H1052 0.950 . S
C1029 C1046 1.574 . S
C1029 C1048 1.368 . S
C1029 H1053 0.949 . S
H1030 C1034 0.949 . S
C1031 C1032 1.349 . S
C1031 C1033 1.327 . S
C1031 H1054 0.950 . S
C1032 C1031 1.349 . S
C1032 C1044 1.349 . S
C1033 C1031 1.327 . S
C1033 C1049 1.429 . S
C1033 H1055 0.950 . S
C1034 H1030 0.949 . S
C1034 C1042 1.574 . S
C1034 C1050 1.368 . S
H1035 C1043 0.950 . S
H1036 C1041 0.950 . S
H1037 C1042 0.949 . S
H1038 C1044 0.950 . S
H1039 C1045 0.950 . S
H1040 C1046 0.949 . S
C1041 H1036 0.950 . S
C1041 C1043 1.327 . S
C1041 C1047 1.429 . S
C1042 C1034 1.574 . S
C1042 H1037 0.949 . S
C1042 C1048 1.368 . S
C1043 C1027 1.349 . S
C1043 H1035 0.950 . S
C1043 C1041 1.327 . S
C1044 C1032 1.349 . S
C1044 H1038 0.950 . S
C1044 C1045 1.327 . S
C1045 H1039 0.950 . S
C1045 C1044 1.327 . S
C1045 C1049 1.429 . S
C1046 C1029 1.574 . S
C1046 H1040 0.949 . S
C1046 C1050 1.368 . S
C1047 C1028 1.429 . S
C1047 C1041 1.429 . S
C1047 C1048 1.523 . S
C1048 C1029 1.368 . S
C1048 C1042 1.368 . S
C1048 C1047 1.523 . S
C1049 C1033 1.429 . S
C1049 C1045 1.429 . S
C1049 C1050 1.523 . S
C1050 C1034 1.368 . S
C1050 C1046 1.368 . S
C1050 C1049 1.523 . S
H1051 C1026 0.950 . S
H1052 C1028 0.950 . S
H1053 C1029 0.949 . S
H1054 C1031 0.950 . S
H1055 C1033 0.950 . S
C1056 C1057 1.349 . S
C1056 C1058 1.327 . S
C1056 H1081 0.950 . S
C1057 C1056 1.349 . S
C1057 C1073 1.349 . S
C1058 C1056 1.327 . S
C1058 C1077 1.429 . S
C1058 H1082 0.950 . S
C1059 C1076 1.574 . S
C1059 C1078 1.368 . S
C1059 H1083 0.949 . S
H1060 C1064 0.949 . S
C1061 C1062 1.349 . S
C1061 C1063 1.327 . S
C1061 H1084 0.950 . S
C1062 C1061 1.349 . S
C1062 C1074 1.349 . S
C1063 C1061 1.327 . S
C1063 C1079 1.429 . S
C1063 H1085 0.950 . S
C1064 H1060 0.949 . S
C1064 C1072 1.574 . S
C1064 C1080 1.368 . S
H1065 C1073 0.950 . S
H1066 C1071 0.950 . S
H1067 C1072 0.949 . S
H1068 C1074 0.950 . S
H1069 C1075 0.950 . S
H1070 C1076 0.949 . S
C1071 H1066 0.950 . S
C1071 C1073 1.327 . S
C1071 C1077 1.429 . S
C1072 C1064 1.574 . S
C1072 H1067 0.949 . S
C1072 C1078 1.368 . S
C1073 C1057 1.349 . S
C1073 H1065 0.950 . S
C1073 C1071 1.327 . S
C1074 C1062 1.349 . S
C1074 H1068 0.950 . S
C1074 C1075 1.327 . S
C1075 H1069 0.950 . S
C1075 C1074 1.327 . S
C1075 C1079 1.429 . S
C1076 C1059 1.574 . S
C1076 H1070 0.949 . S
C1076 C1080 1.368 . S
C1077 C1058 1.429 . S
C1077 C1071 1.429 . S
C1077 C1078 1.523 . S
C1078 C1059 1.368 . S
C1078 C1072 1.368 . S
C1078 C1077 1.523 . S
C1079 C1063 1.429 . S
C1079 C1075 1.429 . S
C1079 C1080 1.523 . S
C1080 C1064 1.368 . S
C1080 C1076 1.368 . S
C1080 C1079 1.523 . S
H1081 C1056 0.950 . S
H1082 C1058 0.950 . S
H1083 C1059 0.949 . S
H1084 C1061 0.950 . S
H1085 C1063 0.950 . S
C1086 C1087 1.349 . S
C1086 C1088 1.327 . S
C1086 H1111 0.950 . S
C1087 C1086 1.349 . S
C1087 C1103 1.349 . S
C1088 C1086 1.327 . S
C1088 C1107 1.429 . S
C1088 H1112 0.950 . S
C1089 C1106 1.574 . S
C1089 C1108 1.368 . S
C1089 H1113 0.949 . S
H1090 C1094 0.949 . S
C1091 C1092 1.349 . S
C1091 C1093 1.327 . S
C1091 H1114 0.950 . S
C1092 C1091 1.349 . S
C1092 C1104 1.349 . S
C1093 C1091 1.327 . S
C1093 C1109 1.429 . S
C1093 H1115 0.950 . S
C1094 H1090 0.949 . S
C1094 C1102 1.574 . S
C1094 C1110 1.368 . S
H1095 C1103 0.950 . S
H1096 C1101 0.950 . S
H1097 C1102 0.949 . S
H1098 C1104 0.950 . S
H1099 C1105 0.950 . S
H1100 C1106 0.949 . S
C1101 H1096 0.950 . S
C1101 C1103 1.327 . S
C1101 C1107 1.429 . S
C1102 C1094 1.574 . S
C1102 H1097 0.949 . S
C1102 C1108 1.368 . S
C1103 C1087 1.349 . S
C1103 H1095 0.950 . S
C1103 C1101 1.327 . S
C1104 C1092 1.349 . S
C1104 H1098 0.950 . S
C1104 C1105 1.327 . S
C1105 H1099 0.950 . S
C1105 C1104 1.327 . S
C1105 C1109 1.429 . S
C1106 C1089 1.574 . S
C1106 H1100 0.949 . S
C1106 C1110 1.368 . S
C1107 C1088 1.429 . S
C1107 C1101 1.429 . S
C1107 C1108 1.523 1_554 S
C1108 C1089 1.368 . S
C1108 C1102 1.368 . S
C1108 C1107 1.523 1_556 S
C1109 C1093 1.429 . S
C1109 C1105 1.429 . S
C1109 C1110 1.523 . S
C1110 C1094 1.368 . S
C1110 C1106 1.368 . S
C1110 C1109 1.523 . S
H1111 C1086 0.950 . S
H1112 C1088 0.950 . S
H1113 C1089 0.949 . S
H1114 C1091 0.950 . S
H1115 C1093 0.950 . S
C1116 C1117 1.349 . S
C1116 C1118 1.327 . S
C1116 H1141 0.950 . S
C1117 C1116 1.349 . S
C1117 C1133 1.349 . S
C1118 C1116 1.327 . S
C1118 C1137 1.429 . S
C1118 H1142 0.950 . S
C1119 C1136 1.574 . S
C1119 C1138 1.368 . S
C1119 H1143 0.949 . S
H1120 C1124 0.949 . S
C1121 C1122 1.349 . S
C1121 C1123 1.327 . S
C1121 H1144 0.950 . S
C1122 C1121 1.349 . S
C1122 C1134 1.349 . S
C1123 C1121 1.327 . S
C1123 C1139 1.429 . S
C1123 H1145 0.950 . S
C1124 H1120 0.949 . S
C1124 C1132 1.574 . S
C1124 C1140 1.368 . S
H1125 C1133 0.950 . S
H1126 C1131 0.950 . S
H1127 C1132 0.949 . S
H1128 C1134 0.950 . S
H1129 C1135 0.950 . S
H1130 C1136 0.949 . S
C1131 H1126 0.950 . S
C1131 C1133 1.327 . S
C1131 C1137 1.429 . S
C1132 C1124 1.574 . S
C1132 H1127 0.949 . S
C1132 C1138 1.368 . S
C1133 C1117 1.349 . S
C1133 H1125 0.950 . S
C1133 C1131 1.327 . S
C1134 C1122 1.349 . S
C1134 H1128 0.950 . S
C1134 C1135 1.327 . S
C1135 H1129 0.950 . S
C1135 C1134 1.327 . S
C1135 C1139 1.429 . S
C1136 C1119 1.574 . S
C1136 H1130 0.949 . S
C1136 C1140 1.368 . S
C1137 C1118 1.429 . S
C1137 C1131 1.429 . S
C1137 C1138 1.523 . S
C1138 C1119 1.368 . S
C1138 C1132 1.368 . S
C1138 C1137 1.523 . S
C1139 C1123 1.429 . S
C1139 C1135 1.429 . S
C1139 C1140 1.523 . S
C1140 C1124 1.368 . S
C1140 C1136 1.368 . S
C1140 C1139 1.523 . S
H1141 C1116 0.950 . S
H1142 C1118 0.950 . S
H1143 C1119 0.949 . S
H1144 C1121 0.950 . S
H1145 C1123 0.950 . S
C1146 C1147 1.349 . S
C1146 C1148 1.327 . S
C1146 H1171 0.950 . S
C1147 C1146 1.349 . S
C1147 C1163 1.349 . S
C1148 C1146 1.327 . S
C1148 C1167 1.429 . S
C1148 H1172 0.950 . S
C1149 C1166 1.574 . S
C1149 C1168 1.368 . S
C1149 H1173 0.949 . S
H1150 C1154 0.920 1_556 S
C1151 C1152 1.349 . S
C1151 C1153 1.327 . S
C1151 H1174 0.950 . S
C1152 C1151 1.349 . S
C1152 C1164 1.349 . S
C1153 C1151 1.327 . S
C1153 C1169 1.429 . S
C1153 H1175 0.950 . S
C1154 H1150 0.920 1_554 S
C1154 C1162 1.574 . S
C1154 C1170 1.368 . S
H1155 C1163 0.950 . S
H1156 C1161 0.950 . S
H1157 C1162 0.949 . S
H1158 C1164 0.950 . S
H1159 C1165 0.950 . S
H1160 C1166 0.949 . S
C1161 H1156 0.950 . S
C1161 C1163 1.327 . S
C1161 C1167 1.429 . S
C1162 C1154 1.574 . S
C1162 H1157 0.949 . S
C1162 C1168 1.368 . S
C1163 C1147 1.349 . S
C1163 H1155 0.950 . S
C1163 C1161 1.327 . S
C1164 C1152 1.349 . S
C1164 H1158 0.950 . S
C1164 C1165 1.327 . S
C1165 H1159 0.950 . S
C1165 C1164 1.327 . S
C1165 C1169 1.429 . S
C1166 C1149 1.574 . S
C1166 H1160 0.949 . S
C1166 C1170 1.368 . S
C1167 C1148 1.429 . S
C1167 C1161 1.429 . S
C1167 C1168 1.523 . S
C1168 C1149 1.368 . S
C1168 C1162 1.368 . S
C1168 C1167 1.523 . S
C1169 C1153 1.429 . S
C1169 C1165 1.429 . S
C1169 C1170 1.523 1_556 S
C1170 C1154 1.368 . S
C1170 C1166 1.368 . S
C1170 C1169 1.523 1_554 S
H1171 C1146 0.950 . S
H1172 C1148 0.950 . S
H1173 C1149 0.949 . S
H1174 C1151 0.950 . S
H1175 C1153 0.950 . S
C1176 C1177 1.349 . S
C1176 C1178 1.327 . S
C1176 H1201 0.950 . S
C1177 C1176 1.349 . S
C1177 C1193 1.349 . S
C1178 C1176 1.327 . S
C1178 C1197 1.429 . S
C1178 H1202 0.950 . S
C1179 C1196 1.574 . S
C1179 C1198 1.368 . S
C1179 H1203 0.949 . S
H1180 C1184 0.949 . S
C1181 C1182 1.349 . S
C1181 C1183 1.327 . S
C1181 H1204 0.950 . S
C1182 C1181 1.349 . S
C1182 C1194 1.349 . S
C1183 C1181 1.327 . S
C1183 C1199 1.429 . S
C1183 H1205 0.950 . S
C1184 H1180 0.949 . S
C1184 C1192 1.574 . S
C1184 C1200 1.368 . S
H1185 C1193 0.950 . S
H1186 C1191 0.950 . S
H1187 C1192 0.949 . S
H1188 C1194 0.950 . S
H1189 C1195 0.950 . S
H1190 C1196 0.949 . S
C1191 H1186 0.950 . S
C1191 C1193 1.327 . S
C1191 C1197 1.429 . S
C1192 C1184 1.574 . S
C1192 H1187 0.949 . S
C1192 C1198 1.368 . S
C1193 C1177 1.349 . S
C1193 H1185 0.950 . S
C1193 C1191 1.327 . S
C1194 C1182 1.349 . S
C1194 H1188 0.950 . S
C1194 C1195 1.327 . S
C1195 H1189 0.950 . S
C1195 C1194 1.327 . S
C1195 C1199 1.429 . S
C1196 C1179 1.574 . S
C1196 H1190 0.949 . S
C1196 C1200 1.368 . S
C1197 C1178 1.429 . S
C1197 C1191 1.429 . S
C1197 C1198 1.523 . S
C1198 C1179 1.368 . S
C1198 C1192 1.368 . S
C1198 C1197 1.523 . S
C1199 C1183 1.429 . S
C1199 C1195 1.429 . S
C1199 C1200 1.523 . S
C1200 C1184 1.368 . S
C1200 C1196 1.368 . S
C1200 C1199 1.523 . S
H1201 C1176 0.950 . S
H1202 C1178 0.950 . S
H1203 C1179 0.949 . S
H1204 C1181 0.950 . S
H1205 C1183 0.950 . S
C1206 C1207 1.349 . S
C1206 C1208 1.327 . S
C1206 H1231 0.950 . S
C1207 C1206 1.349 . S
C1207 C1223 1.349 . S
C1208 C1206 1.327 . S
C1208 C1227 1.429 . S
C1208 H1232 0.950 . S
C1209 C1226 1.574 . S
C1209 C1228 1.368 . S
C1209 H1233 0.949 . S
H1210 C1214 0.949 . S
C1211 C1212 1.349 . S
C1211 C1213 1.327 . S
C1211 H1234 0.950 . S
C1212 C1211 1.349 . S
C1212 C1224 1.349 . S
C1213 C1211 1.327 . S
C1213 C1229 1.429 . S
C1213 H1235 0.950 . S
C1214 H1210 0.949 . S
C1214 C1222 1.574 . S
C1214 C1230 1.368 . S
H1215 C1223 0.950 . S
H1216 C1221 0.950 . S
H1217 C1222 0.949 . S
H1218 C1224 0.950 . S
H1219 C1225 0.950 . S
H1220 C1226 0.949 . S
C1221 H1216 0.950 . S
C1221 C1223 1.327 . S
C1221 C1227 1.429 . S
C1222 C1214 1.574 . S
C1222 H1217 0.949 . S
C1222 C1228 1.368 . S
C1223 C1207 1.349 . S
C1223 H1215 0.950 . S
C1223 C1221 1.327 . S
C1224 C1212 1.349 . S
C1224 H1218 0.950 . S
C1224 C1225 1.327 . S
C1225 H1219 0.950 . S
C1225 C1224 1.327 . S
C1225 C1229 1.429 . S
C1226 C1209 1.574 . S
C1226 H1220 0.949 . S
C1226 C1230 1.368 . S
C1227 C1208 1.429 . S
C1227 C1221 1.429 . S
C1227 C1228 1.523 1_655 S
C1228 C1209 1.368 . S
C1228 C1222 1.368 . S
C1228 C1227 1.523 1_455 S
C1229 C1213 1.429 . S
C1229 C1225 1.429 . S
C1229 C1230 1.523 . S
C1230 C1214 1.368 . S
C1230 C1226 1.368 . S
C1230 C1229 1.523 . S
H1231 C1206 0.950 . S
H1232 C1208 0.950 . S
H1233 C1209 0.949 . S
H1234 C1211 0.950 . S
H1235 C1213 0.950 . S
C1236 C1237 1.349 . S
C1236 C1238 1.327 . S
C1236 H1261 0.950 . S
C1237 C1236 1.349 . S
C1237 C1253 1.349 . S
C1238 C1236 1.327 . S
C1238 C1257 1.429 . S
C1238 H1262 0.950 . S
C1239 C1256 1.574 . S
C1239 C1258 1.368 . S
C1239 H1263 0.949 . S
H1240 C1244 0.949 . S
C1241 C1242 1.349 . S
C1241 C1243 1.327 . S
C1241 H1264 0.950 . S
C1242 C1241 1.349 . S
C1242 C1254 1.349 . S
C1243 C1241 1.327 . S
C1243 C1259 1.429 . S
C1243 H1265 0.950 . S
C1244 H1240 0.949 . S
C1244 C1252 1.574 . S
C1244 C1260 1.368 . S
H1245 C1253 0.950 . S
H1246 C1251 0.950 . S
H1247 C1252 0.949 . S
H1248 C1254 0.950 . S
H1249 C1255 0.950 . S
H1250 C1256 0.949 . S
C1251 H1246 0.950 . S
C1251 C1253 1.327 . S
C1251 C1257 1.429 . S
C1252 C1244 1.574 . S
C1252 H1247 0.949 . S
C1252 C1258 1.368 . S
C1253 C1237 1.349 . S
C1253 H1245 0.950 . S
C1253 C1251 1.327 . S
C1254 C1242 1.349 . S
C1254 H1248 0.950 . S
C1254 C1255 1.327 . S
C1255 H1249 0.950 . S
C1255 C1254 1.327 . S
C1255 C1259 1.429 . S
C1256 C1239 1.574 . S
C1256 H1250 0.949 . S
C1256 C1260 1.368 . S
C1257 C1238 1.429 . S
C1257 C1251 1.429 . S
C1257 C1258 1.523 1_455 S
C1258 C1239 1.368 . S
C1258 C1252 1.368 . S
C1258 C1257 1.523 1_655 S
C1259 C1243 1.429 . S
C1259 C1255 1.429 . S
C1259 C1260 1.523 . S
C1260 C1244 1.368 . S
C1260 C1256 1.368 . S
C1260 C1259 1.523 . S
H1261 C1236 0.950 . S
H1262 C1238 0.950 . S
H1263 C1239 0.949 . S
H1264 C1241 0.950 . S
H1265 C1243 0.950 . S
C1266 C1267 1.349 . S
C1266 C1268 1.327 . S
C1266 H1291 0.950 . S
C1267 C1266 1.349 . S
C1267 C1283 1.349 . S
C1268 C1266 1.327 . S
C1268 C1287 1.429 . S
C1268 H1292 0.950 . S
C1269 C1286 1.574 . S
C1269 C1288 1.368 . S
C1269 H1293 0.949 . S
H1270 C1274 0.949 . S
C1271 C1272 1.349 . S
C1271 C1273 1.327 . S
C1271 H1294 0.950 . S
C1272 C1271 1.349 . S
C1272 C1284 1.349 . S
C1273 C1271 1.327 . S
C1273 C1289 1.429 . S
C1273 H1295 0.950 . S
C1274 H1270 0.949 . S
C1274 C1282 1.574 . S
C1274 C1290 1.368 . S
H1275 C1283 0.950 . S
H1276 C1281 0.950 . S
H1277 C1282 0.949 . S
H1278 C1284 0.950 . S
H1279 C1285 0.950 . S
H1280 C1286 0.949 . S
C1281 H1276 0.950 . S
C1281 C1283 1.327 . S
C1281 C1287 1.429 . S
C1282 C1274 1.574 . S
C1282 H1277 0.949 . S
C1282 C1288 1.368 . S
C1283 C1267 1.349 . S
C1283 H1275 0.950 . S
C1283 C1281 1.327 . S
C1284 C1272 1.349 . S
C1284 H1278 0.950 . S
C1284 C1285 1.327 . S
C1285 H1279 0.950 . S
C1285 C1284 1.327 . S
C1285 C1289 1.429 . S
C1286 C1269 1.574 . S
C1286 H1280 0.949 . S
C1286 C1290 1.368 . S
C1287 C1268 1.429 . S
C1287 C1281 1.429 . S
C1287 C1288 1.523 . S
C1288 C1269 1.368 . S
C1288 C1282 1.368 . S
C1288 C1287 1.523 . S
C1289 C1273 1.429 . S
C1289 C1285 1.429 . S
C1289 C1290 1.523 . S
C1290 C1274 1.368 . S
C1290 C1286 1.368 . S
C1290 C1289 1.523 . S
H1291 C1266 0.950 . S
H1292 C1268 0.950 . S
H1293 C1269 0.949 . S
H1294 C1271 0.950 . S
H1295 C1273 0.950 . S
C1296 C1297 1.349 . S
C1296 C1298 1.327 . S
C1296 H1321 0.950 . S
C1297 C1296 1.349 . S
C1297 C1313 1.349 . S
C1298 C1296 1.327 . S
C1298 C1317 1.429 . S
C1298 H1322 0.950 . S
C1299 C1316 1.574 . S
C1299 C1318 1.368 . S
C1299 H1323 0.949 . S
H1300 C1304 0.949 . S
C1301 C1302 1.349 . S
C1301 C1303 1.327 . S
C1301 H1324 0.950 . S
C1302 C1301 1.349 . S
C1302 C1314 1.349 . S
C1303 C1301 1.327 . S
C1303 C1319 1.429 . S
C1303 H1325 0.950 . S
C1304 H1300 0.949 . S
C1304 C1312 1.574 . S
C1304 C1320 1.368 . S
H1305 C1313 0.950 . S
H1306 C1311 0.950 . S
H1307 C1312 0.949 . S
H1308 C1314 0.950 . S
H1309 C1315 0.950 . S
H1310 C1316 0.949 . S
C1311 H1306 0.950 . S
C1311 C1313 1.327 . S
C1311 C1317 1.429 . S
C1312 C1304 1.574 . S
C1312 H1307 0.949 . S
C1312 C1318 1.368 . S
C1313 C1297 1.349 . S
C1313 H1305 0.950 . S
C1313 C1311 1.327 . S
C1314 C1302 1.349 . S
C1314 H1308 0.950 . S
C1314 C1315 1.327 . S
C1315 H1309 0.950 . S
C1315 C1314 1.327 . S
C1315 C1319 1.429 . S
C1316 C1299 1.574 . S
C1316 H1310 0.949 . S
C1316 C1320 1.368 . S
C1317 C1298 1.429 . S
C1317 C1311 1.429 . S
C1317 C1318 1.523 . S
C1318 C1299 1.368 . S
C1318 C1312 1.368 . S
C1318 C1317 1.523 . S
C1319 C1303 1.429 . S
C1319 C1315 1.429 . S
C1319 C1320 1.523 . S
C1320 C1304 1.368 . S
C1320 C1316 1.368 . S
C1320 C1319 1.523 . S
H1321 C1296 0.950 . S
H1322 C1298 0.950 . S
H1323 C1299 0.949 . S
H1324 C1301 0.950 . S
H1325 C1303 0.950 . S
C1326 C1327 1.349 . S
C1326 C1328 1.327 . S
C1326 H1351 0.950 . S
C1327 C1326 1.349 . S
C1327 C1343 1.349 . S
C1328 C1326 1.327 . S
C1328 C1347 1.429 . S
C1328 H1352 0.950 . S
C1329 C1346 1.574 . S
C1329 C1348 1.368 . S
C1329 H1353 0.949 . S
H1330 C1334 0.949 . S
C1331 C1332 1.349 . S
C1331 C1333 1.327 . S
C1331 H1354 0.950 . S
C1332 C1331 1.349 . S
C1332 C1344 1.349 . S
C1333 C1331 1.327 . S
C1333 C1349 1.429 . S
C1333 H1355 0.950 . S
C1334 H1330 0.949 . S
C1334 C1342 1.574 . S
C1334 C1350 1.368 . S
H1335 C1343 0.950 . S
H1336 C1341 0.950 . S
H1337 C1342 0.949 1_565 S
H1338 C1344 0.950 . S
H1339 C1345 0.950 . S
H1340 C1346 0.949 . S
C1341 H1336 0.950 . S
C1341 C1343 1.327 . S
C1341 C1347 1.429 . S
C1342 C1334 1.574 . S
C1342 H1337 0.949 1_545 S
C1342 C1348 1.368 . S
C1343 C1327 1.349 . S
C1343 H1335 0.950 . S
C1343 C1341 1.327 . S
C1344 C1332 1.349 . S
C1344 H1338 0.950 . S
C1344 C1345 1.327 . S
C1345 H1339 0.950 . S
C1345 C1344 1.327 . S
C1345 C1349 1.429 . S
C1346 C1329 1.574 . S
C1346 H1340 0.949 . S
C1346 C1350 1.368 . S
C1347 C1328 1.429 . S
C1347 C1341 1.429 . S
C1347 C1348 1.523 1_565 S
C1348 C1329 1.368 . S
C1348 C1342 1.368 . S
C1348 C1347 1.523 1_545 S
C1349 C1333 1.429 . S
C1349 C1345 1.429 . S
C1349 C1350 1.523 . S
C1350 C1334 1.368 . S
C1350 C1346 1.368 . S
C1350 C1349 1.523 . S
H1351 C1326 0.950 . S
H1352 C1328 0.950 . S
H1353 C1329 0.949 . S
H1354 C1331 0.950 . S
H1355 C1333 0.950 . S
C1356 C1357 1.349 . S
C1356 C1358 1.327 . S
C1356 H1381 0.950 . S
C1357 C1356 1.349 . S
C1357 C1373 1.349 . S
C1358 C1356 1.327 . S
C1358 C1377 1.429 . S
C1358 H1382 0.950 . S
C1359 C1376 1.574 . S
C1359 C1378 1.368 . S
C1359 H1383 0.949 . S
H1360 C1364 0.949 . S
C1361 C1362 1.349 . S
C1361 C1363 1.327 . S
C1361 H1384 0.950 . S
C1362 C1361 1.349 . S
C1362 C1374 1.349 . S
C1363 C1361 1.327 . S
C1363 C1379 1.429 . S
C1363 H1385 0.950 . S
C1364 H1360 0.949 . S
C1364 C1372 1.574 . S
C1364 C1380 1.368 . S
H1365 C1373 0.950 . S
H1366 C1371 0.950 . S
H1367 C1372 0.949 1_545 S
H1368 C1374 0.950 . S
H1369 C1375 0.950 . S
H1370 C1376 0.949 . S
C1371 H1366 0.950 . S
C1371 C1373 1.327 . S
C1371 C1377 1.429 . S
C1372 C1364 1.574 . S
C1372 H1367 0.949 1_565 S
C1372 C1378 1.368 . S
C1373 C1357 1.349 . S
C1373 H1365 0.950 . S
C1373 C1371 1.327 . S
C1374 C1362 1.349 . S
C1374 H1368 0.950 . S
C1374 C1375 1.327 . S
C1375 H1369 0.950 . S
C1375 C1374 1.327 . S
C1375 C1379 1.429 . S
C1376 C1359 1.574 . S
C1376 H1370 0.949 . S
C1376 C1380 1.368 . S
C1377 C1358 1.429 . S
C1377 C1371 1.429 . S
C1377 C1378 1.523 1_545 S
C1378 C1359 1.368 . S
C1378 C1372 1.368 . S
C1378 C1377 1.523 1_565 S
C1379 C1363 1.429 . S
C1379 C1375 1.429 . S
C1379 C1380 1.523 . S
C1380 C1364 1.368 . S
C1380 C1376 1.368 . S
C1380 C1379 1.523 . S
H1381 C1356 0.950 . S
H1382 C1358 0.950 . S
H1383 C1359 0.949 . S
H1384 C1361 0.950 . S
H1385 C1363 0.950 . S
C1386 C1387 1.349 . S
C1386 C1388 1.327 . S
C1386 H1411 0.950 . S
C1387 C1386 1.349 . S
C1387 C1403 1.349 . S
C1388 C1386 1.327 . S
C1388 C1407 1.429 . S
C1388 H1412 0.950 . S
C1389 C1406 1.574 . S
C1389 C1408 1.368 . S
C1389 H1413 0.949 . S
H1390 C1394 0.949 . S
C1391 C1392 1.349 . S
C1391 C1393 1.327 . S
C1391 H1414 0.950 . S
C1392 C1391 1.349 . S
C1392 C1404 1.349 . S
C1393 C1391 1.327 . S
C1393 C1409 1.429 . S
C1393 H1415 0.950 . S
C1394 H1390 0.949 . S
C1394 C1402 1.574 . S
C1394 C1410 1.368 . S
H1395 C1403 0.950 . S
H1396 C1401 0.950 . S
H1397 C1402 0.949 . S
H1398 C1404 0.950 . S
H1399 C1405 0.950 . S
H1400 C1406 0.949 . S
C1401 H1396 0.950 . S
C1401 C1403 1.327 . S
C1401 C1407 1.429 . S
C1402 C1394 1.574 . S
C1402 H1397 0.949 . S
C1402 C1408 1.368 . S
C1403 C1387 1.349 . S
C1403 H1395 0.950 . S
C1403 C1401 1.327 . S
C1404 C1392 1.349 . S
C1404 H1398 0.950 . S
C1404 C1405 1.327 . S
C1405 H1399 0.950 . S
C1405 C1404 1.327 . S
C1405 C1409 1.429 . S
C1406 C1389 1.574 . S
C1406 H1400 0.949 . S
C1406 C1410 1.368 . S
C1407 C1388 1.429 . S
C1407 C1401 1.429 . S
C1407 C1408 1.523 . S
C1408 C1389 1.368 . S
C1408 C1402 1.368 . S
C1408 C1407 1.523 . S
C1409 C1393 1.429 . S
C1409 C1405 1.429 . S
C1409 C1410 1.523 . S
C1410 C1394 1.368 . S
C1410 C1406 1.368 . S
C1410 C1409 1.523 . S
H1411 C1386 0.950 . S
H1412 C1388 0.950 . S
H1413 C1389 0.949 . S
H1414 C1391 0.950 . S
H1415 C1393 0.950 . S
C1416 C1417 1.349 . S
C1416 C1418 1.327 . S
C1416 H1441 0.950 . S
C1417 C1416 1.349 . S
C1417 C1433 1.349 . S
C1418 C1416 1.327 . S
C1418 C1437 1.429 . S
C1418 H1442 0.950 . S
C1419 C1436 1.574 . S
C1419 C1438 1.368 . S
C1419 H1443 0.949 . S
H1420 C1424 0.949 . S
C1421 C1422 1.349 . S
C1421 C1423 1.327 . S
C1421 H1444 0.950 . S
C1422 C1421 1.349 . S
C1422 C1434 1.349 . S
C1423 C1421 1.327 . S
C1423 C1439 1.429 . S
C1423 H1445 0.950 . S
C1424 H1420 0.949 . S
C1424 C1432 1.574 . S
C1424 C1440 1.368 . S
H1425 C1433 0.950 . S
H1426 C1431 0.950 . S
H1427 C1432 0.949 . S
H1428 C1434 0.950 . S
H1429 C1435 0.950 . S
H1430 C1436 0.949 . S
C1431 H1426 0.950 . S
C1431 C1433 1.327 . S
C1431 C1437 1.429 . S
C1432 C1424 1.574 . S
C1432 H1427 0.949 . S
C1432 C1438 1.368 . S
C1433 C1417 1.349 . S
C1433 H1425 0.950 . S
C1433 C1431 1.327 . S
C1434 C1422 1.349 . S
C1434 H1428 0.950 . S
C1434 C1435 1.327 . S
C1435 H1429 0.950 . S
C1435 C1434 1.327 . S
C1435 C1439 1.429 . S
C1436 C1419 1.574 . S
C1436 H1430 0.949 . S
C1436 C1440 1.368 . S
C1437 C1418 1.429 . S
C1437 C1431 1.429 . S
C1437 C1438 1.523 . S
C1438 C1419 1.368 . S
C1438 C1432 1.368 . S
C1438 C1437 1.523 . S
C1439 C1423 1.429 . S
C1439 C1435 1.429 . S
C1439 C1440 1.523 . S
C1440 C1424 1.368 . S
C1440 C1436 1.368 . S
C1440 C1439 1.523 . S
H1441 C1416 0.950 . S
H1442 C1418 0.950 . S
H1443 C1419 0.949 . S
H1444 C1421 0.950 . S
H1445 C1423 0.950 . S
C1446 C1447 1.349 . S
C1446 C1448 1.327 . S
C1446 H1471 0.950 . S
C1447 C1446 1.349 . S
C1447 C1463 1.349 . S
C1448 C1446 1.327 . S
C1448 C1467 1.429 . S
C1448 H1472 0.950 . S
C1449 C1466 1.574 . S
C1449 C1468 1.368 . S
C1449 H1473 0.949 . S
H1450 C1454 0.949 . S
C1451 C1452 1.349 . S
C1451 C1453 1.327 . S
C1451 H1474 0.950 . S
C1452 C1451 1.349 . S
C1452 C1464 1.349 . S
C1453 C1451 1.327 . S
C1453 C1469 1.429 . S
C1453 H1475 0.950 . S
C1454 H1450 0.949 . S
C1454 C1462 1.574 . S
C1454 C1470 1.368 . S
H1455 C1463 0.950 . S
H1456 C1461 0.950 . S
H1457 C1462 0.949 . S
H1458 C1464 0.950 . S
H1459 C1465 0.950 . S
H1460 C1466 0.949 . S
C1461 H1456 0.950 . S
C1461 C1463 1.327 . S
C1461 C1467 1.429 . S
C1462 C1454 1.574 . S
C1462 H1457 0.949 . S
C1462 C1468 1.368 . S
C1463 C1447 1.349 . S
C1463 H1455 0.950 . S
C1463 C1461 1.327 . S
C1464 C1452 1.349 . S
C1464 H1458 0.950 . S
C1464 C1465 1.327 . S
C1465 H1459 0.950 . S
C1465 C1464 1.327 . S
C1465 C1469 1.429 . S
C1466 C1449 1.574 . S
C1466 H1460 0.949 . S
C1466 C1470 1.368 . S
C1467 C1448 1.429 . S
C1467 C1461 1.429 . S
C1467 C1468 1.523 1_556 S
C1468 C1449 1.368 . S
C1468 C1462 1.368 . S
C1468 C1467 1.523 1_554 S
C1469 C1453 1.429 . S
C1469 C1465 1.429 . S
C1469 C1470 1.523 . S
C1470 C1454 1.368 . S
C1470 C1466 1.368 . S
C1470 C1469 1.523 . S
H1471 C1446 0.950 . S
H1472 C1448 0.950 . S
H1473 C1449 0.949 . S
H1474 C1451 0.950 . S
H1475 C1453 0.950 . S
C1476 C1477 1.349 . S
C1476 C1478 1.327 . S
C1476 H1501 0.950 . S
C1477 C1476 1.349 . S
C1477 C1493 1.349 . S
C1478 C1476 1.327 . S
C1478 C1497 1.429 . S
C1478 H1502 0.950 . S
C1479 C1496 1.574 . S
C1479 C1498 1.368 . S
C1479 H1503 0.949 . S
H1480 C1484 0.949 . S
C1481 C1482 1.349 . S
C1481 C1483 1.327 . S
C1481 H1504 0.950 . S
C1482 C1481 1.349 . S
C1482 C1494 1.349 . S
C1483 C1481 1.327 . S
C1483 C1499 1.429 . S
C1483 H1505 0.950 . S
C1484 H1480 0.949 . S
C1484 C1492 1.574 . S
C1484 C1500 1.368 . S
H1485 C1493 0.950 . S
H1486 C1491 0.950 . S
H1487 C1492 0.949 . S
H1488 C1494 0.950 . S
H1489 C1495 0.950 . S
H1490 C1496 0.949 . S
C1491 H1486 0.950 . S
C1491 C1493 1.327 . S
C1491 C1497 1.429 . S
C1492 C1484 1.574 . S
C1492 H1487 0.949 . S
C1492 C1498 1.368 . S
C1493 C1477 1.349 . S
C1493 H1485 0.950 . S
C1493 C1491 1.327 . S
C1494 C1482 1.349 . S
C1494 H1488 0.950 . S
C1494 C1495 1.327 . S
C1495 H1489 0.950 . S
C1495 C1494 1.327 . S
C1495 C1499 1.429 . S
C1496 C1479 1.574 . S
C1496 H1490 0.949 . S
C1496 C1500 1.368 . S
C1497 C1478 1.429 . S
C1497 C1491 1.429 . S
C1497 C1498 1.523 . S
C1498 C1479 1.368 . S
C1498 C1492 1.368 . S
C1498 C1497 1.523 . S
C1499 C1483 1.429 . S
C1499 C1495 1.429 . S
C1499 C1500 1.523 . S
C1500 C1484 1.368 . S
C1500 C1496 1.368 . S
C1500 C1499 1.523 . S
H1501 C1476 0.950 . S
H1502 C1478 0.950 . S
H1503 C1479 0.949 . S
H1504 C1481 0.950 . S
H1505 C1483 0.950 . S
C1506 C1507 1.349 . S
C1506 C1508 1.327 . S
C1506 H1531 0.950 . S
C1507 C1506 1.349 . S
C1507 C1523 1.349 . S
C1508 C1506 1.327 . S
C1508 C1527 1.429 . S
C1508 H1532 0.950 . S
C1509 C1526 1.574 . S
C1509 C1528 1.368 . S
C1509 H1533 0.949 . S
H1510 C1514 0.949 . S
C1511 C1512 1.349 . S
C1511 C1513 1.327 . S
C1511 H1534 0.950 . S
C1512 C1511 1.349 . S
C1512 C1524 1.349 . S
C1513 C1511 1.327 . S
C1513 C1529 1.429 . S
C1513 H1535 0.950 . S
C1514 H1510 0.949 . S
C1514 C1522 1.574 . S
C1514 C1530 1.368 . S
H1515 C1523 0.950 . S
H1516 C1521 0.950 . S
H1517 C1522 0.949 . S
H1518 C1524 0.950 . S
H1519 C1525 0.950 . S
H1520 C1526 0.949 . S
C1521 H1516 0.950 . S
C1521 C1523 1.327 . S
C1521 C1527 1.429 . S
C1522 C1514 1.574 . S
C1522 H1517 0.949 . S
C1522 C1528 1.368 . S
C1523 C1507 1.349 . S
C1523 H1515 0.950 . S
C1523 C1521 1.327 . S
C1524 C1512 1.349 . S
C1524 H1518 0.950 . S
C1524 C1525 1.327 . S
C1525 H1519 0.950 . S
C1525 C1524 1.327 . S
C1525 C1529 1.429 . S
C1526 C1509 1.574 . S
C1526 H1520 0.949 . S
C1526 C1530 1.368 . S
C1527 C1508 1.429 . S
C1527 C1521 1.429 . S
C1527 C1528 1.523 1_554 S
C1528 C1509 1.368 . S
C1528 C1522 1.368 . S
C1528 C1527 1.523 1_556 S
C1529 C1513 1.429 . S
C1529 C1525 1.429 . S
C1529 C1530 1.523 . S
C1530 C1514 1.368 . S
C1530 C1526 1.368 . S
C1530 C1529 1.523 . S
H1531 C1506 0.950 . S
H1532 C1508 0.950 . S
H1533 C1509 0.949 . S
H1534 C1511 0.950 . S
H1535 C1513 0.950 . S
C1536 C1537 1.349 . S
C1536 C1538 1.327 . S
C1536 H1561 0.950 . S
C1537 C1536 1.349 . S
C1537 C1553 1.349 . S
C1538 C1536 1.327 . S
C1538 C1557 1.429 . S
C1538 H1562 0.950 . S
C1539 C1556 1.574 . S
C1539 C1558 1.368 . S
C1539 H1563 0.949 . S
H1540 C1544 0.949 . S
C1541 C1542 1.349 . S
C1541 C1543 1.327 . S
C1541 H1564 0.950 . S
C1542 C1541 1.349 . S
C1542 C1554 1.349 . S
C1543 C1541 1.327 . S
C1543 C1559 1.429 . S
C1543 H1565 0.950 . S
C1544 H1540 0.949 . S
C1544 C1552 1.574 . S
C1544 C1560 1.368 . S
H1545 C1553 0.950 . S
H1546 C1551 0.950 . S
H1547 C1552 0.949 . S
H1548 C1554 0.950 . S
H1549 C1555 0.950 . S
H1550 C1556 0.949 . S
C1551 H1546 0.950 . S
C1551 C1553 1.327 . S
C1551 C1557 1.429 . S
C1552 C1544 1.574 . S
C1552 H1547 0.949 . S
C1552 C1558 1.368 . S
C1553 C1537 1.349 . S
C1553 H1545 0.950 . S
C1553 C1551 1.327 . S
C1554 C1542 1.349 . S
C1554 H1548 0.950 . S
C1554 C1555 1.327 . S
C1555 H1549 0.950 . S
C1555 C1554 1.327 . S
C1555 C1559 1.429 . S
C1556 C1539 1.574 . S
C1556 H1550 0.949 . S
C1556 C1560 1.368 . S
C1557 C1538 1.429 . S
C1557 C1551 1.429 . S
C1557 C1558 1.523 . S
C1558 C1539 1.368 . S
C1558 C1552 1.368 . S
C1558 C1557 1.523 . S
C1559 C1543 1.429 . S
C1559 C1555 1.429 . S
C1559 C1560 1.523 . S
C1560 C1544 1.368 . S
C1560 C1556 1.368 . S
C1560 C1559 1.523 . S
H1561 C1536 0.950 . S
H1562 C1538 0.950 . S
H1563 C1539 0.949 . S
H1564 C1541 0.950 . S
H1565 C1543 0.950 . S
C1566 C1567 1.349 . S
C1566 C1568 1.327 . S
C1566 H1591 0.950 . S
C1567 C1566 1.349 . S
C1567 C1583 1.349 . S
C1568 C1566 1.327 . S
C1568 C1587 1.429 . S
C1568 H1592 0.950 . S
C1569 C1586 1.574 . S
C1569 C1588 1.368 . S
C1569 H1593 0.949 . S
H1570 C1574 0.949 . S
C1571 C1572 1.349 . S
C1571 C1573 1.327 . S
C1571 H1594 0.950 . S
C1572 C1571 1.349 . S
C1572 C1584 1.349 . S
C1573 C1571 1.327 . S
C1573 C1589 1.429 . S
C1573 H1595 0.950 . S
C1574 H1570 0.949 . S
C1574 C1582 1.574 . S
C1574 C1590 1.368 . S
H1575 C1583 0.950 . S
H1576 C1581 0.950 . S
H1577 C1582 0.949 . S
H1578 C1584 0.950 . S
H1579 C1585 0.950 . S
H1580 C1586 0.949 . S
C1581 H1576 0.950 . S
C1581 C1583 1.327 . S
C1581 C1587 1.429 . S
C1582 C1574 1.574 . S
C1582 H1577 0.949 . S
C1582 C1588 1.368 . S
C1583 C1567 1.349 . S
C1583 H1575 0.950 . S
C1583 C1581 1.327 . S
C1584 C1572 1.349 . S
C1584 H1578 0.950 . S
C1584 C1585 1.327 . S
C1585 H1579 0.950 . S
C1585 C1584 1.327 . S
C1585 C1589 1.429 . S
C1586 C1569 1.574 . S
C1586 H1580 0.949 . S
C1586 C1590 1.368 . S
C1587 C1568 1.429 . S
C1587 C1581 1.429 . S
C1587 C1588 1.523 . S
C1588 C1569 1.368 . S
C1588 C1582 1.368 . S
C1588 C1587 1.523 . S
C1589 C1573 1.429 . S
C1589 C1585 1.429 . S
C1589 C1590 1.523 1_455 S
C1590 C1574 1.368 . S
C1590 C1586 1.368 . S
C1590 C1589 1.523 1_655 S
H1591 C1566 0.950 . S
H1592 C1568 0.950 . S
H1593 C1569 0.949 . S
H1594 C1571 0.950 . S
H1595 C1573 0.950 . S
C1596 C1597 1.349 . S
C1596 C1598 1.327 . S
C1596 H1621 0.950 . S
C1597 C1596 1.349 . S
C1597 C1613 1.349 . S
C1598 C1596 1.327 . S
C1598 C1617 1.429 . S
C1598 H1622 0.950 . S
C1599 C1616 1.574 . S
C1599 C1618 1.368 . S
C1599 H1623 0.949 . S
H1600 C1604 0.949 1_655 S
C1601 C1602 1.349 . S
C1601 C1603 1.327 . S
C1601 H1624 0.950 . S
C1602 C1601 1.349 . S
C1602 C1614 1.349 . S
C1603 C1601 1.327 . S
C1603 C1619 1.429 . S
C1603 H1625 0.950 . S
C1604 H1600 0.949 1_455 S
C1604 C1612 1.574 . S
C1604 C1620 1.368 . S
H1605 C1613 0.950 . S
H1606 C1611 0.950 . S
H1607 C1612 0.949 . S
H1608 C1614 0.950 . S
H1609 C1615 0.950 . S
H1610 C1616 0.949 . S
C1611 H1606 0.950 . S
C1611 C1613 1.327 . S
C1611 C1617 1.429 . S
C1612 C1604 1.574 . S
C1612 H1607 0.949 . S
C1612 C1618 1.368 . S
C1613 C1597 1.349 . S
C1613 H1605 0.950 . S
C1613 C1611 1.327 . S
C1614 C1602 1.349 . S
C1614 H1608 0.950 . S
C1614 C1615 1.327 . S
C1615 H1609 0.950 . S
C1615 C1614 1.327 . S
C1615 C1619 1.429 . S
C1616 C1599 1.574 . S
C1616 H1610 0.949 . S
C1616 C1620 1.368 . S
C1617 C1598 1.429 . S
C1617 C1611 1.429 . S
C1617 C1618 1.523 . S
C1618 C1599 1.368 . S
C1618 C1612 1.368 . S
C1618 C1617 1.523 . S
C1619 C1603 1.429 . S
C1619 C1615 1.429 . S
C1619 C1620 1.523 1_655 S
C1620 C1604 1.368 . S
C1620 C1616 1.368 . S
C1620 C1619 1.523 1_455 S
H1621 C1596 0.950 . S
H1622 C1598 0.950 . S
H1623 C1599 0.949 . S
H1624 C1601 0.950 . S
H1625 C1603 0.950 . S
C1626 C1627 1.349 . S
C1626 C1628 1.327 . S
C1626 H1651 0.950 . S
C1627 C1626 1.349 . S
C1627 C1643 1.349 . S
C1628 C1626 1.327 . S
C1628 C1647 1.429 . S
C1628 H1652 0.950 . S
C1629 C1646 1.574 . S
C1629 C1648 1.368 . S
C1629 H1653 0.949 . S
H1630 C1634 0.949 . S
C1631 C1632 1.349 . S
C1631 C1633 1.327 . S
C1631 H1654 0.950 . S
C1632 C1631 1.349 . S
C1632 C1644 1.349 . S
C1633 C1631 1.327 . S
C1633 C1649 1.429 . S
C1633 H1655 0.950 . S
C1634 H1630 0.949 . S
C1634 C1642 1.574 . S
C1634 C1650 1.368 . S
H1635 C1643 0.950 . S
H1636 C1641 0.950 . S
H1637 C1642 0.949 . S
H1638 C1644 0.950 . S
H1639 C1645 0.950 . S
H1640 C1646 0.949 . S
C1641 H1636 0.950 . S
C1641 C1643 1.327 . S
C1641 C1647 1.429 . S
C1642 C1634 1.574 . S
C1642 H1637 0.949 . S
C1642 C1648 1.368 . S
C1643 C1627 1.349 . S
C1643 H1635 0.950 . S
C1643 C1641 1.327 . S
C1644 C1632 1.349 . S
C1644 H1638 0.950 . S
C1644 C1645 1.327 . S
C1645 H1639 0.950 . S
C1645 C1644 1.327 . S
C1645 C1649 1.429 . S
C1646 C1629 1.574 . S
C1646 H1640 0.949 . S
C1646 C1650 1.368 . S
C1647 C1628 1.429 . S
C1647 C1641 1.429 . S
C1647 C1648 1.523 . S
C1648 C1629 1.368 . S
C1648 C1642 1.368 . S
C1648 C1647 1.523 . S
C1649 C1633 1.429 . S
C1649 C1645 1.429 . S
C1649 C1650 1.523 . S
C1650 C1634 1.368 . S
C1650 C1646 1.368 . S
C1650 C1649 1.523 . S
H1651 C1626 0.950 . S
H1652 C1628 0.950 . S
H1653 C1629 0.949 . S
H1654 C1631 0.950 . S
H1655 C1633 0.950 . S
C1656 C1657 1.349 . S
C1656 C1658 1.327 . S
C1656 H1681 0.950 . S
C1657 C1656 1.349 . S
C1657 C1673 1.349 . S
C1658 C1656 1.327 . S
C1658 C1677 1.429 . S
C1658 H1682 0.950 . S
C1659 C1676 1.574 . S
C1659 C1678 1.368 . S
C1659 H1683 0.949 . S
H1660 C1664 0.949 . S
C1661 C1662 1.349 . S
C1661 C1663 1.327 . S
C1661 H1684 0.950 . S
C1662 C1661 1.349 . S
C1662 C1674 1.349 . S
C1663 C1661 1.327 . S
C1663 C1679 1.429 . S
C1663 H1685 0.950 . S
C1664 H1660 0.949 . S
C1664 C1672 1.574 . S
C1664 C1680 1.368 . S
H1665 C1673 0.950 . S
H1666 C1671 0.950 . S
H1667 C1672 0.949 . S
H1668 C1674 0.950 . S
H1669 C1675 0.950 . S
H1670 C1676 0.949 . S
C1671 H1666 0.950 . S
C1671 C1673 1.327 . S
C1671 C1677 1.429 . S
C1672 C1664 1.574 . S
C1672 H1667 0.949 . S
C1672 C1678 1.368 . S
C1673 C1657 1.349 . S
C1673 H1665 0.950 . S
C1673 C1671 1.327 . S
C1674 C1662 1.349 . S
C1674 H1668 0.950 . S
C1674 C1675 1.327 . S
C1675 H1669 0.950 . S
C1675 C1674 1.327 . S
C1675 C1679 1.429 . S
C1676 C1659 1.574 . S
C1676 H1670 0.949 . S
C1676 C1680 1.368 . S
C1677 C1658 1.429 . S
C1677 C1671 1.429 . S
C1677 C1678 1.523 . S
C1678 C1659 1.368 . S
C1678 C1672 1.368 . S
C1678 C1677 1.523 . S
C1679 C1663 1.429 . S
C1679 C1675 1.429 . S
C1679 C1680 1.523 . S
C1680 C1664 1.368 . S
C1680 C1676 1.368 . S
C1680 C1679 1.523 . S
H1681 C1656 0.950 . S
H1682 C1658 0.950 . S
H1683 C1659 0.949 . S
H1684 C1661 0.950 . S
H1685 C1663 0.950 . S
C1686 C1687 1.349 . S
C1686 C1688 1.327 . S
C1686 H1711 0.950 . S
C1687 C1686 1.349 . S
C1687 C1703 1.349 . S
C1688 C1686 1.327 . S
C1688 C1707 1.429 . S
C1688 H1712 0.950 . S
C1689 C1706 1.574 . S
C1689 C1708 1.368 . S
C1689 H1713 0.949 . S
H1690 C1694 0.949 1_545 S
C1691 C1692 1.349 . S
C1691 C1693 1.327 . S
C1691 H1714 0.950 . S
C1692 C1691 1.349 . S
C1692 C1704 1.349 . S
C1693 C1691 1.327 . S
C1693 C1709 1.429 . S
C1693 H1715 0.950 . S
C1694 H1690 0.949 1_565 S
C1694 C1702 1.574 . S
C1694 C1710 1.368 . S
H1695 C1703 0.950 . S
H1696 C1701 0.950 . S
H1697 C1702 0.949 . S
H1698 C1704 0.950 . S
H1699 C1705 0.950 . S
H1700 C1706 0.949 . S
C1701 H1696 0.950 . S
C1701 C1703 1.327 . S
C1701 C1707 1.429 . S
C1702 C1694 1.574 . S
C1702 H1697 0.949 . S
C1702 C1708 1.368 . S
C1703 C1687 1.349 . S
C1703 H1695 0.950 . S
C1703 C1701 1.327 . S
C1704 C1692 1.349 . S
C1704 H1698 0.950 . S
C1704 C1705 1.327 . S
C1705 H1699 0.950 . S
C1705 C1704 1.327 . S
C1705 C1709 1.429 . S
C1706 C1689 1.574 . S
C1706 H1700 0.949 . S
C1706 C1710 1.368 . S
C1707 C1688 1.429 . S
C1707 C1701 1.429 . S
C1707 C1708 1.523 . S
C1708 C1689 1.368 . S
C1708 C1702 1.368 . S
C1708 C1707 1.523 . S
C1709 C1693 1.429 . S
C1709 C1705 1.429 . S
C1709 C1710 1.523 1_545 S
C1710 C1694 1.368 . S
C1710 C1706 1.368 . S
C1710 C1709 1.523 1_565 S
H1711 C1686 0.950 . S
H1712 C1688 0.950 . S
H1713 C1689 0.949 . S
H1714 C1691 0.950 . S
H1715 C1693 0.950 . S
C1716 C1717 1.349 . S
C1716 C1718 1.327 . S
C1716 H1741 0.950 . S
C1717 C1716 1.349 . S
C1717 C1733 1.349 . S
C1718 C1716 1.327 . S
C1718 C1737 1.429 . S
C1718 H1742 0.950 . S
C1719 C1736 1.574 . S
C1719 C1738 1.368 . S
C1719 H1743 0.949 . S
H1720 C1724 0.949 . S
C1721 C1722 1.349 . S
C1721 C1723 1.327 . S
C1721 H1744 0.950 . S
C1722 C1721 1.349 . S
C1722 C1734 1.349 . S
C1723 C1721 1.327 . S
C1723 C1739 1.429 . S
C1723 H1745 0.950 . S
C1724 H1720 0.949 . S
C1724 C1732 1.574 . S
C1724 C1740 1.368 . S
H1725 C1733 0.950 . S
H1726 C1731 0.950 . S
H1727 C1732 0.949 . S
H1728 C1734 0.950 . S
H1729 C1735 0.950 . S
H1730 C1736 0.949 . S
C1731 H1726 0.950 . S
C1731 C1733 1.327 . S
C1731 C1737 1.429 . S
C1732 C1724 1.574 . S
C1732 H1727 0.949 . S
C1732 C1738 1.368 . S
C1733 C1717 1.349 . S
C1733 H1725 0.950 . S
C1733 C1731 1.327 . S
C1734 C1722 1.349 . S
C1734 H1728 0.950 . S
C1734 C1735 1.327 . S
C1735 H1729 0.950 . S
C1735 C1734 1.327 . S
C1735 C1739 1.429 . S
C1736 C1719 1.574 . S
C1736 H1730 0.949 . S
C1736 C1740 1.368 . S
C1737 C1718 1.429 . S
C1737 C1731 1.429 . S
C1737 C1738 1.523 1_565 S
C1738 C1719 1.368 . S
C1738 C1732 1.368 . S
C1738 C1737 1.523 1_545 S
C1739 C1723 1.429 . S
C1739 C1735 1.429 . S
C1739 C1740 1.523 . S
C1740 C1724 1.368 . S
C1740 C1736 1.368 . S
C1740 C1739 1.523 . S
H1741 C1716 0.950 . S
H1742 C1718 0.950 . S
H1743 C1719 0.949 . S
H1744 C1721 0.950 . S
H1745 C1723 0.950 . S
C1746 C1747 1.349 . S
C1746 C1748 1.327 . S
C1746 H1771 0.950 . S
C1747 C1746 1.349 . S
C1747 C1763 1.349 . S
C1748 C1746 1.327 . S
C1748 C1767 1.429 . S
C1748 H1772 0.950 . S
C1749 C1766 1.574 . S
C1749 C1768 1.368 . S
C1749 H1773 0.949 . S
H1750 C1754 0.949 . S
C1751 C1752 1.349 . S
C1751 C1753 1.327 . S
C1751 H1774 0.950 . S
C1752 C1751 1.349 . S
C1752 C1764 1.349 . S
C1753 C1751 1.327 . S
C1753 C1769 1.429 . S
C1753 H1775 0.950 . S
C1754 H1750 0.949 . S
C1754 C1762 1.574 . S
C1754 C1770 1.368 . S
H1755 C1763 0.950 . S
H1756 C1761 0.950 . S
H1757 C1762 0.949 . S
H1758 C1764 0.950 . S
H1759 C1765 0.950 . S
H1760 C1766 0.949 . S
C1761 H1756 0.950 . S
C1761 C1763 1.327 . S
C1761 C1767 1.429 . S
C1762 C1754 1.574 . S
C1762 H1757 0.949 . S
C1762 C1768 1.368 . S
C1763 C1747 1.349 . S
C1763 H1755 0.950 . S
C1763 C1761 1.327 . S
C1764 C1752 1.349 . S
C1764 H1758 0.950 . S
C1764 C1765 1.327 . S
C1765 H1759 0.950 . S
C1765 C1764 1.327 . S
C1765 C1769 1.429 . S
C1766 C1749 1.574 . S
C1766 H1760 0.949 . S
C1766 C1770 1.368 . S
C1767 C1748 1.429 . S
C1767 C1761 1.429 . S
C1767 C1768 1.523 . S
C1768 C1749 1.368 . S
C1768 C1762 1.368 . S
C1768 C1767 1.523 . S
C1769 C1753 1.429 . S
C1769 C1765 1.429 . S
C1769 C1770 1.523 . S
C1770 C1754 1.368 . S
C1770 C1766 1.368 . S
C1770 C1769 1.523 . S
H1771 C1746 0.950 . S
H1772 C1748 0.950 . S
H1773 C1749 0.949 . S
H1774 C1751 0.950 . S
H1775 C1753 0.950 . S
C337 C121 0.889 . S
C342 C3 0.896 . S
C367 C17 0.896 . S
C372 C163 0.889 . S
C397 C31 0.896 . S
C402 C135 0.889 . S
C427 C45 0.896 . S
C432 C149 0.889 . S
C457 C59 0.866 . S
C462 C9 0.860 . S
C487 C23 0.860 . S
C492 C73 0.866 . S
C517 C87 0.866 . S
C522 C37 0.860 . S
C547 C51 0.860 . S
C552 C101 0.866 . S
C577 C65 0.883 . S
C582 C115 0.890 . S
C607 C93 0.883 . S
C612 C129 0.890 . S
C637 C143 0.890 . S
C642 C107 0.883 . S
C667 C79 0.883 . S
C672 C157 0.890 . S
C697 C283 0.873 . S
C702 C171 0.870 . S
C727 C185 0.870 . S
C732 C325 0.873 . S
C757 C199 0.870 . S
C762 C297 0.873 . S
C787 C311 0.873 . S
C792 C213 0.870 . S
C817 C233 0.850 . S
C822 C177 0.853 . S
C847 C191 0.853 . S
C852 C247 0.850 . S
C877 C205 0.853 . S
C882 C261 0.850 . S
C907 C275 0.850 . S
C912 C219 0.853 . S
C937 C289 0.850 . S
C942 C227 0.859 . S
C967 C255 0.859 . S
C972 C303 0.850 . S
C997 C269 0.859 . S
C1002 C317 0.850 . S
C1027 C331 0.850 . S
C1032 C241 0.859 . S
C1057 C315 1.321 . S
C1062 C7 1.329 . S
C1087 C301 1.321 . S
C1092 C21 1.329 . S
C1117 C329 1.321 . S
C1122 C35 1.329 . S
C1147 C49 1.329 . S
C1152 C287 1.321 . S
C1177 C63 1.327 . S
C1182 C190 1.347 . S
C1207 C176 1.347 . S
C1212 C77 1.327 . S
C1237 C218 1.347 . S
C1242 C91 1.327 . S
C1267 C204 1.347 . S
C1272 C105 1.327 . S
C1297 C119 1.346 . S
C1302 C259 1.335 . S
C1327 C231 1.335 . S
C1332 C133 1.346 . S
C1357 C245 1.335 . S
C1362 C147 1.346 . S
C1387 C273 1.335 . S
C1392 C161 1.346 . S
C1417 C148 1.406 . S
C1422 C175 1.381 . S
C1447 C134 1.406 . S
C1452 C189 1.381 . S
C1477 C203 1.381 . S
C1482 C162 1.406 . S
C1507 C120 1.406 . S
C1512 C217 1.381 . S
C1537 C232 1.424 . S
C1542 C22 1.422 . S
C1567 C246 1.424 . S
C1572 C8 1.422 . S
C1597 C260 1.424 . S
C1602 C50 1.422 . S
C1627 C274 1.424 . S
C1632 C36 1.422 . S
C1657 C288 1.392 . S
C1662 C92 1.389 . S
C1687 C302 1.392 . S
C1692 C64 1.389 . S
C1717 C78 1.389 . S
C1722 C316 1.392 . S
C1747 C330 1.392 . S
C1752 C106 1.389 . S
